# Generated by pormake.
# Topology eea, (3,6)-cn, num edge types: 1
# Building blocks:
#     Node 0, Type 0, BuildingBlock: BETDIP_clean_linker_0, # of connection points: 3
#     Node 1, Type 0, BuildingBlock: BETDIP_clean_linker_0, # of connection points: 3
#     Node 2, Type 0, BuildingBlock: BETDIP_clean_linker_0, # of connection points: 3
#     Node 3, Type 0, BuildingBlock: BETDIP_clean_linker_0, # of connection points: 3
#     Node 4, Type 0, BuildingBlock: BETDIP_clean_linker_0, # of connection points: 3
#     Node 5, Type 0, BuildingBlock: BETDIP_clean_linker_0, # of connection points: 3
#     Node 6, Type 0, BuildingBlock: BETDIP_clean_linker_0, # of connection points: 3
#     Node 7, Type 0, BuildingBlock: BETDIP_clean_linker_0, # of connection points: 3
#     Node 8, Type 0, BuildingBlock: BETDIP_clean_linker_0, # of connection points: 3
#     Node 9, Type 0, BuildingBlock: BETDIP_clean_linker_0, # of connection points: 3
#     Node 10, Type 0, BuildingBlock: BETDIP_clean_linker_0, # of connection points: 3
#     Node 11, Type 0, BuildingBlock: BETDIP_clean_linker_0, # of connection points: 3
#     Node 12, Type 0, BuildingBlock: BETDIP_clean_linker_0, # of connection points: 3
#     Node 13, Type 0, BuildingBlock: BETDIP_clean_linker_0, # of connection points: 3
#     Node 14, Type 0, BuildingBlock: BETDIP_clean_linker_0, # of connection points: 3
#     Node 15, Type 0, BuildingBlock: BETDIP_clean_linker_0, # of connection points: 3
#     Node 16, Type 0, BuildingBlock: BETDIP_clean_linker_0, # of connection points: 3
#     Node 17, Type 0, BuildingBlock: BETDIP_clean_linker_0, # of connection points: 3
#     Node 18, Type 1, BuildingBlock: CUWYAW_clean_sbu_0, # of connection points: 6
#     Node 19, Type 1, BuildingBlock: CUWYAW_clean_sbu_0, # of connection points: 6
#     Node 20, Type 1, BuildingBlock: CUWYAW_clean_sbu_0, # of connection points: 6
#     Node 21, Type 1, BuildingBlock: CUWYAW_clean_sbu_0, # of connection points: 6
#     Node 22, Type 1, BuildingBlock: CUWYAW_clean_sbu_0, # of connection points: 6
#     Node 23, Type 1, BuildingBlock: CUWYAW_clean_sbu_0, # of connection points: 6
#     Node 24, Type 1, BuildingBlock: CUWYAW_clean_sbu_0, # of connection points: 6
#     Node 25, Type 1, BuildingBlock: CUWYAW_clean_sbu_0, # of connection points: 6
#     Node 26, Type 1, BuildingBlock: CUWYAW_clean_sbu_0, # of connection points: 6
#     Edge 27, Type (0, 1), BuildingBlock: UVAHIK_clean_linker_0, # of connection points: 2
#     Edge 28, Type (0, 1), BuildingBlock: UVAHIK_clean_linker_0, # of connection points: 2
#     Edge 29, Type (0, 1), BuildingBlock: UVAHIK_clean_linker_0, # of connection points: 2
#     Edge 30, Type (0, 1), BuildingBlock: UVAHIK_clean_linker_0, # of connection points: 2
#     Edge 31, Type (0, 1), BuildingBlock: UVAHIK_clean_linker_0, # of connection points: 2
#     Edge 32, Type (0, 1), BuildingBlock: UVAHIK_clean_linker_0, # of connection points: 2
#     Edge 33, Type (0, 1), BuildingBlock: UVAHIK_clean_linker_0, # of connection points: 2
#     Edge 34, Type (0, 1), BuildingBlock: UVAHIK_clean_linker_0, # of connection points: 2
#     Edge 35, Type (0, 1), BuildingBlock: UVAHIK_clean_linker_0, # of connection points: 2
#     Edge 36, Type (0, 1), BuildingBlock: UVAHIK_clean_linker_0, # of connection points: 2
#     Edge 37, Type (0, 1), BuildingBlock: UVAHIK_clean_linker_0, # of connection points: 2
#     Edge 38, Type (0, 1), BuildingBlock: UVAHIK_clean_linker_0, # of connection points: 2
#     Edge 39, Type (0, 1), BuildingBlock: UVAHIK_clean_linker_0, # of connection points: 2
#     Edge 40, Type (0, 1), BuildingBlock: UVAHIK_clean_linker_0, # of connection points: 2
#     Edge 41, Type (0, 1), BuildingBlock: UVAHIK_clean_linker_0, # of connection points: 2
#     Edge 42, Type (0, 1), BuildingBlock: UVAHIK_clean_linker_0, # of connection points: 2
#     Edge 43, Type (0, 1), BuildingBlock: UVAHIK_clean_linker_0, # of connection points: 2
#     Edge 44, Type (0, 1), BuildingBlock: UVAHIK_clean_linker_0, # of connection points: 2
#     Edge 45, Type (0, 1), BuildingBlock: UVAHIK_clean_linker_0, # of connection points: 2
#     Edge 46, Type (0, 1), BuildingBlock: UVAHIK_clean_linker_0, # of connection points: 2
#     Edge 47, Type (0, 1), BuildingBlock: UVAHIK_clean_linker_0, # of connection points: 2
#     Edge 48, Type (0, 1), BuildingBlock: UVAHIK_clean_linker_0, # of connection points: 2
#     Edge 49, Type (0, 1), BuildingBlock: UVAHIK_clean_linker_0, # of connection points: 2
#     Edge 50, Type (0, 1), BuildingBlock: UVAHIK_clean_linker_0, # of connection points: 2
#     Edge 51, Type (0, 1), BuildingBlock: UVAHIK_clean_linker_0, # of connection points: 2
#     Edge 52, Type (0, 1), BuildingBlock: UVAHIK_clean_linker_0, # of connection points: 2
#     Edge 53, Type (0, 1), BuildingBlock: UVAHIK_clean_linker_0, # of connection points: 2
#     Edge 54, Type (0, 1), BuildingBlock: UVAHIK_clean_linker_0, # of connection points: 2
#     Edge 55, Type (0, 1), BuildingBlock: UVAHIK_clean_linker_0, # of connection points: 2
#     Edge 56, Type (0, 1), BuildingBlock: UVAHIK_clean_linker_0, # of connection points: 2
#     Edge 57, Type (0, 1), BuildingBlock: UVAHIK_clean_linker_0, # of connection points: 2
#     Edge 58, Type (0, 1), BuildingBlock: UVAHIK_clean_linker_0, # of connection points: 2
#     Edge 59, Type (0, 1), BuildingBlock: UVAHIK_clean_linker_0, # of connection points: 2
#     Edge 60, Type (0, 1), BuildingBlock: UVAHIK_clean_linker_0, # of connection points: 2
#     Edge 61, Type (0, 1), BuildingBlock: UVAHIK_clean_linker_0, # of connection points: 2
#     Edge 62, Type (0, 1), BuildingBlock: UVAHIK_clean_linker_0, # of connection points: 2
#     Edge 63, Type (0, 1), BuildingBlock: UVAHIK_clean_linker_0, # of connection points: 2
#     Edge 64, Type (0, 1), BuildingBlock: UVAHIK_clean_linker_0, # of connection points: 2
#     Edge 65, Type (0, 1), BuildingBlock: UVAHIK_clean_linker_0, # of connection points: 2
#     Edge 66, Type (0, 1), BuildingBlock: UVAHIK_clean_linker_0, # of connection points: 2
#     Edge 67, Type (0, 1), BuildingBlock: UVAHIK_clean_linker_0, # of connection points: 2
#     Edge 68, Type (0, 1), BuildingBlock: UVAHIK_clean_linker_0, # of connection points: 2
#     Edge 69, Type (0, 1), BuildingBlock: UVAHIK_clean_linker_0, # of connection points: 2
#     Edge 70, Type (0, 1), BuildingBlock: UVAHIK_clean_linker_0, # of connection points: 2
#     Edge 71, Type (0, 1), BuildingBlock: UVAHIK_clean_linker_0, # of connection points: 2
#     Edge 72, Type (0, 1), BuildingBlock: UVAHIK_clean_linker_0, # of connection points: 2
#     Edge 73, Type (0, 1), BuildingBlock: UVAHIK_clean_linker_0, # of connection points: 2
#     Edge 74, Type (0, 1), BuildingBlock: UVAHIK_clean_linker_0, # of connection points: 2
#     Edge 75, Type (0, 1), BuildingBlock: UVAHIK_clean_linker_0, # of connection points: 2
#     Edge 76, Type (0, 1), BuildingBlock: UVAHIK_clean_linker_0, # of connection points: 2
#     Edge 77, Type (0, 1), BuildingBlock: UVAHIK_clean_linker_0, # of connection points: 2
#     Edge 78, Type (0, 1), BuildingBlock: UVAHIK_clean_linker_0, # of connection points: 2
#     Edge 79, Type (0, 1), BuildingBlock: UVAHIK_clean_linker_0, # of connection points: 2
#     Edge 80, Type (0, 1), BuildingBlock: UVAHIK_clean_linker_0, # of connection points: 2
# Relax obj value: 0.058
# Max RMSD: 0.198
# Mean RMSD: 0.138
data_MOF--net-eea--node1-CUWYAW_clean_sbu_0--node2-BETDIP_clean_linker_0--edge1-UVAHIK_clean_linker_0
_symmetry_space_group_name_H-M    P1
_symmetry_Int_Tables_number       1
_symmetry_cell_setting            triclinic
loop_
_symmetry_equiv_pos_as_xyz
'x, y, z'
_cell_length_a     71.130375
_cell_length_b     70.828003
_cell_length_c     86.038098
_cell_angle_alpha  93.443187
_cell_angle_beta   93.550524
_cell_angle_gamma 119.84999
loop_
_atom_site_label
_atom_site_type_symbol
_atom_site_fract_x
_atom_site_fract_y
_atom_site_fract_z
_atom_type_partial_charge
H0 H 0.23774 0.11737 0.37475 0.0
H1 H 0.26067 0.1604 0.41757 0.0
H2 H 0.26022 0.09949 0.41585 0.0
H3 H 0.26825 0.18609 0.40012 0.0
C4 C 0.25327 0.17767 0.39224 0.0
C5 C 0.24454 0.12102 0.3869 0.0
C6 C 0.24894 0.1062 0.39419 0.0
C7 C 0.2491 0.14076 0.39512 0.0
C8 C 0.25768 0.14551 0.41097 0.0
C9 C 0.26197 0.13078 0.41848 0.0
C10 C 0.25768 0.11127 0.40996 0.0
N11 N 0.24381 0.15497 0.38742 0.0
H12 H 0.9071 0.12306 0.38912 0.0
H13 H 0.86557 0.10195 0.42618 0.0
H14 H 0.92632 0.16266 0.43356 0.0
H15 H 0.83939 0.08833 0.40436 0.0
C16 C 0.84638 0.08028 0.39767 0.0
C17 C 0.90387 0.12595 0.40091 0.0
C18 C 0.9192 0.14484 0.41067 0.0
C19 C 0.88429 0.11066 0.40629 0.0
C20 C 0.88035 0.11396 0.42175 0.0
C21 C 0.89545 0.13266 0.43163 0.0
C22 C 0.91472 0.14812 0.42597 0.0
N23 N 0.86912 0.09171 0.3962 0.0
H24 H 0.8897 0.78149 0.39914 0.0
H25 H 0.91289 0.76157 0.43861 0.0
H26 H 0.84912 0.75438 0.43616 0.0
H27 H 0.94532 0.7915 0.43372 0.0
C28 C 0.94421 0.78857 0.42107 0.0
C29 C 0.88704 0.77462 0.41026 0.0
C30 C 0.86712 0.76771 0.41653 0.0
C31 C 0.90382 0.77309 0.41838 0.0
C32 C 0.90035 0.76373 0.43264 0.0
C33 C 0.88053 0.75667 0.43907 0.0
C34 C 0.8641 0.75888 0.43096 0.0
N35 N 0.92397 0.78091 0.4119 0.0
H36 H 0.09301 0.21508 0.6201 0.0
H37 H 0.13691 0.24221 0.585 0.0
H38 H 0.08568 0.25717 0.58928 0.0
H39 H 0.13596 0.20874 0.5863 0.0
C40 C 0.1389 0.21 0.59897 0.0
C41 C 0.09835 0.22523 0.61054 0.0
C42 C 0.08726 0.23588 0.60552 0.0
C43 C 0.11616 0.22733 0.60313 0.0
C44 C 0.1231 0.24048 0.59074 0.0
C45 C 0.11218 0.25129 0.58562 0.0
C46 C 0.09433 0.24902 0.59317 0.0
N47 N 0.12713 0.21649 0.60857 0.0
H48 H 0.77317 0.88237 0.64832 0.0
H49 H 0.75189 0.90135 0.60735 0.0
H50 H 0.75211 0.84074 0.60479 0.0
H51 H 0.74169 0.91795 0.62678 0.0
C52 C 0.75697 0.92573 0.63434 0.0
C53 C 0.76685 0.8789 0.63606 0.0
C54 C 0.76269 0.85942 0.6275 0.0
C55 C 0.76255 0.89384 0.62899 0.0
C56 C 0.75465 0.88959 0.61304 0.0
C57 C 0.75073 0.8704 0.60424 0.0
C58 C 0.75456 0.8553 0.61161 0.0
N59 N 0.76732 0.91354 0.63793 0.0
H60 H 0.1184 0.89414 0.63021 0.0
H61 H 0.09956 0.85292 0.58675 0.0
H62 H 0.16248 0.91111 0.59459 0.0
H63 H 0.0659 0.84625 0.59187 0.0
C64 C 0.06626 0.84511 0.60441 0.0
C65 C 0.12221 0.89073 0.61875 0.0
C66 C 0.14261 0.90484 0.61372 0.0
C67 C 0.10639 0.87234 0.60896 0.0
C68 C 0.1113 0.86753 0.59418 0.0
C69 C 0.13167 0.8813 0.58903 0.0
C70 C 0.14714 0.89993 0.59884 0.0
N71 N 0.08578 0.85893 0.61439 0.0
H72 H 0.90145 0.45237 0.71081 0.0
H73 H 0.92548 0.4953 0.7537 0.0
H74 H 0.92497 0.43432 0.7513 0.0
H75 H 0.93205 0.52104 0.7366 0.0
C76 C 0.9172 0.5126 0.72858 0.0
C77 C 0.90856 0.45598 0.72288 0.0
C78 C 0.91312 0.44111 0.72993 0.0
C79 C 0.91333 0.47571 0.73123 0.0
C80 C 0.92232 0.48041 0.74698 0.0
C81 C 0.9268 0.46564 0.75426 0.0
C82 C 0.92227 0.44613 0.7456 0.0
N83 N 0.90787 0.48992 0.72372 0.0
H84 H 0.57353 0.45778 0.72014 0.0
H85 H 0.53156 0.43568 0.75683 0.0
H86 H 0.59336 0.49528 0.76544 0.0
H87 H 0.50558 0.42277 0.73504 0.0
C88 C 0.51258 0.41493 0.72812 0.0
C89 C 0.57033 0.46024 0.73202 0.0
C90 C 0.58586 0.47859 0.74212 0.0
C91 C 0.55058 0.44492 0.73715 0.0
C92 C 0.54658 0.44768 0.75268 0.0
C93 C 0.56196 0.46576 0.76299 0.0
C94 C 0.58149 0.48121 0.75757 0.0
N95 N 0.53533 0.42642 0.72672 0.0
H96 H 0.55743 0.11866 0.7322 0.0
H97 H 0.58045 0.10622 0.77562 0.0
H98 H 0.51578 0.09644 0.7692 0.0
H99 H 0.6129 0.13285 0.7691 0.0
C100 C 0.61176 0.12853 0.75661 0.0
C101 C 0.55461 0.11357 0.74387 0.0
C102 C 0.53448 0.10749 0.74954 0.0
C103 C 0.57136 0.1135 0.75326 0.0
C104 C 0.56774 0.10667 0.76835 0.0
C105 C 0.54773 0.10057 0.77419 0.0
C106 C 0.5312 0.10096 0.76469 0.0
N107 N 0.59161 0.12025 0.74718 0.0
H108 H 0.76222 0.54997 0.95467 0.0
H109 H 0.80167 0.56931 0.91649 0.0
H110 H 0.74917 0.58264 0.9184 0.0
H111 H 0.80038 0.53619 0.9208 0.0
C112 C 0.80501 0.53994 0.93336 0.0
C113 C 0.76592 0.55754 0.94384 0.0
C114 C 0.75342 0.56613 0.93746 0.0
C115 C 0.78298 0.55822 0.93616 0.0
C116 C 0.78825 0.56843 0.92233 0.0
C117 C 0.77624 0.57745 0.91592 0.0
C118 C 0.75875 0.57608 0.92349 0.0
N119 N 0.79484 0.5488 0.94265 0.0
H120 H 0.44657 0.2168 0.97624 0.0
H121 H 0.42202 0.2358 0.93701 0.0
H122 H 0.42189 0.17509 0.93256 0.0
H123 H 0.41188 0.25087 0.95758 0.0
C124 C 0.42752 0.25896 0.96471 0.0
C125 C 0.43905 0.21312 0.96428 0.0
C126 C 0.43465 0.19381 0.95529 0.0
C127 C 0.43397 0.22798 0.95792 0.0
C128 C 0.42525 0.224 0.94219 0.0
C129 C 0.42108 0.20506 0.93293 0.0
C130 C 0.42539 0.18985 0.93966 0.0
N131 N 0.43877 0.24736 0.96732 0.0
H132 H 0.78609 0.2293 0.96243 0.0
H133 H 0.76792 0.18399 0.92109 0.0
H134 H 0.828 0.24536 0.92552 0.0
H135 H 0.74742 0.15929 0.93699 0.0
C136 C 0.74173 0.16788 0.94446 0.0
C137 C 0.78975 0.22494 0.95118 0.0
C138 C 0.80888 0.23975 0.94499 0.0
C139 C 0.77499 0.20466 0.9428 0.0
C140 C 0.77939 0.19926 0.92795 0.0
C141 C 0.79864 0.2138 0.92174 0.0
C142 C 0.81326 0.23395 0.93035 0.0
N143 N 0.75545 0.1906 0.94931 0.0
H144 H 0.56559 0.78107 0.04629 0.0
H145 H 0.58768 0.82508 0.08862 0.0
H146 H 0.57955 0.76097 0.0897 0.0
H147 H 0.59931 0.85093 0.07085 0.0
C148 C 0.58489 0.84313 0.06239 0.0
C149 C 0.57122 0.7846 0.05868 0.0
C150 C 0.57196 0.76848 0.06703 0.0
C151 C 0.5772 0.80516 0.06627 0.0
C152 C 0.58388 0.80961 0.08246 0.0
C153 C 0.58449 0.79361 0.09098 0.0
C154 C 0.57865 0.77318 0.08318 0.0
N155 N 0.57471 0.82035 0.05758 0.0
H156 H 0.23953 0.79144 0.05371 0.0
H157 H 0.19909 0.77083 0.09133 0.0
H158 H 0.25776 0.83364 0.09677 0.0
H159 H 0.17251 0.75536 0.0698 0.0
C160 C 0.17984 0.74758 0.06321 0.0
C161 C 0.23641 0.79466 0.06546 0.0
C162 C 0.25104 0.81447 0.07456 0.0
C163 C 0.21727 0.77922 0.07123 0.0
C164 C 0.21323 0.78324 0.08651 0.0
C165 C 0.22774 0.80282 0.09585 0.0
C166 C 0.24653 0.81841 0.08971 0.0
N167 N 0.20254 0.75953 0.06165 0.0
H168 H 0.22415 0.45103 0.06812 0.0
H169 H 0.24561 0.43152 0.10887 0.0
H170 H 0.18635 0.43365 0.10745 0.0
H171 H 0.27856 0.45666 0.10202 0.0
C172 C 0.27672 0.45321 0.08937 0.0
C173 C 0.22159 0.44542 0.07966 0.0
C174 C 0.20333 0.44278 0.08683 0.0
C175 C 0.23726 0.44205 0.08769 0.0
C176 C 0.23396 0.43477 0.10268 0.0
C177 C 0.21577 0.432 0.10991 0.0
C178 C 0.20058 0.43605 0.10193 0.0
N179 N 0.25644 0.4467 0.08064 0.0
H180 H 0.43827 0.89493 0.29014 0.0
H181 H 0.46755 0.90219 0.24698 0.0
H182 H 0.40948 0.90589 0.2486 0.0
H183 H 0.49704 0.91081 0.26196 0.0
C184 C 0.49188 0.90135 0.27189 0.0
C185 C 0.43832 0.89763 0.27788 0.0
C186 C 0.4218 0.90039 0.27042 0.0
C187 C 0.4552 0.89873 0.26968 0.0
C188 C 0.4551 0.90193 0.25369 0.0
C189 C 0.43887 0.9049 0.24614 0.0
C190 C 0.42234 0.90417 0.25457 0.0
N191 N 0.47168 0.896 0.27768 0.0
H192 H 0.10934 0.54715 0.3119 0.0
H193 H 0.08895 0.56674 0.27087 0.0
H194 H 0.08929 0.50618 0.26809 0.0
H195 H 0.07834 0.58305 0.29006 0.0
C196 C 0.09332 0.59065 0.29795 0.0
C197 C 0.10333 0.54387 0.29958 0.0
C198 C 0.09943 0.52455 0.29093 0.0
C199 C 0.09913 0.5589 0.29255 0.0
C200 C 0.09162 0.55491 0.27653 0.0
C201 C 0.08793 0.53587 0.26763 0.0
C202 C 0.09162 0.52065 0.27497 0.0
N203 N 0.10359 0.57841 0.30161 0.0
H204 H 0.45169 0.55867 0.29616 0.0
H205 H 0.43224 0.51693 0.25285 0.0
H206 H 0.49444 0.57599 0.25969 0.0
H207 H 0.41005 0.49133 0.26738 0.0
C208 C 0.40506 0.49984 0.27558 0.0
C209 C 0.45523 0.55516 0.28462 0.0
C210 C 0.47521 0.56961 0.27919 0.0
C211 C 0.43979 0.53594 0.27539 0.0
C212 C 0.4442 0.53134 0.26033 0.0
C213 C 0.46408 0.54558 0.25473 0.0
C214 C 0.47945 0.56459 0.26424 0.0
N215 N 0.41974 0.52206 0.28139 0.0
C216 C 0.5176 0.01886 0.05782 0.0
Eu217 Eu 0.50344 0.01497 0.02854 0.0
C218 C 0.50874 0.00678 0.07131 0.0
C219 C 0.515 0.01804 0.08634 0.0
C220 C 0.50597 0.00702 0.09924 0.0
C221 C 0.49051 0.98451 0.09729 0.0
C222 C 0.48436 0.97323 0.08218 0.0
C223 C 0.49336 0.9843 0.06928 0.0
C224 C 0.49173 0.04147 0.01507 0.0
C225 C 0.45172 0.97776 0.02213 0.0
C226 C 0.46701 0.99305 0.96588 0.0
Eu227 Eu 0.48164 0.99847 0.99523 0.0
C228 C 0.4755 0.00382 0.95183 0.0
C229 C 0.49773 0.01335 0.94981 0.0
C230 C 0.50548 0.02317 0.93623 0.0
C231 C 0.49114 0.02377 0.92454 0.0
C232 C 0.46896 0.01453 0.92675 0.0
C233 C 0.46121 0.0046 0.9403 0.0
C234 C 0.49463 0.97289 0.00896 0.0
C235 C 0.53339 0.03557 0.00142 0.0
O236 O 0.52184 0.00869 0.04658 0.0
O237 O 0.50798 0.0292 0.05259 0.0
O238 O 0.50882 0.04853 0.02505 0.0
O239 O 0.48055 0.02083 0.01364 0.0
O240 O 0.47005 0.98615 0.03155 0.0
O241 O 0.45158 0.98264 0.0076 0.0
O242 O 0.4635 0.00441 0.97665 0.0
O243 O 0.47617 0.98257 0.97168 0.0
O244 O 0.47662 0.96515 -0.00015 0.0
O245 O 0.50515 0.99345 0.00987 0.0
O246 O 0.51508 0.02696 0.99191 0.0
O247 O 0.53349 0.03117 0.01611 0.0
H248 H 0.52679 0.03541 0.08808 0.0
H249 H 0.51122 0.01607 0.11077 0.0
H250 H 0.47234 0.95594 0.08032 0.0
H251 H 0.48818 0.97535 0.05771 0.0
H252 H 0.50907 0.01307 0.95867 0.0
H253 H 0.52268 0.03039 0.9349 0.0
H254 H 0.45753 0.01459 0.91786 0.0
H255 H 0.44403 0.99738 0.94171 0.0
C256 C 0.00616 0.51593 0.05415 0.0
Eu257 Eu -7e-05 0.49639 0.0261 0.0
C258 C 0.01246 0.51428 0.07052 0.0
C259 C 0.99634 0.50456 0.08075 0.0
C260 C 0.00205 0.50397 0.09645 0.0
C261 C 0.02405 0.51329 0.10237 0.0
C262 C 0.04019 0.52281 0.0921 0.0
C263 C 0.03446 0.52333 0.07635 0.0
C264 C 0.96989 0.45417 0.01647 0.0
C265 C 0.03196 0.47594 0.02237 0.0
C266 C 0.99832 0.46107 0.96563 0.0
Eu267 Eu 0.00438 0.47993 0.99388 0.0
C268 C 0.99237 0.46387 0.94948 0.0
C269 C 0.00874 0.47518 0.93972 0.0
C270 C 0.00333 0.47737 0.92432 0.0
C271 C 0.9814 0.46809 0.91826 0.0
C272 C 0.965 0.45679 0.928 0.0
C273 C 0.97042 0.45468 0.94345 0.0
C274 C 0.03391 0.52245 0.0036 0.0
C275 C 0.97211 0.50004 0.99748 0.0
O276 O 0.02118 0.52238 0.04445 0.0
O277 O 0.98715 0.50028 0.04764 0.0
O278 O 0.96583 0.46727 0.02486 0.0
O279 O 0.9898 0.46333 0.01448 0.0
O280 O 0.0276 0.48934 0.03073 0.0
O281 O 0.02183 0.46687 0.00827 0.0
O282 O 0.98316 0.45446 0.97522 0.0
O283 O 0.01741 0.47616 0.97244 0.0
O284 O 0.03846 0.50965 0.99531 0.0
O285 O 0.01399 0.51277 0.00541 0.0
O286 O 0.97659 0.48673 0.98915 0.0
O287 O 0.98217 0.50913 0.0116 0.0
H288 H 0.97926 0.49759 0.07665 0.0
H289 H 0.9892 0.49624 0.10398 0.0
H290 H 0.0573 0.53041 0.09631 0.0
H291 H 0.04731 0.53116 0.06883 0.0
H292 H 0.0258 0.48218 0.94393 0.0
H293 H 0.01632 0.48586 0.91702 0.0
H294 H 0.94796 0.44959 0.92369 0.0
H295 H 0.95739 0.44573 0.95061 0.0
C296 C 0.48557 0.48917 0.96412 0.0
Eu297 Eu 0.50198 0.5109 0.99169 0.0
C298 C 0.49344 0.48801 0.94894 0.0
C299 C 0.51417 0.5041 0.94567 0.0
C300 C 0.52136 0.50279 0.93109 0.0
C301 C 0.50794 0.48532 0.9196 0.0
C302 C 0.48723 0.4692 0.92302 0.0
C303 C 0.48007 0.47056 0.93758 0.0
C304 C 0.5145 0.55321 -2e-05 0.0
C305 C 0.55495 0.53203 0.99636 0.0
C306 C 0.5432 0.55034 0.05202 0.0
Eu307 Eu 0.52702 0.52943 0.0242 0.0
C308 C 0.53585 0.54796 0.0677 0.0
C309 C 0.51528 0.53072 0.07018 0.0
C310 C 0.50859 0.52837 0.08523 0.0
C311 C 0.52241 0.54318 0.09803 0.0
C312 C 0.54296 0.56049 0.0954 0.0
C313 C 0.5496 0.56284 0.08035 0.0
C314 C 0.51335 0.48666 0.01603 0.0
C315 C 0.47399 0.50878 0.01958 0.0
O316 O 0.49238 0.48194 0.97554 0.0
O317 O 0.48592 0.50736 0.96846 0.0
O318 O 0.49634 0.53961 0.99157 0.0
O319 O 0.52579 0.54438 0.00273 0.0
O320 O 0.53625 0.518 0.98801 0.0
O321 O 0.55555 0.54175 0.01011 0.0
O322 O 0.53284 0.55576 0.04175 0.0
O323 O 0.54663 0.53495 0.04624 0.0
O324 O 0.53161 0.49985 0.02447 0.0
O325 O 0.5028 0.49618 0.01332 0.0
O326 O 0.49276 0.52199 0.02817 0.0
O327 O 0.47317 0.49973 0.00549 0.0
H328 H 0.52475 0.51765 0.95438 0.0
H329 H 0.53747 0.51532 0.92887 0.0
H330 H 0.4764 0.4557 0.91436 0.0
H331 H 0.46402 0.45801 0.93994 0.0
H332 H 0.50451 0.51901 0.0605 0.0
H333 H 0.49276 0.51476 0.08688 0.0
H334 H 0.55385 0.57236 0.10496 0.0
H335 H 0.56551 0.57626 0.07859 0.0
C336 C 0.1884 0.34951 0.39161 0.0
Eu337 Eu 0.17103 0.34707 0.36348 0.0
C338 C 0.18166 0.34445 0.40734 0.0
C339 C 0.19456 0.35934 0.42027 0.0
C340 C 0.18887 0.35475 0.4354 0.0
C341 C 0.17019 0.33509 0.43786 0.0
C342 C 0.15708 0.32034 0.42482 0.0
C343 C 0.16274 0.325 0.40968 0.0
C344 C 0.15749 0.37415 0.35343 0.0
C345 C 0.11848 0.3116 0.35867 0.0
C346 C 0.13044 0.33112 0.30249 0.0
Eu347 Eu 0.14664 0.33328 0.33093 0.0
C348 C 0.13923 0.34022 0.28798 0.0
C349 C 0.13062 0.3269 0.27373 0.0
C350 C 0.13918 0.335 0.25986 0.0
C351 C 0.15645 0.35661 0.26004 0.0
C352 C 0.16505 0.36994 0.27435 0.0
C353 C 0.15656 0.36179 0.28823 0.0
C354 C 0.16092 0.30677 0.34119 0.0
C355 C 0.19897 0.36814 0.33553 0.0
O356 O 0.18218 0.33292 0.381 0.0
O357 O 0.18693 0.36562 0.38617 0.0
O358 O 0.17584 0.38084 0.36186 0.0
O359 O 0.14659 0.35354 0.35139 0.0
O360 O 0.13722 0.31979 0.36764 0.0
O361 O 0.1176 0.31684 0.34429 0.0
O362 O 0.13196 0.34499 0.31395 0.0
O363 O 0.13522 0.31668 0.30725 0.0
O364 O 0.14225 0.29955 0.33302 0.0
O365 O 0.17136 0.32735 0.34293 0.0
O366 O 0.18014 0.36131 0.32704 0.0
O367 O 0.19975 0.36176 0.34954 0.0
H368 H 0.20914 0.3745 0.41867 0.0
H369 H 0.19912 0.36662 0.44516 0.0
H370 H 0.14272 0.30494 0.42631 0.0
H371 H 0.1525 0.31328 0.39984 0.0
H372 H 0.11729 0.31019 0.27334 0.0
H373 H 0.13208 0.32445 0.24896 0.0
H374 H 0.17851 0.38659 0.27484 0.0
H375 H 0.1636 0.37232 0.29914 0.0
C376 C 0.67046 0.84449 0.39014 0.0
Eu377 Eu 0.66496 0.82654 0.36164 0.0
C378 C 0.6766 0.84254 0.40645 0.0
C379 C 0.66031 0.83231 0.41647 0.0
C380 C 0.66584 0.83189 0.43225 0.0
C381 C 0.6878 0.84189 0.43842 0.0
C382 C 0.70411 0.85176 0.42833 0.0
C383 C 0.69857 0.85212 0.41251 0.0
C384 C 0.63508 0.78481 0.35059 0.0
C385 C 0.69717 0.80651 0.35686 0.0
C386 C 0.66464 0.79543 0.30022 0.0
Eu387 Eu 0.67011 0.8125 0.32893 0.0
C388 C 0.65783 0.79862 0.28453 0.0
C389 C 0.6713 0.80176 0.27256 0.0
C390 C 0.66534 0.80489 0.25758 0.0
C391 C 0.64566 0.80473 0.25427 0.0
C392 C 0.63218 0.80163 0.26628 0.0
C393 C 0.63826 0.79872 0.28132 0.0
C394 C 0.69969 0.85437 0.34015 0.0
C395 C 0.63784 0.83241 0.33359 0.0
O396 O 0.68568 0.85174 0.3806 0.0
O397 O 0.6517 0.82872 0.38335 0.0
O398 O 0.63082 0.79728 0.35953 0.0
O399 O 0.65507 0.79424 0.34881 0.0
O400 O 0.69243 0.81906 0.36588 0.0
O401 O 0.6876 0.79874 0.34247 0.0
O402 O 0.64973 0.78729 0.30995 0.0
O403 O 0.68337 0.81126 0.30698 0.0
O404 O 0.70433 0.842 0.33142 0.0
O405 O 0.67966 0.84465 0.3417 0.0
O406 O 0.64281 0.82012 0.32451 0.0
O407 O 0.64715 0.83997 0.34806 0.0
H408 H 0.64324 0.82494 0.41219 0.0
H409 H 0.65287 0.82388 0.43964 0.0
H410 H 0.72119 0.85985 0.43275 0.0
H411 H 0.71154 0.86035 0.40515 0.0
H412 H 0.68645 0.80174 0.27479 0.0
H413 H 0.67591 0.80699 0.24851 0.0
H414 H 0.61701 0.80161 0.26406 0.0
H415 H 0.62764 0.79653 0.29038 0.0
C416 C 0.15515 0.82289 0.29897 0.0
Eu417 Eu 0.17146 0.84361 0.32682 0.0
C418 C 0.16244 0.82284 0.28331 0.0
C419 C 0.15078 0.82487 0.27042 0.0
C420 C 0.15716 0.82474 0.25542 0.0
C421 C 0.17529 0.82238 0.25295 0.0
C422 C 0.18706 0.82048 0.26594 0.0
C423 C 0.18074 0.82076 0.28098 0.0
C424 C 0.18492 0.88615 0.33522 0.0
C425 C 0.22425 0.86357 0.33176 0.0
C426 C 0.21241 0.88183 0.38726 0.0
Eu427 Eu 0.19607 0.86128 0.35935 0.0
C428 C 0.20502 0.87969 0.40291 0.0
C429 C 0.1842 0.86291 0.40536 0.0
C430 C 0.17747 0.86081 0.4204 0.0
C431 C 0.19151 0.87542 0.43321 0.0
C432 C 0.21232 0.89227 0.43061 0.0
C433 C 0.219 0.89438 0.41557 0.0
C434 C 0.18159 0.81836 0.35096 0.0
C435 C 0.14332 0.84171 0.35456 0.0
O436 O 0.16262 0.81558 0.30997 0.0
O437 O 0.15442 0.84029 0.30399 0.0
O438 O 0.16674 0.87287 0.32674 0.0
O439 O 0.1958 0.87691 0.33801 0.0
O440 O 0.20556 0.84998 0.32322 0.0
O441 O 0.22481 0.87321 0.34553 0.0
O442 O 0.20257 0.88779 0.37698 0.0
O443 O 0.21518 0.86599 0.38147 0.0
O444 O 0.19987 0.83123 0.35948 0.0
O445 O 0.1714 0.82826 0.34828 0.0
O446 O 0.16207 0.8548 0.36318 0.0
O447 O 0.14255 0.83246 0.34056 0.0
H448 H 0.13668 0.8266 0.27197 0.0
H449 H 0.14795 0.82666 0.24576 0.0
H450 H 0.20095 0.81839 0.26447 0.0
H451 H 0.19009 0.81922 0.29074 0.0
H452 H 0.17325 0.85137 0.39567 0.0
H453 H 0.16143 0.84755 0.42204 0.0
H454 H 0.22339 0.90399 0.44017 0.0
H455 H 0.23511 0.90745 0.41383 0.0
C456 C 0.85443 0.68403 0.72299 0.0
Eu457 Eu 0.83718 0.68156 0.69482 0.0
C458 C 0.84719 0.67596 0.73806 0.0
C459 C 0.85863 0.68939 0.75191 0.0
C460 C 0.85214 0.68213 0.76641 0.0
C461 C 0.83409 0.66124 0.76732 0.0
C462 C 0.8225 0.64789 0.75336 0.0
C463 C 0.82898 0.6552 0.73884 0.0
C464 C 0.82368 0.70863 0.68478 0.0
C465 C 0.78481 0.64584 0.69001 0.0
C466 C 0.79642 0.66599 0.63392 0.0
Eu467 Eu 0.81259 0.66775 0.66228 0.0
C468 C 0.80528 0.67349 0.61905 0.0
C469 C 0.79645 0.65894 0.60534 0.0
C470 C 0.80502 0.66547 0.59118 0.0
C471 C 0.82249 0.68675 0.59047 0.0
C472 C 0.83129 0.70134 0.60421 0.0
C473 C 0.82283 0.69475 0.6184 0.0
C474 C 0.82725 0.64143 0.67231 0.0
C475 C 0.86505 0.70306 0.66684 0.0
O476 O 0.85167 0.66946 0.71162 0.0
O477 O 0.84961 0.69849 0.71835 0.0
O478 O 0.84217 0.71533 0.69302 0.0
O479 O 0.81267 0.688 0.6828 0.0
O480 O 0.80368 0.65346 0.69868 0.0
O481 O 0.78376 0.6518 0.6759 0.0
O482 O 0.79999 0.68112 0.64511 0.0
O483 O 0.79895 0.65028 0.63899 0.0
O484 O 0.80859 0.6341 0.66411 0.0
O485 O 0.83749 0.662 0.67415 0.0
O486 O 0.84623 0.69516 0.65808 0.0
O487 O 0.86607 0.69772 0.68118 0.0
H488 H 0.87261 0.70552 0.7515 0.0
H489 H 0.8612 0.69296 0.77692 0.0
H490 H 0.80867 0.63164 0.75366 0.0
H491 H 0.81989 0.6446 0.72826 0.0
H492 H 0.78296 0.64247 0.60562 0.0
H493 H 0.79779 0.65398 0.58073 0.0
H494 H 0.8449 0.71776 0.60401 0.0
H495 H 0.83009 0.70623 0.62885 0.0
C496 C 0.33891 0.18342 0.71932 0.0
Eu497 Eu 0.33234 0.16367 0.6913 0.0
C498 C 0.34492 0.18169 0.73574 0.0
C499 C 0.32859 0.17123 0.7457 0.0
C500 C 0.33407 0.17071 0.76147 0.0
C501 C 0.35602 0.1808 0.76771 0.0
C502 C 0.37237 0.19104 0.7577 0.0
C503 C 0.36689 0.19153 0.7419 0.0
C504 C 0.30252 0.12129 0.68191 0.0
C505 C 0.36427 0.14319 0.68714 0.0
C506 C 0.33015 0.12837 0.63071 0.0
Eu507 Eu 0.33636 0.14729 0.65895 0.0
C508 C 0.32436 0.1312 0.61453 0.0
C509 C 0.34083 0.14252 0.60484 0.0
C510 C 0.33553 0.14461 0.58939 0.0
C511 C 0.31364 0.13524 0.58322 0.0
C512 C 0.29715 0.12397 0.5929 0.0
C513 C 0.30245 0.12195 0.6084 0.0
C514 C 0.36578 0.1899 0.66854 0.0
C515 C 0.30384 0.16693 0.66288 0.0
O516 O 0.35398 0.18942 0.70968 0.0
O517 O 0.31975 0.16811 0.71277 0.0
O518 O 0.29847 0.13422 0.69051 0.0
O519 O 0.32234 0.13067 0.67966 0.0
O520 O 0.36017 0.15669 0.69566 0.0
O521 O 0.35378 0.13409 0.67315 0.0
O522 O 0.31497 0.12198 0.64027 0.0
O523 O 0.34931 0.1433 0.63753 0.0
O524 O 0.37031 0.17718 0.66014 0.0
O525 O 0.34591 0.18009 0.67052 0.0
O526 O 0.30834 0.15373 0.65445 0.0
O527 O 0.31406 0.17606 0.67696 0.0
H528 H 0.31152 0.16367 0.74136 0.0
H529 H 0.32107 0.16245 0.76881 0.0
H530 H 0.38944 0.19924 0.76217 0.0
H531 H 0.37988 0.19996 0.7346 0.0
H532 H 0.35786 0.14956 0.60914 0.0
H533 H 0.34859 0.15308 0.58214 0.0
H534 H 0.28013 0.1167 0.58849 0.0
H535 H 0.28935 0.11299 0.6155 0.0
C536 C 0.8187 0.15893 0.63207 0.0
Eu537 Eu 0.83553 0.1794 0.65993 0.0
C538 C 0.82654 0.15758 0.61681 0.0
C539 C 0.81733 0.16168 0.60347 0.0
C540 C 0.82463 0.16085 0.58889 0.0
C541 C 0.84116 0.1557 0.58735 0.0
C542 C 0.85033 0.15149 0.60071 0.0
C543 C 0.84318 0.15255 0.61534 0.0
C544 C 0.84869 0.22186 0.66844 0.0
C545 C 0.88814 0.19951 0.66368 0.0
C546 C 0.8785 0.21824 0.71974 0.0
Eu547 Eu 0.8615 0.19767 0.69194 0.0
C548 C 0.87135 0.21538 0.73548 0.0
C549 C 0.85096 0.19782 0.73792 0.0
C550 C 0.84432 0.19509 0.75298 0.0
C551 C 0.858 0.20988 0.76583 0.0
C552 C 0.8784 0.2275 0.76325 0.0
C553 C 0.885 0.23021 0.74819 0.0
C554 C 0.84725 0.15476 0.68367 0.0
C555 C 0.80856 0.17763 0.68831 0.0
O556 O 0.8238 0.15031 0.64347 0.0
O557 O 0.82031 0.17765 0.6367 0.0
O558 O 0.83005 0.20825 0.6606 0.0
O559 O 0.85996 0.2129 0.6707 0.0
O560 O 0.86917 0.18484 0.65598 0.0
O561 O 0.88928 0.21019 0.67712 0.0
O562 O 0.86791 0.22385 0.70982 0.0
O563 O 0.88187 0.20301 0.71355 0.0
O564 O 0.86586 0.16793 0.6917 0.0
O565 O 0.83671 0.16441 0.68134 0.0
O566 O 0.82761 0.19077 0.69657 0.0
O567 O 0.80717 0.16843 0.67415 0.0
H568 H 0.80447 0.16557 0.60434 0.0
H569 H 0.81713 0.16394 0.57876 0.0
H570 H 0.86323 0.14767 0.59986 0.0
H571 H 0.85072 0.14949 0.62546 0.0
H572 H 0.84026 0.18616 0.72819 0.0
H573 H 0.82862 0.18125 0.75458 0.0
H574 H 0.88917 0.23936 0.77286 0.0
H575 H 0.90076 0.24389 0.74647 0.0
C576 C 0.28435 0.82509 0.06058 0.0
C577 C 0.27106 0.83117 0.06834 0.0
C578 C 0.30368 0.84099 0.05536 0.0
C579 C 0.34996 0.87919 0.05506 0.0
H580 H 0.35155 0.92747 0.03497 0.0
C581 C 0.43063 0.95432 0.04259 0.0
C582 C 0.43091 0.96179 0.02778 0.0
C583 C 0.41103 0.93857 0.0476 0.0
C584 C 0.35135 0.91404 0.0405 0.0
H585 H 0.26727 0.85861 0.07631 0.0
H586 H 0.30106 0.88634 0.06732 0.0
H587 H 0.31725 0.8991 0.04295 0.0
H588 H 0.41072 0.95874 0.00671 0.0
H589 H 0.37666 0.93131 0.01546 0.0
H590 H 0.38402 0.89401 0.05246 0.0
C591 C 0.29654 0.8693 0.06523 0.0
C592 C 0.33174 0.89789 0.04519 0.0
C593 C 0.2773 0.85343 0.07051 0.0
C594 C 0.41112 0.95338 0.0182 0.0
C595 C 0.39155 0.93773 0.02323 0.0
C596 C 0.3696 0.8954 0.05044 0.0
C597 C 0.31004 0.86329 0.0577 0.0
C598 C 0.33082 0.88028 0.05251 0.0
C599 C 0.39129 0.93004 0.03795 0.0
C600 C 0.3705 0.91299 0.04309 0.0
H601 H 0.28003 0.80807 0.05882 0.0
H602 H 0.31363 0.83582 0.04944 0.0
H603 H 0.34983 0.86595 0.06083 0.0
H604 H 0.44554 0.96045 0.05028 0.0
H605 H 0.41133 0.93316 0.05908 0.0
C606 C 0.17821 0.43889 0.06346 0.0
C607 C 0.18728 0.44754 0.07897 0.0
C608 C 0.16154 0.44181 0.05672 0.0
C609 C 0.11889 0.45344 0.06821 0.0
H610 H 0.11558 0.46592 0.02519 0.0
C611 C 0.05942 0.48015 0.044 0.0
C612 C 0.04871 0.47119 0.02887 0.0
C613 C 0.07597 0.47651 0.04984 0.0
C614 C 0.11616 0.46218 0.03717 0.0
H615 H 0.18708 0.46715 0.09922 0.0
H616 H 0.1583 0.47249 0.08745 0.0
H617 H 0.14582 0.4616 0.03559 0.0
H618 H 0.04684 0.45113 0.00807 0.0
H619 H 0.07564 0.44469 0.01833 0.0
H620 H 0.08937 0.45416 0.06985 0.0
C621 C 0.16353 0.46291 0.08062 0.0
C622 C 0.13347 0.45972 0.04312 0.0
C623 C 0.18006 0.45993 0.08735 0.0
C624 C 0.05475 0.45829 0.01978 0.0
C625 C 0.07136 0.45471 0.0256 0.0
C626 C 0.10165 0.45594 0.06228 0.0
C627 C 0.15375 0.45352 0.06536 0.0
C628 C 0.13512 0.45552 0.05876 0.0
C629 C 0.08222 0.46387 0.04066 0.0
C630 C 0.10018 0.4605 0.04674 0.0
H631 H 0.18344 0.4292 0.05678 0.0
H632 H 0.15427 0.4343 0.04494 0.0
H633 H 0.11942 0.44973 0.0802 0.0
H634 H 0.05522 0.49022 0.0513 0.0
H635 H 0.0842 0.48397 0.06143 0.0
C636 C 0.55241 0.72759 0.06615 0.0
C637 C 0.56546 0.74662 0.05905 0.0
C638 C 0.54677 0.70701 0.05895 0.0
C639 C 0.52722 0.66508 0.03711 0.0
H640 H 0.57131 0.6569 0.01853 0.0
C641 C 0.50646 0.58363 0.00266 0.0
C642 C 0.52086 0.57584 0.00568 0.0
C643 C 0.51206 0.60483 0.00843 0.0
C644 C 0.55885 0.65892 0.02374 0.0
H645 H 0.58274 0.75896 0.03877 0.0
H646 H 0.57266 0.72289 0.02606 0.0
H647 H 0.58056 0.69323 0.03009 0.0
H648 H 0.55252 0.58407 0.01688 0.0
H649 H 0.56228 0.62113 0.02712 0.0
H650 H 0.50565 0.63075 0.0311 0.0
C651 C 0.56697 0.72397 0.03729 0.0
C652 C 0.56408 0.67976 0.0302 0.0
C653 C 0.57255 0.74459 0.04448 0.0
C654 C 0.54111 0.5897 0.0144 0.0
C655 C 0.54674 0.61094 0.02017 0.0
C656 C 0.52199 0.64429 0.03062 0.0
C657 C 0.55406 0.70496 0.04447 0.0
C658 C 0.54835 0.68303 0.03705 0.0
C659 C 0.5322 0.61869 0.01733 0.0
C660 C 0.53776 0.64094 0.02392 0.0
H661 H 0.54649 0.7286 0.0773 0.0
H662 H 0.53699 0.69272 0.06487 0.0
H663 H 0.51468 0.66711 0.04216 0.0
H664 H 0.49077 0.57329 0.99593 0.0
H665 H 0.50063 0.6104 0.00586 0.0
C666 C 0.83184 0.28038 0.94552 0.0
C667 C 0.82416 0.26157 0.95347 0.0
C668 C 0.84697 0.30092 0.95317 0.0
C669 C 0.86916 0.34325 0.97497 0.0
H670 H 0.92053 0.35028 -0.00083 0.0
C671 C 0.93121 0.42408 0.01172 0.0
C672 C 0.9533 0.43167 0.01015 0.0
C673 C 0.91525 0.40301 0.00545 0.0
C674 C 0.90629 0.34855 0.99241 0.0
H675 H 0.82611 0.24947 0.97569 0.0
H676 H 0.85281 0.28556 0.98914 0.0
H677 H 0.89245 0.31391 0.98715 0.0
H678 H 0.97615 0.42323 0.00095 0.0
H679 H 0.94816 0.38618 0.99001 0.0
H680 H 0.88302 0.37784 0.98008 0.0
C681 C 0.84708 0.28431 0.97695 0.0
C682 C 0.89014 0.32773 0.98567 0.0
C683 C 0.83171 0.26374 0.96932 0.0
C684 C 0.95921 0.41773 0.00234 0.0
C685 C 0.94323 0.39654 0.99616 0.0
C686 C 0.88517 0.36399 0.98183 0.0
C687 C 0.85489 0.30309 0.96892 0.0
C688 C 0.8715 0.32492 0.97678 0.0
C689 C 0.92107 0.38903 0.99756 0.0
C690 C 0.90396 0.36688 0.99054 0.0
H691 H 0.82615 0.27919 0.93332 0.0
H692 H 0.85281 0.31507 0.94665 0.0
H693 H 0.85491 0.34155 0.96826 0.0
H694 H 0.92621 0.4345 0.0177 0.0
H695 H 0.89833 0.3976 0.00684 0.0
C696 C 0.72952 0.58097 0.94552 0.0
C697 C 0.73424 0.5639 0.94494 0.0
C698 C 0.71063 0.57825 0.95152 0.0
C699 C 0.65599 0.5349 0.9591 0.0
H700 H 0.65538 0.58236 0.98354 0.0
C701 C 0.59558 0.5496 -0.00038 0.0
C702 C 0.57567 0.537 0.99017 0.0
C703 C 0.61511 0.55354 0.99406 0.0
C704 C 0.6553 0.56888 0.97682 0.0
H705 H 0.72297 0.5307 0.95051 0.0
H706 H 0.69042 0.52622 0.96145 0.0
H707 H 0.68952 0.58772 0.97487 0.0
H708 H 0.56072 0.51907 0.9673 0.0
H709 H 0.59485 0.52635 0.95748 0.0
H710 H 0.62194 0.51584 0.96143 0.0
C711 C 0.70111 0.54157 0.95698 0.0
C712 C 0.67483 0.57204 0.9717 0.0
C713 C 0.71994 0.54426 0.95091 0.0
C714 C 0.57576 0.52874 0.97492 0.0
C715 C 0.59532 0.5328 0.96933 0.0
C716 C 0.6365 0.53171 0.96427 0.0
C717 C 0.69606 0.55842 0.95715 0.0
C718 C 0.6754 0.55507 0.96279 0.0
C719 C 0.6152 0.54509 0.97888 0.0
C720 C 0.63591 0.54866 0.97319 0.0
H721 H 0.74035 0.59642 0.9412 0.0
H722 H 0.70717 0.5915 0.95138 0.0
H723 H 0.65577 0.52157 0.95206 0.0
H724 H 0.59609 0.55612 0.01146 0.0
H725 H 0.63007 0.56281 0.00181 0.0
C726 C 0.4476 0.16664 0.95272 0.0
C727 C 0.43999 0.17793 0.96205 0.0
C728 C 0.45204 0.15131 0.95886 0.0
C729 C 0.46828 0.13666 0.9948 0.0
H730 H 0.44292 0.07862 0.97265 0.0
C731 C 0.48185 0.07019 0.01995 0.0
C732 C 0.48394 0.05573 0.00934 0.0
C733 C 0.4752 0.08439 0.01455 0.0
C734 C 0.45042 0.09483 0.97888 0.0
H735 H 0.43127 0.18185 0.98529 0.0
H736 H 0.43993 0.15565 0.99614 0.0
H737 H 0.43429 0.10513 0.96249 0.0
H738 H 0.48188 0.04527 0.98489 0.0
H739 H 0.47083 0.07036 0.97528 0.0
H740 H 0.48516 0.12691 0.01085 0.0
C741 C 0.44221 0.15866 0.98401 0.0
C742 C 0.44534 0.10995 0.97309 0.0
C743 C 0.43738 0.17375 0.9778 0.0
C744 C 0.47959 0.05577 0.99326 0.0
C745 C 0.47331 0.07022 0.98781 0.0
C746 C 0.47368 0.12168 0.00047 0.0
C747 C 0.44939 0.14719 0.97455 0.0
C748 C 0.45427 0.131 0.98098 0.0
C749 C 0.47103 0.08476 0.99838 0.0
C750 C 0.46486 0.10056 0.99256 0.0
H751 H 0.45037 0.16978 0.94067 0.0
H752 H 0.45789 0.1429 0.9514 0.0
H753 H 0.47554 0.15289 0.001 0.0
H754 H 0.48521 0.0704 0.03243 0.0
H755 H 0.47328 0.09501 0.02308 0.0
C756 C 0.70767 0.13254 0.94614 0.0
C757 C 0.7201 0.15524 0.9502 0.0
C758 C 0.68716 0.12029 0.95139 0.0
C759 C 0.65342 0.12191 0.98188 0.0
H760 H 0.60636 0.07386 0.95456 0.0
C761 C 0.57416 0.05804 0.00484 0.0
C762 C 0.55438 0.05027 0.9954 0.0
C763 C 0.59403 0.07153 -0.00088 0.0
C764 C 0.61924 0.08736 0.96229 0.0
H765 H 0.72075 0.18305 0.96282 0.0
H766 H 0.68485 0.16175 0.97183 0.0
H767 H 0.64146 0.09631 0.94479 0.0
H768 H 0.54002 0.05089 0.97257 0.0
H769 H 0.57472 0.07462 0.96265 0.0
H770 H 0.63111 0.1132 -0.0007 0.0
C771 C 0.69107 0.1533 0.96479 0.0
C772 C 0.63947 0.10007 0.95675 0.0
C773 C 0.71161 0.16554 0.95957 0.0
C774 C 0.55494 0.05646 0.98013 0.0
C775 C 0.57485 0.07 0.97441 0.0
C776 C 0.63319 0.10923 0.98741 0.0
C777 C 0.6786 0.13052 0.96078 0.0
C778 C 0.65686 0.11741 0.96651 0.0
C779 C 0.59465 0.07765 0.98383 0.0
C780 C 0.6159 0.09169 0.97773 0.0
H781 H 0.71388 0.12423 0.93895 0.0
H782 H 0.67817 0.10275 0.94827 0.0
H783 H 0.66649 0.135 0.98977 0.0
H784 H 0.57438 0.05354 0.01663 0.0
H785 H 0.60896 0.07683 0.00661 0.0
C786 C 0.82966 0.54173 0.95629 0.0
C787 C 0.82161 0.53541 0.9404 0.0
C788 C 0.84601 0.53802 0.96254 0.0
C789 C 0.88931 0.52734 0.95073 0.0
H790 H 0.88791 0.50882 0.99236 0.0
C791 C 0.94619 0.49732 0.9752 0.0
C792 C 0.95564 0.50503 0.99076 0.0
C793 C 0.93013 0.50146 0.96903 0.0
C794 C 0.88862 0.51419 0.98078 0.0
H795 H 0.82396 0.52009 0.91864 0.0
H796 H 0.85215 0.51315 0.92959 0.0
H797 H 0.85893 0.51477 0.9817 0.0
H798 H 0.95571 0.52326 0.01199 0.0
H799 H 0.92768 0.53046 0.00118 0.0
H800 H 0.91889 0.52648 0.94978 0.0
C801 C 0.84621 0.52134 0.93718 0.0
C802 C 0.87205 0.51764 0.97467 0.0
C803 C 0.82997 0.52514 0.93093 0.0
C804 C 0.94878 0.51709 -4e-05 0.0
C805 C 0.93262 0.5211 0.99381 0.0
C806 C 0.90581 0.52378 0.95681 0.0
C807 C 0.85455 0.52786 0.95304 0.0
C808 C 0.87219 0.52424 0.95957 0.0
C809 C 0.92308 0.51326 0.97831 0.0
C810 C 0.90564 0.51717 0.97189 0.0
H811 H 0.8236 0.54981 0.96385 0.0
H812 H 0.85225 0.54351 0.97475 0.0
H813 H 0.89014 0.5328 0.93917 0.0
H814 H 0.95108 0.48796 0.96779 0.0
H815 H 0.92292 0.49506 0.95707 0.0
C816 C 0.42483 0.29256 0.96834 0.0
C817 C 0.43675 0.28199 0.9712 0.0
C818 C 0.43358 0.31462 0.97363 0.0
C819 C 0.47589 0.35958 0.00172 0.0
H820 H 0.46723 0.39611 0.97369 0.0
C821 C 0.51823 0.454 0.01451 0.0
C822 C 0.50521 0.46332 0.01126 0.0
C823 C 0.51043 0.43186 0.00984 0.0
C824 C 0.46962 0.38609 0.98171 0.0
H825 H 0.46708 0.28607 0.98203 0.0
H826 H 0.4825 0.32475 0.99119 0.0
H827 H 0.45254 0.35746 0.96533 0.0
H828 H 0.47379 0.4569 0.00082 0.0
H829 H 0.46017 0.41834 0.99268 0.0
H830 H 0.49302 0.38834 0.0181 0.0
C831 C 0.46628 0.31592 0.98499 0.0
C832 C 0.46118 0.36393 0.97693 0.0
C833 C 0.45748 0.29379 0.97969 0.0
C834 C 0.48425 0.45016 0.00335 0.0
C835 C 0.47649 0.4281 0.99864 0.0
C836 C 0.48438 0.3818 0.0065 0.0
C837 C 0.4545 0.32664 0.98187 0.0
C838 C 0.46404 0.35035 0.98692 0.0
C839 C 0.4895 0.4187 0.00178 0.0
C840 C 0.48118 0.39526 0.99659 0.0
H841 H 0.40878 0.28378 0.96186 0.0
H842 H 0.42391 0.32226 0.97128 0.0
H843 H 0.4782 0.34952 0.00975 0.0
H844 H 0.53447 0.46382 0.02059 0.0
H845 H 0.5209 0.42514 0.01231 0.0
C846 C 0.14353 0.71383 0.05827 0.0
C847 C 0.16578 0.72469 0.05623 0.0
C848 C 0.12994 0.69195 0.05238 0.0
C849 C 0.1252 0.64865 0.02355 0.0
H850 H 0.08223 0.61018 0.04951 0.0
C851 C 0.07159 0.55496 0.00688 0.0
C852 C 0.04955 0.54545 0.00946 0.0
C853 C 0.0864 0.57676 0.01254 0.0
C854 C 0.09399 0.62074 0.04205 0.0
H855 H 0.19134 0.7213 0.04624 0.0
H856 H 0.16757 0.6829 0.03597 0.0
H857 H 0.10697 0.64836 0.05932 0.0
H858 H 0.02561 0.55115 0.01987 0.0
H859 H 0.05136 0.58919 0.02967 0.0
H860 H 0.11211 0.62095 0.00625 0.0
C861 C 0.16058 0.69139 0.04203 0.0
C862 C 0.10818 0.64264 0.04767 0.0
C863 C 0.17421 0.71335 0.04797 0.0
C864 C 0.04255 0.55807 0.01777 0.0
C865 C 0.05733 0.57981 0.02345 0.0
C866 C 0.11099 0.6267 0.01792 0.0
C867 C 0.13832 0.68039 0.0443 0.0
C868 C 0.12382 0.65691 0.03844 0.0
C869 C 0.07944 0.58941 0.02093 0.0
C870 C 0.09509 0.61255 0.02706 0.0
H871 H 0.13663 0.72225 0.06456 0.0
H872 H 0.11281 0.6841 0.05409 0.0
H873 H 0.13692 0.65927 0.01609 0.0
H874 H 0.07742 0.54554 0.00054 0.0
H875 H 0.10336 0.5836 0.01054 0.0
C876 C 0.29511 0.45362 0.06528 0.0
C877 C 0.29633 0.45832 0.08153 0.0
C878 C 0.31403 0.45896 0.05813 0.0
C879 C 0.37326 0.49598 0.06365 0.0
H880 H 0.37505 0.45399 0.03361 0.0
C881 C 0.4537 0.5098 0.04206 0.0
C882 C 0.45343 0.50328 0.02626 0.0
C883 C 0.43428 0.50437 0.04844 0.0
C884 C 0.37474 0.46603 0.04181 0.0
H885 H 0.31799 0.47197 0.10306 0.0
H886 H 0.35105 0.4814 0.09058 0.0
H887 H 0.34139 0.44433 0.04528 0.0
H888 H 0.43257 0.48618 0.0047 0.0
H889 H 0.39872 0.47712 0.01575 0.0
H890 H 0.40646 0.51778 0.06013 0.0
C891 C 0.33557 0.47376 0.08336 0.0
C892 C 0.35547 0.46046 0.0485 0.0
C893 C 0.31667 0.46827 0.0905 0.0
C894 C 0.43333 0.49134 0.01695 0.0
C895 C 0.4139 0.48604 0.0233 0.0
C896 C 0.39246 0.50161 0.05689 0.0
C897 C 0.33445 0.46923 0.0671 0.0
C898 C 0.35461 0.47532 0.05958 0.0
C899 C 0.41414 0.49244 0.03914 0.0
C900 C 0.3935 0.48664 0.04598 0.0
H901 H 0.27961 0.44588 0.05809 0.0
H902 H 0.31273 0.45539 0.04556 0.0
H903 H 0.37295 0.50788 0.07199 0.0
H904 H 0.46889 0.51892 0.04959 0.0
H905 H 0.43505 0.50926 0.06074 0.0
C906 C 0.58708 0.87909 0.06041 0.0
C907 C 0.57596 0.85641 0.05622 0.0
C908 C 0.57839 0.89177 0.05526 0.0
C909 C 0.53763 0.89096 0.0257 0.0
H910 H 0.54253 0.93795 0.05439 0.0
C911 C 0.49106 0.93657 0.01253 0.0
C912 C 0.50327 0.95949 0.01524 0.0
C913 C 0.49969 0.92389 0.01782 0.0
C914 C 0.54118 0.92498 0.04622 0.0
H915 H 0.54701 0.82911 0.04332 0.0
H916 H 0.53162 0.8511 0.03457 0.0
H917 H 0.55831 0.91608 0.06278 0.0
H918 H 0.53393 0.98717 0.02569 0.0
H919 H 0.54891 0.96503 0.03511 0.0
H920 H 0.52025 0.89976 0.00921 0.0
C921 C 0.54728 0.85925 0.04158 0.0
C922 C 0.55028 0.91249 0.05099 0.0
C923 C 0.55605 0.8466 0.04667 0.0
C924 C 0.52409 0.96952 0.02357 0.0
C925 C 0.53265 0.95684 0.02897 0.0
C926 C 0.5284 0.90336 0.02097 0.0
C927 C 0.55828 0.88198 0.04588 0.0
C928 C 0.54867 0.89535 0.04077 0.0
C929 C 0.52063 0.93391 0.02602 0.0
C930 C 0.53011 0.92052 0.03117 0.0
H931 H 0.60249 0.88702 0.06776 0.0
H932 H 0.58748 0.90927 0.05858 0.0
H933 H 0.53637 0.87813 0.01743 0.0
H934 H 0.47494 0.92843 0.00617 0.0
H935 H 0.48996 0.90624 0.01554 0.0
C936 C 0.95961 0.17068 0.41477 0.0
C937 C 0.93988 0.16126 0.40499 0.0
C938 C 0.97894 0.18687 0.40979 0.0
C939 C 0.99933 0.22847 0.38186 0.0
H940 H 0.05361 0.22885 0.39099 0.0
C941 C 0.07801 0.28643 0.35516 0.0
C942 C 0.09795 0.29566 0.36467 0.0
C943 C 0.05875 0.2705 0.36038 0.0
C944 C 0.03865 0.22915 0.38853 0.0
H945 H 0.92503 0.1613 0.38223 0.0
H946 H 0.95888 0.18938 0.37341 0.0
H947 H 0.02 0.19959 0.39909 0.0
H948 H 0.11312 0.29562 0.38733 0.0
H949 H 0.07944 0.26796 0.39652 0.0
H950 H 0.01797 0.25803 0.37131 0.0
C951 C 0.95933 0.1844 0.38502 0.0
C952 C 0.01937 0.21235 0.39315 0.0
C953 C 0.93999 0.16814 0.39 0.0
C954 C 0.09809 0.28883 0.37967 0.0
C955 C 0.07879 0.27286 0.3849 0.0
C956 C 0.01861 0.24528 0.37726 0.0
C957 C 0.979 0.19405 0.39491 0.0
C958 C -0.00053 0.21179 0.38985 0.0
C959 C 0.05892 0.26338 0.37526 0.0
C960 C 0.0385 0.24581 0.38052 0.0
H961 H 0.96012 0.16556 0.42633 0.0
H962 H 0.99375 0.19408 0.41775 0.0
H963 H 0.98435 0.22873 0.37938 0.0
H964 H 0.07726 0.29124 0.34352 0.0
H965 H 0.0438 0.26337 0.35258 0.0
C966 C 0.82772 0.75407 0.408 0.0
C967 C 0.84971 0.7705 0.40848 0.0
C968 C 0.81118 0.75738 0.40164 0.0
C969 C 0.77963 0.76447 0.38087 0.0
H970 H 0.7854 0.82132 0.3911 0.0
C971 C 0.71961 0.78866 0.35328 0.0
C972 C 0.71366 0.80112 0.36295 0.0
C973 C 0.73592 0.78442 0.35869 0.0
C974 C 0.78345 0.8053 0.38825 0.0
H975 H 0.87159 0.80308 0.40232 0.0
H976 H 0.84271 0.80866 0.39087 0.0
H977 H 0.81454 0.8148 0.40034 0.0
H978 H 0.71996 0.81858 0.38601 0.0
H979 H 0.74823 0.81091 0.39551 0.0
H980 H 0.7483 0.75481 0.36911 0.0
C981 C 0.83826 0.79335 0.39565 0.0
C982 C 0.8003 0.80166 0.39336 0.0
C983 C 0.85482 0.79004 0.40202 0.0
C984 C 0.72418 0.80898 0.37824 0.0
C985 C 0.74049 0.80471 0.38365 0.0
C986 C 0.76278 0.76811 0.37578 0.0
C987 C 0.81624 0.77718 0.39559 0.0
C988 C 0.79857 0.78119 0.38975 0.0
C989 C 0.74666 0.79252 0.37389 0.0
C990 C 0.76448 0.78856 0.37943 0.0
H991 H 0.82327 0.73873 0.41273 0.0
H992 H 0.79439 0.74465 0.40189 0.0
H993 H 0.77787 0.74858 0.37778 0.0
H994 H 0.71191 0.78241 0.34141 0.0
H995 H 0.74046 0.77521 0.3508 0.0
C996 C 0.25796 0.07679 0.3877 0.0
C997 C 0.24365 0.08497 0.3857 0.0
C998 C 0.25219 0.05597 0.38089 0.0
C999 C 0.20368 0.00304 0.36648 0.0
H1000 H 0.24566 0.98993 0.34954 0.0
C1001 C 0.1786 0.91775 0.33648 0.0
C1002 C 0.19223 0.90925 0.34018 0.0
C1003 C 0.18522 0.93953 0.34127 0.0
C1004 C 0.23381 0.99331 0.35436 0.0
H1005 H 0.21233 0.07793 0.37457 0.0
H1006 H 0.20244 0.04174 0.36239 0.0
H1007 H 0.2567 0.02769 0.35862 0.0
H1008 H 0.22348 0.91676 0.35172 0.0
H1009 H 0.23504 0.9549 0.36024 0.0
H1010 H 0.18084 0.96871 0.36233 0.0
C1011 C 0.21799 0.05132 0.36944 0.0
C1012 C 0.24012 0.01494 0.35954 0.0
C1013 C 0.22377 0.07216 0.37626 0.0
C1014 C 0.21267 0.92294 0.34869 0.0
C1015 C 0.21933 0.94478 0.35348 0.0
C1016 C 0.19738 0.98146 0.36128 0.0
C1017 C 0.23198 0.04284 0.3719 0.0
C1018 C 0.22514 0.02004 0.36572 0.0
C1019 C 0.20562 0.95329 0.34986 0.0
C1020 C 0.21238 0.97632 0.35521 0.0
H1021 H 0.27352 0.08638 0.39475 0.0
H1022 H 0.26328 0.0499 0.38312 0.0
H1023 H 0.19185 0.00633 0.37145 0.0
H1024 H 0.16276 0.90755 0.32989 0.0
H1025 H 0.1744 0.94565 0.33812 0.0
C1026 C 0.51387 0.59786 0.289 0.0
C1027 C 0.49143 0.59034 0.28874 0.0
C1028 C 0.52925 0.61822 0.29683 0.0
C1029 C 0.53526 0.67146 0.31082 0.0
H1030 H 0.58952 0.68168 0.33242 0.0
C1031 C 0.59676 0.75382 0.34621 0.0
C1032 C 0.61885 0.76223 0.34416 0.0
C1033 C 0.5812 0.73254 0.34004 0.0
C1034 C 0.57451 0.6791 0.32632 0.0
H1035 H 0.4676 0.5981 0.29694 0.0
H1036 H 0.49442 0.63334 0.31099 0.0
H1037 H 0.56209 0.64472 0.3213 0.0
H1038 H 0.6421 0.75507 0.33412 0.0
H1039 H 0.61483 0.71775 0.3233 0.0
H1040 H 0.54766 0.70582 0.31589 0.0
C1041 C 0.50013 0.62367 0.30486 0.0
C1042 C 0.55879 0.65792 0.31994 0.0
C1043 C 0.48474 0.60333 0.29698 0.0
C1044 C 0.62515 0.74895 0.33589 0.0
C1045 C 0.60958 0.72758 0.32977 0.0
C1046 C 0.55091 0.69258 0.31727 0.0
C1047 C 0.52258 0.63153 0.30467 0.0
C1048 C 0.53899 0.65386 0.31205 0.0
C1049 C 0.58741 0.71918 0.33174 0.0
C1050 C 0.57075 0.69665 0.32503 0.0
H1051 H 0.51959 0.58813 0.28297 0.0
H1052 H 0.54638 0.62378 0.29632 0.0
H1053 H 0.52041 0.66904 0.30457 0.0
H1054 H 0.59147 0.76372 0.35255 0.0
H1055 H 0.56429 0.72646 0.34189 0.0
C1056 C 0.39293 0.88197 0.28848 0.0
C1057 C 0.40359 0.89881 0.27888 0.0
C1058 C 0.37438 0.87919 0.29512 0.0
C1059 C 0.32967 0.89053 0.28837 0.0
H1060 H 0.31851 0.87533 0.3307 0.0
C1061 C 0.2649 0.8813 0.33521 0.0
C1062 C 0.24504 0.86832 0.32575 0.0
C1063 C 0.28453 0.88538 0.32978 0.0
C1064 C 0.32147 0.87969 0.31888 0.0
H1065 H 0.40397 0.92673 0.26949 0.0
H1066 H 0.37159 0.92184 0.28104 0.0
H1067 H 0.35302 0.88267 0.32132 0.0
H1068 H 0.23028 0.84957 0.30311 0.0
H1069 H 0.26463 0.85673 0.29363 0.0
H1070 H 0.29822 0.8877 0.28594 0.0
C1071 C 0.37731 0.91053 0.28318 0.0
C1072 C 0.34113 0.8837 0.31348 0.0
C1073 C 0.39585 0.91333 0.27658 0.0
C1074 C 0.24528 0.85965 0.31068 0.0
C1075 C 0.26496 0.86383 0.30523 0.0
C1076 C 0.30998 0.88641 0.29374 0.0
C1077 C 0.36613 0.89318 0.29226 0.0
C1078 C 0.34544 0.8892 0.29817 0.0
C1079 C 0.28478 0.87666 0.31475 0.0
C1080 C 0.30567 0.88096 0.30905 0.0
H1081 H 0.3984 0.87041 0.29035 0.0
H1082 H 0.36602 0.86559 0.30199 0.0
H1083 H 0.33241 0.89447 0.27644 0.0
H1084 H 0.26532 0.88824 0.34688 0.0
H1085 H 0.29957 0.89555 0.33731 0.0
C1086 C 0.08962 0.48609 0.29525 0.0
C1087 C 0.10416 0.50875 0.29832 0.0
C1088 C 0.09458 0.47119 0.3016 0.0
C1089 C 0.14131 0.46641 0.31672 0.0
H1090 H 0.09799 0.41523 0.33429 0.0
C1091 C 0.16454 0.41164 0.34981 0.0
C1092 C 0.15043 0.38891 0.34735 0.0
C1093 C 0.1583 0.42586 0.34392 0.0
C1094 C 0.1102 0.42929 0.32924 0.0
H1095 H 0.13522 0.53352 0.31058 0.0
H1096 H 0.1438 0.50751 0.32178 0.0
H1097 H 0.08809 0.44093 0.32409 0.0
H1098 H 0.11859 0.36315 0.33702 0.0
H1099 H 0.10776 0.38801 0.32638 0.0
H1100 H 0.16337 0.45478 0.32168 0.0
C1101 C 0.12862 0.50128 0.31437 0.0
C1102 C 0.10454 0.44403 0.32344 0.0
C1103 C 0.12361 0.51618 0.30809 0.0
C1104 C 0.12983 0.38062 0.33899 0.0
C1105 C 0.12359 0.39487 0.33303 0.0
C1106 C 0.14694 0.45165 0.32245 0.0
C1107 C 0.11426 0.47862 0.31108 0.0
C1108 C 0.12009 0.46282 0.3172 0.0
C1109 C 0.13781 0.41768 0.33536 0.0
C1110 C 0.13151 0.43298 0.32888 0.0
H1111 H 0.07441 0.47989 0.28788 0.0
H1112 H 0.08325 0.45383 0.29878 0.0
H1113 H 0.15354 0.4805 0.3117 0.0
H1114 H 0.18049 0.41849 0.35628 0.0
H1115 H 0.16951 0.44332 0.3462 0.0
C1116 C 0.37595 0.49758 0.29182 0.0
C1117 C 0.38347 0.48741 0.2814 0.0
C1118 C 0.35551 0.4855 0.29724 0.0
C1119 C 0.30261 0.43362 0.28859 0.0
H1120 H 0.29689 0.44399 0.33234 0.0
C1121 C 0.21958 0.39002 0.31424 0.0
C1122 C 0.21964 0.38263 0.32905 0.0
C1123 C 0.2392 0.40357 0.30817 0.0
C1124 C 0.29823 0.44079 0.32011 0.0
H1125 H 0.3756 0.4568 0.26843 0.0
H1126 H 0.34008 0.43557 0.27807 0.0
H1127 H 0.33181 0.46581 0.32222 0.0
H1128 H 0.24044 0.38368 0.34904 0.0
H1129 H 0.27448 0.40695 0.33839 0.0
H1130 H 0.26918 0.40812 0.28662 0.0
C1131 C 0.34975 0.45292 0.28188 0.0
C1132 C 0.31819 0.45351 0.31425 0.0
C1133 C 0.37015 0.46502 0.27644 0.0
C1134 C 0.23975 0.38912 0.33763 0.0
C1135 C 0.25932 0.40261 0.33156 0.0
C1136 C 0.28263 0.42088 0.29446 0.0
C1137 C 0.34219 0.463 0.29238 0.0
C1138 C 0.32069 0.44998 0.29845 0.0
C1139 C 0.25931 0.41002 0.31677 0.0
C1140 C 0.28025 0.42419 0.31033 0.0
H1141 H 0.38578 0.51487 0.29578 0.0
H1142 H 0.35008 0.49385 0.30514 0.0
H1143 H 0.30388 0.43065 0.27631 0.0
H1144 H 0.2044 0.38538 0.30733 0.0
H1145 H 0.2386 0.40917 0.29681 0.0
C1146 C 0.50361 0.88607 0.29362 0.0
C1147 C 0.50598 0.89355 0.27872 0.0
C1148 C 0.51733 0.87889 0.29981 0.0
C1149 C 0.54976 0.85478 0.28891 0.0
H1150 H 0.58436 0.88206 0.32885 0.0
C1151 C 0.61793 0.83825 0.31109 0.0
C1152 C 0.62204 0.83847 0.32728 0.0
C1153 C 0.60328 0.84449 0.30525 0.0
C1154 C 0.57454 0.87392 0.31782 0.0
H1155 H 0.52419 0.89927 0.25856 0.0
H1156 H 0.54775 0.8861 0.26922 0.0
H1157 H 0.55899 0.89321 0.31877 0.0
H1158 H 0.61356 0.84464 0.35005 0.0
H1159 H 0.58733 0.85451 0.33991 0.0
H1160 H 0.56461 0.83498 0.28804 0.0
C1161 C 0.53546 0.88597 0.27612 0.0
C1162 C 0.56011 0.88043 0.31204 0.0
C1163 C 0.52209 0.89357 0.27008 0.0
C1164 C 0.61092 0.8446 0.33751 0.0
C1165 C 0.59597 0.85041 0.33167 0.0
C1166 C 0.56387 0.84793 0.29481 0.0
C1167 C 0.53325 0.87866 0.29105 0.0
C1168 C 0.54776 0.87105 0.29749 0.0
C1169 C 0.59208 0.85066 0.31546 0.0
C1170 C 0.57661 0.85754 0.3093 0.0
H1171 H 0.49136 0.88598 0.30054 0.0
H1172 H 0.51535 0.87327 0.31136 0.0
H1173 H 0.54023 0.8472 0.27768 0.0
H1174 H 0.62637 0.8337 0.30294 0.0
H1175 H 0.60107 0.84483 0.29272 0.0
C1176 C 0.09147 0.62479 0.30094 0.0
C1177 C 0.10262 0.61367 0.30452 0.0
C1178 C 0.10035 0.64683 0.30639 0.0
C1179 C 0.14133 0.69068 0.33589 0.0
H1180 H 0.13591 0.72866 0.30753 0.0
C1181 C 0.18547 0.78509 0.34961 0.0
C1182 C 0.17309 0.795 0.346 0.0
C1183 C 0.17734 0.76294 0.34477 0.0
C1184 C 0.13739 0.71823 0.31564 0.0
H1185 H 0.13177 0.61677 0.31677 0.0
H1186 H 0.14746 0.65539 0.32615 0.0
H1187 H 0.12081 0.69003 0.29883 0.0
H1188 H 0.14248 0.78958 0.33468 0.0
H1189 H 0.1283 0.75099 0.32621 0.0
H1190 H 0.15803 0.71904 0.35267 0.0
C1191 C 0.13169 0.64701 0.31929 0.0
C1192 C 0.1287 0.69607 0.31067 0.0
C1193 C 0.12275 0.6249 0.31386 0.0
C1194 C 0.15244 0.78239 0.33752 0.0
C1195 C 0.14436 0.76032 0.33262 0.0
C1196 C 0.1501 0.7129 0.34085 0.0
C1197 C 0.12067 0.65829 0.3155 0.0
C1198 C 0.13041 0.68198 0.32077 0.0
C1199 C 0.15672 0.75034 0.33616 0.0
C1200 C 0.14807 0.72688 0.33081 0.0
H1201 H 0.07589 0.61645 0.2938 0.0
H1202 H 0.09123 0.65488 0.30348 0.0
H1203 H 0.14273 0.68024 0.34402 0.0
H1204 H 0.20146 0.79448 0.35612 0.0
H1205 H 0.18732 0.75576 0.34756 0.0
C1206 C 0.84001 0.04571 0.38251 0.0
C1207 C 0.83194 0.05741 0.39076 0.0
C1208 C 0.8261 0.02373 0.37676 0.0
C1209 C 0.77369 0.97555 0.3831 0.0
H1210 H 0.77691 0.95276 0.34185 0.0
C1211 C 0.70816 0.88988 0.35447 0.0
C1212 C 0.71522 0.87737 0.34608 0.0
C1213 C 0.72281 0.91175 0.35995 0.0
C1214 C 0.77599 0.95881 0.35348 0.0
H1215 H 0.80312 0.05559 0.39925 0.0
H1216 H 0.77879 0.01737 0.3891 0.0
H1217 H 0.80179 0.99124 0.35114 0.0
H1218 H 0.74309 0.87775 0.33692 0.0
H1219 H 0.76878 0.91595 0.34659 0.0
H1220 H 0.74791 0.94319 0.38546 0.0
C1221 C 0.79586 0.02497 0.38725 0.0
C1222 C 0.79023 0.98086 0.35879 0.0
C1223 C 0.80974 0.04689 0.39296 0.0
C1224 C 0.73721 0.88707 0.34331 0.0
C1225 C 0.75188 0.90897 0.34878 0.0
C1226 C 0.75948 0.95353 0.3778 0.0
C1227 C 0.8039 0.01306 0.37921 0.0
C1228 C 0.78915 0.98952 0.37362 0.0
C1229 C 0.74484 0.92158 0.35715 0.0
C1230 C 0.76036 0.94491 0.36289 0.0
H1231 H 0.85709 0.05339 0.38067 0.0
H1232 H 0.83282 0.01496 0.37072 0.0
H1233 H 0.7727 0.98159 0.39471 0.0
H1234 H 0.69127 0.88281 0.35673 0.0
H1235 H 0.71679 0.92106 0.36618 0.0
C1236 C 0.98441 0.80463 0.42298 0.0
C1237 C 0.96432 0.79437 0.41367 0.0
C1238 C 0.00364 0.81017 0.41627 0.0
C1239 C 0.02437 0.79581 0.38229 0.0
H1240 H 0.07586 0.85271 0.39409 0.0
C1241 C 0.10271 0.82483 0.35164 0.0
C1242 C 0.12274 0.83662 0.36106 0.0
C1243 C 0.08327 0.82 0.3578 0.0
C1244 C 0.06172 0.83665 0.3908 0.0
H1245 H 0.94844 0.78169 0.39002 0.0
H1246 H 0.98209 0.7913 0.37827 0.0
H1247 H 0.0421 0.84362 0.40534 0.0
H1248 H 0.13803 0.85248 0.38437 0.0
H1249 H 0.10413 0.84364 0.39518 0.0
H1250 H 0.04401 0.78863 0.36796 0.0
C1251 C 0.98295 0.79503 0.39078 0.0
C1252 C 0.04237 0.83148 0.39723 0.0
C1253 C 0.96372 0.78964 0.39749 0.0
C1254 C 0.1229 0.84346 0.37677 0.0
C1255 C 0.10345 0.8385 0.38295 0.0
C1256 C 0.04376 0.80091 0.37594 0.0
C1257 C 0.0031 0.80538 0.40011 0.0
C1258 C 0.02352 0.811 0.39306 0.0
C1259 C 0.08339 0.82672 0.37354 0.0
C1260 C 0.06269 0.82138 0.38014 0.0
H1261 H 0.98525 0.80837 0.43549 0.0
H1262 H 0.0189 0.81791 0.42377 0.0
H1263 H 0.01017 0.77978 0.37902 0.0
H1264 H 0.10203 0.81944 0.33946 0.0
H1265 H 0.06816 0.8112 0.35015 0.0
C1266 C 0.25414 0.21301 0.39041 0.0
C1267 C 0.24339 0.19031 0.3864 0.0
C1268 C 0.24481 0.22521 0.38543 0.0
C1269 C 0.20298 0.2233 0.3564 0.0
H1270 H 0.20838 0.27063 0.38498 0.0
C1271 C 0.15723 0.2701 0.34352 0.0
C1272 C 0.16961 0.29298 0.34657 0.0
C1273 C 0.16568 0.2571 0.34846 0.0
C1274 C 0.20688 0.25756 0.37683 0.0
H1275 H 0.21438 0.16244 0.37405 0.0
H1276 H 0.19787 0.18364 0.36556 0.0
H1277 H 0.22417 0.24878 0.39334 0.0
H1278 H 0.20048 0.32028 0.35711 0.0
H1279 H 0.21519 0.29761 0.36582 0.0
H1280 H 0.18551 0.23206 0.33995 0.0
C1281 C 0.21372 0.19214 0.37232 0.0
C1282 C 0.21598 0.24507 0.3816 0.0
C1283 C 0.22313 0.17997 0.37724 0.0
C1284 C 0.19052 0.30265 0.3547 0.0
C1285 C 0.19891 0.28968 0.35973 0.0
C1286 C 0.19377 0.23573 0.35167 0.0
C1287 C 0.2244 0.21491 0.37641 0.0
C1288 C 0.21429 0.22788 0.3714 0.0
C1289 C 0.18662 0.26677 0.35663 0.0
C1290 C 0.19575 0.25309 0.3618 0.0
H1291 H 0.26981 0.22136 0.39743 0.0
H1292 H 0.25367 0.24275 0.38857 0.0
H1293 H 0.20162 0.21038 0.34818 0.0
H1294 H 0.14103 0.26224 0.33729 0.0
H1295 H 0.15576 0.23948 0.34603 0.0
C1296 C 0.62638 0.50407 0.74621 0.0
C1297 C 0.60658 0.49516 0.73658 0.0
C1298 C 0.64575 0.52029 0.74128 0.0
C1299 C 0.67103 0.5447 0.70594 0.0
H1300 H 0.71159 0.59391 0.73574 0.0
C1301 C 0.74431 0.62089 0.68672 0.0
C1302 C 0.76438 0.62968 0.69601 0.0
C1303 C 0.72514 0.60476 0.69191 0.0
C1304 C 0.70054 0.58017 0.72732 0.0
H1305 H 0.59162 0.4963 0.71419 0.0
H1306 H 0.62541 0.52463 0.70557 0.0
H1307 H 0.67804 0.5649 0.74416 0.0
H1308 H 0.77988 0.62866 0.71822 0.0
H1309 H 0.74641 0.60041 0.72724 0.0
H1310 H 0.69349 0.55998 0.68909 0.0
C1311 C 0.62602 0.51887 0.71687 0.0
C1312 C 0.68132 0.56352 0.73214 0.0
C1313 C 0.60664 0.50263 0.7218 0.0
C1314 C 0.76474 0.62227 0.71076 0.0
C1315 C 0.74552 0.60613 0.71597 0.0
C1316 C 0.69023 0.56134 0.70112 0.0
C1317 C 0.64578 0.52799 0.72659 0.0
C1318 C 0.66632 0.5456 0.7215 0.0
C1319 C 0.72553 0.59703 0.70653 0.0
C1320 C 0.70519 0.5793 0.71174 0.0
H1321 H 0.62694 0.49841 0.75756 0.0
H1322 H 0.66074 0.52666 0.74894 0.0
H1323 H 0.66001 0.53096 0.69751 0.0
H1324 H 0.74337 0.62626 0.67532 0.0
H1325 H 0.70996 0.59837 0.68447 0.0
C1326 C 0.49522 0.09285 0.74002 0.0
C1327 C 0.51721 0.10911 0.7402 0.0
C1328 C 0.47871 0.09567 0.73298 0.0
C1329 C 0.46842 0.13955 0.72268 0.0
H1330 H 0.41504 0.09161 0.70069 0.0
C1331 C 0.38609 0.12466 0.68397 0.0
C1332 C 0.38092 0.13809 0.6933 0.0
C1333 C 0.40252 0.1206 0.68933 0.0
C1334 C 0.42991 0.10521 0.7067 0.0
H1335 H 0.53918 0.14067 0.73253 0.0
H1336 H 0.51035 0.14537 0.71985 0.0
H1337 H 0.4447 0.08549 0.70927 0.0
H1338 H 0.38871 0.15747 0.71572 0.0
H1339 H 0.41722 0.15008 0.72521 0.0
H1340 H 0.4538 0.15937 0.71988 0.0
C1341 C 0.50587 0.13061 0.72544 0.0
C1342 C 0.44683 0.10165 0.71174 0.0
C1343 C 0.52239 0.12779 0.73251 0.0
C1344 C 0.39233 0.14711 0.70823 0.0
C1345 C 0.40876 0.14299 0.71362 0.0
C1346 C 0.45152 0.14312 0.71762 0.0
C1347 C 0.48384 0.11481 0.72591 0.0
C1348 C 0.46624 0.11877 0.71984 0.0
C1349 C 0.41414 0.12982 0.70417 0.0
C1350 C 0.43204 0.12597 0.70963 0.0
H1351 H 0.49074 0.07814 0.74569 0.0
H1352 H 0.46192 0.08324 0.73363 0.0
H1353 H 0.48304 0.15301 0.72908 0.0
H1354 H 0.37769 0.11751 0.67237 0.0
H1355 H 0.40644 0.11063 0.68169 0.0
C1356 C 0.88747 0.40716 0.71209 0.0
C1357 C 0.90759 0.4199 0.72127 0.0
C1358 C 0.88156 0.3864 0.70502 0.0
C1359 C 0.90353 0.35039 0.6937 0.0
H1360 H 0.84466 0.30378 0.69721 0.0
C1361 C 0.87663 0.25873 0.68164 0.0
C1362 C 0.85589 0.24489 0.67358 0.0
C1363 C 0.88322 0.28048 0.68665 0.0
C1364 C 0.86107 0.31664 0.69595 0.0
H1365 H 0.93767 0.42126 0.72966 0.0
H1366 H 0.92721 0.38492 0.71757 0.0
H1367 H 0.85573 0.34125 0.70686 0.0
H1368 H 0.82584 0.24285 0.66428 0.0
H1369 H 0.83738 0.28084 0.67287 0.0
H1370 H 0.90889 0.32567 0.68292 0.0
C1371 C 0.91604 0.39099 0.71574 0.0
C1372 C 0.86741 0.33814 0.70146 0.0
C1373 C 0.92194 0.41172 0.72281 0.0
C1374 C 0.84191 0.25317 0.67052 0.0
C1375 C 0.84847 0.27489 0.67552 0.0
C1376 C 0.89718 0.32886 0.68818 0.0
C1377 C 0.89564 0.37794 0.70697 0.0
C1378 C 0.88873 0.35526 0.70046 0.0
C1379 C 0.86917 0.28878 0.68369 0.0
C1380 C 0.8759 0.31173 0.6893 0.0
H1381 H 0.87599 0.41293 0.71076 0.0
H1382 H 0.86584 0.37686 0.69816 0.0
H1383 H 0.91999 0.36325 0.69258 0.0
H1384 H 0.88771 0.25271 0.68417 0.0
H1385 H 0.89916 0.29069 0.69307 0.0
C1386 C 0.18124 0.9327 0.624 0.0
C1387 C 0.15882 0.92535 0.6235 0.0
C1388 C 0.19662 0.95307 0.6318 0.0
C1389 C 0.20253 0.00651 0.64497 0.0
H1390 H 0.25708 0.01752 0.66657 0.0
C1391 C 0.26434 0.09001 0.67871 0.0
C1392 C 0.28629 0.09841 0.67623 0.0
C1393 C 0.24875 0.06847 0.67314 0.0
C1394 C 0.24197 0.01469 0.66048 0.0
H1395 H 0.13502 0.9334 0.63138 0.0
H1396 H 0.1618 0.96857 0.64545 0.0
H1397 H 0.22961 0.98025 0.65605 0.0
H1398 H 0.30929 0.09095 0.66611 0.0
H1399 H 0.28199 0.05316 0.65636 0.0
H1400 H 0.21487 0.04094 0.64943 0.0
C1401 C 0.16752 0.95879 0.63948 0.0
C1402 C 0.22624 0.99336 0.65444 0.0
C1403 C 0.15213 0.93846 0.63159 0.0
C1404 C 0.29245 0.08484 0.66819 0.0
C1405 C 0.27687 0.06321 0.6627 0.0
C1406 C 0.21819 0.02778 0.65108 0.0
C1407 C 0.18997 0.96655 0.63941 0.0
C1408 C 0.20636 0.98902 0.64653 0.0
C1409 C 0.25483 0.05485 0.66505 0.0
C1410 C 0.23812 0.03213 0.65883 0.0
H1411 H 0.18695 0.92287 0.61809 0.0
H1412 H 0.21375 0.95855 0.6314 0.0
H1413 H 0.18763 0.00389 0.63867 0.0
H1414 H 0.25916 0.10014 0.68488 0.0
H1415 H 0.23194 0.06242 0.67527 0.0
C1416 C 0.04991 0.21116 0.61274 0.0
C1417 C 0.06757 0.23245 0.61261 0.0
C1418 C 0.03063 0.20789 0.61838 0.0
C1419 C 0.00807 0.23094 0.6448 0.0
H1420 H 0.95447 0.19855 0.61695 0.0
C1421 C 0.92794 0.22371 0.66187 0.0
C1422 C 0.90848 0.204 0.65716 0.0
C1423 C 0.94737 0.22766 0.65613 0.0
C1424 C 0.96918 0.20731 0.625 0.0
H1425 H 0.07937 0.26694 0.61854 0.0
H1426 H 0.04571 0.26114 0.62892 0.0
H1427 H 0.98858 0.20394 0.60816 0.0
H1428 H 0.89399 0.1729 0.64279 0.0
H1429 H 0.92798 0.17928 0.6333 0.0
H1430 H 0.98883 0.23367 0.6619 0.0
C1431 C 0.04676 0.24708 0.6245 0.0
C1432 C 0.9887 0.21048 0.6199 0.0
C1433 C 0.0659 0.25039 0.61855 0.0
C1434 C 0.90875 0.18834 0.64652 0.0
C1435 C 0.92825 0.19208 0.64102 0.0
C1436 C 0.98849 0.22741 0.65004 0.0
C1437 C 0.0289 0.22582 0.62424 0.0
C1438 C 0.00828 0.22236 0.62974 0.0
C1439 C 0.94787 0.21178 0.64579 0.0
C1440 C 0.96877 0.21561 0.64019 0.0
H1441 H 0.05082 0.19712 0.6081 0.0
H1442 H 0.01705 0.19135 0.61816 0.0
H1443 H 0.02301 0.24002 0.65261 0.0
H1444 H 0.92816 0.23618 0.66994 0.0
H1445 H 0.96198 0.24323 0.65979 0.0
C1446 C 0.78726 0.85114 0.64429 0.0
C1447 C 0.76756 0.84369 0.63485 0.0
C1448 C 0.79254 0.83625 0.65024 0.0
C1449 C 0.76924 0.77871 0.6586 0.0
H1450 H 0.82797 0.79001 0.65515 0.0
C1451 C 0.79565 0.7152 0.67105 0.0
C1452 C 0.81638 0.72342 0.67917 0.0
C1453 C 0.78909 0.72953 0.66571 0.0
C1454 C 0.81158 0.78672 0.65637 0.0
H1455 H 0.73757 0.81481 0.62475 0.0
H1456 H 0.74689 0.78879 0.63503 0.0
H1457 H 0.81758 0.81589 0.64636 0.0
H1458 H 0.84642 0.75295 0.68825 0.0
H1459 H 0.83492 0.77789 0.67923 0.0
H1460 H 0.76329 0.74955 0.66868 0.0
C1461 C 0.75822 0.80614 0.63787 0.0
C1462 C 0.80563 0.80157 0.65134 0.0
C1463 C 0.75298 0.82104 0.63186 0.0
C1464 C 0.83036 0.74615 0.68196 0.0
C1465 C 0.82383 0.76045 0.67668 0.0
C1466 C 0.77522 0.76386 0.66369 0.0
C1467 C 0.77821 0.81358 0.64693 0.0
C1468 C 0.78443 0.79779 0.65244 0.0
C1469 C 0.80316 0.75234 0.66843 0.0
C1470 C 0.7965 0.76775 0.66269 0.0
H1471 H 0.79889 0.86849 0.64671 0.0
H1472 H 0.80795 0.84248 0.65735 0.0
H1473 H 0.75283 0.77544 0.65971 0.0
H1474 H 0.78453 0.69772 0.66879 0.0
H1475 H 0.77314 0.72276 0.65927 0.0
C1476 C 0.04527 0.82783 0.62695 0.0
C1477 C 0.0457 0.83055 0.61092 0.0
C1478 C 0.02565 0.81393 0.63285 0.0
C1479 C 0.96614 0.78811 0.62431 0.0
H1480 H 0.96455 0.74849 0.65409 0.0
C1481 C 0.88543 0.72153 0.64442 0.0
C1482 C 0.88556 0.71775 0.66027 0.0
C1483 C 0.90488 0.73522 0.63823 0.0
C1484 C 0.96475 0.75964 0.64593 0.0
H1485 H 0.02617 0.82094 0.58849 0.0
H1486 H 0.99183 0.79664 0.59879 0.0
H1487 H 0.99872 0.77265 0.64373 0.0
H1488 H 0.90621 0.72565 0.6821 0.0
H1489 H 0.93997 0.74976 0.67139 0.0
H1490 H 0.93224 0.77529 0.62661 0.0
C1491 C 0.00659 0.80536 0.60682 0.0
C1492 C 0.98434 0.77346 0.63999 0.0
C1493 C 0.02622 0.81915 0.60091 0.0
C1494 C 0.90552 0.72807 0.66981 0.0
C1495 C 0.92493 0.74182 0.66364 0.0
C1496 C 0.94656 0.77436 0.63032 0.0
C1497 C 0.00609 0.80258 0.62285 0.0
C1498 C 0.98525 0.78786 0.62912 0.0
C1499 C 0.92488 0.7455 0.64777 0.0
C1500 C 0.94563 0.75998 0.64122 0.0
H1501 H 0.06005 0.83639 0.63496 0.0
H1502 H 0.02575 0.81228 0.64529 0.0
H1503 H 0.9664 0.79922 0.6161 0.0
H1504 H 0.87036 0.71376 0.63672 0.0
H1505 H 0.90427 0.73746 0.62591 0.0
C1506 C 0.1645 0.196 0.5961 0.0
C1507 C 0.15493 0.2046 0.60589 0.0
C1508 C 0.18027 0.19151 0.60235 0.0
C1509 C 0.22122 0.2074 0.63587 0.0
H1510 H 0.21897 0.15283 0.62302 0.0
C1511 C 0.27952 0.18276 0.66573 0.0
C1512 C 0.28727 0.17183 0.65625 0.0
C1513 C 0.26333 0.18675 0.6596 0.0
C1514 C 0.22003 0.16828 0.62658 0.0
H1515 H 0.15422 0.21526 0.62992 0.0
H1516 H 0.18189 0.20751 0.64085 0.0
H1517 H 0.19055 0.15955 0.61229 0.0
H1518 H 0.28439 0.15685 0.63281 0.0
H1519 H 0.25659 0.1643 0.62202 0.0
H1520 H 0.25086 0.21636 0.64994 0.0
C1521 C 0.17721 0.20427 0.62833 0.0
C1522 C 0.2037 0.17208 0.62046 0.0
C1523 C 0.16129 0.20857 0.62209 0.0
C1524 C 0.27869 0.1652 0.64046 0.0
C1525 C 0.26263 0.16935 0.6343 0.0
C1526 C 0.23766 0.20369 0.64189 0.0
C1527 C 0.1869 0.19576 0.61852 0.0
C1528 C 0.20412 0.19165 0.62508 0.0
C1529 C 0.25465 0.18005 0.64381 0.0
C1530 C 0.23725 0.18407 0.63733 0.0
H1531 H 0.15989 0.19289 0.58357 0.0
H1532 H 0.18761 0.18514 0.5945 0.0
H1533 H 0.22211 0.22277 0.63946 0.0
H1534 H 0.28568 0.18794 0.67798 0.0
H1535 H 0.25735 0.19473 0.66733 0.0
C1536 C 0.75535 0.96 0.6371 0.0
C1537 C 0.76664 0.94896 0.6405 0.0
C1538 C 0.76454 0.98222 0.64213 0.0
C1539 C 0.80721 0.02706 0.67024 0.0
H1540 H 0.79981 0.06378 0.64169 0.0
C1541 C 0.85151 0.12172 0.68213 0.0
C1542 C 0.83874 0.13134 0.67896 0.0
C1543 C 0.84331 0.09948 0.67758 0.0
C1544 C 0.80187 0.05371 0.64985 0.0
H1545 H 0.79636 0.95237 0.65196 0.0
H1546 H 0.8126 0.9913 0.6606 0.0
H1547 H 0.78436 0.02492 0.63365 0.0
H1548 H 0.80737 0.12533 0.66875 0.0
H1549 H 0.79309 0.0866 0.66075 0.0
H1550 H 0.82485 0.05602 0.6864 0.0
C1551 C 0.79649 0.98273 0.65422 0.0
C1552 C 0.79297 0.03142 0.64526 0.0
C1553 C 0.78723 0.96045 0.64922 0.0
C1554 C 0.81764 0.11837 0.67121 0.0
C1555 C 0.8095 0.09621 0.66659 0.0
C1556 C 0.8162 0.04942 0.67481 0.0
C1557 C 0.78533 0.99393 0.65062 0.0
C1558 C 0.79535 0.01777 0.65544 0.0
C1559 C 0.82224 0.08651 0.6697 0.0
C1560 C 0.81345 0.06294 0.66471 0.0
H1561 H 0.73942 0.95147 0.63044 0.0
H1562 H 0.75531 0.9902 0.6394 0.0
H1563 H 0.80915 0.01698 0.67843 0.0
H1564 H 0.86784 0.13139 0.68808 0.0
H1565 H 0.85356 0.0925 0.68002 0.0
C1566 C 0.47593 0.38161 0.72296 0.0
C1567 C 0.49816 0.39224 0.72086 0.0
C1568 C 0.46208 0.35981 0.71694 0.0
C1569 C 0.45666 0.31637 0.68788 0.0
H1570 H 0.41411 0.27799 0.71413 0.0
C1571 C 0.40332 0.22263 0.67149 0.0
C1572 C 0.38135 0.21296 0.6743 0.0
C1573 C 0.41805 0.24449 0.67704 0.0
C1574 C 0.42574 0.28853 0.70658 0.0
H1575 H 0.52339 0.38855 0.71059 0.0
H1576 H 0.49918 0.35033 0.70011 0.0
H1577 H 0.4389 0.31621 0.72382 0.0
H1578 H 0.35746 0.21844 0.68501 0.0
H1579 H 0.38307 0.25659 0.69461 0.0
H1580 H 0.4434 0.28862 0.67062 0.0
C1581 C 0.49241 0.35892 0.70632 0.0
C1582 C 0.43995 0.31045 0.71214 0.0
C1583 C 0.50629 0.38078 0.71237 0.0
C1584 C 0.37434 0.22548 0.68273 0.0
C1585 C 0.38904 0.24729 0.6883 0.0
C1586 C 0.44241 0.29441 0.68231 0.0
C1587 C 0.47018 0.34813 0.70868 0.0
C1588 C 0.45548 0.32468 0.70282 0.0
C1589 C 0.41109 0.25706 0.68554 0.0
C1590 C 0.42668 0.28027 0.69156 0.0
H1591 H 0.46926 0.39012 0.72943 0.0
H1592 H 0.44499 0.35212 0.71874 0.0
H1593 H 0.46828 0.32696 0.68035 0.0
H1594 H 0.40914 0.21329 0.66506 0.0
H1595 H 0.43496 0.25145 0.67487 0.0
C1596 C 0.63113 0.12723 0.73353 0.0
C1597 C 0.63179 0.13322 0.74951 0.0
C1598 C 0.65028 0.13181 0.72703 0.0
C1599 C 0.70963 0.1682 0.73308 0.0
H1600 H 0.71067 0.12409 0.70477 0.0
C1601 C 0.78927 0.17966 0.71115 0.0
C1602 C 0.78836 0.17247 0.69539 0.0
C1603 C 0.77017 0.17469 0.71787 0.0
C1604 C 0.71058 0.13668 0.7125 0.0
H1605 H 0.65274 0.14848 0.77122 0.0
H1606 H 0.68629 0.15654 0.75984 0.0
H1607 H 0.67721 0.11575 0.71623 0.0
H1608 H 0.7667 0.15457 0.67429 0.0
H1609 H 0.73344 0.14626 0.68594 0.0
H1610 H 0.74289 0.18923 0.72924 0.0
C1611 C 0.67103 0.14848 0.75234 0.0
C1612 C 0.69143 0.13188 0.71908 0.0
C1613 C 0.65186 0.14379 0.75885 0.0
C1614 C 0.76796 0.16026 0.68649 0.0
C1615 C 0.74887 0.15538 0.69319 0.0
C1616 C 0.72876 0.17304 0.72644 0.0
C1617 C 0.67043 0.14254 0.73636 0.0
C1618 C 0.69077 0.14759 0.72943 0.0
C1619 C 0.74975 0.16252 0.70896 0.0
C1620 C 0.72945 0.15734 0.71607 0.0
H1621 H 0.61586 0.11902 0.72604 0.0
H1622 H 0.64936 0.12723 0.71465 0.0
H1623 H 0.7095 0.18073 0.74086 0.0
H1624 H 0.80471 0.18901 0.71837 0.0
H1625 H 0.7714 0.18017 0.73011 0.0
C1626 C 0.91859 0.54806 0.72591 0.0
C1627 C 0.90762 0.52527 0.7223 0.0
C1628 C 0.9096 0.5603 0.72035 0.0
C1629 C 0.86836 0.55784 0.6904 0.0
H1630 H 0.87441 0.60676 0.71749 0.0
C1631 C 0.82335 0.60482 0.67547 0.0
C1632 C 0.83594 0.62774 0.67794 0.0
C1633 C 0.83169 0.59192 0.68083 0.0
C1634 C 0.87273 0.59324 0.70975 0.0
H1635 H 0.87855 0.4973 0.7101 0.0
H1636 H 0.86262 0.51856 0.70065 0.0
H1637 H 0.88967 0.58494 0.72692 0.0
H1638 H 0.86717 0.65521 0.68774 0.0
H1639 H 0.88164 0.63272 0.69728 0.0
H1640 H 0.85118 0.56611 0.67331 0.0
C1641 C 0.8784 0.5271 0.70751 0.0
C1642 C 0.88153 0.58076 0.71513 0.0
C1643 C 0.88747 0.51489 0.71299 0.0
C1644 C 0.85701 0.63756 0.68584 0.0
C1645 C 0.86527 0.62469 0.69132 0.0
C1646 C 0.85942 0.57025 0.68507 0.0
C1647 C 0.88932 0.54996 0.71116 0.0
C1648 C 0.87959 0.56299 0.70549 0.0
C1649 C 0.85272 0.60174 0.68887 0.0
C1650 C 0.86164 0.58816 0.69465 0.0
H1651 H 0.93418 0.55644 0.73303 0.0
H1652 H 0.91866 0.57789 0.72317 0.0
H1653 H 0.86682 0.54448 0.68258 0.0
H1654 H 0.80704 0.59686 0.66941 0.0
H1655 H 0.82159 0.57427 0.67889 0.0
C1656 C 0.44364 0.89671 0.2184 0.0
C1657 C 0.4395 0.90919 0.22949 0.0
C1658 C 0.44572 0.90175 0.20294 0.0
C1659 C 0.43558 0.93366 0.17423 0.0
H1660 H 0.48415 0.93422 0.15567 0.0
C1661 C 0.47433 0.98251 0.12259 0.0
C1662 C 0.48099 0.97291 0.11103 0.0
C1663 C 0.46639 0.97214 0.13593 0.0
C1664 C 0.47031 0.93381 0.16057 0.0
H1665 H 0.43385 0.93643 0.23309 0.0
H1666 H 0.43778 0.94548 0.20615 0.0
H1667 H 0.47535 0.92067 0.18109 0.0
H1668 H 0.48416 0.94473 0.10421 0.0
H1669 H 0.47016 0.92652 0.12756 0.0
H1670 H 0.43105 0.94749 0.15385 0.0
C1671 C 0.43904 0.93154 0.20929 0.0
C1672 C 0.46523 0.92602 0.17514 0.0
C1673 C 0.43685 0.92642 0.22473 0.0
C1674 C 0.47905 0.95246 0.1129 0.0
C1675 C 0.47121 0.94214 0.1263 0.0
C1676 C 0.44073 0.94156 0.15968 0.0
C1677 C 0.44381 0.91946 0.19827 0.0
C1678 C 0.44799 0.92612 0.18223 0.0
C1679 C 0.46502 0.95199 0.13803 0.0
C1680 C 0.45833 0.94197 0.15281 0.0
H1681 H 0.44541 0.88311 0.22172 0.0
H1682 H 0.449 0.89188 0.19467 0.0
H1683 H 0.42198 0.93362 0.17926 0.0
H1684 H 0.4754 0.99814 0.12135 0.0
H1685 H 0.46193 0.98022 0.14484 0.0
C1686 C 0.06463 0.51164 0.24351 0.0
C1687 C 0.08103 0.53229 0.25056 0.0
C1688 C 0.0583 0.50834 0.22741 0.0
C1689 C 0.07737 0.53117 0.19031 0.0
H1690 H 0.01595 0.49893 0.17495 0.0
C1691 C 0.04728 0.51021 0.12423 0.0
C1692 C 0.03014 0.5137 0.1193 0.0
C1693 C 0.05326 0.51116 0.14018 0.0
C1694 C 0.03316 0.50802 0.17907 0.0
H1695 H 0.10389 0.56556 0.24622 0.0
H1696 H 0.09266 0.55988 0.21819 0.0
H1697 H 0.02697 0.50345 0.20299 0.0
H1698 H 0.006 0.52117 0.12733 0.0
H1699 H 0.01632 0.52265 0.15507 0.0
H1700 H 0.08356 0.53615 0.16644 0.0
C1701 C 0.08477 0.5462 0.22508 0.0
C1702 C 0.03947 0.51042 0.19511 0.0
C1703 C 0.09102 0.54953 0.24117 0.0
C1704 C 0.01901 0.51799 0.13069 0.0
C1705 C 0.02493 0.51886 0.14661 0.0
C1706 C 0.07107 0.52868 0.17428 0.0
C1707 C 0.06834 0.52558 0.21801 0.0
C1708 C 0.06164 0.52221 0.20092 0.0
C1709 C 0.04218 0.51556 0.15154 0.0
C1710 C 0.04889 0.51725 0.16849 0.0
H1711 H 0.05655 0.49808 0.25047 0.0
H1712 H 0.0457 0.49222 0.22228 0.0
H1713 H 0.09459 0.54013 0.19442 0.0
H1714 H 0.05598 0.50656 0.11577 0.0
H1715 H 0.06645 0.50828 0.14361 0.0
C1716 C 0.48936 0.54434 0.23621 0.0
C1717 C 0.46872 0.54121 0.23874 0.0
C1718 C 0.49448 0.54215 0.22106 0.0
C1719 C 0.47062 0.52042 0.17997 0.0
H1720 H 0.52732 0.56563 0.17053 0.0
C1721 C 0.49419 0.5352 0.11673 0.0
C1722 C 0.51553 0.54063 0.11409 0.0
C1723 C 0.48801 0.53356 0.13194 0.0
C1724 C 0.51155 0.5527 0.173 0.0
H1725 H 0.43706 0.53277 0.2274 0.0
H1726 H 0.44603 0.52904 0.20087 0.0
H1727 H 0.51729 0.56541 0.19705 0.0
H1728 H 0.54686 0.54773 0.12527 0.0
H1729 H 0.53611 0.54489 0.15175 0.0
H1730 H 0.46485 0.5079 0.15579 0.0
C1731 C 0.45818 0.53294 0.21063 0.0
C1732 C 0.50579 0.55256 0.18822 0.0
C1733 C 0.45303 0.53508 0.22582 0.0
C1734 C 0.53042 0.54395 0.12694 0.0
C1735 C 0.52425 0.5423 0.14212 0.0
C1736 C 0.47639 0.52057 0.1647 0.0
C1737 C 0.47911 0.53684 0.20806 0.0
C1738 C 0.48526 0.53644 0.1919 0.0
C1739 C 0.50305 0.53732 0.14481 0.0
C1740 C 0.49692 0.53674 0.16105 0.0
H1741 H 0.50165 0.54872 0.24597 0.0
H1742 H 0.51059 0.54481 0.21951 0.0
H1743 H 0.45478 0.50764 0.18245 0.0
H1744 H 0.4824 0.53276 0.1071 0.0
H1745 H 0.47163 0.52995 0.13364 0.0
C1746 C 0.95118 0.46487 0.77626 0.0
C1747 C 0.93514 0.46983 0.7711 0.0
C1748 C 0.9575 0.46671 0.79222 0.0
C1749 C 0.95641 0.49079 0.83124 0.0
H1750 H 0.95985 0.44161 0.84561 0.0
C1751 C 0.98736 0.48929 0.89489 0.0
C1752 C 0.97572 0.4696 0.90166 0.0
C1753 C 0.98264 0.49038 0.87906 0.0
C1754 C 0.95883 0.45541 0.84179 0.0
H1755 H 0.91362 0.48121 0.77867 0.0
H1756 H 0.92478 0.48453 0.80657 0.0
H1757 H 0.95195 0.44229 0.81776 0.0
H1758 H 0.94992 0.43568 0.89717 0.0
H1759 H 0.94155 0.43763 0.8696 0.0
H1760 H 0.96298 0.50371 0.85538 0.0
C1761 C 0.93256 0.47938 0.79823 0.0
C1762 C 0.95458 0.45593 0.82582 0.0
C1763 C 0.92619 0.4775 0.78225 0.0
C1764 C 0.95906 0.45113 0.89233 0.0
C1765 C 0.95442 0.45218 0.8765 0.0
C1766 C 0.9608 0.49032 0.84725 0.0
C1767 C 0.94797 0.47358 0.80339 0.0
C1768 C 0.95324 0.47358 0.82036 0.0
C1769 C 0.96628 0.47176 0.86966 0.0
C1770 C 0.96191 0.47254 0.85269 0.0
H1771 H 0.95865 0.45929 0.76794 0.0
H1772 H 0.96972 0.46252 0.79582 0.0
H1773 H 0.95561 0.50467 0.82737 0.0
H1774 H 0.00016 0.50385 0.90183 0.0
H1775 H 0.99213 0.50566 0.8741 0.0
C1776 C 0.56242 0.48889 0.78651 0.0
C1777 C 0.55762 0.46835 0.77942 0.0
C1778 C 0.55791 0.49116 0.80188 0.0
C1779 C 0.52337 0.45916 0.83149 0.0
H1780 H 0.56433 0.5089 0.86073 0.0
C1781 C 0.51123 0.46376 0.89679 0.0
C1782 C 0.51528 0.48396 0.904 0.0
C1783 C 0.51723 0.46223 0.88182 0.0
C1784 C 0.55263 0.49503 0.85265 0.0
H1785 H 0.54492 0.43425 0.78307 0.0
H1786 H 0.53699 0.43819 0.80983 0.0
H1787 H 0.57316 0.5056 0.83408 0.0
H1788 H 0.52898 0.51843 0.90119 0.0
H1789 H 0.53941 0.51576 0.875 0.0
H1790 H 0.50278 0.44862 0.84995 0.0
C1791 C 0.5439 0.45247 0.80343 0.0
C1792 C 0.55769 0.49314 0.83739 0.0
C1793 C 0.54843 0.45021 0.78809 0.0
C1794 C 0.52586 0.50268 0.89602 0.0
C1795 C 0.53183 0.50115 0.88102 0.0
C1796 C 0.51831 0.46106 0.84671 0.0
C1797 C 0.54848 0.47294 0.81047 0.0
C1798 C 0.54314 0.47514 0.82666 0.0
C1799 C 0.5274 0.48086 0.87369 0.0
C1800 C 0.53289 0.47897 0.85749 0.0
H1801 H 0.56927 0.50313 0.78007 0.0
H1802 H 0.56138 0.50709 0.80691 0.0
H1803 H 0.51164 0.44529 0.82342 0.0
H1804 H 0.50346 0.44911 0.90274 0.0
H1805 H 0.51397 0.44644 0.87664 0.0
C1806 C 0.55084 0.0802 0.79621 0.0
C1807 C 0.54408 0.0942 0.79031 0.0
C1808 C 0.54654 0.0736 0.8112 0.0
C1809 C 0.50866 0.06613 0.84033 0.0
H1810 H 0.55192 0.06508 0.86943 0.0
C1811 C 0.49246 0.04738 0.90367 0.0
C1812 C 0.49913 0.03353 0.90991 0.0
C1813 C 0.49915 0.05577 0.88949 0.0
C1814 C 0.53959 0.06507 0.86137 0.0
H1815 H 0.52843 0.11304 0.79576 0.0
H1816 H 0.52071 0.10131 0.82179 0.0
H1817 H 0.56145 0.07769 0.84371 0.0
H1818 H 0.51812 0.0177 0.90631 0.0
H1819 H 0.5296 0.0321 0.8814 0.0
H1820 H 0.48667 0.05322 0.85774 0.0
C1821 C 0.52902 0.09518 0.81475 0.0
C1822 C 0.54507 0.0723 0.84667 0.0
C1823 C 0.5334 0.10185 0.79983 0.0
C1824 C 0.51293 0.02854 0.90184 0.0
C1825 C 0.51953 0.03681 0.88759 0.0
C1826 C 0.50315 0.05879 0.85495 0.0
C1827 C 0.53534 0.08082 0.82052 0.0
C1828 C 0.52967 0.07299 0.83605 0.0
C1829 C 0.51252 0.05035 0.88118 0.0
C1830 C 0.51857 0.05826 0.86567 0.0
H1831 H 0.55894 0.0739 0.7891 0.0
H1832 H 0.55143 0.06238 0.81532 0.0
H1833 H 0.49634 0.06613 0.83226 0.0
H1834 H 0.48208 0.05176 0.90978 0.0
H1835 H 0.49383 0.06651 0.88503 0.0
C1836 C 0.141 0.27763 0.57011 0.0
C1837 C 0.11883 0.26404 0.57192 0.0
C1838 C 0.14725 0.28814 0.55656 0.0
C1839 C 0.1273 0.30426 0.52195 0.0
H1840 H 0.17266 0.29934 0.50254 0.0
C1841 C 0.14309 0.31934 0.45755 0.0
C1842 C 0.16482 0.3297 0.454 0.0
C1843 C 0.13807 0.31347 0.4726 0.0
C1844 C 0.16022 0.30119 0.50791 0.0
H1845 H 0.08583 0.2512 0.56109 0.0
H1846 H 0.09676 0.26959 0.53746 0.0
H1847 H 0.16304 0.28585 0.52786 0.0
H1848 H 0.19832 0.34218 0.46357 0.0
H1849 H 0.18962 0.33248 0.48988 0.0
H1850 H 0.12435 0.31941 0.50186 0.0
C1851 C 0.1093 0.27232 0.54659 0.0
C1852 C 0.1547 0.29346 0.52243 0.0
C1853 C 0.10304 0.26178 0.56013 0.0
C1854 C 0.18143 0.33442 0.46593 0.0
C1855 C 0.17642 0.32862 0.48097 0.0
C1856 C 0.13287 0.31207 0.50741 0.0
C1857 C 0.13147 0.28529 0.54455 0.0
C1858 C 0.13808 0.29475 0.52956 0.0
C1859 C 0.15467 0.31785 0.48444 0.0
C1860 C 0.14929 0.31047 0.50018 0.0
H1861 H 0.15353 0.27999 0.57911 0.0
H1862 H 0.16446 0.29833 0.55542 0.0
H1863 H 0.11458 0.30569 0.52725 0.0
H1864 H 0.12994 0.3157 0.44867 0.0
H1865 H 0.12112 0.30501 0.47485 0.0
C1866 C 0.72721 0.8457 0.58037 0.0
C1867 C 0.74353 0.86652 0.58721 0.0
C1868 C 0.72089 0.84195 0.56427 0.0
C1869 C 0.74016 0.86379 0.52698 0.0
H1870 H 0.67892 0.83003 0.51126 0.0
C1871 C 0.71107 0.84006 0.46086 0.0
C1872 C 0.69364 0.84285 0.45545 0.0
C1873 C 0.71688 0.84169 0.47692 0.0
C1874 C 0.69608 0.83954 0.51548 0.0
H1875 H 0.76613 0.89969 0.58251 0.0
H1876 H 0.75487 0.89325 0.55445 0.0
H1877 H 0.68962 0.83581 0.53941 0.0
H1878 H 0.6688 0.84976 0.46271 0.0
H1879 H 0.67886 0.85246 0.49064 0.0
H1880 H 0.7466 0.86794 0.50308 0.0
C1881 C 0.74708 0.87977 0.56151 0.0
C1882 C 0.70222 0.84267 0.53158 0.0
C1883 C 0.75334 0.88353 0.57761 0.0
C1884 C 0.68205 0.84711 0.46646 0.0
C1885 C 0.68782 0.84868 0.48248 0.0
C1886 C 0.73403 0.86059 0.51087 0.0
C1887 C 0.73083 0.85893 0.55465 0.0
C1888 C 0.72432 0.85499 0.53752 0.0
C1889 C 0.70536 0.8461 0.4879 0.0
C1890 C 0.71191 0.84859 0.50495 0.0
H1891 H 0.71926 0.83231 0.5875 0.0
H1892 H 0.70843 0.82568 0.5593 0.0
H1893 H 0.75734 0.87314 0.53118 0.0
H1894 H 0.72015 0.83649 0.45269 0.0
H1895 H 0.73032 0.83935 0.48074 0.0
C1896 C 0.12136 0.87092 0.56008 0.0
C1897 C 0.13667 0.87681 0.57321 0.0
C1898 C 0.12675 0.86842 0.54504 0.0
C1899 C 0.1747 0.8864 0.52318 0.0
H1900 H 0.13341 0.84189 0.49081 0.0
C1901 C 0.19921 0.87611 0.46215 0.0
C1902 C 0.18456 0.87316 0.44924 0.0
C1903 C 0.19299 0.87478 0.4773 0.0
C1904 C 0.14506 0.85451 0.49971 0.0
H1905 H 0.16923 0.88361 0.58095 0.0
H1906 H 0.1786 0.87909 0.55474 0.0
H1907 H 0.12314 0.84234 0.51735 0.0
H1908 H 0.15179 0.8663 0.44213 0.0
H1909 H 0.14093 0.86401 0.46862 0.0
H1910 H 0.19653 0.89872 0.50558 0.0
C1911 C 0.16259 0.87687 0.55602 0.0
C1912 C 0.13918 0.85476 0.5149 0.0
C1913 C 0.15722 0.87943 0.57103 0.0
C1914 C 0.16338 0.86842 0.45181 0.0
C1915 C 0.15716 0.86709 0.46698 0.0
C1916 C 0.18057 0.88613 0.50803 0.0
C1917 C 0.14755 0.87171 0.54282 0.0
C1918 C 0.15391 0.87078 0.5268 0.0
C1919 C 0.17197 0.87047 0.47991 0.0
C1920 C 0.1658 0.87024 0.4961 0.0
H1921 H 0.10547 0.86902 0.56138 0.0
H1922 H 0.11487 0.86468 0.53512 0.0
H1923 H 0.18629 0.89923 0.53199 0.0
H1924 H 0.2155 0.87936 0.46053 0.0
H1925 H 0.20466 0.87708 0.48699 0.0
C1926 C 0.57754 0.78251 0.11801 0.0
C1927 C 0.59057 0.79789 0.10812 0.0
C1928 C 0.58342 0.78614 0.13414 0.0
C1929 C 0.63071 0.81393 0.16317 0.0
H1930 H 0.58803 0.80243 0.19263 0.0
C1931 C 0.65406 0.82341 0.2297 0.0
C1932 C 0.63903 0.80718 0.23819 0.0
C1933 C 0.64815 0.8249 0.21422 0.0
C1934 C 0.60011 0.80552 0.18457 0.0
H1935 H 0.61983 0.82917 0.1073 0.0
H1936 H 0.63033 0.83542 0.13564 0.0
H1937 H 0.57764 0.80007 0.16471 0.0
H1938 H 0.60604 0.77989 0.23725 0.0
H1939 H 0.59583 0.78208 0.21015 0.0
H1940 H 0.65297 0.81852 0.18283 0.0
C1941 C 0.61554 0.82061 0.13085 0.0
C1942 C 0.59416 0.80425 0.16859 0.0
C1943 C 0.60949 0.8171 0.11469 0.0
C1944 C 0.61787 0.79272 0.23102 0.0
C1945 C 0.61202 0.79406 0.2155 0.0
C1946 C 0.63661 0.81497 0.17913 0.0
C1947 C 0.60258 0.80512 0.14071 0.0
C1948 C 0.60933 0.80818 0.15773 0.0
C1949 C 0.62715 0.81003 0.20684 0.0
C1950 C 0.6213 0.8105 0.19002 0.0
H1951 H 0.56276 0.76765 0.11324 0.0
H1952 H 0.57324 0.77383 0.14145 0.0
H1953 H 0.64265 0.81679 0.15503 0.0
H1954 H 0.67041 0.83495 0.23503 0.0
H1955 H 0.6601 0.83767 0.20803 0.0
C1956 C 0.202 0.80041 0.11539 0.0
C1957 C 0.22333 0.80679 0.11204 0.0
C1958 C 0.19771 0.8035 0.13066 0.0
C1959 C 0.22079 0.8123 0.17197 0.0
H1960 H 0.17671 0.82779 0.1795 0.0
C1961 C 0.20375 0.83177 0.23418 0.0
C1962 C 0.18166 0.82166 0.23687 0.0
C1963 C 0.20962 0.83102 0.21903 0.0
C1964 C 0.18898 0.82334 0.17756 0.0
H1965 H 0.25691 0.82155 0.1222 0.0
H1966 H 0.24954 0.82762 0.14875 0.0
H1967 H 0.18574 0.82507 0.15289 0.0
H1968 H 0.14846 0.80246 0.2257 0.0
H1969 H 0.15874 0.80154 0.19932 0.0
H1970 H 0.22406 0.81075 0.19672 0.0
C1971 C 0.23604 0.81986 0.1396 0.0
C1972 C 0.19412 0.82172 0.16231 0.0
C1973 C 0.24032 0.81665 0.12432 0.0
C1974 C 0.16562 0.81081 0.22405 0.0
C1975 C 0.17149 0.81023 0.20892 0.0
C1976 C 0.21575 0.8141 0.18724 0.0
C1977 C 0.21466 0.8132 0.14298 0.0
C1978 C 0.20993 0.81595 0.1593 0.0
C1979 C 0.19354 0.82031 0.20625 0.0
C1980 C 0.19964 0.81941 0.19016 0.0
H1981 H 0.18856 0.79303 0.10619 0.0
H1982 H 0.181 0.79791 0.13284 0.0
H1983 H 0.2328 0.80751 0.17008 0.0
H1984 H 0.21654 0.84054 0.24373 0.0
H1985 H 0.22675 0.83912 0.21729 0.0
C1986 C 0.20793 0.43728 0.13716 0.0
C1987 C 0.21271 0.42548 0.12597 0.0
C1988 C 0.20374 0.43056 0.15207 0.0
C1989 C 0.20895 0.395 0.17988 0.0
H1990 H 0.16181 0.39858 0.19754 0.0
C1991 C 0.16925 0.3528 0.23416 0.0
C1992 C 0.16514 0.36532 0.24526 0.0
C1993 C 0.1766 0.3607 0.21995 0.0
C1994 C 0.17516 0.3977 0.19283 0.0
H1995 H 0.21738 0.39774 0.12159 0.0
H1996 H 0.20956 0.38559 0.14765 0.0
H1997 H 0.17174 0.41114 0.17203 0.0
H1998 H 0.16567 0.39595 0.2503 0.0
H1999 H 0.17851 0.40975 0.22547 0.0
H2000 H 0.2119 0.38104 0.20069 0.0
C2001 C 0.2094 0.40027 0.14499 0.0
C2002 C 0.18091 0.40494 0.17823 0.0
C2003 C 0.21381 0.40714 0.13007 0.0
C2004 C 0.16883 0.38602 0.242 0.0
C2005 C 0.176 0.39383 0.22775 0.0
C2006 C 0.20306 0.38758 0.19448 0.0
C2007 C 0.20402 0.41174 0.15609 0.0
C2008 C 0.19796 0.40382 0.17161 0.0
C2009 C 0.17977 0.38116 0.21654 0.0
C2010 C 0.18618 0.38898 0.20111 0.0
H2011 H 0.20735 0.4517 0.13434 0.0
H2012 H 0.2002 0.4401 0.16045 0.0
H2013 H 0.22231 0.39412 0.17519 0.0
H2014 H 0.16672 0.33687 0.23646 0.0
H2015 H 0.17927 0.35056 0.21147 0.0
C2016 C 0.7653 0.58345 0.88918 0.0
C2017 C 0.78177 0.58781 0.90112 0.0
C2018 C 0.77064 0.59227 0.87493 0.0
C2019 C 0.81538 0.61312 0.85 0.0
H2020 H 0.78366 0.63715 0.82868 0.0
C2021 C 0.84372 0.65758 0.79505 0.0
C2022 C 0.82769 0.65333 0.78278 0.0
C2023 C 0.83782 0.65004 0.80957 0.0
C2024 C 0.7925 0.63026 0.83442 0.0
H2025 H 0.81668 0.60558 0.90774 0.0
H2026 H 0.82601 0.62087 0.88284 0.0
H2027 H 0.77386 0.62346 0.85408 0.0
H2028 H 0.79288 0.63804 0.77622 0.0
H2029 H 0.78256 0.62438 0.80152 0.0
H2030 H 0.83388 0.61966 0.83036 0.0
C2031 C 0.80899 0.61035 0.88441 0.0
C2032 C 0.78692 0.62247 0.84896 0.0
C2033 C 0.80365 0.60159 0.89865 0.0
C2034 C 0.80561 0.64139 0.78539 0.0
C2035 C 0.79971 0.6338 0.79994 0.0
C2036 C 0.82091 0.62083 0.83548 0.0
C2037 C 0.79256 0.60557 0.87233 0.0
C2038 C 0.79837 0.6139 0.85692 0.0
C2039 C 0.81576 0.63797 0.81217 0.0
C2040 C 0.8096 0.62957 0.82754 0.0
H2041 H 0.7483 0.57269 0.89067 0.0
H2042 H 0.75765 0.58814 0.86577 0.0
H2043 H 0.82422 0.60622 0.85572 0.0
H2044 H 0.86087 0.6665 0.79337 0.0
H2045 H 0.8506 0.65377 0.8188 0.0
C2046 C 0.39669 0.18098 0.90908 0.0
C2047 C 0.41319 0.20164 0.91605 0.0
C2048 C 0.38993 0.1777 0.89305 0.0
C2049 C 0.40861 0.20066 0.85597 0.0
H2050 H 0.34728 0.167 0.84047 0.0
C2051 C 0.37933 0.17855 0.7899 0.0
C2052 C 0.36181 0.18132 0.78469 0.0
C2053 C 0.38513 0.17975 0.8059 0.0
C2054 C 0.36447 0.1765 0.84463 0.0
H2055 H 0.43556 0.23503 0.91166 0.0
H2056 H 0.42354 0.2294 0.88378 0.0
H2057 H 0.35825 0.17208 0.86857 0.0
H2058 H 0.33676 0.18767 0.79227 0.0
H2059 H 0.34683 0.18967 0.82014 0.0
H2060 H 0.41484 0.20548 0.8321 0.0
C2061 C 0.41596 0.21569 0.89066 0.0
C2062 C 0.37075 0.17923 0.8607 0.0
C2063 C 0.42265 0.21898 0.90668 0.0
C2064 C 0.3501 0.18508 0.79586 0.0
C2065 C 0.35587 0.18624 0.81184 0.0
C2066 C 0.40234 0.19787 0.83991 0.0
C2067 C 0.39962 0.19499 0.88365 0.0
C2068 C 0.39289 0.19149 0.86656 0.0
C2069 C 0.37354 0.18373 0.81705 0.0
C2070 C 0.38019 0.18589 0.83407 0.0
H2071 H 0.38899 0.16734 0.91603 0.0
H2072 H 0.3774 0.16152 0.88797 0.0
H2073 H 0.42582 0.20998 0.8601 0.0
H2074 H 0.38848 0.17531 0.7816 0.0
H2075 H 0.39864 0.17745 0.80955 0.0
C2076 C 0.78752 0.20109 0.89309 0.0
C2077 C 0.80337 0.20855 0.90604 0.0
C2078 C 0.79282 0.19849 0.87802 0.0
C2079 C 0.8407 0.21912 0.85579 0.0
H2080 H 0.80076 0.17319 0.82368 0.0
C2081 C 0.86607 0.21072 0.79476 0.0
C2082 C 0.85107 0.20704 0.78188 0.0
C2083 C 0.85984 0.20891 0.80992 0.0
C2084 C 0.81202 0.18619 0.83251 0.0
H2085 H 0.83675 0.21782 0.91356 0.0
H2086 H 0.84595 0.21298 0.88735 0.0
H2087 H 0.7905 0.17304 0.85029 0.0
H2088 H 0.81768 0.19831 0.77483 0.0
H2089 H 0.80682 0.19514 0.80134 0.0
H2090 H 0.86214 0.2324 0.83807 0.0
C2091 C 0.82959 0.20969 0.88873 0.0
C2092 C 0.80615 0.18611 0.84774 0.0
C2093 C 0.82432 0.21239 0.90374 0.0
C2094 C 0.82957 0.20103 0.78448 0.0
C2095 C 0.82333 0.19919 0.79967 0.0
C2096 C 0.84658 0.21917 0.84062 0.0
C2097 C 0.81406 0.20321 0.87564 0.0
C2098 C 0.82041 0.20262 0.85955 0.0
C2099 C 0.83848 0.20336 0.81257 0.0
C2100 C 0.8323 0.20276 0.82878 0.0
H2101 H 0.77129 0.19817 0.89452 0.0
H2102 H 0.78053 0.19366 0.86819 0.0
H2103 H 0.85189 0.23236 0.8645 0.0
H2104 H 0.88264 0.21495 0.79312 0.0
H2105 H 0.87179 0.21185 0.81959 0.0
C2106 C 0.28583 0.13019 0.44093 0.0
C2107 C 0.26986 0.13504 0.43541 0.0
C2108 C 0.2918 0.1322 0.45697 0.0
C2109 C 0.28981 0.15667 0.49555 0.0
H2110 H 0.29314 0.10785 0.51075 0.0
C2111 C 0.31978 0.15615 0.55969 0.0
C2112 C 0.3081 0.13655 0.56655 0.0
C2113 C 0.31525 0.15701 0.54379 0.0
C2114 C 0.29214 0.12154 0.5067 0.0
H2115 H 0.24806 0.14636 0.44239 0.0
H2116 H 0.25859 0.14997 0.47042 0.0
H2117 H 0.28576 0.10812 0.48277 0.0
H2118 H 0.2824 0.10257 0.56217 0.0
H2119 H 0.27436 0.10414 0.53447 0.0
H2120 H 0.29588 0.1699 0.51959 0.0
C2121 C 0.2666 0.14478 0.46232 0.0
C2122 C 0.28819 0.12183 0.49066 0.0
C2123 C 0.26059 0.14274 0.44626 0.0
C2124 C 0.29156 0.11795 0.55725 0.0
C2125 C 0.28712 0.11879 0.54135 0.0
C2126 C 0.29389 0.15643 0.51163 0.0
C2127 C 0.28197 0.13913 0.46785 0.0
C2128 C 0.2869 0.13936 0.4849 0.0
C2129 C 0.29905 0.13826 0.53441 0.0
C2130 C 0.29496 0.13879 0.51737 0.0
H2131 H 0.29354 0.12459 0.43284 0.0
H2132 H 0.30399 0.12811 0.46087 0.0
H2133 H 0.28903 0.17046 0.49145 0.0
H2134 H 0.33248 0.1708 0.5666 0.0
H2135 H 0.3248 0.17222 0.53875 0.0
C2136 C 0.88435 0.11889 0.45757 0.0
C2137 C 0.89114 0.13595 0.4479 0.0
C2138 C 0.88018 0.12191 0.4729 0.0
C2139 C 0.86455 0.15424 0.49788 0.0
H2140 H 0.88726 0.13554 0.5321 0.0
C2141 C 0.85305 0.17105 0.56195 0.0
C2142 C 0.84862 0.15454 0.57181 0.0
C2143 C 0.85943 0.16965 0.54709 0.0
C2144 C 0.88055 0.14061 0.52266 0.0
H2145 H 0.89878 0.16946 0.44661 0.0
H2146 H 0.89131 0.1747 0.47344 0.0
H2147 H 0.89587 0.13123 0.50558 0.0
H2148 H 0.84732 0.12359 0.57388 0.0
H2149 H 0.85793 0.1208 0.54781 0.0
H2150 H 0.84872 0.16308 0.51477 0.0
C2151 C 0.88927 0.15903 0.46913 0.0
C2152 C 0.88556 0.1382 0.50749 0.0
C2153 C 0.89368 0.15609 0.45385 0.0
C2154 C 0.85087 0.13668 0.56658 0.0
C2155 C 0.85703 0.13514 0.55165 0.0
C2156 C 0.85934 0.15644 0.51302 0.0
C2157 C 0.8825 0.14197 0.4788 0.0
C2158 C 0.87758 0.14495 0.49495 0.0
C2159 C 0.8613 0.15156 0.54168 0.0
C2160 C 0.86724 0.14962 0.52561 0.0
H2161 H 0.88242 0.10326 0.45329 0.0
H2162 H 0.87482 0.10844 0.48006 0.0
H2163 H 0.85795 0.15933 0.48839 0.0
H2164 H 0.85173 0.18516 0.56578 0.0
H2165 H 0.86301 0.18282 0.53989 0.0
C2166 C 0.85671 0.73018 0.45708 0.0
C2167 C 0.87713 0.74764 0.45446 0.0
C2168 C 0.85299 0.72272 0.47185 0.0
C2169 C 0.87392 0.74111 0.51352 0.0
H2170 H 0.83416 0.68018 0.51847 0.0
C2171 C 0.83519 0.71395 0.57074 0.0
C2172 C 0.8313 0.69376 0.57539 0.0
C2173 C 0.84272 0.72025 0.55627 0.0
C2174 C 0.84555 0.69721 0.51735 0.0
H2175 H 0.90987 0.77053 0.46528 0.0
H2176 H 0.90361 0.75697 0.4909 0.0
H2177 H 0.84438 0.69089 0.49259 0.0
H2178 H 0.83288 0.66461 0.5688 0.0
H2179 H 0.84647 0.67576 0.54362 0.0
H2180 H 0.87545 0.74738 0.53831 0.0
C2181 C 0.89031 0.74937 0.4816 0.0
C2182 C 0.85118 0.70341 0.50246 0.0
C2183 C 0.89398 0.75695 0.46684 0.0
C2184 C 0.83547 0.68015 0.5654 0.0
C2185 C 0.84321 0.68652 0.55098 0.0
C2186 C 0.86844 0.7349 0.52842 0.0
C2187 C 0.86966 0.73239 0.48435 0.0
C2188 C 0.86514 0.72549 0.50032 0.0
C2189 C 0.84674 0.70657 0.54617 0.0
C2190 C 0.85389 0.71293 0.53049 0.0
H2191 H 0.84347 0.7224 0.44774 0.0
H2192 H 0.83681 0.70978 0.47355 0.0
H2193 H 0.88455 0.7583 0.51232 0.0
H2194 H 0.83185 0.72464 0.57813 0.0
H2195 H 0.84486 0.7356 0.55284 0.0
loop_
_geom_bond_atom_site_label_1
_geom_bond_atom_site_label_2
_geom_bond_distance
_geom_bond_site_symmetry_2
_ccdc_geom_bond_type
H0 C5 0.930 . S
H1 C8 0.930 . S
H2 C10 0.930 . S
H3 C4 1.016 . S
C4 H3 1.016 . S
C4 N11 1.286 . S
C5 H0 0.930 . S
C5 C6 1.397 . S
C5 C7 1.361 . S
C6 C5 1.397 . S
C6 C10 1.390 . S
C7 C5 1.361 . S
C7 C8 1.393 . S
C7 N11 1.413 . S
C8 H1 0.930 . S
C8 C7 1.393 . S
C8 C9 1.399 . S
C9 C8 1.399 . S
C9 C10 1.381 . S
C10 H2 0.930 . S
C10 C6 1.390 . S
C10 C9 1.381 . S
N11 C4 1.286 . S
N11 C7 1.413 . S
H12 C17 0.930 . S
H13 C20 0.930 . S
H14 C22 0.930 . S
H15 C16 1.016 . S
C16 H15 1.016 . S
C16 N23 1.286 . S
C17 H12 0.930 . S
C17 C18 1.397 . S
C17 C19 1.361 . S
C18 C17 1.397 . S
C18 C22 1.390 . S
C19 C17 1.361 . S
C19 C20 1.393 . S
C19 N23 1.413 . S
C20 H13 0.930 . S
C20 C19 1.393 . S
C20 C21 1.399 . S
C21 C20 1.399 . S
C21 C22 1.381 . S
C22 H14 0.930 . S
C22 C18 1.390 . S
C22 C21 1.381 . S
N23 C16 1.286 . S
N23 C19 1.413 . S
H24 C29 0.930 . S
H25 C32 0.930 . S
H26 C34 0.930 . S
H27 C28 1.016 . S
C28 H27 1.016 . S
C28 N35 1.286 . S
C29 H24 0.930 . S
C29 C30 1.397 . S
C29 C31 1.361 . S
C30 C29 1.397 . S
C30 C34 1.390 . S
C31 C29 1.361 . S
C31 C32 1.393 . S
C31 N35 1.413 . S
C32 H25 0.930 . S
C32 C31 1.393 . S
C32 C33 1.399 . S
C33 C32 1.399 . S
C33 C34 1.381 . S
C34 H26 0.930 . S
C34 C30 1.390 . S
C34 C33 1.381 . S
N35 C28 1.286 . S
N35 C31 1.413 . S
H36 C41 0.930 . S
H37 C44 0.930 . S
H38 C46 0.930 . S
H39 C40 1.016 . S
C40 H39 1.016 . S
C40 N47 1.286 . S
C41 H36 0.930 . S
C41 C42 1.397 . S
C41 C43 1.361 . S
C42 C41 1.397 . S
C42 C46 1.390 . S
C43 C41 1.361 . S
C43 C44 1.393 . S
C43 N47 1.413 . S
C44 H37 0.930 . S
C44 C43 1.393 . S
C44 C45 1.399 . S
C45 C44 1.399 . S
C45 C46 1.381 . S
C46 H38 0.930 . S
C46 C42 1.390 . S
C46 C45 1.381 . S
N47 C40 1.286 . S
N47 C43 1.413 . S
H48 C53 0.930 . S
H49 C56 0.930 . S
H50 C58 0.930 . S
H51 C52 1.016 . S
C52 H51 1.016 . S
C52 N59 1.286 . S
C53 H48 0.930 . S
C53 C54 1.397 . S
C53 C55 1.361 . S
C54 C53 1.397 . S
C54 C58 1.390 . S
C55 C53 1.361 . S
C55 C56 1.393 . S
C55 N59 1.413 . S
C56 H49 0.930 . S
C56 C55 1.393 . S
C56 C57 1.399 . S
C57 C56 1.399 . S
C57 C58 1.381 . S
C58 H50 0.930 . S
C58 C54 1.390 . S
C58 C57 1.381 . S
N59 C52 1.286 . S
N59 C55 1.413 . S
H60 C65 0.930 . S
H61 C68 0.930 . S
H62 C70 0.930 . S
H63 C64 1.016 . S
C64 H63 1.016 . S
C64 N71 1.286 . S
C65 H60 0.930 . S
C65 C66 1.397 . S
C65 C67 1.361 . S
C66 C65 1.397 . S
C66 C70 1.390 . S
C67 C65 1.361 . S
C67 C68 1.393 . S
C67 N71 1.413 . S
C68 H61 0.930 . S
C68 C67 1.393 . S
C68 C69 1.399 . S
C69 C68 1.399 . S
C69 C70 1.381 . S
C70 H62 0.930 . S
C70 C66 1.390 . S
C70 C69 1.381 . S
N71 C64 1.286 . S
N71 C67 1.413 . S
H72 C77 0.930 . S
H73 C80 0.930 . S
H74 C82 0.930 . S
H75 C76 1.016 . S
C76 H75 1.016 . S
C76 N83 1.286 . S
C77 H72 0.930 . S
C77 C78 1.397 . S
C77 C79 1.361 . S
C78 C77 1.397 . S
C78 C82 1.390 . S
C79 C77 1.361 . S
C79 C80 1.393 . S
C79 N83 1.413 . S
C80 H73 0.930 . S
C80 C79 1.393 . S
C80 C81 1.399 . S
C81 C80 1.399 . S
C81 C82 1.381 . S
C82 H74 0.930 . S
C82 C78 1.390 . S
C82 C81 1.381 . S
N83 C76 1.286 . S
N83 C79 1.413 . S
H84 C89 0.930 . S
H85 C92 0.930 . S
H86 C94 0.930 . S
H87 C88 1.016 . S
C88 H87 1.016 . S
C88 N95 1.286 . S
C89 H84 0.930 . S
C89 C90 1.397 . S
C89 C91 1.361 . S
C90 C89 1.397 . S
C90 C94 1.390 . S
C91 C89 1.361 . S
C91 C92 1.393 . S
C91 N95 1.413 . S
C92 H85 0.930 . S
C92 C91 1.393 . S
C92 C93 1.399 . S
C93 C92 1.399 . S
C93 C94 1.381 . S
C94 H86 0.930 . S
C94 C90 1.390 . S
C94 C93 1.381 . S
N95 C88 1.286 . S
N95 C91 1.413 . S
H96 C101 0.930 . S
H97 C104 0.930 . S
H98 C106 0.930 . S
H99 C100 1.016 . S
C100 H99 1.016 . S
C100 N107 1.286 . S
C101 H96 0.930 . S
C101 C102 1.397 . S
C101 C103 1.361 . S
C102 C101 1.397 . S
C102 C106 1.390 . S
C103 C101 1.361 . S
C103 C104 1.393 . S
C103 N107 1.413 . S
C104 H97 0.930 . S
C104 C103 1.393 . S
C104 C105 1.399 . S
C105 C104 1.399 . S
C105 C106 1.381 . S
C106 H98 0.930 . S
C106 C102 1.390 . S
C106 C105 1.381 . S
N107 C100 1.286 . S
N107 C103 1.413 . S
H108 C113 0.930 . S
H109 C116 0.930 . S
H110 C118 0.930 . S
H111 C112 1.016 . S
C112 H111 1.016 . S
C112 N119 1.286 . S
C113 H108 0.930 . S
C113 C114 1.397 . S
C113 C115 1.361 . S
C114 C113 1.397 . S
C114 C118 1.390 . S
C115 C113 1.361 . S
C115 C116 1.393 . S
C115 N119 1.413 . S
C116 H109 0.930 . S
C116 C115 1.393 . S
C116 C117 1.399 . S
C117 C116 1.399 . S
C117 C118 1.381 . S
C118 H110 0.930 . S
C118 C114 1.390 . S
C118 C117 1.381 . S
N119 C112 1.286 . S
N119 C115 1.413 . S
H120 C125 0.930 . S
H121 C128 0.930 . S
H122 C130 0.930 . S
H123 C124 1.016 . S
C124 H123 1.016 . S
C124 N131 1.286 . S
C125 H120 0.930 . S
C125 C126 1.397 . S
C125 C127 1.361 . S
C126 C125 1.397 . S
C126 C130 1.390 . S
C127 C125 1.361 . S
C127 C128 1.393 . S
C127 N131 1.413 . S
C128 H121 0.930 . S
C128 C127 1.393 . S
C128 C129 1.399 . S
C129 C128 1.399 . S
C129 C130 1.381 . S
C130 H122 0.930 . S
C130 C126 1.390 . S
C130 C129 1.381 . S
N131 C124 1.286 . S
N131 C127 1.413 . S
H132 C137 0.930 . S
H133 C140 0.930 . S
H134 C142 0.930 . S
H135 C136 1.016 . S
C136 H135 1.016 . S
C136 N143 1.286 . S
C137 H132 0.930 . S
C137 C138 1.397 . S
C137 C139 1.361 . S
C138 C137 1.397 . S
C138 C142 1.390 . S
C139 C137 1.361 . S
C139 C140 1.393 . S
C139 N143 1.413 . S
C140 H133 0.930 . S
C140 C139 1.393 . S
C140 C141 1.399 . S
C141 C140 1.399 . S
C141 C142 1.381 . S
C142 H134 0.930 . S
C142 C138 1.390 . S
C142 C141 1.381 . S
N143 C136 1.286 . S
N143 C139 1.413 . S
H144 C149 0.930 . S
H145 C152 0.930 . S
H146 C154 0.930 . S
H147 C148 1.016 . S
C148 H147 1.016 . S
C148 N155 1.286 . S
C149 H144 0.930 . S
C149 C150 1.397 . S
C149 C151 1.361 . S
C150 C149 1.397 . S
C150 C154 1.390 . S
C151 C149 1.361 . S
C151 C152 1.393 . S
C151 N155 1.413 . S
C152 H145 0.930 . S
C152 C151 1.393 . S
C152 C153 1.399 . S
C153 C152 1.399 . S
C153 C154 1.381 . S
C154 H146 0.930 . S
C154 C150 1.390 . S
C154 C153 1.381 . S
N155 C148 1.286 . S
N155 C151 1.413 . S
H156 C161 0.930 . S
H157 C164 0.930 . S
H158 C166 0.930 . S
H159 C160 1.016 . S
C160 H159 1.016 . S
C160 N167 1.286 . S
C161 H156 0.930 . S
C161 C162 1.397 . S
C161 C163 1.361 . S
C162 C161 1.397 . S
C162 C166 1.390 . S
C163 C161 1.361 . S
C163 C164 1.393 . S
C163 N167 1.413 . S
C164 H157 0.930 . S
C164 C163 1.393 . S
C164 C165 1.399 . S
C165 C164 1.399 . S
C165 C166 1.381 . S
C166 H158 0.930 . S
C166 C162 1.390 . S
C166 C165 1.381 . S
N167 C160 1.286 . S
N167 C163 1.413 . S
H168 C173 0.930 . S
H169 C176 0.930 . S
H170 C178 0.930 . S
H171 C172 1.016 . S
C172 H171 1.016 . S
C172 N179 1.286 . S
C173 H168 0.930 . S
C173 C174 1.397 . S
C173 C175 1.361 . S
C174 C173 1.397 . S
C174 C178 1.390 . S
C175 C173 1.361 . S
C175 C176 1.393 . S
C175 N179 1.413 . S
C176 H169 0.930 . S
C176 C175 1.393 . S
C176 C177 1.399 . S
C177 C176 1.399 . S
C177 C178 1.381 . S
C178 H170 0.930 . S
C178 C174 1.390 . S
C178 C177 1.381 . S
N179 C172 1.286 . S
N179 C175 1.413 . S
H180 C185 0.930 . S
H181 C188 0.930 . S
H182 C190 0.930 . S
H183 C184 1.016 . S
C184 H183 1.016 . S
C184 N191 1.286 . S
C185 H180 0.930 . S
C185 C186 1.397 . S
C185 C187 1.361 . S
C186 C185 1.397 . S
C186 C190 1.390 . S
C187 C185 1.361 . S
C187 C188 1.393 . S
C187 N191 1.413 . S
C188 H181 0.930 . S
C188 C187 1.393 . S
C188 C189 1.399 . S
C189 C188 1.399 . S
C189 C190 1.381 . S
C190 H182 0.930 . S
C190 C186 1.390 . S
C190 C189 1.381 . S
N191 C184 1.286 . S
N191 C187 1.413 . S
H192 C197 0.930 . S
H193 C200 0.930 . S
H194 C202 0.930 . S
H195 C196 1.016 . S
C196 H195 1.016 . S
C196 N203 1.286 . S
C197 H192 0.930 . S
C197 C198 1.397 . S
C197 C199 1.361 . S
C198 C197 1.397 . S
C198 C202 1.390 . S
C199 C197 1.361 . S
C199 C200 1.393 . S
C199 N203 1.413 . S
C200 H193 0.930 . S
C200 C199 1.393 . S
C200 C201 1.399 . S
C201 C200 1.399 . S
C201 C202 1.381 . S
C202 H194 0.930 . S
C202 C198 1.390 . S
C202 C201 1.381 . S
N203 C196 1.286 . S
N203 C199 1.413 . S
H204 C209 0.930 . S
H205 C212 0.930 . S
H206 C214 0.930 . S
H207 C208 1.016 . S
C208 H207 1.016 . S
C208 N215 1.286 . S
C209 H204 0.930 . S
C209 C210 1.397 . S
C209 C211 1.361 . S
C210 C209 1.397 . S
C210 C214 1.390 . S
C211 C209 1.361 . S
C211 C212 1.393 . S
C211 N215 1.413 . S
C212 H205 0.930 . S
C212 C211 1.393 . S
C212 C213 1.399 . S
C213 C212 1.399 . S
C213 C214 1.381 . S
C214 H206 0.930 . S
C214 C210 1.390 . S
C214 C213 1.381 . S
N215 C208 1.286 . S
N215 C211 1.413 . S
C216 Eu217 2.835 . S
C216 C218 1.500 1_545 S
C216 O236 1.257 1_545 S
C216 O237 1.260 . S
Eu217 C216 2.835 . S
Eu217 O236 2.473 1_545 S
Eu217 O237 2.480 . S
Eu217 O238 2.430 . S
Eu217 O239 2.670 . S
Eu217 O240 2.394 1_545 S
Eu217 O245 2.355 1_545 S
Eu217 O247 2.374 . S
C218 C216 1.500 1_565 S
C218 C219 1.377 1_565 S
C218 C223 1.377 . S
C219 C218 1.377 1_545 S
C219 C220 1.387 1_545 S
C219 H248 0.931 . S
C220 C219 1.387 1_565 S
C220 C221 1.423 . S
C220 H249 0.901 1_565 S
C221 C220 1.423 . S
C221 C222 1.394 . S
C222 C221 1.394 . S
C222 C223 1.378 . S
C222 H250 0.931 . S
C223 C218 1.377 . S
C223 C222 1.378 . S
C223 H251 0.931 . S
C224 O238 1.259 . S
C224 O239 1.270 . S
C225 O240 1.251 . S
C225 O241 1.251 . S
C226 Eu227 2.835 1_545 S
C226 C228 1.500 . S
C226 O242 1.257 . S
C226 O243 1.260 1_545 S
Eu227 C226 2.835 1_565 S
Eu227 O239 2.355 1_566 S
Eu227 O241 2.374 1_556 S
Eu227 O242 2.473 1_565 S
Eu227 O243 2.480 . S
Eu227 O244 2.430 . S
Eu227 O245 2.670 1_556 S
Eu227 O246 2.394 1_565 S
C228 C226 1.500 . S
C228 C229 1.377 . S
C228 C233 1.377 . S
C229 C228 1.377 . S
C229 C230 1.395 . S
C229 H252 0.931 1_545 S
C230 C229 1.395 . S
C230 C231 1.383 . S
C230 H253 0.931 . S
C231 C230 1.383 . S
C231 C232 1.394 . S
C232 C231 1.394 . S
C232 C233 1.378 . S
C232 H254 0.931 . S
C233 C228 1.377 . S
C233 C232 1.378 . S
C233 H255 0.931 . S
C234 O244 1.259 1_554 S
C234 O245 1.270 . S
C235 O246 1.251 1_554 S
C235 O247 1.251 . S
O236 C216 1.257 1_565 S
O236 Eu217 2.473 1_565 S
O237 C216 1.260 . S
O237 Eu217 2.480 . S
O238 Eu217 2.430 . S
O238 C224 1.259 . S
O239 Eu217 2.670 . S
O239 C224 1.270 . S
O239 Eu227 2.355 1_544 S
O240 Eu217 2.394 1_565 S
O240 C225 1.251 . S
O241 C225 1.251 . S
O241 Eu227 2.374 1_554 S
O242 C226 1.257 . S
O242 Eu227 2.473 1_545 S
O243 C226 1.260 1_565 S
O243 Eu227 2.480 . S
O244 Eu227 2.430 . S
O244 C234 1.259 1_556 S
O245 Eu217 2.355 1_565 S
O245 Eu227 2.670 1_554 S
O245 C234 1.270 . S
O246 Eu227 2.394 1_545 S
O246 C235 1.251 1_556 S
O247 Eu217 2.374 . S
O247 C235 1.251 . S
H248 C219 0.931 . S
H249 C220 0.901 1_545 S
H250 C222 0.931 . S
H251 C223 0.931 . S
H252 C229 0.931 1_565 S
H253 C230 0.931 . S
H254 C232 0.931 . S
H255 C233 0.931 . S
C256 Eu257 2.835 1_455 S
C256 C258 1.500 . S
C256 O276 1.257 . S
C256 O277 1.260 1_455 S
Eu257 C256 2.835 1_655 S
Eu257 O276 2.473 1_655 S
Eu257 O277 2.480 . S
Eu257 O278 2.430 . S
Eu257 O279 2.670 . S
Eu257 O280 2.394 1_655 S
Eu257 O285 2.355 1_655 S
Eu257 O287 2.374 . S
C258 C256 1.500 . S
C258 C259 1.377 . S
C258 C263 1.377 . S
C259 C258 1.377 . S
C259 C260 1.395 . S
C259 H288 0.931 1_455 S
C260 C259 1.395 . S
C260 C261 1.383 . S
C260 H289 0.931 . S
C261 C260 1.383 . S
C261 C262 1.394 . S
C262 C261 1.394 . S
C262 C263 1.378 . S
C262 H290 0.931 . S
C263 C258 1.377 . S
C263 C262 1.378 . S
C263 H291 0.931 . S
C264 O278 1.259 . S
C264 O279 1.270 . S
C265 O280 1.251 . S
C265 O281 1.251 . S
C266 Eu267 2.835 1_655 S
C266 C268 1.500 . S
C266 O282 1.257 . S
C266 O283 1.260 1_655 S
Eu267 C266 2.835 1_455 S
Eu267 O279 2.355 1_456 S
Eu267 O281 2.374 1_556 S
Eu267 O282 2.473 1_455 S
Eu267 O283 2.480 . S
Eu267 O284 2.430 . S
Eu267 O285 2.670 1_556 S
Eu267 O286 2.394 1_455 S
C268 C266 1.500 . S
C268 C269 1.377 1_655 S
C268 C273 1.377 . S
C269 C268 1.377 1_455 S
C269 C270 1.395 1_455 S
C269 H292 0.931 . S
C270 C269 1.395 1_655 S
C270 C271 1.383 . S
C270 H293 0.931 1_655 S
C271 C270 1.383 . S
C271 C272 1.394 . S
C272 C271 1.394 . S
C272 C273 1.378 . S
C272 H294 0.931 . S
C273 C268 1.377 . S
C273 C272 1.378 . S
C273 H295 0.931 . S
C274 O284 1.259 1_554 S
C274 O285 1.270 . S
C275 O286 1.251 . S
C275 O287 1.251 1_556 S
O276 C256 1.257 . S
O276 Eu257 2.473 1_455 S
O277 C256 1.260 1_655 S
O277 Eu257 2.480 . S
O278 Eu257 2.430 . S
O278 C264 1.259 . S
O279 Eu257 2.670 . S
O279 C264 1.270 . S
O279 Eu267 2.355 1_654 S
O280 Eu257 2.394 1_455 S
O280 C265 1.251 . S
O281 C265 1.251 . S
O281 Eu267 2.374 1_554 S
O282 C266 1.257 . S
O282 Eu267 2.473 1_655 S
O283 C266 1.260 1_455 S
O283 Eu267 2.480 . S
O284 Eu267 2.430 . S
O284 C274 1.259 1_556 S
O285 Eu257 2.355 1_455 S
O285 Eu267 2.670 1_554 S
O285 C274 1.270 . S
O286 Eu267 2.394 1_655 S
O286 C275 1.251 . S
O287 Eu257 2.374 . S
O287 C275 1.251 1_554 S
H288 C259 0.931 1_655 S
H289 C260 0.931 . S
H290 C262 0.931 . S
H291 C263 0.931 . S
H292 C269 0.931 . S
H293 C270 0.931 1_455 S
H294 C272 0.931 . S
H295 C273 0.931 . S
C296 Eu297 2.835 . S
C296 C298 1.500 . S
C296 O316 1.257 . S
C296 O317 1.260 . S
Eu297 C296 2.835 . S
Eu297 O316 2.473 . S
Eu297 O317 2.480 . S
Eu297 O318 2.430 1_556 S
Eu297 O319 2.670 1_556 S
Eu297 O320 2.394 . S
Eu297 O325 2.355 1_556 S
Eu297 O327 2.374 1_556 S
C298 C296 1.500 . S
C298 C299 1.377 . S
C298 C303 1.377 . S
C299 C298 1.377 . S
C299 C300 1.395 . S
C299 H328 0.931 . S
C300 C299 1.395 . S
C300 C301 1.383 . S
C300 H329 0.931 . S
C301 C300 1.383 . S
C301 C302 1.394 . S
C302 C301 1.394 . S
C302 C303 1.378 . S
C302 H330 0.931 . S
C303 C298 1.377 . S
C303 C302 1.378 . S
C303 H331 0.931 . S
C304 O318 1.259 . S
C304 O319 1.270 . S
C305 O320 1.251 1_554 S
C305 O321 1.251 . S
C306 Eu307 2.835 . S
C306 C308 1.500 . S
C306 O322 1.257 . S
C306 O323 1.260 . S
Eu307 C306 2.835 . S
Eu307 O319 2.355 . S
Eu307 O321 2.374 . S
Eu307 O322 2.473 . S
Eu307 O323 2.480 . S
Eu307 O324 2.430 . S
Eu307 O325 2.670 . S
Eu307 O326 2.394 . S
C308 C306 1.500 . S
C308 C309 1.377 . S
C308 C313 1.377 . S
C309 C308 1.377 . S
C309 C310 1.395 . S
C309 H332 0.931 . S
C310 C309 1.395 . S
C310 C311 1.383 . S
C310 H333 0.931 . S
C311 C310 1.383 . S
C311 C312 1.394 . S
C312 C311 1.394 . S
C312 C313 1.378 . S
C312 H334 0.931 . S
C313 C308 1.377 . S
C313 C312 1.378 . S
C313 H335 0.931 . S
C314 O324 1.259 . S
C314 O325 1.270 . S
C315 O326 1.251 . S
C315 O327 1.251 . S
O316 C296 1.257 . S
O316 Eu297 2.473 . S
O317 C296 1.260 . S
O317 Eu297 2.480 . S
O318 Eu297 2.430 1_554 S
O318 C304 1.259 . S
O319 Eu297 2.670 1_554 S
O319 C304 1.270 . S
O319 Eu307 2.355 . S
O320 Eu297 2.394 . S
O320 C305 1.251 1_556 S
O321 C305 1.251 . S
O321 Eu307 2.374 . S
O322 C306 1.257 . S
O322 Eu307 2.473 . S
O323 C306 1.260 . S
O323 Eu307 2.480 . S
O324 Eu307 2.430 . S
O324 C314 1.259 . S
O325 Eu297 2.355 1_554 S
O325 Eu307 2.670 . S
O325 C314 1.270 . S
O326 Eu307 2.394 . S
O326 C315 1.251 . S
O327 Eu297 2.374 1_554 S
O327 C315 1.251 . S
H328 C299 0.931 . S
H329 C300 0.931 . S
H330 C302 0.931 . S
H331 C303 0.931 . S
H332 C309 0.931 . S
H333 C310 0.931 . S
H334 C312 0.931 . S
H335 C313 0.931 . S
C336 Eu337 2.835 . S
C336 C338 1.500 . S
C336 O356 1.257 . S
C336 O357 1.260 . S
Eu337 C336 2.835 . S
Eu337 O356 2.473 . S
Eu337 O357 2.480 . S
Eu337 O358 2.430 . S
Eu337 O359 2.670 . S
Eu337 O360 2.394 . S
Eu337 O365 2.355 . S
Eu337 O367 2.374 . S
C338 C336 1.500 . S
C338 C339 1.377 . S
C338 C343 1.377 . S
C339 C338 1.377 . S
C339 C340 1.395 . S
C339 H368 0.931 . S
C340 C339 1.395 . S
C340 C341 1.383 . S
C340 H369 0.931 . S
C341 C340 1.383 . S
C341 C342 1.394 . S
C342 C341 1.394 . S
C342 C343 1.378 . S
C342 H370 0.931 . S
C343 C338 1.377 . S
C343 C342 1.378 . S
C343 H371 0.931 . S
C344 O358 1.259 . S
C344 O359 1.270 . S
C345 O360 1.251 . S
C345 O361 1.251 . S
C346 Eu347 2.835 . S
C346 C348 1.500 . S
C346 O362 1.257 . S
C346 O363 1.260 . S
Eu347 C346 2.835 . S
Eu347 O359 2.355 . S
Eu347 O361 2.374 . S
Eu347 O362 2.473 . S
Eu347 O363 2.480 . S
Eu347 O364 2.430 . S
Eu347 O365 2.670 . S
Eu347 O366 2.394 . S
C348 C346 1.500 . S
C348 C349 1.377 . S
C348 C353 1.377 . S
C349 C348 1.377 . S
C349 C350 1.395 . S
C349 H372 0.931 . S
C350 C349 1.395 . S
C350 C351 1.383 . S
C350 H373 0.931 . S
C351 C350 1.383 . S
C351 C352 1.394 . S
C352 C351 1.394 . S
C352 C353 1.378 . S
C352 H374 0.931 . S
C353 C348 1.377 . S
C353 C352 1.378 . S
C353 H375 0.931 . S
C354 O364 1.259 . S
C354 O365 1.270 . S
C355 O366 1.251 . S
C355 O367 1.251 . S
O356 C336 1.257 . S
O356 Eu337 2.473 . S
O357 C336 1.260 . S
O357 Eu337 2.480 . S
O358 Eu337 2.430 . S
O358 C344 1.259 . S
O359 Eu337 2.670 . S
O359 C344 1.270 . S
O359 Eu347 2.355 . S
O360 Eu337 2.394 . S
O360 C345 1.251 . S
O361 C345 1.251 . S
O361 Eu347 2.374 . S
O362 C346 1.257 . S
O362 Eu347 2.473 . S
O363 C346 1.260 . S
O363 Eu347 2.480 . S
O364 Eu347 2.430 . S
O364 C354 1.259 . S
O365 Eu337 2.355 . S
O365 Eu347 2.670 . S
O365 C354 1.270 . S
O366 Eu347 2.394 . S
O366 C355 1.251 . S
O367 Eu337 2.374 . S
O367 C355 1.251 . S
H368 C339 0.931 . S
H369 C340 0.931 . S
H370 C342 0.931 . S
H371 C343 0.931 . S
H372 C349 0.931 . S
H373 C350 0.931 . S
H374 C352 0.931 . S
H375 C353 0.931 . S
C376 Eu377 2.835 . S
C376 C378 1.500 . S
C376 O396 1.257 . S
C376 O397 1.260 . S
Eu377 C376 2.835 . S
Eu377 O396 2.473 . S
Eu377 O397 2.480 . S
Eu377 O398 2.430 . S
Eu377 O399 2.670 . S
Eu377 O400 2.394 . S
Eu377 O405 2.355 . S
Eu377 O407 2.374 . S
C378 C376 1.500 . S
C378 C379 1.377 . S
C378 C383 1.377 . S
C379 C378 1.377 . S
C379 C380 1.395 . S
C379 H408 0.931 . S
C380 C379 1.395 . S
C380 C381 1.383 . S
C380 H409 0.931 . S
C381 C380 1.383 . S
C381 C382 1.394 . S
C382 C381 1.394 . S
C382 C383 1.378 . S
C382 H410 0.931 . S
C383 C378 1.377 . S
C383 C382 1.378 . S
C383 H411 0.931 . S
C384 O398 1.259 . S
C384 O399 1.270 . S
C385 O400 1.251 . S
C385 O401 1.251 . S
C386 Eu387 2.835 . S
C386 C388 1.500 . S
C386 O402 1.257 . S
C386 O403 1.260 . S
Eu387 C386 2.835 . S
Eu387 O399 2.355 . S
Eu387 O401 2.374 . S
Eu387 O402 2.473 . S
Eu387 O403 2.480 . S
Eu387 O404 2.430 . S
Eu387 O405 2.670 . S
Eu387 O406 2.394 . S
C388 C386 1.500 . S
C388 C389 1.377 . S
C388 C393 1.377 . S
C389 C388 1.377 . S
C389 C390 1.395 . S
C389 H412 0.931 . S
C390 C389 1.395 . S
C390 C391 1.383 . S
C390 H413 0.931 . S
C391 C390 1.383 . S
C391 C392 1.394 . S
C392 C391 1.394 . S
C392 C393 1.378 . S
C392 H414 0.931 . S
C393 C388 1.377 . S
C393 C392 1.378 . S
C393 H415 0.931 . S
C394 O404 1.259 . S
C394 O405 1.270 . S
C395 O406 1.251 . S
C395 O407 1.251 . S
O396 C376 1.257 . S
O396 Eu377 2.473 . S
O397 C376 1.260 . S
O397 Eu377 2.480 . S
O398 Eu377 2.430 . S
O398 C384 1.259 . S
O399 Eu377 2.670 . S
O399 C384 1.270 . S
O399 Eu387 2.355 . S
O400 Eu377 2.394 . S
O400 C385 1.251 . S
O401 C385 1.251 . S
O401 Eu387 2.374 . S
O402 C386 1.257 . S
O402 Eu387 2.473 . S
O403 C386 1.260 . S
O403 Eu387 2.480 . S
O404 Eu387 2.430 . S
O404 C394 1.259 . S
O405 Eu377 2.355 . S
O405 Eu387 2.670 . S
O405 C394 1.270 . S
O406 Eu387 2.394 . S
O406 C395 1.251 . S
O407 Eu377 2.374 . S
O407 C395 1.251 . S
H408 C379 0.931 . S
H409 C380 0.931 . S
H410 C382 0.931 . S
H411 C383 0.931 . S
H412 C389 0.931 . S
H413 C390 0.931 . S
H414 C392 0.931 . S
H415 C393 0.931 . S
C416 Eu417 2.835 . S
C416 C418 1.500 . S
C416 O436 1.257 . S
C416 O437 1.260 . S
Eu417 C416 2.835 . S
Eu417 O436 2.473 . S
Eu417 O437 2.480 . S
Eu417 O438 2.430 . S
Eu417 O439 2.670 . S
Eu417 O440 2.394 . S
Eu417 O445 2.355 . S
Eu417 O447 2.374 . S
C418 C416 1.500 . S
C418 C419 1.377 . S
C418 C423 1.377 . S
C419 C418 1.377 . S
C419 C420 1.395 . S
C419 H448 0.931 . S
C420 C419 1.395 . S
C420 C421 1.383 . S
C420 H449 0.931 . S
C421 C420 1.383 . S
C421 C422 1.394 . S
C422 C421 1.394 . S
C422 C423 1.378 . S
C422 H450 0.931 . S
C423 C418 1.377 . S
C423 C422 1.378 . S
C423 H451 0.931 . S
C424 O438 1.259 . S
C424 O439 1.270 . S
C425 O440 1.251 . S
C425 O441 1.251 . S
C426 Eu427 2.835 . S
C426 C428 1.500 . S
C426 O442 1.257 . S
C426 O443 1.260 . S
Eu427 C426 2.835 . S
Eu427 O439 2.355 . S
Eu427 O441 2.374 . S
Eu427 O442 2.473 . S
Eu427 O443 2.480 . S
Eu427 O444 2.430 . S
Eu427 O445 2.670 . S
Eu427 O446 2.394 . S
C428 C426 1.500 . S
C428 C429 1.377 . S
C428 C433 1.377 . S
C429 C428 1.377 . S
C429 C430 1.395 . S
C429 H452 0.931 . S
C430 C429 1.395 . S
C430 C431 1.383 . S
C430 H453 0.931 . S
C431 C430 1.383 . S
C431 C432 1.394 . S
C432 C431 1.394 . S
C432 C433 1.378 . S
C432 H454 0.931 . S
C433 C428 1.377 . S
C433 C432 1.378 . S
C433 H455 0.931 . S
C434 O444 1.259 . S
C434 O445 1.270 . S
C435 O446 1.251 . S
C435 O447 1.251 . S
O436 C416 1.257 . S
O436 Eu417 2.473 . S
O437 C416 1.260 . S
O437 Eu417 2.480 . S
O438 Eu417 2.430 . S
O438 C424 1.259 . S
O439 Eu417 2.670 . S
O439 C424 1.270 . S
O439 Eu427 2.355 . S
O440 Eu417 2.394 . S
O440 C425 1.251 . S
O441 C425 1.251 . S
O441 Eu427 2.374 . S
O442 C426 1.257 . S
O442 Eu427 2.473 . S
O443 C426 1.260 . S
O443 Eu427 2.480 . S
O444 Eu427 2.430 . S
O444 C434 1.259 . S
O445 Eu417 2.355 . S
O445 Eu427 2.670 . S
O445 C434 1.270 . S
O446 Eu427 2.394 . S
O446 C435 1.251 . S
O447 Eu417 2.374 . S
O447 C435 1.251 . S
H448 C419 0.931 . S
H449 C420 0.931 . S
H450 C422 0.931 . S
H451 C423 0.931 . S
H452 C429 0.931 . S
H453 C430 0.931 . S
H454 C432 0.931 . S
H455 C433 0.931 . S
C456 Eu457 2.835 . S
C456 C458 1.500 . S
C456 O476 1.257 . S
C456 O477 1.260 . S
Eu457 C456 2.835 . S
Eu457 O476 2.473 . S
Eu457 O477 2.480 . S
Eu457 O478 2.430 . S
Eu457 O479 2.670 . S
Eu457 O480 2.394 . S
Eu457 O485 2.355 . S
Eu457 O487 2.374 . S
C458 C456 1.500 . S
C458 C459 1.377 . S
C458 C463 1.377 . S
C459 C458 1.377 . S
C459 C460 1.395 . S
C459 H488 0.931 . S
C460 C459 1.395 . S
C460 C461 1.383 . S
C460 H489 0.931 . S
C461 C460 1.383 . S
C461 C462 1.394 . S
C462 C461 1.394 . S
C462 C463 1.378 . S
C462 H490 0.931 . S
C463 C458 1.377 . S
C463 C462 1.378 . S
C463 H491 0.931 . S
C464 O478 1.259 . S
C464 O479 1.270 . S
C465 O480 1.251 . S
C465 O481 1.251 . S
C466 Eu467 2.835 . S
C466 C468 1.500 . S
C466 O482 1.257 . S
C466 O483 1.260 . S
Eu467 C466 2.835 . S
Eu467 O479 2.355 . S
Eu467 O481 2.374 . S
Eu467 O482 2.473 . S
Eu467 O483 2.480 . S
Eu467 O484 2.430 . S
Eu467 O485 2.670 . S
Eu467 O486 2.394 . S
C468 C466 1.500 . S
C468 C469 1.377 . S
C468 C473 1.377 . S
C469 C468 1.377 . S
C469 C470 1.395 . S
C469 H492 0.931 . S
C470 C469 1.395 . S
C470 C471 1.383 . S
C470 H493 0.931 . S
C471 C470 1.383 . S
C471 C472 1.394 . S
C472 C471 1.394 . S
C472 C473 1.378 . S
C472 H494 0.931 . S
C473 C468 1.377 . S
C473 C472 1.378 . S
C473 H495 0.931 . S
C474 O484 1.259 . S
C474 O485 1.270 . S
C475 O486 1.251 . S
C475 O487 1.251 . S
O476 C456 1.257 . S
O476 Eu457 2.473 . S
O477 C456 1.260 . S
O477 Eu457 2.480 . S
O478 Eu457 2.430 . S
O478 C464 1.259 . S
O479 Eu457 2.670 . S
O479 C464 1.270 . S
O479 Eu467 2.355 . S
O480 Eu457 2.394 . S
O480 C465 1.251 . S
O481 C465 1.251 . S
O481 Eu467 2.374 . S
O482 C466 1.257 . S
O482 Eu467 2.473 . S
O483 C466 1.260 . S
O483 Eu467 2.480 . S
O484 Eu467 2.430 . S
O484 C474 1.259 . S
O485 Eu457 2.355 . S
O485 Eu467 2.670 . S
O485 C474 1.270 . S
O486 Eu467 2.394 . S
O486 C475 1.251 . S
O487 Eu457 2.374 . S
O487 C475 1.251 . S
H488 C459 0.931 . S
H489 C460 0.931 . S
H490 C462 0.931 . S
H491 C463 0.931 . S
H492 C469 0.931 . S
H493 C470 0.931 . S
H494 C472 0.931 . S
H495 C473 0.931 . S
C496 Eu497 2.835 . S
C496 C498 1.500 . S
C496 O516 1.257 . S
C496 O517 1.260 . S
Eu497 C496 2.835 . S
Eu497 O516 2.473 . S
Eu497 O517 2.480 . S
Eu497 O518 2.430 . S
Eu497 O519 2.670 . S
Eu497 O520 2.394 . S
Eu497 O525 2.355 . S
Eu497 O527 2.374 . S
C498 C496 1.500 . S
C498 C499 1.377 . S
C498 C503 1.377 . S
C499 C498 1.377 . S
C499 C500 1.395 . S
C499 H528 0.931 . S
C500 C499 1.395 . S
C500 C501 1.383 . S
C500 H529 0.931 . S
C501 C500 1.383 . S
C501 C502 1.394 . S
C502 C501 1.394 . S
C502 C503 1.378 . S
C502 H530 0.931 . S
C503 C498 1.377 . S
C503 C502 1.378 . S
C503 H531 0.931 . S
C504 O518 1.259 . S
C504 O519 1.270 . S
C505 O520 1.251 . S
C505 O521 1.251 . S
C506 Eu507 2.835 . S
C506 C508 1.500 . S
C506 O522 1.257 . S
C506 O523 1.260 . S
Eu507 C506 2.835 . S
Eu507 O519 2.355 . S
Eu507 O521 2.374 . S
Eu507 O522 2.473 . S
Eu507 O523 2.480 . S
Eu507 O524 2.430 . S
Eu507 O525 2.670 . S
Eu507 O526 2.394 . S
C508 C506 1.500 . S
C508 C509 1.377 . S
C508 C513 1.377 . S
C509 C508 1.377 . S
C509 C510 1.395 . S
C509 H532 0.931 . S
C510 C509 1.395 . S
C510 C511 1.383 . S
C510 H533 0.931 . S
C511 C510 1.383 . S
C511 C512 1.394 . S
C512 C511 1.394 . S
C512 C513 1.378 . S
C512 H534 0.931 . S
C513 C508 1.377 . S
C513 C512 1.378 . S
C513 H535 0.931 . S
C514 O524 1.259 . S
C514 O525 1.270 . S
C515 O526 1.251 . S
C515 O527 1.251 . S
O516 C496 1.257 . S
O516 Eu497 2.473 . S
O517 C496 1.260 . S
O517 Eu497 2.480 . S
O518 Eu497 2.430 . S
O518 C504 1.259 . S
O519 Eu497 2.670 . S
O519 C504 1.270 . S
O519 Eu507 2.355 . S
O520 Eu497 2.394 . S
O520 C505 1.251 . S
O521 C505 1.251 . S
O521 Eu507 2.374 . S
O522 C506 1.257 . S
O522 Eu507 2.473 . S
O523 C506 1.260 . S
O523 Eu507 2.480 . S
O524 Eu507 2.430 . S
O524 C514 1.259 . S
O525 Eu497 2.355 . S
O525 Eu507 2.670 . S
O525 C514 1.270 . S
O526 Eu507 2.394 . S
O526 C515 1.251 . S
O527 Eu497 2.374 . S
O527 C515 1.251 . S
H528 C499 0.931 . S
H529 C500 0.931 . S
H530 C502 0.931 . S
H531 C503 0.931 . S
H532 C509 0.931 . S
H533 C510 0.931 . S
H534 C512 0.931 . S
H535 C513 0.931 . S
C536 Eu537 2.835 . S
C536 C538 1.500 . S
C536 O556 1.257 . S
C536 O557 1.260 . S
Eu537 C536 2.835 . S
Eu537 O556 2.473 . S
Eu537 O557 2.480 . S
Eu537 O558 2.430 . S
Eu537 O559 2.670 . S
Eu537 O560 2.394 . S
Eu537 O565 2.355 . S
Eu537 O567 2.374 . S
C538 C536 1.500 . S
C538 C539 1.377 . S
C538 C543 1.377 . S
C539 C538 1.377 . S
C539 C540 1.395 . S
C539 H568 0.931 . S
C540 C539 1.395 . S
C540 C541 1.383 . S
C540 H569 0.931 . S
C541 C540 1.383 . S
C541 C542 1.394 . S
C542 C541 1.394 . S
C542 C543 1.378 . S
C542 H570 0.931 . S
C543 C538 1.377 . S
C543 C542 1.378 . S
C543 H571 0.931 . S
C544 O558 1.259 . S
C544 O559 1.270 . S
C545 O560 1.251 . S
C545 O561 1.251 . S
C546 Eu547 2.835 . S
C546 C548 1.500 . S
C546 O562 1.257 . S
C546 O563 1.260 . S
Eu547 C546 2.835 . S
Eu547 O559 2.355 . S
Eu547 O561 2.374 . S
Eu547 O562 2.473 . S
Eu547 O563 2.480 . S
Eu547 O564 2.430 . S
Eu547 O565 2.670 . S
Eu547 O566 2.394 . S
C548 C546 1.500 . S
C548 C549 1.377 . S
C548 C553 1.377 . S
C549 C548 1.377 . S
C549 C550 1.395 . S
C549 H572 0.931 . S
C550 C549 1.395 . S
C550 C551 1.383 . S
C550 H573 0.931 . S
C551 C550 1.383 . S
C551 C552 1.394 . S
C552 C551 1.394 . S
C552 C553 1.378 . S
C552 H574 0.931 . S
C553 C548 1.377 . S
C553 C552 1.378 . S
C553 H575 0.931 . S
C554 O564 1.259 . S
C554 O565 1.270 . S
C555 O566 1.251 . S
C555 O567 1.251 . S
O556 C536 1.257 . S
O556 Eu537 2.473 . S
O557 C536 1.260 . S
O557 Eu537 2.480 . S
O558 Eu537 2.430 . S
O558 C544 1.259 . S
O559 Eu537 2.670 . S
O559 C544 1.270 . S
O559 Eu547 2.355 . S
O560 Eu537 2.394 . S
O560 C545 1.251 . S
O561 C545 1.251 . S
O561 Eu547 2.374 . S
O562 C546 1.257 . S
O562 Eu547 2.473 . S
O563 C546 1.260 . S
O563 Eu547 2.480 . S
O564 Eu547 2.430 . S
O564 C554 1.259 . S
O565 Eu537 2.355 . S
O565 Eu547 2.670 . S
O565 C554 1.270 . S
O566 Eu547 2.394 . S
O566 C555 1.251 . S
O567 Eu537 2.374 . S
O567 C555 1.251 . S
H568 C539 0.931 . S
H569 C540 0.931 . S
H570 C542 0.931 . S
H571 C543 0.931 . S
H572 C549 0.931 . S
H573 C550 0.931 . S
H574 C552 0.931 . S
H575 C553 0.931 . S
C576 C577 1.349 . S
C576 C578 1.327 . S
C576 H601 0.950 . S
C577 C576 1.349 . S
C577 C593 1.349 . S
C578 C576 1.327 . S
C578 C597 1.429 . S
C578 H602 0.950 . S
C579 C596 1.574 . S
C579 C598 1.368 . S
C579 H603 0.949 . S
H580 C584 0.949 . S
C581 C582 1.349 . S
C581 C583 1.327 . S
C581 H604 0.950 . S
C582 C581 1.349 . S
C582 C594 1.349 . S
C583 C581 1.327 . S
C583 C599 1.429 . S
C583 H605 0.950 . S
C584 H580 0.949 . S
C584 C592 1.574 . S
C584 C600 1.368 . S
H585 C593 0.950 . S
H586 C591 0.950 . S
H587 C592 0.949 . S
H588 C594 0.950 . S
H589 C595 0.950 . S
H590 C596 0.949 . S
C591 H586 0.950 . S
C591 C593 1.327 . S
C591 C597 1.429 . S
C592 C584 1.574 . S
C592 H587 0.949 . S
C592 C598 1.368 . S
C593 C577 1.349 . S
C593 H585 0.950 . S
C593 C591 1.327 . S
C594 C582 1.349 . S
C594 H588 0.950 . S
C594 C595 1.327 . S
C595 H589 0.950 . S
C595 C594 1.327 . S
C595 C599 1.429 . S
C596 C579 1.574 . S
C596 H590 0.949 . S
C596 C600 1.368 . S
C597 C578 1.429 . S
C597 C591 1.429 . S
C597 C598 1.523 . S
C598 C579 1.368 . S
C598 C592 1.368 . S
C598 C597 1.523 . S
C599 C583 1.429 . S
C599 C595 1.429 . S
C599 C600 1.523 . S
C600 C584 1.368 . S
C600 C596 1.368 . S
C600 C599 1.523 . S
H601 C576 0.950 . S
H602 C578 0.950 . S
H603 C579 0.949 . S
H604 C581 0.950 . S
H605 C583 0.950 . S
C606 C607 1.349 . S
C606 C608 1.327 . S
C606 H631 0.950 . S
C607 C606 1.349 . S
C607 C623 1.349 . S
C608 C606 1.327 . S
C608 C627 1.429 . S
C608 H632 0.950 . S
C609 C626 1.574 . S
C609 C628 1.368 . S
C609 H633 0.949 . S
H610 C614 0.949 . S
C611 C612 1.349 . S
C611 C613 1.327 . S
C611 H634 0.950 . S
C612 C611 1.349 . S
C612 C624 1.349 . S
C613 C611 1.327 . S
C613 C629 1.429 . S
C613 H635 0.950 . S
C614 H610 0.949 . S
C614 C622 1.574 . S
C614 C630 1.368 . S
H615 C623 0.950 . S
H616 C621 0.950 . S
H617 C622 0.949 . S
H618 C624 0.950 . S
H619 C625 0.950 . S
H620 C626 0.949 . S
C621 H616 0.950 . S
C621 C623 1.327 . S
C621 C627 1.429 . S
C622 C614 1.574 . S
C622 H617 0.949 . S
C622 C628 1.368 . S
C623 C607 1.349 . S
C623 H615 0.950 . S
C623 C621 1.327 . S
C624 C612 1.349 . S
C624 H618 0.950 . S
C624 C625 1.327 . S
C625 H619 0.950 . S
C625 C624 1.327 . S
C625 C629 1.429 . S
C626 C609 1.574 . S
C626 H620 0.949 . S
C626 C630 1.368 . S
C627 C608 1.429 . S
C627 C621 1.429 . S
C627 C628 1.523 . S
C628 C609 1.368 . S
C628 C622 1.368 . S
C628 C627 1.523 . S
C629 C613 1.429 . S
C629 C625 1.429 . S
C629 C630 1.523 . S
C630 C614 1.368 . S
C630 C626 1.368 . S
C630 C629 1.523 . S
H631 C606 0.950 . S
H632 C608 0.950 . S
H633 C609 0.949 . S
H634 C611 0.950 . S
H635 C613 0.950 . S
C636 C637 1.349 . S
C636 C638 1.327 . S
C636 H661 0.950 . S
C637 C636 1.349 . S
C637 C653 1.349 . S
C638 C636 1.327 . S
C638 C657 1.429 . S
C638 H662 0.950 . S
C639 C656 1.574 . S
C639 C658 1.368 . S
C639 H663 0.949 . S
H640 C644 0.949 . S
C641 C642 1.349 . S
C641 C643 1.327 . S
C641 H664 0.925 1_554 S
C642 C641 1.349 . S
C642 C654 1.349 . S
C643 C641 1.327 . S
C643 C659 1.429 . S
C643 H665 0.950 . S
C644 H640 0.949 . S
C644 C652 1.574 . S
C644 C660 1.368 . S
H645 C653 0.950 . S
H646 C651 0.950 . S
H647 C652 0.949 . S
H648 C654 0.950 . S
H649 C655 0.950 . S
H650 C656 0.949 . S
C651 H646 0.950 . S
C651 C653 1.327 . S
C651 C657 1.429 . S
C652 C644 1.574 . S
C652 H647 0.949 . S
C652 C658 1.368 . S
C653 C637 1.349 . S
C653 H645 0.950 . S
C653 C651 1.327 . S
C654 C642 1.349 . S
C654 H648 0.950 . S
C654 C655 1.327 . S
C655 H649 0.950 . S
C655 C654 1.327 . S
C655 C659 1.429 . S
C656 C639 1.574 . S
C656 H650 0.949 . S
C656 C660 1.368 . S
C657 C638 1.429 . S
C657 C651 1.429 . S
C657 C658 1.523 . S
C658 C639 1.368 . S
C658 C652 1.368 . S
C658 C657 1.523 . S
C659 C643 1.429 . S
C659 C655 1.429 . S
C659 C660 1.523 . S
C660 C644 1.368 . S
C660 C656 1.368 . S
C660 C659 1.523 . S
H661 C636 0.950 . S
H662 C638 0.950 . S
H663 C639 0.949 . S
H664 C641 0.925 1_556 S
H665 C643 0.950 . S
C666 C667 1.349 . S
C666 C668 1.327 . S
C666 H691 0.950 . S
C667 C666 1.349 . S
C667 C683 1.349 . S
C668 C666 1.327 . S
C668 C687 1.429 . S
C668 H692 0.950 . S
C669 C686 1.569 1_556 S
C669 C688 1.368 . S
C669 H693 0.949 1_556 S
H670 C674 0.949 . S
C671 C672 1.383 . S
C671 C673 1.327 . S
C671 H694 0.950 . S
C672 C671 1.383 . S
C672 C684 1.309 1_554 S
C673 C671 1.327 . S
C673 C689 1.429 1_554 S
C673 H695 0.950 . S
C674 H670 0.949 . S
C674 C682 1.574 . S
C674 C690 1.368 . S
H675 C683 0.950 . S
H676 C681 0.950 . S
H677 C682 0.949 . S
H678 C684 0.950 . S
H679 C685 0.950 . S
H680 C686 0.987 . S
C681 H676 0.950 . S
C681 C683 1.327 . S
C681 C687 1.429 . S
C682 C674 1.574 . S
C682 H677 0.949 . S
C682 C688 1.368 . S
C683 C667 1.349 . S
C683 H675 0.950 . S
C683 C681 1.327 . S
C684 C672 1.309 1_556 S
C684 H678 0.950 . S
C684 C685 1.327 . S
C685 H679 0.950 . S
C685 C684 1.327 . S
C685 C689 1.429 . S
C686 C669 1.569 1_554 S
C686 H680 0.987 . S
C686 C690 1.333 1_554 S
C687 C668 1.429 . S
C687 C681 1.429 . S
C687 C688 1.523 . S
C688 C669 1.368 . S
C688 C682 1.368 . S
C688 C687 1.523 . S
C689 C673 1.429 1_556 S
C689 C685 1.429 . S
C689 C690 1.523 . S
C690 C674 1.368 . S
C690 C686 1.333 1_556 S
C690 C689 1.523 . S
H691 C666 0.950 . S
H692 C668 0.950 . S
H693 C669 0.949 1_554 S
H694 C671 0.950 . S
H695 C673 0.950 . S
C696 C697 1.349 . S
C696 C698 1.327 . S
C696 H721 0.950 . S
C697 C696 1.349 . S
C697 C713 1.349 . S
C698 C696 1.327 . S
C698 C717 1.429 . S
C698 H722 0.950 . S
C699 C716 1.574 . S
C699 C718 1.368 . S
C699 H723 0.949 . S
H700 C704 0.949 . S
C701 C702 1.349 . S
C701 C703 1.327 . S
C701 H724 0.931 1_556 S
C702 C701 1.349 . S
C702 C714 1.349 . S
C703 C701 1.327 . S
C703 C719 1.429 . S
C703 H725 0.950 . S
C704 H700 0.949 . S
C704 C712 1.574 . S
C704 C720 1.368 . S
H705 C713 0.950 . S
H706 C711 0.950 . S
H707 C712 0.949 . S
H708 C714 0.950 . S
H709 C715 0.950 . S
H710 C716 0.949 . S
C711 H706 0.950 . S
C711 C713 1.327 . S
C711 C717 1.429 . S
C712 C704 1.574 . S
C712 H707 0.949 . S
C712 C718 1.368 . S
C713 C697 1.349 . S
C713 H705 0.950 . S
C713 C711 1.327 . S
C714 C702 1.349 . S
C714 H708 0.950 . S
C714 C715 1.327 . S
C715 H709 0.950 . S
C715 C714 1.327 . S
C715 C719 1.429 . S
C716 C699 1.574 . S
C716 H710 0.949 . S
C716 C720 1.368 . S
C717 C698 1.429 . S
C717 C711 1.429 . S
C717 C718 1.523 . S
C718 C699 1.368 . S
C718 C712 1.368 . S
C718 C717 1.523 . S
C719 C703 1.429 . S
C719 C715 1.429 . S
C719 C720 1.523 . S
C720 C704 1.368 . S
C720 C716 1.368 . S
C720 C719 1.523 . S
H721 C696 0.950 . S
H722 C698 0.950 . S
H723 C699 0.949 . S
H724 C701 0.931 1_554 S
H725 C703 0.950 . S
C726 C727 1.349 . S
C726 C728 1.327 . S
C726 H751 0.950 . S
C727 C726 1.349 . S
C727 C743 1.349 . S
C728 C726 1.327 . S
C728 C747 1.429 . S
C728 H752 0.950 . S
C729 C746 1.574 . S
C729 C748 1.368 1_554 S
C729 H753 0.949 . S
H730 C734 0.949 . S
C731 C732 1.349 . S
C731 C733 1.327 . S
C731 H754 0.950 . S
C732 C731 1.349 . S
C732 C744 1.349 1_554 S
C733 C731 1.327 . S
C733 C749 1.374 1_554 S
C733 H755 0.950 . S
C734 H730 0.949 . S
C734 C742 1.574 . S
C734 C750 1.368 . S
H735 C743 0.950 1_554 S
H736 C741 0.950 1_554 S
H737 C742 0.949 . S
H738 C744 0.950 . S
H739 C745 0.950 . S
H740 C746 0.949 . S
C741 H736 0.950 1_556 S
C741 C743 1.327 . S
C741 C747 1.429 . S
C742 C734 1.574 . S
C742 H737 0.949 . S
C742 C748 1.368 . S
C743 C727 1.349 . S
C743 H735 0.950 1_556 S
C743 C741 1.327 . S
C744 C732 1.349 1_556 S
C744 H738 0.950 . S
C744 C745 1.327 . S
C745 H739 0.950 . S
C745 C744 1.327 . S
C745 C749 1.470 . S
C746 C729 1.574 . S
C746 H740 0.949 . S
C746 C750 1.368 1_554 S
C747 C728 1.429 . S
C747 C741 1.429 . S
C747 C748 1.523 . S
C748 C729 1.368 1_556 S
C748 C742 1.368 . S
C748 C747 1.523 . S
C749 C733 1.374 1_556 S
C749 C745 1.470 . S
C749 C750 1.537 . S
C750 C734 1.368 . S
C750 C746 1.368 1_556 S
C750 C749 1.537 . S
H751 C726 0.950 . S
H752 C728 0.950 . S
H753 C729 0.949 . S
H754 C731 0.950 . S
H755 C733 0.950 . S
C756 C757 1.349 . S
C756 C758 1.327 . S
C756 H781 0.950 . S
C757 C756 1.349 . S
C757 C773 1.349 . S
C758 C756 1.327 . S
C758 C777 1.429 . S
C758 H782 0.950 . S
C759 C776 1.574 . S
C759 C778 1.368 . S
C759 H783 0.951 . S
H760 C764 0.949 . S
C761 C762 1.349 1_554 S
C761 C763 1.327 . S
C761 H784 0.950 . S
C762 C761 1.349 1_556 S
C762 C774 1.349 . S
C763 C761 1.327 . S
C763 C779 1.429 1_554 S
C763 H785 0.950 . S
C764 H760 0.949 . S
C764 C772 1.574 . S
C764 C780 1.368 . S
H765 C773 0.950 . S
H766 C771 0.950 . S
H767 C772 0.949 . S
H768 C774 0.950 . S
H769 C775 0.950 . S
H770 C776 0.949 1_554 S
C771 H766 0.950 . S
C771 C773 1.327 . S
C771 C777 1.429 . S
C772 C764 1.574 . S
C772 H767 0.949 . S
C772 C778 1.368 . S
C773 C757 1.349 . S
C773 H765 0.950 . S
C773 C771 1.327 . S
C774 C762 1.349 . S
C774 H768 0.950 . S
C774 C775 1.327 . S
C775 H769 0.950 . S
C775 C774 1.327 . S
C775 C779 1.429 . S
C776 C759 1.574 . S
C776 H770 0.949 1_556 S
C776 C780 1.368 . S
C777 C758 1.429 . S
C777 C771 1.429 . S
C777 C778 1.523 . S
C778 C759 1.368 . S
C778 C772 1.368 . S
C778 C777 1.523 . S
C779 C763 1.429 1_556 S
C779 C775 1.429 . S
C779 C780 1.523 . S
C780 C764 1.368 . S
C780 C776 1.368 . S
C780 C779 1.523 . S
H781 C756 0.950 . S
H782 C758 0.950 . S
H783 C759 0.951 . S
H784 C761 0.950 . S
H785 C763 0.950 . S
C786 C787 1.349 . S
C786 C788 1.327 . S
C786 H811 0.950 . S
C787 C786 1.349 . S
C787 C803 1.349 . S
C788 C786 1.327 . S
C788 C807 1.429 . S
C788 H812 0.950 . S
C789 C806 1.574 . S
C789 C808 1.368 . S
C789 H813 0.949 . S
H790 C794 0.949 1_554 S
C791 C792 1.349 . S
C791 C793 1.327 . S
C791 H814 0.950 . S
C792 C791 1.349 . S
C792 C804 1.349 1_556 S
C793 C791 1.327 . S
C793 C809 1.429 . S
C793 H815 0.950 . S
C794 H790 0.949 1_556 S
C794 C802 1.574 . S
C794 C810 1.368 . S
H795 C803 0.950 . S
H796 C801 0.950 . S
H797 C802 0.949 . S
H798 C804 0.950 . S
H799 C805 0.928 1_554 S
H800 C806 0.949 . S
C801 H796 0.950 . S
C801 C803 1.327 . S
C801 C807 1.429 . S
C802 C794 1.574 . S
C802 H797 0.949 . S
C802 C808 1.368 . S
C803 C787 1.349 . S
C803 H795 0.950 . S
C803 C801 1.327 . S
C804 C792 1.349 1_554 S
C804 H798 0.950 . S
C804 C805 1.321 1_554 S
C805 H799 0.928 1_556 S
C805 C804 1.321 1_556 S
C805 C809 1.456 . S
C806 C789 1.574 . S
C806 H800 0.949 . S
C806 C810 1.368 . S
C807 C788 1.429 . S
C807 C801 1.429 . S
C807 C808 1.523 . S
C808 C789 1.368 . S
C808 C802 1.368 . S
C808 C807 1.523 . S
C809 C793 1.429 . S
C809 C805 1.456 . S
C809 C810 1.523 . S
C810 C794 1.368 . S
C810 C806 1.368 . S
C810 C809 1.523 . S
H811 C786 0.950 . S
H812 C788 0.950 . S
H813 C789 0.949 . S
H814 C791 0.950 . S
H815 C793 0.950 . S
C816 C817 1.349 . S
C816 C818 1.327 . S
C816 H841 0.950 . S
C817 C816 1.349 . S
C817 C833 1.349 1_556 S
C818 C816 1.327 . S
C818 C837 1.429 . S
C818 H842 0.950 . S
C819 C836 1.574 . S
C819 C838 1.368 1_554 S
C819 H843 0.949 . S
H820 C824 0.949 . S
C821 C822 1.349 . S
C821 C823 1.327 . S
C821 H844 0.950 . S
C822 C821 1.349 . S
C822 C834 1.349 1_554 S
C823 C821 1.327 . S
C823 C839 1.429 . S
C823 H845 0.950 . S
C824 H820 0.949 . S
C824 C832 1.574 . S
C824 C840 1.368 1_556 S
H825 C833 0.950 . S
H826 C831 0.950 . S
H827 C832 0.949 . S
H828 C834 0.950 . S
H829 C835 0.950 . S
H830 C836 0.949 . S
C831 H826 0.950 . S
C831 C833 1.327 . S
C831 C837 1.429 1_554 S
C832 C824 1.574 . S
C832 H827 0.949 . S
C832 C838 1.368 . S
C833 C817 1.349 1_554 S
C833 H825 0.950 . S
C833 C831 1.327 . S
C834 C822 1.349 1_556 S
C834 H828 0.950 . S
C834 C835 1.327 . S
C835 H829 0.950 . S
C835 C834 1.327 . S
C835 C839 1.429 1_556 S
C836 C819 1.574 . S
C836 H830 0.949 . S
C836 C840 1.368 . S
C837 C818 1.429 . S
C837 C831 1.429 1_556 S
C837 C838 1.523 . S
C838 C819 1.368 1_556 S
C838 C832 1.368 . S
C838 C837 1.523 . S
C839 C823 1.429 . S
C839 C835 1.429 1_554 S
C839 C840 1.523 . S
C840 C824 1.368 1_554 S
C840 C836 1.368 . S
C840 C839 1.523 . S
H841 C816 0.950 . S
H842 C818 0.950 . S
H843 C819 0.949 . S
H844 C821 0.950 . S
H845 C823 0.950 . S
C846 C847 1.349 . S
C846 C848 1.327 . S
C846 H871 0.950 . S
C847 C846 1.349 . S
C847 C863 1.349 . S
C848 C846 1.327 . S
C848 C867 1.429 . S
C848 H872 0.950 . S
C849 C866 1.574 . S
C849 C868 1.368 . S
C849 H873 0.949 . S
H850 C854 0.949 . S
C851 C852 1.349 . S
C851 C853 1.327 . S
C851 H874 0.974 . S
C852 C851 1.349 . S
C852 C864 1.349 . S
C853 C851 1.327 . S
C853 C869 1.429 . S
C853 H875 0.950 . S
C854 H850 0.949 . S
C854 C862 1.574 . S
C854 C870 1.368 . S
H855 C863 0.950 . S
H856 C861 0.950 . S
H857 C862 0.949 . S
H858 C864 0.950 . S
H859 C865 0.950 . S
H860 C866 0.949 . S
C861 H856 0.950 . S
C861 C863 1.327 . S
C861 C867 1.429 . S
C862 C854 1.574 . S
C862 H857 0.949 . S
C862 C868 1.368 . S
C863 C847 1.349 . S
C863 H855 0.950 . S
C863 C861 1.327 . S
C864 C852 1.349 . S
C864 H858 0.950 . S
C864 C865 1.327 . S
C865 H859 0.950 . S
C865 C864 1.327 . S
C865 C869 1.429 . S
C866 C849 1.574 . S
C866 H860 0.949 . S
C866 C870 1.368 . S
C867 C848 1.429 . S
C867 C861 1.429 . S
C867 C868 1.523 . S
C868 C849 1.368 . S
C868 C862 1.368 . S
C868 C867 1.523 . S
C869 C853 1.429 . S
C869 C865 1.429 . S
C869 C870 1.523 . S
C870 C854 1.368 . S
C870 C866 1.368 . S
C870 C869 1.523 . S
H871 C846 0.950 . S
H872 C848 0.950 . S
H873 C849 0.949 . S
H874 C851 0.974 . S
H875 C853 0.950 . S
C876 C877 1.349 . S
C876 C878 1.327 . S
C876 H901 0.950 . S
C877 C876 1.349 . S
C877 C893 1.349 . S
C878 C876 1.327 . S
C878 C897 1.429 . S
C878 H902 0.950 . S
C879 C896 1.574 . S
C879 C898 1.368 . S
C879 H903 0.949 . S
H880 C884 0.949 . S
C881 C882 1.349 . S
C881 C883 1.327 . S
C881 H904 0.950 . S
C882 C881 1.349 . S
C882 C894 1.349 . S
C883 C881 1.327 . S
C883 C899 1.429 . S
C883 H905 0.950 . S
C884 H880 0.949 . S
C884 C892 1.574 . S
C884 C900 1.368 . S
H885 C893 0.950 . S
H886 C891 0.950 . S
H887 C892 0.949 . S
H888 C894 0.950 . S
H889 C895 0.950 . S
H890 C896 0.949 . S
C891 H886 0.950 . S
C891 C893 1.327 . S
C891 C897 1.429 . S
C892 C884 1.574 . S
C892 H887 0.949 . S
C892 C898 1.368 . S
C893 C877 1.349 . S
C893 H885 0.950 . S
C893 C891 1.327 . S
C894 C882 1.349 . S
C894 H888 0.950 . S
C894 C895 1.327 . S
C895 H889 0.950 . S
C895 C894 1.327 . S
C895 C899 1.429 . S
C896 C879 1.574 . S
C896 H890 0.949 . S
C896 C900 1.368 . S
C897 C878 1.429 . S
C897 C891 1.429 . S
C897 C898 1.523 . S
C898 C879 1.368 . S
C898 C892 1.368 . S
C898 C897 1.523 . S
C899 C883 1.429 . S
C899 C895 1.429 . S
C899 C900 1.523 . S
C900 C884 1.368 . S
C900 C896 1.368 . S
C900 C899 1.523 . S
H901 C876 0.950 . S
H902 C878 0.950 . S
H903 C879 0.949 . S
H904 C881 0.950 . S
H905 C883 0.950 . S
C906 C907 1.349 . S
C906 C908 1.327 . S
C906 H931 0.950 . S
C907 C906 1.349 . S
C907 C923 1.349 . S
C908 C906 1.327 . S
C908 C927 1.429 . S
C908 H932 0.950 . S
C909 C926 1.574 . S
C909 C928 1.368 . S
C909 H933 0.949 . S
H910 C914 0.949 . S
C911 C912 1.349 . S
C911 C913 1.327 . S
C911 H934 0.950 1_554 S
C912 C911 1.349 . S
C912 C924 1.349 . S
C913 C911 1.327 . S
C913 C929 1.429 . S
C913 H935 0.954 . S
C914 H910 0.949 . S
C914 C922 1.574 . S
C914 C930 1.368 . S
H915 C923 0.950 . S
H916 C921 0.950 . S
H917 C922 0.949 . S
H918 C924 0.950 . S
H919 C925 0.950 . S
H920 C926 0.949 . S
C921 H916 0.950 . S
C921 C923 1.327 . S
C921 C927 1.429 . S
C922 C914 1.574 . S
C922 H917 0.949 . S
C922 C928 1.368 . S
C923 C907 1.349 . S
C923 H915 0.950 . S
C923 C921 1.327 . S
C924 C912 1.349 . S
C924 H918 0.950 . S
C924 C925 1.327 . S
C925 H919 0.950 . S
C925 C924 1.327 . S
C925 C929 1.429 . S
C926 C909 1.574 . S
C926 H920 0.949 . S
C926 C930 1.368 . S
C927 C908 1.429 . S
C927 C921 1.429 . S
C927 C928 1.523 . S
C928 C909 1.368 . S
C928 C922 1.368 . S
C928 C927 1.523 . S
C929 C913 1.429 . S
C929 C925 1.429 . S
C929 C930 1.523 . S
C930 C914 1.368 . S
C930 C926 1.368 . S
C930 C929 1.523 . S
H931 C906 0.950 . S
H932 C908 0.950 . S
H933 C909 0.949 . S
H934 C911 0.950 1_556 S
H935 C913 0.954 . S
C936 C937 1.349 . S
C936 C938 1.327 . S
C936 H961 0.950 . S
C937 C936 1.349 . S
C937 C953 1.349 . S
C938 C936 1.327 . S
C938 C957 1.429 . S
C938 H962 0.950 . S
C939 C956 1.610 . S
C939 C958 1.368 . S
C939 H963 0.949 . S
H940 C944 0.949 . S
C941 C942 1.349 . S
C941 C943 1.327 . S
C941 H964 0.950 . S
C942 C941 1.349 . S
C942 C954 1.349 . S
C943 C941 1.327 . S
C943 C959 1.429 . S
C943 H965 0.950 . S
C944 H940 0.949 . S
C944 C952 1.574 1_455 S
C944 C960 1.368 . S
H945 C953 0.950 . S
H946 C951 0.950 . S
H947 C952 0.949 . S
H948 C954 0.950 . S
H949 C955 0.950 . S
H950 C956 0.959 1_455 S
C951 H946 0.950 . S
C951 C953 1.327 . S
C951 C957 1.429 . S
C952 C944 1.574 1_655 S
C952 H947 0.949 . S
C952 C958 1.368 . S
C953 C937 1.349 . S
C953 H945 0.950 . S
C953 C951 1.327 . S
C954 C942 1.349 . S
C954 H948 0.950 . S
C954 C955 1.327 . S
C955 H949 0.950 . S
C955 C954 1.327 . S
C955 C959 1.429 . S
C956 C939 1.610 . S
C956 H950 0.959 1_655 S
C956 C960 1.324 1_655 S
C957 C938 1.429 . S
C957 C951 1.429 . S
C957 C958 1.523 . S
C958 C939 1.368 . S
C958 C952 1.368 . S
C958 C957 1.523 . S
C959 C943 1.429 . S
C959 C955 1.429 . S
C959 C960 1.523 . S
C960 C944 1.368 . S
C960 C956 1.324 1_455 S
C960 C959 1.523 . S
H961 C936 0.950 . S
H962 C938 0.950 . S
H963 C939 0.949 . S
H964 C941 0.950 . S
H965 C943 0.950 . S
C966 C967 1.349 . S
C966 C968 1.327 . S
C966 H991 0.950 . S
C967 C966 1.349 . S
C967 C983 1.349 . S
C968 C966 1.327 . S
C968 C987 1.429 . S
C968 H992 0.950 . S
C969 C986 1.574 . S
C969 C988 1.368 . S
C969 H993 0.949 . S
H970 C974 0.949 . S
C971 C972 1.349 . S
C971 C973 1.327 . S
C971 H994 0.950 . S
C972 C971 1.349 . S
C972 C984 1.349 . S
C973 C971 1.327 . S
C973 C989 1.429 . S
C973 H995 0.950 . S
C974 H970 0.949 . S
C974 C982 1.574 . S
C974 C990 1.368 . S
H975 C983 0.950 . S
H976 C981 0.950 . S
H977 C982 0.949 . S
H978 C984 0.950 . S
H979 C985 0.950 . S
H980 C986 0.949 . S
C981 H976 0.950 . S
C981 C983 1.327 . S
C981 C987 1.429 . S
C982 C974 1.574 . S
C982 H977 0.949 . S
C982 C988 1.368 . S
C983 C967 1.349 . S
C983 H975 0.950 . S
C983 C981 1.327 . S
C984 C972 1.349 . S
C984 H978 0.950 . S
C984 C985 1.327 . S
C985 H979 0.950 . S
C985 C984 1.327 . S
C985 C989 1.429 . S
C986 C969 1.574 . S
C986 H980 0.949 . S
C986 C990 1.368 . S
C987 C968 1.429 . S
C987 C981 1.429 . S
C987 C988 1.523 . S
C988 C969 1.368 . S
C988 C982 1.368 . S
C988 C987 1.523 . S
C989 C973 1.429 . S
C989 C985 1.429 . S
C989 C990 1.523 . S
C990 C974 1.368 . S
C990 C986 1.368 . S
C990 C989 1.523 . S
H991 C966 0.950 . S
H992 C968 0.950 . S
H993 C969 0.949 . S
H994 C971 0.950 . S
H995 C973 0.950 . S
C996 C997 1.349 . S
C996 C998 1.327 . S
C996 H1021 0.950 . S
C997 C996 1.349 . S
C997 C1013 1.349 . S
C998 C996 1.327 . S
C998 C1017 1.429 . S
C998 H1022 0.950 . S
C999 C1016 1.574 . S
C999 C1018 1.368 . S
C999 H1023 0.949 . S
H1000 C1004 0.949 . S
C1001 C1002 1.349 . S
C1001 C1003 1.327 . S
C1001 H1024 0.950 . S
C1002 C1001 1.349 . S
C1002 C1014 1.349 . S
C1003 C1001 1.327 . S
C1003 C1019 1.429 . S
C1003 H1025 0.950 . S
C1004 H1000 0.949 . S
C1004 C1012 1.574 . S
C1004 C1020 1.368 1_545 S
H1005 C1013 0.950 . S
H1006 C1011 0.950 . S
H1007 C1012 0.949 . S
H1008 C1014 0.950 . S
H1009 C1015 0.950 . S
H1010 C1016 0.949 1_565 S
C1011 H1006 0.950 . S
C1011 C1013 1.327 . S
C1011 C1017 1.429 . S
C1012 C1004 1.574 . S
C1012 H1007 0.949 . S
C1012 C1018 1.368 . S
C1013 C997 1.349 . S
C1013 H1005 0.950 . S
C1013 C1011 1.327 . S
C1014 C1002 1.349 . S
C1014 H1008 0.950 . S
C1014 C1015 1.327 . S
C1015 H1009 0.950 . S
C1015 C1014 1.327 . S
C1015 C1019 1.429 . S
C1016 C999 1.574 . S
C1016 H1010 0.949 1_545 S
C1016 C1020 1.368 1_545 S
C1017 C998 1.429 . S
C1017 C1011 1.429 . S
C1017 C1018 1.523 . S
C1018 C999 1.368 . S
C1018 C1012 1.368 . S
C1018 C1017 1.523 . S
C1019 C1003 1.429 . S
C1019 C1015 1.429 . S
C1019 C1020 1.523 . S
C1020 C1004 1.368 1_565 S
C1020 C1016 1.368 1_565 S
C1020 C1019 1.523 . S
H1021 C996 0.950 . S
H1022 C998 0.950 . S
H1023 C999 0.949 . S
H1024 C1001 0.950 . S
H1025 C1003 0.950 . S
C1026 C1027 1.349 . S
C1026 C1028 1.327 . S
C1026 H1051 0.950 . S
C1027 C1026 1.349 . S
C1027 C1043 1.349 . S
C1028 C1026 1.327 . S
C1028 C1047 1.429 . S
C1028 H1052 0.950 . S
C1029 C1046 1.574 . S
C1029 C1048 1.368 . S
C1029 H1053 0.949 . S
H1030 C1034 0.949 . S
C1031 C1032 1.349 . S
C1031 C1033 1.327 . S
C1031 H1054 0.950 . S
C1032 C1031 1.349 . S
C1032 C1044 1.349 . S
C1033 C1031 1.327 . S
C1033 C1049 1.429 . S
C1033 H1055 0.950 . S
C1034 H1030 0.949 . S
C1034 C1042 1.574 . S
C1034 C1050 1.368 . S
H1035 C1043 0.950 . S
H1036 C1041 0.950 . S
H1037 C1042 0.949 . S
H1038 C1044 0.950 . S
H1039 C1045 0.950 . S
H1040 C1046 0.949 . S
C1041 H1036 0.950 . S
C1041 C1043 1.327 . S
C1041 C1047 1.429 . S
C1042 C1034 1.574 . S
C1042 H1037 0.949 . S
C1042 C1048 1.368 . S
C1043 C1027 1.349 . S
C1043 H1035 0.950 . S
C1043 C1041 1.327 . S
C1044 C1032 1.349 . S
C1044 H1038 0.950 . S
C1044 C1045 1.327 . S
C1045 H1039 0.950 . S
C1045 C1044 1.327 . S
C1045 C1049 1.429 . S
C1046 C1029 1.574 . S
C1046 H1040 0.949 . S
C1046 C1050 1.368 . S
C1047 C1028 1.429 . S
C1047 C1041 1.429 . S
C1047 C1048 1.523 . S
C1048 C1029 1.368 . S
C1048 C1042 1.368 . S
C1048 C1047 1.523 . S
C1049 C1033 1.429 . S
C1049 C1045 1.429 . S
C1049 C1050 1.523 . S
C1050 C1034 1.368 . S
C1050 C1046 1.368 . S
C1050 C1049 1.523 . S
H1051 C1026 0.950 . S
H1052 C1028 0.950 . S
H1053 C1029 0.949 . S
H1054 C1031 0.950 . S
H1055 C1033 0.950 . S
C1056 C1057 1.349 . S
C1056 C1058 1.327 . S
C1056 H1081 0.950 . S
C1057 C1056 1.349 . S
C1057 C1073 1.349 . S
C1058 C1056 1.327 . S
C1058 C1077 1.429 . S
C1058 H1082 0.950 . S
C1059 C1076 1.574 . S
C1059 C1078 1.368 . S
C1059 H1083 0.949 . S
H1060 C1064 0.949 . S
C1061 C1062 1.349 . S
C1061 C1063 1.327 . S
C1061 H1084 0.950 . S
C1062 C1061 1.349 . S
C1062 C1074 1.349 . S
C1063 C1061 1.327 . S
C1063 C1079 1.429 . S
C1063 H1085 0.950 . S
C1064 H1060 0.949 . S
C1064 C1072 1.574 . S
C1064 C1080 1.368 . S
H1065 C1073 0.950 . S
H1066 C1071 0.950 . S
H1067 C1072 0.949 . S
H1068 C1074 0.950 . S
H1069 C1075 0.950 . S
H1070 C1076 0.949 . S
C1071 H1066 0.950 . S
C1071 C1073 1.327 . S
C1071 C1077 1.429 . S
C1072 C1064 1.574 . S
C1072 H1067 0.949 . S
C1072 C1078 1.368 . S
C1073 C1057 1.349 . S
C1073 H1065 0.950 . S
C1073 C1071 1.327 . S
C1074 C1062 1.349 . S
C1074 H1068 0.950 . S
C1074 C1075 1.327 . S
C1075 H1069 0.950 . S
C1075 C1074 1.327 . S
C1075 C1079 1.429 . S
C1076 C1059 1.574 . S
C1076 H1070 0.949 . S
C1076 C1080 1.368 . S
C1077 C1058 1.429 . S
C1077 C1071 1.429 . S
C1077 C1078 1.523 . S
C1078 C1059 1.368 . S
C1078 C1072 1.368 . S
C1078 C1077 1.523 . S
C1079 C1063 1.429 . S
C1079 C1075 1.429 . S
C1079 C1080 1.523 . S
C1080 C1064 1.368 . S
C1080 C1076 1.368 . S
C1080 C1079 1.523 . S
H1081 C1056 0.950 . S
H1082 C1058 0.950 . S
H1083 C1059 0.949 . S
H1084 C1061 0.950 . S
H1085 C1063 0.950 . S
C1086 C1087 1.349 . S
C1086 C1088 1.327 . S
C1086 H1111 0.950 . S
C1087 C1086 1.349 . S
C1087 C1103 1.349 . S
C1088 C1086 1.327 . S
C1088 C1107 1.429 . S
C1088 H1112 0.950 . S
C1089 C1106 1.574 . S
C1089 C1108 1.368 . S
C1089 H1113 0.949 . S
H1090 C1094 0.949 . S
C1091 C1092 1.349 . S
C1091 C1093 1.327 . S
C1091 H1114 0.950 . S
C1092 C1091 1.349 . S
C1092 C1104 1.349 . S
C1093 C1091 1.327 . S
C1093 C1109 1.429 . S
C1093 H1115 0.950 . S
C1094 H1090 0.949 . S
C1094 C1102 1.574 . S
C1094 C1110 1.368 . S
H1095 C1103 0.950 . S
H1096 C1101 0.950 . S
H1097 C1102 0.949 . S
H1098 C1104 0.950 . S
H1099 C1105 0.950 . S
H1100 C1106 0.949 . S
C1101 H1096 0.950 . S
C1101 C1103 1.327 . S
C1101 C1107 1.429 . S
C1102 C1094 1.574 . S
C1102 H1097 0.949 . S
C1102 C1108 1.368 . S
C1103 C1087 1.349 . S
C1103 H1095 0.950 . S
C1103 C1101 1.327 . S
C1104 C1092 1.349 . S
C1104 H1098 0.950 . S
C1104 C1105 1.327 . S
C1105 H1099 0.950 . S
C1105 C1104 1.327 . S
C1105 C1109 1.429 . S
C1106 C1089 1.574 . S
C1106 H1100 0.949 . S
C1106 C1110 1.368 . S
C1107 C1088 1.429 . S
C1107 C1101 1.429 . S
C1107 C1108 1.523 . S
C1108 C1089 1.368 . S
C1108 C1102 1.368 . S
C1108 C1107 1.523 . S
C1109 C1093 1.429 . S
C1109 C1105 1.429 . S
C1109 C1110 1.523 . S
C1110 C1094 1.368 . S
C1110 C1106 1.368 . S
C1110 C1109 1.523 . S
H1111 C1086 0.950 . S
H1112 C1088 0.950 . S
H1113 C1089 0.949 . S
H1114 C1091 0.950 . S
H1115 C1093 0.950 . S
C1116 C1117 1.349 . S
C1116 C1118 1.327 . S
C1116 H1141 0.950 . S
C1117 C1116 1.349 . S
C1117 C1133 1.349 . S
C1118 C1116 1.327 . S
C1118 C1137 1.429 . S
C1118 H1142 0.950 . S
C1119 C1136 1.574 . S
C1119 C1138 1.368 . S
C1119 H1143 0.949 . S
H1120 C1124 0.949 . S
C1121 C1122 1.349 . S
C1121 C1123 1.327 . S
C1121 H1144 0.950 . S
C1122 C1121 1.349 . S
C1122 C1134 1.349 . S
C1123 C1121 1.327 . S
C1123 C1139 1.429 . S
C1123 H1145 0.950 . S
C1124 H1120 0.949 . S
C1124 C1132 1.574 . S
C1124 C1140 1.368 . S
H1125 C1133 0.950 . S
H1126 C1131 0.950 . S
H1127 C1132 0.949 . S
H1128 C1134 0.950 . S
H1129 C1135 0.950 . S
H1130 C1136 0.949 . S
C1131 H1126 0.950 . S
C1131 C1133 1.327 . S
C1131 C1137 1.429 . S
C1132 C1124 1.574 . S
C1132 H1127 0.949 . S
C1132 C1138 1.368 . S
C1133 C1117 1.349 . S
C1133 H1125 0.950 . S
C1133 C1131 1.327 . S
C1134 C1122 1.349 . S
C1134 H1128 0.950 . S
C1134 C1135 1.327 . S
C1135 H1129 0.950 . S
C1135 C1134 1.327 . S
C1135 C1139 1.429 . S
C1136 C1119 1.574 . S
C1136 H1130 0.949 . S
C1136 C1140 1.368 . S
C1137 C1118 1.429 . S
C1137 C1131 1.429 . S
C1137 C1138 1.523 . S
C1138 C1119 1.368 . S
C1138 C1132 1.368 . S
C1138 C1137 1.523 . S
C1139 C1123 1.429 . S
C1139 C1135 1.429 . S
C1139 C1140 1.523 . S
C1140 C1124 1.368 . S
C1140 C1136 1.368 . S
C1140 C1139 1.523 . S
H1141 C1116 0.950 . S
H1142 C1118 0.950 . S
H1143 C1119 0.949 . S
H1144 C1121 0.950 . S
H1145 C1123 0.950 . S
C1146 C1147 1.349 . S
C1146 C1148 1.327 . S
C1146 H1171 0.950 . S
C1147 C1146 1.349 . S
C1147 C1163 1.349 . S
C1148 C1146 1.327 . S
C1148 C1167 1.429 . S
C1148 H1172 0.950 . S
C1149 C1166 1.574 . S
C1149 C1168 1.368 . S
C1149 H1173 0.949 . S
H1150 C1154 0.949 . S
C1151 C1152 1.349 . S
C1151 C1153 1.327 . S
C1151 H1174 0.950 . S
C1152 C1151 1.349 . S
C1152 C1164 1.349 . S
C1153 C1151 1.327 . S
C1153 C1169 1.429 . S
C1153 H1175 0.950 . S
C1154 H1150 0.949 . S
C1154 C1162 1.574 . S
C1154 C1170 1.368 . S
H1155 C1163 0.950 . S
H1156 C1161 0.950 . S
H1157 C1162 0.949 . S
H1158 C1164 0.950 . S
H1159 C1165 0.950 . S
H1160 C1166 0.949 . S
C1161 H1156 0.950 . S
C1161 C1163 1.327 . S
C1161 C1167 1.429 . S
C1162 C1154 1.574 . S
C1162 H1157 0.949 . S
C1162 C1168 1.368 . S
C1163 C1147 1.349 . S
C1163 H1155 0.950 . S
C1163 C1161 1.327 . S
C1164 C1152 1.349 . S
C1164 H1158 0.950 . S
C1164 C1165 1.327 . S
C1165 H1159 0.950 . S
C1165 C1164 1.327 . S
C1165 C1169 1.429 . S
C1166 C1149 1.574 . S
C1166 H1160 0.949 . S
C1166 C1170 1.368 . S
C1167 C1148 1.429 . S
C1167 C1161 1.429 . S
C1167 C1168 1.523 . S
C1168 C1149 1.368 . S
C1168 C1162 1.368 . S
C1168 C1167 1.523 . S
C1169 C1153 1.429 . S
C1169 C1165 1.429 . S
C1169 C1170 1.523 . S
C1170 C1154 1.368 . S
C1170 C1166 1.368 . S
C1170 C1169 1.523 . S
H1171 C1146 0.950 . S
H1172 C1148 0.950 . S
H1173 C1149 0.949 . S
H1174 C1151 0.950 . S
H1175 C1153 0.950 . S
C1176 C1177 1.349 . S
C1176 C1178 1.327 . S
C1176 H1201 0.950 . S
C1177 C1176 1.349 . S
C1177 C1193 1.349 . S
C1178 C1176 1.327 . S
C1178 C1197 1.429 . S
C1178 H1202 0.950 . S
C1179 C1196 1.574 . S
C1179 C1198 1.368 . S
C1179 H1203 0.949 . S
H1180 C1184 0.949 . S
C1181 C1182 1.349 . S
C1181 C1183 1.327 . S
C1181 H1204 0.950 . S
C1182 C1181 1.349 . S
C1182 C1194 1.349 . S
C1183 C1181 1.327 . S
C1183 C1199 1.429 . S
C1183 H1205 0.950 . S
C1184 H1180 0.949 . S
C1184 C1192 1.574 . S
C1184 C1200 1.368 . S
H1185 C1193 0.950 . S
H1186 C1191 0.950 . S
H1187 C1192 0.949 . S
H1188 C1194 0.950 . S
H1189 C1195 0.950 . S
H1190 C1196 0.949 . S
C1191 H1186 0.950 . S
C1191 C1193 1.327 . S
C1191 C1197 1.429 . S
C1192 C1184 1.574 . S
C1192 H1187 0.949 . S
C1192 C1198 1.368 . S
C1193 C1177 1.349 . S
C1193 H1185 0.950 . S
C1193 C1191 1.327 . S
C1194 C1182 1.349 . S
C1194 H1188 0.950 . S
C1194 C1195 1.327 . S
C1195 H1189 0.950 . S
C1195 C1194 1.327 . S
C1195 C1199 1.429 . S
C1196 C1179 1.574 . S
C1196 H1190 0.949 . S
C1196 C1200 1.368 . S
C1197 C1178 1.429 . S
C1197 C1191 1.429 . S
C1197 C1198 1.523 . S
C1198 C1179 1.368 . S
C1198 C1192 1.368 . S
C1198 C1197 1.523 . S
C1199 C1183 1.429 . S
C1199 C1195 1.429 . S
C1199 C1200 1.523 . S
C1200 C1184 1.368 . S
C1200 C1196 1.368 . S
C1200 C1199 1.523 . S
H1201 C1176 0.950 . S
H1202 C1178 0.950 . S
H1203 C1179 0.949 . S
H1204 C1181 0.950 . S
H1205 C1183 0.950 . S
C1206 C1207 1.349 . S
C1206 C1208 1.327 . S
C1206 H1231 0.950 . S
C1207 C1206 1.349 . S
C1207 C1223 1.349 . S
C1208 C1206 1.327 . S
C1208 C1227 1.429 . S
C1208 H1232 0.950 . S
C1209 C1226 1.574 . S
C1209 C1228 1.368 . S
C1209 H1233 0.949 . S
H1210 C1214 0.949 . S
C1211 C1212 1.349 . S
C1211 C1213 1.327 . S
C1211 H1234 0.950 . S
C1212 C1211 1.349 . S
C1212 C1224 1.349 . S
C1213 C1211 1.327 . S
C1213 C1229 1.429 . S
C1213 H1235 0.950 . S
C1214 H1210 0.949 . S
C1214 C1222 1.574 . S
C1214 C1230 1.368 . S
H1215 C1223 0.950 . S
H1216 C1221 0.950 . S
H1217 C1222 0.949 . S
H1218 C1224 0.950 . S
H1219 C1225 0.950 . S
H1220 C1226 0.949 . S
C1221 H1216 0.950 . S
C1221 C1223 1.327 . S
C1221 C1227 1.429 . S
C1222 C1214 1.574 . S
C1222 H1217 0.949 . S
C1222 C1228 1.368 . S
C1223 C1207 1.349 . S
C1223 H1215 0.950 . S
C1223 C1221 1.327 . S
C1224 C1212 1.349 . S
C1224 H1218 0.950 . S
C1224 C1225 1.327 . S
C1225 H1219 0.950 . S
C1225 C1224 1.327 . S
C1225 C1229 1.429 . S
C1226 C1209 1.574 . S
C1226 H1220 0.949 . S
C1226 C1230 1.368 . S
C1227 C1208 1.429 . S
C1227 C1221 1.429 . S
C1227 C1228 1.523 1_545 S
C1228 C1209 1.368 . S
C1228 C1222 1.368 . S
C1228 C1227 1.523 1_565 S
C1229 C1213 1.429 . S
C1229 C1225 1.429 . S
C1229 C1230 1.523 . S
C1230 C1214 1.368 . S
C1230 C1226 1.368 . S
C1230 C1229 1.523 . S
H1231 C1206 0.950 . S
H1232 C1208 0.950 . S
H1233 C1209 0.949 . S
H1234 C1211 0.950 . S
H1235 C1213 0.950 . S
C1236 C1237 1.349 . S
C1236 C1238 1.327 1_655 S
C1236 H1261 0.950 . S
C1237 C1236 1.349 . S
C1237 C1253 1.349 . S
C1238 C1236 1.327 1_455 S
C1238 C1257 1.429 . S
C1238 H1262 0.950 . S
C1239 C1256 1.574 . S
C1239 C1258 1.368 . S
C1239 H1263 0.949 . S
H1240 C1244 0.949 . S
C1241 C1242 1.349 . S
C1241 C1243 1.327 . S
C1241 H1264 0.950 . S
C1242 C1241 1.349 . S
C1242 C1254 1.349 . S
C1243 C1241 1.327 . S
C1243 C1259 1.429 . S
C1243 H1265 0.950 . S
C1244 H1240 0.949 . S
C1244 C1252 1.574 . S
C1244 C1260 1.368 . S
H1245 C1253 0.950 . S
H1246 C1251 0.950 1_455 S
H1247 C1252 0.949 . S
H1248 C1254 0.950 . S
H1249 C1255 0.950 . S
H1250 C1256 0.949 . S
C1251 H1246 0.950 1_655 S
C1251 C1253 1.327 . S
C1251 C1257 1.429 1_655 S
C1252 C1244 1.574 . S
C1252 H1247 0.949 . S
C1252 C1258 1.368 . S
C1253 C1237 1.349 . S
C1253 H1245 0.950 . S
C1253 C1251 1.327 . S
C1254 C1242 1.349 . S
C1254 H1248 0.950 . S
C1254 C1255 1.327 . S
C1255 H1249 0.950 . S
C1255 C1254 1.327 . S
C1255 C1259 1.429 . S
C1256 C1239 1.574 . S
C1256 H1250 0.949 . S
C1256 C1260 1.368 . S
C1257 C1238 1.429 . S
C1257 C1251 1.429 1_455 S
C1257 C1258 1.523 . S
C1258 C1239 1.368 . S
C1258 C1252 1.368 . S
C1258 C1257 1.523 . S
C1259 C1243 1.429 . S
C1259 C1255 1.429 . S
C1259 C1260 1.523 . S
C1260 C1244 1.368 . S
C1260 C1256 1.368 . S
C1260 C1259 1.523 . S
H1261 C1236 0.950 . S
H1262 C1238 0.950 . S
H1263 C1239 0.949 . S
H1264 C1241 0.950 . S
H1265 C1243 0.950 . S
C1266 C1267 1.349 . S
C1266 C1268 1.327 . S
C1266 H1291 0.950 . S
C1267 C1266 1.349 . S
C1267 C1283 1.349 . S
C1268 C1266 1.327 . S
C1268 C1287 1.429 . S
C1268 H1292 0.950 . S
C1269 C1286 1.574 . S
C1269 C1288 1.368 . S
C1269 H1293 0.949 . S
H1270 C1274 0.949 . S
C1271 C1272 1.349 . S
C1271 C1273 1.327 . S
C1271 H1294 0.950 . S
C1272 C1271 1.349 . S
C1272 C1284 1.349 . S
C1273 C1271 1.327 . S
C1273 C1289 1.429 . S
C1273 H1295 0.950 . S
C1274 H1270 0.949 . S
C1274 C1282 1.574 . S
C1274 C1290 1.368 . S
H1275 C1283 0.950 . S
H1276 C1281 0.950 . S
H1277 C1282 0.949 . S
H1278 C1284 0.950 . S
H1279 C1285 0.950 . S
H1280 C1286 0.949 . S
C1281 H1276 0.950 . S
C1281 C1283 1.327 . S
C1281 C1287 1.429 . S
C1282 C1274 1.574 . S
C1282 H1277 0.949 . S
C1282 C1288 1.368 . S
C1283 C1267 1.349 . S
C1283 H1275 0.950 . S
C1283 C1281 1.327 . S
C1284 C1272 1.349 . S
C1284 H1278 0.950 . S
C1284 C1285 1.327 . S
C1285 H1279 0.950 . S
C1285 C1284 1.327 . S
C1285 C1289 1.429 . S
C1286 C1269 1.574 . S
C1286 H1280 0.949 . S
C1286 C1290 1.368 . S
C1287 C1268 1.429 . S
C1287 C1281 1.429 . S
C1287 C1288 1.523 . S
C1288 C1269 1.368 . S
C1288 C1282 1.368 . S
C1288 C1287 1.523 . S
C1289 C1273 1.429 . S
C1289 C1285 1.429 . S
C1289 C1290 1.523 . S
C1290 C1274 1.368 . S
C1290 C1286 1.368 . S
C1290 C1289 1.523 . S
H1291 C1266 0.950 . S
H1292 C1268 0.950 . S
H1293 C1269 0.949 . S
H1294 C1271 0.950 . S
H1295 C1273 0.950 . S
C1296 C1297 1.349 . S
C1296 C1298 1.327 . S
C1296 H1321 0.950 . S
C1297 C1296 1.349 . S
C1297 C1313 1.349 . S
C1298 C1296 1.327 . S
C1298 C1317 1.429 . S
C1298 H1322 0.950 . S
C1299 C1316 1.574 . S
C1299 C1318 1.368 . S
C1299 H1323 0.949 . S
H1300 C1304 0.949 . S
C1301 C1302 1.349 . S
C1301 C1303 1.327 . S
C1301 H1324 0.950 . S
C1302 C1301 1.349 . S
C1302 C1314 1.349 . S
C1303 C1301 1.327 . S
C1303 C1319 1.429 . S
C1303 H1325 0.950 . S
C1304 H1300 0.949 . S
C1304 C1312 1.574 . S
C1304 C1320 1.368 . S
H1305 C1313 0.950 . S
H1306 C1311 0.950 . S
H1307 C1312 0.949 . S
H1308 C1314 0.950 . S
H1309 C1315 0.950 . S
H1310 C1316 0.949 . S
C1311 H1306 0.950 . S
C1311 C1313 1.327 . S
C1311 C1317 1.429 . S
C1312 C1304 1.574 . S
C1312 H1307 0.949 . S
C1312 C1318 1.368 . S
C1313 C1297 1.349 . S
C1313 H1305 0.950 . S
C1313 C1311 1.327 . S
C1314 C1302 1.349 . S
C1314 H1308 0.950 . S
C1314 C1315 1.327 . S
C1315 H1309 0.950 . S
C1315 C1314 1.327 . S
C1315 C1319 1.429 . S
C1316 C1299 1.574 . S
C1316 H1310 0.949 . S
C1316 C1320 1.368 . S
C1317 C1298 1.429 . S
C1317 C1311 1.429 . S
C1317 C1318 1.523 . S
C1318 C1299 1.368 . S
C1318 C1312 1.368 . S
C1318 C1317 1.523 . S
C1319 C1303 1.429 . S
C1319 C1315 1.429 . S
C1319 C1320 1.523 . S
C1320 C1304 1.368 . S
C1320 C1316 1.368 . S
C1320 C1319 1.523 . S
H1321 C1296 0.950 . S
H1322 C1298 0.950 . S
H1323 C1299 0.949 . S
H1324 C1301 0.950 . S
H1325 C1303 0.950 . S
C1326 C1327 1.349 . S
C1326 C1328 1.327 . S
C1326 H1351 0.950 . S
C1327 C1326 1.349 . S
C1327 C1343 1.349 . S
C1328 C1326 1.327 . S
C1328 C1347 1.429 . S
C1328 H1352 0.950 . S
C1329 C1346 1.574 . S
C1329 C1348 1.368 . S
C1329 H1353 0.949 . S
H1330 C1334 0.949 . S
C1331 C1332 1.349 . S
C1331 C1333 1.327 . S
C1331 H1354 0.950 . S
C1332 C1331 1.349 . S
C1332 C1344 1.349 . S
C1333 C1331 1.327 . S
C1333 C1349 1.429 . S
C1333 H1355 0.950 . S
C1334 H1330 0.949 . S
C1334 C1342 1.574 . S
C1334 C1350 1.368 . S
H1335 C1343 0.950 . S
H1336 C1341 0.950 . S
H1337 C1342 0.949 . S
H1338 C1344 0.950 . S
H1339 C1345 0.950 . S
H1340 C1346 0.949 . S
C1341 H1336 0.950 . S
C1341 C1343 1.327 . S
C1341 C1347 1.429 . S
C1342 C1334 1.574 . S
C1342 H1337 0.949 . S
C1342 C1348 1.368 . S
C1343 C1327 1.349 . S
C1343 H1335 0.950 . S
C1343 C1341 1.327 . S
C1344 C1332 1.349 . S
C1344 H1338 0.950 . S
C1344 C1345 1.327 . S
C1345 H1339 0.950 . S
C1345 C1344 1.327 . S
C1345 C1349 1.429 . S
C1346 C1329 1.574 . S
C1346 H1340 0.949 . S
C1346 C1350 1.368 . S
C1347 C1328 1.429 . S
C1347 C1341 1.429 . S
C1347 C1348 1.523 . S
C1348 C1329 1.368 . S
C1348 C1342 1.368 . S
C1348 C1347 1.523 . S
C1349 C1333 1.429 . S
C1349 C1345 1.429 . S
C1349 C1350 1.523 . S
C1350 C1334 1.368 . S
C1350 C1346 1.368 . S
C1350 C1349 1.523 . S
H1351 C1326 0.950 . S
H1352 C1328 0.950 . S
H1353 C1329 0.949 . S
H1354 C1331 0.950 . S
H1355 C1333 0.950 . S
C1356 C1357 1.349 . S
C1356 C1358 1.327 . S
C1356 H1381 0.950 . S
C1357 C1356 1.349 . S
C1357 C1373 1.349 . S
C1358 C1356 1.327 . S
C1358 C1377 1.429 . S
C1358 H1382 0.950 . S
C1359 C1376 1.574 . S
C1359 C1378 1.368 . S
C1359 H1383 0.949 . S
H1360 C1364 0.949 . S
C1361 C1362 1.349 . S
C1361 C1363 1.327 . S
C1361 H1384 0.950 . S
C1362 C1361 1.349 . S
C1362 C1374 1.349 . S
C1363 C1361 1.327 . S
C1363 C1379 1.429 . S
C1363 H1385 0.950 . S
C1364 H1360 0.949 . S
C1364 C1372 1.574 . S
C1364 C1380 1.368 . S
H1365 C1373 0.950 . S
H1366 C1371 0.950 . S
H1367 C1372 0.949 . S
H1368 C1374 0.950 . S
H1369 C1375 0.950 . S
H1370 C1376 0.949 . S
C1371 H1366 0.950 . S
C1371 C1373 1.327 . S
C1371 C1377 1.429 . S
C1372 C1364 1.574 . S
C1372 H1367 0.949 . S
C1372 C1378 1.368 . S
C1373 C1357 1.349 . S
C1373 H1365 0.950 . S
C1373 C1371 1.327 . S
C1374 C1362 1.349 . S
C1374 H1368 0.950 . S
C1374 C1375 1.327 . S
C1375 H1369 0.950 . S
C1375 C1374 1.327 . S
C1375 C1379 1.429 . S
C1376 C1359 1.574 . S
C1376 H1370 0.949 . S
C1376 C1380 1.368 . S
C1377 C1358 1.429 . S
C1377 C1371 1.429 . S
C1377 C1378 1.523 . S
C1378 C1359 1.368 . S
C1378 C1372 1.368 . S
C1378 C1377 1.523 . S
C1379 C1363 1.429 . S
C1379 C1375 1.429 . S
C1379 C1380 1.523 . S
C1380 C1364 1.368 . S
C1380 C1376 1.368 . S
C1380 C1379 1.523 . S
H1381 C1356 0.950 . S
H1382 C1358 0.950 . S
H1383 C1359 0.949 . S
H1384 C1361 0.950 . S
H1385 C1363 0.950 . S
C1386 C1387 1.349 . S
C1386 C1388 1.327 . S
C1386 H1411 0.950 . S
C1387 C1386 1.349 . S
C1387 C1403 1.349 . S
C1388 C1386 1.327 . S
C1388 C1407 1.429 . S
C1388 H1412 0.950 . S
C1389 C1406 1.574 1_565 S
C1389 C1408 1.368 . S
C1389 H1413 0.949 . S
H1390 C1394 0.951 1_545 S
C1391 C1392 1.349 . S
C1391 C1393 1.327 . S
C1391 H1414 0.950 . S
C1392 C1391 1.349 . S
C1392 C1404 1.349 . S
C1393 C1391 1.327 . S
C1393 C1409 1.429 . S
C1393 H1415 0.950 . S
C1394 H1390 0.951 1_565 S
C1394 C1402 1.581 . S
C1394 C1410 1.359 1_565 S
H1395 C1403 0.950 . S
H1396 C1401 0.950 . S
H1397 C1402 0.949 . S
H1398 C1404 0.950 . S
H1399 C1405 0.950 . S
H1400 C1406 0.949 . S
C1401 H1396 0.950 . S
C1401 C1403 1.327 . S
C1401 C1407 1.429 . S
C1402 C1394 1.581 . S
C1402 H1397 0.949 . S
C1402 C1408 1.368 . S
C1403 C1387 1.349 . S
C1403 H1395 0.950 . S
C1403 C1401 1.327 . S
C1404 C1392 1.349 . S
C1404 H1398 0.950 . S
C1404 C1405 1.327 . S
C1405 H1399 0.950 . S
C1405 C1404 1.327 . S
C1405 C1409 1.429 . S
C1406 C1389 1.574 1_545 S
C1406 H1400 0.949 . S
C1406 C1410 1.368 . S
C1407 C1388 1.429 . S
C1407 C1401 1.429 . S
C1407 C1408 1.523 . S
C1408 C1389 1.368 . S
C1408 C1402 1.368 . S
C1408 C1407 1.523 . S
C1409 C1393 1.429 . S
C1409 C1405 1.429 . S
C1409 C1410 1.523 . S
C1410 C1394 1.359 1_545 S
C1410 C1406 1.368 . S
C1410 C1409 1.523 . S
H1411 C1386 0.950 . S
H1412 C1388 0.950 . S
H1413 C1389 0.949 . S
H1414 C1391 0.950 . S
H1415 C1393 0.950 . S
C1416 C1417 1.349 . S
C1416 C1418 1.327 . S
C1416 H1441 0.950 . S
C1417 C1416 1.349 . S
C1417 C1433 1.349 . S
C1418 C1416 1.327 . S
C1418 C1437 1.429 . S
C1418 H1442 0.950 . S
C1419 C1436 1.547 1_455 S
C1419 C1438 1.368 . S
C1419 H1443 0.949 . S
H1420 C1424 0.949 . S
C1421 C1422 1.349 . S
C1421 C1423 1.327 . S
C1421 H1444 0.950 . S
C1422 C1421 1.349 . S
C1422 C1434 1.349 . S
C1423 C1421 1.327 . S
C1423 C1439 1.429 . S
C1423 H1445 0.950 . S
C1424 H1420 0.949 . S
C1424 C1432 1.574 1_655 S
C1424 C1440 1.368 . S
H1425 C1433 0.950 . S
H1426 C1431 0.950 . S
H1427 C1432 0.949 . S
H1428 C1434 0.950 . S
H1429 C1435 0.950 . S
H1430 C1436 0.968 . S
C1431 H1426 0.950 . S
C1431 C1433 1.327 . S
C1431 C1437 1.429 . S
C1432 C1424 1.574 1_455 S
C1432 H1427 0.949 . S
C1432 C1438 1.368 . S
C1433 C1417 1.349 . S
C1433 H1425 0.950 . S
C1433 C1431 1.327 . S
C1434 C1422 1.349 . S
C1434 H1428 0.950 . S
C1434 C1435 1.327 . S
C1435 H1429 0.950 . S
C1435 C1434 1.327 . S
C1435 C1439 1.429 . S
C1436 C1419 1.547 1_655 S
C1436 H1430 0.968 . S
C1436 C1440 1.375 . S
C1437 C1418 1.429 . S
C1437 C1431 1.429 . S
C1437 C1438 1.523 . S
C1438 C1419 1.368 . S
C1438 C1432 1.368 . S
C1438 C1437 1.523 . S
C1439 C1423 1.429 . S
C1439 C1435 1.429 . S
C1439 C1440 1.523 . S
C1440 C1424 1.368 . S
C1440 C1436 1.375 . S
C1440 C1439 1.523 . S
H1441 C1416 0.950 . S
H1442 C1418 0.950 . S
H1443 C1419 0.949 . S
H1444 C1421 0.950 . S
H1445 C1423 0.950 . S
C1446 C1447 1.349 . S
C1446 C1448 1.327 . S
C1446 H1471 0.950 . S
C1447 C1446 1.349 . S
C1447 C1463 1.349 . S
C1448 C1446 1.327 . S
C1448 C1467 1.429 . S
C1448 H1472 0.950 . S
C1449 C1466 1.574 . S
C1449 C1468 1.368 . S
C1449 H1473 0.949 . S
H1450 C1454 0.949 . S
C1451 C1452 1.349 . S
C1451 C1453 1.327 . S
C1451 H1474 0.950 . S
C1452 C1451 1.349 . S
C1452 C1464 1.349 . S
C1453 C1451 1.327 . S
C1453 C1469 1.429 . S
C1453 H1475 0.950 . S
C1454 H1450 0.949 . S
C1454 C1462 1.574 . S
C1454 C1470 1.368 . S
H1455 C1463 0.950 . S
H1456 C1461 0.950 . S
H1457 C1462 0.949 . S
H1458 C1464 0.950 . S
H1459 C1465 0.950 . S
H1460 C1466 0.949 . S
C1461 H1456 0.950 . S
C1461 C1463 1.327 . S
C1461 C1467 1.429 . S
C1462 C1454 1.574 . S
C1462 H1457 0.949 . S
C1462 C1468 1.368 . S
C1463 C1447 1.349 . S
C1463 H1455 0.950 . S
C1463 C1461 1.327 . S
C1464 C1452 1.349 . S
C1464 H1458 0.950 . S
C1464 C1465 1.327 . S
C1465 H1459 0.950 . S
C1465 C1464 1.327 . S
C1465 C1469 1.429 . S
C1466 C1449 1.574 . S
C1466 H1460 0.949 . S
C1466 C1470 1.368 . S
C1467 C1448 1.429 . S
C1467 C1461 1.429 . S
C1467 C1468 1.523 . S
C1468 C1449 1.368 . S
C1468 C1462 1.368 . S
C1468 C1467 1.523 . S
C1469 C1453 1.429 . S
C1469 C1465 1.429 . S
C1469 C1470 1.523 . S
C1470 C1454 1.368 . S
C1470 C1466 1.368 . S
C1470 C1469 1.523 . S
H1471 C1446 0.950 . S
H1472 C1448 0.950 . S
H1473 C1449 0.949 . S
H1474 C1451 0.950 . S
H1475 C1453 0.950 . S
C1476 C1477 1.349 . S
C1476 C1478 1.327 . S
C1476 H1501 0.950 . S
C1477 C1476 1.349 . S
C1477 C1493 1.349 . S
C1478 C1476 1.327 . S
C1478 C1497 1.429 . S
C1478 H1502 0.950 . S
C1479 C1496 1.574 . S
C1479 C1498 1.368 . S
C1479 H1503 0.949 . S
H1480 C1484 0.949 . S
C1481 C1482 1.349 . S
C1481 C1483 1.327 . S
C1481 H1504 0.950 . S
C1482 C1481 1.349 . S
C1482 C1494 1.349 . S
C1483 C1481 1.327 . S
C1483 C1499 1.429 . S
C1483 H1505 0.950 . S
C1484 H1480 0.949 . S
C1484 C1492 1.574 . S
C1484 C1500 1.368 . S
H1485 C1493 0.950 . S
H1486 C1491 0.950 . S
H1487 C1492 0.949 . S
H1488 C1494 0.950 . S
H1489 C1495 0.950 . S
H1490 C1496 0.949 . S
C1491 H1486 0.950 . S
C1491 C1493 1.327 . S
C1491 C1497 1.429 . S
C1492 C1484 1.574 . S
C1492 H1487 0.949 . S
C1492 C1498 1.368 . S
C1493 C1477 1.349 . S
C1493 H1485 0.950 . S
C1493 C1491 1.327 . S
C1494 C1482 1.349 . S
C1494 H1488 0.950 . S
C1494 C1495 1.327 . S
C1495 H1489 0.950 . S
C1495 C1494 1.327 . S
C1495 C1499 1.429 . S
C1496 C1479 1.574 . S
C1496 H1490 0.949 . S
C1496 C1500 1.368 . S
C1497 C1478 1.429 . S
C1497 C1491 1.429 . S
C1497 C1498 1.523 1_455 S
C1498 C1479 1.368 . S
C1498 C1492 1.368 . S
C1498 C1497 1.523 1_655 S
C1499 C1483 1.429 . S
C1499 C1495 1.429 . S
C1499 C1500 1.523 . S
C1500 C1484 1.368 . S
C1500 C1496 1.368 . S
C1500 C1499 1.523 . S
H1501 C1476 0.950 . S
H1502 C1478 0.950 . S
H1503 C1479 0.949 . S
H1504 C1481 0.950 . S
H1505 C1483 0.950 . S
C1506 C1507 1.349 . S
C1506 C1508 1.327 . S
C1506 H1531 0.950 . S
C1507 C1506 1.349 . S
C1507 C1523 1.349 . S
C1508 C1506 1.327 . S
C1508 C1527 1.429 . S
C1508 H1532 0.950 . S
C1509 C1526 1.574 . S
C1509 C1528 1.368 . S
C1509 H1533 0.949 . S
H1510 C1514 0.949 . S
C1511 C1512 1.349 . S
C1511 C1513 1.327 . S
C1511 H1534 0.950 . S
C1512 C1511 1.349 . S
C1512 C1524 1.349 . S
C1513 C1511 1.327 . S
C1513 C1529 1.429 . S
C1513 H1535 0.950 . S
C1514 H1510 0.949 . S
C1514 C1522 1.574 . S
C1514 C1530 1.368 . S
H1515 C1523 0.950 . S
H1516 C1521 0.950 . S
H1517 C1522 0.949 . S
H1518 C1524 0.950 . S
H1519 C1525 0.950 . S
H1520 C1526 0.949 . S
C1521 H1516 0.950 . S
C1521 C1523 1.327 . S
C1521 C1527 1.429 . S
C1522 C1514 1.574 . S
C1522 H1517 0.949 . S
C1522 C1528 1.368 . S
C1523 C1507 1.349 . S
C1523 H1515 0.950 . S
C1523 C1521 1.327 . S
C1524 C1512 1.349 . S
C1524 H1518 0.950 . S
C1524 C1525 1.327 . S
C1525 H1519 0.950 . S
C1525 C1524 1.327 . S
C1525 C1529 1.429 . S
C1526 C1509 1.574 . S
C1526 H1520 0.949 . S
C1526 C1530 1.368 . S
C1527 C1508 1.429 . S
C1527 C1521 1.429 . S
C1527 C1528 1.523 . S
C1528 C1509 1.368 . S
C1528 C1522 1.368 . S
C1528 C1527 1.523 . S
C1529 C1513 1.429 . S
C1529 C1525 1.429 . S
C1529 C1530 1.523 . S
C1530 C1514 1.368 . S
C1530 C1526 1.368 . S
C1530 C1529 1.523 . S
H1531 C1506 0.950 . S
H1532 C1508 0.950 . S
H1533 C1509 0.949 . S
H1534 C1511 0.950 . S
H1535 C1513 0.950 . S
C1536 C1537 1.349 . S
C1536 C1538 1.327 . S
C1536 H1561 0.950 . S
C1537 C1536 1.349 . S
C1537 C1553 1.349 . S
C1538 C1536 1.327 . S
C1538 C1557 1.429 . S
C1538 H1562 0.950 . S
C1539 C1556 1.574 . S
C1539 C1558 1.368 . S
C1539 H1563 0.949 . S
H1540 C1544 0.949 . S
C1541 C1542 1.349 . S
C1541 C1543 1.327 . S
C1541 H1564 0.950 . S
C1542 C1541 1.349 . S
C1542 C1554 1.349 . S
C1543 C1541 1.327 . S
C1543 C1559 1.429 . S
C1543 H1565 0.950 . S
C1544 H1540 0.949 . S
C1544 C1552 1.574 . S
C1544 C1560 1.368 . S
H1545 C1553 0.950 . S
H1546 C1551 0.950 . S
H1547 C1552 0.949 . S
H1548 C1554 0.950 . S
H1549 C1555 0.950 . S
H1550 C1556 0.949 . S
C1551 H1546 0.950 . S
C1551 C1553 1.327 . S
C1551 C1557 1.429 . S
C1552 C1544 1.574 . S
C1552 H1547 0.949 . S
C1552 C1558 1.368 . S
C1553 C1537 1.349 . S
C1553 H1545 0.950 . S
C1553 C1551 1.327 . S
C1554 C1542 1.349 . S
C1554 H1548 0.950 . S
C1554 C1555 1.327 . S
C1555 H1549 0.950 . S
C1555 C1554 1.327 . S
C1555 C1559 1.429 . S
C1556 C1539 1.574 . S
C1556 H1550 0.949 . S
C1556 C1560 1.368 . S
C1557 C1538 1.429 . S
C1557 C1551 1.429 . S
C1557 C1558 1.523 1_565 S
C1558 C1539 1.368 . S
C1558 C1552 1.368 . S
C1558 C1557 1.523 1_545 S
C1559 C1543 1.429 . S
C1559 C1555 1.429 . S
C1559 C1560 1.523 . S
C1560 C1544 1.368 . S
C1560 C1556 1.368 . S
C1560 C1559 1.523 . S
H1561 C1536 0.950 . S
H1562 C1538 0.950 . S
H1563 C1539 0.949 . S
H1564 C1541 0.950 . S
H1565 C1543 0.950 . S
C1566 C1567 1.349 . S
C1566 C1568 1.327 . S
C1566 H1591 0.950 . S
C1567 C1566 1.349 . S
C1567 C1583 1.349 . S
C1568 C1566 1.327 . S
C1568 C1587 1.429 . S
C1568 H1592 0.950 . S
C1569 C1586 1.574 . S
C1569 C1588 1.368 . S
C1569 H1593 0.949 . S
H1570 C1574 0.949 . S
C1571 C1572 1.349 . S
C1571 C1573 1.327 . S
C1571 H1594 0.950 . S
C1572 C1571 1.349 . S
C1572 C1584 1.349 . S
C1573 C1571 1.327 . S
C1573 C1589 1.429 . S
C1573 H1595 0.950 . S
C1574 H1570 0.949 . S
C1574 C1582 1.574 . S
C1574 C1590 1.368 . S
H1575 C1583 0.950 . S
H1576 C1581 0.950 . S
H1577 C1582 0.949 . S
H1578 C1584 0.950 . S
H1579 C1585 0.950 . S
H1580 C1586 0.949 . S
C1581 H1576 0.950 . S
C1581 C1583 1.327 . S
C1581 C1587 1.429 . S
C1582 C1574 1.574 . S
C1582 H1577 0.949 . S
C1582 C1588 1.368 . S
C1583 C1567 1.349 . S
C1583 H1575 0.950 . S
C1583 C1581 1.327 . S
C1584 C1572 1.349 . S
C1584 H1578 0.950 . S
C1584 C1585 1.327 . S
C1585 H1579 0.950 . S
C1585 C1584 1.327 . S
C1585 C1589 1.429 . S
C1586 C1569 1.574 . S
C1586 H1580 0.949 . S
C1586 C1590 1.368 . S
C1587 C1568 1.429 . S
C1587 C1581 1.429 . S
C1587 C1588 1.523 . S
C1588 C1569 1.368 . S
C1588 C1582 1.368 . S
C1588 C1587 1.523 . S
C1589 C1573 1.429 . S
C1589 C1585 1.429 . S
C1589 C1590 1.523 . S
C1590 C1574 1.368 . S
C1590 C1586 1.368 . S
C1590 C1589 1.523 . S
H1591 C1566 0.950 . S
H1592 C1568 0.950 . S
H1593 C1569 0.949 . S
H1594 C1571 0.950 . S
H1595 C1573 0.950 . S
C1596 C1597 1.349 . S
C1596 C1598 1.327 . S
C1596 H1621 0.950 . S
C1597 C1596 1.349 . S
C1597 C1613 1.349 . S
C1598 C1596 1.327 . S
C1598 C1617 1.429 . S
C1598 H1622 0.950 . S
C1599 C1616 1.574 . S
C1599 C1618 1.368 . S
C1599 H1623 0.949 . S
H1600 C1604 0.949 . S
C1601 C1602 1.349 . S
C1601 C1603 1.327 . S
C1601 H1624 0.950 . S
C1602 C1601 1.349 . S
C1602 C1614 1.349 . S
C1603 C1601 1.327 . S
C1603 C1619 1.429 . S
C1603 H1625 0.950 . S
C1604 H1600 0.949 . S
C1604 C1612 1.574 . S
C1604 C1620 1.368 . S
H1605 C1613 0.950 . S
H1606 C1611 0.950 . S
H1607 C1612 0.949 . S
H1608 C1614 0.950 . S
H1609 C1615 0.950 . S
H1610 C1616 0.949 . S
C1611 H1606 0.950 . S
C1611 C1613 1.327 . S
C1611 C1617 1.429 . S
C1612 C1604 1.574 . S
C1612 H1607 0.949 . S
C1612 C1618 1.368 . S
C1613 C1597 1.349 . S
C1613 H1605 0.950 . S
C1613 C1611 1.327 . S
C1614 C1602 1.349 . S
C1614 H1608 0.950 . S
C1614 C1615 1.327 . S
C1615 H1609 0.950 . S
C1615 C1614 1.327 . S
C1615 C1619 1.429 . S
C1616 C1599 1.574 . S
C1616 H1610 0.949 . S
C1616 C1620 1.368 . S
C1617 C1598 1.429 . S
C1617 C1611 1.429 . S
C1617 C1618 1.523 . S
C1618 C1599 1.368 . S
C1618 C1612 1.368 . S
C1618 C1617 1.523 . S
C1619 C1603 1.429 . S
C1619 C1615 1.429 . S
C1619 C1620 1.523 . S
C1620 C1604 1.368 . S
C1620 C1616 1.368 . S
C1620 C1619 1.523 . S
H1621 C1596 0.950 . S
H1622 C1598 0.950 . S
H1623 C1599 0.949 . S
H1624 C1601 0.950 . S
H1625 C1603 0.950 . S
C1626 C1627 1.349 . S
C1626 C1628 1.327 . S
C1626 H1651 0.950 . S
C1627 C1626 1.349 . S
C1627 C1643 1.349 . S
C1628 C1626 1.327 . S
C1628 C1647 1.429 . S
C1628 H1652 0.950 . S
C1629 C1646 1.574 . S
C1629 C1648 1.368 . S
C1629 H1653 0.949 . S
H1630 C1634 0.949 . S
C1631 C1632 1.349 . S
C1631 C1633 1.327 . S
C1631 H1654 0.950 . S
C1632 C1631 1.349 . S
C1632 C1644 1.349 . S
C1633 C1631 1.327 . S
C1633 C1649 1.429 . S
C1633 H1655 0.950 . S
C1634 H1630 0.949 . S
C1634 C1642 1.574 . S
C1634 C1650 1.368 . S
H1635 C1643 0.950 . S
H1636 C1641 0.950 . S
H1637 C1642 0.949 . S
H1638 C1644 0.950 . S
H1639 C1645 0.950 . S
H1640 C1646 0.949 . S
C1641 H1636 0.950 . S
C1641 C1643 1.327 . S
C1641 C1647 1.429 . S
C1642 C1634 1.574 . S
C1642 H1637 0.949 . S
C1642 C1648 1.368 . S
C1643 C1627 1.349 . S
C1643 H1635 0.950 . S
C1643 C1641 1.327 . S
C1644 C1632 1.349 . S
C1644 H1638 0.950 . S
C1644 C1645 1.327 . S
C1645 H1639 0.950 . S
C1645 C1644 1.327 . S
C1645 C1649 1.429 . S
C1646 C1629 1.574 . S
C1646 H1640 0.949 . S
C1646 C1650 1.368 . S
C1647 C1628 1.429 . S
C1647 C1641 1.429 . S
C1647 C1648 1.523 . S
C1648 C1629 1.368 . S
C1648 C1642 1.368 . S
C1648 C1647 1.523 . S
C1649 C1633 1.429 . S
C1649 C1645 1.429 . S
C1649 C1650 1.523 . S
C1650 C1634 1.368 . S
C1650 C1646 1.368 . S
C1650 C1649 1.523 . S
H1651 C1626 0.950 . S
H1652 C1628 0.950 . S
H1653 C1629 0.949 . S
H1654 C1631 0.950 . S
H1655 C1633 0.950 . S
C1656 C1657 1.349 . S
C1656 C1658 1.327 . S
C1656 H1681 0.950 . S
C1657 C1656 1.349 . S
C1657 C1673 1.349 . S
C1658 C1656 1.327 . S
C1658 C1677 1.429 . S
C1658 H1682 0.950 . S
C1659 C1676 1.574 . S
C1659 C1678 1.368 . S
C1659 H1683 0.949 . S
H1660 C1664 0.949 . S
C1661 C1662 1.349 . S
C1661 C1663 1.327 . S
C1661 H1684 0.950 . S
C1662 C1661 1.349 . S
C1662 C1674 1.349 . S
C1663 C1661 1.327 . S
C1663 C1679 1.429 . S
C1663 H1685 0.950 . S
C1664 H1660 0.949 . S
C1664 C1672 1.574 . S
C1664 C1680 1.368 . S
H1665 C1673 0.950 . S
H1666 C1671 0.950 . S
H1667 C1672 0.949 . S
H1668 C1674 0.950 . S
H1669 C1675 0.950 . S
H1670 C1676 0.949 . S
C1671 H1666 0.950 . S
C1671 C1673 1.327 . S
C1671 C1677 1.429 . S
C1672 C1664 1.574 . S
C1672 H1667 0.949 . S
C1672 C1678 1.368 . S
C1673 C1657 1.349 . S
C1673 H1665 0.950 . S
C1673 C1671 1.327 . S
C1674 C1662 1.349 . S
C1674 H1668 0.950 . S
C1674 C1675 1.327 . S
C1675 H1669 0.950 . S
C1675 C1674 1.327 . S
C1675 C1679 1.429 . S
C1676 C1659 1.574 . S
C1676 H1670 0.949 . S
C1676 C1680 1.368 . S
C1677 C1658 1.429 . S
C1677 C1671 1.429 . S
C1677 C1678 1.523 . S
C1678 C1659 1.368 . S
C1678 C1672 1.368 . S
C1678 C1677 1.523 . S
C1679 C1663 1.429 . S
C1679 C1675 1.429 . S
C1679 C1680 1.523 . S
C1680 C1664 1.368 . S
C1680 C1676 1.368 . S
C1680 C1679 1.523 . S
H1681 C1656 0.950 . S
H1682 C1658 0.950 . S
H1683 C1659 0.949 . S
H1684 C1661 0.950 . S
H1685 C1663 0.950 . S
C1686 C1687 1.349 . S
C1686 C1688 1.327 . S
C1686 H1711 0.950 . S
C1687 C1686 1.349 . S
C1687 C1703 1.349 . S
C1688 C1686 1.327 . S
C1688 C1707 1.429 . S
C1688 H1712 0.950 . S
C1689 C1706 1.574 . S
C1689 C1708 1.368 . S
C1689 H1713 0.949 . S
H1690 C1694 0.949 . S
C1691 C1692 1.349 . S
C1691 C1693 1.327 . S
C1691 H1714 0.950 . S
C1692 C1691 1.349 . S
C1692 C1704 1.349 . S
C1693 C1691 1.327 . S
C1693 C1709 1.429 . S
C1693 H1715 0.950 . S
C1694 H1690 0.949 . S
C1694 C1702 1.574 . S
C1694 C1710 1.368 . S
H1695 C1703 0.950 . S
H1696 C1701 0.950 . S
H1697 C1702 0.949 . S
H1698 C1704 0.950 . S
H1699 C1705 0.950 . S
H1700 C1706 0.949 . S
C1701 H1696 0.950 . S
C1701 C1703 1.327 . S
C1701 C1707 1.429 . S
C1702 C1694 1.574 . S
C1702 H1697 0.949 . S
C1702 C1708 1.368 . S
C1703 C1687 1.349 . S
C1703 H1695 0.950 . S
C1703 C1701 1.327 . S
C1704 C1692 1.349 . S
C1704 H1698 0.950 . S
C1704 C1705 1.327 . S
C1705 H1699 0.950 . S
C1705 C1704 1.327 . S
C1705 C1709 1.429 . S
C1706 C1689 1.574 . S
C1706 H1700 0.949 . S
C1706 C1710 1.368 . S
C1707 C1688 1.429 . S
C1707 C1701 1.429 . S
C1707 C1708 1.523 . S
C1708 C1689 1.368 . S
C1708 C1702 1.368 . S
C1708 C1707 1.523 . S
C1709 C1693 1.429 . S
C1709 C1705 1.429 . S
C1709 C1710 1.523 . S
C1710 C1694 1.368 . S
C1710 C1706 1.368 . S
C1710 C1709 1.523 . S
H1711 C1686 0.950 . S
H1712 C1688 0.950 . S
H1713 C1689 0.949 . S
H1714 C1691 0.950 . S
H1715 C1693 0.950 . S
C1716 C1717 1.349 . S
C1716 C1718 1.327 . S
C1716 H1741 0.950 . S
C1717 C1716 1.349 . S
C1717 C1733 1.349 . S
C1718 C1716 1.327 . S
C1718 C1737 1.429 . S
C1718 H1742 0.950 . S
C1719 C1736 1.574 . S
C1719 C1738 1.368 . S
C1719 H1743 0.949 . S
H1720 C1724 0.949 . S
C1721 C1722 1.349 . S
C1721 C1723 1.327 . S
C1721 H1744 0.950 . S
C1722 C1721 1.349 . S
C1722 C1734 1.349 . S
C1723 C1721 1.327 . S
C1723 C1739 1.429 . S
C1723 H1745 0.950 . S
C1724 H1720 0.949 . S
C1724 C1732 1.574 . S
C1724 C1740 1.368 . S
H1725 C1733 0.950 . S
H1726 C1731 0.950 . S
H1727 C1732 0.949 . S
H1728 C1734 0.950 . S
H1729 C1735 0.950 . S
H1730 C1736 0.949 . S
C1731 H1726 0.950 . S
C1731 C1733 1.327 . S
C1731 C1737 1.429 . S
C1732 C1724 1.574 . S
C1732 H1727 0.949 . S
C1732 C1738 1.368 . S
C1733 C1717 1.349 . S
C1733 H1725 0.950 . S
C1733 C1731 1.327 . S
C1734 C1722 1.349 . S
C1734 H1728 0.950 . S
C1734 C1735 1.327 . S
C1735 H1729 0.950 . S
C1735 C1734 1.327 . S
C1735 C1739 1.429 . S
C1736 C1719 1.574 . S
C1736 H1730 0.949 . S
C1736 C1740 1.368 . S
C1737 C1718 1.429 . S
C1737 C1731 1.429 . S
C1737 C1738 1.523 . S
C1738 C1719 1.368 . S
C1738 C1732 1.368 . S
C1738 C1737 1.523 . S
C1739 C1723 1.429 . S
C1739 C1735 1.429 . S
C1739 C1740 1.523 . S
C1740 C1724 1.368 . S
C1740 C1736 1.368 . S
C1740 C1739 1.523 . S
H1741 C1716 0.950 . S
H1742 C1718 0.950 . S
H1743 C1719 0.949 . S
H1744 C1721 0.950 . S
H1745 C1723 0.950 . S
C1746 C1747 1.349 . S
C1746 C1748 1.327 . S
C1746 H1771 0.950 . S
C1747 C1746 1.349 . S
C1747 C1763 1.349 . S
C1748 C1746 1.327 . S
C1748 C1767 1.429 . S
C1748 H1772 0.950 . S
C1749 C1766 1.574 . S
C1749 C1768 1.368 . S
C1749 H1773 0.949 . S
H1750 C1754 0.949 . S
C1751 C1752 1.349 . S
C1751 C1753 1.327 . S
C1751 H1774 0.950 . S
C1752 C1751 1.349 . S
C1752 C1764 1.349 . S
C1753 C1751 1.327 . S
C1753 C1769 1.429 . S
C1753 H1775 0.950 . S
C1754 H1750 0.949 . S
C1754 C1762 1.574 . S
C1754 C1770 1.368 . S
H1755 C1763 0.950 . S
H1756 C1761 0.950 . S
H1757 C1762 0.949 . S
H1758 C1764 0.950 . S
H1759 C1765 0.950 . S
H1760 C1766 0.949 . S
C1761 H1756 0.950 . S
C1761 C1763 1.327 . S
C1761 C1767 1.429 . S
C1762 C1754 1.574 . S
C1762 H1757 0.949 . S
C1762 C1768 1.368 . S
C1763 C1747 1.349 . S
C1763 H1755 0.950 . S
C1763 C1761 1.327 . S
C1764 C1752 1.349 . S
C1764 H1758 0.950 . S
C1764 C1765 1.327 . S
C1765 H1759 0.950 . S
C1765 C1764 1.327 . S
C1765 C1769 1.429 . S
C1766 C1749 1.574 . S
C1766 H1760 0.949 . S
C1766 C1770 1.368 . S
C1767 C1748 1.429 . S
C1767 C1761 1.429 . S
C1767 C1768 1.523 . S
C1768 C1749 1.368 . S
C1768 C1762 1.368 . S
C1768 C1767 1.523 . S
C1769 C1753 1.429 . S
C1769 C1765 1.429 . S
C1769 C1770 1.523 . S
C1770 C1754 1.368 . S
C1770 C1766 1.368 . S
C1770 C1769 1.523 . S
H1771 C1746 0.950 . S
H1772 C1748 0.950 . S
H1773 C1749 0.949 . S
H1774 C1751 0.950 . S
H1775 C1753 0.950 . S
C1776 C1777 1.349 . S
C1776 C1778 1.327 . S
C1776 H1801 0.950 . S
C1777 C1776 1.349 . S
C1777 C1793 1.349 . S
C1778 C1776 1.327 . S
C1778 C1797 1.429 . S
C1778 H1802 0.950 . S
C1779 C1796 1.574 . S
C1779 C1798 1.368 . S
C1779 H1803 0.949 . S
H1780 C1784 0.949 . S
C1781 C1782 1.349 . S
C1781 C1783 1.327 . S
C1781 H1804 0.950 . S
C1782 C1781 1.349 . S
C1782 C1794 1.349 . S
C1783 C1781 1.327 . S
C1783 C1799 1.429 . S
C1783 H1805 0.950 . S
C1784 H1780 0.949 . S
C1784 C1792 1.574 . S
C1784 C1800 1.368 . S
H1785 C1793 0.950 . S
H1786 C1791 0.950 . S
H1787 C1792 0.949 . S
H1788 C1794 0.950 . S
H1789 C1795 0.950 . S
H1790 C1796 0.949 . S
C1791 H1786 0.950 . S
C1791 C1793 1.327 . S
C1791 C1797 1.429 . S
C1792 C1784 1.574 . S
C1792 H1787 0.949 . S
C1792 C1798 1.368 . S
C1793 C1777 1.349 . S
C1793 H1785 0.950 . S
C1793 C1791 1.327 . S
C1794 C1782 1.349 . S
C1794 H1788 0.950 . S
C1794 C1795 1.327 . S
C1795 H1789 0.950 . S
C1795 C1794 1.327 . S
C1795 C1799 1.429 . S
C1796 C1779 1.574 . S
C1796 H1790 0.949 . S
C1796 C1800 1.368 . S
C1797 C1778 1.429 . S
C1797 C1791 1.429 . S
C1797 C1798 1.523 . S
C1798 C1779 1.368 . S
C1798 C1792 1.368 . S
C1798 C1797 1.523 . S
C1799 C1783 1.429 . S
C1799 C1795 1.429 . S
C1799 C1800 1.523 . S
C1800 C1784 1.368 . S
C1800 C1796 1.368 . S
C1800 C1799 1.523 . S
H1801 C1776 0.950 . S
H1802 C1778 0.950 . S
H1803 C1779 0.949 . S
H1804 C1781 0.950 . S
H1805 C1783 0.950 . S
C1806 C1807 1.349 . S
C1806 C1808 1.327 . S
C1806 H1831 0.950 . S
C1807 C1806 1.349 . S
C1807 C1823 1.349 . S
C1808 C1806 1.327 . S
C1808 C1827 1.429 . S
C1808 H1832 0.950 . S
C1809 C1826 1.574 . S
C1809 C1828 1.368 . S
C1809 H1833 0.949 . S
H1810 C1814 0.949 . S
C1811 C1812 1.349 . S
C1811 C1813 1.327 . S
C1811 H1834 0.950 . S
C1812 C1811 1.349 . S
C1812 C1824 1.349 . S
C1813 C1811 1.327 . S
C1813 C1829 1.429 . S
C1813 H1835 0.950 . S
C1814 H1810 0.949 . S
C1814 C1822 1.574 . S
C1814 C1830 1.368 . S
H1815 C1823 0.950 . S
H1816 C1821 0.950 . S
H1817 C1822 0.949 . S
H1818 C1824 0.950 . S
H1819 C1825 0.950 . S
H1820 C1826 0.949 . S
C1821 H1816 0.950 . S
C1821 C1823 1.327 . S
C1821 C1827 1.429 . S
C1822 C1814 1.574 . S
C1822 H1817 0.949 . S
C1822 C1828 1.368 . S
C1823 C1807 1.349 . S
C1823 H1815 0.950 . S
C1823 C1821 1.327 . S
C1824 C1812 1.349 . S
C1824 H1818 0.950 . S
C1824 C1825 1.327 . S
C1825 H1819 0.950 . S
C1825 C1824 1.327 . S
C1825 C1829 1.429 . S
C1826 C1809 1.574 . S
C1826 H1820 0.949 . S
C1826 C1830 1.368 . S
C1827 C1808 1.429 . S
C1827 C1821 1.429 . S
C1827 C1828 1.523 . S
C1828 C1809 1.368 . S
C1828 C1822 1.368 . S
C1828 C1827 1.523 . S
C1829 C1813 1.429 . S
C1829 C1825 1.429 . S
C1829 C1830 1.523 . S
C1830 C1814 1.368 . S
C1830 C1826 1.368 . S
C1830 C1829 1.523 . S
H1831 C1806 0.950 . S
H1832 C1808 0.950 . S
H1833 C1809 0.949 . S
H1834 C1811 0.950 . S
H1835 C1813 0.950 . S
C1836 C1837 1.349 . S
C1836 C1838 1.327 . S
C1836 H1861 0.950 . S
C1837 C1836 1.349 . S
C1837 C1853 1.349 . S
C1838 C1836 1.327 . S
C1838 C1857 1.429 . S
C1838 H1862 0.950 . S
C1839 C1856 1.574 . S
C1839 C1858 1.368 . S
C1839 H1863 0.949 . S
H1840 C1844 0.949 . S
C1841 C1842 1.349 . S
C1841 C1843 1.327 . S
C1841 H1864 0.950 . S
C1842 C1841 1.349 . S
C1842 C1854 1.349 . S
C1843 C1841 1.327 . S
C1843 C1859 1.429 . S
C1843 H1865 0.950 . S
C1844 H1840 0.949 . S
C1844 C1852 1.574 . S
C1844 C1860 1.368 . S
H1845 C1853 0.950 . S
H1846 C1851 0.950 . S
H1847 C1852 0.949 . S
H1848 C1854 0.950 . S
H1849 C1855 0.950 . S
H1850 C1856 0.949 . S
C1851 H1846 0.950 . S
C1851 C1853 1.327 . S
C1851 C1857 1.429 . S
C1852 C1844 1.574 . S
C1852 H1847 0.949 . S
C1852 C1858 1.368 . S
C1853 C1837 1.349 . S
C1853 H1845 0.950 . S
C1853 C1851 1.327 . S
C1854 C1842 1.349 . S
C1854 H1848 0.950 . S
C1854 C1855 1.327 . S
C1855 H1849 0.950 . S
C1855 C1854 1.327 . S
C1855 C1859 1.429 . S
C1856 C1839 1.574 . S
C1856 H1850 0.949 . S
C1856 C1860 1.368 . S
C1857 C1838 1.429 . S
C1857 C1851 1.429 . S
C1857 C1858 1.523 . S
C1858 C1839 1.368 . S
C1858 C1852 1.368 . S
C1858 C1857 1.523 . S
C1859 C1843 1.429 . S
C1859 C1855 1.429 . S
C1859 C1860 1.523 . S
C1860 C1844 1.368 . S
C1860 C1856 1.368 . S
C1860 C1859 1.523 . S
H1861 C1836 0.950 . S
H1862 C1838 0.950 . S
H1863 C1839 0.949 . S
H1864 C1841 0.950 . S
H1865 C1843 0.950 . S
C1866 C1867 1.349 . S
C1866 C1868 1.327 . S
C1866 H1891 0.950 . S
C1867 C1866 1.349 . S
C1867 C1883 1.349 . S
C1868 C1866 1.327 . S
C1868 C1887 1.429 . S
C1868 H1892 0.950 . S
C1869 C1886 1.574 . S
C1869 C1888 1.368 . S
C1869 H1893 0.949 . S
H1870 C1874 0.949 . S
C1871 C1872 1.349 . S
C1871 C1873 1.327 . S
C1871 H1894 0.950 . S
C1872 C1871 1.349 . S
C1872 C1884 1.349 . S
C1873 C1871 1.327 . S
C1873 C1889 1.429 . S
C1873 H1895 0.950 . S
C1874 H1870 0.949 . S
C1874 C1882 1.574 . S
C1874 C1890 1.368 . S
H1875 C1883 0.950 . S
H1876 C1881 0.950 . S
H1877 C1882 0.949 . S
H1878 C1884 0.950 . S
H1879 C1885 0.950 . S
H1880 C1886 0.949 . S
C1881 H1876 0.950 . S
C1881 C1883 1.327 . S
C1881 C1887 1.429 . S
C1882 C1874 1.574 . S
C1882 H1877 0.949 . S
C1882 C1888 1.368 . S
C1883 C1867 1.349 . S
C1883 H1875 0.950 . S
C1883 C1881 1.327 . S
C1884 C1872 1.349 . S
C1884 H1878 0.950 . S
C1884 C1885 1.327 . S
C1885 H1879 0.950 . S
C1885 C1884 1.327 . S
C1885 C1889 1.429 . S
C1886 C1869 1.574 . S
C1886 H1880 0.949 . S
C1886 C1890 1.368 . S
C1887 C1868 1.429 . S
C1887 C1881 1.429 . S
C1887 C1888 1.523 . S
C1888 C1869 1.368 . S
C1888 C1882 1.368 . S
C1888 C1887 1.523 . S
C1889 C1873 1.429 . S
C1889 C1885 1.429 . S
C1889 C1890 1.523 . S
C1890 C1874 1.368 . S
C1890 C1886 1.368 . S
C1890 C1889 1.523 . S
H1891 C1866 0.950 . S
H1892 C1868 0.950 . S
H1893 C1869 0.949 . S
H1894 C1871 0.950 . S
H1895 C1873 0.950 . S
C1896 C1897 1.349 . S
C1896 C1898 1.327 . S
C1896 H1921 0.950 . S
C1897 C1896 1.349 . S
C1897 C1913 1.349 . S
C1898 C1896 1.327 . S
C1898 C1917 1.429 . S
C1898 H1922 0.950 . S
C1899 C1916 1.574 . S
C1899 C1918 1.368 . S
C1899 H1923 0.949 . S
H1900 C1904 0.949 . S
C1901 C1902 1.349 . S
C1901 C1903 1.327 . S
C1901 H1924 0.950 . S
C1902 C1901 1.349 . S
C1902 C1914 1.349 . S
C1903 C1901 1.327 . S
C1903 C1919 1.429 . S
C1903 H1925 0.950 . S
C1904 H1900 0.949 . S
C1904 C1912 1.574 . S
C1904 C1920 1.368 . S
H1905 C1913 0.950 . S
H1906 C1911 0.950 . S
H1907 C1912 0.949 . S
H1908 C1914 0.950 . S
H1909 C1915 0.950 . S
H1910 C1916 0.949 . S
C1911 H1906 0.950 . S
C1911 C1913 1.327 . S
C1911 C1917 1.429 . S
C1912 C1904 1.574 . S
C1912 H1907 0.949 . S
C1912 C1918 1.368 . S
C1913 C1897 1.349 . S
C1913 H1905 0.950 . S
C1913 C1911 1.327 . S
C1914 C1902 1.349 . S
C1914 H1908 0.950 . S
C1914 C1915 1.327 . S
C1915 H1909 0.950 . S
C1915 C1914 1.327 . S
C1915 C1919 1.429 . S
C1916 C1899 1.574 . S
C1916 H1910 0.949 . S
C1916 C1920 1.368 . S
C1917 C1898 1.429 . S
C1917 C1911 1.429 . S
C1917 C1918 1.523 . S
C1918 C1899 1.368 . S
C1918 C1912 1.368 . S
C1918 C1917 1.523 . S
C1919 C1903 1.429 . S
C1919 C1915 1.429 . S
C1919 C1920 1.523 . S
C1920 C1904 1.368 . S
C1920 C1916 1.368 . S
C1920 C1919 1.523 . S
H1921 C1896 0.950 . S
H1922 C1898 0.950 . S
H1923 C1899 0.949 . S
H1924 C1901 0.950 . S
H1925 C1903 0.950 . S
C1926 C1927 1.349 . S
C1926 C1928 1.327 . S
C1926 H1951 0.950 . S
C1927 C1926 1.349 . S
C1927 C1943 1.349 . S
C1928 C1926 1.327 . S
C1928 C1947 1.429 . S
C1928 H1952 0.950 . S
C1929 C1946 1.574 . S
C1929 C1948 1.368 . S
C1929 H1953 0.949 . S
H1930 C1934 0.949 . S
C1931 C1932 1.349 . S
C1931 C1933 1.327 . S
C1931 H1954 0.950 . S
C1932 C1931 1.349 . S
C1932 C1944 1.349 . S
C1933 C1931 1.327 . S
C1933 C1949 1.429 . S
C1933 H1955 0.950 . S
C1934 H1930 0.949 . S
C1934 C1942 1.574 . S
C1934 C1950 1.368 . S
H1935 C1943 0.950 . S
H1936 C1941 0.950 . S
H1937 C1942 0.949 . S
H1938 C1944 0.950 . S
H1939 C1945 0.950 . S
H1940 C1946 0.949 . S
C1941 H1936 0.950 . S
C1941 C1943 1.327 . S
C1941 C1947 1.429 . S
C1942 C1934 1.574 . S
C1942 H1937 0.949 . S
C1942 C1948 1.368 . S
C1943 C1927 1.349 . S
C1943 H1935 0.950 . S
C1943 C1941 1.327 . S
C1944 C1932 1.349 . S
C1944 H1938 0.950 . S
C1944 C1945 1.327 . S
C1945 H1939 0.950 . S
C1945 C1944 1.327 . S
C1945 C1949 1.429 . S
C1946 C1929 1.574 . S
C1946 H1940 0.949 . S
C1946 C1950 1.368 . S
C1947 C1928 1.429 . S
C1947 C1941 1.429 . S
C1947 C1948 1.523 . S
C1948 C1929 1.368 . S
C1948 C1942 1.368 . S
C1948 C1947 1.523 . S
C1949 C1933 1.429 . S
C1949 C1945 1.429 . S
C1949 C1950 1.523 . S
C1950 C1934 1.368 . S
C1950 C1946 1.368 . S
C1950 C1949 1.523 . S
H1951 C1926 0.950 . S
H1952 C1928 0.950 . S
H1953 C1929 0.949 . S
H1954 C1931 0.950 . S
H1955 C1933 0.950 . S
C1956 C1957 1.349 . S
C1956 C1958 1.327 . S
C1956 H1981 0.950 . S
C1957 C1956 1.349 . S
C1957 C1973 1.349 . S
C1958 C1956 1.327 . S
C1958 C1977 1.429 . S
C1958 H1982 0.950 . S
C1959 C1976 1.574 . S
C1959 C1978 1.368 . S
C1959 H1983 0.949 . S
H1960 C1964 0.949 . S
C1961 C1962 1.349 . S
C1961 C1963 1.327 . S
C1961 H1984 0.950 . S
C1962 C1961 1.349 . S
C1962 C1974 1.349 . S
C1963 C1961 1.327 . S
C1963 C1979 1.429 . S
C1963 H1985 0.950 . S
C1964 H1960 0.949 . S
C1964 C1972 1.574 . S
C1964 C1980 1.368 . S
H1965 C1973 0.950 . S
H1966 C1971 0.950 . S
H1967 C1972 0.949 . S
H1968 C1974 0.950 . S
H1969 C1975 0.950 . S
H1970 C1976 0.949 . S
C1971 H1966 0.950 . S
C1971 C1973 1.327 . S
C1971 C1977 1.429 . S
C1972 C1964 1.574 . S
C1972 H1967 0.949 . S
C1972 C1978 1.368 . S
C1973 C1957 1.349 . S
C1973 H1965 0.950 . S
C1973 C1971 1.327 . S
C1974 C1962 1.349 . S
C1974 H1968 0.950 . S
C1974 C1975 1.327 . S
C1975 H1969 0.950 . S
C1975 C1974 1.327 . S
C1975 C1979 1.429 . S
C1976 C1959 1.574 . S
C1976 H1970 0.949 . S
C1976 C1980 1.368 . S
C1977 C1958 1.429 . S
C1977 C1971 1.429 . S
C1977 C1978 1.523 . S
C1978 C1959 1.368 . S
C1978 C1972 1.368 . S
C1978 C1977 1.523 . S
C1979 C1963 1.429 . S
C1979 C1975 1.429 . S
C1979 C1980 1.523 . S
C1980 C1964 1.368 . S
C1980 C1976 1.368 . S
C1980 C1979 1.523 . S
H1981 C1956 0.950 . S
H1982 C1958 0.950 . S
H1983 C1959 0.949 . S
H1984 C1961 0.950 . S
H1985 C1963 0.950 . S
C1986 C1987 1.349 . S
C1986 C1988 1.327 . S
C1986 H2011 0.950 . S
C1987 C1986 1.349 . S
C1987 C2003 1.349 . S
C1988 C1986 1.327 . S
C1988 C2007 1.429 . S
C1988 H2012 0.950 . S
C1989 C2006 1.574 . S
C1989 C2008 1.368 . S
C1989 H2013 0.949 . S
H1990 C1994 0.949 . S
C1991 C1992 1.349 . S
C1991 C1993 1.327 . S
C1991 H2014 0.950 . S
C1992 C1991 1.349 . S
C1992 C2004 1.349 . S
C1993 C1991 1.327 . S
C1993 C2009 1.429 . S
C1993 H2015 0.950 . S
C1994 H1990 0.949 . S
C1994 C2002 1.574 . S
C1994 C2010 1.368 . S
H1995 C2003 0.950 . S
H1996 C2001 0.950 . S
H1997 C2002 0.949 . S
H1998 C2004 0.950 . S
H1999 C2005 0.950 . S
H2000 C2006 0.949 . S
C2001 H1996 0.950 . S
C2001 C2003 1.327 . S
C2001 C2007 1.429 . S
C2002 C1994 1.574 . S
C2002 H1997 0.949 . S
C2002 C2008 1.368 . S
C2003 C1987 1.349 . S
C2003 H1995 0.950 . S
C2003 C2001 1.327 . S
C2004 C1992 1.349 . S
C2004 H1998 0.950 . S
C2004 C2005 1.327 . S
C2005 H1999 0.950 . S
C2005 C2004 1.327 . S
C2005 C2009 1.429 . S
C2006 C1989 1.574 . S
C2006 H2000 0.949 . S
C2006 C2010 1.368 . S
C2007 C1988 1.429 . S
C2007 C2001 1.429 . S
C2007 C2008 1.523 . S
C2008 C1989 1.368 . S
C2008 C2002 1.368 . S
C2008 C2007 1.523 . S
C2009 C1993 1.429 . S
C2009 C2005 1.429 . S
C2009 C2010 1.523 . S
C2010 C1994 1.368 . S
C2010 C2006 1.368 . S
C2010 C2009 1.523 . S
H2011 C1986 0.950 . S
H2012 C1988 0.950 . S
H2013 C1989 0.949 . S
H2014 C1991 0.950 . S
H2015 C1993 0.950 . S
C2016 C2017 1.349 . S
C2016 C2018 1.327 . S
C2016 H2041 0.950 . S
C2017 C2016 1.349 . S
C2017 C2033 1.349 . S
C2018 C2016 1.327 . S
C2018 C2037 1.429 . S
C2018 H2042 0.950 . S
C2019 C2036 1.574 . S
C2019 C2038 1.368 . S
C2019 H2043 0.949 . S
H2020 C2024 0.949 . S
C2021 C2022 1.349 . S
C2021 C2023 1.327 . S
C2021 H2044 0.950 . S
C2022 C2021 1.349 . S
C2022 C2034 1.349 . S
C2023 C2021 1.327 . S
C2023 C2039 1.429 . S
C2023 H2045 0.950 . S
C2024 H2020 0.949 . S
C2024 C2032 1.574 . S
C2024 C2040 1.368 . S
H2025 C2033 0.950 . S
H2026 C2031 0.950 . S
H2027 C2032 0.949 . S
H2028 C2034 0.950 . S
H2029 C2035 0.950 . S
H2030 C2036 0.949 . S
C2031 H2026 0.950 . S
C2031 C2033 1.327 . S
C2031 C2037 1.429 . S
C2032 C2024 1.574 . S
C2032 H2027 0.949 . S
C2032 C2038 1.368 . S
C2033 C2017 1.349 . S
C2033 H2025 0.950 . S
C2033 C2031 1.327 . S
C2034 C2022 1.349 . S
C2034 H2028 0.950 . S
C2034 C2035 1.327 . S
C2035 H2029 0.950 . S
C2035 C2034 1.327 . S
C2035 C2039 1.429 . S
C2036 C2019 1.574 . S
C2036 H2030 0.949 . S
C2036 C2040 1.368 . S
C2037 C2018 1.429 . S
C2037 C2031 1.429 . S
C2037 C2038 1.523 . S
C2038 C2019 1.368 . S
C2038 C2032 1.368 . S
C2038 C2037 1.523 . S
C2039 C2023 1.429 . S
C2039 C2035 1.429 . S
C2039 C2040 1.523 . S
C2040 C2024 1.368 . S
C2040 C2036 1.368 . S
C2040 C2039 1.523 . S
H2041 C2016 0.950 . S
H2042 C2018 0.950 . S
H2043 C2019 0.949 . S
H2044 C2021 0.950 . S
H2045 C2023 0.950 . S
C2046 C2047 1.349 . S
C2046 C2048 1.327 . S
C2046 H2071 0.950 . S
C2047 C2046 1.349 . S
C2047 C2063 1.349 . S
C2048 C2046 1.327 . S
C2048 C2067 1.429 . S
C2048 H2072 0.950 . S
C2049 C2066 1.574 . S
C2049 C2068 1.368 . S
C2049 H2073 0.949 . S
H2050 C2054 0.949 . S
C2051 C2052 1.349 . S
C2051 C2053 1.327 . S
C2051 H2074 0.950 . S
C2052 C2051 1.349 . S
C2052 C2064 1.349 . S
C2053 C2051 1.327 . S
C2053 C2069 1.429 . S
C2053 H2075 0.950 . S
C2054 H2050 0.949 . S
C2054 C2062 1.574 . S
C2054 C2070 1.368 . S
H2055 C2063 0.950 . S
H2056 C2061 0.950 . S
H2057 C2062 0.949 . S
H2058 C2064 0.950 . S
H2059 C2065 0.950 . S
H2060 C2066 0.949 . S
C2061 H2056 0.950 . S
C2061 C2063 1.327 . S
C2061 C2067 1.429 . S
C2062 C2054 1.574 . S
C2062 H2057 0.949 . S
C2062 C2068 1.368 . S
C2063 C2047 1.349 . S
C2063 H2055 0.950 . S
C2063 C2061 1.327 . S
C2064 C2052 1.349 . S
C2064 H2058 0.950 . S
C2064 C2065 1.327 . S
C2065 H2059 0.950 . S
C2065 C2064 1.327 . S
C2065 C2069 1.429 . S
C2066 C2049 1.574 . S
C2066 H2060 0.949 . S
C2066 C2070 1.368 . S
C2067 C2048 1.429 . S
C2067 C2061 1.429 . S
C2067 C2068 1.523 . S
C2068 C2049 1.368 . S
C2068 C2062 1.368 . S
C2068 C2067 1.523 . S
C2069 C2053 1.429 . S
C2069 C2065 1.429 . S
C2069 C2070 1.523 . S
C2070 C2054 1.368 . S
C2070 C2066 1.368 . S
C2070 C2069 1.523 . S
H2071 C2046 0.950 . S
H2072 C2048 0.950 . S
H2073 C2049 0.949 . S
H2074 C2051 0.950 . S
H2075 C2053 0.950 . S
C2076 C2077 1.349 . S
C2076 C2078 1.327 . S
C2076 H2101 0.950 . S
C2077 C2076 1.349 . S
C2077 C2093 1.349 . S
C2078 C2076 1.327 . S
C2078 C2097 1.429 . S
C2078 H2102 0.950 . S
C2079 C2096 1.574 . S
C2079 C2098 1.368 . S
C2079 H2103 0.949 . S
H2080 C2084 0.949 . S
C2081 C2082 1.349 . S
C2081 C2083 1.327 . S
C2081 H2104 0.950 . S
C2082 C2081 1.349 . S
C2082 C2094 1.349 . S
C2083 C2081 1.327 . S
C2083 C2099 1.429 . S
C2083 H2105 0.950 . S
C2084 H2080 0.949 . S
C2084 C2092 1.574 . S
C2084 C2100 1.368 . S
H2085 C2093 0.950 . S
H2086 C2091 0.950 . S
H2087 C2092 0.949 . S
H2088 C2094 0.950 . S
H2089 C2095 0.950 . S
H2090 C2096 0.949 . S
C2091 H2086 0.950 . S
C2091 C2093 1.327 . S
C2091 C2097 1.429 . S
C2092 C2084 1.574 . S
C2092 H2087 0.949 . S
C2092 C2098 1.368 . S
C2093 C2077 1.349 . S
C2093 H2085 0.950 . S
C2093 C2091 1.327 . S
C2094 C2082 1.349 . S
C2094 H2088 0.950 . S
C2094 C2095 1.327 . S
C2095 H2089 0.950 . S
C2095 C2094 1.327 . S
C2095 C2099 1.429 . S
C2096 C2079 1.574 . S
C2096 H2090 0.949 . S
C2096 C2100 1.368 . S
C2097 C2078 1.429 . S
C2097 C2091 1.429 . S
C2097 C2098 1.523 . S
C2098 C2079 1.368 . S
C2098 C2092 1.368 . S
C2098 C2097 1.523 . S
C2099 C2083 1.429 . S
C2099 C2095 1.429 . S
C2099 C2100 1.523 . S
C2100 C2084 1.368 . S
C2100 C2096 1.368 . S
C2100 C2099 1.523 . S
H2101 C2076 0.950 . S
H2102 C2078 0.950 . S
H2103 C2079 0.949 . S
H2104 C2081 0.950 . S
H2105 C2083 0.950 . S
C2106 C2107 1.349 . S
C2106 C2108 1.327 . S
C2106 H2131 0.950 . S
C2107 C2106 1.349 . S
C2107 C2123 1.349 . S
C2108 C2106 1.327 . S
C2108 C2127 1.429 . S
C2108 H2132 0.950 . S
C2109 C2126 1.574 . S
C2109 C2128 1.368 . S
C2109 H2133 0.949 . S
H2110 C2114 0.949 . S
C2111 C2112 1.349 . S
C2111 C2113 1.327 . S
C2111 H2134 0.950 . S
C2112 C2111 1.349 . S
C2112 C2124 1.349 . S
C2113 C2111 1.327 . S
C2113 C2129 1.429 . S
C2113 H2135 0.950 . S
C2114 H2110 0.949 . S
C2114 C2122 1.574 . S
C2114 C2130 1.368 . S
H2115 C2123 0.950 . S
H2116 C2121 0.950 . S
H2117 C2122 0.949 . S
H2118 C2124 0.950 . S
H2119 C2125 0.950 . S
H2120 C2126 0.949 . S
C2121 H2116 0.950 . S
C2121 C2123 1.327 . S
C2121 C2127 1.429 . S
C2122 C2114 1.574 . S
C2122 H2117 0.949 . S
C2122 C2128 1.368 . S
C2123 C2107 1.349 . S
C2123 H2115 0.950 . S
C2123 C2121 1.327 . S
C2124 C2112 1.349 . S
C2124 H2118 0.950 . S
C2124 C2125 1.327 . S
C2125 H2119 0.950 . S
C2125 C2124 1.327 . S
C2125 C2129 1.429 . S
C2126 C2109 1.574 . S
C2126 H2120 0.949 . S
C2126 C2130 1.368 . S
C2127 C2108 1.429 . S
C2127 C2121 1.429 . S
C2127 C2128 1.523 . S
C2128 C2109 1.368 . S
C2128 C2122 1.368 . S
C2128 C2127 1.523 . S
C2129 C2113 1.429 . S
C2129 C2125 1.429 . S
C2129 C2130 1.523 . S
C2130 C2114 1.368 . S
C2130 C2126 1.368 . S
C2130 C2129 1.523 . S
H2131 C2106 0.950 . S
H2132 C2108 0.950 . S
H2133 C2109 0.949 . S
H2134 C2111 0.950 . S
H2135 C2113 0.950 . S
C2136 C2137 1.349 . S
C2136 C2138 1.327 . S
C2136 H2161 0.950 . S
C2137 C2136 1.349 . S
C2137 C2153 1.349 . S
C2138 C2136 1.327 . S
C2138 C2157 1.429 . S
C2138 H2162 0.950 . S
C2139 C2156 1.574 . S
C2139 C2158 1.368 . S
C2139 H2163 0.949 . S
H2140 C2144 0.949 . S
C2141 C2142 1.349 . S
C2141 C2143 1.327 . S
C2141 H2164 0.950 . S
C2142 C2141 1.349 . S
C2142 C2154 1.349 . S
C2143 C2141 1.327 . S
C2143 C2159 1.429 . S
C2143 H2165 0.950 . S
C2144 H2140 0.949 . S
C2144 C2152 1.574 . S
C2144 C2160 1.368 . S
H2145 C2153 0.950 . S
H2146 C2151 0.950 . S
H2147 C2152 0.949 . S
H2148 C2154 0.950 . S
H2149 C2155 0.950 . S
H2150 C2156 0.949 . S
C2151 H2146 0.950 . S
C2151 C2153 1.327 . S
C2151 C2157 1.429 . S
C2152 C2144 1.574 . S
C2152 H2147 0.949 . S
C2152 C2158 1.368 . S
C2153 C2137 1.349 . S
C2153 H2145 0.950 . S
C2153 C2151 1.327 . S
C2154 C2142 1.349 . S
C2154 H2148 0.950 . S
C2154 C2155 1.327 . S
C2155 H2149 0.950 . S
C2155 C2154 1.327 . S
C2155 C2159 1.429 . S
C2156 C2139 1.574 . S
C2156 H2150 0.949 . S
C2156 C2160 1.368 . S
C2157 C2138 1.429 . S
C2157 C2151 1.429 . S
C2157 C2158 1.523 . S
C2158 C2139 1.368 . S
C2158 C2152 1.368 . S
C2158 C2157 1.523 . S
C2159 C2143 1.429 . S
C2159 C2155 1.429 . S
C2159 C2160 1.523 . S
C2160 C2144 1.368 . S
C2160 C2156 1.368 . S
C2160 C2159 1.523 . S
H2161 C2136 0.950 . S
H2162 C2138 0.950 . S
H2163 C2139 0.949 . S
H2164 C2141 0.950 . S
H2165 C2143 0.950 . S
C2166 C2167 1.349 . S
C2166 C2168 1.327 . S
C2166 H2191 0.950 . S
C2167 C2166 1.349 . S
C2167 C2183 1.349 . S
C2168 C2166 1.327 . S
C2168 C2187 1.429 . S
C2168 H2192 0.950 . S
C2169 C2186 1.574 . S
C2169 C2188 1.368 . S
C2169 H2193 0.949 . S
H2170 C2174 0.949 . S
C2171 C2172 1.349 . S
C2171 C2173 1.327 . S
C2171 H2194 0.950 . S
C2172 C2171 1.349 . S
C2172 C2184 1.349 . S
C2173 C2171 1.327 . S
C2173 C2189 1.429 . S
C2173 H2195 0.950 . S
C2174 H2170 0.949 . S
C2174 C2182 1.574 . S
C2174 C2190 1.368 . S
H2175 C2183 0.950 . S
H2176 C2181 0.950 . S
H2177 C2182 0.949 . S
H2178 C2184 0.950 . S
H2179 C2185 0.950 . S
H2180 C2186 0.949 . S
C2181 H2176 0.950 . S
C2181 C2183 1.327 . S
C2181 C2187 1.429 . S
C2182 C2174 1.574 . S
C2182 H2177 0.949 . S
C2182 C2188 1.368 . S
C2183 C2167 1.349 . S
C2183 H2175 0.950 . S
C2183 C2181 1.327 . S
C2184 C2172 1.349 . S
C2184 H2178 0.950 . S
C2184 C2185 1.327 . S
C2185 H2179 0.950 . S
C2185 C2184 1.327 . S
C2185 C2189 1.429 . S
C2186 C2169 1.574 . S
C2186 H2180 0.949 . S
C2186 C2190 1.368 . S
C2187 C2168 1.429 . S
C2187 C2181 1.429 . S
C2187 C2188 1.523 . S
C2188 C2169 1.368 . S
C2188 C2182 1.368 . S
C2188 C2187 1.523 . S
C2189 C2173 1.429 . S
C2189 C2185 1.429 . S
C2189 C2190 1.523 . S
C2190 C2174 1.368 . S
C2190 C2186 1.368 . S
C2190 C2189 1.523 . S
H2191 C2166 0.950 . S
H2192 C2168 0.950 . S
H2193 C2169 0.949 . S
H2194 C2171 0.950 . S
H2195 C2173 0.950 . S
C577 C162 1.679 . S
C582 C225 1.672 . S
C607 C174 1.833 . S
C612 C265 1.824 . S
C637 C150 1.606 . S
C642 C304 1.570 . S
C667 C138 1.467 . S
C672 C264 1.441 . S
C702 C305 1.485 1_556 S
C697 C114 1.491 . S
C727 C126 1.317 . S
C732 C224 1.295 . S
C762 C235 1.641 1_556 S
C757 C136 1.648 . S
C792 C275 1.670 . S
C787 C112 1.677 . S
C817 C124 1.657 . S
C822 C314 1.678 . S
C847 C160 1.484 . S
C852 C274 1.488 . S
C877 C172 1.432 . S
C882 C315 1.418 . S
C912 C234 1.435 . S
C907 C148 1.415 . S
C942 C345 1.672 . S
C937 C18 1.679 . S
C967 C30 1.833 . S
C972 C385 1.824 . S
C997 C6 1.606 . S
C1002 C424 1.570 . S
C1027 C210 1.467 . S
C1032 C384 1.425 . S
C1057 C186 1.491 . S
C1062 C425 1.486 . S
C1087 C198 1.318 . S
C1092 C344 1.295 . S
C1117 C208 1.649 . S
C1122 C355 1.641 . S
C1147 C184 1.677 . S
C1152 C395 1.670 . S
C1182 C434 1.677 . S
C1177 C196 1.656 . S
C1207 C16 1.484 . S
C1212 C394 1.488 . S
C1242 C435 1.418 . S
C1237 C28 1.432 . S
C1267 C4 1.415 . S
C1272 C354 1.435 . S
C1302 C465 1.672 . S
C1297 C90 1.679 . S
C1327 C102 1.833 . S
C1332 C505 1.824 . S
C1362 C544 1.570 . S
C1357 C78 1.606 . S
C1392 C504 1.426 . S
C1387 C66 1.468 . S
C1422 C545 1.485 . S
C1417 C42 1.491 . S
C1447 C54 1.318 . S
C1452 C464 1.295 . S
C1477 C64 1.649 . S
C1482 C475 1.641 . S
C1507 C40 1.677 . S
C1512 C515 1.670 . S
C1542 C554 1.678 . S
C1537 C52 1.657 . S
C1567 C88 1.484 . S
C1572 C514 1.488 . S
C1597 C100 1.432 . S
C1602 C555 1.419 . S
C1627 C76 1.415 . S
C1632 C474 1.435 . S
C1657 C189 1.434 . S
C1662 C221 1.425 . S
C1692 C261 1.985 . S
C1687 C201 1.988 . S
C1717 C213 1.573 . S
C1722 C311 1.586 . S
C1747 C81 1.832 . S
C1752 C271 1.845 . S
C1777 C93 1.699 . S
C1782 C301 1.699 . S
C1812 C231 1.270 . S
C1807 C105 1.262 . S
C1837 C45 1.434 . S
C1842 C341 1.425 . S
C1867 C57 1.989 . S
C1872 C381 1.985 . S
C1897 C69 1.573 . S
C1902 C431 1.586 . S
C1927 C153 1.832 . S
C1932 C391 1.845 . S
C1962 C421 1.699 . S
C1957 C165 1.699 . S
C1987 C177 1.262 . S
C1992 C351 1.270 . S
C2017 C117 1.434 . S
C2022 C461 1.425 . S
C2047 C129 1.989 . S
C2052 C501 1.985 . S
C2082 C551 1.586 . S
C2077 C141 1.573 . S
C2107 C9 1.832 . S
C2112 C511 1.845 . S
C2137 C21 1.699 . S
C2142 C541 1.699 . S
C2167 C33 1.262 . S
C2172 C471 1.270 . S
