# Generated by pormake.
# Topology nom, (4,4)-cn, num edge types: 1
# Building blocks:
#     Node 0, Type 0, BuildingBlock: NAWXER_clean_linker_0, # of connection points: 4
#     Node 1, Type 0, BuildingBlock: NAWXER_clean_linker_0, # of connection points: 4
#     Node 2, Type 0, BuildingBlock: NAWXER_clean_linker_0, # of connection points: 4
#     Node 3, Type 0, BuildingBlock: NAWXER_clean_linker_0, # of connection points: 4
#     Node 4, Type 0, BuildingBlock: NAWXER_clean_linker_0, # of connection points: 4
#     Node 5, Type 0, BuildingBlock: NAWXER_clean_linker_0, # of connection points: 4
#     Node 6, Type 1, BuildingBlock: GALJAG_clean_sbu_0, # of connection points: 4
#     Node 7, Type 1, BuildingBlock: GALJAG_clean_sbu_0, # of connection points: 4
#     Node 8, Type 1, BuildingBlock: GALJAG_clean_sbu_0, # of connection points: 4
#     Node 9, Type 1, BuildingBlock: GALJAG_clean_sbu_0, # of connection points: 4
#     Node 10, Type 1, BuildingBlock: GALJAG_clean_sbu_0, # of connection points: 4
#     Node 11, Type 1, BuildingBlock: GALJAG_clean_sbu_0, # of connection points: 4
#     Edge 12, Type (0, 1), BuildingBlock: UVAHIK_clean_linker_0, # of connection points: 2
#     Edge 13, Type (0, 1), BuildingBlock: UVAHIK_clean_linker_0, # of connection points: 2
#     Edge 14, Type (0, 1), BuildingBlock: UVAHIK_clean_linker_0, # of connection points: 2
#     Edge 15, Type (0, 1), BuildingBlock: UVAHIK_clean_linker_0, # of connection points: 2
#     Edge 16, Type (0, 1), BuildingBlock: UVAHIK_clean_linker_0, # of connection points: 2
#     Edge 17, Type (0, 1), BuildingBlock: UVAHIK_clean_linker_0, # of connection points: 2
#     Edge 18, Type (0, 1), BuildingBlock: UVAHIK_clean_linker_0, # of connection points: 2
#     Edge 19, Type (0, 1), BuildingBlock: UVAHIK_clean_linker_0, # of connection points: 2
#     Edge 20, Type (0, 1), BuildingBlock: UVAHIK_clean_linker_0, # of connection points: 2
#     Edge 21, Type (0, 1), BuildingBlock: UVAHIK_clean_linker_0, # of connection points: 2
#     Edge 22, Type (0, 1), BuildingBlock: UVAHIK_clean_linker_0, # of connection points: 2
#     Edge 23, Type (0, 1), BuildingBlock: UVAHIK_clean_linker_0, # of connection points: 2
#     Edge 24, Type (0, 1), BuildingBlock: UVAHIK_clean_linker_0, # of connection points: 2
#     Edge 25, Type (0, 1), BuildingBlock: UVAHIK_clean_linker_0, # of connection points: 2
#     Edge 26, Type (0, 1), BuildingBlock: UVAHIK_clean_linker_0, # of connection points: 2
#     Edge 27, Type (0, 1), BuildingBlock: UVAHIK_clean_linker_0, # of connection points: 2
#     Edge 28, Type (0, 1), BuildingBlock: UVAHIK_clean_linker_0, # of connection points: 2
#     Edge 29, Type (0, 1), BuildingBlock: UVAHIK_clean_linker_0, # of connection points: 2
#     Edge 30, Type (0, 1), BuildingBlock: UVAHIK_clean_linker_0, # of connection points: 2
#     Edge 31, Type (0, 1), BuildingBlock: UVAHIK_clean_linker_0, # of connection points: 2
#     Edge 32, Type (0, 1), BuildingBlock: UVAHIK_clean_linker_0, # of connection points: 2
#     Edge 33, Type (0, 1), BuildingBlock: UVAHIK_clean_linker_0, # of connection points: 2
#     Edge 34, Type (0, 1), BuildingBlock: UVAHIK_clean_linker_0, # of connection points: 2
#     Edge 35, Type (0, 1), BuildingBlock: UVAHIK_clean_linker_0, # of connection points: 2
# Relax obj value: 0.004
# Max RMSD: 0.115
# Mean RMSD: 0.086
data_MOF--net-nom--node1-GALJAG_clean_sbu_0--node2-NAWXER_clean_linker_0--edge1-UVAHIK_clean_linker_0
_symmetry_space_group_name_H-M    P1
_symmetry_Int_Tables_number       1
_symmetry_cell_setting            triclinic
loop_
_symmetry_equiv_pos_as_xyz
'x, y, z'
_cell_length_a     65.090284
_cell_length_b     64.961178
_cell_length_c     74.369326
_cell_angle_alpha  90.026831
_cell_angle_beta   90.022168
_cell_angle_gamma 120.07762
loop_
_atom_site_label
_atom_site_type_symbol
_atom_site_fract_x
_atom_site_fract_y
_atom_site_fract_z
_atom_type_partial_charge
C0 C 0.92439 0.53281 0.33267 0.0
C1 C 0.91581 0.5151 0.34603 0.0
C2 C 0.9479 0.54332 0.32682 0.0
C3 C 0.96322 0.536 0.33391 0.0
C4 C 0.93129 0.50803 0.35326 0.0
C5 C 0.95474 0.5184 0.34728 0.0
C6 C 0.98848 0.54772 0.32843 0.0
C7 C 0.94811 0.51223 0.27815 0.0
C8 C 0.95253 0.52705 0.26318 0.0
C9 C 0.96201 0.52095 0.29363 0.0
C10 C 0.9802 0.54487 0.29465 0.0
C11 C 0.9708 0.55091 0.26413 0.0
C12 C 0.98448 0.55973 0.27972 0.0
C13 C -0.00373 0.55388 0.31045 0.0
C14 C 0.10154 0.59409 0.31396 0.0
C15 C 0.10947 0.61538 0.30429 0.0
C16 C 0.07788 0.58072 0.31948 0.0
C17 C 0.06176 0.58844 0.31548 0.0
C18 C 0.09318 0.62298 0.30033 0.0
C19 C 0.06953 0.60953 0.30575 0.0
C20 C 0.0365 0.57415 0.32055 0.0
C21 C 0.07727 0.60007 0.37279 0.0
C22 C 0.07517 0.58128 0.38351 0.0
C23 C 0.0624 0.59546 0.35792 0.0
C24 C 0.04516 0.57198 0.3536 0.0
C25 C 0.05786 0.55784 0.37913 0.0
C26 C 0.04288 0.55327 0.3644 0.0
C27 C 0.02878 0.56664 0.3383 0.0
H28 H 0.91295 0.53857 0.32669 0.0
H29 H 0.95414 0.5574 0.31692 0.0
H30 H 0.92545 0.49478 0.3638 0.0
H31 H 0.9663 0.51271 0.35317 0.0
H32 H 0.93444 0.49364 0.27763 0.0
H33 H 0.95892 0.50876 0.30457 0.0
H34 H 0.97453 0.56271 0.25278 0.0
H35 H -0.00141 0.57815 0.28006 0.0
H36 H 0.11347 0.58747 0.31695 0.0
H37 H 0.0721 0.56417 0.3266 0.0
H38 H 0.09872 0.63945 0.29316 0.0
H39 H 0.05731 0.61572 0.30246 0.0
H40 H 0.09048 0.61831 0.37587 0.0
H41 H 0.06417 0.6102 0.34994 0.0
H42 H 0.05561 0.54304 0.3873 0.0
H43 H 0.02954 0.53505 0.36138 0.0
N44 N 0.00508 0.55393 0.34158 0.0
N45 N 0.01998 0.5673 0.3073 0.0
C46 C 0.40472 0.92613 0.50004 0.0
C47 C 0.41531 0.91678 0.51142 0.0
C48 C 0.41726 0.94989 0.49465 0.0
C49 C 0.44068 0.96483 0.50049 0.0
C50 C 0.43879 0.93183 0.51726 0.0
C51 C 0.45127 0.95568 0.51195 0.0
C52 C 0.45359 0.99028 0.49547 0.0
C53 C 0.45077 0.95241 0.44452 0.0
C54 C 0.43614 0.95332 0.43098 0.0
C55 C 0.45618 0.96657 0.45986 0.0
C56 C 0.44715 0.98201 0.46203 0.0
C57 C 0.42697 0.96872 0.43327 0.0
C58 C 0.43263 0.9831 0.44857 0.0
C59 C 0.45436 -0.00181 0.47768 0.0
C60 C 0.51985 0.10349 0.48138 0.0
C61 C 0.50666 0.11148 0.47164 0.0
C62 C 0.50933 0.07979 0.48696 0.0
C63 C 0.48543 0.06372 0.48293 0.0
C64 C 0.48275 0.09531 0.46762 0.0
C65 C 0.4723 0.07162 0.4731 0.0
C66 C 0.47431 0.03837 0.48793 0.0
C67 C 0.48989 0.07894 0.54028 0.0
C68 C 0.5059 0.07621 0.55134 0.0
C69 C 0.4798 0.06431 0.52525 0.0
C70 C 0.48561 0.04676 0.52102 0.0
C71 C 0.51156 0.05855 0.54708 0.0
C72 C 0.50139 0.04389 0.53214 0.0
C73 C 0.47459 0.0305 0.5056 0.0
H74 H 0.38651 0.91525 0.49562 0.0
H75 H 0.40845 0.95672 0.48623 0.0
H76 H 0.44759 0.92518 0.52585 0.0
H77 H 0.46928 0.96695 0.5167 0.0
H78 H 0.45867 0.94127 0.44307 0.0
H79 H 0.46801 0.96593 0.46981 0.0
H80 H 0.41544 0.96971 0.42324 0.0
H81 H 0.42563 0.99504 0.44993 0.0
H82 H 0.53829 0.11556 0.48472 0.0
H83 H 0.51996 0.07396 0.49417 0.0
H84 H 0.47225 0.10087 0.45991 0.0
H85 H 0.45392 0.05942 0.46967 0.0
H86 H 0.48524 0.09243 0.54321 0.0
H87 H 0.46724 0.0665 0.51708 0.0
H88 H 0.52351 0.05575 0.55551 0.0
H89 H 0.50591 0.03029 0.52923 0.0
N90 N 0.46406 0.00673 0.5087 0.0
N91 N 0.46433 0.0219 0.47462 0.0
C92 C 0.52065 0.46041 0.61096 0.0
C93 C 0.50654 0.4503 0.59557 0.0
C94 C 0.51099 0.46427 0.62649 0.0
C95 C 0.48687 0.4576 0.62713 0.0
C96 C 0.48245 0.44386 0.59619 0.0
C97 C 0.47275 0.44754 0.61179 0.0
C98 C 0.4767 0.46274 0.64318 0.0
C99 C 0.49853 0.411 0.66245 0.0
C100 C 0.51446 0.41865 0.67698 0.0
C101 C 0.48796 0.42414 0.65709 0.0
C102 C 0.49365 0.44556 0.66584 0.0
C103 C 0.51991 0.43985 0.68589 0.0
C104 C 0.50964 0.4532 0.68034 0.0
C105 C 0.48163 0.45907 0.66103 0.0
C106 C 0.42516 0.48855 0.70748 0.0
C107 C 0.44313 0.50342 0.71962 0.0
C108 C 0.43078 0.48036 0.69186 0.0
C109 C 0.45447 0.48712 0.68807 0.0
C110 C 0.46678 0.51004 0.71572 0.0
C111 C 0.47234 0.50184 0.70019 0.0
C112 C 0.46104 0.4783 0.67203 0.0
C113 C 0.43075 0.52315 0.65182 0.0
C114 C 0.41244 0.51173 0.63906 0.0
C115 C 0.4447 0.51329 0.6568 0.0
C116 C 0.44021 0.49146 0.64952 0.0
C117 C 0.40847 0.4902 0.63146 0.0
C118 C 0.42216 0.4802 0.63666 0.0
C119 C 0.45488 0.48069 0.65424 0.0
H120 H 0.53922 0.46542 0.61104 0.0
H121 H 0.52252 0.47281 0.6379 0.0
H122 H 0.47115 0.43646 0.5845 0.0
H123 H 0.45419 0.44261 0.61184 0.0
H124 H 0.49373 0.39448 0.65558 0.0
H125 H 0.47494 0.41724 0.64638 0.0
H126 H 0.53219 0.44613 0.69711 0.0
H127 H 0.51412 0.46948 0.68746 0.0
H128 H 0.40674 0.48288 0.71021 0.0
H129 H 0.41664 0.46857 0.68286 0.0
H130 H 0.4811 0.52178 0.7246 0.0
H131 H 0.49073 0.50721 0.69754 0.0
H132 H 0.4343 0.53969 0.65804 0.0
H133 H 0.45911 0.52289 0.66622 0.0
H134 H 0.39501 0.48117 0.62125 0.0
H135 H 0.41863 0.46357 0.63058 0.0
N136 N 0.46312 0.47295 0.64055 0.0
N137 N 0.47399 0.46744 0.67468 0.0
C138 C 0.92296 0.40979 0.81641 0.0
C139 C 0.91479 0.41792 0.80212 0.0
C140 C 0.94642 0.42314 0.82232 0.0
C141 C 0.96201 0.44521 0.81437 0.0
C142 C 0.93047 0.43972 0.79392 0.0
C143 C 0.95386 0.45324 0.8 0.0
C144 C 0.98719 0.45918 0.82006 0.0
C145 C 0.94617 0.45763 0.86896 0.0
C146 C 0.94971 0.44748 0.88451 0.0
C147 C 0.96047 0.46201 0.85382 0.0
C148 C 0.9783 0.45583 0.85372 0.0
C149 C 0.96765 0.44141 0.8844 0.0
C150 C 0.98181 0.44559 0.86918 0.0
C151 C 0.99466 0.46193 0.83821 0.0
C152 C 0.10041 0.52628 0.83459 0.0
C153 C 0.1079 0.51342 0.84531 0.0
C154 C 0.07676 0.51596 0.82905 0.0
C155 C 0.06023 0.49252 0.83399 0.0
C156 C 0.09118 0.49003 0.85037 0.0
C157 C 0.06757 0.47976 0.84486 0.0
C158 C 0.03506 0.48138 0.82859 0.0
C159 C 0.07676 0.49418 0.77701 0.0
C160 C 0.07509 0.51076 0.76585 0.0
C161 C 0.06149 0.48425 0.79172 0.0
C162 C 0.04429 0.49067 0.7954 0.0
C163 C 0.05778 0.51704 0.76957 0.0
C164 C 0.0424 0.50693 0.78412 0.0
C165 C 0.02765 0.48017 0.81061 0.0
H166 H 0.91133 0.39282 0.82274 0.0
H167 H 0.95244 0.41598 0.83291 0.0
H168 H 0.92458 0.44641 0.78291 0.0
H169 H 0.96559 0.47003 0.79348 0.0
H170 H 0.93241 0.46235 0.86848 0.0
H171 H 0.95786 0.47069 0.84235 0.0
H172 H 0.97121 0.43398 0.89623 0.0
H173 H -0.0043 0.44103 0.86956 0.0
H174 H 0.11273 0.54448 0.83074 0.0
H175 H 0.07134 0.52639 0.82109 0.0
H176 H 0.0964 0.47952 0.85843 0.0
H177 H 0.05504 0.46169 0.84891 0.0
H178 H 0.08995 0.48905 0.77443 0.0
H179 H 0.06298 0.47143 0.80011 0.0
H180 H 0.05586 0.52948 0.76104 0.0
H181 H 0.0291 0.51195 0.78665 0.0
N182 N 0.00401 0.46891 0.80702 0.0
N183 N 0.0183 0.47243 0.84171 0.0
C184 C 0.53046 0.92616 0.98308 0.0
C185 C 0.51104 0.91691 0.97122 0.0
C186 C 0.54114 0.9498 0.98879 0.0
C187 C 0.53265 0.96461 0.98268 0.0
C188 C 0.50236 0.93167 0.96531 0.0
C189 C 0.51326 0.9554 0.97084 0.0
C190 C 0.545 0.99008 0.98756 0.0
C191 C 0.50817 0.95249 0.03829 0.0
C192 C 0.52344 0.95396 0.05227 0.0
C193 C 0.51717 0.96642 0.02288 0.0
C194 C 0.54164 0.98221 0.0211 0.0
C195 C 0.54801 0.96966 0.05032 0.0
C196 C 0.55697 0.98382 0.03496 0.0
C197 C 0.55092 -0.00176 0.0054 0.0
C198 C 0.59253 0.10438 -0.00096 0.0
C199 C 0.61127 0.11177 0.01147 0.0
C200 C 0.57938 0.08058 0.99365 0.0
C201 C 0.58517 0.0638 0.00014 0.0
C202 C 0.61646 0.0947 0.01833 0.0
C203 C 0.60361 0.07105 0.0127 0.0
C204 C 0.5714 0.03839 0.99495 0.0
C205 C 0.59965 0.07927 0.94294 0.0
C206 C 0.58221 0.07386 0.92976 0.0
C207 C 0.59433 0.06511 0.95834 0.0
C208 C 0.57123 0.04588 0.96108 0.0
C209 C 0.55937 0.05431 0.93227 0.0
C210 C 0.55393 0.04053 0.94779 0.0
C211 C 0.56489 0.03019 0.97704 0.0
H212 H 0.53743 0.91513 0.98788 0.0
H213 H 0.55641 0.95666 -0.00236 0.0
H214 H 0.48756 0.92502 0.95603 0.0
H215 H 0.50659 0.96661 0.96583 0.0
H216 H 0.48912 0.94108 0.03945 0.0
H217 H 0.50492 0.96537 0.01257 0.0
H218 H 0.56035 0.97106 0.06067 0.0
H219 H 0.5759 0.99602 0.03388 0.0
H220 H 0.58804 0.11697 0.99338 0.0
H221 H 0.56467 0.07532 0.98446 0.0
H222 H 0.63027 0.09946 0.02829 0.0
H223 H 0.6081 0.05837 0.0182 0.0
H224 H 0.61748 0.09413 0.94113 0.0
H225 H 0.6083 0.06909 0.96799 0.0
H226 H 0.54563 0.04987 0.9223 0.0
H227 H 0.53606 0.02566 0.94945 0.0
N228 N 0.55198 0.00634 0.97413 0.0
N229 N 0.56411 0.02202 0.00839 0.0
C230 C 0.52917 0.62139 0.16326 0.0
C231 C 0.51329 0.61405 0.1778 0.0
C232 C 0.53906 0.60769 0.15773 0.0
C233 C 0.53273 0.58602 0.1663 0.0
C234 C 0.50723 0.5926 0.18655 0.0
C235 C 0.51683 0.5787 0.18084 0.0
C236 C 0.54397 0.57184 0.16121 0.0
C237 C 0.50462 0.5716 0.11175 0.0
C238 C 0.5184 0.58143 0.09619 0.0
C239 C 0.51446 0.56757 0.12709 0.0
C240 C 0.53848 0.57379 0.1274 0.0
C241 C 0.5424 0.58745 0.09648 0.0
C242 C 0.5523 0.58361 0.11191 0.0
C243 C 0.54873 0.56834 0.14326 0.0
C244 C 0.59037 0.50438 0.14939 0.0
C245 C 0.61075 0.517 0.13867 0.0
C246 C 0.57698 0.51482 0.15451 0.0
C247 C 0.58383 0.53808 0.14907 0.0
C248 C 0.61739 0.5402 0.13313 0.0
C249 C 0.60396 0.55056 0.13818 0.0
C250 C 0.56969 0.54932 0.15389 0.0
C251 C 0.59784 0.53798 0.20657 0.0
C252 C 0.57967 0.5236 0.21872 0.0
C253 C 0.59274 0.5469 0.19112 0.0
C254 C 0.56935 0.54139 0.18749 0.0
C255 C 0.5563 0.51814 0.21495 0.0
C256 C 0.55125 0.52706 0.19958 0.0
C257 C 0.56342 0.55126 0.17172 0.0
H258 H 0.53445 0.63808 0.1565 0.0
H259 H 0.55203 0.61434 0.14699 0.0
H260 H 0.49497 0.58652 0.19777 0.0
H261 H 0.51187 0.56223 0.18782 0.0
H262 H 0.48614 0.56692 0.11209 0.0
H263 H 0.50313 0.5592 0.13861 0.0
H264 H 0.55344 0.59464 0.08466 0.0
H265 H 0.57076 0.58819 0.11169 0.0
H266 H 0.58486 0.48651 0.15391 0.0
H267 H 0.56118 0.50465 0.16258 0.0
H268 H 0.63276 0.55022 0.12463 0.0
H269 H 0.60937 0.56841 0.13365 0.0
H270 H 0.61607 0.54277 0.20921 0.0
H271 H 0.6071 0.55841 0.1822 0.0
H272 H 0.54183 0.50683 0.22385 0.0
H273 H 0.53309 0.52265 0.19706 0.0
N274 N 0.55106 0.56268 0.17467 0.0
N275 N 0.5619 0.55772 0.14035 0.0
In276 In 0.62588 0.4014 0.40704 0.0
O277 O 0.66526 0.42171 0.41452 0.0
O278 O 0.65539 0.40344 0.38949 0.0
C279 C 0.60717 0.41323 0.43481 0.0
C280 C 0.61549 0.42068 0.37883 0.0
C281 C 0.60962 0.35509 0.41427 0.0
O282 O 0.62924 0.42353 0.43193 0.0
O283 O 0.59463 0.39729 0.42356 0.0
O284 O 0.60247 0.36175 0.40089 0.0
O285 O 0.62505 0.37176 0.42378 0.0
C286 C 0.67193 0.41642 0.40017 0.0
O287 O 0.60654 0.39849 0.38067 0.0
O288 O 0.62922 0.43299 0.39138 0.0
In289 In 0.23849 0.62686 0.57467 0.0
O290 O 0.24993 0.59902 0.57189 0.0
O291 O 0.27081 0.62921 0.58841 0.0
C292 C 0.21036 0.61626 0.54539 0.0
C293 C 0.21048 0.60979 0.60404 0.0
C294 C 0.26858 0.673 0.56719 0.0
O295 O 0.2251 0.6092 0.54723 0.0
O296 O 0.20953 0.62823 0.55842 0.0
O297 O 0.2519 0.66649 0.57842 0.0
O298 O 0.27008 0.65626 0.55988 0.0
C299 C 0.26771 0.60982 0.58212 0.0
O300 O 0.22532 0.63162 0.60207 0.0
O301 O 0.20947 0.59681 0.59108 0.0
In302 In 0.62465 0.24073 0.7418 0.0
O303 O 0.66411 0.25775 0.73451 0.0
O304 O 0.65497 0.26709 0.75938 0.0
C305 C 0.60557 0.21085 0.71372 0.0
C306 C 0.61237 0.21122 0.7703 0.0
C307 C 0.60931 0.27129 0.73389 0.0
O308 O 0.62764 0.22207 0.7168 0.0
O309 O 0.59316 0.21433 0.72504 0.0
O310 O 0.6009 0.25679 0.74681 0.0
O311 O 0.62552 0.2705 0.7252 0.0
C312 C 0.67124 0.26972 0.74884 0.0
O313 O 0.6094 0.22898 0.76997 0.0
O314 O 0.62098 0.208 0.7561 0.0
In315 In 0.39796 0.62808 0.90689 0.0
O316 O 0.35841 0.60653 0.91351 0.0
O317 O 0.36876 0.62547 0.88874 0.0
C318 C 0.41599 0.6177 0.93594 0.0
C319 C 0.40851 0.60844 0.879 0.0
C320 C 0.4137 0.67454 0.91308 0.0
O321 O 0.39396 0.60747 0.93288 0.0
O322 O 0.42874 0.63282 0.9243 0.0
O323 O 0.42449 0.6676 0.90282 0.0
O324 O 0.39497 0.65809 0.92002 0.0
C325 C 0.35199 0.61186 0.89903 0.0
O326 O 0.41574 0.63044 0.87987 0.0
O327 O 0.39649 0.59656 0.89235 0.0
In328 In 0.78482 0.40167 0.07494 0.0
O329 O 0.8014 0.39911 0.10135 0.0
O330 O 0.81436 0.43334 0.08982 0.0
C331 C 0.75413 0.35511 0.069 0.0
C332 C 0.7549 0.41759 0.08311 0.0
C333 C 0.81276 0.41212 0.04557 0.0
O334 O 0.77216 0.36223 0.07895 0.0
O335 O 0.75145 0.37142 0.06227 0.0
O336 O 0.80108 0.4224 0.04888 0.0
O337 O 0.81052 0.39696 0.05712 0.0
C338 C 0.81548 0.42123 0.10263 0.0
O339 O 0.76642 0.42288 0.06853 0.0
O340 O 0.75836 0.40415 0.09339 0.0
In341 In 0.39951 0.7894 0.2417 0.0
O342 O 0.42462 0.77497 0.24726 0.0
O343 O 0.40155 0.76146 0.2247 0.0
C344 C 0.40986 0.81858 0.27022 0.0
C345 C 0.41765 0.81884 0.21331 0.0
C346 C 0.3532 0.75949 0.24902 0.0
O347 O 0.41544 0.80256 0.26955 0.0
O348 O 0.39952 0.82015 0.25637 0.0
O349 O 0.35986 0.77495 0.23676 0.0
O350 O 0.36982 0.759 0.25731 0.0
C351 C 0.41767 0.76114 0.23387 0.0
O352 O 0.39632 0.80217 0.21387 0.0
O353 O 0.4297 0.82093 0.22721 0.0
C354 C 0.15321 0.63205 0.30924 0.0
C355 C 0.13455 0.62953 0.2982 0.0
C356 C 0.17677 0.64555 0.30356 0.0
C357 C 0.21379 0.67175 0.26278 0.0
H358 H 0.26198 0.71112 0.2976 0.0
C359 C 0.30981 0.74329 0.24341 0.0
C360 C 0.32804 0.74373 0.25381 0.0
C361 C 0.28605 0.72882 0.2484 0.0
C362 C 0.24873 0.70006 0.28776 0.0
H363 H 0.12612 0.63892 0.27232 0.0
H364 H 0.16716 0.66314 0.26273 0.0
H365 H 0.22083 0.68702 0.30719 0.0
H366 H 0.33576 0.72929 0.27749 0.0
H367 H 0.29434 0.7042 0.28625 0.0
H368 H 0.24181 0.68525 0.2433 0.0
C369 C 0.1636 0.65438 0.27568 0.0
C370 C 0.22515 0.68617 0.29325 0.0
C371 C 0.14004 0.64075 0.2813 0.0
C372 C 0.32209 0.72933 0.26921 0.0
C373 C 0.2984 0.71507 0.27428 0.0
C374 C 0.23736 0.68581 0.25726 0.0
C375 C 0.18227 0.65699 0.28674 0.0
C376 C 0.20738 0.67177 0.28085 0.0
C377 C 0.28015 0.71475 0.26399 0.0
C378 C 0.25507 0.70003 0.26972 0.0
H379 H 0.14967 0.62386 0.32241 0.0
H380 H 0.19067 0.64689 0.31234 0.0
H381 H 0.20065 0.6606 0.25291 0.0
H382 H 0.3139 0.75421 0.23147 0.0
H383 H 0.27233 0.72902 0.24029 0.0
C384 C 0.54053 0.14757 0.45746 0.0
C385 C 0.51787 0.13647 0.46535 0.0
C386 C 0.55084 0.17092 0.45114 0.0
C387 C 0.53587 0.21669 0.43735 0.0
H388 H 0.60318 0.25989 0.44453 0.0
C389 C 0.58356 0.31166 0.40771 0.0
C390 C 0.60019 0.32981 0.41888 0.0
C391 C 0.5741 0.28778 0.4125 0.0
C392 C 0.58433 0.2481 0.44251 0.0
H393 H 0.48846 0.14126 0.47314 0.0
H394 H 0.50657 0.18213 0.46239 0.0
H395 H 0.58531 0.21905 0.45515 0.0
H396 H 0.62008 0.33727 0.44376 0.0
H397 H 0.60331 0.29575 0.45228 0.0
H398 H 0.53473 0.24597 0.42528 0.0
C399 C 0.51617 0.17265 0.46069 0.0
C400 C 0.57413 0.22458 0.44841 0.0
C401 C 0.50582 0.14926 0.46691 0.0
C402 C 0.60736 0.32365 0.43483 0.0
C403 C 0.59784 0.29983 0.43966 0.0
C404 C 0.54605 0.24023 0.43152 0.0
C405 C 0.53878 0.18374 0.45266 0.0
C406 C 0.54975 0.20862 0.446 0.0
C407 C 0.58102 0.28159 0.42861 0.0
C408 C 0.57038 0.25627 0.43412 0.0
H409 H 0.5501 0.13803 0.45585 0.0
H410 H 0.56811 0.17878 0.4448 0.0
H411 H 0.5171 0.20478 0.43505 0.0
H412 H 0.57777 0.31589 0.39529 0.0
H413 H 0.56142 0.27417 0.40356 0.0
C414 C 0.37354 0.50759 0.62925 0.0
C415 C 0.39775 0.5223 0.63343 0.0
C416 C 0.35993 0.51739 0.62333 0.0
C417 C 0.35529 0.57079 0.62506 0.0
H418 H 0.31837 0.54682 0.58128 0.0
C419 C 0.30552 0.61504 0.59483 0.0
C420 C 0.28334 0.60028 0.58682 0.0
C421 C 0.32004 0.60591 0.5999 0.0
C422 C 0.32826 0.55351 0.59368 0.0
H423 H 0.42648 0.559 0.63463 0.0
H424 H 0.40237 0.57605 0.62494 0.0
H425 H 0.34218 0.52986 0.59186 0.0
H426 H 0.25888 0.56441 0.57781 0.0
H427 H 0.28374 0.54816 0.58726 0.0
H428 H 0.34088 0.59385 0.62737 0.0
C429 C 0.3941 0.55691 0.6262 0.0
C430 C 0.34198 0.54385 0.59966 0.0
C431 C 0.40784 0.54711 0.63185 0.0
C432 C 0.27599 0.57623 0.58385 0.0
C433 C 0.29034 0.56697 0.58919 0.0
C434 C 0.34128 0.5802 0.61926 0.0
C435 C 0.37009 0.54212 0.62174 0.0
C436 C 0.35564 0.55243 0.61538 0.0
C437 C 0.31253 0.58167 0.59735 0.0
C438 C 0.32759 0.57173 0.60346 0.0
H439 H 0.36498 0.48846 0.63067 0.0
H440 H 0.34135 0.50564 0.6202 0.0
H441 H 0.36549 0.57753 0.63734 0.0
H442 H 0.3117 0.63372 0.59714 0.0
H443 H 0.3372 0.61792 0.60576 0.0
C444 C 0.87113 0.39409 0.80803 0.0
C445 C 0.89001 0.40356 0.79571 0.0
C446 C 0.84774 0.38048 0.80202 0.0
C447 C 0.81169 0.34236 0.76521 0.0
H448 H 0.76361 0.3554 0.78356 0.0
C449 C 0.71427 0.2911 0.74022 0.0
C450 C 0.69656 0.28548 0.75319 0.0
C451 C 0.73818 0.30628 0.74452 0.0
C452 C 0.77673 0.3513 0.77846 0.0
H453 H 0.89935 0.40604 0.76751 0.0
H454 H 0.85833 0.38196 0.75699 0.0
H455 H 0.80477 0.38025 0.79295 0.0
H456 H 0.68991 0.29091 0.78087 0.0
H457 H 0.73145 0.31667 0.78852 0.0
H458 H 0.78363 0.31298 0.75113 0.0
C459 C 0.86168 0.38519 0.77127 0.0
C460 C 0.80031 0.36562 0.7838 0.0
C461 C 0.88508 0.39907 0.77727 0.0
C462 C 0.70317 0.29509 0.77054 0.0
C463 C 0.72701 0.31003 0.77489 0.0
C464 C 0.78802 0.32784 0.76001 0.0
C465 C 0.8428 0.37584 0.7836 0.0
C466 C 0.81798 0.36118 0.77734 0.0
C467 C 0.74484 0.31596 0.76192 0.0
C468 C 0.7702 0.332 0.76671 0.0
H469 H 0.87446 0.3974 0.82231 0.0
H470 H 0.83351 0.37332 0.81181 0.0
H471 H 0.82497 0.33846 0.76014 0.0
H472 H 0.70963 0.28398 0.72672 0.0
H473 H 0.7514 0.31067 0.73415 0.0
C474 C 0.51484 0.8836 0.95792 0.0
C475 C 0.50033 0.89215 0.96462 0.0
C476 C 0.50481 0.86035 0.95144 0.0
C477 C 0.45269 0.80138 0.95568 0.0
H478 H 0.47241 0.78883 0.90972 0.0
C479 C 0.4081 0.70678 0.92614 0.0
C480 C 0.42268 0.69984 0.91726 0.0
C481 C 0.41687 0.73053 0.93094 0.0
C482 C 0.46692 0.79196 0.92269 0.0
H483 H 0.46405 0.88313 0.96997 0.0
H484 H 0.44646 0.84222 0.95887 0.0
H485 H 0.48934 0.82974 0.92028 0.0
H486 H 0.45778 0.71222 0.90628 0.0
H487 H 0.47341 0.75356 0.91516 0.0
H488 H 0.43088 0.76373 0.95848 0.0
C489 C 0.46558 0.8536 0.95856 0.0
C490 C 0.47656 0.81541 0.92868 0.0
C491 C 0.4756 0.87698 0.9648 0.0
C492 C 0.44611 0.71712 0.91304 0.0
C493 C 0.45501 0.74084 0.91805 0.0
C494 C 0.44328 0.77792 0.94981 0.0
C495 C 0.48009 0.84511 0.95177 0.0
C496 C 0.46955 0.82032 0.94524 0.0
C497 C 0.44055 0.74783 0.9272 0.0
C498 C 0.45027 0.77289 0.93324 0.0
H499 H 0.53395 0.89502 0.95749 0.0
H500 H 0.5164 0.85418 0.9464 0.0
H501 H 0.44721 0.80468 0.9686 0.0
H502 H 0.38989 0.69384 0.92944 0.0
H503 H 0.40505 0.73529 0.93761 0.0
C504 C 0.61373 0.48236 0.1269 0.0
C505 C 0.62495 0.506 0.13304 0.0
C506 C 0.62716 0.47229 0.12107 0.0
C507 C 0.68723 0.4886 0.10486 0.0
H508 H 0.66754 0.42319 0.11678 0.0
C509 C 0.73499 0.44111 0.07607 0.0
C510 C 0.73895 0.42672 0.08802 0.0
C511 C 0.72032 0.45018 0.081 0.0
C512 C 0.67337 0.44153 0.11342 0.0
H513 H 0.65903 0.53738 0.13836 0.0
H514 H 0.68248 0.51976 0.12839 0.0
H515 H 0.64386 0.44041 0.12702 0.0
H516 H 0.73061 0.41043 0.11444 0.0
H517 H 0.70536 0.4265 0.12314 0.0
H518 H 0.71712 0.48995 0.09174 0.0
C519 C 0.6633 0.50916 0.12768 0.0
C520 C 0.65964 0.45132 0.11912 0.0
C521 C 0.64988 0.51924 0.13344 0.0
C522 C 0.72782 0.42141 0.10491 0.0
C523 C 0.71323 0.4305 0.10985 0.0
C524 C 0.70099 0.47883 0.09921 0.0
C525 C 0.65212 0.4856 0.12132 0.0
C526 C 0.66646 0.47501 0.11498 0.0
C527 C 0.70935 0.44507 0.09799 0.0
C528 C 0.69429 0.45521 0.10349 0.0
H529 H 0.59455 0.47181 0.12621 0.0
H530 H 0.61797 0.45421 0.11603 0.0
H531 H 0.69284 0.50681 0.10124 0.0
H532 H 0.74327 0.44544 0.06293 0.0
H533 H 0.71747 0.46108 0.07144 0.0
C534 C 0.38598 0.87366 0.50559 0.0
C535 C 0.40167 0.89156 0.51741 0.0
C536 C 0.37249 0.85012 0.51138 0.0
C537 C 0.35007 0.8137 0.55275 0.0
H538 H 0.33698 0.7621 0.51999 0.0
C539 C 0.28019 0.71599 0.56839 0.0
C540 C 0.28488 0.69818 0.56262 0.0
C541 C 0.29518 0.73968 0.56338 0.0
C542 C 0.34067 0.77626 0.52941 0.0
H543 H 0.41552 0.89858 0.54466 0.0
H544 H 0.39271 0.8574 0.55455 0.0
H545 H 0.36246 0.80296 0.51037 0.0
H546 H 0.30924 0.69119 0.54755 0.0
H547 H 0.33575 0.73252 0.53926 0.0
H548 H 0.32886 0.78693 0.57199 0.0
C549 C 0.39046 0.86165 0.54087 0.0
C550 C 0.35503 0.79975 0.52378 0.0
C551 C 0.40382 0.88524 0.53511 0.0
C552 C 0.30508 0.70453 0.55208 0.0
C553 C 0.32018 0.72822 0.54722 0.0
C554 C 0.33585 0.79018 0.55843 0.0
C555 C 0.3745 0.84381 0.52911 0.0
C556 C 0.35979 0.81879 0.53533 0.0
C557 C 0.3153 0.74608 0.55265 0.0
C558 C 0.33087 0.77115 0.5468 0.0
H559 H 0.3841 0.8778 0.49179 0.0
H560 H 0.36019 0.83695 0.502 0.0
H561 H 0.35311 0.82789 0.56194 0.0
H562 H 0.26468 0.71157 0.57647 0.0
H563 H 0.29066 0.75289 0.56761 0.0
C564 C 0.52395 0.39827 0.7014 0.0
C565 C 0.52483 0.40418 0.68316 0.0
C566 C 0.5332 0.3841 0.7072 0.0
C567 C 0.55175 0.34207 0.69003 0.0
H568 H 0.58228 0.35316 0.73666 0.0
C569 C 0.60626 0.29872 0.71202 0.0
C570 C 0.60033 0.28729 0.72881 0.0
C571 C 0.59709 0.31314 0.70677 0.0
C572 C 0.57365 0.34981 0.72366 0.0
H573 H 0.53648 0.40046 0.65671 0.0
H574 H 0.55343 0.37644 0.66683 0.0
H575 H 0.56673 0.3785 0.72666 0.0
H576 H 0.58058 0.28233 0.75344 0.0
H577 H 0.56489 0.30809 0.74436 0.0
H578 H 0.5594 0.31381 0.68691 0.0
C579 C 0.54495 0.38205 0.67665 0.0
C580 C 0.56464 0.36423 0.71793 0.0
C581 C 0.53538 0.39593 0.67083 0.0
C582 C 0.5854 0.29091 0.74041 0.0
C583 C 0.57652 0.30568 0.73526 0.0
C584 C 0.56108 0.32792 0.69565 0.0
C585 C 0.54384 0.37579 0.6949 0.0
C586 C 0.55354 0.36053 0.70103 0.0
C587 C 0.58211 0.31671 0.71832 0.0
C588 C 0.57209 0.33165 0.71251 0.0
H589 H 0.51564 0.4042 0.71113 0.0
H590 H 0.53159 0.37932 0.72128 0.0
H591 H 0.54288 0.3383 0.67712 0.0
H592 H 0.61771 0.29622 0.70279 0.0
H593 H 0.60181 0.32161 0.6937 0.0
C594 C 0.15165 0.53848 0.8394 0.0
C595 C 0.13302 0.5243 0.85123 0.0
C596 C 0.17527 0.54836 0.84488 0.0
C597 C 0.21322 0.56366 0.88543 0.0
H598 H 0.25898 0.56394 0.85192 0.0
C599 C 0.30859 0.58791 0.90612 0.0
C600 C 0.32686 0.60255 0.8942 0.0
C601 C 0.28481 0.57867 0.90121 0.0
C602 C 0.24645 0.5642 0.86137 0.0
H603 H 0.12463 0.50982 0.87825 0.0
H604 H 0.16581 0.52653 0.88765 0.0
H605 H 0.21774 0.54728 0.84268 0.0
H606 H 0.33466 0.61922 0.86791 0.0
H607 H 0.29325 0.60317 0.85938 0.0
H608 H 0.242 0.58043 0.90417 0.0
C609 C 0.16217 0.53023 0.87419 0.0
C610 C 0.22283 0.55469 0.85607 0.0
C611 C 0.13856 0.5204 0.86872 0.0
C612 C 0.32095 0.60794 0.87737 0.0
C613 C 0.29724 0.59863 0.87243 0.0
C614 C 0.23685 0.5731 0.89076 0.0
C615 C 0.18081 0.54426 0.86231 0.0
C616 C 0.20594 0.55437 0.86801 0.0
C617 C 0.2789 0.5838 0.88425 0.0
C618 C 0.25373 0.57354 0.87876 0.0
H619 H 0.14801 0.54166 0.82579 0.0
H620 H 0.18919 0.55933 0.83547 0.0
H621 H 0.20072 0.56399 0.89488 0.0
H622 H 0.31263 0.58345 0.91918 0.0
H623 H 0.27106 0.56714 0.91054 0.0
C624 C 0.64963 0.14742 0.02132 0.0
C625 C 0.62524 0.13703 0.01746 0.0
C626 C 0.66259 0.17078 0.0276 0.0
C627 C 0.66531 0.22784 0.02712 0.0
H628 H 0.70275 0.24099 0.07062 0.0
C629 C 0.71568 0.32231 0.05712 0.0
C630 C 0.73801 0.32976 0.06483 0.0
C631 C 0.70087 0.29852 0.05231 0.0
C632 C 0.6927 0.23775 0.05831 0.0
H633 H 0.59554 0.14346 0.01715 0.0
H634 H 0.61855 0.18463 0.0274 0.0
H635 H 0.67938 0.20019 0.05976 0.0
H636 H 0.76241 0.31829 0.07363 0.0
H637 H 0.7371 0.27701 0.0646 0.0
H638 H 0.67922 0.26531 0.0251 0.0
C639 C 0.62743 0.17443 0.02567 0.0
C640 C 0.67922 0.21434 0.05217 0.0
C641 C 0.61432 0.15089 0.01968 0.0
C642 C 0.74519 0.31297 0.06783 0.0
C643 C 0.73056 0.28925 0.06273 0.0
C644 C 0.6791 0.25131 0.03306 0.0
C645 C 0.65161 0.18447 0.02984 0.0
C646 C 0.66545 0.2092 0.03652 0.0
C647 C 0.70824 0.28171 0.0548 0.0
C648 C 0.69304 0.25661 0.04873 0.0
H649 H 0.65884 0.13758 0.01939 0.0
H650 H 0.68132 0.17828 0.03048 0.0
H651 H 0.65499 0.22432 0.0149 0.0
H652 H 0.70964 0.33488 0.05479 0.0
H653 H 0.68363 0.29335 0.04663 0.0
C654 C 0.50419 0.63462 0.20236 0.0
C655 C 0.50349 0.62902 0.18405 0.0
C656 C 0.49548 0.64924 0.20822 0.0
C657 C 0.47895 0.69291 0.19128 0.0
H658 H 0.44665 0.681 0.23718 0.0
C659 C 0.42327 0.73544 0.21185 0.0
C660 C 0.42786 0.74612 0.22892 0.0
C661 C 0.43317 0.72159 0.20683 0.0
C662 C 0.45582 0.68462 0.22441 0.0
H663 H 0.4927 0.63376 0.15756 0.0
H664 H 0.47674 0.6586 0.16777 0.0
H665 H 0.46208 0.65549 0.22736 0.0
H666 H 0.44613 0.75047 0.25423 0.0
H667 H 0.46313 0.72569 0.24553 0.0
H668 H 0.47191 0.72158 0.18816 0.0
C669 C 0.48466 0.65239 0.1776 0.0
C670 C 0.46475 0.67008 0.21878 0.0
C671 C 0.49368 0.63805 0.17173 0.0
C672 C 0.44234 0.74245 0.24098 0.0
C673 C 0.45197 0.72825 0.23604 0.0
C674 C 0.46973 0.7072 0.1968 0.0
C675 C 0.4856 0.65833 0.19591 0.0
C676 C 0.47636 0.67399 0.2021 0.0
C677 C 0.44759 0.71785 0.21887 0.0
C678 C 0.45802 0.70314 0.21338 0.0
H679 H 0.51194 0.62809 0.21211 0.0
H680 H 0.49689 0.65373 0.22236 0.0
H681 H 0.48825 0.69685 0.17856 0.0
H682 H 0.4122 0.73799 0.20226 0.0
H683 H 0.42936 0.71359 0.19357 0.0
C684 C 0.87774 0.47997 0.35678 0.0
C685 C 0.89095 0.50433 0.35259 0.0
C686 C 0.85441 0.46989 0.363 0.0
C687 C 0.81171 0.48564 0.38287 0.0
H688 H 0.76497 0.4228 0.36605 0.0
C689 C 0.71496 0.43788 0.40866 0.0
C690 C 0.69712 0.42523 0.39587 0.0
C691 C 0.73883 0.44669 0.4043 0.0
C692 C 0.77775 0.44044 0.37079 0.0
H693 H 0.88999 0.53724 0.35195 0.0
H694 H 0.8491 0.51952 0.36208 0.0
H695 H 0.806 0.44021 0.35634 0.0
H696 H 0.69017 0.41188 0.36851 0.0
H697 H 0.73169 0.42771 0.36075 0.0
H698 H 0.78324 0.48628 0.39669 0.0
C699 C 0.85688 0.50825 0.36088 0.0
C700 C 0.80138 0.4503 0.36541 0.0
C701 C 0.88026 0.51835 0.35479 0.0
C702 C 0.70354 0.42145 0.37869 0.0
C703 C 0.72736 0.4304 0.37428 0.0
C704 C 0.78803 0.47584 0.38814 0.0
C705 C 0.84366 0.48389 0.36507 0.0
C706 C 0.81864 0.47309 0.37129 0.0
C707 C 0.74533 0.44318 0.38701 0.0
C708 C 0.77072 0.45318 0.38206 0.0
H709 H 0.8853 0.46857 0.35508 0.0
H710 H 0.84487 0.45113 0.3663 0.0
H711 H 0.82458 0.50308 0.38788 0.0
H712 H 0.7105 0.44097 0.42204 0.0
H713 H 0.75217 0.45616 0.41451 0.0
C714 C 0.09398 0.60371 0.41189 0.0
C715 C 0.09055 0.58597 0.39947 0.0
C716 C 0.10737 0.60718 0.42747 0.0
C717 C 0.12978 0.57644 0.45676 0.0
H718 H 0.16968 0.63969 0.47629 0.0
C719 C 0.1958 0.59669 0.51542 0.0
C720 C 0.19595 0.61184 0.52897 0.0
C721 C 0.18284 0.59327 0.4996 0.0
C722 C 0.15846 0.6219 0.47106 0.0
H723 H 0.09911 0.55856 0.39323 0.0
H724 H 0.12295 0.56494 0.42017 0.0
H725 H 0.14804 0.63475 0.44836 0.0
H726 H 0.18259 0.63518 0.53667 0.0
H727 H 0.1601 0.62932 0.509 0.0
H728 H 0.14057 0.56371 0.47938 0.0
C729 C 0.11478 0.57575 0.41819 0.0
C730 C 0.146 0.61905 0.45507 0.0
C731 C 0.10121 0.57215 0.40272 0.0
C732 C 0.1828 0.62338 0.52646 0.0
C733 C 0.17005 0.62016 0.51059 0.0
C734 C 0.1424 0.57933 0.47265 0.0
C735 C 0.11781 0.59313 0.43088 0.0
C736 C 0.13143 0.59627 0.44774 0.0
C737 C 0.17001 0.60515 0.49697 0.0
C738 C 0.15679 0.60208 0.48 0.0
H739 H 0.08573 0.61445 0.40982 0.0
H740 H 0.10902 0.62049 0.43704 0.0
H741 H 0.11839 0.55859 0.45171 0.0
H742 H 0.20581 0.58759 0.51698 0.0
H743 H 0.18325 0.58173 0.48927 0.0
C744 C 0.54047 0.10065 0.57169 0.0
C745 C 0.51633 0.09128 0.56754 0.0
C746 C 0.55009 0.11387 0.58738 0.0
C747 C 0.53318 0.12314 0.63251 0.0
H748 H 0.5951 0.18031 0.63215 0.0
C749 C 0.57076 0.18548 0.69403 0.0
C750 C 0.59514 0.1958 0.69763 0.0
C751 C 0.56106 0.1724 0.67829 0.0
C752 C 0.57793 0.16421 0.63254 0.0
H753 H 0.48339 0.08859 0.57652 0.0
H754 H 0.50026 0.11192 0.60387 0.0
H755 H 0.57834 0.15877 0.60417 0.0
H756 H 0.62842 0.20011 0.6878 0.0
H757 H 0.61143 0.17691 0.66045 0.0
H758 H 0.53281 0.12845 0.66088 0.0
C759 C 0.51169 0.10886 0.59503 0.0
C760 C 0.5683 0.15191 0.61649 0.0
C761 C 0.50209 0.09573 0.57928 0.0
C762 C 0.60957 0.19242 0.68535 0.0
C763 C 0.59986 0.17928 0.66962 0.0
C764 C 0.54284 0.13539 0.64857 0.0
C765 C 0.53576 0.11794 0.59931 0.0
C766 C 0.54582 0.13124 0.6163 0.0
C767 C 0.57552 0.1693 0.66582 0.0
C768 C 0.56533 0.15608 0.64878 0.0
H769 H 0.55194 0.0977 0.56281 0.0
H770 H 0.56865 0.12048 0.59035 0.0
H771 H 0.51598 0.10706 0.63285 0.0
H772 H 0.55921 0.18787 0.70322 0.0
H773 H 0.54231 0.16521 0.6757 0.0
C774 C 0.44935 0.51334 0.75248 0.0
C775 C 0.43747 0.51206 0.73636 0.0
C776 C 0.44516 0.5227 0.76803 0.0
C777 C 0.42284 0.56207 0.78304 0.0
H778 H 0.42292 0.53589 0.82987 0.0
C779 C 0.42659 0.61105 0.84878 0.0
C780 C 0.41253 0.59718 0.86317 0.0
C781 C 0.42934 0.60023 0.83343 0.0
C782 C 0.42263 0.54331 0.8169 0.0
H783 H 0.41144 0.51917 0.72407 0.0
H784 H 0.40362 0.53496 0.75139 0.0
H785 H 0.42652 0.51671 0.8029 0.0
H786 H 0.39041 0.56112 0.87287 0.0
H787 H 0.39485 0.54222 0.84603 0.0
H788 H 0.41837 0.58833 0.79704 0.0
C789 C 0.41654 0.5291 0.75189 0.0
C790 C 0.42497 0.53246 0.80143 0.0
C791 C 0.4208 0.51979 0.73629 0.0
C792 C 0.40148 0.57229 0.86202 0.0
C793 C 0.40411 0.56146 0.84666 0.0
C794 C 0.4204 0.57286 0.79852 0.0
C795 C 0.42886 0.53089 0.7679 0.0
C796 C 0.42527 0.5418 0.78431 0.0
C797 C 0.41798 0.57528 0.83213 0.0
C798 C 0.4204 0.5637 0.81565 0.0
H799 H 0.46204 0.5072 0.75309 0.0
H800 H 0.45515 0.52402 0.78004 0.0
H801 H 0.42327 0.5699 0.7701 0.0
H802 H 0.43537 0.63029 0.84931 0.0
H803 H 0.44047 0.61142 0.82262 0.0
C804 C 0.9281 0.42385 0.91194 0.0
C805 C 0.93527 0.44394 0.90096 0.0
C806 C 0.91506 0.42089 0.92761 0.0
C807 C 0.8756 0.43855 0.94928 0.0
H808 H 0.89434 0.4206 0.99339 0.0
C809 C 0.83162 0.43547 0.01756 0.0
C810 C 0.82744 0.41684 0.02928 0.0
C811 C 0.84524 0.4395 0.00202 0.0
C812 C 0.88865 0.42532 0.98116 0.0
H813 H 0.93446 0.47679 0.89805 0.0
H814 H 0.91126 0.47128 0.92517 0.0
H815 H 0.91665 0.42557 0.96586 0.0
H816 H 0.83405 0.38771 0.03393 0.0
H817 H 0.8572 0.39429 0.0067 0.0
H818 H 0.84732 0.43785 0.96442 0.0
C819 C 0.91564 0.45778 0.92155 0.0
C820 C 0.90149 0.42821 0.9654 0.0
C821 C 0.92887 0.46087 0.90597 0.0
C822 C 0.83711 0.40233 0.0252 0.0
C823 C 0.85053 0.40621 0.00963 0.0
C824 C 0.86261 0.43544 0.96501 0.0
C825 C 0.90872 0.43784 0.93258 0.0
C826 C 0.89508 0.43481 0.9493 0.0
C827 C 0.8548 0.42485 -0.00217 0.0
C828 C 0.86894 0.42873 0.98115 0.0
H829 H 0.93236 0.41026 0.90836 0.0
H830 H 0.90968 0.40518 0.93575 0.0
H831 H 0.87012 0.44342 0.93701 0.0
H832 H 0.82445 0.44699 0.02041 0.0
H833 H 0.84844 0.45423 0.99338 0.0
C834 C 0.52353 0.94949 0.0859 0.0
C835 C 0.5136 0.93979 0.06901 0.0
C836 C 0.51358 0.9366 0.10167 0.0
C837 C 0.45757 0.89035 0.12025 0.0
H838 H 0.4963 0.88344 0.15667 0.0
C839 C 0.416 0.82739 0.18077 0.0
C840 C 0.42808 0.83392 0.19728 0.0
C841 C 0.42648 0.84081 0.16532 0.0
C842 C 0.48524 0.88552 0.14681 0.0
H843 H 0.48581 0.90847 0.05558 0.0
H844 H 0.4681 0.88637 0.08316 0.0
H845 H 0.51487 0.90586 0.12936 0.0
H846 H 0.46025 0.85994 0.21074 0.0
H847 H 0.47822 0.88392 0.18395 0.0
H848 H 0.42802 0.87062 0.13773 0.0
C849 C 0.48353 0.90401 0.0841 0.0
C850 C 0.4959 0.89826 0.13112 0.0
C851 C 0.49365 0.91674 0.06832 0.0
C852 C 0.4506 0.85443 0.19815 0.0
C853 C 0.46097 0.86804 0.18275 0.0
C854 C 0.44694 0.8779 0.13603 0.0
C855 C 0.49332 0.91388 0.10092 0.0
C856 C 0.48213 0.90064 0.11765 0.0
C857 C 0.44917 0.86126 0.16607 0.0
C858 C 0.4606 0.87517 0.14948 0.0
H859 H 0.53861 0.96732 0.08702 0.0
H860 H 0.52135 0.94468 0.11449 0.0
H861 H 0.4466 0.89223 0.11016 0.0
H862 H 0.39868 0.81155 0.17968 0.0
H863 H 0.41699 0.83477 0.1527 0.0
C864 C 0.6007 0.50568 0.23519 0.0
C865 C 0.58489 0.51447 0.23539 0.0
C866 C 0.60478 0.49625 0.2508 0.0
C867 C 0.59847 0.49512 0.3004 0.0
H868 H 0.60192 0.43739 0.29679 0.0
C869 C 0.6234 0.4564 0.36088 0.0
C870 C 0.61127 0.43156 0.36286 0.0
C871 C 0.62038 0.46679 0.34542 0.0
C872 C 0.60079 0.4534 0.29805 0.0
H873 H 0.56158 0.52098 0.25232 0.0
H874 H 0.56821 0.50405 0.27933 0.0
H875 H 0.59662 0.45525 0.26966 0.0
H876 H 0.58618 0.39809 0.35036 0.0
H877 H 0.58053 0.41622 0.32345 0.0
H878 H 0.60195 0.49292 0.32882 0.0
C879 C 0.57764 0.50459 0.26719 0.0
C880 C 0.59809 0.46383 0.28247 0.0
C881 C 0.5736 0.51402 0.25162 0.0
C882 C 0.5958 0.41729 0.34918 0.0
C883 C 0.59272 0.42768 0.33371 0.0
C884 C 0.60111 0.48467 0.31598 0.0
C885 C 0.59316 0.49545 0.26696 0.0
C886 C 0.59682 0.48477 0.28346 0.0
C887 C 0.6051 0.45256 0.3316 0.0
C888 C 0.60225 0.46365 0.315 0.0
H889 H 0.60957 0.50563 0.22288 0.0
H890 H 0.61707 0.48962 0.25022 0.0
H891 H 0.59781 0.51139 0.30164 0.0
H892 H 0.63554 0.46786 0.37117 0.0
H893 H 0.63042 0.48597 0.34414 0.0
C894 C 0.43033 0.94819 0.39746 0.0
C895 C 0.43129 0.93888 0.41431 0.0
C896 C 0.42717 0.93515 0.38173 0.0
C897 C 0.409 0.87418 0.36512 0.0
H898 H 0.44376 0.90821 0.32252 0.0
C899 C 0.41962 0.8272 0.30285 0.0
C900 C 0.41389 0.83346 0.28629 0.0
C901 C 0.42176 0.84033 0.31834 0.0
C902 C 0.43386 0.89852 0.3343 0.0
H903 H 0.42882 0.90806 0.42776 0.0
H904 H 0.42448 0.8859 0.40038 0.0
H905 H 0.44679 0.9303 0.34986 0.0
H906 H 0.40654 0.85867 0.27281 0.0
H907 H 0.41081 0.88193 0.29986 0.0
H908 H 0.39668 0.84235 0.34957 0.0
C909 C 0.42571 0.9031 0.39928 0.0
C910 C 0.43544 0.91115 0.34995 0.0
C911 C 0.42857 0.91601 0.41502 0.0
C912 C 0.41096 0.85345 0.28541 0.0
C913 C 0.41347 0.86679 0.30085 0.0
C914 C 0.40769 0.86155 0.34955 0.0
C915 C 0.42515 0.91256 0.3824 0.0
C916 C 0.42303 0.89915 0.36559 0.0
C917 C 0.41858 0.86016 0.31749 0.0
C918 C 0.42011 0.8736 0.334 0.0
H919 H 0.43259 0.96583 0.39633 0.0
H920 H 0.42641 0.94287 0.36902 0.0
H921 H 0.39881 0.86433 0.37675 0.0
H922 H 0.42191 0.81185 0.30392 0.0
H923 H 0.42593 0.83499 0.33099 0.0
C924 C 0.50401 0.42679 0.56792 0.0
C925 C 0.51704 0.44698 0.57881 0.0
C926 C 0.51379 0.42389 0.55206 0.0
C927 C 0.57061 0.44186 0.52992 0.0
H928 H 0.53323 0.4226 0.48612 0.0
C929 C 0.61109 0.43778 0.46193 0.0
C930 C 0.59682 0.41861 0.45054 0.0
C931 C 0.60138 0.44219 0.47722 0.0
C932 C 0.54383 0.42771 0.49827 0.0
H933 H 0.55053 0.48012 0.58133 0.0
H934 H 0.56771 0.47472 0.55387 0.0
H935 H 0.51614 0.4279 0.51371 0.0
H936 H 0.56123 0.38907 0.44611 0.0
H937 H 0.54443 0.39636 0.47295 0.0
H938 H 0.59813 0.44119 0.5147 0.0
C939 C 0.54998 0.4611 0.55771 0.0
C940 C 0.53403 0.43078 0.51406 0.0
C941 C 0.54014 0.46412 0.57348 0.0
C942 C 0.57264 0.40408 0.4546 0.0
C943 C 0.56298 0.40835 0.46995 0.0
C944 C 0.58035 0.43858 0.51418 0.0
C945 C 0.53688 0.441 0.54681 0.0
C946 C 0.54732 0.43786 0.53004 0.0
C947 C 0.57725 0.42739 0.48151 0.0
C948 C 0.56707 0.43143 0.49816 0.0
H949 H 0.48633 0.41305 0.57174 0.0
H950 H 0.50341 0.40806 0.54403 0.0
H951 H 0.58116 0.44705 0.54211 0.0
H952 H 0.62977 0.44935 0.45908 0.0
H953 H 0.61281 0.45725 0.48564 0.0
C954 C 0.1019 0.5457 0.74665 0.0
C955 C 0.09091 0.52117 0.75009 0.0
C956 C 0.11568 0.55538 0.73123 0.0
C957 C 0.12264 0.5395 0.68544 0.0
H958 H 0.18363 0.59777 0.68696 0.0
C959 C 0.18297 0.57519 0.62306 0.0
C960 C 0.1962 0.59992 0.62051 0.0
C961 C 0.17029 0.56569 0.63895 0.0
C962 C 0.16647 0.58168 0.68625 0.0
H963 H 0.08592 0.48757 0.74023 0.0
H964 H 0.10998 0.5045 0.71318 0.0
H965 H 0.16176 0.58094 0.71481 0.0
H966 H 0.20622 0.63412 0.63244 0.0
H967 H 0.18352 0.61756 0.66002 0.0
H968 H 0.12696 0.54039 0.65691 0.0
C969 C 0.10788 0.5162 0.72243 0.0
C970 C 0.15402 0.57199 0.70222 0.0
C971 C 0.09431 0.50656 0.73796 0.0
C972 C 0.19623 0.61498 0.63407 0.0
C973 C 0.18337 0.60547 0.64993 0.0
C974 C 0.13497 0.54929 0.66945 0.0
C975 C 0.11855 0.54068 0.71884 0.0
C976 C 0.13201 0.55078 0.70197 0.0
C977 C 0.17036 0.58069 0.65262 0.0
C978 C 0.15707 0.57048 0.66964 0.0
H979 H 0.09971 0.5574 0.75585 0.0
H980 H 0.12357 0.57428 0.72876 0.0
H981 H 0.10553 0.52333 0.68482 0.0
H982 H 0.18275 0.56313 0.6129 0.0
H983 H 0.16083 0.54656 0.64064 0.0
C984 C 0.58281 0.07758 0.89636 0.0
C985 C 0.58756 0.08844 0.91333 0.0
C986 C 0.58626 0.09096 0.88081 0.0
C987 C 0.61415 0.15339 0.86386 0.0
H988 H 0.56976 0.12312 0.82456 0.0
C989 C 0.60573 0.20477 0.80339 0.0
C990 C 0.60771 0.19635 0.78645 0.0
C991 C 0.60319 0.19153 0.81888 0.0
C992 C 0.58231 0.13172 0.83542 0.0
H993 H 0.59977 0.12164 0.92753 0.0
H994 H 0.60495 0.14501 0.90046 0.0
H995 H 0.56597 0.10049 0.8517 0.0
H996 H 0.60794 0.16727 0.77231 0.0
H997 H 0.60274 0.14375 0.79941 0.0
H998 H 0.62985 0.1849 0.84761 0.0
C999 C 0.59924 0.12632 0.89899 0.0
C1000 C 0.58031 0.11875 0.85094 0.0
C1001 C 0.59619 0.11297 0.91453 0.0
C1002 C 0.60645 0.17416 0.78521 0.0
C1003 C 0.60343 0.16071 0.80067 0.0
C1004 C 0.61586 0.16646 0.84845 0.0
C1005 C 0.59409 0.11544 0.88191 0.0
C1006 C 0.59629 0.12936 0.86536 0.0
C1007 C 0.60211 0.16944 0.81765 0.0
C1008 C 0.60002 0.1557 0.83408 0.0
H1009 H 0.57634 0.05869 0.89514 0.0
H1010 H 0.58271 0.08203 0.86793 0.0
H1011 H 0.62705 0.1621 0.87448 0.0
H1012 H 0.60677 0.22187 0.80473 0.0
H1013 H 0.60204 0.19852 0.83183 0.0
C1014 C 0.48427 0.56797 0.07461 0.0
C1015 C 0.50763 0.58485 0.07962 0.0
C1016 C 0.47415 0.57108 0.05903 0.0
C1017 C 0.48938 0.60086 0.01523 0.0
H1018 H 0.42574 0.59163 0.01672 0.0
C1019 C 0.45043 0.62731 0.95597 0.0
C1020 C 0.42617 0.61289 0.95206 0.0
C1021 C 0.46013 0.62331 0.97141 0.0
C1022 C 0.44338 0.59392 0.01597 0.0
H1023 H 0.53851 0.61842 0.07217 0.0
H1024 H 0.52094 0.62357 0.04477 0.0
H1025 H 0.44313 0.58576 0.04391 0.0
H1026 H 0.39308 0.58277 0.96107 0.0
H1027 H 0.41013 0.57533 0.98783 0.0
H1028 H 0.48962 0.60867 0.98729 0.0
C1029 C 0.51056 0.60787 0.05292 0.0
C1030 C 0.45336 0.59064 0.03158 0.0
C1031 C 0.52063 0.60487 0.06859 0.0
C1032 C 0.41183 0.59422 0.9638 0.0
C1033 C 0.42159 0.59008 0.97918 0.0
C1034 C 0.47934 0.60393 -0.00042 0.0
C1035 C 0.48721 0.59102 0.048 0.0
C1036 C 0.47651 0.59421 0.03139 0.0
C1037 C 0.44586 0.60465 0.98322 0.0
C1038 C 0.45626 0.60065 -0.00023 0.0
H1039 H 0.47388 0.55209 0.08256 0.0
H1040 H 0.45622 0.55766 0.05544 0.0
H1041 H 0.50713 0.60339 0.01463 0.0
H1042 H 0.4619 0.64195 0.94723 0.0
H1043 H 0.47878 0.63516 0.97422 0.0
C1044 C 0.91393 0.50329 0.24687 0.0
C1045 C 0.93878 0.5173 0.24639 0.0
C1046 C 0.90105 0.49338 0.23109 0.0
C1047 C 0.90617 0.49779 0.18118 0.0
H1048 H 0.85032 0.43499 0.18346 0.0
C1049 C 0.84234 0.45696 0.12097 0.0
C1050 C 0.83113 0.43227 0.11832 0.0
C1051 C 0.85605 0.46737 0.13633 0.0
C1052 C 0.86604 0.45241 0.18249 0.0
H1053 H 0.96969 0.53181 0.22911 0.0
H1054 H 0.94737 0.51403 0.20162 0.0
H1055 H 0.87313 0.45292 0.21059 0.0
H1056 H 0.82597 0.39914 0.12934 0.0
H1057 H 0.85059 0.41734 0.15585 0.0
H1058 H 0.89964 0.49686 0.15295 0.0
C1059 C 0.93767 0.51117 0.21406 0.0
C1060 C 0.87893 0.4629 0.19816 0.0
C1061 C 0.95051 0.52133 0.22982 0.0
C1062 C 0.83431 0.41822 0.1311 0.0
C1063 C 0.84828 0.42866 0.14636 0.0
C1064 C 0.89344 0.48718 0.16547 0.0
C1065 C 0.91276 0.49699 0.21449 0.0
C1066 C 0.8991 0.48578 0.19775 0.0
C1067 C 0.85912 0.45335 0.14928 0.0
C1068 C 0.87312 0.46439 0.16593 0.0
H1069 H 0.90445 0.50012 0.25947 0.0
H1070 H 0.88188 0.483 0.23192 0.0
H1071 H 0.92143 0.51554 0.18033 0.0
H1072 H 0.84007 0.46822 0.1114 0.0
H1073 H 0.86375 0.48635 0.13821 0.0
loop_
_geom_bond_atom_site_label_1
_geom_bond_atom_site_label_2
_geom_bond_distance
_geom_bond_site_symmetry_2
_ccdc_geom_bond_type
C0 C1 1.384 . S
C0 C2 1.384 . S
C0 H28 0.931 . S
C1 C0 1.384 . S
C1 C4 1.382 . S
C2 C0 1.384 . S
C2 C3 1.381 . S
C2 H29 0.930 . S
C3 C2 1.381 . S
C3 C5 1.381 . S
C3 C6 1.487 . S
C4 C1 1.382 . S
C4 C5 1.387 . S
C4 H30 0.930 . S
C5 C3 1.381 . S
C5 C4 1.387 . S
C5 H31 0.931 . S
C6 C3 1.487 . S
C6 C13 1.399 1_655 S
C6 N44 1.343 1_655 S
C7 C8 1.384 . S
C7 C9 1.384 . S
C7 H32 0.931 . S
C8 C7 1.384 . S
C8 C11 1.382 . S
C9 C7 1.384 . S
C9 C10 1.381 . S
C9 H33 0.930 . S
C10 C9 1.381 . S
C10 C12 1.381 . S
C10 C13 1.487 1_655 S
C11 C8 1.382 . S
C11 C12 1.387 . S
C11 H34 0.930 . S
C12 C10 1.381 . S
C12 C11 1.387 . S
C12 H35 0.931 1_655 S
C13 C6 1.399 1_455 S
C13 C10 1.487 1_455 S
C13 N45 1.343 . S
C14 C15 1.384 . S
C14 C16 1.384 . S
C14 H36 0.931 . S
C15 C14 1.384 . S
C15 C18 1.382 . S
C16 C14 1.384 . S
C16 C17 1.381 . S
C16 H37 0.930 . S
C17 C16 1.381 . S
C17 C19 1.381 . S
C17 C20 1.487 . S
C18 C15 1.382 . S
C18 C19 1.387 . S
C18 H38 0.930 . S
C19 C17 1.381 . S
C19 C18 1.387 . S
C19 H39 0.931 . S
C20 C17 1.487 . S
C20 C27 1.399 . S
C20 N45 1.343 . S
C21 C22 1.384 . S
C21 C23 1.384 . S
C21 H40 0.931 . S
C22 C21 1.384 . S
C22 C25 1.382 . S
C23 C21 1.384 . S
C23 C24 1.381 . S
C23 H41 0.930 . S
C24 C23 1.381 . S
C24 C26 1.381 . S
C24 C27 1.487 . S
C25 C22 1.382 . S
C25 C26 1.387 . S
C25 H42 0.930 . S
C26 C24 1.381 . S
C26 C25 1.387 . S
C26 H43 0.931 . S
C27 C20 1.399 . S
C27 C24 1.487 . S
C27 N44 1.343 . S
H28 C0 0.931 . S
H29 C2 0.930 . S
H30 C4 0.930 . S
H31 C5 0.931 . S
H32 C7 0.931 . S
H33 C9 0.930 . S
H34 C11 0.930 . S
H35 C12 0.931 1_455 S
H36 C14 0.931 . S
H37 C16 0.930 . S
H38 C18 0.930 . S
H39 C19 0.931 . S
H40 C21 0.931 . S
H41 C23 0.930 . S
H42 C25 0.930 . S
H43 C26 0.931 . S
N44 C6 1.343 1_455 S
N44 C27 1.343 . S
N45 C13 1.343 . S
N45 C20 1.343 . S
C46 C47 1.384 . S
C46 C48 1.384 . S
C46 H74 0.931 . S
C47 C46 1.384 . S
C47 C50 1.382 . S
C48 C46 1.384 . S
C48 C49 1.381 . S
C48 H75 0.930 . S
C49 C48 1.381 . S
C49 C51 1.381 . S
C49 C52 1.487 . S
C50 C47 1.382 . S
C50 C51 1.387 . S
C50 H76 0.930 . S
C51 C49 1.381 . S
C51 C50 1.387 . S
C51 H77 0.931 . S
C52 C49 1.487 . S
C52 C59 1.399 1_565 S
C52 N90 1.343 1_565 S
C53 C54 1.384 . S
C53 C55 1.384 . S
C53 H78 0.931 . S
C54 C53 1.384 . S
C54 C57 1.382 . S
C55 C53 1.384 . S
C55 C56 1.381 . S
C55 H79 0.930 . S
C56 C55 1.381 . S
C56 C58 1.381 . S
C56 C59 1.487 1_565 S
C57 C54 1.382 . S
C57 C58 1.387 . S
C57 H80 0.930 . S
C58 C56 1.381 . S
C58 C57 1.387 . S
C58 H81 0.931 1_565 S
C59 C52 1.399 1_545 S
C59 C56 1.487 1_545 S
C59 N91 1.343 . S
C60 C61 1.384 . S
C60 C62 1.384 . S
C60 H82 0.931 . S
C61 C60 1.384 . S
C61 C64 1.382 . S
C62 C60 1.384 . S
C62 C63 1.381 . S
C62 H83 0.930 . S
C63 C62 1.381 . S
C63 C65 1.381 . S
C63 C66 1.487 . S
C64 C61 1.382 . S
C64 C65 1.387 . S
C64 H84 0.930 . S
C65 C63 1.381 . S
C65 C64 1.387 . S
C65 H85 0.931 . S
C66 C63 1.487 . S
C66 C73 1.399 . S
C66 N91 1.343 . S
C67 C68 1.384 . S
C67 C69 1.384 . S
C67 H86 0.931 . S
C68 C67 1.384 . S
C68 C71 1.382 . S
C69 C67 1.384 . S
C69 C70 1.381 . S
C69 H87 0.930 . S
C70 C69 1.381 . S
C70 C72 1.381 . S
C70 C73 1.487 . S
C71 C68 1.382 . S
C71 C72 1.387 . S
C71 H88 0.930 . S
C72 C70 1.381 . S
C72 C71 1.387 . S
C72 H89 0.931 . S
C73 C66 1.399 . S
C73 C70 1.487 . S
C73 N90 1.343 . S
H74 C46 0.931 . S
H75 C48 0.930 . S
H76 C50 0.930 . S
H77 C51 0.931 . S
H78 C53 0.931 . S
H79 C55 0.930 . S
H80 C57 0.930 . S
H81 C58 0.931 1_545 S
H82 C60 0.931 . S
H83 C62 0.930 . S
H84 C64 0.930 . S
H85 C65 0.931 . S
H86 C67 0.931 . S
H87 C69 0.930 . S
H88 C71 0.930 . S
H89 C72 0.931 . S
N90 C52 1.343 1_545 S
N90 C73 1.343 . S
N91 C59 1.343 . S
N91 C66 1.343 . S
C92 C93 1.384 . S
C92 C94 1.384 . S
C92 H120 0.931 . S
C93 C92 1.384 . S
C93 C96 1.382 . S
C94 C92 1.384 . S
C94 C95 1.381 . S
C94 H121 0.930 . S
C95 C94 1.381 . S
C95 C97 1.381 . S
C95 C98 1.487 . S
C96 C93 1.382 . S
C96 C97 1.387 . S
C96 H122 0.930 . S
C97 C95 1.381 . S
C97 C96 1.387 . S
C97 H123 0.931 . S
C98 C95 1.487 . S
C98 C105 1.399 . S
C98 N136 1.343 . S
C99 C100 1.384 . S
C99 C101 1.384 . S
C99 H124 0.931 . S
C100 C99 1.384 . S
C100 C103 1.382 . S
C101 C99 1.384 . S
C101 C102 1.381 . S
C101 H125 0.930 . S
C102 C101 1.381 . S
C102 C104 1.381 . S
C102 C105 1.487 . S
C103 C100 1.382 . S
C103 C104 1.387 . S
C103 H126 0.930 . S
C104 C102 1.381 . S
C104 C103 1.387 . S
C104 H127 0.931 . S
C105 C98 1.399 . S
C105 C102 1.487 . S
C105 N137 1.343 . S
C106 C107 1.384 . S
C106 C108 1.384 . S
C106 H128 0.931 . S
C107 C106 1.384 . S
C107 C110 1.382 . S
C108 C106 1.384 . S
C108 C109 1.381 . S
C108 H129 0.930 . S
C109 C108 1.381 . S
C109 C111 1.381 . S
C109 C112 1.487 . S
C110 C107 1.382 . S
C110 C111 1.387 . S
C110 H130 0.930 . S
C111 C109 1.381 . S
C111 C110 1.387 . S
C111 H131 0.931 . S
C112 C109 1.487 . S
C112 C119 1.399 . S
C112 N137 1.343 . S
C113 C114 1.384 . S
C113 C115 1.384 . S
C113 H132 0.931 . S
C114 C113 1.384 . S
C114 C117 1.382 . S
C115 C113 1.384 . S
C115 C116 1.381 . S
C115 H133 0.930 . S
C116 C115 1.381 . S
C116 C118 1.381 . S
C116 C119 1.487 . S
C117 C114 1.382 . S
C117 C118 1.387 . S
C117 H134 0.930 . S
C118 C116 1.381 . S
C118 C117 1.387 . S
C118 H135 0.931 . S
C119 C112 1.399 . S
C119 C116 1.487 . S
C119 N136 1.343 . S
H120 C92 0.931 . S
H121 C94 0.930 . S
H122 C96 0.930 . S
H123 C97 0.931 . S
H124 C99 0.931 . S
H125 C101 0.930 . S
H126 C103 0.930 . S
H127 C104 0.931 . S
H128 C106 0.931 . S
H129 C108 0.930 . S
H130 C110 0.930 . S
H131 C111 0.931 . S
H132 C113 0.931 . S
H133 C115 0.930 . S
H134 C117 0.930 . S
H135 C118 0.931 . S
N136 C98 1.343 . S
N136 C119 1.343 . S
N137 C105 1.343 . S
N137 C112 1.343 . S
C138 C139 1.384 . S
C138 C140 1.384 . S
C138 H166 0.931 . S
C139 C138 1.384 . S
C139 C142 1.382 . S
C140 C138 1.384 . S
C140 C141 1.381 . S
C140 H167 0.930 . S
C141 C140 1.381 . S
C141 C143 1.381 . S
C141 C144 1.487 . S
C142 C139 1.382 . S
C142 C143 1.387 . S
C142 H168 0.930 . S
C143 C141 1.381 . S
C143 C142 1.387 . S
C143 H169 0.931 . S
C144 C141 1.487 . S
C144 C151 1.399 1_655 S
C144 N182 1.343 1_655 S
C145 C146 1.384 . S
C145 C147 1.384 . S
C145 H170 0.931 . S
C146 C145 1.384 . S
C146 C149 1.382 . S
C147 C145 1.384 . S
C147 C148 1.381 . S
C147 H171 0.930 . S
C148 C147 1.381 . S
C148 C150 1.381 . S
C148 C151 1.487 1_655 S
C149 C146 1.382 . S
C149 C150 1.387 . S
C149 H172 0.930 . S
C150 C148 1.381 . S
C150 C149 1.387 . S
C150 H173 0.931 1_655 S
C151 C144 1.399 1_455 S
C151 C148 1.487 1_455 S
C151 N183 1.343 . S
C152 C153 1.384 . S
C152 C154 1.384 . S
C152 H174 0.931 . S
C153 C152 1.384 . S
C153 C156 1.382 . S
C154 C152 1.384 . S
C154 C155 1.381 . S
C154 H175 0.930 . S
C155 C154 1.381 . S
C155 C157 1.381 . S
C155 C158 1.487 . S
C156 C153 1.382 . S
C156 C157 1.387 . S
C156 H176 0.930 . S
C157 C155 1.381 . S
C157 C156 1.387 . S
C157 H177 0.931 . S
C158 C155 1.487 . S
C158 C165 1.399 . S
C158 N183 1.343 . S
C159 C160 1.384 . S
C159 C161 1.384 . S
C159 H178 0.931 . S
C160 C159 1.384 . S
C160 C163 1.382 . S
C161 C159 1.384 . S
C161 C162 1.381 . S
C161 H179 0.930 . S
C162 C161 1.381 . S
C162 C164 1.381 . S
C162 C165 1.487 . S
C163 C160 1.382 . S
C163 C164 1.387 . S
C163 H180 0.930 . S
C164 C162 1.381 . S
C164 C163 1.387 . S
C164 H181 0.931 . S
C165 C158 1.399 . S
C165 C162 1.487 . S
C165 N182 1.343 . S
H166 C138 0.931 . S
H167 C140 0.930 . S
H168 C142 0.930 . S
H169 C143 0.931 . S
H170 C145 0.931 . S
H171 C147 0.930 . S
H172 C149 0.930 . S
H173 C150 0.931 1_455 S
H174 C152 0.931 . S
H175 C154 0.930 . S
H176 C156 0.930 . S
H177 C157 0.931 . S
H178 C159 0.931 . S
H179 C161 0.930 . S
H180 C163 0.930 . S
H181 C164 0.931 . S
N182 C144 1.343 1_455 S
N182 C165 1.343 . S
N183 C151 1.343 . S
N183 C158 1.343 . S
C184 C185 1.384 . S
C184 C186 1.384 . S
C184 H212 0.931 . S
C185 C184 1.384 . S
C185 C188 1.382 . S
C186 C184 1.384 . S
C186 C187 1.381 . S
C186 H213 0.906 1_556 S
C187 C186 1.381 . S
C187 C189 1.381 . S
C187 C190 1.487 . S
C188 C185 1.382 . S
C188 C189 1.387 . S
C188 H214 0.930 . S
C189 C187 1.381 . S
C189 C188 1.387 . S
C189 H215 0.931 . S
C190 C187 1.487 . S
C190 C197 1.399 1_566 S
C190 N228 1.343 1_565 S
C191 C192 1.384 . S
C191 C193 1.384 . S
C191 H216 0.931 . S
C192 C191 1.384 . S
C192 C195 1.382 . S
C193 C191 1.384 . S
C193 C194 1.381 . S
C193 H217 0.930 . S
C194 C193 1.381 . S
C194 C196 1.381 . S
C194 C197 1.487 1_565 S
C195 C192 1.382 . S
C195 C196 1.387 . S
C195 H218 0.930 . S
C196 C194 1.381 . S
C196 C195 1.387 . S
C196 H219 0.931 1_565 S
C197 C190 1.399 1_544 S
C197 C194 1.487 1_545 S
C197 N229 1.343 . S
C198 C199 1.384 . S
C198 C200 1.384 1_554 S
C198 H220 0.931 1_554 S
C199 C198 1.384 . S
C199 C202 1.382 . S
C200 C198 1.384 1_556 S
C200 C201 1.381 1_556 S
C200 H221 0.930 . S
C201 C200 1.381 1_554 S
C201 C203 1.381 . S
C201 C204 1.487 1_554 S
C202 C199 1.382 . S
C202 C203 1.387 . S
C202 H222 0.930 . S
C203 C201 1.381 . S
C203 C202 1.387 . S
C203 H223 0.931 . S
C204 C201 1.487 1_556 S
C204 C211 1.399 . S
C204 N229 1.343 1_556 S
C205 C206 1.384 . S
C205 C207 1.384 . S
C205 H224 0.931 . S
C206 C205 1.384 . S
C206 C209 1.382 . S
C207 C205 1.384 . S
C207 C208 1.381 . S
C207 H225 0.930 . S
C208 C207 1.381 . S
C208 C210 1.381 . S
C208 C211 1.487 . S
C209 C206 1.382 . S
C209 C210 1.387 . S
C209 H226 0.930 . S
C210 C208 1.381 . S
C210 C209 1.387 . S
C210 H227 0.931 . S
C211 C204 1.399 . S
C211 C208 1.487 . S
C211 N228 1.343 . S
H212 C184 0.931 . S
H213 C186 0.906 1_554 S
H214 C188 0.930 . S
H215 C189 0.931 . S
H216 C191 0.931 . S
H217 C193 0.930 . S
H218 C195 0.930 . S
H219 C196 0.931 1_545 S
H220 C198 0.931 1_556 S
H221 C200 0.930 . S
H222 C202 0.930 . S
H223 C203 0.931 . S
H224 C205 0.931 . S
H225 C207 0.930 . S
H226 C209 0.930 . S
H227 C210 0.931 . S
N228 C190 1.343 1_545 S
N228 C211 1.343 . S
N229 C197 1.343 . S
N229 C204 1.343 1_554 S
C230 C231 1.384 . S
C230 C232 1.384 . S
C230 H258 0.931 . S
C231 C230 1.384 . S
C231 C234 1.382 . S
C232 C230 1.384 . S
C232 C233 1.381 . S
C232 H259 0.930 . S
C233 C232 1.381 . S
C233 C235 1.381 . S
C233 C236 1.487 . S
C234 C231 1.382 . S
C234 C235 1.387 . S
C234 H260 0.930 . S
C235 C233 1.381 . S
C235 C234 1.387 . S
C235 H261 0.931 . S
C236 C233 1.487 . S
C236 C243 1.399 . S
C236 N274 1.343 . S
C237 C238 1.384 . S
C237 C239 1.384 . S
C237 H262 0.931 . S
C238 C237 1.384 . S
C238 C241 1.382 . S
C239 C237 1.384 . S
C239 C240 1.381 . S
C239 H263 0.930 . S
C240 C239 1.381 . S
C240 C242 1.381 . S
C240 C243 1.487 . S
C241 C238 1.382 . S
C241 C242 1.387 . S
C241 H264 0.930 . S
C242 C240 1.381 . S
C242 C241 1.387 . S
C242 H265 0.931 . S
C243 C236 1.399 . S
C243 C240 1.487 . S
C243 N275 1.343 . S
C244 C245 1.384 . S
C244 C246 1.384 . S
C244 H266 0.931 . S
C245 C244 1.384 . S
C245 C248 1.382 . S
C246 C244 1.384 . S
C246 C247 1.381 . S
C246 H267 0.930 . S
C247 C246 1.381 . S
C247 C249 1.381 . S
C247 C250 1.487 . S
C248 C245 1.382 . S
C248 C249 1.387 . S
C248 H268 0.930 . S
C249 C247 1.381 . S
C249 C248 1.387 . S
C249 H269 0.931 . S
C250 C247 1.487 . S
C250 C257 1.399 . S
C250 N275 1.343 . S
C251 C252 1.384 . S
C251 C253 1.384 . S
C251 H270 0.931 . S
C252 C251 1.384 . S
C252 C255 1.382 . S
C253 C251 1.384 . S
C253 C254 1.381 . S
C253 H271 0.930 . S
C254 C253 1.381 . S
C254 C256 1.381 . S
C254 C257 1.487 . S
C255 C252 1.382 . S
C255 C256 1.387 . S
C255 H272 0.930 . S
C256 C254 1.381 . S
C256 C255 1.387 . S
C256 H273 0.931 . S
C257 C250 1.399 . S
C257 C254 1.487 . S
C257 N274 1.343 . S
H258 C230 0.931 . S
H259 C232 0.930 . S
H260 C234 0.930 . S
H261 C235 0.931 . S
H262 C237 0.931 . S
H263 C239 0.930 . S
H264 C241 0.930 . S
H265 C242 0.931 . S
H266 C244 0.931 . S
H267 C246 0.930 . S
H268 C248 0.930 . S
H269 C249 0.931 . S
H270 C251 0.931 . S
H271 C253 0.930 . S
H272 C255 0.930 . S
H273 C256 0.931 . S
N274 C236 1.343 . S
N274 C257 1.343 . S
N275 C243 1.343 . S
N275 C250 1.343 . S
In276 O277 2.294 . S
In276 O278 2.326 . S
In276 O282 2.266 . S
In276 O283 2.326 . S
In276 O284 2.266 . S
In276 O285 2.326 . S
In276 O287 2.294 . S
In276 O288 2.326 . S
O277 In276 2.294 . S
O277 C286 1.240 . S
O278 In276 2.326 . S
O278 C286 1.252 . S
C279 O282 1.252 . S
C279 O283 1.260 . S
C280 O287 1.240 . S
C280 O288 1.252 . S
C281 O284 1.252 . S
C281 O285 1.260 . S
O282 In276 2.266 . S
O282 C279 1.252 . S
O283 In276 2.326 . S
O283 C279 1.260 . S
O284 In276 2.266 . S
O284 C281 1.252 . S
O285 In276 2.326 . S
O285 C281 1.260 . S
C286 O277 1.240 . S
C286 O278 1.252 . S
O287 In276 2.294 . S
O287 C280 1.240 . S
O288 In276 2.326 . S
O288 C280 1.252 . S
In289 O290 2.294 . S
In289 O291 2.326 . S
In289 O295 2.266 . S
In289 O296 2.326 . S
In289 O297 2.266 . S
In289 O298 2.326 . S
In289 O300 2.294 . S
In289 O301 2.326 . S
O290 In289 2.294 . S
O290 C299 1.240 . S
O291 In289 2.326 . S
O291 C299 1.252 . S
C292 O295 1.252 . S
C292 O296 1.260 . S
C293 O300 1.240 . S
C293 O301 1.252 . S
C294 O297 1.252 . S
C294 O298 1.260 . S
O295 In289 2.266 . S
O295 C292 1.252 . S
O296 In289 2.326 . S
O296 C292 1.260 . S
O297 In289 2.266 . S
O297 C294 1.252 . S
O298 In289 2.326 . S
O298 C294 1.260 . S
C299 O290 1.240 . S
C299 O291 1.252 . S
O300 In289 2.294 . S
O300 C293 1.240 . S
O301 In289 2.326 . S
O301 C293 1.252 . S
In302 O303 2.294 . S
In302 O304 2.326 . S
In302 O308 2.266 . S
In302 O309 2.326 . S
In302 O310 2.266 . S
In302 O311 2.326 . S
In302 O313 2.294 . S
In302 O314 2.326 . S
O303 In302 2.294 . S
O303 C312 1.240 . S
O304 In302 2.326 . S
O304 C312 1.252 . S
C305 O308 1.252 . S
C305 O309 1.260 . S
C306 O313 1.240 . S
C306 O314 1.252 . S
C307 O310 1.252 . S
C307 O311 1.260 . S
O308 In302 2.266 . S
O308 C305 1.252 . S
O309 In302 2.326 . S
O309 C305 1.260 . S
O310 In302 2.266 . S
O310 C307 1.252 . S
O311 In302 2.326 . S
O311 C307 1.260 . S
C312 O303 1.240 . S
C312 O304 1.252 . S
O313 In302 2.294 . S
O313 C306 1.240 . S
O314 In302 2.326 . S
O314 C306 1.252 . S
In315 O316 2.294 . S
In315 O317 2.326 . S
In315 O321 2.266 . S
In315 O322 2.326 . S
In315 O323 2.266 . S
In315 O324 2.326 . S
In315 O326 2.294 . S
In315 O327 2.326 . S
O316 In315 2.294 . S
O316 C325 1.240 . S
O317 In315 2.326 . S
O317 C325 1.252 . S
C318 O321 1.252 . S
C318 O322 1.260 . S
C319 O326 1.240 . S
C319 O327 1.252 . S
C320 O323 1.252 . S
C320 O324 1.260 . S
O321 In315 2.266 . S
O321 C318 1.252 . S
O322 In315 2.326 . S
O322 C318 1.260 . S
O323 In315 2.266 . S
O323 C320 1.252 . S
O324 In315 2.326 . S
O324 C320 1.260 . S
C325 O316 1.240 . S
C325 O317 1.252 . S
O326 In315 2.294 . S
O326 C319 1.240 . S
O327 In315 2.326 . S
O327 C319 1.252 . S
In328 O329 2.294 . S
In328 O330 2.326 . S
In328 O334 2.266 . S
In328 O335 2.326 . S
In328 O336 2.266 . S
In328 O337 2.326 . S
In328 O339 2.294 . S
In328 O340 2.326 . S
O329 In328 2.294 . S
O329 C338 1.240 . S
O330 In328 2.326 . S
O330 C338 1.252 . S
C331 O334 1.252 . S
C331 O335 1.260 . S
C332 O339 1.240 . S
C332 O340 1.252 . S
C333 O336 1.252 . S
C333 O337 1.260 . S
O334 In328 2.266 . S
O334 C331 1.252 . S
O335 In328 2.326 . S
O335 C331 1.260 . S
O336 In328 2.266 . S
O336 C333 1.252 . S
O337 In328 2.326 . S
O337 C333 1.260 . S
C338 O329 1.240 . S
C338 O330 1.252 . S
O339 In328 2.294 . S
O339 C332 1.240 . S
O340 In328 2.326 . S
O340 C332 1.252 . S
In341 O342 2.294 . S
In341 O343 2.326 . S
In341 O347 2.266 . S
In341 O348 2.326 . S
In341 O349 2.266 . S
In341 O350 2.326 . S
In341 O352 2.294 . S
In341 O353 2.326 . S
O342 In341 2.294 . S
O342 C351 1.240 . S
O343 In341 2.326 . S
O343 C351 1.252 . S
C344 O347 1.252 . S
C344 O348 1.260 . S
C345 O352 1.240 . S
C345 O353 1.252 . S
C346 O349 1.252 . S
C346 O350 1.260 . S
O347 In341 2.266 . S
O347 C344 1.252 . S
O348 In341 2.326 . S
O348 C344 1.260 . S
O349 In341 2.266 . S
O349 C346 1.252 . S
O350 In341 2.326 . S
O350 C346 1.260 . S
C351 O342 1.240 . S
C351 O343 1.252 . S
O352 In341 2.294 . S
O352 C345 1.240 . S
O353 In341 2.326 . S
O353 C345 1.252 . S
C354 C355 1.349 . S
C354 C356 1.327 . S
C354 H379 0.950 . S
C355 C354 1.349 . S
C355 C371 1.349 . S
C356 C354 1.327 . S
C356 C375 1.429 . S
C356 H380 0.950 . S
C357 C374 1.574 . S
C357 C376 1.368 . S
C357 H381 0.949 . S
H358 C362 0.949 . S
C359 C360 1.349 . S
C359 C361 1.327 . S
C359 H382 0.950 . S
C360 C359 1.349 . S
C360 C372 1.349 . S
C361 C359 1.327 . S
C361 C377 1.429 . S
C361 H383 0.950 . S
C362 H358 0.949 . S
C362 C370 1.574 . S
C362 C378 1.368 . S
H363 C371 0.950 . S
H364 C369 0.950 . S
H365 C370 0.949 . S
H366 C372 0.950 . S
H367 C373 0.950 . S
H368 C374 0.949 . S
C369 H364 0.950 . S
C369 C371 1.327 . S
C369 C375 1.429 . S
C370 C362 1.574 . S
C370 H365 0.949 . S
C370 C376 1.368 . S
C371 C355 1.349 . S
C371 H363 0.950 . S
C371 C369 1.327 . S
C372 C360 1.349 . S
C372 H366 0.950 . S
C372 C373 1.327 . S
C373 H367 0.950 . S
C373 C372 1.327 . S
C373 C377 1.429 . S
C374 C357 1.574 . S
C374 H368 0.949 . S
C374 C378 1.368 . S
C375 C356 1.429 . S
C375 C369 1.429 . S
C375 C376 1.523 . S
C376 C357 1.368 . S
C376 C370 1.368 . S
C376 C375 1.523 . S
C377 C361 1.429 . S
C377 C373 1.429 . S
C377 C378 1.523 . S
C378 C362 1.368 . S
C378 C374 1.368 . S
C378 C377 1.523 . S
H379 C354 0.950 . S
H380 C356 0.950 . S
H381 C357 0.949 . S
H382 C359 0.950 . S
H383 C361 0.950 . S
C384 C385 1.349 . S
C384 C386 1.327 . S
C384 H409 0.950 . S
C385 C384 1.349 . S
C385 C401 1.349 . S
C386 C384 1.327 . S
C386 C405 1.429 . S
C386 H410 0.950 . S
C387 C404 1.574 . S
C387 C406 1.368 . S
C387 H411 0.949 . S
H388 C392 0.949 . S
C389 C390 1.349 . S
C389 C391 1.327 . S
C389 H412 0.950 . S
C390 C389 1.349 . S
C390 C402 1.349 . S
C391 C389 1.327 . S
C391 C407 1.429 . S
C391 H413 0.950 . S
C392 H388 0.949 . S
C392 C400 1.574 . S
C392 C408 1.368 . S
H393 C401 0.950 . S
H394 C399 0.950 . S
H395 C400 0.949 . S
H396 C402 0.950 . S
H397 C403 0.950 . S
H398 C404 0.949 . S
C399 H394 0.950 . S
C399 C401 1.327 . S
C399 C405 1.429 . S
C400 C392 1.574 . S
C400 H395 0.949 . S
C400 C406 1.368 . S
C401 C385 1.349 . S
C401 H393 0.950 . S
C401 C399 1.327 . S
C402 C390 1.349 . S
C402 H396 0.950 . S
C402 C403 1.327 . S
C403 H397 0.950 . S
C403 C402 1.327 . S
C403 C407 1.429 . S
C404 C387 1.574 . S
C404 H398 0.949 . S
C404 C408 1.368 . S
C405 C386 1.429 . S
C405 C399 1.429 . S
C405 C406 1.523 . S
C406 C387 1.368 . S
C406 C400 1.368 . S
C406 C405 1.523 . S
C407 C391 1.429 . S
C407 C403 1.429 . S
C407 C408 1.523 . S
C408 C392 1.368 . S
C408 C404 1.368 . S
C408 C407 1.523 . S
H409 C384 0.950 . S
H410 C386 0.950 . S
H411 C387 0.949 . S
H412 C389 0.950 . S
H413 C391 0.950 . S
C414 C415 1.349 . S
C414 C416 1.327 . S
C414 H439 0.950 . S
C415 C414 1.349 . S
C415 C431 1.349 . S
C416 C414 1.327 . S
C416 C435 1.429 . S
C416 H440 0.950 . S
C417 C434 1.574 . S
C417 C436 1.368 . S
C417 H441 0.949 . S
H418 C422 0.949 . S
C419 C420 1.349 . S
C419 C421 1.327 . S
C419 H442 0.950 . S
C420 C419 1.349 . S
C420 C432 1.349 . S
C421 C419 1.327 . S
C421 C437 1.429 . S
C421 H443 0.950 . S
C422 H418 0.949 . S
C422 C430 1.574 . S
C422 C438 1.368 . S
H423 C431 0.950 . S
H424 C429 0.950 . S
H425 C430 0.949 . S
H426 C432 0.950 . S
H427 C433 0.950 . S
H428 C434 0.949 . S
C429 H424 0.950 . S
C429 C431 1.327 . S
C429 C435 1.429 . S
C430 C422 1.574 . S
C430 H425 0.949 . S
C430 C436 1.368 . S
C431 C415 1.349 . S
C431 H423 0.950 . S
C431 C429 1.327 . S
C432 C420 1.349 . S
C432 H426 0.950 . S
C432 C433 1.327 . S
C433 H427 0.950 . S
C433 C432 1.327 . S
C433 C437 1.429 . S
C434 C417 1.574 . S
C434 H428 0.949 . S
C434 C438 1.368 . S
C435 C416 1.429 . S
C435 C429 1.429 . S
C435 C436 1.523 . S
C436 C417 1.368 . S
C436 C430 1.368 . S
C436 C435 1.523 . S
C437 C421 1.429 . S
C437 C433 1.429 . S
C437 C438 1.523 . S
C438 C422 1.368 . S
C438 C434 1.368 . S
C438 C437 1.523 . S
H439 C414 0.950 . S
H440 C416 0.950 . S
H441 C417 0.949 . S
H442 C419 0.950 . S
H443 C421 0.950 . S
C444 C445 1.349 . S
C444 C446 1.327 . S
C444 H469 0.950 . S
C445 C444 1.349 . S
C445 C461 1.349 . S
C446 C444 1.327 . S
C446 C465 1.429 . S
C446 H470 0.950 . S
C447 C464 1.574 . S
C447 C466 1.368 . S
C447 H471 0.949 . S
H448 C452 0.949 . S
C449 C450 1.349 . S
C449 C451 1.327 . S
C449 H472 0.950 . S
C450 C449 1.349 . S
C450 C462 1.349 . S
C451 C449 1.327 . S
C451 C467 1.429 . S
C451 H473 0.950 . S
C452 H448 0.949 . S
C452 C460 1.574 . S
C452 C468 1.368 . S
H453 C461 0.950 . S
H454 C459 0.950 . S
H455 C460 0.949 . S
H456 C462 0.950 . S
H457 C463 0.950 . S
H458 C464 0.949 . S
C459 H454 0.950 . S
C459 C461 1.327 . S
C459 C465 1.429 . S
C460 C452 1.574 . S
C460 H455 0.949 . S
C460 C466 1.368 . S
C461 C445 1.349 . S
C461 H453 0.950 . S
C461 C459 1.327 . S
C462 C450 1.349 . S
C462 H456 0.950 . S
C462 C463 1.327 . S
C463 H457 0.950 . S
C463 C462 1.327 . S
C463 C467 1.429 . S
C464 C447 1.574 . S
C464 H458 0.949 . S
C464 C468 1.368 . S
C465 C446 1.429 . S
C465 C459 1.429 . S
C465 C466 1.523 . S
C466 C447 1.368 . S
C466 C460 1.368 . S
C466 C465 1.523 . S
C467 C451 1.429 . S
C467 C463 1.429 . S
C467 C468 1.523 . S
C468 C452 1.368 . S
C468 C464 1.368 . S
C468 C467 1.523 . S
H469 C444 0.950 . S
H470 C446 0.950 . S
H471 C447 0.949 . S
H472 C449 0.950 . S
H473 C451 0.950 . S
C474 C475 1.349 . S
C474 C476 1.327 . S
C474 H499 0.950 . S
C475 C474 1.349 . S
C475 C491 1.349 . S
C476 C474 1.327 . S
C476 C495 1.429 . S
C476 H500 0.950 . S
C477 C494 1.574 . S
C477 C496 1.368 . S
C477 H501 0.949 . S
H478 C482 0.949 . S
C479 C480 1.349 . S
C479 C481 1.327 . S
C479 H502 0.950 . S
C480 C479 1.349 . S
C480 C492 1.349 . S
C481 C479 1.327 . S
C481 C497 1.429 . S
C481 H503 0.950 . S
C482 H478 0.949 . S
C482 C490 1.574 . S
C482 C498 1.368 . S
H483 C491 0.950 . S
H484 C489 0.950 . S
H485 C490 0.949 . S
H486 C492 0.950 . S
H487 C493 0.950 . S
H488 C494 0.949 . S
C489 H484 0.950 . S
C489 C491 1.327 . S
C489 C495 1.429 . S
C490 C482 1.574 . S
C490 H485 0.949 . S
C490 C496 1.368 . S
C491 C475 1.349 . S
C491 H483 0.950 . S
C491 C489 1.327 . S
C492 C480 1.349 . S
C492 H486 0.950 . S
C492 C493 1.327 . S
C493 H487 0.950 . S
C493 C492 1.327 . S
C493 C497 1.429 . S
C494 C477 1.574 . S
C494 H488 0.949 . S
C494 C498 1.368 . S
C495 C476 1.429 . S
C495 C489 1.429 . S
C495 C496 1.523 . S
C496 C477 1.368 . S
C496 C490 1.368 . S
C496 C495 1.523 . S
C497 C481 1.429 . S
C497 C493 1.429 . S
C497 C498 1.523 . S
C498 C482 1.368 . S
C498 C494 1.368 . S
C498 C497 1.523 . S
H499 C474 0.950 . S
H500 C476 0.950 . S
H501 C477 0.949 . S
H502 C479 0.950 . S
H503 C481 0.950 . S
C504 C505 1.349 . S
C504 C506 1.327 . S
C504 H529 0.950 . S
C505 C504 1.349 . S
C505 C521 1.349 . S
C506 C504 1.327 . S
C506 C525 1.429 . S
C506 H530 0.950 . S
C507 C524 1.574 . S
C507 C526 1.368 . S
C507 H531 0.949 . S
H508 C512 0.949 . S
C509 C510 1.349 . S
C509 C511 1.327 . S
C509 H532 0.950 . S
C510 C509 1.349 . S
C510 C522 1.349 . S
C511 C509 1.327 . S
C511 C527 1.429 . S
C511 H533 0.950 . S
C512 H508 0.949 . S
C512 C520 1.574 . S
C512 C528 1.368 . S
H513 C521 0.950 . S
H514 C519 0.950 . S
H515 C520 0.949 . S
H516 C522 0.950 . S
H517 C523 0.950 . S
H518 C524 0.949 . S
C519 H514 0.950 . S
C519 C521 1.327 . S
C519 C525 1.429 . S
C520 C512 1.574 . S
C520 H515 0.949 . S
C520 C526 1.368 . S
C521 C505 1.349 . S
C521 H513 0.950 . S
C521 C519 1.327 . S
C522 C510 1.349 . S
C522 H516 0.950 . S
C522 C523 1.327 . S
C523 H517 0.950 . S
C523 C522 1.327 . S
C523 C527 1.429 . S
C524 C507 1.574 . S
C524 H518 0.949 . S
C524 C528 1.368 . S
C525 C506 1.429 . S
C525 C519 1.429 . S
C525 C526 1.523 . S
C526 C507 1.368 . S
C526 C520 1.368 . S
C526 C525 1.523 . S
C527 C511 1.429 . S
C527 C523 1.429 . S
C527 C528 1.523 . S
C528 C512 1.368 . S
C528 C524 1.368 . S
C528 C527 1.523 . S
H529 C504 0.950 . S
H530 C506 0.950 . S
H531 C507 0.949 . S
H532 C509 0.950 . S
H533 C511 0.950 . S
C534 C535 1.349 . S
C534 C536 1.327 . S
C534 H559 0.950 . S
C535 C534 1.349 . S
C535 C551 1.349 . S
C536 C534 1.327 . S
C536 C555 1.429 . S
C536 H560 0.950 . S
C537 C554 1.574 . S
C537 C556 1.368 . S
C537 H561 0.949 . S
H538 C542 0.949 . S
C539 C540 1.349 . S
C539 C541 1.327 . S
C539 H562 0.950 . S
C540 C539 1.349 . S
C540 C552 1.349 . S
C541 C539 1.327 . S
C541 C557 1.429 . S
C541 H563 0.950 . S
C542 H538 0.949 . S
C542 C550 1.574 . S
C542 C558 1.368 . S
H543 C551 0.950 . S
H544 C549 0.950 . S
H545 C550 0.949 . S
H546 C552 0.950 . S
H547 C553 0.950 . S
H548 C554 0.949 . S
C549 H544 0.950 . S
C549 C551 1.327 . S
C549 C555 1.429 . S
C550 C542 1.574 . S
C550 H545 0.949 . S
C550 C556 1.368 . S
C551 C535 1.349 . S
C551 H543 0.950 . S
C551 C549 1.327 . S
C552 C540 1.349 . S
C552 H546 0.950 . S
C552 C553 1.327 . S
C553 H547 0.950 . S
C553 C552 1.327 . S
C553 C557 1.429 . S
C554 C537 1.574 . S
C554 H548 0.949 . S
C554 C558 1.368 . S
C555 C536 1.429 . S
C555 C549 1.429 . S
C555 C556 1.523 . S
C556 C537 1.368 . S
C556 C550 1.368 . S
C556 C555 1.523 . S
C557 C541 1.429 . S
C557 C553 1.429 . S
C557 C558 1.523 . S
C558 C542 1.368 . S
C558 C554 1.368 . S
C558 C557 1.523 . S
H559 C534 0.950 . S
H560 C536 0.950 . S
H561 C537 0.949 . S
H562 C539 0.950 . S
H563 C541 0.950 . S
C564 C565 1.349 . S
C564 C566 1.327 . S
C564 H589 0.950 . S
C565 C564 1.349 . S
C565 C581 1.349 . S
C566 C564 1.327 . S
C566 C585 1.429 . S
C566 H590 0.950 . S
C567 C584 1.574 . S
C567 C586 1.368 . S
C567 H591 0.949 . S
H568 C572 0.949 . S
C569 C570 1.349 . S
C569 C571 1.327 . S
C569 H592 0.950 . S
C570 C569 1.349 . S
C570 C582 1.349 . S
C571 C569 1.327 . S
C571 C587 1.429 . S
C571 H593 0.950 . S
C572 H568 0.949 . S
C572 C580 1.574 . S
C572 C588 1.368 . S
H573 C581 0.950 . S
H574 C579 0.950 . S
H575 C580 0.949 . S
H576 C582 0.950 . S
H577 C583 0.950 . S
H578 C584 0.949 . S
C579 H574 0.950 . S
C579 C581 1.327 . S
C579 C585 1.429 . S
C580 C572 1.574 . S
C580 H575 0.949 . S
C580 C586 1.368 . S
C581 C565 1.349 . S
C581 H573 0.950 . S
C581 C579 1.327 . S
C582 C570 1.349 . S
C582 H576 0.950 . S
C582 C583 1.327 . S
C583 H577 0.950 . S
C583 C582 1.327 . S
C583 C587 1.429 . S
C584 C567 1.574 . S
C584 H578 0.949 . S
C584 C588 1.368 . S
C585 C566 1.429 . S
C585 C579 1.429 . S
C585 C586 1.523 . S
C586 C567 1.368 . S
C586 C580 1.368 . S
C586 C585 1.523 . S
C587 C571 1.429 . S
C587 C583 1.429 . S
C587 C588 1.523 . S
C588 C572 1.368 . S
C588 C584 1.368 . S
C588 C587 1.523 . S
H589 C564 0.950 . S
H590 C566 0.950 . S
H591 C567 0.949 . S
H592 C569 0.950 . S
H593 C571 0.950 . S
C594 C595 1.349 . S
C594 C596 1.327 . S
C594 H619 0.950 . S
C595 C594 1.349 . S
C595 C611 1.349 . S
C596 C594 1.327 . S
C596 C615 1.429 . S
C596 H620 0.950 . S
C597 C614 1.574 . S
C597 C616 1.368 . S
C597 H621 0.949 . S
H598 C602 0.949 . S
C599 C600 1.349 . S
C599 C601 1.327 . S
C599 H622 0.950 . S
C600 C599 1.349 . S
C600 C612 1.349 . S
C601 C599 1.327 . S
C601 C617 1.429 . S
C601 H623 0.950 . S
C602 H598 0.949 . S
C602 C610 1.574 . S
C602 C618 1.368 . S
H603 C611 0.950 . S
H604 C609 0.950 . S
H605 C610 0.949 . S
H606 C612 0.950 . S
H607 C613 0.950 . S
H608 C614 0.949 . S
C609 H604 0.950 . S
C609 C611 1.327 . S
C609 C615 1.429 . S
C610 C602 1.574 . S
C610 H605 0.949 . S
C610 C616 1.368 . S
C611 C595 1.349 . S
C611 H603 0.950 . S
C611 C609 1.327 . S
C612 C600 1.349 . S
C612 H606 0.950 . S
C612 C613 1.327 . S
C613 H607 0.950 . S
C613 C612 1.327 . S
C613 C617 1.429 . S
C614 C597 1.574 . S
C614 H608 0.949 . S
C614 C618 1.368 . S
C615 C596 1.429 . S
C615 C609 1.429 . S
C615 C616 1.523 . S
C616 C597 1.368 . S
C616 C610 1.368 . S
C616 C615 1.523 . S
C617 C601 1.429 . S
C617 C613 1.429 . S
C617 C618 1.523 . S
C618 C602 1.368 . S
C618 C614 1.368 . S
C618 C617 1.523 . S
H619 C594 0.950 . S
H620 C596 0.950 . S
H621 C597 0.949 . S
H622 C599 0.950 . S
H623 C601 0.950 . S
C624 C625 1.349 . S
C624 C626 1.327 . S
C624 H649 0.950 . S
C625 C624 1.349 . S
C625 C641 1.349 . S
C626 C624 1.327 . S
C626 C645 1.429 . S
C626 H650 0.950 . S
C627 C644 1.574 . S
C627 C646 1.368 . S
C627 H651 0.949 . S
H628 C632 0.949 . S
C629 C630 1.349 . S
C629 C631 1.327 . S
C629 H652 0.950 . S
C630 C629 1.349 . S
C630 C642 1.349 . S
C631 C629 1.327 . S
C631 C647 1.429 . S
C631 H653 0.950 . S
C632 H628 0.949 . S
C632 C640 1.574 . S
C632 C648 1.368 . S
H633 C641 0.950 . S
H634 C639 0.950 . S
H635 C640 0.949 . S
H636 C642 0.950 . S
H637 C643 0.950 . S
H638 C644 0.949 . S
C639 H634 0.950 . S
C639 C641 1.327 . S
C639 C645 1.429 . S
C640 C632 1.574 . S
C640 H635 0.949 . S
C640 C646 1.368 . S
C641 C625 1.349 . S
C641 H633 0.950 . S
C641 C639 1.327 . S
C642 C630 1.349 . S
C642 H636 0.950 . S
C642 C643 1.327 . S
C643 H637 0.950 . S
C643 C642 1.327 . S
C643 C647 1.429 . S
C644 C627 1.574 . S
C644 H638 0.949 . S
C644 C648 1.368 . S
C645 C626 1.429 . S
C645 C639 1.429 . S
C645 C646 1.523 . S
C646 C627 1.368 . S
C646 C640 1.368 . S
C646 C645 1.523 . S
C647 C631 1.429 . S
C647 C643 1.429 . S
C647 C648 1.523 . S
C648 C632 1.368 . S
C648 C644 1.368 . S
C648 C647 1.523 . S
H649 C624 0.950 . S
H650 C626 0.950 . S
H651 C627 0.949 . S
H652 C629 0.950 . S
H653 C631 0.950 . S
C654 C655 1.349 . S
C654 C656 1.327 . S
C654 H679 0.950 . S
C655 C654 1.349 . S
C655 C671 1.349 . S
C656 C654 1.327 . S
C656 C675 1.429 . S
C656 H680 0.950 . S
C657 C674 1.574 . S
C657 C676 1.368 . S
C657 H681 0.949 . S
H658 C662 0.949 . S
C659 C660 1.349 . S
C659 C661 1.327 . S
C659 H682 0.950 . S
C660 C659 1.349 . S
C660 C672 1.349 . S
C661 C659 1.327 . S
C661 C677 1.429 . S
C661 H683 0.950 . S
C662 H658 0.949 . S
C662 C670 1.574 . S
C662 C678 1.368 . S
H663 C671 0.950 . S
H664 C669 0.950 . S
H665 C670 0.949 . S
H666 C672 0.950 . S
H667 C673 0.950 . S
H668 C674 0.949 . S
C669 H664 0.950 . S
C669 C671 1.327 . S
C669 C675 1.429 . S
C670 C662 1.574 . S
C670 H665 0.949 . S
C670 C676 1.368 . S
C671 C655 1.349 . S
C671 H663 0.950 . S
C671 C669 1.327 . S
C672 C660 1.349 . S
C672 H666 0.950 . S
C672 C673 1.327 . S
C673 H667 0.950 . S
C673 C672 1.327 . S
C673 C677 1.429 . S
C674 C657 1.574 . S
C674 H668 0.949 . S
C674 C678 1.368 . S
C675 C656 1.429 . S
C675 C669 1.429 . S
C675 C676 1.523 . S
C676 C657 1.368 . S
C676 C670 1.368 . S
C676 C675 1.523 . S
C677 C661 1.429 . S
C677 C673 1.429 . S
C677 C678 1.523 . S
C678 C662 1.368 . S
C678 C674 1.368 . S
C678 C677 1.523 . S
H679 C654 0.950 . S
H680 C656 0.950 . S
H681 C657 0.949 . S
H682 C659 0.950 . S
H683 C661 0.950 . S
C684 C685 1.349 . S
C684 C686 1.327 . S
C684 H709 0.950 . S
C685 C684 1.349 . S
C685 C701 1.349 . S
C686 C684 1.327 . S
C686 C705 1.429 . S
C686 H710 0.950 . S
C687 C704 1.574 . S
C687 C706 1.368 . S
C687 H711 0.949 . S
H688 C692 0.949 . S
C689 C690 1.349 . S
C689 C691 1.327 . S
C689 H712 0.950 . S
C690 C689 1.349 . S
C690 C702 1.349 . S
C691 C689 1.327 . S
C691 C707 1.429 . S
C691 H713 0.950 . S
C692 H688 0.949 . S
C692 C700 1.574 . S
C692 C708 1.368 . S
H693 C701 0.950 . S
H694 C699 0.950 . S
H695 C700 0.949 . S
H696 C702 0.950 . S
H697 C703 0.950 . S
H698 C704 0.949 . S
C699 H694 0.950 . S
C699 C701 1.327 . S
C699 C705 1.429 . S
C700 C692 1.574 . S
C700 H695 0.949 . S
C700 C706 1.368 . S
C701 C685 1.349 . S
C701 H693 0.950 . S
C701 C699 1.327 . S
C702 C690 1.349 . S
C702 H696 0.950 . S
C702 C703 1.327 . S
C703 H697 0.950 . S
C703 C702 1.327 . S
C703 C707 1.429 . S
C704 C687 1.574 . S
C704 H698 0.949 . S
C704 C708 1.368 . S
C705 C686 1.429 . S
C705 C699 1.429 . S
C705 C706 1.523 . S
C706 C687 1.368 . S
C706 C700 1.368 . S
C706 C705 1.523 . S
C707 C691 1.429 . S
C707 C703 1.429 . S
C707 C708 1.523 . S
C708 C692 1.368 . S
C708 C704 1.368 . S
C708 C707 1.523 . S
H709 C684 0.950 . S
H710 C686 0.950 . S
H711 C687 0.949 . S
H712 C689 0.950 . S
H713 C691 0.950 . S
C714 C715 1.349 . S
C714 C716 1.327 . S
C714 H739 0.950 . S
C715 C714 1.349 . S
C715 C731 1.349 . S
C716 C714 1.327 . S
C716 C735 1.429 . S
C716 H740 0.950 . S
C717 C734 1.574 . S
C717 C736 1.368 . S
C717 H741 0.949 . S
H718 C722 0.949 . S
C719 C720 1.349 . S
C719 C721 1.327 . S
C719 H742 0.950 . S
C720 C719 1.349 . S
C720 C732 1.349 . S
C721 C719 1.327 . S
C721 C737 1.429 . S
C721 H743 0.950 . S
C722 H718 0.949 . S
C722 C730 1.574 . S
C722 C738 1.368 . S
H723 C731 0.950 . S
H724 C729 0.950 . S
H725 C730 0.949 . S
H726 C732 0.950 . S
H727 C733 0.950 . S
H728 C734 0.949 . S
C729 H724 0.950 . S
C729 C731 1.327 . S
C729 C735 1.429 . S
C730 C722 1.574 . S
C730 H725 0.949 . S
C730 C736 1.368 . S
C731 C715 1.349 . S
C731 H723 0.950 . S
C731 C729 1.327 . S
C732 C720 1.349 . S
C732 H726 0.950 . S
C732 C733 1.327 . S
C733 H727 0.950 . S
C733 C732 1.327 . S
C733 C737 1.429 . S
C734 C717 1.574 . S
C734 H728 0.949 . S
C734 C738 1.368 . S
C735 C716 1.429 . S
C735 C729 1.429 . S
C735 C736 1.523 . S
C736 C717 1.368 . S
C736 C730 1.368 . S
C736 C735 1.523 . S
C737 C721 1.429 . S
C737 C733 1.429 . S
C737 C738 1.523 . S
C738 C722 1.368 . S
C738 C734 1.368 . S
C738 C737 1.523 . S
H739 C714 0.950 . S
H740 C716 0.950 . S
H741 C717 0.949 . S
H742 C719 0.950 . S
H743 C721 0.950 . S
C744 C745 1.349 . S
C744 C746 1.327 . S
C744 H769 0.950 . S
C745 C744 1.349 . S
C745 C761 1.349 . S
C746 C744 1.327 . S
C746 C765 1.429 . S
C746 H770 0.950 . S
C747 C764 1.574 . S
C747 C766 1.368 . S
C747 H771 0.949 . S
H748 C752 0.949 . S
C749 C750 1.349 . S
C749 C751 1.327 . S
C749 H772 0.950 . S
C750 C749 1.349 . S
C750 C762 1.349 . S
C751 C749 1.327 . S
C751 C767 1.429 . S
C751 H773 0.950 . S
C752 H748 0.949 . S
C752 C760 1.574 . S
C752 C768 1.368 . S
H753 C761 0.950 . S
H754 C759 0.950 . S
H755 C760 0.949 . S
H756 C762 0.950 . S
H757 C763 0.950 . S
H758 C764 0.949 . S
C759 H754 0.950 . S
C759 C761 1.327 . S
C759 C765 1.429 . S
C760 C752 1.574 . S
C760 H755 0.949 . S
C760 C766 1.368 . S
C761 C745 1.349 . S
C761 H753 0.950 . S
C761 C759 1.327 . S
C762 C750 1.349 . S
C762 H756 0.950 . S
C762 C763 1.327 . S
C763 H757 0.950 . S
C763 C762 1.327 . S
C763 C767 1.429 . S
C764 C747 1.574 . S
C764 H758 0.949 . S
C764 C768 1.368 . S
C765 C746 1.429 . S
C765 C759 1.429 . S
C765 C766 1.523 . S
C766 C747 1.368 . S
C766 C760 1.368 . S
C766 C765 1.523 . S
C767 C751 1.429 . S
C767 C763 1.429 . S
C767 C768 1.523 . S
C768 C752 1.368 . S
C768 C764 1.368 . S
C768 C767 1.523 . S
H769 C744 0.950 . S
H770 C746 0.950 . S
H771 C747 0.949 . S
H772 C749 0.950 . S
H773 C751 0.950 . S
C774 C775 1.349 . S
C774 C776 1.327 . S
C774 H799 0.950 . S
C775 C774 1.349 . S
C775 C791 1.349 . S
C776 C774 1.327 . S
C776 C795 1.429 . S
C776 H800 0.950 . S
C777 C794 1.574 . S
C777 C796 1.368 . S
C777 H801 0.949 . S
H778 C782 0.949 . S
C779 C780 1.349 . S
C779 C781 1.327 . S
C779 H802 0.950 . S
C780 C779 1.349 . S
C780 C792 1.349 . S
C781 C779 1.327 . S
C781 C797 1.429 . S
C781 H803 0.950 . S
C782 H778 0.949 . S
C782 C790 1.574 . S
C782 C798 1.368 . S
H783 C791 0.950 . S
H784 C789 0.950 . S
H785 C790 0.949 . S
H786 C792 0.950 . S
H787 C793 0.950 . S
H788 C794 0.949 . S
C789 H784 0.950 . S
C789 C791 1.327 . S
C789 C795 1.429 . S
C790 C782 1.574 . S
C790 H785 0.949 . S
C790 C796 1.368 . S
C791 C775 1.349 . S
C791 H783 0.950 . S
C791 C789 1.327 . S
C792 C780 1.349 . S
C792 H786 0.950 . S
C792 C793 1.327 . S
C793 H787 0.950 . S
C793 C792 1.327 . S
C793 C797 1.429 . S
C794 C777 1.574 . S
C794 H788 0.949 . S
C794 C798 1.368 . S
C795 C776 1.429 . S
C795 C789 1.429 . S
C795 C796 1.523 . S
C796 C777 1.368 . S
C796 C790 1.368 . S
C796 C795 1.523 . S
C797 C781 1.429 . S
C797 C793 1.429 . S
C797 C798 1.523 . S
C798 C782 1.368 . S
C798 C794 1.368 . S
C798 C797 1.523 . S
H799 C774 0.950 . S
H800 C776 0.950 . S
H801 C777 0.949 . S
H802 C779 0.950 . S
H803 C781 0.950 . S
C804 C805 1.349 . S
C804 C806 1.327 . S
C804 H829 0.950 . S
C805 C804 1.349 . S
C805 C821 1.349 . S
C806 C804 1.327 . S
C806 C825 1.429 . S
C806 H830 0.950 . S
C807 C824 1.574 . S
C807 C826 1.368 . S
C807 H831 0.949 . S
H808 C812 0.949 . S
C809 C810 1.349 . S
C809 C811 1.327 . S
C809 H832 0.950 . S
C810 C809 1.349 . S
C810 C822 1.349 . S
C811 C809 1.327 . S
C811 C827 1.445 . S
C811 H833 0.950 1_554 S
C812 H808 0.949 . S
C812 C820 1.574 . S
C812 C828 1.368 . S
H813 C821 0.950 . S
H814 C819 0.950 . S
H815 C820 0.949 . S
H816 C822 0.950 . S
H817 C823 0.950 . S
H818 C824 0.949 . S
C819 H814 0.950 . S
C819 C821 1.327 . S
C819 C825 1.429 . S
C820 C812 1.574 . S
C820 H815 0.949 . S
C820 C826 1.368 . S
C821 C805 1.349 . S
C821 H813 0.950 . S
C821 C819 1.327 . S
C822 C810 1.349 . S
C822 H816 0.950 . S
C822 C823 1.327 . S
C823 H817 0.950 . S
C823 C822 1.327 . S
C823 C827 1.465 . S
C824 C807 1.574 . S
C824 H818 0.949 . S
C824 C828 1.368 . S
C825 C806 1.429 . S
C825 C819 1.429 . S
C825 C826 1.523 . S
C826 C807 1.368 . S
C826 C820 1.368 . S
C826 C825 1.523 . S
C827 C811 1.445 . S
C827 C823 1.465 . S
C827 C828 1.477 1_554 S
C828 C812 1.368 . S
C828 C824 1.368 . S
C828 C827 1.477 1_556 S
H829 C804 0.950 . S
H830 C806 0.950 . S
H831 C807 0.949 . S
H832 C809 0.950 . S
H833 C811 0.950 1_556 S
C834 C835 1.349 . S
C834 C836 1.327 . S
C834 H859 0.950 . S
C835 C834 1.349 . S
C835 C851 1.349 . S
C836 C834 1.327 . S
C836 C855 1.429 . S
C836 H860 0.950 . S
C837 C854 1.574 . S
C837 C856 1.368 . S
C837 H861 0.949 . S
H838 C842 0.949 . S
C839 C840 1.349 . S
C839 C841 1.327 . S
C839 H862 0.950 . S
C840 C839 1.349 . S
C840 C852 1.349 . S
C841 C839 1.327 . S
C841 C857 1.429 . S
C841 H863 0.950 . S
C842 H838 0.949 . S
C842 C850 1.574 . S
C842 C858 1.368 . S
H843 C851 0.950 . S
H844 C849 0.950 . S
H845 C850 0.949 . S
H846 C852 0.950 . S
H847 C853 0.950 . S
H848 C854 0.949 . S
C849 H844 0.950 . S
C849 C851 1.327 . S
C849 C855 1.429 . S
C850 C842 1.574 . S
C850 H845 0.949 . S
C850 C856 1.368 . S
C851 C835 1.349 . S
C851 H843 0.950 . S
C851 C849 1.327 . S
C852 C840 1.349 . S
C852 H846 0.950 . S
C852 C853 1.327 . S
C853 H847 0.950 . S
C853 C852 1.327 . S
C853 C857 1.429 . S
C854 C837 1.574 . S
C854 H848 0.949 . S
C854 C858 1.368 . S
C855 C836 1.429 . S
C855 C849 1.429 . S
C855 C856 1.523 . S
C856 C837 1.368 . S
C856 C850 1.368 . S
C856 C855 1.523 . S
C857 C841 1.429 . S
C857 C853 1.429 . S
C857 C858 1.523 . S
C858 C842 1.368 . S
C858 C854 1.368 . S
C858 C857 1.523 . S
H859 C834 0.950 . S
H860 C836 0.950 . S
H861 C837 0.949 . S
H862 C839 0.950 . S
H863 C841 0.950 . S
C864 C865 1.349 . S
C864 C866 1.327 . S
C864 H889 0.950 . S
C865 C864 1.349 . S
C865 C881 1.349 . S
C866 C864 1.327 . S
C866 C885 1.429 . S
C866 H890 0.950 . S
C867 C884 1.574 . S
C867 C886 1.368 . S
C867 H891 0.949 . S
H868 C872 0.949 . S
C869 C870 1.349 . S
C869 C871 1.327 . S
C869 H892 0.950 . S
C870 C869 1.349 . S
C870 C882 1.349 . S
C871 C869 1.327 . S
C871 C887 1.429 . S
C871 H893 0.950 . S
C872 H868 0.949 . S
C872 C880 1.574 . S
C872 C888 1.368 . S
H873 C881 0.950 . S
H874 C879 0.950 . S
H875 C880 0.949 . S
H876 C882 0.950 . S
H877 C883 0.950 . S
H878 C884 0.949 . S
C879 H874 0.950 . S
C879 C881 1.327 . S
C879 C885 1.429 . S
C880 C872 1.574 . S
C880 H875 0.949 . S
C880 C886 1.368 . S
C881 C865 1.349 . S
C881 H873 0.950 . S
C881 C879 1.327 . S
C882 C870 1.349 . S
C882 H876 0.950 . S
C882 C883 1.327 . S
C883 H877 0.950 . S
C883 C882 1.327 . S
C883 C887 1.429 . S
C884 C867 1.574 . S
C884 H878 0.949 . S
C884 C888 1.368 . S
C885 C866 1.429 . S
C885 C879 1.429 . S
C885 C886 1.523 . S
C886 C867 1.368 . S
C886 C880 1.368 . S
C886 C885 1.523 . S
C887 C871 1.429 . S
C887 C883 1.429 . S
C887 C888 1.523 . S
C888 C872 1.368 . S
C888 C884 1.368 . S
C888 C887 1.523 . S
H889 C864 0.950 . S
H890 C866 0.950 . S
H891 C867 0.949 . S
H892 C869 0.950 . S
H893 C871 0.950 . S
C894 C895 1.349 . S
C894 C896 1.327 . S
C894 H919 0.950 . S
C895 C894 1.349 . S
C895 C911 1.349 . S
C896 C894 1.327 . S
C896 C915 1.429 . S
C896 H920 0.950 . S
C897 C914 1.574 . S
C897 C916 1.368 . S
C897 H921 0.949 . S
H898 C902 0.949 . S
C899 C900 1.349 . S
C899 C901 1.327 . S
C899 H922 0.950 . S
C900 C899 1.349 . S
C900 C912 1.349 . S
C901 C899 1.327 . S
C901 C917 1.429 . S
C901 H923 0.950 . S
C902 H898 0.949 . S
C902 C910 1.574 . S
C902 C918 1.368 . S
H903 C911 0.950 . S
H904 C909 0.950 . S
H905 C910 0.949 . S
H906 C912 0.950 . S
H907 C913 0.950 . S
H908 C914 0.949 . S
C909 H904 0.950 . S
C909 C911 1.327 . S
C909 C915 1.429 . S
C910 C902 1.574 . S
C910 H905 0.949 . S
C910 C916 1.368 . S
C911 C895 1.349 . S
C911 H903 0.950 . S
C911 C909 1.327 . S
C912 C900 1.349 . S
C912 H906 0.950 . S
C912 C913 1.327 . S
C913 H907 0.950 . S
C913 C912 1.327 . S
C913 C917 1.429 . S
C914 C897 1.574 . S
C914 H908 0.949 . S
C914 C918 1.368 . S
C915 C896 1.429 . S
C915 C909 1.429 . S
C915 C916 1.523 . S
C916 C897 1.368 . S
C916 C910 1.368 . S
C916 C915 1.523 . S
C917 C901 1.429 . S
C917 C913 1.429 . S
C917 C918 1.523 . S
C918 C902 1.368 . S
C918 C914 1.368 . S
C918 C917 1.523 . S
H919 C894 0.950 . S
H920 C896 0.950 . S
H921 C897 0.949 . S
H922 C899 0.950 . S
H923 C901 0.950 . S
C924 C925 1.349 . S
C924 C926 1.327 . S
C924 H949 0.950 . S
C925 C924 1.349 . S
C925 C941 1.349 . S
C926 C924 1.327 . S
C926 C945 1.429 . S
C926 H950 0.950 . S
C927 C944 1.574 . S
C927 C946 1.368 . S
C927 H951 0.949 . S
H928 C932 0.949 . S
C929 C930 1.349 . S
C929 C931 1.327 . S
C929 H952 0.950 . S
C930 C929 1.349 . S
C930 C942 1.349 . S
C931 C929 1.327 . S
C931 C947 1.429 . S
C931 H953 0.950 . S
C932 H928 0.949 . S
C932 C940 1.574 . S
C932 C948 1.368 . S
H933 C941 0.950 . S
H934 C939 0.950 . S
H935 C940 0.949 . S
H936 C942 0.950 . S
H937 C943 0.950 . S
H938 C944 0.949 . S
C939 H934 0.950 . S
C939 C941 1.327 . S
C939 C945 1.429 . S
C940 C932 1.574 . S
C940 H935 0.949 . S
C940 C946 1.368 . S
C941 C925 1.349 . S
C941 H933 0.950 . S
C941 C939 1.327 . S
C942 C930 1.349 . S
C942 H936 0.950 . S
C942 C943 1.327 . S
C943 H937 0.950 . S
C943 C942 1.327 . S
C943 C947 1.429 . S
C944 C927 1.574 . S
C944 H938 0.949 . S
C944 C948 1.368 . S
C945 C926 1.429 . S
C945 C939 1.429 . S
C945 C946 1.523 . S
C946 C927 1.368 . S
C946 C940 1.368 . S
C946 C945 1.523 . S
C947 C931 1.429 . S
C947 C943 1.429 . S
C947 C948 1.523 . S
C948 C932 1.368 . S
C948 C944 1.368 . S
C948 C947 1.523 . S
H949 C924 0.950 . S
H950 C926 0.950 . S
H951 C927 0.949 . S
H952 C929 0.950 . S
H953 C931 0.950 . S
C954 C955 1.349 . S
C954 C956 1.327 . S
C954 H979 0.950 . S
C955 C954 1.349 . S
C955 C971 1.349 . S
C956 C954 1.327 . S
C956 C975 1.429 . S
C956 H980 0.950 . S
C957 C974 1.574 . S
C957 C976 1.368 . S
C957 H981 0.949 . S
H958 C962 0.949 . S
C959 C960 1.349 . S
C959 C961 1.327 . S
C959 H982 0.950 . S
C960 C959 1.349 . S
C960 C972 1.349 . S
C961 C959 1.327 . S
C961 C977 1.429 . S
C961 H983 0.950 . S
C962 H958 0.949 . S
C962 C970 1.574 . S
C962 C978 1.368 . S
H963 C971 0.950 . S
H964 C969 0.950 . S
H965 C970 0.949 . S
H966 C972 0.950 . S
H967 C973 0.950 . S
H968 C974 0.949 . S
C969 H964 0.950 . S
C969 C971 1.327 . S
C969 C975 1.429 . S
C970 C962 1.574 . S
C970 H965 0.949 . S
C970 C976 1.368 . S
C971 C955 1.349 . S
C971 H963 0.950 . S
C971 C969 1.327 . S
C972 C960 1.349 . S
C972 H966 0.950 . S
C972 C973 1.327 . S
C973 H967 0.950 . S
C973 C972 1.327 . S
C973 C977 1.429 . S
C974 C957 1.574 . S
C974 H968 0.949 . S
C974 C978 1.368 . S
C975 C956 1.429 . S
C975 C969 1.429 . S
C975 C976 1.523 . S
C976 C957 1.368 . S
C976 C970 1.368 . S
C976 C975 1.523 . S
C977 C961 1.429 . S
C977 C973 1.429 . S
C977 C978 1.523 . S
C978 C962 1.368 . S
C978 C974 1.368 . S
C978 C977 1.523 . S
H979 C954 0.950 . S
H980 C956 0.950 . S
H981 C957 0.949 . S
H982 C959 0.950 . S
H983 C961 0.950 . S
C984 C985 1.349 . S
C984 C986 1.327 . S
C984 H1009 0.950 . S
C985 C984 1.349 . S
C985 C1001 1.349 . S
C986 C984 1.327 . S
C986 C1005 1.429 . S
C986 H1010 0.950 . S
C987 C1004 1.574 . S
C987 C1006 1.368 . S
C987 H1011 0.949 . S
H988 C992 0.949 . S
C989 C990 1.349 . S
C989 C991 1.327 . S
C989 H1012 0.950 . S
C990 C989 1.349 . S
C990 C1002 1.349 . S
C991 C989 1.327 . S
C991 C1007 1.429 . S
C991 H1013 0.950 . S
C992 H988 0.949 . S
C992 C1000 1.574 . S
C992 C1008 1.368 . S
H993 C1001 0.950 . S
H994 C999 0.950 . S
H995 C1000 0.949 . S
H996 C1002 0.950 . S
H997 C1003 0.950 . S
H998 C1004 0.949 . S
C999 H994 0.950 . S
C999 C1001 1.327 . S
C999 C1005 1.429 . S
C1000 C992 1.574 . S
C1000 H995 0.949 . S
C1000 C1006 1.368 . S
C1001 C985 1.349 . S
C1001 H993 0.950 . S
C1001 C999 1.327 . S
C1002 C990 1.349 . S
C1002 H996 0.950 . S
C1002 C1003 1.327 . S
C1003 H997 0.950 . S
C1003 C1002 1.327 . S
C1003 C1007 1.429 . S
C1004 C987 1.574 . S
C1004 H998 0.949 . S
C1004 C1008 1.368 . S
C1005 C986 1.429 . S
C1005 C999 1.429 . S
C1005 C1006 1.523 . S
C1006 C987 1.368 . S
C1006 C1000 1.368 . S
C1006 C1005 1.523 . S
C1007 C991 1.429 . S
C1007 C1003 1.429 . S
C1007 C1008 1.523 . S
C1008 C992 1.368 . S
C1008 C1004 1.368 . S
C1008 C1007 1.523 . S
H1009 C984 0.950 . S
H1010 C986 0.950 . S
H1011 C987 0.949 . S
H1012 C989 0.950 . S
H1013 C991 0.950 . S
C1014 C1015 1.349 . S
C1014 C1016 1.327 . S
C1014 H1039 0.950 . S
C1015 C1014 1.349 . S
C1015 C1031 1.349 . S
C1016 C1014 1.327 . S
C1016 C1035 1.429 . S
C1016 H1040 0.950 . S
C1017 C1034 1.574 . S
C1017 C1036 1.368 . S
C1017 H1041 0.949 . S
H1018 C1022 0.949 . S
C1019 C1020 1.349 . S
C1019 C1021 1.327 . S
C1019 H1042 0.950 . S
C1020 C1019 1.349 . S
C1020 C1032 1.349 . S
C1021 C1019 1.327 . S
C1021 C1037 1.429 . S
C1021 H1043 0.950 . S
C1022 H1018 0.949 . S
C1022 C1030 1.574 . S
C1022 C1038 1.368 . S
H1023 C1031 0.950 . S
H1024 C1029 0.950 . S
H1025 C1030 0.949 . S
H1026 C1032 0.950 . S
H1027 C1033 0.950 . S
H1028 C1034 0.949 1_556 S
C1029 H1024 0.950 . S
C1029 C1031 1.327 . S
C1029 C1035 1.429 . S
C1030 C1022 1.574 . S
C1030 H1025 0.949 . S
C1030 C1036 1.368 . S
C1031 C1015 1.349 . S
C1031 H1023 0.950 . S
C1031 C1029 1.327 . S
C1032 C1020 1.349 . S
C1032 H1026 0.950 . S
C1032 C1033 1.327 . S
C1033 H1027 0.950 . S
C1033 C1032 1.327 . S
C1033 C1037 1.429 . S
C1034 C1017 1.574 . S
C1034 H1028 0.949 1_554 S
C1034 C1038 1.368 . S
C1035 C1016 1.429 . S
C1035 C1029 1.429 . S
C1035 C1036 1.523 . S
C1036 C1017 1.368 . S
C1036 C1030 1.368 . S
C1036 C1035 1.523 . S
C1037 C1021 1.429 . S
C1037 C1033 1.429 . S
C1037 C1038 1.523 1_556 S
C1038 C1022 1.368 . S
C1038 C1034 1.368 . S
C1038 C1037 1.523 1_554 S
H1039 C1014 0.950 . S
H1040 C1016 0.950 . S
H1041 C1017 0.949 . S
H1042 C1019 0.950 . S
H1043 C1021 0.950 . S
C1044 C1045 1.349 . S
C1044 C1046 1.327 . S
C1044 H1069 0.950 . S
C1045 C1044 1.349 . S
C1045 C1061 1.349 . S
C1046 C1044 1.327 . S
C1046 C1065 1.429 . S
C1046 H1070 0.950 . S
C1047 C1064 1.574 . S
C1047 C1066 1.368 . S
C1047 H1071 0.949 . S
H1048 C1052 0.949 . S
C1049 C1050 1.349 . S
C1049 C1051 1.327 . S
C1049 H1072 0.950 . S
C1050 C1049 1.349 . S
C1050 C1062 1.349 . S
C1051 C1049 1.327 . S
C1051 C1067 1.429 . S
C1051 H1073 0.950 . S
C1052 H1048 0.949 . S
C1052 C1060 1.574 . S
C1052 C1068 1.368 . S
H1053 C1061 0.950 . S
H1054 C1059 0.950 . S
H1055 C1060 0.949 . S
H1056 C1062 0.950 . S
H1057 C1063 0.950 . S
H1058 C1064 0.949 . S
C1059 H1054 0.950 . S
C1059 C1061 1.327 . S
C1059 C1065 1.429 . S
C1060 C1052 1.574 . S
C1060 H1055 0.949 . S
C1060 C1066 1.368 . S
C1061 C1045 1.349 . S
C1061 H1053 0.950 . S
C1061 C1059 1.327 . S
C1062 C1050 1.349 . S
C1062 H1056 0.950 . S
C1062 C1063 1.327 . S
C1063 H1057 0.950 . S
C1063 C1062 1.327 . S
C1063 C1067 1.429 . S
C1064 C1047 1.574 . S
C1064 H1058 0.949 . S
C1064 C1068 1.368 . S
C1065 C1046 1.429 . S
C1065 C1059 1.429 . S
C1065 C1066 1.523 . S
C1066 C1047 1.368 . S
C1066 C1060 1.368 . S
C1066 C1065 1.523 . S
C1067 C1051 1.429 . S
C1067 C1063 1.429 . S
C1067 C1068 1.523 . S
C1068 C1052 1.368 . S
C1068 C1064 1.368 . S
C1068 C1067 1.523 . S
H1069 C1044 0.950 . S
H1070 C1046 0.950 . S
H1071 C1047 0.949 . S
H1072 C1049 0.950 . S
H1073 C1051 0.950 . S
C360 C346 1.573 . S
C355 C15 1.565 . S
C385 C61 1.567 . S
C390 C281 1.575 . S
C415 C114 1.564 . S
C420 C299 1.572 . S
C445 C139 1.559 . S
C450 C312 1.561 . S
C480 C320 1.577 . S
C475 C185 1.574 . S
C505 C245 1.562 . S
C510 C332 1.570 . S
C535 C47 1.572 . S
C540 C294 1.575 . S
C565 C100 1.570 . S
C570 C307 1.573 . S
C595 C153 1.562 . S
C600 C325 1.570 . S
C630 C331 1.577 . S
C625 C199 1.569 . S
C660 C351 1.561 . S
C655 C231 1.559 . S
C690 C286 1.572 . S
C685 C1 1.569 . S
C715 C22 1.580 . S
C720 C292 1.590 . S
C745 C68 1.585 . S
C750 C305 1.596 . S
C780 C319 1.589 . S
C775 C107 1.579 . S
C805 C146 1.594 . S
C810 C333 1.598 . S
C840 C345 1.583 . S
C835 C192 1.581 . S
C870 C280 1.588 . S
C865 C252 1.579 . S
C900 C344 1.596 . S
C895 C54 1.592 . S
C925 C93 1.587 . S
C930 C279 1.591 . S
C960 C293 1.588 . S
C955 C160 1.579 . S
C985 C206 1.574 . S
C990 C306 1.583 . S
C1015 C238 1.594 . S
C1020 C318 1.598 . S
C1045 C8 1.586 . S
C1050 C338 1.589 . S
