# Generated by pormake.
# Topology cml, (3,6)-cn, num edge types: 1
# Building blocks:
#     Node 0, Type 0, BuildingBlock: VETTIZ_charged_linker_0, # of connection points: 3
#     Node 1, Type 0, BuildingBlock: VETTIZ_charged_linker_0, # of connection points: 3
#     Node 2, Type 0, BuildingBlock: VETTIZ_charged_linker_0, # of connection points: 3
#     Node 3, Type 0, BuildingBlock: VETTIZ_charged_linker_0, # of connection points: 3
#     Node 4, Type 0, BuildingBlock: VETTIZ_charged_linker_0, # of connection points: 3
#     Node 5, Type 0, BuildingBlock: VETTIZ_charged_linker_0, # of connection points: 3
#     Node 6, Type 0, BuildingBlock: VETTIZ_charged_linker_0, # of connection points: 3
#     Node 7, Type 0, BuildingBlock: VETTIZ_charged_linker_0, # of connection points: 3
#     Node 8, Type 1, BuildingBlock: IZENUY_clean_sbu_0, # of connection points: 6
#     Node 9, Type 1, BuildingBlock: IZENUY_clean_sbu_0, # of connection points: 6
#     Node 10, Type 1, BuildingBlock: IZENUY_clean_sbu_0, # of connection points: 6
#     Node 11, Type 1, BuildingBlock: IZENUY_clean_sbu_0, # of connection points: 6
#     Edge 12, Type (0, 1), BuildingBlock: XUDNAN_clean_linker_2, # of connection points: 2
#     Edge 13, Type (0, 1), BuildingBlock: XUDNAN_clean_linker_2, # of connection points: 2
#     Edge 14, Type (0, 1), BuildingBlock: XUDNAN_clean_linker_2, # of connection points: 2
#     Edge 15, Type (0, 1), BuildingBlock: XUDNAN_clean_linker_2, # of connection points: 2
#     Edge 16, Type (0, 1), BuildingBlock: XUDNAN_clean_linker_2, # of connection points: 2
#     Edge 17, Type (0, 1), BuildingBlock: XUDNAN_clean_linker_2, # of connection points: 2
#     Edge 18, Type (0, 1), BuildingBlock: XUDNAN_clean_linker_2, # of connection points: 2
#     Edge 19, Type (0, 1), BuildingBlock: XUDNAN_clean_linker_2, # of connection points: 2
#     Edge 20, Type (0, 1), BuildingBlock: XUDNAN_clean_linker_2, # of connection points: 2
#     Edge 21, Type (0, 1), BuildingBlock: XUDNAN_clean_linker_2, # of connection points: 2
#     Edge 22, Type (0, 1), BuildingBlock: XUDNAN_clean_linker_2, # of connection points: 2
#     Edge 23, Type (0, 1), BuildingBlock: XUDNAN_clean_linker_2, # of connection points: 2
#     Edge 24, Type (0, 1), BuildingBlock: XUDNAN_clean_linker_2, # of connection points: 2
#     Edge 25, Type (0, 1), BuildingBlock: XUDNAN_clean_linker_2, # of connection points: 2
#     Edge 26, Type (0, 1), BuildingBlock: XUDNAN_clean_linker_2, # of connection points: 2
#     Edge 27, Type (0, 1), BuildingBlock: XUDNAN_clean_linker_2, # of connection points: 2
#     Edge 28, Type (0, 1), BuildingBlock: XUDNAN_clean_linker_2, # of connection points: 2
#     Edge 29, Type (0, 1), BuildingBlock: XUDNAN_clean_linker_2, # of connection points: 2
#     Edge 30, Type (0, 1), BuildingBlock: XUDNAN_clean_linker_2, # of connection points: 2
#     Edge 31, Type (0, 1), BuildingBlock: XUDNAN_clean_linker_2, # of connection points: 2
#     Edge 32, Type (0, 1), BuildingBlock: XUDNAN_clean_linker_2, # of connection points: 2
#     Edge 33, Type (0, 1), BuildingBlock: XUDNAN_clean_linker_2, # of connection points: 2
#     Edge 34, Type (0, 1), BuildingBlock: XUDNAN_clean_linker_2, # of connection points: 2
#     Edge 35, Type (0, 1), BuildingBlock: XUDNAN_clean_linker_2, # of connection points: 2
# Relax obj value: 0.059
# Max RMSD: 0.074
# Mean RMSD: 0.071
data_MOF--net-cml--node1-IZENUY_clean_sbu_0--node2-VETTIZ_charged_linker_0--edge1-XUDNAN_clean_linker_2
_symmetry_space_group_name_H-M    P1
_symmetry_Int_Tables_number       1
_symmetry_cell_setting            triclinic
loop_
_symmetry_equiv_pos_as_xyz
'x, y, z'
_cell_length_a     42.886987
_cell_length_b     49.899133
_cell_length_c     46.541581
_cell_angle_alpha  90.035786
_cell_angle_beta   90.139203
_cell_angle_gamma 90.303311
loop_
_atom_site_label
_atom_site_type_symbol
_atom_site_fract_x
_atom_site_fract_y
_atom_site_fract_z
_atom_type_partial_charge
C0 C 0.31808 0.35591 0.10917 0.0
C1 C 0.33699 0.37375 0.12477 0.0
C2 C 0.3466 0.39798 0.11202 0.0
C3 C 0.31862 0.38637 0.06842 0.0
C4 C 0.30885 0.36279 0.08123 0.0
C5 C 0.28726 0.3469 0.06217 0.0
H6 H 0.21322 0.33148 0.93459 0.0
C7 C 0.30453 0.38767 0.03945 0.0
C8 C 0.28572 0.36483 0.03583 0.0
H9 H 0.21195 0.27905 0.00854 0.0
H10 H 0.24452 0.30987 0.0347 0.0
H11 H 0.20549 0.38676 0.97024 0.0
H12 H 0.28744 0.34644 0.93908 0.0
H13 H 0.2903 0.38071 0.93051 0.0
H14 H 0.25889 0.3611 0.91566 0.0
H15 H 0.21608 0.38731 0.93296 0.0
H16 H 0.23172 0.41144 0.95817 0.0
C17 C 0.25522 0.34451 0.07739 0.0
C18 C 0.30311 0.31975 0.05553 0.0
C19 C 0.3361 0.46238 0.97111 0.0
C20 C 0.3274 0.46876 0.94274 0.0
C21 C 0.30327 0.45367 0.92961 0.0
C22 C 0.2894 0.43187 0.94374 0.0
C23 C 0.29949 0.42498 0.97147 0.0
C24 C 0.3218 0.44064 0.98501 0.0
C25 C 0.3285 0.43114 0.01505 0.0
C26 C 0.30754 0.40656 0.0168 0.0
C27 C 0.2908 0.40285 0.99108 0.0
C28 C 0.3184 0.45336 0.03638 0.0
C29 C 0.36345 0.42367 0.01693 0.0
C30 C 0.2198 0.32685 0.95651 0.0
C31 C 0.2103 0.30262 0.96939 0.0
C32 C 0.21943 0.29729 0.99793 0.0
C33 C 0.2383 0.3153 0.01317 0.0
C34 C 0.24839 0.33902 0.99983 0.0
C35 C 0.23896 0.34466 0.97207 0.0
C36 C 0.25243 0.37082 0.96147 0.0
C37 C 0.2715 0.37978 0.98744 0.0
C38 C 0.26902 0.36095 0.00975 0.0
C39 C 0.22518 0.39018 0.95512 0.0
C40 C 0.27327 0.3647 0.93518 0.0
H41 H 0.3459 0.42298 0.07524 0.0
H42 H 0.31007 0.33734 0.11877 0.0
H43 H 0.32869 0.32245 0.05266 0.0
H44 H 0.29496 0.31057 0.03527 0.0
H45 H 0.29954 0.30528 0.07336 0.0
H46 H 0.25064 0.36234 0.0911 0.0
H47 H 0.25423 0.32654 0.09143 0.0
H48 H 0.23542 0.34391 0.06215 0.0
H49 H 0.35441 0.47342 0.98202 0.0
H50 H 0.29525 0.45853 0.90817 0.0
H51 H 0.27158 0.421 0.93238 0.0
H52 H 0.30006 0.46642 0.02698 0.0
H53 H 0.33838 0.46646 0.04242 0.0
H54 H 0.30767 0.44508 0.0561 0.0
H55 H 0.37054 0.41197 0.99768 0.0
H56 H 0.36901 0.41091 0.03556 0.0
H57 H 0.37834 0.44193 0.01796 0.0
H58 H 0.36117 0.41195 0.12389 0.0
C59 C 0.33767 0.40433 0.08387 0.0
C60 C 0.79011 0.66968 0.45253 0.0
C61 C 0.80288 0.69336 0.46413 0.0
C62 C 0.79042 0.7035 0.48995 0.0
C63 C 0.75469 0.66559 0.49283 0.0
C64 C 0.76657 0.65608 0.46726 0.0
C65 C 0.75232 0.62978 0.45844 0.0
H66 H 0.64328 0.53378 0.47833 0.0
C67 C 0.73111 0.64598 0.50297 0.0
C68 C 0.72983 0.62491 0.48296 0.0
H69 H 0.71307 0.53938 0.4115 0.0
H70 H 0.73483 0.57851 0.43384 0.0
H71 H 0.69148 0.54402 0.52867 0.0
H72 H 0.62869 0.59749 0.48544 0.0
H73 H 0.62534 0.60208 0.52294 0.0
H74 H 0.61662 0.56986 0.50759 0.0
H75 H 0.65158 0.54697 0.53954 0.0
H76 H 0.68168 0.56858 0.55407 0.0
C77 C 0.77848 0.60839 0.45746 0.0
C78 C 0.73513 0.63411 0.4295 0.0
C79 C 0.67152 0.6629 0.59557 0.0
C80 C 0.64918 0.64779 0.6108 0.0
C81 C 0.6396 0.62278 0.59945 0.0
C82 C 0.65146 0.61329 0.57339 0.0
C83 C 0.67351 0.6287 0.55844 0.0
C84 C 0.6835 0.6529 0.56971 0.0
C85 C 0.70835 0.66582 0.55151 0.0
C86 C 0.7114 0.64543 0.52745 0.0
C87 C 0.69065 0.62386 0.53149 0.0
C88 C 0.73858 0.66808 0.56967 0.0
C89 C 0.69577 0.69295 0.54046 0.0
C90 C 0.66346 0.54322 0.46867 0.0
C91 C 0.67574 0.53377 0.4425 0.0
C92 C 0.7023 0.54667 0.431 0.0
C93 C 0.71511 0.56941 0.44412 0.0
C94 C 0.70162 0.57941 0.46933 0.0
C95 C 0.67689 0.56592 0.48175 0.0
C96 C 0.66696 0.57877 0.50957 0.0
C97 C 0.68897 0.60279 0.51096 0.0
C98 C 0.70886 0.60316 0.48711 0.0
C99 C 0.67296 0.55863 0.53434 0.0
C100 C 0.63253 0.58746 0.50648 0.0
H101 H 0.75812 0.69827 0.52406 0.0
H102 H 0.79859 0.66152 0.43246 0.0
H103 H 0.72222 0.6534 0.4297 0.0
H104 H 0.71737 0.61863 0.42489 0.0
H105 H 0.75189 0.63481 0.41136 0.0
H106 H 0.79819 0.61373 0.47202 0.0
H107 H 0.78813 0.6063 0.43545 0.0
H108 H 0.7705 0.58853 0.46515 0.0
H109 H 0.67948 0.68219 0.60343 0.0
H110 H 0.6232 0.61018 0.61091 0.0
H111 H 0.6431 0.59422 0.56595 0.0
H112 H 0.74075 0.65083 0.58468 0.0
H113 H 0.73876 0.6867 0.58276 0.0
H114 H 0.75995 0.66742 0.55651 0.0
H115 H 0.67083 0.69106 0.53411 0.0
H116 H 0.7079 0.70016 0.52105 0.0
H117 H 0.69745 0.7086 0.55739 0.0
H118 H 0.79988 0.7216 0.49949 0.0
C119 C 0.76636 0.68976 0.50433 0.0
C120 C 0.69506 0.46219 0.94454 0.0
C121 C 0.66941 0.47822 0.95218 0.0
C122 C 0.65401 0.4729 0.97838 0.0
C123 C 0.68972 0.43673 0.98872 0.0
C124 C 0.70456 0.44152 0.9629 0.0
C125 C 0.73034 0.42183 0.95737 0.0
H126 H 0.81333 0.31447 1.00215 0.0
C127 C 0.70523 0.41387 0.0028 0.0
C128 C 0.72898 0.40492 0.98447 0.0
H129 H 0.82277 0.35765 0.92208 0.0
H130 H 0.78125 0.38748 0.93621 0.0
H131 H 0.80867 0.36475 0.04127 0.0
H132 H 0.73753 0.31459 0.00391 0.0
H133 H 0.7277 0.32026 0.04009 0.0
H134 H 0.76367 0.30363 0.03167 0.0
H135 H 0.79806 0.33317 0.0569 0.0
H136 H 0.77819 0.36378 0.06633 0.0
C137 C 0.76142 0.43759 0.95509 0.0
C138 C 0.72175 0.40539 0.93018 0.0
C139 C 0.66813 0.38186 0.10083 0.0
C140 C 0.67834 0.36138 0.11935 0.0
C141 C 0.70492 0.34647 0.11163 0.0
C142 C 0.72025 0.35108 0.08557 0.0
C143 C 0.70913 0.37095 0.0669 0.0
C144 C 0.68389 0.38633 0.07489 0.0
C145 C 0.67593 0.40702 0.05257 0.0
C146 C 0.70029 0.40122 0.02975 0.0
C147 C 0.71942 0.3799 0.03817 0.0
C148 C 0.68057 0.43507 0.06627 0.0
C149 C 0.64238 0.40131 0.04157 0.0
C150 C 0.80667 0.33045 0.98769 0.0
C151 C 0.8215 0.33372 0.96098 0.0
C152 C 0.81157 0.35451 0.94265 0.0
C153 C 0.78756 0.3719 0.95097 0.0
C154 C 0.77319 0.36843 0.97788 0.0
C155 C 0.78284 0.34793 0.99567 0.0
C156 C 0.76519 0.34717 0.02351 0.0
C157 C 0.74301 0.37043 0.01943 0.0
C158 C 0.74776 0.38284 0.99269 0.0
C159 C 0.78856 0.35228 0.04845 0.0
C160 C 0.74765 0.31999 0.02519 0.0
H161 H 0.65128 0.44946 0.01617 0.0
H162 H 0.7076 0.46559 0.9247 0.0
H163 H 0.69607 0.40253 0.92839 0.0
H164 H 0.73126 0.38487 0.93057 0.0
H165 H 0.72975 0.41571 0.91036 0.0
H166 H 0.76248 0.4538 0.9715 0.0
H167 H 0.76385 0.44706 0.93361 0.0
H168 H 0.78206 0.42505 0.95923 0.0
H169 H 0.64774 0.39365 0.10593 0.0
H170 H 0.71383 0.33102 0.12572 0.0
H171 H 0.74001 0.33876 0.08087 0.0
H172 H 0.7012 0.43526 0.08082 0.0
H173 H 0.65993 0.44085 0.0792 0.0
H174 H 0.68539 0.45091 0.05034 0.0
H175 H 0.63725 0.37943 0.04156 0.0
H176 H 0.63877 0.40761 0.01906 0.0
H177 H 0.62475 0.41116 0.0554 0.0
H178 H 0.63364 0.48421 0.98462 0.0
C179 C 0.6641 0.45244 0.99667 0.0
C180 C 0.22504 0.67409 0.44812 0.0
C181 C 0.21345 0.6969 0.46229 0.0
C182 C 0.22847 0.70601 0.48744 0.0
C183 C 0.26311 0.66801 0.48634 0.0
C184 C 0.24992 0.6599 0.46058 0.0
C185 C 0.26449 0.63439 0.44962 0.0
H186 H 0.35855 0.52812 0.47706 0.0
C187 C 0.28603 0.64775 0.49533 0.0
C188 C 0.28731 0.628 0.47378 0.0
H189 H 0.30627 0.54272 0.39931 0.0
H190 H 0.28873 0.58548 0.41852 0.0
H191 H 0.38602 0.58772 0.48285 0.0
H192 H 0.30818 0.5458 0.51958 0.0
H193 H 0.32187 0.56701 0.54687 0.0
H194 H 0.34719 0.54148 0.53264 0.0
H195 H 0.39011 0.56264 0.51019 0.0
H196 H 0.38446 0.59749 0.51907 0.0
C197 C 0.2815 0.64076 0.42114 0.0
C198 C 0.23864 0.61282 0.44677 0.0
C199 C 0.33281 0.65261 0.59597 0.0
C200 C 0.35128 0.63458 0.61159 0.0
C201 C 0.36273 0.61147 0.59805 0.0
C202 C 0.35537 0.60596 0.56937 0.0
C203 C 0.33587 0.62354 0.55416 0.0
C204 C 0.32518 0.64655 0.56734 0.0
C205 C 0.30362 0.66216 0.54811 0.0
C206 C 0.30319 0.64467 0.52128 0.0
C207 C 0.32204 0.62213 0.5251 0.0
C208 C 0.31862 0.68997 0.54232 0.0
C209 C 0.2713 0.66317 0.56294 0.0
C210 C 0.34319 0.54045 0.46418 0.0
C211 C 0.33329 0.53194 0.43693 0.0
C212 C 0.31399 0.54887 0.42049 0.0
C213 C 0.30384 0.57359 0.43171 0.0
C214 C 0.31336 0.58144 0.45949 0.0
C215 C 0.33318 0.56503 0.47489 0.0
C216 C 0.34167 0.57632 0.50369 0.0
C217 C 0.3238 0.60236 0.50329 0.0
C218 C 0.30688 0.6053 0.47756 0.0
C219 C 0.37742 0.5812 0.50429 0.0
C220 C 0.3294 0.55672 0.52706 0.0
H221 H 0.26317 0.69954 0.5189 0.0
H222 H 0.21408 0.6668 0.42861 0.0
H223 H 0.22344 0.61284 0.46611 0.0
H224 H 0.24789 0.59232 0.44509 0.0
H225 H 0.22371 0.6167 0.42771 0.0
H226 H 0.2922 0.66111 0.42181 0.0
H227 H 0.26508 0.64014 0.40266 0.0
H228 H 0.3011 0.62705 0.41694 0.0
H229 H 0.32356 0.67039 0.60615 0.0
H230 H 0.37708 0.59746 0.60989 0.0
H231 H 0.36459 0.58787 0.56042 0.0
H232 H 0.34453 0.68891 0.54296 0.0
H233 H 0.3113 0.7049 0.55864 0.0
H234 H 0.31317 0.6977 0.52061 0.0
H235 H 0.26579 0.64368 0.57342 0.0
H236 H 0.25183 0.66657 0.54791 0.0
H237 H 0.27081 0.67892 0.57981 0.0
H238 H 0.22042 0.72388 0.49833 0.0
C239 C 0.25326 0.69181 0.49941 0.0
C240 C 0.8341 0.84108 0.09414 0.0
C241 C 0.85495 0.85732 0.11011 0.0
C242 C 0.86253 0.88301 0.09944 0.0
C243 C 0.83101 0.87525 0.05708 0.0
C244 C 0.82228 0.85055 0.06784 0.0
C245 C 0.79902 0.83662 0.04844 0.0
H246 H 0.71346 0.83871 0.92542 0.0
C247 C 0.81571 0.87894 0.02896 0.0
C248 C 0.79677 0.85647 0.02367 0.0
H249 H 0.70804 0.78122 0.99476 0.0
H250 H 0.75069 0.80367 0.0191 0.0
H251 H 0.71889 0.89068 0.96596 0.0
H252 H 0.78864 0.8431 0.92343 0.0
H253 H 0.80102 0.87668 0.9219 0.0
H254 H 0.76523 0.86681 0.90418 0.0
H255 H 0.72258 0.88884 0.92756 0.0
H256 H 0.74535 0.91217 0.94831 0.0
C257 C 0.76779 0.83391 0.06493 0.0
C258 C 0.813 0.80962 0.03869 0.0
C259 C 0.83955 0.96284 0.97154 0.0
C260 C 0.83146 0.97136 0.94381 0.0
C261 C 0.8129 0.95458 0.92635 0.0
C262 C 0.80176 0.9299 0.93682 0.0
C263 C 0.80959 0.92185 0.96492 0.0
C264 C 0.82875 0.93805 0.98145 0.0
C265 C 0.83649 0.92573 0.00997 0.0
C266 C 0.81823 0.89967 0.00824 0.0
C267 C 0.80213 0.89761 0.98205 0.0
C268 C 0.82394 0.9444 0.03393 0.0
C269 C 0.87221 0.92096 0.01093 0.0
C270 C 0.72125 0.83098 0.94593 0.0
C271 C 0.70691 0.8083 0.95828 0.0
C272 C 0.71859 0.79855 0.98464 0.0
C273 C 0.74313 0.81182 0.99894 0.0
C274 C 0.75605 0.83523 0.98693 0.0
C275 C 0.74531 0.84422 0.96065 0.0
C276 C 0.76107 0.86979 0.95136 0.0
C277 C 0.78224 0.87524 0.97687 0.0
C278 C 0.77946 0.85481 0.99758 0.0
C279 C 0.73581 0.89163 0.9479 0.0
C280 C 0.77986 0.86405 0.92367 0.0
H281 H 0.85795 0.91154 0.06631 0.0
H282 H 0.82739 0.82137 0.10167 0.0
H283 H 0.83779 0.81231 0.03226 0.0
H284 H 0.80101 0.80108 0.01975 0.0
H285 H 0.81224 0.79467 0.05635 0.0
H286 H 0.76487 0.85049 0.08067 0.0
H287 H 0.76664 0.81475 0.07703 0.0
H288 H 0.74722 0.83539 0.05068 0.0
H289 H 0.85437 0.97513 0.98515 0.0
H290 H 0.80661 0.96081 0.90481 0.0
H291 H 0.78737 0.91809 0.92272 0.0
H292 H 0.80237 0.95482 0.02684 0.0
H293 H 0.84136 0.96004 0.03978 0.0
H294 H 0.81693 0.93341 0.05351 0.0
H295 H 0.88132 0.9158 0.98925 0.0
H296 H 0.87889 0.90381 0.02456 0.0
H297 H 0.88487 0.93915 0.0184 0.0
H298 H 0.87734 0.89655 0.11157 0.0
C299 C 0.85093 0.89191 0.0731 0.0
C300 C 0.2861 0.17322 0.44896 0.0
C301 C 0.3011 0.19547 0.46162 0.0
C302 C 0.29047 0.20474 0.48849 0.0
C303 C 0.25269 0.16838 0.49064 0.0
C304 C 0.26236 0.1599 0.46385 0.0
C305 C 0.2459 0.13472 0.45425 0.0
H306 H 0.1516 0.03011 0.48765 0.0
C307 C 0.2294 0.14882 0.50131 0.0
C308 C 0.22551 0.12895 0.4801 0.0
H309 H 0.19745 0.04494 0.4067 0.0
H310 H 0.218 0.08713 0.42506 0.0
H311 H 0.20582 0.04906 0.52858 0.0
H312 H 0.12578 0.08875 0.49369 0.0
H313 H 0.13007 0.10141 0.5286 0.0
H314 H 0.1231 0.06603 0.52342 0.0
H315 H 0.16705 0.04332 0.54167 0.0
H316 H 0.19161 0.06952 0.55623 0.0
C317 C 0.27068 0.11268 0.44958 0.0
C318 C 0.22629 0.1413 0.42719 0.0
C319 C 0.17926 0.1607 0.59987 0.0
C320 C 0.15815 0.14465 0.61553 0.0
C321 C 0.14903 0.11961 0.60413 0.0
C322 C 0.15954 0.11113 0.57731 0.0
C323 C 0.17974 0.12765 0.56153 0.0
C324 C 0.18978 0.15176 0.57296 0.0
C325 C 0.21249 0.16586 0.55332 0.0
C326 C 0.21311 0.14674 0.52781 0.0
C327 C 0.19383 0.12449 0.5329 0.0
C328 C 0.24447 0.16751 0.56884 0.0
C329 C 0.1987 0.19339 0.54504 0.0
C330 C 0.16629 0.04237 0.47398 0.0
C331 C 0.17348 0.03416 0.44597 0.0
C332 C 0.19186 0.05093 0.42846 0.0
C333 C 0.20376 0.0753 0.43919 0.0
C334 C 0.19689 0.08298 0.4676 0.0
C335 C 0.1779 0.06678 0.48418 0.0
C336 C 0.17136 0.07857 0.51316 0.0
C337 C 0.1901 0.10435 0.51165 0.0
C338 C 0.20538 0.10675 0.48515 0.0
C339 C 0.18434 0.05918 0.53629 0.0
C340 C 0.13578 0.08387 0.51514 0.0
H341 H 0.25961 0.19909 0.52359 0.0
H342 H 0.29319 0.16588 0.42808 0.0
H343 H 0.21751 0.16224 0.42795 0.0
H344 H 0.20511 0.12871 0.42537 0.0
H345 H 0.24036 0.13919 0.40732 0.0
H346 H 0.28828 0.1131 0.46717 0.0
H347 H 0.28318 0.11573 0.42895 0.0
H348 H 0.26084 0.09224 0.44978 0.0
H349 H 0.18697 0.17995 0.60805 0.0
H350 H 0.13371 0.10636 0.61604 0.0
H351 H 0.15139 0.09198 0.56993 0.0
H352 H 0.24778 0.15022 0.5836 0.0
H353 H 0.24648 0.1861 0.58186 0.0
H354 H 0.26437 0.16642 0.55387 0.0
H355 H 0.17342 0.19141 0.53997 0.0
H356 H 0.20949 0.20204 0.52563 0.0
H357 H 0.20119 0.20794 0.56298 0.0
H358 H 0.30161 0.22174 0.49881 0.0
C359 C 0.26631 0.19136 0.50301 0.0
C360 C 0.17343 0.94597 0.94258 0.0
C361 C 0.15346 0.96607 0.95312 0.0
C362 C 0.14707 0.9667 0.9829 0.0
C363 C 0.17938 0.9277 0.99065 0.0
C364 C 0.18637 0.92733 0.9617 0.0
C365 C 0.20909 0.90547 0.95431 0.0
H366 H 0.30033 0.80325 0.99958 0.0
C367 C 0.19692 0.906 0.00479 0.0
C368 C 0.21493 0.8932 0.98369 0.0
H369 H 0.28548 0.82981 0.91215 0.0
H370 H 0.25178 0.86505 0.92922 0.0
H371 H 0.30531 0.85923 0.02954 0.0
H372 H 0.22795 0.80571 0.01542 0.0
H373 H 0.22522 0.81724 0.0509 0.0
H374 H 0.25907 0.79871 0.04009 0.0
H375 H 0.29927 0.83001 0.05131 0.0
H376 H 0.28175 0.8618 0.06021 0.0
C377 C 0.23887 0.91866 0.94185 0.0
C378 C 0.19265 0.88554 0.93364 0.0
C379 C 0.17593 0.88215 0.10942 0.0
C380 C 0.18902 0.86284 0.12793 0.0
C381 C 0.21578 0.84891 0.11879 0.0
C382 C 0.2277 0.85243 0.09111 0.0
C383 C 0.21289 0.87016 0.07217 0.0
C384 C 0.18839 0.8856 0.08176 0.0
C385 C 0.1774 0.90497 0.05908 0.0
C386 C 0.19772 0.89693 0.03373 0.0
C387 C 0.2181 0.87629 0.04153 0.0
C388 C 0.1846 0.9339 0.06953 0.0
C389 C 0.14243 0.89951 0.05308 0.0
C390 C 0.2897 0.81642 0.98393 0.0
C391 C 0.29555 0.81342 0.95439 0.0
C392 C 0.28168 0.83166 0.93505 0.0
C393 C 0.26187 0.85202 0.945 0.0
C394 C 0.25562 0.85411 0.97458 0.0
C395 C 0.2695 0.83641 0.99341 0.0
C396 C 0.25894 0.84031 0.02385 0.0
C397 C 0.23664 0.86355 0.02037 0.0
C398 C 0.23486 0.87173 0.99153 0.0
C399 C 0.28769 0.84806 0.04241 0.0
C400 C 0.24205 0.81421 0.03337 0.0
H401 H 0.15378 0.94912 0.02386 0.0
H402 H 0.17883 0.94457 0.91993 0.0
H403 H 0.16747 0.8835 0.93897 0.0
H404 H 0.20195 0.865 0.93524 0.0
H405 H 0.19433 0.89243 0.91101 0.0
H406 H 0.24503 0.93714 0.95404 0.0
H407 H 0.2354 0.92439 0.91901 0.0
H408 H 0.25959 0.90573 0.94344 0.0
H409 H 0.1557 0.89357 0.11578 0.0
H410 H 0.22723 0.83476 0.13288 0.0
H411 H 0.24757 0.84068 0.08531 0.0
H412 H 0.20278 0.93425 0.08664 0.0
H413 H 0.16349 0.94361 0.07848 0.0
H414 H 0.19424 0.94665 0.05218 0.0
H415 H 0.13817 0.87768 0.05006 0.0
H416 H 0.13397 0.90937 0.03336 0.0
H417 H 0.12784 0.9064 0.0713 0.0
H418 H 0.13263 0.98223 0.99203 0.0
C419 C 0.15972 0.94761 1.00157 0.0
C420 C 0.72414 0.17265 0.44513 0.0
C421 C 0.71253 0.19694 0.45597 0.0
C422 C 0.72169 0.20514 0.48378 0.0
C423 C 0.75508 0.16611 0.48833 0.0
C424 C 0.74538 0.1578 0.46141 0.0
C425 C 0.76099 0.13238 0.45203 0.0
H426 H 0.87401 0.04053 0.47114 0.0
C427 C 0.77876 0.1468 0.4987 0.0
C428 C 0.78236 0.1271 0.47741 0.0
H429 H 0.80544 0.04523 0.40286 0.0
H430 H 0.78151 0.0827 0.426 0.0
H431 H 0.88566 0.10353 0.48058 0.0
H432 H 0.82189 0.04855 0.52135 0.0
H433 H 0.83582 0.07044 0.54802 0.0
H434 H 0.86279 0.04883 0.52952 0.0
H435 H 0.89829 0.0775 0.50448 0.0
H436 H 0.88633 0.10974 0.51781 0.0
C437 C 0.77952 0.13851 0.42421 0.0
C438 C 0.73564 0.11028 0.44869 0.0
C439 C 0.83031 0.15974 0.59646 0.0
C440 C 0.85419 0.14598 0.61097 0.0
C441 C 0.86872 0.12421 0.59717 0.0
C442 C 0.85931 0.11597 0.56965 0.0
C443 C 0.83516 0.12969 0.55557 0.0
C444 C 0.82133 0.15138 0.56884 0.0
C445 C 0.79687 0.16416 0.55012 0.0
C446 C 0.79737 0.14588 0.52402 0.0
C447 C 0.81989 0.12569 0.52732 0.0
C448 C 0.80785 0.193 0.54278 0.0
C449 C 0.76525 0.16273 0.566 0.0
C450 C 0.85371 0.04945 0.46123 0.0
C451 C 0.84238 0.04018 0.43448 0.0
C452 C 0.8156 0.05242 0.42276 0.0
C453 C 0.80145 0.07416 0.43639 0.0
C454 C 0.81383 0.0839 0.46231 0.0
C455 C 0.83892 0.07112 0.47481 0.0
C456 C 0.84734 0.08331 0.50349 0.0
C457 C 0.82383 0.106 0.5055 0.0
C458 C 0.80465 0.10642 0.48105 0.0
C459 C 0.88124 0.09399 0.50179 0.0
C460 C 0.84198 0.06177 0.52696 0.0
H461 H 0.7492 0.19732 0.52085 0.0
H462 H 0.71711 0.16537 0.42415 0.0
H463 H 0.71504 0.11434 0.46249 0.0
H464 H 0.74392 0.09036 0.45575 0.0
H465 H 0.72722 0.10887 0.42615 0.0
H466 H 0.79176 0.15817 0.426 0.0
H467 H 0.76373 0.13947 0.4053 0.0
H468 H 0.79799 0.12384 0.41971 0.0
H469 H 0.81904 0.17681 0.60629 0.0
H470 H 0.88702 0.11317 0.60794 0.0
H471 H 0.87117 0.09917 0.56043 0.0
H472 H 0.83372 0.1942 0.54146 0.0
H473 H 0.80023 0.2075 0.55943 0.0
H474 H 0.79962 0.19981 0.52152 0.0
H475 H 0.76215 0.14283 0.57642 0.0
H476 H 0.74506 0.16498 0.55148 0.0
H477 H 0.76392 0.17828 0.58304 0.0
H478 H 0.71322 0.22378 0.49268 0.0
C479 C 0.74284 0.18986 0.5 0.0
Fe480 Fe 0.0114 0.812 0.32828 0.0
Fe481 Fe 1.00165 0.84679 0.38161 0.0
O482 O 0.008 0.84411 0.34409 0.0
Fe483 Fe 0.01101 0.87327 0.32247 0.0
O484 O 0.99189 0.8579 0.291 0.0
O485 O 0.97745 0.81778 0.30584 0.0
O486 O 0.98539 0.79537 0.35379 0.0
C487 C 0.96415 0.80402 0.37012 0.0
C488 C 0.05579 0.84264 0.29721 0.0
O489 O 0.96525 0.82776 0.37954 0.0
C490 C 0.04494 0.88664 0.37297 0.0
O491 O 0.04555 0.80425 0.34998 0.0
O492 O 0.02405 0.81665 0.39065 0.0
O493 O 0.0495 0.86434 0.30966 0.0
O494 O 0.03804 0.82247 0.29968 0.0
C495 C 0.96464 0.88906 0.35892 0.0
O496 O 0.03752 0.86551 0.38621 0.0
O497 O 0.0307 0.89355 0.35025 0.0
C498 C 0.04521 0.8043 0.37712 0.0
O499 O 0.97852 0.8777 0.3796 0.0
O500 O 0.97282 0.88473 0.33335 0.0
C501 C 0.97465 0.83725 0.28875 0.0
Fe502 Fe 1.00252 0.1552 0.88351 0.0
Fe503 Fe 0.99463 0.13285 0.82284 0.0
O504 O 1.00034 0.16048 0.84609 0.0
Fe505 Fe 0.00414 0.19334 0.83206 0.0
O506 O 0.03154 0.20504 0.8602 0.0
O507 O 0.04188 0.16842 0.88463 0.0
O508 O 0.01961 0.12162 0.88103 0.0
C509 C 0.03509 0.11074 0.86113 0.0
C510 C 0.96872 0.20374 0.87914 0.0
O511 O 0.03029 0.11692 0.83524 0.0
C512 C 0.95708 0.16949 0.79696 0.0
O513 O 0.9633 0.14157 0.88431 0.0
O514 O 0.97037 0.11367 0.84836 0.0
O515 O 0.97038 0.20495 0.8521 0.0
O516 O 0.98588 0.18776 0.89309 0.0
C517 C 0.03842 0.16535 0.79307 0.0
O518 O 0.9588 0.14693 0.80895 0.0
O519 O 0.97786 0.18727 0.80115 0.0
C520 C 0.95489 0.12121 0.8701 0.0
O521 O 0.01768 0.14715 0.79318 0.0
O522 O 0.03812 0.18398 0.81136 0.0
C523 C 0.04947 0.19165 0.87644 0.0
Fe524 Fe 0.50392 0.31421 0.32365 0.0
Fe525 Fe 0.50691 0.34682 0.37968 0.0
O526 O 0.50407 0.34561 0.34158 0.0
Fe527 Fe 0.50145 0.37552 0.32105 0.0
O528 O 0.47617 0.36082 0.29347 0.0
O529 O 0.46516 0.32012 0.30897 0.0
O530 O 0.48554 0.29556 0.35286 0.0
C531 C 0.46868 0.30309 0.37348 0.0
C532 C 0.54057 0.34627 0.28714 0.0
O533 O 0.47204 0.32617 0.38409 0.0
C534 C 0.54488 0.38921 0.36458 0.0
O535 O 0.54251 0.30669 0.33722 0.0
O536 O 0.53312 0.31765 0.38227 0.0
O537 O 0.53677 0.36765 0.3011 0.0
O538 O 0.52257 0.3265 0.29096 0.0
C539 C 0.46258 0.38713 0.36618 0.0
O540 O 0.54186 0.36774 0.37865 0.0
O541 O 0.52581 0.39549 0.34504 0.0
C542 C 0.55006 0.30641 0.36348 0.0
O543 O 0.48138 0.37599 0.38344 0.0
O544 O 0.46624 0.38577 0.33935 0.0
C545 C 0.45821 0.34066 0.2945 0.0
Fe546 Fe 0.50131 0.6544 0.88203 0.0
Fe547 Fe 0.50151 0.62962 0.82183 0.0
O548 O 0.49885 0.65816 0.8442 0.0
Fe549 Fe 0.4936 0.69019 0.82843 0.0
O550 O 0.51584 0.70822 0.85606 0.0
O551 O 0.53491 0.67686 0.88417 0.0
O552 O 0.52915 0.62648 0.88049 0.0
C553 C 0.5471 0.61838 0.86067 0.0
C554 C 0.45392 0.6933 0.87432 0.0
O555 O 0.54049 0.62243 0.83458 0.0
C556 C 0.45441 0.65617 0.79521 0.0
O557 O 0.46769 0.63171 0.88276 0.0
O558 O 0.48422 0.60639 0.84758 0.0
O559 O 0.45737 0.69532 0.84751 0.0
O560 O 0.47389 0.68155 0.88991 0.0
C561 C 0.53463 0.66892 0.79038 0.0
O562 O 0.46264 0.63513 0.80807 0.0
O563 O 0.46999 0.67772 0.79794 0.0
C564 C 0.46543 0.61064 0.86787 0.0
O565 O 0.5192 0.64732 0.79151 0.0
O566 O 0.52976 0.68746 0.80818 0.0
C567 C 0.53566 0.70048 0.87443 0.0
H568 H 0.15815 0.31053 0.9356 0.0
H569 H 0.2203 0.2488 0.96724 0.0
H570 H 0.18747 0.21415 0.94434 0.0
H571 H 0.08815 0.27491 0.94689 0.0
H572 H 0.06883 0.28655 0.91484 0.0
H573 H 0.09848 0.30693 0.9316 0.0
H574 H 0.12924 0.30854 0.88379 0.0
H575 H 0.09957 0.28824 0.86682 0.0
H576 H 0.13969 0.27766 0.86623 0.0
H577 H 0.14626 0.18602 0.92178 0.0
H578 H 0.0995 0.16592 0.89944 0.0
H579 H 0.06395 0.24542 0.88101 0.0
C580 C 0.16512 0.28976 0.93718 0.0
C581 C 0.1917 0.28233 0.95332 0.0
C582 C 0.19983 0.25491 0.95529 0.0
C583 C 0.18144 0.23509 0.94222 0.0
C584 C 0.15505 0.24297 0.92703 0.0
C585 C 0.14693 0.26961 0.92423 0.0
C586 C 0.11649 0.2724 0.90781 0.0
C587 C 0.09152 0.286 0.9264 0.0
C588 C 0.12156 0.28761 0.87948 0.0
C589 C 0.10856 0.24315 0.90236 0.0
C590 C 0.13124 0.22658 0.91357 0.0
C591 C 0.1285 0.19877 0.91261 0.0
C592 C 0.10178 0.18755 0.89998 0.0
C593 C 0.07813 0.20407 0.88839 0.0
C594 C 0.08182 0.23226 0.88934 0.0
H595 H 0.81579 0.74765 0.4574 0.0
H596 H 0.85215 0.66831 0.43904 0.0
H597 H 0.89561 0.6885 0.41248 0.0
H598 H 0.83616 0.77833 0.39049 0.0
H599 H 0.84807 0.80993 0.40589 0.0
H600 H 0.81908 0.78966 0.42368 0.0
H601 H 0.85238 0.78976 0.47018 0.0
H602 H 0.88135 0.81021 0.4526 0.0
H603 H 0.89233 0.77881 0.46873 0.0
H604 H 0.93331 0.71594 0.38638 0.0
H605 H 0.96749 0.74993 0.36525 0.0
H606 H 0.91041 0.81291 0.40221 0.0
C607 C 0.83307 0.73456 0.44804 0.0
C608 C 0.83006 0.7063 0.44983 0.0
C609 C 0.85326 0.68993 0.43726 0.0
C610 C 0.87824 0.7012 0.42227 0.0
C611 C 0.88011 0.72895 0.42035 0.0
C612 C 0.85856 0.74554 0.43316 0.0
C613 C 0.86685 0.77482 0.42803 0.0
C614 C 0.84099 0.78902 0.41101 0.0
C615 C 0.87364 0.78925 0.45659 0.0
C616 C 0.89626 0.77191 0.41018 0.0
C617 C 0.90312 0.74518 0.40594 0.0
C618 C 0.92842 0.73697 0.38969 0.0
C619 C 0.94764 0.75657 0.37765 0.0
C620 C 0.94179 0.78423 0.38208 0.0
C621 C 0.91559 0.79198 0.39854 0.0
H622 H 0.83342 0.31087 0.90801 0.0
H623 H 0.86858 0.31583 0.99547 0.0
H624 H 0.90994 0.28376 0.98345 0.0
H625 H 0.84687 0.2413 0.89772 0.0
H626 H 0.8592 0.24429 0.86086 0.0
H627 H 0.8326 0.26837 0.87576 0.0
H628 H 0.87008 0.30701 0.8616 0.0
H629 H 0.89673 0.28305 0.8465 0.0
H630 H 0.91006 0.30625 0.87363 0.0
H631 H 0.94548 0.24986 0.96334 0.0
H632 H 0.9756 0.21727 0.93541 0.0
H633 H 0.91968 0.23486 0.85982 0.0
C634 C 0.8501 0.30551 0.9245 0.0
C635 C 0.84752 0.3157 0.9528 0.0
C636 C 0.86965 0.30793 0.97382 0.0
C637 C 0.89338 0.28985 0.96717 0.0
C638 C 0.89493 0.27985 0.9393 0.0
C639 C 0.87414 0.28751 0.91817 0.0
C640 C 0.88103 0.27335 0.89001 0.0
C641 C 0.85327 0.25578 0.88054 0.0
C642 C 0.89001 0.29363 0.86655 0.0
C643 C 0.90872 0.25638 0.89879 0.0
C644 C 0.91618 0.26049 0.92736 0.0
C645 C 0.94007 0.24659 0.94089 0.0
C646 C 0.95696 0.22801 0.9248 0.0
C647 C 0.95009 0.22352 0.89536 0.0
C648 C 0.92566 0.23802 0.8822 0.0
H649 H 0.1975 0.71526 0.40804 0.0
H650 H 0.16379 0.70866 0.49562 0.0
H651 H 0.11675 0.73393 0.48251 0.0
H652 H 0.17207 0.78195 0.39624 0.0
H653 H 0.16033 0.77697 0.3594 0.0
H654 H 0.1907 0.75663 0.37472 0.0
H655 H 0.15999 0.71362 0.36109 0.0
H656 H 0.12961 0.73384 0.34555 0.0
H657 H 0.12026 0.70965 0.37299 0.0
H658 H 0.07569 0.76202 0.46172 0.0
H659 H 0.04056 0.79039 0.43346 0.0
H660 H 0.09903 0.77928 0.35827 0.0
C661 C 0.17991 0.71882 0.42423 0.0
C662 C 0.18432 0.7102 0.4529 0.0
C663 C 0.16101 0.7154 0.47364 0.0
C664 C 0.13416 0.72963 0.46639 0.0
C665 C 0.1308 0.73845 0.43823 0.0
C666 C 0.15279 0.73318 0.41734 0.0
C667 C 0.14356 0.74596 0.38894 0.0
C668 C 0.16813 0.7666 0.37927 0.0
C669 C 0.13802 0.72448 0.36577 0.0
C670 C 0.11327 0.75949 0.3974 0.0
C671 C 0.10649 0.75475 0.42594 0.0
C672 C 0.08053 0.76571 0.43926 0.0
C673 C 0.06077 0.78194 0.42298 0.0
C674 C 0.06692 0.78707 0.39356 0.0
C675 C 0.09355 0.77557 0.38062 0.0
H676 H 0.69015 0.75456 0.95425 0.0
H677 H 0.65915 0.83463 0.93173 0.0
H678 H 0.61276 0.81549 0.90826 0.0
H679 H 0.66396 0.72162 0.88984 0.0
H680 H 0.65105 0.69156 0.90779 0.0
H681 H 0.68236 0.71129 0.92286 0.0
H682 H 0.65206 0.71526 0.97074 0.0
H683 H 0.62068 0.6955 0.9558 0.0
H684 H 0.61291 0.72824 0.97045 0.0
H685 H 0.57044 0.78844 0.88652 0.0
H686 H 0.53328 0.75472 0.86855 0.0
H687 H 0.58934 0.69149 0.9063 0.0
C688 C 0.67351 0.76808 0.94456 0.0
C689 C 0.67872 0.79616 0.94453 0.0
C690 C 0.6563 0.81306 0.93145 0.0
C691 C 0.62965 0.8024 0.91824 0.0
C692 C 0.6254 0.77475 0.91844 0.0
C693 C 0.64652 0.75774 0.93134 0.0
C694 C 0.63599 0.72873 0.92846 0.0
C695 C 0.65976 0.71234 0.91121 0.0
C696 C 0.63005 0.7162 0.95813 0.0
C697 C 0.60576 0.73219 0.91182 0.0
C698 C 0.60028 0.75896 0.90628 0.0
C699 C 0.57436 0.76741 0.8908 0.0
C700 C 0.5534 0.74802 0.88062 0.0
C701 C 0.55826 0.72039 0.88602 0.0
C702 C 0.58482 0.71244 0.90199 0.0
H703 H 0.31775 0.24913 0.45776 0.0
H704 H 0.34812 0.1691 0.43441 0.0
H705 H 0.39418 0.18825 0.41058 0.0
H706 H 0.3423 0.28197 0.39318 0.0
H707 H 0.35559 0.3121 0.41086 0.0
H708 H 0.32476 0.29233 0.42653 0.0
H709 H 0.35637 0.28856 0.47383 0.0
H710 H 0.38732 0.30831 0.45829 0.0
H711 H 0.39553 0.27563 0.47285 0.0
H712 H 0.43575 0.21522 0.38824 0.0
H713 H 0.4718 0.24896 0.36877 0.0
H714 H 0.41689 0.31229 0.40754 0.0
C715 C 0.33422 0.23564 0.44783 0.0
C716 C 0.329 0.20758 0.44767 0.0
C717 C 0.3511 0.19066 0.43426 0.0
C718 C 0.37754 0.20132 0.42087 0.0
C719 C 0.38183 0.22897 0.42122 0.0
C720 C 0.36097 0.24598 0.43439 0.0
C721 C 0.37133 0.275 0.43129 0.0
C722 C 0.34705 0.29131 0.41446 0.0
C723 C 0.37804 0.28761 0.46083 0.0
C724 C 0.4011 0.27154 0.41412 0.0
C725 C 0.40655 0.24475 0.40863 0.0
C726 C 0.43188 0.23626 0.3925 0.0
C727 C 0.45218 0.25565 0.38146 0.0
C728 C 0.44724 0.2833 0.38666 0.0
C729 C 0.42145 0.29131 0.40346 0.0
H730 H 0.33731 0.81303 0.90907 0.0
H731 H 0.29843 0.76239 0.97612 0.0
H732 H 0.33383 0.72614 0.96211 0.0
H733 H 0.34555 0.75863 0.85619 0.0
H734 H 0.38127 0.77222 0.84179 0.0
H735 H 0.3524 0.79431 0.85672 0.0
H736 H 0.39395 0.81408 0.89137 0.0
H737 H 0.42287 0.79197 0.87668 0.0
H738 H 0.41529 0.79193 0.91475 0.0
H739 H 0.37631 0.69678 0.94396 0.0
H740 H 0.42021 0.67453 0.91937 0.0
H741 H 0.42831 0.74196 0.86108 0.0
C742 C 0.33579 0.79419 0.92051 0.0
C743 C 0.31536 0.79091 0.94412 0.0
C744 C 0.31445 0.76587 0.95856 0.0
C745 C 0.33428 0.74497 0.9506 0.0
C746 C 0.35453 0.7491 0.92772 0.0
C747 C 0.35511 0.77288 0.91254 0.0
C748 C 0.37923 0.772 0.88879 0.0
C749 C 0.36368 0.77443 0.85911 0.0
C750 C 0.40432 0.79378 0.89317 0.0
C751 C 0.39245 0.74421 0.89341 0.0
C752 C 0.37797 0.73144 0.91613 0.0
C753 C 0.38749 0.70635 0.92581 0.0
C754 C 0.41246 0.69393 0.91185 0.0
C755 C 0.42724 0.70644 0.88822 0.0
C756 C 0.41692 0.73178 0.87875 0.0
H757 H 0.66048 0.22582 0.47209 0.0
H758 H 0.71824 0.20675 0.39841 0.0
H759 H 0.68356 0.23316 0.36728 0.0
H760 H 0.58725 0.2227 0.43586 0.0
H761 H 0.57047 0.25058 0.45487 0.0
H762 H 0.60017 0.23063 0.47178 0.0
H763 H 0.63364 0.27327 0.48043 0.0
H764 H 0.60397 0.29337 0.46361 0.0
H765 H 0.64346 0.29457 0.45047 0.0
H766 H 0.64194 0.26014 0.34365 0.0
H767 H 0.59648 0.28704 0.32922 0.0
H768 H 0.56619 0.29016 0.41816 0.0
C769 C 0.66604 0.22746 0.44948 0.0
C770 C 0.69198 0.21392 0.43771 0.0
C771 C 0.6982 0.21642 0.4079 0.0
C772 C 0.67876 0.23156 0.39003 0.0
C773 C 0.65324 0.24433 0.40222 0.0
C774 C 0.64688 0.24261 0.43126 0.0
C775 C 0.61764 0.2581 0.43872 0.0
C776 C 0.59239 0.23938 0.45103 0.0
C777 C 0.62514 0.2812 0.45954 0.0
C778 C 0.60848 0.26856 0.4093 0.0
C779 C 0.62938 0.26035 0.38858 0.0
C780 C 0.6255 0.26683 0.35969 0.0
C781 C 0.59952 0.28207 0.3517 0.0
C782 C 0.57773 0.29078 0.37252 0.0
C783 C 0.58251 0.284 0.40173 0.0
H784 H 0.3527 0.51688 0.96241 0.0
H785 H 0.3425 0.46785 0.88565 0.0
H786 H 0.37289 0.50082 0.85829 0.0
H787 H 0.35059 0.58235 0.92666 0.0
H788 H 0.38016 0.5968 0.94959 0.0
H789 H 0.35496 0.57069 0.9631 0.0
H790 H 0.4032 0.54243 0.9769 0.0
H791 H 0.42852 0.56843 0.96348 0.0
H792 H 0.43184 0.53474 0.94987 0.0
H793 H 0.40678 0.53662 0.83965 0.0
H794 H 0.44336 0.57361 0.83053 0.0
H795 H 0.43408 0.6001 0.91902 0.0
C796 C 0.35671 0.51309 0.93983 0.0
C797 C 0.34462 0.48976 0.92621 0.0
C798 C 0.35055 0.48577 0.89655 0.0
C799 C 0.36806 0.50434 0.88078 0.0
C800 C 0.37972 0.52686 0.89487 0.0
C801 C 0.3744 0.53141 0.92369 0.0
C802 C 0.39121 0.55666 0.93374 0.0
C803 C 0.36783 0.57788 0.94387 0.0
C804 C 0.41511 0.55017 0.9574 0.0
C805 C 0.40721 0.56524 0.90612 0.0
C806 C 0.39995 0.54774 0.88402 0.0
C807 C 0.41254 0.55055 0.85671 0.0
C808 C 0.43345 0.5716 0.85182 0.0
C809 C 0.44174 0.58971 0.87409 0.0
C810 C 0.42803 0.5867 0.90154 0.0
H811 H 0.64613 0.48805 0.46336 0.0
H812 H 0.66877 0.53011 0.38427 0.0
H813 H 0.64285 0.49475 0.35638 0.0
H814 H 0.65311 0.4196 0.43501 0.0
H815 H 0.61999 0.40718 0.4548 0.0
H816 H 0.64311 0.43439 0.46909 0.0
H817 H 0.59366 0.46376 0.47301 0.0
H818 H 0.57041 0.43661 0.45892 0.0
H819 H 0.56975 0.4689 0.4416 0.0
H820 H 0.6119 0.45753 0.33683 0.0
H821 H 0.575 0.42079 0.32664 0.0
H822 H 0.57033 0.40204 0.41758 0.0
C823 C 0.64578 0.48977 0.44018 0.0
C824 C 0.66019 0.51175 0.4261 0.0
C825 C 0.65893 0.51317 0.39567 0.0
C826 C 0.64405 0.49321 0.37955 0.0
C827 C 0.63028 0.47189 0.39403 0.0
C828 C 0.63077 0.46999 0.42362 0.0
C829 C 0.61219 0.44573 0.43367 0.0
C830 C 0.63337 0.42553 0.44905 0.0
C831 C 0.58488 0.45427 0.45293 0.0
C832 C 0.60071 0.43475 0.40507 0.0
C833 C 0.6118 0.45011 0.38256 0.0
C834 C 0.60327 0.44516 0.3542 0.0
C835 C 0.58226 0.4243 0.34865 0.0
C836 C 0.56999 0.40856 0.3713 0.0
C837 C 0.57984 0.41347 0.39985 0.0
H838 H 0.64348 0.52666 0.96718 0.0
H839 H 0.66846 0.47853 0.89295 0.0
H840 H 0.64628 0.5129 0.86106 0.0
H841 H 0.56989 0.54373 0.94154 0.0
H842 H 0.56998 0.577 0.95664 0.0
H843 H 0.59251 0.551 0.97333 0.0
H844 H 0.64229 0.58044 0.96905 0.0
H845 H 0.61985 0.60655 0.95218 0.0
H846 H 0.6537 0.59324 0.93439 0.0
H847 H 0.61703 0.5504 0.83735 0.0
H848 H 0.58013 0.5861 0.82406 0.0
H849 H 0.57128 0.60796 0.91399 0.0
C850 C 0.64451 0.52328 0.94423 0.0
C851 C 0.658 0.4998 0.93273 0.0
C852 C 0.65898 0.49652 0.90245 0.0
C853 C 0.64629 0.51593 0.88409 0.0
C854 C 0.63262 0.5385 0.89625 0.0
C855 C 0.63155 0.5422 0.92565 0.0
C856 C 0.61275 0.56673 0.93346 0.0
C857 C 0.58462 0.55915 0.95234 0.0
C858 C 0.63339 0.588 0.94814 0.0
C859 C 0.60257 0.57579 0.90389 0.0
C860 C 0.61482 0.55961 0.88267 0.0
C861 C 0.60753 0.56335 0.85376 0.0
C862 C 0.58655 0.58372 0.84643 0.0
C863 C 0.57272 0.59981 0.86799 0.0
C864 C 0.58149 0.59608 0.89699 0.0
H865 H 0.36206 0.51953 0.38586 0.0
H866 H 0.32856 0.48468 0.46539 0.0
H867 H 0.35365 0.44187 0.45306 0.0
H868 H 0.3562 0.45604 0.34155 0.0
H869 H 0.39144 0.46396 0.32224 0.0
H870 H 0.36668 0.49052 0.33496 0.0
H871 H 0.41366 0.51155 0.36201 0.0
H872 H 0.43844 0.48497 0.3497 0.0
H873 H 0.43492 0.49157 0.38763 0.0
H874 H 0.38907 0.40601 0.43667 0.0
H875 H 0.42956 0.37752 0.41485 0.0
H876 H 0.43896 0.43401 0.34458 0.0
C877 C 0.35909 0.50254 0.40006 0.0
C878 C 0.34333 0.50529 0.42651 0.0
C879 C 0.34059 0.4829 0.44503 0.0
C880 C 0.35468 0.45851 0.43819 0.0
C881 C 0.37116 0.45669 0.41255 0.0
C882 C 0.37306 0.4779 0.39349 0.0
C883 C 0.39439 0.47119 0.36855 0.0
C884 C 0.37608 0.47038 0.34014 0.0
C885 C 0.42198 0.49099 0.3669 0.0
C886 C 0.4051 0.44342 0.37724 0.0
C887 C 0.39123 0.43542 0.40262 0.0
C888 C 0.39954 0.41172 0.41643 0.0
C889 C 0.42268 0.39578 0.40402 0.0
C890 C 0.43706 0.40348 0.37796 0.0
C891 C 0.42779 0.4274 0.3642 0.0
H892 H 0.86695 0.98207 0.89628 0.0
H893 H 0.82223 0.01968 0.96919 0.0
H894 H 0.84505 0.0634 0.95531 0.0
H895 H 0.93772 0.01703 0.9032 0.0
H896 H 0.94503 0.02002 0.86522 0.0
H897 H 0.92201 0.9925 0.87858 0.0
H898 H 0.87663 0.00578 0.84464 0.0
H899 H 0.8996 0.03336 0.83113 0.0
H900 H 0.86147 0.03939 0.84593 0.0
H901 H 0.87605 0.10191 0.93612 0.0
H902 H 0.91412 0.13255 0.91361 0.0
H903 H 0.93978 0.06986 0.85349 0.0
C904 C 0.86138 0.99971 0.90879 0.0
C905 C 0.84257 0.99775 0.93355 0.0
C906 C 0.83645 0.02097 0.95003 0.0
C907 C 0.84923 0.04582 0.94227 0.0
C908 C 0.86819 0.04707 0.91804 0.0
C909 C 0.8743 0.02466 0.90152 0.0
C910 C 0.89763 0.03103 0.87805 0.0
C911 C 0.92735 0.01414 0.88149 0.0
C912 C 0.88295 0.02716 0.84816 0.0
C913 C 0.90399 0.06038 0.88423 0.0
C914 C 0.88655 0.06929 0.90721 0.0
C915 C 0.8896 0.09526 0.9179 0.0
C916 C 0.91135 0.11251 0.90499 0.0
C917 C 0.9299 0.10369 0.88171 0.0
C918 C 0.92571 0.07737 0.871 0.0
H919 H 0.13774 0.0241 0.39816 0.0
H920 H 0.18128 0.98578 0.47144 0.0
H921 H 0.15617 0.94281 0.45827 0.0
H922 H 0.06559 0.99222 0.40519 0.0
H923 H 0.05798 0.98853 0.36728 0.0
H924 H 0.08255 0.01543 0.37991 0.0
H925 H 0.12711 0.99949 0.34663 0.0
H926 H 0.10255 0.97263 0.33368 0.0
H927 H 0.14029 0.9653 0.3488 0.0
H928 H 0.1229 0.90555 0.44024 0.0
H929 H 0.08384 0.87567 0.41801 0.0
H930 H 0.06081 0.93796 0.35643 0.0
C931 C 0.14261 0.00642 0.41086 0.0
C932 C 0.16161 0.00802 0.43562 0.0
C933 C 0.16686 0.98478 0.45231 0.0
C934 C 0.15277 0.96034 0.44498 0.0
C935 C 0.13348 0.95951 0.42088 0.0
C936 C 0.12846 0.98185 0.40395 0.0
C937 C 0.10472 0.97593 0.38055 0.0
C938 C 0.07602 0.99411 0.38342 0.0
C939 C 0.11956 0.97848 0.35064 0.0
C940 C 0.09673 0.94701 0.38743 0.0
C941 C 0.11383 0.93791 0.41061 0.0
C942 C 0.10959 0.91231 0.42186 0.0
C943 C 0.08721 0.89553 0.40915 0.0
C944 C 0.0692 0.90442 0.38545 0.0
C945 C 0.07432 0.93047 0.37436 0.0
H946 H 0.09607 0.99044 0.95732 0.0
H947 H 0.17938 0.98867 0.90439 0.0
H948 H 0.15672 0.02327 0.87296 0.0
H949 H 0.03992 1.00339 0.90126 0.0
H950 H 0.01747 0.026 0.9231 0.0
H951 H 0.03893 0.99919 0.93972 0.0
H952 H 0.06775 0.0335 0.97231 0.0
H953 H 0.04633 0.06037 0.95588 0.0
H954 H 0.08835 0.06119 0.9561 0.0
H955 H 0.12482 0.05927 0.8476 0.0
H956 H 0.08835 0.09533 0.83313 0.0
H957 H 0.02913 0.07579 0.90563 0.0
C958 C 0.10983 0.99731 0.93929 0.0
C959 C 0.1396 0.98651 0.93346 0.0
C960 C 0.15628 0.99603 0.90916 0.0
C961 C 0.14367 0.01587 0.8912 0.0
C962 C 0.11447 0.02623 0.8979 0.0
C963 C 0.09791 0.01738 0.92152 0.0
C964 C 0.06793 0.03282 0.9252 0.0
C965 C 0.03938 0.01424 0.92213 0.0
C966 C 0.06759 0.04786 0.95408 0.0
C967 C 0.07033 0.05199 0.90016 0.0
C968 C 0.09702 0.04765 0.8843 0.0
C969 C 0.1039 0.06287 0.85993 0.0
C970 C 0.08308 0.08322 0.85183 0.0
C971 C 0.05616 0.08842 0.86841 0.0
C972 C 0.04975 0.07245 0.89273 0.0
H973 H 0.87299 0.99536 0.45574 0.0
H974 H 0.84938 0.03603 0.37608 0.0
H975 H 0.87427 1.00004 0.34861 0.0
H976 H 0.94928 0.975 0.43254 0.0
H977 H 0.94795 0.94333 0.45112 0.0
H978 H 0.92637 0.97144 0.46476 0.0
H979 H 0.87566 0.94299 0.46338 0.0
H980 H 0.89707 0.91485 0.44949 0.0
H981 H 0.86371 0.92737 0.43017 0.0
H982 H 0.90199 0.96021 0.32936 0.0
H983 H 0.93491 0.92095 0.31973 0.0
H984 H 0.94359 0.90692 0.41154 0.0
C985 C 0.87312 0.99683 0.43254 0.0
C986 C 0.85849 0.01846 0.41822 0.0
C987 C 0.85938 0.01938 0.38773 0.0
C988 C 0.8737 0.99907 0.37183 0.0
C989 C 0.88747 0.97798 0.38659 0.0
C990 C 0.88769 0.97682 0.41624 0.0
C991 C 0.90561 0.95253 0.42668 0.0
C992 C 0.93398 0.9611 0.44484 0.0
C993 C 0.88423 0.9333 0.44342 0.0
C994 C 0.91554 0.94041 0.39824 0.0
C995 C 0.90449 0.95529 0.37542 0.0
C996 C 0.91082 0.94837 0.34704 0.0
C997 C 0.92952 0.92596 0.34181 0.0
C998 C 0.94198 0.91077 0.36483 0.0
C999 C 0.93441 0.91799 0.39342 0.0
H1000 H 0.37637 0.3345 0.14309 0.0
H1001 H 0.31932 0.40018 0.17288 0.0
H1002 H 0.33788 0.39268 0.22261 0.0
H1003 H 0.37094 0.29171 0.20925 0.0
H1004 H 0.41123 0.28189 0.20675 0.0
H1005 H 0.38934 0.28911 0.17458 0.0
H1006 H 0.43088 0.3243 0.15961 0.0
H1007 H 0.4529 0.31707 0.19155 0.0
H1008 H 0.44093 0.35096 0.18417 0.0
H1009 H 0.36735 0.38244 0.26693 0.0
H1010 H 0.40833 0.37207 0.30256 0.0
H1011 H 0.44732 0.31315 0.24478 0.0
C1012 C 0.36723 0.3467 0.16035 0.0
C1013 C 0.34616 0.36763 0.15456 0.0
C1014 C 0.33528 0.38391 0.17721 0.0
C1015 C 0.34554 0.37967 0.20544 0.0
C1016 C 0.36674 0.35911 0.21053 0.0
C1017 C 0.3776 0.34293 0.18862 0.0
C1018 C 0.40326 0.32459 0.19924 0.0
C1019 C 0.39307 0.29507 0.19734 0.0
C1020 C 0.43379 0.32955 0.18267 0.0
C1021 C 0.40592 0.33368 0.23025 0.0
C1022 C 0.38415 0.35323 0.23641 0.0
C1023 C 0.38395 0.36669 0.26265 0.0
C1024 C 0.40718 0.36064 0.28277 0.0
C1025 C 0.43012 0.34128 0.27657 0.0
C1026 C 0.42911 0.32719 0.25032 0.0
H1027 H 0.58975 0.64053 0.63143 0.0
H1028 H 0.67887 0.67698 0.65343 0.0
H1029 H 0.65742 0.69098 0.70023 0.0
H1030 H 0.53908 0.68749 0.66872 0.0
H1031 H 0.51306 0.66125 0.68047 0.0
H1032 H 0.53411 0.65766 0.64726 0.0
H1033 H 0.55688 0.61262 0.66539 0.0
H1034 H 0.53586 0.61622 0.69854 0.0
H1035 H 0.57754 0.61179 0.69916 0.0
H1036 H 0.6265 0.6987 0.74641 0.0
H1037 H 0.59052 0.69615 0.78815 0.0
H1038 H 0.52437 0.65129 0.73623 0.0
C1039 C 0.60493 0.65144 0.64596 0.0
C1040 C 0.63607 0.65764 0.63849 0.0
C1041 C 0.65476 0.67237 0.65824 0.0
C1042 C 0.64282 0.68033 0.685 0.0
C1043 C 0.6122 0.67336 0.69179 0.0
C1044 C 0.59362 0.65911 0.67281 0.0
C1045 C 0.56251 0.65194 0.68595 0.0
C1046 C 0.53561 0.6654 0.66962 0.0
C1047 C 0.55796 0.62133 0.68735 0.0
C1048 C 0.56664 0.6639 0.71554 0.0
C1049 C 0.59514 0.67668 0.71846 0.0
C1050 C 0.6041 0.68881 0.74429 0.0
C1051 C 0.58358 0.68736 0.76781 0.0
C1052 C 0.55493 0.67338 0.76533 0.0
C1053 C 0.5463 0.66193 0.73874 0.0
H1054 H 0.64955 0.39569 0.15774 0.0
H1055 H 0.66607 0.31137 0.14044 0.0
H1056 H 0.63596 0.29921 0.18338 0.0
H1057 H 0.65231 0.39136 0.2361 0.0
H1058 H 0.62112 0.41496 0.24122 0.0
H1059 H 0.64592 0.41756 0.21012 0.0
H1060 H 0.59747 0.41522 0.17684 0.0
H1061 H 0.57254 0.41271 0.20781 0.0
H1062 H 0.57066 0.38745 0.18015 0.0
H1063 H 0.60221 0.2956 0.22596 0.0
H1064 H 0.56547 0.30061 0.26604 0.0
H1065 H 0.56926 0.38715 0.25656 0.0
C1066 C 0.64689 0.37467 0.16302 0.0
C1067 C 0.66062 0.35451 0.14581 0.0
C1068 C 0.65654 0.32725 0.15357 0.0
C1069 C 0.63929 0.3201 0.17787 0.0
C1070 C 0.62614 0.3404 0.19428 0.0
C1071 C 0.62962 0.36712 0.18728 0.0
C1072 C 0.6118 0.38479 0.20808 0.0
C1073 C 0.63413 0.40326 0.22487 0.0
C1074 C 0.58662 0.40099 0.19227 0.0
C1075 C 0.5974 0.36372 0.22752 0.0
C1076 C 0.60623 0.33829 0.21914 0.0
C1077 C 0.59523 0.31539 0.23286 0.0
C1078 C 0.57427 0.31847 0.25554 0.0
C1079 C 0.56444 0.34426 0.26438 0.0
C1080 C 0.57657 0.36722 0.25044 0.0
H1081 H 0.38833 0.67264 0.63692 0.0
H1082 H 0.3289 0.60431 0.65505 0.0
H1083 H 0.34353 0.60675 0.70642 0.0
H1084 H 0.44949 0.65281 0.68044 0.0
H1085 H 0.46041 0.68584 0.69267 0.0
H1086 H 0.44131 0.68172 0.65851 0.0
H1087 H 0.39814 0.71474 0.67438 0.0
H1088 H 0.41724 0.7189 0.70866 0.0
H1089 H 0.37696 0.70848 0.70713 0.0
H1090 H 0.36965 0.61239 0.75351 0.0
H1091 H 0.40604 0.62068 0.79374 0.0
H1092 H 0.44897 0.68558 0.74576 0.0
C1093 C 0.37776 0.65883 0.65202 0.0
C1094 C 0.3572 0.63854 0.64246 0.0
C1095 C 0.34444 0.62013 0.66232 0.0
C1096 C 0.35254 0.62143 0.69144 0.0
C1097 C 0.37344 0.64127 0.70024 0.0
C1098 C 0.38586 0.65972 0.68119 0.0
C1099 C 0.41035 0.67712 0.69569 0.0
C1100 C 0.44226 0.67417 0.68095 0.0
C1101 C 0.40004 0.70656 0.69651 0.0
C1102 C 0.4105 0.66495 0.72552 0.0
C1103 C 0.38872 0.64453 0.72775 0.0
C1104 C 0.38635 0.62868 0.75227 0.0
C1105 C 0.40716 0.63347 0.77495 0.0
C1106 C 0.43001 0.65395 0.77294 0.0
C1107 C 0.43119 0.67025 0.74815 0.0
H1108 H 0.9135 0.8685 0.13123 0.0
H1109 H 0.82825 0.8254 0.15213 0.0
H1110 H 0.85089 0.81292 0.1991 0.0
H1111 H 0.96818 0.82544 0.16789 0.0
H1112 H 0.99186 0.85313 0.1802 0.0
H1113 H 0.97028 0.85586 0.14708 0.0
H1114 H 0.94348 0.89881 0.16606 0.0
H1115 H 0.96491 0.89618 0.19922 0.0
H1116 H 0.92294 0.89769 0.1998 0.0
H1117 H 0.88283 0.8066 0.24498 0.0
H1118 H 0.91973 0.80905 0.28601 0.0
H1119 H 0.98094 0.86018 0.23589 0.0
C1120 C 0.89932 0.85655 0.14559 0.0
C1121 C 0.86891 0.84807 0.13778 0.0
C1122 C 0.85174 0.83188 0.15724 0.0
C1123 C 0.86435 0.82481 0.18411 0.0
C1124 C 0.89406 0.83419 0.19128 0.0
C1125 C 0.91121 0.84982 0.17255 0.0
C1126 C 0.94167 0.85896 0.18588 0.0
C1127 C 0.96965 0.84766 0.16927 0.0
C1128 C 0.94332 0.88973 0.18786 0.0
C1129 C 0.9389 0.84633 0.21526 0.0
C1130 C 0.91157 0.83172 0.21788 0.0
C1131 C 0.90424 0.81803 0.24313 0.0
C1132 C 0.92531 0.8195 0.26627 0.0
C1133 C 0.95299 0.83497 0.26414 0.0
C1134 C 0.95977 0.84845 0.23824 0.0
H1135 H 0.09853 0.13767 0.63481 0.0
H1136 H 0.18803 0.17161 0.65963 0.0
H1137 H 0.1664 0.18304 0.70737 0.0
H1138 H 0.04983 0.18439 0.67365 0.0
H1139 H 0.02198 0.15893 0.68345 0.0
H1140 H 0.04354 0.15584 0.65052 0.0
H1141 H 0.06327 0.10914 0.66636 0.0
H1142 H 0.0415 0.11191 0.69921 0.0
H1143 H 0.08285 0.10565 0.70047 0.0
H1144 H 0.13489 0.18875 0.75345 0.0
H1145 H 0.09706 0.18733 0.79363 0.0
H1146 H 0.03027 0.14653 0.73856 0.0
C1147 C 0.11374 0.14745 0.65023 0.0
C1148 C 0.14508 0.15358 0.64349 0.0
C1149 C 0.16386 0.16695 0.66416 0.0
C1150 C 0.15182 0.17338 0.69138 0.0
C1151 C 0.12101 0.1663 0.6975 0.0
C1152 C 0.1023 0.15364 0.67742 0.0
C1153 C 0.07049 0.14702 0.68943 0.0
C1154 C 0.04497 0.16248 0.67328 0.0
C1155 C 0.06418 0.11663 0.68884 0.0
C1156 C 0.07437 0.15723 0.71977 0.0
C1157 C 0.10343 0.16875 0.72396 0.0
C1158 C 0.11211 0.17976 0.75036 0.0
C1159 C 0.09053 0.17887 0.77302 0.0
C1160 C 0.06095 0.16659 0.7692 0.0
C1161 C 0.05288 0.15572 0.7422 0.0
H1162 H 0.15895 0.89612 0.16671 0.0
H1163 H 0.18338 0.81289 0.15152 0.0
H1164 H 0.1569 0.79992 0.19609 0.0
H1165 H 0.16461 0.8946 0.2455 0.0
H1166 H 0.13105 0.91571 0.2504 0.0
H1167 H 0.15484 0.9193 0.21874 0.0
H1168 H 0.10616 0.912 0.1865 0.0
H1169 H 0.08227 0.90854 0.21803 0.0
H1170 H 0.08257 0.88234 0.19136 0.0
H1171 H 0.12445 0.79492 0.23961 0.0
H1172 H 0.08651 0.79824 0.27915 0.0
H1173 H 0.08178 0.88433 0.26664 0.0
C1174 C 0.15893 0.8752 0.17283 0.0
C1175 C 0.17386 0.85565 0.15568 0.0
C1176 C 0.17306 0.82845 0.16456 0.0
C1177 C 0.15787 0.8208 0.18984 0.0
C1178 C 0.1434 0.84049 0.20612 0.0
C1179 C 0.14368 0.86712 0.19803 0.0
C1180 C 0.12443 0.88391 0.21852 0.0
C1181 C 0.14497 0.9046 0.23422 0.0
C1182 C 0.09725 0.89749 0.20265 0.0
C1183 C 0.11283 0.8624 0.23896 0.0
C1184 C 0.12433 0.83755 0.23148 0.0
C1185 C 0.11556 0.81429 0.24593 0.0
C1186 C 0.09397 0.81638 0.26831 0.0
C1187 C 0.0814 0.84153 0.27608 0.0
C1188 C 0.09147 0.8649 0.26154 0.0
H1189 H 0.9135 0.15199 0.63245 0.0
H1190 H 0.81609 0.15715 0.65654 0.0
H1191 H 0.83164 0.1673 0.70664 0.0
H1192 H 0.93887 0.11941 0.69447 0.0
H1193 H 0.97561 0.13659 0.69814 0.0
H1194 H 0.95835 0.13239 0.6631 0.0
H1195 H 0.95948 0.18293 0.65371 0.0
H1196 H 0.9773 0.18899 0.68824 0.0
H1197 H 0.94156 0.20559 0.67885 0.0
H1198 H 0.85812 0.17202 0.75527 0.0
H1199 H 0.89363 0.17366 0.79753 0.0
H1200 H 0.97331 0.16828 0.74096 0.0
C1201 C 0.89545 0.15546 0.64823 0.0
C1202 C 0.86357 0.1538 0.64061 0.0
C1203 C 0.84065 0.1586 0.66185 0.0
C1204 C 0.84926 0.16429 0.69036 0.0
C1205 C 0.8809 0.16548 0.69722 0.0
C1206 C 0.90363 0.16149 0.67666 0.0
C1207 C 0.93598 0.16308 0.68968 0.0
C1208 C 0.95322 0.1363 0.68611 0.0
C1209 C 0.95469 0.18653 0.67684 0.0
C1210 C 0.92796 0.16826 0.72083 0.0
C1211 C 0.89606 0.16943 0.72486 0.0
C1212 C 0.88313 0.17178 0.75226 0.0
C1213 C 0.90335 0.17275 0.77609 0.0
C1214 C 0.93599 0.17188 0.77219 0.0
C1215 C 0.94839 0.16989 0.74426 0.0
loop_
_geom_bond_atom_site_label_1
_geom_bond_atom_site_label_2
_geom_bond_distance
_geom_bond_site_symmetry_2
_ccdc_geom_bond_type
C0 C1 1.391 . S
C0 C4 1.391 . S
C0 H42 0.948 . S
C1 C0 1.391 . S
C1 C2 1.391 . S
C2 C1 1.391 . S
C2 H58 0.947 . S
C2 C59 1.392 . S
C3 C4 1.391 . S
C3 C7 1.397 . S
C3 C59 1.419 . S
C4 C0 1.391 . S
C4 C3 1.391 . S
C4 C5 1.399 . S
C5 C4 1.399 . S
C5 C8 1.396 . S
C5 C17 1.453 . S
C5 C18 1.684 . S
H6 C30 0.948 . S
C7 C3 1.397 . S
C7 C8 1.394 . S
C7 C26 1.723 . S
C8 C5 1.396 . S
C8 C7 1.394 . S
C8 C38 1.723 . S
H9 C32 0.947 1_554 S
H10 C33 0.948 . S
H11 C39 0.982 . S
H12 C40 0.979 . S
H13 C40 0.980 . S
H14 C40 0.983 . S
H15 C39 0.979 . S
H16 C39 0.977 . S
C17 C5 1.453 . S
C17 H46 0.982 . S
C17 H47 0.979 . S
C17 H48 0.977 . S
C18 C5 1.684 . S
C18 H43 0.979 . S
C18 H44 0.980 . S
C18 H45 0.983 . S
C19 C20 1.391 . S
C19 C24 1.391 . S
C19 H49 0.948 . S
C20 C19 1.391 . S
C20 C21 1.391 . S
C21 C20 1.391 . S
C21 C22 1.392 . S
C21 H50 0.947 . S
C22 C21 1.392 . S
C22 C23 1.419 . S
C22 H51 0.948 . S
C23 C22 1.419 . S
C23 C24 1.391 . S
C23 C27 1.397 . S
C24 C19 1.391 . S
C24 C23 1.391 . S
C24 C25 1.399 1_556 S
C25 C24 1.399 1_554 S
C25 C26 1.396 . S
C25 C28 1.453 . S
C25 C29 1.684 . S
C26 C7 1.723 . S
C26 C25 1.396 . S
C26 C27 1.394 1_554 S
C27 C23 1.397 . S
C27 C26 1.394 1_556 S
C27 C37 1.723 . S
C28 C25 1.453 . S
C28 H52 0.982 . S
C28 H53 0.979 . S
C28 H54 0.977 . S
C29 C25 1.684 . S
C29 H55 0.979 . S
C29 H56 0.980 . S
C29 H57 0.983 . S
C30 H6 0.948 . S
C30 C31 1.391 . S
C30 C35 1.391 . S
C31 C30 1.391 . S
C31 C32 1.391 . S
C32 H9 0.947 1_556 S
C32 C31 1.391 . S
C32 C33 1.392 1_556 S
C33 H10 0.948 . S
C33 C32 1.392 1_554 S
C33 C34 1.419 1_554 S
C34 C33 1.419 1_556 S
C34 C35 1.391 . S
C34 C38 1.397 1_556 S
C35 C30 1.391 . S
C35 C34 1.391 . S
C35 C36 1.399 . S
C36 C35 1.399 . S
C36 C37 1.396 . S
C36 C39 1.453 . S
C36 C40 1.684 . S
C37 C27 1.723 . S
C37 C36 1.396 . S
C37 C38 1.394 1_556 S
C38 C8 1.723 . S
C38 C34 1.397 1_554 S
C38 C37 1.394 1_554 S
C39 H11 0.982 . S
C39 H15 0.979 . S
C39 H16 0.977 . S
C39 C36 1.453 . S
C40 H12 0.979 . S
C40 H13 0.980 . S
C40 H14 0.983 . S
C40 C36 1.684 . S
H41 C59 0.948 . S
H42 C0 0.948 . S
H43 C18 0.979 . S
H44 C18 0.980 . S
H45 C18 0.983 . S
H46 C17 0.982 . S
H47 C17 0.979 . S
H48 C17 0.977 . S
H49 C19 0.948 . S
H50 C21 0.947 . S
H51 C22 0.948 . S
H52 C28 0.982 . S
H53 C28 0.979 . S
H54 C28 0.977 . S
H55 C29 0.979 . S
H56 C29 0.980 . S
H57 C29 0.983 . S
H58 C2 0.947 . S
C59 C2 1.392 . S
C59 C3 1.419 . S
C59 H41 0.948 . S
C60 C61 1.391 . S
C60 C64 1.391 . S
C60 H102 0.948 . S
C61 C60 1.391 . S
C61 C62 1.391 . S
C62 C61 1.391 . S
C62 H118 0.947 . S
C62 C119 1.392 . S
C63 C64 1.391 . S
C63 C67 1.397 . S
C63 C119 1.419 . S
C64 C60 1.391 . S
C64 C63 1.391 . S
C64 C65 1.399 . S
C65 C64 1.399 . S
C65 C68 1.396 . S
C65 C77 1.453 . S
C65 C78 1.684 . S
H66 C90 0.948 . S
C67 C63 1.397 . S
C67 C68 1.394 . S
C67 C86 1.723 . S
C68 C65 1.396 . S
C68 C67 1.394 . S
C68 C98 1.723 . S
H69 C92 0.947 . S
H70 C93 0.948 . S
H71 C99 0.982 . S
H72 C100 0.979 . S
H73 C100 0.980 . S
H74 C100 0.983 . S
H75 C99 0.979 . S
H76 C99 0.977 . S
C77 C65 1.453 . S
C77 H106 0.982 . S
C77 H107 0.979 . S
C77 H108 0.977 . S
C78 C65 1.684 . S
C78 H103 0.979 . S
C78 H104 0.980 . S
C78 H105 0.983 . S
C79 C80 1.391 . S
C79 C84 1.391 . S
C79 H109 0.948 . S
C80 C79 1.391 . S
C80 C81 1.391 . S
C81 C80 1.391 . S
C81 C82 1.392 . S
C81 H110 0.947 . S
C82 C81 1.392 . S
C82 C83 1.419 . S
C82 H111 0.948 . S
C83 C82 1.419 . S
C83 C84 1.391 . S
C83 C87 1.397 . S
C84 C79 1.391 . S
C84 C83 1.391 . S
C84 C85 1.399 . S
C85 C84 1.399 . S
C85 C86 1.396 . S
C85 C88 1.453 . S
C85 C89 1.684 . S
C86 C67 1.723 . S
C86 C85 1.396 . S
C86 C87 1.394 . S
C87 C83 1.397 . S
C87 C86 1.394 . S
C87 C97 1.723 . S
C88 C85 1.453 . S
C88 H112 0.982 . S
C88 H113 0.979 . S
C88 H114 0.977 . S
C89 C85 1.684 . S
C89 H115 0.979 . S
C89 H116 0.980 . S
C89 H117 0.983 . S
C90 H66 0.948 . S
C90 C91 1.391 . S
C90 C95 1.391 . S
C91 C90 1.391 . S
C91 C92 1.391 . S
C92 H69 0.947 . S
C92 C91 1.391 . S
C92 C93 1.392 . S
C93 H70 0.948 . S
C93 C92 1.392 . S
C93 C94 1.419 . S
C94 C93 1.419 . S
C94 C95 1.391 . S
C94 C98 1.397 . S
C95 C90 1.391 . S
C95 C94 1.391 . S
C95 C96 1.399 . S
C96 C95 1.399 . S
C96 C97 1.396 . S
C96 C99 1.453 . S
C96 C100 1.684 . S
C97 C87 1.723 . S
C97 C96 1.396 . S
C97 C98 1.394 . S
C98 C68 1.723 . S
C98 C94 1.397 . S
C98 C97 1.394 . S
C99 H71 0.982 . S
C99 H75 0.979 . S
C99 H76 0.977 . S
C99 C96 1.453 . S
C100 H72 0.979 . S
C100 H73 0.980 . S
C100 H74 0.983 . S
C100 C96 1.684 . S
H101 C119 0.948 . S
H102 C60 0.948 . S
H103 C78 0.979 . S
H104 C78 0.980 . S
H105 C78 0.983 . S
H106 C77 0.982 . S
H107 C77 0.979 . S
H108 C77 0.977 . S
H109 C79 0.948 . S
H110 C81 0.947 . S
H111 C82 0.948 . S
H112 C88 0.982 . S
H113 C88 0.979 . S
H114 C88 0.977 . S
H115 C89 0.979 . S
H116 C89 0.980 . S
H117 C89 0.983 . S
H118 C62 0.947 . S
C119 C62 1.392 . S
C119 C63 1.419 . S
C119 H101 0.948 . S
C120 C121 1.391 . S
C120 C124 1.391 . S
C120 H162 0.948 . S
C121 C120 1.391 . S
C121 C122 1.391 . S
C122 C121 1.391 . S
C122 H178 0.947 . S
C122 C179 1.392 . S
C123 C124 1.391 . S
C123 C127 1.397 . S
C123 C179 1.419 . S
C124 C120 1.391 . S
C124 C123 1.391 . S
C124 C125 1.399 . S
C125 C124 1.399 . S
C125 C128 1.396 . S
C125 C137 1.453 . S
C125 C138 1.684 . S
H126 C150 0.948 . S
C127 C123 1.397 . S
C127 C128 1.394 . S
C127 C146 1.723 1_556 S
C128 C125 1.396 . S
C128 C127 1.394 . S
C128 C158 1.723 . S
H129 C152 0.947 . S
H130 C153 0.948 . S
H131 C159 0.982 . S
H132 C160 0.979 . S
H133 C160 0.980 . S
H134 C160 0.983 . S
H135 C159 0.979 . S
H136 C159 0.977 . S
C137 C125 1.453 . S
C137 H166 0.982 . S
C137 H167 0.979 . S
C137 H168 0.977 . S
C138 C125 1.684 . S
C138 H163 0.979 . S
C138 H164 0.980 . S
C138 H165 0.983 . S
C139 C140 1.391 . S
C139 C144 1.391 . S
C139 H169 0.948 . S
C140 C139 1.391 . S
C140 C141 1.391 . S
C141 C140 1.391 . S
C141 C142 1.392 . S
C141 H170 0.947 . S
C142 C141 1.392 . S
C142 C143 1.419 . S
C142 H171 0.948 . S
C143 C142 1.419 . S
C143 C144 1.391 . S
C143 C147 1.397 . S
C144 C139 1.391 . S
C144 C143 1.391 . S
C144 C145 1.399 . S
C145 C144 1.399 . S
C145 C146 1.396 . S
C145 C148 1.453 . S
C145 C149 1.684 . S
C146 C127 1.723 1_554 S
C146 C145 1.396 . S
C146 C147 1.394 . S
C147 C143 1.397 . S
C147 C146 1.394 . S
C147 C157 1.723 . S
C148 C145 1.453 . S
C148 H172 0.982 . S
C148 H173 0.979 . S
C148 H174 0.977 . S
C149 C145 1.684 . S
C149 H175 0.979 . S
C149 H176 0.980 . S
C149 H177 0.983 . S
C150 H126 0.948 . S
C150 C151 1.391 . S
C150 C155 1.391 . S
C151 C150 1.391 . S
C151 C152 1.391 . S
C152 H129 0.947 . S
C152 C151 1.391 . S
C152 C153 1.392 . S
C153 H130 0.948 . S
C153 C152 1.392 . S
C153 C154 1.419 . S
C154 C153 1.419 . S
C154 C155 1.391 . S
C154 C158 1.397 . S
C155 C150 1.391 . S
C155 C154 1.391 . S
C155 C156 1.399 1_556 S
C156 C155 1.399 1_554 S
C156 C157 1.396 . S
C156 C159 1.453 . S
C156 C160 1.684 . S
C157 C147 1.723 . S
C157 C156 1.396 . S
C157 C158 1.394 1_554 S
C158 C128 1.723 . S
C158 C154 1.397 . S
C158 C157 1.394 1_556 S
C159 H131 0.982 . S
C159 H135 0.979 . S
C159 H136 0.977 . S
C159 C156 1.453 . S
C160 H132 0.979 . S
C160 H133 0.980 . S
C160 H134 0.983 . S
C160 C156 1.684 . S
H161 C179 0.948 1_554 S
H162 C120 0.948 . S
H163 C138 0.979 . S
H164 C138 0.980 . S
H165 C138 0.983 . S
H166 C137 0.982 . S
H167 C137 0.979 . S
H168 C137 0.977 . S
H169 C139 0.948 . S
H170 C141 0.947 . S
H171 C142 0.948 . S
H172 C148 0.982 . S
H173 C148 0.979 . S
H174 C148 0.977 . S
H175 C149 0.979 . S
H176 C149 0.980 . S
H177 C149 0.983 . S
H178 C122 0.947 . S
C179 C122 1.392 . S
C179 C123 1.419 . S
C179 H161 0.948 1_556 S
C180 C181 1.391 . S
C180 C184 1.391 . S
C180 H222 0.948 . S
C181 C180 1.391 . S
C181 C182 1.391 . S
C182 C181 1.391 . S
C182 H238 0.947 . S
C182 C239 1.392 . S
C183 C184 1.391 . S
C183 C187 1.397 . S
C183 C239 1.419 . S
C184 C180 1.391 . S
C184 C183 1.391 . S
C184 C185 1.399 . S
C185 C184 1.399 . S
C185 C188 1.396 . S
C185 C197 1.453 . S
C185 C198 1.684 . S
H186 C210 0.948 . S
C187 C183 1.397 . S
C187 C188 1.394 . S
C187 C206 1.723 . S
C188 C185 1.396 . S
C188 C187 1.394 . S
C188 C218 1.723 . S
H189 C212 0.947 . S
H190 C213 0.948 . S
H191 C219 0.982 . S
H192 C220 0.979 . S
H193 C220 0.980 . S
H194 C220 0.983 . S
H195 C219 0.979 . S
H196 C219 0.977 . S
C197 C185 1.453 . S
C197 H226 0.982 . S
C197 H227 0.979 . S
C197 H228 0.977 . S
C198 C185 1.684 . S
C198 H223 0.979 . S
C198 H224 0.980 . S
C198 H225 0.983 . S
C199 C200 1.391 . S
C199 C204 1.391 . S
C199 H229 0.948 . S
C200 C199 1.391 . S
C200 C201 1.391 . S
C201 C200 1.391 . S
C201 C202 1.392 . S
C201 H230 0.947 . S
C202 C201 1.392 . S
C202 C203 1.419 . S
C202 H231 0.948 . S
C203 C202 1.419 . S
C203 C204 1.391 . S
C203 C207 1.397 . S
C204 C199 1.391 . S
C204 C203 1.391 . S
C204 C205 1.399 . S
C205 C204 1.399 . S
C205 C206 1.396 . S
C205 C208 1.453 . S
C205 C209 1.684 . S
C206 C187 1.723 . S
C206 C205 1.396 . S
C206 C207 1.394 . S
C207 C203 1.397 . S
C207 C206 1.394 . S
C207 C217 1.723 . S
C208 C205 1.453 . S
C208 H232 0.982 . S
C208 H233 0.979 . S
C208 H234 0.977 . S
C209 C205 1.684 . S
C209 H235 0.979 . S
C209 H236 0.980 . S
C209 H237 0.983 . S
C210 H186 0.948 . S
C210 C211 1.391 . S
C210 C215 1.391 . S
C211 C210 1.391 . S
C211 C212 1.391 . S
C212 H189 0.947 . S
C212 C211 1.391 . S
C212 C213 1.392 . S
C213 H190 0.948 . S
C213 C212 1.392 . S
C213 C214 1.419 . S
C214 C213 1.419 . S
C214 C215 1.391 . S
C214 C218 1.397 . S
C215 C210 1.391 . S
C215 C214 1.391 . S
C215 C216 1.399 . S
C216 C215 1.399 . S
C216 C217 1.396 . S
C216 C219 1.453 . S
C216 C220 1.684 . S
C217 C207 1.723 . S
C217 C216 1.396 . S
C217 C218 1.394 . S
C218 C188 1.723 . S
C218 C214 1.397 . S
C218 C217 1.394 . S
C219 H191 0.982 . S
C219 H195 0.979 . S
C219 H196 0.977 . S
C219 C216 1.453 . S
C220 H192 0.979 . S
C220 H193 0.980 . S
C220 H194 0.983 . S
C220 C216 1.684 . S
H221 C239 0.948 . S
H222 C180 0.948 . S
H223 C198 0.979 . S
H224 C198 0.980 . S
H225 C198 0.983 . S
H226 C197 0.982 . S
H227 C197 0.979 . S
H228 C197 0.977 . S
H229 C199 0.948 . S
H230 C201 0.947 . S
H231 C202 0.948 . S
H232 C208 0.982 . S
H233 C208 0.979 . S
H234 C208 0.977 . S
H235 C209 0.979 . S
H236 C209 0.980 . S
H237 C209 0.983 . S
H238 C182 0.947 . S
C239 C182 1.392 . S
C239 C183 1.419 . S
C239 H221 0.948 . S
C240 C241 1.391 . S
C240 C244 1.391 . S
C240 H282 0.948 . S
C241 C240 1.391 . S
C241 C242 1.391 . S
C242 C241 1.391 . S
C242 H298 0.947 . S
C242 C299 1.392 . S
C243 C244 1.391 . S
C243 C247 1.397 . S
C243 C299 1.419 . S
C244 C240 1.391 . S
C244 C243 1.391 . S
C244 C245 1.399 . S
C245 C244 1.399 . S
C245 C248 1.396 . S
C245 C257 1.453 . S
C245 C258 1.684 . S
H246 C270 0.948 . S
C247 C243 1.397 . S
C247 C248 1.394 . S
C247 C266 1.723 . S
C248 C245 1.396 . S
C248 C247 1.394 . S
C248 C278 1.723 . S
H249 C272 0.947 1_554 S
H250 C273 0.948 . S
H251 C279 0.982 . S
H252 C280 0.979 . S
H253 C280 0.980 . S
H254 C280 0.983 . S
H255 C279 0.979 . S
H256 C279 0.977 . S
C257 C245 1.453 . S
C257 H286 0.982 . S
C257 H287 0.979 . S
C257 H288 0.977 . S
C258 C245 1.684 . S
C258 H283 0.979 . S
C258 H284 0.980 . S
C258 H285 0.983 . S
C259 C260 1.391 . S
C259 C264 1.391 . S
C259 H289 0.948 . S
C260 C259 1.391 . S
C260 C261 1.391 . S
C261 C260 1.391 . S
C261 C262 1.392 . S
C261 H290 0.947 . S
C262 C261 1.392 . S
C262 C263 1.419 . S
C262 H291 0.948 . S
C263 C262 1.419 . S
C263 C264 1.391 . S
C263 C267 1.397 . S
C264 C259 1.391 . S
C264 C263 1.391 . S
C264 C265 1.399 1_556 S
C265 C264 1.399 1_554 S
C265 C266 1.396 . S
C265 C268 1.453 . S
C265 C269 1.684 . S
C266 C247 1.723 . S
C266 C265 1.396 . S
C266 C267 1.394 1_554 S
C267 C263 1.397 . S
C267 C266 1.394 1_556 S
C267 C277 1.723 . S
C268 C265 1.453 . S
C268 H292 0.982 . S
C268 H293 0.979 . S
C268 H294 0.977 . S
C269 C265 1.684 . S
C269 H295 0.979 . S
C269 H296 0.980 . S
C269 H297 0.983 . S
C270 H246 0.948 . S
C270 C271 1.391 . S
C270 C275 1.391 . S
C271 C270 1.391 . S
C271 C272 1.391 . S
C272 H249 0.947 1_556 S
C272 C271 1.391 . S
C272 C273 1.392 1_556 S
C273 H250 0.948 . S
C273 C272 1.392 1_554 S
C273 C274 1.419 1_554 S
C274 C273 1.419 1_556 S
C274 C275 1.391 . S
C274 C278 1.397 1_556 S
C275 C270 1.391 . S
C275 C274 1.391 . S
C275 C276 1.399 . S
C276 C275 1.399 . S
C276 C277 1.396 . S
C276 C279 1.453 . S
C276 C280 1.684 . S
C277 C267 1.723 . S
C277 C276 1.396 . S
C277 C278 1.394 1_556 S
C278 C248 1.723 . S
C278 C274 1.397 1_554 S
C278 C277 1.394 1_554 S
C279 H251 0.982 . S
C279 H255 0.979 . S
C279 H256 0.977 . S
C279 C276 1.453 . S
C280 H252 0.979 . S
C280 H253 0.980 . S
C280 H254 0.983 . S
C280 C276 1.684 . S
H281 C299 0.948 . S
H282 C240 0.948 . S
H283 C258 0.979 . S
H284 C258 0.980 . S
H285 C258 0.983 . S
H286 C257 0.982 . S
H287 C257 0.979 . S
H288 C257 0.977 . S
H289 C259 0.948 . S
H290 C261 0.947 . S
H291 C262 0.948 . S
H292 C268 0.982 . S
H293 C268 0.979 . S
H294 C268 0.977 . S
H295 C269 0.979 . S
H296 C269 0.980 . S
H297 C269 0.983 . S
H298 C242 0.947 . S
C299 C242 1.392 . S
C299 C243 1.419 . S
C299 H281 0.948 . S
C300 C301 1.391 . S
C300 C304 1.391 . S
C300 H342 0.948 . S
C301 C300 1.391 . S
C301 C302 1.391 . S
C302 C301 1.391 . S
C302 H358 0.947 . S
C302 C359 1.392 . S
C303 C304 1.391 . S
C303 C307 1.397 . S
C303 C359 1.419 . S
C304 C300 1.391 . S
C304 C303 1.391 . S
C304 C305 1.399 . S
C305 C304 1.399 . S
C305 C308 1.396 . S
C305 C317 1.453 . S
C305 C318 1.684 . S
H306 C330 0.948 . S
C307 C303 1.397 . S
C307 C308 1.394 . S
C307 C326 1.723 . S
C308 C305 1.396 . S
C308 C307 1.394 . S
C308 C338 1.723 . S
H309 C332 0.947 . S
H310 C333 0.948 . S
H311 C339 0.982 . S
H312 C340 0.979 . S
H313 C340 0.980 . S
H314 C340 0.983 . S
H315 C339 0.979 . S
H316 C339 0.977 . S
C317 C305 1.453 . S
C317 H346 0.982 . S
C317 H347 0.979 . S
C317 H348 0.977 . S
C318 C305 1.684 . S
C318 H343 0.979 . S
C318 H344 0.980 . S
C318 H345 0.983 . S
C319 C320 1.391 . S
C319 C324 1.391 . S
C319 H349 0.948 . S
C320 C319 1.391 . S
C320 C321 1.391 . S
C321 C320 1.391 . S
C321 C322 1.392 . S
C321 H350 0.947 . S
C322 C321 1.392 . S
C322 C323 1.419 . S
C322 H351 0.948 . S
C323 C322 1.419 . S
C323 C324 1.391 . S
C323 C327 1.397 . S
C324 C319 1.391 . S
C324 C323 1.391 . S
C324 C325 1.399 . S
C325 C324 1.399 . S
C325 C326 1.396 . S
C325 C328 1.453 . S
C325 C329 1.684 . S
C326 C307 1.723 . S
C326 C325 1.396 . S
C326 C327 1.394 . S
C327 C323 1.397 . S
C327 C326 1.394 . S
C327 C337 1.723 . S
C328 C325 1.453 . S
C328 H352 0.982 . S
C328 H353 0.979 . S
C328 H354 0.977 . S
C329 C325 1.684 . S
C329 H355 0.979 . S
C329 H356 0.980 . S
C329 H357 0.983 . S
C330 H306 0.948 . S
C330 C331 1.391 . S
C330 C335 1.391 . S
C331 C330 1.391 . S
C331 C332 1.391 . S
C332 H309 0.947 . S
C332 C331 1.391 . S
C332 C333 1.392 . S
C333 H310 0.948 . S
C333 C332 1.392 . S
C333 C334 1.419 . S
C334 C333 1.419 . S
C334 C335 1.391 . S
C334 C338 1.397 . S
C335 C330 1.391 . S
C335 C334 1.391 . S
C335 C336 1.399 . S
C336 C335 1.399 . S
C336 C337 1.396 . S
C336 C339 1.453 . S
C336 C340 1.684 . S
C337 C327 1.723 . S
C337 C336 1.396 . S
C337 C338 1.394 . S
C338 C308 1.723 . S
C338 C334 1.397 . S
C338 C337 1.394 . S
C339 H311 0.982 . S
C339 H315 0.979 . S
C339 H316 0.977 . S
C339 C336 1.453 . S
C340 H312 0.979 . S
C340 H313 0.980 . S
C340 H314 0.983 . S
C340 C336 1.684 . S
H341 C359 0.948 . S
H342 C300 0.948 . S
H343 C318 0.979 . S
H344 C318 0.980 . S
H345 C318 0.983 . S
H346 C317 0.982 . S
H347 C317 0.979 . S
H348 C317 0.977 . S
H349 C319 0.948 . S
H350 C321 0.947 . S
H351 C322 0.948 . S
H352 C328 0.982 . S
H353 C328 0.979 . S
H354 C328 0.977 . S
H355 C329 0.979 . S
H356 C329 0.980 . S
H357 C329 0.983 . S
H358 C302 0.947 . S
C359 C302 1.392 . S
C359 C303 1.419 . S
C359 H341 0.948 . S
C360 C361 1.391 . S
C360 C364 1.391 . S
C360 H402 0.948 . S
C361 C360 1.391 . S
C361 C362 1.391 . S
C362 C361 1.391 . S
C362 H418 0.947 . S
C362 C419 1.392 . S
C363 C364 1.391 . S
C363 C367 1.397 . S
C363 C419 1.419 . S
C364 C360 1.391 . S
C364 C363 1.391 . S
C364 C365 1.399 . S
C365 C364 1.399 . S
C365 C368 1.396 . S
C365 C377 1.453 . S
C365 C378 1.684 . S
H366 C390 0.948 . S
C367 C363 1.397 . S
C367 C368 1.394 . S
C367 C386 1.723 1_556 S
C368 C365 1.396 . S
C368 C367 1.394 . S
C368 C398 1.723 . S
H369 C392 0.947 . S
H370 C393 0.948 . S
H371 C399 0.982 . S
H372 C400 0.979 . S
H373 C400 0.980 . S
H374 C400 0.983 . S
H375 C399 0.979 . S
H376 C399 0.977 . S
C377 C365 1.453 . S
C377 H406 0.982 . S
C377 H407 0.979 . S
C377 H408 0.977 . S
C378 C365 1.684 . S
C378 H403 0.979 . S
C378 H404 0.980 . S
C378 H405 0.983 . S
C379 C380 1.391 . S
C379 C384 1.391 . S
C379 H409 0.948 . S
C380 C379 1.391 . S
C380 C381 1.391 . S
C381 C380 1.391 . S
C381 C382 1.392 . S
C381 H410 0.947 . S
C382 C381 1.392 . S
C382 C383 1.419 . S
C382 H411 0.948 . S
C383 C382 1.419 . S
C383 C384 1.391 . S
C383 C387 1.397 . S
C384 C379 1.391 . S
C384 C383 1.391 . S
C384 C385 1.399 . S
C385 C384 1.399 . S
C385 C386 1.396 . S
C385 C388 1.453 . S
C385 C389 1.684 . S
C386 C367 1.723 1_554 S
C386 C385 1.396 . S
C386 C387 1.394 . S
C387 C383 1.397 . S
C387 C386 1.394 . S
C387 C397 1.723 . S
C388 C385 1.453 . S
C388 H412 0.982 . S
C388 H413 0.979 . S
C388 H414 0.977 . S
C389 C385 1.684 . S
C389 H415 0.979 . S
C389 H416 0.980 . S
C389 H417 0.983 . S
C390 H366 0.948 . S
C390 C391 1.391 . S
C390 C395 1.391 . S
C391 C390 1.391 . S
C391 C392 1.391 . S
C392 H369 0.947 . S
C392 C391 1.391 . S
C392 C393 1.392 . S
C393 H370 0.948 . S
C393 C392 1.392 . S
C393 C394 1.419 . S
C394 C393 1.419 . S
C394 C395 1.391 . S
C394 C398 1.397 . S
C395 C390 1.391 . S
C395 C394 1.391 . S
C395 C396 1.399 1_556 S
C396 C395 1.399 1_554 S
C396 C397 1.396 . S
C396 C399 1.453 . S
C396 C400 1.684 . S
C397 C387 1.723 . S
C397 C396 1.396 . S
C397 C398 1.394 1_554 S
C398 C368 1.723 . S
C398 C394 1.397 . S
C398 C397 1.394 1_556 S
C399 H371 0.982 . S
C399 H375 0.979 . S
C399 H376 0.977 . S
C399 C396 1.453 . S
C400 H372 0.979 . S
C400 H373 0.980 . S
C400 H374 0.983 . S
C400 C396 1.684 . S
H401 C419 0.948 1_554 S
H402 C360 0.948 . S
H403 C378 0.979 . S
H404 C378 0.980 . S
H405 C378 0.983 . S
H406 C377 0.982 . S
H407 C377 0.979 . S
H408 C377 0.977 . S
H409 C379 0.948 . S
H410 C381 0.947 . S
H411 C382 0.948 . S
H412 C388 0.982 . S
H413 C388 0.979 . S
H414 C388 0.977 . S
H415 C389 0.979 . S
H416 C389 0.980 . S
H417 C389 0.983 . S
H418 C362 0.947 . S
C419 C362 1.392 . S
C419 C363 1.419 . S
C419 H401 0.948 1_556 S
C420 C421 1.391 . S
C420 C424 1.391 . S
C420 H462 0.948 . S
C421 C420 1.391 . S
C421 C422 1.391 . S
C422 C421 1.391 . S
C422 H478 0.947 . S
C422 C479 1.392 . S
C423 C424 1.391 . S
C423 C427 1.397 . S
C423 C479 1.419 . S
C424 C420 1.391 . S
C424 C423 1.391 . S
C424 C425 1.399 . S
C425 C424 1.399 . S
C425 C428 1.396 . S
C425 C437 1.453 . S
C425 C438 1.684 . S
H426 C450 0.948 . S
C427 C423 1.397 . S
C427 C428 1.394 . S
C427 C446 1.723 . S
C428 C425 1.396 . S
C428 C427 1.394 . S
C428 C458 1.723 . S
H429 C452 0.947 . S
H430 C453 0.948 . S
H431 C459 0.982 . S
H432 C460 0.979 . S
H433 C460 0.980 . S
H434 C460 0.983 . S
H435 C459 0.979 . S
H436 C459 0.977 . S
C437 C425 1.453 . S
C437 H466 0.982 . S
C437 H467 0.979 . S
C437 H468 0.977 . S
C438 C425 1.684 . S
C438 H463 0.979 . S
C438 H464 0.980 . S
C438 H465 0.983 . S
C439 C440 1.391 . S
C439 C444 1.391 . S
C439 H469 0.948 . S
C440 C439 1.391 . S
C440 C441 1.391 . S
C441 C440 1.391 . S
C441 C442 1.392 . S
C441 H470 0.947 . S
C442 C441 1.392 . S
C442 C443 1.419 . S
C442 H471 0.948 . S
C443 C442 1.419 . S
C443 C444 1.391 . S
C443 C447 1.397 . S
C444 C439 1.391 . S
C444 C443 1.391 . S
C444 C445 1.399 . S
C445 C444 1.399 . S
C445 C446 1.396 . S
C445 C448 1.453 . S
C445 C449 1.684 . S
C446 C427 1.723 . S
C446 C445 1.396 . S
C446 C447 1.394 . S
C447 C443 1.397 . S
C447 C446 1.394 . S
C447 C457 1.723 . S
C448 C445 1.453 . S
C448 H472 0.982 . S
C448 H473 0.979 . S
C448 H474 0.977 . S
C449 C445 1.684 . S
C449 H475 0.979 . S
C449 H476 0.980 . S
C449 H477 0.983 . S
C450 H426 0.948 . S
C450 C451 1.391 . S
C450 C455 1.391 . S
C451 C450 1.391 . S
C451 C452 1.391 . S
C452 H429 0.947 . S
C452 C451 1.391 . S
C452 C453 1.392 . S
C453 H430 0.948 . S
C453 C452 1.392 . S
C453 C454 1.419 . S
C454 C453 1.419 . S
C454 C455 1.391 . S
C454 C458 1.397 . S
C455 C450 1.391 . S
C455 C454 1.391 . S
C455 C456 1.399 . S
C456 C455 1.399 . S
C456 C457 1.396 . S
C456 C459 1.453 . S
C456 C460 1.684 . S
C457 C447 1.723 . S
C457 C456 1.396 . S
C457 C458 1.394 . S
C458 C428 1.723 . S
C458 C454 1.397 . S
C458 C457 1.394 . S
C459 H431 0.982 . S
C459 H435 0.979 . S
C459 H436 0.977 . S
C459 C456 1.453 . S
C460 H432 0.979 . S
C460 H433 0.980 . S
C460 H434 0.983 . S
C460 C456 1.684 . S
H461 C479 0.948 . S
H462 C420 0.948 . S
H463 C438 0.979 . S
H464 C438 0.980 . S
H465 C438 0.983 . S
H466 C437 0.982 . S
H467 C437 0.979 . S
H468 C437 0.977 . S
H469 C439 0.948 . S
H470 C441 0.947 . S
H471 C442 0.948 . S
H472 C448 0.982 . S
H473 C448 0.979 . S
H474 C448 0.977 . S
H475 C449 0.979 . S
H476 C449 0.980 . S
H477 C449 0.983 . S
H478 C422 0.947 . S
C479 C422 1.392 . S
C479 C423 1.419 . S
C479 H461 0.948 . S
Fe480 O482 1.918 . S
Fe480 O485 1.997 1_455 S
Fe480 O486 2.002 1_455 S
Fe480 O491 1.976 . S
Fe480 O494 1.996 . S
Fe481 O482 1.918 . S
Fe481 O489 1.997 1_455 S
Fe481 O492 1.996 . S
Fe481 O496 1.976 . S
Fe481 O499 2.002 1_455 S
O482 Fe480 1.918 . S
O482 Fe481 1.918 . S
O482 Fe483 1.918 . S
Fe483 O482 1.918 . S
Fe483 O484 2.002 1_455 S
Fe483 O493 1.976 . S
Fe483 O497 1.996 . S
Fe483 O500 1.997 1_455 S
O484 Fe483 2.002 1_655 S
O484 C501 1.295 . S
O485 Fe480 1.997 1_655 S
O485 C501 1.235 . S
O486 Fe480 2.002 1_655 S
O486 C487 1.295 . S
C487 O486 1.295 . S
C487 O489 1.235 . S
C488 O493 1.287 . S
C488 O494 1.255 . S
O489 Fe481 1.997 1_655 S
O489 C487 1.235 . S
C490 O496 1.287 . S
C490 O497 1.255 . S
O491 Fe480 1.976 . S
O491 C498 1.287 . S
O492 Fe481 1.996 . S
O492 C498 1.255 . S
O493 Fe483 1.976 . S
O493 C488 1.287 . S
O494 Fe480 1.996 . S
O494 C488 1.255 . S
C495 O499 1.295 . S
C495 O500 1.235 . S
O496 Fe481 1.976 . S
O496 C490 1.287 . S
O497 Fe483 1.996 . S
O497 C490 1.255 . S
C498 O491 1.287 . S
C498 O492 1.255 . S
O499 Fe481 2.002 1_655 S
O499 C495 1.295 . S
O500 Fe483 1.997 1_655 S
O500 C495 1.235 . S
C501 O484 1.295 . S
C501 O485 1.235 . S
Fe502 O504 1.919 . S
Fe502 O507 1.976 1_655 S
Fe502 O508 1.981 1_655 S
Fe502 O513 1.997 . S
Fe502 O516 2.016 . S
Fe503 O504 1.919 . S
Fe503 O511 1.976 1_655 S
Fe503 O514 2.016 . S
Fe503 O518 1.997 . S
Fe503 O521 1.981 1_655 S
O504 Fe502 1.919 . S
O504 Fe503 1.919 . S
O504 Fe505 1.919 . S
Fe505 O504 1.919 . S
Fe505 O506 1.982 1_655 S
Fe505 O515 1.996 . S
Fe505 O519 2.016 . S
Fe505 O522 1.976 1_655 S
O506 Fe505 1.982 1_455 S
O506 C523 1.295 . S
O507 Fe502 1.976 1_455 S
O507 C523 1.235 . S
O508 Fe502 1.981 1_455 S
O508 C509 1.295 . S
C509 O508 1.295 . S
C509 O511 1.235 . S
C510 O515 1.287 . S
C510 O516 1.255 . S
O511 Fe503 1.976 1_455 S
O511 C509 1.235 . S
C512 O518 1.287 . S
C512 O519 1.255 . S
O513 Fe502 1.997 . S
O513 C520 1.287 . S
O514 Fe503 2.016 . S
O514 C520 1.255 . S
O515 Fe505 1.996 . S
O515 C510 1.287 . S
O516 Fe502 2.016 . S
O516 C510 1.255 . S
C517 O521 1.295 . S
C517 O522 1.235 . S
O518 Fe503 1.997 . S
O518 C512 1.287 . S
O519 Fe505 2.016 . S
O519 C512 1.255 . S
C520 O513 1.287 . S
C520 O514 1.255 . S
O521 Fe503 1.981 1_455 S
O521 C517 1.295 . S
O522 Fe505 1.976 1_455 S
O522 C517 1.235 . S
C523 O506 1.295 . S
C523 O507 1.235 . S
Fe524 O526 1.918 . S
Fe524 O529 1.997 . S
Fe524 O530 2.002 . S
Fe524 O535 1.976 . S
Fe524 O538 1.996 . S
Fe525 O526 1.918 . S
Fe525 O533 1.997 . S
Fe525 O536 1.996 . S
Fe525 O540 1.976 . S
Fe525 O543 2.002 . S
O526 Fe524 1.918 . S
O526 Fe525 1.918 . S
O526 Fe527 1.918 . S
Fe527 O526 1.918 . S
Fe527 O528 2.002 . S
Fe527 O537 1.976 . S
Fe527 O541 1.996 . S
Fe527 O544 1.997 . S
O528 Fe527 2.002 . S
O528 C545 1.295 . S
O529 Fe524 1.997 . S
O529 C545 1.235 . S
O530 Fe524 2.002 . S
O530 C531 1.295 . S
C531 O530 1.295 . S
C531 O533 1.235 . S
C532 O537 1.287 . S
C532 O538 1.255 . S
O533 Fe525 1.997 . S
O533 C531 1.235 . S
C534 O540 1.287 . S
C534 O541 1.255 . S
O535 Fe524 1.976 . S
O535 C542 1.287 . S
O536 Fe525 1.996 . S
O536 C542 1.255 . S
O537 Fe527 1.976 . S
O537 C532 1.287 . S
O538 Fe524 1.996 . S
O538 C532 1.255 . S
C539 O543 1.295 . S
C539 O544 1.235 . S
O540 Fe525 1.976 . S
O540 C534 1.287 . S
O541 Fe527 1.996 . S
O541 C534 1.255 . S
C542 O535 1.287 . S
C542 O536 1.255 . S
O543 Fe525 2.002 . S
O543 C539 1.295 . S
O544 Fe527 1.997 . S
O544 C539 1.235 . S
C545 O528 1.295 . S
C545 O529 1.235 . S
Fe546 O548 1.918 . S
Fe546 O551 1.997 . S
Fe546 O552 2.002 . S
Fe546 O557 1.976 . S
Fe546 O560 1.996 . S
Fe547 O548 1.918 . S
Fe547 O555 1.997 . S
Fe547 O558 1.996 . S
Fe547 O562 1.976 . S
Fe547 O565 2.002 . S
O548 Fe546 1.918 . S
O548 Fe547 1.918 . S
O548 Fe549 1.918 . S
Fe549 O548 1.918 . S
Fe549 O550 2.002 . S
Fe549 O559 1.976 . S
Fe549 O563 1.996 . S
Fe549 O566 1.997 . S
O550 Fe549 2.002 . S
O550 C567 1.295 . S
O551 Fe546 1.997 . S
O551 C567 1.235 . S
O552 Fe546 2.002 . S
O552 C553 1.295 . S
C553 O552 1.295 . S
C553 O555 1.235 . S
C554 O559 1.287 . S
C554 O560 1.255 . S
O555 Fe547 1.997 . S
O555 C553 1.235 . S
C556 O562 1.287 . S
C556 O563 1.255 . S
O557 Fe546 1.976 . S
O557 C564 1.287 . S
O558 Fe547 1.996 . S
O558 C564 1.255 . S
O559 Fe549 1.976 . S
O559 C554 1.287 . S
O560 Fe546 1.996 . S
O560 C554 1.255 . S
C561 O565 1.295 . S
C561 O566 1.235 . S
O562 Fe547 1.976 . S
O562 C556 1.287 . S
O563 Fe549 1.996 . S
O563 C556 1.255 . S
C564 O557 1.287 . S
C564 O558 1.255 . S
O565 Fe547 2.002 . S
O565 C561 1.295 . S
O566 Fe549 1.997 . S
O566 C561 1.235 . S
C567 O550 1.295 . S
C567 O551 1.235 . S
H568 C580 0.930 . S
H569 C582 0.930 . S
H570 C583 0.930 . S
H571 C587 0.959 . S
H572 C587 0.959 . S
H573 C587 0.961 . S
H574 C588 0.960 . S
H575 C588 0.961 . S
H576 C588 0.959 . S
H577 C591 0.929 . S
H578 C592 0.931 . S
H579 C594 0.930 . S
C580 H568 0.930 . S
C580 C581 1.399 . S
C580 C585 1.399 . S
C581 C580 1.399 . S
C581 C582 1.376 . S
C582 H569 0.930 . S
C582 C581 1.376 . S
C582 C583 1.388 . S
C583 H570 0.930 . S
C583 C582 1.388 . S
C583 C584 1.390 . S
C584 C583 1.390 . S
C584 C585 1.394 . S
C584 C590 1.465 . S
C585 C580 1.399 . S
C585 C584 1.394 . S
C585 C586 1.516 . S
C586 C585 1.516 . S
C586 C587 1.502 . S
C586 C588 1.561 . S
C586 C589 1.526 . S
C587 H571 0.959 . S
C587 H572 0.959 . S
C587 H573 0.961 . S
C587 C586 1.502 . S
C588 H574 0.960 . S
C588 H575 0.961 . S
C588 H576 0.959 . S
C588 C586 1.561 . S
C589 C586 1.526 . S
C589 C590 1.396 . S
C589 C594 1.390 . S
C590 C584 1.465 . S
C590 C589 1.396 . S
C590 C591 1.399 . S
C591 H577 0.929 . S
C591 C590 1.399 . S
C591 C592 1.385 . S
C592 H578 0.931 . S
C592 C591 1.385 . S
C592 C593 1.389 . S
C593 C592 1.389 . S
C593 C594 1.387 . S
C594 H579 0.930 . S
C594 C589 1.390 . S
C594 C593 1.387 . S
H595 C607 0.930 . S
H596 C609 0.930 . S
H597 C610 0.930 . S
H598 C614 0.959 . S
H599 C614 0.959 . S
H600 C614 0.961 . S
H601 C615 0.960 . S
H602 C615 0.961 . S
H603 C615 0.959 . S
H604 C618 0.929 . S
H605 C619 0.931 . S
H606 C621 0.930 . S
C607 H595 0.930 . S
C607 C608 1.399 . S
C607 C612 1.399 . S
C608 C607 1.399 . S
C608 C609 1.376 . S
C609 H596 0.930 . S
C609 C608 1.376 . S
C609 C610 1.388 . S
C610 H597 0.930 . S
C610 C609 1.388 . S
C610 C611 1.390 . S
C611 C610 1.390 . S
C611 C612 1.394 . S
C611 C617 1.465 . S
C612 C607 1.399 . S
C612 C611 1.394 . S
C612 C613 1.516 . S
C613 C612 1.516 . S
C613 C614 1.502 . S
C613 C615 1.561 . S
C613 C616 1.526 . S
C614 H598 0.959 . S
C614 H599 0.959 . S
C614 H600 0.961 . S
C614 C613 1.502 . S
C615 H601 0.960 . S
C615 H602 0.961 . S
C615 H603 0.959 . S
C615 C613 1.561 . S
C616 C613 1.526 . S
C616 C617 1.396 . S
C616 C621 1.390 . S
C617 C611 1.465 . S
C617 C616 1.396 . S
C617 C618 1.399 . S
C618 H604 0.929 . S
C618 C617 1.399 . S
C618 C619 1.385 . S
C619 H605 0.931 . S
C619 C618 1.385 . S
C619 C620 1.389 . S
C620 C619 1.389 . S
C620 C621 1.387 . S
C621 H606 0.930 . S
C621 C616 1.390 . S
C621 C620 1.387 . S
H622 C634 0.930 . S
H623 C636 0.930 . S
H624 C637 0.930 . S
H625 C641 0.959 . S
H626 C641 0.959 . S
H627 C641 0.961 . S
H628 C642 0.960 . S
H629 C642 0.961 . S
H630 C642 0.959 . S
H631 C645 0.929 . S
H632 C646 0.931 . S
H633 C648 0.930 . S
C634 H622 0.930 . S
C634 C635 1.399 . S
C634 C639 1.399 . S
C635 C634 1.399 . S
C635 C636 1.376 . S
C636 H623 0.930 . S
C636 C635 1.376 . S
C636 C637 1.388 . S
C637 H624 0.930 . S
C637 C636 1.388 . S
C637 C638 1.390 . S
C638 C637 1.390 . S
C638 C639 1.394 . S
C638 C644 1.465 . S
C639 C634 1.399 . S
C639 C638 1.394 . S
C639 C640 1.516 . S
C640 C639 1.516 . S
C640 C641 1.502 . S
C640 C642 1.561 . S
C640 C643 1.526 . S
C641 H625 0.959 . S
C641 H626 0.959 . S
C641 H627 0.961 . S
C641 C640 1.502 . S
C642 H628 0.960 . S
C642 H629 0.961 . S
C642 H630 0.959 . S
C642 C640 1.561 . S
C643 C640 1.526 . S
C643 C644 1.396 . S
C643 C648 1.390 . S
C644 C638 1.465 . S
C644 C643 1.396 . S
C644 C645 1.399 . S
C645 H631 0.929 . S
C645 C644 1.399 . S
C645 C646 1.385 . S
C646 H632 0.931 . S
C646 C645 1.385 . S
C646 C647 1.389 . S
C647 C646 1.389 . S
C647 C648 1.387 . S
C648 H633 0.930 . S
C648 C643 1.390 . S
C648 C647 1.387 . S
H649 C661 0.930 . S
H650 C663 0.930 . S
H651 C664 0.930 . S
H652 C668 0.959 . S
H653 C668 0.959 . S
H654 C668 0.961 . S
H655 C669 0.960 . S
H656 C669 0.961 . S
H657 C669 0.959 . S
H658 C672 0.929 . S
H659 C673 0.931 . S
H660 C675 0.930 . S
C661 H649 0.930 . S
C661 C662 1.399 . S
C661 C666 1.399 . S
C662 C661 1.399 . S
C662 C663 1.376 . S
C663 H650 0.930 . S
C663 C662 1.376 . S
C663 C664 1.388 . S
C664 H651 0.930 . S
C664 C663 1.388 . S
C664 C665 1.390 . S
C665 C664 1.390 . S
C665 C666 1.394 . S
C665 C671 1.465 . S
C666 C661 1.399 . S
C666 C665 1.394 . S
C666 C667 1.516 . S
C667 C666 1.516 . S
C667 C668 1.502 . S
C667 C669 1.561 . S
C667 C670 1.526 . S
C668 H652 0.959 . S
C668 H653 0.959 . S
C668 H654 0.961 . S
C668 C667 1.502 . S
C669 H655 0.960 . S
C669 H656 0.961 . S
C669 H657 0.959 . S
C669 C667 1.561 . S
C670 C667 1.526 . S
C670 C671 1.396 . S
C670 C675 1.390 . S
C671 C665 1.465 . S
C671 C670 1.396 . S
C671 C672 1.399 . S
C672 H658 0.929 . S
C672 C671 1.399 . S
C672 C673 1.385 . S
C673 H659 0.931 . S
C673 C672 1.385 . S
C673 C674 1.389 . S
C674 C673 1.389 . S
C674 C675 1.387 . S
C675 H660 0.930 . S
C675 C670 1.390 . S
C675 C674 1.387 . S
H676 C688 0.930 . S
H677 C690 0.930 . S
H678 C691 0.930 . S
H679 C695 0.959 . S
H680 C695 0.959 . S
H681 C695 0.961 . S
H682 C696 0.960 . S
H683 C696 0.961 . S
H684 C696 0.959 . S
H685 C699 0.929 . S
H686 C700 0.931 . S
H687 C702 0.930 . S
C688 H676 0.930 . S
C688 C689 1.399 . S
C688 C693 1.399 . S
C689 C688 1.399 . S
C689 C690 1.376 . S
C690 H677 0.930 . S
C690 C689 1.376 . S
C690 C691 1.388 . S
C691 H678 0.930 . S
C691 C690 1.388 . S
C691 C692 1.390 . S
C692 C691 1.390 . S
C692 C693 1.394 . S
C692 C698 1.465 . S
C693 C688 1.399 . S
C693 C692 1.394 . S
C693 C694 1.516 . S
C694 C693 1.516 . S
C694 C695 1.502 . S
C694 C696 1.561 . S
C694 C697 1.526 . S
C695 H679 0.959 . S
C695 H680 0.959 . S
C695 H681 0.961 . S
C695 C694 1.502 . S
C696 H682 0.960 . S
C696 H683 0.961 . S
C696 H684 0.959 . S
C696 C694 1.561 . S
C697 C694 1.526 . S
C697 C698 1.396 . S
C697 C702 1.390 . S
C698 C692 1.465 . S
C698 C697 1.396 . S
C698 C699 1.399 . S
C699 H685 0.929 . S
C699 C698 1.399 . S
C699 C700 1.385 . S
C700 H686 0.931 . S
C700 C699 1.385 . S
C700 C701 1.389 . S
C701 C700 1.389 . S
C701 C702 1.387 . S
C702 H687 0.930 . S
C702 C697 1.390 . S
C702 C701 1.387 . S
H703 C715 0.930 . S
H704 C717 0.930 . S
H705 C718 0.930 . S
H706 C722 0.959 . S
H707 C722 0.959 . S
H708 C722 0.961 . S
H709 C723 0.960 . S
H710 C723 0.961 . S
H711 C723 0.959 . S
H712 C726 0.929 . S
H713 C727 0.931 . S
H714 C729 0.930 . S
C715 H703 0.930 . S
C715 C716 1.399 . S
C715 C720 1.399 . S
C716 C715 1.399 . S
C716 C717 1.376 . S
C717 H704 0.930 . S
C717 C716 1.376 . S
C717 C718 1.388 . S
C718 H705 0.930 . S
C718 C717 1.388 . S
C718 C719 1.390 . S
C719 C718 1.390 . S
C719 C720 1.394 . S
C719 C725 1.465 . S
C720 C715 1.399 . S
C720 C719 1.394 . S
C720 C721 1.516 . S
C721 C720 1.516 . S
C721 C722 1.502 . S
C721 C723 1.561 . S
C721 C724 1.526 . S
C722 H706 0.959 . S
C722 H707 0.959 . S
C722 H708 0.961 . S
C722 C721 1.502 . S
C723 H709 0.960 . S
C723 H710 0.961 . S
C723 H711 0.959 . S
C723 C721 1.561 . S
C724 C721 1.526 . S
C724 C725 1.396 . S
C724 C729 1.390 . S
C725 C719 1.465 . S
C725 C724 1.396 . S
C725 C726 1.399 . S
C726 H712 0.929 . S
C726 C725 1.399 . S
C726 C727 1.385 . S
C727 H713 0.931 . S
C727 C726 1.385 . S
C727 C728 1.389 . S
C728 C727 1.389 . S
C728 C729 1.387 . S
C729 H714 0.930 . S
C729 C724 1.390 . S
C729 C728 1.387 . S
H730 C742 0.930 . S
H731 C744 0.930 . S
H732 C745 0.930 . S
H733 C749 0.959 . S
H734 C749 0.959 . S
H735 C749 0.961 . S
H736 C750 0.960 . S
H737 C750 0.961 . S
H738 C750 0.959 . S
H739 C753 0.929 . S
H740 C754 0.931 . S
H741 C756 0.930 . S
C742 H730 0.930 . S
C742 C743 1.399 . S
C742 C747 1.399 . S
C743 C742 1.399 . S
C743 C744 1.376 . S
C744 H731 0.930 . S
C744 C743 1.376 . S
C744 C745 1.388 . S
C745 H732 0.930 . S
C745 C744 1.388 . S
C745 C746 1.390 . S
C746 C745 1.390 . S
C746 C747 1.394 . S
C746 C752 1.465 . S
C747 C742 1.399 . S
C747 C746 1.394 . S
C747 C748 1.516 . S
C748 C747 1.516 . S
C748 C749 1.502 . S
C748 C750 1.561 . S
C748 C751 1.526 . S
C749 H733 0.959 . S
C749 H734 0.959 . S
C749 H735 0.961 . S
C749 C748 1.502 . S
C750 H736 0.960 . S
C750 H737 0.961 . S
C750 H738 0.959 . S
C750 C748 1.561 . S
C751 C748 1.526 . S
C751 C752 1.396 . S
C751 C756 1.390 . S
C752 C746 1.465 . S
C752 C751 1.396 . S
C752 C753 1.399 . S
C753 H739 0.929 . S
C753 C752 1.399 . S
C753 C754 1.385 . S
C754 H740 0.931 . S
C754 C753 1.385 . S
C754 C755 1.389 . S
C755 C754 1.389 . S
C755 C756 1.387 . S
C756 H741 0.930 . S
C756 C751 1.390 . S
C756 C755 1.387 . S
H757 C769 0.930 . S
H758 C771 0.930 . S
H759 C772 0.930 . S
H760 C776 0.959 . S
H761 C776 0.959 . S
H762 C776 0.961 . S
H763 C777 0.960 . S
H764 C777 0.961 . S
H765 C777 0.959 . S
H766 C780 0.929 . S
H767 C781 0.931 . S
H768 C783 0.930 . S
C769 H757 0.930 . S
C769 C770 1.399 . S
C769 C774 1.399 . S
C770 C769 1.399 . S
C770 C771 1.376 . S
C771 H758 0.930 . S
C771 C770 1.376 . S
C771 C772 1.388 . S
C772 H759 0.930 . S
C772 C771 1.388 . S
C772 C773 1.390 . S
C773 C772 1.390 . S
C773 C774 1.394 . S
C773 C779 1.465 . S
C774 C769 1.399 . S
C774 C773 1.394 . S
C774 C775 1.516 . S
C775 C774 1.516 . S
C775 C776 1.502 . S
C775 C777 1.561 . S
C775 C778 1.526 . S
C776 H760 0.959 . S
C776 H761 0.959 . S
C776 H762 0.961 . S
C776 C775 1.502 . S
C777 H763 0.960 . S
C777 H764 0.961 . S
C777 H765 0.959 . S
C777 C775 1.561 . S
C778 C775 1.526 . S
C778 C779 1.396 . S
C778 C783 1.390 . S
C779 C773 1.465 . S
C779 C778 1.396 . S
C779 C780 1.399 . S
C780 H766 0.929 . S
C780 C779 1.399 . S
C780 C781 1.385 . S
C781 H767 0.931 . S
C781 C780 1.385 . S
C781 C782 1.389 . S
C782 C781 1.389 . S
C782 C783 1.387 . S
C783 H768 0.930 . S
C783 C778 1.390 . S
C783 C782 1.387 . S
H784 C796 0.930 . S
H785 C798 0.930 . S
H786 C799 0.930 . S
H787 C803 0.959 . S
H788 C803 0.959 . S
H789 C803 0.961 . S
H790 C804 0.960 . S
H791 C804 0.961 . S
H792 C804 0.959 . S
H793 C807 0.929 . S
H794 C808 0.931 . S
H795 C810 0.930 . S
C796 H784 0.930 . S
C796 C797 1.399 . S
C796 C801 1.399 . S
C797 C796 1.399 . S
C797 C798 1.376 . S
C798 H785 0.930 . S
C798 C797 1.376 . S
C798 C799 1.388 . S
C799 H786 0.930 . S
C799 C798 1.388 . S
C799 C800 1.390 . S
C800 C799 1.390 . S
C800 C801 1.394 . S
C800 C806 1.465 . S
C801 C796 1.399 . S
C801 C800 1.394 . S
C801 C802 1.516 . S
C802 C801 1.516 . S
C802 C803 1.502 . S
C802 C804 1.561 . S
C802 C805 1.526 . S
C803 H787 0.959 . S
C803 H788 0.959 . S
C803 H789 0.961 . S
C803 C802 1.502 . S
C804 H790 0.960 . S
C804 H791 0.961 . S
C804 H792 0.959 . S
C804 C802 1.561 . S
C805 C802 1.526 . S
C805 C806 1.396 . S
C805 C810 1.390 . S
C806 C800 1.465 . S
C806 C805 1.396 . S
C806 C807 1.399 . S
C807 H793 0.929 . S
C807 C806 1.399 . S
C807 C808 1.385 . S
C808 H794 0.931 . S
C808 C807 1.385 . S
C808 C809 1.389 . S
C809 C808 1.389 . S
C809 C810 1.387 . S
C810 H795 0.930 . S
C810 C805 1.390 . S
C810 C809 1.387 . S
H811 C823 0.930 . S
H812 C825 0.930 . S
H813 C826 0.930 . S
H814 C830 0.959 . S
H815 C830 0.959 . S
H816 C830 0.961 . S
H817 C831 0.960 . S
H818 C831 0.961 . S
H819 C831 0.959 . S
H820 C834 0.929 . S
H821 C835 0.931 . S
H822 C837 0.930 . S
C823 H811 0.930 . S
C823 C824 1.399 . S
C823 C828 1.399 . S
C824 C823 1.399 . S
C824 C825 1.376 . S
C825 H812 0.930 . S
C825 C824 1.376 . S
C825 C826 1.388 . S
C826 H813 0.930 . S
C826 C825 1.388 . S
C826 C827 1.390 . S
C827 C826 1.390 . S
C827 C828 1.394 . S
C827 C833 1.465 . S
C828 C823 1.399 . S
C828 C827 1.394 . S
C828 C829 1.516 . S
C829 C828 1.516 . S
C829 C830 1.502 . S
C829 C831 1.561 . S
C829 C832 1.526 . S
C830 H814 0.959 . S
C830 H815 0.959 . S
C830 H816 0.961 . S
C830 C829 1.502 . S
C831 H817 0.960 . S
C831 H818 0.961 . S
C831 H819 0.959 . S
C831 C829 1.561 . S
C832 C829 1.526 . S
C832 C833 1.396 . S
C832 C837 1.390 . S
C833 C827 1.465 . S
C833 C832 1.396 . S
C833 C834 1.399 . S
C834 H820 0.929 . S
C834 C833 1.399 . S
C834 C835 1.385 . S
C835 H821 0.931 . S
C835 C834 1.385 . S
C835 C836 1.389 . S
C836 C835 1.389 . S
C836 C837 1.387 . S
C837 H822 0.930 . S
C837 C832 1.390 . S
C837 C836 1.387 . S
H838 C850 0.930 . S
H839 C852 0.930 . S
H840 C853 0.930 . S
H841 C857 0.959 . S
H842 C857 0.959 . S
H843 C857 0.961 . S
H844 C858 0.960 . S
H845 C858 0.961 . S
H846 C858 0.959 . S
H847 C861 0.929 . S
H848 C862 0.931 . S
H849 C864 0.930 . S
C850 H838 0.930 . S
C850 C851 1.399 . S
C850 C855 1.399 . S
C851 C850 1.399 . S
C851 C852 1.376 . S
C852 H839 0.930 . S
C852 C851 1.376 . S
C852 C853 1.388 . S
C853 H840 0.930 . S
C853 C852 1.388 . S
C853 C854 1.390 . S
C854 C853 1.390 . S
C854 C855 1.394 . S
C854 C860 1.465 . S
C855 C850 1.399 . S
C855 C854 1.394 . S
C855 C856 1.516 . S
C856 C855 1.516 . S
C856 C857 1.502 . S
C856 C858 1.561 . S
C856 C859 1.526 . S
C857 H841 0.959 . S
C857 H842 0.959 . S
C857 H843 0.961 . S
C857 C856 1.502 . S
C858 H844 0.960 . S
C858 H845 0.961 . S
C858 H846 0.959 . S
C858 C856 1.561 . S
C859 C856 1.526 . S
C859 C860 1.396 . S
C859 C864 1.390 . S
C860 C854 1.465 . S
C860 C859 1.396 . S
C860 C861 1.399 . S
C861 H847 0.929 . S
C861 C860 1.399 . S
C861 C862 1.385 . S
C862 H848 0.931 . S
C862 C861 1.385 . S
C862 C863 1.389 . S
C863 C862 1.389 . S
C863 C864 1.387 . S
C864 H849 0.930 . S
C864 C859 1.390 . S
C864 C863 1.387 . S
H865 C877 0.930 . S
H866 C879 0.930 . S
H867 C880 0.930 . S
H868 C884 0.959 . S
H869 C884 0.959 . S
H870 C884 0.961 . S
H871 C885 0.960 . S
H872 C885 0.961 . S
H873 C885 0.959 . S
H874 C888 0.929 . S
H875 C889 0.931 . S
H876 C891 0.930 . S
C877 H865 0.930 . S
C877 C878 1.399 . S
C877 C882 1.399 . S
C878 C877 1.399 . S
C878 C879 1.376 . S
C879 H866 0.930 . S
C879 C878 1.376 . S
C879 C880 1.388 . S
C880 H867 0.930 . S
C880 C879 1.388 . S
C880 C881 1.390 . S
C881 C880 1.390 . S
C881 C882 1.394 . S
C881 C887 1.465 . S
C882 C877 1.399 . S
C882 C881 1.394 . S
C882 C883 1.516 . S
C883 C882 1.516 . S
C883 C884 1.502 . S
C883 C885 1.561 . S
C883 C886 1.526 . S
C884 H868 0.959 . S
C884 H869 0.959 . S
C884 H870 0.961 . S
C884 C883 1.502 . S
C885 H871 0.960 . S
C885 H872 0.961 . S
C885 H873 0.959 . S
C885 C883 1.561 . S
C886 C883 1.526 . S
C886 C887 1.396 . S
C886 C891 1.390 . S
C887 C881 1.465 . S
C887 C886 1.396 . S
C887 C888 1.399 . S
C888 H874 0.929 . S
C888 C887 1.399 . S
C888 C889 1.385 . S
C889 H875 0.931 . S
C889 C888 1.385 . S
C889 C890 1.389 . S
C890 C889 1.389 . S
C890 C891 1.387 . S
C891 H876 0.930 . S
C891 C886 1.390 . S
C891 C890 1.387 . S
H892 C904 0.930 1_565 S
H893 C906 0.930 . S
H894 C907 0.930 . S
H895 C911 0.959 . S
H896 C911 0.959 . S
H897 C911 0.961 1_565 S
H898 C912 0.960 1_565 S
H899 C912 0.961 . S
H900 C912 0.959 . S
H901 C915 0.929 . S
H902 C916 0.931 . S
H903 C918 0.930 . S
C904 H892 0.930 1_545 S
C904 C905 1.399 . S
C904 C909 1.399 . S
C905 C904 1.399 . S
C905 C906 1.376 . S
C906 H893 0.930 . S
C906 C905 1.376 . S
C906 C907 1.388 . S
C907 H894 0.930 . S
C907 C906 1.388 . S
C907 C908 1.390 . S
C908 C907 1.390 . S
C908 C909 1.394 . S
C908 C914 1.465 . S
C909 C904 1.399 . S
C909 C908 1.394 . S
C909 C910 1.516 . S
C910 C909 1.516 . S
C910 C911 1.502 . S
C910 C912 1.561 . S
C910 C913 1.526 . S
C911 H895 0.959 . S
C911 H896 0.959 . S
C911 H897 0.961 1_545 S
C911 C910 1.502 . S
C912 H898 0.960 1_545 S
C912 H899 0.961 . S
C912 H900 0.959 . S
C912 C910 1.561 . S
C913 C910 1.526 . S
C913 C914 1.396 . S
C913 C918 1.390 . S
C914 C908 1.465 . S
C914 C913 1.396 . S
C914 C915 1.399 . S
C915 H901 0.929 . S
C915 C914 1.399 . S
C915 C916 1.385 . S
C916 H902 0.931 . S
C916 C915 1.385 . S
C916 C917 1.389 . S
C917 C916 1.389 . S
C917 C918 1.387 . S
C918 H903 0.930 . S
C918 C913 1.390 . S
C918 C917 1.387 . S
H919 C931 0.930 1_545 S
H920 C933 0.930 . S
H921 C934 0.930 . S
H922 C938 0.959 . S
H923 C938 0.959 . S
H924 C938 0.961 1_545 S
H925 C939 0.960 1_545 S
H926 C939 0.961 . S
H927 C939 0.959 . S
H928 C942 0.929 . S
H929 C943 0.931 . S
H930 C945 0.930 . S
C931 H919 0.930 1_565 S
C931 C932 1.399 . S
C931 C936 1.399 . S
C932 C931 1.399 . S
C932 C933 1.376 . S
C933 H920 0.930 . S
C933 C932 1.376 . S
C933 C934 1.388 . S
C934 H921 0.930 . S
C934 C933 1.388 . S
C934 C935 1.390 . S
C935 C934 1.390 . S
C935 C936 1.394 . S
C935 C941 1.465 . S
C936 C931 1.399 . S
C936 C935 1.394 . S
C936 C937 1.516 . S
C937 C936 1.516 . S
C937 C938 1.502 . S
C937 C939 1.561 . S
C937 C940 1.526 . S
C938 H922 0.959 . S
C938 H923 0.959 . S
C938 H924 0.961 1_565 S
C938 C937 1.502 . S
C939 H925 0.960 1_565 S
C939 H926 0.961 . S
C939 H927 0.959 . S
C939 C937 1.561 . S
C940 C937 1.526 . S
C940 C941 1.396 . S
C940 C945 1.390 . S
C941 C935 1.465 . S
C941 C940 1.396 . S
C941 C942 1.399 . S
C942 H928 0.929 . S
C942 C941 1.399 . S
C942 C943 1.385 . S
C943 H929 0.931 . S
C943 C942 1.385 . S
C943 C944 1.389 . S
C944 C943 1.389 . S
C944 C945 1.387 . S
C945 H930 0.930 . S
C945 C940 1.390 . S
C945 C944 1.387 . S
H946 C958 0.930 . S
H947 C960 0.930 . S
H948 C961 0.930 . S
H949 C965 0.959 . S
H950 C965 0.959 . S
H951 C965 0.961 . S
H952 C966 0.960 . S
H953 C966 0.961 . S
H954 C966 0.959 . S
H955 C969 0.929 . S
H956 C970 0.931 . S
H957 C972 0.930 . S
C958 H946 0.930 . S
C958 C959 1.399 . S
C958 C963 1.399 . S
C959 C958 1.399 . S
C959 C960 1.376 . S
C960 H947 0.930 . S
C960 C959 1.376 . S
C960 C961 1.388 . S
C961 H948 0.930 . S
C961 C960 1.388 . S
C961 C962 1.390 . S
C962 C961 1.390 . S
C962 C963 1.394 . S
C962 C968 1.465 . S
C963 C958 1.399 . S
C963 C962 1.394 . S
C963 C964 1.516 . S
C964 C963 1.516 . S
C964 C965 1.502 . S
C964 C966 1.561 . S
C964 C967 1.526 . S
C965 H949 0.959 . S
C965 H950 0.959 . S
C965 H951 0.961 . S
C965 C964 1.502 . S
C966 H952 0.960 . S
C966 H953 0.961 . S
C966 H954 0.959 . S
C966 C964 1.561 . S
C967 C964 1.526 . S
C967 C968 1.396 . S
C967 C972 1.390 . S
C968 C962 1.465 . S
C968 C967 1.396 . S
C968 C969 1.399 . S
C969 H955 0.929 . S
C969 C968 1.399 . S
C969 C970 1.385 . S
C970 H956 0.931 . S
C970 C969 1.385 . S
C970 C971 1.389 . S
C971 C970 1.389 . S
C971 C972 1.387 . S
C972 H957 0.930 . S
C972 C967 1.390 . S
C972 C971 1.387 . S
H973 C985 0.930 . S
H974 C987 0.930 . S
H975 C988 0.930 . S
H976 C992 0.959 . S
H977 C992 0.959 . S
H978 C992 0.961 . S
H979 C993 0.960 . S
H980 C993 0.961 . S
H981 C993 0.959 . S
H982 C996 0.929 . S
H983 C997 0.931 . S
H984 C999 0.930 . S
C985 H973 0.930 . S
C985 C986 1.399 . S
C985 C990 1.399 . S
C986 C985 1.399 . S
C986 C987 1.376 . S
C987 H974 0.930 . S
C987 C986 1.376 . S
C987 C988 1.388 . S
C988 H975 0.930 . S
C988 C987 1.388 . S
C988 C989 1.390 . S
C989 C988 1.390 . S
C989 C990 1.394 . S
C989 C995 1.465 . S
C990 C985 1.399 . S
C990 C989 1.394 . S
C990 C991 1.516 . S
C991 C990 1.516 . S
C991 C992 1.502 . S
C991 C993 1.561 . S
C991 C994 1.526 . S
C992 H976 0.959 . S
C992 H977 0.959 . S
C992 H978 0.961 . S
C992 C991 1.502 . S
C993 H979 0.960 . S
C993 H980 0.961 . S
C993 H981 0.959 . S
C993 C991 1.561 . S
C994 C991 1.526 . S
C994 C995 1.396 . S
C994 C999 1.390 . S
C995 C989 1.465 . S
C995 C994 1.396 . S
C995 C996 1.399 . S
C996 H982 0.929 . S
C996 C995 1.399 . S
C996 C997 1.385 . S
C997 H983 0.931 . S
C997 C996 1.385 . S
C997 C998 1.389 . S
C998 C997 1.389 . S
C998 C999 1.387 . S
C999 H984 0.930 . S
C999 C994 1.390 . S
C999 C998 1.387 . S
H1000 C1012 0.930 . S
H1001 C1014 0.930 . S
H1002 C1015 0.930 . S
H1003 C1019 0.959 . S
H1004 C1019 0.959 . S
H1005 C1019 0.961 . S
H1006 C1020 0.960 . S
H1007 C1020 0.961 . S
H1008 C1020 0.959 . S
H1009 C1023 0.929 . S
H1010 C1024 0.931 . S
H1011 C1026 0.930 . S
C1012 H1000 0.930 . S
C1012 C1013 1.399 . S
C1012 C1017 1.399 . S
C1013 C1012 1.399 . S
C1013 C1014 1.376 . S
C1014 H1001 0.930 . S
C1014 C1013 1.376 . S
C1014 C1015 1.388 . S
C1015 H1002 0.930 . S
C1015 C1014 1.388 . S
C1015 C1016 1.390 . S
C1016 C1015 1.390 . S
C1016 C1017 1.394 . S
C1016 C1022 1.465 . S
C1017 C1012 1.399 . S
C1017 C1016 1.394 . S
C1017 C1018 1.516 . S
C1018 C1017 1.516 . S
C1018 C1019 1.502 . S
C1018 C1020 1.561 . S
C1018 C1021 1.526 . S
C1019 H1003 0.959 . S
C1019 H1004 0.959 . S
C1019 H1005 0.961 . S
C1019 C1018 1.502 . S
C1020 H1006 0.960 . S
C1020 H1007 0.961 . S
C1020 H1008 0.959 . S
C1020 C1018 1.561 . S
C1021 C1018 1.526 . S
C1021 C1022 1.396 . S
C1021 C1026 1.390 . S
C1022 C1016 1.465 . S
C1022 C1021 1.396 . S
C1022 C1023 1.399 . S
C1023 H1009 0.929 . S
C1023 C1022 1.399 . S
C1023 C1024 1.385 . S
C1024 H1010 0.931 . S
C1024 C1023 1.385 . S
C1024 C1025 1.389 . S
C1025 C1024 1.389 . S
C1025 C1026 1.387 . S
C1026 H1011 0.930 . S
C1026 C1021 1.390 . S
C1026 C1025 1.387 . S
H1027 C1039 0.930 . S
H1028 C1041 0.930 . S
H1029 C1042 0.930 . S
H1030 C1046 0.959 . S
H1031 C1046 0.959 . S
H1032 C1046 0.961 . S
H1033 C1047 0.960 . S
H1034 C1047 0.961 . S
H1035 C1047 0.959 . S
H1036 C1050 0.929 . S
H1037 C1051 0.931 . S
H1038 C1053 0.930 . S
C1039 H1027 0.930 . S
C1039 C1040 1.399 . S
C1039 C1044 1.399 . S
C1040 C1039 1.399 . S
C1040 C1041 1.376 . S
C1041 H1028 0.930 . S
C1041 C1040 1.376 . S
C1041 C1042 1.388 . S
C1042 H1029 0.930 . S
C1042 C1041 1.388 . S
C1042 C1043 1.390 . S
C1043 C1042 1.390 . S
C1043 C1044 1.394 . S
C1043 C1049 1.465 . S
C1044 C1039 1.399 . S
C1044 C1043 1.394 . S
C1044 C1045 1.516 . S
C1045 C1044 1.516 . S
C1045 C1046 1.502 . S
C1045 C1047 1.561 . S
C1045 C1048 1.526 . S
C1046 H1030 0.959 . S
C1046 H1031 0.959 . S
C1046 H1032 0.961 . S
C1046 C1045 1.502 . S
C1047 H1033 0.960 . S
C1047 H1034 0.961 . S
C1047 H1035 0.959 . S
C1047 C1045 1.561 . S
C1048 C1045 1.526 . S
C1048 C1049 1.396 . S
C1048 C1053 1.390 . S
C1049 C1043 1.465 . S
C1049 C1048 1.396 . S
C1049 C1050 1.399 . S
C1050 H1036 0.929 . S
C1050 C1049 1.399 . S
C1050 C1051 1.385 . S
C1051 H1037 0.931 . S
C1051 C1050 1.385 . S
C1051 C1052 1.389 . S
C1052 C1051 1.389 . S
C1052 C1053 1.387 . S
C1053 H1038 0.930 . S
C1053 C1048 1.390 . S
C1053 C1052 1.387 . S
H1054 C1066 0.930 . S
H1055 C1068 0.930 . S
H1056 C1069 0.930 . S
H1057 C1073 0.959 . S
H1058 C1073 0.959 . S
H1059 C1073 0.961 . S
H1060 C1074 0.960 . S
H1061 C1074 0.961 . S
H1062 C1074 0.959 . S
H1063 C1077 0.929 . S
H1064 C1078 0.931 . S
H1065 C1080 0.930 . S
C1066 H1054 0.930 . S
C1066 C1067 1.399 . S
C1066 C1071 1.399 . S
C1067 C1066 1.399 . S
C1067 C1068 1.376 . S
C1068 H1055 0.930 . S
C1068 C1067 1.376 . S
C1068 C1069 1.388 . S
C1069 H1056 0.930 . S
C1069 C1068 1.388 . S
C1069 C1070 1.390 . S
C1070 C1069 1.390 . S
C1070 C1071 1.394 . S
C1070 C1076 1.465 . S
C1071 C1066 1.399 . S
C1071 C1070 1.394 . S
C1071 C1072 1.516 . S
C1072 C1071 1.516 . S
C1072 C1073 1.502 . S
C1072 C1074 1.561 . S
C1072 C1075 1.526 . S
C1073 H1057 0.959 . S
C1073 H1058 0.959 . S
C1073 H1059 0.961 . S
C1073 C1072 1.502 . S
C1074 H1060 0.960 . S
C1074 H1061 0.961 . S
C1074 H1062 0.959 . S
C1074 C1072 1.561 . S
C1075 C1072 1.526 . S
C1075 C1076 1.396 . S
C1075 C1080 1.390 . S
C1076 C1070 1.465 . S
C1076 C1075 1.396 . S
C1076 C1077 1.399 . S
C1077 H1063 0.929 . S
C1077 C1076 1.399 . S
C1077 C1078 1.385 . S
C1078 H1064 0.931 . S
C1078 C1077 1.385 . S
C1078 C1079 1.389 . S
C1079 C1078 1.389 . S
C1079 C1080 1.387 . S
C1080 H1065 0.930 . S
C1080 C1075 1.390 . S
C1080 C1079 1.387 . S
H1081 C1093 0.930 . S
H1082 C1095 0.930 . S
H1083 C1096 0.930 . S
H1084 C1100 0.959 . S
H1085 C1100 0.959 . S
H1086 C1100 0.961 . S
H1087 C1101 0.960 . S
H1088 C1101 0.961 . S
H1089 C1101 0.959 . S
H1090 C1104 0.929 . S
H1091 C1105 0.931 . S
H1092 C1107 0.930 . S
C1093 H1081 0.930 . S
C1093 C1094 1.399 . S
C1093 C1098 1.399 . S
C1094 C1093 1.399 . S
C1094 C1095 1.376 . S
C1095 H1082 0.930 . S
C1095 C1094 1.376 . S
C1095 C1096 1.388 . S
C1096 H1083 0.930 . S
C1096 C1095 1.388 . S
C1096 C1097 1.390 . S
C1097 C1096 1.390 . S
C1097 C1098 1.394 . S
C1097 C1103 1.465 . S
C1098 C1093 1.399 . S
C1098 C1097 1.394 . S
C1098 C1099 1.516 . S
C1099 C1098 1.516 . S
C1099 C1100 1.502 . S
C1099 C1101 1.561 . S
C1099 C1102 1.526 . S
C1100 H1084 0.959 . S
C1100 H1085 0.959 . S
C1100 H1086 0.961 . S
C1100 C1099 1.502 . S
C1101 H1087 0.960 . S
C1101 H1088 0.961 . S
C1101 H1089 0.959 . S
C1101 C1099 1.561 . S
C1102 C1099 1.526 . S
C1102 C1103 1.396 . S
C1102 C1107 1.390 . S
C1103 C1097 1.465 . S
C1103 C1102 1.396 . S
C1103 C1104 1.399 . S
C1104 H1090 0.929 . S
C1104 C1103 1.399 . S
C1104 C1105 1.385 . S
C1105 H1091 0.931 . S
C1105 C1104 1.385 . S
C1105 C1106 1.389 . S
C1106 C1105 1.389 . S
C1106 C1107 1.387 . S
C1107 H1092 0.930 . S
C1107 C1102 1.390 . S
C1107 C1106 1.387 . S
H1108 C1120 0.930 . S
H1109 C1122 0.930 . S
H1110 C1123 0.930 . S
H1111 C1127 0.959 . S
H1112 C1127 0.959 . S
H1113 C1127 0.961 . S
H1114 C1128 0.960 . S
H1115 C1128 0.961 . S
H1116 C1128 0.959 . S
H1117 C1131 0.929 . S
H1118 C1132 0.931 . S
H1119 C1134 0.930 . S
C1120 H1108 0.930 . S
C1120 C1121 1.399 . S
C1120 C1125 1.399 . S
C1121 C1120 1.399 . S
C1121 C1122 1.376 . S
C1122 H1109 0.930 . S
C1122 C1121 1.376 . S
C1122 C1123 1.388 . S
C1123 H1110 0.930 . S
C1123 C1122 1.388 . S
C1123 C1124 1.390 . S
C1124 C1123 1.390 . S
C1124 C1125 1.394 . S
C1124 C1130 1.465 . S
C1125 C1120 1.399 . S
C1125 C1124 1.394 . S
C1125 C1126 1.516 . S
C1126 C1125 1.516 . S
C1126 C1127 1.502 . S
C1126 C1128 1.561 . S
C1126 C1129 1.526 . S
C1127 H1111 0.959 . S
C1127 H1112 0.959 . S
C1127 H1113 0.961 . S
C1127 C1126 1.502 . S
C1128 H1114 0.960 . S
C1128 H1115 0.961 . S
C1128 H1116 0.959 . S
C1128 C1126 1.561 . S
C1129 C1126 1.526 . S
C1129 C1130 1.396 . S
C1129 C1134 1.390 . S
C1130 C1124 1.465 . S
C1130 C1129 1.396 . S
C1130 C1131 1.399 . S
C1131 H1117 0.929 . S
C1131 C1130 1.399 . S
C1131 C1132 1.385 . S
C1132 H1118 0.931 . S
C1132 C1131 1.385 . S
C1132 C1133 1.389 . S
C1133 C1132 1.389 . S
C1133 C1134 1.387 . S
C1134 H1119 0.930 . S
C1134 C1129 1.390 . S
C1134 C1133 1.387 . S
H1135 C1147 0.930 . S
H1136 C1149 0.930 . S
H1137 C1150 0.930 . S
H1138 C1154 0.959 . S
H1139 C1154 0.959 . S
H1140 C1154 0.961 . S
H1141 C1155 0.960 . S
H1142 C1155 0.961 . S
H1143 C1155 0.959 . S
H1144 C1158 0.929 . S
H1145 C1159 0.931 . S
H1146 C1161 0.930 . S
C1147 H1135 0.930 . S
C1147 C1148 1.399 . S
C1147 C1152 1.399 . S
C1148 C1147 1.399 . S
C1148 C1149 1.376 . S
C1149 H1136 0.930 . S
C1149 C1148 1.376 . S
C1149 C1150 1.388 . S
C1150 H1137 0.930 . S
C1150 C1149 1.388 . S
C1150 C1151 1.390 . S
C1151 C1150 1.390 . S
C1151 C1152 1.394 . S
C1151 C1157 1.465 . S
C1152 C1147 1.399 . S
C1152 C1151 1.394 . S
C1152 C1153 1.516 . S
C1153 C1152 1.516 . S
C1153 C1154 1.502 . S
C1153 C1155 1.561 . S
C1153 C1156 1.526 . S
C1154 H1138 0.959 . S
C1154 H1139 0.959 . S
C1154 H1140 0.961 . S
C1154 C1153 1.502 . S
C1155 H1141 0.960 . S
C1155 H1142 0.961 . S
C1155 H1143 0.959 . S
C1155 C1153 1.561 . S
C1156 C1153 1.526 . S
C1156 C1157 1.396 . S
C1156 C1161 1.390 . S
C1157 C1151 1.465 . S
C1157 C1156 1.396 . S
C1157 C1158 1.399 . S
C1158 H1144 0.929 . S
C1158 C1157 1.399 . S
C1158 C1159 1.385 . S
C1159 H1145 0.931 . S
C1159 C1158 1.385 . S
C1159 C1160 1.389 . S
C1160 C1159 1.389 . S
C1160 C1161 1.387 . S
C1161 H1146 0.930 . S
C1161 C1156 1.390 . S
C1161 C1160 1.387 . S
H1162 C1174 0.930 . S
H1163 C1176 0.930 . S
H1164 C1177 0.930 . S
H1165 C1181 0.959 . S
H1166 C1181 0.959 . S
H1167 C1181 0.961 . S
H1168 C1182 0.960 . S
H1169 C1182 0.961 . S
H1170 C1182 0.959 . S
H1171 C1185 0.929 . S
H1172 C1186 0.931 . S
H1173 C1188 0.930 . S
C1174 H1162 0.930 . S
C1174 C1175 1.399 . S
C1174 C1179 1.399 . S
C1175 C1174 1.399 . S
C1175 C1176 1.376 . S
C1176 H1163 0.930 . S
C1176 C1175 1.376 . S
C1176 C1177 1.388 . S
C1177 H1164 0.930 . S
C1177 C1176 1.388 . S
C1177 C1178 1.390 . S
C1178 C1177 1.390 . S
C1178 C1179 1.394 . S
C1178 C1184 1.465 . S
C1179 C1174 1.399 . S
C1179 C1178 1.394 . S
C1179 C1180 1.516 . S
C1180 C1179 1.516 . S
C1180 C1181 1.502 . S
C1180 C1182 1.561 . S
C1180 C1183 1.526 . S
C1181 H1165 0.959 . S
C1181 H1166 0.959 . S
C1181 H1167 0.961 . S
C1181 C1180 1.502 . S
C1182 H1168 0.960 . S
C1182 H1169 0.961 . S
C1182 H1170 0.959 . S
C1182 C1180 1.561 . S
C1183 C1180 1.526 . S
C1183 C1184 1.396 . S
C1183 C1188 1.390 . S
C1184 C1178 1.465 . S
C1184 C1183 1.396 . S
C1184 C1185 1.399 . S
C1185 H1171 0.929 . S
C1185 C1184 1.399 . S
C1185 C1186 1.385 . S
C1186 H1172 0.931 . S
C1186 C1185 1.385 . S
C1186 C1187 1.389 . S
C1187 C1186 1.389 . S
C1187 C1188 1.387 . S
C1188 H1173 0.930 . S
C1188 C1183 1.390 . S
C1188 C1187 1.387 . S
H1189 C1201 0.930 . S
H1190 C1203 0.930 . S
H1191 C1204 0.930 . S
H1192 C1208 0.959 . S
H1193 C1208 0.959 . S
H1194 C1208 0.961 . S
H1195 C1209 0.960 . S
H1196 C1209 0.961 . S
H1197 C1209 0.959 . S
H1198 C1212 0.929 . S
H1199 C1213 0.931 . S
H1200 C1215 0.930 . S
C1201 H1189 0.930 . S
C1201 C1202 1.399 . S
C1201 C1206 1.399 . S
C1202 C1201 1.399 . S
C1202 C1203 1.376 . S
C1203 H1190 0.930 . S
C1203 C1202 1.376 . S
C1203 C1204 1.388 . S
C1204 H1191 0.930 . S
C1204 C1203 1.388 . S
C1204 C1205 1.390 . S
C1205 C1204 1.390 . S
C1205 C1206 1.394 . S
C1205 C1211 1.465 . S
C1206 C1201 1.399 . S
C1206 C1205 1.394 . S
C1206 C1207 1.516 . S
C1207 C1206 1.516 . S
C1207 C1208 1.502 . S
C1207 C1209 1.561 . S
C1207 C1210 1.526 . S
C1208 H1192 0.959 . S
C1208 H1193 0.959 . S
C1208 H1194 0.961 . S
C1208 C1207 1.502 . S
C1209 H1195 0.960 . S
C1209 H1196 0.961 . S
C1209 H1197 0.959 . S
C1209 C1207 1.561 . S
C1210 C1207 1.526 . S
C1210 C1211 1.396 . S
C1210 C1215 1.390 . S
C1211 C1205 1.465 . S
C1211 C1210 1.396 . S
C1211 C1212 1.399 . S
C1212 H1198 0.929 . S
C1212 C1211 1.399 . S
C1212 C1213 1.385 . S
C1213 H1199 0.931 . S
C1213 C1212 1.385 . S
C1213 C1214 1.389 . S
C1214 C1213 1.389 . S
C1214 C1215 1.387 . S
C1215 H1200 0.930 . S
C1215 C1210 1.390 . S
C1215 C1214 1.387 . S
C581 C31 1.478 . S
C593 C523 1.532 . S
C620 C487 1.511 . S
C608 C61 1.542 . S
C647 C510 1.507 . S
C635 C151 1.497 . S
C674 C498 1.504 . S
C662 C181 1.513 . S
C701 C567 1.517 . S
C689 C271 1.544 . S
C728 C531 1.532 . S
C716 C301 1.541 . S
C743 C391 1.500 . S
C755 C554 1.516 . S
C782 C542 1.541 . S
C770 C421 1.519 . S
C797 C20 1.463 . S
C809 C564 1.519 . S
C836 C534 1.521 . S
C824 C91 1.469 . S
C851 C121 1.470 . S
C863 C553 1.547 . S
C878 C211 1.561 . S
C890 C539 1.548 . S
C917 C520 1.528 . S
C905 C260 1.512 1_545 S
C932 C331 1.518 1_565 S
C944 C490 1.529 . S
C971 C509 1.563 . S
C959 C361 1.511 1_545 S
C998 C495 1.560 . S
C986 C451 1.555 1_565 S
C1025 C545 1.514 . S
C1013 C1 1.411 . S
C1052 C561 1.544 . S
C1040 C80 1.494 . S
C1067 C140 1.428 . S
C1079 C532 1.509 . S
C1106 C556 1.499 . S
C1094 C200 1.471 . S
C1133 C501 1.511 . S
C1121 C241 1.402 . S
C1148 C320 1.419 . S
C1160 C517 1.516 . S
C1175 C380 1.430 . S
C1187 C488 1.507 . S
C1202 C440 1.481 . S
C1214 C512 1.502 . S
