# Generated by pormake.
# Topology anh, (6,3)-cn, num edge types: 1
# Building blocks:
#     Node 0, Type 0, BuildingBlock: PAMTUU_clean_sbu_0, # of connection points: 6
#     Node 1, Type 0, BuildingBlock: PAMTUU_clean_sbu_0, # of connection points: 6
#     Node 2, Type 0, BuildingBlock: PAMTUU_clean_sbu_0, # of connection points: 6
#     Node 3, Type 1, BuildingBlock: CUQRIR_clean_linker_1, # of connection points: 3
#     Node 4, Type 1, BuildingBlock: CUQRIR_clean_linker_1, # of connection points: 3
#     Node 5, Type 1, BuildingBlock: CUQRIR_clean_linker_1, # of connection points: 3
#     Node 6, Type 1, BuildingBlock: CUQRIR_clean_linker_1, # of connection points: 3
#     Node 7, Type 1, BuildingBlock: CUQRIR_clean_linker_1, # of connection points: 3
#     Node 8, Type 1, BuildingBlock: CUQRIR_clean_linker_1, # of connection points: 3
#     Edge 9, Type (0, 1), BuildingBlock: UVAHIK_clean_linker_0, # of connection points: 2
#     Edge 10, Type (0, 1), BuildingBlock: UVAHIK_clean_linker_0, # of connection points: 2
#     Edge 11, Type (0, 1), BuildingBlock: UVAHIK_clean_linker_0, # of connection points: 2
#     Edge 12, Type (0, 1), BuildingBlock: UVAHIK_clean_linker_0, # of connection points: 2
#     Edge 13, Type (0, 1), BuildingBlock: UVAHIK_clean_linker_0, # of connection points: 2
#     Edge 14, Type (0, 1), BuildingBlock: UVAHIK_clean_linker_0, # of connection points: 2
#     Edge 15, Type (0, 1), BuildingBlock: UVAHIK_clean_linker_0, # of connection points: 2
#     Edge 16, Type (0, 1), BuildingBlock: UVAHIK_clean_linker_0, # of connection points: 2
#     Edge 17, Type (0, 1), BuildingBlock: UVAHIK_clean_linker_0, # of connection points: 2
#     Edge 18, Type (0, 1), BuildingBlock: UVAHIK_clean_linker_0, # of connection points: 2
#     Edge 19, Type (0, 1), BuildingBlock: UVAHIK_clean_linker_0, # of connection points: 2
#     Edge 20, Type (0, 1), BuildingBlock: UVAHIK_clean_linker_0, # of connection points: 2
#     Edge 21, Type (0, 1), BuildingBlock: UVAHIK_clean_linker_0, # of connection points: 2
#     Edge 22, Type (0, 1), BuildingBlock: UVAHIK_clean_linker_0, # of connection points: 2
#     Edge 23, Type (0, 1), BuildingBlock: UVAHIK_clean_linker_0, # of connection points: 2
#     Edge 24, Type (0, 1), BuildingBlock: UVAHIK_clean_linker_0, # of connection points: 2
#     Edge 25, Type (0, 1), BuildingBlock: UVAHIK_clean_linker_0, # of connection points: 2
#     Edge 26, Type (0, 1), BuildingBlock: UVAHIK_clean_linker_0, # of connection points: 2
# Relax obj value: 0.240
# Max RMSD: 0.212
# Mean RMSD: 0.163
data_MOF--net-anh--node1-PAMTUU_clean_sbu_0--node2-CUQRIR_clean_linker_1--edge1-UVAHIK_clean_linker_0
_symmetry_space_group_name_H-M    P1
_symmetry_Int_Tables_number       1
_symmetry_cell_setting            triclinic
loop_
_symmetry_equiv_pos_as_xyz
'x, y, z'
_cell_length_a     37.98918
_cell_length_b     37.96438
_cell_length_c     61.534257
_cell_angle_alpha  89.879533
_cell_angle_beta   90.731595
_cell_angle_gamma 119.85113
loop_
_atom_site_label
_atom_site_type_symbol
_atom_site_fract_x
_atom_site_fract_y
_atom_site_fract_z
_atom_type_partial_charge
Tb0 Tb 0.09325 0.59634 0.15449 0.0
Tb1 Tb 0.13982 0.55023 0.17015 0.0
C2 C 0.1222 0.55647 0.12101 0.0
C3 C 1.02379 0.61627 0.12184 0.0
C4 C 0.95582 0.58796 0.09381 0.0
C5 C 0.9865 0.62906 0.09359 0.0
C6 C 1.02018 0.64311 0.10757 0.0
C7 C 0.99424 0.57499 0.12147 0.0
C8 C 0.96046 0.56101 0.10771 0.0
C9 C 1.05862 0.63113 0.13683 0.0
O10 O 1.04142 0.53558 0.1641 0.0
O11 O 0.07546 0.50001 0.16497 0.0
O12 O 0.12925 0.57293 0.20043 0.0
O13 O 0.09981 0.61013 0.18869 0.0
O14 O 0.1855 0.5352 0.16594 0.0
O15 O 0.13975 0.5055 0.19035 0.0
O16 O 0.18891 0.61439 0.17488 0.0
O17 O 0.15927 0.64565 0.15636 0.0
O18 O 0.09037 0.55739 0.12792 0.0
O19 O 0.15008 0.56044 0.1351 0.0
C20 C 1.04061 0.50025 0.16577 0.0
O21 O 1.05064 0.61595 0.15637 0.0
O22 O 0.09065 0.63183 0.12896 0.0
C23 C 0.11375 0.59648 0.20415 0.0
C24 C 0.20504 0.51635 0.19882 0.0
C25 C 0.26637 0.52022 0.22667 0.0
C26 C 0.22629 0.48781 0.2281 0.0
C27 C 0.196 0.48579 0.2142 0.0
C28 C 0.24425 0.55035 0.19849 0.0
C29 C 0.27464 0.5522 0.21224 0.0
C30 C 0.17383 0.51099 0.18264 0.0
C31 C 0.19159 0.64784 0.16649 0.0
H32 H 0.9842 0.65051 0.08288 0.0
H33 H 1.04315 0.67497 0.10741 0.0
H34 H 0.99682 0.55365 0.13217 0.0
H35 H 0.93724 0.52934 0.10865 0.0
H36 H 0.21875 0.46301 0.23925 0.0
H37 H 0.16579 0.45954 0.21491 0.0
H38 H 0.25195 0.57468 0.18699 0.0
H39 H 0.3052 0.57743 0.21048 0.0
Tb40 Tb 0.58714 1.04133 0.49269 0.0
Tb41 Tb 0.68424 0.08909 0.49986 0.0
C42 C 0.64508 0.07688 0.45185 0.0
C43 C 0.47548 0.97818 0.50122 0.0
C44 C 0.40653 0.92664 0.52545 0.0
C45 C 0.4028 0.94382 0.50588 0.0
C46 C 0.43699 0.96941 0.49392 0.0
C47 C 0.47963 0.96086 0.52058 0.0
C48 C 0.44527 0.93503 0.5326 0.0
C49 C 0.51089 1.00814 0.48934 0.0
O50 O 0.59961 0.98952 0.49462 0.0
O51 O 0.66654 1.02385 0.50546 0.0
O52 O 0.65942 0.08582 0.53201 0.0
O53 O 0.59596 1.03148 0.52633 0.0
O54 O 0.73894 0.09087 0.4927 0.0
O55 O 0.73784 0.13389 0.51504 0.0
O56 O 0.67309 0.14128 0.49638 0.0
O57 O 0.60363 0.10637 0.49809 0.0
O58 O 0.60826 0.05718 0.45961 0.0
O59 O 0.67749 0.09109 0.46451 0.0
C60 C 0.63279 0.98897 0.50125 0.0
O61 O 0.53376 1.04172 0.4999 0.0
O62 O 0.53219 0.99519 0.47918 0.0
C63 C 0.62448 0.05738 0.53938 0.0
C64 C 0.79242 0.15888 0.49082 0.0
C65 C 0.84575 0.22767 0.46653 0.0
C66 C 0.82265 0.18972 0.45629 0.0
C67 C 0.79612 0.15569 0.46828 0.0
C68 C 0.81704 0.19621 0.50124 0.0
C69 C 0.84326 0.23031 0.48923 0.0
C70 C 0.76052 0.12493 0.50321 0.0
C71 C 0.63839 0.14146 0.49795 0.0
H72 H 0.37331 0.9371 0.49961 0.0
H73 H 0.43339 0.98274 0.47906 0.0
H74 H 0.50938 0.96776 0.52649 0.0
H75 H 0.449 0.9221 0.54757 0.0
H76 H 0.82434 0.18646 0.43891 0.0
H77 H 0.77762 0.12727 0.45973 0.0
H78 H 0.81468 0.19944 0.51857 0.0
H79 H 0.86011 0.25912 0.49766 0.0
Tb80 Tb 0.58955 0.54167 0.83177 0.0
Tb81 Tb 0.63916 0.63802 0.83398 0.0
C82 C 0.61458 0.59151 0.78886 0.0
C83 C 0.55203 0.43698 0.85036 0.0
C84 C 0.55351 0.38 0.87928 0.0
C85 C 0.58095 0.39552 0.86197 0.0
C86 C 0.58021 0.42371 0.84764 0.0
C87 C 0.52578 0.42275 0.86819 0.0
C88 C 0.52669 0.39478 0.88257 0.0
C89 C 0.54967 0.46566 0.83498 0.0
O90 O 0.65403 0.55465 0.83027 0.0
O91 O 0.68782 0.62208 0.83986 0.0
O92 O 0.61262 0.61698 0.86587 0.0
O93 O 0.61486 0.55877 0.86412 0.0
O94 O 0.66309 0.69355 0.81786 0.0
O95 O 0.6745 0.69156 0.85213 0.0
O96 O 0.57511 0.62602 0.83074 0.0
O97 O 0.54139 0.55795 0.83799 0.0
O98 O 0.58577 0.55956 0.79857 0.0
O99 O 0.64318 0.62144 0.80035 0.0
C100 C 0.68844 0.58804 0.83581 0.0
O101 O 0.53879 0.49003 0.84352 0.0
O102 O 0.57924 0.48446 0.82125 0.0
C103 C 0.61202 0.58603 0.87557 0.0
C104 C 0.66513 0.7447 0.83917 0.0
C105 C 0.63747 0.8003 0.83374 0.0
C106 C 0.67938 0.81374 0.83411 0.0
C107 C 0.69307 0.78595 0.83652 0.0
C108 C 0.62384 0.73188 0.84134 0.0
C109 C 0.61001 0.75934 0.83846 0.0
C110 C 0.67772 0.71459 0.83568 0.0
C111 C 0.54069 0.59227 0.83526 0.0
H112 H 0.60145 0.38414 0.85868 0.0
H113 H 0.60097 0.43423 0.83414 0.0
H114 H 0.50385 0.43261 0.87081 0.0
H115 H 0.50529 0.38349 0.89578 0.0
H116 H 0.70147 0.84528 0.83123 0.0
H117 H 0.72513 0.79628 0.83496 0.0
H118 H 0.60195 0.7001 0.84357 0.0
H119 H 0.57756 0.74757 0.83822 0.0
C120 C 0.61826 0.07542 0.18596 0.0
N121 N 0.64662 0.10455 0.20014 0.0
N122 N 0.58641 1.04324 0.19662 0.0
C123 C 0.62157 0.0782 0.16174 0.0
C124 C 0.59668 0.05433 0.21772 0.0
N125 N 0.63205 0.09037 0.21991 0.0
C126 C 0.57184 1.02932 0.23662 0.0
H127 H 0.63542 0.11032 0.15649 0.0
H128 H 0.59134 0.05983 0.15385 0.0
H129 H 0.64142 0.06622 0.15644 0.0
H130 H 0.58259 1.00809 0.24153 0.0
H131 H 0.5392 1.01127 0.2321 0.0
H132 H 0.57515 0.04868 0.25083 0.0
C133 C 0.63385 0.56583 0.52234 0.0
N134 N 0.63063 0.59267 0.53644 0.0
N135 N 0.63131 0.53224 0.53285 0.0
C136 C 0.63705 0.57104 0.49819 0.0
C137 C 0.62706 0.54035 0.55383 0.0
N138 N 0.62619 0.57564 0.55602 0.0
C139 C 0.62568 0.51436 0.57275 0.0
H140 H 0.6199 0.58591 0.49236 0.0
H141 H 0.62555 0.5413 0.4899 0.0
H142 H 0.66943 0.59072 0.49398 0.0
H143 H 0.64163 0.49736 0.56902 0.0
H144 H 0.59353 0.49228 0.57638 0.0
H145 H 0.63983 0.53306 0.58753 0.0
C146 C 0.11509 0.58671 0.85673 0.0
N147 N 0.14383 0.58605 0.87071 0.0
N148 N 0.0832 0.58653 0.86764 0.0
C149 C 0.11912 0.58979 0.83254 0.0
C150 C 0.09371 0.58512 0.88867 0.0
N151 N 0.12955 0.58524 0.89057 0.0
C152 C 1.06767 0.5818 0.90775 0.0
H153 H 0.1515 0.60827 0.82802 0.0
H154 H 0.10151 0.6033 0.82549 0.0
H155 H 0.10702 0.55886 0.82563 0.0
H156 H 1.03515 0.56714 0.90296 0.0
H157 H 0.07744 0.61273 0.91405 0.0
H158 H 0.07097 0.56399 0.92113 0.0
C159 C 1.02572 0.64135 0.45549 0.0
N160 N 1.02299 0.63363 0.43387 0.0
N161 N 1.056 0.67955 0.46002 0.0
C162 C 1.0022 0.6099 0.47246 0.0
C163 C 0.07118 0.69505 0.44022 0.0
N164 N 1.05128 0.66715 0.42439 0.0
C165 C 0.10843 0.73574 0.4367 0.0
H166 H 1.00788 0.6234 0.48899 0.0
H167 H 1.01068 0.58584 0.47209 0.0
H168 H 0.96924 0.59541 0.46884 0.0
H169 H 0.1356 0.73449 0.44244 0.0
H170 H 0.10662 0.75947 0.44626 0.0
H171 H 0.11206 0.74458 0.41934 0.0
C172 C 0.44791 1.02686 0.78045 0.0
N173 N 0.45515 1.01933 0.75998 0.0
N174 N 0.45185 0.06417 0.78197 0.0
C175 C 0.44475 1.00123 0.79992 0.0
C176 C 0.46078 0.07882 0.7615 0.0
N177 N 0.46287 0.05167 0.74811 0.0
C178 C 0.47114 0.12118 0.75534 0.0
H179 H 0.43825 1.01282 0.81499 0.0
H180 H 0.47358 1.0008 0.80216 0.0
H181 H 0.41999 0.96956 0.79724 0.0
H182 H 0.50358 0.14235 0.75929 0.0
H183 H 0.45273 0.13077 0.76488 0.0
H184 H 0.4658 0.12312 0.73772 0.0
C185 C 0.55625 0.46939 0.13012 0.0
N186 N 0.56231 0.47293 0.10847 0.0
N187 N 0.5248 0.47481 0.13527 0.0
C188 C 0.58371 0.46516 0.1464 0.0
C189 C 0.5123 0.48241 0.116 0.0
N190 N 0.53529 0.4814 0.09968 0.0
C191 C 0.47951 0.49331 0.11345 0.0
H192 H 0.59409 0.44458 0.14005 0.0
H193 H 0.56813 0.4534 0.16209 0.0
H194 H 0.61086 0.49543 0.14924 0.0
H195 H 0.49264 0.52623 0.1168 0.0
H196 H 0.45498 0.47639 0.12528 0.0
H197 H 0.46657 0.48673 0.09671 0.0
C198 C 0.30048 0.48048 0.2361 0.0
C199 C 0.30048 0.51745 0.23698 0.0
C200 C 0.33637 0.47957 0.23927 0.0
C201 C 0.41638 0.48271 0.2416 0.0
H202 H 0.48622 0.56597 0.20114 0.0
C203 C 0.53795 0.51633 0.16811 0.0
C204 C 0.51333 0.48041 0.15648 0.0
C205 C 0.52469 0.52379 0.18774 0.0
C206 C 0.468 0.54301 0.21292 0.0
H207 H 0.33667 0.58128 0.2454 0.0
H208 H 0.39966 0.57972 0.25093 0.0
H209 H 0.43777 0.5752 0.22176 0.0
H210 H 0.45734 0.42316 0.15624 0.0
H211 H 0.43354 0.43591 0.19054 0.0
H212 H 0.44428 0.44884 0.23083 0.0
C213 C 0.37204 0.5516 0.24721 0.0
C214 C 0.44011 0.54837 0.22491 0.0
C215 C 0.336 0.55252 0.24398 0.0
C216 C 0.47647 0.45099 0.16515 0.0
C217 C 0.46327 0.45821 0.18483 0.0
C218 C 0.44405 0.47717 0.2294 0.0
C219 C 0.37316 0.51564 0.24335 0.0
C220 C 0.41193 0.51696 0.23817 0.0
C221 C 0.48671 0.4952 0.19602 0.0
C222 C 0.46816 0.50615 0.2139 0.0
H223 H 0.27382 0.45282 0.23072 0.0
H224 H 0.33576 0.45124 0.23607 0.0
H225 H 0.39593 0.45846 0.25218 0.0
H226 H 0.5666 0.53918 0.16149 0.0
H227 H 0.54332 0.55252 0.196 0.0
C228 C 0.9065 0.29684 0.46189 0.0
C229 C 0.86983 0.26502 0.45358 0.0
C230 C 0.92588 0.33429 0.45146 0.0
C231 C 0.90117 0.3964 0.41506 0.0
H232 H 1.01552 0.47172 0.42474 0.0
C233 C 0.96317 0.56666 0.42626 0.0
C234 C 1.00491 0.59351 0.42456 0.0
C235 C 0.94713 0.52537 0.42172 0.0
C236 C 0.9837 0.45127 0.42122 0.0
H237 H 0.82624 0.24688 0.42686 0.0
H238 H 0.86119 0.3116 0.4081 0.0
H239 H 0.98943 0.40029 0.43076 0.0
H240 H 1.06224 0.59911 0.41535 0.0
H241 H 1.03402 0.52847 0.40508 0.0
H242 H 0.89565 0.44733 0.40495 0.0
C243 C 0.8743 0.30801 0.42309 0.0
C244 C 0.96856 0.41008 0.42514 0.0
C245 C 0.85455 0.27064 0.43371 0.0
C246 C 1.0298 0.57922 0.41637 0.0
C247 C 1.01364 0.53836 0.41102 0.0
C248 C 0.91651 0.43757 0.41061 0.0
C249 C 0.90948 0.34074 0.43222 0.0
C250 C 0.92679 0.38243 0.42322 0.0
C251 C 0.97252 0.5104 0.41482 0.0
C252 C 0.95765 0.46588 0.41467 0.0
H253 H 0.91957 0.29331 0.47691 0.0
H254 H 0.95262 0.35874 0.45921 0.0
H255 H 0.86879 0.37611 0.41333 0.0
H256 H 0.94347 0.57727 0.43237 0.0
H257 H 0.91539 0.50509 0.42505 0.0
C258 C 0.64208 0.85376 0.80814 0.0
C259 C 0.62204 0.82684 0.82533 0.0
C260 C 0.62464 0.87414 0.7978 0.0
C261 C 0.53019 0.86346 0.78121 0.0
H262 H 0.58146 0.98077 0.78261 0.0
C263 C 0.44708 0.95087 0.75976 0.0
C264 C 0.47064 0.99245 0.75542 0.0
C265 C 0.46576 0.92751 0.76298 0.0
C266 C 0.56713 0.94805 0.78139 0.0
H267 H 0.56887 0.80224 0.84584 0.0
H268 H 0.53774 0.83682 0.82698 0.0
H269 H 0.61442 0.94774 0.80056 0.0
H270 H 0.53118 1.0411 0.74827 0.0
H271 H 0.56288 0.99962 0.75107 0.0
H272 H 0.48328 0.86346 0.76162 0.0
C273 C 0.56694 0.84174 0.82168 0.0
C274 C 0.58589 0.92926 0.792 0.0
C275 C 0.58478 0.82202 0.83239 0.0
C276 C 0.51211 1.00899 0.75129 0.0
C277 C 0.53048 0.98535 0.75355 0.0
C278 C 0.51175 0.88229 0.77013 0.0
C279 C 0.58654 0.86737 0.80414 0.0
C280 C 0.5672 0.88693 0.79228 0.0
C281 C 0.50817 0.94529 0.76116 0.0
C282 C 0.5297 0.92486 0.77036 0.0
H283 H 0.67031 0.85772 0.80187 0.0
H284 H 0.64016 0.89397 0.78428 0.0
H285 H 0.51567 0.83062 0.78111 0.0
H286 H 0.41492 0.93754 0.76274 0.0
H287 H 0.44735 0.8967 0.7687 0.0
C288 C 0.89911 0.59826 0.08036 0.0
C289 C 0.9172 0.57377 0.08144 0.0
C290 C 0.85921 0.58223 0.0729 0.0
C291 C 0.76733 0.48749 0.07703 0.0
H292 H 0.72018 0.5457 0.04847 0.0
C293 C 0.60256 0.44473 0.09315 0.0
C294 C 0.59786 0.47821 0.09775 0.0
C295 C 0.6379 0.45036 0.08325 0.0
C296 C 0.73284 0.52897 0.05646 0.0
H297 H 0.90907 0.51458 0.07313 0.0
H298 H 0.8387 0.4862 0.0608 0.0
H299 H 0.79205 0.56813 0.04371 0.0
H300 H 0.6245 0.54319 0.09537 0.0
H301 H 0.68705 0.55375 0.07885 0.0
H302 H 0.7095 0.45049 0.09131 0.0
C303 C 0.85551 0.51774 0.06585 0.0
C304 C 0.77386 0.54165 0.05358 0.0
C305 C 0.89565 0.53394 0.07307 0.0
C306 C 0.62804 0.51719 0.09188 0.0
C307 C 0.66345 0.52297 0.08219 0.0
C308 C 0.72651 0.47511 0.08012 0.0
C309 C 0.83646 0.54129 0.06654 0.0
C310 C 0.79182 0.52205 0.06459 0.0
C311 C 0.66915 0.48969 0.07804 0.0
C312 C 0.70926 0.49687 0.07067 0.0
H313 H 0.91453 0.62891 0.08682 0.0
H314 H 0.84517 0.60098 0.07384 0.0
H315 H 0.78045 0.47203 0.08591 0.0
H316 H 0.57903 0.41443 0.09741 0.0
H317 H 0.64105 0.42404 0.08004 0.0
C318 C 0.33723 0.90638 0.53883 0.0
C319 C 0.36938 0.89827 0.53733 0.0
C320 C 0.29851 0.8756 0.54427 0.0
C321 C 0.24274 0.76788 0.53326 0.0
H322 H 0.15186 0.78266 0.54764 0.0
C323 C 0.09342 0.67034 0.49028 0.0
C324 C 0.07807 0.69326 0.48027 0.0
C325 C 0.12064 0.68629 0.50773 0.0
C326 C 0.17686 0.77785 0.5437 0.0
H327 H 0.38776 0.85349 0.5436 0.0
H328 H 0.32027 0.79991 0.55378 0.0
H329 H 0.21932 0.82943 0.5625 0.0
H330 H 0.07644 0.74925 0.4815 0.0
H331 H 0.12629 0.77869 0.51116 0.0
H332 H 0.20163 0.71844 0.51332 0.0
C333 C 0.32465 0.8297 0.55001 0.0
C334 C 0.21548 0.80455 0.55226 0.0
C335 C 0.36341 0.86048 0.54432 0.0
C336 C 0.08839 0.73138 0.48887 0.0
C337 C 0.11643 0.74784 0.50607 0.0
C338 C 0.20435 0.7413 0.52478 0.0
C339 C 0.29125 0.83613 0.54849 0.0
C340 C 0.24928 0.80126 0.54607 0.0
C341 C 0.13418 0.72609 0.51508 0.0
C342 C 0.17138 0.74728 0.52892 0.0
H343 H 0.34131 0.93569 0.53414 0.0
H344 H 0.27377 0.88196 0.54299 0.0
H345 H 0.26786 0.76438 0.52787 0.0
H346 H 0.08607 0.64094 0.4838 0.0
H347 H 0.13302 0.66836 0.51456 0.0
C348 C 0.58138 0.33841 0.89594 0.0
C349 C 0.54797 0.34344 0.89093 0.0
C350 C 0.57582 0.29949 0.89902 0.0
C351 C 0.4955 0.18952 0.8914 0.0
H352 H 0.56733 0.19924 0.84477 0.0
C353 C 0.43994 0.09874 0.81239 0.0
C354 C 0.46551 0.08854 0.8013 0.0
C355 C 0.45324 0.12092 0.8318 0.0
C356 C 0.54734 0.19536 0.85808 0.0
H357 H 0.48219 0.31272 0.88916 0.0
H358 H 0.47259 0.24576 0.89388 0.0
H359 H 0.58747 0.25503 0.86955 0.0
H360 H 0.52388 0.0917 0.80148 0.0
H361 H 0.54739 0.13039 0.83545 0.0
H362 H 0.45385 0.13071 0.87831 0.0
C363 C 0.50317 0.27113 0.89556 0.0
C364 C 0.55908 0.2275 0.87256 0.0
C365 C 0.50869 0.30993 0.89271 0.0
C366 C 0.50413 0.09997 0.80987 0.0
C367 C 0.51734 0.1218 0.82926 0.0
C368 C 0.48357 0.15736 0.87673 0.0
C369 C 0.53689 0.26521 0.8966 0.0
C370 C 0.53203 0.22621 0.88838 0.0
C371 C 0.49225 0.13294 0.84034 0.0
C372 C 0.5084 0.16114 0.85913 0.0
H373 H 0.61199 0.36401 0.89541 0.0
H374 H 0.60237 0.29605 0.90072 0.0
H375 H 0.47446 0.18703 0.90384 0.0
H376 H 0.40994 0.08968 0.80597 0.0
H377 H 0.43351 0.12975 0.83973 0.0
C378 C 0.59658 0.90934 0.50183 0.0
C379 C 0.63226 0.94777 0.50445 0.0
C380 C 0.59627 0.87168 0.50494 0.0
C381 C 0.66669 0.82465 0.51188 0.0
H382 H 0.56725 0.72766 0.52724 0.0
C383 C 0.659 0.66246 0.51834 0.0
C384 C 0.63023 0.63136 0.53186 0.0
C385 C 0.65934 0.70007 0.51484 0.0
C386 C 0.59577 0.75408 0.5231 0.0
H387 H 0.69603 0.97395 0.5127 0.0
H388 H 0.69564 0.90988 0.51802 0.0
H389 H 0.56776 0.79158 0.52216 0.0
H390 H 0.5784 0.6177 0.55173 0.0
H391 H 0.57913 0.68173 0.54604 0.0
H392 H 0.69479 0.7872 0.51307 0.0
C393 C 0.66737 0.90833 0.51332 0.0
C394 C 0.59595 0.79161 0.51986 0.0
C395 C 0.6676 0.94593 0.51033 0.0
C396 C 0.60163 0.64014 0.54144 0.0
C397 C 0.6018 0.67753 0.53785 0.0
C398 C 0.66645 0.78704 0.51499 0.0
C399 C 0.63168 0.86971 0.51078 0.0
C400 C 0.63144 0.82841 0.51418 0.0
C401 C 0.63075 0.70906 0.52449 0.0
C402 C 0.631 0.7503 0.5208 0.0
H403 H 0.56837 0.90816 0.49734 0.0
H404 H 0.5678 0.84385 0.50239 0.0
H405 H 0.69503 0.85093 0.50735 0.0
H406 H 0.68203 0.65813 0.51065 0.0
H407 H 0.68224 0.7221 0.50424 0.0
C408 C 0.7316 0.55144 0.83657 0.0
C409 C 0.72924 0.58754 0.83786 0.0
C410 C 0.76924 0.55135 0.83877 0.0
C411 C 0.88507 0.62186 0.85279 0.0
H412 H 0.89202 0.52687 0.83742 0.0
C413 C 1.03902 0.61914 0.86945 0.0
C414 C 1.04706 0.58962 0.86035 0.0
C415 C 1.00166 0.61888 0.86594 0.0
C416 C 0.89161 0.55424 0.84174 0.0
H417 H 0.76775 0.65234 0.84241 0.0
H418 H 0.83172 0.65265 0.84558 0.0
H419 H 0.82822 0.52644 0.83286 0.0
H420 H 1.01939 0.53635 0.83973 0.0
H421 H 0.95551 0.53646 0.83284 0.0
H422 H 0.94852 0.65019 0.86098 0.0
C423 C 0.80461 0.62353 0.84336 0.0
C424 C 0.85375 0.55384 0.8393 0.0
C425 C 0.767 0.62351 0.84134 0.0
C426 C 1.01557 0.56021 0.84692 0.0
C427 C 0.97798 0.56003 0.84325 0.0
C428 C 0.92286 0.62235 0.85507 0.0
C429 C 0.80733 0.58744 0.84227 0.0
C430 C 0.84889 0.58764 0.84478 0.0
C431 C 0.96936 0.58912 0.85288 0.0
C432 C 0.92772 0.58853 0.84977 0.0
H433 H 0.704 0.5227 0.83402 0.0
H434 H 0.76789 0.52229 0.83794 0.0
H435 H 0.88473 0.64899 0.85766 0.0
H436 H 1.06163 0.64228 0.88004 0.0
H437 H 0.99816 0.64195 0.87424 0.0
C438 C 0.26751 0.69215 0.17888 0.0
C439 C 0.23244 0.68911 0.16855 0.0
C440 C 0.3051 0.72973 0.18086 0.0
C441 C 0.35486 0.84733 0.1739 0.0
H442 H 0.4549 0.84539 0.18222 0.0
C443 C 0.51611 1.0032 0.17852 0.0
C444 C 0.55013 1.00447 0.18909 0.0
C445 C 0.47846 0.96588 0.17514 0.0
C446 C 0.42768 0.84746 0.1802 0.0
H447 H 0.21224 0.72661 0.15222 0.0
H448 H 0.27646 0.79087 0.15544 0.0
H449 H 0.39099 0.78217 0.17857 0.0
H450 H 0.56862 0.96506 0.20457 0.0
H451 H 0.505 0.90158 0.19883 0.0
H452 H 0.3917 0.91274 0.17554 0.0
C453 C 0.27519 0.76408 0.16238 0.0
C454 C 0.38993 0.81009 0.17805 0.0
C455 C 0.23756 0.72639 0.16036 0.0
C456 C 0.54424 0.96618 0.19588 0.0
C457 C 0.50683 0.92903 0.19253 0.0
C458 C 0.39268 0.88478 0.17609 0.0
C459 C 0.31048 0.76722 0.17268 0.0
C460 C 0.35197 0.80848 0.17487 0.0
C461 C 0.47223 0.92734 0.18224 0.0
C462 C 0.43062 0.88634 0.1794 0.0
H463 H 0.26606 0.66511 0.18563 0.0
H464 H 0.32996 0.7291 0.18925 0.0
H465 H 0.32754 0.84922 0.1718 0.0
H466 H 0.51806 1.03142 0.17344 0.0
H467 H 0.45401 0.96763 0.16698 0.0
C468 C 0.67403 0.22056 0.50258 0.0
C469 C 0.6381 0.18235 0.50006 0.0
C470 C 0.67344 0.25787 0.50504 0.0
C471 C 0.59993 0.3016 0.51284 0.0
H472 H 0.69813 0.40517 0.50683 0.0
C473 C 0.59854 0.45546 0.53134 0.0
C474 C 0.63012 0.49429 0.52505 0.0
C475 C 0.59966 0.41893 0.52751 0.0
C476 C 0.66987 0.37694 0.50848 0.0
H477 H 0.57288 0.1561 0.49808 0.0
H478 H 0.57163 0.21928 0.50166 0.0
H479 H 0.69973 0.34255 0.50174 0.0
H480 H 0.68814 0.52286 0.50912 0.0
H481 H 0.68974 0.46001 0.50168 0.0
H482 H 0.56975 0.33568 0.51888 0.0
C483 C 0.60097 0.22123 0.50228 0.0
C484 C 0.6709 0.33989 0.50573 0.0
C485 C 0.60159 0.18399 0.5 0.0
C486 C 0.66266 0.49419 0.51407 0.0
C487 C 0.66375 0.45738 0.51009 0.0
C488 C 0.59886 0.33853 0.51544 0.0
C489 C 0.63684 0.25973 0.50502 0.0
C490 C 0.63595 0.30065 0.50787 0.0
C491 C 0.63245 0.4183 0.51693 0.0
C492 C 0.63379 0.37776 0.51349 0.0
H493 H 0.70312 0.2218 0.50291 0.0
H494 H 0.70231 0.28533 0.50727 0.0
H495 H 0.57177 0.27354 0.51505 0.0
H496 H 0.57292 0.45334 0.53998 0.0
H497 H 0.57467 0.39113 0.53361 0.0
C498 C 0.49706 0.62839 0.83741 0.0
C499 C 0.49986 0.59245 0.83797 0.0
C500 C 0.45949 0.62811 0.84048 0.0
C501 C 0.34212 0.55664 0.84291 0.0
H502 H 0.34243 0.65197 0.86516 0.0
C503 C 0.18698 0.56251 0.85018 0.0
C504 C 0.18329 0.58769 0.86593 0.0
C505 C 0.22457 0.56311 0.84651 0.0
C506 C 0.34095 0.62458 0.85904 0.0
H507 H 0.46212 0.52756 0.84243 0.0
H508 H 0.39814 0.52694 0.84757 0.0
H509 H 0.40637 0.65284 0.85986 0.0
H510 H 0.21932 0.63425 0.88966 0.0
H511 H 0.2832 0.63516 0.88362 0.0
H512 H 0.27667 0.52827 0.84226 0.0
C513 C 0.42496 0.5559 0.84458 0.0
C514 C 0.3786 0.62526 0.85569 0.0
C515 C 0.46251 0.55625 0.84167 0.0
C516 C 0.21963 0.61378 0.87757 0.0
C517 C 0.25717 0.61462 0.87381 0.0
C518 C 0.30447 0.55606 0.8461 0.0
C519 C 0.42197 0.5918 0.84416 0.0
C520 C 0.38065 0.59127 0.84757 0.0
C521 C 0.26111 0.58921 0.85821 0.0
C522 C 0.30242 0.58996 0.85438 0.0
H523 H 0.52422 0.65726 0.83467 0.0
H524 H 0.46005 0.65684 0.83965 0.0
H525 H 0.34068 0.52948 0.83643 0.0
H526 H 0.16044 0.54153 0.84081 0.0
H527 H 0.22481 0.54301 0.83416 0.0
C528 C 0.96125 0.45747 0.16958 0.0
C529 C 0.99954 0.45941 0.16854 0.0
C530 C 0.92384 0.42001 0.17251 0.0
C531 C 0.8761 0.30156 0.17304 0.0
H532 H 0.78235 0.30314 0.1955 0.0
C533 C 0.71482 0.14671 0.18082 0.0
C534 C 0.68501 0.14371 0.19558 0.0
C535 C 0.75211 0.18408 0.17729 0.0
C536 C 0.80784 0.30118 0.18934 0.0
H537 H 1.0256 0.42008 0.17003 0.0
H538 H 0.96214 0.35637 0.17514 0.0
H539 H 0.84565 0.36646 0.19056 0.0
H540 H 0.67335 0.18104 0.21752 0.0
H541 H 0.7368 0.2442 0.21198 0.0
H542 H 0.8384 0.23618 0.17216 0.0
C543 C 0.96036 0.38379 0.17344 0.0
C544 C 0.84508 0.33862 0.18617 0.0
C545 C 0.99772 0.42123 0.17056 0.0
C546 C 0.69481 0.1806 0.20634 0.0
C547 C 0.7319 0.21786 0.20279 0.0
C548 C 0.8388 0.2641 0.17616 0.0
C549 C 0.92188 0.38162 0.17459 0.0
C550 C 0.88079 0.34038 0.17793 0.0
C551 C 0.76218 0.22117 0.18818 0.0
C552 C 0.80315 0.26236 0.18449 0.0
H553 H 0.96 0.48525 0.16813 0.0
H554 H 0.89616 0.42148 0.17288 0.0
H555 H 0.90138 0.29969 0.16646 0.0
H556 H 0.70973 0.11981 0.17212 0.0
H557 H 0.77301 0.18362 0.16568 0.0
C558 C 0.16516 0.56319 0.08836 0.0
C559 C 0.12744 0.55398 0.09709 0.0
C560 C 0.17056 0.56431 0.06572 0.0
C561 C 0.11385 0.52968 0.01291 0.0
H562 H 0.20967 0.62027 0.9883 0.0
C563 C 0.13654 0.5443 0.91969 0.0
C564 C 0.14667 0.58253 0.91123 0.0
C565 C 0.14024 0.53926 0.9421 0.0
C566 C 0.18277 0.59468 0.99487 0.0
H567 H 1.06561 0.53785 0.08854 0.0
H568 H 0.07485 0.53927 0.04939 0.0
H569 H 0.20264 0.61351 0.02779 0.0
H570 H 0.16985 0.64556 0.91941 0.0
H571 H 0.17777 0.63744 0.95833 0.0
H572 H 0.09345 0.51134 0.98007 0.0
C573 C 0.10035 0.54559 0.05997 0.0
C574 C 0.17887 0.59061 0.01758 0.0
C575 C 0.09509 0.54493 0.08253 0.0
C576 C 0.16306 0.61604 0.92544 0.0
C577 C 0.16719 0.6112 0.94779 0.0
C578 C 0.11793 0.53351 0.99024 0.0
C579 C 0.13826 0.55574 0.05116 0.0
C580 C 0.14403 0.5584 0.02695 0.0
C581 C 0.15434 0.57245 0.95661 0.0
C582 C 0.15217 0.56639 0.98083 0.0
H583 H 0.19083 0.57053 0.09901 0.0
H584 H 0.2001 0.57191 0.0596 0.0
H585 H 0.08677 0.50424 0.01945 0.0
H586 H 0.12277 0.51783 0.90917 0.0
H587 H 0.13046 0.50904 0.9482 0.0
C588 C 0.68796 0.10791 0.41829 0.0
C589 C 0.64976 0.08334 0.42775 0.0
C590 C 0.69157 0.11426 0.39565 0.0
C591 C 0.62941 0.1054 0.34583 0.0
H592 H 0.72104 0.11328 0.31468 0.0
C593 C 0.6721 0.0897 0.25151 0.0
C594 C 0.65128 0.10672 0.24078 0.0
C595 C 0.6782 0.09339 0.27417 0.0
C596 C 0.69509 0.11101 0.32304 0.0
H597 H 0.58552 0.04559 0.42035 0.0
H598 H 0.59184 0.05586 0.38136 0.0
H599 H 0.71779 0.10464 0.35408 0.0
H600 H 0.62152 0.14189 0.24534 0.0
H601 H 0.63423 0.15083 0.28454 0.0
H602 H 0.60573 0.10997 0.31492 0.0
C603 C 0.61908 0.0712 0.39133 0.0
C604 C 0.69345 0.10649 0.3458 0.0
C605 C 0.61547 0.06501 0.41385 0.0
C606 C 0.63891 0.12968 0.25306 0.0
C607 C 0.6453 0.13379 0.27566 0.0
C608 C 0.63097 0.10977 0.32316 0.0
C609 C 0.6571 0.09617 0.38179 0.0
C610 C 0.66029 0.1031 0.35757 0.0
C611 C 0.66348 0.11421 0.28677 0.0
C612 C 0.66367 0.11237 0.31128 0.0
H613 H 0.71511 0.12266 0.42837 0.0
H614 H 0.72137 0.13398 0.38909 0.0
H615 H 0.60367 0.1037 0.35414 0.0
H616 H 0.68061 0.07063 0.24254 0.0
H617 H 0.69192 0.07745 0.2819 0.0
C618 C 0.6489 0.62411 0.75348 0.0
C619 C 0.61521 0.59358 0.76451 0.0
C620 C 0.64944 0.62581 0.73063 0.0
C621 C 0.59686 0.56237 0.6811 0.0
H622 H 0.65379 0.66534 0.65104 0.0
C623 C 0.58498 0.5686 0.58793 0.0
C624 C 0.62159 0.59079 0.57675 0.0
C625 C 0.58321 0.57324 0.61042 0.0
C626 C 0.63789 0.6363 0.65916 0.0
H627 H 0.55523 0.54133 0.75979 0.0
H628 H 0.5556 0.54485 0.72031 0.0
H629 H 0.65263 0.66413 0.69076 0.0
H630 H 0.6847 0.63656 0.58025 0.0
H631 H 0.68172 0.64574 0.61962 0.0
H632 H 0.58185 0.53461 0.64955 0.0
C633 C 0.58229 0.567 0.72917 0.0
C634 C 0.63734 0.63551 0.68205 0.0
C635 C 0.58192 0.56508 0.75198 0.0
C636 C 0.65587 0.61989 0.58836 0.0
C637 C 0.65415 0.62475 0.61096 0.0
C638 C 0.59709 0.56321 0.65829 0.0
C639 C 0.61616 0.59723 0.71802 0.0
C640 C 0.61679 0.59848 0.69346 0.0
C641 C 0.61814 0.60023 0.62246 0.0
C642 C 0.61753 0.60014 0.64692 0.0
H643 H 0.67519 0.64658 0.7625 0.0
H644 H 0.67641 0.64924 0.72289 0.0
H645 H 0.58154 0.53309 0.68899 0.0
H646 H 0.55838 0.54542 0.57942 0.0
H647 H 0.55476 0.55435 0.61854 0.0
C648 C 0.57909 1.02331 0.57074 0.0
C649 C 0.61486 0.05619 0.56269 0.0
C650 C 0.56639 1.02424 0.59177 0.0
C651 C 0.57491 0.09634 0.63395 0.0
H652 H 0.51986 0.9989 0.6688 0.0
C653 C 0.51573 0.09185 0.72122 0.0
C654 C 0.47798 0.05809 0.72625 0.0
C655 C 0.53382 0.09395 0.70125 0.0
C656 C 0.5348 1.02627 0.65915 0.0
H657 H 0.66634 0.11512 0.57081 0.0
H658 H 0.64429 0.11652 0.60783 0.0
H659 H 0.55214 0.99736 0.63515 0.0
H660 H 0.42905 1.0009 0.71437 0.0
H661 H 0.46025 1.00457 0.67926 0.0
H662 H 0.55735 0.12514 0.65805 0.0
C663 C 0.62584 0.09027 0.59765 0.0
C664 C 0.55342 1.02543 0.63991 0.0
C665 C 0.63866 0.08929 0.57653 0.0
C666 C 0.45798 1.0273 0.71068 0.0
C667 C 0.47606 1.02926 0.69078 0.0
C668 C 0.55637 0.09721 0.65328 0.0
C669 C 0.58914 0.05805 0.60534 0.0
C670 C 0.57312 0.06025 0.62689 0.0
C671 C 0.51462 0.06213 0.68606 0.0
C672 C 0.53554 0.06198 0.66589 0.0
H673 H 0.56004 0.99725 0.56055 0.0
H674 H 0.53777 0.9991 0.59704 0.0
H675 H 0.58941 0.12355 0.62416 0.0
H676 H 0.53248 0.11527 0.73324 0.0
H677 H 0.56374 0.11942 0.69818 0.0
C678 C 0.60221 0.60806 0.9125 0.0
C679 C 0.60578 0.57989 0.89926 0.0
C680 C 0.59466 0.60066 0.93476 0.0
C681 C 0.6009 0.53808 0.97938 0.0
H682 H 0.52115 0.55723 0.00755 0.0
C683 C 0.5343 0.46587 0.06098 0.0
C684 C 0.53508 0.492 0.07725 0.0
C685 C 0.54136 0.47855 0.03941 0.0
C686 C 0.54371 0.55206 -0.0001 0.0
H687 H 0.60389 0.52174 0.899 0.0
H688 H 0.59034 0.50879 0.93735 0.0
H689 H 0.53878 0.57745 0.96961 0.0
H690 H 0.54272 0.55131 0.08395 0.0
H691 H 0.55418 0.57348 0.04589 0.0
H692 H 0.60525 0.51195 0.00939 0.0
C693 C 0.59417 0.53698 0.9308 0.0
C694 C 0.55395 0.56377 0.97824 0.0
C695 C 0.60177 0.54436 0.90871 0.0
C696 C 0.54115 0.53042 0.07152 0.0
C697 C 0.54794 0.5431 0.04985 0.0
C698 C 0.59048 0.52616 0.00086 0.0
C699 C 0.5906 0.565 0.94414 0.0
C700 C 0.58216 0.55622 0.96764 0.0
C701 C 0.54925 0.51765 0.03371 0.0
C702 C 0.56129 0.53237 0.01122 0.0
H703 H 0.60503 0.63566 0.90568 0.0
H704 H 0.59232 0.62296 0.94464 0.0
H705 H 0.62349 0.53273 0.97189 0.0
H706 H 0.52971 0.43616 0.06517 0.0
H707 H 0.54162 0.45809 0.02725 0.0
C708 C 0.13726 0.60746 0.24309 0.0
C709 C 0.11132 0.60793 0.22678 0.0
C710 C 0.13465 0.61845 0.26445 0.0
C711 C 0.08993 0.66899 0.29737 0.0
H712 H 0.10695 0.6118 0.34496 0.0
C713 C 1.03396 0.66115 0.38544 0.0
C714 C 1.06274 0.66951 0.40201 0.0
C715 C 1.04332 0.65848 0.36384 0.0
C716 C 0.10251 0.62825 0.3318 0.0
H717 H 1.06184 0.61954 0.22008 0.0
H718 H 1.05601 0.63684 0.25728 0.0
H719 H 0.11628 0.59668 0.30771 0.0
H720 H 0.12344 0.68118 0.40938 0.0
H721 H 0.13983 0.67595 0.37151 0.0
H722 H 0.07417 0.69899 0.32168 0.0
C723 C 0.07948 0.62958 0.25362 0.0
C724 C 0.10804 0.6198 0.31043 0.0
C725 C 0.08259 0.61933 0.23225 0.0
C726 C 0.10122 0.67566 0.39671 0.0
C727 C 0.11036 0.67222 0.37518 0.0
C728 C 0.08367 0.67685 0.31872 0.0
C729 C 0.10554 0.62945 0.27003 0.0
C730 C 0.10156 0.63985 0.29289 0.0
C731 C 0.08133 0.66321 0.3586 0.0
C732 C 0.08975 0.65643 0.33608 0.0
H733 H 0.15994 0.59912 0.2393 0.0
H734 H 0.15572 0.61862 0.27652 0.0
H735 H 0.08556 0.68579 0.28439 0.0
H736 H 1.00399 0.65579 0.38937 0.0
H737 H 1.02034 0.65111 0.35133 0.0
loop_
_geom_bond_atom_site_label_1
_geom_bond_atom_site_label_2
_geom_bond_distance
_geom_bond_site_symmetry_2
_ccdc_geom_bond_type
Tb0 C9 2.764 . S
Tb0 O10 2.325 . S
Tb0 O13 2.303 . S
Tb0 O17 2.322 1_655 S
Tb0 O18 2.349 . S
Tb0 O21 2.415 . S
Tb0 O22 2.399 . S
Tb1 O11 2.322 1_455 S
Tb1 O12 2.349 . S
Tb1 O14 2.415 . S
Tb1 O15 2.399 . S
Tb1 O16 2.325 . S
Tb1 O19 2.303 . S
Tb1 C30 2.764 . S
C2 O18 1.261 1_455 S
C2 O19 1.257 . S
C3 C6 1.358 . S
C3 C7 1.332 . S
C3 C9 1.504 . S
C4 C5 1.373 . S
C4 C8 1.308 . S
C5 C4 1.373 . S
C5 C6 1.429 . S
C5 H32 0.932 . S
C6 C3 1.358 . S
C6 C5 1.429 . S
C6 H33 0.930 . S
C7 C3 1.332 . S
C7 C8 1.394 . S
C7 H34 0.932 . S
C8 C4 1.308 . S
C8 C7 1.394 . S
C8 H35 0.929 . S
C9 Tb0 2.764 . S
C9 C3 1.504 . S
C9 O21 1.239 . S
C9 O22 1.263 . S
O10 Tb0 2.325 . S
O10 C20 1.236 . S
O11 Tb1 2.322 1_655 S
O11 C20 1.257 . S
O12 Tb1 2.349 . S
O12 C23 1.283 . S
O13 Tb0 2.303 . S
O13 C23 1.246 1_655 S
O14 Tb1 2.415 . S
O14 C30 1.239 . S
O15 Tb1 2.399 . S
O15 C30 1.263 . S
O16 Tb1 2.325 . S
O16 C31 1.236 . S
O17 Tb0 2.322 1_455 S
O17 C31 1.257 . S
O18 Tb0 2.349 . S
O18 C2 1.261 1_655 S
O19 Tb1 2.303 . S
O19 C2 1.257 . S
C20 O10 1.236 . S
C20 O11 1.257 . S
O21 Tb0 2.415 . S
O21 C9 1.239 . S
O22 Tb0 2.399 . S
O22 C9 1.263 . S
C23 O12 1.283 . S
C23 O13 1.246 1_455 S
C24 C27 1.358 . S
C24 C28 1.332 . S
C24 C30 1.504 . S
C25 C26 1.373 . S
C25 C29 1.308 . S
C26 C25 1.373 . S
C26 C27 1.429 . S
C26 H36 0.932 . S
C27 C24 1.358 . S
C27 C26 1.429 . S
C27 H37 0.930 . S
C28 C24 1.332 . S
C28 C29 1.394 . S
C28 H38 0.932 . S
C29 C25 1.308 . S
C29 C28 1.394 . S
C29 H39 0.929 . S
C30 Tb1 2.764 . S
C30 O14 1.239 . S
C30 O15 1.263 . S
C30 C24 1.504 . S
C31 O16 1.236 . S
C31 O17 1.257 . S
H32 C5 0.932 . S
H33 C6 0.930 . S
H34 C7 0.932 . S
H35 C8 0.929 . S
H36 C26 0.932 . S
H37 C27 0.930 . S
H38 C28 0.932 . S
H39 C29 0.929 . S
Tb40 C49 2.764 1_545 S
Tb40 O50 2.325 1_545 S
Tb40 O53 2.303 . S
Tb40 O57 2.322 . S
Tb40 O58 2.349 . S
Tb40 O61 2.415 1_545 S
Tb40 O62 2.399 1_545 S
Tb41 O51 2.322 1_545 S
Tb41 O52 2.349 . S
Tb41 O54 2.415 . S
Tb41 O55 2.399 . S
Tb41 O56 2.325 . S
Tb41 O59 2.303 . S
Tb41 C70 2.764 . S
C42 O58 1.261 . S
C42 O59 1.257 . S
C43 C46 1.358 . S
C43 C47 1.332 . S
C43 C49 1.504 . S
C44 C45 1.373 . S
C44 C48 1.308 . S
C45 C44 1.373 . S
C45 C46 1.429 . S
C45 H72 0.932 . S
C46 C43 1.358 . S
C46 C45 1.429 . S
C46 H73 0.930 . S
C47 C43 1.332 . S
C47 C48 1.394 . S
C47 H74 0.932 . S
C48 C44 1.308 . S
C48 C47 1.394 . S
C48 H75 0.929 . S
C49 Tb40 2.764 1_565 S
C49 C43 1.504 . S
C49 O61 1.239 . S
C49 O62 1.263 . S
O50 Tb40 2.325 1_565 S
O50 C60 1.236 . S
O51 Tb41 2.322 1_565 S
O51 C60 1.257 . S
O52 Tb41 2.349 . S
O52 C63 1.261 . S
O53 Tb40 2.303 . S
O53 C63 1.257 . S
O54 Tb41 2.415 . S
O54 C70 1.239 . S
O55 Tb41 2.399 . S
O55 C70 1.263 . S
O56 Tb41 2.325 . S
O56 C71 1.236 . S
O57 Tb40 2.322 . S
O57 C71 1.257 . S
O58 Tb40 2.349 . S
O58 C42 1.261 . S
O59 Tb41 2.303 . S
O59 C42 1.257 . S
C60 O50 1.236 . S
C60 O51 1.257 . S
O61 Tb40 2.415 1_565 S
O61 C49 1.239 . S
O62 Tb40 2.399 1_565 S
O62 C49 1.263 . S
C63 O52 1.261 . S
C63 O53 1.257 . S
C64 C67 1.358 . S
C64 C68 1.332 . S
C64 C70 1.504 . S
C65 C66 1.373 . S
C65 C69 1.308 . S
C66 C65 1.373 . S
C66 C67 1.429 . S
C66 H76 0.932 . S
C67 C64 1.358 . S
C67 C66 1.429 . S
C67 H77 0.930 . S
C68 C64 1.332 . S
C68 C69 1.394 . S
C68 H78 0.932 . S
C69 C65 1.308 . S
C69 C68 1.394 . S
C69 H79 0.929 . S
C70 Tb41 2.764 . S
C70 O54 1.239 . S
C70 O55 1.263 . S
C70 C64 1.504 . S
C71 O56 1.236 . S
C71 O57 1.257 . S
H72 C45 0.932 . S
H73 C46 0.930 . S
H74 C47 0.932 . S
H75 C48 0.929 . S
H76 C66 0.932 . S
H77 C67 0.930 . S
H78 C68 0.932 . S
H79 C69 0.929 . S
Tb80 C89 2.764 . S
Tb80 O90 2.325 . S
Tb80 O93 2.303 . S
Tb80 O97 2.322 . S
Tb80 O98 2.349 . S
Tb80 O101 2.415 . S
Tb80 O102 2.399 . S
Tb81 O91 2.322 . S
Tb81 O92 2.349 . S
Tb81 O94 2.415 . S
Tb81 O95 2.399 . S
Tb81 O96 2.325 . S
Tb81 O99 2.303 . S
Tb81 C110 2.764 . S
C82 O98 1.261 . S
C82 O99 1.257 . S
C83 C86 1.358 . S
C83 C87 1.332 . S
C83 C89 1.504 . S
C84 C85 1.373 . S
C84 C88 1.308 . S
C85 C84 1.373 . S
C85 C86 1.429 . S
C85 H112 0.932 . S
C86 C83 1.358 . S
C86 C85 1.429 . S
C86 H113 0.930 . S
C87 C83 1.332 . S
C87 C88 1.394 . S
C87 H114 0.932 . S
C88 C84 1.308 . S
C88 C87 1.394 . S
C88 H115 0.929 . S
C89 Tb80 2.764 . S
C89 C83 1.504 . S
C89 O101 1.239 . S
C89 O102 1.263 . S
O90 Tb80 2.325 . S
O90 C100 1.236 . S
O91 Tb81 2.322 . S
O91 C100 1.257 . S
O92 Tb81 2.349 . S
O92 C103 1.261 . S
O93 Tb80 2.303 . S
O93 C103 1.257 . S
O94 Tb81 2.415 . S
O94 C110 1.239 . S
O95 Tb81 2.399 . S
O95 C110 1.263 . S
O96 Tb81 2.325 . S
O96 C111 1.236 . S
O97 Tb80 2.322 . S
O97 C111 1.257 . S
O98 Tb80 2.349 . S
O98 C82 1.261 . S
O99 Tb81 2.303 . S
O99 C82 1.257 . S
C100 O90 1.236 . S
C100 O91 1.257 . S
O101 Tb80 2.415 . S
O101 C89 1.239 . S
O102 Tb80 2.399 . S
O102 C89 1.263 . S
C103 O92 1.261 . S
C103 O93 1.257 . S
C104 C107 1.358 . S
C104 C108 1.332 . S
C104 C110 1.504 . S
C105 C106 1.373 . S
C105 C109 1.308 . S
C106 C105 1.373 . S
C106 C107 1.429 . S
C106 H116 0.932 . S
C107 C104 1.358 . S
C107 C106 1.429 . S
C107 H117 0.930 . S
C108 C104 1.332 . S
C108 C109 1.394 . S
C108 H118 0.932 . S
C109 C105 1.308 . S
C109 C108 1.394 . S
C109 H119 0.929 . S
C110 Tb81 2.764 . S
C110 O94 1.239 . S
C110 O95 1.263 . S
C110 C104 1.504 . S
C111 O96 1.236 . S
C111 O97 1.257 . S
H112 C85 0.932 . S
H113 C86 0.930 . S
H114 C87 0.932 . S
H115 C88 0.929 . S
H116 C106 0.932 . S
H117 C107 0.930 . S
H118 C108 0.932 . S
H119 C109 0.929 . S
C120 N121 1.317 1_565 S
C120 N122 1.348 . S
C120 C123 1.485 1_565 S
N121 C120 1.317 1_545 S
N121 N125 1.370 . S
N122 C120 1.348 . S
N122 C124 1.346 . S
C123 C120 1.485 1_545 S
C123 H127 0.960 . S
C123 H128 0.961 1_545 S
C123 H129 0.960 . S
C124 N122 1.346 . S
C124 N125 1.307 1_565 S
C124 C126 1.486 . S
N125 N121 1.370 . S
N125 C124 1.307 1_545 S
C126 C124 1.486 . S
C126 H130 0.960 . S
C126 H131 0.960 . S
C126 H132 0.959 . S
H127 C123 0.960 . S
H128 C123 0.961 1_565 S
H129 C123 0.960 . S
H130 C126 0.960 . S
H131 C126 0.960 . S
H132 C126 0.959 . S
C133 N134 1.317 . S
C133 N135 1.348 . S
C133 C136 1.485 . S
N134 C133 1.317 . S
N134 N138 1.370 . S
N135 C133 1.348 . S
N135 C137 1.346 . S
C136 C133 1.485 . S
C136 H140 0.960 . S
C136 H141 0.961 . S
C136 H142 0.960 . S
C137 N135 1.346 . S
C137 N138 1.307 . S
C137 C139 1.486 . S
N138 N134 1.370 . S
N138 C137 1.307 . S
C139 C137 1.486 . S
C139 H143 0.960 . S
C139 H144 0.960 . S
C139 H145 0.959 . S
H140 C136 0.960 . S
H141 C136 0.961 . S
H142 C136 0.960 . S
H143 C139 0.960 . S
H144 C139 0.960 . S
H145 C139 0.959 . S
C146 N147 1.317 . S
C146 N148 1.348 . S
C146 C149 1.485 . S
N147 C146 1.317 . S
N147 N151 1.370 . S
N148 C146 1.348 . S
N148 C150 1.346 . S
C149 C146 1.485 . S
C149 H153 0.960 . S
C149 H154 0.961 . S
C149 H155 0.960 . S
C150 N148 1.346 . S
C150 N151 1.307 . S
C150 C152 1.486 1_455 S
N151 N147 1.370 . S
N151 C150 1.307 . S
C152 C150 1.486 1_655 S
C152 H156 0.960 . S
C152 H157 0.960 . S
C152 H158 0.959 . S
H153 C149 0.960 . S
H154 C149 0.961 . S
H155 C149 0.960 . S
H156 C152 0.960 . S
H157 C152 0.960 . S
H158 C152 0.959 . S
C159 N160 1.317 1_455 S
C159 N161 1.348 . S
C159 C162 1.485 . S
N160 C159 1.317 1_655 S
N160 N164 1.370 1_655 S
N161 C159 1.348 . S
N161 C163 1.346 . S
C162 C159 1.485 . S
C162 H166 0.960 . S
C162 H167 0.961 . S
C162 H168 0.960 1_455 S
C163 N161 1.346 . S
C163 N164 1.307 . S
C163 C165 1.486 . S
N164 N160 1.370 1_455 S
N164 C163 1.307 . S
C165 C163 1.486 . S
C165 H169 0.960 . S
C165 H170 0.960 . S
C165 H171 0.959 . S
H166 C162 0.960 . S
H167 C162 0.961 . S
H168 C162 0.960 1_655 S
H169 C165 0.960 . S
H170 C165 0.960 . S
H171 C165 0.959 . S
C172 N173 1.317 . S
C172 N174 1.348 . S
C172 C175 1.485 . S
N173 C172 1.317 . S
N173 N177 1.370 . S
N174 C172 1.348 . S
N174 C176 1.346 . S
C175 C172 1.485 . S
C175 H179 0.960 . S
C175 H180 0.961 . S
C175 H181 0.960 . S
C176 N174 1.346 . S
C176 N177 1.307 . S
C176 C178 1.486 . S
N177 N173 1.370 . S
N177 C176 1.307 . S
C178 C176 1.486 . S
C178 H182 0.960 . S
C178 H183 0.960 . S
C178 H184 0.959 . S
H179 C175 0.960 . S
H180 C175 0.961 . S
H181 C175 0.960 . S
H182 C178 0.960 . S
H183 C178 0.960 . S
H184 C178 0.959 . S
C185 N186 1.317 . S
C185 N187 1.348 . S
C185 C188 1.485 . S
N186 C185 1.317 . S
N186 N190 1.370 . S
N187 C185 1.348 . S
N187 C189 1.346 . S
C188 C185 1.485 . S
C188 H192 0.960 . S
C188 H193 0.961 . S
C188 H194 0.960 . S
C189 N187 1.346 . S
C189 N190 1.307 . S
C189 C191 1.486 . S
N190 N186 1.370 . S
N190 C189 1.307 . S
C191 C189 1.486 . S
C191 H195 0.960 . S
C191 H196 0.960 . S
C191 H197 0.959 . S
H192 C188 0.960 . S
H193 C188 0.961 . S
H194 C188 0.960 . S
H195 C191 0.960 . S
H196 C191 0.960 . S
H197 C191 0.959 . S
C198 C199 1.349 . S
C198 C200 1.327 . S
C198 H223 0.950 . S
C199 C198 1.349 . S
C199 C215 1.349 . S
C200 C198 1.327 . S
C200 C219 1.429 . S
C200 H224 0.950 . S
C201 C218 1.574 . S
C201 C220 1.368 . S
C201 H225 0.949 . S
H202 C206 0.949 . S
C203 C204 1.349 . S
C203 C205 1.327 . S
C203 H226 0.950 . S
C204 C203 1.349 . S
C204 C216 1.349 . S
C205 C203 1.327 . S
C205 C221 1.429 . S
C205 H227 0.950 . S
C206 H202 0.949 . S
C206 C214 1.574 . S
C206 C222 1.368 . S
H207 C215 0.950 . S
H208 C213 0.950 . S
H209 C214 0.949 . S
H210 C216 0.950 . S
H211 C217 0.950 . S
H212 C218 0.949 . S
C213 H208 0.950 . S
C213 C215 1.327 . S
C213 C219 1.429 . S
C214 C206 1.574 . S
C214 H209 0.949 . S
C214 C220 1.368 . S
C215 C199 1.349 . S
C215 H207 0.950 . S
C215 C213 1.327 . S
C216 C204 1.349 . S
C216 H210 0.950 . S
C216 C217 1.327 . S
C217 H211 0.950 . S
C217 C216 1.327 . S
C217 C221 1.429 . S
C218 C201 1.574 . S
C218 H212 0.949 . S
C218 C222 1.368 . S
C219 C200 1.429 . S
C219 C213 1.429 . S
C219 C220 1.523 . S
C220 C201 1.368 . S
C220 C214 1.368 . S
C220 C219 1.523 . S
C221 C205 1.429 . S
C221 C217 1.429 . S
C221 C222 1.523 . S
C222 C206 1.368 . S
C222 C218 1.368 . S
C222 C221 1.523 . S
H223 C198 0.950 . S
H224 C200 0.950 . S
H225 C201 0.949 . S
H226 C203 0.950 . S
H227 C205 0.950 . S
C228 C229 1.349 . S
C228 C230 1.327 . S
C228 H253 0.950 . S
C229 C228 1.349 . S
C229 C245 1.349 . S
C230 C228 1.327 . S
C230 C249 1.429 . S
C230 H254 0.950 . S
C231 C248 1.574 . S
C231 C250 1.368 . S
C231 H255 0.949 . S
H232 C236 0.949 . S
C233 C234 1.349 . S
C233 C235 1.327 . S
C233 H256 0.950 . S
C234 C233 1.349 . S
C234 C246 1.349 . S
C235 C233 1.327 . S
C235 C251 1.429 . S
C235 H257 0.950 . S
C236 H232 0.949 . S
C236 C244 1.574 . S
C236 C252 1.368 . S
H237 C245 0.950 . S
H238 C243 0.950 . S
H239 C244 0.949 . S
H240 C246 0.950 1_455 S
H241 C247 0.950 . S
H242 C248 0.949 . S
C243 H238 0.950 . S
C243 C245 1.327 . S
C243 C249 1.429 . S
C244 C236 1.574 . S
C244 H239 0.949 . S
C244 C250 1.368 . S
C245 C229 1.349 . S
C245 H237 0.950 . S
C245 C243 1.327 . S
C246 C234 1.349 . S
C246 H240 0.950 1_655 S
C246 C247 1.327 . S
C247 H241 0.950 . S
C247 C246 1.327 . S
C247 C251 1.429 . S
C248 C231 1.574 . S
C248 H242 0.949 . S
C248 C252 1.368 . S
C249 C230 1.429 . S
C249 C243 1.429 . S
C249 C250 1.523 . S
C250 C231 1.368 . S
C250 C244 1.368 . S
C250 C249 1.523 . S
C251 C235 1.429 . S
C251 C247 1.429 . S
C251 C252 1.523 . S
C252 C236 1.368 . S
C252 C248 1.368 . S
C252 C251 1.523 . S
H253 C228 0.950 . S
H254 C230 0.950 . S
H255 C231 0.949 . S
H256 C233 0.950 . S
H257 C235 0.950 . S
C258 C259 1.349 . S
C258 C260 1.327 . S
C258 H283 0.950 . S
C259 C258 1.349 . S
C259 C275 1.349 . S
C260 C258 1.327 . S
C260 C279 1.429 . S
C260 H284 0.950 . S
C261 C278 1.574 . S
C261 C280 1.368 . S
C261 H285 0.949 . S
H262 C266 0.949 . S
C263 C264 1.349 1_565 S
C263 C265 1.327 . S
C263 H286 0.950 . S
C264 C263 1.349 1_545 S
C264 C276 1.349 . S
C265 C263 1.327 . S
C265 C281 1.429 . S
C265 H287 0.950 . S
C266 H262 0.949 . S
C266 C274 1.574 . S
C266 C282 1.368 . S
H267 C275 0.950 . S
H268 C273 0.950 . S
H269 C274 0.949 . S
H270 C276 0.950 . S
H271 C277 0.954 1_545 S
H272 C278 0.949 . S
C273 H268 0.950 . S
C273 C275 1.327 . S
C273 C279 1.429 . S
C274 C266 1.574 . S
C274 H269 0.949 . S
C274 C280 1.368 . S
C275 C259 1.349 . S
C275 H267 0.950 . S
C275 C273 1.327 . S
C276 C264 1.349 . S
C276 H270 0.950 . S
C276 C277 1.299 1_545 S
C277 H271 0.954 1_565 S
C277 C276 1.299 1_565 S
C277 C281 1.452 . S
C278 C261 1.574 . S
C278 H272 0.949 . S
C278 C282 1.368 . S
C279 C260 1.429 . S
C279 C273 1.429 . S
C279 C280 1.523 . S
C280 C261 1.368 . S
C280 C274 1.368 . S
C280 C279 1.523 . S
C281 C265 1.429 . S
C281 C277 1.452 . S
C281 C282 1.523 . S
C282 C266 1.368 . S
C282 C278 1.368 . S
C282 C281 1.523 . S
H283 C258 0.950 . S
H284 C260 0.950 . S
H285 C261 0.949 . S
H286 C263 0.950 . S
H287 C265 0.950 . S
C288 C289 1.349 . S
C288 C290 1.327 . S
C288 H313 0.950 . S
C289 C288 1.349 . S
C289 C305 1.349 . S
C290 C288 1.327 . S
C290 C309 1.429 . S
C290 H314 0.950 . S
C291 C308 1.574 . S
C291 C310 1.368 . S
C291 H315 0.949 . S
H292 C296 0.949 . S
C293 C294 1.349 . S
C293 C295 1.327 . S
C293 H316 0.950 . S
C294 C293 1.349 . S
C294 C306 1.349 . S
C295 C293 1.327 . S
C295 C311 1.429 . S
C295 H317 0.950 . S
C296 H292 0.949 . S
C296 C304 1.574 . S
C296 C312 1.368 . S
H297 C305 0.950 . S
H298 C303 0.950 . S
H299 C304 0.949 . S
H300 C306 0.950 . S
H301 C307 0.950 . S
H302 C308 0.949 . S
C303 H298 0.950 . S
C303 C305 1.327 . S
C303 C309 1.429 . S
C304 C296 1.574 . S
C304 H299 0.949 . S
C304 C310 1.368 . S
C305 C289 1.349 . S
C305 H297 0.950 . S
C305 C303 1.327 . S
C306 C294 1.349 . S
C306 H300 0.950 . S
C306 C307 1.327 . S
C307 H301 0.950 . S
C307 C306 1.327 . S
C307 C311 1.429 . S
C308 C291 1.574 . S
C308 H302 0.949 . S
C308 C312 1.368 . S
C309 C290 1.429 . S
C309 C303 1.429 . S
C309 C310 1.523 . S
C310 C291 1.368 . S
C310 C304 1.368 . S
C310 C309 1.523 . S
C311 C295 1.429 . S
C311 C307 1.429 . S
C311 C312 1.523 . S
C312 C296 1.368 . S
C312 C308 1.368 . S
C312 C311 1.523 . S
H313 C288 0.950 . S
H314 C290 0.950 . S
H315 C291 0.949 . S
H316 C293 0.950 . S
H317 C295 0.950 . S
C318 C319 1.349 . S
C318 C320 1.327 . S
C318 H343 0.950 . S
C319 C318 1.349 . S
C319 C335 1.349 . S
C320 C318 1.327 . S
C320 C339 1.429 . S
C320 H344 0.950 . S
C321 C338 1.574 . S
C321 C340 1.368 . S
C321 H345 0.949 . S
H322 C326 0.949 . S
C323 C324 1.349 . S
C323 C325 1.327 . S
C323 H346 0.950 . S
C324 C323 1.349 . S
C324 C336 1.349 . S
C325 C323 1.327 . S
C325 C341 1.429 . S
C325 H347 0.950 . S
C326 H322 0.949 . S
C326 C334 1.574 . S
C326 C342 1.368 . S
H327 C335 0.950 . S
H328 C333 0.950 . S
H329 C334 0.949 . S
H330 C336 0.950 . S
H331 C337 0.950 . S
H332 C338 0.949 . S
C333 H328 0.950 . S
C333 C335 1.327 . S
C333 C339 1.429 . S
C334 C326 1.574 . S
C334 H329 0.949 . S
C334 C340 1.368 . S
C335 C319 1.349 . S
C335 H327 0.950 . S
C335 C333 1.327 . S
C336 C324 1.349 . S
C336 H330 0.950 . S
C336 C337 1.327 . S
C337 H331 0.950 . S
C337 C336 1.327 . S
C337 C341 1.429 . S
C338 C321 1.574 . S
C338 H332 0.949 . S
C338 C342 1.368 . S
C339 C320 1.429 . S
C339 C333 1.429 . S
C339 C340 1.523 . S
C340 C321 1.368 . S
C340 C334 1.368 . S
C340 C339 1.523 . S
C341 C325 1.429 . S
C341 C337 1.429 . S
C341 C342 1.523 . S
C342 C326 1.368 . S
C342 C338 1.368 . S
C342 C341 1.523 . S
H343 C318 0.950 . S
H344 C320 0.950 . S
H345 C321 0.949 . S
H346 C323 0.950 . S
H347 C325 0.950 . S
C348 C349 1.349 . S
C348 C350 1.327 . S
C348 H373 0.950 . S
C349 C348 1.349 . S
C349 C365 1.349 . S
C350 C348 1.327 . S
C350 C369 1.429 . S
C350 H374 0.950 . S
C351 C368 1.574 . S
C351 C370 1.368 . S
C351 H375 0.949 . S
H352 C356 0.949 . S
C353 C354 1.349 . S
C353 C355 1.327 . S
C353 H376 0.950 . S
C354 C353 1.349 . S
C354 C366 1.349 . S
C355 C353 1.327 . S
C355 C371 1.429 . S
C355 H377 0.950 . S
C356 H352 0.949 . S
C356 C364 1.574 . S
C356 C372 1.368 . S
H357 C365 0.950 . S
H358 C363 0.950 . S
H359 C364 0.949 . S
H360 C366 0.950 . S
H361 C367 0.950 . S
H362 C368 0.949 . S
C363 H358 0.950 . S
C363 C365 1.327 . S
C363 C369 1.429 . S
C364 C356 1.574 . S
C364 H359 0.949 . S
C364 C370 1.368 . S
C365 C349 1.349 . S
C365 H357 0.950 . S
C365 C363 1.327 . S
C366 C354 1.349 . S
C366 H360 0.950 . S
C366 C367 1.327 . S
C367 H361 0.950 . S
C367 C366 1.327 . S
C367 C371 1.429 . S
C368 C351 1.574 . S
C368 H362 0.949 . S
C368 C372 1.368 . S
C369 C350 1.429 . S
C369 C363 1.429 . S
C369 C370 1.523 . S
C370 C351 1.368 . S
C370 C364 1.368 . S
C370 C369 1.523 . S
C371 C355 1.429 . S
C371 C367 1.429 . S
C371 C372 1.523 . S
C372 C356 1.368 . S
C372 C368 1.368 . S
C372 C371 1.523 . S
H373 C348 0.950 . S
H374 C350 0.950 . S
H375 C351 0.949 . S
H376 C353 0.950 . S
H377 C355 0.950 . S
C378 C379 1.349 . S
C378 C380 1.327 . S
C378 H403 0.950 . S
C379 C378 1.349 . S
C379 C395 1.349 . S
C380 C378 1.327 . S
C380 C399 1.429 . S
C380 H404 0.950 . S
C381 C398 1.574 . S
C381 C400 1.368 . S
C381 H405 0.949 . S
H382 C386 0.949 . S
C383 C384 1.349 . S
C383 C385 1.327 . S
C383 H406 0.950 . S
C384 C383 1.349 . S
C384 C396 1.349 . S
C385 C383 1.327 . S
C385 C401 1.429 . S
C385 H407 0.950 . S
C386 H382 0.949 . S
C386 C394 1.574 . S
C386 C402 1.368 . S
H387 C395 0.950 . S
H388 C393 0.950 . S
H389 C394 0.949 . S
H390 C396 0.950 . S
H391 C397 0.950 . S
H392 C398 0.949 . S
C393 H388 0.950 . S
C393 C395 1.327 . S
C393 C399 1.429 . S
C394 C386 1.574 . S
C394 H389 0.949 . S
C394 C400 1.368 . S
C395 C379 1.349 . S
C395 H387 0.950 . S
C395 C393 1.327 . S
C396 C384 1.349 . S
C396 H390 0.950 . S
C396 C397 1.327 . S
C397 H391 0.950 . S
C397 C396 1.327 . S
C397 C401 1.429 . S
C398 C381 1.574 . S
C398 H392 0.949 . S
C398 C402 1.368 . S
C399 C380 1.429 . S
C399 C393 1.429 . S
C399 C400 1.523 . S
C400 C381 1.368 . S
C400 C394 1.368 . S
C400 C399 1.523 . S
C401 C385 1.429 . S
C401 C397 1.429 . S
C401 C402 1.523 . S
C402 C386 1.368 . S
C402 C398 1.368 . S
C402 C401 1.523 . S
H403 C378 0.950 . S
H404 C380 0.950 . S
H405 C381 0.949 . S
H406 C383 0.950 . S
H407 C385 0.950 . S
C408 C409 1.349 . S
C408 C410 1.327 . S
C408 H433 0.950 . S
C409 C408 1.349 . S
C409 C425 1.349 . S
C410 C408 1.327 . S
C410 C429 1.429 . S
C410 H434 0.950 . S
C411 C428 1.574 . S
C411 C430 1.368 . S
C411 H435 0.949 . S
H412 C416 0.949 . S
C413 C414 1.349 . S
C413 C415 1.327 . S
C413 H436 0.950 . S
C414 C413 1.349 . S
C414 C426 1.349 . S
C415 C413 1.327 . S
C415 C431 1.429 . S
C415 H437 0.950 . S
C416 H412 0.949 . S
C416 C424 1.574 . S
C416 C432 1.368 . S
H417 C425 0.950 . S
H418 C423 0.950 . S
H419 C424 0.949 . S
H420 C426 0.950 . S
H421 C427 0.950 . S
H422 C428 0.949 . S
C423 H418 0.950 . S
C423 C425 1.327 . S
C423 C429 1.429 . S
C424 C416 1.574 . S
C424 H419 0.949 . S
C424 C430 1.368 . S
C425 C409 1.349 . S
C425 H417 0.950 . S
C425 C423 1.327 . S
C426 C414 1.349 . S
C426 H420 0.950 . S
C426 C427 1.327 . S
C427 H421 0.950 . S
C427 C426 1.327 . S
C427 C431 1.429 . S
C428 C411 1.574 . S
C428 H422 0.949 . S
C428 C432 1.368 . S
C429 C410 1.429 . S
C429 C423 1.429 . S
C429 C430 1.523 . S
C430 C411 1.368 . S
C430 C424 1.368 . S
C430 C429 1.523 . S
C431 C415 1.429 . S
C431 C427 1.429 . S
C431 C432 1.523 . S
C432 C416 1.368 . S
C432 C428 1.368 . S
C432 C431 1.523 . S
H433 C408 0.950 . S
H434 C410 0.950 . S
H435 C411 0.949 . S
H436 C413 0.950 . S
H437 C415 0.950 . S
C438 C439 1.349 . S
C438 C440 1.327 . S
C438 H463 0.950 . S
C439 C438 1.349 . S
C439 C455 1.349 . S
C440 C438 1.327 . S
C440 C459 1.429 . S
C440 H464 0.950 . S
C441 C458 1.574 . S
C441 C460 1.368 . S
C441 H465 0.949 . S
H442 C446 0.949 . S
C443 C444 1.349 . S
C443 C445 1.327 . S
C443 H466 0.950 . S
C444 C443 1.349 . S
C444 C456 1.349 . S
C445 C443 1.327 . S
C445 C461 1.429 . S
C445 H467 0.950 . S
C446 H442 0.949 . S
C446 C454 1.574 . S
C446 C462 1.368 . S
H447 C455 0.950 . S
H448 C453 0.950 . S
H449 C454 0.949 . S
H450 C456 0.950 . S
H451 C457 0.950 . S
H452 C458 0.949 . S
C453 H448 0.950 . S
C453 C455 1.327 . S
C453 C459 1.429 . S
C454 C446 1.574 . S
C454 H449 0.949 . S
C454 C460 1.368 . S
C455 C439 1.349 . S
C455 H447 0.950 . S
C455 C453 1.327 . S
C456 C444 1.349 . S
C456 H450 0.950 . S
C456 C457 1.327 . S
C457 H451 0.950 . S
C457 C456 1.327 . S
C457 C461 1.429 . S
C458 C441 1.574 . S
C458 H452 0.949 . S
C458 C462 1.368 . S
C459 C440 1.429 . S
C459 C453 1.429 . S
C459 C460 1.523 . S
C460 C441 1.368 . S
C460 C454 1.368 . S
C460 C459 1.523 . S
C461 C445 1.429 . S
C461 C457 1.429 . S
C461 C462 1.523 . S
C462 C446 1.368 . S
C462 C458 1.368 . S
C462 C461 1.523 . S
H463 C438 0.950 . S
H464 C440 0.950 . S
H465 C441 0.949 . S
H466 C443 0.950 . S
H467 C445 0.950 . S
C468 C469 1.349 . S
C468 C470 1.327 . S
C468 H493 0.950 . S
C469 C468 1.349 . S
C469 C485 1.349 . S
C470 C468 1.327 . S
C470 C489 1.429 . S
C470 H494 0.950 . S
C471 C488 1.574 . S
C471 C490 1.368 . S
C471 H495 0.949 . S
H472 C476 0.949 . S
C473 C474 1.349 . S
C473 C475 1.327 . S
C473 H496 0.950 . S
C474 C473 1.349 . S
C474 C486 1.349 . S
C475 C473 1.327 . S
C475 C491 1.429 . S
C475 H497 0.950 . S
C476 H472 0.949 . S
C476 C484 1.574 . S
C476 C492 1.368 . S
H477 C485 0.950 . S
H478 C483 0.950 . S
H479 C484 0.949 . S
H480 C486 0.950 . S
H481 C487 0.950 . S
H482 C488 0.949 . S
C483 H478 0.950 . S
C483 C485 1.327 . S
C483 C489 1.429 . S
C484 C476 1.574 . S
C484 H479 0.949 . S
C484 C490 1.368 . S
C485 C469 1.349 . S
C485 H477 0.950 . S
C485 C483 1.327 . S
C486 C474 1.349 . S
C486 H480 0.950 . S
C486 C487 1.327 . S
C487 H481 0.950 . S
C487 C486 1.327 . S
C487 C491 1.429 . S
C488 C471 1.574 . S
C488 H482 0.949 . S
C488 C492 1.368 . S
C489 C470 1.429 . S
C489 C483 1.429 . S
C489 C490 1.523 . S
C490 C471 1.368 . S
C490 C484 1.368 . S
C490 C489 1.523 . S
C491 C475 1.429 . S
C491 C487 1.429 . S
C491 C492 1.523 . S
C492 C476 1.368 . S
C492 C488 1.368 . S
C492 C491 1.523 . S
H493 C468 0.950 . S
H494 C470 0.950 . S
H495 C471 0.949 . S
H496 C473 0.950 . S
H497 C475 0.950 . S
C498 C499 1.349 . S
C498 C500 1.327 . S
C498 H523 0.950 . S
C499 C498 1.349 . S
C499 C515 1.349 . S
C500 C498 1.327 . S
C500 C519 1.429 . S
C500 H524 0.950 . S
C501 C518 1.574 . S
C501 C520 1.368 . S
C501 H525 0.949 . S
H502 C506 0.949 . S
C503 C504 1.349 . S
C503 C505 1.327 . S
C503 H526 0.950 . S
C504 C503 1.349 . S
C504 C516 1.349 . S
C505 C503 1.327 . S
C505 C521 1.429 . S
C505 H527 0.950 . S
C506 H502 0.949 . S
C506 C514 1.574 . S
C506 C522 1.368 . S
H507 C515 0.950 . S
H508 C513 0.950 . S
H509 C514 0.949 . S
H510 C516 0.950 . S
H511 C517 0.950 . S
H512 C518 0.949 . S
C513 H508 0.950 . S
C513 C515 1.327 . S
C513 C519 1.429 . S
C514 C506 1.574 . S
C514 H509 0.949 . S
C514 C520 1.368 . S
C515 C499 1.349 . S
C515 H507 0.950 . S
C515 C513 1.327 . S
C516 C504 1.349 . S
C516 H510 0.950 . S
C516 C517 1.327 . S
C517 H511 0.950 . S
C517 C516 1.327 . S
C517 C521 1.429 . S
C518 C501 1.574 . S
C518 H512 0.949 . S
C518 C522 1.368 . S
C519 C500 1.429 . S
C519 C513 1.429 . S
C519 C520 1.523 . S
C520 C501 1.368 . S
C520 C514 1.368 . S
C520 C519 1.523 . S
C521 C505 1.429 . S
C521 C517 1.429 . S
C521 C522 1.523 . S
C522 C506 1.368 . S
C522 C518 1.368 . S
C522 C521 1.523 . S
H523 C498 0.950 . S
H524 C500 0.950 . S
H525 C501 0.949 . S
H526 C503 0.950 . S
H527 C505 0.950 . S
C528 C529 1.349 . S
C528 C530 1.327 . S
C528 H553 0.950 . S
C529 C528 1.349 . S
C529 C545 1.349 . S
C530 C528 1.327 . S
C530 C549 1.429 . S
C530 H554 0.950 . S
C531 C548 1.574 . S
C531 C550 1.368 . S
C531 H555 0.949 . S
H532 C536 0.949 . S
C533 C534 1.349 . S
C533 C535 1.327 . S
C533 H556 0.950 . S
C534 C533 1.349 . S
C534 C546 1.349 . S
C535 C533 1.327 . S
C535 C551 1.429 . S
C535 H557 0.950 . S
C536 H532 0.949 . S
C536 C544 1.574 . S
C536 C552 1.368 . S
H537 C545 0.950 . S
H538 C543 0.950 . S
H539 C544 0.949 . S
H540 C546 0.950 . S
H541 C547 0.950 . S
H542 C548 0.949 . S
C543 H538 0.950 . S
C543 C545 1.327 . S
C543 C549 1.429 . S
C544 C536 1.574 . S
C544 H539 0.949 . S
C544 C550 1.368 . S
C545 C529 1.349 . S
C545 H537 0.950 . S
C545 C543 1.327 . S
C546 C534 1.349 . S
C546 H540 0.950 . S
C546 C547 1.327 . S
C547 H541 0.950 . S
C547 C546 1.327 . S
C547 C551 1.429 . S
C548 C531 1.574 . S
C548 H542 0.949 . S
C548 C552 1.368 . S
C549 C530 1.429 . S
C549 C543 1.429 . S
C549 C550 1.523 . S
C550 C531 1.368 . S
C550 C544 1.368 . S
C550 C549 1.523 . S
C551 C535 1.429 . S
C551 C547 1.429 . S
C551 C552 1.523 . S
C552 C536 1.368 . S
C552 C548 1.368 . S
C552 C551 1.523 . S
H553 C528 0.950 . S
H554 C530 0.950 . S
H555 C531 0.949 . S
H556 C533 0.950 . S
H557 C535 0.950 . S
C558 C559 1.349 . S
C558 C560 1.327 . S
C558 H583 0.950 . S
C559 C558 1.349 . S
C559 C575 1.349 1_455 S
C560 C558 1.327 . S
C560 C579 1.429 . S
C560 H584 0.950 . S
C561 C578 1.574 1_654 S
C561 C580 1.368 1_655 S
C561 H585 0.949 . S
H562 C566 0.949 1_556 S
C563 C564 1.349 . S
C563 C565 1.327 . S
C563 H586 0.950 1_455 S
C564 C563 1.349 . S
C564 C576 1.349 . S
C565 C563 1.327 . S
C565 C581 1.429 . S
C565 H587 0.950 1_455 S
C566 H562 0.949 1_554 S
C566 C574 1.574 . S
C566 C582 1.368 1_554 S
H567 C575 0.950 . S
H568 C573 0.950 . S
H569 C574 0.949 . S
H570 C576 0.950 . S
H571 C577 0.950 . S
H572 C578 0.949 1_655 S
C573 H568 0.950 . S
C573 C575 1.327 . S
C573 C579 1.429 1_655 S
C574 C566 1.574 . S
C574 H569 0.949 . S
C574 C580 1.368 . S
C575 C559 1.349 1_655 S
C575 H567 0.950 . S
C575 C573 1.327 . S
C576 C564 1.349 . S
C576 H570 0.950 . S
C576 C577 1.327 . S
C577 H571 0.950 . S
C577 C576 1.327 . S
C577 C581 1.429 . S
C578 C561 1.574 1_456 S
C578 H572 0.949 1_455 S
C578 C582 1.368 . S
C579 C560 1.429 . S
C579 C573 1.429 1_455 S
C579 C580 1.523 . S
C580 C561 1.368 1_455 S
C580 C574 1.368 . S
C580 C579 1.523 . S
C581 C565 1.429 . S
C581 C577 1.429 . S
C581 C582 1.523 . S
C582 C566 1.368 1_556 S
C582 C578 1.368 . S
C582 C581 1.523 . S
H583 C558 0.950 . S
H584 C560 0.950 . S
H585 C561 0.949 . S
H586 C563 0.950 1_655 S
H587 C565 0.950 1_655 S
C588 C589 1.349 . S
C588 C590 1.327 . S
C588 H613 0.950 . S
C589 C588 1.349 . S
C589 C605 1.349 . S
C590 C588 1.327 . S
C590 C609 1.429 . S
C590 H614 0.950 . S
C591 C608 1.574 . S
C591 C610 1.368 1_565 S
C591 H615 0.949 . S
H592 C596 0.949 . S
C593 C594 1.349 1_565 S
C593 C595 1.327 . S
C593 H616 0.950 . S
C594 C593 1.349 1_545 S
C594 C606 1.349 . S
C595 C593 1.327 . S
C595 C611 1.429 1_565 S
C595 H617 0.950 . S
C596 H592 0.949 . S
C596 C604 1.574 . S
C596 C612 1.368 . S
H597 C605 0.950 1_565 S
H598 C603 0.950 1_565 S
H599 C604 0.949 . S
H600 C606 0.950 . S
H601 C607 0.950 . S
H602 C608 0.949 . S
C603 H598 0.950 1_545 S
C603 C605 1.327 . S
C603 C609 1.429 . S
C604 C596 1.574 . S
C604 H599 0.949 . S
C604 C610 1.368 . S
C605 C589 1.349 . S
C605 H597 0.950 1_545 S
C605 C603 1.327 . S
C606 C594 1.349 . S
C606 H600 0.950 . S
C606 C607 1.327 . S
C607 H601 0.950 . S
C607 C606 1.327 . S
C607 C611 1.429 . S
C608 C591 1.574 . S
C608 H602 0.949 . S
C608 C612 1.368 1_565 S
C609 C590 1.429 . S
C609 C603 1.429 . S
C609 C610 1.523 . S
C610 C591 1.368 1_545 S
C610 C604 1.368 . S
C610 C609 1.523 . S
C611 C595 1.429 1_545 S
C611 C607 1.429 . S
C611 C612 1.523 . S
C612 C596 1.368 . S
C612 C608 1.368 1_545 S
C612 C611 1.523 . S
H613 C588 0.950 . S
H614 C590 0.950 . S
H615 C591 0.949 . S
H616 C593 0.950 . S
H617 C595 0.950 . S
C618 C619 1.349 . S
C618 C620 1.327 . S
C618 H643 0.950 . S
C619 C618 1.349 . S
C619 C635 1.349 . S
C620 C618 1.327 . S
C620 C639 1.429 . S
C620 H644 0.950 . S
C621 C638 1.574 . S
C621 C640 1.368 . S
C621 H645 0.949 . S
H622 C626 0.949 . S
C623 C624 1.349 . S
C623 C625 1.327 . S
C623 H646 0.950 . S
C624 C623 1.349 . S
C624 C636 1.349 . S
C625 C623 1.327 . S
C625 C641 1.429 . S
C625 H647 0.950 . S
C626 H622 0.949 . S
C626 C634 1.574 . S
C626 C642 1.368 . S
H627 C635 0.950 . S
H628 C633 0.950 . S
H629 C634 0.949 . S
H630 C636 0.950 . S
H631 C637 0.950 . S
H632 C638 0.949 . S
C633 H628 0.950 . S
C633 C635 1.327 . S
C633 C639 1.429 . S
C634 C626 1.574 . S
C634 H629 0.949 . S
C634 C640 1.368 . S
C635 C619 1.349 . S
C635 H627 0.950 . S
C635 C633 1.327 . S
C636 C624 1.349 . S
C636 H630 0.950 . S
C636 C637 1.327 . S
C637 H631 0.950 . S
C637 C636 1.327 . S
C637 C641 1.429 . S
C638 C621 1.574 . S
C638 H632 0.949 . S
C638 C642 1.368 . S
C639 C620 1.429 . S
C639 C633 1.429 . S
C639 C640 1.523 . S
C640 C621 1.368 . S
C640 C634 1.368 . S
C640 C639 1.523 . S
C641 C625 1.429 . S
C641 C637 1.429 . S
C641 C642 1.523 . S
C642 C626 1.368 . S
C642 C638 1.368 . S
C642 C641 1.523 . S
H643 C618 0.950 . S
H644 C620 0.950 . S
H645 C621 0.949 . S
H646 C623 0.950 . S
H647 C625 0.950 . S
C648 C649 1.349 1_565 S
C648 C650 1.327 . S
C648 H673 0.950 . S
C649 C648 1.349 1_545 S
C649 C665 1.349 . S
C650 C648 1.327 . S
C650 C669 1.429 1_565 S
C650 H674 0.950 . S
C651 C668 1.574 . S
C651 C670 1.368 . S
C651 H675 0.949 . S
H652 C656 0.949 . S
C653 C654 1.349 . S
C653 C655 1.327 . S
C653 H676 0.950 . S
C654 C653 1.349 . S
C654 C666 1.341 1_545 S
C655 C653 1.327 . S
C655 C671 1.429 . S
C655 H677 0.950 . S
C656 H652 0.949 . S
C656 C664 1.574 . S
C656 C672 1.368 1_565 S
H657 C665 0.950 . S
H658 C663 0.950 . S
H659 C664 0.949 . S
H660 C666 0.957 . S
H661 C667 0.950 . S
H662 C668 0.949 . S
C663 H658 0.950 . S
C663 C665 1.327 . S
C663 C669 1.429 . S
C664 C656 1.574 . S
C664 H659 0.949 . S
C664 C670 1.368 1_565 S
C665 C649 1.349 . S
C665 H657 0.950 . S
C665 C663 1.327 . S
C666 C654 1.341 1_565 S
C666 H660 0.957 . S
C666 C667 1.328 . S
C667 H661 0.950 . S
C667 C666 1.328 . S
C667 C671 1.429 1_565 S
C668 C651 1.574 . S
C668 H662 0.949 . S
C668 C672 1.368 . S
C669 C650 1.429 1_545 S
C669 C663 1.429 . S
C669 C670 1.523 . S
C670 C651 1.368 . S
C670 C664 1.368 1_545 S
C670 C669 1.523 . S
C671 C655 1.429 . S
C671 C667 1.429 1_545 S
C671 C672 1.523 . S
C672 C656 1.368 1_545 S
C672 C668 1.368 . S
C672 C671 1.523 . S
H673 C648 0.950 . S
H674 C650 0.950 . S
H675 C651 0.949 . S
H676 C653 0.950 . S
H677 C655 0.950 . S
C678 C679 1.349 . S
C678 C680 1.327 . S
C678 H703 0.950 . S
C679 C678 1.349 . S
C679 C695 1.349 . S
C680 C678 1.327 . S
C680 C699 1.429 . S
C680 H704 0.950 . S
C681 C698 1.574 . S
C681 C700 1.368 . S
C681 H705 0.949 . S
H682 C686 0.949 . S
C683 C684 1.349 . S
C683 C685 1.327 . S
C683 H706 0.950 . S
C684 C683 1.349 . S
C684 C696 1.349 . S
C685 C683 1.327 . S
C685 C701 1.429 . S
C685 H707 0.950 . S
C686 H682 0.949 . S
C686 C694 1.574 1_554 S
C686 C702 1.368 . S
H687 C695 0.950 . S
H688 C693 0.950 . S
H689 C694 0.949 . S
H690 C696 0.950 . S
H691 C697 0.950 . S
H692 C698 0.949 1_554 S
C693 H688 0.950 . S
C693 C695 1.327 . S
C693 C699 1.429 . S
C694 C686 1.574 1_556 S
C694 H689 0.949 . S
C694 C700 1.368 . S
C695 C679 1.349 . S
C695 H687 0.950 . S
C695 C693 1.327 . S
C696 C684 1.349 . S
C696 H690 0.950 . S
C696 C697 1.327 . S
C697 H691 0.950 . S
C697 C696 1.327 . S
C697 C701 1.429 . S
C698 C681 1.574 . S
C698 H692 0.949 1_556 S
C698 C702 1.368 1_556 S
C699 C680 1.429 . S
C699 C693 1.429 . S
C699 C700 1.523 . S
C700 C681 1.368 . S
C700 C694 1.368 . S
C700 C699 1.523 . S
C701 C685 1.429 . S
C701 C697 1.429 . S
C701 C702 1.523 . S
C702 C686 1.368 . S
C702 C698 1.368 1_554 S
C702 C701 1.523 . S
H703 C678 0.950 . S
H704 C680 0.950 . S
H705 C681 0.949 . S
H706 C683 0.950 . S
H707 C685 0.950 . S
C708 C709 1.349 . S
C708 C710 1.327 . S
C708 H733 0.950 . S
C709 C708 1.349 . S
C709 C725 1.349 . S
C710 C708 1.327 . S
C710 C729 1.429 . S
C710 H734 0.950 . S
C711 C728 1.574 . S
C711 C730 1.368 . S
C711 H735 0.949 . S
H712 C716 0.959 . S
C713 C714 1.349 . S
C713 C715 1.327 . S
C713 H736 0.968 . S
C714 C713 1.349 . S
C714 C726 1.349 . S
C715 C713 1.327 . S
C715 C731 1.432 . S
C715 H737 0.946 1_455 S
C716 H712 0.959 . S
C716 C724 1.579 1_455 S
C716 C732 1.350 1_455 S
H717 C725 0.950 . S
H718 C723 0.950 . S
H719 C724 0.939 . S
H720 C726 0.950 . S
H721 C727 0.950 . S
H722 C728 0.949 . S
C723 H718 0.950 . S
C723 C725 1.327 . S
C723 C729 1.429 . S
C724 C716 1.579 1_655 S
C724 H719 0.939 . S
C724 C730 1.380 . S
C725 C709 1.349 . S
C725 H717 0.950 . S
C725 C723 1.327 . S
C726 C714 1.349 . S
C726 H720 0.950 . S
C726 C727 1.327 . S
C727 H721 0.950 . S
C727 C726 1.327 . S
C727 C731 1.429 . S
C728 C711 1.574 . S
C728 H722 0.949 . S
C728 C732 1.373 . S
C729 C710 1.429 . S
C729 C723 1.429 . S
C729 C730 1.523 . S
C730 C711 1.368 . S
C730 C724 1.380 . S
C730 C729 1.523 . S
C731 C715 1.432 . S
C731 C727 1.429 . S
C731 C732 1.524 1_455 S
C732 C716 1.350 1_655 S
C732 C728 1.373 . S
C732 C731 1.524 1_655 S
H733 C708 0.950 . S
H734 C710 0.950 . S
H735 C711 0.949 . S
H736 C713 0.968 . S
H737 C715 0.946 1_655 S
C199 C25 0.241 . S
C204 N187 0.277 . S
C229 C65 0.268 . S
C234 N160 0.255 . S
C259 C105 0.291 . S
C264 N173 0.265 . S
C289 C4 0.429 . S
C294 N186 0.409 . S
C324 N161 0.391 . S
C319 C44 0.409 . S
C354 N174 0.375 . S
C349 C84 0.384 . S
C379 C60 2.782 . S
C384 N134 2.777 . S
C409 C100 2.714 . S
C414 N148 2.667 1_655 S
C439 C31 3.089 . S
C444 N122 3.068 . S
C474 N135 3.082 . S
C469 C71 3.094 . S
C504 N147 3.222 . S
C499 C111 3.192 . S
C529 C20 2.786 . S
C534 N121 2.780 . S
C564 N151 1.771 . S
C559 C2 1.748 . S
C589 C42 1.707 . S
C594 N125 1.762 . S
C619 C82 1.716 . S
C624 N138 1.781 . S
C654 N177 1.273 . S
C649 C63 1.270 . S
C684 N190 1.277 . S
C679 C103 1.283 . S
C709 C23 1.276 1_655 S
C714 N164 1.293 . S
