# Generated by pormake.
# Topology apo, (3,6)-cn, num edge types: 1
# Building blocks:
#     Node 0, Type 0, BuildingBlock: VETTIZ_charged_linker_0, # of connection points: 3
#     Node 1, Type 0, BuildingBlock: VETTIZ_charged_linker_0, # of connection points: 3
#     Node 2, Type 0, BuildingBlock: VETTIZ_charged_linker_0, # of connection points: 3
#     Node 3, Type 0, BuildingBlock: VETTIZ_charged_linker_0, # of connection points: 3
#     Node 4, Type 0, BuildingBlock: VETTIZ_charged_linker_0, # of connection points: 3
#     Node 5, Type 0, BuildingBlock: VETTIZ_charged_linker_0, # of connection points: 3
#     Node 6, Type 0, BuildingBlock: VETTIZ_charged_linker_0, # of connection points: 3
#     Node 7, Type 0, BuildingBlock: VETTIZ_charged_linker_0, # of connection points: 3
#     Node 8, Type 1, BuildingBlock: MIDCAF_clean_sbu_0, # of connection points: 6
#     Node 9, Type 1, BuildingBlock: MIDCAF_clean_sbu_0, # of connection points: 6
#     Node 10, Type 1, BuildingBlock: MIDCAF_clean_sbu_0, # of connection points: 6
#     Node 11, Type 1, BuildingBlock: MIDCAF_clean_sbu_0, # of connection points: 6
#     Edge 12, Type (0, 1), BuildingBlock: XUDNAN_clean_linker_2, # of connection points: 2
#     Edge 13, Type (0, 1), BuildingBlock: XUDNAN_clean_linker_2, # of connection points: 2
#     Edge 14, Type (0, 1), BuildingBlock: XUDNAN_clean_linker_2, # of connection points: 2
#     Edge 15, Type (0, 1), BuildingBlock: XUDNAN_clean_linker_2, # of connection points: 2
#     Edge 16, Type (0, 1), BuildingBlock: XUDNAN_clean_linker_2, # of connection points: 2
#     Edge 17, Type (0, 1), BuildingBlock: XUDNAN_clean_linker_2, # of connection points: 2
#     Edge 18, Type (0, 1), BuildingBlock: XUDNAN_clean_linker_2, # of connection points: 2
#     Edge 19, Type (0, 1), BuildingBlock: XUDNAN_clean_linker_2, # of connection points: 2
#     Edge 20, Type (0, 1), BuildingBlock: XUDNAN_clean_linker_2, # of connection points: 2
#     Edge 21, Type (0, 1), BuildingBlock: XUDNAN_clean_linker_2, # of connection points: 2
#     Edge 22, Type (0, 1), BuildingBlock: XUDNAN_clean_linker_2, # of connection points: 2
#     Edge 23, Type (0, 1), BuildingBlock: XUDNAN_clean_linker_2, # of connection points: 2
#     Edge 24, Type (0, 1), BuildingBlock: XUDNAN_clean_linker_2, # of connection points: 2
#     Edge 25, Type (0, 1), BuildingBlock: XUDNAN_clean_linker_2, # of connection points: 2
#     Edge 26, Type (0, 1), BuildingBlock: XUDNAN_clean_linker_2, # of connection points: 2
#     Edge 27, Type (0, 1), BuildingBlock: XUDNAN_clean_linker_2, # of connection points: 2
#     Edge 28, Type (0, 1), BuildingBlock: XUDNAN_clean_linker_2, # of connection points: 2
#     Edge 29, Type (0, 1), BuildingBlock: XUDNAN_clean_linker_2, # of connection points: 2
#     Edge 30, Type (0, 1), BuildingBlock: XUDNAN_clean_linker_2, # of connection points: 2
#     Edge 31, Type (0, 1), BuildingBlock: XUDNAN_clean_linker_2, # of connection points: 2
#     Edge 32, Type (0, 1), BuildingBlock: XUDNAN_clean_linker_2, # of connection points: 2
#     Edge 33, Type (0, 1), BuildingBlock: XUDNAN_clean_linker_2, # of connection points: 2
#     Edge 34, Type (0, 1), BuildingBlock: XUDNAN_clean_linker_2, # of connection points: 2
#     Edge 35, Type (0, 1), BuildingBlock: XUDNAN_clean_linker_2, # of connection points: 2
# Relax obj value: 0.090
# Max RMSD: 0.101
# Mean RMSD: 0.093
data_MOF--net-apo--node1-MIDCAF_clean_sbu_0--node2-VETTIZ_charged_linker_0--edge1-XUDNAN_clean_linker_2
_symmetry_space_group_name_H-M    P1
_symmetry_Int_Tables_number       1
_symmetry_cell_setting            triclinic
loop_
_symmetry_equiv_pos_as_xyz
'x, y, z'
_cell_length_a     42.042372
_cell_length_b     50.275326
_cell_length_c     45.029087
_cell_angle_alpha  90.338096
_cell_angle_beta   90.046624
_cell_angle_gamma 89.98284
loop_
_atom_site_label
_atom_site_type_symbol
_atom_site_fract_x
_atom_site_fract_y
_atom_site_fract_z
_atom_type_partial_charge
C0 C 0.34941 0.30269 0.49494 0.0
C1 C 0.37348 0.31452 0.51225 0.0
C2 C 0.39441 0.33277 0.49904 0.0
C3 C 0.36701 0.32791 0.452 0.0
C4 C 0.34689 0.30942 0.46474 0.0
C5 C 0.32393 0.29789 0.44234 0.0
H6 H 0.2693 0.29465 0.30009 0.0
C7 C 0.35813 0.33079 0.42043 0.0
C8 C 0.33313 0.313 0.41442 0.0
H9 H 0.23781 0.24687 0.37402 0.0
H10 H 0.27568 0.26878 0.40622 0.0
H11 H 0.27065 0.34815 0.33559 0.0
H12 H 0.34402 0.29182 0.31416 0.0
H13 H 0.35985 0.32374 0.30839 0.0
H14 H 0.32568 0.31312 0.28726 0.0
H15 H 0.28957 0.34768 0.29993 0.0
H16 H 0.30518 0.36709 0.33051 0.0
C17 C 0.28972 0.30463 0.45252 0.0
C18 C 0.33073 0.26771 0.43936 0.0
C19 C 0.41139 0.40184 0.35761 0.0
C20 C 0.40617 0.41077 0.32839 0.0
C21 C 0.38406 0.39702 0.31041 0.0
C22 C 0.36701 0.37531 0.32144 0.0
C23 C 0.37175 0.36724 0.35093 0.0
C24 C 0.39379 0.38031 0.36844 0.0
C25 C 0.39499 0.3694 0.39949 0.0
C26 C 0.36958 0.34792 0.39782 0.0
C27 C 0.35623 0.34673 0.36929 0.0
C28 C 0.38569 0.39207 0.42127 0.0
C29 C 0.42857 0.35757 0.40479 0.0
C30 C 0.27038 0.28895 0.32323 0.0
C31 C 0.25062 0.2688 0.33433 0.0
C32 C 0.25313 0.26195 0.36464 0.0
C33 C 0.27504 0.27481 0.38341 0.0
C34 C 0.29474 0.2948 0.37185 0.0
C35 C 0.29205 0.30159 0.34224 0.0
C36 C 0.31436 0.32355 0.33376 0.0
C37 C 0.33149 0.3284 0.36293 0.0
C38 C 0.31993 0.31161 0.3853 0.0
C39 C 0.29415 0.34791 0.32422 0.0
C40 C 0.33716 0.31276 0.30948 0.0
H41 H 0.40787 0.35375 0.46046 0.0
H42 H 0.33332 0.28831 0.50459 0.0
H43 H 0.35661 0.26355 0.44168 0.0
H44 H 0.32429 0.25959 0.41734 0.0
H45 H 0.3181 0.2563 0.4568 0.0
H46 H 0.28841 0.32545 0.46096 0.0
H47 H 0.28202 0.29127 0.47072 0.0
H48 H 0.27218 0.30347 0.43433 0.0
H49 H 0.42847 0.41162 0.37199 0.0
H50 H 0.37903 0.40358 0.28803 0.0
H51 H 0.3503 0.36599 0.30669 0.0
H52 H 0.36548 0.40383 0.41223 0.0
H53 H 0.40592 0.40592 0.42491 0.0
H54 H 0.37741 0.38485 0.443 0.0
H55 H 0.43942 0.35044 0.38365 0.0
H56 H 0.4281 0.3398 0.41916 0.0
H57 H 0.4449 0.37261 0.41458 0.0
H58 H 0.4131 0.34201 0.5121 0.0
C59 C 0.39128 0.33959 0.46911 0.0
C60 C 0.2432 0.20678 0.82539 0.0
C61 C 0.26586 0.22325 0.83919 0.0
C62 C 0.2659 0.22552 0.87042 0.0
C63 C 0.22117 0.19518 0.87353 0.0
C64 C 0.22146 0.19274 0.84292 0.0
C65 C 0.19701 0.17324 0.83182 0.0
H66 H 0.09268 0.07556 0.86254 0.0
C67 C 0.19598 0.17751 0.88517 0.0
C68 C 0.18202 0.16436 0.86079 0.0
H69 H 0.1191 0.1061 0.77607 0.0
H70 H 0.15116 0.13956 0.79952 0.0
H71 H 0.15864 0.08337 0.8986 0.0
H72 H 0.07556 0.13144 0.88588 0.0
H73 H 0.09165 0.14254 0.91973 0.0
H74 H 0.07814 0.10856 0.91609 0.0
H75 H 0.11952 0.07571 0.91214 0.0
H76 H 0.14618 0.09635 0.93329 0.0
C77 C 0.21481 0.15024 0.81592 0.0
C78 C 0.173 0.18829 0.81188 0.0
C79 C 0.16932 0.17696 0.99578 0.0
C80 C 0.14575 0.16353 0.012 0.0
C81 C 0.12687 0.14426 0.99757 0.0
C82 C 0.13079 0.13877 0.96731 0.0
C83 C 0.15355 0.15294 0.95102 0.0
C84 C 0.17255 0.17156 0.96522 0.0
C85 C 0.19488 0.18505 0.94385 0.0
C86 C 0.18506 0.17228 0.91448 0.0
C87 C 0.16112 0.15326 0.91899 0.0
C88 C 0.22943 0.17769 0.95258 0.0
C89 C 0.18784 0.21526 0.94446 0.0
C90 C 0.10488 0.08943 0.84829 0.0
C91 C 0.10375 0.08706 0.817 0.0
C92 C 0.12032 0.1062 0.80006 0.0
C93 C 0.13884 0.12598 0.81374 0.0
C94 C 0.14055 0.12724 0.84485 0.0
C95 C 0.12272 0.10984 0.86155 0.0
C96 C 0.12441 0.11621 0.89425 0.0
C97 C 0.148 0.13912 0.89445 0.0
C98 C 0.1578 0.14515 0.86548 0.0
C99 C 0.13774 0.09164 0.91065 0.0
C100 C 0.09079 0.12501 0.90474 0.0
H101 H 0.24474 0.21435 0.91127 0.0
H102 H 0.24288 0.20439 0.80146 0.0
H103 H 0.17103 0.20957 0.81854 0.0
H104 H 0.14851 0.18044 0.81387 0.0
H105 H 0.18036 0.18765 0.7882 0.0
H106 H 0.23589 0.14398 0.8291 0.0
H107 H 0.22335 0.15655 0.79371 0.0
H108 H 0.2003 0.13217 0.81311 0.0
H109 H 0.18404 0.19193 1.00639 0.0
H110 H 0.10877 0.13358 0.0098 0.0
H111 H 0.11568 0.12386 0.95769 0.0
H112 H 0.23053 0.15761 0.96282 0.0
H113 H 0.23931 0.19213 0.9689 0.0
H114 H 0.24547 0.17638 0.93319 0.0
H115 H 0.16174 0.21891 0.94432 0.0
H116 H 0.19721 0.22579 0.92492 0.0
H117 H 0.19779 0.22471 0.96481 0.0
H118 H 0.28304 0.23824 0.88152 0.0
C119 C 0.24361 0.21169 0.88764 0.0
C120 C 0.83978 0.20144 0.5035 0.0
C121 C 0.86103 0.18914 0.4835 0.0
C122 C 0.88145 0.16904 0.49386 0.0
C123 C 0.85871 0.17265 0.54304 0.0
C124 C 0.83877 0.19261 0.53315 0.0
C125 C 0.81709 0.20247 0.55761 0.0
H126 H 0.76562 0.19222 0.70047 0.0
C127 C 0.85117 0.16723 0.57444 0.0
C128 C 0.82659 0.18438 0.58322 0.0
H129 H 0.73695 0.24918 0.63397 0.0
H130 H 0.77243 0.229 0.59853 0.0
H131 H 0.76412 0.14217 0.65698 0.0
H132 H 0.84329 0.19148 0.68391 0.0
H133 H 0.85205 0.15735 0.68911 0.0
H134 H 0.81979 0.17219 0.70924 0.0
H135 H 0.78331 0.13783 0.69223 0.0
H136 H 0.79799 0.12181 0.65891 0.0
C137 C 0.78228 0.1977 0.54775 0.0
C138 C 0.8253 0.23198 0.56406 0.0
C139 C 0.91158 0.09438 0.62701 0.0
C140 C 0.90533 0.07897 0.65239 0.0
C141 C 0.88052 0.08739 0.67151 0.0
C142 C 0.86192 0.1099 0.66478 0.0
C143 C 0.86747 0.12382 0.63826 0.0
C144 C 0.89165 0.11553 0.61972 0.0
C145 C 0.89104 0.1292 0.59021 0.0
C146 C 0.8635 0.14823 0.59457 0.0
C147 C 0.85023 0.14559 0.623 0.0
C148 C 0.88399 0.10792 0.56582 0.0
C149 C 0.92293 0.14417 0.58627 0.0
C150 C 0.76694 0.20028 0.67826 0.0
C151 C 0.74872 0.22265 0.6703 0.0
C152 C 0.7512 0.23243 0.64104 0.0
C153 C 0.77171 0.22057 0.62034 0.0
C154 C 0.79006 0.19855 0.62874 0.0
C155 C 0.78749 0.18868 0.65727 0.0
C156 C 0.80881 0.16498 0.66206 0.0
C157 C 0.82547 0.16305 0.63217 0.0
C158 C 0.81406 0.18258 0.61256 0.0
C159 C 0.78768 0.14035 0.66808 0.0
C160 C 0.83226 0.17165 0.6875 0.0
H161 H 0.8972 0.14586 0.52983 0.0
H162 H 0.82408 0.21716 0.49614 0.0
H163 H 0.85102 0.23594 0.56031 0.0
H164 H 0.82117 0.23771 0.58746 0.0
H165 H 0.81162 0.24549 0.54938 0.0
H166 H 0.77981 0.17783 0.53697 0.0
H167 H 0.77458 0.21292 0.53147 0.0
H168 H 0.76537 0.19762 0.56646 0.0
H169 H 0.93074 0.08955 0.61194 0.0
H170 H 0.8745 0.07614 0.69111 0.0
H171 H 0.84321 0.11509 0.67995 0.0
H172 H 0.87303 0.08965 0.57518 0.0
H173 H 0.90608 0.10171 0.55417 0.0
H174 H 0.86642 0.11487 0.54925 0.0
H175 H 0.92987 0.1544 0.60727 0.0
H176 H 0.92169 0.15996 0.56936 0.0
H177 H 0.94236 0.13019 0.58019 0.0
H178 H 0.89849 0.15977 0.47901 0.0
C179 C 0.88062 0.16095 0.52344 0.0
C180 C 0.75606 0.29483 0.18163 0.0
C181 C 0.77107 0.27218 0.1699 0.0
C182 C 0.76746 0.26595 0.13957 0.0
C183 C 0.73329 0.30435 0.13313 0.0
C184 C 0.73707 0.31046 0.16294 0.0
C185 C 0.71771 0.33429 0.17211 0.0
H186 H 0.60841 0.4279 0.13725 0.0
C187 C 0.71086 0.32379 0.1202 0.0
C188 C 0.70146 0.34127 0.14303 0.0
H189 H 0.65698 0.41678 0.2211 0.0
H190 H 0.68603 0.37985 0.20038 0.0
H191 H 0.67134 0.42208 0.09829 0.0
H192 H 0.5977 0.36654 0.12131 0.0
H193 H 0.60708 0.36096 0.08378 0.0
H194 H 0.59162 0.3929 0.0952 0.0
H195 H 0.63258 0.42304 0.08164 0.0
H196 H 0.66405 0.40266 0.06651 0.0
C197 C 0.74087 0.35645 0.18251 0.0
C198 C 0.69356 0.32531 0.19602 0.0
C199 C 0.68091 0.31801 0.01048 0.0
C200 C 0.65902 0.33227 0.99316 0.0
C201 C 0.64143 0.35304 1.00627 0.0
C202 C 0.64547 0.35965 0.03628 0.0
C203 C 0.66718 0.34517 0.05356 0.0
C204 C 0.68444 0.32469 0.04068 0.0
C205 C 0.70525 0.31076 0.063 0.0
C206 C 0.6982 0.3267 0.09108 0.0
C207 C 0.6759 0.34682 0.08534 0.0
C208 C 0.74028 0.31389 0.05311 0.0
C209 C 0.6939 0.2815 0.06547 0.0
C210 C 0.62543 0.41772 0.15121 0.0
C211 C 0.63003 0.42538 0.18106 0.0
C212 C 0.65228 0.41113 0.19828 0.0
C213 C 0.66944 0.38976 0.1861 0.0
C214 C 0.66456 0.38247 0.15626 0.0
C215 C 0.64305 0.39655 0.13929 0.0
C216 C 0.64189 0.38674 0.10767 0.0
C217 C 0.66603 0.36427 0.10853 0.0
C218 C 0.67901 0.3617 0.13712 0.0
C219 C 0.65277 0.40972 0.08724 0.0
C220 C 0.60782 0.37636 0.10135 0.0
H221 H 0.74689 0.27619 0.09819 0.0
H222 H 0.75828 0.29977 0.20499 0.0
H223 H 0.68394 0.30524 0.1906 0.0
H224 H 0.67249 0.33831 0.19755 0.0
H225 H 0.70498 0.3242 0.21824 0.0
H226 H 0.76353 0.35566 0.16978 0.0
H227 H 0.74686 0.35431 0.20641 0.0
H228 H 0.73148 0.37666 0.1786 0.0
H229 H 0.6943 0.30166 1.00093 0.0
H230 H 0.62433 0.3641 0.9932 0.0
H231 H 0.63124 0.37562 0.04491 0.0
H232 H 0.74485 0.33454 0.04544 0.0
H233 H 0.7459 0.30015 0.03442 0.0
H234 H 0.75742 0.31045 0.07125 0.0
H235 H 0.66804 0.27968 0.06057 0.0
H236 H 0.69652 0.27349 0.08814 0.0
H237 H 0.70678 0.2684 0.04958 0.0
H238 H 0.77888 0.24846 0.13029 0.0
C239 C 0.74883 0.282 0.12107 0.0
C240 C 0.60057 0.59882 0.6717 0.0
C241 C 0.57123 0.59122 0.65868 0.0
C242 C 0.55794 0.6081 0.6369 0.0
C243 C 0.60606 0.63408 0.63552 0.0
C244 C 0.61709 0.62086 0.66021 0.0
C245 C 0.64715 0.63359 0.6721 0.0
H246 H 0.76502 0.72421 0.65175 0.0
C247 C 0.63038 0.65318 0.62599 0.0
C248 C 0.65413 0.65386 0.64783 0.0
H249 H 0.74151 0.68207 0.73231 0.0
H250 H 0.69974 0.65832 0.70621 0.0
H251 H 0.75637 0.67367 0.60851 0.0
H252 H 0.69302 0.73818 0.63071 0.0
H253 H 0.69511 0.73381 0.59168 0.0
H254 H 0.73045 0.74218 0.61198 0.0
H255 H 0.75877 0.70509 0.59004 0.0
H256 H 0.73235 0.67909 0.57721 0.0
C257 C 0.67362 0.61237 0.67407 0.0
C258 C 0.63942 0.6471 0.70235 0.0
C259 C 0.62782 0.68474 0.51924 0.0
C260 C 0.65041 0.69713 0.50103 0.0
C261 C 0.67923 0.70595 0.5137 0.0
C262 C 0.68533 0.70247 0.54418 0.0
C263 C 0.66266 0.68951 0.56201 0.0
C264 C 0.63462 0.68068 0.5493 0.0
C265 C 0.61432 0.66536 0.57069 0.0
C266 C 0.63503 0.66614 0.59839 0.0
C267 C 0.66302 0.68067 0.59338 0.0
C268 C 0.61039 0.63678 0.55817 0.0
C269 C 0.58243 0.68042 0.57513 0.0
C270 C 0.75064 0.71016 0.66397 0.0
C271 C 0.7563 0.70548 0.69437 0.0
C272 C 0.73772 0.68619 0.709 0.0
C273 C 0.71318 0.6727 0.69399 0.0
C274 C 0.70696 0.67861 0.6641 0.0
C275 C 0.72583 0.69678 0.64943 0.0
C276 C 0.71564 0.70048 0.6176 0.0
C277 C 0.68574 0.68357 0.61659 0.0
C278 C 0.68121 0.67032 0.6437 0.0
C279 C 0.7421 0.68921 0.59711 0.0
C280 C 0.70823 0.73025 0.61249 0.0
H281 H 0.56447 0.64052 0.60773 0.0
H282 H 0.61105 0.58754 0.68958 0.0
H283 H 0.61338 0.6486 0.70641 0.0
H284 H 0.64819 0.66789 0.70338 0.0
H285 H 0.64973 0.63583 0.72121 0.0
H286 H 0.67584 0.60143 0.65263 0.0
H287 H 0.66823 0.5977 0.69172 0.0
H288 H 0.69712 0.62123 0.67894 0.0
H289 H 0.60574 0.67733 0.50994 0.0
H290 H 0.69701 0.71546 0.49997 0.0
H291 H 0.70758 0.70971 0.55268 0.0
H292 H 0.63402 0.62793 0.55303 0.0
H293 H 0.59615 0.63688 0.53738 0.0
H294 H 0.5985 0.62312 0.57357 0.0
H295 H 0.58379 0.70137 0.5674 0.0
H296 H 0.57575 0.68193 0.59891 0.0
H297 H 0.56276 0.67067 0.56268 0.0
H298 H 0.53432 0.60466 0.62815 0.0
C299 C 0.57532 0.62916 0.62506 0.0
C300 C 0.77059 0.79002 0.18982 0.0
C301 C 0.74575 0.77555 0.17662 0.0
C302 C 0.74487 0.7729 0.14542 0.0
C303 C 0.79257 0.79967 0.14116 0.0
C304 C 0.79342 0.80209 0.17176 0.0
C305 C 0.82004 0.81969 0.18228 0.0
H306 H 0.92616 0.91461 0.15026 0.0
C307 C 0.81887 0.81573 0.12889 0.0
C308 C 0.83488 0.82764 0.15291 0.0
H309 H 0.90327 0.88174 0.23651 0.0
H310 H 0.87092 0.84848 0.21308 0.0
H311 H 0.94214 0.8583 0.12451 0.0
H312 H 0.85948 0.90758 0.11541 0.0
H313 H 0.87149 0.89542 0.08013 0.0
H314 H 0.89857 0.91522 0.10172 0.0
H315 H 0.93856 0.88125 0.09446 0.0
H316 H 0.92405 0.84751 0.09137 0.0
C317 C 0.84309 0.80287 0.20147 0.0
C318 C 0.80505 0.84372 0.19882 0.0
C319 C 0.83947 0.81758 0.01738 0.0
C320 C 0.86316 0.83001 1.00041 0.0
C321 C 0.88435 0.84785 0.01435 0.0
C322 C 0.8825 0.85288 0.0449 0.0
C323 C 0.85949 0.83967 0.06187 0.0
C324 C 0.83832 0.82246 0.04814 0.0
C325 C 0.81619 0.80966 0.07015 0.0
C326 C 0.82867 0.82105 0.0993 0.0
C327 C 0.85369 0.83894 0.09418 0.0
C328 C 0.82072 0.77914 0.06832 0.0
C329 C 0.7819 0.81919 0.06337 0.0
C330 C 0.9146 0.90024 0.16437 0.0
C331 C 0.91636 0.90204 0.19568 0.0
C332 C 0.90117 0.88212 0.21257 0.0
C333 C 0.88249 0.86253 0.19892 0.0
C334 C 0.87918 0.86236 0.16794 0.0
C335 C 0.89648 0.88 0.15108 0.0
C336 C 0.89328 0.87432 0.11829 0.0
C337 C 0.86894 0.85191 0.11844 0.0
C338 C 0.86031 0.84552 0.14761 0.0
C339 C 0.92611 0.86499 0.10635 0.0
C340 C 0.88013 0.89945 0.10287 0.0
H341 H 0.76623 0.78207 0.10406 0.0
H342 H 0.77166 0.79262 0.2137 0.0
H343 H 0.78486 0.85199 0.18582 0.0
H344 H 0.82162 0.86039 0.20228 0.0
H345 H 0.79575 0.83767 0.22086 0.0
H346 H 0.84125 0.78128 0.19613 0.0
H347 H 0.83796 0.80532 0.22553 0.0
H348 H 0.86836 0.80786 0.1973 0.0
H349 H 0.82306 0.80367 0.00715 0.0
H350 H 0.90263 0.8577 1.00152 0.0
H351 H 0.89927 0.86665 0.0542 0.0
H352 H 0.84641 0.77404 0.06656 0.0
H353 H 0.80848 0.77073 0.04852 0.0
H354 H 0.81212 0.7687 0.08824 0.0
H355 H 0.78189 0.8396 0.05392 0.0
H356 H 0.76701 0.82078 0.08352 0.0
H357 H 0.77003 0.80585 0.04704 0.0
H358 H 0.72608 0.76158 0.13478 0.0
C359 C 0.7682 0.78477 0.12764 0.0
C360 C 0.10905 0.90738 0.35987 0.0
C361 C 0.08042 0.91587 0.37346 0.0
C362 C 0.06693 0.89951 0.39558 0.0
C363 C 0.11339 0.87137 0.39534 0.0
C364 C 0.1247 0.88467 0.37079 0.0
C365 C 0.15419 0.8714 0.35846 0.0
H366 H 0.26907 0.7776 0.37547 0.0
C367 C 0.1368 0.85106 0.40393 0.0
C368 C 0.16038 0.85025 0.38196 0.0
H369 H 0.2499 0.82516 0.29774 0.0
H370 H 0.20657 0.84708 0.32363 0.0
H371 H 0.26114 0.82542 0.42157 0.0
H372 H 0.19604 0.76411 0.39339 0.0
H373 H 0.19673 0.76624 0.43265 0.0
H374 H 0.23256 0.75802 0.41301 0.0
H375 H 0.26191 0.79293 0.43775 0.0
H376 H 0.23629 0.81891 0.45199 0.0
C377 C 0.18144 0.89197 0.35726 0.0
C378 C 0.14586 0.85896 0.32779 0.0
C379 C 0.13139 0.81323 0.50803 0.0
C380 C 0.15286 0.79855 0.52529 0.0
C381 C 0.18136 0.78947 0.5123 0.0
C382 C 0.18817 0.79484 0.48232 0.0
C383 C 0.16655 0.80994 0.46541 0.0
C384 C 0.13889 0.81908 0.47852 0.0
C385 C 0.11978 0.83656 0.45825 0.0
C386 C 0.14063 0.83657 0.43069 0.0
C387 C 0.1677 0.82064 0.4348 0.0
C388 C 0.11758 0.86443 0.47296 0.0
C389 C 0.08707 0.82318 0.45246 0.0
C390 C 0.25578 0.79287 0.36401 0.0
C391 C 0.26294 0.79952 0.33439 0.0
C392 C 0.24464 0.81934 0.32032 0.0
C393 C 0.2195 0.83202 0.33533 0.0
C394 C 0.21238 0.82472 0.36466 0.0
C395 C 0.23054 0.80556 0.37859 0.0
C396 C 0.21955 0.80037 0.40986 0.0
C397 C 0.19034 0.81804 0.41154 0.0
C398 C 0.18659 0.83264 0.3852 0.0
C399 C 0.24602 0.80967 0.43157 0.0
C400 C 0.21083 0.77059 0.41261 0.0
H401 H 0.07232 0.86662 0.42423 0.0
H402 H 0.11964 0.91848 0.34191 0.0
H403 H 0.11973 0.85692 0.32454 0.0
H404 H 0.15528 0.83847 0.32537 0.0
H405 H 0.15501 0.87131 0.30929 0.0
H406 H 0.18373 0.90251 0.37895 0.0
H407 H 0.17682 0.90707 0.33987 0.0
H408 H 0.20472 0.88267 0.35262 0.0
H409 H 0.10957 0.82083 0.51768 0.0
H410 H 0.19825 0.7782 0.52534 0.0
H411 H 0.21009 0.78726 0.47349 0.0
H412 H 0.14158 0.87142 0.4799 0.0
H413 H 0.10225 0.86387 0.49303 0.0
H414 H 0.10798 0.87984 0.45822 0.0
H415 H 0.08752 0.80155 0.45753 0.0
H416 H 0.07998 0.82423 0.42878 0.0
H417 H 0.06812 0.83232 0.46635 0.0
H418 H 0.04385 0.90394 0.40501 0.0
C419 C 0.08336 0.8776 0.40672 0.0
C420 C 0.26102 0.70669 0.8313 0.0
C421 C 0.23906 0.72441 0.84411 0.0
C422 C 0.23978 0.72857 0.87514 0.0
C423 C 0.28289 0.6968 0.88002 0.0
C424 C 0.28257 0.69318 0.84955 0.0
C425 C 0.30716 0.67346 0.83934 0.0
H426 H 0.40706 0.57377 0.87294 0.0
C427 C 0.3072 0.67876 0.89262 0.0
C428 C 0.32138 0.66499 0.86883 0.0
H429 H 0.38731 0.60738 0.7863 0.0
H430 H 0.35512 0.641 0.80905 0.0
H431 H 0.42408 0.62993 0.89945 0.0
H432 H 0.33919 0.58268 0.90517 0.0
H433 H 0.34881 0.59485 0.94094 0.0
H434 H 0.37664 0.5738 0.92162 0.0
H435 H 0.41997 0.60439 0.92677 0.0
H436 H 0.40691 0.63808 0.9338 0.0
C437 C 0.33171 0.68814 0.81961 0.0
C438 C 0.28971 0.65027 0.82346 0.0
C439 C 0.3268 0.67578 1.0044 0.0
C440 C 0.34714 0.66021 0.02193 0.0
C441 C 0.36534 0.64 0.00847 0.0
C442 C 0.36384 0.63557 0.97775 0.0
C443 C 0.344 0.65161 0.96025 0.0
C444 C 0.32556 0.67111 0.9736 0.0
C445 C 0.30562 0.6859 0.95128 0.0
C446 C 0.31635 0.67298 0.92233 0.0
C447 C 0.33872 0.65281 0.92782 0.0
C448 C 0.31468 0.71572 0.95272 0.0
C449 C 0.27016 0.68014 0.95805 0.0
C450 C 0.39628 0.58836 0.85857 0.0
C451 C 0.39912 0.58675 0.82732 0.0
C452 C 0.38455 0.60685 0.81016 0.0
C453 C 0.36601 0.62675 0.82345 0.0
C454 C 0.36231 0.62718 0.85438 0.0
C455 C 0.37845 0.60896 0.87151 0.0
C456 C 0.37486 0.61468 0.90424 0.0
C457 C 0.35247 0.63845 0.90375 0.0
C458 C 0.3446 0.64516 0.87446 0.0
C459 C 0.40807 0.622 0.91696 0.0
C460 C 0.35922 0.59024 0.91901 0.0
H461 H 0.26073 0.71877 0.91656 0.0
H462 H 0.26148 0.70343 0.8075 0.0
H463 H 0.26919 0.64341 0.83699 0.0
H464 H 0.30482 0.63265 0.81988 0.0
H465 H 0.28042 0.65666 0.80152 0.0
H466 H 0.33152 0.70999 0.82369 0.0
H467 H 0.32673 0.68491 0.79562 0.0
H468 H 0.35648 0.68197 0.82444 0.0
H469 H 0.31263 0.69145 0.01437 0.0
H470 H 0.38116 0.62789 0.02176 0.0
H471 H 0.3784 0.61996 0.96879 0.0
H472 H 0.34089 0.71809 0.955 0.0
H473 H 0.30334 0.72567 0.97209 0.0
H474 H 0.30824 0.72662 0.93239 0.0
H475 H 0.26702 0.65966 0.96683 0.0
H476 H 0.25497 0.68078 0.93805 0.0
H477 H 0.26068 0.69424 0.97493 0.0
H478 H 0.22299 0.742 0.88562 0.0
C479 C 0.26153 0.71489 0.89312 0.0
Zn480 Zn 0.02711 0.14953 0.31121 0.0
Zn481 Zn 0.98067 0.12768 0.20846 0.0
Zn482 Zn 0.00584 0.13929 0.25943 0.0
C483 C 0.03553 0.15716 0.19647 0.0
C484 C 0.9925 0.07949 0.23367 0.0
O485 O 0.971 0.16434 0.28486 0.0
O486 O 0.99724 0.17746 0.32485 0.0
C487 C 0.07439 0.16504 0.27223 0.0
O488 O 0.03915 0.15491 0.22481 0.0
O489 O 0.01068 0.1483 0.18416 0.0
O490 O 0.98521 0.08853 0.20851 0.0
O491 O 0.99978 0.09549 0.25512 0.0
O492 O 0.06997 0.16038 0.29939 0.0
O493 O 0.0523 0.15995 0.25314 0.0
O494 O 0.01314 0.1008 0.28305 0.0
O495 O 0.0232 0.11385 0.32903 0.0
C496 C 0.01877 0.09531 0.3105 0.0
O497 O 0.95876 0.15937 0.2564 0.0
O498 O 0.93772 0.14274 0.21522 0.0
C499 C 0.97245 0.17808 0.30913 0.0
C500 C 0.93539 0.15735 0.23798 0.0
Zn501 Zn 0.53606 0.35474 0.7017 0.0
Zn502 Zn 0.48589 0.36278 0.80561 0.0
Zn503 Zn 0.50951 0.35671 0.75248 0.0
C504 C 0.48876 0.41327 0.78416 0.0
C505 C 0.4441 0.32953 0.77401 0.0
O506 O 0.55681 0.33569 0.75638 0.0
O507 O 0.57787 0.3405 0.71177 0.0
C508 C 0.52375 0.40747 0.70942 0.0
O509 O 0.49956 0.39953 0.76204 0.0
O510 O 0.48105 0.4019 0.80798 0.0
O511 O 0.44816 0.34023 0.79914 0.0
O512 O 0.46412 0.33357 0.7528 0.0
O513 O 0.53401 0.39212 0.6894 0.0
O514 O 0.5143 0.39795 0.73445 0.0
O515 O 0.47612 0.33433 0.72287 0.0
O516 O 0.50538 0.33059 0.6823 0.0
C517 C 0.47971 0.32605 0.69587 0.0
O518 O 0.54452 0.33973 0.7851 0.0
O519 O 0.52038 0.34639 0.82812 0.0
C520 C 0.58004 0.3321 0.738 0.0
C521 C 0.54389 0.33768 0.81368 0.0
Zn522 Zn 0.01958 0.86581 0.80281 0.0
Zn523 Zn 0.97152 0.84666 0.70093 0.0
Zn524 Zn 0.99607 0.85451 0.75173 0.0
C525 C 0.97868 0.90067 0.704 0.0
C526 C 0.92781 0.82544 0.7389 0.0
O527 O 0.0425 0.8332 0.75473 0.0
O528 O 0.06107 0.8482 0.79757 0.0
C529 C 0.01183 0.91434 0.77866 0.0
O530 O 0.98835 0.89395 0.73009 0.0
O531 O 0.97049 0.88304 0.68552 0.0
O532 O 0.93073 0.83087 0.71176 0.0
O533 O 0.94991 0.83215 0.75745 0.0
O534 O 0.01874 0.90497 0.80374 0.0
O535 O 0.00341 0.89857 0.75727 0.0
O536 O 0.96247 0.83809 0.78558 0.0
O537 O 0.98854 0.8468 0.82716 0.0
C538 C 0.96483 0.83675 0.81411 0.0
O539 O 0.03139 0.83117 0.72492 0.0
O540 O 0.0042 0.82313 0.6839 0.0
C541 C 0.06449 0.83381 0.77473 0.0
C542 C 0.02952 0.82075 0.69871 0.0
Zn543 Zn 0.52108 0.64916 0.21058 0.0
Zn544 Zn 0.4776 0.64459 0.31271 0.0
Zn545 Zn 0.4997 0.64835 0.26151 0.0
C546 C 0.53695 0.66589 0.32129 0.0
C547 C 0.47462 0.59382 0.29186 0.0
O548 O 0.46159 0.66502 0.23155 0.0
O549 O 0.48242 0.65516 0.18776 0.0
C550 C 0.55763 0.68489 0.24125 0.0
O551 O 0.53501 0.66733 0.2927 0.0
O552 O 0.51529 0.6546 0.33589 0.0
O553 O 0.46352 0.60718 0.31325 0.0
O554 O 0.49096 0.60554 0.27149 0.0
O555 O 0.54899 0.68009 0.21497 0.0
O556 O 0.54411 0.67275 0.26303 0.0
O557 O 0.51323 0.60686 0.24882 0.0
O558 O 0.54111 0.61359 0.20807 0.0
C559 C 0.53171 0.59802 0.2281 0.0
O560 O 0.45422 0.67196 0.26103 0.0
O561 O 0.44552 0.67272 0.30934 0.0
C562 C 0.45942 0.66377 0.20292 0.0
C563 C 0.4387 0.68095 0.28372 0.0
H564 H 0.08143 0.94516 0.32058 0.0
H565 H 0.0469 0.94791 0.41169 0.0
H566 H 0.02191 0.9907 0.40217 0.0
H567 H 0.10356 0.01372 0.31991 0.0
H568 H 0.09307 0.01895 0.28156 0.0
H569 H 0.10508 0.98643 0.2938 0.0
H570 H 0.05281 0.96696 0.27299 0.0
H571 H 0.03991 0.99949 0.26142 0.0
H572 H 0.01527 0.97991 0.28577 0.0
H573 H 0.00336 0.03394 0.38538 0.0
H574 H 0.99612 0.07797 0.36282 0.0
H575 H 0.04495 0.05083 0.28336 0.0
C576 C 0.06851 0.95459 0.33854 0.0
C577 C 0.06538 0.94218 0.36665 0.0
C578 C 0.04852 0.95583 0.38947 0.0
C579 C 0.03436 0.98049 0.38442 0.0
C580 C 0.03762 0.99189 0.35661 0.0
C581 C 0.05464 0.97973 0.33411 0.0
C582 C 0.05686 0.99786 0.30726 0.0
C583 C 0.09171 0.00464 0.30023 0.0
C584 C 0.0402 0.98531 0.28025 0.0
C585 C 0.03884 0.02214 0.31856 0.0
C586 C 0.02763 0.01789 0.34697 0.0
C587 C 0.01174 0.0375 0.36304 0.0
C588 C 0.0078 0.06245 0.35007 0.0
C589 C 0.0197 0.06767 0.32133 0.0
C590 C 0.03502 0.04713 0.30513 0.0
H591 H 0.44762 0.55489 0.84984 0.0
H592 H 0.38836 0.56528 0.77142 0.0
H593 H 0.41362 0.52655 0.7484 0.0
H594 H 0.51786 0.52584 0.81408 0.0
H595 H 0.52369 0.50135 0.84265 0.0
H596 H 0.50641 0.53321 0.85174 0.0
H597 H 0.45688 0.5108 0.87423 0.0
H598 H 0.47404 0.47876 0.86649 0.0
H599 H 0.43502 0.48675 0.8525 0.0
H600 H 0.44041 0.48376 0.73555 0.0
H601 H 0.46137 0.43786 0.73699 0.0
H602 H 0.49854 0.45232 0.82538 0.0
C603 C 0.43981 0.54934 0.82779 0.0
C604 C 0.41607 0.56397 0.81257 0.0
C605 C 0.4072 0.5555 0.78352 0.0
C606 C 0.42134 0.53322 0.77013 0.0
C607 C 0.44404 0.51911 0.78607 0.0
C608 C 0.45291 0.52664 0.81443 0.0
C609 C 0.47418 0.50591 0.82854 0.0
C610 C 0.50752 0.51725 0.83459 0.0
C611 C 0.45911 0.4949 0.85711 0.0
C612 C 0.47491 0.48514 0.80404 0.0
C613 C 0.45817 0.4935 0.77937 0.0
C614 C 0.4539 0.47712 0.75459 0.0
C615 C 0.46607 0.45116 0.75549 0.0
C616 C 0.48199 0.44186 0.78106 0.0
C617 C 0.48692 0.45922 0.80537 0.0
H618 H 0.57436 0.56012 0.71034 0.0
H619 H 0.53413 0.56118 0.62116 0.0
H620 H 0.51004 0.51807 0.6296 0.0
H621 H 0.59861 0.49393 0.70578 0.0
H622 H 0.59053 0.48564 0.74394 0.0
H623 H 0.5996 0.51942 0.7341 0.0
H624 H 0.54712 0.53475 0.75854 0.0
H625 H 0.53703 0.5009 0.76772 0.0
H626 H 0.50991 0.52079 0.74617 0.0
H627 H 0.49553 0.47329 0.64342 0.0
H628 H 0.4949 0.42713 0.66128 0.0
H629 H 0.54644 0.45117 0.74044 0.0
C630 C 0.56015 0.55158 0.69267 0.0
C631 C 0.55548 0.56514 0.66539 0.0
C632 C 0.53701 0.55251 0.64291 0.0
C633 C 0.52327 0.52761 0.64732 0.0
C634 C 0.52843 0.51494 0.67417 0.0
C635 C 0.54663 0.52621 0.69645 0.0
C636 C 0.55159 0.50651 0.72158 0.0
C637 C 0.5872 0.50105 0.72663 0.0
C638 C 0.53545 0.51633 0.7502 0.0
C639 C 0.53463 0.48218 0.70908 0.0
C640 C 0.52078 0.48792 0.68203 0.0
C641 C 0.50578 0.46858 0.66481 0.0
C642 C 0.50562 0.44245 0.67506 0.0
C643 C 0.52031 0.43582 0.70225 0.0
C644 C 0.53445 0.45598 0.71987 0.0
H645 H 0.96585 0.93366 0.17511 0.0
H646 H 0.90159 0.92454 0.25008 0.0
H647 H 0.92344 0.96492 0.27263 0.0
H648 H 0.03227 0.96741 0.21458 0.0
H649 H 0.0389 0.99023 0.1845 0.0
H650 H 0.02439 0.95713 0.17689 0.0
H651 H 0.9758 0.97631 0.14901 0.0
H652 H 0.99022 0.00941 0.15585 0.0
H653 H 0.95066 1.00033 0.16741 0.0
H654 H 0.94645 0.00936 0.28436 0.0
H655 H 0.96433 0.05608 0.28112 0.0
H656 H 0.00904 0.03897 0.1965 0.0
C657 C 0.9564 0.93981 0.19639 0.0
C658 C 0.93209 0.92521 0.21073 0.0
C659 C 0.92091 0.9344 0.23877 0.0
C660 C 0.93309 0.95759 0.25186 0.0
C661 C 0.95623 0.97179 0.23664 0.0
C662 C 0.96761 0.96336 0.20939 0.0
C663 C 0.98873 0.98424 0.19547 0.0
C664 C 0.02312 0.97415 0.19271 0.0
C665 C 0.97555 0.99309 0.16516 0.0
C666 C 0.98619 0.00619 0.21851 0.0
C667 C 0.96818 0.9983 0.24255 0.0
C668 C 0.96093 0.01568 0.26584 0.0
C669 C 0.97137 0.04209 0.26396 0.0
C670 C 0.98845 0.05084 0.23882 0.0
C671 C 0.99651 0.03253 0.21619 0.0
H672 H 0.91629 0.05066 0.70505 0.0
H673 H 0.93219 0.04663 0.60948 0.0
H674 H 0.96098 0.00528 0.61552 0.0
H675 H 0.98943 0.01581 0.72959 0.0
H676 H 0.96856 0.99696 0.7574 0.0
H677 H 0.95473 0.02964 0.7474 0.0
H678 H 0.89913 0.00994 0.73549 0.0
H679 H 0.91316 0.97739 0.74553 0.0
H680 H 0.89593 0.98274 0.70938 0.0
H681 H 0.98432 0.96316 0.62942 0.0
H682 H 0.99437 0.91879 0.64998 0.0
H683 H 0.9587 0.94506 0.73567 0.0
C684 C 0.926 0.04136 0.68533 0.0
C685 C 0.92288 0.05326 0.6569 0.0
C686 C 0.93562 0.03955 0.63186 0.0
C687 C 0.95193 0.01558 0.63492 0.0
C688 C 0.95474 0.00472 0.66304 0.0
C689 C 0.94161 0.01672 0.68779 0.0
C690 C 0.94425 0.99855 0.7146 0.0
C691 C 0.96553 0.01101 0.73866 0.0
C692 C 0.91115 0.99175 0.72696 0.0
C693 C 0.96007 0.97433 0.70062 0.0
C694 C 0.96662 0.97884 0.67101 0.0
C695 C 0.97959 0.95937 0.65263 0.0
C696 C 0.98514 0.93423 0.66449 0.0
C697 C 0.97753 0.92863 0.69439 0.0
C698 C 0.96543 0.94907 0.71293 0.0
H699 H 0.61286 0.4718 0.15314 0.0
H700 H 0.60736 0.43181 0.23823 0.0
H701 H 0.58043 0.4711 0.25968 0.0
H702 H 0.62763 0.53632 0.18003 0.0
H703 H 0.60324 0.55264 0.1527 0.0
H704 H 0.62156 0.52118 0.14407 0.0
H705 H 0.5664 0.50124 0.13099 0.0
H706 H 0.5479 0.53271 0.13945 0.0
H707 H 0.5347 0.50297 0.15789 0.0
H708 H 0.55673 0.51648 0.27249 0.0
H709 H 0.53662 0.56276 0.27453 0.0
H710 H 0.55369 0.57057 0.18002 0.0
C711 C 0.60551 0.47092 0.17614 0.0
C712 C 0.61246 0.44856 0.19392 0.0
C713 C 0.60292 0.44879 0.22416 0.0
C714 C 0.58734 0.47096 0.23654 0.0
C715 C 0.58107 0.49267 0.21834 0.0
C716 C 0.58962 0.49266 0.18871 0.0
C717 C 0.58045 0.51844 0.17385 0.0
C718 C 0.60998 0.533 0.16198 0.0
C719 C 0.5559 0.51354 0.14908 0.0
C720 C 0.56583 0.53318 0.19983 0.0
C721 C 0.56639 0.51809 0.22537 0.0
C722 C 0.55561 0.52825 0.25247 0.0
C723 C 0.54399 0.55447 0.2534 0.0
C724 C 0.54265 0.57001 0.2273 0.0
C725 C 0.55386 0.55908 0.20029 0.0
H726 H 0.41934 0.45637 0.35977 0.0
H727 H 0.42793 0.42121 0.27182 0.0
H728 H 0.44862 0.46381 0.25279 0.0
H729 H 0.39347 0.51876 0.33821 0.0
H730 H 0.41571 0.53695 0.36588 0.0
H731 H 0.40371 0.50324 0.37294 0.0
H732 H 0.46232 0.48996 0.38298 0.0
H733 H 0.4745 0.52376 0.37629 0.0
H734 H 0.49223 0.49688 0.35542 0.0
H735 H 0.46355 0.51195 0.24262 0.0
H736 H 0.47446 0.56036 0.24317 0.0
H737 H 0.45974 0.56208 0.33849 0.0
C738 C 0.42636 0.45725 0.33668 0.0
C739 C 0.42187 0.43533 0.31734 0.0
C740 C 0.43066 0.43779 0.28705 0.0
C741 C 0.44266 0.46186 0.27605 0.0
C742 C 0.44614 0.48319 0.29568 0.0
C743 C 0.43865 0.48094 0.32544 0.0
C744 C 0.44358 0.50693 0.34183 0.0
C745 C 0.41225 0.51706 0.3555 0.0
C746 C 0.46972 0.50421 0.36553 0.0
C747 C 0.4543 0.52437 0.31653 0.0
C748 C 0.45572 0.51041 0.29004 0.0
C749 C 0.46319 0.52292 0.26336 0.0
C750 C 0.46949 0.55038 0.26388 0.0
C751 C 0.46878 0.56483 0.29095 0.0
C752 C 0.46097 0.55152 0.31748 0.0
H753 H 0.05276 0.05744 0.83842 0.0
H754 H 0.11575 0.06378 0.76211 0.0
H755 H 0.08989 0.02503 0.73955 0.0
H756 H 0.06302 0.98938 0.84437 0.0
H757 H 0.02324 0.98279 0.8573 0.0
H758 H 0.04113 0.01467 0.86423 0.0
H759 H 0.99323 0.03732 0.83896 0.0
H760 H 0.97531 0.00554 0.83069 0.0
H761 H 0.98301 0.02881 0.80125 0.0
H762 H 0.06157 0.98241 0.72727 0.0
H763 H 0.03935 0.93695 0.73017 0.0
H764 H 1.00011 0.95534 0.81682 0.0
C765 C 0.06134 0.05101 0.81694 0.0
C766 C 0.08637 0.06446 0.8022 0.0
C767 C 0.09604 0.05489 0.77382 0.0
C768 C 0.08153 0.0326 0.7607 0.0
C769 C 0.05761 0.01959 0.77625 0.0
C770 C 0.04791 0.02827 0.80396 0.0
C771 C 0.02546 0.00853 0.81818 0.0
C772 C 0.03904 0.99823 0.84775 0.0
C773 C 0.99228 0.02078 0.82251 0.0
C774 C 0.025 0.98694 0.79459 0.0
C775 C 0.04281 0.99408 0.77012 0.0
C776 C 0.04729 0.97672 0.74618 0.0
C777 C 0.03441 0.95101 0.74789 0.0
C778 C 0.01776 0.94286 0.77355 0.0
C779 C 0.01233 0.9613 0.79676 0.0
H780 H 0.09057 0.18243 0.03442 0.0
H781 H 0.18531 0.15816 0.06022 0.0
H782 H 0.17005 0.16212 0.11339 0.0
H783 H 0.07609 0.22943 0.09887 0.0
H784 H 0.03484 0.2198 0.10055 0.0
H785 H 0.05536 0.2199 0.0654 0.0
H786 H 0.03984 0.17052 0.0569 0.0
H787 H 0.01931 0.17031 0.0918 0.0
H788 H 0.05019 0.14624 0.0846 0.0
H789 H 0.14062 0.16088 0.16332 0.0
H790 H 0.10078 0.15424 0.20321 0.0
H791 H 0.02661 0.18159 0.14399 0.0
C792 C 0.10834 0.1788 0.05136 0.0
C793 C 0.13908 0.17016 0.04347 0.0
C794 C 0.16173 0.16513 0.066 0.0
C795 C 0.15323 0.16736 0.09618 0.0
C796 C 0.12222 0.17518 0.10331 0.0
C797 C 0.10034 0.18123 0.08136 0.0
C798 C 0.06776 0.18653 0.09421 0.0
C799 C 0.05795 0.21565 0.08948 0.0
C800 C 0.04284 0.16724 0.08112 0.0
C801 C 0.07408 0.18103 0.12664 0.0
C802 C 0.10569 0.17499 0.13178 0.0
C803 C 0.11602 0.1663 0.15965 0.0
C804 C 0.09329 0.16276 0.18232 0.0
C805 C 0.06069 0.1677 0.17678 0.0
C806 C 0.05145 0.17801 0.14899 0.0
H807 H 0.42231 0.28803 0.53808 0.0
H808 H 0.33463 0.32946 0.55782 0.0
H809 H 0.34753 0.32829 0.61155 0.0
H810 H 0.42431 0.24639 0.60931 0.0
H811 H 0.46699 0.24938 0.61118 0.0
H812 H 0.44729 0.2482 0.5756 0.0
H813 H 0.47418 0.29264 0.56107 0.0
H814 H 0.49384 0.29395 0.5964 0.0
H815 H 0.46924 0.32137 0.58479 0.0
H816 H 0.37643 0.33258 0.66028 0.0
H817 H 0.41728 0.3402 0.6988 0.0
H818 H 0.48375 0.29174 0.64937 0.0
C819 C 0.40526 0.29575 0.55396 0.0
C820 C 0.37731 0.30844 0.54414 0.0
C821 C 0.35584 0.31917 0.56516 0.0
C822 C 0.36303 0.31859 0.59566 0.0
C823 C 0.39144 0.30669 0.6047 0.0
C824 C 0.41189 0.29493 0.58443 0.0
C825 C 0.44251 0.28619 0.59916 0.0
C826 C 0.44543 0.25573 0.59879 0.0
C827 C 0.47162 0.29934 0.5845 0.0
C828 C 0.43716 0.29655 0.63041 0.0
C829 C 0.40735 0.30792 0.63341 0.0
C830 C 0.39915 0.32255 0.65874 0.0
C831 C 0.42226 0.32637 0.68098 0.0
C832 C 0.45301 0.31535 0.67799 0.0
C833 C 0.45998 0.29948 0.65282 0.0
H834 H 0.60634 0.3085 0.97142 0.0
H835 H 0.69662 0.34183 0.9448 0.0
H836 H 0.68073 0.33773 0.89181 0.0
H837 H 0.59562 0.26236 0.90462 0.0
H838 H 0.55342 0.26869 0.90434 0.0
H839 H 0.57495 0.26873 0.939 0.0
H840 H 0.55406 0.31621 0.95059 0.0
H841 H 0.53254 0.31625 0.91621 0.0
H842 H 0.56071 0.34238 0.92409 0.0
H843 H 0.65014 0.33832 0.84286 0.0
H844 H 0.60828 0.34452 0.80464 0.0
H845 H 0.53928 0.30892 0.86356 0.0
C846 C 0.62317 0.31388 0.95427 0.0
C847 C 0.65277 0.32507 0.96185 0.0
C848 C 0.67404 0.33274 0.93916 0.0
C849 C 0.66518 0.33044 0.90909 0.0
C850 C 0.63523 0.32002 0.90223 0.0
C851 C 0.61477 0.31148 0.92432 0.0
C852 C 0.58255 0.30415 0.91187 0.0
C853 C 0.57628 0.2742 0.91515 0.0
C854 C 0.55594 0.32075 0.92654 0.0
C855 C 0.58722 0.3115 0.87965 0.0
C856 C 0.61791 0.32005 0.87416 0.0
C857 C 0.62633 0.33094 0.84672 0.0
C858 C 0.60249 0.33422 0.82499 0.0
C859 C 0.57071 0.32689 0.8311 0.0
C860 C 0.56355 0.31427 0.85818 0.0
H861 H 0.85494 0.15749 0.43481 0.0
H862 H 0.87576 0.23828 0.46195 0.0
H863 H 0.89504 0.24816 0.41129 0.0
H864 H 0.92052 0.14598 0.39838 0.0
H865 H 0.90457 0.12628 0.36828 0.0
H866 H 0.8837 0.12805 0.40288 0.0
H867 H 0.83318 0.14459 0.37565 0.0
H868 H 0.85406 0.14285 0.3407 0.0
H869 H 0.8354 0.17349 0.35222 0.0
H870 H 0.92624 0.245 0.36457 0.0
H871 H 0.96386 0.22965 0.32597 0.0
H872 H 0.91989 0.15201 0.32616 0.0
C873 C 0.86206 0.1776 0.4295 0.0
C874 C 0.8636 0.19724 0.452 0.0
C875 C 0.87384 0.22317 0.44479 0.0
C876 C 0.88486 0.22889 0.41606 0.0
C877 C 0.88475 0.20862 0.39467 0.0
C878 C 0.87282 0.1836 0.40089 0.0
C879 C 0.87966 0.16417 0.37581 0.0
C880 C 0.89823 0.13972 0.38702 0.0
C881 C 0.84873 0.15579 0.36017 0.0
C882 C 0.89981 0.18141 0.35574 0.0
C883 C 0.90185 0.2072 0.36662 0.0
C884 C 0.92373 0.22529 0.35507 0.0
C885 C 0.94495 0.21649 0.33304 0.0
C886 C 0.94384 0.19 0.32248 0.0
C887 C 0.91998 0.17274 0.33288 0.0
H888 H 0.91521 0.80798 0.97536 0.0
H889 H 0.82185 0.83864 0.95416 0.0
H890 H 0.83399 0.83439 0.90032 0.0
H891 H 0.95613 0.84234 0.92468 0.0
H892 H 0.98448 0.81665 0.91562 0.0
H893 H 0.96551 0.8168 0.95125 0.0
H894 H 0.94542 0.76869 0.94189 0.0
H895 H 0.96429 0.7685 0.90594 0.0
H896 H 0.92243 0.76131 0.90905 0.0
H897 H 0.86096 0.83494 0.84942 0.0
H898 H 0.89975 0.84149 0.80857 0.0
H899 H 0.97411 0.80853 0.86374 0.0
C900 C 0.897 0.81294 0.95928 0.0
C901 C 0.86763 0.82348 0.96862 0.0
C902 C 0.84438 0.83022 0.94723 0.0
C903 C 0.8511 0.8278 0.91668 0.0
C904 C 0.88087 0.81805 0.90808 0.0
C905 C 0.90322 0.81035 0.92894 0.0
C906 C 0.93466 0.80347 0.91464 0.0
C907 C 0.96175 0.82086 0.92728 0.0
C908 C 0.94212 0.77372 0.91808 0.0
C909 C 0.92735 0.81017 0.88268 0.0
C910 C 0.89604 0.81795 0.87897 0.0
C911 C 0.88525 0.82818 0.85192 0.0
C912 C 0.90734 0.83168 0.82872 0.0
C913 C 0.93975 0.82526 0.83304 0.0
C914 C 0.9493 0.81317 0.85977 0.0
H915 H 0.59821 0.7181 0.47394 0.0
H916 H 0.68762 0.67857 0.45564 0.0
H917 H 0.67194 0.67318 0.40289 0.0
H918 H 0.55127 0.67752 0.43355 0.0
H919 H 0.52442 0.70259 0.41986 0.0
H920 H 0.5454 0.70803 0.45408 0.0
H921 H 0.56868 0.75196 0.43351 0.0
H922 H 0.54761 0.74665 0.39908 0.0
H923 H 0.59008 0.7516 0.39883 0.0
H924 H 0.64116 0.66305 0.35586 0.0
H925 H 0.59975 0.65197 0.31865 0.0
H926 H 0.53241 0.70145 0.36587 0.0
C927 C 0.61491 0.70919 0.45852 0.0
C928 C 0.64419 0.69894 0.46867 0.0
C929 C 0.6653 0.68695 0.44812 0.0
C930 C 0.65653 0.68376 0.41815 0.0
C931 C 0.62688 0.69323 0.40902 0.0
C932 C 0.60669 0.70622 0.42855 0.0
C933 C 0.57497 0.71225 0.41418 0.0
C934 C 0.54742 0.69931 0.43143 0.0
C935 C 0.57006 0.74241 0.41122 0.0
C936 C 0.57968 0.69928 0.38409 0.0
C937 C 0.60989 0.68865 0.38127 0.0
C938 C 0.61801 0.67239 0.35715 0.0
C939 C 0.59454 0.6665 0.3358 0.0
C940 C 0.56362 0.67728 0.33839 0.0
C941 C 0.55641 0.69416 0.3626 0.0
H942 H 0.39098 0.69255 0.04709 0.0
H943 H 0.31463 0.63829 0.06819 0.0
H944 H 0.32861 0.64144 0.12167 0.0
H945 H 0.44558 0.66522 0.09236 0.0
H946 H 0.465 0.6957 0.1033 0.0
H947 H 0.44427 0.69389 0.06852 0.0
H948 H 0.4099 0.73452 0.08395 0.0
H949 H 0.43054 0.73631 0.11904 0.0
H950 H 0.38779 0.73367 0.11822 0.0
H951 H 0.35742 0.64395 0.17095 0.0
H952 H 0.39934 0.64378 0.20973 0.0
H953 H 0.45624 0.69693 0.15651 0.0
C954 C 0.37647 0.68228 0.06324 0.0
C955 C 0.35135 0.66569 0.05393 0.0
C956 C 0.33352 0.65155 0.07523 0.0
C957 C 0.34129 0.6533 0.10558 0.0
C958 C 0.36683 0.6694 0.11415 0.0
C959 C 0.38399 0.6838 0.0935 0.0
C960 C 0.41296 0.69662 0.10748 0.0
C961 C 0.44374 0.68728 0.09201 0.0
C962 C 0.41011 0.72709 0.10715 0.0
C963 C 0.41051 0.68603 0.13879 0.0
C964 C 0.38337 0.67088 0.14255 0.0
C965 C 0.37821 0.65643 0.16856 0.0
C966 C 0.40198 0.65658 0.19062 0.0
C967 C 0.43045 0.671 0.18639 0.0
C968 C 0.43409 0.6866 0.16068 0.0
H969 H 0.10014 0.77522 0.54809 0.0
H970 H 0.18807 0.81377 0.5736 0.0
H971 H 0.16989 0.81534 0.62596 0.0
H972 H 0.05129 0.81285 0.58857 0.0
H973 H 0.02368 0.78713 0.59903 0.0
H974 H 0.0467 0.7835 0.56576 0.0
H975 H 0.06878 0.73849 0.58458 0.0
H976 H 0.04566 0.74198 0.61809 0.0
H977 H 0.08804 0.73692 0.62032 0.0
H978 H 0.13677 0.82181 0.67256 0.0
H979 H 0.09311 0.83156 0.70781 0.0
H980 H 0.02832 0.78599 0.65264 0.0
C981 C 0.11603 0.78298 0.56499 0.0
C982 C 0.14555 0.79412 0.55706 0.0
C983 C 0.16558 0.80471 0.57945 0.0
C984 C 0.15539 0.80569 0.6092 0.0
C985 C 0.12545 0.79545 0.6162 0.0
C986 C 0.10636 0.78379 0.5947 0.0
C987 C 0.07384 0.77707 0.60685 0.0
C988 C 0.04736 0.79098 0.58901 0.0
C989 C 0.0688 0.74681 0.6075 0.0
C990 C 0.07674 0.78839 0.63794 0.0
C991 C 0.10681 0.79848 0.64327 0.0
C992 C 0.11349 0.81316 0.66901 0.0
C993 C 0.08859 0.81847 0.6891 0.0
C994 C 0.05743 0.80913 0.68327 0.0
C995 C 0.05203 0.79295 0.65802 0.0
H996 H 0.23466 0.21594 0.33345 0.0
H997 H 0.2132 0.29098 0.29081 0.0
H998 H 0.17217 0.26875 0.26028 0.0
H999 H 0.21727 0.17156 0.26832 0.0
H1000 H 0.19952 0.14677 0.29184 0.0
H1001 H 0.23142 0.16732 0.3058 0.0
H1002 H 0.1961 0.18248 0.35003 0.0
H1003 H 0.16457 0.16165 0.33649 0.0
H1004 H 0.1575 0.19663 0.34262 0.0
H1005 H 0.12785 0.23985 0.24012 0.0
H1006 H 0.08222 0.20873 0.23686 0.0
H1007 H 0.13258 0.15311 0.29281 0.0
C1008 C 0.22165 0.22766 0.31741 0.0
C1009 C 0.22732 0.25519 0.31449 0.0
C1010 C 0.20975 0.26976 0.29314 0.0
C1011 C 0.18639 0.25727 0.27562 0.0
C1012 C 0.18105 0.23014 0.27943 0.0
C1013 C 0.19827 0.21555 0.29986 0.0
C1014 C 0.18546 0.1876 0.30262 0.0
C1015 C 0.20988 0.1671 0.29147 0.0
C1016 C 0.17529 0.18178 0.33482 0.0
C1017 C 0.1572 0.18915 0.28189 0.0
C1018 C 0.15547 0.21355 0.26795 0.0
C1019 C 0.12935 0.22047 0.25035 0.0
C1020 C 0.10363 0.20263 0.24838 0.0
C1021 C 0.10424 0.17852 0.26433 0.0
C1022 C 0.13197 0.17123 0.27991 0.0
H1023 H 0.33022 0.22548 0.84761 0.0
H1024 H 0.25488 0.25414 0.79036 0.0
H1025 H 0.29418 0.2805 0.76203 0.0
H1026 H 0.37249 0.28478 0.8532 0.0
H1027 H 0.41128 0.26951 0.85279 0.0
H1028 H 0.37759 0.25122 0.86628 0.0
H1029 H 0.38948 0.21352 0.82832 0.0
H1030 H 0.42311 0.23191 0.8145 0.0
H1031 H 0.3922 0.22125 0.78936 0.0
H1032 H 0.34059 0.30884 0.74519 0.0
H1033 H 0.38996 0.33524 0.74074 0.0
H1034 H 0.43578 0.2849 0.80541 0.0
C1035 C 0.32209 0.23711 0.82891 0.0
C1036 C 0.28957 0.23788 0.82117 0.0
C1037 C 0.27977 0.25319 0.79649 0.0
C1038 C 0.30191 0.26818 0.78029 0.0
C1039 C 0.33384 0.2672 0.78869 0.0
C1040 C 0.34391 0.25179 0.81225 0.0
C1041 C 0.37919 0.25512 0.81778 0.0
C1042 C 0.38549 0.2658 0.84937 0.0
C1043 C 0.39704 0.22889 0.81215 0.0
C1044 C 0.38722 0.27557 0.79442 0.0
C1045 C 0.36085 0.28221 0.77767 0.0
C1046 C 0.36174 0.30298 0.75721 0.0
C1047 C 0.39009 0.31757 0.75426 0.0
C1048 C 0.41725 0.31091 0.77114 0.0
C1049 C 0.41576 0.28946 0.79115 0.0
H1050 H 0.73861 0.27602 0.6779 0.0
H1051 H 0.70885 0.19919 0.71112 0.0
H1052 H 0.66843 0.22134 0.74259 0.0
H1053 H 0.72152 0.31592 0.74694 0.0
H1054 H 0.7073 0.34353 0.72531 0.0
H1055 H 0.73821 0.32226 0.7108 0.0
H1056 H 0.7044 0.31306 0.66361 0.0
H1057 H 0.67381 0.33449 0.67779 0.0
H1058 H 0.66441 0.30065 0.66764 0.0
H1059 H 0.62528 0.25145 0.7639 0.0
H1060 H 0.5824 0.2851 0.76864 0.0
H1061 H 0.64026 0.34155 0.72068 0.0
C1062 C 0.72399 0.26383 0.69218 0.0
C1063 C 0.72695 0.23585 0.69198 0.0
C1064 C 0.70738 0.2207 0.71114 0.0
C1065 C 0.68434 0.23314 0.72915 0.0
C1066 C 0.68141 0.26078 0.72808 0.0
C1067 C 0.70091 0.27589 0.71009 0.0
C1068 C 0.69058 0.30469 0.70967 0.0
C1069 C 0.71592 0.32266 0.72405 0.0
C1070 C 0.68282 0.31372 0.67781 0.0
C1071 C 0.66107 0.30324 0.72878 0.0
C1072 C 0.65655 0.27798 0.74003 0.0
C1073 C 0.62898 0.27141 0.75574 0.0
C1074 C 0.6048 0.29068 0.75857 0.0
C1075 C 0.60827 0.3159 0.74522 0.0
C1076 C 0.63735 0.32254 0.73154 0.0
H1077 H 0.83087 0.2792 0.19254 0.0
H1078 H 0.752 0.22395 0.18923 0.0
H1079 H 0.7837 0.19092 0.21702 0.0
H1080 H 0.88869 0.23361 0.17697 0.0
H1081 H 0.91905 0.24736 0.20082 0.0
H1082 H 0.88821 0.26848 0.18658 0.0
H1083 H 0.87351 0.28268 0.24028 0.0
H1084 H 0.9043 0.26135 0.2547 0.0
H1085 H 0.86388 0.25763 0.26731 0.0
H1086 H 0.82579 0.16171 0.23672 0.0
H1087 H 0.87619 0.13752 0.24464 0.0
H1088 H 0.92869 0.21111 0.23648 0.0
C1089 C 0.82012 0.26043 0.19865 0.0
C1090 C 0.789 0.25404 0.18933 0.0
C1091 C 0.77575 0.22911 0.19662 0.0
C1092 C 0.7935 0.21038 0.21251 0.0
C1093 C 0.82445 0.21695 0.22098 0.0
C1094 C 0.8377 0.24141 0.21437 0.0
C1095 C 0.87274 0.24209 0.22246 0.0
C1096 C 0.89337 0.24822 0.19508 0.0
C1097 C 0.87897 0.26213 0.24769 0.0
C1098 C 0.87752 0.21377 0.23302 0.0
C1099 C 0.84913 0.19983 0.23268 0.0
C1100 C 0.84799 0.17256 0.23795 0.0
C1101 C 0.87665 0.15897 0.2425 0.0
C1102 C 0.90595 0.17268 0.24196 0.0
C1103 C 0.90635 0.20051 0.2382 0.0
H1104 H 0.76975 0.75844 0.68815 0.0
H1105 H 0.7984 0.68858 0.73754 0.0
H1106 H 0.84041 0.71499 0.76251 0.0
H1107 H 0.84575 0.78011 0.67231 0.0
H1108 H 0.8363 0.81502 0.67494 0.0
H1109 H 0.80583 0.79153 0.66516 0.0
H1110 H 0.77142 0.80874 0.70907 0.0
H1111 H 0.80219 0.83203 0.71926 0.0
H1112 H 0.78756 0.80863 0.74617 0.0
H1113 H 0.88371 0.74832 0.77768 0.0
H1114 H 0.92564 0.78309 0.77726 0.0
H1115 H 0.86832 0.83004 0.71726 0.0
C1116 C 0.78468 0.74863 0.70435 0.0
C1117 C 0.7807 0.72137 0.71079 0.0
C1118 C 0.80064 0.70951 0.73243 0.0
C1119 C 0.82458 0.72439 0.74678 0.0
C1120 C 0.82812 0.75118 0.73951 0.0
C1121 C 0.80861 0.7631 0.71873 0.0
C1122 C 0.819 0.79126 0.71237 0.0
C1123 C 0.82722 0.79465 0.67925 0.0
C1124 C 0.79352 0.81135 0.72232 0.0
C1125 C 0.84826 0.79307 0.73182 0.0
C1126 C 0.85287 0.77007 0.74794 0.0
C1127 C 0.87999 0.76657 0.76553 0.0
C1128 C 0.90359 0.78649 0.76541 0.0
C1129 C 0.89999 0.80927 0.74744 0.0
C1130 C 0.87139 0.81297 0.73157 0.0
H1131 H 0.68173 0.77869 0.1676 0.0
H1132 H 0.75244 0.74629 0.22743 0.0
H1133 H 0.70971 0.72539 0.25706 0.0
H1134 H 0.61911 0.79068 0.22456 0.0
H1135 H 0.58783 0.78128 0.1992 0.0
H1136 H 0.62362 0.79654 0.18533 0.0
H1137 H 0.63245 0.7566 0.14953 0.0
H1138 H 0.59659 0.74151 0.16298 0.0
H1139 H 0.63356 0.72338 0.16436 0.0
H1140 H 0.65993 0.7025 0.27517 0.0
H1141 H 0.60835 0.67915 0.27868 0.0
H1142 H 0.57007 0.72887 0.20939 0.0
C1143 C 0.68816 0.76742 0.18713 0.0
C1144 C 0.72029 0.76399 0.19523 0.0
C1145 C 0.72787 0.74927 0.22101 0.0
C1146 C 0.70378 0.73743 0.23799 0.0
C1147 C 0.67226 0.74095 0.22919 0.0
C1148 C 0.66446 0.75578 0.20444 0.0
C1149 C 0.62918 0.75485 0.19815 0.0
C1150 C 0.61405 0.78248 0.20205 0.0
C1151 C 0.62258 0.74339 0.16693 0.0
C1152 C 0.61848 0.7361 0.22229 0.0
C1153 C 0.64349 0.7286 0.24036 0.0
C1154 C 0.63993 0.70895 0.26189 0.0
C1155 C 0.6104 0.69602 0.2642 0.0
C1156 C 0.585 0.70287 0.24522 0.0
C1157 C 0.58891 0.72378 0.22479 0.0
H1158 H 0.3211 0.78498 0.35636 0.0
H1159 H 0.26363 0.78149 0.27641 0.0
H1160 H 0.30526 0.75438 0.25178 0.0
H1161 H 0.39933 0.78642 0.32012 0.0
H1162 H 0.41692 0.76562 0.34817 0.0
H1163 H 0.38449 0.7875 0.35766 0.0
H1164 H 0.35258 0.74744 0.37809 0.0
H1165 H 0.38485 0.7255 0.3687 0.0
H1166 H 0.34553 0.71901 0.3544 0.0
H1167 H 0.35228 0.72366 0.23763 0.0
H1168 H 0.39802 0.69238 0.23673 0.0
H1169 H 0.42219 0.71603 0.32658 0.0
C1170 C 0.31728 0.77874 0.33358 0.0
C1171 C 0.28903 0.78539 0.31838 0.0
C1172 C 0.28524 0.77696 0.28845 0.0
C1173 C 0.30874 0.76147 0.27429 0.0
C1174 C 0.33599 0.75472 0.29028 0.0
C1175 C 0.3403 0.76327 0.31927 0.0
C1176 C 0.37033 0.75197 0.33257 0.0
C1177 C 0.39418 0.77421 0.34006 0.0
C1178 C 0.36286 0.73497 0.36005 0.0
C1179 C 0.38188 0.73506 0.30692 0.0
C1180 C 0.36222 0.73707 0.28246 0.0
C1181 C 0.36792 0.72218 0.25665 0.0
C1182 C 0.39398 0.70447 0.25621 0.0
C1183 C 0.41355 0.70157 0.28154 0.0
C1184 C 0.40759 0.71759 0.30683 0.0
H1185 H 0.22038 0.77657 0.84704 0.0
H1186 H 0.20302 0.70289 0.79918 0.0
H1187 H 0.16056 0.72488 0.77026 0.0
H1188 H 0.14141 0.79473 0.85556 0.0
H1189 H 0.148 0.8299 0.85099 0.0
H1190 H 0.17943 0.80915 0.86482 0.0
H1191 H 0.21635 0.8254 0.82252 0.0
H1192 H 0.18483 0.84611 0.80842 0.0
H1193 H 0.20366 0.82199 0.78443 0.0
H1194 H 0.11536 0.75374 0.75105 0.0
H1195 H 0.07169 0.78629 0.74454 0.0
H1196 H 0.12034 0.84107 0.80382 0.0
C1197 C 0.20788 0.76513 0.83025 0.0
C1198 C 0.21505 0.73805 0.82534 0.0
C1199 C 0.19821 0.72378 0.80307 0.0
C1200 C 0.17404 0.7361 0.78654 0.0
C1201 C 0.16727 0.76279 0.79224 0.0
C1202 C 0.18391 0.77715 0.81346 0.0
C1203 C 0.17073 0.80495 0.81695 0.0
C1204 C 0.1592 0.80995 0.84896 0.0
C1205 C 0.19536 0.82584 0.80751 0.0
C1206 C 0.14325 0.80371 0.79528 0.0
C1207 C 0.14178 0.77941 0.78087 0.0
C1208 C 0.11669 0.77304 0.76173 0.0
C1209 C 0.09207 0.79171 0.75797 0.0
C1210 C 0.09282 0.81636 0.77331 0.0
C1211 C 0.11927 0.82254 0.79146 0.0
loop_
_geom_bond_atom_site_label_1
_geom_bond_atom_site_label_2
_geom_bond_distance
_geom_bond_site_symmetry_2
_ccdc_geom_bond_type
C0 C1 1.391 . S
C0 C4 1.391 . S
C0 H42 0.948 . S
C1 C0 1.391 . S
C1 C2 1.391 . S
C2 C1 1.391 . S
C2 H58 0.947 . S
C2 C59 1.392 . S
C3 C4 1.391 . S
C3 C7 1.397 . S
C3 C59 1.419 . S
C4 C0 1.391 . S
C4 C3 1.391 . S
C4 C5 1.399 . S
C5 C4 1.399 . S
C5 C8 1.396 . S
C5 C17 1.453 . S
C5 C18 1.684 . S
H6 C30 0.948 . S
C7 C3 1.397 . S
C7 C8 1.394 . S
C7 C26 1.723 . S
C8 C5 1.396 . S
C8 C7 1.394 . S
C8 C38 1.723 . S
H9 C32 0.947 . S
H10 C33 0.948 . S
H11 C39 0.982 . S
H12 C40 0.979 . S
H13 C40 0.980 . S
H14 C40 0.983 . S
H15 C39 0.979 . S
H16 C39 0.977 . S
C17 C5 1.453 . S
C17 H46 0.982 . S
C17 H47 0.979 . S
C17 H48 0.977 . S
C18 C5 1.684 . S
C18 H43 0.979 . S
C18 H44 0.980 . S
C18 H45 0.983 . S
C19 C20 1.391 . S
C19 C24 1.391 . S
C19 H49 0.948 . S
C20 C19 1.391 . S
C20 C21 1.391 . S
C21 C20 1.391 . S
C21 C22 1.392 . S
C21 H50 0.947 . S
C22 C21 1.392 . S
C22 C23 1.419 . S
C22 H51 0.948 . S
C23 C22 1.419 . S
C23 C24 1.391 . S
C23 C27 1.397 . S
C24 C19 1.391 . S
C24 C23 1.391 . S
C24 C25 1.399 . S
C25 C24 1.399 . S
C25 C26 1.396 . S
C25 C28 1.453 . S
C25 C29 1.684 . S
C26 C7 1.723 . S
C26 C25 1.396 . S
C26 C27 1.394 . S
C27 C23 1.397 . S
C27 C26 1.394 . S
C27 C37 1.723 . S
C28 C25 1.453 . S
C28 H52 0.982 . S
C28 H53 0.979 . S
C28 H54 0.977 . S
C29 C25 1.684 . S
C29 H55 0.979 . S
C29 H56 0.980 . S
C29 H57 0.983 . S
C30 H6 0.948 . S
C30 C31 1.391 . S
C30 C35 1.391 . S
C31 C30 1.391 . S
C31 C32 1.391 . S
C32 H9 0.947 . S
C32 C31 1.391 . S
C32 C33 1.392 . S
C33 H10 0.948 . S
C33 C32 1.392 . S
C33 C34 1.419 . S
C34 C33 1.419 . S
C34 C35 1.391 . S
C34 C38 1.397 . S
C35 C30 1.391 . S
C35 C34 1.391 . S
C35 C36 1.399 . S
C36 C35 1.399 . S
C36 C37 1.396 . S
C36 C39 1.453 . S
C36 C40 1.684 . S
C37 C27 1.723 . S
C37 C36 1.396 . S
C37 C38 1.394 . S
C38 C8 1.723 . S
C38 C34 1.397 . S
C38 C37 1.394 . S
C39 H11 0.982 . S
C39 H15 0.979 . S
C39 H16 0.977 . S
C39 C36 1.453 . S
C40 H12 0.979 . S
C40 H13 0.980 . S
C40 H14 0.983 . S
C40 C36 1.684 . S
H41 C59 0.948 . S
H42 C0 0.948 . S
H43 C18 0.979 . S
H44 C18 0.980 . S
H45 C18 0.983 . S
H46 C17 0.982 . S
H47 C17 0.979 . S
H48 C17 0.977 . S
H49 C19 0.948 . S
H50 C21 0.947 . S
H51 C22 0.948 . S
H52 C28 0.982 . S
H53 C28 0.979 . S
H54 C28 0.977 . S
H55 C29 0.979 . S
H56 C29 0.980 . S
H57 C29 0.983 . S
H58 C2 0.947 . S
C59 C2 1.392 . S
C59 C3 1.419 . S
C59 H41 0.948 . S
C60 C61 1.391 . S
C60 C64 1.391 . S
C60 H102 0.948 . S
C61 C60 1.391 . S
C61 C62 1.391 . S
C62 C61 1.391 . S
C62 H118 0.947 . S
C62 C119 1.392 . S
C63 C64 1.391 . S
C63 C67 1.397 . S
C63 C119 1.419 . S
C64 C60 1.391 . S
C64 C63 1.391 . S
C64 C65 1.399 . S
C65 C64 1.399 . S
C65 C68 1.396 . S
C65 C77 1.453 . S
C65 C78 1.684 . S
H66 C90 0.948 . S
C67 C63 1.397 . S
C67 C68 1.394 . S
C67 C86 1.723 . S
C68 C65 1.396 . S
C68 C67 1.394 . S
C68 C98 1.723 . S
H69 C92 0.947 . S
H70 C93 0.948 . S
H71 C99 0.982 . S
H72 C100 0.979 . S
H73 C100 0.980 . S
H74 C100 0.983 . S
H75 C99 0.979 . S
H76 C99 0.977 . S
C77 C65 1.453 . S
C77 H106 0.982 . S
C77 H107 0.979 . S
C77 H108 0.977 . S
C78 C65 1.684 . S
C78 H103 0.979 . S
C78 H104 0.980 . S
C78 H105 0.983 . S
C79 C80 1.391 1_556 S
C79 C84 1.391 . S
C79 H109 0.968 . S
C80 C79 1.391 1_554 S
C80 C81 1.391 1_554 S
C81 C80 1.391 1_556 S
C81 C82 1.392 . S
C81 H110 0.947 . S
C82 C81 1.392 . S
C82 C83 1.419 . S
C82 H111 0.948 . S
C83 C82 1.419 . S
C83 C84 1.391 . S
C83 C87 1.397 . S
C84 C79 1.391 . S
C84 C83 1.391 . S
C84 C85 1.399 . S
C85 C84 1.399 . S
C85 C86 1.396 . S
C85 C88 1.453 . S
C85 C89 1.684 . S
C86 C67 1.723 . S
C86 C85 1.396 . S
C86 C87 1.394 . S
C87 C83 1.397 . S
C87 C86 1.394 . S
C87 C97 1.723 . S
C88 C85 1.453 . S
C88 H112 0.982 . S
C88 H113 0.979 . S
C88 H114 0.977 . S
C89 C85 1.684 . S
C89 H115 0.979 . S
C89 H116 0.980 . S
C89 H117 0.983 . S
C90 H66 0.948 . S
C90 C91 1.391 . S
C90 C95 1.391 . S
C91 C90 1.391 . S
C91 C92 1.391 . S
C92 H69 0.947 . S
C92 C91 1.391 . S
C92 C93 1.392 . S
C93 H70 0.948 . S
C93 C92 1.392 . S
C93 C94 1.419 . S
C94 C93 1.419 . S
C94 C95 1.391 . S
C94 C98 1.397 . S
C95 C90 1.391 . S
C95 C94 1.391 . S
C95 C96 1.399 . S
C96 C95 1.399 . S
C96 C97 1.396 . S
C96 C99 1.453 . S
C96 C100 1.684 . S
C97 C87 1.723 . S
C97 C96 1.396 . S
C97 C98 1.394 . S
C98 C68 1.723 . S
C98 C94 1.397 . S
C98 C97 1.394 . S
C99 H71 0.982 . S
C99 H75 0.979 . S
C99 H76 0.977 . S
C99 C96 1.453 . S
C100 H72 0.979 . S
C100 H73 0.980 . S
C100 H74 0.983 . S
C100 C96 1.684 . S
H101 C119 0.948 . S
H102 C60 0.948 . S
H103 C78 0.979 . S
H104 C78 0.980 . S
H105 C78 0.983 . S
H106 C77 0.982 . S
H107 C77 0.979 . S
H108 C77 0.977 . S
H109 C79 0.968 . S
H110 C81 0.947 . S
H111 C82 0.948 . S
H112 C88 0.982 . S
H113 C88 0.979 . S
H114 C88 0.977 . S
H115 C89 0.979 . S
H116 C89 0.980 . S
H117 C89 0.983 . S
H118 C62 0.947 . S
C119 C62 1.392 . S
C119 C63 1.419 . S
C119 H101 0.948 . S
C120 C121 1.391 . S
C120 C124 1.391 . S
C120 H162 0.948 . S
C121 C120 1.391 . S
C121 C122 1.391 . S
C122 C121 1.391 . S
C122 H178 0.947 . S
C122 C179 1.392 . S
C123 C124 1.391 . S
C123 C127 1.397 . S
C123 C179 1.419 . S
C124 C120 1.391 . S
C124 C123 1.391 . S
C124 C125 1.399 . S
C125 C124 1.399 . S
C125 C128 1.396 . S
C125 C137 1.453 . S
C125 C138 1.684 . S
H126 C150 0.948 . S
C127 C123 1.397 . S
C127 C128 1.394 . S
C127 C146 1.723 . S
C128 C125 1.396 . S
C128 C127 1.394 . S
C128 C158 1.723 . S
H129 C152 0.947 . S
H130 C153 0.948 . S
H131 C159 0.982 . S
H132 C160 0.979 . S
H133 C160 0.980 . S
H134 C160 0.983 . S
H135 C159 0.979 . S
H136 C159 0.977 . S
C137 C125 1.453 . S
C137 H166 0.982 . S
C137 H167 0.979 . S
C137 H168 0.977 . S
C138 C125 1.684 . S
C138 H163 0.979 . S
C138 H164 0.980 . S
C138 H165 0.983 . S
C139 C140 1.391 . S
C139 C144 1.391 . S
C139 H169 0.948 . S
C140 C139 1.391 . S
C140 C141 1.391 . S
C141 C140 1.391 . S
C141 C142 1.392 . S
C141 H170 0.947 . S
C142 C141 1.392 . S
C142 C143 1.419 . S
C142 H171 0.948 . S
C143 C142 1.419 . S
C143 C144 1.391 . S
C143 C147 1.397 . S
C144 C139 1.391 . S
C144 C143 1.391 . S
C144 C145 1.399 . S
C145 C144 1.399 . S
C145 C146 1.396 . S
C145 C148 1.453 . S
C145 C149 1.684 . S
C146 C127 1.723 . S
C146 C145 1.396 . S
C146 C147 1.394 . S
C147 C143 1.397 . S
C147 C146 1.394 . S
C147 C157 1.723 . S
C148 C145 1.453 . S
C148 H172 0.982 . S
C148 H173 0.979 . S
C148 H174 0.977 . S
C149 C145 1.684 . S
C149 H175 0.979 . S
C149 H176 0.980 . S
C149 H177 0.983 . S
C150 H126 0.948 . S
C150 C151 1.391 . S
C150 C155 1.391 . S
C151 C150 1.391 . S
C151 C152 1.391 . S
C152 H129 0.947 . S
C152 C151 1.391 . S
C152 C153 1.392 . S
C153 H130 0.948 . S
C153 C152 1.392 . S
C153 C154 1.419 . S
C154 C153 1.419 . S
C154 C155 1.391 . S
C154 C158 1.397 . S
C155 C150 1.391 . S
C155 C154 1.391 . S
C155 C156 1.399 . S
C156 C155 1.399 . S
C156 C157 1.396 . S
C156 C159 1.453 . S
C156 C160 1.684 . S
C157 C147 1.723 . S
C157 C156 1.396 . S
C157 C158 1.394 . S
C158 C128 1.723 . S
C158 C154 1.397 . S
C158 C157 1.394 . S
C159 H131 0.982 . S
C159 H135 0.979 . S
C159 H136 0.977 . S
C159 C156 1.453 . S
C160 H132 0.979 . S
C160 H133 0.980 . S
C160 H134 0.983 . S
C160 C156 1.684 . S
H161 C179 0.948 . S
H162 C120 0.948 . S
H163 C138 0.979 . S
H164 C138 0.980 . S
H165 C138 0.983 . S
H166 C137 0.982 . S
H167 C137 0.979 . S
H168 C137 0.977 . S
H169 C139 0.948 . S
H170 C141 0.947 . S
H171 C142 0.948 . S
H172 C148 0.982 . S
H173 C148 0.979 . S
H174 C148 0.977 . S
H175 C149 0.979 . S
H176 C149 0.980 . S
H177 C149 0.983 . S
H178 C122 0.947 . S
C179 C122 1.392 . S
C179 C123 1.419 . S
C179 H161 0.948 . S
C180 C181 1.391 . S
C180 C184 1.391 . S
C180 H222 0.948 . S
C181 C180 1.391 . S
C181 C182 1.391 . S
C182 C181 1.391 . S
C182 H238 0.947 . S
C182 C239 1.392 . S
C183 C184 1.391 . S
C183 C187 1.397 . S
C183 C239 1.419 . S
C184 C180 1.391 . S
C184 C183 1.391 . S
C184 C185 1.399 . S
C185 C184 1.399 . S
C185 C188 1.396 . S
C185 C197 1.453 . S
C185 C198 1.684 . S
H186 C210 0.948 . S
C187 C183 1.397 . S
C187 C188 1.394 . S
C187 C206 1.723 . S
C188 C185 1.396 . S
C188 C187 1.394 . S
C188 C218 1.723 . S
H189 C212 0.947 . S
H190 C213 0.948 . S
H191 C219 0.982 . S
H192 C220 0.979 . S
H193 C220 0.980 . S
H194 C220 0.983 . S
H195 C219 0.979 . S
H196 C219 0.977 . S
C197 C185 1.453 . S
C197 H226 0.982 . S
C197 H227 0.979 . S
C197 H228 0.977 . S
C198 C185 1.684 . S
C198 H223 0.979 . S
C198 H224 0.980 . S
C198 H225 0.983 . S
C199 C200 1.380 1_554 S
C199 C204 1.391 . S
C199 H229 0.948 . S
C200 C199 1.380 1_556 S
C200 C201 1.379 1_556 S
C201 C200 1.379 1_554 S
C201 C202 1.392 . S
C201 H230 0.947 . S
C202 C201 1.392 . S
C202 C203 1.419 . S
C202 H231 0.948 . S
C203 C202 1.419 . S
C203 C204 1.391 . S
C203 C207 1.397 . S
C204 C199 1.391 . S
C204 C203 1.391 . S
C204 C205 1.399 . S
C205 C204 1.399 . S
C205 C206 1.396 . S
C205 C208 1.453 . S
C205 C209 1.684 . S
C206 C187 1.723 . S
C206 C205 1.396 . S
C206 C207 1.394 . S
C207 C203 1.397 . S
C207 C206 1.394 . S
C207 C217 1.723 . S
C208 C205 1.453 . S
C208 H232 0.982 . S
C208 H233 0.979 . S
C208 H234 0.977 . S
C209 C205 1.684 . S
C209 H235 0.979 . S
C209 H236 0.980 . S
C209 H237 0.983 . S
C210 H186 0.948 . S
C210 C211 1.391 . S
C210 C215 1.391 . S
C211 C210 1.391 . S
C211 C212 1.391 . S
C212 H189 0.947 . S
C212 C211 1.391 . S
C212 C213 1.392 . S
C213 H190 0.948 . S
C213 C212 1.392 . S
C213 C214 1.419 . S
C214 C213 1.419 . S
C214 C215 1.391 . S
C214 C218 1.397 . S
C215 C210 1.391 . S
C215 C214 1.391 . S
C215 C216 1.399 . S
C216 C215 1.399 . S
C216 C217 1.396 . S
C216 C219 1.453 . S
C216 C220 1.684 . S
C217 C207 1.723 . S
C217 C216 1.396 . S
C217 C218 1.394 . S
C218 C188 1.723 . S
C218 C214 1.397 . S
C218 C217 1.394 . S
C219 H191 0.982 . S
C219 H195 0.979 . S
C219 H196 0.977 . S
C219 C216 1.453 . S
C220 H192 0.979 . S
C220 H193 0.980 . S
C220 H194 0.983 . S
C220 C216 1.684 . S
H221 C239 0.948 . S
H222 C180 0.948 . S
H223 C198 0.979 . S
H224 C198 0.980 . S
H225 C198 0.983 . S
H226 C197 0.982 . S
H227 C197 0.979 . S
H228 C197 0.977 . S
H229 C199 0.948 . S
H230 C201 0.947 . S
H231 C202 0.948 . S
H232 C208 0.982 . S
H233 C208 0.979 . S
H234 C208 0.977 . S
H235 C209 0.979 . S
H236 C209 0.980 . S
H237 C209 0.983 . S
H238 C182 0.947 . S
C239 C182 1.392 . S
C239 C183 1.419 . S
C239 H221 0.948 . S
C240 C241 1.391 . S
C240 C244 1.391 . S
C240 H282 0.948 . S
C241 C240 1.391 . S
C241 C242 1.391 . S
C242 C241 1.391 . S
C242 H298 0.947 . S
C242 C299 1.392 . S
C243 C244 1.391 . S
C243 C247 1.397 . S
C243 C299 1.419 . S
C244 C240 1.391 . S
C244 C243 1.391 . S
C244 C245 1.399 . S
C245 C244 1.399 . S
C245 C248 1.396 . S
C245 C257 1.453 . S
C245 C258 1.684 . S
H246 C270 0.948 . S
C247 C243 1.397 . S
C247 C248 1.394 . S
C247 C266 1.723 . S
C248 C245 1.396 . S
C248 C247 1.394 . S
C248 C278 1.723 . S
H249 C272 0.947 . S
H250 C273 0.948 . S
H251 C279 0.982 . S
H252 C280 0.979 . S
H253 C280 0.980 . S
H254 C280 0.983 . S
H255 C279 0.979 . S
H256 C279 0.977 . S
C257 C245 1.453 . S
C257 H286 0.982 . S
C257 H287 0.979 . S
C257 H288 0.977 . S
C258 C245 1.684 . S
C258 H283 0.979 . S
C258 H284 0.980 . S
C258 H285 0.983 . S
C259 C260 1.391 . S
C259 C264 1.391 . S
C259 H289 0.948 . S
C260 C259 1.391 . S
C260 C261 1.391 . S
C261 C260 1.391 . S
C261 C262 1.392 . S
C261 H290 0.947 . S
C262 C261 1.392 . S
C262 C263 1.419 . S
C262 H291 0.948 . S
C263 C262 1.419 . S
C263 C264 1.391 . S
C263 C267 1.397 . S
C264 C259 1.391 . S
C264 C263 1.391 . S
C264 C265 1.399 . S
C265 C264 1.399 . S
C265 C266 1.396 . S
C265 C268 1.453 . S
C265 C269 1.684 . S
C266 C247 1.723 . S
C266 C265 1.396 . S
C266 C267 1.394 . S
C267 C263 1.397 . S
C267 C266 1.394 . S
C267 C277 1.723 . S
C268 C265 1.453 . S
C268 H292 0.982 . S
C268 H293 0.979 . S
C268 H294 0.977 . S
C269 C265 1.684 . S
C269 H295 0.979 . S
C269 H296 0.980 . S
C269 H297 0.983 . S
C270 H246 0.948 . S
C270 C271 1.391 . S
C270 C275 1.391 . S
C271 C270 1.391 . S
C271 C272 1.391 . S
C272 H249 0.947 . S
C272 C271 1.391 . S
C272 C273 1.392 . S
C273 H250 0.948 . S
C273 C272 1.392 . S
C273 C274 1.419 . S
C274 C273 1.419 . S
C274 C275 1.391 . S
C274 C278 1.397 . S
C275 C270 1.391 . S
C275 C274 1.391 . S
C275 C276 1.399 . S
C276 C275 1.399 . S
C276 C277 1.396 . S
C276 C279 1.453 . S
C276 C280 1.684 . S
C277 C267 1.723 . S
C277 C276 1.396 . S
C277 C278 1.394 . S
C278 C248 1.723 . S
C278 C274 1.397 . S
C278 C277 1.394 . S
C279 H251 0.982 . S
C279 H255 0.979 . S
C279 H256 0.977 . S
C279 C276 1.453 . S
C280 H252 0.979 . S
C280 H253 0.980 . S
C280 H254 0.983 . S
C280 C276 1.684 . S
H281 C299 0.948 . S
H282 C240 0.948 . S
H283 C258 0.979 . S
H284 C258 0.980 . S
H285 C258 0.983 . S
H286 C257 0.982 . S
H287 C257 0.979 . S
H288 C257 0.977 . S
H289 C259 0.948 . S
H290 C261 0.947 . S
H291 C262 0.948 . S
H292 C268 0.982 . S
H293 C268 0.979 . S
H294 C268 0.977 . S
H295 C269 0.979 . S
H296 C269 0.980 . S
H297 C269 0.983 . S
H298 C242 0.947 . S
C299 C242 1.392 . S
C299 C243 1.419 . S
C299 H281 0.948 . S
C300 C301 1.391 . S
C300 C304 1.391 . S
C300 H342 0.948 . S
C301 C300 1.391 . S
C301 C302 1.391 . S
C302 C301 1.391 . S
C302 H358 0.947 . S
C302 C359 1.392 . S
C303 C304 1.391 . S
C303 C307 1.397 . S
C303 C359 1.419 . S
C304 C300 1.391 . S
C304 C303 1.391 . S
C304 C305 1.399 . S
C305 C304 1.399 . S
C305 C308 1.396 . S
C305 C317 1.453 . S
C305 C318 1.684 . S
H306 C330 0.948 . S
C307 C303 1.397 . S
C307 C308 1.394 . S
C307 C326 1.723 . S
C308 C305 1.396 . S
C308 C307 1.394 . S
C308 C338 1.723 . S
H309 C332 0.947 . S
H310 C333 0.948 . S
H311 C339 0.982 . S
H312 C340 0.979 . S
H313 C340 0.980 . S
H314 C340 0.983 . S
H315 C339 0.979 . S
H316 C339 0.977 . S
C317 C305 1.453 . S
C317 H346 0.982 . S
C317 H347 0.979 . S
C317 H348 0.977 . S
C318 C305 1.684 . S
C318 H343 0.979 . S
C318 H344 0.980 . S
C318 H345 0.983 . S
C319 C320 1.391 1_554 S
C319 C324 1.391 . S
C319 H349 0.948 1_554 S
C320 C319 1.391 1_556 S
C320 C321 1.391 1_556 S
C321 C320 1.391 1_554 S
C321 C322 1.392 . S
C321 H350 0.944 1_554 S
C322 C321 1.392 . S
C322 C323 1.419 . S
C322 H351 0.948 . S
C323 C322 1.419 . S
C323 C324 1.391 . S
C323 C327 1.397 . S
C324 C319 1.391 . S
C324 C323 1.391 . S
C324 C325 1.399 . S
C325 C324 1.399 . S
C325 C326 1.396 . S
C325 C328 1.453 . S
C325 C329 1.684 . S
C326 C307 1.723 . S
C326 C325 1.396 . S
C326 C327 1.394 . S
C327 C323 1.397 . S
C327 C326 1.394 . S
C327 C337 1.723 . S
C328 C325 1.453 . S
C328 H352 0.982 . S
C328 H353 0.979 . S
C328 H354 0.977 . S
C329 C325 1.684 . S
C329 H355 0.979 . S
C329 H356 0.980 . S
C329 H357 0.983 . S
C330 H306 0.948 . S
C330 C331 1.391 . S
C330 C335 1.391 . S
C331 C330 1.391 . S
C331 C332 1.391 . S
C332 H309 0.947 . S
C332 C331 1.391 . S
C332 C333 1.392 . S
C333 H310 0.948 . S
C333 C332 1.392 . S
C333 C334 1.419 . S
C334 C333 1.419 . S
C334 C335 1.391 . S
C334 C338 1.397 . S
C335 C330 1.391 . S
C335 C334 1.391 . S
C335 C336 1.399 . S
C336 C335 1.399 . S
C336 C337 1.396 . S
C336 C339 1.453 . S
C336 C340 1.684 . S
C337 C327 1.723 . S
C337 C336 1.396 . S
C337 C338 1.394 . S
C338 C308 1.723 . S
C338 C334 1.397 . S
C338 C337 1.394 . S
C339 H311 0.982 . S
C339 H315 0.979 . S
C339 H316 0.977 . S
C339 C336 1.453 . S
C340 H312 0.979 . S
C340 H313 0.980 . S
C340 H314 0.983 . S
C340 C336 1.684 . S
H341 C359 0.948 . S
H342 C300 0.948 . S
H343 C318 0.979 . S
H344 C318 0.980 . S
H345 C318 0.983 . S
H346 C317 0.982 . S
H347 C317 0.979 . S
H348 C317 0.977 . S
H349 C319 0.948 1_556 S
H350 C321 0.944 1_556 S
H351 C322 0.948 . S
H352 C328 0.982 . S
H353 C328 0.979 . S
H354 C328 0.977 . S
H355 C329 0.979 . S
H356 C329 0.980 . S
H357 C329 0.983 . S
H358 C302 0.947 . S
C359 C302 1.392 . S
C359 C303 1.419 . S
C359 H341 0.948 . S
C360 C361 1.391 . S
C360 C364 1.391 . S
C360 H402 0.948 . S
C361 C360 1.391 . S
C361 C362 1.391 . S
C362 C361 1.391 . S
C362 H418 0.947 . S
C362 C419 1.392 . S
C363 C364 1.391 . S
C363 C367 1.397 . S
C363 C419 1.419 . S
C364 C360 1.391 . S
C364 C363 1.391 . S
C364 C365 1.399 . S
C365 C364 1.399 . S
C365 C368 1.396 . S
C365 C377 1.453 . S
C365 C378 1.684 . S
H366 C390 0.948 . S
C367 C363 1.397 . S
C367 C368 1.394 . S
C367 C386 1.723 . S
C368 C365 1.396 . S
C368 C367 1.394 . S
C368 C398 1.723 . S
H369 C392 0.947 . S
H370 C393 0.948 . S
H371 C399 0.982 . S
H372 C400 0.979 . S
H373 C400 0.980 . S
H374 C400 0.983 . S
H375 C399 0.979 . S
H376 C399 0.977 . S
C377 C365 1.453 . S
C377 H406 0.982 . S
C377 H407 0.979 . S
C377 H408 0.977 . S
C378 C365 1.684 . S
C378 H403 0.979 . S
C378 H404 0.980 . S
C378 H405 0.983 . S
C379 C380 1.391 . S
C379 C384 1.391 . S
C379 H409 0.948 . S
C380 C379 1.391 . S
C380 C381 1.391 . S
C381 C380 1.391 . S
C381 C382 1.392 . S
C381 H410 0.947 . S
C382 C381 1.392 . S
C382 C383 1.419 . S
C382 H411 0.948 . S
C383 C382 1.419 . S
C383 C384 1.391 . S
C383 C387 1.397 . S
C384 C379 1.391 . S
C384 C383 1.391 . S
C384 C385 1.399 . S
C385 C384 1.399 . S
C385 C386 1.396 . S
C385 C388 1.453 . S
C385 C389 1.684 . S
C386 C367 1.723 . S
C386 C385 1.396 . S
C386 C387 1.394 . S
C387 C383 1.397 . S
C387 C386 1.394 . S
C387 C397 1.723 . S
C388 C385 1.453 . S
C388 H412 0.982 . S
C388 H413 0.979 . S
C388 H414 0.977 . S
C389 C385 1.684 . S
C389 H415 0.979 . S
C389 H416 0.980 . S
C389 H417 0.983 . S
C390 H366 0.948 . S
C390 C391 1.391 . S
C390 C395 1.391 . S
C391 C390 1.391 . S
C391 C392 1.391 . S
C392 H369 0.947 . S
C392 C391 1.391 . S
C392 C393 1.392 . S
C393 H370 0.948 . S
C393 C392 1.392 . S
C393 C394 1.419 . S
C394 C393 1.419 . S
C394 C395 1.391 . S
C394 C398 1.397 . S
C395 C390 1.391 . S
C395 C394 1.391 . S
C395 C396 1.399 . S
C396 C395 1.399 . S
C396 C397 1.396 . S
C396 C399 1.453 . S
C396 C400 1.684 . S
C397 C387 1.723 . S
C397 C396 1.396 . S
C397 C398 1.394 . S
C398 C368 1.723 . S
C398 C394 1.397 . S
C398 C397 1.394 . S
C399 H371 0.982 . S
C399 H375 0.979 . S
C399 H376 0.977 . S
C399 C396 1.453 . S
C400 H372 0.979 . S
C400 H373 0.980 . S
C400 H374 0.983 . S
C400 C396 1.684 . S
H401 C419 0.948 . S
H402 C360 0.948 . S
H403 C378 0.979 . S
H404 C378 0.980 . S
H405 C378 0.983 . S
H406 C377 0.982 . S
H407 C377 0.979 . S
H408 C377 0.977 . S
H409 C379 0.948 . S
H410 C381 0.947 . S
H411 C382 0.948 . S
H412 C388 0.982 . S
H413 C388 0.979 . S
H414 C388 0.977 . S
H415 C389 0.979 . S
H416 C389 0.980 . S
H417 C389 0.983 . S
H418 C362 0.947 . S
C419 C362 1.392 . S
C419 C363 1.419 . S
C419 H401 0.948 . S
C420 C421 1.391 . S
C420 C424 1.391 . S
C420 H462 0.948 . S
C421 C420 1.391 . S
C421 C422 1.391 . S
C422 C421 1.391 . S
C422 H478 0.947 . S
C422 C479 1.392 . S
C423 C424 1.391 . S
C423 C427 1.397 . S
C423 C479 1.419 . S
C424 C420 1.391 . S
C424 C423 1.391 . S
C424 C425 1.399 . S
C425 C424 1.399 . S
C425 C428 1.396 . S
C425 C437 1.453 . S
C425 C438 1.684 . S
H426 C450 0.948 . S
C427 C423 1.397 . S
C427 C428 1.394 . S
C427 C446 1.723 . S
C428 C425 1.396 . S
C428 C427 1.394 . S
C428 C458 1.723 . S
H429 C452 0.947 . S
H430 C453 0.948 . S
H431 C459 0.982 . S
H432 C460 0.979 . S
H433 C460 0.980 . S
H434 C460 0.983 . S
H435 C459 0.979 . S
H436 C459 0.977 . S
C437 C425 1.453 . S
C437 H466 0.982 . S
C437 H467 0.979 . S
C437 H468 0.977 . S
C438 C425 1.684 . S
C438 H463 0.979 . S
C438 H464 0.980 . S
C438 H465 0.983 . S
C439 C440 1.391 1_556 S
C439 C444 1.391 . S
C439 H469 0.963 . S
C440 C439 1.391 1_554 S
C440 C441 1.391 1_554 S
C441 C440 1.391 1_556 S
C441 C442 1.392 . S
C441 H470 0.947 . S
C442 C441 1.392 . S
C442 C443 1.419 . S
C442 H471 0.948 . S
C443 C442 1.419 . S
C443 C444 1.391 . S
C443 C447 1.397 . S
C444 C439 1.391 . S
C444 C443 1.391 . S
C444 C445 1.399 . S
C445 C444 1.399 . S
C445 C446 1.396 . S
C445 C448 1.453 . S
C445 C449 1.684 . S
C446 C427 1.723 . S
C446 C445 1.396 . S
C446 C447 1.394 . S
C447 C443 1.397 . S
C447 C446 1.394 . S
C447 C457 1.723 . S
C448 C445 1.453 . S
C448 H472 0.982 . S
C448 H473 0.979 . S
C448 H474 0.977 . S
C449 C445 1.684 . S
C449 H475 0.979 . S
C449 H476 0.980 . S
C449 H477 0.983 . S
C450 H426 0.948 . S
C450 C451 1.391 . S
C450 C455 1.391 . S
C451 C450 1.391 . S
C451 C452 1.391 . S
C452 H429 0.947 . S
C452 C451 1.391 . S
C452 C453 1.392 . S
C453 H430 0.948 . S
C453 C452 1.392 . S
C453 C454 1.419 . S
C454 C453 1.419 . S
C454 C455 1.391 . S
C454 C458 1.397 . S
C455 C450 1.391 . S
C455 C454 1.391 . S
C455 C456 1.399 . S
C456 C455 1.399 . S
C456 C457 1.396 . S
C456 C459 1.453 . S
C456 C460 1.684 . S
C457 C447 1.723 . S
C457 C456 1.396 . S
C457 C458 1.394 . S
C458 C428 1.723 . S
C458 C454 1.397 . S
C458 C457 1.394 . S
C459 H431 0.982 . S
C459 H435 0.979 . S
C459 H436 0.977 . S
C459 C456 1.453 . S
C460 H432 0.979 . S
C460 H433 0.980 . S
C460 H434 0.983 . S
C460 C456 1.684 . S
H461 C479 0.948 . S
H462 C420 0.948 . S
H463 C438 0.979 . S
H464 C438 0.980 . S
H465 C438 0.983 . S
H466 C437 0.982 . S
H467 C437 0.979 . S
H468 C437 0.977 . S
H469 C439 0.963 . S
H470 C441 0.947 . S
H471 C442 0.948 . S
H472 C448 0.982 . S
H473 C448 0.979 . S
H474 C448 0.977 . S
H475 C449 0.979 . S
H476 C449 0.980 . S
H477 C449 0.983 . S
H478 C422 0.947 . S
C479 C422 1.392 . S
C479 C423 1.419 . S
C479 H461 0.948 . S
Zn480 O486 1.913 1_455 S
Zn480 O492 1.898 . S
Zn480 O495 1.905 . S
Zn481 O489 1.905 1_655 S
Zn481 O490 1.898 . S
Zn481 O498 1.920 . S
Zn482 O485 2.080 1_455 S
Zn482 O488 2.114 . S
Zn482 O491 2.120 1_455 S
Zn482 O493 2.120 . S
Zn482 O494 2.114 . S
Zn482 O497 2.080 1_455 S
C483 O488 1.166 . S
C483 O489 1.182 . S
C484 O490 1.167 . S
C484 O491 1.299 . S
O485 Zn482 2.080 1_655 S
O485 C499 1.305 . S
O486 Zn480 1.913 1_655 S
O486 C499 1.240 . S
C487 O492 1.167 . S
C487 O493 1.299 . S
O488 Zn482 2.114 . S
O488 C483 1.166 . S
O489 Zn481 1.905 1_455 S
O489 C483 1.182 . S
O490 Zn481 1.898 . S
O490 C484 1.167 . S
O491 Zn482 2.120 1_655 S
O491 C484 1.299 . S
O492 Zn480 1.898 . S
O492 C487 1.167 . S
O493 Zn482 2.120 . S
O493 C487 1.299 . S
O494 Zn482 2.114 . S
O494 C496 1.166 . S
O495 Zn480 1.905 . S
O495 C496 1.182 . S
C496 O494 1.166 . S
C496 O495 1.182 . S
O497 Zn482 2.080 1_655 S
O497 C500 1.305 . S
O498 Zn481 1.920 . S
O498 C500 1.234 . S
C499 O485 1.305 . S
C499 O486 1.240 . S
C500 O497 1.305 . S
C500 O498 1.234 . S
Zn501 O507 1.920 . S
Zn501 O513 1.898 . S
Zn501 O516 1.905 . S
Zn502 O510 1.905 . S
Zn502 O511 1.898 . S
Zn502 O519 1.920 . S
Zn503 O506 2.080 . S
Zn503 O509 2.114 . S
Zn503 O512 2.120 . S
Zn503 O514 2.120 . S
Zn503 O515 2.114 . S
Zn503 O518 2.080 . S
C504 O509 1.166 . S
C504 O510 1.182 . S
C505 O511 1.167 . S
C505 O512 1.299 . S
O506 Zn503 2.080 . S
O506 C520 1.305 . S
O507 Zn501 1.920 . S
O507 C520 1.234 . S
C508 O513 1.167 . S
C508 O514 1.299 . S
O509 Zn503 2.114 . S
O509 C504 1.166 . S
O510 Zn502 1.905 . S
O510 C504 1.182 . S
O511 Zn502 1.898 . S
O511 C505 1.167 . S
O512 Zn503 2.120 . S
O512 C505 1.299 . S
O513 Zn501 1.898 . S
O513 C508 1.167 . S
O514 Zn503 2.120 . S
O514 C508 1.299 . S
O515 Zn503 2.114 . S
O515 C517 1.166 . S
O516 Zn501 1.905 . S
O516 C517 1.182 . S
C517 O515 1.166 . S
C517 O516 1.182 . S
O518 Zn503 2.080 . S
O518 C521 1.305 . S
O519 Zn502 1.920 . S
O519 C521 1.234 . S
C520 O506 1.305 . S
C520 O507 1.234 . S
C521 O518 1.305 . S
C521 O519 1.234 . S
Zn522 O528 1.920 . S
Zn522 O534 1.898 . S
Zn522 O537 1.905 1_455 S
Zn523 O531 1.905 . S
Zn523 O532 1.898 . S
Zn523 O540 1.920 1_655 S
Zn524 O527 2.080 . S
Zn524 O530 2.114 1_455 S
Zn524 O533 2.120 1_455 S
Zn524 O535 2.120 . S
Zn524 O536 2.114 1_455 S
Zn524 O539 2.080 . S
C525 O530 1.166 . S
C525 O531 1.182 . S
C526 O532 1.167 . S
C526 O533 1.299 . S
O527 Zn524 2.080 . S
O527 C541 1.305 . S
O528 Zn522 1.920 . S
O528 C541 1.234 . S
C529 O534 1.167 . S
C529 O535 1.299 . S
O530 Zn524 2.114 1_655 S
O530 C525 1.166 . S
O531 Zn523 1.905 . S
O531 C525 1.182 . S
O532 Zn523 1.898 . S
O532 C526 1.167 . S
O533 Zn524 2.120 1_655 S
O533 C526 1.299 . S
O534 Zn522 1.898 . S
O534 C529 1.167 . S
O535 Zn524 2.120 . S
O535 C529 1.299 . S
O536 Zn524 2.114 1_655 S
O536 C538 1.166 . S
O537 Zn522 1.905 1_655 S
O537 C538 1.182 . S
C538 O536 1.166 . S
C538 O537 1.182 . S
O539 Zn524 2.080 . S
O539 C542 1.305 . S
O540 Zn523 1.920 1_455 S
O540 C542 1.234 . S
C541 O527 1.305 . S
C541 O528 1.234 . S
C542 O539 1.305 . S
C542 O540 1.234 . S
Zn543 O549 1.920 . S
Zn543 O555 1.898 . S
Zn543 O558 1.905 . S
Zn544 O552 1.905 . S
Zn544 O553 1.898 . S
Zn544 O561 1.920 . S
Zn545 O548 2.080 . S
Zn545 O551 2.114 . S
Zn545 O554 2.120 . S
Zn545 O556 2.120 . S
Zn545 O557 2.114 . S
Zn545 O560 2.080 . S
C546 O551 1.166 . S
C546 O552 1.182 . S
C547 O553 1.167 . S
C547 O554 1.299 . S
O548 Zn545 2.080 . S
O548 C562 1.305 . S
O549 Zn543 1.920 . S
O549 C562 1.234 . S
C550 O555 1.167 . S
C550 O556 1.299 . S
O551 Zn545 2.114 . S
O551 C546 1.166 . S
O552 Zn544 1.905 . S
O552 C546 1.182 . S
O553 Zn544 1.898 . S
O553 C547 1.167 . S
O554 Zn545 2.120 . S
O554 C547 1.299 . S
O555 Zn543 1.898 . S
O555 C550 1.167 . S
O556 Zn545 2.120 . S
O556 C550 1.299 . S
O557 Zn545 2.114 . S
O557 C559 1.166 . S
O558 Zn543 1.905 . S
O558 C559 1.182 . S
C559 O557 1.166 . S
C559 O558 1.182 . S
O560 Zn545 2.080 . S
O560 C563 1.305 . S
O561 Zn544 1.920 . S
O561 C563 1.234 . S
C562 O548 1.305 . S
C562 O549 1.234 . S
C563 O560 1.305 . S
C563 O561 1.234 . S
H564 C576 0.930 . S
H565 C578 0.930 . S
H566 C579 0.932 . S
H567 C583 0.959 . S
H568 C583 0.959 . S
H569 C583 0.961 . S
H570 C584 0.960 . S
H571 C584 0.961 1_545 S
H572 C584 0.959 . S
H573 C587 0.929 . S
H574 C588 0.931 . S
H575 C590 0.930 . S
C576 H564 0.930 . S
C576 C577 1.399 . S
C576 C581 1.399 . S
C577 C576 1.399 . S
C577 C578 1.376 . S
C578 H565 0.930 . S
C578 C577 1.376 . S
C578 C579 1.388 . S
C579 H566 0.932 . S
C579 C578 1.388 . S
C579 C580 1.390 1_565 S
C580 C579 1.390 1_545 S
C580 C581 1.394 1_545 S
C580 C586 1.465 . S
C581 C576 1.399 . S
C581 C580 1.394 1_565 S
C581 C582 1.516 1_565 S
C582 C581 1.516 1_545 S
C582 C583 1.502 . S
C582 C584 1.561 1_545 S
C582 C585 1.526 . S
C583 H567 0.959 . S
C583 H568 0.959 . S
C583 H569 0.961 . S
C583 C582 1.502 . S
C584 H570 0.960 . S
C584 H571 0.961 1_565 S
C584 H572 0.959 . S
C584 C582 1.561 1_565 S
C585 C582 1.526 . S
C585 C586 1.396 . S
C585 C590 1.390 . S
C586 C580 1.465 . S
C586 C585 1.396 . S
C586 C587 1.399 . S
C587 H573 0.929 . S
C587 C586 1.399 . S
C587 C588 1.385 . S
C588 H574 0.931 . S
C588 C587 1.385 . S
C588 C589 1.389 . S
C589 C588 1.389 . S
C589 C590 1.387 . S
C590 H575 0.930 . S
C590 C585 1.390 . S
C590 C589 1.387 . S
H591 C603 0.930 . S
H592 C605 0.930 . S
H593 C606 0.930 . S
H594 C610 0.959 . S
H595 C610 0.959 . S
H596 C610 0.961 . S
H597 C611 0.960 . S
H598 C611 0.961 . S
H599 C611 0.959 . S
H600 C614 0.929 . S
H601 C615 0.931 . S
H602 C617 0.930 . S
C603 H591 0.930 . S
C603 C604 1.399 . S
C603 C608 1.399 . S
C604 C603 1.399 . S
C604 C605 1.376 . S
C605 H592 0.930 . S
C605 C604 1.376 . S
C605 C606 1.388 . S
C606 H593 0.930 . S
C606 C605 1.388 . S
C606 C607 1.390 . S
C607 C606 1.390 . S
C607 C608 1.394 . S
C607 C613 1.465 . S
C608 C603 1.399 . S
C608 C607 1.394 . S
C608 C609 1.516 . S
C609 C608 1.516 . S
C609 C610 1.502 . S
C609 C611 1.561 . S
C609 C612 1.526 . S
C610 H594 0.959 . S
C610 H595 0.959 . S
C610 H596 0.961 . S
C610 C609 1.502 . S
C611 H597 0.960 . S
C611 H598 0.961 . S
C611 H599 0.959 . S
C611 C609 1.561 . S
C612 C609 1.526 . S
C612 C613 1.396 . S
C612 C617 1.390 . S
C613 C607 1.465 . S
C613 C612 1.396 . S
C613 C614 1.399 . S
C614 H600 0.929 . S
C614 C613 1.399 . S
C614 C615 1.385 . S
C615 H601 0.931 . S
C615 C614 1.385 . S
C615 C616 1.389 . S
C616 C615 1.389 . S
C616 C617 1.387 . S
C617 H602 0.930 . S
C617 C612 1.390 . S
C617 C616 1.387 . S
H618 C630 0.930 . S
H619 C632 0.930 . S
H620 C633 0.930 . S
H621 C637 0.959 . S
H622 C637 0.959 . S
H623 C637 0.961 . S
H624 C638 0.960 . S
H625 C638 0.961 . S
H626 C638 0.959 . S
H627 C641 0.929 . S
H628 C642 0.931 . S
H629 C644 0.930 . S
C630 H618 0.930 . S
C630 C631 1.399 . S
C630 C635 1.399 . S
C631 C630 1.399 . S
C631 C632 1.376 . S
C632 H619 0.930 . S
C632 C631 1.376 . S
C632 C633 1.388 . S
C633 H620 0.930 . S
C633 C632 1.388 . S
C633 C634 1.390 . S
C634 C633 1.390 . S
C634 C635 1.394 . S
C634 C640 1.465 . S
C635 C630 1.399 . S
C635 C634 1.394 . S
C635 C636 1.516 . S
C636 C635 1.516 . S
C636 C637 1.502 . S
C636 C638 1.561 . S
C636 C639 1.526 . S
C637 H621 0.959 . S
C637 H622 0.959 . S
C637 H623 0.961 . S
C637 C636 1.502 . S
C638 H624 0.960 . S
C638 H625 0.961 . S
C638 H626 0.959 . S
C638 C636 1.561 . S
C639 C636 1.526 . S
C639 C640 1.396 . S
C639 C644 1.390 . S
C640 C634 1.465 . S
C640 C639 1.396 . S
C640 C641 1.399 . S
C641 H627 0.929 . S
C641 C640 1.399 . S
C641 C642 1.385 . S
C642 H628 0.931 . S
C642 C641 1.385 . S
C642 C643 1.389 . S
C643 C642 1.389 . S
C643 C644 1.387 . S
C644 H629 0.930 . S
C644 C639 1.390 . S
C644 C643 1.387 . S
H645 C657 0.930 . S
H646 C659 0.930 . S
H647 C660 0.930 1_545 S
H648 C664 0.954 1_565 S
H649 C664 0.976 . S
H650 C664 0.939 1_565 S
H651 C665 0.960 . S
H652 C665 0.961 . S
H653 C665 0.959 . S
H654 C668 0.929 . S
H655 C669 0.931 . S
H656 C671 0.930 . S
C657 H645 0.930 . S
C657 C658 1.399 . S
C657 C662 1.399 . S
C658 C657 1.399 . S
C658 C659 1.376 . S
C659 H646 0.930 . S
C659 C658 1.376 . S
C659 C660 1.388 . S
C660 H647 0.930 1_565 S
C660 C659 1.388 . S
C660 C661 1.390 1_565 S
C661 C660 1.390 1_545 S
C661 C662 1.394 1_545 S
C661 C667 1.465 . S
C662 C657 1.399 . S
C662 C661 1.394 1_565 S
C662 C663 1.516 1_565 S
C663 C662 1.516 1_545 S
C663 C664 1.513 . S
C663 C665 1.561 . S
C663 C666 1.526 . S
C664 H648 0.954 1_545 S
C664 H649 0.976 . S
C664 H650 0.939 1_545 S
C664 C663 1.513 . S
C665 H651 0.960 . S
C665 H652 0.961 . S
C665 H653 0.959 . S
C665 C663 1.561 . S
C666 C663 1.526 . S
C666 C667 1.396 . S
C666 C671 1.390 . S
C667 C661 1.465 . S
C667 C666 1.396 . S
C667 C668 1.399 . S
C668 H654 0.929 . S
C668 C667 1.399 . S
C668 C669 1.385 . S
C669 H655 0.931 . S
C669 C668 1.385 . S
C669 C670 1.389 . S
C670 C669 1.389 . S
C670 C671 1.387 . S
C671 H656 0.930 . S
C671 C666 1.390 . S
C671 C670 1.387 . S
H672 C684 0.930 . S
H673 C686 0.930 . S
H674 C687 0.930 . S
H675 C691 0.959 . S
H676 C691 0.959 1_565 S
H677 C691 0.961 . S
H678 C692 0.960 1_545 S
H679 C692 0.961 . S
H680 C692 0.959 . S
H681 C695 0.929 . S
H682 C696 0.931 . S
H683 C698 0.930 . S
C684 H672 0.930 . S
C684 C685 1.399 . S
C684 C689 1.399 . S
C685 C684 1.399 . S
C685 C686 1.376 . S
C686 H673 0.930 . S
C686 C685 1.376 . S
C686 C687 1.388 1_545 S
C687 H674 0.930 . S
C687 C686 1.388 1_565 S
C687 C688 1.390 . S
C688 C687 1.390 . S
C688 C689 1.394 1_565 S
C688 C694 1.465 . S
C689 C684 1.399 . S
C689 C688 1.394 1_545 S
C689 C690 1.516 1_545 S
C690 C689 1.516 1_565 S
C690 C691 1.502 1_565 S
C690 C692 1.561 . S
C690 C693 1.526 . S
C691 H675 0.959 . S
C691 H676 0.959 1_545 S
C691 H677 0.961 . S
C691 C690 1.502 1_545 S
C692 H678 0.960 1_565 S
C692 H679 0.961 . S
C692 H680 0.959 . S
C692 C690 1.561 . S
C693 C690 1.526 . S
C693 C694 1.396 . S
C693 C698 1.390 . S
C694 C688 1.465 . S
C694 C693 1.396 . S
C694 C695 1.399 . S
C695 H681 0.929 . S
C695 C694 1.399 . S
C695 C696 1.385 . S
C696 H682 0.931 . S
C696 C695 1.385 . S
C696 C697 1.389 . S
C697 C696 1.389 . S
C697 C698 1.387 . S
C698 H683 0.930 . S
C698 C693 1.390 . S
C698 C697 1.387 . S
H699 C711 0.930 . S
H700 C713 0.930 . S
H701 C714 0.930 . S
H702 C718 0.959 . S
H703 C718 0.959 . S
H704 C718 0.961 . S
H705 C719 0.960 . S
H706 C719 0.961 . S
H707 C719 0.959 . S
H708 C722 0.929 . S
H709 C723 0.931 . S
H710 C725 0.930 . S
C711 H699 0.930 . S
C711 C712 1.399 . S
C711 C716 1.399 . S
C712 C711 1.399 . S
C712 C713 1.376 . S
C713 H700 0.930 . S
C713 C712 1.376 . S
C713 C714 1.388 . S
C714 H701 0.930 . S
C714 C713 1.388 . S
C714 C715 1.390 . S
C715 C714 1.390 . S
C715 C716 1.394 . S
C715 C721 1.465 . S
C716 C711 1.399 . S
C716 C715 1.394 . S
C716 C717 1.516 . S
C717 C716 1.516 . S
C717 C718 1.502 . S
C717 C719 1.561 . S
C717 C720 1.526 . S
C718 H702 0.959 . S
C718 H703 0.959 . S
C718 H704 0.961 . S
C718 C717 1.502 . S
C719 H705 0.960 . S
C719 H706 0.961 . S
C719 H707 0.959 . S
C719 C717 1.561 . S
C720 C717 1.526 . S
C720 C721 1.396 . S
C720 C725 1.390 . S
C721 C715 1.465 . S
C721 C720 1.396 . S
C721 C722 1.399 . S
C722 H708 0.929 . S
C722 C721 1.399 . S
C722 C723 1.385 . S
C723 H709 0.931 . S
C723 C722 1.385 . S
C723 C724 1.389 . S
C724 C723 1.389 . S
C724 C725 1.387 . S
C725 H710 0.930 . S
C725 C720 1.390 . S
C725 C724 1.387 . S
H726 C738 0.930 . S
H727 C740 0.930 . S
H728 C741 0.930 . S
H729 C745 0.959 . S
H730 C745 0.959 . S
H731 C745 0.961 . S
H732 C746 0.960 . S
H733 C746 0.961 . S
H734 C746 0.959 . S
H735 C749 0.929 . S
H736 C750 0.931 . S
H737 C752 0.930 . S
C738 H726 0.930 . S
C738 C739 1.399 . S
C738 C743 1.399 . S
C739 C738 1.399 . S
C739 C740 1.376 . S
C740 H727 0.930 . S
C740 C739 1.376 . S
C740 C741 1.388 . S
C741 H728 0.930 . S
C741 C740 1.388 . S
C741 C742 1.390 . S
C742 C741 1.390 . S
C742 C743 1.394 . S
C742 C748 1.465 . S
C743 C738 1.399 . S
C743 C742 1.394 . S
C743 C744 1.516 . S
C744 C743 1.516 . S
C744 C745 1.502 . S
C744 C746 1.561 . S
C744 C747 1.526 . S
C745 H729 0.959 . S
C745 H730 0.959 . S
C745 H731 0.961 . S
C745 C744 1.502 . S
C746 H732 0.960 . S
C746 H733 0.961 . S
C746 H734 0.959 . S
C746 C744 1.561 . S
C747 C744 1.526 . S
C747 C748 1.396 . S
C747 C752 1.390 . S
C748 C742 1.465 . S
C748 C747 1.396 . S
C748 C749 1.399 . S
C749 H735 0.929 . S
C749 C748 1.399 . S
C749 C750 1.385 . S
C750 H736 0.931 . S
C750 C749 1.385 . S
C750 C751 1.389 . S
C751 C750 1.389 . S
C751 C752 1.387 . S
C752 H737 0.930 . S
C752 C747 1.390 . S
C752 C751 1.387 . S
H753 C765 0.930 . S
H754 C767 0.930 . S
H755 C768 0.930 1_565 S
H756 C772 0.959 . S
H757 C772 0.959 . S
H758 C772 0.961 1_545 S
H759 C773 0.960 . S
H760 C773 0.961 1_565 S
H761 C773 0.959 . S
H762 C776 0.929 . S
H763 C777 0.931 . S
H764 C779 0.930 . S
C765 H753 0.930 . S
C765 C766 1.399 . S
C765 C770 1.399 . S
C766 C765 1.399 . S
C766 C767 1.376 . S
C767 H754 0.930 . S
C767 C766 1.376 . S
C767 C768 1.388 . S
C768 H755 0.930 1_545 S
C768 C767 1.388 . S
C768 C769 1.390 1_545 S
C769 C768 1.390 1_565 S
C769 C770 1.394 1_565 S
C769 C775 1.465 . S
C770 C765 1.399 . S
C770 C769 1.394 1_545 S
C770 C771 1.516 1_545 S
C771 C770 1.516 1_565 S
C771 C772 1.502 . S
C771 C773 1.561 1_565 S
C771 C774 1.526 . S
C772 H756 0.959 . S
C772 H757 0.959 . S
C772 H758 0.961 1_565 S
C772 C771 1.502 . S
C773 H759 0.960 . S
C773 H760 0.961 1_545 S
C773 H761 0.959 . S
C773 C771 1.561 1_545 S
C774 C771 1.526 . S
C774 C775 1.396 . S
C774 C779 1.390 . S
C775 C769 1.465 . S
C775 C774 1.396 . S
C775 C776 1.399 . S
C776 H762 0.929 . S
C776 C775 1.399 . S
C776 C777 1.385 . S
C777 H763 0.931 . S
C777 C776 1.385 . S
C777 C778 1.389 . S
C778 C777 1.389 . S
C778 C779 1.387 . S
C779 H764 0.930 . S
C779 C774 1.390 . S
C779 C778 1.387 . S
H780 C792 0.930 . S
H781 C794 0.930 . S
H782 C795 0.930 . S
H783 C799 0.959 . S
H784 C799 0.959 . S
H785 C799 0.961 . S
H786 C800 0.960 . S
H787 C800 0.961 . S
H788 C800 0.959 . S
H789 C803 0.929 . S
H790 C804 0.931 . S
H791 C806 0.930 . S
C792 H780 0.930 . S
C792 C793 1.399 . S
C792 C797 1.399 . S
C793 C792 1.399 . S
C793 C794 1.376 . S
C794 H781 0.930 . S
C794 C793 1.376 . S
C794 C795 1.388 . S
C795 H782 0.930 . S
C795 C794 1.388 . S
C795 C796 1.390 . S
C796 C795 1.390 . S
C796 C797 1.394 . S
C796 C802 1.465 . S
C797 C792 1.399 . S
C797 C796 1.394 . S
C797 C798 1.516 . S
C798 C797 1.516 . S
C798 C799 1.502 . S
C798 C800 1.561 . S
C798 C801 1.526 . S
C799 H783 0.959 . S
C799 H784 0.959 . S
C799 H785 0.961 . S
C799 C798 1.502 . S
C800 H786 0.960 . S
C800 H787 0.961 . S
C800 H788 0.959 . S
C800 C798 1.561 . S
C801 C798 1.526 . S
C801 C802 1.396 . S
C801 C806 1.390 . S
C802 C796 1.465 . S
C802 C801 1.396 . S
C802 C803 1.399 . S
C803 H789 0.929 . S
C803 C802 1.399 . S
C803 C804 1.385 . S
C804 H790 0.931 . S
C804 C803 1.385 . S
C804 C805 1.389 . S
C805 C804 1.389 . S
C805 C806 1.387 . S
C806 H791 0.930 . S
C806 C801 1.390 . S
C806 C805 1.387 . S
H807 C819 0.930 . S
H808 C821 0.930 . S
H809 C822 0.930 . S
H810 C826 0.959 . S
H811 C826 0.959 . S
H812 C826 0.961 . S
H813 C827 0.960 . S
H814 C827 0.961 . S
H815 C827 0.959 . S
H816 C830 0.929 . S
H817 C831 0.931 . S
H818 C833 0.930 . S
C819 H807 0.930 . S
C819 C820 1.399 . S
C819 C824 1.399 . S
C820 C819 1.399 . S
C820 C821 1.376 . S
C821 H808 0.930 . S
C821 C820 1.376 . S
C821 C822 1.388 . S
C822 H809 0.930 . S
C822 C821 1.388 . S
C822 C823 1.390 . S
C823 C822 1.390 . S
C823 C824 1.394 . S
C823 C829 1.465 . S
C824 C819 1.399 . S
C824 C823 1.394 . S
C824 C825 1.516 . S
C825 C824 1.516 . S
C825 C826 1.502 . S
C825 C827 1.561 . S
C825 C828 1.526 . S
C826 H810 0.959 . S
C826 H811 0.959 . S
C826 H812 0.961 . S
C826 C825 1.502 . S
C827 H813 0.960 . S
C827 H814 0.961 . S
C827 H815 0.959 . S
C827 C825 1.561 . S
C828 C825 1.526 . S
C828 C829 1.396 . S
C828 C833 1.390 . S
C829 C823 1.465 . S
C829 C828 1.396 . S
C829 C830 1.399 . S
C830 H816 0.929 . S
C830 C829 1.399 . S
C830 C831 1.385 . S
C831 H817 0.931 . S
C831 C830 1.385 . S
C831 C832 1.389 . S
C832 C831 1.389 . S
C832 C833 1.387 . S
C833 H818 0.930 . S
C833 C828 1.390 . S
C833 C832 1.387 . S
H834 C846 0.930 . S
H835 C848 0.930 . S
H836 C849 0.930 . S
H837 C853 0.959 . S
H838 C853 0.959 . S
H839 C853 0.961 . S
H840 C854 0.960 . S
H841 C854 0.961 . S
H842 C854 0.959 . S
H843 C857 0.929 . S
H844 C858 0.931 . S
H845 C860 0.930 . S
C846 H834 0.930 . S
C846 C847 1.399 . S
C846 C851 1.399 . S
C847 C846 1.399 . S
C847 C848 1.376 . S
C848 H835 0.930 . S
C848 C847 1.376 . S
C848 C849 1.388 . S
C849 H836 0.930 . S
C849 C848 1.388 . S
C849 C850 1.390 . S
C850 C849 1.390 . S
C850 C851 1.394 . S
C850 C856 1.465 . S
C851 C846 1.399 . S
C851 C850 1.394 . S
C851 C852 1.516 . S
C852 C851 1.516 . S
C852 C853 1.502 . S
C852 C854 1.561 . S
C852 C855 1.526 . S
C853 H837 0.959 . S
C853 H838 0.959 . S
C853 H839 0.961 . S
C853 C852 1.502 . S
C854 H840 0.960 . S
C854 H841 0.961 . S
C854 H842 0.959 . S
C854 C852 1.561 . S
C855 C852 1.526 . S
C855 C856 1.396 . S
C855 C860 1.390 . S
C856 C850 1.465 . S
C856 C855 1.396 . S
C856 C857 1.399 . S
C857 H843 0.929 . S
C857 C856 1.399 . S
C857 C858 1.385 . S
C858 H844 0.931 . S
C858 C857 1.385 . S
C858 C859 1.389 . S
C859 C858 1.389 . S
C859 C860 1.387 . S
C860 H845 0.930 . S
C860 C855 1.390 . S
C860 C859 1.387 . S
H861 C873 0.930 . S
H862 C875 0.930 . S
H863 C876 0.930 . S
H864 C880 0.959 . S
H865 C880 0.959 . S
H866 C880 0.961 . S
H867 C881 0.960 . S
H868 C881 0.961 . S
H869 C881 0.959 . S
H870 C884 0.929 . S
H871 C885 0.931 . S
H872 C887 0.930 . S
C873 H861 0.930 . S
C873 C874 1.399 . S
C873 C878 1.399 . S
C874 C873 1.399 . S
C874 C875 1.376 . S
C875 H862 0.930 . S
C875 C874 1.376 . S
C875 C876 1.388 . S
C876 H863 0.930 . S
C876 C875 1.388 . S
C876 C877 1.390 . S
C877 C876 1.390 . S
C877 C878 1.394 . S
C877 C883 1.465 . S
C878 C873 1.399 . S
C878 C877 1.394 . S
C878 C879 1.516 . S
C879 C878 1.516 . S
C879 C880 1.502 . S
C879 C881 1.561 . S
C879 C882 1.526 . S
C880 H864 0.959 . S
C880 H865 0.959 . S
C880 H866 0.961 . S
C880 C879 1.502 . S
C881 H867 0.960 . S
C881 H868 0.961 . S
C881 H869 0.959 . S
C881 C879 1.561 . S
C882 C879 1.526 . S
C882 C883 1.396 . S
C882 C887 1.390 . S
C883 C877 1.465 . S
C883 C882 1.396 . S
C883 C884 1.399 . S
C884 H870 0.929 . S
C884 C883 1.399 . S
C884 C885 1.385 . S
C885 H871 0.931 . S
C885 C884 1.385 . S
C885 C886 1.389 . S
C886 C885 1.389 . S
C886 C887 1.387 . S
C887 H872 0.930 . S
C887 C882 1.390 . S
C887 C886 1.387 . S
H888 C900 0.930 . S
H889 C902 0.930 . S
H890 C903 0.930 . S
H891 C907 0.959 . S
H892 C907 0.959 . S
H893 C907 0.961 . S
H894 C908 0.960 . S
H895 C908 0.961 . S
H896 C908 0.959 . S
H897 C911 0.929 . S
H898 C912 0.931 . S
H899 C914 0.930 . S
C900 H888 0.930 . S
C900 C901 1.399 . S
C900 C905 1.399 . S
C901 C900 1.399 . S
C901 C902 1.376 . S
C902 H889 0.930 . S
C902 C901 1.376 . S
C902 C903 1.388 . S
C903 H890 0.930 . S
C903 C902 1.388 . S
C903 C904 1.390 . S
C904 C903 1.390 . S
C904 C905 1.394 . S
C904 C910 1.465 . S
C905 C900 1.399 . S
C905 C904 1.394 . S
C905 C906 1.516 . S
C906 C905 1.516 . S
C906 C907 1.502 . S
C906 C908 1.561 . S
C906 C909 1.526 . S
C907 H891 0.959 . S
C907 H892 0.959 . S
C907 H893 0.961 . S
C907 C906 1.502 . S
C908 H894 0.960 . S
C908 H895 0.961 . S
C908 H896 0.959 . S
C908 C906 1.561 . S
C909 C906 1.526 . S
C909 C910 1.396 . S
C909 C914 1.390 . S
C910 C904 1.465 . S
C910 C909 1.396 . S
C910 C911 1.399 . S
C911 H897 0.929 . S
C911 C910 1.399 . S
C911 C912 1.385 . S
C912 H898 0.931 . S
C912 C911 1.385 . S
C912 C913 1.389 . S
C913 C912 1.389 . S
C913 C914 1.387 . S
C914 H899 0.930 . S
C914 C909 1.390 . S
C914 C913 1.387 . S
H915 C927 0.930 . S
H916 C929 0.930 . S
H917 C930 0.930 . S
H918 C934 0.959 . S
H919 C934 0.959 . S
H920 C934 0.961 . S
H921 C935 0.960 . S
H922 C935 0.961 . S
H923 C935 0.959 . S
H924 C938 0.929 . S
H925 C939 0.931 . S
H926 C941 0.930 . S
C927 H915 0.930 . S
C927 C928 1.399 . S
C927 C932 1.399 . S
C928 C927 1.399 . S
C928 C929 1.376 . S
C929 H916 0.930 . S
C929 C928 1.376 . S
C929 C930 1.388 . S
C930 H917 0.930 . S
C930 C929 1.388 . S
C930 C931 1.390 . S
C931 C930 1.390 . S
C931 C932 1.394 . S
C931 C937 1.465 . S
C932 C927 1.399 . S
C932 C931 1.394 . S
C932 C933 1.516 . S
C933 C932 1.516 . S
C933 C934 1.502 . S
C933 C935 1.561 . S
C933 C936 1.526 . S
C934 H918 0.959 . S
C934 H919 0.959 . S
C934 H920 0.961 . S
C934 C933 1.502 . S
C935 H921 0.960 . S
C935 H922 0.961 . S
C935 H923 0.959 . S
C935 C933 1.561 . S
C936 C933 1.526 . S
C936 C937 1.396 . S
C936 C941 1.390 . S
C937 C931 1.465 . S
C937 C936 1.396 . S
C937 C938 1.399 . S
C938 H924 0.929 . S
C938 C937 1.399 . S
C938 C939 1.385 . S
C939 H925 0.931 . S
C939 C938 1.385 . S
C939 C940 1.389 . S
C940 C939 1.389 . S
C940 C941 1.387 . S
C941 H926 0.930 . S
C941 C936 1.390 . S
C941 C940 1.387 . S
H942 C954 0.930 . S
H943 C956 0.930 . S
H944 C957 0.930 . S
H945 C961 0.959 . S
H946 C961 0.959 . S
H947 C961 0.961 . S
H948 C962 0.960 . S
H949 C962 0.961 . S
H950 C962 0.959 . S
H951 C965 0.929 . S
H952 C966 0.931 . S
H953 C968 0.930 . S
C954 H942 0.930 . S
C954 C955 1.399 . S
C954 C959 1.399 . S
C955 C954 1.399 . S
C955 C956 1.376 . S
C956 H943 0.930 . S
C956 C955 1.376 . S
C956 C957 1.388 . S
C957 H944 0.930 . S
C957 C956 1.388 . S
C957 C958 1.390 . S
C958 C957 1.390 . S
C958 C959 1.394 . S
C958 C964 1.465 . S
C959 C954 1.399 . S
C959 C958 1.394 . S
C959 C960 1.516 . S
C960 C959 1.516 . S
C960 C961 1.502 . S
C960 C962 1.561 . S
C960 C963 1.526 . S
C961 H945 0.959 . S
C961 H946 0.959 . S
C961 H947 0.961 . S
C961 C960 1.502 . S
C962 H948 0.960 . S
C962 H949 0.961 . S
C962 H950 0.959 . S
C962 C960 1.561 . S
C963 C960 1.526 . S
C963 C964 1.396 . S
C963 C968 1.390 . S
C964 C958 1.465 . S
C964 C963 1.396 . S
C964 C965 1.399 . S
C965 H951 0.929 . S
C965 C964 1.399 . S
C965 C966 1.385 . S
C966 H952 0.931 . S
C966 C965 1.385 . S
C966 C967 1.389 . S
C967 C966 1.389 . S
C967 C968 1.387 . S
C968 H953 0.930 . S
C968 C963 1.390 . S
C968 C967 1.387 . S
H969 C981 0.930 . S
H970 C983 0.930 . S
H971 C984 0.930 . S
H972 C988 0.959 . S
H973 C988 0.959 . S
H974 C988 0.961 . S
H975 C989 0.960 . S
H976 C989 0.961 . S
H977 C989 0.959 . S
H978 C992 0.929 . S
H979 C993 0.931 . S
H980 C995 0.930 . S
C981 H969 0.930 . S
C981 C982 1.399 . S
C981 C986 1.399 . S
C982 C981 1.399 . S
C982 C983 1.376 . S
C983 H970 0.930 . S
C983 C982 1.376 . S
C983 C984 1.388 . S
C984 H971 0.930 . S
C984 C983 1.388 . S
C984 C985 1.390 . S
C985 C984 1.390 . S
C985 C986 1.394 . S
C985 C991 1.465 . S
C986 C981 1.399 . S
C986 C985 1.394 . S
C986 C987 1.516 . S
C987 C986 1.516 . S
C987 C988 1.502 . S
C987 C989 1.561 . S
C987 C990 1.526 . S
C988 H972 0.959 . S
C988 H973 0.959 . S
C988 H974 0.961 . S
C988 C987 1.502 . S
C989 H975 0.960 . S
C989 H976 0.961 . S
C989 H977 0.959 . S
C989 C987 1.561 . S
C990 C987 1.526 . S
C990 C991 1.396 . S
C990 C995 1.390 . S
C991 C985 1.465 . S
C991 C990 1.396 . S
C991 C992 1.399 . S
C992 H978 0.929 . S
C992 C991 1.399 . S
C992 C993 1.385 . S
C993 H979 0.931 . S
C993 C992 1.385 . S
C993 C994 1.389 . S
C994 C993 1.389 . S
C994 C995 1.387 . S
C995 H980 0.930 . S
C995 C990 1.390 . S
C995 C994 1.387 . S
H996 C1008 0.930 . S
H997 C1010 0.930 . S
H998 C1011 0.930 . S
H999 C1015 0.959 . S
H1000 C1015 0.959 . S
H1001 C1015 0.961 . S
H1002 C1016 0.960 . S
H1003 C1016 0.961 . S
H1004 C1016 0.959 . S
H1005 C1019 0.929 . S
H1006 C1020 0.931 . S
H1007 C1022 0.930 . S
C1008 H996 0.930 . S
C1008 C1009 1.399 . S
C1008 C1013 1.399 . S
C1009 C1008 1.399 . S
C1009 C1010 1.376 . S
C1010 H997 0.930 . S
C1010 C1009 1.376 . S
C1010 C1011 1.388 . S
C1011 H998 0.930 . S
C1011 C1010 1.388 . S
C1011 C1012 1.390 . S
C1012 C1011 1.390 . S
C1012 C1013 1.394 . S
C1012 C1018 1.465 . S
C1013 C1008 1.399 . S
C1013 C1012 1.394 . S
C1013 C1014 1.516 . S
C1014 C1013 1.516 . S
C1014 C1015 1.502 . S
C1014 C1016 1.561 . S
C1014 C1017 1.526 . S
C1015 H999 0.959 . S
C1015 H1000 0.959 . S
C1015 H1001 0.961 . S
C1015 C1014 1.502 . S
C1016 H1002 0.960 . S
C1016 H1003 0.961 . S
C1016 H1004 0.959 . S
C1016 C1014 1.561 . S
C1017 C1014 1.526 . S
C1017 C1018 1.396 . S
C1017 C1022 1.390 . S
C1018 C1012 1.465 . S
C1018 C1017 1.396 . S
C1018 C1019 1.399 . S
C1019 H1005 0.929 . S
C1019 C1018 1.399 . S
C1019 C1020 1.385 . S
C1020 H1006 0.931 . S
C1020 C1019 1.385 . S
C1020 C1021 1.389 . S
C1021 C1020 1.389 . S
C1021 C1022 1.387 . S
C1022 H1007 0.930 . S
C1022 C1017 1.390 . S
C1022 C1021 1.387 . S
H1023 C1035 0.930 . S
H1024 C1037 0.930 . S
H1025 C1038 0.930 . S
H1026 C1042 0.959 . S
H1027 C1042 0.959 . S
H1028 C1042 0.961 . S
H1029 C1043 0.960 . S
H1030 C1043 0.961 . S
H1031 C1043 0.959 . S
H1032 C1046 0.929 . S
H1033 C1047 0.931 . S
H1034 C1049 0.930 . S
C1035 H1023 0.930 . S
C1035 C1036 1.399 . S
C1035 C1040 1.399 . S
C1036 C1035 1.399 . S
C1036 C1037 1.376 . S
C1037 H1024 0.930 . S
C1037 C1036 1.376 . S
C1037 C1038 1.388 . S
C1038 H1025 0.930 . S
C1038 C1037 1.388 . S
C1038 C1039 1.390 . S
C1039 C1038 1.390 . S
C1039 C1040 1.394 . S
C1039 C1045 1.465 . S
C1040 C1035 1.399 . S
C1040 C1039 1.394 . S
C1040 C1041 1.516 . S
C1041 C1040 1.516 . S
C1041 C1042 1.502 . S
C1041 C1043 1.561 . S
C1041 C1044 1.526 . S
C1042 H1026 0.959 . S
C1042 H1027 0.959 . S
C1042 H1028 0.961 . S
C1042 C1041 1.502 . S
C1043 H1029 0.960 . S
C1043 H1030 0.961 . S
C1043 H1031 0.959 . S
C1043 C1041 1.561 . S
C1044 C1041 1.526 . S
C1044 C1045 1.396 . S
C1044 C1049 1.390 . S
C1045 C1039 1.465 . S
C1045 C1044 1.396 . S
C1045 C1046 1.399 . S
C1046 H1032 0.929 . S
C1046 C1045 1.399 . S
C1046 C1047 1.385 . S
C1047 H1033 0.931 . S
C1047 C1046 1.385 . S
C1047 C1048 1.389 . S
C1048 C1047 1.389 . S
C1048 C1049 1.387 . S
C1049 H1034 0.930 . S
C1049 C1044 1.390 . S
C1049 C1048 1.387 . S
H1050 C1062 0.930 . S
H1051 C1064 0.930 . S
H1052 C1065 0.930 . S
H1053 C1069 0.959 . S
H1054 C1069 0.959 . S
H1055 C1069 0.961 . S
H1056 C1070 0.960 . S
H1057 C1070 0.961 . S
H1058 C1070 0.959 . S
H1059 C1073 0.929 . S
H1060 C1074 0.931 . S
H1061 C1076 0.930 . S
C1062 H1050 0.930 . S
C1062 C1063 1.399 . S
C1062 C1067 1.399 . S
C1063 C1062 1.399 . S
C1063 C1064 1.376 . S
C1064 H1051 0.930 . S
C1064 C1063 1.376 . S
C1064 C1065 1.388 . S
C1065 H1052 0.930 . S
C1065 C1064 1.388 . S
C1065 C1066 1.390 . S
C1066 C1065 1.390 . S
C1066 C1067 1.394 . S
C1066 C1072 1.465 . S
C1067 C1062 1.399 . S
C1067 C1066 1.394 . S
C1067 C1068 1.516 . S
C1068 C1067 1.516 . S
C1068 C1069 1.502 . S
C1068 C1070 1.561 . S
C1068 C1071 1.526 . S
C1069 H1053 0.959 . S
C1069 H1054 0.959 . S
C1069 H1055 0.961 . S
C1069 C1068 1.502 . S
C1070 H1056 0.960 . S
C1070 H1057 0.961 . S
C1070 H1058 0.959 . S
C1070 C1068 1.561 . S
C1071 C1068 1.526 . S
C1071 C1072 1.396 . S
C1071 C1076 1.390 . S
C1072 C1066 1.465 . S
C1072 C1071 1.396 . S
C1072 C1073 1.399 . S
C1073 H1059 0.929 . S
C1073 C1072 1.399 . S
C1073 C1074 1.385 . S
C1074 H1060 0.931 . S
C1074 C1073 1.385 . S
C1074 C1075 1.389 . S
C1075 C1074 1.389 . S
C1075 C1076 1.387 . S
C1076 H1061 0.930 . S
C1076 C1071 1.390 . S
C1076 C1075 1.387 . S
H1077 C1089 0.930 . S
H1078 C1091 0.930 . S
H1079 C1092 0.930 . S
H1080 C1096 0.959 . S
H1081 C1096 0.959 . S
H1082 C1096 0.961 . S
H1083 C1097 0.960 . S
H1084 C1097 0.961 . S
H1085 C1097 0.959 . S
H1086 C1100 0.929 . S
H1087 C1101 0.931 . S
H1088 C1103 0.930 . S
C1089 H1077 0.930 . S
C1089 C1090 1.399 . S
C1089 C1094 1.399 . S
C1090 C1089 1.399 . S
C1090 C1091 1.376 . S
C1091 H1078 0.930 . S
C1091 C1090 1.376 . S
C1091 C1092 1.388 . S
C1092 H1079 0.930 . S
C1092 C1091 1.388 . S
C1092 C1093 1.390 . S
C1093 C1092 1.390 . S
C1093 C1094 1.394 . S
C1093 C1099 1.465 . S
C1094 C1089 1.399 . S
C1094 C1093 1.394 . S
C1094 C1095 1.516 . S
C1095 C1094 1.516 . S
C1095 C1096 1.502 . S
C1095 C1097 1.561 . S
C1095 C1098 1.526 . S
C1096 H1080 0.959 . S
C1096 H1081 0.959 . S
C1096 H1082 0.961 . S
C1096 C1095 1.502 . S
C1097 H1083 0.960 . S
C1097 H1084 0.961 . S
C1097 H1085 0.959 . S
C1097 C1095 1.561 . S
C1098 C1095 1.526 . S
C1098 C1099 1.396 . S
C1098 C1103 1.390 . S
C1099 C1093 1.465 . S
C1099 C1098 1.396 . S
C1099 C1100 1.399 . S
C1100 H1086 0.929 . S
C1100 C1099 1.399 . S
C1100 C1101 1.385 . S
C1101 H1087 0.931 . S
C1101 C1100 1.385 . S
C1101 C1102 1.389 . S
C1102 C1101 1.389 . S
C1102 C1103 1.387 . S
C1103 H1088 0.930 . S
C1103 C1098 1.390 . S
C1103 C1102 1.387 . S
H1104 C1116 0.930 . S
H1105 C1118 0.930 . S
H1106 C1119 0.930 . S
H1107 C1123 0.959 . S
H1108 C1123 0.959 . S
H1109 C1123 0.961 . S
H1110 C1124 0.960 . S
H1111 C1124 0.961 . S
H1112 C1124 0.959 . S
H1113 C1127 0.929 . S
H1114 C1128 0.931 . S
H1115 C1130 0.930 . S
C1116 H1104 0.930 . S
C1116 C1117 1.399 . S
C1116 C1121 1.399 . S
C1117 C1116 1.399 . S
C1117 C1118 1.376 . S
C1118 H1105 0.930 . S
C1118 C1117 1.376 . S
C1118 C1119 1.388 . S
C1119 H1106 0.930 . S
C1119 C1118 1.388 . S
C1119 C1120 1.390 . S
C1120 C1119 1.390 . S
C1120 C1121 1.394 . S
C1120 C1126 1.465 . S
C1121 C1116 1.399 . S
C1121 C1120 1.394 . S
C1121 C1122 1.516 . S
C1122 C1121 1.516 . S
C1122 C1123 1.502 . S
C1122 C1124 1.561 . S
C1122 C1125 1.526 . S
C1123 H1107 0.959 . S
C1123 H1108 0.959 . S
C1123 H1109 0.961 . S
C1123 C1122 1.502 . S
C1124 H1110 0.960 . S
C1124 H1111 0.961 . S
C1124 H1112 0.959 . S
C1124 C1122 1.561 . S
C1125 C1122 1.526 . S
C1125 C1126 1.396 . S
C1125 C1130 1.390 . S
C1126 C1120 1.465 . S
C1126 C1125 1.396 . S
C1126 C1127 1.399 . S
C1127 H1113 0.929 . S
C1127 C1126 1.399 . S
C1127 C1128 1.385 . S
C1128 H1114 0.931 . S
C1128 C1127 1.385 . S
C1128 C1129 1.389 . S
C1129 C1128 1.389 . S
C1129 C1130 1.387 . S
C1130 H1115 0.930 . S
C1130 C1125 1.390 . S
C1130 C1129 1.387 . S
H1131 C1143 0.930 . S
H1132 C1145 0.930 . S
H1133 C1146 0.930 . S
H1134 C1150 0.959 . S
H1135 C1150 0.959 . S
H1136 C1150 0.961 . S
H1137 C1151 0.960 . S
H1138 C1151 0.961 . S
H1139 C1151 0.959 . S
H1140 C1154 0.929 . S
H1141 C1155 0.931 . S
H1142 C1157 0.930 . S
C1143 H1131 0.930 . S
C1143 C1144 1.399 . S
C1143 C1148 1.399 . S
C1144 C1143 1.399 . S
C1144 C1145 1.376 . S
C1145 H1132 0.930 . S
C1145 C1144 1.376 . S
C1145 C1146 1.388 . S
C1146 H1133 0.930 . S
C1146 C1145 1.388 . S
C1146 C1147 1.390 . S
C1147 C1146 1.390 . S
C1147 C1148 1.394 . S
C1147 C1153 1.465 . S
C1148 C1143 1.399 . S
C1148 C1147 1.394 . S
C1148 C1149 1.516 . S
C1149 C1148 1.516 . S
C1149 C1150 1.502 . S
C1149 C1151 1.561 . S
C1149 C1152 1.526 . S
C1150 H1134 0.959 . S
C1150 H1135 0.959 . S
C1150 H1136 0.961 . S
C1150 C1149 1.502 . S
C1151 H1137 0.960 . S
C1151 H1138 0.961 . S
C1151 H1139 0.959 . S
C1151 C1149 1.561 . S
C1152 C1149 1.526 . S
C1152 C1153 1.396 . S
C1152 C1157 1.390 . S
C1153 C1147 1.465 . S
C1153 C1152 1.396 . S
C1153 C1154 1.399 . S
C1154 H1140 0.929 . S
C1154 C1153 1.399 . S
C1154 C1155 1.385 . S
C1155 H1141 0.931 . S
C1155 C1154 1.385 . S
C1155 C1156 1.389 . S
C1156 C1155 1.389 . S
C1156 C1157 1.387 . S
C1157 H1142 0.930 . S
C1157 C1152 1.390 . S
C1157 C1156 1.387 . S
H1158 C1170 0.930 . S
H1159 C1172 0.930 . S
H1160 C1173 0.930 . S
H1161 C1177 0.959 . S
H1162 C1177 0.959 . S
H1163 C1177 0.961 . S
H1164 C1178 0.960 . S
H1165 C1178 0.961 . S
H1166 C1178 0.959 . S
H1167 C1181 0.929 . S
H1168 C1182 0.931 . S
H1169 C1184 0.930 . S
C1170 H1158 0.930 . S
C1170 C1171 1.399 . S
C1170 C1175 1.399 . S
C1171 C1170 1.399 . S
C1171 C1172 1.376 . S
C1172 H1159 0.930 . S
C1172 C1171 1.376 . S
C1172 C1173 1.388 . S
C1173 H1160 0.930 . S
C1173 C1172 1.388 . S
C1173 C1174 1.390 . S
C1174 C1173 1.390 . S
C1174 C1175 1.394 . S
C1174 C1180 1.465 . S
C1175 C1170 1.399 . S
C1175 C1174 1.394 . S
C1175 C1176 1.516 . S
C1176 C1175 1.516 . S
C1176 C1177 1.502 . S
C1176 C1178 1.561 . S
C1176 C1179 1.526 . S
C1177 H1161 0.959 . S
C1177 H1162 0.959 . S
C1177 H1163 0.961 . S
C1177 C1176 1.502 . S
C1178 H1164 0.960 . S
C1178 H1165 0.961 . S
C1178 H1166 0.959 . S
C1178 C1176 1.561 . S
C1179 C1176 1.526 . S
C1179 C1180 1.396 . S
C1179 C1184 1.390 . S
C1180 C1174 1.465 . S
C1180 C1179 1.396 . S
C1180 C1181 1.399 . S
C1181 H1167 0.929 . S
C1181 C1180 1.399 . S
C1181 C1182 1.385 . S
C1182 H1168 0.931 . S
C1182 C1181 1.385 . S
C1182 C1183 1.389 . S
C1183 C1182 1.389 . S
C1183 C1184 1.387 . S
C1184 H1169 0.930 . S
C1184 C1179 1.390 . S
C1184 C1183 1.387 . S
H1185 C1197 0.930 . S
H1186 C1199 0.930 . S
H1187 C1200 0.930 . S
H1188 C1204 0.959 . S
H1189 C1204 0.959 . S
H1190 C1204 0.961 . S
H1191 C1205 0.960 . S
H1192 C1205 0.961 . S
H1193 C1205 0.959 . S
H1194 C1208 0.929 . S
H1195 C1209 0.931 . S
H1196 C1211 0.930 . S
C1197 H1185 0.930 . S
C1197 C1198 1.399 . S
C1197 C1202 1.399 . S
C1198 C1197 1.399 . S
C1198 C1199 1.376 . S
C1199 H1186 0.930 . S
C1199 C1198 1.376 . S
C1199 C1200 1.388 . S
C1200 H1187 0.930 . S
C1200 C1199 1.388 . S
C1200 C1201 1.390 . S
C1201 C1200 1.390 . S
C1201 C1202 1.394 . S
C1201 C1207 1.465 . S
C1202 C1197 1.399 . S
C1202 C1201 1.394 . S
C1202 C1203 1.516 . S
C1203 C1202 1.516 . S
C1203 C1204 1.502 . S
C1203 C1205 1.561 . S
C1203 C1206 1.526 . S
C1204 H1188 0.959 . S
C1204 H1189 0.959 . S
C1204 H1190 0.961 . S
C1204 C1203 1.502 . S
C1205 H1191 0.960 . S
C1205 H1192 0.961 . S
C1205 H1193 0.959 . S
C1205 C1203 1.561 . S
C1206 C1203 1.526 . S
C1206 C1207 1.396 . S
C1206 C1211 1.390 . S
C1207 C1201 1.465 . S
C1207 C1206 1.396 . S
C1207 C1208 1.399 . S
C1208 H1194 0.929 . S
C1208 C1207 1.399 . S
C1208 C1209 1.385 . S
C1209 H1195 0.931 . S
C1209 C1208 1.385 . S
C1209 C1210 1.389 . S
C1210 C1209 1.389 . S
C1210 C1211 1.387 . S
C1211 H1196 0.930 . S
C1211 C1206 1.390 . S
C1211 C1210 1.387 . S
C577 C361 1.313 . S
C589 C496 1.340 . S
C616 C504 1.356 . S
C604 C451 1.399 . S
C643 C508 1.326 . S
C631 C241 1.309 . S
C658 C331 1.390 . S
C670 C484 1.358 . S
C697 C525 1.324 . S
C685 C140 1.440 . S
C724 C559 1.415 . S
C712 C211 1.436 . S
C739 C20 1.424 . S
C751 C547 1.401 . S
C766 C91 1.428 . S
C778 C529 1.361 . S
C805 C483 1.272 . S
C793 C80 1.364 . S
C832 C517 1.252 . S
C820 C1 1.362 . S
C859 C521 1.238 . S
C847 C200 1.390 . S
C886 C499 1.346 . S
C874 C121 1.445 . S
C913 C538 1.270 . S
C901 C320 1.343 . S
C928 C260 1.459 . S
C940 C546 1.316 . S
C967 C562 1.326 . S
C955 C440 1.374 . S
C982 C380 1.464 . S
C994 C542 1.290 . S
C1021 C487 1.355 . S
C1009 C31 1.499 . S
C1048 C505 1.278 . S
C1036 C61 1.473 . S
C1063 C151 1.487 . S
C1075 C520 1.364 . S
C1102 C500 1.256 . S
C1090 C181 1.450 . S
C1129 C526 1.239 . S
C1117 C271 1.496 . S
C1144 C301 1.496 . S
C1156 C550 1.376 . S
C1171 C391 1.452 . S
C1183 C563 1.336 . S
C1198 C421 1.427 . S
C1210 C541 1.233 . S
