# Generated by pormake.
# Topology pyr, (3,6)-cn, num edge types: 1
# Building blocks:
#     Node 0, Type 0, BuildingBlock: INOVEN_clean_linker_0, # of connection points: 3
#     Node 1, Type 0, BuildingBlock: INOVEN_clean_linker_0, # of connection points: 3
#     Node 2, Type 0, BuildingBlock: INOVEN_clean_linker_0, # of connection points: 3
#     Node 3, Type 0, BuildingBlock: INOVEN_clean_linker_0, # of connection points: 3
#     Node 4, Type 0, BuildingBlock: INOVEN_clean_linker_0, # of connection points: 3
#     Node 5, Type 0, BuildingBlock: INOVEN_clean_linker_0, # of connection points: 3
#     Node 6, Type 0, BuildingBlock: INOVEN_clean_linker_0, # of connection points: 3
#     Node 7, Type 0, BuildingBlock: INOVEN_clean_linker_0, # of connection points: 3
#     Node 8, Type 1, BuildingBlock: JUFBIX_clean_sbu_0, # of connection points: 6
#     Node 9, Type 1, BuildingBlock: JUFBIX_clean_sbu_0, # of connection points: 6
#     Node 10, Type 1, BuildingBlock: JUFBIX_clean_sbu_0, # of connection points: 6
#     Node 11, Type 1, BuildingBlock: JUFBIX_clean_sbu_0, # of connection points: 6
#     Edge 12, Type (0, 1), BuildingBlock: XIVTED_clean_linker_0, # of connection points: 2
#     Edge 13, Type (0, 1), BuildingBlock: XIVTED_clean_linker_0, # of connection points: 2
#     Edge 14, Type (0, 1), BuildingBlock: XIVTED_clean_linker_0, # of connection points: 2
#     Edge 15, Type (0, 1), BuildingBlock: XIVTED_clean_linker_0, # of connection points: 2
#     Edge 16, Type (0, 1), BuildingBlock: XIVTED_clean_linker_0, # of connection points: 2
#     Edge 17, Type (0, 1), BuildingBlock: XIVTED_clean_linker_0, # of connection points: 2
#     Edge 18, Type (0, 1), BuildingBlock: XIVTED_clean_linker_0, # of connection points: 2
#     Edge 19, Type (0, 1), BuildingBlock: XIVTED_clean_linker_0, # of connection points: 2
#     Edge 20, Type (0, 1), BuildingBlock: XIVTED_clean_linker_0, # of connection points: 2
#     Edge 21, Type (0, 1), BuildingBlock: XIVTED_clean_linker_0, # of connection points: 2
#     Edge 22, Type (0, 1), BuildingBlock: XIVTED_clean_linker_0, # of connection points: 2
#     Edge 23, Type (0, 1), BuildingBlock: XIVTED_clean_linker_0, # of connection points: 2
#     Edge 24, Type (0, 1), BuildingBlock: XIVTED_clean_linker_0, # of connection points: 2
#     Edge 25, Type (0, 1), BuildingBlock: XIVTED_clean_linker_0, # of connection points: 2
#     Edge 26, Type (0, 1), BuildingBlock: XIVTED_clean_linker_0, # of connection points: 2
#     Edge 27, Type (0, 1), BuildingBlock: XIVTED_clean_linker_0, # of connection points: 2
#     Edge 28, Type (0, 1), BuildingBlock: XIVTED_clean_linker_0, # of connection points: 2
#     Edge 29, Type (0, 1), BuildingBlock: XIVTED_clean_linker_0, # of connection points: 2
#     Edge 30, Type (0, 1), BuildingBlock: XIVTED_clean_linker_0, # of connection points: 2
#     Edge 31, Type (0, 1), BuildingBlock: XIVTED_clean_linker_0, # of connection points: 2
#     Edge 32, Type (0, 1), BuildingBlock: XIVTED_clean_linker_0, # of connection points: 2
#     Edge 33, Type (0, 1), BuildingBlock: XIVTED_clean_linker_0, # of connection points: 2
#     Edge 34, Type (0, 1), BuildingBlock: XIVTED_clean_linker_0, # of connection points: 2
#     Edge 35, Type (0, 1), BuildingBlock: XIVTED_clean_linker_0, # of connection points: 2
# Relax obj value: 0.122
# Max RMSD: 0.200
# Mean RMSD: 0.124
data_MOF--net-pry--node1-JUFBIX_clean_sbu_0--node2-INOVEN_clean_linker_0--edge1-XIVTED_clean_linker_0
_symmetry_space_group_name_H-M    P1
_symmetry_Int_Tables_number       1
_symmetry_cell_setting            triclinic
loop_
_symmetry_equiv_pos_as_xyz
'x, y, z'
_cell_length_a     36.472579
_cell_length_b     34.847072
_cell_length_c     38.544005
_cell_angle_alpha  84.933606
_cell_angle_beta   88.915672
_cell_angle_gamma 95.945264
loop_
_atom_site_label
_atom_site_type_symbol
_atom_site_fract_x
_atom_site_fract_y
_atom_site_fract_z
_atom_type_partial_charge
H0 H 0.15493 0.22685 0.2419 0.0
H1 H 0.23766 0.14705 0.24512 0.0
H2 H 0.23535 0.23451 0.15831 0.0
N3 N 0.17495 0.266 0.18307 0.0
N4 N 0.18383 0.28421 0.15416 0.0
C5 C 0.17857 0.21584 0.23028 0.0
C6 C 0.19409 0.18438 0.24766 0.0
C7 C 0.19292 0.23406 0.19829 0.0
C8 C 0.22404 0.22035 0.18289 0.0
C9 C 0.241 0.18892 0.19959 0.0
C10 C 0.22573 0.17152 0.23225 0.0
H11 H 0.41555 0.84308 0.66114 0.0
H12 H 0.50132 0.83457 0.73628 0.0
H13 H 0.43309 0.9281 0.73455 0.0
N14 N 0.38986 0.90452 0.68306 0.0
N15 N 0.37989 0.93419 0.69462 0.0
C16 C 0.43096 0.85428 0.68251 0.0
C17 C 0.46012 0.83512 0.69651 0.0
C18 C 0.42119 0.88772 0.69598 0.0
C19 C 0.44112 0.90265 0.72335 0.0
C20 C 0.46995 0.88369 0.73798 0.0
C21 C 0.47955 0.84979 0.72455 0.0
H22 H 0.64935 0.36731 0.87222 0.0
H23 H 0.73653 0.3583 0.94513 0.0
H24 H 0.7449 0.45049 0.86219 0.0
N25 N 0.67918 0.42766 0.8343 0.0
N26 N 0.69482 0.45529 0.81495 0.0
C27 C 0.67622 0.37756 0.88138 0.0
C28 C 0.69064 0.35854 0.91074 0.0
C29 C 0.6957 0.41016 0.86366 0.0
C30 C 0.73013 0.42462 0.87551 0.0
C31 C 0.7448 0.40634 0.90535 0.0
C32 C 0.72497 0.37312 0.92266 0.0
H33 H 0.92642 0.63066 0.45847 0.0
H34 H 0.95332 0.72108 0.52561 0.0
H35 H 0.023 0.71051 0.43626 0.0
N36 N 0.97872 0.65138 0.41265 0.0
N37 N 1.00026 0.66609 0.38845 0.0
C38 C 0.94545 0.65397 0.46659 0.0
C39 C 0.93656 0.67342 0.49544 0.0
C40 C 0.97612 0.66732 0.44505 0.0
C41 C 0.99971 0.69945 0.45343 0.0
C42 C 0.992 0.7187 0.4829 0.0
C43 C 0.96059 0.70515 0.50402 0.0
H44 H 0.85241 0.96252 0.84136 0.0
H45 H 0.92884 0.87617 0.84542 0.0
H46 H 0.84385 0.87236 0.92562 0.0
N47 N 0.81453 0.93727 0.89961 0.0
N48 N 0.78958 0.9188 0.9191 0.0
C49 C 0.86226 0.93661 0.85386 0.0
C50 C 0.89245 0.92102 0.83873 0.0
C51 C 0.84449 0.91936 0.88511 0.0
C52 C 0.85757 0.88575 0.90177 0.0
C53 C 0.88837 0.8697 0.88796 0.0
C54 C 0.90533 0.88787 0.85641 0.0
H55 H 0.58062 0.16176 0.4154 0.0
H56 H 0.65192 0.07274 0.43928 0.0
H57 H 0.65274 0.16927 0.50157 0.0
N58 N 0.60388 0.2062 0.46333 0.0
N59 N 0.62391 0.23059 0.47816 0.0
C60 C 0.60013 0.14859 0.43231 0.0
C61 C 0.61387 0.11409 0.42441 0.0
C62 C 0.61439 0.16871 0.4597 0.0
C63 C 0.64154 0.15344 0.48054 0.0
C64 C 0.65535 0.11873 0.4734 0.0
C65 C 0.64066 0.09884 0.44577 0.0
H66 H 0.40278 0.72329 0.22303 0.0
H67 H 0.32428 0.74155 0.14348 0.0
H68 H 0.3075 0.6405 0.21717 0.0
N69 N 0.36856 0.6564 0.25265 0.0
N70 N 0.40147 0.6612 0.26103 0.0
C71 C 0.37737 0.71389 0.21068 0.0
C72 C 0.36602 0.73648 0.18187 0.0
C73 C 0.35644 0.6792 0.22356 0.0
C74 C 0.32357 0.66732 0.20741 0.0
C75 C 0.31238 0.68929 0.1778 0.0
C76 C 0.33356 0.72391 0.16551 0.0
H77 H 0.03343 0.41887 0.62261 0.0
H78 H 0.13373 0.40008 0.56815 0.0
H79 H 0.13176 0.49714 0.62823 0.0
N80 N 0.06303 0.47905 0.65418 0.0
N81 N 0.07704 0.51089 0.6628 0.0
C82 C 0.06178 0.42802 0.61437 0.0
C83 C 0.08058 0.40617 0.59203 0.0
C84 C 0.07994 0.46108 0.62726 0.0
C85 C 0.11703 0.47249 0.61746 0.0
C86 C 0.13646 0.4505 0.59636 0.0
C87 C 0.11801 0.41793 0.58314 0.0
Co88 Co 1.01347 0.0585 0.5316 0.0
C89 C 0.04811 0.99021 0.53183 0.0
Co90 Co 0.06782 0.06062 0.5552 0.0
C91 C 0.93597 0.0634 0.52428 0.0
C92 C 0.95879 0.03481 0.48325 0.0
N93 N 0.96788 0.0528 0.51194 0.0
N94 N 0.90725 0.05241 0.50462 0.0
C95 C 0.92145 0.03441 0.47874 0.0
H96 H 0.93373 0.0781 0.54771 0.0
H97 H 0.97803 0.02238 0.46693 0.0
C98 C 0.03344 0.12937 0.55373 0.0
N99 N 0.11364 0.06685 0.57431 0.0
C100 C 0.13117 0.04089 0.59387 0.0
C101 C 0.13765 0.09919 0.57017 0.0
N102 N 0.16517 0.05583 0.60211 0.0
C103 C 0.16929 0.09255 0.58735 0.0
C104 C 0.07134 0.08312 0.48272 0.0
O105 O 1.00675 0.11022 0.54029 0.0
O106 O 0.0619 0.11299 0.562 0.0
O107 O 0.09035 0.07718 0.50967 0.0
O108 O 0.03628 0.0773 0.4862 0.0
O109 O 0.07357 0.00816 0.54797 0.0
H110 H 0.13284 0.12565 0.55487 0.0
H111 H 0.1194 0.0115 0.60158 0.0
O112 O 0.02023 0.00715 0.52264 0.0
O113 O 0.99113 0.03953 0.57714 0.0
O114 O 0.04526 0.04364 0.60085 0.0
C115 C 1.01042 0.03519 0.60422 0.0
H116 H 0.90601 0.02225 0.45787 0.0
H117 H 0.19398 0.11262 0.5877 0.0
Co118 Co 0.50444 0.05402 0.03663 0.0
C119 C 0.49615 0.99166 0.08731 0.0
Co120 Co 0.53644 0.06257 0.08359 0.0
C121 C 0.49006 0.03671 0.96645 0.0
C122 C 0.44059 0.03148 0.99802 0.0
N123 N 0.47691 0.04376 0.99798 0.0
N124 N 0.46383 0.01908 0.94745 0.0
C125 C 0.43252 0.01609 0.96704 0.0
H126 H 0.51902 0.04064 0.95889 0.0
H127 H 0.42193 0.03031 0.02033 0.0
C128 C 0.54512 0.12451 0.03218 0.0
N129 N 0.56446 0.07173 0.1218 0.0
C130 C 0.5553 0.06454 0.15601 0.0
C131 C 0.60026 0.0862 0.12067 0.0
N132 N 0.5842 0.07358 0.17619 0.0
C133 C 0.61249 0.08727 0.15403 0.0
C134 C 0.57586 0.02929 0.03209 0.0
O135 O 0.52328 0.10293 0.01515 0.0
O136 O 0.55347 0.11264 0.06283 0.0
O137 O 0.57837 0.04192 0.06203 0.0
O138 O 0.54549 0.03095 0.01667 0.0
O139 O 0.51915 0.01215 0.10415 0.0
H140 H 0.61651 0.09516 0.09702 0.0
H141 H 0.52824 0.05218 0.16586 0.0
O142 O 0.48604 0.00519 0.05785 0.0
O143 O 0.46354 0.077 0.05736 0.0
O144 O 0.49455 0.08326 0.10497 0.0
C145 C 0.46499 0.08721 0.08837 0.0
H146 H 0.40632 1.00128 0.96052 0.0
H147 H 0.63996 0.09773 0.16145 0.0
Co148 Co 0.56504 0.56907 0.53131 0.0
C149 C 0.50805 0.5693 0.48422 0.0
Co150 Co 0.51263 0.53666 0.55135 0.0
C151 C 0.64285 0.59361 0.52264 0.0
C152 C 0.60995 0.63298 0.49507 0.0
N153 N 0.60772 0.59869 0.51456 0.0
N154 N 0.66685 0.62369 0.50947 0.0
C155 C 0.64623 0.64841 0.49189 0.0
H156 H 0.65045 0.56925 0.53934 0.0
H157 H 0.58654 0.64662 0.48498 0.0
C158 C 0.56974 0.53661 0.59829 0.0
N159 N 0.4702 0.50703 0.56855 0.0
C160 C 0.43471 0.51336 0.56358 0.0
C161 C 0.46857 0.47339 0.58902 0.0
N162 N 0.41111 0.48511 0.58037 0.0
C163 C 0.43229 0.45998 0.5965 0.0
C164 C 0.55969 0.49299 0.5176 0.0
O165 O 0.58784 0.55725 0.57378 0.0
O166 O 0.53636 0.52423 0.59379 0.0
O167 O 0.52853 0.49276 0.53288 0.0
O168 O 0.58137 0.52418 0.5138 0.0
O169 O 0.48936 0.5494 0.50891 0.0
H170 H 0.49228 0.45939 0.59783 0.0
H171 H 0.42636 0.53843 0.54834 0.0
O172 O 0.54172 0.58072 0.48869 0.0
O173 O 0.54866 0.61345 0.5495 0.0
O174 O 0.497 0.58074 0.56995 0.0
C175 C 0.51821 0.6122 0.56635 0.0
H176 H 0.65651 0.67599 0.4782 0.0
H177 H 0.42222 0.43354 0.61217 0.0
Co178 Co 0.04391 0.57251 1.00314 0.0
C179 C 0.97385 0.53253 1.00407 0.0
Co180 Co 1.01229 0.57317 0.05227 0.0
C181 C 0.05368 0.57285 0.92937 0.0
C182 C 0.1054 0.57285 0.9547 0.0
N183 N 0.06892 0.57297 0.96098 0.0
N184 N 0.07906 0.57246 0.90362 0.0
C185 C 0.11175 0.57269 0.91935 0.0
H186 H 0.02442 0.57305 0.92526 0.0
H187 H 0.12597 0.57232 0.97455 0.0
C188 C 0.08255 0.61202 0.05222 0.0
N189 N 0.98706 0.57189 0.09466 0.0
C190 C 0.99282 0.59616 0.11993 0.0
C191 C 0.96328 0.5424 0.10923 0.0
N192 N 0.97417 0.58263 0.14988 0.0
C193 C 0.95525 0.54895 0.14302 0.0
C194 C 0.05649 0.51062 0.05096 0.0
O195 O 0.0845 0.6031 0.02102 0.0
O196 O 0.05293 0.60229 0.06996 0.0
O197 O 0.03321 0.52588 0.06909 0.0
O198 O 0.06515 0.52634 0.0204 0.0
O199 O 0.97192 0.54375 0.03436 0.0
H200 H 0.9542 0.51651 0.09691 0.0
H201 H 1.01161 0.62242 0.11685 0.0
O202 O 1.0033 0.54155 0.98582 0.0
O203 O 0.02261 0.6187 0.98597 0.0
O204 O 0.9917 0.62067 0.03495 0.0
C205 C 1.00011 0.6352 1.00385 0.0
H206 H 0.13815 0.57154 0.90637 0.0
H207 H 0.9388 0.52901 0.16171 0.0
H208 H 0.12011 0.16706 0.26447 0.0
H209 H 0.14587 0.09669 0.46641 0.0
H210 H 0.22686 0.15849 0.30891 0.0
H211 H 0.03997 0.10026 0.41908 0.0
H212 H 0.17603 0.11861 0.40966 0.0
H213 H 0.09091 0.14195 0.32058 0.0
C214 C 0.13757 0.15994 0.28601 0.0
C215 C 0.17628 0.16547 0.28161 0.0
C216 C 0.14621 0.11456 0.4116 0.0
C217 C 0.14243 0.13611 0.34688 0.0
C218 C 0.12884 0.10203 0.44415 0.0
C219 C 0.09007 0.09651 0.44791 0.0
C220 C 0.12489 0.1219 0.38217 0.0
C221 C 0.06981 0.10403 0.41777 0.0
C222 C 0.12072 0.1454 0.31821 0.0
C223 C 0.19704 0.15474 0.31071 0.0
N224 N 0.08736 0.11631 0.38645 0.0
N225 N 0.17994 0.14093 0.34198 0.0
H226 H 0.46436 0.84633 0.80289 0.0
H227 H 0.51133 0.04283 0.89325 0.0
H228 H 0.50784 0.95374 0.74575 0.0
H229 H 0.43297 0.94797 0.93463 0.0
H230 H 0.52456 0.00586 0.84385 0.0
H231 H 0.46979 0.87795 0.85718 0.0
C232 C 0.47654 0.87612 0.80202 0.0
C233 C 0.48567 0.89761 0.77006 0.0
C234 C 0.50457 0.99318 0.86385 0.0
C235 C 0.49089 0.93412 0.83145 0.0
C236 C 0.49692 0.01427 0.89181 0.0
C237 C 0.47053 0.99867 0.91755 0.0
C238 C 0.48614 0.95601 0.86207 0.0
C239 C 0.4528 0.96142 0.91485 0.0
C240 C 0.47907 0.89431 0.83284 0.0
C241 C 0.50062 0.93634 0.77007 0.0
N242 N 0.46094 0.94133 0.8876 0.0
N243 N 0.5023 0.95361 0.80031 0.0
H244 H 0.7245 0.507 0.76427 0.0
H245 H 0.53875 0.49396 0.65626 0.0
H246 H 0.62289 0.43904 0.79933 0.0
H247 H 0.64077 0.55792 0.61615 0.0
H248 H 0.56862 0.47762 0.71078 0.0
H249 H 0.69367 0.53062 0.71148 0.0
C250 C 0.69571 0.49738 0.76085 0.0
C251 C 0.67638 0.47092 0.78577 0.0
C252 C 0.58451 0.49531 0.69011 0.0
C253 C 0.64102 0.49734 0.72613 0.0
C254 C 0.56744 0.50462 0.65895 0.0
C255 C 0.58736 0.52715 0.63159 0.0
C256 C 0.6218 0.50855 0.69396 0.0
C257 C 0.62444 0.54032 0.63657 0.0
C258 C 0.67817 0.51067 0.73086 0.0
C259 C 0.63902 0.45915 0.78053 0.0
N260 N 0.64054 0.5307 0.66716 0.0
N261 N 0.62267 0.47234 0.75124 0.0
H262 H 0.95324 0.60682 0.36832 0.0
H263 H 0.03153 0.63024 0.1721 0.0
H264 H 0.04309 0.69239 0.33272 0.0
H265 H 0.92625 0.56826 0.20532 0.0
H266 H 0.03944 0.65025 0.23084 0.0
H267 H 0.94744 0.58751 0.30937 0.0
C268 C 0.97207 0.6213 0.3481 0.0
C269 C 0.99884 0.65134 0.35527 0.0
C270 C 1.01456 0.6324 0.22515 0.0
C271 C 0.99196 0.62954 0.28751 0.0
C272 C 1.00983 0.62116 0.19149 0.0
C273 C 0.97814 0.5973 0.1836 0.0
C274 C 0.98759 0.61948 0.25118 0.0
C275 C 0.95137 0.58606 0.2102 0.0
C276 C 0.96856 0.61042 0.31435 0.0
C277 C 0.02229 0.66907 0.32804 0.0
N278 N 0.9568 0.59706 0.24277 0.0
N279 N 0.01832 0.65799 0.29521 0.0
H280 H 0.25552 0.18118 0.12973 0.0
H281 H 0.45531 0.10428 0.15655 0.0
H282 H 0.30305 0.16235 0.2306 0.0
H283 H 0.39972 0.10584 0.05882 0.0
H284 H 0.40172 0.12864 0.18343 0.0
H285 H 0.3093 0.15734 0.10305 0.0
C286 C 0.27726 0.17232 0.1464 0.0
C287 C 0.27422 0.17408 0.18276 0.0
C288 C 0.40118 0.1237 0.15609 0.0
C289 C 0.33673 0.14619 0.15185 0.0
C290 C 0.43196 0.10981 0.14061 0.0
C291 C 0.43245 0.10284 0.10513 0.0
C292 C 0.37032 0.13118 0.13613 0.0
C293 C 0.40094 0.11063 0.08616 0.0
C294 C 0.30804 0.15839 0.13103 0.0
C295 C 0.30353 0.16134 0.20262 0.0
N296 N 0.37149 0.12436 0.10175 0.0
N297 N 0.33333 0.14822 0.18701 0.0
H298 H 0.35849 1.00024 0.71216 0.0
H299 H 0.17511 0.97992 0.60177 0.0
H300 H 0.32822 0.90444 0.65137 0.0
H301 H 0.21885 0.08647 0.64192 0.0
H302 H 0.22627 0.94814 0.62722 0.0
H303 H 0.30289 0.02931 0.69313 0.0
C304 C 0.34002 0.98553 0.69475 0.0
C305 C 0.34786 0.95043 0.68301 0.0
C306 C 0.22454 0.97843 0.63061 0.0
C307 C 0.28449 0.9827 0.66148 0.0
C308 C 0.19521 0.99645 0.61638 0.0
C309 C 0.19299 0.0359 0.61961 0.0
C310 C 0.25162 1.00001 0.64835 0.0
C311 C 0.21996 0.05614 0.63844 0.0
C312 C 0.30843 1.00193 0.68396 0.0
C313 C 0.32324 0.93186 0.66072 0.0
N314 N 0.24828 0.03799 0.65204 0.0
N315 N 0.29257 0.94831 0.65064 0.0
H316 H 0.80898 0.43442 0.86916 0.0
H317 H 0.91028 0.50217 0.03897 0.0
H318 H 0.76081 0.41541 0.9732 0.0
H319 H 0.9639 0.51305 0.93718 0.0
H320 H 0.8557 0.46918 0.01497 0.0
H321 H 0.86628 0.46278 0.89309 0.0
C322 C 0.81048 0.43625 0.89701 0.0
C323 C 0.78011 0.42256 0.91924 0.0
C324 C 0.87942 0.47858 0.99786 0.0
C325 C 0.84545 0.45469 0.94675 0.0
C326 C 0.91063 0.49747 1.01155 0.0
C327 C 0.94162 0.51052 0.99 0.0
C328 C 0.87902 0.47288 0.96226 0.0
C329 C 0.94056 0.50346 0.95472 0.0
C330 C 0.84321 0.4522 0.91066 0.0
C331 C 0.78366 0.42517 0.95515 0.0
N332 N 0.90962 0.48529 0.94186 0.0
N333 N 0.81566 0.44106 0.96775 0.0
H334 H 0.88962 0.7258 0.51189 0.0
H335 H 0.71373 0.56859 0.52159 0.0
H336 H 0.89685 0.60277 0.51375 0.0
H337 H 0.70903 0.69226 0.51112 0.0
H338 H 0.78038 0.57959 0.52907 0.0
H339 H 0.82356 0.71288 0.52385 0.0
C340 C 0.87756 0.69596 0.51584 0.0
C341 C 0.89884 0.66532 0.51139 0.0
C342 C 0.76469 0.6043 0.52539 0.0
C343 C 0.82273 0.65039 0.5239 0.0
C344 C 0.72665 0.59803 0.52116 0.0
C345 C 0.70585 0.62957 0.51519 0.0
C346 C 0.78201 0.64237 0.52376 0.0
C347 C 0.72406 0.66711 0.51479 0.0
C348 C 0.83963 0.68862 0.52222 0.0
C349 C 0.88137 0.62729 0.51635 0.0
N350 N 0.76108 0.67245 0.5188 0.0
N351 N 0.84422 0.62091 0.52178 0.0
H352 H 0.12673 0.31607 0.18453 0.0
H353 H 0.11015 0.47329 0.02055 0.0
H354 H 0.19671 0.32535 0.09225 0.0
H355 H 0.04437 0.46867 0.11527 0.0
H356 H 0.14063 0.41823 0.04559 0.0
H357 H 0.09528 0.37046 0.15926 0.0
C358 C 0.13553 0.32949 0.15891 0.0
C359 C 0.16459 0.31598 0.14042 0.0
C360 C 0.11949 0.42914 0.06094 0.0
C361 C 0.12831 0.37871 0.11115 0.0
C362 C 0.10192 0.46068 0.04657 0.0
C363 C 0.07442 0.47595 0.06567 0.0
C364 C 0.10967 0.41229 0.09482 0.0
C365 C 0.06528 0.4581 0.0994 0.0
C366 C 0.11749 0.36068 0.14445 0.0
C367 C 0.17455 0.33479 0.10735 0.0
N368 N 0.08277 0.42743 0.11279 0.0
N369 N 0.15654 0.36499 0.09382 0.0
H370 H 0.65194 0.29869 0.88156 0.0
H371 H 0.58903 0.17962 0.06268 0.0
H372 H 0.68065 0.33941 0.98113 0.0
H373 H 0.54314 0.15325 0.96398 0.0
H374 H 0.62407 0.23742 0.03358 0.0
H375 H 0.61397 0.24362 0.91155 0.0
C376 C 0.65014 0.29611 0.90977 0.0
C377 C 0.66931 0.32383 0.92888 0.0
C378 C 0.60611 0.21914 0.01836 0.0
C379 C 0.62615 0.26058 0.9634 0.0
C380 C 0.58605 0.18619 0.03494 0.0
C381 C 0.56324 0.16154 0.01567 0.0
C382 C 0.60357 0.22728 0.98223 0.0
C383 C 0.5604 0.17145 0.97984 0.0
C384 C 0.62849 0.26463 0.92687 0.0
C385 C 0.66661 0.31854 0.96539 0.0
N386 N 0.58059 0.20343 0.96422 0.0
N387 N 0.64537 0.2875 0.9815 0.0
H388 H 1.01239 0.7789 0.43401 0.0
H389 H 0.07784 0.93098 0.56971 0.0
H390 H 0.01713 0.74529 0.54419 0.0
H391 H 0.02287 0.9589 0.47407 0.0
H392 H 0.07372 0.86267 0.55647 0.0
H393 H 0.03599 0.84485 0.44431 0.0
C394 C 0.01932 0.78512 0.46028 0.0
C395 C 1.01256 0.7566 0.48835 0.0
C396 C 0.06309 0.88401 0.53828 0.0
C397 C 0.03901 0.83225 0.5003 0.0
C398 C 0.06554 0.9228 0.54571 0.0
C399 C 0.05029 0.95026 0.52307 0.0
C400 C 0.04613 0.87321 0.50766 0.0
C401 C 0.03453 0.93842 0.49238 0.0
C402 C 0.03246 0.82288 0.46615 0.0
C403 C 0.02155 0.7666 0.52192 0.0
N404 N 0.03284 0.9008 0.48559 0.0
N405 N 0.03404 0.80378 0.52706 0.0
H406 H 0.41334 0.77195 0.68448 0.0
H407 H 0.56227 0.67951 0.57264 0.0
H408 H 0.52767 0.81837 0.67393 0.0
H409 H 0.4544 0.62114 0.60185 0.0
H410 H 0.54915 0.73242 0.60692 0.0
H411 H 0.42734 0.71726 0.65285 0.0
C412 C 0.44149 0.77034 0.6757 0.0
C413 C 0.46942 0.79966 0.68158 0.0
C414 C 0.52836 0.70805 0.60579 0.0
C415 C 0.48558 0.73756 0.64508 0.0
C416 C 0.53569 0.67796 0.58601 0.0
C417 C 0.50934 0.64587 0.58435 0.0
C418 C 0.49435 0.70616 0.62385 0.0
C419 C 0.47549 0.64533 0.60238 0.0
C420 C 0.44947 0.73919 0.65766 0.0
C421 C 0.50546 0.79619 0.66999 0.0
N422 N 0.46896 0.67505 0.62137 0.0
N423 N 0.51249 0.76584 0.65193 0.0
H424 H 0.96667 0.93153 0.81886 0.0
H425 H 0.93623 0.0202 0.62228 0.0
H426 H 0.85983 0.95219 0.77968 0.0
H427 H 0.0436 0.01411 0.66606 0.0
H428 H 0.90784 0.99366 0.67876 0.0
H429 H 0.99496 0.95938 0.76284 0.0
C430 C 0.94899 0.94171 0.79855 0.0
C431 C 0.91051 0.93916 0.8045 0.0
C432 C 0.93761 0.99818 0.6761 0.0
C433 C 0.94326 0.97167 0.73946 0.0
C434 C 0.95395 0.01338 0.6437 0.0
C435 C 0.99258 0.01964 0.63902 0.0
C436 C 0.95985 0.98866 0.70442 0.0
C437 C 1.01378 0.01003 0.66813 0.0
C438 C 0.96532 0.95791 0.76645 0.0
C439 C 0.88953 0.95369 0.77685 0.0
N440 N 0.99725 0.99502 0.69928 0.0
N441 N 0.90605 0.969 0.74577 0.0
H442 H 0.54705 0.1066 0.39184 0.0
H443 H 0.6417 0.0563 0.21536 0.0
H444 H 0.66113 0.08596 0.37952 0.0
H445 H 0.52901 0.0826 0.22209 0.0
H446 H 0.64571 0.05727 0.27825 0.0
H447 H 0.53642 0.08875 0.33243 0.0
C448 C 0.5697 0.09783 0.3769 0.0
C449 C 0.60505 0.09788 0.3908 0.0
C450 C 0.61994 0.06258 0.26615 0.0
C451 C 0.59307 0.07738 0.32304 0.0
C452 C 0.61775 0.06218 0.23021 0.0
C453 C 0.5852 0.07002 0.21355 0.0
C454 C 0.58947 0.07133 0.28566 0.0
C455 C 0.55463 0.07651 0.23405 0.0
C456 C 0.56358 0.08756 0.34307 0.0
C457 C 0.63327 0.08584 0.37037 0.0
N458 N 0.55764 0.07756 0.26909 0.0
N459 N 0.6267 0.07643 0.33754 0.0
H460 H 0.47157 0.66398 0.27564 0.0
H461 H 0.43592 0.55319 0.46608 0.0
H462 H 0.36354 0.61593 0.31449 0.0
H463 H 0.54172 0.60754 0.42552 0.0
H464 H 0.40892 0.57107 0.40992 0.0
H465 H 0.4981 0.63779 0.32923 0.0
C466 C 0.45362 0.64739 0.29552 0.0
C467 C 0.41569 0.64196 0.29087 0.0
C468 C 0.43805 0.57891 0.41336 0.0
C469 C 0.44527 0.61242 0.35252 0.0
C470 C 0.45347 0.56877 0.44537 0.0
C471 C 0.49111 0.57907 0.45053 0.0
C472 C 0.46048 0.59937 0.38641 0.0
C473 C 0.51256 0.59914 0.42282 0.0
C474 C 0.46861 0.63259 0.32611 0.0
C475 C 0.39311 0.62055 0.31719 0.0
N476 N 0.49692 0.60866 0.39206 0.0
N477 N 0.4083 0.6067 0.34716 0.0
H478 H 0.10416 0.57853 0.68191 0.0
H479 H 0.01999 0.53378 0.87589 0.0
H480 H 0.02672 0.47922 0.71363 0.0
H481 H 0.12264 0.60389 0.84869 0.0
H482 H 1.01114 0.52503 0.81407 0.0
H483 H 0.09872 0.60055 0.74026 0.0
C484 C 0.08517 0.56208 0.701 0.0
C485 C 0.06608 0.52718 0.69322 0.0
C486 C 0.03537 0.54266 0.82165 0.0
C487 C 0.06018 0.55136 0.75992 0.0
C488 C 0.04038 0.54779 0.85682 0.0
C489 C 0.07227 0.56935 0.86731 0.0
C490 C 0.06221 0.55966 0.79685 0.0
C491 C 0.09799 0.5866 0.84166 0.0
C492 C 0.08235 0.57434 0.73427 0.0
C493 C 0.04199 0.50637 0.7187 0.0
N494 N 0.09244 0.58132 0.80759 0.0
N495 N 0.04005 0.51859 0.75118 0.0
H496 H 0.78906 0.99408 0.9352 0.0
H497 H 0.574 0.97526 0.98403 0.0
H498 H 0.72244 0.88437 0.93815 0.0
H499 H 0.65074 0.04669 0.0408 0.0
H500 H 0.62626 0.94912 0.95636 0.0
H501 H 0.73738 0.02153 0.9633 0.0
C502 C 0.76349 0.97588 0.94139 0.0
C503 C 0.75998 0.93678 0.93408 0.0
C504 C 0.63166 0.97054 0.97485 0.0
C505 C 0.7005 0.96829 0.96577 0.0
C506 C 0.60181 0.98558 0.99065 0.0
C507 C 0.60774 0.01312 0.01511 0.0
C508 C 0.66809 0.98388 0.98252 0.0
C509 C 0.64466 0.0253 0.02242 0.0
C510 C 0.73407 0.99149 0.95764 0.0
C511 C 0.72625 0.91457 0.94321 0.0
N512 N 0.6733 0.01099 1.006 0.0
N513 N 0.69782 0.93061 0.95807 0.0
H514 H 0.67213 0.04464 0.49253 0.0
H515 H 0.88191 0.11472 0.53044 0.0
H516 H 0.71571 0.16473 0.49289 0.0
H517 H 0.84655 0.00575 0.49018 0.0
H518 H 0.81747 0.12857 0.53361 0.0
H519 H 0.73266 0.02563 0.50878 0.0
C520 C 0.69416 0.067 0.49651 0.0
C521 C 0.68886 0.10639 0.49066 0.0
C522 C 0.82385 0.10144 0.52449 0.0
C523 C 0.75784 0.08475 0.50974 0.0
C524 C 0.8605 0.09349 0.52279 0.0
C525 C 0.86945 0.05931 0.50957 0.0
C526 C 0.79604 0.0748 0.51325 0.0
C527 C 0.84075 0.03277 0.49985 0.0
C528 C 0.72862 0.05609 0.50586 0.0
C529 C 0.71823 0.13403 0.49718 0.0
N530 N 0.80528 0.04116 0.50171 0.0
N531 N 0.75156 0.12268 0.50598 0.0
H532 H 0.30565 0.68617 0.10783 0.0
H533 H 0.0875 0.63015 0.11958 0.0
H534 H 0.24308 0.66426 0.20491 0.0
H535 H 0.15277 0.631 0.02477 0.0
H536 H 0.14341 0.64893 0.15025 0.0
H537 H 0.24936 0.67064 0.07632 0.0
C538 C 0.27998 0.67796 0.12249 0.0
C539 C 0.2789 0.67661 0.15901 0.0
C540 C 0.1455 0.64522 0.12271 0.0
C541 C 0.21437 0.65898 0.12313 0.0
C542 C 0.11354 0.63476 0.10505 0.0
C543 C 0.11546 0.62884 0.0695 0.0
C544 C 0.17968 0.64996 0.10472 0.0
C545 C 0.14999 0.63524 0.05215 0.0
C546 C 0.2479 0.66908 0.10451 0.0
C547 C 0.24508 0.6654 0.17678 0.0
N548 N 0.18079 0.6453 0.06998 0.0
N549 N 0.21405 0.65723 0.15863 0.0
H550 H 0.18455 0.45972 0.64846 0.0
H551 H 0.36636 0.50594 0.52812 0.0
H552 H 0.18052 0.45775 0.53685 0.0
H553 H 0.36589 0.45777 0.63507 0.0
H554 H 0.29847 0.49903 0.53064 0.0
H555 H 0.25167 0.47016 0.64382 0.0
C556 C 0.19789 0.46192 0.62289 0.0
C557 C 0.17708 0.45817 0.59293 0.0
C558 C 0.31335 0.48999 0.55347 0.0
C559 C 0.25388 0.46983 0.58748 0.0
C560 C 0.35191 0.49416 0.55213 0.0
C561 C 0.37154 0.48228 0.58144 0.0
C562 C 0.29458 0.47459 0.58454 0.0
C563 C 0.35171 0.46687 0.61185 0.0
C564 C 0.23616 0.46757 0.6203 0.0
C565 C 0.19572 0.46052 0.56051 0.0
N566 N 0.31433 0.46367 0.61268 0.0
N567 N 0.23323 0.46642 0.55857 0.0
H568 H 0.89053 0.84713 0.95911 0.0
H569 H 1.0053 0.66559 0.93556 0.0
H570 H 0.92051 0.81035 0.85931 0.0
H571 H 0.95628 0.68463 0.03444 0.0
H572 H 0.97756 0.7212 0.90839 0.0
H573 H 0.91628 0.79062 0.98778 0.0
C574 C 0.90219 0.82727 0.94302 0.0
C575 C 0.90321 0.83433 0.90635 0.0
C576 C 0.97278 0.71336 0.93604 0.0
C577 C 0.93377 0.76921 0.93962 0.0
C578 C 0.9888 0.68149 0.95174 0.0
C579 C 0.98336 0.67004 0.98758 0.0
C580 C 0.95111 0.73474 0.95611 0.0
C581 C 0.96138 0.69212 1.00679 0.0
C582 C 0.91719 0.79496 0.9596 0.0
C583 C 0.91952 0.80726 0.88749 0.0
N584 N 0.94626 0.72334 0.99092 0.0
N585 N 0.93412 0.77636 0.90421 0.0
H586 H 0.39983 0.79247 0.21974 0.0
H587 H 0.45944 0.93659 0.05174 0.0
H588 H 0.38278 0.76369 0.11414 0.0
H589 H 0.49738 0.95788 0.15445 0.0
H590 H 0.43056 0.87336 0.07489 0.0
H591 H 0.43525 0.85328 0.19715 0.0
C592 C 0.40379 0.79879 0.19182 0.0
C593 C 0.38816 0.77307 0.16875 0.0
C594 C 0.44535 0.89167 0.09241 0.0
C595 C 0.42819 0.84265 0.14285 0.0
C596 C 0.46178 0.92787 0.07923 0.0
C597 C 0.48064 0.95258 0.1013 0.0
C598 C 0.44741 0.88009 0.12804 0.0
C599 C 0.48305 0.93964 0.1366 0.0
C600 C 0.4239 0.83353 0.17898 0.0
C601 C 0.39374 0.78296 0.13285 0.0
N602 N 0.4663 0.90427 0.14901 0.0
N603 N 0.41316 0.81704 0.12103 0.0
H604 H 0.08965 0.37541 0.52972 0.0
H605 H 0.97783 0.16903 0.57715 0.0
H606 H 0.03227 0.35075 0.62958 0.0
H607 H 0.08968 0.18437 0.53602 0.0
H608 H 0.98168 0.23947 0.58315 0.0
H609 H 0.07223 0.30852 0.51725 0.0
C610 C 0.07298 0.3562 0.54885 0.0
C611 C 0.06329 0.36862 0.58118 0.0
C612 C 1.0051 0.22718 0.57256 0.0
C613 C 0.04237 0.2925 0.56639 0.0
C614 C 1.00293 0.18731 0.56912 0.0
C615 C 0.03365 0.17119 0.55645 0.0
C616 C 0.03766 0.25074 0.56197 0.0
C617 C 0.0656 0.19578 0.54631 0.0
C618 C 0.06294 0.31816 0.54158 0.0
C619 C 0.04052 0.34261 0.60437 0.0
N620 N 0.0667 0.23438 0.54906 0.0
N621 N 0.03111 0.30555 0.59668 0.0
H622 H 0.55853 0.25843 0.46238 0.0
H623 H 0.62951 0.47336 0.50581 0.0
H624 H 0.66726 0.28898 0.5 0.0
H625 H 0.51452 0.4295 0.50394 0.0
H626 H 0.64615 0.4094 0.49312 0.0
H627 H 0.54408 0.32468 0.46761 0.0
C628 C 0.57936 0.27918 0.47171 0.0
C629 C 0.61416 0.26851 0.48102 0.0
C630 C 0.61731 0.414 0.49527 0.0
C631 C 0.59794 0.34416 0.4867 0.0
C632 C 0.60783 0.45045 0.50225 0.0
C633 C 0.57063 0.45652 0.50614 0.0
C634 C 0.58933 0.38383 0.49171 0.0
C635 C 0.54356 0.4259 0.50145 0.0
C636 C 0.57113 0.31694 0.47468 0.0
C637 C 0.64014 0.29641 0.49285 0.0
N638 N 0.55345 0.39087 0.49452 0.0
N639 N 0.63159 0.33312 0.49534 0.0
loop_
_geom_bond_atom_site_label_1
_geom_bond_atom_site_label_2
_geom_bond_distance
_geom_bond_site_symmetry_2
_ccdc_geom_bond_type
H0 C5 0.929 . S
H1 C10 0.931 . S
H2 C8 0.930 . S
N3 N4 1.234 . S
N3 C7 1.453 . S
N4 N3 1.234 . S
C5 H0 0.929 . S
C5 C6 1.373 . S
C5 C7 1.368 . S
C6 C5 1.373 . S
C6 C10 1.397 . S
C7 N3 1.453 . S
C7 C5 1.368 . S
C7 C8 1.373 . S
C8 H2 0.930 . S
C8 C7 1.373 . S
C8 C9 1.371 . S
C9 C8 1.371 . S
C9 C10 1.383 . S
C10 H1 0.931 . S
C10 C6 1.397 . S
C10 C9 1.383 . S
H11 C16 0.929 . S
H12 C21 0.931 . S
H13 C19 0.930 . S
N14 N15 1.234 . S
N14 C18 1.453 . S
N15 N14 1.234 . S
C16 H11 0.929 . S
C16 C17 1.373 . S
C16 C18 1.368 . S
C17 C16 1.373 . S
C17 C21 1.397 . S
C18 N14 1.453 . S
C18 C16 1.368 . S
C18 C19 1.373 . S
C19 H13 0.930 . S
C19 C18 1.373 . S
C19 C20 1.371 . S
C20 C19 1.371 . S
C20 C21 1.383 . S
C21 H12 0.931 . S
C21 C17 1.397 . S
C21 C20 1.383 . S
H22 C27 0.929 . S
H23 C32 0.931 . S
H24 C30 0.930 . S
N25 N26 1.234 . S
N25 C29 1.453 . S
N26 N25 1.234 . S
C27 H22 0.929 . S
C27 C28 1.373 . S
C27 C29 1.368 . S
C28 C27 1.373 . S
C28 C32 1.397 . S
C29 N25 1.453 . S
C29 C27 1.368 . S
C29 C30 1.373 . S
C30 H24 0.930 . S
C30 C29 1.373 . S
C30 C31 1.371 . S
C31 C30 1.371 . S
C31 C32 1.383 . S
C32 H23 0.931 . S
C32 C28 1.397 . S
C32 C31 1.383 . S
H33 C38 0.929 . S
H34 C43 0.931 . S
H35 C41 0.930 . S
N36 N37 1.234 . S
N36 C40 1.453 . S
N37 N36 1.234 . S
C38 H33 0.929 . S
C38 C39 1.373 . S
C38 C40 1.368 . S
C39 C38 1.373 . S
C39 C43 1.397 . S
C40 N36 1.453 . S
C40 C38 1.368 . S
C40 C41 1.373 . S
C41 H35 0.930 . S
C41 C40 1.373 . S
C41 C42 1.371 . S
C42 C41 1.371 . S
C42 C43 1.383 . S
C43 H34 0.931 . S
C43 C39 1.397 . S
C43 C42 1.383 . S
H44 C49 0.929 . S
H45 C54 0.931 . S
H46 C52 0.930 . S
N47 N48 1.234 . S
N47 C51 1.453 . S
N48 N47 1.234 . S
C49 H44 0.929 . S
C49 C50 1.373 . S
C49 C51 1.368 . S
C50 C49 1.373 . S
C50 C54 1.397 . S
C51 N47 1.453 . S
C51 C49 1.368 . S
C51 C52 1.373 . S
C52 H46 0.930 . S
C52 C51 1.373 . S
C52 C53 1.371 . S
C53 C52 1.371 . S
C53 C54 1.383 . S
C54 H45 0.931 . S
C54 C50 1.397 . S
C54 C53 1.383 . S
H55 C60 0.929 . S
H56 C65 0.931 . S
H57 C63 0.930 . S
N58 N59 1.234 . S
N58 C62 1.453 . S
N59 N58 1.234 . S
C60 H55 0.929 . S
C60 C61 1.373 . S
C60 C62 1.368 . S
C61 C60 1.373 . S
C61 C65 1.397 . S
C62 N58 1.453 . S
C62 C60 1.368 . S
C62 C63 1.373 . S
C63 H57 0.930 . S
C63 C62 1.373 . S
C63 C64 1.371 . S
C64 C63 1.371 . S
C64 C65 1.383 . S
C65 H56 0.931 . S
C65 C61 1.397 . S
C65 C64 1.383 . S
H66 C71 0.929 . S
H67 C76 0.931 . S
H68 C74 0.930 . S
N69 N70 1.234 . S
N69 C73 1.453 . S
N70 N69 1.234 . S
C71 H66 0.929 . S
C71 C72 1.373 . S
C71 C73 1.368 . S
C72 C71 1.373 . S
C72 C76 1.397 . S
C73 N69 1.453 . S
C73 C71 1.368 . S
C73 C74 1.373 . S
C74 H68 0.930 . S
C74 C73 1.373 . S
C74 C75 1.371 . S
C75 C74 1.371 . S
C75 C76 1.383 . S
C76 H67 0.931 . S
C76 C72 1.397 . S
C76 C75 1.383 . S
H77 C82 0.929 . S
H78 C87 0.931 . S
H79 C85 0.930 . S
N80 N81 1.234 . S
N80 C84 1.453 . S
N81 N80 1.234 . S
C82 H77 0.929 . S
C82 C83 1.373 . S
C82 C84 1.368 . S
C83 C82 1.373 . S
C83 C87 1.397 . S
C84 N80 1.453 . S
C84 C82 1.368 . S
C84 C85 1.373 . S
C85 H79 0.930 . S
C85 C84 1.373 . S
C85 C86 1.371 . S
C86 C85 1.371 . S
C86 C87 1.383 . S
C87 H78 0.931 . S
C87 C83 1.397 . S
C87 C86 1.383 . S
Co88 N93 2.057 . S
Co88 O105 2.021 . S
Co88 O108 2.062 . S
Co88 O112 2.117 1_545 S
Co88 O113 2.020 . S
C89 O109 1.259 1_655 S
C89 O112 1.258 . S
Co90 N99 2.057 . S
Co90 O106 2.117 . S
Co90 O107 2.020 . S
Co90 O109 2.021 1_545 S
Co90 O114 2.062 . S
C91 N93 1.316 . S
C91 N94 1.347 . S
C91 H96 0.931 . S
C92 N93 1.375 . S
C92 C95 1.350 . S
C92 H97 0.930 1_545 S
N93 Co88 2.057 . S
N93 C91 1.316 . S
N93 C92 1.375 . S
N94 C91 1.347 . S
N94 C95 1.373 . S
C95 C92 1.350 . S
C95 N94 1.373 . S
C95 H116 0.931 . S
H96 C91 0.931 . S
H97 C92 0.930 1_565 S
C98 O105 1.259 1_455 S
C98 O106 1.258 . S
N99 Co90 2.057 . S
N99 C100 1.316 1_545 S
N99 C101 1.375 . S
C100 N99 1.316 1_565 S
C100 N102 1.347 1_565 S
C100 H111 0.931 . S
C101 N99 1.375 . S
C101 C103 1.350 . S
C101 H110 0.930 . S
N102 C100 1.347 1_545 S
N102 C103 1.373 . S
C103 C101 1.350 . S
C103 N102 1.373 . S
C103 H117 0.931 . S
C104 O107 1.256 . S
C104 O108 1.255 1_455 S
O105 Co88 2.021 . S
O105 C98 1.259 1_655 S
O106 Co90 2.117 . S
O106 C98 1.258 . S
O107 Co90 2.020 . S
O107 C104 1.256 . S
O108 Co88 2.062 . S
O108 C104 1.255 1_655 S
O109 C89 1.259 1_455 S
O109 Co90 2.021 1_565 S
H110 C101 0.930 . S
H111 C100 0.931 . S
O112 Co88 2.117 1_565 S
O112 C89 1.258 . S
O113 Co88 2.020 . S
O113 C115 1.256 . S
O114 Co90 2.062 . S
O114 C115 1.255 1_455 S
C115 O113 1.256 . S
C115 O114 1.255 1_655 S
H116 C95 0.931 . S
H117 C103 0.931 . S
Co118 N123 2.057 1_554 S
Co118 O135 2.021 1_554 S
Co118 O138 2.062 . S
Co118 O142 2.117 1_545 S
Co118 O143 2.020 . S
C119 O139 1.259 . S
C119 O142 1.258 . S
Co120 N129 2.057 . S
Co120 O136 2.117 . S
Co120 O137 2.020 . S
Co120 O139 2.021 1_545 S
Co120 O144 2.062 . S
C121 N123 1.316 . S
C121 N124 1.347 1_545 S
C121 H126 0.931 . S
C122 N123 1.375 1_565 S
C122 C125 1.350 . S
C122 H127 0.930 . S
N123 Co118 2.057 1_556 S
N123 C121 1.316 . S
N123 C122 1.375 1_545 S
N124 C121 1.347 1_565 S
N124 C125 1.373 . S
C125 C122 1.350 . S
C125 N124 1.373 . S
C125 H146 0.931 . S
H126 C121 0.931 . S
H127 C122 0.930 . S
C128 O135 1.259 1_554 S
C128 O136 1.258 . S
N129 Co120 2.057 . S
N129 C130 1.316 . S
N129 C131 1.375 . S
C130 N129 1.316 . S
C130 N132 1.347 . S
C130 H141 0.931 . S
C131 N129 1.375 . S
C131 C133 1.350 . S
C131 H140 0.930 . S
N132 C130 1.347 . S
N132 C133 1.373 . S
C133 C131 1.350 . S
C133 N132 1.373 . S
C133 H147 0.931 . S
C134 O137 1.256 . S
C134 O138 1.255 . S
O135 Co118 2.021 1_556 S
O135 C128 1.259 1_556 S
O136 Co120 2.117 . S
O136 C128 1.258 . S
O137 Co120 2.020 . S
O137 C134 1.256 . S
O138 Co118 2.062 . S
O138 C134 1.255 . S
O139 C119 1.259 . S
O139 Co120 2.021 1_565 S
H140 C131 0.930 . S
H141 C130 0.931 . S
O142 Co118 2.117 1_565 S
O142 C119 1.258 . S
O143 Co118 2.020 . S
O143 C145 1.256 . S
O144 Co120 2.062 . S
O144 C145 1.255 . S
C145 O143 1.256 . S
C145 O144 1.255 . S
H146 C125 0.931 . S
H147 C133 0.931 . S
Co148 N153 2.057 . S
Co148 O165 2.021 . S
Co148 O168 2.062 . S
Co148 O172 2.117 . S
Co148 O173 2.020 . S
C149 O169 1.259 . S
C149 O172 1.258 . S
Co150 N159 2.057 . S
Co150 O166 2.117 . S
Co150 O167 2.020 . S
Co150 O169 2.021 . S
Co150 O174 2.062 . S
C151 N153 1.316 . S
C151 N154 1.347 . S
C151 H156 0.931 . S
C152 N153 1.375 . S
C152 C155 1.350 . S
C152 H157 0.930 . S
N153 Co148 2.057 . S
N153 C151 1.316 . S
N153 C152 1.375 . S
N154 C151 1.347 . S
N154 C155 1.373 . S
C155 C152 1.350 . S
C155 N154 1.373 . S
C155 H176 0.931 . S
H156 C151 0.931 . S
H157 C152 0.930 . S
C158 O165 1.259 . S
C158 O166 1.258 . S
N159 Co150 2.057 . S
N159 C160 1.316 . S
N159 C161 1.375 . S
C160 N159 1.316 . S
C160 N162 1.347 . S
C160 H171 0.931 . S
C161 N159 1.375 . S
C161 C163 1.350 . S
C161 H170 0.930 . S
N162 C160 1.347 . S
N162 C163 1.373 . S
C163 C161 1.350 . S
C163 N162 1.373 . S
C163 H177 0.931 . S
C164 O167 1.256 . S
C164 O168 1.255 . S
O165 Co148 2.021 . S
O165 C158 1.259 . S
O166 Co150 2.117 . S
O166 C158 1.258 . S
O167 Co150 2.020 . S
O167 C164 1.256 . S
O168 Co148 2.062 . S
O168 C164 1.255 . S
O169 C149 1.259 . S
O169 Co150 2.021 . S
H170 C161 0.930 . S
H171 C160 0.931 . S
O172 Co148 2.117 . S
O172 C149 1.258 . S
O173 Co148 2.020 . S
O173 C175 1.256 . S
O174 Co150 2.062 . S
O174 C175 1.255 . S
C175 O173 1.256 . S
C175 O174 1.255 . S
H176 C155 0.931 . S
H177 C163 0.931 . S
Co178 N183 2.057 . S
Co178 O195 2.021 1_556 S
Co178 O198 2.062 1_556 S
Co178 O202 2.117 1_455 S
Co178 O203 2.020 . S
C179 O199 1.259 . S
C179 O202 1.258 1_554 S
Co180 N189 2.057 . S
Co180 O196 2.117 . S
Co180 O197 2.020 . S
Co180 O199 2.021 1_455 S
Co180 O204 2.062 . S
C181 N183 1.316 . S
C181 N184 1.347 . S
C181 H186 0.931 . S
C182 N183 1.375 . S
C182 C185 1.350 . S
C182 H187 0.930 1_455 S
N183 Co178 2.057 . S
N183 C181 1.316 . S
N183 C182 1.375 . S
N184 C181 1.347 . S
N184 C185 1.373 . S
C185 C182 1.350 . S
C185 N184 1.373 . S
C185 H206 0.931 . S
H186 C181 0.931 . S
H187 C182 0.930 1_655 S
C188 O195 1.259 . S
C188 O196 1.258 . S
N189 Co180 2.057 . S
N189 C190 1.316 1_455 S
N189 C191 1.375 . S
C190 N189 1.316 1_655 S
C190 N192 1.347 . S
C190 H201 0.931 . S
C191 N189 1.375 . S
C191 C193 1.350 . S
C191 H200 0.930 . S
N192 C190 1.347 . S
N192 C193 1.373 1_655 S
C193 C191 1.350 . S
C193 N192 1.373 1_455 S
C193 H207 0.931 . S
C194 O197 1.256 . S
C194 O198 1.255 . S
O195 Co178 2.021 1_554 S
O195 C188 1.259 . S
O196 Co180 2.117 . S
O196 C188 1.258 . S
O197 Co180 2.020 . S
O197 C194 1.256 . S
O198 Co178 2.062 1_554 S
O198 C194 1.255 . S
O199 C179 1.259 . S
O199 Co180 2.021 1_655 S
H200 C191 0.930 . S
H201 C190 0.931 . S
O202 Co178 2.117 1_655 S
O202 C179 1.258 1_556 S
O203 Co178 2.020 . S
O203 C205 1.256 1_556 S
O204 Co180 2.062 . S
O204 C205 1.255 . S
C205 O203 1.256 1_554 S
C205 O204 1.255 . S
H206 C185 0.931 . S
H207 C193 0.931 . S
H208 C214 0.930 . S
H209 C218 0.930 . S
H210 C223 0.929 . S
H211 C221 0.903 1_655 S
H212 C216 0.929 . S
H213 C222 0.929 . S
C214 H208 0.930 . S
C214 C215 1.367 . S
C214 C222 1.378 . S
C215 C214 1.367 . S
C215 C223 1.433 . S
C216 H212 0.929 . S
C216 C218 1.378 . S
C216 C220 1.350 . S
C217 C220 1.463 . S
C217 C222 1.350 . S
C217 N225 1.427 . S
C218 H209 0.930 . S
C218 C216 1.378 . S
C218 C219 1.367 . S
C219 C218 1.367 . S
C219 C221 1.433 . S
C220 C216 1.350 . S
C220 C217 1.463 . S
C220 N224 1.427 . S
C221 H211 0.903 1_455 S
C221 C219 1.433 . S
C221 N224 1.384 . S
C222 H213 0.929 . S
C222 C214 1.378 . S
C222 C217 1.350 . S
C223 H210 0.929 . S
C223 C215 1.433 . S
C223 N225 1.384 . S
N224 C220 1.427 . S
N224 C221 1.384 . S
N225 C217 1.427 . S
N225 C223 1.384 . S
H226 C232 0.930 . S
H227 C236 0.930 . S
H228 C241 0.929 . S
H229 C239 0.929 . S
H230 C234 0.922 1_545 S
H231 C240 0.929 . S
C232 H226 0.930 . S
C232 C233 1.367 . S
C232 C240 1.378 . S
C233 C232 1.367 . S
C233 C241 1.433 . S
C234 H230 0.922 1_565 S
C234 C236 1.375 1_565 S
C234 C238 1.360 . S
C235 C238 1.463 . S
C235 C240 1.350 . S
C235 N243 1.427 . S
C236 H227 0.930 . S
C236 C234 1.375 1_545 S
C236 C237 1.367 1_545 S
C237 C236 1.367 1_565 S
C237 C239 1.433 . S
C238 C234 1.360 . S
C238 C235 1.463 . S
C238 N242 1.427 . S
C239 H229 0.929 . S
C239 C237 1.433 . S
C239 N242 1.384 . S
C240 H231 0.929 . S
C240 C232 1.378 . S
C240 C235 1.350 . S
C241 H228 0.929 . S
C241 C233 1.433 . S
C241 N243 1.384 . S
N242 C238 1.427 . S
N242 C239 1.384 . S
N243 C235 1.427 . S
N243 C241 1.384 . S
H244 C250 0.930 . S
H245 C254 0.930 . S
H246 C259 0.929 . S
H247 C257 0.929 . S
H248 C252 0.929 . S
H249 C258 0.929 . S
C250 H244 0.930 . S
C250 C251 1.367 . S
C250 C258 1.378 . S
C251 C250 1.367 . S
C251 C259 1.433 . S
C252 H248 0.929 . S
C252 C254 1.378 . S
C252 C256 1.350 . S
C253 C256 1.463 . S
C253 C258 1.350 . S
C253 N261 1.427 . S
C254 H245 0.930 . S
C254 C252 1.378 . S
C254 C255 1.367 . S
C255 C254 1.367 . S
C255 C257 1.433 . S
C256 C252 1.350 . S
C256 C253 1.463 . S
C256 N260 1.427 . S
C257 H247 0.929 . S
C257 C255 1.433 . S
C257 N260 1.384 . S
C258 H249 0.929 . S
C258 C250 1.378 . S
C258 C253 1.350 . S
C259 H246 0.929 . S
C259 C251 1.433 . S
C259 N261 1.384 . S
N260 C256 1.427 . S
N260 C257 1.384 . S
N261 C253 1.427 . S
N261 C259 1.384 . S
H262 C268 0.930 . S
H263 C272 0.930 1_455 S
H264 C277 0.929 1_455 S
H265 C275 0.929 . S
H266 C270 0.929 1_455 S
H267 C276 0.929 . S
C268 H262 0.930 . S
C268 C269 1.367 . S
C268 C276 1.378 . S
C269 C268 1.367 . S
C269 C277 1.433 . S
C270 H266 0.929 1_655 S
C270 C272 1.378 . S
C270 C274 1.350 . S
C271 C274 1.463 . S
C271 C276 1.350 . S
C271 N279 1.427 . S
C272 H263 0.930 1_655 S
C272 C270 1.378 . S
C272 C273 1.367 . S
C273 C272 1.367 . S
C273 C275 1.433 . S
C274 C270 1.350 . S
C274 C271 1.463 . S
C274 N278 1.427 . S
C275 H265 0.929 . S
C275 C273 1.433 . S
C275 N278 1.384 . S
C276 H267 0.929 . S
C276 C268 1.378 . S
C276 C271 1.350 . S
C277 H264 0.929 1_655 S
C277 C269 1.433 . S
C277 N279 1.384 . S
N278 C274 1.427 . S
N278 C275 1.384 . S
N279 C271 1.427 . S
N279 C277 1.384 . S
H280 C286 0.930 . S
H281 C290 0.930 . S
H282 C295 0.929 . S
H283 C293 0.929 . S
H284 C288 0.929 . S
H285 C294 0.929 . S
C286 H280 0.930 . S
C286 C287 1.367 . S
C286 C294 1.378 . S
C287 C286 1.367 . S
C287 C295 1.433 . S
C288 H284 0.929 . S
C288 C290 1.378 . S
C288 C292 1.350 . S
C289 C292 1.463 . S
C289 C294 1.350 . S
C289 N297 1.427 . S
C290 H281 0.930 . S
C290 C288 1.378 . S
C290 C291 1.367 . S
C291 C290 1.367 . S
C291 C293 1.433 . S
C292 C288 1.350 . S
C292 C289 1.463 . S
C292 N296 1.427 . S
C293 H283 0.929 . S
C293 C291 1.433 . S
C293 N296 1.384 . S
C294 H285 0.929 . S
C294 C286 1.378 . S
C294 C289 1.350 . S
C295 H282 0.929 . S
C295 C287 1.433 . S
C295 N297 1.384 . S
N296 C292 1.427 . S
N296 C293 1.384 . S
N297 C289 1.427 . S
N297 C295 1.384 . S
H298 C304 0.930 1_545 S
H299 C308 0.930 . S
H300 C313 0.929 . S
H301 C311 0.929 . S
H302 C306 0.929 . S
H303 C312 0.929 1_545 S
C304 H298 0.930 1_565 S
C304 C305 1.367 . S
C304 C312 1.378 . S
C305 C304 1.367 . S
C305 C313 1.433 . S
C306 H302 0.929 . S
C306 C308 1.378 . S
C306 C310 1.350 . S
C307 C310 1.463 . S
C307 C312 1.350 . S
C307 N315 1.427 . S
C308 H299 0.930 . S
C308 C306 1.378 . S
C308 C309 1.367 . S
C309 C308 1.367 . S
C309 C311 1.433 1_565 S
C310 C306 1.350 . S
C310 C307 1.463 . S
C310 N314 1.427 1_565 S
C311 H301 0.929 . S
C311 C309 1.433 1_545 S
C311 N314 1.384 . S
C312 H303 0.929 1_565 S
C312 C304 1.378 . S
C312 C307 1.350 . S
C313 H300 0.929 . S
C313 C305 1.433 . S
C313 N315 1.384 . S
N314 C310 1.427 1_545 S
N314 C311 1.384 . S
N315 C307 1.427 . S
N315 C313 1.384 . S
H316 C322 0.930 . S
H317 C326 0.930 . S
H318 C331 0.934 . S
H319 C329 0.929 . S
H320 C324 0.929 . S
H321 C330 0.929 . S
C322 H316 0.930 . S
C322 C323 1.367 . S
C322 C330 1.378 . S
C323 C322 1.367 . S
C323 C331 1.433 . S
C324 H320 0.929 . S
C324 C326 1.378 . S
C324 C328 1.350 1_554 S
C325 C328 1.463 . S
C325 C330 1.350 . S
C325 N333 1.427 . S
C326 H317 0.930 . S
C326 C324 1.378 . S
C326 C327 1.367 1_554 S
C327 C326 1.367 1_556 S
C327 C329 1.433 . S
C328 C324 1.350 1_556 S
C328 C325 1.463 . S
C328 N332 1.427 . S
C329 H319 0.929 . S
C329 C327 1.433 . S
C329 N332 1.384 . S
C330 H321 0.929 . S
C330 C322 1.378 . S
C330 C325 1.350 . S
C331 H318 0.934 . S
C331 C323 1.433 . S
C331 N333 1.384 . S
N332 C328 1.427 . S
N332 C329 1.384 . S
N333 C325 1.427 . S
N333 C331 1.384 . S
H334 C340 0.930 . S
H335 C344 0.930 . S
H336 C349 0.929 . S
H337 C347 0.929 . S
H338 C342 0.929 . S
H339 C348 0.929 . S
C340 H334 0.930 . S
C340 C341 1.367 . S
C340 C348 1.378 . S
C341 C340 1.367 . S
C341 C349 1.433 . S
C342 H338 0.929 . S
C342 C344 1.378 . S
C342 C346 1.350 . S
C343 C346 1.463 . S
C343 C348 1.350 . S
C343 N351 1.427 . S
C344 H335 0.930 . S
C344 C342 1.378 . S
C344 C345 1.367 . S
C345 C344 1.367 . S
C345 C347 1.433 . S
C346 C342 1.350 . S
C346 C343 1.463 . S
C346 N350 1.427 . S
C347 H337 0.929 . S
C347 C345 1.433 . S
C347 N350 1.384 . S
C348 H339 0.929 . S
C348 C340 1.378 . S
C348 C343 1.350 . S
C349 H336 0.929 . S
C349 C341 1.433 . S
C349 N351 1.384 . S
N350 C346 1.427 . S
N350 C347 1.384 . S
N351 C343 1.427 . S
N351 C349 1.384 . S
H352 C358 0.930 . S
H353 C362 0.930 . S
H354 C367 0.929 . S
H355 C365 0.953 . S
H356 C360 0.929 . S
H357 C366 0.929 . S
C358 H352 0.930 . S
C358 C359 1.367 . S
C358 C366 1.378 . S
C359 C358 1.367 . S
C359 C367 1.433 . S
C360 H356 0.929 . S
C360 C362 1.378 . S
C360 C364 1.350 . S
C361 C364 1.463 . S
C361 C366 1.350 . S
C361 N369 1.427 . S
C362 H353 0.930 . S
C362 C360 1.378 . S
C362 C363 1.367 . S
C363 C362 1.367 . S
C363 C365 1.433 . S
C364 C360 1.350 . S
C364 C361 1.463 . S
C364 N368 1.427 . S
C365 H355 0.953 . S
C365 C363 1.433 . S
C365 N368 1.384 . S
C366 H357 0.929 . S
C366 C358 1.378 . S
C366 C361 1.350 . S
C367 H354 0.929 . S
C367 C359 1.433 . S
C367 N369 1.384 . S
N368 C364 1.427 . S
N368 C365 1.384 . S
N369 C361 1.427 . S
N369 C367 1.384 . S
H370 C376 0.930 . S
H371 C380 0.930 . S
H372 C385 0.929 1_554 S
H373 C383 0.929 . S
H374 C378 0.929 . S
H375 C384 0.929 . S
C376 H370 0.930 . S
C376 C377 1.367 . S
C376 C384 1.378 . S
C377 C376 1.367 . S
C377 C385 1.433 . S
C378 H374 0.929 . S
C378 C380 1.378 . S
C378 C382 1.350 1_554 S
C379 C382 1.463 . S
C379 C384 1.350 . S
C379 N387 1.427 1_556 S
C380 H371 0.930 . S
C380 C378 1.378 . S
C380 C381 1.367 . S
C381 C380 1.367 . S
C381 C383 1.433 1_554 S
C382 C378 1.350 1_556 S
C382 C379 1.463 . S
C382 N386 1.427 . S
C383 H373 0.929 . S
C383 C381 1.433 1_556 S
C383 N386 1.384 . S
C384 H375 0.929 . S
C384 C376 1.378 . S
C384 C379 1.350 . S
C385 H372 0.929 1_556 S
C385 C377 1.433 . S
C385 N387 1.384 1_556 S
N386 C382 1.427 . S
N386 C383 1.384 . S
N387 C379 1.427 1_554 S
N387 C385 1.384 1_554 S
H388 C394 0.930 . S
H389 C398 0.930 . S
H390 C403 0.929 . S
H391 C401 0.929 . S
H392 C396 0.929 . S
H393 C402 0.929 . S
C394 H388 0.930 . S
C394 C395 1.367 . S
C394 C402 1.378 . S
C395 C394 1.367 . S
C395 C403 1.433 . S
C396 H392 0.929 . S
C396 C398 1.378 . S
C396 C400 1.350 . S
C397 C400 1.463 . S
C397 C402 1.350 . S
C397 N405 1.427 . S
C398 H389 0.930 . S
C398 C396 1.378 . S
C398 C399 1.367 . S
C399 C398 1.367 . S
C399 C401 1.433 . S
C400 C396 1.350 . S
C400 C397 1.463 . S
C400 N404 1.427 . S
C401 H391 0.929 . S
C401 C399 1.433 . S
C401 N404 1.384 . S
C402 H393 0.929 . S
C402 C394 1.378 . S
C402 C397 1.350 . S
C403 H390 0.929 . S
C403 C395 1.433 . S
C403 N405 1.384 . S
N404 C400 1.427 . S
N404 C401 1.384 . S
N405 C397 1.427 . S
N405 C403 1.384 . S
H406 C412 0.930 . S
H407 C416 0.930 . S
H408 C421 0.929 . S
H409 C419 0.929 . S
H410 C414 0.929 . S
H411 C420 0.929 . S
C412 H406 0.930 . S
C412 C413 1.367 . S
C412 C420 1.378 . S
C413 C412 1.367 . S
C413 C421 1.433 . S
C414 H410 0.929 . S
C414 C416 1.378 . S
C414 C418 1.350 . S
C415 C418 1.463 . S
C415 C420 1.350 . S
C415 N423 1.427 . S
C416 H407 0.930 . S
C416 C414 1.378 . S
C416 C417 1.367 . S
C417 C416 1.367 . S
C417 C419 1.433 . S
C418 C414 1.350 . S
C418 C415 1.463 . S
C418 N422 1.427 . S
C419 H409 0.929 . S
C419 C417 1.433 . S
C419 N422 1.384 . S
C420 H411 0.929 . S
C420 C412 1.378 . S
C420 C415 1.350 . S
C421 H408 0.929 . S
C421 C413 1.433 . S
C421 N423 1.384 . S
N422 C418 1.427 . S
N422 C419 1.384 . S
N423 C415 1.427 . S
N423 C421 1.384 . S
H424 C430 0.930 . S
H425 C434 0.930 . S
H426 C439 0.929 . S
H427 C437 0.929 . S
H428 C432 0.929 . S
H429 C438 0.926 1_445 S
C430 H424 0.930 . S
C430 C431 1.367 . S
C430 C438 1.378 . S
C431 C430 1.367 . S
C431 C439 1.433 . S
C432 H428 0.929 . S
C432 C434 1.378 . S
C432 C436 1.350 . S
C433 C436 1.463 . S
C433 C438 1.350 . S
C433 N441 1.427 . S
C434 H425 0.930 . S
C434 C432 1.378 . S
C434 C435 1.367 . S
C435 C434 1.367 . S
C435 C437 1.433 1_665 S
C436 C432 1.350 . S
C436 C433 1.463 . S
C436 N440 1.427 1_565 S
C437 H427 0.929 . S
C437 C435 1.433 1_445 S
C437 N440 1.384 1_455 S
C438 H429 0.926 1_665 S
C438 C430 1.378 . S
C438 C433 1.350 . S
C439 H426 0.929 . S
C439 C431 1.433 . S
C439 N441 1.384 . S
N440 C436 1.427 1_545 S
N440 C437 1.384 1_655 S
N441 C433 1.427 . S
N441 C439 1.384 . S
H442 C448 0.930 . S
H443 C452 0.930 . S
H444 C457 0.929 . S
H445 C455 0.929 . S
H446 C450 0.929 . S
H447 C456 0.929 . S
C448 H442 0.930 . S
C448 C449 1.367 . S
C448 C456 1.378 . S
C449 C448 1.367 . S
C449 C457 1.433 . S
C450 H446 0.929 . S
C450 C452 1.378 . S
C450 C454 1.350 . S
C451 C454 1.463 . S
C451 C456 1.350 . S
C451 N459 1.427 . S
C452 H443 0.930 . S
C452 C450 1.378 . S
C452 C453 1.367 . S
C453 C452 1.367 . S
C453 C455 1.433 . S
C454 C450 1.350 . S
C454 C451 1.463 . S
C454 N458 1.427 . S
C455 H445 0.929 . S
C455 C453 1.433 . S
C455 N458 1.384 . S
C456 H447 0.929 . S
C456 C448 1.378 . S
C456 C451 1.350 . S
C457 H444 0.929 . S
C457 C449 1.433 . S
C457 N459 1.384 . S
N458 C454 1.427 . S
N458 C455 1.384 . S
N459 C451 1.427 . S
N459 C457 1.384 . S
H460 C466 0.930 . S
H461 C470 0.930 . S
H462 C475 0.929 . S
H463 C473 0.929 . S
H464 C468 0.929 . S
H465 C474 0.929 . S
C466 H460 0.930 . S
C466 C467 1.367 . S
C466 C474 1.378 . S
C467 C466 1.367 . S
C467 C475 1.433 . S
C468 H464 0.929 . S
C468 C470 1.378 . S
C468 C472 1.350 . S
C469 C472 1.463 . S
C469 C474 1.350 . S
C469 N477 1.427 . S
C470 H461 0.930 . S
C470 C468 1.378 . S
C470 C471 1.367 . S
C471 C470 1.367 . S
C471 C473 1.433 . S
C472 C468 1.350 . S
C472 C469 1.463 . S
C472 N476 1.427 . S
C473 H463 0.929 . S
C473 C471 1.433 . S
C473 N476 1.384 . S
C474 H465 0.929 . S
C474 C466 1.378 . S
C474 C469 1.350 . S
C475 H462 0.929 . S
C475 C467 1.433 . S
C475 N477 1.384 . S
N476 C472 1.427 . S
N476 C473 1.384 . S
N477 C469 1.427 . S
N477 C475 1.384 . S
H478 C484 0.930 . S
H479 C488 0.930 . S
H480 C493 0.929 . S
H481 C491 0.929 . S
H482 C486 0.929 . S
H483 C492 0.929 . S
C484 H478 0.930 . S
C484 C485 1.367 . S
C484 C492 1.378 . S
C485 C484 1.367 . S
C485 C493 1.433 . S
C486 H482 0.929 . S
C486 C488 1.378 . S
C486 C490 1.350 . S
C487 C490 1.463 . S
C487 C492 1.350 . S
C487 N495 1.427 . S
C488 H479 0.930 . S
C488 C486 1.378 . S
C488 C489 1.367 . S
C489 C488 1.367 . S
C489 C491 1.433 . S
C490 C486 1.350 . S
C490 C487 1.463 . S
C490 N494 1.427 . S
C491 H481 0.929 . S
C491 C489 1.433 . S
C491 N494 1.384 . S
C492 H483 0.929 . S
C492 C484 1.378 . S
C492 C487 1.350 . S
C493 H480 0.929 . S
C493 C485 1.433 . S
C493 N495 1.384 . S
N494 C490 1.427 . S
N494 C491 1.384 . S
N495 C487 1.427 . S
N495 C493 1.384 . S
H496 C502 0.930 . S
H497 C506 0.930 . S
H498 C511 0.929 . S
H499 C509 0.929 . S
H500 C504 0.929 . S
H501 C510 0.929 . S
C502 H496 0.930 . S
C502 C503 1.367 1_545 S
C502 C510 1.378 . S
C503 C502 1.367 1_565 S
C503 C511 1.433 . S
C504 H500 0.929 . S
C504 C506 1.378 1_556 S
C504 C508 1.350 . S
C505 C508 1.463 . S
C505 C510 1.350 1_565 S
C505 N513 1.427 . S
C506 H497 0.930 . S
C506 C504 1.378 1_554 S
C506 C507 1.367 1_565 S
C507 C506 1.367 1_545 S
C507 C509 1.433 . S
C508 C504 1.350 . S
C508 C505 1.463 . S
C508 N512 1.427 1_566 S
C509 H499 0.929 . S
C509 C507 1.433 . S
C509 N512 1.384 . S
C510 H501 0.929 . S
C510 C502 1.378 . S
C510 C505 1.350 1_545 S
C511 H498 0.929 . S
C511 C503 1.433 . S
C511 N513 1.384 . S
N512 C508 1.427 1_544 S
N512 C509 1.384 . S
N513 C505 1.427 . S
N513 C511 1.384 . S
H514 C520 0.930 . S
H515 C524 0.930 . S
H516 C529 0.929 . S
H517 C527 0.929 . S
H518 C522 0.929 . S
H519 C528 0.929 . S
C520 H514 0.930 . S
C520 C521 1.367 . S
C520 C528 1.378 . S
C521 C520 1.367 . S
C521 C529 1.433 . S
C522 H518 0.929 . S
C522 C524 1.378 . S
C522 C526 1.350 . S
C523 C526 1.463 . S
C523 C528 1.350 . S
C523 N531 1.427 . S
C524 H515 0.930 . S
C524 C522 1.378 . S
C524 C525 1.367 . S
C525 C524 1.367 . S
C525 C527 1.433 . S
C526 C522 1.350 . S
C526 C523 1.463 . S
C526 N530 1.427 . S
C527 H517 0.929 . S
C527 C525 1.433 . S
C527 N530 1.384 . S
C528 H519 0.929 . S
C528 C520 1.378 . S
C528 C523 1.350 . S
C529 H516 0.929 . S
C529 C521 1.433 . S
C529 N531 1.384 . S
N530 C526 1.427 . S
N530 C527 1.384 . S
N531 C523 1.427 . S
N531 C529 1.384 . S
H532 C538 0.930 . S
H533 C542 0.930 . S
H534 C547 0.929 . S
H535 C545 0.929 . S
H536 C540 0.929 . S
H537 C546 0.929 . S
C538 H532 0.930 . S
C538 C539 1.367 . S
C538 C546 1.378 . S
C539 C538 1.367 . S
C539 C547 1.433 . S
C540 H536 0.929 . S
C540 C542 1.378 . S
C540 C544 1.350 . S
C541 C544 1.463 . S
C541 C546 1.350 . S
C541 N549 1.427 . S
C542 H533 0.930 . S
C542 C540 1.378 . S
C542 C543 1.367 . S
C543 C542 1.367 . S
C543 C545 1.433 . S
C544 C540 1.350 . S
C544 C541 1.463 . S
C544 N548 1.427 . S
C545 H535 0.929 . S
C545 C543 1.433 . S
C545 N548 1.384 . S
C546 H537 0.929 . S
C546 C538 1.378 . S
C546 C541 1.350 . S
C547 H534 0.929 . S
C547 C539 1.433 . S
C547 N549 1.384 . S
N548 C544 1.427 . S
N548 C545 1.384 . S
N549 C541 1.427 . S
N549 C547 1.384 . S
H550 C556 0.930 . S
H551 C560 0.930 . S
H552 C565 0.929 . S
H553 C563 0.929 . S
H554 C558 0.929 . S
H555 C564 0.929 . S
C556 H550 0.930 . S
C556 C557 1.367 . S
C556 C564 1.378 . S
C557 C556 1.367 . S
C557 C565 1.433 . S
C558 H554 0.929 . S
C558 C560 1.378 . S
C558 C562 1.350 . S
C559 C562 1.463 . S
C559 C564 1.350 . S
C559 N567 1.427 . S
C560 H551 0.930 . S
C560 C558 1.378 . S
C560 C561 1.367 . S
C561 C560 1.367 . S
C561 C563 1.433 . S
C562 C558 1.350 . S
C562 C559 1.463 . S
C562 N566 1.427 . S
C563 H553 0.929 . S
C563 C561 1.433 . S
C563 N566 1.384 . S
C564 H555 0.929 . S
C564 C556 1.378 . S
C564 C559 1.350 . S
C565 H552 0.929 . S
C565 C557 1.433 . S
C565 N567 1.384 . S
N566 C562 1.427 . S
N566 C563 1.384 . S
N567 C559 1.427 . S
N567 C565 1.384 . S
H568 C574 0.930 . S
H569 C578 0.930 . S
H570 C583 0.929 . S
H571 C581 0.929 . S
H572 C576 0.929 . S
H573 C582 0.929 . S
C574 H568 0.930 . S
C574 C575 1.367 . S
C574 C582 1.378 . S
C575 C574 1.367 . S
C575 C583 1.433 . S
C576 H572 0.929 . S
C576 C578 1.378 . S
C576 C580 1.350 1_455 S
C577 C580 1.463 . S
C577 C582 1.350 . S
C577 N585 1.427 . S
C578 H569 0.930 . S
C578 C576 1.378 . S
C578 C579 1.367 1_455 S
C579 C578 1.367 1_655 S
C579 C581 1.433 . S
C580 C576 1.350 1_655 S
C580 C577 1.463 . S
C580 N584 1.427 . S
C581 H571 0.929 . S
C581 C579 1.433 . S
C581 N584 1.384 . S
C582 H573 0.929 . S
C582 C574 1.378 . S
C582 C577 1.350 . S
C583 H570 0.929 . S
C583 C575 1.433 . S
C583 N585 1.384 . S
N584 C580 1.427 . S
N584 C581 1.384 . S
N585 C577 1.427 . S
N585 C583 1.384 . S
H586 C592 0.930 . S
H587 C596 0.930 . S
H588 C601 0.929 . S
H589 C599 0.929 . S
H590 C594 0.929 . S
H591 C600 0.929 . S
C592 H586 0.930 . S
C592 C593 1.367 . S
C592 C600 1.378 . S
C593 C592 1.367 . S
C593 C601 1.433 . S
C594 H590 0.929 . S
C594 C596 1.378 . S
C594 C598 1.350 . S
C595 C598 1.463 . S
C595 C600 1.350 . S
C595 N603 1.427 . S
C596 H587 0.930 . S
C596 C594 1.378 . S
C596 C597 1.367 . S
C597 C596 1.367 . S
C597 C599 1.433 . S
C598 C594 1.350 . S
C598 C595 1.463 . S
C598 N602 1.427 . S
C599 H589 0.929 . S
C599 C597 1.433 . S
C599 N602 1.384 . S
C600 H591 0.929 . S
C600 C592 1.378 . S
C600 C595 1.350 . S
C601 H588 0.929 . S
C601 C593 1.433 . S
C601 N603 1.384 . S
N602 C598 1.427 . S
N602 C599 1.384 . S
N603 C595 1.427 . S
N603 C601 1.384 . S
H604 C610 0.930 . S
H605 C614 0.930 . S
H606 C619 0.929 . S
H607 C617 0.929 . S
H608 C612 0.929 . S
H609 C618 0.929 . S
C610 H604 0.930 . S
C610 C611 1.367 . S
C610 C618 1.378 . S
C611 C610 1.367 . S
C611 C619 1.433 . S
C612 H608 0.929 . S
C612 C614 1.378 . S
C612 C616 1.350 . S
C613 C616 1.463 . S
C613 C618 1.350 . S
C613 N621 1.427 . S
C614 H605 0.930 . S
C614 C612 1.378 . S
C614 C615 1.367 . S
C615 C614 1.367 . S
C615 C617 1.433 . S
C616 C612 1.350 . S
C616 C613 1.463 . S
C616 N620 1.427 . S
C617 H607 0.929 . S
C617 C615 1.433 . S
C617 N620 1.384 . S
C618 H609 0.929 . S
C618 C610 1.378 . S
C618 C613 1.350 . S
C619 H606 0.929 . S
C619 C611 1.433 . S
C619 N621 1.384 . S
N620 C616 1.427 . S
N620 C617 1.384 . S
N621 C613 1.427 . S
N621 C619 1.384 . S
H622 C628 0.930 . S
H623 C632 0.930 . S
H624 C637 0.929 . S
H625 C635 0.929 . S
H626 C630 0.929 . S
H627 C636 0.929 . S
C628 H622 0.930 . S
C628 C629 1.367 . S
C628 C636 1.378 . S
C629 C628 1.367 . S
C629 C637 1.433 . S
C630 H626 0.929 . S
C630 C632 1.378 . S
C630 C634 1.350 . S
C631 C634 1.463 . S
C631 C636 1.350 . S
C631 N639 1.427 . S
C632 H623 0.930 . S
C632 C630 1.378 . S
C632 C633 1.367 . S
C633 C632 1.367 . S
C633 C635 1.433 . S
C634 C630 1.350 . S
C634 C631 1.463 . S
C634 N638 1.427 . S
C635 H625 0.929 . S
C635 C633 1.433 . S
C635 N638 1.384 . S
C636 H627 0.929 . S
C636 C628 1.378 . S
C636 C631 1.350 . S
C637 H624 0.929 . S
C637 C629 1.433 . S
C637 N639 1.384 . S
N638 C634 1.427 . S
N638 C635 1.384 . S
N639 C631 1.427 . S
N639 C637 1.384 . S
C215 C6 2.295 . S
C219 C104 2.305 . S
C233 C20 1.378 . S
C237 N124 1.368 . S
C255 C158 1.587 . S
C251 N26 1.574 . S
C269 N37 1.146 . S
C273 N192 1.095 . S
C291 C145 2.740 . S
C287 C9 2.727 . S
C309 N102 0.948 1_565 S
C305 N15 0.951 . S
C327 C179 1.830 1_556 S
C323 C31 1.814 . S
C345 N154 0.929 . S
C341 C39 0.934 . S
C359 N4 1.816 . S
C363 C194 1.828 . S
C381 C128 1.764 . S
C377 C28 1.736 . S
C395 C42 1.147 . S
C399 C89 1.160 . S
C413 C17 1.563 . S
C417 C175 1.575 . S
C435 C115 2.429 1_565 S
C431 C50 2.425 . S
C449 C61 1.176 . S
C453 N132 1.155 . S
C467 N70 1.874 . S
C471 C149 1.883 . S
C485 N81 1.004 . S
C489 N184 0.976 . S
C503 N48 2.122 . S
C507 C134 2.141 . S
C525 N94 1.476 . S
C521 C64 1.477 . S
C543 C188 1.862 . S
C539 C75 1.838 . S
C561 N162 0.940 . S
C557 C86 0.934 . S
C575 C53 2.049 . S
C579 C205 2.060 1_656 S
C597 C119 1.415 . S
C593 C72 1.405 . S
C615 C98 1.473 . S
C611 C83 1.472 . S
C629 N59 1.416 . S
C633 C164 1.424 . S
