# Generated by pormake.
# Topology pyr, (3,6)-cn, num edge types: 1
# Building blocks:
#     Node 0, Type 0, BuildingBlock: ESEHIV_clean_linker_0, # of connection points: 3
#     Node 1, Type 0, BuildingBlock: ESEHIV_clean_linker_0, # of connection points: 3
#     Node 2, Type 0, BuildingBlock: ESEHIV_clean_linker_0, # of connection points: 3
#     Node 3, Type 0, BuildingBlock: ESEHIV_clean_linker_0, # of connection points: 3
#     Node 4, Type 0, BuildingBlock: ESEHIV_clean_linker_0, # of connection points: 3
#     Node 5, Type 0, BuildingBlock: ESEHIV_clean_linker_0, # of connection points: 3
#     Node 6, Type 0, BuildingBlock: ESEHIV_clean_linker_0, # of connection points: 3
#     Node 7, Type 0, BuildingBlock: ESEHIV_clean_linker_0, # of connection points: 3
#     Node 8, Type 1, BuildingBlock: JUFBIX_clean_sbu_0, # of connection points: 6
#     Node 9, Type 1, BuildingBlock: JUFBIX_clean_sbu_0, # of connection points: 6
#     Node 10, Type 1, BuildingBlock: JUFBIX_clean_sbu_0, # of connection points: 6
#     Node 11, Type 1, BuildingBlock: JUFBIX_clean_sbu_0, # of connection points: 6
#     Edge 12, Type (0, 1), BuildingBlock: CIFDUS_clean_linker_0, # of connection points: 2
#     Edge 13, Type (0, 1), BuildingBlock: CIFDUS_clean_linker_0, # of connection points: 2
#     Edge 14, Type (0, 1), BuildingBlock: CIFDUS_clean_linker_0, # of connection points: 2
#     Edge 15, Type (0, 1), BuildingBlock: CIFDUS_clean_linker_0, # of connection points: 2
#     Edge 16, Type (0, 1), BuildingBlock: CIFDUS_clean_linker_0, # of connection points: 2
#     Edge 17, Type (0, 1), BuildingBlock: CIFDUS_clean_linker_0, # of connection points: 2
#     Edge 18, Type (0, 1), BuildingBlock: CIFDUS_clean_linker_0, # of connection points: 2
#     Edge 19, Type (0, 1), BuildingBlock: CIFDUS_clean_linker_0, # of connection points: 2
#     Edge 20, Type (0, 1), BuildingBlock: CIFDUS_clean_linker_0, # of connection points: 2
#     Edge 21, Type (0, 1), BuildingBlock: CIFDUS_clean_linker_0, # of connection points: 2
#     Edge 22, Type (0, 1), BuildingBlock: CIFDUS_clean_linker_0, # of connection points: 2
#     Edge 23, Type (0, 1), BuildingBlock: CIFDUS_clean_linker_0, # of connection points: 2
#     Edge 24, Type (0, 1), BuildingBlock: CIFDUS_clean_linker_0, # of connection points: 2
#     Edge 25, Type (0, 1), BuildingBlock: CIFDUS_clean_linker_0, # of connection points: 2
#     Edge 26, Type (0, 1), BuildingBlock: CIFDUS_clean_linker_0, # of connection points: 2
#     Edge 27, Type (0, 1), BuildingBlock: CIFDUS_clean_linker_0, # of connection points: 2
#     Edge 28, Type (0, 1), BuildingBlock: CIFDUS_clean_linker_0, # of connection points: 2
#     Edge 29, Type (0, 1), BuildingBlock: CIFDUS_clean_linker_0, # of connection points: 2
#     Edge 30, Type (0, 1), BuildingBlock: CIFDUS_clean_linker_0, # of connection points: 2
#     Edge 31, Type (0, 1), BuildingBlock: CIFDUS_clean_linker_0, # of connection points: 2
#     Edge 32, Type (0, 1), BuildingBlock: CIFDUS_clean_linker_0, # of connection points: 2
#     Edge 33, Type (0, 1), BuildingBlock: CIFDUS_clean_linker_0, # of connection points: 2
#     Edge 34, Type (0, 1), BuildingBlock: CIFDUS_clean_linker_0, # of connection points: 2
#     Edge 35, Type (0, 1), BuildingBlock: CIFDUS_clean_linker_0, # of connection points: 2
# Relax obj value: 0.083
# Max RMSD: 0.107
# Mean RMSD: 0.038
data_MOF--net-pry--node1-JUFBIX_clean_sbu_0--node2-ESEHIV_clean_linker_0--edge1-CIFDUS_clean_linker_0
_symmetry_space_group_name_H-M    P1
_symmetry_Int_Tables_number       1
_symmetry_cell_setting            triclinic
loop_
_symmetry_equiv_pos_as_xyz
'x, y, z'
_cell_length_a     30.525392
_cell_length_b     28.934754
_cell_length_c     30.598413
_cell_angle_alpha  81.46127
_cell_angle_beta   90.062006
_cell_angle_gamma 91.279289
loop_
_atom_site_label
_atom_site_type_symbol
_atom_site_fract_x
_atom_site_fract_y
_atom_site_fract_z
_atom_type_partial_charge
H0 H 0.15409 0.18908 0.23187 0.0
H1 H 0.25825 0.09203 0.23092 0.0
H2 H 0.2331 0.19243 0.11511 0.0
C3 C 0.18005 0.17493 0.21411 0.0
C4 C 0.18942 0.19491 0.17027 0.0
C5 C 0.20339 0.137 0.23599 0.0
C6 C 0.23984 0.12113 0.21443 0.0
C7 C 0.25122 0.14126 0.17068 0.0
C8 C 0.22528 0.17766 0.14888 0.0
H9 H 0.44577 0.94828 0.67732 0.0
H10 H 0.53767 0.84143 0.6621 0.0
H11 H 0.41741 0.8512 0.58789 0.0
C12 C 0.45666 0.9205 0.65997 0.0
C13 C 0.42772 0.90297 0.63074 0.0
C14 C 0.49606 0.89822 0.67215 0.0
C15 C 0.50834 0.86032 0.65138 0.0
C16 C 0.48043 0.84382 0.62019 0.0
C17 C 0.44028 0.86562 0.60972 0.0
H18 H 0.75316 0.32955 0.92499 0.0
H19 H 0.74932 0.42858 0.80486 0.0
H20 H 0.64073 0.33329 0.84089 0.0
C21 C 0.73582 0.34527 0.89582 0.0
C22 C 0.69481 0.32648 0.88616 0.0
C23 C 0.75539 0.38326 0.86777 0.0
C24 C 0.73414 0.40052 0.82756 0.0
C25 C 0.69322 0.38117 0.81676 0.0
C26 C 0.67339 0.34595 0.84746 0.0
H27 H 0.93157 0.69554 0.49406 0.0
H28 H 0.99946 0.68554 0.37281 0.0
H29 H 0.89385 0.5894 0.41651 0.0
C30 C 0.93756 0.67683 0.46654 0.0
C31 C 0.90879 0.64039 0.45912 0.0
C32 C 0.97083 0.69284 0.43591 0.0
C33 C 0.97578 0.67133 0.39789 0.0
C34 C 0.9479 0.63384 0.39081 0.0
C35 C 0.91602 0.61748 0.42263 0.0
H36 H 0.8293 0.93415 0.83849 0.0
H37 H 0.93236 0.83496 0.86035 0.0
H38 H 0.82105 0.82137 0.94785 0.0
C39 C 0.84274 0.90308 0.85742 0.0
C40 C 0.82041 0.88051 0.89558 0.0
C41 C 0.88339 0.88684 0.84468 0.0
C42 C 0.90099 0.84707 0.86997 0.0
C43 C 0.87879 0.82248 0.9069 0.0
C44 C 0.83874 0.84001 0.91974 0.0
H45 H 0.5649 0.18337 0.40937 0.0
H46 H 0.63237 0.05664 0.45152 0.0
H47 H 0.63258 0.16542 0.53339 0.0
C48 C 0.5824 0.16099 0.4348 0.0
C49 C 0.59641 0.1786 0.47292 0.0
C50 C 0.59531 0.11663 0.42729 0.0
C51 C 0.62137 0.08984 0.4589 0.0
C52 C 0.63802 0.10818 0.49583 0.0
C53 C 0.62204 0.15109 0.50427 0.0
H54 H 0.33847 0.69446 0.10763 0.0
H55 H 0.32835 0.57672 0.21158 0.0
H56 H 0.43122 0.68023 0.21435 0.0
C57 C 0.3508 0.67531 0.13811 0.0
C58 C 0.38737 0.69303 0.15886 0.0
C59 C 0.32937 0.63331 0.15647 0.0
C60 C 0.34423 0.60932 0.19724 0.0
C61 C 0.3813 0.62617 0.21809 0.0
C62 C 0.40231 0.66788 0.19862 0.0
H63 H 1.01217 0.35984 0.64141 0.0
H64 H 0.09999 0.36449 0.53118 0.0
H65 H 0.10956 0.47001 0.61504 0.0
C66 C 0.03669 0.37876 0.61972 0.0
C67 C 0.05888 0.41767 0.63254 0.0
C68 C 0.04947 0.36137 0.58105 0.0
C69 C 0.08596 0.38182 0.55681 0.0
C70 C 0.10846 0.41999 0.57017 0.0
C71 C 0.09149 0.44075 0.60471 0.0
Co72 Co 0.99883 0.01764 0.51614 0.0
C73 C 0.03639 0.92997 0.51661 0.0
Co74 Co 0.0615 0.00794 0.55083 0.0
C75 C 0.90745 0.03118 0.50621 0.0
C76 C 0.93387 1.00229 0.45165 0.0
N77 N 0.94542 0.0203 0.48834 0.0
N78 N 0.87259 0.01944 0.48297 0.0
C79 C 0.88887 1.00152 0.44837 0.0
H80 H 0.90525 0.04439 0.53742 0.0
H81 H 0.95651 0.98798 0.43028 0.0
C82 C 1.02407 0.09561 0.55083 0.0
N83 N 0.11427 1.00432 0.57944 0.0
C84 C 0.15205 0.98735 0.56642 0.0
C85 C 0.12341 0.01897 0.61831 0.0
N86 N 0.18446 0.99063 0.59581 0.0
C87 C 0.16657 0.01058 0.62849 0.0
C88 C 0.06882 0.04307 0.45952 0.0
O89 O 0.99336 0.08011 0.52858 0.0
O90 O 0.05645 0.06997 0.56256 0.0
O91 O 0.09115 0.03075 0.49447 0.0
O92 O 1.02726 0.04069 0.46232 0.0
O93 O 0.06637 0.94533 0.53968 0.0
H94 H 0.10017 0.03483 0.6379 0.0
H95 H 0.15543 0.97219 0.53635 0.0
O96 O 1.00457 0.95588 0.50354 0.0
O97 O 0.96995 0.99413 0.57049 0.0
O98 O 0.03166 0.9854 0.60639 0.0
C99 C 0.98998 0.98246 0.60663 0.0
H100 H 0.86962 0.98783 0.42325 0.0
H101 H 0.18352 0.0189 0.65751 0.0
Co102 Co 0.52569 0.00958 1.01536 0.0
C103 C 0.5175 0.93559 0.08436 0.0
Co104 Co 0.56332 0.02001 0.07418 0.0
C105 C 0.51127 1.0057 0.92462 0.0
C106 C 0.45693 0.97481 0.9636 0.0
N107 N 0.49493 0.999 0.96604 0.0
N108 N 0.48564 0.98575 0.89671 0.0
C109 C 0.45143 0.96605 0.92085 0.0
H110 H 0.54329 0.02121 0.91589 0.0
H111 H 0.43641 0.96137 0.99162 0.0
C112 C 0.57128 0.09341 1.00363 0.0
N113 N 0.59635 0.03084 0.12215 0.0
C114 C 0.58436 0.03139 0.1645 0.0
C115 C 0.63934 0.04279 0.12047 0.0
N116 N 0.61839 0.04301 0.18923 0.0
C117 C 0.65298 0.05013 0.16157 0.0
C118 C 0.61182 0.97635 1.01494 0.0
O119 O 0.54371 0.06854 0.986 0.0
O120 O 0.58436 0.07911 0.04267 0.0
O121 O 0.61211 0.98953 0.05267 0.0
O122 O 0.57706 0.98207 0.99199 0.0
O123 O 0.54204 0.961 0.10525 0.0
H124 H 0.65934 0.047 0.09092 0.0
H125 H 0.55137 0.02369 0.17683 0.0
O126 O 0.50774 0.95026 0.0445 0.0
O127 O 0.47438 0.03701 0.03933 0.0
O128 O 0.5144 0.04981 0.09596 0.0
C129 C 0.47754 0.05232 0.07635 0.0
H130 H 0.42577 0.9447 0.90896 0.0
H131 H 0.68553 0.0614 0.1701 0.0
Co132 Co 0.54177 0.5259 0.51497 0.0
C133 C 0.46749 0.53164 0.46095 0.0
Co134 Co 0.48212 0.49557 0.54899 0.0
C135 C 0.63261 0.54373 0.49561 0.0
C136 C 0.59237 0.59653 0.46054 0.0
N137 N 0.59051 0.5549 0.48702 0.0
N138 N 0.66063 0.57734 0.47665 0.0
C139 C 0.63555 0.61052 0.45421 0.0
H140 H 0.64244 0.51317 0.51799 0.0
H141 H 0.56414 0.6167 0.44889 0.0
C142 C 0.55759 0.4902 0.6024 0.0
N143 N 0.43394 0.46524 0.57751 0.0
C144 C 0.39071 0.47257 0.57102 0.0
C145 C 0.4359 0.42561 0.6068 0.0
N146 N 0.36581 0.43901 0.59527 0.0
C147 C 0.39427 0.40957 0.61784 0.0
C148 C 0.52977 0.434 0.50703 0.0
O149 O 0.57483 0.51273 0.56788 0.0
O150 O 0.51739 0.47786 0.60155 0.0
O151 O 0.49546 0.43981 0.52855 0.0
O152 O 0.55749 0.46753 0.49814 0.0
O153 O 0.44807 0.51345 0.49637 0.0
H154 H 0.46573 0.40817 0.61799 0.0
H155 H 0.37781 0.50138 0.54841 0.0
O156 O 0.50864 0.53939 0.46188 0.0
O157 O 0.52568 0.58355 0.53209 0.0
O158 O 0.46822 0.55199 0.56909 0.0
C159 C 0.49271 0.58755 0.55646 0.0
H160 H 0.64751 0.64324 0.43586 0.0
H161 H 0.3857 0.37753 0.63941 0.0
Co162 Co 0.05639 0.50655 0.98928 0.0
C163 C 0.97014 0.46821 0.98992 0.0
Co164 Co 1.02114 0.50359 0.05232 0.0
C165 C 0.07451 0.48379 0.90256 0.0
C166 C 0.11622 0.5395 0.91822 0.0
N167 N 0.08388 0.50949 0.93496 0.0
N168 N 0.0997 0.49656 0.86653 0.0
C169 C 0.12624 0.53136 0.87626 0.0
H170 H 0.04985 0.45606 0.90521 0.0
H171 H 0.13108 0.56623 0.93499 0.0
C172 C 0.10622 0.54183 0.05393 0.0
N173 N 0.99382 0.50142 0.1065 0.0
C174 C 1.00159 0.53086 0.13606 0.0
C175 C 0.96411 0.46985 0.12628 0.0
N176 N 0.97838 0.51879 0.17342 0.0
C177 C 0.95428 0.48072 0.16748 0.0
C178 C 0.07241 0.42515 0.04637 0.0
O179 O 0.10799 0.53485 1.01382 0.0
O180 O 0.07092 0.53144 0.07509 0.0
O181 O 0.04595 0.44262 0.07141 0.0
O182 O 0.08032 0.44702 1.00793 0.0
O183 O 0.97136 0.47558 0.02974 0.0
H184 H 0.95109 0.44036 0.11207 0.0
H185 H 1.02388 0.56077 0.13048 0.0
O186 O 1.00412 0.47832 0.96595 0.0
O187 O 0.03295 0.56598 0.97059 0.0
O188 O 0.99664 0.56474 0.03243 0.0
C189 C 1.0063 0.58528 0.99372 0.0
H190 H 0.15036 0.55029 0.85416 0.0
H191 H 0.93222 0.46149 0.19166 0.0
H192 H 0.11926 0.11542 0.26038 0.0
H193 H 0.25069 0.10604 0.31194 0.0
H194 H 0.22155 0.0753 0.38578 0.0
H195 H 0.1573 0.05456 0.43675 0.0
H196 H 1.02685 0.06766 0.38182 0.0
H197 H 0.05706 0.09415 0.30907 0.0
C198 C 0.14175 0.10694 0.28773 0.0
C199 C 0.18719 0.11379 0.28046 0.0
C200 C 0.12477 0.09027 0.32996 0.0
C201 C 0.2156 0.10118 0.31632 0.0
C202 C 0.19885 0.08391 0.3587 0.0
C203 C 0.13556 0.06325 0.40886 0.0
C204 C 0.08961 0.05921 0.41538 0.0
C205 C 0.1533 0.0789 0.36616 0.0
C206 C 0.06217 0.07047 0.37845 0.0
C207 C 0.07942 0.08563 0.33649 0.0
H208 H 0.51838 0.98205 0.69673 0.0
H209 H 0.51532 0.83379 0.74303 0.0
H210 H 0.51541 0.84853 0.81937 0.0
H211 H 0.50028 0.90319 0.8718 0.0
H212 H 0.50046 0.05106 0.82622 0.0
H213 H 0.51635 0.03731 0.75051 0.0
C214 C 0.51943 0.9531 0.72365 0.0
C215 C 0.51601 0.90699 0.71433 0.0
C216 C 0.51692 0.96184 0.76741 0.0
C217 C 0.51798 0.86963 0.74929 0.0
C218 C 0.51706 0.87802 0.79301 0.0
C219 C 0.50418 0.93214 0.84509 0.0
C220 C 0.49796 0.97784 0.85347 0.0
C221 C 0.51368 0.92383 0.80222 0.0
C222 C 0.5043 0.01563 0.81961 0.0
C223 C 0.51358 0.00772 0.77668 0.0
H224 H 0.68352 0.46966 0.76904 0.0
H225 H 0.65153 0.324 0.76623 0.0
H226 H 0.60459 0.34482 0.70259 0.0
H227 H 0.57009 0.40418 0.6484 0.0
H228 H 0.60751 0.54901 0.64438 0.0
H229 H 0.65439 0.52903 0.70943 0.0
C230 C 0.66682 0.44248 0.75411 0.0
C231 C 0.67029 0.39535 0.77357 0.0
C232 C 0.64019 0.4546 0.71639 0.0
C233 C 0.64853 0.3607 0.75317 0.0
C234 C 0.62164 0.37248 0.71651 0.0
C235 C 0.58831 0.43128 0.66209 0.0
C236 C 0.58469 0.47802 0.64244 0.0
C237 C 0.61651 0.4193 0.6983 0.0
C238 C 0.60942 0.51279 0.65949 0.0
C239 C 0.63635 0.50135 0.69655 0.0
H240 H 1.01777 0.61283 0.34166 0.0
H241 H 0.87633 0.61459 0.34294 0.0
H242 H 0.87339 0.5772 0.27704 0.0
H243 H 0.91054 0.54213 0.21956 0.0
H244 H 0.05134 0.54606 0.213 0.0
H245 H 0.05522 0.58342 0.27991 0.0
C246 C 0.98641 0.60543 0.32722 0.0
C247 C 0.94741 0.61514 0.34813 0.0
C248 C 0.98481 0.58481 0.28839 0.0
C249 C 0.90693 0.60584 0.32862 0.0
C250 C 0.9051 0.58476 0.29065 0.0
C251 C 0.94192 0.55114 0.23307 0.0
C252 C 0.98052 0.54113 0.21215 0.0
C253 C 0.94374 0.57349 0.27063 0.0
C254 C 1.02123 0.5536 0.22898 0.0
C255 C 1.02341 0.57484 0.26711 0.0
H256 H 0.33464 0.12314 0.2013 0.0
H257 H 0.25371 0.11987 0.08628 0.0
H258 H 0.31545 0.09274 0.0467 0.0
H259 H 0.39331 0.06942 0.04444 0.0
H260 H 0.47417 0.07561 0.15937 0.0
H261 H 0.41231 0.10175 0.19856 0.0
C262 C 0.33041 0.11622 0.16766 0.0
C263 C 0.28927 0.12361 0.14703 0.0
C264 C 0.36643 0.10114 0.1447 0.0
C265 C 0.28487 0.11495 0.10308 0.0
C266 C 0.32028 0.09925 0.08036 0.0
C267 C 0.39747 0.07665 0.07798 0.0
C268 C 0.43885 0.07037 0.09856 0.0
C269 C 0.36139 0.09227 0.10071 0.0
C270 C 0.44314 0.08009 0.14222 0.0
C271 C 0.40755 0.09502 0.16495 0.0
H272 H 0.37597 0.93049 0.55897 0.0
H273 H 0.37604 0.90571 0.70158 0.0
H274 H 0.3005 0.93025 0.70317 0.0
H275 H 0.2349 0.9592 0.66468 0.0
H276 H 0.23275 0.98544 0.52233 0.0
H277 H 0.3083 0.95909 0.51981 0.0
C278 C 0.35922 0.93052 0.5902 0.0
C279 C 0.38161 0.91732 0.63004 0.0
C280 C 0.31552 0.9447 0.59095 0.0
C281 C 0.35969 0.91693 0.67048 0.0
C282 C 0.31646 0.93064 0.67147 0.0
C283 C 0.25109 0.95968 0.6331 0.0
C284 C 0.22851 0.97461 0.59385 0.0
C285 C 0.29425 0.94495 0.63199 0.0
C286 C 0.24948 0.97382 0.55307 0.0
C287 C 0.29269 0.95899 0.55162 0.0
H288 H 0.77893 0.39806 0.95025 0.0
H289 H 0.82822 0.41453 0.8167 0.0
H290 H 0.89929 0.44182 0.84203 0.0
H291 H 0.94844 0.4589 0.90347 0.0
H292 H 0.89696 0.43819 0.03665 0.0
H293 H 0.82665 0.41343 1.01016 0.0
C294 C 0.80524 0.4071 0.92651 0.0
C295 C 0.79803 0.4036 0.88159 0.0
C296 C 0.84612 0.4216 0.94142 0.0
C297 C 0.83244 0.41702 0.85142 0.0
C298 C 0.87333 0.43225 0.866 0.0
C299 C 0.92191 0.44864 0.92667 0.0
C300 C 0.92842 0.45045 0.97217 0.0
C301 C 0.88077 0.43424 0.91113 0.0
C302 C 0.89335 0.43727 1.00156 0.0
C303 C 0.85284 0.42315 0.98644 0.0
H304 H 0.86371 0.55859 0.48621 0.0
H305 H 0.85513 0.70822 0.47959 0.0
H306 H 0.7762 0.70086 0.48934 0.0
H307 H 0.70883 0.65405 0.4851 0.0
H308 H 0.71632 0.5055 0.48534 0.0
H309 H 0.79621 0.51029 0.49162 0.0
C310 C 0.84461 0.58945 0.48789 0.0
C311 C 0.86532 0.6339 0.4812 0.0
C312 C 0.79882 0.58534 0.49071 0.0
C313 C 0.84032 0.67348 0.4847 0.0
C314 C 0.79492 0.66945 0.48941 0.0
C315 C 0.72805 0.6228 0.48656 0.0
C316 C 0.70709 0.57971 0.48358 0.0
C317 C 0.77374 0.62595 0.48982 0.0
C318 C 0.732 0.53911 0.4871 0.0
C319 C 0.77756 0.54185 0.49073 0.0
H320 H 0.21217 0.27017 0.10678 0.0
H321 H 0.10085 0.20598 0.18136 0.0
H322 H 0.05579 0.27126 0.15177 0.0
H323 H 0.04751 0.34847 0.10588 0.0
H324 H 0.15587 0.40781 1.02454 0.0
H325 H 0.20162 0.34258 0.05468 0.0
C326 C 0.17793 0.26979 0.11615 0.0
C327 C 0.1609 0.23322 0.14767 0.0
C328 C 0.15121 0.30695 0.09761 0.0
C329 C 0.11604 0.23416 0.15885 0.0
C330 C 0.08977 0.27145 0.14149 0.0
C331 C 0.08104 0.34688 0.09461 0.0
C332 C 0.09819 0.38313 0.06312 0.0
C333 C 0.10706 0.30844 0.11128 0.0
C334 C 0.14166 0.38029 0.04856 0.0
C335 C 0.168 0.34302 0.06594 0.0
H336 H 0.64671 0.25447 0.86116 0.0
H337 H 0.69764 0.30543 0.97724 0.0
H338 H 0.66471 0.23774 1.02403 0.0
H339 H 0.62047 0.16391 0.03193 0.0
H340 H 0.56547 0.11833 0.91493 0.0
H341 H 0.59972 0.18498 0.86897 0.0
C342 C 0.65 0.25161 0.89673 0.0
C343 C 0.67461 0.2855 0.91537 0.0
C344 C 0.62988 0.21354 0.9235 0.0
C345 C 0.67946 0.2798 0.96165 0.0
C346 C 0.66028 0.24122 0.98856 0.0
C347 C 0.61582 0.1688 0.99642 0.0
C348 C 0.59036 0.13608 0.97703 0.0
C349 C 0.63531 0.20784 0.96984 0.0
C350 C 0.5846 0.14299 0.93091 0.0
C351 C 0.60437 0.18105 0.90444 0.0
H352 H 1.01657 0.71577 0.50621 0.0
H353 H 0.97364 0.77082 0.37485 0.0
H354 H 0.99434 0.84987 0.38705 0.0
H355 H 1.01462 0.90393 0.43869 0.0
H356 H 0.05965 0.84996 0.56944 0.0
H357 H 0.0485 0.76969 0.554 0.0
C358 C 1.01292 0.74506 0.47998 0.0
C359 C 0.99351 0.73772 0.4398 0.0
C360 C 1.02457 0.79048 0.4874 0.0
C361 C 0.98889 0.77568 0.40588 0.0
C362 C 1.00026 0.8209 0.41302 0.0
C363 C 1.02266 0.87448 0.46346 0.0
C364 C 0.03721 0.88239 0.50529 0.0
C365 C 1.01655 0.82881 0.45417 0.0
C366 C 0.04828 0.84437 0.53705 0.0
C367 C 0.04171 0.79861 0.52828 0.0
H368 H 0.42645 0.76834 0.62519 0.0
H369 H 0.5552 0.81927 0.58134 0.0
H370 H 0.57019 0.74416 0.55689 0.0
H371 H 0.54648 0.66422 0.54871 0.0
H372 H 0.41829 0.61294 0.5951 0.0
H373 H 0.40305 0.68843 0.61773 0.0
C374 C 0.45758 0.76311 0.60976 0.0
C375 C 0.48952 0.79922 0.60436 0.0
C376 C 0.466 0.71994 0.59646 0.0
C377 C 0.53017 0.79183 0.58552 0.0
C378 C 0.53865 0.74904 0.57159 0.0
C379 C 0.51514 0.6696 0.56364 0.0
C380 C 0.48348 0.63312 0.57011 0.0
C381 C 0.5068 0.71286 0.57698 0.0
C382 C 0.4432 0.64046 0.58984 0.0
C383 C 0.43445 0.6836 0.60272 0.0
H384 H 0.85307 0.91383 0.76047 0.0
H385 H 0.97033 0.91151 0.83929 0.0
H386 H 1.01377 0.94039 0.77349 0.0
H387 H 1.01936 0.96351 0.69252 0.0
H388 H 0.90178 0.96583 0.61383 0.0
H389 H 0.85819 0.94004 0.67994 0.0
C390 C 0.88799 0.92038 0.76332 0.0
C391 C 0.90828 0.91026 0.80492 0.0
C392 C 0.91308 0.9366 0.72503 0.0
C393 C 0.95379 0.91855 0.80774 0.0
C394 C 0.97876 0.93505 0.77003 0.0
C395 C 0.98423 0.95834 0.68981 0.0
C396 C 0.96421 0.96643 0.6479 0.0
C397 C 0.95895 0.94354 0.7283 0.0
C398 C 0.91842 0.95981 0.64539 0.0
C399 C 0.89325 0.94507 0.68333 0.0
H400 H 0.65694 0.07963 0.38071 0.0
H401 H 0.52243 0.12293 0.37344 0.0
H402 H 0.51665 0.10162 0.29882 0.0
H403 H 0.55153 0.07299 0.23492 0.0
H404 H 0.68533 0.02761 0.24611 0.0
H405 H 0.68923 0.04615 0.32101 0.0
C406 C 0.62579 0.08322 0.36357 0.0
C407 C 0.58987 0.10199 0.38303 0.0
C408 C 0.62267 0.07051 0.32144 0.0
C409 C 0.55052 0.10838 0.35922 0.0
C410 C 0.5472 0.09607 0.3167 0.0
C411 C 0.58119 0.06646 0.25412 0.0
C412 C 0.6183 0.04945 0.23488 0.0
C413 C 0.58324 0.07732 0.29738 0.0
C414 C 0.65668 0.0415 0.25992 0.0
C415 C 0.6589 0.05196 0.30275 0.0
H416 H 0.34194 0.5963 0.29853 0.0
H417 H 0.46509 0.59863 0.22923 0.0
H418 H 0.50216 0.56844 0.29781 0.0
H419 H 0.50112 0.54721 0.37806 0.0
H420 H 0.37883 0.54297 0.44907 0.0
H421 H 0.33998 0.56781 0.3796 0.0
C422 C 0.37667 0.58922 0.29847 0.0
C423 C 0.40081 0.60006 0.25888 0.0
C424 C 0.39809 0.57216 0.33845 0.0
C425 C 0.44588 0.59097 0.25931 0.0
C426 C 0.46716 0.57385 0.29854 0.0
C427 C 0.46592 0.55153 0.37843 0.0
C428 C 0.44306 0.54382 0.41885 0.0
C429 C 0.44386 0.56543 0.33845 0.0
C430 C 0.39732 0.54889 0.41848 0.0
C431 C 0.37508 0.56314 0.37872 0.0
H432 H 0.12747 0.42752 0.68559 0.0
H433 H 0.98624 0.42847 0.68393 0.0
H434 H 0.9862 0.44988 0.75891 0.0
H435 H 1.02758 0.4737 0.82265 0.0
H436 H 0.16878 0.47771 0.81897 0.0
H437 H 0.16781 0.44976 0.74749 0.0
C438 C 0.09652 0.43301 0.70121 0.0
C439 C 0.05689 0.42778 0.67872 0.0
C440 C 0.09696 0.44642 0.74316 0.0
C441 C 1.01715 0.43291 0.70037 0.0
C442 C 1.01721 0.44528 0.74307 0.0
C443 C 0.05796 0.46793 0.80617 0.0
C444 C 0.0983 0.47777 0.8257 0.0
C445 C 0.05703 0.45292 0.76447 0.0
C446 C 0.13755 0.47073 0.80416 0.0
C447 C 0.13695 0.45468 0.7635 0.0
H448 H 0.79531 0.88927 0.97978 0.0
H449 H 0.75001 0.91406 0.84502 0.0
H450 H 0.68127 0.94426 0.86942 0.0
H451 H 0.63362 0.96447 0.92958 0.0
H452 H 0.68127 0.9413 0.06373 0.0
H453 H 0.74854 0.90936 0.03916 0.0
C454 C 0.77031 0.90088 0.95568 0.0
C455 C 0.77815 0.89912 0.91051 0.0
C456 C 0.73087 0.91857 0.96994 0.0
C457 C 0.74535 0.91526 0.87991 0.0
C458 C 0.7058 0.93237 0.89391 0.0
C459 C 0.65862 0.95216 0.95344 0.0
C460 C 0.65197 0.95531 0.99862 0.0
C461 C 0.6981 0.93431 0.93891 0.0
C462 C 0.68516 0.93952 0.02884 0.0
C463 C 0.72385 0.92117 1.0148 0.0
H464 H 0.66981 0.01828 0.50459 0.0
H465 H 0.70328 0.15638 0.53488 0.0
H466 H 0.77913 0.13631 0.5409 0.0
H467 H 0.83788 0.08859 0.51904 0.0
H468 H 0.80661 0.95783 0.47374 0.0
H469 H 0.72871 0.96755 0.48841 0.0
C470 C 0.69345 0.04445 0.51204 0.0
C471 C 0.67993 0.08983 0.51654 0.0
C472 C 0.73817 0.0348 0.51066 0.0
C473 C 0.71138 0.12128 0.53026 0.0
C474 C 0.75555 0.11026 0.53292 0.0
C475 C 0.81399 0.06193 0.51314 0.0
C476 C 0.8275 0.02307 0.49467 0.0
C477 C 0.76947 0.06861 0.52008 0.0
C478 C 0.79652 0.98861 0.48698 0.0
C479 C 0.75218 0.99398 0.49575 0.0
H480 H 0.2477 0.60438 0.1869 0.0
H481 H 0.32812 0.62105 0.06978 0.0
H482 H 0.26698 0.59484 1.0271 0.0
H483 H 0.18957 0.56784 1.02266 0.0
H484 H 0.10932 0.55405 0.14026 0.0
H485 H 0.17075 0.57842 0.1824 0.0
C486 C 0.25189 0.60183 0.15215 0.0
C487 C 0.29246 0.61456 0.13166 0.0
C488 C 0.21627 0.58751 0.12752 0.0
C489 C 0.29716 0.61165 0.08636 0.0
C490 C 0.26217 0.59666 0.06189 0.0
C491 C 0.18551 0.57036 0.05742 0.0
C492 C 0.14453 0.55907 0.07788 0.0
C493 C 0.22134 0.58477 0.08198 0.0
C494 C 0.14017 0.56255 0.12318 0.0
C495 C 0.17548 0.57641 0.14763 0.0
H496 H 0.16784 0.38912 0.62914 0.0
H497 H 0.15529 0.46247 0.4968 0.0
H498 H 0.23554 0.47553 0.49265 0.0
H499 H 0.30883 0.4673 0.52888 0.0
H500 H 0.31694 0.39789 0.66363 0.0
H501 H 0.23842 0.38267 0.66506 0.0
C502 C 0.18277 0.40798 0.59933 0.0
C503 C 0.15623 0.42509 0.56341 0.0
C504 C 0.22788 0.41636 0.59796 0.0
C505 C 0.17548 0.44898 0.52473 0.0
C506 C 0.22111 0.45665 0.52261 0.0
C507 C 0.29325 0.44932 0.55861 0.0
C508 C 0.31885 0.43335 0.59602 0.0
C509 C 0.2476 0.44097 0.55938 0.0
C510 C 0.29823 0.40973 0.63419 0.0
C511 C 0.25331 0.40112 0.63511 0.0
H512 H 0.92337 0.75594 0.87175 0.0
H513 H 0.8768 0.78828 0.99659 0.0
H514 H 0.91068 0.7176 0.03488 0.0
H515 H 0.95624 0.64704 0.03294 0.0
H516 H 1.00647 0.62132 0.90697 0.0
H517 H 0.96984 0.6895 0.86984 0.0
C518 C 0.92113 0.74838 0.90746 0.0
C519 C 0.89778 0.77828 0.93098 0.0
C520 C 0.9419 0.70868 0.92939 0.0
C521 C 0.89414 0.76611 0.97722 0.0
C522 C 0.91392 0.72576 0.99929 0.0
C523 C 0.95927 0.65655 0.99743 0.0
C524 C 0.98445 0.6288 0.97306 0.0
C525 C 0.9383 0.69685 0.97576 0.0
C526 C 0.98782 0.64184 0.92694 0.0
C527 C 0.96663 0.68091 0.90542 0.0
H528 H 0.42714 0.76067 0.20053 0.0
H529 H 0.40182 0.72406 0.07078 0.0
H530 H 0.44003 0.79511 0.03705 0.0
H531 H 0.48049 0.86751 0.04388 0.0
H532 H 0.51021 0.90265 0.17303 0.0
H533 H 0.47179 0.83119 0.2075 0.0
C534 C 0.43043 0.76769 0.16489 0.0
C535 C 0.41102 0.73679 0.13842 0.0
C536 C 0.45368 0.80814 0.14555 0.0
C537 C 0.41525 0.7474 0.09219 0.0
C538 C 0.43761 0.78789 0.07277 0.0
C539 C 0.47883 0.85949 0.07963 0.0
C540 C 0.4981 0.89049 0.10586 0.0
C541 C 0.45685 0.81848 0.09909 0.0
C542 C 0.49587 0.87931 0.15209 0.0
C543 C 0.47366 0.83859 0.17177 0.0
H544 H 0.05148 0.2791 0.63484 0.0
H545 H 1.01189 0.34175 0.50475 0.0
H546 H 0.99497 0.26411 0.48501 0.0
H547 H 0.999 0.17783 0.50274 0.0
H548 H 0.04663 0.11686 0.63061 0.0
H549 H 0.05241 0.194 0.65358 0.0
C550 C 0.03805 0.27567 0.60259 0.0
C551 C 0.03225 0.31578 0.57145 0.0
C552 C 0.03034 0.23109 0.59101 0.0
C553 C 1.01609 0.31111 0.5293 0.0
C554 C 1.0067 0.26681 0.51799 0.0
C555 C 1.00989 0.18163 0.5358 0.0
C556 C 1.02241 0.142 0.565 0.0
C557 C 1.01477 0.22643 0.54823 0.0
C558 C 0.03708 0.14709 0.60757 0.0
C559 C 0.04038 0.19112 0.62072 0.0
H560 H 0.52137 0.22746 0.4668 0.0
H561 H 0.66071 0.24117 0.48596 0.0
H562 H 0.65332 0.32339 0.49382 0.0
H563 H 0.60652 0.39033 0.49959 0.0
H564 H 0.46668 0.37504 0.48472 0.0
H565 H 0.47489 0.29506 0.47011 0.0
C566 C 0.54998 0.24869 0.47247 0.0
C567 C 0.59128 0.22846 0.47648 0.0
C568 C 0.54543 0.2957 0.47756 0.0
C569 C 0.62837 0.25605 0.48367 0.0
C570 C 0.62426 0.30304 0.48789 0.0
C571 C 0.57808 0.36958 0.49245 0.0
C572 C 0.53619 0.38819 0.49323 0.0
C573 C 0.58287 0.32312 0.48549 0.0
C574 C 0.49932 0.36107 0.48449 0.0
C575 C 0.50392 0.31538 0.47623 0.0
loop_
_geom_bond_atom_site_label_1
_geom_bond_atom_site_label_2
_geom_bond_distance
_geom_bond_site_symmetry_2
_ccdc_geom_bond_type
H0 C3 0.931 . S
H1 C6 0.928 . S
H2 C8 0.930 . S
C3 H0 0.931 . S
C3 C4 1.413 . S
C3 C5 1.360 . S
C4 C3 1.413 . S
C4 C8 1.429 . S
C5 C3 1.360 . S
C5 C6 1.372 . S
C6 H1 0.928 . S
C6 C5 1.372 . S
C6 C7 1.404 . S
C7 C6 1.404 . S
C7 C8 1.391 . S
C8 H2 0.930 . S
C8 C4 1.429 . S
C8 C7 1.391 . S
H9 C12 0.931 . S
H10 C15 0.928 . S
H11 C17 0.930 . S
C12 H9 0.931 . S
C12 C13 1.413 . S
C12 C14 1.360 . S
C13 C12 1.413 . S
C13 C17 1.429 . S
C14 C12 1.360 . S
C14 C15 1.372 . S
C15 H10 0.928 . S
C15 C14 1.372 . S
C15 C16 1.404 . S
C16 C15 1.404 . S
C16 C17 1.391 . S
C17 H11 0.930 . S
C17 C13 1.429 . S
C17 C16 1.391 . S
H18 C21 0.931 . S
H19 C24 0.928 . S
H20 C26 0.930 . S
C21 H18 0.931 . S
C21 C22 1.413 . S
C21 C23 1.360 . S
C22 C21 1.413 . S
C22 C26 1.429 . S
C23 C21 1.360 . S
C23 C24 1.372 . S
C24 H19 0.928 . S
C24 C23 1.372 . S
C24 C25 1.404 . S
C25 C24 1.404 . S
C25 C26 1.391 . S
C26 H20 0.930 . S
C26 C22 1.429 . S
C26 C25 1.391 . S
H27 C30 0.931 . S
H28 C33 0.928 . S
H29 C35 0.930 . S
C30 H27 0.931 . S
C30 C31 1.413 . S
C30 C32 1.360 . S
C31 C30 1.413 . S
C31 C35 1.429 . S
C32 C30 1.360 . S
C32 C33 1.372 . S
C33 H28 0.928 . S
C33 C32 1.372 . S
C33 C34 1.404 . S
C34 C33 1.404 . S
C34 C35 1.391 . S
C35 H29 0.930 . S
C35 C31 1.429 . S
C35 C34 1.391 . S
H36 C39 0.931 . S
H37 C42 0.928 . S
H38 C44 0.930 . S
C39 H36 0.931 . S
C39 C40 1.413 . S
C39 C41 1.360 . S
C40 C39 1.413 . S
C40 C44 1.429 . S
C41 C39 1.360 . S
C41 C42 1.372 . S
C42 H37 0.928 . S
C42 C41 1.372 . S
C42 C43 1.404 . S
C43 C42 1.404 . S
C43 C44 1.391 . S
C44 H38 0.930 . S
C44 C40 1.429 . S
C44 C43 1.391 . S
H45 C48 0.931 . S
H46 C51 0.928 . S
H47 C53 0.930 . S
C48 H45 0.931 . S
C48 C49 1.413 . S
C48 C50 1.360 . S
C49 C48 1.413 . S
C49 C53 1.429 . S
C50 C48 1.360 . S
C50 C51 1.372 . S
C51 H46 0.928 . S
C51 C50 1.372 . S
C51 C52 1.404 . S
C52 C51 1.404 . S
C52 C53 1.391 . S
C53 H47 0.930 . S
C53 C49 1.429 . S
C53 C52 1.391 . S
H54 C57 0.931 . S
H55 C60 0.928 . S
H56 C62 0.930 . S
C57 H54 0.931 . S
C57 C58 1.413 . S
C57 C59 1.360 . S
C58 C57 1.413 . S
C58 C62 1.429 . S
C59 C57 1.360 . S
C59 C60 1.372 . S
C60 H55 0.928 . S
C60 C59 1.372 . S
C60 C61 1.404 . S
C61 C60 1.404 . S
C61 C62 1.391 . S
C62 H56 0.930 . S
C62 C58 1.429 . S
C62 C61 1.391 . S
H63 C66 0.931 . S
H64 C69 0.928 . S
H65 C71 0.930 . S
C66 H63 0.931 . S
C66 C67 1.413 . S
C66 C68 1.360 . S
C67 C66 1.413 . S
C67 C71 1.429 . S
C68 C66 1.360 . S
C68 C69 1.372 . S
C69 H64 0.928 . S
C69 C68 1.372 . S
C69 C70 1.404 . S
C70 C69 1.404 . S
C70 C71 1.391 . S
C71 H65 0.930 . S
C71 C67 1.429 . S
C71 C70 1.391 . S
Co72 N77 2.057 . S
Co72 O89 2.021 . S
Co72 O92 2.062 . S
Co72 O96 2.117 1_545 S
Co72 O97 2.020 1_545 S
C73 O93 1.259 1_655 S
C73 O96 1.258 . S
Co74 N83 2.057 . S
Co74 O90 2.117 1_565 S
Co74 O91 2.020 1_565 S
Co74 O93 2.021 . S
Co74 O98 2.062 . S
C75 N77 1.316 . S
C75 N78 1.347 . S
C75 H80 0.931 . S
C76 N77 1.375 1_565 S
C76 C79 1.350 1_565 S
C76 H81 0.930 . S
N77 Co72 2.057 . S
N77 C75 1.316 . S
N77 C76 1.375 1_545 S
N78 C75 1.347 . S
N78 C79 1.373 . S
C79 C76 1.350 1_545 S
C79 N78 1.373 . S
C79 H100 0.931 . S
H80 C75 0.931 . S
H81 C76 0.930 . S
C82 O89 1.259 1_455 S
C82 O90 1.258 . S
N83 Co74 2.057 . S
N83 C84 1.316 . S
N83 C85 1.375 1_565 S
C84 N83 1.316 . S
C84 N86 1.347 . S
C84 H95 0.931 . S
C85 N83 1.375 1_545 S
C85 C87 1.350 1_545 S
C85 H94 0.930 . S
N86 C84 1.347 . S
N86 C87 1.373 . S
C87 C85 1.350 1_565 S
C87 N86 1.373 . S
C87 H101 0.931 1_565 S
C88 O91 1.256 . S
C88 O92 1.255 1_455 S
O89 Co72 2.021 . S
O89 C82 1.259 1_655 S
O90 Co74 2.117 1_545 S
O90 C82 1.258 . S
O91 Co74 2.020 1_545 S
O91 C88 1.256 . S
O92 Co72 2.062 . S
O92 C88 1.255 1_655 S
O93 C73 1.259 1_455 S
O93 Co74 2.021 . S
H94 C85 0.930 . S
H95 C84 0.931 . S
O96 Co72 2.117 1_565 S
O96 C73 1.258 . S
O97 Co72 2.020 1_565 S
O97 C99 1.256 . S
O98 Co74 2.062 . S
O98 C99 1.255 1_455 S
C99 O97 1.256 . S
C99 O98 1.255 1_655 S
H100 C79 0.931 . S
H101 C87 0.931 1_545 S
Co102 N107 2.057 . S
Co102 O119 2.021 1_565 S
Co102 O122 2.062 . S
Co102 O126 2.104 1_556 S
Co102 O127 2.020 1_565 S
C103 O123 1.259 . S
C103 O126 1.280 . S
Co104 N113 2.057 . S
Co104 O120 2.117 . S
Co104 O121 2.020 1_545 S
Co104 O123 2.021 1_545 S
Co104 O128 2.062 . S
C105 N107 1.316 . S
C105 N108 1.347 . S
C105 H110 0.931 1_565 S
C106 N107 1.375 . S
C106 C109 1.350 . S
C106 H111 0.930 . S
N107 Co102 2.057 . S
N107 C105 1.316 . S
N107 C106 1.375 . S
N108 C105 1.347 . S
N108 C109 1.373 . S
C109 C106 1.350 . S
C109 N108 1.373 . S
C109 H130 0.931 . S
H110 C105 0.931 1_545 S
H111 C106 0.930 . S
C112 O119 1.259 . S
C112 O120 1.258 1_556 S
N113 Co104 2.057 . S
N113 C114 1.316 . S
N113 C115 1.375 . S
C114 N113 1.316 . S
C114 N116 1.347 . S
C114 H125 0.931 1_545 S
C115 N113 1.375 . S
C115 C117 1.350 . S
C115 H124 0.930 . S
N116 C114 1.347 . S
N116 C117 1.373 . S
C117 C115 1.350 . S
C117 N116 1.373 . S
C117 H131 0.931 . S
C118 O121 1.256 1_556 S
C118 O122 1.255 . S
O119 Co102 2.021 1_545 S
O119 C112 1.259 . S
O120 Co104 2.117 . S
O120 C112 1.258 1_554 S
O121 Co104 2.020 1_565 S
O121 C118 1.256 1_554 S
O122 Co102 2.062 . S
O122 C118 1.255 . S
O123 C103 1.259 . S
O123 Co104 2.021 1_565 S
H124 C115 0.930 . S
H125 C114 0.931 1_565 S
O126 Co102 2.104 1_554 S
O126 C103 1.280 . S
O127 Co102 2.020 1_545 S
O127 C129 1.256 1_556 S
O128 Co104 2.062 . S
O128 C129 1.255 . S
C129 O127 1.256 1_554 S
C129 O128 1.255 . S
H130 C109 0.931 . S
H131 C117 0.931 . S
Co132 N137 2.057 . S
Co132 O149 2.021 . S
Co132 O152 2.062 . S
Co132 O156 2.117 . S
Co132 O157 2.020 . S
C133 O153 1.259 . S
C133 O156 1.258 . S
Co134 N143 2.057 . S
Co134 O150 2.117 . S
Co134 O151 2.020 . S
Co134 O153 2.021 . S
Co134 O158 2.062 . S
C135 N137 1.316 . S
C135 N138 1.347 . S
C135 H140 0.931 . S
C136 N137 1.375 . S
C136 C139 1.350 . S
C136 H141 0.930 . S
N137 Co132 2.057 . S
N137 C135 1.316 . S
N137 C136 1.375 . S
N138 C135 1.347 . S
N138 C139 1.373 . S
C139 C136 1.350 . S
C139 N138 1.373 . S
C139 H160 0.931 . S
H140 C135 0.931 . S
H141 C136 0.930 . S
C142 O149 1.259 . S
C142 O150 1.258 . S
N143 Co134 2.057 . S
N143 C144 1.316 . S
N143 C145 1.375 . S
C144 N143 1.316 . S
C144 N146 1.347 . S
C144 H155 0.931 . S
C145 N143 1.375 . S
C145 C147 1.350 . S
C145 H154 0.930 . S
N146 C144 1.347 . S
N146 C147 1.373 . S
C147 C145 1.350 . S
C147 N146 1.373 . S
C147 H161 0.931 . S
C148 O151 1.256 . S
C148 O152 1.255 . S
O149 Co132 2.021 . S
O149 C142 1.259 . S
O150 Co134 2.117 . S
O150 C142 1.258 . S
O151 Co134 2.020 . S
O151 C148 1.256 . S
O152 Co132 2.062 . S
O152 C148 1.255 . S
O153 C133 1.259 . S
O153 Co134 2.021 . S
H154 C145 0.930 . S
H155 C144 0.931 . S
O156 Co132 2.117 . S
O156 C133 1.258 . S
O157 Co132 2.020 . S
O157 C159 1.256 . S
O158 Co134 2.062 . S
O158 C159 1.255 . S
C159 O157 1.256 . S
C159 O158 1.255 . S
H160 C139 0.931 . S
H161 C147 0.931 . S
Co162 N167 2.057 . S
Co162 O179 2.021 . S
Co162 O182 2.062 . S
Co162 O186 2.117 1_455 S
Co162 O187 2.020 1_455 S
C163 O183 1.259 1_556 S
C163 O186 1.258 . S
Co164 N173 2.057 . S
Co164 O180 2.117 1_655 S
Co164 O181 2.020 1_655 S
Co164 O183 2.021 . S
Co164 O188 2.062 . S
C165 N167 1.316 . S
C165 N168 1.347 . S
C165 H170 0.931 . S
C166 N167 1.375 1_655 S
C166 C169 1.350 1_655 S
C166 H171 0.930 . S
N167 Co162 2.057 . S
N167 C165 1.316 . S
N167 C166 1.375 1_455 S
N168 C165 1.347 . S
N168 C169 1.373 . S
C169 C166 1.350 1_455 S
C169 N168 1.373 . S
C169 H190 0.931 1_455 S
H170 C165 0.931 . S
H171 C166 0.930 . S
C172 O179 1.259 1_554 S
C172 O180 1.258 . S
N173 Co164 2.057 . S
N173 C174 1.316 . S
N173 C175 1.375 1_655 S
C174 N173 1.316 . S
C174 N176 1.347 . S
C174 H185 0.931 . S
C175 N173 1.375 1_455 S
C175 C177 1.350 1_455 S
C175 H184 0.930 . S
N176 C174 1.347 . S
N176 C177 1.373 . S
C177 C175 1.350 1_655 S
C177 N176 1.373 . S
C177 H191 0.931 1_655 S
C178 O181 1.256 . S
C178 O182 1.255 1_554 S
O179 Co162 2.021 . S
O179 C172 1.259 1_556 S
O180 Co164 2.117 1_455 S
O180 C172 1.258 . S
O181 Co164 2.020 1_455 S
O181 C178 1.256 . S
O182 Co162 2.062 . S
O182 C178 1.255 1_556 S
O183 C163 1.259 1_554 S
O183 Co164 2.021 . S
H184 C175 0.930 . S
H185 C174 0.931 . S
O186 Co162 2.117 1_655 S
O186 C163 1.258 . S
O187 Co162 2.020 1_655 S
O187 C189 1.256 . S
O188 Co164 2.062 . S
O188 C189 1.255 1_554 S
C189 O187 1.256 . S
C189 O188 1.255 1_556 S
H190 C169 0.931 1_655 S
H191 C177 0.931 1_455 S
H192 C198 0.930 . S
H193 C201 0.930 . S
H194 C202 0.930 . S
H195 C203 0.930 . S
H196 C206 0.930 1_655 S
H197 C207 0.930 . S
C198 H192 0.930 . S
C198 C199 1.355 . S
C198 C200 1.415 . S
C199 C198 1.355 . S
C199 C201 1.419 . S
C200 C198 1.415 . S
C200 C205 1.425 . S
C200 C207 1.409 . S
C201 H193 0.930 . S
C201 C199 1.419 . S
C201 C202 1.362 . S
C202 H194 0.930 . S
C202 C201 1.362 . S
C202 C205 1.409 . S
C203 H195 0.930 . S
C203 C204 1.355 . S
C203 C205 1.415 . S
C204 C203 1.355 . S
C204 C206 1.419 . S
C205 C200 1.425 . S
C205 C202 1.409 . S
C205 C203 1.415 . S
C206 H196 0.930 1_455 S
C206 C204 1.419 . S
C206 C207 1.362 . S
C207 H197 0.930 . S
C207 C200 1.409 . S
C207 C206 1.362 . S
H208 C214 0.930 . S
H209 C217 0.930 . S
H210 C218 0.930 . S
H211 C219 0.930 . S
H212 C222 0.930 1_545 S
H213 C223 0.930 . S
C214 H208 0.930 . S
C214 C215 1.355 . S
C214 C216 1.415 . S
C215 C214 1.355 . S
C215 C217 1.419 . S
C216 C214 1.415 . S
C216 C221 1.425 . S
C216 C223 1.409 . S
C217 H209 0.930 . S
C217 C215 1.419 . S
C217 C218 1.362 . S
C218 H210 0.930 . S
C218 C217 1.362 . S
C218 C221 1.409 . S
C219 H211 0.930 . S
C219 C220 1.355 . S
C219 C221 1.415 . S
C220 C219 1.355 . S
C220 C222 1.419 . S
C221 C216 1.425 . S
C221 C218 1.409 . S
C221 C219 1.415 . S
C222 H212 0.930 1_565 S
C222 C220 1.419 . S
C222 C223 1.362 . S
C223 H213 0.930 . S
C223 C216 1.409 . S
C223 C222 1.362 . S
H224 C230 0.930 . S
H225 C233 0.930 . S
H226 C234 0.930 . S
H227 C235 0.930 . S
H228 C238 0.930 . S
H229 C239 0.930 . S
C230 H224 0.930 . S
C230 C231 1.355 . S
C230 C232 1.415 . S
C231 C230 1.355 . S
C231 C233 1.419 . S
C232 C230 1.415 . S
C232 C237 1.425 . S
C232 C239 1.409 . S
C233 H225 0.930 . S
C233 C231 1.419 . S
C233 C234 1.362 . S
C234 H226 0.930 . S
C234 C233 1.362 . S
C234 C237 1.409 . S
C235 H227 0.930 . S
C235 C236 1.355 . S
C235 C237 1.415 . S
C236 C235 1.355 . S
C236 C238 1.419 . S
C237 C232 1.425 . S
C237 C234 1.409 . S
C237 C235 1.415 . S
C238 H228 0.930 . S
C238 C236 1.419 . S
C238 C239 1.362 . S
C239 H229 0.930 . S
C239 C232 1.409 . S
C239 C238 1.362 . S
H240 C246 0.930 . S
H241 C249 0.930 . S
H242 C250 0.930 . S
H243 C251 0.930 . S
H244 C254 0.930 1_455 S
H245 C255 0.930 1_455 S
C246 H240 0.930 . S
C246 C247 1.355 . S
C246 C248 1.415 . S
C247 C246 1.355 . S
C247 C249 1.419 . S
C248 C246 1.415 . S
C248 C253 1.425 . S
C248 C255 1.409 . S
C249 H241 0.930 . S
C249 C247 1.419 . S
C249 C250 1.362 . S
C250 H242 0.930 . S
C250 C249 1.362 . S
C250 C253 1.409 . S
C251 H243 0.930 . S
C251 C252 1.355 . S
C251 C253 1.415 . S
C252 C251 1.355 . S
C252 C254 1.419 . S
C253 C248 1.425 . S
C253 C250 1.409 . S
C253 C251 1.415 . S
C254 H244 0.930 1_655 S
C254 C252 1.419 . S
C254 C255 1.362 . S
C255 H245 0.930 1_655 S
C255 C248 1.409 . S
C255 C254 1.362 . S
H256 C262 0.930 . S
H257 C265 0.930 . S
H258 C266 0.930 1_556 S
H259 C267 0.930 1_556 S
H260 C270 0.930 . S
H261 C271 0.930 . S
C262 H256 0.930 . S
C262 C263 1.355 . S
C262 C264 1.415 . S
C263 C262 1.355 . S
C263 C265 1.419 . S
C264 C262 1.415 . S
C264 C269 1.425 . S
C264 C271 1.409 . S
C265 H257 0.930 . S
C265 C263 1.419 . S
C265 C266 1.362 . S
C266 H258 0.930 1_554 S
C266 C265 1.362 . S
C266 C269 1.409 . S
C267 H259 0.930 1_554 S
C267 C268 1.355 . S
C267 C269 1.415 . S
C268 C267 1.355 . S
C268 C270 1.419 . S
C269 C264 1.425 . S
C269 C266 1.409 . S
C269 C267 1.415 . S
C270 H260 0.930 . S
C270 C268 1.419 . S
C270 C271 1.362 . S
C271 H261 0.930 . S
C271 C264 1.409 . S
C271 C270 1.362 . S
H272 C278 0.930 . S
H273 C281 0.930 . S
H274 C282 0.930 . S
H275 C283 0.930 . S
H276 C286 0.930 . S
H277 C287 0.930 . S
C278 H272 0.930 . S
C278 C279 1.355 . S
C278 C280 1.415 . S
C279 C278 1.355 . S
C279 C281 1.419 . S
C280 C278 1.415 . S
C280 C285 1.425 . S
C280 C287 1.409 . S
C281 H273 0.930 . S
C281 C279 1.419 . S
C281 C282 1.362 . S
C282 H274 0.930 . S
C282 C281 1.362 . S
C282 C285 1.409 . S
C283 H275 0.930 . S
C283 C284 1.355 . S
C283 C285 1.415 . S
C284 C283 1.355 . S
C284 C286 1.419 . S
C285 C280 1.425 . S
C285 C282 1.409 . S
C285 C283 1.415 . S
C286 H276 0.930 . S
C286 C284 1.419 . S
C286 C287 1.362 . S
C287 H277 0.930 . S
C287 C280 1.409 . S
C287 C286 1.362 . S
H288 C294 0.930 . S
H289 C297 0.930 . S
H290 C298 0.930 . S
H291 C299 0.930 . S
H292 C302 0.930 1_554 S
H293 C303 0.930 . S
C294 H288 0.930 . S
C294 C295 1.355 . S
C294 C296 1.415 . S
C295 C294 1.355 . S
C295 C297 1.419 . S
C296 C294 1.415 . S
C296 C301 1.425 . S
C296 C303 1.409 . S
C297 H289 0.930 . S
C297 C295 1.419 . S
C297 C298 1.362 . S
C298 H290 0.930 . S
C298 C297 1.362 . S
C298 C301 1.409 . S
C299 H291 0.930 . S
C299 C300 1.355 . S
C299 C301 1.415 . S
C300 C299 1.355 . S
C300 C302 1.419 . S
C301 C296 1.425 . S
C301 C298 1.409 . S
C301 C299 1.415 . S
C302 H292 0.930 1_556 S
C302 C300 1.419 . S
C302 C303 1.362 . S
C303 H293 0.930 . S
C303 C296 1.409 . S
C303 C302 1.362 . S
H304 C310 0.930 . S
H305 C313 0.930 . S
H306 C314 0.930 . S
H307 C315 0.930 . S
H308 C318 0.930 . S
H309 C319 0.930 . S
C310 H304 0.930 . S
C310 C311 1.355 . S
C310 C312 1.415 . S
C311 C310 1.355 . S
C311 C313 1.419 . S
C312 C310 1.415 . S
C312 C317 1.425 . S
C312 C319 1.409 . S
C313 H305 0.930 . S
C313 C311 1.419 . S
C313 C314 1.362 . S
C314 H306 0.930 . S
C314 C313 1.362 . S
C314 C317 1.409 . S
C315 H307 0.930 . S
C315 C316 1.355 . S
C315 C317 1.415 . S
C316 C315 1.355 . S
C316 C318 1.419 . S
C317 C312 1.425 . S
C317 C314 1.409 . S
C317 C315 1.415 . S
C318 H308 0.930 . S
C318 C316 1.419 . S
C318 C319 1.362 . S
C319 H309 0.930 . S
C319 C312 1.409 . S
C319 C318 1.362 . S
H320 C326 0.930 . S
H321 C329 0.930 . S
H322 C330 0.930 . S
H323 C331 0.930 . S
H324 C334 0.930 1_556 S
H325 C335 0.930 . S
C326 H320 0.930 . S
C326 C327 1.355 . S
C326 C328 1.415 . S
C327 C326 1.355 . S
C327 C329 1.419 . S
C328 C326 1.415 . S
C328 C333 1.425 . S
C328 C335 1.409 . S
C329 H321 0.930 . S
C329 C327 1.419 . S
C329 C330 1.362 . S
C330 H322 0.930 . S
C330 C329 1.362 . S
C330 C333 1.409 . S
C331 H323 0.930 . S
C331 C332 1.355 . S
C331 C333 1.415 . S
C332 C331 1.355 . S
C332 C334 1.419 . S
C333 C328 1.425 . S
C333 C330 1.409 . S
C333 C331 1.415 . S
C334 H324 0.930 1_554 S
C334 C332 1.419 . S
C334 C335 1.362 . S
C335 H325 0.930 . S
C335 C328 1.409 . S
C335 C334 1.362 . S
H336 C342 0.930 . S
H337 C345 0.930 . S
H338 C346 0.930 . S
H339 C347 0.930 . S
H340 C350 0.930 . S
H341 C351 0.930 . S
C342 H336 0.930 . S
C342 C343 1.355 . S
C342 C344 1.415 . S
C343 C342 1.355 . S
C343 C345 1.419 . S
C344 C342 1.415 . S
C344 C349 1.425 . S
C344 C351 1.409 . S
C345 H337 0.930 . S
C345 C343 1.419 . S
C345 C346 1.362 . S
C346 H338 0.930 . S
C346 C345 1.362 . S
C346 C349 1.409 . S
C347 H339 0.930 . S
C347 C348 1.355 . S
C347 C349 1.415 . S
C348 C347 1.355 . S
C348 C350 1.419 . S
C349 C344 1.425 . S
C349 C346 1.409 . S
C349 C347 1.415 . S
C350 H340 0.930 . S
C350 C348 1.419 . S
C350 C351 1.362 . S
C351 H341 0.930 . S
C351 C344 1.409 . S
C351 C350 1.362 . S
H352 C358 0.930 . S
H353 C361 0.930 . S
H354 C362 0.930 . S
H355 C363 0.930 . S
H356 C366 0.930 . S
H357 C367 0.930 . S
C358 H352 0.930 . S
C358 C359 1.355 . S
C358 C360 1.415 . S
C359 C358 1.355 . S
C359 C361 1.419 . S
C360 C358 1.415 . S
C360 C365 1.425 . S
C360 C367 1.409 1_655 S
C361 H353 0.930 . S
C361 C359 1.419 . S
C361 C362 1.362 . S
C362 H354 0.930 . S
C362 C361 1.362 . S
C362 C365 1.409 . S
C363 H355 0.930 . S
C363 C364 1.355 . S
C363 C365 1.415 . S
C364 C363 1.355 . S
C364 C366 1.419 1_655 S
C365 C360 1.425 . S
C365 C362 1.409 . S
C365 C363 1.415 . S
C366 H356 0.930 . S
C366 C364 1.419 1_455 S
C366 C367 1.362 . S
C367 H357 0.930 . S
C367 C360 1.409 1_455 S
C367 C366 1.362 . S
H368 C374 0.930 . S
H369 C377 0.930 . S
H370 C378 0.930 . S
H371 C379 0.930 . S
H372 C382 0.930 . S
H373 C383 0.930 . S
C374 H368 0.930 . S
C374 C375 1.355 . S
C374 C376 1.415 . S
C375 C374 1.355 . S
C375 C377 1.419 . S
C376 C374 1.415 . S
C376 C381 1.425 . S
C376 C383 1.409 . S
C377 H369 0.930 . S
C377 C375 1.419 . S
C377 C378 1.362 . S
C378 H370 0.930 . S
C378 C377 1.362 . S
C378 C381 1.409 . S
C379 H371 0.930 . S
C379 C380 1.355 . S
C379 C381 1.415 . S
C380 C379 1.355 . S
C380 C382 1.419 . S
C381 C376 1.425 . S
C381 C378 1.409 . S
C381 C379 1.415 . S
C382 H372 0.930 . S
C382 C380 1.419 . S
C382 C383 1.362 . S
C383 H373 0.930 . S
C383 C376 1.409 . S
C383 C382 1.362 . S
H384 C390 0.930 . S
H385 C393 0.930 . S
H386 C394 0.930 1_545 S
H387 C395 0.930 1_545 S
H388 C398 0.930 . S
H389 C399 0.930 . S
C390 H384 0.930 . S
C390 C391 1.355 . S
C390 C392 1.415 . S
C391 C390 1.355 . S
C391 C393 1.419 . S
C392 C390 1.415 . S
C392 C397 1.425 . S
C392 C399 1.409 . S
C393 H385 0.930 . S
C393 C391 1.419 . S
C393 C394 1.362 . S
C394 H386 0.930 1_565 S
C394 C393 1.362 . S
C394 C397 1.409 . S
C395 H387 0.930 1_565 S
C395 C396 1.355 . S
C395 C397 1.415 . S
C396 C395 1.355 . S
C396 C398 1.419 . S
C397 C392 1.425 . S
C397 C394 1.409 . S
C397 C395 1.415 . S
C398 H388 0.930 . S
C398 C396 1.419 . S
C398 C399 1.362 . S
C399 H389 0.930 . S
C399 C392 1.409 . S
C399 C398 1.362 . S
H400 C406 0.930 . S
H401 C409 0.930 . S
H402 C410 0.930 . S
H403 C411 0.930 . S
H404 C414 0.930 . S
H405 C415 0.930 . S
C406 H400 0.930 . S
C406 C407 1.355 . S
C406 C408 1.415 . S
C407 C406 1.355 . S
C407 C409 1.419 . S
C408 C406 1.415 . S
C408 C413 1.425 . S
C408 C415 1.409 . S
C409 H401 0.930 . S
C409 C407 1.419 . S
C409 C410 1.362 . S
C410 H402 0.930 . S
C410 C409 1.362 . S
C410 C413 1.409 . S
C411 H403 0.930 . S
C411 C412 1.355 . S
C411 C413 1.415 . S
C412 C411 1.355 . S
C412 C414 1.419 . S
C413 C408 1.425 . S
C413 C410 1.409 . S
C413 C411 1.415 . S
C414 H404 0.930 . S
C414 C412 1.419 . S
C414 C415 1.362 . S
C415 H405 0.930 . S
C415 C408 1.409 . S
C415 C414 1.362 . S
H416 C422 0.930 . S
H417 C425 0.930 . S
H418 C426 0.930 . S
H419 C427 0.930 . S
H420 C430 0.930 . S
H421 C431 0.930 . S
C422 H416 0.930 . S
C422 C423 1.355 . S
C422 C424 1.415 . S
C423 C422 1.355 . S
C423 C425 1.419 . S
C424 C422 1.415 . S
C424 C429 1.425 . S
C424 C431 1.409 . S
C425 H417 0.930 . S
C425 C423 1.419 . S
C425 C426 1.362 . S
C426 H418 0.930 . S
C426 C425 1.362 . S
C426 C429 1.409 . S
C427 H419 0.930 . S
C427 C428 1.355 . S
C427 C429 1.415 . S
C428 C427 1.355 . S
C428 C430 1.419 . S
C429 C424 1.425 . S
C429 C426 1.409 . S
C429 C427 1.415 . S
C430 H420 0.930 . S
C430 C428 1.419 . S
C430 C431 1.362 . S
C431 H421 0.930 . S
C431 C424 1.409 . S
C431 C430 1.362 . S
H432 C438 0.930 . S
H433 C441 0.930 . S
H434 C442 0.930 . S
H435 C443 0.930 . S
H436 C446 0.930 . S
H437 C447 0.930 . S
C438 H432 0.930 . S
C438 C439 1.355 . S
C438 C440 1.415 . S
C439 C438 1.355 . S
C439 C441 1.419 . S
C440 C438 1.415 . S
C440 C445 1.425 . S
C440 C447 1.409 . S
C441 H433 0.930 . S
C441 C439 1.419 . S
C441 C442 1.362 . S
C442 H434 0.930 . S
C442 C441 1.362 . S
C442 C445 1.409 . S
C443 H435 0.930 . S
C443 C444 1.355 . S
C443 C445 1.415 . S
C444 C443 1.355 . S
C444 C446 1.419 . S
C445 C440 1.425 . S
C445 C442 1.409 . S
C445 C443 1.415 . S
C446 H436 0.930 . S
C446 C444 1.419 . S
C446 C447 1.362 . S
C447 H437 0.930 . S
C447 C440 1.409 . S
C447 C446 1.362 . S
H448 C454 0.930 . S
H449 C457 0.930 . S
H450 C458 0.930 . S
H451 C459 0.930 . S
H452 C462 0.930 1_554 S
H453 C463 0.930 1_554 S
C454 H448 0.930 . S
C454 C455 1.355 . S
C454 C456 1.415 . S
C455 C454 1.355 . S
C455 C457 1.419 . S
C456 C454 1.415 . S
C456 C461 1.425 . S
C456 C463 1.409 . S
C457 H449 0.930 . S
C457 C455 1.419 . S
C457 C458 1.362 . S
C458 H450 0.930 . S
C458 C457 1.362 . S
C458 C461 1.409 . S
C459 H451 0.930 . S
C459 C460 1.355 . S
C459 C461 1.415 . S
C460 C459 1.355 . S
C460 C462 1.419 . S
C461 C456 1.425 . S
C461 C458 1.409 . S
C461 C459 1.415 . S
C462 H452 0.930 1_556 S
C462 C460 1.419 . S
C462 C463 1.362 . S
C463 H453 0.930 1_556 S
C463 C456 1.409 . S
C463 C462 1.362 . S
H464 C470 0.930 . S
H465 C473 0.930 . S
H466 C474 0.930 . S
H467 C475 0.930 . S
H468 C478 0.930 . S
H469 C479 0.930 . S
C470 H464 0.930 . S
C470 C471 1.355 . S
C470 C472 1.415 . S
C471 C470 1.355 . S
C471 C473 1.419 . S
C472 C470 1.415 . S
C472 C477 1.425 . S
C472 C479 1.409 . S
C473 H465 0.930 . S
C473 C471 1.419 . S
C473 C474 1.362 . S
C474 H466 0.930 . S
C474 C473 1.362 . S
C474 C477 1.409 . S
C475 H467 0.930 . S
C475 C476 1.355 . S
C475 C477 1.415 . S
C476 C475 1.355 . S
C476 C478 1.419 . S
C477 C472 1.425 . S
C477 C474 1.409 . S
C477 C475 1.415 . S
C478 H468 0.930 . S
C478 C476 1.419 . S
C478 C479 1.362 . S
C479 H469 0.930 . S
C479 C472 1.409 . S
C479 C478 1.362 . S
H480 C486 0.930 . S
H481 C489 0.930 . S
H482 C490 0.930 . S
H483 C491 0.909 1_556 S
H484 C494 0.930 . S
H485 C495 0.930 . S
C486 H480 0.930 . S
C486 C487 1.355 . S
C486 C488 1.415 . S
C487 C486 1.355 . S
C487 C489 1.419 . S
C488 C486 1.415 . S
C488 C493 1.425 . S
C488 C495 1.409 . S
C489 H481 0.930 . S
C489 C487 1.419 . S
C489 C490 1.362 . S
C490 H482 0.930 . S
C490 C489 1.362 . S
C490 C493 1.409 . S
C491 H483 0.909 1_554 S
C491 C492 1.355 . S
C491 C493 1.415 . S
C492 C491 1.355 . S
C492 C494 1.419 . S
C493 C488 1.425 . S
C493 C490 1.409 . S
C493 C491 1.415 . S
C494 H484 0.930 . S
C494 C492 1.419 . S
C494 C495 1.362 . S
C495 H485 0.930 . S
C495 C488 1.409 . S
C495 C494 1.362 . S
H496 C502 0.930 . S
H497 C505 0.930 . S
H498 C506 0.930 . S
H499 C507 0.930 . S
H500 C510 0.930 . S
H501 C511 0.930 . S
C502 H496 0.930 . S
C502 C503 1.355 . S
C502 C504 1.415 . S
C503 C502 1.355 . S
C503 C505 1.419 . S
C504 C502 1.415 . S
C504 C509 1.425 . S
C504 C511 1.409 . S
C505 H497 0.930 . S
C505 C503 1.419 . S
C505 C506 1.362 . S
C506 H498 0.930 . S
C506 C505 1.362 . S
C506 C509 1.409 . S
C507 H499 0.930 . S
C507 C508 1.355 . S
C507 C509 1.415 . S
C508 C507 1.355 . S
C508 C510 1.419 . S
C509 C504 1.425 . S
C509 C506 1.409 . S
C509 C507 1.415 . S
C510 H500 0.930 . S
C510 C508 1.419 . S
C510 C511 1.362 . S
C511 H501 0.930 . S
C511 C504 1.409 . S
C511 C510 1.362 . S
H512 C518 0.930 . S
H513 C521 0.930 . S
H514 C522 0.930 . S
H515 C523 0.919 1_554 S
H516 C526 0.930 1_455 S
H517 C527 0.930 1_455 S
C518 H512 0.930 . S
C518 C519 1.355 . S
C518 C520 1.415 . S
C519 C518 1.355 . S
C519 C521 1.419 . S
C520 C518 1.415 . S
C520 C525 1.425 . S
C520 C527 1.409 . S
C521 H513 0.930 . S
C521 C519 1.419 . S
C521 C522 1.362 . S
C522 H514 0.930 . S
C522 C521 1.362 . S
C522 C525 1.409 . S
C523 H515 0.919 1_556 S
C523 C524 1.355 . S
C523 C525 1.415 . S
C524 C523 1.355 . S
C524 C526 1.419 . S
C525 C520 1.425 . S
C525 C522 1.409 . S
C525 C523 1.415 . S
C526 H516 0.930 1_655 S
C526 C524 1.419 . S
C526 C527 1.362 . S
C527 H517 0.930 1_655 S
C527 C520 1.409 . S
C527 C526 1.362 . S
H528 C534 0.930 . S
H529 C537 0.930 . S
H530 C538 0.930 . S
H531 C539 0.930 . S
H532 C542 0.930 . S
H533 C543 0.930 . S
C534 H528 0.930 . S
C534 C535 1.355 . S
C534 C536 1.415 . S
C535 C534 1.355 . S
C535 C537 1.419 . S
C536 C534 1.415 . S
C536 C541 1.425 . S
C536 C543 1.409 . S
C537 H529 0.930 . S
C537 C535 1.419 . S
C537 C538 1.362 . S
C538 H530 0.930 . S
C538 C537 1.362 . S
C538 C541 1.409 . S
C539 H531 0.930 . S
C539 C540 1.355 . S
C539 C541 1.415 . S
C540 C539 1.355 . S
C540 C542 1.419 . S
C541 C536 1.425 . S
C541 C538 1.409 . S
C541 C539 1.415 . S
C542 H532 0.930 . S
C542 C540 1.419 . S
C542 C543 1.362 . S
C543 H533 0.930 . S
C543 C536 1.409 . S
C543 C542 1.362 . S
H544 C550 0.930 . S
H545 C553 0.930 . S
H546 C554 0.930 . S
H547 C555 0.930 . S
H548 C558 0.930 . S
H549 C559 0.930 . S
C550 H544 0.930 . S
C550 C551 1.355 . S
C550 C552 1.415 . S
C551 C550 1.355 . S
C551 C553 1.419 . S
C552 C550 1.415 . S
C552 C557 1.425 . S
C552 C559 1.409 . S
C553 H545 0.930 . S
C553 C551 1.419 . S
C553 C554 1.362 . S
C554 H546 0.930 . S
C554 C553 1.362 . S
C554 C557 1.409 . S
C555 H547 0.930 . S
C555 C556 1.355 . S
C555 C557 1.415 . S
C556 C555 1.355 . S
C556 C558 1.419 . S
C557 C552 1.425 . S
C557 C554 1.409 . S
C557 C555 1.415 . S
C558 H548 0.930 . S
C558 C556 1.419 . S
C558 C559 1.362 . S
C559 H549 0.930 . S
C559 C552 1.409 . S
C559 C558 1.362 . S
H560 C566 0.930 . S
H561 C569 0.930 . S
H562 C570 0.930 . S
H563 C571 0.930 . S
H564 C574 0.930 . S
H565 C575 0.930 . S
C566 H560 0.930 . S
C566 C567 1.355 . S
C566 C568 1.415 . S
C567 C566 1.355 . S
C567 C569 1.419 . S
C568 C566 1.415 . S
C568 C573 1.425 . S
C568 C575 1.409 . S
C569 H561 0.930 . S
C569 C567 1.419 . S
C569 C570 1.362 . S
C570 H562 0.930 . S
C570 C569 1.362 . S
C570 C573 1.409 . S
C571 H563 0.930 . S
C571 C572 1.355 . S
C571 C573 1.415 . S
C572 C571 1.355 . S
C572 C574 1.419 . S
C573 C568 1.425 . S
C573 C570 1.409 . S
C573 C571 1.415 . S
C574 H564 0.930 . S
C574 C572 1.419 . S
C574 C575 1.362 . S
C575 H565 0.930 . S
C575 C568 1.409 . S
C575 C574 1.362 . S
C199 C5 2.082 . S
C204 C88 2.101 . S
C215 C14 1.122 . S
C220 N108 1.092 . S
C236 C142 1.950 . S
C231 C25 1.952 . S
C247 C34 1.201 . S
C252 N176 1.121 . S
C268 C129 2.228 . S
C263 C7 2.225 . S
C284 N86 1.095 . S
C279 C13 1.118 . S
C300 C163 2.001 . S
C295 C23 1.989 . S
C316 N138 1.014 . S
C311 C31 0.967 . S
C327 C4 1.744 . S
C332 C178 1.760 . S
C348 C112 1.680 . S
C343 C22 1.676 . S
C359 C32 1.337 . S
C364 C73 1.355 . S
C375 C16 1.365 . S
C380 C159 1.366 . S
C396 C99 2.081 . S
C391 C41 2.080 . S
C407 C50 1.132 . S
C412 N116 1.089 . S
C423 C61 1.957 . S
C428 C133 1.953 . S
C439 C67 1.251 . S
C444 N168 1.213 . S
C455 C40 2.222 . S
C460 C118 2.240 . S
C476 N78 1.079 . S
C471 C52 1.097 . S
C492 C172 2.007 . S
C487 C59 2.005 . S
C508 N146 0.952 . S
C503 C70 1.024 . S
C519 C43 1.746 . S
C524 C189 1.764 . S
C540 C103 1.682 . S
C535 C58 1.676 . S
C556 C82 1.355 . S
C551 C68 1.350 . S
C567 C49 1.344 . S
C572 C148 1.363 . S
