# Generated by pormake.
# Topology zzz, (3,6)-cn, num edge types: 1
# Building blocks:
#     Node 0, Type 0, BuildingBlock: ESEHIV_clean_linker_0, # of connection points: 3
#     Node 1, Type 0, BuildingBlock: ESEHIV_clean_linker_0, # of connection points: 3
#     Node 2, Type 0, BuildingBlock: ESEHIV_clean_linker_0, # of connection points: 3
#     Node 3, Type 0, BuildingBlock: ESEHIV_clean_linker_0, # of connection points: 3
#     Node 4, Type 0, BuildingBlock: ESEHIV_clean_linker_0, # of connection points: 3
#     Node 5, Type 0, BuildingBlock: ESEHIV_clean_linker_0, # of connection points: 3
#     Node 6, Type 0, BuildingBlock: ESEHIV_clean_linker_0, # of connection points: 3
#     Node 7, Type 0, BuildingBlock: ESEHIV_clean_linker_0, # of connection points: 3
#     Node 8, Type 1, BuildingBlock: CUKXOW_clean_sbu_0, # of connection points: 6
#     Node 9, Type 1, BuildingBlock: CUKXOW_clean_sbu_0, # of connection points: 6
#     Node 10, Type 1, BuildingBlock: CUKXOW_clean_sbu_0, # of connection points: 6
#     Node 11, Type 1, BuildingBlock: CUKXOW_clean_sbu_0, # of connection points: 6
#     Edge 12, Type (0, 1), BuildingBlock: TEMPAE_clean_linker_10, # of connection points: 2
#     Edge 13, Type (0, 1), BuildingBlock: TEMPAE_clean_linker_10, # of connection points: 2
#     Edge 14, Type (0, 1), BuildingBlock: TEMPAE_clean_linker_10, # of connection points: 2
#     Edge 15, Type (0, 1), BuildingBlock: TEMPAE_clean_linker_10, # of connection points: 2
#     Edge 16, Type (0, 1), BuildingBlock: TEMPAE_clean_linker_10, # of connection points: 2
#     Edge 17, Type (0, 1), BuildingBlock: TEMPAE_clean_linker_10, # of connection points: 2
#     Edge 18, Type (0, 1), BuildingBlock: TEMPAE_clean_linker_10, # of connection points: 2
#     Edge 19, Type (0, 1), BuildingBlock: TEMPAE_clean_linker_10, # of connection points: 2
#     Edge 20, Type (0, 1), BuildingBlock: TEMPAE_clean_linker_10, # of connection points: 2
#     Edge 21, Type (0, 1), BuildingBlock: TEMPAE_clean_linker_10, # of connection points: 2
#     Edge 22, Type (0, 1), BuildingBlock: TEMPAE_clean_linker_10, # of connection points: 2
#     Edge 23, Type (0, 1), BuildingBlock: TEMPAE_clean_linker_10, # of connection points: 2
#     Edge 24, Type (0, 1), BuildingBlock: TEMPAE_clean_linker_10, # of connection points: 2
#     Edge 25, Type (0, 1), BuildingBlock: TEMPAE_clean_linker_10, # of connection points: 2
#     Edge 26, Type (0, 1), BuildingBlock: TEMPAE_clean_linker_10, # of connection points: 2
#     Edge 27, Type (0, 1), BuildingBlock: TEMPAE_clean_linker_10, # of connection points: 2
#     Edge 28, Type (0, 1), BuildingBlock: TEMPAE_clean_linker_10, # of connection points: 2
#     Edge 29, Type (0, 1), BuildingBlock: TEMPAE_clean_linker_10, # of connection points: 2
#     Edge 30, Type (0, 1), BuildingBlock: TEMPAE_clean_linker_10, # of connection points: 2
#     Edge 31, Type (0, 1), BuildingBlock: TEMPAE_clean_linker_10, # of connection points: 2
#     Edge 32, Type (0, 1), BuildingBlock: TEMPAE_clean_linker_10, # of connection points: 2
#     Edge 33, Type (0, 1), BuildingBlock: TEMPAE_clean_linker_10, # of connection points: 2
#     Edge 34, Type (0, 1), BuildingBlock: TEMPAE_clean_linker_10, # of connection points: 2
#     Edge 35, Type (0, 1), BuildingBlock: TEMPAE_clean_linker_10, # of connection points: 2
# Relax obj value: 0.210
# Max RMSD: 0.228
# Mean RMSD: 0.184
data_MOF--net-zzz--node1-CUKXOW_clean_sbu_0--node2-ESEHIV_clean_linker_0--edge1-TEMPAE_clean_linker_10
_symmetry_space_group_name_H-M    P1
_symmetry_Int_Tables_number       1
_symmetry_cell_setting            triclinic
loop_
_symmetry_equiv_pos_as_xyz
'x, y, z'
_cell_length_a     45.317773
_cell_length_b     44.815633
_cell_length_c     16.120691
_cell_angle_alpha  93.082963
_cell_angle_beta   87.856143
_cell_angle_gamma 95.603766
loop_
_atom_site_label
_atom_site_type_symbol
_atom_site_fract_x
_atom_site_fract_y
_atom_site_fract_z
_atom_type_partial_charge
H0 H 0.80918 0.41612 0.17664 0.0
H1 H 0.7586 0.42784 0.9639 0.0
H2 H 0.71814 0.43436 0.21049 0.0
C3 C 0.78815 0.41953 0.15029 0.0
C4 C 0.764 0.42494 0.20355 0.0
C5 C 0.78687 0.42183 0.0646 0.0
C6 C 0.75962 0.42574 0.03037 0.0
C7 C 0.73418 0.42918 0.08199 0.0
C8 C 0.73686 0.42996 0.16942 0.0
H9 H 0.90697 0.81327 0.17327 0.0
H10 H 0.91154 0.75365 0.95728 0.0
H11 H 0.90167 0.71861 0.20199 0.0
C12 C 0.90462 0.79072 0.14466 0.0
C13 C 0.90211 0.76639 0.19616 0.0
C14 C 0.90858 0.78643 0.05849 0.0
C15 C 0.90779 0.75701 0.0237 0.0
C16 C 0.9053 0.73217 0.07443 0.0
C17 C 0.90226 0.73713 0.16126 0.0
H18 H 0.67833 0.97172 0.10354 0.0
H19 H 0.75629 0.00169 0.96232 0.0
H20 H 0.76372 0.97767 0.21595 0.0
C21 C 0.70234 0.97562 0.09855 0.0
C22 C 0.71933 0.97257 0.16801 0.0
C23 C 0.7156 0.98659 0.02539 0.0
C24 C 0.74625 0.99333 0.01977 0.0
C25 C 0.76396 0.98976 0.08745 0.0
C26 C 0.75041 0.97951 0.16234 0.0
H27 H 0.58843 0.6954 0.21934 0.0
H28 H 0.60491 0.78882 0.28657 0.0
H29 H 0.59808 0.75921 0.02789 0.0
C30 C 0.5937 0.71808 0.19941 0.0
C31 C 0.59374 0.72394 0.11495 0.0
C32 C 0.5982 0.74109 0.26071 0.0
C33 C 0.60253 0.77097 0.2385 0.0
C34 C 0.60252 0.7777 0.15407 0.0
C35 C 0.59864 0.75402 0.09262 0.0
H36 H 0.19927 0.58154 0.26564 0.0
H37 H 0.2605 0.5759 0.45835 0.0
H38 H 0.28621 0.5545 0.20267 0.0
C39 C 0.22146 0.57809 0.28392 0.0
C40 C 0.24204 0.56843 0.22392 0.0
C41 C 0.22795 0.5805 0.36801 0.0
C42 C 0.25596 0.57468 0.39262 0.0
C43 C 0.27766 0.56619 0.33348 0.0
C44 C 0.27024 0.56216 0.24873 0.0
H45 H 0.11018 0.19231 0.2281 0.0
H46 H 0.10485 0.25129 0.44605 0.0
H47 H 0.10216 0.28544 0.20186 0.0
C48 C 0.1105 0.21471 0.25724 0.0
C49 C 0.10953 0.23887 0.20615 0.0
C50 C 0.1075 0.21858 0.34388 0.0
C51 C 0.10626 0.24777 0.37905 0.0
C52 C 0.10377 0.27204 0.3287 0.0
C53 C 0.10572 0.26748 0.24171 0.0
H54 H 0.34213 0.03903 0.28193 0.0
H55 H 0.26241 0.01805 0.42654 0.0
H56 H 0.25717 0.04116 0.17165 0.0
C57 C 0.31812 0.03771 0.28773 0.0
C58 C 0.30157 0.04214 0.21837 0.0
C59 C 0.30408 0.02865 0.36202 0.0
C60 C 0.27323 0.02534 0.36887 0.0
C61 C 0.25617 0.03046 0.30133 0.0
C62 C 0.27028 0.03834 0.22503 0.0
H63 H 0.40667 0.31457 0.25056 0.0
H64 H 0.39098 0.2248 0.14317 0.0
H65 H 0.41811 0.23972 0.39695 0.0
C66 C 0.40444 0.29051 0.25789 0.0
C67 C 0.41269 0.27947 0.33223 0.0
C68 C 0.39661 0.27107 0.18958 0.0
C69 C 0.39605 0.23991 0.19662 0.0
C70 C 0.40261 0.22842 0.2727 0.0
C71 C 0.41124 0.24838 0.3399 0.0
Tb72 Tb 0.99517 0.97772 0.6372 0.0
C73 C 0.06426 0.99356 0.61015 0.0
Tb74 Tb 0.02914 0.02374 0.7639 0.0
O75 O 0.00144 0.00823 0.53485 0.0
O76 O 0.00314 0.02437 0.65854 0.0
O77 O 0.04033 0.97595 0.58728 0.0
C78 C 0.05423 0.07552 0.82744 0.0
O79 O 0.06493 0.01292 0.67568 0.0
C80 C 0.0155 0.96994 0.817 0.0
C81 C 0.95998 0.00848 0.7906 0.0
O82 O 0.03165 0.07253 0.77967 0.0
O83 O 0.06258 0.04928 0.84092 0.0
O84 O 0.02217 0.99338 0.86646 0.0
O85 O 0.02101 0.97708 0.74287 0.0
O86 O 0.98384 0.02661 0.81147 0.0
O87 O 0.95966 0.98828 0.72689 0.0
C88 C 0.96979 0.92643 0.5714 0.0
O89 O 0.96081 0.95274 0.56238 0.0
O90 O 0.99315 0.92903 0.61631 0.0
C91 C 0.00828 0.0316 0.58437 0.0
Tb92 Tb 0.50092 0.0246 0.62414 0.0
C93 C 0.5524 0.98449 0.57834 0.0
Tb94 Tb 0.5158 0.97956 0.75197 0.0
O95 O 0.54452 0.04928 0.63933 0.0
O96 O 0.52329 0.02621 0.7369 0.0
O97 O 0.53188 -0.00016 0.54801 0.0
C98 C 0.53986 0.94499 0.85557 0.0
O99 O 0.55159 0.97668 0.657 0.0
C100 C 0.46942 0.96339 0.66227 0.0
C101 C 0.46482 0.0203 0.79882 0.0
O102 O 0.52366 0.9356 0.79309 0.0
O103 O 0.54264 0.97417 0.86028 0.0
O104 O 0.47211 0.95501 0.73721 0.0
O105 O 0.49324 0.97797 0.63956 0.0
O106 O 0.48519 0.00461 0.82865 0.0
O107 O 0.46548 0.02806 0.72007 0.0
C108 C 0.47712 0.05882 0.51906 0.0
O109 O 0.49318 0.0684 0.58167 0.0
O110 O 0.47419 0.02964 0.51537 0.0
C111 C 0.54702 0.04097 0.71442 0.0
Tb112 Tb 0.52972 0.51861 0.64345 0.0
C113 C 0.4589 0.51762 0.62728 0.0
Tb114 Tb 0.48689 0.48179 0.76394 0.0
O115 O 0.53986 0.47887 0.56572 0.0
O116 O 0.50062 0.47936 0.63785 0.0
O117 O 0.48609 0.52832 0.60261 0.0
C118 C 0.4558 0.43684 0.83996 0.0
O119 O 0.45384 0.49859 0.68793 0.0
C120 C 0.50323 0.53763 0.81227 0.0
C121 C 0.55704 0.47889 0.76978 0.0
O122 O 0.45462 0.44207 0.76195 0.0
O123 O 0.4742 0.45718 0.87552 0.0
O124 O 0.47823 0.52339 0.83672 0.0
O125 O 0.51792 0.5195 0.77069 0.0
O126 O 0.53008 0.46454 0.78124 0.0
O127 O 0.56167 0.50335 0.72577 0.0
C128 C 0.5543 0.57036 0.58754 0.0
O129 O 0.56107 0.54396 0.55955 0.0
O130 O 0.53368 0.56736 0.64496 0.0
C131 C 0.517 0.46253 0.59643 0.0
Tb132 Tb 0.97955 0.50575 0.61946 0.0
C133 C 0.0269 0.45683 0.60657 0.0
Tb134 Tb 0.0311 0.50867 0.7474 0.0
O135 O 0.00121 0.54444 0.55507 0.0
O136 O 0.02548 0.51732 0.62233 0.0
O137 O 0.00101 0.46498 0.58346 0.0
C138 C 0.08115 0.52259 0.83044 0.0
O139 O 0.04321 0.4717 0.66504 0.0
C140 C 0.98207 0.47477 0.78152 0.0
C141 C 0.98495 0.55805 0.75724 0.0
O142 O 0.07914 0.52125 0.75018 0.0
O143 O 0.05489 0.51628 0.86398 0.0
O144 O 0.00769 0.46977 0.80914 0.0
O145 O 0.98516 0.49891 0.7454 0.0
O146 O 0.0124 0.55192 0.7724 0.0
O147 O 0.96688 0.54099 0.70722 0.0
C148 C 0.92768 0.48785 0.54967 0.0
O149 O 0.94863 0.50602 0.51728 0.0
O150 O 0.93628 0.47949 0.61973 0.0
C151 C 0.02672 0.54178 0.58737 0.0
C152 C 0.20919 0.04922 0.35426 0.0
C153 C 0.2237 0.02613 0.31386 0.0
C154 C 0.18129 0.04323 0.39386 0.0
C155 C 0.16776 0.01332 0.39334 0.0
C156 C 0.18151 0.99028 0.34755 0.0
C157 C 0.20942 0.99699 0.30843 0.0
C158 C 0.16799 0.06859 0.44267 0.0
C159 C 0.16806 0.9581 0.34617 0.0
C160 C 0.11901 0.99537 0.58475 0.0
C161 C 0.09057 0.99485 0.55359 0.0
C162 C 0.14431 0.00012 0.5323 0.0
C163 C 0.14099 0.00568 0.4475 0.0
C164 C 0.11221 0.00532 0.41601 0.0
C165 C 0.08731 0.99938 0.4692 0.0
C166 C 0.17459 4e-05 0.5682 0.0
C167 C 0.10777 0.01284 0.32748 0.0
H168 H 0.22069 0.07158 0.3605 0.0
H169 H 0.22114 0.97903 0.27917 0.0
H170 H 0.14351 0.06477 0.44856 0.0
H171 H 0.17685 0.07055 0.50617 0.0
H172 H 0.17417 0.09031 0.41344 0.0
H173 H 0.17987 0.94347 0.30102 0.0
H174 H 0.16907 0.94933 0.40899 0.0
H175 H 0.14435 0.95662 0.33017 0.0
H176 H 0.12143 0.99227 0.65032 0.0
H177 H 0.06524 -0.00012 0.44582 0.0
H178 H 0.18625 0.02298 0.56802 0.0
H179 H 0.1882 0.98502 0.52942 0.0
H180 H 0.17332 0.9926 0.63299 0.0
H181 H 0.11697 0.03635 0.31813 0.0
H182 H 0.08398 0.01044 0.31158 0.0
H183 H 0.11997 0.99814 0.28367 0.0
C184 C 0.3891 0.1819 0.34887 0.0
C185 C 0.40386 0.19587 0.28134 0.0
C186 C 0.39623 0.15382 0.37188 0.0
C187 C 0.41918 0.13992 0.32752 0.0
C188 C 0.43141 0.15219 0.2532 0.0
C189 C 0.42354 0.18016 0.2308 0.0
C190 C 0.38158 0.14069 0.44912 0.0
C191 C 0.45528 0.13761 0.20281 0.0
C192 C 0.47128 0.10956 0.47263 0.0
C193 C 0.46363 0.0786 0.46413 0.0
C194 C 0.45767 0.12942 0.42588 0.0
C195 C 0.43527 0.11809 0.37026 0.0
C196 C 0.42773 0.08668 0.36028 0.0
C197 C 0.44255 0.06722 0.40628 0.0
C198 C 0.46675 0.1627 0.43808 0.0
C199 C 0.40395 0.07359 0.30217 0.0
H200 H 0.37344 0.19388 0.387 0.0
H201 H 0.43479 0.19089 0.17812 0.0
H202 H 0.37629 0.11608 0.43935 0.0
H203 H 0.39705 0.1446 0.50124 0.0
H204 H 0.36087 0.15104 0.46754 0.0
H205 H 0.45819 0.14633 0.1395 0.0
H206 H 0.47664 0.14229 0.23476 0.0
H207 H 0.45004 0.11291 0.19725 0.0
H208 H 0.48782 0.1184 0.51673 0.0
H209 H 0.43697 0.04321 0.399 0.0
H210 H 0.4478 0.17424 0.46531 0.0
H211 H 0.47303 0.17248 0.37739 0.0
H212 H 0.48575 0.1676 0.47987 0.0
H213 H 0.38455 0.08697 0.3063 0.0
H214 H 0.3963 0.04996 0.31544 0.0
H215 H 0.41297 0.07394 0.23736 0.0
C216 C 0.32032 0.53427 0.33917 0.0
C217 C 0.30729 0.56065 0.36324 0.0
C218 C 0.34615 0.52717 0.37688 0.0
C219 C 0.35918 0.54692 0.44 0.0
C220 C 0.34683 0.5742 0.4616 0.0
C221 C 0.32118 0.58074 0.42285 0.0
C222 C 0.35881 0.498 0.35154 0.0
C223 C 0.36001 0.596 0.52812 0.0
C224 C 0.40408 0.51621 0.60576 0.0
C225 C 0.43333 0.52545 0.58007 0.0
C226 C 0.37983 0.52268 0.56011 0.0
C227 C 0.38485 0.53863 0.48653 0.0
C228 C 0.41429 0.54785 0.4599 0.0
C229 C 0.43811 0.54128 0.50704 0.0
C230 C 0.34877 0.51268 0.59115 0.0
C231 C 0.42062 0.56478 0.38171 0.0
H232 H 0.30962 0.51857 0.29359 0.0
H233 H 0.31144 0.60138 0.44088 0.0
H234 H 0.38289 0.5021 0.33623 0.0
H235 H 0.3563 0.4829 0.40418 0.0
H236 H 0.34763 0.48631 0.29707 0.0
H237 H 0.34862 0.6169 0.53473 0.0
H238 H 0.35836 0.58525 0.58876 0.0
H239 H 0.38389 0.60209 0.51375 0.0
H240 H 0.40004 0.50395 0.66185 0.0
H241 H 0.46057 0.54838 0.48599 0.0
H242 H 0.33684 0.49836 0.54244 0.0
H243 H 0.33622 0.53254 0.60464 0.0
H244 H 0.34861 0.49991 0.64836 0.0
H245 H 0.41033 0.55174 0.32801 0.0
H246 H 0.44478 0.56943 0.36779 0.0
H247 H 0.41062 0.58645 0.38801 0.0
C248 C 0.10593 0.32839 0.33919 0.0
C249 C 0.09415 0.30047 0.36706 0.0
C250 C 0.0959 0.35512 0.37423 0.0
C251 C 0.07369 0.3537 0.43847 0.0
C252 C 0.06171 0.32559 0.46655 0.0
C253 C 0.07191 0.29936 0.43009 0.0
C254 C 0.10901 0.38481 0.34266 0.0
C255 C 0.03803 0.32315 0.53507 0.0
C256 C 0.06463 0.41969 0.59055 0.0
C257 C 0.03912 0.4308 0.56216 0.0
C258 C 0.07668 0.39517 0.54924 0.0
C259 C 0.06296 0.38149 0.47761 0.0
C260 C 0.03758 0.3929 0.44751 0.0
C261 C 0.02587 0.41738 0.49038 0.0
C262 C 0.1036 0.38339 0.58361 0.0
C263 C 0.02247 0.37888 0.37101 0.0
H264 H 0.12306 0.32932 0.29038 0.0
H265 H 0.06202 0.27784 0.45025 0.0
H266 H 0.09118 0.39726 0.31988 0.0
H267 H 0.11965 0.39885 0.39409 0.0
H268 H 0.12578 0.38202 0.2915 0.0
H269 H 0.03133 0.29952 0.55032 0.0
H270 H 0.04616 0.33576 0.59217 0.0
H271 H 0.01809 0.33335 0.51646 0.0
H272 H 0.07509 0.42991 0.64587 0.0
H273 H 0.00634 0.42597 0.46748 0.0
H274 H 0.1213 0.38204 0.5345 0.0
H275 H 0.09766 0.36032 0.60454 0.0
H276 H 0.11267 0.39768 0.63696 0.0
H277 H 0.03879 0.37746 0.31825 0.0
H278 H 0.00424 0.39173 0.35237 0.0
H279 H 0.01312 0.35563 0.38289 0.0
C280 C 0.81578 0.97494 0.08345 0.0
C281 C 0.79642 0.99709 0.0763 0.0
C282 C 0.84483 0.97853 0.04902 0.0
C283 C 0.85443 0.00474 0.00611 0.0
C284 C 0.83582 0.02831 0.00597 0.0
C285 C 0.80712 0.02426 0.04158 0.0
C286 C 0.86416 0.95311 0.05207 0.0
C287 C 0.84505 0.05664 0.96117 0.0
C288 C 0.93442 0.02082 0.92712 0.0
C289 C 0.93281 0.00907 0.84467 0.0
C290 C 0.90926 0.01914 0.9811 0.0
C291 C 0.88178 0.00583 0.95157 0.0
C292 C 0.87999 0.99423 0.86817 0.0
C293 C 0.90554 0.99579 0.81606 0.0
C294 C 0.91217 0.03118 0.06998 0.0
C295 C 0.85103 0.98018 0.83378 0.0
H296 H 0.80752 0.95388 0.10996 0.0
H297 H 0.79216 0.04152 0.03666 0.0
H298 H 0.86347 0.94005 0.99161 0.0
H299 H 0.8876 0.96171 0.0625 0.0
H300 H 0.85645 0.93766 0.10175 0.0
H301 H 0.82977 0.07427 0.97605 0.0
H302 H 0.86785 0.06578 0.97726 0.0
H303 H 0.84512 0.0514 0.89308 0.0
H304 H 0.95552 0.03064 0.95028 0.0
H305 H 0.9041 0.98655 0.75263 0.0
H306 H 0.90557 0.01296 0.11284 0.0
H307 H 0.89696 0.0489 0.08358 0.0
H308 H 0.93515 0.0407 0.08349 0.0
H309 H 0.84255 0.96059 0.86996 0.0
H310 H 0.85331 0.97256 0.76733 0.0
H311 H 0.83413 0.99656 0.83985 0.0
C312 C 0.58264 0.82782 0.17027 0.0
C313 C 0.60245 0.80921 0.12997 0.0
C314 C 0.57701 0.85487 0.13674 0.0
C315 C 0.59162 0.86347 0.06134 0.0
C316 C 0.61418 0.84657 0.02603 0.0
C317 C 0.61912 0.81941 0.06029 0.0
C318 C 0.55311 0.87247 0.17712 0.0
C319 C 0.63109 0.85565 0.94752 0.0
C320 C 0.54428 0.8942 0.90386 0.0
C321 C 0.55292 0.92502 0.91085 0.0
C322 C 0.55655 0.87423 0.95338 0.0
C323 C 0.57861 0.88526 0.01029 0.0
C324 C 0.58754 0.91647 0.01774 0.0
C325 C 0.57417 0.9361 0.96859 0.0
C326 C 0.54586 0.84121 0.94439 0.0
C327 C 0.61171 0.92906 0.07535 0.0
H328 H 0.56971 0.82011 0.22428 0.0
H329 H 0.63495 0.80539 0.03004 0.0
H330 H 0.56013 0.8969 0.17864 0.0
H331 H 0.53281 0.86847 0.1401 0.0
H332 H 0.54741 0.86578 0.24157 0.0
H333 H 0.65153 0.84394 0.93759 0.0
H334 H 0.61681 0.84988 0.89342 0.0
H335 H 0.63726 0.88025 0.94941 0.0
H336 H 0.5277 0.88561 0.8596 0.0
H337 H 0.58078 0.95996 0.974 0.0
H338 H 0.53764 0.83292 0.00547 0.0
H339 H 0.56451 0.82815 0.9228 0.0
H340 H 0.52776 0.83655 0.89953 0.0
H341 H 0.60864 0.91905 0.13683 0.0
H342 H 0.61253 0.95388 0.08433 0.0
H343 H 0.63348 0.92332 0.04865 0.0
C344 C 0.69716 0.41673 0.97048 0.0
C345 C 0.70568 0.43369 0.04299 0.0
C346 C 0.67215 0.42252 0.92733 0.0
C347 C 0.65495 0.44573 0.95752 0.0
C348 C 0.66269 0.46219 0.03245 0.0
C349 C 0.68798 0.456 0.07424 0.0
C350 C 0.66471 0.40438 0.8479 0.0
C351 C 0.64483 0.487 0.06699 0.0
C352 C 0.61114 0.48288 0.8015 0.0
C353 C 0.58229 0.46909 0.81452 0.0
C354 C 0.6349 0.47542 0.84741 0.0
C355 C 0.62979 0.45371 0.90837 0.0
C356 C 0.60081 0.43946 0.92131 0.0
C357 C 0.57746 0.44722 0.87411 0.0
C358 C 0.6655 0.49094 0.83101 0.0
C359 C 0.59439 0.41628 0.98581 0.0
H360 H 0.71041 0.39911 0.9466 0.0
H361 H 0.69448 0.46941 0.1297 0.0
H362 H 0.6414 0.39423 0.85125 0.0
H363 H 0.66678 0.41931 0.79484 0.0
H364 H 0.67947 0.38618 0.83487 0.0
H365 H 0.65247 0.49626 0.12867 0.0
H366 H 0.64659 0.50549 0.02346 0.0
H367 H 0.62102 0.47864 0.07309 0.0
H368 H 0.61521 0.49978 0.75573 0.0
H369 H 0.55528 0.43651 0.88519 0.0
H370 H 0.68123 0.47407 0.81286 0.0
H371 H 0.6737 0.5032 0.88853 0.0
H372 H 0.66586 0.50711 0.78104 0.0
H373 H 0.60826 0.39742 0.97246 0.0
H374 H 0.5707 0.40716 0.98811 0.0
H375 H 0.60027 0.42636 0.04811 0.0
C376 C 0.92951 0.68424 0.07609 0.0
C377 C 0.91111 0.70221 0.03671 0.0
C378 C 0.9397 0.65871 0.03476 0.0
C379 C 0.9321 0.65157 0.95128 0.0
C380 C 0.91238 0.66864 0.91253 0.0
C381 C 0.90164 0.69338 0.95637 0.0
C382 C 0.95982 0.64032 0.0791 0.0
C383 C 0.90406 0.66191 0.82312 0.0
C384 C 0.9871 0.61074 0.81565 0.0
C385 C 0.97211 0.58206 0.80732 0.0
C386 C 0.9741 0.63377 0.86181 0.0
C387 C 0.94613 0.62738 0.90283 0.0
C388 C 0.93145 0.59807 0.89653 0.0
C389 C 0.94442 0.57586 0.84745 0.0
C390 C 0.99001 0.66501 0.86548 0.0
C391 C 0.90221 0.59012 0.94196 0.0
H392 H 0.93734 0.69089 0.13764 0.0
H393 H 0.88687 0.70669 0.92617 0.0
H394 H 0.95264 0.61601 0.06985 0.0
H395 H 0.98277 0.64411 0.05284 0.0
H396 H 0.9602 0.64627 0.14688 0.0
H397 H 0.88752 0.6766 0.80329 0.0
H398 H 0.92421 0.66513 0.78204 0.0
H399 H 0.89485 0.63818 0.8137 0.0
H400 H 0.00852 0.61531 0.78423 0.0
H401 H 0.93315 0.55339 0.84168 0.0
H402 H 0.99497 0.67224 0.93075 0.0
H403 H 0.97553 0.68112 0.84224 0.0
H404 H 0.01113 0.66639 0.82801 0.0
H405 H 0.90435 0.59593 0.0094 0.0
H406 H 0.89447 0.56588 0.93351 0.0
H407 H 0.88497 0.60337 0.91947 0.0
C408 C 0.10943 0.16399 0.37072 0.0
C409 C 0.09914 0.19189 0.39421 0.0
C410 C 0.0962 0.13744 0.40392 0.0
C411 C 0.07287 0.13896 0.46437 0.0
C412 C 0.06414 0.16716 0.49372 0.0
C413 C 0.07704 0.19321 0.45755 0.0
C414 C 0.10588 0.10786 0.36923 0.0
C415 C 0.03987 0.16967 0.55989 0.0
C416 C 0.0155 0.07193 0.4839 0.0
C417 C 0.02418 0.05971 0.55618 0.0
C418 C 0.03121 0.09778 0.45304 0.0
C419 C 0.05653 0.11116 0.49462 0.0
C420 C 0.06594 0.09828 0.56591 0.0
C421 C 0.04947 0.07286 0.59606 0.0
C422 C 0.02085 0.11069 0.37584 0.0
C423 C 0.09387 0.11086 0.60884 0.0
H424 H 0.12688 0.16261 0.32323 0.0
H425 H 0.06835 0.21434 0.47579 0.0
H426 H 0.10265 0.09019 0.4151 0.0
H427 H 0.0924 0.10016 0.31469 0.0
H428 H 0.12952 0.11027 0.34771 0.0
H429 H 0.03737 0.19336 0.58073 0.0
H430 H 0.01845 0.15946 0.53529 0.0
H431 H 0.04456 0.15715 0.6147 0.0
H432 H 0.9963 0.06136 0.45183 0.0
H433 H 0.05725 0.06284 0.64898 0.0
H434 H 0.0387 0.1109 0.32678 0.0
H435 H 0.01602 0.13428 0.38958 0.0
H436 H 1.00064 0.09771 0.35115 0.0
H437 H 0.11326 0.10932 0.56522 0.0
H438 H 0.0977 0.09871 0.66515 0.0
H439 H 0.09272 0.13497 0.62701 0.0
C440 C 0.34387 0.03822 0.46482 0.0
C441 C 0.32186 0.01853 0.42746 0.0
C442 C 0.36434 0.02743 0.51595 0.0
C443 C 0.36303 0.99617 0.52731 0.0
C444 C 0.33953 0.97659 0.49421 0.0
C445 C 0.31902 0.9881 0.44482 0.0
C446 C 0.38794 0.04929 0.55513 0.0
C447 C 0.33725 0.94323 0.5058 0.0
C448 C 0.43872 0.96881 0.54148 0.0
C449 C 0.44072 0.96691 0.62713 0.0
C450 C 0.41279 0.97687 0.50784 0.0
C451 C 0.38867 0.98365 0.56186 0.0
C452 C 0.39014 0.98034 0.64827 0.0
C453 C 0.41614 0.97152 0.67989 0.0
C454 C 0.41153 0.97865 0.41468 0.0
C455 C 0.36495 0.98746 0.70763 0.0
H456 H 0.34563 0.06182 0.45169 0.0
H457 H 0.30189 0.973 0.41537 0.0
H458 H 0.38309 0.05171 0.62296 0.0
H459 H 0.41012 0.0409 0.54675 0.0
H460 H 0.38885 0.07185 0.52928 0.0
H461 H 0.31514 0.93208 0.489 0.0
H462 H 0.35436 0.933 0.46566 0.0
H463 H 0.34142 0.93862 0.57104 0.0
H464 H 0.45774 0.96474 0.50106 0.0
H465 H 0.4178 0.96996 0.7464 0.0
H466 H 0.40243 -0.00045 0.39817 0.0
H467 H 0.39649 0.95955 0.38963 0.0
H468 H 0.43369 0.97765 0.38331 0.0
H469 H 0.36342 0.01204 0.7117 0.0
H470 H 0.36815 0.98006 0.77108 0.0
H471 H 0.34351 0.97664 0.68483 0.0
C472 C 0.41371 0.32698 0.42062 0.0
C473 C 0.42695 0.30089 0.39523 0.0
C474 C 0.42977 0.35089 0.46369 0.0
C475 C 0.45988 0.34872 0.48093 0.0
C476 C 0.47269 0.32155 0.46086 0.0
C477 C 0.45599 0.29787 0.41832 0.0
C478 C 0.4151 0.37925 0.48555 0.0
C479 C 0.50466 0.31828 0.47842 0.0
C480 C 0.50651 0.42378 0.48253 0.0
C481 C 0.50688 0.4317 0.56754 0.0
C482 C 0.49234 0.39612 0.45364 0.0
C483 C 0.47854 0.37597 0.51149 0.0
C484 C 0.48067 0.38316 0.59774 0.0
C485 C 0.49489 0.41104 0.62468 0.0
C486 C 0.49075 0.38918 0.3611 0.0
C487 C 0.46685 0.36204 0.66132 0.0
H488 H 0.3912 0.32924 0.40295 0.0
H489 H 0.46638 0.27783 0.39791 0.0
H490 H 0.41868 0.38661 0.55153 0.0
H491 H 0.42523 0.39752 0.44678 0.0
H492 H 0.39086 0.37628 0.47528 0.0
H493 H 0.5097 0.29448 0.47218 0.0
H494 H 0.5193 0.33128 0.43377 0.0
H495 H 0.51018 0.32744 0.54184 0.0
H496 H 0.51591 0.43985 0.43853 0.0
H497 H 0.49638 0.41686 0.6905 0.0
H498 H 0.4674 0.3886 0.34208 0.0
H499 H 0.49828 0.36672 0.34476 0.0
H500 H 0.50448 0.4061 0.32476 0.0
H501 H 0.44233 0.36041 0.65786 0.0
H502 H 0.47304 0.36963 0.72563 0.0
H503 H 0.47371 0.33914 0.64801 0.0
C504 C 0.19249 0.55927 0.47413 0.0
C505 C 0.20339 0.58399 0.429 0.0
C506 C 0.16406 0.55786 0.5116 0.0
C507 C 0.14658 0.58213 0.50497 0.0
C508 C 0.15894 0.60857 0.46758 0.0
C509 C 0.18713 0.60898 0.42848 0.0
C510 C 0.15162 0.52902 0.54975 0.0
C511 C 0.14146 0.63534 0.46232 0.0
C512 C 0.06533 0.55626 0.48142 0.0
C513 C 0.05488 0.55836 0.56384 0.0
C514 C 0.095 0.56545 0.46069 0.0
C515 C 0.11424 0.57755 0.52408 0.0
C516 C 0.10301 0.58186 0.60646 0.0
C517 C 0.07337 0.57182 0.62558 0.0
C518 C 0.10624 0.55998 0.37224 0.0
C519 C 0.12263 0.59555 0.67491 0.0
H520 H 0.20506 0.53984 0.47339 0.0
H521 H 0.19571 0.62806 0.3932 0.0
H522 H 0.1396 0.53364 0.60945 0.0
H523 H 0.13549 0.51665 0.5071 0.0
H524 H 0.16924 0.51426 0.56091 0.0
H525 H 0.15617 0.65601 0.44958 0.0
H526 H 0.12565 0.63108 0.41116 0.0
H527 H 0.12838 0.63928 0.52079 0.0
H528 H 0.05088 0.54545 0.43428 0.0
H529 H 0.06493 0.57349 0.68931 0.0
H530 H 0.12274 0.54319 0.37046 0.0
H531 H 0.11759 0.58095 0.34811 0.0
H532 H 0.08812 0.55158 0.32995 0.0
H533 H 0.14018 0.58071 0.68563 0.0
H534 H 0.10997 0.59914 0.73437 0.0
H535 H 0.13393 0.61737 0.65631 0.0
C536 C 0.90914 0.8408 0.02748 0.0
C537 C 0.91932 0.81255 0.0086 0.0
C538 C 0.92339 0.86673 0.99334 0.0
C539 C 0.94791 0.86421 0.93737 0.0
C540 C 0.95693 0.83561 0.91325 0.0
C541 C 0.94279 0.81017 0.94989 0.0
C542 C 0.91318 0.8969 0.02062 0.0
C543 C 0.98247 0.83202 0.85171 0.0
C544 C 0.97457 0.92846 0.8021 0.0
C545 C 0.999 0.94207 0.84506 0.0
C546 C 0.95734 0.90346 0.83213 0.0
C547 C 0.96509 0.89149 0.90665 0.0
C548 C 0.98965 0.9052 0.95099 0.0
C549 C 0.00613 0.9306 0.92003 0.0
C550 C 0.93054 0.89022 0.78502 0.0
C551 C 0.99847 0.89306 0.0311 0.0
H552 H 0.89072 0.84282 0.07166 0.0
H553 H 0.95131 0.78867 0.93563 0.0
H554 H 0.93023 0.90966 0.05961 0.0
H555 H 0.91043 0.91033 0.96611 0.0
H556 H 0.89191 0.89469 0.0573 0.0
H557 H 0.98547 0.80808 0.83547 0.0
H558 H 0.97881 0.84327 0.79378 0.0
H559 H 0.0033 0.84297 0.87816 0.0
H560 H 0.968 0.93787 0.74679 0.0
H561 H 0.02472 0.94145 0.95424 0.0
H562 H 0.91021 0.89132 0.82507 0.0
H563 H 0.93253 0.86618 0.7679 0.0
H564 H 0.92763 0.90215 0.72768 0.0
H565 H 0.97964 0.89279 0.07715 0.0
H566 H 0.01793 0.90653 0.05847 0.0
H567 H 0.00391 0.86954 0.01979 0.0
C568 C 0.69755 0.02526 0.9414 0.0
C569 C 0.69683 0.99503 0.95983 0.0
C570 C 0.67622 0.03491 0.89112 0.0
C571 C 0.65405 0.01365 0.85814 0.0
C572 C 0.65478 0.98269 0.87104 0.0
C573 C 0.67605 0.97376 0.92294 0.0
C574 C 0.67622 0.06803 0.87819 0.0
C575 C 0.63262 0.95913 0.83229 0.0
C576 C 0.57679 0.03639 0.83746 0.0
C577 C 0.57552 0.03833 0.75159 0.0
C578 C 0.60278 0.02953 0.87319 0.0
C579 C 0.62778 0.02406 0.82113 0.0
C580 C 0.6269 0.02711 0.73446 0.0
C581 C 0.60076 0.03465 0.70067 0.0
C582 C 0.60326 0.02755 0.96643 0.0
C583 C 0.65296 0.02109 0.67712 0.0
H584 H 0.71369 0.04161 0.97053 0.0
H585 H 0.67594 0.95034 0.93679 0.0
H586 H 0.67271 0.07191 0.81206 0.0
H587 H 0.65768 0.07699 0.91547 0.0
H588 H 0.69728 0.08091 0.89731 0.0
H589 H 0.6328 0.93706 0.86045 0.0
H590 H 0.60982 0.96614 0.83812 0.0
H591 H 0.63818 0.95618 0.76494 0.0
H592 H 0.55718 0.03956 0.87639 0.0
H593 H 0.59959 0.03607 0.63396 0.0
H594 H 0.61854 0.04623 0.99268 0.0
H595 H 0.61172 0.0063 0.98285 0.0
H596 H 0.58096 0.02893 0.99664 0.0
H597 H 0.67371 0.03324 0.70075 0.0
H598 H 0.6498 0.02782 0.61299 0.0
H599 H 0.65587 0.99678 0.67464 0.0
C600 C 0.56773 0.70234 0.98579 0.0
C601 C 0.58534 0.69852 0.05367 0.0
C602 C 0.55544 0.67747 0.93737 0.0
C603 C 0.55936 0.64808 0.9604 0.0
C604 C 0.57794 0.64411 0.02669 0.0
C605 C 0.59178 0.66932 0.06953 0.0
C606 C 0.53723 0.68288 0.86408 0.0
C607 C 0.58193 0.61328 0.05585 0.0
C608 C 0.50075 0.58412 0.90495 0.0
C609 C 0.51641 0.56697 0.84661 0.0
C610 C 0.51431 0.61092 0.94181 0.0
C611 C 0.54375 0.62128 0.91706 0.0
C612 C 0.55916 0.60456 0.85577 0.0
C613 C 0.5457 0.57715 0.82365 0.0
C614 C 0.49759 0.62751 0.00948 0.0
C615 C 0.59008 0.6153 0.82489 0.0
H616 H 0.56243 0.72456 0.97209 0.0
H617 H 0.60654 0.66593 0.11878 0.0
H618 H 0.53844 0.6649 0.81432 0.0
H619 H 0.51368 0.68346 0.88489 0.0
H620 H 0.54472 0.70481 0.83746 0.0
H621 H 0.59452 0.61433 0.11394 0.0
H622 H 0.55997 0.60063 0.06723 0.0
H623 H 0.59395 0.60031 0.00737 0.0
H624 H 0.47827 0.57612 0.92375 0.0
H625 H 0.55838 0.56355 0.78079 0.0
H626 H 0.49452 0.65034 0.99022 0.0
H627 H 0.51059 0.6301 0.06688 0.0
H628 H 0.47544 0.61575 0.02427 0.0
H629 H 0.59174 0.63966 0.81399 0.0
H630 H 0.59648 0.60297 0.76635 0.0
H631 H 0.60639 0.6119 0.87216 0.0
C632 C 0.83979 0.44174 0.04764 0.0
C633 C 0.8151 0.42438 0.01454 0.0
C634 C 0.8669 0.4449 0.00376 0.0
C635 C 0.86937 0.43109 0.92323 0.0
C636 C 0.84463 0.41361 0.88871 0.0
C637 C 0.81767 0.41035 0.93507 0.0
C638 C 0.89258 0.46413 0.04258 0.0
C639 C 0.84647 0.39916 0.80218 0.0
C640 C 0.92787 0.4764 0.80058 0.0
C641 C 0.95284 0.46081 0.80913 0.0
C642 C 0.8999 0.46535 0.83063 0.0
C643 C 0.89691 0.43839 0.87298 0.0
C644 C 0.92179 0.42185 0.87946 0.0
C645 C 0.94964 0.43332 0.84726 0.0
C646 C 0.87409 0.48389 0.8227 0.0
C647 C 0.91935 0.39312 0.92491 0.0
H648 H 0.83779 0.45354 0.10778 0.0
H649 H 0.79866 0.39697 0.90922 0.0
H650 H 0.91262 0.45172 0.04053 0.0
H651 H 0.898 0.48456 0.00691 0.0
H652 H 0.8876 0.47128 0.10824 0.0
H653 H 0.82607 0.38437 0.78687 0.0
H654 H 0.84983 0.41679 0.75608 0.0
H655 H 0.86582 0.38575 0.79551 0.0
H656 H 0.93025 0.49803 0.77295 0.0
H657 H 0.96897 0.42129 0.85404 0.0
H658 H 0.86862 0.49473 0.88412 0.0
H659 H 0.8541 0.46948 0.80249 0.0
H660 H 0.87915 0.50178 0.77772 0.0
H661 H 0.91687 0.39842 0.9927 0.0
H662 H 0.93925 0.38065 0.91346 0.0
H663 H 0.89939 0.37836 0.90593 0.0
C664 C 0.07545 0.22384 0.09405 0.0
C665 C 0.10474 0.2313 0.11762 0.0
C666 C 0.06902 0.20287 0.02817 0.0
C667 C 0.09264 0.19005 0.98385 0.0
C668 C 0.12228 0.20158 0.99854 0.0
C669 C 0.12809 0.22167 0.06706 0.0
C670 C 0.03707 0.19142 0.01411 0.0
C671 C 0.14789 0.19013 0.94808 0.0
C672 C 0.07881 0.10607 0.94239 0.0
C673 C 0.06724 0.10438 0.8631 0.0
C674 C 0.0878 0.13396 0.98156 0.0
C675 C 0.08657 0.16057 0.93823 0.0
C676 C 0.07687 0.15864 0.85552 0.0
C677 C 0.0664 0.13055 0.81988 0.0
C678 C 0.09702 0.13496 0.07098 0.0
C679 C 0.07642 0.18599 0.80509 0.0
H680 H 0.05749 0.23126 0.13396 0.0
H681 H 0.15076 0.22751 0.08566 0.0
H682 H 0.03234 0.19087 0.94709 0.0
H683 H 0.03288 0.16811 0.03487 0.0
H684 H 0.02137 0.20548 0.04872 0.0
H685 H 0.16819 0.20608 0.95293 0.0
H686 H 0.15291 0.16837 0.97124 0.0
H687 H 0.14224 0.18633 0.88168 0.0
H688 H 0.07922 0.08571 0.97561 0.0
H689 H 0.05743 0.1291 0.75822 0.0
H690 H 0.08249 0.14885 0.11049 0.0
H691 H 0.12008 0.1455 0.07627 0.0
H692 H 0.09579 0.11227 0.09624 0.0
H693 H 0.0539 0.19379 0.80971 0.0
H694 H 0.08136 0.1804 0.73834 0.0
H695 H 0.09261 0.2047 0.82675 0.0
C696 C 0.31544 0.0243 0.07456 0.0
C697 C 0.31816 0.04675 0.13838 0.0
C698 C 0.33738 0.0228 0.0108 0.0
C699 C 0.36235 0.04451 0.01058 0.0
C700 C 0.36363 0.06885 0.07057 0.0
C701 C 0.34159 0.06957 0.13403 0.0
C702 C 0.33508 0.99656 0.94787 0.0
C703 C 0.38944 0.09288 0.07144 0.0
C704 C 0.43617 0.01764 0.93481 0.0
C705 C 0.43929 0.02794 0.85402 0.0
C706 C 0.4113 0.02301 0.98599 0.0
C707 C 0.38895 0.03932 0.95617 0.0
C708 C 0.39212 0.05023 0.87522 0.0
C709 C 0.41714 0.04425 0.82494 0.0
C710 C 0.40876 0.01082 0.07185 0.0
C711 C 0.36901 0.06795 0.84137 0.0
H712 H 0.29755 0.00645 0.07852 0.0
H713 H 0.34373 0.08688 0.1837 0.0
H714 H 0.33681 0.00477 0.88408 0.0
H715 H 0.35374 0.98265 0.95454 0.0
H716 H 0.31388 0.98211 0.95498 0.0
H717 H 0.38642 0.11103 0.11987 0.0
H718 H 0.41022 0.08284 0.08318 0.0
H719 H 0.39235 0.1029 0.00989 0.0
H720 H 0.45298 0.0049 0.95794 0.0
H721 H 0.41915 0.05219 0.76246 0.0
H722 H 0.38813 0.99548 0.07808 0.0
H723 H 0.4073 0.02947 0.11951 0.0
H724 H 0.42791 0.99839 0.08549 0.0
H725 H 0.34791 0.05343 0.83424 0.0
H726 H 0.37594 0.07695 0.78002 0.0
H727 H 0.36442 0.08694 0.88546 0.0
C728 C 0.37446 0.30669 0.10334 0.0
C729 C 0.39417 0.28474 0.10916 0.0
C730 C 0.3796 0.32876 0.04469 0.0
C731 C 0.40521 0.32887 0.99165 0.0
C732 C 0.42292 0.30446 0.99024 0.0
C733 C 0.4171 0.28252 0.0492 0.0
C734 C 0.35977 0.35397 0.04707 0.0
C735 C 0.45027 0.30354 0.93418 0.0
C736 C 0.42223 0.3892 0.83461 0.0
C737 C 0.44118 0.41019 0.87963 0.0
C738 C 0.40999 0.3626 0.87007 0.0
C739 C 0.41692 0.35709 0.9524 0.0
C740 C 0.43562 0.37863 0.99853 0.0
C741 C 0.44747 0.40493 0.96152 0.0
C742 C 0.39016 0.34024 0.81911 0.0
C743 C 0.44355 0.37369 0.08672 0.0
H744 H 0.35675 0.30836 0.15004 0.0
H745 H 0.43247 0.26566 0.05423 0.0
H746 H 0.37057 0.37374 0.08246 0.0
H747 H 0.35613 0.36088 0.98349 0.0
H748 H 0.33791 0.34751 0.07786 0.0
H749 H 0.45794 0.2807 0.92822 0.0
H750 H 0.44614 0.31084 0.87136 0.0
H751 H 0.46841 0.31922 0.96064 0.0
H752 H 0.41732 0.39335 0.77118 0.0
H753 H 0.46216 0.42115 0.99631 0.0
H754 H 0.36893 0.33445 0.85367 0.0
H755 H 0.40098 0.31918 0.80752 0.0
H756 H 0.38529 0.34887 0.75825 0.0
H757 H 0.42311 0.37066 0.12667 0.0
H758 H 0.45826 0.39271 0.11395 0.0
H759 H 0.45494 0.35292 0.08832 0.0
C760 C 0.21974 0.58539 0.09838 0.0
C761 C 0.23132 0.56227 0.13834 0.0
C762 C 0.19901 0.57902 0.03573 0.0
C763 C 0.18963 0.54875 0.01247 0.0
C764 C 0.20375 0.52545 0.0462 0.0
C765 C 0.22445 0.53251 0.10903 0.0
C766 C 0.18479 0.60463 0.00138 0.0
C767 C 0.19482 0.49291 0.02232 0.0
C768 C 0.10801 0.53204 0.96317 0.0
C769 C 0.10895 0.52934 0.8762 0.0
C770 C 0.13412 0.5382 0.00783 0.0
C771 C 0.162 0.54154 0.96451 0.0
C772 C 0.16307 0.53872 0.8765 0.0
C773 C 0.13651 0.53273 0.83339 0.0
C774 C 0.13183 0.54134 0.10162 0.0
C775 C 0.19223 0.54196 0.82796 0.0
H776 H 0.22481 0.60841 0.12169 0.0
H777 H 0.23301 0.51457 0.14065 0.0
H778 H 0.1824 0.60122 0.93323 0.0
H779 H 0.16223 0.60558 0.03002 0.0
H780 H 0.19779 0.62658 0.01475 0.0
H781 H 0.21126 0.47806 0.04188 0.0
H782 H 0.17306 0.48592 0.0528 0.0
H783 H 0.19224 0.48958 0.95419 0.0
H784 H 0.08676 0.52944 0.99647 0.0
H785 H 0.13732 0.5305 0.76611 0.0
H786 H 0.1416 0.56394 0.12346 0.0
H787 H 0.14463 0.52462 0.12892 0.0
H788 H 0.10852 0.53813 0.12583 0.0
H789 H 0.20427 0.56423 0.84307 0.0
H790 H 0.18925 0.53953 0.75974 0.0
H791 H 0.20647 0.52474 0.84587 0.0
C792 C 0.88587 0.78501 0.33649 0.0
C793 C 0.90782 0.77339 0.28445 0.0
C794 C 0.89379 0.80441 0.40499 0.0
C795 C 0.92417 0.8135 0.41753 0.0
C796 C 0.94614 0.79865 0.3716 0.0
C797 C 0.93755 0.77817 0.30635 0.0
C798 C 0.86978 0.81771 0.45806 0.0
C799 C 0.97879 0.80737 0.38343 0.0
C800 C 0.94325 0.89696 0.45806 0.0
C801 C 0.956 0.89792 0.53571 0.0
C802 C 0.93252 0.8695 0.4195 0.0
C803 C 0.9329 0.84264 0.46232 0.0
C804 C 0.94415 0.84389 0.54332 0.0
C805 C 0.95658 0.87146 0.57778 0.0
C806 C 0.92222 0.86918 0.33123 0.0
C807 C 0.94395 0.8164 0.59355 0.0
H808 H 0.86285 0.78118 0.31937 0.0
H809 H 0.9544 0.76913 0.26539 0.0
H810 H 0.87646 0.8211 0.52374 0.0
H811 H 0.86595 0.83991 0.43545 0.0
H812 H 0.84854 0.8031 0.45536 0.0
H813 H 0.99295 0.7927 0.34512 0.0
H814 H 0.98452 0.83092 0.36602 0.0
H815 H 0.98415 0.8061 0.44955 0.0
H816 H 0.94313 0.91752 0.4256 0.0
H817 H 0.9666 0.87232 0.63801 0.0
H818 H 0.89837 0.86097 0.32883 0.0
H819 H 0.93467 0.85365 0.29053 0.0
H820 H 0.9253 0.89177 0.30521 0.0
H821 H 0.92804 0.79764 0.57069 0.0
H822 H 0.93825 0.82199 0.65983 0.0
H823 H 0.96653 0.80873 0.59143 0.0
C824 C 0.70373 0.98911 0.31127 0.0
C825 C 0.70297 0.96656 0.24762 0.0
C826 C 0.6812 0.98913 0.37365 0.0
C827 C 0.65773 0.96574 0.3729 0.0
C828 C 0.65862 0.94135 0.31354 0.0
C829 C 0.68115 0.94215 0.25123 0.0
C830 C 0.68124 0.01543 0.4362 0.0
C831 C 0.63448 0.91561 0.3117 0.0
C832 C 0.6016 0.96322 0.5554 0.0
C833 C 0.57851 0.97776 0.5243 0.0
C834 C 0.62734 0.95863 0.5067 0.0
C835 C 0.63026 0.9691 0.42525 0.0
C836 C 0.60689 0.98343 0.39319 0.0
C837 C 0.58134 0.98748 0.44287 0.0
C838 C 0.65149 0.94286 0.54272 0.0
C839 C 0.60912 0.99508 0.30668 0.0
H840 H 0.72038 0.00814 0.30792 0.0
H841 H 0.68049 0.92478 0.20163 0.0
H842 H 0.66068 0.02676 0.43191 0.0
H843 H 0.68163 0.00736 0.49987 0.0
H844 H 0.70066 0.0322 0.42697 0.0
H845 H 0.63968 0.89724 0.26605 0.0
H846 H 0.63103 0.90637 0.37417 0.0
H847 H 0.61323 0.92377 0.29506 0.0
H848 H 0.59982 0.95575 0.61838 0.0
H849 H 0.56378 0.99881 0.41814 0.0
H850 H 0.65726 0.92385 0.50021 0.0
H851 H 0.64492 0.93418 0.60468 0.0
H852 H 0.67183 0.95857 0.54925 0.0
H853 H 0.62881 0.01172 0.30085 0.0
H854 H 0.58912 0.00591 0.29124 0.0
H855 H 0.61213 0.97642 0.26003 0.0
C856 C 0.56634 0.72219 0.37596 0.0
C857 C 0.59493 0.73223 0.34729 0.0
C858 C 0.562 0.69923 0.43197 0.0
C859 C 0.58698 0.68692 0.46156 0.0
C860 C 0.61582 0.70061 0.44354 0.0
C861 C 0.61955 0.72289 0.38502 0.0
C862 C 0.53081 0.68565 0.45074 0.0
C863 C 0.64282 0.6896 0.47926 0.0
C864 C 0.56592 0.62536 0.61098 0.0
C865 C 0.5666 0.5996 0.55785 0.0
C866 C 0.57486 0.65395 0.5825 0.0
C867 C 0.58298 0.65689 0.49757 0.0
C868 C 0.58427 0.63078 0.44399 0.0
C869 C 0.57668 0.60233 0.47545 0.0
C870 C 0.57418 0.68075 0.64315 0.0
C871 C 0.59188 0.63291 0.35226 0.0
H872 H 0.54738 0.72937 0.34595 0.0
H873 H 0.64167 0.73062 0.36245 0.0
H874 H 0.52766 0.66265 0.4212 0.0
H875 H 0.52703 0.68375 0.51866 0.0
H876 H 0.51382 0.69911 0.42746 0.0
H877 H 0.66249 0.70633 0.47408 0.0
H878 H 0.63856 0.68461 0.54561 0.0
H879 H 0.64808 0.66852 0.44508 0.0
H880 H 0.55795 0.62325 0.67481 0.0
H881 H 0.57693 0.58237 0.43442 0.0
H882 H 0.55106 0.6868 0.65156 0.0
H883 H 0.58847 0.70061 0.62205 0.0
H884 H 0.58154 0.67519 0.70493 0.0
H885 H 0.5756 0.64571 0.32303 0.0
H886 H 0.59185 0.6105 0.31926 0.0
H887 H 0.6141 0.64523 0.34304 0.0
C888 C 0.77282 0.45992 0.32615 0.0
C889 C 0.77065 0.4303 0.29277 0.0
C890 C 0.79364 0.46945 0.38699 0.0
C891 C 0.81296 0.44899 0.41297 0.0
C892 C 0.80746 0.41814 0.38909 0.0
C893 C 0.7858 0.40905 0.33055 0.0
C894 C 0.79729 0.5021 0.41605 0.0
C895 C 0.82712 0.39539 0.41604 0.0
C896 C 0.89399 0.47947 0.42986 0.0
C897 C 0.89821 0.47888 0.51516 0.0
C898 C 0.8663 0.46976 0.39627 0.0
C899 C 0.84191 0.46042 0.44986 0.0
C900 C 0.8459 0.46088 0.53667 0.0
C901 C 0.8742 0.46943 0.56798 0.0
C902 C 0.86342 0.46878 0.30302 0.0
C903 C 0.82072 0.45197 0.59702 0.0
H904 H 0.76101 0.47643 0.29771 0.0
H905 H 0.78394 0.38607 0.30512 0.0
H906 H 0.8022 0.50449 0.48318 0.0
H907 H 0.81621 0.51378 0.3813 0.0
H908 H 0.77709 0.51339 0.40547 0.0
H909 H 0.81806 0.37199 0.39927 0.0
H910 H 0.84943 0.39947 0.38557 0.0
H911 H 0.82996 0.39768 0.48413 0.0
H912 H 0.9126 0.48666 0.38906 0.0
H913 H 0.87742 0.46906 0.6342 0.0
H914 H 0.84687 0.48393 0.28639 0.0
H915 H 0.85541 0.44572 0.27998 0.0
H916 H 0.88478 0.47561 0.27009 0.0
H917 H 0.79891 0.45642 0.57375 0.0
H918 H 0.82395 0.46414 0.65839 0.0
H919 H 0.82017 0.42763 0.60705 0.0
loop_
_geom_bond_atom_site_label_1
_geom_bond_atom_site_label_2
_geom_bond_distance
_geom_bond_site_symmetry_2
_ccdc_geom_bond_type
H0 C3 0.931 . S
H1 C6 0.928 . S
H2 C8 0.930 . S
C3 H0 0.931 . S
C3 C4 1.413 . S
C3 C5 1.360 1_554 S
C4 C3 1.413 . S
C4 C8 1.429 . S
C5 C3 1.360 1_556 S
C5 C6 1.372 . S
C6 H1 0.928 . S
C6 C5 1.372 . S
C6 C7 1.404 1_556 S
C7 C6 1.404 1_554 S
C7 C8 1.391 . S
C8 H2 0.930 . S
C8 C4 1.429 . S
C8 C7 1.391 . S
H9 C12 0.931 . S
H10 C15 0.928 . S
H11 C17 0.930 . S
C12 H9 0.931 . S
C12 C13 1.413 . S
C12 C14 1.360 1_554 S
C13 C12 1.413 . S
C13 C17 1.429 . S
C14 C12 1.360 1_556 S
C14 C15 1.372 . S
C15 H10 0.928 . S
C15 C14 1.372 . S
C15 C16 1.404 1_556 S
C16 C15 1.404 1_554 S
C16 C17 1.391 . S
C17 H11 0.930 . S
C17 C13 1.429 . S
C17 C16 1.391 . S
H18 C21 0.931 . S
H19 C24 0.928 1_556 S
H20 C26 0.933 . S
C21 H18 0.931 . S
C21 C22 1.414 . S
C21 C23 1.360 . S
C22 C21 1.414 . S
C22 C26 1.430 1_565 S
C23 C21 1.360 . S
C23 C24 1.374 . S
C24 H19 0.928 1_554 S
C24 C23 1.374 . S
C24 C25 1.403 . S
C25 C24 1.403 . S
C25 C26 1.391 1_565 S
C26 H20 0.933 . S
C26 C22 1.430 1_545 S
C26 C25 1.391 1_545 S
H27 C30 0.931 . S
H28 C33 0.928 . S
H29 C35 0.930 . S
C30 H27 0.931 . S
C30 C31 1.413 . S
C30 C32 1.360 . S
C31 C30 1.413 . S
C31 C35 1.429 1_554 S
C32 C30 1.360 . S
C32 C33 1.372 . S
C33 H28 0.928 . S
C33 C32 1.372 . S
C33 C34 1.404 . S
C34 C33 1.404 . S
C34 C35 1.391 1_554 S
C35 H29 0.930 . S
C35 C31 1.429 1_556 S
C35 C34 1.391 1_556 S
H36 C39 0.931 . S
H37 C42 0.928 . S
H38 C44 0.930 . S
C39 H36 0.931 . S
C39 C40 1.413 . S
C39 C41 1.360 . S
C40 C39 1.413 . S
C40 C44 1.429 . S
C41 C39 1.360 . S
C41 C42 1.372 . S
C42 H37 0.928 . S
C42 C41 1.372 . S
C42 C43 1.404 . S
C43 C42 1.404 . S
C43 C44 1.391 . S
C44 H38 0.930 . S
C44 C40 1.429 . S
C44 C43 1.391 . S
H45 C48 0.931 . S
H46 C51 0.928 . S
H47 C53 0.930 . S
C48 H45 0.931 . S
C48 C49 1.413 . S
C48 C50 1.360 . S
C49 C48 1.413 . S
C49 C53 1.429 . S
C50 C48 1.360 . S
C50 C51 1.372 . S
C51 H46 0.928 . S
C51 C50 1.372 . S
C51 C52 1.404 . S
C52 C51 1.404 . S
C52 C53 1.391 . S
C53 H47 0.930 . S
C53 C49 1.429 . S
C53 C52 1.391 . S
H54 C57 0.931 . S
H55 C60 0.928 . S
H56 C62 0.930 . S
C57 H54 0.931 . S
C57 C58 1.413 . S
C57 C59 1.360 . S
C58 C57 1.413 . S
C58 C62 1.429 . S
C59 C57 1.360 . S
C59 C60 1.372 . S
C60 H55 0.928 . S
C60 C59 1.372 . S
C60 C61 1.404 . S
C61 C60 1.404 . S
C61 C62 1.391 . S
C62 H56 0.930 . S
C62 C58 1.429 . S
C62 C61 1.391 . S
H63 C66 0.931 . S
H64 C69 0.928 . S
H65 C71 0.930 . S
C66 H63 0.931 . S
C66 C67 1.413 . S
C66 C68 1.360 . S
C67 C66 1.413 . S
C67 C71 1.429 . S
C68 C66 1.360 . S
C68 C69 1.372 . S
C69 H64 0.928 . S
C69 C68 1.372 . S
C69 C70 1.404 . S
C70 C69 1.404 . S
C70 C71 1.391 . S
C71 H65 0.930 . S
C71 C67 1.429 . S
C71 C70 1.391 . S
Tb72 O75 2.453 1_665 S
Tb72 O76 2.596 1_665 S
Tb72 O77 2.374 1_655 S
Tb72 O85 2.343 . S
Tb72 O87 2.353 1_565 S
Tb72 O89 2.427 . S
Tb72 O90 2.513 . S
C73 O77 1.251 . S
C73 O79 1.263 . S
Tb74 O76 2.343 . S
Tb74 O79 2.353 1_545 S
Tb74 O82 2.427 . S
Tb74 O83 2.513 . S
Tb74 O84 2.453 1_545 S
Tb74 O85 2.596 1_445 S
Tb74 O86 2.374 1_455 S
O75 Tb72 2.453 1_445 S
O75 C91 1.245 . S
O76 Tb72 2.596 1_445 S
O76 Tb74 2.343 . S
O76 C91 1.259 . S
O77 Tb72 2.374 1_455 S
O77 C73 1.251 . S
C78 O82 1.275 . S
C78 O83 1.246 . S
O79 C73 1.263 . S
O79 Tb74 2.353 1_565 S
C80 O84 1.245 1_655 S
C80 O85 1.259 . S
C81 O86 1.250 . S
C81 O87 1.263 . S
O82 Tb74 2.427 . S
O82 C78 1.275 . S
O83 Tb74 2.513 . S
O83 C78 1.246 . S
O84 Tb74 2.453 1_565 S
O84 C80 1.245 1_455 S
O85 Tb72 2.343 . S
O85 Tb74 2.596 1_665 S
O85 C80 1.259 . S
O86 Tb74 2.374 1_655 S
O86 C81 1.250 . S
O87 Tb72 2.353 1_545 S
O87 C81 1.263 . S
C88 O89 1.275 . S
C88 O90 1.246 . S
O89 Tb72 2.427 . S
O89 C88 1.275 . S
O90 Tb72 2.513 . S
O90 C88 1.246 . S
C91 O75 1.245 . S
C91 O76 1.259 . S
Tb92 O95 2.453 . S
Tb92 O96 2.596 1_545 S
Tb92 O97 2.374 . S
Tb92 O105 2.343 . S
Tb92 O107 2.353 . S
Tb92 O109 2.427 . S
Tb92 O110 2.513 . S
C93 O97 1.251 . S
C93 O99 1.263 1_545 S
Tb94 O96 2.343 . S
Tb94 O99 2.353 . S
Tb94 O102 2.427 . S
Tb94 O103 2.513 . S
Tb94 O104 2.453 . S
Tb94 O105 2.596 1_565 S
Tb94 O106 2.374 . S
O95 Tb92 2.453 . S
O95 C111 1.245 . S
O96 Tb92 2.596 1_565 S
O96 Tb94 2.343 . S
O96 C111 1.259 1_565 S
O97 Tb92 2.374 . S
O97 C93 1.251 . S
C98 O102 1.275 . S
C98 O103 1.246 . S
O99 C93 1.263 1_565 S
O99 Tb94 2.353 . S
C100 O104 1.245 . S
C100 O105 1.259 1_565 S
C101 O106 1.250 1_545 S
C101 O107 1.263 . S
O102 Tb94 2.427 . S
O102 C98 1.275 . S
O103 Tb94 2.513 . S
O103 C98 1.246 . S
O104 Tb94 2.453 . S
O104 C100 1.245 . S
O105 Tb92 2.343 . S
O105 Tb94 2.596 1_545 S
O105 C100 1.259 1_545 S
O106 Tb94 2.374 . S
O106 C101 1.250 1_565 S
O107 Tb92 2.353 . S
O107 C101 1.263 . S
C108 O109 1.275 . S
C108 O110 1.246 . S
O109 Tb92 2.427 . S
O109 C108 1.275 . S
O110 Tb92 2.513 . S
O110 C108 1.246 . S
C111 O95 1.245 . S
C111 O96 1.259 1_545 S
Tb112 O115 2.453 . S
Tb112 O116 2.596 . S
Tb112 O117 2.374 . S
Tb112 O125 2.343 . S
Tb112 O127 2.353 . S
Tb112 O129 2.427 . S
Tb112 O130 2.513 . S
C113 O117 1.251 . S
C113 O119 1.263 . S
Tb114 O116 2.343 . S
Tb114 O119 2.353 . S
Tb114 O122 2.427 . S
Tb114 O123 2.513 . S
Tb114 O124 2.453 . S
Tb114 O125 2.596 . S
Tb114 O126 2.374 . S
O115 Tb112 2.453 . S
O115 C131 1.245 . S
O116 Tb112 2.596 . S
O116 Tb114 2.343 . S
O116 C131 1.259 . S
O117 Tb112 2.374 . S
O117 C113 1.251 . S
C118 O122 1.275 . S
C118 O123 1.246 . S
O119 C113 1.263 . S
O119 Tb114 2.353 . S
C120 O124 1.245 . S
C120 O125 1.259 . S
C121 O126 1.250 . S
C121 O127 1.263 . S
O122 Tb114 2.427 . S
O122 C118 1.275 . S
O123 Tb114 2.513 . S
O123 C118 1.246 . S
O124 Tb114 2.453 . S
O124 C120 1.245 . S
O125 Tb112 2.343 . S
O125 Tb114 2.596 . S
O125 C120 1.259 . S
O126 Tb114 2.374 . S
O126 C121 1.250 . S
O127 Tb112 2.353 . S
O127 C121 1.263 . S
C128 O129 1.275 . S
C128 O130 1.246 . S
O129 Tb112 2.427 . S
O129 C128 1.275 . S
O130 Tb112 2.513 . S
O130 C128 1.246 . S
C131 O115 1.245 . S
C131 O116 1.259 . S
Tb132 O135 2.453 1_655 S
Tb132 O136 2.596 1_655 S
Tb132 O137 2.374 1_655 S
Tb132 O145 2.343 . S
Tb132 O147 2.353 . S
Tb132 O149 2.427 . S
Tb132 O150 2.513 . S
C133 O137 1.251 . S
C133 O139 1.263 . S
Tb134 O136 2.343 . S
Tb134 O139 2.353 . S
Tb134 O142 2.427 . S
Tb134 O143 2.513 . S
Tb134 O144 2.453 1_455 S
Tb134 O145 2.596 1_455 S
Tb134 O146 2.387 . S
O135 Tb132 2.453 1_455 S
O135 C151 1.245 . S
O136 Tb132 2.596 1_455 S
O136 Tb134 2.343 . S
O136 C151 1.259 . S
O137 Tb132 2.374 1_455 S
O137 C133 1.251 . S
C138 O142 1.275 . S
C138 O143 1.246 . S
O139 C133 1.263 . S
O139 Tb134 2.353 . S
C140 O144 1.245 . S
C140 O145 1.259 . S
C141 O146 1.234 1_655 S
C141 O147 1.263 . S
O142 Tb134 2.427 . S
O142 C138 1.275 . S
O143 Tb134 2.513 . S
O143 C138 1.246 . S
O144 Tb134 2.453 1_655 S
O144 C140 1.245 . S
O145 Tb132 2.343 . S
O145 Tb134 2.596 1_655 S
O145 C140 1.259 . S
O146 Tb134 2.387 . S
O146 C141 1.234 1_455 S
O147 Tb132 2.353 . S
O147 C141 1.263 . S
C148 O149 1.275 . S
C148 O150 1.246 . S
O149 Tb132 2.427 . S
O149 C148 1.275 . S
O150 Tb132 2.513 . S
O150 C148 1.246 . S
C151 O135 1.245 . S
C151 O136 1.259 . S
C152 C153 1.391 . S
C152 C154 1.394 . S
C152 H168 0.931 . S
C153 C152 1.391 . S
C153 C157 1.376 1_545 S
C154 C152 1.394 . S
C154 C155 1.369 . S
C154 C158 1.531 . S
C155 C154 1.369 . S
C155 C156 1.410 1_545 S
C155 C163 1.503 . S
C156 C155 1.410 1_565 S
C156 C157 1.392 . S
C156 C159 1.511 . S
C157 C153 1.376 1_565 S
C157 C156 1.392 . S
C157 H169 0.929 . S
C158 C154 1.531 . S
C158 H170 0.960 . S
C158 H171 0.962 . S
C158 H172 0.960 . S
C159 C156 1.511 . S
C159 H173 0.961 . S
C159 H174 0.961 . S
C159 H175 0.961 . S
C160 C161 1.369 1_565 S
C160 C162 1.363 . S
C160 H176 0.931 . S
C161 C160 1.369 1_545 S
C161 C165 1.410 . S
C162 C160 1.363 . S
C162 C163 1.370 1_565 S
C162 C166 1.524 . S
C163 C155 1.503 . S
C163 C162 1.370 1_545 S
C163 C164 1.403 . S
C164 C163 1.403 . S
C164 C165 1.404 . S
C164 C167 1.539 . S
C165 C161 1.410 . S
C165 C164 1.404 . S
C165 H177 0.930 . S
C166 C162 1.524 . S
C166 H178 0.956 . S
C166 H179 0.961 . S
C166 H180 0.961 . S
C167 C164 1.539 . S
C167 H181 0.958 . S
C167 H182 0.961 . S
C167 H183 0.960 . S
H168 C152 0.931 . S
H169 C157 0.929 . S
H170 C158 0.960 . S
H171 C158 0.962 . S
H172 C158 0.960 . S
H173 C159 0.961 . S
H174 C159 0.961 . S
H175 C159 0.961 . S
H176 C160 0.931 . S
H177 C165 0.930 . S
H178 C166 0.956 . S
H179 C166 0.961 . S
H180 C166 0.961 . S
H181 C167 0.958 . S
H182 C167 0.961 . S
H183 C167 0.960 . S
C184 C185 1.391 . S
C184 C186 1.394 . S
C184 H200 0.931 . S
C185 C184 1.391 . S
C185 C189 1.376 . S
C186 C184 1.394 . S
C186 C187 1.369 . S
C186 C190 1.531 . S
C187 C186 1.369 . S
C187 C188 1.410 . S
C187 C195 1.503 . S
C188 C187 1.410 . S
C188 C189 1.392 . S
C188 C191 1.511 . S
C189 C185 1.376 . S
C189 C188 1.392 . S
C189 H201 0.929 . S
C190 C186 1.531 . S
C190 H202 0.960 . S
C190 H203 0.962 . S
C190 H204 0.960 . S
C191 C188 1.511 . S
C191 H205 0.961 . S
C191 H206 0.961 . S
C191 H207 0.961 . S
C192 C193 1.370 . S
C192 C194 1.363 . S
C192 H208 0.931 . S
C193 C192 1.370 . S
C193 C197 1.408 . S
C194 C192 1.363 . S
C194 C195 1.370 . S
C194 C198 1.524 . S
C195 C187 1.503 . S
C195 C194 1.370 . S
C195 C196 1.403 . S
C196 C195 1.403 . S
C196 C197 1.404 . S
C196 C199 1.539 . S
C197 C193 1.408 . S
C197 C196 1.404 . S
C197 H209 0.930 . S
C198 C194 1.524 . S
C198 H210 0.956 . S
C198 H211 0.961 . S
C198 H212 0.961 . S
C199 C196 1.539 . S
C199 H213 0.958 . S
C199 H214 0.961 . S
C199 H215 0.960 . S
H200 C184 0.931 . S
H201 C189 0.929 . S
H202 C190 0.960 . S
H203 C190 0.962 . S
H204 C190 0.960 . S
H205 C191 0.961 . S
H206 C191 0.961 . S
H207 C191 0.961 . S
H208 C192 0.931 . S
H209 C197 0.930 . S
H210 C198 0.956 . S
H211 C198 0.961 . S
H212 C198 0.961 . S
H213 C199 0.958 . S
H214 C199 0.961 . S
H215 C199 0.960 . S
C216 C217 1.391 . S
C216 C218 1.394 . S
C216 H232 0.931 . S
C217 C216 1.391 . S
C217 C221 1.376 . S
C218 C216 1.394 . S
C218 C219 1.369 . S
C218 C222 1.531 . S
C219 C218 1.369 . S
C219 C220 1.410 . S
C219 C227 1.503 . S
C220 C219 1.410 . S
C220 C221 1.392 . S
C220 C223 1.511 . S
C221 C217 1.376 . S
C221 C220 1.392 . S
C221 H233 0.929 . S
C222 C218 1.531 . S
C222 H234 0.960 . S
C222 H235 0.962 . S
C222 H236 0.960 . S
C223 C220 1.511 . S
C223 H237 0.961 . S
C223 H238 0.961 . S
C223 H239 0.961 . S
C224 C225 1.370 . S
C224 C226 1.363 . S
C224 H240 0.931 . S
C225 C224 1.370 . S
C225 C229 1.408 . S
C226 C224 1.363 . S
C226 C227 1.370 . S
C226 C230 1.524 . S
C227 C219 1.503 . S
C227 C226 1.370 . S
C227 C228 1.403 . S
C228 C227 1.403 . S
C228 C229 1.404 . S
C228 C231 1.539 . S
C229 C225 1.408 . S
C229 C228 1.404 . S
C229 H241 0.930 . S
C230 C226 1.524 . S
C230 H242 0.956 . S
C230 H243 0.961 . S
C230 H244 0.961 . S
C231 C228 1.539 . S
C231 H245 0.958 . S
C231 H246 0.961 . S
C231 H247 0.960 . S
H232 C216 0.931 . S
H233 C221 0.929 . S
H234 C222 0.960 . S
H235 C222 0.962 . S
H236 C222 0.960 . S
H237 C223 0.961 . S
H238 C223 0.961 . S
H239 C223 0.961 . S
H240 C224 0.931 . S
H241 C229 0.930 . S
H242 C230 0.956 . S
H243 C230 0.961 . S
H244 C230 0.961 . S
H245 C231 0.958 . S
H246 C231 0.961 . S
H247 C231 0.960 . S
C248 C249 1.391 . S
C248 C250 1.394 . S
C248 H264 0.931 . S
C249 C248 1.391 . S
C249 C253 1.376 . S
C250 C248 1.394 . S
C250 C251 1.369 . S
C250 C254 1.531 . S
C251 C250 1.369 . S
C251 C252 1.410 . S
C251 C259 1.503 . S
C252 C251 1.410 . S
C252 C253 1.392 . S
C252 C255 1.511 . S
C253 C249 1.376 . S
C253 C252 1.392 . S
C253 H265 0.929 . S
C254 C250 1.531 . S
C254 H266 0.960 . S
C254 H267 0.962 . S
C254 H268 0.960 . S
C255 C252 1.511 . S
C255 H269 0.961 . S
C255 H270 0.961 . S
C255 H271 0.961 . S
C256 C257 1.370 . S
C256 C258 1.363 . S
C256 H272 0.931 . S
C257 C256 1.370 . S
C257 C261 1.408 . S
C258 C256 1.363 . S
C258 C259 1.370 . S
C258 C262 1.524 . S
C259 C251 1.503 . S
C259 C258 1.370 . S
C259 C260 1.403 . S
C260 C259 1.403 . S
C260 C261 1.404 . S
C260 C263 1.539 . S
C261 C257 1.408 . S
C261 C260 1.404 . S
C261 H273 0.930 . S
C262 C258 1.524 . S
C262 H274 0.956 . S
C262 H275 0.961 . S
C262 H276 0.961 . S
C263 C260 1.539 . S
C263 H277 0.958 . S
C263 H278 0.961 . S
C263 H279 0.960 . S
H264 C248 0.931 . S
H265 C253 0.929 . S
H266 C254 0.960 . S
H267 C254 0.962 . S
H268 C254 0.960 . S
H269 C255 0.961 . S
H270 C255 0.961 . S
H271 C255 0.961 . S
H272 C256 0.931 . S
H273 C261 0.930 . S
H274 C262 0.956 . S
H275 C262 0.961 . S
H276 C262 0.961 . S
H277 C263 0.958 . S
H278 C263 0.961 . S
H279 C263 0.960 . S
C280 C281 1.391 1_566 S
C280 C282 1.394 . S
C280 H296 0.931 . S
C281 C280 1.391 1_544 S
C281 C285 1.376 . S
C282 C280 1.394 . S
C282 C283 1.369 1_565 S
C282 C286 1.531 . S
C283 C282 1.369 1_545 S
C283 C284 1.417 . S
C283 C291 1.503 . S
C284 C283 1.417 . S
C284 C285 1.386 1_556 S
C284 C287 1.510 1_556 S
C285 C281 1.376 . S
C285 C284 1.386 1_554 S
C285 H297 0.929 . S
C286 C282 1.531 . S
C286 H298 0.960 . S
C286 H299 0.962 . S
C286 H300 0.960 . S
C287 C284 1.510 1_554 S
C287 H301 0.961 . S
C287 H302 0.961 1_554 S
C287 H303 0.961 1_554 S
C288 C289 1.370 1_565 S
C288 C290 1.363 . S
C288 H304 0.931 . S
C289 C288 1.370 1_545 S
C289 C293 1.408 . S
C290 C288 1.363 . S
C290 C291 1.370 1_565 S
C290 C294 1.524 1_556 S
C291 C283 1.503 . S
C291 C290 1.370 1_545 S
C291 C292 1.403 . S
C292 C291 1.403 . S
C292 C293 1.404 . S
C292 C295 1.539 . S
C293 C289 1.408 . S
C293 C292 1.404 . S
C293 H305 0.930 . S
C294 C290 1.524 1_554 S
C294 H306 0.956 . S
C294 H307 0.961 . S
C294 H308 0.961 . S
C295 C292 1.539 . S
C295 H309 0.958 . S
C295 H310 0.961 . S
C295 H311 0.960 . S
H296 C280 0.931 . S
H297 C285 0.929 . S
H298 C286 0.960 . S
H299 C286 0.962 . S
H300 C286 0.960 . S
H301 C287 0.961 . S
H302 C287 0.961 1_556 S
H303 C287 0.961 1_556 S
H304 C288 0.931 . S
H305 C293 0.930 . S
H306 C294 0.956 . S
H307 C294 0.961 . S
H308 C294 0.961 . S
H309 C295 0.958 . S
H310 C295 0.961 . S
H311 C295 0.960 . S
C312 C313 1.391 . S
C312 C314 1.394 . S
C312 H328 0.931 . S
C313 C312 1.391 . S
C313 C317 1.376 1_554 S
C314 C312 1.394 . S
C314 C315 1.369 1_554 S
C314 C318 1.531 . S
C315 C314 1.369 1_556 S
C315 C316 1.410 . S
C315 C323 1.503 . S
C316 C315 1.410 . S
C316 C317 1.392 . S
C316 C319 1.511 . S
C317 C313 1.376 1_556 S
C317 C316 1.392 . S
C317 H329 0.929 . S
C318 C314 1.531 . S
C318 H330 0.960 . S
C318 H331 0.962 1_554 S
C318 H332 0.960 . S
C319 C316 1.511 . S
C319 H333 0.961 . S
C319 H334 0.961 . S
C319 H335 0.961 . S
C320 C321 1.370 . S
C320 C322 1.363 . S
C320 H336 0.931 . S
C321 C320 1.370 . S
C321 C325 1.408 . S
C322 C320 1.363 . S
C322 C323 1.370 . S
C322 C326 1.524 . S
C323 C315 1.503 . S
C323 C322 1.370 . S
C323 C324 1.403 . S
C324 C323 1.403 . S
C324 C325 1.404 . S
C324 C327 1.539 1_556 S
C325 C321 1.408 . S
C325 C324 1.404 . S
C325 H337 0.930 . S
C326 C322 1.524 . S
C326 H338 0.956 . S
C326 H339 0.961 . S
C326 H340 0.961 . S
C327 C324 1.539 1_554 S
C327 H341 0.958 . S
C327 H342 0.961 . S
C327 H343 0.960 . S
H328 C312 0.931 . S
H329 C317 0.929 . S
H330 C318 0.960 . S
H331 C318 0.962 1_556 S
H332 C318 0.960 . S
H333 C319 0.961 . S
H334 C319 0.961 . S
H335 C319 0.961 . S
H336 C320 0.931 . S
H337 C325 0.930 . S
H338 C326 0.956 . S
H339 C326 0.961 . S
H340 C326 0.961 . S
H341 C327 0.958 . S
H342 C327 0.961 . S
H343 C327 0.960 . S
C344 C345 1.391 . S
C344 C346 1.394 . S
C344 H360 0.931 . S
C345 C344 1.391 . S
C345 C349 1.376 1_554 S
C346 C344 1.394 . S
C346 C347 1.369 1_554 S
C346 C350 1.531 . S
C347 C346 1.369 1_556 S
C347 C348 1.410 . S
C347 C355 1.503 . S
C348 C347 1.410 . S
C348 C349 1.392 . S
C348 C351 1.511 . S
C349 C345 1.376 1_556 S
C349 C348 1.392 . S
C349 H361 0.929 . S
C350 C346 1.531 . S
C350 H362 0.960 . S
C350 H363 0.962 . S
C350 H364 0.960 . S
C351 C348 1.511 . S
C351 H365 0.961 . S
C351 H366 0.961 . S
C351 H367 0.961 . S
C352 C353 1.370 . S
C352 C354 1.363 . S
C352 H368 0.931 . S
C353 C352 1.370 . S
C353 C357 1.408 . S
C354 C352 1.363 . S
C354 C355 1.370 . S
C354 C358 1.524 . S
C355 C347 1.503 . S
C355 C354 1.370 . S
C355 C356 1.403 . S
C356 C355 1.403 . S
C356 C357 1.404 . S
C356 C359 1.539 . S
C357 C353 1.408 . S
C357 C356 1.404 . S
C357 H369 0.930 . S
C358 C354 1.524 . S
C358 H370 0.956 . S
C358 H371 0.961 . S
C358 H372 0.961 . S
C359 C356 1.539 . S
C359 H373 0.958 1_556 S
C359 H374 0.961 . S
C359 H375 0.960 . S
H360 C344 0.931 . S
H361 C349 0.929 . S
H362 C350 0.960 . S
H363 C350 0.962 . S
H364 C350 0.960 . S
H365 C351 0.961 . S
H366 C351 0.961 . S
H367 C351 0.961 . S
H368 C352 0.931 . S
H369 C357 0.930 . S
H370 C358 0.956 . S
H371 C358 0.961 . S
H372 C358 0.961 . S
H373 C359 0.958 1_554 S
H374 C359 0.961 . S
H375 C359 0.960 . S
C376 C377 1.391 1_554 S
C376 C378 1.394 1_554 S
C376 H392 0.931 . S
C377 C376 1.391 1_556 S
C377 C381 1.376 . S
C378 C376 1.394 1_556 S
C378 C379 1.369 . S
C378 C382 1.531 1_556 S
C379 C378 1.369 . S
C379 C380 1.410 . S
C379 C387 1.503 . S
C380 C379 1.410 . S
C380 C381 1.392 . S
C380 C383 1.511 . S
C381 C377 1.376 . S
C381 C380 1.392 . S
C381 H393 0.929 . S
C382 C378 1.531 1_554 S
C382 H394 0.960 . S
C382 H395 0.962 . S
C382 H396 0.960 . S
C383 C380 1.511 . S
C383 H397 0.961 . S
C383 H398 0.961 . S
C383 H399 0.961 . S
C384 C385 1.370 . S
C384 C386 1.363 . S
C384 H400 0.931 . S
C385 C384 1.370 . S
C385 C389 1.408 . S
C386 C384 1.363 . S
C386 C387 1.370 . S
C386 C390 1.524 . S
C387 C379 1.503 . S
C387 C386 1.370 . S
C387 C388 1.403 . S
C388 C387 1.403 . S
C388 C389 1.404 . S
C388 C391 1.539 . S
C389 C385 1.408 . S
C389 C388 1.404 . S
C389 H401 0.930 . S
C390 C386 1.524 . S
C390 H402 0.956 . S
C390 H403 0.961 . S
C390 H404 0.961 . S
C391 C388 1.539 . S
C391 H405 0.958 1_556 S
C391 H406 0.961 . S
C391 H407 0.960 . S
H392 C376 0.931 . S
H393 C381 0.929 . S
H394 C382 0.960 . S
H395 C382 0.962 . S
H396 C382 0.960 . S
H397 C383 0.961 . S
H398 C383 0.961 . S
H399 C383 0.961 . S
H400 C384 0.931 . S
H401 C389 0.930 . S
H402 C390 0.956 . S
H403 C390 0.961 . S
H404 C390 0.961 . S
H405 C391 0.958 1_554 S
H406 C391 0.961 . S
H407 C391 0.960 . S
C408 C409 1.391 . S
C408 C410 1.394 . S
C408 H424 0.931 . S
C409 C408 1.391 . S
C409 C413 1.376 . S
C410 C408 1.394 . S
C410 C411 1.369 . S
C410 C414 1.531 . S
C411 C410 1.369 . S
C411 C412 1.410 . S
C411 C419 1.503 . S
C412 C411 1.410 . S
C412 C413 1.392 . S
C412 C415 1.511 . S
C413 C409 1.376 . S
C413 C412 1.392 . S
C413 H425 0.929 . S
C414 C410 1.531 . S
C414 H426 0.960 . S
C414 H427 0.962 . S
C414 H428 0.960 . S
C415 C412 1.511 . S
C415 H429 0.961 . S
C415 H430 0.961 . S
C415 H431 0.961 . S
C416 C417 1.370 . S
C416 C418 1.363 . S
C416 H432 0.931 . S
C417 C416 1.370 . S
C417 C421 1.408 . S
C418 C416 1.363 . S
C418 C419 1.370 . S
C418 C422 1.524 . S
C419 C411 1.503 . S
C419 C418 1.370 . S
C419 C420 1.403 . S
C420 C419 1.403 . S
C420 C421 1.404 . S
C420 C423 1.539 . S
C421 C417 1.408 . S
C421 C420 1.404 . S
C421 H433 0.930 . S
C422 C418 1.524 . S
C422 H434 0.956 . S
C422 H435 0.961 . S
C422 H436 0.961 . S
C423 C420 1.539 . S
C423 H437 0.958 . S
C423 H438 0.961 . S
C423 H439 0.960 . S
H424 C408 0.931 . S
H425 C413 0.929 . S
H426 C414 0.960 . S
H427 C414 0.962 . S
H428 C414 0.960 . S
H429 C415 0.961 . S
H430 C415 0.961 . S
H431 C415 0.961 . S
H432 C416 0.931 . S
H433 C421 0.930 . S
H434 C422 0.956 . S
H435 C422 0.961 . S
H436 C422 0.961 . S
H437 C423 0.958 . S
H438 C423 0.961 . S
H439 C423 0.960 . S
C440 C441 1.391 . S
C440 C442 1.394 . S
C440 H456 0.931 . S
C441 C440 1.391 . S
C441 C445 1.376 1_545 S
C442 C440 1.394 . S
C442 C443 1.369 . S
C442 C446 1.531 . S
C443 C442 1.369 . S
C443 C444 1.410 1_545 S
C443 C451 1.503 . S
C444 C443 1.410 1_565 S
C444 C445 1.392 . S
C444 C447 1.511 . S
C445 C441 1.376 1_565 S
C445 C444 1.392 . S
C445 H457 0.929 . S
C446 C442 1.531 . S
C446 H458 0.960 . S
C446 H459 0.962 . S
C446 H460 0.960 . S
C447 C444 1.511 . S
C447 H461 0.961 . S
C447 H462 0.961 . S
C447 H463 0.961 . S
C448 C449 1.370 1_565 S
C448 C450 1.363 . S
C448 H464 0.931 . S
C449 C448 1.370 1_545 S
C449 C453 1.408 . S
C450 C448 1.363 . S
C450 C451 1.370 1_565 S
C450 C454 1.524 . S
C451 C443 1.503 . S
C451 C450 1.370 1_545 S
C451 C452 1.403 . S
C452 C451 1.403 . S
C452 C453 1.404 . S
C452 C455 1.539 . S
C453 C449 1.408 . S
C453 C452 1.404 . S
C453 H465 0.930 . S
C454 C450 1.524 . S
C454 H466 0.956 1_565 S
C454 H467 0.961 . S
C454 H468 0.961 . S
C455 C452 1.539 . S
C455 H469 0.958 . S
C455 H470 0.961 . S
C455 H471 0.960 . S
H456 C440 0.931 . S
H457 C445 0.929 . S
H458 C446 0.960 . S
H459 C446 0.962 . S
H460 C446 0.960 . S
H461 C447 0.961 . S
H462 C447 0.961 . S
H463 C447 0.961 . S
H464 C448 0.931 . S
H465 C453 0.930 . S
H466 C454 0.956 1_545 S
H467 C454 0.961 . S
H468 C454 0.961 . S
H469 C455 0.958 . S
H470 C455 0.961 . S
H471 C455 0.960 . S
C472 C473 1.391 . S
C472 C474 1.394 . S
C472 H488 0.931 . S
C473 C472 1.391 . S
C473 C477 1.376 . S
C474 C472 1.394 . S
C474 C475 1.369 . S
C474 C478 1.531 . S
C475 C474 1.369 . S
C475 C476 1.410 . S
C475 C483 1.503 . S
C476 C475 1.410 . S
C476 C477 1.392 . S
C476 C479 1.511 . S
C477 C473 1.376 . S
C477 C476 1.392 . S
C477 H489 0.929 . S
C478 C474 1.531 . S
C478 H490 0.960 . S
C478 H491 0.962 . S
C478 H492 0.960 . S
C479 C476 1.511 . S
C479 H493 0.961 . S
C479 H494 0.961 . S
C479 H495 0.961 . S
C480 C481 1.370 . S
C480 C482 1.363 . S
C480 H496 0.931 . S
C481 C480 1.370 . S
C481 C485 1.408 . S
C482 C480 1.363 . S
C482 C483 1.370 . S
C482 C486 1.524 . S
C483 C475 1.503 . S
C483 C482 1.370 . S
C483 C484 1.403 . S
C484 C483 1.403 . S
C484 C485 1.404 . S
C484 C487 1.539 . S
C485 C481 1.408 . S
C485 C484 1.404 . S
C485 H497 0.930 . S
C486 C482 1.524 . S
C486 H498 0.956 . S
C486 H499 0.961 . S
C486 H500 0.961 . S
C487 C484 1.539 . S
C487 H501 0.958 . S
C487 H502 0.961 . S
C487 H503 0.960 . S
H488 C472 0.931 . S
H489 C477 0.929 . S
H490 C478 0.960 . S
H491 C478 0.962 . S
H492 C478 0.960 . S
H493 C479 0.961 . S
H494 C479 0.961 . S
H495 C479 0.961 . S
H496 C480 0.931 . S
H497 C485 0.930 . S
H498 C486 0.956 . S
H499 C486 0.961 . S
H500 C486 0.961 . S
H501 C487 0.958 . S
H502 C487 0.961 . S
H503 C487 0.960 . S
C504 C505 1.391 . S
C504 C506 1.394 . S
C504 H520 0.931 . S
C505 C504 1.391 . S
C505 C509 1.376 . S
C506 C504 1.394 . S
C506 C507 1.369 . S
C506 C510 1.531 . S
C507 C506 1.369 . S
C507 C508 1.410 . S
C507 C515 1.503 . S
C508 C507 1.410 . S
C508 C509 1.392 . S
C508 C511 1.511 . S
C509 C505 1.376 . S
C509 C508 1.392 . S
C509 H521 0.929 . S
C510 C506 1.531 . S
C510 H522 0.960 . S
C510 H523 0.962 . S
C510 H524 0.960 . S
C511 C508 1.511 . S
C511 H525 0.961 . S
C511 H526 0.961 . S
C511 H527 0.961 . S
C512 C513 1.370 . S
C512 C514 1.363 . S
C512 H528 0.931 . S
C513 C512 1.370 . S
C513 C517 1.408 . S
C514 C512 1.363 . S
C514 C515 1.370 . S
C514 C518 1.524 . S
C515 C507 1.503 . S
C515 C514 1.370 . S
C515 C516 1.403 . S
C516 C515 1.403 . S
C516 C517 1.404 . S
C516 C519 1.539 . S
C517 C513 1.408 . S
C517 C516 1.404 . S
C517 H529 0.930 . S
C518 C514 1.524 . S
C518 H530 0.956 . S
C518 H531 0.961 . S
C518 H532 0.961 . S
C519 C516 1.539 . S
C519 H533 0.958 . S
C519 H534 0.961 . S
C519 H535 0.960 . S
H520 C504 0.931 . S
H521 C509 0.929 . S
H522 C510 0.960 . S
H523 C510 0.962 . S
H524 C510 0.960 . S
H525 C511 0.961 . S
H526 C511 0.961 . S
H527 C511 0.961 . S
H528 C512 0.931 . S
H529 C517 0.930 . S
H530 C518 0.956 . S
H531 C518 0.961 . S
H532 C518 0.961 . S
H533 C519 0.958 . S
H534 C519 0.961 . S
H535 C519 0.960 . S
C536 C537 1.391 . S
C536 C538 1.394 . S
C536 H552 0.931 1_556 S
C537 C536 1.391 . S
C537 C541 1.376 . S
C538 C536 1.394 . S
C538 C539 1.369 . S
C538 C542 1.531 . S
C539 C538 1.369 . S
C539 C540 1.410 . S
C539 C547 1.503 . S
C540 C539 1.410 . S
C540 C541 1.392 . S
C540 C543 1.511 . S
C541 C537 1.376 . S
C541 C540 1.392 . S
C541 H553 0.929 . S
C542 C538 1.531 . S
C542 H554 0.960 . S
C542 H555 0.962 . S
C542 H556 0.960 1_556 S
C543 C540 1.511 . S
C543 H557 0.961 . S
C543 H558 0.961 . S
C543 H559 0.961 . S
C544 C545 1.370 . S
C544 C546 1.363 . S
C544 H560 0.931 . S
C545 C544 1.370 . S
C545 C549 1.408 . S
C546 C544 1.363 . S
C546 C547 1.370 . S
C546 C550 1.524 . S
C547 C539 1.503 . S
C547 C546 1.370 . S
C547 C548 1.403 . S
C548 C547 1.403 . S
C548 C549 1.404 . S
C548 C551 1.539 . S
C549 C545 1.408 . S
C549 C548 1.404 . S
C549 H561 0.930 1_655 S
C550 C546 1.524 . S
C550 H562 0.956 . S
C550 H563 0.961 . S
C550 H564 0.961 . S
C551 C548 1.539 . S
C551 H565 0.958 . S
C551 H566 0.961 1_655 S
C551 H567 0.960 . S
H552 C536 0.931 1_554 S
H553 C541 0.929 . S
H554 C542 0.960 . S
H555 C542 0.962 . S
H556 C542 0.960 1_554 S
H557 C543 0.961 . S
H558 C543 0.961 . S
H559 C543 0.961 . S
H560 C544 0.931 . S
H561 C549 0.930 1_455 S
H562 C550 0.956 . S
H563 C550 0.961 . S
H564 C550 0.961 . S
H565 C551 0.958 . S
H566 C551 0.961 1_455 S
H567 C551 0.960 . S
C568 C569 1.391 . S
C568 C570 1.394 . S
C568 H584 0.931 . S
C569 C568 1.391 . S
C569 C573 1.376 1_554 S
C570 C568 1.394 . S
C570 C571 1.369 1_554 S
C570 C574 1.531 . S
C571 C570 1.369 1_556 S
C571 C572 1.410 . S
C571 C579 1.503 . S
C572 C571 1.410 . S
C572 C573 1.398 . S
C572 C575 1.511 . S
C573 C569 1.376 1_556 S
C573 C572 1.398 . S
C573 H585 0.923 1_545 S
C574 C570 1.531 . S
C574 H586 0.960 . S
C574 H587 0.976 . S
C574 H588 0.960 . S
C575 C572 1.511 . S
C575 H589 0.961 1_545 S
C575 H590 0.961 1_545 S
C575 H591 0.961 . S
C576 C577 1.370 1_565 S
C576 C578 1.363 . S
C576 H592 0.931 . S
C577 C576 1.370 1_545 S
C577 C581 1.408 . S
C578 C576 1.363 . S
C578 C579 1.370 1_565 S
C578 C582 1.524 . S
C579 C571 1.503 . S
C579 C578 1.370 1_545 S
C579 C580 1.403 . S
C580 C579 1.403 . S
C580 C581 1.404 . S
C580 C583 1.539 . S
C581 C577 1.408 . S
C581 C580 1.404 . S
C581 H593 0.930 . S
C582 C578 1.524 . S
C582 H594 0.956 . S
C582 H595 0.961 . S
C582 H596 0.961 . S
C583 C580 1.539 . S
C583 H597 0.958 . S
C583 H598 0.961 . S
C583 H599 0.960 . S
H584 C568 0.931 . S
H585 C573 0.923 1_565 S
H586 C574 0.960 . S
H587 C574 0.976 . S
H588 C574 0.960 . S
H589 C575 0.961 1_565 S
H590 C575 0.961 1_565 S
H591 C575 0.961 . S
H592 C576 0.931 . S
H593 C581 0.930 . S
H594 C582 0.956 . S
H595 C582 0.961 . S
H596 C582 0.961 . S
H597 C583 0.958 . S
H598 C583 0.961 . S
H599 C583 0.960 . S
C600 C601 1.391 . S
C600 C602 1.394 . S
C600 H616 0.931 . S
C601 C600 1.391 . S
C601 C605 1.376 . S
C602 C600 1.394 . S
C602 C603 1.369 . S
C602 C606 1.531 . S
C603 C602 1.369 . S
C603 C604 1.410 . S
C603 C611 1.503 . S
C604 C603 1.410 . S
C604 C605 1.392 . S
C604 C607 1.511 . S
C605 C601 1.376 . S
C605 C604 1.392 . S
C605 H617 0.929 . S
C606 C602 1.531 . S
C606 H618 0.960 . S
C606 H619 0.962 . S
C606 H620 0.960 . S
C607 C604 1.511 . S
C607 H621 0.961 . S
C607 H622 0.961 . S
C607 H623 0.961 . S
C608 C609 1.370 . S
C608 C610 1.363 . S
C608 H624 0.931 . S
C609 C608 1.370 . S
C609 C613 1.408 . S
C610 C608 1.363 . S
C610 C611 1.370 . S
C610 C614 1.524 . S
C611 C603 1.503 . S
C611 C610 1.370 . S
C611 C612 1.403 . S
C612 C611 1.403 . S
C612 C613 1.404 . S
C612 C615 1.539 . S
C613 C609 1.408 . S
C613 C612 1.404 . S
C613 H625 0.930 . S
C614 C610 1.524 . S
C614 H626 0.956 1_556 S
C614 H627 0.961 1_556 S
C614 H628 0.961 1_556 S
C615 C612 1.539 . S
C615 H629 0.958 . S
C615 H630 0.961 . S
C615 H631 0.960 . S
H616 C600 0.931 . S
H617 C605 0.929 . S
H618 C606 0.960 . S
H619 C606 0.962 . S
H620 C606 0.960 . S
H621 C607 0.961 . S
H622 C607 0.961 . S
H623 C607 0.961 . S
H624 C608 0.931 . S
H625 C613 0.930 . S
H626 C614 0.956 1_554 S
H627 C614 0.961 1_554 S
H628 C614 0.961 1_554 S
H629 C615 0.958 . S
H630 C615 0.961 . S
H631 C615 0.960 . S
C632 C633 1.391 . S
C632 C634 1.394 . S
C632 H648 0.931 . S
C633 C632 1.391 . S
C633 C637 1.376 . S
C634 C632 1.394 . S
C634 C635 1.369 . S
C634 C638 1.531 . S
C635 C634 1.369 . S
C635 C636 1.410 . S
C635 C643 1.503 . S
C636 C635 1.410 . S
C636 C637 1.392 . S
C636 C639 1.511 . S
C637 C633 1.376 . S
C637 C636 1.392 . S
C637 H649 0.929 . S
C638 C634 1.531 . S
C638 H650 0.960 . S
C638 H651 0.962 . S
C638 H652 0.960 . S
C639 C636 1.511 . S
C639 H653 0.961 . S
C639 H654 0.961 . S
C639 H655 0.961 . S
C640 C641 1.370 . S
C640 C642 1.363 . S
C640 H656 0.931 . S
C641 C640 1.370 . S
C641 C645 1.408 . S
C642 C640 1.363 . S
C642 C643 1.370 . S
C642 C646 1.524 . S
C643 C635 1.503 . S
C643 C642 1.370 . S
C643 C644 1.403 . S
C644 C643 1.403 . S
C644 C645 1.404 . S
C644 C647 1.546 . S
C645 C641 1.408 . S
C645 C644 1.404 . S
C645 H657 0.930 . S
C646 C642 1.524 . S
C646 H658 0.956 . S
C646 H659 0.961 . S
C646 H660 0.961 . S
C647 C644 1.546 . S
C647 H661 0.957 1_556 S
C647 H662 0.959 1_556 S
C647 H663 0.957 1_556 S
H648 C632 0.931 . S
H649 C637 0.929 . S
H650 C638 0.960 . S
H651 C638 0.962 . S
H652 C638 0.960 . S
H653 C639 0.961 . S
H654 C639 0.961 . S
H655 C639 0.961 . S
H656 C640 0.931 . S
H657 C645 0.930 . S
H658 C646 0.956 . S
H659 C646 0.961 . S
H660 C646 0.961 . S
H661 C647 0.957 1_554 S
H662 C647 0.959 1_554 S
H663 C647 0.957 1_554 S
C664 C665 1.391 . S
C664 C666 1.394 . S
C664 H680 0.931 . S
C665 C664 1.391 . S
C665 C669 1.376 . S
C666 C664 1.394 . S
C666 C667 1.369 . S
C666 C670 1.531 . S
C667 C666 1.369 . S
C667 C668 1.410 . S
C667 C675 1.503 . S
C668 C667 1.410 . S
C668 C669 1.392 . S
C668 C671 1.511 . S
C669 C665 1.376 . S
C669 C668 1.392 . S
C669 H681 0.929 . S
C670 C666 1.531 . S
C670 H682 0.960 1_554 S
C670 H683 0.962 . S
C670 H684 0.960 . S
C671 C668 1.511 . S
C671 H685 0.961 . S
C671 H686 0.961 . S
C671 H687 0.961 . S
C672 C673 1.370 . S
C672 C674 1.363 1_556 S
C672 H688 0.931 1_556 S
C673 C672 1.370 . S
C673 C677 1.408 . S
C674 C672 1.363 1_554 S
C674 C675 1.370 . S
C674 C678 1.524 . S
C675 C667 1.503 . S
C675 C674 1.370 . S
C675 C676 1.403 1_554 S
C676 C675 1.403 1_556 S
C676 C677 1.404 . S
C676 C679 1.539 . S
C677 C673 1.408 . S
C677 C676 1.404 . S
C677 H689 0.930 . S
C678 C674 1.524 . S
C678 H690 0.956 . S
C678 H691 0.961 . S
C678 H692 0.961 . S
C679 C676 1.539 . S
C679 H693 0.958 . S
C679 H694 0.961 . S
C679 H695 0.960 . S
H680 C664 0.931 . S
H681 C669 0.929 . S
H682 C670 0.960 1_556 S
H683 C670 0.962 . S
H684 C670 0.960 . S
H685 C671 0.961 . S
H686 C671 0.961 . S
H687 C671 0.961 . S
H688 C672 0.931 1_554 S
H689 C677 0.930 . S
H690 C678 0.956 . S
H691 C678 0.961 . S
H692 C678 0.961 . S
H693 C679 0.958 . S
H694 C679 0.961 . S
H695 C679 0.960 . S
C696 C697 1.391 1_565 S
C696 C698 1.394 . S
C696 H712 0.931 . S
C697 C696 1.391 1_545 S
C697 C701 1.376 . S
C698 C696 1.394 . S
C698 C699 1.369 1_565 S
C698 C702 1.531 1_554 S
C699 C698 1.369 1_545 S
C699 C700 1.410 . S
C699 C707 1.503 1_554 S
C700 C699 1.410 . S
C700 C701 1.392 . S
C700 C703 1.511 . S
C701 C697 1.376 . S
C701 C700 1.392 . S
C701 H713 0.929 . S
C702 C698 1.531 1_556 S
C702 H714 0.960 . S
C702 H715 0.962 1_556 S
C702 H716 0.960 . S
C703 C700 1.511 . S
C703 H717 0.961 . S
C703 H718 0.961 . S
C703 H719 0.969 . S
C704 C705 1.370 . S
C704 C706 1.363 1_556 S
C704 H720 0.931 1_545 S
C705 C704 1.370 . S
C705 C709 1.408 . S
C706 C704 1.363 1_554 S
C706 C707 1.370 1_554 S
C706 C710 1.518 1_545 S
C707 C699 1.503 1_556 S
C707 C706 1.370 1_556 S
C707 C708 1.403 . S
C708 C707 1.403 . S
C708 C709 1.404 . S
C708 C711 1.539 . S
C709 C705 1.408 . S
C709 C708 1.404 . S
C709 H721 0.930 . S
C710 C706 1.518 1_565 S
C710 H722 0.988 . S
C710 H723 0.931 1_565 S
C710 H724 0.966 . S
C711 C708 1.539 . S
C711 H725 0.962 1_545 S
C711 H726 0.961 . S
C711 H727 0.960 . S
H712 C696 0.931 . S
H713 C701 0.929 . S
H714 C702 0.960 . S
H715 C702 0.962 1_554 S
H716 C702 0.960 . S
H717 C703 0.961 . S
H718 C703 0.961 . S
H719 C703 0.969 . S
H720 C704 0.931 1_565 S
H721 C709 0.930 . S
H722 C710 0.988 . S
H723 C710 0.931 1_545 S
H724 C710 0.966 . S
H725 C711 0.962 1_565 S
H726 C711 0.961 . S
H727 C711 0.960 . S
C728 C729 1.391 . S
C728 C730 1.394 . S
C728 H744 0.931 . S
C729 C728 1.391 . S
C729 C733 1.376 . S
C730 C728 1.394 . S
C730 C731 1.369 . S
C730 C734 1.531 . S
C731 C730 1.369 . S
C731 C732 1.410 . S
C731 C739 1.503 . S
C732 C731 1.410 . S
C732 C733 1.392 . S
C732 C735 1.511 1_554 S
C733 C729 1.376 . S
C733 C732 1.392 . S
C733 H745 0.929 . S
C734 C730 1.531 . S
C734 H746 0.960 . S
C734 H747 0.962 . S
C734 H748 0.960 . S
C735 C732 1.511 1_556 S
C735 H749 0.961 . S
C735 H750 0.961 . S
C735 H751 0.961 1_556 S
C736 C737 1.370 . S
C736 C738 1.363 . S
C736 H752 0.931 . S
C737 C736 1.370 . S
C737 C741 1.408 . S
C738 C736 1.363 . S
C738 C739 1.370 1_556 S
C738 C742 1.524 . S
C739 C731 1.503 . S
C739 C738 1.370 1_554 S
C739 C740 1.403 . S
C740 C739 1.403 . S
C740 C741 1.404 1_554 S
C740 C743 1.539 . S
C741 C737 1.408 . S
C741 C740 1.404 1_556 S
C741 H753 0.930 . S
C742 C738 1.524 . S
C742 H754 0.956 . S
C742 H755 0.961 . S
C742 H756 0.961 . S
C743 C740 1.539 . S
C743 H757 0.958 . S
C743 H758 0.961 . S
C743 H759 0.960 . S
H744 C728 0.931 . S
H745 C733 0.929 . S
H746 C734 0.960 . S
H747 C734 0.962 . S
H748 C734 0.960 . S
H749 C735 0.961 . S
H750 C735 0.961 . S
H751 C735 0.961 1_554 S
H752 C736 0.931 . S
H753 C741 0.930 . S
H754 C742 0.956 . S
H755 C742 0.961 . S
H756 C742 0.961 . S
H757 C743 0.958 . S
H758 C743 0.961 . S
H759 C743 0.960 . S
C760 C761 1.391 . S
C760 C762 1.394 . S
C760 H776 0.931 . S
C761 C760 1.391 . S
C761 C765 1.376 . S
C762 C760 1.394 . S
C762 C763 1.369 . S
C762 C766 1.531 1_554 S
C763 C762 1.369 . S
C763 C764 1.410 . S
C763 C771 1.503 . S
C764 C763 1.410 . S
C764 C765 1.392 . S
C764 C767 1.511 . S
C765 C761 1.376 . S
C765 C764 1.392 . S
C765 H777 0.929 . S
C766 C762 1.531 1_556 S
C766 H778 0.960 . S
C766 H779 0.962 . S
C766 H780 0.960 . S
C767 C764 1.511 . S
C767 H781 0.961 . S
C767 H782 0.961 . S
C767 H783 0.961 . S
C768 C769 1.370 . S
C768 C770 1.363 . S
C768 H784 0.931 . S
C769 C768 1.370 . S
C769 C773 1.408 . S
C770 C768 1.363 . S
C770 C771 1.370 1_556 S
C770 C774 1.524 . S
C771 C763 1.503 . S
C771 C770 1.370 1_554 S
C771 C772 1.403 . S
C772 C771 1.403 . S
C772 C773 1.404 1_554 S
C772 C775 1.539 . S
C773 C769 1.408 . S
C773 C772 1.404 1_556 S
C773 H785 0.930 . S
C774 C770 1.524 . S
C774 H786 0.956 . S
C774 H787 0.961 1_556 S
C774 H788 0.961 . S
C775 C772 1.539 . S
C775 H789 0.958 . S
C775 H790 0.961 . S
C775 H791 0.960 . S
H776 C760 0.931 . S
H777 C765 0.929 . S
H778 C766 0.960 . S
H779 C766 0.962 . S
H780 C766 0.960 . S
H781 C767 0.961 . S
H782 C767 0.961 . S
H783 C767 0.961 . S
H784 C768 0.931 . S
H785 C773 0.930 . S
H786 C774 0.956 . S
H787 C774 0.961 1_554 S
H788 C774 0.961 . S
H789 C775 0.958 . S
H790 C775 0.961 . S
H791 C775 0.960 . S
C792 C793 1.391 . S
C792 C794 1.394 . S
C792 H808 0.931 . S
C793 C792 1.391 . S
C793 C797 1.376 . S
C794 C792 1.394 . S
C794 C795 1.369 . S
C794 C798 1.531 . S
C795 C794 1.369 . S
C795 C796 1.410 . S
C795 C803 1.503 . S
C796 C795 1.410 . S
C796 C797 1.392 . S
C796 C799 1.511 . S
C797 C793 1.376 . S
C797 C796 1.392 . S
C797 H809 0.929 . S
C798 C794 1.531 . S
C798 H810 0.960 . S
C798 H811 0.962 . S
C798 H812 0.960 . S
C799 C796 1.511 . S
C799 H813 0.961 . S
C799 H814 0.961 . S
C799 H815 0.961 . S
C800 C801 1.370 . S
C800 C802 1.363 . S
C800 H816 0.931 . S
C801 C800 1.370 . S
C801 C805 1.408 . S
C802 C800 1.363 . S
C802 C803 1.370 . S
C802 C806 1.524 . S
C803 C795 1.503 . S
C803 C802 1.370 . S
C803 C804 1.403 . S
C804 C803 1.403 . S
C804 C805 1.404 . S
C804 C807 1.539 . S
C805 C801 1.408 . S
C805 C804 1.404 . S
C805 H817 0.930 . S
C806 C802 1.524 . S
C806 H818 0.956 . S
C806 H819 0.961 . S
C806 H820 0.961 . S
C807 C804 1.539 . S
C807 H821 0.958 . S
C807 H822 0.961 . S
C807 H823 0.960 . S
H808 C792 0.931 . S
H809 C797 0.929 . S
H810 C798 0.960 . S
H811 C798 0.962 . S
H812 C798 0.960 . S
H813 C799 0.961 . S
H814 C799 0.961 . S
H815 C799 0.961 . S
H816 C800 0.931 . S
H817 C805 0.930 . S
H818 C806 0.956 . S
H819 C806 0.961 . S
H820 C806 0.961 . S
H821 C807 0.958 . S
H822 C807 0.961 . S
H823 C807 0.960 . S
C824 C825 1.391 . S
C824 C826 1.394 . S
C824 H840 0.928 1_565 S
C825 C824 1.391 . S
C825 C829 1.376 . S
C826 C824 1.394 . S
C826 C827 1.369 . S
C826 C830 1.531 . S
C827 C826 1.369 . S
C827 C828 1.410 . S
C827 C835 1.503 . S
C828 C827 1.410 . S
C828 C829 1.392 . S
C828 C831 1.511 . S
C829 C825 1.376 . S
C829 C828 1.392 . S
C829 H841 0.929 . S
C830 C826 1.531 . S
C830 H842 0.960 . S
C830 H843 0.962 1_565 S
C830 H844 0.960 . S
C831 C828 1.511 . S
C831 H845 0.961 . S
C831 H846 0.961 . S
C831 H847 0.961 . S
C832 C833 1.377 . S
C832 C834 1.363 . S
C832 H848 0.931 . S
C833 C832 1.377 . S
C833 C837 1.400 1_545 S
C834 C832 1.363 . S
C834 C835 1.370 1_545 S
C834 C838 1.524 . S
C835 C827 1.503 . S
C835 C834 1.370 1_565 S
C835 C836 1.403 . S
C836 C835 1.403 . S
C836 C837 1.404 . S
C836 C839 1.539 . S
C837 C833 1.400 1_565 S
C837 C836 1.404 . S
C837 H849 0.930 . S
C838 C834 1.524 . S
C838 H850 0.956 . S
C838 H851 0.961 . S
C838 H852 0.961 . S
C839 C836 1.539 . S
C839 H853 0.958 . S
C839 H854 0.961 . S
C839 H855 0.960 . S
H840 C824 0.928 1_545 S
H841 C829 0.929 . S
H842 C830 0.960 . S
H843 C830 0.962 1_545 S
H844 C830 0.960 . S
H845 C831 0.961 . S
H846 C831 0.961 . S
H847 C831 0.961 . S
H848 C832 0.931 . S
H849 C837 0.930 . S
H850 C838 0.956 . S
H851 C838 0.961 . S
H852 C838 0.961 . S
H853 C839 0.958 . S
H854 C839 0.961 . S
H855 C839 0.960 . S
C856 C857 1.391 . S
C856 C858 1.394 . S
C856 H872 0.931 . S
C857 C856 1.391 . S
C857 C861 1.376 . S
C858 C856 1.394 . S
C858 C859 1.369 . S
C858 C862 1.531 . S
C859 C858 1.369 . S
C859 C860 1.410 . S
C859 C867 1.503 . S
C860 C859 1.410 . S
C860 C861 1.392 . S
C860 C863 1.511 . S
C861 C857 1.376 . S
C861 C860 1.392 . S
C861 H873 0.929 . S
C862 C858 1.531 . S
C862 H874 0.960 . S
C862 H875 0.962 . S
C862 H876 0.960 . S
C863 C860 1.511 . S
C863 H877 0.961 . S
C863 H878 0.961 . S
C863 H879 0.961 . S
C864 C865 1.370 . S
C864 C866 1.363 . S
C864 H880 0.931 . S
C865 C864 1.370 . S
C865 C869 1.408 . S
C866 C864 1.363 . S
C866 C867 1.370 . S
C866 C870 1.524 . S
C867 C859 1.503 . S
C867 C866 1.370 . S
C867 C868 1.403 . S
C868 C867 1.403 . S
C868 C869 1.404 . S
C868 C871 1.539 . S
C869 C865 1.408 . S
C869 C868 1.404 . S
C869 H881 0.930 . S
C870 C866 1.524 . S
C870 H882 0.956 . S
C870 H883 0.961 . S
C870 H884 0.961 . S
C871 C868 1.539 . S
C871 H885 0.958 . S
C871 H886 0.961 . S
C871 H887 0.960 . S
H872 C856 0.931 . S
H873 C861 0.929 . S
H874 C862 0.960 . S
H875 C862 0.962 . S
H876 C862 0.960 . S
H877 C863 0.961 . S
H878 C863 0.961 . S
H879 C863 0.961 . S
H880 C864 0.931 . S
H881 C869 0.930 . S
H882 C870 0.956 . S
H883 C870 0.961 . S
H884 C870 0.961 . S
H885 C871 0.958 . S
H886 C871 0.961 . S
H887 C871 0.960 . S
C888 C889 1.391 . S
C888 C890 1.394 . S
C888 H904 0.931 . S
C889 C888 1.391 . S
C889 C893 1.376 . S
C890 C888 1.394 . S
C890 C891 1.369 . S
C890 C894 1.531 . S
C891 C890 1.369 . S
C891 C892 1.410 . S
C891 C899 1.503 . S
C892 C891 1.410 . S
C892 C893 1.392 . S
C892 C895 1.511 . S
C893 C889 1.376 . S
C893 C892 1.392 . S
C893 H905 0.929 . S
C894 C890 1.531 . S
C894 H906 0.960 . S
C894 H907 0.962 . S
C894 H908 0.960 . S
C895 C892 1.511 . S
C895 H909 0.961 . S
C895 H910 0.961 . S
C895 H911 0.961 . S
C896 C897 1.370 . S
C896 C898 1.363 . S
C896 H912 0.931 . S
C897 C896 1.370 . S
C897 C901 1.408 . S
C898 C896 1.363 . S
C898 C899 1.370 . S
C898 C902 1.524 . S
C899 C891 1.503 . S
C899 C898 1.370 . S
C899 C900 1.403 . S
C900 C899 1.403 . S
C900 C901 1.404 . S
C900 C903 1.539 . S
C901 C897 1.408 . S
C901 C900 1.404 . S
C901 H913 0.930 . S
C902 C898 1.524 . S
C902 H914 0.956 . S
C902 H915 0.961 . S
C902 H916 0.961 . S
C903 C900 1.539 . S
C903 H917 0.958 . S
C903 H918 0.961 . S
C903 H919 0.960 . S
H904 C888 0.931 . S
H905 C893 0.929 . S
H906 C894 0.960 . S
H907 C894 0.962 . S
H908 C894 0.960 . S
H909 C895 0.961 . S
H910 C895 0.961 . S
H911 C895 0.961 . S
H912 C896 0.931 . S
H913 C901 0.930 . S
H914 C902 0.956 . S
H915 C902 0.961 . S
H916 C902 0.961 . S
H917 C903 0.958 . S
H918 C903 0.961 . S
H919 C903 0.960 . S
C153 C61 1.446 . S
C161 C73 1.446 1_545 S
C193 C108 1.739 . S
C185 C70 1.687 . S
C225 C113 1.295 . S
C217 C43 1.280 . S
C257 C133 1.601 . S
C249 C52 1.537 . S
C289 C81 1.450 . S
C281 C25 1.410 1_545 S
C313 C34 1.683 . S
C321 C98 1.741 . S
C345 C7 1.275 . S
C353 C121 1.297 . S
C377 C16 1.577 1_556 S
C385 C141 1.606 . S
C417 C91 1.136 . S
C409 C50 1.138 . S
C449 C100 0.776 1_545 S
C441 C59 0.803 . S
C481 C131 1.229 . S
C473 C67 1.220 . S
C505 C41 0.853 . S
C513 C151 0.861 . S
C537 C14 1.053 . S
C545 C80 1.118 . S
C577 C111 0.750 . S
C569 C23 0.769 1_545 S
C609 C120 1.230 . S
C601 C31 1.206 1_556 S
C633 C5 0.805 . S
C641 C140 0.816 . S
C665 C49 1.643 . S
C673 C78 1.659 . S
C697 C58 1.434 . S
C705 C101 1.468 . S
C737 C118 1.682 . S
C729 C68 1.603 . S
C769 C138 1.579 . S
C761 C40 1.536 . S
C793 C13 1.644 . S
C801 C88 1.662 . S
C833 C93 1.467 . S
C825 C22 1.396 . S
C865 C128 1.683 . S
C857 C32 1.600 . S
C889 C4 1.572 . S
C897 C148 1.587 . S
