# Generated by pormake.
# Topology pyr, (3,6)-cn, num edge types: 1
# Building blocks:
#     Node 0, Type 0, BuildingBlock: VETTIZ_charged_linker_0, # of connection points: 3
#     Node 1, Type 0, BuildingBlock: VETTIZ_charged_linker_0, # of connection points: 3
#     Node 2, Type 0, BuildingBlock: VETTIZ_charged_linker_0, # of connection points: 3
#     Node 3, Type 0, BuildingBlock: VETTIZ_charged_linker_0, # of connection points: 3
#     Node 4, Type 0, BuildingBlock: VETTIZ_charged_linker_0, # of connection points: 3
#     Node 5, Type 0, BuildingBlock: VETTIZ_charged_linker_0, # of connection points: 3
#     Node 6, Type 0, BuildingBlock: VETTIZ_charged_linker_0, # of connection points: 3
#     Node 7, Type 0, BuildingBlock: VETTIZ_charged_linker_0, # of connection points: 3
#     Node 8, Type 1, BuildingBlock: MIDCAF_clean_sbu_0, # of connection points: 6
#     Node 9, Type 1, BuildingBlock: MIDCAF_clean_sbu_0, # of connection points: 6
#     Node 10, Type 1, BuildingBlock: MIDCAF_clean_sbu_0, # of connection points: 6
#     Node 11, Type 1, BuildingBlock: MIDCAF_clean_sbu_0, # of connection points: 6
#     Edge 12, Type (0, 1), BuildingBlock: CIFDUS_clean_linker_0, # of connection points: 2
#     Edge 13, Type (0, 1), BuildingBlock: CIFDUS_clean_linker_0, # of connection points: 2
#     Edge 14, Type (0, 1), BuildingBlock: CIFDUS_clean_linker_0, # of connection points: 2
#     Edge 15, Type (0, 1), BuildingBlock: CIFDUS_clean_linker_0, # of connection points: 2
#     Edge 16, Type (0, 1), BuildingBlock: CIFDUS_clean_linker_0, # of connection points: 2
#     Edge 17, Type (0, 1), BuildingBlock: CIFDUS_clean_linker_0, # of connection points: 2
#     Edge 18, Type (0, 1), BuildingBlock: CIFDUS_clean_linker_0, # of connection points: 2
#     Edge 19, Type (0, 1), BuildingBlock: CIFDUS_clean_linker_0, # of connection points: 2
#     Edge 20, Type (0, 1), BuildingBlock: CIFDUS_clean_linker_0, # of connection points: 2
#     Edge 21, Type (0, 1), BuildingBlock: CIFDUS_clean_linker_0, # of connection points: 2
#     Edge 22, Type (0, 1), BuildingBlock: CIFDUS_clean_linker_0, # of connection points: 2
#     Edge 23, Type (0, 1), BuildingBlock: CIFDUS_clean_linker_0, # of connection points: 2
#     Edge 24, Type (0, 1), BuildingBlock: CIFDUS_clean_linker_0, # of connection points: 2
#     Edge 25, Type (0, 1), BuildingBlock: CIFDUS_clean_linker_0, # of connection points: 2
#     Edge 26, Type (0, 1), BuildingBlock: CIFDUS_clean_linker_0, # of connection points: 2
#     Edge 27, Type (0, 1), BuildingBlock: CIFDUS_clean_linker_0, # of connection points: 2
#     Edge 28, Type (0, 1), BuildingBlock: CIFDUS_clean_linker_0, # of connection points: 2
#     Edge 29, Type (0, 1), BuildingBlock: CIFDUS_clean_linker_0, # of connection points: 2
#     Edge 30, Type (0, 1), BuildingBlock: CIFDUS_clean_linker_0, # of connection points: 2
#     Edge 31, Type (0, 1), BuildingBlock: CIFDUS_clean_linker_0, # of connection points: 2
#     Edge 32, Type (0, 1), BuildingBlock: CIFDUS_clean_linker_0, # of connection points: 2
#     Edge 33, Type (0, 1), BuildingBlock: CIFDUS_clean_linker_0, # of connection points: 2
#     Edge 34, Type (0, 1), BuildingBlock: CIFDUS_clean_linker_0, # of connection points: 2
#     Edge 35, Type (0, 1), BuildingBlock: CIFDUS_clean_linker_0, # of connection points: 2
# Relax obj value: 0.019
# Max RMSD: 0.063
# Mean RMSD: 0.021
data_MOF--net-pyr--node1-MIDCAF_clean_sbu_0--node2-VETTIZ_charged_linker_0--edge1-CIFDUS_clean_linker_0
_symmetry_space_group_name_H-M    P1
_symmetry_Int_Tables_number       1
_symmetry_cell_setting            triclinic
loop_
_symmetry_equiv_pos_as_xyz
'x, y, z'
_cell_length_a     39.142405
_cell_length_b     39.2217
_cell_length_c     39.196742
_cell_angle_alpha  90.008857
_cell_angle_beta   90.140614
_cell_angle_gamma 90.147275
loop_
_atom_site_label
_atom_site_type_symbol
_atom_site_fract_x
_atom_site_fract_y
_atom_site_fract_z
_atom_type_partial_charge
C0 C 0.19333 0.16916 0.32125 0.0
C1 C 0.16291 0.17976 0.3367 0.0
C2 C 0.14991 0.21238 0.3295 0.0
C3 C 0.19591 0.22191 0.28904 0.0
C4 C 0.20945 0.19061 0.29779 0.0
C5 C 0.24114 0.18231 0.278 0.0
H6 H 0.35239 0.22075 0.15278 0.0
C7 C 0.21743 0.23642 0.26156 0.0
C8 C 0.24421 0.21356 0.25543 0.0
H9 H 0.34752 0.13035 0.21634 0.0
H10 H 0.3015 0.15446 0.24771 0.0
H11 H 0.33475 0.2778 0.21258 0.0
H12 H 0.27084 0.22294 0.14112 0.0
H13 H 0.25823 0.26591 0.14184 0.0
H14 H 0.30055 0.25518 0.12764 0.0
H15 H 0.33611 0.28582 0.16748 0.0
H16 H 0.30499 0.30621 0.19447 0.0
C17 C 0.27126 0.17966 0.30362 0.0
C18 C 0.23412 0.14943 0.25699 0.0
C19 C 0.17839 0.34296 0.19986 0.0
C20 C 0.1914 0.36209 0.17238 0.0
C21 C 0.22312 0.35247 0.15828 0.0
C22 C 0.24103 0.32403 0.17089 0.0
C23 C 0.22707 0.30479 0.19779 0.0
C24 C 0.19654 0.31488 0.21218 0.0
C25 C 0.18552 0.29207 0.24093 0.0
C26 C 0.21402 0.26603 0.24103 0.0
C27 C 0.23825 0.27328 0.21552 0.0
C28 C 0.185 0.31335 0.27427 0.0
C29 C 0.15065 0.27595 0.23117 0.0
C30 C 0.34146 0.20597 0.17336 0.0
C31 C 0.35432 0.17337 0.18185 0.0
C32 C 0.33925 0.15572 0.2094 0.0
C33 C 0.3119 0.16962 0.22748 0.0
C34 C 0.29857 0.20134 0.21774 0.0
C35 C 0.31337 0.21916 0.19125 0.0
C36 C 0.2943 0.25168 0.18345 0.0
C37 C 0.26588 0.2504 0.20987 0.0
C38 C 0.2687 0.22077 0.2298 0.0
C39 C 0.3187 0.28216 0.18953 0.0
C40 C 0.28031 0.24917 0.14655 0.0
H41 H 0.15472 0.25779 0.30038 0.0
H42 H 0.20374 0.14411 0.32647 0.0
H43 H 0.20675 0.1476 0.24943 0.0
H44 H 0.24812 0.14875 0.23257 0.0
H45 H 0.2404 0.12621 0.27194 0.0
H46 H 0.26815 0.19804 0.32502 0.0
H47 H 0.27283 0.1537 0.31484 0.0
H48 H 0.29616 0.18635 0.29216 0.0
H49 H 0.15393 0.34899 0.21115 0.0
H50 H 0.23415 0.36691 0.13748 0.0
H51 H 0.26493 0.31793 0.15903 0.0
H52 H 0.20422 0.33429 0.27349 0.0
H53 H 0.15958 0.32515 0.27841 0.0
H54 H 0.19203 0.29816 0.29698 0.0
H55 H 0.15049 0.26812 0.20389 0.0
H56 H 0.14473 0.25257 0.24561 0.0
H57 H 0.1295 0.29439 0.23493 0.0
H58 H 0.12632 0.22079 0.34116 0.0
C59 C 0.1663 0.23359 0.30568 0.0
C60 C 0.20476 0.82335 0.6697 0.0
C61 C 0.19321 0.85719 0.67337 0.0
C62 C 0.20665 0.87699 0.70039 0.0
C63 C 0.24389 0.8305 0.71728 0.0
C64 C 0.23048 0.81094 0.6912 0.0
C65 C 0.24878 0.77746 0.68731 0.0
H66 H 0.38697 0.68222 0.72415 0.0
C67 C 0.27183 0.81088 0.73344 0.0
C68 C 0.27507 0.77991 0.71577 0.0
H69 H 0.30682 0.66086 0.65067 0.0
H70 H 0.27532 0.70938 0.67073 0.0
H71 H 0.3892 0.76457 0.72046 0.0
H72 H 0.33358 0.69473 0.78445 0.0
H73 H 0.33947 0.73203 0.80858 0.0
H74 H 0.37623 0.70785 0.79491 0.0
H75 H 0.40853 0.7353 0.75002 0.0
H76 H 0.39368 0.77615 0.76395 0.0
C77 C 0.26554 0.77704 0.65149 0.0
C78 C 0.22287 0.74824 0.6936 0.0
C79 C 0.33581 0.86114 0.83442 0.0
C80 C 0.36201 0.84896 0.85591 0.0
C81 C 0.37603 0.81652 0.84898 0.0
C82 C 0.36431 0.7969 0.82127 0.0
C83 C 0.33808 0.80959 0.80029 0.0
C84 C 0.32397 0.841 0.80741 0.0
C85 C 0.29545 0.85005 0.78333 0.0
C86 C 0.29419 0.81851 0.76099 0.0
C87 C 0.31969 0.7952 0.7705 0.0
C88 C 0.30623 0.88224 0.76297 0.0
C89 C 0.26233 0.85432 0.80443 0.0
C90 C 0.36249 0.68751 0.71248 0.0
C91 C 0.35023 0.66794 0.68475 0.0
C92 C 0.31787 0.67605 0.67096 0.0
C93 C 0.2994 0.70423 0.68278 0.0
C94 C 0.31312 0.72464 0.7089 0.0
C95 C 0.34341 0.71529 0.72434 0.0
C96 C 0.35247 0.73837 0.7538 0.0
C97 C 0.32404 0.76461 0.75158 0.0
C98 C 0.30135 0.75665 0.72489 0.0
C99 C 0.38792 0.75447 0.74695 0.0
C100 C 0.35062 0.71732 0.78724 0.0
H101 H 0.2411 0.88034 0.74207 0.0
H102 H 0.19485 0.80693 0.6498 0.0
H103 H 0.20361 0.75572 0.71303 0.0
H104 H 0.23503 0.72507 0.70406 0.0
H105 H 0.20888 0.74156 0.66982 0.0
H106 H 0.27611 0.80259 0.64503 0.0
H107 H 0.24658 0.77019 0.63148 0.0
H108 H 0.28744 0.7596 0.64955 0.0
H109 H 0.32479 0.88615 0.83809 0.0
H110 H 0.39587 0.80606 0.86513 0.0
H111 H 0.37616 0.77262 0.81716 0.0
H112 H 0.33446 0.88363 0.75997 0.0
H113 H 0.29794 0.90592 0.77607 0.0
H114 H 0.29624 0.88225 0.73656 0.0
H115 H 0.26058 0.83431 0.82448 0.0
H116 H 0.23887 0.85141 0.78903 0.0
H117 H 0.26178 0.87953 0.81734 0.0
H118 H 0.19901 0.90326 0.70381 0.0
C119 C 0.23161 0.86375 0.72245 0.0
C120 C 0.68034 0.20545 0.8553 0.0
C121 C 0.65647 0.18656 0.83585 0.0
C122 C 0.65311 0.19454 0.80077 0.0
C123 C 0.69137 0.2427 0.80714 0.0
C124 C 0.69791 0.23276 0.84025 0.0
C125 C 0.7254 0.25422 0.85661 0.0
H126 H 0.81572 0.40092 0.85903 0.0
C127 C 0.7106 0.27442 0.80045 0.0
C128 C 0.73119 0.28098 0.82906 0.0
H129 H 0.82618 0.31291 0.92523 0.0
H130 H 0.78429 0.28297 0.89241 0.0
H131 H 0.73484 0.39688 0.84684 0.0
H132 H 0.81824 0.3542 0.78943 0.0
H133 H 0.78868 0.37174 0.7605 0.0
H134 H 0.80986 0.39917 0.79084 0.0
H135 H 0.76229 0.42277 0.82086 0.0
H136 H 0.72524 0.40161 0.8033 0.0
C137 C 0.71106 0.27009 0.88974 0.0
C138 C 0.75735 0.23148 0.86232 0.0
C139 C 0.67901 0.34634 0.69723 0.0
C140 C 0.68701 0.37995 0.68743 0.0
C141 C 0.7104 0.39867 0.7077 0.0
C142 C 0.7253 0.38437 0.73693 0.0
C143 C 0.71648 0.35106 0.74662 0.0
C144 C 0.69358 0.33269 0.72695 0.0
C145 C 0.68558 0.29842 0.7422 0.0
C146 C 0.70784 0.29908 0.77403 0.0
C147 C 0.72602 0.32996 0.77645 0.0
C148 C 0.64697 0.29787 0.75078 0.0
C149 C 0.69684 0.27031 0.71682 0.0
C150 C 0.80942 0.37509 0.86644 0.0
C151 C 0.8239 0.36009 0.8959 0.0
C152 C 0.81466 0.32613 0.9039 0.0
C153 C 0.79056 0.30831 0.88444 0.0
C154 C 0.77577 0.32395 0.85596 0.0
C155 C 0.78596 0.35634 0.84662 0.0
C156 C 0.76933 0.36741 0.81367 0.0
C157 C 0.74789 0.33612 0.80489 0.0
C158 C 0.7511 0.31126 0.83044 0.0
C159 C 0.74686 0.39896 0.82122 0.0
C160 C 0.79782 0.37376 0.78708 0.0
H161 H 0.66572 0.22776 0.75999 0.0
H162 H 0.68474 0.20008 0.88197 0.0
H163 H 0.7556 0.20682 0.84836 0.0
H164 H 0.78098 0.24373 0.85258 0.0
H165 H 0.76091 0.22524 0.88974 0.0
H166 H 0.68604 0.28252 0.88469 0.0
H167 H 0.70717 0.25027 0.90959 0.0
H168 H 0.72799 0.28985 0.90061 0.0
H169 H 0.66151 0.33092 0.68233 0.0
H170 H 0.71662 0.42487 0.70159 0.0
H171 H 0.74262 0.40009 0.75124 0.0
H172 H 0.63955 0.32167 0.7643 0.0
H173 H 0.63133 0.29605 0.72715 0.0
H174 H 0.63942 0.27684 0.76773 0.0
H175 H 0.71811 0.27927 0.70028 0.0
H176 H 0.7071 0.24753 0.72994 0.0
H177 H 0.67542 0.26252 0.69987 0.0
H178 H 0.6369 0.17952 0.78416 0.0
C179 C 0.67013 0.22254 0.78649 0.0
C180 C 0.85642 0.84319 0.33796 0.0
C181 C 0.8465 0.85883 0.36887 0.0
C182 C 0.81617 0.84729 0.38467 0.0
C183 C 0.80962 0.80279 0.34221 0.0
C184 C 0.83835 0.81478 0.32575 0.0
C185 C 0.84899 0.79184 0.2968 0.0
H186 H 0.83809 0.63673 0.22218 0.0
C187 C 0.79935 0.77037 0.32588 0.0
C188 C 0.82253 0.76353 0.29947 0.0
H189 H 0.90677 0.71914 0.1965 0.0
H190 H 0.8775 0.75631 0.23626 0.0
H191 H 0.83809 0.64629 0.30005 0.0
H192 H 0.76843 0.68648 0.22495 0.0
H193 H 0.74434 0.67118 0.25958 0.0
H194 H 0.77044 0.642 0.23557 0.0
H195 H 0.80627 0.62011 0.27985 0.0
H196 H 0.79699 0.64446 0.31775 0.0
C197 C 0.88561 0.77892 0.30438 0.0
C198 C 0.84553 0.81193 0.26299 0.0
C199 C 0.69986 0.70334 0.37486 0.0
C200 C 0.6886 0.66934 0.3711 0.0
C201 C 0.70463 0.64889 0.3461 0.0
C202 C 0.73135 0.66178 0.32599 0.0
C203 C 0.74303 0.69528 0.33129 0.0
C204 C 0.72746 0.7153 0.35563 0.0
C205 C 0.74568 0.74869 0.36092 0.0
C206 C 0.77356 0.74629 0.3342 0.0
C207 C 0.77182 0.71507 0.31678 0.0
C208 C 0.76033 0.74923 0.39785 0.0
C209 C 0.7205 0.77798 0.35297 0.0
C210 C 0.84668 0.66286 0.22505 0.0
C211 C 0.87504 0.67497 0.20668 0.0
C212 C 0.88505 0.70929 0.21049 0.0
C213 C 0.86823 0.73067 0.23377 0.0
C214 C 0.84118 0.71754 0.25346 0.0
C215 C 0.83005 0.68453 0.24796 0.0
C216 C 0.8001 0.67524 0.27009 0.0
C217 C 0.79561 0.70781 0.29046 0.0
C218 C 0.82017 0.73231 0.28112 0.0
C219 C 0.81055 0.6448 0.29307 0.0
C220 C 0.76909 0.66808 0.24655 0.0
H221 H 0.77499 0.81223 0.38471 0.0
H222 H 0.8787 0.85174 0.32409 0.0
H223 H 0.82389 0.83024 0.26417 0.0
H224 H 0.83958 0.79524 0.24102 0.0
H225 H 0.8691 0.82675 0.25747 0.0
H226 H 0.88824 0.77179 0.33174 0.0
H227 H 0.90489 0.79899 0.29883 0.0
H228 H 0.89247 0.75583 0.29001 0.0
H229 H 0.68828 0.7204 0.39313 0.0
H230 H 0.69753 0.62244 0.34271 0.0
H231 H 0.74263 0.64474 0.30782 0.0
H232 H 0.76162 0.72327 0.40923 0.0
H233 H 0.74436 0.76505 0.41505 0.0
H234 H 0.78703 0.75861 0.39882 0.0
H235 H 0.7062 0.77265 0.32898 0.0
H236 H 0.7335 0.80268 0.34898 0.0
H237 H 0.70157 0.78095 0.37382 0.0
H238 H 0.80751 0.85815 0.40847 0.0
C239 C 0.79749 0.81988 0.3712 0.0
C240 C 0.91807 0.80699 0.96704 0.0
C241 C 0.94564 0.78664 0.95702 0.0
C242 C 0.96778 0.79822 0.93123 0.0
C243 C 0.93368 0.84923 0.92443 0.0
C244 C 0.91286 0.83833 0.95075 0.0
C245 C 0.88538 0.86366 0.95897 0.0
H246 H 0.79982 0.00783 0.91918 0.0
C247 C 0.9204 0.8822 0.91197 0.0
C248 C 0.89238 0.89099 0.93243 0.0
H249 H 0.78408 0.94016 0.00471 0.0
H250 H 0.83185 0.90588 0.98722 0.0
H251 H 0.81866 0.94856 0.86267 0.0
H252 H 0.87897 0.0127 0.9284 0.0
H253 H 0.90329 0.00699 0.89132 0.0
H254 H 0.86234 0.028 0.88859 0.0
H255 H 0.82235 0.99391 0.85755 0.0
H256 H 0.85274 0.96525 0.83863 0.0
C257 C 0.85035 0.84609 0.95322 0.0
C258 C 0.89134 0.87688 0.99586 0.0
C259 C 0.97146 0.93765 0.80605 0.0
C260 C 0.96375 0.96802 0.78863 0.0
C261 C 0.9371 0.98885 0.80075 0.0
C262 C 0.91831 0.97968 0.82961 0.0
C263 C 0.92614 0.9493 0.84674 0.0
C264 C 0.95252 0.92897 0.83519 0.0
C265 C 0.95767 0.89815 0.85752 0.0
C266 C 0.92977 0.90326 0.88399 0.0
C267 C 0.91124 0.93314 0.87726 0.0
C268 C 0.95132 0.866 0.83548 0.0
C269 C 0.99387 0.90019 0.87354 0.0
C270 C 0.80679 0.98554 0.93393 0.0
C271 C 0.78832 0.9765 0.96325 0.0
C272 C 0.79822 0.94764 0.98217 0.0
C273 C 0.82588 0.92771 0.97191 0.0
C274 C 0.84407 0.93677 0.94247 0.0
C275 C 0.83487 0.96556 0.9243 0.0
C276 C 0.85851 0.97207 0.89478 0.0
C277 C 0.88302 0.94219 0.89808 0.0
C278 C 0.87401 0.9214 0.92574 0.0
C279 C 0.83716 0.97011 0.86151 0.0
C280 C 0.87667 0.00679 0.90072 0.0
H281 H 0.9793 0.83665 0.89496 0.0
H282 H 0.90102 0.79868 0.98714 0.0
H283 H 0.91846 0.87397 0.00392 0.0
H284 H 0.88627 0.90454 0.99834 0.0
H285 H 0.87537 0.86275 0.01452 0.0
H286 H 0.85053 0.83102 0.92916 0.0
H287 H 0.84432 0.82836 0.97448 0.0
H288 H 0.82907 0.86424 0.95043 0.0
H289 H 0.99197 0.9213 0.79744 0.0
H290 H 0.93039 0.01214 0.7875 0.0
H291 H 0.89829 0.99658 0.83732 0.0
H292 H 0.92824 0.86937 0.81921 0.0
H293 H 0.97334 0.86106 0.81837 0.0
H294 H 0.9464 0.84289 0.8507 0.0
H295 H 0.0022 0.92713 0.87693 0.0
H296 H 0.99491 0.88915 0.89948 0.0
H297 H 0.01306 0.88736 0.85717 0.0
H298 H 0.98918 0.78268 0.92326 0.0
C299 C 0.96189 0.82938 0.91477 0.0
C300 C 0.74066 0.0886 0.44789 0.0
C301 C 0.75375 0.05929 0.43211 0.0
C302 C 0.73838 0.0472 0.40194 0.0
C303 C 0.69665 0.09297 0.40449 0.0
C304 C 0.71247 0.10508 0.43362 0.0
C305 C 0.69649 0.1373 0.44673 0.0
H306 H 0.57245 0.25618 0.43535 0.0
C307 C 0.6679 0.11615 0.39656 0.0
C308 C 0.66794 0.14229 0.42104 0.0
H309 H 0.65674 0.25257 0.50658 0.0
H310 H 0.67731 0.20087 0.48002 0.0
H311 H 0.55588 0.17281 0.43366 0.0
H312 H 0.61641 0.23994 0.371 0.0
H313 H 0.5981 0.20942 0.34375 0.0
H314 H 0.57076 0.23808 0.36718 0.0
H315 H 0.5379 0.20598 0.40767 0.0
H316 H 0.54682 0.16447 0.39037 0.0
C317 C 0.68256 0.13016 0.48299 0.0
C318 C 0.7235 0.16629 0.44494 0.0
C319 C 0.58838 0.08922 0.29767 0.0
C320 C 0.55988 0.10591 0.28364 0.0
C321 C 0.54899 0.13688 0.29807 0.0
C322 C 0.56586 0.15063 0.32666 0.0
C323 C 0.59417 0.13341 0.34062 0.0
C324 C 0.60517 0.10341 0.32582 0.0
C325 C 0.63652 0.08929 0.34291 0.0
C326 C 0.64229 0.11542 0.37084 0.0
C327 C 0.61728 0.14106 0.36961 0.0
C328 C 0.62747 0.05376 0.35758 0.0
C329 C 0.66609 0.08908 0.31665 0.0
C330 C 0.5951 0.2439 0.44542 0.0
C331 C 0.61283 0.25799 0.47333 0.0
C332 C 0.64271 0.24198 0.48518 0.0
C333 C 0.65454 0.21202 0.4697 0.0
C334 C 0.63653 0.19817 0.4418 0.0
C335 C 0.60751 0.21428 0.4299 0.0
C336 C 0.59274 0.19698 0.39887 0.0
C337 C 0.61742 0.16753 0.39439 0.0
C338 C 0.64276 0.16821 0.4198 0.0
C339 C 0.55631 0.18447 0.40778 0.0
C340 C 0.59424 0.22229 0.36853 0.0
H341 H 0.6988 0.05326 0.36529 0.0
H342 H 0.75257 0.09889 0.47068 0.0
H343 H 0.74264 0.16144 0.42457 0.0
H344 H 0.71219 0.1912 0.43813 0.0
H345 H 0.73763 0.16882 0.46942 0.0
H346 H 0.6699 0.10474 0.48402 0.0
H347 H 0.70355 0.13022 0.50212 0.0
H348 H 0.66289 0.14851 0.49111 0.0
H349 H 0.59777 0.06575 0.28658 0.0
H350 H 0.52717 0.15017 0.2875 0.0
H351 H 0.55622 0.17413 0.33678 0.0
H352 H 0.60188 0.05421 0.36988 0.0
H353 H 0.62676 0.0342 0.33709 0.0
H354 H 0.64531 0.04525 0.37764 0.0
H355 H 0.6632 0.11003 0.29772 0.0
H356 H 0.69132 0.09369 0.32854 0.0
H357 H 0.66681 0.06467 0.30229 0.0
H358 H 0.74832 0.02474 0.38934 0.0
C359 C 0.7097 0.06378 0.38813 0.0
C360 C 0.47539 0.59077 0.22312 0.0
C361 C 0.4648 0.56018 0.23856 0.0
C362 C 0.4373 0.54183 0.22417 0.0
C363 C 0.43118 0.58433 0.17987 0.0
C364 C 0.45843 0.60216 0.19368 0.0
C365 C 0.46687 0.63357 0.17328 0.0
H366 H 0.43123 0.73817 0.04014 0.0
C367 C 0.41899 0.603 0.14952 0.0
C368 C 0.43996 0.63174 0.14527 0.0
H369 H 0.51265 0.74684 0.11443 0.0
H370 H 0.4939 0.69522 0.14174 0.0
H371 H 0.3723 0.71386 0.09452 0.0
H372 H 0.43976 0.6592 0.02753 0.0
H373 H 0.40078 0.63701 0.02743 0.0
H374 H 0.40225 0.68037 0.01197 0.0
H375 H 0.36812 0.71451 0.0489 0.0
H376 H 0.34843 0.68161 0.07426 0.0
C377 C 0.46181 0.66502 0.19662 0.0
C378 C 0.50355 0.62962 0.15898 0.0
C379 C 0.31425 0.56037 0.08521 0.0
C380 C 0.29721 0.57215 0.05592 0.0
C381 C 0.3098 0.60131 0.03899 0.0
C382 C 0.33864 0.61867 0.05114 0.0
C383 C 0.35527 0.60681 0.08058 0.0
C384 C 0.34328 0.57791 0.09688 0.0
C385 C 0.36489 0.56852 0.12721 0.0
C386 C 0.39141 0.59688 0.1267 0.0
C387 C 0.38548 0.61936 0.09948 0.0
C388 C 0.34207 0.57024 0.15941 0.0
C389 C 0.38099 0.53306 0.12044 0.0
C390 C 0.44482 0.72896 0.0624 0.0
C391 C 0.47357 0.7465 0.07501 0.0
C392 C 0.49075 0.73353 0.10389 0.0
C393 C 0.47971 0.70361 0.11987 0.0
C394 C 0.45111 0.68622 0.10695 0.0
C395 C 0.43422 0.69882 0.07861 0.0
C396 C 0.40475 0.67639 0.06817 0.0
C397 C 0.40674 0.64844 0.09498 0.0
C398 C 0.43385 0.6545 0.11773 0.0
C399 C 0.37152 0.69751 0.07131 0.0
C400 C 0.41188 0.66258 0.03182 0.0
H401 H 0.39962 0.53865 0.18553 0.0
H402 H 0.49662 0.60524 0.23347 0.0
H403 H 0.50967 0.60237 0.15402 0.0
H404 H 0.50698 0.64229 0.13404 0.0
H405 H 0.5229 0.63957 0.17724 0.0
H406 H 0.43883 0.6617 0.21297 0.0
H407 H 0.48416 0.66876 0.21374 0.0
H408 H 0.45722 0.68878 0.18229 0.0
H409 H 0.30536 0.53786 0.09855 0.0
H410 H 0.29686 0.61112 0.0166 0.0
H411 H 0.34672 0.6408 0.03723 0.0
H412 H 0.32486 0.59275 0.15825 0.0
H413 H 0.3258 0.54711 0.16161 0.0
H414 H 0.35677 0.5734 0.18325 0.0
H415 H 0.38451 0.52847 0.09265 0.0
H416 H 0.40693 0.53063 0.13139 0.0
H417 H 0.36457 0.51223 0.13047 0.0
H418 H 0.42839 0.51842 0.23587 0.0
C419 C 0.42046 0.55372 0.19502 0.0
C420 C 0.08982 0.29451 0.60413 0.0
C421 C 0.10748 0.27879 0.57732 0.0
C422 C 0.13334 0.2969 0.56021 0.0
C423 C 0.12581 0.34467 0.59897 0.0
C424 C 0.09915 0.32738 0.61433 0.0
C425 C 0.08327 0.34733 0.64289 0.0
H426 H 0.08414 0.48713 0.74364 0.0
C427 C 0.13073 0.37716 0.61762 0.0
C428 C 0.10558 0.37896 0.64308 0.0
H429 H 0.01363 0.40226 0.74652 0.0
H430 H 0.04292 0.37598 0.69893 0.0
H431 H 0.08954 0.49419 0.65923 0.0
H432 H 0.14794 0.44421 0.73747 0.0
H433 H 0.17745 0.45495 0.70564 0.0
H434 H 0.15455 0.48833 0.72753 0.0
H435 H 0.11348 0.51607 0.69173 0.0
H436 H 0.13326 0.5029 0.65251 0.0
C437 C 0.04587 0.35552 0.6328 0.0
C438 C 0.08706 0.32647 0.67627 0.0
C439 C 0.23339 0.45237 0.59174 0.0
C440 C 0.24707 0.48141 0.60784 0.0
C441 C 0.22936 0.49622 0.63525 0.0
C442 C 0.19833 0.48225 0.6465 0.0
C443 C 0.18528 0.45276 0.6306 0.0
C444 C 0.20281 0.43829 0.60371 0.0
C445 C 0.18633 0.40582 0.59132 0.0
C446 C 0.15599 0.40315 0.61523 0.0
C447 C 0.15538 0.43086 0.63793 0.0
C448 C 0.17498 0.41103 0.55382 0.0
C449 C 0.21209 0.37636 0.59665 0.0
C450 C 0.07461 0.46319 0.73354 0.0
C451 C 0.04625 0.44693 0.74834 0.0
C452 C 0.03534 0.41526 0.73533 0.0
C453 C 0.05236 0.40015 0.70771 0.0
C454 C 0.08089 0.41668 0.69334 0.0
C455 C 0.09155 0.44765 0.70637 0.0
C456 C 0.12327 0.46081 0.68924 0.0
C457 C 0.1293 0.43318 0.6629 0.0
C458 C 0.10449 0.4074 0.66543 0.0
C459 C 0.11475 0.49544 0.67235 0.0
C460 C 0.15238 0.46246 0.71619 0.0
H461 H 0.16306 0.34221 0.5575 0.0
H462 H 0.06952 0.28114 0.61735 0.0
H463 H 0.11206 0.31305 0.67699 0.0
H464 H 0.08688 0.34247 0.69943 0.0
H465 H 0.06662 0.3069 0.67841 0.0
H466 H 0.04348 0.35959 0.60479 0.0
H467 H 0.02842 0.33429 0.63983 0.0
H468 H 0.03647 0.37942 0.6443 0.0
H469 H 0.24691 0.44014 0.571 0.0
H470 H 0.23958 0.51858 0.64794 0.0
H471 H 0.18596 0.49468 0.66745 0.0
H472 H 0.16616 0.43763 0.54952 0.0
H473 H 0.19639 0.40611 0.53595 0.0
H474 H 0.15296 0.39484 0.54667 0.0
H475 H 0.22601 0.37946 0.62125 0.0
H476 H 0.19985 0.35108 0.59828 0.0
H477 H 0.23137 0.37586 0.57591 0.0
H478 H 0.14708 0.28509 0.53938 0.0
C479 C 0.14265 0.32984 0.57094 0.0
Zn480 Zn 0.97749 0.05825 0.55274 0.0
Zn481 Zn 0.06021 0.98509 0.48332 0.0
Zn482 Zn 0.01839 0.01998 0.51795 0.0
C483 C 0.07586 0.05096 0.46693 0.0
C484 C 0.99664 0.96423 0.46069 0.0
O485 O 0.01977 0.00196 0.57208 0.0
O486 O 0.98357 0.03701 0.59745 0.0
C487 C 0.02487 0.10268 0.52787 0.0
O488 O 0.05439 0.05546 0.49144 0.0
O489 O 0.08221 0.02128 0.45643 0.0
O490 O 0.02768 0.95591 0.45887 0.0
O491 O 0.98771 0.98919 0.48024 0.0
O492 O 0.99877 0.10311 0.54657 0.0
O493 O 0.03549 0.07445 0.51473 0.0
O494 O 0.96633 0.01405 0.49525 0.0
O495 O 0.93534 0.04829 0.52768 0.0
C496 C 0.93747 0.02799 0.50284 0.0
O497 O 0.04639 0.98571 0.55432 0.0
O498 O 0.08595 0.9639 0.52074 0.0
C499 C 0.00386 0.01216 0.59902 0.0
C500 C 0.07312 0.96694 0.55008 0.0
Zn501 Zn 0.47774 0.04817 0.97532 0.0
Zn502 Zn 0.55752 0.9884 0.0616 0.0
Zn503 Zn 0.51877 0.01985 0.01995 0.0
C504 C 0.60142 0.01712 0.0154 0.0
C505 C 0.51826 0.93766 0.03498 0.0
O506 O 0.4875 0.05824 0.0484 0.0
O507 O 0.45435 0.07862 0.00748 0.0
C508 C 0.54415 0.06487 0.95519 0.0
O509 O 0.57254 0.02589 0.00215 0.0
O510 O 0.60221 0.00174 0.04361 0.0
O511 O 0.54392 0.9409 0.05418 0.0
O512 O 0.50502 0.96417 0.02062 0.0
O513 O 0.51344 0.06885 0.94609 0.0
O514 O 0.55118 0.0467 0.98173 0.0
O515 O 0.48615 0.98013 0.995 0.0
O516 O 0.45261 0.00765 0.95882 0.0
C517 C 0.4624 0.98006 0.97209 0.0
O518 O 0.51177 0.0437 0.07145 0.0
O519 O 0.54307 0.00995 0.1041 0.0
C520 C 0.46341 0.07841 0.03839 0.0
C521 C 0.52359 0.0353 0.10107 0.0
Zn522 Zn 0.54015 0.54393 0.5513 0.0
Zn523 Zn 0.46676 0.46613 0.47341 0.0
Zn524 Zn 0.50334 0.50477 0.51054 0.0
C525 C 0.50633 0.4218 0.50932 0.0
C526 C 0.50039 0.50728 0.42802 0.0
O527 O 0.46881 0.53376 0.54499 0.0
O528 O 0.50274 0.56257 0.57996 0.0
C529 C 0.56308 0.4777 0.56169 0.0
O530 O 0.51939 0.45064 0.51847 0.0
O531 O 0.48011 0.42111 0.49061 0.0
O532 O 0.4834 0.47993 0.42824 0.0
O533 O 0.50992 0.52107 0.45641 0.0
O534 O 0.5697 0.50795 0.57049 0.0
O535 O 0.53883 0.47146 0.5402 0.0
O536 O 0.5339 0.53924 0.47725 0.0
O537 O 0.56051 0.57215 0.51467 0.0
C538 C 0.55489 0.56376 0.48404 0.0
O539 O 0.44856 0.51214 0.52483 0.0
O540 O 0.42106 0.48245 0.48547 0.0
C541 C 0.47305 0.55436 0.57034 0.0
C542 C 0.42037 0.50201 0.51096 0.0
Zn543 Zn 0.05787 0.56143 0.97075 0.0
Zn544 Zn 0.99293 0.48948 0.05944 0.0
Zn545 Zn 0.02314 0.52748 0.01411 0.0
C546 C 0.06052 0.47559 0.06853 0.0
C547 C 0.96472 0.47154 0.9959 0.0
O548 O 0.00834 0.5821 0.01999 0.0
O549 O 0.04361 0.60732 0.98374 0.0
C550 C 0.10683 0.53179 0.00956 0.0
O551 O 0.06154 0.49873 0.04514 0.0
O552 O 0.03221 0.46525 0.07987 0.0
O553 O 0.96172 0.46545 0.02741 0.0
O554 O 0.98774 0.49279 0.98559 0.0
O555 O 0.10482 0.54887 0.98242 0.0
O556 O 0.07928 0.52197 0.02481 0.0
O557 O 0.01116 0.5074 0.96205 0.0
O558 O 0.03955 0.54265 0.92835 0.0
C559 C 0.02026 0.51715 0.93193 0.0
O560 O 0.99172 0.56287 0.04619 0.0
O561 O 0.97369 0.52736 0.08611 0.0
C562 C 0.02029 0.60926 0.00573 0.0
C563 C 0.97548 0.55725 0.07431 0.0
H564 H 0.14846 0.18141 0.40486 0.0
H565 H 0.13371 0.12252 0.31311 0.0
H566 H 0.10406 0.07825 0.34539 0.0
H567 H 0.08461 0.05519 0.39958 0.0
H568 H 0.10234 0.11065 0.49273 0.0
H569 H 0.12803 0.15778 0.46031 0.0
C570 C 0.13836 0.15898 0.39214 0.0
C571 C 0.14305 0.15497 0.35681 0.0
C572 C 0.12193 0.13322 0.41108 0.0
C573 C 0.13029 0.12586 0.34034 0.0
C574 C 0.11344 0.10061 0.35875 0.0
C575 C 0.09407 0.07765 0.41278 0.0
C576 C 0.09094 0.07998 0.44834 0.0
C577 C 0.10954 0.10382 0.3941 0.0
C578 C 0.10335 0.10903 0.46522 0.0
C579 C 0.11845 0.13567 0.4467 0.0
H580 H 0.42741 0.85348 0.88174 0.0
H581 H 0.32543 0.89303 0.896 0.0
H582 H 0.34729 0.9353 0.93577 0.0
H583 H 0.39608 0.96534 0.96139 0.0
H584 H 0.49728 0.9238 0.95133 0.0
H585 H 0.47477 0.87707 0.91617 0.0
C586 C 0.4097 0.87066 0.89411 0.0
C587 C 0.37487 0.87064 0.88463 0.0
C588 C 0.42229 0.89456 0.91786 0.0
C589 C 0.35257 0.89325 0.90136 0.0
C590 C 0.36496 0.91732 0.9245 0.0
C591 C 0.413 0.94553 0.95213 0.0
C592 C 0.4482 0.94797 0.95854 0.0
C593 C 0.39989 0.91892 0.93205 0.0
C594 C 0.47002 0.92223 0.94672 0.0
C595 C 0.45718 0.89574 0.92639 0.0
H596 H 0.62153 0.36996 0.66357 0.0
H597 H 0.71416 0.42644 0.64271 0.0
H598 H 0.68447 0.45925 0.59922 0.0
H599 H 0.6309 0.47623 0.57161 0.0
H600 H 0.53896 0.41851 0.58962 0.0
H601 H 0.57015 0.38072 0.62864 0.0
C602 C 0.63563 0.38877 0.649 0.0
C603 C 0.66999 0.39621 0.65736 0.0
C604 C 0.61853 0.40725 0.62336 0.0
C605 C 0.68746 0.4209 0.63798 0.0
C606 C 0.67058 0.43953 0.61277 0.0
C607 C 0.61794 0.45485 0.58353 0.0
C608 C 0.58276 0.45018 0.5781 0.0
C609 C 0.63592 0.43362 0.60601 0.0
C610 C 0.56612 0.42239 0.59336 0.0
C611 C 0.58388 0.40107 0.61592 0.0
H612 H 0.89596 0.68176 0.14029 0.0
H613 H 0.90044 0.61442 0.22719 0.0
H614 H 0.93353 0.57338 0.19437 0.0
H615 H 0.95974 0.55584 0.14113 0.0
H616 H 0.95207 0.61955 0.05221 0.0
H617 H 0.92255 0.66334 0.0856 0.0
C618 C 0.9044 0.65814 0.15193 0.0
C619 C 0.89561 0.65096 0.18602 0.0
C620 C 0.92308 0.63428 0.13264 0.0
C621 C 0.90651 0.62026 0.20087 0.0
C622 C 0.92555 0.59687 0.18218 0.0
C623 C 0.95174 0.57934 0.12893 0.0
C624 C 0.95887 0.58484 0.09418 0.0
C625 C 0.9337 0.60348 0.14804 0.0
C626 C 0.94815 0.61539 0.07902 0.0
C627 C 0.93074 0.6401 0.0981 0.0
H628 H 0.36642 0.18116 0.11349 0.0
H629 H 0.40331 0.12673 0.20208 0.0
H630 H 0.43986 0.09214 0.16582 0.0
H631 H 0.45696 0.07375 0.10795 0.0
H632 H 0.42679 0.13449 0.0214 0.0
H633 H 0.3916 0.16992 0.05797 0.0
C634 C 0.38306 0.16256 0.12533 0.0
C635 C 0.38108 0.15629 0.16065 0.0
C636 C 0.40497 0.14342 0.10455 0.0
C637 C 0.40297 0.13149 0.17489 0.0
C638 C 0.42421 0.11174 0.15418 0.0
C639 C 0.44418 0.09569 0.09739 0.0
C640 C 0.44523 0.10162 0.06207 0.0
C641 C 0.42482 0.11696 0.11883 0.0
C642 C 0.42652 0.12911 0.04851 0.0
C643 C 0.40639 0.14956 0.06941 0.0
H644 H 0.14458 0.90741 0.68224 0.0
H645 H 0.18936 0.84254 0.6051 0.0
H646 H 0.15334 0.86814 0.56204 0.0
H647 H 0.11213 0.91095 0.54492 0.0
H648 H 0.07356 0.98239 0.61875 0.0
H649 H 0.10393 0.95225 0.66435 0.0
C650 C 0.14674 0.89895 0.65603 0.0
C651 C 0.16967 0.87252 0.64745 0.0
C652 C 0.12689 0.91496 0.63066 0.0
C653 C 0.17144 0.86187 0.61316 0.0
C654 C 0.15107 0.87686 0.58819 0.0
C655 C 0.11016 0.91994 0.57102 0.0
C656 C 0.08967 0.94834 0.57858 0.0
C657 C 0.1291 0.90364 0.59656 0.0
C658 C 0.08773 0.95969 0.61248 0.0
C659 C 0.1057 0.9428 0.63844 0.0
H660 H 0.86983 0.41125 0.87897 0.0
H661 H 0.83228 0.35331 0.96511 0.0
H662 H 0.87406 0.38025 0.00184 0.0
H663 H 0.92106 0.41994 0.01031 0.0
H664 H 0.95138 0.48644 0.92834 0.0
H665 H 0.91286 0.45647 0.8893 0.0
C666 C 0.87029 0.40473 0.90581 0.0
C667 C 0.84822 0.37918 0.9186 0.0
C668 C 0.89354 0.42162 0.92761 0.0
C669 C 0.84966 0.37152 0.95373 0.0
C670 C 0.87339 0.38729 0.9751 0.0
C671 C 0.91947 0.42796 0.98388 0.0
C672 C 0.94078 0.45428 0.97184 0.0
C673 C 0.89559 0.41214 0.9623 0.0
C674 C 0.93726 0.4648 0.93774 0.0
C675 C 0.91454 0.4481 0.91559 0.0
H676 H 0.6431 0.61635 0.35962 0.0
H677 H 0.67467 0.68855 0.43725 0.0
H678 H 0.63283 0.66544 0.47598 0.0
H679 H 0.59008 0.62276 0.49003 0.0
H680 H 0.56727 0.54267 0.41821 0.0
H681 H 0.60267 0.57073 0.37526 0.0
C682 C 0.64134 0.62695 0.38506 0.0
C683 C 0.66215 0.65486 0.3947 0.0
C684 C 0.61843 0.61211 0.40845 0.0
C685 C 0.65854 0.66813 0.42797 0.0
C686 C 0.63478 0.65454 0.45064 0.0
C687 C 0.59255 0.61147 0.46489 0.0
C688 C 0.57466 0.58133 0.45691 0.0
C689 C 0.61491 0.62637 0.44131 0.0
C690 C 0.57895 0.56683 0.42443 0.0
C691 C 0.59989 0.58254 0.40009 0.0
H692 H 0.18477 0.38174 0.10529 0.0
H693 H 0.15175 0.40781 0.20712 0.0
H694 H 0.10978 0.44702 0.18376 0.0
H695 H 0.07797 0.46902 0.13448 0.0
H696 H 0.1129 0.44711 0.03278 0.0
H697 H 0.15932 0.41196 0.056 0.0
C698 C 0.16908 0.39659 0.12249 0.0
C699 C 0.1708 0.39076 0.15799 0.0
C700 C 0.14521 0.41979 0.10889 0.0
C701 C 0.15019 0.41058 0.17967 0.0
C702 C 0.12626 0.43328 0.16637 0.0
C703 C 0.0962 0.457 0.11751 0.0
C704 C 0.092 0.46013 0.08211 0.0
C705 C 0.12276 0.43719 0.13104 0.0
C706 C 0.11579 0.4449 0.06019 0.0
C707 C 0.14214 0.42469 0.07347 0.0
H708 H 0.66817 0.14771 0.89386 0.0
H709 H 0.59202 0.16637 0.8157 0.0
H710 H 0.55354 0.12699 0.84326 0.0
H711 H 0.53882 0.09101 0.89164 0.0
H712 H 0.60911 0.08199 0.97591 0.0
H713 H 0.65218 0.11395 0.94412 0.0
C714 C 0.6431 0.14378 0.88283 0.0
C715 C 0.63373 0.16039 0.8522 0.0
C716 C 0.61977 0.12257 0.90006 0.0
C717 C 0.60106 0.15361 0.83843 0.0
C718 C 0.57851 0.1313 0.85452 0.0
C719 C 0.56366 0.09578 0.90305 0.0
C720 C 0.57119 0.0828 0.93566 0.0
C721 C 0.58734 0.11615 0.8856 0.0
C722 C 0.60327 0.08992 0.95018 0.0
C723 C 0.62768 0.10885 0.93221 0.0
H724 H 0.91608 0.86444 0.36435 0.0
H725 H 0.82913 0.91091 0.41374 0.0
H726 H 0.86755 0.94621 0.44776 0.0
H727 H 0.92654 0.96089 0.46608 0.0
H728 H 0.01144 0.92137 0.40857 0.0
H729 H 0.97289 0.886 0.37539 0.0
C730 C 0.90497 0.88294 0.38153 0.0
C731 C 0.86933 0.88423 0.38636 0.0
C732 C 0.92702 0.90424 0.40004 0.0
C733 C 0.85633 0.90817 0.40987 0.0
C734 C 0.87833 0.92872 0.4293 0.0
C735 C 0.93641 0.94595 0.44526 0.0
C736 C 0.97183 0.9447 0.43956 0.0
C737 C 0.91381 0.9266 0.42494 0.0
C738 C 0.98433 0.92309 0.41375 0.0
C739 C 0.96228 0.90283 0.39455 0.0
H740 H 0.35273 0.64796 0.61764 0.0
H741 H 0.3967 0.62561 0.71644 0.0
H742 H 0.43744 0.58725 0.68981 0.0
H743 H 0.4637 0.56353 0.63795 0.0
H744 H 0.4172 0.58234 0.54004 0.0
H745 H 0.3733 0.61748 0.56714 0.0
C746 C 0.37045 0.63411 0.63372 0.0
C747 C 0.37183 0.64062 0.66914 0.0
C748 C 0.39337 0.61127 0.61836 0.0
C749 C 0.39557 0.62235 0.68905 0.0
C750 C 0.41879 0.60004 0.67387 0.0
C751 C 0.44357 0.57494 0.62271 0.0
C752 C 0.44361 0.57059 0.58713 0.0
C753 C 0.41847 0.59498 0.63848 0.0
C754 C 0.41745 0.58523 0.56752 0.0
C755 C 0.39255 0.6055 0.58299 0.0
H756 H 0.97764 0.92937 0.73236 0.0
H757 H 0.9914 0.02992 0.77498 0.0
H758 H 0.01114 0.05114 0.71999 0.0
H759 H 0.01511 0.0434 0.6584 0.0
H760 H 1.00015 0.94403 0.6141 0.0
H761 H 0.99115 0.91964 0.67119 0.0
C762 C 0.98586 0.95566 0.72972 0.0
C763 C 0.98242 0.97828 0.75742 0.0
C764 C 0.99667 0.96788 0.69772 0.0
C765 C 0.99318 0.01227 0.75379 0.0
C766 C 0.00448 0.02441 0.7224 0.0
C767 C 0.01076 0.01623 0.66142 0.0
C768 C 0.00786 0.9955 0.6324 0.0
C769 C 0.00488 0.00281 0.69395 0.0
C770 C 0.00247 0.96035 0.63629 0.0
C771 C 0.99704 0.94655 0.66885 0.0
H772 H 0.54515 0.13604 0.22258 0.0
H773 H 0.53583 0.04143 0.27787 0.0
H774 H 0.51677 0.01243 0.22612 0.0
H775 H 0.51198 0.01194 0.1641 0.0
H776 H 0.52496 0.10491 0.10711 0.0
H777 H 0.53223 0.13695 0.16049 0.0
C778 C 0.53808 0.1093 0.22333 0.0
C779 C 0.54231 0.0907 0.25377 0.0
C780 C 0.52796 0.09254 0.19315 0.0
C781 C 0.53322 0.05606 0.25455 0.0
C782 C 0.52232 0.03949 0.22502 0.0
C783 C 0.51549 0.03939 0.16347 0.0
C784 C 0.51809 0.0561 0.13192 0.0
C785 C 0.52097 0.05716 0.19398 0.0
C786 C 0.52266 0.09161 0.13122 0.0
C787 C 0.52719 0.1098 0.1617 0.0
H788 H 0.47927 0.59548 0.29679 0.0
H789 H 0.48714 0.49587 0.25084 0.0
H790 H 0.50489 0.47165 0.30538 0.0
H791 H 0.50986 0.47722 0.36721 0.0
H792 H 0.49921 0.57576 0.41458 0.0
H793 H 0.49199 0.60228 0.35837 0.0
C794 C 0.4857 0.56866 0.29863 0.0
C795 C 0.48137 0.54733 0.27005 0.0
C796 C 0.49526 0.55475 0.33033 0.0
C797 C 0.48969 0.51261 0.2727 0.0
C798 C 0.49988 0.49878 0.30383 0.0
C799 C 0.50673 0.50463 0.36513 0.0
C800 C 0.50486 0.52452 0.39485 0.0
C801 C 0.50147 0.51935 0.33301 0.0
C802 C 0.50093 0.55999 0.39196 0.0
C803 C 0.49645 0.57506 0.35987 0.0
H804 H 0.03166 0.41697 0.80924 0.0
H805 H 0.02451 0.51222 0.75475 0.0
H806 H 0.00886 0.54162 0.80729 0.0
H807 H 0.0071 0.54185 0.86952 0.0
H808 H 0.01747 0.44777 0.92525 0.0
H809 H 0.02082 0.41597 0.87146 0.0
C810 C 0.02569 0.44395 0.80881 0.0
C811 C 0.02972 0.46259 0.7784 0.0
C812 C 0.01753 0.46086 0.83935 0.0
C813 C 0.02207 0.49755 0.77805 0.0
C814 C 0.01315 0.51434 0.80804 0.0
C815 C 0.00919 0.51426 0.86981 0.0
C816 C 0.01239 0.49712 0.90108 0.0
C817 C 0.0123 0.49652 0.839 0.0
C818 C 0.01489 0.46142 0.90136 0.0
C819 C 0.01716 0.44334 0.87064 0.0
H820 H 0.73067 0.98952 0.9269 0.0
H821 H 0.77843 0.00608 0.02474 0.0
H822 H 0.72458 0.02704 0.04794 0.0
H823 H 0.66258 0.03096 0.04308 0.0
H824 H 0.61312 0.01029 0.94694 0.0
H825 H 0.66889 0.00161 0.91995 0.0
C826 C 0.72934 0.9987 0.95297 0.0
C827 C 0.75815 0.99606 0.9743 0.0
C828 C 0.69795 0.00966 0.96643 0.0
C829 C 0.75634 0.0077 0.00809 0.0
C830 C 0.7256 0.01956 0.02134 0.0
C831 C 0.66413 0.02539 0.016 0.0
C832 C 0.63399 0.02102 0.99701 0.0
C833 C 0.696 0.01919 0.00118 0.0
C834 C 0.6361 0.01393 0.96197 0.0
C835 C 0.66795 0.00864 0.94667 0.0
H836 H 0.81473 0.04511 0.40193 0.0
H837 H 0.75993 0.03638 0.49682 0.0
H838 H 0.81231 0.01969 0.52622 0.0
H839 H 0.87455 0.01694 0.52672 0.0
H840 H 0.93093 0.02876 0.43326 0.0
H841 H 0.8772 0.03405 0.40117 0.0
C842 C 0.81426 0.03861 0.42881 0.0
C843 C 0.78378 0.0423 0.4474 0.0
C844 C 0.84478 0.02994 0.44577 0.0
C845 C 0.78329 0.03402 0.48223 0.0
C846 C 0.81319 0.02457 0.49901 0.0
C847 C 0.87496 0.01988 0.49919 0.0
C848 C 0.90637 0.02271 0.48229 0.0
C849 C 0.84423 0.02388 0.48134 0.0
C850 C 0.90687 0.02643 0.44668 0.0
C851 C 0.8762 0.02972 0.42845 0.0
H852 H 0.24165 0.55213 0.09274 0.0
H853 H 0.28241 0.55416 0.99058 0.0
H854 H 0.2275 0.53524 0.96777 0.0
H855 H 0.16635 0.52663 0.97598 0.0
H856 H 0.12393 0.52808 0.07735 0.0
H857 H 0.1812 0.53562 0.10156 0.0
C858 C 0.23866 0.54761 0.06559 0.0
C859 C 0.2658 0.5551 0.04326 0.0
C860 C 0.20672 0.53735 0.05256 0.0
C861 C 0.26164 0.54923 0.00815 0.0
C862 C 0.23031 0.53833 0.99511 0.0
C863 C 0.16975 0.52783 0.00344 0.0
C864 C 0.14101 0.52702 0.02484 0.0
C865 C 0.2024 0.53362 0.01694 0.0
C866 C 0.1457 0.52829 0.06036 0.0
C867 C 0.17841 0.5331 0.07416 0.0
H868 H 0.26517 0.50045 0.54434 0.0
H869 H 0.30398 0.49178 0.64686 0.0
H870 H 0.36208 0.50348 0.62655 0.0
H871 H 0.40245 0.50653 0.57804 0.0
H872 H 0.36258 0.51449 0.4757 0.0
H873 H 0.30432 0.51316 0.49743 0.0
C874 C 0.28634 0.50176 0.56223 0.0
C875 C 0.28063 0.49479 0.59682 0.0
C876 C 0.31948 0.5081 0.55034 0.0
C877 C 0.30797 0.49699 0.62002 0.0
C878 C 0.34115 0.50347 0.60839 0.0
C879 C 0.38098 0.50922 0.56073 0.0
C880 C 0.38668 0.51039 0.52536 0.0
C881 C 0.34738 0.50777 0.57339 0.0
C882 C 0.35869 0.51335 0.50305 0.0
C883 C 0.32539 0.51243 0.51541 0.0
H884 H 0.99866 0.76536 0.99573 0.0
H885 H 0.90358 0.73207 0.95122 0.0
H886 H 0.91564 0.67313 0.96811 0.0
H887 H 0.9575 0.6305 0.98779 0.0
H888 H 0.05236 0.66394 0.03256 0.0
H889 H 0.03606 0.72354 0.0241 0.0
C890 C 0.9804 0.74517 0.99042 0.0
C891 C 0.95057 0.75257 0.97201 0.0
C892 C 0.98748 0.71153 1.00033 0.0
C893 C 0.92677 0.72661 0.96533 0.0
C894 C 0.9337 0.69302 0.97489 0.0
C895 C 0.97379 0.65096 0.99704 0.0
C896 C 0.00566 0.64314 0.01145 0.0
C897 C 0.96448 0.68505 0.99145 0.0
C898 C 0.02732 0.66962 0.02219 0.0
C899 C 0.0182 0.7036 0.01696 0.0
H900 H 0.43611 0.80183 0.05491 0.0
H901 H 0.53896 0.76259 0.05868 0.0
H902 H 0.56139 0.81785 0.0411 0.0
H903 H 0.55254 0.87872 0.03254 0.0
H904 H 0.45055 0.9197 0.03041 0.0
H905 H 0.42683 0.86222 0.03822 0.0
C906 C 0.46334 0.80526 0.05112 0.0
C907 C 0.48594 0.77839 0.05878 0.0
C908 C 0.47617 0.83739 0.04137 0.0
C909 C 0.52116 0.78311 0.05371 0.0
C910 C 0.53399 0.81465 0.04356 0.0
C911 C 0.52507 0.87494 0.0331 0.0
C912 C 0.50329 0.90327 0.03124 0.0
C913 C 0.51186 0.84221 0.03857 0.0
C914 C 0.46778 0.89817 0.03162 0.0
C915 C 0.45428 0.86537 0.03647 0.0
H916 H 0.08247 0.2519 0.51804 0.0
H917 H 0.11579 0.22542 0.61951 0.0
H918 H 0.09739 0.16653 0.61075 0.0
H919 H 0.06594 0.12452 0.57704 0.0
H920 H 0.02819 0.15068 0.47728 0.0
H921 H 0.05455 0.20756 0.48195 0.0
C922 C 0.08618 0.23293 0.53783 0.0
C923 C 0.10024 0.24271 0.56941 0.0
C924 C 0.07463 0.19924 0.53289 0.0
C925 C 0.10481 0.21826 0.59512 0.0
C926 C 0.09429 0.18469 0.59013 0.0
C927 C 0.06427 0.14252 0.55606 0.0
C928 C 0.04571 0.13373 0.52677 0.0
C929 C 0.07835 0.17517 0.55954 0.0
C930 C 0.04286 0.1571 0.49986 0.0
C931 C 0.05768 0.18957 0.5027 0.0
H932 H 0.5497 0.27037 0.49768 0.0
H933 H 0.6485 0.31694 0.48401 0.0
H934 H 0.62531 0.37239 0.50109 0.0
H935 H 0.5746 0.40874 0.51044 0.0
H936 H 0.47578 0.36141 0.52223 0.0
H937 H 0.50131 0.30511 0.51627 0.0
C938 C 0.56619 0.29262 0.499 0.0
C939 C 0.60048 0.28991 0.48909 0.0
C940 C 0.55263 0.32427 0.50847 0.0
C941 C 0.6219 0.31861 0.4914 0.0
C942 C 0.60863 0.35029 0.50102 0.0
C943 C 0.55896 0.38602 0.51296 0.0
C944 C 0.52338 0.3891 0.51645 0.0
C945 C 0.57371 0.35365 0.50838 0.0
C946 C 0.50324 0.35954 0.51933 0.0
C947 C 0.51776 0.32737 0.51565 0.0
loop_
_geom_bond_atom_site_label_1
_geom_bond_atom_site_label_2
_geom_bond_distance
_geom_bond_site_symmetry_2
_ccdc_geom_bond_type
C0 C1 1.391 . S
C0 C4 1.391 . S
C0 H42 0.948 . S
C1 C0 1.391 . S
C1 C2 1.391 . S
C2 C1 1.391 . S
C2 H58 0.947 . S
C2 C59 1.392 . S
C3 C4 1.391 . S
C3 C7 1.397 . S
C3 C59 1.419 . S
C4 C0 1.391 . S
C4 C3 1.391 . S
C4 C5 1.399 . S
C5 C4 1.399 . S
C5 C8 1.396 . S
C5 C17 1.453 . S
C5 C18 1.684 . S
H6 C30 0.948 . S
C7 C3 1.397 . S
C7 C8 1.394 . S
C7 C26 1.723 . S
C8 C5 1.396 . S
C8 C7 1.394 . S
C8 C38 1.723 . S
H9 C32 0.947 . S
H10 C33 0.948 . S
H11 C39 0.982 . S
H12 C40 0.979 . S
H13 C40 0.980 . S
H14 C40 0.983 . S
H15 C39 0.979 . S
H16 C39 0.977 . S
C17 C5 1.453 . S
C17 H46 0.982 . S
C17 H47 0.979 . S
C17 H48 0.977 . S
C18 C5 1.684 . S
C18 H43 0.979 . S
C18 H44 0.980 . S
C18 H45 0.983 . S
C19 C20 1.391 . S
C19 C24 1.391 . S
C19 H49 0.948 . S
C20 C19 1.391 . S
C20 C21 1.391 . S
C21 C20 1.391 . S
C21 C22 1.392 . S
C21 H50 0.947 . S
C22 C21 1.392 . S
C22 C23 1.419 . S
C22 H51 0.948 . S
C23 C22 1.419 . S
C23 C24 1.391 . S
C23 C27 1.397 . S
C24 C19 1.391 . S
C24 C23 1.391 . S
C24 C25 1.399 . S
C25 C24 1.399 . S
C25 C26 1.396 . S
C25 C28 1.453 . S
C25 C29 1.684 . S
C26 C7 1.723 . S
C26 C25 1.396 . S
C26 C27 1.394 . S
C27 C23 1.397 . S
C27 C26 1.394 . S
C27 C37 1.723 . S
C28 C25 1.453 . S
C28 H52 0.982 . S
C28 H53 0.979 . S
C28 H54 0.977 . S
C29 C25 1.684 . S
C29 H55 0.979 . S
C29 H56 0.980 . S
C29 H57 0.983 . S
C30 H6 0.948 . S
C30 C31 1.391 . S
C30 C35 1.391 . S
C31 C30 1.391 . S
C31 C32 1.391 . S
C32 H9 0.947 . S
C32 C31 1.391 . S
C32 C33 1.392 . S
C33 H10 0.948 . S
C33 C32 1.392 . S
C33 C34 1.419 . S
C34 C33 1.419 . S
C34 C35 1.391 . S
C34 C38 1.397 . S
C35 C30 1.391 . S
C35 C34 1.391 . S
C35 C36 1.399 . S
C36 C35 1.399 . S
C36 C37 1.396 . S
C36 C39 1.453 . S
C36 C40 1.684 . S
C37 C27 1.723 . S
C37 C36 1.396 . S
C37 C38 1.394 . S
C38 C8 1.723 . S
C38 C34 1.397 . S
C38 C37 1.394 . S
C39 H11 0.982 . S
C39 H15 0.979 . S
C39 H16 0.977 . S
C39 C36 1.453 . S
C40 H12 0.979 . S
C40 H13 0.980 . S
C40 H14 0.983 . S
C40 C36 1.684 . S
H41 C59 0.948 . S
H42 C0 0.948 . S
H43 C18 0.979 . S
H44 C18 0.980 . S
H45 C18 0.983 . S
H46 C17 0.982 . S
H47 C17 0.979 . S
H48 C17 0.977 . S
H49 C19 0.948 . S
H50 C21 0.947 . S
H51 C22 0.948 . S
H52 C28 0.982 . S
H53 C28 0.979 . S
H54 C28 0.977 . S
H55 C29 0.979 . S
H56 C29 0.980 . S
H57 C29 0.983 . S
H58 C2 0.947 . S
C59 C2 1.392 . S
C59 C3 1.419 . S
C59 H41 0.948 . S
C60 C61 1.391 . S
C60 C64 1.391 . S
C60 H102 0.948 . S
C61 C60 1.391 . S
C61 C62 1.391 . S
C62 C61 1.391 . S
C62 H118 0.947 . S
C62 C119 1.392 . S
C63 C64 1.391 . S
C63 C67 1.397 . S
C63 C119 1.419 . S
C64 C60 1.391 . S
C64 C63 1.391 . S
C64 C65 1.399 . S
C65 C64 1.399 . S
C65 C68 1.396 . S
C65 C77 1.453 . S
C65 C78 1.684 . S
H66 C90 0.948 . S
C67 C63 1.397 . S
C67 C68 1.394 . S
C67 C86 1.723 . S
C68 C65 1.396 . S
C68 C67 1.394 . S
C68 C98 1.723 . S
H69 C92 0.947 . S
H70 C93 0.948 . S
H71 C99 0.982 . S
H72 C100 0.979 . S
H73 C100 0.980 . S
H74 C100 0.983 . S
H75 C99 0.979 . S
H76 C99 0.977 . S
C77 C65 1.453 . S
C77 H106 0.982 . S
C77 H107 0.979 . S
C77 H108 0.977 . S
C78 C65 1.684 . S
C78 H103 0.979 . S
C78 H104 0.980 . S
C78 H105 0.983 . S
C79 C80 1.391 . S
C79 C84 1.391 . S
C79 H109 0.948 . S
C80 C79 1.391 . S
C80 C81 1.391 . S
C81 C80 1.391 . S
C81 C82 1.392 . S
C81 H110 0.947 . S
C82 C81 1.392 . S
C82 C83 1.419 . S
C82 H111 0.948 . S
C83 C82 1.419 . S
C83 C84 1.391 . S
C83 C87 1.397 . S
C84 C79 1.391 . S
C84 C83 1.391 . S
C84 C85 1.399 . S
C85 C84 1.399 . S
C85 C86 1.396 . S
C85 C88 1.453 . S
C85 C89 1.684 . S
C86 C67 1.723 . S
C86 C85 1.396 . S
C86 C87 1.394 . S
C87 C83 1.397 . S
C87 C86 1.394 . S
C87 C97 1.723 . S
C88 C85 1.453 . S
C88 H112 0.982 . S
C88 H113 0.979 . S
C88 H114 0.977 . S
C89 C85 1.684 . S
C89 H115 0.979 . S
C89 H116 0.980 . S
C89 H117 0.983 . S
C90 H66 0.948 . S
C90 C91 1.391 . S
C90 C95 1.391 . S
C91 C90 1.391 . S
C91 C92 1.391 . S
C92 H69 0.947 . S
C92 C91 1.391 . S
C92 C93 1.392 . S
C93 H70 0.948 . S
C93 C92 1.392 . S
C93 C94 1.419 . S
C94 C93 1.419 . S
C94 C95 1.391 . S
C94 C98 1.397 . S
C95 C90 1.391 . S
C95 C94 1.391 . S
C95 C96 1.399 . S
C96 C95 1.399 . S
C96 C97 1.396 . S
C96 C99 1.453 . S
C96 C100 1.684 . S
C97 C87 1.723 . S
C97 C96 1.396 . S
C97 C98 1.394 . S
C98 C68 1.723 . S
C98 C94 1.397 . S
C98 C97 1.394 . S
C99 H71 0.982 . S
C99 H75 0.979 . S
C99 H76 0.977 . S
C99 C96 1.453 . S
C100 H72 0.979 . S
C100 H73 0.980 . S
C100 H74 0.983 . S
C100 C96 1.684 . S
H101 C119 0.948 . S
H102 C60 0.948 . S
H103 C78 0.979 . S
H104 C78 0.980 . S
H105 C78 0.983 . S
H106 C77 0.982 . S
H107 C77 0.979 . S
H108 C77 0.977 . S
H109 C79 0.948 . S
H110 C81 0.947 . S
H111 C82 0.948 . S
H112 C88 0.982 . S
H113 C88 0.979 . S
H114 C88 0.977 . S
H115 C89 0.979 . S
H116 C89 0.980 . S
H117 C89 0.983 . S
H118 C62 0.947 . S
C119 C62 1.392 . S
C119 C63 1.419 . S
C119 H101 0.948 . S
C120 C121 1.391 . S
C120 C124 1.391 . S
C120 H162 0.948 . S
C121 C120 1.391 . S
C121 C122 1.391 . S
C122 C121 1.391 . S
C122 H178 0.947 . S
C122 C179 1.392 . S
C123 C124 1.391 . S
C123 C127 1.397 . S
C123 C179 1.419 . S
C124 C120 1.391 . S
C124 C123 1.391 . S
C124 C125 1.399 . S
C125 C124 1.399 . S
C125 C128 1.396 . S
C125 C137 1.453 . S
C125 C138 1.684 . S
H126 C150 0.948 . S
C127 C123 1.397 . S
C127 C128 1.394 . S
C127 C146 1.723 . S
C128 C125 1.396 . S
C128 C127 1.394 . S
C128 C158 1.723 . S
H129 C152 0.947 . S
H130 C153 0.948 . S
H131 C159 0.982 . S
H132 C160 0.979 . S
H133 C160 0.980 . S
H134 C160 0.983 . S
H135 C159 0.979 . S
H136 C159 0.977 . S
C137 C125 1.453 . S
C137 H166 0.982 . S
C137 H167 0.979 . S
C137 H168 0.977 . S
C138 C125 1.684 . S
C138 H163 0.979 . S
C138 H164 0.980 . S
C138 H165 0.983 . S
C139 C140 1.391 . S
C139 C144 1.391 . S
C139 H169 0.948 . S
C140 C139 1.391 . S
C140 C141 1.391 . S
C141 C140 1.391 . S
C141 C142 1.392 . S
C141 H170 0.947 . S
C142 C141 1.392 . S
C142 C143 1.419 . S
C142 H171 0.948 . S
C143 C142 1.419 . S
C143 C144 1.391 . S
C143 C147 1.397 . S
C144 C139 1.391 . S
C144 C143 1.391 . S
C144 C145 1.399 . S
C145 C144 1.399 . S
C145 C146 1.396 . S
C145 C148 1.453 . S
C145 C149 1.684 . S
C146 C127 1.723 . S
C146 C145 1.396 . S
C146 C147 1.394 . S
C147 C143 1.397 . S
C147 C146 1.394 . S
C147 C157 1.723 . S
C148 C145 1.453 . S
C148 H172 0.982 . S
C148 H173 0.979 . S
C148 H174 0.977 . S
C149 C145 1.684 . S
C149 H175 0.979 . S
C149 H176 0.980 . S
C149 H177 0.983 . S
C150 H126 0.948 . S
C150 C151 1.391 . S
C150 C155 1.391 . S
C151 C150 1.391 . S
C151 C152 1.391 . S
C152 H129 0.947 . S
C152 C151 1.391 . S
C152 C153 1.392 . S
C153 H130 0.948 . S
C153 C152 1.392 . S
C153 C154 1.419 . S
C154 C153 1.419 . S
C154 C155 1.391 . S
C154 C158 1.397 . S
C155 C150 1.391 . S
C155 C154 1.391 . S
C155 C156 1.399 . S
C156 C155 1.399 . S
C156 C157 1.396 . S
C156 C159 1.453 . S
C156 C160 1.684 . S
C157 C147 1.723 . S
C157 C156 1.396 . S
C157 C158 1.394 . S
C158 C128 1.723 . S
C158 C154 1.397 . S
C158 C157 1.394 . S
C159 H131 0.982 . S
C159 H135 0.979 . S
C159 H136 0.977 . S
C159 C156 1.453 . S
C160 H132 0.979 . S
C160 H133 0.980 . S
C160 H134 0.983 . S
C160 C156 1.684 . S
H161 C179 0.948 . S
H162 C120 0.948 . S
H163 C138 0.979 . S
H164 C138 0.980 . S
H165 C138 0.983 . S
H166 C137 0.982 . S
H167 C137 0.979 . S
H168 C137 0.977 . S
H169 C139 0.948 . S
H170 C141 0.947 . S
H171 C142 0.948 . S
H172 C148 0.982 . S
H173 C148 0.979 . S
H174 C148 0.977 . S
H175 C149 0.979 . S
H176 C149 0.980 . S
H177 C149 0.983 . S
H178 C122 0.947 . S
C179 C122 1.392 . S
C179 C123 1.419 . S
C179 H161 0.948 . S
C180 C181 1.391 . S
C180 C184 1.391 . S
C180 H222 0.948 . S
C181 C180 1.391 . S
C181 C182 1.391 . S
C182 C181 1.391 . S
C182 H238 0.947 . S
C182 C239 1.392 . S
C183 C184 1.391 . S
C183 C187 1.397 . S
C183 C239 1.419 . S
C184 C180 1.391 . S
C184 C183 1.391 . S
C184 C185 1.399 . S
C185 C184 1.399 . S
C185 C188 1.396 . S
C185 C197 1.453 . S
C185 C198 1.684 . S
H186 C210 0.948 . S
C187 C183 1.397 . S
C187 C188 1.394 . S
C187 C206 1.723 . S
C188 C185 1.396 . S
C188 C187 1.394 . S
C188 C218 1.723 . S
H189 C212 0.947 . S
H190 C213 0.948 . S
H191 C219 0.982 . S
H192 C220 0.979 . S
H193 C220 0.980 . S
H194 C220 0.983 . S
H195 C219 0.979 . S
H196 C219 0.977 . S
C197 C185 1.453 . S
C197 H226 0.982 . S
C197 H227 0.979 . S
C197 H228 0.977 . S
C198 C185 1.684 . S
C198 H223 0.979 . S
C198 H224 0.980 . S
C198 H225 0.983 . S
C199 C200 1.391 . S
C199 C204 1.391 . S
C199 H229 0.948 . S
C200 C199 1.391 . S
C200 C201 1.391 . S
C201 C200 1.391 . S
C201 C202 1.392 . S
C201 H230 0.947 . S
C202 C201 1.392 . S
C202 C203 1.419 . S
C202 H231 0.948 . S
C203 C202 1.419 . S
C203 C204 1.391 . S
C203 C207 1.397 . S
C204 C199 1.391 . S
C204 C203 1.391 . S
C204 C205 1.399 . S
C205 C204 1.399 . S
C205 C206 1.396 . S
C205 C208 1.453 . S
C205 C209 1.684 . S
C206 C187 1.723 . S
C206 C205 1.396 . S
C206 C207 1.394 . S
C207 C203 1.397 . S
C207 C206 1.394 . S
C207 C217 1.723 . S
C208 C205 1.453 . S
C208 H232 0.982 . S
C208 H233 0.979 . S
C208 H234 0.977 . S
C209 C205 1.684 . S
C209 H235 0.979 . S
C209 H236 0.980 . S
C209 H237 0.983 . S
C210 H186 0.948 . S
C210 C211 1.391 . S
C210 C215 1.391 . S
C211 C210 1.391 . S
C211 C212 1.391 . S
C212 H189 0.947 . S
C212 C211 1.391 . S
C212 C213 1.392 . S
C213 H190 0.948 . S
C213 C212 1.392 . S
C213 C214 1.419 . S
C214 C213 1.419 . S
C214 C215 1.391 . S
C214 C218 1.397 . S
C215 C210 1.391 . S
C215 C214 1.391 . S
C215 C216 1.399 . S
C216 C215 1.399 . S
C216 C217 1.396 . S
C216 C219 1.453 . S
C216 C220 1.684 . S
C217 C207 1.723 . S
C217 C216 1.396 . S
C217 C218 1.394 . S
C218 C188 1.723 . S
C218 C214 1.397 . S
C218 C217 1.394 . S
C219 H191 0.982 . S
C219 H195 0.979 . S
C219 H196 0.977 . S
C219 C216 1.453 . S
C220 H192 0.979 . S
C220 H193 0.980 . S
C220 H194 0.983 . S
C220 C216 1.684 . S
H221 C239 0.948 . S
H222 C180 0.948 . S
H223 C198 0.979 . S
H224 C198 0.980 . S
H225 C198 0.983 . S
H226 C197 0.982 . S
H227 C197 0.979 . S
H228 C197 0.977 . S
H229 C199 0.948 . S
H230 C201 0.947 . S
H231 C202 0.948 . S
H232 C208 0.982 . S
H233 C208 0.979 . S
H234 C208 0.977 . S
H235 C209 0.979 . S
H236 C209 0.980 . S
H237 C209 0.983 . S
H238 C182 0.947 . S
C239 C182 1.392 . S
C239 C183 1.419 . S
C239 H221 0.948 . S
C240 C241 1.391 . S
C240 C244 1.391 . S
C240 H282 0.948 1_556 S
C241 C240 1.391 . S
C241 C242 1.391 1_655 S
C242 C241 1.391 1_455 S
C242 H298 0.947 . S
C242 C299 1.388 1_455 S
C243 C244 1.391 . S
C243 C247 1.397 . S
C243 C299 1.427 . S
C244 C240 1.391 . S
C244 C243 1.391 . S
C244 C245 1.399 . S
C245 C244 1.399 . S
C245 C248 1.396 . S
C245 C257 1.453 . S
C245 C258 1.684 1_556 S
H246 C270 0.948 1_545 S
C247 C243 1.397 . S
C247 C248 1.394 . S
C247 C266 1.723 . S
C248 C245 1.396 . S
C248 C247 1.394 . S
C248 C278 1.723 . S
H249 C272 0.947 . S
H250 C273 0.948 . S
H251 C279 0.982 . S
H252 C280 0.979 . S
H253 C280 0.980 . S
H254 C280 0.983 . S
H255 C279 0.979 1_545 S
H256 C279 0.977 . S
C257 C245 1.453 . S
C257 H286 0.982 . S
C257 H287 0.979 1_556 S
C257 H288 0.977 . S
C258 C245 1.684 1_554 S
C258 H283 0.979 . S
C258 H284 0.980 . S
C258 H285 0.983 . S
C259 C260 1.389 . S
C259 C264 1.391 . S
C259 H289 0.948 1_655 S
C260 C259 1.389 . S
C260 C261 1.392 1_565 S
C261 C260 1.392 1_545 S
C261 C262 1.392 . S
C261 H290 0.947 . S
C262 C261 1.392 . S
C262 C263 1.419 1_545 S
C262 H291 0.948 . S
C263 C262 1.419 1_565 S
C263 C264 1.391 . S
C263 C267 1.397 . S
C264 C259 1.391 . S
C264 C263 1.391 . S
C264 C265 1.399 . S
C265 C264 1.399 . S
C265 C266 1.396 . S
C265 C268 1.453 . S
C265 C269 1.684 1_655 S
C266 C247 1.723 . S
C266 C265 1.396 . S
C266 C267 1.394 . S
C267 C263 1.397 . S
C267 C266 1.394 . S
C267 C277 1.723 . S
C268 C265 1.453 . S
C268 H292 0.982 . S
C268 H293 0.979 1_655 S
C268 H294 0.977 . S
C269 C265 1.684 1_455 S
C269 H295 0.979 . S
C269 H296 0.980 . S
C269 H297 0.983 . S
C270 H246 0.948 1_565 S
C270 C271 1.376 1_556 S
C270 C275 1.391 . S
C271 C270 1.376 1_554 S
C271 C272 1.400 . S
C272 H249 0.947 . S
C272 C271 1.400 . S
C272 C273 1.392 . S
C273 H250 0.948 . S
C273 C272 1.392 . S
C273 C274 1.419 1_554 S
C274 C273 1.419 1_556 S
C274 C275 1.391 . S
C274 C278 1.397 . S
C275 C270 1.391 . S
C275 C274 1.391 . S
C275 C276 1.399 . S
C276 C275 1.399 . S
C276 C277 1.396 . S
C276 C279 1.453 . S
C276 C280 1.684 1_565 S
C277 C267 1.723 . S
C277 C276 1.396 . S
C277 C278 1.394 . S
C278 C248 1.723 . S
C278 C274 1.397 . S
C278 C277 1.394 . S
C279 H251 0.982 . S
C279 H255 0.979 1_565 S
C279 H256 0.977 . S
C279 C276 1.453 . S
C280 H252 0.979 . S
C280 H253 0.980 . S
C280 H254 0.983 . S
C280 C276 1.684 1_545 S
H281 C299 0.943 1_455 S
H282 C240 0.948 1_554 S
H283 C258 0.979 . S
H284 C258 0.980 . S
H285 C258 0.983 . S
H286 C257 0.982 . S
H287 C257 0.979 1_554 S
H288 C257 0.977 . S
H289 C259 0.948 1_455 S
H290 C261 0.947 . S
H291 C262 0.948 . S
H292 C268 0.982 . S
H293 C268 0.979 1_455 S
H294 C268 0.977 . S
H295 C269 0.979 . S
H296 C269 0.980 . S
H297 C269 0.983 . S
H298 C242 0.947 . S
C299 C242 1.388 1_655 S
C299 C243 1.427 . S
C299 H281 0.943 1_655 S
C300 C301 1.391 . S
C300 C304 1.391 . S
C300 H342 0.948 . S
C301 C300 1.391 . S
C301 C302 1.391 . S
C302 C301 1.391 . S
C302 H358 0.947 . S
C302 C359 1.392 . S
C303 C304 1.391 . S
C303 C307 1.397 . S
C303 C359 1.419 . S
C304 C300 1.391 . S
C304 C303 1.391 . S
C304 C305 1.399 . S
C305 C304 1.399 . S
C305 C308 1.396 . S
C305 C317 1.453 . S
C305 C318 1.684 . S
H306 C330 0.948 . S
C307 C303 1.397 . S
C307 C308 1.394 . S
C307 C326 1.723 . S
C308 C305 1.396 . S
C308 C307 1.394 . S
C308 C338 1.723 . S
H309 C332 0.947 . S
H310 C333 0.948 . S
H311 C339 0.982 . S
H312 C340 0.979 . S
H313 C340 0.980 . S
H314 C340 0.983 . S
H315 C339 0.979 . S
H316 C339 0.977 . S
C317 C305 1.453 . S
C317 H346 0.982 . S
C317 H347 0.979 . S
C317 H348 0.977 . S
C318 C305 1.684 . S
C318 H343 0.979 . S
C318 H344 0.980 . S
C318 H345 0.983 . S
C319 C320 1.391 . S
C319 C324 1.391 . S
C319 H349 0.948 . S
C320 C319 1.391 . S
C320 C321 1.391 . S
C321 C320 1.391 . S
C321 C322 1.392 . S
C321 H350 0.947 . S
C322 C321 1.392 . S
C322 C323 1.419 . S
C322 H351 0.948 . S
C323 C322 1.419 . S
C323 C324 1.391 . S
C323 C327 1.397 . S
C324 C319 1.391 . S
C324 C323 1.391 . S
C324 C325 1.399 . S
C325 C324 1.399 . S
C325 C326 1.396 . S
C325 C328 1.453 . S
C325 C329 1.684 . S
C326 C307 1.723 . S
C326 C325 1.396 . S
C326 C327 1.394 . S
C327 C323 1.397 . S
C327 C326 1.394 . S
C327 C337 1.723 . S
C328 C325 1.453 . S
C328 H352 0.982 . S
C328 H353 0.979 . S
C328 H354 0.977 . S
C329 C325 1.684 . S
C329 H355 0.979 . S
C329 H356 0.980 . S
C329 H357 0.983 . S
C330 H306 0.948 . S
C330 C331 1.391 . S
C330 C335 1.391 . S
C331 C330 1.391 . S
C331 C332 1.391 . S
C332 H309 0.947 . S
C332 C331 1.391 . S
C332 C333 1.392 . S
C333 H310 0.948 . S
C333 C332 1.392 . S
C333 C334 1.419 . S
C334 C333 1.419 . S
C334 C335 1.391 . S
C334 C338 1.397 . S
C335 C330 1.391 . S
C335 C334 1.391 . S
C335 C336 1.399 . S
C336 C335 1.399 . S
C336 C337 1.396 . S
C336 C339 1.453 . S
C336 C340 1.684 . S
C337 C327 1.723 . S
C337 C336 1.396 . S
C337 C338 1.394 . S
C338 C308 1.723 . S
C338 C334 1.397 . S
C338 C337 1.394 . S
C339 H311 0.982 . S
C339 H315 0.979 . S
C339 H316 0.977 . S
C339 C336 1.453 . S
C340 H312 0.979 . S
C340 H313 0.980 . S
C340 H314 0.983 . S
C340 C336 1.684 . S
H341 C359 0.948 . S
H342 C300 0.948 . S
H343 C318 0.979 . S
H344 C318 0.980 . S
H345 C318 0.983 . S
H346 C317 0.982 . S
H347 C317 0.979 . S
H348 C317 0.977 . S
H349 C319 0.948 . S
H350 C321 0.947 . S
H351 C322 0.948 . S
H352 C328 0.982 . S
H353 C328 0.979 . S
H354 C328 0.977 . S
H355 C329 0.979 . S
H356 C329 0.980 . S
H357 C329 0.983 . S
H358 C302 0.947 . S
C359 C302 1.392 . S
C359 C303 1.419 . S
C359 H341 0.948 . S
C360 C361 1.391 . S
C360 C364 1.391 . S
C360 H402 0.948 . S
C361 C360 1.391 . S
C361 C362 1.391 . S
C362 C361 1.391 . S
C362 H418 0.947 . S
C362 C419 1.392 . S
C363 C364 1.391 . S
C363 C367 1.397 . S
C363 C419 1.419 . S
C364 C360 1.391 . S
C364 C363 1.391 . S
C364 C365 1.399 . S
C365 C364 1.399 . S
C365 C368 1.396 . S
C365 C377 1.453 . S
C365 C378 1.684 . S
H366 C390 0.948 . S
C367 C363 1.397 . S
C367 C368 1.394 . S
C367 C386 1.723 . S
C368 C365 1.396 . S
C368 C367 1.394 . S
C368 C398 1.723 . S
H369 C392 0.947 . S
H370 C393 0.948 . S
H371 C399 0.982 . S
H372 C400 0.979 1_556 S
H373 C400 0.980 . S
H374 C400 0.983 1_556 S
H375 C399 0.979 . S
H376 C399 0.977 . S
C377 C365 1.453 . S
C377 H406 0.982 . S
C377 H407 0.979 . S
C377 H408 0.977 . S
C378 C365 1.684 . S
C378 H403 0.979 . S
C378 H404 0.980 . S
C378 H405 0.983 . S
C379 C380 1.391 . S
C379 C384 1.391 . S
C379 H409 0.948 . S
C380 C379 1.391 . S
C380 C381 1.391 . S
C381 C380 1.391 . S
C381 C382 1.392 . S
C381 H410 0.940 1_554 S
C382 C381 1.392 . S
C382 C383 1.419 . S
C382 H411 0.948 . S
C383 C382 1.419 . S
C383 C384 1.391 . S
C383 C387 1.397 . S
C384 C379 1.391 . S
C384 C383 1.391 . S
C384 C385 1.399 . S
C385 C384 1.399 . S
C385 C386 1.396 . S
C385 C388 1.453 . S
C385 C389 1.684 . S
C386 C367 1.723 . S
C386 C385 1.396 . S
C386 C387 1.394 . S
C387 C383 1.397 . S
C387 C386 1.394 . S
C387 C397 1.723 . S
C388 C385 1.453 . S
C388 H412 0.982 . S
C388 H413 0.979 . S
C388 H414 0.977 . S
C389 C385 1.684 . S
C389 H415 0.979 . S
C389 H416 0.980 . S
C389 H417 0.983 . S
C390 H366 0.948 . S
C390 C391 1.391 . S
C390 C395 1.391 . S
C391 C390 1.391 . S
C391 C392 1.391 . S
C392 H369 0.947 . S
C392 C391 1.391 . S
C392 C393 1.392 . S
C393 H370 0.948 . S
C393 C392 1.392 . S
C393 C394 1.419 . S
C394 C393 1.419 . S
C394 C395 1.391 . S
C394 C398 1.397 . S
C395 C390 1.391 . S
C395 C394 1.391 . S
C395 C396 1.399 . S
C396 C395 1.399 . S
C396 C397 1.396 . S
C396 C399 1.453 . S
C396 C400 1.684 . S
C397 C387 1.723 . S
C397 C396 1.396 . S
C397 C398 1.394 . S
C398 C368 1.723 . S
C398 C394 1.397 . S
C398 C397 1.394 . S
C399 H371 0.982 . S
C399 H375 0.979 . S
C399 H376 0.977 . S
C399 C396 1.453 . S
C400 H372 0.979 1_554 S
C400 H373 0.980 . S
C400 H374 0.983 1_554 S
C400 C396 1.684 . S
H401 C419 0.948 . S
H402 C360 0.948 . S
H403 C378 0.979 . S
H404 C378 0.980 . S
H405 C378 0.983 . S
H406 C377 0.982 . S
H407 C377 0.979 . S
H408 C377 0.977 . S
H409 C379 0.948 . S
H410 C381 0.940 1_556 S
H411 C382 0.948 . S
H412 C388 0.982 . S
H413 C388 0.979 . S
H414 C388 0.977 . S
H415 C389 0.979 . S
H416 C389 0.980 . S
H417 C389 0.983 . S
H418 C362 0.947 . S
C419 C362 1.392 . S
C419 C363 1.419 . S
C419 H401 0.948 . S
C420 C421 1.391 . S
C420 C424 1.391 . S
C420 H462 0.948 . S
C421 C420 1.391 . S
C421 C422 1.391 . S
C422 C421 1.391 . S
C422 H478 0.947 . S
C422 C479 1.392 . S
C423 C424 1.391 . S
C423 C427 1.397 . S
C423 C479 1.419 . S
C424 C420 1.391 . S
C424 C423 1.391 . S
C424 C425 1.399 . S
C425 C424 1.399 . S
C425 C428 1.396 . S
C425 C437 1.453 . S
C425 C438 1.684 . S
H426 C450 0.948 . S
C427 C423 1.397 . S
C427 C428 1.394 . S
C427 C446 1.723 . S
C428 C425 1.396 . S
C428 C427 1.394 . S
C428 C458 1.723 . S
H429 C452 0.947 . S
H430 C453 0.948 . S
H431 C459 0.982 . S
H432 C460 0.979 . S
H433 C460 0.980 . S
H434 C460 0.983 . S
H435 C459 0.979 . S
H436 C459 0.977 . S
C437 C425 1.453 . S
C437 H466 0.982 . S
C437 H467 0.979 1_455 S
C437 H468 0.977 . S
C438 C425 1.684 . S
C438 H463 0.979 . S
C438 H464 0.980 . S
C438 H465 0.983 . S
C439 C440 1.391 . S
C439 C444 1.391 . S
C439 H469 0.948 . S
C440 C439 1.391 . S
C440 C441 1.391 . S
C441 C440 1.391 . S
C441 C442 1.392 . S
C441 H470 0.947 . S
C442 C441 1.392 . S
C442 C443 1.419 . S
C442 H471 0.948 . S
C443 C442 1.419 . S
C443 C444 1.391 . S
C443 C447 1.397 . S
C444 C439 1.391 . S
C444 C443 1.391 . S
C444 C445 1.399 . S
C445 C444 1.399 . S
C445 C446 1.396 . S
C445 C448 1.453 . S
C445 C449 1.684 . S
C446 C427 1.723 . S
C446 C445 1.396 . S
C446 C447 1.394 . S
C447 C443 1.397 . S
C447 C446 1.394 . S
C447 C457 1.723 . S
C448 C445 1.453 . S
C448 H472 0.982 . S
C448 H473 0.979 . S
C448 H474 0.977 . S
C449 C445 1.684 . S
C449 H475 0.979 . S
C449 H476 0.980 . S
C449 H477 0.983 . S
C450 H426 0.948 . S
C450 C451 1.391 . S
C450 C455 1.391 . S
C451 C450 1.391 . S
C451 C452 1.391 . S
C452 H429 0.947 . S
C452 C451 1.391 . S
C452 C453 1.392 . S
C453 H430 0.948 . S
C453 C452 1.392 . S
C453 C454 1.419 . S
C454 C453 1.419 . S
C454 C455 1.391 . S
C454 C458 1.397 . S
C455 C450 1.391 . S
C455 C454 1.391 . S
C455 C456 1.399 . S
C456 C455 1.399 . S
C456 C457 1.396 . S
C456 C459 1.453 . S
C456 C460 1.684 . S
C457 C447 1.723 . S
C457 C456 1.396 . S
C457 C458 1.394 . S
C458 C428 1.723 . S
C458 C454 1.397 . S
C458 C457 1.394 . S
C459 H431 0.982 . S
C459 H435 0.979 . S
C459 H436 0.977 . S
C459 C456 1.453 . S
C460 H432 0.979 . S
C460 H433 0.980 . S
C460 H434 0.983 . S
C460 C456 1.684 . S
H461 C479 0.948 . S
H462 C420 0.948 . S
H463 C438 0.979 . S
H464 C438 0.980 . S
H465 C438 0.983 . S
H466 C437 0.982 . S
H467 C437 0.979 1_655 S
H468 C437 0.977 . S
H469 C439 0.948 . S
H470 C441 0.947 . S
H471 C442 0.948 . S
H472 C448 0.982 . S
H473 C448 0.979 . S
H474 C448 0.977 . S
H475 C449 0.979 . S
H476 C449 0.980 . S
H477 C449 0.983 . S
H478 C422 0.947 . S
C479 C422 1.392 . S
C479 C423 1.419 . S
C479 H461 0.948 . S
Zn480 O486 1.920 . S
Zn480 O492 1.898 . S
Zn480 O495 1.905 . S
Zn481 O489 1.905 1_565 S
Zn481 O490 1.898 . S
Zn481 O498 1.920 . S
Zn482 O485 2.080 1_455 S
Zn482 O488 2.114 . S
Zn482 O491 2.120 1_445 S
Zn482 O493 2.120 . S
Zn482 O494 2.114 1_455 S
Zn482 O497 2.080 . S
C483 O488 1.166 . S
C483 O489 1.182 . S
C484 O490 1.167 1_655 S
C484 O491 1.299 . S
O485 Zn482 2.080 1_655 S
O485 C499 1.305 . S
O486 Zn480 1.920 . S
O486 C499 1.234 . S
C487 O492 1.167 1_455 S
C487 O493 1.299 . S
O488 Zn482 2.114 . S
O488 C483 1.166 . S
O489 Zn481 1.905 1_545 S
O489 C483 1.182 . S
O490 Zn481 1.898 . S
O490 C484 1.167 1_455 S
O491 Zn482 2.120 1_665 S
O491 C484 1.299 . S
O492 Zn480 1.898 . S
O492 C487 1.167 1_655 S
O493 Zn482 2.120 . S
O493 C487 1.299 . S
O494 Zn482 2.114 1_655 S
O494 C496 1.166 . S
O495 Zn480 1.905 . S
O495 C496 1.182 . S
C496 O494 1.166 . S
C496 O495 1.182 . S
O497 Zn482 2.080 . S
O497 C500 1.305 1_545 S
O498 Zn481 1.920 . S
O498 C500 1.234 . S
C499 O485 1.305 . S
C499 O486 1.234 . S
C500 O497 1.305 1_565 S
C500 O498 1.234 . S
Zn501 O507 1.920 1_556 S
Zn501 O513 1.898 . S
Zn501 O516 1.905 . S
Zn502 O510 1.905 . S
Zn502 O511 1.898 . S
Zn502 O519 1.920 . S
Zn503 O506 2.080 . S
Zn503 O509 2.114 1_545 S
Zn503 O512 2.120 1_545 S
Zn503 O514 2.120 . S
Zn503 O515 2.114 1_544 S
Zn503 O518 2.080 . S
C504 O509 1.166 . S
C504 O510 1.182 . S
C505 O511 1.167 . S
C505 O512 1.299 . S
O506 Zn503 2.080 . S
O506 C520 1.305 . S
O507 Zn501 1.920 1_554 S
O507 C520 1.234 . S
C508 O513 1.167 . S
C508 O514 1.299 1_556 S
O509 Zn503 2.114 1_565 S
O509 C504 1.166 . S
O510 Zn502 1.905 . S
O510 C504 1.182 . S
O511 Zn502 1.898 . S
O511 C505 1.167 . S
O512 Zn503 2.120 1_565 S
O512 C505 1.299 . S
O513 Zn501 1.898 . S
O513 C508 1.167 . S
O514 Zn503 2.120 . S
O514 C508 1.299 1_554 S
O515 Zn503 2.114 1_566 S
O515 C517 1.166 . S
O516 Zn501 1.905 . S
O516 C517 1.182 1_545 S
C517 O515 1.166 . S
C517 O516 1.182 1_565 S
O518 Zn503 2.080 . S
O518 C521 1.305 . S
O519 Zn502 1.920 . S
O519 C521 1.234 1_565 S
C520 O506 1.305 . S
C520 O507 1.234 . S
C521 O518 1.305 . S
C521 O519 1.234 1_545 S
Zn522 O528 1.920 . S
Zn522 O534 1.898 . S
Zn522 O537 1.905 . S
Zn523 O531 1.905 . S
Zn523 O532 1.898 . S
Zn523 O540 1.920 . S
Zn524 O527 2.080 . S
Zn524 O530 2.114 . S
Zn524 O533 2.120 . S
Zn524 O535 2.120 . S
Zn524 O536 2.114 . S
Zn524 O539 2.080 . S
C525 O530 1.166 . S
C525 O531 1.182 . S
C526 O532 1.167 . S
C526 O533 1.299 . S
O527 Zn524 2.080 . S
O527 C541 1.305 . S
O528 Zn522 1.920 . S
O528 C541 1.234 . S
C529 O534 1.167 . S
C529 O535 1.299 . S
O530 Zn524 2.114 . S
O530 C525 1.166 . S
O531 Zn523 1.905 . S
O531 C525 1.182 . S
O532 Zn523 1.898 . S
O532 C526 1.167 . S
O533 Zn524 2.120 . S
O533 C526 1.299 . S
O534 Zn522 1.898 . S
O534 C529 1.167 . S
O535 Zn524 2.120 . S
O535 C529 1.299 . S
O536 Zn524 2.114 . S
O536 C538 1.166 . S
O537 Zn522 1.905 . S
O537 C538 1.182 . S
C538 O536 1.166 . S
C538 O537 1.182 . S
O539 Zn524 2.080 . S
O539 C542 1.305 . S
O540 Zn523 1.920 . S
O540 C542 1.234 . S
C541 O527 1.305 . S
C541 O528 1.234 . S
C542 O539 1.305 . S
C542 O540 1.234 . S
Zn543 O549 1.920 . S
Zn543 O555 1.898 . S
Zn543 O558 1.905 . S
Zn544 O552 1.905 1_655 S
Zn544 O553 1.898 . S
Zn544 O561 1.920 . S
Zn545 O548 2.080 1_554 S
Zn545 O551 2.114 . S
Zn545 O554 2.120 1_454 S
Zn545 O556 2.120 . S
Zn545 O557 2.114 1_554 S
Zn545 O560 2.080 . S
C546 O551 1.166 . S
C546 O552 1.182 . S
C547 O553 1.167 1_556 S
C547 O554 1.299 . S
O548 Zn545 2.080 1_556 S
O548 C562 1.305 . S
O549 Zn543 1.920 . S
O549 C562 1.234 . S
C550 O555 1.167 1_554 S
C550 O556 1.299 . S
O551 Zn545 2.114 . S
O551 C546 1.166 . S
O552 Zn544 1.905 1_455 S
O552 C546 1.182 . S
O553 Zn544 1.898 . S
O553 C547 1.167 1_554 S
O554 Zn545 2.120 1_656 S
O554 C547 1.299 . S
O555 Zn543 1.898 . S
O555 C550 1.167 1_556 S
O556 Zn545 2.120 . S
O556 C550 1.299 . S
O557 Zn545 2.114 1_556 S
O557 C559 1.166 . S
O558 Zn543 1.905 . S
O558 C559 1.182 . S
C559 O557 1.166 . S
C559 O558 1.182 . S
O560 Zn545 2.080 . S
O560 C563 1.305 1_455 S
O561 Zn544 1.920 . S
O561 C563 1.234 . S
C562 O548 1.305 . S
C562 O549 1.234 . S
C563 O560 1.305 1_655 S
C563 O561 1.234 . S
H564 C570 0.930 . S
H565 C573 0.930 . S
H566 C574 0.930 . S
H567 C575 0.930 . S
H568 C578 0.930 . S
H569 C579 0.930 . S
C570 H564 0.930 . S
C570 C571 1.355 . S
C570 C572 1.415 . S
C571 C570 1.355 . S
C571 C573 1.419 . S
C572 C570 1.415 . S
C572 C577 1.425 . S
C572 C579 1.409 . S
C573 H565 0.930 . S
C573 C571 1.419 . S
C573 C574 1.362 . S
C574 H566 0.930 . S
C574 C573 1.362 . S
C574 C577 1.409 . S
C575 H567 0.930 . S
C575 C576 1.355 . S
C575 C577 1.415 . S
C576 C575 1.355 . S
C576 C578 1.419 . S
C577 C572 1.425 . S
C577 C574 1.409 . S
C577 C575 1.415 . S
C578 H568 0.930 . S
C578 C576 1.419 . S
C578 C579 1.362 . S
C579 H569 0.930 . S
C579 C572 1.409 . S
C579 C578 1.362 . S
H580 C586 0.930 . S
H581 C589 0.930 . S
H582 C590 0.930 . S
H583 C591 0.930 . S
H584 C594 0.930 1_545 S
H585 C595 0.930 . S
C586 H580 0.930 . S
C586 C587 1.355 . S
C586 C588 1.415 . S
C587 C586 1.355 . S
C587 C589 1.419 . S
C588 C586 1.415 . S
C588 C593 1.425 . S
C588 C595 1.409 . S
C589 H581 0.930 . S
C589 C587 1.419 . S
C589 C590 1.362 . S
C590 H582 0.930 . S
C590 C589 1.362 . S
C590 C593 1.409 . S
C591 H583 0.930 . S
C591 C592 1.355 . S
C591 C593 1.415 . S
C592 C591 1.355 . S
C592 C594 1.419 . S
C593 C588 1.425 . S
C593 C590 1.409 . S
C593 C591 1.415 . S
C594 H584 0.930 1_565 S
C594 C592 1.419 . S
C594 C595 1.362 . S
C595 H585 0.930 . S
C595 C588 1.409 . S
C595 C594 1.362 . S
H596 C602 0.930 . S
H597 C605 0.930 . S
H598 C606 0.930 . S
H599 C607 0.930 . S
H600 C610 0.930 . S
H601 C611 0.930 . S
C602 H596 0.930 . S
C602 C603 1.355 . S
C602 C604 1.415 . S
C603 C602 1.355 . S
C603 C605 1.419 . S
C604 C602 1.415 . S
C604 C609 1.425 . S
C604 C611 1.409 . S
C605 H597 0.930 . S
C605 C603 1.419 . S
C605 C606 1.362 . S
C606 H598 0.930 . S
C606 C605 1.362 . S
C606 C609 1.409 . S
C607 H599 0.930 . S
C607 C608 1.355 . S
C607 C609 1.415 . S
C608 C607 1.355 . S
C608 C610 1.419 . S
C609 C604 1.425 . S
C609 C606 1.409 . S
C609 C607 1.415 . S
C610 H600 0.930 . S
C610 C608 1.419 . S
C610 C611 1.362 . S
C611 H601 0.930 . S
C611 C604 1.409 . S
C611 C610 1.362 . S
H612 C618 0.930 . S
H613 C621 0.930 . S
H614 C622 0.930 . S
H615 C623 0.930 1_455 S
H616 C626 0.930 . S
H617 C627 0.930 . S
C618 H612 0.930 . S
C618 C619 1.355 . S
C618 C620 1.415 . S
C619 C618 1.355 . S
C619 C621 1.419 . S
C620 C618 1.415 . S
C620 C625 1.425 . S
C620 C627 1.409 . S
C621 H613 0.930 . S
C621 C619 1.419 . S
C621 C622 1.362 . S
C622 H614 0.930 . S
C622 C621 1.362 . S
C622 C625 1.409 . S
C623 H615 0.930 1_655 S
C623 C624 1.355 . S
C623 C625 1.415 . S
C624 C623 1.355 . S
C624 C626 1.419 . S
C625 C620 1.425 . S
C625 C622 1.409 . S
C625 C623 1.415 . S
C626 H616 0.930 . S
C626 C624 1.419 . S
C626 C627 1.362 . S
C627 H617 0.930 . S
C627 C620 1.409 . S
C627 C626 1.362 . S
H628 C634 0.930 . S
H629 C637 0.930 . S
H630 C638 0.930 . S
H631 C639 0.930 . S
H632 C642 0.930 . S
H633 C643 0.930 . S
C634 H628 0.930 . S
C634 C635 1.355 . S
C634 C636 1.415 . S
C635 C634 1.355 . S
C635 C637 1.419 . S
C636 C634 1.415 . S
C636 C641 1.425 . S
C636 C643 1.409 . S
C637 H629 0.930 . S
C637 C635 1.419 . S
C637 C638 1.362 . S
C638 H630 0.930 . S
C638 C637 1.362 . S
C638 C641 1.409 . S
C639 H631 0.930 . S
C639 C640 1.355 . S
C639 C641 1.415 . S
C640 C639 1.355 . S
C640 C642 1.419 . S
C641 C636 1.425 . S
C641 C638 1.409 . S
C641 C639 1.415 . S
C642 H632 0.930 . S
C642 C640 1.419 . S
C642 C643 1.362 . S
C643 H633 0.930 . S
C643 C636 1.409 . S
C643 C642 1.362 . S
H644 C650 0.930 . S
H645 C653 0.930 . S
H646 C654 0.930 . S
H647 C655 0.930 . S
H648 C658 0.930 . S
H649 C659 0.930 . S
C650 H644 0.930 . S
C650 C651 1.355 . S
C650 C652 1.415 . S
C651 C650 1.355 . S
C651 C653 1.419 . S
C652 C650 1.415 . S
C652 C657 1.425 . S
C652 C659 1.409 . S
C653 H645 0.930 . S
C653 C651 1.419 . S
C653 C654 1.362 . S
C654 H646 0.930 . S
C654 C653 1.362 . S
C654 C657 1.409 . S
C655 H647 0.930 . S
C655 C656 1.355 . S
C655 C657 1.415 . S
C656 C655 1.355 . S
C656 C658 1.419 . S
C657 C652 1.425 . S
C657 C654 1.409 . S
C657 C655 1.415 . S
C658 H648 0.930 . S
C658 C656 1.419 . S
C658 C659 1.362 . S
C659 H649 0.930 . S
C659 C652 1.409 . S
C659 C658 1.362 . S
H660 C666 0.930 . S
H661 C669 0.930 . S
H662 C670 0.930 . S
H663 C671 0.930 . S
H664 C674 0.930 . S
H665 C675 0.930 . S
C666 H660 0.930 . S
C666 C667 1.355 . S
C666 C668 1.415 . S
C667 C666 1.355 . S
C667 C669 1.419 . S
C668 C666 1.415 . S
C668 C673 1.425 . S
C668 C675 1.409 . S
C669 H661 0.930 . S
C669 C667 1.419 . S
C669 C670 1.362 . S
C670 H662 0.930 . S
C670 C669 1.362 . S
C670 C673 1.409 . S
C671 H663 0.930 . S
C671 C672 1.355 . S
C671 C673 1.415 . S
C672 C671 1.355 . S
C672 C674 1.419 . S
C673 C668 1.425 . S
C673 C670 1.409 . S
C673 C671 1.415 . S
C674 H664 0.930 . S
C674 C672 1.419 . S
C674 C675 1.362 . S
C675 H665 0.930 . S
C675 C668 1.409 . S
C675 C674 1.362 . S
H676 C682 0.930 . S
H677 C685 0.930 . S
H678 C686 0.930 . S
H679 C687 0.930 . S
H680 C690 0.930 . S
H681 C691 0.930 . S
C682 H676 0.930 . S
C682 C683 1.355 . S
C682 C684 1.415 . S
C683 C682 1.355 . S
C683 C685 1.419 . S
C684 C682 1.415 . S
C684 C689 1.425 . S
C684 C691 1.409 . S
C685 H677 0.930 . S
C685 C683 1.419 . S
C685 C686 1.362 . S
C686 H678 0.930 . S
C686 C685 1.362 . S
C686 C689 1.409 . S
C687 H679 0.930 . S
C687 C688 1.355 . S
C687 C689 1.415 . S
C688 C687 1.355 . S
C688 C690 1.419 . S
C689 C684 1.425 . S
C689 C686 1.409 . S
C689 C687 1.415 . S
C690 H680 0.930 . S
C690 C688 1.419 . S
C690 C691 1.362 . S
C691 H681 0.930 . S
C691 C684 1.409 . S
C691 C690 1.362 . S
H692 C698 0.930 . S
H693 C701 0.930 . S
H694 C702 0.930 . S
H695 C703 0.930 . S
H696 C706 0.930 . S
H697 C707 0.930 . S
C698 H692 0.930 . S
C698 C699 1.355 . S
C698 C700 1.415 . S
C699 C698 1.355 . S
C699 C701 1.419 . S
C700 C698 1.415 . S
C700 C705 1.425 . S
C700 C707 1.409 . S
C701 H693 0.930 . S
C701 C699 1.419 . S
C701 C702 1.362 . S
C702 H694 0.930 . S
C702 C701 1.362 . S
C702 C705 1.409 . S
C703 H695 0.930 . S
C703 C704 1.355 . S
C703 C705 1.415 . S
C704 C703 1.355 . S
C704 C706 1.419 . S
C705 C700 1.425 . S
C705 C702 1.409 . S
C705 C703 1.415 . S
C706 H696 0.930 . S
C706 C704 1.419 . S
C706 C707 1.362 . S
C707 H697 0.930 . S
C707 C700 1.409 . S
C707 C706 1.362 . S
H708 C714 0.930 . S
H709 C717 0.930 . S
H710 C718 0.930 . S
H711 C719 0.930 . S
H712 C722 0.930 . S
H713 C723 0.930 . S
C714 H708 0.930 . S
C714 C715 1.355 . S
C714 C716 1.415 . S
C715 C714 1.355 . S
C715 C717 1.419 . S
C716 C714 1.415 . S
C716 C721 1.425 . S
C716 C723 1.409 . S
C717 H709 0.930 . S
C717 C715 1.419 . S
C717 C718 1.362 . S
C718 H710 0.930 . S
C718 C717 1.362 . S
C718 C721 1.409 . S
C719 H711 0.930 . S
C719 C720 1.355 . S
C719 C721 1.415 . S
C720 C719 1.355 . S
C720 C722 1.419 . S
C721 C716 1.425 . S
C721 C718 1.409 . S
C721 C719 1.415 . S
C722 H712 0.930 . S
C722 C720 1.419 . S
C722 C723 1.362 . S
C723 H713 0.930 . S
C723 C716 1.409 . S
C723 C722 1.362 . S
H724 C730 0.930 . S
H725 C733 0.930 . S
H726 C734 0.930 . S
H727 C735 0.930 . S
H728 C738 0.930 1_455 S
H729 C739 0.913 1_455 S
C730 H724 0.930 . S
C730 C731 1.355 . S
C730 C732 1.415 . S
C731 C730 1.355 . S
C731 C733 1.419 . S
C732 C730 1.415 . S
C732 C737 1.425 . S
C732 C739 1.409 . S
C733 H725 0.930 . S
C733 C731 1.419 . S
C733 C734 1.362 . S
C734 H726 0.930 . S
C734 C733 1.362 . S
C734 C737 1.409 . S
C735 H727 0.930 . S
C735 C736 1.355 . S
C735 C737 1.415 . S
C736 C735 1.355 . S
C736 C738 1.419 . S
C737 C732 1.425 . S
C737 C734 1.409 . S
C737 C735 1.415 . S
C738 H728 0.930 1_655 S
C738 C736 1.419 . S
C738 C739 1.362 . S
C739 H729 0.913 1_655 S
C739 C732 1.409 . S
C739 C738 1.362 . S
H740 C746 0.930 . S
H741 C749 0.930 . S
H742 C750 0.930 . S
H743 C751 0.930 . S
H744 C754 0.930 . S
H745 C755 0.930 . S
C746 H740 0.930 . S
C746 C747 1.355 . S
C746 C748 1.415 . S
C747 C746 1.355 . S
C747 C749 1.419 . S
C748 C746 1.415 . S
C748 C753 1.425 . S
C748 C755 1.409 . S
C749 H741 0.930 . S
C749 C747 1.419 . S
C749 C750 1.362 . S
C750 H742 0.930 . S
C750 C749 1.362 . S
C750 C753 1.409 . S
C751 H743 0.930 . S
C751 C752 1.355 . S
C751 C753 1.415 . S
C752 C751 1.355 . S
C752 C754 1.419 . S
C753 C748 1.425 . S
C753 C750 1.409 . S
C753 C751 1.415 . S
C754 H744 0.930 . S
C754 C752 1.419 . S
C754 C755 1.362 . S
C755 H745 0.930 . S
C755 C748 1.409 . S
C755 C754 1.362 . S
H756 C762 0.930 . S
H757 C765 0.930 . S
H758 C766 0.930 . S
H759 C767 0.930 . S
H760 C770 0.930 . S
H761 C771 0.930 . S
C762 H756 0.930 . S
C762 C763 1.355 1_565 S
C762 C764 1.415 . S
C763 C762 1.355 1_545 S
C763 C765 1.419 1_655 S
C764 C762 1.415 . S
C764 C769 1.425 1_665 S
C764 C771 1.409 . S
C765 H757 0.930 . S
C765 C763 1.419 1_455 S
C765 C766 1.362 . S
C766 H758 0.930 . S
C766 C765 1.362 . S
C766 C769 1.409 . S
C767 H759 0.930 . S
C767 C768 1.355 1_455 S
C767 C769 1.415 . S
C768 C767 1.355 1_655 S
C768 C770 1.419 1_545 S
C769 C764 1.425 1_445 S
C769 C766 1.409 . S
C769 C767 1.415 . S
C770 H760 0.930 . S
C770 C768 1.419 1_565 S
C770 C771 1.362 . S
C771 H761 0.930 . S
C771 C764 1.409 . S
C771 C770 1.362 . S
H772 C778 0.930 . S
H773 C781 0.930 1_565 S
H774 C782 0.930 . S
H775 C783 0.930 1_565 S
H776 C786 0.930 . S
H777 C787 0.930 . S
C778 H772 0.930 . S
C778 C779 1.355 . S
C778 C780 1.415 . S
C779 C778 1.355 . S
C779 C781 1.419 . S
C780 C778 1.415 . S
C780 C785 1.425 . S
C780 C787 1.409 . S
C781 H773 0.930 1_545 S
C781 C779 1.419 . S
C781 C782 1.362 1_545 S
C782 H774 0.930 . S
C782 C781 1.362 1_565 S
C782 C785 1.409 1_565 S
C783 H775 0.930 1_545 S
C783 C784 1.355 . S
C783 C785 1.415 . S
C784 C783 1.355 . S
C784 C786 1.419 . S
C785 C780 1.425 . S
C785 C782 1.409 1_545 S
C785 C783 1.415 . S
C786 H776 0.930 . S
C786 C784 1.419 . S
C786 C787 1.362 . S
C787 H777 0.930 . S
C787 C780 1.409 . S
C787 C786 1.362 . S
H788 C794 0.930 . S
H789 C797 0.930 . S
H790 C798 0.930 . S
H791 C799 0.930 . S
H792 C802 0.930 . S
H793 C803 0.930 . S
C794 H788 0.930 . S
C794 C795 1.355 . S
C794 C796 1.415 . S
C795 C794 1.355 . S
C795 C797 1.419 . S
C796 C794 1.415 . S
C796 C801 1.425 . S
C796 C803 1.409 . S
C797 H789 0.930 . S
C797 C795 1.419 . S
C797 C798 1.362 . S
C798 H790 0.930 . S
C798 C797 1.362 . S
C798 C801 1.409 . S
C799 H791 0.930 . S
C799 C800 1.355 . S
C799 C801 1.415 . S
C800 C799 1.355 . S
C800 C802 1.419 . S
C801 C796 1.425 . S
C801 C798 1.409 . S
C801 C799 1.415 . S
C802 H792 0.930 . S
C802 C800 1.419 . S
C802 C803 1.362 . S
C803 H793 0.930 . S
C803 C796 1.409 . S
C803 C802 1.362 . S
H804 C810 0.930 . S
H805 C813 0.930 1_655 S
H806 C814 0.925 1_655 S
H807 C815 0.917 1_655 S
H808 C818 0.930 . S
H809 C819 0.930 . S
C810 H804 0.930 . S
C810 C811 1.355 . S
C810 C812 1.415 . S
C811 C810 1.355 . S
C811 C813 1.419 . S
C812 C810 1.415 . S
C812 C817 1.425 . S
C812 C819 1.409 . S
C813 H805 0.930 1_455 S
C813 C811 1.419 . S
C813 C814 1.363 . S
C814 H806 0.925 1_455 S
C814 C813 1.363 . S
C814 C817 1.413 . S
C815 H807 0.917 1_455 S
C815 C816 1.355 . S
C815 C817 1.415 . S
C816 C815 1.355 . S
C816 C818 1.419 . S
C817 C812 1.425 . S
C817 C814 1.413 . S
C817 C815 1.415 . S
C818 H808 0.930 . S
C818 C816 1.419 . S
C818 C819 1.362 . S
C819 H809 0.930 . S
C819 C812 1.409 . S
C819 C818 1.362 . S
H820 C826 0.925 1_545 S
H821 C829 0.930 . S
H822 C830 0.930 . S
H823 C831 0.930 . S
H824 C834 0.930 . S
H825 C835 0.930 . S
C826 H820 0.925 1_565 S
C826 C827 1.358 1_556 S
C826 C828 1.416 . S
C827 C826 1.358 1_554 S
C827 C829 1.419 . S
C828 C826 1.416 . S
C828 C833 1.425 1_556 S
C828 C835 1.409 1_565 S
C829 H821 0.930 . S
C829 C827 1.419 . S
C829 C830 1.362 . S
C830 H822 0.930 . S
C830 C829 1.362 . S
C830 C833 1.409 . S
C831 H823 0.930 . S
C831 C832 1.355 . S
C831 C833 1.415 . S
C832 C831 1.355 . S
C832 C834 1.419 1_564 S
C833 C828 1.425 1_554 S
C833 C830 1.409 . S
C833 C831 1.415 . S
C834 H824 0.930 . S
C834 C832 1.419 1_546 S
C834 C835 1.362 . S
C835 H825 0.930 . S
C835 C828 1.409 1_545 S
C835 C834 1.362 . S
H836 C842 0.930 . S
H837 C845 0.930 . S
H838 C846 0.930 . S
H839 C847 0.930 . S
H840 C850 0.930 . S
H841 C851 0.930 . S
C842 H836 0.930 . S
C842 C843 1.355 . S
C842 C844 1.415 . S
C843 C842 1.355 . S
C843 C845 1.419 . S
C844 C842 1.415 . S
C844 C849 1.425 . S
C844 C851 1.409 . S
C845 H837 0.930 . S
C845 C843 1.419 . S
C845 C846 1.362 . S
C846 H838 0.930 . S
C846 C845 1.362 . S
C846 C849 1.409 . S
C847 H839 0.930 . S
C847 C848 1.355 . S
C847 C849 1.415 . S
C848 C847 1.355 . S
C848 C850 1.419 . S
C849 C844 1.425 . S
C849 C846 1.409 . S
C849 C847 1.415 . S
C850 H840 0.930 . S
C850 C848 1.419 . S
C850 C851 1.362 . S
C851 H841 0.930 . S
C851 C844 1.409 . S
C851 C850 1.362 . S
H852 C858 0.930 . S
H853 C861 0.930 . S
H854 C862 0.930 . S
H855 C863 0.930 1_556 S
H856 C866 0.930 . S
H857 C867 0.930 . S
C858 H852 0.930 . S
C858 C859 1.355 . S
C858 C860 1.415 . S
C859 C858 1.355 . S
C859 C861 1.419 1_554 S
C860 C858 1.415 . S
C860 C865 1.425 . S
C860 C867 1.409 . S
C861 H853 0.930 . S
C861 C859 1.419 1_556 S
C861 C862 1.362 . S
C862 H854 0.930 . S
C862 C861 1.362 . S
C862 C865 1.409 1_556 S
C863 H855 0.930 1_554 S
C863 C864 1.355 . S
C863 C865 1.415 . S
C864 C863 1.355 . S
C864 C866 1.419 . S
C865 C860 1.425 . S
C865 C862 1.409 1_554 S
C865 C863 1.415 . S
C866 H856 0.930 . S
C866 C864 1.419 . S
C866 C867 1.362 . S
C867 H857 0.930 . S
C867 C860 1.409 . S
C867 C866 1.362 . S
H868 C874 0.930 . S
H869 C877 0.930 . S
H870 C878 0.930 . S
H871 C879 0.930 . S
H872 C882 0.930 . S
H873 C883 0.930 . S
C874 H868 0.930 . S
C874 C875 1.355 . S
C874 C876 1.415 . S
C875 C874 1.355 . S
C875 C877 1.419 . S
C876 C874 1.415 . S
C876 C881 1.425 . S
C876 C883 1.409 . S
C877 H869 0.930 . S
C877 C875 1.419 . S
C877 C878 1.362 . S
C878 H870 0.930 . S
C878 C877 1.362 . S
C878 C881 1.409 . S
C879 H871 0.930 . S
C879 C880 1.355 . S
C879 C881 1.415 . S
C880 C879 1.355 . S
C880 C882 1.419 . S
C881 C876 1.425 . S
C881 C878 1.409 . S
C881 C879 1.415 . S
C882 H872 0.930 . S
C882 C880 1.419 . S
C882 C883 1.362 . S
C883 H873 0.930 . S
C883 C876 1.409 . S
C883 C882 1.362 . S
H884 C890 0.930 1_554 S
H885 C893 0.930 . S
H886 C894 0.930 . S
H887 C895 0.930 . S
H888 C898 0.930 . S
H889 C899 0.930 . S
C890 H884 0.930 1_556 S
C890 C891 1.355 1_455 S
C890 C892 1.415 . S
C891 C890 1.355 1_655 S
C891 C893 1.419 . S
C892 C890 1.415 . S
C892 C897 1.425 1_455 S
C892 C899 1.409 1_556 S
C893 H885 0.930 . S
C893 C891 1.419 . S
C893 C894 1.362 . S
C894 H886 0.930 . S
C894 C893 1.362 . S
C894 C897 1.409 . S
C895 H887 0.930 . S
C895 C896 1.355 1_655 S
C895 C897 1.415 . S
C896 C895 1.355 1_455 S
C896 C898 1.419 1_556 S
C897 C892 1.425 1_655 S
C897 C894 1.409 . S
C897 C895 1.415 . S
C898 H888 0.930 . S
C898 C896 1.419 1_554 S
C898 C899 1.362 . S
C899 H889 0.930 . S
C899 C892 1.409 1_554 S
C899 C898 1.362 . S
H900 C906 0.930 . S
H901 C909 0.930 . S
H902 C910 0.930 . S
H903 C911 0.930 . S
H904 C914 0.930 . S
H905 C915 0.930 . S
C906 H900 0.930 . S
C906 C907 1.355 . S
C906 C908 1.415 . S
C907 C906 1.355 . S
C907 C909 1.419 . S
C908 C906 1.415 . S
C908 C913 1.425 . S
C908 C915 1.409 . S
C909 H901 0.930 . S
C909 C907 1.419 . S
C909 C910 1.362 . S
C910 H902 0.930 . S
C910 C909 1.362 . S
C910 C913 1.409 . S
C911 H903 0.930 . S
C911 C912 1.355 . S
C911 C913 1.415 . S
C912 C911 1.355 . S
C912 C914 1.419 . S
C913 C908 1.425 . S
C913 C910 1.409 . S
C913 C911 1.415 . S
C914 H904 0.930 . S
C914 C912 1.419 . S
C914 C915 1.362 . S
C915 H905 0.930 . S
C915 C908 1.409 . S
C915 C914 1.362 . S
H916 C922 0.930 . S
H917 C925 0.930 . S
H918 C926 0.930 . S
H919 C927 0.930 . S
H920 C930 0.930 . S
H921 C931 0.930 . S
C922 H916 0.930 . S
C922 C923 1.355 . S
C922 C924 1.415 . S
C923 C922 1.355 . S
C923 C925 1.419 . S
C924 C922 1.415 . S
C924 C929 1.425 . S
C924 C931 1.409 . S
C925 H917 0.930 . S
C925 C923 1.419 . S
C925 C926 1.362 . S
C926 H918 0.930 . S
C926 C925 1.362 . S
C926 C929 1.409 . S
C927 H919 0.930 . S
C927 C928 1.355 . S
C927 C929 1.415 . S
C928 C927 1.355 . S
C928 C930 1.419 . S
C929 C924 1.425 . S
C929 C926 1.409 . S
C929 C927 1.415 . S
C930 H920 0.930 . S
C930 C928 1.419 . S
C930 C931 1.362 . S
C931 H921 0.930 . S
C931 C924 1.409 . S
C931 C930 1.362 . S
H932 C938 0.930 . S
H933 C941 0.930 . S
H934 C942 0.930 . S
H935 C943 0.930 . S
H936 C946 0.930 . S
H937 C947 0.930 . S
C938 H932 0.930 . S
C938 C939 1.355 . S
C938 C940 1.415 . S
C939 C938 1.355 . S
C939 C941 1.419 . S
C940 C938 1.415 . S
C940 C945 1.425 . S
C940 C947 1.409 . S
C941 H933 0.930 . S
C941 C939 1.419 . S
C941 C942 1.362 . S
C942 H934 0.930 . S
C942 C941 1.362 . S
C942 C945 1.409 . S
C943 H935 0.930 . S
C943 C944 1.355 . S
C943 C945 1.415 . S
C944 C943 1.355 . S
C944 C946 1.419 . S
C945 C940 1.425 . S
C945 C942 1.409 . S
C945 C943 1.415 . S
C946 H936 0.930 . S
C946 C944 1.419 . S
C946 C947 1.362 . S
C947 H937 0.930 . S
C947 C940 1.409 . S
C947 C946 1.362 . S
C571 C1 1.491 . S
C576 C483 1.379 . S
C587 C80 1.467 . S
C592 C517 1.360 . S
C608 C529 1.406 . S
C603 C140 1.449 . S
C619 C211 1.477 . S
C624 C563 1.376 . S
C640 C520 1.364 . S
C635 C31 1.488 . S
C656 C500 1.445 . S
C651 C61 1.506 . S
C672 C547 1.437 . S
C667 C151 1.454 . S
C688 C538 1.459 . S
C683 C200 1.514 . S
C699 C20 1.519 . S
C704 C546 1.404 . S
C720 C508 1.445 . S
C715 C121 1.456 . S
C731 C181 1.466 . S
C736 C484 1.346 . S
C747 C91 1.481 . S
C752 C541 1.388 . S
C768 C499 1.628 . S
C763 C260 1.755 1_545 S
C779 C320 1.676 . S
C784 C521 1.632 . S
C795 C361 1.734 . S
C800 C526 1.694 . S
C811 C451 1.667 . S
C816 C559 1.631 . S
C827 C271 1.748 . S
C832 C504 1.688 . S
C848 C496 1.675 . S
C843 C301 1.704 . S
C864 C550 1.668 . S
C859 C380 1.776 . S
C880 C542 1.591 . S
C875 C440 1.615 . S
C891 C241 1.701 . S
C896 C562 1.603 . S
C912 C505 1.694 . S
C907 C391 1.756 . S
C928 C487 1.669 . S
C923 C421 1.656 . S
C939 C331 1.609 . S
C944 C525 1.606 . S
