# Generated by pormake.
# Topology dag, (6,3)-cn, num edge types: 1
# Building blocks:
#     Node 0, Type 0, BuildingBlock: IZENUY_clean_sbu_0, # of connection points: 6
#     Node 1, Type 0, BuildingBlock: IZENUY_clean_sbu_0, # of connection points: 6
#     Node 2, Type 0, BuildingBlock: IZENUY_clean_sbu_0, # of connection points: 6
#     Node 3, Type 0, BuildingBlock: IZENUY_clean_sbu_0, # of connection points: 6
#     Node 4, Type 1, BuildingBlock: VETTIZ_charged_linker_0, # of connection points: 3
#     Node 5, Type 1, BuildingBlock: VETTIZ_charged_linker_0, # of connection points: 3
#     Node 6, Type 1, BuildingBlock: VETTIZ_charged_linker_0, # of connection points: 3
#     Node 7, Type 1, BuildingBlock: VETTIZ_charged_linker_0, # of connection points: 3
#     Node 8, Type 1, BuildingBlock: VETTIZ_charged_linker_0, # of connection points: 3
#     Node 9, Type 1, BuildingBlock: VETTIZ_charged_linker_0, # of connection points: 3
#     Node 10, Type 1, BuildingBlock: VETTIZ_charged_linker_0, # of connection points: 3
#     Node 11, Type 1, BuildingBlock: VETTIZ_charged_linker_0, # of connection points: 3
#     Edge 12, Type (0, 1), BuildingBlock: XIVTED_clean_linker_0, # of connection points: 2
#     Edge 13, Type (0, 1), BuildingBlock: XIVTED_clean_linker_0, # of connection points: 2
#     Edge 14, Type (0, 1), BuildingBlock: XIVTED_clean_linker_0, # of connection points: 2
#     Edge 15, Type (0, 1), BuildingBlock: XIVTED_clean_linker_0, # of connection points: 2
#     Edge 16, Type (0, 1), BuildingBlock: XIVTED_clean_linker_0, # of connection points: 2
#     Edge 17, Type (0, 1), BuildingBlock: XIVTED_clean_linker_0, # of connection points: 2
#     Edge 18, Type (0, 1), BuildingBlock: XIVTED_clean_linker_0, # of connection points: 2
#     Edge 19, Type (0, 1), BuildingBlock: XIVTED_clean_linker_0, # of connection points: 2
#     Edge 20, Type (0, 1), BuildingBlock: XIVTED_clean_linker_0, # of connection points: 2
#     Edge 21, Type (0, 1), BuildingBlock: XIVTED_clean_linker_0, # of connection points: 2
#     Edge 22, Type (0, 1), BuildingBlock: XIVTED_clean_linker_0, # of connection points: 2
#     Edge 23, Type (0, 1), BuildingBlock: XIVTED_clean_linker_0, # of connection points: 2
#     Edge 24, Type (0, 1), BuildingBlock: XIVTED_clean_linker_0, # of connection points: 2
#     Edge 25, Type (0, 1), BuildingBlock: XIVTED_clean_linker_0, # of connection points: 2
#     Edge 26, Type (0, 1), BuildingBlock: XIVTED_clean_linker_0, # of connection points: 2
#     Edge 27, Type (0, 1), BuildingBlock: XIVTED_clean_linker_0, # of connection points: 2
#     Edge 28, Type (0, 1), BuildingBlock: XIVTED_clean_linker_0, # of connection points: 2
#     Edge 29, Type (0, 1), BuildingBlock: XIVTED_clean_linker_0, # of connection points: 2
#     Edge 30, Type (0, 1), BuildingBlock: XIVTED_clean_linker_0, # of connection points: 2
#     Edge 31, Type (0, 1), BuildingBlock: XIVTED_clean_linker_0, # of connection points: 2
#     Edge 32, Type (0, 1), BuildingBlock: XIVTED_clean_linker_0, # of connection points: 2
#     Edge 33, Type (0, 1), BuildingBlock: XIVTED_clean_linker_0, # of connection points: 2
#     Edge 34, Type (0, 1), BuildingBlock: XIVTED_clean_linker_0, # of connection points: 2
#     Edge 35, Type (0, 1), BuildingBlock: XIVTED_clean_linker_0, # of connection points: 2
# Relax obj value: 0.264
# Max RMSD: 0.202
# Mean RMSD: 0.161
data_MOF--net-dag--node1-IZENUY_clean_sbu_0--node2-VETTIZ_charged_linker_0--edge1-XIVTED_clean_linker_0
_symmetry_space_group_name_H-M    P1
_symmetry_Int_Tables_number       1
_symmetry_cell_setting            triclinic
loop_
_symmetry_equiv_pos_as_xyz
'x, y, z'
_cell_length_a     47.669557
_cell_length_b     47.666325
_cell_length_c     41.262418
_cell_angle_alpha  93.283645
_cell_angle_beta   86.710407
_cell_angle_gamma 87.691264
loop_
_atom_site_label
_atom_site_type_symbol
_atom_site_fract_x
_atom_site_fract_y
_atom_site_fract_z
_atom_type_partial_charge
Fe0 Fe 0.20972 0.82945 0.07786 0.0
Fe1 Fe 0.15196 0.84197 0.05259 0.0
O2 O 0.17505 0.81893 0.07135 0.0
Fe3 Fe 0.16349 0.78605 0.08375 0.0
O4 O 0.17173 0.79421 0.12554 0.0
O5 O 0.21351 0.81018 0.11465 0.0
O6 O 0.19634 0.85956 0.10424 0.0
C7 C 0.1789 0.87785 0.09556 0.0
C8 C 0.21914 0.77444 0.05602 0.0
O9 O 0.16706 0.87406 0.06913 0.0
C10 C 0.13853 0.78874 0.02578 0.0
O11 O 0.21268 0.8506 0.0417 0.0
O12 O 0.17497 0.84056 0.01614 0.0
O13 O 0.19788 0.76773 0.07347 0.0
O14 O 0.22465 0.79984 0.05247 0.0
C15 C 0.11726 0.82425 0.10177 0.0
O16 O 0.13236 0.81444 0.03274 0.0
O17 O 0.1542 0.77484 0.04309 0.0
C18 C 0.19978 0.84871 0.01564 0.0
O19 O 0.12789 0.84455 0.08799 0.0
O20 O 0.12716 0.79922 0.09584 0.0
C21 C 0.1955 0.80086 0.13452 0.0
Fe22 Fe 0.6987 0.66115 0.52186 0.0
Fe23 Fe 0.65953 0.70473 0.56267 0.0
O24 O 0.66676 0.67003 0.54517 0.0
Fe25 Fe 0.64172 0.64411 0.55069 0.0
O26 O 0.66756 0.61452 0.54982 0.0
O27 O 0.70862 0.63382 0.54828 0.0
O28 O 0.72001 0.68489 0.54617 0.0
C29 C 0.71517 0.69721 0.5741 0.0
C30 C 0.65755 0.63392 0.48632 0.0
O31 O 0.69047 0.70308 0.58565 0.0
C32 C 0.60789 0.69273 0.54187 0.0
O33 O 0.6911 0.68754 0.49365 0.0
O34 O 0.67815 0.7222 0.52954 0.0
O35 O 0.63778 0.63995 0.50746 0.0
O36 O 0.683 0.63591 0.4933 0.0
C37 C 0.63975 0.66958 0.61163 0.0
O38 O 0.62788 0.70914 0.54086 0.0
O39 O 0.61093 0.66855 0.55258 0.0
C40 C 0.68551 0.71328 0.50064 0.0
O41 O 0.63969 0.69329 0.59907 0.0
O42 O 0.64435 0.6471 0.5942 0.0
C43 C 0.69347 0.61367 0.55497 0.0
Fe44 Fe 0.83578 0.21601 0.00446 0.0
Fe45 Fe 0.84861 0.15912 0.03158 0.0
O46 O 0.82515 0.18188 0.01302 0.0
Fe47 Fe 0.79141 0.17049 0.00328 0.0
O48 O 0.7981 0.17659 0.9607 0.0
O49 O 0.81592 0.2182 0.96783 0.0
O50 O 0.8654 0.20196 0.97798 0.0
C51 C 0.8845 0.18583 0.9873 0.0
C52 C 0.7813 0.2272 0.02781 0.0
O53 O 0.88067 0.1732 0.01322 0.0
C54 C 0.79623 0.14805 0.06229 0.0
O55 O 0.85762 0.22019 0.03995 0.0
O56 O 0.84872 0.183 0.06711 0.0
O57 O 0.7737 0.20551 0.01184 0.0
O58 O 0.80695 0.23199 0.03012 0.0
C59 C 0.8283 0.12286 0.986 0.0
O60 O 0.82135 0.14062 0.0535 0.0
O61 O 0.7818 0.16349 0.04523 0.0
C62 C 0.85648 0.2079 0.06646 0.0
O63 O 0.84953 0.13413 0.99708 0.0
O64 O 0.80366 0.13351 0.99304 0.0
C65 C 0.80566 0.19939 0.94971 0.0
Fe66 Fe 0.36302 0.3576 0.53177 0.0
Fe67 Fe 0.30663 0.33828 0.55935 0.0
O68 O 0.33868 0.33098 0.53598 0.0
Fe69 Fe 0.34688 0.2973 0.51654 0.0
O70 O 0.37831 0.29268 0.53912 0.0
O71 O 0.39406 0.3335 0.52702 0.0
O72 O 0.36767 0.35916 0.57469 0.0
C73 C 0.34822 0.36373 0.59659 0.0
C74 C 0.36468 0.33507 0.46981 0.0
O75 O 0.32253 0.36176 0.59011 0.0
C76 C 0.29142 0.30567 0.50378 0.0
O77 O 0.33703 0.38712 0.53636 0.0
O78 O 0.29658 0.36719 0.53485 0.0
O79 O 0.36667 0.31099 0.48143 0.0
O80 O 0.35925 0.35685 0.48836 0.0
C81 C 0.31973 0.28486 0.57675 0.0
O82 O 0.28579 0.31578 0.5327 0.0
O83 O 0.31639 0.29997 0.49307 0.0
C84 C 0.31118 0.3883 0.5313 0.0
O85 O 0.31397 0.31024 0.58556 0.0
O86 O 0.32811 0.2777 0.54766 0.0
C87 C 0.39787 0.30971 0.53849 0.0
C88 C 0.12648 0.07193 0.24449 0.0
C89 C 0.11264 0.05529 0.22161 0.0
C90 C 0.08745 0.06613 0.20978 0.0
C91 C 0.09036 0.10924 0.24304 0.0
C92 C 0.115 0.09876 0.25477 0.0
C93 C 0.12725 0.11957 0.27827 0.0
H94 H 0.12151 0.24903 0.35597 0.0
C95 C 0.0845 0.138 0.25772 0.0
C96 C 0.106 0.14426 0.27836 0.0
H97 H 0.18408 0.18143 0.36047 0.0
H98 H 0.15858 0.15179 0.3244 0.0
H99 H 0.11689 0.24213 0.28053 0.0
H100 H 0.06503 0.20833 0.35682 0.0
H101 H 0.0434 0.22374 0.32879 0.0
H102 H 0.06664 0.24534 0.35112 0.0
H103 H 0.09088 0.26367 0.30465 0.0
H104 H 0.0821 0.24328 0.2687 0.0
C105 C 0.15662 0.1269 0.26384 0.0
C106 C 0.12745 0.10658 0.31185 0.0
C107 C 0.99856 0.19376 0.2267 0.0
C108 C 0.98851 0.22159 0.2336 0.0
C109 C 0.00321 0.23955 0.2542 0.0
C110 C 0.02764 0.22953 0.26819 0.0
C111 C 0.03755 0.20148 0.26093 0.0
C112 C 0.0231 0.18428 0.24022 0.0
C113 C 0.03737 0.15577 0.23329 0.0
C114 C 0.0626 0.15833 0.25375 0.0
C115 C 0.06254 0.18499 0.27018 0.0
C116 C 0.046 0.15223 0.19635 0.0
C117 C 0.01719 0.13353 0.24576 0.0
C118 C 0.12934 0.22768 0.34945 0.0
C119 C 0.15472 0.21741 0.36096 0.0
C120 C 0.16463 0.18972 0.35166 0.0
C121 C 0.1498 0.17257 0.33072 0.0
C122 C 0.12487 0.18325 0.31863 0.0
C123 C 0.11487 0.21031 0.32811 0.0
C124 C 0.08849 0.21823 0.31174 0.0
C125 C 0.08422 0.19135 0.29131 0.0
C126 C 0.10567 0.171 0.29546 0.0
C127 C 0.09462 0.24325 0.2904 0.0
C128 C 0.06451 0.22444 0.33835 0.0
H129 H 0.0571 0.09972 0.21034 0.0
H130 H 0.14577 0.0643 0.25425 0.0
H131 H 0.10887 0.09354 0.31594 0.0
H132 H 0.12589 0.12257 0.3324 0.0
H133 H 0.14659 0.09282 0.31364 0.0
H134 H 0.15688 0.12708 0.23686 0.0
H135 H 0.1731 0.11124 0.26991 0.0
H136 H 0.16277 0.14815 0.27188 0.0
H137 H 0.98787 0.17979 0.21031 0.0
H138 H 0.99575 0.26119 0.25946 0.0
H139 H 0.03799 0.24403 0.28384 0.0
H140 H 0.04937 0.1729 0.18583 0.0
H141 H 0.02952 0.14182 0.18264 0.0
H142 H 0.06629 0.14031 0.1911 0.0
H143 H 0.00606 0.14117 0.26925 0.0
H144 H 0.02818 0.11359 0.25091 0.0
H145 H 0.00099 0.12899 0.22811 0.0
H146 H 0.0766 0.05422 0.1916 0.0
C147 C 0.07623 0.09282 0.22044 0.0
C148 C 0.39624 0.48983 0.80979 0.0
C149 C 0.41456 0.47191 0.78908 0.0
C150 C 0.44385 0.47526 0.79013 0.0
C151 C 0.43547 0.51778 0.82444 0.0
C152 C 0.4073 0.51228 0.82775 0.0
C153 C 0.39144 0.53321 0.85153 0.0
H154 H 0.38557 0.66136 0.9303 0.0
C155 C 0.43974 0.54502 0.84161 0.0
C156 C 0.4143 0.5538 0.85858 0.0
H157 H 0.32535 0.59603 0.9383 0.0
H158 H 0.35592 0.56468 0.90306 0.0
H159 H 0.44008 0.62024 0.93981 0.0
H160 H 0.40203 0.65015 0.85544 0.0
H161 H 0.43852 0.65001 0.84731 0.0
H162 H 0.42249 0.6722 0.88074 0.0
H163 H 0.44157 0.65606 0.92878 0.0
H164 H 0.4673 0.62945 0.91233 0.0
C165 C 0.38184 0.51776 0.88211 0.0
C166 C 0.36694 0.54714 0.83437 0.0
C167 C 0.52443 0.59914 0.80606 0.0
C168 C 0.53131 0.62739 0.81121 0.0
C169 C 0.51496 0.64475 0.83453 0.0
C170 C 0.49143 0.63444 0.85126 0.0
C171 C 0.48386 0.60661 0.84426 0.0
C172 C 0.50063 0.5893 0.82248 0.0
C173 C 0.48897 0.56067 0.817 0.0
C174 C 0.46197 0.56386 0.83863 0.0
C175 C 0.45904 0.59084 0.85435 0.0
C176 C 0.50997 0.53828 0.82878 0.0
C177 C 0.48321 0.55654 0.78049 0.0
C178 C 0.379 0.64019 0.92504 0.0
C179 C 0.3527 0.63145 0.93705 0.0
C180 C 0.34509 0.6037 0.92891 0.0
C181 C 0.36297 0.58534 0.9087 0.0
C182 C 0.38884 0.59465 0.89657 0.0
C183 C 0.39677 0.62142 0.90534 0.0
C184 C 0.42555 0.62723 0.89106 0.0
C185 C 0.43388 0.59917 0.87314 0.0
C186 C 0.41193 0.58049 0.87575 0.0
C187 C 0.44476 0.63381 0.91929 0.0
C188 C 0.42226 0.65124 0.86754 0.0
H189 H 0.47666 0.5003 0.80638 0.0
H190 H 0.37376 0.48742 0.81092 0.0
H191 H 0.3747 0.55496 0.81074 0.0
H192 H 0.35676 0.56536 0.84877 0.0
H193 H 0.35049 0.53186 0.82947 0.0
H194 H 0.39285 0.49681 0.88299 0.0
H195 H 0.35892 0.51422 0.88282 0.0
H196 H 0.38677 0.52949 0.90494 0.0
H197 H 0.53634 0.5853 0.7881 0.0
H198 H 0.52 0.6665 0.83927 0.0
H199 H 0.47953 0.64881 0.86826 0.0
H200 H 0.52522 0.54779 0.84515 0.0
H201 H 0.52236 0.52706 0.80799 0.0
H202 H 0.49919 0.52265 0.8434 0.0
H203 H 0.47021 0.57463 0.77282 0.0
H204 H 0.47183 0.53751 0.77449 0.0
H205 H 0.50319 0.55501 0.76515 0.0
H206 H 0.4588 0.46075 0.77652 0.0
C207 C 0.45433 0.49815 0.80756 0.0
C208 C 0.75156 0.86396 0.32444 0.0
C209 C 0.76036 0.83747 0.33447 0.0
C210 C 0.78704 0.82582 0.32334 0.0
C211 C 0.79599 0.8668 0.29311 0.0
C212 C 0.76962 0.87813 0.30351 0.0
C213 C 0.76352 0.90603 0.28931 0.0
H214 H 0.81144 0.01208 0.20127 0.0
C215 C 0.8099 0.88685 0.27229 0.0
C216 C 0.791 0.90993 0.26982 0.0
H217 H 0.7274 0.00496 0.24381 0.0
H218 H 0.74108 0.95972 0.26422 0.0
H219 H 0.84533 0.98775 0.25968 0.0
H220 H 0.81658 0.95129 0.17061 0.0
H221 H 0.8491 0.93413 0.17572 0.0
H222 H 0.8474 0.97163 0.17142 0.0
H223 H 0.86114 0.99407 0.2204 0.0
H224 H 0.87255 0.96462 0.24265 0.0
C225 C 0.7582 0.92867 0.3176 0.0
C226 C 0.73854 0.90284 0.26716 0.0
C227 C 0.91073 0.86566 0.22726 0.0
C228 C 0.92959 0.88111 0.20866 0.0
C229 C 0.92067 0.90778 0.19904 0.0
C230 C 0.89357 0.91897 0.20785 0.0
C231 C 0.87499 0.90341 0.22654 0.0
C232 C 0.88365 0.87726 0.23601 0.0
C233 C 0.86107 0.86407 0.25626 0.0
C234 C 0.83737 0.88647 0.25693 0.0
C235 C 0.8457 0.90937 0.23949 0.0
C236 C 0.87205 0.86041 0.29049 0.0
C237 C 0.85341 0.83633 0.23802 0.0
C238 C 0.7961 0.0009 0.21536 0.0
C239 C 0.76856 0.01206 0.2216 0.0
C240 C 0.74883 0.99668 0.23909 0.0
C241 C 0.75683 0.97051 0.25078 0.0
C242 C 0.78465 0.9596 0.2443 0.0
C243 C 0.80356 0.97473 0.22649 0.0
C244 C 0.83162 0.95951 0.2199 0.0
C245 C 0.82673 0.93271 0.23692 0.0
C246 C 0.79937 0.93292 0.25161 0.0
C247 C 0.85403 0.97733 0.23621 0.0
C248 C 0.83674 0.95392 0.18254 0.0
H249 H 0.82494 0.83032 0.29539 0.0
H250 H 0.73099 0.8732 0.33234 0.0
H251 H 0.7383 0.88111 0.25583 0.0
H252 H 0.73987 0.91648 0.2464 0.0
H253 H 0.71811 0.90733 0.28119 0.0
H254 H 0.7744 0.92647 0.33575 0.0
H255 H 0.73726 0.92653 0.33028 0.0
H256 H 0.7594 0.95029 0.30964 0.0
H257 H 0.91701 0.8452 0.23523 0.0
H258 H 0.93461 0.91993 0.18426 0.0
H259 H 0.88818 0.93934 0.19967 0.0
H260 H 0.88531 0.87813 0.29777 0.0
H261 H 0.8851 0.84062 0.29097 0.0
H262 H 0.85507 0.86073 0.30987 0.0
H263 H 0.8552 0.83818 0.21123 0.0
H264 H 0.83139 0.83086 0.24336 0.0
H265 H 0.86767 0.8185 0.2437 0.0
H266 H 0.79432 0.80555 0.33099 0.0
C267 C 0.80487 0.84031 0.3028 0.0
C268 C 0.73008 0.25417 0.71677 0.0
C269 C 0.75299 0.2634 0.73408 0.0
C270 C 0.76682 0.28738 0.72404 0.0
C271 C 0.73464 0.2929 0.68137 0.0
C272 C 0.72123 0.26925 0.69072 0.0
C273 C 0.69606 0.26356 0.67125 0.0
H274 H 0.60665 0.30953 0.56257 0.0
C275 C 0.7199 0.30428 0.6542 0.0
C276 C 0.69744 0.287 0.6478 0.0
H277 H 0.59538 0.24228 0.62712 0.0
H278 H 0.64343 0.24625 0.64309 0.0
H279 H 0.63321 0.34991 0.61402 0.0
H280 H 0.67039 0.29396 0.5365 0.0
H281 H 0.69384 0.32127 0.54096 0.0
H282 H 0.65853 0.32908 0.52924 0.0
H283 H 0.62858 0.35372 0.57155 0.0
H284 H 0.65779 0.36815 0.59071 0.0
C285 C 0.66931 0.26659 0.69472 0.0
C286 C 0.70069 0.23428 0.65316 0.0
C287 C 0.74437 0.39929 0.61304 0.0
C288 C 0.73408 0.41473 0.58786 0.0
C289 C 0.71677 0.40161 0.56552 0.0
C290 C 0.70782 0.3744 0.56984 0.0
C291 C 0.71602 0.36031 0.59695 0.0
C292 C 0.73543 0.37192 0.61676 0.0
C293 C 0.74371 0.35244 0.64239 0.0
C294 C 0.72436 0.32833 0.63612 0.0
C295 C 0.70758 0.3336 0.61014 0.0
C296 C 0.73682 0.3678 0.67619 0.0
C297 C 0.77516 0.34316 0.63552 0.0
C298 C 0.61476 0.29537 0.57977 0.0
C299 C 0.59726 0.27597 0.59409 0.0
C300 C 0.60851 0.2575 0.61592 0.0
C301 C 0.63621 0.26014 0.62547 0.0
C302 C 0.65248 0.28169 0.61332 0.0
C303 C 0.64192 0.29829 0.59008 0.0
C304 C 0.661 0.32139 0.58137 0.0
C305 C 0.68445 0.3166 0.60405 0.0
C306 C 0.6794 0.29335 0.62272 0.0
C307 C 0.64447 0.34987 0.58963 0.0
C308 C 0.67143 0.31643 0.54513 0.0
H309 H 0.76911 0.32019 0.69169 0.0
H310 H 0.71898 0.2358 0.72349 0.0
H311 H 0.72247 0.23161 0.64188 0.0
H312 H 0.68659 0.23118 0.63307 0.0
H313 H 0.69763 0.21727 0.67017 0.0
H314 H 0.6726 0.2805 0.71665 0.0
H315 H 0.66323 0.24588 0.70325 0.0
H316 H 0.65119 0.27671 0.6837 0.0
H317 H 0.75824 0.40872 0.63006 0.0
H318 H 0.70871 0.41306 0.54585 0.0
H319 H 0.69373 0.3659 0.55288 0.0
H320 H 0.71568 0.37872 0.6771 0.0
H321 H 0.75245 0.38385 0.68146 0.0
H322 H 0.73603 0.35347 0.69624 0.0
H323 H 0.78217 0.34513 0.60958 0.0
H324 H 0.77934 0.32068 0.63976 0.0
H325 H 0.78892 0.35618 0.65053 0.0
H326 H 0.78405 0.29555 0.73714 0.0
C327 C 0.75794 0.30194 0.69772 0.0
C328 C 0.60824 0.51285 0.26705 0.0
C329 C 0.59288 0.52884 0.29235 0.0
C330 C 0.56439 0.52318 0.29915 0.0
C331 C 0.56812 0.48399 0.25903 0.0
C332 C 0.59543 0.4906 0.2507 0.0
C333 C 0.60907 0.47033 0.22455 0.0
H334 H 0.60985 0.34321 0.1439 0.0
C335 C 0.56215 0.45764 0.24067 0.0
C336 C 0.58586 0.44967 0.22002 0.0
H337 H 0.67165 0.40694 0.13598 0.0
H338 H 0.6416 0.43929 0.17054 0.0
H339 H 0.59412 0.35347 0.21849 0.0
H340 H 0.55544 0.38745 0.13649 0.0
H341 H 0.52838 0.37924 0.16469 0.0
H342 H 0.55209 0.35151 0.14643 0.0
H343 H 0.57402 0.33257 0.19149 0.0
H344 H 0.55752 0.35303 0.22595 0.0
C345 C 0.63546 0.45634 0.23816 0.0
C346 C 0.6153 0.48658 0.19361 0.0
C347 C 0.47525 0.40641 0.27447 0.0
C348 C 0.46639 0.37912 0.26718 0.0
C349 C 0.48121 0.36225 0.24213 0.0
C350 C 0.50517 0.37203 0.22566 0.0
C351 C 0.51465 0.39879 0.23467 0.0
C352 C 0.49934 0.41567 0.25823 0.0
C353 C 0.51314 0.44276 0.26619 0.0
C354 C 0.53939 0.43946 0.24354 0.0
C355 C 0.54027 0.41366 0.2252 0.0
C356 C 0.52 0.4434 0.3026 0.0
C357 C 0.49337 0.46735 0.25717 0.0
C358 C 0.61677 0.36426 0.14914 0.0
C359 C 0.64351 0.37223 0.13771 0.0
C360 C 0.65155 0.39992 0.14521 0.0
C361 C 0.63406 0.41875 0.1652 0.0
C362 C 0.60823 0.40989 0.17802 0.0
C363 C 0.59948 0.38343 0.16902 0.0
C364 C 0.57089 0.37811 0.18424 0.0
C365 C 0.56415 0.40564 0.20405 0.0
C366 C 0.58643 0.4239 0.20086 0.0
C367 C 0.57401 0.3529 0.20608 0.0
C368 C 0.5505 0.37361 0.1567 0.0
H369 H 0.53048 0.49731 0.28962 0.0
H370 H 0.62998 0.51704 0.26078 0.0
H371 H 0.60145 0.50591 0.19335 0.0
H372 H 0.61106 0.47411 0.17107 0.0
H373 H 0.6374 0.49315 0.19196 0.0
H374 H 0.63042 0.44932 0.263 0.0
H375 H 0.65262 0.47137 0.23977 0.0
H376 H 0.64377 0.43745 0.22356 0.0
H377 H 0.46482 0.41972 0.29407 0.0
H378 H 0.4747 0.34121 0.23589 0.0
H379 H 0.51593 0.358 0.20734 0.0
H380 H 0.52501 0.42185 0.31027 0.0
H381 H 0.5019 0.45236 0.31856 0.0
H382 H 0.53881 0.45514 0.30797 0.0
H383 H 0.48173 0.4613 0.23539 0.0
H384 H 0.5049 0.48601 0.25033 0.0
H385 H 0.47755 0.47358 0.27738 0.0
H386 H 0.55202 0.53492 0.3186 0.0
C387 C 0.55193 0.50104 0.28251 0.0
C388 C 0.21946 0.15762 0.74681 0.0
C389 C 0.24608 0.14884 0.73255 0.0
C390 C 0.25736 0.12194 0.73842 0.0
C391 C 0.21584 0.11336 0.77267 0.0
C392 C 0.20473 0.13961 0.7665 0.0
C393 C 0.17593 0.14565 0.78277 0.0
H394 H 0.06921 0.10388 0.88124 0.0
C395 C 0.19492 0.09978 0.79373 0.0
C396 C 0.17134 0.11853 0.79938 0.0
H397 H 0.0754 0.18352 0.83686 0.0
H398 H 0.11992 0.16748 0.80935 0.0
H399 H 0.08862 0.0659 0.82074 0.0
H400 H 0.13393 0.09904 0.90021 0.0
H401 H 0.14398 0.06318 0.89345 0.0
H402 H 0.1077 0.07321 0.90381 0.0
H403 H 0.08949 0.04861 0.85813 0.0
H404 H 0.11573 0.04063 0.82513 0.0
C405 C 0.15487 0.15013 0.75611 0.0
C406 C 0.17755 0.1711 0.80759 0.0
C407 C 0.2177 0.00417 0.83795 0.0
C408 C 0.20125 0.98636 0.85647 0.0
C409 C 0.17286 0.99405 0.86489 0.0
C410 C 0.16106 0.01952 0.85599 0.0
C411 C 0.17776 0.03759 0.83834 0.0
C412 C 0.20531 0.02953 0.82867 0.0
C413 C 0.21882 0.05073 0.80766 0.0
C414 C 0.19523 0.07328 0.80786 0.0
C415 C 0.1715 0.06554 0.82637 0.0
C416 C 0.22577 0.03654 0.77323 0.0
C417 C 0.2447 0.06174 0.82457 0.0
C418 C 0.08023 0.11797 0.86576 0.0
C419 C 0.069 0.14513 0.86157 0.0
C420 C 0.08363 0.16249 0.84048 0.0
C421 C 0.10956 0.15318 0.82473 0.0
C422 C 0.12092 0.12622 0.83009 0.0
C423 C 0.10603 0.10906 0.85003 0.0
C424 C 0.12105 0.08116 0.85317 0.0
C425 C 0.14778 0.08447 0.83224 0.0
C426 C 0.14766 0.11086 0.81883 0.0
C427 C 0.10286 0.05773 0.83881 0.0
C428 C 0.12694 0.07871 0.8895 0.0
H429 H 0.25215 0.08407 0.76236 0.0
H430 H 0.21003 0.17798 0.74229 0.0
H431 H 0.1979 0.17043 0.81951 0.0
H432 H 0.1613 0.17137 0.82777 0.0
H433 H 0.17587 0.19127 0.79547 0.0
H434 H 0.1605 0.13588 0.73419 0.0
H435 H 0.15484 0.17208 0.74841 0.0
H436 H 0.13317 0.14506 0.76378 0.0
H437 H 0.23949 0.99842 0.83084 0.0
H438 H 0.15995 0.98058 0.87923 0.0
H439 H 0.13947 0.0243 0.86366 0.0
H440 H 0.21129 0.01939 0.76775 0.0
H441 H 0.24756 0.02718 0.77084 0.0
H442 H 0.22296 0.05124 0.75376 0.0
H443 H 0.23933 0.06686 0.85089 0.0
H444 H 0.2523 0.08126 0.81473 0.0
H445 H 0.26232 0.04563 0.82244 0.0
H446 H 0.27789 0.11479 0.72776 0.0
C447 C 0.24243 0.10419 0.75853 0.0
C448 C 0.25591 0.71939 0.36114 0.0
C449 C 0.26498 0.74418 0.34756 0.0
C450 C 0.28591 0.75936 0.36277 0.0
C451 C 0.29025 0.72401 0.40215 0.0
C452 C 0.26871 0.70982 0.3885 0.0
C453 C 0.26224 0.6836 0.40574 0.0
H454 H 0.29805 0.5925 0.51804 0.0
C455 C 0.30013 0.70803 0.42915 0.0
C456 C 0.28338 0.6846 0.43198 0.0
H457 H 0.23266 0.58432 0.45016 0.0
H458 H 0.24209 0.63048 0.43144 0.0
H459 H 0.34248 0.61691 0.46778 0.0
H460 H 0.28436 0.65588 0.54209 0.0
H461 H 0.31365 0.67709 0.54098 0.0
H462 H 0.31779 0.64096 0.5517 0.0
H463 H 0.34515 0.61283 0.51051 0.0
H464 H 0.36053 0.64159 0.49096 0.0
C465 C 0.26814 0.65798 0.38113 0.0
C466 C 0.23158 0.6867 0.42039 0.0
C467 C 0.39215 0.73152 0.47845 0.0
C468 C 0.4069 0.71956 0.50315 0.0
C469 C 0.39368 0.70007 0.52262 0.0
C470 C 0.36701 0.69083 0.51587 0.0
C471 C 0.35352 0.70111 0.48929 0.0
C472 C 0.3653 0.72228 0.47228 0.0
C473 C 0.3467 0.7322 0.44657 0.0
C474 C 0.32303 0.71179 0.44927 0.0
C475 C 0.32756 0.69326 0.47382 0.0
C476 C 0.36349 0.72835 0.41324 0.0
C477 C 0.33633 0.763 0.4562 0.0
C478 C 0.28522 0.60082 0.49969 0.0
C479 C 0.26449 0.5847 0.4857 0.0
C480 C 0.2489 0.59619 0.46121 0.0
C481 C 0.25442 0.62299 0.45038 0.0
C482 C 0.27603 0.63831 0.46385 0.0
C483 C 0.29069 0.62724 0.48843 0.0
C484 C 0.31374 0.64557 0.49913 0.0
C485 C 0.31058 0.66964 0.47696 0.0
C486 C 0.28858 0.66528 0.45618 0.0
C487 C 0.34205 0.62852 0.492 0.0
C488 C 0.30733 0.65533 0.53539 0.0
H489 H 0.31463 0.76168 0.39994 0.0
H490 H 0.2399 0.70717 0.35015 0.0
H491 H 0.22647 0.70868 0.43014 0.0
H492 H 0.22779 0.67356 0.44125 0.0
H493 H 0.21643 0.68149 0.4017 0.0
H494 H 0.28698 0.66112 0.36475 0.0
H495 H 0.25008 0.65478 0.36568 0.0
H496 H 0.27304 0.63829 0.39284 0.0
H497 H 0.40176 0.74697 0.46362 0.0
H498 H 0.4047 0.69068 0.54183 0.0
H499 H 0.35846 0.67511 0.53069 0.0
H500 H 0.37405 0.70704 0.41015 0.0
H501 H 0.37995 0.7441 0.41126 0.0
H502 H 0.3502 0.73018 0.39242 0.0
H503 H 0.33865 0.76869 0.48241 0.0
H504 H 0.31357 0.76653 0.45282 0.0
H505 H 0.34833 0.77817 0.44206 0.0
H506 H 0.29276 0.77892 0.35351 0.0
C507 C 0.29852 0.74944 0.38991 0.0
C508 C 0.85927 0.9106 0.87335 0.0
C509 C 0.87187 0.92486 0.89913 0.0
C510 C 0.89292 0.91068 0.91533 0.0
C511 C 0.89025 0.86956 0.87861 0.0
C512 C 0.86892 0.88308 0.8634 0.0
C513 C 0.85914 0.86534 0.83521 0.0
H514 H 0.87618 0.74828 0.73398 0.0
C515 C 0.89689 0.84207 0.86091 0.0
C516 C 0.87882 0.83942 0.83544 0.0
H517 H 0.81217 0.81553 0.73569 0.0
H518 H 0.83158 0.83828 0.78199 0.0
H519 H 0.92771 0.7872 0.74987 0.0
H520 H 0.87248 0.74315 0.81412 0.0
H521 H 0.90758 0.73702 0.82408 0.0
H522 H 0.89707 0.72525 0.78454 0.0
H523 H 0.93038 0.74965 0.75167 0.0
H524 H 0.94791 0.77261 0.77952 0.0
C525 C 0.86421 0.88145 0.80397 0.0
C526 C 0.82802 0.85852 0.84304 0.0
C527 C 0.97783 0.78084 0.89506 0.0
C528 C 0.99198 0.75636 0.88121 0.0
C529 C 0.98233 0.74307 0.85289 0.0
C530 C 0.95852 0.75421 0.83859 0.0
C531 C 0.94476 0.77914 0.85251 0.0
C532 C 0.95466 0.792 0.88022 0.0
C533 C 0.93929 0.81946 0.89034 0.0
C534 C 0.91791 0.82078 0.86468 0.0
C535 C 0.92096 0.79708 0.84266 0.0
C536 C 0.96055 0.84324 0.88796 0.0
C537 C 0.92505 0.81698 0.92471 0.0
C538 C 0.86632 0.76785 0.74442 0.0
C539 C 0.84289 0.78032 0.73056 0.0
C540 C 0.83072 0.80581 0.74508 0.0
C541 C 0.84185 0.81895 0.77229 0.0
C542 C 0.86544 0.80656 0.78548 0.0
C543 C 0.87715 0.78128 0.77191 0.0
C544 C 0.90175 0.77105 0.79009 0.0
C545 C 0.90258 0.79428 0.81683 0.0
C546 C 0.88142 0.81517 0.81364 0.0
C547 C 0.92842 0.7698 0.76671 0.0
C548 C 0.89462 0.74252 0.80388 0.0
H549 H 0.91839 0.8737 0.91848 0.0
H550 H 0.84309 0.921 0.8604 0.0
H551 H 0.82294 0.8589 0.86973 0.0
H552 H 0.82317 0.83705 0.834 0.0
H553 H 0.81338 0.874 0.8329 0.0
H554 H 0.88486 0.89155 0.80394 0.0
H555 H 0.84764 0.89829 0.80231 0.0
H556 H 0.86515 0.86774 0.78145 0.0
H557 H 0.98545 0.79181 0.91634 0.0
H558 H 0.99339 0.72435 0.84171 0.0
H559 H 0.95207 0.74333 0.81695 0.0
H560 H 0.97818 0.83738 0.86967 0.0
H561 H 0.96987 0.8479 0.91163 0.0
H562 H 0.95112 0.86289 0.8795 0.0
H563 H 0.91635 0.79583 0.92702 0.0
H564 H 0.90693 0.83201 0.93016 0.0
H565 H 0.94037 0.82 0.94377 0.0
H566 H 0.90258 0.92108 0.93563 0.0
C567 C 0.90208 0.88314 0.90533 0.0
H568 H 0.12989 0.90841 0.09664 0.0
H569 H 0.16827 0.03818 0.20747 0.0
H570 H 0.20919 0.90527 0.14213 0.0
H571 H 0.08406 0.00796 0.20703 0.0
H572 H 0.18611 0.99328 0.18021 0.0
H573 H 0.11495 0.94965 0.13168 0.0
C574 C 0.1443 0.91656 0.11387 0.0
C575 C 0.17091 0.90348 0.11637 0.0
C576 C 0.1638 0.99652 0.18652 0.0
C577 C 0.15383 0.95091 0.15656 0.0
C578 C 0.15357 0.02205 0.20216 0.0
C579 C 0.12449 0.02715 0.20901 0.0
C580 C 0.14476 0.9763 0.1773 0.0
C581 C 0.1065 0.00544 0.20133 0.0
C582 C 0.13562 0.93996 0.13406 0.0
C583 C 0.18852 0.9148 0.13947 0.0
N584 N 0.11686 0.98121 0.18545 0.0
N585 N 0.17979 0.9382 0.15855 0.0
H586 H 0.64949 0.62589 0.6498 0.0
H587 H 0.52975 0.67795 0.78267 0.0
H588 H 0.60823 0.70829 0.65183 0.0
H589 H 0.58277 0.60324 0.78964 0.0
H590 H 0.56162 0.69238 0.73885 0.0
H591 H 0.62866 0.61969 0.70411 0.0
C592 C 0.63624 0.64282 0.66185 0.0
C593 C 0.63025 0.66748 0.6461 0.0
C594 C 0.56656 0.67307 0.75035 0.0
C595 C 0.60604 0.66042 0.70829 0.0
C596 C 0.54846 0.6649 0.77558 0.0
C597 C 0.55334 0.63909 0.78956 0.0
C598 C 0.58956 0.65519 0.73881 0.0
C599 C 0.57781 0.62296 0.77906 0.0
C600 C 0.62441 0.63931 0.69294 0.0
C601 C 0.61326 0.68887 0.66303 0.0
N602 N 0.59474 0.63106 0.754 0.0
N603 N 0.60135 0.68466 0.69303 0.0
H604 H 0.74469 0.12471 0.07088 0.0
H605 H 0.79031 0.06246 0.2364 0.0
H606 H 0.81971 0.1439 0.11976 0.0
H607 H 0.73154 0.02259 0.1751 0.0
H608 H 0.78926 0.1032 0.20309 0.0
H609 H 0.72907 0.0974 0.11709 0.0
C610 C 0.75744 0.12376 0.09171 0.0
C611 C 0.78362 0.13618 0.09157 0.0
C612 C 0.77603 0.08588 0.19731 0.0
C613 C 0.76597 0.10551 0.14412 0.0
C614 C 0.77648 0.06278 0.21647 0.0
C615 C 0.76113 0.03924 0.20823 0.0
C616 C 0.76051 0.0852 0.16937 0.0
C617 C 0.74361 0.04047 0.18214 0.0
C618 C 0.74862 0.10814 0.11792 0.0
C619 C 0.79954 0.13429 0.11889 0.0
N620 N 0.7442 0.06289 0.16311 0.0
N621 N 0.79056 0.11909 0.14394 0.0
H622 H 0.42171 0.25692 0.54774 0.0
H623 H 0.56447 0.32347 0.60224 0.0
H624 H 0.43808 0.34542 0.5546 0.0
H625 H 0.56043 0.23468 0.57734 0.0
H626 H 0.51515 0.32994 0.59201 0.0
H627 H 0.46972 0.24649 0.56457 0.0
C628 C 0.4353 0.27409 0.55286 0.0
C629 C 0.42602 0.30206 0.5494 0.0
C630 C 0.52486 0.30896 0.58865 0.0
C631 C 0.48036 0.29038 0.56886 0.0
C632 C 0.55309 0.30529 0.59445 0.0
C633 C 0.56665 0.27862 0.58989 0.0
C634 C 0.50977 0.28583 0.57805 0.0
C635 C 0.5507 0.25564 0.58076 0.0
C636 C 0.46262 0.26813 0.56238 0.0
C637 C 0.44439 0.32352 0.55644 0.0
N638 N 0.52301 0.25979 0.57476 0.0
N639 N 0.47053 0.31721 0.56578 0.0
H640 H 0.60802 0.64057 0.45751 0.0
H641 H 0.64536 0.52377 0.31603 0.0
H642 H 0.69122 0.60141 0.44119 0.0
H643 H 0.57198 0.58017 0.31877 0.0
H644 H 0.66411 0.55323 0.35941 0.0
H645 H 0.59536 0.61949 0.40551 0.0
C646 C 0.62366 0.62754 0.44292 0.0
C647 C 0.6506 0.62242 0.45389 0.0
C648 C 0.64411 0.55939 0.35015 0.0
C649 C 0.63621 0.59811 0.39417 0.0
C650 C 0.63346 0.54269 0.32518 0.0
C651 C 0.60682 0.54926 0.31402 0.0
C652 C 0.62789 0.58265 0.36426 0.0
C653 C 0.59228 0.5739 0.32714 0.0
C654 C 0.61648 0.61565 0.41308 0.0
C655 C 0.67017 0.60575 0.4337 0.0
N656 N 0.6028 0.58944 0.35186 0.0
N657 N 0.66246 0.59385 0.40496 0.0
H658 H 0.9326 0.16127 0.00729 0.0
H659 H 0.02335 0.17459 0.84019 0.0
H660 H 0.90008 0.20371 0.92674 0.0
H661 H 0.0547 0.13876 0.92547 0.0
H662 H 0.97873 0.18761 0.87124 0.0
H663 H 0.97795 0.15458 0.97741 0.0
C664 C 0.935 0.16929 0.98329 0.0
C665 C 0.91241 0.183 0.96948 0.0
C666 C 0.99547 0.17703 0.88313 0.0
C667 C 0.96462 0.17524 0.93483 0.0
C668 C 0.02094 0.16972 0.86548 0.0
C669 C 0.0426 0.15522 0.88015 0.0
C670 C 0.99179 0.16984 0.91563 0.0
C671 C 0.03835 0.14935 0.91296 0.0
C672 C 0.96101 0.16549 0.9662 0.0
C673 C 0.91694 0.19303 0.93832 0.0
N674 N 0.01346 0.15652 0.92946 0.0
N675 N 0.94252 0.18879 0.92191 0.0
H676 H 0.27073 0.40154 0.48912 0.0
H677 H 0.2655 0.56467 0.54657 0.0
H678 H 0.3209 0.43773 0.56315 0.0
H679 H 0.25661 0.53744 0.44622 0.0
H680 H 0.27093 0.51554 0.55975 0.0
H681 H 0.25181 0.44922 0.47959 0.0
C682 C 0.2774 0.41946 0.50361 0.0
C683 C 0.29753 0.41593 0.5267 0.0
C684 C 0.26734 0.52036 0.53495 0.0
C685 C 0.27571 0.46977 0.51662 0.0
C686 C 0.26429 0.54837 0.52736 0.0
C687 C 0.2613 0.55525 0.49506 0.0
C688 C 0.26707 0.49897 0.5102 0.0
C689 C 0.25901 0.53315 0.4714 0.0
C690 C 0.26671 0.4465 0.49814 0.0
C691 C 0.30564 0.43968 0.54485 0.0
N692 N 0.26232 0.50592 0.47936 0.0
N693 N 0.29466 0.46556 0.53949 0.0
H694 H 0.13387 0.80694 0.96546 0.0
H695 H 0.99774 0.73009 0.9374 0.0
H696 H 0.11068 0.73958 0.02557 0.0
H697 H 0.04521 0.76432 0.85816 0.0
H698 H 0.04008 0.72909 0.96849 0.0
H699 H 0.10352 0.78883 0.92407 0.0
C700 C 0.12273 0.78796 0.96956 0.0
C701 C 0.12454 0.77474 0.99885 0.0
C702 C 0.04152 0.7359 0.94388 0.0
C703 C 0.08923 0.75433 0.95215 0.0
C704 C 0.01743 0.73633 0.92614 0.0
C705 C 0.01826 0.74711 0.89525 0.0
C706 C 0.0662 0.74723 0.93091 0.0
C707 C 0.04396 0.7556 0.88184 0.0
C708 C 0.10551 0.77756 0.94594 0.0
C709 C 0.10978 0.75025 0.00316 0.0
N710 N 0.06682 0.75611 0.90006 0.0
N711 N 0.09213 0.74117 0.98035 0.0
H712 H 0.78891 0.08402 0.97078 0.0
H713 H 0.9078 0.96683 0.9094 0.0
H714 H 0.87778 0.09828 0.96044 0.0
H715 H 0.81932 0.95124 0.90888 0.0
H716 H 0.89618 0.01581 0.92641 0.0
H717 H 0.79839 0.03624 0.94592 0.0
C718 C 0.81032 0.07725 0.963 0.0
C719 C 0.83262 0.09507 0.9681 0.0
C720 C 0.8792 0.00182 0.92252 0.0
C721 C 0.84357 0.04061 0.93988 0.0
C722 C 0.88586 0.97377 0.913 0.0
C723 C 0.86449 0.9549 0.90815 0.0
C724 C 0.85089 0.01121 0.92754 0.0
C725 C 0.83641 0.96517 0.91243 0.0
C726 C 0.81572 0.04998 0.9489 0.0
C727 C 0.85994 0.08521 0.95748 0.0
N728 N 0.83037 0.99264 0.9222 0.0
N729 N 0.86461 0.05868 0.94414 0.0
H730 H 0.35553 0.38101 0.43458 0.0
H731 H 0.46587 0.32707 0.29207 0.0
H732 H 0.39282 0.29667 0.42622 0.0
H733 H 0.41678 0.40515 0.2921 0.0
H734 H 0.43505 0.31278 0.33691 0.0
H735 H 0.37381 0.38805 0.37936 0.0
C736 C 0.36741 0.36389 0.42102 0.0
C737 C 0.37308 0.33839 0.43524 0.0
C738 C 0.43068 0.33282 0.32672 0.0
C739 C 0.39421 0.34634 0.37196 0.0
C740 C 0.44815 0.3409 0.30088 0.0
C741 C 0.44419 0.36757 0.28866 0.0
C742 C 0.4093 0.35165 0.34061 0.0
C743 C 0.421 0.38468 0.3013 0.0
C744 C 0.37774 0.36787 0.38941 0.0
C745 C 0.38818 0.31678 0.41634 0.0
N746 N 0.40474 0.37664 0.32694 0.0
N747 N 0.39861 0.32139 0.38583 0.0
H748 H 0.24157 0.88661 0.01027 0.0
H749 H 0.186 0.93286 0.84327 0.0
H750 H 0.18274 0.84115 0.95393 0.0
H751 H 0.24193 0.9816 0.89984 0.0
H752 H 0.19514 0.89282 0.87613 0.0
H753 H 0.25189 0.91509 0.96383 0.0
C754 C 0.23129 0.88218 0.98791 0.0
C755 C 0.21076 0.86193 0.9862 0.0
C756 C 0.206 0.912 0.88098 0.0
C757 C 0.22236 0.89446 0.93314 0.0
C758 C 0.20092 0.93474 0.86204 0.0
C759 C 0.21315 0.96043 0.86911 0.0
C760 C 0.22289 0.91524 0.90766 0.0
C761 C 0.23218 0.96201 0.89372 0.0
C762 C 0.23714 0.89851 0.96143 0.0
C763 C 0.19825 0.85697 0.95656 0.0
N764 N 0.23602 0.93988 0.91266 0.0
N765 N 0.20394 0.8734 0.93142 0.0
H766 H 0.57811 0.74139 0.56244 0.0
H767 H 0.4483 0.71028 0.45558 0.0
H768 H 0.57407 0.66521 0.50167 0.0
H769 H 0.43414 0.73741 0.55689 0.0
H770 H 0.49915 0.70852 0.46225 0.0
H771 H 0.52907 0.75401 0.55083 0.0
C772 C 0.56703 0.72767 0.54621 0.0
C773 C 0.57985 0.70225 0.53295 0.0
C774 C 0.48486 0.71546 0.48277 0.0
C775 C 0.5248 0.71675 0.51912 0.0
C776 C 0.45599 0.71666 0.47897 0.0
C777 C 0.43719 0.72398 0.50577 0.0
C778 C 0.49492 0.72217 0.51338 0.0
C779 C 0.4481 0.73163 0.53572 0.0
C780 C 0.53922 0.73478 0.53976 0.0
C781 C 0.56475 0.68494 0.51235 0.0
N782 N 0.47639 0.73048 0.53881 0.0
N783 N 0.53801 0.69258 0.50587 0.0
H784 H 0.40065 0.36333 0.61883 0.0
H785 H 0.36478 0.44296 0.79143 0.0
H786 H 0.3144 0.3883 0.64836 0.0
H787 H 0.43856 0.45558 0.72873 0.0
H788 H 0.34659 0.41333 0.74733 0.0
H789 H 0.41553 0.38575 0.66885 0.0
C790 C 0.38473 0.37343 0.63591 0.0
C791 C 0.35623 0.37453 0.62896 0.0
C792 C 0.36687 0.4225 0.74371 0.0
C793 C 0.37337 0.40014 0.68664 0.0
C794 C 0.3773 0.43951 0.76874 0.0
C795 C 0.40356 0.45179 0.76426 0.0
C796 C 0.38308 0.41733 0.71438 0.0
C797 C 0.41877 0.44607 0.73423 0.0
C798 C 0.39331 0.38619 0.66451 0.0
C799 C 0.33661 0.38732 0.65257 0.0
N800 N 0.40838 0.42924 0.71069 0.0
N801 N 0.34558 0.39996 0.6804 0.0
H802 H 0.10105 0.8736 0.13469 0.0
H803 H 0.94647 0.82756 0.18515 0.0
H804 H 0.07505 0.78862 0.11756 0.0
H805 H 0.97845 0.90892 0.21003 0.0
H806 H 0.99385 0.81118 0.16404 0.0
H807 H 0.05695 0.88535 0.1658 0.0
C808 C 0.08602 0.85734 0.1376 0.0
C809 C 0.09155 0.83019 0.12315 0.0
C810 C 0.9905 0.83252 0.17442 0.0
C811 C 0.04065 0.84356 0.15877 0.0
C812 C 0.96352 0.84184 0.18657 0.0
C813 C 0.95845 0.86977 0.1989 0.0
C814 C 0.01247 0.85131 0.17465 0.0
C815 C 0.98126 0.88741 0.20006 0.0
C816 C 0.06082 0.86404 0.1555 0.0
C817 C 0.07152 0.80984 0.12821 0.0
N818 N 0.00715 0.87796 0.18785 0.0
N819 N 0.04672 0.81705 0.1453 0.0
H820 H 0.74263 0.58685 0.53052 0.0
H821 H 0.72276 0.45405 0.63759 0.0
H822 H 0.6731 0.5801 0.6008 0.0
H823 H 0.75219 0.44493 0.5366 0.0
H824 H 0.71879 0.50516 0.63364 0.0
H825 H 0.75972 0.53915 0.54196 0.0
C826 C 0.73139 0.57555 0.54886 0.0
C827 C 0.70639 0.58714 0.56468 0.0
C828 C 0.72672 0.49196 0.6126 0.0
C829 C 0.72592 0.53335 0.57811 0.0
C830 C 0.72921 0.4629 0.61487 0.0
C831 C 0.7377 0.44536 0.58731 0.0
C832 C 0.73319 0.50351 0.58271 0.0
C833 C 0.74541 0.45783 0.5583 0.0
C834 C 0.74103 0.54843 0.55521 0.0
C835 C 0.69236 0.57169 0.58799 0.0
N836 N 0.74283 0.48623 0.55667 0.0
N837 N 0.70232 0.54554 0.59404 0.0
H838 H 0.89454 0.2497 0.07 0.0
H839 H 0.93522 0.20522 0.24431 0.0
H840 H 0.84786 0.19368 0.12907 0.0
H841 H 0.98544 0.25833 0.18556 0.0
H842 H 0.89686 0.21086 0.2081 0.0
H843 H 0.9218 0.26258 0.11681 0.0
C844 C 0.88962 0.24058 0.09298 0.0
C845 C 0.86934 0.22013 0.09549 0.0
C846 C 0.91597 0.22187 0.20342 0.0
C847 C 0.90041 0.23465 0.14895 0.0
C848 C 0.93773 0.21879 0.22424 0.0
C849 C 0.96332 0.23135 0.21773 0.0
C850 C 0.92014 0.23704 0.17543 0.0
C851 C 0.96584 0.24848 0.19133 0.0
C852 C 0.90523 0.24787 0.11966 0.0
C853 C 0.86373 0.20908 0.12587 0.0
N854 N 0.94468 0.2504 0.17068 0.0
N855 N 0.87941 0.2162 0.15123 0.0
H856 H 0.16415 0.77768 0.18358 0.0
H857 H 0.29416 0.7665 0.29694 0.0
H858 H 0.24599 0.80963 0.16068 0.0
H859 H 0.21064 0.74316 0.32776 0.0
H860 H 0.27623 0.78215 0.2468 0.0
H861 H 0.18003 0.76486 0.23643 0.0
C862 C 0.18537 0.78215 0.18968 0.0
C863 C 0.20382 0.7946 0.16749 0.0
C864 C 0.26172 0.77375 0.26452 0.0
C865 C 0.2221 0.77986 0.22781 0.0
C866 C 0.27193 0.76493 0.29336 0.0
C867 C 0.25386 0.7537 0.31687 0.0
C868 C 0.23318 0.77119 0.25878 0.0
C869 C 0.2254 0.75149 0.31027 0.0
C870 C 0.19441 0.7748 0.21985 0.0
C871 C 0.23105 0.79995 0.17682 0.0
N872 N 0.21592 0.76014 0.28181 0.0
N873 N 0.23935 0.79243 0.20612 0.0
H874 H 0.7645 0.67005 0.58799 0.0
H875 H 0.82151 0.80614 0.67922 0.0
H876 H 0.7182 0.74986 0.60097 0.0
H877 H 0.83573 0.72393 0.71568 0.0
H878 H 0.79417 0.78506 0.63675 0.0
H879 H 0.80085 0.68929 0.62236 0.0
C880 C 0.76228 0.69168 0.5977 0.0
C881 C 0.73843 0.70846 0.59199 0.0
C882 C 0.80357 0.77164 0.65387 0.0
C883 C 0.77966 0.73047 0.63016 0.0
C884 C 0.81904 0.78363 0.67825 0.0
C885 C 0.83031 0.76691 0.70169 0.0
C886 C 0.79965 0.74264 0.65247 0.0
C887 C 0.8273 0.73767 0.69829 0.0
C888 C 0.78282 0.70253 0.61728 0.0
C889 C 0.73623 0.73626 0.60511 0.0
N890 N 0.81198 0.72643 0.67428 0.0
N891 N 0.75664 0.74645 0.62347 0.0
H892 H 0.72376 0.22878 0.02329 0.0
H893 H 0.70011 0.36614 0.14398 0.0
H894 H 0.79045 0.27381 0.06653 0.0
H895 H 0.63297 0.33032 0.09156 0.0
H896 H 0.73304 0.33132 0.11626 0.0
H897 H 0.6896 0.26439 0.04888 0.0
C898 C 0.73123 0.2461 0.0381 0.0
C899 C 0.76005 0.2483 0.04271 0.0
C900 C 0.71114 0.33109 0.11063 0.0
C901 C 0.72117 0.28894 0.07201 0.0
C902 C 0.6923 0.35118 0.1263 0.0
C903 C 0.66369 0.3514 0.11993 0.0
C904 C 0.70143 0.31078 0.08847 0.0
C905 C 0.65478 0.33084 0.09742 0.0
C906 C 0.71174 0.26643 0.05263 0.0
C907 C 0.76851 0.27121 0.06214 0.0
N908 N 0.67359 0.31132 0.08251 0.0
N909 N 0.74919 0.29053 0.07607 0.0
H910 H 0.32047 0.22721 0.56585 0.0
H911 H 0.25406 0.20469 0.74438 0.0
H912 H 0.30521 0.29332 0.64159 0.0
H913 H 0.27328 0.13615 0.6727 0.0
H914 H 0.27583 0.2368 0.70757 0.0
H915 H 0.30648 0.19279 0.60502 0.0
C916 C 0.31442 0.23447 0.59072 0.0
C917 C 0.3137 0.26326 0.60031 0.0
C918 C 0.27551 0.21472 0.69986 0.0
C919 C 0.29766 0.22407 0.64513 0.0
C920 C 0.26299 0.19641 0.72086 0.0
C921 C 0.26164 0.1678 0.71143 0.0
C922 C 0.28661 0.20446 0.66897 0.0
C923 C 0.27395 0.15808 0.68091 0.0
C924 C 0.30642 0.21482 0.61305 0.0
C925 C 0.30578 0.27143 0.6329 0.0
N926 N 0.28569 0.17644 0.66058 0.0
N927 N 0.29792 0.25199 0.65399 0.0
H928 H 0.69305 0.701 0.43539 0.0
H929 H 0.73352 0.85639 0.39266 0.0
H930 H 0.68887 0.77095 0.50705 0.0
H931 H 0.74684 0.78269 0.32714 0.0
H932 H 0.70967 0.82767 0.43255 0.0
H933 H 0.70529 0.73283 0.3934 0.0
C934 C 0.69461 0.72313 0.44232 0.0
C935 C 0.69038 0.73323 0.47493 0.0
C936 C 0.71753 0.8179 0.40928 0.0
C937 C 0.70454 0.76996 0.4267 0.0
C938 C 0.73094 0.83428 0.3865 0.0
C939 C 0.74238 0.82174 0.35681 0.0
C940 C 0.71544 0.7889 0.40207 0.0
C941 C 0.73866 0.79304 0.34997 0.0
C942 C 0.70157 0.74134 0.41825 0.0
C943 C 0.69219 0.76222 0.48226 0.0
N944 N 0.7257 0.77758 0.3725 0.0
N945 N 0.69945 0.77957 0.45834 0.0
H946 H 0.83327 0.23473 0.91051 0.0
H947 H 0.71955 0.2384 0.77991 0.0
H948 H 0.76484 0.17816 0.91243 0.0
H949 H 0.80623 0.25621 0.75588 0.0
H950 H 0.7338 0.21914 0.8303 0.0
H951 H 0.82179 0.24675 0.85574 0.0
C952 C 0.81589 0.22479 0.89933 0.0
C953 C 0.79991 0.20552 0.916 0.0
C954 C 0.74967 0.22706 0.81377 0.0
C955 C 0.7865 0.21941 0.85373 0.0
C956 C 0.74162 0.23794 0.78483 0.0
C957 C 0.76164 0.24929 0.76349 0.0
C958 C 0.77781 0.228 0.82179 0.0
C959 C 0.78986 0.24847 0.77182 0.0
C960 C 0.80946 0.23153 0.86808 0.0
C961 C 0.77772 0.19309 0.90036 0.0
N962 N 0.79703 0.2384 0.80049 0.0
N963 N 0.7714 0.20054 0.87021 0.0
H964 H 0.29624 0.29666 0.43824 0.0
H965 H 0.13941 0.24733 0.41862 0.0
H966 H 0.23511 0.29832 0.5198 0.0
H967 H 0.20935 0.22858 0.34878 0.0
H968 H 0.17073 0.27382 0.45351 0.0
H969 H 0.26091 0.28015 0.40261 0.0
C970 C 0.27529 0.29358 0.4487 0.0
C971 C 0.26878 0.29833 0.48221 0.0
C972 C 0.17907 0.26406 0.43042 0.0
C973 C 0.22802 0.27923 0.44125 0.0
C974 C 0.16125 0.24913 0.41054 0.0
C975 C 0.17203 0.23562 0.38108 0.0
C976 C 0.20759 0.26571 0.42032 0.0
C977 C 0.20038 0.23842 0.37155 0.0
C978 C 0.25508 0.28416 0.42826 0.0
C979 C 0.24107 0.29463 0.49415 0.0
N980 N 0.21715 0.25307 0.39113 0.0
N981 N 0.22168 0.28495 0.47369 0.0
H982 H 0.20783 0.72005 0.03879 0.0
H983 H 0.36579 0.6731 0.98205 0.0
H984 H 0.27501 0.77813 0.03884 0.0
H985 H 0.29483 0.63529 0.93876 0.0
H986 H 0.33341 0.70726 0.01256 0.0
H987 H 0.2405 0.68381 0.01171 0.0
C988 C 0.22949 0.72508 0.03334 0.0
C989 C 0.23876 0.7521 0.04092 0.0
C990 C 0.32504 0.69136 0.99642 0.0
C991 C 0.27606 0.71086 0.01045 0.0
C992 C 0.34348 0.67194 0.97879 0.0
C993 C 0.33317 0.6513 0.95741 0.0
C994 C 0.29603 0.6899 0.99317 0.0
C995 C 0.30387 0.65047 0.95517 0.0
C996 C 0.24801 0.70449 0.0178 0.0
C997 C 0.26698 0.7576 0.03318 0.0
N998 N 0.28633 0.66948 0.97285 0.0
N999 N 0.28471 0.73709 0.01849 0.0
loop_
_geom_bond_atom_site_label_1
_geom_bond_atom_site_label_2
_geom_bond_distance
_geom_bond_site_symmetry_2
_ccdc_geom_bond_type
Fe0 O2 1.918 . S
Fe0 O5 1.997 . S
Fe0 O6 2.002 . S
Fe0 O11 1.976 . S
Fe0 O14 1.996 . S
Fe1 O2 1.918 . S
Fe1 O9 1.997 . S
Fe1 O12 1.996 . S
Fe1 O16 1.976 . S
Fe1 O19 2.002 . S
O2 Fe0 1.918 . S
O2 Fe1 1.918 . S
O2 Fe3 1.918 . S
Fe3 O2 1.918 . S
Fe3 O4 2.002 . S
Fe3 O13 1.976 . S
Fe3 O17 1.996 . S
Fe3 O20 1.997 . S
O4 Fe3 2.002 . S
O4 C21 1.295 . S
O5 Fe0 1.997 . S
O5 C21 1.235 . S
O6 Fe0 2.002 . S
O6 C7 1.295 . S
C7 O6 1.295 . S
C7 O9 1.235 . S
C8 O13 1.287 . S
C8 O14 1.255 . S
O9 Fe1 1.997 . S
O9 C7 1.235 . S
C10 O16 1.287 . S
C10 O17 1.255 . S
O11 Fe0 1.976 . S
O11 C18 1.287 . S
O12 Fe1 1.996 . S
O12 C18 1.255 . S
O13 Fe3 1.976 . S
O13 C8 1.287 . S
O14 Fe0 1.996 . S
O14 C8 1.255 . S
C15 O19 1.295 . S
C15 O20 1.235 . S
O16 Fe1 1.976 . S
O16 C10 1.287 . S
O17 Fe3 1.996 . S
O17 C10 1.255 . S
C18 O11 1.287 . S
C18 O12 1.255 . S
O19 Fe1 2.002 . S
O19 C15 1.295 . S
O20 Fe3 1.997 . S
O20 C15 1.235 . S
C21 O4 1.295 . S
C21 O5 1.235 . S
Fe22 O24 1.918 . S
Fe22 O27 1.997 . S
Fe22 O28 2.002 . S
Fe22 O33 1.976 . S
Fe22 O36 1.996 . S
Fe23 O24 1.918 . S
Fe23 O31 1.997 . S
Fe23 O34 1.996 . S
Fe23 O38 1.976 . S
Fe23 O41 2.002 . S
O24 Fe22 1.918 . S
O24 Fe23 1.918 . S
O24 Fe25 1.918 . S
Fe25 O24 1.918 . S
Fe25 O26 2.002 . S
Fe25 O35 1.976 . S
Fe25 O39 1.996 . S
Fe25 O42 1.997 . S
O26 Fe25 2.002 . S
O26 C43 1.295 . S
O27 Fe22 1.997 . S
O27 C43 1.235 . S
O28 Fe22 2.002 . S
O28 C29 1.295 . S
C29 O28 1.295 . S
C29 O31 1.235 . S
C30 O35 1.287 . S
C30 O36 1.255 . S
O31 Fe23 1.997 . S
O31 C29 1.235 . S
C32 O38 1.287 . S
C32 O39 1.255 . S
O33 Fe22 1.976 . S
O33 C40 1.287 . S
O34 Fe23 1.996 . S
O34 C40 1.255 . S
O35 Fe25 1.976 . S
O35 C30 1.287 . S
O36 Fe22 1.996 . S
O36 C30 1.255 . S
C37 O41 1.295 . S
C37 O42 1.235 . S
O38 Fe23 1.976 . S
O38 C32 1.287 . S
O39 Fe25 1.996 . S
O39 C32 1.255 . S
C40 O33 1.287 . S
C40 O34 1.255 . S
O41 Fe23 2.002 . S
O41 C37 1.295 . S
O42 Fe25 1.997 . S
O42 C37 1.235 . S
C43 O26 1.295 . S
C43 O27 1.235 . S
Fe44 O46 1.918 . S
Fe44 O49 1.999 1_554 S
Fe44 O50 2.004 1_554 S
Fe44 O55 1.973 . S
Fe44 O58 1.994 . S
Fe45 O46 1.918 . S
Fe45 O53 1.997 1_554 S
Fe45 O56 1.996 . S
Fe45 O60 1.976 . S
Fe45 O63 2.002 1_554 S
O46 Fe44 1.918 . S
O46 Fe45 1.918 . S
O46 Fe47 1.919 . S
Fe47 O46 1.919 . S
Fe47 O48 2.000 1_554 S
Fe47 O57 1.977 . S
Fe47 O61 1.998 . S
Fe47 O64 1.995 1_554 S
O48 Fe47 2.000 1_556 S
O48 C65 1.295 . S
O49 Fe44 1.999 1_556 S
O49 C65 1.235 . S
O50 Fe44 2.004 1_556 S
O50 C51 1.295 . S
C51 O50 1.295 . S
C51 O53 1.235 . S
C52 O57 1.287 . S
C52 O58 1.255 . S
O53 Fe45 1.997 1_556 S
O53 C51 1.235 . S
C54 O60 1.287 . S
C54 O61 1.255 . S
O55 Fe44 1.973 . S
O55 C62 1.287 . S
O56 Fe45 1.996 . S
O56 C62 1.255 . S
O57 Fe47 1.977 . S
O57 C52 1.287 . S
O58 Fe44 1.994 . S
O58 C52 1.255 . S
C59 O63 1.295 . S
C59 O64 1.235 . S
O60 Fe45 1.976 . S
O60 C54 1.287 . S
O61 Fe47 1.998 . S
O61 C54 1.255 . S
C62 O55 1.287 . S
C62 O56 1.255 . S
O63 Fe45 2.002 1_556 S
O63 C59 1.295 . S
O64 Fe47 1.995 1_556 S
O64 C59 1.235 . S
C65 O48 1.295 . S
C65 O49 1.235 . S
Fe66 O68 1.918 . S
Fe66 O71 1.997 . S
Fe66 O72 2.002 . S
Fe66 O77 1.976 . S
Fe66 O80 1.996 . S
Fe67 O68 1.918 . S
Fe67 O75 1.997 . S
Fe67 O78 1.996 . S
Fe67 O82 1.976 . S
Fe67 O85 2.002 . S
O68 Fe66 1.918 . S
O68 Fe67 1.918 . S
O68 Fe69 1.918 . S
Fe69 O68 1.918 . S
Fe69 O70 2.002 . S
Fe69 O79 1.976 . S
Fe69 O83 1.996 . S
Fe69 O86 1.997 . S
O70 Fe69 2.002 . S
O70 C87 1.295 . S
O71 Fe66 1.997 . S
O71 C87 1.235 . S
O72 Fe66 2.002 . S
O72 C73 1.295 . S
C73 O72 1.295 . S
C73 O75 1.235 . S
C74 O79 1.287 . S
C74 O80 1.255 . S
O75 Fe67 1.997 . S
O75 C73 1.235 . S
C76 O82 1.287 . S
C76 O83 1.255 . S
O77 Fe66 1.976 . S
O77 C84 1.287 . S
O78 Fe67 1.996 . S
O78 C84 1.255 . S
O79 Fe69 1.976 . S
O79 C74 1.287 . S
O80 Fe66 1.996 . S
O80 C74 1.255 . S
C81 O85 1.295 . S
C81 O86 1.235 . S
O82 Fe67 1.976 . S
O82 C76 1.287 . S
O83 Fe69 1.996 . S
O83 C76 1.255 . S
C84 O77 1.287 . S
C84 O78 1.255 . S
O85 Fe67 2.002 . S
O85 C81 1.295 . S
O86 Fe69 1.997 . S
O86 C81 1.235 . S
C87 O70 1.295 . S
C87 O71 1.235 . S
C88 C89 1.391 . S
C88 C92 1.391 . S
C88 H130 0.948 . S
C89 C88 1.391 . S
C89 C90 1.391 . S
C90 C89 1.391 . S
C90 H146 0.947 . S
C90 C147 1.392 . S
C91 C92 1.391 . S
C91 C95 1.397 . S
C91 C147 1.419 . S
C92 C88 1.391 . S
C92 C91 1.391 . S
C92 C93 1.399 . S
C93 C92 1.399 . S
C93 C96 1.396 . S
C93 C105 1.453 . S
C93 C106 1.684 . S
H94 C118 0.948 . S
C95 C91 1.397 . S
C95 C96 1.394 . S
C95 C114 1.723 . S
C96 C93 1.396 . S
C96 C95 1.394 . S
C96 C126 1.723 . S
H97 C120 0.947 . S
H98 C121 0.948 . S
H99 C127 0.982 . S
H100 C128 0.979 . S
H101 C128 0.980 . S
H102 C128 0.983 . S
H103 C127 0.979 . S
H104 C127 0.977 . S
C105 C93 1.453 . S
C105 H134 0.982 . S
C105 H135 0.979 . S
C105 H136 0.977 . S
C106 C93 1.684 . S
C106 H131 0.979 . S
C106 H132 0.980 . S
C106 H133 0.983 . S
C107 C108 1.391 . S
C107 C112 1.391 . S
C107 H137 0.948 . S
C108 C107 1.391 . S
C108 C109 1.391 . S
C109 C108 1.391 . S
C109 C110 1.392 . S
C109 H138 0.947 . S
C110 C109 1.392 . S
C110 C111 1.419 . S
C110 H139 0.948 . S
C111 C110 1.419 . S
C111 C112 1.391 . S
C111 C115 1.397 . S
C112 C107 1.391 . S
C112 C111 1.391 . S
C112 C113 1.399 . S
C113 C112 1.399 . S
C113 C114 1.396 . S
C113 C116 1.453 . S
C113 C117 1.684 . S
C114 C95 1.723 . S
C114 C113 1.396 . S
C114 C115 1.394 . S
C115 C111 1.397 . S
C115 C114 1.394 . S
C115 C125 1.723 . S
C116 C113 1.453 . S
C116 H140 0.982 . S
C116 H141 0.979 . S
C116 H142 0.977 . S
C117 C113 1.684 . S
C117 H143 0.979 . S
C117 H144 0.980 . S
C117 H145 0.983 . S
C118 H94 0.948 . S
C118 C119 1.391 . S
C118 C123 1.391 . S
C119 C118 1.391 . S
C119 C120 1.391 . S
C120 H97 0.947 . S
C120 C119 1.391 . S
C120 C121 1.392 . S
C121 H98 0.948 . S
C121 C120 1.392 . S
C121 C122 1.419 . S
C122 C121 1.419 . S
C122 C123 1.391 . S
C122 C126 1.397 . S
C123 C118 1.391 . S
C123 C122 1.391 . S
C123 C124 1.399 . S
C124 C123 1.399 . S
C124 C125 1.396 . S
C124 C127 1.453 . S
C124 C128 1.684 . S
C125 C115 1.723 . S
C125 C124 1.396 . S
C125 C126 1.394 . S
C126 C96 1.723 . S
C126 C122 1.397 . S
C126 C125 1.394 . S
C127 H99 0.982 . S
C127 H103 0.979 . S
C127 H104 0.977 . S
C127 C124 1.453 . S
C128 H100 0.979 . S
C128 H101 0.980 . S
C128 H102 0.983 . S
C128 C124 1.684 . S
H129 C147 0.948 . S
H130 C88 0.948 . S
H131 C106 0.979 . S
H132 C106 0.980 . S
H133 C106 0.983 . S
H134 C105 0.982 . S
H135 C105 0.979 . S
H136 C105 0.977 . S
H137 C107 0.948 . S
H138 C109 0.947 . S
H139 C110 0.948 . S
H140 C116 0.982 . S
H141 C116 0.979 . S
H142 C116 0.977 . S
H143 C117 0.979 . S
H144 C117 0.980 . S
H145 C117 0.983 . S
H146 C90 0.947 . S
C147 C90 1.392 . S
C147 C91 1.419 . S
C147 H129 0.948 . S
C148 C149 1.391 . S
C148 C152 1.391 . S
C148 H190 0.948 . S
C149 C148 1.391 . S
C149 C150 1.391 . S
C150 C149 1.391 . S
C150 H206 0.947 . S
C150 C207 1.392 . S
C151 C152 1.391 . S
C151 C155 1.397 . S
C151 C207 1.419 . S
C152 C148 1.391 . S
C152 C151 1.391 . S
C152 C153 1.399 . S
C153 C152 1.399 . S
C153 C156 1.396 . S
C153 C165 1.453 . S
C153 C166 1.684 . S
H154 C178 0.948 . S
C155 C151 1.397 . S
C155 C156 1.394 . S
C155 C174 1.723 . S
C156 C153 1.396 . S
C156 C155 1.394 . S
C156 C186 1.723 . S
H157 C180 0.947 . S
H158 C181 0.948 . S
H159 C187 0.982 . S
H160 C188 0.979 . S
H161 C188 0.980 . S
H162 C188 0.983 . S
H163 C187 0.979 . S
H164 C187 0.977 . S
C165 C153 1.453 . S
C165 H194 0.982 . S
C165 H195 0.979 . S
C165 H196 0.977 . S
C166 C153 1.684 . S
C166 H191 0.979 . S
C166 H192 0.980 . S
C166 H193 0.983 . S
C167 C168 1.391 . S
C167 C172 1.391 . S
C167 H197 0.948 . S
C168 C167 1.391 . S
C168 C169 1.391 . S
C169 C168 1.391 . S
C169 C170 1.392 . S
C169 H198 0.947 . S
C170 C169 1.392 . S
C170 C171 1.419 . S
C170 H199 0.948 . S
C171 C170 1.419 . S
C171 C172 1.391 . S
C171 C175 1.397 . S
C172 C167 1.391 . S
C172 C171 1.391 . S
C172 C173 1.399 . S
C173 C172 1.399 . S
C173 C174 1.396 . S
C173 C176 1.453 . S
C173 C177 1.684 . S
C174 C155 1.723 . S
C174 C173 1.396 . S
C174 C175 1.394 . S
C175 C171 1.397 . S
C175 C174 1.394 . S
C175 C185 1.723 . S
C176 C173 1.453 . S
C176 H200 0.982 . S
C176 H201 0.979 . S
C176 H202 0.977 . S
C177 C173 1.684 . S
C177 H203 0.979 . S
C177 H204 0.980 . S
C177 H205 0.983 . S
C178 H154 0.948 . S
C178 C179 1.391 . S
C178 C183 1.391 . S
C179 C178 1.391 . S
C179 C180 1.391 . S
C180 H157 0.947 . S
C180 C179 1.391 . S
C180 C181 1.392 . S
C181 H158 0.948 . S
C181 C180 1.392 . S
C181 C182 1.419 . S
C182 C181 1.419 . S
C182 C183 1.391 . S
C182 C186 1.397 . S
C183 C178 1.391 . S
C183 C182 1.391 . S
C183 C184 1.399 . S
C184 C183 1.399 . S
C184 C185 1.396 . S
C184 C187 1.453 . S
C184 C188 1.684 . S
C185 C175 1.723 . S
C185 C184 1.396 . S
C185 C186 1.394 . S
C186 C156 1.723 . S
C186 C182 1.397 . S
C186 C185 1.394 . S
C187 H159 0.982 . S
C187 H163 0.979 . S
C187 H164 0.977 . S
C187 C184 1.453 . S
C188 H160 0.979 . S
C188 H161 0.980 . S
C188 H162 0.983 . S
C188 C184 1.684 . S
H189 C207 0.948 . S
H190 C148 0.948 . S
H191 C166 0.979 . S
H192 C166 0.980 . S
H193 C166 0.983 . S
H194 C165 0.982 . S
H195 C165 0.979 . S
H196 C165 0.977 . S
H197 C167 0.948 . S
H198 C169 0.947 . S
H199 C170 0.948 . S
H200 C176 0.982 . S
H201 C176 0.979 . S
H202 C176 0.977 . S
H203 C177 0.979 . S
H204 C177 0.980 . S
H205 C177 0.983 . S
H206 C150 0.947 . S
C207 C150 1.392 . S
C207 C151 1.419 . S
C207 H189 0.948 . S
C208 C209 1.391 . S
C208 C212 1.391 . S
C208 H250 0.948 . S
C209 C208 1.391 . S
C209 C210 1.391 . S
C210 C209 1.391 . S
C210 H266 0.947 . S
C210 C267 1.392 . S
C211 C212 1.391 . S
C211 C215 1.397 . S
C211 C267 1.419 . S
C212 C208 1.391 . S
C212 C211 1.391 . S
C212 C213 1.399 . S
C213 C212 1.399 . S
C213 C216 1.396 . S
C213 C225 1.453 . S
C213 C226 1.684 . S
H214 C238 0.948 . S
C215 C211 1.397 . S
C215 C216 1.394 . S
C215 C234 1.723 . S
C216 C213 1.396 . S
C216 C215 1.394 . S
C216 C246 1.723 . S
H217 C240 0.947 . S
H218 C241 0.948 . S
H219 C247 0.982 . S
H220 C248 0.979 . S
H221 C248 0.980 . S
H222 C248 0.983 . S
H223 C247 0.979 . S
H224 C247 0.977 . S
C225 C213 1.453 . S
C225 H254 0.982 . S
C225 H255 0.979 . S
C225 H256 0.977 . S
C226 C213 1.684 . S
C226 H251 0.979 . S
C226 H252 0.980 . S
C226 H253 0.983 . S
C227 C228 1.391 . S
C227 C232 1.391 . S
C227 H257 0.948 . S
C228 C227 1.391 . S
C228 C229 1.391 . S
C229 C228 1.391 . S
C229 C230 1.392 . S
C229 H258 0.947 . S
C230 C229 1.392 . S
C230 C231 1.419 . S
C230 H259 0.948 . S
C231 C230 1.419 . S
C231 C232 1.391 . S
C231 C235 1.397 . S
C232 C227 1.391 . S
C232 C231 1.391 . S
C232 C233 1.399 . S
C233 C232 1.399 . S
C233 C234 1.396 . S
C233 C236 1.453 . S
C233 C237 1.684 . S
C234 C215 1.723 . S
C234 C233 1.396 . S
C234 C235 1.394 . S
C235 C231 1.397 . S
C235 C234 1.394 . S
C235 C245 1.723 . S
C236 C233 1.453 . S
C236 H260 0.982 . S
C236 H261 0.979 . S
C236 H262 0.977 . S
C237 C233 1.684 . S
C237 H263 0.979 . S
C237 H264 0.980 . S
C237 H265 0.983 . S
C238 H214 0.948 . S
C238 C239 1.391 . S
C238 C243 1.391 . S
C239 C238 1.391 . S
C239 C240 1.391 . S
C240 H217 0.947 . S
C240 C239 1.391 . S
C240 C241 1.392 . S
C241 H218 0.948 . S
C241 C240 1.392 . S
C241 C242 1.419 . S
C242 C241 1.419 . S
C242 C243 1.391 . S
C242 C246 1.397 . S
C243 C238 1.391 . S
C243 C242 1.391 . S
C243 C244 1.399 . S
C244 C243 1.399 . S
C244 C245 1.396 . S
C244 C247 1.453 . S
C244 C248 1.684 . S
C245 C235 1.723 . S
C245 C244 1.396 . S
C245 C246 1.394 . S
C246 C216 1.723 . S
C246 C242 1.397 . S
C246 C245 1.394 . S
C247 H219 0.982 . S
C247 H223 0.979 . S
C247 H224 0.977 . S
C247 C244 1.453 . S
C248 H220 0.979 . S
C248 H221 0.980 . S
C248 H222 0.983 . S
C248 C244 1.684 . S
H249 C267 0.948 . S
H250 C208 0.948 . S
H251 C226 0.979 . S
H252 C226 0.980 . S
H253 C226 0.983 . S
H254 C225 0.982 . S
H255 C225 0.979 . S
H256 C225 0.977 . S
H257 C227 0.948 . S
H258 C229 0.947 . S
H259 C230 0.948 . S
H260 C236 0.982 . S
H261 C236 0.979 . S
H262 C236 0.977 . S
H263 C237 0.979 . S
H264 C237 0.980 . S
H265 C237 0.983 . S
H266 C210 0.947 . S
C267 C210 1.392 . S
C267 C211 1.419 . S
C267 H249 0.948 . S
C268 C269 1.391 . S
C268 C272 1.391 . S
C268 H310 0.948 . S
C269 C268 1.391 . S
C269 C270 1.391 . S
C270 C269 1.391 . S
C270 H326 0.947 . S
C270 C327 1.392 . S
C271 C272 1.391 . S
C271 C275 1.397 . S
C271 C327 1.419 . S
C272 C268 1.391 . S
C272 C271 1.391 . S
C272 C273 1.399 . S
C273 C272 1.399 . S
C273 C276 1.396 . S
C273 C285 1.453 . S
C273 C286 1.684 . S
H274 C298 0.948 . S
C275 C271 1.397 . S
C275 C276 1.394 . S
C275 C294 1.723 . S
C276 C273 1.396 . S
C276 C275 1.394 . S
C276 C306 1.723 . S
H277 C300 0.947 . S
H278 C301 0.948 . S
H279 C307 0.982 . S
H280 C308 0.979 . S
H281 C308 0.980 . S
H282 C308 0.983 . S
H283 C307 0.979 . S
H284 C307 0.977 . S
C285 C273 1.453 . S
C285 H314 0.982 . S
C285 H315 0.979 . S
C285 H316 0.977 . S
C286 C273 1.684 . S
C286 H311 0.979 . S
C286 H312 0.980 . S
C286 H313 0.983 . S
C287 C288 1.391 . S
C287 C292 1.391 . S
C287 H317 0.948 . S
C288 C287 1.391 . S
C288 C289 1.391 . S
C289 C288 1.391 . S
C289 C290 1.392 . S
C289 H318 0.947 . S
C290 C289 1.392 . S
C290 C291 1.419 . S
C290 H319 0.948 . S
C291 C290 1.419 . S
C291 C292 1.391 . S
C291 C295 1.397 . S
C292 C287 1.391 . S
C292 C291 1.391 . S
C292 C293 1.399 . S
C293 C292 1.399 . S
C293 C294 1.396 . S
C293 C296 1.453 . S
C293 C297 1.684 . S
C294 C275 1.723 . S
C294 C293 1.396 . S
C294 C295 1.394 . S
C295 C291 1.397 . S
C295 C294 1.394 . S
C295 C305 1.723 . S
C296 C293 1.453 . S
C296 H320 0.982 . S
C296 H321 0.979 . S
C296 H322 0.977 . S
C297 C293 1.684 . S
C297 H323 0.979 . S
C297 H324 0.980 . S
C297 H325 0.983 . S
C298 H274 0.948 . S
C298 C299 1.391 . S
C298 C303 1.391 . S
C299 C298 1.391 . S
C299 C300 1.391 . S
C300 H277 0.947 . S
C300 C299 1.391 . S
C300 C301 1.392 . S
C301 H278 0.948 . S
C301 C300 1.392 . S
C301 C302 1.419 . S
C302 C301 1.419 . S
C302 C303 1.391 . S
C302 C306 1.397 . S
C303 C298 1.391 . S
C303 C302 1.391 . S
C303 C304 1.399 . S
C304 C303 1.399 . S
C304 C305 1.396 . S
C304 C307 1.453 . S
C304 C308 1.684 . S
C305 C295 1.723 . S
C305 C304 1.396 . S
C305 C306 1.394 . S
C306 C276 1.723 . S
C306 C302 1.397 . S
C306 C305 1.394 . S
C307 H279 0.982 . S
C307 H283 0.979 . S
C307 H284 0.977 . S
C307 C304 1.453 . S
C308 H280 0.979 . S
C308 H281 0.980 . S
C308 H282 0.983 . S
C308 C304 1.684 . S
H309 C327 0.948 . S
H310 C268 0.948 . S
H311 C286 0.979 . S
H312 C286 0.980 . S
H313 C286 0.983 . S
H314 C285 0.982 . S
H315 C285 0.979 . S
H316 C285 0.977 . S
H317 C287 0.948 . S
H318 C289 0.947 . S
H319 C290 0.948 . S
H320 C296 0.982 . S
H321 C296 0.979 . S
H322 C296 0.977 . S
H323 C297 0.979 . S
H324 C297 0.980 . S
H325 C297 0.983 . S
H326 C270 0.947 . S
C327 C270 1.392 . S
C327 C271 1.419 . S
C327 H309 0.948 . S
C328 C329 1.391 . S
C328 C332 1.391 . S
C328 H370 0.948 . S
C329 C328 1.391 . S
C329 C330 1.391 . S
C330 C329 1.391 . S
C330 H386 0.947 . S
C330 C387 1.392 . S
C331 C332 1.391 . S
C331 C335 1.397 . S
C331 C387 1.419 . S
C332 C328 1.391 . S
C332 C331 1.391 . S
C332 C333 1.399 . S
C333 C332 1.399 . S
C333 C336 1.396 . S
C333 C345 1.453 . S
C333 C346 1.684 . S
H334 C358 0.948 . S
C335 C331 1.397 . S
C335 C336 1.394 . S
C335 C354 1.723 . S
C336 C333 1.396 . S
C336 C335 1.394 . S
C336 C366 1.723 . S
H337 C360 0.947 . S
H338 C361 0.948 . S
H339 C367 0.982 . S
H340 C368 0.979 . S
H341 C368 0.980 . S
H342 C368 0.983 . S
H343 C367 0.979 . S
H344 C367 0.977 . S
C345 C333 1.453 . S
C345 H374 0.982 . S
C345 H375 0.979 . S
C345 H376 0.977 . S
C346 C333 1.684 . S
C346 H371 0.979 . S
C346 H372 0.980 . S
C346 H373 0.983 . S
C347 C348 1.391 . S
C347 C352 1.391 . S
C347 H377 0.948 . S
C348 C347 1.391 . S
C348 C349 1.391 . S
C349 C348 1.391 . S
C349 C350 1.392 . S
C349 H378 0.947 . S
C350 C349 1.392 . S
C350 C351 1.419 . S
C350 H379 0.948 . S
C351 C350 1.419 . S
C351 C352 1.391 . S
C351 C355 1.397 . S
C352 C347 1.391 . S
C352 C351 1.391 . S
C352 C353 1.399 . S
C353 C352 1.399 . S
C353 C354 1.396 . S
C353 C356 1.453 . S
C353 C357 1.684 . S
C354 C335 1.723 . S
C354 C353 1.396 . S
C354 C355 1.394 . S
C355 C351 1.397 . S
C355 C354 1.394 . S
C355 C365 1.723 . S
C356 C353 1.453 . S
C356 H380 0.982 . S
C356 H381 0.979 . S
C356 H382 0.977 . S
C357 C353 1.684 . S
C357 H383 0.979 . S
C357 H384 0.980 . S
C357 H385 0.983 . S
C358 H334 0.948 . S
C358 C359 1.391 . S
C358 C363 1.391 . S
C359 C358 1.391 . S
C359 C360 1.391 . S
C360 H337 0.947 . S
C360 C359 1.391 . S
C360 C361 1.392 . S
C361 H338 0.948 . S
C361 C360 1.392 . S
C361 C362 1.419 . S
C362 C361 1.419 . S
C362 C363 1.391 . S
C362 C366 1.397 . S
C363 C358 1.391 . S
C363 C362 1.391 . S
C363 C364 1.399 . S
C364 C363 1.399 . S
C364 C365 1.396 . S
C364 C367 1.453 . S
C364 C368 1.684 . S
C365 C355 1.723 . S
C365 C364 1.396 . S
C365 C366 1.394 . S
C366 C336 1.723 . S
C366 C362 1.397 . S
C366 C365 1.394 . S
C367 H339 0.982 . S
C367 H343 0.979 . S
C367 H344 0.977 . S
C367 C364 1.453 . S
C368 H340 0.979 . S
C368 H341 0.980 . S
C368 H342 0.983 . S
C368 C364 1.684 . S
H369 C387 0.948 . S
H370 C328 0.948 . S
H371 C346 0.979 . S
H372 C346 0.980 . S
H373 C346 0.983 . S
H374 C345 0.982 . S
H375 C345 0.979 . S
H376 C345 0.977 . S
H377 C347 0.948 . S
H378 C349 0.947 . S
H379 C350 0.948 . S
H380 C356 0.982 . S
H381 C356 0.979 . S
H382 C356 0.977 . S
H383 C357 0.979 . S
H384 C357 0.980 . S
H385 C357 0.983 . S
H386 C330 0.947 . S
C387 C330 1.392 . S
C387 C331 1.419 . S
C387 H369 0.948 . S
C388 C389 1.391 . S
C388 C392 1.391 . S
C388 H430 0.948 . S
C389 C388 1.391 . S
C389 C390 1.391 . S
C390 C389 1.391 . S
C390 H446 0.947 . S
C390 C447 1.392 . S
C391 C392 1.391 . S
C391 C395 1.397 . S
C391 C447 1.419 . S
C392 C388 1.391 . S
C392 C391 1.391 . S
C392 C393 1.399 . S
C393 C392 1.399 . S
C393 C396 1.396 . S
C393 C405 1.453 . S
C393 C406 1.684 . S
H394 C418 0.948 . S
C395 C391 1.397 . S
C395 C396 1.394 . S
C395 C414 1.723 . S
C396 C393 1.396 . S
C396 C395 1.394 . S
C396 C426 1.723 . S
H397 C420 0.947 . S
H398 C421 0.948 . S
H399 C427 0.982 . S
H400 C428 0.979 . S
H401 C428 0.980 . S
H402 C428 0.983 . S
H403 C427 0.979 . S
H404 C427 0.977 . S
C405 C393 1.453 . S
C405 H434 0.982 . S
C405 H435 0.979 . S
C405 H436 0.977 . S
C406 C393 1.684 . S
C406 H431 0.979 . S
C406 H432 0.980 . S
C406 H433 0.983 . S
C407 C408 1.391 . S
C407 C412 1.391 . S
C407 H437 0.948 . S
C408 C407 1.391 . S
C408 C409 1.391 . S
C409 C408 1.391 . S
C409 C410 1.392 . S
C409 H438 0.947 . S
C410 C409 1.392 . S
C410 C411 1.419 . S
C410 H439 0.948 . S
C411 C410 1.419 . S
C411 C412 1.391 . S
C411 C415 1.397 . S
C412 C407 1.391 . S
C412 C411 1.391 . S
C412 C413 1.399 . S
C413 C412 1.399 . S
C413 C414 1.396 . S
C413 C416 1.453 . S
C413 C417 1.684 . S
C414 C395 1.723 . S
C414 C413 1.396 . S
C414 C415 1.394 . S
C415 C411 1.397 . S
C415 C414 1.394 . S
C415 C425 1.723 . S
C416 C413 1.453 . S
C416 H440 0.982 . S
C416 H441 0.979 . S
C416 H442 0.977 . S
C417 C413 1.684 . S
C417 H443 0.979 . S
C417 H444 0.980 . S
C417 H445 0.983 . S
C418 H394 0.948 . S
C418 C419 1.391 . S
C418 C423 1.391 . S
C419 C418 1.391 . S
C419 C420 1.391 . S
C420 H397 0.947 . S
C420 C419 1.391 . S
C420 C421 1.392 . S
C421 H398 0.948 . S
C421 C420 1.392 . S
C421 C422 1.419 . S
C422 C421 1.419 . S
C422 C423 1.391 . S
C422 C426 1.397 . S
C423 C418 1.391 . S
C423 C422 1.391 . S
C423 C424 1.399 . S
C424 C423 1.399 . S
C424 C425 1.396 . S
C424 C427 1.453 . S
C424 C428 1.684 . S
C425 C415 1.723 . S
C425 C424 1.396 . S
C425 C426 1.394 . S
C426 C396 1.723 . S
C426 C422 1.397 . S
C426 C425 1.394 . S
C427 H399 0.982 . S
C427 H403 0.979 . S
C427 H404 0.977 . S
C427 C424 1.453 . S
C428 H400 0.979 . S
C428 H401 0.980 . S
C428 H402 0.983 . S
C428 C424 1.684 . S
H429 C447 0.948 . S
H430 C388 0.948 . S
H431 C406 0.979 . S
H432 C406 0.980 . S
H433 C406 0.983 . S
H434 C405 0.982 . S
H435 C405 0.979 . S
H436 C405 0.977 . S
H437 C407 0.948 . S
H438 C409 0.947 . S
H439 C410 0.948 . S
H440 C416 0.982 . S
H441 C416 0.979 . S
H442 C416 0.977 . S
H443 C417 0.979 . S
H444 C417 0.980 . S
H445 C417 0.983 . S
H446 C390 0.947 . S
C447 C390 1.392 . S
C447 C391 1.419 . S
C447 H429 0.948 . S
C448 C449 1.391 . S
C448 C452 1.391 . S
C448 H490 0.948 . S
C449 C448 1.391 . S
C449 C450 1.391 . S
C450 C449 1.391 . S
C450 H506 0.947 . S
C450 C507 1.392 . S
C451 C452 1.391 . S
C451 C455 1.397 . S
C451 C507 1.419 . S
C452 C448 1.391 . S
C452 C451 1.391 . S
C452 C453 1.399 . S
C453 C452 1.399 . S
C453 C456 1.396 . S
C453 C465 1.453 . S
C453 C466 1.684 . S
H454 C478 0.948 . S
C455 C451 1.397 . S
C455 C456 1.394 . S
C455 C474 1.723 . S
C456 C453 1.396 . S
C456 C455 1.394 . S
C456 C486 1.723 . S
H457 C480 0.947 . S
H458 C481 0.948 . S
H459 C487 0.982 . S
H460 C488 0.979 . S
H461 C488 0.980 . S
H462 C488 0.983 . S
H463 C487 0.979 . S
H464 C487 0.977 . S
C465 C453 1.453 . S
C465 H494 0.982 . S
C465 H495 0.979 . S
C465 H496 0.977 . S
C466 C453 1.684 . S
C466 H491 0.979 . S
C466 H492 0.980 . S
C466 H493 0.983 . S
C467 C468 1.391 . S
C467 C472 1.391 . S
C467 H497 0.948 . S
C468 C467 1.391 . S
C468 C469 1.391 . S
C469 C468 1.391 . S
C469 C470 1.392 . S
C469 H498 0.947 . S
C470 C469 1.392 . S
C470 C471 1.419 . S
C470 H499 0.948 . S
C471 C470 1.419 . S
C471 C472 1.391 . S
C471 C475 1.397 . S
C472 C467 1.391 . S
C472 C471 1.391 . S
C472 C473 1.399 . S
C473 C472 1.399 . S
C473 C474 1.396 . S
C473 C476 1.453 . S
C473 C477 1.684 . S
C474 C455 1.723 . S
C474 C473 1.396 . S
C474 C475 1.394 . S
C475 C471 1.397 . S
C475 C474 1.394 . S
C475 C485 1.723 . S
C476 C473 1.453 . S
C476 H500 0.982 . S
C476 H501 0.979 . S
C476 H502 0.977 . S
C477 C473 1.684 . S
C477 H503 0.979 . S
C477 H504 0.980 . S
C477 H505 0.983 . S
C478 H454 0.948 . S
C478 C479 1.391 . S
C478 C483 1.391 . S
C479 C478 1.391 . S
C479 C480 1.391 . S
C480 H457 0.947 . S
C480 C479 1.391 . S
C480 C481 1.392 . S
C481 H458 0.948 . S
C481 C480 1.392 . S
C481 C482 1.419 . S
C482 C481 1.419 . S
C482 C483 1.391 . S
C482 C486 1.397 . S
C483 C478 1.391 . S
C483 C482 1.391 . S
C483 C484 1.399 . S
C484 C483 1.399 . S
C484 C485 1.396 . S
C484 C487 1.453 . S
C484 C488 1.684 . S
C485 C475 1.723 . S
C485 C484 1.396 . S
C485 C486 1.394 . S
C486 C456 1.723 . S
C486 C482 1.397 . S
C486 C485 1.394 . S
C487 H459 0.982 . S
C487 H463 0.979 . S
C487 H464 0.977 . S
C487 C484 1.453 . S
C488 H460 0.979 . S
C488 H461 0.980 . S
C488 H462 0.983 . S
C488 C484 1.684 . S
H489 C507 0.948 . S
H490 C448 0.948 . S
H491 C466 0.979 . S
H492 C466 0.980 . S
H493 C466 0.983 . S
H494 C465 0.982 . S
H495 C465 0.979 . S
H496 C465 0.977 . S
H497 C467 0.948 . S
H498 C469 0.947 . S
H499 C470 0.948 . S
H500 C476 0.982 . S
H501 C476 0.979 . S
H502 C476 0.977 . S
H503 C477 0.979 . S
H504 C477 0.980 . S
H505 C477 0.983 . S
H506 C450 0.947 . S
C507 C450 1.392 . S
C507 C451 1.419 . S
C507 H489 0.948 . S
C508 C509 1.391 . S
C508 C512 1.391 . S
C508 H550 0.948 . S
C509 C508 1.391 . S
C509 C510 1.391 . S
C510 C509 1.391 . S
C510 H566 0.947 . S
C510 C567 1.392 . S
C511 C512 1.391 . S
C511 C515 1.397 . S
C511 C567 1.419 . S
C512 C508 1.391 . S
C512 C511 1.391 . S
C512 C513 1.399 . S
C513 C512 1.399 . S
C513 C516 1.396 . S
C513 C525 1.453 . S
C513 C526 1.684 . S
H514 C538 0.948 . S
C515 C511 1.397 . S
C515 C516 1.394 . S
C515 C534 1.723 . S
C516 C513 1.396 . S
C516 C515 1.394 . S
C516 C546 1.723 . S
H517 C540 0.947 . S
H518 C541 0.948 . S
H519 C547 0.982 . S
H520 C548 0.979 . S
H521 C548 0.980 . S
H522 C548 0.983 . S
H523 C547 0.979 . S
H524 C547 0.977 . S
C525 C513 1.453 . S
C525 H554 0.982 . S
C525 H555 0.979 . S
C525 H556 0.977 . S
C526 C513 1.684 . S
C526 H551 0.979 . S
C526 H552 0.980 . S
C526 H553 0.983 . S
C527 C528 1.391 . S
C527 C532 1.391 . S
C527 H557 0.948 . S
C528 C527 1.391 . S
C528 C529 1.391 . S
C529 C528 1.391 . S
C529 C530 1.392 . S
C529 H558 0.947 . S
C530 C529 1.392 . S
C530 C531 1.419 . S
C530 H559 0.948 . S
C531 C530 1.419 . S
C531 C532 1.391 . S
C531 C535 1.397 . S
C532 C527 1.391 . S
C532 C531 1.391 . S
C532 C533 1.399 . S
C533 C532 1.399 . S
C533 C534 1.396 . S
C533 C536 1.453 . S
C533 C537 1.684 . S
C534 C515 1.723 . S
C534 C533 1.396 . S
C534 C535 1.394 . S
C535 C531 1.397 . S
C535 C534 1.394 . S
C535 C545 1.723 . S
C536 C533 1.453 . S
C536 H560 0.982 . S
C536 H561 0.979 . S
C536 H562 0.977 . S
C537 C533 1.684 . S
C537 H563 0.979 . S
C537 H564 0.980 . S
C537 H565 0.983 . S
C538 H514 0.948 . S
C538 C539 1.391 . S
C538 C543 1.391 . S
C539 C538 1.391 . S
C539 C540 1.391 . S
C540 H517 0.947 . S
C540 C539 1.391 . S
C540 C541 1.392 . S
C541 H518 0.948 . S
C541 C540 1.392 . S
C541 C542 1.419 . S
C542 C541 1.419 . S
C542 C543 1.391 . S
C542 C546 1.397 . S
C543 C538 1.391 . S
C543 C542 1.391 . S
C543 C544 1.399 . S
C544 C543 1.399 . S
C544 C545 1.396 . S
C544 C547 1.453 . S
C544 C548 1.684 . S
C545 C535 1.723 . S
C545 C544 1.396 . S
C545 C546 1.394 . S
C546 C516 1.723 . S
C546 C542 1.397 . S
C546 C545 1.394 . S
C547 H519 0.982 . S
C547 H523 0.979 . S
C547 H524 0.977 . S
C547 C544 1.453 . S
C548 H520 0.979 . S
C548 H521 0.980 . S
C548 H522 0.983 . S
C548 C544 1.684 . S
H549 C567 0.948 . S
H550 C508 0.948 . S
H551 C526 0.979 . S
H552 C526 0.980 . S
H553 C526 0.983 . S
H554 C525 0.982 . S
H555 C525 0.979 . S
H556 C525 0.977 . S
H557 C527 0.948 . S
H558 C529 0.947 . S
H559 C530 0.948 . S
H560 C536 0.982 . S
H561 C536 0.979 . S
H562 C536 0.977 . S
H563 C537 0.979 . S
H564 C537 0.980 . S
H565 C537 0.983 . S
H566 C510 0.947 . S
C567 C510 1.392 . S
C567 C511 1.419 . S
C567 H549 0.948 . S
H568 C574 0.930 . S
H569 C578 0.930 . S
H570 C583 0.929 . S
H571 C581 0.929 . S
H572 C576 0.916 1_565 S
H573 C582 0.929 . S
C574 H568 0.930 . S
C574 C575 1.367 . S
C574 C582 1.378 . S
C575 C574 1.367 . S
C575 C583 1.433 . S
C576 H572 0.916 1_545 S
C576 C578 1.378 . S
C576 C580 1.350 . S
C577 C580 1.463 1_565 S
C577 C582 1.350 . S
C577 N585 1.427 . S
C578 H569 0.930 . S
C578 C576 1.378 . S
C578 C579 1.367 . S
C579 C578 1.367 . S
C579 C581 1.433 . S
C580 C576 1.350 . S
C580 C577 1.463 1_545 S
C580 N584 1.427 . S
C581 H571 0.929 . S
C581 C579 1.433 . S
C581 N584 1.384 . S
C582 H573 0.929 . S
C582 C574 1.378 . S
C582 C577 1.350 . S
C583 H570 0.929 . S
C583 C575 1.433 . S
C583 N585 1.384 . S
N584 C580 1.427 . S
N584 C581 1.384 . S
N585 C577 1.427 . S
N585 C583 1.384 . S
H586 C592 0.930 . S
H587 C596 0.930 . S
H588 C601 0.929 . S
H589 C599 0.929 . S
H590 C594 0.929 . S
H591 C600 0.929 . S
C592 H586 0.930 . S
C592 C593 1.367 . S
C592 C600 1.378 . S
C593 C592 1.367 . S
C593 C601 1.433 . S
C594 H590 0.929 . S
C594 C596 1.378 . S
C594 C598 1.350 . S
C595 C598 1.463 . S
C595 C600 1.350 . S
C595 N603 1.427 . S
C596 H587 0.930 . S
C596 C594 1.378 . S
C596 C597 1.367 . S
C597 C596 1.367 . S
C597 C599 1.433 . S
C598 C594 1.350 . S
C598 C595 1.463 . S
C598 N602 1.427 . S
C599 H589 0.929 . S
C599 C597 1.433 . S
C599 N602 1.384 . S
C600 H591 0.929 . S
C600 C592 1.378 . S
C600 C595 1.350 . S
C601 H588 0.929 . S
C601 C593 1.433 . S
C601 N603 1.384 . S
N602 C598 1.427 . S
N602 C599 1.384 . S
N603 C595 1.427 . S
N603 C601 1.384 . S
H604 C610 0.930 . S
H605 C614 0.930 . S
H606 C619 0.929 . S
H607 C617 0.948 . S
H608 C612 0.929 . S
H609 C618 0.929 . S
C610 H604 0.930 . S
C610 C611 1.367 . S
C610 C618 1.378 . S
C611 C610 1.367 . S
C611 C619 1.433 . S
C612 H608 0.929 . S
C612 C614 1.378 . S
C612 C616 1.350 . S
C613 C616 1.463 . S
C613 C618 1.350 . S
C613 N621 1.427 . S
C614 H605 0.930 . S
C614 C612 1.378 . S
C614 C615 1.367 . S
C615 C614 1.367 . S
C615 C617 1.430 1_545 S
C616 C612 1.350 . S
C616 C613 1.463 . S
C616 N620 1.427 . S
C617 H607 0.948 . S
C617 C615 1.430 1_565 S
C617 N620 1.368 1_565 S
C618 H609 0.929 . S
C618 C610 1.378 . S
C618 C613 1.350 . S
C619 H606 0.929 . S
C619 C611 1.433 . S
C619 N621 1.384 . S
N620 C616 1.427 . S
N620 C617 1.368 1_545 S
N621 C613 1.427 . S
N621 C619 1.384 . S
H622 C628 0.930 . S
H623 C632 0.930 . S
H624 C637 0.929 . S
H625 C635 0.929 . S
H626 C630 0.929 . S
H627 C636 0.929 . S
C628 H622 0.930 . S
C628 C629 1.367 . S
C628 C636 1.378 . S
C629 C628 1.367 . S
C629 C637 1.433 . S
C630 H626 0.929 . S
C630 C632 1.378 . S
C630 C634 1.350 . S
C631 C634 1.463 . S
C631 C636 1.350 . S
C631 N639 1.427 . S
C632 H623 0.930 . S
C632 C630 1.378 . S
C632 C633 1.367 . S
C633 C632 1.367 . S
C633 C635 1.433 . S
C634 C630 1.350 . S
C634 C631 1.463 . S
C634 N638 1.427 . S
C635 H625 0.929 . S
C635 C633 1.433 . S
C635 N638 1.384 . S
C636 H627 0.929 . S
C636 C628 1.378 . S
C636 C631 1.350 . S
C637 H624 0.929 . S
C637 C629 1.433 . S
C637 N639 1.384 . S
N638 C634 1.427 . S
N638 C635 1.384 . S
N639 C631 1.427 . S
N639 C637 1.384 . S
H640 C646 0.930 . S
H641 C650 0.930 . S
H642 C655 0.929 . S
H643 C653 0.929 . S
H644 C648 0.929 . S
H645 C654 0.929 . S
C646 H640 0.930 . S
C646 C647 1.367 . S
C646 C654 1.378 . S
C647 C646 1.367 . S
C647 C655 1.433 . S
C648 H644 0.929 . S
C648 C650 1.378 . S
C648 C652 1.350 . S
C649 C652 1.463 . S
C649 C654 1.350 . S
C649 N657 1.427 . S
C650 H641 0.930 . S
C650 C648 1.378 . S
C650 C651 1.367 . S
C651 C650 1.367 . S
C651 C653 1.433 . S
C652 C648 1.350 . S
C652 C649 1.463 . S
C652 N656 1.427 . S
C653 H643 0.929 . S
C653 C651 1.433 . S
C653 N656 1.384 . S
C654 H645 0.929 . S
C654 C646 1.378 . S
C654 C649 1.350 . S
C655 H642 0.929 . S
C655 C647 1.433 . S
C655 N657 1.384 . S
N656 C652 1.427 . S
N656 C653 1.384 . S
N657 C649 1.427 . S
N657 C655 1.384 . S
H658 C664 0.930 . S
H659 C668 0.930 . S
H660 C673 0.929 . S
H661 C671 0.929 . S
H662 C666 0.929 1_655 S
H663 C672 0.929 . S
C664 H658 0.930 . S
C664 C665 1.367 . S
C664 C672 1.378 . S
C665 C664 1.367 . S
C665 C673 1.433 . S
C666 H662 0.929 1_455 S
C666 C668 1.378 . S
C666 C670 1.350 . S
C667 C670 1.463 1_655 S
C667 C672 1.350 . S
C667 N675 1.427 . S
C668 H659 0.930 . S
C668 C666 1.378 . S
C668 C669 1.367 . S
C669 C668 1.367 . S
C669 C671 1.433 . S
C670 C666 1.350 . S
C670 C667 1.463 1_455 S
C670 N674 1.427 . S
C671 H661 0.929 . S
C671 C669 1.433 . S
C671 N674 1.384 . S
C672 H663 0.929 . S
C672 C664 1.378 . S
C672 C667 1.350 . S
C673 H660 0.929 . S
C673 C665 1.433 . S
C673 N675 1.384 . S
N674 C670 1.427 . S
N674 C671 1.384 . S
N675 C667 1.427 . S
N675 C673 1.384 . S
H676 C682 0.930 . S
H677 C686 0.930 . S
H678 C691 0.929 . S
H679 C689 0.929 . S
H680 C684 0.929 . S
H681 C690 0.929 . S
C682 H676 0.930 . S
C682 C683 1.367 . S
C682 C690 1.378 . S
C683 C682 1.367 . S
C683 C691 1.433 . S
C684 H680 0.929 . S
C684 C686 1.378 . S
C684 C688 1.350 . S
C685 C688 1.463 . S
C685 C690 1.350 . S
C685 N693 1.427 . S
C686 H677 0.930 . S
C686 C684 1.378 . S
C686 C687 1.367 . S
C687 C686 1.367 . S
C687 C689 1.433 . S
C688 C684 1.350 . S
C688 C685 1.463 . S
C688 N692 1.427 . S
C689 H679 0.929 . S
C689 C687 1.433 . S
C689 N692 1.384 . S
C690 H681 0.929 . S
C690 C682 1.378 . S
C690 C685 1.350 . S
C691 H678 0.929 . S
C691 C683 1.433 . S
C691 N693 1.384 . S
N692 C688 1.427 . S
N692 C689 1.384 . S
N693 C685 1.427 . S
N693 C691 1.384 . S
H694 C700 0.930 . S
H695 C704 0.930 1_655 S
H696 C709 0.929 . S
H697 C707 0.929 . S
H698 C702 0.929 . S
H699 C708 0.929 . S
C700 H694 0.930 . S
C700 C701 1.367 1_556 S
C700 C708 1.378 . S
C701 C700 1.367 1_554 S
C701 C709 1.433 . S
C702 H698 0.929 . S
C702 C704 1.378 . S
C702 C706 1.350 . S
C703 C706 1.463 . S
C703 C708 1.350 . S
C703 N711 1.427 . S
C704 H695 0.930 1_455 S
C704 C702 1.378 . S
C704 C705 1.367 . S
C705 C704 1.367 . S
C705 C707 1.433 . S
C706 C702 1.350 . S
C706 C703 1.463 . S
C706 N710 1.427 . S
C707 H697 0.929 . S
C707 C705 1.433 . S
C707 N710 1.384 . S
C708 H699 0.929 . S
C708 C700 1.378 . S
C708 C703 1.350 . S
C709 H696 0.929 . S
C709 C701 1.433 . S
C709 N711 1.384 1_554 S
N710 C706 1.427 . S
N710 C707 1.384 . S
N711 C703 1.427 . S
N711 C709 1.384 1_556 S
H712 C718 0.930 . S
H713 C722 0.930 . S
H714 C727 0.929 . S
H715 C725 0.929 . S
H716 C720 0.929 1_545 S
H717 C726 0.929 . S
C718 H712 0.930 . S
C718 C719 1.367 . S
C718 C726 1.378 . S
C719 C718 1.367 . S
C719 C727 1.433 . S
C720 H716 0.929 1_565 S
C720 C722 1.378 . S
C720 C724 1.350 . S
C721 C724 1.463 1_545 S
C721 C726 1.350 . S
C721 N729 1.427 . S
C722 H713 0.930 . S
C722 C720 1.378 . S
C722 C723 1.367 . S
C723 C722 1.367 . S
C723 C725 1.433 . S
C724 C720 1.350 . S
C724 C721 1.463 1_565 S
C724 N728 1.427 . S
C725 H715 0.929 . S
C725 C723 1.433 . S
C725 N728 1.384 . S
C726 H717 0.929 . S
C726 C718 1.378 . S
C726 C721 1.350 . S
C727 H714 0.929 . S
C727 C719 1.433 . S
C727 N729 1.384 . S
N728 C724 1.427 . S
N728 C725 1.384 . S
N729 C721 1.427 . S
N729 C727 1.384 . S
H730 C736 0.930 . S
H731 C740 0.930 . S
H732 C745 0.929 . S
H733 C743 0.929 . S
H734 C738 0.929 . S
H735 C744 0.929 . S
C736 H730 0.930 . S
C736 C737 1.367 . S
C736 C744 1.378 . S
C737 C736 1.367 . S
C737 C745 1.433 . S
C738 H734 0.929 . S
C738 C740 1.378 . S
C738 C742 1.350 . S
C739 C742 1.463 . S
C739 C744 1.350 . S
C739 N747 1.427 . S
C740 H731 0.930 . S
C740 C738 1.378 . S
C740 C741 1.367 . S
C741 C740 1.367 . S
C741 C743 1.433 . S
C742 C738 1.350 . S
C742 C739 1.463 . S
C742 N746 1.427 . S
C743 H733 0.929 . S
C743 C741 1.433 . S
C743 N746 1.384 . S
C744 H735 0.929 . S
C744 C736 1.378 . S
C744 C739 1.350 . S
C745 H732 0.929 . S
C745 C737 1.433 . S
C745 N747 1.384 . S
N746 C742 1.427 . S
N746 C743 1.384 . S
N747 C739 1.427 . S
N747 C745 1.384 . S
H748 C754 0.930 . S
H749 C758 0.930 . S
H750 C763 0.929 . S
H751 C761 0.911 1_545 S
H752 C756 0.929 . S
H753 C762 0.929 . S
C754 H748 0.930 . S
C754 C755 1.367 . S
C754 C762 1.378 1_554 S
C755 C754 1.367 . S
C755 C763 1.433 1_554 S
C756 H752 0.929 . S
C756 C758 1.378 . S
C756 C760 1.350 . S
C757 C760 1.463 . S
C757 C762 1.350 . S
C757 N765 1.427 . S
C758 H749 0.930 . S
C758 C756 1.378 . S
C758 C759 1.367 . S
C759 C758 1.367 . S
C759 C761 1.436 . S
C760 C756 1.350 . S
C760 C757 1.463 . S
C760 N764 1.427 . S
C761 H751 0.911 1_565 S
C761 C759 1.436 . S
C761 N764 1.401 . S
C762 H753 0.929 . S
C762 C754 1.378 1_556 S
C762 C757 1.350 . S
C763 H750 0.929 . S
C763 C755 1.433 1_556 S
C763 N765 1.384 . S
N764 C760 1.427 . S
N764 C761 1.401 . S
N765 C757 1.427 . S
N765 C763 1.384 . S
H766 C772 0.930 . S
H767 C776 0.930 . S
H768 C781 0.929 . S
H769 C779 0.929 . S
H770 C774 0.929 . S
H771 C780 0.929 . S
C772 H766 0.930 . S
C772 C773 1.367 . S
C772 C780 1.378 . S
C773 C772 1.367 . S
C773 C781 1.433 . S
C774 H770 0.929 . S
C774 C776 1.378 . S
C774 C778 1.350 . S
C775 C778 1.463 . S
C775 C780 1.350 . S
C775 N783 1.427 . S
C776 H767 0.930 . S
C776 C774 1.378 . S
C776 C777 1.367 . S
C777 C776 1.367 . S
C777 C779 1.433 . S
C778 C774 1.350 . S
C778 C775 1.463 . S
C778 N782 1.427 . S
C779 H769 0.929 . S
C779 C777 1.433 . S
C779 N782 1.384 . S
C780 H771 0.929 . S
C780 C772 1.378 . S
C780 C775 1.350 . S
C781 H768 0.929 . S
C781 C773 1.433 . S
C781 N783 1.384 . S
N782 C778 1.427 . S
N782 C779 1.384 . S
N783 C775 1.427 . S
N783 C781 1.384 . S
H784 C790 0.930 . S
H785 C794 0.930 . S
H786 C799 0.929 . S
H787 C797 0.929 . S
H788 C792 0.929 . S
H789 C798 0.929 . S
C790 H784 0.930 . S
C790 C791 1.367 . S
C790 C798 1.378 . S
C791 C790 1.367 . S
C791 C799 1.433 . S
C792 H788 0.929 . S
C792 C794 1.378 . S
C792 C796 1.350 . S
C793 C796 1.463 . S
C793 C798 1.350 . S
C793 N801 1.427 . S
C794 H785 0.930 . S
C794 C792 1.378 . S
C794 C795 1.367 . S
C795 C794 1.367 . S
C795 C797 1.433 . S
C796 C792 1.350 . S
C796 C793 1.463 . S
C796 N800 1.427 . S
C797 H787 0.929 . S
C797 C795 1.433 . S
C797 N800 1.384 . S
C798 H789 0.929 . S
C798 C790 1.378 . S
C798 C793 1.350 . S
C799 H786 0.929 . S
C799 C791 1.433 . S
C799 N801 1.384 . S
N800 C796 1.427 . S
N800 C797 1.384 . S
N801 C793 1.427 . S
N801 C799 1.384 . S
H802 C808 0.930 . S
H803 C812 0.930 . S
H804 C817 0.929 . S
H805 C815 0.929 . S
H806 C810 0.929 . S
H807 C816 0.929 . S
C808 H802 0.930 . S
C808 C809 1.367 . S
C808 C816 1.378 . S
C809 C808 1.367 . S
C809 C817 1.433 . S
C810 H806 0.929 . S
C810 C812 1.378 . S
C810 C814 1.350 . S
C811 C814 1.463 1_455 S
C811 C816 1.350 . S
C811 N819 1.427 . S
C812 H803 0.930 . S
C812 C810 1.378 . S
C812 C813 1.367 . S
C813 C812 1.367 . S
C813 C815 1.433 . S
C814 C810 1.350 . S
C814 C811 1.463 1_655 S
C814 N818 1.427 . S
C815 H805 0.929 . S
C815 C813 1.433 . S
C815 N818 1.384 . S
C816 H807 0.929 . S
C816 C808 1.378 . S
C816 C811 1.350 . S
C817 H804 0.929 . S
C817 C809 1.433 . S
C817 N819 1.384 . S
N818 C814 1.427 . S
N818 C815 1.384 . S
N819 C811 1.427 . S
N819 C817 1.384 . S
H820 C826 0.930 . S
H821 C830 0.930 . S
H822 C835 0.929 . S
H823 C833 0.929 . S
H824 C828 0.929 . S
H825 C834 0.929 . S
C826 H820 0.930 . S
C826 C827 1.367 . S
C826 C834 1.378 . S
C827 C826 1.367 . S
C827 C835 1.433 . S
C828 H824 0.929 . S
C828 C830 1.378 . S
C828 C832 1.350 . S
C829 C832 1.463 . S
C829 C834 1.350 . S
C829 N837 1.427 . S
C830 H821 0.930 . S
C830 C828 1.378 . S
C830 C831 1.367 . S
C831 C830 1.367 . S
C831 C833 1.433 . S
C832 C828 1.350 . S
C832 C829 1.463 . S
C832 N836 1.427 . S
C833 H823 0.929 . S
C833 C831 1.433 . S
C833 N836 1.384 . S
C834 H825 0.929 . S
C834 C826 1.378 . S
C834 C829 1.350 . S
C835 H822 0.929 . S
C835 C827 1.433 . S
C835 N837 1.384 . S
N836 C832 1.427 . S
N836 C833 1.384 . S
N837 C829 1.427 . S
N837 C835 1.384 . S
H838 C844 0.930 . S
H839 C848 0.930 . S
H840 C853 0.929 . S
H841 C851 0.929 . S
H842 C846 0.929 . S
H843 C852 0.929 . S
C844 H838 0.930 . S
C844 C845 1.367 . S
C844 C852 1.378 . S
C845 C844 1.367 . S
C845 C853 1.433 . S
C846 H842 0.929 . S
C846 C848 1.378 . S
C846 C850 1.350 . S
C847 C850 1.463 . S
C847 C852 1.350 . S
C847 N855 1.427 . S
C848 H839 0.930 . S
C848 C846 1.378 . S
C848 C849 1.367 . S
C849 C848 1.367 . S
C849 C851 1.433 . S
C850 C846 1.350 . S
C850 C847 1.463 . S
C850 N854 1.427 . S
C851 H841 0.929 . S
C851 C849 1.433 . S
C851 N854 1.384 . S
C852 H843 0.929 . S
C852 C844 1.378 . S
C852 C847 1.350 . S
C853 H840 0.929 . S
C853 C845 1.433 . S
C853 N855 1.384 . S
N854 C850 1.427 . S
N854 C851 1.384 . S
N855 C847 1.427 . S
N855 C853 1.384 . S
H856 C862 0.930 . S
H857 C866 0.930 . S
H858 C871 0.929 . S
H859 C869 0.929 . S
H860 C864 0.929 . S
H861 C870 0.929 . S
C862 H856 0.930 . S
C862 C863 1.367 . S
C862 C870 1.378 . S
C863 C862 1.367 . S
C863 C871 1.433 . S
C864 H860 0.929 . S
C864 C866 1.378 . S
C864 C868 1.350 . S
C865 C868 1.463 . S
C865 C870 1.350 . S
C865 N873 1.427 . S
C866 H857 0.930 . S
C866 C864 1.378 . S
C866 C867 1.367 . S
C867 C866 1.367 . S
C867 C869 1.433 . S
C868 C864 1.350 . S
C868 C865 1.463 . S
C868 N872 1.427 . S
C869 H859 0.929 . S
C869 C867 1.433 . S
C869 N872 1.384 . S
C870 H861 0.929 . S
C870 C862 1.378 . S
C870 C865 1.350 . S
C871 H858 0.929 . S
C871 C863 1.433 . S
C871 N873 1.384 . S
N872 C868 1.427 . S
N872 C869 1.384 . S
N873 C865 1.427 . S
N873 C871 1.384 . S
H874 C880 0.930 . S
H875 C884 0.930 . S
H876 C889 0.929 . S
H877 C887 0.929 . S
H878 C882 0.929 . S
H879 C888 0.929 . S
C880 H874 0.930 . S
C880 C881 1.367 . S
C880 C888 1.378 . S
C881 C880 1.367 . S
C881 C889 1.433 . S
C882 H878 0.929 . S
C882 C884 1.378 . S
C882 C886 1.350 . S
C883 C886 1.463 . S
C883 C888 1.350 . S
C883 N891 1.427 . S
C884 H875 0.930 . S
C884 C882 1.378 . S
C884 C885 1.367 . S
C885 C884 1.367 . S
C885 C887 1.433 . S
C886 C882 1.350 . S
C886 C883 1.463 . S
C886 N890 1.427 . S
C887 H877 0.929 . S
C887 C885 1.433 . S
C887 N890 1.384 . S
C888 H879 0.929 . S
C888 C880 1.378 . S
C888 C883 1.350 . S
C889 H876 0.929 . S
C889 C881 1.433 . S
C889 N891 1.384 . S
N890 C886 1.427 . S
N890 C887 1.384 . S
N891 C883 1.427 . S
N891 C889 1.384 . S
H892 C898 0.930 . S
H893 C902 0.930 . S
H894 C907 0.929 . S
H895 C905 0.929 . S
H896 C900 0.929 . S
H897 C906 0.929 . S
C898 H892 0.930 . S
C898 C899 1.367 . S
C898 C906 1.378 . S
C899 C898 1.367 . S
C899 C907 1.433 . S
C900 H896 0.929 . S
C900 C902 1.378 . S
C900 C904 1.350 . S
C901 C904 1.463 . S
C901 C906 1.350 . S
C901 N909 1.427 . S
C902 H893 0.930 . S
C902 C900 1.378 . S
C902 C903 1.367 . S
C903 C902 1.367 . S
C903 C905 1.433 . S
C904 C900 1.350 . S
C904 C901 1.463 . S
C904 N908 1.427 . S
C905 H895 0.929 . S
C905 C903 1.433 . S
C905 N908 1.384 . S
C906 H897 0.929 . S
C906 C898 1.378 . S
C906 C901 1.350 . S
C907 H894 0.929 . S
C907 C899 1.433 . S
C907 N909 1.384 . S
N908 C904 1.427 . S
N908 C905 1.384 . S
N909 C901 1.427 . S
N909 C907 1.384 . S
H910 C916 0.930 . S
H911 C920 0.930 . S
H912 C925 0.929 . S
H913 C923 0.929 . S
H914 C918 0.929 . S
H915 C924 0.929 . S
C916 H910 0.930 . S
C916 C917 1.367 . S
C916 C924 1.378 . S
C917 C916 1.367 . S
C917 C925 1.433 . S
C918 H914 0.929 . S
C918 C920 1.378 . S
C918 C922 1.350 . S
C919 C922 1.463 . S
C919 C924 1.350 . S
C919 N927 1.427 . S
C920 H911 0.930 . S
C920 C918 1.378 . S
C920 C921 1.367 . S
C921 C920 1.367 . S
C921 C923 1.433 . S
C922 C918 1.350 . S
C922 C919 1.463 . S
C922 N926 1.427 . S
C923 H913 0.929 . S
C923 C921 1.433 . S
C923 N926 1.384 . S
C924 H915 0.929 . S
C924 C916 1.378 . S
C924 C919 1.350 . S
C925 H912 0.929 . S
C925 C917 1.433 . S
C925 N927 1.384 . S
N926 C922 1.427 . S
N926 C923 1.384 . S
N927 C919 1.427 . S
N927 C925 1.384 . S
H928 C934 0.930 . S
H929 C938 0.930 . S
H930 C943 0.929 . S
H931 C941 0.929 . S
H932 C936 0.929 . S
H933 C942 0.929 . S
C934 H928 0.930 . S
C934 C935 1.367 . S
C934 C942 1.378 . S
C935 C934 1.367 . S
C935 C943 1.433 . S
C936 H932 0.929 . S
C936 C938 1.378 . S
C936 C940 1.350 . S
C937 C940 1.463 . S
C937 C942 1.350 . S
C937 N945 1.427 . S
C938 H929 0.930 . S
C938 C936 1.378 . S
C938 C939 1.367 . S
C939 C938 1.367 . S
C939 C941 1.433 . S
C940 C936 1.350 . S
C940 C937 1.463 . S
C940 N944 1.427 . S
C941 H931 0.929 . S
C941 C939 1.433 . S
C941 N944 1.384 . S
C942 H933 0.929 . S
C942 C934 1.378 . S
C942 C937 1.350 . S
C943 H930 0.929 . S
C943 C935 1.433 . S
C943 N945 1.384 . S
N944 C940 1.427 . S
N944 C941 1.384 . S
N945 C937 1.427 . S
N945 C943 1.384 . S
H946 C952 0.930 . S
H947 C956 0.930 . S
H948 C961 0.929 . S
H949 C959 0.929 . S
H950 C954 0.929 . S
H951 C960 0.929 . S
C952 H946 0.930 . S
C952 C953 1.367 . S
C952 C960 1.378 . S
C953 C952 1.367 . S
C953 C961 1.433 . S
C954 H950 0.929 . S
C954 C956 1.378 . S
C954 C958 1.350 . S
C955 C958 1.463 . S
C955 C960 1.350 . S
C955 N963 1.427 . S
C956 H947 0.930 . S
C956 C954 1.378 . S
C956 C957 1.367 . S
C957 C956 1.367 . S
C957 C959 1.433 . S
C958 C954 1.350 . S
C958 C955 1.463 . S
C958 N962 1.427 . S
C959 H949 0.929 . S
C959 C957 1.433 . S
C959 N962 1.384 . S
C960 H951 0.929 . S
C960 C952 1.378 . S
C960 C955 1.350 . S
C961 H948 0.929 . S
C961 C953 1.433 . S
C961 N963 1.384 . S
N962 C958 1.427 . S
N962 C959 1.384 . S
N963 C955 1.427 . S
N963 C961 1.384 . S
H964 C970 0.930 . S
H965 C974 0.930 . S
H966 C979 0.929 . S
H967 C977 0.929 . S
H968 C972 0.929 . S
H969 C978 0.929 . S
C970 H964 0.930 . S
C970 C971 1.367 . S
C970 C978 1.378 . S
C971 C970 1.367 . S
C971 C979 1.433 . S
C972 H968 0.929 . S
C972 C974 1.378 . S
C972 C976 1.350 . S
C973 C976 1.463 . S
C973 C978 1.350 . S
C973 N981 1.427 . S
C974 H965 0.930 . S
C974 C972 1.378 . S
C974 C975 1.367 . S
C975 C974 1.367 . S
C975 C977 1.433 . S
C976 C972 1.350 . S
C976 C973 1.463 . S
C976 N980 1.427 . S
C977 H967 0.929 . S
C977 C975 1.433 . S
C977 N980 1.384 . S
C978 H969 0.929 . S
C978 C970 1.378 . S
C978 C973 1.350 . S
C979 H966 0.929 . S
C979 C971 1.433 . S
C979 N981 1.384 . S
N980 C976 1.427 . S
N980 C977 1.384 . S
N981 C973 1.427 . S
N981 C979 1.384 . S
H982 C988 0.930 . S
H983 C992 0.930 . S
H984 C997 0.929 . S
H985 C995 0.929 . S
H986 C990 0.929 . S
H987 C996 0.929 . S
C988 H982 0.930 . S
C988 C989 1.367 . S
C988 C996 1.378 . S
C989 C988 1.367 . S
C989 C997 1.433 . S
C990 H986 0.929 . S
C990 C992 1.378 1_554 S
C990 C994 1.350 . S
C991 C994 1.463 . S
C991 C996 1.350 . S
C991 N999 1.427 . S
C992 H983 0.930 . S
C992 C990 1.378 1_556 S
C992 C993 1.367 . S
C993 C992 1.367 . S
C993 C995 1.433 . S
C994 C990 1.350 . S
C994 C991 1.463 . S
C994 N998 1.427 1_554 S
C995 H985 0.929 . S
C995 C993 1.433 . S
C995 N998 1.384 . S
C996 H987 0.929 . S
C996 C988 1.378 . S
C996 C991 1.350 . S
C997 H984 0.929 . S
C997 C989 1.433 . S
C997 N999 1.384 . S
N998 C994 1.427 1_556 S
N998 C995 1.384 . S
N999 C991 1.427 . S
N999 C997 1.384 . S
C575 C7 1.331 . S
C579 C89 1.280 . S
C593 C37 1.602 . S
C597 C168 1.504 . S
C611 C54 1.418 . S
C615 C239 1.383 1_545 S
C633 C299 1.716 . S
C629 C87 1.708 . S
C651 C329 1.422 . S
C647 C30 1.557 . S
C665 C51 1.354 . S
C669 C419 1.367 . S
C683 C84 1.713 . S
C687 C479 1.694 . S
C701 C10 1.449 . S
C705 C528 1.405 1_455 S
C719 C59 1.367 . S
C723 C509 1.310 . S
C741 C348 1.546 . S
C737 C74 1.562 . S
C759 C408 1.248 1_565 S
C755 C18 1.454 . S
C773 C32 1.723 . S
C777 C468 1.582 . S
C795 C149 1.417 . S
C791 C73 1.609 . S
C809 C15 1.348 . S
C813 C228 1.280 . S
C831 C288 1.614 . S
C827 C43 1.720 . S
C849 C108 1.382 1_655 S
C845 C62 1.425 . S
C867 C449 1.652 . S
C863 C21 1.703 . S
C885 C539 1.078 . S
C881 C29 1.145 . S
C899 C52 1.349 . S
C903 C359 1.327 . S
C921 C389 1.134 . S
C917 C81 1.139 . S
C939 C209 1.062 . S
C935 C40 1.109 . S
C953 C65 1.676 . S
C957 C269 1.633 . S
C975 C119 1.041 . S
C971 C76 1.102 . S
C993 C179 1.319 . S
C989 C8 1.400 . S
