# Generated by pormake.
# Topology dag, (6,3)-cn, num edge types: 1
# Building blocks:
#     Node 0, Type 0, BuildingBlock: MIDCAF_clean_sbu_0, # of connection points: 6
#     Node 1, Type 0, BuildingBlock: MIDCAF_clean_sbu_0, # of connection points: 6
#     Node 2, Type 0, BuildingBlock: MIDCAF_clean_sbu_0, # of connection points: 6
#     Node 3, Type 0, BuildingBlock: MIDCAF_clean_sbu_0, # of connection points: 6
#     Node 4, Type 1, BuildingBlock: BETDAH_clean_linker_0, # of connection points: 3
#     Node 5, Type 1, BuildingBlock: BETDAH_clean_linker_0, # of connection points: 3
#     Node 6, Type 1, BuildingBlock: BETDAH_clean_linker_0, # of connection points: 3
#     Node 7, Type 1, BuildingBlock: BETDAH_clean_linker_0, # of connection points: 3
#     Node 8, Type 1, BuildingBlock: BETDAH_clean_linker_0, # of connection points: 3
#     Node 9, Type 1, BuildingBlock: BETDAH_clean_linker_0, # of connection points: 3
#     Node 10, Type 1, BuildingBlock: BETDAH_clean_linker_0, # of connection points: 3
#     Node 11, Type 1, BuildingBlock: BETDAH_clean_linker_0, # of connection points: 3
#     Edge 12, Type (0, 1), BuildingBlock: ZUJKAS_clean_linker_0, # of connection points: 2
#     Edge 13, Type (0, 1), BuildingBlock: ZUJKAS_clean_linker_0, # of connection points: 2
#     Edge 14, Type (0, 1), BuildingBlock: ZUJKAS_clean_linker_0, # of connection points: 2
#     Edge 15, Type (0, 1), BuildingBlock: ZUJKAS_clean_linker_0, # of connection points: 2
#     Edge 16, Type (0, 1), BuildingBlock: ZUJKAS_clean_linker_0, # of connection points: 2
#     Edge 17, Type (0, 1), BuildingBlock: ZUJKAS_clean_linker_0, # of connection points: 2
#     Edge 18, Type (0, 1), BuildingBlock: ZUJKAS_clean_linker_0, # of connection points: 2
#     Edge 19, Type (0, 1), BuildingBlock: ZUJKAS_clean_linker_0, # of connection points: 2
#     Edge 20, Type (0, 1), BuildingBlock: ZUJKAS_clean_linker_0, # of connection points: 2
#     Edge 21, Type (0, 1), BuildingBlock: ZUJKAS_clean_linker_0, # of connection points: 2
#     Edge 22, Type (0, 1), BuildingBlock: ZUJKAS_clean_linker_0, # of connection points: 2
#     Edge 23, Type (0, 1), BuildingBlock: ZUJKAS_clean_linker_0, # of connection points: 2
#     Edge 24, Type (0, 1), BuildingBlock: ZUJKAS_clean_linker_0, # of connection points: 2
#     Edge 25, Type (0, 1), BuildingBlock: ZUJKAS_clean_linker_0, # of connection points: 2
#     Edge 26, Type (0, 1), BuildingBlock: ZUJKAS_clean_linker_0, # of connection points: 2
#     Edge 27, Type (0, 1), BuildingBlock: ZUJKAS_clean_linker_0, # of connection points: 2
#     Edge 28, Type (0, 1), BuildingBlock: ZUJKAS_clean_linker_0, # of connection points: 2
#     Edge 29, Type (0, 1), BuildingBlock: ZUJKAS_clean_linker_0, # of connection points: 2
#     Edge 30, Type (0, 1), BuildingBlock: ZUJKAS_clean_linker_0, # of connection points: 2
#     Edge 31, Type (0, 1), BuildingBlock: ZUJKAS_clean_linker_0, # of connection points: 2
#     Edge 32, Type (0, 1), BuildingBlock: ZUJKAS_clean_linker_0, # of connection points: 2
#     Edge 33, Type (0, 1), BuildingBlock: ZUJKAS_clean_linker_0, # of connection points: 2
#     Edge 34, Type (0, 1), BuildingBlock: ZUJKAS_clean_linker_0, # of connection points: 2
#     Edge 35, Type (0, 1), BuildingBlock: ZUJKAS_clean_linker_0, # of connection points: 2
# Relax obj value: 0.136
# Max RMSD: 0.140
# Mean RMSD: 0.107
data_MOF--net-dag--node1-MIDCAF_clean_sbu_0--node2-BETDAH_clean_linker_0--edge1-ZUJKAS_clean_linker_0
_symmetry_space_group_name_H-M    P1
_symmetry_Int_Tables_number       1
_symmetry_cell_setting            triclinic
loop_
_symmetry_equiv_pos_as_xyz
'x, y, z'
_cell_length_a     51.720354
_cell_length_b     53.884225
_cell_length_c     41.39171
_cell_angle_alpha  92.184425
_cell_angle_beta   90.102637
_cell_angle_gamma 90.150897
loop_
_atom_site_label
_atom_site_type_symbol
_atom_site_fract_x
_atom_site_fract_y
_atom_site_fract_z
_atom_type_partial_charge
Zn0 Zn 0.10529 0.86352 0.10048 0.0
Zn1 Zn 0.1324 0.86555 0.98496 0.0
Zn2 Zn 0.11957 0.86268 0.04025 0.0
C3 C 0.12933 0.91291 0.00309 0.0
C4 C 0.0883 0.83844 0.98176 0.0
O5 O 0.14204 0.83333 0.06341 0.0
O6 O 0.12998 0.83809 0.11453 0.0
C7 C 0.12531 0.90988 0.0916 0.0
O8 O 0.13161 0.90131 0.02963 0.0
O9 O 0.12406 0.90089 0.97718 0.0
O10 O 0.10932 0.83907 0.96642 0.0
O11 O 0.08649 0.84991 0.00958 0.0
O12 O 0.11308 0.89851 0.11286 0.0
O13 O 0.12927 0.89948 0.06346 0.0
O14 O 0.07729 0.85397 0.04127 0.0
O15 O 0.06902 0.85322 0.09369 0.0
C16 C 0.06141 0.8508 0.06477 0.0
O17 O 0.15252 0.83704 0.03224 0.0
O18 O 0.16943 0.85685 0.99172 0.0
C19 C 0.14338 0.82699 0.09305 0.0
C20 C 0.17151 0.84075 0.01291 0.0
Zn21 Zn 0.59345 0.61956 0.43916 0.0
Zn22 Zn 0.6651 0.62531 0.55587 0.0
Zn23 Zn 0.61676 0.62736 0.49448 0.0
C24 C 0.63662 0.57951 0.53507 0.0
C25 C 0.62355 0.65389 0.56802 0.0
O26 O 0.63075 0.6554 0.46243 0.0
O27 O 0.60486 0.65179 0.4203 0.0
C28 C 0.62938 0.58138 0.44629 0.0
O29 O 0.62884 0.58944 0.50874 0.0
O30 O 0.64818 0.59184 0.55754 0.0
O31 O 0.64504 0.65204 0.58237 0.0
O32 O 0.62104 0.64377 0.54003 0.0
O33 O 0.61313 0.58932 0.42642 0.0
O34 O 0.6324 0.59228 0.47429 0.0
O35 O 0.57566 0.63308 0.50271 0.0
O36 O 0.5584 0.61665 0.45817 0.0
C37 C 0.5558 0.62612 0.48635 0.0
O38 O 0.64513 0.65715 0.49722 0.0
O39 O 0.67524 0.63077 0.5092 0.0
C40 C 0.62295 0.66316 0.43527 0.0
C41 C 0.66905 0.65263 0.50282 0.0
Zn42 Zn 0.8721 0.13402 0.93452 0.0
Zn43 Zn 0.86195 0.12893 0.05119 0.0
Zn44 Zn 0.86857 0.13058 0.99402 0.0
C45 C 0.91384 0.12503 0.04353 0.0
C46 C 0.83527 0.08957 0.02627 0.0
O47 O 0.83906 0.15741 0.97725 0.0
O48 O 0.83922 0.14982 0.92437 0.0
C49 C 0.91685 0.15483 0.96099 0.0
O50 O 0.9069 0.13534 0.01732 0.0
O51 O 0.89687 0.11592 0.0615 0.0
O52 O 0.83222 0.10529 0.04931 0.0
O53 O 0.85181 0.09377 0.00388 0.0
O54 O 0.90329 0.15539 0.93567 0.0
O55 O 0.90858 0.14342 0.98572 0.0
O56 O 0.86169 0.09286 0.97251 0.0
O57 O 0.87444 0.09848 0.92236 0.0
C58 C 0.86673 0.08418 0.9438 0.0
O59 O 0.84297 0.16138 0.00961 0.0
O60 O 0.8553 0.16495 0.06056 0.0
C61 C 0.82933 0.16039 0.94898 0.0
C62 C 0.84371 0.17383 0.0368 0.0
Zn63 Zn 0.40114 0.37947 0.5724 0.0
Zn64 Zn 0.34159 0.36079 0.44623 0.0
Zn65 Zn 0.3724 0.36947 0.5339 0.0
C66 C 0.39851 0.36847 0.45796 0.0
C67 C 0.33136 0.39449 0.50923 0.0
O68 O 0.36221 0.34194 0.56903 0.0
O69 O 0.37285 0.37018 0.6064 0.0
C70 C 0.41157 0.33239 0.55156 0.0
O71 O 0.3946 0.36973 0.48876 0.0
O72 O 0.38015 0.36514 0.43728 0.0
O73 O 0.33959 0.37642 0.49172 0.0
O74 O 0.34181 0.39691 0.53704 0.0
O75 O 0.42441 0.35243 0.55284 0.0
O76 O 0.38679 0.33372 0.55169 0.0
O77 O 0.36417 0.40605 0.55836 0.0
O78 O 0.40512 0.41575 0.565 0.0
C79 C 0.38165 0.42231 0.56582 0.0
O80 O 0.35551 0.33236 0.53725 0.0
O81 O 0.34609 0.34821 0.49183 0.0
C82 C 0.35966 0.35112 0.59811 0.0
C83 C 0.34547 0.32932 0.50913 0.0
H84 H 0.13706 0.09661 0.23846 0.0
H85 H 0.19 0.12736 0.3092 0.0
H86 H 0.12173 0.16818 0.28357 0.0
C87 C 0.14198 0.11128 0.25612 0.0
C88 C 0.12643 0.13244 0.25898 0.0
C89 C 0.16479 0.10938 0.27412 0.0
C90 C 0.17214 0.12879 0.2957 0.0
C91 C 0.15626 0.14997 0.29949 0.0
C92 C 0.13361 0.15168 0.28098 0.0
N93 N 0.16255 0.17009 0.32119 0.0
C94 C 0.18539 0.17197 0.33877 0.0
H95 H 0.41057 0.64186 0.73733 0.0
H96 H 0.38963 0.7149 0.77393 0.0
H97 H 0.33309 0.65637 0.76984 0.0
C98 C 0.39671 0.65423 0.74914 0.0
C99 C 0.37141 0.64575 0.75402 0.0
C100 C 0.40353 0.67916 0.75588 0.0
C101 C 0.38493 0.69547 0.76932 0.0
C102 C 0.35971 0.68703 0.775 0.0
C103 C 0.35293 0.66237 0.76686 0.0
N104 N 0.34008 0.704 0.78425 0.0
C105 C 0.33797 0.71416 0.81544 0.0
H106 H 0.79458 0.88005 0.13971 0.0
H107 H 0.82085 0.84174 0.22289 0.0
H108 H 0.75484 0.88974 0.23031 0.0
C109 C 0.79172 0.87449 0.16436 0.0
C110 C 0.77195 0.88578 0.1828 0.0
C111 C 0.80977 0.85879 0.17845 0.0
C112 C 0.807 0.85355 0.21127 0.0
C113 C 0.78677 0.86398 0.22968 0.0
C114 C 0.76933 0.88029 0.21552 0.0
N115 N 0.78624 0.86027 0.26329 0.0
C116 C 0.76529 0.84942 0.27819 0.0
H117 H 0.62521 0.33481 0.65228 0.0
H118 H 0.66415 0.26841 0.67982 0.0
H119 H 0.70826 0.33214 0.6525 0.0
C120 C 0.64299 0.325 0.65729 0.0
C121 C 0.66679 0.33658 0.65184 0.0
C122 C 0.64183 0.30031 0.6668 0.0
C123 C 0.66486 0.28749 0.67249 0.0
C124 C 0.68885 0.29921 0.66785 0.0
C125 C 0.68972 0.32339 0.65658 0.0
N126 N 0.71234 0.28699 0.67433 0.0
C127 C 0.71577 0.27442 0.70262 0.0
H128 H 0.64399 0.40204 0.30765 0.0
H129 H 0.69874 0.37109 0.2396 0.0
H130 H 0.64483 0.32334 0.28677 0.0
C131 C 0.65191 0.38604 0.29446 0.0
C132 C 0.64195 0.36239 0.29993 0.0
C133 C 0.67232 0.38931 0.27274 0.0
C134 C 0.68269 0.3686 0.25594 0.0
C135 C 0.67244 0.34475 0.26075 0.0
C136 C 0.65231 0.34179 0.28285 0.0
N137 N 0.68207 0.3233 0.24412 0.0
C138 C 0.69836 0.32408 0.21763 0.0
H139 H 0.14661 0.14788 0.8821 0.0
H140 H 0.18362 0.2138 0.84903 0.0
H141 H 0.2294 0.15301 0.88209 0.0
C142 C 0.16406 0.15794 0.87612 0.0
C143 C 0.1881 0.14743 0.88268 0.0
C144 C 0.16221 0.18198 0.86448 0.0
C145 C 0.18491 0.19516 0.85782 0.0
C146 C 0.20924 0.18445 0.86363 0.0
C147 C 0.21067 0.16095 0.87691 0.0
N148 N 0.23257 0.1971 0.85708 0.0
C149 C 0.23481 0.21398 0.83275 0.0
H150 H 0.29742 0.60373 0.39725 0.0
H151 H 0.32696 0.64578 0.31928 0.0
H152 H 0.25844 0.60124 0.30527 0.0
C153 C 0.29545 0.61029 0.37291 0.0
C154 C 0.27537 0.60101 0.35304 0.0
C155 C 0.31428 0.62627 0.36103 0.0
C156 C 0.31219 0.63395 0.32915 0.0
C157 C 0.29168 0.62561 0.30933 0.0
C158 C 0.27333 0.60893 0.32118 0.0
N159 N 0.29155 0.63214 0.27655 0.0
C160 C 0.26989 0.64145 0.2614 0.0
H161 H 0.92245 0.83602 0.79533 0.0
H162 H 0.87771 0.78573 0.73461 0.0
H163 H 0.85551 0.86247 0.74555 0.0
C164 C 0.90638 0.83289 0.77878 0.0
C165 C 0.88939 0.85232 0.77264 0.0
C166 C 0.902 0.80886 0.76571 0.0
C167 C 0.88129 0.80437 0.74432 0.0
C168 C 0.86507 0.82423 0.73623 0.0
C169 C 0.86915 0.84788 0.75057 0.0
N170 N 0.84377 0.82132 0.71487 0.0
C171 C 0.83484 0.79899 0.70131 0.0
H172 H 0.17474 0.92426 0.08031 0.0
H173 H 0.19762 0.95974 0.10634 0.0
H174 H 0.12685 0.98287 0.15334 0.0
H175 H 0.10395 0.94782 0.12695 0.0
H176 H 0.15991 0.02251 0.12719 0.0
H177 H 0.21079 0.95741 0.20724 0.0
H178 H 0.21174 0.95191 0.16404 0.0
H179 H 0.18191 0.94817 0.1853 0.0
C180 C 0.16391 0.9376 0.09504 0.0
C181 C 0.13752 0.93373 0.10113 0.0
C182 C 0.17706 0.95755 0.1103 0.0
C183 C 0.16394 0.9737 0.13195 0.0
C184 C 0.13728 0.97058 0.13665 0.0
H185 H 0.15556 0.06188 0.2895 0.0
H186 H 0.16792 0.02639 0.25463 0.0
C187 C 0.12421 0.95066 0.12155 0.0
C188 C 0.17781 0.99275 0.15197 0.0
H189 H 0.2112 -0.00028 0.22305 0.0
C190 C 0.17184 0.01772 0.14761 0.0
C191 C 0.19318 0.98621 0.17864 0.0
C192 C 0.19985 0.9595 0.18439 0.0
C193 C 0.17924 0.03624 0.17049 0.0
C194 C 0.1933 0.02955 0.19827 0.0
C195 C 0.20076 0.00477 0.20153 0.0
C196 C 0.19524 0.04707 0.22659 0.0
C197 C 0.1699 0.06247 0.16618 0.0
C198 C 0.20848 0.06972 0.22443 0.0
C199 C 0.20147 0.09005 0.24455 0.0
C200 C 0.1813 0.08767 0.26689 0.0
C201 C 0.17127 0.06402 0.27253 0.0
C202 C 0.17826 0.04377 0.25247 0.0
H203 H 0.157 0.06393 0.14485 0.0
H204 H 0.15921 0.06931 0.18799 0.0
H205 H 0.18674 0.07491 0.1629 0.0
H206 H 0.22188 0.0725 0.2048 0.0
H207 H 0.20929 0.10819 0.23969 0.0
H208 H 0.62208 0.69857 0.60162 0.0
H209 H 0.58516 0.71606 0.63199 0.0
H210 H 0.53924 0.65194 0.60276 0.0
H211 H 0.5752 0.63576 0.57051 0.0
H212 H 0.50989 0.68935 0.60469 0.0
H213 H 0.56746 0.69434 0.71842 0.0
H214 H 0.57882 0.7143 0.68783 0.0
H215 H 0.5803 0.68108 0.68128 0.0
C216 C 0.60389 0.68854 0.60148 0.0
C217 C 0.60134 0.66582 0.58409 0.0
C218 C 0.58291 0.69836 0.61904 0.0
C219 C 0.55959 0.68495 0.62068 0.0
C220 C 0.55694 0.66269 0.6021 0.0
H221 H 0.45095 0.65807 0.7633 0.0
H222 H 0.48967 0.66613 0.7317 0.0
C223 C 0.57751 0.65339 0.58368 0.0
C224 C 0.53824 0.6929 0.64277 0.0
H225 H 0.52344 0.70364 0.72255 0.0
C226 C 0.51291 0.69274 0.63043 0.0
C227 C 0.54212 0.69729 0.67646 0.0
C228 C 0.56858 0.69657 0.69189 0.0
C229 C 0.49137 0.69511 0.65087 0.0
C230 C 0.49527 0.69905 0.68455 0.0
C231 C 0.52057 0.70082 0.6967 0.0
C232 C 0.47357 0.69766 0.70782 0.0
C233 C 0.46472 0.69149 0.63642 0.0
C234 C 0.45218 0.71356 0.70629 0.0
C235 C 0.42988 0.70883 0.7242 0.0
C236 C 0.4288 0.68825 0.74407 0.0
C237 C 0.45115 0.67387 0.74787 0.0
C238 C 0.4733 0.67851 0.72987 0.0
H239 H 0.46545 0.68366 0.61121 0.0
H240 H 0.45296 0.67885 0.65108 0.0
H241 H 0.45473 0.70967 0.63605 0.0
H242 H 0.45222 0.72882 0.69 0.0
H243 H 0.41294 0.7202 0.72069 0.0
H244 H 0.7837 0.08225 0.0195 0.0
H245 H 0.7593 0.04586 0.03638 0.0
H246 H 0.83106 0.00894 0.05737 0.0
H247 H 0.85527 0.04459 0.03826 0.0
H248 H 0.79734 0.97624 0.03777 0.0
H249 H 0.74968 0.03805 0.13018 0.0
H250 H 0.74217 0.04508 0.08925 0.0
H251 H 0.77474 0.04897 0.10412 0.0
C252 C 0.79412 0.0659 0.02657 0.0
C253 C 0.82123 0.06596 0.02753 0.0
C254 C 0.78022 0.04532 0.03675 0.0
C255 C 0.79328 0.02502 0.04939 0.0
C256 C 0.82047 0.02443 0.048 0.0
H257 H 0.77624 0.93374 0.2031 0.0
H258 H 0.77243 0.96881 0.16796 0.0
C259 C 0.83435 0.04472 0.03694 0.0
C260 C 0.77918 0.00531 0.0665 0.0
H261 H 0.74123 0.9955 0.13244 0.0
C262 C 0.78481 0.98043 0.05823 0.0
C263 C 0.76291 0.01082 0.09341 0.0
C264 C 0.75716 0.03715 0.10501 0.0
C265 C 0.77611 0.96103 0.07714 0.0
C266 C 0.76013 0.96655 0.1043 0.0
C267 C 0.75317 0.9913 0.11142 0.0
C268 C 0.7544 0.94759 0.12846 0.0
C269 C 0.78591 0.9351 0.06923 0.0
C270 C 0.74333 0.92456 0.11921 0.0
C271 C 0.74593 0.90434 0.13917 0.0
C272 C 0.75881 0.90722 0.16899 0.0
C273 C 0.76609 0.9311 0.18029 0.0
C274 C 0.76406 0.95114 0.16006 0.0
H275 H 0.80209 0.93503 0.0516 0.0
H276 H 0.79277 0.92614 0.09139 0.0
H277 H 0.77003 0.92365 0.05844 0.0
H278 H 0.7349 0.92162 0.0954 0.0
H279 H 0.74016 0.88604 0.13004 0.0
H280 H 0.44912 0.31111 0.51502 0.0
H281 H 0.48488 0.28744 0.53686 0.0
H282 H 0.44362 0.28142 0.62665 0.0
H283 H 0.40733 0.30435 0.60426 0.0
H284 H 0.5034 0.31683 0.58984 0.0
H285 H 0.49165 0.21836 0.62312 0.0
H286 H 0.47425 0.23143 0.58986 0.0
H287 H 0.46468 0.23886 0.6307 0.0
C288 C 0.44697 0.30323 0.53857 0.0
C289 C 0.4256 0.30945 0.55801 0.0
C290 C 0.46744 0.28977 0.55112 0.0
C291 C 0.46704 0.28284 0.58349 0.0
C292 C 0.44424 0.28625 0.6015 0.0
H293 H 0.59957 0.31284 0.70278 0.0
H294 H 0.55481 0.30232 0.68846 0.0
C295 C 0.42347 0.29935 0.58867 0.0
C296 C 0.49202 0.27954 0.60039 0.0
H297 H 0.52865 0.23999 0.64408 0.0
C298 C 0.50894 0.29993 0.60148 0.0
C299 C 0.49906 0.25761 0.61585 0.0
C300 C 0.48161 0.23517 0.6148 0.0
C301 C 0.53275 0.29907 0.61736 0.0
C302 C 0.53975 0.27733 0.63333 0.0
C303 C 0.523 0.25673 0.63218 0.0
C304 C 0.5651 0.27607 0.64981 0.0
C305 C 0.55038 0.32147 0.61655 0.0
C306 C 0.58556 0.26328 0.6345 0.0
C307 C 0.61115 0.26903 0.64299 0.0
C308 C 0.61642 0.28775 0.66664 0.0
C309 C 0.5959 0.29833 0.68449 0.0
C310 C 0.57038 0.29232 0.67633 0.0
H311 H 0.54445 0.3345 0.59775 0.0
H312 H 0.54977 0.33166 0.64034 0.0
H313 H 0.57069 0.31577 0.61184 0.0
H314 H 0.58186 0.25077 0.61389 0.0
H315 H 0.62669 0.26079 0.62876 0.0
H316 H 0.61445 0.53696 0.42029 0.0
H317 H 0.64148 0.50821 0.38809 0.0
H318 H 0.70884 0.55254 0.41216 0.0
H319 H 0.6818 0.58104 0.44547 0.0
H320 H 0.68451 0.54092 0.33676 0.0
H321 H 0.71335 0.4636 0.41413 0.0
H322 H 0.6814 0.47607 0.42061 0.0
H323 H 0.70915 0.49514 0.42984 0.0
C324 C 0.63516 0.53997 0.41971 0.0
C325 C 0.6462 0.56096 0.43532 0.0
C326 C 0.65053 0.52369 0.40127 0.0
C327 C 0.677 0.52849 0.3977 0.0
C328 C 0.68842 0.5486 0.41485 0.0
H329 H 0.72257 0.40227 0.28348 0.0
H330 H 0.73658 0.44318 0.30451 0.0
C331 C 0.67306 0.56467 0.43397 0.0
C332 C 0.69139 0.51395 0.37289 0.0
H333 H 0.71096 0.45464 0.35735 0.0
C334 C 0.69124 0.5223 0.34119 0.0
C335 C 0.70039 0.48995 0.37893 0.0
C336 C 0.70133 0.48059 0.41276 0.0
C337 C 0.69725 0.50617 0.31488 0.0
C338 C 0.70324 0.48113 0.32065 0.0
C339 C 0.70635 0.4738 0.3527 0.0
C340 C 0.70001 0.46108 0.29541 0.0
C341 C 0.69534 0.51568 0.28119 0.0
C342 C 0.67567 0.45815 0.2806 0.0
C343 C 0.66778 0.43491 0.26836 0.0
C344 C 0.684 0.41426 0.27114 0.0
C345 C 0.7097 0.41794 0.28121 0.0
C346 C 0.71768 0.44131 0.29333 0.0
H347 H 0.70251 0.53512 0.28071 0.0
H348 H 0.7065 0.50401 0.2635 0.0
H349 H 0.67475 0.5158 0.2736 0.0
H350 H 0.66147 0.47288 0.2822 0.0
H351 H 0.64793 0.43248 0.26041 0.0
H352 H 0.96442 0.13669 0.97625 0.0
H353 H 0.00609 0.15538 0.96245 0.0
H354 H 0.96665 0.22078 0.93111 0.0
H355 H 0.92515 0.20178 0.94393 0.0
H356 H 0.99571 0.20187 0.88449 0.0
H357 H 0.05448 0.20906 0.99585 0.0
H358 H 0.04126 0.17842 0.99011 0.0
H359 H 0.01988 0.20447 0.99669 0.0
C360 C 0.96485 0.15539 0.96753 0.0
C361 C 0.94179 0.16788 0.96112 0.0
C362 C 0.98862 0.16612 0.95971 0.0
C363 C 0.98951 0.18958 0.94586 0.0
C364 C 0.96645 0.20271 0.94174 0.0
H365 H 0.14764 0.2259 0.89361 0.0
H366 H 0.10332 0.23707 0.90896 0.0
C367 C 0.9428 0.19188 0.94914 0.0
C368 C 0.01375 0.19863 0.93122 0.0
H369 H 0.0783 0.20549 0.94535 0.0
C370 C 0.01369 0.20323 0.898 0.0
C371 C 0.03711 0.20099 0.94881 0.0
C372 C 0.03814 0.19824 0.98491 0.0
C373 C 0.03665 0.20819 0.88147 0.0
C374 C 0.06036 0.20802 0.89847 0.0
C375 C 0.06017 0.20542 0.93215 0.0
C376 C 0.08561 0.20648 0.88161 0.0
C377 C 0.03532 0.21276 0.84578 0.0
C378 C 0.09019 0.18652 0.85958 0.0
C379 C 0.11538 0.18031 0.85057 0.0
C380 C 0.13642 0.19374 0.8638 0.0
C381 C 0.13172 0.21532 0.88296 0.0
C382 C 0.10643 0.2216 0.89194 0.0
H383 H 0.01701 0.22227 0.83966 0.0
H384 H 0.05185 0.22417 0.8378 0.0
H385 H 0.03557 0.19467 0.83203 0.0
H386 H 0.07459 0.17428 0.85168 0.0
H387 H 0.11856 0.1636 0.83571 0.0
H388 H 0.32167 0.40258 0.44594 0.0
H389 H 0.29762 0.43672 0.42349 0.0
H390 H 0.27797 0.46369 0.51981 0.0
H391 H 0.30298 0.42985 0.54252 0.0
H392 H 0.24844 0.45283 0.42565 0.0
H393 H 0.3132 0.52342 0.48542 0.0
H394 H 0.32009 0.49068 0.48554 0.0
H395 H 0.29619 0.50398 0.5125 0.0
C396 C 0.31206 0.41562 0.4624 0.0
C397 C 0.31451 0.41375 0.49603 0.0
C398 C 0.29824 0.43513 0.4495 0.0
C399 C 0.28636 0.45307 0.46993 0.0
C400 C 0.28755 0.45047 0.50357 0.0
H401 H 0.24595 0.59927 0.40745 0.0
H402 H 0.23788 0.56167 0.43722 0.0
C403 C 0.30178 0.43111 0.51653 0.0
C404 C 0.27432 0.47513 0.45563 0.0
H405 H 0.2816 0.53778 0.45066 0.0
C406 C 0.25542 0.47148 0.43142 0.0
C407 C 0.28339 0.49949 0.46317 0.0
C408 C 0.30447 0.50472 0.48785 0.0
C409 C 0.24609 0.49136 0.41374 0.0
C410 C 0.256 0.51548 0.42038 0.0
C411 C 0.27381 0.51931 0.44576 0.0
C412 C 0.25138 0.5365 0.39894 0.0
C413 C 0.22621 0.48622 0.38764 0.0
C414 C 0.25984 0.53474 0.36669 0.0
C415 C 0.26412 0.55622 0.34952 0.0
C416 C 0.26036 0.57971 0.36458 0.0
C417 C 0.2489 0.58133 0.39533 0.0
C418 C 0.24442 0.55986 0.41239 0.0
H419 H 0.21394 0.47001 0.39334 0.0
H420 H 0.21359 0.50256 0.38426 0.0
H421 H 0.23625 0.48171 0.36449 0.0
H422 H 0.2658 0.51704 0.35592 0.0
H423 H 0.27328 0.55449 0.32602 0.0
H424 H 0.08954 0.79404 0.94916 0.0
H425 H 0.05578 0.77591 0.91401 0.0
H426 H 0.00411 0.83517 0.94353 0.0
H427 H 0.03814 0.85362 0.97825 0.0
H428 H -0.00037 0.76203 0.92066 0.0
H429 H 0.02109 0.84237 0.84449 0.0
H430 H 0.04198 0.83359 0.87706 0.0
H431 H 0.01254 0.85013 0.88572 0.0
C432 C 0.07071 0.80279 0.94881 0.0
C433 C 0.06626 0.82512 0.96657 0.0
C434 C 0.05144 0.79235 0.92889 0.0
C435 C 0.02755 0.80425 0.92613 0.0
C436 C 0.02244 0.82567 0.94551 0.0
H437 H 0.89138 0.78336 0.81854 0.0
H438 H 0.92492 0.77303 0.85692 0.0
C439 C 0.04173 0.83606 0.96559 0.0
C440 C 0.00984 0.79659 0.89946 0.0
H441 H 0.98703 0.816 0.82754 0.0
C442 C 0.99685 0.77369 0.90016 0.0
C443 C 0.00692 0.81154 0.87241 0.0
C444 C 0.0215 0.83569 0.86955 0.0
C445 C 0.98017 0.7658 0.87484 0.0
C446 C 0.9764 0.78132 0.84841 0.0
C447 C 0.99007 0.80386 0.84752 0.0
C448 C 0.95646 0.77653 0.82302 0.0
C449 C 0.96683 0.74099 0.87668 0.0
C450 C 0.96266 0.78002 0.79041 0.0
C451 C 0.94339 0.78642 0.76855 0.0
C452 C 0.91773 0.78896 0.77901 0.0
C453 C 0.91103 0.78115 0.80987 0.0
C454 C 0.93032 0.77529 0.83195 0.0
H455 H 0.97862 0.72786 0.89057 0.0
H456 H 0.94814 0.74355 0.8895 0.0
H457 H 0.96292 0.73257 0.85225 0.0
H458 H 0.98269 0.7809 0.7829 0.0
H459 H 0.94902 0.79266 0.74499 0.0
H460 H 0.88338 0.04376 0.97624 0.0
H461 H 0.88793 0.00129 0.9525 0.0
H462 H 0.84782 0.02339 0.86684 0.0
H463 H 0.84377 0.06555 0.88996 0.0
H464 H 0.84945 0.96448 0.91836 0.0
H465 H 0.92479 0.00449 0.83998 0.0
H466 H 0.91429 0.01966 0.87735 0.0
H467 H 0.89466 0.02102 0.84162 0.0
C468 C 0.87489 0.03921 0.9528 0.0
C469 C 0.86354 0.05778 0.93462 0.0
C470 C 0.87757 0.0151 0.93926 0.0
C471 C 0.86867 0.00954 0.90771 0.0
C472 C 0.85515 0.02752 0.891 0.0
H473 H 0.87866 0.8997 0.75369 0.0
H474 H 0.87546 0.93733 0.78836 0.0
C475 C 0.85279 0.05151 0.90424 0.0
C476 C 0.87562 0.98605 0.89045 0.0
H477 H 0.91025 0.96371 0.8256 0.0
C478 C 0.86299 0.96411 0.89837 0.0
C479 C 0.89322 0.98587 0.86432 0.0
C480 C 0.90772 0.00896 0.85537 0.0
C481 C 0.86667 0.94204 0.87982 0.0
C482 C 0.8839 0.94197 0.8532 0.0
C483 C 0.89705 0.96383 0.84594 0.0
C484 C 0.88778 0.91964 0.83186 0.0
C485 C 0.8512 0.91933 0.88802 0.0
C486 C 0.89663 0.8975 0.84459 0.0
C487 C 0.89789 0.87588 0.82509 0.0
C488 C 0.89093 0.87606 0.79215 0.0
C489 C 0.88362 0.89871 0.77903 0.0
C490 C 0.88198 0.92029 0.79876 0.0
H491 H 0.83425 0.92418 0.90342 0.0
H492 H 0.84424 0.90923 0.86578 0.0
H493 H 0.86365 0.90659 0.90158 0.0
H494 H 0.9019 0.89677 0.86987 0.0
H495 H 0.90331 0.85885 0.83634 0.0
H496 H 0.44249 0.38331 0.49076 0.0
H497 H 0.48685 0.3837 0.46978 0.0
H498 H 0.45939 0.35425 0.37758 0.0
H499 H 0.4153 0.35446 0.39777 0.0
H500 H 0.51725 0.34557 0.44511 0.0
H501 H 0.50008 0.41418 0.35148 0.0
H502 H 0.47735 0.40917 0.38363 0.0
H503 H 0.47749 0.38895 0.34794 0.0
C504 C 0.44592 0.37714 0.46593 0.0
C505 C 0.42532 0.36922 0.44577 0.0
C506 C 0.47124 0.37731 0.45404 0.0
C507 C 0.47627 0.36952 0.42193 0.0
C508 C 0.45582 0.36106 0.40213 0.0
H509 H 0.59804 0.33472 0.29127 0.0
H510 H 0.55963 0.33528 0.32581 0.0
C511 C 0.4306 0.36113 0.41378 0.0
C512 C 0.50283 0.36966 0.40881 0.0
H513 H 0.53761 0.38829 0.3441 0.0
C514 C 0.52188 0.35521 0.42333 0.0
C515 C 0.50887 0.3825 0.3806 0.0
C516 C 0.48993 0.39978 0.36524 0.0
C517 C 0.54642 0.35222 0.40923 0.0
C518 C 0.55173 0.36381 0.37999 0.0
C519 C 0.53315 0.37908 0.36628 0.0
C520 C 0.57627 0.36013 0.36252 0.0
C521 C 0.56625 0.33608 0.42486 0.0
C522 C 0.59835 0.3735 0.3723 0.0
C523 C 0.62027 0.37322 0.35267 0.0
C524 C 0.62032 0.35965 0.32293 0.0
C525 C 0.59861 0.34521 0.31411 0.0
C526 C 0.57667 0.34556 0.33373 0.0
H527 H 0.55864 0.32733 0.44679 0.0
H528 H 0.57274 0.32127 0.40733 0.0
H529 H 0.58346 0.34746 0.43177 0.0
H530 H 0.59822 0.38498 0.39437 0.0
H531 H 0.6369 0.38426 0.36025 0.0
H532 H 0.17177 0.93726 0.02647 0.0
H533 H 0.18518 0.97982 0.01547 0.0
H534 H 0.11465 0.99017 0.96196 0.0
H535 H 0.1011 0.94777 0.97344 0.0
H536 H 0.19144 0.99415 0.94997 0.0
H537 H 0.12286 0.05586 0.01732 0.0
H538 H 0.12864 0.02413 0.02799 0.0
H539 H 0.10777 0.03066 0.99462 0.0
C540 C 0.15863 0.94907 0.01379 0.0
C541 C 0.13513 0.9396 0.00159 0.0
C542 C 0.16644 0.97322 0.00709 0.0
C543 C 0.15075 0.98823 0.98826 0.0
C544 C 0.1268 0.97907 0.97709 0.0
H545 H 0.1671 0.10438 0.85864 0.0
H546 H 0.16216 0.06534 0.88662 0.0
C547 C 0.11912 0.95488 0.98355 0.0
C548 C 0.16064 0.01215 0.97679 0.0
H549 H 0.14651 0.0739 0.97431 0.0
C550 C 0.18192 0.01167 0.95574 0.0
C551 C 0.14815 0.03494 0.98434 0.0
C552 C 0.12571 0.03658 0.00754 0.0
C553 C 0.19028 0.03324 0.94088 0.0
C554 C 0.1771 0.05575 0.94739 0.0
C555 C 0.15654 0.05651 0.96946 0.0
C556 C 0.18292 0.07824 0.92946 0.0
C557 C 0.21261 0.03182 0.91752 0.0
C558 C 0.19673 0.09808 0.94416 0.0
C559 C 0.19991 0.12024 0.92802 0.0
C560 C 0.18892 0.12287 0.89729 0.0
C561 C 0.17581 0.10268 0.88228 0.0
C562 C 0.17296 0.08048 0.8982 0.0
H563 H 0.22312 0.01391 0.91854 0.0
H564 H 0.20522 0.03379 0.89255 0.0
H565 H 0.22639 0.04731 0.92275 0.0
H566 H 0.20441 0.09663 0.96837 0.0
H567 H 0.20978 0.13572 0.94017 0.0
H568 H 0.53553 0.67176 0.49947 0.0
H569 H 0.48962 0.68205 0.49304 0.0
H570 H 0.47076 0.604 0.48743 0.0
H571 H 0.51645 0.5938 0.49304 0.0
H572 H 0.46867 0.66354 0.43296 0.0
H573 H 0.40765 0.63532 0.53492 0.0
H574 H 0.44158 0.64289 0.53957 0.0
H575 H 0.43182 0.61272 0.5238 0.0
C576 C 0.52135 0.6569 0.49873 0.0
C577 C 0.52935 0.632 0.49696 0.0
C578 C 0.49518 0.66278 0.4948 0.0
C579 C 0.47676 0.6438 0.48982 0.0
C580 C 0.48452 0.61896 0.49177 0.0
H581 H 0.34404 0.59458 0.3943 0.0
H582 H 0.38187 0.60424 0.4277 0.0
C583 C 0.51064 0.61311 0.49507 0.0
C584 C 0.45116 0.64911 0.47552 0.0
H585 H 0.38719 0.63476 0.48231 0.0
C586 C 0.45068 0.65796 0.44404 0.0
C587 C 0.42784 0.64162 0.48995 0.0
C588 C 0.42715 0.63282 0.52406 0.0
C589 C 0.42785 0.65756 0.4256 0.0
C590 C 0.40476 0.64867 0.4394 0.0
C591 C 0.40492 0.64149 0.4717 0.0
C592 C 0.3812 0.64368 0.41966 0.0
C593 C 0.42913 0.66478 0.39075 0.0
C594 C 0.3682 0.66268 0.40392 0.0
C595 C 0.34655 0.65714 0.3845 0.0
C596 C 0.33738 0.6326 0.38102 0.0
C597 C 0.35039 0.61373 0.39696 0.0
C598 C 0.37203 0.61922 0.41605 0.0
H599 H 0.44936 0.66685 0.38224 0.0
H600 H 0.41922 0.6507 0.37478 0.0
H601 H 0.41918 0.68281 0.38813 0.0
H602 H 0.37473 0.68175 0.40672 0.0
H603 H 0.33676 0.67202 0.37261 0.0
H604 H 0.33416 0.4391 0.58623 0.0
H605 H 0.32491 0.47771 0.61727 0.0
H606 H 0.40499 0.49928 0.6103 0.0
H607 H 0.41424 0.46124 0.5788 0.0
H608 H 0.34798 0.49101 0.67713 0.0
H609 H 0.36727 0.56258 0.58746 0.0
H610 H 0.36202 0.5303 0.57584 0.0
H611 H 0.39309 0.54064 0.59074 0.0
C612 C 0.34961 0.45242 0.59045 0.0
C613 C 0.37489 0.44715 0.57984 0.0
C614 C 0.34435 0.47436 0.60845 0.0
C615 C 0.36422 0.49145 0.61587 0.0
C616 C 0.38926 0.4866 0.60436 0.0
H617 H 0.39628 0.6018 0.76274 0.0
H618 H 0.38956 0.56263 0.73177 0.0
C619 C 0.39452 0.46475 0.58642 0.0
C620 C 0.35948 0.51348 0.63761 0.0
H621 H 0.36676 0.57646 0.6431 0.0
C622 C 0.35168 0.50974 0.66958 0.0
C623 C 0.3643 0.53789 0.62771 0.0
C624 C 0.3719 0.54316 0.59347 0.0
C625 C 0.34961 0.52973 0.69225 0.0
C626 C 0.35547 0.55396 0.68261 0.0
C627 C 0.3623 0.5578 0.65039 0.0
C628 C 0.35619 0.57557 0.70575 0.0
C629 C 0.34155 0.52486 0.72641 0.0
C630 C 0.33925 0.59554 0.70194 0.0
C631 C 0.34298 0.61787 0.71968 0.0
C632 C 0.36397 0.62067 0.74115 0.0
C633 C 0.37998 0.60013 0.7463 0.0
C634 C 0.3761 0.57775 0.72876 0.0
H635 H 0.33266 0.50618 0.72834 0.0
H636 H 0.3588 0.52592 0.74239 0.0
H637 H 0.32757 0.53913 0.73536 0.0
H638 H 0.3239 0.59423 0.68411 0.0
H639 H 0.33053 0.63344 0.71492 0.0
H640 H 0.02684 0.87542 0.02775 0.0
H641 H 0.97949 0.87244 0.03118 0.0
H642 H 0.98699 0.81212 0.09614 0.0
H643 H 0.03398 0.81449 0.09174 0.0
H644 H 0.94289 0.8075 0.05746 0.0
H645 H 0.95214 0.90175 0.11669 0.0
H646 H 0.9624 0.89873 0.07531 0.0
H647 H 0.97996 0.88315 0.10605 0.0
C648 C 0.01826 0.86074 0.04137 0.0
C649 C 0.0339 0.84502 0.05925 0.0
C650 C 0.99126 0.85928 0.04372 0.0
C651 C 0.97975 0.84239 0.06446 0.0
C652 C 0.99541 0.8253 0.08003 0.0
H653 H 0.85963 0.85734 0.20043 0.0
H654 H 0.8988 0.85121 0.16866 0.0
C655 C 0.02225 0.82669 0.07756 0.0
C656 C 0.95227 0.84472 0.07435 0.0
H657 H 0.9122 0.88194 0.12012 0.0
C658 C 0.93595 0.8239 0.07071 0.0
C659 C 0.94343 0.86606 0.09202 0.0
C660 C 0.96036 0.88866 0.09805 0.0
C661 C 0.91144 0.82349 0.08538 0.0
C662 C 0.90302 0.84456 0.10383 0.0
C663 C 0.91882 0.86576 0.10611 0.0
C664 C 0.87887 0.8447 0.1231 0.0
C665 C 0.89536 0.80011 0.08246 0.0
C666 C 0.85456 0.84234 0.1082 0.0
C667 C 0.83198 0.84536 0.12651 0.0
C668 C 0.83331 0.85116 0.15997 0.0
C669 C 0.85774 0.85249 0.17491 0.0
C670 C 0.88022 0.84927 0.15668 0.0
H671 H 0.90678 0.78397 0.07304 0.0
H672 H 0.88707 0.79554 0.10625 0.0
H673 H 0.87909 0.80301 0.06553 0.0
H674 H 0.85303 0.83914 0.08228 0.0
H675 H 0.81348 0.84399 0.11426 0.0
H676 H 0.65234 0.54082 0.49513 0.0
H677 H 0.656 0.49714 0.50958 0.0
H678 H 0.62032 0.51497 0.60165 0.0
H679 H 0.61648 0.55832 0.58712 0.0
H680 H 0.68504 0.48382 0.56571 0.0
H681 H 0.58379 0.45013 0.57128 0.0
H682 H 0.59298 0.47695 0.54899 0.0
H683 H 0.58918 0.47952 0.59216 0.0
C684 C 0.64426 0.53512 0.51774 0.0
C685 C 0.63367 0.55273 0.53975 0.0
C686 C 0.64666 0.51029 0.52619 0.0
C687 C 0.6382 0.50281 0.55657 0.0
C688 C 0.62652 0.52023 0.57787 0.0
H689 H 0.64288 0.37742 0.67801 0.0
H690 H 0.63866 0.41818 0.65439 0.0
C691 C 0.62435 0.54496 0.56957 0.0
C692 C 0.64395 0.47764 0.56778 0.0
H693 H 0.61552 0.42636 0.59812 0.0
C694 C 0.6699 0.47103 0.57238 0.0
C695 C 0.62413 0.46124 0.57684 0.0
C696 C 0.59595 0.46718 0.57184 0.0
C697 C 0.67656 0.4488 0.58697 0.0
C698 C 0.65669 0.43251 0.59642 0.0
C699 C 0.63076 0.43891 0.59104 0.0
C700 C 0.66208 0.40885 0.61236 0.0
C701 C 0.70472 0.44356 0.59338 0.0
C702 C 0.67717 0.39025 0.597 0.0
C703 C 0.67992 0.36709 0.61077 0.0
C704 C 0.66721 0.36205 0.63975 0.0
C705 C 0.65278 0.38088 0.65556 0.0
C706 C 0.65033 0.4041 0.64206 0.0
H707 H 0.71661 0.46077 0.59335 0.0
H708 H 0.70735 0.43474 0.61697 0.0
H709 H 0.71219 0.43067 0.57407 0.0
H710 H 0.68595 0.39326 0.57375 0.0
H711 H 0.69088 0.35272 0.59797 0.0
H712 H 0.93761 0.08993 0.07769 0.0
H713 H 0.97836 0.0941 0.10726 0.0
H714 H 0.99157 0.16528 0.06588 0.0
H715 H 0.95037 0.1613 0.03636 0.0
H716 H 0.03156 0.10412 0.09021 0.0
H717 H 0.98522 0.17945 0.1656 0.0
H718 H 0.96681 0.15883 0.13894 0.0
H719 H 0.98591 0.18319 0.1226 0.0
C720 C 0.94949 0.10622 0.0743 0.0
C721 C 0.94086 0.12536 0.05489 0.0
C722 C 0.97277 0.10854 0.09115 0.0
C723 C 0.9877 0.13016 0.08915 0.0
C724 C 0.98011 0.14857 0.06796 0.0
H725 H 0.11318 0.17226 0.22348 0.0
H726 H 0.08029 0.17345 0.1808 0.0
C727 C 0.95677 0.14617 0.05086 0.0
C728 C 0.00951 0.13416 0.11194 0.0
H729 H 0.02616 0.16603 0.18184 0.0
C730 C 0.0306 0.11787 0.10999 0.0
C731 C 0.00802 0.152 0.13785 0.0
C732 C 0.98525 0.16932 0.14171 0.0
C733 C 0.0501 0.11869 0.13364 0.0
C734 C 0.04812 0.13595 0.16016 0.0
C735 C 0.02752 0.15281 0.1615 0.0
C736 C 0.06664 0.136 0.18745 0.0
C737 C 0.07253 0.10093 0.13018 0.0
C738 C 0.069 0.11498 0.20618 0.0
C739 C 0.08756 0.11432 0.23063 0.0
C740 C 0.10402 0.13475 0.23691 0.0
C741 C 0.10065 0.15633 0.21933 0.0
C742 C 0.08205 0.15695 0.19479 0.0
H743 H 0.07501 0.09406 0.10472 0.0
H744 H 0.09084 0.10986 0.1386 0.0
H745 H 0.06887 0.08463 0.14514 0.0
H746 H 0.05677 0.09888 0.20149 0.0
H747 H 0.08948 0.09758 0.24413 0.0
H748 H 0.14883 0.7817 0.06187 0.0
H749 H 0.16751 0.74422 0.08476 0.0
H750 H 0.1907 0.78737 0.16987 0.0
H751 H 0.1722 0.82459 0.14718 0.0
H752 H 0.21923 0.73306 0.11273 0.0
H753 H 0.13939 0.73336 0.20193 0.0
H754 H 0.138 0.75048 0.16527 0.0
H755 H 0.15579 0.76268 0.19972 0.0
C756 C 0.15878 0.78325 0.08489 0.0
C757 C 0.15926 0.80593 0.10275 0.0
C758 C 0.16914 0.76185 0.09809 0.0
C759 C 0.17992 0.76303 0.12926 0.0
C760 C 0.18199 0.78604 0.14603 0.0
H761 H 0.25197 0.68692 0.27646 0.0
H762 H 0.22577 0.71285 0.24178 0.0
C763 C 0.17159 0.80728 0.133 0.0
C764 C 0.18775 0.74028 0.14555 0.0
H765 H 0.1763 0.70852 0.21389 0.0
C766 C 0.20962 0.72728 0.13448 0.0
C767 C 0.17495 0.73279 0.17375 0.0
C768 C 0.15057 0.74539 0.18576 0.0
C769 C 0.22019 0.70804 0.15227 0.0
C770 C 0.20821 0.70149 0.18153 0.0
C771 C 0.18547 0.71361 0.19153 0.0
C772 C 0.22072 0.68437 0.20394 0.0
C773 C 0.24496 0.69596 0.14067 0.0
C774 C 0.22567 0.65946 0.19473 0.0
C775 C 0.24068 0.64468 0.21456 0.0
C776 C 0.25055 0.65462 0.24387 0.0
C777 C 0.24431 0.67894 0.25398 0.0
C778 C 0.22942 0.69372 0.23418 0.0
H779 H 0.254 0.70606 0.12068 0.0
H780 H 0.2591 0.69503 0.1608 0.0
H781 H 0.24078 0.67669 0.13171 0.0
H782 H 0.21872 0.65177 0.17177 0.0
H783 H 0.24546 0.62591 0.2064 0.0
H784 H 0.65739 0.69557 0.53709 0.0
H785 H 0.68837 0.72124 0.56872 0.0
H786 H 0.75152 0.6791 0.52684 0.0
H787 H 0.72076 0.65321 0.49567 0.0
H788 H 0.72742 0.69032 0.61137 0.0
H789 H 0.77106 0.75799 0.52857 0.0
H790 H 0.73819 0.74699 0.52344 0.0
H791 H 0.76464 0.72668 0.51368 0.0
C792 C 0.67791 0.69244 0.53375 0.0
C793 C 0.68681 0.67246 0.51408 0.0
C794 C 0.69552 0.70695 0.55195 0.0
C795 C 0.7221 0.70191 0.55003 0.0
C796 C 0.73107 0.68329 0.52841 0.0
H797 H 0.85328 0.76908 0.65295 0.0
H798 H 0.82728 0.7411 0.61747 0.0
C799 C 0.71352 0.66861 0.51061 0.0
C800 C 0.74021 0.71369 0.57348 0.0
H801 H 0.78788 0.75721 0.58143 0.0
C802 C 0.74062 0.70502 0.60499 0.0
C803 C 0.75774 0.73228 0.56459 0.0
C804 C 0.75803 0.74172 0.53077 0.0
C805 C 0.75807 0.71475 0.62816 0.0
C806 C 0.77501 0.7341 0.6197 0.0
C807 C 0.7749 0.74236 0.58788 0.0
C808 C 0.79162 0.74738 0.64389 0.0
C809 C 0.7584 0.70396 0.66127 0.0
C810 C 0.78033 0.75964 0.67086 0.0
C811 C 0.79517 0.77529 0.69114 0.0
C812 C 0.82141 0.77901 0.68457 0.0
C813 C 0.83307 0.76607 0.65852 0.0
C814 C 0.81824 0.75028 0.63826 0.0
H815 H 0.75142 0.68443 0.66036 0.0
H816 H 0.77811 0.70452 0.67195 0.0
H817 H 0.74527 0.71489 0.67747 0.0
H818 H 0.75975 0.75821 0.67523 0.0
H819 H 0.78583 0.78554 0.71088 0.0
H820 H 0.79997 0.18936 0.00689 0.0
H821 H 0.77606 0.22774 0.01834 0.0
H822 H 0.83322 0.25002 0.08988 0.0
H823 H 0.85778 0.21238 0.07712 0.0
H824 H 0.75588 0.23388 0.07615 0.0
H825 H 0.81542 0.31659 0.05513 0.0
H826 H 0.82255 0.28652 0.03642 0.0
H827 H 0.83367 0.29441 0.07684 0.0
C828 C 0.80808 0.20305 0.02374 0.0
C829 C 0.83082 0.19807 0.0408 0.0
C830 C 0.79434 0.22491 0.03047 0.0
C831 C 0.80305 0.24201 0.05458 0.0
C832 C 0.82647 0.23755 0.07052 0.0
H833 H 0.74953 0.31593 0.21602 0.0
H834 H 0.77451 0.30305 0.16794 0.0
C835 C 0.84025 0.21579 0.06364 0.0
C836 C 0.78538 0.26124 0.06816 0.0
H837 H 0.78451 0.32057 0.10023 0.0
C838 C 0.76171 0.25308 0.08042 0.0
C839 C 0.79309 0.28624 0.07388 0.0
C840 C 0.81748 0.29647 0.05953 0.0
C841 C 0.74665 0.26852 0.10065 0.0
C842 C 0.75528 0.29296 0.10832 0.0
C843 C 0.77802 0.30179 0.09427 0.0
C844 C 0.74279 0.30776 0.13455 0.0
C845 C 0.72271 0.25786 0.11584 0.0
C846 C 0.71716 0.31577 0.13129 0.0
C847 C 0.7029 0.3229 0.1587 0.0
C848 C 0.71432 0.32228 0.18937 0.0
C849 C 0.74054 0.31649 0.19239 0.0
C850 C 0.75478 0.30932 0.16501 0.0
H851 H 0.72051 0.23763 0.11031 0.0
H852 H 0.72328 0.26095 0.14251 0.0
H853 H 0.70533 0.26738 0.10665 0.0
H854 H 0.70765 0.31465 0.10793 0.0
H855 H 0.6826 0.32734 0.15614 0.0
H856 H 0.34799 0.30209 0.60141 0.0
H857 H 0.31801 0.2829 0.63865 0.0
H858 H 0.30016 0.35515 0.68155 0.0
H859 H 0.33146 0.37413 0.64562 0.0
H860 H 0.3068 0.32559 0.72631 0.0
H861 H 0.24228 0.27659 0.63918 0.0
H862 H 0.27485 0.26688 0.63169 0.0
H863 H 0.26594 0.29887 0.62654 0.0
C864 C 0.33761 0.3138 0.61881 0.0
C865 C 0.34205 0.3395 0.62091 0.0
C866 C 0.32017 0.3029 0.63976 0.0
C867 C 0.30616 0.31762 0.66234 0.0
C868 C 0.31056 0.34339 0.66422 0.0
H869 H 0.2139 0.25918 0.82315 0.0
H870 H 0.22546 0.28728 0.77971 0.0
C871 C 0.32854 0.3542 0.64387 0.0
C872 C 0.28879 0.30585 0.6859 0.0
H873 H 0.2441 0.2596 0.69311 0.0
C874 C 0.29261 0.31164 0.71895 0.0
C875 C 0.26995 0.28784 0.67643 0.0
C876 C 0.26284 0.28245 0.64149 0.0
C877 C 0.2796 0.29865 0.74272 0.0
C878 C 0.26252 0.27923 0.73318 0.0
C879 C 0.25746 0.27438 0.70026 0.0
C880 C 0.25271 0.26175 0.7569 0.0
C881 C 0.28534 0.30474 0.7779 0.0
C882 C 0.26377 0.23806 0.75779 0.0
C883 C 0.2573 0.22222 0.78239 0.0
C884 C 0.23961 0.22986 0.80627 0.0
C885 C 0.22771 0.25314 0.80486 0.0
C886 C 0.23424 0.26907 0.78018 0.0
H887 H 0.30053 0.31924 0.78115 0.0
H888 H 0.26748 0.31153 0.7901 0.0
H889 H 0.29171 0.2878 0.79009 0.0
H890 H 0.27815 0.23218 0.7401 0.0
H891 H 0.26661 0.20426 0.78323 0.0
H892 H 0.66017 0.69412 0.46201 0.0
H893 H 0.68104 0.72941 0.43766 0.0
H894 H 0.63398 0.71805 0.35227 0.0
H895 H 0.613 0.68255 0.3764 0.0
H896 H 0.70891 0.72753 0.37913 0.0
H897 H 0.62645 0.7931 0.37466 0.0
H898 H 0.62664 0.76671 0.40029 0.0
H899 H 0.61974 0.7625 0.35788 0.0
C900 C 0.65419 0.69901 0.43811 0.0
C901 C 0.63502 0.68525 0.42114 0.0
C902 C 0.66608 0.71933 0.42427 0.0
C903 C 0.65883 0.7265 0.39334 0.0
C904 C 0.63951 0.71308 0.37643 0.0
H905 H 0.73047 0.81738 0.25189 0.0
H906 H 0.70243 0.78907 0.2814 0.0
C907 C 0.62767 0.69268 0.39021 0.0
C908 C 0.67265 0.74701 0.37794 0.0
H909 H 0.66421 0.80367 0.34507 0.0
C910 C 0.6992 0.74426 0.37193 0.0
C911 C 0.65988 0.76882 0.36866 0.0
C912 C 0.63165 0.77317 0.37592 0.0
C913 C 0.7132 0.76249 0.35613 0.0
C914 C 0.70033 0.78401 0.34625 0.0
C915 C 0.67389 0.78702 0.35262 0.0
C916 C 0.71429 0.80325 0.32875 0.0
C917 C 0.7416 0.75856 0.34949 0.0
C918 C 0.72966 0.82081 0.34577 0.0
C919 C 0.74553 0.83694 0.32899 0.0
C920 C 0.74609 0.83562 0.29512 0.0
C921 C 0.73 0.81876 0.27807 0.0
C922 C 0.71408 0.80266 0.29483 0.0
H923 H 0.74847 0.74023 0.35736 0.0
H924 H 0.74544 0.75993 0.32323 0.0
H925 H 0.75302 0.77336 0.36236 0.0
H926 H 0.7301 0.82139 0.37195 0.0
H927 H 0.75807 0.84974 0.34247 0.0
H928 H 0.77967 0.14588 0.94235 0.0
H929 H 0.74716 0.16798 0.91143 0.0
H930 H 0.79746 0.23188 0.90989 0.0
H931 H 0.82981 0.20987 0.94119 0.0
H932 H 0.73938 0.24135 0.90575 0.0
H933 H 0.78089 0.17092 0.81836 0.0
H934 H 0.76653 0.15941 0.85439 0.0
H935 H 0.79539 0.17794 0.85728 0.0
C936 C 0.78304 0.16516 0.93701 0.0
C937 C 0.80702 0.17633 0.94392 0.0
C938 C 0.76455 0.17771 0.9193 0.0
C939 C 0.77019 0.20133 0.90799 0.0
C940 C 0.79279 0.21366 0.9185 0.0
H941 H 0.75301 0.28743 0.74486 0.0
H942 H 0.76111 0.26947 0.79756 0.0
C943 C 0.81123 0.20114 0.93635 0.0
C944 C 0.75645 0.21032 0.87946 0.0
H945 H 0.75305 0.20047 0.79758 0.0
C946 C 0.74195 0.23225 0.88216 0.0
C947 C 0.76022 0.19846 0.84869 0.0
C948 C 0.77672 0.17548 0.84423 0.0
C949 C 0.73151 0.24291 0.85458 0.0
C950 C 0.73591 0.23137 0.82388 0.0
C951 C 0.74959 0.20903 0.82133 0.0
C952 C 0.72917 0.24351 0.79373 0.0
C953 C 0.71638 0.26673 0.85808 0.0
C954 C 0.70875 0.23452 0.7742 0.0
C955 C 0.70415 0.24473 0.74415 0.0
C956 C 0.72018 0.26371 0.73339 0.0
C957 C 0.7405 0.27274 0.75293 0.0
C958 C 0.74498 0.26268 0.78297 0.0
H959 H 0.71134 0.27136 0.88368 0.0
H960 H 0.72806 0.28218 0.84868 0.0
H961 H 0.69833 0.26531 0.84353 0.0
H962 H 0.69661 0.2195 0.78207 0.0
H963 H 0.68829 0.23771 0.72926 0.0
H964 H 0.33557 0.31621 0.44637 0.0
H965 H 0.31611 0.27788 0.4248 0.0
H966 H 0.31444 0.24887 0.52046 0.0
H967 H 0.33399 0.28763 0.54249 0.0
H968 H 0.32983 0.22559 0.42818 0.0
H969 H 0.23751 0.25141 0.49025 0.0
H970 H 0.26336 0.27355 0.48584 0.0
H971 H 0.26633 0.24953 0.51445 0.0
C972 C 0.33122 0.30169 0.46289 0.0
C973 C 0.33583 0.30511 0.49622 0.0
C974 C 0.32033 0.27967 0.45045 0.0
C975 C 0.31366 0.26067 0.47106 0.0
C976 C 0.31931 0.26345 0.50421 0.0
H977 H 0.19482 0.15697 0.39899 0.0
H978 H 0.23052 0.17117 0.43446 0.0
C979 C 0.33043 0.28555 0.51673 0.0
C980 C 0.29838 0.2394 0.45773 0.0
H981 H 0.23598 0.21936 0.45091 0.0
C982 C 0.30942 0.22377 0.43363 0.0
C983 C 0.2718 0.23708 0.46495 0.0
C984 C 0.25886 0.25379 0.49014 0.0
C985 C 0.29422 0.20675 0.41533 0.0
C986 C 0.26728 0.20577 0.42097 0.0
C987 C 0.25665 0.22014 0.44661 0.0
C988 C 0.24915 0.19288 0.39815 0.0
C989 C 0.30702 0.19059 0.38951 0.0
C990 C 0.24806 0.19999 0.36585 0.0
C991 C 0.22779 0.1919 0.34574 0.0
C992 C 0.20832 0.17671 0.35771 0.0
C993 C 0.20989 0.16859 0.38939 0.0
C994 C 0.23021 0.17665 0.40955 0.0
H995 H 0.3274 0.1866 0.39602 0.0
H996 H 0.29652 0.17273 0.38543 0.0
H997 H 0.30723 0.20051 0.3665 0.0
H998 H 0.26197 0.21305 0.35675 0.0
H999 H 0.22663 0.19852 0.32138 0.0
H1000 H 0.17361 0.79039 0.01444 0.0
H1001 H 0.20989 0.76447 0.99566 0.0
H1002 H 0.25737 0.82985 0.98826 0.0
H1003 H 0.22114 0.85577 0.0068 0.0
H1004 H 0.22889 0.78492 0.92887 0.0
H1005 H 0.30528 0.76661 0.01993 0.0
H1006 H 0.27144 0.76877 0.03071 0.0
H1007 H 0.28903 0.79625 0.02136 0.0
C1008 C 0.1922 0.79903 0.0106 0.0
C1009 C 0.1947 0.82498 0.01222 0.0
C1010 C 0.21287 0.78425 0.9997 0.0
C1011 C 0.23631 0.79528 0.99083 0.0
C1012 C 0.23957 0.82099 0.99549 0.0
H1013 H 0.34005 0.76264 0.83352 0.0
H1014 H 0.31898 0.78208 0.88124 0.0
C1015 C 0.21885 0.83576 0.00595 0.0
C1016 C 0.25448 0.7814 0.96945 0.0
H1017 H 0.31455 0.75521 0.96512 0.0
C1018 C 0.24752 0.7782 0.93684 0.0
C1019 C 0.2788 0.77301 0.98 0.0
C1020 C 0.28677 0.77617 0.01493 0.0
C1021 C 0.26438 0.76706 0.91426 0.0
C1022 C 0.28888 0.75891 0.92458 0.0
C1023 C 0.29578 0.76166 0.95736 0.0
C1024 C 0.30702 0.74728 0.90101 0.0
C1025 C 0.25601 0.7643 0.87934 0.0
C1026 C 0.30798 0.72133 0.8971 0.0
C1027 C 0.31993 0.71027 0.8699 0.0
C1028 C 0.3311 0.72509 0.84654 0.0
C1029 C 0.33172 0.75094 0.85154 0.0
C1030 C 0.31977 0.762 0.87871 0.0
H1031 H 0.23518 0.76858 0.87611 0.0
H1032 H 0.26745 0.7772 0.86469 0.0
H1033 H 0.2597 0.74512 0.86974 0.0
H1034 H 0.29797 0.70972 0.91387 0.0
H1035 H 0.31907 0.69027 0.86617 0.0
loop_
_geom_bond_atom_site_label_1
_geom_bond_atom_site_label_2
_geom_bond_distance
_geom_bond_site_symmetry_2
_ccdc_geom_bond_type
Zn0 O6 1.920 . S
Zn0 O12 1.898 . S
Zn0 O15 1.905 . S
Zn1 O9 1.905 . S
Zn1 O10 1.898 . S
Zn1 O18 1.920 . S
Zn2 O5 2.080 . S
Zn2 O8 2.114 . S
Zn2 O11 2.100 1_554 S
Zn2 O13 2.120 . S
Zn2 O14 2.114 . S
Zn2 O17 2.080 . S
C3 O8 1.166 1_556 S
C3 O9 1.182 . S
C4 O10 1.167 . S
C4 O11 1.325 . S
O5 Zn2 2.080 . S
O5 C19 1.305 . S
O6 Zn0 1.920 . S
O6 C19 1.234 . S
C7 O12 1.167 . S
C7 O13 1.299 . S
O8 Zn2 2.114 . S
O8 C3 1.166 1_554 S
O9 Zn1 1.905 . S
O9 C3 1.182 . S
O10 Zn1 1.898 . S
O10 C4 1.167 . S
O11 Zn2 2.100 1_556 S
O11 C4 1.325 . S
O12 Zn0 1.898 . S
O12 C7 1.167 . S
O13 Zn2 2.120 . S
O13 C7 1.299 . S
O14 Zn2 2.114 . S
O14 C16 1.166 . S
O15 Zn0 1.905 . S
O15 C16 1.182 . S
C16 O14 1.166 . S
C16 O15 1.182 . S
O17 Zn2 2.080 . S
O17 C20 1.305 1_554 S
O18 Zn1 1.920 . S
O18 C20 1.234 . S
C19 O5 1.305 . S
C19 O6 1.234 . S
C20 O17 1.305 1_556 S
C20 O18 1.234 . S
Zn21 O27 1.920 . S
Zn21 O33 1.898 . S
Zn21 O36 1.905 . S
Zn22 O30 1.905 . S
Zn22 O31 1.898 . S
Zn22 O39 1.920 . S
Zn23 O26 2.080 . S
Zn23 O29 2.114 . S
Zn23 O32 2.120 . S
Zn23 O34 2.120 . S
Zn23 O35 2.114 . S
Zn23 O38 2.080 . S
C24 O29 1.166 . S
C24 O30 1.182 . S
C25 O31 1.167 . S
C25 O32 1.299 . S
O26 Zn23 2.080 . S
O26 C40 1.305 . S
O27 Zn21 1.920 . S
O27 C40 1.234 . S
C28 O33 1.167 . S
C28 O34 1.299 . S
O29 Zn23 2.114 . S
O29 C24 1.166 . S
O30 Zn22 1.905 . S
O30 C24 1.182 . S
O31 Zn22 1.898 . S
O31 C25 1.167 . S
O32 Zn23 2.120 . S
O32 C25 1.299 . S
O33 Zn21 1.898 . S
O33 C28 1.167 . S
O34 Zn23 2.120 . S
O34 C28 1.299 . S
O35 Zn23 2.114 . S
O35 C37 1.166 . S
O36 Zn21 1.905 . S
O36 C37 1.182 . S
C37 O35 1.166 . S
C37 O36 1.182 . S
O38 Zn23 2.080 . S
O38 C41 1.305 . S
O39 Zn22 1.920 . S
O39 C41 1.234 . S
C40 O26 1.305 . S
C40 O27 1.234 . S
C41 O38 1.305 . S
C41 O39 1.234 . S
Zn42 O48 1.920 . S
Zn42 O54 1.898 . S
Zn42 O57 1.905 . S
Zn43 O51 1.905 . S
Zn43 O52 1.898 . S
Zn43 O60 1.920 . S
Zn44 O47 2.079 1_554 S
Zn44 O50 2.115 . S
Zn44 O53 2.121 . S
Zn44 O55 2.119 1_554 S
Zn44 O56 2.113 1_554 S
Zn44 O59 2.082 . S
C45 O50 1.166 . S
C45 O51 1.182 . S
C46 O52 1.167 . S
C46 O53 1.299 . S
O47 Zn44 2.079 1_556 S
O47 C61 1.305 . S
O48 Zn42 1.920 . S
O48 C61 1.234 . S
C49 O54 1.167 . S
C49 O55 1.299 . S
O50 Zn44 2.115 . S
O50 C45 1.166 . S
O51 Zn43 1.905 . S
O51 C45 1.182 . S
O52 Zn43 1.898 . S
O52 C46 1.167 . S
O53 Zn44 2.121 . S
O53 C46 1.299 . S
O54 Zn42 1.898 . S
O54 C49 1.167 . S
O55 Zn44 2.119 1_556 S
O55 C49 1.299 . S
O56 Zn44 2.113 1_556 S
O56 C58 1.166 . S
O57 Zn42 1.905 . S
O57 C58 1.182 . S
C58 O56 1.166 . S
C58 O57 1.182 . S
O59 Zn44 2.082 . S
O59 C62 1.305 . S
O60 Zn43 1.920 . S
O60 C62 1.234 . S
C61 O47 1.305 . S
C61 O48 1.234 . S
C62 O59 1.305 . S
C62 O60 1.234 . S
Zn63 O69 1.920 . S
Zn63 O75 1.898 . S
Zn63 O78 1.905 . S
Zn64 O72 1.905 . S
Zn64 O73 1.898 . S
Zn64 O81 1.920 . S
Zn65 O68 2.080 . S
Zn65 O71 2.114 . S
Zn65 O74 2.120 . S
Zn65 O76 2.120 . S
Zn65 O77 2.114 . S
Zn65 O80 2.080 . S
C66 O71 1.166 . S
C66 O72 1.182 . S
C67 O73 1.167 . S
C67 O74 1.299 . S
O68 Zn65 2.080 . S
O68 C82 1.305 . S
O69 Zn63 1.920 . S
O69 C82 1.234 . S
C70 O75 1.167 . S
C70 O76 1.299 . S
O71 Zn65 2.114 . S
O71 C66 1.166 . S
O72 Zn64 1.905 . S
O72 C66 1.182 . S
O73 Zn64 1.898 . S
O73 C67 1.167 . S
O74 Zn65 2.120 . S
O74 C67 1.299 . S
O75 Zn63 1.898 . S
O75 C70 1.167 . S
O76 Zn65 2.120 . S
O76 C70 1.299 . S
O77 Zn65 2.114 . S
O77 C79 1.166 . S
O78 Zn63 1.905 . S
O78 C79 1.182 . S
C79 O77 1.166 . S
C79 O78 1.182 . S
O80 Zn65 2.080 . S
O80 C83 1.305 . S
O81 Zn64 1.920 . S
O81 C83 1.234 . S
C82 O68 1.305 . S
C82 O69 1.234 . S
C83 O80 1.305 . S
C83 O81 1.234 . S
H84 C87 0.929 . S
H85 C90 0.929 . S
H86 C92 0.930 . S
C87 H84 0.929 . S
C87 C88 1.398 . S
C87 C89 1.396 . S
C88 C87 1.398 . S
C88 C92 1.407 . S
C89 C87 1.396 . S
C89 C90 1.394 . S
C90 H85 0.929 . S
C90 C89 1.394 . S
C90 C91 1.382 . S
C91 C90 1.382 . S
C91 C92 1.392 . S
C91 N93 1.420 . S
C92 H86 0.930 . S
C92 C88 1.407 . S
C92 C91 1.392 . S
N93 C91 1.420 . S
N93 C94 1.244 . S
C94 N93 1.244 . S
H95 C98 0.929 . S
H96 C101 0.929 . S
H97 C103 0.930 . S
C98 H95 0.929 . S
C98 C99 1.398 . S
C98 C100 1.396 . S
C99 C98 1.398 . S
C99 C103 1.407 . S
C100 C98 1.396 . S
C100 C101 1.394 . S
C101 H96 0.929 . S
C101 C100 1.394 . S
C101 C102 1.382 . S
C102 C101 1.382 . S
C102 C103 1.392 . S
C102 N104 1.420 . S
C103 H97 0.930 . S
C103 C99 1.407 . S
C103 C102 1.392 . S
N104 C102 1.420 . S
N104 C105 1.244 . S
C105 N104 1.244 . S
H106 C109 0.929 . S
H107 C112 0.929 . S
H108 C114 0.930 . S
C109 H106 0.929 . S
C109 C110 1.398 . S
C109 C111 1.396 . S
C110 C109 1.398 . S
C110 C114 1.407 . S
C111 C109 1.396 . S
C111 C112 1.394 . S
C112 H107 0.929 . S
C112 C111 1.394 . S
C112 C113 1.382 . S
C113 C112 1.382 . S
C113 C114 1.392 . S
C113 N115 1.420 . S
C114 H108 0.930 . S
C114 C110 1.407 . S
C114 C113 1.392 . S
N115 C113 1.420 . S
N115 C116 1.244 . S
C116 N115 1.244 . S
H117 C120 0.929 . S
H118 C123 0.929 . S
H119 C125 0.930 . S
C120 H117 0.929 . S
C120 C121 1.398 . S
C120 C122 1.396 . S
C121 C120 1.398 . S
C121 C125 1.407 . S
C122 C120 1.396 . S
C122 C123 1.394 . S
C123 H118 0.929 . S
C123 C122 1.394 . S
C123 C124 1.382 . S
C124 C123 1.382 . S
C124 C125 1.392 . S
C124 N126 1.420 . S
C125 H119 0.930 . S
C125 C121 1.407 . S
C125 C124 1.392 . S
N126 C124 1.420 . S
N126 C127 1.244 . S
C127 N126 1.244 . S
H128 C131 0.929 . S
H129 C134 0.929 . S
H130 C136 0.930 . S
C131 H128 0.929 . S
C131 C132 1.398 . S
C131 C133 1.396 . S
C132 C131 1.398 . S
C132 C136 1.407 . S
C133 C131 1.396 . S
C133 C134 1.394 . S
C134 H129 0.929 . S
C134 C133 1.394 . S
C134 C135 1.382 . S
C135 C134 1.382 . S
C135 C136 1.392 . S
C135 N137 1.420 . S
C136 H130 0.930 . S
C136 C132 1.407 . S
C136 C135 1.392 . S
N137 C135 1.420 . S
N137 C138 1.244 . S
C138 N137 1.244 . S
H139 C142 0.929 . S
H140 C145 0.929 . S
H141 C147 0.930 . S
C142 H139 0.929 . S
C142 C143 1.398 . S
C142 C144 1.396 . S
C143 C142 1.398 . S
C143 C147 1.407 . S
C144 C142 1.396 . S
C144 C145 1.394 . S
C145 H140 0.929 . S
C145 C144 1.394 . S
C145 C146 1.382 . S
C146 C145 1.382 . S
C146 C147 1.392 . S
C146 N148 1.420 . S
C147 H141 0.930 . S
C147 C143 1.407 . S
C147 C146 1.392 . S
N148 C146 1.420 . S
N148 C149 1.244 . S
C149 N148 1.244 . S
H150 C153 0.929 . S
H151 C156 0.929 . S
H152 C158 0.930 . S
C153 H150 0.929 . S
C153 C154 1.398 . S
C153 C155 1.396 . S
C154 C153 1.398 . S
C154 C158 1.407 . S
C155 C153 1.396 . S
C155 C156 1.394 . S
C156 H151 0.929 . S
C156 C155 1.394 . S
C156 C157 1.382 . S
C157 C156 1.382 . S
C157 C158 1.392 . S
C157 N159 1.420 . S
C158 H152 0.930 . S
C158 C154 1.407 . S
C158 C157 1.392 . S
N159 C157 1.420 . S
N159 C160 1.244 . S
C160 N159 1.244 . S
H161 C164 0.929 . S
H162 C167 0.929 . S
H163 C169 0.930 . S
C164 H161 0.929 . S
C164 C165 1.398 . S
C164 C166 1.396 . S
C165 C164 1.398 . S
C165 C169 1.407 . S
C166 C164 1.396 . S
C166 C167 1.394 . S
C167 H162 0.929 . S
C167 C166 1.394 . S
C167 C168 1.382 . S
C168 C167 1.382 . S
C168 C169 1.392 . S
C168 N170 1.420 . S
C169 H163 0.930 . S
C169 C165 1.407 . S
C169 C168 1.392 . S
N170 C168 1.420 . S
N170 C171 1.244 . S
C171 N170 1.244 . S
H172 C180 0.929 . S
H173 C182 0.930 . S
H174 C184 0.930 . S
H175 C187 0.929 . S
H176 C190 0.930 . S
H177 C192 0.960 . S
H178 C192 0.960 . S
H179 C192 0.960 . S
C180 H172 0.929 . S
C180 C181 1.377 . S
C180 C182 1.384 . S
C181 C180 1.377 . S
C181 C187 1.390 . S
C182 H173 0.930 . S
C182 C180 1.384 . S
C182 C183 1.372 . S
C183 C182 1.372 . S
C183 C184 1.400 . S
C183 C188 1.490 . S
C184 H174 0.930 . S
C184 C183 1.400 . S
C184 C187 1.386 . S
H185 C201 0.930 . S
H186 C202 0.931 . S
C187 H175 0.929 . S
C187 C181 1.390 . S
C187 C184 1.386 . S
C188 C183 1.490 . S
C188 C190 1.395 . S
C188 C191 1.403 . S
H189 C195 0.931 . S
C190 H176 0.930 . S
C190 C188 1.395 . S
C190 C193 1.403 1_565 S
C191 C188 1.403 . S
C191 C192 1.524 . S
C191 C195 1.434 . S
C192 H177 0.960 . S
C192 H178 0.960 . S
C192 H179 0.960 . S
C192 C191 1.524 . S
C193 C190 1.403 1_545 S
C193 C194 1.392 . S
C193 C197 1.495 . S
C194 C193 1.392 . S
C194 C195 1.351 1_545 S
C194 C196 1.478 . S
C195 H189 0.931 . S
C195 C191 1.434 . S
C195 C194 1.351 1_565 S
C196 C194 1.478 . S
C196 C198 1.381 . S
C196 C202 1.383 . S
C197 C193 1.495 . S
C197 H203 0.959 . S
C197 H204 0.961 . S
C197 H205 0.960 . S
C198 C196 1.381 . S
C198 C199 1.394 . S
C198 H206 0.930 . S
C199 C198 1.394 . S
C199 C200 1.383 . S
C199 H207 0.929 . S
C200 C199 1.383 . S
C200 C201 1.377 . S
C201 H185 0.930 . S
C201 C200 1.377 . S
C201 C202 1.379 . S
C202 H186 0.931 . S
C202 C196 1.383 . S
C202 C201 1.379 . S
H203 C197 0.959 . S
H204 C197 0.961 . S
H205 C197 0.960 . S
H206 C198 0.930 . S
H207 C199 0.929 . S
H208 C216 0.929 . S
H209 C218 0.930 . S
H210 C220 0.930 . S
H211 C223 0.929 . S
H212 C226 0.930 . S
H213 C228 0.960 . S
H214 C228 0.960 . S
H215 C228 0.960 . S
C216 H208 0.929 . S
C216 C217 1.377 . S
C216 C218 1.384 . S
C217 C216 1.377 . S
C217 C223 1.390 . S
C218 H209 0.930 . S
C218 C216 1.384 . S
C218 C219 1.372 . S
C219 C218 1.372 . S
C219 C220 1.400 . S
C219 C224 1.490 . S
C220 H210 0.930 . S
C220 C219 1.400 . S
C220 C223 1.386 . S
H221 C237 0.930 . S
H222 C238 0.931 . S
C223 H211 0.929 . S
C223 C217 1.390 . S
C223 C220 1.386 . S
C224 C219 1.490 . S
C224 C226 1.395 . S
C224 C227 1.403 . S
H225 C231 0.930 . S
C226 H212 0.930 . S
C226 C224 1.395 . S
C226 C229 1.403 . S
C227 C224 1.403 . S
C227 C228 1.524 . S
C227 C231 1.400 . S
C228 H213 0.960 . S
C228 H214 0.960 . S
C228 H215 0.960 . S
C228 C227 1.524 . S
C229 C226 1.403 . S
C229 C230 1.392 . S
C229 C233 1.495 . S
C230 C229 1.392 . S
C230 C231 1.385 . S
C230 C232 1.478 . S
C231 H225 0.930 . S
C231 C227 1.400 . S
C231 C230 1.385 . S
C232 C230 1.478 . S
C232 C234 1.381 . S
C232 C238 1.383 . S
C233 C229 1.495 . S
C233 H239 0.959 . S
C233 H240 0.961 . S
C233 H241 0.960 . S
C234 C232 1.381 . S
C234 C235 1.394 . S
C234 H242 0.930 . S
C235 C234 1.394 . S
C235 C236 1.383 . S
C235 H243 0.929 . S
C236 C235 1.383 . S
C236 C237 1.377 . S
C237 H221 0.930 . S
C237 C236 1.377 . S
C237 C238 1.379 . S
C238 H222 0.931 . S
C238 C232 1.383 . S
C238 C237 1.379 . S
H239 C233 0.959 . S
H240 C233 0.961 . S
H241 C233 0.960 . S
H242 C234 0.930 . S
H243 C235 0.929 . S
H244 C252 0.929 . S
H245 C254 0.930 . S
H246 C256 0.930 . S
H247 C259 0.929 . S
H248 C262 0.930 . S
H249 C264 0.960 . S
H250 C264 0.960 . S
H251 C264 0.960 . S
C252 H244 0.929 . S
C252 C253 1.377 . S
C252 C254 1.384 . S
C253 C252 1.377 . S
C253 C259 1.390 . S
C254 H245 0.930 . S
C254 C252 1.384 . S
C254 C255 1.372 . S
C255 C254 1.372 . S
C255 C256 1.400 . S
C255 C260 1.490 . S
C256 H246 0.930 . S
C256 C255 1.400 . S
C256 C259 1.386 . S
H257 C273 0.930 . S
H258 C274 0.931 . S
C259 H247 0.929 . S
C259 C253 1.390 . S
C259 C256 1.386 . S
C260 C255 1.490 . S
C260 C262 1.395 1_545 S
C260 C263 1.403 . S
H261 C267 0.930 . S
C262 H248 0.930 . S
C262 C260 1.395 1_565 S
C262 C265 1.403 . S
C263 C260 1.403 . S
C263 C264 1.524 . S
C263 C267 1.400 . S
C264 H249 0.960 . S
C264 H250 0.960 . S
C264 H251 0.960 . S
C264 C263 1.524 . S
C265 C262 1.403 . S
C265 C266 1.392 . S
C265 C269 1.495 . S
C266 C265 1.392 . S
C266 C267 1.385 1_565 S
C266 C268 1.478 . S
C267 H261 0.930 . S
C267 C263 1.400 . S
C267 C266 1.385 1_545 S
C268 C266 1.478 . S
C268 C270 1.381 . S
C268 C274 1.383 . S
C269 C265 1.495 . S
C269 H275 0.959 . S
C269 H276 0.961 . S
C269 H277 0.960 . S
C270 C268 1.381 . S
C270 C271 1.394 . S
C270 H278 0.930 . S
C271 C270 1.394 . S
C271 C272 1.383 . S
C271 H279 0.929 . S
C272 C271 1.383 . S
C272 C273 1.377 . S
C273 H257 0.930 . S
C273 C272 1.377 . S
C273 C274 1.379 . S
C274 H258 0.931 . S
C274 C268 1.383 . S
C274 C273 1.379 . S
H275 C269 0.959 . S
H276 C269 0.961 . S
H277 C269 0.960 . S
H278 C270 0.930 . S
H279 C271 0.929 . S
H280 C288 0.929 . S
H281 C290 0.930 . S
H282 C292 0.930 . S
H283 C295 0.929 . S
H284 C298 0.930 . S
H285 C300 0.960 . S
H286 C300 0.960 . S
H287 C300 0.960 . S
C288 H280 0.929 . S
C288 C289 1.377 . S
C288 C290 1.384 . S
C289 C288 1.377 . S
C289 C295 1.390 . S
C290 H281 0.930 . S
C290 C288 1.384 . S
C290 C291 1.372 . S
C291 C290 1.372 . S
C291 C292 1.400 . S
C291 C296 1.490 . S
C292 H282 0.930 . S
C292 C291 1.400 . S
C292 C295 1.386 . S
H293 C309 0.930 . S
H294 C310 0.931 . S
C295 H283 0.929 . S
C295 C289 1.390 . S
C295 C292 1.386 . S
C296 C291 1.490 . S
C296 C298 1.395 . S
C296 C299 1.403 . S
H297 C303 0.930 . S
C298 H284 0.930 . S
C298 C296 1.395 . S
C298 C301 1.403 . S
C299 C296 1.403 . S
C299 C300 1.524 . S
C299 C303 1.400 . S
C300 H285 0.960 . S
C300 H286 0.960 . S
C300 H287 0.960 . S
C300 C299 1.524 . S
C301 C298 1.403 . S
C301 C302 1.392 . S
C301 C305 1.495 . S
C302 C301 1.392 . S
C302 C303 1.385 . S
C302 C304 1.478 . S
C303 H297 0.930 . S
C303 C299 1.400 . S
C303 C302 1.385 . S
C304 C302 1.478 . S
C304 C306 1.381 . S
C304 C310 1.383 . S
C305 C301 1.495 . S
C305 H311 0.959 . S
C305 H312 0.961 . S
C305 H313 0.960 . S
C306 C304 1.381 . S
C306 C307 1.394 . S
C306 H314 0.930 . S
C307 C306 1.394 . S
C307 C308 1.383 . S
C307 H315 0.929 . S
C308 C307 1.383 . S
C308 C309 1.377 . S
C309 H293 0.930 . S
C309 C308 1.377 . S
C309 C310 1.379 . S
C310 H294 0.931 . S
C310 C304 1.383 . S
C310 C309 1.379 . S
H311 C305 0.959 . S
H312 C305 0.961 . S
H313 C305 0.960 . S
H314 C306 0.930 . S
H315 C307 0.929 . S
H316 C324 0.929 . S
H317 C326 0.930 . S
H318 C328 0.930 . S
H319 C331 0.929 . S
H320 C334 0.930 . S
H321 C336 0.960 . S
H322 C336 0.960 . S
H323 C336 0.960 . S
C324 H316 0.929 . S
C324 C325 1.377 . S
C324 C326 1.384 . S
C325 C324 1.377 . S
C325 C331 1.390 . S
C326 H317 0.930 . S
C326 C324 1.384 . S
C326 C327 1.372 . S
C327 C326 1.372 . S
C327 C328 1.400 . S
C327 C332 1.490 . S
C328 H318 0.930 . S
C328 C327 1.400 . S
C328 C331 1.386 . S
H329 C345 0.930 . S
H330 C346 0.931 . S
C331 H319 0.929 . S
C331 C325 1.390 . S
C331 C328 1.386 . S
C332 C327 1.490 . S
C332 C334 1.395 . S
C332 C335 1.403 . S
H333 C339 0.930 . S
C334 H320 0.930 . S
C334 C332 1.395 . S
C334 C337 1.403 . S
C335 C332 1.403 . S
C335 C336 1.524 . S
C335 C339 1.400 . S
C336 H321 0.960 . S
C336 H322 0.960 . S
C336 H323 0.960 . S
C336 C335 1.524 . S
C337 C334 1.403 . S
C337 C338 1.392 . S
C337 C341 1.495 . S
C338 C337 1.392 . S
C338 C339 1.385 . S
C338 C340 1.478 . S
C339 H333 0.930 . S
C339 C335 1.400 . S
C339 C338 1.385 . S
C340 C338 1.478 . S
C340 C342 1.381 . S
C340 C346 1.383 . S
C341 C337 1.495 . S
C341 H347 0.959 . S
C341 H348 0.961 . S
C341 H349 0.960 . S
C342 C340 1.381 . S
C342 C343 1.394 . S
C342 H350 0.930 . S
C343 C342 1.394 . S
C343 C344 1.383 . S
C343 H351 0.929 . S
C344 C343 1.383 . S
C344 C345 1.377 . S
C345 H329 0.930 . S
C345 C344 1.377 . S
C345 C346 1.379 . S
C346 H330 0.931 . S
C346 C340 1.383 . S
C346 C345 1.379 . S
H347 C341 0.959 . S
H348 C341 0.961 . S
H349 C341 0.960 . S
H350 C342 0.930 . S
H351 C343 0.929 . S
H352 C360 0.929 . S
H353 C362 0.930 . S
H354 C364 0.930 . S
H355 C367 0.929 . S
H356 C370 0.930 1_655 S
H357 C372 0.960 . S
H358 C372 0.960 . S
H359 C372 0.960 1_655 S
C360 H352 0.929 . S
C360 C361 1.377 . S
C360 C362 1.384 . S
C361 C360 1.377 . S
C361 C367 1.390 . S
C362 H353 0.930 . S
C362 C360 1.384 . S
C362 C363 1.372 . S
C363 C362 1.372 . S
C363 C364 1.400 . S
C363 C368 1.490 1_655 S
C364 H354 0.930 . S
C364 C363 1.400 . S
C364 C367 1.386 . S
H365 C381 0.930 . S
H366 C382 0.931 . S
C367 H355 0.929 . S
C367 C361 1.390 . S
C367 C364 1.386 . S
C368 C363 1.490 1_455 S
C368 C370 1.395 . S
C368 C371 1.403 . S
H369 C375 0.930 . S
C370 H356 0.930 1_455 S
C370 C368 1.395 . S
C370 C373 1.403 . S
C371 C368 1.403 . S
C371 C372 1.524 . S
C371 C375 1.400 . S
C372 H357 0.960 . S
C372 H358 0.960 . S
C372 H359 0.960 1_455 S
C372 C371 1.524 . S
C373 C370 1.403 . S
C373 C374 1.392 . S
C373 C377 1.495 . S
C374 C373 1.392 . S
C374 C375 1.385 . S
C374 C376 1.478 . S
C375 H369 0.930 . S
C375 C371 1.400 . S
C375 C374 1.385 . S
C376 C374 1.478 . S
C376 C378 1.381 . S
C376 C382 1.383 . S
C377 C373 1.495 . S
C377 H383 0.959 . S
C377 H384 0.961 . S
C377 H385 0.960 . S
C378 C376 1.381 . S
C378 C379 1.394 . S
C378 H386 0.930 . S
C379 C378 1.394 . S
C379 C380 1.383 . S
C379 H387 0.929 . S
C380 C379 1.383 . S
C380 C381 1.377 . S
C381 H365 0.930 . S
C381 C380 1.377 . S
C381 C382 1.379 . S
C382 H366 0.931 . S
C382 C376 1.383 . S
C382 C381 1.379 . S
H383 C377 0.959 . S
H384 C377 0.961 . S
H385 C377 0.960 . S
H386 C378 0.930 . S
H387 C379 0.929 . S
H388 C396 0.929 . S
H389 C398 0.930 . S
H390 C400 0.930 . S
H391 C403 0.929 . S
H392 C406 0.930 . S
H393 C408 0.960 . S
H394 C408 0.960 . S
H395 C408 0.960 . S
C396 H388 0.929 . S
C396 C397 1.377 . S
C396 C398 1.384 . S
C397 C396 1.377 . S
C397 C403 1.390 . S
C398 H389 0.930 . S
C398 C396 1.384 . S
C398 C399 1.372 . S
C399 C398 1.372 . S
C399 C400 1.400 . S
C399 C404 1.490 . S
C400 H390 0.930 . S
C400 C399 1.400 . S
C400 C403 1.386 . S
H401 C417 0.930 . S
H402 C418 0.931 . S
C403 H391 0.929 . S
C403 C397 1.390 . S
C403 C400 1.386 . S
C404 C399 1.490 . S
C404 C406 1.395 . S
C404 C407 1.403 . S
H405 C411 0.930 . S
C406 H392 0.930 . S
C406 C404 1.395 . S
C406 C409 1.403 . S
C407 C404 1.403 . S
C407 C408 1.524 . S
C407 C411 1.400 . S
C408 H393 0.960 . S
C408 H394 0.960 . S
C408 H395 0.960 . S
C408 C407 1.524 . S
C409 C406 1.403 . S
C409 C410 1.392 . S
C409 C413 1.495 . S
C410 C409 1.392 . S
C410 C411 1.385 . S
C410 C412 1.478 . S
C411 H405 0.930 . S
C411 C407 1.400 . S
C411 C410 1.385 . S
C412 C410 1.478 . S
C412 C414 1.381 . S
C412 C418 1.383 . S
C413 C409 1.495 . S
C413 H419 0.959 . S
C413 H420 0.961 . S
C413 H421 0.960 . S
C414 C412 1.381 . S
C414 C415 1.394 . S
C414 H422 0.930 . S
C415 C414 1.394 . S
C415 C416 1.383 . S
C415 H423 0.929 . S
C416 C415 1.383 . S
C416 C417 1.377 . S
C417 H401 0.930 . S
C417 C416 1.377 . S
C417 C418 1.379 . S
C418 H402 0.931 . S
C418 C412 1.383 . S
C418 C417 1.379 . S
H419 C413 0.959 . S
H420 C413 0.961 . S
H421 C413 0.960 . S
H422 C414 0.930 . S
H423 C415 0.929 . S
H424 C432 0.929 . S
H425 C434 0.930 . S
H426 C436 0.930 . S
H427 C439 0.929 . S
H428 C442 0.930 . S
H429 C444 0.960 . S
H430 C444 0.960 . S
H431 C444 0.960 . S
C432 H424 0.929 . S
C432 C433 1.377 . S
C432 C434 1.384 . S
C433 C432 1.377 . S
C433 C439 1.390 . S
C434 H425 0.930 . S
C434 C432 1.384 . S
C434 C435 1.372 . S
C435 C434 1.372 . S
C435 C436 1.400 . S
C435 C440 1.490 . S
C436 H426 0.930 . S
C436 C435 1.400 . S
C436 C439 1.386 . S
H437 C453 0.930 . S
H438 C454 0.931 . S
C439 H427 0.929 . S
C439 C433 1.390 . S
C439 C436 1.386 . S
C440 C435 1.490 . S
C440 C442 1.395 . S
C440 C443 1.403 . S
H441 C447 0.930 . S
C442 H428 0.930 . S
C442 C440 1.395 . S
C442 C445 1.403 1_455 S
C443 C440 1.403 . S
C443 C444 1.524 . S
C443 C447 1.400 . S
C444 H429 0.960 . S
C444 H430 0.960 . S
C444 H431 0.960 . S
C444 C443 1.524 . S
C445 C442 1.403 1_655 S
C445 C446 1.392 . S
C445 C449 1.495 . S
C446 C445 1.392 . S
C446 C447 1.385 1_655 S
C446 C448 1.478 . S
C447 H441 0.930 . S
C447 C443 1.400 . S
C447 C446 1.385 1_455 S
C448 C446 1.478 . S
C448 C450 1.381 . S
C448 C454 1.383 . S
C449 C445 1.495 . S
C449 H455 0.959 . S
C449 H456 0.961 . S
C449 H457 0.960 . S
C450 C448 1.381 . S
C450 C451 1.394 . S
C450 H458 0.930 . S
C451 C450 1.394 . S
C451 C452 1.383 . S
C451 H459 0.929 . S
C452 C451 1.383 . S
C452 C453 1.377 . S
C453 H437 0.930 . S
C453 C452 1.377 . S
C453 C454 1.379 . S
C454 H438 0.931 . S
C454 C448 1.383 . S
C454 C453 1.379 . S
H455 C449 0.959 . S
H456 C449 0.961 . S
H457 C449 0.960 . S
H458 C450 0.930 . S
H459 C451 0.929 . S
H460 C468 0.929 . S
H461 C470 0.930 . S
H462 C472 0.930 . S
H463 C475 0.929 . S
H464 C478 0.930 . S
H465 C480 0.960 . S
H466 C480 0.960 . S
H467 C480 0.960 . S
C468 H460 0.929 . S
C468 C469 1.377 . S
C468 C470 1.384 . S
C469 C468 1.377 . S
C469 C475 1.390 . S
C470 H461 0.930 . S
C470 C468 1.384 . S
C470 C471 1.372 . S
C471 C470 1.372 . S
C471 C472 1.400 . S
C471 C476 1.490 1_545 S
C472 H462 0.930 . S
C472 C471 1.400 . S
C472 C475 1.386 . S
H473 C489 0.930 . S
H474 C490 0.931 . S
C475 H463 0.929 . S
C475 C469 1.390 . S
C475 C472 1.386 . S
C476 C471 1.490 1_565 S
C476 C478 1.395 . S
C476 C479 1.403 . S
H477 C483 0.930 . S
C478 H464 0.930 . S
C478 C476 1.395 . S
C478 C481 1.403 . S
C479 C476 1.403 . S
C479 C480 1.524 1_565 S
C479 C483 1.400 . S
C480 H465 0.960 . S
C480 H466 0.960 . S
C480 H467 0.960 . S
C480 C479 1.524 1_545 S
C481 C478 1.403 . S
C481 C482 1.392 . S
C481 C485 1.495 . S
C482 C481 1.392 . S
C482 C483 1.385 . S
C482 C484 1.478 . S
C483 H477 0.930 . S
C483 C479 1.400 . S
C483 C482 1.385 . S
C484 C482 1.478 . S
C484 C486 1.381 . S
C484 C490 1.383 . S
C485 C481 1.495 . S
C485 H491 0.959 . S
C485 H492 0.961 . S
C485 H493 0.960 . S
C486 C484 1.381 . S
C486 C487 1.394 . S
C486 H494 0.930 . S
C487 C486 1.394 . S
C487 C488 1.383 . S
C487 H495 0.929 . S
C488 C487 1.383 . S
C488 C489 1.377 . S
C489 H473 0.930 . S
C489 C488 1.377 . S
C489 C490 1.379 . S
C490 H474 0.931 . S
C490 C484 1.383 . S
C490 C489 1.379 . S
H491 C485 0.959 . S
H492 C485 0.961 . S
H493 C485 0.960 . S
H494 C486 0.930 . S
H495 C487 0.929 . S
H496 C504 0.929 . S
H497 C506 0.930 . S
H498 C508 0.930 . S
H499 C511 0.929 . S
H500 C514 0.930 . S
H501 C516 0.960 . S
H502 C516 0.960 . S
H503 C516 0.960 . S
C504 H496 0.929 . S
C504 C505 1.377 . S
C504 C506 1.384 . S
C505 C504 1.377 . S
C505 C511 1.390 . S
C506 H497 0.930 . S
C506 C504 1.384 . S
C506 C507 1.372 . S
C507 C506 1.372 . S
C507 C508 1.400 . S
C507 C512 1.490 . S
C508 H498 0.930 . S
C508 C507 1.400 . S
C508 C511 1.386 . S
H509 C525 0.930 . S
H510 C526 0.931 . S
C511 H499 0.929 . S
C511 C505 1.390 . S
C511 C508 1.386 . S
C512 C507 1.490 . S
C512 C514 1.395 . S
C512 C515 1.403 . S
H513 C519 0.930 . S
C514 H500 0.930 . S
C514 C512 1.395 . S
C514 C517 1.403 . S
C515 C512 1.403 . S
C515 C516 1.524 . S
C515 C519 1.400 . S
C516 H501 0.960 . S
C516 H502 0.960 . S
C516 H503 0.960 . S
C516 C515 1.524 . S
C517 C514 1.403 . S
C517 C518 1.392 . S
C517 C521 1.495 . S
C518 C517 1.392 . S
C518 C519 1.385 . S
C518 C520 1.478 . S
C519 H513 0.930 . S
C519 C515 1.400 . S
C519 C518 1.385 . S
C520 C518 1.478 . S
C520 C522 1.381 . S
C520 C526 1.383 . S
C521 C517 1.495 . S
C521 H527 0.959 . S
C521 H528 0.961 . S
C521 H529 0.960 . S
C522 C520 1.381 . S
C522 C523 1.394 . S
C522 H530 0.930 . S
C523 C522 1.394 . S
C523 C524 1.383 . S
C523 H531 0.929 . S
C524 C523 1.383 . S
C524 C525 1.377 . S
C525 H509 0.930 . S
C525 C524 1.377 . S
C525 C526 1.379 . S
C526 H510 0.931 . S
C526 C520 1.383 . S
C526 C525 1.379 . S
H527 C521 0.959 . S
H528 C521 0.961 . S
H529 C521 0.960 . S
H530 C522 0.930 . S
H531 C523 0.929 . S
H532 C540 0.929 1_554 S
H533 C542 0.930 . S
H534 C544 0.930 . S
H535 C547 0.929 . S
H536 C550 0.930 . S
H537 C552 0.960 . S
H538 C552 0.960 . S
H539 C552 0.960 . S
C540 H532 0.929 1_556 S
C540 C541 1.377 . S
C540 C542 1.384 . S
C541 C540 1.377 . S
C541 C547 1.390 . S
C542 H533 0.930 . S
C542 C540 1.384 . S
C542 C543 1.372 . S
C543 C542 1.372 . S
C543 C544 1.400 . S
C543 C548 1.490 1_565 S
C544 H534 0.930 . S
C544 C543 1.400 . S
C544 C547 1.386 . S
H545 C561 0.930 . S
H546 C562 0.931 . S
C547 H535 0.929 . S
C547 C541 1.390 . S
C547 C544 1.386 . S
C548 C543 1.490 1_545 S
C548 C550 1.395 . S
C548 C551 1.403 . S
H549 C555 0.930 . S
C550 H536 0.930 . S
C550 C548 1.395 . S
C550 C553 1.403 . S
C551 C548 1.403 . S
C551 C552 1.524 . S
C551 C555 1.400 . S
C552 H537 0.960 . S
C552 H538 0.960 . S
C552 H539 0.960 . S
C552 C551 1.524 . S
C553 C550 1.403 . S
C553 C554 1.392 . S
C553 C557 1.495 . S
C554 C553 1.392 . S
C554 C555 1.385 . S
C554 C556 1.478 . S
C555 H549 0.930 . S
C555 C551 1.400 . S
C555 C554 1.385 . S
C556 C554 1.478 . S
C556 C558 1.381 . S
C556 C562 1.383 . S
C557 C553 1.495 . S
C557 H563 0.959 . S
C557 H564 0.961 . S
C557 H565 0.960 . S
C558 C556 1.381 . S
C558 C559 1.394 . S
C558 H566 0.930 . S
C559 C558 1.394 . S
C559 C560 1.383 . S
C559 H567 0.929 . S
C560 C559 1.383 . S
C560 C561 1.377 . S
C561 H545 0.930 . S
C561 C560 1.377 . S
C561 C562 1.379 . S
C562 H546 0.931 . S
C562 C556 1.383 . S
C562 C561 1.379 . S
H563 C557 0.959 . S
H564 C557 0.961 . S
H565 C557 0.960 . S
H566 C558 0.930 . S
H567 C559 0.929 . S
H568 C576 0.929 . S
H569 C578 0.930 . S
H570 C580 0.930 . S
H571 C583 0.929 . S
H572 C586 0.930 . S
H573 C588 0.960 . S
H574 C588 0.960 . S
H575 C588 0.960 . S
C576 H568 0.929 . S
C576 C577 1.377 . S
C576 C578 1.384 . S
C577 C576 1.377 . S
C577 C583 1.390 . S
C578 H569 0.930 . S
C578 C576 1.384 . S
C578 C579 1.372 . S
C579 C578 1.372 . S
C579 C580 1.400 . S
C579 C584 1.490 . S
C580 H570 0.930 . S
C580 C579 1.400 . S
C580 C583 1.386 . S
H581 C597 0.930 . S
H582 C598 0.931 . S
C583 H571 0.929 . S
C583 C577 1.390 . S
C583 C580 1.386 . S
C584 C579 1.490 . S
C584 C586 1.395 . S
C584 C587 1.403 . S
H585 C591 0.930 . S
C586 H572 0.930 . S
C586 C584 1.395 . S
C586 C589 1.403 . S
C587 C584 1.403 . S
C587 C588 1.524 . S
C587 C591 1.400 . S
C588 H573 0.960 . S
C588 H574 0.960 . S
C588 H575 0.960 . S
C588 C587 1.524 . S
C589 C586 1.403 . S
C589 C590 1.392 . S
C589 C593 1.495 . S
C590 C589 1.392 . S
C590 C591 1.385 . S
C590 C592 1.478 . S
C591 H585 0.930 . S
C591 C587 1.400 . S
C591 C590 1.385 . S
C592 C590 1.478 . S
C592 C594 1.381 . S
C592 C598 1.383 . S
C593 C589 1.495 . S
C593 H599 0.959 . S
C593 H600 0.961 . S
C593 H601 0.960 . S
C594 C592 1.381 . S
C594 C595 1.394 . S
C594 H602 0.930 . S
C595 C594 1.394 . S
C595 C596 1.383 . S
C595 H603 0.929 . S
C596 C595 1.383 . S
C596 C597 1.377 . S
C597 H581 0.930 . S
C597 C596 1.377 . S
C597 C598 1.379 . S
C598 H582 0.931 . S
C598 C592 1.383 . S
C598 C597 1.379 . S
H599 C593 0.959 . S
H600 C593 0.961 . S
H601 C593 0.960 . S
H602 C594 0.930 . S
H603 C595 0.929 . S
H604 C612 0.929 . S
H605 C614 0.930 . S
H606 C616 0.930 . S
H607 C619 0.929 . S
H608 C622 0.930 . S
H609 C624 0.960 . S
H610 C624 0.960 . S
H611 C624 0.960 . S
C612 H604 0.929 . S
C612 C613 1.377 . S
C612 C614 1.384 . S
C613 C612 1.377 . S
C613 C619 1.390 . S
C614 H605 0.930 . S
C614 C612 1.384 . S
C614 C615 1.372 . S
C615 C614 1.372 . S
C615 C616 1.400 . S
C615 C620 1.490 . S
C616 H606 0.930 . S
C616 C615 1.400 . S
C616 C619 1.386 . S
H617 C633 0.930 . S
H618 C634 0.931 . S
C619 H607 0.929 . S
C619 C613 1.390 . S
C619 C616 1.386 . S
C620 C615 1.490 . S
C620 C622 1.395 . S
C620 C623 1.403 . S
H621 C627 0.930 . S
C622 H608 0.930 . S
C622 C620 1.395 . S
C622 C625 1.403 . S
C623 C620 1.403 . S
C623 C624 1.524 . S
C623 C627 1.400 . S
C624 H609 0.960 . S
C624 H610 0.960 . S
C624 H611 0.960 . S
C624 C623 1.524 . S
C625 C622 1.403 . S
C625 C626 1.392 . S
C625 C629 1.495 . S
C626 C625 1.392 . S
C626 C627 1.385 . S
C626 C628 1.478 . S
C627 H621 0.930 . S
C627 C623 1.400 . S
C627 C626 1.385 . S
C628 C626 1.478 . S
C628 C630 1.381 . S
C628 C634 1.383 . S
C629 C625 1.495 . S
C629 H635 0.959 . S
C629 H636 0.961 . S
C629 H637 0.960 . S
C630 C628 1.381 . S
C630 C631 1.394 . S
C630 H638 0.930 . S
C631 C630 1.394 . S
C631 C632 1.383 . S
C631 H639 0.929 . S
C632 C631 1.383 . S
C632 C633 1.377 . S
C633 H617 0.930 . S
C633 C632 1.377 . S
C633 C634 1.379 . S
C634 H618 0.931 . S
C634 C628 1.383 . S
C634 C633 1.379 . S
H635 C629 0.959 . S
H636 C629 0.961 . S
H637 C629 0.960 . S
H638 C630 0.930 . S
H639 C631 0.929 . S
H640 C648 0.929 . S
H641 C650 0.930 . S
H642 C652 0.930 . S
H643 C655 0.929 . S
H644 C658 0.930 . S
H645 C660 0.960 . S
H646 C660 0.960 . S
H647 C660 0.960 . S
C648 H640 0.929 . S
C648 C649 1.377 . S
C648 C650 1.384 1_455 S
C649 C648 1.377 . S
C649 C655 1.390 . S
C650 H641 0.930 . S
C650 C648 1.384 1_655 S
C650 C651 1.372 . S
C651 C650 1.372 . S
C651 C652 1.400 1_655 S
C651 C656 1.490 . S
C652 H642 0.930 . S
C652 C651 1.400 1_455 S
C652 C655 1.386 . S
H653 C669 0.930 . S
H654 C670 0.931 . S
C655 H643 0.929 . S
C655 C649 1.390 . S
C655 C652 1.386 . S
C656 C651 1.490 . S
C656 C658 1.395 . S
C656 C659 1.403 . S
H657 C663 0.930 . S
C658 H644 0.930 . S
C658 C656 1.395 . S
C658 C661 1.403 . S
C659 C656 1.403 . S
C659 C660 1.524 . S
C659 C663 1.400 . S
C660 H645 0.960 . S
C660 H646 0.960 . S
C660 H647 0.960 . S
C660 C659 1.524 . S
C661 C658 1.403 . S
C661 C662 1.392 . S
C661 C665 1.495 . S
C662 C661 1.392 . S
C662 C663 1.385 . S
C662 C664 1.478 . S
C663 H657 0.930 . S
C663 C659 1.400 . S
C663 C662 1.385 . S
C664 C662 1.478 . S
C664 C666 1.381 . S
C664 C670 1.383 . S
C665 C661 1.495 . S
C665 H671 0.959 . S
C665 H672 0.961 . S
C665 H673 0.960 . S
C666 C664 1.381 . S
C666 C667 1.394 . S
C666 H674 0.930 . S
C667 C666 1.394 . S
C667 C668 1.383 . S
C667 H675 0.929 . S
C668 C667 1.383 . S
C668 C669 1.377 . S
C669 H653 0.930 . S
C669 C668 1.377 . S
C669 C670 1.379 . S
C670 H654 0.931 . S
C670 C664 1.383 . S
C670 C669 1.379 . S
H671 C665 0.959 . S
H672 C665 0.961 . S
H673 C665 0.960 . S
H674 C666 0.930 . S
H675 C667 0.929 . S
H676 C684 0.929 . S
H677 C686 0.930 . S
H678 C688 0.930 . S
H679 C691 0.929 . S
H680 C694 0.930 . S
H681 C696 0.960 . S
H682 C696 0.960 . S
H683 C696 0.960 . S
C684 H676 0.929 . S
C684 C685 1.377 . S
C684 C686 1.384 . S
C685 C684 1.377 . S
C685 C691 1.390 . S
C686 H677 0.930 . S
C686 C684 1.384 . S
C686 C687 1.372 . S
C687 C686 1.372 . S
C687 C688 1.400 . S
C687 C692 1.490 . S
C688 H678 0.930 . S
C688 C687 1.400 . S
C688 C691 1.386 . S
H689 C705 0.930 . S
H690 C706 0.931 . S
C691 H679 0.929 . S
C691 C685 1.390 . S
C691 C688 1.386 . S
C692 C687 1.490 . S
C692 C694 1.395 . S
C692 C695 1.403 . S
H693 C699 0.930 . S
C694 H680 0.930 . S
C694 C692 1.395 . S
C694 C697 1.403 . S
C695 C692 1.403 . S
C695 C696 1.524 . S
C695 C699 1.400 . S
C696 H681 0.960 . S
C696 H682 0.960 . S
C696 H683 0.960 . S
C696 C695 1.524 . S
C697 C694 1.403 . S
C697 C698 1.392 . S
C697 C701 1.495 . S
C698 C697 1.392 . S
C698 C699 1.385 . S
C698 C700 1.478 . S
C699 H693 0.930 . S
C699 C695 1.400 . S
C699 C698 1.385 . S
C700 C698 1.478 . S
C700 C702 1.381 . S
C700 C706 1.383 . S
C701 C697 1.495 . S
C701 H707 0.959 . S
C701 H708 0.961 . S
C701 H709 0.960 . S
C702 C700 1.381 . S
C702 C703 1.394 . S
C702 H710 0.930 . S
C703 C702 1.394 . S
C703 C704 1.383 . S
C703 H711 0.929 . S
C704 C703 1.383 . S
C704 C705 1.377 . S
C705 H689 0.930 . S
C705 C704 1.377 . S
C705 C706 1.379 . S
C706 H690 0.931 . S
C706 C700 1.383 . S
C706 C705 1.379 . S
H707 C701 0.959 . S
H708 C701 0.961 . S
H709 C701 0.960 . S
H710 C702 0.930 . S
H711 C703 0.929 . S
H712 C720 0.929 . S
H713 C722 0.930 . S
H714 C724 0.930 . S
H715 C727 0.929 . S
H716 C730 0.930 . S
H717 C732 0.960 . S
H718 C732 0.960 . S
H719 C732 0.960 . S
C720 H712 0.929 . S
C720 C721 1.377 . S
C720 C722 1.384 . S
C721 C720 1.377 . S
C721 C727 1.390 . S
C722 H713 0.930 . S
C722 C720 1.384 . S
C722 C723 1.372 . S
C723 C722 1.372 . S
C723 C724 1.400 . S
C723 C728 1.490 1_655 S
C724 H714 0.930 . S
C724 C723 1.400 . S
C724 C727 1.386 . S
H725 C741 0.930 . S
H726 C742 0.931 . S
C727 H715 0.929 . S
C727 C721 1.390 . S
C727 C724 1.386 . S
C728 C723 1.490 1_455 S
C728 C730 1.395 . S
C728 C731 1.403 . S
H729 C735 0.930 . S
C730 H716 0.930 . S
C730 C728 1.395 . S
C730 C733 1.403 . S
C731 C728 1.403 . S
C731 C732 1.524 1_455 S
C731 C735 1.400 . S
C732 H717 0.960 . S
C732 H718 0.960 . S
C732 H719 0.960 . S
C732 C731 1.524 1_655 S
C733 C730 1.403 . S
C733 C734 1.392 . S
C733 C737 1.495 . S
C734 C733 1.392 . S
C734 C735 1.385 . S
C734 C736 1.478 . S
C735 H729 0.930 . S
C735 C731 1.400 . S
C735 C734 1.385 . S
C736 C734 1.478 . S
C736 C738 1.381 . S
C736 C742 1.383 . S
C737 C733 1.495 . S
C737 H743 0.959 . S
C737 H744 0.961 . S
C737 H745 0.960 . S
C738 C736 1.381 . S
C738 C739 1.394 . S
C738 H746 0.930 . S
C739 C738 1.394 . S
C739 C740 1.383 . S
C739 H747 0.929 . S
C740 C739 1.383 . S
C740 C741 1.377 . S
C741 H725 0.930 . S
C741 C740 1.377 . S
C741 C742 1.379 . S
C742 H726 0.931 . S
C742 C736 1.383 . S
C742 C741 1.379 . S
H743 C737 0.959 . S
H744 C737 0.961 . S
H745 C737 0.960 . S
H746 C738 0.930 . S
H747 C739 0.929 . S
H748 C756 0.929 . S
H749 C758 0.930 . S
H750 C760 0.930 . S
H751 C763 0.929 . S
H752 C766 0.930 . S
H753 C768 0.960 . S
H754 C768 0.960 . S
H755 C768 0.960 . S
C756 H748 0.929 . S
C756 C757 1.377 . S
C756 C758 1.384 . S
C757 C756 1.377 . S
C757 C763 1.390 . S
C758 H749 0.930 . S
C758 C756 1.384 . S
C758 C759 1.372 . S
C759 C758 1.372 . S
C759 C760 1.400 . S
C759 C764 1.490 . S
C760 H750 0.930 . S
C760 C759 1.400 . S
C760 C763 1.386 . S
H761 C777 0.930 . S
H762 C778 0.931 . S
C763 H751 0.929 . S
C763 C757 1.390 . S
C763 C760 1.386 . S
C764 C759 1.490 . S
C764 C766 1.395 . S
C764 C767 1.403 . S
H765 C771 0.930 . S
C766 H752 0.930 . S
C766 C764 1.395 . S
C766 C769 1.403 . S
C767 C764 1.403 . S
C767 C768 1.524 . S
C767 C771 1.400 . S
C768 H753 0.960 . S
C768 H754 0.960 . S
C768 H755 0.960 . S
C768 C767 1.524 . S
C769 C766 1.403 . S
C769 C770 1.392 . S
C769 C773 1.495 . S
C770 C769 1.392 . S
C770 C771 1.385 . S
C770 C772 1.478 . S
C771 H765 0.930 . S
C771 C767 1.400 . S
C771 C770 1.385 . S
C772 C770 1.478 . S
C772 C774 1.381 . S
C772 C778 1.383 . S
C773 C769 1.495 . S
C773 H779 0.959 . S
C773 H780 0.961 . S
C773 H781 0.960 . S
C774 C772 1.381 . S
C774 C775 1.394 . S
C774 H782 0.930 . S
C775 C774 1.394 . S
C775 C776 1.383 . S
C775 H783 0.929 . S
C776 C775 1.383 . S
C776 C777 1.377 . S
C777 H761 0.930 . S
C777 C776 1.377 . S
C777 C778 1.379 . S
C778 H762 0.931 . S
C778 C772 1.383 . S
C778 C777 1.379 . S
H779 C773 0.959 . S
H780 C773 0.961 . S
H781 C773 0.960 . S
H782 C774 0.930 . S
H783 C775 0.929 . S
H784 C792 0.929 . S
H785 C794 0.930 . S
H786 C796 0.930 . S
H787 C799 0.929 . S
H788 C802 0.930 . S
H789 C804 0.960 . S
H790 C804 0.960 . S
H791 C804 0.960 . S
C792 H784 0.929 . S
C792 C793 1.377 . S
C792 C794 1.384 . S
C793 C792 1.377 . S
C793 C799 1.390 . S
C794 H785 0.930 . S
C794 C792 1.384 . S
C794 C795 1.372 . S
C795 C794 1.372 . S
C795 C796 1.400 . S
C795 C800 1.490 . S
C796 H786 0.930 . S
C796 C795 1.400 . S
C796 C799 1.386 . S
H797 C813 0.930 . S
H798 C814 0.931 . S
C799 H787 0.929 . S
C799 C793 1.390 . S
C799 C796 1.386 . S
C800 C795 1.490 . S
C800 C802 1.395 . S
C800 C803 1.403 . S
H801 C807 0.930 . S
C802 H788 0.930 . S
C802 C800 1.395 . S
C802 C805 1.403 . S
C803 C800 1.403 . S
C803 C804 1.524 . S
C803 C807 1.400 . S
C804 H789 0.960 . S
C804 H790 0.960 . S
C804 H791 0.960 . S
C804 C803 1.524 . S
C805 C802 1.403 . S
C805 C806 1.392 . S
C805 C809 1.495 . S
C806 C805 1.392 . S
C806 C807 1.385 . S
C806 C808 1.478 . S
C807 H801 0.930 . S
C807 C803 1.400 . S
C807 C806 1.385 . S
C808 C806 1.478 . S
C808 C810 1.381 . S
C808 C814 1.383 . S
C809 C805 1.495 . S
C809 H815 0.959 . S
C809 H816 0.961 . S
C809 H817 0.960 . S
C810 C808 1.381 . S
C810 C811 1.394 . S
C810 H818 0.930 . S
C811 C810 1.394 . S
C811 C812 1.383 . S
C811 H819 0.929 . S
C812 C811 1.383 . S
C812 C813 1.377 . S
C813 H797 0.930 . S
C813 C812 1.377 . S
C813 C814 1.379 . S
C814 H798 0.931 . S
C814 C808 1.383 . S
C814 C813 1.379 . S
H815 C809 0.959 . S
H816 C809 0.961 . S
H817 C809 0.960 . S
H818 C810 0.930 . S
H819 C811 0.929 . S
H820 C828 0.929 . S
H821 C830 0.930 . S
H822 C832 0.930 . S
H823 C835 0.929 . S
H824 C838 0.930 . S
H825 C840 0.960 . S
H826 C840 0.960 . S
H827 C840 0.960 . S
C828 H820 0.929 . S
C828 C829 1.377 . S
C828 C830 1.384 . S
C829 C828 1.377 . S
C829 C835 1.390 . S
C830 H821 0.930 . S
C830 C828 1.384 . S
C830 C831 1.372 . S
C831 C830 1.372 . S
C831 C832 1.400 . S
C831 C836 1.490 . S
C832 H822 0.930 . S
C832 C831 1.400 . S
C832 C835 1.386 . S
H833 C849 0.930 . S
H834 C850 0.931 . S
C835 H823 0.929 . S
C835 C829 1.390 . S
C835 C832 1.386 . S
C836 C831 1.490 . S
C836 C838 1.395 . S
C836 C839 1.403 . S
H837 C843 0.930 . S
C838 H824 0.930 . S
C838 C836 1.395 . S
C838 C841 1.403 . S
C839 C836 1.403 . S
C839 C840 1.524 . S
C839 C843 1.400 . S
C840 H825 0.960 . S
C840 H826 0.960 . S
C840 H827 0.960 . S
C840 C839 1.524 . S
C841 C838 1.403 . S
C841 C842 1.392 . S
C841 C845 1.495 . S
C842 C841 1.392 . S
C842 C843 1.385 . S
C842 C844 1.478 . S
C843 H837 0.930 . S
C843 C839 1.400 . S
C843 C842 1.385 . S
C844 C842 1.478 . S
C844 C846 1.381 . S
C844 C850 1.383 . S
C845 C841 1.495 . S
C845 H851 0.959 . S
C845 H852 0.961 . S
C845 H853 0.960 . S
C846 C844 1.381 . S
C846 C847 1.394 . S
C846 H854 0.930 . S
C847 C846 1.394 . S
C847 C848 1.383 . S
C847 H855 0.929 . S
C848 C847 1.383 . S
C848 C849 1.377 . S
C849 H833 0.930 . S
C849 C848 1.377 . S
C849 C850 1.379 . S
C850 H834 0.931 . S
C850 C844 1.383 . S
C850 C849 1.379 . S
H851 C845 0.959 . S
H852 C845 0.961 . S
H853 C845 0.960 . S
H854 C846 0.930 . S
H855 C847 0.929 . S
H856 C864 0.929 . S
H857 C866 0.930 . S
H858 C868 0.930 . S
H859 C871 0.929 . S
H860 C874 0.930 . S
H861 C876 0.960 . S
H862 C876 0.960 . S
H863 C876 0.960 . S
C864 H856 0.929 . S
C864 C865 1.377 . S
C864 C866 1.384 . S
C865 C864 1.377 . S
C865 C871 1.390 . S
C866 H857 0.930 . S
C866 C864 1.384 . S
C866 C867 1.372 . S
C867 C866 1.372 . S
C867 C868 1.400 . S
C867 C872 1.490 . S
C868 H858 0.930 . S
C868 C867 1.400 . S
C868 C871 1.386 . S
H869 C885 0.930 . S
H870 C886 0.931 . S
C871 H859 0.929 . S
C871 C865 1.390 . S
C871 C868 1.386 . S
C872 C867 1.490 . S
C872 C874 1.395 . S
C872 C875 1.403 . S
H873 C879 0.930 . S
C874 H860 0.930 . S
C874 C872 1.395 . S
C874 C877 1.403 . S
C875 C872 1.403 . S
C875 C876 1.524 . S
C875 C879 1.400 . S
C876 H861 0.960 . S
C876 H862 0.960 . S
C876 H863 0.960 . S
C876 C875 1.524 . S
C877 C874 1.403 . S
C877 C878 1.392 . S
C877 C881 1.495 . S
C878 C877 1.392 . S
C878 C879 1.385 . S
C878 C880 1.478 . S
C879 H873 0.930 . S
C879 C875 1.400 . S
C879 C878 1.385 . S
C880 C878 1.478 . S
C880 C882 1.381 . S
C880 C886 1.383 . S
C881 C877 1.495 . S
C881 H887 0.959 . S
C881 H888 0.961 . S
C881 H889 0.960 . S
C882 C880 1.381 . S
C882 C883 1.394 . S
C882 H890 0.930 . S
C883 C882 1.394 . S
C883 C884 1.383 . S
C883 H891 0.929 . S
C884 C883 1.383 . S
C884 C885 1.377 . S
C885 H869 0.930 . S
C885 C884 1.377 . S
C885 C886 1.379 . S
C886 H870 0.931 . S
C886 C880 1.383 . S
C886 C885 1.379 . S
H887 C881 0.959 . S
H888 C881 0.961 . S
H889 C881 0.960 . S
H890 C882 0.930 . S
H891 C883 0.929 . S
H892 C900 0.929 . S
H893 C902 0.930 . S
H894 C904 0.930 . S
H895 C907 0.929 . S
H896 C910 0.930 . S
H897 C912 0.960 . S
H898 C912 0.960 . S
H899 C912 0.960 . S
C900 H892 0.929 . S
C900 C901 1.377 . S
C900 C902 1.384 . S
C901 C900 1.377 . S
C901 C907 1.390 . S
C902 H893 0.930 . S
C902 C900 1.384 . S
C902 C903 1.372 . S
C903 C902 1.372 . S
C903 C904 1.400 . S
C903 C908 1.490 . S
C904 H894 0.930 . S
C904 C903 1.400 . S
C904 C907 1.386 . S
H905 C921 0.930 . S
H906 C922 0.931 . S
C907 H895 0.929 . S
C907 C901 1.390 . S
C907 C904 1.386 . S
C908 C903 1.490 . S
C908 C910 1.395 . S
C908 C911 1.403 . S
H909 C915 0.930 . S
C910 H896 0.930 . S
C910 C908 1.395 . S
C910 C913 1.403 . S
C911 C908 1.403 . S
C911 C912 1.524 . S
C911 C915 1.400 . S
C912 H897 0.960 . S
C912 H898 0.960 . S
C912 H899 0.960 . S
C912 C911 1.524 . S
C913 C910 1.403 . S
C913 C914 1.392 . S
C913 C917 1.495 . S
C914 C913 1.392 . S
C914 C915 1.385 . S
C914 C916 1.478 . S
C915 H909 0.930 . S
C915 C911 1.400 . S
C915 C914 1.385 . S
C916 C914 1.478 . S
C916 C918 1.381 . S
C916 C922 1.383 . S
C917 C913 1.495 . S
C917 H923 0.959 . S
C917 H924 0.961 . S
C917 H925 0.960 . S
C918 C916 1.381 . S
C918 C919 1.394 . S
C918 H926 0.930 . S
C919 C918 1.394 . S
C919 C920 1.383 . S
C919 H927 0.929 . S
C920 C919 1.383 . S
C920 C921 1.377 . S
C921 H905 0.930 . S
C921 C920 1.377 . S
C921 C922 1.379 . S
C922 H906 0.931 . S
C922 C916 1.383 . S
C922 C921 1.379 . S
H923 C917 0.959 . S
H924 C917 0.961 . S
H925 C917 0.960 . S
H926 C918 0.930 . S
H927 C919 0.929 . S
H928 C936 0.929 . S
H929 C938 0.930 . S
H930 C940 0.930 . S
H931 C943 0.929 . S
H932 C946 0.930 . S
H933 C948 0.960 . S
H934 C948 0.960 . S
H935 C948 0.960 . S
C936 H928 0.929 . S
C936 C937 1.377 . S
C936 C938 1.384 . S
C937 C936 1.377 . S
C937 C943 1.390 . S
C938 H929 0.930 . S
C938 C936 1.384 . S
C938 C939 1.372 . S
C939 C938 1.372 . S
C939 C940 1.400 . S
C939 C944 1.490 . S
C940 H930 0.930 . S
C940 C939 1.400 . S
C940 C943 1.386 . S
H941 C957 0.930 . S
H942 C958 0.931 . S
C943 H931 0.929 . S
C943 C937 1.390 . S
C943 C940 1.386 . S
C944 C939 1.490 . S
C944 C946 1.395 . S
C944 C947 1.403 . S
H945 C951 0.930 . S
C946 H932 0.930 . S
C946 C944 1.395 . S
C946 C949 1.403 . S
C947 C944 1.403 . S
C947 C948 1.524 . S
C947 C951 1.400 . S
C948 H933 0.960 . S
C948 H934 0.960 . S
C948 H935 0.960 . S
C948 C947 1.524 . S
C949 C946 1.403 . S
C949 C950 1.392 . S
C949 C953 1.495 . S
C950 C949 1.392 . S
C950 C951 1.385 . S
C950 C952 1.478 . S
C951 H945 0.930 . S
C951 C947 1.400 . S
C951 C950 1.385 . S
C952 C950 1.478 . S
C952 C954 1.381 . S
C952 C958 1.383 . S
C953 C949 1.495 . S
C953 H959 0.959 . S
C953 H960 0.961 . S
C953 H961 0.960 . S
C954 C952 1.381 . S
C954 C955 1.394 . S
C954 H962 0.930 . S
C955 C954 1.394 . S
C955 C956 1.383 . S
C955 H963 0.929 . S
C956 C955 1.383 . S
C956 C957 1.377 . S
C957 H941 0.930 . S
C957 C956 1.377 . S
C957 C958 1.379 . S
C958 H942 0.931 . S
C958 C952 1.383 . S
C958 C957 1.379 . S
H959 C953 0.959 . S
H960 C953 0.961 . S
H961 C953 0.960 . S
H962 C954 0.930 . S
H963 C955 0.929 . S
H964 C972 0.929 . S
H965 C974 0.930 . S
H966 C976 0.930 . S
H967 C979 0.929 . S
H968 C982 0.930 . S
H969 C984 0.960 . S
H970 C984 0.960 . S
H971 C984 0.960 . S
C972 H964 0.929 . S
C972 C973 1.377 . S
C972 C974 1.384 . S
C973 C972 1.377 . S
C973 C979 1.390 . S
C974 H965 0.930 . S
C974 C972 1.384 . S
C974 C975 1.372 . S
C975 C974 1.372 . S
C975 C976 1.400 . S
C975 C980 1.490 . S
C976 H966 0.930 . S
C976 C975 1.400 . S
C976 C979 1.386 . S
H977 C993 0.930 . S
H978 C994 0.931 . S
C979 H967 0.929 . S
C979 C973 1.390 . S
C979 C976 1.386 . S
C980 C975 1.490 . S
C980 C982 1.395 . S
C980 C983 1.403 . S
H981 C987 0.930 . S
C982 H968 0.930 . S
C982 C980 1.395 . S
C982 C985 1.403 . S
C983 C980 1.403 . S
C983 C984 1.524 . S
C983 C987 1.400 . S
C984 H969 0.960 . S
C984 H970 0.960 . S
C984 H971 0.960 . S
C984 C983 1.524 . S
C985 C982 1.403 . S
C985 C986 1.392 . S
C985 C989 1.495 . S
C986 C985 1.392 . S
C986 C987 1.385 . S
C986 C988 1.478 . S
C987 H981 0.930 . S
C987 C983 1.400 . S
C987 C986 1.385 . S
C988 C986 1.478 . S
C988 C990 1.381 . S
C988 C994 1.383 . S
C989 C985 1.495 . S
C989 H995 0.959 . S
C989 H996 0.961 . S
C989 H997 0.960 . S
C990 C988 1.381 . S
C990 C991 1.394 . S
C990 H998 0.930 . S
C991 C990 1.394 . S
C991 C992 1.383 . S
C991 H999 0.929 . S
C992 C991 1.383 . S
C992 C993 1.377 . S
C993 H977 0.930 . S
C993 C992 1.377 . S
C993 C994 1.379 . S
C994 H978 0.931 . S
C994 C988 1.383 . S
C994 C993 1.379 . S
H995 C989 0.959 . S
H996 C989 0.961 . S
H997 C989 0.960 . S
H998 C990 0.930 . S
H999 C991 0.929 . S
H1000 C1008 0.929 . S
H1001 C1010 0.930 . S
H1002 C1012 0.930 . S
H1003 C1015 0.929 . S
H1004 C1018 0.930 . S
H1005 C1020 0.960 . S
H1006 C1020 0.960 . S
H1007 C1020 0.960 . S
C1008 H1000 0.929 . S
C1008 C1009 1.377 . S
C1008 C1010 1.384 . S
C1009 C1008 1.377 . S
C1009 C1015 1.390 . S
C1010 H1001 0.930 . S
C1010 C1008 1.384 . S
C1010 C1011 1.372 . S
C1011 C1010 1.372 . S
C1011 C1012 1.400 . S
C1011 C1016 1.490 . S
C1012 H1002 0.930 . S
C1012 C1011 1.400 . S
C1012 C1015 1.386 . S
H1013 C1029 0.930 . S
H1014 C1030 0.931 . S
C1015 H1003 0.929 . S
C1015 C1009 1.390 . S
C1015 C1012 1.386 . S
C1016 C1011 1.490 . S
C1016 C1018 1.395 . S
C1016 C1019 1.403 . S
H1017 C1023 0.930 . S
C1018 H1004 0.930 . S
C1018 C1016 1.395 . S
C1018 C1021 1.403 . S
C1019 C1016 1.403 . S
C1019 C1020 1.524 . S
C1019 C1023 1.400 . S
C1020 H1005 0.960 . S
C1020 H1006 0.960 . S
C1020 H1007 0.960 . S
C1020 C1019 1.524 . S
C1021 C1018 1.403 . S
C1021 C1022 1.392 . S
C1021 C1025 1.495 . S
C1022 C1021 1.392 . S
C1022 C1023 1.385 . S
C1022 C1024 1.478 . S
C1023 H1017 0.930 . S
C1023 C1019 1.400 . S
C1023 C1022 1.385 . S
C1024 C1022 1.478 . S
C1024 C1026 1.381 . S
C1024 C1030 1.383 . S
C1025 C1021 1.495 . S
C1025 H1031 0.959 . S
C1025 H1032 0.961 . S
C1025 H1033 0.960 . S
C1026 C1024 1.381 . S
C1026 C1027 1.394 . S
C1026 H1034 0.930 . S
C1027 C1026 1.394 . S
C1027 C1028 1.383 . S
C1027 H1035 0.929 . S
C1028 C1027 1.383 . S
C1028 C1029 1.377 . S
C1029 H1013 0.930 . S
C1029 C1028 1.377 . S
C1029 C1030 1.379 . S
C1030 H1014 0.931 . S
C1030 C1024 1.383 . S
C1030 C1029 1.379 . S
H1031 C1025 0.959 . S
H1032 C1025 0.961 . S
H1033 C1025 0.960 . S
H1034 C1026 0.930 . S
H1035 C1027 0.929 . S
C181 C7 0.672 . S
C200 C89 0.561 . S
C217 C25 0.715 . S
C236 C100 0.646 . S
C253 C46 0.718 . S
C272 C110 0.668 . S
C308 C122 0.504 . S
C289 C70 0.629 . S
C344 C133 0.647 . S
C325 C28 0.668 . S
C361 C49 0.623 . S
C380 C144 0.562 . S
C397 C67 0.711 . S
C416 C154 0.739 . S
C433 C4 0.699 . S
C452 C166 0.713 . S
C469 C58 1.628 . S
C488 C165 1.721 . S
C524 C132 1.597 . S
C505 C66 1.518 . S
C560 C143 1.720 . S
C541 C3 1.642 . S
C577 C37 1.777 . S
C596 C155 1.853 . S
C632 C99 1.745 . S
C613 C79 1.635 . S
C649 C16 1.776 . S
C668 C111 1.859 . S
C704 C121 1.720 . S
C685 C24 1.641 . S
C740 C88 1.586 . S
C721 C45 1.512 . S
C776 C160 1.416 . S
C757 C19 1.294 . S
C812 C171 1.411 . S
C793 C41 1.283 . S
C829 C62 1.185 . S
C848 C138 1.281 . S
C884 C149 1.273 . S
C865 C82 1.142 . S
C920 C116 1.411 . S
C901 C40 1.301 . S
C937 C61 1.136 . S
C956 C127 1.249 . S
C992 C94 1.282 . S
C973 C83 1.168 . S
C1028 C105 1.410 . S
C1009 C20 1.288 . S
