# Generated by pormake.
# Topology nom, (4,4)-cn, num edge types: 1
# Building blocks:
#     Node 0, Type 0, BuildingBlock: GIZVER_clean_linker_0, # of connection points: 4
#     Node 1, Type 0, BuildingBlock: GIZVER_clean_linker_0, # of connection points: 4
#     Node 2, Type 0, BuildingBlock: GIZVER_clean_linker_0, # of connection points: 4
#     Node 3, Type 0, BuildingBlock: GIZVER_clean_linker_0, # of connection points: 4
#     Node 4, Type 0, BuildingBlock: GIZVER_clean_linker_0, # of connection points: 4
#     Node 5, Type 0, BuildingBlock: GIZVER_clean_linker_0, # of connection points: 4
#     Node 6, Type 1, BuildingBlock: AZAVOO_clean_sbu_0, # of connection points: 4
#     Node 7, Type 1, BuildingBlock: AZAVOO_clean_sbu_0, # of connection points: 4
#     Node 8, Type 1, BuildingBlock: AZAVOO_clean_sbu_0, # of connection points: 4
#     Node 9, Type 1, BuildingBlock: AZAVOO_clean_sbu_0, # of connection points: 4
#     Node 10, Type 1, BuildingBlock: AZAVOO_clean_sbu_0, # of connection points: 4
#     Node 11, Type 1, BuildingBlock: AZAVOO_clean_sbu_0, # of connection points: 4
#     Edge 12, Type (0, 1), BuildingBlock: XUDNAN_clean_linker_2, # of connection points: 2
#     Edge 13, Type (0, 1), BuildingBlock: XUDNAN_clean_linker_2, # of connection points: 2
#     Edge 14, Type (0, 1), BuildingBlock: XUDNAN_clean_linker_2, # of connection points: 2
#     Edge 15, Type (0, 1), BuildingBlock: XUDNAN_clean_linker_2, # of connection points: 2
#     Edge 16, Type (0, 1), BuildingBlock: XUDNAN_clean_linker_2, # of connection points: 2
#     Edge 17, Type (0, 1), BuildingBlock: XUDNAN_clean_linker_2, # of connection points: 2
#     Edge 18, Type (0, 1), BuildingBlock: XUDNAN_clean_linker_2, # of connection points: 2
#     Edge 19, Type (0, 1), BuildingBlock: XUDNAN_clean_linker_2, # of connection points: 2
#     Edge 20, Type (0, 1), BuildingBlock: XUDNAN_clean_linker_2, # of connection points: 2
#     Edge 21, Type (0, 1), BuildingBlock: XUDNAN_clean_linker_2, # of connection points: 2
#     Edge 22, Type (0, 1), BuildingBlock: XUDNAN_clean_linker_2, # of connection points: 2
#     Edge 23, Type (0, 1), BuildingBlock: XUDNAN_clean_linker_2, # of connection points: 2
#     Edge 24, Type (0, 1), BuildingBlock: XUDNAN_clean_linker_2, # of connection points: 2
#     Edge 25, Type (0, 1), BuildingBlock: XUDNAN_clean_linker_2, # of connection points: 2
#     Edge 26, Type (0, 1), BuildingBlock: XUDNAN_clean_linker_2, # of connection points: 2
#     Edge 27, Type (0, 1), BuildingBlock: XUDNAN_clean_linker_2, # of connection points: 2
#     Edge 28, Type (0, 1), BuildingBlock: XUDNAN_clean_linker_2, # of connection points: 2
#     Edge 29, Type (0, 1), BuildingBlock: XUDNAN_clean_linker_2, # of connection points: 2
#     Edge 30, Type (0, 1), BuildingBlock: XUDNAN_clean_linker_2, # of connection points: 2
#     Edge 31, Type (0, 1), BuildingBlock: XUDNAN_clean_linker_2, # of connection points: 2
#     Edge 32, Type (0, 1), BuildingBlock: XUDNAN_clean_linker_2, # of connection points: 2
#     Edge 33, Type (0, 1), BuildingBlock: XUDNAN_clean_linker_2, # of connection points: 2
#     Edge 34, Type (0, 1), BuildingBlock: XUDNAN_clean_linker_2, # of connection points: 2
#     Edge 35, Type (0, 1), BuildingBlock: XUDNAN_clean_linker_2, # of connection points: 2
# Relax obj value: 0.032
# Max RMSD: 0.160
# Mean RMSD: 0.105
data_MOF--net-nom--node1-AZAVOO_clean_sbu_0--node2-GIZVER_clean_linker_0--edge1-XUDNAN_clean_linker_2
_symmetry_space_group_name_H-M    P1
_symmetry_Int_Tables_number       1
_symmetry_cell_setting            triclinic
loop_
_symmetry_equiv_pos_as_xyz
'x, y, z'
_cell_length_a     46.649414
_cell_length_b     47.15589
_cell_length_c     44.625332
_cell_angle_alpha  91.348744
_cell_angle_beta   91.324691
_cell_angle_gamma 119.98295
loop_
_atom_site_label
_atom_site_type_symbol
_atom_site_fract_x
_atom_site_fract_y
_atom_site_fract_z
_atom_type_partial_charge
H0 H 0.96982 0.5458 0.36273 0.0
H1 H 0.98765 0.56113 0.26869 0.0
H2 H 0.89553 0.48222 0.29603 0.0
H3 H 0.00949 0.6008 0.34348 0.0
H4 H 0.02004 0.6049 0.30518 0.0
H5 H 0.03158 0.57582 0.37892 0.0
H6 H 0.12628 0.58863 0.35648 0.0
H7 H 0.06391 0.59609 0.2884 0.0
C8 C 0.96205 0.53776 0.33953 0.0
C9 C 0.9302 0.51091 0.33252 0.0
C10 C 0.98308 0.55591 0.31664 0.0
C11 C 0.97236 0.54648 0.28648 0.0
C12 C 0.94109 0.51934 0.27923 0.0
C13 C 0.9205 0.50156 0.30218 0.0
C14 C 0.01406 0.5883 0.32426 0.0
C15 C 0.0436 0.58456 0.33236 0.0
C16 C 0.04943 0.57925 0.3622 0.0
C17 C 0.07913 0.58043 0.37094 0.0
C18 C 0.10284 0.58653 0.34953 0.0
C19 C 0.0978 0.59254 0.3198 0.0
C20 C 0.06766 0.59059 0.31111 0.0
H21 H 0.40658 0.95984 0.5165 0.0
H22 H 0.44658 0.99908 0.43112 0.0
H23 H 0.41315 0.89814 0.44829 0.0
H24 H 0.41686 0.01281 0.50579 0.0
H25 H 0.41501 0.01969 0.46701 0.0
H26 H 0.47277 0.03452 0.53284 0.0
H27 H 0.54627 0.12742 0.50113 0.0
H28 H 0.4617 0.06285 0.44417 0.0
C29 C 0.41498 0.95716 0.49473 0.0
C30 C 0.40904 0.92626 0.48465 0.0
C31 C 0.42915 0.98389 0.47567 0.0
C32 C 0.43746 0.9792 0.44647 0.0
C33 C 0.43135 0.94814 0.43637 0.0
C34 C 0.4182 0.92228 0.45599 0.0
C35 C 0.42961 0.01525 0.48443 0.0
C36 C 0.46415 0.04463 0.48759 0.0
C37 C 0.48261 0.05149 0.51485 0.0
C38 C 0.51211 0.08152 0.51986 0.0
C39 C 0.52395 0.1039 0.4969 0.0
C40 C 0.50605 0.09746 0.46953 0.0
C41 C 0.47625 0.06758 0.46489 0.0
H42 H 0.41559 0.45683 0.57794 0.0
H43 H 0.45677 0.45429 0.66452 0.0
H44 H 0.44099 0.53426 0.64356 0.0
H45 H 0.41588 0.40835 0.59121 0.0
H46 H 0.41672 0.4022 0.63041 0.0
H47 H 0.47069 0.43625 0.56455 0.0
H48 H 0.54205 0.4116 0.59846 0.0
H49 H 0.46174 0.39851 0.6529 0.0
C50 C 0.42665 0.46837 0.59968 0.0
C51 C 0.42895 0.49832 0.60803 0.0
C52 C 0.43724 0.45263 0.61988 0.0
C53 C 0.44975 0.46701 0.64865 0.0
C54 C 0.45133 0.49659 0.65756 0.0
C55 C 0.4416 0.51236 0.63671 0.0
C56 C 0.43121 0.41865 0.61236 0.0
C57 C 0.46319 0.41826 0.60937 0.0
C58 C 0.48017 0.4278 0.58256 0.0
C59 C 0.50821 0.42472 0.57837 0.0
C60 C 0.51986 0.41311 0.60153 0.0
C61 C 0.50332 0.40342 0.62846 0.0
C62 C 0.47512 0.40644 0.63242 0.0
H63 H 0.9653 0.42696 0.78107 0.0
H64 H 0.99489 0.47203 0.86995 0.0
H65 H 0.9044 0.45669 0.82769 0.0
H66 H 0.01415 0.43186 0.80533 0.0
H67 H 0.01699 0.43638 0.84548 0.0
H68 H 0.03203 0.4875 0.77726 0.0
H69 H 0.12405 0.56626 0.81405 0.0
H70 H 0.0676 0.48102 0.86542 0.0
C71 C 0.96127 0.43873 0.80038 0.0
C72 C 0.93252 0.44127 0.80109 0.0
C73 C 0.98436 0.45063 0.82491 0.0
C74 C 0.97801 0.46423 0.85046 0.0
C75 C 0.94947 0.46691 0.85127 0.0
C76 C 0.92731 0.45615 0.82633 0.0
C77 C 0.01518 0.44784 0.82454 0.0
C78 C 0.0454 0.48129 0.82233 0.0
C79 C 0.04986 0.49853 0.79599 0.0
C80 C 0.07786 0.52943 0.79334 0.0
C81 C 0.10147 0.54322 0.81707 0.0
C82 C 0.09835 0.52577 0.84295 0.0
C83 C 0.06999 0.49485 0.84566 0.0
H84 H 0.60114 0.06163 0.03779 0.0
H85 H 0.562 0.02646 0.94775 0.0
H86 H 0.59325 0.12564 0.97493 0.0
H87 H 0.58881 0.00815 0.02248 0.0
H88 H 0.59615 0.00581 0.98362 0.0
H89 H 0.52513 0.99575 0.03031 0.0
H90 H 0.45852 0.89984 0.99159 0.0
H91 H 0.55779 0.95458 0.96116 0.0
C92 C 0.59359 0.06576 0.01595 0.0
C93 C 0.5982 0.09689 0.00964 0.0
C94 C 0.5804 0.04017 0.99376 0.0
C95 C 0.5711 0.04561 0.96528 0.0
C96 C 0.57504 0.07621 0.95898 0.0
C97 C 0.58852 0.10158 0.98099 0.0
C98 C 0.57931 0.00821 -0.00059 0.0
C99 C 0.54472 0.97918 -0.00497 0.0
C100 C 0.51969 0.97644 0.01363 0.0
C101 C 0.48836 0.94809 0.01209 0.0
C102 C 0.482 0.92257 0.99138 0.0
C103 C 0.50693 0.92441 0.97314 0.0
C104 C 0.53819 0.95307 0.97481 0.0
H105 H 0.5996 0.56618 0.10473 0.0
H106 H 0.56604 0.56915 0.19337 0.0
H107 H 0.56434 0.48244 0.15958 0.0
H108 H 0.60735 0.61703 0.12563 0.0
H109 H 0.60402 0.62049 0.16523 0.0
H110 H 0.5509 0.58678 0.09394 0.0
H111 H 0.48551 0.62156 0.12002 0.0
H112 H 0.56264 0.63163 0.18182 0.0
C113 C 0.58827 0.55398 0.12504 0.0
C114 C 0.58165 0.52182 0.12903 0.0
C115 C 0.58156 0.57084 0.14782 0.0
C116 C 0.56911 0.5556 0.17496 0.0
C117 C 0.56243 0.52354 0.1789 0.0
C118 C 0.56774 0.50654 0.15562 0.0
C119 C 0.59046 0.60602 0.14444 0.0
C120 C 0.55985 0.60859 0.13865 0.0
C121 C 0.54256 0.59769 0.11079 0.0
C122 C 0.51565 0.60221 0.10408 0.0
C123 C 0.50576 0.61735 0.12566 0.0
C124 C 0.52239 0.62806 0.15388 0.0
C125 C 0.54937 0.62333 0.16027 0.0
Mg126 Mg 0.63471 0.37927 0.35278 0.0
O127 O 0.6223 0.40464 0.39105 0.0
O128 O 0.64448 0.4577 0.38127 0.0
Mg129 Mg 0.67448 0.4672 0.33965 0.0
C130 C 0.62713 0.43335 0.39737 0.0
C131 C 0.62203 0.31121 0.37941 0.0
O132 O 0.65026 0.31782 0.36786 0.0
O133 O 0.6873 0.39915 0.37291 0.0
O134 O 0.70855 0.45235 0.36412 0.0
O135 O 0.59038 0.37251 0.32725 0.0
O136 O 0.64004 0.41626 0.32439 0.0
C137 C 0.71117 0.42876 0.37465 0.0
C138 C 0.60865 0.40175 0.31788 0.0
O139 O 0.6123 0.33199 0.37811 0.0
Mg140 Mg 0.2706 0.64416 0.59871 0.0
O141 O 0.22882 0.62348 0.56263 0.0
O142 O 0.19443 0.57021 0.56934 0.0
Mg143 Mg 0.21325 0.55788 0.61217 0.0
C144 C 0.20319 0.59617 0.55497 0.0
C145 C 0.3194 0.71697 0.58193 0.0
O146 O 0.32913 0.72 0.61027 0.0
O147 O 0.29524 0.61727 0.57778 0.0
O148 O 0.26061 0.56576 0.58998 0.0
O149 O 0.24032 0.65799 0.62597 0.0
O150 O 0.23794 0.60999 0.62807 0.0
C151 C 0.28738 0.58715 0.57851 0.0
C152 C 0.22621 0.62864 0.63586 0.0
O153 O 0.29836 0.68886 0.57073 0.0
Mg154 Mg 0.63345 0.25581 0.75471 0.0
O155 O 0.62128 0.21819 0.71551 0.0
O156 O 0.64461 0.1884 0.72802 0.0
Mg157 Mg 0.67214 0.207 0.77344 0.0
C158 C 0.62722 0.1949 0.70998 0.0
C159 C 0.60612 0.30079 0.74511 0.0
O160 O 0.61027 0.30026 0.77428 0.0
O161 O 0.6868 0.28718 0.74008 0.0
O162 O 0.70878 0.25692 0.75476 0.0
O163 O 0.58843 0.21937 0.77758 0.0
O164 O 0.63793 0.2246 0.78412 0.0
C165 C 0.71162 0.28284 0.7435 0.0
C166 C 0.60689 0.20905 0.78957 0.0
O167 O 0.61466 0.28445 0.72811 0.0
Mg168 Mg 0.40038 0.63237 0.85996 0.0
O169 O 0.41241 0.60997 0.90017 0.0
O170 O 0.38599 0.55554 0.89219 0.0
Mg171 Mg 0.35638 0.54284 0.84764 0.0
C172 C 0.40517 0.58135 0.90815 0.0
C173 C 0.41381 0.70265 0.88261 0.0
O174 O 0.38688 0.69444 0.86613 0.0
O175 O 0.34866 0.61575 0.87751 0.0
O176 O 0.32367 0.56188 0.86692 0.0
O177 O 0.44279 0.63461 0.83538 0.0
O178 O 0.39206 0.59188 0.83331 0.0
C179 C 0.32298 0.58715 0.87691 0.0
C180 C 0.42259 0.6046 0.82645 0.0
O181 O 0.42389 0.68222 0.88511 0.0
Mg182 Mg 0.75138 0.39351 0.03962 0.0
O183 O 0.78587 0.41688 0.08189 0.0
O184 O 0.82508 0.40278 0.07941 0.0
Mg185 Mg 0.81763 0.37331 0.03591 0.0
C186 C 0.81175 0.41729 0.09266 0.0
C187 C 0.71846 0.43243 0.06313 0.0
O188 O 0.74893 0.4562 0.05968 0.0
O189 O 0.72818 0.34186 0.05807 0.0
O190 O 0.76943 0.33111 0.05288 0.0
O191 O 0.78272 0.43861 0.01496 0.0
O192 O 0.79103 0.3965 0.01649 0.0
C193 C 0.73996 0.3226 0.06015 0.0
C194 C 0.8007 0.42579 0.0081 0.0
O195 O 0.71162 0.40293 0.05852 0.0
Mg196 Mg 0.36911 0.77284 0.2015 0.0
O197 O 0.39397 0.81335 0.23957 0.0
O198 O 0.44346 0.85018 0.22296 0.0
Mg199 Mg 0.45101 0.83425 0.17683 0.0
C200 C 0.42167 0.84032 0.2429 0.0
C201 C 0.30466 0.71355 0.21349 0.0
O202 O 0.30982 0.71237 0.18478 0.0
O203 O 0.40248 0.75165 0.214 0.0
O204 O 0.45101 0.79017 0.19735 0.0
O205 O 0.34757 0.80075 0.17974 0.0
O206 O 0.39704 0.80748 0.17111 0.0
C207 C 0.43327 0.76297 0.20976 0.0
C208 C 0.37561 0.81675 0.16699 0.0
O209 O 0.32699 0.73702 0.22991 0.0
H210 H 0.16188 0.64049 0.33191 0.0
H211 H 0.09649 0.57313 0.26096 0.0
H212 H 0.14334 0.5949 0.22673 0.0
H213 H 0.20715 0.70788 0.28608 0.0
H214 H 0.24618 0.72207 0.30624 0.0
H215 H 0.20801 0.69992 0.32532 0.0
H216 H 0.22481 0.65766 0.34159 0.0
H217 H 0.26307 0.67969 0.32253 0.0
H218 H 0.23549 0.63676 0.31351 0.0
H219 H 0.19714 0.62482 0.20034 0.0
H220 H 0.25276 0.66231 0.18253 0.0
H221 H 0.28286 0.71076 0.27091 0.0
C222 C 0.15752 0.6299 0.30931 0.0
C223 C 0.12567 0.60479 0.29913 0.0
C224 C 0.12072 0.5923 0.26916 0.0
C225 C 0.14719 0.6044 0.24968 0.0
C226 C 0.17832 0.62909 0.26053 0.0
C227 C 0.18353 0.6418 0.28961 0.0
C228 C 0.21892 0.66926 0.2954 0.0
C229 C 0.22012 0.7017 0.30374 0.0
C230 C 0.23661 0.6603 0.3197 0.0
C231 C 0.23287 0.67028 0.26491 0.0
C232 C 0.20911 0.64672 0.24521 0.0
C233 C 0.21593 0.64328 0.21559 0.0
C234 C 0.24767 0.66475 0.20571 0.0
C235 C 0.27226 0.68955 0.22531 0.0
C236 C 0.26472 0.69201 0.25541 0.0
H237 H 0.56838 0.13812 0.44964 0.0
H238 H 0.46715 0.1187 0.44335 0.0
H239 H 0.48576 0.17005 0.41693 0.0
H240 H 0.60555 0.2211 0.4664 0.0
H241 H 0.64173 0.23338 0.44467 0.0
H242 H 0.62031 0.19292 0.45913 0.0
H243 H 0.61283 0.16708 0.40562 0.0
H244 H 0.63481 0.20751 0.39098 0.0
H245 H 0.59393 0.17836 0.37604 0.0
H246 H 0.51602 0.22681 0.39869 0.0
H247 H 0.55513 0.28253 0.38322 0.0
H248 H 0.6371 0.26516 0.39954 0.0
C249 C 0.55005 0.14428 0.44192 0.0
C250 C 0.51627 0.12432 0.44832 0.0
C251 C 0.49302 0.13328 0.43818 0.0
C252 C 0.50341 0.16255 0.42339 0.0
C253 C 0.53706 0.18234 0.41858 0.0
C254 C 0.55999 0.17331 0.42694 0.0
C255 C 0.59488 0.19983 0.42045 0.0
C256 C 0.6169 0.21255 0.44939 0.0
C257 C 0.61 0.18746 0.39686 0.0
C258 C 0.58808 0.22561 0.40802 0.0
C259 C 0.55455 0.21498 0.40723 0.0
C260 C 0.54226 0.23518 0.39863 0.0
C261 C 0.56475 0.26692 0.39014 0.0
C262 C 0.59918 0.27814 0.39003 0.0
C263 C 0.61091 0.25712 0.39907 0.0
H264 H 0.36354 0.47239 0.59445 0.0
H265 H 0.45919 0.55835 0.58342 0.0
H266 H 0.43171 0.58798 0.5642 0.0
H267 H 0.31625 0.48559 0.53025 0.0
H268 H 0.28029 0.47168 0.55263 0.0
H269 H 0.30716 0.45472 0.55734 0.0
H270 H 0.31437 0.47065 0.6141 0.0
H271 H 0.28794 0.4879 0.60958 0.0
H272 H 0.32923 0.51273 0.62584 0.0
H273 H 0.39432 0.61119 0.55574 0.0
H274 H 0.35101 0.62636 0.56027 0.0
H275 H 0.27947 0.52553 0.57837 0.0
C276 C 0.37855 0.49683 0.58637 0.0
C277 C 0.41337 0.51287 0.5894 0.0
C278 C 0.43246 0.5455 0.58038 0.0
C279 C 0.41703 0.56246 0.5695 0.0
C280 C 0.38248 0.54644 0.56794 0.0
C281 C 0.36345 0.5142 0.57595 0.0
C282 C 0.3272 0.50428 0.57704 0.0
C283 C 0.30651 0.47748 0.55286 0.0
C284 C 0.31395 0.49327 0.6085 0.0
C285 C 0.32898 0.53634 0.56987 0.0
C286 C 0.3609 0.56016 0.56397 0.0
C287 C 0.3691 0.59254 0.55968 0.0
C288 C 0.34428 0.60096 0.56232 0.0
C289 C 0.31171 0.57718 0.56962 0.0
C290 C 0.30395 0.54428 0.57241 0.0
H291 H 0.90182 0.37694 0.78365 0.0
H292 H 0.89973 0.46643 0.76991 0.0
H293 H 0.84529 0.43469 0.74293 0.0
H294 H 0.85168 0.32965 0.71192 0.0
H295 H 0.831 0.29234 0.73203 0.0
H296 H 0.87333 0.32258 0.74219 0.0
H297 H 0.85679 0.32423 0.79695 0.0
H298 H 0.81455 0.29447 0.78699 0.0
H299 H 0.82435 0.33341 0.80422 0.0
H300 H 0.78689 0.39289 0.72778 0.0
H301 H 0.7302 0.34524 0.7262 0.0
H302 H 0.76996 0.28266 0.75036 0.0
C303 C 0.89068 0.38993 0.77345 0.0
C304 C 0.90515 0.42411 0.77823 0.0
C305 C 0.88919 0.44028 0.76596 0.0
C306 C 0.85831 0.42243 0.7506 0.0
C307 C 0.84377 0.38843 0.74761 0.0
C308 C 0.85967 0.37237 0.7584 0.0
C309 C 0.83677 0.33558 0.75683 0.0
C310 C 0.84892 0.31907 0.7344 0.0
C311 C 0.83289 0.32111 0.78809 0.0
C312 C 0.80499 0.33354 0.74527 0.0
C313 C 0.80967 0.36417 0.73932 0.0
C314 C 0.7831 0.3687 0.73163 0.0
C315 C 0.7509 0.34144 0.73084 0.0
C316 C 0.74549 0.31009 0.7381 0.0
C317 C 0.77314 0.30614 0.74432 0.0
H318 H 0.45187 0.8809 0.93865 0.0
H319 H 0.54861 0.8994 0.97031 0.0
H320 H 0.53608 0.84557 0.94877 0.0
H321 H 0.40801 0.79827 0.95587 0.0
H322 H 0.38013 0.78481 0.92332 0.0
H323 H 0.39785 0.82626 0.93813 0.0
H324 H 0.42147 0.84845 0.88643 0.0
H325 H 0.40343 0.80703 0.87129 0.0
H326 H 0.44716 0.83507 0.86848 0.0
H327 H 0.51081 0.78749 0.92893 0.0
H328 H 0.47659 0.7311 0.90776 0.0
H329 H 0.39625 0.75019 0.88842 0.0
C330 C 0.47065 0.87386 0.94055 0.0
C331 C 0.50134 0.89452 0.95598 0.0
C332 C 0.52521 0.88435 0.95809 0.0
C333 C 0.51819 0.85366 0.94616 0.0
C334 C 0.48731 0.8335 0.93195 0.0
C335 C 0.4641 0.84335 0.92867 0.0
C336 C 0.43232 0.81651 0.91343 0.0
C337 C 0.40285 0.80584 0.93392 0.0
C338 C 0.42572 0.82742 0.8831 0.0
C339 C 0.44104 0.78976 0.90926 0.0
C340 C 0.47288 0.80009 0.92012 0.0
C341 C 0.48601 0.77928 0.91998 0.0
C342 C 0.46628 0.7472 0.90806 0.0
C343 C 0.43376 0.7362 0.89629 0.0
C344 C 0.42108 0.75789 0.897 0.0
H345 H 0.64503 0.54629 0.11184 0.0
H346 H 0.54742 0.45999 0.10351 0.0
H347 H 0.57164 0.42811 0.08225 0.0
H348 H 0.67998 0.52773 0.04343 0.0
H349 H 0.71991 0.54356 0.06237 0.0
H350 H 0.69402 0.56064 0.0714 0.0
H351 H 0.69796 0.54899 0.12733 0.0
H352 H 0.72305 0.53108 0.11848 0.0
H353 H 0.68516 0.50776 0.1378 0.0
H354 H 0.60731 0.40384 0.06974 0.0
H355 H 0.65131 0.39016 0.06171 0.0
H356 H 0.72582 0.49241 0.07847 0.0
C357 C 0.62863 0.52113 0.10411 0.0
C358 C 0.59432 0.50567 0.10873 0.0
C359 C 0.57371 0.4723 0.09965 0.0
C360 C 0.58728 0.45401 0.08772 0.0
C361 C 0.62147 0.46953 0.08492 0.0
C362 C 0.64184 0.5025 0.09233 0.0
C363 C 0.67801 0.51257 0.08979 0.0
C364 C 0.69391 0.5376 0.06528 0.0
C365 C 0.69714 0.52587 0.12015 0.0
C366 C 0.67485 0.47997 0.08067 0.0
C367 C 0.64206 0.45547 0.07784 0.0
C368 C 0.63307 0.42294 0.07134 0.0
C369 C 0.65825 0.41536 0.06707 0.0
C370 C 0.69203 0.44021 0.06934 0.0
C371 C 0.70025 0.47288 0.07632 0.0
H372 H 0.42467 0.90428 0.5358 0.0
H373 H 0.34693 0.88025 0.46812 0.0
H374 H 0.31487 0.82457 0.487 0.0
H375 H 0.42268 0.82983 0.53204 0.0
H376 H 0.42894 0.82696 0.57161 0.0
H377 H 0.4444 0.86651 0.55576 0.0
H378 H 0.41165 0.88102 0.59322 0.0
H379 H 0.3966 0.84174 0.60965 0.0
H380 H 0.36774 0.85373 0.59588 0.0
H381 H 0.29542 0.77026 0.50749 0.0
H382 H 0.28464 0.721 0.53411 0.0
H383 H 0.37303 0.77933 0.59102 0.0
C384 C 0.40035 0.88755 0.52584 0.0
C385 C 0.38789 0.89637 0.50082 0.0
C386 C 0.35648 0.8738 0.48758 0.0
C387 C 0.33824 0.84216 0.49803 0.0
C388 C 0.35163 0.83362 0.52196 0.0
C389 C 0.38155 0.85572 0.53624 0.0
C390 C 0.39064 0.83942 0.5607 0.0
C391 C 0.42362 0.84077 0.55464 0.0
C392 C 0.39171 0.8549 0.5917 0.0
C393 C 0.36168 0.80462 0.55719 0.0
C394 C 0.33964 0.80195 0.53458 0.0
C395 C 0.31209 0.77207 0.52566 0.0
C396 C 0.30638 0.74417 0.54074 0.0
C397 C 0.32792 0.74635 0.56471 0.0
C398 C 0.356 0.77701 0.57295 0.0
H399 H 0.52522 0.35984 0.61947 0.0
H400 H 0.50887 0.41491 0.68966 0.0
H401 H 0.53269 0.39392 0.72734 0.0
H402 H 0.50752 0.28912 0.66226 0.0
H403 H 0.53945 0.2839 0.64548 0.0
H404 H 0.51941 0.30184 0.6246 0.0
H405 H 0.57656 0.35286 0.61616 0.0
H406 H 0.59677 0.33519 0.63716 0.0
H407 H 0.60362 0.37522 0.64809 0.0
H408 H 0.56054 0.36867 0.75682 0.0
H409 H 0.58842 0.33981 0.77636 0.0
H410 H 0.58789 0.30256 0.6863 0.0
C411 C 0.52667 0.36759 0.64276 0.0
C412 C 0.51533 0.3892 0.65161 0.0
C413 C 0.51713 0.39819 0.6824 0.0
C414 C 0.5308 0.38655 0.70389 0.0
C415 C 0.54244 0.3659 0.69421 0.0
C416 C 0.54033 0.35638 0.66438 0.0
C417 C 0.5552 0.33456 0.65962 0.0
C418 C 0.52882 0.30033 0.64727 0.0
C419 C 0.58479 0.35042 0.63904 0.0
C420 C 0.56629 0.33341 0.69148 0.0
C421 C 0.55863 0.35158 0.71109 0.0
C422 C 0.56654 0.3543 0.74168 0.0
C423 C 0.58245 0.33783 0.75253 0.0
C424 C 0.59039 0.3189 0.73287 0.0
C425 C 0.58226 0.31687 0.70191 0.0
H426 H 0.12964 0.49279 0.85903 0.0
H427 H 0.13489 0.58669 0.87033 0.0
H428 H 0.19239 0.61119 0.89085 0.0
H429 H 0.18951 0.50385 0.92517 0.0
H430 H 0.20638 0.48345 0.90324 0.0
H431 H 0.16326 0.47148 0.89825 0.0
H432 H 0.17129 0.48124 0.84143 0.0
H433 H 0.21433 0.49377 0.84621 0.0
H434 H 0.20231 0.52085 0.82942 0.0
H435 H 0.25227 0.62796 0.89834 0.0
H436 H 0.30809 0.6349 0.89359 0.0
H437 H 0.26376 0.52993 0.87724 0.0
C438 C 0.14226 0.518 0.86755 0.0
C439 C 0.12773 0.53774 0.86367 0.0
C440 C 0.1455 0.57109 0.87362 0.0
C441 C 0.17817 0.58518 0.88527 0.0
C442 C 0.19262 0.56552 0.88704 0.0
C443 C 0.17499 0.53244 0.87891 0.0
C444 C 0.19742 0.51782 0.87825 0.0
C445 C 0.18862 0.49267 0.90269 0.0
C446 C 0.19627 0.50256 0.84698 0.0
C447 C 0.23065 0.54817 0.88537 0.0
C448 C 0.22741 0.57533 0.89106 0.0
C449 C 0.25506 0.6067 0.89475 0.0
C450 C 0.28672 0.61044 0.89192 0.0
C451 C 0.29045 0.58299 0.88512 0.0
C452 C 0.26194 0.55144 0.8828 0.0
H453 H 0.58823 0.14925 0.01909 0.0
H454 H 0.65152 0.11091 0.04733 0.0
H455 H 0.68896 0.1633 0.07414 0.0
H456 H 0.65016 0.22141 -0.00169 0.0
H457 H 0.63278 0.2464 0.00969 0.0
H458 H 0.60595 0.20362 0.00046 0.0
H459 H 0.58021 0.19558 0.05259 0.0
H460 H 0.60703 0.23858 0.06201 0.0
H461 H 0.60672 0.20825 0.08605 0.0
H462 H 0.72556 0.22213 0.08779 0.0
H463 H 0.75833 0.28233 0.0866 0.0
H464 H 0.6732 0.28427 0.04808 0.0
C465 C 0.60949 0.15152 0.03158 0.0
C466 C 0.6167 0.12568 0.03106 0.0
C467 C 0.64484 0.12983 0.04778 0.0
C468 C 0.66644 0.1597 0.06306 0.0
C469 C 0.65957 0.18524 0.06162 0.0
C470 C 0.63158 0.18136 0.0465 0.0
C471 C 0.63251 0.21386 0.04422 0.0
C472 C 0.63024 0.22177 0.01123 0.0
C473 C 0.60498 0.21407 0.0623 0.0
C474 C 0.66636 0.23694 0.05869 0.0
C475 C 0.68115 0.21978 0.06932 0.0
C476 C 0.71392 0.23578 0.0803 0.0
C477 C 0.73239 0.27 0.07946 0.0
C478 C 0.71817 0.28798 0.06758 0.0
C479 C 0.68438 0.27125 0.05813 0.0
H480 H 0.46002 0.61679 0.16588 0.0
H481 H 0.56414 0.68289 0.18869 0.0
H482 H 0.54978 0.71963 0.21619 0.0
H483 H 0.44287 0.67535 0.14658 0.0
H484 H 0.40174 0.65686 0.16071 0.0
H485 H 0.41877 0.63157 0.15 0.0
H486 H 0.40869 0.60759 0.20288 0.0
H487 H 0.39149 0.6329 0.2138 0.0
H488 H 0.42548 0.63484 0.23561 0.0
H489 H 0.52645 0.75461 0.23086 0.0
H490 H 0.4959 0.78478 0.23173 0.0
H491 H 0.40655 0.69707 0.19949 0.0
C492 C 0.47974 0.63857 0.17733 0.0
C493 C 0.51324 0.6468 0.17515 0.0
C494 C 0.53826 0.67558 0.19046 0.0
C495 C 0.53033 0.69672 0.20612 0.0
C496 C 0.49722 0.68865 0.20656 0.0
C497 C 0.47224 0.66006 0.19283 0.0
C498 C 0.43935 0.65931 0.19282 0.0
C499 C 0.42487 0.65558 0.16063 0.0
C500 C 0.4148 0.63204 0.21246 0.0
C501 C 0.45014 0.69287 0.20694 0.0
C502 C 0.48349 0.70907 0.21535 0.0
C503 C 0.50015 0.74187 0.22525 0.0
C504 C 0.48263 0.75884 0.22562 0.0
C505 C 0.44879 0.74302 0.21623 0.0
C506 C 0.43209 0.70934 0.20781 0.0
H507 H 0.87924 0.44715 0.33522 0.0
H508 H 0.92166 0.54262 0.38095 0.0
H509 H 0.87117 0.52351 0.409 0.0
H510 H 0.80845 0.44177 0.31764 0.0
H511 H 0.78155 0.3984 0.32165 0.0
H512 H 0.82429 0.41397 0.31407 0.0
H513 H 0.83174 0.38736 0.36151 0.0
H514 H 0.78866 0.37135 0.36919 0.0
H515 H 0.8203 0.39615 0.39739 0.0
H516 H 0.8129 0.50191 0.41969 0.0
H517 H 0.75269 0.47926 0.4126 0.0
H518 H 0.745 0.39776 0.35923 0.0
C519 C 0.87838 0.46365 0.35197 0.0
C520 C 0.90463 0.49647 0.35569 0.0
C521 C 0.90244 0.51721 0.3779 0.0
C522 C 0.87358 0.50654 0.39396 0.0
C523 C 0.84706 0.47499 0.3878 0.0
C524 C 0.84935 0.45358 0.36762 0.0
C525 C 0.81562 0.42366 0.36047 0.0
C526 C 0.80699 0.41925 0.32647 0.0
C527 C 0.81399 0.3928 0.37289 0.0
C528 C 0.79366 0.433 0.3776 0.0
C529 C 0.81244 0.46218 0.39408 0.0
C530 C 0.79794 0.47849 0.40784 0.0
C531 C 0.76372 0.46551 0.40367 0.0
C532 C 0.74431 0.43644 0.38597 0.0
C533 C 0.75922 0.41928 0.37388 0.0
H534 H 0.10347 0.54436 0.39723 0.0
H535 H 0.07749 0.61915 0.41613 0.0
H536 H 0.10345 0.62866 0.46696 0.0
H537 H 0.09172 0.51297 0.47534 0.0
H538 H 0.12615 0.50583 0.47307 0.0
H539 H 0.10173 0.50201 0.43971 0.0
H540 H 0.15502 0.54383 0.41414 0.0
H541 H 0.17954 0.54828 0.44751 0.0
H542 H 0.18096 0.58383 0.43185 0.0
H543 H 0.14044 0.63688 0.5114 0.0
H544 H 0.17894 0.63732 0.55067 0.0
H545 H 0.17773 0.5544 0.50532 0.0
C546 C 0.10239 0.56197 0.41249 0.0
C547 C 0.08827 0.58085 0.40298 0.0
C548 C 0.08765 0.60405 0.42325 0.0
C549 C 0.10254 0.60977 0.45205 0.0
C550 C 0.11735 0.59163 0.46037 0.0
C551 C 0.11666 0.56759 0.44152 0.0
C552 C 0.13568 0.55261 0.45555 0.0
C553 C 0.11243 0.51619 0.46126 0.0
C554 C 0.1645 0.55744 0.4361 0.0
C555 C 0.14822 0.57285 0.48471 0.0
C556 C 0.13748 0.59533 0.48691 0.0
C557 C 0.14831 0.61885 0.51035 0.0
C558 C 0.17035 0.61911 0.53234 0.0
C559 C 0.18086 0.59572 0.53097 0.0
C560 C 0.16949 0.57215 0.50701 0.0
H561 H 0.52854 0.13787 0.55155 0.0
H562 H 0.53278 0.04829 0.55603 0.0
H563 H 0.56335 0.06777 0.60534 0.0
H564 H 0.60899 0.19222 0.58366 0.0
H565 H 0.59638 0.2173 0.60413 0.0
H566 H 0.57447 0.19591 0.56973 0.0
H567 H 0.51926 0.16786 0.59735 0.0
H568 H 0.54097 0.18932 0.63179 0.0
H569 H 0.51614 0.14524 0.63031 0.0
H570 H 0.59564 0.09863 0.65292 0.0
H571 H 0.62329 0.13596 0.69697 0.0
H572 H 0.59634 0.20479 0.66134 0.0
C573 C 0.53597 0.12237 0.56291 0.0
C574 C 0.52873 0.09175 0.55 0.0
C575 C 0.5382 0.07183 0.56567 0.0
C576 C 0.55563 0.08276 0.59353 0.0
C577 C 0.56292 0.11343 0.60538 0.0
C578 C 0.55303 0.13276 0.59068 0.0
C579 C 0.56351 0.16453 0.60822 0.0
C580 C 0.58725 0.19424 0.59037 0.0
C581 C 0.53316 0.16685 0.61747 0.0
C582 C 0.58116 0.1603 0.63509 0.0
C583 C 0.58071 0.13077 0.63297 0.0
C584 C 0.59597 0.12171 0.65488 0.0
C585 C 0.61174 0.14321 0.67977 0.0
C586 C 0.61199 0.17337 0.6827 0.0
C587 C 0.59653 0.18192 0.65989 0.0
H588 H 0.48414 0.56028 0.68018 0.0
H589 H 0.43015 0.45949 0.70724 0.0
H590 H 0.42749 0.47852 0.75821 0.0
H591 H 0.5268 0.59932 0.75655 0.0
H592 H 0.52092 0.63379 0.75067 0.0
H593 H 0.5276 0.61338 0.7192 0.0
H594 H 0.47332 0.60441 0.6932 0.0
H595 H 0.46618 0.62426 0.72459 0.0
H596 H 0.43507 0.58323 0.71248 0.0
H597 H 0.41816 0.5062 0.80134 0.0
H598 H 0.40583 0.5411 0.83434 0.0
H599 H 0.46419 0.62425 0.77995 0.0
C600 C 0.47277 0.54228 0.69712 0.0
C601 C 0.45748 0.50837 0.68958 0.0
C602 C 0.44271 0.4856 0.7124 0.0
C603 C 0.4409 0.49621 0.74152 0.0
C604 C 0.45422 0.52966 0.74762 0.0
C605 C 0.47039 0.55248 0.72619 0.0
C606 C 0.47801 0.58637 0.73696 0.0
C607 C 0.51557 0.60958 0.7411 0.0
C608 C 0.46218 0.60035 0.71555 0.0
C609 C 0.46162 0.57864 0.76689 0.0
C610 C 0.44867 0.5459 0.77289 0.0
C611 C 0.4289 0.53202 0.79729 0.0
C612 C 0.42166 0.55191 0.8157 0.0
C613 C 0.43408 0.58523 0.80957 0.0
C614 C 0.45509 0.59897 0.78543 0.0
H615 H 0.93639 0.43369 0.90208 0.0
H616 H 0.93631 0.51641 0.86228 0.0
H617 H 0.9064 0.52143 0.90537 0.0
H618 H 0.85738 0.39651 0.91997 0.0
H619 H 0.86134 0.37968 0.95465 0.0
H620 H 0.89097 0.38851 0.92627 0.0
H621 H 0.93891 0.42584 0.96419 0.0
H622 H 0.90936 0.41677 0.99298 0.0
H623 H 0.93772 0.45872 0.9845 0.0
H624 H 0.8681 0.51097 0.94709 0.0
H625 H 0.82303 0.48498 0.98248 0.0
H626 H 0.84517 0.4066 0.99289 0.0
C627 C 0.93159 0.4539 0.90339 0.0
C628 C 0.93932 0.4753 0.87957 0.0
C629 C 0.93117 0.50039 0.88086 0.0
C630 C 0.91426 0.50338 0.90522 0.0
C631 C 0.90558 0.4809 0.92786 0.0
C632 C 0.91412 0.45669 0.92719 0.0
C633 C 0.89697 0.43209 0.95106 0.0
C634 C 0.87539 0.39717 0.93714 0.0
C635 C 0.92226 0.43345 0.97458 0.0
C636 C 0.87605 0.44516 0.96416 0.0
C637 C 0.88209 0.47386 0.95116 0.0
C638 C 0.86366 0.48889 0.95787 0.0
C639 C 0.83801 0.47387 0.97793 0.0
C640 C 0.83065 0.44379 0.99056 0.0
C641 C 0.85046 0.42978 0.98402 0.0
H642 H 0.50182 0.9543 0.07173 0.0
H643 H 0.42145 0.92422 0.00576 0.0
H644 H 0.38099 0.89782 0.04509 0.0
H645 H 0.47322 0.88474 0.10176 0.0
H646 H 0.48582 0.89803 0.14043 0.0
H647 H 0.50785 0.92496 0.11124 0.0
H648 H 0.497 0.9696 0.13395 0.0
H649 H 0.47529 0.94292 0.16383 0.0
H650 H 0.45525 0.95976 0.14132 0.0
H651 H 0.3507 0.86283 0.08699 0.0
H652 H 0.33414 0.82208 0.12642 0.0
H653 H 0.43418 0.87347 0.16483 0.0
C654 C 0.47571 0.94398 0.06604 0.0
C655 C 0.46464 0.9417 0.03597 0.0
C656 C 0.4303 0.92656 0.02884 0.0
C657 C 0.40719 0.91162 0.05109 0.0
C658 C 0.4189 0.91222 0.0803 0.0
C659 C 0.45249 0.92851 0.0879 0.0
C660 C 0.45913 0.92001 0.11881 0.0
C661 C 0.48286 0.90609 0.11795 0.0
C662 C 0.47244 0.94985 0.14078 0.0
C663 C 0.42448 0.89416 0.12621 0.0
C664 C 0.40137 0.89094 0.10439 0.0
C665 C 0.3684 0.86578 0.10463 0.0
C666 C 0.35919 0.84271 0.12703 0.0
C667 C 0.3831 0.84465 0.14826 0.0
C668 C 0.41562 0.87141 0.14859 0.0
H669 H 0.60994 0.54028 0.22138 0.0
H670 H 0.50613 0.47324 0.20039 0.0
H671 H 0.50478 0.43829 0.2415 0.0
H672 H 0.63 0.48305 0.22568 0.0
H673 H 0.66152 0.50129 0.25537 0.0
H674 H 0.65248 0.52687 0.23252 0.0
H675 H 0.64034 0.55181 0.27951 0.0
H676 H 0.65031 0.52696 0.30283 0.0
H677 H 0.61094 0.52512 0.30572 0.0
H678 H 0.51767 0.4053 0.2765 0.0
H679 H 0.54295 0.37757 0.30337 0.0
H680 H 0.6398 0.46418 0.29743 0.0
C681 C 0.5865 0.51941 0.22694 0.0
C682 C 0.55782 0.5099 0.20879 0.0
C683 C 0.52793 0.48134 0.21499 0.0
C684 C 0.52709 0.46133 0.23812 0.0
C685 C 0.55645 0.47022 0.25446 0.0
C686 C 0.5856 0.49885 0.24934 0.0
C687 C 0.61499 0.49985 0.26553 0.0
C688 C 0.64125 0.50292 0.24345 0.0
C689 C 0.63002 0.52758 0.28985 0.0
C690 C 0.59817 0.46666 0.27928 0.0
C691 C 0.56434 0.45029 0.27336 0.0
C692 C 0.54403 0.4182 0.28184 0.0
C693 C 0.55868 0.40256 0.29688 0.0
C694 C 0.59339 0.41881 0.30278 0.0
C695 C 0.61319 0.45131 0.29391 0.0
H696 H 0.38582 0.89755 0.40029 0.0
H697 H 0.48504 0.98175 0.40125 0.0
H698 H 0.49269 0.96439 0.3505 0.0
H699 H 0.40489 0.84135 0.36752 0.0
H700 H 0.36669 0.81907 0.34545 0.0
H701 H 0.36781 0.84009 0.38002 0.0
H702 H 0.34492 0.8726 0.35201 0.0
H703 H 0.34333 0.85138 0.31735 0.0
H704 H 0.36594 0.89554 0.31999 0.0
H705 H 0.49069 0.93484 0.3018 0.0
H706 H 0.47883 0.89779 0.25771 0.0
H707 H 0.38083 0.83211 0.28966 0.0
C708 C 0.40908 0.91255 0.38969 0.0
C709 C 0.43502 0.94087 0.40467 0.0
C710 C 0.46489 0.96009 0.39001 0.0
C711 C 0.46943 0.9503 0.36133 0.0
C712 C 0.44372 0.92148 0.34772 0.0
C713 C 0.41399 0.90312 0.36132 0.0
C714 C 0.39074 0.87242 0.34272 0.0
C715 C 0.38204 0.84141 0.35996 0.0
C716 C 0.35938 0.87304 0.33241 0.0
C717 C 0.41223 0.87592 0.31665 0.0
C718 C 0.4426 0.90446 0.31987 0.0
C719 C 0.4669 0.91261 0.29895 0.0
C720 C 0.45988 0.89125 0.27399 0.0
C721 C 0.4288 0.86189 0.27009 0.0
C722 C 0.40478 0.85425 0.29188 0.0
H723 H 0.52525 0.38584 0.54655 0.0
H724 H 0.52821 0.47919 0.545 0.0
H725 H 0.5591 0.49174 0.49808 0.0
H726 H 0.60623 0.41351 0.52122 0.0
H727 H 0.59478 0.37676 0.4989 0.0
H728 H 0.57198 0.37485 0.53153 0.0
H729 H 0.51733 0.34823 0.49904 0.0
H730 H 0.53993 0.34986 0.46634 0.0
H731 H 0.51434 0.36852 0.46637 0.0
H732 H 0.59209 0.49487 0.45297 0.0
H733 H 0.6213 0.48714 0.41102 0.0
H734 H 0.59572 0.39105 0.4423 0.0
C735 C 0.53238 0.40893 0.5363 0.0
C736 C 0.52465 0.43172 0.54936 0.0
C737 C 0.53387 0.46143 0.53516 0.0
C738 C 0.5515 0.46877 0.50868 0.0
C739 C 0.55931 0.44596 0.49672 0.0
C740 C 0.54973 0.4165 0.50993 0.0
C741 C 0.56114 0.39614 0.49274 0.0
C742 C 0.58495 0.38997 0.51226 0.0
C743 C 0.53141 0.36378 0.48039 0.0
C744 C 0.57895 0.41886 0.46784 0.0
C745 C 0.57774 0.44751 0.47058 0.0
C746 C 0.59302 0.47246 0.4505 0.0
C747 C 0.60968 0.46786 0.42682 0.0
C748 C 0.61078 0.43843 0.42331 0.0
C749 C 0.59524 0.41374 0.44424 0.0
H750 H 0.09391 0.50634 0.74489 0.0
H751 H 0.08521 0.58841 0.7784 0.0
H752 H 0.11492 0.62019 0.73483 0.0
H753 H 0.17308 0.55044 0.72934 0.0
H754 H 0.17249 0.52774 0.69603 0.0
H755 H 0.14203 0.50781 0.72363 0.0
H756 H 0.0947 0.49108 0.68353 0.0
H757 H 0.12507 0.51043 0.65545 0.0
H758 H 0.09402 0.52195 0.66093 0.0
H759 H 0.15411 0.64605 0.69386 0.0
H760 H 0.20006 0.66443 0.65932 0.0
H761 H 0.18673 0.5665 0.65527 0.0
C762 C 0.09665 0.53031 0.74196 0.0
C763 C 0.08651 0.54475 0.76415 0.0
C764 C 0.09207 0.57682 0.76094 0.0
C765 C 0.10893 0.59495 0.73635 0.0
C766 C 0.1202 0.58062 0.71549 0.0
C767 C 0.11408 0.54888 0.71795 0.0
C768 C 0.1337 0.54115 0.69596 0.0
C769 C 0.15668 0.53123 0.71223 0.0
C770 C 0.11048 0.51458 0.67258 0.0
C771 C 0.15319 0.574 0.68192 0.0
C772 C 0.14436 0.59614 0.69279 0.0
C773 C 0.16075 0.62873 0.68473 0.0
C774 C 0.18695 0.63898 0.66523 0.0
C775 C 0.19694 0.61685 0.65449 0.0
C776 C 0.17948 0.5839 0.66272 0.0
H777 H 0.62131 0.10449 0.91796 0.0
H778 H 0.51755 0.06762 0.93308 0.0
H779 H 0.5121 0.09141 0.8857 0.0
H780 H 0.63828 0.17891 0.89588 0.0
H781 H 0.66747 0.1837 0.8679 0.0
H782 H 0.66136 0.15771 0.89872 0.0
H783 H 0.64696 0.10882 0.86168 0.0
H784 H 0.6534 0.13482 0.83058 0.0
H785 H 0.61467 0.09708 0.83307 0.0
H786 H 0.5207 0.12691 0.84157 0.0
H787 H 0.54214 0.17035 0.80453 0.0
H788 H 0.64073 0.18451 0.81968 0.0
C789 C 0.59719 0.10031 0.91045 0.0
C790 C 0.56962 0.08376 0.92837 0.0
C791 C 0.53863 0.07965 0.91897 0.0
C792 C 0.5354 0.09309 0.89221 0.0
C793 C 0.56344 0.11032 0.87533 0.0
C794 C 0.59369 0.11362 0.88399 0.0
C795 C 0.62094 0.13661 0.86429 0.0
C796 C 0.64861 0.16595 0.88281 0.0
C797 C 0.6348 0.11822 0.84633 0.0
C798 C 0.60173 0.147 0.84407 0.0
C799 C 0.5685 0.13116 0.85031 0.0
C800 C 0.54652 0.13892 0.83606 0.0
C801 C 0.55895 0.16371 0.81515 0.0
C802 C 0.59307 0.18063 0.809 0.0
C803 C 0.61444 0.17165 0.82336 0.0
H804 H 0.50069 0.63934 0.06791 0.0
H805 H 0.49286 0.54394 0.07246 0.0
H806 H 0.46343 0.52793 0.02265 0.0
H807 H 0.42099 0.61215 0.03252 0.0
H808 H 0.43534 0.64721 0.00943 0.0
H809 H 0.45583 0.65098 0.04523 0.0
H810 H 0.51185 0.67279 0.01942 0.0
H811 H 0.49154 0.66914 0.98355 0.0
H812 H 0.51526 0.64891 0.98903 0.0
H813 H 0.43337 0.52204 0.97316 0.0
H814 H 0.4076 0.52748 0.92637 0.0
H815 H 0.43644 0.62744 0.95411 0.0
C816 C 0.49261 0.61501 0.05848 0.0
C817 C 0.49876 0.59272 0.07401 0.0
C818 C 0.48842 0.56134 0.06078 0.0
C819 C 0.47161 0.55204 0.03263 0.0
C820 C 0.46567 0.57454 0.01802 0.0
C821 C 0.47609 0.60546 0.0304 0.0
C822 C 0.46707 0.62523 0.01 0.0
C823 C 0.4434 0.63442 0.0252 0.0
C824 C 0.49829 0.65582 -0.0001 0.0
C825 C 0.44978 0.60055 0.98419 0.0
C826 C 0.44906 0.57141 0.98931 0.0
C827 C 0.4339 0.54479 0.96885 0.0
C828 C 0.41924 0.54811 0.94238 0.0
C829 C 0.42006 0.57792 0.9365 0.0
C830 C 0.43556 0.6044 0.9578 0.0
H831 H 0.9224 0.46411 0.2443 0.0
H832 H 0.92594 0.55767 0.24573 0.0
H833 H 0.89203 0.54147 0.19822 0.0
H834 H 0.92757 0.45778 0.16195 0.0
H835 H 0.90027 0.414 0.16054 0.0
H836 H 0.92627 0.43412 0.19357 0.0
H837 H 0.87434 0.40849 0.22582 0.0
H838 H 0.84809 0.3889 0.19284 0.0
H839 H 0.84062 0.41559 0.21688 0.0
H840 H 0.85236 0.51221 0.1538 0.0
H841 H 0.81811 0.47604 0.11069 0.0
H842 H 0.84404 0.40334 0.13646 0.0
C843 C 0.91675 0.48143 0.23406 0.0
C844 C 0.92698 0.51225 0.24821 0.0
C845 C 0.91874 0.53421 0.23472 0.0
C846 C 0.89926 0.52508 0.20798 0.0
C847 C 0.88873 0.49411 0.19492 0.0
C848 C 0.8979 0.47296 0.20709 0.0
C849 C 0.88342 0.44114 0.1886 0.0
C850 C 0.91103 0.4365 0.17538 0.0
C851 C 0.86025 0.41181 0.20715 0.0
C852 C 0.86424 0.44745 0.16442 0.0
C853 C 0.86718 0.47793 0.16868 0.0
C854 C 0.8503 0.4885 0.14997 0.0
C855 C 0.83067 0.46772 0.12576 0.0
C856 C 0.82864 0.43707 0.12028 0.0
C857 C 0.84542 0.4268 0.14005 0.0
loop_
_geom_bond_atom_site_label_1
_geom_bond_atom_site_label_2
_geom_bond_distance
_geom_bond_site_symmetry_2
_ccdc_geom_bond_type
H0 C8 0.930 . S
H1 C11 0.930 . S
H2 C13 0.930 . S
H3 C14 0.956 1_655 S
H4 C14 0.970 . S
H5 C16 0.930 . S
H6 C18 0.930 . S
H7 C20 0.930 . S
C8 H0 0.930 . S
C8 C9 1.382 . S
C8 C10 1.426 . S
C9 C8 1.382 . S
C9 C13 1.389 . S
C10 C8 1.426 . S
C10 C11 1.375 . S
C10 C14 1.532 1_655 S
C11 H1 0.930 . S
C11 C10 1.375 . S
C11 C12 1.416 . S
C12 C11 1.416 . S
C12 C13 1.371 . S
C13 H2 0.930 . S
C13 C9 1.389 . S
C13 C12 1.371 . S
C14 H3 0.956 1_455 S
C14 H4 0.970 . S
C14 C10 1.532 1_455 S
C14 C15 1.499 . S
C15 C14 1.499 . S
C15 C16 1.370 . S
C15 C20 1.415 . S
C16 H5 0.930 . S
C16 C15 1.370 . S
C16 C17 1.407 . S
C17 C16 1.407 . S
C17 C18 1.365 . S
C18 H6 0.930 . S
C18 C17 1.365 . S
C18 C19 1.393 . S
C19 C18 1.393 . S
C19 C20 1.387 . S
C20 H7 0.930 . S
C20 C15 1.415 . S
C20 C19 1.387 . S
H21 C29 0.930 . S
H22 C32 0.930 . S
H23 C34 0.930 . S
H24 C35 0.970 . S
H25 C35 0.970 . S
H26 C37 0.930 . S
H27 C39 0.930 . S
H28 C41 0.930 . S
C29 H21 0.930 . S
C29 C30 1.382 . S
C29 C31 1.426 . S
C30 C29 1.382 . S
C30 C34 1.389 . S
C31 C29 1.426 . S
C31 C32 1.375 . S
C31 C35 1.532 1_565 S
C32 H22 0.930 . S
C32 C31 1.375 . S
C32 C33 1.416 . S
C33 C32 1.416 . S
C33 C34 1.371 . S
C34 H23 0.930 . S
C34 C30 1.389 . S
C34 C33 1.371 . S
C35 H24 0.970 . S
C35 H25 0.970 . S
C35 C31 1.532 1_545 S
C35 C36 1.499 . S
C36 C35 1.499 . S
C36 C37 1.370 . S
C36 C41 1.415 . S
C37 H26 0.930 . S
C37 C36 1.370 . S
C37 C38 1.407 . S
C38 C37 1.407 . S
C38 C39 1.365 . S
C39 H27 0.930 . S
C39 C38 1.365 . S
C39 C40 1.393 . S
C40 C39 1.393 . S
C40 C41 1.387 . S
C41 H28 0.930 . S
C41 C36 1.415 . S
C41 C40 1.387 . S
H42 C50 0.930 . S
H43 C53 0.930 . S
H44 C55 0.930 . S
H45 C56 0.970 . S
H46 C56 0.970 . S
H47 C58 0.930 . S
H48 C60 0.930 . S
H49 C62 0.930 . S
C50 H42 0.930 . S
C50 C51 1.382 . S
C50 C52 1.426 . S
C51 C50 1.382 . S
C51 C55 1.389 . S
C52 C50 1.426 . S
C52 C53 1.375 . S
C52 C56 1.532 . S
C53 H43 0.930 . S
C53 C52 1.375 . S
C53 C54 1.416 . S
C54 C53 1.416 . S
C54 C55 1.371 . S
C55 H44 0.930 . S
C55 C51 1.389 . S
C55 C54 1.371 . S
C56 H45 0.970 . S
C56 H46 0.970 . S
C56 C52 1.532 . S
C56 C57 1.499 . S
C57 C56 1.499 . S
C57 C58 1.370 . S
C57 C62 1.415 . S
C58 H47 0.930 . S
C58 C57 1.370 . S
C58 C59 1.407 . S
C59 C58 1.407 . S
C59 C60 1.365 . S
C60 H48 0.930 . S
C60 C59 1.365 . S
C60 C61 1.393 . S
C61 C60 1.393 . S
C61 C62 1.387 . S
C62 H49 0.930 . S
C62 C57 1.415 . S
C62 C61 1.387 . S
H63 C71 0.930 . S
H64 C74 0.930 . S
H65 C76 0.930 . S
H66 C77 0.970 . S
H67 C77 0.970 . S
H68 C79 0.930 . S
H69 C81 0.930 . S
H70 C83 0.930 . S
C71 H63 0.930 . S
C71 C72 1.382 . S
C71 C73 1.426 . S
C72 C71 1.382 . S
C72 C76 1.389 . S
C73 C71 1.426 . S
C73 C74 1.375 . S
C73 C77 1.532 1_655 S
C74 H64 0.930 . S
C74 C73 1.375 . S
C74 C75 1.416 . S
C75 C74 1.416 . S
C75 C76 1.371 . S
C76 H65 0.930 . S
C76 C72 1.389 . S
C76 C75 1.371 . S
C77 H66 0.970 . S
C77 H67 0.970 . S
C77 C73 1.532 1_455 S
C77 C78 1.499 . S
C78 C77 1.499 . S
C78 C79 1.370 . S
C78 C83 1.415 . S
C79 H68 0.930 . S
C79 C78 1.370 . S
C79 C80 1.407 . S
C80 C79 1.407 . S
C80 C81 1.365 . S
C81 H69 0.930 . S
C81 C80 1.365 . S
C81 C82 1.393 . S
C82 C81 1.393 . S
C82 C83 1.387 . S
C83 H70 0.930 . S
C83 C78 1.415 . S
C83 C82 1.387 . S
H84 C92 0.930 . S
H85 C95 0.930 . S
H86 C97 0.930 . S
H87 C98 0.970 1_554 S
H88 C98 0.970 . S
H89 C100 0.930 . S
H90 C102 0.930 . S
H91 C104 0.930 . S
C92 H84 0.930 . S
C92 C93 1.382 1_554 S
C92 C94 1.426 1_554 S
C93 C92 1.382 1_556 S
C93 C97 1.389 . S
C94 C92 1.426 1_556 S
C94 C95 1.375 . S
C94 C98 1.532 . S
C95 H85 0.930 . S
C95 C94 1.375 . S
C95 C96 1.416 . S
C96 C95 1.416 . S
C96 C97 1.371 . S
C97 H86 0.930 . S
C97 C93 1.389 . S
C97 C96 1.371 . S
C98 H87 0.970 1_556 S
C98 H88 0.970 . S
C98 C94 1.532 . S
C98 C99 1.499 1_545 S
C99 C98 1.499 1_565 S
C99 C100 1.370 1_556 S
C99 C104 1.415 . S
C100 H89 0.930 . S
C100 C99 1.370 1_554 S
C100 C101 1.407 . S
C101 C100 1.407 . S
C101 C102 1.365 . S
C102 H90 0.930 . S
C102 C101 1.365 . S
C102 C103 1.393 1_554 S
C103 C102 1.393 1_556 S
C103 C104 1.387 . S
C104 H91 0.930 . S
C104 C99 1.415 . S
C104 C103 1.387 . S
H105 C113 0.930 . S
H106 C116 0.930 . S
H107 C118 0.930 . S
H108 C119 0.970 . S
H109 C119 0.970 . S
H110 C121 0.930 . S
H111 C123 0.930 . S
H112 C125 0.930 . S
C113 H105 0.930 . S
C113 C114 1.382 . S
C113 C115 1.426 . S
C114 C113 1.382 . S
C114 C118 1.389 . S
C115 C113 1.426 . S
C115 C116 1.375 . S
C115 C119 1.532 . S
C116 H106 0.930 . S
C116 C115 1.375 . S
C116 C117 1.416 . S
C117 C116 1.416 . S
C117 C118 1.371 . S
C118 H107 0.930 . S
C118 C114 1.389 . S
C118 C117 1.371 . S
C119 H108 0.970 . S
C119 H109 0.970 . S
C119 C115 1.532 . S
C119 C120 1.499 . S
C120 C119 1.499 . S
C120 C121 1.370 . S
C120 C125 1.415 . S
C121 H110 0.930 . S
C121 C120 1.370 . S
C121 C122 1.407 . S
C122 C121 1.407 . S
C122 C123 1.365 . S
C123 H111 0.930 . S
C123 C122 1.365 . S
C123 C124 1.393 . S
C124 C123 1.393 . S
C124 C125 1.387 . S
C125 H112 0.930 . S
C125 C120 1.415 . S
C125 C124 1.387 . S
Mg126 O127 2.028 . S
Mg126 O133 1.986 . S
Mg126 O135 2.114 . S
Mg126 O136 2.251 . S
Mg126 O139 2.010 . S
O127 Mg126 2.028 . S
O127 C130 1.250 . S
O128 Mg129 2.028 . S
O128 C130 1.248 . S
Mg129 O128 2.028 . S
Mg129 O134 2.032 . S
Mg129 O136 2.079 . S
C130 O127 1.250 . S
C130 O128 1.248 . S
C131 O132 1.264 . S
C131 O139 1.249 . S
O132 C131 1.264 . S
O133 Mg126 1.986 . S
O133 C137 1.246 . S
O134 Mg129 2.032 . S
O134 C137 1.259 . S
O135 Mg126 2.114 . S
O135 C138 1.252 . S
O136 Mg126 2.251 . S
O136 Mg129 2.079 . S
O136 C138 1.273 . S
C137 O133 1.246 . S
C137 O134 1.259 . S
C138 O135 1.252 . S
C138 O136 1.273 . S
O139 Mg126 2.010 . S
O139 C131 1.249 . S
Mg140 O141 2.028 . S
Mg140 O147 1.986 . S
Mg140 O149 2.114 . S
Mg140 O150 2.251 . S
Mg140 O153 2.010 . S
O141 Mg140 2.028 . S
O141 C144 1.250 . S
O142 Mg143 2.028 . S
O142 C144 1.248 . S
Mg143 O142 2.028 . S
Mg143 O148 2.032 . S
Mg143 O150 2.079 . S
C144 O141 1.250 . S
C144 O142 1.248 . S
C145 O146 1.264 . S
C145 O153 1.249 . S
O146 C145 1.264 . S
O147 Mg140 1.986 . S
O147 C151 1.246 . S
O148 Mg143 2.032 . S
O148 C151 1.259 . S
O149 Mg140 2.114 . S
O149 C152 1.252 . S
O150 Mg140 2.251 . S
O150 Mg143 2.079 . S
O150 C152 1.273 . S
C151 O147 1.246 . S
C151 O148 1.259 . S
C152 O149 1.252 . S
C152 O150 1.273 . S
O153 Mg140 2.010 . S
O153 C145 1.249 . S
Mg154 O155 2.028 . S
Mg154 O161 1.986 . S
Mg154 O163 2.114 . S
Mg154 O164 2.251 . S
Mg154 O167 2.010 . S
O155 Mg154 2.028 . S
O155 C158 1.250 . S
O156 Mg157 2.028 . S
O156 C158 1.248 . S
Mg157 O156 2.028 . S
Mg157 O162 2.032 . S
Mg157 O164 2.079 . S
C158 O155 1.250 . S
C158 O156 1.248 . S
C159 O160 1.264 . S
C159 O167 1.249 . S
O160 C159 1.264 . S
O161 Mg154 1.986 . S
O161 C165 1.246 . S
O162 Mg157 2.032 . S
O162 C165 1.259 . S
O163 Mg154 2.114 . S
O163 C166 1.252 . S
O164 Mg154 2.251 . S
O164 Mg157 2.079 . S
O164 C166 1.273 . S
C165 O161 1.246 . S
C165 O162 1.259 . S
C166 O163 1.252 . S
C166 O164 1.273 . S
O167 Mg154 2.010 . S
O167 C159 1.249 . S
Mg168 O169 2.028 . S
Mg168 O175 1.986 . S
Mg168 O177 2.114 . S
Mg168 O178 2.251 . S
Mg168 O181 2.010 . S
O169 Mg168 2.028 . S
O169 C172 1.250 . S
O170 Mg171 2.028 . S
O170 C172 1.248 . S
Mg171 O170 2.028 . S
Mg171 O176 2.032 . S
Mg171 O178 2.079 . S
C172 O169 1.250 . S
C172 O170 1.248 . S
C173 O174 1.264 . S
C173 O181 1.249 . S
O174 C173 1.264 . S
O175 Mg168 1.986 . S
O175 C179 1.246 . S
O176 Mg171 2.032 . S
O176 C179 1.259 . S
O177 Mg168 2.114 . S
O177 C180 1.252 . S
O178 Mg168 2.251 . S
O178 Mg171 2.079 . S
O178 C180 1.273 . S
C179 O175 1.246 . S
C179 O176 1.259 . S
C180 O177 1.252 . S
C180 O178 1.273 . S
O181 Mg168 2.010 . S
O181 C173 1.249 . S
Mg182 O183 2.028 . S
Mg182 O189 1.986 . S
Mg182 O191 2.114 . S
Mg182 O192 2.251 . S
Mg182 O195 2.010 . S
O183 Mg182 2.028 . S
O183 C186 1.250 . S
O184 Mg185 2.028 . S
O184 C186 1.248 . S
Mg185 O184 2.028 . S
Mg185 O190 2.032 . S
Mg185 O192 2.079 . S
C186 O183 1.250 . S
C186 O184 1.248 . S
C187 O188 1.264 . S
C187 O195 1.249 . S
O188 C187 1.264 . S
O189 Mg182 1.986 . S
O189 C193 1.246 . S
O190 Mg185 2.032 . S
O190 C193 1.259 . S
O191 Mg182 2.114 . S
O191 C194 1.252 . S
O192 Mg182 2.251 . S
O192 Mg185 2.079 . S
O192 C194 1.273 . S
C193 O189 1.246 . S
C193 O190 1.259 . S
C194 O191 1.252 . S
C194 O192 1.273 . S
O195 Mg182 2.010 . S
O195 C187 1.249 . S
Mg196 O197 2.028 . S
Mg196 O203 1.986 . S
Mg196 O205 2.114 . S
Mg196 O206 2.251 . S
Mg196 O209 2.010 . S
O197 Mg196 2.028 . S
O197 C200 1.250 . S
O198 Mg199 2.028 . S
O198 C200 1.248 . S
Mg199 O198 2.028 . S
Mg199 O204 2.032 . S
Mg199 O206 2.079 . S
C200 O197 1.250 . S
C200 O198 1.248 . S
C201 O202 1.264 . S
C201 O209 1.249 . S
O202 C201 1.264 . S
O203 Mg196 1.986 . S
O203 C207 1.246 . S
O204 Mg199 2.032 . S
O204 C207 1.259 . S
O205 Mg196 2.114 . S
O205 C208 1.252 . S
O206 Mg196 2.251 . S
O206 Mg199 2.079 . S
O206 C208 1.273 . S
C207 O203 1.246 . S
C207 O204 1.259 . S
C208 O205 1.252 . S
C208 O206 1.273 . S
O209 Mg196 2.010 . S
O209 C201 1.249 . S
H210 C222 0.930 . S
H211 C224 0.930 . S
H212 C225 0.930 . S
H213 C229 0.959 . S
H214 C229 0.959 . S
H215 C229 0.961 . S
H216 C230 0.960 . S
H217 C230 0.961 . S
H218 C230 0.959 . S
H219 C233 0.929 . S
H220 C234 0.931 . S
H221 C236 0.930 . S
C222 H210 0.930 . S
C222 C223 1.399 . S
C222 C227 1.399 . S
C223 C222 1.399 . S
C223 C224 1.376 . S
C224 H211 0.930 . S
C224 C223 1.376 . S
C224 C225 1.388 . S
C225 H212 0.930 . S
C225 C224 1.388 . S
C225 C226 1.390 . S
C226 C225 1.390 . S
C226 C227 1.394 . S
C226 C232 1.465 . S
C227 C222 1.399 . S
C227 C226 1.394 . S
C227 C228 1.516 . S
C228 C227 1.516 . S
C228 C229 1.502 . S
C228 C230 1.561 . S
C228 C231 1.526 . S
C229 H213 0.959 . S
C229 H214 0.959 . S
C229 H215 0.961 . S
C229 C228 1.502 . S
C230 H216 0.960 . S
C230 H217 0.961 . S
C230 H218 0.959 . S
C230 C228 1.561 . S
C231 C228 1.526 . S
C231 C232 1.396 . S
C231 C236 1.390 . S
C232 C226 1.465 . S
C232 C231 1.396 . S
C232 C233 1.399 . S
C233 H219 0.929 . S
C233 C232 1.399 . S
C233 C234 1.385 . S
C234 H220 0.931 . S
C234 C233 1.385 . S
C234 C235 1.389 . S
C235 C234 1.389 . S
C235 C236 1.387 . S
C236 H221 0.930 . S
C236 C231 1.390 . S
C236 C235 1.387 . S
H237 C249 0.930 . S
H238 C251 0.930 . S
H239 C252 0.930 . S
H240 C256 0.959 . S
H241 C256 0.959 . S
H242 C256 0.961 . S
H243 C257 0.960 . S
H244 C257 0.961 . S
H245 C257 0.959 . S
H246 C260 0.929 . S
H247 C261 0.931 . S
H248 C263 0.930 . S
C249 H237 0.930 . S
C249 C250 1.399 . S
C249 C254 1.399 . S
C250 C249 1.399 . S
C250 C251 1.376 . S
C251 H238 0.930 . S
C251 C250 1.376 . S
C251 C252 1.388 . S
C252 H239 0.930 . S
C252 C251 1.388 . S
C252 C253 1.390 . S
C253 C252 1.390 . S
C253 C254 1.394 . S
C253 C259 1.465 . S
C254 C249 1.399 . S
C254 C253 1.394 . S
C254 C255 1.516 . S
C255 C254 1.516 . S
C255 C256 1.502 . S
C255 C257 1.561 . S
C255 C258 1.526 . S
C256 H240 0.959 . S
C256 H241 0.959 . S
C256 H242 0.961 . S
C256 C255 1.502 . S
C257 H243 0.960 . S
C257 H244 0.961 . S
C257 H245 0.959 . S
C257 C255 1.561 . S
C258 C255 1.526 . S
C258 C259 1.396 . S
C258 C263 1.390 . S
C259 C253 1.465 . S
C259 C258 1.396 . S
C259 C260 1.399 . S
C260 H246 0.929 . S
C260 C259 1.399 . S
C260 C261 1.385 . S
C261 H247 0.931 . S
C261 C260 1.385 . S
C261 C262 1.389 . S
C262 C261 1.389 . S
C262 C263 1.387 . S
C263 H248 0.930 . S
C263 C258 1.390 . S
C263 C262 1.387 . S
H264 C276 0.930 . S
H265 C278 0.930 . S
H266 C279 0.930 . S
H267 C283 0.959 . S
H268 C283 0.959 . S
H269 C283 0.961 . S
H270 C284 0.960 . S
H271 C284 0.961 . S
H272 C284 0.959 . S
H273 C287 0.929 . S
H274 C288 0.931 . S
H275 C290 0.930 . S
C276 H264 0.930 . S
C276 C277 1.399 . S
C276 C281 1.399 . S
C277 C276 1.399 . S
C277 C278 1.376 . S
C278 H265 0.930 . S
C278 C277 1.376 . S
C278 C279 1.388 . S
C279 H266 0.930 . S
C279 C278 1.388 . S
C279 C280 1.390 . S
C280 C279 1.390 . S
C280 C281 1.394 . S
C280 C286 1.465 . S
C281 C276 1.399 . S
C281 C280 1.394 . S
C281 C282 1.516 . S
C282 C281 1.516 . S
C282 C283 1.502 . S
C282 C284 1.561 . S
C282 C285 1.526 . S
C283 H267 0.959 . S
C283 H268 0.959 . S
C283 H269 0.961 . S
C283 C282 1.502 . S
C284 H270 0.960 . S
C284 H271 0.961 . S
C284 H272 0.959 . S
C284 C282 1.561 . S
C285 C282 1.526 . S
C285 C286 1.396 . S
C285 C290 1.390 . S
C286 C280 1.465 . S
C286 C285 1.396 . S
C286 C287 1.399 . S
C287 H273 0.929 . S
C287 C286 1.399 . S
C287 C288 1.385 . S
C288 H274 0.931 . S
C288 C287 1.385 . S
C288 C289 1.389 . S
C289 C288 1.389 . S
C289 C290 1.387 . S
C290 H275 0.930 . S
C290 C285 1.390 . S
C290 C289 1.387 . S
H291 C303 0.930 . S
H292 C305 0.930 . S
H293 C306 0.930 . S
H294 C310 0.959 . S
H295 C310 0.959 . S
H296 C310 0.961 . S
H297 C311 0.960 . S
H298 C311 0.961 . S
H299 C311 0.959 . S
H300 C314 0.929 . S
H301 C315 0.931 . S
H302 C317 0.930 . S
C303 H291 0.930 . S
C303 C304 1.399 . S
C303 C308 1.399 . S
C304 C303 1.399 . S
C304 C305 1.376 . S
C305 H292 0.930 . S
C305 C304 1.376 . S
C305 C306 1.388 . S
C306 H293 0.930 . S
C306 C305 1.388 . S
C306 C307 1.390 . S
C307 C306 1.390 . S
C307 C308 1.394 . S
C307 C313 1.465 . S
C308 C303 1.399 . S
C308 C307 1.394 . S
C308 C309 1.516 . S
C309 C308 1.516 . S
C309 C310 1.502 . S
C309 C311 1.561 . S
C309 C312 1.526 . S
C310 H294 0.959 . S
C310 H295 0.959 . S
C310 H296 0.961 . S
C310 C309 1.502 . S
C311 H297 0.960 . S
C311 H298 0.961 . S
C311 H299 0.959 . S
C311 C309 1.561 . S
C312 C309 1.526 . S
C312 C313 1.396 . S
C312 C317 1.390 . S
C313 C307 1.465 . S
C313 C312 1.396 . S
C313 C314 1.399 . S
C314 H300 0.929 . S
C314 C313 1.399 . S
C314 C315 1.385 . S
C315 H301 0.931 . S
C315 C314 1.385 . S
C315 C316 1.389 . S
C316 C315 1.389 . S
C316 C317 1.387 . S
C317 H302 0.930 . S
C317 C312 1.390 . S
C317 C316 1.387 . S
H318 C330 0.930 . S
H319 C332 0.930 1_554 S
H320 C333 0.914 1_554 S
H321 C337 0.959 . S
H322 C337 0.959 . S
H323 C337 0.961 . S
H324 C338 0.960 . S
H325 C338 0.961 . S
H326 C338 0.959 . S
H327 C341 0.929 . S
H328 C342 0.931 . S
H329 C344 0.930 . S
C330 H318 0.930 . S
C330 C331 1.399 . S
C330 C335 1.399 . S
C331 C330 1.399 . S
C331 C332 1.376 . S
C332 H319 0.930 1_556 S
C332 C331 1.376 . S
C332 C333 1.388 . S
C333 H320 0.914 1_556 S
C333 C332 1.388 . S
C333 C334 1.390 . S
C334 C333 1.390 . S
C334 C335 1.394 . S
C334 C340 1.465 . S
C335 C330 1.399 . S
C335 C334 1.394 . S
C335 C336 1.516 . S
C336 C335 1.516 . S
C336 C337 1.502 . S
C336 C338 1.561 . S
C336 C339 1.526 . S
C337 H321 0.959 . S
C337 H322 0.959 . S
C337 H323 0.961 . S
C337 C336 1.502 . S
C338 H324 0.960 . S
C338 H325 0.961 . S
C338 H326 0.959 . S
C338 C336 1.561 . S
C339 C336 1.526 . S
C339 C340 1.396 . S
C339 C344 1.390 . S
C340 C334 1.465 . S
C340 C339 1.396 . S
C340 C341 1.399 . S
C341 H327 0.929 . S
C341 C340 1.399 . S
C341 C342 1.385 . S
C342 H328 0.931 . S
C342 C341 1.385 . S
C342 C343 1.389 . S
C343 C342 1.389 . S
C343 C344 1.387 . S
C344 H329 0.930 . S
C344 C339 1.390 . S
C344 C343 1.387 . S
H345 C357 0.930 . S
H346 C359 0.930 . S
H347 C360 0.930 . S
H348 C364 0.959 . S
H349 C364 0.959 . S
H350 C364 0.961 . S
H351 C365 0.960 . S
H352 C365 0.961 . S
H353 C365 0.959 . S
H354 C368 0.929 . S
H355 C369 0.931 . S
H356 C371 0.930 . S
C357 H345 0.930 . S
C357 C358 1.399 . S
C357 C362 1.399 . S
C358 C357 1.399 . S
C358 C359 1.376 . S
C359 H346 0.930 . S
C359 C358 1.376 . S
C359 C360 1.388 . S
C360 H347 0.930 . S
C360 C359 1.388 . S
C360 C361 1.390 . S
C361 C360 1.390 . S
C361 C362 1.394 . S
C361 C367 1.465 . S
C362 C357 1.399 . S
C362 C361 1.394 . S
C362 C363 1.516 . S
C363 C362 1.516 . S
C363 C364 1.502 . S
C363 C365 1.561 . S
C363 C366 1.526 . S
C364 H348 0.959 . S
C364 H349 0.959 . S
C364 H350 0.961 . S
C364 C363 1.502 . S
C365 H351 0.960 . S
C365 H352 0.961 . S
C365 H353 0.959 . S
C365 C363 1.561 . S
C366 C363 1.526 . S
C366 C367 1.396 . S
C366 C371 1.390 . S
C367 C361 1.465 . S
C367 C366 1.396 . S
C367 C368 1.399 . S
C368 H354 0.929 . S
C368 C367 1.399 . S
C368 C369 1.385 . S
C369 H355 0.931 . S
C369 C368 1.385 . S
C369 C370 1.389 . S
C370 C369 1.389 . S
C370 C371 1.387 . S
C371 H356 0.930 . S
C371 C366 1.390 . S
C371 C370 1.387 . S
H372 C384 0.930 . S
H373 C386 0.930 . S
H374 C387 0.930 . S
H375 C391 0.959 . S
H376 C391 0.959 . S
H377 C391 0.961 . S
H378 C392 0.960 . S
H379 C392 0.961 . S
H380 C392 0.959 . S
H381 C395 0.929 . S
H382 C396 0.931 . S
H383 C398 0.930 . S
C384 H372 0.930 . S
C384 C385 1.399 . S
C384 C389 1.399 . S
C385 C384 1.399 . S
C385 C386 1.376 . S
C386 H373 0.930 . S
C386 C385 1.376 . S
C386 C387 1.388 . S
C387 H374 0.930 . S
C387 C386 1.388 . S
C387 C388 1.390 . S
C388 C387 1.390 . S
C388 C389 1.394 . S
C388 C394 1.465 . S
C389 C384 1.399 . S
C389 C388 1.394 . S
C389 C390 1.516 . S
C390 C389 1.516 . S
C390 C391 1.502 . S
C390 C392 1.561 . S
C390 C393 1.526 . S
C391 H375 0.959 . S
C391 H376 0.959 . S
C391 H377 0.961 . S
C391 C390 1.502 . S
C392 H378 0.960 . S
C392 H379 0.961 . S
C392 H380 0.959 . S
C392 C390 1.561 . S
C393 C390 1.526 . S
C393 C394 1.396 . S
C393 C398 1.390 . S
C394 C388 1.465 . S
C394 C393 1.396 . S
C394 C395 1.399 . S
C395 H381 0.929 . S
C395 C394 1.399 . S
C395 C396 1.385 . S
C396 H382 0.931 . S
C396 C395 1.385 . S
C396 C397 1.389 . S
C397 C396 1.389 . S
C397 C398 1.387 . S
C398 H383 0.930 . S
C398 C393 1.390 . S
C398 C397 1.387 . S
H399 C411 0.930 . S
H400 C413 0.930 . S
H401 C414 0.930 . S
H402 C418 0.959 . S
H403 C418 0.959 . S
H404 C418 0.961 . S
H405 C419 0.960 . S
H406 C419 0.961 . S
H407 C419 0.959 . S
H408 C422 0.929 . S
H409 C423 0.931 . S
H410 C425 0.930 . S
C411 H399 0.930 . S
C411 C412 1.399 . S
C411 C416 1.399 . S
C412 C411 1.399 . S
C412 C413 1.376 . S
C413 H400 0.930 . S
C413 C412 1.376 . S
C413 C414 1.388 . S
C414 H401 0.930 . S
C414 C413 1.388 . S
C414 C415 1.390 . S
C415 C414 1.390 . S
C415 C416 1.394 . S
C415 C421 1.465 . S
C416 C411 1.399 . S
C416 C415 1.394 . S
C416 C417 1.516 . S
C417 C416 1.516 . S
C417 C418 1.502 . S
C417 C419 1.561 . S
C417 C420 1.526 . S
C418 H402 0.959 . S
C418 H403 0.959 . S
C418 H404 0.961 . S
C418 C417 1.502 . S
C419 H405 0.960 . S
C419 H406 0.961 . S
C419 H407 0.959 . S
C419 C417 1.561 . S
C420 C417 1.526 . S
C420 C421 1.396 . S
C420 C425 1.390 . S
C421 C415 1.465 . S
C421 C420 1.396 . S
C421 C422 1.399 . S
C422 H408 0.929 . S
C422 C421 1.399 . S
C422 C423 1.385 . S
C423 H409 0.931 . S
C423 C422 1.385 . S
C423 C424 1.389 . S
C424 C423 1.389 . S
C424 C425 1.387 . S
C425 H410 0.930 . S
C425 C420 1.390 . S
C425 C424 1.387 . S
H426 C438 0.930 . S
H427 C440 0.930 . S
H428 C441 0.930 . S
H429 C445 0.959 . S
H430 C445 0.959 . S
H431 C445 0.961 . S
H432 C446 0.960 . S
H433 C446 0.961 . S
H434 C446 0.959 . S
H435 C449 0.929 . S
H436 C450 0.931 . S
H437 C452 0.930 . S
C438 H426 0.930 . S
C438 C439 1.399 . S
C438 C443 1.399 . S
C439 C438 1.399 . S
C439 C440 1.376 . S
C440 H427 0.930 . S
C440 C439 1.376 . S
C440 C441 1.388 . S
C441 H428 0.930 . S
C441 C440 1.388 . S
C441 C442 1.390 . S
C442 C441 1.390 . S
C442 C443 1.394 . S
C442 C448 1.465 . S
C443 C438 1.399 . S
C443 C442 1.394 . S
C443 C444 1.516 . S
C444 C443 1.516 . S
C444 C445 1.502 . S
C444 C446 1.561 . S
C444 C447 1.526 . S
C445 H429 0.959 . S
C445 H430 0.959 . S
C445 H431 0.961 . S
C445 C444 1.502 . S
C446 H432 0.960 . S
C446 H433 0.961 . S
C446 H434 0.959 . S
C446 C444 1.561 . S
C447 C444 1.526 . S
C447 C448 1.396 . S
C447 C452 1.390 . S
C448 C442 1.465 . S
C448 C447 1.396 . S
C448 C449 1.399 . S
C449 H435 0.929 . S
C449 C448 1.399 . S
C449 C450 1.385 . S
C450 H436 0.931 . S
C450 C449 1.385 . S
C450 C451 1.389 . S
C451 C450 1.389 . S
C451 C452 1.387 . S
C452 H437 0.930 . S
C452 C447 1.390 . S
C452 C451 1.387 . S
H453 C465 0.930 . S
H454 C467 0.930 . S
H455 C468 0.930 . S
H456 C472 0.959 . S
H457 C472 0.959 . S
H458 C472 0.961 . S
H459 C473 0.960 . S
H460 C473 0.961 . S
H461 C473 0.959 . S
H462 C476 0.929 1_556 S
H463 C477 0.931 . S
H464 C479 0.930 . S
C465 H453 0.930 . S
C465 C466 1.399 . S
C465 C470 1.399 . S
C466 C465 1.399 . S
C466 C467 1.376 1_554 S
C467 H454 0.930 . S
C467 C466 1.376 1_556 S
C467 C468 1.388 . S
C468 H455 0.930 . S
C468 C467 1.388 . S
C468 C469 1.390 1_556 S
C469 C468 1.390 1_554 S
C469 C470 1.394 . S
C469 C475 1.465 . S
C470 C465 1.399 . S
C470 C469 1.394 . S
C470 C471 1.516 . S
C471 C470 1.516 . S
C471 C472 1.502 . S
C471 C473 1.561 . S
C471 C474 1.526 . S
C472 H456 0.959 . S
C472 H457 0.959 . S
C472 H458 0.961 . S
C472 C471 1.502 . S
C473 H459 0.960 . S
C473 H460 0.961 . S
C473 H461 0.959 . S
C473 C471 1.561 . S
C474 C471 1.526 . S
C474 C475 1.396 . S
C474 C479 1.390 . S
C475 C469 1.465 . S
C475 C474 1.396 . S
C475 C476 1.399 . S
C476 H462 0.929 1_554 S
C476 C475 1.399 . S
C476 C477 1.385 . S
C477 H463 0.931 . S
C477 C476 1.385 . S
C477 C478 1.389 . S
C478 C477 1.389 . S
C478 C479 1.387 . S
C479 H464 0.930 . S
C479 C474 1.390 . S
C479 C478 1.387 . S
H480 C492 0.930 . S
H481 C494 0.930 . S
H482 C495 0.930 . S
H483 C499 0.959 . S
H484 C499 0.959 . S
H485 C499 0.961 . S
H486 C500 0.960 . S
H487 C500 0.961 . S
H488 C500 0.959 . S
H489 C503 0.929 . S
H490 C504 0.931 . S
H491 C506 0.930 . S
C492 H480 0.930 . S
C492 C493 1.399 . S
C492 C497 1.399 . S
C493 C492 1.399 . S
C493 C494 1.376 . S
C494 H481 0.930 . S
C494 C493 1.376 . S
C494 C495 1.388 . S
C495 H482 0.930 . S
C495 C494 1.388 . S
C495 C496 1.390 . S
C496 C495 1.390 . S
C496 C497 1.394 . S
C496 C502 1.465 . S
C497 C492 1.399 . S
C497 C496 1.394 . S
C497 C498 1.516 . S
C498 C497 1.516 . S
C498 C499 1.502 . S
C498 C500 1.561 . S
C498 C501 1.526 . S
C499 H483 0.959 . S
C499 H484 0.959 . S
C499 H485 0.961 . S
C499 C498 1.502 . S
C500 H486 0.960 . S
C500 H487 0.961 . S
C500 H488 0.959 . S
C500 C498 1.561 . S
C501 C498 1.526 . S
C501 C502 1.396 . S
C501 C506 1.390 . S
C502 C496 1.465 . S
C502 C501 1.396 . S
C502 C503 1.399 . S
C503 H489 0.929 . S
C503 C502 1.399 . S
C503 C504 1.385 . S
C504 H490 0.931 . S
C504 C503 1.385 . S
C504 C505 1.389 . S
C505 C504 1.389 . S
C505 C506 1.387 . S
C506 H491 0.930 . S
C506 C501 1.390 . S
C506 C505 1.387 . S
H507 C519 0.930 . S
H508 C521 0.930 . S
H509 C522 0.930 . S
H510 C526 0.959 . S
H511 C526 0.959 . S
H512 C526 0.961 . S
H513 C527 0.960 . S
H514 C527 0.961 . S
H515 C527 0.959 . S
H516 C530 0.929 . S
H517 C531 0.931 . S
H518 C533 0.930 . S
C519 H507 0.930 . S
C519 C520 1.399 . S
C519 C524 1.399 . S
C520 C519 1.399 . S
C520 C521 1.376 . S
C521 H508 0.930 . S
C521 C520 1.376 . S
C521 C522 1.388 . S
C522 H509 0.930 . S
C522 C521 1.388 . S
C522 C523 1.390 . S
C523 C522 1.390 . S
C523 C524 1.394 . S
C523 C529 1.465 . S
C524 C519 1.399 . S
C524 C523 1.394 . S
C524 C525 1.516 . S
C525 C524 1.516 . S
C525 C526 1.502 . S
C525 C527 1.561 . S
C525 C528 1.526 . S
C526 H510 0.959 . S
C526 H511 0.959 . S
C526 H512 0.961 . S
C526 C525 1.502 . S
C527 H513 0.960 . S
C527 H514 0.961 . S
C527 H515 0.959 . S
C527 C525 1.561 . S
C528 C525 1.526 . S
C528 C529 1.396 . S
C528 C533 1.390 . S
C529 C523 1.465 . S
C529 C528 1.396 . S
C529 C530 1.399 . S
C530 H516 0.929 . S
C530 C529 1.399 . S
C530 C531 1.385 . S
C531 H517 0.931 . S
C531 C530 1.385 . S
C531 C532 1.389 . S
C532 C531 1.389 . S
C532 C533 1.387 . S
C533 H518 0.930 . S
C533 C528 1.390 . S
C533 C532 1.387 . S
H534 C546 0.930 . S
H535 C548 0.930 . S
H536 C549 0.930 . S
H537 C553 0.959 . S
H538 C553 0.959 . S
H539 C553 0.961 . S
H540 C554 0.960 . S
H541 C554 0.961 . S
H542 C554 0.959 . S
H543 C557 0.929 . S
H544 C558 0.931 . S
H545 C560 0.930 . S
C546 H534 0.930 . S
C546 C547 1.399 . S
C546 C551 1.399 . S
C547 C546 1.399 . S
C547 C548 1.376 . S
C548 H535 0.930 . S
C548 C547 1.376 . S
C548 C549 1.388 . S
C549 H536 0.930 . S
C549 C548 1.388 . S
C549 C550 1.390 . S
C550 C549 1.390 . S
C550 C551 1.394 . S
C550 C556 1.465 . S
C551 C546 1.399 . S
C551 C550 1.394 . S
C551 C552 1.516 . S
C552 C551 1.516 . S
C552 C553 1.502 . S
C552 C554 1.561 . S
C552 C555 1.526 . S
C553 H537 0.959 . S
C553 H538 0.959 . S
C553 H539 0.961 . S
C553 C552 1.502 . S
C554 H540 0.960 . S
C554 H541 0.961 . S
C554 H542 0.959 . S
C554 C552 1.561 . S
C555 C552 1.526 . S
C555 C556 1.396 . S
C555 C560 1.390 . S
C556 C550 1.465 . S
C556 C555 1.396 . S
C556 C557 1.399 . S
C557 H543 0.929 . S
C557 C556 1.399 . S
C557 C558 1.385 . S
C558 H544 0.931 . S
C558 C557 1.385 . S
C558 C559 1.389 . S
C559 C558 1.389 . S
C559 C560 1.387 . S
C560 H545 0.930 . S
C560 C555 1.390 . S
C560 C559 1.387 . S
H561 C573 0.930 . S
H562 C575 0.930 . S
H563 C576 0.930 . S
H564 C580 0.959 . S
H565 C580 0.959 . S
H566 C580 0.961 . S
H567 C581 0.960 . S
H568 C581 0.961 . S
H569 C581 0.959 . S
H570 C584 0.929 . S
H571 C585 0.931 . S
H572 C587 0.930 . S
C573 H561 0.930 . S
C573 C574 1.399 . S
C573 C578 1.399 . S
C574 C573 1.399 . S
C574 C575 1.376 . S
C575 H562 0.930 . S
C575 C574 1.376 . S
C575 C576 1.388 . S
C576 H563 0.930 . S
C576 C575 1.388 . S
C576 C577 1.390 . S
C577 C576 1.390 . S
C577 C578 1.394 . S
C577 C583 1.465 . S
C578 C573 1.399 . S
C578 C577 1.394 . S
C578 C579 1.516 . S
C579 C578 1.516 . S
C579 C580 1.502 . S
C579 C581 1.561 . S
C579 C582 1.526 . S
C580 H564 0.959 . S
C580 H565 0.959 . S
C580 H566 0.961 . S
C580 C579 1.502 . S
C581 H567 0.960 . S
C581 H568 0.961 . S
C581 H569 0.959 . S
C581 C579 1.561 . S
C582 C579 1.526 . S
C582 C583 1.396 . S
C582 C587 1.390 . S
C583 C577 1.465 . S
C583 C582 1.396 . S
C583 C584 1.399 . S
C584 H570 0.929 . S
C584 C583 1.399 . S
C584 C585 1.385 . S
C585 H571 0.931 . S
C585 C584 1.385 . S
C585 C586 1.389 . S
C586 C585 1.389 . S
C586 C587 1.387 . S
C587 H572 0.930 . S
C587 C582 1.390 . S
C587 C586 1.387 . S
H588 C600 0.930 . S
H589 C602 0.930 . S
H590 C603 0.930 . S
H591 C607 0.959 . S
H592 C607 0.959 . S
H593 C607 0.961 . S
H594 C608 0.960 . S
H595 C608 0.961 . S
H596 C608 0.959 . S
H597 C611 0.929 . S
H598 C612 0.931 . S
H599 C614 0.930 . S
C600 H588 0.930 . S
C600 C601 1.399 . S
C600 C605 1.399 . S
C601 C600 1.399 . S
C601 C602 1.376 . S
C602 H589 0.930 . S
C602 C601 1.376 . S
C602 C603 1.388 . S
C603 H590 0.930 . S
C603 C602 1.388 . S
C603 C604 1.390 . S
C604 C603 1.390 . S
C604 C605 1.394 . S
C604 C610 1.465 . S
C605 C600 1.399 . S
C605 C604 1.394 . S
C605 C606 1.516 . S
C606 C605 1.516 . S
C606 C607 1.502 . S
C606 C608 1.561 . S
C606 C609 1.526 . S
C607 H591 0.959 . S
C607 H592 0.959 . S
C607 H593 0.961 . S
C607 C606 1.502 . S
C608 H594 0.960 . S
C608 H595 0.961 . S
C608 H596 0.959 . S
C608 C606 1.561 . S
C609 C606 1.526 . S
C609 C610 1.396 . S
C609 C614 1.390 . S
C610 C604 1.465 . S
C610 C609 1.396 . S
C610 C611 1.399 . S
C611 H597 0.929 . S
C611 C610 1.399 . S
C611 C612 1.385 . S
C612 H598 0.931 . S
C612 C611 1.385 . S
C612 C613 1.389 . S
C613 C612 1.389 . S
C613 C614 1.387 . S
C614 H599 0.930 . S
C614 C609 1.390 . S
C614 C613 1.387 . S
H615 C627 0.930 . S
H616 C629 0.930 . S
H617 C630 0.930 . S
H618 C634 0.959 . S
H619 C634 0.959 . S
H620 C634 0.961 . S
H621 C635 0.960 . S
H622 C635 0.961 . S
H623 C635 0.959 . S
H624 C638 0.929 . S
H625 C639 0.931 . S
H626 C641 0.930 . S
C627 H615 0.930 . S
C627 C628 1.399 . S
C627 C632 1.399 . S
C628 C627 1.399 . S
C628 C629 1.376 . S
C629 H616 0.930 . S
C629 C628 1.376 . S
C629 C630 1.388 . S
C630 H617 0.930 . S
C630 C629 1.388 . S
C630 C631 1.390 . S
C631 C630 1.390 . S
C631 C632 1.394 . S
C631 C637 1.465 . S
C632 C627 1.399 . S
C632 C631 1.394 . S
C632 C633 1.516 . S
C633 C632 1.516 . S
C633 C634 1.502 . S
C633 C635 1.561 . S
C633 C636 1.526 . S
C634 H618 0.959 . S
C634 H619 0.959 . S
C634 H620 0.961 . S
C634 C633 1.502 . S
C635 H621 0.960 . S
C635 H622 0.961 . S
C635 H623 0.959 . S
C635 C633 1.561 . S
C636 C633 1.526 . S
C636 C637 1.396 . S
C636 C641 1.390 . S
C637 C631 1.465 . S
C637 C636 1.396 . S
C637 C638 1.399 . S
C638 H624 0.929 . S
C638 C637 1.399 . S
C638 C639 1.385 1_556 S
C639 H625 0.931 . S
C639 C638 1.385 1_554 S
C639 C640 1.389 1_554 S
C640 C639 1.389 1_556 S
C640 C641 1.387 . S
C641 H626 0.930 . S
C641 C636 1.390 . S
C641 C640 1.387 . S
H642 C654 0.930 . S
H643 C656 0.930 . S
H644 C657 0.930 . S
H645 C661 0.959 . S
H646 C661 0.959 . S
H647 C661 0.961 . S
H648 C662 0.960 . S
H649 C662 0.961 . S
H650 C662 0.959 . S
H651 C665 0.929 . S
H652 C666 0.931 . S
H653 C668 0.930 . S
C654 H642 0.930 . S
C654 C655 1.399 . S
C654 C659 1.399 . S
C655 C654 1.399 . S
C655 C656 1.376 . S
C656 H643 0.930 . S
C656 C655 1.376 . S
C656 C657 1.388 . S
C657 H644 0.930 . S
C657 C656 1.388 . S
C657 C658 1.390 . S
C658 C657 1.390 . S
C658 C659 1.394 . S
C658 C664 1.465 . S
C659 C654 1.399 . S
C659 C658 1.394 . S
C659 C660 1.516 . S
C660 C659 1.516 . S
C660 C661 1.502 . S
C660 C662 1.561 . S
C660 C663 1.526 . S
C661 H645 0.959 . S
C661 H646 0.959 . S
C661 H647 0.961 . S
C661 C660 1.502 . S
C662 H648 0.960 . S
C662 H649 0.961 . S
C662 H650 0.959 . S
C662 C660 1.561 . S
C663 C660 1.526 . S
C663 C664 1.396 . S
C663 C668 1.390 . S
C664 C658 1.465 . S
C664 C663 1.396 . S
C664 C665 1.399 . S
C665 H651 0.929 . S
C665 C664 1.399 . S
C665 C666 1.385 . S
C666 H652 0.931 . S
C666 C665 1.385 . S
C666 C667 1.389 . S
C667 C666 1.389 . S
C667 C668 1.387 . S
C668 H653 0.930 . S
C668 C663 1.390 . S
C668 C667 1.387 . S
H669 C681 0.930 . S
H670 C683 0.930 . S
H671 C684 0.930 . S
H672 C688 0.959 . S
H673 C688 0.959 . S
H674 C688 0.961 . S
H675 C689 0.960 . S
H676 C689 0.961 . S
H677 C689 0.959 . S
H678 C692 0.929 . S
H679 C693 0.931 . S
H680 C695 0.930 . S
C681 H669 0.930 . S
C681 C682 1.399 . S
C681 C686 1.399 . S
C682 C681 1.399 . S
C682 C683 1.376 . S
C683 H670 0.930 . S
C683 C682 1.376 . S
C683 C684 1.388 . S
C684 H671 0.930 . S
C684 C683 1.388 . S
C684 C685 1.390 . S
C685 C684 1.390 . S
C685 C686 1.394 . S
C685 C691 1.465 . S
C686 C681 1.399 . S
C686 C685 1.394 . S
C686 C687 1.516 . S
C687 C686 1.516 . S
C687 C688 1.502 . S
C687 C689 1.561 . S
C687 C690 1.526 . S
C688 H672 0.959 . S
C688 H673 0.959 . S
C688 H674 0.961 . S
C688 C687 1.502 . S
C689 H675 0.960 . S
C689 H676 0.961 . S
C689 H677 0.959 . S
C689 C687 1.561 . S
C690 C687 1.526 . S
C690 C691 1.396 . S
C690 C695 1.390 . S
C691 C685 1.465 . S
C691 C690 1.396 . S
C691 C692 1.399 . S
C692 H678 0.929 . S
C692 C691 1.399 . S
C692 C693 1.385 . S
C693 H679 0.931 . S
C693 C692 1.385 . S
C693 C694 1.389 . S
C694 C693 1.389 . S
C694 C695 1.387 . S
C695 H680 0.930 . S
C695 C690 1.390 . S
C695 C694 1.387 . S
H696 C708 0.930 . S
H697 C710 0.930 . S
H698 C711 0.930 . S
H699 C715 0.959 . S
H700 C715 0.959 . S
H701 C715 0.961 . S
H702 C716 0.960 . S
H703 C716 0.961 . S
H704 C716 0.959 . S
H705 C719 0.929 . S
H706 C720 0.931 . S
H707 C722 0.930 . S
C708 H696 0.930 . S
C708 C709 1.399 . S
C708 C713 1.399 . S
C709 C708 1.399 . S
C709 C710 1.376 . S
C710 H697 0.930 . S
C710 C709 1.376 . S
C710 C711 1.388 . S
C711 H698 0.930 . S
C711 C710 1.388 . S
C711 C712 1.390 . S
C712 C711 1.390 . S
C712 C713 1.394 . S
C712 C718 1.465 . S
C713 C708 1.399 . S
C713 C712 1.394 . S
C713 C714 1.516 . S
C714 C713 1.516 . S
C714 C715 1.502 . S
C714 C716 1.561 . S
C714 C717 1.526 . S
C715 H699 0.959 . S
C715 H700 0.959 . S
C715 H701 0.961 . S
C715 C714 1.502 . S
C716 H702 0.960 . S
C716 H703 0.961 . S
C716 H704 0.959 . S
C716 C714 1.561 . S
C717 C714 1.526 . S
C717 C718 1.396 . S
C717 C722 1.390 . S
C718 C712 1.465 . S
C718 C717 1.396 . S
C718 C719 1.399 . S
C719 H705 0.929 . S
C719 C718 1.399 . S
C719 C720 1.385 . S
C720 H706 0.931 . S
C720 C719 1.385 . S
C720 C721 1.389 . S
C721 C720 1.389 . S
C721 C722 1.387 . S
C722 H707 0.930 . S
C722 C717 1.390 . S
C722 C721 1.387 . S
H723 C735 0.930 . S
H724 C737 0.930 . S
H725 C738 0.930 . S
H726 C742 0.959 . S
H727 C742 0.959 . S
H728 C742 0.961 . S
H729 C743 0.960 . S
H730 C743 0.961 . S
H731 C743 0.959 . S
H732 C746 0.929 . S
H733 C747 0.931 . S
H734 C749 0.930 . S
C735 H723 0.930 . S
C735 C736 1.399 . S
C735 C740 1.399 . S
C736 C735 1.399 . S
C736 C737 1.376 . S
C737 H724 0.930 . S
C737 C736 1.376 . S
C737 C738 1.388 . S
C738 H725 0.930 . S
C738 C737 1.388 . S
C738 C739 1.390 . S
C739 C738 1.390 . S
C739 C740 1.394 . S
C739 C745 1.465 . S
C740 C735 1.399 . S
C740 C739 1.394 . S
C740 C741 1.516 . S
C741 C740 1.516 . S
C741 C742 1.502 . S
C741 C743 1.561 . S
C741 C744 1.526 . S
C742 H726 0.959 . S
C742 H727 0.959 . S
C742 H728 0.961 . S
C742 C741 1.502 . S
C743 H729 0.960 . S
C743 H730 0.961 . S
C743 H731 0.959 . S
C743 C741 1.561 . S
C744 C741 1.526 . S
C744 C745 1.396 . S
C744 C749 1.390 . S
C745 C739 1.465 . S
C745 C744 1.396 . S
C745 C746 1.399 . S
C746 H732 0.929 . S
C746 C745 1.399 . S
C746 C747 1.385 . S
C747 H733 0.931 . S
C747 C746 1.385 . S
C747 C748 1.389 . S
C748 C747 1.389 . S
C748 C749 1.387 . S
C749 H734 0.930 . S
C749 C744 1.390 . S
C749 C748 1.387 . S
H750 C762 0.930 . S
H751 C764 0.930 . S
H752 C765 0.930 . S
H753 C769 0.959 . S
H754 C769 0.959 . S
H755 C769 0.961 . S
H756 C770 0.960 . S
H757 C770 0.961 . S
H758 C770 0.959 . S
H759 C773 0.929 . S
H760 C774 0.931 . S
H761 C776 0.930 . S
C762 H750 0.930 . S
C762 C763 1.399 . S
C762 C767 1.399 . S
C763 C762 1.399 . S
C763 C764 1.376 . S
C764 H751 0.930 . S
C764 C763 1.376 . S
C764 C765 1.388 . S
C765 H752 0.930 . S
C765 C764 1.388 . S
C765 C766 1.390 . S
C766 C765 1.390 . S
C766 C767 1.394 . S
C766 C772 1.465 . S
C767 C762 1.399 . S
C767 C766 1.394 . S
C767 C768 1.516 . S
C768 C767 1.516 . S
C768 C769 1.502 . S
C768 C770 1.561 . S
C768 C771 1.526 . S
C769 H753 0.959 . S
C769 H754 0.959 . S
C769 H755 0.961 . S
C769 C768 1.502 . S
C770 H756 0.960 . S
C770 H757 0.961 . S
C770 H758 0.959 . S
C770 C768 1.561 . S
C771 C768 1.526 . S
C771 C772 1.396 . S
C771 C776 1.390 . S
C772 C766 1.465 . S
C772 C771 1.396 . S
C772 C773 1.399 . S
C773 H759 0.929 . S
C773 C772 1.399 . S
C773 C774 1.385 . S
C774 H760 0.931 . S
C774 C773 1.385 . S
C774 C775 1.389 . S
C775 C774 1.389 . S
C775 C776 1.387 . S
C776 H761 0.930 . S
C776 C771 1.390 . S
C776 C775 1.387 . S
H777 C789 0.930 . S
H778 C791 0.930 . S
H779 C792 0.930 . S
H780 C796 0.959 . S
H781 C796 0.959 . S
H782 C796 0.961 . S
H783 C797 0.960 . S
H784 C797 0.961 . S
H785 C797 0.959 . S
H786 C800 0.929 . S
H787 C801 0.931 . S
H788 C803 0.930 . S
C789 H777 0.930 . S
C789 C790 1.399 . S
C789 C794 1.399 . S
C790 C789 1.399 . S
C790 C791 1.376 . S
C791 H778 0.930 . S
C791 C790 1.376 . S
C791 C792 1.388 . S
C792 H779 0.930 . S
C792 C791 1.388 . S
C792 C793 1.390 . S
C793 C792 1.390 . S
C793 C794 1.394 . S
C793 C799 1.465 . S
C794 C789 1.399 . S
C794 C793 1.394 . S
C794 C795 1.516 . S
C795 C794 1.516 . S
C795 C796 1.502 . S
C795 C797 1.561 . S
C795 C798 1.526 . S
C796 H780 0.959 . S
C796 H781 0.959 . S
C796 H782 0.961 . S
C796 C795 1.502 . S
C797 H783 0.960 . S
C797 H784 0.961 . S
C797 H785 0.959 . S
C797 C795 1.561 . S
C798 C795 1.526 . S
C798 C799 1.396 . S
C798 C803 1.390 . S
C799 C793 1.465 . S
C799 C798 1.396 . S
C799 C800 1.399 . S
C800 H786 0.929 . S
C800 C799 1.399 . S
C800 C801 1.385 . S
C801 H787 0.931 . S
C801 C800 1.385 . S
C801 C802 1.389 . S
C802 C801 1.389 . S
C802 C803 1.387 . S
C803 H788 0.930 . S
C803 C798 1.390 . S
C803 C802 1.387 . S
H804 C816 0.930 . S
H805 C818 0.930 . S
H806 C819 0.930 . S
H807 C823 0.959 . S
H808 C823 0.959 . S
H809 C823 0.961 . S
H810 C824 0.960 . S
H811 C824 0.961 . S
H812 C824 0.959 . S
H813 C827 0.929 . S
H814 C828 0.931 . S
H815 C830 0.930 . S
C816 H804 0.930 . S
C816 C817 1.399 . S
C816 C821 1.399 . S
C817 C816 1.399 . S
C817 C818 1.376 . S
C818 H805 0.930 . S
C818 C817 1.376 . S
C818 C819 1.388 . S
C819 H806 0.930 . S
C819 C818 1.388 . S
C819 C820 1.390 . S
C820 C819 1.390 . S
C820 C821 1.394 . S
C820 C826 1.465 1_554 S
C821 C816 1.399 . S
C821 C820 1.394 . S
C821 C822 1.516 . S
C822 C821 1.516 . S
C822 C823 1.502 . S
C822 C824 1.561 . S
C822 C825 1.526 . S
C823 H807 0.959 . S
C823 H808 0.959 . S
C823 H809 0.961 . S
C823 C822 1.502 . S
C824 H810 0.960 . S
C824 H811 0.961 . S
C824 H812 0.959 . S
C824 C822 1.561 . S
C825 C822 1.526 . S
C825 C826 1.396 1_554 S
C825 C830 1.390 1_554 S
C826 C820 1.465 1_556 S
C826 C825 1.396 1_556 S
C826 C827 1.399 . S
C827 H813 0.929 . S
C827 C826 1.399 . S
C827 C828 1.385 . S
C828 H814 0.931 . S
C828 C827 1.385 . S
C828 C829 1.389 . S
C829 C828 1.389 . S
C829 C830 1.387 . S
C830 H815 0.930 . S
C830 C825 1.390 1_556 S
C830 C829 1.387 . S
H831 C843 0.930 . S
H832 C845 0.930 . S
H833 C846 0.930 . S
H834 C850 0.959 . S
H835 C850 0.959 . S
H836 C850 0.961 . S
H837 C851 0.960 . S
H838 C851 0.961 . S
H839 C851 0.959 . S
H840 C854 0.929 . S
H841 C855 0.931 . S
H842 C857 0.930 . S
C843 H831 0.930 . S
C843 C844 1.399 . S
C843 C848 1.399 . S
C844 C843 1.399 . S
C844 C845 1.376 . S
C845 H832 0.930 . S
C845 C844 1.376 . S
C845 C846 1.388 . S
C846 H833 0.930 . S
C846 C845 1.388 . S
C846 C847 1.390 . S
C847 C846 1.390 . S
C847 C848 1.394 . S
C847 C853 1.465 . S
C848 C843 1.399 . S
C848 C847 1.394 . S
C848 C849 1.516 . S
C849 C848 1.516 . S
C849 C850 1.502 . S
C849 C851 1.561 . S
C849 C852 1.526 . S
C850 H834 0.959 . S
C850 H835 0.959 . S
C850 H836 0.961 . S
C850 C849 1.502 . S
C851 H837 0.960 . S
C851 H838 0.961 . S
C851 H839 0.959 . S
C851 C849 1.561 . S
C852 C849 1.526 . S
C852 C853 1.396 . S
C852 C857 1.390 . S
C853 C847 1.465 . S
C853 C852 1.396 . S
C853 C854 1.399 . S
C854 H840 0.929 . S
C854 C853 1.399 . S
C854 C855 1.385 . S
C855 H841 0.931 . S
C855 C854 1.385 . S
C855 C856 1.389 . S
C856 C855 1.389 . S
C856 C857 1.387 . S
C857 H842 0.930 . S
C857 C852 1.390 . S
C857 C856 1.387 . S
C235 C201 1.208 . S
C223 C19 1.468 . S
C250 C40 1.401 . S
C262 C131 1.380 . S
C277 C51 1.453 . S
C289 C151 1.523 . S
C304 C72 1.404 . S
C316 C165 1.470 . S
C343 C173 1.334 . S
C331 C103 1.346 . S
C358 C114 1.410 . S
C370 C187 1.251 . S
C385 C30 1.373 . S
C397 C145 1.381 . S
C412 C61 1.439 . S
C424 C159 1.188 . S
C439 C82 1.412 . S
C451 C179 1.454 . S
C478 C193 1.456 . S
C466 C93 1.316 1_554 S
C505 C207 1.455 . S
C493 C124 1.346 . S
C532 C137 1.513 . S
C520 C9 1.451 . S
C547 C17 1.415 . S
C559 C144 1.442 . S
C574 C38 1.398 . S
C586 C158 1.478 . S
C613 C180 1.466 . S
C601 C54 1.375 . S
C628 C75 1.448 . S
C640 C194 1.490 1_556 S
C667 C208 1.465 . S
C655 C101 1.336 . S
C694 C138 1.428 . S
C682 C117 1.363 . S
C721 C200 1.445 . S
C709 C33 1.406 . S
C736 C59 1.445 . S
C748 C130 1.427 . S
C775 C152 1.491 . S
C763 C80 1.384 . S
C790 C96 1.392 . S
C802 C166 1.489 . S
C817 C122 1.487 . S
C829 C172 1.460 . S
C844 C12 1.398 . S
C856 C186 1.491 . S
