# Generated by pormake.
# Topology pyr, (3,6)-cn, num edge types: 1
# Building blocks:
#     Node 0, Type 0, BuildingBlock: KAKCAD_clean_linker_0, # of connection points: 3
#     Node 1, Type 0, BuildingBlock: KAKCAD_clean_linker_0, # of connection points: 3
#     Node 2, Type 0, BuildingBlock: KAKCAD_clean_linker_0, # of connection points: 3
#     Node 3, Type 0, BuildingBlock: KAKCAD_clean_linker_0, # of connection points: 3
#     Node 4, Type 0, BuildingBlock: KAKCAD_clean_linker_0, # of connection points: 3
#     Node 5, Type 0, BuildingBlock: KAKCAD_clean_linker_0, # of connection points: 3
#     Node 6, Type 0, BuildingBlock: KAKCAD_clean_linker_0, # of connection points: 3
#     Node 7, Type 0, BuildingBlock: KAKCAD_clean_linker_0, # of connection points: 3
#     Node 8, Type 1, BuildingBlock: BETFEN_clean_sbu_0, # of connection points: 6
#     Node 9, Type 1, BuildingBlock: BETFEN_clean_sbu_0, # of connection points: 6
#     Node 10, Type 1, BuildingBlock: BETFEN_clean_sbu_0, # of connection points: 6
#     Node 11, Type 1, BuildingBlock: BETFEN_clean_sbu_0, # of connection points: 6
#     Edge 12, Type (0, 1), BuildingBlock: KIFKEQ_clean_linker_1, # of connection points: 2
#     Edge 13, Type (0, 1), BuildingBlock: KIFKEQ_clean_linker_1, # of connection points: 2
#     Edge 14, Type (0, 1), BuildingBlock: KIFKEQ_clean_linker_1, # of connection points: 2
#     Edge 15, Type (0, 1), BuildingBlock: KIFKEQ_clean_linker_1, # of connection points: 2
#     Edge 16, Type (0, 1), BuildingBlock: KIFKEQ_clean_linker_1, # of connection points: 2
#     Edge 17, Type (0, 1), BuildingBlock: KIFKEQ_clean_linker_1, # of connection points: 2
#     Edge 18, Type (0, 1), BuildingBlock: KIFKEQ_clean_linker_1, # of connection points: 2
#     Edge 19, Type (0, 1), BuildingBlock: KIFKEQ_clean_linker_1, # of connection points: 2
#     Edge 20, Type (0, 1), BuildingBlock: KIFKEQ_clean_linker_1, # of connection points: 2
#     Edge 21, Type (0, 1), BuildingBlock: KIFKEQ_clean_linker_1, # of connection points: 2
#     Edge 22, Type (0, 1), BuildingBlock: KIFKEQ_clean_linker_1, # of connection points: 2
#     Edge 23, Type (0, 1), BuildingBlock: KIFKEQ_clean_linker_1, # of connection points: 2
#     Edge 24, Type (0, 1), BuildingBlock: KIFKEQ_clean_linker_1, # of connection points: 2
#     Edge 25, Type (0, 1), BuildingBlock: KIFKEQ_clean_linker_1, # of connection points: 2
#     Edge 26, Type (0, 1), BuildingBlock: KIFKEQ_clean_linker_1, # of connection points: 2
#     Edge 27, Type (0, 1), BuildingBlock: KIFKEQ_clean_linker_1, # of connection points: 2
#     Edge 28, Type (0, 1), BuildingBlock: KIFKEQ_clean_linker_1, # of connection points: 2
#     Edge 29, Type (0, 1), BuildingBlock: KIFKEQ_clean_linker_1, # of connection points: 2
#     Edge 30, Type (0, 1), BuildingBlock: KIFKEQ_clean_linker_1, # of connection points: 2
#     Edge 31, Type (0, 1), BuildingBlock: KIFKEQ_clean_linker_1, # of connection points: 2
#     Edge 32, Type (0, 1), BuildingBlock: KIFKEQ_clean_linker_1, # of connection points: 2
#     Edge 33, Type (0, 1), BuildingBlock: KIFKEQ_clean_linker_1, # of connection points: 2
#     Edge 34, Type (0, 1), BuildingBlock: KIFKEQ_clean_linker_1, # of connection points: 2
#     Edge 35, Type (0, 1), BuildingBlock: KIFKEQ_clean_linker_1, # of connection points: 2
# Relax obj value: 0.130
# Max RMSD: 0.233
# Mean RMSD: 0.112
data_MOF--net-pyr--node1-BETFEN_clean_sbu_0--node2-KAKCAD_clean_linker_0--edge1-KIFKEQ_clean_linker_1
_symmetry_space_group_name_H-M    P1
_symmetry_Int_Tables_number       1
_symmetry_cell_setting            triclinic
loop_
_symmetry_equiv_pos_as_xyz
'x, y, z'
_cell_length_a     46.228397
_cell_length_b     49.308133
_cell_length_c     46.542255
_cell_angle_alpha  90.912374
_cell_angle_beta   98.370713
_cell_angle_gamma 105.65412
loop_
_atom_site_label
_atom_site_type_symbol
_atom_site_fract_x
_atom_site_fract_y
_atom_site_fract_z
_atom_type_partial_charge
C0 C 0.29238 0.29678 0.38176 0.0
C1 C 0.30709 0.28187 0.40171 0.0
C2 C 0.30772 0.31224 0.36104 0.0
C3 C 0.33824 0.31332 0.35981 0.0
C4 C 0.35345 0.29963 0.38075 0.0
C5 C 0.33801 0.28402 0.40146 0.0
C6 C 0.35266 0.326 0.33479 0.0
C7 C 0.34612 0.35003 0.32284 0.0
C8 C 0.35342 0.35838 0.29542 0.0
C9 C 0.37015 0.34381 0.28126 0.0
C10 C 0.3782 0.32047 0.29352 0.0
C11 C 0.36921 0.31169 0.32022 0.0
C12 C 0.39275 0.30309 0.27707 0.0
C13 C 0.38339 0.29696 0.24698 0.0
C14 C 0.41436 0.29068 0.29167 0.0
C15 C 0.42528 0.27162 0.27681 0.0
C16 C 0.41505 0.26479 0.24698 0.0
C17 C 0.33992 0.37946 0.27997 0.0
C18 C 0.31052 0.38051 0.28363 0.0
C19 C 0.35472 0.39687 0.25973 0.0
C20 C 0.33997 0.41394 0.24286 0.0
C21 C 0.31048 0.41442 0.24643 0.0
C22 C 0.29619 0.39794 0.26732 0.0
C23 C 0.39453 0.27812 0.23209 0.0
H24 H 0.26845 0.29521 0.38101 0.0
H25 H 0.29504 0.322 0.34494 0.0
H26 H 0.37705 0.30033 0.38062 0.0
H27 H 0.35006 0.27303 0.41681 0.0
H28 H 0.33395 0.36144 0.33442 0.0
H29 H 0.37316 0.29241 0.3286 0.0
H30 H 0.3757 0.34974 0.26002 0.0
H31 H 0.36637 0.30566 0.23509 0.0
H32 H 0.42238 0.29527 0.31475 0.0
H33 H 0.44136 0.26188 0.28874 0.0
H34 H 0.29776 0.3669 0.29814 0.0
H35 H 0.37747 0.39697 0.25651 0.0
H36 H 0.38595 0.27298 0.20917 0.0
H37 H 0.27317 0.39746 0.27007 0.0
H38 H 0.35142 0.4265 0.22682 0.0
C39 C 0.30456 0.85142 0.81299 0.0
C40 C 0.33651 0.86034 0.81698 0.0
C41 C 0.28804 0.839 0.78626 0.0
C42 C 0.30314 0.83526 0.76301 0.0
C43 C 0.33508 0.84391 0.76713 0.0
C44 C 0.35157 0.8563 0.7938 0.0
C45 C 0.28575 0.82319 0.73423 0.0
C46 C 0.26054 0.83214 0.72205 0.0
C47 C 0.24498 0.82216 0.69398 0.0
C48 C 0.2548 0.80259 0.67825 0.0
C49 C 0.28035 0.79397 0.69004 0.0
C50 C 0.29548 0.80409 0.71804 0.0
C51 C 0.29314 0.77624 0.67257 0.0
C52 C 0.27656 0.74859 0.66278 0.0
C53 C 0.32309 0.78666 0.66717 0.0
C54 C 0.33662 0.76953 0.65283 0.0
C55 C 0.32058 0.74149 0.64393 0.0
C56 C 0.22044 0.83432 0.68045 0.0
C57 C 0.20046 0.84152 0.69741 0.0
C58 C 0.21846 0.84109 0.6511 0.0
C59 C 0.19785 0.85563 0.63935 0.0
C60 C 0.17908 0.86402 0.65678 0.0
C61 C 0.1802 0.85643 0.68576 0.0
C62 C 0.29031 0.73119 0.64878 0.0
H63 H 0.29234 0.85399 0.83055 0.0
H64 H 0.26344 0.83226 0.78379 0.0
H65 H 0.34737 0.84181 0.74948 0.0
H66 H 0.37613 0.86344 0.79599 0.0
H67 H 0.25413 0.84813 0.73391 0.0
H68 H 0.3151 0.79718 0.72709 0.0
H69 H 0.24334 0.79479 0.65651 0.0
H70 H 0.25343 0.7402 0.66687 0.0
H71 H 0.33622 0.80798 0.67454 0.0
H72 H 0.36007 0.7779 0.64969 0.0
H73 H 0.20091 0.83614 0.71991 0.0
H74 H 0.23376 0.83631 0.63749 0.0
H75 H 0.27748 0.70965 0.64205 0.0
H76 H 0.16561 0.86233 0.6995 0.0
H77 H 0.19752 0.86142 0.61697 0.0
C78 C 0.74101 0.40215 0.88964 0.0
C79 C 0.76265 0.38773 0.89951 0.0
C80 C 0.71307 0.38776 0.87327 0.0
C81 C 0.70608 0.35861 0.86642 0.0
C82 C 0.72771 0.34419 0.87621 0.0
C83 C 0.75569 0.35858 0.89251 0.0
C84 C 0.67626 0.34333 0.84919 0.0
C85 C 0.66403 0.35517 0.8248 0.0
C86 C 0.63538 0.34152 0.80872 0.0
C87 C 0.61925 0.31494 0.81705 0.0
C88 C 0.63152 0.30241 0.84124 0.0
C89 C 0.65987 0.31704 0.85723 0.0
C90 C 0.61505 0.27439 0.85066 0.0
C91 C 0.58365 0.26733 0.85166 0.0
C92 C 0.63132 0.25518 0.86078 0.0
C93 C 0.61703 0.23033 0.8729 0.0
C94 C 0.58586 0.22366 0.87499 0.0
C95 C 0.62314 0.35541 0.78323 0.0
C96 C 0.62872 0.38498 0.78421 0.0
C97 C 0.60768 0.33986 0.75725 0.0
C98 C 0.59925 0.35369 0.73258 0.0
C99 C 0.60649 0.38331 0.73337 0.0
C100 C 0.62083 0.39873 0.75954 0.0
C101 C 0.56923 0.24226 0.86367 0.0
H102 H 0.74542 0.42449 0.89501 0.0
H103 H 0.69671 0.3994 0.86639 0.0
H104 H 0.72316 0.32181 0.87093 0.0
H105 H 0.77202 0.34691 0.89934 0.0
H106 H 0.67731 0.37499 0.81802 0.0
H107 H 0.66895 0.30825 0.87657 0.0
H108 H 0.59726 0.30406 0.80482 0.0
H109 H 0.57042 0.28164 0.84414 0.0
H110 H 0.65543 0.25965 0.85992 0.0
H111 H 0.63081 0.21686 0.88158 0.0
H112 H 0.63969 0.39768 0.80401 0.0
H113 H 0.60311 0.31712 0.75559 0.0
H114 H 0.5451 0.23767 0.86441 0.0
H115 H 0.62611 0.42154 0.76088 0.0
H116 H 0.58811 0.34134 0.71261 0.0
C117 C 0.87312 0.60663 0.24475 0.0
C118 C 0.90356 0.61759 0.24035 0.0
C119 C 0.86162 0.61751 0.2676 0.0
C120 C 0.88021 0.63955 0.28743 0.0
C121 C 0.91085 0.65013 0.28313 0.0
C122 C 0.92214 0.6396 0.25999 0.0
C123 C 0.86796 0.65145 0.31226 0.0
C124 C 0.843 0.63482 0.32469 0.0
C125 C 0.83227 0.64571 0.34817 0.0
C126 C 0.84644 0.67361 0.35906 0.0
C127 C 0.87068 0.69103 0.34715 0.0
C128 C 0.8813 0.67972 0.32389 0.0
C129 C 0.88464 0.72097 0.35958 0.0
C130 C 0.86612 0.73758 0.36728 0.0
C131 C 0.91638 0.73269 0.36553 0.0
C132 C 0.92914 0.75973 0.37957 0.0
C133 C 0.91057 0.77609 0.38785 0.0
C134 C 0.80635 0.62859 0.36212 0.0
C135 C 0.77686 0.61824 0.34629 0.0
C136 C 0.81024 0.62549 0.39237 0.0
C137 C 0.78543 0.6129 0.40647 0.0
C138 C 0.75568 0.60348 0.39092 0.0
C139 C 0.75185 0.6061 0.36051 0.0
C140 C 0.87883 0.76464 0.38107 0.0
H141 H 0.85785 0.5899 0.23007 0.0
H142 H 0.83785 0.60877 0.26926 0.0
H143 H 0.92659 0.66642 0.29791 0.0
H144 H 0.94581 0.64842 0.25784 0.0
H145 H 0.83239 0.61312 0.31689 0.0
H146 H 0.8995 0.69341 0.31441 0.0
H147 H 0.8384 0.68184 0.37718 0.0
H148 H 0.84158 0.72954 0.36283 0.0
H149 H 0.93145 0.72061 0.36012 0.0
H150 H 0.95366 0.76782 0.38397 0.0
H151 H 0.77294 0.62059 0.32306 0.0
H152 H 0.83257 0.63342 0.40529 0.0
H153 H 0.86363 0.77627 0.38714 0.0
H154 H 0.7294 0.59896 0.3477 0.0
H155 H 0.78942 0.61153 0.42985 0.0
C156 C 0.7295 0.72897 0.67559 0.0
C157 C 0.73387 0.75754 0.66969 0.0
C158 C 0.71128 0.71704 0.69618 0.0
C159 C 0.69732 0.73352 0.71146 0.0
C160 C 0.7006 0.76172 0.70444 0.0
C161 C 0.71855 0.77353 0.68376 0.0
C162 C 0.68244 0.7227 0.73688 0.0
C163 C 0.69597 0.70705 0.75694 0.0
C164 C 0.68559 0.70086 0.78366 0.0
C165 C 0.66134 0.7107 0.79026 0.0
C166 C 0.64768 0.72667 0.77061 0.0
C167 C 0.65758 0.73148 0.7435 0.0
C168 C 0.62674 0.74201 0.78017 0.0
C169 C 0.60584 0.72999 0.79873 0.0
C170 C 0.63 0.77023 0.77321 0.0
C171 C 0.61392 0.78638 0.78546 0.0
C172 C 0.59433 0.77486 0.80522 0.0
C173 C 0.70277 0.68724 0.80579 0.0
C174 C 0.715 0.66575 0.79723 0.0
C175 C 0.70957 0.69743 0.83514 0.0
C176 C 0.72942 0.6874 0.85503 0.0
C177 C 0.74309 0.66729 0.84586 0.0
C178 C 0.73513 0.65604 0.817 0.0
C179 C 0.58988 0.7463 0.81124 0.0
H180 H 0.7408 0.71606 0.66484 0.0
H181 H 0.70889 0.69515 0.70077 0.0
H182 H 0.69079 0.7753 0.71611 0.0
H183 H 0.72184 0.79572 0.68008 0.0
H184 H 0.71616 0.70152 0.75272 0.0
H185 H 0.64687 0.74339 0.72805 0.0
H186 H 0.65422 0.70718 0.81137 0.0
H187 H 0.60247 0.70822 0.80425 0.0
H188 H 0.64634 0.78052 0.75959 0.0
H189 H 0.61833 0.80844 0.78078 0.0
H190 H 0.70979 0.65706 0.77496 0.0
H191 H 0.70095 0.71424 0.84246 0.0
H192 H 0.5747 0.73681 0.82621 0.0
H193 H 0.74516 0.64026 0.80954 0.0
H194 H 0.73542 0.69653 0.87714 0.0
C195 C 0.71531 0.16036 0.2626 0.0
C196 C 0.70455 0.17592 0.24055 0.0
C197 C 0.73462 0.17405 0.28744 0.0
C198 C 0.74377 0.20366 0.29082 0.0
C199 C 0.73374 0.2193 0.2684 0.0
C200 C 0.71436 0.20554 0.24342 0.0
C201 C 0.76197 0.21774 0.31861 0.0
C202 C 0.78518 0.20733 0.33294 0.0
C203 C 0.79896 0.21689 0.36159 0.0
C204 C 0.79052 0.23867 0.37522 0.0
C205 C 0.76823 0.2503 0.36055 0.0
C206 C 0.75401 0.23954 0.33235 0.0
C207 C 0.75736 0.27182 0.37511 0.0
C208 C 0.75011 0.26847 0.40338 0.0
C209 C 0.75085 0.29416 0.35945 0.0
C210 C 0.73546 0.31149 0.37092 0.0
C211 C 0.72639 0.30696 0.39836 0.0
C212 C 0.8206 0.20264 0.37739 0.0
C213 C 0.8156 0.17334 0.37263 0.0
C214 C 0.84636 0.2178 0.39687 0.0
C215 C 0.86692 0.204 0.41068 0.0
C216 C 0.86226 0.17498 0.40485 0.0
C217 C 0.83636 0.15978 0.38591 0.0
C218 C 0.73478 0.28594 0.41493 0.0
H219 H 0.70849 0.13751 0.2608 0.0
H220 H 0.74156 0.16133 0.30446 0.0
H221 H 0.74057 0.24215 0.27033 0.0
H222 H 0.70632 0.21807 0.2268 0.0
H223 H 0.79199 0.19112 0.32186 0.0
H224 H 0.73537 0.24702 0.32175 0.0
H225 H 0.80065 0.2461 0.3974 0.0
H226 H 0.75461 0.2513 0.41588 0.0
H227 H 0.75664 0.29756 0.33781 0.0
H228 H 0.72977 0.32789 0.3579 0.0
H229 H 0.79552 0.16071 0.35864 0.0
H230 H 0.85098 0.24035 0.40099 0.0
H231 H 0.72794 0.2819 0.4361 0.0
H232 H 0.83202 0.13726 0.38159 0.0
H233 H 0.88678 0.21604 0.42538 0.0
C234 C 0.28286 0.64639 0.18796 0.0
C235 C 0.28035 0.64375 0.15753 0.0
C236 C 0.31017 0.66159 0.20486 0.0
C237 C 0.33567 0.67433 0.19172 0.0
C238 C 0.33322 0.67126 0.16129 0.0
C239 C 0.30586 0.65625 0.1444 0.0
C240 C 0.36465 0.69093 0.20961 0.0
C241 C 0.37506 0.68188 0.23665 0.0
C242 C 0.40258 0.6972 0.25346 0.0
C243 C 0.41988 0.72213 0.24307 0.0
C244 C 0.40968 0.73157 0.21606 0.0
C245 C 0.38214 0.71585 0.1996 0.0
C246 C 0.42718 0.75788 0.20453 0.0
C247 C 0.43492 0.78381 0.22071 0.0
C248 C 0.43371 0.75752 0.17599 0.0
C249 C 0.44697 0.78258 0.16358 0.0
C250 C 0.45365 0.80868 0.17927 0.0
C251 C 0.4132 0.68607 0.28131 0.0
C252 C 0.39376 0.67885 0.30219 0.0
C253 C 0.44134 0.67986 0.28587 0.0
C254 C 0.44926 0.66544 0.31019 0.0
C255 C 0.42935 0.65726 0.33072 0.0
C256 C 0.40185 0.66489 0.32671 0.0
C257 C 0.4478 0.80902 0.2081 0.0
H258 H 0.26347 0.63728 0.19867 0.0
H259 H 0.31109 0.66384 0.22819 0.0
H260 H 0.35253 0.68028 0.15046 0.0
H261 H 0.30473 0.65424 0.12102 0.0
H262 H 0.36219 0.66231 0.24431 0.0
H263 H 0.37398 0.72349 0.17913 0.0
H264 H 0.44119 0.73402 0.25586 0.0
H265 H 0.42989 0.78469 0.24267 0.0
H266 H 0.42795 0.7378 0.16304 0.0
H267 H 0.45097 0.78159 0.14127 0.0
H268 H 0.37199 0.68358 0.29924 0.0
H269 H 0.45657 0.68491 0.2699 0.0
H270 H 0.45291 0.82881 0.22079 0.0
H271 H 0.38624 0.65974 0.34231 0.0
H272 H 0.47045 0.65972 0.31216 0.0
C273 C 0.15252 0.26589 0.69013 0.0
C274 C 0.12422 0.25939 0.67153 0.0
C275 C 0.16567 0.29292 0.70391 0.0
C276 C 0.15071 0.31424 0.70028 0.0
C277 C 0.12218 0.30784 0.68252 0.0
C278 C 0.10927 0.28098 0.66816 0.0
C279 C 0.16636 0.34371 0.7126 0.0
C280 C 0.19288 0.35868 0.70237 0.0
C281 C 0.20894 0.38636 0.71313 0.0
C282 C 0.19756 0.39915 0.735 0.0
C283 C 0.17075 0.38454 0.74607 0.0
C284 C 0.15536 0.35676 0.73423 0.0
C285 C 0.15887 0.39774 0.77014 0.0
C286 C 0.17867 0.41574 0.7929 0.0
C287 C 0.12738 0.39182 0.77113 0.0
C288 C 0.11621 0.40305 0.79391 0.0
C289 C 0.13596 0.42084 0.81684 0.0
C290 C 0.23739 0.4011 0.70087 0.0
C291 C 0.25727 0.38572 0.69366 0.0
C292 C 0.24397 0.42971 0.69417 0.0
C293 C 0.26892 0.44209 0.67986 0.0
C294 C 0.28821 0.42631 0.6718 0.0
C295 C 0.28191 0.39794 0.6793 0.0
C296 C 0.16748 0.42699 0.81575 0.0
H297 H 0.16476 0.25015 0.69423 0.0
H298 H 0.18776 0.29725 0.71738 0.0
H299 H 0.11035 0.32397 0.67886 0.0
H300 H 0.08787 0.27758 0.65378 0.0
H301 H 0.20064 0.34865 0.68524 0.0
H302 H 0.13523 0.34479 0.7424 0.0
H303 H 0.20964 0.42041 0.7434 0.0
H304 H 0.20304 0.42081 0.79345 0.0
H305 H 0.11105 0.37849 0.7541 0.0
H306 H 0.09186 0.39728 0.79368 0.0
H307 H 0.25357 0.36382 0.69877 0.0
H308 H 0.22931 0.44236 0.69918 0.0
H309 H 0.18371 0.44079 0.83251 0.0
H310 H 0.29553 0.38462 0.67339 0.0
H311 H 0.27297 0.46408 0.67507 0.0
Pr312 Pr 0.99408 1.00829 0.54573 0.0
Pr313 Pr 0.04244 0.0253 0.51554 0.0
C314 C 0.94965 0.98175 0.57547 0.0
C315 C 0.93276 0.95334 0.58205 0.0
C316 C 0.92432 0.94909 0.60968 0.0
C317 C 0.90623 0.92293 0.6159 0.0
C318 C 0.89614 0.90054 0.59452 0.0
C319 C 0.90534 0.90463 0.56703 0.0
C320 C 0.92364 0.93081 0.56087 0.0
C321 C 0.02726 0.06437 0.56511 0.0
C322 C 0.05412 0.98831 0.56772 0.0
C323 C 0.08808 0.04944 0.48597 0.0
C324 C 0.11159 0.07591 0.48426 0.0
C325 C 0.13887 0.07464 0.47538 0.0
C326 C 0.16153 0.09934 0.47292 0.0
C327 C 0.15729 0.12584 0.47927 0.0
C328 C 0.12998 0.12706 0.48854 0.0
C329 C 0.10731 0.10224 0.49115 0.0
C330 C 1.00864 0.96927 0.49631 0.0
C331 C 0.98312 0.04872 0.49565 0.0
O332 O 0.94459 0.98894 0.54873 0.0
O333 O 0.97816 0.99078 0.58733 0.0
O334 O 0.03948 0.04496 0.56018 0.0
O335 O 0.99797 0.05485 0.56059 0.0
O336 O 0.06789 1.01215 0.5575 0.0
O337 O 0.02451 0.97862 0.56082 0.0
O338 O 0.09175 0.03535 0.50902 0.0
O339 O 0.0598 0.04917 0.47754 0.0
O340 O 0.99691 0.98912 0.50071 0.0
O341 O 0.03789 0.97825 0.50175 0.0
O342 O 0.96835 0.02658 0.50792 0.0
O343 O 1.01297 0.05564 0.49904 0.0
H344 H 0.93111 0.96624 0.62625 0.0
H345 H 0.89921 0.92058 0.63715 0.0
H346 H 0.89813 0.88769 0.55024 0.0
H347 H 0.93013 0.9336 0.53943 0.0
H348 H 0.14252 0.05447 0.47 0.0
H349 H 0.18208 0.09769 0.46531 0.0
H350 H 0.12618 0.14718 0.49378 0.0
H351 H 0.08645 0.10359 0.49832 0.0
Pr352 Pr 0.48786 0.02507 0.04236 0.0
Pr353 Pr 0.54078 1.01532 1.019 0.0
C354 C 0.44825 0.03348 0.07621 0.0
C355 C 0.44603 0.05732 0.09431 0.0
C356 C 0.45482 0.08502 0.08542 0.0
C357 C 0.45343 0.10758 0.10318 0.0
C358 C 0.44358 0.10292 0.13036 0.0
C359 C 0.43506 0.07509 0.13925 0.0
C360 C 0.43622 0.05251 0.12133 0.0
C361 C 0.50673 0.06183 0.99921 0.0
C362 C 0.55799 0.05979 0.07389 0.0
C363 C 0.5794 1.0055 0.98481 0.0
C364 C 0.57899 0.98133 0.96537 0.0
C365 C 0.58322 0.95617 0.97672 0.0
C366 C 0.58059 0.9328 0.95818 0.0
C367 C 0.57365 0.93402 0.92788 0.0
C368 C 0.56996 0.95935 0.91653 0.0
C369 C 0.57271 0.98276 0.93507 0.0
C370 C 0.52216 0.9789 0.06241 0.0
C371 C 0.47094 0.9809 0.98718 0.0
O372 O 0.47043 0.02251 0.08554 0.0
O373 O 0.44451 0.0359 0.04806 0.0
O374 O 0.52423 0.05506 1.01948 0.0
O375 O 0.47843 0.05053 1.00145 0.0
O376 O 0.56783 0.0539 0.05005 0.0
O377 O 0.52954 0.04846 0.07751 0.0
O378 O 0.5593 0.01919 0.97642 0.0
O379 O 0.58271 1.00204 1.01279 0.0
O380 O 0.50445 0.98525 0.04197 0.0
O381 O 0.5504 0.99079 0.06037 0.0
O382 O 0.46111 0.98642 1.01114 0.0
O383 O 0.49929 0.99254 0.98358 0.0
H384 H 0.46281 0.08928 0.06475 0.0
H385 H 0.45975 0.12864 0.09543 0.0
H386 H 0.42787 0.07074 0.16022 0.0
H387 H 0.42972 0.03129 0.1287 0.0
H388 H 0.58822 0.95433 0.99996 0.0
H389 H 0.58418 0.91381 0.9676 0.0
H390 H 0.56439 0.96094 0.89331 0.0
H391 H 0.56935 1.00187 0.92571 0.0
Pr392 Pr 0.52824 0.54436 0.54541 0.0
Pr393 Pr 0.5106 0.48889 0.51124 0.0
C394 C 0.5304 0.59456 0.57065 0.0
C395 C 0.50734 0.60785 0.57776 0.0
C396 C 0.51558 0.63112 0.59779 0.0
C397 C 0.49372 0.64412 0.60419 0.0
C398 C 0.46326 0.63404 0.59058 0.0
C399 C 0.45509 0.6104 0.57078 0.0
C400 C 0.47695 0.59739 0.56446 0.0
C401 C 0.55512 0.50482 0.57205 0.0
C402 C 0.46277 0.49706 0.55389 0.0
C403 C 0.50841 0.43889 0.48559 0.0
C404 C 0.53112 0.42523 0.47799 0.0
C405 C 0.52562 0.40963 0.4514 0.0
C406 C 0.54733 0.39714 0.44356 0.0
C407 C 0.57492 0.3999 0.4623 0.0
C408 C 0.5803 0.41562 0.48898 0.0
C409 C 0.55869 0.4283 0.49667 0.0
C410 C 0.48387 0.52872 0.48481 0.0
C411 C 0.57631 0.53599 0.50318 0.0
O412 O 0.53089 0.59062 0.54292 0.0
O413 O 0.53325 0.57294 0.58553 0.0
O414 O 0.52792 0.4998 0.55971 0.0
O415 O 0.5694 0.5314 0.57161 0.0
O416 O 0.47243 0.47799 0.54077 0.0
O417 O 0.4775 0.52418 0.55427 0.0
O418 O 0.50767 0.44255 0.51332 0.0
O419 O 0.50556 0.4606 0.47086 0.0
O420 O 0.51108 0.53344 0.49694 0.0
O421 O 0.46939 0.50219 0.48526 0.0
O422 O 0.56653 0.55514 0.516 0.0
O423 O 0.56158 0.50887 0.50292 0.0
H424 H 0.53893 0.63929 0.60838 0.0
H425 H 0.50065 0.662 0.6199 0.0
H426 H 0.43195 0.60229 0.55968 0.0
H427 H 0.47019 0.57937 0.54893 0.0
H428 H 0.50462 0.4073 0.43658 0.0
H429 H 0.54264 0.38567 0.42261 0.0
H430 H 0.60108 0.41792 0.50409 0.0
H431 H 0.56358 0.44049 0.51724 0.0
Pr432 Pr 1.01479 0.54193 1.00999 0.0
Pr433 Pr 0.02615 0.49734 0.04846 0.0
C434 C 0.9944 0.57892 0.97626 0.0
C435 C 0.96946 0.59215 0.97131 0.0
C436 C 0.96925 0.61089 0.94912 0.0
C437 C 0.94464 0.62211 0.94221 0.0
C438 C 0.91975 0.61483 0.95748 0.0
C439 C 0.9204 0.59647 0.98029 0.0
C440 C 0.94513 0.58517 0.98715 0.0
C441 C 0.07465 0.55426 0.03894 0.0
C442 C 0.99288 0.54066 0.07602 0.0
C443 C 0.0492 0.46161 0.08187 0.0
C444 C 0.07929 0.45864 0.09355 0.0
C445 C 0.08144 0.43526 0.10946 0.0
C446 C 0.10964 0.43362 0.12356 0.0
C447 C 0.13616 0.45544 0.12205 0.0
C448 C 0.13407 0.47834 0.10502 0.0
C449 C 0.10576 0.47995 0.09089 0.0
C450 C 0.96655 0.48359 1.01891 0.0
C451 C 0.04841 0.49932 0.98234 0.0
O452 O 0.98731 0.55188 0.96941 0.0
O453 O 1.01371 0.58657 1.00033 0.0
O454 O 0.05126 0.54413 0.05033 0.0
O455 O 0.06765 0.55924 1.01192 0.0
O456 O 1.01011 0.52352 0.08273 0.0
O457 O 0.98801 0.54802 0.04883 0.0
O458 O 0.04266 0.48356 0.0923 0.0
O459 O 0.04051 0.45693 0.05384 0.0
O460 O 0.98994 0.49478 1.00789 0.0
O461 O 0.97366 0.47743 0.04548 0.0
O462 O 0.03067 0.51598 0.97555 0.0
O463 O 0.05385 0.49256 1.00972 0.0
H464 H 0.9878 0.61629 0.93657 0.0
H465 H 0.94469 0.63568 0.92415 0.0
H466 H 0.90171 0.59061 0.99259 0.0
H467 H 0.94502 0.57064 1.00438 0.0
H468 H 0.0612 0.41864 0.11165 0.0
H469 H 0.11064 0.41549 0.13611 0.0
H470 H 0.15407 0.49552 0.1036 0.0
H471 H 0.10439 0.4982 0.07866 0.0
H472 H 0.2635 0.29013 0.43237 0.0
H473 H 0.30965 0.22834 0.41272 0.0
H474 H 0.22895 0.25483 0.45682 0.0
H475 H 0.27522 0.19317 0.43693 0.0
H476 H 0.21894 0.13752 0.49481 0.0
H477 H 0.25781 0.17784 0.48204 0.0
H478 H 0.18754 0.21308 0.44019 0.0
H479 H 0.14879 0.17293 0.4532 0.0
C480 C 0.26646 0.2691 0.43355 0.0
C481 C 0.28921 0.262 0.42048 0.0
C482 C 0.24665 0.24888 0.44749 0.0
C483 C 0.24916 0.22112 0.44864 0.0
C484 C 0.27287 0.21444 0.43682 0.0
C485 C 0.29268 0.23464 0.42293 0.0
C486 C 0.21185 0.15403 0.4831 0.0
C487 C 0.18082 0.15194 0.47478 0.0
C488 C 0.2341 0.1771 0.47577 0.0
C489 C 0.22581 0.19857 0.45989 0.0
C490 C 0.19476 0.19711 0.45276 0.0
C491 C 0.17251 0.17407 0.46017 0.0
H492 H 0.32391 0.90074 0.8501 0.0
H493 H 0.38925 0.85299 0.84641 0.0
H494 H 0.35546 0.92772 0.89326 0.0
H495 H 0.42086 0.88008 0.88949 0.0
H496 H 0.4098 0.95628 0.98402 0.0
H497 H 0.37596 0.9244 0.94499 0.0
H498 H 0.45184 0.92935 0.8991 0.0
H499 H 0.48564 0.96076 0.93803 0.0
C500 C 0.34472 0.89565 0.85882 0.0
C501 C 0.35421 0.87489 0.84473 0.0
C502 C 0.36279 0.91112 0.88353 0.0
C503 C 0.39073 0.90615 0.8946 0.0
C504 C 0.39968 0.8847 0.88113 0.0
C505 C 0.3816 0.86921 0.85647 0.0
C506 C 0.41926 0.95043 0.96566 0.0
C507 C 0.45037 0.96113 0.96407 0.0
C508 C 0.39986 0.93229 0.94329 0.0
C509 C 0.41127 0.92436 0.91904 0.0
C510 C 0.44245 0.93477 0.91769 0.0
C511 C 0.46177 0.95297 0.93993 0.0
H512 H 0.64659 0.42404 0.70943 0.0
H513 H 0.55207 0.37694 0.69802 0.0
H514 H 0.6363 0.45128 0.66788 0.0
H515 H 0.54107 0.40518 0.65736 0.0
H516 H 0.53096 0.44807 0.57335 0.0
H517 H 0.54481 0.41674 0.60959 0.0
H518 H 0.61499 0.48734 0.65458 0.0
H519 H 0.60215 0.51802 0.61735 0.0
C520 C 0.62353 0.41964 0.69798 0.0
C521 C 0.60009 0.3985 0.70696 0.0
C522 C 0.61751 0.43541 0.67426 0.0
C523 C 0.58773 0.43085 0.65921 0.0
C524 C 0.56438 0.40917 0.66796 0.0
C525 C 0.57056 0.39302 0.69139 0.0
C526 C 0.54967 0.4567 0.59078 0.0
C527 C 0.56547 0.48547 0.59253 0.0
C528 C 0.55744 0.43881 0.6118 0.0
C529 C 0.5809 0.44936 0.63541 0.0
C530 C 0.59714 0.47813 0.63662 0.0
C531 C 0.58969 0.49588 0.6153 0.0
H532 H 0.89422 0.56212 0.22065 0.0
H533 H 0.94125 0.64701 0.20351 0.0
H534 H 0.91486 0.54378 0.18129 0.0
H535 H 0.96169 0.62868 0.164 0.0
H536 H 0.96758 0.58566 0.07536 0.0
H537 H 0.94606 0.60405 0.11411 0.0
H538 H 0.96433 0.5391 0.16899 0.0
H539 H 0.98625 0.52104 0.13054 0.0
C540 C 0.90881 0.57697 0.20843 0.0
C541 C 0.91594 0.60619 0.21561 0.0
C542 C 0.9209 0.56638 0.18586 0.0
C543 C 0.94012 0.5846 0.16915 0.0
C544 C 0.94689 0.61384 0.17605 0.0
C545 C 0.93528 0.6244 0.19899 0.0
C546 C 0.96703 0.57523 0.09566 0.0
C547 C 0.97886 0.55175 0.09954 0.0
C548 C 0.95476 0.58592 0.11807 0.0
C549 C 0.95327 0.57319 0.145 0.0
C550 C 0.96472 0.54947 0.14866 0.0
C551 C 0.9775 0.53913 0.12651 0.0
H552 H 0.43351 0.26566 0.19369 0.0
H553 H 0.41569 0.21294 0.26588 0.0
H554 H 0.44281 0.2266 0.16679 0.0
H555 H 0.42526 0.17404 0.23912 0.0
H556 H 0.40005 0.10437 0.16403 0.0
H557 H 0.39666 0.14398 0.19402 0.0
H558 H 0.47919 0.19587 0.16868 0.0
H559 H 0.48323 0.15601 0.13926 0.0
C560 C 0.43189 0.24581 0.20388 0.0
C561 C 0.42383 0.24229 0.23182 0.0
C562 C 0.4374 0.22356 0.18859 0.0
C563 C 0.43458 0.19729 0.20084 0.0
C564 C 0.42731 0.19401 0.22908 0.0
C565 C 0.42213 0.21633 0.24448 0.0
C566 C 0.41781 0.12403 0.16521 0.0
C567 C 0.44191 0.12695 0.14917 0.0
C568 C 0.41581 0.14674 0.18236 0.0
C569 C 0.43768 0.17296 0.18366 0.0
C570 C 0.46186 0.17594 0.16782 0.0
C571 C 0.46406 0.15314 0.15088 0.0
H572 H 0.1391 0.85517 0.60608 0.0
H573 H 0.17556 0.9133 0.68121 0.0
H574 H 0.10819 0.88578 0.58618 0.0
H575 H 0.14482 0.944 0.66122 0.0
H576 H 0.11414 1.00404 0.59224 0.0
H577 H 0.1438 0.97372 0.61531 0.0
H578 H 0.0637 0.90269 0.6012 0.0
H579 H 0.03396 0.93285 0.5785 0.0
C580 C 0.1404 0.87446 0.6183 0.0
C581 C 0.15954 0.88188 0.64518 0.0
C582 C 0.12268 0.89186 0.60703 0.0
C583 C 0.12419 0.91719 0.62223 0.0
C584 C 0.14338 0.92463 0.64907 0.0
C585 C 0.16073 0.90701 0.66056 0.0
C586 C 0.10284 0.98202 0.59433 0.0
C587 C 0.07176 0.97081 0.58356 0.0
C588 C 0.11977 0.96474 0.60758 0.0
C589 C 0.10599 0.9359 0.60984 0.0
C590 C 0.07486 0.92481 0.59947 0.0
C591 C 0.05785 0.94214 0.58666 0.0
H592 H 0.79917 0.44037 0.89229 0.0
H593 H 0.79319 0.36962 0.94689 0.0
H594 H 0.84744 0.46542 0.92172 0.0
H595 H 0.842 0.39408 0.97543 0.0
H596 H 0.94945 0.48604 0.96053 0.0
H597 H 0.89979 0.46376 0.93176 0.0
H598 H 0.86497 0.43354 1.01007 0.0
H599 H 0.91479 0.45521 0.03862 0.0
C600 C 0.80811 0.43017 0.91059 0.0
C601 C 0.79227 0.40297 0.91721 0.0
C602 C 0.83595 0.44442 0.92727 0.0
C603 C 0.84861 0.43179 0.95097 0.0
C604 C 0.83274 0.40461 0.95758 0.0
C605 C 0.80492 0.3904 0.94095 0.0
C606 C 0.9311 0.47473 0.97155 0.0
C607 C 0.93601 0.47208 1.00174 0.0
C608 C 0.90261 0.4621 0.95511 0.0
C609 C 0.87844 0.44664 0.96857 0.0
C610 C 0.88323 0.4448 0.99893 0.0
C611 C 0.91171 0.45735 1.01533 0.0
H612 H 0.70017 0.61529 0.38326 0.0
H613 H 0.75028 0.56598 0.43459 0.0
H614 H 0.65766 0.59868 0.41025 0.0
H615 H 0.70766 0.54924 0.46151 0.0
H616 H 0.61036 0.50383 0.48247 0.0
H617 H 0.65312 0.51913 0.45537 0.0
H618 H 0.646 0.60445 0.46052 0.0
H619 H 0.60368 0.58933 0.48782 0.0
C620 C 0.70207 0.60068 0.4001 0.0
C621 C 0.72888 0.59206 0.4066 0.0
C622 C 0.67771 0.59132 0.41583 0.0
C623 C 0.67905 0.5726 0.43828 0.0
C624 C 0.70559 0.56349 0.44435 0.0
C625 C 0.73019 0.57326 0.42898 0.0
C626 C 0.618 0.5259 0.47801 0.0
C627 C 0.6034 0.54528 0.48759 0.0
C628 C 0.64265 0.53472 0.46247 0.0
C629 C 0.65314 0.56309 0.4555 0.0
C630 C 0.63851 0.5824 0.46511 0.0
C631 C 0.61427 0.57371 0.48104 0.0
H632 H 0.28015 0.45106 0.26215 0.0
H633 H 0.30062 0.41158 0.18714 0.0
H634 H 0.24171 0.46729 0.231 0.0
H635 H 0.26163 0.42721 0.1559 0.0
H636 H 0.19288 0.46775 0.10567 0.0
H637 H 0.24052 0.46515 0.13509 0.0
H638 H 0.19235 0.43888 0.20725 0.0
H639 H 0.14545 0.4422 0.17839 0.0
C640 C 0.27683 0.44642 0.23888 0.0
C641 C 0.29302 0.42985 0.22703 0.0
C642 C 0.25474 0.45554 0.22106 0.0
C643 C 0.24816 0.44798 0.19109 0.0
C644 C 0.2662 0.43344 0.17889 0.0
C645 C 0.28854 0.42449 0.19675 0.0
C646 C 0.1927 0.46177 0.12795 0.0
C647 C 0.16541 0.45489 0.13966 0.0
C648 C 0.21988 0.46016 0.14471 0.0
C649 C 0.22026 0.45198 0.17355 0.0
C650 C 0.19303 0.44573 0.1853 0.0
C651 C 0.166 0.44719 0.1686 0.0
H652 H 0.54195 0.21776 0.9103 0.0
H653 H 0.59717 0.1716 0.87468 0.0
H654 H 0.52153 0.17752 0.93821 0.0
H655 H 0.5774 0.13182 0.90342 0.0
H656 H 0.56468 0.08522 0.98915 0.0
H657 H 0.58208 0.12303 0.95704 0.0
H658 H 0.4896 0.12663 0.93182 0.0
H659 H 0.47218 0.08867 0.9638 0.0
C660 C 0.54945 0.19896 0.90801 0.0
C661 C 0.57144 0.19818 0.89024 0.0
C662 C 0.5378 0.1759 0.92417 0.0
C663 C 0.54804 0.15157 0.92322 0.0
C664 C 0.56943 0.15045 0.90498 0.0
C665 C 0.58082 0.17335 0.88856 0.0
C666 C 0.54807 0.09401 0.97664 0.0
C667 C 0.5171 0.08407 0.97905 0.0
C668 C 0.558 0.11555 0.95814 0.0
C669 C 0.53721 0.12785 0.94191 0.0
C670 C 0.50619 0.11775 0.94422 0.0
C671 C 0.49621 0.09594 0.96243 0.0
H672 H 0.96035 0.79243 0.43106 0.0
H673 H 0.89139 0.82458 0.382 0.0
H674 H 0.98201 0.83793 0.45774 0.0
H675 H 0.91336 0.87043 0.40844 0.0
H676 H 0.94676 0.94482 0.47836 0.0
H677 H 0.92225 0.89834 0.45305 0.0
H678 H 1.01052 0.88409 0.45361 0.0
H679 H 0.03444 0.92953 0.47936 0.0
C680 C 0.94996 0.80928 0.42563 0.0
C681 C 0.92411 0.80454 0.40405 0.0
C682 C 0.96245 0.83561 0.44103 0.0
C683 C 0.94976 0.85838 0.43535 0.0
C684 C 0.92372 0.85357 0.41391 0.0
C685 C 0.9111 0.82713 0.39858 0.0
C686 C 0.96081 0.93165 0.47309 0.0
C687 C 0.99263 0.94108 0.48094 0.0
C688 C 0.9468 0.90498 0.4584 0.0
C689 C 0.96421 0.88699 0.45116 0.0
C690 C 0.99602 0.8967 0.45912 0.0
C691 C 1.00989 0.9231 0.47379 0.0
H692 H 0.32231 0.68888 0.65974 0.0
H693 H 0.35521 0.75246 0.60063 0.0
H694 H 0.35499 0.66153 0.64482 0.0
H695 H 0.38738 0.72491 0.58513 0.0
H696 H 0.4704 0.69075 0.59682 0.0
H697 H 0.43317 0.71467 0.60714 0.0
H698 H 0.36617 0.63418 0.6065 0.0
H699 H 0.40401 0.61012 0.59758 0.0
C700 C 0.33596 0.69661 0.64299 0.0
C701 C 0.33646 0.72285 0.63148 0.0
C702 C 0.3547 0.68097 0.63444 0.0
C703 C 0.37414 0.69123 0.61408 0.0
C704 C 0.37325 0.71674 0.60139 0.0
C705 C 0.35472 0.73244 0.6101 0.0
C706 C 0.44784 0.67811 0.59919 0.0
C707 C 0.44025 0.64852 0.59651 0.0
C708 C 0.42631 0.69185 0.60465 0.0
C709 C 0.39658 0.67636 0.60742 0.0
C710 C 0.38891 0.64674 0.60465 0.0
C711 C 0.41052 0.63297 0.59926 0.0
H712 H 0.72843 0.79565 0.62859 0.0
H713 H 0.79113 0.75197 0.6702 0.0
H714 H 0.76906 0.82562 0.60605 0.0
H715 H 0.8316 0.78139 0.64692 0.0
H716 H 0.89865 0.87093 0.64349 0.0
H717 H 0.85935 0.83124 0.65643 0.0
H718 H 0.80555 0.82966 0.57201 0.0
H719 H 0.84459 0.87 0.55939 0.0
C720 C 0.75075 0.79206 0.63239 0.0
C721 C 0.75666 0.77168 0.65142 0.0
C722 C 0.77398 0.80905 0.61927 0.0
C723 C 0.80365 0.80605 0.62493 0.0
C724 C 0.80907 0.78443 0.64244 0.0
C725 C 0.7858 0.76738 0.65552 0.0
C726 C 0.87856 0.86191 0.6276 0.0
C727 C 0.87455 0.87377 0.60056 0.0
C728 C 0.85618 0.83896 0.63487 0.0
C729 C 0.82924 0.82738 0.61528 0.0
C730 C 0.82593 0.83831 0.58766 0.0
C731 C 0.8484 0.86124 0.58034 0.0
H732 H 0.65495 0.1313 0.24123 0.0
H733 H 0.70369 0.18704 0.18295 0.0
H734 H 0.61938 0.10517 0.19998 0.0
H735 H 0.66728 0.16132 0.14146 0.0
H736 H 0.54418 0.07982 0.12364 0.0
H737 H 0.57886 0.11038 0.16278 0.0
H738 H 0.65382 0.11441 0.11584 0.0
H739 H 0.61902 0.08422 0.0763 0.0
C740 C 0.65802 0.13798 0.21955 0.0
C741 C 0.68227 0.16105 0.21528 0.0
C742 C 0.63741 0.12323 0.19594 0.0
C743 C 0.64049 0.13122 0.16747 0.0
C744 C 0.6645 0.15454 0.16315 0.0
C745 C 0.68515 0.16939 0.18687 0.0
C746 C 0.56803 0.0873 0.12156 0.0
C747 C 0.5789 0.07938 0.09697 0.0
C748 C 0.58791 0.10475 0.14405 0.0
C749 C 0.6191 0.11462 0.14249 0.0
C750 C 0.62986 0.10735 0.11755 0.0
C751 C 0.60994 0.0899 0.09499 0.0
H752 H 0.38973 0.6154 0.35536 0.0
H753 H 0.4853 0.65898 0.36215 0.0
H754 H 0.40118 0.58649 0.39472 0.0
H755 H 0.49699 0.62844 0.3999 0.0
H756 H 0.50976 0.58509 0.48313 0.0
H757 H 0.49546 0.61727 0.44821 0.0
H758 H 0.42127 0.54866 0.40539 0.0
H759 H 0.43479 0.51701 0.4414 0.0
C760 C 0.41322 0.61901 0.36528 0.0
C761 C 0.43653 0.63978 0.3554 0.0
C762 C 0.41987 0.60196 0.38765 0.0
C763 C 0.45008 0.60483 0.40061 0.0
C764 C 0.47338 0.62573 0.39088 0.0
C765 C 0.4667 0.64304 0.36876 0.0
C766 C 0.49014 0.57704 0.46648 0.0
C767 C 0.47342 0.54853 0.46499 0.0
C768 C 0.48209 0.59542 0.44619 0.0
C769 C 0.45735 0.58568 0.42357 0.0
C770 C 0.4402 0.5572 0.42261 0.0
C771 C 0.44801 0.53892 0.4432 0.0
H772 H 0.16138 0.4327 0.87528 0.0
H773 H 0.08226 0.43633 0.81521 0.0
H774 H 0.14163 0.4518 0.91453 0.0
H775 H 0.0619 0.45407 0.85458 0.0
H776 H 0.04344 0.51051 0.92427 0.0
H777 H 0.06483 0.49258 0.8857 0.0
H778 H 0.10596 0.44405 0.94726 0.0
H779 H 0.08503 0.46272 0.98613 0.0
C780 C 0.13979 0.43756 0.87022 0.0
C781 C 0.1237 0.43273 0.84152 0.0
C782 C 0.12814 0.44827 0.89307 0.0
C783 C 0.0999 0.45473 0.88828 0.0
C784 C 0.08386 0.44991 0.85957 0.0
C785 C 0.09548 0.43921 0.83677 0.0
C786 C 0.05708 0.49605 0.92976 0.0
C787 C 0.06229 0.48822 0.95868 0.0
C788 C 0.0693 0.48547 0.90735 0.0
C789 C 0.08725 0.46647 0.91277 0.0
C790 C 0.09267 0.4588 0.94183 0.0
C791 C 0.08043 0.46945 0.96431 0.0
H792 H 0.56862 0.816 0.78442 0.0
H793 H 0.59231 0.77686 0.86349 0.0
H794 H 0.55777 0.85303 0.81297 0.0
H795 H 0.58148 0.81378 0.89196 0.0
H796 H 0.54606 0.87852 0.93535 0.0
H797 H 0.54393 0.83736 0.90438 0.0
H798 H 0.59225 0.89204 0.84507 0.0
H799 H 0.59462 0.93304 0.87601 0.0
C800 C 0.57103 0.81507 0.80786 0.0
C801 C 0.58164 0.79371 0.82173 0.0
C802 C 0.5649 0.83629 0.82419 0.0
C803 C 0.56922 0.83656 0.85472 0.0
C804 C 0.57773 0.81408 0.86846 0.0
C805 C 0.58387 0.79286 0.85212 0.0
C806 C 0.55626 0.88173 0.91571 0.0
C807 C 0.5707 0.90906 0.90825 0.0
C808 C 0.55492 0.85816 0.89794 0.0
C809 C 0.56786 0.86144 0.87227 0.0
C810 C 0.58156 0.88881 0.86443 0.0
C811 C 0.58298 0.91234 0.88221 0.0
H812 H 0.89264 0.14514 0.37736 0.0
H813 H 0.87982 0.1707 0.46262 0.0
H814 H 0.92407 0.11578 0.39938 0.0
H815 H 0.91082 0.14086 0.48471 0.0
H816 H 0.92622 0.05161 0.5013 0.0
H817 H 0.89985 0.08498 0.47999 0.0
H818 H 0.97586 0.12212 0.43605 0.0
H819 H 1.00272 0.08902 0.45784 0.0
C820 C 0.89693 0.14468 0.40084 0.0
C821 C 0.88397 0.16008 0.4184 0.0
C822 C 0.91489 0.12801 0.41338 0.0
C823 C 0.91964 0.12604 0.44365 0.0
C824 C 0.90729 0.14199 0.46128 0.0
C825 C 0.88981 0.15913 0.44874 0.0
C826 C 0.93728 0.06677 0.48697 0.0
C827 C 0.96649 0.06766 0.48113 0.0
C828 C 0.9223 0.08601 0.47504 0.0
C829 C 0.93599 0.10617 0.45664 0.0
C830 C 0.96491 0.10674 0.45025 0.0
C831 C 0.9802 0.08783 0.46266 0.0
H832 H 0.2415 0.59293 0.16651 0.0
H833 H 0.25286 0.66063 0.10783 0.0
H834 H 0.19279 0.56871 0.1371 0.0
H835 H 0.20405 0.6369 0.07882 0.0
H836 H 0.12733 0.57814 1.01825 0.0
H837 H 0.17799 0.59732 0.04622 0.0
H838 H 0.14208 0.57267 0.12553 0.0
H839 H 0.0917 0.55271 0.09735 0.0
C840 C 0.23348 0.60268 0.1474 0.0
C841 C 0.251 0.62865 0.13945 0.0
C842 C 0.20557 0.58885 0.13056 0.0
C843 C 0.19444 0.6008 0.10553 0.0
C844 C 0.21212 0.62675 0.09759 0.0
C845 C 0.24009 0.64043 0.11427 0.0
C846 C 0.13037 0.57667 0.04164 0.0
C847 C 0.10558 0.56425 0.05568 0.0
C848 C 0.15935 0.5878 0.05771 0.0
C849 C 0.16412 0.58688 0.08821 0.0
C850 C 0.13937 0.57359 0.10209 0.0
C851 C 0.11042 0.56233 0.08598 0.0
H852 H 0.34347 0.41373 0.67448 0.0
H853 H 0.2932 0.46767 0.63127 0.0
H854 H 0.38375 0.43092 0.64562 0.0
H855 H 0.33437 0.48561 0.60307 0.0
H856 H 0.43084 0.52936 0.57809 0.0
H857 H 0.38909 0.51371 0.60638 0.0
H858 H 0.39251 0.42772 0.59485 0.0
H859 H 0.43388 0.44321 0.56659 0.0
C860 C 0.34068 0.4291 0.65875 0.0
C861 C 0.31433 0.43879 0.65528 0.0
C862 C 0.36409 0.43911 0.64215 0.0
C863 C 0.36245 0.45955 0.62163 0.0
C864 C 0.33668 0.47 0.6187 0.0
C865 C 0.31298 0.4597 0.6351 0.0
C866 C 0.42257 0.50707 0.5814 0.0
C867 C 0.43596 0.48763 0.56986 0.0
C868 C 0.39848 0.49806 0.59761 0.0
C869 C 0.38733 0.46938 0.60324 0.0
C870 C 0.40058 0.45 0.59143 0.0
C871 C 0.4243 0.45892 0.57494 0.0
H872 H 0.7994 0.66975 0.83442 0.0
H873 H 0.74268 0.64937 0.90133 0.0
H874 H 0.84124 0.65922 0.86634 0.0
H875 H 0.78479 0.63837 0.93341 0.0
H876 H 0.8596 0.58539 0.95328 0.0
H877 H 0.81557 0.59979 0.93013 0.0
H878 H 0.87438 0.68107 0.91598 0.0
H879 H 0.91832 0.66722 0.93992 0.0
C880 C 0.79589 0.66282 0.85593 0.0
C881 C 0.76784 0.66014 0.8654 0.0
C882 C 0.81988 0.65708 0.87427 0.0
C883 C 0.81622 0.64819 0.90234 0.0
C884 C 0.78809 0.64523 0.91184 0.0
C885 C 0.76414 0.65152 0.89359 0.0
C886 C 0.86308 0.60664 0.94607 0.0
C887 C 0.89257 0.625 0.94802 0.0
C888 C 0.83785 0.61482 0.93275 0.0
C889 C 0.84175 0.64135 0.92097 0.0
C890 C 0.87091 0.66032 0.92454 0.0
C891 C 0.89602 0.65231 0.9381 0.0
H892 H 0.43417 0.85642 0.17947 0.0
H893 H 0.49937 0.82103 0.14625 0.0
H894 H 0.4511 0.89893 0.15302 0.0
H895 H 0.51615 0.86335 0.11971 0.0
H896 H 0.55837 0.95457 0.09876 0.0
H897 H 0.54273 0.91479 0.12899 0.0
H898 H 0.44855 0.91116 0.1004 0.0
H899 H 0.46425 0.95101 0.07003 0.0
C900 C 0.45236 0.85787 0.16681 0.0
C901 C 0.46544 0.83537 0.16495 0.0
C902 C 0.46184 0.88208 0.15144 0.0
C903 C 0.48491 0.88449 0.13421 0.0
C904 C 0.49848 0.86226 0.13295 0.0
C905 C 0.48875 0.83794 0.148 0.0
C906 C 0.53433 0.94537 0.09903 0.0
C907 C 0.51252 0.9558 0.0819 0.0
C908 C 0.52537 0.92251 0.11625 0.0
C909 C 0.4944 0.90973 0.11701 0.0
C910 C 0.47259 0.92067 0.10045 0.0
C911 C 0.48156 0.94338 0.08296 0.0
H912 H 0.15361 0.22096 0.65387 0.0
H913 H 0.0635 0.2313 0.65231 0.0
H914 H 0.13172 0.17436 0.63014 0.0
H915 H 0.04196 0.18623 0.62586 0.0
H916 H 1.00406 0.09389 0.60117 0.0
H917 H 0.02772 0.13921 0.62705 0.0
H918 H 0.1096 0.14473 0.59006 0.0
H919 H 0.08606 0.09788 0.56573 0.0
C920 C 0.12911 0.21354 0.64859 0.0
C921 C 0.11064 0.23054 0.65566 0.0
C922 C 0.11643 0.18664 0.63424 0.0
C923 C 0.08473 0.17572 0.62582 0.0
C924 C 0.06635 0.19299 0.63236 0.0
C925 C 0.07896 0.21958 0.64723 0.0
C926 C 0.02722 0.10468 0.59868 0.0
C927 C 0.04312 0.09209 0.58136 0.0
C928 C 0.04086 0.13113 0.61336 0.0
C929 C 0.07077 0.14658 0.61068 0.0
C930 C 0.08678 0.13378 0.59332 0.0
C931 C 0.07325 0.10682 0.57912 0.0
H932 H 0.73002 0.33214 0.45229 0.0
H933 H 0.67573 0.31563 0.36687 0.0
H934 H 0.69385 0.35507 0.4687 0.0
H935 H 0.63994 0.33857 0.38314 0.0
H936 H 0.56497 0.34837 0.43386 0.0
H937 H 0.60253 0.32697 0.41889 0.0
H938 H 0.67471 0.39888 0.4577 0.0
H939 H 0.63715 0.42089 0.47198 0.0
C940 C 0.71047 0.33354 0.43705 0.0
C941 C 0.70575 0.32224 0.40829 0.0
C942 C 0.68991 0.34675 0.44637 0.0
C943 C 0.66407 0.34845 0.4272 0.0
C944 C 0.65953 0.33732 0.39843 0.0
C945 C 0.68019 0.32447 0.38906 0.0
C946 C 0.58879 0.35985 0.43893 0.0
C947 C 0.59796 0.38647 0.45398 0.0
C948 C 0.6103 0.3475 0.43046 0.0
C949 C 0.64149 0.36133 0.43708 0.0
C950 C 0.6508 0.38767 0.45258 0.0
C951 C 0.62926 0.40019 0.4608 0.0
loop_
_geom_bond_atom_site_label_1
_geom_bond_atom_site_label_2
_geom_bond_distance
_geom_bond_site_symmetry_2
_ccdc_geom_bond_type
C0 C1 1.386 . S
C0 C2 1.397 . S
C0 H24 0.931 . S
C1 C0 1.386 . S
C1 C5 1.397 . S
C2 C0 1.397 . S
C2 C3 1.384 . S
C2 H25 0.930 . S
C3 C2 1.384 . S
C3 C4 1.377 . S
C3 C6 1.481 . S
C4 C3 1.377 . S
C4 C5 1.389 . S
C4 H26 0.929 . S
C5 C1 1.397 . S
C5 C4 1.389 . S
C5 H27 0.931 . S
C6 C3 1.481 . S
C6 C7 1.387 . S
C6 C11 1.390 . S
C7 C6 1.387 . S
C7 C8 1.401 . S
C7 H28 0.930 . S
C8 C7 1.401 . S
C8 C9 1.376 . S
C8 C17 1.511 . S
C9 C8 1.376 . S
C9 C10 1.392 . S
C9 H30 0.931 . S
C10 C9 1.392 . S
C10 C11 1.361 . S
C10 C12 1.500 . S
C11 C6 1.390 . S
C11 C10 1.361 . S
C11 H29 0.931 . S
C12 C10 1.500 . S
C12 C13 1.371 . S
C12 C14 1.365 . S
C13 C12 1.371 . S
C13 C23 1.386 . S
C13 H31 0.931 . S
C14 C12 1.365 . S
C14 C15 1.409 . S
C14 H32 0.929 . S
C15 C14 1.409 . S
C15 C16 1.380 . S
C15 H33 0.930 . S
C16 C15 1.380 . S
C16 C23 1.357 . S
C17 C8 1.511 . S
C17 C18 1.341 . S
C17 C19 1.371 . S
C18 C17 1.341 . S
C18 C22 1.394 . S
C18 H34 0.930 . S
C19 C17 1.371 . S
C19 C20 1.392 . S
C19 H35 0.931 . S
C20 C19 1.392 . S
C20 C21 1.331 . S
C20 H38 0.932 . S
C21 C20 1.331 . S
C21 C22 1.336 . S
C22 C18 1.394 . S
C22 C21 1.336 . S
C22 H37 0.929 . S
C23 C13 1.386 . S
C23 C16 1.357 . S
C23 H36 0.928 . S
H24 C0 0.931 . S
H25 C2 0.930 . S
H26 C4 0.929 . S
H27 C5 0.931 . S
H28 C7 0.930 . S
H29 C11 0.931 . S
H30 C9 0.931 . S
H31 C13 0.931 . S
H32 C14 0.929 . S
H33 C15 0.930 . S
H34 C18 0.930 . S
H35 C19 0.931 . S
H36 C23 0.928 . S
H37 C22 0.929 . S
H38 C20 0.932 . S
C39 C40 1.386 . S
C39 C41 1.397 . S
C39 H63 0.931 . S
C40 C39 1.386 . S
C40 C44 1.397 . S
C41 C39 1.397 . S
C41 C42 1.384 . S
C41 H64 0.930 . S
C42 C41 1.384 . S
C42 C43 1.377 . S
C42 C45 1.481 . S
C43 C42 1.377 . S
C43 C44 1.389 . S
C43 H65 0.929 . S
C44 C40 1.397 . S
C44 C43 1.389 . S
C44 H66 0.931 . S
C45 C42 1.481 . S
C45 C46 1.387 . S
C45 C50 1.390 . S
C46 C45 1.387 . S
C46 C47 1.401 . S
C46 H67 0.930 . S
C47 C46 1.401 . S
C47 C48 1.376 . S
C47 C56 1.511 . S
C48 C47 1.376 . S
C48 C49 1.392 . S
C48 H69 0.931 . S
C49 C48 1.392 . S
C49 C50 1.361 . S
C49 C51 1.500 . S
C50 C45 1.390 . S
C50 C49 1.361 . S
C50 H68 0.931 . S
C51 C49 1.500 . S
C51 C52 1.371 . S
C51 C53 1.365 . S
C52 C51 1.371 . S
C52 C62 1.386 . S
C52 H70 0.931 . S
C53 C51 1.365 . S
C53 C54 1.409 . S
C53 H71 0.929 . S
C54 C53 1.409 . S
C54 C55 1.380 . S
C54 H72 0.930 . S
C55 C54 1.380 . S
C55 C62 1.357 . S
C56 C47 1.511 . S
C56 C57 1.341 . S
C56 C58 1.371 . S
C57 C56 1.341 . S
C57 C61 1.394 . S
C57 H73 0.930 . S
C58 C56 1.371 . S
C58 C59 1.392 . S
C58 H74 0.931 . S
C59 C58 1.392 . S
C59 C60 1.331 . S
C59 H77 0.932 . S
C60 C59 1.331 . S
C60 C61 1.336 . S
C61 C57 1.394 . S
C61 C60 1.336 . S
C61 H76 0.929 . S
C62 C52 1.386 . S
C62 C55 1.357 . S
C62 H75 0.928 . S
H63 C39 0.931 . S
H64 C41 0.930 . S
H65 C43 0.929 . S
H66 C44 0.931 . S
H67 C46 0.930 . S
H68 C50 0.931 . S
H69 C48 0.931 . S
H70 C52 0.931 . S
H71 C53 0.929 . S
H72 C54 0.930 . S
H73 C57 0.930 . S
H74 C58 0.931 . S
H75 C62 0.928 . S
H76 C61 0.929 . S
H77 C59 0.932 . S
C78 C79 1.386 . S
C78 C80 1.397 . S
C78 H102 0.931 . S
C79 C78 1.386 . S
C79 C83 1.397 . S
C80 C78 1.397 . S
C80 C81 1.384 . S
C80 H103 0.930 . S
C81 C80 1.384 . S
C81 C82 1.377 . S
C81 C84 1.481 . S
C82 C81 1.377 . S
C82 C83 1.389 . S
C82 H104 0.929 . S
C83 C79 1.397 . S
C83 C82 1.389 . S
C83 H105 0.931 . S
C84 C81 1.481 . S
C84 C85 1.387 . S
C84 C89 1.390 . S
C85 C84 1.387 . S
C85 C86 1.401 . S
C85 H106 0.930 . S
C86 C85 1.401 . S
C86 C87 1.376 . S
C86 C95 1.511 . S
C87 C86 1.376 . S
C87 C88 1.392 . S
C87 H108 0.931 . S
C88 C87 1.392 . S
C88 C89 1.361 . S
C88 C90 1.500 . S
C89 C84 1.390 . S
C89 C88 1.361 . S
C89 H107 0.931 . S
C90 C88 1.500 . S
C90 C91 1.371 . S
C90 C92 1.365 . S
C91 C90 1.371 . S
C91 C101 1.386 . S
C91 H109 0.931 . S
C92 C90 1.365 . S
C92 C93 1.409 . S
C92 H110 0.929 . S
C93 C92 1.409 . S
C93 C94 1.380 . S
C93 H111 0.930 . S
C94 C93 1.380 . S
C94 C101 1.357 . S
C95 C86 1.511 . S
C95 C96 1.341 . S
C95 C97 1.371 . S
C96 C95 1.341 . S
C96 C100 1.394 . S
C96 H112 0.930 . S
C97 C95 1.371 . S
C97 C98 1.392 . S
C97 H113 0.931 . S
C98 C97 1.392 . S
C98 C99 1.331 . S
C98 H116 0.932 . S
C99 C98 1.331 . S
C99 C100 1.336 . S
C100 C96 1.394 . S
C100 C99 1.336 . S
C100 H115 0.929 . S
C101 C91 1.386 . S
C101 C94 1.357 . S
C101 H114 0.928 . S
H102 C78 0.931 . S
H103 C80 0.930 . S
H104 C82 0.929 . S
H105 C83 0.931 . S
H106 C85 0.930 . S
H107 C89 0.931 . S
H108 C87 0.931 . S
H109 C91 0.931 . S
H110 C92 0.929 . S
H111 C93 0.930 . S
H112 C96 0.930 . S
H113 C97 0.931 . S
H114 C101 0.928 . S
H115 C100 0.929 . S
H116 C98 0.932 . S
C117 C118 1.386 . S
C117 C119 1.397 . S
C117 H141 0.931 . S
C118 C117 1.386 . S
C118 C122 1.397 . S
C119 C117 1.397 . S
C119 C120 1.384 . S
C119 H142 0.930 . S
C120 C119 1.384 . S
C120 C121 1.377 . S
C120 C123 1.481 . S
C121 C120 1.377 . S
C121 C122 1.389 . S
C121 H143 0.929 . S
C122 C118 1.397 . S
C122 C121 1.389 . S
C122 H144 0.931 . S
C123 C120 1.481 . S
C123 C124 1.387 . S
C123 C128 1.390 . S
C124 C123 1.387 . S
C124 C125 1.401 . S
C124 H145 0.930 . S
C125 C124 1.401 . S
C125 C126 1.376 . S
C125 C134 1.511 . S
C126 C125 1.376 . S
C126 C127 1.392 . S
C126 H147 0.931 . S
C127 C126 1.392 . S
C127 C128 1.361 . S
C127 C129 1.500 . S
C128 C123 1.390 . S
C128 C127 1.361 . S
C128 H146 0.931 . S
C129 C127 1.500 . S
C129 C130 1.371 . S
C129 C131 1.365 . S
C130 C129 1.371 . S
C130 C140 1.386 . S
C130 H148 0.931 . S
C131 C129 1.365 . S
C131 C132 1.409 . S
C131 H149 0.929 . S
C132 C131 1.409 . S
C132 C133 1.380 . S
C132 H150 0.930 . S
C133 C132 1.380 . S
C133 C140 1.357 . S
C134 C125 1.511 . S
C134 C135 1.341 . S
C134 C136 1.371 . S
C135 C134 1.341 . S
C135 C139 1.394 . S
C135 H151 0.930 . S
C136 C134 1.371 . S
C136 C137 1.392 . S
C136 H152 0.931 . S
C137 C136 1.392 . S
C137 C138 1.331 . S
C137 H155 0.932 . S
C138 C137 1.331 . S
C138 C139 1.336 . S
C139 C135 1.394 . S
C139 C138 1.336 . S
C139 H154 0.929 . S
C140 C130 1.386 . S
C140 C133 1.357 . S
C140 H153 0.928 . S
H141 C117 0.931 . S
H142 C119 0.930 . S
H143 C121 0.929 . S
H144 C122 0.931 . S
H145 C124 0.930 . S
H146 C128 0.931 . S
H147 C126 0.931 . S
H148 C130 0.931 . S
H149 C131 0.929 . S
H150 C132 0.930 . S
H151 C135 0.930 . S
H152 C136 0.931 . S
H153 C140 0.928 . S
H154 C139 0.929 . S
H155 C137 0.932 . S
C156 C157 1.386 . S
C156 C158 1.397 . S
C156 H180 0.931 . S
C157 C156 1.386 . S
C157 C161 1.397 . S
C158 C156 1.397 . S
C158 C159 1.384 . S
C158 H181 0.930 . S
C159 C158 1.384 . S
C159 C160 1.377 . S
C159 C162 1.481 . S
C160 C159 1.377 . S
C160 C161 1.389 . S
C160 H182 0.929 . S
C161 C157 1.397 . S
C161 C160 1.389 . S
C161 H183 0.931 . S
C162 C159 1.481 . S
C162 C163 1.387 . S
C162 C167 1.390 . S
C163 C162 1.387 . S
C163 C164 1.401 . S
C163 H184 0.930 . S
C164 C163 1.401 . S
C164 C165 1.376 . S
C164 C173 1.511 . S
C165 C164 1.376 . S
C165 C166 1.392 . S
C165 H186 0.931 . S
C166 C165 1.392 . S
C166 C167 1.361 . S
C166 C168 1.500 . S
C167 C162 1.390 . S
C167 C166 1.361 . S
C167 H185 0.931 . S
C168 C166 1.500 . S
C168 C169 1.371 . S
C168 C170 1.365 . S
C169 C168 1.371 . S
C169 C179 1.386 . S
C169 H187 0.931 . S
C170 C168 1.365 . S
C170 C171 1.409 . S
C170 H188 0.929 . S
C171 C170 1.409 . S
C171 C172 1.380 . S
C171 H189 0.930 . S
C172 C171 1.380 . S
C172 C179 1.357 . S
C173 C164 1.511 . S
C173 C174 1.341 . S
C173 C175 1.371 . S
C174 C173 1.341 . S
C174 C178 1.394 . S
C174 H190 0.930 . S
C175 C173 1.371 . S
C175 C176 1.392 . S
C175 H191 0.931 . S
C176 C175 1.392 . S
C176 C177 1.331 . S
C176 H194 0.932 . S
C177 C176 1.331 . S
C177 C178 1.336 . S
C178 C174 1.394 . S
C178 C177 1.336 . S
C178 H193 0.929 . S
C179 C169 1.386 . S
C179 C172 1.357 . S
C179 H192 0.928 . S
H180 C156 0.931 . S
H181 C158 0.930 . S
H182 C160 0.929 . S
H183 C161 0.931 . S
H184 C163 0.930 . S
H185 C167 0.931 . S
H186 C165 0.931 . S
H187 C169 0.931 . S
H188 C170 0.929 . S
H189 C171 0.930 . S
H190 C174 0.930 . S
H191 C175 0.931 . S
H192 C179 0.928 . S
H193 C178 0.929 . S
H194 C176 0.932 . S
C195 C196 1.386 . S
C195 C197 1.397 . S
C195 H219 0.931 . S
C196 C195 1.386 . S
C196 C200 1.397 . S
C197 C195 1.397 . S
C197 C198 1.384 . S
C197 H220 0.930 . S
C198 C197 1.384 . S
C198 C199 1.377 . S
C198 C201 1.481 . S
C199 C198 1.377 . S
C199 C200 1.389 . S
C199 H221 0.929 . S
C200 C196 1.397 . S
C200 C199 1.389 . S
C200 H222 0.931 . S
C201 C198 1.481 . S
C201 C202 1.387 . S
C201 C206 1.390 . S
C202 C201 1.387 . S
C202 C203 1.401 . S
C202 H223 0.930 . S
C203 C202 1.401 . S
C203 C204 1.376 . S
C203 C212 1.511 . S
C204 C203 1.376 . S
C204 C205 1.392 . S
C204 H225 0.931 . S
C205 C204 1.392 . S
C205 C206 1.361 . S
C205 C207 1.500 . S
C206 C201 1.390 . S
C206 C205 1.361 . S
C206 H224 0.931 . S
C207 C205 1.500 . S
C207 C208 1.371 . S
C207 C209 1.365 . S
C208 C207 1.371 . S
C208 C218 1.386 . S
C208 H226 0.931 . S
C209 C207 1.365 . S
C209 C210 1.409 . S
C209 H227 0.929 . S
C210 C209 1.409 . S
C210 C211 1.380 . S
C210 H228 0.930 . S
C211 C210 1.380 . S
C211 C218 1.357 . S
C212 C203 1.511 . S
C212 C213 1.341 . S
C212 C214 1.371 . S
C213 C212 1.341 . S
C213 C217 1.394 . S
C213 H229 0.930 . S
C214 C212 1.371 . S
C214 C215 1.392 . S
C214 H230 0.931 . S
C215 C214 1.392 . S
C215 C216 1.331 . S
C215 H233 0.932 . S
C216 C215 1.331 . S
C216 C217 1.336 . S
C217 C213 1.394 . S
C217 C216 1.336 . S
C217 H232 0.929 . S
C218 C208 1.386 . S
C218 C211 1.357 . S
C218 H231 0.928 . S
H219 C195 0.931 . S
H220 C197 0.930 . S
H221 C199 0.929 . S
H222 C200 0.931 . S
H223 C202 0.930 . S
H224 C206 0.931 . S
H225 C204 0.931 . S
H226 C208 0.931 . S
H227 C209 0.929 . S
H228 C210 0.930 . S
H229 C213 0.930 . S
H230 C214 0.931 . S
H231 C218 0.928 . S
H232 C217 0.929 . S
H233 C215 0.932 . S
C234 C235 1.386 . S
C234 C236 1.397 . S
C234 H258 0.931 . S
C235 C234 1.386 . S
C235 C239 1.397 . S
C236 C234 1.397 . S
C236 C237 1.384 . S
C236 H259 0.930 . S
C237 C236 1.384 . S
C237 C238 1.377 . S
C237 C240 1.481 . S
C238 C237 1.377 . S
C238 C239 1.389 . S
C238 H260 0.929 . S
C239 C235 1.397 . S
C239 C238 1.389 . S
C239 H261 0.931 . S
C240 C237 1.481 . S
C240 C241 1.387 . S
C240 C245 1.390 . S
C241 C240 1.387 . S
C241 C242 1.401 . S
C241 H262 0.930 . S
C242 C241 1.401 . S
C242 C243 1.376 . S
C242 C251 1.511 . S
C243 C242 1.376 . S
C243 C244 1.392 . S
C243 H264 0.931 . S
C244 C243 1.392 . S
C244 C245 1.361 . S
C244 C246 1.500 . S
C245 C240 1.390 . S
C245 C244 1.361 . S
C245 H263 0.931 . S
C246 C244 1.500 . S
C246 C247 1.371 . S
C246 C248 1.365 . S
C247 C246 1.371 . S
C247 C257 1.386 . S
C247 H265 0.931 . S
C248 C246 1.365 . S
C248 C249 1.409 . S
C248 H266 0.929 . S
C249 C248 1.409 . S
C249 C250 1.380 . S
C249 H267 0.930 . S
C250 C249 1.380 . S
C250 C257 1.357 . S
C251 C242 1.511 . S
C251 C252 1.341 . S
C251 C253 1.371 . S
C252 C251 1.341 . S
C252 C256 1.394 . S
C252 H268 0.930 . S
C253 C251 1.371 . S
C253 C254 1.392 . S
C253 H269 0.931 . S
C254 C253 1.392 . S
C254 C255 1.331 . S
C254 H272 0.932 . S
C255 C254 1.331 . S
C255 C256 1.336 . S
C256 C252 1.394 . S
C256 C255 1.336 . S
C256 H271 0.929 . S
C257 C247 1.386 . S
C257 C250 1.357 . S
C257 H270 0.928 . S
H258 C234 0.931 . S
H259 C236 0.930 . S
H260 C238 0.929 . S
H261 C239 0.931 . S
H262 C241 0.930 . S
H263 C245 0.931 . S
H264 C243 0.931 . S
H265 C247 0.931 . S
H266 C248 0.929 . S
H267 C249 0.930 . S
H268 C252 0.930 . S
H269 C253 0.931 . S
H270 C257 0.928 . S
H271 C256 0.929 . S
H272 C254 0.932 . S
C273 C274 1.386 . S
C273 C275 1.397 . S
C273 H297 0.931 . S
C274 C273 1.386 . S
C274 C278 1.397 . S
C275 C273 1.397 . S
C275 C276 1.384 . S
C275 H298 0.930 . S
C276 C275 1.384 . S
C276 C277 1.377 . S
C276 C279 1.481 . S
C277 C276 1.377 . S
C277 C278 1.389 . S
C277 H299 0.929 . S
C278 C274 1.397 . S
C278 C277 1.389 . S
C278 H300 0.931 . S
C279 C276 1.481 . S
C279 C280 1.387 . S
C279 C284 1.390 . S
C280 C279 1.387 . S
C280 C281 1.401 . S
C280 H301 0.930 . S
C281 C280 1.401 . S
C281 C282 1.376 . S
C281 C290 1.511 . S
C282 C281 1.376 . S
C282 C283 1.392 . S
C282 H303 0.931 . S
C283 C282 1.392 . S
C283 C284 1.361 . S
C283 C285 1.500 . S
C284 C279 1.390 . S
C284 C283 1.361 . S
C284 H302 0.931 . S
C285 C283 1.500 . S
C285 C286 1.371 . S
C285 C287 1.365 . S
C286 C285 1.371 . S
C286 C296 1.386 . S
C286 H304 0.931 . S
C287 C285 1.365 . S
C287 C288 1.409 . S
C287 H305 0.929 . S
C288 C287 1.409 . S
C288 C289 1.380 . S
C288 H306 0.930 . S
C289 C288 1.380 . S
C289 C296 1.357 . S
C290 C281 1.511 . S
C290 C291 1.341 . S
C290 C292 1.371 . S
C291 C290 1.341 . S
C291 C295 1.394 . S
C291 H307 0.930 . S
C292 C290 1.371 . S
C292 C293 1.392 . S
C292 H308 0.931 . S
C293 C292 1.392 . S
C293 C294 1.331 . S
C293 H311 0.932 . S
C294 C293 1.331 . S
C294 C295 1.336 . S
C295 C291 1.394 . S
C295 C294 1.336 . S
C295 H310 0.929 . S
C296 C286 1.386 . S
C296 C289 1.357 . S
C296 H309 0.928 . S
H297 C273 0.931 . S
H298 C275 0.930 . S
H299 C277 0.929 . S
H300 C278 0.931 . S
H301 C280 0.930 . S
H302 C284 0.931 . S
H303 C282 0.931 . S
H304 C286 0.931 . S
H305 C287 0.929 . S
H306 C288 0.930 . S
H307 C291 0.930 . S
H308 C292 0.931 . S
H309 C296 0.928 . S
H310 C295 0.929 . S
H311 C293 0.932 . S
Pr312 C314 2.880 . S
Pr312 O332 2.562 . S
Pr312 O333 2.490 . S
Pr312 O334 2.695 1_665 S
Pr312 O335 2.512 1_665 S
Pr312 O337 2.437 1_655 S
Pr312 O340 2.436 . S
Pr312 O342 2.438 1_565 S
Pr313 C323 2.880 . S
Pr313 O334 2.436 . S
Pr313 O336 2.438 1_545 S
Pr313 O338 2.562 . S
Pr313 O339 2.490 . S
Pr313 O340 2.695 1_445 S
Pr313 O341 2.512 1_545 S
Pr313 O343 2.437 1_455 S
C314 Pr312 2.880 . S
C314 C315 1.491 . S
C314 O332 1.254 . S
C314 O333 1.225 . S
C315 C314 1.491 . S
C315 C316 1.392 . S
C315 C320 1.356 . S
C316 C315 1.392 . S
C316 C317 1.368 . S
C316 H344 0.929 . S
C317 C316 1.368 . S
C317 C318 1.386 . S
C317 H345 0.929 . S
C318 C317 1.386 . S
C318 C319 1.373 . S
C319 C318 1.373 . S
C319 C320 1.409 . S
C319 H346 0.931 . S
C320 C315 1.356 . S
C320 C319 1.409 . S
C320 H347 0.930 . S
C321 O334 1.270 . S
C321 O335 1.248 . S
C322 O336 1.267 . S
C322 O337 1.278 . S
C323 Pr313 2.880 . S
C323 C324 1.491 . S
C323 O338 1.254 . S
C323 O339 1.225 . S
C324 C323 1.491 . S
C324 C325 1.392 . S
C324 C329 1.356 . S
C325 C324 1.392 . S
C325 C326 1.368 . S
C325 H348 0.929 . S
C326 C325 1.368 . S
C326 C327 1.386 . S
C326 H349 0.929 . S
C327 C326 1.386 . S
C327 C328 1.373 . S
C328 C327 1.373 . S
C328 C329 1.409 . S
C328 H350 0.931 . S
C329 C324 1.356 . S
C329 C328 1.409 . S
C329 H351 0.930 . S
C330 O340 1.270 . S
C330 O341 1.248 1_655 S
C331 O342 1.267 . S
C331 O343 1.278 . S
O332 Pr312 2.562 . S
O332 C314 1.254 . S
O333 Pr312 2.490 . S
O333 C314 1.225 . S
O334 Pr312 2.695 1_445 S
O334 Pr313 2.436 . S
O334 C321 1.270 . S
O335 Pr312 2.512 1_445 S
O335 C321 1.248 . S
O336 Pr313 2.438 1_565 S
O336 C322 1.267 . S
O337 Pr312 2.437 1_455 S
O337 C322 1.278 . S
O338 Pr313 2.562 . S
O338 C323 1.254 . S
O339 Pr313 2.490 . S
O339 C323 1.225 . S
O340 Pr312 2.436 . S
O340 Pr313 2.695 1_665 S
O340 C330 1.270 . S
O341 Pr313 2.512 1_565 S
O341 C330 1.248 1_455 S
O342 Pr312 2.438 1_545 S
O342 C331 1.267 . S
O343 Pr313 2.437 1_655 S
O343 C331 1.278 . S
H344 C316 0.929 . S
H345 C317 0.929 . S
H346 C319 0.931 . S
H347 C320 0.930 . S
H348 C325 0.929 . S
H349 C326 0.929 . S
H350 C328 0.931 . S
H351 C329 0.930 . S
Pr352 C354 2.877 . S
Pr352 O372 2.559 . S
Pr352 O373 2.489 . S
Pr352 O374 2.697 1_554 S
Pr352 O375 2.515 1_554 S
Pr352 O377 2.435 . S
Pr352 O380 2.434 1_545 S
Pr352 O382 2.441 1_544 S
Pr353 C363 2.863 1_554 S
Pr353 O374 2.426 1_564 S
Pr353 O376 2.454 1_565 S
Pr353 O378 2.541 1_554 S
Pr353 O379 2.482 1_554 S
Pr353 O380 2.709 . S
Pr353 O381 2.528 . S
Pr353 O383 2.427 1_554 S
C354 Pr352 2.877 . S
C354 C355 1.491 . S
C354 O372 1.254 . S
C354 O373 1.225 . S
C355 C354 1.491 . S
C355 C356 1.392 . S
C355 C360 1.356 . S
C356 C355 1.392 . S
C356 C357 1.368 . S
C356 H384 0.929 . S
C357 C356 1.368 . S
C357 C358 1.386 . S
C357 H385 0.929 . S
C358 C357 1.386 . S
C358 C359 1.373 . S
C359 C358 1.373 . S
C359 C360 1.409 . S
C359 H386 0.931 . S
C360 C355 1.356 . S
C360 C359 1.409 . S
C360 H387 0.930 . S
C361 O374 1.270 . S
C361 O375 1.248 . S
C362 O376 1.267 . S
C362 O377 1.278 . S
C363 Pr353 2.863 1_556 S
C363 C364 1.491 . S
C363 O378 1.254 . S
C363 O379 1.225 . S
C364 C363 1.491 . S
C364 C365 1.392 . S
C364 C369 1.356 . S
C365 C364 1.392 . S
C365 C366 1.368 . S
C365 H388 0.929 . S
C366 C365 1.368 . S
C366 C367 1.386 . S
C366 H389 0.929 . S
C367 C366 1.386 . S
C367 C368 1.373 . S
C368 C367 1.373 . S
C368 C369 1.409 . S
C368 H390 0.931 . S
C369 C364 1.356 . S
C369 C368 1.409 . S
C369 H391 0.930 . S
C370 O380 1.270 . S
C370 O381 1.248 . S
C371 O382 1.267 . S
C371 O383 1.278 . S
O372 Pr352 2.559 . S
O372 C354 1.254 . S
O373 Pr352 2.489 . S
O373 C354 1.225 . S
O374 Pr352 2.697 1_556 S
O374 Pr353 2.426 1_546 S
O374 C361 1.270 . S
O375 Pr352 2.515 1_556 S
O375 C361 1.248 . S
O376 Pr353 2.454 1_545 S
O376 C362 1.267 . S
O377 Pr352 2.435 . S
O377 C362 1.278 . S
O378 Pr353 2.541 1_556 S
O378 C363 1.254 . S
O379 Pr353 2.482 1_556 S
O379 C363 1.225 . S
O380 Pr352 2.434 1_565 S
O380 Pr353 2.709 . S
O380 C370 1.270 . S
O381 Pr353 2.528 . S
O381 C370 1.248 . S
O382 Pr352 2.441 1_566 S
O382 C371 1.267 . S
O383 Pr353 2.427 1_556 S
O383 C371 1.278 . S
H384 C356 0.929 . S
H385 C357 0.929 . S
H386 C359 0.931 . S
H387 C360 0.930 . S
H388 C365 0.929 . S
H389 C366 0.929 . S
H390 C368 0.931 . S
H391 C369 0.930 . S
Pr392 C394 2.880 . S
Pr392 O412 2.562 . S
Pr392 O413 2.490 . S
Pr392 O414 2.695 . S
Pr392 O415 2.512 . S
Pr392 O417 2.437 . S
Pr392 O420 2.436 . S
Pr392 O422 2.438 . S
Pr393 C403 2.880 . S
Pr393 O414 2.436 . S
Pr393 O416 2.438 . S
Pr393 O418 2.562 . S
Pr393 O419 2.490 . S
Pr393 O420 2.695 . S
Pr393 O421 2.512 . S
Pr393 O423 2.437 . S
C394 Pr392 2.880 . S
C394 C395 1.491 . S
C394 O412 1.254 . S
C394 O413 1.225 . S
C395 C394 1.491 . S
C395 C396 1.392 . S
C395 C400 1.356 . S
C396 C395 1.392 . S
C396 C397 1.368 . S
C396 H424 0.929 . S
C397 C396 1.368 . S
C397 C398 1.386 . S
C397 H425 0.929 . S
C398 C397 1.386 . S
C398 C399 1.373 . S
C399 C398 1.373 . S
C399 C400 1.409 . S
C399 H426 0.931 . S
C400 C395 1.356 . S
C400 C399 1.409 . S
C400 H427 0.930 . S
C401 O414 1.270 . S
C401 O415 1.248 . S
C402 O416 1.267 . S
C402 O417 1.278 . S
C403 Pr393 2.880 . S
C403 C404 1.491 . S
C403 O418 1.254 . S
C403 O419 1.225 . S
C404 C403 1.491 . S
C404 C405 1.392 . S
C404 C409 1.356 . S
C405 C404 1.392 . S
C405 C406 1.368 . S
C405 H428 0.929 . S
C406 C405 1.368 . S
C406 C407 1.386 . S
C406 H429 0.929 . S
C407 C406 1.386 . S
C407 C408 1.373 . S
C408 C407 1.373 . S
C408 C409 1.409 . S
C408 H430 0.931 . S
C409 C404 1.356 . S
C409 C408 1.409 . S
C409 H431 0.930 . S
C410 O420 1.270 . S
C410 O421 1.248 . S
C411 O422 1.267 . S
C411 O423 1.278 . S
O412 Pr392 2.562 . S
O412 C394 1.254 . S
O413 Pr392 2.490 . S
O413 C394 1.225 . S
O414 Pr392 2.695 . S
O414 Pr393 2.436 . S
O414 C401 1.270 . S
O415 Pr392 2.512 . S
O415 C401 1.248 . S
O416 Pr393 2.438 . S
O416 C402 1.267 . S
O417 Pr392 2.437 . S
O417 C402 1.278 . S
O418 Pr393 2.562 . S
O418 C403 1.254 . S
O419 Pr393 2.490 . S
O419 C403 1.225 . S
O420 Pr392 2.436 . S
O420 Pr393 2.695 . S
O420 C410 1.270 . S
O421 Pr393 2.512 . S
O421 C410 1.248 . S
O422 Pr392 2.438 . S
O422 C411 1.267 . S
O423 Pr393 2.437 . S
O423 C411 1.278 . S
H424 C396 0.929 . S
H425 C397 0.929 . S
H426 C399 0.931 . S
H427 C400 0.930 . S
H428 C405 0.929 . S
H429 C406 0.929 . S
H430 C408 0.931 . S
H431 C409 0.930 . S
Pr432 C434 2.894 . S
Pr432 O452 2.580 . S
Pr432 O453 2.498 . S
Pr432 O454 2.685 1_656 S
Pr432 O455 2.502 1_656 S
Pr432 O457 2.447 1_556 S
Pr432 O460 2.442 . S
Pr432 O462 2.424 1_655 S
Pr433 C443 2.880 . S
Pr433 O454 2.436 . S
Pr433 O456 2.438 1_455 S
Pr433 O458 2.562 . S
Pr433 O459 2.490 . S
Pr433 O460 2.695 1_454 S
Pr433 O461 2.512 1_454 S
Pr433 O463 2.437 1_554 S
C434 Pr432 2.894 . S
C434 C435 1.491 . S
C434 O452 1.254 . S
C434 O453 1.225 . S
C435 C434 1.491 . S
C435 C436 1.392 . S
C435 C440 1.356 . S
C436 C435 1.392 . S
C436 C437 1.368 . S
C436 H464 0.929 . S
C437 C436 1.368 . S
C437 C438 1.386 . S
C437 H465 0.929 . S
C438 C437 1.386 . S
C438 C439 1.373 . S
C439 C438 1.373 . S
C439 C440 1.409 . S
C439 H466 0.931 . S
C440 C435 1.356 . S
C440 C439 1.409 . S
C440 H467 0.930 . S
C441 O454 1.270 . S
C441 O455 1.248 . S
C442 O456 1.267 . S
C442 O457 1.278 . S
C443 Pr433 2.880 . S
C443 C444 1.491 . S
C443 O458 1.254 . S
C443 O459 1.225 . S
C444 C443 1.491 . S
C444 C445 1.392 . S
C444 C449 1.356 . S
C445 C444 1.392 . S
C445 C446 1.368 . S
C445 H468 0.929 . S
C446 C445 1.368 . S
C446 C447 1.386 . S
C446 H469 0.929 . S
C447 C446 1.386 . S
C447 C448 1.373 . S
C448 C447 1.373 . S
C448 C449 1.409 . S
C448 H470 0.931 . S
C449 C444 1.356 . S
C449 C448 1.409 . S
C449 H471 0.930 . S
C450 O460 1.270 . S
C450 O461 1.248 . S
C451 O462 1.267 . S
C451 O463 1.278 . S
O452 Pr432 2.580 . S
O452 C434 1.254 . S
O453 Pr432 2.498 . S
O453 C434 1.225 . S
O454 Pr432 2.685 1_454 S
O454 Pr433 2.436 . S
O454 C441 1.270 . S
O455 Pr432 2.502 1_454 S
O455 C441 1.248 . S
O456 Pr433 2.438 1_655 S
O456 C442 1.267 . S
O457 Pr432 2.447 1_554 S
O457 C442 1.278 . S
O458 Pr433 2.562 . S
O458 C443 1.254 . S
O459 Pr433 2.490 . S
O459 C443 1.225 . S
O460 Pr432 2.442 . S
O460 Pr433 2.695 1_656 S
O460 C450 1.270 . S
O461 Pr433 2.512 1_656 S
O461 C450 1.248 . S
O462 Pr432 2.424 1_455 S
O462 C451 1.267 . S
O463 Pr433 2.437 1_556 S
O463 C451 1.278 . S
H464 C436 0.929 . S
H465 C437 0.929 . S
H466 C439 0.931 . S
H467 C440 0.930 . S
H468 C445 0.929 . S
H469 C446 0.929 . S
H470 C448 0.931 . S
H471 C449 0.930 . S
H472 C480 0.950 . S
H473 C485 0.950 . S
H474 C482 0.950 . S
H475 C484 0.950 . S
H476 C486 0.950 . S
H477 C488 0.950 . S
H478 C490 0.950 . S
H479 C491 0.950 . S
C480 H472 0.950 . S
C480 C481 1.386 . S
C480 C482 1.391 . S
C481 C480 1.386 . S
C481 C485 1.393 . S
C482 H474 0.950 . S
C482 C480 1.391 . S
C482 C483 1.400 . S
C483 C482 1.400 . S
C483 C484 1.398 . S
C483 C489 1.491 . S
C484 H475 0.950 . S
C484 C483 1.398 . S
C484 C485 1.391 . S
C485 H473 0.950 . S
C485 C481 1.393 . S
C485 C484 1.391 . S
C486 H476 0.950 . S
C486 C487 1.386 . S
C486 C488 1.391 . S
C487 C486 1.386 . S
C487 C491 1.393 . S
C488 H477 0.950 . S
C488 C486 1.391 . S
C488 C489 1.400 . S
C489 C483 1.491 . S
C489 C488 1.400 . S
C489 C490 1.398 . S
C490 H478 0.950 . S
C490 C489 1.398 . S
C490 C491 1.391 . S
C491 H479 0.950 . S
C491 C487 1.393 . S
C491 C490 1.391 . S
H492 C500 0.950 . S
H493 C505 0.950 . S
H494 C502 0.950 . S
H495 C504 0.950 . S
H496 C506 0.950 . S
H497 C508 0.950 . S
H498 C510 0.950 . S
H499 C511 0.950 . S
C500 H492 0.950 . S
C500 C501 1.386 . S
C500 C502 1.391 . S
C501 C500 1.386 . S
C501 C505 1.393 . S
C502 H494 0.950 . S
C502 C500 1.391 . S
C502 C503 1.400 . S
C503 C502 1.400 . S
C503 C504 1.398 . S
C503 C509 1.491 . S
C504 H495 0.950 . S
C504 C503 1.398 . S
C504 C505 1.391 . S
C505 H493 0.950 . S
C505 C501 1.393 . S
C505 C504 1.391 . S
C506 H496 0.950 . S
C506 C507 1.386 . S
C506 C508 1.391 . S
C507 C506 1.386 . S
C507 C511 1.393 . S
C508 H497 0.950 . S
C508 C506 1.391 . S
C508 C509 1.400 . S
C509 C503 1.491 . S
C509 C508 1.400 . S
C509 C510 1.398 . S
C510 H498 0.950 . S
C510 C509 1.398 . S
C510 C511 1.391 . S
C511 H499 0.950 . S
C511 C507 1.393 . S
C511 C510 1.391 . S
H512 C520 0.950 . S
H513 C525 0.950 . S
H514 C522 0.950 . S
H515 C524 0.950 . S
H516 C526 0.950 . S
H517 C528 0.950 . S
H518 C530 0.950 . S
H519 C531 0.950 . S
C520 H512 0.950 . S
C520 C521 1.386 . S
C520 C522 1.391 . S
C521 C520 1.386 . S
C521 C525 1.393 . S
C522 H514 0.950 . S
C522 C520 1.391 . S
C522 C523 1.400 . S
C523 C522 1.400 . S
C523 C524 1.398 . S
C523 C529 1.491 . S
C524 H515 0.950 . S
C524 C523 1.398 . S
C524 C525 1.391 . S
C525 H513 0.950 . S
C525 C521 1.393 . S
C525 C524 1.391 . S
C526 H516 0.950 . S
C526 C527 1.386 . S
C526 C528 1.391 . S
C527 C526 1.386 . S
C527 C531 1.393 . S
C528 H517 0.950 . S
C528 C526 1.391 . S
C528 C529 1.400 . S
C529 C523 1.491 . S
C529 C528 1.400 . S
C529 C530 1.398 . S
C530 H518 0.950 . S
C530 C529 1.398 . S
C530 C531 1.391 . S
C531 H519 0.950 . S
C531 C527 1.393 . S
C531 C530 1.391 . S
H532 C540 0.950 . S
H533 C545 0.950 . S
H534 C542 0.950 . S
H535 C544 0.950 . S
H536 C546 0.950 . S
H537 C548 0.950 . S
H538 C550 0.950 . S
H539 C551 0.950 . S
C540 H532 0.950 . S
C540 C541 1.386 . S
C540 C542 1.391 . S
C541 C540 1.386 . S
C541 C545 1.393 . S
C542 H534 0.950 . S
C542 C540 1.391 . S
C542 C543 1.400 . S
C543 C542 1.400 . S
C543 C544 1.398 . S
C543 C549 1.491 . S
C544 H535 0.950 . S
C544 C543 1.398 . S
C544 C545 1.391 . S
C545 H533 0.950 . S
C545 C541 1.393 . S
C545 C544 1.391 . S
C546 H536 0.950 . S
C546 C547 1.386 . S
C546 C548 1.391 . S
C547 C546 1.386 . S
C547 C551 1.393 . S
C548 H537 0.950 . S
C548 C546 1.391 . S
C548 C549 1.400 . S
C549 C543 1.491 . S
C549 C548 1.400 . S
C549 C550 1.398 . S
C550 H538 0.950 . S
C550 C549 1.398 . S
C550 C551 1.391 . S
C551 H539 0.950 . S
C551 C547 1.393 . S
C551 C550 1.391 . S
H552 C560 0.950 . S
H553 C565 0.950 . S
H554 C562 0.950 . S
H555 C564 0.950 . S
H556 C566 0.950 . S
H557 C568 0.950 . S
H558 C570 0.950 . S
H559 C571 0.950 . S
C560 H552 0.950 . S
C560 C561 1.386 . S
C560 C562 1.391 . S
C561 C560 1.386 . S
C561 C565 1.393 . S
C562 H554 0.950 . S
C562 C560 1.391 . S
C562 C563 1.400 . S
C563 C562 1.400 . S
C563 C564 1.398 . S
C563 C569 1.491 . S
C564 H555 0.950 . S
C564 C563 1.398 . S
C564 C565 1.391 . S
C565 H553 0.950 . S
C565 C561 1.393 . S
C565 C564 1.391 . S
C566 H556 0.950 . S
C566 C567 1.386 . S
C566 C568 1.391 . S
C567 C566 1.386 . S
C567 C571 1.393 . S
C568 H557 0.950 . S
C568 C566 1.391 . S
C568 C569 1.400 . S
C569 C563 1.491 . S
C569 C568 1.400 . S
C569 C570 1.398 . S
C570 H558 0.950 . S
C570 C569 1.398 . S
C570 C571 1.391 . S
C571 H559 0.950 . S
C571 C567 1.393 . S
C571 C570 1.391 . S
H572 C580 0.950 . S
H573 C585 0.950 . S
H574 C582 0.950 . S
H575 C584 0.950 . S
H576 C586 0.950 . S
H577 C588 0.950 . S
H578 C590 0.950 . S
H579 C591 0.950 . S
C580 H572 0.950 . S
C580 C581 1.386 . S
C580 C582 1.391 . S
C581 C580 1.386 . S
C581 C585 1.393 . S
C582 H574 0.950 . S
C582 C580 1.391 . S
C582 C583 1.400 . S
C583 C582 1.400 . S
C583 C584 1.398 . S
C583 C589 1.491 . S
C584 H575 0.950 . S
C584 C583 1.398 . S
C584 C585 1.391 . S
C585 H573 0.950 . S
C585 C581 1.393 . S
C585 C584 1.391 . S
C586 H576 0.950 . S
C586 C587 1.386 . S
C586 C588 1.391 . S
C587 C586 1.386 . S
C587 C591 1.393 . S
C588 H577 0.950 . S
C588 C586 1.391 . S
C588 C589 1.400 . S
C589 C583 1.491 . S
C589 C588 1.400 . S
C589 C590 1.398 . S
C590 H578 0.950 . S
C590 C589 1.398 . S
C590 C591 1.391 . S
C591 H579 0.950 . S
C591 C587 1.393 . S
C591 C590 1.391 . S
H592 C600 0.950 . S
H593 C605 0.950 . S
H594 C602 0.950 . S
H595 C604 0.950 . S
H596 C606 0.950 . S
H597 C608 0.950 . S
H598 C610 0.950 . S
H599 C611 0.950 . S
C600 H592 0.950 . S
C600 C601 1.386 . S
C600 C602 1.391 . S
C601 C600 1.386 . S
C601 C605 1.393 . S
C602 H594 0.950 . S
C602 C600 1.391 . S
C602 C603 1.400 . S
C603 C602 1.400 . S
C603 C604 1.398 . S
C603 C609 1.491 . S
C604 H595 0.950 . S
C604 C603 1.398 . S
C604 C605 1.391 . S
C605 H593 0.950 . S
C605 C601 1.393 . S
C605 C604 1.391 . S
C606 H596 0.950 . S
C606 C607 1.386 . S
C606 C608 1.391 . S
C607 C606 1.386 . S
C607 C611 1.393 . S
C608 H597 0.950 . S
C608 C606 1.391 . S
C608 C609 1.400 . S
C609 C603 1.491 . S
C609 C608 1.400 . S
C609 C610 1.398 . S
C610 H598 0.950 . S
C610 C609 1.398 . S
C610 C611 1.391 . S
C611 H599 0.950 . S
C611 C607 1.393 . S
C611 C610 1.391 . S
H612 C620 0.950 . S
H613 C625 0.950 . S
H614 C622 0.950 . S
H615 C624 0.950 . S
H616 C626 0.950 . S
H617 C628 0.950 . S
H618 C630 0.950 . S
H619 C631 0.950 . S
C620 H612 0.950 . S
C620 C621 1.386 . S
C620 C622 1.391 . S
C621 C620 1.386 . S
C621 C625 1.393 . S
C622 H614 0.950 . S
C622 C620 1.391 . S
C622 C623 1.400 . S
C623 C622 1.400 . S
C623 C624 1.398 . S
C623 C629 1.491 . S
C624 H615 0.950 . S
C624 C623 1.398 . S
C624 C625 1.391 . S
C625 H613 0.950 . S
C625 C621 1.393 . S
C625 C624 1.391 . S
C626 H616 0.950 . S
C626 C627 1.386 . S
C626 C628 1.391 . S
C627 C626 1.386 . S
C627 C631 1.393 . S
C628 H617 0.950 . S
C628 C626 1.391 . S
C628 C629 1.400 . S
C629 C623 1.491 . S
C629 C628 1.400 . S
C629 C630 1.398 . S
C630 H618 0.950 . S
C630 C629 1.398 . S
C630 C631 1.391 . S
C631 H619 0.950 . S
C631 C627 1.393 . S
C631 C630 1.391 . S
H632 C640 0.950 . S
H633 C645 0.950 . S
H634 C642 0.950 . S
H635 C644 0.950 . S
H636 C646 0.950 . S
H637 C648 0.950 . S
H638 C650 0.950 . S
H639 C651 0.950 . S
C640 H632 0.950 . S
C640 C641 1.386 . S
C640 C642 1.391 . S
C641 C640 1.386 . S
C641 C645 1.393 . S
C642 H634 0.950 . S
C642 C640 1.391 . S
C642 C643 1.400 . S
C643 C642 1.400 . S
C643 C644 1.398 . S
C643 C649 1.491 . S
C644 H635 0.950 . S
C644 C643 1.398 . S
C644 C645 1.391 . S
C645 H633 0.950 . S
C645 C641 1.393 . S
C645 C644 1.391 . S
C646 H636 0.950 . S
C646 C647 1.386 . S
C646 C648 1.391 . S
C647 C646 1.386 . S
C647 C651 1.393 . S
C648 H637 0.950 . S
C648 C646 1.391 . S
C648 C649 1.400 . S
C649 C643 1.491 . S
C649 C648 1.400 . S
C649 C650 1.398 . S
C650 H638 0.950 . S
C650 C649 1.398 . S
C650 C651 1.391 . S
C651 H639 0.950 . S
C651 C647 1.393 . S
C651 C650 1.391 . S
H652 C660 0.950 . S
H653 C665 0.950 . S
H654 C662 0.950 . S
H655 C664 0.950 . S
H656 C666 0.950 . S
H657 C668 0.950 . S
H658 C670 0.950 . S
H659 C671 0.950 . S
C660 H652 0.950 . S
C660 C661 1.386 . S
C660 C662 1.391 . S
C661 C660 1.386 . S
C661 C665 1.393 . S
C662 H654 0.950 . S
C662 C660 1.391 . S
C662 C663 1.400 . S
C663 C662 1.400 . S
C663 C664 1.398 . S
C663 C669 1.491 . S
C664 H655 0.950 . S
C664 C663 1.398 . S
C664 C665 1.391 . S
C665 H653 0.950 . S
C665 C661 1.393 . S
C665 C664 1.391 . S
C666 H656 0.950 . S
C666 C667 1.386 . S
C666 C668 1.391 . S
C667 C666 1.386 . S
C667 C671 1.393 . S
C668 H657 0.950 . S
C668 C666 1.391 . S
C668 C669 1.400 . S
C669 C663 1.491 . S
C669 C668 1.400 . S
C669 C670 1.398 . S
C670 H658 0.950 . S
C670 C669 1.398 . S
C670 C671 1.391 . S
C671 H659 0.950 . S
C671 C667 1.393 . S
C671 C670 1.391 . S
H672 C680 0.950 . S
H673 C685 0.950 . S
H674 C682 0.950 . S
H675 C684 0.950 . S
H676 C686 0.950 . S
H677 C688 0.950 . S
H678 C690 0.950 . S
H679 C691 0.950 . S
C680 H672 0.950 . S
C680 C681 1.386 . S
C680 C682 1.391 . S
C681 C680 1.386 . S
C681 C685 1.393 . S
C682 H674 0.950 . S
C682 C680 1.391 . S
C682 C683 1.400 . S
C683 C682 1.400 . S
C683 C684 1.398 . S
C683 C689 1.491 . S
C684 H675 0.950 . S
C684 C683 1.398 . S
C684 C685 1.391 . S
C685 H673 0.950 . S
C685 C681 1.393 . S
C685 C684 1.391 . S
C686 H676 0.950 . S
C686 C687 1.386 . S
C686 C688 1.391 . S
C687 C686 1.386 . S
C687 C691 1.393 . S
C688 H677 0.950 . S
C688 C686 1.391 . S
C688 C689 1.400 . S
C689 C683 1.491 . S
C689 C688 1.400 . S
C689 C690 1.398 . S
C690 H678 0.950 . S
C690 C689 1.398 . S
C690 C691 1.391 . S
C691 H679 0.950 . S
C691 C687 1.393 . S
C691 C690 1.391 . S
H692 C700 0.950 . S
H693 C705 0.950 . S
H694 C702 0.950 . S
H695 C704 0.950 . S
H696 C706 0.950 . S
H697 C708 0.950 . S
H698 C710 0.950 . S
H699 C711 0.950 . S
C700 H692 0.950 . S
C700 C701 1.386 . S
C700 C702 1.391 . S
C701 C700 1.386 . S
C701 C705 1.393 . S
C702 H694 0.950 . S
C702 C700 1.391 . S
C702 C703 1.400 . S
C703 C702 1.400 . S
C703 C704 1.398 . S
C703 C709 1.491 . S
C704 H695 0.950 . S
C704 C703 1.398 . S
C704 C705 1.391 . S
C705 H693 0.950 . S
C705 C701 1.393 . S
C705 C704 1.391 . S
C706 H696 0.950 . S
C706 C707 1.386 . S
C706 C708 1.391 . S
C707 C706 1.386 . S
C707 C711 1.393 . S
C708 H697 0.950 . S
C708 C706 1.391 . S
C708 C709 1.400 . S
C709 C703 1.491 . S
C709 C708 1.400 . S
C709 C710 1.398 . S
C710 H698 0.950 . S
C710 C709 1.398 . S
C710 C711 1.391 . S
C711 H699 0.950 . S
C711 C707 1.393 . S
C711 C710 1.391 . S
H712 C720 0.950 . S
H713 C725 0.950 . S
H714 C722 0.950 . S
H715 C724 0.950 . S
H716 C726 0.950 . S
H717 C728 0.950 . S
H718 C730 0.950 . S
H719 C731 0.950 . S
C720 H712 0.950 . S
C720 C721 1.386 . S
C720 C722 1.391 . S
C721 C720 1.386 . S
C721 C725 1.393 . S
C722 H714 0.950 . S
C722 C720 1.391 . S
C722 C723 1.400 . S
C723 C722 1.400 . S
C723 C724 1.398 . S
C723 C729 1.491 . S
C724 H715 0.950 . S
C724 C723 1.398 . S
C724 C725 1.391 . S
C725 H713 0.950 . S
C725 C721 1.393 . S
C725 C724 1.391 . S
C726 H716 0.950 . S
C726 C727 1.386 . S
C726 C728 1.391 . S
C727 C726 1.386 . S
C727 C731 1.393 . S
C728 H717 0.950 . S
C728 C726 1.391 . S
C728 C729 1.400 . S
C729 C723 1.491 . S
C729 C728 1.400 . S
C729 C730 1.398 . S
C730 H718 0.950 . S
C730 C729 1.398 . S
C730 C731 1.391 . S
C731 H719 0.950 . S
C731 C727 1.393 . S
C731 C730 1.391 . S
H732 C740 0.950 . S
H733 C745 0.950 . S
H734 C742 0.950 . S
H735 C744 0.950 . S
H736 C746 0.950 . S
H737 C748 0.950 . S
H738 C750 0.950 . S
H739 C751 0.950 . S
C740 H732 0.950 . S
C740 C741 1.386 . S
C740 C742 1.391 . S
C741 C740 1.386 . S
C741 C745 1.393 . S
C742 H734 0.950 . S
C742 C740 1.391 . S
C742 C743 1.400 . S
C743 C742 1.400 . S
C743 C744 1.398 . S
C743 C749 1.491 . S
C744 H735 0.950 . S
C744 C743 1.398 . S
C744 C745 1.391 . S
C745 H733 0.950 . S
C745 C741 1.393 . S
C745 C744 1.391 . S
C746 H736 0.950 . S
C746 C747 1.386 . S
C746 C748 1.391 . S
C747 C746 1.386 . S
C747 C751 1.393 . S
C748 H737 0.950 . S
C748 C746 1.391 . S
C748 C749 1.400 . S
C749 C743 1.491 . S
C749 C748 1.400 . S
C749 C750 1.398 . S
C750 H738 0.950 . S
C750 C749 1.398 . S
C750 C751 1.391 . S
C751 H739 0.950 . S
C751 C747 1.393 . S
C751 C750 1.391 . S
H752 C760 0.950 . S
H753 C765 0.950 . S
H754 C762 0.950 . S
H755 C764 0.950 . S
H756 C766 0.950 . S
H757 C768 0.950 . S
H758 C770 0.950 . S
H759 C771 0.950 . S
C760 H752 0.950 . S
C760 C761 1.386 . S
C760 C762 1.391 . S
C761 C760 1.386 . S
C761 C765 1.393 . S
C762 H754 0.950 . S
C762 C760 1.391 . S
C762 C763 1.400 . S
C763 C762 1.400 . S
C763 C764 1.398 . S
C763 C769 1.491 . S
C764 H755 0.950 . S
C764 C763 1.398 . S
C764 C765 1.391 . S
C765 H753 0.950 . S
C765 C761 1.393 . S
C765 C764 1.391 . S
C766 H756 0.950 . S
C766 C767 1.386 . S
C766 C768 1.391 . S
C767 C766 1.386 . S
C767 C771 1.393 . S
C768 H757 0.950 . S
C768 C766 1.391 . S
C768 C769 1.400 . S
C769 C763 1.491 . S
C769 C768 1.400 . S
C769 C770 1.398 . S
C770 H758 0.950 . S
C770 C769 1.398 . S
C770 C771 1.391 . S
C771 H759 0.950 . S
C771 C767 1.393 . S
C771 C770 1.391 . S
H772 C780 0.950 . S
H773 C785 0.950 . S
H774 C782 0.950 . S
H775 C784 0.950 . S
H776 C786 0.950 . S
H777 C788 0.950 . S
H778 C790 0.950 . S
H779 C791 0.950 . S
C780 H772 0.950 . S
C780 C781 1.386 . S
C780 C782 1.391 . S
C781 C780 1.386 . S
C781 C785 1.393 . S
C782 H774 0.950 . S
C782 C780 1.391 . S
C782 C783 1.400 . S
C783 C782 1.400 . S
C783 C784 1.398 . S
C783 C789 1.491 . S
C784 H775 0.950 . S
C784 C783 1.398 . S
C784 C785 1.391 . S
C785 H773 0.950 . S
C785 C781 1.393 . S
C785 C784 1.391 . S
C786 H776 0.950 . S
C786 C787 1.386 . S
C786 C788 1.391 . S
C787 C786 1.386 . S
C787 C791 1.393 . S
C788 H777 0.950 . S
C788 C786 1.391 . S
C788 C789 1.400 . S
C789 C783 1.491 . S
C789 C788 1.400 . S
C789 C790 1.398 . S
C790 H778 0.950 . S
C790 C789 1.398 . S
C790 C791 1.391 . S
C791 H779 0.950 . S
C791 C787 1.393 . S
C791 C790 1.391 . S
H792 C800 0.950 . S
H793 C805 0.950 . S
H794 C802 0.950 . S
H795 C804 0.950 . S
H796 C806 0.950 . S
H797 C808 0.950 . S
H798 C810 0.950 . S
H799 C811 0.950 . S
C800 H792 0.950 . S
C800 C801 1.386 . S
C800 C802 1.391 . S
C801 C800 1.386 . S
C801 C805 1.393 . S
C802 H794 0.950 . S
C802 C800 1.391 . S
C802 C803 1.400 . S
C803 C802 1.400 . S
C803 C804 1.398 . S
C803 C809 1.491 . S
C804 H795 0.950 . S
C804 C803 1.398 . S
C804 C805 1.391 . S
C805 H793 0.950 . S
C805 C801 1.393 . S
C805 C804 1.391 . S
C806 H796 0.950 . S
C806 C807 1.386 . S
C806 C808 1.391 . S
C807 C806 1.386 . S
C807 C811 1.393 . S
C808 H797 0.950 . S
C808 C806 1.391 . S
C808 C809 1.400 . S
C809 C803 1.491 . S
C809 C808 1.400 . S
C809 C810 1.398 . S
C810 H798 0.950 . S
C810 C809 1.398 . S
C810 C811 1.391 . S
C811 H799 0.950 . S
C811 C807 1.393 . S
C811 C810 1.391 . S
H812 C820 0.950 . S
H813 C825 0.950 . S
H814 C822 0.950 . S
H815 C824 0.950 . S
H816 C826 0.950 . S
H817 C828 0.950 . S
H818 C830 0.950 . S
H819 C831 0.950 . S
C820 H812 0.950 . S
C820 C821 1.386 . S
C820 C822 1.391 . S
C821 C820 1.386 . S
C821 C825 1.393 . S
C822 H814 0.950 . S
C822 C820 1.391 . S
C822 C823 1.400 . S
C823 C822 1.400 . S
C823 C824 1.398 . S
C823 C829 1.491 . S
C824 H815 0.950 . S
C824 C823 1.398 . S
C824 C825 1.391 . S
C825 H813 0.950 . S
C825 C821 1.393 . S
C825 C824 1.391 . S
C826 H816 0.950 . S
C826 C827 1.386 . S
C826 C828 1.391 . S
C827 C826 1.386 . S
C827 C831 1.393 . S
C828 H817 0.950 . S
C828 C826 1.391 . S
C828 C829 1.400 . S
C829 C823 1.491 . S
C829 C828 1.400 . S
C829 C830 1.398 . S
C830 H818 0.950 . S
C830 C829 1.398 . S
C830 C831 1.391 . S
C831 H819 0.950 . S
C831 C827 1.393 . S
C831 C830 1.391 . S
H832 C840 0.950 . S
H833 C845 0.950 . S
H834 C842 0.950 . S
H835 C844 0.950 . S
H836 C846 0.950 . S
H837 C848 0.950 . S
H838 C850 0.950 . S
H839 C851 0.950 . S
C840 H832 0.950 . S
C840 C841 1.386 . S
C840 C842 1.391 . S
C841 C840 1.386 . S
C841 C845 1.393 . S
C842 H834 0.950 . S
C842 C840 1.391 . S
C842 C843 1.400 . S
C843 C842 1.400 . S
C843 C844 1.398 . S
C843 C849 1.491 . S
C844 H835 0.950 . S
C844 C843 1.398 . S
C844 C845 1.391 . S
C845 H833 0.950 . S
C845 C841 1.393 . S
C845 C844 1.391 . S
C846 H836 0.950 . S
C846 C847 1.386 . S
C846 C848 1.391 . S
C847 C846 1.386 . S
C847 C851 1.393 . S
C848 H837 0.950 . S
C848 C846 1.391 . S
C848 C849 1.400 . S
C849 C843 1.491 . S
C849 C848 1.400 . S
C849 C850 1.398 . S
C850 H838 0.950 . S
C850 C849 1.398 . S
C850 C851 1.391 . S
C851 H839 0.950 . S
C851 C847 1.393 . S
C851 C850 1.391 . S
H852 C860 0.950 . S
H853 C865 0.950 . S
H854 C862 0.950 . S
H855 C864 0.950 . S
H856 C866 0.950 . S
H857 C868 0.950 . S
H858 C870 0.950 . S
H859 C871 0.950 . S
C860 H852 0.950 . S
C860 C861 1.386 . S
C860 C862 1.391 . S
C861 C860 1.386 . S
C861 C865 1.393 . S
C862 H854 0.950 . S
C862 C860 1.391 . S
C862 C863 1.400 . S
C863 C862 1.400 . S
C863 C864 1.398 . S
C863 C869 1.491 . S
C864 H855 0.950 . S
C864 C863 1.398 . S
C864 C865 1.391 . S
C865 H853 0.950 . S
C865 C861 1.393 . S
C865 C864 1.391 . S
C866 H856 0.950 . S
C866 C867 1.386 . S
C866 C868 1.391 . S
C867 C866 1.386 . S
C867 C871 1.393 . S
C868 H857 0.950 . S
C868 C866 1.391 . S
C868 C869 1.400 . S
C869 C863 1.491 . S
C869 C868 1.400 . S
C869 C870 1.398 . S
C870 H858 0.950 . S
C870 C869 1.398 . S
C870 C871 1.391 . S
C871 H859 0.950 . S
C871 C867 1.393 . S
C871 C870 1.391 . S
H872 C880 0.950 . S
H873 C885 0.950 . S
H874 C882 0.950 . S
H875 C884 0.950 . S
H876 C886 0.950 . S
H877 C888 0.950 . S
H878 C890 0.950 . S
H879 C891 0.950 . S
C880 H872 0.950 . S
C880 C881 1.386 . S
C880 C882 1.391 . S
C881 C880 1.386 . S
C881 C885 1.393 . S
C882 H874 0.950 . S
C882 C880 1.391 . S
C882 C883 1.400 . S
C883 C882 1.400 . S
C883 C884 1.398 . S
C883 C889 1.491 . S
C884 H875 0.950 . S
C884 C883 1.398 . S
C884 C885 1.391 . S
C885 H873 0.950 . S
C885 C881 1.393 . S
C885 C884 1.391 . S
C886 H876 0.950 . S
C886 C887 1.386 . S
C886 C888 1.391 . S
C887 C886 1.386 . S
C887 C891 1.393 . S
C888 H877 0.950 . S
C888 C886 1.391 . S
C888 C889 1.400 . S
C889 C883 1.491 . S
C889 C888 1.400 . S
C889 C890 1.398 . S
C890 H878 0.950 . S
C890 C889 1.398 . S
C890 C891 1.391 . S
C891 H879 0.950 . S
C891 C887 1.393 . S
C891 C890 1.391 . S
H892 C900 0.950 . S
H893 C905 0.950 . S
H894 C902 0.950 . S
H895 C904 0.950 . S
H896 C906 0.950 . S
H897 C908 0.950 . S
H898 C910 0.950 . S
H899 C911 0.950 . S
C900 H892 0.950 . S
C900 C901 1.386 . S
C900 C902 1.391 . S
C901 C900 1.386 . S
C901 C905 1.393 . S
C902 H894 0.950 . S
C902 C900 1.391 . S
C902 C903 1.400 . S
C903 C902 1.400 . S
C903 C904 1.398 . S
C903 C909 1.491 . S
C904 H895 0.950 . S
C904 C903 1.398 . S
C904 C905 1.391 . S
C905 H893 0.950 . S
C905 C901 1.393 . S
C905 C904 1.391 . S
C906 H896 0.950 . S
C906 C907 1.386 . S
C906 C908 1.391 . S
C907 C906 1.386 . S
C907 C911 1.393 . S
C908 H897 0.950 . S
C908 C906 1.391 . S
C908 C909 1.400 . S
C909 C903 1.491 . S
C909 C908 1.400 . S
C909 C910 1.398 . S
C910 H898 0.950 . S
C910 C909 1.398 . S
C910 C911 1.391 . S
C911 H899 0.950 . S
C911 C907 1.393 . S
C911 C910 1.391 . S
H912 C920 0.950 . S
H913 C925 0.950 . S
H914 C922 0.950 . S
H915 C924 0.950 . S
H916 C926 0.950 . S
H917 C928 0.950 . S
H918 C930 0.950 . S
H919 C931 0.950 . S
C920 H912 0.950 . S
C920 C921 1.386 . S
C920 C922 1.391 . S
C921 C920 1.386 . S
C921 C925 1.393 . S
C922 H914 0.950 . S
C922 C920 1.391 . S
C922 C923 1.400 . S
C923 C922 1.400 . S
C923 C924 1.398 . S
C923 C929 1.491 . S
C924 H915 0.950 . S
C924 C923 1.398 . S
C924 C925 1.391 . S
C925 H913 0.950 . S
C925 C921 1.393 . S
C925 C924 1.391 . S
C926 H916 0.950 . S
C926 C927 1.386 . S
C926 C928 1.391 . S
C927 C926 1.386 . S
C927 C931 1.393 . S
C928 H917 0.950 . S
C928 C926 1.391 . S
C928 C929 1.400 . S
C929 C923 1.491 . S
C929 C928 1.400 . S
C929 C930 1.398 . S
C930 H918 0.950 . S
C930 C929 1.398 . S
C930 C931 1.391 . S
C931 H919 0.950 . S
C931 C927 1.393 . S
C931 C930 1.391 . S
H932 C940 0.950 . S
H933 C945 0.950 . S
H934 C942 0.950 . S
H935 C944 0.950 . S
H936 C946 0.950 . S
H937 C948 0.950 . S
H938 C950 0.950 . S
H939 C951 0.950 . S
C940 H932 0.950 . S
C940 C941 1.386 . S
C940 C942 1.391 . S
C941 C940 1.386 . S
C941 C945 1.393 . S
C942 H934 0.950 . S
C942 C940 1.391 . S
C942 C943 1.400 . S
C943 C942 1.400 . S
C943 C944 1.398 . S
C943 C949 1.491 . S
C944 H935 0.950 . S
C944 C943 1.398 . S
C944 C945 1.391 . S
C945 H933 0.950 . S
C945 C941 1.393 . S
C945 C944 1.391 . S
C946 H936 0.950 . S
C946 C947 1.386 . S
C946 C948 1.391 . S
C947 C946 1.386 . S
C947 C951 1.393 . S
C948 H937 0.950 . S
C948 C946 1.391 . S
C948 C949 1.400 . S
C949 C943 1.491 . S
C949 C948 1.400 . S
C949 C950 1.398 . S
C950 H938 0.950 . S
C950 C949 1.398 . S
C950 C951 1.391 . S
C951 H939 0.950 . S
C951 C947 1.393 . S
C951 C950 1.391 . S
C481 C1 1.029 . S
C487 C327 1.045 . S
C501 C40 1.633 . S
C507 C371 1.624 . S
C527 C401 2.167 . S
C521 C99 2.160 . S
C541 C118 2.790 . S
C547 C442 2.745 . S
C567 C358 0.761 . S
C561 C16 0.777 . S
C587 C322 2.559 . S
C581 C60 2.529 . S
C607 C450 1.172 . S
C601 C79 1.161 . S
C627 C411 2.243 . S
C621 C138 2.293 . S
C641 C21 1.013 . S
C647 C447 1.022 . S
C667 C361 2.051 . S
C661 C94 2.098 . S
C681 C133 2.108 . S
C687 C330 2.060 . S
C701 C55 1.930 . S
C707 C398 1.946 . S
C727 C318 1.068 . S
C721 C157 1.054 . S
C741 C196 1.614 . S
C747 C362 1.607 . S
C761 C255 2.160 . S
C767 C410 2.174 . S
C781 C289 2.782 . S
C787 C451 2.745 . S
C801 C172 0.778 . S
C807 C367 0.760 . S
C827 C331 2.560 . S
C821 C216 2.517 . S
C847 C441 1.175 . S
C841 C235 1.180 . S
C867 C402 2.224 . S
C861 C294 2.287 . S
C881 C177 0.997 . S
C887 C438 0.993 . S
C907 C370 2.048 . S
C901 C250 2.095 . S
C927 C321 2.050 . S
C921 C274 2.107 . S
C941 C211 1.927 . S
C947 C407 1.933 . S
