# Generated by pormake.
# Topology hwx, (6,3)-cn, num edge types: 1
# Building blocks:
#     Node 0, Type 0, BuildingBlock: OJICUG_clean_sbu_0, # of connection points: 6
#     Node 1, Type 0, BuildingBlock: OJICUG_clean_sbu_0, # of connection points: 6
#     Node 2, Type 0, BuildingBlock: OJICUG_clean_sbu_0, # of connection points: 6
#     Node 3, Type 0, BuildingBlock: OJICUG_clean_sbu_0, # of connection points: 6
#     Node 4, Type 1, BuildingBlock: VETTIZ_charged_linker_0, # of connection points: 3
#     Node 5, Type 1, BuildingBlock: VETTIZ_charged_linker_0, # of connection points: 3
#     Node 6, Type 1, BuildingBlock: VETTIZ_charged_linker_0, # of connection points: 3
#     Node 7, Type 1, BuildingBlock: VETTIZ_charged_linker_0, # of connection points: 3
#     Node 8, Type 1, BuildingBlock: VETTIZ_charged_linker_0, # of connection points: 3
#     Node 9, Type 1, BuildingBlock: VETTIZ_charged_linker_0, # of connection points: 3
#     Node 10, Type 1, BuildingBlock: VETTIZ_charged_linker_0, # of connection points: 3
#     Node 11, Type 1, BuildingBlock: VETTIZ_charged_linker_0, # of connection points: 3
#     Edge 12, Type (0, 1), BuildingBlock: UVAHIK_clean_linker_0, # of connection points: 2
#     Edge 13, Type (0, 1), BuildingBlock: UVAHIK_clean_linker_0, # of connection points: 2
#     Edge 14, Type (0, 1), BuildingBlock: UVAHIK_clean_linker_0, # of connection points: 2
#     Edge 15, Type (0, 1), BuildingBlock: UVAHIK_clean_linker_0, # of connection points: 2
#     Edge 16, Type (0, 1), BuildingBlock: UVAHIK_clean_linker_0, # of connection points: 2
#     Edge 17, Type (0, 1), BuildingBlock: UVAHIK_clean_linker_0, # of connection points: 2
#     Edge 18, Type (0, 1), BuildingBlock: UVAHIK_clean_linker_0, # of connection points: 2
#     Edge 19, Type (0, 1), BuildingBlock: UVAHIK_clean_linker_0, # of connection points: 2
#     Edge 20, Type (0, 1), BuildingBlock: UVAHIK_clean_linker_0, # of connection points: 2
#     Edge 21, Type (0, 1), BuildingBlock: UVAHIK_clean_linker_0, # of connection points: 2
#     Edge 22, Type (0, 1), BuildingBlock: UVAHIK_clean_linker_0, # of connection points: 2
#     Edge 23, Type (0, 1), BuildingBlock: UVAHIK_clean_linker_0, # of connection points: 2
#     Edge 24, Type (0, 1), BuildingBlock: UVAHIK_clean_linker_0, # of connection points: 2
#     Edge 25, Type (0, 1), BuildingBlock: UVAHIK_clean_linker_0, # of connection points: 2
#     Edge 26, Type (0, 1), BuildingBlock: UVAHIK_clean_linker_0, # of connection points: 2
#     Edge 27, Type (0, 1), BuildingBlock: UVAHIK_clean_linker_0, # of connection points: 2
#     Edge 28, Type (0, 1), BuildingBlock: UVAHIK_clean_linker_0, # of connection points: 2
#     Edge 29, Type (0, 1), BuildingBlock: UVAHIK_clean_linker_0, # of connection points: 2
#     Edge 30, Type (0, 1), BuildingBlock: UVAHIK_clean_linker_0, # of connection points: 2
#     Edge 31, Type (0, 1), BuildingBlock: UVAHIK_clean_linker_0, # of connection points: 2
#     Edge 32, Type (0, 1), BuildingBlock: UVAHIK_clean_linker_0, # of connection points: 2
#     Edge 33, Type (0, 1), BuildingBlock: UVAHIK_clean_linker_0, # of connection points: 2
#     Edge 34, Type (0, 1), BuildingBlock: UVAHIK_clean_linker_0, # of connection points: 2
#     Edge 35, Type (0, 1), BuildingBlock: UVAHIK_clean_linker_0, # of connection points: 2
# Relax obj value: 0.080
# Max RMSD: 0.104
# Mean RMSD: 0.097
data_MOF--net-hwx--node1-OJICUG_clean_sbu_0--node2-VETTIZ_charged_linker_0--edge1-UVAHIK_clean_linker_0
_symmetry_space_group_name_H-M    P1
_symmetry_Int_Tables_number       1
_symmetry_cell_setting            triclinic
loop_
_symmetry_equiv_pos_as_xyz
'x, y, z'
_cell_length_a     74.75139
_cell_length_b     74.728257
_cell_length_c     33.985112
_cell_angle_alpha  90.085899
_cell_angle_beta   89.995065
_cell_angle_gamma 89.981998
loop_
_atom_site_label
_atom_site_type_symbol
_atom_site_fract_x
_atom_site_fract_y
_atom_site_fract_z
_atom_type_partial_charge
Sc0 Sc 0.2158 0.21879 0.04632 0.0
Sc1 Sc 0.18762 0.18715 0.00076 0.0
Sc2 Sc 0.21544 0.2151 0.9433 0.0
O3 O 0.20628 0.20699 0.99676 0.0
C4 C 0.21235 0.25229 0.98867 0.0
C5 C 0.17447 0.21474 0.06692 0.0
C6 C 0.17354 0.20997 0.92777 0.0
C7 C 0.21357 0.17768 0.07196 0.0
C8 C 0.25117 0.2149 0.99484 0.0
C9 C 0.21279 0.1728 0.93136 0.0
O10 O 0.21395 0.24534 0.02257 0.0
O11 O 0.17201 0.20145 0.04412 0.0
O12 O 0.18889 0.21616 0.91918 0.0
O13 O 0.21889 0.19372 0.07587 0.0
O14 O 0.24307 0.21499 0.96192 0.0
O15 O 0.20096 0.17055 0.95781 0.0
O16 O 0.24307 0.21598 0.02761 0.0
O17 O 0.2024 0.17294 0.04568 0.0
O18 O 0.21938 0.18804 0.92332 0.0
O19 O 0.18947 0.22261 0.07014 0.0
O20 O 0.21236 0.24309 0.9572 0.0
O21 O 0.17092 0.19937 0.95647 0.0
Sc22 Sc 0.28221 0.71422 0.44127 0.0
Sc23 Sc 0.30907 0.68624 0.50094 0.0
Sc24 Sc 0.27983 0.71779 0.54399 0.0
O25 O 0.2904 0.70605 0.49539 0.0
C26 C 0.28474 0.75136 0.48768 0.0
C27 C 0.32424 0.70927 0.429 0.0
C28 C 0.32084 0.71343 0.56859 0.0
C29 C 0.28518 0.67181 0.42983 0.0
C30 C 0.24554 0.71425 0.48856 0.0
C31 C 0.28133 0.67677 0.56948 0.0
O32 O 0.28385 0.74232 0.45602 0.0
O33 O 0.32625 0.69794 0.45661 0.0
O34 O 0.30541 0.72038 0.57178 0.0
O35 O 0.27952 0.68723 0.42021 0.0
O36 O 0.25291 0.71655 0.52186 0.0
O37 O 0.29391 0.67244 0.54604 0.0
O38 O 0.25437 0.71294 0.45676 0.0
O39 O 0.29593 0.66928 0.4583 0.0
O40 O 0.27501 0.69252 0.57148 0.0
O41 O 0.3092 0.71617 0.42046 0.0
O42 O 0.28373 0.74428 0.52153 0.0
O43 O 0.32433 0.70095 0.54426 0.0
Sc44 Sc 0.78149 0.77859 0.94601 0.0
Sc45 Sc 0.80903 0.8103 0.99379 0.0
Sc46 Sc 0.78079 0.78176 0.04886 0.0
O47 O 0.79047 0.79025 0.99623 0.0
C48 C 0.74559 0.78138 0.99659 0.0
C49 C 0.78292 0.81982 0.92225 0.0
C50 C 0.78303 0.82408 0.06193 0.0
C51 C 0.82307 0.78363 0.9272 0.0
C52 C 0.78531 0.74487 0.00217 0.0
C53 C 0.82233 0.78706 0.06711 0.0
O54 O 0.75393 0.77929 0.96433 0.0
O55 O 0.79483 0.82421 0.94728 0.0
O56 O 0.77714 0.80859 0.07013 0.0
O57 O 0.80786 0.77649 0.92168 0.0
O58 O 0.7833 0.75379 0.03376 0.0
O59 O 0.82512 0.79848 0.04 0.0
O60 O 0.7852 0.75205 0.96834 0.0
O61 O 0.82565 0.79603 0.95221 0.0
O62 O 0.8071 0.78009 0.07337 0.0
O63 O 0.77703 0.80396 0.91882 0.0
O64 O 0.75348 0.78273 0.02953 0.0
O65 O 0.79461 0.82684 0.0352 0.0
Sc66 Sc 0.71662 0.28107 0.55354 0.0
Sc67 Sc 0.6872 0.30934 0.50102 0.0
Sc68 Sc 0.71603 0.27983 0.45032 0.0
O69 O 0.70659 0.29009 0.50164 0.0
C70 C 0.75178 0.2837 0.50044 0.0
C71 C 0.7128 0.32287 0.57046 0.0
C72 C 0.7121 0.32144 0.42993 0.0
C73 C 0.67478 0.28434 0.57194 0.0
C74 C 0.71424 0.24493 0.50419 0.0
C75 C 0.67437 0.28299 0.43213 0.0
O76 O 0.744 0.28251 0.53361 0.0
O77 O 0.7005 0.32541 0.54519 0.0
O78 O 0.71796 0.30573 0.42374 0.0
O79 O 0.69045 0.27858 0.57895 0.0
O80 O 0.71532 0.25263 0.47096 0.0
O81 O 0.67164 0.29562 0.45659 0.0
O82 O 0.71426 0.25345 0.53655 0.0
O83 O 0.67139 0.29546 0.5446 0.0
O84 O 0.6896 0.27572 0.42741 0.0
O85 O 0.71994 0.30767 0.5762 0.0
O86 O 0.74341 0.28314 0.46794 0.0
O87 O 0.70104 0.32509 0.45724 0.0
C88 C 0.21172 0.54378 0.87433 0.0
C89 C 0.2151 0.56228 0.87326 0.0
C90 C 0.21548 0.57203 0.90878 0.0
C91 C 0.21033 0.54487 0.94568 0.0
C92 C 0.20921 0.53541 0.91079 0.0
C93 C 0.20547 0.51587 0.91755 0.0
H94 H 0.19525 0.44725 0.0451 0.0
C95 C 0.20806 0.53214 0.97843 0.0
C96 C 0.20488 0.51518 0.96223 0.0
H97 H 0.19486 0.4456 0.91773 0.0
H98 H 0.1979 0.47758 0.91543 0.0
H99 H 0.22825 0.47339 0.05007 0.0
H100 H 0.17162 0.48388 0.05596 0.0
H101 H 0.1822 0.4968 0.09252 0.0
H102 H 0.18355 0.47271 0.09466 0.0
H103 H 0.21508 0.46766 0.09237 0.0
H104 H 0.22489 0.48953 0.08681 0.0
C105 C 0.22136 0.50498 0.90059 0.0
C106 C 0.18707 0.51139 0.89898 0.0
C107 C 0.22039 0.5528 0.11781 0.0
C108 C 0.22082 0.54395 0.15421 0.0
C109 C 0.21508 0.52601 0.15628 0.0
C110 C 0.20983 0.5168 0.12213 0.0
C111 C 0.21036 0.52562 0.08559 0.0
C112 C 0.21516 0.54346 0.0841 0.0
C113 C 0.21477 0.55083 0.04303 0.0
C114 C 0.20956 0.53429 0.01978 0.0
C115 C 0.20709 0.51955 0.04475 0.0
C116 C 0.23389 0.55735 0.03272 0.0
C117 C 0.20017 0.56556 0.04102 0.0
C118 C 0.19586 0.45372 0.01665 0.0
C119 C 0.19481 0.44372 0.98157 0.0
C120 C 0.19535 0.45287 0.94528 0.0
C121 C 0.19732 0.47149 0.94396 0.0
C122 C 0.199 0.48116 0.97923 0.0
C123 C 0.19811 0.47229 0.0148 0.0
C124 C 0.20093 0.48463 0.04925 0.0
C125 C 0.20346 0.50241 0.02848 0.0
C126 C 0.20234 0.50027 0.98746 0.0
C127 C 0.21808 0.47855 0.07115 0.0
C128 C 0.18378 0.4845 0.07479 0.0
H129 H 0.21384 0.57155 0.97088 0.0
H130 H 0.21112 0.53601 0.84743 0.0
H131 H 0.17773 0.52293 0.90151 0.0
H132 H 0.18016 0.50027 0.91405 0.0
H133 H 0.18844 0.50811 0.86723 0.0
H134 H 0.23424 0.51209 0.90564 0.0
H135 H 0.21986 0.50297 0.86837 0.0
H136 H 0.2231 0.49184 0.91484 0.0
H137 H 0.22431 0.56672 0.1155 0.0
H138 H 0.21522 0.51895 0.1841 0.0
H139 H 0.20593 0.50306 0.12537 0.0
H140 H 0.24407 0.54762 0.0433 0.0
H141 H 0.23676 0.57046 0.04684 0.0
H142 H 0.23629 0.55861 0.00086 0.0
H143 H 0.1896 0.56345 0.0636 0.0
H144 H 0.19288 0.5655 0.01266 0.0
H145 H 0.20596 0.57906 0.04607 0.0
H146 H 0.21818 0.58627 0.90871 0.0
C147 C 0.21308 0.56344 0.94491 0.0
C148 C 0.04371 0.7006 0.51727 0.0
C149 C 0.05412 0.70059 0.48276 0.0
C150 C 0.04556 0.703 0.44616 0.0
C151 C 0.01699 0.70637 0.47886 0.0
C152 C 0.02528 0.70361 0.51465 0.0
C153 C 0.01251 0.70525 0.54866 0.0
H154 H 0.92918 0.72416 0.61415 0.0
C155 C 0.9979 0.71 0.48645 0.0
C156 C 0.99516 0.70932 0.52728 0.0
H157 H 0.97639 0.71291 0.68328 0.0
H158 H 0.99346 0.70804 0.62376 0.0
H159 H 0.94867 0.74889 0.55233 0.0
H160 H 0.93507 0.69296 0.54963 0.0
H161 H 0.93159 0.70119 0.50187 0.0
H162 H 0.91865 0.71015 0.54225 0.0
H163 H 0.92609 0.74103 0.54743 0.0
H164 H 0.94029 0.74416 0.5052 0.0
C165 C 0.0187 0.7211 0.57489 0.0
C166 C 0.01176 0.68699 0.57003 0.0
C167 C 0.95661 0.72512 0.37261 0.0
C168 C 0.93826 0.72907 0.37055 0.0
C169 C 0.92793 0.72866 0.40523 0.0
C170 C 0.93581 0.72471 0.44156 0.0
C171 C 0.95424 0.72113 0.44331 0.0
C172 C 0.96426 0.72109 0.40913 0.0
C173 C 0.98354 0.7165 0.41654 0.0
C174 C 0.98348 0.71409 0.46088 0.0
C175 C 0.96634 0.717 0.4764 0.0
C176 C 0.99511 0.73269 0.40371 0.0
C177 C 0.98783 0.69878 0.39468 0.0
C178 C 0.94313 0.72037 0.61646 0.0
C179 C 0.95147 0.71885 0.65336 0.0
C180 C 0.96973 0.71426 0.65512 0.0
C181 C 0.97959 0.71143 0.62055 0.0
C182 C 0.97115 0.71344 0.58383 0.0
C183 C 0.95318 0.71772 0.58228 0.0
C184 C 0.94654 0.7199 0.54082 0.0
C185 C 0.96352 0.71636 0.51768 0.0
C186 C 0.97787 0.71254 0.54298 0.0
C187 C 0.93991 0.73943 0.53591 0.0
C188 C 0.93211 0.70544 0.53302 0.0
H189 H 0.02144 0.70781 0.41536 0.0
H190 H 0.04978 0.6986 0.54586 0.0
H191 H 0.01182 0.67579 0.54841 0.0
H192 H -0.00058 0.68516 0.58739 0.0
H193 H 0.02351 0.68522 0.58967 0.0
H194 H 0.02545 0.73161 0.5571 0.0
H195 H 0.02832 0.71658 0.59772 0.0
H196 H 0.00747 0.72814 0.58928 0.0
H197 H 0.96482 0.72506 0.34634 0.0
H198 H 0.91378 0.73176 0.40436 0.0
H199 H 0.92727 0.7248 0.46693 0.0
H200 H 0.98827 0.74553 0.41082 0.0
H201 H 0.9976 0.73246 0.37149 0.0
H202 H 0.00805 0.73345 0.41924 0.0
H203 H 0.97594 0.68985 0.3938 0.0
H204 H -0.00172 0.69079 0.40952 0.0
H205 H 0.99197 0.70135 0.36381 0.0
H206 H 0.05322 0.70334 0.41913 0.0
C207 C 0.02708 0.7058 0.44403 0.0
C208 C 0.77975 0.45446 0.12662 0.0
C209 C 0.77513 0.43625 0.12818 0.0
C210 C 0.7741 0.42637 0.09289 0.0
C211 C 0.78115 0.45295 0.05533 0.0
C212 C 0.78274 0.46249 0.09002 0.0
C213 C 0.78745 0.48178 0.08303 0.0
H214 H 0.79571 0.5506 0.95624 0.0
C215 C 0.784 0.46547 0.02237 0.0
C216 C 0.78781 0.48235 0.03836 0.0
H217 H 0.80333 0.55088 0.08255 0.0
H218 H 0.79872 0.51906 0.08448 0.0
H219 H 0.82002 0.51438 0.94236 0.0
H220 H 0.76332 0.52362 0.95314 0.0
H221 H 0.76662 0.50814 0.91485 0.0
H222 H 0.77582 0.53034 0.91054 0.0
H223 H 0.80721 0.52499 0.9043 0.0
H224 H 0.80919 0.50097 0.90718 0.0
C225 C 0.80615 0.48542 0.10114 0.0
C226 C 0.77222 0.49347 0.10028 0.0
C227 C 0.7751 0.44384 0.88227 0.0
C228 C 0.77513 0.4525 0.84561 0.0
C229 C 0.77876 0.47099 0.84407 0.0
C230 C 0.78237 0.48068 0.8786 0.0
C231 C 0.78215 0.47181 0.91509 0.0
C232 C 0.77856 0.45369 0.9164 0.0
C233 C 0.77823 0.44654 0.95767 0.0
C234 C 0.78252 0.46329 0.98101 0.0
C235 C 0.78481 0.47806 0.956 0.0
C236 C 0.79316 0.43225 0.96153 0.0
C237 C 0.75907 0.43953 0.96616 0.0
C238 C 0.79665 0.54382 0.98429 0.0
C239 C 0.79959 0.55342 0.01939 0.0
C240 C 0.80061 0.54395 0.05519 0.0
C241 C 0.79803 0.52542 0.05627 0.0
C242 C 0.7944 0.51616 0.02121 0.0
C243 C 0.79423 0.52526 0.98587 0.0
C244 C 0.79084 0.51302 0.95146 0.0
C245 C 0.78869 0.49516 0.97214 0.0
C246 C 0.79053 0.49717 0.01303 0.0
C247 C 0.80757 0.51335 0.92457 0.0
C248 C 0.77332 0.51905 0.93104 0.0
H249 H 0.77585 0.42642 0.03072 0.0
H250 H 0.78092 0.46231 0.15332 0.0
H251 H 0.75893 0.48775 0.09258 0.0
H252 H 0.77208 0.50723 0.08869 0.0
H253 H 0.77311 0.49413 0.13288 0.0
H254 H 0.81429 0.47298 0.10291 0.0
H255 H 0.80502 0.49093 0.13142 0.0
H256 H 0.81427 0.49464 0.08297 0.0
H257 H 0.77198 0.42972 0.88452 0.0
H258 H 0.77891 0.47793 0.81611 0.0
H259 H 0.78502 0.49472 0.87557 0.0
H260 H 0.80512 0.43606 0.94393 0.0
H261 H 0.78852 0.419 0.95079 0.0
H262 H 0.79816 0.43084 0.99196 0.0
H263 H 0.74886 0.44768 0.95048 0.0
H264 H 0.75529 0.44052 0.99747 0.0
H265 H 0.75751 0.42545 0.95628 0.0
H266 H 0.77046 0.41234 0.09333 0.0
C267 C 0.7771 0.4346 0.05653 0.0
C268 C 0.03971 0.27592 0.37427 0.0
C269 C 0.05764 0.27023 0.37223 0.0
C270 C 0.06791 0.26968 0.40698 0.0
C271 C 0.0422 0.27883 0.44524 0.0
C272 C 0.03229 0.28014 0.41104 0.0
C273 C 0.01325 0.28561 0.41904 0.0
H274 H 0.94786 0.30258 0.55168 0.0
C275 C 0.03035 0.28299 0.47872 0.0
C276 C 0.01341 0.2872 0.46365 0.0
H277 H 0.94363 0.3001 0.42473 0.0
H278 H 0.97541 0.29574 0.41963 0.0
H279 H 0.97215 0.26876 0.55807 0.0
H280 H 0.98584 0.32474 0.55603 0.0
H281 H -0.00085 0.3144 0.59212 0.0
H282 H 0.97513 0.3144 0.59745 0.0
H283 H 0.96806 0.2833 0.59918 0.0
H284 H 0.98916 0.27202 0.59283 0.0
C285 C 0.00081 0.27034 0.40464 0.0
C286 C 0.00992 0.3039 0.399 0.0
C287 C 0.05275 0.27277 0.61749 0.0
C288 C 0.0446 0.27395 0.65462 0.0
C289 C 0.02722 0.28114 0.65756 0.0
C290 C 0.01779 0.28623 0.62364 0.0
C291 C 0.02581 0.28404 0.58648 0.0
C292 C 0.04318 0.27783 0.58403 0.0
C293 C 0.0497 0.27646 0.54235 0.0
C294 C 0.03319 0.28236 0.51996 0.0
C295 C 0.0192 0.28665 0.54587 0.0
C296 C 0.05447 0.25659 0.53419 0.0
C297 C 0.06547 0.28973 0.53699 0.0
C298 C 0.95373 0.30109 0.52272 0.0
C299 C 0.94306 0.30163 0.48862 0.0
C300 C 0.95144 0.29998 0.45155 0.0
C301 C 0.96993 0.29723 0.44862 0.0
C302 C 0.98021 0.29585 0.48307 0.0
C303 C 0.97212 0.29801 0.51931 0.0
C304 C 0.98495 0.29529 0.55284 0.0
C305 C 0.00209 0.29115 0.53073 0.0
C306 C -0.00077 0.29148 0.48986 0.0
C307 C 0.97831 0.27911 0.57737 0.0
C308 C 0.98634 0.31304 0.5762 0.0
H309 H 0.06881 0.27307 0.46869 0.0
H310 H 0.03148 0.27647 0.34808 0.0
H311 H 0.02198 0.31256 0.40112 0.0
H312 H -0.00087 0.31168 0.41318 0.0
H313 H 0.00674 0.30217 0.36729 0.0
H314 H 0.00715 0.25703 0.40927 0.0
H315 H 0.99787 0.27165 0.37273 0.0
H316 H 0.98809 0.26963 0.42101 0.0
H317 H 0.06626 0.26768 0.61443 0.0
H318 H 0.02071 0.28225 0.68594 0.0
H319 H 0.00446 0.29125 0.62759 0.0
H320 H 0.04454 0.24752 0.5482 0.0
H321 H 0.06785 0.2532 0.54628 0.0
H322 H 0.05421 0.25303 0.50271 0.0
H323 H 0.06432 0.30132 0.55745 0.0
H324 H 0.06574 0.29581 0.50732 0.0
H325 H 0.07852 0.28315 0.54284 0.0
H326 H 0.08186 0.26576 0.40605 0.0
C327 C 0.06033 0.27401 0.44335 0.0
C328 C 0.71112 0.95347 0.62147 0.0
C329 C 0.71367 0.93485 0.62331 0.0
C330 C 0.71308 0.92474 0.58829 0.0
C331 C 0.70879 0.95173 0.5503 0.0
C332 C 0.70855 0.96158 0.58474 0.0
C333 C 0.70574 0.98121 0.5772 0.0
H334 H 0.6979 0.04905 0.44685 0.0
C335 C 0.70686 0.96423 0.51704 0.0
C336 C 0.70474 0.9815 0.53253 0.0
H337 H 0.69831 0.05187 0.57412 0.0
H338 H 0.69999 0.0198 0.5778 0.0
H339 H 0.72959 0.02126 0.44211 0.0
H340 H 0.67249 0.01371 0.43836 0.0
H341 H 0.6821 -0.00017 0.40221 0.0
H342 H 0.68476 0.02377 0.39873 0.0
H343 H 0.71649 0.0271 0.3998 0.0
H344 H 0.72526 0.00485 0.40647 0.0
C345 C 0.72233 0.99143 0.59285 0.0
C346 C 0.68779 0.98683 0.59641 0.0
C347 C 0.71718 0.94174 0.37819 0.0
C348 C 0.71799 0.95031 0.34148 0.0
C349 C 0.71316 0.9685 0.33884 0.0
C350 C 0.70848 0.97822 0.3727 0.0
C351 C 0.7087 0.96965 0.40955 0.0
C352 C 0.71256 0.9516 0.41164 0.0
C353 C 0.71209 0.94463 0.45305 0.0
C354 C 0.70792 0.96162 0.47574 0.0
C355 C 0.70605 0.97625 0.4502 0.0
C356 C 0.73091 0.93718 0.463 0.0
C357 C 0.69676 0.93071 0.45621 0.0
C358 C 0.6984 0.0428 0.47556 0.0
C359 C 0.69795 0.05314 0.51021 0.0
C360 C 0.69835 0.04432 0.5469 0.0
C361 C 0.69951 0.02565 0.54902 0.0
C362 C 0.70051 0.0156 0.51415 0.0
C363 C 0.69981 0.02418 0.47821 0.0
C364 C 0.70176 0.01139 0.44425 0.0
C365 C 0.70348 0.9937 0.46578 0.0
C366 C 0.70279 0.99628 0.50671 0.0
C367 C 0.71907 0.01635 0.4216 0.0
C368 C 0.68447 0.01221 0.41922 0.0
H369 H 0.71063 0.92466 0.5263 0.0
H370 H 0.71126 0.96155 0.64797 0.0
H371 H 0.6779 0.97571 0.59532 0.0
H372 H 0.6812 0.99801 0.58084 0.0
H373 H 0.68968 0.99055 0.62779 0.0
H374 H 0.73479 0.98367 0.58727 0.0
H375 H 0.72133 0.99371 0.62508 0.0
H376 H 0.72451 0.00438 0.5781 0.0
H377 H 0.72043 0.92767 0.38096 0.0
H378 H 0.71363 0.97536 0.31081 0.0
H379 H 0.70531 0.99212 0.36902 0.0
H380 H 0.74152 0.94625 0.45164 0.0
H381 H 0.73298 0.92381 0.4494 0.0
H382 H 0.73349 0.93608 0.49482 0.0
H383 H 0.6861 0.93325 0.43403 0.0
H384 H 0.68976 0.93134 0.48489 0.0
H385 H 0.70178 0.91689 0.45134 0.0
H386 H 0.71512 0.91039 0.58891 0.0
C387 C 0.71061 0.93306 0.55188 0.0
C388 C 0.54093 0.22338 0.12076 0.0
C389 C 0.55924 0.22765 0.12257 0.0
C390 C 0.56963 0.22653 0.08804 0.0
C391 C 0.54344 0.21818 0.05041 0.0
C392 C 0.53334 0.21873 0.08444 0.0
C393 C 0.51394 0.2146 0.07678 0.0
H394 H 0.4479 0.1976 0.94577 0.0
C395 C 0.5314 0.21389 0.01731 0.0
C396 C 0.5141 0.21165 0.03253 0.0
H397 H 0.44348 0.20468 0.07186 0.0
H398 H 0.47543 0.20765 0.07686 0.0
H399 H 0.47364 0.22936 0.9336 0.0
H400 H 0.48476 0.17316 0.94644 0.0
H401 H 0.49807 0.18139 0.90774 0.0
H402 H 0.47404 0.18246 0.90384 0.0
H403 H 0.47028 0.21382 0.89403 0.0
H404 H 0.49157 0.22459 0.90208 0.0
C405 C 0.50273 0.23122 0.08861 0.0
C406 C 0.50909 0.19728 0.09936 0.0
C407 C 0.55543 0.21526 0.87784 0.0
C408 C 0.54727 0.21357 0.84076 0.0
C409 C 0.529 0.20902 0.83871 0.0
C410 C 0.51893 0.20659 0.87313 0.0
C411 C 0.52716 0.20896 0.90999 0.0
C412 C 0.54517 0.21298 0.91184 0.0
C413 C 0.55161 0.21557 0.95334 0.0
C414 C 0.53443 0.21263 0.97618 0.0
C415 C 0.52017 0.20877 0.95069 0.0
C416 C 0.55858 0.23504 0.95739 0.0
C417 C 0.5657 0.20091 0.9623 0.0
C418 C 0.45376 0.19982 0.9745 0.0
C419 C 0.44301 0.20091 0.00842 0.0
C420 C 0.45136 0.20352 0.04525 0.0
C421 C 0.46995 0.20543 0.04809 0.0
C422 C 0.48039 0.20495 0.01375 0.0
C423 C 0.47228 0.20201 0.97779 0.0
C424 C 0.48537 0.20262 0.94424 0.0
C425 C 0.50269 0.20633 0.96602 0.0
C426 C 0.49969 0.20769 0.00673 0.0
C427 C 0.48 0.21828 0.91673 0.0
C428 C 0.48559 0.18401 0.92413 0.0
H429 H 0.57048 0.22135 0.02688 0.0
H430 H 0.53258 0.2242 0.14674 0.0
H431 H 0.52042 0.18762 0.09877 0.0
H432 H 0.49774 0.18999 0.0861 0.0
H433 H 0.50598 0.20022 0.13068 0.0
H434 H 0.51016 0.24381 0.08238 0.0
H435 H 0.49952 0.23108 0.12052 0.0
H436 H 0.49019 0.23249 0.07169 0.0
H437 H 0.56937 0.21904 0.88045 0.0
H438 H 0.52247 0.20749 0.81045 0.0
H439 H 0.50505 0.2033 0.86968 0.0
H440 H 0.55048 0.24439 0.93919 0.0
H441 H 0.5727 0.23611 0.94747 0.0
H442 H 0.55752 0.24038 0.98758 0.0
H443 H 0.56246 0.18823 0.94664 0.0
H444 H 0.56613 0.19719 0.99375 0.0
H445 H 0.57926 0.20514 0.95273 0.0
H446 H 0.58383 0.2294 0.08883 0.0
C447 C 0.56186 0.22177 0.05209 0.0
C448 C 0.28479 0.04432 0.37439 0.0
C449 C 0.28088 0.06272 0.37378 0.0
C450 C 0.27963 0.07213 0.40964 0.0
C451 C 0.28474 0.04476 0.44583 0.0
C452 C 0.28678 0.03566 0.41069 0.0
C453 C 0.29075 0.01613 0.41696 0.0
H454 H 0.29366 0.94552 0.54037 0.0
C455 C 0.28633 0.03174 0.47819 0.0
C456 C 0.29012 0.01497 0.46162 0.0
H457 H 0.30435 0.94641 0.41517 0.0
H458 H 0.30093 0.97843 0.41465 0.0
H459 H 0.31867 0.97991 0.55984 0.0
H460 H 0.26189 0.97451 0.54083 0.0
H461 H 0.26538 0.98809 0.58249 0.0
H462 H 0.27312 0.96531 0.58291 0.0
H463 H 0.30415 0.97054 0.59649 0.0
H464 H 0.30783 0.99437 0.59294 0.0
C465 C 0.3097 0.0121 0.40059 0.0
C466 C 0.27558 0.00516 0.3974 0.0
C467 C 0.27126 0.05138 0.617 0.0
C468 C 0.27012 0.04233 0.65307 0.0
C469 C 0.27499 0.02413 0.65478 0.0
C470 C 0.2803 0.01494 0.62061 0.0
C471 C 0.28077 0.02408 0.58443 0.0
C472 C 0.27661 0.04208 0.58332 0.0
C473 C 0.27801 0.0498 0.5427 0.0
C474 C 0.28353 0.03342 0.51932 0.0
C475 C 0.28497 0.01834 0.54375 0.0
C476 C 0.29283 0.06434 0.54291 0.0
C477 C 0.2592 0.05667 0.53074 0.0
C478 C 0.29551 0.95259 0.51289 0.0
C479 C 0.299 0.94328 0.47763 0.0
C480 C 0.3012 0.95313 0.44258 0.0
C481 C 0.29931 0.97176 0.44233 0.0
C482 C 0.29516 0.98074 0.47747 0.0
C483 C 0.29377 0.97124 0.51215 0.0
C484 C 0.28991 0.98318 0.54686 0.0
C485 C 0.28893 0.00135 0.52708 0.0
C486 C 0.29176 -0.00023 0.48634 0.0
C487 C 0.30584 0.98193 0.57587 0.0
C488 C 0.27168 0.97752 0.56458 0.0
H489 H 0.28014 0.07115 0.47179 0.0
H490 H 0.2861 0.03682 0.34724 0.0
H491 H 0.2623 0.01113 0.40431 0.0
H492 H 0.27486 0.99123 0.40785 0.0
H493 H 0.2771 0.00498 0.36489 0.0
H494 H 0.31827 0.02427 0.40066 0.0
H495 H 0.30907 0.00711 0.36982 0.0
H496 H 0.31709 0.00233 0.41888 0.0
H497 H 0.26796 0.06547 0.61495 0.0
H498 H 0.27425 0.01691 0.68235 0.0
H499 H 0.28355 0.00102 0.62355 0.0
H500 H 0.30316 0.06149 0.56563 0.0
H501 H 0.28719 0.07778 0.54932 0.0
H502 H 0.30036 0.06485 0.5149 0.0
H503 H 0.24862 0.04728 0.54093 0.0
H504 H 0.25728 0.05763 0.49866 0.0
H505 H 0.25641 0.06996 0.54409 0.0
H506 H 0.2765 0.08629 0.40997 0.0
C507 C 0.28159 0.06328 0.44558 0.0
C508 C 0.54457 0.79207 0.01614 0.0
C509 C 0.55407 0.79533 0.98112 0.0
C510 C 0.5445 0.79689 0.94552 0.0
C511 C 0.51675 0.79069 0.97957 0.0
C512 C 0.526 0.78991 0.0147 0.0
C513 C 0.51393 0.78615 0.0491 0.0
H514 H 0.43105 0.76718 0.11714 0.0
C515 C 0.49776 0.78698 0.98791 0.0
C516 C 0.49595 0.78455 0.02867 0.0
H517 H 0.4799 0.77252 0.18418 0.0
H518 H 0.49624 0.77938 0.12467 0.0
H519 H 0.43719 0.80115 0.06051 0.0
H520 H 0.44843 0.74498 0.04782 0.0
H521 H 0.44041 0.75242 0.00222 0.0
H522 H 0.42616 0.75385 0.04491 0.0
H523 H 0.41995 0.78487 0.0522 0.0
H524 H 0.43175 0.79525 0.0119 0.0
C525 C 0.51462 0.80247 0.07725 0.0
C526 C 0.51985 0.76823 0.06796 0.0
C527 C 0.45419 0.77863 0.8748 0.0
C528 C 0.43592 0.7743 0.87339 0.0
C529 C 0.42621 0.77296 0.90884 0.0
C530 C 0.43471 0.77532 0.94518 0.0
C531 C 0.45313 0.77901 0.94619 0.0
C532 C 0.46248 0.78098 0.91138 0.0
C533 C 0.48189 0.78524 0.91819 0.0
C534 C 0.48274 0.78489 0.96283 0.0
C535 C 0.4659 0.78111 0.979 0.0
C536 C 0.48574 0.80415 0.90147 0.0
C537 C 0.4932 0.77009 0.89943 0.0
C538 C 0.44523 0.77008 0.11906 0.0
C539 C 0.45421 0.76944 0.15535 0.0
C540 C 0.47273 0.77286 0.15649 0.0
C541 C 0.48216 0.77691 0.12193 0.0
C542 C 0.47298 0.77737 0.0858 0.0
C543 C 0.45482 0.77399 0.08485 0.0
C544 C 0.44734 0.77446 0.04383 0.0
C545 C 0.46396 0.77897 0.02027 0.0
C546 C 0.47893 0.78064 0.04497 0.0
C547 C 0.43321 0.7896 0.04175 0.0
C548 C 0.44006 0.75555 0.03395 0.0
H549 H 0.51947 0.79571 0.91652 0.0
H550 H 0.55145 0.79066 0.044 0.0
H551 H 0.52442 0.7586 0.04505 0.0
H552 H 0.50889 0.76127 0.08339 0.0
H553 H 0.53111 0.7703 0.0888 0.0
H554 H 0.51586 0.81517 0.06042 0.0
H555 H 0.52628 0.80159 0.09741 0.0
H556 H 0.50229 0.80407 0.09481 0.0
H557 H 0.46191 0.78004 0.848 0.0
H558 H 0.41213 0.76954 0.9085 0.0
H559 H 0.42666 0.77383 0.9711 0.0
H560 H 0.47349 0.81261 0.90132 0.0
H561 H 0.49075 0.80342 0.87074 0.0
H562 H 0.49542 0.81173 0.91965 0.0
H563 H 0.48723 0.75678 0.90599 0.0
H564 H 0.50698 0.76944 0.91086 0.0
H565 H 0.4938 0.77156 0.86694 0.0
H566 H 0.5514 0.7998 0.91824 0.0
C567 C 0.52593 0.79459 0.94457 0.0
C568 C 0.16166 0.23593 0.11671 0.0
C569 C 0.15933 0.22129 0.09117 0.0
C570 C 0.14768 0.24176 0.14069 0.0
C571 C 0.1068 0.22547 0.18794 0.0
H572 H 0.10082 0.27562 0.21442 0.0
C573 C 0.06317 0.27408 0.29972 0.0
C574 C 0.06561 0.26424 0.33452 0.0
C575 C 0.07167 0.26877 0.26489 0.0
C576 C 0.10208 0.26159 0.2069 0.0
H577 H 0.14017 0.20166 0.07006 0.0
H578 H 0.11572 0.21195 0.11194 0.0
H579 H 0.12108 0.26707 0.16137 0.0
H580 H 0.07806 0.24068 0.35972 0.0
H581 H 0.09306 0.23163 0.29948 0.0
H582 H 0.08796 0.21996 0.23373 0.0
C583 C 0.12848 0.21875 0.11363 0.0
C584 C 0.11385 0.25667 0.17682 0.0
C585 C 0.1425 0.21289 0.08957 0.0
C586 C 0.07616 0.24869 0.3335 0.0
C587 C 0.08456 0.24337 0.29881 0.0
C588 C 0.09503 0.23038 0.21797 0.0
C589 C 0.13098 0.23315 0.13974 0.0
C590 C 0.11671 0.23853 0.16775 0.0
C591 C 0.0826 0.25344 0.26421 0.0
C592 C 0.09293 0.24845 0.22854 0.0
H593 H 0.17441 0.24276 0.11873 0.0
H594 H 0.15016 0.25271 0.1609 0.0
H595 H 0.10874 0.21137 0.18185 0.0
H596 H 0.05512 0.28613 0.29969 0.0
H597 H 0.06981 0.27673 0.23861 0.0
C598 C 0.28107 0.64589 0.5994 0.0
C599 C 0.27359 0.66311 0.59609 0.0
C600 C 0.274 0.63352 0.62618 0.0
C601 C 0.24836 0.63252 0.71826 0.0
H602 H 0.24029 0.58239 0.69462 0.0
C603 C 0.2114 0.58818 0.82757 0.0
C604 C 0.21911 0.57147 0.83574 0.0
C605 C 0.21699 0.59806 0.79505 0.0
C606 C 0.2426 0.59633 0.70168 0.0
H607 H 0.25227 0.68046 0.61717 0.0
H608 H 0.24007 0.65901 0.66323 0.0
H609 H 0.25276 0.60211 0.64398 0.0
H610 H 0.23808 0.55157 0.81537 0.0
H611 H 0.24804 0.56896 0.75856 0.0
H612 H 0.23847 0.62692 0.7758 0.0
C613 C 0.25158 0.65516 0.6458 0.0
C614 C 0.24975 0.60759 0.67276 0.0
C615 C 0.25859 0.66745 0.61923 0.0
C616 C 0.23185 0.56439 0.80958 0.0
C617 C 0.23754 0.57434 0.77708 0.0
C618 C 0.24128 0.62133 0.74702 0.0
C619 C 0.25937 0.63819 0.6501 0.0
C620 C 0.25251 0.62585 0.6807 0.0
C621 C 0.23053 0.59151 0.77016 0.0
C622 C 0.23813 0.60316 0.73901 0.0
H623 H 0.29257 0.64208 0.58192 0.0
H624 H 0.28029 0.62053 0.62899 0.0
H625 H 0.25072 0.64644 0.72557 0.0
H626 H 0.20133 0.5938 0.84691 0.0
H627 H 0.21101 0.61105 0.78994 0.0
C628 C 0.83503 0.76644 0.11757 0.0
C629 C 0.8374 0.78107 0.09212 0.0
C630 C 0.84899 0.76047 0.14122 0.0
C631 C 0.88984 0.77508 0.18973 0.0
H632 H 0.89566 0.72411 0.20725 0.0
C633 C 0.93798 0.74642 0.30748 0.0
C634 C 0.92988 0.73385 0.33256 0.0
C635 C 0.92948 0.7517 0.27275 0.0
C636 C 0.89422 0.73838 0.2026 0.0
H637 H 0.85648 0.80085 0.07155 0.0
H638 H 0.881 0.79039 0.11354 0.0
H639 H 0.87579 0.73457 0.15522 0.0
H640 H 0.90696 0.71649 0.34039 0.0
H641 H 0.89209 0.72572 0.2799 0.0
H642 H 0.90787 0.77886 0.23803 0.0
C643 C 0.86821 0.78361 0.1149 0.0
C644 C 0.88286 0.74436 0.17285 0.0
C645 C 0.85419 0.78956 0.09086 0.0
C646 C 0.91341 0.72631 0.32176 0.0
C647 C 0.905 0.73146 0.28694 0.0
C648 C 0.90126 0.76908 0.21951 0.0
C649 C 0.86572 0.76896 0.14021 0.0
C650 C 0.88008 0.76277 0.167 0.0
C651 C 0.91285 0.74435 0.26229 0.0
C652 C 0.90309 0.75067 0.22702 0.0
H653 H 0.82233 0.7595 0.11934 0.0
H654 H 0.84653 0.74937 0.16096 0.0
H655 H 0.88789 0.78934 0.18602 0.0
H656 H 0.95064 0.75251 0.31528 0.0
H657 H 0.93584 0.76161 0.2542 0.0
C658 C 0.71186 0.35541 0.58987 0.0
C659 C 0.71949 0.33828 0.59376 0.0
C660 C 0.71849 0.36986 0.61167 0.0
C661 C 0.75846 0.38467 0.66714 0.0
H662 H 0.72532 0.41562 0.7227 0.0
C663 C 0.77831 0.42516 0.8037 0.0
C664 C 0.77084 0.44221 0.80953 0.0
C665 C 0.773 0.41461 0.7719 0.0
C666 C 0.73476 0.40732 0.70679 0.0
H667 H 0.74015 0.32303 0.62372 0.0
H668 H 0.7515 0.34808 0.66169 0.0
H669 H 0.71384 0.39302 0.67734 0.0
H670 H 0.75237 0.46182 0.78598 0.0
H671 H 0.74312 0.44335 0.73001 0.0
H672 H 0.77935 0.39863 0.69735 0.0
C673 C 0.74055 0.35041 0.64144 0.0
C674 C 0.72818 0.39437 0.68084 0.0
C675 C 0.73391 0.33599 0.61986 0.0
C676 C 0.75841 0.44876 0.78207 0.0
C677 C 0.75301 0.43814 0.75029 0.0
C678 C 0.76503 0.39761 0.69304 0.0
C679 C 0.73296 0.36751 0.63758 0.0
C680 C 0.73995 0.38261 0.6615 0.0
C681 C 0.76006 0.42084 0.74521 0.0
C682 C 0.75324 0.40878 0.71388 0.0
H683 H 0.70077 0.35767 0.56998 0.0
H684 H 0.71243 0.38292 0.60794 0.0
H685 H 0.76788 0.37606 0.65202 0.0
H686 H 0.78804 0.41984 0.8242 0.0
H687 H 0.77856 0.40128 0.76909 0.0
C688 C 0.64281 0.28563 0.40709 0.0
C689 C 0.65933 0.2766 0.4074 0.0
C690 C 0.62904 0.28003 0.38204 0.0
C691 C 0.61392 0.24193 0.3203 0.0
H692 H 0.59139 0.27875 0.25713 0.0
C693 C 0.57926 0.24847 0.15969 0.0
C694 C 0.5675 0.23381 0.15985 0.0
C695 C 0.58765 0.254 0.19426 0.0
C696 C 0.59752 0.26832 0.27464 0.0
H697 H 0.67404 0.25421 0.3825 0.0
H698 H 0.65019 0.24464 0.33885 0.0
H699 H 0.61148 0.28729 0.31046 0.0
H700 H 0.55501 0.21367 0.19653 0.0
H701 H 0.56971 0.2234 0.2573 0.0
H702 H 0.6006 0.22295 0.28329 0.0
C703 C 0.6478 0.25594 0.35814 0.0
C704 C 0.60888 0.27321 0.30546 0.0
C705 C 0.66155 0.26155 0.38297 0.0
C706 C 0.56398 0.22504 0.19557 0.0
C707 C 0.57248 0.23053 0.23024 0.0
C708 C 0.60253 0.23704 0.28953 0.0
C709 C 0.63147 0.26523 0.35702 0.0
C710 C 0.61756 0.26006 0.32797 0.0
C711 C 0.5845 0.245 0.22986 0.0
C712 C 0.59458 0.25018 0.26572 0.0
H713 H 0.6406 0.29722 0.42563 0.0
H714 H 0.61654 0.28736 0.38206 0.0
H715 H 0.62024 0.2315 0.33749 0.0
H716 H 0.58203 0.25566 0.13271 0.0
H717 H 0.597 0.26505 0.19285 0.0
C718 C 0.21114 0.14014 0.91382 0.0
C719 C 0.21917 0.15702 0.90883 0.0
C720 C 0.21693 0.12541 0.89179 0.0
C721 C 0.25464 0.10876 0.83126 0.0
H722 H 0.2183 0.07992 0.78016 0.0
C723 C 0.24812 0.06276 0.68527 0.0
C724 C 0.26344 0.05196 0.68825 0.0
C725 C 0.24243 0.07304 0.71715 0.0
C726 C 0.2286 0.0878 0.79438 0.0
H727 H 0.23987 0.17147 0.87725 0.0
H728 H 0.2498 0.14587 0.83878 0.0
H729 H 0.2094 0.10316 0.82669 0.0
H730 H 0.28453 0.043 0.72723 0.0
H731 H 0.27456 0.06112 0.78336 0.0
H732 H 0.2738 0.09386 0.79771 0.0
C733 C 0.23914 0.14399 0.85998 0.0
C734 C 0.22352 0.10101 0.82128 0.0
C735 C 0.23332 0.15872 0.88182 0.0
C736 C 0.27265 0.05119 0.72423 0.0
C737 C 0.26702 0.06164 0.75617 0.0
C738 C 0.25973 0.09549 0.80447 0.0
C739 C 0.23093 0.1272 0.86448 0.0
C740 C 0.23646 0.11191 0.83933 0.0
C741 C 0.25196 0.07283 0.75276 0.0
C742 C 0.24673 0.08516 0.78505 0.0
H743 H 0.20025 0.13831 0.93444 0.0
H744 H 0.21044 0.11261 0.89613 0.0
H745 H 0.26493 0.11679 0.84511 0.0
H746 H 0.24065 0.06345 0.65798 0.0
H747 H 0.2309 0.08166 0.71341 0.0
C748 C 0.3385 0.72969 0.38003 0.0
C749 C 0.34009 0.7153 0.40644 0.0
C750 C 0.35332 0.73589 0.35934 0.0
C751 C 0.39686 0.72246 0.32123 0.0
H752 H 0.40273 0.77363 0.30684 0.0
C753 C 0.45085 0.75204 0.21802 0.0
C754 C 0.4442 0.76486 0.19156 0.0
C755 C 0.44056 0.7466 0.25025 0.0
C756 C 0.40128 0.75931 0.31059 0.0
H757 H 0.35865 0.6961 0.43155 0.0
H758 H 0.38465 0.70695 0.3948 0.0
H759 H 0.38008 0.76252 0.3523 0.0
H760 H 0.42202 0.78263 0.17898 0.0
H761 H 0.40404 0.77309 0.23484 0.0
H762 H 0.41766 0.71926 0.27844 0.0
C763 C 0.37182 0.71337 0.39038 0.0
C764 C 0.38832 0.75295 0.33659 0.0
C765 C 0.35694 0.7072 0.41143 0.0
C766 C 0.4274 0.7726 0.19871 0.0
C767 C 0.41719 0.76727 0.23094 0.0
C768 C 0.40984 0.72884 0.29512 0.0
C769 C 0.37015 0.72786 0.36434 0.0
C770 C 0.38562 0.73447 0.34128 0.0
C771 C 0.42353 0.75402 0.25675 0.0
C772 C 0.4118 0.74732 0.28869 0.0
H773 H 0.32578 0.7363 0.37538 0.0
H774 H 0.35154 0.74687 0.33893 0.0
H775 H 0.39501 0.70815 0.32412 0.0
H776 H 0.46373 0.74578 0.21306 0.0
H777 H 0.44583 0.73645 0.26979 0.0
C778 C 0.76003 0.82939 0.87322 0.0
C779 C 0.77519 0.83359 0.89592 0.0
C780 C 0.75282 0.84183 0.84729 0.0
C781 C 0.7509 0.88958 0.82159 0.0
H782 H 0.73775 0.87062 0.71929 0.0
C783 C 0.73135 0.93284 0.68576 0.0
C784 C 0.71798 0.92591 0.66096 0.0
C785 C 0.73739 0.92295 0.71805 0.0
C786 C 0.7411 0.8761 0.74789 0.0
H787 H 0.7943 0.85449 0.90998 0.0
H788 H 0.78172 0.87631 0.86382 0.0
H789 H 0.7508 0.8509 0.76812 0.0
H790 H 0.69942 0.904 0.65221 0.0
H791 H 0.70979 0.88684 0.70874 0.0
H792 H 0.74123 0.91492 0.80079 0.0
C793 C 0.77543 0.86332 0.86654 0.0
C794 C 0.74863 0.8648 0.77585 0.0
C795 C 0.78268 0.8508 0.89278 0.0
C796 C 0.70997 0.90949 0.67044 0.0
C797 C 0.71594 0.89967 0.70271 0.0
C798 C 0.74334 0.90097 0.79341 0.0
C799 C 0.76059 0.85881 0.84309 0.0
C800 C 0.75342 0.87133 0.81317 0.0
C801 C 0.73012 0.906 0.72607 0.0
C802 C 0.73817 0.89426 0.75643 0.0
H803 H 0.75367 0.8164 0.87528 0.0
H804 H 0.74113 0.83809 0.83033 0.0
H805 H 0.75439 0.89495 0.85019 0.0
H806 H 0.73782 0.94543 0.67897 0.0
H807 H 0.74837 0.92815 0.73543 0.0
C808 C 0.85574 0.78367 0.90896 0.0
C809 C 0.8384 0.77668 0.90408 0.0
C810 C 0.87012 0.77662 0.88756 0.0
C811 C 0.88373 0.73639 0.83124 0.0
H812 H 0.91645 0.76856 0.77816 0.0
C813 C 0.92377 0.71635 0.69424 0.0
C814 C 0.94123 0.72294 0.68956 0.0
C815 C 0.91335 0.72171 0.7262 0.0
C816 C 0.90764 0.75938 0.79338 0.0
H817 H 0.82266 0.75682 0.87262 0.0
H818 H 0.84754 0.74482 0.83532 0.0
H819 H 0.89411 0.78069 0.82329 0.0
H820 H 0.96168 0.73989 0.7152 0.0
H821 H 0.94342 0.74924 0.77136 0.0
H822 H 0.89688 0.71514 0.80039 0.0
C823 C 0.85012 0.75552 0.8561 0.0
C824 C 0.89484 0.76633 0.81921 0.0
C825 C 0.8358 0.76255 0.8773 0.0
C826 C 0.9483 0.73451 0.71825 0.0
C827 C 0.93781 0.73998 0.75014 0.0
C828 C 0.89649 0.72946 0.8054 0.0
C829 C 0.86745 0.7624 0.86106 0.0
C830 C 0.88245 0.75494 0.83761 0.0
C831 C 0.92013 0.73385 0.75409 0.0
C832 C 0.90828 0.74091 0.78546 0.0
H833 H 0.85824 0.79451 0.92941 0.0
H834 H 0.88336 0.78215 0.89209 0.0
H835 H 0.87461 0.72724 0.84565 0.0
H836 H 0.91804 0.70731 0.6727 0.0
H837 H 0.89972 0.71688 0.72819 0.0
C838 C 0.71218 0.35351 0.40701 0.0
C839 C 0.71903 0.33601 0.40463 0.0
C840 C 0.71905 0.36706 0.3829 0.0
C841 C 0.75857 0.37838 0.32221 0.0
H842 H 0.72564 0.40775 0.26233 0.0
C843 C 0.77722 0.4105 0.17494 0.0
C844 C 0.77071 0.42766 0.16618 0.0
C845 C 0.77199 0.40184 0.2094 0.0
C846 C 0.73504 0.3999 0.27937 0.0
H847 H 0.73862 0.31913 0.3752 0.0
H848 H 0.75031 0.34254 0.33339 0.0
H849 H 0.71413 0.38796 0.31354 0.0
H850 H 0.7539 0.44937 0.18692 0.0
H851 H 0.74478 0.43419 0.24739 0.0
H852 H 0.77941 0.38982 0.28718 0.0
C853 C 0.73982 0.3459 0.3541 0.0
C854 C 0.72844 0.38858 0.30869 0.0
C855 C 0.73294 0.33241 0.37788 0.0
C856 C 0.75922 0.43618 0.19308 0.0
C857 C 0.75389 0.42746 0.22748 0.0
C858 C 0.76515 0.38965 0.29291 0.0
C859 C 0.73299 0.36337 0.35631 0.0
C860 C 0.7401 0.37732 0.32959 0.0
C861 C 0.76008 0.41012 0.23576 0.0
C862 C 0.7534 0.40014 0.27044 0.0
H863 H 0.7015 0.35675 0.42734 0.0
H864 H 0.71355 0.38044 0.38524 0.0
H865 H 0.76792 0.37012 0.33842 0.0
H866 H 0.7862 0.40368 0.15488 0.0
H867 H 0.77683 0.38839 0.21475 0.0
C868 C 0.14068 0.20958 0.91167 0.0
C869 C 0.15802 0.21609 0.90423 0.0
C870 C 0.12605 0.21598 0.89022 0.0
C871 C 0.11172 0.25411 0.82856 0.0
H872 H 0.07801 0.22035 0.7837 0.0
C873 C 0.06277 0.25029 0.68747 0.0
C874 C 0.05406 0.26693 0.68961 0.0
C875 C 0.07273 0.24397 0.71918 0.0
C876 C 0.08727 0.22994 0.7962 0.0
H877 H 0.17347 0.23445 0.86818 0.0
H878 H 0.14809 0.24538 0.83079 0.0
H879 H 0.10124 0.20968 0.82841 0.0
H880 H 0.0484 0.28972 0.72706 0.0
H881 H 0.06593 0.27861 0.78291 0.0
H882 H 0.09828 0.27424 0.79502 0.0
C883 C 0.14576 0.23552 0.85355 0.0
C884 C 0.10047 0.22386 0.82204 0.0
C885 C 0.16035 0.22909 0.87479 0.0
C886 C 0.05499 0.27685 0.72468 0.0
C887 C 0.06509 0.27055 0.75646 0.0
C888 C 0.0985 0.26019 0.80282 0.0
C889 C 0.12844 0.2291 0.8611 0.0
C890 C 0.11312 0.23581 0.83764 0.0
C891 C 0.07424 0.25413 0.75381 0.0
C892 C 0.08644 0.2481 0.78556 0.0
H893 H 0.13837 0.19961 0.93421 0.0
H894 H 0.11284 0.21084 0.89675 0.0
H895 H 0.12112 0.26368 0.84063 0.0
H896 H 0.06206 0.24224 0.66098 0.0
H897 H 0.07977 0.23138 0.71599 0.0
C898 C 0.26461 0.6583 0.37984 0.0
C899 C 0.27852 0.65616 0.4073 0.0
C900 C 0.25813 0.64369 0.35864 0.0
C901 C 0.2712 0.59966 0.32187 0.0
H902 H 0.22049 0.59533 0.29952 0.0
C903 C 0.21885 0.55299 0.22538 0.0
C904 C 0.22797 0.55333 0.18924 0.0
C905 C 0.22521 0.56296 0.25739 0.0
C906 C 0.23465 0.59615 0.30596 0.0
H907 H 0.29643 0.63683 0.43411 0.0
H908 H 0.28513 0.61126 0.39665 0.0
H909 H 0.23084 0.6178 0.34642 0.0
H910 H 0.2513 0.56355 0.15877 0.0
H911 H 0.26229 0.58096 0.21427 0.0
H912 H 0.27504 0.57824 0.28079 0.0
C913 C 0.27931 0.62434 0.39164 0.0
C914 C 0.2406 0.60915 0.33248 0.0
C915 C 0.28574 0.63898 0.41313 0.0
C916 C 0.24388 0.56323 0.18614 0.0
C917 C 0.25028 0.57303 0.21809 0.0
C918 C 0.26526 0.58671 0.29522 0.0
C919 C 0.26542 0.62656 0.36418 0.0
C920 C 0.25897 0.61133 0.33998 0.0
C921 C 0.2409 0.57322 0.25389 0.0
C922 C 0.24696 0.58511 0.28626 0.0
H923 H 0.25865 0.6713 0.37462 0.0
H924 H 0.24762 0.6459 0.33724 0.0
H925 H 0.28544 0.60105 0.32692 0.0
H926 H 0.20655 0.54548 0.22851 0.0
H927 H 0.21776 0.56278 0.28473 0.0
C928 C 0.33163 0.73469 0.62021 0.0
C929 C 0.33525 0.72046 0.59426 0.0
C930 C 0.34496 0.74146 0.64467 0.0
C931 C 0.3871 0.72924 0.69236 0.0
H932 H 0.38888 0.78011 0.71503 0.0
C933 C 0.43539 0.75896 0.80785 0.0
C934 C 0.42711 0.77033 0.83536 0.0
C935 C 0.42644 0.75395 0.77346 0.0
C936 C 0.38854 0.76588 0.70897 0.0
H937 H 0.3559 0.70232 0.57351 0.0
H938 H 0.37929 0.71426 0.61649 0.0
H939 H 0.3692 0.76906 0.66317 0.0
H940 H 0.40335 0.78598 0.84776 0.0
H941 H 0.38768 0.77719 0.78781 0.0
H942 H 0.40617 0.72605 0.7388 0.0
C943 C 0.36601 0.72004 0.61789 0.0
C944 C 0.37727 0.75954 0.67935 0.0
C945 C 0.35263 0.71324 0.59323 0.0
C946 C 0.40998 0.77708 0.82721 0.0
C947 C 0.4011 0.77219 0.79272 0.0
C948 C 0.39844 0.73559 0.72192 0.0
C949 C 0.36229 0.73422 0.64388 0.0
C950 C 0.37605 0.74111 0.67146 0.0
C951 C 0.40912 0.76035 0.7658 0.0
C952 C 0.39892 0.75393 0.73119 0.0
H953 H 0.31843 0.74062 0.62191 0.0
H954 H 0.34154 0.75215 0.66488 0.0
H955 H 0.38636 0.71495 0.68722 0.0
H956 H 0.44854 0.75345 0.81354 0.0
H957 H 0.43297 0.7449 0.7531 0.0
C958 C 0.78341 0.85668 0.08056 0.0
C959 C 0.77589 0.83952 0.08445 0.0
C960 C 0.77677 0.87106 0.1026 0.0
C961 C 0.73751 0.88586 0.16066 0.0
H962 H 0.77193 0.91504 0.217 0.0
C963 C 0.74024 0.92981 0.31036 0.0
C964 C 0.72483 0.94044 0.30677 0.0
C965 C 0.74657 0.91996 0.27842 0.0
C966 C 0.76216 0.90705 0.20131 0.0
H967 H 0.7552 0.82416 0.114 0.0
H968 H 0.74382 0.8491 0.15241 0.0
H969 H 0.78242 0.89288 0.16953 0.0
H970 H 0.70413 0.9494 0.26674 0.0
H971 H 0.71522 0.93201 0.21052 0.0
H972 H 0.71729 0.89952 0.19369 0.0
C973 C 0.75472 0.85151 0.1321 0.0
C974 C 0.76816 0.89448 0.17387 0.0
C975 C 0.7614 0.83715 0.11032 0.0
C976 C 0.71606 0.94132 0.27026 0.0
C977 C 0.72234 0.93131 0.23824 0.0
C978 C 0.73151 0.89848 0.188 0.0
C979 C 0.7624 0.86859 0.12871 0.0
C980 C 0.75592 0.88344 0.15398 0.0
C981 C 0.73761 0.92046 0.24211 0.0
C982 C 0.7438 0.90889 0.20933 0.0
H983 H 0.79454 0.859 0.06082 0.0
H984 H 0.78288 0.8841 0.09921 0.0
H985 H 0.72776 0.87769 0.14539 0.0
H986 H 0.74741 0.92907 0.33801 0.0
H987 H 0.75823 0.91156 0.2825 0.0
C988 C 0.64208 0.28258 0.58942 0.0
C989 C 0.65983 0.27698 0.5956 0.0
C990 C 0.62803 0.27485 0.61067 0.0
C991 C 0.61668 0.23435 0.66768 0.0
H992 H 0.58093 0.26439 0.71746 0.0
C993 C 0.57537 0.21177 0.80089 0.0
C994 C 0.55765 0.21774 0.80476 0.0
C995 C 0.58596 0.21759 0.76963 0.0
C996 C 0.59059 0.25576 0.70313 0.0
H997 H 0.67666 0.25894 0.62942 0.0
H998 H 0.6523 0.2457 0.66639 0.0
H999 H 0.6031 0.27784 0.67391 0.0
H1000 H 0.53687 0.23393 0.77808 0.0
H1001 H 0.55534 0.24394 0.72302 0.0
H1002 H 0.60446 0.21234 0.69757 0.0
C1003 C 0.64919 0.25586 0.64475 0.0
C1004 C 0.60331 0.26348 0.67824 0.0
C1005 C 0.66319 0.26361 0.62375 0.0
C1006 C 0.55046 0.22901 0.77571 0.0
C1007 C 0.56108 0.2349 0.74445 0.0
C1008 C 0.60397 0.22663 0.69248 0.0
C1009 C 0.63145 0.26128 0.63829 0.0
C1010 C 0.61675 0.25291 0.66105 0.0
C1011 C 0.57906 0.22954 0.74154 0.0
C1012 C 0.59104 0.23731 0.71122 0.0
H1013 H 0.63899 0.29281 0.56792 0.0
H1014 H 0.61447 0.27926 0.60503 0.0
H1015 H 0.62666 0.22581 0.65418 0.0
H1016 H 0.58121 0.20294 0.82266 0.0
H1017 H 0.5998 0.21332 0.76847 0.0
C1018 C 0.21465 0.14645 0.09998 0.0
C1019 C 0.22103 0.16416 0.09926 0.0
C1020 C 0.22166 0.13407 0.12682 0.0
C1021 C 0.24498 0.13283 0.2221 0.0
H1022 H 0.25732 0.08399 0.19442 0.0
C1023 C 0.2838 0.08928 0.32964 0.0
C1024 C 0.27696 0.07206 0.33638 0.0
C1025 C 0.27798 0.09926 0.29747 0.0
C1026 C 0.25382 0.09756 0.20256 0.0
H1027 H 0.24031 0.18248 0.12527 0.0
H1028 H 0.25246 0.16103 0.17133 0.0
H1029 H 0.24437 0.10383 0.14453 0.0
H1030 H 0.25943 0.05139 0.31364 0.0
H1031 H 0.24916 0.06892 0.25729 0.0
H1032 H 0.2543 0.12674 0.27988 0.0
C1033 C 0.2418 0.15676 0.15185 0.0
C1034 C 0.24637 0.10888 0.17409 0.0
C1035 C 0.23483 0.16906 0.12526 0.0
C1036 C 0.26499 0.0646 0.30899 0.0
C1037 C 0.25911 0.07464 0.27678 0.0
C1038 C 0.2524 0.12159 0.25036 0.0
C1039 C 0.23515 0.13922 0.15338 0.0
C1040 C 0.2421 0.1267 0.18353 0.0
C1041 C 0.26513 0.09228 0.27143 0.0
C1042 C 0.25712 0.10392 0.24085 0.0
H1043 H 0.20408 0.14221 0.08025 0.0
H1044 H 0.21625 0.12063 0.12745 0.0
H1045 H 0.24144 0.14636 0.23053 0.0
H1046 H 0.29328 0.09523 0.34991 0.0
H1047 H 0.28318 0.11267 0.29356 0.0
C1048 C 0.21473 0.28288 0.01799 0.0
C1049 C 0.20992 0.27189 0.98613 0.0
C1050 C 0.21183 0.3013 0.01651 0.0
C1051 C 0.20275 0.33865 0.94755 0.0
H1052 H 0.18938 0.36318 0.04386 0.0
C1053 C 0.18454 0.41406 0.95435 0.0
C1054 C 0.19421 0.42382 0.9827 0.0
C1055 C 0.18494 0.39535 0.95422 0.0
C1056 C 0.19312 0.35648 0.01679 0.0
H1057 H 0.19828 0.27162 0.92768 0.0
H1058 H 0.19277 0.30378 0.92547 0.0
H1059 H 0.19291 0.33076 0.04406 0.0
H1060 H 0.21191 0.42138 0.03315 0.0
H1061 H 0.21202 0.38885 0.03363 0.0
H1062 H 0.20268 0.36452 0.92035 0.0
C1063 C 0.19915 0.2982 0.9513 0.0
C1064 C 0.19526 0.33793 0.01689 0.0
C1065 C 0.20226 0.27976 0.95259 0.0
C1066 C 0.20396 0.41439 0.01139 0.0
C1067 C 0.20413 0.39573 0.01159 0.0
C1068 C 0.20036 0.3572 0.94737 0.0
C1069 C 0.20382 0.30919 0.98336 0.0
C1070 C 0.20043 0.3288 0.98245 0.0
C1071 C 0.19478 0.38605 0.9828 0.0
C1072 C 0.19582 0.36629 0.98214 0.0
H1073 H 0.22082 0.27726 0.04412 0.0
H1074 H 0.21602 0.30936 0.04135 0.0
H1075 H 0.20692 0.33212 0.92061 0.0
H1076 H 0.17664 0.42083 0.93221 0.0
H1077 H 0.17749 0.38814 0.93191 0.0
C1078 C 0.21531 0.71741 0.51941 0.0
C1079 C 0.22588 0.71233 0.48707 0.0
C1080 C 0.19682 0.71491 0.5187 0.0
C1081 C 0.15887 0.70702 0.4509 0.0
H1082 H 0.13468 0.69286 0.54692 0.0
C1083 C 0.08361 0.68998 0.45579 0.0
C1084 C 0.07391 0.69918 0.48497 0.0
C1085 C 0.10229 0.68995 0.4563 0.0
C1086 C 0.14128 0.69684 0.51994 0.0
H1087 H 0.22531 0.70059 0.42863 0.0
H1088 H 0.1931 0.69587 0.42775 0.0
H1089 H 0.16713 0.69618 0.54673 0.0
H1090 H 0.07634 0.71535 0.53788 0.0
H1091 H 0.10887 0.71484 0.53921 0.0
H1092 H 0.13294 0.70751 0.42416 0.0
C1093 C 0.19905 0.70213 0.45335 0.0
C1094 C 0.15984 0.69885 0.51983 0.0
C1095 C 0.21753 0.7048 0.45389 0.0
C1096 C 0.08333 0.70785 0.51534 0.0
C1097 C 0.10198 0.70764 0.51606 0.0
C1098 C 0.14033 0.70483 0.45093 0.0
C1099 C 0.18848 0.7071 0.48581 0.0
C1100 C 0.16884 0.70419 0.48544 0.0
C1101 C 0.11162 0.69892 0.48624 0.0
C1102 C 0.13136 0.69993 0.48557 0.0
H1103 H 0.22131 0.72336 0.54532 0.0
H1104 H 0.18906 0.71923 0.54388 0.0
H1105 H 0.16532 0.71139 0.42405 0.0
H1106 H 0.07678 0.6829 0.43238 0.0
H1107 H 0.10945 0.68295 0.43321 0.0
C1108 C 0.78428 0.71591 0.03933 0.0
C1109 C 0.78827 0.72534 0.00469 0.0
C1110 C 0.787 0.69743 0.04131 0.0
C1111 C 0.79272 0.6576 0.97741 0.0
H1112 H 0.80858 0.6353 0.07428 0.0
C1113 C 0.80919 0.58231 0.98779 0.0
C1114 C 0.80077 0.57327 0.019 0.0
C1115 C 0.80927 0.60099 0.98645 0.0
C1116 C 0.80412 0.64138 0.04708 0.0
H1117 H 0.79872 0.72283 0.94532 0.0
H1118 H 0.80387 0.69079 0.94913 0.0
H1119 H 0.80568 0.6678 0.07108 0.0
H1120 H 0.78591 0.57692 0.07337 0.0
H1121 H 0.78648 0.60945 0.07139 0.0
H1122 H 0.79131 0.63114 0.95342 0.0
C1123 C 0.79817 0.69753 0.97443 0.0
C1124 C 0.80235 0.65997 0.04527 0.0
C1125 C 0.79527 0.71594 0.9723 0.0
C1126 C 0.79283 0.58339 0.04928 0.0
C1127 C 0.79309 0.60204 0.04814 0.0
C1128 C 0.79466 0.63905 0.97912 0.0
C1129 C 0.79394 0.68801 0.00883 0.0
C1130 C 0.79646 0.6683 0.01051 0.0
C1131 C 0.80111 0.61102 0.01649 0.0
C1132 C 0.80021 0.63076 0.01407 0.0
H1133 H 0.77882 0.72275 0.06475 0.0
H1134 H 0.78334 0.6905 0.06808 0.0
H1135 H 0.78785 0.6635 0.95037 0.0
H1136 H 0.8157 0.57496 0.96433 0.0
H1137 H 0.81571 0.60762 0.96192 0.0
C1138 C 0.77957 0.29362 0.46584 0.0
C1139 C 0.77136 0.28646 0.49952 0.0
C1140 C 0.79797 0.29675 0.46515 0.0
C1141 C 0.83755 0.30133 0.53077 0.0
H1142 H 0.86379 0.29257 0.43417 0.0
C1143 C 0.91427 0.29352 0.52223 0.0
C1144 C 0.92323 0.30257 0.49174 0.0
C1145 C 0.89563 0.29336 0.52396 0.0
C1146 C 0.85658 0.29527 0.46119 0.0
H1147 H 0.77605 0.27678 0.55874 0.0
H1148 H 0.80826 0.2816 0.55706 0.0
H1149 H 0.83153 0.28804 0.43555 0.0
H1150 H 0.91942 0.31907 0.43986 0.0
H1151 H 0.88677 0.31824 0.44229 0.0
H1152 H 0.86287 0.30788 0.55662 0.0
C1153 C 0.80043 0.28529 0.53153 0.0
C1154 C 0.83809 0.29272 0.46203 0.0
C1155 C 0.78197 0.28239 0.53242 0.0
C1156 C 0.91301 0.3117 0.46336 0.0
C1157 C 0.89433 0.31131 0.4648 0.0
C1158 C 0.85609 0.30364 0.53003 0.0
C1159 C 0.80867 0.29257 0.49792 0.0
C1160 C 0.82833 0.29565 0.49688 0.0
C1161 C 0.88549 0.30202 0.49495 0.0
C1162 C 0.86576 0.30057 0.49528 0.0
H1163 H 0.77174 0.29713 0.44016 0.0
H1164 H 0.80376 0.30269 0.43904 0.0
H1165 H 0.83046 0.30407 0.5579 0.0
H1166 H 0.92161 0.286 0.54414 0.0
H1167 H 0.88913 0.28589 0.54722 0.0
C1168 C 0.71741 0.21485 0.47249 0.0
C1169 C 0.7124 0.22525 0.50513 0.0
C1170 C 0.71529 0.19629 0.47307 0.0
C1171 C 0.70798 0.15812 0.54119 0.0
H1172 H 0.69464 0.13348 0.44503 0.0
C1173 C 0.6886 0.08328 0.53626 0.0
C1174 C 0.69795 0.07302 0.50823 0.0
C1175 C 0.68951 0.10194 0.53564 0.0
C1176 C 0.69842 0.14022 0.47203 0.0
H1177 H 0.70101 0.22438 0.56382 0.0
H1178 H 0.69678 0.19211 0.56438 0.0
H1179 H 0.69787 0.16595 0.4448 0.0
H1180 H 0.71556 0.07453 0.45745 0.0
H1181 H 0.71659 0.10708 0.45573 0.0
H1182 H 0.70813 0.13228 0.56845 0.0
C1183 C 0.70283 0.19818 0.53872 0.0
C1184 C 0.70038 0.1588 0.47191 0.0
C1185 C 0.70519 0.21671 0.53835 0.0
C1186 C 0.70788 0.08193 0.47903 0.0
C1187 C 0.70857 0.10059 0.47811 0.0
C1188 C 0.70577 0.13957 0.5414 0.0
C1189 C 0.70785 0.18772 0.50608 0.0
C1190 C 0.70534 0.16798 0.50642 0.0
C1191 C 0.69956 0.11074 0.50666 0.0
C1192 C 0.7011 0.13045 0.50676 0.0
H1193 H 0.72313 0.22102 0.44656 0.0
H1194 H 0.71966 0.18866 0.44772 0.0
H1195 H 0.71211 0.16466 0.56815 0.0
H1196 H 0.68055 0.0769 0.55872 0.0
H1197 H 0.68229 0.10952 0.55773 0.0
C1198 C 0.28111 0.21653 0.96166 0.0
C1199 C 0.27085 0.2129 0.99534 0.0
C1200 C 0.2997 0.21451 0.96244 0.0
C1201 C 0.33785 0.21076 0.03215 0.0
H1202 H 0.36313 0.19349 0.93995 0.0
C1203 C 0.41276 0.19225 0.03475 0.0
C1204 C 0.42318 0.20033 0.00523 0.0
C1205 C 0.3941 0.19278 0.03288 0.0
C1206 C 0.3562 0.19837 0.96584 0.0
H1207 H 0.272 0.20387 0.05596 0.0
H1208 H 0.30421 0.19982 0.05695 0.0
H1209 H 0.33061 0.19644 0.93808 0.0
H1210 H 0.42198 0.21518 0.95036 0.0
H1211 H 0.38946 0.21556 0.94664 0.0
H1212 H 0.36348 0.21235 0.06001 0.0
C1213 C 0.29805 0.20478 0.03026 0.0
C1214 C 0.3376 0.20017 0.96475 0.0
C1215 C 0.27953 0.20703 0.02964 0.0
C1216 C 0.41445 0.20851 0.97326 0.0
C1217 C 0.39581 0.20882 0.97115 0.0
C1218 C 0.35639 0.20873 0.03337 0.0
C1219 C 0.30841 0.20859 0.99676 0.0
C1220 C 0.32819 0.20648 0.99785 0.0
C1221 C 0.38547 0.20117 0.00119 0.0
C1222 C 0.36574 0.2026 0.00019 0.0
H1223 H 0.27481 0.22115 0.93482 0.0
H1224 H 0.30726 0.21784 0.93627 0.0
H1225 H 0.33113 0.216 0.05794 0.0
H1226 H 0.419 0.18554 0.05941 0.0
H1227 H 0.38639 0.18661 0.0562 0.0
C1228 C 0.28399 0.78033 0.45033 0.0
C1229 C 0.28734 0.77096 0.48538 0.0
C1230 C 0.28623 0.79889 0.44874 0.0
C1231 C 0.28944 0.83873 0.51373 0.0
H1232 H 0.30745 0.86175 0.41951 0.0
C1233 C 0.30704 0.91381 0.50873 0.0
C1234 C 0.29963 0.92339 0.47707 0.0
C1235 C 0.30664 0.89512 0.50909 0.0
C1236 C 0.30235 0.85547 0.44595 0.0
H1237 H 0.29626 0.77368 0.5459 0.0
H1238 H 0.30063 0.80583 0.54281 0.0
H1239 H 0.30466 0.8292 0.42138 0.0
H1240 H 0.28609 0.92069 0.42082 0.0
H1241 H 0.28583 0.88811 0.42113 0.0
H1242 H 0.28737 0.86503 0.53839 0.0
C1243 C 0.29574 0.79899 0.51684 0.0
C1244 C 0.30066 0.83685 0.44699 0.0
C1245 C 0.2933 0.78051 0.51856 0.0
C1246 C 0.29222 0.9138 0.44536 0.0
C1247 C 0.292 0.89512 0.44554 0.0
C1248 C 0.29132 0.85731 0.51282 0.0
C1249 C 0.29208 0.80846 0.48205 0.0
C1250 C 0.29412 0.82825 0.48087 0.0
C1251 C 0.299 0.88561 0.47762 0.0
C1252 C 0.29771 0.86586 0.47888 0.0
H1253 H 0.27934 0.77337 0.42429 0.0
H1254 H 0.28306 0.80577 0.4216 0.0
H1255 H 0.28402 0.83264 0.54004 0.0
H1256 H 0.31314 0.92074 0.53331 0.0
H1257 H 0.31232 0.88809 0.53398 0.0
C1258 C 0.71629 0.77841 0.96146 0.0
C1259 C 0.72588 0.78299 0.99557 0.0
C1260 C 0.69775 0.78058 0.96005 0.0
C1261 C 0.65799 0.7864 0.02377 0.0
H1262 H 0.63602 0.80288 0.92696 0.0
C1263 C 0.58307 0.80426 0.01302 0.0
C1264 C 0.57391 0.79622 0.98146 0.0
C1265 C 0.60173 0.8039 0.01456 0.0
C1266 C 0.642 0.79822 0.95412 0.0
H1267 H 0.72353 0.79351 0.05493 0.0
H1268 H 0.69129 0.79764 0.05215 0.0
H1269 H 0.66845 0.79954 0.93042 0.0
H1270 H 0.57726 0.78165 0.92661 0.0
H1271 H 0.6098 0.78143 0.92896 0.0
H1272 H 0.63148 0.78526 0.04748 0.0
C1273 C 0.69801 0.79201 0.02677 0.0
C1274 C 0.66054 0.79621 0.95608 0.0
C1275 C 0.71653 0.78969 0.02831 0.0
C1276 C 0.58386 0.78826 0.95098 0.0
C1277 C 0.60251 0.78806 0.95236 0.0
C1278 C 0.63946 0.78857 0.0219 0.0
C1279 C 0.68841 0.78753 0.99258 0.0
C1280 C 0.66874 0.79012 0.99082 0.0
C1281 C 0.6116 0.79567 0.9844 0.0
C1282 C 0.6313 0.79435 0.98696 0.0
H1283 H 0.72308 0.77312 0.9358 0.0
H1284 H 0.69073 0.77668 0.93352 0.0
H1285 H 0.66383 0.78143 0.05079 0.0
H1286 H 0.57583 0.81078 0.03663 0.0
H1287 H 0.60846 0.81005 0.03936 0.0
loop_
_geom_bond_atom_site_label_1
_geom_bond_atom_site_label_2
_geom_bond_distance
_geom_bond_site_symmetry_2
_ccdc_geom_bond_type
Sc0 O3 2.025 . S
Sc0 O10 2.105 . S
Sc0 O13 2.105 . S
Sc0 O16 2.105 . S
Sc0 O19 2.105 . S
Sc1 O3 2.025 . S
Sc1 O11 2.105 . S
Sc1 O15 2.105 1_554 S
Sc1 O17 2.105 . S
Sc1 O21 2.105 1_554 S
Sc2 O3 2.025 1_556 S
Sc2 O12 2.105 . S
Sc2 O14 2.105 . S
Sc2 O18 2.105 . S
Sc2 O20 2.105 . S
O3 Sc0 2.025 . S
O3 Sc1 2.025 . S
O3 Sc2 2.025 1_554 S
C4 O10 1.268 . S
C4 O20 1.268 1_554 S
C5 O11 1.268 . S
C5 O19 1.268 . S
C6 O12 1.268 . S
C6 O21 1.268 . S
C7 O13 1.268 . S
C7 O17 1.268 . S
C8 O14 1.268 1_554 S
C8 O16 1.268 . S
C9 O15 1.268 . S
C9 O18 1.268 . S
O10 Sc0 2.105 . S
O10 C4 1.268 . S
O11 Sc1 2.105 . S
O11 C5 1.268 . S
O12 Sc2 2.105 . S
O12 C6 1.268 . S
O13 Sc0 2.105 . S
O13 C7 1.268 . S
O14 Sc2 2.105 . S
O14 C8 1.268 1_556 S
O15 Sc1 2.105 1_556 S
O15 C9 1.268 . S
O16 Sc0 2.105 . S
O16 C8 1.268 . S
O17 Sc1 2.105 . S
O17 C7 1.268 . S
O18 Sc2 2.105 . S
O18 C9 1.268 . S
O19 Sc0 2.105 . S
O19 C5 1.268 . S
O20 Sc2 2.105 . S
O20 C4 1.268 1_556 S
O21 Sc1 2.105 1_556 S
O21 C6 1.268 . S
Sc22 O25 2.025 . S
Sc22 O32 2.105 . S
Sc22 O35 2.105 . S
Sc22 O38 2.105 . S
Sc22 O41 2.105 . S
Sc23 O25 2.025 . S
Sc23 O33 2.105 . S
Sc23 O37 2.105 . S
Sc23 O39 2.105 . S
Sc23 O43 2.105 . S
Sc24 O25 2.025 . S
Sc24 O34 2.105 . S
Sc24 O36 2.105 . S
Sc24 O40 2.105 . S
Sc24 O42 2.105 . S
O25 Sc22 2.025 . S
O25 Sc23 2.025 . S
O25 Sc24 2.025 . S
C26 O32 1.268 . S
C26 O42 1.268 . S
C27 O33 1.268 . S
C27 O41 1.268 . S
C28 O34 1.268 . S
C28 O43 1.268 . S
C29 O35 1.268 . S
C29 O39 1.268 . S
C30 O36 1.268 . S
C30 O38 1.268 . S
C31 O37 1.268 . S
C31 O40 1.268 . S
O32 Sc22 2.105 . S
O32 C26 1.268 . S
O33 Sc23 2.105 . S
O33 C27 1.268 . S
O34 Sc24 2.105 . S
O34 C28 1.268 . S
O35 Sc22 2.105 . S
O35 C29 1.268 . S
O36 Sc24 2.105 . S
O36 C30 1.268 . S
O37 Sc23 2.105 . S
O37 C31 1.268 . S
O38 Sc22 2.105 . S
O38 C30 1.268 . S
O39 Sc23 2.105 . S
O39 C29 1.268 . S
O40 Sc24 2.105 . S
O40 C31 1.268 . S
O41 Sc22 2.105 . S
O41 C27 1.268 . S
O42 Sc24 2.105 . S
O42 C26 1.268 . S
O43 Sc23 2.105 . S
O43 C28 1.268 . S
Sc44 O47 2.025 1_556 S
Sc44 O54 2.105 . S
Sc44 O57 2.105 . S
Sc44 O60 2.105 . S
Sc44 O63 2.105 . S
Sc45 O47 2.025 . S
Sc45 O55 2.105 1_554 S
Sc45 O59 2.105 . S
Sc45 O61 2.105 1_554 S
Sc45 O65 2.105 . S
Sc46 O47 2.025 . S
Sc46 O56 2.105 . S
Sc46 O58 2.105 . S
Sc46 O62 2.105 . S
Sc46 O64 2.105 . S
O47 Sc44 2.025 1_554 S
O47 Sc45 2.025 . S
O47 Sc46 2.025 . S
C48 O54 1.268 1_554 S
C48 O64 1.268 . S
C49 O55 1.268 . S
C49 O63 1.268 . S
C50 O56 1.268 . S
C50 O65 1.268 . S
C51 O57 1.268 . S
C51 O61 1.268 . S
C52 O58 1.268 . S
C52 O60 1.268 1_554 S
C53 O59 1.268 . S
C53 O62 1.268 . S
O54 Sc44 2.105 . S
O54 C48 1.268 1_556 S
O55 Sc45 2.105 1_556 S
O55 C49 1.268 . S
O56 Sc46 2.105 . S
O56 C50 1.268 . S
O57 Sc44 2.105 . S
O57 C51 1.268 . S
O58 Sc46 2.105 . S
O58 C52 1.268 . S
O59 Sc45 2.105 . S
O59 C53 1.268 . S
O60 Sc44 2.105 . S
O60 C52 1.268 1_556 S
O61 Sc45 2.105 1_556 S
O61 C51 1.268 . S
O62 Sc46 2.105 . S
O62 C53 1.268 . S
O63 Sc44 2.105 . S
O63 C49 1.268 . S
O64 Sc46 2.105 . S
O64 C48 1.268 . S
O65 Sc45 2.105 . S
O65 C50 1.268 . S
Sc66 O69 2.025 . S
Sc66 O76 2.105 . S
Sc66 O79 2.105 . S
Sc66 O82 2.105 . S
Sc66 O85 2.105 . S
Sc67 O69 2.025 . S
Sc67 O77 2.105 . S
Sc67 O81 2.105 . S
Sc67 O83 2.105 . S
Sc67 O87 2.105 . S
Sc68 O69 2.025 . S
Sc68 O78 2.105 . S
Sc68 O80 2.105 . S
Sc68 O84 2.105 . S
Sc68 O86 2.105 . S
O69 Sc66 2.025 . S
O69 Sc67 2.025 . S
O69 Sc68 2.025 . S
C70 O76 1.268 . S
C70 O86 1.268 . S
C71 O77 1.268 . S
C71 O85 1.268 . S
C72 O78 1.268 . S
C72 O87 1.268 . S
C73 O79 1.268 . S
C73 O83 1.268 . S
C74 O80 1.268 . S
C74 O82 1.268 . S
C75 O81 1.268 . S
C75 O84 1.268 . S
O76 Sc66 2.105 . S
O76 C70 1.268 . S
O77 Sc67 2.105 . S
O77 C71 1.268 . S
O78 Sc68 2.105 . S
O78 C72 1.268 . S
O79 Sc66 2.105 . S
O79 C73 1.268 . S
O80 Sc68 2.105 . S
O80 C74 1.268 . S
O81 Sc67 2.105 . S
O81 C75 1.268 . S
O82 Sc66 2.105 . S
O82 C74 1.268 . S
O83 Sc67 2.105 . S
O83 C73 1.268 . S
O84 Sc68 2.105 . S
O84 C75 1.268 . S
O85 Sc66 2.105 . S
O85 C71 1.268 . S
O86 Sc68 2.105 . S
O86 C70 1.268 . S
O87 Sc67 2.105 . S
O87 C72 1.268 . S
C88 C89 1.391 . S
C88 C92 1.391 . S
C88 H130 0.948 . S
C89 C88 1.391 . S
C89 C90 1.391 . S
C90 C89 1.391 . S
C90 H146 0.947 . S
C90 C147 1.392 . S
C91 C92 1.391 . S
C91 C95 1.397 . S
C91 C147 1.419 . S
C92 C88 1.391 . S
C92 C91 1.391 . S
C92 C93 1.399 . S
C93 C92 1.399 . S
C93 C96 1.396 . S
C93 C105 1.453 . S
C93 C106 1.684 . S
H94 C118 0.948 . S
C95 C91 1.397 . S
C95 C96 1.394 . S
C95 C114 1.723 1_556 S
C96 C93 1.396 . S
C96 C95 1.394 . S
C96 C126 1.723 . S
H97 C120 0.947 . S
H98 C121 0.948 . S
H99 C127 0.982 . S
H100 C128 0.979 . S
H101 C128 0.980 . S
H102 C128 0.983 . S
H103 C127 0.979 . S
H104 C127 0.977 . S
C105 C93 1.453 . S
C105 H134 0.982 . S
C105 H135 0.979 . S
C105 H136 0.977 . S
C106 C93 1.684 . S
C106 H131 0.979 . S
C106 H132 0.980 . S
C106 H133 0.983 . S
C107 C108 1.391 . S
C107 C112 1.391 . S
C107 H137 0.948 . S
C108 C107 1.391 . S
C108 C109 1.391 . S
C109 C108 1.391 . S
C109 C110 1.392 . S
C109 H138 0.947 . S
C110 C109 1.392 . S
C110 C111 1.419 . S
C110 H139 0.948 . S
C111 C110 1.419 . S
C111 C112 1.391 . S
C111 C115 1.397 . S
C112 C107 1.391 . S
C112 C111 1.391 . S
C112 C113 1.399 . S
C113 C112 1.399 . S
C113 C114 1.396 . S
C113 C116 1.453 . S
C113 C117 1.684 . S
C114 C95 1.723 1_554 S
C114 C113 1.396 . S
C114 C115 1.394 . S
C115 C111 1.397 . S
C115 C114 1.394 . S
C115 C125 1.723 . S
C116 C113 1.453 . S
C116 H140 0.982 . S
C116 H141 0.979 . S
C116 H142 0.977 1_554 S
C117 C113 1.684 . S
C117 H143 0.979 . S
C117 H144 0.980 1_554 S
C117 H145 0.983 . S
C118 H94 0.948 . S
C118 C119 1.391 1_554 S
C118 C123 1.391 . S
C119 C118 1.391 1_556 S
C119 C120 1.391 . S
C120 H97 0.947 . S
C120 C119 1.391 . S
C120 C121 1.392 . S
C121 H98 0.948 . S
C121 C120 1.392 . S
C121 C122 1.419 . S
C122 C121 1.419 . S
C122 C123 1.391 1_556 S
C122 C126 1.397 . S
C123 C118 1.391 . S
C123 C122 1.391 1_554 S
C123 C124 1.399 . S
C124 C123 1.399 . S
C124 C125 1.396 . S
C124 C127 1.453 . S
C124 C128 1.684 . S
C125 C115 1.723 . S
C125 C124 1.396 . S
C125 C126 1.394 1_554 S
C126 C96 1.723 . S
C126 C122 1.397 . S
C126 C125 1.394 1_556 S
C127 H99 0.982 . S
C127 H103 0.979 . S
C127 H104 0.977 . S
C127 C124 1.453 . S
C128 H100 0.979 . S
C128 H101 0.980 . S
C128 H102 0.983 . S
C128 C124 1.684 . S
H129 C147 0.948 . S
H130 C88 0.948 . S
H131 C106 0.979 . S
H132 C106 0.980 . S
H133 C106 0.983 . S
H134 C105 0.982 . S
H135 C105 0.979 . S
H136 C105 0.977 . S
H137 C107 0.948 . S
H138 C109 0.947 . S
H139 C110 0.948 . S
H140 C116 0.982 . S
H141 C116 0.979 . S
H142 C116 0.977 1_556 S
H143 C117 0.979 . S
H144 C117 0.980 1_556 S
H145 C117 0.983 . S
H146 C90 0.947 . S
C147 C90 1.392 . S
C147 C91 1.419 . S
C147 H129 0.948 . S
C148 C149 1.391 . S
C148 C152 1.391 . S
C148 H190 0.948 . S
C149 C148 1.391 . S
C149 C150 1.391 . S
C150 C149 1.391 . S
C150 H206 0.947 . S
C150 C207 1.392 . S
C151 C152 1.391 . S
C151 C155 1.344 1_455 S
C151 C207 1.419 . S
C152 C148 1.391 . S
C152 C151 1.391 . S
C152 C153 1.399 . S
C153 C152 1.399 . S
C153 C156 1.396 1_455 S
C153 C165 1.453 . S
C153 C166 1.684 . S
H154 C178 0.948 . S
C155 C151 1.344 1_655 S
C155 C156 1.404 . S
C155 C174 1.757 . S
C156 C153 1.396 1_655 S
C156 C155 1.404 . S
C156 C186 1.723 . S
H157 C180 0.947 . S
H158 C181 0.948 . S
H159 C187 0.982 . S
H160 C188 0.979 . S
H161 C188 0.980 . S
H162 C188 0.983 . S
H163 C187 0.979 . S
H164 C187 0.977 . S
C165 C153 1.453 . S
C165 H194 0.982 . S
C165 H195 0.979 . S
C165 H196 0.977 . S
C166 C153 1.684 . S
C166 H191 0.979 . S
C166 H192 0.980 . S
C166 H193 0.983 . S
C167 C168 1.391 . S
C167 C172 1.391 . S
C167 H197 0.948 . S
C168 C167 1.391 . S
C168 C169 1.391 . S
C169 C168 1.391 . S
C169 C170 1.392 . S
C169 H198 0.947 . S
C170 C169 1.392 . S
C170 C171 1.419 . S
C170 H199 0.948 . S
C171 C170 1.419 . S
C171 C172 1.391 . S
C171 C175 1.397 . S
C172 C167 1.391 . S
C172 C171 1.391 . S
C172 C173 1.399 . S
C173 C172 1.399 . S
C173 C174 1.396 . S
C173 C176 1.453 . S
C173 C177 1.684 . S
C174 C155 1.757 . S
C174 C173 1.396 . S
C174 C175 1.394 . S
C175 C171 1.397 . S
C175 C174 1.394 . S
C175 C185 1.723 . S
C176 C173 1.453 . S
C176 H200 0.982 . S
C176 H201 0.979 . S
C176 H202 0.977 1_655 S
C177 C173 1.684 . S
C177 H203 0.979 . S
C177 H204 0.980 1_655 S
C177 H205 0.983 . S
C178 H154 0.948 . S
C178 C179 1.391 . S
C178 C183 1.391 . S
C179 C178 1.391 . S
C179 C180 1.391 . S
C180 H157 0.947 . S
C180 C179 1.391 . S
C180 C181 1.392 . S
C181 H158 0.948 . S
C181 C180 1.392 . S
C181 C182 1.419 . S
C182 C181 1.419 . S
C182 C183 1.391 . S
C182 C186 1.397 . S
C183 C178 1.391 . S
C183 C182 1.391 . S
C183 C184 1.399 . S
C184 C183 1.399 . S
C184 C185 1.396 . S
C184 C187 1.453 . S
C184 C188 1.684 . S
C185 C175 1.723 . S
C185 C184 1.396 . S
C185 C186 1.394 . S
C186 C156 1.723 . S
C186 C182 1.397 . S
C186 C185 1.394 . S
C187 H159 0.982 . S
C187 H163 0.979 . S
C187 H164 0.977 . S
C187 C184 1.453 . S
C188 H160 0.979 . S
C188 H161 0.980 . S
C188 H162 0.983 . S
C188 C184 1.684 . S
H189 C207 0.948 . S
H190 C148 0.948 . S
H191 C166 0.979 . S
H192 C166 0.980 . S
H193 C166 0.983 . S
H194 C165 0.982 . S
H195 C165 0.979 . S
H196 C165 0.977 . S
H197 C167 0.948 . S
H198 C169 0.947 . S
H199 C170 0.948 . S
H200 C176 0.982 . S
H201 C176 0.979 . S
H202 C176 0.977 1_455 S
H203 C177 0.979 . S
H204 C177 0.980 1_455 S
H205 C177 0.983 . S
H206 C150 0.947 . S
C207 C150 1.392 . S
C207 C151 1.419 . S
C207 H189 0.948 . S
C208 C209 1.391 . S
C208 C212 1.391 . S
C208 H250 0.948 . S
C209 C208 1.391 . S
C209 C210 1.391 . S
C210 C209 1.391 . S
C210 H266 0.947 . S
C210 C267 1.392 . S
C211 C212 1.391 . S
C211 C215 1.397 . S
C211 C267 1.419 . S
C212 C208 1.391 . S
C212 C211 1.391 . S
C212 C213 1.399 . S
C213 C212 1.399 . S
C213 C216 1.396 . S
C213 C225 1.453 . S
C213 C226 1.684 . S
H214 C238 0.948 . S
C215 C211 1.397 . S
C215 C216 1.394 . S
C215 C234 1.723 1_554 S
C216 C213 1.396 . S
C216 C215 1.394 . S
C216 C246 1.723 . S
H217 C240 0.947 . S
H218 C241 0.948 . S
H219 C247 0.982 . S
H220 C248 0.979 . S
H221 C248 0.980 . S
H222 C248 0.983 . S
H223 C247 0.979 . S
H224 C247 0.977 . S
C225 C213 1.453 . S
C225 H254 0.982 . S
C225 H255 0.979 . S
C225 H256 0.977 . S
C226 C213 1.684 . S
C226 H251 0.979 . S
C226 H252 0.980 . S
C226 H253 0.983 . S
C227 C228 1.391 . S
C227 C232 1.391 . S
C227 H257 0.948 . S
C228 C227 1.391 . S
C228 C229 1.391 . S
C229 C228 1.391 . S
C229 C230 1.392 . S
C229 H258 0.947 . S
C230 C229 1.392 . S
C230 C231 1.419 . S
C230 H259 0.948 . S
C231 C230 1.419 . S
C231 C232 1.391 . S
C231 C235 1.397 . S
C232 C227 1.391 . S
C232 C231 1.391 . S
C232 C233 1.399 . S
C233 C232 1.399 . S
C233 C234 1.396 . S
C233 C236 1.453 . S
C233 C237 1.684 . S
C234 C215 1.723 1_556 S
C234 C233 1.396 . S
C234 C235 1.394 . S
C235 C231 1.397 . S
C235 C234 1.394 . S
C235 C245 1.723 . S
C236 C233 1.453 . S
C236 H260 0.982 . S
C236 H261 0.979 . S
C236 H262 0.977 1_556 S
C237 C233 1.684 . S
C237 H263 0.979 . S
C237 H264 0.980 1_556 S
C237 H265 0.983 . S
C238 H214 0.948 . S
C238 C239 1.391 1_556 S
C238 C243 1.391 . S
C239 C238 1.391 1_554 S
C239 C240 1.391 . S
C240 H217 0.947 . S
C240 C239 1.391 . S
C240 C241 1.392 . S
C241 H218 0.948 . S
C241 C240 1.392 . S
C241 C242 1.419 . S
C242 C241 1.419 . S
C242 C243 1.391 1_554 S
C242 C246 1.397 . S
C243 C238 1.391 . S
C243 C242 1.391 1_556 S
C243 C244 1.399 . S
C244 C243 1.399 . S
C244 C245 1.396 . S
C244 C247 1.453 . S
C244 C248 1.684 . S
C245 C235 1.723 . S
C245 C244 1.396 . S
C245 C246 1.394 1_556 S
C246 C216 1.723 . S
C246 C242 1.397 . S
C246 C245 1.394 1_554 S
C247 H219 0.982 . S
C247 H223 0.979 . S
C247 H224 0.977 . S
C247 C244 1.453 . S
C248 H220 0.979 . S
C248 H221 0.980 . S
C248 H222 0.983 . S
C248 C244 1.684 . S
H249 C267 0.948 . S
H250 C208 0.948 . S
H251 C226 0.979 . S
H252 C226 0.980 . S
H253 C226 0.983 . S
H254 C225 0.982 . S
H255 C225 0.979 . S
H256 C225 0.977 . S
H257 C227 0.948 . S
H258 C229 0.947 . S
H259 C230 0.948 . S
H260 C236 0.982 . S
H261 C236 0.979 . S
H262 C236 0.977 1_554 S
H263 C237 0.979 . S
H264 C237 0.980 1_554 S
H265 C237 0.983 . S
H266 C210 0.947 . S
C267 C210 1.392 . S
C267 C211 1.419 . S
C267 H249 0.948 . S
C268 C269 1.391 . S
C268 C272 1.391 . S
C268 H310 0.948 . S
C269 C268 1.391 . S
C269 C270 1.391 . S
C270 C269 1.391 . S
C270 H326 0.947 . S
C270 C327 1.392 . S
C271 C272 1.391 . S
C271 C275 1.397 . S
C271 C327 1.419 . S
C272 C268 1.391 . S
C272 C271 1.391 . S
C272 C273 1.399 . S
C273 C272 1.399 . S
C273 C276 1.396 . S
C273 C285 1.453 . S
C273 C286 1.684 . S
H274 C298 0.948 . S
C275 C271 1.397 . S
C275 C276 1.394 . S
C275 C294 1.723 . S
C276 C273 1.396 . S
C276 C275 1.394 . S
C276 C306 1.757 . S
H277 C300 0.947 . S
H278 C301 0.948 . S
H279 C307 0.982 . S
H280 C308 0.979 . S
H281 C308 0.980 . S
H282 C308 0.983 . S
H283 C307 0.979 . S
H284 C307 0.977 . S
C285 C273 1.453 . S
C285 H314 0.982 . S
C285 H315 0.979 . S
C285 H316 0.977 1_455 S
C286 C273 1.684 . S
C286 H311 0.979 . S
C286 H312 0.980 1_455 S
C286 H313 0.983 . S
C287 C288 1.391 . S
C287 C292 1.391 . S
C287 H317 0.948 . S
C288 C287 1.391 . S
C288 C289 1.391 . S
C289 C288 1.391 . S
C289 C290 1.392 . S
C289 H318 0.947 . S
C290 C289 1.392 . S
C290 C291 1.419 . S
C290 H319 0.948 . S
C291 C290 1.419 . S
C291 C292 1.391 . S
C291 C295 1.397 . S
C292 C287 1.391 . S
C292 C291 1.391 . S
C292 C293 1.399 . S
C293 C292 1.399 . S
C293 C294 1.396 . S
C293 C296 1.453 . S
C293 C297 1.684 . S
C294 C275 1.723 . S
C294 C293 1.396 . S
C294 C295 1.394 . S
C295 C291 1.397 . S
C295 C294 1.394 . S
C295 C305 1.723 . S
C296 C293 1.453 . S
C296 H320 0.982 . S
C296 H321 0.979 . S
C296 H322 0.977 . S
C297 C293 1.684 . S
C297 H323 0.979 . S
C297 H324 0.980 . S
C297 H325 0.983 . S
C298 H274 0.948 . S
C298 C299 1.391 . S
C298 C303 1.391 . S
C299 C298 1.391 . S
C299 C300 1.391 . S
C300 H277 0.947 . S
C300 C299 1.391 . S
C300 C301 1.392 . S
C301 H278 0.948 . S
C301 C300 1.392 . S
C301 C302 1.419 . S
C302 C301 1.419 . S
C302 C303 1.391 . S
C302 C306 1.344 1_655 S
C303 C298 1.391 . S
C303 C302 1.391 . S
C303 C304 1.399 . S
C304 C303 1.399 . S
C304 C305 1.396 1_655 S
C304 C307 1.453 . S
C304 C308 1.684 . S
C305 C295 1.723 . S
C305 C304 1.396 1_455 S
C305 C306 1.404 . S
C306 C276 1.757 . S
C306 C302 1.344 1_455 S
C306 C305 1.404 . S
C307 H279 0.982 . S
C307 H283 0.979 . S
C307 H284 0.977 . S
C307 C304 1.453 . S
C308 H280 0.979 . S
C308 H281 0.980 . S
C308 H282 0.983 . S
C308 C304 1.684 . S
H309 C327 0.948 . S
H310 C268 0.948 . S
H311 C286 0.979 . S
H312 C286 0.980 1_655 S
H313 C286 0.983 . S
H314 C285 0.982 . S
H315 C285 0.979 . S
H316 C285 0.977 1_655 S
H317 C287 0.948 . S
H318 C289 0.947 . S
H319 C290 0.948 . S
H320 C296 0.982 . S
H321 C296 0.979 . S
H322 C296 0.977 . S
H323 C297 0.979 . S
H324 C297 0.980 . S
H325 C297 0.983 . S
H326 C270 0.947 . S
C327 C270 1.392 . S
C327 C271 1.419 . S
C327 H309 0.948 . S
C328 C329 1.391 . S
C328 C332 1.391 . S
C328 H370 0.948 . S
C329 C328 1.391 . S
C329 C330 1.391 . S
C330 C329 1.391 . S
C330 H386 0.947 . S
C330 C387 1.392 . S
C331 C332 1.391 . S
C331 C335 1.397 . S
C331 C387 1.419 . S
C332 C328 1.391 . S
C332 C331 1.391 . S
C332 C333 1.399 . S
C333 C332 1.399 . S
C333 C336 1.396 . S
C333 C345 1.453 . S
C333 C346 1.684 . S
H334 C358 0.948 . S
C335 C331 1.397 . S
C335 C336 1.394 . S
C335 C354 1.723 . S
C336 C333 1.396 . S
C336 C335 1.394 . S
C336 C366 1.757 . S
H337 C360 0.947 . S
H338 C361 0.948 . S
H339 C367 0.982 . S
H340 C368 0.979 . S
H341 C368 0.980 . S
H342 C368 0.983 . S
H343 C367 0.979 . S
H344 C367 0.977 . S
C345 C333 1.453 . S
C345 H374 0.982 . S
C345 H375 0.979 . S
C345 H376 0.977 1_565 S
C346 C333 1.684 . S
C346 H371 0.979 . S
C346 H372 0.980 1_565 S
C346 H373 0.983 . S
C347 C348 1.391 . S
C347 C352 1.391 . S
C347 H377 0.948 . S
C348 C347 1.391 . S
C348 C349 1.391 . S
C349 C348 1.391 . S
C349 C350 1.392 . S
C349 H378 0.947 . S
C350 C349 1.392 . S
C350 C351 1.419 . S
C350 H379 0.948 . S
C351 C350 1.419 . S
C351 C352 1.391 . S
C351 C355 1.397 . S
C352 C347 1.391 . S
C352 C351 1.391 . S
C352 C353 1.399 . S
C353 C352 1.399 . S
C353 C354 1.396 . S
C353 C356 1.453 . S
C353 C357 1.684 . S
C354 C335 1.723 . S
C354 C353 1.396 . S
C354 C355 1.394 . S
C355 C351 1.397 . S
C355 C354 1.394 . S
C355 C365 1.723 . S
C356 C353 1.453 . S
C356 H380 0.982 . S
C356 H381 0.979 . S
C356 H382 0.977 . S
C357 C353 1.684 . S
C357 H383 0.979 . S
C357 H384 0.980 . S
C357 H385 0.983 . S
C358 H334 0.948 . S
C358 C359 1.391 . S
C358 C363 1.391 . S
C359 C358 1.391 . S
C359 C360 1.391 . S
C360 H337 0.947 . S
C360 C359 1.391 . S
C360 C361 1.392 . S
C361 H338 0.948 . S
C361 C360 1.392 . S
C361 C362 1.419 . S
C362 C361 1.419 . S
C362 C363 1.391 . S
C362 C366 1.344 1_545 S
C363 C358 1.391 . S
C363 C362 1.391 . S
C363 C364 1.399 . S
C364 C363 1.399 . S
C364 C365 1.396 1_545 S
C364 C367 1.453 . S
C364 C368 1.684 . S
C365 C355 1.723 . S
C365 C364 1.396 1_565 S
C365 C366 1.404 . S
C366 C336 1.757 . S
C366 C362 1.344 1_565 S
C366 C365 1.404 . S
C367 H339 0.982 . S
C367 H343 0.979 . S
C367 H344 0.977 . S
C367 C364 1.453 . S
C368 H340 0.979 . S
C368 H341 0.980 . S
C368 H342 0.983 . S
C368 C364 1.684 . S
H369 C387 0.948 . S
H370 C328 0.948 . S
H371 C346 0.979 . S
H372 C346 0.980 1_545 S
H373 C346 0.983 . S
H374 C345 0.982 . S
H375 C345 0.979 . S
H376 C345 0.977 1_545 S
H377 C347 0.948 . S
H378 C349 0.947 . S
H379 C350 0.948 . S
H380 C356 0.982 . S
H381 C356 0.979 . S
H382 C356 0.977 . S
H383 C357 0.979 . S
H384 C357 0.980 . S
H385 C357 0.983 . S
H386 C330 0.947 . S
C387 C330 1.392 . S
C387 C331 1.419 . S
C387 H369 0.948 . S
C388 C389 1.391 . S
C388 C392 1.391 . S
C388 H430 0.948 . S
C389 C388 1.391 . S
C389 C390 1.391 . S
C390 C389 1.391 . S
C390 H446 0.947 . S
C390 C447 1.392 . S
C391 C392 1.391 . S
C391 C395 1.397 . S
C391 C447 1.419 . S
C392 C388 1.391 . S
C392 C391 1.391 . S
C392 C393 1.399 . S
C393 C392 1.399 . S
C393 C396 1.396 . S
C393 C405 1.453 . S
C393 C406 1.684 . S
H394 C418 0.948 . S
C395 C391 1.397 . S
C395 C396 1.394 . S
C395 C414 1.723 1_554 S
C396 C393 1.396 . S
C396 C395 1.394 . S
C396 C426 1.723 . S
H397 C420 0.947 . S
H398 C421 0.948 . S
H399 C427 0.982 . S
H400 C428 0.979 . S
H401 C428 0.980 . S
H402 C428 0.983 . S
H403 C427 0.979 . S
H404 C427 0.977 . S
C405 C393 1.453 . S
C405 H434 0.982 . S
C405 H435 0.979 . S
C405 H436 0.977 . S
C406 C393 1.684 . S
C406 H431 0.979 . S
C406 H432 0.980 . S
C406 H433 0.983 . S
C407 C408 1.391 . S
C407 C412 1.391 . S
C407 H437 0.948 . S
C408 C407 1.391 . S
C408 C409 1.391 . S
C409 C408 1.391 . S
C409 C410 1.392 . S
C409 H438 0.947 . S
C410 C409 1.392 . S
C410 C411 1.419 . S
C410 H439 0.948 . S
C411 C410 1.419 . S
C411 C412 1.391 . S
C411 C415 1.397 . S
C412 C407 1.391 . S
C412 C411 1.391 . S
C412 C413 1.399 . S
C413 C412 1.399 . S
C413 C414 1.396 . S
C413 C416 1.453 . S
C413 C417 1.684 . S
C414 C395 1.723 1_556 S
C414 C413 1.396 . S
C414 C415 1.394 . S
C415 C411 1.397 . S
C415 C414 1.394 . S
C415 C425 1.723 . S
C416 C413 1.453 . S
C416 H440 0.982 . S
C416 H441 0.979 . S
C416 H442 0.977 1_556 S
C417 C413 1.684 . S
C417 H443 0.979 . S
C417 H444 0.980 1_556 S
C417 H445 0.983 . S
C418 H394 0.948 . S
C418 C419 1.391 1_556 S
C418 C423 1.391 . S
C419 C418 1.391 1_554 S
C419 C420 1.391 . S
C420 H397 0.947 . S
C420 C419 1.391 . S
C420 C421 1.392 . S
C421 H398 0.948 . S
C421 C420 1.392 . S
C421 C422 1.419 . S
C422 C421 1.419 . S
C422 C423 1.391 1_554 S
C422 C426 1.397 . S
C423 C418 1.391 . S
C423 C422 1.391 1_556 S
C423 C424 1.399 . S
C424 C423 1.399 . S
C424 C425 1.396 . S
C424 C427 1.453 . S
C424 C428 1.684 . S
C425 C415 1.723 . S
C425 C424 1.396 . S
C425 C426 1.394 1_556 S
C426 C396 1.723 . S
C426 C422 1.397 . S
C426 C425 1.394 1_554 S
C427 H399 0.982 . S
C427 H403 0.979 . S
C427 H404 0.977 . S
C427 C424 1.453 . S
C428 H400 0.979 . S
C428 H401 0.980 . S
C428 H402 0.983 . S
C428 C424 1.684 . S
H429 C447 0.948 . S
H430 C388 0.948 . S
H431 C406 0.979 . S
H432 C406 0.980 . S
H433 C406 0.983 . S
H434 C405 0.982 . S
H435 C405 0.979 . S
H436 C405 0.977 . S
H437 C407 0.948 . S
H438 C409 0.947 . S
H439 C410 0.948 . S
H440 C416 0.982 . S
H441 C416 0.979 . S
H442 C416 0.977 1_554 S
H443 C417 0.979 . S
H444 C417 0.980 1_554 S
H445 C417 0.983 . S
H446 C390 0.947 . S
C447 C390 1.392 . S
C447 C391 1.419 . S
C447 H429 0.948 . S
C448 C449 1.391 . S
C448 C452 1.391 . S
C448 H490 0.948 . S
C449 C448 1.391 . S
C449 C450 1.391 . S
C450 C449 1.391 . S
C450 H506 0.947 . S
C450 C507 1.392 . S
C451 C452 1.391 . S
C451 C455 1.397 . S
C451 C507 1.419 . S
C452 C448 1.391 . S
C452 C451 1.391 . S
C452 C453 1.399 . S
C453 C452 1.399 . S
C453 C456 1.396 . S
C453 C465 1.453 . S
C453 C466 1.646 1_545 S
H454 C478 0.948 . S
C455 C451 1.397 . S
C455 C456 1.394 . S
C455 C474 1.723 . S
C456 C453 1.396 . S
C456 C455 1.394 . S
C456 C486 1.759 . S
H457 C480 0.947 . S
H458 C481 0.948 . S
H459 C487 0.982 . S
H460 C488 0.979 . S
H461 C488 0.980 . S
H462 C488 0.983 . S
H463 C487 0.979 . S
H464 C487 1.026 . S
C465 C453 1.453 . S
C465 H494 0.982 . S
C465 H495 0.979 . S
C465 H496 0.977 1_545 S
C466 C453 1.646 1_565 S
C466 H491 0.973 1_565 S
C466 H492 1.028 . S
C466 H493 0.980 1_565 S
C467 C468 1.391 . S
C467 C472 1.391 . S
C467 H497 0.948 . S
C468 C467 1.391 . S
C468 C469 1.391 . S
C469 C468 1.391 . S
C469 C470 1.392 . S
C469 H498 0.947 . S
C470 C469 1.392 . S
C470 C471 1.419 . S
C470 H499 0.948 . S
C471 C470 1.419 . S
C471 C472 1.391 . S
C471 C475 1.397 . S
C472 C467 1.391 . S
C472 C471 1.391 . S
C472 C473 1.399 . S
C473 C472 1.399 . S
C473 C474 1.396 . S
C473 C476 1.453 . S
C473 C477 1.684 . S
C474 C455 1.723 . S
C474 C473 1.396 . S
C474 C475 1.394 . S
C475 C471 1.397 . S
C475 C474 1.394 . S
C475 C485 1.723 . S
C476 C473 1.453 . S
C476 H500 0.982 . S
C476 H501 0.979 . S
C476 H502 0.977 . S
C477 C473 1.684 . S
C477 H503 0.979 . S
C477 H504 0.980 . S
C477 H505 0.983 . S
C478 H454 0.948 . S
C478 C479 1.391 . S
C478 C483 1.391 . S
C479 C478 1.391 . S
C479 C480 1.391 . S
C480 H457 0.947 . S
C480 C479 1.391 . S
C480 C481 1.392 . S
C481 H458 0.948 . S
C481 C480 1.392 . S
C481 C482 1.419 . S
C482 C481 1.419 . S
C482 C483 1.391 . S
C482 C486 1.340 1_565 S
C483 C478 1.391 . S
C483 C482 1.391 . S
C483 C484 1.399 . S
C484 C483 1.399 . S
C484 C485 1.396 1_565 S
C484 C487 1.453 . S
C484 C488 1.684 . S
C485 C475 1.723 . S
C485 C484 1.396 1_545 S
C485 C486 1.405 . S
C486 C456 1.759 . S
C486 C482 1.340 1_545 S
C486 C485 1.405 . S
C487 H459 0.982 . S
C487 H463 0.979 . S
C487 H464 1.026 . S
C487 C484 1.453 . S
C488 H460 0.979 . S
C488 H461 0.980 . S
C488 H462 0.983 . S
C488 C484 1.684 . S
H489 C507 0.948 . S
H490 C448 0.948 . S
H491 C466 0.973 1_545 S
H492 C466 1.028 . S
H493 C466 0.980 1_545 S
H494 C465 0.982 . S
H495 C465 0.979 . S
H496 C465 0.977 1_565 S
H497 C467 0.948 . S
H498 C469 0.947 . S
H499 C470 0.948 . S
H500 C476 0.982 . S
H501 C476 0.979 . S
H502 C476 0.977 . S
H503 C477 0.979 . S
H504 C477 0.980 . S
H505 C477 0.983 . S
H506 C450 0.947 . S
C507 C450 1.392 . S
C507 C451 1.419 . S
C507 H489 0.948 . S
C508 C509 1.391 1_554 S
C508 C512 1.391 . S
C508 H550 0.948 . S
C509 C508 1.391 1_556 S
C509 C510 1.391 . S
C510 C509 1.391 . S
C510 H566 0.947 . S
C510 C567 1.392 . S
C511 C512 1.391 1_556 S
C511 C515 1.397 . S
C511 C567 1.419 . S
C512 C508 1.391 . S
C512 C511 1.391 1_554 S
C512 C513 1.399 . S
C513 C512 1.399 . S
C513 C516 1.396 . S
C513 C525 1.453 . S
C513 C526 1.684 . S
H514 C538 0.948 . S
C515 C511 1.397 . S
C515 C516 1.394 1_556 S
C515 C534 1.723 . S
C516 C513 1.396 . S
C516 C515 1.394 1_554 S
C516 C546 1.723 . S
H517 C540 0.947 . S
H518 C541 0.948 . S
H519 C547 0.982 . S
H520 C548 0.979 . S
H521 C548 0.980 1_556 S
H522 C548 0.983 . S
H523 C547 0.979 . S
H524 C547 0.977 1_556 S
C525 C513 1.453 . S
C525 H554 0.982 . S
C525 H555 0.979 . S
C525 H556 0.977 . S
C526 C513 1.684 . S
C526 H551 0.979 . S
C526 H552 0.980 . S
C526 H553 0.983 . S
C527 C528 1.391 . S
C527 C532 1.391 . S
C527 H557 0.948 . S
C528 C527 1.391 . S
C528 C529 1.391 . S
C529 C528 1.391 . S
C529 C530 1.392 . S
C529 H558 0.947 . S
C530 C529 1.392 . S
C530 C531 1.419 . S
C530 H559 0.948 . S
C531 C530 1.419 . S
C531 C532 1.391 . S
C531 C535 1.397 . S
C532 C527 1.391 . S
C532 C531 1.391 . S
C532 C533 1.399 . S
C533 C532 1.399 . S
C533 C534 1.396 . S
C533 C536 1.453 . S
C533 C537 1.684 . S
C534 C515 1.723 . S
C534 C533 1.396 . S
C534 C535 1.394 . S
C535 C531 1.397 . S
C535 C534 1.394 . S
C535 C545 1.723 1_556 S
C536 C533 1.453 . S
C536 H560 0.982 . S
C536 H561 0.979 . S
C536 H562 0.977 . S
C537 C533 1.684 . S
C537 H563 0.979 . S
C537 H564 0.980 . S
C537 H565 0.983 . S
C538 H514 0.948 . S
C538 C539 1.391 . S
C538 C543 1.391 . S
C539 C538 1.391 . S
C539 C540 1.391 . S
C540 H517 0.947 . S
C540 C539 1.391 . S
C540 C541 1.392 . S
C541 H518 0.948 . S
C541 C540 1.392 . S
C541 C542 1.419 . S
C542 C541 1.419 . S
C542 C543 1.391 . S
C542 C546 1.397 . S
C543 C538 1.391 . S
C543 C542 1.391 . S
C543 C544 1.399 . S
C544 C543 1.399 . S
C544 C545 1.396 . S
C544 C547 1.453 . S
C544 C548 1.684 . S
C545 C535 1.723 1_554 S
C545 C544 1.396 . S
C545 C546 1.394 . S
C546 C516 1.723 . S
C546 C542 1.397 . S
C546 C545 1.394 . S
C547 H519 0.982 . S
C547 H523 0.979 . S
C547 H524 0.977 1_554 S
C547 C544 1.453 . S
C548 H520 0.979 . S
C548 H521 0.980 1_554 S
C548 H522 0.983 . S
C548 C544 1.684 . S
H549 C567 0.948 . S
H550 C508 0.948 . S
H551 C526 0.979 . S
H552 C526 0.980 . S
H553 C526 0.983 . S
H554 C525 0.982 . S
H555 C525 0.979 . S
H556 C525 0.977 . S
H557 C527 0.948 . S
H558 C529 0.947 . S
H559 C530 0.948 . S
H560 C536 0.982 . S
H561 C536 0.979 . S
H562 C536 0.977 . S
H563 C537 0.979 . S
H564 C537 0.980 . S
H565 C537 0.983 . S
H566 C510 0.947 . S
C567 C510 1.392 . S
C567 C511 1.419 . S
C567 H549 0.948 . S
C568 C569 1.349 . S
C568 C570 1.327 . S
C568 H593 0.950 . S
C569 C568 1.349 . S
C569 C585 1.349 . S
C570 C568 1.327 . S
C570 C589 1.429 . S
C570 H594 0.950 . S
C571 C588 1.574 . S
C571 C590 1.368 . S
C571 H595 0.949 . S
H572 C576 0.949 . S
C573 C574 1.349 . S
C573 C575 1.327 . S
C573 H596 0.950 . S
C574 C573 1.349 . S
C574 C586 1.349 . S
C575 C573 1.327 . S
C575 C591 1.429 . S
C575 H597 0.950 . S
C576 H572 0.949 . S
C576 C584 1.574 . S
C576 C592 1.368 . S
H577 C585 0.950 . S
H578 C583 0.950 . S
H579 C584 0.949 . S
H580 C586 0.950 . S
H581 C587 0.950 . S
H582 C588 0.949 . S
C583 H578 0.950 . S
C583 C585 1.327 . S
C583 C589 1.429 . S
C584 C576 1.574 . S
C584 H579 0.949 . S
C584 C590 1.368 . S
C585 C569 1.349 . S
C585 H577 0.950 . S
C585 C583 1.327 . S
C586 C574 1.349 . S
C586 H580 0.950 . S
C586 C587 1.327 . S
C587 H581 0.950 . S
C587 C586 1.327 . S
C587 C591 1.429 . S
C588 C571 1.574 . S
C588 H582 0.949 . S
C588 C592 1.368 . S
C589 C570 1.429 . S
C589 C583 1.429 . S
C589 C590 1.523 . S
C590 C571 1.368 . S
C590 C584 1.368 . S
C590 C589 1.523 . S
C591 C575 1.429 . S
C591 C587 1.429 . S
C591 C592 1.523 . S
C592 C576 1.368 . S
C592 C588 1.368 . S
C592 C591 1.523 . S
H593 C568 0.950 . S
H594 C570 0.950 . S
H595 C571 0.949 . S
H596 C573 0.950 . S
H597 C575 0.950 . S
C598 C599 1.349 . S
C598 C600 1.327 . S
C598 H623 0.950 . S
C599 C598 1.349 . S
C599 C615 1.349 . S
C600 C598 1.327 . S
C600 C619 1.429 . S
C600 H624 0.950 . S
C601 C618 1.574 . S
C601 C620 1.368 . S
C601 H625 0.949 . S
H602 C606 0.949 . S
C603 C604 1.349 . S
C603 C605 1.327 . S
C603 H626 0.950 . S
C604 C603 1.349 . S
C604 C616 1.349 . S
C605 C603 1.327 . S
C605 C621 1.429 . S
C605 H627 0.950 . S
C606 H602 0.949 . S
C606 C614 1.574 . S
C606 C622 1.368 . S
H607 C615 0.950 . S
H608 C613 0.950 . S
H609 C614 0.949 . S
H610 C616 0.950 . S
H611 C617 0.950 . S
H612 C618 0.949 . S
C613 H608 0.950 . S
C613 C615 1.327 . S
C613 C619 1.429 . S
C614 C606 1.574 . S
C614 H609 0.949 . S
C614 C620 1.368 . S
C615 C599 1.349 . S
C615 H607 0.950 . S
C615 C613 1.327 . S
C616 C604 1.349 . S
C616 H610 0.950 . S
C616 C617 1.327 . S
C617 H611 0.950 . S
C617 C616 1.327 . S
C617 C621 1.429 . S
C618 C601 1.574 . S
C618 H612 0.949 . S
C618 C622 1.368 . S
C619 C600 1.429 . S
C619 C613 1.429 . S
C619 C620 1.523 . S
C620 C601 1.368 . S
C620 C614 1.368 . S
C620 C619 1.523 . S
C621 C605 1.429 . S
C621 C617 1.429 . S
C621 C622 1.523 . S
C622 C606 1.368 . S
C622 C618 1.368 . S
C622 C621 1.523 . S
H623 C598 0.950 . S
H624 C600 0.950 . S
H625 C601 0.949 . S
H626 C603 0.950 . S
H627 C605 0.950 . S
C628 C629 1.349 . S
C628 C630 1.327 . S
C628 H653 0.950 . S
C629 C628 1.349 . S
C629 C645 1.349 . S
C630 C628 1.327 . S
C630 C649 1.429 . S
C630 H654 0.950 . S
C631 C648 1.574 . S
C631 C650 1.368 . S
C631 H655 0.949 . S
H632 C636 0.949 . S
C633 C634 1.349 . S
C633 C635 1.327 . S
C633 H656 0.950 . S
C634 C633 1.349 . S
C634 C646 1.349 . S
C635 C633 1.327 . S
C635 C651 1.429 . S
C635 H657 0.950 . S
C636 H632 0.949 . S
C636 C644 1.574 . S
C636 C652 1.368 . S
H637 C645 0.950 . S
H638 C643 0.950 . S
H639 C644 0.949 . S
H640 C646 0.950 . S
H641 C647 0.950 . S
H642 C648 0.949 . S
C643 H638 0.950 . S
C643 C645 1.327 . S
C643 C649 1.429 . S
C644 C636 1.574 . S
C644 H639 0.949 . S
C644 C650 1.368 . S
C645 C629 1.349 . S
C645 H637 0.950 . S
C645 C643 1.327 . S
C646 C634 1.349 . S
C646 H640 0.950 . S
C646 C647 1.327 . S
C647 H641 0.950 . S
C647 C646 1.327 . S
C647 C651 1.429 . S
C648 C631 1.574 . S
C648 H642 0.949 . S
C648 C652 1.368 . S
C649 C630 1.429 . S
C649 C643 1.429 . S
C649 C650 1.523 . S
C650 C631 1.368 . S
C650 C644 1.368 . S
C650 C649 1.523 . S
C651 C635 1.429 . S
C651 C647 1.429 . S
C651 C652 1.523 . S
C652 C636 1.368 . S
C652 C648 1.368 . S
C652 C651 1.523 . S
H653 C628 0.950 . S
H654 C630 0.950 . S
H655 C631 0.949 . S
H656 C633 0.950 . S
H657 C635 0.950 . S
C658 C659 1.349 . S
C658 C660 1.327 . S
C658 H683 0.950 . S
C659 C658 1.349 . S
C659 C675 1.349 . S
C660 C658 1.327 . S
C660 C679 1.429 . S
C660 H684 0.950 . S
C661 C678 1.574 . S
C661 C680 1.368 . S
C661 H685 0.949 . S
H662 C666 0.949 . S
C663 C664 1.349 . S
C663 C665 1.327 . S
C663 H686 0.950 . S
C664 C663 1.349 . S
C664 C676 1.349 . S
C665 C663 1.327 . S
C665 C681 1.429 . S
C665 H687 0.950 . S
C666 H662 0.949 . S
C666 C674 1.574 . S
C666 C682 1.368 . S
H667 C675 0.950 . S
H668 C673 0.950 . S
H669 C674 0.949 . S
H670 C676 0.950 . S
H671 C677 0.950 . S
H672 C678 0.949 . S
C673 H668 0.950 . S
C673 C675 1.327 . S
C673 C679 1.429 . S
C674 C666 1.574 . S
C674 H669 0.949 . S
C674 C680 1.368 . S
C675 C659 1.349 . S
C675 H667 0.950 . S
C675 C673 1.327 . S
C676 C664 1.349 . S
C676 H670 0.950 . S
C676 C677 1.327 . S
C677 H671 0.950 . S
C677 C676 1.327 . S
C677 C681 1.429 . S
C678 C661 1.574 . S
C678 H672 0.949 . S
C678 C682 1.368 . S
C679 C660 1.429 . S
C679 C673 1.429 . S
C679 C680 1.523 . S
C680 C661 1.368 . S
C680 C674 1.368 . S
C680 C679 1.523 . S
C681 C665 1.429 . S
C681 C677 1.429 . S
C681 C682 1.523 . S
C682 C666 1.368 . S
C682 C678 1.368 . S
C682 C681 1.523 . S
H683 C658 0.950 . S
H684 C660 0.950 . S
H685 C661 0.949 . S
H686 C663 0.950 . S
H687 C665 0.950 . S
C688 C689 1.349 . S
C688 C690 1.327 . S
C688 H713 0.950 . S
C689 C688 1.349 . S
C689 C705 1.349 . S
C690 C688 1.327 . S
C690 C709 1.429 . S
C690 H714 0.950 . S
C691 C708 1.574 . S
C691 C710 1.368 . S
C691 H715 0.949 . S
H692 C696 0.949 . S
C693 C694 1.349 . S
C693 C695 1.327 . S
C693 H716 0.950 . S
C694 C693 1.349 . S
C694 C706 1.349 . S
C695 C693 1.327 . S
C695 C711 1.429 . S
C695 H717 0.950 . S
C696 H692 0.949 . S
C696 C704 1.574 . S
C696 C712 1.368 . S
H697 C705 0.950 . S
H698 C703 0.950 . S
H699 C704 0.949 . S
H700 C706 0.950 . S
H701 C707 0.950 . S
H702 C708 0.949 . S
C703 H698 0.950 . S
C703 C705 1.327 . S
C703 C709 1.429 . S
C704 C696 1.574 . S
C704 H699 0.949 . S
C704 C710 1.368 . S
C705 C689 1.349 . S
C705 H697 0.950 . S
C705 C703 1.327 . S
C706 C694 1.349 . S
C706 H700 0.950 . S
C706 C707 1.327 . S
C707 H701 0.950 . S
C707 C706 1.327 . S
C707 C711 1.429 . S
C708 C691 1.574 . S
C708 H702 0.949 . S
C708 C712 1.368 . S
C709 C690 1.429 . S
C709 C703 1.429 . S
C709 C710 1.523 . S
C710 C691 1.368 . S
C710 C704 1.368 . S
C710 C709 1.523 . S
C711 C695 1.429 . S
C711 C707 1.429 . S
C711 C712 1.523 . S
C712 C696 1.368 . S
C712 C708 1.368 . S
C712 C711 1.523 . S
H713 C688 0.950 . S
H714 C690 0.950 . S
H715 C691 0.949 . S
H716 C693 0.950 . S
H717 C695 0.950 . S
C718 C719 1.349 . S
C718 C720 1.327 . S
C718 H743 0.950 . S
C719 C718 1.349 . S
C719 C735 1.349 . S
C720 C718 1.327 . S
C720 C739 1.429 . S
C720 H744 0.950 . S
C721 C738 1.574 . S
C721 C740 1.368 . S
C721 H745 0.949 . S
H722 C726 0.949 . S
C723 C724 1.349 . S
C723 C725 1.327 . S
C723 H746 0.950 . S
C724 C723 1.349 . S
C724 C736 1.349 . S
C725 C723 1.327 . S
C725 C741 1.429 . S
C725 H747 0.950 . S
C726 H722 0.949 . S
C726 C734 1.574 . S
C726 C742 1.368 . S
H727 C735 0.950 . S
H728 C733 0.950 . S
H729 C734 0.949 . S
H730 C736 0.950 . S
H731 C737 0.950 . S
H732 C738 0.949 . S
C733 H728 0.950 . S
C733 C735 1.327 . S
C733 C739 1.429 . S
C734 C726 1.574 . S
C734 H729 0.949 . S
C734 C740 1.368 . S
C735 C719 1.349 . S
C735 H727 0.950 . S
C735 C733 1.327 . S
C736 C724 1.349 . S
C736 H730 0.950 . S
C736 C737 1.327 . S
C737 H731 0.950 . S
C737 C736 1.327 . S
C737 C741 1.429 . S
C738 C721 1.574 . S
C738 H732 0.949 . S
C738 C742 1.368 . S
C739 C720 1.429 . S
C739 C733 1.429 . S
C739 C740 1.523 . S
C740 C721 1.368 . S
C740 C734 1.368 . S
C740 C739 1.523 . S
C741 C725 1.429 . S
C741 C737 1.429 . S
C741 C742 1.523 . S
C742 C726 1.368 . S
C742 C738 1.368 . S
C742 C741 1.523 . S
H743 C718 0.950 . S
H744 C720 0.950 . S
H745 C721 0.949 . S
H746 C723 0.950 . S
H747 C725 0.950 . S
C748 C749 1.349 . S
C748 C750 1.327 . S
C748 H773 0.950 . S
C749 C748 1.349 . S
C749 C765 1.349 . S
C750 C748 1.327 . S
C750 C769 1.429 . S
C750 H774 0.950 . S
C751 C768 1.574 . S
C751 C770 1.368 . S
C751 H775 0.949 . S
H752 C756 0.949 . S
C753 C754 1.349 . S
C753 C755 1.327 . S
C753 H776 0.950 . S
C754 C753 1.349 . S
C754 C766 1.349 . S
C755 C753 1.327 . S
C755 C771 1.429 . S
C755 H777 0.950 . S
C756 H752 0.949 . S
C756 C764 1.574 . S
C756 C772 1.368 . S
H757 C765 0.950 . S
H758 C763 0.950 . S
H759 C764 0.949 . S
H760 C766 0.950 . S
H761 C767 0.950 . S
H762 C768 0.949 . S
C763 H758 0.950 . S
C763 C765 1.327 . S
C763 C769 1.429 . S
C764 C756 1.574 . S
C764 H759 0.949 . S
C764 C770 1.368 . S
C765 C749 1.349 . S
C765 H757 0.950 . S
C765 C763 1.327 . S
C766 C754 1.349 . S
C766 H760 0.950 . S
C766 C767 1.327 . S
C767 H761 0.950 . S
C767 C766 1.327 . S
C767 C771 1.429 . S
C768 C751 1.574 . S
C768 H762 0.949 . S
C768 C772 1.368 . S
C769 C750 1.429 . S
C769 C763 1.429 . S
C769 C770 1.523 . S
C770 C751 1.368 . S
C770 C764 1.368 . S
C770 C769 1.523 . S
C771 C755 1.429 . S
C771 C767 1.429 . S
C771 C772 1.523 . S
C772 C756 1.368 . S
C772 C768 1.368 . S
C772 C771 1.523 . S
H773 C748 0.950 . S
H774 C750 0.950 . S
H775 C751 0.949 . S
H776 C753 0.950 . S
H777 C755 0.950 . S
C778 C779 1.349 . S
C778 C780 1.327 . S
C778 H803 0.950 . S
C779 C778 1.349 . S
C779 C795 1.349 . S
C780 C778 1.327 . S
C780 C799 1.429 . S
C780 H804 0.950 . S
C781 C798 1.574 . S
C781 C800 1.368 . S
C781 H805 0.949 . S
H782 C786 0.949 . S
C783 C784 1.349 . S
C783 C785 1.327 . S
C783 H806 0.950 . S
C784 C783 1.349 . S
C784 C796 1.349 . S
C785 C783 1.327 . S
C785 C801 1.429 . S
C785 H807 0.950 . S
C786 H782 0.949 . S
C786 C794 1.574 . S
C786 C802 1.368 . S
H787 C795 0.950 . S
H788 C793 0.950 . S
H789 C794 0.949 . S
H790 C796 0.950 . S
H791 C797 0.950 . S
H792 C798 0.949 . S
C793 H788 0.950 . S
C793 C795 1.327 . S
C793 C799 1.429 . S
C794 C786 1.574 . S
C794 H789 0.949 . S
C794 C800 1.368 . S
C795 C779 1.349 . S
C795 H787 0.950 . S
C795 C793 1.327 . S
C796 C784 1.349 . S
C796 H790 0.950 . S
C796 C797 1.327 . S
C797 H791 0.950 . S
C797 C796 1.327 . S
C797 C801 1.429 . S
C798 C781 1.574 . S
C798 H792 0.949 . S
C798 C802 1.368 . S
C799 C780 1.429 . S
C799 C793 1.429 . S
C799 C800 1.523 . S
C800 C781 1.368 . S
C800 C794 1.368 . S
C800 C799 1.523 . S
C801 C785 1.429 . S
C801 C797 1.429 . S
C801 C802 1.523 . S
C802 C786 1.368 . S
C802 C798 1.368 . S
C802 C801 1.523 . S
H803 C778 0.950 . S
H804 C780 0.950 . S
H805 C781 0.949 . S
H806 C783 0.950 . S
H807 C785 0.950 . S
C808 C809 1.349 . S
C808 C810 1.327 . S
C808 H833 0.950 . S
C809 C808 1.349 . S
C809 C825 1.349 . S
C810 C808 1.327 . S
C810 C829 1.429 . S
C810 H834 0.950 . S
C811 C828 1.574 . S
C811 C830 1.368 . S
C811 H835 0.949 . S
H812 C816 0.949 . S
C813 C814 1.349 . S
C813 C815 1.327 . S
C813 H836 0.950 . S
C814 C813 1.349 . S
C814 C826 1.349 . S
C815 C813 1.327 . S
C815 C831 1.429 . S
C815 H837 0.950 . S
C816 H812 0.949 . S
C816 C824 1.574 . S
C816 C832 1.368 . S
H817 C825 0.950 . S
H818 C823 0.950 . S
H819 C824 0.949 . S
H820 C826 0.950 . S
H821 C827 0.950 . S
H822 C828 0.949 . S
C823 H818 0.950 . S
C823 C825 1.327 . S
C823 C829 1.429 . S
C824 C816 1.574 . S
C824 H819 0.949 . S
C824 C830 1.368 . S
C825 C809 1.349 . S
C825 H817 0.950 . S
C825 C823 1.327 . S
C826 C814 1.349 . S
C826 H820 0.950 . S
C826 C827 1.327 . S
C827 H821 0.950 . S
C827 C826 1.327 . S
C827 C831 1.429 . S
C828 C811 1.574 . S
C828 H822 0.949 . S
C828 C832 1.368 . S
C829 C810 1.429 . S
C829 C823 1.429 . S
C829 C830 1.523 . S
C830 C811 1.368 . S
C830 C824 1.368 . S
C830 C829 1.523 . S
C831 C815 1.429 . S
C831 C827 1.429 . S
C831 C832 1.523 . S
C832 C816 1.368 . S
C832 C828 1.368 . S
C832 C831 1.523 . S
H833 C808 0.950 . S
H834 C810 0.950 . S
H835 C811 0.949 . S
H836 C813 0.950 . S
H837 C815 0.950 . S
C838 C839 1.349 . S
C838 C840 1.327 . S
C838 H863 0.950 . S
C839 C838 1.349 . S
C839 C855 1.349 . S
C840 C838 1.327 . S
C840 C859 1.429 . S
C840 H864 0.950 . S
C841 C858 1.574 . S
C841 C860 1.368 . S
C841 H865 0.949 . S
H842 C846 0.949 . S
C843 C844 1.349 . S
C843 C845 1.327 . S
C843 H866 0.950 . S
C844 C843 1.349 . S
C844 C856 1.349 . S
C845 C843 1.327 . S
C845 C861 1.429 . S
C845 H867 0.950 . S
C846 H842 0.949 . S
C846 C854 1.574 . S
C846 C862 1.368 . S
H847 C855 0.950 . S
H848 C853 0.950 . S
H849 C854 0.949 . S
H850 C856 0.950 . S
H851 C857 0.950 . S
H852 C858 0.949 . S
C853 H848 0.950 . S
C853 C855 1.327 . S
C853 C859 1.429 . S
C854 C846 1.574 . S
C854 H849 0.949 . S
C854 C860 1.368 . S
C855 C839 1.349 . S
C855 H847 0.950 . S
C855 C853 1.327 . S
C856 C844 1.349 . S
C856 H850 0.950 . S
C856 C857 1.327 . S
C857 H851 0.950 . S
C857 C856 1.327 . S
C857 C861 1.429 . S
C858 C841 1.574 . S
C858 H852 0.949 . S
C858 C862 1.368 . S
C859 C840 1.429 . S
C859 C853 1.429 . S
C859 C860 1.523 . S
C860 C841 1.368 . S
C860 C854 1.368 . S
C860 C859 1.523 . S
C861 C845 1.429 . S
C861 C857 1.429 . S
C861 C862 1.523 . S
C862 C846 1.368 . S
C862 C858 1.368 . S
C862 C861 1.523 . S
H863 C838 0.950 . S
H864 C840 0.950 . S
H865 C841 0.949 . S
H866 C843 0.950 . S
H867 C845 0.950 . S
C868 C869 1.349 . S
C868 C870 1.327 . S
C868 H893 0.950 . S
C869 C868 1.349 . S
C869 C885 1.349 . S
C870 C868 1.327 . S
C870 C889 1.429 . S
C870 H894 0.950 . S
C871 C888 1.574 . S
C871 C890 1.368 . S
C871 H895 0.949 . S
H872 C876 0.949 . S
C873 C874 1.349 . S
C873 C875 1.327 . S
C873 H896 0.950 . S
C874 C873 1.349 . S
C874 C886 1.349 . S
C875 C873 1.327 . S
C875 C891 1.429 . S
C875 H897 0.950 . S
C876 H872 0.949 . S
C876 C884 1.574 . S
C876 C892 1.368 . S
H877 C885 0.950 . S
H878 C883 0.950 . S
H879 C884 0.949 . S
H880 C886 0.950 . S
H881 C887 0.950 . S
H882 C888 0.949 . S
C883 H878 0.950 . S
C883 C885 1.327 . S
C883 C889 1.429 . S
C884 C876 1.574 . S
C884 H879 0.949 . S
C884 C890 1.368 . S
C885 C869 1.349 . S
C885 H877 0.950 . S
C885 C883 1.327 . S
C886 C874 1.349 . S
C886 H880 0.950 . S
C886 C887 1.327 . S
C887 H881 0.950 . S
C887 C886 1.327 . S
C887 C891 1.429 . S
C888 C871 1.574 . S
C888 H882 0.949 . S
C888 C892 1.368 . S
C889 C870 1.429 . S
C889 C883 1.429 . S
C889 C890 1.523 . S
C890 C871 1.368 . S
C890 C884 1.368 . S
C890 C889 1.523 . S
C891 C875 1.429 . S
C891 C887 1.429 . S
C891 C892 1.523 . S
C892 C876 1.368 . S
C892 C888 1.368 . S
C892 C891 1.523 . S
H893 C868 0.950 . S
H894 C870 0.950 . S
H895 C871 0.949 . S
H896 C873 0.950 . S
H897 C875 0.950 . S
C898 C899 1.349 . S
C898 C900 1.327 . S
C898 H923 0.950 . S
C899 C898 1.349 . S
C899 C915 1.349 . S
C900 C898 1.327 . S
C900 C919 1.429 . S
C900 H924 0.950 . S
C901 C918 1.574 . S
C901 C920 1.368 . S
C901 H925 0.949 . S
H902 C906 0.949 . S
C903 C904 1.349 . S
C903 C905 1.327 . S
C903 H926 0.950 . S
C904 C903 1.349 . S
C904 C916 1.349 . S
C905 C903 1.327 . S
C905 C921 1.429 . S
C905 H927 0.950 . S
C906 H902 0.949 . S
C906 C914 1.574 . S
C906 C922 1.368 . S
H907 C915 0.950 . S
H908 C913 0.950 . S
H909 C914 0.949 . S
H910 C916 0.950 . S
H911 C917 0.950 . S
H912 C918 0.949 . S
C913 H908 0.950 . S
C913 C915 1.327 . S
C913 C919 1.429 . S
C914 C906 1.574 . S
C914 H909 0.949 . S
C914 C920 1.368 . S
C915 C899 1.349 . S
C915 H907 0.950 . S
C915 C913 1.327 . S
C916 C904 1.349 . S
C916 H910 0.950 . S
C916 C917 1.327 . S
C917 H911 0.950 . S
C917 C916 1.327 . S
C917 C921 1.429 . S
C918 C901 1.574 . S
C918 H912 0.949 . S
C918 C922 1.368 . S
C919 C900 1.429 . S
C919 C913 1.429 . S
C919 C920 1.523 . S
C920 C901 1.368 . S
C920 C914 1.368 . S
C920 C919 1.523 . S
C921 C905 1.429 . S
C921 C917 1.429 . S
C921 C922 1.523 . S
C922 C906 1.368 . S
C922 C918 1.368 . S
C922 C921 1.523 . S
H923 C898 0.950 . S
H924 C900 0.950 . S
H925 C901 0.949 . S
H926 C903 0.950 . S
H927 C905 0.950 . S
C928 C929 1.349 . S
C928 C930 1.327 . S
C928 H953 0.950 . S
C929 C928 1.349 . S
C929 C945 1.349 . S
C930 C928 1.327 . S
C930 C949 1.429 . S
C930 H954 0.950 . S
C931 C948 1.574 . S
C931 C950 1.368 . S
C931 H955 0.949 . S
H932 C936 0.949 . S
C933 C934 1.349 . S
C933 C935 1.327 . S
C933 H956 0.950 . S
C934 C933 1.349 . S
C934 C946 1.349 . S
C935 C933 1.327 . S
C935 C951 1.429 . S
C935 H957 0.950 . S
C936 H932 0.949 . S
C936 C944 1.574 . S
C936 C952 1.368 . S
H937 C945 0.950 . S
H938 C943 0.950 . S
H939 C944 0.949 . S
H940 C946 0.950 . S
H941 C947 0.950 . S
H942 C948 0.949 . S
C943 H938 0.950 . S
C943 C945 1.327 . S
C943 C949 1.429 . S
C944 C936 1.574 . S
C944 H939 0.949 . S
C944 C950 1.368 . S
C945 C929 1.349 . S
C945 H937 0.950 . S
C945 C943 1.327 . S
C946 C934 1.349 . S
C946 H940 0.950 . S
C946 C947 1.327 . S
C947 H941 0.950 . S
C947 C946 1.327 . S
C947 C951 1.429 . S
C948 C931 1.574 . S
C948 H942 0.949 . S
C948 C952 1.368 . S
C949 C930 1.429 . S
C949 C943 1.429 . S
C949 C950 1.523 . S
C950 C931 1.368 . S
C950 C944 1.368 . S
C950 C949 1.523 . S
C951 C935 1.429 . S
C951 C947 1.429 . S
C951 C952 1.523 . S
C952 C936 1.368 . S
C952 C948 1.368 . S
C952 C951 1.523 . S
H953 C928 0.950 . S
H954 C930 0.950 . S
H955 C931 0.949 . S
H956 C933 0.950 . S
H957 C935 0.950 . S
C958 C959 1.349 . S
C958 C960 1.327 . S
C958 H983 0.950 . S
C959 C958 1.349 . S
C959 C975 1.349 . S
C960 C958 1.327 . S
C960 C979 1.429 . S
C960 H984 0.950 . S
C961 C978 1.574 . S
C961 C980 1.368 . S
C961 H985 0.949 . S
H962 C966 0.949 . S
C963 C964 1.349 . S
C963 C965 1.327 . S
C963 H986 0.950 . S
C964 C963 1.349 . S
C964 C976 1.349 . S
C965 C963 1.327 . S
C965 C981 1.429 . S
C965 H987 0.950 . S
C966 H962 0.949 . S
C966 C974 1.574 . S
C966 C982 1.368 . S
H967 C975 0.950 . S
H968 C973 0.950 . S
H969 C974 0.949 . S
H970 C976 0.950 . S
H971 C977 0.950 . S
H972 C978 0.949 . S
C973 H968 0.950 . S
C973 C975 1.327 . S
C973 C979 1.429 . S
C974 C966 1.574 . S
C974 H969 0.949 . S
C974 C980 1.368 . S
C975 C959 1.349 . S
C975 H967 0.950 . S
C975 C973 1.327 . S
C976 C964 1.349 . S
C976 H970 0.950 . S
C976 C977 1.327 . S
C977 H971 0.950 . S
C977 C976 1.327 . S
C977 C981 1.429 . S
C978 C961 1.574 . S
C978 H972 0.949 . S
C978 C982 1.368 . S
C979 C960 1.429 . S
C979 C973 1.429 . S
C979 C980 1.523 . S
C980 C961 1.368 . S
C980 C974 1.368 . S
C980 C979 1.523 . S
C981 C965 1.429 . S
C981 C977 1.429 . S
C981 C982 1.523 . S
C982 C966 1.368 . S
C982 C978 1.368 . S
C982 C981 1.523 . S
H983 C958 0.950 . S
H984 C960 0.950 . S
H985 C961 0.949 . S
H986 C963 0.950 . S
H987 C965 0.950 . S
C988 C989 1.349 . S
C988 C990 1.327 . S
C988 H1013 0.950 . S
C989 C988 1.349 . S
C989 C1005 1.349 . S
C990 C988 1.327 . S
C990 C1009 1.429 . S
C990 H1014 0.950 . S
C991 C1008 1.574 . S
C991 C1010 1.368 . S
C991 H1015 0.949 . S
H992 C996 0.949 . S
C993 C994 1.349 . S
C993 C995 1.327 . S
C993 H1016 0.950 . S
C994 C993 1.349 . S
C994 C1006 1.349 . S
C995 C993 1.327 . S
C995 C1011 1.429 . S
C995 H1017 0.950 . S
C996 H992 0.949 . S
C996 C1004 1.574 . S
C996 C1012 1.368 . S
H997 C1005 0.950 . S
H998 C1003 0.950 . S
H999 C1004 0.949 . S
H1000 C1006 0.950 . S
H1001 C1007 0.950 . S
H1002 C1008 0.949 . S
C1003 H998 0.950 . S
C1003 C1005 1.327 . S
C1003 C1009 1.429 . S
C1004 C996 1.574 . S
C1004 H999 0.949 . S
C1004 C1010 1.368 . S
C1005 C989 1.349 . S
C1005 H997 0.950 . S
C1005 C1003 1.327 . S
C1006 C994 1.349 . S
C1006 H1000 0.950 . S
C1006 C1007 1.327 . S
C1007 H1001 0.950 . S
C1007 C1006 1.327 . S
C1007 C1011 1.429 . S
C1008 C991 1.574 . S
C1008 H1002 0.949 . S
C1008 C1012 1.368 . S
C1009 C990 1.429 . S
C1009 C1003 1.429 . S
C1009 C1010 1.523 . S
C1010 C991 1.368 . S
C1010 C1004 1.368 . S
C1010 C1009 1.523 . S
C1011 C995 1.429 . S
C1011 C1007 1.429 . S
C1011 C1012 1.523 . S
C1012 C996 1.368 . S
C1012 C1008 1.368 . S
C1012 C1011 1.523 . S
H1013 C988 0.950 . S
H1014 C990 0.950 . S
H1015 C991 0.949 . S
H1016 C993 0.950 . S
H1017 C995 0.950 . S
C1018 C1019 1.349 . S
C1018 C1020 1.327 . S
C1018 H1043 0.950 . S
C1019 C1018 1.349 . S
C1019 C1035 1.349 . S
C1020 C1018 1.327 . S
C1020 C1039 1.429 . S
C1020 H1044 0.950 . S
C1021 C1038 1.574 . S
C1021 C1040 1.368 . S
C1021 H1045 0.949 . S
H1022 C1026 0.949 . S
C1023 C1024 1.349 . S
C1023 C1025 1.327 . S
C1023 H1046 0.950 . S
C1024 C1023 1.349 . S
C1024 C1036 1.349 . S
C1025 C1023 1.327 . S
C1025 C1041 1.429 . S
C1025 H1047 0.950 . S
C1026 H1022 0.949 . S
C1026 C1034 1.574 . S
C1026 C1042 1.368 . S
H1027 C1035 0.950 . S
H1028 C1033 0.950 . S
H1029 C1034 0.949 . S
H1030 C1036 0.950 . S
H1031 C1037 0.950 . S
H1032 C1038 0.949 . S
C1033 H1028 0.950 . S
C1033 C1035 1.327 . S
C1033 C1039 1.429 . S
C1034 C1026 1.574 . S
C1034 H1029 0.949 . S
C1034 C1040 1.368 . S
C1035 C1019 1.349 . S
C1035 H1027 0.950 . S
C1035 C1033 1.327 . S
C1036 C1024 1.349 . S
C1036 H1030 0.950 . S
C1036 C1037 1.327 . S
C1037 H1031 0.950 . S
C1037 C1036 1.327 . S
C1037 C1041 1.429 . S
C1038 C1021 1.574 . S
C1038 H1032 0.949 . S
C1038 C1042 1.368 . S
C1039 C1020 1.429 . S
C1039 C1033 1.429 . S
C1039 C1040 1.523 . S
C1040 C1021 1.368 . S
C1040 C1034 1.368 . S
C1040 C1039 1.523 . S
C1041 C1025 1.429 . S
C1041 C1037 1.429 . S
C1041 C1042 1.523 . S
C1042 C1026 1.368 . S
C1042 C1038 1.368 . S
C1042 C1041 1.523 . S
H1043 C1018 0.950 . S
H1044 C1020 0.950 . S
H1045 C1021 0.949 . S
H1046 C1023 0.950 . S
H1047 C1025 0.950 . S
C1048 C1049 1.349 . S
C1048 C1050 1.327 . S
C1048 H1073 0.950 . S
C1049 C1048 1.349 . S
C1049 C1065 1.349 1_554 S
C1050 C1048 1.327 . S
C1050 C1069 1.429 . S
C1050 H1074 0.950 . S
C1051 C1068 1.574 . S
C1051 C1070 1.368 1_556 S
C1051 H1075 0.949 . S
H1052 C1056 0.949 . S
C1053 C1054 1.349 1_556 S
C1053 C1055 1.327 . S
C1053 H1076 0.950 . S
C1054 C1053 1.349 1_554 S
C1054 C1066 1.349 . S
C1055 C1053 1.327 . S
C1055 C1071 1.429 1_556 S
C1055 H1077 0.950 . S
C1056 H1052 0.949 . S
C1056 C1064 1.574 . S
C1056 C1072 1.368 . S
H1057 C1065 0.950 . S
H1058 C1063 0.950 . S
H1059 C1064 0.949 . S
H1060 C1066 0.950 . S
H1061 C1067 0.950 . S
H1062 C1068 0.949 . S
C1063 H1058 0.950 . S
C1063 C1065 1.327 . S
C1063 C1069 1.429 1_556 S
C1064 C1056 1.574 . S
C1064 H1059 0.949 . S
C1064 C1070 1.368 . S
C1065 C1049 1.349 1_556 S
C1065 H1057 0.950 . S
C1065 C1063 1.327 . S
C1066 C1054 1.349 . S
C1066 H1060 0.950 . S
C1066 C1067 1.327 . S
C1067 H1061 0.950 . S
C1067 C1066 1.327 . S
C1067 C1071 1.429 . S
C1068 C1051 1.574 . S
C1068 H1062 0.949 . S
C1068 C1072 1.368 1_556 S
C1069 C1050 1.429 . S
C1069 C1063 1.429 1_554 S
C1069 C1070 1.523 . S
C1070 C1051 1.368 1_554 S
C1070 C1064 1.368 . S
C1070 C1069 1.523 . S
C1071 C1055 1.429 1_554 S
C1071 C1067 1.429 . S
C1071 C1072 1.523 . S
C1072 C1056 1.368 . S
C1072 C1068 1.368 1_554 S
C1072 C1071 1.523 . S
H1073 C1048 0.950 . S
H1074 C1050 0.950 . S
H1075 C1051 0.949 . S
H1076 C1053 0.950 . S
H1077 C1055 0.950 . S
C1078 C1079 1.349 . S
C1078 C1080 1.327 . S
C1078 H1103 0.950 . S
C1079 C1078 1.349 . S
C1079 C1095 1.349 . S
C1080 C1078 1.327 . S
C1080 C1099 1.429 . S
C1080 H1104 0.950 . S
C1081 C1098 1.574 . S
C1081 C1100 1.368 . S
C1081 H1105 0.949 . S
H1082 C1086 0.949 . S
C1083 C1084 1.349 . S
C1083 C1085 1.327 . S
C1083 H1106 0.950 . S
C1084 C1083 1.349 . S
C1084 C1096 1.349 . S
C1085 C1083 1.327 . S
C1085 C1101 1.429 . S
C1085 H1107 0.950 . S
C1086 H1082 0.949 . S
C1086 C1094 1.574 . S
C1086 C1102 1.368 . S
H1087 C1095 0.950 . S
H1088 C1093 0.950 . S
H1089 C1094 0.949 . S
H1090 C1096 0.950 . S
H1091 C1097 0.950 . S
H1092 C1098 0.949 . S
C1093 H1088 0.950 . S
C1093 C1095 1.327 . S
C1093 C1099 1.429 . S
C1094 C1086 1.574 . S
C1094 H1089 0.949 . S
C1094 C1100 1.368 . S
C1095 C1079 1.349 . S
C1095 H1087 0.950 . S
C1095 C1093 1.327 . S
C1096 C1084 1.349 . S
C1096 H1090 0.950 . S
C1096 C1097 1.327 . S
C1097 H1091 0.950 . S
C1097 C1096 1.327 . S
C1097 C1101 1.429 . S
C1098 C1081 1.574 . S
C1098 H1092 0.949 . S
C1098 C1102 1.368 . S
C1099 C1080 1.429 . S
C1099 C1093 1.429 . S
C1099 C1100 1.523 . S
C1100 C1081 1.368 . S
C1100 C1094 1.368 . S
C1100 C1099 1.523 . S
C1101 C1085 1.429 . S
C1101 C1097 1.429 . S
C1101 C1102 1.523 . S
C1102 C1086 1.368 . S
C1102 C1098 1.368 . S
C1102 C1101 1.523 . S
H1103 C1078 0.950 . S
H1104 C1080 0.950 . S
H1105 C1081 0.949 . S
H1106 C1083 0.950 . S
H1107 C1085 0.950 . S
C1108 C1109 1.349 . S
C1108 C1110 1.327 . S
C1108 H1133 0.950 . S
C1109 C1108 1.349 . S
C1109 C1125 1.349 1_554 S
C1110 C1108 1.327 . S
C1110 C1129 1.429 . S
C1110 H1134 0.950 . S
C1111 C1128 1.574 . S
C1111 C1130 1.368 1_556 S
C1111 H1135 0.949 . S
H1112 C1116 0.949 . S
C1113 C1114 1.349 1_556 S
C1113 C1115 1.327 . S
C1113 H1136 0.950 . S
C1114 C1113 1.349 1_554 S
C1114 C1126 1.349 . S
C1115 C1113 1.327 . S
C1115 C1131 1.429 1_556 S
C1115 H1137 0.950 . S
C1116 H1112 0.949 . S
C1116 C1124 1.574 . S
C1116 C1132 1.368 . S
H1117 C1125 0.950 . S
H1118 C1123 0.950 . S
H1119 C1124 0.949 . S
H1120 C1126 0.950 . S
H1121 C1127 0.950 . S
H1122 C1128 0.949 . S
C1123 H1118 0.950 . S
C1123 C1125 1.327 . S
C1123 C1129 1.429 1_556 S
C1124 C1116 1.574 . S
C1124 H1119 0.949 . S
C1124 C1130 1.368 . S
C1125 C1109 1.349 1_556 S
C1125 H1117 0.950 . S
C1125 C1123 1.327 . S
C1126 C1114 1.349 . S
C1126 H1120 0.950 . S
C1126 C1127 1.327 . S
C1127 H1121 0.950 . S
C1127 C1126 1.327 . S
C1127 C1131 1.429 . S
C1128 C1111 1.574 . S
C1128 H1122 0.949 . S
C1128 C1132 1.368 1_556 S
C1129 C1110 1.429 . S
C1129 C1123 1.429 1_554 S
C1129 C1130 1.523 . S
C1130 C1111 1.368 1_554 S
C1130 C1124 1.368 . S
C1130 C1129 1.523 . S
C1131 C1115 1.429 1_554 S
C1131 C1127 1.429 . S
C1131 C1132 1.523 . S
C1132 C1116 1.368 . S
C1132 C1128 1.368 1_554 S
C1132 C1131 1.523 . S
H1133 C1108 0.950 . S
H1134 C1110 0.950 . S
H1135 C1111 0.949 . S
H1136 C1113 0.950 . S
H1137 C1115 0.950 . S
C1138 C1139 1.349 . S
C1138 C1140 1.327 . S
C1138 H1163 0.950 . S
C1139 C1138 1.349 . S
C1139 C1155 1.349 . S
C1140 C1138 1.327 . S
C1140 C1159 1.429 . S
C1140 H1164 0.950 . S
C1141 C1158 1.574 . S
C1141 C1160 1.368 . S
C1141 H1165 0.949 . S
H1142 C1146 0.949 . S
C1143 C1144 1.349 . S
C1143 C1145 1.327 . S
C1143 H1166 0.950 . S
C1144 C1143 1.349 . S
C1144 C1156 1.349 . S
C1145 C1143 1.327 . S
C1145 C1161 1.429 . S
C1145 H1167 0.950 . S
C1146 H1142 0.949 . S
C1146 C1154 1.574 . S
C1146 C1162 1.368 . S
H1147 C1155 0.950 . S
H1148 C1153 0.950 . S
H1149 C1154 0.949 . S
H1150 C1156 0.950 . S
H1151 C1157 0.950 . S
H1152 C1158 0.949 . S
C1153 H1148 0.950 . S
C1153 C1155 1.327 . S
C1153 C1159 1.429 . S
C1154 C1146 1.574 . S
C1154 H1149 0.949 . S
C1154 C1160 1.368 . S
C1155 C1139 1.349 . S
C1155 H1147 0.950 . S
C1155 C1153 1.327 . S
C1156 C1144 1.349 . S
C1156 H1150 0.950 . S
C1156 C1157 1.327 . S
C1157 H1151 0.950 . S
C1157 C1156 1.327 . S
C1157 C1161 1.429 . S
C1158 C1141 1.574 . S
C1158 H1152 0.949 . S
C1158 C1162 1.368 . S
C1159 C1140 1.429 . S
C1159 C1153 1.429 . S
C1159 C1160 1.523 . S
C1160 C1141 1.368 . S
C1160 C1154 1.368 . S
C1160 C1159 1.523 . S
C1161 C1145 1.429 . S
C1161 C1157 1.429 . S
C1161 C1162 1.523 . S
C1162 C1146 1.368 . S
C1162 C1158 1.368 . S
C1162 C1161 1.523 . S
H1163 C1138 0.950 . S
H1164 C1140 0.950 . S
H1165 C1141 0.949 . S
H1166 C1143 0.950 . S
H1167 C1145 0.950 . S
C1168 C1169 1.349 . S
C1168 C1170 1.327 . S
C1168 H1193 0.950 . S
C1169 C1168 1.349 . S
C1169 C1185 1.349 . S
C1170 C1168 1.327 . S
C1170 C1189 1.429 . S
C1170 H1194 0.950 . S
C1171 C1188 1.574 . S
C1171 C1190 1.368 . S
C1171 H1195 0.949 . S
H1172 C1176 0.949 . S
C1173 C1174 1.349 . S
C1173 C1175 1.327 . S
C1173 H1196 0.950 . S
C1174 C1173 1.349 . S
C1174 C1186 1.349 . S
C1175 C1173 1.327 . S
C1175 C1191 1.429 . S
C1175 H1197 0.950 . S
C1176 H1172 0.949 . S
C1176 C1184 1.574 . S
C1176 C1192 1.368 . S
H1177 C1185 0.950 . S
H1178 C1183 0.950 . S
H1179 C1184 0.949 . S
H1180 C1186 0.950 . S
H1181 C1187 0.950 . S
H1182 C1188 0.949 . S
C1183 H1178 0.950 . S
C1183 C1185 1.327 . S
C1183 C1189 1.429 . S
C1184 C1176 1.574 . S
C1184 H1179 0.949 . S
C1184 C1190 1.368 . S
C1185 C1169 1.349 . S
C1185 H1177 0.950 . S
C1185 C1183 1.327 . S
C1186 C1174 1.349 . S
C1186 H1180 0.950 . S
C1186 C1187 1.327 . S
C1187 H1181 0.950 . S
C1187 C1186 1.327 . S
C1187 C1191 1.429 . S
C1188 C1171 1.574 . S
C1188 H1182 0.949 . S
C1188 C1192 1.368 . S
C1189 C1170 1.429 . S
C1189 C1183 1.429 . S
C1189 C1190 1.523 . S
C1190 C1171 1.368 . S
C1190 C1184 1.368 . S
C1190 C1189 1.523 . S
C1191 C1175 1.429 . S
C1191 C1187 1.429 . S
C1191 C1192 1.523 . S
C1192 C1176 1.368 . S
C1192 C1188 1.368 . S
C1192 C1191 1.523 . S
H1193 C1168 0.950 . S
H1194 C1170 0.950 . S
H1195 C1171 0.949 . S
H1196 C1173 0.950 . S
H1197 C1175 0.950 . S
C1198 C1199 1.349 1_556 S
C1198 C1200 1.327 . S
C1198 H1223 0.950 . S
C1199 C1198 1.349 1_554 S
C1199 C1215 1.349 . S
C1200 C1198 1.327 . S
C1200 C1219 1.429 1_556 S
C1200 H1224 0.950 . S
C1201 C1218 1.574 . S
C1201 C1220 1.368 . S
C1201 H1225 0.949 . S
H1202 C1206 0.949 . S
C1203 C1204 1.349 . S
C1203 C1205 1.327 . S
C1203 H1226 0.950 . S
C1204 C1203 1.349 . S
C1204 C1216 1.349 1_554 S
C1205 C1203 1.327 . S
C1205 C1221 1.429 . S
C1205 H1227 0.950 . S
C1206 H1202 0.949 . S
C1206 C1214 1.574 . S
C1206 C1222 1.368 1_556 S
H1207 C1215 0.950 . S
H1208 C1213 0.950 . S
H1209 C1214 0.949 . S
H1210 C1216 0.950 . S
H1211 C1217 0.950 . S
H1212 C1218 0.949 . S
C1213 H1208 0.950 . S
C1213 C1215 1.327 . S
C1213 C1219 1.429 . S
C1214 C1206 1.574 . S
C1214 H1209 0.949 . S
C1214 C1220 1.368 1_556 S
C1215 C1199 1.349 . S
C1215 H1207 0.950 . S
C1215 C1213 1.327 . S
C1216 C1204 1.349 1_556 S
C1216 H1210 0.950 . S
C1216 C1217 1.327 . S
C1217 H1211 0.950 . S
C1217 C1216 1.327 . S
C1217 C1221 1.429 1_556 S
C1218 C1201 1.574 . S
C1218 H1212 0.949 . S
C1218 C1222 1.368 . S
C1219 C1200 1.429 1_554 S
C1219 C1213 1.429 . S
C1219 C1220 1.523 . S
C1220 C1201 1.368 . S
C1220 C1214 1.368 1_554 S
C1220 C1219 1.523 . S
C1221 C1205 1.429 . S
C1221 C1217 1.429 1_554 S
C1221 C1222 1.523 . S
C1222 C1206 1.368 1_554 S
C1222 C1218 1.368 . S
C1222 C1221 1.523 . S
H1223 C1198 0.950 . S
H1224 C1200 0.950 . S
H1225 C1201 0.949 . S
H1226 C1203 0.950 . S
H1227 C1205 0.950 . S
C1228 C1229 1.349 . S
C1228 C1230 1.327 . S
C1228 H1253 0.950 . S
C1229 C1228 1.349 . S
C1229 C1245 1.349 . S
C1230 C1228 1.327 . S
C1230 C1249 1.429 . S
C1230 H1254 0.950 . S
C1231 C1248 1.574 . S
C1231 C1250 1.368 . S
C1231 H1255 0.949 . S
H1232 C1236 0.949 . S
C1233 C1234 1.349 . S
C1233 C1235 1.327 . S
C1233 H1256 0.950 . S
C1234 C1233 1.349 . S
C1234 C1246 1.349 . S
C1235 C1233 1.327 . S
C1235 C1251 1.429 . S
C1235 H1257 0.950 . S
C1236 H1232 0.949 . S
C1236 C1244 1.574 . S
C1236 C1252 1.368 . S
H1237 C1245 0.950 . S
H1238 C1243 0.950 . S
H1239 C1244 0.949 . S
H1240 C1246 0.950 . S
H1241 C1247 0.950 . S
H1242 C1248 0.949 . S
C1243 H1238 0.950 . S
C1243 C1245 1.327 . S
C1243 C1249 1.429 . S
C1244 C1236 1.574 . S
C1244 H1239 0.949 . S
C1244 C1250 1.368 . S
C1245 C1229 1.349 . S
C1245 H1237 0.950 . S
C1245 C1243 1.327 . S
C1246 C1234 1.349 . S
C1246 H1240 0.950 . S
C1246 C1247 1.327 . S
C1247 H1241 0.950 . S
C1247 C1246 1.327 . S
C1247 C1251 1.429 . S
C1248 C1231 1.574 . S
C1248 H1242 0.949 . S
C1248 C1252 1.368 . S
C1249 C1230 1.429 . S
C1249 C1243 1.429 . S
C1249 C1250 1.523 . S
C1250 C1231 1.368 . S
C1250 C1244 1.368 . S
C1250 C1249 1.523 . S
C1251 C1235 1.429 . S
C1251 C1247 1.429 . S
C1251 C1252 1.523 . S
C1252 C1236 1.368 . S
C1252 C1248 1.368 . S
C1252 C1251 1.523 . S
H1253 C1228 0.950 . S
H1254 C1230 0.950 . S
H1255 C1231 0.949 . S
H1256 C1233 0.950 . S
H1257 C1235 0.950 . S
C1258 C1259 1.349 1_556 S
C1258 C1260 1.327 . S
C1258 H1283 0.950 . S
C1259 C1258 1.349 1_554 S
C1259 C1275 1.349 . S
C1260 C1258 1.327 . S
C1260 C1279 1.429 1_556 S
C1260 H1284 0.950 . S
C1261 C1278 1.574 . S
C1261 C1280 1.368 . S
C1261 H1285 0.949 . S
H1262 C1266 0.949 . S
C1263 C1264 1.349 . S
C1263 C1265 1.327 . S
C1263 H1286 0.950 . S
C1264 C1263 1.349 . S
C1264 C1276 1.349 1_554 S
C1265 C1263 1.327 . S
C1265 C1281 1.429 . S
C1265 H1287 0.950 . S
C1266 H1262 0.949 . S
C1266 C1274 1.574 . S
C1266 C1282 1.368 1_556 S
H1267 C1275 0.950 . S
H1268 C1273 0.950 . S
H1269 C1274 0.949 . S
H1270 C1276 0.950 . S
H1271 C1277 0.950 . S
H1272 C1278 0.949 . S
C1273 H1268 0.950 . S
C1273 C1275 1.327 . S
C1273 C1279 1.429 . S
C1274 C1266 1.574 . S
C1274 H1269 0.949 . S
C1274 C1280 1.368 1_556 S
C1275 C1259 1.349 . S
C1275 H1267 0.950 . S
C1275 C1273 1.327 . S
C1276 C1264 1.349 1_556 S
C1276 H1270 0.950 . S
C1276 C1277 1.327 . S
C1277 H1271 0.950 . S
C1277 C1276 1.327 . S
C1277 C1281 1.429 1_556 S
C1278 C1261 1.574 . S
C1278 H1272 0.949 . S
C1278 C1282 1.368 . S
C1279 C1260 1.429 1_554 S
C1279 C1273 1.429 . S
C1279 C1280 1.523 . S
C1280 C1261 1.368 . S
C1280 C1274 1.368 1_554 S
C1280 C1279 1.523 . S
C1281 C1265 1.429 . S
C1281 C1277 1.429 1_554 S
C1281 C1282 1.523 . S
C1282 C1266 1.368 1_554 S
C1282 C1278 1.368 . S
C1282 C1281 1.523 . S
H1283 C1258 0.950 . S
H1284 C1260 0.950 . S
H1285 C1261 0.949 . S
H1286 C1263 0.950 . S
H1287 C1265 0.950 . S
C569 C5 1.433 . S
C574 C269 1.397 . S
C599 C31 1.433 . S
C604 C89 1.402 . S
C634 C168 1.399 . S
C629 C53 1.431 . S
C659 C71 1.433 . S
C664 C228 1.431 . S
C694 C389 1.399 . S
C689 C75 1.431 . S
C724 C468 1.428 . S
C719 C9 1.434 . S
C754 C539 1.429 . S
C749 C27 1.431 . S
C784 C329 1.399 . S
C779 C49 1.434 . S
C809 C51 1.433 . S
C814 C179 1.456 . S
C839 C72 1.433 . S
C844 C209 1.371 . S
C869 C6 1.433 . S
C874 C288 1.456 . S
C904 C108 1.453 . S
C899 C29 1.431 . S
C929 C28 1.433 . S
C934 C528 1.377 . S
C964 C348 1.453 . S
C959 C50 1.431 . S
C994 C408 1.453 . S
C989 C73 1.435 . S
C1019 C7 1.432 . S
C1024 C449 1.370 . S
C1054 C119 1.475 1_554 S
C1049 C4 1.482 . S
C1084 C149 1.475 . S
C1079 C30 1.483 . S
C1109 C52 1.482 . S
C1114 C239 1.449 . S
C1139 C70 1.483 . S
C1144 C299 1.475 . S
C1174 C359 1.474 . S
C1169 C74 1.482 . S
C1199 C8 1.482 . S
C1204 C419 1.475 . S
C1229 C26 1.482 . S
C1234 C479 1.449 . S
C1259 C48 1.482 . S
C1264 C509 1.450 1_554 S
