# Generated by pormake.
# Topology rtl, (3,6)-cn, num edge types: 1
# Building blocks:
#     Node 0, Type 0, BuildingBlock: VETTIZ_charged_linker_0, # of connection points: 3
#     Node 1, Type 0, BuildingBlock: VETTIZ_charged_linker_0, # of connection points: 3
#     Node 2, Type 0, BuildingBlock: VETTIZ_charged_linker_0, # of connection points: 3
#     Node 3, Type 0, BuildingBlock: VETTIZ_charged_linker_0, # of connection points: 3
#     Node 4, Type 1, BuildingBlock: LEVNOQ01_clean_sbu_1, # of connection points: 6
#     Node 5, Type 1, BuildingBlock: LEVNOQ01_clean_sbu_1, # of connection points: 6
#     Edge 6, Type (0, 1), BuildingBlock: ZUJKAS_clean_linker_0, # of connection points: 2
#     Edge 7, Type (0, 1), BuildingBlock: ZUJKAS_clean_linker_0, # of connection points: 2
#     Edge 8, Type (0, 1), BuildingBlock: ZUJKAS_clean_linker_0, # of connection points: 2
#     Edge 9, Type (0, 1), BuildingBlock: ZUJKAS_clean_linker_0, # of connection points: 2
#     Edge 10, Type (0, 1), BuildingBlock: ZUJKAS_clean_linker_0, # of connection points: 2
#     Edge 11, Type (0, 1), BuildingBlock: ZUJKAS_clean_linker_0, # of connection points: 2
#     Edge 12, Type (0, 1), BuildingBlock: ZUJKAS_clean_linker_0, # of connection points: 2
#     Edge 13, Type (0, 1), BuildingBlock: ZUJKAS_clean_linker_0, # of connection points: 2
#     Edge 14, Type (0, 1), BuildingBlock: ZUJKAS_clean_linker_0, # of connection points: 2
#     Edge 15, Type (0, 1), BuildingBlock: ZUJKAS_clean_linker_0, # of connection points: 2
#     Edge 16, Type (0, 1), BuildingBlock: ZUJKAS_clean_linker_0, # of connection points: 2
#     Edge 17, Type (0, 1), BuildingBlock: ZUJKAS_clean_linker_0, # of connection points: 2
# Relax obj value: 0.027
# Max RMSD: 0.061
# Mean RMSD: 0.048
data_MOF--net-rtl--node1-LEVNOQ01_clean_sbu_1--node2-VETTIZ_charged_linker_0--edge1-ZUJKAS_clean_linker_0
_symmetry_space_group_name_H-M    P1
_symmetry_Int_Tables_number       1
_symmetry_cell_setting            triclinic
loop_
_symmetry_equiv_pos_as_xyz
'x, y, z'
_cell_length_a     46.026482
_cell_length_b     52.492811
_cell_length_c     36.980246
_cell_angle_alpha  90.091485
_cell_angle_beta   97.776909
_cell_angle_gamma 90.044848
loop_
_atom_site_label
_atom_site_type_symbol
_atom_site_fract_x
_atom_site_fract_y
_atom_site_fract_z
_atom_type_partial_charge
C0 C 0.19331 0.88622 0.96774 0.0
C1 C 0.17648 0.90847 0.96079 0.0
C2 C 0.17133 0.92398 0.99047 0.0
C3 C 0.19955 0.8952 0.03282 0.0
C4 C 0.20463 0.88004 0.00374 0.0
C5 C 0.22321 0.85723 0.01571 0.0
H6 H 0.29929 0.78877 0.15192 0.0
C7 C 0.21459 0.88349 0.06664 0.0
C8 C 0.22858 0.86127 0.05674 0.0
H9 H 0.28547 0.77192 0.03627 0.0
H10 H 0.2573 0.81031 0.02484 0.0
H11 H 0.31095 0.84809 0.14475 0.0
H12 H 0.23227 0.80612 0.15572 0.0
H13 H 0.23288 0.83298 0.18416 0.0
H14 H 0.26175 0.80969 0.19246 0.0
H15 H 0.30439 0.83442 0.18735 0.0
H16 H 0.29151 0.86591 0.17374 0.0
C17 C 0.25195 0.85907 0.99835 0.0
C18 C 0.20479 0.83293 0.00515 0.0
C19 C 0.2055 0.92327 0.19023 0.0
C20 C 0.21668 0.91642 0.22624 0.0
C21 C 0.23594 0.89546 0.23184 0.0
C22 C 0.24312 0.88109 0.20236 0.0
C23 C 0.23096 0.88763 0.1667 0.0
C24 C 0.21293 0.90869 0.16102 0.0
C25 C 0.20248 0.913 0.12113 0.0
C26 C 0.21666 0.89071 0.10397 0.0
C27 C 0.23318 0.87585 0.13084 0.0
C28 C 0.21475 0.93894 0.1101 0.0
C29 C 0.16858 0.91111 0.11511 0.0
C30 C 0.29001 0.79323 0.12416 0.0
C31 C 0.29488 0.77724 0.09498 0.0
C32 C 0.2826 0.78404 0.05924 0.0
C33 C 0.26601 0.80631 0.05264 0.0
C34 C 0.26139 0.82206 0.08204 0.0
C35 C 0.27325 0.8154 0.11708 0.0
C36 C 0.26564 0.83429 0.14498 0.0
C37 C 0.24733 0.85336 0.12086 0.0
C38 C 0.24496 0.8461 0.08403 0.0
C39 C 0.29449 0.84629 0.16405 0.0
C40 C 0.24734 0.8202 0.171 0.0
H41 H 0.17792 0.93001 0.0477 0.0
H42 H 0.198 0.87405 0.94557 0.0
H43 H 0.18115 0.83631 0.00689 0.0
H44 H 0.21082 0.81681 0.02382 0.0
H45 H 0.20667 0.8269 0.97676 0.0
H46 H 0.25951 0.87919 0.99771 0.0
H47 H 0.24871 0.85187 0.96982 0.0
H48 H 0.27042 0.84876 0.01398 0.0
H49 H 0.19054 0.93915 0.18485 0.0
H50 H 0.24539 0.89005 0.25916 0.0
H51 H 0.25763 0.86525 0.20856 0.0
H52 H 0.23661 0.94289 0.12594 0.0
H53 H 0.19995 0.95484 0.11531 0.0
H54 H 0.21856 0.93947 0.08126 0.0
H55 H 0.16097 0.89554 0.13195 0.0
H56 H 0.15956 0.90634 0.08674 0.0
H57 H 0.15844 0.92913 0.12297 0.0
H58 H 0.15815 0.94106 0.98597 0.0
C59 C 0.18273 0.91747 0.02636 0.0
C60 C 0.7163 0.62774 0.70274 0.0
C61 C 0.6981 0.60611 0.70085 0.0
C62 C 0.68558 0.597 0.66634 0.0
C63 C 0.70824 0.63144 0.63664 0.0
C64 C 0.72091 0.64014 0.67043 0.0
C65 C 0.73839 0.66415 0.66762 0.0
H66 H 0.78388 0.75768 0.5624 0.0
C67 C 0.71634 0.6492 0.60865 0.0
C68 C 0.73397 0.66845 0.62663 0.0
H69 H 0.80349 0.74896 0.67948 0.0
H70 H 0.77499 0.71025 0.67639 0.0
H71 H 0.79473 0.69916 0.54383 0.0
H72 H 0.71626 0.74121 0.55554 0.0
H73 H 0.70833 0.72115 0.51739 0.0
H74 H 0.73611 0.74537 0.51739 0.0
H75 H 0.77862 0.72114 0.50977 0.0
H76 H 0.76725 0.68823 0.50976 0.0
C77 C 0.77085 0.65844 0.68236 0.0
C78 C 0.72438 0.68562 0.68828 0.0
C79 C 0.6785 0.63374 0.47481 0.0
C80 C 0.6819 0.64694 0.44254 0.0
C81 C 0.69884 0.66943 0.445 0.0
C82 C 0.7122 0.67855 0.47891 0.0
C83 C 0.70862 0.66509 0.51087 0.0
C84 C 0.69201 0.64307 0.50843 0.0
C85 C 0.69045 0.63129 0.54517 0.0
C86 C 0.70907 0.64976 0.57008 0.0
C87 C 0.71957 0.66955 0.54987 0.0
C88 C 0.70455 0.60448 0.54553 0.0
C89 C 0.65796 0.63142 0.55207 0.0
C90 C 0.78231 0.74736 0.58739 0.0
C91 C 0.79601 0.75655 0.62126 0.0
C92 C 0.79287 0.7426 0.65309 0.0
C93 C 0.77645 0.71998 0.65121 0.0
C94 C 0.76292 0.71111 0.61714 0.0
C95 C 0.76609 0.72472 0.58597 0.0
C96 C 0.75053 0.71232 0.55206 0.0
C97 C 0.73733 0.68909 0.56802 0.0
C98 C 0.74458 0.6885 0.60616 0.0
C99 C 0.77377 0.70491 0.52724 0.0
C100 C 0.72663 0.7309 0.5343 0.0
H101 H 0.68026 0.60167 0.60896 0.0
H102 H 0.72593 0.6354 0.72886 0.0
H103 H 0.70006 0.68379 0.68454 0.0
H104 H 0.72859 0.70484 0.67811 0.0
H105 H 0.73215 0.68483 0.71803 0.0
H106 H 0.77687 0.63873 0.67515 0.0
H107 H 0.77488 0.66019 0.71256 0.0
H108 H 0.78638 0.67085 0.67034 0.0
H109 H 0.66528 0.61662 0.47406 0.0
H110 H 0.70212 0.67984 0.42061 0.0
H111 H 0.72485 0.69572 0.4789 0.0
H112 H 0.72374 0.60449 0.53016 0.0
H113 H 0.68865 0.59014 0.5326 0.0
H114 H 0.71336 0.59796 0.57321 0.0
H115 H 0.64625 0.64845 0.53953 0.0
H116 H 0.65549 0.6327 0.58131 0.0
H117 H 0.64616 0.61427 0.54013 0.0
H118 H 0.6717 0.58024 0.66416 0.0
C119 C 0.69061 0.60947 0.6343 0.0
C120 C 0.80315 0.1439 0.11818 0.0
C121 C 0.82096 0.12233 0.12638 0.0
C122 C 0.82721 0.1065 0.09755 0.0
C123 C 0.79789 0.13338 0.05358 0.0
C124 C 0.79183 0.14898 0.08176 0.0
C125 C 0.77222 0.17088 0.06829 0.0
H126 H 0.69542 0.23408 0.92668 0.0
C127 C 0.78244 0.14371 0.01907 0.0
C128 C 0.7672 0.16562 0.02749 0.0
H129 H 0.70651 0.25421 0.04115 0.0
H130 H 0.73575 0.2166 0.05568 0.0
H131 H 0.7626 0.21687 0.92516 0.0
H132 H 0.68435 0.17467 0.93771 0.0
H133 H 0.70482 0.15571 0.91128 0.0
H134 H 0.69139 0.18632 0.89414 0.0
H135 H 0.73285 0.21271 0.88887 0.0
H136 H 0.76178 0.18956 0.89747 0.0
C137 C 0.78945 0.19597 0.07749 0.0
C138 C 0.74348 0.16865 0.08556 0.0
C139 C 0.79503 0.10134 0.89844 0.0
C140 C 0.78329 0.10644 0.86207 0.0
C141 C 0.7623 0.12595 0.85485 0.0
C142 C 0.75398 0.1408 0.88327 0.0
C143 C 0.76672 0.1361 0.91937 0.0
C144 C 0.78633 0.11624 0.92655 0.0
C145 C 0.79679 0.11343 0.96669 0.0
C146 C 0.78096 0.13541 0.98228 0.0
C147 C 0.76363 0.14877 0.9544 0.0
C148 C 0.8305 0.11716 0.9728 0.0
C149 C 0.78628 0.08722 0.97925 0.0
C150 C 0.70394 0.23024 0.9549 0.0
C151 C 0.69876 0.24724 0.98276 0.0
C152 C 0.71055 0.24166 0.0191 0.0
C153 C 0.72743 0.21972 0.02752 0.0
C154 C 0.7328 0.20312 0.99934 0.0
C155 C 0.72105 0.20847 0.96376 0.0
C156 C 0.72949 0.18892 0.93728 0.0
C157 C 0.74831 0.17103 0.96282 0.0
C158 C 0.75015 0.17943 0.99914 0.0
C159 C 0.74748 0.20255 0.9105 0.0
C160 C 0.70117 0.17573 0.91879 0.0
H161 H 0.82144 0.0991 0.04072 0.0
H162 H 0.7977 0.15634 0.13966 0.0
H163 H 0.73669 0.14837 0.08706 0.0
H164 H 0.7247 0.1782 0.06937 0.0
H165 H 0.74633 0.17648 0.11374 0.0
H166 H 0.81321 0.19333 0.07573 0.0
H167 H 0.78739 0.20252 0.1056 0.0
H168 H 0.78256 0.21147 0.05807 0.0
H169 H 0.81088 0.08621 0.90485 0.0
H170 H 0.75306 0.13031 0.82704 0.0
H171 H 0.73833 0.15568 0.87594 0.0
H172 H 0.83705 0.13284 0.95537 0.0
H173 H 0.84194 0.09959 0.96572 0.0
H174 H 0.83907 0.12276 0.00101 0.0
H175 H 0.76543 0.08125 0.96257 0.0
H176 H 0.78114 0.08755 0.0076 0.0
H177 H 0.80279 0.07213 0.97664 0.0
H178 H 0.84121 0.08999 0.10299 0.0
C179 C 0.81579 0.11189 0.06132 0.0
C180 C 0.28785 0.40152 0.37258 0.0
C181 C 0.30514 0.42369 0.37374 0.0
C182 C 0.3164 0.43406 0.408 0.0
C183 C 0.29464 0.39958 0.43882 0.0
C184 C 0.28294 0.38984 0.40524 0.0
C185 C 0.26577 0.36578 0.40863 0.0
H186 H 0.22003 0.27367 0.51556 0.0
C187 C 0.28656 0.38219 0.46733 0.0
C188 C 0.26959 0.36237 0.44974 0.0
H189 H 0.20087 0.28114 0.39823 0.0
H190 H 0.22929 0.31985 0.40067 0.0
H191 H 0.28717 0.28997 0.52255 0.0
H192 H 0.20888 0.33265 0.53266 0.0
H193 H 0.23611 0.34333 0.56724 0.0
H194 H 0.22446 0.3105 0.5668 0.0
H195 H 0.26793 0.28711 0.56145 0.0
H196 H 0.29573 0.31111 0.55929 0.0
C197 C 0.28056 0.34403 0.38939 0.0
C198 C 0.23336 0.37086 0.39281 0.0
C199 C 0.32331 0.39937 0.60127 0.0
C200 C 0.32035 0.38606 0.6336 0.0
C201 C 0.30407 0.36321 0.63128 0.0
C202 C 0.29095 0.3538 0.59748 0.0
C203 C 0.29413 0.3673 0.56544 0.0
C204 C 0.31014 0.38966 0.56766 0.0
C205 C 0.31156 0.4012 0.53068 0.0
C206 C 0.29354 0.38219 0.50598 0.0
C207 C 0.2834 0.36239 0.52652 0.0
C208 C 0.34409 0.40163 0.52407 0.0
C209 C 0.29679 0.42774 0.52962 0.0
C210 C 0.22168 0.28371 0.49037 0.0
C211 C 0.20813 0.27416 0.45662 0.0
C212 C 0.21138 0.28777 0.42454 0.0
C213 C 0.22774 0.3104 0.42604 0.0
C214 C 0.24108 0.31965 0.45998 0.0
C215 C 0.2378 0.3064 0.4914 0.0
C216 C 0.25311 0.31925 0.52511 0.0
C217 C 0.26612 0.34242 0.50873 0.0
C218 C 0.25913 0.34249 0.47058 0.0
C219 C 0.27716 0.301 0.54342 0.0
C220 C 0.22964 0.32675 0.54956 0.0
H221 H 0.32077 0.43079 0.46564 0.0
H222 H 0.27849 0.39325 0.34675 0.0
H223 H 0.22717 0.39097 0.39746 0.0
H224 H 0.21774 0.35938 0.40617 0.0
H225 H 0.22954 0.3673 0.36293 0.0
H226 H 0.30487 0.34586 0.39446 0.0
H227 H 0.27385 0.34453 0.35939 0.0
H228 H 0.27588 0.32493 0.39959 0.0
H229 H 0.33597 0.41681 0.60201 0.0
H230 H 0.30113 0.35274 0.65574 0.0
H231 H 0.2788 0.33637 0.59764 0.0
H232 H 0.35588 0.38445 0.53595 0.0
H233 H 0.35562 0.41864 0.53692 0.0
H234 H 0.34677 0.40114 0.49487 0.0
H235 H 0.27752 0.42752 0.54484 0.0
H236 H 0.28795 0.43382 0.50173 0.0
H237 H 0.31228 0.44247 0.54231 0.0
H238 H 0.32999 0.45099 0.40972 0.0
C239 C 0.31124 0.42215 0.44049 0.0
O240 O 0.97399 0.06565 0.60397 0.0
Mg241 Mg 0.01777 0.06379 0.59521 0.0
O242 O 0.96293 0.0291 0.57542 0.0
Mg243 Mg 0.00199 0.01742 0.54292 0.0
O244 O 0.02192 0.05803 0.54165 0.0
O245 O 0.03469 0.09437 0.57133 0.0
O246 O 0.04122 0.00637 0.51047 0.0
O247 O 0.97202 0.02952 0.48928 0.0
Mg248 Mg 0.98852 0.97147 0.49137 0.0
O249 O 0.98198 0.97654 0.54444 0.0
O250 O 0.03261 0.96878 0.48415 0.0
O251 O 0.96094 0.9951 0.45554 0.0
O252 O 0.97094 0.94048 0.51295 0.0
C253 C 0.04665 0.01568 0.62461 0.0
C254 C 0.956 0.04778 0.59485 0.0
C255 C 0.03294 0.08086 0.54194 0.0
C256 C 0.04945 0.98755 0.49235 0.0
C257 C 0.95865 0.01887 0.46063 0.0
C258 C 0.97134 0.95351 0.54263 0.0
O259 O 0.04586 0.03959 0.62936 0.0
O260 O 0.03199 0.00525 0.59662 0.0
O261 O 0.54237 0.49936 0.12578 0.0
Mg262 Mg 0.5181 0.47399 0.08925 0.0
O263 O 0.5308 0.53248 0.08986 0.0
Mg264 Mg 0.50216 0.51748 0.03666 0.0
O265 O 0.52618 0.47815 0.03658 0.0
O266 O 0.54019 0.44423 0.07157 0.0
O267 O 0.47324 0.50246 0.98347 0.0
O268 O 0.54033 0.53071 0.00397 0.0
Mg269 Mg 0.48336 0.56146 0.9826 0.0
O270 O 0.47922 0.55694 0.03646 0.0
O271 O 0.45729 0.53541 0.94914 0.0
O272 O 0.5269 0.566 0.97367 0.0
O273 O 0.46382 0.59157 0.00415 0.0
C274 C 0.45641 0.48552 0.08721 0.0
C275 C 0.54375 0.52303 0.11958 0.0
C276 C 0.53887 0.45598 0.04077 0.0
C277 C 0.45806 0.51161 0.95491 0.0
C278 C 0.54609 0.54929 0.98376 0.0
C279 C 0.46661 0.57915 0.0345 0.0
O280 O 0.47421 0.46742 0.09511 0.0
O281 O 0.46378 0.50482 0.06947 0.0
H282 H 0.171 0.25848 0.50408 0.0
H283 H 0.14332 0.21876 0.50287 0.0
H284 H 0.17631 0.19628 0.40395 0.0
H285 H 0.20494 0.23579 0.40541 0.0
H286 H 0.11151 0.19033 0.40613 0.0
H287 H 0.18226 0.14626 0.52262 0.0
H288 H 0.17166 0.17851 0.53067 0.0
H289 H 0.1946 0.17202 0.49609 0.0
C290 C 0.17274 0.24502 0.48226 0.0
C291 C 0.19048 0.25029 0.45505 0.0
C292 C 0.15676 0.22237 0.48152 0.0
C293 C 0.15806 0.20453 0.45354 0.0
C294 C 0.17512 0.20984 0.42581 0.0
H295 H 0.07778 0.06228 0.50919 0.0
H296 H 0.10887 0.08768 0.47394 0.0
C297 C 0.19132 0.23248 0.42663 0.0
C298 C 0.14151 0.18036 0.45384 0.0
H299 H 0.13412 0.12881 0.5077 0.0
C300 C 0.11671 0.17654 0.42785 0.0
C301 C 0.1487 0.16217 0.4817 0.0
C302 C 0.17592 0.16474 0.5092 0.0
C303 C 0.09762 0.15594 0.43076 0.0
C304 C 0.10344 0.13899 0.4606 0.0
C305 C 0.12953 0.14177 0.48483 0.0
C306 C 0.08102 0.12106 0.47098 0.0
C307 C 0.07093 0.15301 0.40257 0.0
C308 C 0.05439 0.13089 0.47947 0.0
C309 C 0.03666 0.11634 0.49922 0.0
C310 C 0.04514 0.09167 0.51066 0.0
C311 C 0.07035 0.08092 0.49948 0.0
C312 C 0.08826 0.09556 0.47978 0.0
H313 H 0.07529 0.16026 0.3756 0.0
H314 H 0.06379 0.13282 0.39954 0.0
H315 H 0.05269 0.16442 0.411 0.0
H316 H 0.04862 0.15064 0.47393 0.0
H317 H 0.01761 0.12515 0.50827 0.0
H318 H 0.33469 0.75805 0.05357 0.0
H319 H 0.36163 0.71801 0.06184 0.0
H320 H 0.32333 0.70293 0.15972 0.0
H321 H 0.29543 0.74282 0.15117 0.0
H322 H 0.39009 0.69514 0.16082 0.0
H323 H 0.31839 0.64552 0.04992 0.0
H324 H 0.32956 0.677 0.03846 0.0
H325 H 0.30649 0.67298 0.07354 0.0
C326 C 0.33171 0.74618 0.07671 0.0
C327 C 0.31258 0.75355 0.10144 0.0
C328 C 0.34728 0.72338 0.08151 0.0
C329 C 0.3442 0.70748 0.11117 0.0
C330 C 0.32591 0.715 0.13663 0.0
H331 H 0.42232 0.56169 0.06955 0.0
H332 H 0.39161 0.58854 0.10349 0.0
C333 C 0.31012 0.73783 0.13175 0.0
C334 C 0.35984 0.68281 0.11454 0.0
H335 H 0.3661 0.62789 0.06713 0.0
C336 C 0.38455 0.68009 0.14094 0.0
C337 C 0.35218 0.66304 0.08911 0.0
C338 C 0.32504 0.66457 0.06131 0.0
C339 C 0.40324 0.65894 0.14052 0.0
C340 C 0.39713 0.64035 0.11273 0.0
C341 C 0.37096 0.64209 0.08843 0.0
C342 C 0.4195 0.62182 0.10384 0.0
C343 C 0.4299 0.65722 0.16897 0.0
C344 C 0.44608 0.63114 0.09443 0.0
C345 C 0.46354 0.61581 0.07536 0.0
C346 C 0.45485 0.59087 0.06551 0.0
C347 C 0.42982 0.58064 0.07785 0.0
C348 C 0.41216 0.59607 0.09688 0.0
H349 H 0.42541 0.66568 0.19521 0.0
H350 H 0.43715 0.63719 0.17379 0.0
H351 H 0.44809 0.66823 0.15966 0.0
H352 H 0.45193 0.65103 0.09851 0.0
H353 H 0.48249 0.62419 0.06546 0.0
H354 H 0.79918 0.79451 0.67308 0.0
H355 H 0.8275 0.83421 0.67491 0.0
H356 H 0.8605 0.81257 0.57564 0.0
H357 H 0.83307 0.77269 0.57401 0.0
H358 H 0.89149 0.84107 0.67343 0.0
H359 H 0.82168 0.88456 0.55574 0.0
H360 H 0.80942 0.8584 0.58158 0.0
H361 H 0.83305 0.85256 0.54753 0.0
C362 C 0.81273 0.79805 0.65186 0.0
C363 C 0.81362 0.78045 0.6232 0.0
C364 C 0.82876 0.8208 0.65289 0.0
C365 C 0.84571 0.82642 0.62514 0.0
C366 C 0.84711 0.80874 0.59697 0.0
H367 H 0.98675 0.90898 0.57562 0.0
H368 H 0.95532 0.88232 0.60784 0.0
C369 C 0.83129 0.786 0.596 0.0
C370 C 0.86205 0.85073 0.62509 0.0
H371 H 0.86954 0.90246 0.57159 0.0
C372 C 0.88643 0.85481 0.65163 0.0
C373 C 0.85503 0.86887 0.5971 0.0
C374 C 0.8282 0.86608 0.56904 0.0
C375 C 0.90528 0.87567 0.64923 0.0
C376 C 0.89966 0.89261 0.61936 0.0
C377 C 0.87399 0.8895 0.59448 0.0
C378 C 0.92187 0.9111 0.60988 0.0
C379 C 0.93146 0.87892 0.6781 0.0
C380 C 0.91409 0.9365 0.60119 0.0
C381 C 0.93221 0.95179 0.58268 0.0
C382 C 0.95822 0.94183 0.57264 0.0
C383 C 0.96707 0.9172 0.58386 0.0
C384 C 0.94911 0.90198 0.60239 0.0
H385 H 0.92679 0.87145 0.70481 0.0
H386 H 0.95016 0.8679 0.67013 0.0
H387 H 0.9381 0.89922 0.68145 0.0
H388 H 0.893 0.94383 0.60622 0.0
H389 H 0.92448 0.97033 0.57296 0.0
H390 H 0.64736 0.25276 0.93643 0.0
H391 H 0.61778 0.29148 0.92476 0.0
H392 H 0.68105 0.33343 0.99856 0.0
H393 H 0.71088 0.29508 0.00978 0.0
H394 H 0.59344 0.31836 0.9778 0.0
H395 H 0.66621 0.38141 0.91098 0.0
H396 H 0.67133 0.3473 0.91394 0.0
H397 H 0.68468 0.36746 0.95204 0.0
C398 C 0.65521 0.27036 0.94962 0.0
C399 C 0.68141 0.27085 0.97413 0.0
C400 C 0.63828 0.29244 0.94296 0.0
C401 C 0.64747 0.31545 0.96027 0.0
C402 C 0.67385 0.31605 0.98424 0.0
H403 H 0.5968 0.44928 0.04444 0.0
H404 H 0.62082 0.41682 0.01174 0.0
C405 C 0.69067 0.29402 0.99105 0.0
C406 C 0.62828 0.33826 0.95653 0.0
H407 H 0.62945 0.40239 0.94158 0.0
C408 C 0.60088 0.33665 0.96895 0.0
C409 C 0.63804 0.36203 0.94483 0.0
C410 C 0.66656 0.36464 0.92934 0.0
C411 C 0.58411 0.35854 0.97305 0.0
C412 C 0.59477 0.38264 0.9636 0.0
C413 C 0.62123 0.38395 0.94871 0.0
C414 C 0.58167 0.40661 0.97532 0.0
C415 C 0.55633 0.35585 0.99029 0.0
C416 C 0.55213 0.41292 0.96403 0.0
C417 C 0.53836 0.43168 0.98278 0.0
C418 C 0.55417 0.44436 0.01261 0.0
C419 C 0.58433 0.4399 0.0212 0.0
C420 C 0.59802 0.42128 0.0026 0.0
H421 H 0.55352 0.33632 0.00083 0.0
H422 H 0.55628 0.36953 0.01322 0.0
H423 H 0.53712 0.3601 0.96967 0.0
H424 H 0.53924 0.40212 0.9426 0.0
H425 H 0.51495 0.43461 0.9761 0.0
H426 H 0.20806 0.96791 0.2343 0.0
H427 H 0.1897 0.98964 0.28542 0.0
H428 H 0.18521 0.91767 0.34042 0.0
H429 H 0.20309 0.89587 0.28964 0.0
H430 H 0.13657 0.98132 0.30942 0.0
H431 H 0.22565 0.96248 0.42186 0.0
H432 H 0.23046 0.95895 0.37442 0.0
H433 H 0.21385 0.93383 0.39772 0.0
C434 C 0.20329 0.95674 0.25738 0.0
C435 C 0.20724 0.93014 0.25793 0.0
C436 C 0.193 0.96922 0.28666 0.0
C437 C 0.18672 0.95536 0.31711 0.0
C438 C 0.19081 0.92888 0.31778 0.0
H439 H 0.08427 0.9474 0.48224 0.0
H440 H 0.12287 0.94584 0.44312 0.0
C441 C 0.20101 0.91642 0.28861 0.0
C442 C 0.17325 0.96789 0.34677 0.0
H443 H 0.17763 0.97064 0.43961 0.0
C444 C 0.14585 0.97965 0.33788 0.0
C445 C 0.1855 0.96578 0.38385 0.0
C446 C 0.21564 0.95481 0.39501 0.0
C447 C 0.12927 0.98741 0.36514 0.0
C448 C 0.14067 0.98366 0.40228 0.0
C449 C 0.16892 0.97348 0.41115 0.0
C450 C 0.12179 0.98624 0.43152 0.0
C451 C 0.09879 0.99777 0.35394 0.0
C452 C 0.10937 0.00971 0.43943 0.0
C453 C 0.08723 0.01064 0.46199 0.0
C454 C 0.07735 0.98812 0.47685 0.0
C455 C 0.09146 0.96504 0.47109 0.0
C456 C 0.11354 0.96413 0.44878 0.0
H457 H 0.09186 0.99628 0.32405 0.0
H458 H 0.08264 0.98739 0.36819 0.0
H459 H 0.09819 0.01815 0.36176 0.0
H460 H 0.11567 0.02704 0.42666 0.0
H461 H 0.07635 0.02857 0.46541 0.0
H462 H 0.73527 0.59354 0.76267 0.0
H463 H 0.72216 0.57497 0.81918 0.0
H464 H 0.63111 0.57401 0.7721 0.0
H465 H 0.64414 0.59184 0.71568 0.0
H466 H 0.69023 0.59356 0.86574 0.0
H467 H 0.63731 0.50431 0.81427 0.0
H468 H 0.65905 0.52318 0.78717 0.0
H469 H 0.62071 0.53021 0.78763 0.0
C470 C 0.71251 0.58906 0.76436 0.0
C471 C 0.69075 0.5939 0.73465 0.0
C472 C 0.70506 0.57838 0.79657 0.0
C473 C 0.67572 0.57243 0.79966 0.0
C474 C 0.65403 0.57744 0.77001 0.0
H475 H 0.56994 0.59124 0.95705 0.0
H476 H 0.60944 0.59293 0.92003 0.0
C477 C 0.66147 0.58781 0.73778 0.0
C478 C 0.66706 0.56321 0.83469 0.0
H479 H 0.61912 0.52274 0.86798 0.0
C480 C 0.67527 0.57765 0.86645 0.0
C481 C 0.64836 0.54193 0.83629 0.0
C482 C 0.64119 0.52388 0.80455 0.0
C483 C 0.66296 0.57294 0.89852 0.0
C484 C 0.64121 0.55385 0.89846 0.0
C485 C 0.63532 0.53776 0.86796 0.0
C486 C 0.62101 0.55305 0.92659 0.0
C487 C 0.67266 0.58915 0.93168 0.0
C488 C 0.61411 0.53001 0.94293 0.0
C489 C 0.59097 0.52892 0.96404 0.0
C490 C 0.57422 0.55079 0.96863 0.0
C491 C 0.58234 0.57401 0.95397 0.0
C492 C 0.60526 0.57508 0.93305 0.0
H493 H 0.6963 0.59399 0.93331 0.0
H494 H 0.66026 0.60733 0.92943 0.0
H495 H 0.66893 0.57942 0.9573 0.0
H496 H 0.62578 0.5127 0.93807 0.0
H497 H 0.58511 0.51072 0.97481 0.0
H498 H 0.84461 0.15492 0.18071 0.0
H499 H 0.86523 0.14402 0.24345 0.0
H500 H 0.8452 0.06482 0.2212 0.0
H501 H 0.82397 0.07556 0.15895 0.0
H502 H 0.82936 0.08332 0.28873 0.0
H503 H 0.94466 0.10713 0.27144 0.0
H504 H 0.91752 0.13144 0.2596 0.0
H505 H 0.91643 0.10274 0.23301 0.0
C506 C 0.84437 0.13522 0.18931 0.0
C507 C 0.83286 0.11607 0.16475 0.0
C508 C 0.85638 0.12901 0.22504 0.0
C509 C 0.85707 0.10358 0.23678 0.0
C510 C 0.84502 0.08455 0.2126 0.0
H511 H 0.92075 0.00128 0.40309 0.0
H512 H 0.8945 0.02562 0.3531 0.0
C513 C 0.83311 0.0907 0.17695 0.0
C514 C 0.87053 0.09643 0.27407 0.0
H515 H 0.93655 0.08992 0.32779 0.0
C516 C 0.85274 0.08504 0.29747 0.0
C517 C 0.90101 0.09889 0.2855 0.0
C518 C 0.92118 0.11055 0.26112 0.0
C519 C 0.86476 0.07525 0.33152 0.0
C520 C 0.89543 0.07648 0.34213 0.0
C521 C 0.91304 0.08902 0.31956 0.0
C522 C 0.90997 0.06236 0.37427 0.0
C523 C 0.84457 0.06323 0.35555 0.0
C524 C 0.92776 0.07491 0.40269 0.0
C525 C 0.94299 0.06096 0.43154 0.0
C526 C 0.94097 0.0342 0.43204 0.0
C527 C 0.92284 0.02184 0.40366 0.0
C528 C 0.90759 0.03575 0.37512 0.0
H529 H 0.822 0.07103 0.34964 0.0
H530 H 0.84335 0.04242 0.35024 0.0
H531 H 0.85272 0.06627 0.3849 0.0
H532 H 0.9301 0.09544 0.40232 0.0
H533 H 0.9569 0.07104 0.45286 0.0
H534 H 0.35 0.35926 0.69056 0.0
H535 H 0.37175 0.37566 0.75025 0.0
H536 H 0.34394 0.45157 0.71749 0.0
H537 H 0.32167 0.43531 0.65812 0.0
H538 H 0.41593 0.41387 0.76518 0.0
H539 H 0.31246 0.44147 0.81598 0.0
H540 H 0.31342 0.41997 0.77796 0.0
H541 H 0.31597 0.4538 0.7715 0.0
C542 C 0.34825 0.37941 0.69622 0.0
C543 C 0.33397 0.39597 0.66965 0.0
C544 C 0.36082 0.38874 0.73024 0.0
C545 C 0.35906 0.41474 0.73846 0.0
C546 C 0.3451 0.43136 0.71191 0.0
H547 H 0.41969 0.52564 0.89575 0.0
H548 H 0.39585 0.49875 0.84694 0.0
C549 C 0.33266 0.42208 0.67786 0.0
C550 C 0.37248 0.42478 0.77438 0.0
H551 H 0.35672 0.45846 0.8483 0.0
C552 C 0.40302 0.4233 0.78369 0.0
C553 C 0.35549 0.4369 0.79849 0.0
C554 C 0.32248 0.43796 0.79073 0.0
C555 C 0.41722 0.43494 0.81554 0.0
C556 C 0.4003 0.44797 0.83893 0.0
C557 C 0.36965 0.44848 0.83033 0.0
C558 C 0.41405 0.46351 0.8702 0.0
C559 C 0.45028 0.43438 0.82288 0.0
C560 C 0.43186 0.45256 0.90002 0.0
C561 C 0.44573 0.468 0.92824 0.0
C562 C 0.44192 0.4946 0.92701 0.0
C563 C 0.42333 0.50527 0.89758 0.0
C564 C 0.40957 0.48991 0.8696 0.0
H565 H 0.4602 0.4275 0.7989 0.0
H566 H 0.45911 0.45364 0.83045 0.0
H567 H 0.45723 0.4214 0.84609 0.0
H568 H 0.43521 0.43215 0.90132 0.0
H569 H 0.45983 0.45917 0.95054 0.0
H570 H 0.65426 0.67432 0.3846 0.0
H571 H 0.62982 0.6578 0.32622 0.0
H572 H 0.65315 0.58126 0.36081 0.0
H573 H 0.67791 0.59752 0.41885 0.0
H574 H 0.65249 0.6264 0.27209 0.0
H575 H 0.56295 0.57915 0.33313 0.0
H576 H 0.58627 0.6032 0.35698 0.0
H577 H 0.59898 0.57092 0.35488 0.0
C578 C 0.65445 0.65399 0.37963 0.0
C579 C 0.66782 0.63721 0.40656 0.0
C580 C 0.64037 0.6446 0.34634 0.0
C581 C 0.63929 0.61831 0.3395 0.0
C582 C 0.65323 0.60159 0.36589 0.0
H583 H 0.57909 0.50794 0.18072 0.0
H584 H 0.60167 0.5342 0.23109 0.0
C585 C 0.6673 0.61092 0.39909 0.0
C586 C 0.62344 0.60807 0.30499 0.0
H587 H 0.56856 0.56706 0.27225 0.0
C588 C 0.63387 0.6137 0.27192 0.0
C589 C 0.59903 0.59171 0.30493 0.0
C590 C 0.58592 0.58605 0.33932 0.0
C591 C 0.62146 0.60222 0.23902 0.0
C592 C 0.5979 0.58497 0.23934 0.0
C593 C 0.58674 0.58021 0.27216 0.0
C594 C 0.58596 0.5699 0.20679 0.0
C595 C 0.63441 0.60764 0.20448 0.0
C596 C 0.5699 0.58135 0.17608 0.0
C597 C 0.55685 0.5663 0.14692 0.0
C598 C 0.55956 0.53959 0.14829 0.0
C599 C 0.57636 0.52841 0.17876 0.0
C600 C 0.58933 0.54339 0.20765 0.0
H601 H 0.65515 0.61869 0.20981 0.0
H602 H 0.63876 0.58956 0.19056 0.0
H603 H 0.61848 0.61877 0.18557 0.0
H604 H 0.56676 0.6018 0.17512 0.0
H605 H 0.54394 0.57548 0.12393 0.0
H606 H 0.84013 0.09773 0.85344 0.0
H607 H 0.85898 0.07911 0.80077 0.0
H608 H 0.77051 0.06512 0.74941 0.0
H609 H 0.7515 0.08464 0.80182 0.0
H610 H 0.85488 0.03359 0.76824 0.0
H611 H 0.80167 0.10651 0.6722 0.0
H612 H 0.80224 0.10909 0.72087 0.0
H613 H 0.77715 0.08755 0.69481 0.0
C614 C 0.82469 0.09043 0.83111 0.0
C615 C 0.79436 0.09279 0.83158 0.0
C616 C 0.83547 0.0798 0.80098 0.0
C617 C 0.81618 0.07111 0.77077 0.0
C618 C 0.78583 0.07231 0.77192 0.0
H619 H 0.91913 0.00783 0.60533 0.0
H620 H 0.87804 0.00868 0.64139 0.0
C621 C 0.77499 0.08334 0.8019 0.0
C622 C 0.82834 0.06205 0.73779 0.0
H623 H 0.83324 0.07768 0.6492 0.0
C624 C 0.84988 0.04294 0.742 0.0
C625 C 0.8217 0.07427 0.70355 0.0
C626 C 0.79962 0.09563 0.69747 0.0
C627 C 0.86642 0.03699 0.71387 0.0
C628 C 0.86059 0.04996 0.68011 0.0
C629 C 0.83756 0.06769 0.67503 0.0
C630 C 0.88141 0.04916 0.65272 0.0
C631 C 0.89143 0.01833 0.72161 0.0
C632 C 0.8956 0.07178 0.64506 0.0
C633 C 0.91847 0.07137 0.62402 0.0
C634 C 0.9279 0.04829 0.61019 0.0
C635 C 0.91234 0.02585 0.61555 0.0
C636 C 0.88913 0.02629 0.63658 0.0
H637 H 0.89586 0.01319 0.75098 0.0
H638 H 0.88595 0.00059 0.70581 0.0
H639 H 0.91183 0.02635 0.71322 0.0
H640 H 0.89 0.08969 0.65697 0.0
H641 H 0.92971 0.08908 0.62006 0.0
H642 H 0.32076 0.39886 0.31441 0.0
H643 H 0.33606 0.41739 0.25951 0.0
H644 H 0.3222 0.49282 0.30023 0.0
H645 H 0.30687 0.47436 0.35554 0.0
H646 H 0.30799 0.45013 0.20599 0.0
H647 H 0.40783 0.49483 0.28229 0.0
H648 H 0.38641 0.47148 0.3028 0.0
H649 H 0.37342 0.50364 0.29657 0.0
C650 C 0.32055 0.4194 0.31153 0.0
C651 C 0.31271 0.43514 0.33945 0.0
C652 C 0.32937 0.42996 0.28014 0.0
C653 C 0.33061 0.45648 0.27596 0.0
C654 C 0.32193 0.47231 0.3032 0.0
H655 H 0.42765 0.52593 0.11273 0.0
H656 H 0.38981 0.52371 0.15348 0.0
C657 C 0.3132 0.46174 0.33477 0.0
C658 C 0.34231 0.46719 0.24372 0.0
H659 H 0.4019 0.49779 0.21863 0.0
C660 C 0.3283 0.46089 0.20872 0.0
C661 C 0.36871 0.48138 0.2473 0.0
C662 C 0.38518 0.48814 0.28419 0.0
C663 C 0.34065 0.46743 0.17728 0.0
C664 C 0.36787 0.48033 0.18099 0.0
C665 C 0.38096 0.48798 0.21582 0.0
C666 C 0.38537 0.48268 0.15028 0.0
C667 C 0.32483 0.45989 0.14042 0.0
C668 C 0.39478 0.46049 0.13416 0.0
C669 C 0.41629 0.46174 0.11103 0.0
C670 C 0.42882 0.48522 0.10349 0.0
C671 C 0.41796 0.50766 0.11751 0.0
C672 C 0.39653 0.50638 0.14101 0.0
H673 H 0.30078 0.45875 0.14087 0.0
H674 H 0.32924 0.47357 0.11894 0.0
H675 H 0.33245 0.44075 0.13306 0.0
H676 H 0.38702 0.44196 0.14147 0.0
H677 H 0.42437 0.44414 0.10075 0.0
H678 H 0.17531 0.95575 0.9297 0.0
H679 H 0.155 0.96771 0.8675 0.0
H680 H 0.13116 0.88948 0.8433 0.0
H681 H 0.15088 0.87738 0.90582 0.0
H682 H 0.17108 0.94806 0.79971 0.0
H683 H 0.05397 0.93019 0.81466 0.0
H684 H 0.08198 0.93366 0.85355 0.0
H685 H 0.07946 0.90475 0.82737 0.0
C686 C 0.16549 0.94111 0.91128 0.0
C687 C 0.16452 0.91564 0.9228 0.0
C688 C 0.1541 0.94795 0.87568 0.0
C689 C 0.14135 0.92952 0.85095 0.0
C690 C 0.14061 0.90403 0.86212 0.0
H691 H 0.04516 0.96366 0.63374 0.0
H692 H 0.07038 0.93893 0.68498 0.0
C693 C 0.1521 0.89714 0.89774 0.0
C694 C 0.12883 0.93725 0.81356 0.0
H695 H 0.06397 0.94614 0.75831 0.0
C696 C 0.14769 0.94742 0.79048 0.0
C697 C 0.09836 0.93613 0.80149 0.0
C698 C 0.07711 0.92576 0.82551 0.0
C699 C 0.13679 0.9572 0.75601 0.0
C700 C 0.10618 0.95727 0.74467 0.0
C701 C 0.08743 0.94604 0.76705 0.0
C702 C 0.09295 0.97141 0.71183 0.0
C703 C 0.15815 0.96768 0.73224 0.0
C704 C 0.0973 0.99778 0.70997 0.0
C705 C 0.08299 0.01187 0.68098 0.0
C706 C 0.0638 -5e-05 0.65319 0.0
C707 C 0.05992 0.97339 0.65459 0.0
C708 C 0.07424 0.95926 0.68386 0.0
H709 H 0.18007 0.95867 0.7387 0.0
H710 H 0.15015 0.96472 0.70284 0.0
H711 H 0.16088 0.98845 0.7373 0.0
H712 H 0.1111 0.00765 0.73162 0.0
H713 H 0.08651 0.03228 0.68086 0.0
loop_
_geom_bond_atom_site_label_1
_geom_bond_atom_site_label_2
_geom_bond_distance
_geom_bond_site_symmetry_2
_ccdc_geom_bond_type
C0 C1 1.391 . S
C0 C4 1.391 . S
C0 H42 0.948 . S
C1 C0 1.391 . S
C1 C2 1.391 . S
C2 C1 1.391 . S
C2 H58 0.947 . S
C2 C59 1.392 1_556 S
C3 C4 1.391 1_554 S
C3 C7 1.397 . S
C3 C59 1.419 . S
C4 C0 1.391 . S
C4 C3 1.391 1_556 S
C4 C5 1.399 1_556 S
C5 C4 1.399 1_554 S
C5 C8 1.396 . S
C5 C17 1.453 1_554 S
C5 C18 1.684 1_554 S
H6 C30 0.948 . S
C7 C3 1.397 . S
C7 C8 1.394 . S
C7 C26 1.723 . S
C8 C5 1.396 . S
C8 C7 1.394 . S
C8 C38 1.723 . S
H9 C32 0.947 . S
H10 C33 0.948 . S
H11 C39 0.982 . S
H12 C40 0.979 . S
H13 C40 0.980 . S
H14 C40 0.983 . S
H15 C39 0.979 . S
H16 C39 0.977 . S
C17 C5 1.453 1_556 S
C17 H46 0.982 1_556 S
C17 H47 0.979 . S
C17 H48 0.977 1_556 S
C18 C5 1.684 1_556 S
C18 H43 0.979 . S
C18 H44 0.980 . S
C18 H45 0.983 . S
C19 C20 1.391 . S
C19 C24 1.391 . S
C19 H49 0.948 . S
C20 C19 1.391 . S
C20 C21 1.391 . S
C21 C20 1.391 . S
C21 C22 1.392 . S
C21 H50 0.947 . S
C22 C21 1.392 . S
C22 C23 1.419 . S
C22 H51 0.948 . S
C23 C22 1.419 . S
C23 C24 1.391 . S
C23 C27 1.397 . S
C24 C19 1.391 . S
C24 C23 1.391 . S
C24 C25 1.399 . S
C25 C24 1.399 . S
C25 C26 1.396 . S
C25 C28 1.453 . S
C25 C29 1.684 . S
C26 C7 1.723 . S
C26 C25 1.396 . S
C26 C27 1.394 . S
C27 C23 1.397 . S
C27 C26 1.394 . S
C27 C37 1.723 . S
C28 C25 1.453 . S
C28 H52 0.982 . S
C28 H53 0.979 . S
C28 H54 0.977 . S
C29 C25 1.684 . S
C29 H55 0.979 . S
C29 H56 0.980 . S
C29 H57 0.983 . S
C30 H6 0.948 . S
C30 C31 1.391 . S
C30 C35 1.391 . S
C31 C30 1.391 . S
C31 C32 1.391 . S
C32 H9 0.947 . S
C32 C31 1.391 . S
C32 C33 1.392 . S
C33 H10 0.948 . S
C33 C32 1.392 . S
C33 C34 1.419 . S
C34 C33 1.419 . S
C34 C35 1.391 . S
C34 C38 1.397 . S
C35 C30 1.391 . S
C35 C34 1.391 . S
C35 C36 1.399 . S
C36 C35 1.399 . S
C36 C37 1.396 . S
C36 C39 1.453 . S
C36 C40 1.684 . S
C37 C27 1.723 . S
C37 C36 1.396 . S
C37 C38 1.394 . S
C38 C8 1.723 . S
C38 C34 1.397 . S
C38 C37 1.394 . S
C39 H11 0.982 . S
C39 H15 0.979 . S
C39 H16 0.977 . S
C39 C36 1.453 . S
C40 H12 0.979 . S
C40 H13 0.980 . S
C40 H14 0.983 . S
C40 C36 1.684 . S
H41 C59 0.948 . S
H42 C0 0.948 . S
H43 C18 0.979 . S
H44 C18 0.980 . S
H45 C18 0.983 . S
H46 C17 0.982 1_554 S
H47 C17 0.979 . S
H48 C17 0.977 1_554 S
H49 C19 0.948 . S
H50 C21 0.947 . S
H51 C22 0.948 . S
H52 C28 0.982 . S
H53 C28 0.979 . S
H54 C28 0.977 . S
H55 C29 0.979 . S
H56 C29 0.980 . S
H57 C29 0.983 . S
H58 C2 0.947 . S
C59 C2 1.392 1_554 S
C59 C3 1.419 . S
C59 H41 0.948 . S
C60 C61 1.391 . S
C60 C64 1.391 . S
C60 H102 0.948 . S
C61 C60 1.391 . S
C61 C62 1.391 . S
C62 C61 1.391 . S
C62 H118 0.947 . S
C62 C119 1.392 . S
C63 C64 1.391 . S
C63 C67 1.397 . S
C63 C119 1.419 . S
C64 C60 1.391 . S
C64 C63 1.391 . S
C64 C65 1.399 . S
C65 C64 1.399 . S
C65 C68 1.396 . S
C65 C77 1.453 . S
C65 C78 1.684 . S
H66 C90 0.948 . S
C67 C63 1.397 . S
C67 C68 1.394 . S
C67 C86 1.723 . S
C68 C65 1.396 . S
C68 C67 1.394 . S
C68 C98 1.723 . S
H69 C92 0.947 . S
H70 C93 0.948 . S
H71 C99 0.982 . S
H72 C100 0.979 . S
H73 C100 0.980 . S
H74 C100 0.983 . S
H75 C99 0.979 . S
H76 C99 0.977 . S
C77 C65 1.453 . S
C77 H106 0.982 . S
C77 H107 0.979 . S
C77 H108 0.977 . S
C78 C65 1.684 . S
C78 H103 0.979 . S
C78 H104 0.980 . S
C78 H105 0.983 . S
C79 C80 1.391 . S
C79 C84 1.391 . S
C79 H109 0.948 . S
C80 C79 1.391 . S
C80 C81 1.391 . S
C81 C80 1.391 . S
C81 C82 1.392 . S
C81 H110 0.947 . S
C82 C81 1.392 . S
C82 C83 1.419 . S
C82 H111 0.948 . S
C83 C82 1.419 . S
C83 C84 1.391 . S
C83 C87 1.397 . S
C84 C79 1.391 . S
C84 C83 1.391 . S
C84 C85 1.399 . S
C85 C84 1.399 . S
C85 C86 1.396 . S
C85 C88 1.453 . S
C85 C89 1.684 . S
C86 C67 1.723 . S
C86 C85 1.396 . S
C86 C87 1.394 . S
C87 C83 1.397 . S
C87 C86 1.394 . S
C87 C97 1.723 . S
C88 C85 1.453 . S
C88 H112 0.982 . S
C88 H113 0.979 . S
C88 H114 0.977 . S
C89 C85 1.684 . S
C89 H115 0.979 . S
C89 H116 0.980 . S
C89 H117 0.983 . S
C90 H66 0.948 . S
C90 C91 1.391 . S
C90 C95 1.391 . S
C91 C90 1.391 . S
C91 C92 1.391 . S
C92 H69 0.947 . S
C92 C91 1.391 . S
C92 C93 1.392 . S
C93 H70 0.948 . S
C93 C92 1.392 . S
C93 C94 1.419 . S
C94 C93 1.419 . S
C94 C95 1.391 . S
C94 C98 1.397 . S
C95 C90 1.391 . S
C95 C94 1.391 . S
C95 C96 1.399 . S
C96 C95 1.399 . S
C96 C97 1.396 . S
C96 C99 1.453 . S
C96 C100 1.684 . S
C97 C87 1.723 . S
C97 C96 1.396 . S
C97 C98 1.394 . S
C98 C68 1.723 . S
C98 C94 1.397 . S
C98 C97 1.394 . S
C99 H71 0.982 . S
C99 H75 0.979 . S
C99 H76 0.977 . S
C99 C96 1.453 . S
C100 H72 0.979 . S
C100 H73 0.980 . S
C100 H74 0.983 . S
C100 C96 1.684 . S
H101 C119 0.948 . S
H102 C60 0.948 . S
H103 C78 0.979 . S
H104 C78 0.980 . S
H105 C78 0.983 . S
H106 C77 0.982 . S
H107 C77 0.979 . S
H108 C77 0.977 . S
H109 C79 0.948 . S
H110 C81 0.947 . S
H111 C82 0.948 . S
H112 C88 0.982 . S
H113 C88 0.979 . S
H114 C88 0.977 . S
H115 C89 0.979 . S
H116 C89 0.980 . S
H117 C89 0.983 . S
H118 C62 0.947 . S
C119 C62 1.392 . S
C119 C63 1.419 . S
C119 H101 0.948 . S
C120 C121 1.391 . S
C120 C124 1.391 . S
C120 H162 0.948 . S
C121 C120 1.391 . S
C121 C122 1.391 . S
C122 C121 1.391 . S
C122 H178 0.947 . S
C122 C179 1.392 . S
C123 C124 1.391 . S
C123 C127 1.397 . S
C123 C179 1.419 . S
C124 C120 1.391 . S
C124 C123 1.391 . S
C124 C125 1.399 . S
C125 C124 1.399 . S
C125 C128 1.396 . S
C125 C137 1.453 . S
C125 C138 1.684 . S
H126 C150 0.948 . S
C127 C123 1.397 . S
C127 C128 1.394 . S
C127 C146 1.723 1_554 S
C128 C125 1.396 . S
C128 C127 1.394 . S
C128 C158 1.723 . S
H129 C152 0.947 . S
H130 C153 0.948 . S
H131 C159 0.982 . S
H132 C160 0.979 . S
H133 C160 0.980 . S
H134 C160 0.983 . S
H135 C159 0.979 . S
H136 C159 0.977 . S
C137 C125 1.453 . S
C137 H166 0.982 . S
C137 H167 0.979 . S
C137 H168 0.977 . S
C138 C125 1.684 . S
C138 H163 0.979 . S
C138 H164 0.980 . S
C138 H165 0.983 . S
C139 C140 1.391 . S
C139 C144 1.391 . S
C139 H169 0.948 . S
C140 C139 1.391 . S
C140 C141 1.391 . S
C141 C140 1.391 . S
C141 C142 1.392 . S
C141 H170 0.947 . S
C142 C141 1.392 . S
C142 C143 1.419 . S
C142 H171 0.948 . S
C143 C142 1.419 . S
C143 C144 1.391 . S
C143 C147 1.397 . S
C144 C139 1.391 . S
C144 C143 1.391 . S
C144 C145 1.399 . S
C145 C144 1.399 . S
C145 C146 1.396 . S
C145 C148 1.453 . S
C145 C149 1.684 . S
C146 C127 1.723 1_556 S
C146 C145 1.396 . S
C146 C147 1.394 . S
C147 C143 1.397 . S
C147 C146 1.394 . S
C147 C157 1.723 . S
C148 C145 1.453 . S
C148 H172 0.982 . S
C148 H173 0.979 . S
C148 H174 0.977 1_556 S
C149 C145 1.684 . S
C149 H175 0.979 . S
C149 H176 0.980 1_556 S
C149 H177 0.983 . S
C150 H126 0.948 . S
C150 C151 1.400 . S
C150 C155 1.391 . S
C151 C150 1.400 . S
C151 C152 1.381 1_556 S
C152 H129 0.947 . S
C152 C151 1.381 1_554 S
C152 C153 1.392 . S
C153 H130 0.948 . S
C153 C152 1.392 . S
C153 C154 1.419 . S
C154 C153 1.419 . S
C154 C155 1.391 1_554 S
C154 C158 1.397 . S
C155 C150 1.391 . S
C155 C154 1.391 1_556 S
C155 C156 1.399 . S
C156 C155 1.399 . S
C156 C157 1.396 . S
C156 C159 1.453 . S
C156 C160 1.684 . S
C157 C147 1.723 . S
C157 C156 1.396 . S
C157 C158 1.394 1_556 S
C158 C128 1.723 . S
C158 C154 1.397 . S
C158 C157 1.394 1_554 S
C159 H131 0.982 . S
C159 H135 0.979 . S
C159 H136 0.977 . S
C159 C156 1.453 . S
C160 H132 0.979 . S
C160 H133 0.980 . S
C160 H134 0.983 . S
C160 C156 1.684 . S
H161 C179 0.948 . S
H162 C120 0.948 . S
H163 C138 0.979 . S
H164 C138 0.980 . S
H165 C138 0.983 . S
H166 C137 0.982 . S
H167 C137 0.979 . S
H168 C137 0.977 . S
H169 C139 0.948 . S
H170 C141 0.947 . S
H171 C142 0.948 . S
H172 C148 0.982 . S
H173 C148 0.979 . S
H174 C148 0.977 1_554 S
H175 C149 0.979 . S
H176 C149 0.980 1_554 S
H177 C149 0.983 . S
H178 C122 0.947 . S
C179 C122 1.392 . S
C179 C123 1.419 . S
C179 H161 0.948 . S
C180 C181 1.391 . S
C180 C184 1.391 . S
C180 H222 0.948 . S
C181 C180 1.391 . S
C181 C182 1.391 . S
C182 C181 1.391 . S
C182 H238 0.947 . S
C182 C239 1.392 . S
C183 C184 1.391 . S
C183 C187 1.397 . S
C183 C239 1.419 . S
C184 C180 1.391 . S
C184 C183 1.391 . S
C184 C185 1.399 . S
C185 C184 1.399 . S
C185 C188 1.396 . S
C185 C197 1.453 . S
C185 C198 1.684 . S
H186 C210 0.948 . S
C187 C183 1.397 . S
C187 C188 1.394 . S
C187 C206 1.723 . S
C188 C185 1.396 . S
C188 C187 1.394 . S
C188 C218 1.723 . S
H189 C212 0.947 . S
H190 C213 0.948 . S
H191 C219 0.982 . S
H192 C220 0.979 . S
H193 C220 0.980 . S
H194 C220 0.983 . S
H195 C219 0.979 . S
H196 C219 0.977 . S
C197 C185 1.453 . S
C197 H226 0.982 . S
C197 H227 0.979 . S
C197 H228 0.977 . S
C198 C185 1.684 . S
C198 H223 0.979 . S
C198 H224 0.980 . S
C198 H225 0.983 . S
C199 C200 1.391 . S
C199 C204 1.391 . S
C199 H229 0.948 . S
C200 C199 1.391 . S
C200 C201 1.391 . S
C201 C200 1.391 . S
C201 C202 1.392 . S
C201 H230 0.947 . S
C202 C201 1.392 . S
C202 C203 1.419 . S
C202 H231 0.948 . S
C203 C202 1.419 . S
C203 C204 1.391 . S
C203 C207 1.397 . S
C204 C199 1.391 . S
C204 C203 1.391 . S
C204 C205 1.399 . S
C205 C204 1.399 . S
C205 C206 1.396 . S
C205 C208 1.453 . S
C205 C209 1.684 . S
C206 C187 1.723 . S
C206 C205 1.396 . S
C206 C207 1.394 . S
C207 C203 1.397 . S
C207 C206 1.394 . S
C207 C217 1.723 . S
C208 C205 1.453 . S
C208 H232 0.982 . S
C208 H233 0.979 . S
C208 H234 0.977 . S
C209 C205 1.684 . S
C209 H235 0.979 . S
C209 H236 0.980 . S
C209 H237 0.983 . S
C210 H186 0.948 . S
C210 C211 1.391 . S
C210 C215 1.391 . S
C211 C210 1.391 . S
C211 C212 1.391 . S
C212 H189 0.947 . S
C212 C211 1.391 . S
C212 C213 1.392 . S
C213 H190 0.948 . S
C213 C212 1.392 . S
C213 C214 1.419 . S
C214 C213 1.419 . S
C214 C215 1.391 . S
C214 C218 1.397 . S
C215 C210 1.391 . S
C215 C214 1.391 . S
C215 C216 1.399 . S
C216 C215 1.399 . S
C216 C217 1.396 . S
C216 C219 1.453 . S
C216 C220 1.684 . S
C217 C207 1.723 . S
C217 C216 1.396 . S
C217 C218 1.394 . S
C218 C188 1.723 . S
C218 C214 1.397 . S
C218 C217 1.394 . S
C219 H191 0.982 . S
C219 H195 0.979 . S
C219 H196 0.977 . S
C219 C216 1.453 . S
C220 H192 0.979 . S
C220 H193 0.980 . S
C220 H194 0.983 . S
C220 C216 1.684 . S
H221 C239 0.948 . S
H222 C180 0.948 . S
H223 C198 0.979 . S
H224 C198 0.980 . S
H225 C198 0.983 . S
H226 C197 0.982 . S
H227 C197 0.979 . S
H228 C197 0.977 . S
H229 C199 0.948 . S
H230 C201 0.947 . S
H231 C202 0.948 . S
H232 C208 0.982 . S
H233 C208 0.979 . S
H234 C208 0.977 . S
H235 C209 0.979 . S
H236 C209 0.980 . S
H237 C209 0.983 . S
H238 C182 0.947 . S
C239 C182 1.392 . S
C239 C183 1.419 . S
C239 H221 0.948 . S
O240 Mg241 1.990 1_655 S
O240 C254 1.253 . S
Mg241 O240 1.990 1_455 S
Mg241 O244 2.180 . S
Mg241 O245 2.117 . S
Mg241 O259 2.030 . S
O242 Mg243 2.072 1_655 S
O242 C254 1.260 . S
Mg243 O242 2.072 1_455 S
Mg243 O244 2.099 . S
Mg243 O246 2.071 1_545 S
Mg243 O247 2.072 1_455 S
Mg243 O249 2.099 1_445 S
Mg243 O260 2.079 1_545 S
O244 Mg241 2.180 . S
O244 Mg243 2.099 . S
O244 C255 1.279 . S
O245 Mg241 2.117 . S
O245 C255 1.250 . S
O246 Mg243 2.071 1_565 S
O246 C256 1.273 . S
O247 Mg243 2.072 1_655 S
O247 C257 1.260 . S
Mg248 O249 2.180 . S
Mg248 O250 2.030 1_655 S
Mg248 O251 1.990 1_565 S
Mg248 O252 2.117 . S
O249 Mg243 2.099 1_665 S
O249 Mg248 2.180 . S
O249 C258 1.279 . S
O250 Mg248 2.030 1_455 S
O250 C256 1.248 . S
O251 Mg248 1.990 1_545 S
O251 C257 1.253 . S
O252 Mg248 2.117 . S
O252 C258 1.250 . S
C253 O259 1.244 . S
C253 O260 1.265 1_545 S
C254 O240 1.253 . S
C254 O242 1.260 . S
C255 O244 1.279 . S
C255 O245 1.250 . S
C256 O246 1.273 . S
C256 O250 1.248 . S
C257 O247 1.260 . S
C257 O251 1.253 . S
C258 O249 1.279 . S
C258 O252 1.250 . S
O259 Mg241 2.030 . S
O259 C253 1.244 . S
O260 Mg243 2.079 1_565 S
O260 C253 1.265 1_565 S
O261 Mg262 1.990 . S
O261 C275 1.253 . S
Mg262 O261 1.990 . S
Mg262 O265 2.180 . S
Mg262 O266 2.117 . S
Mg262 O280 2.030 . S
O263 Mg264 2.072 . S
O263 C275 1.260 . S
Mg264 O263 2.072 . S
Mg264 O265 2.099 . S
Mg264 O267 2.079 1_554 S
Mg264 O268 2.072 . S
Mg264 O270 2.099 . S
Mg264 O281 2.079 . S
O265 Mg262 2.180 . S
O265 Mg264 2.099 . S
O265 C276 1.279 . S
O266 Mg262 2.117 . S
O266 C276 1.250 . S
O267 Mg264 2.079 1_556 S
O267 C277 1.264 . S
O268 Mg264 2.072 . S
O268 C278 1.260 1_554 S
Mg269 O270 2.180 1_556 S
Mg269 O271 2.030 . S
Mg269 O272 1.990 . S
Mg269 O273 2.117 1_556 S
O270 Mg264 2.099 . S
O270 Mg269 2.180 1_554 S
O270 C279 1.279 . S
O271 Mg269 2.030 . S
O271 C277 1.248 . S
O272 Mg269 1.990 . S
O272 C278 1.253 . S
O273 Mg269 2.117 1_554 S
O273 C279 1.250 . S
C274 O280 1.248 . S
C274 O281 1.264 . S
C275 O261 1.253 . S
C275 O263 1.260 . S
C276 O265 1.279 . S
C276 O266 1.250 . S
C277 O267 1.264 . S
C277 O271 1.248 . S
C278 O268 1.260 1_556 S
C278 O272 1.253 . S
C279 O270 1.279 . S
C279 O273 1.250 . S
O280 Mg262 2.030 . S
O280 C274 1.248 . S
O281 Mg264 2.079 . S
O281 C274 1.264 . S
H282 C290 0.929 . S
H283 C292 0.930 . S
H284 C294 0.930 . S
H285 C297 0.929 . S
H286 C300 0.930 . S
H287 C302 0.960 . S
H288 C302 0.960 . S
H289 C302 0.960 . S
C290 H282 0.929 . S
C290 C291 1.377 . S
C290 C292 1.384 . S
C291 C290 1.377 . S
C291 C297 1.390 . S
C292 H283 0.930 . S
C292 C290 1.384 . S
C292 C293 1.372 . S
C293 C292 1.372 . S
C293 C294 1.400 . S
C293 C298 1.490 . S
C294 H284 0.930 . S
C294 C293 1.400 . S
C294 C297 1.386 . S
H295 C311 0.930 . S
H296 C312 0.931 . S
C297 H285 0.929 . S
C297 C291 1.390 . S
C297 C294 1.386 . S
C298 C293 1.490 . S
C298 C300 1.395 . S
C298 C301 1.403 . S
H299 C305 0.930 . S
C300 H286 0.930 . S
C300 C298 1.395 . S
C300 C303 1.403 . S
C301 C298 1.403 . S
C301 C302 1.524 . S
C301 C305 1.400 . S
C302 H287 0.960 . S
C302 H288 0.960 . S
C302 H289 0.960 . S
C302 C301 1.524 . S
C303 C300 1.403 . S
C303 C304 1.392 . S
C303 C307 1.495 . S
C304 C303 1.392 . S
C304 C305 1.385 . S
C304 C306 1.478 . S
C305 H299 0.930 . S
C305 C301 1.400 . S
C305 C304 1.385 . S
C306 C304 1.478 . S
C306 C308 1.381 . S
C306 C312 1.383 . S
C307 C303 1.495 . S
C307 H313 0.959 . S
C307 H314 0.961 . S
C307 H315 0.960 . S
C308 C306 1.381 . S
C308 C309 1.394 . S
C308 H316 0.930 . S
C309 C308 1.394 . S
C309 C310 1.383 . S
C309 H317 0.929 . S
C310 C309 1.383 . S
C310 C311 1.377 . S
C311 H295 0.930 . S
C311 C310 1.377 . S
C311 C312 1.379 . S
C312 H296 0.931 . S
C312 C306 1.383 . S
C312 C311 1.379 . S
H313 C307 0.959 . S
H314 C307 0.961 . S
H315 C307 0.960 . S
H316 C308 0.930 . S
H317 C309 0.929 . S
H318 C326 0.929 . S
H319 C328 0.930 . S
H320 C330 0.930 . S
H321 C333 0.929 . S
H322 C336 0.930 . S
H323 C338 0.960 . S
H324 C338 0.960 . S
H325 C338 0.960 . S
C326 H318 0.929 . S
C326 C327 1.377 . S
C326 C328 1.384 . S
C327 C326 1.377 . S
C327 C333 1.390 . S
C328 H319 0.930 . S
C328 C326 1.384 . S
C328 C329 1.372 . S
C329 C328 1.372 . S
C329 C330 1.400 . S
C329 C334 1.490 . S
C330 H320 0.930 . S
C330 C329 1.400 . S
C330 C333 1.386 . S
H331 C347 0.930 . S
H332 C348 0.931 . S
C333 H321 0.929 . S
C333 C327 1.390 . S
C333 C330 1.386 . S
C334 C329 1.490 . S
C334 C336 1.395 . S
C334 C337 1.403 . S
H335 C341 0.930 . S
C336 H322 0.930 . S
C336 C334 1.395 . S
C336 C339 1.403 . S
C337 C334 1.403 . S
C337 C338 1.524 . S
C337 C341 1.400 . S
C338 H323 0.960 . S
C338 H324 0.960 . S
C338 H325 0.960 . S
C338 C337 1.524 . S
C339 C336 1.403 . S
C339 C340 1.392 . S
C339 C343 1.495 . S
C340 C339 1.392 . S
C340 C341 1.385 . S
C340 C342 1.478 . S
C341 H335 0.930 . S
C341 C337 1.400 . S
C341 C340 1.385 . S
C342 C340 1.478 . S
C342 C344 1.381 . S
C342 C348 1.383 . S
C343 C339 1.495 . S
C343 H349 0.959 . S
C343 H350 0.961 . S
C343 H351 0.960 . S
C344 C342 1.381 . S
C344 C345 1.394 . S
C344 H352 0.930 . S
C345 C344 1.394 . S
C345 C346 1.383 . S
C345 H353 0.929 . S
C346 C345 1.383 . S
C346 C347 1.377 . S
C347 H331 0.930 . S
C347 C346 1.377 . S
C347 C348 1.379 . S
C348 H332 0.931 . S
C348 C342 1.383 . S
C348 C347 1.379 . S
H349 C343 0.959 . S
H350 C343 0.961 . S
H351 C343 0.960 . S
H352 C344 0.930 . S
H353 C345 0.929 . S
H354 C362 0.929 . S
H355 C364 0.930 . S
H356 C366 0.930 . S
H357 C369 0.929 . S
H358 C372 0.930 . S
H359 C374 0.960 . S
H360 C374 0.960 . S
H361 C374 0.960 . S
C362 H354 0.929 . S
C362 C363 1.377 . S
C362 C364 1.384 . S
C363 C362 1.377 . S
C363 C369 1.390 . S
C364 H355 0.930 . S
C364 C362 1.384 . S
C364 C365 1.372 . S
C365 C364 1.372 . S
C365 C366 1.400 . S
C365 C370 1.490 . S
C366 H356 0.930 . S
C366 C365 1.400 . S
C366 C369 1.386 . S
H367 C383 0.930 . S
H368 C384 0.931 . S
C369 H357 0.929 . S
C369 C363 1.390 . S
C369 C366 1.386 . S
C370 C365 1.490 . S
C370 C372 1.395 . S
C370 C373 1.403 . S
H371 C377 0.930 . S
C372 H358 0.930 . S
C372 C370 1.395 . S
C372 C375 1.403 . S
C373 C370 1.403 . S
C373 C374 1.524 . S
C373 C377 1.400 . S
C374 H359 0.960 . S
C374 H360 0.960 . S
C374 H361 0.960 . S
C374 C373 1.524 . S
C375 C372 1.403 . S
C375 C376 1.392 . S
C375 C379 1.495 . S
C376 C375 1.392 . S
C376 C377 1.385 . S
C376 C378 1.478 . S
C377 H371 0.930 . S
C377 C373 1.400 . S
C377 C376 1.385 . S
C378 C376 1.478 . S
C378 C380 1.381 . S
C378 C384 1.383 . S
C379 C375 1.495 . S
C379 H385 0.959 . S
C379 H386 0.961 . S
C379 H387 0.960 . S
C380 C378 1.381 . S
C380 C381 1.394 . S
C380 H388 0.930 . S
C381 C380 1.394 . S
C381 C382 1.383 . S
C381 H389 0.929 . S
C382 C381 1.383 . S
C382 C383 1.377 . S
C383 H367 0.930 . S
C383 C382 1.377 . S
C383 C384 1.379 . S
C384 H368 0.931 . S
C384 C378 1.383 . S
C384 C383 1.379 . S
H385 C379 0.959 . S
H386 C379 0.961 . S
H387 C379 0.960 . S
H388 C380 0.930 . S
H389 C381 0.929 . S
H390 C398 0.929 . S
H391 C400 0.930 . S
H392 C402 0.930 . S
H393 C405 0.929 . S
H394 C408 0.930 . S
H395 C410 0.960 . S
H396 C410 0.960 . S
H397 C410 0.960 . S
C398 H390 0.929 . S
C398 C399 1.377 . S
C398 C400 1.384 . S
C399 C398 1.377 . S
C399 C405 1.390 1_556 S
C400 H391 0.930 . S
C400 C398 1.384 . S
C400 C401 1.372 1_556 S
C401 C400 1.372 1_554 S
C401 C402 1.400 . S
C401 C406 1.490 . S
C402 H392 0.930 . S
C402 C401 1.400 . S
C402 C405 1.386 . S
H403 C419 0.930 . S
H404 C420 0.931 . S
C405 H393 0.929 . S
C405 C399 1.390 1_554 S
C405 C402 1.386 . S
C406 C401 1.490 . S
C406 C408 1.395 . S
C406 C409 1.403 1_554 S
H407 C413 0.930 1_556 S
C408 H394 0.930 . S
C408 C406 1.395 . S
C408 C411 1.403 . S
C409 C406 1.403 1_556 S
C409 C410 1.524 . S
C409 C413 1.400 1_556 S
C410 H395 0.960 . S
C410 H396 0.960 . S
C410 H397 0.960 . S
C410 C409 1.524 . S
C411 C408 1.403 . S
C411 C412 1.392 . S
C411 C415 1.495 . S
C412 C411 1.392 . S
C412 C413 1.385 . S
C412 C414 1.478 . S
C413 H407 0.930 1_554 S
C413 C409 1.400 1_554 S
C413 C412 1.385 . S
C414 C412 1.478 . S
C414 C416 1.366 1_554 S
C414 C420 1.383 . S
C415 C411 1.495 . S
C415 H421 0.959 . S
C415 H422 0.961 . S
C415 H423 0.960 . S
C416 C414 1.366 1_556 S
C416 C417 1.391 1_556 S
C416 H424 0.950 . S
C417 C416 1.391 1_554 S
C417 C418 1.383 . S
C417 H425 0.929 1_554 S
C418 C417 1.383 . S
C418 C419 1.377 . S
C419 H403 0.930 . S
C419 C418 1.377 . S
C419 C420 1.379 . S
C420 H404 0.931 . S
C420 C414 1.383 . S
C420 C419 1.379 . S
H421 C415 0.959 . S
H422 C415 0.961 . S
H423 C415 0.960 . S
H424 C416 0.950 . S
H425 C417 0.929 1_556 S
H426 C434 0.929 . S
H427 C436 0.930 . S
H428 C438 0.930 . S
H429 C441 0.929 . S
H430 C444 0.930 . S
H431 C446 0.960 . S
H432 C446 0.960 . S
H433 C446 0.960 . S
C434 H426 0.929 . S
C434 C435 1.377 . S
C434 C436 1.384 . S
C435 C434 1.377 . S
C435 C441 1.390 . S
C436 H427 0.930 . S
C436 C434 1.384 . S
C436 C437 1.372 . S
C437 C436 1.372 . S
C437 C438 1.400 . S
C437 C442 1.490 . S
C438 H428 0.930 . S
C438 C437 1.400 . S
C438 C441 1.386 . S
H439 C455 0.930 . S
H440 C456 0.931 . S
C441 H429 0.929 . S
C441 C435 1.390 . S
C441 C438 1.386 . S
C442 C437 1.490 . S
C442 C444 1.395 . S
C442 C445 1.403 . S
H443 C449 0.930 . S
C444 H430 0.930 . S
C444 C442 1.395 . S
C444 C447 1.403 . S
C445 C442 1.403 . S
C445 C446 1.524 . S
C445 C449 1.400 . S
C446 H431 0.960 . S
C446 H432 0.960 . S
C446 H433 0.960 . S
C446 C445 1.524 . S
C447 C444 1.403 . S
C447 C448 1.392 . S
C447 C451 1.495 . S
C448 C447 1.392 . S
C448 C449 1.385 . S
C448 C450 1.478 . S
C449 H443 0.930 . S
C449 C445 1.400 . S
C449 C448 1.385 . S
C450 C448 1.478 . S
C450 C452 1.381 . S
C450 C456 1.383 . S
C451 C447 1.495 . S
C451 H457 0.959 . S
C451 H458 0.961 . S
C451 H459 0.960 . S
C452 C450 1.381 . S
C452 C453 1.387 1_565 S
C452 H460 0.930 1_565 S
C453 C452 1.387 1_545 S
C453 C454 1.367 1_545 S
C453 H461 0.954 . S
C454 C453 1.367 1_565 S
C454 C455 1.377 . S
C455 H439 0.930 . S
C455 C454 1.377 . S
C455 C456 1.379 . S
C456 H440 0.931 . S
C456 C450 1.383 . S
C456 C455 1.379 . S
H457 C451 0.959 . S
H458 C451 0.961 . S
H459 C451 0.960 . S
H460 C452 0.930 1_545 S
H461 C453 0.954 . S
H462 C470 0.929 . S
H463 C472 0.930 . S
H464 C474 0.930 . S
H465 C477 0.929 . S
H466 C480 0.930 . S
H467 C482 0.960 . S
H468 C482 0.960 . S
H469 C482 0.960 . S
C470 H462 0.929 . S
C470 C471 1.377 . S
C470 C472 1.384 . S
C471 C470 1.377 . S
C471 C477 1.390 . S
C472 H463 0.930 . S
C472 C470 1.384 . S
C472 C473 1.372 . S
C473 C472 1.372 . S
C473 C474 1.400 . S
C473 C478 1.490 . S
C474 H464 0.930 . S
C474 C473 1.400 . S
C474 C477 1.386 . S
H475 C491 0.930 . S
H476 C492 0.931 . S
C477 H465 0.929 . S
C477 C471 1.390 . S
C477 C474 1.386 . S
C478 C473 1.490 . S
C478 C480 1.395 . S
C478 C481 1.403 . S
H479 C485 0.930 . S
C480 H466 0.930 . S
C480 C478 1.395 . S
C480 C483 1.403 . S
C481 C478 1.403 . S
C481 C482 1.524 . S
C481 C485 1.400 . S
C482 H467 0.960 . S
C482 H468 0.960 . S
C482 H469 0.960 . S
C482 C481 1.524 . S
C483 C480 1.403 . S
C483 C484 1.392 . S
C483 C487 1.495 . S
C484 C483 1.392 . S
C484 C485 1.385 . S
C484 C486 1.478 . S
C485 H479 0.930 . S
C485 C481 1.400 . S
C485 C484 1.385 . S
C486 C484 1.478 . S
C486 C488 1.381 . S
C486 C492 1.383 . S
C487 C483 1.495 . S
C487 H493 0.959 . S
C487 H494 0.961 . S
C487 H495 0.960 . S
C488 C486 1.381 . S
C488 C489 1.394 . S
C488 H496 0.930 . S
C489 C488 1.394 . S
C489 C490 1.383 . S
C489 H497 0.929 . S
C490 C489 1.383 . S
C490 C491 1.377 . S
C491 H475 0.930 . S
C491 C490 1.377 . S
C491 C492 1.379 . S
C492 H476 0.931 . S
C492 C486 1.383 . S
C492 C491 1.379 . S
H493 C487 0.959 . S
H494 C487 0.961 . S
H495 C487 0.960 . S
H496 C488 0.930 . S
H497 C489 0.929 . S
H498 C506 0.929 . S
H499 C508 0.930 . S
H500 C510 0.930 . S
H501 C513 0.929 . S
H502 C516 0.930 . S
H503 C518 0.960 . S
H504 C518 0.960 . S
H505 C518 0.960 . S
C506 H498 0.929 . S
C506 C507 1.377 . S
C506 C508 1.384 . S
C507 C506 1.377 . S
C507 C513 1.390 . S
C508 H499 0.930 . S
C508 C506 1.384 . S
C508 C509 1.372 . S
C509 C508 1.372 . S
C509 C510 1.400 . S
C509 C514 1.490 . S
C510 H500 0.930 . S
C510 C509 1.400 . S
C510 C513 1.386 . S
H511 C527 0.930 . S
H512 C528 0.931 . S
C513 H501 0.929 . S
C513 C507 1.390 . S
C513 C510 1.386 . S
C514 C509 1.490 . S
C514 C516 1.395 . S
C514 C517 1.403 . S
H515 C521 0.930 . S
C516 H502 0.930 . S
C516 C514 1.395 . S
C516 C519 1.403 . S
C517 C514 1.403 . S
C517 C518 1.524 . S
C517 C521 1.400 . S
C518 H503 0.960 . S
C518 H504 0.960 . S
C518 H505 0.960 . S
C518 C517 1.524 . S
C519 C516 1.403 . S
C519 C520 1.392 . S
C519 C523 1.495 . S
C520 C519 1.392 . S
C520 C521 1.385 . S
C520 C522 1.478 . S
C521 H515 0.930 . S
C521 C517 1.400 . S
C521 C520 1.385 . S
C522 C520 1.478 . S
C522 C524 1.381 . S
C522 C528 1.383 . S
C523 C519 1.495 . S
C523 H529 0.959 . S
C523 H530 0.961 . S
C523 H531 0.960 . S
C524 C522 1.381 . S
C524 C525 1.394 . S
C524 H532 0.930 . S
C525 C524 1.394 . S
C525 C526 1.383 . S
C525 H533 0.929 . S
C526 C525 1.383 . S
C526 C527 1.377 . S
C527 H511 0.930 . S
C527 C526 1.377 . S
C527 C528 1.379 . S
C528 H512 0.931 . S
C528 C522 1.383 . S
C528 C527 1.379 . S
H529 C523 0.959 . S
H530 C523 0.961 . S
H531 C523 0.960 . S
H532 C524 0.930 . S
H533 C525 0.929 . S
H534 C542 0.929 . S
H535 C544 0.930 . S
H536 C546 0.930 . S
H537 C549 0.929 . S
H538 C552 0.930 . S
H539 C554 0.960 . S
H540 C554 0.960 . S
H541 C554 0.960 . S
C542 H534 0.929 . S
C542 C543 1.377 . S
C542 C544 1.384 . S
C543 C542 1.377 . S
C543 C549 1.390 . S
C544 H535 0.930 . S
C544 C542 1.384 . S
C544 C545 1.372 . S
C545 C544 1.372 . S
C545 C546 1.400 . S
C545 C550 1.490 . S
C546 H536 0.930 . S
C546 C545 1.400 . S
C546 C549 1.386 . S
H547 C563 0.930 . S
H548 C564 0.931 . S
C549 H537 0.929 . S
C549 C543 1.390 . S
C549 C546 1.386 . S
C550 C545 1.490 . S
C550 C552 1.395 . S
C550 C553 1.403 . S
H551 C557 0.930 . S
C552 H538 0.930 . S
C552 C550 1.395 . S
C552 C555 1.403 . S
C553 C550 1.403 . S
C553 C554 1.524 . S
C553 C557 1.400 . S
C554 H539 0.960 . S
C554 H540 0.960 . S
C554 H541 0.960 . S
C554 C553 1.524 . S
C555 C552 1.403 . S
C555 C556 1.392 . S
C555 C559 1.495 . S
C556 C555 1.392 . S
C556 C557 1.385 . S
C556 C558 1.478 . S
C557 H551 0.930 . S
C557 C553 1.400 . S
C557 C556 1.385 . S
C558 C556 1.478 . S
C558 C560 1.381 . S
C558 C564 1.383 . S
C559 C555 1.495 . S
C559 H565 0.959 . S
C559 H566 0.961 . S
C559 H567 0.960 . S
C560 C558 1.381 . S
C560 C561 1.394 . S
C560 H568 0.930 . S
C561 C560 1.394 . S
C561 C562 1.383 . S
C561 H569 0.929 . S
C562 C561 1.383 . S
C562 C563 1.377 . S
C563 H547 0.930 . S
C563 C562 1.377 . S
C563 C564 1.379 . S
C564 H548 0.931 . S
C564 C558 1.383 . S
C564 C563 1.379 . S
H565 C559 0.959 . S
H566 C559 0.961 . S
H567 C559 0.960 . S
H568 C560 0.930 . S
H569 C561 0.929 . S
H570 C578 0.929 . S
H571 C580 0.930 . S
H572 C582 0.930 . S
H573 C585 0.929 . S
H574 C588 0.930 . S
H575 C590 0.960 . S
H576 C590 0.960 . S
H577 C590 0.960 . S
C578 H570 0.929 . S
C578 C579 1.377 . S
C578 C580 1.384 . S
C579 C578 1.377 . S
C579 C585 1.390 . S
C580 H571 0.930 . S
C580 C578 1.384 . S
C580 C581 1.372 . S
C581 C580 1.372 . S
C581 C582 1.400 . S
C581 C586 1.490 . S
C582 H572 0.930 . S
C582 C581 1.400 . S
C582 C585 1.386 . S
H583 C599 0.930 . S
H584 C600 0.931 . S
C585 H573 0.929 . S
C585 C579 1.390 . S
C585 C582 1.386 . S
C586 C581 1.490 . S
C586 C588 1.395 . S
C586 C589 1.403 . S
H587 C593 0.930 . S
C588 H574 0.930 . S
C588 C586 1.395 . S
C588 C591 1.403 . S
C589 C586 1.403 . S
C589 C590 1.524 . S
C589 C593 1.400 . S
C590 H575 0.960 . S
C590 H576 0.960 . S
C590 H577 0.960 . S
C590 C589 1.524 . S
C591 C588 1.403 . S
C591 C592 1.392 . S
C591 C595 1.495 . S
C592 C591 1.392 . S
C592 C593 1.385 . S
C592 C594 1.478 . S
C593 H587 0.930 . S
C593 C589 1.400 . S
C593 C592 1.385 . S
C594 C592 1.478 . S
C594 C596 1.381 . S
C594 C600 1.383 . S
C595 C591 1.495 . S
C595 H601 0.959 . S
C595 H602 0.961 . S
C595 H603 0.960 . S
C596 C594 1.381 . S
C596 C597 1.394 . S
C596 H604 0.930 . S
C597 C596 1.394 . S
C597 C598 1.383 . S
C597 H605 0.929 . S
C598 C597 1.383 . S
C598 C599 1.377 . S
C599 H583 0.930 . S
C599 C598 1.377 . S
C599 C600 1.379 . S
C600 H584 0.931 . S
C600 C594 1.383 . S
C600 C599 1.379 . S
H601 C595 0.959 . S
H602 C595 0.961 . S
H603 C595 0.960 . S
H604 C596 0.930 . S
H605 C597 0.929 . S
H606 C614 0.929 . S
H607 C616 0.930 . S
H608 C618 0.930 . S
H609 C621 0.929 . S
H610 C624 0.930 . S
H611 C626 0.960 . S
H612 C626 0.960 . S
H613 C626 0.960 . S
C614 H606 0.929 . S
C614 C615 1.377 . S
C614 C616 1.384 . S
C615 C614 1.377 . S
C615 C621 1.390 . S
C616 H607 0.930 . S
C616 C614 1.384 . S
C616 C617 1.372 . S
C617 C616 1.372 . S
C617 C618 1.400 . S
C617 C622 1.490 . S
C618 H608 0.930 . S
C618 C617 1.400 . S
C618 C621 1.386 . S
H619 C635 0.930 . S
H620 C636 0.931 . S
C621 H609 0.929 . S
C621 C615 1.390 . S
C621 C618 1.386 . S
C622 C617 1.490 . S
C622 C624 1.395 . S
C622 C625 1.403 . S
H623 C629 0.930 . S
C624 H610 0.930 . S
C624 C622 1.395 . S
C624 C627 1.403 . S
C625 C622 1.403 . S
C625 C626 1.524 . S
C625 C629 1.400 . S
C626 H611 0.960 . S
C626 H612 0.960 . S
C626 H613 0.960 . S
C626 C625 1.524 . S
C627 C624 1.403 . S
C627 C628 1.392 . S
C627 C631 1.495 . S
C628 C627 1.392 . S
C628 C629 1.385 . S
C628 C630 1.478 . S
C629 H623 0.930 . S
C629 C625 1.400 . S
C629 C628 1.385 . S
C630 C628 1.478 . S
C630 C632 1.381 . S
C630 C636 1.383 . S
C631 C627 1.495 . S
C631 H637 0.959 . S
C631 H638 0.961 . S
C631 H639 0.960 . S
C632 C630 1.381 . S
C632 C633 1.394 . S
C632 H640 0.930 . S
C633 C632 1.394 . S
C633 C634 1.383 . S
C633 H641 0.929 . S
C634 C633 1.383 . S
C634 C635 1.377 . S
C635 H619 0.930 . S
C635 C634 1.377 . S
C635 C636 1.379 . S
C636 H620 0.931 . S
C636 C630 1.383 . S
C636 C635 1.379 . S
H637 C631 0.959 . S
H638 C631 0.961 . S
H639 C631 0.960 . S
H640 C632 0.930 . S
H641 C633 0.929 . S
H642 C650 0.929 . S
H643 C652 0.930 . S
H644 C654 0.930 . S
H645 C657 0.929 . S
H646 C660 0.930 . S
H647 C662 0.960 . S
H648 C662 0.960 . S
H649 C662 0.960 . S
C650 H642 0.929 . S
C650 C651 1.377 . S
C650 C652 1.384 . S
C651 C650 1.377 . S
C651 C657 1.390 . S
C652 H643 0.930 . S
C652 C650 1.384 . S
C652 C653 1.372 . S
C653 C652 1.372 . S
C653 C654 1.400 . S
C653 C658 1.490 . S
C654 H644 0.930 . S
C654 C653 1.400 . S
C654 C657 1.386 . S
H655 C671 0.930 . S
H656 C672 0.931 . S
C657 H645 0.929 . S
C657 C651 1.390 . S
C657 C654 1.386 . S
C658 C653 1.490 . S
C658 C660 1.395 . S
C658 C661 1.403 . S
H659 C665 0.930 . S
C660 H646 0.930 . S
C660 C658 1.395 . S
C660 C663 1.403 . S
C661 C658 1.403 . S
C661 C662 1.524 . S
C661 C665 1.400 . S
C662 H647 0.960 . S
C662 H648 0.960 . S
C662 H649 0.960 . S
C662 C661 1.524 . S
C663 C660 1.403 . S
C663 C664 1.392 . S
C663 C667 1.495 . S
C664 C663 1.392 . S
C664 C665 1.385 . S
C664 C666 1.478 . S
C665 H659 0.930 . S
C665 C661 1.400 . S
C665 C664 1.385 . S
C666 C664 1.478 . S
C666 C668 1.381 . S
C666 C672 1.383 . S
C667 C663 1.495 . S
C667 H673 0.959 . S
C667 H674 0.961 . S
C667 H675 0.960 . S
C668 C666 1.381 . S
C668 C669 1.394 . S
C668 H676 0.930 . S
C669 C668 1.394 . S
C669 C670 1.383 . S
C669 H677 0.929 . S
C670 C669 1.383 . S
C670 C671 1.377 . S
C671 H655 0.930 . S
C671 C670 1.377 . S
C671 C672 1.379 . S
C672 H656 0.931 . S
C672 C666 1.383 . S
C672 C671 1.379 . S
H673 C667 0.959 . S
H674 C667 0.961 . S
H675 C667 0.960 . S
H676 C668 0.930 . S
H677 C669 0.929 . S
H678 C686 0.929 . S
H679 C688 0.930 . S
H680 C690 0.930 . S
H681 C693 0.929 . S
H682 C696 0.930 . S
H683 C698 0.960 . S
H684 C698 0.960 . S
H685 C698 0.960 . S
C686 H678 0.929 . S
C686 C687 1.377 . S
C686 C688 1.384 . S
C687 C686 1.377 . S
C687 C693 1.390 . S
C688 H679 0.930 . S
C688 C686 1.384 . S
C688 C689 1.372 . S
C689 C688 1.372 . S
C689 C690 1.400 . S
C689 C694 1.490 . S
C690 H680 0.930 . S
C690 C689 1.400 . S
C690 C693 1.386 . S
H691 C707 0.930 . S
H692 C708 0.931 . S
C693 H681 0.929 . S
C693 C687 1.390 . S
C693 C690 1.386 . S
C694 C689 1.490 . S
C694 C696 1.395 . S
C694 C697 1.403 . S
H695 C701 0.930 . S
C696 H682 0.930 . S
C696 C694 1.395 . S
C696 C699 1.403 . S
C697 C694 1.403 . S
C697 C698 1.524 . S
C697 C701 1.400 . S
C698 H683 0.960 . S
C698 H684 0.960 . S
C698 H685 0.960 . S
C698 C697 1.524 . S
C699 C696 1.403 . S
C699 C700 1.392 . S
C699 C703 1.495 1_565 S
C700 C699 1.392 . S
C700 C701 1.385 . S
C700 C702 1.478 . S
C701 H695 0.930 . S
C701 C697 1.400 . S
C701 C700 1.385 . S
C702 C700 1.478 . S
C702 C704 1.381 . S
C702 C708 1.383 . S
C703 C699 1.495 1_545 S
C703 H709 0.959 . S
C703 H710 0.961 . S
C703 H711 0.960 . S
C704 C702 1.381 . S
C704 C705 1.394 1_565 S
C704 H712 0.930 1_565 S
C705 C704 1.394 1_545 S
C705 C706 1.383 1_545 S
C705 H713 0.929 . S
C706 C705 1.383 1_565 S
C706 C707 1.377 . S
C707 H691 0.930 . S
C707 C706 1.377 . S
C707 C708 1.379 . S
C708 H692 0.931 . S
C708 C702 1.383 . S
C708 C707 1.379 . S
H709 C703 0.959 . S
H710 C703 0.961 . S
H711 C703 0.960 . S
H712 C704 0.930 1_545 S
H713 C705 0.929 . S
C310 C255 1.343 . S
C291 C211 1.512 . S
C327 C31 1.432 . S
C346 C279 1.352 . S
C363 C91 1.636 . S
C382 C258 1.484 . S
C399 C151 1.657 . S
C418 C276 1.439 . S
C454 C256 1.572 . S
C435 C20 1.582 . S
C490 C278 1.559 . S
C471 C61 1.540 . S
C507 C121 1.570 . S
C526 C257 1.497 . S
C543 C200 1.593 . S
C562 C277 1.548 . S
C598 C275 1.527 . S
C579 C80 1.538 . S
C634 C254 1.559 . S
C615 C140 1.616 . S
C670 C274 1.610 . S
C651 C181 1.585 . S
C687 C1 1.533 . S
C706 C253 1.505 1_565 S
