# Generated by pormake.
# Topology pyr, (3,6)-cn, num edge types: 1
# Building blocks:
#     Node 0, Type 0, BuildingBlock: CUQRIR_clean_linker_1, # of connection points: 3
#     Node 1, Type 0, BuildingBlock: CUQRIR_clean_linker_1, # of connection points: 3
#     Node 2, Type 0, BuildingBlock: CUQRIR_clean_linker_1, # of connection points: 3
#     Node 3, Type 0, BuildingBlock: CUQRIR_clean_linker_1, # of connection points: 3
#     Node 4, Type 0, BuildingBlock: CUQRIR_clean_linker_1, # of connection points: 3
#     Node 5, Type 0, BuildingBlock: CUQRIR_clean_linker_1, # of connection points: 3
#     Node 6, Type 0, BuildingBlock: CUQRIR_clean_linker_1, # of connection points: 3
#     Node 7, Type 0, BuildingBlock: CUQRIR_clean_linker_1, # of connection points: 3
#     Node 8, Type 1, BuildingBlock: BETFEN_clean_sbu_0, # of connection points: 6
#     Node 9, Type 1, BuildingBlock: BETFEN_clean_sbu_0, # of connection points: 6
#     Node 10, Type 1, BuildingBlock: BETFEN_clean_sbu_0, # of connection points: 6
#     Node 11, Type 1, BuildingBlock: BETFEN_clean_sbu_0, # of connection points: 6
#     Edge 12, Type (0, 1), BuildingBlock: XUDNAN_clean_linker_2, # of connection points: 2
#     Edge 13, Type (0, 1), BuildingBlock: XUDNAN_clean_linker_2, # of connection points: 2
#     Edge 14, Type (0, 1), BuildingBlock: XUDNAN_clean_linker_2, # of connection points: 2
#     Edge 15, Type (0, 1), BuildingBlock: XUDNAN_clean_linker_2, # of connection points: 2
#     Edge 16, Type (0, 1), BuildingBlock: XUDNAN_clean_linker_2, # of connection points: 2
#     Edge 17, Type (0, 1), BuildingBlock: XUDNAN_clean_linker_2, # of connection points: 2
#     Edge 18, Type (0, 1), BuildingBlock: XUDNAN_clean_linker_2, # of connection points: 2
#     Edge 19, Type (0, 1), BuildingBlock: XUDNAN_clean_linker_2, # of connection points: 2
#     Edge 20, Type (0, 1), BuildingBlock: XUDNAN_clean_linker_2, # of connection points: 2
#     Edge 21, Type (0, 1), BuildingBlock: XUDNAN_clean_linker_2, # of connection points: 2
#     Edge 22, Type (0, 1), BuildingBlock: XUDNAN_clean_linker_2, # of connection points: 2
#     Edge 23, Type (0, 1), BuildingBlock: XUDNAN_clean_linker_2, # of connection points: 2
#     Edge 24, Type (0, 1), BuildingBlock: XUDNAN_clean_linker_2, # of connection points: 2
#     Edge 25, Type (0, 1), BuildingBlock: XUDNAN_clean_linker_2, # of connection points: 2
#     Edge 26, Type (0, 1), BuildingBlock: XUDNAN_clean_linker_2, # of connection points: 2
#     Edge 27, Type (0, 1), BuildingBlock: XUDNAN_clean_linker_2, # of connection points: 2
#     Edge 28, Type (0, 1), BuildingBlock: XUDNAN_clean_linker_2, # of connection points: 2
#     Edge 29, Type (0, 1), BuildingBlock: XUDNAN_clean_linker_2, # of connection points: 2
#     Edge 30, Type (0, 1), BuildingBlock: XUDNAN_clean_linker_2, # of connection points: 2
#     Edge 31, Type (0, 1), BuildingBlock: XUDNAN_clean_linker_2, # of connection points: 2
#     Edge 32, Type (0, 1), BuildingBlock: XUDNAN_clean_linker_2, # of connection points: 2
#     Edge 33, Type (0, 1), BuildingBlock: XUDNAN_clean_linker_2, # of connection points: 2
#     Edge 34, Type (0, 1), BuildingBlock: XUDNAN_clean_linker_2, # of connection points: 2
#     Edge 35, Type (0, 1), BuildingBlock: XUDNAN_clean_linker_2, # of connection points: 2
# Relax obj value: 0.211
# Max RMSD: 0.328
# Mean RMSD: 0.170
data_MOF--net-pyr--node1-BETFEN_clean_sbu_0--node2-CUQRIR_clean_linker_1--edge1-XUDNAN_clean_linker_2
_symmetry_space_group_name_H-M    P1
_symmetry_Int_Tables_number       1
_symmetry_cell_setting            triclinic
loop_
_symmetry_equiv_pos_as_xyz
'x, y, z'
_cell_length_a     34.2638
_cell_length_b     37.904507
_cell_length_c     33.696358
_cell_angle_alpha  90.414364
_cell_angle_beta   100.19308
_cell_angle_gamma 114.45968
loop_
_atom_site_label
_atom_site_type_symbol
_atom_site_fract_x
_atom_site_fract_y
_atom_site_fract_z
_atom_type_partial_charge
C0 C 0.42654 0.44883 0.29562 0.0
N1 N 0.44165 0.42339 0.31228 0.0
N2 N 0.44156 0.46043 0.26107 0.0
C3 C 0.39093 0.4568 0.30894 0.0
C4 C 0.46636 0.44093 0.2576 0.0
N5 N 0.46591 0.41802 0.28829 0.0
C6 C 0.48965 0.44299 0.22323 0.0
H7 H 0.36242 0.4484 0.28351 0.0
H8 H 0.4031 0.48835 0.31748 0.0
H9 H 0.38003 0.44101 0.33534 0.0
H10 H 0.49713 0.47104 0.20955 0.0
H11 H 0.46869 0.41893 0.19953 0.0
H12 H 0.52036 0.43965 0.23414 0.0
C13 C 0.33443 0.90955 0.69941 0.0
N14 N 0.32836 0.93194 0.7271 0.0
N15 N 0.36694 0.89924 0.71532 0.0
C16 C 0.30569 0.89461 0.65825 0.0
C17 C 0.38025 0.91608 0.75364 0.0
N18 N 0.35604 0.93501 0.76143 0.0
C19 C 0.41675 0.91292 0.78357 0.0
H20 H 0.27098 0.87998 0.66135 0.0
H21 H 0.31442 0.87407 0.64224 0.0
H22 H 0.30906 0.91947 0.63982 0.0
H23 H 0.43091 0.93689 0.80819 0.0
H24 H 0.44298 0.91368 0.76793 0.0
H25 H 0.40409 0.88457 0.79681 0.0
C26 C 0.59313 0.32847 0.86743 0.0
N27 N 0.61891 0.32452 0.90127 0.0
N28 N 0.61157 0.36466 0.85463 0.0
C29 C 0.54899 0.29765 0.84795 0.0
C30 C 0.64966 0.38251 0.8819 0.0
N31 N 0.65386 0.35848 0.91042 0.0
C32 C 0.68535 0.42161 0.87761 0.0
H33 H 0.55303 0.27921 0.82473 0.0
H34 H 0.52762 0.31103 0.83285 0.0
H35 H 0.53305 0.2788 0.87073 0.0
H36 H 0.68177 0.44446 0.8954 0.0
H37 H 0.68344 0.42838 0.84556 0.0
H38 H 0.71822 0.42263 0.88919 0.0
C39 C 0.86298 0.67389 0.35156 0.0
N40 N 0.89641 0.70465 0.34018 0.0
N41 N 0.84728 0.68516 0.38151 0.0
C42 C 0.84889 0.63206 0.33667 0.0
C43 C 0.87271 0.72396 0.38827 0.0
N44 N 0.90307 0.73579 0.36428 0.0
C45 C 0.86588 0.7512 0.4164 0.0
H46 H 0.82328 0.62438 0.30878 0.0
H47 H 0.83527 0.6123 0.35974 0.0
H48 H 0.87684 0.6274 0.32938 0.0
H49 H 0.88557 0.75341 0.447 0.0
H50 H 0.83097 0.74047 0.41855 0.0
H51 H 0.87644 0.78088 0.40622 0.0
C52 C 0.60965 0.73874 0.78968 0.0
N53 N 0.6424 0.72886 0.78477 0.0
N54 N 0.60313 0.76149 0.76064 0.0
C55 C 0.58655 0.72926 0.82489 0.0
C56 C 0.63269 0.76435 0.73744 0.0
N57 N 0.65557 0.74381 0.75145 0.0
C58 C 0.6454 0.79301 0.70607 0.0
H59 H 0.5508 0.71861 0.81393 0.0
H60 H 0.59771 0.75604 0.84545 0.0
H61 H 0.59263 0.7065 0.84188 0.0
H62 H 0.67702 0.8178 0.71907 0.0
H63 H 0.6206 0.80441 0.69614 0.0
H64 H 0.65059 0.77926 0.67953 0.0
C65 C 0.82998 0.26223 0.46835 0.0
N66 N 0.83602 0.2417 0.43874 0.0
N67 N 0.8039 0.27979 0.45272 0.0
C68 C 0.84569 0.26169 0.51276 0.0
C69 C 0.79448 0.26908 0.41248 0.0
N70 N 0.81361 0.24579 0.404 0.0
C71 C 0.76105 0.27648 0.38238 0.0
H72 H 0.82522 0.23317 0.52265 0.0
H73 H 0.84362 0.28528 0.53075 0.0
H74 H 0.87996 0.26495 0.51854 0.0
H75 H 0.77055 0.3082 0.38231 0.0
H76 H 0.72877 0.26303 0.39149 0.0
H77 H 0.75787 0.26481 0.35113 0.0
C78 C 0.38193 0.6862 0.27024 0.0
N79 N 0.4234 0.71139 0.2882 0.0
N80 N 0.3745 0.68862 0.22991 0.0
C81 C 0.34893 0.65765 0.292 0.0
C82 C 0.41198 0.71728 0.22374 0.0
N83 N 0.4412 0.73273 0.25918 0.0
C84 C 0.41787 0.7337 0.18342 0.0
H85 H 0.34034 0.62756 0.2797 0.0
H86 H 0.31844 0.66193 0.28672 0.0
H87 H 0.36131 0.66108 0.32517 0.0
H88 H 0.41143 0.7102 0.16007 0.0
H89 H 0.45148 0.75641 0.18464 0.0
H90 H 0.39386 0.74615 0.1739 0.0
C91 C 0.14618 0.38662 0.77618 0.0
N92 N 0.17053 0.3824 0.7502 0.0
N93 N 0.16181 0.42417 0.79206 0.0
C94 C 0.10875 0.35338 0.78833 0.0
C95 C 0.19756 0.44259 0.77494 0.0
N96 N 0.20295 0.41745 0.74935 0.0
C97 C 0.22966 0.48427 0.78636 0.0
H98 H 0.08659 0.36374 0.79989 0.0
H99 H 0.12199 0.33944 0.81269 0.0
H100 H 0.09005 0.33117 0.76231 0.0
H101 H 0.22526 0.49604 0.81464 0.0
H102 H 0.22464 0.50202 0.76161 0.0
H103 H 0.26365 0.48699 0.79014 0.0
Pr104 Pr 1.03456 0.04744 0.57351 0.0
Pr105 Pr 0.09497 0.07551 0.5291 0.0
C106 C 0.97912 1.0071 0.62163 0.0
C107 C 0.95645 0.96677 0.63202 0.0
C108 C 0.97041 0.95597 0.66983 0.0
C109 C 0.94684 0.91909 0.68166 0.0
C110 C 0.9086 0.89236 0.65603 0.0
C111 C 0.89574 0.90266 0.61751 0.0
C112 C 0.91938 0.93946 0.60563 0.0
C113 C 0.08223 0.12868 0.5968 0.0
C114 C 0.12254 0.03516 0.6033 0.0
C115 C 0.15179 0.11114 0.48015 0.0
C116 C 0.18604 0.14709 0.47085 0.0
C117 C 0.20628 0.14506 0.43886 0.0
C118 C 0.23914 0.1784 0.42887 0.0
C119 C 0.25239 0.21456 0.45067 0.0
C120 C 0.23238 0.21645 0.48324 0.0
C121 C 0.19929 0.18285 0.49325 0.0
C122 C 0.04443 0.99468 0.50364 0.0
C123 C 1.00541 0.08817 0.50193 0.0
O124 O 0.9662 1.01554 0.58565 0.0
O125 O 1.02144 0.02419 0.63384 0.0
O126 O 0.09935 0.10554 0.59127 0.0
O127 O 0.0401 0.11032 0.58913 0.0
O128 O 0.13989 0.06702 0.58544 0.0
O129 O 0.07982 1.01619 0.59594 0.0
O130 O 0.16157 0.09551 0.51246 0.0
O131 O 0.11183 0.10809 0.47382 0.0
O132 O 1.02918 1.01897 0.50997 0.0
O133 O 0.08652 1.01156 0.51268 0.0
O134 O 0.98907 0.05576 0.51894 0.0
O135 O 0.04831 0.10697 0.50736 0.0
H136 H 0.99889 0.97644 0.69078 0.0
H137 H 0.9578 0.91193 0.71139 0.0
H138 H 0.86605 0.8831 0.59726 0.0
H139 H 0.90768 0.94684 0.5763 0.0
H140 H 0.19663 0.11755 0.42153 0.0
H141 H 0.25439 0.17579 0.40413 0.0
H142 H 0.24171 0.24393 0.50041 0.0
H143 H 0.18399 0.18476 0.5182 0.0
Pr144 Pr 0.51998 0.0504 0.12722 0.0
Pr145 Pr 0.57041 0.02642 0.08419 0.0
C146 C 0.47083 0.06559 0.17303 0.0
C147 C 0.47262 0.10164 0.19171 0.0
C148 C 0.47974 0.13431 0.16964 0.0
C149 C 0.48237 0.16864 0.18768 0.0
C150 C 0.47843 0.17122 0.22828 0.0
C151 C 0.47201 0.13876 0.2506 0.0
C152 C 0.46894 0.10415 0.23236 0.0
C153 C 0.56229 0.10768 0.07665 0.0
C154 C 0.6239 0.08522 0.16324 0.0
C155 C 0.60955 1.0048 1.0323 0.0
C156 C 0.60103 0.99182 0.98931 0.0
C157 C 0.63026 0.98013 0.97541 0.0
C158 C 0.61999 0.96228 0.93634 0.0
C159 C 0.58019 0.95582 0.91031 0.0
C160 C 0.55172 0.96917 0.92383 0.0
C161 C 0.5621 0.9871 0.96312 0.0
C162 C 0.55292 0.98355 0.15206 0.0
C163 C 0.46638 0.99963 0.04131 0.0
O164 O 0.50241 0.05587 0.18817 0.0
O165 O 0.46072 0.0604 0.13354 0.0
O166 O 0.54305 0.07148 0.06734 0.0
O167 O 0.56048 0.11567 0.11357 0.0
O168 O 0.62704 0.07923 0.12567 0.0
O169 O 0.58548 0.06983 0.17354 0.0
O170 O 0.61818 0.0412 0.04151 0.0
O171 O 0.58355 0.98062 0.05354 0.0
O172 O 0.52437 0.99042 0.12777 0.0
O173 O 0.59105 1.00116 0.14278 0.0
O174 O 0.46219 1.01539 0.07416 0.0
O175 O 0.50389 0.99954 0.03768 0.0
H176 H 0.48353 0.13347 0.13845 0.0
H177 H 0.48802 0.19341 0.16996 0.0
H178 H 0.46873 0.13997 0.28191 0.0
H179 H 0.46383 0.07939 0.24999 0.0
H180 H 0.66022 0.98325 0.99538 0.0
H181 H 0.64231 0.95165 0.92741 0.0
H182 H 0.52107 0.96488 0.90441 0.0
H183 H 0.53912 0.99603 0.97347 0.0
Pr184 Pr 0.54573 0.58272 0.59506 0.0
Pr185 Pr 0.51318 0.50201 0.53983 0.0
C186 C 0.54754 0.65196 0.61558 0.0
C187 C 0.52884 0.67082 0.64013 0.0
C188 C 0.55135 0.71072 0.65159 0.0
C189 C 0.53036 0.73115 0.66651 0.0
C190 C 0.48607 0.71223 0.66956 0.0
C191 C 0.46437 0.6716 0.66004 0.0
C192 C 0.48565 0.65109 0.64581 0.0
C193 C 0.5623 0.52763 0.64259 0.0
C194 C 0.44877 0.50785 0.60044 0.0
C195 C 0.50796 0.43563 0.5044 0.0
C196 C 0.53847 0.41771 0.50179 0.0
C197 C 0.52248 0.37716 0.49563 0.0
C198 C 0.55129 0.35961 0.49541 0.0
C199 C 0.59678 0.38232 0.50136 0.0
C200 C 0.61257 0.42308 0.50677 0.0
C201 C 0.58373 0.44057 0.5071 0.0
C202 C 0.49326 0.56065 0.50273 0.0
C203 C 0.6136 0.57199 0.54096 0.0
O204 O 0.51939 0.62741 0.58561 0.0
O205 O 0.57764 0.64113 0.63349 0.0
O206 O 0.54545 0.52338 0.60542 0.0
O207 O 0.57346 0.56331 0.65675 0.0
O208 O 0.4587 0.48441 0.57897 0.0
O209 O 0.47289 0.54608 0.60559 0.0
O210 O 0.49861 0.43794 0.54003 0.0
O211 O 0.51394 0.46692 0.48549 0.0
O212 O 0.52781 0.565 0.52686 0.0
O213 O 0.46707 0.52364 0.4955 0.0
O214 O 0.60448 0.59776 0.55986 0.0
O215 O 0.5881 0.53419 0.53795 0.0
H216 H 0.58443 0.72641 0.64687 0.0
H217 H 0.54849 0.76208 0.67429 0.0
H218 H 0.43018 0.65569 0.66126 0.0
H219 H 0.46742 0.62021 0.63682 0.0
H220 H 0.48768 0.35899 0.4914 0.0
H221 H 0.53789 0.32821 0.49051 0.0
H222 H 0.64733 0.44146 0.51179 0.0
H223 H 0.59689 0.47193 0.51205 0.0
Pr224 Pr 0.99986 0.57914 1.0254 0.0
Pr225 Pr 1.03536 0.54387 0.09552 0.0
C226 C 0.9532 0.60154 0.96636 0.0
C227 C 0.91987 0.61654 0.95599 0.0
C228 C 0.91483 0.6306 0.91803 0.0
C229 C 0.88221 0.6435 0.90618 0.0
C230 C 0.85399 0.64258 0.93216 0.0
C231 C 0.85951 0.62891 0.97057 0.0
C232 C 0.8922 0.61583 0.98238 0.0
C233 C 0.08949 0.61787 0.05606 0.0
C234 C 0.99364 0.60259 0.12222 0.0
C235 C 0.08888 0.52381 0.14941 0.0
C236 C 0.13178 0.52407 0.14929 0.0
C237 C 0.1574 0.5213 0.18531 0.0
C238 C 0.19854 0.52216 0.18522 0.0
C239 C 0.21441 0.52554 0.14898 0.0
C240 C 0.18898 0.52905 0.11312 0.0
C241 C 0.14819 0.52873 0.11342 0.0
C242 C 0.94589 0.50212 0.06501 0.0
C243 C 0.05106 0.52757 1.00076 0.0
O244 O 0.94007 0.56583 0.97668 0.0
O245 O 0.99155 0.62537 0.98702 0.0
O246 O 0.05971 0.60508 0.07612 0.0
O247 O 0.07331 0.6119 1.01745 0.0
O248 O 1.01941 0.58531 0.13495 0.0
O249 O 0.97813 0.6012 0.08261 0.0
O250 O 0.08869 0.55815 0.15117 0.0
O251 O 0.05585 0.49844 0.12331 0.0
O252 O 0.97487 0.51669 0.04405 0.0
O253 O 0.96319 0.50646 0.10335 0.0
O254 O 1.0225 0.54155 0.98565 0.0
O255 O 0.06352 0.52924 0.04061 0.0
H256 H 0.93598 0.63134 0.89733 0.0
H257 H 0.8793 0.65446 0.87672 0.0
H258 H 0.83809 0.62766 0.99114 0.0
H259 H 0.89562 0.60486 1.0118 0.0
H260 H 0.14553 0.5183 0.2134 0.0
H261 H 0.21741 0.51903 0.21326 0.0
H262 H 0.20067 0.53209 0.08494 0.0
H263 H 0.12958 0.53213 0.08561 0.0
H264 H 0.3716 0.35531 0.29304 0.0
H265 H 0.46695 0.43166 0.39374 0.0
H266 H 0.42948 0.38594 0.44185 0.0
H267 H 0.27913 0.32847 0.33948 0.0
H268 H 0.25333 0.27899 0.31684 0.0
H269 H 0.28907 0.31694 0.29132 0.0
H270 H 0.33611 0.27881 0.28829 0.0
H271 H 0.30088 0.24059 0.31396 0.0
H272 H 0.35883 0.26433 0.3343 0.0
H273 H 0.3789 0.33207 0.47822 0.0
H274 H 0.3216 0.27426 0.49974 0.0
H275 H 0.25956 0.23491 0.37386 0.0
C276 C 0.38456 0.36192 0.32527 0.0
C277 C 0.42184 0.3964 0.34021 0.0
C278 C 0.43832 0.405 0.38229 0.0
C279 C 0.41729 0.37933 0.40955 0.0
C280 C 0.38 0.34549 0.39388 0.0
C281 C 0.36396 0.3368 0.35264 0.0
C282 C 0.323 0.29924 0.34327 0.0
C283 C 0.28383 0.30636 0.32145 0.0
C284 C 0.33016 0.26894 0.31851 0.0
C285 C 0.3182 0.28802 0.38565 0.0
C286 C 0.35125 0.31495 0.41453 0.0
C287 C 0.35293 0.31077 0.45582 0.0
C288 C 0.32013 0.27804 0.46777 0.0
C289 C 0.28627 0.24997 0.43848 0.0
C290 C 0.2854 0.25544 0.39699 0.0
H291 H 0.3481 0.89229 0.82509 0.0
H292 H 0.36049 1.00479 0.78805 0.0
H293 H 0.37348 0.02887 0.86011 0.0
H294 H 0.31071 0.89226 0.92335 0.0
H295 H 0.34704 0.87189 0.94738 0.0
H296 H 0.32341 0.8598 0.89413 0.0
H297 H 0.4009 0.88271 0.87833 0.0
H298 H 0.42528 0.89584 0.93107 0.0
H299 H 0.44089 0.93165 0.89511 0.0
H300 H 0.39643 0.04305 0.93629 0.0
H301 H 0.43678 0.0499 1.00653 0.0
H302 H 0.42452 0.93204 0.99146 0.0
C303 C 0.35251 0.92174 0.83221 0.0
C304 C 0.3536 0.94687 0.80133 0.0
C305 C 0.35911 0.98508 0.81141 0.0
C306 C 0.36657 0.99886 0.85222 0.0
C307 C 0.36889 0.97409 0.88228 0.0
C308 C 0.36244 0.93635 0.87255 0.0
C309 C 0.37636 0.91828 0.90918 0.0
C310 C 0.33702 0.8835 0.9191 0.0
C311 C 0.41303 0.90645 0.90307 0.0
C312 C 0.39292 0.95207 0.94112 0.0
C313 C 0.38654 0.98341 0.92546 0.0
C314 C 0.40097 1.01852 0.9489 0.0
C315 C 0.42361 1.02208 0.98879 0.0
C316 C 0.43287 0.99119 1.00431 0.0
C317 C 0.41681 0.95563 0.98042 0.0
H318 H 0.60682 0.43443 0.84934 0.0
H319 H 0.58537 0.3306 0.77749 0.0
H320 H 0.56744 0.35949 0.71493 0.0
H321 H 0.52241 0.45671 0.78653 0.0
H322 H 0.55559 0.50847 0.79378 0.0
H323 H 0.56254 0.47789 0.83253 0.0
H324 H 0.64488 0.50483 0.83031 0.0
H325 H 0.63781 0.53485 0.79105 0.0
H326 H 0.66118 0.50134 0.78291 0.0
H327 H 0.55499 0.40214 0.65931 0.0
H328 H 0.54953 0.4538 0.61693 0.0
H329 H 0.58305 0.53086 0.72535 0.0
C330 C 0.59786 0.41765 0.82042 0.0
C331 C 0.59702 0.38 0.81837 0.0
C332 C 0.58533 0.35906 0.77991 0.0
C333 C 0.57545 0.37544 0.74419 0.0
C334 C 0.57749 0.41298 0.74725 0.0
C335 C 0.58834 0.43374 0.78451 0.0
C336 C 0.59023 0.47416 0.77965 0.0
C337 C 0.55562 0.47961 0.79928 0.0
C338 C 0.63631 0.50563 0.79705 0.0
C339 C 0.5793 0.47326 0.73388 0.0
C340 C 0.57163 0.4376 0.71561 0.0
C341 C 0.56091 0.43008 0.67346 0.0
C342 C 0.55789 0.45961 0.64955 0.0
C343 C 0.56599 0.49645 0.66769 0.0
C344 C 0.57689 0.50312 0.71046 0.0
H345 H 0.86136 0.67061 0.26225 0.0
H346 H 0.98454 0.73058 0.34624 0.0
H347 H 1.02274 0.71479 0.29742 0.0
H348 H 0.88186 0.592 0.23009 0.0
H349 H 0.85493 0.58744 0.17803 0.0
H350 H 0.83812 0.60714 0.21722 0.0
H351 H 0.8513 0.66932 0.18013 0.0
H352 H 0.86796 0.64975 0.14065 0.0
H353 H 0.90391 0.69663 0.1672 0.0
H354 H 0.04639 0.68549 0.2421 0.0
H355 H 0.05466 0.65001 0.18489 0.0
H356 H 0.9163 0.60856 0.13421 0.0
C357 C 0.89655 0.68111 0.27006 0.0
C358 C 0.9199 0.70229 0.30845 0.0
C359 C 0.96589 0.71515 0.31715 0.0
C360 C 0.98777 0.70585 0.28955 0.0
C361 C 0.96354 0.68375 0.25277 0.0
C362 C 0.91888 0.67198 0.24275 0.0
C363 C 0.90016 0.64711 0.20203 0.0
C364 C 0.86678 0.60599 0.20716 0.0
C365 C 0.87961 0.66688 0.17064 0.0
C366 C 0.94105 0.64611 0.19075 0.0
C367 C 0.97721 0.66749 0.22063 0.0
C368 C 1.01828 0.66927 0.21847 0.0
C369 C 1.02264 0.64881 0.18559 0.0
C370 C 0.98649 0.62668 0.15417 0.0
C371 C 0.945 0.6258 0.15686 0.0
H372 H 0.43036 0.35896 0.2299 0.0
H373 H 0.51899 0.40005 0.34576 0.0
H374 H 0.53066 0.33941 0.34524 0.0
H375 H 0.38098 0.25785 0.24863 0.0
H376 H 0.3756 0.24103 0.19696 0.0
H377 H 0.37459 0.28714 0.20824 0.0
H378 H 0.43867 0.32092 0.17034 0.0
H379 H 0.43981 0.27481 0.15957 0.0
H380 H 0.48868 0.31511 0.18561 0.0
H381 H 0.5324 0.27376 0.33031 0.0
H382 H 0.52589 0.21051 0.30206 0.0
H383 H 0.43591 0.2143 0.19586 0.0
C384 C 0.45299 0.35545 0.25463 0.0
C385 C 0.47503 0.3843 0.28725 0.0
C386 C 0.50274 0.37828 0.3202 0.0
C387 C 0.50925 0.34401 0.32016 0.0
C388 C 0.48729 0.31614 0.2871 0.0
C389 C 0.45967 0.32161 0.255 0.0
C390 C 0.43973 0.28757 0.22309 0.0
C391 C 0.38976 0.26721 0.219 0.0
C392 C 0.45251 0.30038 0.18225 0.0
C393 C 0.46121 0.26229 0.24159 0.0
C394 C 0.48812 0.27887 0.27874 0.0
C395 C 0.51135 0.26054 0.3013 0.0
C396 C 0.50732 0.22461 0.28516 0.0
C397 C 0.4806 0.20774 0.24674 0.0
C398 C 0.45699 0.22676 0.22508 0.0
H399 H 0.32895 0.98765 0.67805 0.0
H400 H 0.256 0.91141 0.75943 0.0
H401 H 0.19643 0.93302 0.73986 0.0
H402 H 0.29559 0.06747 0.69386 0.0
H403 H 0.29302 0.07775 0.64155 0.0
H404 H 0.33107 0.05898 0.66518 0.0
H405 H 0.29831 1.002 0.60882 0.0
H406 H 0.25995 1.02034 0.5852 0.0
H407 H 0.24046 0.97111 0.59937 0.0
H408 H 0.14173 0.95738 0.70499 0.0
H409 H 0.09811 0.98589 0.66188 0.0
H410 H 0.20822 0.04858 0.60467 0.0
C411 C 0.30076 0.97636 0.69232 0.0
C412 C 0.29682 0.94827 0.72045 0.0
C413 C 0.25951 0.93339 0.73829 0.0
C414 C 0.22565 0.94539 0.72717 0.0
C415 C 0.23002 0.97257 0.69851 0.0
C416 C 0.26698 0.9883 0.68176 0.0
C417 C 0.26292 1.01571 0.65036 0.0
C418 C 0.29772 0.05746 0.66354 0.0
C419 C 0.26556 1.00142 0.60847 0.0
C420 C 0.21745 1.01235 0.65126 0.0
C421 C 0.19902 0.98729 0.67921 0.0
C422 C 0.15616 0.97753 0.68356 0.0
C423 C 0.13156 0.99375 0.65879 0.0
C424 C 0.14989 1.01974 0.63019 0.0
C425 C 0.19359 0.02937 0.62676 0.0
H426 H 0.69277 0.41912 0.96762 0.0
H427 H 0.70371 0.31831 0.91937 0.0
H428 H 0.77813 0.34068 0.9613 0.0
H429 H 0.79622 0.48438 0.96155 0.0
H430 H 0.80661 0.51486 1.007 0.0
H431 H 0.75136 0.48719 0.98026 0.0
H432 H 0.73006 0.45439 0.04515 0.0
H433 H 0.78518 0.48241 0.07242 0.0
H434 H 0.76103 0.43009 0.07147 0.0
H435 H 0.85515 0.37962 0.99887 0.0
H436 H 0.92744 0.43003 1.03286 0.0
H437 H 0.86726 0.50636 0.05644 0.0
C438 C 0.71043 0.40118 0.96722 0.0
C439 C 0.69251 0.36671 0.94095 0.0
C440 C 0.71659 0.34425 0.94011 0.0
C441 C 0.75896 0.35695 0.96358 0.0
C442 C 0.77659 0.39213 0.98776 0.0
C443 C 0.75285 0.41373 0.99013 0.0
C444 C 0.78075 0.45243 1.01492 0.0
C445 C 0.78391 0.48672 0.98941 0.0
C446 C 0.76321 0.45496 0.05328 0.0
C447 C 0.82426 0.44978 1.02523 0.0
C448 C 0.82109 0.41464 1.00949 0.0
C449 C 0.85776 0.40679 1.01213 0.0
C450 C 0.89861 0.43552 1.03131 0.0
C451 C 0.90237 0.47147 0.0477 0.0
C452 C 0.86478 0.4786 0.04493 0.0
H453 H 0.84033 0.68789 0.46184 0.0
H454 H 0.76794 0.63124 0.34275 0.0
H455 H 0.70303 0.59458 0.37202 0.0
H456 H 0.78909 0.60926 0.52247 0.0
H457 H 0.78656 0.64037 0.56171 0.0
H458 H 0.82913 0.65915 0.53265 0.0
H459 H 0.80599 0.71452 0.51276 0.0
H460 H 0.76342 0.69597 0.54183 0.0
H461 H 0.75006 0.70257 0.48904 0.0
H462 H 0.64596 0.56374 0.41379 0.0
H463 H 0.59776 0.54478 0.46336 0.0
H464 H 0.7017 0.62798 0.55499 0.0
C465 C 0.8108 0.66795 0.4418 0.0
C466 C 0.80984 0.66225 0.3997 0.0
C467 C 0.77033 0.63543 0.37502 0.0
C468 C 0.73301 0.61473 0.39141 0.0
C469 C 0.73494 0.62164 0.43263 0.0
C470 C 0.77258 0.64803 0.45748 0.0
C471 C 0.76462 0.65196 0.50018 0.0
C472 C 0.79411 0.63944 0.53108 0.0
C473 C 0.77143 0.69374 0.51162 0.0
C474 C 0.71664 0.62347 0.49548 0.0
C475 C 0.70069 0.60592 0.45629 0.0
C476 C 0.65807 0.57754 0.44441 0.0
C477 C 0.63092 0.56685 0.47298 0.0
C478 C 0.64566 0.58481 0.51319 0.0
C479 C 0.68926 0.61386 0.5245 0.0
H480 H 0.43224 0.52725 0.26618 0.0
H481 H 0.40174 0.42655 0.1852 0.0
H482 H 0.35235 0.44492 0.13654 0.0
H483 H 0.32418 0.50763 0.257 0.0
H484 H 0.33438 0.55797 0.26515 0.0
H485 H 0.37613 0.54192 0.28446 0.0
H486 H 0.42812 0.59681 0.24261 0.0
H487 H 0.38262 0.60867 0.22455 0.0
H488 H 0.40862 0.5948 0.18917 0.0
H489 H 0.29351 0.46376 0.1054 0.0
H490 H 0.22913 0.47884 0.09713 0.0
H491 H 0.29224 0.56415 0.20103 0.0
C492 C 0.41648 0.51026 0.23735 0.0
C493 C 0.42161 0.47618 0.229 0.0
C494 C 0.39971 0.45368 0.19153 0.0
C495 C 0.37128 0.46382 0.16377 0.0
C496 C 0.36467 0.49633 0.1741 0.0
C497 C 0.38674 0.51928 0.21012 0.0
C498 C 0.3664 0.54638 0.21891 0.0
C499 C 0.34933 0.5381 0.25873 0.0
C500 C 0.39833 0.58919 0.21887 0.0
C501 C 0.32884 0.53439 0.18318 0.0
C502 C 0.32887 0.50612 0.15704 0.0
C503 C 0.29385 0.48666 0.12501 0.0
C504 C 0.2574 0.49538 0.12054 0.0
C505 C 0.25603 0.52272 0.14845 0.0
C506 C 0.29283 0.54342 0.1791 0.0
H507 H 0.61954 0.31497 0.98193 0.0
H508 H 0.6035 0.25443 0.86661 0.0
H509 H 0.58975 0.1934 0.89948 0.0
H510 H 0.67441 0.26311 0.04352 0.0
H511 H 0.64764 0.26164 0.08537 0.0
H512 H 0.65736 0.30089 0.05307 0.0
H513 H 0.57485 0.2852 0.03874 0.0
H514 H 0.56486 0.2459 0.07093 0.0
H515 H 0.53541 0.23667 1.01926 0.0
H516 H 0.5759 0.13847 0.94422 0.0
H517 H 0.5621 0.09299 0.99746 0.0
H518 H 0.58699 0.18775 0.08544 0.0
C519 C 0.61336 0.28882 0.96382 0.0
C520 C 0.61207 0.28928 0.92151 0.0
C521 C 0.60384 0.25452 0.89878 0.0
C522 C 0.59629 0.21981 0.91731 0.0
C523 C 0.5972 0.22008 0.95887 0.0
C524 C 0.60557 0.25365 0.98197 0.0
C525 C 0.60375 0.24551 1.02601 0.0
C526 C 0.64845 0.2692 0.05363 0.0
C527 C 0.56756 0.25381 0.03952 0.0
C528 C 0.59262 0.20212 1.02393 0.0
C529 C 0.58926 0.18822 0.98485 0.0
C530 C 0.5786 0.1491 0.97493 0.0
C531 C 0.5708 0.12342 1.00548 0.0
C532 C 0.57349 0.1366 0.04577 0.0
C533 C 0.58492 0.1767 0.05505 0.0
H534 H 0.97639 0.77328 0.42087 0.0
H535 H 0.89507 0.78987 0.31616 0.0
H536 H 0.92427 0.85985 0.33935 0.0
H537 H 0.96124 0.82936 0.4893 0.0
H538 H 1.01584 0.85071 0.51948 0.0
H539 H 0.99602 0.8042 0.49112 0.0
H540 H 0.06101 0.82965 0.45394 0.0
H541 H 0.08221 0.87595 0.48328 0.0
H542 H 0.07254 0.87365 0.42877 0.0
H543 H 0.95016 0.92468 0.38292 0.0
H544 H 0.98344 0.98199 0.43376 0.0
H545 H 0.05268 0.9253 0.50836 0.0
C546 C 0.96722 0.7923 0.40137 0.0
C547 C 0.93436 0.77609 0.36583 0.0
C548 C 0.92134 0.80168 0.34243 0.0
C549 C 0.93712 0.84142 0.35603 0.0
C550 C 0.96691 0.8557 0.39285 0.0
C551 C 0.98316 0.83217 0.41442 0.0
C552 C 1.0131 0.85388 0.4542 0.0
C553 C 0.99549 0.8333 0.49066 0.0
C554 C 0.06001 0.85857 0.4551 0.0
C555 C 1.01041 0.89296 0.45226 0.0
C556 C 0.98307 0.89327 0.41689 0.0
C557 C 0.97249 0.92493 0.41012 0.0
C558 C 0.99119 0.9573 0.43943 0.0
C559 C 1.02092 0.95842 0.47503 0.0
C560 C 1.03046 0.9256 0.4813 0.0
H561 H 0.43006 0.8975 0.67826 0.0
H562 H 0.31843 0.82622 0.72904 0.0
H563 H 0.33666 0.76983 0.7231 0.0
H564 H 0.42247 0.81915 0.60542 0.0
H565 H 0.48112 0.83739 0.61256 0.0
H566 H 0.4564 0.87044 0.61776 0.0
H567 H 0.50526 0.89486 0.68848 0.0
H568 H 0.5283 0.86009 0.68628 0.0
H569 H 0.50094 0.86151 0.7269 0.0
H570 H 0.37242 0.72442 0.71963 0.0
H571 H 0.41614 0.68891 0.70879 0.0
H572 H 0.50104 0.78807 0.65402 0.0
C573 C 0.40877 0.86953 0.68661 0.0
C574 C 0.37242 0.86549 0.7033 0.0
C575 C 0.3458 0.8291 0.71536 0.0
C576 C 0.35619 0.79725 0.71247 0.0
C577 C 0.39309 0.80233 0.69702 0.0
C578 C 0.41838 0.83723 0.68332 0.0
C579 C 0.45677 0.83504 0.66879 0.0
C580 C 0.454 0.84083 0.62343 0.0
C581 C 0.50043 0.86462 0.69409 0.0
C582 C 0.44923 0.79364 0.67679 0.0
C583 C 0.41272 0.77551 0.69359 0.0
C584 C 0.40046 0.73793 0.70547 0.0
C585 C 0.42544 0.71785 0.69886 0.0
C586 C 0.46187 0.73501 0.67972 0.0
C587 C 0.47386 0.77372 0.669 0.0
H588 H 0.73543 0.79409 0.78834 0.0
H589 H 0.66453 0.70711 0.68752 0.0
H590 H 0.73193 0.72663 0.65936 0.0
H591 H 0.7852 0.86466 0.73491 0.0
H592 H 0.83695 0.8884 0.76963 0.0
H593 H 0.78878 0.85951 0.78843 0.0
H594 H 0.82622 0.81721 0.822 0.0
H595 H 0.87506 0.8463 0.80353 0.0
H596 H 0.84926 0.79424 0.79193 0.0
H597 H 0.80005 0.76518 0.63477 0.0
H598 H 0.86135 0.81987 0.61462 0.0
H599 H 0.88713 0.88394 0.73054 0.0
C600 C 0.73522 0.77803 0.76155 0.0
C601 C 0.69586 0.74873 0.74029 0.0
C602 C 0.69513 0.72908 0.70431 0.0
C603 C 0.73318 0.73994 0.68835 0.0
C604 C 0.77145 0.77045 0.70899 0.0
C605 C 0.77281 0.78898 0.74514 0.0
C606 C 0.81489 0.82536 0.75744 0.0
C607 C 0.80588 0.86158 0.76286 0.0
C608 C 0.84303 0.82048 0.79601 0.0
C609 C 0.83541 0.82625 0.72102 0.0
C610 C 0.8107 0.79363 0.69409 0.0
C611 C 0.82025 0.79036 0.65605 0.0
C612 C 0.85489 0.82172 0.64471 0.0
C613 C 0.8791 0.85615 0.67106 0.0
C614 C 0.87013 0.85763 0.7102 0.0
H615 H 0.73795 0.18308 0.38509 0.0
H616 H 0.85502 0.25246 0.34112 0.0
H617 H 0.82218 0.21408 0.27382 0.0
H618 H 0.71077 0.089 0.32663 0.0
H619 H 0.65304 0.07665 0.31898 0.0
H620 H 0.68925 0.1056 0.36425 0.0
H621 H 0.66131 0.15896 0.34858 0.0
H622 H 0.62562 0.13064 0.30304 0.0
H623 H 0.66502 0.17971 0.30066 0.0
H624 H 0.77096 0.17238 0.20886 0.0
H625 H 0.70849 0.13146 0.15439 0.0
H626 H 0.62667 0.09087 0.24396 0.0
C627 C 0.75711 0.18894 0.3616 0.0
C628 C 0.79906 0.21974 0.36794 0.0
C629 C 0.8231 0.22818 0.33657 0.0
C630 C 0.80462 0.20666 0.29846 0.0
C631 C 0.76234 0.17685 0.29278 0.0
C632 C 0.73924 0.1678 0.32388 0.0
C633 C 0.69322 0.13714 0.30982 0.0
C634 C 0.68617 0.09988 0.33118 0.0
C635 C 0.65933 0.15255 0.31587 0.0
C636 C 0.69324 0.131 0.26557 0.0
C637 C 0.73332 0.15368 0.25606 0.0
C638 C 0.73968 0.1541 0.21619 0.0
C639 C 0.70407 0.13087 0.18545 0.0
C640 C 0.66272 0.10802 0.1949 0.0
C641 C 0.65778 0.10793 0.23558 0.0
H642 H 0.42097 0.6398 0.29739 0.0
H643 H 0.47999 0.75673 0.35633 0.0
H644 H 0.50964 0.73261 0.41813 0.0
H645 H 0.38038 0.59592 0.3861 0.0
H646 H 0.38281 0.55202 0.36836 0.0
H647 H 0.3751 0.5853 0.33316 0.0
H648 H 0.44798 0.58581 0.30895 0.0
H649 H 0.45172 0.55473 0.34826 0.0
H650 H 0.49698 0.6008 0.34677 0.0
H651 H 0.53268 0.69124 0.47424 0.0
H652 H 0.53777 0.64054 0.51806 0.0
H653 H 0.44607 0.55077 0.42541 0.0
C654 C 0.44051 0.66064 0.32308 0.0
C655 C 0.44784 0.70026 0.32189 0.0
C656 C 0.47405 0.72637 0.35625 0.0
C657 C 0.49068 0.71271 0.39156 0.0
C658 C 0.47994 0.67272 0.39232 0.0
C659 C 0.45472 0.64723 0.35885 0.0
C660 C 0.4421 0.60528 0.36791 0.0
C661 C 0.3922 0.58323 0.36356 0.0
C662 C 0.46069 0.5854 0.34139 0.0
C663 C 0.46457 0.61042 0.41161 0.0
C664 C 0.48741 0.64948 0.4252 0.0
C665 C 0.51357 0.66077 0.46393 0.0
C666 C 0.51579 0.63161 0.48898 0.0
C667 C 0.49037 0.59144 0.4763 0.0
C668 C 0.46461 0.58106 0.43686 0.0
H669 H 0.11536 0.46891 0.79416 0.0
H670 H 0.18113 0.41015 0.86962 0.0
H671 H 0.16058 0.43052 0.92987 0.0
H672 H 0.14351 0.55145 0.86851 0.0
H673 H 0.09138 0.55376 0.85483 0.0
H674 H 0.11213 0.53568 0.81766 0.0
H675 H 0.04124 0.4719 0.80441 0.0
H676 H 1.02032 0.48974 0.8416 0.0
H677 H 1.0241 0.44385 0.84616 0.0
H678 H 0.13282 0.4571 0.98253 0.0
H679 H 0.09922 0.48616 1.02348 0.0
H680 H 0.04815 0.52794 0.91589 0.0
C681 C 0.12563 0.46067 0.82349 0.0
C682 C 0.15037 0.43802 0.82715 0.0
C683 C 0.16259 0.42752 0.86606 0.0
C684 C 0.15093 0.43901 0.90047 0.0
C685 C 0.12652 0.46107 0.89602 0.0
C686 C 0.11384 0.47179 0.8585 0.0
C687 C 0.0869 0.49498 0.86246 0.0
C688 C 0.10985 0.53643 0.85012 0.0
C689 C 0.04037 0.47385 0.83714 0.0
C690 C 0.08634 0.49552 0.90788 0.0
C691 C 0.10972 0.47587 0.92647 0.0
C692 C 0.11448 0.47249 0.96809 0.0
C693 C 0.09514 0.48938 0.99132 0.0
C694 C 0.07065 0.50974 0.9736 0.0
C695 C 0.06629 0.5126 0.93087 0.0
H696 H 0.64784 0.8389 0.77319 0.0
H697 H 0.51853 0.74582 0.76165 0.0
H698 H 0.49173 0.79259 0.78447 0.0
H699 H 0.65464 0.88222 0.85857 0.0
H700 H 0.6826 0.93204 0.84781 0.0
H701 H 0.68779 0.89415 0.82034 0.0
H702 H 0.65986 0.91564 0.75242 0.0
H703 H 0.65486 0.95418 0.77974 0.0
H704 H 0.6084 0.91951 0.74444 0.0
H705 H 0.48541 0.84531 0.82491 0.0
H706 H 0.49989 0.89711 0.8776 0.0
H707 H 0.6318 0.95803 0.85658 0.0
C708 C 0.61336 0.82889 0.77326 0.0
C709 C 0.58502 0.78908 0.76526 0.0
C710 C 0.54055 0.77638 0.76761 0.0
C711 C 0.52513 0.80279 0.78025 0.0
C712 C 0.55456 0.84185 0.78957 0.0
C713 C 0.59757 0.85496 0.78511 0.0
C714 C 0.62427 0.89689 0.80188 0.0
C715 C 0.66462 0.90153 0.83405 0.0
C716 C 0.63762 0.92311 0.76757 0.0
C717 C 0.5909 0.90424 0.82027 0.0
C718 C 0.55042 0.87269 0.81181 0.0
C719 C 0.51653 0.8706 0.83074 0.0
C720 C 0.52501 0.90031 0.8606 0.0
C721 C 0.56717 0.93147 0.87137 0.0
C722 C 0.59936 0.93448 0.84902 0.0
H723 H 0.9219 0.2563 0.46101 0.0
H724 H 0.79122 0.16371 0.43097 0.0
H725 H 0.82167 0.11477 0.43747 0.0
H726 H 0.97708 0.20998 0.41172 0.0
H727 H 1.02531 0.22687 0.45129 0.0
H728 H 0.99374 0.25504 0.44208 0.0
H729 H 0.98503 0.25338 0.51697 0.0
H730 H 1.01691 0.22556 0.52643 0.0
H731 H 0.96294 0.20717 0.53794 0.0
H732 H 0.86539 0.07609 0.44838 0.0
H733 H 0.91923 0.04903 0.46904 0.0
H734 H 1.02311 0.16587 0.49503 0.0
C735 C 0.9 0.22566 0.45571 0.0
C736 C 0.8543 0.21353 0.44432 0.0
C737 C 0.8263 0.17337 0.43831 0.0
C738 C 0.84334 0.14547 0.44218 0.0
C739 C 0.88856 0.15822 0.4527 0.0
C740 C 0.9166 0.1973 0.46 0.0
C741 C 0.96374 0.20282 0.47314 0.0
C742 C 0.99161 0.22499 0.44273 0.0
C743 C 0.98329 0.22345 0.51617 0.0
C744 C 0.95769 0.16073 0.47215 0.0
C745 C 0.91401 0.13564 0.45994 0.0
C746 C 0.8997 0.09542 0.45783 0.0
C747 C 0.93059 0.08032 0.46956 0.0
C748 C 0.97542 0.10527 0.4833 0.0
C749 C 0.98923 0.14606 0.48384 0.0
H750 H 0.29851 0.69277 0.23332 0.0
H751 H 0.35975 0.64414 0.16087 0.0
H752 H 0.29299 0.62044 0.10666 0.0
H753 H 0.18791 0.60992 0.20354 0.0
H754 H 0.16096 0.6416 0.20603 0.0
H755 H 0.21289 0.65271 0.23896 0.0
H756 H 0.24444 0.72092 0.21225 0.0
H757 H 0.19305 0.70984 0.1786 0.0
H758 H 0.24243 0.72463 0.15867 0.0
H759 H 0.22215 0.60979 0.05742 0.0
H760 H 0.1486 0.6022 1.02241 0.0
H761 H 0.13208 0.6514 0.13133 0.0
C762 C 0.29721 0.67591 0.20669 0.0
C763 C 0.33399 0.67019 0.20104 0.0
C764 C 0.33185 0.64915 0.16525 0.0
C765 C 0.29414 0.63555 0.13452 0.0
C766 C 0.25869 0.64258 0.14063 0.0
C767 C 0.25951 0.66121 0.17643 0.0
C768 C 0.2171 0.66473 0.17598 0.0
C769 C 0.1933 0.64081 0.20802 0.0
C770 C 0.22474 0.70758 0.1817 0.0
C771 C 0.19296 0.64686 0.13368 0.0
C772 C 0.21742 0.63441 0.11352 0.0
C773 C 0.20251 0.61893 0.07315 0.0
C774 C 0.16103 0.61515 0.05337 0.0
C775 C 0.1351 0.62644 0.07428 0.0
C776 C 0.15142 0.64257 0.11477 0.0
H777 H 0.23636 0.47485 0.69865 0.0
H778 H 0.25852 0.38233 0.75867 0.0
H779 H 0.31928 0.39311 0.72404 0.0
H780 H 0.2679 0.4636 0.60384 0.0
H781 H 0.2976 0.51496 0.60015 0.0
H782 H 0.25277 0.49802 0.62668 0.0
H783 H 0.30358 0.54221 0.69067 0.0
H784 H 0.34855 0.55939 0.66429 0.0
H785 H 0.35363 0.5382 0.71156 0.0
H786 H 0.37617 0.41181 0.68084 0.0
H787 H 0.43215 0.44285 0.63976 0.0
H788 H 0.3839 0.53125 0.61451 0.0
C789 C 0.25392 0.45677 0.7043 0.0
C790 C 0.2403 0.42573 0.72967 0.0
C791 C 0.26537 0.40384 0.7371 0.0
C792 C 0.30086 0.41045 0.7181 0.0
C793 C 0.31265 0.44035 0.69261 0.0
C794 C 0.29075 0.46393 0.68642 0.0
C795 C 0.31274 0.49595 0.65981 0.0
C796 C 0.28084 0.49294 0.62027 0.0
C797 C 0.33069 0.53634 0.68296 0.0
C798 C 0.34991 0.48627 0.65168 0.0
C799 C 0.34854 0.45362 0.67053 0.0
C800 C 0.3778 0.43762 0.66634 0.0
C801 C 0.40945 0.45541 0.64265 0.0
C802 C 0.41278 0.48957 0.62378 0.0
C803 C 0.38255 0.50534 0.62868 0.0
H804 H 0.67197 0.67448 0.77274 0.0
H805 H 0.67359 0.75654 0.86376 0.0
H806 H 0.723 0.73885 0.91364 0.0
H807 H 0.68269 0.60103 0.83764 0.0
H808 H 0.72033 0.59351 0.81116 0.0
H809 H 0.68004 0.60848 0.7846 0.0
H810 H 0.74137 0.66789 0.76242 0.0
H811 H 0.78198 0.6534 0.78907 0.0
H812 H 0.78574 0.70141 0.80032 0.0
H813 H 0.77543 0.71465 0.95255 0.0
H814 H 0.83052 0.68917 0.97616 0.0
H815 H 0.79924 0.62688 0.85798 0.0
C816 C 0.68204 0.68797 0.80346 0.0
C817 C 0.6675 0.71558 0.81493 0.0
C818 C 0.68255 0.73384 0.85495 0.0
C819 C 0.71105 0.72432 0.88333 0.0
C820 C 0.72508 0.69719 0.87092 0.0
C821 C 0.71146 0.67961 0.8318 0.0
C822 C 0.735 0.65473 0.82489 0.0
C823 C 0.70258 0.6119 0.81394 0.0
C824 C 0.76266 0.67029 0.79225 0.0
C825 C 0.76358 0.66064 0.86636 0.0
C826 C 0.75718 0.68502 0.89259 0.0
C827 C 0.78057 0.69535 0.93236 0.0
C828 C 0.8116 0.68059 0.94556 0.0
C829 C 0.81918 0.65608 0.91894 0.0
C830 C 0.79445 0.64581 0.87896 0.0
H831 H 0.4125 0.78896 0.24918 0.0
H832 H 0.52987 0.76971 0.27504 0.0
H833 H 0.573 0.83698 0.25878 0.0
H834 H 0.43475 0.8297 0.16156 0.0
H835 H 0.41088 0.86382 0.16422 0.0
H836 H 0.39139 0.8198 0.1892 0.0
H837 H 0.40738 0.8595 0.25754 0.0
H838 H 0.42607 0.90382 0.23271 0.0
H839 H 0.46117 0.89765 0.27604 0.0
H840 H 0.6011 0.90285 0.23052 0.0
H841 H 0.6125 0.9594 0.19124 0.0
H842 H 0.47422 0.93248 0.17356 0.0
C843 C 0.44774 0.79985 0.25367 0.0
C844 C 0.46814 0.77441 0.26468 0.0
C845 C 0.51388 0.7889 0.26806 0.0
C846 C 0.5384 0.82697 0.2583 0.0
C847 C 0.51659 0.85009 0.24453 0.0
C848 C 0.47214 0.83698 0.2422 0.0
C849 C 0.45513 0.86433 0.22007 0.0
C850 C 0.42103 0.84314 0.18149 0.0
C851 C 0.43632 0.8824 0.24828 0.0
C852 C 0.49682 0.89484 0.20974 0.0
C853 C 0.53198 0.88641 0.225 0.0
C854 C 0.57376 0.90964 0.21871 0.0
C855 C 0.57982 0.94185 0.19611 0.0
C856 C 0.54429 0.95069 0.17887 0.0
C857 C 0.50216 0.92683 0.18627 0.0
H858 H 0.12271 0.34578 0.6757 0.0
H859 H 0.20194 0.33303 0.7847 0.0
H860 H 0.19337 0.26967 0.75481 0.0
H861 H 0.04481 0.24449 0.6645 0.0
H862 H 1.03381 0.24039 0.60994 0.0
H863 H 0.05031 0.28674 0.63764 0.0
H864 H 0.11459 0.31748 0.60012 0.0
H865 H 0.09834 0.27118 0.57235 0.0
H866 H 0.15321 0.29638 0.60131 0.0
H867 H 0.17875 0.20845 0.71124 0.0
H868 H 0.14745 0.1486 0.66417 0.0
H869 H 0.06761 0.1949 0.58749 0.0
C870 C 0.13888 0.32985 0.69275 0.0
C871 C 0.16541 0.34547 0.73165 0.0
C872 C 0.1836 0.32259 0.75412 0.0
C873 C 0.17867 0.28648 0.73739 0.0
C874 C 0.15346 0.27231 0.69858 0.0
C875 C 0.13272 0.29274 0.67698 0.0
C876 C 0.10344 0.26874 0.63786 0.0
C877 C 0.05524 0.25954 0.63747 0.0
C878 C 0.11829 0.2897 0.60071 0.0
C879 C 0.11137 0.23199 0.64068 0.0
C880 C 0.14119 0.23512 0.67552 0.0
C881 C 0.15502 0.20559 0.68411 0.0
C882 C 0.13729 0.17172 0.65703 0.0
C883 C 0.10506 0.16688 0.62216 0.0
C884 C 0.09216 0.19766 0.61395 0.0
H885 H 0.79665 0.34803 0.44473 0.0
H886 H 0.75188 0.24171 0.50434 0.0
H887 H 0.6976 0.25929 0.52851 0.0
H888 H 0.77748 0.41053 0.51781 0.0
H889 H 0.75821 0.43437 0.478 0.0
H890 H 0.79828 0.41665 0.47157 0.0
H891 H 0.74779 0.3763 0.40529 0.0
H892 H 0.70737 0.39346 0.41172 0.0
H893 H 0.69271 0.34193 0.4064 0.0
H894 H 0.64255 0.28462 0.53916 0.0
H895 H 0.5928 0.31679 0.53793 0.0
H896 H 0.67051 0.40511 0.4678 0.0
C897 C 0.77612 0.32909 0.4638 0.0
C898 C 0.77891 0.29387 0.47336 0.0
C899 C 0.7511 0.26934 0.49776 0.0
C900 C 0.71991 0.27895 0.51123 0.0
C901 C 0.71681 0.31317 0.49991 0.0
C902 C 0.74441 0.33804 0.47698 0.0
C903 C 0.73174 0.37113 0.46581 0.0
C904 C 0.76863 0.41051 0.48442 0.0
C905 C 0.71915 0.37065 0.41957 0.0
C906 C 0.69228 0.36066 0.48545 0.0
C907 C 0.68441 0.32727 0.50519 0.0
C908 C 0.64865 0.31097 0.52408 0.0
C909 C 0.6203 0.32928 0.52288 0.0
C910 C 0.62758 0.36351 0.50274 0.0
C911 C 0.66432 0.37936 0.48399 0.0
loop_
_geom_bond_atom_site_label_1
_geom_bond_atom_site_label_2
_geom_bond_distance
_geom_bond_site_symmetry_2
_ccdc_geom_bond_type
C0 N1 1.317 . S
C0 N2 1.348 . S
C0 C3 1.485 . S
N1 C0 1.317 . S
N1 N5 1.370 . S
N2 C0 1.348 . S
N2 C4 1.346 . S
C3 C0 1.485 . S
C3 H7 0.960 . S
C3 H8 0.961 . S
C3 H9 0.960 . S
C4 N2 1.346 . S
C4 N5 1.307 . S
C4 C6 1.486 . S
N5 N1 1.370 . S
N5 C4 1.307 . S
C6 C4 1.486 . S
C6 H10 0.960 . S
C6 H11 0.960 . S
C6 H12 0.959 . S
H7 C3 0.960 . S
H8 C3 0.961 . S
H9 C3 0.960 . S
H10 C6 0.960 . S
H11 C6 0.960 . S
H12 C6 0.959 . S
C13 N14 1.317 . S
C13 N15 1.348 . S
C13 C16 1.485 . S
N14 C13 1.317 . S
N14 N18 1.370 . S
N15 C13 1.348 . S
N15 C17 1.346 . S
C16 C13 1.485 . S
C16 H20 0.960 . S
C16 H21 0.961 . S
C16 H22 0.960 . S
C17 N15 1.346 . S
C17 N18 1.307 . S
C17 C19 1.486 . S
N18 N14 1.370 . S
N18 C17 1.307 . S
C19 C17 1.486 . S
C19 H23 0.960 . S
C19 H24 0.960 . S
C19 H25 0.959 . S
H20 C16 0.960 . S
H21 C16 0.961 . S
H22 C16 0.960 . S
H23 C19 0.960 . S
H24 C19 0.960 . S
H25 C19 0.959 . S
C26 N27 1.317 . S
C26 N28 1.348 . S
C26 C29 1.485 . S
N27 C26 1.317 . S
N27 N31 1.370 . S
N28 C26 1.348 . S
N28 C30 1.346 . S
C29 C26 1.485 . S
C29 H33 0.960 . S
C29 H34 0.961 . S
C29 H35 0.960 . S
C30 N28 1.346 . S
C30 N31 1.307 . S
C30 C32 1.486 . S
N31 N27 1.370 . S
N31 C30 1.307 . S
C32 C30 1.486 . S
C32 H36 0.960 . S
C32 H37 0.960 . S
C32 H38 0.959 . S
H33 C29 0.960 . S
H34 C29 0.961 . S
H35 C29 0.960 . S
H36 C32 0.960 . S
H37 C32 0.960 . S
H38 C32 0.959 . S
C39 N40 1.317 . S
C39 N41 1.348 . S
C39 C42 1.485 . S
N40 C39 1.317 . S
N40 N44 1.370 . S
N41 C39 1.348 . S
N41 C43 1.346 . S
C42 C39 1.485 . S
C42 H46 0.960 . S
C42 H47 0.961 . S
C42 H48 0.960 . S
C43 N41 1.346 . S
C43 N44 1.307 . S
C43 C45 1.486 . S
N44 N40 1.370 . S
N44 C43 1.307 . S
C45 C43 1.486 . S
C45 H49 0.960 . S
C45 H50 0.960 . S
C45 H51 0.959 . S
H46 C42 0.960 . S
H47 C42 0.961 . S
H48 C42 0.960 . S
H49 C45 0.960 . S
H50 C45 0.960 . S
H51 C45 0.959 . S
C52 N53 1.317 . S
C52 N54 1.348 . S
C52 C55 1.485 . S
N53 C52 1.317 . S
N53 N57 1.370 . S
N54 C52 1.348 . S
N54 C56 1.346 . S
C55 C52 1.485 . S
C55 H59 0.960 . S
C55 H60 0.961 . S
C55 H61 0.960 . S
C56 N54 1.346 . S
C56 N57 1.307 . S
C56 C58 1.486 . S
N57 N53 1.370 . S
N57 C56 1.307 . S
C58 C56 1.486 . S
C58 H62 0.960 . S
C58 H63 0.960 . S
C58 H64 0.959 . S
H59 C55 0.960 . S
H60 C55 0.961 . S
H61 C55 0.960 . S
H62 C58 0.960 . S
H63 C58 0.960 . S
H64 C58 0.959 . S
C65 N66 1.317 . S
C65 N67 1.348 . S
C65 C68 1.485 . S
N66 C65 1.317 . S
N66 N70 1.370 . S
N67 C65 1.348 . S
N67 C69 1.346 . S
C68 C65 1.485 . S
C68 H72 0.960 . S
C68 H73 0.961 . S
C68 H74 0.960 . S
C69 N67 1.346 . S
C69 N70 1.307 . S
C69 C71 1.486 . S
N70 N66 1.370 . S
N70 C69 1.307 . S
C71 C69 1.486 . S
C71 H75 0.960 . S
C71 H76 0.960 . S
C71 H77 0.959 . S
H72 C68 0.960 . S
H73 C68 0.961 . S
H74 C68 0.960 . S
H75 C71 0.960 . S
H76 C71 0.960 . S
H77 C71 0.959 . S
C78 N79 1.317 . S
C78 N80 1.348 . S
C78 C81 1.485 . S
N79 C78 1.317 . S
N79 N83 1.370 . S
N80 C78 1.348 . S
N80 C82 1.346 . S
C81 C78 1.485 . S
C81 H85 0.960 . S
C81 H86 0.961 . S
C81 H87 0.960 . S
C82 N80 1.346 . S
C82 N83 1.307 . S
C82 C84 1.486 . S
N83 N79 1.370 . S
N83 C82 1.307 . S
C84 C82 1.486 . S
C84 H88 0.960 . S
C84 H89 0.960 . S
C84 H90 0.959 . S
H85 C81 0.960 . S
H86 C81 0.961 . S
H87 C81 0.960 . S
H88 C84 0.960 . S
H89 C84 0.960 . S
H90 C84 0.959 . S
C91 N92 1.317 . S
C91 N93 1.348 . S
C91 C94 1.485 . S
N92 C91 1.317 . S
N92 N96 1.370 . S
N93 C91 1.348 . S
N93 C95 1.346 . S
C94 C91 1.485 . S
C94 H98 0.960 . S
C94 H99 0.961 . S
C94 H100 0.960 . S
C95 N93 1.346 . S
C95 N96 1.307 . S
C95 C97 1.486 . S
N96 N92 1.370 . S
N96 C95 1.307 . S
C97 C95 1.486 . S
C97 H101 0.960 . S
C97 H102 0.960 . S
C97 H103 0.959 . S
H98 C94 0.960 . S
H99 C94 0.961 . S
H100 C94 0.960 . S
H101 C97 0.960 . S
H102 C97 0.960 . S
H103 C97 0.959 . S
Pr104 C106 2.880 1_545 S
Pr104 O124 2.562 1_545 S
Pr104 O125 2.490 1_545 S
Pr104 O126 2.695 1_655 S
Pr104 O127 2.512 1_655 S
Pr104 O129 2.437 1_645 S
Pr104 O132 2.436 1_645 S
Pr104 O134 2.438 . S
Pr105 C115 2.880 . S
Pr105 O126 2.436 . S
Pr105 O128 2.438 . S
Pr105 O130 2.562 . S
Pr105 O131 2.490 . S
Pr105 O132 2.695 1_545 S
Pr105 O133 2.512 1_545 S
Pr105 O135 2.437 . S
C106 Pr104 2.880 1_565 S
C106 C107 1.491 . S
C106 O124 1.254 . S
C106 O125 1.225 . S
C107 C106 1.491 . S
C107 C108 1.392 . S
C107 C112 1.356 . S
C108 C107 1.392 . S
C108 C109 1.368 . S
C108 H136 0.929 . S
C109 C108 1.368 . S
C109 C110 1.386 . S
C109 H137 0.929 . S
C110 C109 1.386 . S
C110 C111 1.373 . S
C111 C110 1.373 . S
C111 C112 1.409 . S
C111 H138 0.931 . S
C112 C107 1.356 . S
C112 C111 1.409 . S
C112 H139 0.930 . S
C113 O126 1.270 . S
C113 O127 1.248 . S
C114 O128 1.267 1_565 S
C114 O129 1.278 . S
C115 Pr105 2.880 . S
C115 C116 1.491 . S
C115 O130 1.254 . S
C115 O131 1.225 . S
C116 C115 1.491 . S
C116 C117 1.392 . S
C116 C121 1.356 . S
C117 C116 1.392 . S
C117 C118 1.368 . S
C117 H140 0.929 . S
C118 C117 1.368 . S
C118 C119 1.386 . S
C118 H141 0.929 . S
C119 C118 1.386 . S
C119 C120 1.373 . S
C120 C119 1.373 . S
C120 C121 1.409 . S
C120 H142 0.931 . S
C121 C116 1.356 . S
C121 C120 1.409 . S
C121 H143 0.930 . S
C122 O132 1.270 . S
C122 O133 1.248 . S
C123 O134 1.267 1_455 S
C123 O135 1.278 . S
O124 Pr104 2.562 1_565 S
O124 C106 1.254 . S
O125 Pr104 2.490 1_565 S
O125 C106 1.225 . S
O126 Pr104 2.695 1_455 S
O126 Pr105 2.436 . S
O126 C113 1.270 . S
O127 Pr104 2.512 1_455 S
O127 C113 1.248 . S
O128 Pr105 2.438 . S
O128 C114 1.267 1_545 S
O129 Pr104 2.437 1_465 S
O129 C114 1.278 . S
O130 Pr105 2.562 . S
O130 C115 1.254 . S
O131 Pr105 2.490 . S
O131 C115 1.225 . S
O132 Pr104 2.436 1_465 S
O132 Pr105 2.695 1_565 S
O132 C122 1.270 . S
O133 Pr105 2.512 1_565 S
O133 C122 1.248 . S
O134 Pr104 2.438 . S
O134 C123 1.267 1_655 S
O135 Pr105 2.437 . S
O135 C123 1.278 . S
H136 C108 0.929 . S
H137 C109 0.929 . S
H138 C111 0.931 . S
H139 C112 0.930 . S
H140 C117 0.929 . S
H141 C118 0.929 . S
H142 C120 0.931 . S
H143 C121 0.930 . S
Pr144 C146 2.880 . S
Pr144 O164 2.562 . S
Pr144 O165 2.490 . S
Pr144 O166 2.695 . S
Pr144 O167 2.512 . S
Pr144 O169 2.437 . S
Pr144 O172 2.436 . S
Pr144 O174 2.438 . S
Pr145 C155 2.880 1_545 S
Pr145 O166 2.436 . S
Pr145 O168 2.438 . S
Pr145 O170 2.562 1_545 S
Pr145 O171 2.490 1_545 S
Pr145 O172 2.695 . S
Pr145 O173 2.512 1_545 S
Pr145 O175 2.437 1_545 S
C146 Pr144 2.880 . S
C146 C147 1.491 . S
C146 O164 1.254 . S
C146 O165 1.225 . S
C147 C146 1.491 . S
C147 C148 1.392 . S
C147 C152 1.356 . S
C148 C147 1.392 . S
C148 C149 1.368 . S
C148 H176 0.929 . S
C149 C148 1.368 . S
C149 C150 1.386 . S
C149 H177 0.929 . S
C150 C149 1.386 . S
C150 C151 1.373 . S
C151 C150 1.373 . S
C151 C152 1.409 . S
C151 H178 0.931 . S
C152 C147 1.356 . S
C152 C151 1.409 . S
C152 H179 0.930 . S
C153 O166 1.270 . S
C153 O167 1.248 . S
C154 O168 1.267 . S
C154 O169 1.278 . S
C155 Pr145 2.880 1_565 S
C155 C156 1.491 1_554 S
C155 O170 1.254 . S
C155 O171 1.225 . S
C156 C155 1.491 1_556 S
C156 C157 1.392 1_556 S
C156 C161 1.356 . S
C157 C156 1.392 1_554 S
C157 C158 1.368 1_554 S
C157 H180 0.929 . S
C158 C157 1.368 1_556 S
C158 C159 1.386 . S
C158 H181 0.929 . S
C159 C158 1.386 . S
C159 C160 1.373 . S
C160 C159 1.373 . S
C160 C161 1.409 . S
C160 H182 0.931 . S
C161 C156 1.356 . S
C161 C160 1.409 . S
C161 H183 0.930 . S
C162 O172 1.270 1_565 S
C162 O173 1.248 . S
C163 O174 1.267 1_565 S
C163 O175 1.278 . S
O164 Pr144 2.562 . S
O164 C146 1.254 . S
O165 Pr144 2.490 . S
O165 C146 1.225 . S
O166 Pr144 2.695 . S
O166 Pr145 2.436 . S
O166 C153 1.270 . S
O167 Pr144 2.512 . S
O167 C153 1.248 . S
O168 Pr145 2.438 . S
O168 C154 1.267 . S
O169 Pr144 2.437 . S
O169 C154 1.278 . S
O170 Pr145 2.562 1_565 S
O170 C155 1.254 . S
O171 Pr145 2.490 1_565 S
O171 C155 1.225 . S
O172 Pr144 2.436 . S
O172 Pr145 2.695 . S
O172 C162 1.270 1_545 S
O173 Pr145 2.512 1_565 S
O173 C162 1.248 . S
O174 Pr144 2.438 . S
O174 C163 1.267 1_545 S
O175 Pr145 2.437 1_565 S
O175 C163 1.278 . S
H176 C148 0.929 . S
H177 C149 0.929 . S
H178 C151 0.931 . S
H179 C152 0.930 . S
H180 C157 0.929 . S
H181 C158 0.929 . S
H182 C160 0.931 . S
H183 C161 0.930 . S
Pr184 C186 2.880 . S
Pr184 O204 2.562 . S
Pr184 O205 2.490 . S
Pr184 O206 2.695 . S
Pr184 O207 2.512 . S
Pr184 O209 2.437 . S
Pr184 O212 2.436 . S
Pr184 O214 2.438 . S
Pr185 C195 2.880 . S
Pr185 O206 2.436 . S
Pr185 O208 2.438 . S
Pr185 O210 2.562 . S
Pr185 O211 2.490 . S
Pr185 O212 2.695 . S
Pr185 O213 2.512 . S
Pr185 O215 2.437 . S
C186 Pr184 2.880 . S
C186 C187 1.491 . S
C186 O204 1.254 . S
C186 O205 1.225 . S
C187 C186 1.491 . S
C187 C188 1.392 . S
C187 C192 1.356 . S
C188 C187 1.392 . S
C188 C189 1.368 . S
C188 H216 0.929 . S
C189 C188 1.368 . S
C189 C190 1.386 . S
C189 H217 0.929 . S
C190 C189 1.386 . S
C190 C191 1.373 . S
C191 C190 1.373 . S
C191 C192 1.409 . S
C191 H218 0.931 . S
C192 C187 1.356 . S
C192 C191 1.409 . S
C192 H219 0.930 . S
C193 O206 1.270 . S
C193 O207 1.248 . S
C194 O208 1.267 . S
C194 O209 1.278 . S
C195 Pr185 2.880 . S
C195 C196 1.491 . S
C195 O210 1.254 . S
C195 O211 1.225 . S
C196 C195 1.491 . S
C196 C197 1.392 . S
C196 C201 1.356 . S
C197 C196 1.392 . S
C197 C198 1.368 . S
C197 H220 0.929 . S
C198 C197 1.368 . S
C198 C199 1.386 . S
C198 H221 0.929 . S
C199 C198 1.386 . S
C199 C200 1.373 . S
C200 C199 1.373 . S
C200 C201 1.409 . S
C200 H222 0.931 . S
C201 C196 1.356 . S
C201 C200 1.409 . S
C201 H223 0.930 . S
C202 O212 1.270 . S
C202 O213 1.248 . S
C203 O214 1.267 . S
C203 O215 1.278 . S
O204 Pr184 2.562 . S
O204 C186 1.254 . S
O205 Pr184 2.490 . S
O205 C186 1.225 . S
O206 Pr184 2.695 . S
O206 Pr185 2.436 . S
O206 C193 1.270 . S
O207 Pr184 2.512 . S
O207 C193 1.248 . S
O208 Pr185 2.438 . S
O208 C194 1.267 . S
O209 Pr184 2.437 . S
O209 C194 1.278 . S
O210 Pr185 2.562 . S
O210 C195 1.254 . S
O211 Pr185 2.490 . S
O211 C195 1.225 . S
O212 Pr184 2.436 . S
O212 Pr185 2.695 . S
O212 C202 1.270 . S
O213 Pr185 2.512 . S
O213 C202 1.248 . S
O214 Pr184 2.438 . S
O214 C203 1.267 . S
O215 Pr185 2.437 . S
O215 C203 1.278 . S
H216 C188 0.929 . S
H217 C189 0.929 . S
H218 C191 0.931 . S
H219 C192 0.930 . S
H220 C197 0.929 . S
H221 C198 0.929 . S
H222 C200 0.931 . S
H223 C201 0.930 . S
Pr224 C226 2.880 1_455 S
Pr224 O244 2.562 1_455 S
Pr224 O245 2.490 1_455 S
Pr224 O246 2.695 1_556 S
Pr224 O247 2.512 1_556 S
Pr224 O249 2.437 1_456 S
Pr224 O252 2.436 1_455 S
Pr224 O254 2.438 . S
Pr225 C235 2.880 . S
Pr225 O246 2.436 . S
Pr225 O248 2.438 1_455 S
Pr225 O250 2.562 . S
Pr225 O251 2.490 . S
Pr225 O252 2.695 1_454 S
Pr225 O253 2.512 1_454 S
Pr225 O255 2.437 1_554 S
C226 Pr224 2.880 1_655 S
C226 C227 1.491 . S
C226 O244 1.254 . S
C226 O245 1.225 . S
C227 C226 1.491 . S
C227 C228 1.392 . S
C227 C232 1.356 . S
C228 C227 1.392 . S
C228 C229 1.368 . S
C228 H256 0.929 . S
C229 C228 1.368 . S
C229 C230 1.386 . S
C229 H257 0.929 . S
C230 C229 1.386 . S
C230 C231 1.373 . S
C231 C230 1.373 . S
C231 C232 1.409 . S
C231 H258 0.931 . S
C232 C227 1.356 . S
C232 C231 1.409 . S
C232 H259 0.930 . S
C233 O246 1.270 . S
C233 O247 1.248 . S
C234 O248 1.267 . S
C234 O249 1.278 . S
C235 Pr225 2.880 . S
C235 C236 1.491 . S
C235 O250 1.254 . S
C235 O251 1.225 . S
C236 C235 1.491 . S
C236 C237 1.392 . S
C236 C241 1.356 . S
C237 C236 1.392 . S
C237 C238 1.368 . S
C237 H260 0.929 . S
C238 C237 1.368 . S
C238 C239 1.386 . S
C238 H261 0.929 . S
C239 C238 1.386 . S
C239 C240 1.373 . S
C240 C239 1.373 . S
C240 C241 1.409 . S
C240 H262 0.931 . S
C241 C236 1.356 . S
C241 C240 1.409 . S
C241 H263 0.930 . S
C242 O252 1.270 . S
C242 O253 1.248 . S
C243 O254 1.267 . S
C243 O255 1.278 . S
O244 Pr224 2.562 1_655 S
O244 C226 1.254 . S
O245 Pr224 2.490 1_655 S
O245 C226 1.225 . S
O246 Pr224 2.695 1_554 S
O246 Pr225 2.436 . S
O246 C233 1.270 . S
O247 Pr224 2.512 1_554 S
O247 C233 1.248 . S
O248 Pr225 2.438 1_655 S
O248 C234 1.267 . S
O249 Pr224 2.437 1_654 S
O249 C234 1.278 . S
O250 Pr225 2.562 . S
O250 C235 1.254 . S
O251 Pr225 2.490 . S
O251 C235 1.225 . S
O252 Pr224 2.436 1_655 S
O252 Pr225 2.695 1_656 S
O252 C242 1.270 . S
O253 Pr225 2.512 1_656 S
O253 C242 1.248 . S
O254 Pr224 2.438 . S
O254 C243 1.267 . S
O255 Pr225 2.437 1_556 S
O255 C243 1.278 . S
H256 C228 0.929 . S
H257 C229 0.929 . S
H258 C231 0.931 . S
H259 C232 0.930 . S
H260 C237 0.929 . S
H261 C238 0.929 . S
H262 C240 0.931 . S
H263 C241 0.930 . S
H264 C276 0.930 . S
H265 C278 0.930 . S
H266 C279 0.930 . S
H267 C283 0.959 . S
H268 C283 0.959 . S
H269 C283 0.961 . S
H270 C284 0.960 . S
H271 C284 0.961 . S
H272 C284 0.959 . S
H273 C287 0.929 . S
H274 C288 0.931 . S
H275 C290 0.930 . S
C276 H264 0.930 . S
C276 C277 1.399 . S
C276 C281 1.399 . S
C277 C276 1.399 . S
C277 C278 1.376 . S
C278 H265 0.930 . S
C278 C277 1.376 . S
C278 C279 1.388 . S
C279 H266 0.930 . S
C279 C278 1.388 . S
C279 C280 1.390 . S
C280 C279 1.390 . S
C280 C281 1.394 . S
C280 C286 1.465 . S
C281 C276 1.399 . S
C281 C280 1.394 . S
C281 C282 1.516 . S
C282 C281 1.516 . S
C282 C283 1.502 . S
C282 C284 1.561 . S
C282 C285 1.526 . S
C283 H267 0.959 . S
C283 H268 0.959 . S
C283 H269 0.961 . S
C283 C282 1.502 . S
C284 H270 0.960 . S
C284 H271 0.961 . S
C284 H272 0.959 . S
C284 C282 1.561 . S
C285 C282 1.526 . S
C285 C286 1.396 . S
C285 C290 1.390 . S
C286 C280 1.465 . S
C286 C285 1.396 . S
C286 C287 1.399 . S
C287 H273 0.929 . S
C287 C286 1.399 . S
C287 C288 1.385 . S
C288 H274 0.931 . S
C288 C287 1.385 . S
C288 C289 1.389 . S
C289 C288 1.389 . S
C289 C290 1.387 . S
C290 H275 0.930 . S
C290 C285 1.390 . S
C290 C289 1.387 . S
H291 C303 0.930 . S
H292 C305 0.930 . S
H293 C306 0.930 . S
H294 C310 0.959 . S
H295 C310 0.959 . S
H296 C310 0.961 . S
H297 C311 0.960 . S
H298 C311 0.961 . S
H299 C311 0.959 . S
H300 C314 0.929 . S
H301 C315 0.931 . S
H302 C317 0.930 . S
C303 H291 0.930 . S
C303 C304 1.399 . S
C303 C308 1.399 . S
C304 C303 1.399 . S
C304 C305 1.376 . S
C305 H292 0.930 . S
C305 C304 1.376 . S
C305 C306 1.388 . S
C306 H293 0.930 . S
C306 C305 1.388 . S
C306 C307 1.390 . S
C307 C306 1.390 . S
C307 C308 1.394 . S
C307 C313 1.465 . S
C308 C303 1.399 . S
C308 C307 1.394 . S
C308 C309 1.516 . S
C309 C308 1.516 . S
C309 C310 1.502 . S
C309 C311 1.561 . S
C309 C312 1.526 . S
C310 H294 0.959 . S
C310 H295 0.959 . S
C310 H296 0.961 . S
C310 C309 1.502 . S
C311 H297 0.960 . S
C311 H298 0.961 . S
C311 H299 0.959 . S
C311 C309 1.561 . S
C312 C309 1.526 . S
C312 C313 1.396 . S
C312 C317 1.390 . S
C313 C307 1.465 . S
C313 C312 1.396 . S
C313 C314 1.399 . S
C314 H300 0.929 . S
C314 C313 1.399 . S
C314 C315 1.385 . S
C315 H301 0.931 . S
C315 C314 1.385 . S
C315 C316 1.389 . S
C316 C315 1.389 . S
C316 C317 1.387 . S
C317 H302 0.930 . S
C317 C312 1.390 . S
C317 C316 1.387 . S
H318 C330 0.930 . S
H319 C332 0.930 . S
H320 C333 0.930 . S
H321 C337 0.959 . S
H322 C337 0.959 . S
H323 C337 0.961 . S
H324 C338 0.960 . S
H325 C338 0.961 . S
H326 C338 0.959 . S
H327 C341 0.929 . S
H328 C342 0.931 . S
H329 C344 0.930 . S
C330 H318 0.930 . S
C330 C331 1.399 . S
C330 C335 1.399 . S
C331 C330 1.399 . S
C331 C332 1.376 . S
C332 H319 0.930 . S
C332 C331 1.376 . S
C332 C333 1.388 . S
C333 H320 0.930 . S
C333 C332 1.388 . S
C333 C334 1.390 . S
C334 C333 1.390 . S
C334 C335 1.394 . S
C334 C340 1.465 . S
C335 C330 1.399 . S
C335 C334 1.394 . S
C335 C336 1.516 . S
C336 C335 1.516 . S
C336 C337 1.502 . S
C336 C338 1.561 . S
C336 C339 1.526 . S
C337 H321 0.959 . S
C337 H322 0.959 . S
C337 H323 0.961 . S
C337 C336 1.502 . S
C338 H324 0.960 . S
C338 H325 0.961 . S
C338 H326 0.959 . S
C338 C336 1.561 . S
C339 C336 1.526 . S
C339 C340 1.396 . S
C339 C344 1.390 . S
C340 C334 1.465 . S
C340 C339 1.396 . S
C340 C341 1.399 . S
C341 H327 0.929 . S
C341 C340 1.399 . S
C341 C342 1.385 . S
C342 H328 0.931 . S
C342 C341 1.385 . S
C342 C343 1.389 . S
C343 C342 1.389 . S
C343 C344 1.387 . S
C344 H329 0.930 . S
C344 C339 1.390 . S
C344 C343 1.387 . S
H345 C357 0.930 . S
H346 C359 0.930 . S
H347 C360 0.930 . S
H348 C364 0.959 . S
H349 C364 0.959 . S
H350 C364 0.961 . S
H351 C365 0.960 . S
H352 C365 0.961 . S
H353 C365 0.959 . S
H354 C368 0.929 . S
H355 C369 0.931 . S
H356 C371 0.930 . S
C357 H345 0.930 . S
C357 C358 1.399 . S
C357 C362 1.399 . S
C358 C357 1.399 . S
C358 C359 1.376 . S
C359 H346 0.930 . S
C359 C358 1.376 . S
C359 C360 1.388 . S
C360 H347 0.930 . S
C360 C359 1.388 . S
C360 C361 1.390 . S
C361 C360 1.390 . S
C361 C362 1.394 . S
C361 C367 1.465 . S
C362 C357 1.399 . S
C362 C361 1.394 . S
C362 C363 1.516 . S
C363 C362 1.516 . S
C363 C364 1.502 . S
C363 C365 1.561 . S
C363 C366 1.526 . S
C364 H348 0.959 . S
C364 H349 0.959 . S
C364 H350 0.961 . S
C364 C363 1.502 . S
C365 H351 0.960 . S
C365 H352 0.961 . S
C365 H353 0.959 . S
C365 C363 1.561 . S
C366 C363 1.526 . S
C366 C367 1.396 . S
C366 C371 1.390 . S
C367 C361 1.465 . S
C367 C366 1.396 . S
C367 C368 1.399 . S
C368 H354 0.929 . S
C368 C367 1.399 . S
C368 C369 1.385 . S
C369 H355 0.931 . S
C369 C368 1.385 . S
C369 C370 1.389 . S
C370 C369 1.389 . S
C370 C371 1.387 . S
C371 H356 0.930 . S
C371 C366 1.390 . S
C371 C370 1.387 . S
H372 C384 0.930 . S
H373 C386 0.930 . S
H374 C387 0.930 . S
H375 C391 0.959 . S
H376 C391 0.959 . S
H377 C391 0.961 . S
H378 C392 0.960 . S
H379 C392 0.961 . S
H380 C392 0.959 . S
H381 C395 0.929 . S
H382 C396 0.931 . S
H383 C398 0.930 . S
C384 H372 0.930 . S
C384 C385 1.399 . S
C384 C389 1.399 . S
C385 C384 1.399 . S
C385 C386 1.376 . S
C386 H373 0.930 . S
C386 C385 1.376 . S
C386 C387 1.388 . S
C387 H374 0.930 . S
C387 C386 1.388 . S
C387 C388 1.390 . S
C388 C387 1.390 . S
C388 C389 1.394 . S
C388 C394 1.465 . S
C389 C384 1.399 . S
C389 C388 1.394 . S
C389 C390 1.516 . S
C390 C389 1.516 . S
C390 C391 1.502 . S
C390 C392 1.561 . S
C390 C393 1.526 . S
C391 H375 0.959 . S
C391 H376 0.959 . S
C391 H377 0.961 . S
C391 C390 1.502 . S
C392 H378 0.960 . S
C392 H379 0.961 . S
C392 H380 0.959 . S
C392 C390 1.561 . S
C393 C390 1.526 . S
C393 C394 1.396 . S
C393 C398 1.390 . S
C394 C388 1.465 . S
C394 C393 1.396 . S
C394 C395 1.399 . S
C395 H381 0.929 . S
C395 C394 1.399 . S
C395 C396 1.385 . S
C396 H382 0.931 . S
C396 C395 1.385 . S
C396 C397 1.389 . S
C397 C396 1.389 . S
C397 C398 1.387 . S
C398 H383 0.930 . S
C398 C393 1.390 . S
C398 C397 1.387 . S
H399 C411 0.930 . S
H400 C413 0.930 . S
H401 C414 0.930 . S
H402 C418 0.959 . S
H403 C418 0.959 . S
H404 C418 0.961 . S
H405 C419 0.960 . S
H406 C419 0.961 . S
H407 C419 0.959 . S
H408 C422 0.929 . S
H409 C423 0.931 . S
H410 C425 0.930 . S
C411 H399 0.930 . S
C411 C412 1.399 . S
C411 C416 1.399 . S
C412 C411 1.399 . S
C412 C413 1.376 . S
C413 H400 0.930 . S
C413 C412 1.376 . S
C413 C414 1.388 . S
C414 H401 0.930 . S
C414 C413 1.388 . S
C414 C415 1.390 . S
C415 C414 1.390 . S
C415 C416 1.394 . S
C415 C421 1.465 . S
C416 C411 1.399 . S
C416 C415 1.394 . S
C416 C417 1.516 . S
C417 C416 1.516 . S
C417 C418 1.502 . S
C417 C419 1.561 . S
C417 C420 1.526 . S
C418 H402 0.959 . S
C418 H403 0.959 . S
C418 H404 0.961 . S
C418 C417 1.502 . S
C419 H405 0.960 . S
C419 H406 0.961 . S
C419 H407 0.959 . S
C419 C417 1.561 . S
C420 C417 1.526 . S
C420 C421 1.396 . S
C420 C425 1.390 . S
C421 C415 1.465 . S
C421 C420 1.396 . S
C421 C422 1.399 . S
C422 H408 0.929 . S
C422 C421 1.399 . S
C422 C423 1.385 . S
C423 H409 0.931 . S
C423 C422 1.385 . S
C423 C424 1.389 . S
C424 C423 1.389 . S
C424 C425 1.387 . S
C425 H410 0.930 . S
C425 C420 1.390 . S
C425 C424 1.387 . S
H426 C438 0.930 . S
H427 C440 0.930 . S
H428 C441 0.930 . S
H429 C445 0.959 . S
H430 C445 0.959 . S
H431 C445 0.961 . S
H432 C446 0.960 . S
H433 C446 0.961 . S
H434 C446 0.959 . S
H435 C449 0.929 . S
H436 C450 0.931 . S
H437 C452 0.930 . S
C438 H426 0.930 . S
C438 C439 1.399 . S
C438 C443 1.399 . S
C439 C438 1.399 . S
C439 C440 1.376 . S
C440 H427 0.930 . S
C440 C439 1.376 . S
C440 C441 1.388 . S
C441 H428 0.930 . S
C441 C440 1.388 . S
C441 C442 1.390 . S
C442 C441 1.390 . S
C442 C443 1.394 . S
C442 C448 1.465 . S
C443 C438 1.399 . S
C443 C442 1.394 . S
C443 C444 1.516 . S
C444 C443 1.516 . S
C444 C445 1.502 . S
C444 C446 1.561 . S
C444 C447 1.526 . S
C445 H429 0.959 . S
C445 H430 0.959 . S
C445 H431 0.961 . S
C445 C444 1.502 . S
C446 H432 0.960 . S
C446 H433 0.961 . S
C446 H434 0.959 . S
C446 C444 1.561 . S
C447 C444 1.526 . S
C447 C448 1.396 . S
C447 C452 1.390 . S
C448 C442 1.465 . S
C448 C447 1.396 . S
C448 C449 1.399 . S
C449 H435 0.929 . S
C449 C448 1.399 . S
C449 C450 1.385 . S
C450 H436 0.931 . S
C450 C449 1.385 . S
C450 C451 1.389 . S
C451 C450 1.389 . S
C451 C452 1.387 . S
C452 H437 0.930 . S
C452 C447 1.390 . S
C452 C451 1.387 . S
H453 C465 0.930 . S
H454 C467 0.930 . S
H455 C468 0.930 . S
H456 C472 0.959 . S
H457 C472 0.959 . S
H458 C472 0.961 . S
H459 C473 0.960 . S
H460 C473 0.961 . S
H461 C473 0.959 . S
H462 C476 0.929 . S
H463 C477 0.931 . S
H464 C479 0.930 . S
C465 H453 0.930 . S
C465 C466 1.399 . S
C465 C470 1.399 . S
C466 C465 1.399 . S
C466 C467 1.376 . S
C467 H454 0.930 . S
C467 C466 1.376 . S
C467 C468 1.388 . S
C468 H455 0.930 . S
C468 C467 1.388 . S
C468 C469 1.390 . S
C469 C468 1.390 . S
C469 C470 1.394 . S
C469 C475 1.465 . S
C470 C465 1.399 . S
C470 C469 1.394 . S
C470 C471 1.516 . S
C471 C470 1.516 . S
C471 C472 1.502 . S
C471 C473 1.561 . S
C471 C474 1.526 . S
C472 H456 0.959 . S
C472 H457 0.959 . S
C472 H458 0.961 . S
C472 C471 1.502 . S
C473 H459 0.960 . S
C473 H460 0.961 . S
C473 H461 0.959 . S
C473 C471 1.561 . S
C474 C471 1.526 . S
C474 C475 1.396 . S
C474 C479 1.390 . S
C475 C469 1.465 . S
C475 C474 1.396 . S
C475 C476 1.399 . S
C476 H462 0.929 . S
C476 C475 1.399 . S
C476 C477 1.385 . S
C477 H463 0.931 . S
C477 C476 1.385 . S
C477 C478 1.389 . S
C478 C477 1.389 . S
C478 C479 1.387 . S
C479 H464 0.930 . S
C479 C474 1.390 . S
C479 C478 1.387 . S
H480 C492 0.930 . S
H481 C494 0.930 . S
H482 C495 0.930 . S
H483 C499 0.959 . S
H484 C499 0.959 . S
H485 C499 0.961 . S
H486 C500 0.960 . S
H487 C500 0.961 . S
H488 C500 0.959 . S
H489 C503 0.929 . S
H490 C504 0.931 . S
H491 C506 0.930 . S
C492 H480 0.930 . S
C492 C493 1.399 . S
C492 C497 1.399 . S
C493 C492 1.399 . S
C493 C494 1.376 . S
C494 H481 0.930 . S
C494 C493 1.376 . S
C494 C495 1.388 . S
C495 H482 0.930 . S
C495 C494 1.388 . S
C495 C496 1.390 . S
C496 C495 1.390 . S
C496 C497 1.394 . S
C496 C502 1.465 . S
C497 C492 1.399 . S
C497 C496 1.394 . S
C497 C498 1.516 . S
C498 C497 1.516 . S
C498 C499 1.502 . S
C498 C500 1.561 . S
C498 C501 1.526 . S
C499 H483 0.959 . S
C499 H484 0.959 . S
C499 H485 0.961 . S
C499 C498 1.502 . S
C500 H486 0.960 . S
C500 H487 0.961 . S
C500 H488 0.959 . S
C500 C498 1.561 . S
C501 C498 1.526 . S
C501 C502 1.396 . S
C501 C506 1.390 . S
C502 C496 1.465 . S
C502 C501 1.396 . S
C502 C503 1.399 . S
C503 H489 0.929 . S
C503 C502 1.399 . S
C503 C504 1.385 . S
C504 H490 0.931 . S
C504 C503 1.385 . S
C504 C505 1.389 . S
C505 C504 1.389 . S
C505 C506 1.387 . S
C506 H491 0.930 . S
C506 C501 1.390 . S
C506 C505 1.387 . S
H507 C519 0.930 . S
H508 C521 0.930 . S
H509 C522 0.930 . S
H510 C526 0.959 . S
H511 C526 0.959 1_554 S
H512 C526 0.961 . S
H513 C527 0.960 . S
H514 C527 0.961 . S
H515 C527 0.959 . S
H516 C530 0.929 . S
H517 C531 0.931 . S
H518 C533 0.930 1_554 S
C519 H507 0.930 . S
C519 C520 1.399 . S
C519 C524 1.399 . S
C520 C519 1.399 . S
C520 C521 1.376 . S
C521 H508 0.930 . S
C521 C520 1.376 . S
C521 C522 1.388 . S
C522 H509 0.930 . S
C522 C521 1.388 . S
C522 C523 1.390 . S
C523 C522 1.390 . S
C523 C524 1.394 . S
C523 C529 1.465 . S
C524 C519 1.399 . S
C524 C523 1.394 . S
C524 C525 1.516 . S
C525 C524 1.516 . S
C525 C526 1.502 . S
C525 C527 1.561 . S
C525 C528 1.526 . S
C526 H510 0.959 . S
C526 H511 0.959 1_556 S
C526 H512 0.961 . S
C526 C525 1.502 . S
C527 H513 0.960 . S
C527 H514 0.961 . S
C527 H515 0.959 . S
C527 C525 1.561 . S
C528 C525 1.526 . S
C528 C529 1.396 . S
C528 C533 1.390 . S
C529 C523 1.465 . S
C529 C528 1.396 . S
C529 C530 1.399 . S
C530 H516 0.929 . S
C530 C529 1.399 . S
C530 C531 1.385 . S
C531 H517 0.931 . S
C531 C530 1.385 . S
C531 C532 1.389 . S
C532 C531 1.389 . S
C532 C533 1.387 . S
C533 H518 0.930 1_556 S
C533 C528 1.390 . S
C533 C532 1.387 . S
H534 C546 0.930 . S
H535 C548 0.930 . S
H536 C549 0.930 . S
H537 C553 0.959 . S
H538 C553 0.959 . S
H539 C553 0.961 . S
H540 C554 0.960 . S
H541 C554 0.961 . S
H542 C554 0.959 . S
H543 C557 0.929 . S
H544 C558 0.931 . S
H545 C560 0.930 . S
C546 H534 0.930 . S
C546 C547 1.399 . S
C546 C551 1.399 . S
C547 C546 1.399 . S
C547 C548 1.376 . S
C548 H535 0.930 . S
C548 C547 1.376 . S
C548 C549 1.388 . S
C549 H536 0.930 . S
C549 C548 1.388 . S
C549 C550 1.390 . S
C550 C549 1.390 . S
C550 C551 1.394 . S
C550 C556 1.465 . S
C551 C546 1.399 . S
C551 C550 1.394 . S
C551 C552 1.516 . S
C552 C551 1.516 . S
C552 C553 1.502 . S
C552 C554 1.561 . S
C552 C555 1.526 . S
C553 H537 0.959 . S
C553 H538 0.959 . S
C553 H539 0.961 . S
C553 C552 1.502 . S
C554 H540 0.960 . S
C554 H541 0.961 . S
C554 H542 0.959 . S
C554 C552 1.561 . S
C555 C552 1.526 . S
C555 C556 1.396 . S
C555 C560 1.390 . S
C556 C550 1.465 . S
C556 C555 1.396 . S
C556 C557 1.399 . S
C557 H543 0.929 . S
C557 C556 1.399 . S
C557 C558 1.385 . S
C558 H544 0.931 . S
C558 C557 1.385 . S
C558 C559 1.389 . S
C559 C558 1.389 . S
C559 C560 1.387 . S
C560 H545 0.930 . S
C560 C555 1.390 . S
C560 C559 1.387 . S
H561 C573 0.930 . S
H562 C575 0.930 . S
H563 C576 0.930 . S
H564 C580 0.959 . S
H565 C580 0.959 . S
H566 C580 0.961 . S
H567 C581 0.960 . S
H568 C581 0.961 . S
H569 C581 0.959 . S
H570 C584 0.929 . S
H571 C585 0.931 . S
H572 C587 0.930 . S
C573 H561 0.930 . S
C573 C574 1.399 . S
C573 C578 1.399 . S
C574 C573 1.399 . S
C574 C575 1.376 . S
C575 H562 0.930 . S
C575 C574 1.376 . S
C575 C576 1.388 . S
C576 H563 0.930 . S
C576 C575 1.388 . S
C576 C577 1.390 . S
C577 C576 1.390 . S
C577 C578 1.394 . S
C577 C583 1.465 . S
C578 C573 1.399 . S
C578 C577 1.394 . S
C578 C579 1.516 . S
C579 C578 1.516 . S
C579 C580 1.502 . S
C579 C581 1.561 . S
C579 C582 1.526 . S
C580 H564 0.959 . S
C580 H565 0.959 . S
C580 H566 0.961 . S
C580 C579 1.502 . S
C581 H567 0.960 . S
C581 H568 0.961 . S
C581 H569 0.959 . S
C581 C579 1.561 . S
C582 C579 1.526 . S
C582 C583 1.396 . S
C582 C587 1.390 . S
C583 C577 1.465 . S
C583 C582 1.396 . S
C583 C584 1.399 . S
C584 H570 0.929 . S
C584 C583 1.399 . S
C584 C585 1.385 . S
C585 H571 0.931 . S
C585 C584 1.385 . S
C585 C586 1.389 . S
C586 C585 1.389 . S
C586 C587 1.387 . S
C587 H572 0.930 . S
C587 C582 1.390 . S
C587 C586 1.387 . S
H588 C600 0.930 . S
H589 C602 0.930 . S
H590 C603 0.930 . S
H591 C607 0.959 . S
H592 C607 0.959 . S
H593 C607 0.961 . S
H594 C608 0.960 . S
H595 C608 0.961 . S
H596 C608 0.959 . S
H597 C611 0.929 . S
H598 C612 0.931 . S
H599 C614 0.930 . S
C600 H588 0.930 . S
C600 C601 1.399 . S
C600 C605 1.399 . S
C601 C600 1.399 . S
C601 C602 1.376 . S
C602 H589 0.930 . S
C602 C601 1.376 . S
C602 C603 1.388 . S
C603 H590 0.930 . S
C603 C602 1.388 . S
C603 C604 1.390 . S
C604 C603 1.390 . S
C604 C605 1.394 . S
C604 C610 1.465 . S
C605 C600 1.399 . S
C605 C604 1.394 . S
C605 C606 1.516 . S
C606 C605 1.516 . S
C606 C607 1.502 . S
C606 C608 1.561 . S
C606 C609 1.526 . S
C607 H591 0.959 . S
C607 H592 0.959 . S
C607 H593 0.961 . S
C607 C606 1.502 . S
C608 H594 0.960 . S
C608 H595 0.961 . S
C608 H596 0.959 . S
C608 C606 1.561 . S
C609 C606 1.526 . S
C609 C610 1.396 . S
C609 C614 1.390 . S
C610 C604 1.465 . S
C610 C609 1.396 . S
C610 C611 1.399 . S
C611 H597 0.929 . S
C611 C610 1.399 . S
C611 C612 1.385 . S
C612 H598 0.931 . S
C612 C611 1.385 . S
C612 C613 1.389 . S
C613 C612 1.389 . S
C613 C614 1.387 . S
C614 H599 0.930 . S
C614 C609 1.390 . S
C614 C613 1.387 . S
H615 C627 0.930 . S
H616 C629 0.930 . S
H617 C630 0.930 . S
H618 C634 0.959 . S
H619 C634 0.959 . S
H620 C634 0.961 . S
H621 C635 0.960 . S
H622 C635 0.961 . S
H623 C635 0.959 . S
H624 C638 0.929 . S
H625 C639 0.931 . S
H626 C641 0.930 . S
C627 H615 0.930 . S
C627 C628 1.399 . S
C627 C632 1.399 . S
C628 C627 1.399 . S
C628 C629 1.376 . S
C629 H616 0.930 . S
C629 C628 1.376 . S
C629 C630 1.388 . S
C630 H617 0.930 . S
C630 C629 1.388 . S
C630 C631 1.390 . S
C631 C630 1.390 . S
C631 C632 1.394 . S
C631 C637 1.465 . S
C632 C627 1.399 . S
C632 C631 1.394 . S
C632 C633 1.516 . S
C633 C632 1.516 . S
C633 C634 1.502 . S
C633 C635 1.561 . S
C633 C636 1.526 . S
C634 H618 0.959 . S
C634 H619 0.959 . S
C634 H620 0.961 . S
C634 C633 1.502 . S
C635 H621 0.960 . S
C635 H622 0.961 . S
C635 H623 0.959 . S
C635 C633 1.561 . S
C636 C633 1.526 . S
C636 C637 1.396 . S
C636 C641 1.390 . S
C637 C631 1.465 . S
C637 C636 1.396 . S
C637 C638 1.399 . S
C638 H624 0.929 . S
C638 C637 1.399 . S
C638 C639 1.385 . S
C639 H625 0.931 . S
C639 C638 1.385 . S
C639 C640 1.389 . S
C640 C639 1.389 . S
C640 C641 1.387 . S
C641 H626 0.930 . S
C641 C636 1.390 . S
C641 C640 1.387 . S
H642 C654 0.930 . S
H643 C656 0.930 . S
H644 C657 0.930 . S
H645 C661 0.959 . S
H646 C661 0.959 . S
H647 C661 0.961 . S
H648 C662 0.960 . S
H649 C662 0.961 . S
H650 C662 0.959 . S
H651 C665 0.929 . S
H652 C666 0.931 . S
H653 C668 0.930 . S
C654 H642 0.930 . S
C654 C655 1.399 . S
C654 C659 1.399 . S
C655 C654 1.399 . S
C655 C656 1.376 . S
C656 H643 0.930 . S
C656 C655 1.376 . S
C656 C657 1.388 . S
C657 H644 0.930 . S
C657 C656 1.388 . S
C657 C658 1.390 . S
C658 C657 1.390 . S
C658 C659 1.394 . S
C658 C664 1.465 . S
C659 C654 1.399 . S
C659 C658 1.394 . S
C659 C660 1.516 . S
C660 C659 1.516 . S
C660 C661 1.502 . S
C660 C662 1.561 . S
C660 C663 1.526 . S
C661 H645 0.959 . S
C661 H646 0.959 . S
C661 H647 0.961 . S
C661 C660 1.502 . S
C662 H648 0.960 . S
C662 H649 0.961 . S
C662 H650 0.959 . S
C662 C660 1.561 . S
C663 C660 1.526 . S
C663 C664 1.396 . S
C663 C668 1.390 . S
C664 C658 1.465 . S
C664 C663 1.396 . S
C664 C665 1.399 . S
C665 H651 0.929 . S
C665 C664 1.399 . S
C665 C666 1.385 . S
C666 H652 0.931 . S
C666 C665 1.385 . S
C666 C667 1.389 . S
C667 C666 1.389 . S
C667 C668 1.387 . S
C668 H653 0.930 . S
C668 C663 1.390 . S
C668 C667 1.387 . S
H669 C681 0.930 . S
H670 C683 0.930 . S
H671 C684 0.930 . S
H672 C688 0.959 . S
H673 C688 0.959 . S
H674 C688 0.961 . S
H675 C689 0.960 . S
H676 C689 0.961 . S
H677 C689 0.959 . S
H678 C692 0.929 . S
H679 C693 0.931 . S
H680 C695 0.930 . S
C681 H669 0.930 . S
C681 C682 1.399 . S
C681 C686 1.399 . S
C682 C681 1.399 . S
C682 C683 1.376 . S
C683 H670 0.930 . S
C683 C682 1.376 . S
C683 C684 1.388 . S
C684 H671 0.930 . S
C684 C683 1.388 . S
C684 C685 1.390 . S
C685 C684 1.390 . S
C685 C686 1.394 . S
C685 C691 1.465 . S
C686 C681 1.399 . S
C686 C685 1.394 . S
C686 C687 1.516 . S
C687 C686 1.516 . S
C687 C688 1.502 . S
C687 C689 1.561 . S
C687 C690 1.526 . S
C688 H672 0.959 . S
C688 H673 0.959 . S
C688 H674 0.961 . S
C688 C687 1.502 . S
C689 H675 0.960 . S
C689 H676 0.961 . S
C689 H677 0.959 . S
C689 C687 1.561 . S
C690 C687 1.526 . S
C690 C691 1.396 . S
C690 C695 1.390 . S
C691 C685 1.465 . S
C691 C690 1.396 . S
C691 C692 1.399 . S
C692 H678 0.929 . S
C692 C691 1.399 . S
C692 C693 1.385 . S
C693 H679 0.931 . S
C693 C692 1.385 . S
C693 C694 1.389 . S
C694 C693 1.389 . S
C694 C695 1.387 . S
C695 H680 0.930 . S
C695 C690 1.390 . S
C695 C694 1.387 . S
H696 C708 0.930 . S
H697 C710 0.930 . S
H698 C711 0.930 . S
H699 C715 0.959 . S
H700 C715 0.959 . S
H701 C715 0.961 . S
H702 C716 0.960 . S
H703 C716 0.961 . S
H704 C716 0.959 . S
H705 C719 0.929 . S
H706 C720 0.931 . S
H707 C722 0.930 . S
C708 H696 0.930 . S
C708 C709 1.399 . S
C708 C713 1.399 . S
C709 C708 1.399 . S
C709 C710 1.376 . S
C710 H697 0.930 . S
C710 C709 1.376 . S
C710 C711 1.388 . S
C711 H698 0.930 . S
C711 C710 1.388 . S
C711 C712 1.390 . S
C712 C711 1.390 . S
C712 C713 1.394 . S
C712 C718 1.465 . S
C713 C708 1.399 . S
C713 C712 1.394 . S
C713 C714 1.516 . S
C714 C713 1.516 . S
C714 C715 1.502 . S
C714 C716 1.561 . S
C714 C717 1.526 . S
C715 H699 0.959 . S
C715 H700 0.959 . S
C715 H701 0.961 . S
C715 C714 1.502 . S
C716 H702 0.960 . S
C716 H703 0.961 . S
C716 H704 0.959 . S
C716 C714 1.561 . S
C717 C714 1.526 . S
C717 C718 1.396 . S
C717 C722 1.390 . S
C718 C712 1.465 . S
C718 C717 1.396 . S
C718 C719 1.399 . S
C719 H705 0.929 . S
C719 C718 1.399 . S
C719 C720 1.385 . S
C720 H706 0.931 . S
C720 C719 1.385 . S
C720 C721 1.389 . S
C721 C720 1.389 . S
C721 C722 1.387 . S
C722 H707 0.930 . S
C722 C717 1.390 . S
C722 C721 1.387 . S
H723 C735 0.930 . S
H724 C737 0.930 . S
H725 C738 0.930 . S
H726 C742 0.959 . S
H727 C742 0.959 . S
H728 C742 0.961 . S
H729 C743 0.960 . S
H730 C743 0.961 . S
H731 C743 0.959 . S
H732 C746 0.929 . S
H733 C747 0.931 . S
H734 C749 0.930 . S
C735 H723 0.930 . S
C735 C736 1.399 . S
C735 C740 1.399 . S
C736 C735 1.399 . S
C736 C737 1.376 . S
C737 H724 0.930 . S
C737 C736 1.376 . S
C737 C738 1.388 . S
C738 H725 0.930 . S
C738 C737 1.388 . S
C738 C739 1.390 . S
C739 C738 1.390 . S
C739 C740 1.394 . S
C739 C745 1.465 . S
C740 C735 1.399 . S
C740 C739 1.394 . S
C740 C741 1.516 . S
C741 C740 1.516 . S
C741 C742 1.502 . S
C741 C743 1.561 . S
C741 C744 1.526 . S
C742 H726 0.959 . S
C742 H727 0.959 . S
C742 H728 0.961 . S
C742 C741 1.502 . S
C743 H729 0.960 . S
C743 H730 0.961 . S
C743 H731 0.959 . S
C743 C741 1.561 . S
C744 C741 1.526 . S
C744 C745 1.396 . S
C744 C749 1.390 . S
C745 C739 1.465 . S
C745 C744 1.396 . S
C745 C746 1.399 . S
C746 H732 0.929 . S
C746 C745 1.399 . S
C746 C747 1.385 . S
C747 H733 0.931 . S
C747 C746 1.385 . S
C747 C748 1.389 . S
C748 C747 1.389 . S
C748 C749 1.387 . S
C749 H734 0.930 . S
C749 C744 1.390 . S
C749 C748 1.387 . S
H750 C762 0.930 . S
H751 C764 0.930 . S
H752 C765 0.930 . S
H753 C769 0.959 . S
H754 C769 0.959 . S
H755 C769 0.961 . S
H756 C770 0.960 . S
H757 C770 0.961 . S
H758 C770 0.959 . S
H759 C773 0.929 . S
H760 C774 0.931 . S
H761 C776 0.930 . S
C762 H750 0.930 . S
C762 C763 1.399 . S
C762 C767 1.399 . S
C763 C762 1.399 . S
C763 C764 1.376 . S
C764 H751 0.930 . S
C764 C763 1.376 . S
C764 C765 1.388 . S
C765 H752 0.930 . S
C765 C764 1.388 . S
C765 C766 1.390 . S
C766 C765 1.390 . S
C766 C767 1.394 . S
C766 C772 1.465 . S
C767 C762 1.399 . S
C767 C766 1.394 . S
C767 C768 1.516 . S
C768 C767 1.516 . S
C768 C769 1.502 . S
C768 C770 1.561 . S
C768 C771 1.526 . S
C769 H753 0.959 . S
C769 H754 0.959 . S
C769 H755 0.961 . S
C769 C768 1.502 . S
C770 H756 0.960 . S
C770 H757 0.961 . S
C770 H758 0.959 . S
C770 C768 1.561 . S
C771 C768 1.526 . S
C771 C772 1.396 . S
C771 C776 1.390 . S
C772 C766 1.465 . S
C772 C771 1.396 . S
C772 C773 1.399 . S
C773 H759 0.929 . S
C773 C772 1.399 . S
C773 C774 1.385 . S
C774 H760 0.931 . S
C774 C773 1.385 . S
C774 C775 1.389 . S
C775 C774 1.389 . S
C775 C776 1.387 . S
C776 H761 0.930 . S
C776 C771 1.390 . S
C776 C775 1.387 . S
H777 C789 0.930 . S
H778 C791 0.930 . S
H779 C792 0.930 . S
H780 C796 0.959 . S
H781 C796 0.959 . S
H782 C796 0.961 . S
H783 C797 0.960 . S
H784 C797 0.961 . S
H785 C797 0.959 . S
H786 C800 0.929 . S
H787 C801 0.931 . S
H788 C803 0.930 . S
C789 H777 0.930 . S
C789 C790 1.399 . S
C789 C794 1.399 . S
C790 C789 1.399 . S
C790 C791 1.376 . S
C791 H778 0.930 . S
C791 C790 1.376 . S
C791 C792 1.388 . S
C792 H779 0.930 . S
C792 C791 1.388 . S
C792 C793 1.390 . S
C793 C792 1.390 . S
C793 C794 1.394 . S
C793 C799 1.465 . S
C794 C789 1.399 . S
C794 C793 1.394 . S
C794 C795 1.516 . S
C795 C794 1.516 . S
C795 C796 1.502 . S
C795 C797 1.561 . S
C795 C798 1.526 . S
C796 H780 0.959 . S
C796 H781 0.959 . S
C796 H782 0.961 . S
C796 C795 1.502 . S
C797 H783 0.960 . S
C797 H784 0.961 . S
C797 H785 0.959 . S
C797 C795 1.561 . S
C798 C795 1.526 . S
C798 C799 1.396 . S
C798 C803 1.390 . S
C799 C793 1.465 . S
C799 C798 1.396 . S
C799 C800 1.399 . S
C800 H786 0.929 . S
C800 C799 1.399 . S
C800 C801 1.385 . S
C801 H787 0.931 . S
C801 C800 1.385 . S
C801 C802 1.389 . S
C802 C801 1.389 . S
C802 C803 1.387 . S
C803 H788 0.930 . S
C803 C798 1.390 . S
C803 C802 1.387 . S
H804 C816 0.930 . S
H805 C818 0.930 . S
H806 C819 0.930 . S
H807 C823 0.959 . S
H808 C823 0.959 . S
H809 C823 0.961 . S
H810 C824 0.960 . S
H811 C824 0.961 . S
H812 C824 0.959 . S
H813 C827 0.929 . S
H814 C828 0.931 . S
H815 C830 0.930 . S
C816 H804 0.930 . S
C816 C817 1.399 . S
C816 C821 1.399 . S
C817 C816 1.399 . S
C817 C818 1.376 . S
C818 H805 0.930 . S
C818 C817 1.376 . S
C818 C819 1.388 . S
C819 H806 0.930 . S
C819 C818 1.388 . S
C819 C820 1.390 . S
C820 C819 1.390 . S
C820 C821 1.394 . S
C820 C826 1.465 . S
C821 C816 1.399 . S
C821 C820 1.394 . S
C821 C822 1.516 . S
C822 C821 1.516 . S
C822 C823 1.502 . S
C822 C824 1.561 . S
C822 C825 1.526 . S
C823 H807 0.959 . S
C823 H808 0.959 . S
C823 H809 0.961 . S
C823 C822 1.502 . S
C824 H810 0.960 . S
C824 H811 0.961 . S
C824 H812 0.959 . S
C824 C822 1.561 . S
C825 C822 1.526 . S
C825 C826 1.396 . S
C825 C830 1.390 . S
C826 C820 1.465 . S
C826 C825 1.396 . S
C826 C827 1.399 . S
C827 H813 0.929 . S
C827 C826 1.399 . S
C827 C828 1.385 . S
C828 H814 0.931 . S
C828 C827 1.385 . S
C828 C829 1.389 . S
C829 C828 1.389 . S
C829 C830 1.387 . S
C830 H815 0.930 . S
C830 C825 1.390 . S
C830 C829 1.387 . S
H831 C843 0.930 . S
H832 C845 0.930 . S
H833 C846 0.930 . S
H834 C850 0.959 . S
H835 C850 0.959 . S
H836 C850 0.961 . S
H837 C851 0.960 . S
H838 C851 0.961 . S
H839 C851 0.959 . S
H840 C854 0.929 . S
H841 C855 0.931 . S
H842 C857 0.930 . S
C843 H831 0.930 . S
C843 C844 1.399 . S
C843 C848 1.399 . S
C844 C843 1.399 . S
C844 C845 1.376 . S
C845 H832 0.930 . S
C845 C844 1.376 . S
C845 C846 1.388 . S
C846 H833 0.930 . S
C846 C845 1.388 . S
C846 C847 1.390 . S
C847 C846 1.390 . S
C847 C848 1.394 . S
C847 C853 1.465 . S
C848 C843 1.399 . S
C848 C847 1.394 . S
C848 C849 1.516 . S
C849 C848 1.516 . S
C849 C850 1.502 . S
C849 C851 1.561 . S
C849 C852 1.526 . S
C850 H834 0.959 . S
C850 H835 0.959 . S
C850 H836 0.961 . S
C850 C849 1.502 . S
C851 H837 0.960 . S
C851 H838 0.961 . S
C851 H839 0.959 . S
C851 C849 1.561 . S
C852 C849 1.526 . S
C852 C853 1.396 . S
C852 C857 1.390 . S
C853 C847 1.465 . S
C853 C852 1.396 . S
C853 C854 1.399 . S
C854 H840 0.929 . S
C854 C853 1.399 . S
C854 C855 1.385 . S
C855 H841 0.931 . S
C855 C854 1.385 . S
C855 C856 1.389 . S
C856 C855 1.389 . S
C856 C857 1.387 . S
C857 H842 0.930 . S
C857 C852 1.390 . S
C857 C856 1.387 . S
H858 C870 0.930 . S
H859 C872 0.930 . S
H860 C873 0.930 . S
H861 C877 0.959 . S
H862 C877 0.959 . S
H863 C877 0.961 . S
H864 C878 0.960 . S
H865 C878 0.961 . S
H866 C878 0.959 . S
H867 C881 0.929 . S
H868 C882 0.931 . S
H869 C884 0.930 . S
C870 H858 0.930 . S
C870 C871 1.399 . S
C870 C875 1.399 . S
C871 C870 1.399 . S
C871 C872 1.376 . S
C872 H859 0.930 . S
C872 C871 1.376 . S
C872 C873 1.388 . S
C873 H860 0.930 . S
C873 C872 1.388 . S
C873 C874 1.390 . S
C874 C873 1.390 . S
C874 C875 1.394 . S
C874 C880 1.465 . S
C875 C870 1.399 . S
C875 C874 1.394 . S
C875 C876 1.516 . S
C876 C875 1.516 . S
C876 C877 1.502 . S
C876 C878 1.561 . S
C876 C879 1.526 . S
C877 H861 0.959 . S
C877 H862 0.959 . S
C877 H863 0.961 . S
C877 C876 1.502 . S
C878 H864 0.960 . S
C878 H865 0.961 . S
C878 H866 0.959 . S
C878 C876 1.561 . S
C879 C876 1.526 . S
C879 C880 1.396 . S
C879 C884 1.390 . S
C880 C874 1.465 . S
C880 C879 1.396 . S
C880 C881 1.399 . S
C881 H867 0.929 . S
C881 C880 1.399 . S
C881 C882 1.385 . S
C882 H868 0.931 . S
C882 C881 1.385 . S
C882 C883 1.389 . S
C883 C882 1.389 . S
C883 C884 1.387 . S
C884 H869 0.930 . S
C884 C879 1.390 . S
C884 C883 1.387 . S
H885 C897 0.930 . S
H886 C899 0.930 . S
H887 C900 0.930 . S
H888 C904 0.959 . S
H889 C904 0.959 . S
H890 C904 0.961 . S
H891 C905 0.960 . S
H892 C905 0.961 . S
H893 C905 0.959 . S
H894 C908 0.929 . S
H895 C909 0.931 . S
H896 C911 0.930 . S
C897 H885 0.930 . S
C897 C898 1.399 . S
C897 C902 1.399 . S
C898 C897 1.399 . S
C898 C899 1.376 . S
C899 H886 0.930 . S
C899 C898 1.376 . S
C899 C900 1.388 . S
C900 H887 0.930 . S
C900 C899 1.388 . S
C900 C901 1.390 . S
C901 C900 1.390 . S
C901 C902 1.394 . S
C901 C907 1.465 . S
C902 C897 1.399 . S
C902 C901 1.394 . S
C902 C903 1.516 . S
C903 C902 1.516 . S
C903 C904 1.502 . S
C903 C905 1.561 . S
C903 C906 1.526 . S
C904 H888 0.959 . S
C904 H889 0.959 . S
C904 H890 0.961 . S
C904 C903 1.502 . S
C905 H891 0.960 . S
C905 H892 0.961 . S
C905 H893 0.959 . S
C905 C903 1.561 . S
C906 C903 1.526 . S
C906 C907 1.396 . S
C906 C911 1.390 . S
C907 C901 1.465 . S
C907 C906 1.396 . S
C907 C908 1.399 . S
C908 H894 0.929 . S
C908 C907 1.399 . S
C908 C909 1.385 . S
C909 H895 0.931 . S
C909 C908 1.385 . S
C909 C910 1.389 . S
C910 C909 1.389 . S
C910 C911 1.387 . S
C911 H896 0.930 . S
C911 C906 1.390 . S
C911 C910 1.387 . S
C277 N1 0.937 . S
C289 C119 0.848 . S
C304 N18 1.524 . S
C316 C163 1.617 1_556 S
C343 C193 1.814 . S
C331 N28 1.789 . S
C358 N40 2.848 . S
C370 C234 2.824 . S
C397 C150 1.163 . S
C385 N5 1.155 . S
C424 C114 2.280 . S
C412 N14 2.207 . S
C451 C242 1.285 . S
C439 N31 1.263 . S
C478 C203 1.935 . S
C466 N41 2.007 . S
C493 N2 0.887 . S
C505 C239 0.952 . S
C532 C153 2.198 1_556 S
C520 N27 2.248 . S
C547 N44 2.038 . S
C559 C122 2.045 1_655 S
C574 N15 1.693 . S
C586 C190 1.673 . S
C613 C110 1.497 . S
C601 N57 1.462 . S
C628 N70 1.281 . S
C640 C154 1.231 . S
C655 N79 2.089 . S
C667 C202 2.167 . S
C682 N93 2.661 . S
C694 C243 2.600 . S
C709 N54 0.730 . S
C721 C159 0.685 . S
C748 C123 2.820 1_655 S
C736 N66 2.840 . S
C775 C233 0.763 . S
C763 N80 0.706 . S
C802 C194 2.044 . S
C790 N96 2.159 . S
C817 N53 0.839 . S
C829 C230 1.018 . S
C856 C162 1.594 . S
C844 N83 1.595 . S
C883 C113 2.144 . S
C871 N92 2.236 . S
C898 N67 2.073 . S
C910 C199 2.048 . S
