# Generated by pormake.
# Topology rtl, (3,6)-cn, num edge types: 1
# Building blocks:
#     Node 0, Type 0, BuildingBlock: BETDIP_clean_linker_0, # of connection points: 3
#     Node 1, Type 0, BuildingBlock: BETDIP_clean_linker_0, # of connection points: 3
#     Node 2, Type 0, BuildingBlock: BETDIP_clean_linker_0, # of connection points: 3
#     Node 3, Type 0, BuildingBlock: BETDIP_clean_linker_0, # of connection points: 3
#     Node 4, Type 1, BuildingBlock: KUMBUR_clean_sbu_1, # of connection points: 6
#     Node 5, Type 1, BuildingBlock: KUMBUR_clean_sbu_1, # of connection points: 6
#     Edge 6, Type (0, 1), BuildingBlock: TEMPAE_clean_linker_10, # of connection points: 2
#     Edge 7, Type (0, 1), BuildingBlock: TEMPAE_clean_linker_10, # of connection points: 2
#     Edge 8, Type (0, 1), BuildingBlock: TEMPAE_clean_linker_10, # of connection points: 2
#     Edge 9, Type (0, 1), BuildingBlock: TEMPAE_clean_linker_10, # of connection points: 2
#     Edge 10, Type (0, 1), BuildingBlock: TEMPAE_clean_linker_10, # of connection points: 2
#     Edge 11, Type (0, 1), BuildingBlock: TEMPAE_clean_linker_10, # of connection points: 2
#     Edge 12, Type (0, 1), BuildingBlock: TEMPAE_clean_linker_10, # of connection points: 2
#     Edge 13, Type (0, 1), BuildingBlock: TEMPAE_clean_linker_10, # of connection points: 2
#     Edge 14, Type (0, 1), BuildingBlock: TEMPAE_clean_linker_10, # of connection points: 2
#     Edge 15, Type (0, 1), BuildingBlock: TEMPAE_clean_linker_10, # of connection points: 2
#     Edge 16, Type (0, 1), BuildingBlock: TEMPAE_clean_linker_10, # of connection points: 2
#     Edge 17, Type (0, 1), BuildingBlock: TEMPAE_clean_linker_10, # of connection points: 2
# Relax obj value: 0.052
# Max RMSD: 0.219
# Mean RMSD: 0.160
data_MOF--net-rtl--node1-KUMBUR_clean_sbu_1--node2-BETDIP_clean_linker_0--edge1-TEMPAE_clean_linker_10
_symmetry_space_group_name_H-M    P1
_symmetry_Int_Tables_number       1
_symmetry_cell_setting            triclinic
loop_
_symmetry_equiv_pos_as_xyz
'x, y, z'
_cell_length_a     35.86827
_cell_length_b     36.044781
_cell_length_c     27.39659
_cell_angle_alpha  78.172527
_cell_angle_beta   100.03309
_cell_angle_gamma 91.45377
loop_
_atom_site_label
_atom_site_type_symbol
_atom_site_fract_x
_atom_site_fract_y
_atom_site_fract_z
_atom_type_partial_charge
H0 H 0.22466 0.82343 0.94195 0.0
H1 H 0.23247 0.79808 0.1038 0.0
H2 H 0.15368 0.88294 0.01265 0.0
H3 H 0.24797 0.73768 0.08656 0.0
C4 C 0.26797 0.747 0.06108 0.0
C5 C 0.21552 0.829 0.97544 0.0
C6 C 0.18638 0.85549 0.97092 0.0
C7 C 0.23206 0.80803 0.02291 0.0
C8 C 0.21973 0.81392 0.06689 0.0
C9 C 0.19084 0.84055 0.06297 0.0
C10 C 0.17496 0.86148 0.01515 0.0
N11 N 0.26119 0.78152 0.02485 0.0
H12 H 0.71355 0.71514 0.73985 0.0
H13 H 0.72521 0.71682 0.58603 0.0
H14 H 0.64317 0.64421 0.65322 0.0
H15 H 0.79215 0.7175 0.63259 0.0
C16 C 0.78585 0.74346 0.6441 0.0
C17 C 0.70494 0.7048 0.70518 0.0
C18 C 0.67549 0.67817 0.70175 0.0
C19 C 0.72373 0.71792 0.664 0.0
C20 C 0.71194 0.7054 0.61848 0.0
C21 C 0.6823 0.67944 0.61396 0.0
C22 C 0.66479 0.66559 0.65597 0.0
N23 N 0.75373 0.74446 0.66804 0.0
H24 H 0.79897 0.22504 0.97644 0.0
H25 H 0.80413 0.20052 0.13765 0.0
H26 H 0.87283 0.13653 0.0694 0.0
H27 H 0.7319 0.20906 0.09667 0.0
C28 C 0.73883 0.23757 0.0787 0.0
C29 C 0.81041 0.20832 0.0134 0.0
C30 C 0.83822 0.18049 0.01821 0.0
C31 C 0.79718 0.21456 0.05633 0.0
C32 C 0.81299 0.19389 0.10457 0.0
C33 C 0.8413 0.16626 0.11009 0.0
C34 C 0.8526 0.15907 0.06632 0.0
N35 N 0.76904 0.24281 0.05071 0.0
H36 H 0.3183 0.30436 0.37369 0.0
H37 H 0.30859 0.29541 0.52937 0.0
H38 H 0.38062 0.38001 0.46084 0.0
H39 H 0.30955 0.22803 0.51848 0.0
C40 C 0.28488 0.23388 0.48862 0.0
C41 C 0.32663 0.31405 0.40886 0.0
C42 C 0.35242 0.34418 0.4117 0.0
C43 C 0.31148 0.2959 0.45148 0.0
C44 C 0.32083 0.30905 0.49688 0.0
C45 C 0.34498 0.34009 0.50031 0.0
C46 C 0.36126 0.35677 0.45789 0.0
N47 N 0.28568 0.26542 0.44782 0.0
Tb48 Tb 0.03641 0.96993 0.51116 0.0
C49 C 0.94623 0.1176 0.49371 0.0
N50 N 0.98007 0.10745 0.52409 0.0
C51 C 1.00263 0.17084 0.50205 0.0
C52 C 0.93942 0.15495 0.46572 0.0
C53 C 0.00805 0.13347 0.52909 0.0
C54 C 0.96818 0.18164 0.47016 0.0
C55 C 0.88381 0.09926 0.45693 0.0
C56 C 0.91893 0.08994 0.48914 0.0
C57 C 0.87674 0.13652 0.42939 0.0
C58 C 0.90446 0.16428 0.43373 0.0
Tb59 Tb 0.98538 0.04616 0.5672 0.0
N60 N 0.92694 0.05397 0.516 0.0
C61 C 0.85665 0.07096 0.45383 0.0
C62 C 0.89921 0.02726 0.51612 0.0
C63 C 0.8642 0.03497 0.48414 0.0
H64 H 0.03422 0.1257 0.5548 0.0
H65 H 0.84269 0.01336 0.48387 0.0
H66 H 0.97687 0.89904 0.49703 0.0
H67 H 0.17744 0.9739 0.61885 0.0
H68 H 0.90279 1.00052 0.54213 0.0
H69 H 0.82939 0.07693 0.42939 0.0
H70 H 0.12074 1.00074 0.55903 0.0
H71 H 0.02494 0.19135 0.5061 0.0
H72 H 0.84983 0.14422 0.40477 0.0
H73 H 0.89869 0.19282 0.41193 0.0
H74 H 0.97426 0.83064 0.53319 0.0
H75 H 0.96409 0.2106 0.44917 0.0
H76 H 0.18057 0.90553 0.6579 0.0
N77 N 0.0312 0.90618 0.53952 0.0
C78 C 0.06178 0.88885 0.57187 0.0
C79 C 0.99893 0.84673 0.54469 0.0
C80 C 0.06185 0.84971 0.59271 0.0
C81 C 1.00026 0.88562 0.52486 0.0
C82 C 0.02976 0.82871 0.57898 0.0
N83 N 0.09088 0.94872 0.56583 0.0
C84 C 0.12123 0.97115 0.57635 0.0
C85 C 0.12495 0.89402 0.61895 0.0
C86 C 0.09292 0.91069 0.58482 0.0
C87 C 0.15547 0.91721 0.63167 0.0
C88 C 0.15371 0.95586 0.60993 0.0
H89 H 0.02864 0.79858 0.59427 0.0
H90 H 0.09431 0.80288 0.6432 0.0
H91 H 0.14951 0.84168 0.66621 0.0
O92 O 0.07254 0.98573 0.45786 0.0
O93 O 0.04082 0.9604 0.59362 0.0
O94 O 0.03544 0.01803 0.61713 0.0
O95 O 0.03936 0.93522 0.4588 0.0
O96 O 0.05963 0.02774 0.50377 0.0
O97 O 0.04622 0.05562 0.56852 0.0
O98 O 0.94683 0.04078 0.6177 0.0
O99 O 0.99007 0.05721 0.48661 0.0
O100 O 0.98527 0.99876 0.46521 0.0
O101 O 0.98891 0.08407 0.61703 0.0
O102 O 0.9691 0.98613 0.5842 0.0
O103 O 0.97575 0.96466 0.51265 0.0
C104 C 0.04632 0.98229 0.62706 0.0
C105 C 0.0553 0.9652 0.38078 0.0
C106 C 0.06914 0.95333 0.30115 0.0
C107 C 0.04052 0.97962 0.2748 0.0
C108 C 0.02725 0.99153 0.35391 0.0
C109 C 0.01978 0.99853 0.30113 0.0
C110 C 0.07619 0.9462 0.35442 0.0
C111 C 0.06649 0.05274 0.53343 0.0
C112 C 0.06323 0.95703 0.43627 0.0
C113 C 0.09375 0.8329 0.62666 0.0
C114 C 0.12523 0.85499 0.63971 0.0
C115 C 0.97967 0.03564 0.45352 0.0
C116 C 0.96964 0.05875 0.69478 0.0
C117 C 0.95635 0.06931 0.77524 0.0
C118 C 0.98266 0.04045 0.80078 0.0
C119 C 0.99508 0.02958 0.72087 0.0
C120 C 0.95029 0.07853 0.72197 0.0
C121 C 1.00184 0.02076 0.77364 0.0
C122 C 0.96219 0.96106 0.55496 0.0
C123 C 0.96189 0.06782 0.63925 0.0
H124 H 0.03386 0.98529 0.23384 0.0
H125 H 0.01131 0.00659 0.37379 0.0
H126 H 0.99781 0.01861 0.28059 0.0
H127 H 0.09827 0.92627 0.37547 0.0
H128 H 0.98849 0.03315 0.84175 0.0
H129 H 0.00931 0.01342 0.70043 0.0
H130 H 0.92987 0.10039 0.70157 0.0
H131 H 0.02179 0.99842 0.79354 0.0
Tb132 Tb 0.4772 0.48402 0.99979 0.0
C133 C 0.62476 0.55585 0.05689 0.0
N134 N 0.61089 0.52304 0.08111 0.0
C135 C 0.66903 0.491 0.08193 0.0
C136 C 0.66059 0.55712 0.04214 0.0
C137 C 0.63386 0.49167 0.0972 0.0
C138 C 0.68214 0.5237 0.05329 0.0
C139 C 0.61878 0.6242 0.03008 0.0
C140 C 0.60426 0.58893 0.05074 0.0
C141 C 0.65376 0.62547 0.01349 0.0
C142 C 0.67454 0.59196 0.01924 0.0
Tb143 Tb 0.55207 0.52742 0.10239 0.0
N144 N 0.57045 0.58647 0.06701 0.0
C145 C 0.59792 0.65707 0.02751 0.0
C146 C 0.55069 0.61847 0.06656 0.0
C147 C 0.56387 0.65419 0.04623 0.0
H148 H 0.6259 0.46745 0.1233 0.0
H149 H 0.54787 0.67947 0.04521 0.0
H150 H 0.39435 0.52103 0.99903 0.0
H151 H 0.51898 0.33717 0.02115 0.0
H152 H 0.52469 0.61635 0.08167 0.0
H153 H 0.60809 0.68475 0.01184 0.0
H154 H 0.52155 0.40599 0.98894 0.0
H155 H 0.68649 0.4656 0.0936 0.0
H156 H 0.66532 0.65229 0.99714 0.0
H157 H 0.70194 0.59346 0.00746 0.0
H158 H 0.33322 0.49951 0.02451 0.0
H159 H 0.70977 0.52339 0.04248 0.0
H160 H 0.46637 0.31036 0.06459 0.0
N161 N 0.41993 0.46642 0.02201 0.0
C162 C 0.41511 0.42899 0.03987 0.0
C163 C 0.35612 0.47939 0.02937 0.0
C164 C 0.38106 0.41531 0.05551 0.0
C165 C 0.39074 0.49157 0.01508 0.0
C166 C 0.3514 0.44113 0.05028 0.0
N167 N 0.47509 0.41897 0.02151 0.0
C168 C 0.50029 0.39505 0.01123 0.0
C169 C 0.44008 0.3651 0.05732 0.0
C170 C 0.44418 0.40445 0.04082 0.0
C171 C 0.46836 0.34079 0.05235 0.0
C172 C 0.49815 0.35581 0.02804 0.0
H173 H 0.32468 0.43179 0.06165 0.0
H174 H 0.35192 0.36533 0.08791 0.0
H175 H 0.40368 0.32121 0.08939 0.0
O176 O 0.46036 0.46021 0.93542 0.0
O177 O 0.46339 0.48196 0.07556 0.0
O178 O 0.52078 0.47617 0.12979 0.0
O179 O 0.45233 0.51964 0.93152 0.0
O180 O 0.53654 0.46448 0.01771 0.0
O181 O 0.55794 0.46692 0.10139 0.0
O182 O 0.54255 0.5534 0.16189 0.0
O183 O 0.53819 0.55542 0.0217 0.0
O184 O 0.53138 0.50609 0.98099 0.0
O185 O 0.59315 0.5215 0.1683 0.0
O186 O 0.4937 0.54849 0.08995 0.0
O187 O 0.46516 0.54208 0.00838 0.0
C188 C 0.48402 0.47033 0.12062 0.0
C189 C 0.41013 0.49027 0.8736 0.0
C190 C 0.37434 0.46976 0.7994 0.0
C191 C 0.34266 0.49008 0.80404 0.0
C192 C 0.37813 0.51037 0.87758 0.0
C193 C 0.34454 0.50999 0.84311 0.0
C194 C 0.40791 0.4697 0.83472 0.0
C195 C 0.55749 0.45105 0.06204 0.0
C196 C 0.44681 0.49198 0.90716 0.0
C197 C 0.37761 0.3764 0.07486 0.0
C198 C 0.40715 0.35131 0.07589 0.0
C199 C 0.54295 0.5405 0.9834 0.0
C200 C 0.59895 0.57434 0.20703 0.0
C201 C 0.61845 0.61236 0.27132 0.0
C202 C 0.64434 0.63133 0.24199 0.0
C203 C 0.62613 0.59278 0.17968 0.0
C204 C 0.59543 0.58399 0.25329 0.0
C205 C 0.64814 0.6215 0.19656 0.0
C206 C 0.46808 0.55825 0.04834 0.0
C207 C 0.57577 0.54387 0.18864 0.0
H208 H 0.31642 0.49044 0.77748 0.0
H209 H 0.37916 0.5268 0.90669 0.0
H210 H 0.31999 0.52559 0.84632 0.0
H211 H 0.43271 0.45463 0.83097 0.0
H212 H 0.66278 0.65284 0.25514 0.0
H213 H 0.63118 0.58442 0.14594 0.0
H214 H 0.57527 0.56919 0.27541 0.0
H215 H 0.66889 0.63553 0.17494 0.0
C216 C 0.25805 0.17141 0.52236 0.0
C217 C 0.25247 0.20743 0.49086 0.0
C218 C 0.2279 0.14608 0.52778 0.0
C219 C 0.19089 0.15738 0.50214 0.0
C220 C 0.18506 0.19381 0.47016 0.0
C221 C 0.21603 0.21827 0.46442 0.0
C222 C 0.23566 0.10726 0.56125 0.0
C223 C 0.14598 0.20727 0.44299 0.0
C224 C 0.11745 0.08059 0.48474 0.0
C225 C 0.09834 0.07959 0.52566 0.0
C226 C 0.14742 0.10574 0.47657 0.0
C227 C 0.15837 0.13115 0.50952 0.0
C228 C 0.13912 0.13049 0.5507 0.0
C229 C 0.10987 0.10436 0.55875 0.0
C230 C 0.1677 0.10478 0.43294 0.0
C231 C 0.14951 0.15736 0.58645 0.0
H232 H 0.28621 0.16298 0.54285 0.0
H233 H 0.21149 0.24625 0.44047 0.0
H234 H 0.2202 0.10406 0.59355 0.0
H235 H 0.22521 0.08504 0.5397 0.0
H236 H 0.26629 0.10211 0.57644 0.0
H237 H 0.14613 0.23631 0.41952 0.0
H238 H 0.13376 0.18767 0.41819 0.0
H239 H 0.127 0.20714 0.47097 0.0
H240 H 0.10913 0.06155 0.45895 0.0
H241 H 0.09609 0.10338 0.59115 0.0
H242 H 0.19819 0.09829 0.44739 0.0
H243 H 0.16582 0.13298 0.40711 0.0
H244 H 0.15585 0.08329 0.41081 0.0
H245 H 0.17889 0.15144 0.60707 0.0
H246 H 0.13027 0.15497 0.61461 0.0
H247 H 0.14855 0.18703 0.56479 0.0
C248 C 0.3288 0.73335 0.03441 0.0
C249 C 0.29795 0.72041 0.05817 0.0
C250 C 0.35719 0.70812 0.03149 0.0
C251 C 0.35419 0.66895 0.05185 0.0
C252 C 0.32283 0.65575 0.07542 0.0
C253 C 0.29535 0.68175 0.07887 0.0
C254 C 0.39064 0.72344 0.00722 0.0
C255 C 0.31822 0.61414 0.09677 0.0
C256 C 0.41039 0.59844 0.00637 0.0
C257 C 0.43986 0.58798 0.04774 0.0
C258 C 0.38224 0.62463 0.0072 0.0
C259 C 0.38426 0.64182 0.04966 0.0
C260 C 0.4147 0.63254 0.09064 0.0
C261 C 0.44181 0.6055 0.08945 0.0
C262 C 0.3499 0.63331 0.96307 0.0
C263 C 0.41845 0.6509 0.1361 0.0
H264 H 0.33106 0.76331 0.01871 0.0
H265 H 0.2714 0.67175 0.09707 0.0
H266 H 0.41726 0.7163 0.03483 0.0
H267 H 0.39242 0.71 0.97472 0.0
H268 H 0.38891 0.75467 0.99359 0.0
H269 H 0.29141 0.6083 0.11192 0.0
H270 H 0.31864 0.59749 0.06698 0.0
H271 H 0.34225 0.60389 0.12768 0.0
H272 H 0.40887 0.58576 0.9735 0.0
H273 H 0.46451 0.59803 0.12157 0.0
H274 H 0.34901 0.66404 0.94609 0.0
H275 H 0.32262 0.62622 0.97645 0.0
H276 H 0.35224 0.61725 0.93316 0.0
H277 H 0.41788 0.68222 0.12381 0.0
H278 H 0.44502 0.64233 0.16338 0.0
H279 H 0.39412 0.643 0.15603 0.0
C280 C 0.80099 0.81301 0.63596 0.0
C281 C 0.81178 0.77604 0.63525 0.0
C282 C 0.8249 0.84391 0.62359 0.0
C283 C 0.86069 0.83755 0.6112 0.0
C284 C 0.87199 0.80007 0.61181 0.0
C285 C 0.84723 0.76992 0.62318 0.0
C286 C 0.81152 0.88346 0.62259 0.0
C287 C 0.91004 0.79181 0.59966 0.0
C288 C 0.91016 0.91674 0.53185 0.0
C289 C 0.93619 0.92958 0.56902 0.0
C290 C 0.8849 0.88739 0.54511 0.0
C291 C 0.88616 0.86999 0.59674 0.0
C292 C 0.91262 0.88283 0.63436 0.0
C293 C 0.93698 0.91275 0.62007 0.0
C294 C 0.85683 0.87504 0.50383 0.0
C295 C 0.91565 0.86451 0.68965 0.0
H296 H 0.77346 0.81796 0.64476 0.0
H297 H 0.85561 0.74136 0.62252 0.0
H298 H 0.83191 0.89699 0.64879 0.0
H299 H 0.81027 0.9011 0.58403 0.0
H300 H 0.78311 0.88369 0.63345 0.0
H301 H 0.91608 0.76091 0.60664 0.0
H302 H 0.91082 0.80409 0.55929 0.0
H303 H 0.93298 0.80521 0.62268 0.0
H304 H 0.9092 0.93007 0.49239 0.0
H305 H 0.95724 0.92255 0.64886 0.0
H306 H 0.82766 0.87666 0.51169 0.0
H307 H 0.86241 0.84508 0.50298 0.0
H308 H 0.85816 0.89271 0.46586 0.0
H309 H 0.88804 0.86637 0.70202 0.0
H310 H 0.93757 0.87792 0.71423 0.0
H311 H 0.92281 0.83397 0.69537 0.0
C312 C 0.72681 0.30606 0.07591 0.0
C313 C 0.71305 0.26924 0.07705 0.0
C314 C 0.70247 0.33602 0.07587 0.0
C315 C 0.66331 0.3291 0.07492 0.0
C316 C 0.6493 0.29196 0.07538 0.0
C317 C 0.67455 0.26229 0.07755 0.0
C318 C 0.71866 0.37495 0.07726 0.0
C319 C 0.60756 0.2837 0.07249 0.0
C320 C 0.59994 0.39746 0.11289 0.0
C321 C 0.58483 0.41997 0.06581 0.0
C322 C 0.62637 0.36846 0.11663 0.0
C323 C 0.63676 0.36086 0.07203 0.0
C324 C 0.6213 0.38328 0.0244 0.0
C325 C 0.59626 0.41308 0.02201 0.0
C326 C 0.6433 0.34608 0.16827 0.0
C327 C 0.63073 0.37546 0.97581 0.0
H328 H 0.75676 0.31124 0.07626 0.0
H329 H 0.66404 0.23374 0.07835 0.0
H330 H 0.70653 0.39529 0.04225 0.0
H331 H 0.71084 0.38536 0.10959 0.0
H332 H 0.75 0.37512 0.08088 0.0
H333 H 0.60118 0.25344 0.07205 0.0
H334 H 0.59733 0.2911 0.10525 0.0
H335 H 0.59132 0.30148 0.03773 0.0
H336 H 0.59137 0.40276 0.1469 0.0
H337 H 0.5853 0.43081 0.98555 0.0
H338 H 0.67467 0.34681 0.17329 0.0
H339 H 0.63488 0.31596 0.17171 0.0
H340 H 0.63416 0.35716 0.19932 0.0
H341 H 0.66151 0.37895 0.97561 0.0
H342 H 0.61508 0.39459 0.94176 0.0
H343 H 0.62377 0.3457 0.97305 0.0
C344 C 0.13717 0.84792 0.10692 0.0
C345 C 0.17636 0.84739 0.10789 0.0
C346 C 0.12193 0.8614 0.14377 0.0
C347 C 0.14651 0.87466 0.18269 0.0
C348 C 0.18625 0.87171 0.18593 0.0
C349 C 0.20078 0.85804 0.14836 0.0
C350 C 0.07942 0.86377 0.13899 0.0
C351 C 0.21336 0.8852 0.22715 0.0
C352 C 0.10358 0.95324 0.22904 0.0
C353 C 0.09141 0.93343 0.27301 0.0
C354 C 0.12282 0.93463 0.20044 0.0
C355 C 0.13028 0.89519 0.21624 0.0
C356 C 0.11931 0.87523 0.26156 0.0
C357 C 0.09992 0.89457 0.28936 0.0
C358 C 0.13408 0.95702 0.15237 0.0
C359 C 0.12685 0.83322 0.2797 0.0
H360 H 0.1183 0.83929 0.07585 0.0
H361 H 0.23108 0.85775 0.14903 0.0
H362 H 0.07058 0.8512 0.17562 0.0
H363 H 0.07023 0.89396 0.12894 0.0
H364 H 0.06441 0.84904 0.10951 0.0
H365 H 0.24298 0.8761 0.22869 0.0
H366 H 0.21237 0.91662 0.2202 0.0
H367 H 0.20503 0.87439 0.2646 0.0
H368 H 0.09782 0.9834 0.21672 0.0
H369 H 0.0904 0.87896 0.3231 0.0
H370 H 0.11837 0.94658 0.11929 0.0
H371 H 0.16471 0.95295 0.15289 0.0
H372 H 0.12814 0.98783 0.14688 0.0
H373 H 0.10924 0.81755 0.25331 0.0
H374 H 0.12028 0.82272 0.31828 0.0
H375 H 0.1569 0.82651 0.27995 0.0
C376 C 0.67666 0.65232 0.79498 0.0
C377 C 0.65611 0.66236 0.74559 0.0
C378 C 0.65911 0.6339 0.83544 0.0
C379 C 0.62004 0.62526 0.82642 0.0
C380 C 0.59896 0.63629 0.77695 0.0
C381 C 0.61709 0.65495 0.73743 0.0
C382 C 0.68249 0.6237 0.88776 0.0
C383 C 0.55734 0.62747 0.76542 0.0
C384 C 0.58161 0.54323 0.91493 0.0
C385 C 0.56243 0.56223 0.94314 0.0
C386 C 0.60085 0.56339 0.87738 0.0
C387 C 0.60122 0.60356 0.86797 0.0
C388 C 0.582 0.62284 0.89654 0.0
C389 C 0.56238 0.60196 0.93317 0.0
C390 C 0.62069 0.54168 0.84756 0.0
C391 C 0.5824 0.66552 0.88873 0.0
H392 H 0.70678 0.65776 0.80184 0.0
H393 H 0.60065 0.66333 0.69973 0.0
H394 H 0.6741 0.64253 0.91138 0.0
H395 H 0.67727 0.59407 0.90609 0.0
H396 H 0.7133 0.62711 0.88729 0.0
H397 H 0.54488 0.63822 0.72505 0.0
H398 H 0.55325 0.59635 0.77458 0.0
H399 H 0.54148 0.64018 0.78936 0.0
H400 H 0.58183 0.51251 0.92248 0.0
H401 H 0.54698 0.6168 0.95415 0.0
H402 H 0.65123 0.5487 0.85227 0.0
H403 H 0.6088 0.55012 0.80664 0.0
H404 H 0.61786 0.51052 0.85954 0.0
H405 H 0.61191 0.67515 0.89816 0.0
H406 H 0.56485 0.67628 0.9126 0.0
H407 H 0.57184 0.67844 0.84845 0.0
C408 C 0.84063 0.13659 0.20191 0.0
C409 C 0.86034 0.1458 0.16107 0.0
C410 C 0.8589 0.11786 0.24998 0.0
C411 C 0.89748 0.10714 0.25704 0.0
C412 C 0.91734 0.1157 0.21593 0.0
C413 C 0.89882 0.13553 0.16893 0.0
C414 C 0.83722 0.11037 0.29348 0.0
C415 C 0.95819 0.10377 0.22145 0.0
C416 C 0.95993 0.09288 0.38614 0.0
C417 C 0.95891 0.05348 0.40291 0.0
C418 C 0.93888 0.11076 0.33967 0.0
C419 C 0.91778 0.08851 0.30787 0.0
C420 C 0.91759 0.04857 0.32373 0.0
C421 C 0.93763 0.03155 0.37152 0.0
C422 C 0.93929 0.15348 0.32458 0.0
C423 C 0.89675 0.0238 0.28991 0.0
H424 H 0.81088 0.14389 0.19646 0.0
H425 H 0.91489 0.14332 0.13843 0.0
H426 H 0.83877 0.07986 0.31166 0.0
H427 H 0.85034 0.12625 0.32261 0.0
H428 H 0.80698 0.11907 0.28139 0.0
H429 H 0.96977 0.11318 0.18591 0.0
H430 H 0.97609 0.11538 0.25197 0.0
H431 H 0.96047 0.07245 0.23232 0.0
H432 H 0.97723 0.10992 0.40941 0.0
H433 H 0.93688 1.00105 0.3841 0.0
H434 H 0.90994 0.16485 0.31741 0.0
H435 H 0.95074 0.16227 0.28892 0.0
H436 H 0.95663 0.16665 0.35412 0.0
H437 H 0.86626 0.03163 0.28021 0.0
H438 H 0.8995 0.9932 0.30784 0.0
H439 H 0.90797 0.02837 0.25389 0.0
C440 C 0.32215 0.35814 0.57426 0.0
C441 C 0.35176 0.35618 0.5473 0.0
C442 C 0.32731 0.37474 0.61704 0.0
C443 C 0.3627 0.39068 0.6329 0.0
C444 C 0.39288 0.38848 0.60642 0.0
C445 C 0.38717 0.37096 0.56434 0.0
C446 C 0.29451 0.37599 0.64459 0.0
C447 C 0.43094 0.40548 0.62177 0.0
C448 C 0.35972 0.46871 0.70701 0.0
C449 C 0.3726 0.44961 0.75687 0.0
C450 C 0.35737 0.4501 0.66628 0.0
C451 C 0.36741 0.4112 0.6757 0.0
C452 C 0.38062 0.3918 0.72604 0.0
C453 C 0.38344 0.41137 0.76599 0.0
C454 C 0.34389 0.47206 0.61315 0.0
C455 C 0.39091 0.35019 0.7378 0.0
H456 H 0.29446 0.34755 0.5612 0.0
H457 H 0.41052 0.36904 0.54462 0.0
H458 H 0.30334 0.36427 0.68564 0.0
H459 H 0.28544 0.40582 0.64054 0.0
H460 H 0.26981 0.35978 0.62993 0.0
H461 H 0.45178 0.40061 0.59806 0.0
H462 H 0.42766 0.43648 0.61844 0.0
H463 H 0.44252 0.39328 0.66196 0.0
H464 H 0.35177 0.4984 0.69984 0.0
H465 H 0.39323 0.39653 0.80458 0.0
H466 H 0.31703 0.45997 0.59662 0.0
H467 H 0.36498 0.4696 0.58875 0.0
H468 H 0.33907 0.50257 0.612 0.0
H469 H 0.36569 0.33356 0.72606 0.0
H470 H 0.40163 0.33949 0.77873 0.0
H471 H 0.41287 0.34496 0.71599 0.0
C472 C 0.63045 0.66368 0.54716 0.0
C473 C 0.66926 0.66708 0.56518 0.0
C474 C 0.61771 0.65306 0.50057 0.0
C475 C 0.64439 0.64592 0.47108 0.0
C476 C 0.68359 0.64874 0.48937 0.0
C477 C 0.69554 0.65918 0.5362 0.0
C478 C 0.5757 0.65027 0.48241 0.0
C479 C 0.71297 0.64134 0.45906 0.0
C480 C 0.62091 0.59139 0.36487 0.0
C481 C 0.61807 0.62082 0.32205 0.0
C482 C 0.62763 0.59916 0.41387 0.0
C483 C 0.63158 0.63723 0.41999 0.0
C484 C 0.62635 0.66707 0.37681 0.0
C485 C 0.61962 0.6585 0.32839 0.0
C486 C 0.63271 0.56657 0.45899 0.0
C487 C 0.63001 0.70805 0.38164 0.0
H488 H 0.60991 0.67015 0.56901 0.0
H489 H 0.72556 0.66111 0.55021 0.0
H490 H 0.56684 0.67211 0.44757 0.0
H491 H 0.56895 0.62222 0.47251 0.0
H492 H 0.55876 0.65428 0.51128 0.0
H493 H 0.74233 0.64372 0.47924 0.0
H494 H 0.70934 0.61255 0.45052 0.0
H495 H 0.70916 0.66189 0.42234 0.0
H496 H 0.62 0.56222 0.36019 0.0
H497 H 0.61693 0.68133 0.29532 0.0
H498 H 0.61569 0.57144 0.48729 0.0
H499 H 0.66284 0.56451 0.47767 0.0
H500 H 0.62441 0.53908 0.44811 0.0
H501 H 0.61201 0.71416 0.40818 0.0
H502 H 0.6219 0.7279 0.34464 0.0
H503 H 0.65975 0.7137 0.39749 0.0
C504 C 0.89228 0.16974 0.97662 0.0
C505 C 0.85308 0.17314 0.97384 0.0
C506 C 0.90721 0.15667 0.93925 0.0
C507 C 0.88232 0.14686 0.89788 0.0
C508 C 0.84279 0.1526 0.89309 0.0
C509 C 0.82857 0.16574 0.93126 0.0
C510 C 0.94954 0.15118 0.94573 0.0
C511 C 0.81541 0.14277 0.84928 0.0
C512 C 0.92948 0.12869 0.79094 0.0
C513 C 0.93498 0.08923 0.80427 0.0
C514 C 0.91089 0.14783 0.81978 0.0
C515 C 0.89769 0.12701 0.86301 0.0
C516 C 0.90207 0.08707 0.87563 0.0
C517 C 0.92057 0.0687 0.84607 0.0
C518 C 0.90661 0.1904 0.80506 0.0
C519 C 0.88833 0.0638 0.92142 0.0
H520 H 0.91129 0.17602 0.00922 0.0
H521 H 0.79825 0.1683 0.92912 0.0
H522 H 0.95636 0.12045 0.95326 0.0
H523 H 0.95998 0.16459 0.91053 0.0
H524 H 0.96512 0.16327 0.97753 0.0
H525 H 0.78637 0.15364 0.84735 0.0
H526 H 0.8251 0.15447 0.81295 0.0
H527 H 0.81419 0.11151 0.85342 0.0
H528 H 0.94071 0.14477 0.75883 0.0
H529 H 0.92397 0.03814 0.85593 0.0
H530 H 0.9248 0.20354 0.83387 0.0
H531 H 0.87695 0.19901 0.80399 0.0
H532 H 0.91469 0.20192 0.76756 0.0
H533 H 0.90424 0.07159 0.95634 0.0
H534 H 0.89198 0.03286 0.92434 0.0
H535 H 0.85796 0.06991 0.91994 0.0
C536 C 0.37912 0.34149 0.33252 0.0
C537 C 0.37031 0.36257 0.36702 0.0
C538 C 0.397 0.35829 0.29158 0.0
C539 C 0.40752 0.39689 0.28556 0.0
C540 C 0.39873 0.41838 0.31998 0.0
C541 C 0.3797 0.40126 0.35944 0.0
C542 C 0.40474 0.33468 0.25477 0.0
C543 C 0.40948 0.4596 0.31515 0.0
C544 C 0.48558 0.43183 0.2089 0.0
C545 C 0.46476 0.45143 0.16306 0.0
C546 C 0.46738 0.41393 0.249 0.0
C547 C 0.42731 0.41511 0.243 0.0
C548 C 0.4062 0.43487 0.19684 0.0
C549 C 0.42519 0.45316 0.15796 0.0
C550 C 0.49107 0.39412 0.29806 0.0
C551 C 0.36347 0.43637 0.18806 0.0
H552 H 0.37262 0.31158 0.33779 0.0
H553 H 0.37211 0.41852 0.38431 0.0
H554 H 0.39189 0.3485 0.2156 0.0
H555 H 0.43568 0.33266 0.2558 0.0
H556 H 0.39336 0.30556 0.26328 0.0
H557 H 0.40223 0.47196 0.34632 0.0
H558 H 0.44035 0.4627 0.31519 0.0
H559 H 0.39469 0.4763 0.27859 0.0
H560 H 0.51618 0.43047 0.21356 0.0
H561 H 0.40887 0.46925 0.12362 0.0
H562 H 0.4833 0.36379 0.30662 0.0
H563 H 0.48532 0.40685 0.32965 0.0
H564 H 0.52188 0.39598 0.29694 0.0
H565 H 0.35228 0.40786 0.18459 0.0
H566 H 0.35155 0.45695 0.15307 0.0
H567 H 0.35311 0.44419 0.22048 0.0
C568 C 0.18656 0.88745 0.87993 0.0
C569 C 0.16677 0.87602 0.92037 0.0
C570 C 0.16785 0.90602 0.83206 0.0
C571 C 0.12864 0.91416 0.8248 0.0
C572 C 0.10864 0.90341 0.86554 0.0
C573 C 0.12776 0.88398 0.91245 0.0
C574 C 0.18983 0.9163 0.78901 0.0
C575 C 0.06686 0.91196 0.85939 0.0
C576 C 0.08474 0.98828 0.71078 0.0
C577 C 0.06692 0.96541 0.67813 0.0
C578 C 0.10484 0.97204 0.75887 0.0
C579 C 0.10791 0.93207 0.77395 0.0
C580 C 0.09011 0.90892 0.74101 0.0
C581 C 0.06932 0.92587 0.69396 0.0
C582 C 0.1225 0.99758 0.79368 0.0
C583 C 0.09313 0.8662 0.75529 0.0
H584 H 0.21673 0.88198 0.8856 0.0
H585 H 0.1118 0.8745 0.94276 0.0
H586 H 0.17786 0.90139 0.75824 0.0
H587 H 0.1872 0.94715 0.77285 0.0
H588 H 0.22035 0.90871 0.80108 0.0
H589 H 0.0558 0.90304 0.89541 0.0
H590 H 0.06153 0.94281 0.84546 0.0
H591 H 0.05061 0.89728 0.83076 0.0
H592 H 0.08297 0.01887 0.6988 0.0
H593 H 0.05486 0.90796 0.66954 0.0
H594 H 0.15349 0.99233 0.80385 0.0
H595 H 0.1108 0.99111 0.82938 0.0
H596 H 0.11735 0.02808 0.77632 0.0
H597 H 0.12324 0.85732 0.76106 0.0
H598 H 0.07665 0.85231 0.72587 0.0
H599 H 0.08284 0.85566 0.79149 0.0
loop_
_geom_bond_atom_site_label_1
_geom_bond_atom_site_label_2
_geom_bond_distance
_geom_bond_site_symmetry_2
_ccdc_geom_bond_type
H0 C5 0.930 . S
H1 C8 0.930 . S
H2 C10 0.930 . S
H3 C4 1.016 . S
C4 H3 1.016 . S
C4 N11 1.286 . S
C5 H0 0.930 . S
C5 C6 1.397 . S
C5 C7 1.361 1_556 S
C6 C5 1.397 . S
C6 C10 1.390 1_556 S
C7 C5 1.361 1_554 S
C7 C8 1.393 . S
C7 N11 1.413 . S
C8 H1 0.930 . S
C8 C7 1.393 . S
C8 C9 1.399 . S
C9 C8 1.399 . S
C9 C10 1.381 . S
C10 H2 0.930 . S
C10 C6 1.390 1_554 S
C10 C9 1.381 . S
N11 C4 1.286 . S
N11 C7 1.413 . S
H12 C17 0.930 . S
H13 C20 0.930 . S
H14 C22 0.930 . S
H15 C16 1.016 . S
C16 H15 1.016 . S
C16 N23 1.286 . S
C17 H12 0.930 . S
C17 C18 1.397 . S
C17 C19 1.361 . S
C18 C17 1.397 . S
C18 C22 1.390 . S
C19 C17 1.361 . S
C19 C20 1.393 . S
C19 N23 1.413 . S
C20 H13 0.930 . S
C20 C19 1.393 . S
C20 C21 1.399 . S
C21 C20 1.399 . S
C21 C22 1.381 . S
C22 H14 0.930 . S
C22 C18 1.390 . S
C22 C21 1.381 . S
N23 C16 1.286 . S
N23 C19 1.413 . S
H24 C29 0.930 1_556 S
H25 C32 0.930 . S
H26 C34 0.930 . S
H27 C28 1.016 . S
C28 H27 1.016 . S
C28 N35 1.286 . S
C29 H24 0.930 1_554 S
C29 C30 1.397 . S
C29 C31 1.361 . S
C30 C29 1.397 . S
C30 C34 1.390 . S
C31 C29 1.361 . S
C31 C32 1.393 . S
C31 N35 1.413 . S
C32 H25 0.930 . S
C32 C31 1.393 . S
C32 C33 1.399 . S
C33 C32 1.399 . S
C33 C34 1.381 . S
C34 H26 0.930 . S
C34 C30 1.390 . S
C34 C33 1.381 . S
N35 C28 1.286 . S
N35 C31 1.413 . S
H36 C41 0.930 . S
H37 C44 0.930 . S
H38 C46 0.930 . S
H39 C40 1.016 . S
C40 H39 1.016 . S
C40 N47 1.286 . S
C41 H36 0.930 . S
C41 C42 1.397 . S
C41 C43 1.361 . S
C42 C41 1.397 . S
C42 C46 1.390 . S
C43 C41 1.361 . S
C43 C44 1.393 . S
C43 N47 1.413 . S
C44 H37 0.930 . S
C44 C43 1.393 . S
C44 C45 1.399 . S
C45 C44 1.399 . S
C45 C46 1.381 . S
C46 H38 0.930 . S
C46 C42 1.390 . S
C46 C45 1.381 . S
N47 C40 1.286 . S
N47 C43 1.413 . S
Tb48 N77 2.617 . S
Tb48 N83 2.572 . S
Tb48 O92 2.465 . S
Tb48 O93 2.387 . S
Tb48 O95 2.428 . S
Tb48 O96 2.308 1_565 S
Tb48 O100 2.349 1_465 S
Tb48 O103 2.393 1_455 S
Tb48 C112 2.802 . S
C49 N50 1.379 . S
C49 C52 1.416 . S
C49 C56 1.424 . S
N50 C49 1.379 . S
N50 C53 1.334 1_655 S
N50 Tb59 2.617 . S
C51 C53 1.390 . S
C51 C54 1.339 1_455 S
C51 H71 0.930 . S
C52 C49 1.416 . S
C52 C54 1.416 . S
C52 C58 1.448 . S
C53 N50 1.334 1_455 S
C53 C51 1.390 . S
C53 H64 0.930 . S
C54 C51 1.339 1_655 S
C54 C52 1.416 . S
C54 H75 0.930 . S
C55 C56 1.413 . S
C55 C57 1.427 . S
C55 C61 1.416 . S
C56 C49 1.424 . S
C56 C55 1.413 . S
C56 N60 1.361 . S
C57 C55 1.427 . S
C57 C58 1.328 . S
C57 H72 0.929 . S
C58 C52 1.448 . S
C58 C57 1.328 . S
C58 H73 0.930 . S
Tb59 N50 2.617 . S
Tb59 N60 2.572 . S
Tb59 O94 2.349 1_655 S
Tb59 O97 2.393 1_655 S
Tb59 O98 2.465 . S
Tb59 O99 2.387 . S
Tb59 O101 2.428 . S
Tb59 O102 2.308 1_545 S
Tb59 C123 2.802 . S
N60 C56 1.361 . S
N60 Tb59 2.572 . S
N60 C62 1.340 . S
C61 C55 1.416 . S
C61 C63 1.332 . S
C61 H69 0.931 . S
C62 N60 1.340 . S
C62 C63 1.407 . S
C62 H68 0.930 . S
C63 C61 1.332 . S
C63 C62 1.407 . S
C63 H65 0.929 . S
H64 C53 0.930 . S
H65 C63 0.929 . S
H66 C81 0.930 1_655 S
H67 C88 0.929 . S
H68 C62 0.930 . S
H69 C61 0.931 . S
H70 C84 0.930 . S
H71 C51 0.930 . S
H72 C57 0.929 . S
H73 C58 0.930 . S
H74 C79 0.930 1_655 S
H75 C54 0.930 . S
H76 C87 0.931 . S
N77 Tb48 2.617 . S
N77 C78 1.379 . S
N77 C81 1.334 . S
C78 N77 1.379 . S
C78 C80 1.416 . S
C78 C86 1.424 . S
C79 H74 0.930 1_455 S
C79 C81 1.390 . S
C79 C82 1.339 . S
C80 C78 1.416 . S
C80 C82 1.416 . S
C80 C113 1.448 . S
C81 H66 0.930 1_455 S
C81 N77 1.334 . S
C81 C79 1.390 . S
C82 C79 1.339 . S
C82 C80 1.416 . S
C82 H89 0.930 . S
N83 Tb48 2.572 . S
N83 C84 1.340 . S
N83 C86 1.361 . S
C84 H70 0.930 . S
C84 N83 1.340 . S
C84 C88 1.407 . S
C85 C86 1.413 . S
C85 C87 1.416 . S
C85 C114 1.427 . S
C86 C78 1.424 . S
C86 N83 1.361 . S
C86 C85 1.413 . S
C87 H76 0.931 . S
C87 C85 1.416 . S
C87 C88 1.332 . S
C88 H67 0.929 . S
C88 C84 1.407 . S
C88 C87 1.332 . S
H89 C82 0.930 . S
H90 C113 0.930 . S
H91 C114 0.929 . S
O92 Tb48 2.465 . S
O92 C112 1.264 . S
O93 Tb48 2.387 . S
O93 C104 1.264 . S
O94 Tb59 2.349 1_455 S
O94 C104 1.243 1_545 S
O95 Tb48 2.428 . S
O95 C112 1.256 . S
O96 Tb48 2.308 1_545 S
O96 C111 1.266 . S
O97 Tb59 2.393 1_455 S
O97 C111 1.248 . S
O98 Tb59 2.465 . S
O98 C123 1.264 . S
O99 Tb59 2.387 . S
O99 C115 1.264 . S
O100 Tb48 2.349 1_645 S
O100 C115 1.243 . S
O101 Tb59 2.428 . S
O101 C123 1.256 . S
O102 Tb59 2.308 1_565 S
O102 C122 1.266 . S
O103 Tb48 2.393 1_655 S
O103 C122 1.248 . S
C104 O93 1.264 . S
C104 O94 1.243 1_565 S
C105 C108 1.399 . S
C105 C110 1.383 . S
C105 C112 1.496 . S
C106 C107 1.399 . S
C106 C110 1.389 . S
C107 C106 1.399 . S
C107 C109 1.380 . S
C107 H124 0.929 . S
C108 C105 1.399 . S
C108 C109 1.392 . S
C108 H125 0.929 . S
C109 C107 1.380 . S
C109 C108 1.392 . S
C109 H126 0.929 . S
C110 C105 1.383 . S
C110 C106 1.389 . S
C110 H127 0.931 . S
C111 O96 1.266 . S
C111 O97 1.248 . S
C112 Tb48 2.802 . S
C112 O92 1.264 . S
C112 O95 1.256 . S
C112 C105 1.496 . S
C113 C80 1.448 . S
C113 H90 0.930 . S
C113 C114 1.328 . S
C114 C85 1.427 . S
C114 H91 0.929 . S
C114 C113 1.328 . S
C115 O99 1.264 . S
C115 O100 1.243 . S
C116 C119 1.399 . S
C116 C120 1.383 . S
C116 C123 1.496 . S
C117 C118 1.399 . S
C117 C120 1.389 . S
C118 C117 1.399 . S
C118 C121 1.380 . S
C118 H128 0.929 . S
C119 C116 1.399 . S
C119 C121 1.392 . S
C119 H129 0.929 . S
C120 C116 1.383 . S
C120 C117 1.389 . S
C120 H130 0.931 . S
C121 C118 1.380 . S
C121 C119 1.392 . S
C121 H131 0.929 . S
C122 O102 1.266 . S
C122 O103 1.248 . S
C123 Tb59 2.802 . S
C123 O98 1.264 . S
C123 O101 1.256 . S
C123 C116 1.496 . S
H124 C107 0.929 . S
H125 C108 0.929 . S
H126 C109 0.929 . S
H127 C110 0.931 . S
H128 C118 0.929 . S
H129 C119 0.929 . S
H130 C120 0.931 . S
H131 C121 0.929 . S
Tb132 N161 2.617 1_556 S
Tb132 N167 2.571 1_556 S
Tb132 O176 2.467 . S
Tb132 O177 2.385 1_556 S
Tb132 O179 2.429 . S
Tb132 O180 2.307 1_556 S
Tb132 O184 2.350 . S
Tb132 O187 2.392 1_556 S
Tb132 C196 2.804 . S
C133 N134 1.379 . S
C133 C136 1.416 . S
C133 C140 1.424 . S
N134 C133 1.379 . S
N134 C137 1.334 . S
N134 Tb143 2.617 . S
C135 C137 1.390 . S
C135 C138 1.339 . S
C135 H155 0.930 . S
C136 C133 1.416 . S
C136 C138 1.416 . S
C136 C142 1.448 . S
C137 N134 1.334 . S
C137 C135 1.390 . S
C137 H148 0.930 . S
C138 C135 1.339 . S
C138 C136 1.416 . S
C138 H159 0.930 . S
C139 C140 1.413 . S
C139 C141 1.427 . S
C139 C145 1.416 . S
C140 C133 1.424 . S
C140 C139 1.413 . S
C140 N144 1.361 . S
C141 C139 1.427 . S
C141 C142 1.328 . S
C141 H156 0.929 . S
C142 C136 1.448 . S
C142 C141 1.328 . S
C142 H157 0.930 . S
Tb143 N134 2.617 . S
Tb143 N144 2.572 . S
Tb143 O178 2.349 . S
Tb143 O181 2.393 . S
Tb143 O182 2.465 . S
Tb143 O183 2.387 . S
Tb143 O185 2.428 . S
Tb143 O186 2.308 . S
Tb143 C207 2.802 . S
N144 C140 1.361 . S
N144 Tb143 2.572 . S
N144 C146 1.340 . S
C145 C139 1.416 . S
C145 C147 1.332 . S
C145 H153 0.931 . S
C146 N144 1.340 . S
C146 C147 1.407 . S
C146 H152 0.930 . S
C147 C145 1.332 . S
C147 C146 1.407 . S
C147 H149 0.929 . S
H148 C137 0.930 . S
H149 C147 0.929 . S
H150 C165 0.930 . S
H151 C172 0.929 . S
H152 C146 0.930 . S
H153 C145 0.931 . S
H154 C168 0.930 . S
H155 C135 0.930 . S
H156 C141 0.929 . S
H157 C142 0.930 . S
H158 C163 0.930 . S
H159 C138 0.930 . S
H160 C171 0.931 . S
N161 Tb132 2.617 1_554 S
N161 C162 1.379 . S
N161 C165 1.334 1_554 S
C162 N161 1.379 . S
C162 C164 1.416 . S
C162 C170 1.424 . S
C163 H158 0.930 . S
C163 C165 1.392 . S
C163 C166 1.337 1_556 S
C164 C162 1.416 . S
C164 C166 1.416 . S
C164 C197 1.448 . S
C165 H150 0.930 . S
C165 N161 1.334 1_556 S
C165 C163 1.392 . S
C166 C163 1.337 1_554 S
C166 C164 1.416 . S
C166 H173 0.930 . S
N167 Tb132 2.571 1_554 S
N167 C168 1.340 . S
N167 C170 1.361 . S
C168 H154 0.930 . S
C168 N167 1.340 . S
C168 C172 1.407 . S
C169 C170 1.413 . S
C169 C171 1.416 . S
C169 C198 1.427 . S
C170 C162 1.424 . S
C170 N167 1.361 . S
C170 C169 1.413 . S
C171 H160 0.931 . S
C171 C169 1.416 . S
C171 C172 1.332 . S
C172 H151 0.929 . S
C172 C168 1.407 . S
C172 C171 1.332 . S
H173 C166 0.930 . S
H174 C197 0.930 . S
H175 C198 0.929 . S
O176 Tb132 2.467 . S
O176 C196 1.264 . S
O177 Tb132 2.385 1_554 S
O177 C188 1.264 . S
O178 Tb143 2.349 . S
O178 C188 1.243 . S
O179 Tb132 2.429 . S
O179 C196 1.256 . S
O180 Tb132 2.307 1_554 S
O180 C195 1.266 . S
O181 Tb143 2.393 . S
O181 C195 1.248 . S
O182 Tb143 2.465 . S
O182 C207 1.264 . S
O183 Tb143 2.387 . S
O183 C199 1.264 1_554 S
O184 Tb132 2.350 . S
O184 C199 1.243 . S
O185 Tb143 2.428 . S
O185 C207 1.256 . S
O186 Tb143 2.308 . S
O186 C206 1.266 . S
O187 Tb132 2.392 1_554 S
O187 C206 1.248 . S
C188 O177 1.264 . S
C188 O178 1.243 . S
C189 C192 1.399 . S
C189 C194 1.383 . S
C189 C196 1.496 . S
C190 C191 1.399 . S
C190 C194 1.389 . S
C191 C190 1.399 . S
C191 C193 1.380 . S
C191 H208 0.929 . S
C192 C189 1.399 . S
C192 C193 1.392 . S
C192 H209 0.929 . S
C193 C191 1.380 . S
C193 C192 1.392 . S
C193 H210 0.929 . S
C194 C189 1.383 . S
C194 C190 1.389 . S
C194 H211 0.931 . S
C195 O180 1.266 . S
C195 O181 1.248 . S
C196 Tb132 2.804 . S
C196 O176 1.264 . S
C196 O179 1.256 . S
C196 C189 1.496 . S
C197 C164 1.448 . S
C197 H174 0.930 . S
C197 C198 1.328 . S
C198 C169 1.427 . S
C198 H175 0.929 . S
C198 C197 1.328 . S
C199 O183 1.264 1_556 S
C199 O184 1.243 . S
C200 C203 1.399 . S
C200 C204 1.383 . S
C200 C207 1.496 . S
C201 C202 1.399 . S
C201 C204 1.389 . S
C202 C201 1.399 . S
C202 C205 1.380 . S
C202 H212 0.929 . S
C203 C200 1.399 . S
C203 C205 1.392 . S
C203 H213 0.929 . S
C204 C200 1.383 . S
C204 C201 1.389 . S
C204 H214 0.931 . S
C205 C202 1.380 . S
C205 C203 1.392 . S
C205 H215 0.929 . S
C206 O186 1.266 . S
C206 O187 1.248 . S
C207 Tb143 2.802 . S
C207 O182 1.264 . S
C207 O185 1.256 . S
C207 C200 1.496 . S
H208 C191 0.929 . S
H209 C192 0.929 . S
H210 C193 0.929 . S
H211 C194 0.931 . S
H212 C202 0.929 . S
H213 C203 0.929 . S
H214 C204 0.931 . S
H215 C205 0.929 . S
C216 C217 1.391 . S
C216 C218 1.394 . S
C216 H232 0.931 . S
C217 C216 1.391 . S
C217 C221 1.376 . S
C218 C216 1.394 . S
C218 C219 1.369 . S
C218 C222 1.531 . S
C219 C218 1.369 . S
C219 C220 1.410 . S
C219 C227 1.503 . S
C220 C219 1.410 . S
C220 C221 1.392 . S
C220 C223 1.511 . S
C221 C217 1.376 . S
C221 C220 1.392 . S
C221 H233 0.929 . S
C222 C218 1.531 . S
C222 H234 0.960 . S
C222 H235 0.962 . S
C222 H236 0.960 . S
C223 C220 1.511 . S
C223 H237 0.961 . S
C223 H238 0.961 . S
C223 H239 0.961 . S
C224 C225 1.370 . S
C224 C226 1.363 . S
C224 H240 0.931 . S
C225 C224 1.370 . S
C225 C229 1.408 . S
C226 C224 1.363 . S
C226 C227 1.370 . S
C226 C230 1.524 . S
C227 C219 1.503 . S
C227 C226 1.370 . S
C227 C228 1.403 . S
C228 C227 1.403 . S
C228 C229 1.404 . S
C228 C231 1.539 . S
C229 C225 1.408 . S
C229 C228 1.404 . S
C229 H241 0.930 . S
C230 C226 1.524 . S
C230 H242 0.956 . S
C230 H243 0.961 . S
C230 H244 0.961 . S
C231 C228 1.539 . S
C231 H245 0.958 . S
C231 H246 0.961 . S
C231 H247 0.960 . S
H232 C216 0.931 . S
H233 C221 0.929 . S
H234 C222 0.960 . S
H235 C222 0.962 . S
H236 C222 0.960 . S
H237 C223 0.961 . S
H238 C223 0.961 . S
H239 C223 0.961 . S
H240 C224 0.931 . S
H241 C229 0.930 . S
H242 C230 0.956 . S
H243 C230 0.961 . S
H244 C230 0.961 . S
H245 C231 0.958 . S
H246 C231 0.961 . S
H247 C231 0.960 . S
C248 C249 1.391 . S
C248 C250 1.394 . S
C248 H264 0.931 . S
C249 C248 1.391 . S
C249 C253 1.376 . S
C250 C248 1.394 . S
C250 C251 1.369 . S
C250 C254 1.531 . S
C251 C250 1.369 . S
C251 C252 1.410 . S
C251 C259 1.503 . S
C252 C251 1.410 . S
C252 C253 1.392 . S
C252 C255 1.511 . S
C253 C249 1.376 . S
C253 C252 1.392 . S
C253 H265 0.929 . S
C254 C250 1.531 . S
C254 H266 0.960 . S
C254 H267 0.962 1_554 S
C254 H268 0.960 . S
C255 C252 1.511 . S
C255 H269 0.961 . S
C255 H270 0.961 . S
C255 H271 0.961 . S
C256 C257 1.370 . S
C256 C258 1.363 . S
C256 H272 0.931 1_554 S
C257 C256 1.370 . S
C257 C261 1.408 . S
C258 C256 1.363 . S
C258 C259 1.370 . S
C258 C262 1.524 1_554 S
C259 C251 1.503 . S
C259 C258 1.370 . S
C259 C260 1.403 . S
C260 C259 1.403 . S
C260 C261 1.404 . S
C260 C263 1.539 . S
C261 C257 1.408 . S
C261 C260 1.404 . S
C261 H273 0.930 . S
C262 C258 1.524 1_556 S
C262 H274 0.956 . S
C262 H275 0.961 . S
C262 H276 0.961 . S
C263 C260 1.539 . S
C263 H277 0.958 . S
C263 H278 0.961 . S
C263 H279 0.960 . S
H264 C248 0.931 . S
H265 C253 0.929 . S
H266 C254 0.960 . S
H267 C254 0.962 1_556 S
H268 C254 0.960 . S
H269 C255 0.961 . S
H270 C255 0.961 . S
H271 C255 0.961 . S
H272 C256 0.931 1_556 S
H273 C261 0.930 . S
H274 C262 0.956 . S
H275 C262 0.961 . S
H276 C262 0.961 . S
H277 C263 0.958 . S
H278 C263 0.961 . S
H279 C263 0.960 . S
C280 C281 1.391 . S
C280 C282 1.394 . S
C280 H296 0.931 . S
C281 C280 1.391 . S
C281 C285 1.376 . S
C282 C280 1.394 . S
C282 C283 1.369 . S
C282 C286 1.531 . S
C283 C282 1.369 . S
C283 C284 1.410 . S
C283 C291 1.503 . S
C284 C283 1.410 . S
C284 C285 1.392 . S
C284 C287 1.511 . S
C285 C281 1.376 . S
C285 C284 1.392 . S
C285 H297 0.929 . S
C286 C282 1.531 . S
C286 H298 0.960 . S
C286 H299 0.962 . S
C286 H300 0.960 . S
C287 C284 1.511 . S
C287 H301 0.961 . S
C287 H302 0.961 . S
C287 H303 0.961 . S
C288 C289 1.370 . S
C288 C290 1.363 . S
C288 H304 0.931 . S
C289 C288 1.370 . S
C289 C293 1.408 . S
C290 C288 1.363 . S
C290 C291 1.370 . S
C290 C294 1.524 . S
C291 C283 1.503 . S
C291 C290 1.370 . S
C291 C292 1.403 . S
C292 C291 1.403 . S
C292 C293 1.404 . S
C292 C295 1.539 . S
C293 C289 1.408 . S
C293 C292 1.404 . S
C293 H305 0.930 . S
C294 C290 1.524 . S
C294 H306 0.956 . S
C294 H307 0.961 . S
C294 H308 0.961 . S
C295 C292 1.539 . S
C295 H309 0.958 . S
C295 H310 0.961 . S
C295 H311 0.960 . S
H296 C280 0.931 . S
H297 C285 0.929 . S
H298 C286 0.960 . S
H299 C286 0.962 . S
H300 C286 0.960 . S
H301 C287 0.961 . S
H302 C287 0.961 . S
H303 C287 0.961 . S
H304 C288 0.931 . S
H305 C293 0.930 . S
H306 C294 0.956 . S
H307 C294 0.961 . S
H308 C294 0.961 . S
H309 C295 0.958 . S
H310 C295 0.961 . S
H311 C295 0.960 . S
C312 C313 1.391 . S
C312 C314 1.394 . S
C312 H328 0.931 . S
C313 C312 1.391 . S
C313 C317 1.376 . S
C314 C312 1.394 . S
C314 C315 1.369 . S
C314 C318 1.531 . S
C315 C314 1.369 . S
C315 C316 1.410 . S
C315 C323 1.503 . S
C316 C315 1.410 . S
C316 C317 1.392 . S
C316 C319 1.511 . S
C317 C313 1.376 . S
C317 C316 1.392 . S
C317 H329 0.929 . S
C318 C314 1.531 . S
C318 H330 0.960 . S
C318 H331 0.962 . S
C318 H332 0.960 . S
C319 C316 1.511 . S
C319 H333 0.961 . S
C319 H334 0.961 . S
C319 H335 0.961 . S
C320 C321 1.370 . S
C320 C322 1.363 . S
C320 H336 0.931 . S
C321 C320 1.370 . S
C321 C325 1.408 1_554 S
C322 C320 1.363 . S
C322 C323 1.370 . S
C322 C326 1.524 . S
C323 C315 1.503 . S
C323 C322 1.370 . S
C323 C324 1.403 1_554 S
C324 C323 1.403 1_556 S
C324 C325 1.404 . S
C324 C327 1.539 . S
C325 C321 1.408 1_556 S
C325 C324 1.404 . S
C325 H337 0.930 . S
C326 C322 1.524 . S
C326 H338 0.956 . S
C326 H339 0.961 . S
C326 H340 0.961 . S
C327 C324 1.539 . S
C327 H341 0.958 . S
C327 H342 0.961 . S
C327 H343 0.960 . S
H328 C312 0.931 . S
H329 C317 0.929 . S
H330 C318 0.960 . S
H331 C318 0.962 . S
H332 C318 0.960 . S
H333 C319 0.961 . S
H334 C319 0.961 . S
H335 C319 0.961 . S
H336 C320 0.931 . S
H337 C325 0.930 . S
H338 C326 0.956 . S
H339 C326 0.961 . S
H340 C326 0.961 . S
H341 C327 0.958 . S
H342 C327 0.961 . S
H343 C327 0.960 . S
C344 C345 1.391 . S
C344 C346 1.394 . S
C344 H360 0.931 . S
C345 C344 1.391 . S
C345 C349 1.376 . S
C346 C344 1.394 . S
C346 C347 1.369 . S
C346 C350 1.531 . S
C347 C346 1.369 . S
C347 C348 1.410 . S
C347 C355 1.503 . S
C348 C347 1.410 . S
C348 C349 1.392 . S
C348 C351 1.511 . S
C349 C345 1.376 . S
C349 C348 1.392 . S
C349 H361 0.929 . S
C350 C346 1.531 . S
C350 H362 0.960 . S
C350 H363 0.962 . S
C350 H364 0.960 . S
C351 C348 1.511 . S
C351 H365 0.961 . S
C351 H366 0.961 . S
C351 H367 0.961 . S
C352 C353 1.370 . S
C352 C354 1.363 . S
C352 H368 0.931 . S
C353 C352 1.370 . S
C353 C357 1.408 . S
C354 C352 1.363 . S
C354 C355 1.370 . S
C354 C358 1.524 . S
C355 C347 1.503 . S
C355 C354 1.370 . S
C355 C356 1.403 . S
C356 C355 1.403 . S
C356 C357 1.404 . S
C356 C359 1.539 . S
C357 C353 1.408 . S
C357 C356 1.404 . S
C357 H369 0.930 . S
C358 C354 1.524 . S
C358 H370 0.956 . S
C358 H371 0.961 . S
C358 H372 0.961 . S
C359 C356 1.539 . S
C359 H373 0.958 . S
C359 H374 0.961 . S
C359 H375 0.960 . S
H360 C344 0.931 . S
H361 C349 0.929 . S
H362 C350 0.960 . S
H363 C350 0.962 . S
H364 C350 0.960 . S
H365 C351 0.961 . S
H366 C351 0.961 . S
H367 C351 0.961 . S
H368 C352 0.931 . S
H369 C357 0.930 . S
H370 C358 0.956 . S
H371 C358 0.961 . S
H372 C358 0.961 . S
H373 C359 0.958 . S
H374 C359 0.961 . S
H375 C359 0.960 . S
C376 C377 1.391 . S
C376 C378 1.394 . S
C376 H392 0.931 . S
C377 C376 1.391 . S
C377 C381 1.376 . S
C378 C376 1.394 . S
C378 C379 1.369 . S
C378 C382 1.531 . S
C379 C378 1.369 . S
C379 C380 1.410 . S
C379 C387 1.503 . S
C380 C379 1.410 . S
C380 C381 1.392 . S
C380 C383 1.511 . S
C381 C377 1.376 . S
C381 C380 1.392 . S
C381 H393 0.929 . S
C382 C378 1.531 . S
C382 H394 0.960 . S
C382 H395 0.962 . S
C382 H396 0.960 . S
C383 C380 1.511 . S
C383 H397 0.961 . S
C383 H398 0.961 . S
C383 H399 0.961 . S
C384 C385 1.370 . S
C384 C386 1.363 . S
C384 H400 0.931 . S
C385 C384 1.370 . S
C385 C389 1.408 . S
C386 C384 1.363 . S
C386 C387 1.370 . S
C386 C390 1.524 . S
C387 C379 1.503 . S
C387 C386 1.370 . S
C387 C388 1.403 . S
C388 C387 1.403 . S
C388 C389 1.404 . S
C388 C391 1.539 . S
C389 C385 1.408 . S
C389 C388 1.404 . S
C389 H401 0.930 . S
C390 C386 1.524 . S
C390 H402 0.956 . S
C390 H403 0.961 . S
C390 H404 0.961 . S
C391 C388 1.539 . S
C391 H405 0.958 . S
C391 H406 0.961 . S
C391 H407 0.960 . S
H392 C376 0.931 . S
H393 C381 0.929 . S
H394 C382 0.960 . S
H395 C382 0.962 . S
H396 C382 0.960 . S
H397 C383 0.961 . S
H398 C383 0.961 . S
H399 C383 0.961 . S
H400 C384 0.931 . S
H401 C389 0.930 . S
H402 C390 0.956 . S
H403 C390 0.961 . S
H404 C390 0.961 . S
H405 C391 0.958 . S
H406 C391 0.961 . S
H407 C391 0.960 . S
C408 C409 1.391 . S
C408 C410 1.394 . S
C408 H424 0.931 . S
C409 C408 1.391 . S
C409 C413 1.376 . S
C410 C408 1.394 . S
C410 C411 1.369 . S
C410 C414 1.531 . S
C411 C410 1.369 . S
C411 C412 1.410 . S
C411 C419 1.503 . S
C412 C411 1.410 . S
C412 C413 1.392 . S
C412 C415 1.511 . S
C413 C409 1.376 . S
C413 C412 1.392 . S
C413 H425 0.929 . S
C414 C410 1.531 . S
C414 H426 0.960 . S
C414 H427 0.962 . S
C414 H428 0.960 . S
C415 C412 1.511 . S
C415 H429 0.961 . S
C415 H430 0.961 . S
C415 H431 0.961 . S
C416 C417 1.370 . S
C416 C418 1.363 . S
C416 H432 0.931 . S
C417 C416 1.370 . S
C417 C421 1.408 . S
C418 C416 1.363 . S
C418 C419 1.370 . S
C418 C422 1.524 . S
C419 C411 1.503 . S
C419 C418 1.370 . S
C419 C420 1.403 . S
C420 C419 1.403 . S
C420 C421 1.404 . S
C420 C423 1.539 . S
C421 C417 1.408 . S
C421 C420 1.404 . S
C421 H433 0.930 1_545 S
C422 C418 1.524 . S
C422 H434 0.956 . S
C422 H435 0.961 . S
C422 H436 0.961 . S
C423 C420 1.539 . S
C423 H437 0.958 1_545 S
C423 H438 0.961 1_545 S
C423 H439 0.960 . S
H424 C408 0.931 . S
H425 C413 0.929 . S
H426 C414 0.960 . S
H427 C414 0.962 . S
H428 C414 0.960 . S
H429 C415 0.961 . S
H430 C415 0.961 . S
H431 C415 0.961 . S
H432 C416 0.931 . S
H433 C421 0.930 1_565 S
H434 C422 0.956 . S
H435 C422 0.961 . S
H436 C422 0.961 . S
H437 C423 0.958 1_565 S
H438 C423 0.961 1_565 S
H439 C423 0.960 . S
C440 C441 1.391 . S
C440 C442 1.394 . S
C440 H456 0.931 . S
C441 C440 1.391 . S
C441 C445 1.376 . S
C442 C440 1.394 . S
C442 C443 1.369 . S
C442 C446 1.531 . S
C443 C442 1.369 . S
C443 C444 1.410 . S
C443 C451 1.503 . S
C444 C443 1.410 . S
C444 C445 1.392 . S
C444 C447 1.511 . S
C445 C441 1.376 . S
C445 C444 1.392 . S
C445 H457 0.929 . S
C446 C442 1.531 . S
C446 H458 0.960 . S
C446 H459 0.962 . S
C446 H460 0.960 . S
C447 C444 1.511 . S
C447 H461 0.961 . S
C447 H462 0.961 . S
C447 H463 0.961 . S
C448 C449 1.370 . S
C448 C450 1.363 . S
C448 H464 0.931 . S
C449 C448 1.370 . S
C449 C453 1.408 . S
C450 C448 1.363 . S
C450 C451 1.370 . S
C450 C454 1.524 . S
C451 C443 1.503 . S
C451 C450 1.370 . S
C451 C452 1.403 . S
C452 C451 1.403 . S
C452 C453 1.404 . S
C452 C455 1.539 . S
C453 C449 1.408 . S
C453 C452 1.404 . S
C453 H465 0.930 . S
C454 C450 1.524 . S
C454 H466 0.956 . S
C454 H467 0.961 . S
C454 H468 0.961 . S
C455 C452 1.539 . S
C455 H469 0.958 . S
C455 H470 0.961 . S
C455 H471 0.960 . S
H456 C440 0.931 . S
H457 C445 0.929 . S
H458 C446 0.960 . S
H459 C446 0.962 . S
H460 C446 0.960 . S
H461 C447 0.961 . S
H462 C447 0.961 . S
H463 C447 0.961 . S
H464 C448 0.931 . S
H465 C453 0.930 . S
H466 C454 0.956 . S
H467 C454 0.961 . S
H468 C454 0.961 . S
H469 C455 0.958 . S
H470 C455 0.961 . S
H471 C455 0.960 . S
C472 C473 1.391 . S
C472 C474 1.394 . S
C472 H488 0.931 . S
C473 C472 1.391 . S
C473 C477 1.376 . S
C474 C472 1.394 . S
C474 C475 1.369 . S
C474 C478 1.531 . S
C475 C474 1.369 . S
C475 C476 1.410 . S
C475 C483 1.503 . S
C476 C475 1.410 . S
C476 C477 1.392 . S
C476 C479 1.511 . S
C477 C473 1.376 . S
C477 C476 1.392 . S
C477 H489 0.929 . S
C478 C474 1.531 . S
C478 H490 0.960 . S
C478 H491 0.962 . S
C478 H492 0.960 . S
C479 C476 1.511 . S
C479 H493 0.961 . S
C479 H494 0.961 . S
C479 H495 0.961 . S
C480 C481 1.370 . S
C480 C482 1.363 . S
C480 H496 0.931 . S
C481 C480 1.370 . S
C481 C485 1.408 . S
C482 C480 1.363 . S
C482 C483 1.370 . S
C482 C486 1.524 . S
C483 C475 1.503 . S
C483 C482 1.370 . S
C483 C484 1.403 . S
C484 C483 1.403 . S
C484 C485 1.404 . S
C484 C487 1.539 . S
C485 C481 1.408 . S
C485 C484 1.404 . S
C485 H497 0.930 . S
C486 C482 1.524 . S
C486 H498 0.956 . S
C486 H499 0.961 . S
C486 H500 0.961 . S
C487 C484 1.539 . S
C487 H501 0.958 . S
C487 H502 0.961 . S
C487 H503 0.960 . S
H488 C472 0.931 . S
H489 C477 0.929 . S
H490 C478 0.960 . S
H491 C478 0.962 . S
H492 C478 0.960 . S
H493 C479 0.961 . S
H494 C479 0.961 . S
H495 C479 0.961 . S
H496 C480 0.931 . S
H497 C485 0.930 . S
H498 C486 0.956 . S
H499 C486 0.961 . S
H500 C486 0.961 . S
H501 C487 0.958 . S
H502 C487 0.961 . S
H503 C487 0.960 . S
C504 C505 1.391 . S
C504 C506 1.394 . S
C504 H520 0.931 . S
C505 C504 1.391 . S
C505 C509 1.376 . S
C506 C504 1.394 . S
C506 C507 1.369 . S
C506 C510 1.531 . S
C507 C506 1.369 . S
C507 C508 1.410 . S
C507 C515 1.503 . S
C508 C507 1.410 . S
C508 C509 1.392 . S
C508 C511 1.511 . S
C509 C505 1.376 . S
C509 C508 1.392 . S
C509 H521 0.929 . S
C510 C506 1.531 . S
C510 H522 0.960 . S
C510 H523 0.962 . S
C510 H524 0.960 . S
C511 C508 1.511 . S
C511 H525 0.961 . S
C511 H526 0.961 . S
C511 H527 0.961 . S
C512 C513 1.370 . S
C512 C514 1.363 . S
C512 H528 0.931 . S
C513 C512 1.370 . S
C513 C517 1.408 . S
C514 C512 1.363 . S
C514 C515 1.370 . S
C514 C518 1.524 . S
C515 C507 1.503 . S
C515 C514 1.370 . S
C515 C516 1.403 . S
C516 C515 1.403 . S
C516 C517 1.404 . S
C516 C519 1.539 . S
C517 C513 1.408 . S
C517 C516 1.404 . S
C517 H529 0.930 . S
C518 C514 1.524 . S
C518 H530 0.956 . S
C518 H531 0.961 . S
C518 H532 0.961 . S
C519 C516 1.539 . S
C519 H533 0.958 . S
C519 H534 0.961 1_545 S
C519 H535 0.960 . S
H520 C504 0.931 . S
H521 C509 0.929 . S
H522 C510 0.960 . S
H523 C510 0.962 . S
H524 C510 0.960 . S
H525 C511 0.961 . S
H526 C511 0.961 . S
H527 C511 0.961 . S
H528 C512 0.931 . S
H529 C517 0.930 . S
H530 C518 0.956 . S
H531 C518 0.961 . S
H532 C518 0.961 . S
H533 C519 0.958 . S
H534 C519 0.961 1_565 S
H535 C519 0.960 . S
C536 C537 1.391 . S
C536 C538 1.394 . S
C536 H552 0.931 . S
C537 C536 1.391 . S
C537 C541 1.376 . S
C538 C536 1.394 . S
C538 C539 1.369 . S
C538 C542 1.531 . S
C539 C538 1.369 . S
C539 C540 1.410 . S
C539 C547 1.503 . S
C540 C539 1.410 . S
C540 C541 1.392 . S
C540 C543 1.511 . S
C541 C537 1.376 . S
C541 C540 1.392 . S
C541 H553 0.929 . S
C542 C538 1.531 . S
C542 H554 0.960 . S
C542 H555 0.962 . S
C542 H556 0.960 . S
C543 C540 1.511 . S
C543 H557 0.961 . S
C543 H558 0.961 . S
C543 H559 0.961 . S
C544 C545 1.370 . S
C544 C546 1.363 . S
C544 H560 0.931 . S
C545 C544 1.370 . S
C545 C549 1.408 . S
C546 C544 1.363 . S
C546 C547 1.370 . S
C546 C550 1.524 . S
C547 C539 1.503 . S
C547 C546 1.370 . S
C547 C548 1.403 . S
C548 C547 1.403 . S
C548 C549 1.404 . S
C548 C551 1.539 . S
C549 C545 1.408 . S
C549 C548 1.404 . S
C549 H561 0.930 . S
C550 C546 1.524 . S
C550 H562 0.956 . S
C550 H563 0.961 . S
C550 H564 0.961 . S
C551 C548 1.539 . S
C551 H565 0.958 . S
C551 H566 0.961 . S
C551 H567 0.960 . S
H552 C536 0.931 . S
H553 C541 0.929 . S
H554 C542 0.960 . S
H555 C542 0.962 . S
H556 C542 0.960 . S
H557 C543 0.961 . S
H558 C543 0.961 . S
H559 C543 0.961 . S
H560 C544 0.931 . S
H561 C549 0.930 . S
H562 C550 0.956 . S
H563 C550 0.961 . S
H564 C550 0.961 . S
H565 C551 0.958 . S
H566 C551 0.961 . S
H567 C551 0.960 . S
C568 C569 1.391 . S
C568 C570 1.394 . S
C568 H584 0.931 . S
C569 C568 1.391 . S
C569 C573 1.376 . S
C570 C568 1.394 . S
C570 C571 1.369 . S
C570 C574 1.531 . S
C571 C570 1.369 . S
C571 C572 1.410 . S
C571 C579 1.503 . S
C572 C571 1.410 . S
C572 C573 1.392 . S
C572 C575 1.511 . S
C573 C569 1.376 . S
C573 C572 1.392 . S
C573 H585 0.929 . S
C574 C570 1.531 . S
C574 H586 0.960 . S
C574 H587 0.962 . S
C574 H588 0.960 . S
C575 C572 1.511 . S
C575 H589 0.961 . S
C575 H590 0.961 . S
C575 H591 0.961 . S
C576 C577 1.370 . S
C576 C578 1.363 . S
C576 H592 0.931 1_565 S
C577 C576 1.370 . S
C577 C581 1.408 . S
C578 C576 1.363 . S
C578 C579 1.370 . S
C578 C582 1.524 . S
C579 C571 1.503 . S
C579 C578 1.370 . S
C579 C580 1.403 . S
C580 C579 1.403 . S
C580 C581 1.404 . S
C580 C583 1.539 . S
C581 C577 1.408 . S
C581 C580 1.404 . S
C581 H593 0.930 . S
C582 C578 1.524 . S
C582 H594 0.956 . S
C582 H595 0.961 . S
C582 H596 0.961 1_565 S
C583 C580 1.539 . S
C583 H597 0.958 . S
C583 H598 0.961 . S
C583 H599 0.960 . S
H584 C568 0.931 . S
H585 C573 0.929 . S
H586 C574 0.960 . S
H587 C574 0.962 . S
H588 C574 0.960 . S
H589 C575 0.961 . S
H590 C575 0.961 . S
H591 C575 0.961 . S
H592 C576 0.931 1_545 S
H593 C581 0.930 . S
H594 C582 0.956 . S
H595 C582 0.961 . S
H596 C582 0.961 1_545 S
H597 C583 0.958 . S
H598 C583 0.961 . S
H599 C583 0.960 . S
C225 C111 1.644 . S
C217 C40 1.637 . S
C249 C4 1.661 . S
C257 C206 1.652 . S
C281 C16 1.640 . S
C289 C122 1.664 . S
C313 C28 1.641 . S
C321 C195 1.636 . S
C353 C106 1.416 . S
C345 C9 1.598 . S
C385 C199 1.707 . S
C377 C18 1.710 . S
C409 C33 1.635 . S
C417 C115 1.655 . S
C441 C45 1.610 . S
C449 C190 1.459 . S
C481 C201 1.414 . S
C473 C21 1.571 . S
C513 C117 1.403 . S
C505 C30 1.557 1_556 S
C545 C188 1.638 . S
C537 C42 1.630 . S
C569 C6 1.562 . S
C577 C104 1.592 . S
