# Generated by pormake.
# Topology the, (3,8)-cn, num edge types: 1
# Building blocks:
#     Node 0, Type 0, BuildingBlock: PAMTOO_clean_linker_0, # of connection points: 3
#     Node 1, Type 0, BuildingBlock: PAMTOO_clean_linker_0, # of connection points: 3
#     Node 2, Type 0, BuildingBlock: PAMTOO_clean_linker_0, # of connection points: 3
#     Node 3, Type 0, BuildingBlock: PAMTOO_clean_linker_0, # of connection points: 3
#     Node 4, Type 0, BuildingBlock: PAMTOO_clean_linker_0, # of connection points: 3
#     Node 5, Type 0, BuildingBlock: PAMTOO_clean_linker_0, # of connection points: 3
#     Node 6, Type 0, BuildingBlock: PAMTOO_clean_linker_0, # of connection points: 3
#     Node 7, Type 0, BuildingBlock: PAMTOO_clean_linker_0, # of connection points: 3
#     Node 8, Type 1, BuildingBlock: GIZVER_clean_sbu_0, # of connection points: 8
#     Node 9, Type 1, BuildingBlock: GIZVER_clean_sbu_0, # of connection points: 8
#     Node 10, Type 1, BuildingBlock: GIZVER_clean_sbu_0, # of connection points: 8
#     Edge 11, Type (0, 1), BuildingBlock: AJUNOK_clean_linker_0, # of connection points: 2
#     Edge 12, Type (0, 1), BuildingBlock: AJUNOK_clean_linker_0, # of connection points: 2
#     Edge 13, Type (0, 1), BuildingBlock: AJUNOK_clean_linker_0, # of connection points: 2
#     Edge 14, Type (0, 1), BuildingBlock: AJUNOK_clean_linker_0, # of connection points: 2
#     Edge 15, Type (0, 1), BuildingBlock: AJUNOK_clean_linker_0, # of connection points: 2
#     Edge 16, Type (0, 1), BuildingBlock: AJUNOK_clean_linker_0, # of connection points: 2
#     Edge 17, Type (0, 1), BuildingBlock: AJUNOK_clean_linker_0, # of connection points: 2
#     Edge 18, Type (0, 1), BuildingBlock: AJUNOK_clean_linker_0, # of connection points: 2
#     Edge 19, Type (0, 1), BuildingBlock: AJUNOK_clean_linker_0, # of connection points: 2
#     Edge 20, Type (0, 1), BuildingBlock: AJUNOK_clean_linker_0, # of connection points: 2
#     Edge 21, Type (0, 1), BuildingBlock: AJUNOK_clean_linker_0, # of connection points: 2
#     Edge 22, Type (0, 1), BuildingBlock: AJUNOK_clean_linker_0, # of connection points: 2
#     Edge 23, Type (0, 1), BuildingBlock: AJUNOK_clean_linker_0, # of connection points: 2
#     Edge 24, Type (0, 1), BuildingBlock: AJUNOK_clean_linker_0, # of connection points: 2
#     Edge 25, Type (0, 1), BuildingBlock: AJUNOK_clean_linker_0, # of connection points: 2
#     Edge 26, Type (0, 1), BuildingBlock: AJUNOK_clean_linker_0, # of connection points: 2
#     Edge 27, Type (0, 1), BuildingBlock: AJUNOK_clean_linker_0, # of connection points: 2
#     Edge 28, Type (0, 1), BuildingBlock: AJUNOK_clean_linker_0, # of connection points: 2
#     Edge 29, Type (0, 1), BuildingBlock: AJUNOK_clean_linker_0, # of connection points: 2
#     Edge 30, Type (0, 1), BuildingBlock: AJUNOK_clean_linker_0, # of connection points: 2
#     Edge 31, Type (0, 1), BuildingBlock: AJUNOK_clean_linker_0, # of connection points: 2
#     Edge 32, Type (0, 1), BuildingBlock: AJUNOK_clean_linker_0, # of connection points: 2
#     Edge 33, Type (0, 1), BuildingBlock: AJUNOK_clean_linker_0, # of connection points: 2
#     Edge 34, Type (0, 1), BuildingBlock: AJUNOK_clean_linker_0, # of connection points: 2
# Relax obj value: 0.078
# Max RMSD: 0.244
# Mean RMSD: 0.139
data_MOF--net-the--node1-GIZVER_clean_sbu_0--node2-PAMTOO_clean_linker_0--edge1-AJUNOK_clean_linker_0
_symmetry_space_group_name_H-M    P1
_symmetry_Int_Tables_number       1
_symmetry_cell_setting            triclinic
loop_
_symmetry_equiv_pos_as_xyz
'x, y, z'
_cell_length_a     31.072356
_cell_length_b     28.542479
_cell_length_c     26.070985
_cell_angle_alpha  87.750197
_cell_angle_beta   96.668296
_cell_angle_gamma 112.19382
loop_
_atom_site_label
_atom_site_type_symbol
_atom_site_fract_x
_atom_site_fract_y
_atom_site_fract_z
_atom_type_partial_charge
H0 H 0.27343 0.44326 0.3671 0.0
H1 H 0.27217 0.36512 0.51198 0.0
H2 H 0.35901 0.35464 0.39996 0.0
H3 H 0.27727 0.26313 0.47387 0.0
C4 C 0.30934 0.27811 0.50193 0.0
O5 O 0.33411 0.32871 0.49299 0.0
H6 H 0.29782 0.27408 0.54114 0.0
C7 C 0.28588 0.41929 0.39297 0.0
C8 C 0.31828 0.40063 0.37768 0.0
C9 C 0.26843 0.40567 0.44098 0.0
C10 C 0.28489 0.37512 0.47449 0.0
C11 C 0.31748 0.35686 0.45969 0.0
C12 C 0.33365 0.3689 0.41108 0.0
H13 H 0.74599 0.31291 0.44797 0.0
H14 H 0.64826 0.30019 0.31196 0.0
H15 H 0.77791 0.42649 0.32912 0.0
H16 H 0.70581 0.46041 0.29372 0.0
C17 C 0.67698 0.42349 0.28365 0.0
O18 O 0.69603 0.38804 0.27561 0.0
H19 H 0.65628 0.4127 0.3174 0.0
C20 C 0.73743 0.32584 0.40998 0.0
C21 C 0.76858 0.37183 0.39112 0.0
C22 C 0.69361 0.29905 0.38164 0.0
C23 C 0.68177 0.31917 0.33427 0.0
C24 C 0.71156 0.36533 0.31625 0.0
C25 C 0.75534 0.39053 0.3436 0.0
H26 H 0.61814 0.7734 0.31641 0.0
H27 H 0.72684 0.71278 0.33236 0.0
H28 H 0.72938 0.82186 0.44156 0.0
H29 H 0.8298 0.81868 0.42638 0.0
C30 C 0.81367 0.77972 0.41003 0.0
O31 O 0.76738 0.75921 0.41928 0.0
H32 H 0.81668 0.78182 0.3678 0.0
C33 C 0.65067 0.77268 0.33583 0.0
C34 C 0.67226 0.80325 0.38029 0.0
C35 C 0.66996 0.73943 0.31802 0.0
C36 C 0.71137 0.73796 0.34496 0.0
C37 C 0.73243 0.76743 0.38929 0.0
C38 C 0.71352 0.80061 0.40615 0.0
H39 H 0.25701 0.79422 0.42528 0.0
H40 H 0.23712 0.66406 0.3321 0.0
H41 H 0.37075 0.78389 0.3534 0.0
H42 H 0.34687 0.74175 0.24951 0.0
C43 C 0.32631 0.70152 0.25823 0.0
O44 O 0.32208 0.69586 0.31037 0.0
H45 H 0.29085 0.69026 0.23658 0.0
C46 C 0.26946 0.77459 0.39939 0.0
C47 C 0.31689 0.79518 0.39078 0.0
C48 C 0.23929 0.72725 0.37771 0.0
C49 C 0.2577 0.70198 0.34627 0.0
C50 C 0.30437 0.72309 0.33643 0.0
C51 C 0.33389 0.76947 0.35865 0.0
H52 H 0.30441 0.80607 0.69298 0.0
H53 H 0.28204 0.67691 0.79159 0.0
H54 H 0.4157 0.79851 0.80487 0.0
H55 H 0.40189 0.68541 0.79802 0.0
C56 C 0.38192 0.67489 0.83231 0.0
O57 O 0.36569 0.71199 0.84293 0.0
H58 H 0.35148 0.63912 0.82252 0.0
C59 C 0.31757 0.78728 0.72426 0.0
C60 C 0.36396 0.81019 0.74763 0.0
C61 C 0.28838 0.73865 0.73852 0.0
C62 C 0.30404 0.71454 0.78031 0.0
C63 C 0.34971 0.73694 0.80481 0.0
C64 C 0.37971 0.78393 0.78778 0.0
H65 H 0.29747 0.43312 0.79651 0.0
H66 H 0.24774 0.31485 0.68176 0.0
H67 H 0.36065 0.32219 0.79674 0.0
H68 H 0.35061 0.32085 0.66274 0.0
C69 C 0.32694 0.28074 0.66783 0.0
O70 O 0.30818 0.2741 0.71439 0.0
H71 H 0.29799 0.27227 0.63598 0.0
C72 C 0.29874 0.39917 0.78067 0.0
C73 C 0.33159 0.37947 0.80361 0.0
C74 C 0.26882 0.37666 0.73618 0.0
C75 C 0.27002 0.33222 0.71648 0.0
C76 C 0.30332 0.3129 0.7381 0.0
C77 C 0.334 0.33644 0.78152 0.0
H78 H 0.62952 0.31716 0.77876 0.0
H79 H 0.76427 0.43517 0.82088 0.0
H80 H 0.7519 0.31992 0.71396 0.0
H81 H 0.83748 0.35132 0.781 0.0
C82 C 0.84481 0.39246 0.7842 0.0
O83 O 0.808 0.40348 0.75982 0.0
H84 H 0.85003 0.40249 0.82589 0.0
C85 C 0.66693 0.33385 0.77679 0.0
C86 C 0.6874 0.31247 0.74346 0.0
C87 C 0.69447 0.37807 0.80577 0.0
C88 C 0.74271 0.3999 0.8013 0.0
C89 C 0.76308 0.37867 0.76857 0.0
C90 C 0.73564 0.33516 0.74005 0.0
H91 H 0.65309 0.76541 0.73461 0.0
H92 H 0.75999 0.70541 0.72468 0.0
H93 H 0.74662 0.81796 0.61698 0.0
H94 H 0.79567 0.76132 0.56846 0.0
C95 C 0.79204 0.73576 0.60235 0.0
O96 O 0.79445 0.76228 0.6463 0.0
H97 H 0.75762 0.70368 0.59529 0.0
C98 C 0.68115 0.76305 0.71501 0.0
C99 C 0.69604 0.79416 0.67239 0.0
C100 C 0.70417 0.731 0.73424 0.0
C101 C 0.74131 0.72918 0.70962 0.0
C102 C 0.75635 0.76061 0.66735 0.0
C103 C 0.73397 0.79308 0.64903 0.0
Co104 Co 0.11791 0.51768 0.58746 0.0
Co105 Co 0.06571 0.49308 0.49813 0.0
Co106 Co 0.029 0.55866 0.56374 0.0
O107 O 0.05289 0.50267 0.56486 0.0
H108 H 0.03206 0.47158 0.57881 0.0
O109 O 1.00654 0.61535 0.56176 0.0
Co110 Co 0.94375 0.60628 0.53691 0.0
Co111 Co 0.99524 0.62787 0.6279 0.0
H112 H 0.02872 0.64604 0.54868 0.0
O113 O 0.07705 0.43602 0.47963 0.0
O114 O 0.12901 0.50752 0.51681 0.0
O115 O 0.06476 0.54398 0.44659 0.0
O116 O 0.06756 0.5973 0.50765 0.0
O117 O 0.97573 0.5182 0.51133 0.0
O118 O 0.88761 0.60493 0.51265 0.0
O119 O 0.95566 0.67209 0.52088 0.0
O120 O 0.9232 0.53585 0.54805 0.0
O121 O 0.99035 0.5207 0.62035 0.0
O122 O 0.99558 0.57756 0.67915 0.0
O123 O 0.93286 0.61594 0.60761 0.0
O124 O 0.98535 0.68664 0.64521 0.0
C125 C 0.15687 0.47805 0.62026 0.0
C126 C 0.12417 0.6107 0.60731 0.0
C127 C 0.0754 0.58878 0.46265 0.0
C128 C 0.12003 0.46451 0.49473 0.0
C129 C 0.91103 0.65267 0.50504 0.0
C130 C 0.933 0.50883 0.5173 0.0
C131 C 0.98466 0.53194 0.66547 0.0
C132 C 0.94259 0.66011 0.62728 0.0
O133 O 0.17592 0.52604 0.61046 0.0
O134 O 0.11225 0.45391 0.60618 0.0
O135 O 0.08192 0.59873 0.61656 0.0
O136 O 0.13265 0.5861 0.57315 0.0
Co137 Co 0.55721 0.95732 0.52628 0.0
Co138 Co 0.585 0.99965 0.61786 0.0
Co139 Co 0.52084 0.05022 0.55536 0.0
O140 O 0.57259 1.02472 0.55342 0.0
H141 H 0.60057 0.04967 0.5417 0.0
O142 O 0.46802 0.07375 0.55608 0.0
Co143 Co 0.47697 0.13584 0.58854 0.0
Co144 Co 0.45628 0.10257 0.49341 0.0
H145 H 0.43975 0.04668 0.56441 0.0
O146 O 0.64082 0.99116 0.63618 0.0
O147 O 0.57465 0.9348 0.59556 0.0
O148 O 0.54186 0.99147 0.66867 0.0
O149 O 0.48809 0.99922 0.60858 0.0
O150 O 0.55977 0.09995 0.61173 0.0
O151 O 0.48051 0.19096 0.62057 0.0
O152 O 0.41791 0.11857 0.60483 0.0
O153 O 0.54009 0.16152 0.5765 0.0
O154 O 0.55481 0.1026 0.50334 0.0
O155 O 0.50396 0.12181 0.44795 0.0
O156 O 0.46012 0.16294 0.5213 0.0
O157 O 0.39879 0.10737 0.4731 0.0
C158 C 0.59023 0.91913 0.4899 0.0
C159 C 0.46942 0.9531 0.50856 0.0
C160 C 0.49955 0.98364 0.65281 0.0
C161 C 0.61691 0.94584 0.61811 0.0
C162 C 0.43655 0.16435 0.62411 0.0
C163 C 0.56714 0.14708 0.60746 0.0
C164 C 0.54547 0.12584 0.46318 0.0
C165 C 0.41827 0.15054 0.49711 0.0
O166 O 0.54711 0.89771 0.49968 0.0
O167 O 0.61418 0.96585 0.50558 0.0
O168 O 0.48092 1.0004 0.49975 0.0
O169 O 0.49555 0.93868 0.54093 0.0
Co170 Co 0.47063 0.55815 0.15318 0.0
Co171 Co 0.45087 0.46583 0.12996 0.0
Co172 Co 0.52485 0.54159 0.05544 0.0
O173 O 0.46702 0.52431 0.09092 0.0
H174 H 0.44058 0.52347 0.0669 0.0
O175 O 0.58208 0.55674 1.01896 0.0
Co176 Co 0.57487 0.52511 0.95318 0.0
Co177 Co 0.59926 0.61561 0.98269 0.0
H178 H 0.60837 0.55516 0.04166 0.0
O179 O 0.38995 0.42969 0.14527 0.0
O180 O 0.44561 0.49361 0.19117 0.0
O181 O 0.49879 0.43864 0.14483 0.0
O182 O 0.55134 0.49717 0.10112 0.0
O183 O 0.48717 0.48402 1.00628 0.0
O184 O 0.57187 0.49342 0.89485 0.0
O185 O 0.63028 0.51652 0.95963 0.0
O186 O 0.51538 0.52745 0.9381 0.0
O187 O 0.49865 0.58676 1.01009 0.0
O188 O 0.55517 0.64818 0.97406 0.0
O189 O 0.60194 0.59175 0.91826 0.0
O190 O 0.65961 0.65032 0.96929 0.0
C191 C 0.42934 0.58794 0.18453 0.0
C192 C 0.56328 0.59476 0.15382 0.0
C193 C 0.54008 0.4597 0.13237 0.0
C194 C 0.4045 0.45735 0.18684 0.0
C195 C 0.61177 0.49288 0.91566 0.0
C196 C 0.48259 0.4928 0.95794 0.0
C197 C 0.51288 0.62725 0.98312 0.0
C198 C 0.64266 0.62901 0.92436 0.0
O199 O 0.46974 0.59178 0.2083 0.0
O200 O 0.41397 0.56223 0.14144 0.0
O201 O 0.5621 0.60026 0.10477 0.0
O202 O 0.53071 0.55897 0.17243 0.0
C203 C 0.18685 0.38518 0.46061 0.0
C204 C 0.23164 0.42162 0.45566 0.0
C205 C 0.15093 0.39933 0.47359 0.0
C206 C 0.15892 0.45028 0.48298 0.0
H207 H 0.17942 0.34556 0.45365 0.0
H208 H 0.11672 0.37012 0.47638 0.0
S209 S 0.27128 0.55969 0.47686 0.0
N210 N 0.28273 0.5102 0.46194 0.0
N211 N 0.21573 0.5372 0.48745 0.0
C212 C 0.20409 0.48695 0.47921 0.0
C213 C 0.24034 0.47251 0.46516 0.0
C214 C 0.6103 0.24888 0.39659 0.0
C215 C 0.65738 0.25342 0.40293 0.0
C216 C 0.57473 0.20656 0.41407 0.0
C217 C 0.58424 0.16677 0.44004 0.0
H218 H 0.60059 0.27882 0.37856 0.0
H219 H 0.53948 0.20612 0.40855 0.0
S220 S 0.70148 0.1594 0.46745 0.0
N221 N 0.71152 0.21355 0.43657 0.0
N222 N 0.64461 0.13473 0.47171 0.0
C223 C 0.63118 0.17075 0.44741 0.0
C224 C 0.66764 0.21383 0.42858 0.0
C225 C 0.88198 0.76788 0.46445 0.0
C226 C 0.83854 0.74655 0.43429 0.0
C227 C 0.90564 0.73745 0.48664 0.0
C228 C 0.88639 0.68455 0.48012 0.0
H229 H 0.89779 0.80837 0.47097 0.0
H230 H 0.93894 0.75549 0.50963 0.0
S231 S 0.77512 0.61063 0.40126 0.0
N232 N 0.7788 0.6698 0.3962 0.0
N233 N 0.82222 0.6125 0.43902 0.0
C234 C 0.84328 0.66292 0.44933 0.0
C235 C 0.81971 0.69394 0.42607 0.0
C236 C 0.36718 0.88728 0.40646 0.0
C237 C 0.35105 0.83688 0.42358 0.0
C238 C 0.40429 0.92545 0.43513 0.0
C239 C 0.42697 0.91408 0.4812 0.0
H240 H 0.35188 0.89694 0.37013 0.0
H241 H 0.41639 0.96361 0.42009 0.0
S242 S 0.39574 0.78714 0.54251 0.0
N243 N 0.35862 0.77768 0.48971 0.0
N244 N 0.42858 0.84805 0.54299 0.0
C245 C 0.40996 0.86361 0.49896 0.0
C246 C 0.372 0.82536 0.47026 0.0
C247 C 0.20138 0.6882 0.72304 0.0
C248 C 0.24533 0.70997 0.70421 0.0
C249 C 0.16142 0.65817 0.69086 0.0
C250 C 0.16445 0.64801 0.63922 0.0
H251 H 0.19802 0.69396 0.76297 0.0
H252 H 0.12846 0.64121 0.70712 0.0
S253 S 0.2719 0.69628 0.57182 0.0
N254 N 0.28941 0.71984 0.63078 0.0
N255 N 0.21534 0.66317 0.57092 0.0
C256 C 0.20829 0.67032 0.62004 0.0
C257 C 0.24846 0.70128 0.65238 0.0
C258 C 0.33304 0.20122 0.63585 0.0
C259 C 0.3537 0.2469 0.66387 0.0
C260 C 0.35936 0.1726 0.62608 0.0
C261 C 0.4073 0.18892 0.64374 0.0
H262 H 0.29683 0.1887 0.61943 0.0
H263 H 0.34266 0.13916 0.60195 0.0
S264 S 0.47591 0.30239 0.72501 0.0
N265 N 0.42317 0.30429 0.71385 0.0
N266 N 0.47296 0.25104 0.69532 0.0
C267 C 0.42746 0.23286 0.67469 0.0
C268 C 0.40056 0.26168 0.68486 0.0
C269 C 0.91818 0.46975 0.77856 0.0
C270 C 0.88747 0.42264 0.75811 0.0
C271 C 0.95213 0.50336 0.7497 0.0
C272 C 0.95623 0.49142 0.69897 0.0
H273 H 0.91442 0.48176 0.81612 0.0
H274 H 0.97364 0.54008 0.76638 0.0
S275 S 0.8854 0.37085 0.62933 0.0
N276 N 0.86453 0.36425 0.68573 0.0
N277 N 0.92821 0.42708 0.63111 0.0
C278 C 0.92734 0.443 0.67931 0.0
C279 C 0.89283 0.40883 0.70887 0.0
C280 C 0.70328 0.88326 0.65862 0.0
C281 C 0.67521 0.83152 0.65537 0.0
C282 C 0.68422 0.91985 0.64526 0.0
C283 C 0.63646 0.90599 0.62767 0.0
H284 H 0.74005 0.89554 0.67277 0.0
H285 H 0.7071 0.95933 0.64942 0.0
S286 S 0.54925 0.77463 0.60823 0.0
N287 N 0.59835 0.76764 0.6309 0.0
N288 N 0.56211 0.83627 0.60493 0.0
C289 C 0.60837 0.85406 0.62243 0.0
C290 C 0.62784 0.81683 0.63667 0.0
C291 C 0.31911 0.19854 0.47787 0.0
C292 C 0.33937 0.24756 0.49901 0.0
C293 C 0.34514 0.16795 0.47678 0.0
C294 C 0.39255 0.18507 0.49697 0.0
H295 H 0.28258 0.18343 0.46244 0.0
H296 H 0.32758 0.13025 0.46056 0.0
S297 S 0.46187 0.31058 0.55787 0.0
N298 N 0.40908 0.31133 0.54264 0.0
N299 N 0.45895 0.25513 0.53806 0.0
C300 C 0.41341 0.23435 0.51797 0.0
C301 C 0.38654 0.26512 0.51994 0.0
C302 C 0.81911 0.45606 0.42992 0.0
C303 C 0.81173 0.4048 0.42345 0.0
C304 C 0.85901 0.48903 0.45899 0.0
C305 C 0.89371 0.47273 0.48316 0.0
H306 H 0.79346 0.47094 0.41275 0.0
H307 H 0.86261 0.52788 0.46219 0.0
S308 S 0.8921 0.34247 0.4784 0.0
N309 N 0.84299 0.33909 0.44358 0.0
N310 N 0.91848 0.40179 0.4985 0.0
C311 C 0.88738 0.42176 0.47679 0.0
C312 C 0.84619 0.38763 0.44723 0.0
C313 C 0.67524 0.88469 0.41813 0.0
C314 C 0.64968 0.83356 0.40423 0.0
C315 C 0.6561 0.91227 0.44575 0.0
C316 C 0.6108 0.88964 0.46118 0.0
H317 H 0.71053 0.9034 0.40789 0.0
H318 H 0.67709 0.95149 0.45525 0.0
S319 S 0.53102 0.75526 0.43787 0.0
N320 N 0.57776 0.76085 0.41004 0.0
N321 N 0.54174 0.81166 0.46187 0.0
C322 C 0.58516 0.8382 0.44783 0.0
C323 C 0.60454 0.81049 0.41939 0.0
C324 C 0.18445 0.70342 0.44642 0.0
C325 C 0.19161 0.69999 0.39456 0.0
C326 C 0.14411 0.67033 0.46653 0.0
C327 C 0.10988 0.63104 0.43632 0.0
H328 H 0.21143 0.72944 0.47303 0.0
H329 H 0.1417 0.6733 0.50728 0.0
S330 S 0.10546 0.61339 0.29555 0.0
N331 N 0.1554 0.66126 0.31066 0.0
N332 N 0.08158 0.596 0.35005 0.0
C333 C 0.11429 0.62987 0.38349 0.0
C334 C 0.15464 0.66498 0.36232 0.0
C335 C 0.39244 0.86721 0.67229 0.0
C336 C 0.39673 0.85837 0.72597 0.0
C337 C 0.42388 0.90995 0.64994 0.0
C338 C 0.46247 0.94488 0.67963 0.0
H339 H 0.3656 0.84004 0.6465 0.0
H340 H 0.41917 0.91415 0.60848 0.0
S341 S 0.48764 0.94395 0.82204 0.0
N342 N 0.44002 0.89279 0.80898 0.0
N343 N 0.50161 0.97058 0.76579 0.0
C344 C 0.46682 0.93781 0.73332 0.0
C345 C 0.43357 0.89518 0.75665 0.0
C346 C 0.19267 0.37644 0.69066 0.0
C347 C 0.24044 0.40268 0.70679 0.0
C348 C 0.16591 0.40069 0.66201 0.0
C349 C 0.18608 0.45196 0.64799 0.0
H350 H 0.17575 0.33703 0.70081 0.0
H351 H 0.1291 0.37917 0.65123 0.0
S352 S 0.31123 0.53599 0.67694 0.0
N353 N 0.30754 0.48153 0.70387 0.0
N354 N 0.25789 0.52723 0.65042 0.0
C355 C 0.23428 0.47812 0.66284 0.0
C356 C 0.26125 0.4535 0.69214 0.0
C357 C 0.63034 0.22245 0.72892 0.0
C358 C 0.65849 0.26907 0.70876 0.0
C359 C 0.60316 0.18127 0.6961 0.0
C360 C 0.60278 0.18578 0.64211 0.0
H361 H 0.6292 0.21791 0.77025 0.0
H362 H 0.58074 0.14656 0.71289 0.0
S363 S 0.67056 0.2992 0.57004 0.0
N364 N 0.68483 0.31664 0.63134 0.0
N365 N 0.63329 0.23989 0.57012 0.0
C366 C 0.63122 0.23186 0.62169 0.0
C367 C 0.6592 0.27334 0.65487 0.0
C368 C 0.82198 0.66501 0.61222 0.0
C369 C 0.83137 0.71704 0.60837 0.0
C370 C 0.85841 0.6472 0.61966 0.0
C371 C 0.90548 0.68082 0.62425 0.0
H372 H 0.78625 0.63787 0.6093 0.0
H373 H 0.84956 0.60668 0.6216 0.0
S374 S 0.9481 0.82077 0.61672 0.0
N375 N 0.89054 0.80204 0.60938 0.0
N376 N 0.95939 0.76866 0.62431 0.0
C377 C 0.9153 0.73303 0.62127 0.0
C378 C 0.87812 0.75109 0.61295 0.0
C379 C 0.36655 0.46499 0.31867 0.0
C380 C 0.33679 0.41496 0.32723 0.0
C381 C 0.38733 0.47858 0.27256 0.0
C382 C 0.37827 0.44288 0.23285 0.0
H383 H 0.37493 0.49345 0.34849 0.0
H384 H 0.41127 0.51721 0.2685 0.0
S385 S 0.30041 0.30717 0.23614 0.0
N386 N 0.29794 0.32988 0.29255 0.0
N387 N 0.33579 0.35532 0.20512 0.0
C388 C 0.34708 0.39298 0.24049 0.0
C389 C 0.3267 0.37904 0.28791 0.0
C390 C 0.39953 0.6218 0.90595 0.0
C391 C 0.41357 0.66714 0.87771 0.0
C392 C 0.43097 0.61081 0.94302 0.0
C393 C 0.47781 0.64466 0.95312 0.0
H394 H 0.36458 0.59356 0.89771 0.0
H395 H 0.4191 0.57417 0.96155 0.0
S396 S 0.52977 0.77161 0.8941 0.0
N397 N 0.47557 0.7482 0.86581 0.0
N398 N 0.53486 0.72803 0.93527 0.0
C399 C 0.49121 0.69167 0.92746 0.0
C400 C 0.45908 0.70277 0.88988 0.0
C401 C 0.39202 0.45983 0.84115 0.0
C402 C 0.36691 0.40765 0.84646 0.0
C403 C 0.42798 0.48708 0.87862 0.0
C404 C 0.44019 0.46353 0.92334 0.0
H405 H 0.38494 0.47954 0.80682 0.0
H406 H 0.44706 0.52693 0.8719 0.0
S407 S 0.38294 0.3285 0.95773 0.0
N408 N 0.35497 0.33386 0.90127 0.0
N409 N 0.42268 0.38544 0.97213 0.0
C410 C 0.41416 0.41185 0.93033 0.0
C411 C 0.37768 0.3838 0.8917 0.0
C412 C 0.6336 0.41459 0.81375 0.0
C413 C 0.67279 0.40497 0.83623 0.0
C414 C 0.61489 0.44356 0.83951 0.0
C415 C 0.63443 0.46431 0.88906 0.0
H416 H 0.61782 0.40063 0.7753 0.0
H417 H 0.5848 0.44984 0.82004 0.0
S418 S 0.73582 0.44771 0.96628 0.0
N419 N 0.72945 0.41667 0.912 0.0
N420 N 0.69453 0.47139 0.96027 0.0
C421 C 0.67336 0.45448 0.91231 0.0
C422 C 0.69241 0.42481 0.886 0.0
C423 C 0.66918 0.65163 0.78477 0.0
C424 C 0.69284 0.70435 0.78354 0.0
C425 C 0.65472 0.627 0.83111 0.0
C426 C 0.66425 0.65425 0.87776 0.0
H427 H 0.66044 0.62965 0.74945 0.0
H428 H 0.63503 0.58653 0.83018 0.0
S429 S 0.72789 0.7931 0.89433 0.0
N430 N 0.7269 0.78284 0.83226 0.0
N431 N 0.70072 0.73706 0.91945 0.0
C432 C 0.68977 0.70688 0.87701 0.0
C433 C 0.70374 0.73181 0.82981 0.0
C434 C 0.62929 0.71924 0.22666 0.0
C435 C 0.64543 0.703 0.27428 0.0
C436 C 0.60575 0.6848 0.18568 0.0
C437 C 0.5971 0.63282 0.19111 0.0
H438 H 0.63456 0.75876 0.22119 0.0
H439 H 0.59229 0.69854 0.15058 0.0
S440 S 0.6324 0.57067 0.30702 0.0
N441 N 0.65102 0.63089 0.32359 0.0
N442 N 0.6076 0.56714 0.24705 0.0
C443 C 0.61398 0.61645 0.23795 0.0
C444 C 0.63784 0.65118 0.27936 0.0
C445 C 0.33678 0.6432 0.19451 0.0
C446 C 0.35153 0.66949 0.24185 0.0
C447 C 0.36128 0.61564 0.17697 0.0
C448 C 0.40171 0.61363 0.20595 0.0
H449 H 0.30639 0.64451 0.17047 0.0
H450 H 0.34893 0.59676 0.13984 0.0
S451 S 0.4544 0.67552 0.33315 0.0
N452 N 0.40909 0.69198 0.31742 0.0
N453 N 0.45448 0.63935 0.28538 0.0
C454 C 0.4164 0.63922 0.25382 0.0
C455 C 0.39165 0.66755 0.2714 0.0
C456 C 0.59881 0.39314 0.22909 0.0
C457 C 0.64505 0.42842 0.23707 0.0
C458 C 0.56574 0.40177 0.19245 0.0
C459 C 0.57769 0.44589 0.16198 0.0
H460 H 0.5875 0.35998 0.2534 0.0
H461 H 0.52999 0.37473 0.18978 0.0
S462 S 0.6962 0.54703 0.164 0.0
N463 N 0.7025 0.50657 0.2084 0.0
N464 N 0.64086 0.52299 0.13948 0.0
C465 C 0.62491 0.47955 0.16702 0.0
C466 C 0.65845 0.47077 0.20455 0.0
loop_
_geom_bond_atom_site_label_1
_geom_bond_atom_site_label_2
_geom_bond_distance
_geom_bond_site_symmetry_2
_ccdc_geom_bond_type
H0 C7 0.929 . S
H1 C10 0.930 . S
H2 C12 0.929 . S
H3 C4 0.969 . S
C4 H3 0.969 . S
C4 O5 1.550 . S
C4 H6 0.973 . S
O5 C4 1.550 . S
O5 C11 1.412 . S
H6 C4 0.973 . S
C7 H0 0.929 . S
C7 C8 1.400 . S
C7 C9 1.364 . S
C8 C7 1.400 . S
C8 C12 1.377 . S
C9 C7 1.364 . S
C9 C10 1.374 . S
C10 H1 0.930 . S
C10 C9 1.374 . S
C10 C11 1.383 . S
C11 O5 1.412 . S
C11 C10 1.383 . S
C11 C12 1.394 . S
C12 H2 0.929 . S
C12 C8 1.377 . S
C12 C11 1.394 . S
H13 C20 0.929 . S
H14 C23 0.930 . S
H15 C25 0.929 . S
H16 C17 0.969 . S
C17 H16 0.969 . S
C17 O18 1.550 . S
C17 H19 0.973 . S
O18 C17 1.550 . S
O18 C24 1.412 . S
H19 C17 0.973 . S
C20 H13 0.929 . S
C20 C21 1.400 . S
C20 C22 1.364 . S
C21 C20 1.400 . S
C21 C25 1.377 . S
C22 C20 1.364 . S
C22 C23 1.374 . S
C23 H14 0.930 . S
C23 C22 1.374 . S
C23 C24 1.383 . S
C24 O18 1.412 . S
C24 C23 1.383 . S
C24 C25 1.394 . S
C25 H15 0.929 . S
C25 C21 1.377 . S
C25 C24 1.394 . S
H26 C33 0.929 . S
H27 C36 0.930 . S
H28 C38 0.929 . S
H29 C30 0.969 . S
C30 H29 0.969 . S
C30 O31 1.550 . S
C30 H32 0.973 . S
O31 C30 1.550 . S
O31 C37 1.412 . S
H32 C30 0.973 . S
C33 H26 0.929 . S
C33 C34 1.400 . S
C33 C35 1.364 . S
C34 C33 1.400 . S
C34 C38 1.377 . S
C35 C33 1.364 . S
C35 C36 1.374 . S
C36 H27 0.930 . S
C36 C35 1.374 . S
C36 C37 1.383 . S
C37 O31 1.412 . S
C37 C36 1.383 . S
C37 C38 1.394 . S
C38 H28 0.929 . S
C38 C34 1.377 . S
C38 C37 1.394 . S
H39 C46 0.929 . S
H40 C49 0.930 . S
H41 C51 0.929 . S
H42 C43 0.969 . S
C43 H42 0.969 . S
C43 O44 1.550 . S
C43 H45 0.973 . S
O44 C43 1.550 . S
O44 C50 1.412 . S
H45 C43 0.973 . S
C46 H39 0.929 . S
C46 C47 1.400 . S
C46 C48 1.364 . S
C47 C46 1.400 . S
C47 C51 1.377 . S
C48 C46 1.364 . S
C48 C49 1.374 . S
C49 H40 0.930 . S
C49 C48 1.374 . S
C49 C50 1.383 . S
C50 O44 1.412 . S
C50 C49 1.383 . S
C50 C51 1.394 . S
C51 H41 0.929 . S
C51 C47 1.377 . S
C51 C50 1.394 . S
H52 C59 0.929 . S
H53 C62 0.930 . S
H54 C64 0.929 . S
H55 C56 0.969 . S
C56 H55 0.969 . S
C56 O57 1.550 . S
C56 H58 0.973 . S
O57 C56 1.550 . S
O57 C63 1.412 . S
H58 C56 0.973 . S
C59 H52 0.929 . S
C59 C60 1.400 . S
C59 C61 1.364 . S
C60 C59 1.400 . S
C60 C64 1.377 . S
C61 C59 1.364 . S
C61 C62 1.374 . S
C62 H53 0.930 . S
C62 C61 1.374 . S
C62 C63 1.383 . S
C63 O57 1.412 . S
C63 C62 1.383 . S
C63 C64 1.394 . S
C64 H54 0.929 . S
C64 C60 1.377 . S
C64 C63 1.394 . S
H65 C72 0.929 . S
H66 C75 0.930 . S
H67 C77 0.929 . S
H68 C69 0.969 . S
C69 H68 0.969 . S
C69 O70 1.550 . S
C69 H71 0.973 . S
O70 C69 1.550 . S
O70 C76 1.412 . S
H71 C69 0.973 . S
C72 H65 0.929 . S
C72 C73 1.400 . S
C72 C74 1.364 . S
C73 C72 1.400 . S
C73 C77 1.377 . S
C74 C72 1.364 . S
C74 C75 1.374 . S
C75 H66 0.930 . S
C75 C74 1.374 . S
C75 C76 1.383 . S
C76 O70 1.412 . S
C76 C75 1.383 . S
C76 C77 1.394 . S
C77 H67 0.929 . S
C77 C73 1.377 . S
C77 C76 1.394 . S
H78 C85 0.929 . S
H79 C88 0.930 . S
H80 C90 0.929 . S
H81 C82 0.969 . S
C82 H81 0.969 . S
C82 O83 1.550 . S
C82 H84 0.973 . S
O83 C82 1.550 . S
O83 C89 1.412 . S
H84 C82 0.973 . S
C85 H78 0.929 . S
C85 C86 1.400 . S
C85 C87 1.364 . S
C86 C85 1.400 . S
C86 C90 1.377 . S
C87 C85 1.364 . S
C87 C88 1.374 . S
C88 H79 0.930 . S
C88 C87 1.374 . S
C88 C89 1.383 . S
C89 O83 1.412 . S
C89 C88 1.383 . S
C89 C90 1.394 . S
C90 H80 0.929 . S
C90 C86 1.377 . S
C90 C89 1.394 . S
H91 C98 0.929 . S
H92 C101 0.930 . S
H93 C103 0.929 . S
H94 C95 0.969 . S
C95 H94 0.969 . S
C95 O96 1.550 . S
C95 H97 0.973 . S
O96 C95 1.550 . S
O96 C102 1.412 . S
H97 C95 0.973 . S
C98 H91 0.929 . S
C98 C99 1.400 . S
C98 C100 1.364 . S
C99 C98 1.400 . S
C99 C103 1.377 . S
C100 C98 1.364 . S
C100 C101 1.374 . S
C101 H92 0.930 . S
C101 C100 1.374 . S
C101 C102 1.383 . S
C102 O96 1.412 . S
C102 C101 1.383 . S
C102 C103 1.394 . S
C103 H93 0.929 . S
C103 C99 1.377 . S
C103 C102 1.394 . S
Co104 O107 2.042 . S
Co104 O114 2.264 . S
Co104 O133 2.286 . S
Co104 O134 2.069 . S
Co104 O136 2.015 . S
Co105 O107 2.122 . S
Co105 O113 2.073 . S
Co105 O114 2.327 . S
Co105 O115 1.976 . S
Co106 O107 2.087 . S
Co106 O109 2.087 1_455 S
Co106 O116 2.111 . S
Co106 O117 2.143 1_455 S
Co106 O121 2.111 1_455 S
Co106 O135 2.143 . S
O107 Co104 2.042 . S
O107 Co105 2.122 . S
O107 Co106 2.087 . S
O107 H108 0.980 . S
H108 O107 0.980 . S
O109 Co106 2.087 1_655 S
O109 Co110 2.042 . S
O109 Co111 2.122 . S
O109 H112 0.980 1_655 S
Co110 O109 2.042 . S
Co110 O118 2.286 . S
Co110 O119 2.069 . S
Co110 O120 2.015 . S
Co110 O123 2.264 . S
Co111 O109 2.122 . S
Co111 O122 1.976 . S
Co111 O123 2.327 . S
Co111 O124 2.073 . S
H112 O109 0.980 1_455 S
O113 Co105 2.073 . S
O113 C128 1.245 . S
O114 Co104 2.264 . S
O114 Co105 2.327 . S
O114 C128 1.257 . S
O115 Co105 1.976 . S
O115 C127 1.251 . S
O116 Co106 2.111 . S
O116 C127 1.274 . S
O117 Co106 2.143 1_655 S
O117 C130 1.246 . S
O118 Co110 2.286 . S
O118 C129 1.259 . S
O119 Co110 2.069 . S
O119 C129 1.289 . S
O120 Co110 2.015 . S
O120 C130 1.257 . S
O121 Co106 2.111 1_655 S
O121 C131 1.274 . S
O122 Co111 1.976 . S
O122 C131 1.251 . S
O123 Co110 2.264 . S
O123 Co111 2.327 . S
O123 C132 1.257 . S
O124 Co111 2.073 . S
O124 C132 1.245 . S
C125 O133 1.259 . S
C125 O134 1.289 . S
C126 O135 1.246 . S
C126 O136 1.257 . S
C127 O115 1.251 . S
C127 O116 1.274 . S
C128 O113 1.245 . S
C128 O114 1.257 . S
C129 O118 1.259 . S
C129 O119 1.289 . S
C130 O117 1.246 . S
C130 O120 1.257 . S
C131 O121 1.274 . S
C131 O122 1.251 . S
C132 O123 1.257 . S
C132 O124 1.245 . S
O133 Co104 2.286 . S
O133 C125 1.259 . S
O134 Co104 2.069 . S
O134 C125 1.289 . S
O135 Co106 2.143 . S
O135 C126 1.246 . S
O136 Co104 2.015 . S
O136 C126 1.257 . S
Co137 O140 2.042 . S
Co137 O147 2.264 . S
Co137 O166 2.286 . S
Co137 O167 2.069 . S
Co137 O169 2.015 . S
Co138 O140 2.122 . S
Co138 O146 2.073 . S
Co138 O147 2.327 . S
Co138 O148 1.976 . S
Co139 O140 2.087 1_545 S
Co139 O142 2.087 . S
Co139 O149 2.111 1_545 S
Co139 O150 2.143 . S
Co139 O154 2.111 . S
Co139 O168 2.143 1_545 S
O140 Co137 2.042 . S
O140 Co138 2.122 . S
O140 Co139 2.087 1_565 S
O140 H141 0.980 1_565 S
H141 O140 0.980 1_545 S
O142 Co139 2.087 . S
O142 Co143 2.042 . S
O142 Co144 2.122 . S
O142 H145 0.980 . S
Co143 O142 2.042 . S
Co143 O151 2.286 . S
Co143 O152 2.069 . S
Co143 O153 2.015 . S
Co143 O156 2.264 . S
Co144 O142 2.122 . S
Co144 O155 1.976 . S
Co144 O156 2.327 . S
Co144 O157 2.073 . S
H145 O142 0.980 . S
O146 Co138 2.073 . S
O146 C161 1.245 . S
O147 Co137 2.264 . S
O147 Co138 2.327 . S
O147 C161 1.257 . S
O148 Co138 1.976 . S
O148 C160 1.251 . S
O149 Co139 2.111 1_565 S
O149 C160 1.274 . S
O150 Co139 2.143 . S
O150 C163 1.246 . S
O151 Co143 2.286 . S
O151 C162 1.259 . S
O152 Co143 2.069 . S
O152 C162 1.289 . S
O153 Co143 2.015 . S
O153 C163 1.257 . S
O154 Co139 2.111 . S
O154 C164 1.274 . S
O155 Co144 1.976 . S
O155 C164 1.251 . S
O156 Co143 2.264 . S
O156 Co144 2.327 . S
O156 C165 1.257 . S
O157 Co144 2.073 . S
O157 C165 1.245 . S
C158 O166 1.259 . S
C158 O167 1.289 . S
C159 O168 1.246 . S
C159 O169 1.257 . S
C160 O148 1.251 . S
C160 O149 1.274 . S
C161 O146 1.245 . S
C161 O147 1.257 . S
C162 O151 1.259 . S
C162 O152 1.289 . S
C163 O150 1.246 . S
C163 O153 1.257 . S
C164 O154 1.274 . S
C164 O155 1.251 . S
C165 O156 1.257 . S
C165 O157 1.245 . S
O166 Co137 2.286 . S
O166 C158 1.259 . S
O167 Co137 2.069 . S
O167 C158 1.289 . S
O168 Co139 2.143 1_565 S
O168 C159 1.246 . S
O169 Co137 2.015 . S
O169 C159 1.257 . S
Co170 O173 2.042 . S
Co170 O180 2.264 . S
Co170 O199 2.286 . S
Co170 O200 2.069 . S
Co170 O202 2.015 . S
Co171 O173 2.122 . S
Co171 O179 2.073 . S
Co171 O180 2.327 . S
Co171 O181 1.976 . S
Co172 O173 2.087 . S
Co172 O175 2.087 1_554 S
Co172 O182 2.111 . S
Co172 O183 2.143 1_554 S
Co172 O187 2.111 1_554 S
Co172 O201 2.143 . S
O173 Co170 2.042 . S
O173 Co171 2.122 . S
O173 Co172 2.087 . S
O173 H174 0.980 . S
H174 O173 0.980 . S
O175 Co172 2.087 1_556 S
O175 Co176 2.042 . S
O175 Co177 2.122 . S
O175 H178 0.980 . S
Co176 O175 2.042 . S
Co176 O184 2.286 . S
Co176 O185 2.069 . S
Co176 O186 2.015 . S
Co176 O189 2.264 . S
Co177 O175 2.122 . S
Co177 O188 1.976 . S
Co177 O189 2.327 . S
Co177 O190 2.073 . S
H178 O175 0.980 . S
O179 Co171 2.073 . S
O179 C194 1.245 . S
O180 Co170 2.264 . S
O180 Co171 2.327 . S
O180 C194 1.257 . S
O181 Co171 1.976 . S
O181 C193 1.251 . S
O182 Co172 2.111 . S
O182 C193 1.274 . S
O183 Co172 2.143 1_556 S
O183 C196 1.246 . S
O184 Co176 2.286 . S
O184 C195 1.259 . S
O185 Co176 2.069 . S
O185 C195 1.289 . S
O186 Co176 2.015 . S
O186 C196 1.257 . S
O187 Co172 2.111 1_556 S
O187 C197 1.274 . S
O188 Co177 1.976 . S
O188 C197 1.251 . S
O189 Co176 2.264 . S
O189 Co177 2.327 . S
O189 C198 1.257 . S
O190 Co177 2.073 . S
O190 C198 1.245 . S
C191 O199 1.259 . S
C191 O200 1.289 . S
C192 O201 1.246 . S
C192 O202 1.257 . S
C193 O181 1.251 . S
C193 O182 1.274 . S
C194 O179 1.245 . S
C194 O180 1.257 . S
C195 O184 1.259 . S
C195 O185 1.289 . S
C196 O183 1.246 . S
C196 O186 1.257 . S
C197 O187 1.274 . S
C197 O188 1.251 . S
C198 O189 1.257 . S
C198 O190 1.245 . S
O199 Co170 2.286 . S
O199 C191 1.259 . S
O200 Co170 2.069 . S
O200 C191 1.289 . S
O201 Co172 2.143 . S
O201 C192 1.246 . S
O202 Co170 2.015 . S
O202 C192 1.257 . S
C203 C204 1.369 . S
C203 C205 1.419 . S
C203 H207 0.930 . S
C204 C203 1.369 . S
C204 C213 1.429 . S
C205 C203 1.419 . S
C205 C206 1.363 . S
C205 H208 0.929 . S
C206 C205 1.363 . S
C206 C212 1.428 . S
H207 C203 0.930 . S
H208 C205 0.929 . S
S209 N210 1.613 . S
S209 N211 1.610 . S
N210 S209 1.613 . S
N210 C213 1.350 . S
N211 S209 1.610 . S
N211 C212 1.351 . S
C212 C206 1.428 . S
C212 N211 1.351 . S
C212 C213 1.434 . S
C213 C204 1.429 . S
C213 N210 1.350 . S
C213 C212 1.434 . S
C214 C215 1.369 . S
C214 C216 1.419 . S
C214 H218 0.930 . S
C215 C214 1.369 . S
C215 C224 1.429 . S
C216 C214 1.419 . S
C216 C217 1.363 . S
C216 H219 0.929 . S
C217 C216 1.363 . S
C217 C223 1.428 . S
H218 C214 0.930 . S
H219 C216 0.929 . S
S220 N221 1.613 . S
S220 N222 1.610 . S
N221 S220 1.613 . S
N221 C224 1.350 . S
N222 S220 1.610 . S
N222 C223 1.351 . S
C223 C217 1.428 . S
C223 N222 1.351 . S
C223 C224 1.434 . S
C224 C215 1.429 . S
C224 N221 1.350 . S
C224 C223 1.434 . S
C225 C226 1.369 . S
C225 C227 1.419 . S
C225 H229 0.930 . S
C226 C225 1.369 . S
C226 C235 1.429 . S
C227 C225 1.419 . S
C227 C228 1.363 . S
C227 H230 0.929 . S
C228 C227 1.363 . S
C228 C234 1.428 . S
H229 C225 0.930 . S
H230 C227 0.929 . S
S231 N232 1.613 . S
S231 N233 1.610 . S
N232 S231 1.613 . S
N232 C235 1.350 . S
N233 S231 1.610 . S
N233 C234 1.351 . S
C234 C228 1.428 . S
C234 N233 1.351 . S
C234 C235 1.434 . S
C235 C226 1.429 . S
C235 N232 1.350 . S
C235 C234 1.434 . S
C236 C237 1.369 . S
C236 C238 1.419 . S
C236 H240 0.930 . S
C237 C236 1.369 . S
C237 C246 1.429 . S
C238 C236 1.419 . S
C238 C239 1.363 . S
C238 H241 0.929 . S
C239 C238 1.363 . S
C239 C245 1.428 . S
H240 C236 0.930 . S
H241 C238 0.929 . S
S242 N243 1.613 . S
S242 N244 1.610 . S
N243 S242 1.613 . S
N243 C246 1.350 . S
N244 S242 1.610 . S
N244 C245 1.351 . S
C245 C239 1.428 . S
C245 N244 1.351 . S
C245 C246 1.434 . S
C246 C237 1.429 . S
C246 N243 1.350 . S
C246 C245 1.434 . S
C247 C248 1.369 . S
C247 C249 1.419 . S
C247 H251 0.930 . S
C248 C247 1.369 . S
C248 C257 1.429 . S
C249 C247 1.419 . S
C249 C250 1.363 . S
C249 H252 0.929 . S
C250 C249 1.363 . S
C250 C256 1.428 . S
H251 C247 0.930 . S
H252 C249 0.929 . S
S253 N254 1.613 . S
S253 N255 1.610 . S
N254 S253 1.613 . S
N254 C257 1.350 . S
N255 S253 1.610 . S
N255 C256 1.351 . S
C256 C250 1.428 . S
C256 N255 1.351 . S
C256 C257 1.434 . S
C257 C248 1.429 . S
C257 N254 1.350 . S
C257 C256 1.434 . S
C258 C259 1.369 . S
C258 C260 1.419 . S
C258 H262 0.930 . S
C259 C258 1.369 . S
C259 C268 1.429 . S
C260 C258 1.419 . S
C260 C261 1.363 . S
C260 H263 0.929 . S
C261 C260 1.363 . S
C261 C267 1.428 . S
H262 C258 0.930 . S
H263 C260 0.929 . S
S264 N265 1.613 . S
S264 N266 1.610 . S
N265 S264 1.613 . S
N265 C268 1.350 . S
N266 S264 1.610 . S
N266 C267 1.351 . S
C267 C261 1.428 . S
C267 N266 1.351 . S
C267 C268 1.434 . S
C268 C259 1.429 . S
C268 N265 1.350 . S
C268 C267 1.434 . S
C269 C270 1.369 . S
C269 C271 1.419 . S
C269 H273 0.930 . S
C270 C269 1.369 . S
C270 C279 1.429 . S
C271 C269 1.419 . S
C271 C272 1.363 . S
C271 H274 0.929 . S
C272 C271 1.363 . S
C272 C278 1.428 . S
H273 C269 0.930 . S
H274 C271 0.929 . S
S275 N276 1.613 . S
S275 N277 1.610 . S
N276 S275 1.613 . S
N276 C279 1.350 . S
N277 S275 1.610 . S
N277 C278 1.351 . S
C278 C272 1.428 . S
C278 N277 1.351 . S
C278 C279 1.434 . S
C279 C270 1.429 . S
C279 N276 1.350 . S
C279 C278 1.434 . S
C280 C281 1.369 . S
C280 C282 1.419 . S
C280 H284 0.930 . S
C281 C280 1.369 . S
C281 C290 1.429 . S
C282 C280 1.419 . S
C282 C283 1.363 . S
C282 H285 0.929 . S
C283 C282 1.363 . S
C283 C289 1.428 . S
H284 C280 0.930 . S
H285 C282 0.929 . S
S286 N287 1.613 . S
S286 N288 1.610 . S
N287 S286 1.613 . S
N287 C290 1.350 . S
N288 S286 1.610 . S
N288 C289 1.351 . S
C289 C283 1.428 . S
C289 N288 1.351 . S
C289 C290 1.434 . S
C290 C281 1.429 . S
C290 N287 1.350 . S
C290 C289 1.434 . S
C291 C292 1.369 . S
C291 C293 1.419 . S
C291 H295 0.930 . S
C292 C291 1.369 . S
C292 C301 1.429 . S
C293 C291 1.419 . S
C293 C294 1.363 . S
C293 H296 0.929 . S
C294 C293 1.363 . S
C294 C300 1.428 . S
H295 C291 0.930 . S
H296 C293 0.929 . S
S297 N298 1.613 . S
S297 N299 1.610 . S
N298 S297 1.613 . S
N298 C301 1.350 . S
N299 S297 1.610 . S
N299 C300 1.351 . S
C300 C294 1.428 . S
C300 N299 1.351 . S
C300 C301 1.434 . S
C301 C292 1.429 . S
C301 N298 1.350 . S
C301 C300 1.434 . S
C302 C303 1.369 . S
C302 C304 1.419 . S
C302 H306 0.930 . S
C303 C302 1.369 . S
C303 C312 1.429 . S
C304 C302 1.419 . S
C304 C305 1.363 . S
C304 H307 0.929 . S
C305 C304 1.363 . S
C305 C311 1.428 . S
H306 C302 0.930 . S
H307 C304 0.929 . S
S308 N309 1.613 . S
S308 N310 1.610 . S
N309 S308 1.613 . S
N309 C312 1.350 . S
N310 S308 1.610 . S
N310 C311 1.351 . S
C311 C305 1.428 . S
C311 N310 1.351 . S
C311 C312 1.434 . S
C312 C303 1.429 . S
C312 N309 1.350 . S
C312 C311 1.434 . S
C313 C314 1.369 . S
C313 C315 1.419 . S
C313 H317 0.930 . S
C314 C313 1.369 . S
C314 C323 1.429 . S
C315 C313 1.419 . S
C315 C316 1.363 . S
C315 H318 0.929 . S
C316 C315 1.363 . S
C316 C322 1.428 . S
H317 C313 0.930 . S
H318 C315 0.929 . S
S319 N320 1.613 . S
S319 N321 1.610 . S
N320 S319 1.613 . S
N320 C323 1.350 . S
N321 S319 1.610 . S
N321 C322 1.351 . S
C322 C316 1.428 . S
C322 N321 1.351 . S
C322 C323 1.434 . S
C323 C314 1.429 . S
C323 N320 1.350 . S
C323 C322 1.434 . S
C324 C325 1.369 . S
C324 C326 1.419 . S
C324 H328 0.930 . S
C325 C324 1.369 . S
C325 C334 1.429 . S
C326 C324 1.419 . S
C326 C327 1.363 . S
C326 H329 0.929 . S
C327 C326 1.363 . S
C327 C333 1.428 . S
H328 C324 0.930 . S
H329 C326 0.929 . S
S330 N331 1.613 . S
S330 N332 1.610 . S
N331 S330 1.613 . S
N331 C334 1.350 . S
N332 S330 1.610 . S
N332 C333 1.351 . S
C333 C327 1.428 . S
C333 N332 1.351 . S
C333 C334 1.434 . S
C334 C325 1.429 . S
C334 N331 1.350 . S
C334 C333 1.434 . S
C335 C336 1.369 . S
C335 C337 1.419 . S
C335 H339 0.930 . S
C336 C335 1.369 . S
C336 C345 1.429 . S
C337 C335 1.419 . S
C337 C338 1.363 . S
C337 H340 0.929 . S
C338 C337 1.363 . S
C338 C344 1.428 . S
H339 C335 0.930 . S
H340 C337 0.929 . S
S341 N342 1.613 . S
S341 N343 1.610 . S
N342 S341 1.613 . S
N342 C345 1.350 . S
N343 S341 1.610 . S
N343 C344 1.351 . S
C344 C338 1.428 . S
C344 N343 1.351 . S
C344 C345 1.434 . S
C345 C336 1.429 . S
C345 N342 1.350 . S
C345 C344 1.434 . S
C346 C347 1.369 . S
C346 C348 1.419 . S
C346 H350 0.930 . S
C347 C346 1.369 . S
C347 C356 1.429 . S
C348 C346 1.419 . S
C348 C349 1.363 . S
C348 H351 0.929 . S
C349 C348 1.363 . S
C349 C355 1.428 . S
H350 C346 0.930 . S
H351 C348 0.929 . S
S352 N353 1.613 . S
S352 N354 1.610 . S
N353 S352 1.613 . S
N353 C356 1.350 . S
N354 S352 1.610 . S
N354 C355 1.351 . S
C355 C349 1.428 . S
C355 N354 1.351 . S
C355 C356 1.434 . S
C356 C347 1.429 . S
C356 N353 1.350 . S
C356 C355 1.434 . S
C357 C358 1.369 . S
C357 C359 1.419 . S
C357 H361 0.930 . S
C358 C357 1.369 . S
C358 C367 1.429 . S
C359 C357 1.419 . S
C359 C360 1.363 . S
C359 H362 0.929 . S
C360 C359 1.363 . S
C360 C366 1.428 . S
H361 C357 0.930 . S
H362 C359 0.929 . S
S363 N364 1.613 . S
S363 N365 1.610 . S
N364 S363 1.613 . S
N364 C367 1.350 . S
N365 S363 1.610 . S
N365 C366 1.351 . S
C366 C360 1.428 . S
C366 N365 1.351 . S
C366 C367 1.434 . S
C367 C358 1.429 . S
C367 N364 1.350 . S
C367 C366 1.434 . S
C368 C369 1.369 . S
C368 C370 1.419 . S
C368 H372 0.930 . S
C369 C368 1.369 . S
C369 C378 1.429 . S
C370 C368 1.419 . S
C370 C371 1.363 . S
C370 H373 0.929 . S
C371 C370 1.363 . S
C371 C377 1.428 . S
H372 C368 0.930 . S
H373 C370 0.929 . S
S374 N375 1.613 . S
S374 N376 1.610 . S
N375 S374 1.613 . S
N375 C378 1.350 . S
N376 S374 1.610 . S
N376 C377 1.351 . S
C377 C371 1.428 . S
C377 N376 1.351 . S
C377 C378 1.434 . S
C378 C369 1.429 . S
C378 N375 1.350 . S
C378 C377 1.434 . S
C379 C380 1.369 . S
C379 C381 1.419 . S
C379 H383 0.930 . S
C380 C379 1.369 . S
C380 C389 1.429 . S
C381 C379 1.419 . S
C381 C382 1.363 . S
C381 H384 0.929 . S
C382 C381 1.363 . S
C382 C388 1.428 . S
H383 C379 0.930 . S
H384 C381 0.929 . S
S385 N386 1.613 . S
S385 N387 1.610 . S
N386 S385 1.613 . S
N386 C389 1.350 . S
N387 S385 1.610 . S
N387 C388 1.351 . S
C388 C382 1.428 . S
C388 N387 1.351 . S
C388 C389 1.434 . S
C389 C380 1.429 . S
C389 N386 1.350 . S
C389 C388 1.434 . S
C390 C391 1.369 . S
C390 C392 1.419 . S
C390 H394 0.930 . S
C391 C390 1.369 . S
C391 C400 1.429 . S
C392 C390 1.419 . S
C392 C393 1.363 . S
C392 H395 0.929 . S
C393 C392 1.363 . S
C393 C399 1.428 . S
H394 C390 0.930 . S
H395 C392 0.929 . S
S396 N397 1.613 . S
S396 N398 1.610 . S
N397 S396 1.613 . S
N397 C400 1.350 . S
N398 S396 1.610 . S
N398 C399 1.351 . S
C399 C393 1.428 . S
C399 N398 1.351 . S
C399 C400 1.434 . S
C400 C391 1.429 . S
C400 N397 1.350 . S
C400 C399 1.434 . S
C401 C402 1.369 . S
C401 C403 1.419 . S
C401 H405 0.930 . S
C402 C401 1.369 . S
C402 C411 1.429 . S
C403 C401 1.419 . S
C403 C404 1.363 . S
C403 H406 0.929 . S
C404 C403 1.363 . S
C404 C410 1.428 . S
H405 C401 0.930 . S
H406 C403 0.929 . S
S407 N408 1.613 . S
S407 N409 1.610 . S
N408 S407 1.613 . S
N408 C411 1.350 . S
N409 S407 1.610 . S
N409 C410 1.351 . S
C410 C404 1.428 . S
C410 N409 1.351 . S
C410 C411 1.434 . S
C411 C402 1.429 . S
C411 N408 1.350 . S
C411 C410 1.434 . S
C412 C413 1.369 . S
C412 C414 1.419 . S
C412 H416 0.930 . S
C413 C412 1.369 . S
C413 C422 1.429 . S
C414 C412 1.419 . S
C414 C415 1.363 . S
C414 H417 0.929 . S
C415 C414 1.363 . S
C415 C421 1.428 . S
H416 C412 0.930 . S
H417 C414 0.929 . S
S418 N419 1.613 . S
S418 N420 1.610 . S
N419 S418 1.613 . S
N419 C422 1.350 . S
N420 S418 1.610 . S
N420 C421 1.351 . S
C421 C415 1.428 . S
C421 N420 1.351 . S
C421 C422 1.434 . S
C422 C413 1.429 . S
C422 N419 1.350 . S
C422 C421 1.434 . S
C423 C424 1.369 . S
C423 C425 1.419 . S
C423 H427 0.930 . S
C424 C423 1.369 . S
C424 C433 1.429 . S
C425 C423 1.419 . S
C425 C426 1.363 . S
C425 H428 0.929 . S
C426 C425 1.363 . S
C426 C432 1.428 . S
H427 C423 0.930 . S
H428 C425 0.929 . S
S429 N430 1.613 . S
S429 N431 1.610 . S
N430 S429 1.613 . S
N430 C433 1.350 . S
N431 S429 1.610 . S
N431 C432 1.351 . S
C432 C426 1.428 . S
C432 N431 1.351 . S
C432 C433 1.434 . S
C433 C424 1.429 . S
C433 N430 1.350 . S
C433 C432 1.434 . S
C434 C435 1.369 . S
C434 C436 1.419 . S
C434 H438 0.930 . S
C435 C434 1.369 . S
C435 C444 1.429 . S
C436 C434 1.419 . S
C436 C437 1.363 . S
C436 H439 0.929 . S
C437 C436 1.363 . S
C437 C443 1.428 . S
H438 C434 0.930 . S
H439 C436 0.929 . S
S440 N441 1.613 . S
S440 N442 1.610 . S
N441 S440 1.613 . S
N441 C444 1.350 . S
N442 S440 1.610 . S
N442 C443 1.351 . S
C443 C437 1.428 . S
C443 N442 1.351 . S
C443 C444 1.434 . S
C444 C435 1.429 . S
C444 N441 1.350 . S
C444 C443 1.434 . S
C445 C446 1.369 . S
C445 C447 1.419 . S
C445 H449 0.930 . S
C446 C445 1.369 . S
C446 C455 1.429 . S
C447 C445 1.419 . S
C447 C448 1.363 . S
C447 H450 0.929 . S
C448 C447 1.363 . S
C448 C454 1.428 . S
H449 C445 0.930 . S
H450 C447 0.929 . S
S451 N452 1.613 . S
S451 N453 1.610 . S
N452 S451 1.613 . S
N452 C455 1.350 . S
N453 S451 1.610 . S
N453 C454 1.351 . S
C454 C448 1.428 . S
C454 N453 1.351 . S
C454 C455 1.434 . S
C455 C446 1.429 . S
C455 N452 1.350 . S
C455 C454 1.434 . S
C456 C457 1.369 . S
C456 C458 1.419 . S
C456 H460 0.930 . S
C457 C456 1.369 . S
C457 C466 1.429 . S
C458 C456 1.419 . S
C458 C459 1.363 . S
C458 H461 0.929 . S
C459 C458 1.363 . S
C459 C465 1.428 . S
H460 C456 0.930 . S
H461 C458 0.929 . S
S462 N463 1.613 . S
S462 N464 1.610 . S
N463 S462 1.613 . S
N463 C466 1.350 . S
N464 S462 1.610 . S
N464 C465 1.351 . S
C465 C459 1.428 . S
C465 N464 1.351 . S
C465 C466 1.434 . S
C466 C457 1.429 . S
C466 N463 1.350 . S
C466 C465 1.434 . S
C206 C128 1.473 . S
C204 C9 1.560 . S
C217 C164 1.955 . S
C215 C22 2.073 . S
C228 C129 1.341 . S
C226 C30 1.347 . S
C239 C159 1.231 . S
C237 C47 1.247 . S
C250 C126 1.233 . S
C248 C61 1.262 . S
C259 C69 1.318 . S
C261 C162 1.400 . S
C270 C82 1.165 . S
C272 C131 1.013 . S
C283 C161 1.613 . S
C281 C99 1.660 . S
C294 C165 1.450 . S
C292 C4 1.502 . S
C305 C130 1.680 . S
C303 C21 1.734 . S
C316 C158 1.862 . S
C314 C34 1.858 . S
C327 C127 0.857 . S
C325 C48 0.922 . S
C338 C160 1.356 . S
C336 C60 1.434 . S
C347 C74 1.528 . S
C349 C125 1.528 . S
C358 C86 1.545 . S
C360 C163 1.464 . S
C371 C132 1.315 . S
C369 C95 1.342 . S
C382 C194 1.730 . S
C380 C8 1.856 . S
C391 C56 1.373 . S
C393 C197 1.341 . S
C404 C196 1.621 . S
C402 C73 1.627 . S
C413 C87 2.180 . S
C415 C195 2.150 . S
C426 C198 1.750 . S
C424 C100 1.886 . S
C435 C35 1.993 . S
C437 C192 1.932 . S
C448 C191 1.371 . S
C446 C43 1.362 . S
C457 C17 1.938 . S
C459 C193 1.866 . S
