# Generated by pormake.
# Topology tsx, (6,3)-cn, num edge types: 1
# Building blocks:
#     Node 0, Type 0, BuildingBlock: JUFBIX_clean_sbu_0, # of connection points: 6
#     Node 1, Type 0, BuildingBlock: JUFBIX_clean_sbu_0, # of connection points: 6
#     Node 2, Type 1, BuildingBlock: VETTIZ_charged_linker_0, # of connection points: 3
#     Node 3, Type 1, BuildingBlock: VETTIZ_charged_linker_0, # of connection points: 3
#     Node 4, Type 1, BuildingBlock: VETTIZ_charged_linker_0, # of connection points: 3
#     Node 5, Type 1, BuildingBlock: VETTIZ_charged_linker_0, # of connection points: 3
#     Edge 6, Type (0, 1), BuildingBlock: EZIPEK_clean_linker_0, # of connection points: 2
#     Edge 7, Type (0, 1), BuildingBlock: EZIPEK_clean_linker_0, # of connection points: 2
#     Edge 8, Type (0, 1), BuildingBlock: EZIPEK_clean_linker_0, # of connection points: 2
#     Edge 9, Type (0, 1), BuildingBlock: EZIPEK_clean_linker_0, # of connection points: 2
#     Edge 10, Type (0, 1), BuildingBlock: EZIPEK_clean_linker_0, # of connection points: 2
#     Edge 11, Type (0, 1), BuildingBlock: EZIPEK_clean_linker_0, # of connection points: 2
#     Edge 12, Type (0, 1), BuildingBlock: EZIPEK_clean_linker_0, # of connection points: 2
#     Edge 13, Type (0, 1), BuildingBlock: EZIPEK_clean_linker_0, # of connection points: 2
#     Edge 14, Type (0, 1), BuildingBlock: EZIPEK_clean_linker_0, # of connection points: 2
#     Edge 15, Type (0, 1), BuildingBlock: EZIPEK_clean_linker_0, # of connection points: 2
#     Edge 16, Type (0, 1), BuildingBlock: EZIPEK_clean_linker_0, # of connection points: 2
#     Edge 17, Type (0, 1), BuildingBlock: EZIPEK_clean_linker_0, # of connection points: 2
# Relax obj value: 0.165
# Max RMSD: 0.171
# Mean RMSD: 0.140
data_MOF--net-tsx--node1-JUFBIX_clean_sbu_0--node2-VETTIZ_charged_linker_0--edge1-EZIPEK_clean_linker_0
_symmetry_space_group_name_H-M    P1
_symmetry_Int_Tables_number       1
_symmetry_cell_setting            triclinic
loop_
_symmetry_equiv_pos_as_xyz
'x, y, z'
_cell_length_a     18.077626
_cell_length_b     21.263728
_cell_length_c     35.758995
_cell_angle_alpha  93.12514
_cell_angle_beta   90.085758
_cell_angle_gamma 99.247438
loop_
_atom_site_label
_atom_site_type_symbol
_atom_site_fract_x
_atom_site_fract_y
_atom_site_fract_z
_atom_type_partial_charge
Co0 Co 0.05059 0.03778 -0.01023 0.0
C1 C 0.96661 0.05322 0.92732 0.0
Co2 Co 0.95757 0.0924 0.00103 0.0
C3 C 0.13634 0.93124 -0.01516 0.0
C4 C 0.19026 1.01341 0.95776 0.0
N5 N 0.12953 0.99236 -0.02168 0.0
N6 N 0.19846 0.91395 0.969 0.0
C7 C 0.23259 0.96552 0.95211 0.0
H8 H 0.0955 0.89916 -0.00035 0.0
H9 H 0.20191 0.05985 0.94624 0.0
C10 C 0.04467 0.07893 0.06297 0.0
N11 N 0.8784 0.13663 0.01108 0.0
C12 C 0.84908 0.17448 -0.01211 0.0
C13 C 0.83305 0.13323 0.04114 0.0
N14 N 0.78723 0.19422 0.0021 0.0
C15 C 0.77669 0.16866 0.03564 0.0
C16 C 0.91778 0.96189 0.00871 0.0
O17 O 0.07656 0.04337 0.04073 0.0
O18 O 0.99115 0.10539 0.0515 0.0
O19 O 0.89603 1.01567 0.01296 0.0
O20 O 0.98339 0.95944 -0.00364 0.0
O21 O 0.92605 0.07871 0.95062 0.0
H22 H 0.83918 0.10513 0.06494 0.0
H23 H 0.87118 0.18594 0.96055 0.0
O24 O 1.02485 0.03327 0.93854 0.0
O25 O 0.11534 0.11807 -0.01527 0.0
O26 O 1.01979 0.16959 -0.01025 0.0
C27 C 0.08993 0.17072 -0.01358 0.0
H28 H 0.28315 0.96753 0.93573 0.0
H29 H 0.73066 0.17402 0.05424 0.0
Co30 Co 0.60141 0.47543 0.49643 0.0
C31 C 0.541 0.47506 0.42533 0.0
Co32 Co 0.50323 0.52472 0.49299 0.0
C33 C 0.68511 0.3716 0.48513 0.0
C34 C 0.75373 0.45544 0.50937 0.0
N35 N 0.6832 0.4326 0.49742 0.0
N36 N 0.75407 0.35585 0.4885 0.0
C37 C 0.79749 0.40838 0.50378 0.0
H38 H 0.6373 0.33953 0.4732 0.0
H39 H 0.77234 0.50335 0.52111 0.0
C40 C 0.56824 0.53017 0.56331 0.0
N41 N 0.42061 0.56614 0.49202 0.0
C42 C 0.40222 0.60594 0.46665 0.0
C43 C 0.36548 0.56309 0.51764 0.0
N44 N 0.33806 0.62758 0.47556 0.0
C45 C 0.31463 0.60108 0.50761 0.0
C46 C 0.46578 0.39748 0.50844 0.0
O47 O 0.60952 0.4929 0.54851 0.0
O48 O 0.51773 0.54882 0.54409 0.0
O49 O 0.44003 0.44894 0.50498 0.0
O50 O 0.53544 0.39711 0.50392 0.0
O51 O 0.4907 0.50112 0.44187 0.0
H52 H 0.36286 0.53543 0.54225 0.0
H53 H 0.43556 0.61959 0.44244 0.0
O54 O 0.59446 0.45991 0.44409 0.0
O55 O 0.66533 0.55484 0.48988 0.0
O56 O 0.56699 0.60094 0.4815 0.0
C57 C 0.63766 0.60505 0.48438 0.0
H58 H 0.85663 0.41231 0.51028 0.0
H59 H 0.2649 0.60925 0.52272 0.0
C60 C 0.14183 0.83508 0.41007 0.0
C61 C 0.20444 0.80945 0.39683 0.0
C62 C 0.24216 0.83368 0.36507 0.0
C63 C 0.15885 0.91176 0.36175 0.0
C64 C 0.12057 0.88684 0.39234 0.0
C65 C 0.06347 0.92694 0.406 0.0
H66 H 0.95056 0.21838 0.40566 0.0
C67 C 0.1314 0.97121 0.35365 0.0
C68 C 0.07764 0.98242 0.38049 0.0
H69 H 0.85156 0.06033 0.46931 0.0
H70 H 0.93726 0.99432 0.44065 0.0
H71 H 0.1279 0.19912 0.4005 0.0
H72 H 0.92587 0.14476 0.33776 0.0
H73 H 0.99265 0.1284 0.3047 0.0
H74 H 0.99375 0.20915 0.32367 0.0
H75 H 0.07704 0.24983 0.37544 0.0
H76 H 0.14741 0.21077 0.35262 0.0
C77 C 0.0816 0.94845 0.44707 0.0
C78 C 0.98495 0.88701 0.39946 0.0
C79 C 0.18081 0.06905 0.23029 0.0
C80 C 0.14964 0.11866 0.21543 0.0
C81 C 0.12788 0.16671 0.23942 0.0
C82 C 0.12697 0.16028 0.27807 0.0
C83 C 0.14507 0.10423 0.29211 0.0
C84 C 0.17696 0.062 0.26893 0.0
C85 C 0.19258 1.00518 0.28916 0.0
C86 C 0.15208 1.0151 0.32572 0.0
C87 C 0.12502 0.07327 0.32729 0.0
C88 C 0.27867 1.01138 0.29497 0.0
C89 C 0.15712 0.94297 0.26695 0.0
C90 C 0.9486 0.17002 0.41422 0.0
C91 C 0.89659 0.14539 0.44081 0.0
C92 C 0.89269 0.08095 0.44958 0.0
C93 C 0.942 0.04271 0.43279 0.0
C94 C 0.99399 0.06858 0.40616 0.0
C95 C 0.9943 0.13071 0.39652 0.0
C96 C 0.0402 0.147 0.36256 0.0
C97 C 0.07384 0.08666 0.35547 0.0
C98 C 0.04797 0.04083 0.38135 0.0
C99 C 0.10136 0.20502 0.37308 0.0
C100 C 0.98597 0.15819 0.3305 0.0
H101 H 0.25147 0.90239 0.32395 0.0
H102 H 0.11317 0.81762 0.43495 0.0
H103 H 0.93957 0.91584 0.40214 0.0
H104 H 0.9749 0.8481 0.41925 0.0
H105 H 0.97991 0.86455 0.37054 0.0
H106 H 0.14288 0.96451 0.45112 0.0
H107 H 0.06379 0.90875 0.46566 0.0
H108 H 0.05481 0.98943 0.45588 0.0
H109 H 0.19875 0.03252 0.21178 0.0
H110 H 0.10535 0.20599 0.22807 0.0
H111 H 0.10727 0.19683 0.29525 0.0
H112 H 0.30897 0.05908 0.28809 0.0
H113 H 0.30244 0.97547 0.27698 0.0
H114 H 0.29366 1.00601 0.32462 0.0
H115 H 0.09798 0.94511 0.25921 0.0
H116 H 0.15618 0.90003 0.28301 0.0
H117 H 0.18846 0.9356 0.24081 0.0
H118 H 0.29066 0.81438 0.35473 0.0
C119 C 0.21974 0.88484 0.3475 0.0
C120 C 0.20124 0.14843 0.5472 0.0
C121 C 0.24234 0.20284 0.56594 0.0
C122 C 0.22445 0.21877 0.6032 0.0
C123 C 0.12478 0.12772 0.60237 0.0
C124 C 0.14194 0.11228 0.56576 0.0
C125 C 0.08526 0.05892 0.5485 0.0
H126 H 0.79728 0.8177 0.57549 0.0
C127 C 0.05798 0.08284 0.61287 0.0
C128 C 0.03316 0.04288 0.58122 0.0
H129 H 0.89438 0.873 0.46982 0.0
H130 H 0.97595 0.96218 0.50209 0.0
H131 H 0.94793 0.85284 0.6302 0.0
H132 H 0.76926 0.94953 0.59733 0.0
H133 H 0.79747 0.98412 0.6418 0.0
H134 H 0.75973 0.89999 0.63654 0.0
H135 H 0.85092 0.82984 0.64159 0.0
H136 H 0.91171 0.88755 0.67064 0.0
C137 C 0.12624 1.003 0.53649 0.0
C138 C 0.04584 0.0862 0.51616 0.0
C139 C 0.98302 0.07481 0.74923 0.0
C140 C 0.92642 0.03569 0.76775 0.0
C141 C 0.87229 0.99301 0.74695 0.0
C142 C 0.87759 0.98622 0.70799 0.0
C143 C 0.93719 1.02295 0.68987 0.0
C144 C 0.98696 0.06804 0.71027 0.0
C145 C 0.04389 0.10535 0.68598 0.0
C146 C 1.02213 0.07292 0.64777 0.0
C147 C 0.96055 0.02413 0.65048 0.0
C148 C 0.12278 0.095 0.69871 0.0
C149 C 0.03187 0.17611 0.68845 0.0
C150 C 0.83721 0.84839 0.55925 0.0
C151 C 0.84181 0.83703 0.52037 0.0
C152 C 0.89198 0.87961 0.49996 0.0
C153 C 0.93865 0.93136 0.51848 0.0
C154 C 0.93374 0.94176 0.55741 0.0
C155 C 0.88188 0.90144 0.57686 0.0
C156 C 0.87664 0.9237 0.61705 0.0
C157 C 0.936 0.98297 0.61894 0.0
C158 C 0.97087 0.99286 0.58419 0.0
C159 C 0.89745 0.87091 0.64142 0.0
C160 C 0.79672 0.93988 0.62383 0.0
H161 H 0.15483 0.19649 0.64973 0.0
H162 H 0.21306 0.13605 0.51828 0.0
H163 H 0.98795 0.06158 0.51137 0.0
H164 H 0.07836 0.08502 0.48991 0.0
H165 H 0.04058 0.13698 0.52284 0.0
H166 H 0.16029 0.99082 0.56019 0.0
H167 H 0.16482 1.01591 0.51301 0.0
H168 H 0.08723 0.95921 0.52803 0.0
H169 H 1.02422 0.10886 0.76489 0.0
H170 H 0.82777 0.9633 0.76106 0.0
H171 H 0.83626 0.95143 0.6937 0.0
H172 H 0.1391 0.12169 0.72582 0.0
H173 H 0.16687 0.10955 0.67825 0.0
H174 H 0.12354 0.04353 0.70256 0.0
H175 H 0.97441 0.18114 0.69795 0.0
H176 H 0.03688 0.19753 0.66082 0.0
H177 H 0.07206 0.20542 0.70849 0.0
H178 H 0.25535 0.2607 0.618 0.0
C179 C 0.16605 0.18155 0.6215 0.0
C180 C 0.56149 0.37317 0.92329 0.0
C181 C 0.62782 0.34833 0.91563 0.0
C182 C 0.67122 0.36898 0.88477 0.0
C183 C 0.58796 0.44419 0.87232 0.0
C184 C 0.54325 0.42205 0.90162 0.0
C185 C 0.48841 0.46657 0.91204 0.0
H186 H 0.37806 0.75572 0.89099 0.0
C187 C 0.5638 0.50321 0.86047 0.0
C188 C 0.50689 0.51818 0.88437 0.0
H189 H 0.29844 0.6212 0.97354 0.0
H190 H 0.37308 0.54535 0.94537 0.0
H191 H 0.55413 0.73829 0.8884 0.0
H192 H 0.35506 0.66002 0.82662 0.0
H193 H 0.42687 0.64673 0.79566 0.0
H194 H 0.41663 0.72738 0.81072 0.0
H195 H 0.50174 0.78078 0.85853 0.0
H196 H 0.57415 0.73948 0.84 0.0
C197 C 0.5077 0.49294 0.95203 0.0
C198 C 0.40781 0.43054 0.90652 0.0
C199 C 0.64671 0.58609 0.73674 0.0
C200 C 0.61472 0.62783 0.71523 0.0
C201 C 0.57903 0.67529 0.73275 0.0
C202 C 0.56597 0.67507 0.77128 0.0
C203 C 0.58657 0.62558 0.79151 0.0
C204 C 0.62966 0.584 0.77469 0.0
C205 C 0.64032 0.53085 0.79913 0.0
C206 C 0.58883 0.54309 0.8312 0.0
C207 C 0.55905 0.59923 0.82704 0.0
C208 C 0.7238 0.54087 0.81177 0.0
C209 C 0.61308 0.46593 0.77744 0.0
C210 C 0.37818 0.71045 0.90351 0.0
C211 C 0.3341 0.69471 0.93481 0.0
C212 C 0.33329 0.63455 0.94973 0.0
C213 C 0.37721 0.59109 0.93368 0.0
C214 C 0.4236 0.60865 0.90307 0.0
C215 C 0.42203 0.66716 0.88819 0.0
C216 C 0.46842 0.67623 0.85364 0.0
C217 C 0.50408 0.61633 0.85213 0.0
C218 C 0.47747 0.57612 0.88076 0.0
C219 C 0.52772 0.73707 0.86018 0.0
C220 C 0.41451 0.67804 0.81987 0.0
H221 H 0.68859 0.43202 0.84084 0.0
H222 H 0.52867 0.35896 0.94762 0.0
H223 H 0.36592 0.46303 0.90655 0.0
H224 H 0.39338 0.39643 0.9287 0.0
H225 H 0.4019 0.40309 0.87901 0.0
H226 H 0.56959 0.50577 0.95532 0.0
H227 H 0.48795 0.45637 0.97227 0.0
H228 H 0.48565 0.53716 0.95925 0.0
H229 H 0.67441 0.54959 0.72315 0.0
H230 H 0.55494 0.70822 0.71617 0.0
H231 H 0.53546 0.71035 0.78315 0.0
H232 H 0.75286 0.59021 0.80764 0.0
H233 H 0.75536 0.50777 0.79577 0.0
H234 H 0.72993 0.53452 0.84214 0.0
H235 H 0.55872 0.46674 0.76298 0.0
H236 H 0.60313 0.42519 0.79553 0.0
H237 H 0.65431 0.45536 0.75596 0.0
H238 H 0.72235 0.35015 0.87851 0.0
C239 C 0.65176 0.41676 0.86315 0.0
C240 C 0.6572 0.7128 0.05116 0.0
C241 C 0.7128 0.756 0.07087 0.0
C242 C 0.72057 0.75136 0.10982 0.0
C243 C 0.62357 0.6581 0.10814 0.0
C244 C 0.61213 0.66544 0.07054 0.0
C245 C 0.55124 0.61496 0.05394 0.0
H246 H 0.3235 0.33138 0.07113 0.0
C247 C 0.57379 0.59962 0.1187 0.0
C248 C 0.52888 0.57543 0.08742 0.0
H249 H 0.3203 0.45735 -0.01894 0.0
H250 H 0.41581 0.53653 0.01403 0.0
H251 H 0.50398 0.3576 0.08945 0.0
H252 H 0.31077 0.43147 0.13028 0.0
H253 H 0.37193 0.44174 0.16895 0.0
H254 H 0.33838 0.36227 0.14904 0.0
H255 H 0.43143 0.31424 0.11657 0.0
H256 H 0.51152 0.36389 0.1386 0.0
C257 C 0.5867 0.57505 0.02397 0.0
C258 C 0.48634 0.64697 0.03917 0.0
C259 C 0.59592 0.51432 0.24728 0.0
C260 C 0.5533 0.46283 0.26447 0.0
C261 C 0.50497 0.41659 0.24285 0.0
C262 C 0.49516 0.42379 0.20474 0.0
C263 C 0.53278 0.47855 0.18849 0.0
C264 C 0.58354 0.52204 0.20939 0.0
C265 C 0.61465 0.57915 0.18788 0.0
C266 C 0.57158 0.56384 0.15117 0.0
C267 C 0.52465 0.5046 0.1518 0.0
C268 C 0.69963 0.57886 0.18306 0.0
C269 C 0.59508 0.64009 0.20879 0.0
C270 C 0.34494 0.37527 0.05795 0.0
C271 C 0.317 0.38771 0.02312 0.0
C272 C 0.34318 0.44653 0.00749 0.0
C273 C 0.3976 0.49219 0.02659 0.0
C274 C 0.42598 0.4784 0.06127 0.0
C275 C 0.39815 0.42117 0.07658 0.0
C276 C 0.42673 0.41724 0.11548 0.0
C277 C 0.4784 0.48071 0.12069 0.0
C278 C 0.47912 0.51627 0.08881 0.0
C279 C 0.47041 0.36013 0.1154 0.0
C280 C 0.35886 0.41252 0.14247 0.0
H281 H 0.68672 0.70055 0.15794 0.0
H282 H 0.6496 0.7155 0.02126 0.0
H283 H 0.43142 0.62595 0.05062 0.0
H284 H 0.48262 0.643 0.00809 0.0
H285 H 0.49338 0.69871 0.04768 0.0
H286 H 0.64234 0.56545 0.03338 0.0
H287 H 0.59477 0.59999 -0.00257 0.0
H288 H 0.55177 0.52788 0.01924 0.0
H289 H 0.63274 0.55072 0.26379 0.0
H290 H 0.4718 0.3768 0.25592 0.0
H291 H 0.45624 0.3877 0.18993 0.0
H292 H 0.71045 0.52993 0.17489 0.0
H293 H 0.73046 0.59466 0.2097 0.0
H294 H 0.72463 0.60905 0.16081 0.0
H295 H 0.54126 0.62954 0.22401 0.0
H296 H 0.58618 0.67727 0.18959 0.0
H297 H 0.63927 0.66046 0.22964 0.0
H298 H 0.7623 0.78471 0.12562 0.0
C299 C 0.67678 0.70243 0.12848 0.0
C300 C 0.20967 0.24135 0.96902 0.0
C301 C 0.14272 0.23268 -0.00973 0.0
C302 C 0.1825 0.33867 0.02142 0.0
C303 C 0.25467 0.3407 0.006 0.0
N304 N 0.34065 0.28954 0.96832 0.0
N305 N 0.07524 0.26995 0.0439 0.0
C306 C 0.26931 0.29106 -0.01962 0.0
C307 C 0.13083 0.2809 0.01804 0.0
N308 N 0.21588 0.20296 0.9377 0.0
N309 N 0.16423 0.3913 0.04057 0.0
H310 H 0.04004 0.22665 0.04598 0.0
H311 H 0.07012 0.3016 0.06668 0.0
H312 H 0.20152 0.43413 0.04404 0.0
H313 H 0.10994 0.39421 0.04948 0.0
H314 H 0.26127 0.2104 0.91965 0.0
H315 H 0.17183 0.16833 0.92758 0.0
H316 H 0.35583 0.25094 0.95264 0.0
H317 H 0.38566 0.32477 -0.02348 0.0
C318 C 0.18941 0.80544 0.93874 0.0
C319 C 0.22149 0.85191 0.96652 0.0
C320 C 0.31951 0.78796 -0.02075 0.0
C321 C 0.28851 0.7422 0.9507 0.0
N322 N 0.18551 0.69903 0.90941 0.0
N323 N 0.30601 0.88294 0.01827 0.0
C324 C 0.22028 0.74817 0.9326 0.0
C325 C 0.28293 0.84131 -0.01144 0.0
N326 N 0.13223 0.81802 0.91678 0.0
N327 N 0.38574 0.78185 -0.00391 0.0
H328 H 0.27983 0.92231 0.02513 0.0
H329 H 0.34659 0.87615 0.03765 0.0
H330 H 0.41244 0.74236 -0.00927 0.0
H331 H 0.41599 0.81677 0.01412 0.0
H332 H 0.11146 0.78982 0.89321 0.0
H333 H 0.10819 0.85924 0.92092 0.0
H334 H 0.13245 0.69762 0.89775 0.0
H335 H 0.20728 0.65681 0.90436 0.0
C336 C 0.8939 0.85973 0.04333 0.0
C337 C 0.86723 0.90376 0.02019 0.0
C338 C 0.73803 0.85188 0.03071 0.0
C339 C 0.76527 0.80461 0.05101 0.0
N340 N 0.8707 0.75336 0.066 0.0
N341 N 0.76504 0.92911 -0.01671 0.0
C342 C 0.84376 0.80521 0.05383 0.0
C343 C 0.78956 0.89581 0.01115 0.0
N344 N 0.96518 0.87164 0.0577 0.0
N345 N 0.66374 0.85725 0.03155 0.0
H346 H 0.8015 0.95931 0.96707 0.0
H347 H 0.7098 0.92103 0.97351 0.0
H348 H 0.62439 0.82789 0.04674 0.0
H349 H 0.64265 0.89498 0.02022 0.0
H350 H 0.98406 0.84366 0.07758 0.0
H351 H 1.00276 0.91302 0.05335 0.0
H352 H 0.92744 0.74946 0.06537 0.0
H353 H 0.83578 0.71155 0.07266 0.0
C354 C 0.68964 0.20167 0.95498 0.0
C355 C 0.73957 0.23129 -0.01638 0.0
C356 C 0.70147 0.33464 0.97339 0.0
C357 C 0.65794 0.30638 0.94184 0.0
N358 N 0.61051 0.21404 0.90172 0.0
N359 N 0.79775 0.32489 0.01933 0.0
C360 C 0.65149 0.23994 0.93257 0.0
C361 C 0.746 0.29743 -0.00704 0.0
N362 N 0.67839 0.13669 0.94981 0.0
N363 N 0.70052 0.39712 -0.01558 0.0
H364 H 0.83051 0.29841 0.03418 0.0
H365 H 0.81185 0.37389 0.02493 0.0
H366 H 0.67108 0.42667 0.96999 0.0
H367 H 0.72453 0.4188 0.00931 0.0
H368 H 0.6382 0.11079 0.93169 0.0
H369 H 0.70612 0.10803 0.96589 0.0
H370 H 0.61002 0.16765 0.89073 0.0
H371 H 0.57887 0.24017 0.88595 0.0
C372 C 0.6632 0.72208 0.50649 0.0
C373 C 0.68674 0.66878 0.48664 0.0
C374 C 0.81413 0.72956 0.48396 0.0
C375 C 0.78876 0.78327 0.50191 0.0
N376 N 0.68396 0.83689 0.51661 0.0
N377 N 0.7792 0.6309 0.44631 0.0
C378 C 0.71126 0.78164 0.50807 0.0
C379 C 0.76056 0.67546 0.47201 0.0
N380 N 0.59907 0.71556 0.52713 0.0
N381 N 0.88903 0.72845 0.48 0.0
H382 H 0.7403 0.59255 0.43553 0.0
H383 H 0.8305 0.63619 0.43261 0.0
H384 H 0.93015 0.76664 0.48863 0.0
H385 H 0.9103 0.68764 0.47077 0.0
H386 H 0.58451 0.75264 0.54442 0.0
H387 H 0.56551 0.67218 0.53145 0.0
H388 H 0.62675 0.83861 0.5185 0.0
H389 H 0.71812 0.88151 0.51759 0.0
C390 C 0.77367 0.27238 0.4399 0.0
C391 C 0.77755 0.29567 0.47785 0.0
C392 C 0.84693 0.21064 0.4941 0.0
C393 C 0.8434 0.18746 0.45599 0.0
N394 N 0.78184 0.18296 0.39591 0.0
N395 N 0.79735 0.27667 0.54237 0.0
C396 C 0.79906 0.21388 0.43006 0.0
C397 C 0.80768 0.26132 0.50539 0.0
N398 N 0.7506 0.30812 0.41289 0.0
N399 N 0.89039 0.1866 0.51918 0.0
H400 H 0.76712 0.31258 0.55117 0.0
H401 H 0.81194 0.24992 0.56397 0.0
H402 H 0.91686 0.1477 0.51249 0.0
H403 H 0.90299 0.20715 0.54601 0.0
H404 H 0.75381 0.29647 0.38433 0.0
H405 H 0.7348 0.3526 0.41877 0.0
H406 H 0.74463 0.19697 0.37696 0.0
H407 H 0.79875 0.13936 0.38833 0.0
C408 C 0.42979 0.30664 0.55102 0.0
C409 C 0.41427 0.33971 0.51915 0.0
C410 C 0.28614 0.28035 0.51629 0.0
C411 C 0.30299 0.24494 0.54687 0.0
N412 N 0.39691 0.21182 0.58591 0.0
N413 N 0.33541 0.34439 0.46523 0.0
C414 C 0.37698 0.25392 0.56171 0.0
C415 C 0.34485 0.32205 0.49975 0.0
N416 N 0.49197 0.3279 0.57278 0.0
N417 N 0.21372 0.27726 0.50433 0.0
H418 H 0.37817 0.37342 0.45179 0.0
H419 H 0.28837 0.32849 0.44835 0.0
H420 H 0.16842 0.24894 0.51626 0.0
H421 H 0.19779 0.30733 0.48482 0.0
H422 H 0.50098 0.30953 0.59852 0.0
H423 H 0.53105 0.36778 0.56724 0.0
H424 H 0.45197 0.21267 0.59486 0.0
H425 H 0.35981 0.17208 0.59385 0.0
C426 C 0.32441 0.73871 0.46571 0.0
C427 C 0.30367 0.67286 0.45609 0.0
C428 C 0.21733 0.69585 0.4076 0.0
C429 C 0.23585 0.76183 0.41824 0.0
N430 N 0.29978 0.84664 0.4598 0.0
N431 N 0.22691 0.58664 0.42153 0.0
C432 C 0.28731 0.78345 0.44807 0.0
C433 C 0.24899 0.65083 0.42801 0.0
N434 N 0.38113 0.7581 0.49113 0.0
N435 N 0.17068 0.67667 0.37756 0.0
H436 H 0.25108 0.55304 0.43552 0.0
H437 H 0.18237 0.56642 0.40406 0.0
H438 H 0.14442 0.70826 0.36296 0.0
H439 H 0.16055 0.63024 0.36581 0.0
H440 H 0.40513 0.80547 0.49685 0.0
H441 H 0.4078 0.72597 0.50507 0.0
H442 H 0.33027 0.86463 0.4838 0.0
H443 H 0.27567 0.88126 0.44679 0.0
C444 C 1.02536 0.06276 0.13076 0.0
C445 C 0.07097 0.09062 0.10196 0.0
C446 C 0.16519 0.1427 0.14794 0.0
C447 C 0.12219 0.11114 0.17638 0.0
N448 N 1.01376 0.03895 0.19616 0.0
N449 N 0.18543 0.15373 0.08146 0.0
C450 C 0.05269 0.07076 0.16817 0.0
C451 C 0.14129 0.12973 0.11006 0.0
N452 N 0.9557 0.02908 0.12227 0.0
N453 N 0.22791 0.18586 0.15739 0.0
H454 H 0.1685 0.14769 0.05349 0.0
H455 H 0.24041 0.1769 0.08492 0.0
H456 H 0.24773 0.19492 0.18489 0.0
H457 H 0.25785 0.21577 0.13867 0.0
H458 H 0.91575 1.0141 0.14216 0.0
H459 H 0.93557 1.0186 0.09492 0.0
H460 H 0.96838 1.00252 0.19155 0.0
H461 H 1.02867 0.04655 0.22441 0.0
C462 C 0.93627 0.10181 0.86801 0.0
C463 C 0.94719 0.04724 0.88719 0.0
C464 C 0.94355 0.98432 0.82791 0.0
C465 C 0.92683 0.03747 0.80907 0.0
N466 N 0.88849 0.14113 0.81207 0.0
N467 N 0.94048 0.93285 0.88664 0.0
C468 C 0.91682 0.0944 0.82948 0.0
C469 C 0.94424 0.98722 0.86753 0.0
N470 N 0.9494 0.16123 0.88569 0.0
N471 N 0.96279 0.93253 0.80822 0.0
H472 H 0.93832 0.93289 0.9158 0.0
H473 H 0.93134 0.88727 0.8735 0.0
H474 H 0.96534 0.92889 0.77908 0.0
H475 H 0.9832 0.89577 0.82097 0.0
H476 H 0.94934 0.20299 0.87175 0.0
H477 H 0.96814 0.16962 0.91335 0.0
H478 H 0.8735 0.18104 0.8265 0.0
H479 H 0.87296 0.13679 0.78381 0.0
C480 C 0.6447 0.60142 0.6116 0.0
C481 C 0.58068 0.55488 0.60222 0.0
C482 C 0.53629 0.56064 0.66645 0.0
C483 C 0.5992 0.60849 0.67556 0.0
N484 N 0.7061 0.68222 0.65713 0.0
N485 N 0.46117 0.49506 0.61834 0.0
C486 C 0.65132 0.63133 0.64815 0.0
C487 C 0.52499 0.53612 0.62894 0.0
N488 N 0.69948 0.61631 0.58573 0.0
N489 N 0.48898 0.53697 0.69404 0.0
H490 H 0.45332 0.47203 0.59178 0.0
H491 H 0.41408 0.48604 0.63511 0.0
H492 H 0.49211 0.55594 0.7216 0.0
H493 H 0.44867 0.49626 0.69032 0.0
H494 H 0.75077 0.64504 0.59174 0.0
H495 H 0.69606 0.59662 0.55841 0.0
H496 H 0.74169 0.70572 0.6377 0.0
H497 H 0.71223 0.70446 0.68395 0.0
C498 C 0.53056 0.52295 0.36388 0.0
C499 C 0.5426 0.46991 0.38415 0.0
C500 C 0.57084 0.4139 0.32569 0.0
C501 C 0.5489 0.46366 0.30561 0.0
N502 N 0.48535 0.55566 0.30594 0.0
N503 N 0.55971 0.35935 0.38359 0.0
C504 C 0.52154 0.51508 0.32478 0.0
C505 C 0.55871 0.41357 0.36489 0.0
N506 N 0.53276 0.58204 0.3813 0.0
N507 N 0.60485 0.36816 0.30763 0.0
H508 H 0.54759 0.3564 0.41201 0.0
H509 H 0.5649 0.31559 0.37014 0.0
H510 H 0.61533 0.36752 0.27894 0.0
H511 H 0.62856 0.33447 0.32166 0.0
H512 H 0.53025 0.62275 0.36666 0.0
H513 H 0.54718 0.59212 0.40941 0.0
H514 H 0.45904 0.59043 0.31966 0.0
H515 H 0.47413 0.55001 0.27723 0.0
loop_
_geom_bond_atom_site_label_1
_geom_bond_atom_site_label_2
_geom_bond_distance
_geom_bond_site_symmetry_2
_ccdc_geom_bond_type
Co0 N5 2.057 . S
Co0 O17 2.021 . S
Co0 O20 2.062 1_455 S
Co0 O24 2.117 1_554 S
Co0 O25 2.020 1_565 S
C1 O21 1.259 1_455 S
C1 O24 1.258 1_545 S
Co2 N11 2.057 . S
Co2 O18 2.117 . S
Co2 O19 2.020 1_545 S
Co2 O21 2.021 1_554 S
Co2 O26 2.062 1_655 S
C3 N5 1.316 . S
C3 N6 1.347 . S
C3 H8 0.931 . S
C4 N5 1.375 1_556 S
C4 C7 1.350 . S
C4 H9 0.930 . S
N5 Co0 2.057 . S
N5 C3 1.316 . S
N5 C4 1.375 1_554 S
N6 C3 1.347 . S
N6 C7 1.373 1_554 S
C7 C4 1.350 . S
C7 N6 1.373 1_556 S
C7 H28 0.931 . S
H8 C3 0.931 . S
H9 C4 0.930 . S
C10 O17 1.259 1_545 S
C10 O18 1.258 1_455 S
N11 Co2 2.057 . S
N11 C12 1.316 . S
N11 C13 1.375 . S
C12 N11 1.316 . S
C12 N14 1.347 . S
C12 H23 0.931 1_554 S
C13 N11 1.375 . S
C13 C15 1.350 . S
C13 H22 0.930 . S
N14 C12 1.347 . S
N14 C15 1.373 . S
C15 C13 1.350 . S
C15 N14 1.373 . S
C15 H29 0.931 . S
C16 O19 1.256 . S
C16 O20 1.255 . S
O17 Co0 2.021 . S
O17 C10 1.259 1_565 S
O18 Co2 2.117 . S
O18 C10 1.258 1_655 S
O19 Co2 2.020 1_565 S
O19 C16 1.256 . S
O20 Co0 2.062 1_655 S
O20 C16 1.255 . S
O21 C1 1.259 1_655 S
O21 Co2 2.021 1_556 S
H22 C13 0.930 . S
H23 C12 0.931 1_556 S
O24 Co0 2.117 1_556 S
O24 C1 1.258 1_565 S
O25 Co0 2.020 1_545 S
O25 C27 1.256 . S
O26 Co2 2.062 1_455 S
O26 C27 1.255 . S
C27 O25 1.256 . S
C27 O26 1.255 . S
H28 C7 0.931 . S
H29 C15 0.931 . S
Co30 N35 2.057 . S
Co30 O47 2.021 . S
Co30 O50 2.062 . S
Co30 O54 2.117 . S
Co30 O55 2.020 . S
C31 O51 1.259 . S
C31 O54 1.258 . S
Co32 N41 2.057 . S
Co32 O48 2.117 . S
Co32 O49 2.020 . S
Co32 O51 2.021 . S
Co32 O56 2.062 . S
C33 N35 1.316 . S
C33 N36 1.347 . S
C33 H38 0.931 . S
C34 N35 1.375 . S
C34 C37 1.350 . S
C34 H39 0.930 . S
N35 Co30 2.057 . S
N35 C33 1.316 . S
N35 C34 1.375 . S
N36 C33 1.347 . S
N36 C37 1.373 . S
C37 C34 1.350 . S
C37 N36 1.373 . S
C37 H58 0.931 . S
H38 C33 0.931 . S
H39 C34 0.930 . S
C40 O47 1.259 . S
C40 O48 1.258 . S
N41 Co32 2.057 . S
N41 C42 1.316 . S
N41 C43 1.375 . S
C42 N41 1.316 . S
C42 N44 1.347 . S
C42 H53 0.931 . S
C43 N41 1.375 . S
C43 C45 1.350 . S
C43 H52 0.930 . S
N44 C42 1.347 . S
N44 C45 1.373 . S
C45 C43 1.350 . S
C45 N44 1.373 . S
C45 H59 0.931 . S
C46 O49 1.256 . S
C46 O50 1.255 . S
O47 Co30 2.021 . S
O47 C40 1.259 . S
O48 Co32 2.117 . S
O48 C40 1.258 . S
O49 Co32 2.020 . S
O49 C46 1.256 . S
O50 Co30 2.062 . S
O50 C46 1.255 . S
O51 C31 1.259 . S
O51 Co32 2.021 . S
H52 C43 0.930 . S
H53 C42 0.931 . S
O54 Co30 2.117 . S
O54 C31 1.258 . S
O55 Co30 2.020 . S
O55 C57 1.256 . S
O56 Co32 2.062 . S
O56 C57 1.255 . S
C57 O55 1.256 . S
C57 O56 1.255 . S
H58 C37 0.931 . S
H59 C45 0.931 . S
C60 C61 1.391 . S
C60 C64 1.391 . S
C60 H102 0.948 . S
C61 C60 1.391 . S
C61 C62 1.391 . S
C62 C61 1.391 . S
C62 H118 0.947 . S
C62 C119 1.392 . S
C63 C64 1.391 . S
C63 C67 1.397 . S
C63 C119 1.419 . S
C64 C60 1.391 . S
C64 C63 1.391 . S
C64 C65 1.399 . S
C65 C64 1.399 . S
C65 C68 1.396 . S
C65 C77 1.453 1_565 S
C65 C78 1.684 1_455 S
H66 C90 0.948 . S
C67 C63 1.397 . S
C67 C68 1.394 . S
C67 C86 1.723 . S
C68 C65 1.396 . S
C68 C67 1.394 . S
C68 C98 1.723 1_465 S
H69 C92 0.947 . S
H70 C93 0.948 . S
H71 C99 0.982 . S
H72 C100 0.979 . S
H73 C100 0.980 . S
H74 C100 0.983 . S
H75 C99 0.979 . S
H76 C99 0.977 . S
C77 C65 1.453 1_545 S
C77 H106 0.982 . S
C77 H107 0.979 1_545 S
C77 H108 0.977 . S
C78 C65 1.684 1_655 S
C78 H103 0.979 . S
C78 H104 0.980 . S
C78 H105 0.983 . S
C79 C80 1.391 1_465 S
C79 C84 1.391 . S
C79 H109 0.948 . S
C80 C79 1.391 1_645 S
C80 C81 1.391 . S
C81 C80 1.391 . S
C81 C82 1.392 . S
C81 H110 0.947 . S
C82 C81 1.392 . S
C82 C83 1.419 . S
C82 H111 0.948 . S
C83 C82 1.419 . S
C83 C84 1.391 1_645 S
C83 C87 1.397 . S
C84 C79 1.391 . S
C84 C83 1.391 1_465 S
C84 C85 1.399 . S
C85 C84 1.399 . S
C85 C86 1.396 . S
C85 C88 1.453 . S
C85 C89 1.684 . S
C86 C67 1.723 . S
C86 C85 1.396 . S
C86 C87 1.394 1_465 S
C87 C83 1.397 . S
C87 C86 1.394 1_645 S
C87 C97 1.723 . S
C88 C85 1.453 . S
C88 H112 0.982 . S
C88 H113 0.979 . S
C88 H114 0.977 . S
C89 C85 1.684 . S
C89 H115 0.979 1_455 S
C89 H116 0.980 . S
C89 H117 0.983 . S
C90 H66 0.948 . S
C90 C91 1.391 . S
C90 C95 1.391 . S
C91 C90 1.391 . S
C91 C92 1.391 . S
C92 H69 0.947 . S
C92 C91 1.391 . S
C92 C93 1.392 . S
C93 H70 0.948 . S
C93 C92 1.392 . S
C93 C94 1.419 . S
C94 C93 1.419 . S
C94 C95 1.391 . S
C94 C98 1.397 . S
C95 C90 1.391 . S
C95 C94 1.391 . S
C95 C96 1.399 . S
C96 C95 1.399 . S
C96 C97 1.396 . S
C96 C99 1.453 . S
C96 C100 1.684 . S
C97 C87 1.723 . S
C97 C96 1.396 . S
C97 C98 1.394 . S
C98 C68 1.723 1_645 S
C98 C94 1.397 . S
C98 C97 1.394 . S
C99 H71 0.982 . S
C99 H75 0.979 . S
C99 H76 0.977 . S
C99 C96 1.453 . S
C100 H72 0.979 . S
C100 H73 0.980 . S
C100 H74 0.983 . S
C100 C96 1.684 . S
H101 C119 0.948 . S
H102 C60 0.948 . S
H103 C78 0.979 . S
H104 C78 0.980 . S
H105 C78 0.983 . S
H106 C77 0.982 . S
H107 C77 0.979 1_565 S
H108 C77 0.977 . S
H109 C79 0.948 . S
H110 C81 0.947 . S
H111 C82 0.948 . S
H112 C88 0.982 . S
H113 C88 0.979 . S
H114 C88 0.977 . S
H115 C89 0.979 1_655 S
H116 C89 0.980 . S
H117 C89 0.983 . S
H118 C62 0.947 . S
C119 C62 1.392 . S
C119 C63 1.419 . S
C119 H101 0.948 . S
C120 C121 1.391 . S
C120 C124 1.391 . S
C120 H162 0.948 . S
C121 C120 1.391 . S
C121 C122 1.391 . S
C122 C121 1.391 . S
C122 H178 0.947 . S
C122 C179 1.392 . S
C123 C124 1.391 . S
C123 C127 1.397 . S
C123 C179 1.419 . S
C124 C120 1.391 . S
C124 C123 1.391 . S
C124 C125 1.399 . S
C125 C124 1.399 . S
C125 C128 1.396 . S
C125 C137 1.453 . S
C125 C138 1.684 1_455 S
H126 C150 0.948 . S
C127 C123 1.397 . S
C127 C128 1.394 . S
C127 C146 1.723 . S
C128 C125 1.396 . S
C128 C127 1.394 . S
C128 C158 1.723 1_445 S
H129 C152 0.947 . S
H130 C153 0.948 . S
H131 C159 0.982 . S
H132 C160 0.979 . S
H133 C160 0.980 . S
H134 C160 0.983 . S
H135 C159 0.979 . S
H136 C159 0.977 . S
C137 C125 1.453 . S
C137 H166 0.982 . S
C137 H167 0.979 . S
C137 H168 0.977 1_545 S
C138 C125 1.684 1_655 S
C138 H163 0.979 . S
C138 H164 0.980 . S
C138 H165 0.983 1_655 S
C139 C140 1.391 1_455 S
C139 C144 1.391 . S
C139 H169 0.948 . S
C140 C139 1.391 1_655 S
C140 C141 1.391 1_545 S
C141 C140 1.391 1_565 S
C141 C142 1.392 . S
C141 H170 0.947 . S
C142 C141 1.392 . S
C142 C143 1.419 1_565 S
C142 H171 0.948 . S
C143 C142 1.419 1_545 S
C143 C144 1.391 1_655 S
C143 C147 1.397 . S
C144 C139 1.391 . S
C144 C143 1.391 1_455 S
C144 C145 1.399 . S
C145 C144 1.399 . S
C145 C146 1.396 . S
C145 C148 1.453 . S
C145 C149 1.684 . S
C146 C127 1.723 . S
C146 C145 1.396 . S
C146 C147 1.394 1_455 S
C147 C143 1.397 . S
C147 C146 1.394 1_655 S
C147 C157 1.723 1_545 S
C148 C145 1.453 . S
C148 H172 0.982 . S
C148 H173 0.979 . S
C148 H174 0.977 . S
C149 C145 1.684 . S
C149 H175 0.979 . S
C149 H176 0.980 . S
C149 H177 0.983 . S
C150 H126 0.948 . S
C150 C151 1.391 . S
C150 C155 1.391 . S
C151 C150 1.391 . S
C151 C152 1.391 . S
C152 H129 0.947 . S
C152 C151 1.391 . S
C152 C153 1.392 . S
C153 H130 0.948 . S
C153 C152 1.392 . S
C153 C154 1.419 . S
C154 C153 1.419 . S
C154 C155 1.391 . S
C154 C158 1.397 . S
C155 C150 1.391 . S
C155 C154 1.391 . S
C155 C156 1.399 . S
C156 C155 1.399 . S
C156 C157 1.396 . S
C156 C159 1.453 . S
C156 C160 1.684 . S
C157 C147 1.723 1_565 S
C157 C156 1.396 . S
C157 C158 1.394 . S
C158 C128 1.723 1_665 S
C158 C154 1.397 . S
C158 C157 1.394 . S
C159 H131 0.982 . S
C159 H135 0.979 . S
C159 H136 0.977 . S
C159 C156 1.453 . S
C160 H132 0.979 . S
C160 H133 0.980 . S
C160 H134 0.983 . S
C160 C156 1.684 . S
H161 C179 0.948 . S
H162 C120 0.948 . S
H163 C138 0.979 . S
H164 C138 0.980 . S
H165 C138 0.983 1_455 S
H166 C137 0.982 . S
H167 C137 0.979 . S
H168 C137 0.977 1_565 S
H169 C139 0.948 . S
H170 C141 0.947 . S
H171 C142 0.948 . S
H172 C148 0.982 . S
H173 C148 0.979 . S
H174 C148 0.977 . S
H175 C149 0.979 . S
H176 C149 0.980 . S
H177 C149 0.983 . S
H178 C122 0.947 . S
C179 C122 1.392 . S
C179 C123 1.419 . S
C179 H161 0.948 . S
C180 C181 1.391 1_554 S
C180 C184 1.391 1_554 S
C180 H222 0.948 . S
C181 C180 1.391 1_556 S
C181 C182 1.391 . S
C182 C181 1.391 . S
C182 H238 0.947 . S
C182 C239 1.392 . S
C183 C184 1.391 . S
C183 C187 1.397 . S
C183 C239 1.419 . S
C184 C180 1.391 1_556 S
C184 C183 1.391 . S
C184 C185 1.394 1_556 S
C185 C184 1.394 1_554 S
C185 C188 1.376 1_554 S
C185 C197 1.468 . S
C185 C198 1.702 . S
H186 C210 0.948 . S
C187 C183 1.397 . S
C187 C188 1.394 . S
C187 C206 1.723 . S
C188 C185 1.376 1_556 S
C188 C187 1.394 . S
C188 C218 1.723 . S
H189 C212 0.947 . S
H190 C213 0.948 . S
H191 C219 0.982 . S
H192 C220 0.979 . S
H193 C220 0.980 . S
H194 C220 0.983 . S
H195 C219 0.979 . S
H196 C219 0.977 . S
C197 C185 1.468 . S
C197 H226 0.982 . S
C197 H227 0.979 . S
C197 H228 0.977 . S
C198 C185 1.702 . S
C198 H223 0.979 . S
C198 H224 0.980 . S
C198 H225 0.983 . S
C199 C200 1.391 . S
C199 C204 1.391 . S
C199 H229 0.948 . S
C200 C199 1.391 . S
C200 C201 1.391 . S
C201 C200 1.391 . S
C201 C202 1.392 . S
C201 H230 0.947 . S
C202 C201 1.392 . S
C202 C203 1.419 . S
C202 H231 0.948 . S
C203 C202 1.419 . S
C203 C204 1.391 . S
C203 C207 1.397 . S
C204 C199 1.391 . S
C204 C203 1.391 . S
C204 C205 1.399 . S
C205 C204 1.399 . S
C205 C206 1.396 . S
C205 C208 1.453 . S
C205 C209 1.684 . S
C206 C187 1.723 . S
C206 C205 1.396 . S
C206 C207 1.394 . S
C207 C203 1.397 . S
C207 C206 1.394 . S
C207 C217 1.723 . S
C208 C205 1.453 . S
C208 H232 0.982 . S
C208 H233 0.979 . S
C208 H234 0.977 . S
C209 C205 1.684 . S
C209 H235 0.979 . S
C209 H236 0.980 . S
C209 H237 0.983 . S
C210 H186 0.948 . S
C210 C211 1.391 1_556 S
C210 C215 1.391 . S
C211 C210 1.391 1_554 S
C211 C212 1.391 . S
C212 H189 0.947 . S
C212 C211 1.391 . S
C212 C213 1.392 . S
C213 H190 0.948 . S
C213 C212 1.392 . S
C213 C214 1.419 1_554 S
C214 C213 1.419 1_556 S
C214 C215 1.391 . S
C214 C218 1.397 . S
C215 C210 1.391 . S
C215 C214 1.391 . S
C215 C216 1.399 . S
C216 C215 1.399 . S
C216 C217 1.396 . S
C216 C219 1.453 . S
C216 C220 1.684 . S
C217 C207 1.723 . S
C217 C216 1.396 . S
C217 C218 1.394 . S
C218 C188 1.723 . S
C218 C214 1.397 . S
C218 C217 1.394 . S
C219 H191 0.982 . S
C219 H195 0.979 . S
C219 H196 0.977 . S
C219 C216 1.453 . S
C220 H192 0.979 . S
C220 H193 0.980 . S
C220 H194 0.983 . S
C220 C216 1.684 . S
H221 C239 0.948 . S
H222 C180 0.948 . S
H223 C198 0.979 . S
H224 C198 0.980 . S
H225 C198 0.983 . S
H226 C197 0.982 . S
H227 C197 0.979 . S
H228 C197 0.977 . S
H229 C199 0.948 . S
H230 C201 0.947 . S
H231 C202 0.948 . S
H232 C208 0.982 . S
H233 C208 0.979 . S
H234 C208 0.977 . S
H235 C209 0.979 . S
H236 C209 0.980 . S
H237 C209 0.983 . S
H238 C182 0.947 . S
C239 C182 1.392 . S
C239 C183 1.419 . S
C239 H221 0.948 . S
C240 C241 1.391 . S
C240 C244 1.391 . S
C240 H282 0.948 1_554 S
C241 C240 1.391 . S
C241 C242 1.391 . S
C242 C241 1.391 . S
C242 H298 0.947 . S
C242 C299 1.392 . S
C243 C244 1.391 . S
C243 C247 1.397 . S
C243 C299 1.419 . S
C244 C240 1.391 . S
C244 C243 1.391 . S
C244 C245 1.399 . S
C245 C244 1.399 . S
C245 C248 1.396 . S
C245 C257 1.453 1_554 S
C245 C258 1.684 1_554 S
H246 C270 0.948 . S
C247 C243 1.397 . S
C247 C248 1.394 . S
C247 C266 1.723 . S
C248 C245 1.396 . S
C248 C247 1.394 . S
C248 C278 1.723 . S
H249 C272 0.947 . S
H250 C273 0.948 1_556 S
H251 C279 0.982 . S
H252 C280 0.979 . S
H253 C280 0.980 . S
H254 C280 0.983 . S
H255 C279 0.979 . S
H256 C279 0.977 . S
C257 C245 1.453 1_556 S
C257 H286 0.982 1_556 S
C257 H287 0.979 . S
C257 H288 0.977 . S
C258 C245 1.684 1_556 S
C258 H283 0.979 . S
C258 H284 0.980 . S
C258 H285 0.983 . S
C259 C260 1.391 . S
C259 C264 1.391 . S
C259 H289 0.948 . S
C260 C259 1.391 . S
C260 C261 1.391 . S
C261 C260 1.391 . S
C261 C262 1.392 . S
C261 H290 0.947 . S
C262 C261 1.392 . S
C262 C263 1.419 . S
C262 H291 0.948 . S
C263 C262 1.419 . S
C263 C264 1.391 . S
C263 C267 1.397 . S
C264 C259 1.391 . S
C264 C263 1.391 . S
C264 C265 1.399 . S
C265 C264 1.399 . S
C265 C266 1.396 . S
C265 C268 1.453 . S
C265 C269 1.684 . S
C266 C247 1.723 . S
C266 C265 1.396 . S
C266 C267 1.394 . S
C267 C263 1.397 . S
C267 C266 1.394 . S
C267 C277 1.723 . S
C268 C265 1.453 . S
C268 H292 0.982 . S
C268 H293 0.979 . S
C268 H294 0.977 . S
C269 C265 1.684 . S
C269 H295 0.979 . S
C269 H296 0.980 . S
C269 H297 0.983 . S
C270 H246 0.948 . S
C270 C271 1.391 . S
C270 C275 1.391 . S
C271 C270 1.391 . S
C271 C272 1.391 1_554 S
C272 H249 0.947 . S
C272 C271 1.391 1_556 S
C272 C273 1.392 1_556 S
C273 H250 0.948 1_554 S
C273 C272 1.392 1_554 S
C273 C274 1.419 . S
C274 C273 1.419 . S
C274 C275 1.391 . S
C274 C278 1.397 . S
C275 C270 1.391 . S
C275 C274 1.391 . S
C275 C276 1.399 . S
C276 C275 1.399 . S
C276 C277 1.396 . S
C276 C279 1.453 . S
C276 C280 1.684 . S
C277 C267 1.723 . S
C277 C276 1.396 . S
C277 C278 1.394 . S
C278 C248 1.723 . S
C278 C274 1.397 . S
C278 C277 1.394 . S
C279 H251 0.982 . S
C279 H255 0.979 . S
C279 H256 0.977 . S
C279 C276 1.453 . S
C280 H252 0.979 . S
C280 H253 0.980 . S
C280 H254 0.983 . S
C280 C276 1.684 . S
H281 C299 0.948 . S
H282 C240 0.948 1_556 S
H283 C258 0.979 . S
H284 C258 0.980 . S
H285 C258 0.983 . S
H286 C257 0.982 1_554 S
H287 C257 0.979 . S
H288 C257 0.977 . S
H289 C259 0.948 . S
H290 C261 0.947 . S
H291 C262 0.948 . S
H292 C268 0.982 . S
H293 C268 0.979 . S
H294 C268 0.977 . S
H295 C269 0.979 . S
H296 C269 0.980 . S
H297 C269 0.983 . S
H298 C242 0.947 . S
C299 C242 1.392 . S
C299 C243 1.419 . S
C299 H281 0.948 . S
C300 C301 1.363 1_556 S
C300 C306 1.379 . S
C300 N308 1.356 . S
C301 C300 1.363 1_554 S
C301 C307 1.363 . S
C302 C303 1.363 . S
C302 C307 1.379 . S
C302 N309 1.356 . S
C303 C302 1.363 . S
C303 C306 1.363 1_554 S
N304 C306 1.356 . S
N304 H316 0.984 . S
N304 H317 0.985 . S
N305 C307 1.356 . S
N305 H310 0.984 . S
N305 H311 0.985 . S
C306 C300 1.379 . S
C306 C303 1.363 1_556 S
C306 N304 1.356 . S
C307 C301 1.363 . S
C307 C302 1.379 . S
C307 N305 1.356 . S
N308 C300 1.356 . S
N308 H314 0.984 . S
N308 H315 0.984 . S
N309 C302 1.356 . S
N309 H312 0.984 . S
N309 H313 0.985 . S
H310 N305 0.984 . S
H311 N305 0.985 . S
H312 N309 0.984 . S
H313 N309 0.985 . S
H314 N308 0.984 . S
H315 N308 0.984 . S
H316 N304 0.984 . S
H317 N304 0.985 . S
C318 C319 1.363 . S
C318 C324 1.379 . S
C318 N326 1.356 . S
C319 C318 1.363 . S
C319 C325 1.363 1_554 S
C320 C321 1.363 1_556 S
C320 C325 1.379 . S
C320 N327 1.356 . S
C321 C320 1.363 1_554 S
C321 C324 1.363 . S
N322 C324 1.356 . S
N322 H334 0.984 . S
N322 H335 0.985 . S
N323 C325 1.356 . S
N323 H328 0.984 . S
N323 H329 0.985 . S
C324 C318 1.379 . S
C324 C321 1.363 . S
C324 N322 1.356 . S
C325 C319 1.363 1_556 S
C325 C320 1.379 . S
C325 N323 1.356 . S
N326 C318 1.356 . S
N326 H332 0.984 . S
N326 H333 0.984 . S
N327 C320 1.356 . S
N327 H330 0.984 . S
N327 H331 0.985 . S
H328 N323 0.984 . S
H329 N323 0.985 . S
H330 N327 0.984 . S
H331 N327 0.985 . S
H332 N326 0.984 . S
H333 N326 0.984 . S
H334 N322 0.984 . S
H335 N322 0.985 . S
C336 C337 1.363 . S
C336 C342 1.379 . S
C336 N344 1.356 . S
C337 C336 1.363 . S
C337 C343 1.363 1_554 S
C338 C339 1.363 1_556 S
C338 C343 1.379 . S
C338 N345 1.356 . S
C339 C338 1.363 1_554 S
C339 C342 1.363 . S
N340 C342 1.356 . S
N340 H352 0.984 . S
N340 H353 0.985 . S
N341 C343 1.356 . S
N341 H346 0.984 . S
N341 H347 0.985 . S
C342 C336 1.379 . S
C342 C339 1.363 . S
C342 N340 1.356 . S
C343 C337 1.363 1_556 S
C343 C338 1.379 . S
C343 N341 1.356 . S
N344 C336 1.356 . S
N344 H350 0.984 . S
N344 H351 0.984 . S
N345 C338 1.356 . S
N345 H348 0.984 . S
N345 H349 0.985 . S
H346 N341 0.984 . S
H347 N341 0.985 . S
H348 N345 0.984 . S
H349 N345 0.985 . S
H350 N344 0.984 . S
H351 N344 0.984 . S
H352 N340 0.984 . S
H353 N340 0.985 . S
C354 C355 1.363 . S
C354 C360 1.379 . S
C354 N362 1.356 . S
C355 C354 1.363 . S
C355 C361 1.363 1_554 S
C356 C357 1.363 1_556 S
C356 C361 1.379 . S
C356 N363 1.356 . S
C357 C356 1.363 1_554 S
C357 C360 1.363 . S
N358 C360 1.356 . S
N358 H370 0.984 . S
N358 H371 0.985 . S
N359 C361 1.356 . S
N359 H364 0.984 . S
N359 H365 0.985 . S
C360 C354 1.379 . S
C360 C357 1.363 . S
C360 N358 1.356 . S
C361 C355 1.363 1_556 S
C361 C356 1.379 . S
C361 N359 1.356 . S
N362 C354 1.356 . S
N362 H368 0.984 . S
N362 H369 0.984 . S
N363 C356 1.356 . S
N363 H366 0.984 . S
N363 H367 0.985 . S
H364 N359 0.984 . S
H365 N359 0.985 . S
H366 N363 0.984 . S
H367 N363 0.985 . S
H368 N362 0.984 . S
H369 N362 0.984 . S
H370 N358 0.984 . S
H371 N358 0.985 . S
C372 C373 1.363 . S
C372 C378 1.379 . S
C372 N380 1.356 . S
C373 C372 1.363 . S
C373 C379 1.363 . S
C374 C375 1.363 . S
C374 C379 1.379 . S
C374 N381 1.356 . S
C375 C374 1.363 . S
C375 C378 1.363 . S
N376 C378 1.356 . S
N376 H388 0.984 . S
N376 H389 0.985 . S
N377 C379 1.356 . S
N377 H382 0.984 . S
N377 H383 0.985 . S
C378 C372 1.379 . S
C378 C375 1.363 . S
C378 N376 1.356 . S
C379 C373 1.363 . S
C379 C374 1.379 . S
C379 N377 1.356 . S
N380 C372 1.356 . S
N380 H386 0.984 . S
N380 H387 0.984 . S
N381 C374 1.356 . S
N381 H384 0.984 . S
N381 H385 0.985 . S
H382 N377 0.984 . S
H383 N377 0.985 . S
H384 N381 0.984 . S
H385 N381 0.985 . S
H386 N380 0.984 . S
H387 N380 0.984 . S
H388 N376 0.984 . S
H389 N376 0.985 . S
C390 C391 1.363 . S
C390 C396 1.379 . S
C390 N398 1.356 . S
C391 C390 1.363 . S
C391 C397 1.363 . S
C392 C393 1.363 . S
C392 C397 1.379 . S
C392 N399 1.356 . S
C393 C392 1.363 . S
C393 C396 1.363 . S
N394 C396 1.356 . S
N394 H406 0.984 . S
N394 H407 0.985 . S
N395 C397 1.356 . S
N395 H400 0.984 . S
N395 H401 0.985 . S
C396 C390 1.379 . S
C396 C393 1.363 . S
C396 N394 1.356 . S
C397 C391 1.363 . S
C397 C392 1.379 . S
C397 N395 1.356 . S
N398 C390 1.356 . S
N398 H404 0.984 . S
N398 H405 0.984 . S
N399 C392 1.356 . S
N399 H402 0.984 . S
N399 H403 0.985 . S
H400 N395 0.984 . S
H401 N395 0.985 . S
H402 N399 0.984 . S
H403 N399 0.985 . S
H404 N398 0.984 . S
H405 N398 0.984 . S
H406 N394 0.984 . S
H407 N394 0.985 . S
C408 C409 1.363 . S
C408 C414 1.379 . S
C408 N416 1.356 . S
C409 C408 1.363 . S
C409 C415 1.363 . S
C410 C411 1.363 . S
C410 C415 1.379 . S
C410 N417 1.356 . S
C411 C410 1.363 . S
C411 C414 1.363 . S
N412 C414 1.356 . S
N412 H424 0.984 . S
N412 H425 0.985 . S
N413 C415 1.356 . S
N413 H418 0.984 . S
N413 H419 0.985 . S
C414 C408 1.379 . S
C414 C411 1.363 . S
C414 N412 1.356 . S
C415 C409 1.363 . S
C415 C410 1.379 . S
C415 N413 1.356 . S
N416 C408 1.356 . S
N416 H422 0.984 . S
N416 H423 0.984 . S
N417 C410 1.356 . S
N417 H420 0.984 . S
N417 H421 0.985 . S
H418 N413 0.984 . S
H419 N413 0.985 . S
H420 N417 0.984 . S
H421 N417 0.985 . S
H422 N416 0.984 . S
H423 N416 0.984 . S
H424 N412 0.984 . S
H425 N412 0.985 . S
C426 C427 1.363 . S
C426 C432 1.379 . S
C426 N434 1.356 . S
C427 C426 1.363 . S
C427 C433 1.363 . S
C428 C429 1.363 . S
C428 C433 1.379 . S
C428 N435 1.356 . S
C429 C428 1.363 . S
C429 C432 1.363 . S
N430 C432 1.356 . S
N430 H442 0.984 . S
N430 H443 0.985 . S
N431 C433 1.356 . S
N431 H436 0.984 . S
N431 H437 0.985 . S
C432 C426 1.379 . S
C432 C429 1.363 . S
C432 N430 1.356 . S
C433 C427 1.363 . S
C433 C428 1.379 . S
C433 N431 1.356 . S
N434 C426 1.356 . S
N434 H440 0.984 . S
N434 H441 0.984 . S
N435 C428 1.356 . S
N435 H438 0.984 . S
N435 H439 0.985 . S
H436 N431 0.984 . S
H437 N431 0.985 . S
H438 N435 0.984 . S
H439 N435 0.985 . S
H440 N434 0.984 . S
H441 N434 0.984 . S
H442 N430 0.984 . S
H443 N430 0.985 . S
C444 C445 1.363 1_665 S
C444 C450 1.379 . S
C444 N452 1.356 . S
C445 C444 1.363 1_445 S
C445 C451 1.363 . S
C446 C447 1.376 . S
C446 C451 1.379 . S
C446 N453 1.356 . S
C447 C446 1.376 . S
C447 C450 1.352 1_445 S
N448 C450 1.356 . S
N448 H460 0.984 . S
N448 H461 0.985 . S
N449 C451 1.356 . S
N449 H454 0.984 . S
N449 H455 0.985 . S
C450 C444 1.379 . S
C450 C447 1.352 1_665 S
C450 N448 1.356 . S
C451 C445 1.363 . S
C451 C446 1.379 . S
C451 N449 1.356 . S
N452 C444 1.356 . S
N452 H458 0.984 . S
N452 H459 0.984 . S
N453 C446 1.356 . S
N453 H456 0.984 . S
N453 H457 0.985 . S
H454 N449 0.984 . S
H455 N449 0.985 . S
H456 N453 0.984 . S
H457 N453 0.985 . S
H458 N452 0.984 . S
H459 N452 0.984 . S
H460 N448 0.984 . S
H461 N448 0.985 . S
C462 C463 1.363 1_655 S
C462 C468 1.379 . S
C462 N470 1.356 . S
C463 C462 1.363 1_455 S
C463 C469 1.363 1_545 S
C464 C465 1.363 1_565 S
C464 C469 1.379 . S
C464 N471 1.356 . S
C465 C464 1.363 1_545 S
C465 C468 1.363 1_455 S
N466 C468 1.356 . S
N466 H478 0.984 . S
N466 H479 0.985 . S
N467 C469 1.356 . S
N467 H472 0.984 . S
N467 H473 0.985 . S
C468 C462 1.379 . S
C468 C465 1.363 1_655 S
C468 N466 1.356 . S
C469 C463 1.363 1_565 S
C469 C464 1.379 . S
C469 N467 1.356 . S
N470 C462 1.356 . S
N470 H476 0.984 . S
N470 H477 0.984 . S
N471 C464 1.356 . S
N471 H474 0.984 . S
N471 H475 0.985 . S
H472 N467 0.984 . S
H473 N467 0.985 . S
H474 N471 0.984 . S
H475 N471 0.985 . S
H476 N470 0.984 . S
H477 N470 0.984 . S
H478 N466 0.984 . S
H479 N466 0.985 . S
C480 C481 1.363 . S
C480 C486 1.379 . S
C480 N488 1.356 . S
C481 C480 1.363 . S
C481 C487 1.363 . S
C482 C483 1.363 . S
C482 C487 1.379 . S
C482 N489 1.356 . S
C483 C482 1.363 . S
C483 C486 1.363 . S
N484 C486 1.356 . S
N484 H496 0.984 . S
N484 H497 0.985 . S
N485 C487 1.356 . S
N485 H490 0.984 . S
N485 H491 0.985 . S
C486 C480 1.379 . S
C486 C483 1.363 . S
C486 N484 1.356 . S
C487 C481 1.363 . S
C487 C482 1.379 . S
C487 N485 1.356 . S
N488 C480 1.356 . S
N488 H494 0.984 . S
N488 H495 0.984 . S
N489 C482 1.356 . S
N489 H492 0.984 . S
N489 H493 0.985 . S
H490 N485 0.984 . S
H491 N485 0.985 . S
H492 N489 0.984 . S
H493 N489 0.985 . S
H494 N488 0.984 . S
H495 N488 0.984 . S
H496 N484 0.984 . S
H497 N484 0.985 . S
C498 C499 1.363 . S
C498 C504 1.379 . S
C498 N506 1.356 . S
C499 C498 1.363 . S
C499 C505 1.363 . S
C500 C501 1.363 . S
C500 C505 1.379 . S
C500 N507 1.356 . S
C501 C500 1.363 . S
C501 C504 1.363 . S
N502 C504 1.356 . S
N502 H514 0.984 . S
N502 H515 0.985 . S
N503 C505 1.356 . S
N503 H508 0.984 . S
N503 H509 0.985 . S
C504 C498 1.379 . S
C504 C501 1.363 . S
C504 N502 1.356 . S
C505 C499 1.363 . S
C505 C500 1.379 . S
C505 N503 1.356 . S
N506 C498 1.356 . S
N506 H512 0.984 . S
N506 H513 0.984 . S
N507 C500 1.356 . S
N507 H510 0.984 . S
N507 H511 0.985 . S
H508 N503 0.984 . S
H509 N503 0.985 . S
H510 N507 0.984 . S
H511 N507 0.985 . S
H512 N506 0.984 . S
H513 N506 0.984 . S
H514 N502 0.984 . S
H515 N502 0.985 . S
C303 C271 1.572 . S
C301 C27 1.591 . S
C319 N6 1.491 . S
C321 C211 1.512 . S
C337 C16 1.561 . S
C339 C241 1.416 . S
C355 N14 1.466 . S
C357 C181 1.380 1_554 S
C373 C57 1.591 . S
C375 C151 1.572 . S
C391 N36 1.491 . S
C393 C91 1.514 . S
C411 C121 1.416 . S
C409 C46 1.561 . S
C429 C61 1.380 . S
C427 N44 1.464 . S
C445 C10 1.392 . S
C447 C80 1.372 1_455 S
C463 C1 1.537 . S
C465 C140 1.514 1_455 S
C483 C200 1.371 . S
C481 C40 1.393 . S
C499 C31 1.537 . S
C501 C260 1.514 . S
