# Generated by pormake.
# Topology zzz, (3,6)-cn, num edge types: 1
# Building blocks:
#     Node 0, Type 0, BuildingBlock: QEWDON_clean_linker_0, # of connection points: 3
#     Node 1, Type 0, BuildingBlock: QEWDON_clean_linker_0, # of connection points: 3
#     Node 2, Type 0, BuildingBlock: QEWDON_clean_linker_0, # of connection points: 3
#     Node 3, Type 0, BuildingBlock: QEWDON_clean_linker_0, # of connection points: 3
#     Node 4, Type 0, BuildingBlock: QEWDON_clean_linker_0, # of connection points: 3
#     Node 5, Type 0, BuildingBlock: QEWDON_clean_linker_0, # of connection points: 3
#     Node 6, Type 0, BuildingBlock: QEWDON_clean_linker_0, # of connection points: 3
#     Node 7, Type 0, BuildingBlock: QEWDON_clean_linker_0, # of connection points: 3
#     Node 8, Type 1, BuildingBlock: NUHQIS_clean_sbu_0, # of connection points: 6
#     Node 9, Type 1, BuildingBlock: NUHQIS_clean_sbu_0, # of connection points: 6
#     Node 10, Type 1, BuildingBlock: NUHQIS_clean_sbu_0, # of connection points: 6
#     Node 11, Type 1, BuildingBlock: NUHQIS_clean_sbu_0, # of connection points: 6
#     Edge 12, Type (0, 1), BuildingBlock: AJUNOK_clean_linker_0, # of connection points: 2
#     Edge 13, Type (0, 1), BuildingBlock: AJUNOK_clean_linker_0, # of connection points: 2
#     Edge 14, Type (0, 1), BuildingBlock: AJUNOK_clean_linker_0, # of connection points: 2
#     Edge 15, Type (0, 1), BuildingBlock: AJUNOK_clean_linker_0, # of connection points: 2
#     Edge 16, Type (0, 1), BuildingBlock: AJUNOK_clean_linker_0, # of connection points: 2
#     Edge 17, Type (0, 1), BuildingBlock: AJUNOK_clean_linker_0, # of connection points: 2
#     Edge 18, Type (0, 1), BuildingBlock: AJUNOK_clean_linker_0, # of connection points: 2
#     Edge 19, Type (0, 1), BuildingBlock: AJUNOK_clean_linker_0, # of connection points: 2
#     Edge 20, Type (0, 1), BuildingBlock: AJUNOK_clean_linker_0, # of connection points: 2
#     Edge 21, Type (0, 1), BuildingBlock: AJUNOK_clean_linker_0, # of connection points: 2
#     Edge 22, Type (0, 1), BuildingBlock: AJUNOK_clean_linker_0, # of connection points: 2
#     Edge 23, Type (0, 1), BuildingBlock: AJUNOK_clean_linker_0, # of connection points: 2
#     Edge 24, Type (0, 1), BuildingBlock: AJUNOK_clean_linker_0, # of connection points: 2
#     Edge 25, Type (0, 1), BuildingBlock: AJUNOK_clean_linker_0, # of connection points: 2
#     Edge 26, Type (0, 1), BuildingBlock: AJUNOK_clean_linker_0, # of connection points: 2
#     Edge 27, Type (0, 1), BuildingBlock: AJUNOK_clean_linker_0, # of connection points: 2
#     Edge 28, Type (0, 1), BuildingBlock: AJUNOK_clean_linker_0, # of connection points: 2
#     Edge 29, Type (0, 1), BuildingBlock: AJUNOK_clean_linker_0, # of connection points: 2
#     Edge 30, Type (0, 1), BuildingBlock: AJUNOK_clean_linker_0, # of connection points: 2
#     Edge 31, Type (0, 1), BuildingBlock: AJUNOK_clean_linker_0, # of connection points: 2
#     Edge 32, Type (0, 1), BuildingBlock: AJUNOK_clean_linker_0, # of connection points: 2
#     Edge 33, Type (0, 1), BuildingBlock: AJUNOK_clean_linker_0, # of connection points: 2
#     Edge 34, Type (0, 1), BuildingBlock: AJUNOK_clean_linker_0, # of connection points: 2
#     Edge 35, Type (0, 1), BuildingBlock: AJUNOK_clean_linker_0, # of connection points: 2
# Relax obj value: 0.222
# Max RMSD: 0.158
# Mean RMSD: 0.099
data_MOF--net-zzz--node1-NUHQIS_clean_sbu_0--node2-QEWDON_clean_linker_0--edge1-AJUNOK_clean_linker_0
_symmetry_space_group_name_H-M    P1
_symmetry_Int_Tables_number       1
_symmetry_cell_setting            triclinic
loop_
_symmetry_equiv_pos_as_xyz
'x, y, z'
_cell_length_a     41.491186
_cell_length_b     41.547955
_cell_length_c     10.332389
_cell_angle_alpha  89.722979
_cell_angle_beta   89.896407
_cell_angle_gamma 90.022526
loop_
_atom_site_label
_atom_site_type_symbol
_atom_site_fract_x
_atom_site_fract_y
_atom_site_fract_z
_atom_type_partial_charge
H0 H 0.77056 0.47663 0.23878 0.0
C1 C 0.79023 0.48575 0.29684 0.0
C2 C 0.82107 0.47371 0.27504 0.0
C3 C 0.78464 0.50824 0.3961 0.0
H4 H 0.87094 0.47517 0.32742 0.0
C5 C 0.84702 0.48427 0.34953 0.0
C6 C 0.84286 0.50478 0.45484 0.0
C7 C 0.8114 0.51751 0.47663 0.0
C8 C 0.75021 0.51857 0.42133 0.0
H9 H 0.80776 0.53381 0.55669 0.0
C10 C 0.72679 0.52118 0.31994 0.0
C11 C 0.69342 0.52632 0.34693 0.0
C12 C 0.73969 0.52263 0.54937 0.0
H13 H 0.75622 0.52016 0.62969 0.0
C14 C 0.70731 0.52838 0.57676 0.0
H15 H 0.73467 0.51944 0.22046 0.0
C16 C 0.68455 0.52992 0.47773 0.0
H17 H 0.65971 0.53344 0.50512 0.0
H18 H 0.6996 0.53092 0.67637 0.0
H19 H 0.06869 0.76214 0.21135 0.0
C20 C 0.06268 0.78033 0.28184 0.0
C21 C 0.08102 0.80845 0.28193 0.0
C22 C 0.03574 0.7769 0.36446 0.0
H23 H 0.08461 0.85692 0.34805 0.0
C24 C 0.07205 0.83422 0.36049 0.0
C25 C 0.04669 0.83222 0.44913 0.0
C26 C 1.02823 0.80322 0.4504 0.0
C27 C 1.01451 0.74718 0.35039 0.0
H28 H 1.00837 0.80139 0.51786 0.0
C29 C 1.02579 0.71759 0.2945 0.0
C30 C 1.00448 0.69147 0.26894 0.0
C31 C 0.98161 0.74913 0.38264 0.0
H32 H 0.97131 0.77094 0.42148 0.0
C33 C 0.96075 0.72349 0.35941 0.0
H34 H 0.05098 0.71453 0.27083 0.0
C35 C 0.97183 0.6953 0.30192 0.0
H36 H 0.95439 0.67673 0.28007 0.0
H37 H 0.93543 0.72586 0.38293 0.0
H38 H 0.79358 0.07496 0.29071 0.0
C39 C 0.77527 0.06508 0.3543 0.0
C40 C 0.74545 0.08069 0.36191 0.0
C41 C 0.78159 0.03754 0.43048 0.0
H42 H 0.69798 0.08056 0.44628 0.0
C43 C 0.7214 0.06887 0.44468 0.0
C44 C 0.72589 0.04112 0.5186 0.0
C45 C 0.75615 1.02521 0.51115 0.0
C46 C 0.81534 1.02368 0.43216 0.0
H47 H 0.75976 1.00353 0.56778 0.0
C48 C 0.83647 1.0247 0.32229 0.0
C49 C 0.86927 1.01452 0.33142 0.0
C50 C 0.82765 1.01172 0.54946 0.0
H51 H 0.81299 1.01123 0.63621 0.0
C52 C 0.85951 1.00148 0.55893 0.0
H53 H 0.82729 0.03292 0.23 0.0
C54 C 0.88004 1.00302 0.45224 0.0
H55 H 0.90475 0.99548 0.46573 0.0
H56 H 0.8686 0.99278 0.65082 0.0
H57 H 0.47841 0.78915 0.31368 0.0
C58 C 0.49055 0.76976 0.36399 0.0
C59 C 0.47519 0.73964 0.37255 0.0
C60 C 0.52108 0.77485 0.42146 0.0
H61 H 0.47903 0.69092 0.44424 0.0
C62 C 0.49023 0.71453 0.44057 0.0
C63 C 0.52016 0.71823 0.49898 0.0
C64 C 0.5358 0.74841 0.48889 0.0
C65 C 0.53706 0.80769 0.4133 0.0
H66 H 0.55956 0.75077 0.53059 0.0
C67 C 0.53134 0.83004 0.30977 0.0
C68 C 0.54671 0.86065 0.30709 0.0
C69 C 0.55795 0.81737 0.51325 0.0
H70 H 0.56224 0.80214 0.59663 0.0
C71 C 0.57323 0.84726 0.50971 0.0
H72 H 0.51563 0.82369 0.23044 0.0
C73 C 0.56783 0.86859 0.40772 0.0
H74 H 0.57988 0.89175 0.40841 0.0
H75 H 0.58922 0.85407 0.5876 0.0
H76 H 0.29503 0.57568 0.32696 0.0
C77 C 0.27587 0.56523 0.26989 0.0
C78 C 0.2455 0.57975 0.27248 0.0
C79 C 0.28167 0.53831 0.19019 0.0
H80 H 0.19661 0.57833 0.20583 0.0
C81 C 0.22027 0.56724 0.1989 0.0
C82 C 0.22468 0.54164 0.11424 0.0
C83 C 0.2555 0.52658 0.11164 0.0
C84 C 0.3157 0.52503 0.18123 0.0
H85 H 0.25907 0.50638 0.04754 0.0
C86 C 0.33822 0.52619 0.28655 0.0
C87 C 0.37084 0.51591 0.27106 0.0
C88 C 0.32674 0.51317 0.06192 0.0
H89 H 0.31117 0.51267 0.97807 0.0
C90 C 0.35851 0.50304 0.04634 0.0
H91 H 0.33038 0.53461 0.38037 0.0
C92 C 0.38026 0.50451 0.14872 0.0
H93 H 0.40492 0.49719 0.1308 0.0
H94 H 0.36655 0.49444 0.95294 0.0
H95 H 0.98244 0.28858 0.30799 0.0
C96 C 0.99147 0.26901 0.24998 0.0
C97 C 0.97431 0.24011 0.25345 0.0
C98 C 1.01975 0.27216 0.17411 0.0
H99 H 0.97222 0.19106 0.19224 0.0
C100 C 0.98469 0.21388 0.18068 0.0
C101 C 1.01087 0.21577 0.09655 0.0
C102 C 1.02923 0.24478 0.09665 0.0
C103 C 0.03839 0.30398 0.17525 0.0
H104 H 0.05056 0.24553 0.03677 0.0
C105 C 0.03429 0.32819 0.27348 0.0
C106 C 0.05126 0.35811 0.2689 0.0
C107 C 0.06006 0.31103 0.07391 0.0
H108 H 0.06353 0.29483 0.99376 0.0
C109 C 0.07752 0.33967 0.07135 0.0
H110 H 1.01776 0.32436 0.35266 0.0
C111 C 0.07341 0.36271 0.16731 0.0
H112 H 0.08774 0.38445 0.16107 0.0
H113 H 0.09426 0.34424 0.99286 0.0
H114 H 0.27368 0.06173 0.36876 0.0
C115 C 0.29005 0.05906 0.28841 0.0
C116 C 0.32081 0.07241 0.3016 0.0
C117 C 0.28155 0.04038 0.17986 0.0
H118 H 0.36774 0.07704 0.21228 0.0
C119 C 0.3434 0.06812 0.20135 0.0
C120 C 0.33704 0.04936 0.09285 0.0
C121 C 0.3058 0.03556 0.08164 0.0
C122 C 0.24864 1.0239 0.17836 0.0
H123 H 0.30087 1.02134 0.99675 0.0
C124 C 0.2225 0.03341 0.26154 0.0
C125 C 0.19319 1.01579 0.26698 0.0
C126 C 0.24357 0.99685 0.09906 0.0
H127 H 0.26223 0.98761 0.03656 0.0
C128 C 0.21445 0.98006 0.10187 0.0
H129 H 0.22425 0.05449 0.32181 0.0
C130 C 0.18977 0.98921 0.18542 0.0
H131 H 0.16814 0.97489 0.18869 0.0
H132 H 0.21125 0.95921 0.04076 0.0
H133 H 0.57991 0.26282 0.35581 0.0
C134 C 0.57009 0.28314 0.30371 0.0
C135 C 0.58644 0.31233 0.31349 0.0
C136 C 0.5418 0.28056 0.22811 0.0
H137 H 0.58738 0.36228 0.26235 0.0
C138 C 0.57527 0.33943 0.24719 0.0
C139 C 0.54955 0.33792 0.16087 0.0
C140 C 0.53189 0.3086 0.15512 0.0
C141 C 0.52372 0.24859 0.22441 0.0
H142 H 0.51088 0.30806 0.09372 0.0
C143 C 0.52813 0.2237 0.3199 0.0
C144 C 0.51179 0.19362 0.31208 0.0
C145 C 0.50229 0.24214 0.12216 0.0
H146 H 0.49862 0.25904 0.04391 0.0
C147 C 0.48536 0.21321 0.11643 0.0
H148 H 0.54446 0.22717 0.39956 0.0
C149 C 0.48983 0.18941 0.21 0.0
H150 H 0.47598 0.16743 0.20152 0.0
H151 H 0.4688 0.20903 0.03741 0.0
Tb152 Tb 0.04868 1.01496 0.89208 0.0
Eu153 Eu 1.00188 0.03266 0.65253 0.0
C154 C 0.08021 1.02756 0.61302 0.0
C155 C 1.02711 0.08848 0.85274 0.0
C156 C 0.1059 0.96894 0.08705 0.0
C157 C 0.13523 0.92604 0.97968 0.0
C158 C 0.1215 0.95676 0.9767 0.0
C159 C 0.10681 0.95149 0.20306 0.0
C160 C 0.1205 0.9209 0.2059 0.0
C161 C 0.13297 0.90713 0.09206 0.0
C162 C 0.08366 0.99617 0.07661 0.0
O163 O 0.99914 1.00451 0.95815 0.0
O164 O 0.97118 0.0395 0.83184 0.0
O165 O 1.00305 0.97764 0.65795 0.0
O166 O 0.05038 0.9721 0.76833 0.0
C167 C 0.97296 1.02154 0.93599 0.0
O168 O 0.95467 1.02819 0.56144 0.0
O169 O 0.99249 0.05533 0.46583 0.0
O170 O 0.05141 1.02661 0.55922 0.0
O171 O 0.08345 1.02751 0.73977 0.0
O172 O 0.03853 0.06599 0.93051 0.0
O173 O 1.01508 0.08142 0.73808 0.0
C174 C 1.02779 0.95986 0.69368 0.0
O175 O 0.09171 1.01939 0.99791 0.0
O176 O 0.0537 0.9878 0.06207 0.0
C177 C 0.94052 0.07652 0.45364 0.0
C178 C 0.91853 0.14031 0.43862 0.0
C179 C 0.91544 0.12293 0.55472 0.0
C180 C 0.92663 0.09124 0.56262 0.0
C181 C 0.93975 0.09247 0.3341 0.0
C182 C 0.9287 0.12412 0.32639 0.0
C183 C 0.96179 0.04848 0.46886 0.0
H184 H 0.14502 0.91597 0.89168 0.0
H185 H 0.12088 0.96985 0.88583 0.0
H186 H 0.0948 0.96047 0.28887 0.0
H187 H 0.11821 0.90679 0.2939 0.0
H188 H 0.90721 0.13481 0.64166 0.0
H189 H 0.92698 0.07939 0.65623 0.0
H190 H 0.95059 0.08164 0.24937 0.0
H191 H 0.93155 0.13698 0.23555 0.0
Tb192 Tb 0.53953 0.04712 0.92279 0.0
Eu193 Eu 0.52176 1.00242 0.6825 0.0
C194 C 0.52724 0.08007 0.65514 0.0
C195 C 0.4659 0.0306 0.86961 0.0
C196 C 0.58312 0.10376 0.12326 0.0
C197 C 0.63021 0.12839 0.02331 0.0
C198 C 0.59954 0.11477 0.01239 0.0
C199 C 0.59634 0.10913 0.24546 0.0
C200 C 0.62685 0.12285 0.25658 0.0
C201 C 0.64483 0.13108 0.14523 0.0
C202 C 0.55554 0.08196 0.11044 0.0
O203 O 0.52716 0.9988 1.00049 0.0
O204 O 0.54274 0.96811 0.82905 0.0
O205 O 0.57545 1.00804 0.65612 0.0
O206 O 0.58766 0.03614 0.84089 0.0
C207 C 0.53609 0.97077 0.95249 0.0
O208 O 0.49327 0.9633 0.59962 0.0
O209 O 0.52462 0.99138 0.47563 0.0
O210 O 0.51094 0.05418 0.62351 0.0
O211 O 0.54551 0.0799 0.75842 0.0
O212 O 0.48681 0.05258 0.90646 0.0
O213 O 0.47563 1.00574 0.80205 0.0
C214 C 0.59665 1.02162 0.73293 0.0
O215 O 0.53395 0.09028 0.02527 0.0
O216 O 0.56319 0.05162 0.10113 0.0
C217 C 0.469 0.99181 0.43072 0.0
C218 C 0.41765 0.03492 0.47986 0.0
C219 C 0.41283 1.00117 0.4834 0.0
C220 C 0.43838 0.97995 0.46226 0.0
C221 C 0.47195 1.02467 0.40023 0.0
C222 C 0.44728 0.04611 0.43032 0.0
C223 C 0.49762 0.97525 0.48362 0.0
H224 H 0.64357 0.13418 0.93607 0.0
H225 H 0.58978 0.11058 0.91679 0.0
H226 H 0.58435 0.10029 0.33173 0.0
H227 H 0.63761 0.12368 0.35194 0.0
H228 H 0.38974 0.99059 0.50595 0.0
H229 H 0.43493 0.95459 0.48301 0.0
H230 H 0.49483 0.03453 0.36924 0.0
H231 H 0.45253 0.07139 0.41889 0.0
Tb232 Tb 0.50981 0.53739 0.91182 0.0
Eu233 Eu 0.5565 0.51495 0.67725 0.0
C234 C 0.48066 0.52229 0.63697 0.0
C235 C 0.53359 0.46358 0.89572 0.0
C236 C 0.44843 0.58684 0.06538 0.0
C237 C 0.40709 0.62141 0.15636 0.0
C238 C 0.42104 0.59084 0.14275 0.0
C239 C 0.45938 0.61275 0.99072 0.0
C240 C 0.44644 0.6433 0.00752 0.0
C241 C 0.42129 0.64877 0.09713 0.0
C242 C 0.46745 0.55694 0.0686 0.0
O243 O 0.55586 0.53161 0.01534 0.0
O244 O 0.59083 0.52375 0.84467 0.0
O245 O 0.54446 0.56691 0.63462 0.0
O246 O 0.53045 0.58303 0.83817 0.0
C247 C 0.58536 0.52777 0.96922 0.0
O248 O 0.60114 0.52081 0.5677 0.0
O249 O 0.56535 0.48648 0.50441 0.0
O250 O 0.50523 0.50309 0.61604 0.0
O251 O 0.48249 0.54338 0.73079 0.0
O252 O 0.51106 0.48411 0.9331 0.0
O253 O 0.55511 0.47165 0.80803 0.0
C254 C 0.53876 0.59 0.7179 0.0
O255 O 0.46158 0.53649 0.97653 0.0
O256 O 0.49834 0.56106 0.08465 0.0
C257 C 0.61903 0.47114 0.48402 0.0
C258 C 0.64561 0.40909 0.48462 0.0
C259 C 0.64599 0.42758 0.59806 0.0
C260 C 0.63231 0.45832 0.59813 0.0
C261 C 0.62327 0.45485 0.36722 0.0
C262 C 0.63656 0.42403 0.36729 0.0
C263 C 0.59486 0.4968 0.49097 0.0
H264 H 0.38668 0.62372 0.22088 0.0
H265 H 0.41144 0.57075 0.19724 0.0
H266 H 0.4797 0.60991 0.92633 0.0
H267 H 0.45875 0.66261 0.9583 0.0
H268 H 0.65354 0.41699 0.68902 0.0
H269 H 0.62932 0.47068 0.68931 0.0
H270 H 0.61325 0.46444 0.27823 0.0
H271 H 0.63596 0.41059 0.27774 0.0
Tb272 Tb 1.0255 0.49919 0.9031 0.0
Eu273 Eu 0.04165 0.54819 0.66686 0.0
C274 C 0.03871 0.47014 0.62297 0.0
C275 C 0.09828 0.52363 0.86728 0.0
C276 C 0.98146 0.43759 0.08442 0.0
C277 C 0.93671 0.41369 0.96822 0.0
C278 C 0.96817 0.42573 0.96905 0.0
C279 C 0.9648 0.43334 0.20098 0.0
C280 C 0.93333 0.42162 0.19986 0.0
C281 C 0.91816 0.41423 0.0818 0.0
C282 C 1.00788 0.46097 0.07986 0.0
O283 O 1.01564 0.54772 0.98042 0.0
O284 O 0.04605 0.57902 0.84569 0.0
O285 O 0.98683 0.54662 0.67533 0.0
O286 O 0.9823 0.49819 0.77916 0.0
C287 C 1.0298 0.57541 0.95367 0.0
O288 O 0.03535 0.59524 0.57534 0.0
O289 O 0.06455 0.55893 0.48161 0.0
O290 O 0.03521 0.49906 0.57147 0.0
O291 O 0.04074 0.46644 0.74911 0.0
O292 O 0.07619 0.51075 0.94352 0.0
O293 O 0.09078 0.5362 0.75358 0.0
C294 C 0.96952 0.52137 0.70832 0.0
O295 O 0.03146 0.45498 1.00031 0.0
O296 O 0.9984 0.49073 0.07115 0.0
C297 C 0.0826 0.61207 0.46646 0.0
C298 C 0.14471 0.63838 0.44337 0.0
C299 C 0.12856 0.63903 0.56283 0.0
C300 C 0.09782 0.62557 0.57481 0.0
C301 C 0.09677 0.61547 0.3442 0.0
C302 C 0.12766 0.62846 0.33259 0.0
C303 C 0.05596 0.58914 0.48316 0.0
H304 H 0.92572 0.40739 0.87703 0.0
H305 H 0.98078 0.42871 0.87784 0.0
H306 H 0.97466 0.44239 0.2908 0.0
H307 H 0.91969 0.42235 0.28933 0.0
H308 H 0.14099 0.64696 0.64896 0.0
H309 H 0.08724 0.62327 0.67036 0.0
H310 H 0.08534 0.60521 0.25961 0.0
H311 H 0.13946 0.62716 0.23914 0.0
C312 C 0.13475 0.02953 0.31037 0.0
C313 C 0.16594 1.0236 0.35869 0.0
C314 C 0.10753 0.03145 0.39257 0.0
C315 C 0.11008 1.02763 0.52812 0.0
H316 H 0.13133 0.03209 0.2071 0.0
H317 H 0.08418 0.03545 0.3487 0.0
S318 S 0.18679 1.01226 0.70482 0.0
N319 N 0.19791 1.01445 0.55142 0.0
N320 N 0.14745 1.01834 0.70624 0.0
C321 C 0.1415 1.02264 0.57807 0.0
C322 C 0.16916 1.02062 0.49374 0.0
C323 C 0.5179 0.13384 0.35581 0.0
C324 C 0.51781 0.16564 0.40424 0.0
C325 C 0.52102 0.10676 0.43716 0.0
C326 C 0.52492 0.10974 0.57164 0.0
H327 H 0.51557 0.12964 0.25299 0.0
H328 H 0.52101 0.0832 0.39332 0.0
S329 S 0.5264 0.18683 0.75195 0.0
N330 N 0.52152 0.198 0.59951 0.0
N331 N 0.52879 0.14715 0.75082 0.0
C332 C 0.52574 0.14121 0.62225 0.0
C333 C 0.52194 0.16902 0.53933 0.0
C334 C 0.41863 0.4917 0.3902 0.0
C335 C 0.39613 0.51711 0.37728 0.0
C336 C 0.4454 0.49357 0.47399 0.0
C337 C 0.45115 0.52083 0.55125 0.0
H338 H 0.41588 0.47011 0.33297 0.0
H339 H 0.46185 0.47336 0.47757 0.0
S340 S 0.3999 0.5943 0.55664 0.0
N341 N 0.38179 0.57063 0.45133 0.0
N342 N 0.43144 0.57396 0.61001 0.0
C343 C 0.42842 0.54615 0.54249 0.0
C344 C 0.40115 0.5443 0.45607 0.0
C345 C 0.04636 0.4178 0.31817 0.0
C346 C 0.04592 0.38563 0.36377 0.0
C347 C 0.04361 0.4445 0.40129 0.0
C348 C 0.04064 0.44081 0.53633 0.0
H349 H 0.04913 0.42254 0.21597 0.0
H350 H 0.0443 0.46835 0.35861 0.0
S351 S 0.03815 0.36204 0.70996 0.0
N352 N 0.04217 0.35199 0.55629 0.0
N353 N 0.03691 0.40176 0.7124 0.0
C354 C 0.03981 0.40878 0.58435 0.0
C355 C 0.0424 0.38145 0.49875 0.0
C356 C 0.91705 0.99158 0.20771 0.0
C357 C 0.8932 1.01577 0.21967 0.0
C358 C 0.94227 0.99364 0.11634 0.0
C359 C 0.94482 1.01962 0.02891 0.0
H360 H 0.91658 0.97073 0.27093 0.0
H361 H 0.95998 0.9745 0.11453 0.0
S362 S 0.88848 0.08912 0.01331 0.0
N363 N 0.87411 0.06675 0.13263 0.0
N364 N 0.92034 0.06979 0.95742 0.0
C365 C 0.92053 0.04343 0.03561 0.0
C366 C 0.89508 0.04166 0.13094 0.0
C367 C 0.56741 0.89504 0.12306 0.0
C368 C 0.54145 0.88537 0.20264 0.0
C369 C 0.56517 0.9221 0.0403 0.0
C370 C 0.53727 0.94139 0.0369 0.0
H371 H 0.58999 0.88199 0.12724 0.0
H372 H 0.58589 0.92863 0.98185 0.0
S373 S 0.46167 0.92533 0.2181 0.0
N374 N 0.48619 0.89628 0.26575 0.0
N375 N 0.48236 0.94761 0.11425 0.0
C376 C 0.51091 0.93164 0.1137 0.0
C377 C 0.5129 0.90357 0.1954 0.0
C378 C 0.63969 0.54728 0.25981 0.0
C379 C 0.66724 0.52748 0.2433 0.0
C380 C 0.61349 0.54697 0.1726 0.0
C381 C 0.61364 0.52764 0.06115 0.0
H382 H 0.63809 0.56339 0.34156 0.0
H383 H 0.59306 0.56245 0.19202 0.0
S384 S 0.67885 0.47083 0.96925 0.0
N385 N 0.69173 0.48687 0.10556 0.0
N386 N 0.6438 0.48802 0.9387 0.0
C387 C 0.64112 0.50823 0.04102 0.0
C388 C 0.6675 0.50781 0.13197 0.0
C389 C 0.03351 0.66213 0.08639 0.0
C390 C 1.01486 0.66087 0.20061 0.0
C391 C 0.03888 0.63445 0.00976 0.0
C392 C 1.02591 0.60398 0.04319 0.0
H393 H 0.04288 0.685 0.05249 0.0
H394 H 0.05264 0.63728 0.92128 0.0
S395 S 0.97854 0.58657 0.34138 0.0
N396 N 0.9861 0.62552 0.3496 0.0
N397 N 0.99566 0.57419 0.20617 0.0
C398 C 1.00859 0.60211 0.16072 0.0
C399 C 1.00323 0.63023 0.23883 0.0
C400 C 0.91895 0.22246 0.29458 0.0
C401 C 0.9482 0.23365 0.34685 0.0
C402 C 0.90542 0.19348 0.33891 0.0
C403 C 0.92028 0.17592 0.43902 0.0
H404 H 0.91033 0.23233 0.20377 0.0
H405 H 0.88622 0.18262 0.28312 0.0
S406 S 0.99006 0.20257 0.63549 0.0
N407 N 0.98519 0.23134 0.52679 0.0
N408 N 0.96094 0.1764 0.60825 0.0
C409 C 0.94513 0.19096 0.50911 0.0
C410 C 0.95837 0.22065 0.46491 0.0
C411 C 0.36012 0.10341 0.42754 0.0
C412 C 0.33249 0.08378 0.43034 0.0
C413 C 0.38987 0.08929 0.4588 0.0
C414 C 0.3908 0.05782 0.51239 0.0
H415 H 0.36039 0.1247 0.36653 0.0
H416 H 0.4112 0.10154 0.42466 0.0
S417 S 0.32073 1.02008 0.67751 0.0
N418 N 0.30494 0.04717 0.57851 0.0
N419 N 0.36024 1.02301 0.65993 0.0
C420 C 0.36197 0.04705 0.57064 0.0
C421 C 0.33222 0.06047 0.52903 0.0
C422 C 0.6428 0.32768 0.34414 0.0
C423 C 0.61382 0.31728 0.40171 0.0
C424 C 0.6581 0.35566 0.38813 0.0
C425 C 0.64479 0.37334 0.49109 0.0
H426 H 0.64989 0.31821 0.25079 0.0
H427 H 0.67693 0.36618 0.32867 0.0
S428 S 0.57795 0.34654 0.70557 0.0
N429 N 0.57978 0.319 0.59136 0.0
N430 N 0.60743 0.37205 0.67339 0.0
C431 C 0.62086 0.35826 0.56732 0.0
C432 C 0.60583 0.32954 0.52325 0.0
C433 C 0.22482 0.60023 0.47621 0.0
C434 C 0.23763 0.60763 0.35407 0.0
C435 C 0.19625 0.61483 0.51751 0.0
C436 C 0.18046 0.63781 0.43934 0.0
H437 H 0.23306 0.57898 0.52768 0.0
H438 H 0.184 0.6041 0.59929 0.0
S439 S 0.21272 0.67456 0.13923 0.0
N440 N 0.23886 0.646 0.17652 0.0
N441 N 0.18542 0.67421 0.25588 0.0
C442 C 0.19735 0.65046 0.33283 0.0
C443 C 0.22636 0.63542 0.29067 0.0
C444 C 0.13612 0.82605 0.23381 0.0
C445 C 0.10647 0.81485 0.18543 0.0
C446 C 0.14962 0.85458 0.18515 0.0
C447 C 0.13412 0.87161 0.08517 0.0
H448 H 0.1451 0.8168 0.32513 0.0
H449 H 0.1688 0.86594 0.23944 0.0
S450 S 0.06468 0.84316 0.89164 0.0
N451 N 0.06907 0.81572 0.0062 0.0
N452 N 0.09404 0.86936 0.91396 0.0
C453 C 0.10954 0.85585 0.01635 0.0
C454 C 0.09597 0.82686 0.0661 0.0
C455 C 0.7264 0.09658 0.14733 0.0
C456 C 0.73607 0.10646 0.27105 0.0
C457 C 0.69871 0.1097 0.09055 0.0
C458 C 0.6804 0.13303 0.15659 0.0
H459 H 0.73659 0.07501 0.10522 0.0
H460 H 0.689 0.09771 0.00628 0.0
S461 S 0.70474 0.17622 0.45295 0.0
N462 N 0.73217 0.14774 0.43547 0.0
N463 N 0.68033 0.17296 0.32747 0.0
C464 C 0.6945 0.14817 0.2637 0.0
C465 C 0.72257 0.13472 0.3215 0.0
C466 C 0.42343 0.70997 0.35746 0.0
C467 C 0.44545 0.73144 0.29939 0.0
C468 C 0.40974 0.68504 0.28538 0.0
C469 C 0.41646 0.68201 0.15188 0.0
H470 H 0.4216 0.70868 0.46204 0.0
H471 H 0.39814 0.66599 0.33966 0.0
S472 S 0.45246 0.74632 0.94674 0.0
N473 N 0.4609 0.75708 0.09664 0.0
N474 N 0.43061 0.71318 0.95885 0.0
C475 C 0.42928 0.70956 0.08953 0.0
C476 C 0.44502 0.7338 0.16393 0.0
C477 C 0.83669 0.41856 0.22261 0.0
C478 C 0.82807 0.44927 0.17652 0.0
C479 C 0.86385 0.40283 0.17283 0.0
C480 C 0.88263 0.41751 0.07565 0.0
H481 H 0.82621 0.40951 0.3118 0.0
H482 H 0.873 0.38197 0.22427 0.0
S483 S 0.86183 0.49178 0.89326 0.0
N484 N 0.83369 0.48875 0.0056 0.0
N485 N 0.88492 0.45971 0.91133 0.0
C486 C 0.86966 0.44445 0.01059 0.0
C487 C 0.84196 0.46022 0.06122 0.0
C488 C 0.04713 0.17009 0.01361 0.0
C489 C 1.01719 0.18628 0.01349 0.0
C490 C 0.05058 0.13879 0.95977 0.0
C491 C 1.02439 0.12252 0.90165 0.0
H492 H 0.06761 0.1809 0.06159 0.0
H493 H 0.07381 0.12701 0.96569 0.0
S494 S 0.94057 0.153 0.88339 0.0
N495 N 0.96083 0.18273 0.95014 0.0
N496 N 0.96738 0.12466 0.85325 0.0
C497 C 0.99467 0.13866 0.89892 0.0
C498 C 0.99111 0.17022 0.9532 0.0
C499 C 0.38516 0.06926 0.9644 0.0
C500 C 0.36549 0.0431 1.00363 0.0
C501 C 0.41695 0.06493 0.91856 0.0
C502 C 0.43074 0.03412 0.90613 0.0
H503 H 0.37656 0.09366 0.97733 0.0
H504 H 0.43116 0.08609 0.89563 0.0
S505 S 0.38908 0.95713 0.98254 0.0
N506 N 0.3621 0.98492 0.01904 0.0
N507 N 0.42101 0.97665 0.92729 0.0
C508 C 0.41066 1.00756 0.93565 0.0
C509 C 0.37836 1.01205 0.98517 0.0
C510 C 0.51339 0.3831 0.07082 0.0
C511 C 0.54363 0.36753 0.07755 0.0
C512 C 0.50991 0.414 0.0121 0.0
C513 C 0.53648 0.43055 0.95699 0.0
H514 H 0.49256 0.37198 0.1157 0.0
H515 H 0.48631 0.42509 0.01094 0.0
S516 S 0.62108 0.40094 0.95378 0.0
N517 N 0.60046 0.3714 0.02137 0.0
N518 N 0.59427 0.42889 0.91859 0.0
C519 C 0.56663 0.41494 0.96231 0.0
C520 C 0.57007 0.3837 0.02006 0.0
C521 C 0.17888 0.50481 0.04019 0.0
C522 C 0.19636 0.53381 0.02743 0.0
C523 C 0.14759 0.50122 0.98594 0.0
C524 C 0.13252 0.52635 0.91553 0.0
H525 H 0.1886 0.48544 0.09874 0.0
H526 H 0.13479 0.47883 1.00184 0.0
S527 S 0.16671 0.6079 0.86433 0.0
N528 N 0.19537 0.58831 0.94191 0.0
N529 N 0.13733 0.58168 0.84266 0.0
C530 C 0.15005 0.55511 0.90028 0.0
C531 C 0.18165 0.55876 0.95512 0.0
C532 C 1.00979 0.8764 0.54112 0.0
C533 C 0.0405 0.86187 0.53212 0.0
C534 C 1.00557 0.90765 0.59477 0.0
C535 C 0.03184 0.92589 0.64242 0.0
H536 H 0.98904 0.86424 0.50087 0.0
H537 H 0.98156 0.91783 0.5967 0.0
S538 S 0.11742 0.89936 0.63985 0.0
N539 N 0.0975 0.8684 0.58105 0.0
N540 N 0.08986 0.92668 0.6732 0.0
C541 C 0.06248 0.9113 0.63612 0.0
C542 C 0.06669 0.87957 0.58373 0.0
C543 C 0.68539 0.04789 0.6992 0.0
C544 C 0.69712 0.02946 0.59467 0.0
C545 C 0.65369 0.04403 0.74779 0.0
C546 C 0.63178 1.02203 0.69228 0.0
H547 H 0.70031 0.06678 0.73918 0.0
H548 H 0.64582 0.05974 0.82503 0.0
S549 S 0.65104 0.96677 0.42025 0.0
N550 N 0.68463 0.98741 0.44128 0.0
N551 N 0.62547 0.98003 0.53047 0.0
C552 C 0.64377 1.00248 0.59111 0.0
C553 C 0.67618 1.00624 0.54294 0.0
C554 C 0.54088 0.66183 0.48373 0.0
C555 C 0.53411 0.68869 0.56185 0.0
C556 C 0.54377 0.63062 0.5362 0.0
C557 C 0.53977 0.62443 0.66989 0.0
H558 H 0.54189 0.66467 0.37948 0.0
H559 H 0.54766 0.61097 0.4695 0.0
S560 S 0.52587 0.68725 0.91922 0.0
N561 N 0.52615 0.70753 0.78124 0.0
N562 N 0.53226 0.64918 0.88107 0.0
C563 C 0.53511 0.65149 0.75043 0.0
C564 C 0.53212 0.68341 0.69629 0.0
C565 C 0.88554 0.54055 0.56226 0.0
C566 C 0.87208 0.50984 0.5407 0.0
C567 C 0.91664 0.54429 0.61817 0.0
C568 C 0.93565 0.51751 0.65594 0.0
H569 H 0.87266 0.56179 0.53011 0.0
H570 H 0.92611 0.56839 0.62973 0.0
S571 S 0.91179 0.43185 0.61823 0.0
N572 N 0.88041 0.45221 0.56451 0.0
N573 N 0.93823 0.45914 0.66433 0.0
C574 C 0.92207 0.4868 0.63694 0.0
C575 C 0.89061 0.48303 0.5811 0.0
loop_
_geom_bond_atom_site_label_1
_geom_bond_atom_site_label_2
_geom_bond_distance
_geom_bond_site_symmetry_2
_ccdc_geom_bond_type
H0 C1 0.949 . S
C1 H0 0.949 . S
C1 C2 1.395 . S
C1 C3 1.391 . S
C2 C1 1.395 . S
C2 C5 1.390 . S
C3 C1 1.391 . S
C3 C7 1.387 . S
C3 C8 1.491 . S
H4 C5 0.950 . S
C5 C2 1.390 . S
C5 H4 0.950 . S
C5 C6 1.378 . S
C6 C5 1.378 . S
C6 C7 1.409 . S
C7 C3 1.387 . S
C7 C6 1.409 . S
C7 H9 0.951 . S
C8 C3 1.491 . S
C8 C10 1.382 . S
C8 C12 1.404 . S
H9 C7 0.951 . S
C10 C8 1.382 . S
C10 C11 1.390 . S
C10 H15 0.949 . S
C11 C10 1.390 . S
C11 C16 1.399 . S
C12 C8 1.404 . S
C12 H13 0.950 . S
C12 C14 1.375 . S
H13 C12 0.950 . S
C14 C12 1.375 . S
C14 C16 1.382 . S
C14 H18 0.950 . S
H15 C10 0.949 . S
C16 C11 1.399 . S
C16 C14 1.382 . S
C16 H17 0.952 . S
H17 C16 0.952 . S
H18 C14 0.950 . S
H19 C20 0.949 . S
C20 H19 0.949 . S
C20 C21 1.395 . S
C20 C22 1.391 . S
C21 C20 1.395 . S
C21 C24 1.390 1_655 S
C22 C20 1.391 . S
C22 C26 1.387 . S
C22 C27 1.491 . S
H23 C24 0.950 . S
C24 C21 1.390 1_455 S
C24 H23 0.950 . S
C24 C25 1.377 1_455 S
C25 C24 1.377 1_655 S
C25 C26 1.413 . S
C26 C22 1.387 . S
C26 C25 1.413 . S
C26 H28 0.951 . S
C27 C22 1.491 . S
C27 C29 1.382 . S
C27 C31 1.404 . S
H28 C26 0.951 . S
C29 C27 1.382 . S
C29 C30 1.390 . S
C29 H34 0.949 1_655 S
C30 C29 1.390 . S
C30 C35 1.399 . S
C31 C27 1.404 . S
C31 H32 0.950 . S
C31 C33 1.375 . S
H32 C31 0.950 . S
C33 C31 1.375 . S
C33 C35 1.382 . S
C33 H37 0.950 . S
H34 C29 0.949 1_455 S
C35 C30 1.399 . S
C35 C33 1.382 . S
C35 H36 0.952 . S
H36 C35 0.952 . S
H37 C33 0.950 . S
H38 C39 0.949 . S
C39 H38 0.949 . S
C39 C40 1.395 . S
C39 C41 1.391 . S
C40 C39 1.395 . S
C40 C43 1.390 1_565 S
C41 C39 1.391 . S
C41 C45 1.387 . S
C41 C46 1.491 . S
H42 C43 0.950 . S
C43 C40 1.390 1_545 S
C43 H42 0.950 . S
C43 C44 1.377 1_545 S
C44 C43 1.377 1_565 S
C44 C45 1.413 . S
C45 C41 1.387 . S
C45 C44 1.413 . S
C45 H47 0.951 . S
C46 C41 1.491 . S
C46 C48 1.382 . S
C46 C50 1.404 . S
H47 C45 0.951 . S
C48 C46 1.382 . S
C48 C49 1.390 . S
C48 H53 0.949 1_565 S
C49 C48 1.390 . S
C49 C54 1.399 . S
C50 C46 1.404 . S
C50 H51 0.950 . S
C50 C52 1.375 . S
H51 C50 0.950 . S
C52 C50 1.375 . S
C52 C54 1.382 . S
C52 H56 0.950 . S
H53 C48 0.949 1_545 S
C54 C49 1.399 . S
C54 C52 1.382 . S
C54 H55 0.952 . S
H55 C54 0.952 . S
H56 C52 0.950 . S
H57 C58 0.949 . S
C58 H57 0.949 . S
C58 C59 1.395 . S
C58 C60 1.391 . S
C59 C58 1.395 . S
C59 C62 1.390 . S
C60 C58 1.391 . S
C60 C64 1.387 . S
C60 C65 1.491 . S
H61 C62 0.950 . S
C62 C59 1.390 . S
C62 H61 0.950 . S
C62 C63 1.378 . S
C63 C62 1.378 . S
C63 C64 1.409 . S
C64 C60 1.387 . S
C64 C63 1.409 . S
C64 H66 0.951 . S
C65 C60 1.491 . S
C65 C67 1.382 . S
C65 C69 1.404 . S
H66 C64 0.951 . S
C67 C65 1.382 . S
C67 C68 1.390 . S
C67 H72 0.949 . S
C68 C67 1.390 . S
C68 C73 1.399 . S
C69 C65 1.404 . S
C69 H70 0.950 . S
C69 C71 1.375 . S
H70 C69 0.950 . S
C71 C69 1.375 . S
C71 C73 1.382 . S
C71 H75 0.950 . S
H72 C67 0.949 . S
C73 C68 1.399 . S
C73 C71 1.382 . S
C73 H74 0.952 . S
H74 C73 0.952 . S
H75 C71 0.950 . S
H76 C77 0.949 . S
C77 H76 0.949 . S
C77 C78 1.395 . S
C77 C79 1.391 1_554 S
C78 C77 1.395 . S
C78 C81 1.390 1_554 S
C79 C77 1.391 1_556 S
C79 C83 1.387 . S
C79 C84 1.491 . S
H80 C81 0.950 . S
C81 C78 1.390 1_556 S
C81 H80 0.950 . S
C81 C82 1.378 . S
C82 C81 1.378 . S
C82 C83 1.409 . S
C83 C79 1.387 . S
C83 C82 1.409 . S
C83 H85 0.951 . S
C84 C79 1.491 . S
C84 C86 1.380 1_556 S
C84 C88 1.405 . S
H85 C83 0.951 . S
C86 C84 1.380 1_554 S
C86 C87 1.390 . S
C86 H91 0.949 . S
C87 C86 1.390 . S
C87 C92 1.399 . S
C88 C84 1.405 . S
C88 H89 0.950 . S
C88 C90 1.375 . S
H89 C88 0.950 . S
C90 C88 1.375 . S
C90 C92 1.382 1_556 S
C90 H94 0.950 . S
H91 C86 0.949 . S
C92 C87 1.399 . S
C92 C90 1.382 1_554 S
C92 H93 0.952 . S
H93 C92 0.952 . S
H94 C90 0.950 . S
H95 C96 0.949 . S
C96 H95 0.949 . S
C96 C97 1.394 . S
C96 C98 1.394 . S
C97 C96 1.394 . S
C97 C100 1.390 1_654 S
C98 C96 1.394 . S
C98 C102 1.385 1_554 S
C98 C103 1.491 . S
H99 C100 0.950 . S
C100 C97 1.390 1_456 S
C100 H99 0.950 . S
C100 C101 1.377 1_455 S
C101 C100 1.377 1_655 S
C101 C102 1.411 . S
C102 C98 1.385 1_556 S
C102 C101 1.411 . S
C102 H104 0.951 . S
C103 C98 1.491 . S
C103 C105 1.382 . S
C103 C107 1.404 1_554 S
H104 C102 0.951 . S
C105 C103 1.382 . S
C105 C106 1.390 . S
C105 H110 0.949 1_655 S
C106 C105 1.390 . S
C106 C111 1.399 . S
C107 C103 1.404 1_556 S
C107 H108 0.950 . S
C107 C109 1.375 . S
H108 C107 0.950 . S
C109 C107 1.375 . S
C109 C111 1.382 1_556 S
C109 H113 0.950 . S
H110 C105 0.949 1_455 S
C111 C106 1.399 . S
C111 C109 1.382 1_554 S
C111 H112 0.952 . S
H112 C111 0.952 . S
H113 C109 0.950 . S
H114 C115 0.949 . S
C115 H114 0.949 . S
C115 C116 1.394 . S
C115 C117 1.391 1_554 S
C116 C115 1.394 . S
C116 C119 1.390 1_564 S
C117 C115 1.391 1_556 S
C117 C121 1.387 . S
C117 C122 1.491 1_556 S
H118 C119 0.950 . S
C119 C116 1.390 1_546 S
C119 H118 0.950 . S
C119 C120 1.377 1_545 S
C120 C119 1.377 1_565 S
C120 C121 1.411 . S
C121 C117 1.387 . S
C121 C120 1.411 . S
C121 H123 0.951 . S
C122 C117 1.491 1_554 S
C122 C124 1.382 . S
C122 C126 1.404 1_554 S
H123 C121 0.951 . S
C124 C122 1.382 . S
C124 C125 1.390 . S
C124 H129 0.949 1_565 S
C125 C124 1.390 . S
C125 C130 1.399 . S
C126 C122 1.404 1_556 S
C126 H127 0.950 . S
C126 C128 1.375 . S
H127 C126 0.950 . S
C128 C126 1.375 . S
C128 C130 1.382 1_556 S
C128 H132 0.950 . S
H129 C124 0.949 1_545 S
C130 C125 1.399 . S
C130 C128 1.382 1_554 S
C130 H131 0.952 . S
H131 C130 0.952 . S
H132 C128 0.950 . S
H133 C134 0.949 . S
C134 H133 0.949 . S
C134 C135 1.395 . S
C134 C136 1.391 1_554 S
C135 C134 1.395 . S
C135 C138 1.390 1_554 S
C136 C134 1.391 1_556 S
C136 C140 1.387 . S
C136 C141 1.491 . S
H137 C138 0.950 . S
C138 C135 1.390 1_556 S
C138 H137 0.950 . S
C138 C139 1.378 . S
C139 C138 1.378 . S
C139 C140 1.409 . S
C140 C136 1.387 . S
C140 C139 1.409 . S
C140 H142 0.951 . S
C141 C136 1.491 . S
C141 C143 1.382 1_556 S
C141 C145 1.404 . S
H142 C140 0.951 . S
C143 C141 1.382 1_554 S
C143 C144 1.390 . S
C143 H148 0.949 . S
C144 C143 1.390 . S
C144 C149 1.399 . S
C145 C141 1.404 . S
C145 H146 0.950 . S
C145 C147 1.375 . S
H146 C145 0.950 . S
C147 C145 1.375 . S
C147 C149 1.382 1_556 S
C147 H151 0.950 . S
H148 C143 0.949 . S
C149 C144 1.399 . S
C149 C147 1.382 1_554 S
C149 H150 0.952 . S
H150 C149 0.952 . S
H151 C147 0.950 . S
Tb152 C162 2.825 1_556 S
Tb152 O163 2.347 1_455 S
Tb152 O166 2.366 . S
Tb152 O171 2.418 . S
Tb152 O172 2.384 1_565 S
Tb152 O175 2.479 1_556 S
Tb152 O176 2.471 1_556 S
Eu153 O164 2.418 . S
Eu153 O165 2.384 1_545 S
Eu153 O168 2.479 . S
Eu153 O169 2.471 . S
Eu153 O170 2.347 1_655 S
Eu153 O173 2.366 . S
Eu153 C183 2.825 . S
C154 O170 1.259 1_565 S
C154 O171 1.265 . S
C155 O172 1.255 . S
C155 O173 1.265 1_455 S
C156 C158 1.380 . S
C156 C159 1.374 . S
C156 C162 1.507 . S
C157 C158 1.384 . S
C157 C161 1.387 . S
C157 H184 0.930 . S
C158 C156 1.380 . S
C158 C157 1.384 . S
C158 H185 0.931 . S
C159 C156 1.374 . S
C159 C160 1.390 . S
C159 H186 0.930 1_455 S
C160 C159 1.390 . S
C160 C161 1.391 . S
C160 H187 0.930 1_455 S
C161 C157 1.387 . S
C161 C160 1.391 . S
C162 Tb152 2.825 1_554 S
C162 C156 1.507 . S
C162 O175 1.238 . S
C162 O176 1.247 . S
O163 Tb152 2.347 1_655 S
O163 C167 1.259 1_565 S
O164 Eu153 2.418 . S
O164 C167 1.265 . S
O165 Eu153 2.384 1_565 S
O165 C174 1.255 . S
O166 Tb152 2.366 . S
O166 C174 1.265 1_455 S
C167 O163 1.259 1_545 S
C167 O164 1.265 . S
O168 Eu153 2.479 . S
O168 C183 1.238 . S
O169 Eu153 2.471 . S
O169 C183 1.247 . S
O170 Eu153 2.347 1_455 S
O170 C154 1.259 1_545 S
O171 Tb152 2.418 . S
O171 C154 1.265 . S
O172 Tb152 2.384 1_545 S
O172 C155 1.255 . S
O173 Eu153 2.366 . S
O173 C155 1.265 1_655 S
C174 O165 1.255 . S
C174 O166 1.265 1_655 S
O175 Tb152 2.479 1_554 S
O175 C162 1.238 . S
O176 Tb152 2.471 1_554 S
O176 C162 1.247 . S
C177 C180 1.380 . S
C177 C181 1.374 . S
C177 C183 1.507 . S
C178 C179 1.387 . S
C178 C182 1.391 . S
C179 C178 1.387 . S
C179 C180 1.384 . S
C179 H188 0.930 . S
C180 C177 1.380 . S
C180 C179 1.384 . S
C180 H189 0.931 . S
C181 C177 1.374 . S
C181 C182 1.390 . S
C181 H190 0.930 1_655 S
C182 C178 1.391 . S
C182 C181 1.390 . S
C182 H191 0.930 1_655 S
C183 Eu153 2.825 . S
C183 O168 1.238 . S
C183 O169 1.247 . S
C183 C177 1.507 . S
H184 C157 0.930 . S
H185 C158 0.931 . S
H186 C159 0.930 1_655 S
H187 C160 0.930 1_655 S
H188 C179 0.930 . S
H189 C180 0.931 . S
H190 C181 0.930 1_455 S
H191 C182 0.930 1_455 S
Tb192 C202 2.825 1_556 S
Tb192 O203 2.347 1_545 S
Tb192 O206 2.366 . S
Tb192 O211 2.418 . S
Tb192 O212 2.384 . S
Tb192 O215 2.479 1_556 S
Tb192 O216 2.471 1_556 S
Eu193 O204 2.418 . S
Eu193 O205 2.384 . S
Eu193 O208 2.479 . S
Eu193 O209 2.471 . S
Eu193 O210 2.347 1_565 S
Eu193 O213 2.366 . S
Eu193 C223 2.825 . S
C194 O210 1.259 . S
C194 O211 1.265 . S
C195 O212 1.255 . S
C195 O213 1.265 1_545 S
C196 C198 1.380 . S
C196 C199 1.374 . S
C196 C202 1.507 . S
C197 C198 1.384 . S
C197 C201 1.387 . S
C197 H224 0.930 . S
C198 C196 1.380 . S
C198 C197 1.384 . S
C198 H225 0.931 . S
C199 C196 1.374 . S
C199 C200 1.390 . S
C199 H226 0.930 1_545 S
C200 C199 1.390 . S
C200 C201 1.391 . S
C200 H227 0.930 1_545 S
C201 C197 1.387 . S
C201 C200 1.391 . S
C202 Tb192 2.825 1_554 S
C202 C196 1.507 . S
C202 O215 1.238 . S
C202 O216 1.247 . S
O203 Tb192 2.347 1_565 S
O203 C207 1.259 . S
O204 Eu193 2.418 . S
O204 C207 1.265 . S
O205 Eu193 2.384 . S
O205 C214 1.255 . S
O206 Tb192 2.366 . S
O206 C214 1.265 1_545 S
C207 O203 1.259 . S
C207 O204 1.265 . S
O208 Eu193 2.479 . S
O208 C223 1.238 . S
O209 Eu193 2.471 . S
O209 C223 1.247 . S
O210 Eu193 2.347 1_545 S
O210 C194 1.259 . S
O211 Tb192 2.418 . S
O211 C194 1.265 . S
O212 Tb192 2.384 . S
O212 C195 1.255 . S
O213 Eu193 2.366 . S
O213 C195 1.265 1_565 S
C214 O205 1.255 . S
C214 O206 1.265 1_565 S
O215 Tb192 2.479 1_554 S
O215 C202 1.238 . S
O216 Tb192 2.471 1_554 S
O216 C202 1.247 . S
C217 C220 1.380 . S
C217 C221 1.374 . S
C217 C223 1.507 . S
C218 C219 1.387 . S
C218 C222 1.391 . S
C219 C218 1.387 . S
C219 C220 1.384 . S
C219 H228 0.930 . S
C220 C217 1.380 . S
C220 C219 1.384 . S
C220 H229 0.931 . S
C221 C217 1.374 . S
C221 C222 1.390 . S
C221 H230 0.930 1_565 S
C222 C218 1.391 . S
C222 C221 1.390 . S
C222 H231 0.930 1_565 S
C223 Eu193 2.825 . S
C223 O208 1.238 . S
C223 O209 1.247 . S
C223 C217 1.507 . S
H224 C197 0.930 . S
H225 C198 0.931 . S
H226 C199 0.930 1_565 S
H227 C200 0.930 1_565 S
H228 C219 0.930 . S
H229 C220 0.931 . S
H230 C221 0.930 1_545 S
H231 C222 0.930 1_545 S
Tb232 C242 2.825 1_556 S
Tb232 O243 2.347 . S
Tb232 O246 2.366 . S
Tb232 O251 2.418 . S
Tb232 O252 2.384 . S
Tb232 O255 2.479 1_556 S
Tb232 O256 2.471 1_556 S
Eu233 O244 2.418 . S
Eu233 O245 2.384 . S
Eu233 O248 2.479 . S
Eu233 O249 2.471 . S
Eu233 O250 2.347 . S
Eu233 O253 2.366 . S
Eu233 C263 2.825 . S
C234 O250 1.259 . S
C234 O251 1.265 . S
C235 O252 1.255 . S
C235 O253 1.265 . S
C236 C238 1.380 . S
C236 C239 1.374 . S
C236 C242 1.507 . S
C237 C238 1.384 . S
C237 C241 1.387 . S
C237 H264 0.930 . S
C238 C236 1.380 . S
C238 C237 1.384 . S
C238 H265 0.931 . S
C239 C236 1.374 . S
C239 C240 1.390 . S
C239 H266 0.930 . S
C240 C239 1.390 . S
C240 C241 1.391 . S
C240 H267 0.930 . S
C241 C237 1.387 . S
C241 C240 1.391 . S
C242 Tb232 2.825 1_554 S
C242 C236 1.507 . S
C242 O255 1.238 . S
C242 O256 1.247 . S
O243 Tb232 2.347 . S
O243 C247 1.259 . S
O244 Eu233 2.418 . S
O244 C247 1.265 . S
O245 Eu233 2.384 . S
O245 C254 1.255 . S
O246 Tb232 2.366 . S
O246 C254 1.265 . S
C247 O243 1.259 . S
C247 O244 1.265 . S
O248 Eu233 2.479 . S
O248 C263 1.238 . S
O249 Eu233 2.471 . S
O249 C263 1.247 . S
O250 Eu233 2.347 . S
O250 C234 1.259 . S
O251 Tb232 2.418 . S
O251 C234 1.265 . S
O252 Tb232 2.384 . S
O252 C235 1.255 . S
O253 Eu233 2.366 . S
O253 C235 1.265 . S
C254 O245 1.255 . S
C254 O246 1.265 . S
O255 Tb232 2.479 1_554 S
O255 C242 1.238 . S
O256 Tb232 2.471 1_554 S
O256 C242 1.247 . S
C257 C260 1.380 . S
C257 C261 1.374 . S
C257 C263 1.507 . S
C258 C259 1.387 . S
C258 C262 1.391 . S
C259 C258 1.387 . S
C259 C260 1.384 . S
C259 H268 0.930 . S
C260 C257 1.380 . S
C260 C259 1.384 . S
C260 H269 0.931 . S
C261 C257 1.374 . S
C261 C262 1.390 . S
C261 H270 0.930 . S
C262 C258 1.391 . S
C262 C261 1.390 . S
C262 H271 0.930 . S
C263 Eu233 2.825 . S
C263 O248 1.238 . S
C263 O249 1.247 . S
C263 C257 1.507 . S
H264 C237 0.930 . S
H265 C238 0.931 . S
H266 C239 0.930 . S
H267 C240 0.930 . S
H268 C259 0.930 . S
H269 C260 0.931 . S
H270 C261 0.930 . S
H271 C262 0.930 . S
Tb272 C282 2.825 1_556 S
Tb272 O283 2.347 . S
Tb272 O286 2.366 . S
Tb272 O291 2.418 . S
Tb272 O292 2.384 1_655 S
Tb272 O295 2.479 1_556 S
Tb272 O296 2.471 1_556 S
Eu273 O284 2.418 . S
Eu273 O285 2.384 1_455 S
Eu273 O288 2.479 . S
Eu273 O289 2.471 . S
Eu273 O290 2.347 . S
Eu273 O293 2.366 . S
Eu273 C303 2.825 . S
C274 O290 1.259 1_655 S
C274 O291 1.265 . S
C275 O292 1.255 . S
C275 O293 1.265 . S
C276 C278 1.380 . S
C276 C279 1.374 . S
C276 C282 1.507 . S
C277 C278 1.384 . S
C277 C281 1.387 . S
C277 H304 0.930 . S
C278 C276 1.380 . S
C278 C277 1.384 . S
C278 H305 0.931 . S
C279 C276 1.374 . S
C279 C280 1.390 . S
C279 H306 0.930 . S
C280 C279 1.390 . S
C280 C281 1.391 . S
C280 H307 0.930 . S
C281 C277 1.387 . S
C281 C280 1.391 . S
C282 Tb272 2.825 1_554 S
C282 C276 1.507 . S
C282 O295 1.238 . S
C282 O296 1.247 . S
O283 Tb272 2.347 . S
O283 C287 1.259 1_655 S
O284 Eu273 2.418 . S
O284 C287 1.265 . S
O285 Eu273 2.384 1_655 S
O285 C294 1.255 . S
O286 Tb272 2.366 . S
O286 C294 1.265 . S
C287 O283 1.259 1_455 S
C287 O284 1.265 . S
O288 Eu273 2.479 . S
O288 C303 1.238 . S
O289 Eu273 2.471 . S
O289 C303 1.247 . S
O290 Eu273 2.347 . S
O290 C274 1.259 1_455 S
O291 Tb272 2.418 . S
O291 C274 1.265 . S
O292 Tb272 2.384 1_455 S
O292 C275 1.255 . S
O293 Eu273 2.366 . S
O293 C275 1.265 . S
C294 O285 1.255 . S
C294 O286 1.265 . S
O295 Tb272 2.479 1_554 S
O295 C282 1.238 . S
O296 Tb272 2.471 1_554 S
O296 C282 1.247 . S
C297 C300 1.380 . S
C297 C301 1.374 . S
C297 C303 1.507 . S
C298 C299 1.387 . S
C298 C302 1.391 . S
C299 C298 1.387 . S
C299 C300 1.384 . S
C299 H308 0.930 . S
C300 C297 1.380 . S
C300 C299 1.384 . S
C300 H309 0.931 . S
C301 C297 1.374 . S
C301 C302 1.390 . S
C301 H310 0.930 . S
C302 C298 1.391 . S
C302 C301 1.390 . S
C302 H311 0.930 . S
C303 Eu273 2.825 . S
C303 O288 1.238 . S
C303 O289 1.247 . S
C303 C297 1.507 . S
H304 C277 0.930 . S
H305 C278 0.931 . S
H306 C279 0.930 . S
H307 C280 0.930 . S
H308 C299 0.930 . S
H309 C300 0.931 . S
H310 C301 0.930 . S
H311 C302 0.930 . S
C312 C313 1.369 . S
C312 C314 1.419 . S
C312 H316 0.930 . S
C313 C312 1.369 . S
C313 C322 1.428 1_565 S
C314 C312 1.419 . S
C314 C315 1.363 . S
C314 H317 0.929 . S
C315 C314 1.363 . S
C315 C321 1.428 1_565 S
H316 C312 0.930 . S
H317 C314 0.929 . S
S318 N319 1.613 . S
S318 N320 1.610 1_565 S
N319 S318 1.613 . S
N319 C322 1.350 1_565 S
N320 S318 1.610 1_545 S
N320 C321 1.351 . S
C321 C315 1.428 1_545 S
C321 N320 1.351 . S
C321 C322 1.434 . S
C322 C313 1.428 1_545 S
C322 N319 1.350 1_545 S
C322 C321 1.434 . S
C323 C324 1.369 . S
C323 C325 1.419 . S
C323 H327 0.930 . S
C324 C323 1.369 . S
C324 C333 1.429 . S
C325 C323 1.419 . S
C325 C326 1.363 . S
C325 H328 0.929 . S
C326 C325 1.363 . S
C326 C332 1.428 . S
H327 C323 0.930 . S
H328 C325 0.929 . S
S329 N330 1.613 . S
S329 N331 1.610 . S
N330 S329 1.613 . S
N330 C333 1.350 . S
N331 S329 1.610 . S
N331 C332 1.351 . S
C332 C326 1.428 . S
C332 N331 1.351 . S
C332 C333 1.434 . S
C333 C324 1.429 . S
C333 N330 1.350 . S
C333 C332 1.434 . S
C334 C335 1.369 . S
C334 C336 1.419 . S
C334 H338 0.930 . S
C335 C334 1.369 . S
C335 C344 1.429 . S
C336 C334 1.419 . S
C336 C337 1.363 . S
C336 H339 0.929 . S
C337 C336 1.363 . S
C337 C343 1.428 . S
H338 C334 0.930 . S
H339 C336 0.929 . S
S340 N341 1.613 . S
S340 N342 1.610 . S
N341 S340 1.613 . S
N341 C344 1.350 . S
N342 S340 1.610 . S
N342 C343 1.351 . S
C343 C337 1.428 . S
C343 N342 1.351 . S
C343 C344 1.434 . S
C344 C335 1.429 . S
C344 N341 1.350 . S
C344 C343 1.434 . S
C345 C346 1.358 1_655 S
C345 C347 1.419 . S
C345 H349 0.930 . S
C346 C345 1.358 1_455 S
C346 C355 1.440 . S
C347 C345 1.419 . S
C347 C348 1.338 1_655 S
C347 H350 0.929 . S
C348 C347 1.338 1_455 S
C348 C354 1.454 . S
H349 C345 0.930 . S
H350 C347 0.929 . S
S351 N352 1.613 . S
S351 N353 1.610 . S
N352 S351 1.613 . S
N352 C355 1.350 . S
N353 S351 1.610 . S
N353 C354 1.351 . S
C354 C348 1.454 . S
C354 N353 1.351 . S
C354 C355 1.434 . S
C355 C346 1.440 . S
C355 N352 1.350 . S
C355 C354 1.434 . S
C356 C357 1.355 1_565 S
C356 C358 1.419 . S
C356 H360 0.930 . S
C357 C356 1.355 1_545 S
C357 C366 1.443 . S
C358 C356 1.419 . S
C358 C359 1.349 1_565 S
C358 H361 0.929 . S
C359 C358 1.349 1_545 S
C359 C365 1.443 . S
H360 C356 0.930 . S
H361 C358 0.929 . S
S362 N363 1.613 . S
S362 N364 1.610 . S
N363 S362 1.613 . S
N363 C366 1.350 . S
N364 S362 1.610 . S
N364 C365 1.351 . S
C365 C359 1.443 . S
C365 N364 1.351 . S
C365 C366 1.434 . S
C366 C357 1.443 . S
C366 N363 1.350 . S
C366 C365 1.434 . S
C367 C368 1.369 . S
C367 C369 1.419 . S
C367 H371 0.930 . S
C368 C367 1.369 . S
C368 C377 1.429 . S
C369 C367 1.419 . S
C369 C370 1.363 . S
C369 H372 0.929 . S
C370 C369 1.363 . S
C370 C376 1.428 . S
H371 C367 0.930 . S
H372 C369 0.929 . S
S373 N374 1.613 . S
S373 N375 1.610 . S
N374 S373 1.613 . S
N374 C377 1.350 . S
N375 S373 1.610 . S
N375 C376 1.351 . S
C376 C370 1.428 . S
C376 N375 1.351 . S
C376 C377 1.434 . S
C377 C368 1.429 . S
C377 N374 1.350 . S
C377 C376 1.434 . S
C378 C379 1.369 . S
C378 C380 1.419 . S
C378 H382 0.930 . S
C379 C378 1.369 . S
C379 C388 1.429 . S
C380 C378 1.419 . S
C380 C381 1.363 . S
C380 H383 0.929 . S
C381 C380 1.363 . S
C381 C387 1.428 . S
H382 C378 0.930 . S
H383 C380 0.929 . S
S384 N385 1.613 . S
S384 N386 1.610 1_554 S
N385 S384 1.613 . S
N385 C388 1.350 . S
N386 S384 1.610 1_556 S
N386 C387 1.351 1_556 S
C387 C381 1.428 . S
C387 N386 1.351 1_554 S
C387 C388 1.434 . S
C388 C379 1.429 . S
C388 N385 1.350 . S
C388 C387 1.434 . S
C389 C390 1.369 . S
C389 C391 1.419 . S
C389 H393 0.930 . S
C390 C389 1.369 . S
C390 C399 1.429 1_655 S
C391 C389 1.419 . S
C391 C392 1.370 . S
C391 H394 0.929 . S
C392 C391 1.370 . S
C392 C398 1.421 1_655 S
H393 C389 0.930 . S
H394 C391 0.929 . S
S395 N396 1.613 . S
S395 N397 1.610 . S
N396 S395 1.613 . S
N396 C399 1.350 . S
N397 S395 1.610 . S
N397 C398 1.351 . S
C398 C392 1.421 1_455 S
C398 N397 1.351 . S
C398 C399 1.434 . S
C399 C390 1.429 1_455 S
C399 N396 1.350 . S
C399 C398 1.434 . S
C400 C401 1.359 1_655 S
C400 C402 1.419 . S
C400 H404 0.930 . S
C401 C400 1.359 1_455 S
C401 C410 1.430 . S
C402 C400 1.419 . S
C402 C403 1.363 . S
C402 H405 0.929 . S
C403 C402 1.363 . S
C403 C409 1.428 . S
H404 C400 0.930 . S
H405 C402 0.929 . S
S406 N407 1.613 . S
S406 N408 1.610 1_455 S
N407 S406 1.613 . S
N407 C410 1.350 . S
N408 S406 1.610 1_655 S
N408 C409 1.351 . S
C409 C403 1.428 . S
C409 N408 1.351 . S
C409 C410 1.434 1_655 S
C410 C401 1.430 . S
C410 N407 1.350 . S
C410 C409 1.434 1_455 S
C411 C412 1.370 1_545 S
C411 C413 1.419 1_545 S
C411 H415 0.930 . S
C412 C411 1.370 1_565 S
C412 C421 1.425 . S
C413 C411 1.419 1_565 S
C413 C414 1.363 . S
C413 H416 0.929 . S
C414 C413 1.363 . S
C414 C420 1.428 . S
H415 C411 0.930 . S
H416 C413 0.929 . S
S417 N418 1.613 . S
S417 N419 1.610 . S
N418 S417 1.613 . S
N418 C421 1.350 . S
N419 S417 1.610 . S
N419 C420 1.351 . S
C420 C414 1.428 . S
C420 N419 1.351 . S
C420 C421 1.434 . S
C421 C412 1.425 . S
C421 N418 1.350 . S
C421 C420 1.434 . S
C422 C423 1.369 . S
C422 C424 1.419 . S
C422 H426 0.930 . S
C423 C422 1.369 . S
C423 C432 1.429 . S
C424 C422 1.419 . S
C424 C425 1.363 . S
C424 H427 0.929 . S
C425 C424 1.363 . S
C425 C431 1.428 . S
H426 C422 0.930 . S
H427 C424 0.929 . S
S428 N429 1.613 . S
S428 N430 1.610 . S
N429 S428 1.613 . S
N429 C432 1.350 . S
N430 S428 1.610 . S
N430 C431 1.351 . S
C431 C425 1.428 . S
C431 N430 1.351 . S
C431 C432 1.434 . S
C432 C423 1.429 . S
C432 N429 1.350 . S
C432 C431 1.434 . S
C433 C434 1.369 . S
C433 C435 1.419 . S
C433 H437 0.930 . S
C434 C433 1.369 . S
C434 C443 1.429 . S
C435 C433 1.419 . S
C435 C436 1.363 . S
C435 H438 0.929 . S
C436 C435 1.363 . S
C436 C442 1.428 . S
H437 C433 0.930 . S
H438 C435 0.929 . S
S439 N440 1.613 . S
S439 N441 1.610 1_556 S
N440 S439 1.613 . S
N440 C443 1.350 1_556 S
N441 S439 1.610 1_554 S
N441 C442 1.351 . S
C442 C436 1.428 . S
C442 N441 1.351 . S
C442 C443 1.434 . S
C443 C434 1.429 . S
C443 N440 1.350 1_554 S
C443 C442 1.434 . S
C444 C445 1.357 1_455 S
C444 C446 1.419 . S
C444 H448 0.930 . S
C445 C444 1.357 1_655 S
C445 C454 1.431 . S
C446 C444 1.419 . S
C446 C447 1.363 . S
C446 H449 0.929 . S
C447 C446 1.363 . S
C447 C453 1.428 . S
H448 C444 0.930 . S
H449 C446 0.929 . S
S450 N451 1.613 . S
S450 N452 1.610 1_655 S
N451 S450 1.613 . S
N451 C454 1.350 . S
N452 S450 1.610 1_455 S
N452 C453 1.351 . S
C453 C447 1.428 . S
C453 N452 1.351 . S
C453 C454 1.434 1_455 S
C454 C445 1.431 . S
C454 N451 1.350 . S
C454 C453 1.434 1_655 S
C455 C456 1.365 1_565 S
C455 C457 1.419 1_565 S
C455 H459 0.930 . S
C456 C455 1.365 1_545 S
C456 C465 1.439 . S
C457 C455 1.419 1_545 S
C457 C458 1.363 . S
C457 H460 0.929 1_545 S
C458 C457 1.363 . S
C458 C464 1.428 . S
H459 C455 0.930 . S
H460 C457 0.929 1_565 S
S461 N462 1.613 . S
S461 N463 1.610 . S
N462 S461 1.613 . S
N462 C465 1.350 . S
N463 S461 1.610 . S
N463 C464 1.351 . S
C464 C458 1.428 . S
C464 N463 1.351 . S
C464 C465 1.434 . S
C465 C456 1.439 . S
C465 N462 1.350 . S
C465 C464 1.434 . S
C466 C467 1.369 . S
C466 C468 1.419 . S
C466 H470 0.930 . S
C467 C466 1.369 . S
C467 C476 1.429 . S
C468 C466 1.419 . S
C468 C469 1.363 . S
C468 H471 0.929 . S
C469 C468 1.363 . S
C469 C475 1.428 . S
H470 C466 0.930 . S
H471 C468 0.929 . S
S472 N473 1.613 . S
S472 N474 1.610 . S
N473 S472 1.613 . S
N473 C476 1.350 . S
N474 S472 1.610 . S
N474 C475 1.351 . S
C475 C469 1.428 . S
C475 N474 1.351 . S
C475 C476 1.434 . S
C476 C467 1.429 . S
C476 N473 1.350 . S
C476 C475 1.434 . S
C477 C478 1.369 . S
C477 C479 1.419 . S
C477 H481 0.930 . S
C478 C477 1.369 . S
C478 C487 1.429 . S
C479 C477 1.419 . S
C479 C480 1.363 . S
C479 H482 0.929 . S
C480 C479 1.363 . S
C480 C486 1.428 . S
H481 C477 0.930 . S
H482 C479 0.929 . S
S483 N484 1.613 . S
S483 N485 1.610 . S
N484 S483 1.613 . S
N484 C487 1.350 . S
N485 S483 1.610 . S
N485 C486 1.351 . S
C486 C480 1.428 . S
C486 N485 1.351 . S
C486 C487 1.434 . S
C487 C478 1.429 . S
C487 N484 1.350 . S
C487 C486 1.434 . S
C488 C489 1.369 . S
C488 C490 1.419 . S
C488 H492 0.930 . S
C489 C488 1.369 . S
C489 C498 1.429 1_455 S
C490 C488 1.419 . S
C490 C491 1.363 . S
C490 H493 0.929 . S
C491 C490 1.363 . S
C491 C497 1.428 1_455 S
H492 C488 0.930 . S
H493 C490 0.929 . S
S494 N495 1.613 . S
S494 N496 1.610 . S
N495 S494 1.613 . S
N495 C498 1.350 1_554 S
N496 S494 1.610 . S
N496 C497 1.351 1_554 S
C497 C491 1.428 1_655 S
C497 N496 1.351 1_556 S
C497 C498 1.434 . S
C498 C489 1.429 1_655 S
C498 N495 1.350 1_556 S
C498 C497 1.434 . S
C499 C500 1.369 . S
C499 C501 1.419 . S
C499 H503 0.930 . S
C500 C499 1.369 . S
C500 C509 1.429 1_545 S
C501 C499 1.419 . S
C501 C502 1.363 . S
C501 H504 0.929 . S
C502 C501 1.363 . S
C502 C508 1.428 1_545 S
H503 C499 0.930 . S
H504 C501 0.929 . S
S505 N506 1.613 1_554 S
S505 N507 1.610 1_554 S
N506 S505 1.613 1_556 S
N506 C509 1.350 . S
N507 S505 1.610 1_556 S
N507 C508 1.351 . S
C508 C502 1.428 1_565 S
C508 N507 1.351 . S
C508 C509 1.434 . S
C509 C500 1.429 1_565 S
C509 N506 1.350 . S
C509 C508 1.434 . S
C510 C511 1.369 . S
C510 C512 1.419 . S
C510 H514 0.930 . S
C511 C510 1.369 . S
C511 C520 1.429 . S
C512 C510 1.419 . S
C512 C513 1.363 . S
C512 H515 0.929 . S
C513 C512 1.363 . S
C513 C519 1.428 . S
H514 C510 0.930 . S
H515 C512 0.929 . S
S516 N517 1.613 . S
S516 N518 1.610 . S
N517 S516 1.613 . S
N517 C520 1.350 . S
N518 S516 1.610 . S
N518 C519 1.351 . S
C519 C513 1.428 . S
C519 N518 1.351 . S
C519 C520 1.434 . S
C520 C511 1.429 . S
C520 N517 1.350 . S
C520 C519 1.434 . S
C521 C522 1.369 . S
C521 C523 1.419 . S
C521 H525 0.930 1_556 S
C522 C521 1.369 . S
C522 C531 1.429 . S
C523 C521 1.419 . S
C523 C524 1.363 . S
C523 H526 0.929 1_556 S
C524 C523 1.363 . S
C524 C530 1.428 . S
H525 C521 0.930 1_554 S
H526 C523 0.929 1_554 S
S527 N528 1.613 . S
S527 N529 1.610 . S
N528 S527 1.613 . S
N528 C531 1.350 . S
N529 S527 1.610 . S
N529 C530 1.351 . S
C530 C524 1.428 . S
C530 N529 1.351 . S
C530 C531 1.434 . S
C531 C522 1.429 . S
C531 N528 1.350 . S
C531 C530 1.434 . S
C532 C533 1.369 . S
C532 C534 1.419 . S
C532 H536 0.930 . S
C533 C532 1.369 . S
C533 C542 1.429 1_655 S
C534 C532 1.419 . S
C534 C535 1.363 . S
C534 H537 0.929 . S
C535 C534 1.363 . S
C535 C541 1.428 1_655 S
H536 C532 0.930 . S
H537 C534 0.929 . S
S538 N539 1.613 . S
S538 N540 1.610 . S
N539 S538 1.613 . S
N539 C542 1.350 . S
N540 S538 1.610 . S
N540 C541 1.351 . S
C541 C535 1.428 1_455 S
C541 N540 1.351 . S
C541 C542 1.434 . S
C542 C533 1.429 1_455 S
C542 N539 1.350 . S
C542 C541 1.434 . S
C543 C544 1.369 1_545 S
C543 C545 1.419 . S
C543 H547 0.930 . S
C544 C543 1.369 1_565 S
C544 C553 1.429 . S
C545 C543 1.419 . S
C545 C546 1.363 1_545 S
C545 H548 0.929 . S
C546 C545 1.363 1_565 S
C546 C552 1.428 . S
H547 C543 0.930 . S
H548 C545 0.929 . S
S549 N550 1.613 . S
S549 N551 1.610 . S
N550 S549 1.613 . S
N550 C553 1.350 . S
N551 S549 1.610 . S
N551 C552 1.351 . S
C552 C546 1.428 . S
C552 N551 1.351 . S
C552 C553 1.434 . S
C553 C544 1.429 . S
C553 N550 1.350 . S
C553 C552 1.434 . S
C554 C555 1.369 . S
C554 C556 1.419 . S
C554 H558 0.930 . S
C555 C554 1.369 . S
C555 C564 1.429 . S
C556 C554 1.419 . S
C556 C557 1.363 . S
C556 H559 0.929 . S
C557 C556 1.363 . S
C557 C563 1.428 . S
H558 C554 0.930 . S
H559 C556 0.929 . S
S560 N561 1.613 1_554 S
S560 N562 1.610 1_554 S
N561 S560 1.613 1_556 S
N561 C564 1.350 . S
N562 S560 1.610 1_556 S
N562 C563 1.351 . S
C563 C557 1.428 . S
C563 N562 1.351 . S
C563 C564 1.434 . S
C564 C555 1.429 . S
C564 N561 1.350 . S
C564 C563 1.434 . S
C565 C566 1.369 . S
C565 C567 1.419 . S
C565 H569 0.930 . S
C566 C565 1.369 . S
C566 C575 1.429 . S
C567 C565 1.419 . S
C567 C568 1.363 . S
C567 H570 0.929 . S
C568 C567 1.363 . S
C568 C574 1.428 . S
H569 C565 0.930 . S
H570 C567 0.929 . S
S571 N572 1.613 1_554 S
S571 N573 1.610 1_554 S
N572 S571 1.613 1_556 S
N572 C575 1.350 . S
N573 S571 1.610 1_556 S
N573 C574 1.351 . S
C574 C568 1.428 . S
C574 N573 1.351 . S
C574 C575 1.434 . S
C575 C566 1.429 . S
C575 N572 1.350 . S
C575 C574 1.434 . S
C313 C125 2.102 . S
C315 C154 2.156 . S
C326 C194 2.172 . S
C324 C144 2.130 . S
C337 C234 2.178 . S
C335 C87 2.144 . S
C348 C274 2.165 1_455 S
C346 C106 2.112 1_455 S
C359 C167 2.158 1_554 S
C357 C49 2.109 1_545 S
C368 C68 2.109 . S
C370 C207 2.172 1_554 S
C379 C11 2.112 . S
C381 C247 2.179 1_554 S
C390 C30 2.114 . S
C392 C287 2.164 1_654 S
C403 C178 0.738 . S
C401 C97 0.755 1_455 S
C414 C218 0.752 . S
C412 C116 0.756 . S
C425 C258 0.744 . S
C423 C135 0.741 . S
C434 C78 0.730 . S
C436 C298 0.742 . S
C445 C21 0.747 . S
C447 C161 0.741 . S
C458 C201 0.756 . S
C456 C40 0.737 1_545 S
C469 C241 0.742 . S
C467 C59 0.759 . S
C478 C2 0.753 . S
C480 C281 0.738 . S
C489 C101 2.227 1_455 S
C491 C155 2.535 . S
C500 C120 2.195 1_545 S
C502 C195 2.507 . S
C513 C235 2.495 . S
C511 C139 2.185 . S
C524 C275 2.526 . S
C522 C82 2.221 . S
C533 C25 2.235 . S
C535 C174 2.541 . S
C546 C214 2.508 . S
C544 C44 2.194 . S
C557 C254 2.495 . S
C555 C63 2.188 . S
C566 C6 2.222 . S
C568 C294 2.530 . S
