# Generated by pormake.
# Topology pts, (4,4)-cn, num edge types: 1
# Building blocks:
#     Node 0, Type 0, BuildingBlock: KUFVIS_clean_linker_0, # of connection points: 4
#     Node 1, Type 0, BuildingBlock: KUFVIS_clean_linker_0, # of connection points: 4
#     Node 2, Type 1, BuildingBlock: AZAVOO_clean_sbu_0, # of connection points: 4
#     Node 3, Type 1, BuildingBlock: AZAVOO_clean_sbu_0, # of connection points: 4
#     Edge 4, Type (0, 1), BuildingBlock: TEMPAE_clean_linker_10, # of connection points: 2
#     Edge 5, Type (0, 1), BuildingBlock: TEMPAE_clean_linker_10, # of connection points: 2
#     Edge 6, Type (0, 1), BuildingBlock: TEMPAE_clean_linker_10, # of connection points: 2
#     Edge 7, Type (0, 1), BuildingBlock: TEMPAE_clean_linker_10, # of connection points: 2
#     Edge 8, Type (0, 1), BuildingBlock: TEMPAE_clean_linker_10, # of connection points: 2
#     Edge 9, Type (0, 1), BuildingBlock: TEMPAE_clean_linker_10, # of connection points: 2
#     Edge 10, Type (0, 1), BuildingBlock: TEMPAE_clean_linker_10, # of connection points: 2
#     Edge 11, Type (0, 1), BuildingBlock: TEMPAE_clean_linker_10, # of connection points: 2
# Relax obj value: 0.013
# Max RMSD: 0.077
# Mean RMSD: 0.073
data_MOF--net-pts--node1-AZAVOO_clean_sbu_0--node2-KUFVIS_clean_linker_0--edge1-TEMPAE_clean_linker_10
_symmetry_space_group_name_H-M    P1
_symmetry_Int_Tables_number       1
_symmetry_cell_setting            triclinic
loop_
_symmetry_equiv_pos_as_xyz
'x, y, z'
_cell_length_a     25.258474
_cell_length_b     26.482244
_cell_length_c     34.923886
_cell_angle_alpha  90.06435
_cell_angle_beta   96.371668
_cell_angle_gamma 90.107278
loop_
_atom_site_label
_atom_site_type_symbol
_atom_site_fract_x
_atom_site_fract_y
_atom_site_fract_z
_atom_type_partial_charge
H0 H 0.34881 0.07242 0.98401 0.0
H1 H 0.48434 0.02865 0.92866 0.0
H2 H 0.50323 0.07362 0.04882 0.0
H3 H 0.57514 0.02357 0.05041 0.0
H4 H 0.71427 0.02096 -0.00957 0.0
H5 H 0.56521 0.06484 0.92963 0.0
C6 C 0.39162 0.06756 0.98523 0.0
C7 C 0.42356 0.07423 0.0202 0.0
C8 C 0.41347 0.05153 0.95232 0.0
C9 C 0.46846 0.04267 0.95417 0.0
C10 C 0.50235 0.05159 -0.01138 0.0
C11 C 0.47891 0.06684 0.02179 0.0
C12 C 0.56157 0.0444 -0.01026 0.0
C13 C 0.59306 0.02978 0.02406 0.0
C14 C 0.64811 0.02156 0.02434 0.0
C15 C 0.67178 0.02722 -0.00969 0.0
C16 C 0.64191 0.04247 0.95636 0.0
C17 C 0.58727 0.05184 0.95612 0.0
H18 H 0.03639 0.68461 0.48575 0.0
H19 H 0.02243 0.54618 0.54626 0.0
H20 H 0.0786 0.54703 0.43304 0.0
H21 H 0.0535 0.46885 0.42994 0.0
H22 H 0.0795 0.33556 0.49833 0.0
H23 H 0.06414 0.47643 0.55492 0.0
C24 C 0.04003 0.64378 0.48677 0.0
C25 C 0.05688 0.61798 0.45545 0.0
C26 C 0.02882 0.61776 0.51964 0.0
C27 C 0.03346 0.56509 0.52092 0.0
C28 C 0.05134 0.53785 0.48986 0.0
C29 C 0.06312 0.56542 0.45708 0.0
C30 C 0.05886 0.48148 0.49206 0.0
C31 C 0.06018 0.452 0.45823 0.0
C32 C 0.06985 0.39984 0.4605 0.0
C33 C 0.07514 0.3763 0.49651 0.0
C34 C 0.07129 0.4039 0.53007 0.0
C35 C 0.06459 0.45626 0.52806 0.0
Mg36 Mg 0.0847 0.99824 0.2566 0.0
O37 O 0.99999 0.99434 0.22313 0.0
O38 O 0.94471 0.9782 0.26755 0.0
Mg39 Mg 0.99126 0.97164 0.32706 0.0
C40 C 0.95311 0.98647 0.23271 0.0
C41 C 0.16571 0.05741 0.21623 0.0
O42 O 0.17925 0.06647 0.25303 0.0
O43 O 0.06552 0.07609 0.27944 0.0
O44 O 1.01321 0.05583 0.32464 0.0
O45 O 0.09693 0.91499 0.25043 0.0
O46 O 0.06069 0.95012 0.29844 0.0
C47 C 0.03832 0.08855 0.30667 0.0
C48 C 0.07472 0.90962 0.28183 0.0
O49 O 0.12355 0.03196 0.20642 0.0
Mg50 Mg 0.98373 0.9985 0.71624 0.0
O51 O 0.06751 0.99621 0.75061 0.0
O52 O 0.12418 0.98516 0.70632 0.0
Mg53 Mg 0.07875 0.97429 0.64657 0.0
C54 C 0.11493 0.99211 0.74117 0.0
C55 C 0.89451 0.04191 0.75511 0.0
O56 O 0.87726 0.03776 0.71833 0.0
O57 O 1.00288 0.07709 0.69429 0.0
O58 O 0.05357 0.05739 0.64774 0.0
O59 O 0.97262 0.91488 0.72186 0.0
O60 O 1.00962 0.95123 0.67475 0.0
C61 C 0.02861 0.08957 0.66626 0.0
C62 C 0.99578 0.91028 0.6908 0.0
O63 O 0.94288 0.03083 0.7659 0.0
C64 C 0.35881 0.12284 0.05477 0.0
C65 C 0.39682 0.08426 0.05512 0.0
C66 C 0.32338 0.12513 0.08297 0.0
C67 C 0.32566 0.08754 0.11188 0.0
C68 C 0.36645 0.05061 0.11389 0.0
C69 C 0.40179 0.04958 0.08552 0.0
C70 C 0.28123 0.16571 0.08019 0.0
C71 C 0.37028 0.00985 0.14424 0.0
C72 C 0.24833 0.10004 0.19888 0.0
C73 C 0.20334 0.06994 0.18789 0.0
C74 C 0.2878 0.10739 0.17407 0.0
C75 C 0.28243 0.0837 0.13752 0.0
C76 C 0.23625 0.05468 0.12575 0.0
C77 C 0.19714 0.04838 0.15098 0.0
C78 C 0.33596 0.13929 0.1874 0.0
C79 C 0.22898 0.02878 0.08695 0.0
H80 H 0.35502 0.1497 0.03121 0.0
H81 H 0.43075 0.0194 0.08554 0.0
H82 H 0.24189 0.14871 0.07029 0.0
H83 H 0.2783 0.18296 0.10883 0.0
H84 H 0.28947 0.19596 0.05963 0.0
H85 H 0.4072 0.98712 0.14423 0.0
H86 H 0.36928 0.02659 0.17328 0.0
H87 H 0.33546 0.98416 0.13893 0.0
H88 H 0.25334 0.11709 0.22729 0.0
H89 H 0.16262 0.025 0.14226 0.0
H90 H 0.34215 0.16844 0.16554 0.0
H91 H 0.37208 0.11524 0.19075 0.0
H92 H 0.33218 0.15832 0.21533 0.0
H93 H 0.23144 0.0568 0.06363 0.0
H94 H 0.1902 0.0087 0.08173 0.0
H95 H 0.26148 1.00105 0.08504 0.0
C96 C 1.018 0.36738 0.57848 0.0
C97 C 0.0681 0.37569 0.56608 0.0
C98 C 1.00977 0.32691 0.60305 0.0
C99 C 0.05295 0.29474 0.61562 0.0
C100 C 0.10492 0.30718 0.60702 0.0
C101 C 0.11177 0.3472 0.58176 0.0
C102 C 0.95373 0.31501 0.61136 0.0
C103 C 0.15229 0.27474 0.62073 0.0
C104 C 0.03525 0.18222 0.68105 0.0
C105 C 0.03002 0.14278 0.65406 0.0
C106 C 0.04205 0.23239 0.66918 0.0
C107 C 0.04231 0.24302 0.62945 0.0
C108 C 0.03456 0.20337 0.60211 0.0
C109 C 0.02923 0.15376 0.61482 0.0
C110 C 0.05127 0.27346 0.69916 0.0
C111 C 0.03317 0.21307 0.55934 0.0
H112 H 0.98421 0.38926 0.56589 0.0
H113 H 0.15043 0.35369 0.57188 0.0
H114 H 0.93731 0.28435 0.5918 0.0
H115 H 0.9531 0.30157 0.64136 0.0
H116 H 0.92723 0.34838 0.60668 0.0
H117 H 0.19049 0.29478 0.61844 0.0
H118 H 0.15083 0.26294 0.65106 0.0
H119 H 0.15158 0.24005 0.60281 0.0
H120 H 0.03627 0.17358 0.71146 0.0
H121 H 0.02465 0.12327 0.59394 0.0
H122 H 0.02623 0.3069 0.69088 0.0
H123 H 0.09347 0.28588 0.70119 0.0
H124 H 0.0427 0.26038 0.72806 0.0
H125 H 1.00351 0.24276 0.55021 0.0
H126 H 0.02297 0.17861 0.54188 0.0
H127 H 0.07264 0.2269 0.55273 0.0
C128 C 0.71569 0.96656 0.06099 0.0
C129 C 0.68294 0.0093 0.06 0.0
C130 C 0.75731 0.95981 0.09062 0.0
C131 C 0.76692 0.9972 0.11959 0.0
C132 C 0.73223 0.03922 0.11973 0.0
C133 C 0.69034 0.04462 0.08997 0.0
C134 C 0.79262 0.91397 0.08981 0.0
C135 C 0.74126 0.08001 0.14999 0.0
C136 C 0.85738 0.96712 0.21104 0.0
C137 C 0.90625 0.98777 0.20299 0.0
C138 C 0.81188 0.96953 0.18411 0.0
C139 C 0.81497 0.99374 0.14836 0.0
C140 C 0.86417 0.01445 0.13991 0.0
C141 C 0.90932 0.0109 0.16721 0.0
C142 C 0.76048 0.94622 0.19394 0.0
C143 C 0.86895 0.04089 0.10216 0.0
H144 H 0.71001 0.93943 0.0376 0.0
H145 H 0.66547 0.07803 0.0888 0.0
H146 H 0.8329 0.92575 0.08345 0.0
H147 H 0.79724 0.89518 0.11836 0.0
H148 H 0.77664 0.88608 0.06767 0.0
H149 H 0.70858 0.10823 0.14771 0.0
H150 H 0.74486 0.06324 0.17925 0.0
H151 H 0.77927 0.09986 0.14684 0.0
H152 H 0.85462 0.9488 0.23849 0.0
H153 H 0.94675 0.02717 0.16082 0.0
H154 H 0.74631 0.9175 0.17199 0.0
H155 H 0.72914 0.97557 0.1935 0.0
H156 H 0.76493 0.92798 0.22274 0.0
H157 H 0.85826 0.01453 0.07781 0.0
H158 H 0.90981 0.05551 0.10018 0.0
H159 H 0.8406 0.07295 0.09864 0.0
C160 C 0.97319 0.68094 0.54936 0.0
C161 C 1.01593 0.64713 0.55332 0.0
C162 C 0.96769 0.71766 0.57755 0.0
C163 C 1.00656 0.72112 0.60997 0.0
C164 C 0.04747 0.68448 0.61549 0.0
C165 C 0.0515 0.64759 0.58705 0.0
C166 C 0.92289 0.7554 0.57092 0.0
C167 C 0.08978 0.68698 0.64952 0.0
C168 C 0.03289 0.8563 0.64159 0.0
C169 C 1.00399 0.86024 0.67346 0.0
C170 C 0.0361 0.81049 0.62195 0.0
C171 C 1.00912 0.7675 0.63413 0.0
C172 C 0.98162 0.77051 0.66722 0.0
C173 C 0.97955 0.8169 0.68664 0.0
C174 C 0.06651 0.80876 0.58705 0.0
C175 C 0.95225 0.72553 0.68097 0.0
H176 H 0.94573 0.68034 0.52319 0.0
H177 H 0.0848 0.62156 0.58982 0.0
H178 H 0.90391 0.7614 0.59771 0.0
H179 H 0.93907 0.79228 0.56257 0.0
H180 H 0.89188 0.74309 0.5477 0.0
H181 H 0.11285 0.6513 0.65321 0.0
H182 H 0.11785 0.71819 0.64512 0.0
H183 H 0.0719 0.69507 0.67647 0.0
H184 H 0.05193 0.88933 0.63115 0.0
H185 H 0.95702 0.81962 0.71122 0.0
H186 H 0.03841 0.80232 0.56075 0.0
H187 H 0.09518 0.77693 0.58948 0.0
H188 H 0.08878 0.8443 0.58326 0.0
H189 H 0.9169 0.71731 0.66009 0.0
H190 H 0.93862 0.73215 0.70973 0.0
H191 H 0.97792 0.69148 0.6825 0.0
C192 C 0.37031 0.99361 0.90154 0.0
C193 C 0.37715 0.0424 0.91677 0.0
C194 C 0.32939 0.98306 0.87192 0.0
C195 C 0.29524 0.02247 0.85699 0.0
C196 C 0.30376 0.07227 0.8712 0.0
C197 C 0.34432 0.08151 0.90118 0.0
C198 C 0.32124 0.92943 0.85778 0.0
C199 C 0.26898 0.11554 0.85559 0.0
C200 C 0.21223 0.00691 0.76015 0.0
C201 C 0.16122 0.9975 0.77108 0.0
C202 C 0.2563 0.01436 0.78777 0.0
C203 C 0.24952 0.01168 0.82736 0.0
C204 C 0.19847 1.00102 0.83866 0.0
C205 C 0.15484 0.99445 0.81039 0.0
C206 C 0.30984 0.02645 0.77455 0.0
C207 C 0.18982 0.99725 0.88065 0.0
H208 H 0.39531 0.96331 0.91409 0.0
H209 H 0.34965 0.1192 0.91318 0.0
H210 H 0.28205 0.91536 0.8648 0.0
H211 H 0.32067 0.92789 0.826 0.0
H212 H 0.3528 0.90365 0.87094 0.0
H213 H 0.28313 0.15247 0.86796 0.0
H214 H 0.26788 0.11742 0.82377 0.0
H215 H 0.22753 0.10934 0.86226 0.0
H216 H 0.21764 0.00966 0.72987 0.0
H217 H 0.11572 0.98692 0.81911 0.0
H218 H 0.34023 0.99923 0.78712 0.0
H219 H 0.32292 0.0646 0.78486 0.0
H220 H 0.30886 0.02546 0.74267 0.0
H221 H 0.21778 0.96939 0.89543 0.0
H222 H 0.14844 0.98586 0.88464 0.0
H223 H 0.19828 0.03424 0.895 0.0
C224 C 0.02844 0.36758 0.39658 0.0
C225 C 0.07126 0.3679 0.42576 0.0
C226 C 0.02304 0.32857 0.36906 0.0
C227 C 0.06107 0.28911 0.37126 0.0
C228 C 0.10706 0.29231 0.39829 0.0
C229 C 0.11167 0.33184 0.42509 0.0
C230 C 0.97423 0.32722 0.33997 0.0
C231 C 0.14875 0.25127 0.40165 0.0
C232 C 1.01607 0.15409 0.35374 0.0
C233 C 0.03853 0.14185 0.31993 0.0
C234 C 0.02107 0.20264 0.36961 0.0
C235 C 0.04856 0.24041 0.35097 0.0
C236 C 0.06848 0.22936 0.31558 0.0
C237 C 0.06365 0.18001 0.3006 0.0
C238 C 0.99944 0.21264 0.40757 0.0
C239 C 0.09694 0.26892 0.29443 0.0
H240 H 0.99719 0.39552 0.39699 0.0
H241 H 0.14524 0.33262 0.44734 0.0
H242 H 0.98436 0.31385 0.31156 0.0
H243 H 0.94476 0.30044 0.34982 0.0
H244 H 0.95518 0.36495 0.33635 0.0
H245 H 0.18507 0.26256 0.42064 0.0
H246 H 0.13202 0.21679 0.41383 0.0
H247 H 0.16036 0.24128 0.37291 0.0
H248 H 0.99629 0.12512 0.36885 0.0
H249 H 0.08068 0.17113 0.27426 0.0
H250 H 0.97292 0.24607 0.40515 0.0
H251 H 0.03282 0.22107 0.43011 0.0
H252 H 0.97672 0.17998 0.41729 0.0
H253 H 0.07576 0.3056 0.29427 0.0
H254 H 0.10064 0.25753 0.26422 0.0
H255 H 0.13757 0.27485 0.30937 0.0
C256 C 0.6856 0.09545 0.90992 0.0
C257 C 0.66936 0.04782 0.92147 0.0
C258 C 0.72067 0.10011 0.88153 0.0
C259 C 0.73953 0.05602 0.86446 0.0
C260 C 0.72122 0.00795 0.87505 0.0
C261 C 0.68663 0.00446 0.90367 0.0
C262 C 0.73944 0.15193 0.87114 0.0
C263 C 0.73981 0.96005 0.85726 0.0
C264 C 0.80189 0.05889 0.77054 0.0
C265 C 0.85615 0.05236 0.78337 0.0
C266 C 0.76366 0.0623 0.79666 0.0
C267 C 0.78003 0.05948 0.83665 0.0
C268 C 0.83499 0.0556 0.84989 0.0
C269 C 0.87242 0.05196 0.82308 0.0
C270 C 0.7055 0.06633 0.78137 0.0
C271 C 0.85406 0.05303 0.89237 0.0
H272 H 0.67283 0.12881 0.92438 0.0
H273 H 0.67443 0.96768 0.91319 0.0
H274 H 0.78261 0.15582 0.88077 0.0
H275 H 0.73414 0.15717 0.83943 0.0
H276 H 0.7178 0.18247 0.88466 0.0
H277 H 0.7193 0.926 0.86697 0.0
H278 H 0.7327 0.96219 0.82539 0.0
H279 H 0.78332 0.95548 0.86509 0.0
H280 H 0.78885 0.05953 0.73991 0.0
H281 H 0.91423 0.0472 0.83327 0.0
H282 H 0.68633 0.09757 0.79588 0.0
H283 H 0.6846 0.03093 0.7877 0.0
H284 H 0.69971 0.07285 0.74976 0.0
H285 H 0.83694 0.08452 0.90794 0.0
H286 H 0.89819 0.05472 0.89806 0.0
H287 H 0.8402 0.01726 0.90449 0.0
C288 C 0.10756 0.6845 0.42531 0.0
C289 C 0.06782 0.64742 0.42139 0.0
C290 C 0.11057 0.72119 0.39677 0.0
C291 C 0.07226 0.72111 0.36391 0.0
C292 C 0.03456 0.68133 0.35851 0.0
C293 C 0.03288 0.64469 0.38743 0.0
C294 C 0.15191 0.76245 0.40344 0.0
C295 C 0.9931 0.6799 0.32392 0.0
C296 C 0.03768 0.85374 0.32996 0.0
C297 C 0.06812 0.85922 0.29905 0.0
C298 C 0.03639 0.80793 0.34984 0.0
C299 C 0.06688 0.76661 0.33888 0.0
C300 C 0.09572 0.77101 0.30654 0.0
C301 C 0.0958 0.81729 0.28685 0.0
C302 C 1.00443 0.80465 0.38387 0.0
C303 C 0.1288 0.72786 0.29407 0.0
H304 H 0.13442 0.68642 0.45175 0.0
H305 H 1.00187 0.61612 0.38474 0.0
H306 H 0.17146 0.76918 0.37698 0.0
H307 H 0.1323 0.79818 0.41059 0.0
H308 H 0.18302 0.75325 0.42744 0.0
H309 H 0.97317 0.64247 0.32052 0.0
H310 H 0.96232 0.7089 0.32736 0.0
H311 H 1.01111 0.68884 0.29717 0.0
H312 H 1.01592 0.88562 0.33949 0.0
H313 H 0.11951 0.82121 0.26298 0.0
H314 H 0.03181 0.80078 0.41084 0.0
H315 H 0.97836 0.77078 0.38134 0.0
H316 H 0.97921 0.83853 0.38649 0.0
H317 H 0.16422 0.72268 0.3155 0.0
H318 H 0.1427 0.73475 0.26544 0.0
H319 H 0.10579 0.69207 0.29287 0.0
loop_
_geom_bond_atom_site_label_1
_geom_bond_atom_site_label_2
_geom_bond_distance
_geom_bond_site_symmetry_2
_ccdc_geom_bond_type
H0 C6 0.931 . S
H1 C9 0.931 . S
H2 C11 0.930 1_565 S
H3 C13 0.930 . S
H4 C15 0.930 . S
H5 C17 0.931 1_565 S
C6 H0 0.931 . S
C6 C7 1.374 1_556 S
C6 C8 1.403 . S
C7 C6 1.374 1_554 S
C7 C11 1.383 . S
C8 C6 1.403 . S
C8 C9 1.400 . S
C9 H1 0.931 . S
C9 C8 1.400 . S
C9 C10 1.368 1_556 S
C10 C9 1.368 1_554 S
C10 C11 1.422 . S
C10 C12 1.500 . S
C11 H2 0.930 1_545 S
C11 C7 1.383 . S
C11 C10 1.422 . S
C12 C10 1.500 . S
C12 C13 1.384 . S
C12 C17 1.408 1_554 S
C13 H3 0.930 . S
C13 C12 1.384 . S
C13 C14 1.389 . S
C14 C13 1.389 . S
C14 C15 1.405 . S
C15 H4 0.930 . S
C15 C14 1.405 . S
C15 C16 1.364 1_554 S
C16 C15 1.364 1_556 S
C16 C17 1.400 . S
C17 H5 0.931 1_545 S
C17 C12 1.408 1_556 S
C17 C16 1.400 . S
H18 C24 0.930 . S
H19 C27 0.927 1_655 S
H20 C29 0.931 . S
H21 C31 0.930 . S
H22 C33 0.930 . S
H23 C35 0.931 . S
C24 H18 0.930 . S
C24 C25 1.380 . S
C24 C26 1.394 . S
C25 C24 1.380 . S
C25 C29 1.382 . S
C26 C24 1.394 . S
C26 C27 1.400 . S
C27 H19 0.927 1_455 S
C27 C26 1.400 . S
C27 C28 1.375 . S
C28 C27 1.375 . S
C28 C29 1.415 . S
C28 C30 1.501 . S
C29 H20 0.931 . S
C29 C25 1.382 . S
C29 C28 1.415 . S
C30 C28 1.501 . S
C30 C31 1.384 . S
C30 C35 1.408 . S
C31 H21 0.930 . S
C31 C30 1.384 . S
C31 C32 1.389 . S
C32 C31 1.389 . S
C32 C33 1.405 . S
C33 H22 0.930 . S
C33 C32 1.405 . S
C33 C34 1.364 . S
C34 C33 1.364 . S
C34 C35 1.400 . S
C35 H23 0.931 . S
C35 C30 1.408 . S
C35 C34 1.400 . S
Mg36 O37 2.028 . S
Mg36 O43 1.986 . S
Mg36 O45 2.114 1_545 S
Mg36 O46 2.251 1_545 S
Mg36 O49 2.010 . S
O37 Mg36 2.028 . S
O37 C40 1.250 1_455 S
O38 Mg39 2.028 . S
O38 C40 1.248 . S
Mg39 O38 2.028 . S
Mg39 O44 2.032 . S
Mg39 O46 2.079 1_645 S
C40 O37 1.250 1_655 S
C40 O38 1.248 . S
C41 O42 1.264 . S
C41 O49 1.249 . S
O42 C41 1.264 . S
O43 Mg36 1.986 . S
O43 C47 1.246 . S
O44 Mg39 2.032 . S
O44 C47 1.259 1_655 S
O45 Mg36 2.114 1_565 S
O45 C48 1.252 . S
O46 Mg36 2.251 1_565 S
O46 Mg39 2.079 1_465 S
O46 C48 1.273 . S
C47 O43 1.246 . S
C47 O44 1.259 1_455 S
C48 O45 1.252 . S
C48 O46 1.273 . S
O49 Mg36 2.010 . S
O49 C41 1.249 . S
Mg50 O51 2.028 1_655 S
Mg50 O57 1.986 . S
Mg50 O59 2.114 1_545 S
Mg50 O60 2.251 1_645 S
Mg50 O63 2.010 . S
O51 Mg50 2.028 1_455 S
O51 C54 1.250 . S
O52 Mg53 2.028 . S
O52 C54 1.248 . S
Mg53 O52 2.028 . S
Mg53 O58 2.032 . S
Mg53 O60 2.079 1_545 S
C54 O51 1.250 . S
C54 O52 1.248 . S
C55 O56 1.264 . S
C55 O63 1.249 . S
O56 C55 1.264 . S
O57 Mg50 1.986 . S
O57 C61 1.246 1_655 S
O58 Mg53 2.032 . S
O58 C61 1.259 . S
O59 Mg50 2.114 1_565 S
O59 C62 1.252 1_655 S
O60 Mg50 2.251 1_465 S
O60 Mg53 2.079 1_565 S
O60 C62 1.273 . S
C61 O57 1.246 1_455 S
C61 O58 1.259 . S
C62 O59 1.252 1_455 S
C62 O60 1.273 . S
O63 Mg50 2.010 . S
O63 C55 1.249 . S
C64 C65 1.391 . S
C64 C66 1.394 . S
C64 H80 0.931 . S
C65 C64 1.391 . S
C65 C69 1.376 1_545 S
C66 C64 1.394 . S
C66 C67 1.369 . S
C66 C70 1.531 . S
C67 C66 1.369 . S
C67 C68 1.410 1_545 S
C67 C75 1.503 . S
C68 C67 1.410 1_565 S
C68 C69 1.392 . S
C68 C71 1.511 . S
C69 C65 1.376 1_565 S
C69 C68 1.392 . S
C69 H81 0.929 . S
C70 C66 1.531 . S
C70 H82 0.960 . S
C70 H83 0.962 . S
C70 H84 0.960 . S
C71 C68 1.511 . S
C71 H85 0.961 . S
C71 H86 0.961 . S
C71 H87 0.961 . S
C72 C73 1.370 1_565 S
C72 C74 1.363 . S
C72 H88 0.931 . S
C73 C72 1.370 1_545 S
C73 C77 1.408 . S
C74 C72 1.363 . S
C74 C75 1.370 1_565 S
C74 C78 1.524 . S
C75 C67 1.503 . S
C75 C74 1.370 1_545 S
C75 C76 1.403 . S
C76 C75 1.403 . S
C76 C77 1.404 . S
C76 C79 1.539 . S
C77 C73 1.408 . S
C77 C76 1.404 . S
C77 H89 0.930 . S
C78 C74 1.524 . S
C78 H90 0.956 . S
C78 H91 0.961 . S
C78 H92 0.961 . S
C79 C76 1.539 . S
C79 H93 0.958 . S
C79 H94 0.961 . S
C79 H95 0.960 . S
H80 C64 0.931 . S
H81 C69 0.929 . S
H82 C70 0.960 . S
H83 C70 0.962 . S
H84 C70 0.960 . S
H85 C71 0.961 . S
H86 C71 0.961 . S
H87 C71 0.961 . S
H88 C72 0.931 . S
H89 C77 0.930 . S
H90 C78 0.956 . S
H91 C78 0.961 . S
H92 C78 0.961 . S
H93 C79 0.958 . S
H94 C79 0.961 . S
H95 C79 0.960 . S
C96 C97 1.391 . S
C96 C98 1.394 . S
C96 H112 0.931 . S
C97 C96 1.391 . S
C97 C101 1.376 . S
C98 C96 1.394 . S
C98 C99 1.369 . S
C98 C102 1.531 1_455 S
C99 C98 1.369 . S
C99 C100 1.410 . S
C99 C107 1.503 . S
C100 C99 1.410 . S
C100 C101 1.392 . S
C100 C103 1.511 . S
C101 C97 1.376 . S
C101 C100 1.392 . S
C101 H113 0.929 . S
C102 C98 1.531 1_655 S
C102 H114 0.960 . S
C102 H115 0.962 1_655 S
C102 H116 0.960 . S
C103 C100 1.511 . S
C103 H117 0.961 . S
C103 H118 0.961 . S
C103 H119 0.961 1_455 S
C104 C105 1.370 . S
C104 C106 1.363 . S
C104 H120 0.931 . S
C105 C104 1.370 . S
C105 C109 1.408 1_455 S
C106 C104 1.363 . S
C106 C107 1.370 . S
C106 C110 1.524 . S
C107 C99 1.503 . S
C107 C106 1.370 . S
C107 C108 1.403 1_455 S
C108 C107 1.403 1_655 S
C108 C109 1.404 . S
C108 C111 1.539 . S
C109 C105 1.408 1_655 S
C109 C108 1.404 . S
C109 H121 0.930 . S
C110 C106 1.524 . S
C110 H122 0.956 . S
C110 H123 0.961 . S
C110 H124 0.961 . S
C111 C108 1.539 . S
C111 H125 0.958 . S
C111 H126 0.961 . S
C111 H127 0.960 . S
H112 C96 0.931 . S
H113 C101 0.929 . S
H114 C102 0.960 . S
H115 C102 0.962 1_455 S
H116 C102 0.960 . S
H117 C103 0.961 . S
H118 C103 0.961 . S
H119 C103 0.961 1_655 S
H120 C104 0.931 . S
H121 C109 0.930 . S
H122 C110 0.956 . S
H123 C110 0.961 . S
H124 C110 0.961 . S
H125 C111 0.958 . S
H126 C111 0.961 . S
H127 C111 0.960 . S
C128 C129 1.391 . S
C128 C130 1.394 . S
C128 H144 0.931 . S
C129 C128 1.391 . S
C129 C133 1.376 . S
C130 C128 1.394 . S
C130 C131 1.369 . S
C130 C134 1.531 . S
C131 C130 1.369 . S
C131 C132 1.410 . S
C131 C139 1.503 . S
C132 C131 1.410 . S
C132 C133 1.392 . S
C132 C135 1.511 . S
C133 C129 1.376 . S
C133 C132 1.392 . S
C133 H145 0.929 . S
C134 C130 1.531 . S
C134 H146 0.960 . S
C134 H147 0.962 1_545 S
C134 H148 0.960 . S
C135 C132 1.511 . S
C135 H149 0.961 . S
C135 H150 0.961 . S
C135 H151 0.961 . S
C136 C137 1.370 1_565 S
C136 C138 1.363 . S
C136 H152 0.931 . S
C137 C136 1.370 1_545 S
C137 C141 1.408 . S
C138 C136 1.363 . S
C138 C139 1.370 1_565 S
C138 C142 1.524 . S
C139 C131 1.503 . S
C139 C138 1.370 1_545 S
C139 C140 1.403 . S
C140 C139 1.403 . S
C140 C141 1.404 . S
C140 C143 1.539 . S
C141 C137 1.408 . S
C141 C140 1.404 . S
C141 H153 0.930 . S
C142 C138 1.524 . S
C142 H154 0.956 . S
C142 H155 0.961 . S
C142 H156 0.961 . S
C143 C140 1.539 . S
C143 H157 0.958 . S
C143 H158 0.961 . S
C143 H159 0.960 . S
H144 C128 0.931 . S
H145 C133 0.929 . S
H146 C134 0.960 . S
H147 C134 0.962 1_565 S
H148 C134 0.960 . S
H149 C135 0.961 . S
H150 C135 0.961 . S
H151 C135 0.961 . S
H152 C136 0.931 . S
H153 C141 0.930 . S
H154 C142 0.956 . S
H155 C142 0.961 . S
H156 C142 0.961 . S
H157 C143 0.958 . S
H158 C143 0.961 . S
H159 C143 0.960 . S
C160 C161 1.391 1_655 S
C160 C162 1.394 . S
C160 H176 0.931 . S
C161 C160 1.391 1_455 S
C161 C165 1.376 . S
C162 C160 1.394 . S
C162 C163 1.369 1_655 S
C162 C166 1.531 . S
C163 C162 1.369 1_455 S
C163 C164 1.410 . S
C163 C171 1.503 . S
C164 C163 1.410 . S
C164 C165 1.392 . S
C164 C167 1.511 . S
C165 C161 1.376 . S
C165 C164 1.392 . S
C165 H177 0.929 . S
C166 C162 1.531 . S
C166 H178 0.960 . S
C166 H179 0.962 . S
C166 H180 0.960 . S
C167 C164 1.511 . S
C167 H181 0.961 . S
C167 H182 0.961 . S
C167 H183 0.961 . S
C168 C169 1.370 1_655 S
C168 C170 1.363 . S
C168 H184 0.931 . S
C169 C168 1.370 1_455 S
C169 C173 1.408 . S
C170 C168 1.363 . S
C170 C171 1.370 1_655 S
C170 C174 1.524 . S
C171 C163 1.503 . S
C171 C170 1.370 1_455 S
C171 C172 1.403 . S
C172 C171 1.403 . S
C172 C173 1.404 . S
C172 C175 1.539 . S
C173 C169 1.408 . S
C173 C172 1.404 . S
C173 H185 0.930 . S
C174 C170 1.524 . S
C174 H186 0.956 . S
C174 H187 0.961 . S
C174 H188 0.961 . S
C175 C172 1.539 . S
C175 H189 0.958 . S
C175 H190 0.961 . S
C175 H191 0.960 . S
H176 C160 0.931 . S
H177 C165 0.929 . S
H178 C166 0.960 . S
H179 C166 0.962 . S
H180 C166 0.960 . S
H181 C167 0.961 . S
H182 C167 0.961 . S
H183 C167 0.961 . S
H184 C168 0.931 . S
H185 C173 0.930 . S
H186 C174 0.956 . S
H187 C174 0.961 . S
H188 C174 0.961 . S
H189 C175 0.958 . S
H190 C175 0.961 . S
H191 C175 0.960 . S
C192 C193 1.391 1_565 S
C192 C194 1.394 . S
C192 H208 0.931 . S
C193 C192 1.391 1_545 S
C193 C197 1.376 . S
C194 C192 1.394 . S
C194 C195 1.369 1_565 S
C194 C198 1.531 . S
C195 C194 1.369 1_545 S
C195 C196 1.410 . S
C195 C203 1.503 . S
C196 C195 1.410 . S
C196 C197 1.392 . S
C196 C199 1.511 . S
C197 C193 1.376 . S
C197 C196 1.392 . S
C197 H209 0.929 . S
C198 C194 1.531 . S
C198 H210 0.960 . S
C198 H211 0.962 . S
C198 H212 0.960 . S
C199 C196 1.511 . S
C199 H213 0.961 . S
C199 H214 0.961 . S
C199 H215 0.961 . S
C200 C201 1.370 . S
C200 C202 1.363 . S
C200 H216 0.931 . S
C201 C200 1.370 . S
C201 C205 1.408 1_545 S
C202 C200 1.363 . S
C202 C203 1.370 . S
C202 C206 1.524 . S
C203 C195 1.503 . S
C203 C202 1.370 . S
C203 C204 1.403 1_545 S
C204 C203 1.403 1_565 S
C204 C205 1.404 . S
C204 C207 1.539 . S
C205 C201 1.408 1_565 S
C205 C204 1.404 . S
C205 H217 0.930 . S
C206 C202 1.524 . S
C206 H218 0.956 . S
C206 H219 0.961 . S
C206 H220 0.961 . S
C207 C204 1.539 . S
C207 H221 0.958 . S
C207 H222 0.961 . S
C207 H223 0.960 . S
H208 C192 0.931 . S
H209 C197 0.929 . S
H210 C198 0.960 . S
H211 C198 0.962 . S
H212 C198 0.960 . S
H213 C199 0.961 . S
H214 C199 0.961 . S
H215 C199 0.961 . S
H216 C200 0.931 . S
H217 C205 0.930 . S
H218 C206 0.956 . S
H219 C206 0.961 . S
H220 C206 0.961 . S
H221 C207 0.958 . S
H222 C207 0.961 . S
H223 C207 0.960 . S
C224 C225 1.391 1_655 S
C224 C226 1.394 . S
C224 H240 0.931 . S
C225 C224 1.391 1_455 S
C225 C229 1.376 . S
C226 C224 1.394 . S
C226 C227 1.369 1_655 S
C226 C230 1.531 . S
C227 C226 1.369 1_455 S
C227 C228 1.410 . S
C227 C235 1.503 . S
C228 C227 1.410 . S
C228 C229 1.392 . S
C228 C231 1.511 . S
C229 C225 1.376 . S
C229 C228 1.392 . S
C229 H241 0.929 . S
C230 C226 1.531 . S
C230 H242 0.960 . S
C230 H243 0.962 . S
C230 H244 0.960 . S
C231 C228 1.511 . S
C231 H245 0.961 . S
C231 H246 0.961 . S
C231 H247 0.961 . S
C232 C233 1.370 . S
C232 C234 1.363 . S
C232 H248 0.931 . S
C233 C232 1.370 . S
C233 C237 1.408 . S
C234 C232 1.363 . S
C234 C235 1.370 . S
C234 C238 1.524 . S
C235 C227 1.503 . S
C235 C234 1.370 . S
C235 C236 1.403 . S
C236 C235 1.403 . S
C236 C237 1.404 . S
C236 C239 1.539 . S
C237 C233 1.408 . S
C237 C236 1.404 . S
C237 H249 0.930 . S
C238 C234 1.524 . S
C238 H250 0.956 . S
C238 H251 0.961 . S
C238 H252 0.961 . S
C239 C236 1.539 . S
C239 H253 0.958 1_455 S
C239 H254 0.961 . S
C239 H255 0.960 . S
H240 C224 0.931 . S
H241 C229 0.929 . S
H242 C230 0.960 . S
H243 C230 0.962 . S
H244 C230 0.960 . S
H245 C231 0.961 . S
H246 C231 0.961 . S
H247 C231 0.961 . S
H248 C232 0.931 . S
H249 C237 0.930 . S
H250 C238 0.956 . S
H251 C238 0.961 . S
H252 C238 0.961 . S
H253 C239 0.958 1_655 S
H254 C239 0.961 . S
H255 C239 0.960 . S
C256 C257 1.391 . S
C256 C258 1.394 . S
C256 H272 0.931 . S
C257 C256 1.391 . S
C257 C261 1.376 1_545 S
C258 C256 1.394 . S
C258 C259 1.369 . S
C258 C262 1.531 . S
C259 C258 1.369 . S
C259 C260 1.410 1_545 S
C259 C267 1.503 . S
C260 C259 1.410 1_565 S
C260 C261 1.392 . S
C260 C263 1.511 . S
C261 C257 1.376 1_565 S
C261 C260 1.392 . S
C261 H273 0.929 . S
C262 C258 1.531 . S
C262 H274 0.960 . S
C262 H275 0.962 . S
C262 H276 0.960 . S
C263 C260 1.511 . S
C263 H277 0.961 . S
C263 H278 0.961 . S
C263 H279 0.961 . S
C264 C265 1.370 1_565 S
C264 C266 1.363 . S
C264 H280 0.931 . S
C265 C264 1.370 1_545 S
C265 C269 1.408 . S
C266 C264 1.363 . S
C266 C267 1.370 1_565 S
C266 C270 1.524 . S
C267 C259 1.503 . S
C267 C266 1.370 1_545 S
C267 C268 1.403 . S
C268 C267 1.403 . S
C268 C269 1.404 . S
C268 C271 1.539 . S
C269 C265 1.408 . S
C269 C268 1.404 . S
C269 H281 0.930 . S
C270 C266 1.524 . S
C270 H282 0.956 . S
C270 H283 0.961 . S
C270 H284 0.961 . S
C271 C268 1.539 . S
C271 H285 0.958 . S
C271 H286 0.961 . S
C271 H287 0.960 . S
H272 C256 0.931 . S
H273 C261 0.929 . S
H274 C262 0.960 . S
H275 C262 0.962 . S
H276 C262 0.960 . S
H277 C263 0.961 . S
H278 C263 0.961 . S
H279 C263 0.961 . S
H280 C264 0.931 . S
H281 C269 0.930 . S
H282 C270 0.956 . S
H283 C270 0.961 . S
H284 C270 0.961 . S
H285 C271 0.958 . S
H286 C271 0.961 . S
H287 C271 0.960 . S
C288 C289 1.391 . S
C288 C290 1.394 . S
C288 H304 0.931 . S
C289 C288 1.391 . S
C289 C293 1.376 1_455 S
C290 C288 1.394 . S
C290 C291 1.369 . S
C290 C294 1.531 . S
C291 C290 1.369 . S
C291 C292 1.410 1_455 S
C291 C299 1.503 . S
C292 C291 1.410 1_655 S
C292 C293 1.392 . S
C292 C295 1.511 . S
C293 C289 1.376 1_655 S
C293 C292 1.392 . S
C293 H305 0.929 . S
C294 C290 1.531 . S
C294 H306 0.960 . S
C294 H307 0.962 . S
C294 H308 0.960 . S
C295 C292 1.511 . S
C295 H309 0.961 . S
C295 H310 0.961 . S
C295 H311 0.961 . S
C296 C297 1.370 . S
C296 C298 1.363 . S
C296 H312 0.931 . S
C297 C296 1.370 . S
C297 C301 1.408 . S
C298 C296 1.363 . S
C298 C299 1.370 . S
C298 C302 1.524 . S
C299 C291 1.503 . S
C299 C298 1.370 . S
C299 C300 1.403 . S
C300 C299 1.403 . S
C300 C301 1.404 . S
C300 C303 1.539 . S
C301 C297 1.408 . S
C301 C300 1.404 . S
C301 H313 0.930 . S
C302 C298 1.524 . S
C302 H314 0.956 . S
C302 H315 0.961 1_455 S
C302 H316 0.961 . S
C303 C300 1.539 . S
C303 H317 0.958 . S
C303 H318 0.961 . S
C303 H319 0.960 . S
H304 C288 0.931 . S
H305 C293 0.929 . S
H306 C294 0.960 . S
H307 C294 0.962 . S
H308 C294 0.960 . S
H309 C295 0.961 . S
H310 C295 0.961 . S
H311 C295 0.961 . S
H312 C296 0.931 . S
H313 C301 0.930 . S
H314 C302 0.956 . S
H315 C302 0.961 1_655 S
H316 C302 0.961 . S
H317 C303 0.958 . S
H318 C303 0.961 . S
H319 C303 0.960 . S
C73 C41 1.303 . S
C65 C7 1.481 . S
C105 C61 1.525 . S
C97 C34 1.476 . S
C137 C40 1.492 . S
C129 C14 1.494 . S
C169 C62 1.544 . S
C161 C26 1.515 . S
C201 C54 1.491 . S
C193 C8 1.481 . S
C233 C47 1.528 . S
C225 C32 1.527 . S
C265 C55 1.302 . S
C257 C16 1.473 . S
C289 C25 1.526 . S
C297 C48 1.549 . S
