# Generated by pormake.
# Topology cml, (3,6)-cn, num edge types: 1
# Building blocks:
#     Node 0, Type 0, BuildingBlock: ESEHIV_clean_linker_0, # of connection points: 3
#     Node 1, Type 0, BuildingBlock: ESEHIV_clean_linker_0, # of connection points: 3
#     Node 2, Type 0, BuildingBlock: ESEHIV_clean_linker_0, # of connection points: 3
#     Node 3, Type 0, BuildingBlock: ESEHIV_clean_linker_0, # of connection points: 3
#     Node 4, Type 0, BuildingBlock: ESEHIV_clean_linker_0, # of connection points: 3
#     Node 5, Type 0, BuildingBlock: ESEHIV_clean_linker_0, # of connection points: 3
#     Node 6, Type 0, BuildingBlock: ESEHIV_clean_linker_0, # of connection points: 3
#     Node 7, Type 0, BuildingBlock: ESEHIV_clean_linker_0, # of connection points: 3
#     Node 8, Type 1, BuildingBlock: OJICUG_clean_sbu_0, # of connection points: 6
#     Node 9, Type 1, BuildingBlock: OJICUG_clean_sbu_0, # of connection points: 6
#     Node 10, Type 1, BuildingBlock: OJICUG_clean_sbu_0, # of connection points: 6
#     Node 11, Type 1, BuildingBlock: OJICUG_clean_sbu_0, # of connection points: 6
#     Edge 12, Type (0, 1), BuildingBlock: CIFDUS_clean_linker_0, # of connection points: 2
#     Edge 13, Type (0, 1), BuildingBlock: CIFDUS_clean_linker_0, # of connection points: 2
#     Edge 14, Type (0, 1), BuildingBlock: CIFDUS_clean_linker_0, # of connection points: 2
#     Edge 15, Type (0, 1), BuildingBlock: CIFDUS_clean_linker_0, # of connection points: 2
#     Edge 16, Type (0, 1), BuildingBlock: CIFDUS_clean_linker_0, # of connection points: 2
#     Edge 17, Type (0, 1), BuildingBlock: CIFDUS_clean_linker_0, # of connection points: 2
#     Edge 18, Type (0, 1), BuildingBlock: CIFDUS_clean_linker_0, # of connection points: 2
#     Edge 19, Type (0, 1), BuildingBlock: CIFDUS_clean_linker_0, # of connection points: 2
#     Edge 20, Type (0, 1), BuildingBlock: CIFDUS_clean_linker_0, # of connection points: 2
#     Edge 21, Type (0, 1), BuildingBlock: CIFDUS_clean_linker_0, # of connection points: 2
#     Edge 22, Type (0, 1), BuildingBlock: CIFDUS_clean_linker_0, # of connection points: 2
#     Edge 23, Type (0, 1), BuildingBlock: CIFDUS_clean_linker_0, # of connection points: 2
#     Edge 24, Type (0, 1), BuildingBlock: CIFDUS_clean_linker_0, # of connection points: 2
#     Edge 25, Type (0, 1), BuildingBlock: CIFDUS_clean_linker_0, # of connection points: 2
#     Edge 26, Type (0, 1), BuildingBlock: CIFDUS_clean_linker_0, # of connection points: 2
#     Edge 27, Type (0, 1), BuildingBlock: CIFDUS_clean_linker_0, # of connection points: 2
#     Edge 28, Type (0, 1), BuildingBlock: CIFDUS_clean_linker_0, # of connection points: 2
#     Edge 29, Type (0, 1), BuildingBlock: CIFDUS_clean_linker_0, # of connection points: 2
#     Edge 30, Type (0, 1), BuildingBlock: CIFDUS_clean_linker_0, # of connection points: 2
#     Edge 31, Type (0, 1), BuildingBlock: CIFDUS_clean_linker_0, # of connection points: 2
#     Edge 32, Type (0, 1), BuildingBlock: CIFDUS_clean_linker_0, # of connection points: 2
#     Edge 33, Type (0, 1), BuildingBlock: CIFDUS_clean_linker_0, # of connection points: 2
#     Edge 34, Type (0, 1), BuildingBlock: CIFDUS_clean_linker_0, # of connection points: 2
#     Edge 35, Type (0, 1), BuildingBlock: CIFDUS_clean_linker_0, # of connection points: 2
# Relax obj value: 0.072
# Max RMSD: 0.084
# Mean RMSD: 0.079
data_MOF--net-cml--node1-OJICUG_clean_sbu_0--node2-ESEHIV_clean_linker_0--edge1-CIFDUS_clean_linker_0
_symmetry_space_group_name_H-M    P1
_symmetry_Int_Tables_number       1
_symmetry_cell_setting            triclinic
loop_
_symmetry_equiv_pos_as_xyz
'x, y, z'
_cell_length_a     32.136269
_cell_length_b     32.473241
_cell_length_c     30.412979
_cell_angle_alpha  90.266044
_cell_angle_beta   89.847558
_cell_angle_gamma 89.61665
loop_
_atom_site_label
_atom_site_type_symbol
_atom_site_fract_x
_atom_site_fract_y
_atom_site_fract_z
_atom_type_partial_charge
H0 H 0.36006 0.38984 0.04217 0.0
H1 H 0.2886 0.3635 0.9265 0.0
H2 H 0.27233 0.29101 0.04387 0.0
C3 C 0.33674 0.37169 0.02534 0.0
C4 C 0.31665 0.34007 0.04801 0.0
C5 C 0.32744 0.3797 0.98122 0.0
C6 C 0.29731 0.35588 0.9599 0.0
C7 C 0.2769 0.3239 0.98209 0.0
C8 C 0.28748 0.31562 0.02614 0.0
H9 H 0.62054 0.60987 0.50499 0.0
H10 H 0.69741 0.63222 0.39206 0.0
H11 H 0.70393 0.71217 0.50577 0.0
C12 C 0.64374 0.62828 0.48831 0.0
C13 C 0.6601 0.66285 0.5095 0.0
C14 C 0.65723 0.61696 0.44613 0.0
C15 C 0.68684 0.64115 0.42462 0.0
C16 C 0.70418 0.67561 0.44587 0.0
C17 C 0.69005 0.68661 0.48821 0.0
H18 H 0.67303 0.44489 0.0673 0.0
H19 H 0.73886 0.32975 0.06578 0.0
H20 H 0.76935 0.42488 0.97214 0.0
C21 C 0.6978 0.42558 0.05416 0.0
C22 C 0.72168 0.43995 0.019 0.0
C23 C 0.70257 0.38537 0.06993 0.0
C24 C 0.73472 0.36046 0.05278 0.0
C25 C 0.75984 0.37444 0.01755 0.0
C26 C 0.75249 0.41425 0.00074 0.0
H27 H 0.3299 0.57012 0.53826 0.0
H28 H 0.24405 0.59447 0.43375 0.0
H29 H 0.24261 0.66984 0.55117 0.0
C30 C 0.30376 0.58755 0.52543 0.0
C31 C 0.28817 0.62129 0.54934 0.0
C32 C 0.28761 0.5774 0.48404 0.0
C33 C 0.25557 0.60167 0.4663 0.0
C34 C 0.23884 0.63525 0.49016 0.0
C35 C 0.25535 0.6446 0.53189 0.0
H36 H 0.81667 0.95504 0.02097 0.0
H37 H 0.71107 0.92459 0.94225 0.0
H38 H 0.76012 0.83618 0.03438 0.0
C39 C 0.79259 0.93333 0.0122 0.0
C40 C 0.79187 0.8945 0.03215 0.0
C41 C 0.76437 0.94373 0.97899 0.0
C42 C 0.73313 0.91602 0.96756 0.0
C43 C 0.73074 0.87736 0.98801 0.0
C44 C 0.76043 0.8667 0.02016 0.0
H45 H 0.16923 0.04435 0.55746 0.0
H46 H 0.25171 0.06255 0.44807 0.0
H47 H 0.247 0.15132 0.55347 0.0
C48 C 0.19249 0.06259 0.54077 0.0
C49 C 0.20549 0.09978 0.55999 0.0
C50 C 0.20783 0.04946 0.49969 0.0
C51 C 0.23945 0.07232 0.47965 0.0
C52 C 0.25456 0.10853 0.49926 0.0
C53 C 0.23721 0.12225 0.5394 0.0
H54 H 0.11713 0.87323 0.99631 0.0
H55 H 0.21497 0.78331 0.99625 0.0
H56 H 0.20951 0.87467 0.89356 0.0
C57 C 0.1447 0.86024 0.98078 0.0
C58 C 0.16045 0.87762 0.94203 0.0
C59 C 0.16449 0.82651 0.00017 0.0
C60 C 0.20007 0.80953 0.98076 0.0
C61 C 0.21687 0.82672 0.94226 0.0
C62 C 0.19646 0.86052 0.92265 0.0
H63 H 0.89859 0.12211 0.50407 0.0
H64 H 0.79588 0.11163 0.41505 0.0
H65 H 0.79399 0.20426 0.51733 0.0
C66 C 0.86865 0.13318 0.49253 0.0
C67 C 0.84803 0.16505 0.51517 0.0
C68 C 0.8497 0.1139 0.45658 0.0
C69 C 0.81047 0.12722 0.44251 0.0
C70 C 0.79018 0.16036 0.46357 0.0
C71 C 0.8091 0.17882 0.50035 0.0
Sc72 Sc 0.99373 0.76786 0.28705 0.0
Sc73 Sc 0.01022 0.87535 0.29102 0.0
Sc74 Sc 0.98682 0.82191 0.38762 0.0
O75 O -0.00291 0.8217 0.32187 0.0
C76 C 0.922 0.75423 0.35739 0.0
C77 C 0.94428 0.83107 0.22741 0.0
C78 C 0.94107 0.9043 0.3609 0.0
C79 C 0.06667 0.81386 0.23544 0.0
C80 C 0.04608 0.74335 0.37142 0.0
C81 C 0.05941 0.88835 0.3798 0.0
O82 O 0.94107 0.74449 0.32236 0.0
O83 O 0.96456 0.86243 0.24054 0.0
O84 O 0.94333 0.87252 0.38502 0.0
O85 O 0.04518 0.78224 0.24412 0.0
O86 O 0.03044 0.77173 0.39556 0.0
O87 O 0.05649 0.89385 0.33856 0.0
O88 O 0.03633 0.73772 0.33126 0.0
O89 O 0.05902 0.84901 0.25192 0.0
O90 O 0.03601 0.86423 0.40109 0.0
O91 O 0.95027 0.79481 0.24182 0.0
O92 O 0.93456 0.78189 0.38348 0.0
O93 O 0.9637 0.90952 0.32707 0.0
Sc94 Sc 0.0046 0.22255 0.81642 0.0
Sc95 Sc 0.97274 0.11877 0.81248 0.0
Sc96 Sc 0.98648 0.16706 0.91424 0.0
O97 O 0.98823 0.16952 0.84764 0.0
C98 C 0.06523 0.22371 0.89955 0.0
C99 C 0.04736 0.15625 0.75461 0.0
C100 C 0.02932 0.08103 0.88842 0.0
C101 C 0.93071 0.18837 0.75577 0.0
C102 C 0.94414 0.25384 0.89389 0.0
C103 C 0.90784 0.11279 0.89152 0.0
O104 O 0.05507 0.23558 0.86125 0.0
O105 O 0.02086 0.12902 0.76483 0.0
O106 O 0.02067 0.10986 0.91551 0.0
O107 O 0.95733 0.21557 0.76625 0.0
O108 O 0.95175 0.22309 0.91825 0.0
O109 O 0.92102 0.10226 0.85375 0.0
O110 O 0.96062 0.25876 0.85602 0.0
O111 O 0.92954 0.15284 0.77299 0.0
O112 O 0.92807 0.13641 0.91665 0.0
O113 O 0.04904 0.19135 0.7734 0.0
O114 O 0.04392 0.19857 0.92176 0.0
O115 O 0.01523 0.08014 0.84929 0.0
Sc116 Sc 0.50263 0.26213 0.33191 0.0
Sc117 Sc 0.48664 0.3689 0.32105 0.0
Sc118 Sc 0.49798 0.32588 0.42606 0.0
O119 O 0.49576 0.31894 0.35969 0.0
C120 C 0.44498 0.24369 0.41469 0.0
C121 C 0.43269 0.30282 0.27058 0.0
C122 C 0.42613 0.38956 0.40197 0.0
C123 C 0.55511 0.31697 0.26666 0.0
C124 C 0.56789 0.25835 0.41121 0.0
C125 C 0.54837 0.40449 0.39274 0.0
O126 O 0.45575 0.23641 0.37501 0.0
O127 O 0.43862 0.33927 0.28436 0.0
O128 O 0.44315 0.36403 0.42795 0.0
O129 O 0.55022 0.28314 0.28692 0.0
O130 O 0.55278 0.28872 0.43231 0.0
O131 O 0.53387 0.4039 0.35392 0.0
O132 O 0.55225 0.24463 0.37576 0.0
O133 O 0.53298 0.34889 0.2741 0.0
O134 O 0.53743 0.379 0.42214 0.0
O135 O 0.45463 0.27231 0.28312 0.0
O136 O 0.45913 0.27355 0.43713 0.0
O137 O 0.43913 0.39532 0.36298 0.0
Sc138 Sc 0.49496 0.70324 0.8048 0.0
Sc139 Sc 0.50879 0.59581 0.81135 0.0
Sc140 Sc 0.50769 0.65499 0.90813 0.0
O141 O 0.5038 0.65143 0.84143 0.0
C142 C 0.55876 0.73379 0.87841 0.0
C143 C 0.55928 0.65318 0.74529 0.0
C144 C 0.57827 0.58824 0.88516 0.0
C145 C 0.43635 0.63824 0.75612 0.0
C146 C 0.43521 0.71974 0.88704 0.0
C147 C 0.45517 0.57312 0.89615 0.0
O148 O 0.54174 0.73704 0.84082 0.0
O149 O 0.54965 0.61859 0.76155 0.0
O150 O 0.56147 0.61458 0.91089 0.0
O151 O 0.44745 0.67502 0.76445 0.0
O152 O 0.45472 0.69576 0.91285 0.0
O153 O 0.46855 0.56601 0.85753 0.0
O154 O 0.44593 0.7253 0.84726 0.0
O155 O 0.45521 0.60697 0.7714 0.0
O156 O 0.46598 0.60444 0.9184 0.0
O157 O 0.54257 0.68686 0.75769 0.0
O158 O 0.54949 0.70576 0.90559 0.0
O159 O 0.56292 0.57885 0.84806 0.0
H160 H 0.20417 0.29962 0.01892 0.0
H161 H 0.27143 0.29895 0.89581 0.0
H162 H 0.21128 0.2693 0.85871 0.0
H163 H 0.13865 0.24485 0.86114 0.0
H164 H 0.07442 0.24121 0.98583 0.0
H165 H 0.13468 0.27064 0.02254 0.0
C166 C 0.20622 0.29215 0.98419 0.0
C167 C 0.24228 0.30175 0.96026 0.0
C168 C 0.17192 0.2745 0.96326 0.0
C169 C 0.2438 0.29256 0.91499 0.0
C170 C 0.20947 0.27546 0.89373 0.0
C171 C 0.13801 0.25061 0.8963 0.0
C172 C 0.10224 0.24119 0.92076 0.0
C173 C 0.17316 0.26676 0.91746 0.0
C174 C 0.10177 0.24817 0.96639 0.0
C175 C 0.13614 0.26502 0.9874 0.0
H176 H 0.7691 0.64207 0.40037 0.0
H177 H 0.72006 0.75833 0.44774 0.0
H178 H 0.78358 0.79278 0.42442 0.0
H179 H 0.85427 0.7891 0.39425 0.0
H180 H 0.90154 0.67407 0.34247 0.0
H181 H 0.83671 0.6398 0.36314 0.0
C182 C 0.77171 0.67512 0.40462 0.0
C183 C 0.73997 0.6975 0.42619 0.0
C184 C 0.80801 0.6948 0.39067 0.0
C185 C 0.74435 0.74023 0.43201 0.0
C186 C 0.78058 0.75998 0.41858 0.0
C187 C 0.85027 0.75651 0.38753 0.0
C188 C 0.88259 0.73381 0.36766 0.0
C189 C 0.81288 0.73739 0.39872 0.0
C190 C 0.87696 0.69193 0.35803 0.0
C191 C 0.84003 0.67242 0.36985 0.0
H192 H 0.83322 0.39532 0.97622 0.0
H193 H 0.75681 0.2902 0.00784 0.0
H194 H 0.80691 0.24481 0.97239 0.0
H195 H 0.87208 0.23427 0.93235 0.0
H196 H 0.94549 0.33851 0.89326 0.0
H197 H 0.8956 0.38523 0.92987 0.0
C198 C 0.82691 0.36262 0.97488 0.0
C199 C 0.7911 0.3466 0.9957 0.0
C200 C 0.85502 0.33651 0.95245 0.0
C201 C 0.78443 0.30379 0.99382 0.0
C202 C 0.81286 0.27763 0.97283 0.0
C203 C 0.87698 0.26731 0.93159 0.0
C204 C 0.9124 0.28308 0.9105 0.0
C205 C 0.84818 0.29364 0.95217 0.0
C206 C 0.91827 0.32582 0.90915 0.0
C207 C 0.88995 0.35237 0.93036 0.0
H208 H 0.17431 0.61037 0.43798 0.0
H209 H 0.22666 0.71858 0.49938 0.0
H210 H 0.17011 0.76045 0.47061 0.0
H211 H 0.10666 0.76703 0.42672 0.0
H212 H 0.05872 0.66112 0.35806 0.0
H213 H 0.11343 0.61777 0.3901 0.0
C214 C 0.1739 0.64319 0.44459 0.0
C215 C 0.20474 0.66096 0.47138 0.0
C216 C 0.14212 0.66758 0.42649 0.0
C217 C 0.20293 0.70359 0.47998 0.0
C218 C 0.17076 0.72778 0.46315 0.0
C219 C 0.10813 0.73438 0.41904 0.0
C220 C 0.07866 0.71703 0.3906 0.0
C221 C 0.14023 0.71011 0.43643 0.0
C222 C 0.0812 0.67498 0.38002 0.0
C223 C 0.11237 0.65027 0.39833 0.0
H224 H 0.70253 0.86247 0.90507 0.0
H225 H 0.68593 0.82549 0.04021 0.0
H226 H 0.63165 0.77758 0.01787 0.0
H227 H 0.58828 0.74739 0.96051 0.0
H228 H 0.60221 0.78675 0.82582 0.0
H229 H 0.65754 0.83377 0.84789 0.0
C230 C 0.68668 0.84441 0.92981 0.0
C231 C 0.69823 0.84773 0.97433 0.0
C232 C 0.65488 0.81768 0.91691 0.0
C233 C 0.67804 0.82322 0.00568 0.0
C234 C 0.64678 0.79606 0.99299 0.0
C235 C 0.60339 0.76619 0.93586 0.0
C236 C 0.5912 0.76344 0.89152 0.0
C237 C 0.6349 0.79319 0.94875 0.0
C238 C 0.61088 0.78836 0.86018 0.0
C239 C 0.64261 0.81511 0.87274 0.0
H240 H 0.32147 0.14587 0.5361 0.0
H241 H 0.26102 0.12559 0.41137 0.0
H242 H 0.31623 0.16273 0.37375 0.0
H243 H 0.38111 0.2025 0.37631 0.0
H244 H 0.43895 0.22633 0.50165 0.0
H245 H 0.38537 0.18654 0.53888 0.0
C246 C 0.32016 0.14993 0.50075 0.0
C247 C 0.28732 0.13266 0.47666 0.0
C248 C 0.35166 0.17189 0.47933 0.0
C249 C 0.28635 0.13786 0.43073 0.0
C250 C 0.31781 0.1593 0.40914 0.0
C251 C 0.38214 0.19856 0.4117 0.0
C252 C 0.41394 0.21716 0.43617 0.0
C253 C 0.35067 0.17641 0.43308 0.0
C254 C 0.41465 0.21237 0.4821 0.0
C255 C 0.38403 0.18967 0.50344 0.0
H256 H 0.28483 0.80194 0.9881 0.0
H257 H 0.23866 0.815 0.8557 0.0
H258 H 0.30338 0.78534 0.82677 0.0
H259 H 0.37152 0.75247 0.83949 0.0
H260 H 0.41487 0.73554 0.97254 0.0
H261 H 0.35219 0.76921 0.00085 0.0
C262 C 0.28858 0.79786 0.9529 0.0
C263 C 0.25666 0.81026 0.92417 0.0
C264 C 0.32525 0.77988 0.93664 0.0
C265 C 0.26277 0.80594 0.87858 0.0
C266 C 0.29965 0.78873 0.86203 0.0
C267 C 0.36738 0.75641 0.87467 0.0
C268 C 0.39783 0.74148 0.90386 0.0
C269 C 0.33091 0.77519 0.89081 0.0
C270 C 0.39183 0.74652 0.94936 0.0
C271 C 0.35604 0.76583 0.96559 0.0
H272 H 0.72382 0.18845 0.51146 0.0
H273 H 0.76508 0.167 0.37792 0.0
H274 H 0.69867 0.19224 0.3503 0.0
H275 H 0.62996 0.22318 0.36372 0.0
H276 H 0.59144 0.2509 0.49664 0.0
H277 H 0.65611 0.22116 0.52481 0.0
C278 C 0.71861 0.18974 0.47629 0.0
C279 C 0.74952 0.17566 0.44694 0.0
C280 C 0.68086 0.20556 0.46047 0.0
C281 C 0.74166 0.17684 0.40144 0.0
C282 C 0.70378 0.19162 0.38551 0.0
C283 C 0.63565 0.22233 0.39886 0.0
C284 C 0.60608 0.23893 0.42812 0.0
C285 C 0.67327 0.20625 0.4147 0.0
C286 C 0.61394 0.23833 0.47353 0.0
C287 C 0.65082 0.22134 0.48963 0.0
H288 H 0.34383 0.45657 0.01176 0.0
H289 H 0.35906 0.37807 0.89787 0.0
H290 H 0.39768 0.4322 0.86043 0.0
H291 H 0.43023 0.49997 0.86173 0.0
H292 H 0.41716 0.57768 0.97676 0.0
H293 H 0.37477 0.52535 0.01222 0.0
C294 C 0.35581 0.45125 0.97883 0.0
C295 C 0.34892 0.4133 0.95773 0.0
C296 C 0.37846 0.48219 0.95781 0.0
C297 C 0.36376 0.40715 0.91469 0.0
C298 C 0.38603 0.43796 0.89338 0.0
C299 C 0.41796 0.50569 0.89446 0.0
C300 C 0.42718 0.54266 0.9166 0.0
C301 C 0.39399 0.47537 0.91486 0.0
C302 C 0.41081 0.54945 0.95898 0.0
C303 C 0.38656 0.51954 0.97934 0.0
H304 H 0.65355 0.54248 0.48436 0.0
H305 H 0.62651 0.60546 0.36318 0.0
H306 H 0.59394 0.5431 0.33376 0.0
H307 H 0.56739 0.4732 0.34577 0.0
H308 H 0.5929 0.41172 0.46864 0.0
H309 H 0.632 0.47113 0.49411 0.0
C310 C 0.64059 0.54245 0.45145 0.0
C311 C 0.64167 0.57849 0.42616 0.0
C312 C 0.62152 0.50694 0.43522 0.0
C313 C 0.62582 0.57797 0.3832 0.0
C314 C 0.60708 0.54246 0.36653 0.0
C315 C 0.58197 0.47251 0.37788 0.0
C316 C 0.57669 0.4382 0.40545 0.0
C317 C 0.6039 0.50708 0.3927 0.0
C318 C 0.596 0.43785 0.4469 0.0
C319 C 0.61836 0.47183 0.46156 0.0
H320 H 0.70797 0.45125 0.93224 0.0
H321 H 0.70396 0.51453 0.05714 0.0
H322 H 0.66282 0.57015 0.02462 0.0
H323 H 0.61836 0.59405 0.96411 0.0
H324 H 0.62156 0.52904 0.83981 0.0
H325 H 0.67329 0.48141 0.86854 0.0
C326 C 0.69947 0.47794 0.95196 0.0
C327 C 0.70847 0.47856 0.99711 0.0
C328 C 0.67494 0.50914 0.93336 0.0
C329 C 0.69689 0.51321 0.02235 0.0
C330 C 0.67319 0.54486 0.00385 0.0
C331 C 0.63088 0.56994 0.94302 0.0
C332 C 0.61513 0.56458 0.90025 0.0
C333 C 0.66034 0.5421 0.95991 0.0
C334 C 0.63237 0.53353 0.87319 0.0
C335 C 0.66205 0.50616 0.88955 0.0
H336 H 0.30497 0.5009 0.51404 0.0
H337 H 0.31223 0.5762 0.3979 0.0
H338 H 0.35179 0.52202 0.35996 0.0
H339 H 0.39099 0.45687 0.36305 0.0
H340 H 0.3856 0.383 0.48073 0.0
H341 H 0.33851 0.43295 0.51466 0.0
C342 C 0.31496 0.50524 0.48028 0.0
C343 C 0.30618 0.54259 0.45894 0.0
C344 C 0.33831 0.47439 0.45908 0.0
C345 C 0.31855 0.54764 0.41496 0.0
C346 C 0.34141 0.5168 0.39339 0.0
C347 C 0.37903 0.45129 0.39585 0.0
C348 C 0.39243 0.41645 0.41947 0.0
C349 C 0.35245 0.48054 0.41557 0.0
C350 C 0.37631 0.40974 0.46189 0.0
C351 C 0.34938 0.43834 0.48142 0.0
H352 H 0.77871 0.02141 0.00754 0.0
H353 H 0.77058 0.94725 0.89002 0.0
H354 H 0.80909 -0.00106 0.84886 0.0
H355 H 0.85839 0.05617 0.85136 0.0
H356 H 0.87041 0.12759 0.97086 0.0
H357 H 0.81707 0.08626 0.00596 0.0
C358 C 0.78429 0.01735 0.97257 0.0
C359 C 0.77279 0.9804 0.95199 0.0
C360 C 0.80818 0.04613 0.94976 0.0
C361 C 0.77932 0.9755 0.90656 0.0
C362 C 0.80188 0.00476 0.88318 0.0
C363 C 0.84878 0.06326 0.88478 0.0
C364 C 0.86948 0.09392 0.90891 0.0
C365 C 0.81869 0.0388 0.9052 0.0
C366 C 0.85585 0.10339 0.95183 0.0
C367 C 0.82526 0.07982 0.97201 0.0
H368 H 0.12612 0.029 0.50072 0.0
H369 H 0.24385 0.99178 0.44374 0.0
H370 H 0.20857 0.93932 0.39991 0.0
H371 H 0.14317 0.90451 0.37684 0.0
H372 H 0.02801 0.93883 0.44073 0.0
H373 H 0.06367 0.99125 0.48366 0.0
C374 C 0.14459 0.00881 0.47981 0.0
C375 C 0.18775 0.01461 0.47584 0.0
C376 C 0.12443 0.97808 0.45577 0.0
C377 C 0.21049 0.98866 0.44715 0.0
C378 C 0.19037 0.95842 0.42218 0.0
C379 C 0.12624 0.92344 0.40039 0.0
C380 C 0.08323 0.91807 0.40585 0.0
C381 C 0.14722 0.95306 0.42592 0.0
C382 C 0.06129 0.94243 0.43643 0.0
C383 C 0.08158 0.97243 0.46085 0.0
H384 H 0.13574 0.94591 0.98617 0.0
H385 H 0.13921 0.89235 0.85626 0.0
H386 H 0.0999 0.95132 0.82746 0.0
H387 H 0.06141 0.01641 0.84046 0.0
H388 H 0.05837 0.06857 0.97149 0.0
H389 H 0.1003 0.01161 0.99853 0.0
C390 C 0.12781 0.94711 0.95154 0.0
C391 C 0.13986 0.91466 0.92346 0.0
C392 C 0.10504 0.98072 0.93547 0.0
C393 C 0.13028 0.91704 0.87849 0.0
C394 C 0.10762 0.9506 0.86212 0.0
C395 C 0.06997 0.01539 0.8749 0.0
C396 C 0.05633 0.04676 0.90384 0.0
C397 C 0.0943 0.98236 0.89048 0.0
C398 C 0.06816 0.04496 0.94833 0.0
C399 C 0.0922 0.01233 0.96396 0.0
H400 H 0.82266 0.03548 0.45095 0.0
H401 H 0.92317 0.11504 0.4129 0.0
H402 H 0.95836 0.05732 0.3759 0.0
H403 H 0.96167 0.98407 0.35722 0.0
H404 H 0.86489 0.90256 0.4012 0.0
H405 H 0.82654 0.96125 0.43287 0.0
C406 C 0.85216 0.03996 0.43428 0.0
C407 C 0.87048 0.0791 0.43424 0.0
C408 C 0.87257 0.00647 0.41418 0.0
C409 C 0.90882 0.08493 0.41319 0.0
C410 C 0.92877 0.05208 0.39205 0.0
C411 C 0.9318 0.97929 0.37306 0.0
C412 C 0.91563 0.93934 0.37635 0.0
C413 C 0.91103 0.01272 0.39258 0.0
C414 C 0.8776 0.93322 0.39807 0.0
C415 C 0.85585 0.96667 0.41624 0.0
H416 H 0.3489 0.27208 0.08744 0.0
H417 H 0.30546 0.39574 0.11308 0.0
H418 H 0.33147 0.39202 0.18834 0.0
H419 H 0.37503 0.35776 0.24239 0.0
H420 H 0.42361 0.23584 0.21591 0.0
H421 H 0.38617 0.23414 0.14606 0.0
C422 C 0.34439 0.29769 0.11002 0.0
C423 C 0.32574 0.33424 0.09506 0.0
C424 C 0.36059 0.29574 0.15288 0.0
C425 C 0.32009 0.36748 0.12415 0.0
C426 C 0.33498 0.36537 0.16703 0.0
C427 C 0.37697 0.33046 0.22177 0.0
C428 C 0.40281 0.29735 0.23402 0.0
C429 C 0.35664 0.33028 0.18114 0.0
C430 C 0.40421 0.26194 0.2072 0.0
C431 C 0.38305 0.26106 0.16704 0.0
H432 H 0.66594 0.61192 0.57828 0.0
H433 H 0.62585 0.7339 0.54202 0.0
H434 H 0.59503 0.74415 0.61527 0.0
H435 H 0.5723 0.71454 0.68584 0.0
H436 H 0.61189 0.59139 0.72017 0.0
H437 H 0.65062 0.58565 0.6516 0.0
C438 C 0.65089 0.64091 0.5868 0.0
C439 C 0.64741 0.67192 0.5551 0.0
C440 C 0.633 0.64621 0.62838 0.0
C441 C 0.62858 0.70965 0.56621 0.0
C442 C 0.61086 0.71537 0.60787 0.0
C443 C 0.59006 0.68677 0.67871 0.0
C444 C 0.58852 0.65317 0.70772 0.0
C445 C 0.6118 0.68333 0.63875 0.0
C446 C 0.61192 0.61748 0.69809 0.0
C447 C 0.63409 0.61409 0.65886 0.0
H448 H 0.71301 0.33844 0.14471 0.0
H449 H 0.61911 0.3944 0.06259 0.0
H450 H 0.56547 0.37671 0.11538 0.0
H451 H 0.54542 0.35044 0.18715 0.0
H452 H 0.63627 0.2902 0.26889 0.0
H453 H 0.69074 0.30377 0.21391 0.0
C454 C 0.68075 0.34618 0.13821 0.0
C455 C 0.67038 0.369 0.10043 0.0
C456 C 0.6495 0.33532 0.16869 0.0
C457 C 0.62826 0.37824 0.09216 0.0
C458 C 0.59741 0.36792 0.12218 0.0
C459 C 0.57712 0.33995 0.19268 0.0
C460 C 0.58712 0.3199 0.23199 0.0
C461 C 0.60778 0.34744 0.16099 0.0
C462 C 0.62802 0.30578 0.23869 0.0
C463 C 0.65911 0.31372 0.20739 0.0
H464 H 0.30922 0.5714 0.61691 0.0
H465 H 0.31267 0.69803 0.57517 0.0
H466 H 0.35547 0.7158 0.63882 0.0
H467 H 0.39849 0.69348 0.70137 0.0
H468 H 0.39631 0.56587 0.74093 0.0
H469 H 0.34653 0.55048 0.68318 0.0
C470 C 0.31907 0.60295 0.62203 0.0
C471 C 0.30828 0.63324 0.59124 0.0
C472 C 0.34428 0.61271 0.65805 0.0
C473 C 0.32052 0.67418 0.59857 0.0
C474 C 0.34525 0.68428 0.63474 0.0
C475 C 0.38666 0.66245 0.6978 0.0
C476 C 0.40175 0.6308 0.72505 0.0
C477 C 0.35831 0.65354 0.66401 0.0
C478 C 0.38582 0.59078 0.72005 0.0
C479 C 0.35727 0.58186 0.68701 0.0
H480 H 0.78598 0.84777 0.10684 0.0
H481 H 0.87442 0.91413 0.0272 0.0
H482 H 0.92841 0.90192 0.08129 0.0
H483 H 0.95065 0.87406 0.15225 0.0
H484 H 0.86562 0.80096 0.22827 0.0
H485 H 0.81043 0.81348 0.17432 0.0
C486 C 0.81716 0.85905 0.10094 0.0
C487 C 0.82551 0.88297 0.0635 0.0
C488 C 0.84877 0.85076 0.13162 0.0
C489 C 0.86637 0.89709 0.0565 0.0
C490 C 0.89756 0.88981 0.08724 0.0
C491 C 0.91999 0.86091 0.15682 0.0
C492 C 0.9118 0.83715 0.19412 0.0
C493 C 0.88899 0.86723 0.12519 0.0
C494 C 0.87236 0.81948 0.19961 0.0
C495 C 0.84089 0.82667 0.16888 0.0
H496 H 0.12257 0.0993 0.57378 0.0
H497 H 0.23716 0.13857 0.63373 0.0
H498 H 0.19839 0.16281 0.69872 0.0
H499 H 0.13124 0.16909 0.74028 0.0
H500 H 0.01888 0.12486 0.67924 0.0
H501 H 0.05745 0.10596 0.61327 0.0
C502 C 0.13931 0.11267 0.60124 0.0
C503 C 0.18282 0.11633 0.59918 0.0
C504 C 0.11708 0.12559 0.63848 0.0
C505 C 0.20366 0.13522 0.63448 0.0
C506 C 0.18151 0.14892 0.67172 0.0
C507 C 0.11543 0.15558 0.71232 0.0
C508 C 0.07239 0.14799 0.7147 0.0
C509 C 0.13814 0.1438 0.67437 0.0
C510 C 0.0521 0.13043 0.67837 0.0
C511 C 0.07407 0.1197 0.64057 0.0
H512 H 0.18424 0.85724 0.07906 0.0
H513 H 0.11125 0.76354 0.01584 0.0
H514 H 0.07917 0.74577 0.08659 0.0
H515 H 0.06557 0.76374 0.16398 0.0
H516 H 0.13574 0.86093 0.2256 0.0
H517 H 0.17627 0.86988 0.15833 0.0
C518 C 0.16188 0.83242 0.08124 0.0
C519 C 0.14975 0.81166 0.04295 0.0
C520 C 0.14321 0.82314 0.12162 0.0
C521 C 0.12078 0.7797 0.04535 0.0
C522 C 0.1025 0.7697 0.08563 0.0
C523 C 0.09059 0.78599 0.16308 0.0
C524 C 0.09756 0.81182 0.19953 0.0
C525 C 0.1126 0.79207 0.12374 0.0
C526 C 0.12972 0.84088 0.1978 0.0
C527 C 0.15269 0.84617 0.1593 0.0
H528 H 0.81216 0.16568 0.59532 0.0
H529 H 0.92423 0.19956 0.52677 0.0
H530 H 0.9573 0.21777 0.59666 0.0
H531 H 0.95716 0.21516 0.67732 0.0
H532 H 0.84825 0.17251 0.74583 0.0
H533 H 0.81046 0.16751 0.67615 0.0
C534 C 0.84348 0.17796 0.59581 0.0
C535 C 0.86586 0.18147 0.5563 0.0
C536 C 0.86269 0.1867 0.63612 0.0
C537 C 0.90663 0.19665 0.55702 0.0
C538 C 0.92545 0.20699 0.59688 0.0
C539 C 0.92471 0.20612 0.67697 0.0
C540 C 0.90513 0.19477 0.71639 0.0
C541 C 0.90419 0.20101 0.63668 0.0
C542 C 0.86358 0.18179 0.71572 0.0
C543 C 0.84219 0.17862 0.67593 0.0
loop_
_geom_bond_atom_site_label_1
_geom_bond_atom_site_label_2
_geom_bond_distance
_geom_bond_site_symmetry_2
_ccdc_geom_bond_type
H0 C3 0.931 . S
H1 C6 0.928 . S
H2 C8 0.930 . S
C3 H0 0.931 . S
C3 C4 1.413 . S
C3 C5 1.360 1_554 S
C4 C3 1.413 . S
C4 C8 1.429 . S
C5 C3 1.360 1_556 S
C5 C6 1.372 . S
C6 H1 0.928 . S
C6 C5 1.372 . S
C6 C7 1.404 . S
C7 C6 1.404 . S
C7 C8 1.391 1_556 S
C8 H2 0.930 . S
C8 C4 1.429 . S
C8 C7 1.391 1_554 S
H9 C12 0.931 . S
H10 C15 0.928 . S
H11 C17 0.930 . S
C12 H9 0.931 . S
C12 C13 1.413 . S
C12 C14 1.360 . S
C13 C12 1.413 . S
C13 C17 1.429 . S
C14 C12 1.360 . S
C14 C15 1.372 . S
C15 H10 0.928 . S
C15 C14 1.372 . S
C15 C16 1.404 . S
C16 C15 1.404 . S
C16 C17 1.391 . S
C17 H11 0.930 . S
C17 C13 1.429 . S
C17 C16 1.391 . S
H18 C21 0.931 . S
H19 C24 0.928 . S
H20 C26 0.930 . S
C21 H18 0.931 . S
C21 C22 1.413 1_554 S
C21 C23 1.360 . S
C22 C21 1.413 1_556 S
C22 C26 1.429 . S
C23 C21 1.360 . S
C23 C24 1.372 . S
C24 H19 0.928 . S
C24 C23 1.372 . S
C24 C25 1.404 1_554 S
C25 C24 1.404 1_556 S
C25 C26 1.391 . S
C26 H20 0.930 . S
C26 C22 1.429 . S
C26 C25 1.391 . S
H27 C30 0.931 . S
H28 C33 0.928 . S
H29 C35 0.930 . S
C30 H27 0.931 . S
C30 C31 1.413 . S
C30 C32 1.360 . S
C31 C30 1.413 . S
C31 C35 1.429 . S
C32 C30 1.360 . S
C32 C33 1.372 . S
C33 H28 0.928 . S
C33 C32 1.372 . S
C33 C34 1.404 . S
C34 C33 1.404 . S
C34 C35 1.391 . S
C35 H29 0.930 . S
C35 C31 1.429 . S
C35 C34 1.391 . S
H36 C39 0.931 . S
H37 C42 0.928 . S
H38 C44 0.930 . S
C39 H36 0.931 . S
C39 C40 1.413 . S
C39 C41 1.360 1_554 S
C40 C39 1.413 . S
C40 C44 1.429 . S
C41 C39 1.360 1_556 S
C41 C42 1.372 . S
C42 H37 0.928 . S
C42 C41 1.372 . S
C42 C43 1.404 . S
C43 C42 1.404 . S
C43 C44 1.391 1_556 S
C44 H38 0.930 . S
C44 C40 1.429 . S
C44 C43 1.391 1_554 S
H45 C48 0.931 . S
H46 C51 0.928 . S
H47 C53 0.930 . S
C48 H45 0.931 . S
C48 C49 1.413 . S
C48 C50 1.360 . S
C49 C48 1.413 . S
C49 C53 1.429 . S
C50 C48 1.360 . S
C50 C51 1.372 . S
C51 H46 0.928 . S
C51 C50 1.372 . S
C51 C52 1.404 . S
C52 C51 1.404 . S
C52 C53 1.391 . S
C53 H47 0.930 . S
C53 C49 1.429 . S
C53 C52 1.391 . S
H54 C57 0.931 . S
H55 C60 0.928 . S
H56 C62 0.930 . S
C57 H54 0.931 . S
C57 C58 1.413 1_554 S
C57 C59 1.360 . S
C58 C57 1.413 1_556 S
C58 C62 1.429 . S
C59 C57 1.360 . S
C59 C60 1.372 . S
C60 H55 0.928 . S
C60 C59 1.372 . S
C60 C61 1.404 1_554 S
C61 C60 1.404 1_556 S
C61 C62 1.391 . S
C62 H56 0.930 . S
C62 C58 1.429 . S
C62 C61 1.391 . S
H63 C66 0.931 . S
H64 C69 0.928 . S
H65 C71 0.930 . S
C66 H63 0.931 . S
C66 C67 1.413 . S
C66 C68 1.360 . S
C67 C66 1.413 . S
C67 C71 1.429 . S
C68 C66 1.360 . S
C68 C69 1.372 . S
C69 H64 0.928 . S
C69 C68 1.372 . S
C69 C70 1.404 . S
C70 C69 1.404 . S
C70 C71 1.391 . S
C71 H65 0.930 . S
C71 C67 1.429 . S
C71 C70 1.391 . S
Sc72 O75 2.025 . S
Sc72 O82 2.094 1_455 S
Sc72 O85 2.115 . S
Sc72 O88 2.115 . S
Sc72 O91 2.094 1_455 S
Sc73 O75 2.025 . S
Sc73 O83 2.094 1_455 S
Sc73 O87 2.116 . S
Sc73 O89 2.116 . S
Sc73 O93 2.094 1_455 S
Sc74 O75 2.025 . S
Sc74 O84 2.094 1_455 S
Sc74 O86 2.115 . S
Sc74 O90 2.115 . S
Sc74 O92 2.094 1_455 S
O75 Sc72 2.025 . S
O75 Sc73 2.025 . S
O75 Sc74 2.025 . S
C76 O82 1.268 . S
C76 O92 1.268 . S
C77 O83 1.268 . S
C77 O91 1.268 . S
C78 O84 1.268 . S
C78 O93 1.268 . S
C79 O85 1.268 . S
C79 O89 1.268 . S
C80 O86 1.268 . S
C80 O88 1.268 . S
C81 O87 1.268 . S
C81 O90 1.268 . S
O82 Sc72 2.094 1_655 S
O82 C76 1.268 . S
O83 Sc73 2.094 1_655 S
O83 C77 1.268 . S
O84 Sc74 2.094 1_655 S
O84 C78 1.268 . S
O85 Sc72 2.115 . S
O85 C79 1.268 . S
O86 Sc74 2.115 . S
O86 C80 1.268 . S
O87 Sc73 2.116 . S
O87 C81 1.268 . S
O88 Sc72 2.115 . S
O88 C80 1.268 . S
O89 Sc73 2.116 . S
O89 C79 1.268 . S
O90 Sc74 2.115 . S
O90 C81 1.268 . S
O91 Sc72 2.094 1_655 S
O91 C77 1.268 . S
O92 Sc74 2.094 1_655 S
O92 C76 1.268 . S
O93 Sc73 2.094 1_655 S
O93 C78 1.268 . S
Sc94 O97 2.025 . S
Sc94 O104 2.111 . S
Sc94 O107 2.099 1_455 S
Sc94 O110 2.099 1_455 S
Sc94 O113 2.111 . S
Sc95 O97 2.025 . S
Sc95 O105 2.110 . S
Sc95 O109 2.099 1_455 S
Sc95 O111 2.099 1_455 S
Sc95 O115 2.110 . S
Sc96 O97 2.025 . S
Sc96 O106 2.110 . S
Sc96 O108 2.100 1_455 S
Sc96 O112 2.100 1_455 S
Sc96 O114 2.110 . S
O97 Sc94 2.025 . S
O97 Sc95 2.025 . S
O97 Sc96 2.025 . S
C98 O104 1.268 . S
C98 O114 1.268 . S
C99 O105 1.268 . S
C99 O113 1.268 . S
C100 O106 1.268 . S
C100 O115 1.268 . S
C101 O107 1.268 . S
C101 O111 1.268 . S
C102 O108 1.268 . S
C102 O110 1.268 . S
C103 O109 1.268 . S
C103 O112 1.268 . S
O104 Sc94 2.111 . S
O104 C98 1.268 . S
O105 Sc95 2.110 . S
O105 C99 1.268 . S
O106 Sc96 2.110 . S
O106 C100 1.268 . S
O107 Sc94 2.099 1_655 S
O107 C101 1.268 . S
O108 Sc96 2.100 1_655 S
O108 C102 1.268 . S
O109 Sc95 2.099 1_655 S
O109 C103 1.268 . S
O110 Sc94 2.099 1_655 S
O110 C102 1.268 . S
O111 Sc95 2.099 1_655 S
O111 C101 1.268 . S
O112 Sc96 2.100 1_655 S
O112 C103 1.268 . S
O113 Sc94 2.111 . S
O113 C99 1.268 . S
O114 Sc96 2.110 . S
O114 C98 1.268 . S
O115 Sc95 2.110 . S
O115 C100 1.268 . S
Sc116 O119 2.025 . S
Sc116 O126 2.105 . S
Sc116 O129 2.105 . S
Sc116 O132 2.105 . S
Sc116 O135 2.105 . S
Sc117 O119 2.025 . S
Sc117 O127 2.105 . S
Sc117 O131 2.105 . S
Sc117 O133 2.105 . S
Sc117 O137 2.105 . S
Sc118 O119 2.025 . S
Sc118 O128 2.105 . S
Sc118 O130 2.105 . S
Sc118 O134 2.105 . S
Sc118 O136 2.105 . S
O119 Sc116 2.025 . S
O119 Sc117 2.025 . S
O119 Sc118 2.025 . S
C120 O126 1.268 . S
C120 O136 1.268 . S
C121 O127 1.268 . S
C121 O135 1.268 . S
C122 O128 1.268 . S
C122 O137 1.268 . S
C123 O129 1.268 . S
C123 O133 1.268 . S
C124 O130 1.268 . S
C124 O132 1.268 . S
C125 O131 1.268 . S
C125 O134 1.268 . S
O126 Sc116 2.105 . S
O126 C120 1.268 . S
O127 Sc117 2.105 . S
O127 C121 1.268 . S
O128 Sc118 2.105 . S
O128 C122 1.268 . S
O129 Sc116 2.105 . S
O129 C123 1.268 . S
O130 Sc118 2.105 . S
O130 C124 1.268 . S
O131 Sc117 2.105 . S
O131 C125 1.268 . S
O132 Sc116 2.105 . S
O132 C124 1.268 . S
O133 Sc117 2.105 . S
O133 C123 1.268 . S
O134 Sc118 2.105 . S
O134 C125 1.268 . S
O135 Sc116 2.105 . S
O135 C121 1.268 . S
O136 Sc118 2.105 . S
O136 C120 1.268 . S
O137 Sc117 2.105 . S
O137 C122 1.268 . S
Sc138 O141 2.025 . S
Sc138 O148 2.105 . S
Sc138 O151 2.105 . S
Sc138 O154 2.105 . S
Sc138 O157 2.105 . S
Sc139 O141 2.025 . S
Sc139 O149 2.105 . S
Sc139 O153 2.105 . S
Sc139 O155 2.105 . S
Sc139 O159 2.105 . S
Sc140 O141 2.025 . S
Sc140 O150 2.105 . S
Sc140 O152 2.105 . S
Sc140 O156 2.105 . S
Sc140 O158 2.105 . S
O141 Sc138 2.025 . S
O141 Sc139 2.025 . S
O141 Sc140 2.025 . S
C142 O148 1.268 . S
C142 O158 1.268 . S
C143 O149 1.268 . S
C143 O157 1.268 . S
C144 O150 1.268 . S
C144 O159 1.268 . S
C145 O151 1.268 . S
C145 O155 1.268 . S
C146 O152 1.268 . S
C146 O154 1.268 . S
C147 O153 1.268 . S
C147 O156 1.268 . S
O148 Sc138 2.105 . S
O148 C142 1.268 . S
O149 Sc139 2.105 . S
O149 C143 1.268 . S
O150 Sc140 2.105 . S
O150 C144 1.268 . S
O151 Sc138 2.105 . S
O151 C145 1.268 . S
O152 Sc140 2.105 . S
O152 C146 1.268 . S
O153 Sc139 2.105 . S
O153 C147 1.268 . S
O154 Sc138 2.105 . S
O154 C146 1.268 . S
O155 Sc139 2.105 . S
O155 C145 1.268 . S
O156 Sc140 2.105 . S
O156 C147 1.268 . S
O157 Sc138 2.105 . S
O157 C143 1.268 . S
O158 Sc140 2.105 . S
O158 C142 1.268 . S
O159 Sc139 2.105 . S
O159 C144 1.268 . S
H160 C166 0.930 1_554 S
H161 C169 0.930 . S
H162 C170 0.930 . S
H163 C171 0.930 . S
H164 C174 0.930 . S
H165 C175 0.930 . S
C166 H160 0.930 1_556 S
C166 C167 1.355 . S
C166 C168 1.415 . S
C167 C166 1.355 . S
C167 C169 1.419 . S
C168 C166 1.415 . S
C168 C173 1.425 . S
C168 C175 1.409 . S
C169 H161 0.930 . S
C169 C167 1.419 . S
C169 C170 1.362 . S
C170 H162 0.930 . S
C170 C169 1.362 . S
C170 C173 1.409 . S
C171 H163 0.930 . S
C171 C172 1.355 . S
C171 C173 1.415 . S
C172 C171 1.355 . S
C172 C174 1.419 . S
C173 C168 1.425 . S
C173 C170 1.409 . S
C173 C171 1.415 . S
C174 H164 0.930 . S
C174 C172 1.419 . S
C174 C175 1.362 . S
C175 H165 0.930 . S
C175 C168 1.409 . S
C175 C174 1.362 . S
H176 C182 0.930 . S
H177 C185 0.930 . S
H178 C186 0.930 . S
H179 C187 0.930 . S
H180 C190 0.930 . S
H181 C191 0.930 . S
C182 H176 0.930 . S
C182 C183 1.355 . S
C182 C184 1.415 . S
C183 C182 1.355 . S
C183 C185 1.419 . S
C184 C182 1.415 . S
C184 C189 1.425 . S
C184 C191 1.409 . S
C185 H177 0.930 . S
C185 C183 1.419 . S
C185 C186 1.362 . S
C186 H178 0.930 . S
C186 C185 1.362 . S
C186 C189 1.409 . S
C187 H179 0.930 . S
C187 C188 1.355 . S
C187 C189 1.415 . S
C188 C187 1.355 . S
C188 C190 1.419 . S
C189 C184 1.425 . S
C189 C186 1.409 . S
C189 C187 1.415 . S
C190 H180 0.930 . S
C190 C188 1.419 . S
C190 C191 1.362 . S
C191 H181 0.930 . S
C191 C184 1.409 . S
C191 C190 1.362 . S
H192 C198 0.930 . S
H193 C201 0.930 . S
H194 C202 0.930 . S
H195 C203 0.930 . S
H196 C206 0.930 . S
H197 C207 0.930 . S
C198 H192 0.930 . S
C198 C199 1.355 . S
C198 C200 1.415 . S
C199 C198 1.355 . S
C199 C201 1.419 . S
C200 C198 1.415 . S
C200 C205 1.425 . S
C200 C207 1.409 . S
C201 H193 0.930 . S
C201 C199 1.419 . S
C201 C202 1.362 . S
C202 H194 0.930 . S
C202 C201 1.362 . S
C202 C205 1.409 . S
C203 H195 0.930 . S
C203 C204 1.355 . S
C203 C205 1.415 . S
C204 C203 1.355 . S
C204 C206 1.419 . S
C205 C200 1.425 . S
C205 C202 1.409 . S
C205 C203 1.415 . S
C206 H196 0.930 . S
C206 C204 1.419 . S
C206 C207 1.362 . S
C207 H197 0.930 . S
C207 C200 1.409 . S
C207 C206 1.362 . S
H208 C214 0.930 . S
H209 C217 0.930 . S
H210 C218 0.930 . S
H211 C219 0.930 . S
H212 C222 0.930 . S
H213 C223 0.930 . S
C214 H208 0.930 . S
C214 C215 1.355 . S
C214 C216 1.415 . S
C215 C214 1.355 . S
C215 C217 1.419 . S
C216 C214 1.415 . S
C216 C221 1.425 . S
C216 C223 1.409 . S
C217 H209 0.930 . S
C217 C215 1.419 . S
C217 C218 1.362 . S
C218 H210 0.930 . S
C218 C217 1.362 . S
C218 C221 1.409 . S
C219 H211 0.930 . S
C219 C220 1.355 . S
C219 C221 1.415 . S
C220 C219 1.355 . S
C220 C222 1.419 . S
C221 C216 1.425 . S
C221 C218 1.409 . S
C221 C219 1.415 . S
C222 H212 0.930 . S
C222 C220 1.419 . S
C222 C223 1.362 . S
C223 H213 0.930 . S
C223 C216 1.409 . S
C223 C222 1.362 . S
H224 C230 0.930 . S
H225 C233 0.938 . S
H226 C234 0.930 . S
H227 C235 0.930 . S
H228 C238 0.930 . S
H229 C239 0.930 . S
C230 H224 0.930 . S
C230 C231 1.355 . S
C230 C232 1.415 . S
C231 C230 1.355 . S
C231 C233 1.419 . S
C232 C230 1.415 . S
C232 C237 1.425 . S
C232 C239 1.409 . S
C233 H225 0.938 . S
C233 C231 1.419 . S
C233 C234 1.362 . S
C234 H226 0.930 . S
C234 C233 1.362 . S
C234 C237 1.409 . S
C235 H227 0.930 . S
C235 C236 1.355 . S
C235 C237 1.415 . S
C236 C235 1.355 . S
C236 C238 1.419 . S
C237 C232 1.425 . S
C237 C234 1.409 . S
C237 C235 1.415 . S
C238 H228 0.930 . S
C238 C236 1.419 . S
C238 C239 1.362 . S
C239 H229 0.930 . S
C239 C232 1.409 . S
C239 C238 1.362 . S
H240 C246 0.930 . S
H241 C249 0.930 . S
H242 C250 0.930 . S
H243 C251 0.930 . S
H244 C254 0.930 . S
H245 C255 0.930 . S
C246 H240 0.930 . S
C246 C247 1.355 . S
C246 C248 1.415 . S
C247 C246 1.355 . S
C247 C249 1.419 . S
C248 C246 1.415 . S
C248 C253 1.425 . S
C248 C255 1.409 . S
C249 H241 0.930 . S
C249 C247 1.419 . S
C249 C250 1.362 . S
C250 H242 0.930 . S
C250 C249 1.362 . S
C250 C253 1.409 . S
C251 H243 0.930 . S
C251 C252 1.355 . S
C251 C253 1.415 . S
C252 C251 1.355 . S
C252 C254 1.419 . S
C253 C248 1.425 . S
C253 C250 1.409 . S
C253 C251 1.415 . S
C254 H244 0.930 . S
C254 C252 1.419 . S
C254 C255 1.362 . S
C255 H245 0.930 . S
C255 C248 1.409 . S
C255 C254 1.362 . S
H256 C262 0.930 . S
H257 C265 0.930 . S
H258 C266 0.930 . S
H259 C267 0.930 . S
H260 C270 0.930 . S
H261 C271 0.930 . S
C262 H256 0.930 . S
C262 C263 1.355 . S
C262 C264 1.415 . S
C263 C262 1.355 . S
C263 C265 1.419 . S
C264 C262 1.415 . S
C264 C269 1.425 . S
C264 C271 1.409 . S
C265 H257 0.930 . S
C265 C263 1.419 . S
C265 C266 1.362 . S
C266 H258 0.930 . S
C266 C265 1.362 . S
C266 C269 1.409 . S
C267 H259 0.930 . S
C267 C268 1.355 . S
C267 C269 1.415 . S
C268 C267 1.355 . S
C268 C270 1.419 . S
C269 C264 1.425 . S
C269 C266 1.409 . S
C269 C267 1.415 . S
C270 H260 0.930 . S
C270 C268 1.419 . S
C270 C271 1.362 . S
C271 H261 0.930 . S
C271 C264 1.409 . S
C271 C270 1.362 . S
H272 C278 0.930 . S
H273 C281 0.930 . S
H274 C282 0.930 . S
H275 C283 0.930 . S
H276 C286 0.930 . S
H277 C287 0.930 . S
C278 H272 0.930 . S
C278 C279 1.355 . S
C278 C280 1.415 . S
C279 C278 1.355 . S
C279 C281 1.419 . S
C280 C278 1.415 . S
C280 C285 1.425 . S
C280 C287 1.409 . S
C281 H273 0.930 . S
C281 C279 1.419 . S
C281 C282 1.362 . S
C282 H274 0.930 . S
C282 C281 1.362 . S
C282 C285 1.409 . S
C283 H275 0.930 . S
C283 C284 1.355 . S
C283 C285 1.415 . S
C284 C283 1.355 . S
C284 C286 1.419 . S
C285 C280 1.425 . S
C285 C282 1.409 . S
C285 C283 1.415 . S
C286 H276 0.930 . S
C286 C284 1.419 . S
C286 C287 1.362 . S
C287 H277 0.930 . S
C287 C280 1.409 . S
C287 C286 1.362 . S
H288 C294 0.930 . S
H289 C297 0.930 . S
H290 C298 0.930 . S
H291 C299 0.930 . S
H292 C302 0.930 . S
H293 C303 0.930 . S
C294 H288 0.930 . S
C294 C295 1.355 . S
C294 C296 1.415 . S
C295 C294 1.355 . S
C295 C297 1.419 . S
C296 C294 1.415 . S
C296 C301 1.425 . S
C296 C303 1.409 . S
C297 H289 0.930 . S
C297 C295 1.419 . S
C297 C298 1.362 . S
C298 H290 0.930 . S
C298 C297 1.362 . S
C298 C301 1.409 . S
C299 H291 0.930 . S
C299 C300 1.355 . S
C299 C301 1.415 . S
C300 C299 1.355 . S
C300 C302 1.419 . S
C301 C296 1.425 . S
C301 C298 1.409 . S
C301 C299 1.415 . S
C302 H292 0.930 . S
C302 C300 1.419 . S
C302 C303 1.362 . S
C303 H293 0.930 . S
C303 C296 1.409 . S
C303 C302 1.362 . S
H304 C310 0.930 . S
H305 C313 0.930 . S
H306 C314 0.930 . S
H307 C315 0.930 . S
H308 C318 0.930 . S
H309 C319 0.930 . S
C310 H304 0.930 . S
C310 C311 1.355 . S
C310 C312 1.415 . S
C311 C310 1.355 . S
C311 C313 1.419 . S
C312 C310 1.415 . S
C312 C317 1.425 . S
C312 C319 1.409 . S
C313 H305 0.930 . S
C313 C311 1.419 . S
C313 C314 1.362 . S
C314 H306 0.930 . S
C314 C313 1.362 . S
C314 C317 1.409 . S
C315 H307 0.930 . S
C315 C316 1.355 . S
C315 C317 1.415 . S
C316 C315 1.355 . S
C316 C318 1.419 . S
C317 C312 1.425 . S
C317 C314 1.409 . S
C317 C315 1.415 . S
C318 H308 0.930 . S
C318 C316 1.419 . S
C318 C319 1.362 . S
C319 H309 0.930 . S
C319 C312 1.409 . S
C319 C318 1.362 . S
H320 C326 0.930 . S
H321 C329 0.930 . S
H322 C330 0.930 . S
H323 C331 0.930 . S
H324 C334 0.930 . S
H325 C335 0.930 . S
C326 H320 0.930 . S
C326 C327 1.355 . S
C326 C328 1.415 . S
C327 C326 1.355 . S
C327 C329 1.419 . S
C328 C326 1.415 . S
C328 C333 1.425 . S
C328 C335 1.409 . S
C329 H321 0.930 . S
C329 C327 1.419 . S
C329 C330 1.362 . S
C330 H322 0.930 . S
C330 C329 1.362 . S
C330 C333 1.409 . S
C331 H323 0.930 . S
C331 C332 1.355 . S
C331 C333 1.415 . S
C332 C331 1.355 . S
C332 C334 1.419 . S
C333 C328 1.425 . S
C333 C330 1.409 . S
C333 C331 1.415 . S
C334 H324 0.930 . S
C334 C332 1.419 . S
C334 C335 1.362 . S
C335 H325 0.930 . S
C335 C328 1.409 . S
C335 C334 1.362 . S
H336 C342 0.930 . S
H337 C345 0.930 . S
H338 C346 0.930 . S
H339 C347 0.930 . S
H340 C350 0.930 . S
H341 C351 0.930 . S
C342 H336 0.930 . S
C342 C343 1.355 . S
C342 C344 1.415 . S
C343 C342 1.355 . S
C343 C345 1.419 . S
C344 C342 1.415 . S
C344 C349 1.425 . S
C344 C351 1.409 . S
C345 H337 0.930 . S
C345 C343 1.419 . S
C345 C346 1.362 . S
C346 H338 0.930 . S
C346 C345 1.362 . S
C346 C349 1.409 . S
C347 H339 0.930 . S
C347 C348 1.355 . S
C347 C349 1.415 . S
C348 C347 1.355 . S
C348 C350 1.419 . S
C349 C344 1.425 . S
C349 C346 1.409 . S
C349 C347 1.415 . S
C350 H340 0.930 . S
C350 C348 1.419 . S
C350 C351 1.362 . S
C351 H341 0.930 . S
C351 C344 1.409 . S
C351 C350 1.362 . S
H352 C358 0.930 . S
H353 C361 0.930 . S
H354 C362 0.930 . S
H355 C363 0.930 . S
H356 C366 0.930 . S
H357 C367 0.930 . S
C358 H352 0.930 . S
C358 C359 1.355 1_545 S
C358 C360 1.415 . S
C359 C358 1.355 1_565 S
C359 C361 1.419 . S
C360 C358 1.415 . S
C360 C365 1.425 . S
C360 C367 1.409 . S
C361 H353 0.930 . S
C361 C359 1.419 . S
C361 C362 1.362 . S
C362 H354 0.930 . S
C362 C361 1.362 . S
C362 C365 1.409 1_565 S
C363 H355 0.930 . S
C363 C364 1.355 . S
C363 C365 1.415 . S
C364 C363 1.355 . S
C364 C366 1.419 . S
C365 C360 1.425 . S
C365 C362 1.409 1_545 S
C365 C363 1.415 . S
C366 H356 0.930 . S
C366 C364 1.419 . S
C366 C367 1.362 . S
C367 H357 0.930 . S
C367 C360 1.409 . S
C367 C366 1.362 . S
H368 C374 0.930 . S
H369 C377 0.930 . S
H370 C378 0.930 . S
H371 C379 0.930 . S
H372 C382 0.930 . S
H373 C383 0.930 . S
C374 H368 0.930 . S
C374 C375 1.355 . S
C374 C376 1.415 1_545 S
C375 C374 1.355 . S
C375 C377 1.419 . S
C376 C374 1.415 1_565 S
C376 C381 1.425 . S
C376 C383 1.409 . S
C377 H369 0.930 . S
C377 C375 1.419 . S
C377 C378 1.362 1_545 S
C378 H370 0.930 . S
C378 C377 1.362 1_565 S
C378 C381 1.409 . S
C379 H371 0.930 . S
C379 C380 1.355 . S
C379 C381 1.415 . S
C380 C379 1.355 . S
C380 C382 1.419 . S
C381 C376 1.425 . S
C381 C378 1.409 . S
C381 C379 1.415 . S
C382 H372 0.930 . S
C382 C380 1.419 . S
C382 C383 1.362 . S
C383 H373 0.930 . S
C383 C376 1.409 . S
C383 C382 1.362 . S
H384 C390 0.930 1_554 S
H385 C393 0.930 . S
H386 C394 0.930 . S
H387 C395 0.930 . S
H388 C398 0.930 . S
H389 C399 0.930 1_554 S
C390 H384 0.930 1_556 S
C390 C391 1.355 . S
C390 C392 1.415 1_565 S
C391 C390 1.355 . S
C391 C393 1.419 . S
C392 C390 1.415 1_545 S
C392 C397 1.425 . S
C392 C399 1.409 . S
C393 H385 0.930 . S
C393 C391 1.419 . S
C393 C394 1.362 . S
C394 H386 0.930 . S
C394 C393 1.362 . S
C394 C397 1.409 1_565 S
C395 H387 0.930 . S
C395 C396 1.355 . S
C395 C397 1.415 . S
C396 C395 1.355 . S
C396 C398 1.419 . S
C397 C392 1.425 . S
C397 C394 1.409 1_545 S
C397 C395 1.415 . S
C398 H388 0.930 . S
C398 C396 1.419 . S
C398 C399 1.362 . S
C399 H389 0.930 1_556 S
C399 C392 1.409 . S
C399 C398 1.362 . S
H400 C406 0.930 . S
H401 C409 0.930 . S
H402 C410 0.930 . S
H403 C411 0.930 . S
H404 C414 0.930 . S
H405 C415 0.930 . S
C406 H400 0.930 . S
C406 C407 1.355 1_565 S
C406 C408 1.415 . S
C407 C406 1.355 1_545 S
C407 C409 1.419 . S
C408 C406 1.415 . S
C408 C413 1.425 . S
C408 C415 1.409 . S
C409 H401 0.930 . S
C409 C407 1.419 . S
C409 C410 1.362 . S
C410 H402 0.930 . S
C410 C409 1.362 . S
C410 C413 1.409 1_545 S
C411 H403 0.930 . S
C411 C412 1.355 . S
C411 C413 1.415 . S
C412 C411 1.355 . S
C412 C414 1.419 . S
C413 C408 1.425 . S
C413 C410 1.409 1_565 S
C413 C411 1.415 . S
C414 H404 0.930 . S
C414 C412 1.419 . S
C414 C415 1.362 . S
C415 H405 0.930 . S
C415 C408 1.409 . S
C415 C414 1.362 . S
H416 C422 0.930 . S
H417 C425 0.930 . S
H418 C426 0.930 . S
H419 C427 0.930 . S
H420 C430 0.930 . S
H421 C431 0.930 . S
C422 H416 0.930 . S
C422 C423 1.355 . S
C422 C424 1.415 . S
C423 C422 1.355 . S
C423 C425 1.419 . S
C424 C422 1.415 . S
C424 C429 1.425 . S
C424 C431 1.409 . S
C425 H417 0.930 . S
C425 C423 1.419 . S
C425 C426 1.362 . S
C426 H418 0.930 . S
C426 C425 1.362 . S
C426 C429 1.409 . S
C427 H419 0.930 . S
C427 C428 1.355 . S
C427 C429 1.415 . S
C428 C427 1.355 . S
C428 C430 1.419 . S
C429 C424 1.425 . S
C429 C426 1.409 . S
C429 C427 1.415 . S
C430 H420 0.930 . S
C430 C428 1.419 . S
C430 C431 1.362 . S
C431 H421 0.930 . S
C431 C424 1.409 . S
C431 C430 1.362 . S
H432 C438 0.930 . S
H433 C441 0.930 . S
H434 C442 0.930 . S
H435 C443 0.930 . S
H436 C446 0.930 . S
H437 C447 0.930 . S
C438 H432 0.930 . S
C438 C439 1.355 . S
C438 C440 1.415 . S
C439 C438 1.355 . S
C439 C441 1.419 . S
C440 C438 1.415 . S
C440 C445 1.425 . S
C440 C447 1.409 . S
C441 H433 0.930 . S
C441 C439 1.419 . S
C441 C442 1.362 . S
C442 H434 0.930 . S
C442 C441 1.362 . S
C442 C445 1.409 . S
C443 H435 0.930 . S
C443 C444 1.355 . S
C443 C445 1.415 . S
C444 C443 1.355 . S
C444 C446 1.419 . S
C445 C440 1.425 . S
C445 C442 1.409 . S
C445 C443 1.415 . S
C446 H436 0.930 . S
C446 C444 1.419 . S
C446 C447 1.362 . S
C447 H437 0.930 . S
C447 C440 1.409 . S
C447 C446 1.362 . S
H448 C454 0.930 . S
H449 C457 0.930 . S
H450 C458 0.930 . S
H451 C459 0.930 . S
H452 C462 0.930 . S
H453 C463 0.930 . S
C454 H448 0.930 . S
C454 C455 1.355 . S
C454 C456 1.415 . S
C455 C454 1.355 . S
C455 C457 1.419 . S
C456 C454 1.415 . S
C456 C461 1.425 . S
C456 C463 1.409 . S
C457 H449 0.930 . S
C457 C455 1.419 . S
C457 C458 1.362 . S
C458 H450 0.930 . S
C458 C457 1.362 . S
C458 C461 1.409 . S
C459 H451 0.930 . S
C459 C460 1.355 . S
C459 C461 1.415 . S
C460 C459 1.355 . S
C460 C462 1.419 . S
C461 C456 1.425 . S
C461 C458 1.409 . S
C461 C459 1.415 . S
C462 H452 0.930 . S
C462 C460 1.419 . S
C462 C463 1.362 . S
C463 H453 0.930 . S
C463 C456 1.409 . S
C463 C462 1.362 . S
H464 C470 0.930 . S
H465 C473 0.930 . S
H466 C474 0.930 . S
H467 C475 0.930 . S
H468 C478 0.930 . S
H469 C479 0.930 . S
C470 H464 0.930 . S
C470 C471 1.355 . S
C470 C472 1.415 . S
C471 C470 1.355 . S
C471 C473 1.419 . S
C472 C470 1.415 . S
C472 C477 1.425 . S
C472 C479 1.409 . S
C473 H465 0.930 . S
C473 C471 1.419 . S
C473 C474 1.362 . S
C474 H466 0.930 . S
C474 C473 1.362 . S
C474 C477 1.409 . S
C475 H467 0.930 . S
C475 C476 1.355 . S
C475 C477 1.415 . S
C476 C475 1.355 . S
C476 C478 1.419 . S
C477 C472 1.425 . S
C477 C474 1.409 . S
C477 C475 1.415 . S
C478 H468 0.930 . S
C478 C476 1.419 . S
C478 C479 1.362 . S
C479 H469 0.930 . S
C479 C472 1.409 . S
C479 C478 1.362 . S
H480 C486 0.930 . S
H481 C489 0.930 . S
H482 C490 0.930 . S
H483 C491 0.930 . S
H484 C494 0.930 . S
H485 C495 0.930 . S
C486 H480 0.930 . S
C486 C487 1.355 . S
C486 C488 1.415 . S
C487 C486 1.355 . S
C487 C489 1.419 . S
C488 C486 1.415 . S
C488 C493 1.425 . S
C488 C495 1.409 . S
C489 H481 0.930 . S
C489 C487 1.419 . S
C489 C490 1.362 . S
C490 H482 0.930 . S
C490 C489 1.362 . S
C490 C493 1.409 . S
C491 H483 0.930 . S
C491 C492 1.355 . S
C491 C493 1.415 . S
C492 C491 1.355 . S
C492 C494 1.419 . S
C493 C488 1.425 . S
C493 C490 1.409 . S
C493 C491 1.415 . S
C494 H484 0.930 . S
C494 C492 1.419 . S
C494 C495 1.362 . S
C495 H485 0.930 . S
C495 C488 1.409 . S
C495 C494 1.362 . S
H496 C502 0.930 . S
H497 C505 0.930 . S
H498 C506 0.930 . S
H499 C507 0.930 . S
H500 C510 0.930 . S
H501 C511 0.930 . S
C502 H496 0.930 . S
C502 C503 1.355 . S
C502 C504 1.415 . S
C503 C502 1.355 . S
C503 C505 1.419 . S
C504 C502 1.415 . S
C504 C509 1.425 . S
C504 C511 1.409 . S
C505 H497 0.930 . S
C505 C503 1.419 . S
C505 C506 1.362 . S
C506 H498 0.930 . S
C506 C505 1.362 . S
C506 C509 1.409 . S
C507 H499 0.930 . S
C507 C508 1.355 . S
C507 C509 1.415 . S
C508 C507 1.355 . S
C508 C510 1.419 . S
C509 C504 1.425 . S
C509 C506 1.409 . S
C509 C507 1.415 . S
C510 H500 0.930 . S
C510 C508 1.419 . S
C510 C511 1.362 . S
C511 H501 0.930 . S
C511 C504 1.409 . S
C511 C510 1.362 . S
H512 C518 0.930 . S
H513 C521 0.930 . S
H514 C522 0.930 . S
H515 C523 0.930 . S
H516 C526 0.930 . S
H517 C527 0.930 . S
C518 H512 0.930 . S
C518 C519 1.355 . S
C518 C520 1.415 . S
C519 C518 1.355 . S
C519 C521 1.419 . S
C520 C518 1.415 . S
C520 C525 1.425 . S
C520 C527 1.409 . S
C521 H513 0.930 . S
C521 C519 1.419 . S
C521 C522 1.362 . S
C522 H514 0.930 . S
C522 C521 1.362 . S
C522 C525 1.409 . S
C523 H515 0.930 . S
C523 C524 1.355 . S
C523 C525 1.415 . S
C524 C523 1.355 . S
C524 C526 1.419 . S
C525 C520 1.425 . S
C525 C522 1.409 . S
C525 C523 1.415 . S
C526 H516 0.930 . S
C526 C524 1.419 . S
C526 C527 1.362 . S
C527 H517 0.930 . S
C527 C520 1.409 . S
C527 C526 1.362 . S
H528 C534 0.930 . S
H529 C537 0.930 . S
H530 C538 0.930 . S
H531 C539 0.930 . S
H532 C542 0.930 . S
H533 C543 0.930 . S
C534 H528 0.930 . S
C534 C535 1.355 . S
C534 C536 1.415 . S
C535 C534 1.355 . S
C535 C537 1.419 . S
C536 C534 1.415 . S
C536 C541 1.425 . S
C536 C543 1.409 . S
C537 H529 0.930 . S
C537 C535 1.419 . S
C537 C538 1.362 . S
C538 H530 0.930 . S
C538 C537 1.362 . S
C538 C541 1.409 . S
C539 H531 0.930 . S
C539 C540 1.355 . S
C539 C541 1.415 . S
C540 C539 1.355 . S
C540 C542 1.419 . S
C541 C536 1.425 . S
C541 C538 1.409 . S
C541 C539 1.415 . S
C542 H532 0.930 . S
C542 C540 1.419 . S
C542 C543 1.362 . S
C543 H533 0.930 . S
C543 C536 1.409 . S
C543 C542 1.362 . S
C167 C7 1.495 . S
C172 C98 1.457 . S
C188 C76 1.500 . S
C183 C16 1.518 . S
C204 C102 1.456 . S
C199 C25 1.496 . S
C220 C80 1.468 . S
C215 C34 1.497 . S
C236 C142 1.506 . S
C231 C43 1.519 . S
C252 C120 1.459 . S
C247 C52 1.497 . S
C263 C61 1.497 . S
C268 C146 1.457 . S
C284 C124 1.461 . S
C279 C70 1.493 . S
C295 C5 1.465 . S
C300 C147 1.489 . S
C316 C125 1.484 . S
C311 C14 1.470 . S
C327 C22 1.494 . S
C332 C144 1.436 . S
C343 C32 1.485 . S
C348 C122 1.458 . S
C364 C103 1.485 . S
C359 C41 1.468 . S
C375 C50 1.497 . S
C380 C81 1.439 . S
C396 C100 1.461 . S
C391 C58 1.480 . S
C412 C78 1.491 . S
C407 C68 1.459 . S
C428 C121 1.427 . S
C423 C4 1.489 . S
C444 C143 1.481 . S
C439 C13 1.458 . S
C455 C23 1.456 . S
C460 C123 1.473 . S
C476 C145 1.469 . S
C471 C31 1.451 . S
C492 C77 1.478 . S
C487 C40 1.462 . S
C503 C49 1.482 . S
C508 C99 1.426 . S
C519 C59 1.458 . S
C524 C79 1.463 . S
C535 C67 1.452 . S
C540 C101 1.467 . S
