# Generated by pormake.
# Topology zzz, (3,6)-cn, num edge types: 1
# Building blocks:
#     Node 0, Type 0, BuildingBlock: VETTIZ_charged_linker_0, # of connection points: 3
#     Node 1, Type 0, BuildingBlock: VETTIZ_charged_linker_0, # of connection points: 3
#     Node 2, Type 0, BuildingBlock: VETTIZ_charged_linker_0, # of connection points: 3
#     Node 3, Type 0, BuildingBlock: VETTIZ_charged_linker_0, # of connection points: 3
#     Node 4, Type 0, BuildingBlock: VETTIZ_charged_linker_0, # of connection points: 3
#     Node 5, Type 0, BuildingBlock: VETTIZ_charged_linker_0, # of connection points: 3
#     Node 6, Type 0, BuildingBlock: VETTIZ_charged_linker_0, # of connection points: 3
#     Node 7, Type 0, BuildingBlock: VETTIZ_charged_linker_0, # of connection points: 3
#     Node 8, Type 1, BuildingBlock: PAMTUU_clean_sbu_0, # of connection points: 6
#     Node 9, Type 1, BuildingBlock: PAMTUU_clean_sbu_0, # of connection points: 6
#     Node 10, Type 1, BuildingBlock: PAMTUU_clean_sbu_0, # of connection points: 6
#     Node 11, Type 1, BuildingBlock: PAMTUU_clean_sbu_0, # of connection points: 6
#     Edge 12, Type (0, 1), BuildingBlock: XIVTED_clean_linker_0, # of connection points: 2
#     Edge 13, Type (0, 1), BuildingBlock: XIVTED_clean_linker_0, # of connection points: 2
#     Edge 14, Type (0, 1), BuildingBlock: XIVTED_clean_linker_0, # of connection points: 2
#     Edge 15, Type (0, 1), BuildingBlock: XIVTED_clean_linker_0, # of connection points: 2
#     Edge 16, Type (0, 1), BuildingBlock: XIVTED_clean_linker_0, # of connection points: 2
#     Edge 17, Type (0, 1), BuildingBlock: XIVTED_clean_linker_0, # of connection points: 2
#     Edge 18, Type (0, 1), BuildingBlock: XIVTED_clean_linker_0, # of connection points: 2
#     Edge 19, Type (0, 1), BuildingBlock: XIVTED_clean_linker_0, # of connection points: 2
#     Edge 20, Type (0, 1), BuildingBlock: XIVTED_clean_linker_0, # of connection points: 2
#     Edge 21, Type (0, 1), BuildingBlock: XIVTED_clean_linker_0, # of connection points: 2
#     Edge 22, Type (0, 1), BuildingBlock: XIVTED_clean_linker_0, # of connection points: 2
#     Edge 23, Type (0, 1), BuildingBlock: XIVTED_clean_linker_0, # of connection points: 2
#     Edge 24, Type (0, 1), BuildingBlock: XIVTED_clean_linker_0, # of connection points: 2
#     Edge 25, Type (0, 1), BuildingBlock: XIVTED_clean_linker_0, # of connection points: 2
#     Edge 26, Type (0, 1), BuildingBlock: XIVTED_clean_linker_0, # of connection points: 2
#     Edge 27, Type (0, 1), BuildingBlock: XIVTED_clean_linker_0, # of connection points: 2
#     Edge 28, Type (0, 1), BuildingBlock: XIVTED_clean_linker_0, # of connection points: 2
#     Edge 29, Type (0, 1), BuildingBlock: XIVTED_clean_linker_0, # of connection points: 2
#     Edge 30, Type (0, 1), BuildingBlock: XIVTED_clean_linker_0, # of connection points: 2
#     Edge 31, Type (0, 1), BuildingBlock: XIVTED_clean_linker_0, # of connection points: 2
#     Edge 32, Type (0, 1), BuildingBlock: XIVTED_clean_linker_0, # of connection points: 2
#     Edge 33, Type (0, 1), BuildingBlock: XIVTED_clean_linker_0, # of connection points: 2
#     Edge 34, Type (0, 1), BuildingBlock: XIVTED_clean_linker_0, # of connection points: 2
#     Edge 35, Type (0, 1), BuildingBlock: XIVTED_clean_linker_0, # of connection points: 2
# Relax obj value: 0.390
# Max RMSD: 0.266
# Mean RMSD: 0.224
data_MOF--net-zzz--node1-PAMTUU_clean_sbu_0--node2-VETTIZ_charged_linker_0--edge1-XIVTED_clean_linker_0
_symmetry_space_group_name_H-M    P1
_symmetry_Int_Tables_number       1
_symmetry_cell_setting            triclinic
loop_
_symmetry_equiv_pos_as_xyz
'x, y, z'
_cell_length_a     57.342888
_cell_length_b     61.223945
_cell_length_c     20.655718
_cell_angle_alpha  98.67741
_cell_angle_beta   89.872239
_cell_angle_gamma 89.504475
loop_
_atom_site_label
_atom_site_type_symbol
_atom_site_fract_x
_atom_site_fract_y
_atom_site_fract_z
_atom_type_partial_charge
C0 C 0.81871 0.50033 0.45067 0.0
C1 C 0.84337 0.49681 0.44848 0.0
C2 C 0.85473 0.49397 0.38722 0.0
C3 C 0.81992 0.50541 0.33716 0.0
C4 C 0.80702 0.50361 0.39208 0.0
C5 C 0.78115 0.50735 0.37796 0.0
H6 H 0.70472 0.54126 0.15284 0.0
C7 C 0.80554 0.51508 0.29083 0.0
C8 C 0.78207 0.51273 0.30713 0.0
H9 H 0.69503 0.4809 0.23316 0.0
H10 H 0.7332 0.48611 0.28779 0.0
H11 H 0.73725 0.57179 0.27994 0.0
H12 H 0.74945 0.52656 0.10138 0.0
H13 H 0.7714 0.54638 0.10688 0.0
H14 H 0.74147 0.55493 0.10035 0.0
H15 H 0.73049 0.57827 0.20008 0.0
H16 H 0.75933 0.58237 0.23412 0.0
C17 C 0.77155 0.52718 0.42552 0.0
C18 C 0.76739 0.48632 0.38387 0.0
C19 C 0.84649 0.57464 0.19072 0.0
C20 C 0.83941 0.5893 0.14829 0.0
C21 C 0.81548 0.5912 0.13456 0.0
C22 C 0.79908 0.57798 0.16105 0.0
C23 C 0.8069 0.56207 0.19905 0.0
C24 C 0.8303 0.56078 0.21346 0.0
C25 C 0.83618 0.54209 0.25011 0.0
C26 C 0.81215 0.53211 0.2553 0.0
C27 C 0.7951 0.54423 0.22725 0.0
C28 C 0.84603 0.55217 0.31764 0.0
C29 C 0.85359 0.5259 0.2092 0.0
C30 C 0.71001 0.52972 0.18508 0.0
C31 C 0.69651 0.51098 0.18967 0.0
C32 C 0.70464 0.49588 0.23041 0.0
C33 C 0.72638 0.49907 0.26319 0.0
C34 C 0.73971 0.51782 0.25691 0.0
C35 C 0.73165 0.53238 0.21645 0.0
C36 C 0.75051 0.54736 0.19879 0.0
C37 C 0.77132 0.53867 0.23218 0.0
C38 C 0.76474 0.52261 0.27068 0.0
C39 C 0.74414 0.5713 0.22933 0.0
C40 C 0.7534 0.54389 0.12305 0.0
H41 H 0.85208 0.49582 0.28525 0.0
H42 H 0.80925 0.50149 0.49646 0.0
H43 H 0.77129 0.47314 0.342 0.0
H44 H 0.74839 0.48981 0.38616 0.0
H45 H 0.77197 0.47998 0.42992 0.0
H46 H 0.78208 0.54218 0.42273 0.0
H47 H 0.77196 0.52368 0.47676 0.0
H48 H 0.75321 0.5308 0.4131 0.0
H49 H 0.8648 0.57217 0.20058 0.0
H50 H 0.80968 0.60207 0.10094 0.0
H51 H 0.78113 0.57984 0.1481 0.0
H52 H 0.83282 0.56307 0.34618 0.0
H53 H 0.86174 0.56218 0.31166 0.0
H54 H 0.85145 0.53949 0.34736 0.0
H55 H 0.86039 0.53227 0.16531 0.0
H56 H 0.84521 0.50991 0.19032 0.0
H57 H 0.86914 0.52266 0.23838 0.0
H58 H 0.87321 0.49006 0.38355 0.0
C59 C 0.84296 0.49795 0.33121 0.0
C60 C 0.91894 0.77142 0.01718 0.0
C61 C 0.91539 0.79438 0.02063 0.0
C62 C 0.90476 0.80609 0.07739 0.0
C63 C 0.91054 0.7746 0.13278 0.0
C64 C 0.91646 0.76181 0.07429 0.0
C65 C 0.92302 0.73862 0.08361 0.0
H66 H 0.98815 0.67651 0.22957 0.0
C67 C 0.91756 0.76275 0.18646 0.0
C68 C 0.92304 0.74103 0.15872 0.0
H69 H 0.93444 0.65425 0.08832 0.0
H70 H 0.91413 0.68982 0.11698 0.0
H71 H 0.99339 0.7307 0.21516 0.0
H72 H 0.94325 0.70115 0.33329 0.0
H73 H 0.95584 0.72517 0.37681 0.0
H74 H 0.97389 0.70114 0.35161 0.0
H75 H 1.00254 0.71512 0.27802 0.0
H76 H 0.99284 0.74323 0.29866 0.0
C77 C 0.9475 0.73263 0.05421 0.0
C78 C 0.90422 0.72277 0.05065 0.0
C79 C 0.94646 0.81188 0.38852 0.0
C80 C 0.96226 0.80929 0.43862 0.0
C81 C 0.97262 0.78821 0.43867 0.0
C82 C 0.96712 0.77025 0.38974 0.0
C83 C 0.95128 0.7734 0.33984 0.0
C84 C 0.94141 0.79409 0.34014 0.0
C85 C 0.92582 0.79534 0.28274 0.0
C86 C 0.9271 0.77162 0.24832 0.0
C87 C 0.9421 0.75867 0.28165 0.0
C88 C 0.93629 0.8123 0.2416 0.0
C89 C 0.9009 0.80139 0.30863 0.0
C90 C 0.97251 0.67956 0.20295 0.0
C91 C 0.9636 0.66316 0.15367 0.0
C92 C 0.9422 0.66699 0.12366 0.0
C93 C 0.93108 0.68753 0.13718 0.0
C94 C 0.94191 0.70439 0.1789 0.0
C95 C 0.96063 0.70004 0.21646 0.0
C96 C 0.9646 0.71927 0.27107 0.0
C97 C 0.9464 0.73611 0.25451 0.0
C98 C 0.93463 0.7272 0.19733 0.0
C99 C 0.98973 0.72758 0.26586 0.0
C100 C 0.95928 0.71138 0.33701 0.0
H101 H 0.89456 0.80565 0.17633 0.0
H102 H 0.92574 0.76174 0.97289 0.0
H103 H 0.89677 0.72876 1.00681 0.0
H104 H 0.8896 0.72108 0.08493 0.0
H105 H 0.91163 0.70624 0.03192 0.0
H106 H 0.96067 0.74467 0.0767 0.0
H107 H 0.9476 0.73255 1.00043 0.0
H108 H 0.95312 0.71591 0.06228 0.0
H109 H 0.93868 0.82784 0.38501 0.0
H110 H 0.9849 0.78559 0.47654 0.0
H111 H 0.97561 0.7547 0.39194 0.0
H112 H 0.94414 0.80399 0.19503 0.0
H113 H 0.95056 0.82226 0.2672 0.0
H114 H 0.92312 0.8246 0.23078 0.0
H115 H 0.8964 0.7922 0.34945 0.0
H116 H 0.88745 0.79689 0.2708 0.0
H117 H 0.89937 0.81935 0.32727 0.0
H118 H 0.90091 0.82358 0.08135 0.0
C119 C 0.9019 0.79604 0.13332 0.0
C120 C 0.83451 0.9773 0.17688 0.0
C121 C 0.83975 0.97503 0.10867 0.0
C122 C 0.82133 0.97016 0.06374 0.0
C123 C 0.79537 0.96404 0.15065 0.0
C124 C 0.81166 0.97217 0.1969 0.0
C125 C 0.80164 0.97228 0.26564 0.0
H126 H 0.70751 0.9379 0.43402 0.0
C127 C 0.7758 0.9549 0.183 0.0
C128 C 0.77747 0.96193 0.25065 0.0
H129 H 0.72903 0.00608 0.45829 0.0
H130 H 0.75764 0.99664 0.36917 0.0
H131 H 0.70684 0.92704 0.25009 0.0
H132 H 0.76188 0.91206 0.38299 0.0
H133 H 0.75095 0.8919 0.31988 0.0
H134 H 0.73313 0.90111 0.39078 0.0
H135 H 0.69622 0.92659 0.33035 0.0
H136 H 0.7068 0.90192 0.28646 0.0
C137 C 0.80017 0.99607 0.30192 0.0
C138 C 0.81681 0.95774 0.3038 0.0
C139 C 0.72436 0.89681 0.05741 0.0
C140 C 0.70922 0.88148 0.08001 0.0
C141 C 0.71438 0.8743 0.1403 0.0
C142 C 0.73074 0.88566 0.18284 0.0
C143 C 0.74131 0.90436 0.16491 0.0
C144 C 0.74033 0.9081 0.10098 0.0
C145 C 0.75539 0.92718 0.08934 0.0
C146 C 0.76305 0.93565 0.1592 0.0
C147 C 0.75364 0.9228 0.20335 0.0
C148 C 0.74018 0.94462 0.06167 0.0
C149 C 0.7759 0.9181 0.04341 0.0
C150 C 0.71895 0.95082 0.42302 0.0
C151 C 0.71607 0.97264 0.45514 0.0
C152 C 0.73091 0.989 0.43586 0.0
C153 C 0.74789 0.98356 0.38571 0.0
C154 C 0.75026 0.96158 0.35468 0.0
C155 C 0.73495 0.94594 0.37126 0.0
C156 C 0.73526 0.9251 0.32209 0.0
C157 C 0.75182 0.93174 0.27066 0.0
C158 C 0.76254 0.95204 0.29331 0.0
C159 C 0.71015 0.91988 0.29557 0.0
C160 C 0.7458 0.90643 0.35559 0.0
H161 H 0.78601 0.9609 0.04818 0.0
H162 H 0.84796 0.98183 0.21296 0.0
H163 H 0.81842 0.94069 0.27649 0.0
H164 H 0.80891 0.95674 0.35243 0.0
H165 H 0.83459 0.9647 0.31177 0.0
H166 H 0.78669 0.00576 0.27968 0.0
H167 H 0.81719 0.00447 0.29969 0.0
H168 H 0.79606 0.99622 0.35446 0.0
H169 H 0.72184 0.90217 0.01035 0.0
H170 H 0.70411 0.86152 0.15737 0.0
H171 H 0.73367 0.88052 0.22958 0.0
H172 H 0.72345 0.94741 0.08919 0.0
H173 H 0.73607 0.93915 0.00923 0.0
H174 H 0.74877 0.96088 0.06608 0.0
H175 H 0.79279 0.91906 0.06986 0.0
H176 H 0.77745 0.92703 1.00071 0.0
H177 H 0.77361 0.90044 0.02222 0.0
H178 H 0.82425 0.96972 0.0117 0.0
C179 C 0.79931 0.96466 0.08437 0.0
C180 C 0.54079 0.73756 0.35818 0.0
C181 C 0.5314 0.71953 0.38483 0.0
C182 C 0.51029 0.71026 0.36007 0.0
C183 C 0.51068 0.73321 0.27515 0.0
C184 C 0.5295 0.74463 0.3041 0.0
C185 C 0.5348 0.76446 0.27049 0.0
H186 H 0.5131 0.81689 1.00588 0.0
C187 C 0.50505 0.74163 0.21424 0.0
C188 C 0.51841 0.76059 0.21153 0.0
H189 H 0.55232 0.84283 0.17813 0.0
H190 H 0.54703 0.80822 0.22151 0.0
H191 H 0.5362 0.76993 0.98873 0.0
H192 H 0.47143 0.79533 0.07455 0.0
H193 H 0.46615 0.77006 0.02311 0.0
H194 H 0.47856 0.79265 0.98892 0.0
H195 H 0.51039 0.77034 0.94035 0.0
H196 H 0.51769 0.74702 0.98082 0.0
C197 C 0.56065 0.76366 0.24944 0.0
C198 C 0.52807 0.78554 0.31815 0.0
C199 C 0.46672 0.68848 0.03617 0.0
C200 C 0.46517 0.68806 0.96817 0.0
C201 C 0.46934 0.7077 0.9422 0.0
C202 C 0.47668 0.72687 0.98287 0.0
C203 C 0.4803 0.72628 0.04996 0.0
C204 C 0.47474 0.70744 0.07571 0.0
C205 C 0.48113 0.70898 0.14671 0.0
C206 C 0.49252 0.7316 0.15865 0.0
C207 C 0.49187 0.74165 0.10211 0.0
C208 C 0.49868 0.69001 0.15329 0.0
C209 C 0.45837 0.70817 0.18719 0.0
C210 C 0.52038 0.81526 0.05329 0.0
C211 C 0.5326 0.83278 0.08935 0.0
C212 C 0.54259 0.82965 0.14975 0.0
C213 C 0.53918 0.80975 0.17528 0.0
C214 C 0.52563 0.79292 0.14002 0.0
C215 C 0.51698 0.79576 0.07934 0.0
C216 C 0.50356 0.77617 0.04717 0.0
C217 C 0.50349 0.76195 0.10104 0.0
C218 C 0.51677 0.77149 0.15524 0.0
C219 C 0.51747 0.76529 0.98591 0.0
C220 C 0.47859 0.78384 0.03214 0.0
H221 H 0.48412 0.70909 0.28803 0.0
H222 H 0.55648 0.74559 0.3783 0.0
H223 H 0.51234 0.78274 0.34734 0.0
H224 H 0.5233 0.7995 0.29257 0.0
H225 H 0.54243 0.79063 0.35305 0.0
H226 H 0.56513 0.74718 0.22144 0.0
H227 H 0.57224 0.76662 0.29285 0.0
H228 H 0.56468 0.77604 0.21744 0.0
H229 H 0.46386 0.67367 0.05771 0.0
H230 H 0.46797 0.70792 0.89001 0.0
H231 H 0.48015 0.74114 0.9601 0.0
H232 H 0.5132 0.68993 0.11742 0.0
H233 H 0.49003 0.67368 0.14395 0.0
H234 H 0.50678 0.6912 0.20182 0.0
H235 H 0.44241 0.70964 0.15756 0.0
H236 H 0.45721 0.72212 0.22821 0.0
H237 H 0.45703 0.69237 0.20723 0.0
H238 H 0.50252 0.69673 0.38057 0.0
C239 C 0.4998 0.71716 0.30586 0.0
C240 C 0.33961 0.50296 0.36222 0.0
C241 C 0.35461 0.51271 0.41301 0.0
C242 C 0.34881 0.5336 0.44731 0.0
C243 C 0.31374 0.53505 0.38307 0.0
C244 C 0.31921 0.51466 0.34753 0.0
C245 C 0.30094 0.508 0.29467 0.0
H246 H 0.20036 0.53943 0.14671 0.0
C247 C 0.29184 0.5433 0.35778 0.0
C248 C 0.2841 0.52789 0.30459 0.0
H249 H 0.23683 0.47742 0.09382 0.0
H250 H 0.26562 0.48853 0.18012 0.0
H251 H 0.20008 0.53752 0.28913 0.0
H252 H 0.24461 0.571 0.17073 0.0
H253 H 0.23891 0.58981 0.2422 0.0
H254 H 0.21498 0.57898 0.19089 0.0
H255 H 0.19251 0.56418 0.26951 0.0
H256 H 0.20866 0.56098 0.34246 0.0
C257 C 0.28901 0.48674 0.30864 0.0
C258 C 0.31289 0.50526 0.22704 0.0
C259 C 0.25282 0.61087 0.48741 0.0
C260 C 0.23077 0.62066 0.4813 0.0
C261 C 0.21892 0.61569 0.42105 0.0
C262 C 0.2275 0.59959 0.3713 0.0
C263 C 0.248 0.58795 0.38179 0.0
C264 C 0.26087 0.59436 0.43764 0.0
C265 C 0.28214 0.58001 0.44044 0.0
C266 C 0.27879 0.56285 0.37963 0.0
C267 C 0.25879 0.56762 0.3458 0.0
C268 C 0.28079 0.56958 0.50437 0.0
C269 C 0.30394 0.59451 0.43474 0.0
C270 C 0.21471 0.52826 0.15255 0.0
C271 C 0.21646 0.50775 0.11232 0.0
C272 C 0.23506 0.49344 0.12387 0.0
C273 C 0.25178 0.49993 0.17379 0.0
C274 C 0.24966 0.52078 0.21342 0.0
C275 C 0.23102 0.53426 0.20214 0.0
C276 C 0.22966 0.55502 0.25019 0.0
C277 C 0.25096 0.55256 0.29148 0.0
C278 C 0.26313 0.53256 0.27053 0.0
C279 C 0.20657 0.55464 0.28979 0.0
C280 C 0.23198 0.57486 0.21194 0.0
H281 H 0.32548 0.56045 0.46167 0.0
H282 H 0.34377 0.48693 0.33462 0.0
H283 H 0.32335 0.52012 0.22197 0.0
H284 H 0.30017 0.50322 0.18664 0.0
H285 H 0.3248 0.49067 0.22055 0.0
H286 H 0.28331 0.48855 0.36069 0.0
H287 H 0.30121 0.47241 0.29924 0.0
H288 H 0.27328 0.48291 0.27858 0.0
H289 H 0.2628 0.61471 0.53205 0.0
H290 H 0.20193 0.62277 0.41393 0.0
H291 H 0.21702 0.59595 0.3282 0.0
H292 H 0.26262 0.56456 0.51353 0.0
H293 H 0.28632 0.58153 0.54738 0.0
H294 H 0.29131 0.55435 0.50278 0.0
H295 H 0.29965 0.60964 0.41315 0.0
H296 H 0.31736 0.58581 0.40143 0.0
H297 H 0.31187 0.6 0.48342 0.0
H298 H 0.35997 0.54138 0.48628 0.0
C299 C 0.32869 0.54473 0.43272 0.0
C300 C 0.11787 0.21581 0.51477 0.0
C301 C 0.11733 0.19287 0.51506 0.0
C302 C 0.12561 0.17862 0.45955 0.0
C303 C 0.1261 0.20927 0.39864 0.0
C304 C 0.12218 0.22371 0.45569 0.0
C305 C 0.11954 0.24719 0.4432 0.0
H306 H 0.06417 0.3138 0.28981 0.0
C307 C 0.12189 0.22116 0.3429 0.0
C308 C 0.11956 0.24363 0.36806 0.0
H309 H 0.11838 0.33101 0.43393 0.0
H310 H 0.13487 0.29373 0.40681 0.0
H311 H 0.10808 0.28438 0.18994 0.0
H312 H 0.05216 0.26108 0.3035 0.0
H313 H 0.05281 0.24803 0.2205 0.0
H314 H 0.04637 0.27703 0.23879 0.0
H315 H 0.07804 0.28732 0.16789 0.0
H316 H 0.09361 0.26158 0.14571 0.0
C317 C 0.14058 0.26053 0.47409 0.0
C318 C 0.09608 0.25695 0.4721 0.0
C319 C 0.0933 0.17496 0.13464 0.0
C320 C 0.07933 0.1792 0.0822 0.0
C321 C 0.07117 0.20102 0.0816 0.0
C322 C 0.07723 0.21827 0.13208 0.0
C323 C 0.09132 0.21359 0.18414 0.0
C324 C 0.09879 0.19209 0.18484 0.0
C325 C 0.11192 0.1893 0.24577 0.0
C326 C 0.11265 0.21304 0.28005 0.0
C327 C 0.10052 0.22736 0.24399 0.0
C328 C 0.1367 0.1805 0.22613 0.0
C329 C 0.09764 0.17381 0.28411 0.0
C330 C 0.07906 0.30934 0.31732 0.0
C331 C 0.08913 0.32489 0.36704 0.0
C332 C 0.10967 0.31909 0.39811 0.0
C333 C 0.11858 0.29761 0.38544 0.0
C334 C 0.10635 0.2818 0.34361 0.0
C335 C 0.08876 0.28783 0.30473 0.0
C336 C 0.08337 0.26891 0.2503 0.0
C337 C 0.09891 0.25036 0.2694 0.0
C338 C 0.11084 0.25829 0.32717 0.0
C339 C 0.091 0.27581 0.18465 0.0
C340 C 0.05723 0.26342 0.253 0.0
H341 H 0.13586 0.17546 0.35947 0.0
H342 H 0.11261 0.22708 0.55793 0.0
H343 H 0.08125 0.24667 0.45109 0.0
H344 H 0.09319 0.27401 0.46211 0.0
H345 H 0.09569 0.25786 0.52617 0.0
H346 H 0.14743 0.25374 0.51738 0.0
H347 H 0.13563 0.27785 0.49318 0.0
H348 H 0.15515 0.26032 0.43842 0.0
H349 H 0.09919 0.15831 0.13811 0.0
H350 H 0.0602 0.20475 0.04201 0.0
H351 H 0.0704 0.23448 0.12944 0.0
H352 H 0.1442 0.18941 0.18793 0.0
H353 H 0.13633 0.16261 0.20614 0.0
H354 H 0.14898 0.18303 0.26774 0.0
H355 H 0.0821 0.1667 0.25683 0.0
H356 H 0.09064 0.18274 0.33098 0.0
H357 H 0.10812 0.15938 0.29409 0.0
H358 H 0.12608 0.1609 0.45881 0.0
C359 C 0.13039 0.18688 0.40135 0.0
C360 C 0.32029 0.01239 0.15441 0.0
C361 C 0.34507 0.0138 0.15396 0.0
C362 C 0.35689 0.01529 0.21406 0.0
C363 C 0.32047 0.0149 0.2735 0.0
C364 C 0.30826 0.01324 0.21531 0.0
C365 C 0.28202 0.01258 0.22836 0.0
H366 H 0.1958 0.0256 0.46768 0.0
C367 C 0.30378 0.01652 0.3287 0.0
C368 C 0.28087 0.0159 0.30359 0.0
H369 H 0.18373 0.0047 0.26223 0.0
H370 H 0.22571 0.00799 0.23976 0.0
H371 H 0.22906 0.99312 0.4747 0.0
H372 H 0.23721 0.06127 0.46143 0.0
H373 H 0.25818 0.0553 0.51844 0.0
H374 H 0.22773 0.05034 0.53287 0.0
H375 H 0.23201 0.01291 0.547 0.0
H376 H 0.25679 0.99794 0.50772 0.0
C377 C 0.27306 0.98963 0.19832 0.0
C378 C 0.26973 0.0315 0.2002 0.0
C379 C 0.33272 0.01065 0.55766 0.0
C380 C 0.32042 0.01031 0.61653 0.0
C381 C 0.29747 0.01841 0.6227 0.0
C382 C 0.28613 0.02498 0.56897 0.0
C383 C 0.29756 0.02244 0.50786 0.0
C384 C 0.32085 0.01668 0.50364 0.0
C385 C 0.33011 0.01557 0.43477 0.0
C386 C 0.30773 0.01884 0.39737 0.0
C387 C 0.2889 0.02266 0.44066 0.0
C388 C 0.34101 0.99235 0.41318 0.0
C389 C 0.34739 0.03495 0.43405 0.0
C390 C 0.20199 0.02227 0.41746 0.0
C391 C 0.18651 0.01534 0.36691 0.0
C392 C 0.19542 0.0103 0.30228 0.0
C393 C 0.21972 0.01201 0.28946 0.0
C394 C 0.23522 0.0181 0.34208 0.0
C395 C 0.22585 0.02285 0.40464 0.0
C396 C 0.24382 0.02545 0.45687 0.0
C397 C 0.26587 0.0225 0.41648 0.0
C398 C 0.26137 0.01858 0.34852 0.0
C399 C 0.24033 0.0066 0.49914 0.0
C400 C 0.24165 0.04924 0.49501 0.0
H401 H 0.35521 0.01695 0.31638 0.0
H402 H 0.31063 0.0112 0.10907 0.0
H403 H 0.27781 0.04759 0.21962 0.0
H404 H 0.25103 0.03268 0.21342 0.0
H405 H 0.27115 0.02901 0.14592 0.0
H406 H 0.28428 0.97639 0.21347 0.0
H407 H 0.2733 0.98775 0.14396 0.0
H408 H 0.2552 0.98664 0.21451 0.0
H409 H 0.35051 0.00455 0.55231 0.0
H410 H 0.28791 0.01847 0.66804 0.0
H411 H 0.26845 0.03052 0.57641 0.0
H412 H 0.32937 0.97933 0.42687 0.0
H413 H 0.35813 0.99078 0.43718 0.0
H414 H 0.34358 0.98834 0.35976 0.0
H415 H 0.3457 0.04763 0.4785 0.0
H416 H 0.34409 0.04409 0.39247 0.0
H417 H 0.36578 0.02903 0.43178 0.0
H418 H 0.37576 0.01608 0.21548 0.0
C419 C 0.34487 0.01587 0.27307 0.0
C420 C 0.51709 0.25065 0.18912 0.0
C421 C 0.52778 0.26707 0.15788 0.0
C422 C 0.55084 0.27335 0.17458 0.0
C423 C 0.54977 0.25215 0.26331 0.0
C424 C 0.52906 0.24275 0.24073 0.0
C425 C 0.52282 0.22398 0.27786 0.0
H426 H 0.54173 0.17676 0.55322 0.0
C427 C 0.55588 0.24438 0.32448 0.0
C428 C 0.54108 0.22687 0.3325 0.0
H429 H 0.49953 0.15045 0.38697 0.0
H430 H 0.50949 0.18192 0.33306 0.0
H431 H 0.58587 0.19196 0.47397 0.0
H432 H 0.52478 0.22371 0.56342 0.0
H433 H 0.54388 0.24574 0.55972 0.0
H434 H 0.55166 0.22436 0.60728 0.0
H435 H 0.57966 0.19721 0.56029 0.0
H436 H 0.59387 0.21756 0.51994 0.0
C437 C 0.52626 0.20191 0.23114 0.0
C438 C 0.49779 0.22745 0.30515 0.0
C439 C 0.59283 0.30082 0.49566 0.0
C440 C 0.59484 0.30209 0.5639 0.0
C441 C 0.59233 0.28257 0.59183 0.0
C442 C 0.58569 0.26275 0.55323 0.0
C443 C 0.58122 0.26251 0.48625 0.0
C444 C 0.58573 0.28109 0.45805 0.0
C445 C 0.57945 0.27822 0.38668 0.0
C446 C 0.56902 0.2551 0.37785 0.0
C447 C 0.56977 0.24622 0.4365 0.0
C448 C 0.60205 0.27951 0.34593 0.0
C449 C 0.5611 0.29614 0.37651 0.0
C450 C 0.53449 0.1777 0.50532 0.0
C451 C 0.51982 0.16104 0.47447 0.0
C452 C 0.51107 0.16291 0.41159 0.0
C453 C 0.51694 0.18106 0.38023 0.0
C454 C 0.53198 0.19733 0.41164 0.0
C455 C 0.54038 0.19545 0.47329 0.0
C456 C 0.5559 0.21427 0.50018 0.0
C457 C 0.55702 0.22684 0.44245 0.0
C458 C 0.54265 0.21716 0.39091 0.0
C459 C 0.58014 0.20486 0.51486 0.0
C460 C 0.54362 0.22772 0.56087 0.0
H461 H 0.57945 0.27087 0.23823 0.0
H462 H 0.49991 0.24459 0.17458 0.0
H463 H 0.49582 0.24421 0.33417 0.0
H464 H 0.49327 0.21536 0.3377 0.0
H465 H 0.48489 0.22587 0.26472 0.0
H466 H 0.53993 0.20332 0.19372 0.0
H467 H 0.50989 0.19678 0.20468 0.0
H468 H 0.53249 0.18844 0.25697 0.0
H469 H 0.59472 0.3154 0.47241 0.0
H470 H 0.59441 0.28287 0.64406 0.0
H471 H 0.5833 0.24862 0.57746 0.0
H472 H 0.61768 0.28358 0.37708 0.0
H473 H 0.60072 0.29261 0.31425 0.0
H474 H 0.60605 0.2635 0.3147 0.0
H475 H 0.54565 0.29516 0.40859 0.0
H476 H 0.55485 0.29465 0.32572 0.0
H477 H 0.56849 0.31296 0.38807 0.0
H478 H 0.55974 0.2853 0.1499 0.0
C479 C 0.562 0.26565 0.22664 0.0
Tb480 Tb 0.99929 0.00887 0.71077 0.0
Tb481 Tb 0.0358 0.98452 0.79598 0.0
C482 C 0.98286 0.99142 0.83672 0.0
C483 C 0.97687 0.05694 0.6542 0.0
C484 C 0.99846 0.09797 0.65415 0.0
C485 C 0.99161 0.0853 0.59486 0.0
C486 C 0.98097 0.06483 0.59488 0.0
C487 C 0.9815 0.0708 0.71354 0.0
C488 C 0.99242 0.09103 0.71346 0.0
C489 C 0.97322 0.03312 0.65435 0.0
O490 O 1.01143 0.03307 0.79214 0.0
O491 O 0.04736 0.01861 0.80851 0.0
O492 O 0.05347 0.98511 0.70228 0.0
O493 O 0.03365 0.01413 0.66948 0.0
O494 O 0.05042 0.98116 0.88742 0.0
O495 O 0.06052 0.95928 0.80014 0.0
O496 O 1.01315 0.95868 0.7485 0.0
O497 O 0.99962 0.97468 0.66195 0.0
O498 O 0.97792 0.99208 0.77506 0.0
O499 O 1.00458 0.9931 0.85704 0.0
C500 C 0.03287 0.0355 0.81412 0.0
O501 O 0.98923 0.02023 0.62361 0.0
O502 O 0.96827 0.02738 0.71103 0.0
C503 C 0.05141 0.00022 0.66357 0.0
C504 C 0.05053 0.94262 0.89096 0.0
C505 C 0.0227 0.9063 0.90927 0.0
C506 C 0.0426 0.90322 0.86896 0.0
C507 C 0.05645 0.92122 0.8601 0.0
C508 C 0.03201 0.94525 0.93633 0.0
C509 C 0.01825 0.92727 0.94534 0.0
C510 C 0.05949 0.96195 0.86386 0.0
C511 C 1.0038 0.95712 0.69005 0.0
H512 H 0.9962 0.09037 0.54847 0.0
H513 H 0.9777 0.05442 0.5486 0.0
H514 H 0.9784 0.06533 0.76021 0.0
H515 H 0.99738 0.10067 0.75968 0.0
H516 H 0.04656 0.88723 0.84073 0.0
H517 H 0.0706 0.9187 0.82484 0.0
H518 H 0.02698 0.96144 0.96139 0.0
H519 H 1.00344 0.93002 0.97831 0.0
Tb520 Tb 0.51233 0.9792 0.72368 0.0
Tb521 Tb 0.53637 0.01306 0.8384 0.0
C522 C 0.52854 0.96419 0.85129 0.0
C523 C 0.47618 0.93407 0.6536 0.0
C524 C 0.4328 0.92015 0.69462 0.0
C525 C 0.45236 0.91994 0.73525 0.0
C526 C 0.4739 0.92696 0.715 0.0
C527 C 0.45764 0.93103 0.6094 0.0
C528 C 0.4361 0.92397 0.62958 0.0
C529 C 0.49516 0.94906 0.64229 0.0
O530 O 0.48183 0.99162 0.78315 0.0
O531 O 0.49998 0.01272 0.87031 0.0
O532 O 0.51948 0.035 0.77919 0.0
O533 O 0.51577 0.01018 0.68393 0.0
O534 O 0.53643 0.02741 0.93754 0.0
O535 O 0.565 0.0325 0.87453 0.0
O536 O 0.56068 0.01049 0.75618 0.0
O537 O 0.55031 0.97592 0.70929 0.0
O538 O 0.51057 0.96506 0.81331 0.0
O539 O 0.54474 0.97915 0.85255 0.0
C540 C 0.48106 0.00396 0.84137 0.0
O541 O 0.48892 0.96982 0.64657 0.0
O542 O 0.51448 0.94672 0.67388 0.0
C543 C 0.5156 0.03058 0.7157 0.0
C544 C 0.57407 0.01935 0.97318 0.0
C545 C 0.5976 0.98141 1.00172 0.0
C546 C 0.60882 0.99613 0.96609 0.0
C547 C 0.59722 0.01501 0.95225 0.0
C548 C 0.56424 0.00633 0.01677 0.0
C549 C 0.57582 0.98742 0.03047 0.0
C550 C 0.55852 0.03197 0.93481 0.0
C551 C 0.56538 0.99218 0.71658 0.0
H552 H 0.45044 0.91679 0.78521 0.0
H553 H 0.48806 0.92887 0.74993 0.0
H554 H 0.45907 0.93634 0.56182 0.0
H555 H 0.42144 0.92434 0.59679 0.0
H556 H 0.62602 0.99235 0.94542 0.0
H557 H 0.6055 0.02491 0.91959 0.0
H558 H 0.54656 0.00935 0.03476 0.0
H559 H 0.56681 0.97658 0.05884 0.0
Tb560 Tb 0.51046 0.48323 0.82473 0.0
Tb561 Tb 0.54618 0.50566 0.72699 0.0
C562 C 0.49492 0.4926 0.68398 0.0
C563 C 0.48662 0.44281 0.9248 0.0
C564 C 0.48981 0.40137 0.96927 0.0
C565 C 0.46831 0.41271 0.97003 0.0
C566 C 0.46675 0.43319 0.94783 0.0
C567 C 0.50821 0.43189 0.92534 0.0
C568 C 0.5098 0.41139 0.94744 0.0
C569 C 0.48414 0.46285 0.89371 0.0
O570 O 0.53727 0.45889 0.79374 0.0
O571 O 0.54981 0.46998 0.69803 0.0
O572 O 0.56795 0.49639 0.80504 0.0
O573 O 0.54037 0.49571 0.88571 0.0
O574 O 0.55713 0.51069 0.63303 0.0
O575 O 0.57422 0.527 0.71963 0.0
O576 O 0.53058 0.53221 0.79493 0.0
O577 O 0.49674 0.51645 0.82469 0.0
O578 O 0.4947 0.47874 0.7269 0.0
O579 O 0.51156 0.50724 0.68428 0.0
C580 C 0.54831 0.45504 0.73748 0.0
O581 O 0.48495 0.45929 0.83009 0.0
O582 O 0.49648 0.48 0.91742 0.0
C583 C 0.56234 0.49667 0.86701 0.0
C584 C 0.57051 0.54717 0.63216 0.0
C585 C 0.56844 0.58937 0.59186 0.0
C586 C 0.5896 0.5774 0.58953 0.0
C587 C 0.59059 0.55653 0.6095 0.0
C588 C 0.54935 0.55896 0.63466 0.0
C589 C 0.5483 0.5798 0.61455 0.0
C590 C 0.57212 0.52575 0.65644 0.0
C591 C 0.50902 0.53386 0.81669 0.0
H592 H 0.45252 0.40545 0.98576 0.0
H593 H 0.44987 0.44123 0.94691 0.0
H594 H 0.52373 0.43898 0.9073 0.0
H595 H 0.52671 0.40336 0.94713 0.0
H596 H 0.60553 0.58429 0.57334 0.0
H597 H 0.60715 0.54781 0.60798 0.0
H598 H 0.53365 0.55208 0.65249 0.0
H599 H 0.53162 0.5883 0.61621 0.0
Tb600 Tb 0.04207 0.51089 0.71829 0.0
Tb601 Tb 0.02125 0.47777 0.81449 0.0
C602 C 0.02059 0.53025 0.85675 0.0
C603 C 0.07093 0.55818 0.66061 0.0
C604 C 0.09912 0.59598 0.68125 0.0
C605 C 0.08949 0.58864 0.61916 0.0
C606 C 0.07555 0.56988 0.609 0.0
C607 C 0.07922 0.56611 0.7236 0.0
C608 C 0.09326 0.58488 0.73385 0.0
C609 C 0.05862 0.53711 0.64738 0.0
O610 O 0.06702 0.51035 0.79802 0.0
O611 O 0.05929 0.47593 0.82229 0.0
O612 O 0.02749 0.45598 0.72268 0.0
O613 O 0.05134 0.47784 0.66995 0.0
O614 O 0.02239 0.46622 0.90529 0.0
O615 O 0.99725 0.45356 0.83238 0.0
O616 O 0.99107 0.49263 0.77252 0.0
O617 O 1.00815 0.50005 0.67821 0.0
O618 O 0.02656 0.53362 0.79777 0.0
O619 O 0.01963 0.5104 0.87344 0.0
C620 C 0.07319 0.49304 0.82499 0.0
O621 O 0.06991 0.52001 0.66251 0.0
O622 O 0.03692 0.53748 0.66632 0.0
C623 C 0.04151 0.45878 0.67422 0.0
C624 C 0.98305 0.46689 0.93851 0.0
C625 C 0.95346 0.50242 0.98808 0.0
C626 C 0.94593 0.48618 0.93708 0.0
C627 C 0.96054 0.46849 0.9127 0.0
C628 C 0.98871 0.48076 0.99694 0.0
C629 C 0.97406 0.49845 0.02144 0.0
C630 C 1.00209 0.45689 0.89482 0.0
C631 C 0.9894 0.49682 0.71214 0.0
H632 H 0.09394 0.59651 0.57726 0.0
H633 H 0.06919 0.56398 0.56017 0.0
H634 H 0.07556 0.55731 0.76419 0.0
H635 H 0.10027 0.59018 0.78226 0.0
H636 H 0.92947 0.48797 0.91272 0.0
H637 H 0.95522 0.45765 0.86896 0.0
H638 H 1.0057 0.47966 0.01914 0.0
H639 H 0.98022 0.51023 0.06204 0.0
H640 H 0.15124 0.04572 0.39497 0.0
H641 H 0.08618 0.97018 0.62108 0.0
H642 H 0.16768 0.97693 0.39296 0.0
H643 H 0.0584 0.03324 0.58791 0.0
H644 H 0.11592 0.97254 0.53738 0.0
H645 H 0.11645 0.04152 0.46166 0.0
C646 C 0.14696 0.02951 0.40628 0.0
C647 C 0.16201 0.01148 0.38657 0.0
C648 C 0.10328 0.98584 0.54808 0.0
C649 C 0.1229 0.00678 0.46638 0.0
C650 C 0.0863 0.98457 0.59634 0.0
C651 C 0.06967 0.00157 0.6122 0.0
C652 C 0.10402 0.0044 0.51543 0.0
C653 C 0.07079 0.01971 0.57767 0.0
C654 C 0.12729 0.02717 0.44526 0.0
C655 C 0.15619 0.99108 0.40534 0.0
N656 N 0.08771 0.02071 0.53151 0.0
N657 N 0.13735 0.98936 0.44471 0.0
H658 H 0.50899 0.16111 0.60378 0.0
H659 H 0.51321 0.02927 0.58203 0.0
H660 H 0.51858 0.11688 0.42214 0.0
H661 H 0.5112 0.07479 0.76327 0.0
H662 H 0.51084 0.06064 0.52146 0.0
H663 H 0.50518 0.1293 0.66118 0.0
C664 C 0.51021 0.14468 0.57584 0.0
C665 C 0.51443 0.14172 0.50802 0.0
C666 C 0.51078 0.06374 0.57448 0.0
C667 C 0.50999 0.10501 0.57381 0.0
C668 C 0.51209 0.04581 0.60922 0.0
C669 C 0.51255 0.04931 0.67807 0.0
C670 C 0.50983 0.08538 0.6087 0.0
C671 C 0.51105 0.0712 0.71033 0.0
C672 C 0.50798 0.12649 0.60871 0.0
C673 C 0.5153 0.11999 0.47436 0.0
N674 N 0.50984 0.08833 0.67545 0.0
N675 N 0.51332 0.10247 0.50765 0.0
H676 H 0.35972 0.47975 0.48857 0.0
H677 H 0.49095 0.51643 0.58169 0.0
H678 H 0.39914 0.52441 0.38987 0.0
H679 H 0.45438 0.46811 0.67441 0.0
H680 H 0.45848 0.51711 0.50566 0.0
H681 H 0.39504 0.47205 0.54921 0.0
C682 C 0.37604 0.48723 0.47773 0.0
C683 C 0.3766 0.50236 0.43297 0.0
C684 C 0.45755 0.50623 0.54229 0.0
C685 C 0.41693 0.49447 0.50439 0.0
C686 C 0.47616 0.50585 0.58604 0.0
C687 C 0.47554 0.49225 0.63513 0.0
C688 C 0.43786 0.49303 0.54738 0.0
C689 C 0.45575 0.4789 0.63764 0.0
C690 C 0.39615 0.48312 0.51312 0.0
C691 C 0.39805 0.51228 0.42285 0.0
N692 N 0.43771 0.47975 0.59488 0.0
N693 N 0.41718 0.50835 0.45857 0.0
H694 H 0.10804 0.36588 0.37256 0.0
H695 H 0.02007 0.41831 0.65355 0.0
H696 H 0.04614 0.33269 0.42272 0.0
H697 H 0.07369 0.45584 0.57442 0.0
H698 H 0.02845 0.38726 0.5672 0.0
H699 H 0.09436 0.39976 0.44085 0.0
C700 C 0.0912 0.36598 0.39649 0.0
C701 C 0.0781 0.34655 0.3917 0.0
C702 C 0.03828 0.40234 0.56848 0.0
C703 C 0.06271 0.385 0.47211 0.0
C704 C 0.03361 0.42007 0.61812 0.0
C705 C 0.0463 0.43975 0.62182 0.0
C706 C 0.05594 0.40415 0.52233 0.0
C707 C 0.06349 0.44102 0.57392 0.0
C708 C 0.08348 0.38525 0.43597 0.0
C709 C 0.05659 0.34742 0.42451 0.0
N710 N 0.06791 0.42345 0.52663 0.0
N711 N 0.04973 0.36621 0.46421 0.0
H712 H 0.85945 0.94581 0.01168 0.0
H713 H 0.98097 0.00439 0.97105 0.0
H714 H 0.87528 0.00597 0.14061 0.0
H715 H 0.94049 0.97221 0.80905 0.0
H716 H 0.94791 0.00029 0.04521 0.0
H717 H 0.89511 0.94967 0.95054 0.0
C718 C 0.87055 0.95982 0.02762 0.0
C719 C 0.86391 0.97587 0.08076 0.0
C720 C 0.94638 0.99416 0.99343 0.0
C721 C 0.90544 0.98018 0.01052 0.0
C722 C 0.96524 0.99636 0.9511 0.0
C723 C 0.96353 0.98868 0.88348 0.0
C724 C 0.92594 0.98361 0.96824 0.0
C725 C 0.94265 0.97851 0.86053 0.0
C726 C 0.89094 0.96199 0.99241 0.0
C727 C 0.87954 0.99327 0.09985 0.0
N728 N 0.92488 0.97612 0.90269 0.0
N729 N 0.89954 0.99507 0.06445 0.0
H730 H 0.57024 0.86018 0.07751 0.0
H731 H 0.49323 0.93817 0.88108 0.0
H732 H 0.49614 0.85464 0.04473 0.0
H733 H 0.56654 0.94961 0.91587 0.0
H734 H 0.49479 0.90828 0.94563 0.0
H735 H 0.57013 0.89388 0.02502 0.0
C736 C 0.55396 0.86618 0.05999 0.0
C737 C 0.53322 0.85441 0.06461 0.0
C738 C 0.51063 0.91728 0.93971 0.0
C739 C 0.53295 0.89267 1.00459 0.0
C740 C 0.50975 0.9344 0.90245 0.0
C741 C 0.52983 0.94644 0.89286 0.0
C742 C 0.5318 0.91181 0.96768 0.0
C743 C 0.55065 0.94082 0.92247 0.0
C744 C 0.55391 0.88531 0.02981 0.0
C745 C 0.51262 0.86289 0.04111 0.0
N746 N 0.55117 0.92379 0.9583 0.0
N747 N 0.51306 0.8813 0.012 0.0
H748 H 0.6512 0.49878 0.2166 0.0
H749 H 0.6091 0.50088 0.8457 0.0
H750 H 0.69534 0.51237 0.05855 0.0
H751 H 0.56019 0.49459 1.00073 0.0
H752 H 0.64082 0.50255 0.92399 0.0
H753 H 0.6179 0.49434 0.1399 0.0
C754 C 0.65394 0.50065 0.16585 0.0
C755 C 0.67611 0.50623 0.14436 0.0
C756 C 0.6232 0.5008 0.9413 0.0
C757 C 0.63815 0.50117 0.05632 0.0
C758 C 0.60492 0.49983 0.89629 0.0
C759 C 0.5817 0.49765 0.91617 0.0
C760 C 0.61857 0.49955 0.00752 0.0
C761 C 0.57773 0.49636 0.98289 0.0
C762 C 0.63491 0.49825 0.12217 0.0
C763 C 0.67857 0.50845 0.07789 0.0
N764 N 0.59592 0.49733 0.02609 0.0
N765 N 0.65997 0.50598 0.03676 0.0
H766 H 0.9506 0.62066 0.15792 0.0
H767 H 0.03183 0.57378 0.85655 0.0
H768 H 1.00483 0.6593 0.08752 0.0
H769 H 0.99619 0.53101 0.97091 0.0
H770 H 0.02134 0.60546 0.93894 0.0
H771 H 0.96671 0.58744 0.09068 0.0
C772 C 0.96632 0.62195 0.12965 0.0
C773 C 0.97659 0.6426 0.12866 0.0
C774 C 0.01593 0.58911 0.94626 0.0
C775 C 0.9946 0.60499 0.04978 0.0
C776 C 0.02178 0.57102 0.89899 0.0
C777 C 0.01475 0.54964 0.90672 0.0
C778 C 1.00262 0.5859 1.00122 0.0
C779 C 1.00192 0.54712 0.96305 0.0
C780 C 0.97542 0.60307 0.09097 0.0
C781 C 0.99667 0.64359 0.09037 0.0
N782 N 0.99605 0.56501 0.00776 0.0
N783 N 1.00481 0.62511 0.05161 0.0
H784 H 0.12559 0.15655 0.57655 0.0
H785 H 0.99338 0.13445 0.59365 0.0
H786 H 0.07478 0.20788 0.56037 0.0
H787 H 0.04097 0.10257 0.71187 0.0
H788 H 0.02337 0.16184 0.58131 0.0
H789 H 0.09588 0.13662 0.62963 0.0
C790 C 0.10844 0.16392 0.58587 0.0
C791 C 0.10263 0.18381 0.56358 0.0
C792 C 0.02707 0.14911 0.61107 0.0
C793 C 0.06861 0.16097 0.62234 0.0
C794 C 1.01003 0.1335 0.61779 0.0
C795 C 0.01482 0.11637 0.65371 0.0
C796 C 0.04921 0.1471 0.63883 0.0
C797 C 0.03666 0.11569 0.68403 0.0
C798 C 0.09152 0.15257 0.61608 0.0
C799 C 0.08013 0.19266 0.57698 0.0
N800 N 0.05328 0.1306 0.67484 0.0
N801 N 0.06379 0.18093 0.60403 0.0
H802 H 0.35934 0.01867 0.69195 0.0
H803 H 0.39075 0.90362 0.64549 0.0
H804 H 0.30326 0.97243 0.6486 0.0
H805 H 0.4207 0.94574 0.80987 0.0
H806 H 0.35464 0.92513 0.66179 0.0
H807 H 0.37947 0.9921 0.75039 0.0
C808 C 0.35101 0.00317 0.6967 0.0
C809 C 0.32986 0.99751 0.66539 0.0
C810 C 0.36879 0.92911 0.6961 0.0
C811 C 0.35287 0.96689 0.72958 0.0
C812 C 0.3894 0.91676 0.68683 0.0
C813 C 0.40917 0.92372 0.7239 0.0
C814 C 0.3684 0.94864 0.74158 0.0
C815 C 0.40623 0.94041 0.77809 0.0
C816 C 0.36234 0.98806 0.73023 0.0
C817 C 0.31966 0.97723 0.67226 0.0
N818 N 0.38659 0.95307 0.78346 0.0
N819 N 0.33163 0.96228 0.70185 0.0
H820 H 0.57151 0.31522 0.67891 0.0
H821 H 0.55444 0.42351 0.81621 0.0
H822 H 0.61781 0.33981 0.54178 0.0
H823 H 0.56911 0.43687 0.62081 0.0
H824 H 0.57133 0.38686 0.78741 0.0
H825 H 0.56403 0.35278 0.73065 0.0
C826 C 0.58083 0.32842 0.66102 0.0
C827 C 0.59519 0.3242 0.60532 0.0
C828 C 0.57064 0.39765 0.75049 0.0
C829 C 0.58636 0.3677 0.66434 0.0
C830 C 0.56107 0.41871 0.76694 0.0
C831 C 0.55983 0.4332 0.72031 0.0
C832 C 0.57886 0.39079 0.68663 0.0
C833 C 0.56937 0.42616 0.65797 0.0
C834 C 0.57643 0.35004 0.69065 0.0
C835 C 0.60621 0.34226 0.58371 0.0
N836 N 0.57834 0.40534 0.64274 0.0
N837 N 0.60118 0.36325 0.61238 0.0
H838 H 0.2337 0.61188 0.60778 0.0
H839 H 0.10172 0.63434 0.62705 0.0
H840 H 0.19768 0.65431 0.49093 0.0
H841 H 0.14011 0.59519 0.74836 0.0
H842 H 0.13771 0.65328 0.60679 0.0
H843 H 0.20302 0.61846 0.68882 0.0
C844 C 0.21981 0.62323 0.59975 0.0
C845 C 0.21779 0.63161 0.54022 0.0
C846 C 0.13816 0.64102 0.63949 0.0
C847 C 0.18177 0.6383 0.63239 0.0
C848 C 0.11759 0.63014 0.65089 0.0
C849 C 0.11807 0.61255 0.68733 0.0
C850 C 0.15934 0.63398 0.66392 0.0
C851 C 0.13893 0.60834 0.71886 0.0
C852 C 0.20201 0.62681 0.64626 0.0
C853 C 0.19934 0.64644 0.53423 0.0
N854 N 0.15885 0.61853 0.70494 0.0
N855 N 0.18158 0.64866 0.57848 0.0
H856 H 0.95827 0.78505 0.96465 0.0
H857 H 0.97513 0.90922 0.90617 0.0
H858 H 0.90188 0.83272 0.97462 0.0
H859 H 0.03135 0.86221 0.91195 0.0
H860 H 0.9471 0.87975 0.91113 0.0
H861 H 0.98343 0.81067 0.91987 0.0
C862 C 0.95083 0.8006 0.95548 0.0
C863 C 0.92789 0.80683 0.97487 0.0
C864 C 0.96556 0.87583 0.91085 0.0
C865 C 0.9572 0.83672 0.92568 0.0
C866 C 0.98159 0.89269 0.90879 0.0
C867 C 1.00566 0.88826 0.9101 0.0
C868 C 0.9736 0.85434 0.91431 0.0
C869 C 1.01299 0.86641 0.91118 0.0
C870 C 0.96544 0.81542 0.9307 0.0
C871 C 0.91958 0.82741 0.96214 0.0
N872 N 0.99702 0.85031 0.91393 0.0
N873 N 0.93437 0.84181 0.93958 0.0
H874 H 0.66813 0.87998 0.14748 0.0
H875 H 0.61838 0.95369 0.90164 0.0
H876 H 0.69452 0.87914 0.95115 0.0
H877 H 0.59842 0.95769 0.10471 0.0
H878 H 0.63697 0.91798 0.90663 0.0
H879 H 0.63231 0.89667 0.11659 0.0
C880 C 0.6662 0.88239 0.09692 0.0
C881 C 0.68515 0.87942 0.05295 0.0
C882 C 0.62825 0.92652 0.94986 0.0
C883 C 0.64425 0.89948 0.01838 0.0
C884 C 0.61797 0.94708 0.94742 0.0
C885 C 0.6076 0.95909 1.00363 0.0
C886 C 0.62834 0.91792 0.00909 0.0
C887 C 0.60658 0.94922 0.06055 0.0
C888 C 0.64567 0.89233 0.07963 0.0
C889 C 0.68092 0.8824 0.98786 0.0
N890 N 0.61719 0.92939 0.06213 0.0
N891 N 0.66128 0.89317 0.97313 0.0
H892 H 0.49043 0.67387 0.85735 0.0
H893 H 0.46797 0.5469 0.88155 0.0
H894 H 0.43782 0.65229 0.98286 0.0
H895 H 0.52546 0.57163 0.77919 0.0
H896 H 0.45156 0.5845 0.90273 0.0
H897 H 0.49688 0.63568 0.80784 0.0
C898 C 0.47967 0.6612 0.87319 0.0
C899 C 0.46387 0.66631 0.92535 0.0
C900 C 0.46768 0.58158 0.87525 0.0
C901 C 0.47185 0.62231 0.87039 0.0
C902 C 0.47709 0.56018 0.86342 0.0
C903 C 0.49834 0.55617 0.82967 0.0
C904 C 0.47953 0.59899 0.85258 0.0
C905 C 0.50928 0.57395 0.80656 0.0
C906 C 0.48363 0.63929 0.84548 0.0
C907 C 0.45061 0.64903 0.9439 0.0
N908 N 0.49981 0.59452 0.81871 0.0
N909 N 0.45522 0.62773 0.91737 0.0
H910 H 0.87986 0.61118 0.18683 0.0
H911 H 0.9323 0.52538 0.89968 0.0
H912 H 0.84169 0.58361 0.01503 0.0
H913 H 0.94782 0.53005 0.10593 0.0
H914 H 0.9099 0.5598 0.92278 0.0
H915 H 0.91606 0.59732 0.13263 0.0
C916 C 0.87922 0.60354 0.13601 0.0
C917 C 0.85774 0.59708 0.1069 0.0
C918 C 0.91866 0.55345 0.96255 0.0
C919 C 0.89876 0.58153 0.04493 0.0
C920 C 0.93104 0.53355 0.94985 0.0
C921 C 0.94123 0.5242 1.00137 0.0
C922 C 0.91674 0.5643 0.02702 0.0
C923 C 0.94004 0.53632 0.06468 0.0
C924 C 0.89989 0.59534 0.10552 0.0
C925 C 0.85788 0.58793 0.04044 0.0
N926 N 0.9277 0.55557 0.07581 0.0
N927 N 0.87809 0.57946 0.01235 0.0
H928 H 0.03631 0.16948 0.02623 0.0
H929 H 0.07693 0.04879 0.85361 0.0
H930 H 0.10737 0.14564 0.02237 0.0
H931 H 1.00598 0.07267 0.85116 0.0
H932 H 0.08866 0.08502 0.91005 0.0
H933 H 0.02521 0.13545 0.9547 0.0
C934 C 0.04965 0.15729 0.00947 0.0
C935 C 0.07277 0.16037 0.03099 0.0
C936 C 0.07053 0.08239 0.89685 0.0
C937 C 0.06013 0.12117 0.94999 0.0
C938 C 0.0638 0.06164 0.86476 0.0
C939 C 0.0404 0.05756 0.84753 0.0
C940 C 0.05374 0.09929 0.91231 0.0
C941 C 0.02422 0.07499 0.86305 0.0
C942 C 0.04327 0.13776 0.96907 0.0
C943 C 0.08926 0.14384 0.00805 0.0
N944 N 0.03116 0.095 0.89472 0.0
N945 N 0.0826 0.12497 0.96941 0.0
H946 H 0.34913 0.98312 0.04012 0.0
H947 H 0.47087 0.03435 0.94953 0.0
H948 H 0.37575 0.04561 0.13289 0.0
H949 H 0.43939 0.98114 0.81946 0.0
H950 H 0.43546 0.03807 0.01568 0.0
H951 H 0.38032 0.98163 0.95647 0.0
C952 C 0.36108 0.9968 0.04191 0.0
C953 C 0.3597 0.01456 0.09376 0.0
C954 C 0.43608 0.02561 0.97251 0.0
C955 C 0.39592 0.01265 0.99941 0.0
C956 C 0.45647 0.02343 0.9345 0.0
C957 C 0.45839 0.00728 0.8786 0.0
C958 C 0.4172 0.01135 0.9558 0.0
C959 C 0.43882 0.99377 0.86212 0.0
C960 C 0.37905 0.99584 0.99452 0.0
C961 C 0.37605 0.03159 0.09407 0.0
N962 N 0.41921 0.99592 0.90079 0.0
N963 N 0.39345 0.03008 0.04856 0.0
H964 H 0.53955 0.27331 0.03385 0.0
H965 H 0.46694 0.38617 0.07102 0.0
H966 H 0.48837 0.29191 0.18553 0.0
H967 H 0.51592 0.3654 0.91436 0.0
H968 H 0.47071 0.34984 0.10568 0.0
H969 H 0.52653 0.3041 0.97964 0.0
C970 C 0.52498 0.28346 0.05444 0.0
C971 C 0.51498 0.28007 0.11414 0.0
C972 C 0.4805 0.35317 0.06341 0.0
C973 C 0.50058 0.31593 0.05392 0.0
C974 C 0.47833 0.37394 0.04345 0.0
C975 C 0.49132 0.37905 0.99 0.0
C976 C 0.49581 0.3373 0.02984 0.0
C977 C 0.50594 0.36248 0.95671 0.0
C978 C 0.51773 0.30121 0.02396 0.0
C979 C 0.49638 0.29385 0.13924 0.0
N980 N 0.50788 0.34248 0.97739 0.0
N981 N 0.49007 0.31144 0.1097 0.0
H982 H 0.18946 0.47008 0.08444 0.0
H983 H 0.10693 0.52493 0.83644 0.0
H984 H 0.20154 0.53313 0.02232 0.0
H985 H 0.09153 0.46217 0.89701 0.0
H986 H 0.14305 0.52644 0.89894 0.0
H987 H 0.15559 0.46484 0.0103 0.0
C988 C 0.18531 0.4826 0.05433 0.0
C989 C 0.19841 0.50212 0.05996 0.0
C990 C 0.13189 0.51225 0.89855 0.0
C991 C 0.15941 0.49641 0.97559 0.0
C992 C 0.11112 0.51137 0.86265 0.0
C993 C 0.09591 0.49341 0.86122 0.0
C994 C 0.13778 0.49509 0.93401 0.0
C995 C 0.1026 0.47638 0.89647 0.0
C996 C 0.16582 0.47971 0.01243 0.0
C997 C 0.19192 0.51789 0.02017 0.0
N998 N 0.12291 0.47768 0.93152 0.0
N999 N 0.17297 0.51476 0.98034 0.0
H1000 H 1.00495 0.82091 0.49588 0.0
H1001 H 0.96982 0.9463 0.59775 0.0
H1002 H 0.93334 0.84321 0.49311 0.0
H1003 H 0.02312 0.91723 0.70572 0.0
H1004 H 0.95938 0.90918 0.54387 0.0
H1005 H 0.015 0.85638 0.56206 0.0
C1006 C 0.99127 0.83302 0.50977 0.0
C1007 C 0.96831 0.82907 0.48744 0.0
C1008 C 0.97333 0.91098 0.57948 0.0
C1009 C 0.97992 0.8699 0.56118 0.0
C1010 C 0.97938 0.93214 0.6099 0.0
C1011 C 0.99732 0.93487 0.65633 0.0
C1012 C 0.98571 0.89245 0.59427 0.0
C1013 C 1.00908 0.91587 0.67042 0.0
C1014 C 0.99708 0.85332 0.54712 0.0
C1015 C 0.95143 0.84564 0.50699 0.0
N1016 N 1.00324 0.89547 0.63902 0.0
N1017 N 0.95764 0.86538 0.54155 0.0
H1018 H 0.68797 0.01039 0.47759 0.0
H1019 H 0.58853 0.95399 0.66418 0.0
H1020 H 0.69748 0.94697 0.54169 0.0
H1021 H 0.59442 0.02488 0.68646 0.0
H1022 H 0.62615 0.95048 0.60642 0.0
H1023 H 0.65217 0.01595 0.54384 0.0
C1024 C 0.68287 0.99773 0.50602 0.0
C1025 C 0.69595 0.97798 0.50263 0.0
C1026 C 0.61923 0.96681 0.62404 0.0
C1027 C 0.65423 0.98405 0.57723 0.0
C1028 C 0.59766 0.96883 0.65678 0.0
C1029 C 0.58819 0.98976 0.68053 0.0
C1030 C 0.63137 0.98584 0.61336 0.0
C1031 C 0.60102 0.00839 0.66943 0.0
C1032 C 0.66222 0.00088 0.54349 0.0
C1033 C 0.68789 0.9622 0.54054 0.0
N1034 N 0.62177 0.00601 0.63625 0.0
N1035 N 0.66756 0.96543 0.57513 0.0
H1036 H 0.51716 0.71448 0.50762 0.0
H1037 H 0.59181 0.60376 0.48961 0.0
H1038 H 0.57239 0.69668 0.36759 0.0
H1039 H 0.54255 0.62595 0.6445 0.0
H1040 H 0.58822 0.63955 0.45186 0.0
H1041 H 0.53002 0.68504 0.56772 0.0
C1042 C 0.5326 0.70489 0.49111 0.0
C1043 C 0.54387 0.7081 0.43295 0.0
C1044 C 0.57836 0.63668 0.4945 0.0
C1045 C 0.55805 0.67365 0.49953 0.0
C1046 C 0.58044 0.6162 0.51631 0.0
C1047 C 0.5673 0.6116 0.57015 0.0
C1048 C 0.5629 0.65277 0.52632 0.0
C1049 C 0.55265 0.62844 0.60194 0.0
C1050 C 0.53977 0.68788 0.52486 0.0
C1051 C 0.56345 0.69492 0.41272 0.0
N1052 N 0.55071 0.64813 0.57927 0.0
N1053 N 0.56966 0.67799 0.44521 0.0
H1054 H 0.85367 0.46598 0.53008 0.0
H1055 H 0.97688 0.51963 0.61321 0.0
H1056 H 0.87037 0.5315 0.49413 0.0
H1057 H 0.94828 0.47673 0.74011 0.0
H1058 H 0.93874 0.52107 0.56097 0.0
H1059 H 0.88805 0.46679 0.60254 0.0
C1060 C 0.86402 0.48083 0.53942 0.0
C1061 C 0.85883 0.49891 0.50717 0.0
C1062 C 0.94073 0.5114 0.60044 0.0
C1063 C 0.89884 0.49947 0.5867 0.0
C1064 C 0.96259 0.51048 0.63013 0.0
C1065 C 0.96591 0.49805 0.68127 0.0
C1066 C 0.92196 0.49937 0.62055 0.0
C1067 C 0.94655 0.48661 0.70106 0.0
C1068 C 0.8838 0.48119 0.58007 0.0
C1069 C 0.87344 0.51739 0.51902 0.0
N1070 N 0.92551 0.4873 0.67017 0.0
N1071 N 0.89287 0.51705 0.55665 0.0
loop_
_geom_bond_atom_site_label_1
_geom_bond_atom_site_label_2
_geom_bond_distance
_geom_bond_site_symmetry_2
_ccdc_geom_bond_type
C0 C1 1.391 . S
C0 C4 1.391 . S
C0 H42 0.948 . S
C1 C0 1.391 . S
C1 C2 1.391 . S
C2 C1 1.391 . S
C2 H58 0.947 . S
C2 C59 1.392 . S
C3 C4 1.391 . S
C3 C7 1.397 . S
C3 C59 1.419 . S
C4 C0 1.391 . S
C4 C3 1.391 . S
C4 C5 1.399 . S
C5 C4 1.399 . S
C5 C8 1.396 . S
C5 C17 1.453 . S
C5 C18 1.684 . S
H6 C30 0.948 . S
C7 C3 1.397 . S
C7 C8 1.394 . S
C7 C26 1.723 . S
C8 C5 1.396 . S
C8 C7 1.394 . S
C8 C38 1.723 . S
H9 C32 0.947 . S
H10 C33 0.948 . S
H11 C39 0.982 . S
H12 C40 0.979 . S
H13 C40 0.980 . S
H14 C40 0.983 . S
H15 C39 0.979 . S
H16 C39 0.977 . S
C17 C5 1.453 . S
C17 H46 0.982 . S
C17 H47 0.979 . S
C17 H48 0.977 . S
C18 C5 1.684 . S
C18 H43 0.979 . S
C18 H44 0.980 . S
C18 H45 0.983 . S
C19 C20 1.391 . S
C19 C24 1.391 . S
C19 H49 0.948 . S
C20 C19 1.391 . S
C20 C21 1.391 . S
C21 C20 1.391 . S
C21 C22 1.392 . S
C21 H50 0.947 . S
C22 C21 1.392 . S
C22 C23 1.419 . S
C22 H51 0.948 . S
C23 C22 1.419 . S
C23 C24 1.391 . S
C23 C27 1.397 . S
C24 C19 1.391 . S
C24 C23 1.391 . S
C24 C25 1.399 . S
C25 C24 1.399 . S
C25 C26 1.396 . S
C25 C28 1.453 . S
C25 C29 1.684 . S
C26 C7 1.723 . S
C26 C25 1.396 . S
C26 C27 1.394 . S
C27 C23 1.397 . S
C27 C26 1.394 . S
C27 C37 1.723 . S
C28 C25 1.453 . S
C28 H52 0.982 . S
C28 H53 0.979 . S
C28 H54 0.977 . S
C29 C25 1.684 . S
C29 H55 0.979 . S
C29 H56 0.980 . S
C29 H57 0.983 . S
C30 H6 0.948 . S
C30 C31 1.391 . S
C30 C35 1.391 . S
C31 C30 1.391 . S
C31 C32 1.391 . S
C32 H9 0.947 . S
C32 C31 1.391 . S
C32 C33 1.392 . S
C33 H10 0.948 . S
C33 C32 1.392 . S
C33 C34 1.419 . S
C34 C33 1.419 . S
C34 C35 1.391 . S
C34 C38 1.397 . S
C35 C30 1.391 . S
C35 C34 1.391 . S
C35 C36 1.399 . S
C36 C35 1.399 . S
C36 C37 1.396 . S
C36 C39 1.453 . S
C36 C40 1.684 . S
C37 C27 1.723 . S
C37 C36 1.396 . S
C37 C38 1.394 . S
C38 C8 1.723 . S
C38 C34 1.397 . S
C38 C37 1.394 . S
C39 H11 0.982 . S
C39 H15 0.979 . S
C39 H16 0.977 . S
C39 C36 1.453 . S
C40 H12 0.979 . S
C40 H13 0.980 . S
C40 H14 0.983 . S
C40 C36 1.684 . S
H41 C59 0.948 . S
H42 C0 0.948 . S
H43 C18 0.979 . S
H44 C18 0.980 . S
H45 C18 0.983 . S
H46 C17 0.982 . S
H47 C17 0.979 . S
H48 C17 0.977 . S
H49 C19 0.948 . S
H50 C21 0.947 . S
H51 C22 0.948 . S
H52 C28 0.982 . S
H53 C28 0.979 . S
H54 C28 0.977 . S
H55 C29 0.979 . S
H56 C29 0.980 . S
H57 C29 0.983 . S
H58 C2 0.947 . S
C59 C2 1.392 . S
C59 C3 1.419 . S
C59 H41 0.948 . S
C60 C61 1.391 . S
C60 C64 1.391 . S
C60 H102 0.948 . S
C61 C60 1.391 . S
C61 C62 1.391 . S
C62 C61 1.391 . S
C62 H118 0.947 . S
C62 C119 1.392 . S
C63 C64 1.391 . S
C63 C67 1.397 . S
C63 C119 1.419 . S
C64 C60 1.391 . S
C64 C63 1.391 . S
C64 C65 1.399 . S
C65 C64 1.399 . S
C65 C68 1.396 . S
C65 C77 1.453 . S
C65 C78 1.684 . S
H66 C90 0.948 . S
C67 C63 1.397 . S
C67 C68 1.394 . S
C67 C86 1.723 . S
C68 C65 1.396 . S
C68 C67 1.394 . S
C68 C98 1.723 . S
H69 C92 0.947 . S
H70 C93 0.948 . S
H71 C99 0.982 1_455 S
H72 C100 0.979 . S
H73 C100 0.980 . S
H74 C100 0.983 . S
H75 C99 0.979 . S
H76 C99 0.977 . S
C77 C65 1.453 . S
C77 H106 0.982 1_655 S
C77 H107 0.979 . S
C77 H108 0.977 . S
C78 C65 1.684 . S
C78 H103 0.979 . S
C78 H104 0.980 . S
C78 H105 0.983 . S
C79 C80 1.391 . S
C79 C84 1.391 . S
C79 H109 0.948 . S
C80 C79 1.391 . S
C80 C81 1.391 . S
C81 C80 1.391 . S
C81 C82 1.392 . S
C81 H110 0.947 . S
C82 C81 1.392 . S
C82 C83 1.419 . S
C82 H111 0.948 . S
C83 C82 1.419 . S
C83 C84 1.391 . S
C83 C87 1.397 . S
C84 C79 1.391 . S
C84 C83 1.391 . S
C84 C85 1.399 . S
C85 C84 1.399 . S
C85 C86 1.396 . S
C85 C88 1.453 . S
C85 C89 1.684 . S
C86 C67 1.723 . S
C86 C85 1.396 . S
C86 C87 1.394 . S
C87 C83 1.397 . S
C87 C86 1.394 . S
C87 C97 1.723 . S
C88 C85 1.453 . S
C88 H112 0.982 1_655 S
C88 H113 0.979 . S
C88 H114 0.977 . S
C89 C85 1.684 . S
C89 H115 0.979 . S
C89 H116 0.980 . S
C89 H117 0.983 . S
C90 H66 0.948 . S
C90 C91 1.391 . S
C90 C95 1.391 . S
C91 C90 1.391 . S
C91 C92 1.391 . S
C92 H69 0.947 . S
C92 C91 1.391 . S
C92 C93 1.392 . S
C93 H70 0.948 . S
C93 C92 1.392 . S
C93 C94 1.419 . S
C94 C93 1.419 . S
C94 C95 1.391 . S
C94 C98 1.397 . S
C95 C90 1.391 . S
C95 C94 1.391 . S
C95 C96 1.399 . S
C96 C95 1.399 . S
C96 C97 1.396 . S
C96 C99 1.453 . S
C96 C100 1.684 . S
C97 C87 1.723 . S
C97 C96 1.396 . S
C97 C98 1.394 . S
C98 C68 1.723 . S
C98 C94 1.397 . S
C98 C97 1.394 . S
C99 H71 0.982 1_655 S
C99 H75 0.979 . S
C99 H76 0.977 . S
C99 C96 1.453 . S
C100 H72 0.979 . S
C100 H73 0.980 . S
C100 H74 0.983 . S
C100 C96 1.684 . S
H101 C119 0.948 . S
H102 C60 0.948 . S
H103 C78 0.979 . S
H104 C78 0.980 . S
H105 C78 0.983 . S
H106 C77 0.982 1_455 S
H107 C77 0.979 . S
H108 C77 0.977 . S
H109 C79 0.948 . S
H110 C81 0.947 . S
H111 C82 0.948 . S
H112 C88 0.982 1_455 S
H113 C88 0.979 . S
H114 C88 0.977 . S
H115 C89 0.979 . S
H116 C89 0.980 . S
H117 C89 0.983 . S
H118 C62 0.947 . S
C119 C62 1.392 . S
C119 C63 1.419 . S
C119 H101 0.948 . S
C120 C121 1.391 . S
C120 C124 1.391 . S
C120 H162 0.948 . S
C121 C120 1.391 . S
C121 C122 1.391 . S
C122 C121 1.391 . S
C122 H178 0.947 . S
C122 C179 1.392 . S
C123 C124 1.391 . S
C123 C127 1.397 1_565 S
C123 C179 1.419 . S
C124 C120 1.391 . S
C124 C123 1.391 . S
C124 C125 1.399 . S
C125 C124 1.399 . S
C125 C128 1.396 1_565 S
C125 C137 1.453 1_565 S
C125 C138 1.684 . S
H126 C150 0.948 . S
C127 C123 1.397 1_545 S
C127 C128 1.395 . S
C127 C146 1.722 . S
C128 C125 1.396 1_545 S
C128 C127 1.395 . S
C128 C158 1.722 . S
H129 C152 0.947 . S
H130 C153 0.948 . S
H131 C159 0.982 . S
H132 C160 0.979 . S
H133 C160 0.980 . S
H134 C160 0.983 . S
H135 C159 0.979 . S
H136 C159 0.977 . S
C137 C125 1.453 1_545 S
C137 H166 0.982 . S
C137 H167 0.979 . S
C137 H168 0.977 . S
C138 C125 1.684 . S
C138 H163 0.979 . S
C138 H164 0.980 . S
C138 H165 0.983 . S
C139 C140 1.391 . S
C139 C144 1.391 . S
C139 H169 0.948 . S
C140 C139 1.391 . S
C140 C141 1.391 . S
C141 C140 1.391 . S
C141 C142 1.392 . S
C141 H170 0.947 . S
C142 C141 1.392 . S
C142 C143 1.419 . S
C142 H171 0.948 . S
C143 C142 1.419 . S
C143 C144 1.391 . S
C143 C147 1.397 1_565 S
C144 C139 1.391 . S
C144 C143 1.391 . S
C144 C145 1.399 . S
C145 C144 1.399 . S
C145 C146 1.396 1_565 S
C145 C148 1.453 1_565 S
C145 C149 1.684 . S
C146 C127 1.722 . S
C146 C145 1.396 1_545 S
C146 C147 1.394 . S
C147 C143 1.397 1_545 S
C147 C146 1.394 . S
C147 C157 1.723 . S
C148 C145 1.453 1_545 S
C148 H172 0.982 . S
C148 H173 0.979 . S
C148 H174 0.977 . S
C149 C145 1.684 . S
C149 H175 0.979 . S
C149 H176 0.980 . S
C149 H177 0.983 . S
C150 H126 0.948 . S
C150 C151 1.391 . S
C150 C155 1.391 . S
C151 C150 1.391 . S
C151 C152 1.391 . S
C152 H129 0.947 . S
C152 C151 1.391 . S
C152 C153 1.392 . S
C153 H130 0.948 . S
C153 C152 1.392 . S
C153 C154 1.419 . S
C154 C153 1.419 . S
C154 C155 1.391 . S
C154 C158 1.398 1_565 S
C155 C150 1.391 . S
C155 C154 1.391 . S
C155 C156 1.399 . S
C156 C155 1.399 . S
C156 C157 1.396 1_565 S
C156 C159 1.453 1_565 S
C156 C160 1.684 . S
C157 C147 1.723 . S
C157 C156 1.396 1_545 S
C157 C158 1.394 . S
C158 C128 1.722 . S
C158 C154 1.398 1_545 S
C158 C157 1.394 . S
C159 H131 0.982 . S
C159 H135 0.979 . S
C159 H136 0.977 . S
C159 C156 1.453 1_545 S
C160 H132 0.979 . S
C160 H133 0.980 . S
C160 H134 0.983 . S
C160 C156 1.684 . S
H161 C179 0.948 . S
H162 C120 0.948 . S
H163 C138 0.979 . S
H164 C138 0.980 . S
H165 C138 0.983 . S
H166 C137 0.982 . S
H167 C137 0.979 . S
H168 C137 0.977 . S
H169 C139 0.948 . S
H170 C141 0.947 . S
H171 C142 0.948 . S
H172 C148 0.982 . S
H173 C148 0.979 . S
H174 C148 0.977 . S
H175 C149 0.979 . S
H176 C149 0.980 . S
H177 C149 0.983 . S
H178 C122 0.947 . S
C179 C122 1.392 . S
C179 C123 1.419 . S
C179 H161 0.948 . S
C180 C181 1.391 . S
C180 C184 1.391 . S
C180 H222 0.948 . S
C181 C180 1.391 . S
C181 C182 1.391 . S
C182 C181 1.391 . S
C182 H238 0.947 . S
C182 C239 1.392 . S
C183 C184 1.391 . S
C183 C187 1.397 . S
C183 C239 1.419 . S
C184 C180 1.391 . S
C184 C183 1.391 . S
C184 C185 1.399 . S
C185 C184 1.399 . S
C185 C188 1.396 . S
C185 C197 1.453 . S
C185 C198 1.684 . S
H186 C210 0.948 . S
C187 C183 1.397 . S
C187 C188 1.394 . S
C187 C206 1.723 1_554 S
C188 C185 1.396 . S
C188 C187 1.394 . S
C188 C218 1.732 . S
H189 C212 0.947 . S
H190 C213 0.948 . S
H191 C219 0.982 . S
H192 C220 0.979 . S
H193 C220 0.980 . S
H194 C220 0.983 . S
H195 C219 0.979 . S
H196 C219 0.977 . S
C197 C185 1.453 . S
C197 H226 0.982 . S
C197 H227 0.979 . S
C197 H228 0.977 . S
C198 C185 1.684 . S
C198 H223 0.979 . S
C198 H224 0.980 . S
C198 H225 0.983 . S
C199 C200 1.391 . S
C199 C204 1.391 . S
C199 H229 0.948 . S
C200 C199 1.391 . S
C200 C201 1.391 . S
C201 C200 1.391 . S
C201 C202 1.392 . S
C201 H230 0.947 . S
C202 C201 1.392 . S
C202 C203 1.419 . S
C202 H231 0.948 . S
C203 C202 1.419 . S
C203 C204 1.391 . S
C203 C207 1.397 . S
C204 C199 1.391 . S
C204 C203 1.391 . S
C204 C205 1.399 . S
C205 C204 1.399 . S
C205 C206 1.396 . S
C205 C208 1.453 . S
C205 C209 1.688 . S
C206 C187 1.723 1_556 S
C206 C205 1.396 . S
C206 C207 1.394 . S
C207 C203 1.397 . S
C207 C206 1.394 . S
C207 C217 1.723 . S
C208 C205 1.453 . S
C208 H232 0.982 . S
C208 H233 0.979 . S
C208 H234 0.977 1_556 S
C209 C205 1.688 . S
C209 H235 0.981 . S
C209 H236 0.972 1_556 S
C209 H237 0.985 . S
C210 H186 0.948 . S
C210 C211 1.391 . S
C210 C215 1.391 . S
C211 C210 1.391 . S
C211 C212 1.391 1_556 S
C212 H189 0.947 . S
C212 C211 1.391 1_554 S
C212 C213 1.392 . S
C213 H190 0.948 . S
C213 C212 1.392 . S
C213 C214 1.419 1_554 S
C214 C213 1.419 1_556 S
C214 C215 1.391 . S
C214 C218 1.395 1_556 S
C215 C210 1.391 . S
C215 C214 1.391 . S
C215 C216 1.399 . S
C216 C215 1.399 . S
C216 C217 1.396 . S
C216 C219 1.453 . S
C216 C220 1.684 . S
C217 C207 1.723 . S
C217 C216 1.396 . S
C217 C218 1.386 1_556 S
C218 C188 1.732 . S
C218 C214 1.395 1_554 S
C218 C217 1.386 1_554 S
C219 H191 0.982 . S
C219 H195 0.979 . S
C219 H196 0.977 . S
C219 C216 1.453 . S
C220 H192 0.979 . S
C220 H193 0.980 . S
C220 H194 0.983 . S
C220 C216 1.684 . S
H221 C239 0.948 . S
H222 C180 0.948 . S
H223 C198 0.979 . S
H224 C198 0.980 . S
H225 C198 0.983 . S
H226 C197 0.982 . S
H227 C197 0.979 . S
H228 C197 0.977 . S
H229 C199 0.948 . S
H230 C201 0.947 . S
H231 C202 0.948 . S
H232 C208 0.982 . S
H233 C208 0.979 . S
H234 C208 0.977 1_554 S
H235 C209 0.981 . S
H236 C209 0.972 1_554 S
H237 C209 0.985 . S
H238 C182 0.947 . S
C239 C182 1.392 . S
C239 C183 1.419 . S
C239 H221 0.948 . S
C240 C241 1.391 . S
C240 C244 1.391 . S
C240 H282 0.948 . S
C241 C240 1.391 . S
C241 C242 1.391 . S
C242 C241 1.391 . S
C242 H298 0.947 . S
C242 C299 1.392 . S
C243 C244 1.391 . S
C243 C247 1.397 . S
C243 C299 1.419 . S
C244 C240 1.391 . S
C244 C243 1.391 . S
C244 C245 1.399 . S
C245 C244 1.399 . S
C245 C248 1.396 . S
C245 C257 1.453 . S
C245 C258 1.684 . S
H246 C270 0.948 . S
C247 C243 1.397 . S
C247 C248 1.394 . S
C247 C266 1.723 . S
C248 C245 1.396 . S
C248 C247 1.394 . S
C248 C278 1.723 . S
H249 C272 0.947 . S
H250 C273 0.948 . S
H251 C279 0.982 . S
H252 C280 0.979 . S
H253 C280 0.980 . S
H254 C280 0.983 . S
H255 C279 0.979 . S
H256 C279 0.977 . S
C257 C245 1.453 . S
C257 H286 0.982 . S
C257 H287 0.979 . S
C257 H288 0.977 . S
C258 C245 1.684 . S
C258 H283 0.979 . S
C258 H284 0.980 . S
C258 H285 0.983 . S
C259 C260 1.391 . S
C259 C264 1.391 . S
C259 H289 0.948 . S
C260 C259 1.391 . S
C260 C261 1.391 . S
C261 C260 1.391 . S
C261 C262 1.392 . S
C261 H290 0.947 . S
C262 C261 1.392 . S
C262 C263 1.419 . S
C262 H291 0.948 . S
C263 C262 1.419 . S
C263 C264 1.391 . S
C263 C267 1.397 . S
C264 C259 1.391 . S
C264 C263 1.391 . S
C264 C265 1.399 . S
C265 C264 1.399 . S
C265 C266 1.396 . S
C265 C268 1.453 . S
C265 C269 1.684 . S
C266 C247 1.723 . S
C266 C265 1.396 . S
C266 C267 1.394 . S
C267 C263 1.397 . S
C267 C266 1.394 . S
C267 C277 1.723 . S
C268 C265 1.453 . S
C268 H292 0.982 . S
C268 H293 0.979 . S
C268 H294 0.977 . S
C269 C265 1.684 . S
C269 H295 0.979 . S
C269 H296 0.980 . S
C269 H297 0.983 . S
C270 H246 0.948 . S
C270 C271 1.391 . S
C270 C275 1.391 1_556 S
C271 C270 1.391 . S
C271 C272 1.391 . S
C272 H249 0.947 . S
C272 C271 1.391 . S
C272 C273 1.392 . S
C273 H250 0.948 . S
C273 C272 1.392 . S
C273 C274 1.419 1_556 S
C274 C273 1.419 1_554 S
C274 C275 1.391 . S
C274 C278 1.397 . S
C275 C270 1.391 1_554 S
C275 C274 1.391 . S
C275 C276 1.399 . S
C276 C275 1.399 . S
C276 C277 1.396 . S
C276 C279 1.453 . S
C276 C280 1.684 . S
C277 C267 1.723 . S
C277 C276 1.396 . S
C277 C278 1.394 . S
C278 C248 1.723 . S
C278 C274 1.397 . S
C278 C277 1.394 . S
C279 H251 0.982 . S
C279 H255 0.979 . S
C279 H256 0.977 . S
C279 C276 1.453 . S
C280 H252 0.979 . S
C280 H253 0.980 . S
C280 H254 0.983 . S
C280 C276 1.684 . S
H281 C299 0.948 . S
H282 C240 0.948 . S
H283 C258 0.979 . S
H284 C258 0.980 . S
H285 C258 0.983 . S
H286 C257 0.982 . S
H287 C257 0.979 . S
H288 C257 0.977 . S
H289 C259 0.948 . S
H290 C261 0.947 . S
H291 C262 0.948 . S
H292 C268 0.982 . S
H293 C268 0.979 . S
H294 C268 0.977 . S
H295 C269 0.979 . S
H296 C269 0.980 . S
H297 C269 0.983 . S
H298 C242 0.947 . S
C299 C242 1.392 . S
C299 C243 1.419 . S
C299 H281 0.948 . S
C300 C301 1.391 . S
C300 C304 1.391 . S
C300 H342 0.948 . S
C301 C300 1.391 . S
C301 C302 1.391 . S
C302 C301 1.391 . S
C302 H358 0.947 . S
C302 C359 1.392 . S
C303 C304 1.391 . S
C303 C307 1.397 . S
C303 C359 1.419 . S
C304 C300 1.391 . S
C304 C303 1.391 . S
C304 C305 1.399 . S
C305 C304 1.399 . S
C305 C308 1.396 . S
C305 C317 1.453 . S
C305 C318 1.684 . S
H306 C330 0.948 . S
C307 C303 1.397 . S
C307 C308 1.394 . S
C307 C326 1.723 . S
C308 C305 1.396 . S
C308 C307 1.394 . S
C308 C338 1.723 . S
H309 C332 0.947 . S
H310 C333 0.948 . S
H311 C339 0.982 . S
H312 C340 0.979 . S
H313 C340 0.980 . S
H314 C340 0.983 . S
H315 C339 0.979 . S
H316 C339 0.977 . S
C317 C305 1.453 . S
C317 H346 0.982 . S
C317 H347 0.979 . S
C317 H348 0.977 . S
C318 C305 1.684 . S
C318 H343 0.979 . S
C318 H344 0.980 . S
C318 H345 0.983 . S
C319 C320 1.391 1_554 S
C319 C324 1.391 . S
C319 H349 0.948 1_554 S
C320 C319 1.391 1_556 S
C320 C321 1.391 . S
C321 C320 1.391 . S
C321 C322 1.392 1_556 S
C321 H350 0.947 . S
C322 C321 1.392 1_554 S
C322 C323 1.419 . S
C322 H351 0.948 . S
C323 C322 1.419 . S
C323 C324 1.391 . S
C323 C327 1.397 . S
C324 C319 1.391 . S
C324 C323 1.391 . S
C324 C325 1.399 . S
C325 C324 1.399 . S
C325 C326 1.396 . S
C325 C328 1.453 . S
C325 C329 1.684 . S
C326 C307 1.723 . S
C326 C325 1.396 . S
C326 C327 1.394 . S
C327 C323 1.397 . S
C327 C326 1.394 . S
C327 C337 1.723 . S
C328 C325 1.453 . S
C328 H352 0.982 . S
C328 H353 0.979 . S
C328 H354 0.977 . S
C329 C325 1.684 . S
C329 H355 0.979 . S
C329 H356 0.980 . S
C329 H357 0.983 . S
C330 H306 0.948 . S
C330 C331 1.391 . S
C330 C335 1.391 . S
C331 C330 1.391 . S
C331 C332 1.391 . S
C332 H309 0.947 . S
C332 C331 1.391 . S
C332 C333 1.392 . S
C333 H310 0.948 . S
C333 C332 1.392 . S
C333 C334 1.419 . S
C334 C333 1.419 . S
C334 C335 1.391 . S
C334 C338 1.397 . S
C335 C330 1.391 . S
C335 C334 1.391 . S
C335 C336 1.399 . S
C336 C335 1.399 . S
C336 C337 1.396 . S
C336 C339 1.453 . S
C336 C340 1.684 . S
C337 C327 1.723 . S
C337 C336 1.396 . S
C337 C338 1.394 . S
C338 C308 1.723 . S
C338 C334 1.397 . S
C338 C337 1.394 . S
C339 H311 0.982 . S
C339 H315 0.979 . S
C339 H316 0.977 . S
C339 C336 1.453 . S
C340 H312 0.979 . S
C340 H313 0.980 . S
C340 H314 0.983 . S
C340 C336 1.684 . S
H341 C359 0.948 . S
H342 C300 0.948 . S
H343 C318 0.979 . S
H344 C318 0.980 . S
H345 C318 0.983 . S
H346 C317 0.982 . S
H347 C317 0.979 . S
H348 C317 0.977 . S
H349 C319 0.948 1_556 S
H350 C321 0.947 . S
H351 C322 0.948 . S
H352 C328 0.982 . S
H353 C328 0.979 . S
H354 C328 0.977 . S
H355 C329 0.979 . S
H356 C329 0.980 . S
H357 C329 0.983 . S
H358 C302 0.947 . S
C359 C302 1.392 . S
C359 C303 1.419 . S
C359 H341 0.948 . S
C360 C361 1.391 . S
C360 C364 1.391 1_556 S
C360 H402 0.948 . S
C361 C360 1.391 . S
C361 C362 1.391 . S
C362 C361 1.391 . S
C362 H418 0.947 . S
C362 C419 1.392 1_556 S
C363 C364 1.391 . S
C363 C367 1.398 1_545 S
C363 C419 1.419 . S
C364 C360 1.391 1_554 S
C364 C363 1.391 . S
C364 C365 1.399 . S
C365 C364 1.399 . S
C365 C368 1.396 1_545 S
C365 C377 1.453 1_545 S
C365 C378 1.684 . S
H366 C390 0.948 . S
C367 C363 1.398 1_565 S
C367 C368 1.394 . S
C367 C386 1.722 . S
C368 C365 1.396 1_565 S
C368 C367 1.394 . S
C368 C398 1.723 . S
H369 C392 0.947 . S
H370 C393 0.948 . S
H371 C399 0.982 . S
H372 C400 0.979 . S
H373 C400 0.980 . S
H374 C400 0.983 . S
H375 C399 0.979 . S
H376 C399 0.977 . S
C377 C365 1.453 1_565 S
C377 H406 0.982 . S
C377 H407 0.979 1_554 S
C377 H408 0.977 . S
C378 C365 1.684 . S
C378 H403 0.979 . S
C378 H404 0.980 . S
C378 H405 0.983 1_554 S
C379 C380 1.391 . S
C379 C384 1.391 . S
C379 H409 0.948 . S
C380 C379 1.391 . S
C380 C381 1.391 . S
C381 C380 1.391 . S
C381 C382 1.392 . S
C381 H410 0.947 . S
C382 C381 1.392 . S
C382 C383 1.419 . S
C382 H411 0.948 . S
C383 C382 1.419 . S
C383 C384 1.391 . S
C383 C387 1.397 1_545 S
C384 C379 1.391 . S
C384 C383 1.391 . S
C384 C385 1.399 . S
C385 C384 1.399 . S
C385 C386 1.396 1_545 S
C385 C388 1.453 1_545 S
C385 C389 1.684 . S
C386 C367 1.722 . S
C386 C385 1.396 1_565 S
C386 C387 1.395 . S
C387 C383 1.397 1_565 S
C387 C386 1.395 . S
C387 C397 1.723 . S
C388 C385 1.453 1_565 S
C388 H412 0.982 . S
C388 H413 0.979 . S
C388 H414 0.977 . S
C389 C385 1.684 . S
C389 H415 0.979 . S
C389 H416 0.980 . S
C389 H417 0.983 . S
C390 H366 0.948 . S
C390 C391 1.391 . S
C390 C395 1.391 . S
C391 C390 1.391 . S
C391 C392 1.391 . S
C392 H369 0.947 . S
C392 C391 1.391 . S
C392 C393 1.392 . S
C393 H370 0.948 . S
C393 C392 1.392 . S
C393 C394 1.419 . S
C394 C393 1.419 . S
C394 C395 1.391 . S
C394 C398 1.397 1_545 S
C395 C390 1.391 . S
C395 C394 1.391 . S
C395 C396 1.399 . S
C396 C395 1.399 . S
C396 C397 1.396 1_545 S
C396 C399 1.453 1_545 S
C396 C400 1.684 . S
C397 C387 1.723 . S
C397 C396 1.396 1_565 S
C397 C398 1.394 . S
C398 C368 1.723 . S
C398 C394 1.397 1_565 S
C398 C397 1.394 . S
C399 H371 0.982 . S
C399 H375 0.979 . S
C399 H376 0.977 . S
C399 C396 1.453 1_565 S
C400 H372 0.979 . S
C400 H373 0.980 . S
C400 H374 0.983 . S
C400 C396 1.684 . S
H401 C419 0.948 . S
H402 C360 0.948 . S
H403 C378 0.979 . S
H404 C378 0.980 . S
H405 C378 0.983 1_556 S
H406 C377 0.982 . S
H407 C377 0.979 1_556 S
H408 C377 0.977 . S
H409 C379 0.948 . S
H410 C381 0.947 . S
H411 C382 0.948 . S
H412 C388 0.982 . S
H413 C388 0.979 . S
H414 C388 0.977 . S
H415 C389 0.979 . S
H416 C389 0.980 . S
H417 C389 0.983 . S
H418 C362 0.947 . S
C419 C362 1.392 1_554 S
C419 C363 1.419 . S
C419 H401 0.948 . S
C420 C421 1.391 . S
C420 C424 1.391 . S
C420 H462 0.948 . S
C421 C420 1.391 . S
C421 C422 1.391 . S
C422 C421 1.391 . S
C422 H478 0.947 . S
C422 C479 1.392 . S
C423 C424 1.391 . S
C423 C427 1.397 . S
C423 C479 1.419 . S
C424 C420 1.391 . S
C424 C423 1.391 . S
C424 C425 1.399 . S
C425 C424 1.399 . S
C425 C428 1.396 . S
C425 C437 1.453 . S
C425 C438 1.684 . S
H426 C450 0.948 . S
C427 C423 1.397 . S
C427 C428 1.394 . S
C427 C446 1.723 . S
C428 C425 1.396 . S
C428 C427 1.394 . S
C428 C458 1.723 . S
H429 C452 0.947 . S
H430 C453 0.948 . S
H431 C459 0.982 . S
H432 C460 0.979 . S
H433 C460 0.980 . S
H434 C460 0.983 . S
H435 C459 0.979 . S
H436 C459 0.977 . S
C437 C425 1.453 . S
C437 H466 0.982 . S
C437 H467 0.979 . S
C437 H468 0.977 . S
C438 C425 1.684 . S
C438 H463 0.979 . S
C438 H464 0.980 . S
C438 H465 0.983 . S
C439 C440 1.391 . S
C439 C444 1.391 . S
C439 H469 0.948 . S
C440 C439 1.391 . S
C440 C441 1.391 . S
C441 C440 1.391 . S
C441 C442 1.392 . S
C441 H470 0.947 . S
C442 C441 1.392 . S
C442 C443 1.419 . S
C442 H471 0.948 . S
C443 C442 1.419 . S
C443 C444 1.391 . S
C443 C447 1.397 . S
C444 C439 1.391 . S
C444 C443 1.391 . S
C444 C445 1.399 . S
C445 C444 1.399 . S
C445 C446 1.396 . S
C445 C448 1.453 . S
C445 C449 1.684 . S
C446 C427 1.723 . S
C446 C445 1.396 . S
C446 C447 1.394 . S
C447 C443 1.397 . S
C447 C446 1.394 . S
C447 C457 1.723 . S
C448 C445 1.453 . S
C448 H472 0.982 . S
C448 H473 0.979 . S
C448 H474 0.977 . S
C449 C445 1.684 . S
C449 H475 0.979 . S
C449 H476 0.980 . S
C449 H477 0.983 . S
C450 H426 0.948 . S
C450 C451 1.391 . S
C450 C455 1.391 . S
C451 C450 1.391 . S
C451 C452 1.391 . S
C452 H429 0.947 . S
C452 C451 1.391 . S
C452 C453 1.392 . S
C453 H430 0.948 . S
C453 C452 1.392 . S
C453 C454 1.419 . S
C454 C453 1.419 . S
C454 C455 1.391 . S
C454 C458 1.397 . S
C455 C450 1.391 . S
C455 C454 1.391 . S
C455 C456 1.399 . S
C456 C455 1.399 . S
C456 C457 1.396 . S
C456 C459 1.453 . S
C456 C460 1.684 . S
C457 C447 1.723 . S
C457 C456 1.396 . S
C457 C458 1.394 . S
C458 C428 1.723 . S
C458 C454 1.397 . S
C458 C457 1.394 . S
C459 H431 0.982 . S
C459 H435 0.979 . S
C459 H436 0.977 . S
C459 C456 1.453 . S
C460 H432 0.979 . S
C460 H433 0.980 . S
C460 H434 0.983 . S
C460 C456 1.684 . S
H461 C479 0.948 . S
H462 C420 0.948 . S
H463 C438 0.979 . S
H464 C438 0.980 . S
H465 C438 0.983 . S
H466 C437 0.982 . S
H467 C437 0.979 . S
H468 C437 0.977 . S
H469 C439 0.948 . S
H470 C441 0.947 . S
H471 C442 0.948 . S
H472 C448 0.982 . S
H473 C448 0.979 . S
H474 C448 0.977 . S
H475 C449 0.979 . S
H476 C449 0.980 . S
H477 C449 0.983 . S
H478 C422 0.947 . S
C479 C422 1.392 . S
C479 C423 1.419 . S
C479 H461 0.948 . S
Tb480 C489 2.764 . S
Tb480 O490 2.325 1_655 S
Tb480 O493 2.303 1_655 S
Tb480 O497 2.322 1_545 S
Tb480 O498 2.349 . S
Tb480 O501 2.415 1_655 S
Tb480 O502 2.399 . S
Tb481 O491 2.322 1_565 S
Tb481 O492 2.349 . S
Tb481 O494 2.415 . S
Tb481 O495 2.399 . S
Tb481 O496 2.325 . S
Tb481 O499 2.303 1_455 S
Tb481 C510 2.764 . S
C482 O498 1.261 . S
C482 O499 1.257 1_545 S
C483 C486 1.358 . S
C483 C487 1.332 1_655 S
C483 C489 1.504 . S
C484 C485 1.373 . S
C484 C488 1.308 1_655 S
C485 C484 1.373 . S
C485 C486 1.429 . S
C485 H512 0.932 . S
C486 C483 1.358 . S
C486 C485 1.429 . S
C486 H513 0.930 . S
C487 C483 1.332 1_455 S
C487 C488 1.394 . S
C487 H514 0.932 . S
C488 C484 1.308 1_455 S
C488 C487 1.394 . S
C488 H515 0.929 . S
C489 Tb480 2.764 . S
C489 C483 1.504 . S
C489 O501 1.239 1_655 S
C489 O502 1.263 . S
O490 Tb480 2.325 1_455 S
O490 C500 1.236 . S
O491 Tb481 2.322 1_545 S
O491 C500 1.257 . S
O492 Tb481 2.349 . S
O492 C503 1.261 . S
O493 Tb480 2.303 1_455 S
O493 C503 1.257 1_545 S
O494 Tb481 2.415 . S
O494 C510 1.239 . S
O495 Tb481 2.399 . S
O495 C510 1.263 . S
O496 Tb481 2.325 . S
O496 C511 1.236 1_455 S
O497 Tb480 2.322 1_565 S
O497 C511 1.257 . S
O498 Tb480 2.349 . S
O498 C482 1.261 . S
O499 Tb481 2.303 1_655 S
O499 C482 1.257 1_565 S
C500 O490 1.236 . S
C500 O491 1.257 . S
O501 Tb480 2.415 1_455 S
O501 C489 1.239 1_455 S
O502 Tb480 2.399 . S
O502 C489 1.263 . S
C503 O492 1.261 . S
C503 O493 1.257 1_565 S
C504 C507 1.358 . S
C504 C508 1.332 . S
C504 C510 1.504 . S
C505 C506 1.373 . S
C505 C509 1.308 . S
C506 C505 1.373 . S
C506 C507 1.429 . S
C506 H516 0.932 . S
C507 C504 1.358 . S
C507 C506 1.429 . S
C507 H517 0.930 . S
C508 C504 1.332 . S
C508 C509 1.394 . S
C508 H518 0.910 1_455 S
C509 C505 1.308 . S
C509 C508 1.394 . S
C509 H519 0.929 . S
C510 Tb481 2.764 . S
C510 O494 1.239 . S
C510 O495 1.263 . S
C510 C504 1.504 . S
C511 O496 1.236 1_655 S
C511 O497 1.257 . S
H512 C485 0.932 . S
H513 C486 0.930 . S
H514 C487 0.932 . S
H515 C488 0.929 . S
H516 C506 0.932 . S
H517 C507 0.930 . S
H518 C508 0.910 1_655 S
H519 C509 0.929 . S
Tb520 C529 2.764 . S
Tb520 O530 2.325 . S
Tb520 O533 2.303 1_565 S
Tb520 O537 2.322 . S
Tb520 O538 2.349 . S
Tb520 O541 2.415 1_565 S
Tb520 O542 2.399 . S
Tb521 O531 2.322 . S
Tb521 O532 2.349 . S
Tb521 O534 2.415 1_545 S
Tb521 O535 2.399 . S
Tb521 O536 2.325 . S
Tb521 O539 2.303 1_545 S
Tb521 C550 2.764 . S
C522 O538 1.261 . S
C522 O539 1.257 . S
C523 C526 1.358 . S
C523 C527 1.332 . S
C523 C529 1.504 . S
C524 C525 1.373 . S
C524 C528 1.308 . S
C525 C524 1.373 . S
C525 C526 1.429 . S
C525 H552 0.932 . S
C526 C523 1.358 . S
C526 C525 1.429 . S
C526 H553 0.930 . S
C527 C523 1.332 . S
C527 C528 1.394 . S
C527 H554 0.932 1_565 S
C528 C524 1.308 . S
C528 C527 1.394 . S
C528 H555 0.929 1_565 S
C529 Tb520 2.764 . S
C529 C523 1.504 . S
C529 O541 1.239 1_565 S
C529 O542 1.263 . S
O530 Tb520 2.325 . S
O530 C540 1.236 1_565 S
O531 Tb521 2.322 . S
O531 C540 1.257 . S
O532 Tb521 2.349 . S
O532 C543 1.261 . S
O533 Tb520 2.303 1_545 S
O533 C543 1.257 . S
O534 Tb521 2.415 1_565 S
O534 C550 1.239 1_565 S
O535 Tb521 2.399 . S
O535 C550 1.263 . S
O536 Tb521 2.325 . S
O536 C551 1.236 1_545 S
O537 Tb520 2.322 . S
O537 C551 1.257 . S
O538 Tb520 2.349 . S
O538 C522 1.261 . S
O539 Tb521 2.303 1_565 S
O539 C522 1.257 . S
C540 O530 1.236 1_545 S
C540 O531 1.257 . S
O541 Tb520 2.415 1_545 S
O541 C529 1.239 1_545 S
O542 Tb520 2.399 . S
O542 C529 1.263 . S
C543 O532 1.261 . S
C543 O533 1.257 . S
C544 C547 1.358 . S
C544 C548 1.342 . S
C544 C550 1.504 . S
C545 C546 1.373 . S
C545 C549 1.308 1_554 S
C546 C545 1.373 . S
C546 C547 1.429 1_554 S
C546 H556 0.932 . S
C547 C544 1.358 . S
C547 C546 1.429 1_556 S
C547 H557 0.930 . S
C548 C544 1.342 . S
C548 C549 1.394 . S
C548 H558 0.922 1_545 S
C549 C545 1.308 1_556 S
C549 C548 1.394 . S
C549 H559 0.929 1_545 S
C550 Tb521 2.764 . S
C550 O534 1.239 1_545 S
C550 O535 1.263 . S
C550 C544 1.504 . S
C551 O536 1.236 1_565 S
C551 O537 1.257 . S
H552 C525 0.932 . S
H553 C526 0.930 . S
H554 C527 0.932 1_545 S
H555 C528 0.929 1_545 S
H556 C546 0.932 . S
H557 C547 0.930 . S
H558 C548 0.922 1_565 S
H559 C549 0.929 1_565 S
Tb560 C569 2.764 . S
Tb560 O570 2.325 . S
Tb560 O573 2.303 . S
Tb560 O577 2.322 . S
Tb560 O578 2.349 . S
Tb560 O581 2.415 . S
Tb560 O582 2.399 . S
Tb561 O571 2.322 . S
Tb561 O572 2.349 . S
Tb561 O574 2.415 . S
Tb561 O575 2.399 . S
Tb561 O576 2.325 . S
Tb561 O579 2.303 . S
Tb561 C590 2.764 . S
C562 O578 1.261 . S
C562 O579 1.257 . S
C563 C566 1.358 . S
C563 C567 1.332 . S
C563 C569 1.504 . S
C564 C565 1.373 . S
C564 C568 1.308 . S
C565 C564 1.373 . S
C565 C566 1.429 1_554 S
C565 H592 0.932 . S
C566 C563 1.358 . S
C566 C565 1.429 1_556 S
C566 H593 0.930 . S
C567 C563 1.332 . S
C567 C568 1.394 1_556 S
C567 H594 0.932 . S
C568 C564 1.308 . S
C568 C567 1.394 1_554 S
C568 H595 0.929 . S
C569 Tb560 2.764 . S
C569 C563 1.504 . S
C569 O581 1.239 . S
C569 O582 1.263 . S
O570 Tb560 2.325 . S
O570 C580 1.236 . S
O571 Tb561 2.322 . S
O571 C580 1.257 . S
O572 Tb561 2.349 . S
O572 C583 1.261 . S
O573 Tb560 2.303 . S
O573 C583 1.257 . S
O574 Tb561 2.415 . S
O574 C590 1.239 . S
O575 Tb561 2.399 . S
O575 C590 1.263 . S
O576 Tb561 2.325 . S
O576 C591 1.236 . S
O577 Tb560 2.322 . S
O577 C591 1.257 . S
O578 Tb560 2.349 . S
O578 C562 1.261 . S
O579 Tb561 2.303 . S
O579 C562 1.257 . S
C580 O570 1.236 . S
C580 O571 1.257 . S
O581 Tb560 2.415 . S
O581 C569 1.239 . S
O582 Tb560 2.399 . S
O582 C569 1.263 . S
C583 O572 1.261 . S
C583 O573 1.257 . S
C584 C587 1.358 . S
C584 C588 1.332 . S
C584 C590 1.504 . S
C585 C586 1.373 . S
C585 C589 1.308 . S
C586 C585 1.373 . S
C586 C587 1.429 . S
C586 H596 0.932 . S
C587 C584 1.358 . S
C587 C586 1.429 . S
C587 H597 0.930 . S
C588 C584 1.332 . S
C588 C589 1.394 . S
C588 H598 0.932 . S
C589 C585 1.308 . S
C589 C588 1.394 . S
C589 H599 0.929 . S
C590 Tb561 2.764 . S
C590 O574 1.239 . S
C590 O575 1.263 . S
C590 C584 1.504 . S
C591 O576 1.236 . S
C591 O577 1.257 . S
H592 C565 0.932 . S
H593 C566 0.930 . S
H594 C567 0.932 . S
H595 C568 0.929 . S
H596 C586 0.932 . S
H597 C587 0.930 . S
H598 C588 0.932 . S
H599 C589 0.929 . S
Tb600 C609 2.764 . S
Tb600 O610 2.325 . S
Tb600 O613 2.303 . S
Tb600 O617 2.322 1_455 S
Tb600 O618 2.349 . S
Tb600 O621 2.415 . S
Tb600 O622 2.399 . S
Tb601 O611 2.322 1_655 S
Tb601 O612 2.349 1_655 S
Tb601 O614 2.415 . S
Tb601 O615 2.399 . S
Tb601 O616 2.325 . S
Tb601 O619 2.303 1_655 S
Tb601 C630 2.764 . S
C602 O618 1.261 . S
C602 O619 1.257 . S
C603 C606 1.358 . S
C603 C607 1.332 . S
C603 C609 1.504 . S
C604 C605 1.373 . S
C604 C608 1.308 . S
C605 C604 1.373 . S
C605 C606 1.429 . S
C605 H632 0.932 . S
C606 C603 1.358 . S
C606 C605 1.429 . S
C606 H633 0.930 . S
C607 C603 1.332 . S
C607 C608 1.394 . S
C607 H634 0.932 . S
C608 C604 1.308 . S
C608 C607 1.394 . S
C608 H635 0.929 . S
C609 Tb600 2.764 . S
C609 C603 1.504 . S
C609 O621 1.239 . S
C609 O622 1.263 . S
O610 Tb600 2.325 . S
O610 C620 1.236 . S
O611 Tb601 2.322 1_455 S
O611 C620 1.257 . S
O612 Tb601 2.349 1_455 S
O612 C623 1.261 . S
O613 Tb600 2.303 . S
O613 C623 1.257 . S
O614 Tb601 2.415 . S
O614 C630 1.239 . S
O615 Tb601 2.399 . S
O615 C630 1.263 . S
O616 Tb601 2.325 . S
O616 C631 1.236 . S
O617 Tb600 2.322 1_655 S
O617 C631 1.257 . S
O618 Tb600 2.349 . S
O618 C602 1.261 . S
O619 Tb601 2.303 1_455 S
O619 C602 1.257 . S
C620 O610 1.236 . S
C620 O611 1.257 . S
O621 Tb600 2.415 . S
O621 C609 1.239 . S
O622 Tb600 2.399 . S
O622 C609 1.263 . S
C623 O612 1.261 . S
C623 O613 1.257 . S
C624 C627 1.358 . S
C624 C628 1.332 . S
C624 C630 1.504 . S
C625 C626 1.371 1_554 S
C625 C629 1.304 1_554 S
C626 C625 1.371 1_556 S
C626 C627 1.429 . S
C626 H636 0.932 . S
C627 C624 1.358 . S
C627 C626 1.429 . S
C627 H637 0.930 . S
C628 C624 1.332 . S
C628 C629 1.394 . S
C628 H638 0.932 . S
C629 C625 1.304 1_556 S
C629 C628 1.394 . S
C629 H639 0.929 1_556 S
C630 Tb601 2.764 . S
C630 O614 1.239 . S
C630 O615 1.263 . S
C630 C624 1.504 . S
C631 O616 1.236 . S
C631 O617 1.257 . S
H632 C605 0.932 . S
H633 C606 0.930 . S
H634 C607 0.932 . S
H635 C608 0.929 . S
H636 C626 0.932 . S
H637 C627 0.930 . S
H638 C628 0.932 . S
H639 C629 0.929 1_554 S
H640 C646 0.930 . S
H641 C650 0.930 . S
H642 C655 0.929 . S
H643 C653 0.929 . S
H644 C648 0.929 . S
H645 C654 0.929 . S
C646 H640 0.930 . S
C646 C647 1.391 . S
C646 C654 1.378 . S
C647 C646 1.391 . S
C647 C655 1.405 1_545 S
C648 H644 0.929 . S
C648 C650 1.378 . S
C648 C652 1.367 . S
C649 C652 1.451 1_545 S
C649 C654 1.394 . S
C649 N657 1.390 1_545 S
C650 H641 0.930 . S
C650 C648 1.378 . S
C650 C651 1.368 . S
C651 C650 1.368 . S
C651 C653 1.432 1_565 S
C652 C648 1.367 . S
C652 C649 1.451 1_565 S
C652 N656 1.413 1_565 S
C653 H643 0.929 . S
C653 C651 1.432 1_545 S
C653 N656 1.384 . S
C654 H645 0.929 . S
C654 C646 1.378 . S
C654 C649 1.394 . S
C655 H642 0.929 . S
C655 C647 1.405 1_565 S
C655 N657 1.384 . S
N656 C652 1.413 1_545 S
N656 C653 1.384 . S
N657 C649 1.390 1_565 S
N657 C655 1.384 . S
H658 C664 0.930 . S
H659 C668 0.930 . S
H660 C673 0.929 . S
H661 C671 0.929 . S
H662 C666 0.929 . S
H663 C672 0.929 . S
C664 H658 0.930 . S
C664 C665 1.367 . S
C664 C672 1.378 . S
C665 C664 1.367 . S
C665 C673 1.433 . S
C666 H662 0.929 . S
C666 C668 1.378 . S
C666 C670 1.350 . S
C667 C670 1.463 . S
C667 C672 1.350 . S
C667 N675 1.427 . S
C668 H659 0.930 . S
C668 C666 1.378 . S
C668 C669 1.367 . S
C669 C668 1.367 . S
C669 C671 1.433 . S
C670 C666 1.350 . S
C670 C667 1.463 . S
C670 N674 1.427 . S
C671 H661 0.929 . S
C671 C669 1.433 . S
C671 N674 1.384 . S
C672 H663 0.929 . S
C672 C664 1.378 . S
C672 C667 1.350 . S
C673 H660 0.929 . S
C673 C665 1.433 . S
C673 N675 1.384 . S
N674 C670 1.427 . S
N674 C671 1.384 . S
N675 C667 1.427 . S
N675 C673 1.384 . S
H676 C682 0.930 . S
H677 C686 0.930 . S
H678 C691 0.929 . S
H679 C689 0.929 . S
H680 C684 0.929 . S
H681 C690 0.929 . S
C682 H676 0.930 . S
C682 C683 1.367 . S
C682 C690 1.378 . S
C683 C682 1.367 . S
C683 C691 1.433 . S
C684 H680 0.929 . S
C684 C686 1.378 . S
C684 C688 1.350 . S
C685 C688 1.463 . S
C685 C690 1.350 . S
C685 N693 1.427 . S
C686 H677 0.930 . S
C686 C684 1.378 . S
C686 C687 1.367 . S
C687 C686 1.367 . S
C687 C689 1.433 . S
C688 C684 1.350 . S
C688 C685 1.463 . S
C688 N692 1.427 . S
C689 H679 0.929 . S
C689 C687 1.433 . S
C689 N692 1.384 . S
C690 H681 0.929 . S
C690 C682 1.378 . S
C690 C685 1.350 . S
C691 H678 0.929 . S
C691 C683 1.433 . S
C691 N693 1.384 . S
N692 C688 1.427 . S
N692 C689 1.384 . S
N693 C685 1.427 . S
N693 C691 1.384 . S
H694 C700 0.930 . S
H695 C704 0.911 1_655 S
H696 C709 0.929 . S
H697 C707 0.929 . S
H698 C702 0.929 . S
H699 C708 0.929 . S
C700 H694 0.930 . S
C700 C701 1.367 . S
C700 C708 1.378 . S
C701 C700 1.367 . S
C701 C709 1.433 . S
C702 H698 0.929 . S
C702 C704 1.378 . S
C702 C706 1.350 . S
C703 C706 1.463 . S
C703 C708 1.350 . S
C703 N711 1.427 . S
C704 H695 0.911 1_455 S
C704 C702 1.378 . S
C704 C705 1.367 . S
C705 C704 1.367 . S
C705 C707 1.433 . S
C706 C702 1.350 . S
C706 C703 1.463 . S
C706 N710 1.427 . S
C707 H697 0.929 . S
C707 C705 1.433 . S
C707 N710 1.384 . S
C708 H699 0.929 . S
C708 C700 1.378 . S
C708 C703 1.350 . S
C709 H696 0.929 . S
C709 C701 1.433 . S
C709 N711 1.384 . S
N710 C706 1.427 . S
N710 C707 1.384 . S
N711 C703 1.427 . S
N711 C709 1.384 . S
H712 C718 0.930 . S
H713 C722 0.930 . S
H714 C727 0.929 . S
H715 C725 0.929 . S
H716 C720 0.929 . S
H717 C726 0.929 . S
C718 H712 0.930 . S
C718 C719 1.373 . S
C718 C726 1.378 . S
C719 C718 1.373 . S
C719 C727 1.426 1_565 S
C720 H716 0.929 . S
C720 C722 1.378 1_554 S
C720 C724 1.364 . S
C721 C724 1.455 1_565 S
C721 C726 1.367 . S
C721 N729 1.414 1_565 S
C722 H713 0.930 . S
C722 C720 1.378 1_556 S
C722 C723 1.370 . S
C723 C722 1.370 . S
C723 C725 1.429 1_545 S
C724 C720 1.364 . S
C724 C721 1.455 1_545 S
C724 N728 1.416 1_544 S
C725 H715 0.929 . S
C725 C723 1.429 1_565 S
C725 N728 1.384 . S
C726 H717 0.929 . S
C726 C718 1.378 . S
C726 C721 1.367 . S
C727 H714 0.929 . S
C727 C719 1.426 1_545 S
C727 N729 1.384 . S
N728 C724 1.416 1_566 S
N728 C725 1.384 . S
N729 C721 1.414 1_545 S
N729 C727 1.384 . S
H730 C736 0.930 . S
H731 C740 0.930 . S
H732 C745 0.929 . S
H733 C743 0.929 . S
H734 C738 0.929 . S
H735 C744 0.929 . S
C736 H730 0.930 . S
C736 C737 1.367 . S
C736 C744 1.378 . S
C737 C736 1.367 . S
C737 C745 1.433 . S
C738 H734 0.929 . S
C738 C740 1.378 . S
C738 C742 1.350 . S
C739 C742 1.463 . S
C739 C744 1.350 . S
C739 N747 1.427 . S
C740 H731 0.930 . S
C740 C738 1.378 . S
C740 C741 1.367 . S
C741 C740 1.367 . S
C741 C743 1.433 . S
C742 C738 1.350 . S
C742 C739 1.463 . S
C742 N746 1.427 . S
C743 H733 0.929 . S
C743 C741 1.433 . S
C743 N746 1.384 . S
C744 H735 0.929 . S
C744 C736 1.378 . S
C744 C739 1.350 . S
C745 H732 0.929 . S
C745 C737 1.433 . S
C745 N747 1.384 . S
N746 C742 1.427 . S
N746 C743 1.384 . S
N747 C739 1.427 . S
N747 C745 1.384 . S
H748 C754 0.930 . S
H749 C758 0.930 . S
H750 C763 0.929 . S
H751 C761 0.929 . S
H752 C756 0.929 . S
H753 C762 0.929 . S
C754 H748 0.930 . S
C754 C755 1.367 . S
C754 C762 1.378 . S
C755 C754 1.367 . S
C755 C763 1.433 . S
C756 H752 0.929 . S
C756 C758 1.378 1_554 S
C756 C760 1.350 . S
C757 C760 1.463 . S
C757 C762 1.350 . S
C757 N765 1.427 . S
C758 H749 0.930 . S
C758 C756 1.378 1_556 S
C758 C759 1.367 . S
C759 C758 1.367 . S
C759 C761 1.433 . S
C760 C756 1.350 . S
C760 C757 1.463 . S
C760 N764 1.427 . S
C761 H751 0.929 . S
C761 C759 1.433 . S
C761 N764 1.384 1_556 S
C762 H753 0.929 . S
C762 C754 1.378 . S
C762 C757 1.350 . S
C763 H750 0.929 . S
C763 C755 1.433 . S
C763 N765 1.384 . S
N764 C760 1.427 . S
N764 C761 1.384 1_554 S
N765 C757 1.427 . S
N765 C763 1.384 . S
H766 C772 0.930 . S
H767 C776 0.930 . S
H768 C781 0.929 . S
H769 C779 0.929 . S
H770 C774 0.929 . S
H771 C780 0.929 . S
C772 H766 0.930 . S
C772 C773 1.367 . S
C772 C780 1.378 . S
C773 C772 1.367 . S
C773 C781 1.433 1_655 S
C774 H770 0.929 . S
C774 C776 1.378 . S
C774 C778 1.350 1_456 S
C775 C778 1.463 . S
C775 C780 1.350 . S
C775 N783 1.427 1_655 S
C776 H767 0.930 . S
C776 C774 1.378 . S
C776 C777 1.367 . S
C777 C776 1.367 . S
C777 C779 1.433 1_455 S
C778 C774 1.350 1_654 S
C778 C775 1.463 . S
C778 N782 1.427 . S
C779 H769 0.929 . S
C779 C777 1.433 1_655 S
C779 N782 1.384 1_556 S
C780 H771 0.929 . S
C780 C772 1.378 . S
C780 C775 1.350 . S
C781 H768 0.929 . S
C781 C773 1.433 1_455 S
C781 N783 1.384 . S
N782 C778 1.427 . S
N782 C779 1.384 1_554 S
N783 C775 1.427 1_455 S
N783 C781 1.384 . S
H784 C790 0.930 . S
H785 C794 0.930 . S
H786 C799 0.929 . S
H787 C797 0.929 . S
H788 C792 0.929 . S
H789 C798 0.929 . S
C790 H784 0.930 . S
C790 C791 1.367 . S
C790 C798 1.378 . S
C791 C790 1.367 . S
C791 C799 1.433 . S
C792 H788 0.929 . S
C792 C794 1.378 . S
C792 C796 1.350 1_655 S
C793 C796 1.463 . S
C793 C798 1.350 . S
C793 N801 1.427 . S
C794 H785 0.930 . S
C794 C792 1.378 . S
C794 C795 1.367 . S
C795 C794 1.367 . S
C795 C797 1.433 1_655 S
C796 C792 1.350 1_455 S
C796 C793 1.463 . S
C796 N800 1.427 . S
C797 H787 0.929 . S
C797 C795 1.433 1_455 S
C797 N800 1.384 . S
C798 H789 0.929 . S
C798 C790 1.378 . S
C798 C793 1.350 . S
C799 H786 0.929 . S
C799 C791 1.433 . S
C799 N801 1.384 . S
N800 C796 1.427 . S
N800 C797 1.384 . S
N801 C793 1.427 . S
N801 C799 1.384 . S
H802 C808 0.930 . S
H803 C812 0.930 . S
H804 C817 0.929 . S
H805 C815 0.929 1_545 S
H806 C810 0.929 . S
H807 C816 0.929 . S
C808 H802 0.930 . S
C808 C809 1.367 . S
C808 C816 1.378 . S
C809 C808 1.367 . S
C809 C817 1.433 1_545 S
C810 H806 0.929 . S
C810 C812 1.378 . S
C810 C814 1.350 . S
C811 C814 1.463 . S
C811 C816 1.350 1_565 S
C811 N819 1.427 . S
C812 H803 0.930 . S
C812 C810 1.378 . S
C812 C813 1.367 . S
C813 C812 1.367 . S
C813 C815 1.433 . S
C814 C810 1.350 . S
C814 C811 1.463 . S
C814 N818 1.427 . S
C815 H805 0.929 1_565 S
C815 C813 1.433 . S
C815 N818 1.384 . S
C816 H807 0.929 . S
C816 C808 1.378 . S
C816 C811 1.350 1_545 S
C817 H804 0.929 . S
C817 C809 1.433 1_565 S
C817 N819 1.384 . S
N818 C814 1.427 . S
N818 C815 1.384 . S
N819 C811 1.427 . S
N819 C817 1.384 . S
H820 C826 0.930 . S
H821 C830 0.930 . S
H822 C835 0.929 . S
H823 C833 0.929 . S
H824 C828 0.929 . S
H825 C834 0.929 . S
C826 H820 0.930 . S
C826 C827 1.367 . S
C826 C834 1.378 . S
C827 C826 1.367 . S
C827 C835 1.433 . S
C828 H824 0.929 . S
C828 C830 1.378 . S
C828 C832 1.350 . S
C829 C832 1.463 . S
C829 C834 1.350 . S
C829 N837 1.427 . S
C830 H821 0.930 . S
C830 C828 1.378 . S
C830 C831 1.367 . S
C831 C830 1.367 . S
C831 C833 1.433 . S
C832 C828 1.350 . S
C832 C829 1.463 . S
C832 N836 1.427 . S
C833 H823 0.929 . S
C833 C831 1.433 . S
C833 N836 1.384 . S
C834 H825 0.929 . S
C834 C826 1.378 . S
C834 C829 1.350 . S
C835 H822 0.929 . S
C835 C827 1.433 . S
C835 N837 1.384 . S
N836 C832 1.427 . S
N836 C833 1.384 . S
N837 C829 1.427 . S
N837 C835 1.384 . S
H838 C844 0.930 . S
H839 C848 0.930 . S
H840 C853 0.929 . S
H841 C851 0.929 . S
H842 C846 0.929 . S
H843 C852 0.929 . S
C844 H838 0.930 . S
C844 C845 1.367 . S
C844 C852 1.378 . S
C845 C844 1.367 . S
C845 C853 1.433 . S
C846 H842 0.929 . S
C846 C848 1.378 . S
C846 C850 1.350 . S
C847 C850 1.463 . S
C847 C852 1.350 . S
C847 N855 1.427 . S
C848 H839 0.930 . S
C848 C846 1.378 . S
C848 C849 1.367 . S
C849 C848 1.367 . S
C849 C851 1.433 . S
C850 C846 1.350 . S
C850 C847 1.463 . S
C850 N854 1.427 . S
C851 H841 0.929 . S
C851 C849 1.433 . S
C851 N854 1.384 . S
C852 H843 0.929 . S
C852 C844 1.378 . S
C852 C847 1.350 . S
C853 H840 0.929 . S
C853 C845 1.433 . S
C853 N855 1.384 . S
N854 C850 1.427 . S
N854 C851 1.384 . S
N855 C847 1.427 . S
N855 C853 1.384 . S
H856 C862 0.930 . S
H857 C866 0.930 . S
H858 C871 0.929 . S
H859 C869 0.929 . S
H860 C864 0.929 . S
H861 C870 0.919 1_455 S
C862 H856 0.930 . S
C862 C863 1.367 . S
C862 C870 1.396 . S
C863 C862 1.367 . S
C863 C871 1.433 . S
C864 H860 0.929 . S
C864 C866 1.378 . S
C864 C868 1.350 1_556 S
C865 C868 1.463 . S
C865 C870 1.343 1_455 S
C865 N873 1.427 1_455 S
C866 H857 0.930 . S
C866 C864 1.378 . S
C866 C867 1.367 . S
C867 C866 1.367 . S
C867 C869 1.433 1_556 S
C868 C864 1.350 1_554 S
C868 C865 1.463 . S
C868 N872 1.427 . S
C869 H859 0.929 . S
C869 C867 1.433 1_554 S
C869 N872 1.384 . S
C870 H861 0.919 1_655 S
C870 C862 1.396 . S
C870 C865 1.343 1_655 S
C871 H858 0.929 . S
C871 C863 1.433 . S
C871 N873 1.384 . S
N872 C868 1.427 . S
N872 C869 1.384 . S
N873 C865 1.427 1_655 S
N873 C871 1.384 . S
H874 C880 0.930 . S
H875 C884 0.930 . S
H876 C889 0.929 . S
H877 C887 0.929 1_565 S
H878 C882 0.929 . S
H879 C888 0.929 . S
C880 H874 0.930 . S
C880 C881 1.367 . S
C880 C888 1.378 . S
C881 C880 1.367 . S
C881 C889 1.433 1_565 S
C882 H878 0.929 . S
C882 C884 1.378 . S
C882 C886 1.350 . S
C883 C886 1.463 . S
C883 C888 1.350 1_545 S
C883 N891 1.427 . S
C884 H875 0.930 . S
C884 C882 1.378 . S
C884 C885 1.367 . S
C885 C884 1.367 . S
C885 C887 1.433 . S
C886 C882 1.350 . S
C886 C883 1.463 . S
C886 N890 1.427 1_545 S
C887 H877 0.929 1_545 S
C887 C885 1.433 . S
C887 N890 1.384 1_545 S
C888 H879 0.929 . S
C888 C880 1.378 . S
C888 C883 1.350 1_565 S
C889 H876 0.929 . S
C889 C881 1.433 1_545 S
C889 N891 1.384 . S
N890 C886 1.427 1_565 S
N890 C887 1.384 1_565 S
N891 C883 1.427 . S
N891 C889 1.384 . S
H892 C898 0.930 . S
H893 C902 0.930 . S
H894 C907 0.929 . S
H895 C905 0.929 . S
H896 C900 0.929 . S
H897 C906 0.929 . S
C898 H892 0.930 . S
C898 C899 1.367 . S
C898 C906 1.378 . S
C899 C898 1.367 . S
C899 C907 1.433 . S
C900 H896 0.929 . S
C900 C902 1.378 . S
C900 C904 1.350 . S
C901 C904 1.463 . S
C901 C906 1.350 . S
C901 N909 1.427 . S
C902 H893 0.930 . S
C902 C900 1.378 . S
C902 C903 1.367 . S
C903 C902 1.367 . S
C903 C905 1.433 . S
C904 C900 1.350 . S
C904 C901 1.463 . S
C904 N908 1.427 . S
C905 H895 0.929 . S
C905 C903 1.433 . S
C905 N908 1.384 . S
C906 H897 0.929 . S
C906 C898 1.378 . S
C906 C901 1.350 . S
C907 H894 0.929 . S
C907 C899 1.433 . S
C907 N909 1.384 . S
N908 C904 1.427 . S
N908 C905 1.384 . S
N909 C901 1.427 . S
N909 C907 1.384 . S
H910 C916 0.930 . S
H911 C920 0.930 . S
H912 C925 0.929 . S
H913 C923 0.929 . S
H914 C918 0.929 . S
H915 C924 0.929 . S
C916 H910 0.930 . S
C916 C917 1.367 . S
C916 C924 1.378 . S
C917 C916 1.367 . S
C917 C925 1.433 . S
C918 H914 0.929 . S
C918 C920 1.378 1_554 S
C918 C922 1.350 . S
C919 C922 1.463 . S
C919 C924 1.350 . S
C919 N927 1.427 . S
C920 H911 0.930 . S
C920 C918 1.378 1_556 S
C920 C921 1.367 1_556 S
C921 C920 1.367 1_554 S
C921 C923 1.433 . S
C922 C918 1.350 . S
C922 C919 1.463 . S
C922 N926 1.427 . S
C923 H913 0.929 . S
C923 C921 1.433 . S
C923 N926 1.384 . S
C924 H915 0.929 . S
C924 C916 1.378 . S
C924 C919 1.350 . S
C925 H912 0.929 . S
C925 C917 1.433 . S
C925 N927 1.384 . S
N926 C922 1.427 . S
N926 C923 1.384 . S
N927 C919 1.427 . S
N927 C925 1.384 . S
H928 C934 0.930 . S
H929 C938 0.930 . S
H930 C943 0.929 . S
H931 C941 0.929 . S
H932 C936 0.929 . S
H933 C942 0.929 . S
C934 H928 0.930 . S
C934 C935 1.367 . S
C934 C942 1.378 . S
C935 C934 1.367 . S
C935 C943 1.433 . S
C936 H932 0.929 . S
C936 C938 1.378 . S
C936 C940 1.350 . S
C937 C940 1.463 . S
C937 C942 1.350 . S
C937 N945 1.427 . S
C938 H929 0.930 . S
C938 C936 1.378 . S
C938 C939 1.367 . S
C939 C938 1.367 . S
C939 C941 1.433 . S
C940 C936 1.350 . S
C940 C937 1.463 . S
C940 N944 1.427 . S
C941 H931 0.929 . S
C941 C939 1.433 . S
C941 N944 1.384 . S
C942 H933 0.929 . S
C942 C934 1.378 . S
C942 C937 1.350 . S
C943 H930 0.929 . S
C943 C935 1.433 . S
C943 N945 1.384 . S
N944 C940 1.427 . S
N944 C941 1.384 . S
N945 C937 1.427 . S
N945 C943 1.384 . S
H946 C952 0.930 . S
H947 C956 0.930 . S
H948 C961 0.929 . S
H949 C959 0.929 . S
H950 C954 0.929 . S
H951 C960 0.929 . S
C952 H946 0.930 . S
C952 C953 1.335 1_565 S
C952 C960 1.378 . S
C953 C952 1.335 1_545 S
C953 C961 1.468 . S
C954 H950 0.929 . S
C954 C956 1.378 . S
C954 C958 1.350 . S
C955 C958 1.463 . S
C955 C960 1.350 1_545 S
C955 N963 1.427 . S
C956 H947 0.930 . S
C956 C954 1.378 . S
C956 C957 1.367 . S
C957 C956 1.367 . S
C957 C959 1.433 1_545 S
C958 C954 1.350 . S
C958 C955 1.463 . S
C958 N962 1.427 1_545 S
C959 H949 0.929 . S
C959 C957 1.433 1_565 S
C959 N962 1.384 . S
C960 H951 0.929 . S
C960 C952 1.378 . S
C960 C955 1.350 1_565 S
C961 H948 0.929 . S
C961 C953 1.468 . S
C961 N963 1.384 . S
N962 C958 1.427 1_565 S
N962 C959 1.384 . S
N963 C955 1.427 . S
N963 C961 1.384 . S
H964 C970 0.930 . S
H965 C974 0.930 . S
H966 C979 0.929 . S
H967 C977 0.929 . S
H968 C972 0.929 . S
H969 C978 0.929 . S
C970 H964 0.930 . S
C970 C971 1.367 . S
C970 C978 1.378 . S
C971 C970 1.367 . S
C971 C979 1.433 . S
C972 H968 0.929 . S
C972 C974 1.378 . S
C972 C976 1.350 . S
C973 C976 1.463 . S
C973 C978 1.350 . S
C973 N981 1.427 . S
C974 H965 0.930 . S
C974 C972 1.378 . S
C974 C975 1.367 . S
C975 C974 1.367 . S
C975 C977 1.433 . S
C976 C972 1.350 . S
C976 C973 1.463 . S
C976 N980 1.427 . S
C977 H967 0.929 . S
C977 C975 1.433 . S
C977 N980 1.384 . S
C978 H969 0.929 . S
C978 C970 1.378 . S
C978 C973 1.350 . S
C979 H966 0.929 . S
C979 C971 1.433 . S
C979 N981 1.384 . S
N980 C976 1.427 . S
N980 C977 1.384 . S
N981 C973 1.427 . S
N981 C979 1.384 . S
H982 C988 0.930 . S
H983 C992 0.930 . S
H984 C997 0.929 . S
H985 C995 0.929 . S
H986 C990 0.929 . S
H987 C996 0.929 . S
C988 H982 0.930 . S
C988 C989 1.367 . S
C988 C996 1.378 . S
C989 C988 1.367 . S
C989 C997 1.433 . S
C990 H986 0.929 . S
C990 C992 1.378 . S
C990 C994 1.350 . S
C991 C994 1.463 . S
C991 C996 1.350 . S
C991 N999 1.427 . S
C992 H983 0.930 . S
C992 C990 1.378 . S
C992 C993 1.367 . S
C993 C992 1.367 . S
C993 C995 1.433 . S
C994 C990 1.350 . S
C994 C991 1.463 . S
C994 N998 1.427 . S
C995 H985 0.929 . S
C995 C993 1.433 . S
C995 N998 1.384 . S
C996 H987 0.929 . S
C996 C988 1.378 . S
C996 C991 1.350 . S
C997 H984 0.929 . S
C997 C989 1.433 . S
C997 N999 1.384 . S
N998 C994 1.427 . S
N998 C995 1.384 . S
N999 C991 1.427 . S
N999 C997 1.384 . S
H1000 C1006 0.930 1_455 S
H1001 C1010 0.930 . S
H1002 C1015 0.929 . S
H1003 C1013 0.929 . S
H1004 C1008 0.929 . S
H1005 C1014 0.939 . S
C1006 H1000 0.930 1_655 S
C1006 C1007 1.367 . S
C1006 C1014 1.377 1_655 S
C1007 C1006 1.367 . S
C1007 C1015 1.433 . S
C1008 H1004 0.929 . S
C1008 C1010 1.378 . S
C1008 C1012 1.350 . S
C1009 C1012 1.463 . S
C1009 C1014 1.341 1_655 S
C1009 N1017 1.427 . S
C1010 H1001 0.930 . S
C1010 C1008 1.378 . S
C1010 C1011 1.367 . S
C1011 C1010 1.367 . S
C1011 C1013 1.433 1_655 S
C1012 C1008 1.350 . S
C1012 C1009 1.463 . S
C1012 N1016 1.427 1_655 S
C1013 H1003 0.929 . S
C1013 C1011 1.433 1_455 S
C1013 N1016 1.384 . S
C1014 H1005 0.939 . S
C1014 C1006 1.377 1_455 S
C1014 C1009 1.341 1_455 S
C1015 H1002 0.929 . S
C1015 C1007 1.433 . S
C1015 N1017 1.384 . S
N1016 C1012 1.427 1_455 S
N1016 C1013 1.384 . S
N1017 C1009 1.427 . S
N1017 C1015 1.384 . S
H1018 C1024 0.930 . S
H1019 C1028 0.930 . S
H1020 C1033 0.929 . S
H1021 C1031 0.929 . S
H1022 C1026 0.929 . S
H1023 C1032 0.929 . S
C1024 H1018 0.930 . S
C1024 C1025 1.344 1_545 S
C1024 C1032 1.378 . S
C1025 C1024 1.344 1_565 S
C1025 C1033 1.458 . S
C1026 H1022 0.929 . S
C1026 C1028 1.378 . S
C1026 C1030 1.350 . S
C1027 C1030 1.463 . S
C1027 C1032 1.350 1_565 S
C1027 N1035 1.427 . S
C1028 H1019 0.930 . S
C1028 C1026 1.378 . S
C1028 C1029 1.367 . S
C1029 C1028 1.367 . S
C1029 C1031 1.433 1_565 S
C1030 C1026 1.350 . S
C1030 C1027 1.463 . S
C1030 N1034 1.427 1_565 S
C1031 H1021 0.929 . S
C1031 C1029 1.433 1_545 S
C1031 N1034 1.384 . S
C1032 H1023 0.929 . S
C1032 C1024 1.378 . S
C1032 C1027 1.350 1_545 S
C1033 H1020 0.929 . S
C1033 C1025 1.458 . S
C1033 N1035 1.384 . S
N1034 C1030 1.427 1_545 S
N1034 C1031 1.384 . S
N1035 C1027 1.427 . S
N1035 C1033 1.384 . S
H1036 C1042 0.930 . S
H1037 C1046 0.930 . S
H1038 C1051 0.929 . S
H1039 C1049 0.929 . S
H1040 C1044 0.929 . S
H1041 C1050 0.929 . S
C1042 H1036 0.930 . S
C1042 C1043 1.367 . S
C1042 C1050 1.378 . S
C1043 C1042 1.367 . S
C1043 C1051 1.433 . S
C1044 H1040 0.929 . S
C1044 C1046 1.378 . S
C1044 C1048 1.350 . S
C1045 C1048 1.463 . S
C1045 C1050 1.350 . S
C1045 N1053 1.427 . S
C1046 H1037 0.930 . S
C1046 C1044 1.378 . S
C1046 C1047 1.367 . S
C1047 C1046 1.367 . S
C1047 C1049 1.433 . S
C1048 C1044 1.350 . S
C1048 C1045 1.463 . S
C1048 N1052 1.427 . S
C1049 H1039 0.929 . S
C1049 C1047 1.433 . S
C1049 N1052 1.384 . S
C1050 H1041 0.929 . S
C1050 C1042 1.378 . S
C1050 C1045 1.350 . S
C1051 H1038 0.929 . S
C1051 C1043 1.433 . S
C1051 N1053 1.384 . S
N1052 C1048 1.427 . S
N1052 C1049 1.384 . S
N1053 C1045 1.427 . S
N1053 C1051 1.384 . S
H1054 C1060 0.930 . S
H1055 C1064 0.930 . S
H1056 C1069 0.929 . S
H1057 C1067 0.929 . S
H1058 C1062 0.929 . S
H1059 C1068 0.929 . S
C1060 H1054 0.930 . S
C1060 C1061 1.367 . S
C1060 C1068 1.378 . S
C1061 C1060 1.367 . S
C1061 C1069 1.433 . S
C1062 H1058 0.929 . S
C1062 C1064 1.378 . S
C1062 C1066 1.350 . S
C1063 C1066 1.463 . S
C1063 C1068 1.350 . S
C1063 N1071 1.427 . S
C1064 H1055 0.930 . S
C1064 C1062 1.378 . S
C1064 C1065 1.367 . S
C1065 C1064 1.367 . S
C1065 C1067 1.433 . S
C1066 C1062 1.350 . S
C1066 C1063 1.463 . S
C1066 N1070 1.427 . S
C1067 H1057 0.929 . S
C1067 C1065 1.433 . S
C1067 N1070 1.384 . S
C1068 H1059 0.929 . S
C1068 C1060 1.378 . S
C1068 C1063 1.350 . S
C1069 H1056 0.929 . S
C1069 C1061 1.433 . S
C1069 N1071 1.384 . S
N1070 C1066 1.427 . S
N1070 C1067 1.384 . S
N1071 C1063 1.427 . S
N1071 C1069 1.384 . S
C647 C391 2.304 . S
C651 C503 2.370 . S
C669 C543 1.626 . S
C665 C451 1.618 . S
C687 C562 2.438 . S
C683 C241 2.068 . S
C705 C623 1.802 . S
C701 C331 1.523 . S
C723 C482 2.370 . S
C719 C121 2.014 . S
C737 C211 1.571 . S
C741 C522 1.631 . S
C755 C31 2.354 . S
C759 C583 2.437 . S
C773 C91 1.545 . S
C777 C602 1.801 . S
C795 C484 0.757 . S
C791 C301 0.746 . S
C813 C524 0.360 . S
C809 C380 0.104 . S
C831 C580 0.984 . S
C827 C440 0.965 . S
C845 C260 0.544 . S
C849 C604 0.430 . S
C863 C61 0.725 . S
C867 C505 0.745 . S
C885 C545 0.356 . S
C881 C140 0.436 . S
C903 C591 0.985 . S
C899 C200 0.946 . S
C917 C20 0.401 . S
C921 C625 0.424 . S
C935 C320 2.376 . S
C939 C500 2.542 . S
C953 C361 2.617 . S
C957 C540 3.175 . S
C975 C564 1.957 . S
C971 C421 1.758 . S
C993 C620 3.160 . S
C989 C271 2.985 . S
C1007 C80 2.400 . S
C1011 C511 2.556 . S
C1029 C551 3.174 . S
C1025 C151 2.983 . S
C1047 C585 1.957 . S
C1043 C181 1.754 . S
C1061 C1 2.625 . S
C1065 C631 3.163 . S
