# Generated by pormake.
# Topology pts, (4,4)-cn, num edge types: 1
# Building blocks:
#     Node 0, Type 0, BuildingBlock: GIZVER_clean_linker_0, # of connection points: 4
#     Node 1, Type 0, BuildingBlock: GIZVER_clean_linker_0, # of connection points: 4
#     Node 2, Type 1, BuildingBlock: UXUYUI_clean_sbu_0, # of connection points: 4
#     Node 3, Type 1, BuildingBlock: UXUYUI_clean_sbu_0, # of connection points: 4
#     Edge 4, Type (0, 1), BuildingBlock: XIVTED_clean_linker_0, # of connection points: 2
#     Edge 5, Type (0, 1), BuildingBlock: XIVTED_clean_linker_0, # of connection points: 2
#     Edge 6, Type (0, 1), BuildingBlock: XIVTED_clean_linker_0, # of connection points: 2
#     Edge 7, Type (0, 1), BuildingBlock: XIVTED_clean_linker_0, # of connection points: 2
#     Edge 8, Type (0, 1), BuildingBlock: XIVTED_clean_linker_0, # of connection points: 2
#     Edge 9, Type (0, 1), BuildingBlock: XIVTED_clean_linker_0, # of connection points: 2
#     Edge 10, Type (0, 1), BuildingBlock: XIVTED_clean_linker_0, # of connection points: 2
#     Edge 11, Type (0, 1), BuildingBlock: XIVTED_clean_linker_0, # of connection points: 2
# Relax obj value: 0.010
# Max RMSD: 0.058
# Mean RMSD: 0.057
data_MOF--net-pts--node1-UXUYUI_clean_sbu_0--node2-GIZVER_clean_linker_0--edge1-XIVTED_clean_linker_0
_symmetry_space_group_name_H-M    P1
_symmetry_Int_Tables_number       1
_symmetry_cell_setting            triclinic
loop_
_symmetry_equiv_pos_as_xyz
'x, y, z'
_cell_length_a     31.662128
_cell_length_b     31.589702
_cell_length_c     43.559041
_cell_angle_alpha  90.427332
_cell_angle_beta   89.672335
_cell_angle_gamma 90.196248
loop_
_atom_site_label
_atom_site_type_symbol
_atom_site_fract_x
_atom_site_fract_y
_atom_site_fract_z
_atom_type_partial_charge
H0 H 0.57925 0.07946 0.02528 0.0
H1 H 0.58347 0.09253 0.92696 0.0
H2 H 0.68146 0.02499 0.97298 0.0
H3 H 0.53889 0.1359 -0.00151 0.0
H4 H 0.53678 0.13692 0.95755 0.0
H5 H 0.49086 0.0919 0.02764 0.0
H6 H 0.39086 0.02847 -0.02042 0.0
H7 H 0.49422 0.08317 0.92891 0.0
C8 C 0.59416 0.0723 0.0034 0.0
C9 C 0.6321 0.04932 0.00249 0.0
C10 C 0.57617 0.08758 -0.02381 0.0
C11 C 0.59634 0.07962 0.9479 0.0
C12 C 0.63391 0.05629 0.94671 0.0
C13 C 0.65113 0.0408 -0.02607 0.0
C14 C 0.53761 0.11537 -0.02237 0.0
C15 C 0.49782 0.08905 -0.02176 0.0
C16 C 0.47762 0.08013 0.00631 0.0
C17 C 0.43935 0.05769 0.0068 0.0
C18 C 0.42165 0.04362 -0.02086 0.0
C19 C 0.44076 0.05313 0.95087 0.0
C20 C 0.47934 0.07528 0.95061 0.0
H21 H 0.09152 0.5824 0.42471 0.0
H22 H 0.08971 0.58091 0.52358 0.0
H23 H 0.02995 0.68218 0.47505 0.0
H24 H 0.13908 0.53619 0.45271 0.0
H25 H 0.14086 0.53773 0.49367 0.0
H26 H 0.0855 0.49273 0.42575 0.0
H27 H 0.0297 0.39168 0.47778 0.0
H28 H 0.0948 0.49251 0.5244 0.0
C29 C 0.08103 0.59589 0.44639 0.0
C30 C 0.0582 0.63389 0.44667 0.0
C31 C 0.09179 0.57614 0.47409 0.0
C32 C 0.08 0.59509 0.50217 0.0
C33 C 0.05725 0.63317 0.50265 0.0
C34 C 0.04563 0.6517 0.47481 0.0
C35 C 0.11899 0.53707 0.47375 0.0
C36 C 0.09218 0.49757 0.47498 0.0
C37 C 0.07774 0.47854 0.44766 0.0
C38 C 0.05475 0.44045 0.44852 0.0
C39 C 0.04546 0.4222 0.47703 0.0
C40 C 0.05989 0.44051 0.50445 0.0
C41 C 0.083 0.47846 0.50333 0.0
Li42 Li 0.03035 0.07378 0.24673 0.0
Li43 Li 0.03116 0.99613 0.24302 0.0
Li44 Li 0.06733 0.03972 0.20497 0.0
Li45 Li 0.9897 0.03591 0.20755 0.0
C46 C 0.12178 0.02962 0.24887 0.0
N47 N 0.2079 1.01693 0.24383 0.0
C48 C 0.13807 0.98855 0.24782 0.0
C49 C 0.14934 0.06424 0.24726 0.0
C50 C 0.1817 0.9828 0.24534 0.0
C51 C 0.19276 0.05716 0.24472 0.0
C52 C 0.96741 1.01455 0.27795 0.0
C53 C 0.92758 0.95838 0.30181 0.0
N54 N 0.94046 0.97236 0.32985 0.0
C55 C 0.98023 0.0284 0.307 0.0
C56 C 0.94081 0.97932 0.27528 0.0
C57 C 0.96623 1.00664 0.33296 0.0
C58 C 0.99195 0.14435 0.27481 0.0
N59 N 0.02857 0.12207 0.27318 0.0
C60 C 0.06367 0.17353 0.30441 0.0
C61 C 0.06381 0.1353 0.28813 0.0
C62 C 0.02681 0.19822 0.30544 0.0
C63 C 0.99039 0.1828 0.29077 0.0
H64 H 0.96435 0.1329 0.26277 0.0
H65 H 0.09221 0.11656 0.287 0.0
C66 C 1.01792 0.90857 0.25421 0.0
N67 N 0.03427 0.94502 0.26601 0.0
C68 C 1.0198 0.87104 0.27084 0.0
C69 C 0.05643 0.90895 0.31114 0.0
C70 C 0.05317 0.94593 0.29395 0.0
C71 C 0.03949 0.87095 0.29958 0.0
H72 H 1.00351 0.90853 0.23186 0.0
H73 H 0.0659 0.97539 0.30278 0.0
C74 C 1.01791 0.12871 0.20187 0.0
N75 N 0.99987 0.21428 0.20384 0.0
C76 C 0.97745 0.14303 0.19466 0.0
C77 C 0.04923 0.15801 0.20997 0.0
C78 C 0.96897 0.18639 0.19578 0.0
C79 C 0.03945 0.20109 0.21091 0.0
C80 C 1.0127 0.97134 0.17271 0.0
C81 C 0.03026 0.97815 0.14363 0.0
C82 C 0.97583 0.94709 0.17549 0.0
C83 C 1.0108 0.96037 0.11785 0.0
C84 C 0.95728 0.92995 0.14914 0.0
N85 N 0.97502 0.93685 0.12111 0.0
C86 C 0.13595 1.00634 0.17049 0.0
C87 C 0.13393 0.08115 0.17345 0.0
C88 C 0.17411 1.0078 0.15426 0.0
N89 N 0.11674 0.04272 0.17969 0.0
C90 C 0.17249 0.08411 0.15797 0.0
C91 C 0.19328 0.04712 0.14801 0.0
H92 H 0.1218 0.97612 0.17607 0.0
H93 H 0.11837 0.10955 0.18129 0.0
C94 C 0.90113 0.03208 0.20062 0.0
N95 N 0.93823 0.03649 0.18507 0.0
C96 C 0.86293 0.0307 0.18478 0.0
C97 C 0.90183 0.03893 0.13725 0.0
C98 C 0.93918 0.04093 0.15405 0.0
C99 C 0.86314 0.03349 0.15266 0.0
H100 H 0.90121 0.02945 0.22533 0.0
H101 H 0.96904 0.04548 0.14235 0.0
O102 O 0.07905 0.03588 0.25043 0.0
O103 O 0.98186 0.03459 0.25221 0.0
O104 O 0.02667 0.08627 0.20124 0.0
O105 O 0.03119 0.98869 0.19824 0.0
H106 H 0.11729 0.96135 0.24839 0.0
H107 H 0.13733 0.09624 0.24717 0.0
H108 H 0.1947 0.95119 0.2444 0.0
H109 H 0.21438 0.08365 0.2432 0.0
H110 H 0.90724 0.93089 0.30008 0.0
H111 H 1.00114 0.05534 0.30946 0.0
H112 H 0.93107 0.96784 0.25294 0.0
H113 H 0.97602 1.0169 0.35559 0.0
H114 H 0.09215 0.18363 0.31604 0.0
H115 H 0.96135 0.20081 0.29084 0.0
H116 H 1.00669 0.84224 0.2611 0.0
H117 H 0.07158 0.91011 0.33337 0.0
H118 H 0.95273 0.12098 0.18844 0.0
H119 H 0.08039 0.14758 0.21644 0.0
H120 H 0.93777 0.19787 0.19033 0.0
H121 H 0.06326 0.22401 0.2175 0.0
H122 H 0.05829 0.99737 0.14087 0.0
H123 H 0.96097 0.94253 0.19763 0.0
H124 H 0.02403 0.96547 0.09522 0.0
H125 H 0.92858 0.91144 0.15096 0.0
H126 H 0.18819 0.97834 0.14667 0.0
H127 H 0.1861 0.11518 0.1545 0.0
H128 H 0.83365 0.02663 0.19742 0.0
H129 H 0.90311 0.04193 0.11251 0.0
Li130 Li 1.0 0.03722 0.74454 0.0
Li131 Li 0.08021 0.03659 0.74625 0.0
Li132 Li 0.03887 0.07527 0.70555 0.0
Li133 Li 0.04128 1.00026 0.70598 0.0
C134 C 0.02663 0.1087 0.77529 0.0
N135 N 0.99846 0.15477 0.82553 0.0
C136 C 0.05066 0.11047 0.80209 0.0
C137 C 0.98832 0.13051 0.77402 0.0
C138 C 0.03588 0.13392 0.82724 0.0
C139 C 0.9746 0.15355 0.79968 0.0
C140 C 0.03002 0.94815 0.75501 0.0
C141 C 0.04951 0.87743 0.76966 0.0
N142 N 1.01082 0.86321 0.76079 0.0
C143 C 0.99044 0.93288 0.74611 0.0
C144 C 0.05983 0.92028 0.76693 0.0
C145 C 0.98135 0.88981 0.74918 0.0
C146 C 0.91317 0.02377 0.75462 0.0
N147 N 0.9497 0.03467 0.76899 0.0
C148 C 0.91276 0.04462 0.81648 0.0
C149 C 0.95038 0.04343 0.7996 0.0
C150 C 0.87446 0.03505 0.80189 0.0
C151 C 0.87496 0.0236 0.77075 0.0
H152 H 0.91363 1.01559 0.73048 0.0
H153 H 0.97998 0.05031 0.81083 0.0
C154 C 0.16324 0.05975 0.7601 0.0
N155 N 0.12957 0.03717 0.77052 0.0
C156 C 0.20133 0.05936 0.77605 0.0
C157 C 0.16899 1.01329 0.81359 0.0
C158 C 0.13155 1.01443 0.79681 0.0
C159 C 0.20469 0.03572 0.80313 0.0
H160 H 0.16067 0.0774 0.739 0.0
H161 H 0.10406 0.99713 0.80468 0.0
C162 C 0.96898 0.05789 0.67827 0.0
N163 N 0.92698 0.10525 0.63499 0.0
C164 C 0.98047 0.05512 0.64729 0.0
C165 C 0.93598 0.08468 0.6872 0.0
C166 C 0.95892 0.07935 0.62577 0.0
C167 C 0.91515 0.10835 0.66498 0.0
C168 C 0.11511 1.01694 0.68118 0.0
C169 C 0.1061 1.0165 0.6498 0.0
C170 C 0.14947 0.99387 0.69204 0.0
C171 C 0.13134 0.99261 0.62983 0.0
C172 C 0.17401 0.97043 0.67132 0.0
N173 N 0.16448 0.97025 0.64092 0.0
C174 C 1.01127 0.15722 0.68916 0.0
C175 C 0.07041 0.13273 0.66073 0.0
C176 C 1.01181 0.19551 0.67344 0.0
N177 N 0.04001 0.1266 0.68243 0.0
C178 C 0.0723 0.17074 0.64453 0.0
C179 C 0.04264 0.20272 0.6508 0.0
H180 H 0.98788 0.15204 0.70678 0.0
H181 H 0.09343 0.1083 0.65617 0.0
C182 C 1.01279 0.94043 0.66132 0.0
N183 N 0.04289 0.94856 0.6827 0.0
C184 C 1.0128 0.90207 0.64515 0.0
C185 C 0.07404 0.88068 0.67392 0.0
C186 C 0.07309 0.91956 0.68926 0.0
C187 C 0.04371 0.87146 0.65138 0.0
H188 H 0.98853 0.96354 0.657 0.0
H189 H 0.09613 0.92635 0.70683 0.0
O190 O 0.04076 0.08591 0.75046 0.0
O191 O 0.03985 0.99003 0.75151 0.0
O192 O 0.99029 0.03496 0.69975 0.0
O193 O 0.09039 0.0397 0.70117 0.0
H194 H 0.08045 0.09399 0.80349 0.0
H195 H 0.96873 0.12865 0.75385 0.0
H196 H 0.05415 0.13552 0.84813 0.0
H197 H 0.94482 0.1702 0.79911 0.0
H198 H 0.07232 0.85545 0.77872 0.0
H199 H 0.96727 0.95392 0.73642 0.0
H200 H 0.09078 0.93151 0.77362 0.0
H201 H 0.95093 0.87751 0.7422 0.0
H202 H 0.91356 0.05281 0.84066 0.0
H203 H 0.84599 1.01573 0.75885 0.0
H204 H 0.22806 0.07676 0.76691 0.0
H205 H 0.16983 0.99533 0.83465 0.0
H206 H 1.00587 0.03463 0.63991 0.0
H207 H 0.92707 0.08793 0.71109 0.0
H208 H 0.96762 0.0776 0.60175 0.0
H209 H 0.88977 0.12941 0.67162 0.0
H210 H 0.0798 0.03426 0.64095 0.0
H211 H 0.15674 0.99342 0.71625 0.0
H212 H 0.12457 0.99184 0.60552 0.0
H213 H 0.20051 0.9522 0.67945 0.0
H214 H 0.9887 0.21949 0.67932 0.0
H215 H 0.09644 0.17485 0.62708 0.0
H216 H 0.98904 0.89673 0.62776 0.0
H217 H 0.09796 0.85789 0.68004 0.0
H218 H 0.40755 0.9866 0.03404 0.0
H219 H 0.22125 0.10979 0.10907 0.0
H220 H 0.41049 0.12264 0.04206 0.0
H221 H 0.25971 0.99036 0.1478 0.0
H222 H 0.28794 0.11318 0.0813 0.0
H223 H 0.35172 0.98443 0.07346 0.0
C224 C 0.39715 1.01585 0.04476 0.0
C225 C 0.4136 0.05483 0.03508 0.0
C226 C 0.28183 0.08646 0.09614 0.0
C227 C 0.34917 0.05273 0.07895 0.0
C228 C 0.24371 0.08447 0.1122 0.0
C229 C 0.23436 0.0497 0.13107 0.0
C230 C 0.3106 0.05302 0.09821 0.0
C231 C 0.26476 1.01739 0.13312 0.0
C232 C 0.36534 1.01463 0.06709 0.0
C233 C 0.39883 0.09197 0.04922 0.0
N234 N 0.30127 1.01956 0.11658 0.0
N235 N 0.36678 0.09009 0.07003 0.0
H236 H 0.12105 0.42081 0.54595 0.0
H237 H 0.97575 0.24699 0.62791 0.0
H238 H 0.98838 0.40364 0.52757 0.0
H239 H 0.11162 0.25085 0.63495 0.0
H240 H 0.97803 0.31238 0.59837 0.0
H241 H 0.11591 0.3678 0.58655 0.0
C242 C 0.0906 0.40671 0.55105 0.0
C243 C 0.05514 0.41632 0.53328 0.0
C244 C 1.00734 0.29909 0.60654 0.0
C245 C 0.0492 0.35512 0.57913 0.0
C246 C 1.00605 0.26182 0.6235 0.0
C247 C 0.04359 0.24322 0.63372 0.0
C248 C 0.04644 0.31805 0.59975 0.0
C249 C 0.08197 0.26368 0.62706 0.0
C250 C 0.08777 0.37612 0.57397 0.0
C251 C 1.01655 0.39675 0.54058 0.0
N252 N 0.08243 0.29989 0.61039 0.0
N253 N 1.0147 0.36676 0.56272 0.0
H254 H 0.67588 0.97694 0.01561 0.0
H255 H 0.78965 0.07696 0.16284 0.0
H256 H 0.64275 0.09888 0.05392 0.0
H257 H 0.84622 0.98357 0.1029 0.0
H258 H 0.72558 0.07486 0.1313 0.0
H259 H 0.7275 0.96805 0.05655 0.0
C260 C 0.67894 1.00154 0.03292 0.0
C261 C 0.6555 0.03908 0.03096 0.0
C262 C 0.75191 0.05458 0.12528 0.0
C263 C 0.71437 0.02897 0.0779 0.0
C264 C 0.78832 0.05569 0.14324 0.0
C265 C 0.82329 0.03073 0.13517 0.0
C266 C 0.75036 0.02784 0.09941 0.0
C267 C 0.82012 1.00377 0.10957 0.0
C268 C 0.70843 0.99645 0.05623 0.0
C269 C 0.6601 0.06944 0.05446 0.0
N270 N 0.78433 1.00309 0.09256 0.0
N271 N 0.68943 0.06397 0.07676 0.0
H272 H 0.98504 0.67122 0.52374 0.0
H273 H 0.11311 0.826 0.63246 0.0
H274 H 0.1161 0.6524 0.54607 0.0
H275 H 0.97671 0.82317 0.631 0.0
H276 H 0.11426 0.76063 0.60252 0.0
H277 H 0.98004 0.72432 0.56483 0.0
C278 C 1.01248 0.67766 0.53778 0.0
C279 C 0.05107 0.6576 0.53147 0.0
C280 C 0.08405 0.77407 0.609 0.0
C281 C 0.04593 0.71885 0.57795 0.0
C282 C 0.08333 0.81144 0.62624 0.0
C283 C 0.04473 0.83051 0.63421 0.0
C284 C 0.04594 0.75573 0.59923 0.0
C285 C 1.00726 0.81029 0.62486 0.0
C286 C 1.00968 0.70799 0.56116 0.0
C287 C 0.0857 0.66698 0.55031 0.0
N288 N 1.00882 0.77427 0.60763 0.0
N289 N 0.08251 0.69747 0.57236 0.0
H290 H 0.42784 0.10805 0.90367 0.0
H291 H 0.24079 0.96843 0.83266 0.0
H292 H 0.39726 0.98167 0.9336 0.0
H293 H 0.26083 0.10082 0.8131 0.0
H294 H 0.30516 0.96873 0.86333 0.0
H295 H 0.37562 0.10093 0.86286 0.0
C296 C 0.41095 0.07836 0.90115 0.0
C297 C 0.41662 0.04553 0.92224 0.0
C298 C 0.29562 0.99762 0.85212 0.0
C299 C 0.35604 0.03757 0.87607 0.0
C300 C 0.25866 0.99759 0.8348 0.0
C301 C 0.245 0.03479 0.8205 0.0
C302 C 0.31921 0.03512 0.85522 0.0
C303 C 0.27014 0.07131 0.8235 0.0
C304 C 0.38077 0.0745 0.87806 0.0
C305 C 0.39343 1.00797 0.91808 0.0
N306 N 0.30582 0.07061 0.84067 0.0
N307 N 0.3638 1.00519 0.89571 0.0
H308 H 0.10691 0.42483 0.39944 0.0
H309 H 0.96394 0.23236 0.34148 0.0
H310 H 0.98137 0.39909 0.43366 0.0
H311 H 0.08886 0.25903 0.30625 0.0
H312 H 0.96581 0.29907 0.3701 0.0
H313 H 0.09643 0.3714 0.35932 0.0
C314 C 0.0767 0.40877 0.398 0.0
C315 C 0.04515 0.41602 0.42015 0.0
C316 C 0.9927 0.29051 0.35592 0.0
C317 C 0.03334 0.35402 0.37482 0.0
C318 C 0.9916 0.25243 0.33948 0.0
C319 C 0.02652 0.23974 0.32171 0.0
C320 C 0.02904 0.31613 0.35471 0.0
C321 C 0.06161 0.26701 0.32022 0.0
C322 C 0.07089 0.3779 0.37528 0.0
C323 C 1.00679 0.39392 0.41734 0.0
N324 N 0.0621 0.30371 0.33669 0.0
N325 N 1.00219 0.3635 0.39541 0.0
H326 H 0.66182 0.12045 0.91049 0.0
H327 H 0.81284 0.97462 0.80723 0.0
H328 H 0.66505 0.98469 0.91938 0.0
H329 H 0.84451 0.10209 0.83491 0.0
H330 H 0.74701 0.9797 0.8373 0.0
H331 H 0.71648 0.11578 0.87046 0.0
C332 C 0.67317 0.08959 0.90332 0.0
C333 C 0.65911 0.05288 0.91813 0.0
C334 C 0.7683 1.00659 0.83655 0.0
C335 C 0.7216 0.04736 0.87288 0.0
C336 C 0.80567 1.00373 0.81946 0.0
C337 C 0.8341 0.03786 0.81897 0.0
C338 C 0.75906 0.04415 0.85262 0.0
C339 C 0.82355 0.07493 0.83511 0.0
C340 C 0.7046 0.08698 0.8808 0.0
C341 C 0.67526 1.01366 0.90843 0.0
N342 N 0.7868 0.07714 0.85126 0.0
N343 N 0.70589 1.0119 0.88647 0.0
H344 H 0.98559 0.6684 0.42437 0.0
H345 H 0.10948 0.83733 0.32618 0.0
H346 H 0.11915 0.65832 0.40615 0.0
H347 H 0.97634 0.8148 0.31328 0.0
H348 H 0.11345 0.77292 0.35698 0.0
H349 H 0.98046 0.7221 0.38419 0.0
C350 C 1.0136 0.67687 0.41137 0.0
C351 C 0.05281 0.65898 0.41843 0.0
C352 C 0.08344 0.78184 0.34716 0.0
C353 C 0.04751 0.721 0.37329 0.0
C354 C 0.08112 0.81872 0.32985 0.0
C355 C 0.0425 0.83137 0.31738 0.0
C356 C 0.0467 0.75791 0.35253 0.0
C357 C 1.00673 0.80597 0.32248 0.0
C358 C 1.01072 0.70751 0.38855 0.0
C359 C 0.08829 0.67114 0.40117 0.0
N360 N 1.00956 0.77066 0.34001 0.0
N361 N 0.08495 0.70197 0.37973 0.0
loop_
_geom_bond_atom_site_label_1
_geom_bond_atom_site_label_2
_geom_bond_distance
_geom_bond_site_symmetry_2
_ccdc_geom_bond_type
H0 C8 0.930 . S
H1 C11 0.930 . S
H2 C13 0.930 1_565 S
H3 C14 0.970 . S
H4 C14 0.970 1_556 S
H5 C16 0.930 . S
H6 C18 0.930 1_565 S
H7 C20 0.930 . S
C8 H0 0.930 . S
C8 C9 1.382 . S
C8 C10 1.426 . S
C9 C8 1.382 . S
C9 C13 1.389 . S
C10 C8 1.426 . S
C10 C11 1.375 1_554 S
C10 C14 1.532 . S
C11 H1 0.930 . S
C11 C10 1.375 1_556 S
C11 C12 1.416 . S
C12 C11 1.416 . S
C12 C13 1.371 1_556 S
C13 H2 0.930 1_545 S
C13 C9 1.389 . S
C13 C12 1.371 1_554 S
C14 H3 0.970 . S
C14 H4 0.970 1_554 S
C14 C10 1.532 . S
C14 C15 1.499 . S
C15 C14 1.499 . S
C15 C16 1.370 . S
C15 C20 1.415 1_554 S
C16 H5 0.930 . S
C16 C15 1.370 . S
C16 C17 1.407 . S
C17 C16 1.407 . S
C17 C18 1.365 . S
C18 H6 0.930 1_545 S
C18 C17 1.365 . S
C18 C19 1.393 1_554 S
C19 C18 1.393 1_556 S
C19 C20 1.387 . S
C20 H7 0.930 . S
C20 C15 1.415 1_556 S
C20 C19 1.387 . S
H21 C29 0.930 . S
H22 C32 0.930 . S
H23 C34 0.930 1_655 S
H24 C35 0.970 . S
H25 C35 0.970 . S
H26 C37 0.930 . S
H27 C39 0.930 1_655 S
H28 C41 0.930 . S
C29 H21 0.930 . S
C29 C30 1.382 . S
C29 C31 1.426 . S
C30 C29 1.382 . S
C30 C34 1.389 . S
C31 C29 1.426 . S
C31 C32 1.375 . S
C31 C35 1.532 . S
C32 H22 0.930 . S
C32 C31 1.375 . S
C32 C33 1.416 . S
C33 C32 1.416 . S
C33 C34 1.371 . S
C34 H23 0.930 1_455 S
C34 C30 1.389 . S
C34 C33 1.371 . S
C35 H24 0.970 . S
C35 H25 0.970 . S
C35 C31 1.532 . S
C35 C36 1.499 . S
C36 C35 1.499 . S
C36 C37 1.370 . S
C36 C41 1.415 . S
C37 H26 0.930 . S
C37 C36 1.370 . S
C37 C38 1.407 . S
C38 C37 1.407 . S
C38 C39 1.365 . S
C39 H27 0.930 1_455 S
C39 C38 1.365 . S
C39 C40 1.393 . S
C40 C39 1.393 . S
C40 C41 1.387 . S
C41 H28 0.930 . S
C41 C36 1.415 . S
C41 C40 1.387 . S
Li42 N59 1.990 . S
Li42 O102 1.956 . S
Li42 O103 1.970 1_455 S
Li42 O104 1.961 . S
Li43 N67 1.990 . S
Li43 O102 1.970 1_565 S
Li43 O103 1.956 1_465 S
Li43 O105 1.961 . S
Li44 N89 1.990 . S
Li44 O102 1.961 . S
Li44 O104 1.956 . S
Li44 O105 1.970 1_545 S
Li45 N95 1.990 . S
Li45 O103 1.961 . S
Li45 O104 1.970 1_655 S
Li45 O105 1.956 1_645 S
C46 C48 1.348 1_545 S
C46 C49 1.356 . S
C46 O102 1.325 . S
N47 C50 1.314 1_545 S
N47 C51 1.279 . S
C48 C46 1.348 1_565 S
C48 C50 1.353 . S
C48 H106 0.929 . S
C49 C46 1.356 . S
C49 C51 1.358 . S
C49 H107 0.930 . S
C50 N47 1.314 1_565 S
C50 C48 1.353 . S
C50 H108 0.930 . S
C51 N47 1.279 . S
C51 C49 1.358 . S
C51 H109 0.930 . S
C52 C55 1.348 . S
C52 C56 1.356 1_545 S
C52 O103 1.325 . S
C53 N54 1.279 1_565 S
C53 C56 1.358 . S
C53 H110 0.930 . S
N54 C53 1.279 1_545 S
N54 C57 1.314 . S
C55 C52 1.348 . S
C55 C57 1.353 . S
C55 H111 0.929 . S
C56 C52 1.356 1_565 S
C56 C53 1.358 . S
C56 H112 0.930 . S
C57 N54 1.314 . S
C57 C55 1.353 . S
C57 H113 0.930 . S
C58 N59 1.314 1_655 S
C58 C63 1.353 . S
C58 H64 0.930 . S
N59 Li42 1.990 . S
N59 C58 1.314 1_455 S
N59 C61 1.279 . S
C60 C61 1.358 . S
C60 C62 1.356 . S
C60 H114 0.930 . S
C61 N59 1.279 . S
C61 C60 1.358 . S
C61 H65 0.930 . S
C62 C60 1.356 . S
C62 C63 1.348 1_455 S
C63 C58 1.353 . S
C63 C62 1.348 1_655 S
C63 H115 0.929 . S
H64 C58 0.930 . S
H65 C61 0.930 . S
C66 N67 1.314 . S
C66 C68 1.353 . S
C66 H72 0.930 . S
N67 Li43 1.990 . S
N67 C66 1.314 . S
N67 C70 1.279 1_455 S
C68 C66 1.353 . S
C68 C71 1.348 . S
C68 H116 0.929 . S
C69 C70 1.358 . S
C69 C71 1.356 1_655 S
C69 H117 0.930 . S
C70 N67 1.279 1_655 S
C70 C69 1.358 . S
C70 H73 0.930 . S
C71 C68 1.348 . S
C71 C69 1.356 1_455 S
H72 C66 0.930 . S
H73 C70 0.930 . S
C74 C76 1.348 1_455 S
C74 C77 1.356 . S
C74 O104 1.325 . S
N75 C78 1.314 1_455 S
N75 C79 1.279 . S
C76 C74 1.348 1_655 S
C76 C78 1.353 . S
C76 H118 0.929 . S
C77 C74 1.356 . S
C77 C79 1.358 . S
C77 H119 0.930 . S
C78 N75 1.314 1_655 S
C78 C76 1.353 . S
C78 H120 0.930 . S
C79 N75 1.279 . S
C79 C77 1.358 . S
C79 H121 0.930 . S
C80 C81 1.348 . S
C80 C82 1.356 1_455 S
C80 O105 1.325 . S
C81 C80 1.348 . S
C81 C83 1.353 . S
C81 H122 0.929 . S
C82 C80 1.356 1_655 S
C82 C84 1.358 . S
C82 H123 0.930 . S
C83 C81 1.353 . S
C83 N85 1.314 . S
C83 H124 0.930 . S
C84 C82 1.358 . S
C84 N85 1.279 1_655 S
C84 H125 0.930 . S
N85 C83 1.314 . S
N85 C84 1.279 1_455 S
C86 C88 1.353 . S
C86 N89 1.314 1_565 S
C86 H92 0.930 . S
C87 N89 1.279 . S
C87 C90 1.358 . S
C87 H93 0.930 . S
C88 C86 1.353 . S
C88 C91 1.348 1_565 S
C88 H126 0.929 . S
N89 Li44 1.990 . S
N89 C86 1.314 1_545 S
N89 C87 1.279 . S
C90 C87 1.358 . S
C90 C91 1.356 . S
C90 H127 0.930 . S
C91 C88 1.348 1_545 S
C91 C90 1.356 . S
H92 C86 0.930 . S
H93 C87 0.930 . S
C94 N95 1.314 . S
C94 C96 1.353 . S
C94 H100 0.930 . S
N95 Li45 1.990 . S
N95 C94 1.314 . S
N95 C98 1.279 1_545 S
C96 C94 1.353 . S
C96 C99 1.348 . S
C96 H128 0.929 . S
C97 C98 1.358 . S
C97 C99 1.356 1_565 S
C97 H129 0.930 . S
C98 N95 1.279 1_565 S
C98 C97 1.358 . S
C98 H101 0.930 . S
C99 C96 1.348 . S
C99 C97 1.356 1_545 S
H100 C94 0.930 . S
H101 C98 0.930 . S
O102 Li42 1.956 . S
O102 Li43 1.970 1_545 S
O102 Li44 1.961 . S
O102 C46 1.325 . S
O103 Li42 1.970 1_655 S
O103 Li43 1.956 1_645 S
O103 Li45 1.961 . S
O103 C52 1.325 . S
O104 Li42 1.961 . S
O104 Li44 1.956 . S
O104 Li45 1.970 1_455 S
O104 C74 1.325 . S
O105 Li43 1.961 . S
O105 Li44 1.970 1_565 S
O105 Li45 1.956 1_465 S
O105 C80 1.325 . S
H106 C48 0.929 . S
H107 C49 0.930 . S
H108 C50 0.930 . S
H109 C51 0.930 . S
H110 C53 0.930 . S
H111 C55 0.929 . S
H112 C56 0.930 . S
H113 C57 0.930 . S
H114 C60 0.930 . S
H115 C63 0.929 . S
H116 C68 0.929 . S
H117 C69 0.930 . S
H118 C76 0.929 . S
H119 C77 0.930 . S
H120 C78 0.930 . S
H121 C79 0.930 . S
H122 C81 0.929 . S
H123 C82 0.930 . S
H124 C83 0.930 . S
H125 C84 0.930 . S
H126 C88 0.929 . S
H127 C90 0.930 . S
H128 C96 0.929 . S
H129 C97 0.930 . S
Li130 N147 1.990 . S
Li130 O190 1.956 1_655 S
Li130 O191 1.970 1_645 S
Li130 O192 1.961 . S
Li131 N155 1.990 . S
Li131 O190 1.970 . S
Li131 O191 1.956 1_545 S
Li131 O193 1.961 . S
Li132 N177 1.990 . S
Li132 O190 1.961 . S
Li132 O192 1.956 1_455 S
Li132 O193 1.970 . S
Li133 N183 1.990 . S
Li133 O191 1.961 . S
Li133 O192 1.970 1_465 S
Li133 O193 1.956 1_565 S
C134 C136 1.348 . S
C134 C137 1.356 1_455 S
C134 O190 1.325 . S
N135 C138 1.314 . S
N135 C139 1.279 1_455 S
C136 C134 1.348 . S
C136 C138 1.353 . S
C136 H194 0.929 . S
C137 C134 1.356 1_655 S
C137 C139 1.358 . S
C137 H195 0.930 . S
C138 N135 1.314 . S
C138 C136 1.353 . S
C138 H196 0.930 . S
C139 N135 1.279 1_655 S
C139 C137 1.358 . S
C139 H197 0.930 . S
C140 C143 1.348 1_455 S
C140 C144 1.356 . S
C140 O191 1.325 . S
C141 N142 1.279 . S
C141 C144 1.358 . S
C141 H198 0.930 . S
N142 C141 1.279 . S
N142 C145 1.314 1_455 S
C143 C140 1.348 1_655 S
C143 C145 1.353 . S
C143 H199 0.929 . S
C144 C140 1.356 . S
C144 C141 1.358 . S
C144 H200 0.930 . S
C145 N142 1.314 1_655 S
C145 C143 1.353 . S
C145 H201 0.930 . S
C146 N147 1.314 1_565 S
C146 C151 1.353 . S
C146 H152 0.930 . S
N147 Li130 1.990 . S
N147 C146 1.314 1_545 S
N147 C149 1.279 . S
C148 C149 1.358 . S
C148 C150 1.356 . S
C148 H202 0.930 . S
C149 N147 1.279 . S
C149 C148 1.358 . S
C149 H153 0.930 . S
C150 C148 1.356 . S
C150 C151 1.348 1_545 S
C151 C146 1.353 . S
C151 C150 1.348 1_565 S
C151 H203 0.929 . S
H152 C146 0.930 . S
H153 C149 0.930 . S
C154 N155 1.314 . S
C154 C156 1.353 . S
C154 H160 0.930 . S
N155 Li131 1.990 . S
N155 C154 1.314 . S
N155 C158 1.279 1_545 S
C156 C154 1.353 . S
C156 C159 1.348 . S
C156 H204 0.929 . S
C157 C158 1.358 . S
C157 C159 1.356 1_565 S
C157 H205 0.930 . S
C158 N155 1.279 1_565 S
C158 C157 1.358 . S
C158 H161 0.930 . S
C159 C156 1.348 . S
C159 C157 1.356 1_545 S
H160 C154 0.930 . S
H161 C158 0.930 . S
C162 C164 1.348 1_545 S
C162 C165 1.356 . S
C162 O192 1.325 . S
N163 C166 1.314 1_545 S
N163 C167 1.279 . S
C164 C162 1.348 1_565 S
C164 C166 1.353 . S
C164 H206 0.929 . S
C165 C162 1.356 . S
C165 C167 1.358 . S
C165 H207 0.930 . S
C166 N163 1.314 1_565 S
C166 C164 1.353 . S
C166 H208 0.930 . S
C167 N163 1.279 . S
C167 C165 1.358 . S
C167 H209 0.930 . S
C168 C169 1.348 . S
C168 C170 1.356 1_545 S
C168 O193 1.325 . S
C169 C168 1.348 . S
C169 C171 1.353 . S
C169 H210 0.929 . S
C170 C168 1.356 1_565 S
C170 C172 1.358 . S
C170 H211 0.930 . S
C171 C169 1.353 . S
C171 N173 1.314 . S
C171 H212 0.930 . S
C172 C170 1.358 . S
C172 N173 1.279 1_565 S
C172 H213 0.930 . S
N173 C171 1.314 . S
N173 C172 1.279 1_545 S
C174 C176 1.353 . S
C174 N177 1.314 . S
C174 H180 0.930 . S
C175 N177 1.279 1_655 S
C175 C178 1.358 . S
C175 H181 0.930 . S
C176 C174 1.353 . S
C176 C179 1.348 . S
C176 H214 0.929 . S
N177 Li132 1.990 . S
N177 C174 1.314 . S
N177 C175 1.279 1_455 S
C178 C175 1.358 . S
C178 C179 1.356 1_655 S
C178 H215 0.930 . S
C179 C176 1.348 . S
C179 C178 1.356 1_455 S
H180 C174 0.930 . S
H181 C175 0.930 . S
C182 N183 1.314 1_655 S
C182 C184 1.353 . S
C182 H188 0.930 . S
N183 Li133 1.990 . S
N183 C182 1.314 1_455 S
N183 C186 1.279 . S
C184 C182 1.353 . S
C184 C187 1.348 1_655 S
C184 H216 0.929 . S
C185 C186 1.358 . S
C185 C187 1.356 . S
C185 H217 0.930 . S
C186 N183 1.279 . S
C186 C185 1.358 . S
C186 H189 0.930 . S
C187 C184 1.348 1_455 S
C187 C185 1.356 . S
H188 C182 0.930 . S
H189 C186 0.930 . S
O190 Li130 1.956 1_455 S
O190 Li131 1.970 . S
O190 Li132 1.961 . S
O190 C134 1.325 . S
O191 Li130 1.970 1_465 S
O191 Li131 1.956 1_565 S
O191 Li133 1.961 . S
O191 C140 1.325 . S
O192 Li130 1.961 . S
O192 Li132 1.956 1_655 S
O192 Li133 1.970 1_645 S
O192 C162 1.325 . S
O193 Li131 1.961 . S
O193 Li132 1.970 . S
O193 Li133 1.956 1_545 S
O193 C168 1.325 . S
H194 C136 0.929 . S
H195 C137 0.930 . S
H196 C138 0.930 . S
H197 C139 0.930 . S
H198 C141 0.930 . S
H199 C143 0.929 . S
H200 C144 0.930 . S
H201 C145 0.930 . S
H202 C148 0.930 . S
H203 C151 0.929 . S
H204 C156 0.929 . S
H205 C157 0.930 . S
H206 C164 0.929 . S
H207 C165 0.930 . S
H208 C166 0.930 . S
H209 C167 0.930 . S
H210 C169 0.929 . S
H211 C170 0.930 . S
H212 C171 0.930 . S
H213 C172 0.930 . S
H214 C176 0.929 . S
H215 C178 0.930 . S
H216 C184 0.929 . S
H217 C185 0.930 . S
H218 C224 0.930 . S
H219 C228 0.930 . S
H220 C233 0.929 . S
H221 C231 0.929 . S
H222 C226 0.929 . S
H223 C232 0.929 . S
C224 H218 0.930 . S
C224 C225 1.367 . S
C224 C232 1.378 . S
C225 C224 1.367 . S
C225 C233 1.433 . S
C226 H222 0.929 . S
C226 C228 1.378 . S
C226 C230 1.350 . S
C227 C230 1.463 . S
C227 C232 1.350 . S
C227 N235 1.427 . S
C228 H219 0.930 . S
C228 C226 1.378 . S
C228 C229 1.367 . S
C229 C228 1.367 . S
C229 C231 1.433 . S
C230 C226 1.350 . S
C230 C227 1.463 . S
C230 N234 1.427 . S
C231 H221 0.929 . S
C231 C229 1.433 . S
C231 N234 1.384 . S
C232 H223 0.929 . S
C232 C224 1.378 . S
C232 C227 1.350 . S
C233 H220 0.929 . S
C233 C225 1.433 . S
C233 N235 1.384 . S
N234 C230 1.427 . S
N234 C231 1.384 . S
N235 C227 1.427 . S
N235 C233 1.384 . S
H236 C242 0.930 . S
H237 C246 0.930 1_655 S
H238 C251 0.929 1_655 S
H239 C249 0.929 . S
H240 C244 0.929 1_655 S
H241 C250 0.929 . S
C242 H236 0.930 . S
C242 C243 1.367 . S
C242 C250 1.378 . S
C243 C242 1.367 . S
C243 C251 1.433 . S
C244 H240 0.929 1_455 S
C244 C246 1.378 . S
C244 C248 1.350 . S
C245 C248 1.463 . S
C245 C250 1.350 . S
C245 N253 1.427 . S
C246 H237 0.930 1_455 S
C246 C244 1.378 . S
C246 C247 1.367 . S
C247 C246 1.367 . S
C247 C249 1.433 . S
C248 C244 1.350 . S
C248 C245 1.463 . S
C248 N252 1.427 . S
C249 H239 0.929 . S
C249 C247 1.433 . S
C249 N252 1.384 . S
C250 H241 0.929 . S
C250 C242 1.378 . S
C250 C245 1.350 . S
C251 H238 0.929 1_455 S
C251 C243 1.433 . S
C251 N253 1.384 . S
N252 C248 1.427 . S
N252 C249 1.384 . S
N253 C245 1.427 . S
N253 C251 1.384 . S
H254 C260 0.930 . S
H255 C264 0.930 . S
H256 C269 0.929 . S
H257 C267 0.929 . S
H258 C262 0.929 . S
H259 C268 0.929 . S
C260 H254 0.930 . S
C260 C261 1.367 1_565 S
C260 C268 1.378 . S
C261 C260 1.367 1_545 S
C261 C269 1.433 . S
C262 H258 0.929 . S
C262 C264 1.378 . S
C262 C266 1.350 . S
C263 C266 1.463 . S
C263 C268 1.350 1_545 S
C263 N271 1.427 . S
C264 H255 0.930 . S
C264 C262 1.378 . S
C264 C265 1.367 . S
C265 C264 1.367 . S
C265 C267 1.433 1_545 S
C266 C262 1.350 . S
C266 C263 1.463 . S
C266 N270 1.427 1_545 S
C267 H257 0.929 . S
C267 C265 1.433 1_565 S
C267 N270 1.384 . S
C268 H259 0.929 . S
C268 C260 1.378 . S
C268 C263 1.350 1_565 S
C269 H256 0.929 . S
C269 C261 1.433 . S
C269 N271 1.384 . S
N270 C266 1.427 1_565 S
N270 C267 1.384 . S
N271 C263 1.427 . S
N271 C269 1.384 . S
H272 C278 0.930 1_655 S
H273 C282 0.930 . S
H274 C287 0.929 . S
H275 C285 0.929 1_655 S
H276 C280 0.929 . S
H277 C286 0.929 1_655 S
C278 H272 0.930 1_455 S
C278 C279 1.367 . S
C278 C286 1.378 . S
C279 C278 1.367 . S
C279 C287 1.433 . S
C280 H276 0.929 . S
C280 C282 1.378 . S
C280 C284 1.350 . S
C281 C284 1.463 . S
C281 C286 1.350 . S
C281 N289 1.427 . S
C282 H273 0.930 . S
C282 C280 1.378 . S
C282 C283 1.367 . S
C283 C282 1.367 . S
C283 C285 1.433 . S
C284 C280 1.350 . S
C284 C281 1.463 . S
C284 N288 1.427 . S
C285 H275 0.929 1_455 S
C285 C283 1.433 . S
C285 N288 1.384 . S
C286 H277 0.929 1_455 S
C286 C278 1.378 . S
C286 C281 1.350 . S
C287 H274 0.929 . S
C287 C279 1.433 . S
C287 N289 1.384 . S
N288 C284 1.427 . S
N288 C285 1.384 . S
N289 C281 1.427 . S
N289 C287 1.384 . S
H290 C296 0.930 . S
H291 C300 0.930 . S
H292 C305 0.929 . S
H293 C303 0.929 . S
H294 C298 0.929 . S
H295 C304 0.929 . S
C296 H290 0.930 . S
C296 C297 1.367 . S
C296 C304 1.378 . S
C297 C296 1.367 . S
C297 C305 1.433 1_545 S
C298 H294 0.929 . S
C298 C300 1.378 . S
C298 C302 1.350 1_565 S
C299 C302 1.463 . S
C299 C304 1.350 . S
C299 N307 1.427 1_545 S
C300 H291 0.930 . S
C300 C298 1.378 . S
C300 C301 1.367 1_565 S
C301 C300 1.367 1_545 S
C301 C303 1.433 . S
C302 C298 1.350 1_545 S
C302 C299 1.463 . S
C302 N306 1.427 . S
C303 H293 0.929 . S
C303 C301 1.433 . S
C303 N306 1.384 . S
C304 H295 0.929 . S
C304 C296 1.378 . S
C304 C299 1.350 . S
C305 H292 0.929 . S
C305 C297 1.433 1_565 S
C305 N307 1.384 . S
N306 C302 1.427 . S
N306 C303 1.384 . S
N307 C299 1.427 1_565 S
N307 C305 1.384 . S
H308 C314 0.930 . S
H309 C318 0.930 . S
H310 C323 0.929 . S
H311 C321 0.929 . S
H312 C316 0.929 . S
H313 C322 0.929 . S
C314 H308 0.930 . S
C314 C315 1.367 . S
C314 C322 1.378 . S
C315 C314 1.367 . S
C315 C323 1.433 1_455 S
C316 H312 0.929 . S
C316 C318 1.378 . S
C316 C320 1.350 1_655 S
C317 C320 1.463 . S
C317 C322 1.350 . S
C317 N325 1.427 1_455 S
C318 H309 0.930 . S
C318 C316 1.378 . S
C318 C319 1.367 1_655 S
C319 C318 1.367 1_455 S
C319 C321 1.433 . S
C320 C316 1.350 1_455 S
C320 C317 1.463 . S
C320 N324 1.427 . S
C321 H311 0.929 . S
C321 C319 1.433 . S
C321 N324 1.384 . S
C322 H313 0.929 . S
C322 C314 1.378 . S
C322 C317 1.350 . S
C323 H310 0.929 . S
C323 C315 1.433 1_655 S
C323 N325 1.384 . S
N324 C320 1.427 . S
N324 C321 1.384 . S
N325 C317 1.427 1_655 S
N325 C323 1.384 . S
H326 C332 0.930 . S
H327 C336 0.930 . S
H328 C341 0.929 . S
H329 C339 0.929 . S
H330 C334 0.929 . S
H331 C340 0.929 . S
C332 H326 0.930 . S
C332 C333 1.367 . S
C332 C340 1.378 . S
C333 C332 1.367 . S
C333 C341 1.433 1_545 S
C334 H330 0.929 . S
C334 C336 1.378 . S
C334 C338 1.350 1_565 S
C335 C338 1.463 . S
C335 C340 1.350 . S
C335 N343 1.427 1_545 S
C336 H327 0.930 . S
C336 C334 1.378 . S
C336 C337 1.367 1_565 S
C337 C336 1.367 1_545 S
C337 C339 1.433 . S
C338 C334 1.350 1_545 S
C338 C335 1.463 . S
C338 N342 1.427 . S
C339 H329 0.929 . S
C339 C337 1.433 . S
C339 N342 1.384 . S
C340 H331 0.929 . S
C340 C332 1.378 . S
C340 C335 1.350 . S
C341 H328 0.929 . S
C341 C333 1.433 1_565 S
C341 N343 1.384 . S
N342 C338 1.427 . S
N342 C339 1.384 . S
N343 C335 1.427 1_565 S
N343 C341 1.384 . S
H344 C350 0.930 . S
H345 C354 0.930 . S
H346 C359 0.929 . S
H347 C357 0.929 . S
H348 C352 0.929 . S
H349 C358 0.929 . S
C350 H344 0.930 . S
C350 C351 1.367 . S
C350 C358 1.378 . S
C351 C350 1.367 . S
C351 C359 1.433 . S
C352 H348 0.929 . S
C352 C354 1.378 . S
C352 C356 1.350 . S
C353 C356 1.463 . S
C353 C358 1.350 . S
C353 N361 1.427 . S
C354 H345 0.930 . S
C354 C352 1.378 . S
C354 C355 1.367 . S
C355 C354 1.367 . S
C355 C357 1.433 . S
C356 C352 1.350 . S
C356 C353 1.463 . S
C356 N360 1.427 . S
C357 H347 0.929 . S
C357 C355 1.433 . S
C357 N360 1.384 . S
C358 H349 0.929 . S
C358 C350 1.378 . S
C358 C353 1.350 . S
C359 H346 0.929 . S
C359 C351 1.433 . S
C359 N361 1.384 . S
N360 C356 1.427 . S
N360 C357 1.384 . S
N361 C353 1.427 . S
N361 C359 1.384 . S
C229 C91 1.561 . S
C225 C17 1.471 . S
C247 C179 1.547 . S
C243 C40 1.471 . S
C265 C99 1.562 . S
C261 C9 1.479 . S
C283 C187 1.554 . S
C279 C33 1.458 . S
C301 C159 1.549 . S
C297 C19 1.480 . S
C319 C62 1.560 . S
C315 C38 1.459 . S
C337 C150 1.553 . S
C333 C12 1.441 . S
C351 C30 1.488 . S
C355 C71 1.563 . S
