# Generated by pormake.
# Topology pyr, (3,6)-cn, num edge types: 1
# Building blocks:
#     Node 0, Type 0, BuildingBlock: QEWDON_clean_linker_0, # of connection points: 3
#     Node 1, Type 0, BuildingBlock: QEWDON_clean_linker_0, # of connection points: 3
#     Node 2, Type 0, BuildingBlock: QEWDON_clean_linker_0, # of connection points: 3
#     Node 3, Type 0, BuildingBlock: QEWDON_clean_linker_0, # of connection points: 3
#     Node 4, Type 0, BuildingBlock: QEWDON_clean_linker_0, # of connection points: 3
#     Node 5, Type 0, BuildingBlock: QEWDON_clean_linker_0, # of connection points: 3
#     Node 6, Type 0, BuildingBlock: QEWDON_clean_linker_0, # of connection points: 3
#     Node 7, Type 0, BuildingBlock: QEWDON_clean_linker_0, # of connection points: 3
#     Node 8, Type 1, BuildingBlock: BETDIP_clean_sbu_0, # of connection points: 6
#     Node 9, Type 1, BuildingBlock: BETDIP_clean_sbu_0, # of connection points: 6
#     Node 10, Type 1, BuildingBlock: BETDIP_clean_sbu_0, # of connection points: 6
#     Node 11, Type 1, BuildingBlock: BETDIP_clean_sbu_0, # of connection points: 6
#     Edge 12, Type (0, 1), BuildingBlock: CIFDUS_clean_linker_0, # of connection points: 2
#     Edge 13, Type (0, 1), BuildingBlock: CIFDUS_clean_linker_0, # of connection points: 2
#     Edge 14, Type (0, 1), BuildingBlock: CIFDUS_clean_linker_0, # of connection points: 2
#     Edge 15, Type (0, 1), BuildingBlock: CIFDUS_clean_linker_0, # of connection points: 2
#     Edge 16, Type (0, 1), BuildingBlock: CIFDUS_clean_linker_0, # of connection points: 2
#     Edge 17, Type (0, 1), BuildingBlock: CIFDUS_clean_linker_0, # of connection points: 2
#     Edge 18, Type (0, 1), BuildingBlock: CIFDUS_clean_linker_0, # of connection points: 2
#     Edge 19, Type (0, 1), BuildingBlock: CIFDUS_clean_linker_0, # of connection points: 2
#     Edge 20, Type (0, 1), BuildingBlock: CIFDUS_clean_linker_0, # of connection points: 2
#     Edge 21, Type (0, 1), BuildingBlock: CIFDUS_clean_linker_0, # of connection points: 2
#     Edge 22, Type (0, 1), BuildingBlock: CIFDUS_clean_linker_0, # of connection points: 2
#     Edge 23, Type (0, 1), BuildingBlock: CIFDUS_clean_linker_0, # of connection points: 2
#     Edge 24, Type (0, 1), BuildingBlock: CIFDUS_clean_linker_0, # of connection points: 2
#     Edge 25, Type (0, 1), BuildingBlock: CIFDUS_clean_linker_0, # of connection points: 2
#     Edge 26, Type (0, 1), BuildingBlock: CIFDUS_clean_linker_0, # of connection points: 2
#     Edge 27, Type (0, 1), BuildingBlock: CIFDUS_clean_linker_0, # of connection points: 2
#     Edge 28, Type (0, 1), BuildingBlock: CIFDUS_clean_linker_0, # of connection points: 2
#     Edge 29, Type (0, 1), BuildingBlock: CIFDUS_clean_linker_0, # of connection points: 2
#     Edge 30, Type (0, 1), BuildingBlock: CIFDUS_clean_linker_0, # of connection points: 2
#     Edge 31, Type (0, 1), BuildingBlock: CIFDUS_clean_linker_0, # of connection points: 2
#     Edge 32, Type (0, 1), BuildingBlock: CIFDUS_clean_linker_0, # of connection points: 2
#     Edge 33, Type (0, 1), BuildingBlock: CIFDUS_clean_linker_0, # of connection points: 2
#     Edge 34, Type (0, 1), BuildingBlock: CIFDUS_clean_linker_0, # of connection points: 2
#     Edge 35, Type (0, 1), BuildingBlock: CIFDUS_clean_linker_0, # of connection points: 2
# Relax obj value: 0.185
# Max RMSD: 0.272
# Mean RMSD: 0.185
data_MOF--net-pyr--node1-BETDIP_clean_sbu_0--node2-QEWDON_clean_linker_0--edge1-CIFDUS_clean_linker_0
_symmetry_space_group_name_H-M    P1
_symmetry_Int_Tables_number       1
_symmetry_cell_setting            triclinic
loop_
_symmetry_equiv_pos_as_xyz
'x, y, z'
_cell_length_a     31.689424
_cell_length_b     35.954212
_cell_length_c     36.625661
_cell_angle_alpha  88.692178
_cell_angle_beta   93.151538
_cell_angle_gamma 116.05227
loop_
_atom_site_label
_atom_site_type_symbol
_atom_site_fract_x
_atom_site_fract_y
_atom_site_fract_z
_atom_type_partial_charge
H0 H 0.44674 0.34319 0.20356 0.0
C1 C 0.42972 0.33376 0.22932 0.0
C2 C 0.42515 0.29665 0.24573 0.0
C3 C 0.41107 0.35809 0.24524 0.0
H4 H 0.39996 0.25616 0.29197 0.0
C5 C 0.40291 0.28452 0.2789 0.0
C6 C 0.38479 0.30888 0.29551 0.0
C7 C 0.38803 0.34523 0.27817 0.0
C8 C 0.4162 0.39705 0.22735 0.0
H9 H 0.37423 0.36424 0.29091 0.0
C10 C 0.37666 0.40443 0.21931 0.0
C11 C 0.38119 0.44036 0.20028 0.0
C12 C 0.46059 0.42629 0.2169 0.0
H13 H 0.49155 0.42126 0.22293 0.0
C14 C 0.46543 0.46234 0.1987 0.0
H15 H 0.34222 0.38143 0.22658 0.0
C16 C 0.42604 0.46935 0.19029 0.0
H17 H 0.43069 0.49757 0.17612 0.0
H18 H 0.49979 0.48483 0.19089 0.0
H19 H 0.16899 0.84566 0.76707 0.0
C20 C 0.19003 0.83267 0.75492 0.0
C21 C 0.23177 0.83641 0.77308 0.0
C22 C 0.17362 0.80989 0.72236 0.0
H23 H 0.2913 0.82301 0.77102 0.0
C24 C 0.25815 0.8187 0.75755 0.0
C25 C 0.24235 0.79577 0.72493 0.0
C26 C 0.19967 0.79128 0.70753 0.0
C27 C 0.12745 0.80329 0.7056 0.0
H28 H 0.18637 0.77297 0.68277 0.0
C29 C 0.11835 0.83727 0.69607 0.0
C30 C 0.07317 0.83129 0.68287 0.0
C31 C 0.09146 0.76299 0.70132 0.0
H32 H 0.09779 0.73647 0.70876 0.0
C33 C 0.04651 0.75669 0.68873 0.0
H34 H 0.14688 0.86816 0.6985 0.0
C35 C 0.0372 0.79043 0.67996 0.0
H36 H 1.00158 0.7843 0.67118 0.0
H37 H 0.01859 0.72553 0.68619 0.0
H38 H 0.69786 0.47371 0.92171 0.0
C39 C 0.68421 0.44065 0.92619 0.0
C40 C 0.70586 0.42551 0.95352 0.0
C41 C 0.64216 0.41329 0.90734 0.0
H42 H 0.70321 0.3716 0.98178 0.0
C43 C 0.68607 0.38285 0.96093 0.0
C44 C 0.64379 0.35505 0.94324 0.0
C45 C 0.62269 0.37063 0.91598 0.0
C46 C 0.61178 0.4291 0.88596 0.0
H47 H 0.58897 0.35008 0.90318 0.0
C48 C 0.62325 0.44988 0.85176 0.0
C49 C 0.59093 0.46198 0.83246 0.0
C50 C 0.56852 0.42121 0.90043 0.0
H51 H 0.55896 0.40565 0.92651 0.0
C52 C 0.5368 0.43259 0.88157 0.0
H53 H 0.65656 0.45627 0.84034 0.0
C54 C 0.54757 0.45234 0.84794 0.0
H55 H 0.52123 0.45962 0.83376 0.0
H56 H 0.50335 0.4257 0.89295 0.0
H57 H 0.95329 0.8369 0.38855 0.0
C58 C 0.92357 0.81334 0.40194 0.0
C59 C 0.91146 0.82262 0.4358 0.0
C60 C 0.89556 0.77553 0.38354 0.0
H61 H 0.86169 0.80112 0.47741 0.0
C62 C 0.87151 0.79288 0.45209 0.0
C63 C 0.84399 0.75359 0.436 0.0
C64 C 0.85653 0.74539 0.40131 0.0
C65 C 0.90155 0.77303 0.3432 0.0
H66 H 0.83511 0.7165 0.38729 0.0
C67 C 0.91025 0.74186 0.32601 0.0
C68 C 0.91773 0.74385 0.28755 0.0
C69 C 0.8995 0.80492 0.3214 0.0
H70 H 0.89229 0.82874 0.3333 0.0
C71 C 0.90724 0.80724 0.28434 0.0
H72 H 0.9116 0.71687 0.34231 0.0
C73 C 0.9168 0.77762 0.26776 0.0
H74 H 0.92436 0.78192 0.23909 0.0
H75 H 0.90638 0.83261 0.26833 0.0
H76 H 0.69253 0.80037 0.99324 0.0
C77 C 0.70455 0.81888 0.96882 0.0
C78 C 0.74739 0.82479 0.95484 0.0
C79 C 0.67741 0.8371 0.95172 0.0
H80 H 0.79529 0.85275 0.91183 0.0
C81 C 0.76276 0.84883 0.92328 0.0
C82 C 0.73592 0.86689 0.90567 0.0
C83 C 0.69362 0.86148 0.92033 0.0
C84 C 0.63139 0.82944 0.96593 0.0
H85 H 0.6723 0.87467 0.90635 0.0
C86 C 0.61899 0.86219 0.96967 0.0
C87 C 0.57554 0.85505 0.98359 0.0
C88 C 0.5996 0.78922 0.97584 0.0
H89 H 0.60804 0.76336 0.97283 0.0
C90 C 0.55633 0.78186 0.98931 0.0
H91 H 0.64336 0.89326 0.96202 0.0
C92 C 0.54433 0.81447 0.99329 0.0
H93 H 0.51099 0.80799 1.00468 0.0
H94 H 0.53209 0.75078 0.99693 0.0
H95 H 0.97246 0.35013 0.49949 0.0
C96 C 0.94853 0.34235 0.47574 0.0
C97 C 0.94836 0.31235 0.45178 0.0
C98 C 0.91636 0.35978 0.47027 0.0
H99 H 0.92035 0.28072 0.40064 0.0
C100 C 0.91948 0.30289 0.41981 0.0
C101 C 0.88777 0.31994 0.41316 0.0
C102 C 0.88585 0.34778 0.4385 0.0
C103 C 0.91207 0.38747 0.49883 0.0
H104 H 0.85869 0.358 0.43374 0.0
C105 C 0.88699 0.41123 0.49096 0.0
C106 C 0.87904 0.43375 0.51845 0.0
C107 C 0.93071 0.38881 0.53509 0.0
H108 H 0.94848 0.37034 0.54395 0.0
C109 C 0.92535 0.41328 0.56176 0.0
H110 H 0.87263 0.41227 0.46374 0.0
C111 C 0.89945 0.43544 0.55365 0.0
H112 H 0.89356 0.45233 0.57535 0.0
H113 H 0.93988 0.41379 0.5893 0.0
H114 H 0.4517 0.82384 0.28471 0.0
C115 C 0.41683 0.80309 0.27394 0.0
C116 C 0.39264 0.8184 0.24909 0.0
C117 C 0.39817 0.76066 0.28328 0.0
H118 H 0.3292 0.80121 0.21489 0.0
C119 C 0.34864 0.79028 0.23396 0.0
C120 C 0.32932 0.74783 0.24254 0.0
C121 C 0.3538 0.73323 0.26784 0.0
C122 C 0.42958 0.74496 0.30328 0.0
H123 H 0.34002 0.70035 0.27338 0.0
C124 C 0.41807 0.72191 0.33634 0.0
C125 C 0.45146 0.71089 0.35508 0.0
C126 C 0.47346 0.75489 0.28882 0.0
H127 H 0.48298 0.77191 0.2634 0.0
C128 C 0.50562 0.74323 0.30672 0.0
H129 H 0.38448 0.71402 0.34794 0.0
C130 C 0.49494 0.72173 0.33958 0.0
H131 H 0.52084 0.71324 0.35293 0.0
H132 H 0.53922 0.75117 0.29515 0.0
H133 H 0.23155 0.46585 0.78949 0.0
C134 C 0.20744 0.43785 0.77526 0.0
C135 C 0.21768 0.4292 0.74002 0.0
C136 C 0.16824 0.40867 0.79355 0.0
H137 H 0.19329 0.38405 0.69603 0.0
C138 C 0.18719 0.39105 0.72329 0.0
C139 C 0.14869 0.36127 0.74103 0.0
C140 C 0.13893 0.37074 0.77575 0.0
C141 C 0.16369 0.41215 0.83389 0.0
H142 H 0.10999 0.3474 0.79003 0.0
C143 C 0.15351 0.44277 0.85042 0.0
C144 C 0.14743 0.442 0.88899 0.0
C145 C 0.16839 0.38187 0.85632 0.0
H146 H 0.17648 0.3584 0.84475 0.0
C147 C 0.16219 0.38079 0.89361 0.0
H148 H 0.14997 0.46641 0.83349 0.0
C149 C 0.15137 0.40998 0.90966 0.0
H150 H 0.14512 0.40667 0.93857 0.0
H151 H 0.1652 0.35669 0.91023 0.0
Tb152 Tb 0.98044 0.07189 0.59902 0.0
Tb153 Tb 0.07954 0.10993 0.58107 0.0
C154 C 0.89752 0.02353 0.6142 0.0
C155 C 0.87495 1.00258 0.64764 0.0
C156 C 0.83942 0.96189 0.64545 0.0
C157 C 0.81933 0.94062 0.67715 0.0
C158 C 0.83431 0.95985 0.71155 0.0
C159 C 0.86943 1.00089 0.71361 0.0
C160 C 0.88983 0.02201 0.68193 0.0
C161 C 0.03301 0.14148 0.63583 0.0
C162 C 0.05115 0.04074 0.63781 0.0
C163 C 0.1624 0.15949 0.56689 0.0
C164 C 0.18621 0.18218 0.53419 0.0
C165 C 0.17674 0.21383 0.51816 0.0
C166 C 0.19921 0.2341 0.48673 0.0
C167 C 0.23143 0.22304 0.47064 0.0
C168 C 0.24076 0.1914 0.48688 0.0
C169 C 0.21869 0.17148 0.51838 0.0
C170 C 0.02735 0.04009 0.54451 0.0
C171 C 1.00719 0.13604 0.53753 0.0
O172 O 0.92683 1.01115 0.6013 0.0
O173 O 0.91391 0.0638 0.61361 0.0
O174 O 0.04501 0.11341 0.62839 0.0
O175 O 0.98949 0.12925 0.62525 0.0
O176 O 1.00753 0.03186 0.62657 0.0
O177 O 0.08634 0.07623 0.62931 0.0
O178 O 0.13308 0.17082 0.58144 0.0
O179 O 0.14612 0.11927 0.56549 0.0
O180 O 0.01523 0.068 0.55207 0.0
O181 O 0.07129 0.05302 0.55417 0.0
O182 O 0.05113 0.14764 0.54986 0.0
O183 O 0.97326 0.10088 0.54824 0.0
H184 H 0.82767 0.94637 0.61923 0.0
H185 H 0.79213 0.90909 0.6748 0.0
H186 H 0.88204 1.01623 0.73981 0.0
H187 H 0.91768 0.05326 0.68431 0.0
H188 H 0.1519 0.22288 0.52974 0.0
H189 H 0.19158 0.25862 0.47522 0.0
H190 H 0.26457 0.18141 0.47491 0.0
H191 H 0.22661 0.14721 0.53018 0.0
Tb192 Tb 0.5626 0.1117 0.11923 0.0
Tb193 Tb 0.45888 0.06683 0.07882 0.0
C194 C 0.64528 0.16218 0.13728 0.0
C195 C 0.67109 0.17734 0.17239 0.0
C196 C 0.71444 0.21255 0.1735 0.0
C197 C 0.73888 0.22755 0.20697 0.0
C198 C 0.72027 0.2074 0.23977 0.0
C199 C 0.67651 0.17229 0.23847 0.0
C200 C 0.65202 0.15747 0.20503 0.0
C201 C 0.50501 0.04215 0.15296 0.0
C202 C 0.48007 0.13046 0.14396 0.0
C203 C 0.37557 1.01869 0.06021 0.0
C204 C 0.3497 1.00368 1.02505 0.0
C205 C 0.31305 0.96356 1.02276 0.0
C206 C 0.29199 0.9467 0.98881 0.0
C207 C 0.30727 0.96979 0.95665 0.0
C208 C 0.34264 1.01068 0.95918 0.0
C209 C 0.36393 0.02743 0.99315 0.0
C210 C 0.51759 0.13562 0.04457 0.0
C211 C 0.54074 0.04587 0.05596 0.0
O212 O 0.61133 0.17299 0.12975 0.0
O213 O 0.63279 0.12305 0.13001 0.0
O214 O 0.49722 0.06032 0.12564 0.0
O215 O 0.54804 0.06559 0.16427 0.0
O216 O 0.52609 0.14366 0.14237 0.0
O217 O 0.44844 0.09735 0.12609 0.0
O218 O 0.40817 1.00628 0.06819 0.0
O219 O 0.38964 0.05807 0.06746 0.0
O220 O 0.52421 0.11809 0.07269 0.0
O221 O 0.47475 0.11229 1.03291 0.0
O222 O 0.49474 0.03348 0.05709 0.0
O223 O 0.57268 0.07954 0.07302 0.0
H224 H 0.72941 0.22835 0.14849 0.0
H225 H 0.77273 0.25442 0.20715 0.0
H226 H 0.6611 0.15644 0.26333 0.0
H227 H 0.61822 0.13055 0.20464 0.0
H228 H 0.30182 0.94478 0.04711 0.0
H229 H 0.26454 0.9152 0.98757 0.0
H230 H 0.35539 0.02895 0.93478 0.0
H231 H 0.39253 0.05837 0.99434 0.0
Tb232 Tb 0.5432 0.62614 0.61025 0.0
Tb233 Tb 0.52576 0.55201 0.56879 0.0
C234 C 0.53625 0.68739 0.63575 0.0
C235 C 0.49808 0.69424 0.65072 0.0
C236 C 0.45238 0.67637 0.63427 0.0
C237 C 0.41707 0.6846 0.64799 0.0
C238 C 0.4267 0.71033 0.67865 0.0
C239 C 0.47213 0.72733 0.69557 0.0
C240 C 0.50756 0.71947 0.6816 0.0
C241 C 0.57807 0.57883 0.64501 0.0
C242 C 0.44567 0.54388 0.61851 0.0
C243 C 0.53316 0.49173 0.54168 0.0
C244 C 0.57388 0.48558 0.53127 0.0
C245 C 0.61531 0.50027 0.55373 0.0
C246 C 0.65333 0.49341 0.54426 0.0
C247 C 0.65113 0.47226 0.51183 0.0
C248 C 0.61 0.45863 0.48885 0.0
C249 C 0.57167 0.46514 0.49858 0.0
C250 C 0.49195 0.60056 0.53565 0.0
C251 C 0.62442 0.63218 0.5627 0.0
O252 O 0.53167 0.67858 0.60087 0.0
O253 O 0.55125 0.66433 0.65531 0.0
O254 O 0.53949 0.56702 0.62624 0.0
O255 O 0.59839 0.61899 0.64331 0.0
O256 O 0.46928 0.58456 0.62334 0.0
O257 O 0.46264 0.52366 0.59896 0.0
O258 O 0.5302 0.49603 0.57669 0.0
O259 O 0.52396 0.51831 0.52204 0.0
O260 O 0.53043 0.61121 0.5538 0.0
O261 O 0.47112 0.56038 0.53444 0.0
O262 O 0.60039 0.5916 0.55874 0.0
O263 O 0.60752 0.65387 0.58044 0.0
H264 H 0.44402 0.65636 0.61061 0.0
H265 H 0.38221 0.67079 0.63471 0.0
H266 H 0.48053 0.74752 0.7191 0.0
H267 H 0.54254 0.73344 0.69469 0.0
H268 H 0.61815 0.51656 0.57897 0.0
H269 H 0.68392 0.50371 0.56302 0.0
H270 H 0.6073 0.44278 0.46342 0.0
H271 H 0.5402 0.45402 0.48069 0.0
Tb272 Tb 0.03483 0.62506 0.0584 0.0
Tb273 Tb 0.02396 0.56035 0.11309 0.0
C274 C 0.0203 0.67363 1.01477 0.0
C275 C 0.99067 0.69597 1.01351 0.0
C276 C 0.94977 0.68152 0.99045 0.0
C277 C 0.92168 0.70248 0.98828 0.0
C278 C 0.93411 0.73862 1.00885 0.0
C279 C 0.97499 0.75313 1.03199 0.0
C280 C 1.003 0.73197 0.03437 0.0
C281 C 0.11284 0.63947 0.09778 0.0
C282 C 0.99003 0.62495 0.13583 0.0
C283 C 0.03729 0.51099 0.15667 0.0
C284 C 0.07507 0.49806 0.16269 0.0
C285 C 0.12004 0.52264 0.1502 0.0
C286 C 0.15652 0.51135 0.15768 0.0
C287 C 0.14863 0.47514 0.17762 0.0
C288 C 0.10317 0.45021 0.18942 0.0
C289 C 0.06671 0.46164 0.18203 0.0
C290 C 0.94755 0.54573 0.0705 0.0
C291 C 0.07082 0.56164 0.03686 0.0
O292 O 0.99783 0.63328 1.01227 0.0
O293 O 0.0555 0.68566 0.03915 0.0
O294 O 0.0718 0.6244 0.10938 0.0
O295 O 0.11105 0.64903 0.06357 0.0
O296 O 0.99356 0.63572 0.10071 0.0
O297 O 1.00429 0.59751 0.14851 0.0
O298 O 0.04902 0.54972 0.16433 0.0
O299 O 0.01243 0.49939 0.12579 0.0
O300 O 0.98949 0.56121 0.06165 0.0
O301 O 0.94666 0.53503 0.10461 0.0
O302 O 0.06965 0.55321 0.0725 0.0
O303 O 0.05328 0.58659 1.02333 0.0
H304 H 0.93965 0.65413 0.97378 0.0
H305 H 0.89084 0.69098 0.96971 0.0
H306 H 0.98528 0.78084 0.04824 0.0
H307 H 0.03437 0.74401 0.05235 0.0
H308 H 0.12717 0.55098 0.13526 0.0
H309 H 0.19118 0.53157 0.14861 0.0
H310 H 0.09576 0.42185 0.20437 0.0
H311 H 0.03211 0.44228 0.19173 0.0
H312 H 0.29879 0.29909 0.31477 0.0
H313 H 0.4243 0.29095 0.35666 0.0
H314 H 0.38906 0.26641 0.41541 0.0
H315 H 0.32182 0.24478 0.45388 0.0
H316 H 0.19374 0.24793 0.41109 0.0
H317 H 0.23111 0.27799 0.35413 0.0
C318 C 0.31841 0.29229 0.33697 0.0
C319 C 0.36389 0.29658 0.33153 0.0
C320 C 0.29756 0.27742 0.37048 0.0
C321 C 0.38903 0.28746 0.36026 0.0
C322 C 0.36897 0.27353 0.39381 0.0
C323 C 0.30183 0.25168 0.43203 0.0
C324 C 0.25487 0.24373 0.43679 0.0
C325 C 0.32303 0.26782 0.39903 0.0
C326 C 0.23007 0.25403 0.40843 0.0
C327 C 0.25129 0.27093 0.37568 0.0
H328 H 0.23594 0.91023 0.7942 0.0
H329 H 0.25993 0.80674 0.83358 0.0
H330 H 0.28399 0.83845 0.89399 0.0
H331 H 0.29926 0.89571 0.93535 0.0
H332 H 0.27701 1.00022 0.89679 0.0
H333 H 0.25102 0.968 0.83626 0.0
C334 C 0.24623 0.89465 0.81613 0.0
C335 C 0.24644 0.85637 0.80947 0.0
C336 C 0.26021 0.91315 0.85085 0.0
C337 C 0.26017 0.83654 0.83795 0.0
C338 C 0.27365 0.8545 0.87253 0.0
C339 C 0.28808 0.91115 0.91382 0.0
C340 C 0.28951 0.94999 0.92049 0.0
C341 C 0.27387 0.89277 0.87924 0.0
C342 C 0.27612 0.97023 0.89217 0.0
C343 C 0.26127 0.95182 0.85766 0.0
H344 H 0.57025 0.5251 0.8105 0.0
H345 H 0.63087 0.44788 0.77179 0.0
H346 H 0.63298 0.47688 0.71004 0.0
H347 H 0.61246 0.52188 0.6657 0.0
H348 H 0.54725 0.59458 0.70649 0.0
H349 H 0.55052 0.56867 0.76811 0.0
C350 C 0.58384 0.5143 0.78863 0.0
C351 C 0.59981 0.48377 0.79603 0.0
C352 C 0.58326 0.52991 0.75313 0.0
C353 C 0.61852 0.47139 0.76724 0.0
C354 C 0.61918 0.48767 0.73172 0.0
C355 C 0.59888 0.53177 0.68816 0.0
C356 C 0.57944 0.5601 0.68148 0.0
C357 C 0.60072 0.51642 0.72407 0.0
C358 C 0.56224 0.57283 0.71088 0.0
C359 C 0.56425 0.55812 0.74619 0.0
H360 H 0.88983 0.71617 0.21691 0.0
H361 H 0.97038 0.70184 0.31036 0.0
H362 H 0.99734 0.66156 0.2727 0.0
H363 H 1.00363 0.63543 0.21119 0.0
H364 H 0.92931 0.65816 0.11764 0.0
H365 H 0.89603 0.69121 0.15697 0.0
C366 C 0.91372 0.70477 0.22933 0.0
C367 C 0.92852 0.71318 0.26676 0.0
C368 C 0.93098 0.68348 0.20705 0.0
C369 C 0.95798 0.69615 0.28197 0.0
C370 C 0.97394 0.67342 0.26017 0.0
C371 C 0.97991 0.64739 0.19945 0.0
C372 C 0.96912 0.64407 0.16115 0.0
C373 C 0.96157 0.66766 0.22239 0.0
C374 C 0.93859 0.66023 0.14669 0.0
C375 C 0.91934 0.67912 0.16929 0.0
H376 H 0.37828 0.21455 0.23108 0.0
H377 H 0.51239 0.32031 0.22046 0.0
H378 H 0.54197 0.27747 0.18968 0.0
H379 H 0.52887 0.21068 0.16432 0.0
H380 H 0.3935 0.10537 0.17199 0.0
H381 H 0.36521 0.14726 0.20567 0.0
C382 C 0.41409 0.228 0.22227 0.0
C383 C 0.44324 0.27038 0.22801 0.0
C384 C 0.43052 0.20335 0.2041 0.0
C385 C 0.48934 0.28776 0.21608 0.0
C386 C 0.50624 0.2633 0.19861 0.0
C387 C 0.49331 0.19672 0.17368 0.0
C388 C 0.46339 0.15492 0.16585 0.0
C389 C 0.47704 0.22114 0.19228 0.0
C390 C 0.4172 0.13751 0.17765 0.0
C391 C 0.40102 0.16142 0.1969 0.0
H392 H 0.11327 0.91067 0.71113 0.0
H393 H 0.01198 0.8336 0.62806 0.0
H394 H 0.99414 0.89053 0.60994 0.0
H395 H 1.00833 0.96225 0.61577 0.0
H396 H 0.11624 0.0433 0.69209 0.0
H397 H 0.13136 0.98485 0.7142 0.0
C398 C 0.08775 0.90627 0.68872 0.0
C399 C 0.06355 0.86717 0.67155 0.0
C400 C 0.0789 0.93991 0.67715 0.0
C401 C 0.03019 0.86252 0.64281 0.0
C402 C 0.02022 0.89532 0.63203 0.0
C403 C 0.03479 0.96706 0.63762 0.0
C404 C 0.0605 1.00664 0.65295 0.0
C405 C 0.04428 0.934 0.64899 0.0
C406 C 0.09575 1.01287 0.68027 0.0
C407 C 0.10435 0.97952 0.69277 0.0
H408 H 0.79684 0.4773 0.93745 0.0
H409 H 0.70322 0.43451 1.02618 0.0
H410 H 0.76896 0.4697 0.07038 0.0
H411 H 0.85427 0.50769 0.08449 0.0
H412 H 0.94864 0.54957 0.9961 0.0
H413 H 0.88215 0.52029 0.95149 0.0
C414 C 0.7909 0.47658 0.96639 0.0
C415 C 0.74525 0.45344 0.97854 0.0
C416 C 0.82926 0.49635 0.99189 0.0
C417 C 0.73806 0.45223 1.0162 0.0
C418 C 0.77569 0.47215 0.04152 0.0
C419 C 0.86018 0.5107 0.05546 0.0
C420 C 0.90643 0.53064 0.04375 0.0
C421 C 0.82164 0.49347 1.02982 0.0
C422 C 0.91345 0.53444 1.00596 0.0
C423 C 0.87536 0.51757 0.98034 0.0
H424 H 0.82847 0.74444 0.51007 0.0
H425 H 0.7604 0.69291 0.40532 0.0
H426 H 0.68911 0.64811 0.43568 0.0
H427 H 0.64307 0.62706 0.49165 0.0
H428 H 0.70775 0.68746 0.59389 0.0
H429 H 0.78247 0.72626 0.56465 0.0
C430 C 0.79806 0.72426 0.49333 0.0
C431 C 0.80077 0.72318 0.45486 0.0
C432 C 0.75591 0.70019 0.51071 0.0
C433 C 0.76067 0.69475 0.43477 0.0
C434 C 0.71927 0.66922 0.45216 0.0
C435 C 0.67374 0.64851 0.5075 0.0
C436 C 0.67008 0.65414 0.54501 0.0
C437 C 0.71615 0.67215 0.49004 0.0
C438 C 0.70975 0.68254 0.56508 0.0
C439 C 0.75245 0.7047 0.54833 0.0
H440 H 0.30835 0.42871 0.24256 0.0
H441 H 0.35976 0.46728 0.13482 0.0
H442 H 0.29182 0.48029 0.11801 0.0
H443 H 0.21833 0.48139 0.13403 0.0
H444 H 0.16763 0.44438 0.24221 0.0
H445 H 0.23399 0.42889 0.25831 0.0
C446 C 0.30443 0.4396 0.21531 0.0
C447 C 0.33919 0.44725 0.19007 0.0
C448 C 0.26527 0.44705 0.20581 0.0
C449 C 0.33387 0.46177 0.15496 0.0
C450 C 0.29491 0.46899 0.14524 0.0
C451 C 0.22194 0.47021 0.16123 0.0
C452 C 0.18804 0.46417 0.18686 0.0
C453 C 0.26057 0.46201 0.17052 0.0
C454 C 0.19283 0.44885 0.22175 0.0
C455 C 0.23099 0.44028 0.23111 0.0
H456 H 0.64121 0.32504 1.01308 0.0
H457 H 0.59077 0.28483 0.90222 0.0
H458 H 0.54829 0.21362 0.92355 0.0
H459 H 0.52374 0.16259 0.97421 0.0
H460 H 0.57596 0.2035 0.08413 0.0
H461 H 0.62092 0.27415 0.06254 0.0
C462 C 0.62196 0.30078 0.99323 0.0
C463 C 0.61963 0.31083 0.95586 0.0
C464 C 0.59824 0.25969 1.00558 0.0
C465 C 0.59297 0.27854 0.93113 0.0
C466 C 0.56882 0.23761 0.9433 0.0
C467 C 0.54559 0.18696 0.99327 0.0
C468 C 0.54785 0.17756 1.03069 0.0
C469 C 0.57092 0.22782 0.98051 0.0
C470 C 0.57553 0.20947 0.05515 0.0
C471 C 0.60053 0.25009 0.0428 0.0
H472 H 0.88007 0.87592 0.46345 0.0
H473 H 1.00661 0.86209 0.44928 0.0
H474 H 0.05312 0.92747 0.48164 0.0
H475 H 0.05792 0.98803 0.51521 0.0
H476 H 0.93247 1.00441 0.5266 0.0
H477 H 0.88553 0.93874 0.49446 0.0
C478 C 0.91785 0.88724 0.46746 0.0
C479 C 0.93974 0.86383 0.45402 0.0
C480 C 0.94457 0.92534 0.48577 0.0
C481 C 0.98883 0.8794 0.45908 0.0
C482 C 0.01544 0.91676 0.47776 0.0
C483 C 0.0203 0.97733 0.51056 0.0
C484 C 0.99872 1.00109 0.52361 0.0
C485 C 0.99372 0.93991 0.49139 0.0
C486 C 0.94998 0.98677 0.51708 0.0
C487 C 0.92314 0.94917 0.49864 0.0
H488 H 0.28859 0.75741 0.76231 0.0
H489 H 0.25975 0.79089 0.65308 0.0
H490 H 0.31153 0.7643 0.62878 0.0
H491 H 0.36969 0.73641 0.63925 0.0
H492 H 0.40193 0.70733 0.74904 0.0
H493 H 0.34486 0.72825 0.77261 0.0
C494 C 0.29382 0.7592 0.73319 0.0
C495 C 0.27067 0.77658 0.70963 0.0
C496 C 0.3246 0.74499 0.71959 0.0
C497 C 0.27685 0.77746 0.67184 0.0
C498 C 0.30677 0.76257 0.65796 0.0
C499 C 0.36369 0.7342 0.66826 0.0
C500 C 0.38995 0.72048 0.69244 0.0
C501 C 0.33141 0.74691 0.68165 0.0
C502 C 0.38238 0.71817 0.73001 0.0
C503 C 0.34972 0.73001 0.74345 0.0
H504 H 0.76298 0.84075 0.84672 0.0
H505 H 0.74246 0.94316 0.88672 0.0
H506 H 0.77063 0.98109 0.82976 0.0
H507 H 0.80291 0.98544 0.76912 0.0
H508 H 0.82232 0.88219 0.72953 0.0
H509 H 0.79273 0.84414 0.78585 0.0
C510 C 0.7649 0.87147 0.84297 0.0
C511 C 0.75119 0.88941 0.87087 0.0
C512 C 0.78087 0.89282 0.81029 0.0
C513 C 0.75283 0.92881 0.8655 0.0
C514 C 0.76907 0.95049 0.83306 0.0
C515 C 0.80068 0.95464 0.77295 0.0
C516 C 0.81478 0.93661 0.74531 0.0
C517 C 0.78349 0.93289 0.80537 0.0
C518 C 0.81123 0.8965 0.75031 0.0
C519 C 0.79456 0.87484 0.78254 0.0
H520 H 0.83417 0.241 0.39153 0.0
H521 H 0.86625 0.36727 0.36294 0.0
H522 H 0.81562 0.34351 0.30699 0.0
H523 H 0.76552 0.28674 0.26486 0.0
H524 H 0.73515 0.16079 0.29385 0.0
H525 H 0.78195 0.18451 0.3511 0.0
C526 C 0.83012 0.2633 0.37297 0.0
C527 C 0.85431 0.3058 0.38093 0.0
C528 C 0.80145 0.24947 0.34098 0.0
C529 C 0.84793 0.33438 0.35724 0.0
C530 C 0.81925 0.32082 0.32524 0.0
C531 C 0.76929 0.26458 0.28373 0.0
C532 C 0.74711 0.22211 0.27511 0.0
C533 C 0.79643 0.27846 0.31657 0.0
C534 C 0.75158 0.1936 0.30002 0.0
C535 C 0.7785 0.20714 0.33265 0.0
H536 H 0.50512 0.73572 0.41792 0.0
H537 H 0.3813 0.63447 0.37161 0.0
H538 H 0.38019 0.59153 0.42513 0.0
H539 H 0.4206 0.58048 0.48198 0.0
H540 H 0.54554 0.6828 0.52635 0.0
H541 H 0.53997 0.72736 0.47714 0.0
C542 C 0.47721 0.70454 0.41996 0.0
C543 C 0.44331 0.68834 0.39078 0.0
C544 C 0.47749 0.67992 0.45037 0.0
C545 C 0.40747 0.64786 0.3938 0.0
C546 C 0.40723 0.62316 0.42426 0.0
C547 C 0.44614 0.61269 0.48114 0.0
C548 C 0.48369 0.62806 0.50788 0.0
C549 C 0.44296 0.63843 0.45224 0.0
C550 C 0.51636 0.66997 0.50631 0.0
C551 C 0.51329 0.69556 0.47801 0.0
H552 H 0.17631 0.47338 0.95852 0.0
H553 H 0.09011 0.47916 0.86526 0.0
H554 H 0.06128 0.51898 0.90164 0.0
H555 H 0.05521 0.54713 0.96213 0.0
H556 H 0.13605 0.53357 0.05582 0.0
H557 H 0.17075 0.50082 1.01751 0.0
C558 C 0.15082 0.48283 0.9459 0.0
C559 C 0.13501 0.47217 0.90891 0.0
C560 C 0.13271 0.50401 0.96749 0.0
C561 C 0.10336 0.48666 0.89333 0.0
C562 C 0.08635 0.50914 0.9144 0.0
C563 C 0.08068 0.53727 0.97411 0.0
C564 C 0.09283 0.543 1.01213 0.0
C565 C 0.09993 0.51723 0.95182 0.0
C566 C 0.12566 0.52956 1.02696 0.0
C567 C 0.14571 0.51084 1.00494 0.0
H568 H 0.63313 0.9321 1.01006 0.0
H569 H 0.49036 0.85627 0.97036 0.0
H570 H 0.46803 0.91055 0.98615 0.0
H571 H 0.48753 0.97684 1.01563 0.0
H572 H 0.63036 0.05284 0.05539 0.0
H573 H 0.65439 1.00165 0.03394 0.0
C574 C 0.59735 0.92774 1.00412 0.0
C575 C 0.56336 0.88989 0.98947 0.0
C576 C 0.58472 0.9591 1.01323 0.0
C577 C 0.51702 0.88471 0.98235 0.0
C578 C 0.50426 0.91583 0.99117 0.0
C579 C 0.5241 0.9826 1.01923 0.0
C580 C 0.55691 1.01851 0.03753 0.0
C581 C 0.53759 0.95275 1.00737 0.0
C582 C 0.60421 0.02547 0.04154 0.0
C583 C 0.61799 0.99607 1.02945 0.0
H584 H 0.9111 0.22933 0.44661 0.0
H585 H 0.03725 0.33545 0.48362 0.0
H586 H 0.06938 0.28946 0.51014 0.0
H587 H 0.05753 0.21899 0.528 0.0
H588 H 0.92913 0.11403 0.49246 0.0
H589 H 0.9025 0.15986 0.45911 0.0
C590 C 0.94625 0.24258 0.4595 0.0
C591 C 0.97178 0.28578 0.46307 0.0
C592 C 0.96395 0.21612 0.47507 0.0
C593 C 0.01675 0.30228 0.48076 0.0
C594 C 0.03511 0.27601 0.49587 0.0
C595 C 0.02417 0.20617 0.51234 0.0
C596 C 0.99512 0.16326 0.5129 0.0
C597 C 1.00844 0.23285 0.494 0.0
C598 C 0.95188 0.147 0.49272 0.0
C599 C 0.93659 0.17317 0.47369 0.0
H600 H 0.31689 0.73789 0.16952 0.0
H601 H 0.24424 0.69395 0.26896 0.0
H602 H 0.1703 0.65401 0.23319 0.0
H603 H 0.12526 0.63623 0.17283 0.0
H604 H 0.20076 0.68051 0.07427 0.0
H605 H 0.27435 0.7153 0.1103 0.0
C606 C 0.28491 0.71917 0.18333 0.0
C607 C 0.28581 0.71907 0.22174 0.0
C608 C 0.24289 0.69656 0.16264 0.0
C609 C 0.24434 0.69442 0.23938 0.0
C610 C 0.20208 0.67181 0.2189 0.0
C611 C 0.15794 0.65314 0.15935 0.0
C612 C 0.15731 0.65624 0.12085 0.0
C613 C 0.20068 0.6733 0.18042 0.0
C614 C 0.20003 0.67797 0.10379 0.0
C615 C 0.24226 0.69794 0.12438 0.0
H616 H 0.2718 0.40838 0.69681 0.0
H617 H 0.26372 0.51537 0.74052 0.0
H618 H 0.33302 0.56077 0.70722 0.0
H619 H 0.39582 0.5699 0.66404 0.0
H620 H 0.39615 0.46028 0.6181 0.0
H621 H 0.32918 0.41678 0.65262 0.0
C622 C 0.28406 0.44159 0.69863 0.0
C623 C 0.26134 0.45797 0.72098 0.0
C624 C 0.32277 0.46741 0.6785 0.0
C625 C 0.2801 0.50142 0.72384 0.0
C626 C 0.31967 0.52753 0.70446 0.0
C627 C 0.38096 0.53652 0.66135 0.0
C628 C 0.40167 0.5188 0.63819 0.0
C629 C 0.34126 0.51089 0.68139 0.0
C630 C 0.38158 0.47532 0.63537 0.0
C631 C 0.34307 0.45009 0.65534 0.0
H632 H 0.84157 0.85875 0.97034 0.0
H633 H 0.7152 0.7443 0.97655 0.0
H634 H 0.76184 0.70803 0.99707 0.0
H635 H 0.83895 0.70775 1.00787 0.0
H636 H 0.96539 0.82188 0.9999 0.0
H637 H 0.91837 0.85949 0.98578 0.0
C638 C 0.82431 0.82591 0.97641 0.0
C639 C 0.77513 0.80412 0.97162 0.0
C640 C 0.85135 0.80521 0.9877 0.0
C641 C 0.75302 0.76176 0.9802 0.0
C642 C 0.77968 0.74097 0.99166 0.0
C643 C 0.85613 0.7409 1.00319 0.0
C644 C 0.90551 0.76195 1.00455 0.0
C645 C 0.82891 0.76219 0.99466 0.0
C646 C 0.92741 0.80502 0.99916 0.0
C647 C 0.90056 0.82648 0.99084 0.0
H648 H 0.38695 0.85057 0.18102 0.0
H649 H 0.44829 0.88757 0.29021 0.0
H650 H 0.48703 0.95956 0.27041 0.0
H651 H 0.50549 1.01233 0.22159 0.0
H652 H 0.44309 0.97527 0.11325 0.0
H653 H 0.40147 0.90354 0.13342 0.0
C654 C 0.40794 0.87428 0.20085 0.0
C655 C 0.41452 0.86303 0.23723 0.0
C656 C 0.42963 0.91597 0.18944 0.0
C657 C 0.44301 0.8947 0.26195 0.0
C658 C 0.465 0.93612 0.2507 0.0
C659 C 0.48216 0.98857 0.20259 0.0
C660 C 0.47621 0.9994 0.16609 0.0
C661 C 0.45888 0.94713 0.21445 0.0
C662 C 0.44656 0.96821 0.14169 0.0
C663 C 0.42343 0.92697 0.15318 0.0
H664 H 0.18009 0.30787 0.71419 0.0
H665 H 0.05319 0.32087 0.72882 0.0
H666 H 1.00668 0.25452 0.69775 0.0
H667 H 1.00213 0.19348 0.66494 0.0
H668 H 0.12796 0.17755 0.65413 0.0
H669 H 0.17476 0.24412 0.68495 0.0
C670 C 0.14222 0.29611 0.71059 0.0
C671 C 0.12021 0.31962 0.72363 0.0
C672 C 0.11554 0.2574 0.69322 0.0
C673 C 0.07103 0.30355 0.71918 0.0
C674 C 0.04445 0.26561 0.70128 0.0
C675 C 0.03981 0.20446 0.66943 0.0
C676 C 0.06155 0.18065 0.65667 0.0
C677 C 0.0663 0.24236 0.68798 0.0
C678 C 0.11033 0.19528 0.6632 0.0
C679 C 0.13709 0.2334 0.68092 0.0
H680 H 0.79104 0.39451 0.48817 0.0
H681 H 0.88974 0.5112 0.53538 0.0
H682 H 0.82848 0.53544 0.53333 0.0
H683 H 0.74541 0.52071 0.5235 0.0
H684 H 0.64557 0.40116 0.48162 0.0
H685 H 0.70903 0.38139 0.47492 0.0
C686 C 0.79936 0.42562 0.49718 0.0
C687 C 0.84472 0.45112 0.51186 0.0
C688 C 0.76371 0.43874 0.49696 0.0
C689 C 0.85494 0.49106 0.52408 0.0
C690 C 0.81995 0.50483 0.52297 0.0
C691 C 0.73744 0.49029 0.51293 0.0
C692 C 0.69054 0.46238 0.50348 0.0
C693 C 0.7739 0.47846 0.51045 0.0
C694 C 0.68122 0.42352 0.48885 0.0
C695 C 0.7175 0.41197 0.48532 0.0
loop_
_geom_bond_atom_site_label_1
_geom_bond_atom_site_label_2
_geom_bond_distance
_geom_bond_site_symmetry_2
_ccdc_geom_bond_type
H0 C1 0.949 . S
C1 H0 0.949 . S
C1 C2 1.395 . S
C1 C3 1.391 . S
C2 C1 1.395 . S
C2 C5 1.390 . S
C3 C1 1.391 . S
C3 C7 1.387 . S
C3 C8 1.491 . S
H4 C5 0.950 . S
C5 C2 1.390 . S
C5 H4 0.950 . S
C5 C6 1.378 . S
C6 C5 1.378 . S
C6 C7 1.409 . S
C7 C3 1.387 . S
C7 C6 1.409 . S
C7 H9 0.951 . S
C8 C3 1.491 . S
C8 C10 1.382 . S
C8 C12 1.404 . S
H9 C7 0.951 . S
C10 C8 1.382 . S
C10 C11 1.390 . S
C10 H15 0.949 . S
C11 C10 1.390 . S
C11 C16 1.399 . S
C12 C8 1.404 . S
C12 H13 0.950 . S
C12 C14 1.375 . S
H13 C12 0.950 . S
C14 C12 1.375 . S
C14 C16 1.382 . S
C14 H18 0.950 . S
H15 C10 0.949 . S
C16 C11 1.399 . S
C16 C14 1.382 . S
C16 H17 0.952 . S
H17 C16 0.952 . S
H18 C14 0.950 . S
H19 C20 0.949 . S
C20 H19 0.949 . S
C20 C21 1.395 . S
C20 C22 1.391 . S
C21 C20 1.395 . S
C21 C24 1.390 . S
C22 C20 1.391 . S
C22 C26 1.387 . S
C22 C27 1.491 . S
H23 C24 0.950 . S
C24 C21 1.390 . S
C24 H23 0.950 . S
C24 C25 1.378 . S
C25 C24 1.378 . S
C25 C26 1.409 . S
C26 C22 1.387 . S
C26 C25 1.409 . S
C26 H28 0.951 . S
C27 C22 1.491 . S
C27 C29 1.382 . S
C27 C31 1.404 . S
H28 C26 0.951 . S
C29 C27 1.382 . S
C29 C30 1.395 . S
C29 H34 0.949 . S
C30 C29 1.395 . S
C30 C35 1.397 1_455 S
C31 C27 1.404 . S
C31 H32 0.950 . S
C31 C33 1.375 1_455 S
H32 C31 0.950 . S
C33 C31 1.375 1_655 S
C33 C35 1.382 . S
C33 H37 0.950 . S
H34 C29 0.949 . S
C35 C30 1.397 1_655 S
C35 C33 1.382 . S
C35 H36 0.952 . S
H36 C35 0.952 . S
H37 C33 0.950 . S
H38 C39 0.949 . S
C39 H38 0.949 . S
C39 C40 1.395 . S
C39 C41 1.391 . S
C40 C39 1.395 . S
C40 C43 1.390 . S
C41 C39 1.391 . S
C41 C45 1.387 . S
C41 C46 1.491 . S
H42 C43 0.950 . S
C43 C40 1.390 . S
C43 H42 0.950 . S
C43 C44 1.378 . S
C44 C43 1.378 . S
C44 C45 1.409 . S
C45 C41 1.387 . S
C45 C44 1.409 . S
C45 H47 0.951 . S
C46 C41 1.491 . S
C46 C48 1.382 . S
C46 C50 1.404 . S
H47 C45 0.951 . S
C48 C46 1.382 . S
C48 C49 1.390 . S
C48 H53 0.949 . S
C49 C48 1.390 . S
C49 C54 1.399 . S
C50 C46 1.404 . S
C50 H51 0.950 . S
C50 C52 1.375 . S
H51 C50 0.950 . S
C52 C50 1.375 . S
C52 C54 1.382 . S
C52 H56 0.950 . S
H53 C48 0.949 . S
C54 C49 1.399 . S
C54 C52 1.382 . S
C54 H55 0.952 . S
H55 C54 0.952 . S
H56 C52 0.950 . S
H57 C58 0.949 . S
C58 H57 0.949 . S
C58 C59 1.395 . S
C58 C60 1.391 . S
C59 C58 1.395 . S
C59 C62 1.390 . S
C60 C58 1.391 . S
C60 C64 1.387 . S
C60 C65 1.491 . S
H61 C62 0.950 . S
C62 C59 1.390 . S
C62 H61 0.950 . S
C62 C63 1.378 . S
C63 C62 1.378 . S
C63 C64 1.409 . S
C64 C60 1.387 . S
C64 C63 1.409 . S
C64 H66 0.951 . S
C65 C60 1.491 . S
C65 C67 1.382 . S
C65 C69 1.404 . S
H66 C64 0.951 . S
C67 C65 1.382 . S
C67 C68 1.390 . S
C67 H72 0.949 . S
C68 C67 1.390 . S
C68 C73 1.399 . S
C69 C65 1.404 . S
C69 H70 0.950 . S
C69 C71 1.375 . S
H70 C69 0.950 . S
C71 C69 1.375 . S
C71 C73 1.382 . S
C71 H75 0.950 . S
H72 C67 0.949 . S
C73 C68 1.399 . S
C73 C71 1.382 . S
C73 H74 0.952 . S
H74 C73 0.952 . S
H75 C71 0.950 . S
H76 C77 0.949 . S
C77 H76 0.949 . S
C77 C78 1.395 . S
C77 C79 1.391 . S
C78 C77 1.395 . S
C78 C81 1.390 . S
C79 C77 1.391 . S
C79 C83 1.387 . S
C79 C84 1.491 . S
H80 C81 0.950 . S
C81 C78 1.390 . S
C81 H80 0.950 . S
C81 C82 1.378 . S
C82 C81 1.378 . S
C82 C83 1.409 . S
C83 C79 1.387 . S
C83 C82 1.409 . S
C83 H85 0.951 . S
C84 C79 1.491 . S
C84 C86 1.382 . S
C84 C88 1.404 . S
H85 C83 0.951 . S
C86 C84 1.382 . S
C86 C87 1.390 . S
C86 H91 0.949 . S
C87 C86 1.390 . S
C87 C92 1.399 . S
C88 C84 1.404 . S
C88 H89 0.950 . S
C88 C90 1.375 . S
H89 C88 0.950 . S
C90 C88 1.375 . S
C90 C92 1.382 . S
C90 H94 0.950 . S
H91 C86 0.949 . S
C92 C87 1.399 . S
C92 C90 1.382 . S
C92 H93 0.952 . S
H93 C92 0.952 . S
H94 C90 0.950 . S
H95 C96 0.949 . S
C96 H95 0.949 . S
C96 C97 1.395 . S
C96 C98 1.391 . S
C97 C96 1.395 . S
C97 C100 1.390 . S
C98 C96 1.391 . S
C98 C102 1.387 . S
C98 C103 1.491 . S
H99 C100 0.950 . S
C100 C97 1.390 . S
C100 H99 0.950 . S
C100 C101 1.378 . S
C101 C100 1.378 . S
C101 C102 1.409 . S
C102 C98 1.387 . S
C102 C101 1.409 . S
C102 H104 0.951 . S
C103 C98 1.491 . S
C103 C105 1.382 . S
C103 C107 1.404 . S
H104 C102 0.951 . S
C105 C103 1.382 . S
C105 C106 1.390 . S
C105 H110 0.949 . S
C106 C105 1.390 . S
C106 C111 1.399 . S
C107 C103 1.404 . S
C107 H108 0.950 . S
C107 C109 1.375 . S
H108 C107 0.950 . S
C109 C107 1.375 . S
C109 C111 1.382 . S
C109 H113 0.950 . S
H110 C105 0.949 . S
C111 C106 1.399 . S
C111 C109 1.382 . S
C111 H112 0.952 . S
H112 C111 0.952 . S
H113 C109 0.950 . S
H114 C115 0.949 . S
C115 H114 0.949 . S
C115 C116 1.395 . S
C115 C117 1.391 . S
C116 C115 1.395 . S
C116 C119 1.390 . S
C117 C115 1.391 . S
C117 C121 1.387 . S
C117 C122 1.491 . S
H118 C119 0.950 . S
C119 C116 1.390 . S
C119 H118 0.950 . S
C119 C120 1.378 . S
C120 C119 1.378 . S
C120 C121 1.409 . S
C121 C117 1.387 . S
C121 C120 1.409 . S
C121 H123 0.951 . S
C122 C117 1.491 . S
C122 C124 1.382 . S
C122 C126 1.404 . S
H123 C121 0.951 . S
C124 C122 1.382 . S
C124 C125 1.390 . S
C124 H129 0.949 . S
C125 C124 1.390 . S
C125 C130 1.399 . S
C126 C122 1.404 . S
C126 H127 0.950 . S
C126 C128 1.375 . S
H127 C126 0.950 . S
C128 C126 1.375 . S
C128 C130 1.382 . S
C128 H132 0.950 . S
H129 C124 0.949 . S
C130 C125 1.399 . S
C130 C128 1.382 . S
C130 H131 0.952 . S
H131 C130 0.952 . S
H132 C128 0.950 . S
H133 C134 0.949 . S
C134 H133 0.949 . S
C134 C135 1.395 . S
C134 C136 1.391 . S
C135 C134 1.395 . S
C135 C138 1.390 . S
C136 C134 1.391 . S
C136 C140 1.387 . S
C136 C141 1.491 . S
H137 C138 0.950 . S
C138 C135 1.390 . S
C138 H137 0.950 . S
C138 C139 1.378 . S
C139 C138 1.378 . S
C139 C140 1.409 . S
C140 C136 1.387 . S
C140 C139 1.409 . S
C140 H142 0.951 . S
C141 C136 1.491 . S
C141 C143 1.382 . S
C141 C145 1.404 . S
H142 C140 0.951 . S
C143 C141 1.382 . S
C143 C144 1.390 . S
C143 H148 0.949 . S
C144 C143 1.390 . S
C144 C149 1.399 . S
C145 C141 1.404 . S
C145 H146 0.950 . S
C145 C147 1.375 . S
H146 C145 0.950 . S
C147 C145 1.375 . S
C147 C149 1.382 . S
C147 H151 0.950 . S
H148 C143 0.949 . S
C149 C144 1.399 . S
C149 C147 1.382 . S
C149 H150 0.952 . S
H150 C149 0.952 . S
H151 C147 0.950 . S
Tb152 C154 2.809 1_545 S
Tb152 O172 2.484 1_545 S
Tb152 O173 2.440 . S
Tb152 O174 2.658 1_655 S
Tb152 O175 2.409 1_655 S
Tb152 O176 2.378 1_655 S
Tb152 O180 2.325 . S
Tb152 O183 2.341 . S
Tb153 C163 2.809 . S
Tb153 O174 2.325 . S
Tb153 O177 2.341 . S
Tb153 O178 2.484 . S
Tb153 O179 2.440 . S
Tb153 O180 2.658 1_455 S
Tb153 O181 2.399 1_545 S
Tb153 O182 2.378 . S
C154 Tb152 2.809 1_565 S
C154 C155 1.514 . S
C154 O172 1.248 . S
C154 O173 1.266 1_565 S
C155 C154 1.514 . S
C155 C156 1.359 . S
C155 C160 1.348 . S
C156 C155 1.359 . S
C156 C157 1.380 . S
C156 H184 0.929 . S
C157 C156 1.380 . S
C157 C158 1.347 . S
C157 H185 0.931 . S
C158 C157 1.347 . S
C158 C159 1.369 . S
C159 C158 1.369 . S
C159 C160 1.408 . S
C159 H186 0.930 . S
C160 C155 1.348 . S
C160 C159 1.408 . S
C160 H187 0.930 . S
C161 O174 1.281 . S
C161 O175 1.254 . S
C162 O176 1.236 1_565 S
C162 O177 1.266 1_565 S
C163 Tb153 2.809 . S
C163 C164 1.514 . S
C163 O178 1.248 . S
C163 O179 1.266 . S
C164 C163 1.514 . S
C164 C165 1.359 . S
C164 C169 1.348 . S
C165 C164 1.359 . S
C165 C166 1.380 . S
C165 H188 0.929 . S
C166 C165 1.380 . S
C166 C167 1.347 . S
C166 H189 0.931 . S
C167 C166 1.347 . S
C167 C168 1.369 . S
C168 C167 1.369 . S
C168 C169 1.408 . S
C168 H190 0.930 . S
C169 C164 1.348 . S
C169 C168 1.408 . S
C169 H191 0.930 . S
C170 O180 1.281 1_565 S
C170 O181 1.252 1_655 S
C171 O182 1.236 1_655 S
C171 O183 1.266 . S
O172 Tb152 2.484 1_565 S
O172 C154 1.248 . S
O173 Tb152 2.440 . S
O173 C154 1.266 1_545 S
O174 Tb152 2.658 1_455 S
O174 Tb153 2.325 . S
O174 C161 1.281 . S
O175 Tb152 2.409 1_455 S
O175 C161 1.254 . S
O176 Tb152 2.378 1_455 S
O176 C162 1.236 1_545 S
O177 Tb153 2.341 . S
O177 C162 1.266 1_545 S
O178 Tb153 2.484 . S
O178 C163 1.248 . S
O179 Tb153 2.440 . S
O179 C163 1.266 . S
O180 Tb152 2.325 . S
O180 Tb153 2.658 1_655 S
O180 C170 1.281 1_545 S
O181 Tb153 2.399 1_565 S
O181 C170 1.252 1_455 S
O182 Tb153 2.378 . S
O182 C171 1.236 1_455 S
O183 Tb152 2.341 . S
O183 C171 1.266 . S
H184 C156 0.929 . S
H185 C157 0.931 . S
H186 C159 0.930 . S
H187 C160 0.930 . S
H188 C165 0.929 . S
H189 C166 0.931 . S
H190 C168 0.930 . S
H191 C169 0.930 . S
Tb192 C194 2.809 . S
Tb192 O212 2.484 . S
Tb192 O213 2.440 . S
Tb192 O214 2.658 1_545 S
Tb192 O215 2.409 1_545 S
Tb192 O216 2.378 . S
Tb192 O220 2.325 . S
Tb192 O223 2.341 . S
Tb193 C203 2.809 1_545 S
Tb193 O214 2.325 1_545 S
Tb193 O217 2.341 . S
Tb193 O218 2.484 1_545 S
Tb193 O219 2.440 1_554 S
Tb193 O220 2.658 . S
Tb193 O221 2.409 . S
Tb193 O222 2.378 . S
C194 Tb192 2.809 . S
C194 C195 1.514 . S
C194 O212 1.248 . S
C194 O213 1.266 . S
C195 C194 1.514 . S
C195 C196 1.359 . S
C195 C200 1.348 . S
C196 C195 1.359 . S
C196 C197 1.380 . S
C196 H224 0.929 . S
C197 C196 1.380 . S
C197 C198 1.347 . S
C197 H225 0.931 . S
C198 C197 1.347 . S
C198 C199 1.369 . S
C199 C198 1.369 . S
C199 C200 1.408 . S
C199 H226 0.930 . S
C200 C195 1.348 . S
C200 C199 1.408 . S
C200 H227 0.930 . S
C201 O214 1.281 . S
C201 O215 1.254 . S
C202 O216 1.236 . S
C202 O217 1.266 . S
C203 Tb193 2.809 1_565 S
C203 C204 1.514 1_554 S
C203 O218 1.248 . S
C203 O219 1.268 1_564 S
C204 C203 1.514 1_556 S
C204 C205 1.359 . S
C204 C209 1.348 . S
C205 C204 1.359 . S
C205 C206 1.380 . S
C205 H228 0.929 1_556 S
C206 C205 1.380 . S
C206 C207 1.347 . S
C206 H229 0.931 . S
C207 C206 1.347 . S
C207 C208 1.369 . S
C208 C207 1.369 . S
C208 C209 1.408 . S
C208 H230 0.930 . S
C209 C204 1.348 . S
C209 C208 1.408 . S
C209 H231 0.930 . S
C210 O220 1.281 . S
C210 O221 1.254 . S
C211 O222 1.236 1_565 S
C211 O223 1.266 1_565 S
O212 Tb192 2.484 . S
O212 C194 1.248 . S
O213 Tb192 2.440 . S
O213 C194 1.266 . S
O214 Tb192 2.658 1_565 S
O214 Tb193 2.325 1_565 S
O214 C201 1.281 . S
O215 Tb192 2.409 1_565 S
O215 C201 1.254 . S
O216 Tb192 2.378 . S
O216 C202 1.236 . S
O217 Tb193 2.341 . S
O217 C202 1.266 . S
O218 Tb193 2.484 1_565 S
O218 C203 1.248 . S
O219 Tb193 2.440 1_556 S
O219 C203 1.268 1_546 S
O220 Tb192 2.325 . S
O220 Tb193 2.658 . S
O220 C210 1.281 . S
O221 Tb193 2.409 . S
O221 C210 1.254 . S
O222 Tb193 2.378 . S
O222 C211 1.236 1_545 S
O223 Tb192 2.341 . S
O223 C211 1.266 1_545 S
H224 C196 0.929 . S
H225 C197 0.931 . S
H226 C199 0.930 . S
H227 C200 0.930 . S
H228 C205 0.929 1_554 S
H229 C206 0.931 . S
H230 C208 0.930 . S
H231 C209 0.930 . S
Tb232 C234 2.809 . S
Tb232 O252 2.484 . S
Tb232 O253 2.440 . S
Tb232 O254 2.658 . S
Tb232 O255 2.409 . S
Tb232 O256 2.378 . S
Tb232 O260 2.325 . S
Tb232 O263 2.341 . S
Tb233 C243 2.809 . S
Tb233 O254 2.325 . S
Tb233 O257 2.341 . S
Tb233 O258 2.484 . S
Tb233 O259 2.440 . S
Tb233 O260 2.658 . S
Tb233 O261 2.409 . S
Tb233 O262 2.378 . S
C234 Tb232 2.809 . S
C234 C235 1.514 . S
C234 O252 1.248 . S
C234 O253 1.266 . S
C235 C234 1.514 . S
C235 C236 1.359 . S
C235 C240 1.348 . S
C236 C235 1.359 . S
C236 C237 1.380 . S
C236 H264 0.929 . S
C237 C236 1.380 . S
C237 C238 1.347 . S
C237 H265 0.931 . S
C238 C237 1.347 . S
C238 C239 1.369 . S
C239 C238 1.369 . S
C239 C240 1.408 . S
C239 H266 0.930 . S
C240 C235 1.348 . S
C240 C239 1.408 . S
C240 H267 0.930 . S
C241 O254 1.281 . S
C241 O255 1.254 . S
C242 O256 1.236 . S
C242 O257 1.266 . S
C243 Tb233 2.809 . S
C243 C244 1.514 . S
C243 O258 1.248 . S
C243 O259 1.266 . S
C244 C243 1.514 . S
C244 C245 1.359 . S
C244 C249 1.348 . S
C245 C244 1.359 . S
C245 C246 1.380 . S
C245 H268 0.929 . S
C246 C245 1.380 . S
C246 C247 1.347 . S
C246 H269 0.931 . S
C247 C246 1.347 . S
C247 C248 1.369 . S
C248 C247 1.369 . S
C248 C249 1.408 . S
C248 H270 0.930 . S
C249 C244 1.348 . S
C249 C248 1.408 . S
C249 H271 0.930 . S
C250 O260 1.281 . S
C250 O261 1.254 . S
C251 O262 1.236 . S
C251 O263 1.266 . S
O252 Tb232 2.484 . S
O252 C234 1.248 . S
O253 Tb232 2.440 . S
O253 C234 1.266 . S
O254 Tb232 2.658 . S
O254 Tb233 2.325 . S
O254 C241 1.281 . S
O255 Tb232 2.409 . S
O255 C241 1.254 . S
O256 Tb232 2.378 . S
O256 C242 1.236 . S
O257 Tb233 2.341 . S
O257 C242 1.266 . S
O258 Tb233 2.484 . S
O258 C243 1.248 . S
O259 Tb233 2.440 . S
O259 C243 1.266 . S
O260 Tb232 2.325 . S
O260 Tb233 2.658 . S
O260 C250 1.281 . S
O261 Tb233 2.409 . S
O261 C250 1.254 . S
O262 Tb233 2.378 . S
O262 C251 1.236 . S
O263 Tb232 2.341 . S
O263 C251 1.266 . S
H264 C236 0.929 . S
H265 C237 0.931 . S
H266 C239 0.930 . S
H267 C240 0.930 . S
H268 C245 0.929 . S
H269 C246 0.931 . S
H270 C248 0.930 . S
H271 C249 0.930 . S
Tb272 C274 2.809 . S
Tb272 O292 2.484 1_455 S
Tb272 O293 2.440 . S
Tb272 O294 2.658 1_556 S
Tb272 O295 2.409 1_556 S
Tb272 O296 2.378 1_556 S
Tb272 O300 2.324 1_556 S
Tb272 O303 2.341 . S
Tb273 C283 2.809 . S
Tb273 O294 2.325 . S
Tb273 O297 2.341 . S
Tb273 O298 2.484 . S
Tb273 O299 2.440 . S
Tb273 O300 2.661 . S
Tb273 O301 2.409 1_455 S
Tb273 O302 2.378 1_554 S
C274 Tb272 2.809 . S
C274 C275 1.514 1_455 S
C274 O292 1.248 1_455 S
C274 O293 1.266 . S
C275 C274 1.514 1_655 S
C275 C276 1.359 . S
C275 C280 1.348 1_655 S
C276 C275 1.359 . S
C276 C277 1.380 . S
C276 H304 0.929 . S
C277 C276 1.380 . S
C277 C278 1.347 . S
C277 H305 0.931 . S
C278 C277 1.347 . S
C278 C279 1.369 . S
C279 C278 1.369 . S
C279 C280 1.408 1_655 S
C279 H306 0.930 . S
C280 C275 1.348 1_455 S
C280 C279 1.408 1_455 S
C280 H307 0.930 . S
C281 O294 1.281 . S
C281 O295 1.254 . S
C282 O296 1.236 . S
C282 O297 1.266 . S
C283 Tb273 2.809 . S
C283 C284 1.514 . S
C283 O298 1.248 . S
C283 O299 1.266 . S
C284 C283 1.514 . S
C284 C285 1.359 . S
C284 C289 1.348 . S
C285 C284 1.359 . S
C285 C286 1.380 . S
C285 H308 0.929 . S
C286 C285 1.380 . S
C286 C287 1.347 . S
C286 H309 0.931 . S
C287 C286 1.347 . S
C287 C288 1.369 . S
C288 C287 1.369 . S
C288 C289 1.408 . S
C288 H310 0.930 . S
C289 C284 1.348 . S
C289 C288 1.408 . S
C289 H311 0.930 . S
C290 O300 1.280 1_656 S
C290 O301 1.254 1_556 S
C291 O302 1.236 . S
C291 O303 1.266 . S
O292 Tb272 2.484 1_655 S
O292 C274 1.248 1_655 S
O293 Tb272 2.440 . S
O293 C274 1.266 . S
O294 Tb272 2.658 1_554 S
O294 Tb273 2.325 . S
O294 C281 1.281 . S
O295 Tb272 2.409 1_554 S
O295 C281 1.254 . S
O296 Tb272 2.378 1_554 S
O296 C282 1.236 . S
O297 Tb273 2.341 . S
O297 C282 1.266 . S
O298 Tb273 2.484 . S
O298 C283 1.248 . S
O299 Tb273 2.440 . S
O299 C283 1.266 . S
O300 Tb272 2.324 1_554 S
O300 Tb273 2.661 . S
O300 C290 1.280 1_454 S
O301 Tb273 2.409 1_655 S
O301 C290 1.254 1_554 S
O302 Tb273 2.378 1_556 S
O302 C291 1.236 . S
O303 Tb272 2.341 . S
O303 C291 1.266 . S
H304 C276 0.929 . S
H305 C277 0.931 . S
H306 C279 0.930 . S
H307 C280 0.930 . S
H308 C285 0.929 . S
H309 C286 0.931 . S
H310 C288 0.930 . S
H311 C289 0.930 . S
H312 C318 0.930 . S
H313 C321 0.930 . S
H314 C322 0.930 . S
H315 C323 0.930 . S
H316 C326 0.930 . S
H317 C327 0.930 . S
C318 H312 0.930 . S
C318 C319 1.355 . S
C318 C320 1.415 . S
C319 C318 1.355 . S
C319 C321 1.419 . S
C320 C318 1.415 . S
C320 C325 1.425 . S
C320 C327 1.409 . S
C321 H313 0.930 . S
C321 C319 1.419 . S
C321 C322 1.362 . S
C322 H314 0.930 . S
C322 C321 1.362 . S
C322 C325 1.409 . S
C323 H315 0.930 . S
C323 C324 1.355 . S
C323 C325 1.415 . S
C324 C323 1.355 . S
C324 C326 1.419 . S
C325 C320 1.425 . S
C325 C322 1.409 . S
C325 C323 1.415 . S
C326 H316 0.930 . S
C326 C324 1.419 . S
C326 C327 1.362 . S
C327 H317 0.930 . S
C327 C320 1.409 . S
C327 C326 1.362 . S
H328 C334 0.930 . S
H329 C337 0.930 . S
H330 C338 0.930 . S
H331 C339 0.930 . S
H332 C342 0.930 . S
H333 C343 0.930 . S
C334 H328 0.930 . S
C334 C335 1.355 . S
C334 C336 1.415 . S
C335 C334 1.355 . S
C335 C337 1.419 . S
C336 C334 1.415 . S
C336 C341 1.425 . S
C336 C343 1.409 . S
C337 H329 0.930 . S
C337 C335 1.419 . S
C337 C338 1.362 . S
C338 H330 0.930 . S
C338 C337 1.362 . S
C338 C341 1.409 . S
C339 H331 0.930 . S
C339 C340 1.355 . S
C339 C341 1.415 . S
C340 C339 1.355 . S
C340 C342 1.419 . S
C341 C336 1.425 . S
C341 C338 1.409 . S
C341 C339 1.415 . S
C342 H332 0.930 . S
C342 C340 1.419 . S
C342 C343 1.362 . S
C343 H333 0.930 . S
C343 C336 1.409 . S
C343 C342 1.362 . S
H344 C350 0.930 . S
H345 C353 0.930 . S
H346 C354 0.930 . S
H347 C355 0.930 . S
H348 C358 0.930 . S
H349 C359 0.930 . S
C350 H344 0.930 . S
C350 C351 1.355 . S
C350 C352 1.415 . S
C351 C350 1.355 . S
C351 C353 1.419 . S
C352 C350 1.415 . S
C352 C357 1.425 . S
C352 C359 1.409 . S
C353 H345 0.930 . S
C353 C351 1.419 . S
C353 C354 1.362 . S
C354 H346 0.930 . S
C354 C353 1.362 . S
C354 C357 1.409 . S
C355 H347 0.930 . S
C355 C356 1.355 . S
C355 C357 1.415 . S
C356 C355 1.355 . S
C356 C358 1.419 . S
C357 C352 1.425 . S
C357 C354 1.409 . S
C357 C355 1.415 . S
C358 H348 0.930 . S
C358 C356 1.419 . S
C358 C359 1.362 . S
C359 H349 0.930 . S
C359 C352 1.409 . S
C359 C358 1.362 . S
H360 C366 0.930 . S
H361 C369 0.930 . S
H362 C370 0.930 1_455 S
H363 C371 0.930 1_455 S
H364 C374 0.930 . S
H365 C375 0.930 . S
C366 H360 0.930 . S
C366 C367 1.355 . S
C366 C368 1.415 . S
C367 C366 1.355 . S
C367 C369 1.419 . S
C368 C366 1.415 . S
C368 C373 1.425 . S
C368 C375 1.409 . S
C369 H361 0.930 . S
C369 C367 1.419 . S
C369 C370 1.362 . S
C370 H362 0.930 1_655 S
C370 C369 1.362 . S
C370 C373 1.409 . S
C371 H363 0.930 1_655 S
C371 C372 1.355 . S
C371 C373 1.415 . S
C372 C371 1.355 . S
C372 C374 1.419 . S
C373 C368 1.425 . S
C373 C370 1.409 . S
C373 C371 1.415 . S
C374 H364 0.930 . S
C374 C372 1.419 . S
C374 C375 1.362 . S
C375 H365 0.930 . S
C375 C368 1.409 . S
C375 C374 1.362 . S
H376 C382 0.930 . S
H377 C385 0.930 . S
H378 C386 0.930 . S
H379 C387 0.930 . S
H380 C390 0.930 . S
H381 C391 0.930 . S
C382 H376 0.930 . S
C382 C383 1.355 . S
C382 C384 1.415 . S
C383 C382 1.355 . S
C383 C385 1.419 . S
C384 C382 1.415 . S
C384 C389 1.425 . S
C384 C391 1.409 . S
C385 H377 0.930 . S
C385 C383 1.419 . S
C385 C386 1.362 . S
C386 H378 0.930 . S
C386 C385 1.362 . S
C386 C389 1.409 . S
C387 H379 0.930 . S
C387 C388 1.355 . S
C387 C389 1.415 . S
C388 C387 1.355 . S
C388 C390 1.419 . S
C389 C384 1.425 . S
C389 C386 1.409 . S
C389 C387 1.415 . S
C390 H380 0.930 . S
C390 C388 1.419 . S
C390 C391 1.362 . S
C391 H381 0.930 . S
C391 C384 1.409 . S
C391 C390 1.362 . S
H392 C398 0.930 . S
H393 C401 0.930 . S
H394 C402 0.930 . S
H395 C403 0.930 . S
H396 C406 0.930 . S
H397 C407 0.930 . S
C398 H392 0.930 . S
C398 C399 1.355 . S
C398 C400 1.415 . S
C399 C398 1.355 . S
C399 C401 1.419 1_455 S
C400 C398 1.415 . S
C400 C405 1.425 . S
C400 C407 1.409 . S
C401 H393 0.930 . S
C401 C399 1.419 1_655 S
C401 C402 1.362 . S
C402 H394 0.930 . S
C402 C401 1.362 . S
C402 C405 1.409 1_655 S
C403 H395 0.930 . S
C403 C404 1.355 . S
C403 C405 1.415 . S
C404 C403 1.355 . S
C404 C406 1.419 . S
C405 C400 1.425 . S
C405 C402 1.409 1_455 S
C405 C403 1.415 . S
C406 H396 0.930 . S
C406 C404 1.419 . S
C406 C407 1.362 . S
C407 H397 0.930 . S
C407 C400 1.409 . S
C407 C406 1.362 . S
H408 C414 0.930 . S
H409 C417 0.930 . S
H410 C418 0.930 . S
H411 C419 0.930 . S
H412 C422 0.930 . S
H413 C423 0.930 . S
C414 H408 0.930 . S
C414 C415 1.355 . S
C414 C416 1.415 . S
C415 C414 1.355 . S
C415 C417 1.419 . S
C416 C414 1.415 . S
C416 C421 1.425 . S
C416 C423 1.409 . S
C417 H409 0.930 . S
C417 C415 1.419 . S
C417 C418 1.362 . S
C418 H410 0.930 . S
C418 C417 1.362 . S
C418 C421 1.409 . S
C419 H411 0.930 . S
C419 C420 1.355 . S
C419 C421 1.415 . S
C420 C419 1.355 . S
C420 C422 1.419 . S
C421 C416 1.425 . S
C421 C418 1.409 . S
C421 C419 1.415 . S
C422 H412 0.930 . S
C422 C420 1.419 . S
C422 C423 1.362 . S
C423 H413 0.930 . S
C423 C416 1.409 . S
C423 C422 1.362 . S
H424 C430 0.930 . S
H425 C433 0.930 . S
H426 C434 0.930 . S
H427 C435 0.930 . S
H428 C438 0.930 . S
H429 C439 0.930 . S
C430 H424 0.930 . S
C430 C431 1.355 . S
C430 C432 1.415 . S
C431 C430 1.355 . S
C431 C433 1.419 . S
C432 C430 1.415 . S
C432 C437 1.425 . S
C432 C439 1.409 . S
C433 H425 0.930 . S
C433 C431 1.419 . S
C433 C434 1.362 . S
C434 H426 0.930 . S
C434 C433 1.362 . S
C434 C437 1.409 . S
C435 H427 0.930 . S
C435 C436 1.355 . S
C435 C437 1.415 . S
C436 C435 1.355 . S
C436 C438 1.419 . S
C437 C432 1.425 . S
C437 C434 1.409 . S
C437 C435 1.415 . S
C438 H428 0.930 . S
C438 C436 1.419 . S
C438 C439 1.362 . S
C439 H429 0.930 . S
C439 C432 1.409 . S
C439 C438 1.362 . S
H440 C446 0.930 . S
H441 C449 0.930 . S
H442 C450 0.930 . S
H443 C451 0.930 . S
H444 C454 0.930 . S
H445 C455 0.930 . S
C446 H440 0.930 . S
C446 C447 1.355 . S
C446 C448 1.415 . S
C447 C446 1.355 . S
C447 C449 1.419 . S
C448 C446 1.415 . S
C448 C453 1.425 . S
C448 C455 1.409 . S
C449 H441 0.930 . S
C449 C447 1.419 . S
C449 C450 1.362 . S
C450 H442 0.930 . S
C450 C449 1.362 . S
C450 C453 1.409 . S
C451 H443 0.930 . S
C451 C452 1.355 . S
C451 C453 1.415 . S
C452 C451 1.355 . S
C452 C454 1.419 . S
C453 C448 1.425 . S
C453 C450 1.409 . S
C453 C451 1.415 . S
C454 H444 0.930 . S
C454 C452 1.419 . S
C454 C455 1.362 . S
C455 H445 0.930 . S
C455 C448 1.409 . S
C455 C454 1.362 . S
H456 C462 0.930 . S
H457 C465 0.930 . S
H458 C466 0.930 . S
H459 C467 0.930 . S
H460 C470 0.930 . S
H461 C471 0.930 . S
C462 H456 0.930 . S
C462 C463 1.355 . S
C462 C464 1.415 . S
C463 C462 1.355 . S
C463 C465 1.419 . S
C464 C462 1.415 . S
C464 C469 1.425 . S
C464 C471 1.409 1_556 S
C465 H457 0.930 . S
C465 C463 1.419 . S
C465 C466 1.362 . S
C466 H458 0.930 . S
C466 C465 1.362 . S
C466 C469 1.409 . S
C467 H459 0.930 . S
C467 C468 1.355 1_556 S
C467 C469 1.415 . S
C468 C467 1.355 1_554 S
C468 C470 1.419 . S
C469 C464 1.425 . S
C469 C466 1.409 . S
C469 C467 1.415 . S
C470 H460 0.930 . S
C470 C468 1.419 . S
C470 C471 1.362 . S
C471 H461 0.930 . S
C471 C464 1.409 1_554 S
C471 C470 1.362 . S
H472 C478 0.930 . S
H473 C481 0.930 . S
H474 C482 0.930 . S
H475 C483 0.930 . S
H476 C486 0.930 . S
H477 C487 0.930 . S
C478 H472 0.930 . S
C478 C479 1.355 . S
C478 C480 1.415 . S
C479 C478 1.355 . S
C479 C481 1.419 . S
C480 C478 1.415 . S
C480 C485 1.425 . S
C480 C487 1.409 . S
C481 H473 0.930 . S
C481 C479 1.419 . S
C481 C482 1.362 . S
C482 H474 0.930 . S
C482 C481 1.362 . S
C482 C485 1.409 . S
C483 H475 0.930 . S
C483 C484 1.355 . S
C483 C485 1.415 . S
C484 C483 1.355 . S
C484 C486 1.419 . S
C485 C480 1.425 . S
C485 C482 1.409 . S
C485 C483 1.415 . S
C486 H476 0.930 . S
C486 C484 1.419 . S
C486 C487 1.362 . S
C487 H477 0.930 . S
C487 C480 1.409 . S
C487 C486 1.362 . S
H488 C494 0.930 . S
H489 C497 0.930 . S
H490 C498 0.930 . S
H491 C499 0.930 . S
H492 C502 0.930 . S
H493 C503 0.930 . S
C494 H488 0.930 . S
C494 C495 1.355 . S
C494 C496 1.415 . S
C495 C494 1.355 . S
C495 C497 1.419 . S
C496 C494 1.415 . S
C496 C501 1.425 . S
C496 C503 1.409 . S
C497 H489 0.930 . S
C497 C495 1.419 . S
C497 C498 1.362 . S
C498 H490 0.930 . S
C498 C497 1.362 . S
C498 C501 1.409 . S
C499 H491 0.930 . S
C499 C500 1.355 . S
C499 C501 1.415 . S
C500 C499 1.355 . S
C500 C502 1.419 . S
C501 C496 1.425 . S
C501 C498 1.409 . S
C501 C499 1.415 . S
C502 H492 0.930 . S
C502 C500 1.419 . S
C502 C503 1.362 . S
C503 H493 0.930 . S
C503 C496 1.409 . S
C503 C502 1.362 . S
H504 C510 0.930 . S
H505 C513 0.930 . S
H506 C514 0.930 . S
H507 C515 0.930 . S
H508 C518 0.930 . S
H509 C519 0.930 . S
C510 H504 0.930 . S
C510 C511 1.355 . S
C510 C512 1.415 . S
C511 C510 1.355 . S
C511 C513 1.419 . S
C512 C510 1.415 . S
C512 C517 1.425 . S
C512 C519 1.409 . S
C513 H505 0.930 . S
C513 C511 1.419 . S
C513 C514 1.362 . S
C514 H506 0.930 . S
C514 C513 1.362 . S
C514 C517 1.409 . S
C515 H507 0.930 . S
C515 C516 1.355 . S
C515 C517 1.415 . S
C516 C515 1.355 . S
C516 C518 1.419 . S
C517 C512 1.425 . S
C517 C514 1.409 . S
C517 C515 1.415 . S
C518 H508 0.930 . S
C518 C516 1.419 . S
C518 C519 1.362 . S
C519 H509 0.930 . S
C519 C512 1.409 . S
C519 C518 1.362 . S
H520 C526 0.930 . S
H521 C529 0.930 . S
H522 C530 0.930 . S
H523 C531 0.930 . S
H524 C534 0.930 . S
H525 C535 0.930 . S
C526 H520 0.930 . S
C526 C527 1.355 . S
C526 C528 1.415 . S
C527 C526 1.355 . S
C527 C529 1.419 . S
C528 C526 1.415 . S
C528 C533 1.425 . S
C528 C535 1.409 . S
C529 H521 0.930 . S
C529 C527 1.419 . S
C529 C530 1.362 . S
C530 H522 0.930 . S
C530 C529 1.362 . S
C530 C533 1.409 . S
C531 H523 0.930 . S
C531 C532 1.355 . S
C531 C533 1.415 . S
C532 C531 1.355 . S
C532 C534 1.419 . S
C533 C528 1.425 . S
C533 C530 1.409 . S
C533 C531 1.415 . S
C534 H524 0.930 . S
C534 C532 1.419 . S
C534 C535 1.362 . S
C535 H525 0.930 . S
C535 C528 1.409 . S
C535 C534 1.362 . S
H536 C542 0.930 . S
H537 C545 0.930 . S
H538 C546 0.930 . S
H539 C547 0.930 . S
H540 C550 0.930 . S
H541 C551 0.930 . S
C542 H536 0.930 . S
C542 C543 1.355 . S
C542 C544 1.415 . S
C543 C542 1.355 . S
C543 C545 1.419 . S
C544 C542 1.415 . S
C544 C549 1.425 . S
C544 C551 1.409 . S
C545 H537 0.930 . S
C545 C543 1.419 . S
C545 C546 1.362 . S
C546 H538 0.930 . S
C546 C545 1.362 . S
C546 C549 1.409 . S
C547 H539 0.930 . S
C547 C548 1.355 . S
C547 C549 1.415 . S
C548 C547 1.355 . S
C548 C550 1.419 . S
C549 C544 1.425 . S
C549 C546 1.409 . S
C549 C547 1.415 . S
C550 H540 0.930 . S
C550 C548 1.419 . S
C550 C551 1.362 . S
C551 H541 0.930 . S
C551 C544 1.409 . S
C551 C550 1.362 . S
H552 C558 0.930 . S
H553 C561 0.930 . S
H554 C562 0.930 . S
H555 C563 0.930 . S
H556 C566 0.930 . S
H557 C567 0.930 . S
C558 H552 0.930 . S
C558 C559 1.355 . S
C558 C560 1.415 . S
C559 C558 1.355 . S
C559 C561 1.419 . S
C560 C558 1.415 . S
C560 C565 1.425 . S
C560 C567 1.409 . S
C561 H553 0.930 . S
C561 C559 1.419 . S
C561 C562 1.362 . S
C562 H554 0.930 . S
C562 C561 1.362 . S
C562 C565 1.409 . S
C563 H555 0.930 . S
C563 C564 1.355 . S
C563 C565 1.415 . S
C564 C563 1.355 . S
C564 C566 1.419 . S
C565 C560 1.425 . S
C565 C562 1.409 . S
C565 C563 1.415 . S
C566 H556 0.930 . S
C566 C564 1.419 . S
C566 C567 1.362 . S
C567 H557 0.930 . S
C567 C560 1.409 . S
C567 C566 1.362 . S
H568 C574 0.930 . S
H569 C577 0.930 . S
H570 C578 0.930 . S
H571 C579 0.925 1_556 S
H572 C582 0.930 . S
H573 C583 0.930 . S
C574 H568 0.930 . S
C574 C575 1.355 . S
C574 C576 1.415 . S
C575 C574 1.355 . S
C575 C577 1.419 . S
C576 C574 1.415 . S
C576 C581 1.425 . S
C576 C583 1.409 1_556 S
C577 H569 0.930 . S
C577 C575 1.419 . S
C577 C578 1.362 . S
C578 H570 0.930 . S
C578 C577 1.362 . S
C578 C581 1.409 . S
C579 H571 0.925 1_554 S
C579 C580 1.365 . S
C579 C581 1.409 1_554 S
C580 C579 1.365 . S
C580 C582 1.419 . S
C581 C576 1.425 . S
C581 C578 1.409 . S
C581 C579 1.409 1_556 S
C582 H572 0.930 . S
C582 C580 1.419 . S
C582 C583 1.362 . S
C583 H573 0.930 . S
C583 C576 1.409 1_554 S
C583 C582 1.362 . S
H584 C590 0.930 . S
H585 C593 0.930 . S
H586 C594 0.930 . S
H587 C595 0.930 . S
H588 C598 0.930 . S
H589 C599 0.930 . S
C590 H584 0.930 . S
C590 C591 1.355 . S
C590 C592 1.415 . S
C591 C590 1.355 . S
C591 C593 1.419 1_655 S
C592 C590 1.415 . S
C592 C597 1.451 . S
C592 C599 1.409 . S
C593 H585 0.930 . S
C593 C591 1.419 1_455 S
C593 C594 1.362 . S
C594 H586 0.930 . S
C594 C593 1.362 . S
C594 C597 1.400 1_455 S
C595 H587 0.930 . S
C595 C596 1.355 1_455 S
C595 C597 1.399 1_455 S
C596 C595 1.355 1_655 S
C596 C598 1.419 . S
C597 C592 1.451 . S
C597 C594 1.400 1_655 S
C597 C595 1.399 1_655 S
C598 H588 0.930 . S
C598 C596 1.419 . S
C598 C599 1.362 . S
C599 H589 0.930 . S
C599 C592 1.409 . S
C599 C598 1.362 . S
H600 C606 0.930 . S
H601 C609 0.930 . S
H602 C610 0.930 . S
H603 C611 0.930 . S
H604 C614 0.930 . S
H605 C615 0.930 . S
C606 H600 0.930 . S
C606 C607 1.355 . S
C606 C608 1.415 . S
C607 C606 1.355 . S
C607 C609 1.419 . S
C608 C606 1.415 . S
C608 C613 1.425 . S
C608 C615 1.409 . S
C609 H601 0.930 . S
C609 C607 1.419 . S
C609 C610 1.362 . S
C610 H602 0.930 . S
C610 C609 1.362 . S
C610 C613 1.409 . S
C611 H603 0.930 . S
C611 C612 1.355 . S
C611 C613 1.415 . S
C612 C611 1.355 . S
C612 C614 1.419 . S
C613 C608 1.425 . S
C613 C610 1.409 . S
C613 C611 1.415 . S
C614 H604 0.930 . S
C614 C612 1.419 . S
C614 C615 1.362 . S
C615 H605 0.930 . S
C615 C608 1.409 . S
C615 C614 1.362 . S
H616 C622 0.930 . S
H617 C625 0.930 . S
H618 C626 0.930 . S
H619 C627 0.930 . S
H620 C630 0.930 . S
H621 C631 0.930 . S
C622 H616 0.930 . S
C622 C623 1.355 . S
C622 C624 1.415 . S
C623 C622 1.355 . S
C623 C625 1.419 . S
C624 C622 1.415 . S
C624 C629 1.425 . S
C624 C631 1.409 . S
C625 H617 0.930 . S
C625 C623 1.419 . S
C625 C626 1.362 . S
C626 H618 0.930 . S
C626 C625 1.362 . S
C626 C629 1.409 . S
C627 H619 0.930 . S
C627 C628 1.355 . S
C627 C629 1.415 . S
C628 C627 1.355 . S
C628 C630 1.419 . S
C629 C624 1.425 . S
C629 C626 1.409 . S
C629 C627 1.415 . S
C630 H620 0.930 . S
C630 C628 1.419 . S
C630 C631 1.362 . S
C631 H621 0.930 . S
C631 C624 1.409 . S
C631 C630 1.362 . S
H632 C638 0.930 . S
H633 C641 0.930 . S
H634 C642 0.930 . S
H635 C643 0.930 . S
H636 C646 0.930 . S
H637 C647 0.930 . S
C638 H632 0.930 . S
C638 C639 1.355 . S
C638 C640 1.415 . S
C639 C638 1.355 . S
C639 C641 1.419 . S
C640 C638 1.415 . S
C640 C645 1.425 . S
C640 C647 1.409 . S
C641 H633 0.930 . S
C641 C639 1.419 . S
C641 C642 1.362 . S
C642 H634 0.930 . S
C642 C641 1.362 . S
C642 C645 1.409 . S
C643 H635 0.930 . S
C643 C644 1.355 . S
C643 C645 1.415 . S
C644 C643 1.355 . S
C644 C646 1.419 . S
C645 C640 1.425 . S
C645 C642 1.409 . S
C645 C643 1.415 . S
C646 H636 0.930 . S
C646 C644 1.419 . S
C646 C647 1.362 . S
C647 H637 0.930 . S
C647 C640 1.409 . S
C647 C646 1.362 . S
H648 C654 0.930 . S
H649 C657 0.930 . S
H650 C658 0.930 . S
H651 C659 0.930 . S
H652 C662 0.930 . S
H653 C663 0.930 . S
C654 H648 0.930 . S
C654 C655 1.355 . S
C654 C656 1.415 . S
C655 C654 1.355 . S
C655 C657 1.419 . S
C656 C654 1.415 . S
C656 C661 1.425 . S
C656 C663 1.409 . S
C657 H649 0.930 . S
C657 C655 1.419 . S
C657 C658 1.362 . S
C658 H650 0.930 . S
C658 C657 1.362 . S
C658 C661 1.409 . S
C659 H651 0.930 . S
C659 C660 1.355 . S
C659 C661 1.415 . S
C660 C659 1.355 . S
C660 C662 1.419 . S
C661 C656 1.425 . S
C661 C658 1.409 . S
C661 C659 1.415 . S
C662 H652 0.930 . S
C662 C660 1.419 . S
C662 C663 1.362 . S
C663 H653 0.930 . S
C663 C656 1.409 . S
C663 C662 1.362 . S
H664 C670 0.930 . S
H665 C673 0.930 . S
H666 C674 0.930 . S
H667 C675 0.930 . S
H668 C678 0.930 . S
H669 C679 0.930 . S
C670 H664 0.930 . S
C670 C671 1.355 . S
C670 C672 1.415 . S
C671 C670 1.355 . S
C671 C673 1.419 . S
C672 C670 1.415 . S
C672 C677 1.425 . S
C672 C679 1.409 . S
C673 H665 0.930 . S
C673 C671 1.419 . S
C673 C674 1.362 . S
C674 H666 0.930 . S
C674 C673 1.362 . S
C674 C677 1.409 . S
C675 H667 0.930 . S
C675 C676 1.355 . S
C675 C677 1.415 . S
C676 C675 1.355 . S
C676 C678 1.419 . S
C677 C672 1.425 . S
C677 C674 1.409 . S
C677 C675 1.415 . S
C678 H668 0.930 . S
C678 C676 1.419 . S
C678 C679 1.362 . S
C679 H669 0.930 . S
C679 C672 1.409 . S
C679 C678 1.362 . S
H680 C686 0.930 . S
H681 C689 0.930 . S
H682 C690 0.930 . S
H683 C691 0.930 . S
H684 C694 0.930 . S
H685 C695 0.930 . S
C686 H680 0.930 . S
C686 C687 1.355 . S
C686 C688 1.415 . S
C687 C686 1.355 . S
C687 C689 1.419 . S
C688 C686 1.415 . S
C688 C693 1.425 . S
C688 C695 1.409 . S
C689 H681 0.930 . S
C689 C687 1.419 . S
C689 C690 1.362 . S
C690 H682 0.930 . S
C690 C689 1.362 . S
C690 C693 1.409 . S
C691 H683 0.930 . S
C691 C692 1.355 . S
C691 C693 1.415 . S
C692 C691 1.355 . S
C692 C694 1.419 . S
C693 C688 1.425 . S
C693 C690 1.409 . S
C693 C691 1.415 . S
C694 H684 0.930 . S
C694 C692 1.419 . S
C694 C695 1.362 . S
C695 H685 0.930 . S
C695 C688 1.409 . S
C695 C694 1.362 . S
C319 C6 1.464 . S
C324 C167 1.463 . S
C335 C21 1.328 . S
C340 C207 1.390 . S
C356 C241 1.913 . S
C351 C49 1.861 . S
C367 C68 2.426 . S
C372 C282 2.476 1_655 S
C388 C202 2.231 . S
C383 C2 2.175 . S
C404 C162 1.826 . S
C399 C30 1.753 . S
C420 C290 1.539 . S
C415 C40 1.595 . S
C436 C251 1.826 . S
C431 C63 1.919 . S
C447 C11 1.342 . S
C452 C287 1.353 . S
C468 C210 2.271 . S
C463 C44 2.359 . S
C479 C59 1.969 . S
C484 C170 1.919 . S
C495 C25 2.045 . S
C500 C238 2.087 . S
C516 C158 1.568 . S
C511 C82 1.549 . S
C527 C101 1.111 . S
C532 C198 1.131 . S
C543 C125 1.976 . S
C548 C250 2.106 . S
C559 C144 2.197 . S
C564 C291 2.145 . S
C575 C87 1.207 . S
C580 C211 1.347 . S
C596 C171 2.671 . S
C591 C97 2.559 . S
C612 C281 1.629 . S
C607 C120 1.572 . S
C628 C242 1.711 . S
C623 C135 1.775 . S
C639 C78 2.052 . S
C644 C278 2.076 . S
C660 C201 1.623 . S
C655 C116 1.627 . S
C676 C161 2.539 . S
C671 C139 2.629 . S
C687 C106 1.250 . S
C692 C247 1.540 . S
