# Generated by pormake.
# Topology pyr, (3,6)-cn, num edge types: 1
# Building blocks:
#     Node 0, Type 0, BuildingBlock: BETDIP_clean_linker_0, # of connection points: 3
#     Node 1, Type 0, BuildingBlock: BETDIP_clean_linker_0, # of connection points: 3
#     Node 2, Type 0, BuildingBlock: BETDIP_clean_linker_0, # of connection points: 3
#     Node 3, Type 0, BuildingBlock: BETDIP_clean_linker_0, # of connection points: 3
#     Node 4, Type 0, BuildingBlock: BETDIP_clean_linker_0, # of connection points: 3
#     Node 5, Type 0, BuildingBlock: BETDIP_clean_linker_0, # of connection points: 3
#     Node 6, Type 0, BuildingBlock: BETDIP_clean_linker_0, # of connection points: 3
#     Node 7, Type 0, BuildingBlock: BETDIP_clean_linker_0, # of connection points: 3
#     Node 8, Type 1, BuildingBlock: PAMTOO_clean_sbu_0, # of connection points: 6
#     Node 9, Type 1, BuildingBlock: PAMTOO_clean_sbu_0, # of connection points: 6
#     Node 10, Type 1, BuildingBlock: PAMTOO_clean_sbu_0, # of connection points: 6
#     Node 11, Type 1, BuildingBlock: PAMTOO_clean_sbu_0, # of connection points: 6
#     Edge 12, Type (0, 1), BuildingBlock: AJUNOK_clean_linker_0, # of connection points: 2
#     Edge 13, Type (0, 1), BuildingBlock: AJUNOK_clean_linker_0, # of connection points: 2
#     Edge 14, Type (0, 1), BuildingBlock: AJUNOK_clean_linker_0, # of connection points: 2
#     Edge 15, Type (0, 1), BuildingBlock: AJUNOK_clean_linker_0, # of connection points: 2
#     Edge 16, Type (0, 1), BuildingBlock: AJUNOK_clean_linker_0, # of connection points: 2
#     Edge 17, Type (0, 1), BuildingBlock: AJUNOK_clean_linker_0, # of connection points: 2
#     Edge 18, Type (0, 1), BuildingBlock: AJUNOK_clean_linker_0, # of connection points: 2
#     Edge 19, Type (0, 1), BuildingBlock: AJUNOK_clean_linker_0, # of connection points: 2
#     Edge 20, Type (0, 1), BuildingBlock: AJUNOK_clean_linker_0, # of connection points: 2
#     Edge 21, Type (0, 1), BuildingBlock: AJUNOK_clean_linker_0, # of connection points: 2
#     Edge 22, Type (0, 1), BuildingBlock: AJUNOK_clean_linker_0, # of connection points: 2
#     Edge 23, Type (0, 1), BuildingBlock: AJUNOK_clean_linker_0, # of connection points: 2
#     Edge 24, Type (0, 1), BuildingBlock: AJUNOK_clean_linker_0, # of connection points: 2
#     Edge 25, Type (0, 1), BuildingBlock: AJUNOK_clean_linker_0, # of connection points: 2
#     Edge 26, Type (0, 1), BuildingBlock: AJUNOK_clean_linker_0, # of connection points: 2
#     Edge 27, Type (0, 1), BuildingBlock: AJUNOK_clean_linker_0, # of connection points: 2
#     Edge 28, Type (0, 1), BuildingBlock: AJUNOK_clean_linker_0, # of connection points: 2
#     Edge 29, Type (0, 1), BuildingBlock: AJUNOK_clean_linker_0, # of connection points: 2
#     Edge 30, Type (0, 1), BuildingBlock: AJUNOK_clean_linker_0, # of connection points: 2
#     Edge 31, Type (0, 1), BuildingBlock: AJUNOK_clean_linker_0, # of connection points: 2
#     Edge 32, Type (0, 1), BuildingBlock: AJUNOK_clean_linker_0, # of connection points: 2
#     Edge 33, Type (0, 1), BuildingBlock: AJUNOK_clean_linker_0, # of connection points: 2
#     Edge 34, Type (0, 1), BuildingBlock: AJUNOK_clean_linker_0, # of connection points: 2
#     Edge 35, Type (0, 1), BuildingBlock: AJUNOK_clean_linker_0, # of connection points: 2
# Relax obj value: 0.182
# Max RMSD: 0.219
# Mean RMSD: 0.131
data_MOF--net-pyr--node1-PAMTOO_clean_sbu_0--node2-BETDIP_clean_linker_0--edge1-AJUNOK_clean_linker_0
_symmetry_space_group_name_H-M    P1
_symmetry_Int_Tables_number       1
_symmetry_cell_setting            triclinic
loop_
_symmetry_equiv_pos_as_xyz
'x, y, z'
_cell_length_a     27.367521
_cell_length_b     28.535356
_cell_length_c     28.373443
_cell_angle_alpha  90.370714
_cell_angle_beta   89.921958
_cell_angle_gamma 110.41982
loop_
_atom_site_label
_atom_site_type_symbol
_atom_site_fract_x
_atom_site_fract_y
_atom_site_fract_z
_atom_type_partial_charge
H0 H 0.38619 0.37802 0.26344 0.0
H1 H 0.46414 0.32661 0.15326 0.0
H2 H 0.41632 0.24176 0.28072 0.0
H3 H 0.42964 0.47467 0.18915 0.0
C4 C 0.40614 0.4352 0.18761 0.0
C5 C 0.40205 0.35097 0.24948 0.0
C6 C 0.39813 0.30906 0.27651 0.0
C7 C 0.42606 0.35758 0.20492 0.0
C8 C 0.4468 0.32201 0.18805 0.0
C9 C 0.44363 0.27997 0.21529 0.0
C10 C 0.41981 0.2744 0.25971 0.0
N11 N 0.43125 0.40035 0.17713 0.0
H12 H 0.09348 0.77815 0.78969 0.0
H13 H 0.18182 0.74462 0.67722 0.0
H14 H 0.23982 0.75989 0.81907 0.0
H15 H 0.1525 0.80323 0.64162 0.0
C16 C 0.11579 0.80132 0.65764 0.0
C17 C 0.1264 0.76821 0.77814 0.0
C18 C 0.16567 0.76951 0.8103 0.0
C19 C 0.13256 0.76066 0.73008 0.0
C20 C 0.17648 0.75008 0.71442 0.0
C21 C 0.21492 0.7491 0.74673 0.0
C22 C 0.20886 0.75819 0.79456 0.0
N23 N 0.09809 0.77146 0.69828 0.0
H24 H 0.7393 0.45915 0.92098 0.0
H25 H 0.6045 0.32642 0.89857 0.0
H26 H 0.71931 0.32623 1.00129 0.0
H27 H 0.60522 0.35914 0.82715 0.0
C28 C 0.6212 0.39964 0.82957 0.0
C29 C 0.71695 0.42064 0.92952 0.0
C30 C 0.73467 0.39616 0.96514 0.0
C31 C 0.67095 0.39585 0.90413 0.0
C32 C 0.64097 0.34597 0.91627 0.0
C33 C 0.65826 0.32087 0.95167 0.0
C34 C 0.70539 0.34605 0.97509 0.0
N35 N 0.65644 0.42235 0.86703 0.0
H36 H 0.81073 0.61778 0.40531 0.0
H37 H 0.93582 0.75751 0.38193 0.0
H38 H 0.82494 0.74593 0.49236 0.0
H39 H 0.93016 0.72444 0.30788 0.0
C40 C 0.92268 0.68483 0.31259 0.0
C41 C 0.83122 0.65643 0.41518 0.0
C42 C 0.81211 0.67848 0.45197 0.0
C43 C 0.87545 0.68446 0.38931 0.0
C44 C 0.90138 0.73541 0.40109 0.0
C45 C 0.88282 0.75796 0.43806 0.0
C46 C 0.83859 0.729 0.46323 0.0
N47 N 0.89263 0.66008 0.352 0.0
H48 H 0.60481 0.77906 0.99397 0.0
H49 H 0.66552 0.75307 0.86138 0.0
H50 H 0.56672 0.84104 0.86722 0.0
H51 H 0.67181 0.68451 0.89928 0.0
C52 C 0.68904 0.70436 0.9314 0.0
C53 C 0.60544 0.78202 0.95589 0.0
C54 C 0.58108 0.81214 0.93368 0.0
C55 C 0.63418 0.75881 0.92975 0.0
C56 C 0.63856 0.76593 0.88081 0.0
C57 C 0.61389 0.79502 0.85771 0.0
C58 C 0.58365 0.81649 0.88437 0.0
N59 N 0.66487 0.73528 0.95399 0.0
H60 H 0.96483 0.32052 0.35679 0.0
H61 H 0.89631 0.35934 0.48078 0.0
H62 H 0.82128 0.34916 0.34651 0.0
H63 H 0.94403 0.32106 0.51942 0.0
C64 C 0.96408 0.30562 0.49406 0.0
C65 C 0.93523 0.33268 0.3728 0.0
C66 C 0.89292 0.3338 0.34579 0.0
C67 C 0.93575 0.33942 0.42157 0.0
C68 C 0.89645 0.35372 0.44305 0.0
C69 C 0.85656 0.36022 0.41543 0.0
C70 C 0.85485 0.34947 0.36695 0.0
N71 N 0.97207 0.3244 0.44749 0.0
H72 H 0.31817 0.6364 0.28777 0.0
H73 H 0.44367 0.77793 0.30617 0.0
H74 H 0.33554 0.75617 0.19129 0.0
H75 H 0.3718 0.60665 0.32967 0.0
C76 C 0.39209 0.63574 0.35483 0.0
C77 C 0.33995 0.67389 0.27603 0.0
C78 C 0.32153 0.69305 0.23681 0.0
C79 C 0.38479 0.70421 0.30107 0.0
C80 C 0.41018 0.75412 0.28654 0.0
C81 C 0.39205 0.77356 0.24741 0.0
C82 C 0.34874 0.74212 0.22239 0.0
N83 N 0.40387 0.68691 0.34209 0.0
H84 H 0.09977 0.30608 0.79155 0.0
H85 H 0.23367 0.44171 0.78137 0.0
H86 H 0.21478 0.32112 0.68386 0.0
H87 H 0.18745 0.47417 0.82665 0.0
C88 C 0.16188 0.44475 0.84857 0.0
C89 C 0.1361 0.32775 0.77468 0.0
C90 C 0.15344 0.30819 0.73499 0.0
C91 C 0.16449 0.37606 0.79183 0.0
C92 C 0.21131 0.40456 0.76891 0.0
C93 C 0.22968 0.38497 0.72965 0.0
C94 C 0.20048 0.33684 0.71346 0.0
N95 N 0.14513 0.39409 0.83237 0.0
Dy96 Dy 0.07237 0.05794 0.54452 0.0
Dy97 Dy 0.9632 1.02125 0.60614 0.0
C98 C 0.06093 0.11804 0.63723 0.0
O99 O 0.08261 1.01024 0.60315 0.0
O100 O 0.99757 0.96197 0.61675 0.0
O101 O 0.15638 0.08411 0.54344 0.0
O102 O 0.11224 0.06641 0.47793 0.0
O103 O 0.94451 0.97826 0.53776 0.0
O104 O 0.02661 0.98164 0.51798 0.0
O105 O 0.9703 0.0952 0.5771 0.0
O106 O 0.02565 0.10202 0.51474 0.0
O107 O 0.8816 1.01197 0.6083 0.0
O108 O 0.91949 0.99396 0.66963 0.0
C109 C 0.0474 0.96859 0.618 0.0
O110 O 0.08108 0.11996 0.595 0.0
O111 O 0.02243 0.07838 0.65208 0.0
C112 C 0.19592 0.12798 0.4756 0.0
C113 C 0.26633 0.20863 0.42666 0.0
C114 C 0.22172 0.21342 0.44769 0.0
C115 C 0.18656 0.17316 0.47206 0.0
C116 C 0.24126 0.12386 0.45636 0.0
C117 C 0.27618 0.16379 0.43208 0.0
C118 C 0.15832 0.08391 0.49751 0.0
C119 C 0.97595 0.96003 0.51506 0.0
C120 C 0.99349 0.11804 0.53907 0.0
C121 C 0.82792 0.95103 0.66037 0.0
C122 C 0.73564 0.88138 0.69649 0.0
C123 C 0.78325 0.87336 0.70127 0.0
C124 C 0.82919 0.90802 0.68335 0.0
C125 C 0.77971 0.95644 0.65175 0.0
C126 C 0.73389 0.92185 0.66959 0.0
C127 C 0.87579 0.9938 0.65087 0.0
H128 H 0.21356 0.24776 0.44446 0.0
H129 H 0.15167 0.17682 0.48716 0.0
H130 H 0.24894 0.08918 0.45896 0.0
H131 H 0.30984 0.15876 0.41576 0.0
H132 H 0.78578 0.84285 0.72248 0.0
H133 H 0.86587 0.90279 0.69022 0.0
H134 H 0.77785 0.98929 0.634 0.0
H135 H 0.69766 0.92885 0.6656 0.0
Dy136 Dy 0.45898 1.02923 1.06904 0.0
Dy137 Dy 0.57727 0.05716 0.11133 0.0
C138 C 0.48149 0.96383 0.15205 0.0
O139 O 0.46449 0.07432 0.13453 0.0
O140 O 0.5512 0.12014 0.133 0.0
O141 O 0.37638 1.00647 0.08278 0.0
O142 O 0.40629 1.0272 1.01213 0.0
O143 O 0.58462 0.09809 1.04297 0.0
O144 O 0.50455 0.10575 1.04204 0.0
O145 O 0.56097 0.9847 0.07433 0.0
O146 O 0.49586 0.98556 1.0238 0.0
O147 O 0.65922 0.07253 0.09775 0.0
O148 O 0.63105 0.07326 0.16934 0.0
C149 C 0.50339 0.11538 0.14467 0.0
O150 O 0.45408 0.96427 0.11422 0.0
O151 O 0.52615 0.99971 0.1614 0.0
C152 C 0.32364 0.96495 1.01954 0.0
C153 C 0.24635 0.88705 0.97276 0.0
C154 C 0.2973 0.88632 0.97689 0.0
C155 C 0.33565 0.92496 1.00028 0.0
C156 C 0.27215 0.96403 1.01858 0.0
C157 C 0.23356 0.92509 0.99555 0.0
C158 C 0.3649 1.00879 1.03852 0.0
C159 C 0.55375 0.12185 1.02944 0.0
C160 C 0.53179 0.96739 1.03711 0.0
C161 C 0.71421 0.13062 0.15136 0.0
C162 C 0.79525 0.21342 0.18736 0.0
C163 C 0.80646 0.17451 0.16443 0.0
C164 C 0.766 0.13302 0.14701 0.0
C165 C 0.70355 0.17216 0.16885 0.0
C166 C 0.74383 0.21323 0.18693 0.0
C167 C 0.67172 0.08329 0.14185 0.0
H168 H 0.30837 0.85765 0.95942 0.0
H169 H 0.37516 0.92484 1.00145 0.0
H170 H 0.26224 0.99438 1.03403 0.0
H171 H 0.19439 0.92602 0.9935 0.0
H172 H 0.84598 0.17439 0.16332 0.0
H173 H 0.77491 0.10163 0.1327 0.0
H174 H 0.6638 0.17145 0.17152 0.0
H175 H 0.73399 0.24272 0.20423 0.0
Dy176 Dy 0.51753 0.4833 0.56433 0.0
Dy177 Dy 0.53023 0.586 0.62364 0.0
C178 C 0.56373 0.50003 0.66945 0.0
O179 O 0.43632 0.46887 0.59121 0.0
O180 O 0.45798 0.5281 0.65051 0.0
O181 O 0.50895 0.40497 0.56135 0.0
O182 O 0.52306 0.44854 0.49756 0.0
O183 O 0.47564 0.58585 0.5642 0.0
O184 O 0.49491 0.5319 0.51333 0.0
O185 O 0.59404 0.60647 0.57061 0.0
O186 O 0.60228 0.53013 0.56391 0.0
O187 O 0.55053 0.66625 0.62677 0.0
O188 O 0.52511 0.62228 0.68972 0.0
C189 C 0.42515 0.4878 0.63059 0.0
O190 O 0.5318 0.46918 0.63939 0.0
O191 O 0.57821 0.54879 0.66348 0.0
C192 C 0.57002 0.39439 0.50655 0.0
C193 C 0.66583 0.38419 0.48191 0.0
C194 C 0.65545 0.39294 0.52896 0.0
C195 C 0.60818 0.39851 0.54113 0.0
C196 C 0.57962 0.38364 0.45987 0.0
C197 C 0.62713 0.37868 0.44763 0.0
C198 C 0.52363 0.40773 0.5174 0.0
C199 C 0.47502 0.56695 0.52162 0.0
C200 C 0.62038 0.57844 0.55675 0.0
C201 C 0.49271 0.68704 0.67736 0.0
C202 C 0.40609 0.71611 0.69574 0.0
C203 C 0.41206 0.69649 0.6515 0.0
C204 C 0.45474 0.68181 0.64252 0.0
C205 C 0.4878 0.70794 0.72115 0.0
C206 C 0.4447 0.72222 0.73037 0.0
C207 C 0.53366 0.66541 0.66985 0.0
H208 H 0.68472 0.39744 0.55596 0.0
H209 H 0.60228 0.40768 0.57731 0.0
H210 H 0.55106 0.38078 0.43256 0.0
H211 H 0.63399 0.37127 0.41118 0.0
H212 H 0.38312 0.69152 0.6241 0.0
H213 H 0.45714 0.66493 0.60878 0.0
H214 H 0.51623 0.71149 0.74874 0.0
H215 H 0.4406 0.73617 0.76519 0.0
Dy216 Dy 0.03885 0.59341 1.06078 0.0
Dy217 Dy 0.03105 0.49417 0.12236 0.0
C218 C 0.98775 0.57768 0.16231 0.0
O219 O 0.10425 0.61839 0.1134 0.0
O220 O 0.11498 0.54313 0.12171 0.0
O221 O 0.04801 0.67171 1.05737 0.0
O222 O 0.03227 0.62674 0.99383 0.0
O223 O 0.051 0.4805 1.04785 0.0
O224 O 0.09218 0.561 1.02374 0.0
O225 O 0.94875 0.47932 0.09857 0.0
O226 O 0.97043 0.52993 1.03378 0.0
O227 O 0.01685 0.41482 0.12774 0.0
O228 O 0.04487 0.46317 0.18821 0.0
C229 C 0.13179 0.59168 0.12817 0.0
O230 O 0.98175 0.58838 0.11834 0.0
O231 O 1.01182 0.54649 0.17283 0.0
C232 C 0.98637 0.68186 1.00404 0.0
C233 C 0.8927 0.69768 0.9823 0.0
C234 C 0.89817 0.67582 1.02519 0.0
C235 C 0.94433 0.66767 1.03577 0.0
C236 C 0.98144 0.70448 0.96143 0.0
C237 C 0.93481 0.71214 0.95052 0.0
C238 C 0.03273 0.66827 1.01353 0.0
C239 C 0.08187 0.51268 1.01821 0.0
C240 C 0.93658 0.49361 1.05754 0.0
C241 C 0.08487 0.40433 0.17327 0.0
C242 C 0.18374 0.39557 0.18517 0.0
C243 C 0.16711 0.40451 0.14041 0.0
C244 C 0.11836 0.40919 0.13455 0.0
C245 C 0.10016 0.39254 0.21755 0.0
C246 C 0.14926 0.3882 0.22348 0.0
C247 C 0.03892 0.41987 0.16915 0.0
H248 H 0.86599 0.66327 1.04982 0.0
H249 H 0.94648 0.64884 1.06822 0.0
H250 H 1.01306 0.715 0.93614 0.0
H251 H 0.93138 0.72881 0.91706 0.0
H252 H 0.1931 0.41092 0.1104 0.0
H253 H 0.10811 0.41925 0.10015 0.0
H254 H 0.07524 0.38921 0.24798 0.0
H255 H 0.16105 0.38091 0.25829 0.0
C256 C 0.3874 0.28442 0.36097 0.0
C257 C 0.36659 0.29756 0.32 0.0
C258 C 0.35489 0.26 0.39799 0.0
C259 C 0.30047 0.24743 0.39501 0.0
H260 H 0.42861 0.29007 0.36301 0.0
H261 H 0.37205 0.24765 0.42768 0.0
S262 S 0.22793 0.28007 0.29768 0.0
N263 N 0.28947 0.30192 0.28073 0.0
N264 N 0.22798 0.25506 0.35 0.0
C265 C 0.27983 0.26464 0.35613 0.0
C266 C 0.31307 0.28993 0.31859 0.0
C267 C 0.18418 0.77299 0.89668 0.0
C268 C 0.1689 0.7938 0.857 0.0
C269 C 0.20461 0.80224 0.93669 0.0
C270 C 0.21033 0.85317 0.93825 0.0
H271 H 0.18421 0.73504 0.89527 0.0
H272 H 0.21957 0.78594 0.96513 0.0
S273 S 0.1704 0.92377 0.84565 0.0
N274 N 0.156 0.86692 0.82359 0.0
N275 N 0.19426 0.92176 0.89865 0.0
C276 C 0.19046 0.873 0.90067 0.0
C277 C 0.1697 0.84328 0.86001 0.0
C278 C 0.57914 0.40118 0.75217 0.0
C279 C 0.6092 0.42843 0.78992 0.0
C280 C 0.56572 0.42493 0.71379 0.0
C281 C 0.5814 0.4775 0.71094 0.0
H282 H 0.56561 0.36067 0.7522 0.0
H283 H 0.5424 0.40131 0.68611 0.0
S284 S 0.66094 0.56699 0.80079 0.0
N285 N 0.65474 0.51148 0.82222 0.0
N286 N 0.62922 0.55633 0.75006 0.0
C287 C 0.61183 0.50558 0.74844 0.0
C288 C 0.62574 0.4811 0.78784 0.0
C289 C 0.93625 0.60713 0.28026 0.0
C290 C 0.93843 0.65686 0.27433 0.0
C291 C 0.95232 0.58152 0.2441 0.0
C292 C 0.97011 0.60435 0.2004 0.0
H293 H 0.92263 0.58799 0.31317 0.0
H294 H 0.95036 0.54348 0.25025 0.0
S295 S 0.98468 0.73442 0.16775 0.0
N296 N 0.96099 0.72809 0.22181 0.0
N297 N 0.99045 0.68027 0.15422 0.0
C298 C 0.97239 0.65401 0.19426 0.0
C299 C 0.95677 0.68014 0.23109 0.0
C300 C 0.42787 0.18926 0.20177 0.0
C301 C 0.46099 0.23936 0.19686 0.0
C302 C 0.44274 0.14967 0.18611 0.0
C303 C 0.49145 0.15828 0.16474 0.0
H304 H 0.38958 0.18044 0.2174 0.0
H305 H 0.41543 0.11192 0.19044 0.0
S306 S 0.59253 0.28254 0.14248 0.0
N307 N 0.54492 0.29551 0.16897 0.0
N308 N 0.5727 0.22095 0.13856 0.0
C309 C 0.52516 0.20819 0.15946 0.0
C310 C 0.50989 0.24872 0.1755 0.0
C311 C 0.1279 0.88413 0.62239 0.0
C312 C 0.09587 0.84223 0.64721 0.0
C313 C 0.11251 0.92535 0.6145 0.0
C314 C 0.06407 0.92607 0.63059 0.0
H315 H 0.16562 0.88542 0.60947 0.0
H316 H 0.13855 0.95651 0.59481 0.0
S317 S 0.96496 0.82476 0.69642 0.0
N318 N 1.01303 0.80338 0.68735 0.0
N319 N 0.98375 0.88065 0.67211 0.0
C320 C 0.03132 0.88407 0.6551 0.0
C321 C 0.04727 0.84221 0.66351 0.0
C322 C 0.82945 0.45026 0.96476 0.0
C323 C 0.78507 0.42189 0.99037 0.0
C324 C 0.87784 0.47295 0.98692 0.0
C325 C 0.88437 0.46809 1.03575 0.0
H326 H 0.82713 0.45424 0.92697 0.0
H327 H 0.91065 0.49402 0.96522 0.0
S328 S 0.7798 0.40065 0.11974 0.0
N329 N 0.75017 0.39267 1.06809 0.0
N330 N 0.84149 0.4342 0.1094 0.0
C331 C 0.84028 0.44022 1.062 0.0
C332 C 0.79067 0.41747 1.03945 0.0
C333 C 0.72654 0.67401 0.48651 0.0
C334 C 0.76309 0.65048 0.47766 0.0
C335 C 0.68121 0.65049 0.51243 0.0
C336 C 0.66981 0.60198 0.53036 0.0
H337 H 0.73287 0.71114 0.47311 0.0
H338 H 0.65461 0.6706 0.51793 0.0
S339 S 0.75243 0.52344 0.517 0.0
N340 N 0.78502 0.57574 0.48923 0.0
N341 N 0.69878 0.53071 0.53697 0.0
C342 C 0.70551 0.57742 0.52121 0.0
C343 C 0.75225 0.60176 0.49504 0.0
C344 C 0.31538 0.3825 0.16285 0.0
C345 C 0.34871 0.42015 0.19198 0.0
C346 C 0.26141 0.37292 0.16235 0.0
C347 C 0.23891 0.39963 0.19197 0.0
H348 H 0.33133 0.36215 0.13857 0.0
H349 H 0.23727 0.34548 0.13766 0.0
S350 S 0.30925 0.49771 0.27879 0.0
N351 N 0.35548 0.48169 0.25333 0.0
N352 N 0.25398 0.46232 0.25403 0.0
C353 C 0.27164 0.43495 0.2235 0.0
C354 C 0.32661 0.44566 0.22297 0.0
C355 C 0.65227 0.23233 0.9663 0.0
C356 C 0.62781 0.2683 0.96538 0.0
C357 C 0.62722 0.18453 0.98523 0.0
C358 C 0.57659 0.17056 1.00427 0.0
H359 H 0.69176 0.2417 0.95331 0.0
H360 H 0.64841 0.15879 0.986 0.0
S361 S 0.49579 0.25158 1.01084 0.0
N362 N 0.55017 0.28686 0.98499 0.0
N363 N 0.50284 0.19731 1.02059 0.0
C364 C 0.55114 0.2059 1.00243 0.0
C365 C 0.57676 0.25461 0.983 0.0
C366 C 0.87907 0.84238 0.45919 0.0
C367 C 0.909 0.81153 0.45182 0.0
C368 C 0.9012 0.89085 0.47815 0.0
C369 C 0.95434 0.91072 0.49032 0.0
H370 H 0.83774 0.82843 0.45123 0.0
H371 H 0.87617 0.9125 0.48413 0.0
S372 S 0.04964 0.84484 0.47859 0.0
N373 N 0.99442 0.80425 0.45842 0.0
N374 N 0.03645 0.89518 0.49339 0.0
C375 C 0.98506 0.88065 0.48193 0.0
C376 C 0.96235 0.83121 0.4628 0.0
C377 C 0.26256 0.69984 0.70622 0.0
C378 C 0.26391 0.74317 0.73066 0.0
C379 C 0.3088 0.69178 0.69447 0.0
C380 C 0.35797 0.72698 0.70648 0.0
H381 H 0.22553 0.67131 0.69746 0.0
H382 H 0.30595 0.65707 0.67697 0.0
S383 S 0.38218 0.84924 0.76579 0.0
N384 N 0.31802 0.82343 0.76339 0.0
N385 N 0.40495 0.80863 0.74076 0.0
C386 C 0.35971 0.77133 0.72939 0.0
C387 C 0.31268 0.77938 0.74153 0.0
C388 C 0.64583 0.8644 0.79983 0.0
C389 C 0.63068 0.81285 0.80907 0.0
C390 C 0.67566 0.88535 0.76034 0.0
C391 C 0.6922 0.85582 0.72878 0.0
H392 H 0.63887 0.88981 0.82527 0.0
H393 H 0.6898 0.92569 0.75698 0.0
S394 S 0.65387 0.71789 0.73084 0.0
N395 N 0.62638 0.73155 0.77835 0.0
N396 N 0.68497 0.7718 0.70492 0.0
C397 C 0.6734 0.80378 0.73485 0.0
C398 C 0.64193 0.78212 0.77473 0.0
C399 C 0.86243 0.32806 0.26191 0.0
C400 C 0.88152 0.30762 0.29961 0.0
C401 C 0.83871 0.29856 0.22283 0.0
C402 C 0.83334 0.24771 0.22026 0.0
H403 H 0.86296 0.36616 0.26401 0.0
H404 H 0.82149 0.31472 0.19593 0.0
S405 S 0.87968 0.17719 0.30854 0.0
N406 N 0.89604 0.23419 0.3306 0.0
N407 N 0.8519 0.17915 0.25743 0.0
C408 C 0.85578 0.22797 0.25609 0.0
C409 C 0.87975 0.25784 0.29576 0.0
C410 C 0.41218 0.57075 0.40204 0.0
C411 C 0.4128 0.62019 0.39874 0.0
C412 C 0.43177 0.554 0.4419 0.0
C413 C 0.45202 0.58558 0.48096 0.0
H414 H 0.39699 0.54473 0.37314 0.0
H415 H 0.43089 0.51575 0.44206 0.0
S416 S 0.46172 0.7184 0.491 0.0
N417 N 0.43504 0.7006 0.43867 0.0
N418 N 0.47118 0.66905 0.51362 0.0
C419 C 0.45209 0.63497 0.47854 0.0
C420 C 0.43276 0.65229 0.43751 0.0
C421 C 0.15334 0.51119 0.90256 0.0
C422 C 0.14136 0.45994 0.8928 0.0
C423 C 0.13459 0.52778 0.94321 0.0
C424 C 0.1031 0.49385 0.97627 0.0
H425 H 0.17718 0.53893 0.87824 0.0
H426 H 0.14468 0.56768 0.94844 0.0
S427 S 0.06222 0.35521 0.9685 0.0
N428 N 0.09718 0.37518 0.92045 0.0
N429 N 0.06215 0.40594 0.99672 0.0
C430 C 0.09152 0.44231 0.9673 0.0
C431 C 0.11052 0.42546 0.92569 0.0
C432 C 0.59654 0.87599 0.99753 0.0
C433 C 0.56349 0.84748 0.96201 0.0
C434 C 0.58545 0.91412 1.02125 0.0
C435 C 0.54084 0.92597 1.01056 0.0
H436 H 0.63255 0.87014 1.00606 0.0
H437 H 0.61307 0.93512 1.04769 0.0
S438 S 0.43956 0.86034 0.92236 0.0
N439 N 0.48263 0.83182 0.91869 0.0
N440 N 0.46193 0.90426 0.96311 0.0
C441 C 0.5067 0.89716 0.97568 0.0
C442 C 0.51799 0.85785 0.95149 0.0
C443 C 0.99032 0.23199 0.47123 0.0
C444 C 0.97498 0.25962 0.50604 0.0
C445 C 0.99676 0.18641 0.48195 0.0
C446 C 0.98756 0.16659 0.52769 0.0
H447 H 0.99656 0.24507 0.43522 0.0
H448 H 1.00804 0.16617 0.45405 0.0
S449 S 0.9521 0.22738 0.63237 0.0
N450 N 0.9545 0.26576 0.58847 0.0
N451 N 0.96631 0.18065 0.60894 0.0
C452 C 0.97374 0.19483 0.56303 0.0
C453 C 0.96753 0.24115 0.55211 0.0
C454 C 0.23454 0.68666 0.2039 0.0
C455 C 0.27227 0.66421 0.21147 0.0
C456 C 0.18994 0.66328 0.17647 0.0
C457 C 0.1808 0.61619 0.15543 0.0
H458 H 0.23975 0.72302 0.21912 0.0
H459 H 0.16218 0.68225 0.17214 0.0
S460 S 0.26881 0.54245 0.1623 0.0
N461 N 0.29841 0.5929 0.19441 0.0
N462 N 0.21426 0.54836 0.14329 0.0
C463 C 0.21812 0.59309 0.16287 0.0
C464 C 0.2638 0.61714 0.19081 0.0
C465 C 0.28209 0.41353 0.65527 0.0
C466 C 0.27946 0.41365 0.70505 0.0
C467 C 0.32923 0.43692 0.6312 0.0
C468 C 0.37549 0.46209 0.6559 0.0
H469 H 0.24733 0.39505 0.63464 0.0
H470 H 0.32928 0.43583 0.59303 0.0
S471 S 0.39087 0.47124 0.78616 0.0
N472 N 0.32837 0.43918 0.7779 0.0
N473 N 0.41627 0.48437 0.73298 0.0
C474 C 0.37347 0.46269 0.70559 0.0
C475 C 0.3257 0.43833 0.73005 0.0
C476 C 0.76719 0.68105 0.91617 0.0
C477 C 0.74086 0.70372 0.9462 0.0
C478 C 0.81682 0.68045 0.92752 0.0
C479 C 0.84182 0.70204 0.96965 0.0
H480 H 0.74933 0.66371 0.8834 0.0
H481 H 0.83532 0.66203 0.90358 0.0
S482 S 0.7905 0.76702 1.06018 0.0
N483 N 0.74414 0.74913 1.01979 0.0
N484 N 0.83728 0.74758 1.04117 0.0
C485 C 0.81613 0.725 1.0 0.0
C486 C 0.7657 0.72599 0.98828 0.0
C487 C 0.47081 0.84704 0.22209 0.0
C488 C 0.41692 0.82656 0.23158 0.0
C489 C 0.49256 0.89332 0.19883 0.0
C490 C 0.461 0.92027 0.18391 0.0
H491 H 0.49579 0.82596 0.23035 0.0
H492 H 0.53365 0.90658 0.19005 0.0
S493 S 0.3197 0.88728 0.20714 0.0
N494 N 0.33428 0.84075 0.23002 0.0
N495 N 0.37464 0.926 0.18494 0.0
C496 C 0.40792 0.90172 0.19583 0.0
C497 C 0.38605 0.85541 0.22007 0.0
C498 C 0.11472 0.25652 0.66429 0.0
C499 C 0.12253 0.25903 0.71334 0.0
C500 C 0.0936 0.21072 0.6408 0.0
C501 C 0.07851 0.16512 0.66524 0.0
H502 H 0.12658 0.2904 0.64353 0.0
H503 H 0.08971 0.21117 0.60281 0.0
S504 S 0.08633 0.1508 0.79445 0.0
N505 N 0.11073 0.2119 0.78617 0.0
N506 N 0.06935 0.12526 0.74176 0.0
C507 C 0.08302 0.16687 0.71463 0.0
C508 C 0.10536 0.21394 0.73874 0.0
C509 C 0.78363 0.34281 0.47417 0.0
C510 C 0.81253 0.37196 0.43694 0.0
C511 C 0.73692 0.34796 0.48964 0.0
C512 C 0.71741 0.38215 0.46815 0.0
H513 H 0.79591 0.31427 0.49 0.0
H514 H 0.71489 0.3237 0.51731 0.0
S515 S 0.78235 0.47239 0.37441 0.0
N516 N 0.82121 0.44003 0.38277 0.0
N517 N 0.73333 0.44925 0.41146 0.0
C518 C 0.74733 0.41326 0.43269 0.0
C519 C 0.7949 0.40829 0.41721 0.0
loop_
_geom_bond_atom_site_label_1
_geom_bond_atom_site_label_2
_geom_bond_distance
_geom_bond_site_symmetry_2
_ccdc_geom_bond_type
H0 C5 0.930 . S
H1 C8 0.930 . S
H2 C10 0.930 . S
H3 C4 1.016 . S
C4 H3 1.016 . S
C4 N11 1.286 . S
C5 H0 0.930 . S
C5 C6 1.397 . S
C5 C7 1.361 . S
C6 C5 1.397 . S
C6 C10 1.390 . S
C7 C5 1.361 . S
C7 C8 1.393 . S
C7 N11 1.413 . S
C8 H1 0.930 . S
C8 C7 1.393 . S
C8 C9 1.399 . S
C9 C8 1.399 . S
C9 C10 1.381 . S
C10 H2 0.930 . S
C10 C6 1.390 . S
C10 C9 1.381 . S
N11 C4 1.286 . S
N11 C7 1.413 . S
H12 C17 0.930 . S
H13 C20 0.930 . S
H14 C22 0.930 . S
H15 C16 1.016 . S
C16 H15 1.016 . S
C16 N23 1.286 . S
C17 H12 0.930 . S
C17 C18 1.397 . S
C17 C19 1.361 . S
C18 C17 1.397 . S
C18 C22 1.390 . S
C19 C17 1.361 . S
C19 C20 1.393 . S
C19 N23 1.413 . S
C20 H13 0.930 . S
C20 C19 1.393 . S
C20 C21 1.399 . S
C21 C20 1.399 . S
C21 C22 1.381 . S
C22 H14 0.930 . S
C22 C18 1.390 . S
C22 C21 1.381 . S
N23 C16 1.286 . S
N23 C19 1.413 . S
H24 C29 0.930 . S
H25 C32 0.930 . S
H26 C34 0.930 . S
H27 C28 1.016 . S
C28 H27 1.016 . S
C28 N35 1.286 . S
C29 H24 0.930 . S
C29 C30 1.397 . S
C29 C31 1.361 . S
C30 C29 1.397 . S
C30 C34 1.390 . S
C31 C29 1.361 . S
C31 C32 1.393 . S
C31 N35 1.413 . S
C32 H25 0.930 . S
C32 C31 1.393 . S
C32 C33 1.399 . S
C33 C32 1.399 . S
C33 C34 1.381 . S
C34 H26 0.930 . S
C34 C30 1.390 . S
C34 C33 1.381 . S
N35 C28 1.286 . S
N35 C31 1.413 . S
H36 C41 0.930 . S
H37 C44 0.930 . S
H38 C46 0.930 . S
H39 C40 1.016 . S
C40 H39 1.016 . S
C40 N47 1.286 . S
C41 H36 0.930 . S
C41 C42 1.397 . S
C41 C43 1.361 . S
C42 C41 1.397 . S
C42 C46 1.390 . S
C43 C41 1.361 . S
C43 C44 1.393 . S
C43 N47 1.413 . S
C44 H37 0.930 . S
C44 C43 1.393 . S
C44 C45 1.399 . S
C45 C44 1.399 . S
C45 C46 1.381 . S
C46 H38 0.930 . S
C46 C42 1.390 . S
C46 C45 1.381 . S
N47 C40 1.286 . S
N47 C43 1.413 . S
H48 C53 0.930 . S
H49 C56 0.930 . S
H50 C58 0.930 . S
H51 C52 1.016 . S
C52 H51 1.016 . S
C52 N59 1.286 . S
C53 H48 0.930 . S
C53 C54 1.397 . S
C53 C55 1.361 . S
C54 C53 1.397 . S
C54 C58 1.390 . S
C55 C53 1.361 . S
C55 C56 1.393 . S
C55 N59 1.413 . S
C56 H49 0.930 . S
C56 C55 1.393 . S
C56 C57 1.399 . S
C57 C56 1.399 . S
C57 C58 1.381 . S
C58 H50 0.930 . S
C58 C54 1.390 . S
C58 C57 1.381 . S
N59 C52 1.286 . S
N59 C55 1.413 . S
H60 C65 0.930 . S
H61 C68 0.930 . S
H62 C70 0.930 . S
H63 C64 1.016 . S
C64 H63 1.016 . S
C64 N71 1.286 . S
C65 H60 0.930 . S
C65 C66 1.397 . S
C65 C67 1.361 . S
C66 C65 1.397 . S
C66 C70 1.390 . S
C67 C65 1.361 . S
C67 C68 1.393 . S
C67 N71 1.413 . S
C68 H61 0.930 . S
C68 C67 1.393 . S
C68 C69 1.399 . S
C69 C68 1.399 . S
C69 C70 1.381 . S
C70 H62 0.930 . S
C70 C66 1.390 . S
C70 C69 1.381 . S
N71 C64 1.286 . S
N71 C67 1.413 . S
H72 C77 0.930 . S
H73 C80 0.930 . S
H74 C82 0.930 . S
H75 C76 1.016 . S
C76 H75 1.016 . S
C76 N83 1.286 . S
C77 H72 0.930 . S
C77 C78 1.397 . S
C77 C79 1.361 . S
C78 C77 1.397 . S
C78 C82 1.390 . S
C79 C77 1.361 . S
C79 C80 1.393 . S
C79 N83 1.413 . S
C80 H73 0.930 . S
C80 C79 1.393 . S
C80 C81 1.399 . S
C81 C80 1.399 . S
C81 C82 1.381 . S
C82 H74 0.930 . S
C82 C78 1.390 . S
C82 C81 1.381 . S
N83 C76 1.286 . S
N83 C79 1.413 . S
H84 C89 0.930 . S
H85 C92 0.930 . S
H86 C94 0.930 . S
H87 C88 1.016 . S
C88 H87 1.016 . S
C88 N95 1.286 . S
C89 H84 0.930 . S
C89 C90 1.397 . S
C89 C91 1.361 . S
C90 C89 1.397 . S
C90 C94 1.390 . S
C91 C89 1.361 . S
C91 C92 1.393 . S
C91 N95 1.413 . S
C92 H85 0.930 . S
C92 C91 1.393 . S
C92 C93 1.399 . S
C93 C92 1.399 . S
C93 C94 1.381 . S
C94 H86 0.930 . S
C94 C90 1.390 . S
C94 C93 1.381 . S
N95 C88 1.286 . S
N95 C91 1.413 . S
Dy96 O99 2.307 1_545 S
Dy96 O101 2.395 . S
Dy96 O102 2.379 . S
Dy96 O104 2.339 1_545 S
Dy96 O106 2.298 . S
Dy96 O110 2.275 . S
Dy96 C118 2.738 . S
Dy97 O100 2.287 1_655 S
Dy97 O103 2.275 . S
Dy97 O105 2.307 1_565 S
Dy97 O107 2.395 . S
Dy97 O108 2.379 . S
Dy97 O111 2.339 1_565 S
Dy97 C127 2.738 . S
C98 O110 1.254 . S
C98 O111 1.257 1_455 S
O99 Dy96 2.307 1_565 S
O99 C109 1.266 . S
O100 Dy97 2.287 1_455 S
O100 C109 1.246 . S
O101 Dy96 2.395 . S
O101 C118 1.255 . S
O102 Dy96 2.379 . S
O102 C118 1.249 . S
O103 Dy97 2.275 . S
O103 C119 1.254 . S
O104 Dy96 2.339 1_565 S
O104 C119 1.257 1_455 S
O105 Dy97 2.307 1_545 S
O105 C120 1.266 . S
O106 Dy96 2.298 . S
O106 C120 1.236 1_455 S
O107 Dy97 2.395 . S
O107 C127 1.255 . S
O108 Dy97 2.379 . S
O108 C127 1.249 . S
C109 O99 1.266 . S
C109 O100 1.246 . S
O110 Dy96 2.275 . S
O110 C98 1.254 . S
O111 Dy97 2.339 1_545 S
O111 C98 1.257 1_655 S
C112 C115 1.344 . S
C112 C116 1.328 . S
C112 C118 1.516 . S
C113 C114 1.304 . S
C113 C117 1.323 . S
C114 C113 1.304 . S
C114 C115 1.371 . S
C114 H128 0.930 . S
C115 C112 1.344 . S
C115 C114 1.371 . S
C115 H129 0.931 . S
C116 C112 1.328 . S
C116 C117 1.433 . S
C116 H130 0.931 . S
C117 C113 1.323 . S
C117 C116 1.433 . S
C117 H131 0.933 . S
C118 Dy96 2.738 . S
C118 O101 1.255 . S
C118 O102 1.249 . S
C118 C112 1.516 . S
C119 O103 1.254 . S
C119 O104 1.257 1_655 S
C120 O105 1.266 . S
C120 O106 1.236 1_655 S
C121 C124 1.344 . S
C121 C125 1.328 . S
C121 C127 1.516 . S
C122 C123 1.304 . S
C122 C126 1.323 . S
C123 C122 1.304 . S
C123 C124 1.371 . S
C123 H132 0.930 . S
C124 C121 1.344 . S
C124 C123 1.371 . S
C124 H133 0.931 . S
C125 C121 1.328 . S
C125 C126 1.433 . S
C125 H134 0.931 . S
C126 C122 1.323 . S
C126 C125 1.433 . S
C126 H135 0.933 . S
C127 Dy97 2.738 . S
C127 O107 1.255 . S
C127 O108 1.249 . S
C127 C121 1.516 . S
H128 C114 0.930 . S
H129 C115 0.931 . S
H130 C116 0.931 . S
H131 C117 0.933 . S
H132 C123 0.930 . S
H133 C124 0.931 . S
H134 C125 0.931 . S
H135 C126 0.933 . S
Dy136 O139 2.307 1_556 S
Dy136 O141 2.395 1_545 S
Dy136 O142 2.379 1_545 S
Dy136 O144 2.339 . S
Dy136 O146 2.298 1_545 S
Dy136 O150 2.275 1_546 S
Dy136 C158 2.738 1_545 S
Dy137 O140 2.298 . S
Dy137 O143 2.275 1_554 S
Dy137 O145 2.307 1_544 S
Dy137 O147 2.395 . S
Dy137 O148 2.379 . S
Dy137 O151 2.339 1_545 S
Dy137 C167 2.738 . S
C138 O150 1.254 . S
C138 O151 1.257 . S
O139 Dy136 2.307 1_554 S
O139 C149 1.266 . S
O140 Dy137 2.298 . S
O140 C149 1.236 . S
O141 Dy136 2.395 1_565 S
O141 C158 1.255 . S
O142 Dy136 2.379 1_565 S
O142 C158 1.249 . S
O143 Dy137 2.275 1_556 S
O143 C159 1.254 . S
O144 Dy136 2.339 . S
O144 C159 1.257 . S
O145 Dy137 2.307 1_566 S
O145 C160 1.266 . S
O146 Dy136 2.298 1_565 S
O146 C160 1.236 . S
O147 Dy137 2.395 . S
O147 C167 1.255 . S
O148 Dy137 2.379 . S
O148 C167 1.249 . S
C149 O139 1.266 . S
C149 O140 1.236 . S
O150 Dy136 2.275 1_564 S
O150 C138 1.254 . S
O151 Dy137 2.339 1_565 S
O151 C138 1.257 . S
C152 C155 1.344 . S
C152 C156 1.328 . S
C152 C158 1.516 . S
C153 C154 1.304 . S
C153 C157 1.323 . S
C154 C153 1.304 . S
C154 C155 1.371 . S
C154 H168 0.930 . S
C155 C152 1.344 . S
C155 C154 1.371 . S
C155 H169 0.931 . S
C156 C152 1.328 . S
C156 C157 1.433 . S
C156 H170 0.931 . S
C157 C153 1.323 . S
C157 C156 1.433 . S
C157 H171 0.933 . S
C158 Dy136 2.738 1_565 S
C158 O141 1.255 . S
C158 O142 1.249 . S
C158 C152 1.516 . S
C159 O143 1.254 . S
C159 O144 1.257 . S
C160 O145 1.266 . S
C160 O146 1.236 . S
C161 C164 1.344 . S
C161 C165 1.328 . S
C161 C167 1.516 . S
C162 C163 1.304 . S
C162 C166 1.323 . S
C163 C162 1.304 . S
C163 C164 1.371 . S
C163 H172 0.930 . S
C164 C161 1.344 . S
C164 C163 1.371 . S
C164 H173 0.931 . S
C165 C161 1.328 . S
C165 C166 1.433 . S
C165 H174 0.931 . S
C166 C162 1.323 . S
C166 C165 1.433 . S
C166 H175 0.933 . S
C167 Dy137 2.738 . S
C167 O147 1.255 . S
C167 O148 1.249 . S
C167 C161 1.516 . S
H168 C154 0.930 . S
H169 C155 0.931 . S
H170 C156 0.931 . S
H171 C157 0.933 . S
H172 C163 0.930 . S
H173 C164 0.931 . S
H174 C165 0.931 . S
H175 C166 0.933 . S
Dy176 O179 2.307 . S
Dy176 O181 2.395 . S
Dy176 O182 2.379 . S
Dy176 O184 2.339 . S
Dy176 O186 2.298 . S
Dy176 O190 2.275 . S
Dy176 C198 2.738 . S
Dy177 O180 2.298 . S
Dy177 O183 2.275 . S
Dy177 O185 2.307 . S
Dy177 O187 2.395 . S
Dy177 O188 2.379 . S
Dy177 O191 2.339 . S
Dy177 C207 2.738 . S
C178 O190 1.254 . S
C178 O191 1.257 . S
O179 Dy176 2.307 . S
O179 C189 1.266 . S
O180 Dy177 2.298 . S
O180 C189 1.236 . S
O181 Dy176 2.395 . S
O181 C198 1.255 . S
O182 Dy176 2.379 . S
O182 C198 1.249 . S
O183 Dy177 2.275 . S
O183 C199 1.254 . S
O184 Dy176 2.339 . S
O184 C199 1.257 . S
O185 Dy177 2.307 . S
O185 C200 1.266 . S
O186 Dy176 2.298 . S
O186 C200 1.236 . S
O187 Dy177 2.395 . S
O187 C207 1.255 . S
O188 Dy177 2.379 . S
O188 C207 1.249 . S
C189 O179 1.266 . S
C189 O180 1.236 . S
O190 Dy176 2.275 . S
O190 C178 1.254 . S
O191 Dy177 2.339 . S
O191 C178 1.257 . S
C192 C195 1.344 . S
C192 C196 1.328 . S
C192 C198 1.516 . S
C193 C194 1.304 . S
C193 C197 1.323 . S
C194 C193 1.304 . S
C194 C195 1.371 . S
C194 H208 0.930 . S
C195 C192 1.344 . S
C195 C194 1.371 . S
C195 H209 0.931 . S
C196 C192 1.328 . S
C196 C197 1.433 . S
C196 H210 0.931 . S
C197 C193 1.323 . S
C197 C196 1.433 . S
C197 H211 0.933 . S
C198 Dy176 2.738 . S
C198 O181 1.255 . S
C198 O182 1.249 . S
C198 C192 1.516 . S
C199 O183 1.254 . S
C199 O184 1.257 . S
C200 O185 1.266 . S
C200 O186 1.236 . S
C201 C204 1.344 . S
C201 C205 1.328 . S
C201 C207 1.516 . S
C202 C203 1.304 . S
C202 C206 1.323 . S
C203 C202 1.304 . S
C203 C204 1.371 . S
C203 H212 0.930 . S
C204 C201 1.344 . S
C204 C203 1.371 . S
C204 H213 0.931 . S
C205 C201 1.328 . S
C205 C206 1.433 . S
C205 H214 0.931 . S
C206 C202 1.323 . S
C206 C205 1.433 . S
C206 H215 0.933 . S
C207 Dy177 2.738 . S
C207 O187 1.255 . S
C207 O188 1.249 . S
C207 C201 1.516 . S
H208 C194 0.930 . S
H209 C195 0.931 . S
H210 C196 0.931 . S
H211 C197 0.933 . S
H212 C203 0.930 . S
H213 C204 0.931 . S
H214 C205 0.931 . S
H215 C206 0.933 . S
Dy216 O219 2.307 1_556 S
Dy216 O221 2.395 1_455 S
Dy216 O222 2.379 1_455 S
Dy216 O224 2.339 . S
Dy216 O226 2.298 1_455 S
Dy216 O230 2.275 1_456 S
Dy216 C238 2.738 1_455 S
Dy217 O220 2.298 . S
Dy217 O223 2.275 1_554 S
Dy217 O225 2.307 1_455 S
Dy217 O227 2.395 . S
Dy217 O228 2.379 . S
Dy217 O231 2.339 1_455 S
Dy217 C247 2.738 . S
C218 O230 1.254 . S
C218 O231 1.257 . S
O219 Dy216 2.307 1_554 S
O219 C229 1.266 . S
O220 Dy217 2.298 . S
O220 C229 1.236 . S
O221 Dy216 2.395 1_655 S
O221 C238 1.255 . S
O222 Dy216 2.379 1_655 S
O222 C238 1.249 . S
O223 Dy217 2.275 1_556 S
O223 C239 1.254 . S
O224 Dy216 2.339 . S
O224 C239 1.257 . S
O225 Dy217 2.307 1_655 S
O225 C240 1.266 1_554 S
O226 Dy216 2.298 1_655 S
O226 C240 1.236 . S
O227 Dy217 2.395 . S
O227 C247 1.255 . S
O228 Dy217 2.379 . S
O228 C247 1.249 . S
C229 O219 1.266 . S
C229 O220 1.236 . S
O230 Dy216 2.275 1_654 S
O230 C218 1.254 . S
O231 Dy217 2.339 1_655 S
O231 C218 1.257 . S
C232 C235 1.344 . S
C232 C236 1.328 . S
C232 C238 1.516 . S
C233 C234 1.304 . S
C233 C237 1.323 . S
C234 C233 1.304 . S
C234 C235 1.371 . S
C234 H248 0.930 . S
C235 C232 1.344 . S
C235 C234 1.371 . S
C235 H249 0.931 . S
C236 C232 1.328 . S
C236 C237 1.433 . S
C236 H250 0.931 . S
C237 C233 1.323 . S
C237 C236 1.433 . S
C237 H251 0.933 . S
C238 Dy216 2.738 1_655 S
C238 O221 1.255 . S
C238 O222 1.249 . S
C238 C232 1.516 . S
C239 O223 1.254 . S
C239 O224 1.257 . S
C240 O225 1.266 1_556 S
C240 O226 1.236 . S
C241 C244 1.344 . S
C241 C245 1.328 . S
C241 C247 1.516 . S
C242 C243 1.304 . S
C242 C246 1.323 . S
C243 C242 1.304 . S
C243 C244 1.371 . S
C243 H252 0.930 . S
C244 C241 1.344 . S
C244 C243 1.371 . S
C244 H253 0.931 . S
C245 C241 1.328 . S
C245 C246 1.433 . S
C245 H254 0.931 . S
C246 C242 1.323 . S
C246 C245 1.433 . S
C246 H255 0.933 . S
C247 Dy217 2.738 . S
C247 O227 1.255 . S
C247 O228 1.249 . S
C247 C241 1.516 . S
H248 C234 0.930 . S
H249 C235 0.931 . S
H250 C236 0.931 . S
H251 C237 0.933 . S
H252 C243 0.930 . S
H253 C244 0.931 . S
H254 C245 0.931 . S
H255 C246 0.933 . S
C256 C257 1.369 . S
C256 C258 1.419 . S
C256 H260 0.930 . S
C257 C256 1.369 . S
C257 C266 1.429 . S
C258 C256 1.419 . S
C258 C259 1.363 . S
C258 H261 0.929 . S
C259 C258 1.363 . S
C259 C265 1.428 . S
H260 C256 0.930 . S
H261 C258 0.929 . S
S262 N263 1.613 . S
S262 N264 1.610 . S
N263 S262 1.613 . S
N263 C266 1.350 . S
N264 S262 1.610 . S
N264 C265 1.351 . S
C265 C259 1.428 . S
C265 N264 1.351 . S
C265 C266 1.434 . S
C266 C257 1.429 . S
C266 N263 1.350 . S
C266 C265 1.434 . S
C267 C268 1.369 . S
C267 C269 1.419 . S
C267 H271 0.930 . S
C268 C267 1.369 . S
C268 C277 1.429 . S
C269 C267 1.419 . S
C269 C270 1.363 . S
C269 H272 0.929 . S
C270 C269 1.363 . S
C270 C276 1.428 . S
H271 C267 0.930 . S
H272 C269 0.929 . S
S273 N274 1.613 . S
S273 N275 1.610 . S
N274 S273 1.613 . S
N274 C277 1.350 . S
N275 S273 1.610 . S
N275 C276 1.351 . S
C276 C270 1.428 . S
C276 N275 1.351 . S
C276 C277 1.434 . S
C277 C268 1.429 . S
C277 N274 1.350 . S
C277 C276 1.434 . S
C278 C279 1.369 . S
C278 C280 1.419 . S
C278 H282 0.930 . S
C279 C278 1.369 . S
C279 C288 1.429 . S
C280 C278 1.419 . S
C280 C281 1.363 . S
C280 H283 0.929 . S
C281 C280 1.363 . S
C281 C287 1.428 . S
H282 C278 0.930 . S
H283 C280 0.929 . S
S284 N285 1.613 . S
S284 N286 1.610 . S
N285 S284 1.613 . S
N285 C288 1.350 . S
N286 S284 1.610 . S
N286 C287 1.351 . S
C287 C281 1.428 . S
C287 N286 1.351 . S
C287 C288 1.434 . S
C288 C279 1.429 . S
C288 N285 1.350 . S
C288 C287 1.434 . S
C289 C290 1.369 . S
C289 C291 1.419 . S
C289 H293 0.930 . S
C290 C289 1.369 . S
C290 C299 1.429 . S
C291 C289 1.419 . S
C291 C292 1.363 . S
C291 H294 0.929 . S
C292 C291 1.363 . S
C292 C298 1.428 . S
H293 C289 0.930 . S
H294 C291 0.929 . S
S295 N296 1.613 1_455 S
S295 N297 1.610 . S
N296 S295 1.613 1_655 S
N296 C299 1.350 . S
N297 S295 1.610 . S
N297 C298 1.351 1_455 S
C298 C292 1.428 . S
C298 N297 1.351 1_655 S
C298 C299 1.434 . S
C299 C290 1.429 . S
C299 N296 1.350 . S
C299 C298 1.434 . S
C300 C301 1.369 . S
C300 C302 1.419 . S
C300 H304 0.930 . S
C301 C300 1.369 . S
C301 C310 1.429 . S
C302 C300 1.419 . S
C302 C303 1.363 . S
C302 H305 0.929 . S
C303 C302 1.363 . S
C303 C309 1.428 . S
H304 C300 0.930 . S
H305 C302 0.929 . S
S306 N307 1.613 . S
S306 N308 1.610 . S
N307 S306 1.613 . S
N307 C310 1.350 . S
N308 S306 1.610 . S
N308 C309 1.351 . S
C309 C303 1.428 . S
C309 N308 1.351 . S
C309 C310 1.434 . S
C310 C301 1.429 . S
C310 N307 1.350 . S
C310 C309 1.434 . S
C311 C312 1.369 . S
C311 C313 1.419 . S
C311 H315 0.930 . S
C312 C311 1.369 . S
C312 C321 1.429 . S
C313 C311 1.419 . S
C313 C314 1.363 . S
C313 H316 0.929 . S
C314 C313 1.363 . S
C314 C320 1.428 . S
H315 C311 0.930 . S
H316 C313 0.929 . S
S317 N318 1.613 . S
S317 N319 1.610 . S
N318 S317 1.613 . S
N318 C321 1.350 . S
N319 S317 1.610 . S
N319 C320 1.351 . S
C320 C314 1.428 . S
C320 N319 1.351 . S
C320 C321 1.434 . S
C321 C312 1.429 . S
C321 N318 1.350 . S
C321 C320 1.434 . S
C322 C323 1.369 . S
C322 C324 1.419 . S
C322 H326 0.930 . S
C323 C322 1.369 . S
C323 C332 1.429 . S
C324 C322 1.419 . S
C324 C325 1.363 . S
C324 H327 0.929 . S
C325 C324 1.363 . S
C325 C331 1.428 . S
H326 C322 0.930 . S
H327 C324 0.929 . S
S328 N329 1.613 1_554 S
S328 N330 1.610 . S
N329 S328 1.613 1_556 S
N329 C332 1.350 . S
N330 S328 1.610 . S
N330 C331 1.351 1_554 S
C331 C325 1.428 . S
C331 N330 1.351 1_556 S
C331 C332 1.434 . S
C332 C323 1.429 . S
C332 N329 1.350 . S
C332 C331 1.434 . S
C333 C334 1.369 . S
C333 C335 1.419 . S
C333 H337 0.930 . S
C334 C333 1.369 . S
C334 C343 1.429 . S
C335 C333 1.419 . S
C335 C336 1.363 . S
C335 H338 0.929 . S
C336 C335 1.363 . S
C336 C342 1.428 . S
H337 C333 0.930 . S
H338 C335 0.929 . S
S339 N340 1.613 . S
S339 N341 1.610 . S
N340 S339 1.613 . S
N340 C343 1.350 . S
N341 S339 1.610 . S
N341 C342 1.351 . S
C342 C336 1.428 . S
C342 N341 1.351 . S
C342 C343 1.434 . S
C343 C334 1.429 . S
C343 N340 1.350 . S
C343 C342 1.434 . S
C344 C345 1.369 . S
C344 C346 1.419 . S
C344 H348 0.930 . S
C345 C344 1.369 . S
C345 C354 1.429 . S
C346 C344 1.419 . S
C346 C347 1.363 . S
C346 H349 0.929 . S
C347 C346 1.363 . S
C347 C353 1.428 . S
H348 C344 0.930 . S
H349 C346 0.929 . S
S350 N351 1.613 . S
S350 N352 1.610 . S
N351 S350 1.613 . S
N351 C354 1.350 . S
N352 S350 1.610 . S
N352 C353 1.351 . S
C353 C347 1.428 . S
C353 N352 1.351 . S
C353 C354 1.434 . S
C354 C345 1.429 . S
C354 N351 1.350 . S
C354 C353 1.434 . S
C355 C356 1.369 . S
C355 C357 1.419 . S
C355 H359 0.930 . S
C356 C355 1.369 . S
C356 C365 1.429 . S
C357 C355 1.419 . S
C357 C358 1.363 . S
C357 H360 0.929 . S
C358 C357 1.363 . S
C358 C364 1.428 . S
H359 C355 0.930 . S
H360 C357 0.929 . S
S361 N362 1.613 . S
S361 N363 1.610 . S
N362 S361 1.613 . S
N362 C365 1.350 . S
N363 S361 1.610 . S
N363 C364 1.351 . S
C364 C358 1.428 . S
C364 N363 1.351 . S
C364 C365 1.434 . S
C365 C356 1.429 . S
C365 N362 1.350 . S
C365 C364 1.434 . S
C366 C367 1.369 . S
C366 C368 1.419 . S
C366 H370 0.930 . S
C367 C366 1.369 . S
C367 C376 1.429 . S
C368 C366 1.419 . S
C368 C369 1.363 . S
C368 H371 0.929 . S
C369 C368 1.363 . S
C369 C375 1.428 . S
H370 C366 0.930 . S
H371 C368 0.929 . S
S372 N373 1.613 1_455 S
S372 N374 1.610 . S
N373 S372 1.613 1_655 S
N373 C376 1.350 . S
N374 S372 1.610 . S
N374 C375 1.351 1_455 S
C375 C369 1.428 . S
C375 N374 1.351 1_655 S
C375 C376 1.434 . S
C376 C367 1.429 . S
C376 N373 1.350 . S
C376 C375 1.434 . S
C377 C378 1.369 . S
C377 C379 1.419 . S
C377 H381 0.930 . S
C378 C377 1.369 . S
C378 C387 1.429 . S
C379 C377 1.419 . S
C379 C380 1.363 . S
C379 H382 0.929 . S
C380 C379 1.363 . S
C380 C386 1.428 . S
H381 C377 0.930 . S
H382 C379 0.929 . S
S383 N384 1.613 . S
S383 N385 1.610 . S
N384 S383 1.613 . S
N384 C387 1.350 . S
N385 S383 1.610 . S
N385 C386 1.351 . S
C386 C380 1.428 . S
C386 N385 1.351 . S
C386 C387 1.434 . S
C387 C378 1.429 . S
C387 N384 1.350 . S
C387 C386 1.434 . S
C388 C389 1.369 . S
C388 C390 1.419 . S
C388 H392 0.930 . S
C389 C388 1.369 . S
C389 C398 1.429 . S
C390 C388 1.419 . S
C390 C391 1.363 . S
C390 H393 0.929 . S
C391 C390 1.363 . S
C391 C397 1.428 . S
H392 C388 0.930 . S
H393 C390 0.929 . S
S394 N395 1.613 . S
S394 N396 1.610 . S
N395 S394 1.613 . S
N395 C398 1.350 . S
N396 S394 1.610 . S
N396 C397 1.351 . S
C397 C391 1.428 . S
C397 N396 1.351 . S
C397 C398 1.434 . S
C398 C389 1.429 . S
C398 N395 1.350 . S
C398 C397 1.434 . S
C399 C400 1.369 . S
C399 C401 1.419 . S
C399 H403 0.930 . S
C400 C399 1.369 . S
C400 C409 1.429 . S
C401 C399 1.419 . S
C401 C402 1.363 . S
C401 H404 0.929 . S
C402 C401 1.363 . S
C402 C408 1.428 . S
H403 C399 0.930 . S
H404 C401 0.929 . S
S405 N406 1.613 . S
S405 N407 1.610 . S
N406 S405 1.613 . S
N406 C409 1.350 . S
N407 S405 1.610 . S
N407 C408 1.351 . S
C408 C402 1.428 . S
C408 N407 1.351 . S
C408 C409 1.434 . S
C409 C400 1.429 . S
C409 N406 1.350 . S
C409 C408 1.434 . S
C410 C411 1.369 . S
C410 C412 1.419 . S
C410 H414 0.930 . S
C411 C410 1.369 . S
C411 C420 1.429 . S
C412 C410 1.419 . S
C412 C413 1.363 . S
C412 H415 0.929 . S
C413 C412 1.363 . S
C413 C419 1.428 . S
H414 C410 0.930 . S
H415 C412 0.929 . S
S416 N417 1.613 . S
S416 N418 1.610 . S
N417 S416 1.613 . S
N417 C420 1.350 . S
N418 S416 1.610 . S
N418 C419 1.351 . S
C419 C413 1.428 . S
C419 N418 1.351 . S
C419 C420 1.434 . S
C420 C411 1.429 . S
C420 N417 1.350 . S
C420 C419 1.434 . S
C421 C422 1.369 . S
C421 C423 1.419 . S
C421 H425 0.930 . S
C422 C421 1.369 . S
C422 C431 1.429 . S
C423 C421 1.419 . S
C423 C424 1.363 . S
C423 H426 0.929 . S
C424 C423 1.363 . S
C424 C430 1.428 . S
H425 C421 0.930 . S
H426 C423 0.929 . S
S427 N428 1.613 1_655 S
S427 N429 1.610 1_655 S
N428 S427 1.613 1_455 S
N428 C431 1.350 . S
N429 S427 1.610 1_455 S
N429 C430 1.351 . S
C430 C424 1.428 . S
C430 N429 1.351 . S
C430 C431 1.434 . S
C431 C422 1.429 . S
C431 N428 1.350 . S
C431 C430 1.434 . S
C432 C433 1.369 . S
C432 C434 1.419 . S
C432 H436 0.930 . S
C433 C432 1.369 . S
C433 C442 1.429 . S
C434 C432 1.419 . S
C434 C435 1.363 . S
C434 H437 0.929 . S
C435 C434 1.363 . S
C435 C441 1.428 . S
H436 C432 0.930 . S
H437 C434 0.929 . S
S438 N439 1.613 . S
S438 N440 1.610 . S
N439 S438 1.613 . S
N439 C442 1.350 . S
N440 S438 1.610 . S
N440 C441 1.351 . S
C441 C435 1.428 . S
C441 N440 1.351 . S
C441 C442 1.434 . S
C442 C433 1.429 . S
C442 N439 1.350 . S
C442 C441 1.434 . S
C443 C444 1.369 . S
C443 C445 1.419 . S
C443 H447 0.930 . S
C444 C443 1.369 . S
C444 C453 1.429 . S
C445 C443 1.419 . S
C445 C446 1.363 . S
C445 H448 0.929 . S
C446 C445 1.363 . S
C446 C452 1.428 . S
H447 C443 0.930 . S
H448 C445 0.929 . S
S449 N450 1.613 1_655 S
S449 N451 1.610 . S
N450 S449 1.613 1_455 S
N450 C453 1.350 1_455 S
N451 S449 1.610 . S
N451 C452 1.351 . S
C452 C446 1.428 . S
C452 N451 1.351 . S
C452 C453 1.434 . S
C453 C444 1.429 . S
C453 N450 1.350 1_655 S
C453 C452 1.434 . S
C454 C455 1.369 . S
C454 C456 1.419 . S
C454 H458 0.930 . S
C455 C454 1.369 . S
C455 C464 1.429 . S
C456 C454 1.419 . S
C456 C457 1.363 . S
C456 H459 0.929 . S
C457 C456 1.363 . S
C457 C463 1.428 . S
H458 C454 0.930 . S
H459 C456 0.929 . S
S460 N461 1.613 . S
S460 N462 1.610 . S
N461 S460 1.613 . S
N461 C464 1.350 . S
N462 S460 1.610 . S
N462 C463 1.351 . S
C463 C457 1.428 . S
C463 N462 1.351 . S
C463 C464 1.434 . S
C464 C455 1.429 . S
C464 N461 1.350 . S
C464 C463 1.434 . S
C465 C466 1.369 . S
C465 C467 1.419 . S
C465 H469 0.930 . S
C466 C465 1.369 . S
C466 C475 1.429 . S
C467 C465 1.419 . S
C467 C468 1.363 . S
C467 H470 0.929 . S
C468 C467 1.363 . S
C468 C474 1.428 . S
H469 C465 0.930 . S
H470 C467 0.929 . S
S471 N472 1.613 . S
S471 N473 1.610 . S
N472 S471 1.613 . S
N472 C475 1.350 . S
N473 S471 1.610 . S
N473 C474 1.351 . S
C474 C468 1.428 . S
C474 N473 1.351 . S
C474 C475 1.434 . S
C475 C466 1.429 . S
C475 N472 1.350 . S
C475 C474 1.434 . S
C476 C477 1.369 . S
C476 C478 1.419 . S
C476 H480 0.930 . S
C477 C476 1.369 . S
C477 C486 1.429 . S
C478 C476 1.419 . S
C478 C479 1.363 . S
C478 H481 0.929 . S
C479 C478 1.363 . S
C479 C485 1.428 . S
H480 C476 0.930 . S
H481 C478 0.929 . S
S482 N483 1.613 . S
S482 N484 1.610 . S
N483 S482 1.613 . S
N483 C486 1.350 . S
N484 S482 1.610 . S
N484 C485 1.351 . S
C485 C479 1.428 . S
C485 N484 1.351 . S
C485 C486 1.434 . S
C486 C477 1.429 . S
C486 N483 1.350 . S
C486 C485 1.434 . S
C487 C488 1.369 . S
C487 C489 1.419 . S
C487 H491 0.930 . S
C488 C487 1.369 . S
C488 C497 1.429 . S
C489 C487 1.419 . S
C489 C490 1.363 . S
C489 H492 0.929 . S
C490 C489 1.363 . S
C490 C496 1.428 . S
H491 C487 0.930 . S
H492 C489 0.929 . S
S493 N494 1.613 . S
S493 N495 1.610 . S
N494 S493 1.613 . S
N494 C497 1.350 . S
N495 S493 1.610 . S
N495 C496 1.351 . S
C496 C490 1.428 . S
C496 N495 1.351 . S
C496 C497 1.434 . S
C497 C488 1.429 . S
C497 N494 1.350 . S
C497 C496 1.434 . S
C498 C499 1.369 . S
C498 C500 1.419 . S
C498 H502 0.930 . S
C499 C498 1.369 . S
C499 C508 1.429 . S
C500 C498 1.419 . S
C500 C501 1.363 . S
C500 H503 0.929 . S
C501 C500 1.363 . S
C501 C507 1.428 . S
H502 C498 0.930 . S
H503 C500 0.929 . S
S504 N505 1.613 . S
S504 N506 1.610 . S
N505 S504 1.613 . S
N505 C508 1.350 . S
N506 S504 1.610 . S
N506 C507 1.351 . S
C507 C501 1.428 . S
C507 N506 1.351 . S
C507 C508 1.434 . S
C508 C499 1.429 . S
C508 N505 1.350 . S
C508 C507 1.434 . S
C509 C510 1.369 . S
C509 C511 1.419 . S
C509 H513 0.930 . S
C510 C509 1.369 . S
C510 C519 1.429 . S
C511 C509 1.419 . S
C511 C512 1.363 . S
C511 H514 0.929 . S
C512 C511 1.363 . S
C512 C518 1.428 . S
H513 C509 0.930 . S
H514 C511 0.929 . S
S515 N516 1.613 . S
S515 N517 1.610 . S
N516 S515 1.613 . S
N516 C519 1.350 . S
N517 S515 1.610 . S
N517 C518 1.351 . S
C518 C512 1.428 . S
C518 N517 1.351 . S
C518 C519 1.434 . S
C519 C510 1.429 . S
C519 N516 1.350 . S
C519 C518 1.434 . S
C257 C6 1.045 . S
C259 C113 1.105 . S
C268 C18 1.220 . S
C270 C153 1.251 . S
C281 C178 2.592 . S
C279 C28 2.645 . S
C290 C40 1.998 . S
C292 C218 1.942 . S
C303 C149 1.771 . S
C301 C9 1.650 . S
C314 C109 1.784 . S
C312 C16 1.647 . S
C325 C240 1.806 . S
C323 C30 1.828 . S
C336 C200 1.499 . S
C334 C42 1.540 . S
C345 C4 1.449 . S
C347 C242 1.448 . S
C358 C159 2.407 . S
C356 C33 2.443 . S
C367 C45 1.985 . S
C369 C119 1.951 . S
C378 C21 1.492 . S
C380 C202 1.572 . S
C391 C122 1.115 . S
C389 C57 1.086 . S
C400 C66 1.217 . S
C402 C162 1.258 . S
C411 C76 2.697 . S
C413 C199 2.638 . S
C422 C88 1.916 . S
C424 C239 1.882 . S
C433 C54 1.659 . S
C435 C160 1.787 . S
C446 C120 1.868 . S
C444 C64 1.771 . S
C457 C229 1.724 . S
C455 C78 1.768 . S
C468 C189 1.566 . S
C466 C93 1.600 . S
C477 C52 1.450 . S
C479 C233 1.519 . S
C490 C138 2.400 . S
C488 C81 2.428 . S
C501 C98 1.927 . S
C499 C90 1.960 . S
C510 C69 1.487 . S
C512 C193 1.572 . S
