# Generated by pormake.
# Topology pyr, (3,6)-cn, num edge types: 1
# Building blocks:
#     Node 0, Type 0, BuildingBlock: PAMTOO_clean_linker_0, # of connection points: 3
#     Node 1, Type 0, BuildingBlock: PAMTOO_clean_linker_0, # of connection points: 3
#     Node 2, Type 0, BuildingBlock: PAMTOO_clean_linker_0, # of connection points: 3
#     Node 3, Type 0, BuildingBlock: PAMTOO_clean_linker_0, # of connection points: 3
#     Node 4, Type 0, BuildingBlock: PAMTOO_clean_linker_0, # of connection points: 3
#     Node 5, Type 0, BuildingBlock: PAMTOO_clean_linker_0, # of connection points: 3
#     Node 6, Type 0, BuildingBlock: PAMTOO_clean_linker_0, # of connection points: 3
#     Node 7, Type 0, BuildingBlock: PAMTOO_clean_linker_0, # of connection points: 3
#     Node 8, Type 1, BuildingBlock: VOLQOD_clean_sbu_1, # of connection points: 6
#     Node 9, Type 1, BuildingBlock: VOLQOD_clean_sbu_1, # of connection points: 6
#     Node 10, Type 1, BuildingBlock: VOLQOD_clean_sbu_1, # of connection points: 6
#     Node 11, Type 1, BuildingBlock: VOLQOD_clean_sbu_1, # of connection points: 6
#     Edge 12, Type (0, 1), BuildingBlock: KIFKEQ_clean_linker_1, # of connection points: 2
#     Edge 13, Type (0, 1), BuildingBlock: KIFKEQ_clean_linker_1, # of connection points: 2
#     Edge 14, Type (0, 1), BuildingBlock: KIFKEQ_clean_linker_1, # of connection points: 2
#     Edge 15, Type (0, 1), BuildingBlock: KIFKEQ_clean_linker_1, # of connection points: 2
#     Edge 16, Type (0, 1), BuildingBlock: KIFKEQ_clean_linker_1, # of connection points: 2
#     Edge 17, Type (0, 1), BuildingBlock: KIFKEQ_clean_linker_1, # of connection points: 2
#     Edge 18, Type (0, 1), BuildingBlock: KIFKEQ_clean_linker_1, # of connection points: 2
#     Edge 19, Type (0, 1), BuildingBlock: KIFKEQ_clean_linker_1, # of connection points: 2
#     Edge 20, Type (0, 1), BuildingBlock: KIFKEQ_clean_linker_1, # of connection points: 2
#     Edge 21, Type (0, 1), BuildingBlock: KIFKEQ_clean_linker_1, # of connection points: 2
#     Edge 22, Type (0, 1), BuildingBlock: KIFKEQ_clean_linker_1, # of connection points: 2
#     Edge 23, Type (0, 1), BuildingBlock: KIFKEQ_clean_linker_1, # of connection points: 2
#     Edge 24, Type (0, 1), BuildingBlock: KIFKEQ_clean_linker_1, # of connection points: 2
#     Edge 25, Type (0, 1), BuildingBlock: KIFKEQ_clean_linker_1, # of connection points: 2
#     Edge 26, Type (0, 1), BuildingBlock: KIFKEQ_clean_linker_1, # of connection points: 2
#     Edge 27, Type (0, 1), BuildingBlock: KIFKEQ_clean_linker_1, # of connection points: 2
#     Edge 28, Type (0, 1), BuildingBlock: KIFKEQ_clean_linker_1, # of connection points: 2
#     Edge 29, Type (0, 1), BuildingBlock: KIFKEQ_clean_linker_1, # of connection points: 2
#     Edge 30, Type (0, 1), BuildingBlock: KIFKEQ_clean_linker_1, # of connection points: 2
#     Edge 31, Type (0, 1), BuildingBlock: KIFKEQ_clean_linker_1, # of connection points: 2
#     Edge 32, Type (0, 1), BuildingBlock: KIFKEQ_clean_linker_1, # of connection points: 2
#     Edge 33, Type (0, 1), BuildingBlock: KIFKEQ_clean_linker_1, # of connection points: 2
#     Edge 34, Type (0, 1), BuildingBlock: KIFKEQ_clean_linker_1, # of connection points: 2
#     Edge 35, Type (0, 1), BuildingBlock: KIFKEQ_clean_linker_1, # of connection points: 2
# Relax obj value: 0.120
# Max RMSD: 0.196
# Mean RMSD: 0.161
data_MOF--net-pry--node1-VOLQOD_clean_sbu_1--node2-PAMTOO_clean_linker_0--edge1-KIFKEQ_clean_linker_1
_symmetry_space_group_name_H-M    P1
_symmetry_Int_Tables_number       1
_symmetry_cell_setting            triclinic
loop_
_symmetry_equiv_pos_as_xyz
'x, y, z'
_cell_length_a     36.950512
_cell_length_b     38.153895
_cell_length_c     37.909798
_cell_angle_alpha  89.994466
_cell_angle_beta   91.149374
_cell_angle_gamma 95.272721
loop_
_atom_site_label
_atom_site_type_symbol
_atom_site_fract_x
_atom_site_fract_y
_atom_site_fract_z
_atom_type_partial_charge
H0 H 0.11254 0.18235 0.19476 0.0
H1 H 0.1912 0.10646 0.18389 0.0
H2 H 0.18032 0.18336 0.10335 0.0
H3 H 0.19465 0.1148 0.07481 0.0
C4 C 0.20801 0.10397 0.09845 0.0
O5 O 0.21492 0.13012 0.12345 0.0
H6 H 0.18925 0.08216 0.10909 0.0
C7 C 0.13358 0.17145 0.17987 0.0
C8 C 0.14374 0.18633 0.1471 0.0
C9 C 0.1507 0.14276 0.1937 0.0
C10 C 0.17792 0.1288 0.17411 0.0
C11 C 0.18812 0.14329 0.14156 0.0
C12 C 0.17132 0.172 0.12823 0.0
H13 H 0.37796 0.93633 0.68055 0.0
H14 H 0.37084 0.86514 0.59194 0.0
H15 H 0.45143 0.85535 0.67331 0.0
H16 H 0.47612 0.84642 0.60111 0.0
C17 C 0.4512 0.83189 0.58949 0.0
O18 O 0.42385 0.82935 0.61385 0.0
H19 H 0.44244 0.84674 0.56603 0.0
C20 C 0.38795 0.91463 0.66638 0.0
C21 C 0.417 0.89762 0.68082 0.0
C22 C 0.37095 0.90318 0.63436 0.0
C23 C 0.38394 0.87485 0.61631 0.0
C24 C 0.4129 0.85778 0.6304 0.0
C25 C 0.42923 0.86901 0.66261 0.0
H26 H 0.68394 0.34844 0.96068 0.0
H27 H 0.59424 0.3487 0.88638 0.0
H28 H 0.6724 0.43859 0.89446 0.0
H29 H 0.5937 0.45462 0.88035 0.0
C30 C 0.58538 0.43067 0.86435 0.0
O31 O 0.61442 0.4108 0.86106 0.0
H32 H 0.56271 0.41514 0.87779 0.0
C33 C 0.66867 0.36196 0.94103 0.0
C34 C 0.68183 0.39575 0.92995 0.0
C35 C 0.6371 0.34464 0.92554 0.0
C36 C 0.61799 0.36199 0.89948 0.0
C37 C 0.63064 0.3959 0.88867 0.0
C38 C 0.66236 0.41276 0.90387 0.0
H39 H 0.87461 0.67428 0.46601 0.0
H40 H 0.87765 0.59051 0.38999 0.0
H41 H 0.96032 0.67659 0.39041 0.0
H42 H 0.93163 0.65924 0.32219 0.0
C43 C 0.9231 0.63067 0.32521 0.0
O44 O 0.93439 0.61933 0.35783 0.0
H45 H 0.89287 0.62712 0.32296 0.0
C46 C 0.8879 0.66198 0.44467 0.0
C47 C 0.9199 0.67891 0.4307 0.0
C48 C 0.87231 0.62994 0.43029 0.0
C49 C 0.88929 0.61494 0.40185 0.0
C50 C 0.92078 0.63188 0.38759 0.0
C51 C 0.93643 0.66335 0.40238 0.0
H52 H 0.88022 0.95179 0.8528 0.0
H53 H 0.87827 0.87283 0.9342 0.0
H54 H 0.9582 0.87439 0.85397 0.0
H55 H 0.92126 0.80726 0.86641 0.0
C56 C 0.91634 0.80859 0.89522 0.0
O57 O 0.93122 0.84053 0.90853 0.0
H58 H 0.88643 0.80625 0.89922 0.0
C59 C 0.89187 0.92973 0.86525 0.0
C60 C 0.92145 0.91537 0.8497 0.0
C61 C 0.8762 0.91482 0.89596 0.0
C62 C 0.89077 0.88555 0.91134 0.0
C63 C 0.92003 0.87096 0.89593 0.0
C64 C 0.93569 0.88619 0.86564 0.0
H65 H 0.71361 0.07555 0.34951 0.0
H66 H 0.61823 0.13151 0.35783 0.0
H67 H 0.70032 0.14196 0.4396 0.0
H68 H 0.62714 0.14175 0.46538 0.0
C69 C 0.61416 0.15553 0.44328 0.0
O70 O 0.63887 0.16317 0.41698 0.0
H71 H 0.5907 0.13801 0.43271 0.0
C72 C 0.69794 0.09321 0.364 0.0
C73 C 0.71102 0.107 0.39676 0.0
C74 C 0.66439 0.10166 0.34994 0.0
C75 C 0.64374 0.12409 0.36879 0.0
C76 C 0.65686 0.13858 0.40098 0.0
C77 C 0.69024 0.12994 0.41499 0.0
H78 H 0.39202 0.66121 0.0802 0.0
H79 H 0.40065 0.56336 0.13459 0.0
H80 H 0.48725 0.6459 0.14388 0.0
H81 H 0.51043 0.56945 0.14552 0.0
C82 C 0.48532 0.55767 0.15828 0.0
O83 O 0.46286 0.58349 0.16553 0.0
H84 H 0.47129 0.53767 0.14011 0.0
C85 C 0.40745 0.64471 0.09697 0.0
C86 C 0.44173 0.65772 0.11049 0.0
C87 C 0.39267 0.61061 0.10514 0.0
C88 C 0.4124 0.58926 0.12693 0.0
C89 C 0.44649 0.60205 0.14065 0.0
C90 C 0.46137 0.63596 0.13209 0.0
H91 H 0.10551 0.35205 0.68293 0.0
H92 H 0.12638 0.4619 0.65877 0.0
H93 H 0.14032 0.38502 0.57905 0.0
H94 H 0.18535 0.47668 0.62798 0.0
C95 C 0.17657 0.47586 0.59969 0.0
O96 O 0.14633 0.45222 0.59396 0.0
H97 H 0.1686 0.5026 0.59348 0.0
C98 C 0.11321 0.37263 0.66409 0.0
C99 C 0.12138 0.36378 0.62926 0.0
C100 C 0.11531 0.40786 0.67508 0.0
C101 C 0.12561 0.43452 0.65094 0.0
C102 C 0.13593 0.42615 0.61684 0.0
C103 C 0.13384 0.3909 0.60602 0.0
O104 O 0.03784 0.0956 0.55612 0.0
Zn105 Zn 0.01329 0.04688 0.54823 0.0
O106 O 0.04514 0.01889 0.52106 0.0
Zn107 Zn 0.0209 0.00442 0.47635 0.0
Zn108 Zn 0.09186 0.04619 0.51206 0.0
Zn109 Zn 0.05446 0.97708 0.54782 0.0
O110 O 0.01183 0.95153 0.4725 0.0
O111 O 0.03409 0.93286 0.52319 0.0
O112 O 0.96572 0.05212 0.52208 0.0
O113 O 0.97204 0.02333 0.47207 0.0
O114 O 0.0499 0.02357 0.43498 0.0
O115 O 0.09805 0.05387 0.45969 0.0
O116 O 0.13492 0.02172 0.53104 0.0
O117 O 0.00202 0.02517 0.59625 0.0
O118 O 0.10765 0.97391 0.55573 0.0
O119 O 0.03209 0.97746 0.59535 0.0
C120 C 0.06936 0.11056 0.55002 0.0
C121 C 0.01813 0.92665 0.4935 0.0
C122 C 0.0795 0.04327 0.43238 0.0
C123 C 0.95351 0.04147 0.49189 0.0
C124 C 0.13642 0.99299 0.54796 0.0
C125 C 0.01201 0.99756 0.61111 0.0
O126 O 0.09321 0.09443 0.53445 0.0
O127 O 0.53869 0.07481 0.9765 0.0
Zn128 Zn 0.51417 0.02617 0.98406 0.0
O129 O 0.54447 0.99892 0.01468 0.0
Zn130 Zn 0.55522 0.9567 0.9894 0.0
Zn131 Zn 0.59044 0.02619 0.02721 0.0
Zn132 Zn 0.51833 0.98628 0.05798 0.0
O133 O 0.53891 0.91339 0.01682 0.0
O134 O 0.51219 0.93355 0.06371 0.0
O135 O 0.50375 0.00274 0.93656 0.0
O136 O 0.53051 0.95323 0.94161 0.0
O137 O 0.60864 0.95652 0.98085 0.0
O138 O 0.63378 0.00495 0.00713 0.0
O139 O 0.59787 0.03031 0.07999 0.0
O140 O 0.46591 0.03202 0.0062 0.0
O141 O 0.54559 0.00656 0.10109 0.0
O142 O 0.46871 0.00444 0.05758 0.0
C143 C 0.56837 0.09068 0.98813 0.0
C144 C 0.52206 0.90809 0.04558 0.0
C145 C 0.63654 0.97715 0.98917 0.0
C146 C 0.51165 0.97354 0.92385 0.0
C147 C 0.5772 0.02235 0.10582 0.0
C148 C 0.4517 0.0222 0.03533 0.0
O149 O 0.59015 0.0752 0.00794 0.0
O150 O 0.55557 0.50678 0.59254 0.0
Zn151 Zn 0.55615 0.52541 0.54274 0.0
O152 O 0.5276 0.49248 0.51092 0.0
Zn153 Zn 0.55994 0.47542 0.47619 0.0
Zn154 Zn 0.50519 0.45221 0.53738 0.0
Zn155 Zn 0.48962 0.51663 0.48685 0.0
O156 O 0.54309 0.48539 0.42685 0.0
O157 O 0.49505 0.51541 0.43405 0.0
O158 O 0.60842 0.53464 0.52756 0.0
O159 O 0.61039 0.499 0.48159 0.0
O160 O 0.56288 0.42345 0.48054 0.0
O161 O 0.52232 0.40598 0.52079 0.0
O162 O 0.45045 0.44933 0.53355 0.0
O163 O 0.53515 0.57229 0.54341 0.0
O164 O 0.43997 0.4934 0.49762 0.0
O165 O 0.49044 0.56729 0.5032 0.0
C166 C 0.53876 0.48002 0.60695 0.0
C167 C 0.5173 0.50171 0.41412 0.0
C168 C 0.54616 0.39916 0.49857 0.0
C169 C 0.62583 0.52192 0.50265 0.0
C170 C 0.42851 0.46737 0.51666 0.0
C171 C 0.50964 0.58536 0.52623 0.0
O172 O 0.51843 0.4576 0.58894 0.0
O173 O 0.0044 0.49614 0.09454 0.0
Zn174 Zn 0.0077 0.47008 0.04859 0.0
O175 O 0.03848 0.49886 0.01565 0.0
Zn176 Zn 0.01071 0.50786 0.97313 0.0
Zn177 Zn 0.05569 0.54443 0.03686 0.0
Zn178 Zn 0.07979 0.47337 0.00283 0.0
O179 O 0.0314 0.48735 0.93014 0.0
O180 O 0.08138 0.46538 0.95025 0.0
O181 O 0.95612 0.4602 0.02897 0.0
O182 O 0.95952 0.48779 0.97741 0.0
O183 O 0.00786 0.55931 0.96487 0.0
O184 O 0.03787 0.58579 0.01005 0.0
O185 O 0.11037 0.55052 0.03937 0.0
O186 O 0.02846 0.42369 0.05951 0.0
O187 O 0.12677 0.50004 0.01837 0.0
O188 O 0.07762 0.42616 0.02656 0.0
C189 C 0.01744 0.52631 0.10565 0.0
C190 C 0.05985 0.47181 0.9249 0.0
C191 C 0.01909 0.58719 0.98163 0.0
C192 C 0.94133 0.46987 0.00035 0.0
C193 C 0.13479 0.53041 0.0318 0.0
C194 C 0.05636 0.41004 0.04845 0.0
O195 O 0.03739 0.54706 0.08629 0.0
H196 H 0.08251 0.12946 0.22065 0.0
H197 H 0.19602 0.12165 0.2459 0.0
H198 H 0.06618 0.10477 0.27815 0.0
H199 H 0.17961 0.09565 0.30272 0.0
H200 H 0.13883 0.08847 0.4164 0.0
H201 H 0.15599 0.11207 0.35882 0.0
H202 H 0.06471 0.04974 0.31053 0.0
H203 H 0.04703 0.02664 0.36819 0.0
C204 C 0.10398 0.12251 0.23847 0.0
C205 C 0.14057 0.12755 0.22866 0.0
C206 C 0.09459 0.10795 0.27126 0.0
C207 C 0.12158 0.09811 0.29503 0.0
C208 C 0.15817 0.10321 0.28521 0.0
C209 C 0.16754 0.11776 0.25245 0.0
C210 C 0.12251 0.07959 0.39351 0.0
C211 C 0.09147 0.0557 0.39702 0.0
C212 C 0.13245 0.09305 0.36044 0.0
C213 C 0.11164 0.08292 0.33005 0.0
C214 C 0.081 0.05853 0.33346 0.0
C215 C 0.07104 0.04508 0.36653 0.0
H216 H 0.43672 0.96471 0.70384 0.0
H217 H 0.43362 0.85608 0.73647 0.0
H218 H 0.46077 0.98344 0.76191 0.0
H219 H 0.457 0.87468 0.79473 0.0
H220 H 0.53049 0.91781 0.88508 0.0
H221 H 0.5097 0.90018 0.82588 0.0
H222 H 0.44221 0.98685 0.82185 0.0
H223 H 0.46389 0.00515 0.88072 0.0
C224 C 0.44108 0.94485 0.72351 0.0
C225 C 0.43329 0.90893 0.71559 0.0
C226 C 0.45473 0.95556 0.75684 0.0
C227 C 0.46071 0.93061 0.78314 0.0
C228 C 0.45329 0.89464 0.77501 0.0
C229 C 0.43985 0.88393 0.74161 0.0
C230 C 0.51124 0.93317 0.87159 0.0
C231 C 0.49885 0.9629 0.88774 0.0
C232 C 0.49915 0.92292 0.83765 0.0
C233 C 0.47418 0.942 0.81903 0.0
C234 C 0.46185 0.97181 0.83515 0.0
C235 C 0.47412 0.9822 0.86905 0.0
H236 H 0.55455 0.38651 0.8138 0.0
H237 H 0.58966 0.49589 0.83294 0.0
H238 H 0.54129 0.39969 0.7522 0.0
H239 H 0.57494 0.50972 0.77165 0.0
H240 H 0.59049 0.51199 0.65186 0.0
H241 H 0.59838 0.50158 0.71477 0.0
H242 H 0.50292 0.42697 0.71231 0.0
H243 H 0.49596 0.43633 0.64916 0.0
C244 C 0.55858 0.41353 0.80483 0.0
C245 C 0.57291 0.44021 0.82795 0.0
C246 C 0.55088 0.42119 0.76963 0.0
C247 C 0.55711 0.4558 0.75683 0.0
C248 C 0.57038 0.48269 0.78042 0.0
C249 C 0.57844 0.47491 0.81559 0.0
C250 C 0.57114 0.49343 0.66478 0.0
C251 C 0.54279 0.47477 0.64545 0.0
C252 C 0.57548 0.48765 0.70096 0.0
C253 C 0.55131 0.46337 0.71872 0.0
C254 C 0.52245 0.44536 0.69944 0.0
C255 C 0.51838 0.45083 0.66321 0.0
H256 H 0.99402 0.63575 0.30565 0.0
H257 H 0.8894 0.58088 0.28052 0.0
H258 H 0.02049 0.60699 0.25584 0.0
H259 H 0.91529 0.55282 0.23026 0.0
H260 H 0.97617 0.48968 0.1551 0.0
H261 H 0.9566 0.51124 0.21151 0.0
H262 H 0.01639 0.61193 0.19237 0.0
H263 H 0.03666 0.59024 0.13654 0.0
C264 C 0.97685 0.61735 0.28949 0.0
C265 C 0.93972 0.61077 0.29647 0.0
C266 C 0.99185 0.60104 0.26094 0.0
C267 C 0.96993 0.57783 0.23888 0.0
C268 C 0.93303 0.57026 0.24688 0.0
C269 C 0.9181 0.5865 0.27547 0.0
C270 C 0.98546 0.5163 0.16309 0.0
C271 C 0.00778 0.5383 0.14113 0.0
C272 C 0.9741 0.5287 0.19536 0.0
C273 C 0.98476 0.56337 0.20637 0.0
C274 C 0.00803 0.58495 0.18493 0.0
C275 C 0.01945 0.57256 0.15274 0.0
H276 H 0.23487 0.04166 0.11702 0.0
H277 H 0.26075 0.13672 0.0576 0.0
H278 H 0.29278 0.02054 0.10083 0.0
H279 H 0.31924 0.11634 0.04214 0.0
H280 H 0.40479 0.05495 0.99242 0.0
H281 H 0.34546 0.07327 0.0069 0.0
H282 H 0.35684 0.03211 0.11235 0.0
H283 H 0.41573 0.0129 0.09759 0.0
C284 C 0.25304 0.05795 0.10042 0.0
C285 C 0.2433 0.09055 0.08808 0.0
C286 C 0.28631 0.04605 0.09137 0.0
C287 C 0.31069 0.06668 0.07008 0.0
C288 C 0.30089 0.09946 0.05801 0.0
C289 C 0.26755 0.11126 0.06696 0.0
C290 C 0.3946 0.04966 0.01867 0.0
C291 C 0.41511 0.03246 0.04384 0.0
C292 C 0.36064 0.06038 0.02704 0.0
C293 C 0.34638 0.05432 0.06085 0.0
C294 C 0.36674 0.0368 0.08591 0.0
C295 C 0.40064 0.02594 0.07749 0.0
H296 H 0.35472 0.92283 0.56662 0.0
H297 H 0.31292 0.91946 0.67228 0.0
H298 H 0.29891 0.94642 0.54494 0.0
H299 H 0.25778 0.9435 0.65081 0.0
H300 H 0.14821 0.93906 0.59256 0.0
H301 H 0.20585 0.91954 0.61249 0.0
H302 H 0.26329 0.00056 0.55016 0.0
H303 H 0.20513 0.02035 0.52982 0.0
C304 C 0.33372 0.9273 0.58519 0.0
C305 C 0.33819 0.91928 0.62114 0.0
C306 C 0.30198 0.94107 0.57285 0.0
C307 C 0.27397 0.94665 0.59617 0.0
C308 C 0.27876 0.93917 0.63216 0.0
C309 C 0.31049 0.92571 0.6445 0.0
C310 C 0.17302 0.95283 0.58296 0.0
C311 C 0.17198 0.98138 0.5596 0.0
C312 C 0.2061 0.94171 0.59461 0.0
C313 C 0.23907 0.95867 0.58308 0.0
C314 C 0.23824 0.98693 0.55936 0.0
C315 C 0.20498 0.99834 0.54787 0.0
H316 H 0.7371 0.4252 0.89049 0.0
H317 H 0.70841 0.39982 0.99795 0.0
H318 H 0.79871 0.44454 0.90989 0.0
H319 H 0.77023 0.42003 0.01777 0.0
H320 H 0.89542 0.41777 0.03006 0.0
H321 H 0.83119 0.40247 0.01506 0.0
H322 H 0.83432 0.48916 0.9414 0.0
H323 H 0.89829 0.5034 0.95527 0.0
C324 C 0.74378 0.4246 0.91843 0.0
C325 C 0.71794 0.4112 0.94273 0.0
C326 C 0.77915 0.43566 0.92961 0.0
C327 C 0.78947 0.43389 0.96545 0.0
C328 C 0.76332 0.42126 0.98993 0.0
C329 C 0.72791 0.40991 0.97865 0.0
C330 C 0.88224 0.43353 0.01077 0.0
C331 C 0.90201 0.46139 0.99344 0.0
C332 C 0.84541 0.42495 0.00232 0.0
C333 C 0.82768 0.44437 0.97671 0.0
C334 C 0.84728 0.47308 0.96055 0.0
C335 C 0.884 0.48131 0.96861 0.0
H336 H 0.81454 0.6013 0.39088 0.0
H337 H 0.85021 0.62157 0.49879 0.0
H338 H 0.75688 0.57378 0.41129 0.0
H339 H 0.792 0.5939 0.51936 0.0
H340 H 0.66572 0.57808 0.53429 0.0
H341 H 0.72655 0.60336 0.51891 0.0
H342 H 0.73335 0.52082 0.442 0.0
H343 H 0.67266 0.496 0.45675 0.0
C344 C 0.81025 0.59946 0.41903 0.0
C345 C 0.83714 0.61328 0.44323 0.0
C346 C 0.77715 0.58367 0.43074 0.0
C347 C 0.76999 0.58131 0.46697 0.0
C348 C 0.79665 0.5955 0.49127 0.0
C349 C 0.82993 0.61133 0.4795 0.0
C350 C 0.68037 0.56514 0.51437 0.0
C351 C 0.66411 0.53526 0.49646 0.0
C352 C 0.71527 0.57955 0.50565 0.0
C353 C 0.73455 0.56435 0.4789 0.0
C354 C 0.71889 0.5336 0.46219 0.0
C355 C 0.68412 0.51928 0.4708 0.0
H356 H 0.12449 0.24403 0.18312 0.0
H357 H 0.12362 0.19869 0.07861 0.0
H358 H 0.09955 0.29619 0.15888 0.0
H359 H 0.0993 0.25109 0.05443 0.0
H360 H 0.02692 0.3729 0.10471 0.0
H361 H 0.04451 0.31716 0.12852 0.0
H362 H 0.1238 0.31327 0.04681 0.0
H363 H 0.10628 0.36857 0.02295 0.0
C364 C 0.1185 0.24492 0.15508 0.0
C365 C 0.12636 0.21722 0.1328 0.0
C366 C 0.10423 0.27485 0.14119 0.0
C367 C 0.09768 0.27785 0.10471 0.0
C368 C 0.1046 0.24979 0.08258 0.0
C369 C 0.11865 0.21981 0.09645 0.0
C370 C 0.04788 0.35999 0.09167 0.0
C371 C 0.06523 0.37528 0.06196 0.0
C372 C 0.05809 0.32819 0.10544 0.0
C373 C 0.08553 0.31083 0.08954 0.0
C374 C 0.10228 0.32577 0.05943 0.0
C375 C 0.09236 0.35762 0.04589 0.0
H376 H 0.56868 0.31419 0.93873 0.0
H377 H 0.68059 0.29112 0.9318 0.0
H378 H 0.55113 0.25272 0.95394 0.0
H379 H 0.66319 0.22998 0.94661 0.0
H380 H 0.62668 0.13416 0.01167 0.0
H381 H 0.64192 0.19565 0.99693 0.0
H382 H 0.54681 0.19344 0.9285 0.0
H383 H 0.53095 0.13194 0.94386 0.0
C384 C 0.58944 0.29594 0.94031 0.0
C385 C 0.62603 0.30749 0.93454 0.0
C386 C 0.57943 0.26078 0.94891 0.0
C387 C 0.60583 0.23657 0.95174 0.0
C388 C 0.64231 0.24813 0.94541 0.0
C389 C 0.65229 0.28317 0.93694 0.0
C390 C 0.60897 0.1467 0.99346 0.0
C391 C 0.57765 0.12805 0.97885 0.0
C392 C 0.61781 0.18194 0.9849 0.0
C393 C 0.59566 0.19936 0.96142 0.0
C394 C 0.5642 0.18084 0.94696 0.0
C395 C 0.55527 0.14554 0.9556 0.0
H396 H 0.88224 0.73595 0.44166 0.0
H397 H 0.99043 0.7018 0.44715 0.0
H398 H 0.90677 0.79571 0.45734 0.0
H399 H 0.01504 0.76171 0.46257 0.0
H400 H 0.03624 0.86632 0.52563 0.0
H401 H 0.01254 0.80589 0.51212 0.0
H402 H 0.94703 0.84326 0.42693 0.0
H403 H 0.97063 0.90375 0.44032 0.0
C404 C 0.91119 0.74115 0.44672 0.0
C405 C 0.93445 0.71428 0.44329 0.0
C406 C 0.92526 0.77539 0.45527 0.0
C407 C 0.96281 0.78335 0.46091 0.0
C408 C 0.98597 0.75626 0.45849 0.0
C409 C 0.97194 0.72208 0.44955 0.0
C410 C 0.0169 0.86168 0.50392 0.0
C411 C 0.00529 0.88988 0.48407 0.0
C412 C 0.00344 0.82706 0.49614 0.0
C413 C 0.9778 0.81995 0.46864 0.0
C414 C 0.96645 0.84806 0.44858 0.0
C415 C 0.98019 0.88265 0.45608 0.0
H416 H 0.47907 0.78256 0.63146 0.0
H417 H 0.44266 0.79957 0.52458 0.0
H418 H 0.49297 0.72321 0.6157 0.0
H419 H 0.45752 0.74066 0.50826 0.0
H420 H 0.45245 0.6201 0.50159 0.0
H421 H 0.43824 0.67938 0.51652 0.0
H422 H 0.53516 0.6932 0.5826 0.0
H423 H 0.54882 0.63372 0.56849 0.0
C424 C 0.47429 0.77353 0.60453 0.0
C425 C 0.45991 0.79552 0.57923 0.0
C426 C 0.48244 0.73968 0.59538 0.0
C427 C 0.47653 0.72713 0.56062 0.0
C428 C 0.46202 0.74926 0.53534 0.0
C429 C 0.45373 0.78308 0.54458 0.0
C430 C 0.4708 0.63582 0.51922 0.0
C431 C 0.50171 0.62201 0.53393 0.0
C432 C 0.46273 0.66992 0.52766 0.0
C433 C 0.48546 0.6911 0.55091 0.0
C434 C 0.51667 0.67745 0.56514 0.0
C435 C 0.52464 0.64334 0.55684 0.0
H436 H 0.93819 0.87722 0.79253 0.0
H437 H 0.93573 0.98418 0.82906 0.0
H438 H 0.96033 0.89874 0.73588 0.0
H439 H 0.95828 0.00591 0.77208 0.0
H440 H 0.9619 0.02776 0.65125 0.0
H441 H 0.94042 0.00921 0.70957 0.0
H442 H 0.0144 0.92785 0.7111 0.0
H443 H 0.03513 0.94565 0.65294 0.0
C444 C 0.9429 0.90538 0.78862 0.0
C445 C 0.93558 0.92899 0.81543 0.0
C446 C 0.95557 0.91775 0.7561 0.0
C447 C 0.96138 0.95408 0.7495 0.0
C448 C 0.95379 0.97778 0.7762 0.0
C449 C 0.94098 0.96535 0.80884 0.0
C450 C 0.97363 0.00599 0.66413 0.0
C451 C -2e-05 0.98799 0.64723 0.0
C452 C 0.96145 0.99548 0.69762 0.0
C453 C 0.97544 0.96681 0.71486 0.0
C454 C 0.00247 0.94953 0.69828 0.0
C455 C 0.01449 0.9599 0.66492 0.0
H456 H 0.60149 0.06184 0.33285 0.0
H457 H 0.69906 0.11234 0.28798 0.0
H458 H 0.5809 0.04021 0.27457 0.0
H459 H 0.67779 0.0931 0.22931 0.0
H460 H 0.64708 0.03047 0.13111 0.0
H461 H 0.66822 0.047 0.1905 0.0
H462 H 0.55706 0.05548 0.22088 0.0
H463 H 0.53609 0.03655 0.1621 0.0
C464 C 0.61831 0.0685 0.31029 0.0
C465 C 0.65184 0.08852 0.3147 0.0
C466 C 0.60646 0.05641 0.27679 0.0
C467 C 0.62753 0.06484 0.24683 0.0
C468 C 0.66107 0.08523 0.25157 0.0
C469 C 0.67324 0.09656 0.28516 0.0
C470 C 0.62723 0.03572 0.15062 0.0
C471 C 0.58996 0.03221 0.142 0.0
C472 C 0.63933 0.04551 0.1847 0.0
C473 C 0.61449 0.05292 0.21082 0.0
C474 C 0.57711 0.04937 0.20196 0.0
C475 C 0.565 0.03875 0.1681 0.0
H476 H 0.44162 0.51068 0.19562 0.0
H477 H 0.54742 0.56881 0.19912 0.0
H478 H 0.45013 0.49228 0.25688 0.0
H479 H 0.55613 0.55037 0.26032 0.0
H480 H 0.56702 0.48951 0.3641 0.0
H481 H 0.56117 0.497 0.30028 0.0
H482 H 0.45307 0.52895 0.31283 0.0
H483 H 0.45878 0.52162 0.37653 0.0
C484 C 0.46711 0.51858 0.20927 0.0
C485 C 0.4941 0.54067 0.19269 0.0
C486 C 0.47184 0.50839 0.2443 0.0
C487 C 0.50369 0.52007 0.26331 0.0
C488 C 0.53147 0.54071 0.24614 0.0
C489 C 0.52656 0.5512 0.21118 0.0
C490 C 0.54191 0.49792 0.35323 0.0
C491 C 0.51339 0.50511 0.3754 0.0
C492 C 0.53865 0.50227 0.31674 0.0
C493 C 0.50664 0.51339 0.30168 0.0
C494 C 0.47788 0.5199 0.32373 0.0
C495 C 0.48128 0.51599 0.36022 0.0
H496 H 0.15542 0.4528 0.71962 0.0
H497 H 0.05676 0.38284 0.71341 0.0
H498 H 0.14209 0.46739 0.78055 0.0
H499 H 0.0435 0.39733 0.77442 0.0
H500 H 0.01411 0.46819 0.8673 0.0
H501 H 0.02766 0.45199 0.80709 0.0
H502 H 0.13741 0.43564 0.83981 0.0
H503 H 0.12397 0.45176 0.90024 0.0
C504 C 0.13084 0.44067 0.7313 0.0
C505 C 0.10705 0.41677 0.71188 0.0
C506 C 0.1234 0.44877 0.76619 0.0
C507 C 0.09181 0.43343 0.78213 0.0
C508 C 0.06793 0.40965 0.76265 0.0
C509 C 0.07561 0.40122 0.7279 0.0
C510 C 0.04113 0.4611 0.86172 0.0
C511 C 0.06799 0.46131 0.88856 0.0
C512 C 0.04879 0.45164 0.82728 0.0
C513 C 0.08356 0.4426 0.81886 0.0
C514 C 0.11045 0.44277 0.8456 0.0
C515 C 0.10268 0.45181 0.88018 0.0
H516 H 0.86081 0.9279 0.96483 0.0
H517 H 0.81554 0.9298 0.859 0.0
H518 H 0.80339 0.94443 0.98818 0.0
H519 H 0.75852 0.94664 0.88224 0.0
H520 H 0.65091 0.92767 0.94072 0.0
H521 H 0.70976 0.91498 0.9188 0.0
H522 H 0.76294 0.9953 0.98705 0.0
H523 H 0.70381 0.00821 0.00919 0.0
C524 C 0.83869 0.93212 0.9466 0.0
C525 C 0.84264 0.92759 0.91012 0.0
C526 C 0.80598 0.94178 0.95992 0.0
C527 C 0.77648 0.94661 0.93702 0.0
C528 C 0.78071 0.94275 0.90052 0.0
C529 C 0.81346 0.93346 0.8872 0.0
C530 C 0.67508 0.94263 0.9512 0.0
C531 C 0.6726 0.96901 0.9767 0.0
C532 C 0.70879 0.93549 0.93842 0.0
C533 C 0.74088 0.95431 0.95105 0.0
C534 C 0.7386 0.98032 0.97696 0.0
C535 C 0.70476 0.98777 0.98951 0.0
H536 H 0.72816 0.09096 0.46515 0.0
H537 H 0.77446 0.10307 0.36165 0.0
H538 H 0.78638 0.07518 0.48895 0.0
H539 H 0.83257 0.0875 0.38539 0.0
H540 H 0.91801 0.02082 0.43039 0.0
H541 H 0.85948 0.03665 0.40844 0.0
H542 H 0.84861 0.09948 0.50178 0.0
H543 H 0.90707 0.08302 0.52425 0.0
C544 C 0.75086 0.09055 0.44755 0.0
C545 C 0.74662 0.09806 0.41146 0.0
C546 C 0.78422 0.08155 0.4612 0.0
C547 C 0.81411 0.07989 0.43906 0.0
C548 C 0.80993 0.08784 0.40306 0.0
C549 C 0.77661 0.09678 0.38943 0.0
C550 C 0.90319 0.03796 0.44635 0.0
C551 C 0.91738 0.0507 0.47909 0.0
C552 C 0.86967 0.04723 0.43362 0.0
C553 C 0.84943 0.06954 0.45321 0.0
C554 C 0.86335 0.08198 0.48616 0.0
C555 C 0.89695 0.07267 0.49896 0.0
H556 H 0.37063 0.55249 0.06583 0.0
H557 H 0.33133 0.6417 0.11772 0.0
H558 H 0.3089 0.53352 0.04499 0.0
H559 H 0.26941 0.62199 0.09906 0.0
H560 H 0.16619 0.59775 0.03644 0.0
H561 H 0.2292 0.61709 0.0514 0.0
H562 H 0.25243 0.50847 0.0626 0.0
H563 H 0.18995 0.48937 0.04546 0.0
C564 C 0.34857 0.56776 0.07298 0.0
C565 C 0.35545 0.59854 0.0931 0.0
C566 C 0.31319 0.55688 0.0613 0.0
C567 C 0.28396 0.57623 0.0702 0.0
C568 C 0.29115 0.60684 0.09084 0.0
C569 C 0.32656 0.61805 0.10184 0.0
C570 C 0.18491 0.57809 0.04189 0.0
C571 C 0.17321 0.5421 0.03987 0.0
C572 C 0.22101 0.58912 0.05075 0.0
C573 C 0.24605 0.5644 0.05861 0.0
C574 C 0.23425 0.52833 0.05619 0.0
C575 C 0.19832 0.51732 0.04658 0.0
H576 H 0.21111 0.41511 0.5992 0.0
H577 H 0.21467 0.5187 0.5531 0.0
H578 H 0.26877 0.40576 0.57191 0.0
H579 H 0.2729 0.51043 0.5274 0.0
H580 H 0.37337 0.48818 0.47478 0.0
H581 H 0.30868 0.48302 0.48721 0.0
H582 H 0.32988 0.42653 0.58323 0.0
H583 H 0.39413 0.43028 0.56986 0.0
C584 C 0.22383 0.43551 0.58251 0.0
C585 C 0.20828 0.46745 0.57791 0.0
C586 C 0.25712 0.43041 0.56726 0.0
C587 C 0.27582 0.45743 0.54764 0.0
C588 C 0.25921 0.48873 0.54177 0.0
C589 C 0.22583 0.49363 0.55668 0.0
C590 C 0.36406 0.47412 0.49822 0.0
C591 C 0.38891 0.46002 0.52156 0.0
C592 C 0.32698 0.4713 0.50546 0.0
C593 C 0.31395 0.45485 0.53654 0.0
C594 C 0.33867 0.43905 0.55884 0.0
C595 C 0.37567 0.44141 0.55131 0.0
H596 H 0.98825 0.80284 0.91345 0.0
H597 H 0.88211 0.74529 0.91381 0.0
H598 H 0.01541 0.75047 0.93543 0.0
H599 H 0.90905 0.6932 0.93553 0.0
H600 H 0.9735 0.59814 0.92611 0.0
H601 H 0.95043 0.65295 0.90764 0.0
H602 H 0.01507 0.70884 0.98941 0.0
H603 H 0.03848 0.6536 0.00825 0.0
C604 C 0.97071 0.77923 0.91895 0.0
C605 C 0.93299 0.77827 0.91267 0.0
C606 C 0.98622 0.74932 0.93143 0.0
C607 C 0.96434 0.71777 0.93704 0.0
C608 C 0.92661 0.71706 0.93116 0.0
C609 C 0.91115 0.74693 0.91902 0.0
C610 C 0.98311 0.62204 0.94014 0.0
C611 C 0.00772 0.62135 0.96887 0.0
C612 C 0.96965 0.65345 0.92963 0.0
C613 C 0.98059 0.68506 0.94737 0.0
C614 C 0.0062 0.68481 0.97528 0.0
C615 C 0.01951 0.65319 0.98607 0.0
H616 H 0.51062 0.68285 0.09236 0.0
H617 H 0.40449 0.71593 0.11368 0.0
H618 H 0.53285 0.74387 0.07965 0.0
H619 H 0.42628 0.77646 0.10006 0.0
H620 H 0.48446 0.88587 0.1042 0.0
H621 H 0.46783 0.82546 0.1227 0.0
H622 H 0.52263 0.78714 0.03286 0.0
H623 H 0.53981 0.84743 0.01457 0.0
C624 C 0.49215 0.70318 0.09446 0.0
C625 C 0.45578 0.69465 0.10368 0.0
C626 C 0.50475 0.738 0.08695 0.0
C627 C 0.48127 0.76491 0.0888 0.0
C628 C 0.44512 0.75638 0.09874 0.0
C629 C 0.43252 0.72165 0.10609 0.0
C630 C 0.49317 0.8646 0.08849 0.0
C631 C 0.51325 0.87152 0.05776 0.0
C632 C 0.48352 0.82999 0.09904 0.0
C633 C 0.4938 0.80159 0.07914 0.0
C634 C 0.51464 0.80848 0.04894 0.0
C635 C 0.52424 0.84307 0.03833 0.0
H636 H 0.06658 0.31473 0.64795 0.0
H637 H 0.16147 0.32828 0.58269 0.0
H638 H 0.05612 0.25398 0.62954 0.0
H639 H 0.14915 0.26777 0.56188 0.0
H640 H 0.13649 0.14672 0.55932 0.0
H641 H 0.1501 0.20777 0.57819 0.0
H642 H 0.03496 0.2198 0.58131 0.0
H643 H 0.02157 0.15864 0.56423 0.0
C644 C 0.08537 0.30477 0.62971 0.0
C645 C 0.11513 0.32653 0.61712 0.0
C646 C 0.07891 0.26992 0.61857 0.0
C647 C 0.10154 0.25585 0.59391 0.0
C648 C 0.13131 0.27755 0.58117 0.0
C649 C 0.13811 0.31245 0.59273 0.0
C650 C 0.11416 0.16248 0.56413 0.0
C651 C 0.07797 0.14776 0.56064 0.0
C652 C 0.12193 0.19756 0.57472 0.0
C653 C 0.09366 0.2188 0.58158 0.0
C654 C 0.05749 0.20412 0.57721 0.0
C655 C 0.04976 0.16901 0.5672 0.0
H656 H 0.65522 0.20809 0.47775 0.0
H657 H 0.54621 0.17962 0.43819 0.0
H658 H 0.63803 0.26621 0.49447 0.0
H659 H 0.52882 0.2377 0.45507 0.0
H660 H 0.50724 0.33788 0.51892 0.0
H661 H 0.52249 0.27746 0.5092 0.0
H662 H 0.62074 0.31746 0.45738 0.0
H663 H 0.60566 0.37743 0.46679 0.0
C664 C 0.62746 0.21422 0.47313 0.0
C665 C 0.60203 0.18955 0.45674 0.0
C666 C 0.61766 0.2474 0.48251 0.0
C667 C 0.58214 0.25647 0.4759 0.0
C668 C 0.5563 0.23129 0.46071 0.0
C669 C 0.56624 0.19817 0.45098 0.0
C670 C 0.53214 0.33372 0.50557 0.0
C671 C 0.55519 0.36246 0.49357 0.0
C672 C 0.54076 0.29919 0.49991 0.0
C673 C 0.57287 0.29283 0.4827 0.0
C674 C 0.59604 0.32157 0.4711 0.0
C675 C 0.58722 0.35594 0.47629 0.0
loop_
_geom_bond_atom_site_label_1
_geom_bond_atom_site_label_2
_geom_bond_distance
_geom_bond_site_symmetry_2
_ccdc_geom_bond_type
H0 C7 0.929 . S
H1 C10 0.930 . S
H2 C12 0.929 . S
H3 C4 0.969 . S
C4 H3 0.969 . S
C4 O5 1.550 . S
C4 H6 0.973 . S
O5 C4 1.550 . S
O5 C11 1.412 . S
H6 C4 0.973 . S
C7 H0 0.929 . S
C7 C8 1.400 . S
C7 C9 1.364 . S
C8 C7 1.400 . S
C8 C12 1.377 . S
C9 C7 1.364 . S
C9 C10 1.374 . S
C10 H1 0.930 . S
C10 C9 1.374 . S
C10 C11 1.383 . S
C11 O5 1.412 . S
C11 C10 1.383 . S
C11 C12 1.394 . S
C12 H2 0.929 . S
C12 C8 1.377 . S
C12 C11 1.394 . S
H13 C20 0.929 . S
H14 C23 0.930 . S
H15 C25 0.929 . S
H16 C17 0.969 . S
C17 H16 0.969 . S
C17 O18 1.550 . S
C17 H19 0.973 . S
O18 C17 1.550 . S
O18 C24 1.412 . S
H19 C17 0.973 . S
C20 H13 0.929 . S
C20 C21 1.400 . S
C20 C22 1.364 . S
C21 C20 1.400 . S
C21 C25 1.377 . S
C22 C20 1.364 . S
C22 C23 1.374 . S
C23 H14 0.930 . S
C23 C22 1.374 . S
C23 C24 1.383 . S
C24 O18 1.412 . S
C24 C23 1.383 . S
C24 C25 1.394 . S
C25 H15 0.929 . S
C25 C21 1.377 . S
C25 C24 1.394 . S
H26 C33 0.929 . S
H27 C36 0.930 . S
H28 C38 0.929 . S
H29 C30 0.969 . S
C30 H29 0.969 . S
C30 O31 1.550 . S
C30 H32 0.973 . S
O31 C30 1.550 . S
O31 C37 1.412 . S
H32 C30 0.973 . S
C33 H26 0.929 . S
C33 C34 1.400 . S
C33 C35 1.364 . S
C34 C33 1.400 . S
C34 C38 1.377 . S
C35 C33 1.364 . S
C35 C36 1.374 . S
C36 H27 0.930 . S
C36 C35 1.374 . S
C36 C37 1.383 . S
C37 O31 1.412 . S
C37 C36 1.383 . S
C37 C38 1.394 . S
C38 H28 0.929 . S
C38 C34 1.377 . S
C38 C37 1.394 . S
H39 C46 0.929 . S
H40 C49 0.930 . S
H41 C51 0.929 . S
H42 C43 0.969 . S
C43 H42 0.969 . S
C43 O44 1.550 . S
C43 H45 0.973 . S
O44 C43 1.550 . S
O44 C50 1.412 . S
H45 C43 0.973 . S
C46 H39 0.929 . S
C46 C47 1.400 . S
C46 C48 1.364 . S
C47 C46 1.400 . S
C47 C51 1.377 . S
C48 C46 1.364 . S
C48 C49 1.374 . S
C49 H40 0.930 . S
C49 C48 1.374 . S
C49 C50 1.383 . S
C50 O44 1.412 . S
C50 C49 1.383 . S
C50 C51 1.394 . S
C51 H41 0.929 . S
C51 C47 1.377 . S
C51 C50 1.394 . S
H52 C59 0.929 . S
H53 C62 0.930 . S
H54 C64 0.929 . S
H55 C56 0.969 . S
C56 H55 0.969 . S
C56 O57 1.550 . S
C56 H58 0.973 . S
O57 C56 1.550 . S
O57 C63 1.412 . S
H58 C56 0.973 . S
C59 H52 0.929 . S
C59 C60 1.400 . S
C59 C61 1.364 . S
C60 C59 1.400 . S
C60 C64 1.377 . S
C61 C59 1.364 . S
C61 C62 1.374 . S
C62 H53 0.930 . S
C62 C61 1.374 . S
C62 C63 1.383 . S
C63 O57 1.412 . S
C63 C62 1.383 . S
C63 C64 1.394 . S
C64 H54 0.929 . S
C64 C60 1.377 . S
C64 C63 1.394 . S
H65 C72 0.929 . S
H66 C75 0.930 . S
H67 C77 0.929 . S
H68 C69 0.969 . S
C69 H68 0.969 . S
C69 O70 1.550 . S
C69 H71 0.973 . S
O70 C69 1.550 . S
O70 C76 1.412 . S
H71 C69 0.973 . S
C72 H65 0.929 . S
C72 C73 1.400 . S
C72 C74 1.364 . S
C73 C72 1.400 . S
C73 C77 1.377 . S
C74 C72 1.364 . S
C74 C75 1.374 . S
C75 H66 0.930 . S
C75 C74 1.374 . S
C75 C76 1.383 . S
C76 O70 1.412 . S
C76 C75 1.383 . S
C76 C77 1.394 . S
C77 H67 0.929 . S
C77 C73 1.377 . S
C77 C76 1.394 . S
H78 C85 0.929 . S
H79 C88 0.930 . S
H80 C90 0.929 . S
H81 C82 0.969 . S
C82 H81 0.969 . S
C82 O83 1.550 . S
C82 H84 0.973 . S
O83 C82 1.550 . S
O83 C89 1.412 . S
H84 C82 0.973 . S
C85 H78 0.929 . S
C85 C86 1.400 . S
C85 C87 1.364 . S
C86 C85 1.400 . S
C86 C90 1.377 . S
C87 C85 1.364 . S
C87 C88 1.374 . S
C88 H79 0.930 . S
C88 C87 1.374 . S
C88 C89 1.383 . S
C89 O83 1.412 . S
C89 C88 1.383 . S
C89 C90 1.394 . S
C90 H80 0.929 . S
C90 C86 1.377 . S
C90 C89 1.394 . S
H91 C98 0.929 . S
H92 C101 0.930 . S
H93 C103 0.929 . S
H94 C95 0.969 . S
C95 H94 0.969 . S
C95 O96 1.550 . S
C95 H97 0.973 . S
O96 C95 1.550 . S
O96 C102 1.412 . S
H97 C95 0.973 . S
C98 H91 0.929 . S
C98 C99 1.400 . S
C98 C100 1.364 . S
C99 C98 1.400 . S
C99 C103 1.377 . S
C100 C98 1.364 . S
C100 C101 1.374 . S
C101 H92 0.930 . S
C101 C100 1.374 . S
C101 C102 1.383 . S
C102 O96 1.412 . S
C102 C101 1.383 . S
C102 C103 1.394 . S
C103 H93 0.929 . S
C103 C99 1.377 . S
C103 C102 1.394 . S
O104 Zn105 1.953 1_455 S
O104 C120 1.225 . S
Zn105 O104 1.953 1_655 S
Zn105 O106 1.949 1_655 S
Zn105 O112 1.919 . S
Zn105 O117 1.924 . S
O106 Zn105 1.949 1_455 S
O106 Zn107 1.924 1_455 S
O106 Zn108 1.950 . S
O106 Zn109 1.945 1_545 S
Zn107 O106 1.924 1_655 S
Zn107 O110 1.930 1_545 S
Zn107 O113 1.943 . S
Zn107 O114 1.967 1_655 S
Zn108 O106 1.950 . S
Zn108 O115 1.938 . S
Zn108 O116 1.906 . S
Zn108 O126 1.953 . S
Zn109 O106 1.945 1_565 S
Zn109 O111 1.932 1_455 S
Zn109 O118 1.977 . S
Zn109 O119 1.912 . S
O110 Zn107 1.930 1_565 S
O110 C121 1.226 . S
O111 Zn109 1.932 1_655 S
O111 C121 1.307 . S
O112 Zn105 1.919 . S
O112 C123 1.253 . S
O113 Zn107 1.943 . S
O113 C123 1.283 . S
O114 Zn107 1.967 1_455 S
O114 C122 1.303 . S
O115 Zn108 1.938 . S
O115 C122 1.247 . S
O116 Zn108 1.906 . S
O116 C124 1.304 1_545 S
O117 Zn105 1.924 . S
O117 C125 1.311 . S
O118 Zn109 1.977 . S
O118 C124 1.272 . S
O119 Zn109 1.912 . S
O119 C125 1.229 1_465 S
C120 O104 1.225 . S
C120 O126 1.298 . S
C121 O110 1.226 . S
C121 O111 1.307 . S
C122 O114 1.303 . S
C122 O115 1.247 . S
C123 O112 1.253 . S
C123 O113 1.283 . S
C124 O116 1.304 1_565 S
C124 O118 1.272 . S
C125 O117 1.311 . S
C125 O119 1.229 1_645 S
O126 Zn108 1.953 . S
O126 C120 1.298 . S
O127 Zn128 1.953 . S
O127 C143 1.225 . S
Zn128 O127 1.953 . S
Zn128 O129 1.949 1_556 S
Zn128 O135 1.919 . S
Zn128 O140 1.924 . S
O129 Zn128 1.949 1_554 S
O129 Zn130 1.923 1_544 S
O129 Zn131 1.950 . S
O129 Zn132 1.945 1_545 S
Zn130 O129 1.923 1_566 S
Zn130 O133 1.933 1_556 S
Zn130 O136 1.941 . S
Zn130 O137 1.965 . S
Zn131 O129 1.950 . S
Zn131 O138 1.938 . S
Zn131 O139 1.906 . S
Zn131 O149 1.953 . S
Zn132 O129 1.945 1_565 S
Zn132 O134 1.932 . S
Zn132 O141 1.977 1_565 S
Zn132 O142 1.910 1_565 S
O133 Zn130 1.933 1_554 S
O133 C144 1.226 . S
O134 Zn132 1.932 . S
O134 C144 1.307 . S
O135 Zn128 1.919 . S
O135 C146 1.253 1_545 S
O136 Zn130 1.941 . S
O136 C146 1.283 . S
O137 Zn130 1.965 . S
O137 C145 1.303 . S
O138 Zn131 1.938 . S
O138 C145 1.247 1_544 S
O139 Zn131 1.906 . S
O139 C147 1.304 . S
O140 Zn128 1.924 . S
O140 C148 1.311 1_556 S
O141 Zn132 1.977 1_545 S
O141 C147 1.272 . S
O142 Zn132 1.910 1_545 S
O142 C148 1.231 . S
C143 O127 1.225 . S
C143 O149 1.298 1_556 S
C144 O133 1.226 . S
C144 O134 1.307 . S
C145 O137 1.303 . S
C145 O138 1.247 1_566 S
C146 O135 1.253 1_565 S
C146 O136 1.283 . S
C147 O139 1.304 . S
C147 O141 1.272 . S
C148 O140 1.311 1_554 S
C148 O142 1.231 . S
O149 Zn131 1.953 . S
O149 C143 1.298 1_554 S
O150 Zn151 1.953 . S
O150 C166 1.225 . S
Zn151 O150 1.953 . S
Zn151 O152 1.949 . S
Zn151 O158 1.919 . S
Zn151 O163 1.924 . S
O152 Zn151 1.949 . S
O152 Zn153 1.923 . S
O152 Zn154 1.950 . S
O152 Zn155 1.945 . S
Zn153 O152 1.923 . S
Zn153 O156 1.933 . S
Zn153 O159 1.941 . S
Zn153 O160 1.965 . S
Zn154 O152 1.950 . S
Zn154 O161 1.938 . S
Zn154 O162 1.906 . S
Zn154 O172 1.953 . S
Zn155 O152 1.945 . S
Zn155 O157 1.932 . S
Zn155 O164 1.977 . S
Zn155 O165 1.910 . S
O156 Zn153 1.933 . S
O156 C167 1.226 . S
O157 Zn155 1.932 . S
O157 C167 1.307 . S
O158 Zn151 1.919 . S
O158 C169 1.253 . S
O159 Zn153 1.941 . S
O159 C169 1.283 . S
O160 Zn153 1.965 . S
O160 C168 1.303 . S
O161 Zn154 1.938 . S
O161 C168 1.247 . S
O162 Zn154 1.906 . S
O162 C170 1.304 . S
O163 Zn151 1.924 . S
O163 C171 1.311 . S
O164 Zn155 1.977 . S
O164 C170 1.272 . S
O165 Zn155 1.910 . S
O165 C171 1.231 . S
C166 O150 1.225 . S
C166 O172 1.298 . S
C167 O156 1.226 . S
C167 O157 1.307 . S
C168 O160 1.303 . S
C168 O161 1.247 . S
C169 O158 1.253 . S
C169 O159 1.283 . S
C170 O162 1.304 . S
C170 O164 1.272 . S
C171 O163 1.311 . S
C171 O165 1.231 . S
O172 Zn154 1.953 . S
O172 C166 1.298 . S
O173 Zn174 1.953 1_655 S
O173 C189 1.225 1_655 S
Zn174 O173 1.953 1_455 S
Zn174 O175 1.949 . S
Zn174 O181 1.919 1_455 S
Zn174 O186 1.924 . S
O175 Zn174 1.949 . S
O175 Zn176 1.923 1_554 S
O175 Zn177 1.950 . S
O175 Zn178 1.945 . S
Zn176 O175 1.923 1_556 S
Zn176 O179 1.933 . S
Zn176 O182 1.941 1_455 S
Zn176 O183 1.965 . S
Zn177 O175 1.950 . S
Zn177 O184 1.938 . S
Zn177 O185 1.906 . S
Zn177 O195 1.953 . S
Zn178 O175 1.945 . S
Zn178 O180 1.932 1_554 S
Zn178 O187 1.977 . S
Zn178 O188 1.910 . S
O179 Zn176 1.933 . S
O179 C190 1.226 . S
O180 Zn178 1.932 1_556 S
O180 C190 1.307 . S
O181 Zn174 1.919 1_655 S
O181 C192 1.253 1_554 S
O182 Zn176 1.941 1_655 S
O182 C192 1.283 . S
O183 Zn176 1.965 . S
O183 C191 1.331 . S
O184 Zn177 1.938 . S
O184 C191 1.221 1_554 S
O185 Zn177 1.906 . S
O185 C193 1.304 . S
O186 Zn174 1.924 . S
O186 C194 1.311 . S
O187 Zn178 1.977 . S
O187 C193 1.272 . S
O188 Zn178 1.910 . S
O188 C194 1.231 . S
C189 O173 1.225 1_455 S
C189 O195 1.298 . S
C190 O179 1.226 . S
C190 O180 1.307 . S
C191 O183 1.331 . S
C191 O184 1.221 1_556 S
C192 O181 1.253 1_556 S
C192 O182 1.283 . S
C193 O185 1.304 . S
C193 O187 1.272 . S
C194 O186 1.311 . S
C194 O188 1.231 . S
O195 Zn177 1.953 . S
O195 C189 1.298 . S
H196 C204 0.950 . S
H197 C209 0.950 . S
H198 C206 0.950 . S
H199 C208 0.950 . S
H200 C210 0.950 . S
H201 C212 0.950 . S
H202 C214 0.950 . S
H203 C215 0.950 . S
C204 H196 0.950 . S
C204 C205 1.386 . S
C204 C206 1.391 . S
C205 C204 1.386 . S
C205 C209 1.393 . S
C206 H198 0.950 . S
C206 C204 1.391 . S
C206 C207 1.400 . S
C207 C206 1.400 . S
C207 C208 1.398 . S
C207 C213 1.491 . S
C208 H199 0.950 . S
C208 C207 1.398 . S
C208 C209 1.391 . S
C209 H197 0.950 . S
C209 C205 1.393 . S
C209 C208 1.391 . S
C210 H200 0.950 . S
C210 C211 1.386 . S
C210 C212 1.391 . S
C211 C210 1.386 . S
C211 C215 1.393 . S
C212 H201 0.950 . S
C212 C210 1.391 . S
C212 C213 1.400 . S
C213 C207 1.491 . S
C213 C212 1.400 . S
C213 C214 1.398 . S
C214 H202 0.950 . S
C214 C213 1.398 . S
C214 C215 1.391 . S
C215 H203 0.950 . S
C215 C211 1.393 . S
C215 C214 1.391 . S
H216 C224 0.950 . S
H217 C229 0.950 . S
H218 C226 0.950 . S
H219 C228 0.950 . S
H220 C230 0.950 . S
H221 C232 0.950 . S
H222 C234 0.950 . S
H223 C235 0.950 1_545 S
C224 H216 0.950 . S
C224 C225 1.386 . S
C224 C226 1.391 . S
C225 C224 1.386 . S
C225 C229 1.393 . S
C226 H218 0.950 . S
C226 C224 1.391 . S
C226 C227 1.400 . S
C227 C226 1.400 . S
C227 C228 1.398 . S
C227 C233 1.491 . S
C228 H219 0.950 . S
C228 C227 1.398 . S
C228 C229 1.391 . S
C229 H217 0.950 . S
C229 C225 1.393 . S
C229 C228 1.391 . S
C230 H220 0.950 . S
C230 C231 1.386 . S
C230 C232 1.391 . S
C231 C230 1.386 . S
C231 C235 1.393 . S
C232 H221 0.950 . S
C232 C230 1.391 . S
C232 C233 1.400 . S
C233 C227 1.491 . S
C233 C232 1.400 . S
C233 C234 1.398 . S
C234 H222 0.950 . S
C234 C233 1.398 . S
C234 C235 1.391 . S
C235 H223 0.950 1_565 S
C235 C231 1.393 . S
C235 C234 1.391 . S
H236 C244 0.950 . S
H237 C249 0.950 . S
H238 C246 0.950 . S
H239 C248 0.950 . S
H240 C250 0.950 . S
H241 C252 0.950 . S
H242 C254 0.950 . S
H243 C255 0.950 . S
C244 H236 0.950 . S
C244 C245 1.386 . S
C244 C246 1.391 . S
C245 C244 1.386 . S
C245 C249 1.393 . S
C246 H238 0.950 . S
C246 C244 1.391 . S
C246 C247 1.400 . S
C247 C246 1.400 . S
C247 C248 1.398 . S
C247 C253 1.491 . S
C248 H239 0.950 . S
C248 C247 1.398 . S
C248 C249 1.391 . S
C249 H237 0.950 . S
C249 C245 1.393 . S
C249 C248 1.391 . S
C250 H240 0.950 . S
C250 C251 1.386 . S
C250 C252 1.391 . S
C251 C250 1.386 . S
C251 C255 1.393 . S
C252 H241 0.950 . S
C252 C250 1.391 . S
C252 C253 1.400 . S
C253 C247 1.491 . S
C253 C252 1.400 . S
C253 C254 1.398 . S
C254 H242 0.950 . S
C254 C253 1.398 . S
C254 C255 1.391 . S
C255 H243 0.950 . S
C255 C251 1.393 . S
C255 C254 1.391 . S
H256 C264 0.950 . S
H257 C269 0.950 . S
H258 C266 0.950 . S
H259 C268 0.950 . S
H260 C270 0.950 . S
H261 C272 0.951 . S
H262 C274 0.950 . S
H263 C275 0.950 . S
C264 H256 0.950 . S
C264 C265 1.386 . S
C264 C266 1.391 . S
C265 C264 1.386 . S
C265 C269 1.393 . S
C266 H258 0.950 . S
C266 C264 1.391 . S
C266 C267 1.400 . S
C267 C266 1.400 . S
C267 C268 1.398 . S
C267 C273 1.491 . S
C268 H259 0.950 . S
C268 C267 1.398 . S
C268 C269 1.391 . S
C269 H257 0.950 . S
C269 C265 1.393 . S
C269 C268 1.391 . S
C270 H260 0.950 . S
C270 C271 1.386 . S
C270 C272 1.392 . S
C271 C270 1.386 . S
C271 C275 1.393 1_455 S
C272 H261 0.951 . S
C272 C270 1.392 . S
C272 C273 1.398 1_455 S
C273 C267 1.491 . S
C273 C272 1.398 1_655 S
C273 C274 1.398 . S
C274 H262 0.950 . S
C274 C273 1.398 . S
C274 C275 1.391 . S
C275 H263 0.950 . S
C275 C271 1.393 1_655 S
C275 C274 1.391 . S
H276 C284 0.950 . S
H277 C289 0.950 . S
H278 C286 0.950 . S
H279 C288 0.950 . S
H280 C290 0.950 1_556 S
H281 C292 0.950 . S
H282 C294 0.950 . S
H283 C295 0.950 . S
C284 H276 0.950 . S
C284 C285 1.386 . S
C284 C286 1.391 . S
C285 C284 1.386 . S
C285 C289 1.393 . S
C286 H278 0.950 . S
C286 C284 1.391 . S
C286 C287 1.400 . S
C287 C286 1.400 . S
C287 C288 1.398 . S
C287 C293 1.491 . S
C288 H279 0.950 . S
C288 C287 1.398 . S
C288 C289 1.391 . S
C289 H277 0.950 . S
C289 C285 1.393 . S
C289 C288 1.391 . S
C290 H280 0.950 1_554 S
C290 C291 1.386 . S
C290 C292 1.391 . S
C291 C290 1.386 . S
C291 C295 1.393 . S
C292 H281 0.950 . S
C292 C290 1.391 . S
C292 C293 1.400 . S
C293 C287 1.491 . S
C293 C292 1.400 . S
C293 C294 1.398 . S
C294 H282 0.950 . S
C294 C293 1.398 . S
C294 C295 1.391 . S
C295 H283 0.950 . S
C295 C291 1.393 . S
C295 C294 1.391 . S
H296 C304 0.950 . S
H297 C309 0.950 . S
H298 C306 0.950 . S
H299 C308 0.950 . S
H300 C310 0.950 . S
H301 C312 0.950 . S
H302 C314 0.950 . S
H303 C315 0.950 . S
C304 H296 0.950 . S
C304 C305 1.386 . S
C304 C306 1.391 . S
C305 C304 1.386 . S
C305 C309 1.393 . S
C306 H298 0.950 . S
C306 C304 1.391 . S
C306 C307 1.400 . S
C307 C306 1.400 . S
C307 C308 1.398 . S
C307 C313 1.491 . S
C308 H299 0.950 . S
C308 C307 1.398 . S
C308 C309 1.391 . S
C309 H297 0.950 . S
C309 C305 1.393 . S
C309 C308 1.391 . S
C310 H300 0.950 . S
C310 C311 1.386 . S
C310 C312 1.391 . S
C311 C310 1.386 . S
C311 C315 1.393 . S
C312 H301 0.950 . S
C312 C310 1.391 . S
C312 C313 1.400 . S
C313 C307 1.491 . S
C313 C312 1.400 . S
C313 C314 1.398 . S
C314 H302 0.950 . S
C314 C313 1.398 . S
C314 C315 1.391 . S
C315 H303 0.950 . S
C315 C311 1.393 . S
C315 C314 1.391 . S
H316 C324 0.950 . S
H317 C329 0.950 . S
H318 C326 0.950 . S
H319 C328 0.950 . S
H320 C330 0.950 1_554 S
H321 C332 0.950 . S
H322 C334 0.950 . S
H323 C335 0.950 . S
C324 H316 0.950 . S
C324 C325 1.386 . S
C324 C326 1.391 . S
C325 C324 1.386 . S
C325 C329 1.393 . S
C326 H318 0.950 . S
C326 C324 1.391 . S
C326 C327 1.400 . S
C327 C326 1.400 . S
C327 C328 1.398 . S
C327 C333 1.491 . S
C328 H319 0.950 . S
C328 C327 1.398 . S
C328 C329 1.391 . S
C329 H317 0.950 . S
C329 C325 1.393 . S
C329 C328 1.391 . S
C330 H320 0.950 1_556 S
C330 C331 1.386 . S
C330 C332 1.391 . S
C331 C330 1.386 . S
C331 C335 1.393 . S
C332 H321 0.950 . S
C332 C330 1.391 . S
C332 C333 1.400 . S
C333 C327 1.491 . S
C333 C332 1.400 . S
C333 C334 1.398 . S
C334 H322 0.950 . S
C334 C333 1.398 . S
C334 C335 1.391 . S
C335 H323 0.950 . S
C335 C331 1.393 . S
C335 C334 1.391 . S
H336 C344 0.950 . S
H337 C349 0.950 . S
H338 C346 0.950 . S
H339 C348 0.950 . S
H340 C350 0.950 . S
H341 C352 0.950 . S
H342 C354 0.950 . S
H343 C355 0.950 . S
C344 H336 0.950 . S
C344 C345 1.386 . S
C344 C346 1.391 . S
C345 C344 1.386 . S
C345 C349 1.393 . S
C346 H338 0.950 . S
C346 C344 1.391 . S
C346 C347 1.400 . S
C347 C346 1.400 . S
C347 C348 1.398 . S
C347 C353 1.491 . S
C348 H339 0.950 . S
C348 C347 1.398 . S
C348 C349 1.391 . S
C349 H337 0.950 . S
C349 C345 1.393 . S
C349 C348 1.391 . S
C350 H340 0.950 . S
C350 C351 1.386 . S
C350 C352 1.391 . S
C351 C350 1.386 . S
C351 C355 1.393 . S
C352 H341 0.950 . S
C352 C350 1.391 . S
C352 C353 1.400 . S
C353 C347 1.491 . S
C353 C352 1.400 . S
C353 C354 1.398 . S
C354 H342 0.950 . S
C354 C353 1.398 . S
C354 C355 1.391 . S
C355 H343 0.950 . S
C355 C351 1.393 . S
C355 C354 1.391 . S
H356 C364 0.950 . S
H357 C369 0.950 . S
H358 C366 0.950 . S
H359 C368 0.950 . S
H360 C370 0.950 . S
H361 C372 0.950 . S
H362 C374 0.950 . S
H363 C375 0.950 . S
C364 H356 0.950 . S
C364 C365 1.386 . S
C364 C366 1.391 . S
C365 C364 1.386 . S
C365 C369 1.393 . S
C366 H358 0.950 . S
C366 C364 1.391 . S
C366 C367 1.400 . S
C367 C366 1.400 . S
C367 C368 1.398 . S
C367 C373 1.491 . S
C368 H359 0.950 . S
C368 C367 1.398 . S
C368 C369 1.391 . S
C369 H357 0.950 . S
C369 C365 1.393 . S
C369 C368 1.391 . S
C370 H360 0.950 . S
C370 C371 1.386 . S
C370 C372 1.391 . S
C371 C370 1.386 . S
C371 C375 1.393 . S
C372 H361 0.950 . S
C372 C370 1.391 . S
C372 C373 1.400 . S
C373 C367 1.491 . S
C373 C372 1.400 . S
C373 C374 1.398 . S
C374 H362 0.950 . S
C374 C373 1.398 . S
C374 C375 1.391 . S
C375 H363 0.950 . S
C375 C371 1.393 . S
C375 C374 1.391 . S
H376 C384 0.950 . S
H377 C389 0.950 . S
H378 C386 0.950 . S
H379 C388 0.950 . S
H380 C390 0.950 . S
H381 C392 0.950 . S
H382 C394 0.950 . S
H383 C395 0.950 . S
C384 H376 0.950 . S
C384 C385 1.386 . S
C384 C386 1.391 . S
C385 C384 1.386 . S
C385 C389 1.393 . S
C386 H378 0.950 . S
C386 C384 1.391 . S
C386 C387 1.400 . S
C387 C386 1.400 . S
C387 C388 1.398 . S
C387 C393 1.491 . S
C388 H379 0.950 . S
C388 C387 1.398 . S
C388 C389 1.391 . S
C389 H377 0.950 . S
C389 C385 1.393 . S
C389 C388 1.391 . S
C390 H380 0.950 . S
C390 C391 1.386 . S
C390 C392 1.391 . S
C391 C390 1.386 . S
C391 C395 1.393 . S
C392 H381 0.950 . S
C392 C390 1.391 . S
C392 C393 1.400 . S
C393 C387 1.491 . S
C393 C392 1.400 . S
C393 C394 1.398 . S
C394 H382 0.950 . S
C394 C393 1.398 . S
C394 C395 1.391 . S
C395 H383 0.950 . S
C395 C391 1.393 . S
C395 C394 1.391 . S
H396 C404 0.950 . S
H397 C409 0.950 . S
H398 C406 0.950 . S
H399 C408 0.950 . S
H400 C410 0.950 . S
H401 C412 0.950 . S
H402 C414 0.950 . S
H403 C415 0.950 1_455 S
C404 H396 0.950 . S
C404 C405 1.386 . S
C404 C406 1.391 . S
C405 C404 1.386 . S
C405 C409 1.393 . S
C406 H398 0.950 . S
C406 C404 1.391 . S
C406 C407 1.400 . S
C407 C406 1.400 . S
C407 C408 1.398 . S
C407 C413 1.491 . S
C408 H399 0.950 . S
C408 C407 1.398 . S
C408 C409 1.391 . S
C409 H397 0.950 . S
C409 C405 1.393 . S
C409 C408 1.391 . S
C410 H400 0.950 . S
C410 C411 1.386 . S
C410 C412 1.391 . S
C411 C410 1.386 . S
C411 C415 1.393 . S
C412 H401 0.950 . S
C412 C410 1.391 . S
C412 C413 1.400 . S
C413 C407 1.491 . S
C413 C412 1.400 . S
C413 C414 1.398 . S
C414 H402 0.950 . S
C414 C413 1.398 . S
C414 C415 1.391 . S
C415 H403 0.950 1_655 S
C415 C411 1.393 . S
C415 C414 1.391 . S
H416 C424 0.950 . S
H417 C429 0.950 . S
H418 C426 0.950 . S
H419 C428 0.950 . S
H420 C430 0.950 . S
H421 C432 0.950 . S
H422 C434 0.950 . S
H423 C435 0.950 . S
C424 H416 0.950 . S
C424 C425 1.386 . S
C424 C426 1.391 . S
C425 C424 1.386 . S
C425 C429 1.393 . S
C426 H418 0.950 . S
C426 C424 1.391 . S
C426 C427 1.400 . S
C427 C426 1.400 . S
C427 C428 1.398 . S
C427 C433 1.491 . S
C428 H419 0.950 . S
C428 C427 1.398 . S
C428 C429 1.391 . S
C429 H417 0.950 . S
C429 C425 1.393 . S
C429 C428 1.391 . S
C430 H420 0.950 . S
C430 C431 1.386 . S
C430 C432 1.391 . S
C431 C430 1.386 . S
C431 C435 1.393 . S
C432 H421 0.950 . S
C432 C430 1.391 . S
C432 C433 1.400 . S
C433 C427 1.491 . S
C433 C432 1.400 . S
C433 C434 1.398 . S
C434 H422 0.950 . S
C434 C433 1.398 . S
C434 C435 1.391 . S
C435 H423 0.950 . S
C435 C431 1.393 . S
C435 C434 1.391 . S
H436 C444 0.950 . S
H437 C449 0.950 1_545 S
H438 C446 0.950 . S
H439 C448 0.950 1_545 S
H440 C450 0.950 . S
H441 C452 0.950 . S
H442 C454 0.950 1_455 S
H443 C455 0.962 . S
C444 H436 0.950 . S
C444 C445 1.386 . S
C444 C446 1.391 . S
C445 C444 1.386 . S
C445 C449 1.393 . S
C446 H438 0.950 . S
C446 C444 1.391 . S
C446 C447 1.400 . S
C447 C446 1.400 . S
C447 C448 1.398 . S
C447 C453 1.491 . S
C448 H439 0.950 1_565 S
C448 C447 1.398 . S
C448 C449 1.391 . S
C449 H437 0.950 1_565 S
C449 C445 1.393 . S
C449 C448 1.391 . S
C450 H440 0.950 . S
C450 C451 1.386 . S
C450 C452 1.391 . S
C451 C450 1.386 . S
C451 C455 1.383 1_645 S
C452 H441 0.950 . S
C452 C450 1.391 . S
C452 C453 1.400 1_545 S
C453 C447 1.491 . S
C453 C452 1.400 1_565 S
C453 C454 1.398 . S
C454 H442 0.950 1_655 S
C454 C453 1.398 . S
C454 C455 1.388 1_655 S
C455 H443 0.962 . S
C455 C451 1.383 1_465 S
C455 C454 1.388 1_455 S
H456 C464 0.950 . S
H457 C469 0.950 . S
H458 C466 0.950 . S
H459 C468 0.950 . S
H460 C470 0.950 1_565 S
H461 C472 0.950 . S
H462 C474 0.950 . S
H463 C475 0.950 . S
C464 H456 0.950 . S
C464 C465 1.386 . S
C464 C466 1.391 . S
C465 C464 1.386 . S
C465 C469 1.393 . S
C466 H458 0.950 . S
C466 C464 1.391 . S
C466 C467 1.400 . S
C467 C466 1.400 . S
C467 C468 1.398 . S
C467 C473 1.491 . S
C468 H459 0.950 . S
C468 C467 1.398 . S
C468 C469 1.391 . S
C469 H457 0.950 . S
C469 C465 1.393 . S
C469 C468 1.391 . S
C470 H460 0.950 1_545 S
C470 C471 1.386 . S
C470 C472 1.391 . S
C471 C470 1.386 . S
C471 C475 1.393 . S
C472 H461 0.950 . S
C472 C470 1.391 . S
C472 C473 1.400 . S
C473 C467 1.491 . S
C473 C472 1.400 . S
C473 C474 1.398 . S
C474 H462 0.950 . S
C474 C473 1.398 . S
C474 C475 1.391 . S
C475 H463 0.950 . S
C475 C471 1.393 . S
C475 C474 1.391 . S
H476 C484 0.950 . S
H477 C489 0.950 . S
H478 C486 0.950 . S
H479 C488 0.950 . S
H480 C490 0.950 . S
H481 C492 0.950 . S
H482 C494 0.950 . S
H483 C495 0.950 . S
C484 H476 0.950 . S
C484 C485 1.386 . S
C484 C486 1.391 . S
C485 C484 1.386 . S
C485 C489 1.393 . S
C486 H478 0.950 . S
C486 C484 1.391 . S
C486 C487 1.400 . S
C487 C486 1.400 . S
C487 C488 1.398 . S
C487 C493 1.491 . S
C488 H479 0.950 . S
C488 C487 1.398 . S
C488 C489 1.391 . S
C489 H477 0.950 . S
C489 C485 1.393 . S
C489 C488 1.391 . S
C490 H480 0.950 . S
C490 C491 1.386 . S
C490 C492 1.391 . S
C491 C490 1.386 . S
C491 C495 1.393 . S
C492 H481 0.950 . S
C492 C490 1.391 . S
C492 C493 1.400 . S
C493 C487 1.491 . S
C493 C492 1.400 . S
C493 C494 1.398 . S
C494 H482 0.950 . S
C494 C493 1.398 . S
C494 C495 1.391 . S
C495 H483 0.950 . S
C495 C491 1.393 . S
C495 C494 1.391 . S
H496 C504 0.950 . S
H497 C509 0.950 . S
H498 C506 0.950 . S
H499 C508 0.950 . S
H500 C510 0.950 . S
H501 C512 0.950 . S
H502 C514 0.950 . S
H503 C515 0.950 . S
C504 H496 0.950 . S
C504 C505 1.386 . S
C504 C506 1.391 . S
C505 C504 1.386 . S
C505 C509 1.393 . S
C506 H498 0.950 . S
C506 C504 1.391 . S
C506 C507 1.400 . S
C507 C506 1.400 . S
C507 C508 1.398 . S
C507 C513 1.491 . S
C508 H499 0.950 . S
C508 C507 1.398 . S
C508 C509 1.391 . S
C509 H497 0.950 . S
C509 C505 1.393 . S
C509 C508 1.391 . S
C510 H500 0.950 . S
C510 C511 1.386 . S
C510 C512 1.391 . S
C511 C510 1.386 . S
C511 C515 1.393 . S
C512 H501 0.950 . S
C512 C510 1.391 . S
C512 C513 1.400 . S
C513 C507 1.491 . S
C513 C512 1.400 . S
C513 C514 1.398 . S
C514 H502 0.950 . S
C514 C513 1.398 . S
C514 C515 1.391 . S
C515 H503 0.950 . S
C515 C511 1.393 . S
C515 C514 1.391 . S
H516 C524 0.950 . S
H517 C529 0.950 . S
H518 C526 0.950 1_545 S
H519 C528 0.950 . S
H520 C530 0.950 1_554 S
H521 C532 0.950 1_554 S
H522 C534 0.950 . S
H523 C535 0.950 . S
C524 H516 0.950 . S
C524 C525 1.386 . S
C524 C526 1.391 . S
C525 C524 1.386 . S
C525 C529 1.393 . S
C526 H518 0.950 1_565 S
C526 C524 1.391 . S
C526 C527 1.400 . S
C527 C526 1.400 . S
C527 C528 1.398 . S
C527 C533 1.491 . S
C528 H519 0.950 . S
C528 C527 1.398 . S
C528 C529 1.391 . S
C529 H517 0.950 . S
C529 C525 1.393 . S
C529 C528 1.391 . S
C530 H520 0.950 1_556 S
C530 C531 1.386 . S
C530 C532 1.391 . S
C531 C530 1.386 . S
C531 C535 1.393 1_565 S
C532 H521 0.950 1_556 S
C532 C530 1.391 . S
C532 C533 1.400 . S
C533 C527 1.491 . S
C533 C532 1.400 . S
C533 C534 1.398 1_565 S
C534 H522 0.950 . S
C534 C533 1.398 1_545 S
C534 C535 1.391 . S
C535 H523 0.950 . S
C535 C531 1.393 1_545 S
C535 C534 1.391 . S
H536 C544 0.950 . S
H537 C549 0.950 . S
H538 C546 0.950 . S
H539 C548 0.950 . S
H540 C550 0.950 . S
H541 C552 0.950 . S
H542 C554 0.950 . S
H543 C555 0.950 . S
C544 H536 0.950 . S
C544 C545 1.386 . S
C544 C546 1.391 . S
C545 C544 1.386 . S
C545 C549 1.393 . S
C546 H538 0.950 . S
C546 C544 1.391 . S
C546 C547 1.400 . S
C547 C546 1.400 . S
C547 C548 1.398 . S
C547 C553 1.491 . S
C548 H539 0.950 . S
C548 C547 1.398 . S
C548 C549 1.391 . S
C549 H537 0.950 . S
C549 C545 1.393 . S
C549 C548 1.391 . S
C550 H540 0.950 . S
C550 C551 1.386 . S
C550 C552 1.391 . S
C551 C550 1.386 . S
C551 C555 1.393 . S
C552 H541 0.950 . S
C552 C550 1.391 . S
C552 C553 1.400 . S
C553 C547 1.491 . S
C553 C552 1.400 . S
C553 C554 1.398 . S
C554 H542 0.950 . S
C554 C553 1.398 . S
C554 C555 1.391 . S
C555 H543 0.950 . S
C555 C551 1.393 . S
C555 C554 1.391 . S
H556 C564 0.950 . S
H557 C569 0.950 . S
H558 C566 0.950 . S
H559 C568 0.950 . S
H560 C570 0.950 1_556 S
H561 C572 0.950 . S
H562 C574 0.950 . S
H563 C575 0.950 . S
C564 H556 0.950 . S
C564 C565 1.386 . S
C564 C566 1.391 . S
C565 C564 1.386 . S
C565 C569 1.393 . S
C566 H558 0.950 . S
C566 C564 1.391 . S
C566 C567 1.400 . S
C567 C566 1.400 . S
C567 C568 1.398 . S
C567 C573 1.491 . S
C568 H559 0.950 . S
C568 C567 1.398 . S
C568 C569 1.391 . S
C569 H557 0.950 . S
C569 C565 1.393 . S
C569 C568 1.391 . S
C570 H560 0.950 1_554 S
C570 C571 1.386 . S
C570 C572 1.391 . S
C571 C570 1.386 . S
C571 C575 1.393 . S
C572 H561 0.950 . S
C572 C570 1.391 . S
C572 C573 1.400 . S
C573 C567 1.491 . S
C573 C572 1.400 . S
C573 C574 1.398 . S
C574 H562 0.950 . S
C574 C573 1.398 . S
C574 C575 1.391 . S
C575 H563 0.950 . S
C575 C571 1.393 . S
C575 C574 1.391 . S
H576 C584 0.950 . S
H577 C589 0.950 . S
H578 C586 0.950 . S
H579 C588 0.950 . S
H580 C590 0.950 . S
H581 C592 0.950 . S
H582 C594 0.950 . S
H583 C595 0.950 . S
C584 H576 0.950 . S
C584 C585 1.386 . S
C584 C586 1.391 . S
C585 C584 1.386 . S
C585 C589 1.393 . S
C586 H578 0.950 . S
C586 C584 1.391 . S
C586 C587 1.400 . S
C587 C586 1.400 . S
C587 C588 1.398 . S
C587 C593 1.491 . S
C588 H579 0.950 . S
C588 C587 1.398 . S
C588 C589 1.391 . S
C589 H577 0.950 . S
C589 C585 1.393 . S
C589 C588 1.391 . S
C590 H580 0.950 . S
C590 C591 1.386 . S
C590 C592 1.391 . S
C591 C590 1.386 . S
C591 C595 1.393 . S
C592 H581 0.950 . S
C592 C590 1.391 . S
C592 C593 1.400 . S
C593 C587 1.491 . S
C593 C592 1.400 . S
C593 C594 1.398 . S
C594 H582 0.950 . S
C594 C593 1.398 . S
C594 C595 1.391 . S
C595 H583 0.950 . S
C595 C591 1.393 . S
C595 C594 1.391 . S
H596 C604 0.950 . S
H597 C609 0.950 . S
H598 C606 0.950 . S
H599 C608 0.950 . S
H600 C610 0.950 . S
H601 C612 0.950 . S
H602 C614 0.952 . S
H603 C615 0.956 . S
C604 H596 0.950 . S
C604 C605 1.386 1_455 S
C604 C606 1.391 . S
C605 C604 1.386 1_655 S
C605 C609 1.393 . S
C606 H598 0.950 . S
C606 C604 1.391 . S
C606 C607 1.400 1_455 S
C607 C606 1.400 1_655 S
C607 C608 1.398 . S
C607 C613 1.491 . S
C608 H599 0.950 . S
C608 C607 1.398 . S
C608 C609 1.391 . S
C609 H597 0.950 . S
C609 C605 1.393 . S
C609 C608 1.391 . S
C610 H600 0.950 . S
C610 C611 1.386 1_655 S
C610 C612 1.391 . S
C611 C610 1.386 1_455 S
C611 C615 1.389 1_556 S
C612 H601 0.950 . S
C612 C610 1.391 . S
C612 C613 1.400 . S
C613 C607 1.491 . S
C613 C612 1.400 . S
C613 C614 1.398 1_655 S
C614 H602 0.952 . S
C614 C613 1.398 1_455 S
C614 C615 1.388 1_556 S
C615 H603 0.956 . S
C615 C611 1.389 1_554 S
C615 C614 1.388 1_554 S
H616 C624 0.950 . S
H617 C629 0.950 . S
H618 C626 0.950 . S
H619 C628 0.950 . S
H620 C630 0.950 . S
H621 C632 0.950 . S
H622 C634 0.950 . S
H623 C635 0.950 . S
C624 H616 0.950 . S
C624 C625 1.386 . S
C624 C626 1.391 . S
C625 C624 1.386 . S
C625 C629 1.393 . S
C626 H618 0.950 . S
C626 C624 1.391 . S
C626 C627 1.400 . S
C627 C626 1.400 . S
C627 C628 1.398 . S
C627 C633 1.491 . S
C628 H619 0.950 . S
C628 C627 1.398 . S
C628 C629 1.391 . S
C629 H617 0.950 . S
C629 C625 1.393 . S
C629 C628 1.391 . S
C630 H620 0.950 . S
C630 C631 1.386 . S
C630 C632 1.391 . S
C631 C630 1.386 . S
C631 C635 1.393 . S
C632 H621 0.950 . S
C632 C630 1.391 . S
C632 C633 1.400 . S
C633 C627 1.491 . S
C633 C632 1.400 . S
C633 C634 1.398 . S
C634 H622 0.950 . S
C634 C633 1.398 . S
C634 C635 1.391 . S
C635 H623 0.950 . S
C635 C631 1.393 . S
C635 C634 1.391 . S
H636 C644 0.950 . S
H637 C649 0.950 . S
H638 C646 0.950 . S
H639 C648 0.950 . S
H640 C650 0.950 . S
H641 C652 0.950 . S
H642 C654 0.950 . S
H643 C655 0.950 1_655 S
C644 H636 0.950 . S
C644 C645 1.386 . S
C644 C646 1.391 . S
C645 C644 1.386 . S
C645 C649 1.393 . S
C646 H638 0.950 . S
C646 C644 1.391 . S
C646 C647 1.400 . S
C647 C646 1.400 . S
C647 C648 1.398 . S
C647 C653 1.491 . S
C648 H639 0.950 . S
C648 C647 1.398 . S
C648 C649 1.391 . S
C649 H637 0.950 . S
C649 C645 1.393 . S
C649 C648 1.391 . S
C650 H640 0.950 . S
C650 C651 1.386 . S
C650 C652 1.391 . S
C651 C650 1.386 . S
C651 C655 1.393 . S
C652 H641 0.950 . S
C652 C650 1.391 . S
C652 C653 1.400 . S
C653 C647 1.491 . S
C653 C652 1.400 . S
C653 C654 1.398 . S
C654 H642 0.950 . S
C654 C653 1.398 . S
C654 C655 1.391 . S
C655 H643 0.950 1_455 S
C655 C651 1.393 . S
C655 C654 1.391 . S
H656 C664 0.950 . S
H657 C669 0.950 . S
H658 C666 0.950 . S
H659 C668 0.950 . S
H660 C670 0.950 . S
H661 C672 0.950 . S
H662 C674 0.950 . S
H663 C675 0.950 . S
C664 H656 0.950 . S
C664 C665 1.386 . S
C664 C666 1.391 . S
C665 C664 1.386 . S
C665 C669 1.393 . S
C666 H658 0.950 . S
C666 C664 1.391 . S
C666 C667 1.400 . S
C667 C666 1.400 . S
C667 C668 1.398 . S
C667 C673 1.491 . S
C668 H659 0.950 . S
C668 C667 1.398 . S
C668 C669 1.391 . S
C669 H657 0.950 . S
C669 C665 1.393 . S
C669 C668 1.391 . S
C670 H660 0.950 . S
C670 C671 1.386 . S
C670 C672 1.391 . S
C671 C670 1.386 . S
C671 C675 1.393 . S
C672 H661 0.950 . S
C672 C670 1.391 . S
C672 C673 1.400 . S
C673 C667 1.491 . S
C673 C672 1.400 . S
C673 C674 1.398 . S
C674 H662 0.950 . S
C674 C673 1.398 . S
C674 C675 1.391 . S
C675 H663 0.950 . S
C675 C671 1.393 . S
C675 C674 1.391 . S
C205 C9 2.004 . S
C211 C122 1.966 . S
C225 C21 1.584 . S
C231 C146 1.548 . S
C251 C166 1.158 . S
C245 C30 1.135 . S
C265 C43 1.159 . S
C271 C189 1.208 . S
C291 C148 1.575 . S
C285 C4 1.590 . S
C311 C124 2.126 . S
C305 C22 2.171 . S
C331 C192 1.263 . S
C325 C34 1.294 . S
C351 C169 1.393 . S
C345 C48 1.424 . S
C365 C8 1.531 . S
C371 C194 1.508 . S
C391 C143 1.636 . S
C385 C35 1.620 . S
C405 C47 1.663 . S
C411 C121 1.676 . S
C425 C17 1.316 . S
C431 C171 1.256 . S
C451 C125 1.653 . S
C445 C60 1.635 . S
C465 C74 1.836 . S
C471 C147 1.827 . S
C485 C82 1.237 . S
C491 C167 1.266 . S
C505 C100 1.958 . S
C511 C190 1.981 . S
C525 C61 1.818 . S
C531 C145 1.794 . S
C551 C123 1.545 . S
C545 C73 1.563 . S
C571 C193 1.515 . S
C565 C87 1.521 . S
C591 C170 1.075 . S
C585 C95 1.099 . S
C605 C56 1.752 . S
C611 C191 1.831 . S
C631 C144 1.624 . S
C625 C86 1.607 . S
C651 C120 1.477 . S
C645 C99 1.453 . S
C665 C69 1.666 . S
C671 C168 1.662 . S
