# Generated by pormake.
# Topology eea, (3,6)-cn, num edge types: 1
# Building blocks:
#     Node 0, Type 0, BuildingBlock: KAKCAD_clean_linker_0, # of connection points: 3
#     Node 1, Type 0, BuildingBlock: KAKCAD_clean_linker_0, # of connection points: 3
#     Node 2, Type 0, BuildingBlock: KAKCAD_clean_linker_0, # of connection points: 3
#     Node 3, Type 0, BuildingBlock: KAKCAD_clean_linker_0, # of connection points: 3
#     Node 4, Type 0, BuildingBlock: KAKCAD_clean_linker_0, # of connection points: 3
#     Node 5, Type 0, BuildingBlock: KAKCAD_clean_linker_0, # of connection points: 3
#     Node 6, Type 0, BuildingBlock: KAKCAD_clean_linker_0, # of connection points: 3
#     Node 7, Type 0, BuildingBlock: KAKCAD_clean_linker_0, # of connection points: 3
#     Node 8, Type 0, BuildingBlock: KAKCAD_clean_linker_0, # of connection points: 3
#     Node 9, Type 0, BuildingBlock: KAKCAD_clean_linker_0, # of connection points: 3
#     Node 10, Type 0, BuildingBlock: KAKCAD_clean_linker_0, # of connection points: 3
#     Node 11, Type 0, BuildingBlock: KAKCAD_clean_linker_0, # of connection points: 3
#     Node 12, Type 0, BuildingBlock: KAKCAD_clean_linker_0, # of connection points: 3
#     Node 13, Type 0, BuildingBlock: KAKCAD_clean_linker_0, # of connection points: 3
#     Node 14, Type 0, BuildingBlock: KAKCAD_clean_linker_0, # of connection points: 3
#     Node 15, Type 0, BuildingBlock: KAKCAD_clean_linker_0, # of connection points: 3
#     Node 16, Type 0, BuildingBlock: KAKCAD_clean_linker_0, # of connection points: 3
#     Node 17, Type 0, BuildingBlock: KAKCAD_clean_linker_0, # of connection points: 3
#     Node 18, Type 1, BuildingBlock: HISSIN_clean_sbu_0, # of connection points: 6
#     Node 19, Type 1, BuildingBlock: HISSIN_clean_sbu_0, # of connection points: 6
#     Node 20, Type 1, BuildingBlock: HISSIN_clean_sbu_0, # of connection points: 6
#     Node 21, Type 1, BuildingBlock: HISSIN_clean_sbu_0, # of connection points: 6
#     Node 22, Type 1, BuildingBlock: HISSIN_clean_sbu_0, # of connection points: 6
#     Node 23, Type 1, BuildingBlock: HISSIN_clean_sbu_0, # of connection points: 6
#     Node 24, Type 1, BuildingBlock: HISSIN_clean_sbu_0, # of connection points: 6
#     Node 25, Type 1, BuildingBlock: HISSIN_clean_sbu_0, # of connection points: 6
#     Node 26, Type 1, BuildingBlock: HISSIN_clean_sbu_0, # of connection points: 6
#     Edge 27, Type (0, 1), BuildingBlock: XIVTED_clean_linker_0, # of connection points: 2
#     Edge 28, Type (0, 1), BuildingBlock: XIVTED_clean_linker_0, # of connection points: 2
#     Edge 29, Type (0, 1), BuildingBlock: XIVTED_clean_linker_0, # of connection points: 2
#     Edge 30, Type (0, 1), BuildingBlock: XIVTED_clean_linker_0, # of connection points: 2
#     Edge 31, Type (0, 1), BuildingBlock: XIVTED_clean_linker_0, # of connection points: 2
#     Edge 32, Type (0, 1), BuildingBlock: XIVTED_clean_linker_0, # of connection points: 2
#     Edge 33, Type (0, 1), BuildingBlock: XIVTED_clean_linker_0, # of connection points: 2
#     Edge 34, Type (0, 1), BuildingBlock: XIVTED_clean_linker_0, # of connection points: 2
#     Edge 35, Type (0, 1), BuildingBlock: XIVTED_clean_linker_0, # of connection points: 2
#     Edge 36, Type (0, 1), BuildingBlock: XIVTED_clean_linker_0, # of connection points: 2
#     Edge 37, Type (0, 1), BuildingBlock: XIVTED_clean_linker_0, # of connection points: 2
#     Edge 38, Type (0, 1), BuildingBlock: XIVTED_clean_linker_0, # of connection points: 2
#     Edge 39, Type (0, 1), BuildingBlock: XIVTED_clean_linker_0, # of connection points: 2
#     Edge 40, Type (0, 1), BuildingBlock: XIVTED_clean_linker_0, # of connection points: 2
#     Edge 41, Type (0, 1), BuildingBlock: XIVTED_clean_linker_0, # of connection points: 2
#     Edge 42, Type (0, 1), BuildingBlock: XIVTED_clean_linker_0, # of connection points: 2
#     Edge 43, Type (0, 1), BuildingBlock: XIVTED_clean_linker_0, # of connection points: 2
#     Edge 44, Type (0, 1), BuildingBlock: XIVTED_clean_linker_0, # of connection points: 2
#     Edge 45, Type (0, 1), BuildingBlock: XIVTED_clean_linker_0, # of connection points: 2
#     Edge 46, Type (0, 1), BuildingBlock: XIVTED_clean_linker_0, # of connection points: 2
#     Edge 47, Type (0, 1), BuildingBlock: XIVTED_clean_linker_0, # of connection points: 2
#     Edge 48, Type (0, 1), BuildingBlock: XIVTED_clean_linker_0, # of connection points: 2
#     Edge 49, Type (0, 1), BuildingBlock: XIVTED_clean_linker_0, # of connection points: 2
#     Edge 50, Type (0, 1), BuildingBlock: XIVTED_clean_linker_0, # of connection points: 2
#     Edge 51, Type (0, 1), BuildingBlock: XIVTED_clean_linker_0, # of connection points: 2
#     Edge 52, Type (0, 1), BuildingBlock: XIVTED_clean_linker_0, # of connection points: 2
#     Edge 53, Type (0, 1), BuildingBlock: XIVTED_clean_linker_0, # of connection points: 2
#     Edge 54, Type (0, 1), BuildingBlock: XIVTED_clean_linker_0, # of connection points: 2
#     Edge 55, Type (0, 1), BuildingBlock: XIVTED_clean_linker_0, # of connection points: 2
#     Edge 56, Type (0, 1), BuildingBlock: XIVTED_clean_linker_0, # of connection points: 2
#     Edge 57, Type (0, 1), BuildingBlock: XIVTED_clean_linker_0, # of connection points: 2
#     Edge 58, Type (0, 1), BuildingBlock: XIVTED_clean_linker_0, # of connection points: 2
#     Edge 59, Type (0, 1), BuildingBlock: XIVTED_clean_linker_0, # of connection points: 2
#     Edge 60, Type (0, 1), BuildingBlock: XIVTED_clean_linker_0, # of connection points: 2
#     Edge 61, Type (0, 1), BuildingBlock: XIVTED_clean_linker_0, # of connection points: 2
#     Edge 62, Type (0, 1), BuildingBlock: XIVTED_clean_linker_0, # of connection points: 2
#     Edge 63, Type (0, 1), BuildingBlock: XIVTED_clean_linker_0, # of connection points: 2
#     Edge 64, Type (0, 1), BuildingBlock: XIVTED_clean_linker_0, # of connection points: 2
#     Edge 65, Type (0, 1), BuildingBlock: XIVTED_clean_linker_0, # of connection points: 2
#     Edge 66, Type (0, 1), BuildingBlock: XIVTED_clean_linker_0, # of connection points: 2
#     Edge 67, Type (0, 1), BuildingBlock: XIVTED_clean_linker_0, # of connection points: 2
#     Edge 68, Type (0, 1), BuildingBlock: XIVTED_clean_linker_0, # of connection points: 2
#     Edge 69, Type (0, 1), BuildingBlock: XIVTED_clean_linker_0, # of connection points: 2
#     Edge 70, Type (0, 1), BuildingBlock: XIVTED_clean_linker_0, # of connection points: 2
#     Edge 71, Type (0, 1), BuildingBlock: XIVTED_clean_linker_0, # of connection points: 2
#     Edge 72, Type (0, 1), BuildingBlock: XIVTED_clean_linker_0, # of connection points: 2
#     Edge 73, Type (0, 1), BuildingBlock: XIVTED_clean_linker_0, # of connection points: 2
#     Edge 74, Type (0, 1), BuildingBlock: XIVTED_clean_linker_0, # of connection points: 2
#     Edge 75, Type (0, 1), BuildingBlock: XIVTED_clean_linker_0, # of connection points: 2
#     Edge 76, Type (0, 1), BuildingBlock: XIVTED_clean_linker_0, # of connection points: 2
#     Edge 77, Type (0, 1), BuildingBlock: XIVTED_clean_linker_0, # of connection points: 2
#     Edge 78, Type (0, 1), BuildingBlock: XIVTED_clean_linker_0, # of connection points: 2
#     Edge 79, Type (0, 1), BuildingBlock: XIVTED_clean_linker_0, # of connection points: 2
#     Edge 80, Type (0, 1), BuildingBlock: XIVTED_clean_linker_0, # of connection points: 2
# Relax obj value: 0.034
# Max RMSD: 0.134
# Mean RMSD: 0.074
data_MOF--net-eea--node1-HISSIN_clean_sbu_0--node2-KAKCAD_clean_linker_0--edge1-XIVTED_clean_linker_0
_symmetry_space_group_name_H-M    P1
_symmetry_Int_Tables_number       1
_symmetry_cell_setting            triclinic
loop_
_symmetry_equiv_pos_as_xyz
'x, y, z'
_cell_length_a     63.458474
_cell_length_b     63.157686
_cell_length_c     90.323834
_cell_angle_alpha  93.266138
_cell_angle_beta   93.534147
_cell_angle_gamma 119.91169
loop_
_atom_site_label
_atom_site_type_symbol
_atom_site_fract_x
_atom_site_fract_y
_atom_site_fract_z
_atom_type_partial_charge
C0 C 0.31621 0.18119 0.47506 0.0
C1 C 0.33262 0.17358 0.47986 0.0
C2 C 0.3077 0.17774 0.46 0.0
C3 C 0.31558 0.16678 0.44937 0.0
C4 C 0.33266 0.15992 0.45414 0.0
C5 C 0.341 0.16319 0.46924 0.0
C6 C 0.30478 0.16114 0.43358 0.0
C7 C 0.29917 0.1774 0.42673 0.0
C8 C 0.2863 0.17091 0.41245 0.0
C9 C 0.28012 0.14829 0.40471 0.0
C10 C 0.28597 0.13197 0.41125 0.0
C11 C 0.29822 0.13854 0.4257 0.0
C12 C 0.27785 0.10734 0.40346 0.0
C13 C 0.25461 0.09369 0.39538 0.0
C14 C 0.29285 0.09685 0.40457 0.0
C15 C 0.28454 0.07305 0.39809 0.0
C16 C 0.26117 0.05934 0.39023 0.0
C17 C 0.27753 0.18674 0.40613 0.0
C18 C 0.26883 0.19868 0.41542 0.0
C19 C 0.27639 0.18891 0.39073 0.0
C20 C 0.26603 0.20197 0.38473 0.0
C21 C 0.25681 0.21341 0.394 0.0
C22 C 0.25878 0.21198 0.40946 0.0
C23 C 0.24642 0.07001 0.38877 0.0
H24 H 0.30917 0.18894 0.48302 0.0
H25 H 0.29422 0.18282 0.45679 0.0
H26 H 0.33938 0.15178 0.44622 0.0
H27 H 0.3539 0.15744 0.47263 0.0
H28 H 0.30456 0.19504 0.43264 0.0
H29 H 0.3015 0.12545 0.43114 0.0
H30 H 0.27008 0.14303 0.39374 0.0
H31 H 0.24237 0.10096 0.39454 0.0
H32 H 0.31099 0.10699 0.41051 0.0
H33 H 0.29638 0.06534 0.39923 0.0
H34 H 0.26906 0.19718 0.42731 0.0
H35 H 0.28322 0.18027 0.38325 0.0
H36 H 0.22819 0.05971 0.38295 0.0
H37 H 0.25236 0.22095 0.41699 0.0
H38 H 0.26467 0.20249 0.37276 0.0
C39 C 0.87564 0.18358 0.47576 0.0
C40 C 0.87125 0.16727 0.4867 0.0
C41 C 0.87841 0.17733 0.46118 0.0
C42 C 0.87642 0.15451 0.45725 0.0
C43 C 0.8724 0.13841 0.46824 0.0
C44 C 0.86997 0.14477 0.48282 0.0
C45 C 0.87745 0.14689 0.44162 0.0
C46 C 0.89668 0.16226 0.43353 0.0
C47 C 0.89805 0.15438 0.4189 0.0
C48 C 0.87942 0.1313 0.41226 0.0
C49 C 0.86012 0.11587 0.42022 0.0
C50 C 0.85933 0.12371 0.4349 0.0
C51 C 0.84123 0.09113 0.41343 0.0
C52 C 0.82883 0.088 0.39934 0.0
C53 C 0.8357 0.07046 0.42101 0.0
C54 C 0.81832 0.047 0.41452 0.0
C55 C 0.80589 0.04383 0.40043 0.0
C56 C 0.91954 0.16955 0.41085 0.0
C57 C 0.92935 0.19504 0.41114 0.0
C58 C 0.93077 0.1586 0.40307 0.0
C59 C 0.95151 0.17283 0.3959 0.0
C60 C 0.96151 0.19837 0.39631 0.0
C61 C 0.95006 0.20928 0.40392 0.0
C62 C 0.81112 0.06453 0.39294 0.0
H63 H 0.87685 0.2011 0.47849 0.0
H64 H 0.88141 0.19001 0.45288 0.0
H65 H 0.87098 0.12078 0.46551 0.0
H66 H 0.86638 0.13174 0.49097 0.0
H67 H 0.91111 0.17985 0.43887 0.0
H68 H 0.84435 0.11182 0.44104 0.0
H69 H 0.88018 0.12509 0.40097 0.0
H70 H 0.83274 0.10371 0.39332 0.0
H71 H 0.84514 0.07243 0.43186 0.0
H72 H 0.81451 0.03131 0.42053 0.0
H73 H 0.92093 0.20395 0.4169 0.0
H74 H 0.9239 0.13906 0.40285 0.0
H75 H 0.80185 0.0625 0.38202 0.0
H76 H 0.95705 0.22885 0.40425 0.0
H77 H 0.96007 0.16386 0.39039 0.0
C78 C 0.8855 0.73326 0.4853 0.0
C79 C 0.86179 0.71458 0.48736 0.0
C80 C 0.89044 0.7438 0.47181 0.0
C81 C 0.8718 0.7359 0.46002 0.0
C82 C 0.84823 0.71682 0.46196 0.0
C83 C 0.84328 0.70633 0.47545 0.0
C84 C 0.87667 0.74811 0.44598 0.0
C85 C 0.89863 0.75517 0.43959 0.0
C86 C 0.90346 0.76724 0.42652 0.0
C87 C 0.88606 0.77238 0.41992 0.0
C88 C 0.86398 0.76527 0.42606 0.0
C89 C 0.85941 0.75314 0.43904 0.0
C90 C 0.84564 0.77054 0.41895 0.0
C91 C 0.85253 0.79428 0.41523 0.0
C92 C 0.82109 0.75183 0.41588 0.0
C93 C 0.80378 0.75672 0.40908 0.0
C94 C 0.81062 0.78049 0.40546 0.0
C95 C 0.92653 0.7743 0.41964 0.0
C96 C 0.94897 0.78433 0.42855 0.0
C97 C 0.92626 0.77116 0.40408 0.0
C98 C 0.94789 0.77797 0.39757 0.0
C99 C 0.97036 0.78806 0.40646 0.0
C100 C 0.97062 0.79112 0.42203 0.0
C101 C 0.83513 0.79926 0.40866 0.0
H102 H 0.9003 0.73984 0.49414 0.0
H103 H 0.90876 0.75858 0.47076 0.0
H104 H 0.8335 0.71003 0.45305 0.0
H105 H 0.82475 0.69215 0.47665 0.0
H106 H 0.91172 0.75074 0.4446 0.0
H107 H 0.84263 0.74829 0.44398 0.0
H108 H 0.88963 0.78189 0.40995 0.0
H109 H 0.87132 0.80904 0.41756 0.0
H110 H 0.81534 0.73335 0.41858 0.0
H111 H 0.78497 0.74196 0.40681 0.0
H112 H 0.94988 0.78731 0.44055 0.0
H113 H 0.90925 0.7631 0.3969 0.0
H114 H 0.8409 0.8177 0.40588 0.0
H115 H 0.98764 0.79914 0.4292 0.0
H116 H 0.94694 0.77493 0.38556 0.0
C117 C 0.13092 0.25867 0.52891 0.0
C118 C 0.12784 0.27873 0.52622 0.0
C119 C 0.12548 0.24814 0.54235 0.0
C120 C 0.11665 0.25725 0.55344 0.0
C121 C 0.11297 0.2769 0.55068 0.0
C122 C 0.11858 0.28759 0.53723 0.0
C123 C 0.11183 0.2464 0.5679 0.0
C124 C 0.12885 0.24136 0.57514 0.0
C125 C 0.12426 0.22986 0.5884 0.0
C126 C 0.10224 0.22369 0.59447 0.0
C127 C 0.08525 0.2292 0.58765 0.0
C128 C 0.09023 0.24061 0.57435 0.0
C129 C 0.06238 0.22305 0.59451 0.0
C130 C 0.04898 0.20048 0.60045 0.0
C131 C 0.05414 0.23997 0.59555 0.0
C132 C 0.03322 0.2346 0.60257 0.0
C133 C 0.01998 0.21214 0.60869 0.0
C134 C 0.14248 0.22441 0.59586 0.0
C135 C 0.157 0.21833 0.58743 0.0
C136 C 0.1457 0.2254 0.61149 0.0
C137 C 0.16276 0.22032 0.61845 0.0
C138 C 0.1776 0.21469 0.61003 0.0
C139 C 0.17448 0.21385 0.5944 0.0
C140 C 0.02805 0.19509 0.60744 0.0
H141 H 0.13741 0.25092 0.52058 0.0
H142 H 0.12807 0.2327 0.54403 0.0
H143 H 0.10633 0.28441 0.55906 0.0
H144 H 0.11618 0.30314 0.53562 0.0
H145 H 0.14596 0.2469 0.57048 0.0
H146 H 0.07694 0.24429 0.56877 0.0
H147 H 0.09825 0.21462 0.6046 0.0
H148 H 0.05459 0.18686 0.59962 0.0
H149 H 0.06422 0.25765 0.59126 0.0
H150 H 0.02776 0.24832 0.6035 0.0
H151 H 0.15486 0.21688 0.57537 0.0
H152 H 0.13525 0.23037 0.61846 0.0
H153 H 0.01806 0.17743 0.61176 0.0
H154 H 0.18569 0.21001 0.58744 0.0
H155 H 0.16411 0.22071 0.63047 0.0
C156 C 0.65893 0.80487 0.54359 0.0
C157 C 0.67199 0.82147 0.53337 0.0
C158 C 0.66624 0.81106 0.5589 0.0
C159 C 0.68641 0.83411 0.56419 0.0
C160 C 0.69937 0.85067 0.55396 0.0
C161 C 0.69229 0.84438 0.53871 0.0
C162 C 0.6944 0.84103 0.58031 0.0
C163 C 0.6987 0.82557 0.58897 0.0
C164 C 0.70913 0.83341 0.60385 0.0
C165 C 0.7144 0.85661 0.61015 0.0
C166 C 0.71007 0.87219 0.6016 0.0
C167 C 0.69992 0.86418 0.58674 0.0
C168 C 0.71808 0.89758 0.60778 0.0
C169 C 0.71329 0.9024 0.62217 0.0
C170 C 0.73139 0.91729 0.59941 0.0
C171 C 0.74 0.94138 0.60535 0.0
C172 C 0.7354 0.94632 0.6198 0.0
C173 C 0.71697 0.81855 0.61218 0.0
C174 C 0.70186 0.79296 0.61162 0.0
C175 C 0.74046 0.82979 0.61993 0.0
C176 C 0.74895 0.81569 0.62658 0.0
C177 C 0.73414 0.79001 0.62567 0.0
C178 C 0.71034 0.77884 0.61834 0.0
C179 C 0.72179 0.92654 0.62811 0.0
H180 H 0.64325 0.78706 0.53972 0.0
H181 H 0.65598 0.79801 0.5666 0.0
H182 H 0.71517 0.86844 0.55775 0.0
H183 H 0.70252 0.85762 0.53109 0.0
H184 H 0.69545 0.80812 0.58382 0.0
H185 H 0.69661 0.87617 0.58005 0.0
H186 H 0.72281 0.86295 0.62153 0.0
H187 H 0.7029 0.88751 0.6288 0.0
H188 H 0.73575 0.91414 0.58838 0.0
H189 H 0.75082 0.95616 0.59876 0.0
H190 H 0.68359 0.78386 0.60585 0.0
H191 H 0.7527 0.84942 0.62032 0.0
H192 H 0.71763 0.92969 0.63918 0.0
H193 H 0.69833 0.75913 0.61765 0.0
H194 H 0.76751 0.82487 0.63192 0.0
C195 C 0.11511 0.82463 0.53705 0.0
C196 C 0.13913 0.83104 0.53454 0.0
C197 C 0.10958 0.82855 0.55134 0.0
C198 C 0.12794 0.83885 0.56342 0.0
C199 C 0.1517 0.84421 0.56099 0.0
C200 C 0.15725 0.84043 0.54672 0.0
C201 C 0.1228 0.84554 0.57828 0.0
C202 C 0.10071 0.83017 0.58415 0.0
C203 C 0.09569 0.83716 0.59796 0.0
C204 C 0.11282 0.85984 0.6058 0.0
C205 C 0.13482 0.87538 0.60006 0.0
C206 C 0.13977 0.86807 0.58639 0.0
C207 C 0.15216 0.89984 0.60793 0.0
C208 C 0.14394 0.91596 0.61229 0.0
C209 C 0.17711 0.90758 0.61061 0.0
C210 C 0.19361 0.93113 0.61745 0.0
C211 C 0.18548 0.94746 0.62147 0.0
C212 C 0.07235 0.82123 0.60413 0.0
C213 C 0.04999 0.8113 0.59521 0.0
C214 C 0.07228 0.81675 0.61918 0.0
C215 C 0.05026 0.80291 0.62527 0.0
C216 C 0.02777 0.79342 0.61647 0.0
C217 C 0.02793 0.79765 0.60133 0.0
C218 C 0.16049 0.93963 0.6189 0.0
H219 H 0.1008 0.81753 0.52786 0.0
H220 H 0.09115 0.82445 0.55279 0.0
H221 H 0.16616 0.85167 0.57011 0.0
H222 H 0.17582 0.84511 0.54517 0.0
H223 H 0.08758 0.81263 0.5781 0.0
H224 H 0.15646 0.8805 0.58178 0.0
H225 H 0.10889 0.86558 0.61632 0.0
H226 H 0.12481 0.91046 0.61023 0.0
H227 H 0.18383 0.89542 0.60737 0.0
H228 H 0.21282 0.93681 0.61924 0.0
H229 H 0.04953 0.81473 0.58361 0.0
H230 H 0.0893 0.82395 0.62626 0.0
H231 H 0.15378 0.95186 0.62198 0.0
H232 H 0.011 0.79095 0.59426 0.0
H233 H 0.0509 0.79959 0.63687 0.0
C234 C 0.97533 0.50927 0.80832 0.0
C235 C 0.99169 0.50189 0.81368 0.0
C236 C 0.96925 0.50773 0.79304 0.0
C237 C 0.97949 0.49891 0.78273 0.0
C238 C -0.00352 0.49229 0.78807 0.0
C239 C 0.00251 0.49376 0.80338 0.0
C240 C 0.97114 0.49513 0.76658 0.0
C241 C 0.96613 0.51195 0.75996 0.0
C242 C 0.95542 0.50698 0.74518 0.0
C243 C 0.95031 0.48523 0.73684 0.0
C244 C 0.95524 0.46823 0.74326 0.0
C245 C 0.96588 0.47343 0.75806 0.0
C246 C 0.94689 0.44388 0.73513 0.0
C247 C 0.92314 0.4303 0.72776 0.0
C248 C 0.96185 0.43336 0.73554 0.0
C249 C 0.95301 0.40947 0.72901 0.0
C250 C 0.92897 0.39558 0.72201 0.0
C251 C 0.94729 0.52322 0.73893 0.0
C252 C 0.93419 0.53117 0.74735 0.0
C253 C 0.95119 0.52963 0.72431 0.0
C254 C 0.94184 0.54344 0.71814 0.0
C255 C 0.92823 0.55094 0.72644 0.0
C256 C 0.92471 0.5448 0.74117 0.0
C257 C 0.91426 0.40641 0.72131 0.0
H258 H 0.96699 0.51601 0.81594 0.0
H259 H 0.95587 0.51269 0.78935 0.0
H260 H 0.00485 0.48564 0.7804 0.0
H261 H 0.01508 0.48782 0.80715 0.0
H262 H 0.97014 0.52879 0.76641 0.0
H263 H 0.96856 0.45978 0.76326 0.0
H264 H 0.94152 0.48101 0.72554 0.0
H265 H 0.91103 0.43776 0.7275 0.0
H266 H 0.98031 0.44353 0.74105 0.0
H267 H 0.96495 0.40183 0.72953 0.0
H268 H 0.93051 0.52611 0.75856 0.0
H269 H 0.96138 0.52387 0.71762 0.0
H270 H 0.89553 0.39613 0.71625 0.0
H271 H 0.91393 0.54982 0.7478 0.0
H272 H 0.94523 0.54819 0.70686 0.0
C273 C 0.54973 0.52445 0.81288 0.0
C274 C 0.54219 0.50712 0.82338 0.0
C275 C 0.55192 0.51787 0.79823 0.0
C276 C 0.54623 0.49375 0.79379 0.0
C277 C 0.53891 0.47654 0.80432 0.0
C278 C 0.537 0.48317 0.81896 0.0
C279 C 0.54725 0.4862 0.77813 0.0
C280 C 0.56791 0.50021 0.77069 0.0
C281 C 0.5692 0.49247 0.75602 0.0
C282 C 0.54931 0.47063 0.74882 0.0
C283 C 0.52855 0.45639 0.75612 0.0
C284 C 0.52766 0.46442 0.77075 0.0
C285 C 0.50828 0.43264 0.74866 0.0
C286 C 0.5008 0.43011 0.73336 0.0
C287 C 0.49687 0.41203 0.7567 0.0
C288 C 0.47878 0.38935 0.74956 0.0
C289 C 0.47182 0.38672 0.7342 0.0
C290 C 0.59143 0.50676 0.74826 0.0
C291 C 0.60424 0.53257 0.75001 0.0
C292 C 0.59987 0.49464 0.73889 0.0
C293 C 0.62023 0.50795 0.73122 0.0
C294 C 0.63296 0.53376 0.73287 0.0
C295 C 0.62481 0.54589 0.74248 0.0
C296 C 0.48285 0.40736 0.72619 0.0
H297 H 0.55397 0.54307 0.81601 0.0
H298 H 0.55752 0.53145 0.7903 0.0
H299 H 0.53461 0.45788 0.80122 0.0
H300 H 0.53091 0.46935 0.82675 0.0
H301 H 0.58331 0.51664 0.77656 0.0
H302 H 0.51155 0.45383 0.77641 0.0
H303 H 0.55011 0.4645 0.73754 0.0
H304 H 0.50887 0.4457 0.72689 0.0
H305 H 0.50244 0.4132 0.76843 0.0
H306 H 0.47081 0.37368 0.75597 0.0
H307 H 0.59819 0.54254 0.75704 0.0
H308 H 0.5908 0.47479 0.73748 0.0
H309 H 0.47761 0.40589 0.71437 0.0
H310 H 0.63437 0.56574 0.74427 0.0
H311 H 0.62573 0.4979 0.72382 0.0
C312 C 0.55654 0.06237 0.81867 0.0
C313 C 0.53262 0.04487 0.82126 0.0
C314 C 0.56121 0.07284 0.80516 0.0
C315 C 0.54209 0.06601 0.79384 0.0
C316 C 0.51828 0.04801 0.79627 0.0
C317 C 0.51359 0.03764 0.80981 0.0
C318 C 0.54678 0.07837 0.77984 0.0
C319 C 0.56813 0.08446 0.77294 0.0
C320 C 0.57308 0.09705 0.76006 0.0
C321 C 0.55627 0.10352 0.75414 0.0
C322 C 0.53463 0.09708 0.76066 0.0
C323 C 0.53005 0.0846 0.77349 0.0
C324 C 0.51664 0.10319 0.75398 0.0
C325 C 0.52407 0.12712 0.75042 0.0
C326 C 0.49189 0.08496 0.75097 0.0
C327 C 0.47496 0.09046 0.74431 0.0
C328 C 0.48237 0.11439 0.74076 0.0
C329 C 0.59564 0.1033 0.7527 0.0
C330 C 0.61795 0.11066 0.76119 0.0
C331 C 0.59506 0.10216 0.73707 0.0
C332 C 0.61624 0.10852 0.73013 0.0
C333 C 0.63858 0.11592 0.73861 0.0
C334 C 0.6391 0.11677 0.75424 0.0
C335 C 0.50705 0.13273 0.74399 0.0
H336 H 0.57172 0.06812 0.82713 0.0
H337 H 0.57974 0.08677 0.80374 0.0
H338 H 0.50315 0.04202 0.78773 0.0
H339 H 0.49491 0.02441 0.81141 0.0
H340 H 0.58064 0.0789 0.77744 0.0
H341 H 0.5137 0.08039 0.77876 0.0
H342 H 0.55987 0.11347 0.74435 0.0
H343 H 0.54302 0.14153 0.75271 0.0
H344 H 0.48573 0.06633 0.75354 0.0
H345 H 0.45602 0.07603 0.74202 0.0
H346 H 0.61922 0.11202 0.77326 0.0
H347 H 0.57818 0.0962 0.73011 0.0
H348 H 0.51325 0.15129 0.74128 0.0
H349 H 0.65583 0.12202 0.76117 0.0
H350 H 0.61507 0.10792 0.71809 0.0
C351 C 0.79202 0.59088 0.86034 0.0
C352 C 0.78854 0.61068 0.85762 0.0
C353 C 0.78771 0.58108 0.87406 0.0
C354 C 0.77961 0.59071 0.88533 0.0
C355 C 0.77579 0.61029 0.88255 0.0
C356 C 0.78036 0.62027 0.86887 0.0
C357 C 0.77571 0.58069 0.90004 0.0
C358 C 0.79323 0.57631 0.90724 0.0
C359 C 0.78999 0.56708 0.92121 0.0
C360 C 0.76882 0.56206 0.92795 0.0
C361 C 0.7508 0.56587 0.92082 0.0
C362 C 0.75456 0.57543 0.9069 0.0
C363 C 0.72792 0.55941 0.92783 0.0
C364 C 0.71658 0.53826 0.93543 0.0
C365 C 0.7172 0.57423 0.92698 0.0
C366 C 0.69578 0.56811 0.93364 0.0
C367 C 0.68469 0.54713 0.94138 0.0
C368 C 0.80867 0.56255 0.92873 0.0
C369 C 0.81869 0.55058 0.92071 0.0
C370 C 0.81649 0.57003 0.94397 0.0
C371 C 0.83394 0.5656 0.95106 0.0
C372 C 0.84385 0.55341 0.94309 0.0
C373 C 0.83601 0.54599 0.92781 0.0
C374 C 0.69532 0.53227 0.94218 0.0
H375 H 0.79851 0.58323 0.85195 0.0
H376 H 0.79063 0.56588 0.87583 0.0
H377 H 0.76972 0.61818 0.89107 0.0
H378 H 0.77733 0.6354 0.86705 0.0
H379 H 0.80976 0.58067 0.90212 0.0
H380 H 0.74068 0.57808 0.90114 0.0
H381 H 0.76633 0.55498 0.93874 0.0
H382 H 0.72395 0.5261 0.93604 0.0
H383 H 0.72557 0.59082 0.9214 0.0
H384 H 0.68817 0.58007 0.93297 0.0
H385 H 0.81279 0.54434 0.90899 0.0
H386 H 0.80935 0.5796 0.95039 0.0
H387 H 0.68699 0.51576 0.94785 0.0
H388 H 0.84289 0.53619 0.92136 0.0
H389 H 0.83985 0.572 0.96276 0.0
C390 C 0.32207 0.12776 0.87795 0.0
C391 C 0.33648 0.14365 0.86782 0.0
C392 C 0.3286 0.13413 0.89331 0.0
C393 C 0.34936 0.15668 0.89873 0.0
C394 C 0.36365 0.17258 0.88858 0.0
C395 C 0.35735 0.16606 0.87328 0.0
C396 C 0.35648 0.16358 0.91494 0.0
C397 C 0.35917 0.14754 0.92394 0.0
C398 C 0.36806 0.15479 0.9391 0.0
C399 C 0.37329 0.17806 0.94529 0.0
C400 C 0.37095 0.19436 0.93634 0.0
C401 C 0.36247 0.18697 0.92119 0.0
C402 C 0.37959 0.21989 0.94248 0.0
C403 C 0.37234 0.22486 0.95601 0.0
C404 C 0.39611 0.23953 0.93505 0.0
C405 C 0.40559 0.2637 0.94117 0.0
C406 C 0.39852 0.26871 0.95474 0.0
C407 C 0.37456 0.13929 0.94789 0.0
C408 C 0.36013 0.11352 0.94591 0.0
C409 C 0.39652 0.15018 0.95738 0.0
C410 C 0.40431 0.1357 0.96426 0.0
C411 C 0.39047 0.10999 0.96171 0.0
C412 C 0.36807 0.09902 0.95269 0.0
C413 C 0.38157 0.24912 0.96203 0.0
H414 H 0.30592 0.11035 0.87399 0.0
H415 H 0.31732 0.12159 0.90095 0.0
H416 H 0.37988 0.18996 0.8925 0.0
H417 H 0.36862 0.17874 0.86569 0.0
H418 H 0.35583 0.13003 0.91885 0.0
H419 H 0.36075 0.19956 0.91422 0.0
H420 H 0.38028 0.18397 0.95693 0.0
H421 H 0.3596 0.20999 0.96192 0.0
H422 H 0.40218 0.23618 0.92468 0.0
H423 H 0.41849 0.27851 0.93529 0.0
H424 H 0.34295 0.10455 0.93886 0.0
H425 H 0.40837 0.16993 0.95896 0.0
H426 H 0.37594 0.25255 0.97255 0.0
H427 H 0.3569 0.07922 0.95069 0.0
H428 H 0.42181 0.14467 0.97099 0.0
C429 C 0.77513 0.1569 0.86676 0.0
C430 C 0.7992 0.16403 0.86389 0.0
C431 C 0.77011 0.16152 0.88109 0.0
C432 C 0.78905 0.17329 0.89279 0.0
C433 C 0.81282 0.17907 0.89006 0.0
C434 C 0.81784 0.17456 0.87578 0.0
C435 C 0.78465 0.18152 0.90743 0.0
C436 C 0.76384 0.16635 0.91446 0.0
C437 C 0.75949 0.17481 0.92808 0.0
C438 C 0.77655 0.19867 0.93463 0.0
C439 C 0.79752 0.214 0.9278 0.0
C440 C 0.80121 0.20529 0.91414 0.0
C441 C 0.81544 0.23927 0.93473 0.0
C442 C 0.80756 0.25384 0.94216 0.0
C443 C 0.84062 0.24916 0.93377 0.0
C444 C 0.85742 0.27311 0.93982 0.0
C445 C 0.84956 0.28772 0.94723 0.0
C446 C 0.73695 0.15919 0.93535 0.0
C447 C 0.71455 0.14347 0.92675 0.0
C448 C 0.73741 0.16063 0.95098 0.0
C449 C 0.71598 0.14755 0.9578 0.0
C450 C 0.69348 0.13209 0.94921 0.0
C451 C 0.69319 0.12994 0.93358 0.0
C452 C 0.8244 0.27766 0.94843 0.0
H453 H 0.7604 0.14884 0.8578 0.0
H454 H 0.75164 0.15698 0.88282 0.0
H455 H 0.82772 0.18768 0.89891 0.0
H456 H 0.83647 0.17977 0.87397 0.0
H457 H 0.75127 0.14788 0.9094 0.0
H458 H 0.8167 0.21737 0.90843 0.0
H459 H 0.77343 0.20549 0.94504 0.0
H460 H 0.78832 0.24702 0.94297 0.0
H461 H 0.84744 0.23838 0.92834 0.0
H462 H 0.87656 0.28023 0.93848 0.0
H463 H 0.7133 0.14196 0.91469 0.0
H464 H 0.75433 0.17204 0.95806 0.0
H465 H 0.81762 0.28812 0.95427 0.0
H466 H 0.67644 0.11783 0.92652 0.0
H467 H 0.71712 0.15004 0.96983 0.0
C468 C 0.6448 0.84262 0.13802 0.0
C469 C 0.66032 0.83443 0.14365 0.0
C470 C 0.63706 0.83871 0.12281 0.0
C471 C 0.64483 0.82669 0.11285 0.0
C472 C 0.66101 0.81922 0.11844 0.0
C473 C 0.66859 0.82296 0.13369 0.0
C474 C 0.6349 0.82073 0.09687 0.0
C475 C 0.63069 0.83729 0.08929 0.0
C476 C 0.61885 0.83074 0.07472 0.0
C477 C 0.61221 0.80767 0.06747 0.0
C478 C 0.6166 0.79097 0.07478 0.0
C479 C 0.62788 0.79766 0.08949 0.0
C480 C 0.60799 0.76592 0.06749 0.0
C481 C 0.58511 0.7527 0.05896 0.0
C482 C 0.6221 0.75461 0.06954 0.0
C483 C 0.61329 0.73047 0.0635 0.0
C484 C 0.59028 0.71721 0.05518 0.0
C485 C 0.61175 0.8472 0.06755 0.0
C486 C 0.60283 0.85984 0.07603 0.0
C487 C 0.61271 0.8496 0.05218 0.0
C488 C 0.60462 0.86404 0.04543 0.0
C489 C 0.59562 0.87651 0.05395 0.0
C490 C 0.59497 0.87439 0.06933 0.0
C491 C 0.57641 0.72866 0.05282 0.0
H492 H 0.63785 0.85121 0.14546 0.0
H493 H 0.62426 0.84431 0.11896 0.0
H494 H 0.66765 0.81026 0.11104 0.0
H495 H 0.68082 0.81675 0.13771 0.0
H496 H 0.63641 0.85527 0.09484 0.0
H497 H 0.63007 0.78438 0.09547 0.0
H498 H 0.60298 0.80241 0.05626 0.0
H499 H 0.57354 0.76064 0.05739 0.0
H500 H 0.63996 0.7644 0.07585 0.0
H501 H 0.6245 0.72218 0.06533 0.0
H502 H 0.60126 0.85797 0.08782 0.0
H503 H 0.61974 0.84035 0.04535 0.0
H504 H 0.55847 0.71875 0.04661 0.0
H505 H 0.58774 0.88345 0.07613 0.0
H506 H 0.60552 0.86555 0.03357 0.0
C507 C 0.22343 0.85833 0.15036 0.0
C508 C 0.21643 0.84151 0.16115 0.0
C509 C 0.22561 0.85134 0.1358 0.0
C510 C 0.22052 0.8273 0.13175 0.0
C511 C 0.21386 0.81063 0.1426 0.0
C512 C 0.2119 0.81767 0.15714 0.0
C513 C 0.22129 0.81924 0.11615 0.0
C514 C 0.24126 0.83357 0.10826 0.0
C515 C 0.24219 0.82557 0.09356 0.0
C516 C 0.22251 0.80321 0.08675 0.0
C517 C 0.20255 0.78862 0.09455 0.0
C518 C 0.20208 0.79678 0.10922 0.0
C519 C 0.18254 0.76448 0.08754 0.0
C520 C 0.17233 0.76197 0.07286 0.0
C521 C 0.17388 0.74365 0.09543 0.0
C522 C 0.15567 0.72069 0.08868 0.0
C523 C 0.14558 0.71806 0.07392 0.0
C524 C 0.26403 0.83999 0.08551 0.0
C525 C 0.27639 0.86581 0.08699 0.0
C526 C 0.2729 0.82795 0.07643 0.0
C527 C 0.29352 0.84136 0.06898 0.0
C528 C 0.30595 0.86712 0.07056 0.0
C529 C 0.29718 0.87923 0.07964 0.0
C530 C 0.15399 0.73903 0.06614 0.0
H531 H 0.22719 0.87688 0.15317 0.0
H532 H 0.23067 0.86451 0.12763 0.0
H533 H 0.21004 0.79206 0.13981 0.0
H534 H 0.20622 0.8042 0.16515 0.0
H535 H 0.25647 0.85048 0.1138 0.0
H536 H 0.1865 0.78576 0.1152 0.0
H537 H 0.22287 0.79688 0.07541 0.0
H538 H 0.17844 0.77778 0.06659 0.0
H539 H 0.18165 0.745 0.1067 0.0
H540 H 0.14995 0.70491 0.09493 0.0
H541 H 0.26988 0.87569 0.09371 0.0
H542 H 0.26422 0.80813 0.07527 0.0
H543 H 0.14633 0.73778 0.05486 0.0
H544 H 0.30627 0.89909 0.08094 0.0
H545 H 0.30007 0.83154 0.06224 0.0
C546 C 0.22107 0.40424 0.15294 0.0
C547 C 0.19704 0.38719 0.15558 0.0
C548 C 0.22602 0.4136 0.13908 0.0
C549 C 0.20704 0.40601 0.12753 0.0
C550 C 0.18311 0.38854 0.13013 0.0
C551 C 0.17817 0.37934 0.14397 0.0
C552 C 0.21188 0.41631 0.11286 0.0
C553 C 0.23293 0.42072 0.10612 0.0
C554 C 0.23666 0.42928 0.09195 0.0
C555 C 0.21922 0.43348 0.08449 0.0
C556 C 0.19844 0.42997 0.09121 0.0
C557 C 0.19509 0.42151 0.10543 0.0
C558 C 0.18044 0.43549 0.08357 0.0
C559 C 0.18823 0.4555 0.07499 0.0
C560 C 0.15532 0.4211 0.08507 0.0
C561 C 0.13856 0.42688 0.07846 0.0
C562 C 0.14636 0.447 0.06997 0.0
C563 C 0.25891 0.4341 0.08491 0.0
C564 C 0.28219 0.45063 0.09222 0.0
C565 C 0.25697 0.42286 0.07062 0.0
C566 C 0.27798 0.42805 0.06377 0.0
C567 C 0.30127 0.44498 0.07094 0.0
C568 C 0.30319 0.45624 0.08523 0.0
C569 C 0.17142 0.46107 0.0682 0.0
H570 H 0.23598 0.41078 0.16171 0.0
H571 H 0.24461 0.42719 0.13754 0.0
H572 H 0.16812 0.38181 0.1214 0.0
H573 H 0.15954 0.36587 0.14555 0.0
H574 H 0.2461 0.41685 0.11165 0.0
H575 H 0.17957 0.41945 0.11093 0.0
H576 H 0.22204 0.43971 0.07347 0.0
H577 H 0.20741 0.46722 0.0737 0.0
H578 H 0.1485 0.40528 0.09137 0.0
H579 H 0.11951 0.41574 0.08026 0.0
H580 H 0.2841 0.45961 0.10321 0.0
H581 H 0.23919 0.41004 0.06478 0.0
H582 H 0.17817 0.47643 0.06153 0.0
H583 H 0.32096 0.46927 0.091 0.0
H584 H 0.27604 0.41921 0.05273 0.0
C585 C 0.45507 0.92169 0.19387 0.0
C586 C 0.45331 0.94252 0.19131 0.0
C587 C 0.4507 0.91214 0.20764 0.0
C588 C 0.44426 0.92306 0.21916 0.0
C589 C 0.44213 0.94368 0.21656 0.0
C590 C 0.44679 0.95343 0.2028 0.0
C591 C 0.44022 0.91302 0.23385 0.0
C592 C 0.45689 0.90707 0.2406 0.0
C593 C 0.45295 0.8965 0.25417 0.0
C594 C 0.43182 0.89169 0.26091 0.0
C595 C 0.4151 0.89779 0.25442 0.0
C596 C 0.41956 0.90874 0.24098 0.0
C597 C 0.39272 0.89218 0.2616 0.0
C598 C 0.37741 0.86848 0.26565 0.0
C599 C 0.38672 0.91049 0.26466 0.0
C600 C 0.36603 0.90529 0.2719 0.0
C601 C 0.3507 0.88156 0.27593 0.0
C602 C 0.47095 0.89058 0.26127 0.0
C603 C 0.48228 0.88074 0.25257 0.0
C604 C 0.47717 0.89498 0.2768 0.0
C605 C 0.49424 0.88966 0.28346 0.0
C606 C 0.5056 0.8799 0.27474 0.0
C607 C 0.49945 0.87553 0.25922 0.0
C608 C 0.35649 0.86317 0.27263 0.0
H609 H 0.46028 0.91301 0.1853 0.0
H610 H 0.45227 0.89611 0.20928 0.0
H611 H 0.4373 0.95252 0.22526 0.0
H612 H 0.44514 0.96941 0.2011 0.0
H613 H 0.47324 0.91114 0.23537 0.0
H614 H 0.40647 0.91304 0.23578 0.0
H615 H 0.42829 0.88313 0.27124 0.0
H616 H 0.38157 0.85402 0.26334 0.0
H617 H 0.39829 0.92892 0.26169 0.0
H618 H 0.36189 0.91976 0.27426 0.0
H619 H 0.47765 0.87674 0.24061 0.0
H620 H 0.46913 0.90293 0.28382 0.0
H621 H 0.34506 0.84477 0.27569 0.0
H622 H 0.5076 0.86768 0.25223 0.0
H623 H 0.49884 0.89355 0.29542 0.0
C624 C -0.00375 0.47598 0.21164 0.0
C625 C 0.00558 0.49541 0.20257 0.0
C626 C 0.00229 0.48059 0.22711 0.0
C627 C 0.01762 0.50472 0.23378 0.0
C628 C 0.02653 0.52412 0.2247 0.0
C629 C 0.02055 0.51953 0.20931 0.0
C630 C 0.02544 0.50985 0.25005 0.0
C631 C 0.03302 0.49536 0.25732 0.0
C632 C 0.04345 0.50202 0.27221 0.0
C633 C 0.0461 0.52333 0.27987 0.0
C634 C 0.03841 0.53795 0.27282 0.0
C635 C 0.0276 0.53071 0.25801 0.0
C636 C 0.04368 0.56184 0.28042 0.0
C637 C 0.04209 0.56461 0.29581 0.0
C638 C 0.05172 0.58251 0.27239 0.0
C639 C 0.05835 0.6054 0.27958 0.0
C640 C 0.05738 0.60827 0.295 0.0
C641 C 0.05323 0.48772 0.27937 0.0
C642 C 0.03966 0.46195 0.27787 0.0
C643 C 0.07659 0.49976 0.28733 0.0
C644 C 0.08637 0.4863 0.29344 0.0
C645 C 0.07297 0.4605 0.29174 0.0
C646 C 0.04939 0.44848 0.28402 0.0
C647 C 0.04902 0.58765 0.30305 0.0
H648 H 0.98476 0.45718 0.20676 0.0
H649 H 0.99504 0.46528 0.23383 0.0
H650 H 0.03868 0.5429 0.22944 0.0
H651 H 0.02773 0.53494 0.20266 0.0
H652 H 0.03215 0.47967 0.25113 0.0
H653 H 0.02127 0.54164 0.25253 0.0
H654 H 0.05485 0.5289 0.2912 0.0
H655 H 0.03566 0.54903 0.30229 0.0
H656 H 0.05376 0.58125 0.26061 0.0
H657 H 0.06513 0.62107 0.27315 0.0
H658 H 0.0215 0.45222 0.27193 0.0
H659 H 0.08763 0.51961 0.28847 0.0
H660 H 0.04794 0.58937 0.31494 0.0
H661 H 0.03842 0.42863 0.28274 0.0
H662 H 0.10472 0.49612 0.29911 0.0
C663 C 0.44211 0.47824 0.20009 0.0
C664 C 0.46621 0.48576 0.19711 0.0
C665 C 0.43713 0.48269 0.21445 0.0
C666 C 0.45615 0.49468 0.22608 0.0
C667 C 0.48001 0.50096 0.22324 0.0
C668 C 0.48499 0.49661 0.20892 0.0
C669 C 0.45164 0.5025 0.2408 0.0
C670 C 0.43089 0.48695 0.24775 0.0
C671 C 0.42641 0.495 0.26144 0.0
C672 C 0.44307 0.51884 0.26811 0.0
C673 C 0.46383 0.53461 0.26129 0.0
C674 C 0.46789 0.52628 0.24763 0.0
C675 C 0.48095 0.56006 0.26814 0.0
C676 C 0.47206 0.57423 0.27492 0.0
C677 C 0.50632 0.57056 0.26769 0.0
C678 C 0.52237 0.59473 0.27371 0.0
C679 C 0.51343 0.60883 0.28045 0.0
C680 C 0.40397 0.47907 0.26858 0.0
C681 C 0.38132 0.4648 0.25994 0.0
C682 C 0.40477 0.47905 0.28417 0.0
C683 C 0.38338 0.46588 0.291 0.0
C684 C 0.36062 0.45217 0.28239 0.0
C685 C 0.35993 0.45144 0.26676 0.0
C686 C 0.48814 0.59832 0.28107 0.0
H687 H 0.42729 0.46996 0.19119 0.0
H688 H 0.41859 0.4778 0.21626 0.0
H689 H 0.49498 0.50977 0.23205 0.0
H690 H 0.50366 0.50216 0.20702 0.0
H691 H 0.4184 0.46851 0.24259 0.0
H692 H 0.48334 0.5387 0.24201 0.0
H693 H 0.4397 0.52529 0.27858 0.0
H694 H 0.45262 0.5669 0.27523 0.0
H695 H 0.51381 0.56004 0.26276 0.0
H696 H 0.54182 0.60228 0.27327 0.0
H697 H 0.37998 0.4645 0.24791 0.0
H698 H 0.42195 0.4895 0.29117 0.0
H699 H 0.48075 0.60889 0.28605 0.0
H700 H 0.34281 0.44071 0.25975 0.0
H701 H 0.38466 0.46707 0.30305 0.0
Eu702 Eu 0.48705 0.97954 0.99077 0.0
Eu703 Eu 0.50752 0.014 0.02349 0.0
C704 C 0.4762 0.02283 0.99775 0.0
C705 C 0.47781 0.96324 0.94932 0.0
C706 C 0.48694 0.98802 0.94715 0.0
C707 C 0.48028 0.95459 0.92313 0.0
C708 C 0.49265 0.99603 0.93307 0.0
C709 C 0.47447 0.94656 0.93724 0.0
C710 C 0.48957 0.97947 0.92088 0.0
C711 C 0.47301 0.95515 0.96432 0.0
O712 O 0.47769 0.97667 0.0278 0.0
O713 O 0.45545 0.96434 0.00487 0.0
C714 C 0.457 0.96319 0.01935 0.0
O715 O 0.49998 0.96014 0.0058 0.0
O716 O 0.50086 0.03348 0.04168 0.0
O717 O 0.53398 0.03162 0.04322 0.0
O718 O 0.52822 0.99391 0.02125 0.0
C719 C 0.51946 0.97118 0.01554 0.0
O720 O 0.52547 0.00946 0.98863 0.0
O721 O 0.53272 0.03888 0.00778 0.0
O722 O 0.47966 0.0214 0.01204 0.0
O723 O 0.49203 0.95841 0.97275 0.0
O724 O 0.45968 0.96179 0.97151 0.0
O725 O 0.48325 0.01251 0.98774 0.0
C726 C 0.51479 0.0288 0.06521 0.0
C727 C 0.50827 0.00461 0.06759 0.0
C728 C 0.50814 0.0358 0.0908 0.0
C729 C 0.50176 0.99608 0.08148 0.0
C730 C 0.51477 0.04435 0.0769 0.0
C731 C 0.50138 0.01148 0.09324 0.0
C732 C 0.51986 0.03725 0.0503 0.0
C733 C 0.53832 0.03188 0.99535 0.0
H734 H 0.48981 0.00122 0.95638 0.0
H735 H 0.47798 0.94138 0.91407 0.0
H736 H 0.49937 0.01522 0.93174 0.0
H737 H 0.46769 0.92742 0.93876 0.0
H738 H 0.50793 0.99222 0.05865 0.0
H739 H 0.50773 0.04807 0.09949 0.0
H740 H 0.49705 0.97739 0.08298 0.0
H741 H 0.51944 0.06298 0.07519 0.0
Eu742 Eu 0.01411 0.51183 0.99427 0.0
Eu743 Eu 0.98055 0.49654 0.0224 0.0
C744 C 0.96612 0.45911 0.99357 0.0
C745 C 0.03634 0.51792 0.95561 0.0
C746 C 0.01395 0.49861 0.94877 0.0
C747 C 0.04992 0.52918 0.93129 0.0
C748 C 0.00953 0.49466 0.93324 0.0
C749 C 0.05434 0.53304 0.94682 0.0
C750 C 0.02736 0.51009 0.92431 0.0
C751 C 0.04066 0.52329 0.97185 0.0
O752 O 0.00601 0.48136 0.02509 0.0
O753 O 0.03727 0.51015 0.0135 0.0
C754 C 0.02913 0.49302 0.02265 0.0
O755 O 0.02491 0.54697 0.00826 0.0
O756 O 0.9568 0.46813 0.03584 0.0
O757 O 0.96473 0.50552 0.04082 0.0
O758 O 0.01486 0.53199 0.03085 0.0
C759 C 0.02684 0.55032 0.02286 0.0
O760 O 0.97932 0.51055 0.98575 0.0
O761 O 0.96738 0.51684 0.0083 0.0
O762 O 0.95773 0.46893 1.00298 0.0
O763 O 0.03214 0.5366 0.9775 0.0
O764 O 0.03648 0.50494 0.97954 0.0
O765 O 0.98918 0.47067 0.99104 0.0
C766 C 0.95986 0.48213 0.06097 0.0
C767 C 0.98188 0.48376 0.06635 0.0
C768 C 0.94779 0.47896 0.08606 0.0
C769 C 0.98685 0.48302 0.08152 0.0
C770 C 0.94282 0.47962 0.07087 0.0
C771 C 0.96993 0.48079 0.09159 0.0
C772 C 0.95478 0.48348 0.04511 0.0
C773 C 0.96609 0.5166 0.9937 0.0
H774 H -0.00019 0.48682 0.95545 0.0
H775 H 0.0639 0.54163 0.92477 0.0
H776 H 0.99209 0.47961 0.92822 0.0
H777 H 0.07165 0.54814 0.95197 0.0
H778 H 0.99525 0.48571 0.05881 0.0
H779 H 0.93455 0.4776 0.09353 0.0
H780 H 0.00392 0.48415 0.08537 0.0
H781 H 0.92578 0.47846 0.06686 0.0
Eu782 Eu 0.50344 0.48646 0.02124 0.0
Eu783 Eu 0.47968 0.49701 0.99106 0.0
C784 C 0.51342 0.53984 0.01643 0.0
C785 C 0.51574 0.47893 0.06166 0.0
C786 C 0.51152 0.49731 0.06769 0.0
C787 C 0.51006 0.46186 0.08549 0.0
C788 C 0.50681 0.49807 0.08255 0.0
C789 C 0.515 0.46124 0.07065 0.0
C790 C 0.50593 0.4803 0.09159 0.0
C791 C 0.51976 0.47732 0.04588 0.0
O792 O 0.51288 0.49641 0.98399 0.0
O793 O 0.53444 0.50266 0.00682 0.0
C794 C 0.53318 0.5021 0.9922 0.0
O795 O 0.49289 0.45543 1.00358 0.0
O796 O 0.47155 0.52053 0.97787 0.0
O797 O 0.45969 0.48334 0.96894 0.0
O798 O 0.45988 0.45635 0.99318 0.0
C799 C 0.47142 0.44438 0.99581 0.0
O800 O 0.46402 0.47351 0.02456 0.0
O801 O 0.45607 0.49661 0.00884 0.0
O802 O 0.50984 0.53339 1.00203 0.0
O803 O 0.50095 0.46064 0.03707 0.0
O804 O 0.53142 0.49805 0.04 0.0
O805 O 0.50653 0.52331 0.02598 0.0
C806 C 0.47357 0.51319 0.95223 0.0
C807 C 0.49891 0.52388 0.95187 0.0
C808 C 0.46869 0.51316 0.92537 0.0
C809 C 0.50903 0.52872 0.93831 0.0
C810 C 0.45858 0.50827 0.93896 0.0
C811 C 0.49397 0.52289 0.92486 0.0
C812 C 0.4626 0.50458 0.96609 0.0
C813 C 0.45066 0.48291 0.01999 0.0
H814 H 0.51164 0.51094 0.06088 0.0
H815 H 0.50967 0.44805 0.09223 0.0
H816 H 0.50338 0.51229 0.0869 0.0
H817 H 0.51805 0.44683 0.06614 0.0
H818 H 0.51076 0.5277 0.96202 0.0
H819 H 0.45656 0.50818 0.91521 0.0
H820 H 0.52859 0.53648 0.93831 0.0
H821 H 0.43895 0.49977 0.93904 0.0
Eu822 Eu 0.15198 0.31569 0.32434 0.0
Eu823 Eu 0.17143 0.3491 0.35712 0.0
C824 C 0.14547 0.36272 0.33098 0.0
C825 C 0.14333 0.30131 0.28256 0.0
C826 C 0.14535 0.32399 0.28013 0.0
C827 C 0.15151 0.29684 0.25699 0.0
C828 C 0.15035 0.33299 0.26621 0.0
C829 C 0.14633 0.28776 0.2709 0.0
C830 C 0.1537 0.31961 0.25451 0.0
C831 C 0.14011 0.2927 0.29751 0.0
O832 O 0.13099 0.32358 0.35682 0.0
O833 O 0.12465 0.29215 0.33968 0.0
C834 C 0.11771 0.30077 0.3508 0.0
O835 O 0.17706 0.30574 0.33691 0.0
O836 O 0.16647 0.36941 0.37571 0.0
O837 O 0.19865 0.36574 0.37648 0.0
O838 O 0.16958 0.31327 0.36043 0.0
C839 C 0.17744 0.30274 0.35114 0.0
O840 O 0.18372 0.35235 0.32078 0.0
O841 O 0.20419 0.36161 0.34407 0.0
O842 O 0.16327 0.37172 0.34189 0.0
O843 O 0.16028 0.29858 0.30566 0.0
O844 O 0.12492 0.29596 0.3051 0.0
O845 O 0.13558 0.34005 0.3248 0.0
C846 C 0.18089 0.36379 0.39897 0.0
C847 C 0.17778 0.34083 0.40185 0.0
C848 C 0.17359 0.37016 0.42452 0.0
C849 C 0.17287 0.33272 0.41598 0.0
C850 C 0.17872 0.37836 0.41039 0.0
C851 C 0.17069 0.34726 0.42748 0.0
C852 C 0.18541 0.37213 0.38397 0.0
C853 C 0.20405 0.36403 0.32972 0.0
H854 H 0.14354 0.33497 0.28907 0.0
H855 H 0.15379 0.28602 0.24817 0.0
H856 H 0.15224 0.35073 0.26472 0.0
H857 H 0.14507 0.27035 0.27262 0.0
H858 H 0.17899 0.32906 0.39314 0.0
H859 H 0.17216 0.38183 0.43317 0.0
H860 H 0.17036 0.31484 0.41783 0.0
H861 H 0.18088 0.39605 0.40835 0.0
Eu862 Eu 0.67328 0.83408 0.32493 0.0
Eu863 Eu 0.64122 0.82153 0.35382 0.0
C864 C 0.62694 0.78148 0.32575 0.0
C865 C 0.69517 0.84368 0.28598 0.0
C866 C 0.67332 0.82531 0.27796 0.0
C867 C 0.71018 0.86055 0.26287 0.0
C868 C 0.67005 0.8244 0.26245 0.0
C869 C 0.7135 0.86133 0.27836 0.0
C870 C 0.68848 0.842 0.25475 0.0
C871 C 0.6992 0.84477 0.30225 0.0
O872 O 0.67664 0.824 0.3621 0.0
O873 O 0.68518 0.81328 0.33955 0.0
C874 C 0.68829 0.81586 0.3542 0.0
O875 O 0.69639 0.86344 0.34353 0.0
O876 O 0.61976 0.79483 0.36886 0.0
O877 O 0.62412 0.83112 0.37121 0.0
O878 O 0.66541 0.86271 0.35551 0.0
C879 C 0.68827 0.87405 0.35258 0.0
O880 O 0.64699 0.84804 0.32083 0.0
O881 O 0.61734 0.82377 0.33536 0.0
O882 O 0.63023 0.78584 0.34033 0.0
O883 O 0.69578 0.86065 0.31003 0.0
O884 O 0.69029 0.82379 0.30793 0.0
O885 O 0.63837 0.79904 0.3172 0.0
C886 C 0.62102 0.81115 0.39297 0.0
C887 C 0.64474 0.82613 0.40007 0.0
C888 C 0.60708 0.79499 0.41639 0.0
C889 C 0.64961 0.82556 0.41529 0.0
C890 C 0.60223 0.79568 0.4012 0.0
C891 C 0.63087 0.80982 0.42361 0.0
C892 C 0.61595 0.81018 0.37684 0.0
C893 C 0.62467 0.83853 0.32479 0.0
H894 H 0.65883 0.81165 0.28368 0.0
H895 H 0.72475 0.87422 0.25722 0.0
H896 H 0.65302 0.81009 0.2565 0.0
H897 H 0.73046 0.87566 0.2844 0.0
H898 H 0.65952 0.83804 0.39382 0.0
H899 H 0.59232 0.78241 0.4224 0.0
H900 H 0.66805 0.83749 0.42053 0.0
H901 H 0.58387 0.78378 0.3958 0.0
Eu902 Eu 0.17455 0.82798 0.3588 0.0
Eu903 Eu 0.15083 0.83821 0.32838 0.0
C904 C 0.18524 0.88135 0.35362 0.0
C905 C 0.1878 0.82072 0.39914 0.0
C906 C 0.18462 0.83969 0.40539 0.0
C907 C 0.18137 0.80315 0.42282 0.0
C908 C 0.18001 0.84046 0.42029 0.0
C909 C 0.18621 0.80252 0.40796 0.0
C910 C 0.17819 0.82211 0.42913 0.0
C911 C 0.19135 0.81889 0.38328 0.0
O912 O 0.18154 0.83291 0.32145 0.0
O913 O 0.20502 0.84386 0.34391 0.0
C914 C 0.2026 0.84047 0.32928 0.0
O915 O 0.15982 0.79473 0.34214 0.0
O916 O 0.14485 0.86245 0.31459 0.0
O917 O 0.13072 0.82451 0.3063 0.0
O918 O 0.12835 0.79821 0.33158 0.0
C919 C 0.13804 0.78474 0.3348 0.0
O920 O 0.13672 0.81923 0.36361 0.0
O921 O 0.12677 0.83831 0.34569 0.0
O922 O 0.18146 0.87456 0.33925 0.0
O923 O 0.17223 0.80228 0.37466 0.0
O924 O 0.20304 0.83948 0.37726 0.0
O925 O 0.17836 0.86508 0.36334 0.0
C926 C 0.14659 0.85346 0.28914 0.0
C927 C 0.17163 0.86193 0.28889 0.0
C928 C 0.14244 0.85342 0.26226 0.0
C929 C 0.18193 0.86574 0.27538 0.0
C930 C 0.13214 0.8496 0.2758 0.0
C931 C 0.16735 0.86102 0.26186 0.0
C932 C 0.13518 0.84608 0.30302 0.0
C933 C 0.12269 0.8273 0.35801 0.0
H934 H 0.18538 0.85374 0.39872 0.0
H935 H 0.18024 0.78887 0.4294 0.0
H936 H 0.17733 0.85511 0.42479 0.0
H937 H 0.18843 0.78765 0.40329 0.0
H938 H 0.18305 0.86485 0.2991 0.0
H939 H 0.13063 0.84931 0.25205 0.0
H940 H 0.20122 0.8719 0.27549 0.0
H941 H 0.11273 0.84279 0.2758 0.0
Eu942 Eu 0.81868 0.64823 0.657 0.0
Eu943 Eu 0.83713 0.68293 0.68938 0.0
C944 C 0.81089 0.69478 0.66275 0.0
C945 C 0.80951 0.63219 0.61547 0.0
C946 C 0.81496 0.65613 0.61326 0.0
C947 C 0.81408 0.62535 0.58942 0.0
C948 C 0.82003 0.66467 0.59924 0.0
C949 C 0.80895 0.6168 0.60346 0.0
C950 C 0.81995 0.64951 0.58717 0.0
C951 C 0.80642 0.62402 0.63051 0.0
O952 O 0.79656 0.65708 0.68831 0.0
O953 O 0.79259 0.6249 0.67292 0.0
C954 C 0.78441 0.6338 0.68312 0.0
O955 O 0.84419 0.63922 0.6699 0.0
O956 O 0.8306 0.70291 0.70739 0.0
O957 O 0.86341 0.70037 0.70914 0.0
O958 O 0.83743 0.64831 0.69334 0.0
C959 C 0.84543 0.63758 0.68429 0.0
O960 O 0.85045 0.68448 0.65291 0.0
O961 O 0.87027 0.69724 0.67657 0.0
O962 O 0.82893 0.70457 0.6735 0.0
O963 O 0.82669 0.63025 0.63866 0.0
O964 O 0.79135 0.62765 0.63799 0.0
O965 O 0.80142 0.67194 0.65692 0.0
C966 C 0.84384 0.69729 0.73095 0.0
C967 C 0.83877 0.67349 0.73331 0.0
C968 C 0.83597 0.70306 0.75644 0.0
C969 C 0.83246 0.66458 0.74712 0.0
C970 C 0.84246 0.71203 0.7426 0.0
C971 C 0.83076 0.67914 0.75885 0.0
C972 C 0.8493 0.70614 0.71615 0.0
C973 C 0.87035 0.69794 0.66205 0.0
H974 H 0.81569 0.66837 0.62244 0.0
H975 H 0.81416 0.61327 0.58045 0.0
H976 H 0.82409 0.68322 0.59788 0.0
H977 H 0.80507 0.59836 0.60503 0.0
H978 H 0.83951 0.66169 0.72443 0.0
H979 H 0.83454 0.71468 0.76513 0.0
H980 H 0.82901 0.64627 0.7486 0.0
H981 H 0.84605 0.73035 0.74094 0.0
Eu982 Eu 0.34848 0.17311 0.66083 0.0
Eu983 Eu 0.31724 0.16227 0.69013 0.0
C984 C 0.30303 0.12099 0.66329 0.0
C985 C 0.37032 0.18135 0.62177 0.0
C986 C 0.34857 0.16316 0.61356 0.0
C987 C 0.38572 0.19895 0.5989 0.0
C988 C 0.34554 0.16275 0.59807 0.0
C989 C 0.38882 0.19923 0.61436 0.0
C990 C 0.36408 0.18067 0.59059 0.0
C991 C 0.37407 0.1822 0.63805 0.0
O992 O 0.3527 0.1647 0.69829 0.0
O993 O 0.36122 0.15348 0.67587 0.0
C994 C 0.36438 0.15645 0.69051 0.0
O995 O 0.37033 0.20467 0.6785 0.0
O996 O 0.28795 0.13645 0.70247 0.0
O997 O 0.31016 0.17464 0.71121 0.0
O998 O 0.33807 0.20313 0.68917 0.0
C999 C 0.36096 0.21533 0.68642 0.0
O1000 O 0.32074 0.18455 0.655 0.0
O1001 O 0.29351 0.16652 0.67245 0.0
O1002 O 0.30808 0.12611 0.67781 0.0
O1003 O 0.37172 0.19883 0.64581 0.0
O1004 O 0.36417 0.1612 0.64375 0.0
O1005 O 0.31283 0.13827 0.65436 0.0
C1006 C 0.29613 0.14538 0.72863 0.0
C1007 C 0.31932 0.15395 0.73622 0.0
C1008 C 0.27743 0.12462 0.75005 0.0
C1009 C 0.32156 0.14844 0.75078 0.0
C1010 C 0.27523 0.13036 0.73552 0.0
C1011 C 0.30063 0.134 0.75797 0.0
C1012 C 0.2935 0.15269 0.71379 0.0
C1013 C 0.29974 0.17797 0.66037 0.0
H1014 H 0.33395 0.14932 0.61911 0.0
H1015 H 0.40038 0.21286 0.59342 0.0
H1016 H 0.32856 0.14863 0.59196 0.0
H1017 H 0.4057 0.21342 0.62054 0.0
H1018 H 0.33574 0.16544 0.73105 0.0
H1019 H 0.26094 0.11307 0.75511 0.0
H1020 H 0.33971 0.15628 0.75655 0.0
H1021 H 0.25718 0.1234 0.72976 0.0
Eu1022 Eu 0.84105 0.16342 0.68864 0.0
Eu1023 Eu 0.81921 0.17558 0.65813 0.0
C1024 C 0.8495 0.2172 0.68484 0.0
C1025 C 0.85209 0.15552 0.72927 0.0
C1026 C 0.84827 0.17436 0.73496 0.0
C1027 C 0.84562 0.13901 0.75327 0.0
C1028 C 0.84329 0.17557 0.74974 0.0
C1029 C 0.85081 0.13794 0.73852 0.0
C1030 C 0.84171 0.15779 0.75902 0.0
C1031 C 0.85561 0.15294 0.71347 0.0
O1032 O 0.85876 0.18822 0.65571 0.0
O1033 O 0.86541 0.16415 0.67127 0.0
C1034 C 0.87156 0.17824 0.66029 0.0
O1035 O 0.81369 0.12749 0.67565 0.0
O1036 O 0.8223 0.2018 0.64247 0.0
O1037 O 0.79202 0.16437 0.63892 0.0
O1038 O 0.81769 0.13984 0.65222 0.0
C1039 C 0.81109 0.12246 0.66115 0.0
O1040 O 0.80995 0.16835 0.69515 0.0
O1041 O 0.78779 0.15752 0.67221 0.0
O1042 O 0.82978 0.20721 0.67533 0.0
O1043 O 0.83599 0.13739 0.70486 0.0
O1044 O 0.8688 0.17311 0.70736 0.0
O1045 O 0.85961 0.20457 0.68926 0.0
C1046 C 0.80985 0.18371 0.61781 0.0
C1047 C 0.81869 0.16819 0.61336 0.0
C1048 C 0.81529 0.19891 0.59343 0.0
C1049 C 0.82573 0.16799 0.59904 0.0
C1050 C 0.80811 0.19899 0.60776 0.0
C1051 C 0.82436 0.18352 0.58892 0.0
C1052 C 0.80415 0.18521 0.63322 0.0
C1053 C 0.78923 0.16053 0.68684 0.0
H1054 H 0.84876 0.18789 0.72791 0.0
H1055 H 0.84472 0.12519 0.7602 0.0
H1056 H 0.84007 0.19008 0.75381 0.0
H1057 H 0.8535 0.12315 0.73427 0.0
H1058 H 0.82041 0.15641 0.62102 0.0
H1059 H 0.81427 0.21133 0.58601 0.0
H1060 H 0.83222 0.1556 0.5959 0.0
H1061 H 0.80162 0.21131 0.6111 0.0
H1062 H 0.34939 0.90702 0.08227 0.0
H1063 H 0.41144 0.92854 0.00601 0.0
H1064 H 0.31328 0.85931 0.04164 0.0
H1065 H 0.45179 0.96218 0.04916 0.0
H1066 H 0.37449 0.90468 0.01837 0.0
H1067 H 0.38628 0.92968 0.06974 0.0
C1068 C 0.3492 0.90142 0.07068 0.0
C1069 C 0.32826 0.88128 0.06298 0.0
C1070 C 0.39149 0.9172 0.0251 0.0
C1071 C 0.37042 0.90702 0.04858 0.0
C1072 C 0.41258 0.93082 0.01807 0.0
C1073 C 0.43477 0.94739 0.02655 0.0
C1074 C 0.39255 0.9204 0.04071 0.0
C1075 C 0.43514 0.94959 0.04214 0.0
C1076 C 0.3703 0.91423 0.06356 0.0
C1077 C 0.32912 0.87461 0.04802 0.0
N1078 N 0.41434 0.93638 0.0487 0.0
N1079 N 0.34982 0.88752 0.04128 0.0
H1080 H 0.09846 0.41593 0.0583 0.0
H1081 H 0.07899 0.52038 0.02644 0.0
H1082 H 0.15332 0.49292 0.06602 0.0
H1083 H 0.01853 0.45123 0.03585 0.0
H1084 H 0.10734 0.50924 0.03824 0.0
H1085 H 0.06959 0.42718 0.04752 0.0
C1086 C 0.10448 0.43519 0.05785 0.0
C1087 C 0.12853 0.45346 0.06314 0.0
C1088 C 0.08786 0.49655 0.03777 0.0
C1089 C 0.09555 0.46634 0.05042 0.0
C1090 C 0.07167 0.50284 0.03099 0.0
C1091 C 0.04634 0.48668 0.03015 0.0
C1092 C 0.07872 0.47376 0.04353 0.0
C1093 C 0.03791 0.46426 0.0363 0.0
C1094 C 0.08795 0.44156 0.05162 0.0
C1095 C 0.13523 0.47809 0.06187 0.0
N1096 N 0.05407 0.45836 0.04263 0.0
N1097 N 0.11889 0.48377 0.05558 0.0
H1098 H 0.59037 0.68051 0.0698 0.0
H1099 H 0.5239 0.57849 1.00014 0.0
H1100 H 0.56751 0.69487 0.0274 0.0
H1101 H 0.5304 0.56115 0.04515 0.0
H1102 H 0.54364 0.62188 0.00937 0.0
H1103 H 0.57249 0.63733 0.0603 0.0
C1104 C 0.58176 0.67459 0.05844 0.0
C1105 C 0.58038 0.69125 0.04936 0.0
C1106 C 0.54073 0.60857 0.01722 0.0
C1107 C 0.55979 0.64194 0.03847 0.0
C1108 C 0.52951 0.5838 0.01196 0.0
C1109 C 0.52543 0.56615 0.0219 0.0
C1110 C 0.54813 0.61581 0.03251 0.0
C1111 C 0.53307 0.57411 0.0371 0.0
C1112 C 0.57142 0.64994 0.05307 0.0
C1113 C 0.56875 0.68256 0.0348 0.0
N1114 N 0.54411 0.59839 0.04194 0.0
N1115 N 0.55894 0.6585 0.02979 0.0
H1116 H 0.89665 0.3062 0.96023 0.0
H1117 H 0.91647 0.43641 0.9887 0.0
H1118 H 0.84354 0.328 0.94878 0.0
H1119 H 0.97718 0.42578 0.98103 0.0
H1120 H 0.88837 0.39496 0.97681 0.0
H1121 H 0.9256 0.34842 0.97047 0.0
C1122 C 0.89106 0.3198 0.95973 0.0
C1123 C 0.86746 0.31335 0.95359 0.0
C1124 C 0.90785 0.40176 0.97767 0.0
C1125 C 0.90045 0.36159 0.96569 0.0
C1126 C 0.92388 0.42535 0.9845 0.0
C1127 C 0.94917 0.43449 0.98586 0.0
C1128 C 0.91714 0.38704 0.97241 0.0
C1129 C 0.9578 0.41943 0.98014 0.0
C1130 C 0.90761 0.34388 0.96566 0.0
C1131 C 0.86125 0.33183 0.95364 0.0
N1132 N 0.94177 0.3963 0.97379 0.0
N1133 N 0.87757 0.35504 0.95968 0.0
H1134 H 0.64385 0.54794 0.93029 0.0
H1135 H 0.57693 0.50885 1.00457 0.0
H1136 H 0.67428 0.53182 0.96915 0.0
H1137 H 0.54044 0.50978 0.96285 0.0
H1138 H 0.6137 0.51992 0.99223 0.0
H1139 H 0.60686 0.53695 0.94255 0.0
C1140 C 0.6428 0.5422 0.94143 0.0
C1141 C 0.66218 0.54075 0.94869 0.0
C1142 C 0.59763 0.51765 0.98576 0.0
C1143 C 0.61988 0.52809 0.96277 0.0
C1144 C 0.5766 0.51136 0.99281 0.0
C1145 C 0.55548 0.50835 0.98475 0.0
C1146 C 0.59771 0.52118 0.97055 0.0
C1147 C 0.55623 0.51183 0.96952 0.0
C1148 C 0.62162 0.53579 0.94838 0.0
C1149 C 0.65969 0.53294 0.96306 0.0
N1150 N 0.57701 0.51815 0.96293 0.0
N1151 N 0.63899 0.52699 0.96963 0.0
H1152 H 0.39165 0.07183 0.94679 0.0
H1153 H 0.46395 0.0514 0.01494 0.0
H1154 H 0.41238 0.11429 0.98971 0.0
H1155 H 0.45838 0.02286 0.96936 0.0
H1156 H 0.44128 0.07121 0.0066 0.0
H1157 H 0.41155 0.04968 0.95577 0.0
C1158 C 0.40009 0.07623 0.95818 0.0
C1159 C 0.4004 0.09493 0.96752 0.0
C1160 C 0.44506 0.06064 0.99843 0.0
C1161 C 0.42348 0.06993 0.97779 0.0
C1162 C 0.458 0.04932 1.00318 0.0
C1163 C 0.46314 0.0355 0.99282 0.0
C1164 C 0.43701 0.05795 0.98325 0.0
C1165 C 0.45495 0.03343 0.97773 0.0
C1166 C 0.41165 0.06377 0.96324 0.0
C1167 C 0.41193 0.10015 0.98211 0.0
N1168 N 0.44223 0.04448 0.97341 0.0
N1169 N 0.42305 0.08773 0.9868 0.0
H1170 H 0.68741 0.11357 0.97663 0.0
H1171 H 0.54422 0.03554 0.9659 0.0
H1172 H 0.64658 0.11965 0.93859 0.0
H1173 H 0.58247 0.06724 0.00968 0.0
H1174 H 0.58198 0.06177 0.95486 0.0
H1175 H 0.64957 0.09212 0.98835 0.0
C1176 C 0.67067 0.11068 0.97074 0.0
C1177 C 0.67046 0.1186 0.9565 0.0
C1178 C 0.58202 0.06313 0.96687 0.0
C1179 C 0.62691 0.09323 0.9698 0.0
C1180 C 0.56057 0.04819 0.97317 0.0
C1181 C 0.56033 0.04934 0.98871 0.0
C1182 C 0.60352 0.07879 0.97619 0.0
C1183 C 0.58193 0.06599 0.99765 0.0
C1184 C 0.64905 0.09831 0.97746 0.0
C1185 C 0.64782 0.11352 0.94938 0.0
N1186 N 0.60284 0.07985 0.99126 0.0
N1187 N 0.62697 0.10096 0.95603 0.0
H1188 H 0.84528 0.54011 0.97143 0.0
H1189 H 0.96103 0.523 0.96412 0.0
H1190 H 0.88406 0.55477 0.93219 0.0
H1191 H 0.93126 0.52371 0.00575 0.0
H1192 H 0.93157 0.53222 0.95174 0.0
H1193 H 0.87534 0.53183 0.98374 0.0
C1194 C 0.8602 0.54179 0.96541 0.0
C1195 C 0.86209 0.54825 0.95072 0.0
C1196 C 0.93155 0.53041 0.96359 0.0
C1197 C 0.89644 0.53831 0.96474 0.0
C1198 C 0.94834 0.5251 0.97067 0.0
C1199 C 0.94867 0.52258 0.98602 0.0
C1200 C 0.91481 0.53302 0.97188 0.0
C1201 C 0.93177 0.52555 0.99392 0.0
C1202 C 0.8773 0.53691 0.97244 0.0
C1203 C 0.8816 0.54955 0.94343 0.0
N1204 N 0.9155 0.53052 0.98675 0.0
N1205 N 0.89797 0.54459 0.9505 0.0
H1206 H 0.4467 0.30394 0.95891 0.0
H1207 H 0.42369 0.41256 0.98512 0.0
H1208 H 0.37488 0.29164 0.9656 0.0
H1209 H 0.49347 0.41679 0.99357 0.0
H1210 H 0.40554 0.36932 0.97561 0.0
H1211 H 0.46439 0.34668 0.9693 0.0
C1212 C 0.43468 0.31031 0.96256 0.0
C1213 C 0.40932 0.29436 0.96138 0.0
C1214 C 0.4248 0.37973 0.9796 0.0
C1215 C 0.42936 0.34311 0.9732 0.0
C1216 C 0.43519 0.40441 0.98496 0.0
C1217 C 0.46013 0.41827 0.99013 0.0
C1218 C 0.43954 0.36899 0.97921 0.0
C1219 C 0.47415 0.40676 0.98974 0.0
C1220 C 0.44477 0.33461 0.96855 0.0
C1221 C 0.39454 0.30339 0.9664 0.0
N1222 N 0.46369 0.38282 0.98428 0.0
N1223 N 0.40477 0.32727 0.972 0.0
H1224 H 0.1076 0.68034 0.08605 0.0
H1225 H 0.05801 0.59129 0.01007 0.0
H1226 H 0.14103 0.69949 0.04497 0.0
H1227 H 0.03371 0.56635 0.05266 0.0
H1228 H 0.08599 0.63218 0.02245 0.0
H1229 H 0.0781 0.63953 0.07379 0.0
C1230 C 0.10882 0.67598 0.07447 0.0
C1231 C 0.12691 0.69345 0.06655 0.0
C1232 C 0.07455 0.61778 0.0291 0.0
C1233 C 0.09296 0.64685 0.05242 0.0
C1234 C 0.05848 0.59439 0.02204 0.0
C1235 C 0.04349 0.57529 0.03034 0.0
C1236 C 0.07562 0.62225 0.04461 0.0
C1237 C 0.04498 0.58049 0.04582 0.0
C1238 C 0.09189 0.65271 0.06747 0.0
C1239 C 0.12724 0.68684 0.05149 0.0
N1240 N 0.06077 0.60351 0.05246 0.0
N1241 N 0.11055 0.66411 0.04494 0.0
H1242 H 0.33818 0.49035 0.06605 0.0
H1243 H 0.42399 0.44356 0.03536 0.0
H1244 H 0.31467 0.41335 0.05888 0.0
H1245 H 0.42709 0.50933 0.02167 0.0
H1246 H 0.38748 0.43433 0.04769 0.0
H1247 H 0.37466 0.4999 0.05338 0.0
C1248 C 0.3408 0.4755 0.06185 0.0
C1249 C 0.32347 0.45104 0.06347 0.0
C1250 C 0.39616 0.45075 0.04196 0.0
C1251 C 0.36507 0.4618 0.04919 0.0
C1252 C 0.41704 0.45611 0.03499 0.0
C1253 C 0.42857 0.47724 0.02745 0.0
C1254 C 0.38701 0.4669 0.0417 0.0
C1255 C 0.41868 0.49278 0.02728 0.0
C1256 C 0.36147 0.48094 0.05458 0.0
C1257 C 0.32757 0.43243 0.05777 0.0
N1258 N 0.39856 0.48741 0.03441 0.0
N1259 N 0.34807 0.4382 0.05099 0.0
H1260 H 0.56533 0.8643 0.02808 0.0
H1261 H 0.55774 0.98704 0.03707 0.0
H1262 H 0.60456 0.92218 0.06391 0.0
H1263 H 0.50968 0.92505 0.00516 0.0
H1264 H 0.57782 0.96491 0.04537 0.0
H1265 H 0.54778 0.88787 0.01774 0.0
C1266 C 0.57045 0.88209 0.03366 0.0
C1267 C 0.5863 0.89127 0.04691 0.0
C1268 C 0.5629 0.95612 0.03654 0.0
C1269 C 0.56621 0.91815 0.03526 0.0
C1270 C 0.55141 0.96877 0.03176 0.0
C1271 C 0.53189 0.95785 0.02042 0.0
C1272 C 0.55493 0.93235 0.02993 0.0
C1273 C 0.52457 0.93413 0.01398 0.0
C1274 C 0.56031 0.89543 0.02783 0.0
C1275 C 0.59215 0.91428 0.05379 0.0
N1276 N 0.53609 0.92214 0.01884 0.0
N1277 N 0.58208 0.9269 0.0479 0.0
H1278 H 9e-05 0.24362 0.40693 0.0
H1279 H 0.08147 0.25362 0.34036 0.0
H1280 H 0.97506 0.18784 0.36972 0.0
H1281 H 0.10076 0.31156 0.37544 0.0
H1282 H 0.04301 0.22833 0.35111 0.0
H1283 H 0.03762 0.26812 0.39559 0.0
C1284 C 0.00235 0.23659 0.39629 0.0
C1285 C 0.98427 0.21363 0.38926 0.0
C1286 C 0.05571 0.24661 0.3564 0.0
C1287 C 0.02762 0.24152 0.37627 0.0
C1288 C 0.07767 0.26102 0.3503 0.0
C1289 C 0.09438 0.28479 0.35697 0.0
C1290 C 0.05055 0.25602 0.36929 0.0
C1291 C 0.08846 0.29342 0.36983 0.0
C1292 C 0.02392 0.25055 0.38985 0.0
C1293 C 0.98859 0.2053 0.37563 0.0
N1294 N 0.06712 0.27907 0.37555 0.0
N1295 N 0.00983 0.21923 0.36958 0.0
H1296 H 0.80229 0.818 0.41324 0.0
H1297 H 0.70638 0.78781 0.34282 0.0
H1298 H 0.77729 0.75474 0.38131 0.0
H1299 H 0.70983 0.83034 0.383 0.0
H1300 H 0.73577 0.77881 0.3555 0.0
H1301 H 0.77191 0.82629 0.40101 0.0
C1302 C 0.79043 0.80592 0.40363 0.0
C1303 C 0.79225 0.78566 0.39826 0.0
C1304 C 0.73001 0.79003 0.36155 0.0
C1305 C 0.75767 0.79507 0.38421 0.0
C1306 C 0.71331 0.79526 0.35431 0.0
C1307 C 0.70563 0.80984 0.36187 0.0
C1308 C 0.73943 0.79979 0.37637 0.0
C1309 C 0.71517 0.81892 0.37677 0.0
C1310 C 0.77304 0.81056 0.39673 0.0
C1311 C 0.77634 0.77044 0.38586 0.0
N1312 N 0.73173 0.8139 0.38351 0.0
N1313 N 0.75982 0.77555 0.37918 0.0
H1314 H 0.23723 0.03711 0.36265 0.0
H1315 H 0.20358 0.90291 0.38212 0.0
H1316 H 0.26328 0.02301 0.40407 0.0
H1317 H 0.19501 0.91984 0.33727 0.0
H1318 H 0.22347 0.94657 0.39074 0.0
H1319 H 0.21964 0.99382 0.35341 0.0
C1320 C 0.23928 0.02488 0.36977 0.0
C1321 C 0.2517 0.03359 0.38414 0.0
C1322 C 0.21732 0.94073 0.379 0.0
C1323 C 0.23158 0.98416 0.37372 0.0
C1324 C 0.20588 0.9158 0.37408 0.0
C1325 C 0.19759 0.90771 0.35895 0.0
C1326 C 0.22025 0.95768 0.36876 0.0
C1327 C 0.20116 0.92526 0.34903 0.0
C1328 C 0.22935 0.00025 0.36448 0.0
C1329 C 0.25404 0.01707 0.39288 0.0
N1330 N 0.2121 0.94942 0.35412 0.0
N1331 N 0.24391 0.9931 0.38757 0.0
H1332 H 0.55183 0.64495 0.26799 0.0
H1333 H 0.59472 0.74248 0.33955 0.0
H1334 H 0.51367 0.6309 0.30741 0.0
H1335 H 0.6209 0.76262 0.29663 0.0
H1336 H 0.5672 0.70057 0.32845 0.0
H1337 H 0.57971 0.68726 0.27883 0.0
C1338 C 0.5494 0.65077 0.27895 0.0
C1339 C 0.53044 0.63446 0.28683 0.0
C1340 C 0.57892 0.71415 0.32145 0.0
C1341 C 0.56214 0.68268 0.29925 0.0
C1342 C 0.59472 0.7381 0.32778 0.0
C1343 C 0.61016 0.7561 0.31901 0.0
C1344 C 0.57866 0.70804 0.30623 0.0
C1345 C 0.60926 0.74933 0.3038 0.0
C1346 C 0.5652 0.67492 0.28508 0.0
C1347 C 0.52791 0.64297 0.30091 0.0
N1348 N 0.59382 0.72578 0.2979 0.0
N1349 N 0.54365 0.66647 0.3067 0.0
H1350 H 0.34806 0.907 0.30061 0.0
H1351 H 0.20345 0.82649 0.30013 0.0
H1352 H 0.30383 0.84347 0.26902 0.0
H1353 H 0.25101 0.86707 0.34017 0.0
H1354 H 0.23944 0.83658 0.28702 0.0
H1355 H 0.31193 0.89686 0.31372 0.0
C1356 C 0.33069 0.89101 0.2964 0.0
C1357 C 0.32888 0.87601 0.28374 0.0
C1358 C 0.24195 0.84316 0.29869 0.0
C1359 C 0.28758 0.86441 0.29859 0.0
C1360 C 0.22144 0.83746 0.30619 0.0
C1361 C 0.2242 0.84582 0.32132 0.0
C1362 C 0.26542 0.85771 0.30629 0.0
C1363 C 0.248 0.86006 0.32856 0.0
C1364 C 0.31017 0.88515 0.30392 0.0
C1365 C 0.30601 0.85539 0.27881 0.0
N1366 N 0.2677 0.8657 0.32095 0.0
N1367 N 0.2862 0.85027 0.28618 0.0
H1368 H 0.06969 0.41881 0.27841 0.0
H1369 H 0.15504 0.40803 0.34302 0.0
H1370 H 0.10135 0.46969 0.31822 0.0
H1371 H 0.11424 0.35266 0.30605 0.0
H1372 H 0.13784 0.43242 0.33354 0.0
H1373 H 0.08784 0.39558 0.28794 0.0
C1374 C 0.08029 0.425 0.28923 0.0
C1375 C 0.08385 0.44617 0.29756 0.0
C1376 C 0.13269 0.41492 0.32754 0.0
C1377 C 0.10512 0.41982 0.30846 0.0
C1378 C 0.14255 0.40104 0.33291 0.0
C1379 C 0.13599 0.37821 0.32536 0.0
C1380 C 0.11631 0.40596 0.31449 0.0
C1381 C 0.11971 0.37005 0.31231 0.0
C1382 C 0.09081 0.4118 0.29463 0.0
C1383 C 0.0983 0.4536 0.31135 0.0
N1384 N 0.11047 0.3839 0.30731 0.0
N1385 N 0.1084 0.44043 0.31638 0.0
H1386 H 0.35287 0.42821 0.3078 0.0
H1387 H 0.21005 0.38034 0.30207 0.0
H1388 H 0.3159 0.44706 0.27381 0.0
H1389 H 0.25082 0.38138 0.34245 0.0
H1390 H 0.24825 0.40237 0.29078 0.0
H1391 H 0.31522 0.40843 0.31992 0.0
C1392 C 0.33693 0.42832 0.3029 0.0
C1393 C 0.33766 0.43936 0.28971 0.0
C1394 C 0.24887 0.39793 0.30214 0.0
C1395 C 0.29436 0.41636 0.30346 0.0
C1396 C 0.22706 0.38533 0.3086 0.0
C1397 C 0.22724 0.379 0.32324 0.0
C1398 C 0.27104 0.40398 0.31029 0.0
C1399 C 0.24984 0.38598 0.33116 0.0
C1400 C 0.31541 0.41695 0.30982 0.0
C1401 C 0.31619 0.43845 0.28378 0.0
N1402 N 0.27084 0.39793 0.32454 0.0
N1403 N 0.29544 0.4271 0.29066 0.0
H1404 H 0.54933 0.88862 0.2653 0.0
H1405 H 0.57886 0.8259 0.33186 0.0
H1406 H 0.50292 0.85784 0.30036 0.0
H1407 H 0.63042 0.86485 0.30057 0.0
H1408 H 0.55019 0.83598 0.31963 0.0
H1409 H 0.57853 0.87856 0.2772 0.0
C1410 C 0.54523 0.87966 0.27547 0.0
C1411 C 0.52363 0.87408 0.28185 0.0
C1412 C 0.56777 0.84236 0.31543 0.0
C1413 C 0.55702 0.86262 0.29555 0.0
C1414 C 0.58419 0.83656 0.32239 0.0
C1415 C 0.60717 0.84454 0.31726 0.0
C1416 C 0.57421 0.85618 0.30314 0.0
C1417 C 0.61296 0.85834 0.30494 0.0
C1418 C 0.56197 0.87405 0.2823 0.0
C1419 C 0.51944 0.86275 0.29513 0.0
N1420 N 0.59656 0.86369 0.29829 0.0
N1421 N 0.53592 0.85735 0.30151 0.0
H1422 H 0.08846 0.62956 0.32057 0.0
H1423 H 0.09569 0.75913 0.31615 0.0
H1424 H 0.04716 0.64337 0.28665 0.0
H1425 H 0.14904 0.74977 0.34253 0.0
H1426 H 0.07375 0.7153 0.30782 0.0
H1427 H 0.10654 0.6721 0.33154 0.0
C1428 C 0.08293 0.64146 0.31558 0.0
C1429 C 0.06641 0.63305 0.30265 0.0
C1430 C 0.09023 0.72284 0.31546 0.0
C1431 C 0.08712 0.68163 0.31501 0.0
C1432 C 0.10276 0.74786 0.32024 0.0
C1433 C 0.12433 0.75816 0.32997 0.0
C1434 C 0.09922 0.70796 0.32053 0.0
C1435 C 0.13259 0.74263 0.33493 0.0
C1436 C 0.09339 0.66575 0.32176 0.0
C1437 C 0.06006 0.64927 0.29652 0.0
N1438 N 0.12002 0.71829 0.33013 0.0
N1439 N 0.07048 0.67282 0.30273 0.0
H1440 H 0.75915 0.02696 0.38801 0.0
H1441 H 0.73799 0.89695 0.35648 0.0
H1442 H 0.81205 0.0042 0.39696 0.0
H1443 H 0.67773 0.90785 0.36509 0.0
H1444 H 0.76643 0.93836 0.36824 0.0
H1445 H 0.72985 0.98527 0.37647 0.0
C1446 C 0.76456 0.01317 0.3875 0.0
C1447 C 0.78795 0.01889 0.39344 0.0
C1448 C 0.74698 0.93165 0.36759 0.0
C1449 C 0.75483 0.97156 0.38025 0.0
C1450 C 0.73074 0.90808 0.36082 0.0
C1451 C 0.70547 0.89897 0.35982 0.0
C1452 C 0.73792 0.94639 0.37317 0.0
C1453 C 0.69709 0.91415 0.36571 0.0
C1454 C 0.74785 0.98945 0.38102 0.0
C1455 C 0.7941 0.00042 0.39261 0.0
N1456 N 0.71331 0.93725 0.37205 0.0
N1457 N 0.77769 0.97761 0.38603 0.0
H1458 H 0.98476 0.81082 0.38091 0.0
H1459 H 0.10945 0.80737 0.38441 0.0
H1460 H 0.00844 0.78151 0.41608 0.0
H1461 H 0.08649 0.83725 0.3492 0.0
H1462 H 0.07306 0.79884 0.39645 0.0
H1463 H 0.02217 0.82137 0.36935 0.0
C1464 C -0.00223 0.80652 0.38618 0.0
C1465 C 0.99335 0.79517 0.39949 0.0
C1466 C 0.07598 0.80732 0.38611 0.0
C1467 C 0.03642 0.80745 0.38635 0.0
C1468 C 0.0968 0.81221 0.3792 0.0
C1469 C 0.10107 0.82298 0.3657 0.0
C1470 C 0.05916 0.81317 0.3795 0.0
C1471 C 0.084 0.82891 0.35957 0.0
C1472 C 0.01921 0.81269 0.37961 0.0
C1473 C 0.01113 0.79046 0.40593 0.0
N1474 N 0.06377 0.82384 0.36648 0.0
N1475 N 0.0318 0.79654 0.39928 0.0
H1476 H 0.21692 0.21467 0.40314 0.0
H1477 H 0.20532 0.28766 0.33704 0.0
H1478 H 0.26834 0.24105 0.37011 0.0
H1479 H 0.17399 0.28523 0.37846 0.0
H1480 H 0.22436 0.26546 0.34727 0.0
H1481 H 0.19716 0.23587 0.39263 0.0
C1482 C 0.22425 0.22507 0.39377 0.0
C1483 C 0.24453 0.22617 0.3876 0.0
C1484 C 0.21329 0.26978 0.35409 0.0
C1485 C 0.22143 0.24995 0.37527 0.0
C1486 C 0.2023 0.28232 0.34824 0.0
C1487 C 0.18807 0.28832 0.35692 0.0
C1488 C 0.20975 0.26292 0.36863 0.0
C1489 C 0.18489 0.28105 0.3714 0.0
C1490 C 0.2128 0.23703 0.38772 0.0
C1491 C 0.25263 0.23939 0.37515 0.0
N1492 N 0.19559 0.26865 0.37679 0.0
N1493 N 0.24102 0.25072 0.36938 0.0
H1494 H 0.64687 0.5772 0.72073 0.0
H1495 H 0.76067 0.58369 0.68367 0.0
H1496 H 0.66827 0.52268 0.72578 0.0
H1497 H 0.75486 0.64749 0.696 0.0
H1498 H 0.72275 0.55826 0.69499 0.0
H1499 H 0.68279 0.60068 0.70769 0.0
C1500 C 0.65913 0.57018 0.71921 0.0
C1501 C 0.65452 0.54795 0.72455 0.0
C1502 C 0.72982 0.57783 0.69514 0.0
C1503 C 0.69542 0.57454 0.7092 0.0
C1504 C 0.75132 0.59228 0.68863 0.0
C1505 C 0.76095 0.61772 0.68898 0.0
C1506 C 0.71776 0.5889 0.70175 0.0
C1507 C 0.74819 0.62798 0.6956 0.0
C1508 C 0.67956 0.58354 0.71165 0.0
C1509 C 0.67083 0.53953 0.72176 0.0
N1510 N 0.72724 0.61353 0.70168 0.0
N1511 N 0.69054 0.55283 0.71427 0.0
H1512 H 0.44923 0.08924 0.71649 0.0
H1513 H 0.38506 0.17028 0.71952 0.0
H1514 H 0.47484 0.15248 0.74852 0.0
H1515 H 0.38231 0.12812 0.67936 0.0
H1516 H 0.41362 0.1599 0.73205 0.0
H1517 H 0.41999 0.09913 0.70443 0.0
C1518 C 0.44857 0.10513 0.72102 0.0
C1519 C 0.46445 0.1201 0.73349 0.0
C1520 C 0.40675 0.15297 0.7205 0.0
C1521 C 0.43105 0.13144 0.71983 0.0
C1522 C 0.39039 0.1588 0.71336 0.0
C1523 C 0.38136 0.15013 0.69835 0.0
C1524 C 0.41376 0.13803 0.71266 0.0
C1525 C 0.38893 0.13534 0.69091 0.0
C1526 C 0.43201 0.11084 0.7141 0.0
C1527 C 0.46302 0.1406 0.73885 0.0
N1528 N 0.40459 0.12966 0.69815 0.0
N1529 N 0.4465 0.14561 0.73204 0.0
H1530 H 0.93622 0.36059 0.73415 0.0
H1531 H 0.83833 0.25103 0.6751 0.0
H1532 H 0.89817 0.37104 0.69652 0.0
H1533 H 0.887 0.24324 0.70699 0.0
H1534 H 0.85845 0.29464 0.68377 0.0
H1535 H 0.91739 0.31727 0.72501 0.0
C1536 C 0.92415 0.35388 0.72387 0.0
C1537 C 0.91877 0.36954 0.7161 0.0
C1538 C 0.86474 0.28339 0.68886 0.0
C1539 C 0.89673 0.31979 0.70576 0.0
C1540 C 0.85318 0.25845 0.68397 0.0
C1541 C 0.86099 0.24344 0.69033 0.0
C1542 C 0.88414 0.2934 0.70027 0.0
C1543 C 0.88041 0.25413 0.70174 0.0
C1544 C 0.91326 0.32908 0.71872 0.0
C1545 C 0.90258 0.35962 0.703 0.0
N1546 N 0.89129 0.27845 0.70637 0.0
N1547 N 0.89206 0.33537 0.69829 0.0
H1548 H 0.22103 0.96255 0.64481 0.0
H1549 H 0.27906 0.10495 0.63523 0.0
H1550 H 0.18999 0.98994 0.61261 0.0
H1551 H 0.2886 0.07888 0.67687 0.0
H1552 H 0.25054 0.06252 0.62502 0.0
H1553 H 0.25023 0.00497 0.6551 0.0
C1554 C 0.22044 0.97753 0.63991 0.0
C1555 C 0.2031 0.97285 0.62791 0.0
C1556 C 0.25889 0.06613 0.63639 0.0
C1557 C 0.23638 0.02114 0.63945 0.0
C1558 C 0.27523 0.0903 0.64221 0.0
C1559 C 0.28616 0.09543 0.65693 0.0
C1560 C 0.25374 0.04694 0.64529 0.0
C1561 C 0.28047 0.07573 0.66548 0.0
C1562 C 0.23697 0.00164 0.6458 0.0
C1563 C 0.20295 0.99283 0.62197 0.0
N1564 N 0.26472 0.0523 0.65951 0.0
N1565 N 0.21945 0.01614 0.62775 0.0
H1566 H 0.00576 0.18888 0.63412 0.0
H1567 H 0.88724 0.20292 0.63567 0.0
H1568 H 0.98395 0.22278 0.60098 0.0
H1569 H 0.90561 0.16452 0.66739 0.0
H1570 H 0.92302 0.21085 0.62316 0.0
H1571 H 0.96958 0.18008 0.64663 0.0
C1572 C 0.9933 0.19434 0.6294 0.0
C1573 C -0.00202 0.2066 0.61643 0.0
C1574 C 0.91927 0.20069 0.63285 0.0
C1575 C 0.95659 0.19683 0.63087 0.0
C1576 C 0.89881 0.19617 0.64005 0.0
C1577 C 0.89337 0.18307 0.65267 0.0
C1578 C 0.93457 0.19213 0.63828 0.0
C1579 C 0.90906 0.17471 0.65772 0.0
C1580 C 0.9727 0.18943 0.63662 0.0
C1581 C 0.98134 0.2136 0.61103 0.0
N1582 N 0.92896 0.17941 0.65053 0.0
N1583 N 0.96145 0.20862 0.61826 0.0
H1584 H 0.7275 0.74631 0.61315 0.0
H1585 H 0.8204 0.74015 0.67435 0.0
H1586 H 0.7638 0.7996 0.65161 0.0
H1587 H 0.77674 0.68253 0.63897 0.0
H1588 H 0.80106 0.76302 0.66573 0.0
H1589 H 0.74592 0.72304 0.62229 0.0
C1590 C 0.7391 0.75298 0.62362 0.0
C1591 C 0.74408 0.77497 0.63162 0.0
C1592 C 0.79572 0.74537 0.65987 0.0
C1593 C 0.76569 0.74862 0.642 0.0
C1594 C 0.80683 0.73235 0.66474 0.0
C1595 C 0.80016 0.70936 0.65739 0.0
C1596 C 0.77791 0.73539 0.64752 0.0
C1597 C 0.78241 0.70013 0.64503 0.0
C1598 C 0.74979 0.73977 0.62877 0.0
C1599 C 0.7597 0.78293 0.64496 0.0
N1600 N 0.77193 0.71318 0.64049 0.0
N1601 N 0.77001 0.76981 0.64971 0.0
H1602 H 0.98493 0.75328 0.60368 0.0
H1603 H 0.91488 0.73254 0.67669 0.0
H1604 H 0.01692 0.80172 0.64448 0.0
H1605 H 0.87867 0.69851 0.63271 0.0
H1606 H 0.95326 0.75631 0.66566 0.0
H1607 H 0.94651 0.73111 0.6147 0.0
C1608 C 0.98389 0.75939 0.61491 0.0
C1609 C 0.0043 0.77948 0.62312 0.0
C1610 C 0.93685 0.74372 0.65844 0.0
C1611 C 0.96034 0.75381 0.63592 0.0
C1612 C 0.91495 0.73013 0.66473 0.0
C1613 C 0.8935 0.71349 0.65563 0.0
C1614 C 0.93734 0.74042 0.64298 0.0
C1615 C 0.8947 0.71115 0.64019 0.0
C1616 C 0.96194 0.74663 0.62123 0.0
C1617 C 0.00187 0.78614 0.63778 0.0
N1618 N 0.91626 0.72434 0.63437 0.0
N1619 N 0.98033 0.7733 0.64371 0.0
H1620 H 0.2042 0.23425 0.63762 0.0
H1621 H 0.2927 0.18081 0.63049 0.0
H1622 H 0.19407 0.18402 0.59961 0.0
H1623 H 0.26736 0.18835 0.67263 0.0
H1624 H 0.26302 0.1899 0.61795 0.0
H1625 H 0.23375 0.22516 0.64979 0.0
C1626 C 0.20792 0.2212 0.63181 0.0
C1627 C 0.19624 0.2098 0.6175 0.0
C1628 C 0.26405 0.18955 0.62994 0.0
C1629 C 0.23098 0.20019 0.63129 0.0
C1630 C 0.28099 0.18451 0.63709 0.0
C1631 C 0.28236 0.18376 0.6526 0.0
C1632 C 0.24894 0.19454 0.63843 0.0
C1633 C 0.26672 0.18857 0.66064 0.0
C1634 C 0.22499 0.21621 0.63877 0.0
C1635 C 0.20273 0.19368 0.61048 0.0
N1636 N 0.2508 0.19399 0.65348 0.0
N1637 N 0.21976 0.18948 0.6174 0.0
H1638 H 0.75524 0.9662 0.64847 0.0
H1639 H 0.79687 0.10379 0.63181 0.0
H1640 H 0.73872 0.98522 0.60584 0.0
H1641 H 0.79972 0.08228 0.6761 0.0
H1642 H 0.77769 0.06075 0.62177 0.0
H1643 H 0.7732 0.00897 0.6586 0.0
C1644 C 0.75515 0.97929 0.64127 0.0
C1645 C 0.74545 0.97206 0.62627 0.0
C1646 C 0.78249 0.06547 0.63369 0.0
C1647 C 0.76645 0.02119 0.63774 0.0
C1648 C 0.79352 0.09004 0.63942 0.0
C1649 C 0.7999 0.09664 0.65482 0.0
C1650 C 0.77797 0.04742 0.64341 0.0
C1651 C 0.79507 0.07804 0.66416 0.0
C1652 C 0.76556 0.00376 0.64705 0.0
C1653 C 0.74631 0.99 0.61741 0.0
N1654 N 0.78444 0.05429 0.6583 0.0
N1655 N 0.7567 0.01374 0.62326 0.0
H1656 H 0.42812 0.35235 0.74302 0.0
H1657 H 0.40653 0.2485 0.67948 0.0
H1658 H 0.47507 0.36535 0.70794 0.0
H1659 H 0.35102 0.2411 0.70754 0.0
H1660 H 0.43259 0.2909 0.69041 0.0
H1661 H 0.40017 0.31099 0.73081 0.0
C1662 C 0.43248 0.34649 0.73272 0.0
C1663 C 0.45393 0.36224 0.72648 0.0
C1664 C 0.41466 0.28004 0.69412 0.0
C1665 C 0.42218 0.31503 0.7125 0.0
C1666 C 0.3998 0.2558 0.68793 0.0
C1667 C 0.37658 0.24121 0.69264 0.0
C1668 C 0.40638 0.28971 0.70523 0.0
C1669 C 0.36878 0.25169 0.70357 0.0
C1670 C 0.4165 0.32296 0.72573 0.0
C1671 C 0.45862 0.35386 0.71305 0.0
N1672 N 0.38372 0.27527 0.70957 0.0
N1673 N 0.44297 0.33075 0.70657 0.0
H1674 H 0.68599 0.15188 0.74821 0.0
H1675 H 0.74155 0.1351 0.67446 0.0
H1676 H 0.64302 0.09588 0.71189 0.0
H1677 H 0.78603 0.17222 0.71601 0.0
H1678 H 0.70495 0.12437 0.68702 0.0
H1679 H 0.72264 0.16292 0.73572 0.0
C1680 C 0.68419 0.14174 0.73768 0.0
C1681 C 0.6612 0.12284 0.73116 0.0
C1682 C 0.72274 0.13487 0.69338 0.0
C1683 C 0.70321 0.1359 0.71661 0.0
C1684 C 0.74365 0.14111 0.6862 0.0
C1685 C 0.76693 0.15458 0.69418 0.0
C1686 C 0.72507 0.14239 0.70862 0.0
C1687 C 0.76848 0.16176 0.70941 0.0
C1688 C 0.70516 0.1482 0.73051 0.0
C1689 C 0.66016 0.11084 0.71728 0.0
N1690 N 0.74785 0.15565 0.71612 0.0
N1691 N 0.6808 0.11762 0.71047 0.0
H1692 H 0.90698 0.54394 0.69781 0.0
H1693 H 0.85829 0.63681 0.71363 0.0
H1694 H 0.92351 0.58838 0.7397 0.0
H1695 H 0.85897 0.60808 0.66923 0.0
H1696 H 0.87892 0.6161 0.72371 0.0
H1697 H 0.88685 0.56493 0.68734 0.0
C1698 C 0.90663 0.55827 0.70477 0.0
C1699 C 0.91696 0.56434 0.71969 0.0
C1700 C 0.87456 0.61433 0.71176 0.0
C1701 C 0.89343 0.58802 0.70784 0.0
C1702 C 0.86265 0.62604 0.70599 0.0
C1703 C 0.8569 0.62419 0.69055 0.0
C1704 C 0.8806 0.6005 0.70204 0.0
C1705 C 0.86311 0.61006 0.6812 0.0
C1706 C 0.89497 0.57012 0.6988 0.0
C1707 C 0.91547 0.58276 0.72823 0.0
N1708 N 0.8746 0.5987 0.6871 0.0
N1709 N 0.90383 0.59385 0.72221 0.0
H1710 H 0.43786 0.91781 0.16336 0.0
H1711 H 0.51982 0.03574 0.12141 0.0
H1712 H 0.48111 0.9908 0.1861 0.0
H1713 H 0.46507 0.96568 0.09857 0.0
H1714 H 0.50688 0.0196 0.14523 0.0
H1715 H 0.44875 0.93486 0.13954 0.0
C1716 C 0.44965 0.93745 0.16333 0.0
C1717 C 0.45867 0.9529 0.17674 0.0
C1718 C 0.49767 0.0078 0.13499 0.0
C1719 C 0.47126 0.97259 0.14948 0.0
C1720 C 0.50498 0.01703 0.12136 0.0
C1721 C 0.49363 0.00206 0.10788 0.0
C1722 C 0.47895 0.98335 0.13521 0.0
C1723 C 0.47473 0.97781 0.10862 0.0
C1724 C 0.45578 0.94719 0.14972 0.0
C1725 C 0.47362 0.97825 0.17602 0.0
N1726 N 0.46808 0.96922 0.12202 0.0
N1727 N 0.47959 0.98729 0.16263 0.0
H1728 H 0.96183 0.4636 0.18603 0.0
H1729 H 0.01384 0.50948 0.10846 0.0
H1730 H 0.03712 0.51663 0.18162 0.0
H1731 H 0.93922 0.45326 0.11177 0.0
H1732 H 0.02282 0.51101 0.13523 0.0
H1733 H 0.95326 0.45811 0.15884 0.0
C1734 C 0.97659 0.47393 0.17934 0.0
C1735 C 0.00017 0.49078 0.18611 0.0
C1736 C 0.00449 0.49824 0.13011 0.0
C1737 C 0.99047 0.48477 0.15505 0.0
C1738 C -0.00062 0.49725 0.11478 0.0
C1739 C 0.97572 0.48121 0.10782 0.0
C1740 C 0.98581 0.48318 0.13863 0.0
C1741 C 0.95763 0.46615 0.11669 0.0
C1742 C 0.97167 0.47088 0.16383 0.0
C1743 C 0.01856 0.50381 0.1769 0.0
N1744 N 0.96303 0.46755 0.13164 0.0
N1745 N 0.0133 0.5006 0.16188 0.0
H1746 H 0.44198 0.44684 0.17542 0.0
H1747 H 0.52506 0.52013 0.1124 0.0
H1748 H 0.50362 0.52059 0.18353 0.0
H1749 H 0.47458 0.44202 0.10648 0.0
H1750 H 0.5155 0.52109 0.13813 0.0
H1751 H 0.45174 0.44504 0.14968 0.0
C1752 C 0.45756 0.46262 0.17178 0.0
C1753 C 0.47209 0.48384 0.18163 0.0
C1754 C 0.50655 0.50371 0.13123 0.0
C1755 C 0.48329 0.48198 0.15228 0.0
C1756 C 0.51191 0.50319 0.11652 0.0
C1757 C 0.50058 0.48097 0.1073 0.0
C1758 C 0.48957 0.48188 0.13675 0.0
C1759 C 0.48389 0.4595 0.11327 0.0
C1760 C 0.46318 0.46155 0.15713 0.0
C1761 C 0.49214 0.50373 0.17637 0.0
N1762 N 0.47879 0.4605 0.1276 0.0
N1763 N 0.49707 0.50235 0.16206 0.0
H1764 H 0.95919 0.48818 0.83466 0.0
H1765 H 0.0582 0.51471 0.90305 0.0
H1766 H 0.03547 0.51529 0.82978 0.0
H1767 H 0.98459 0.49878 0.90799 0.0
H1768 H 0.04962 0.51186 0.87602 0.0
H1769 H 0.96762 0.4889 0.86142 0.0
C1770 C 0.97777 0.49446 0.83923 0.0
C1771 C -0.0033 0.50193 0.82995 0.0
C1772 C 0.03534 0.50891 0.88303 0.0
C1773 C 0.00641 0.50239 0.86063 0.0
C1774 C 0.04024 0.51062 0.89847 0.0
C1775 C 0.02211 0.50704 0.90784 0.0
C1776 C 0.01212 0.50352 0.87691 0.0
C1777 C -0.00095 0.50136 0.90123 0.0
C1778 C 0.98254 0.49471 0.85451 0.0
C1779 C 0.02029 0.50925 0.83648 0.0
N1780 N 0.99475 0.49985 0.8862 0.0
N1781 N 0.0245 0.50936 0.85143 0.0
H1782 H 0.55713 0.49627 0.84945 0.0
H1783 H 0.4832 0.53932 0.89951 0.0
H1784 H 0.51957 0.5323 0.83233 0.0
H1785 H 0.52782 0.51075 0.91697 0.0
H1786 H 0.49771 0.53885 0.87506 0.0
H1787 H 0.54817 0.50344 0.87453 0.0
C1788 C 0.54708 0.5058 0.851 0.0
C1789 C 0.53892 0.51353 0.83879 0.0
C1790 C 0.50451 0.53292 0.88429 0.0
C1791 C 0.52849 0.52177 0.86748 0.0
C1792 C 0.49614 0.53309 0.89823 0.0
C1793 C 0.50423 0.52499 0.91031 0.0
C1794 C 0.52091 0.52439 0.88238 0.0
C1795 C 0.52126 0.5174 0.90804 0.0
C1796 C 0.54204 0.50998 0.86533 0.0
C1797 C 0.52628 0.52612 0.84146 0.0
N1798 N 0.52885 0.51709 0.89434 0.0
N1799 N 0.52123 0.52964 0.8555 0.0
H1800 H 0.55339 0.06905 0.84913 0.0
H1801 H 0.46598 0.95617 0.89318 0.0
H1802 H 0.49967 0.99784 0.82714 0.0
H1803 H 0.52852 0.02284 0.91447 0.0
H1804 H 0.47717 0.97134 0.86892 0.0
H1805 H 0.54375 0.05271 0.87317 0.0
C1806 C 0.53975 0.0499 0.84931 0.0
C1807 C 0.52738 0.03484 0.836 0.0
C1808 C 0.48846 0.98261 0.87891 0.0
C1809 C 0.51587 0.01609 0.86365 0.0
C1810 C 0.48216 0.97391 0.89278 0.0
C1811 C 0.49625 0.98825 0.90596 0.0
C1812 C 0.50896 0.00589 0.87816 0.0
C1813 C 0.5168 0.01128 0.90468 0.0
C1814 C 0.53413 0.04062 0.86309 0.0
C1815 C 0.50946 0.01029 0.83706 0.0
N1816 N 0.52247 0.01939 0.89106 0.0
N1817 N 0.50421 0.00172 0.85063 0.0
H1818 H 0.10442 0.29733 0.50924 0.0
H1819 H 0.19097 0.32525 0.44357 0.0
H1820 H 0.16675 0.28688 0.51081 0.0
H1821 H 0.13814 0.34909 0.44547 0.0
H1822 H 0.18105 0.30959 0.46781 0.0
H1823 H 0.11548 0.31536 0.48566 0.0
C1824 C 0.12051 0.29896 0.50472 0.0
C1825 C 0.13455 0.29037 0.51204 0.0
C1826 C 0.17167 0.31832 0.46297 0.0
C1827 C 0.14711 0.3107 0.4849 0.0
C1828 C 0.17723 0.32714 0.44908 0.0
C1829 C 0.16532 0.33843 0.44245 0.0
C1830 C 0.15388 0.32059 0.4703 0.0
C1831 C 0.14791 0.34069 0.45023 0.0
C1832 C 0.12675 0.30916 0.4912 0.0
C1833 C 0.15504 0.29273 0.50547 0.0
N1834 N 0.14261 0.33172 0.4637 0.0
N1835 N 0.16061 0.30255 0.49229 0.0
H1836 H 0.62607 0.80243 0.51899 0.0
H1837 H 0.67131 0.81144 0.43763 0.0
H1838 H 0.70076 0.82703 0.51099 0.0
H1839 H 0.60243 0.8054 0.44628 0.0
H1840 H 0.68031 0.81101 0.46423 0.0
H1841 H 0.61482 0.79654 0.49199 0.0
C1842 C 0.64 0.80626 0.51153 0.0
C1843 C 0.66439 0.81542 0.51717 0.0
C1844 C 0.66319 0.80972 0.46029 0.0
C1845 C 0.65177 0.80891 0.48642 0.0
C1846 C 0.65811 0.81013 0.44511 0.0
C1847 C 0.63618 0.80872 0.4397 0.0
C1848 C 0.6462 0.80775 0.47015 0.0
C1849 C 0.61948 0.80637 0.44991 0.0
C1850 C 0.63363 0.80308 0.49616 0.0
C1851 C 0.68181 0.82027 0.50706 0.0
N1852 N 0.62488 0.80604 0.46465 0.0
N1853 N 0.67518 0.81703 0.49217 0.0
H1854 H 0.17855 0.86498 0.52185 0.0
H1855 H 0.1454 0.78397 0.4435 0.0
H1856 H 0.11433 0.79314 0.51228 0.0
H1857 H 0.19841 0.86142 0.45042 0.0
H1858 H 0.1362 0.78547 0.46936 0.0
H1859 H 0.1886 0.8624 0.49639 0.0
C1860 C 0.16667 0.84855 0.51442 0.0
C1861 C 0.1456 0.82921 0.5192 0.0
C1862 C 0.14984 0.80213 0.46521 0.0
C1863 C 0.1569 0.82623 0.48998 0.0
C1864 C 0.1552 0.80125 0.4505 0.0
C1865 C 0.17268 0.82262 0.44482 0.0
C1866 C 0.16222 0.82447 0.47435 0.0
C1867 C 0.18463 0.84458 0.45431 0.0
C1868 C 0.17232 0.84718 0.49985 0.0
C1869 C 0.13065 0.80854 0.50901 0.0
N1870 N 0.17923 0.84492 0.46861 0.0
N1871 N 0.13662 0.80756 0.49488 0.0
H1872 H 0.67468 0.87426 0.16398 0.0
H1873 H 0.67052 0.80167 0.2344 0.0
H1874 H 0.66011 0.79963 0.16038 0.0
H1875 H 0.69892 0.87987 0.23769 0.0
H1876 H 0.665 0.80022 0.20726 0.0
H1877 H 0.68245 0.87651 0.19107 0.0
C1878 C 0.67319 0.85838 0.1689 0.0
C1879 C 0.66673 0.83672 0.15994 0.0
C1880 C 0.67252 0.81772 0.21391 0.0
C1881 C 0.67549 0.83912 0.19087 0.0
C1882 C 0.6755 0.81852 0.2294 0.0
C1883 C 0.68514 0.84091 0.23829 0.0
C1884 C 0.67902 0.83944 0.20727 0.0
C1885 C 0.69162 0.86225 0.23123 0.0
C1886 C 0.67771 0.8597 0.18434 0.0
C1887 C 0.66529 0.81677 0.16686 0.0
N1888 N 0.68833 0.86098 0.21613 0.0
N1889 N 0.66946 0.81839 0.18193 0.0
H1890 H 0.23123 0.83152 0.18763 0.0
H1891 H 0.15884 0.87868 0.23637 0.0
H1892 H 0.19349 0.86672 0.16944 0.0
H1893 H 0.19898 0.84562 0.25425 0.0
H1894 H 0.17346 0.87709 0.2121 0.0
H1895 H 0.22193 0.83932 0.21248 0.0
C1896 C 0.22105 0.84098 0.18889 0.0
C1897 C 0.21295 0.84829 0.17643 0.0
C1898 C 0.17923 0.87039 0.22138 0.0
C1899 C 0.20219 0.85731 0.20488 0.0
C1900 C 0.1708 0.87119 0.23522 0.0
C1901 C 0.17761 0.8622 0.24738 0.0
C1902 C 0.19447 0.86039 0.21966 0.0
C1903 C 0.19344 0.85302 0.24527 0.0
C1904 C 0.21581 0.84552 0.20309 0.0
C1905 C 0.20019 0.86086 0.17875 0.0
N1906 N 0.20117 0.8522 0.23168 0.0
N1907 N 0.195 0.86478 0.19268 0.0
H1908 H 0.22214 0.37176 0.17362 0.0
H1909 H 0.13369 0.3421 0.23855 0.0
H1910 H 0.1592 0.38113 0.1713 0.0
H1911 H 0.18801 0.32015 0.23723 0.0
H1912 H 0.14468 0.3591 0.2147 0.0
H1913 H 0.21193 0.35553 0.19779 0.0
C1914 C 0.20626 0.37053 0.17823 0.0
C1915 C 0.19145 0.37773 0.1704 0.0
C1916 C 0.15418 0.35053 0.21961 0.0
C1917 C 0.1796 0.35911 0.19802 0.0
C1918 C 0.14799 0.34093 0.23326 0.0
C1919 C 0.15992 0.32965 0.23989 0.0
C1920 C 0.17259 0.34906 0.21255 0.0
C1921 C 0.17813 0.32842 0.23244 0.0
C1922 C 0.20035 0.36112 0.19198 0.0
C1923 C 0.17095 0.3755 0.17685 0.0
N1924 N 0.18397 0.33807 0.2192 0.0
N1925 N 0.16567 0.36645 0.19027 0.0
H1926 H 0.81317 0.65933 0.85274 0.0
H1927 H 0.79659 0.63225 0.76386 0.0
H1928 H 0.7758 0.58643 0.82954 0.0
H1929 H 0.84769 0.7033 0.78716 0.0
H1930 H 0.78566 0.61586 0.78778 0.0
H1931 H 0.82257 0.67648 0.82875 0.0
C1932 C 0.80679 0.64694 0.84259 0.0
C1933 C 0.79374 0.62141 0.84314 0.0
C1934 C 0.79927 0.63504 0.78766 0.0
C1935 C 0.80449 0.64088 0.81568 0.0
C1936 C 0.80565 0.64442 0.77399 0.0
C1937 C 0.82331 0.66921 0.77342 0.0
C1938 C 0.81043 0.65053 0.80095 0.0
C1939 C 0.83386 0.68416 0.78699 0.0
C1940 C 0.81229 0.65673 0.82892 0.0
C1941 C 0.78615 0.60622 0.82965 0.0
N1942 N 0.82729 0.67458 0.80018 0.0
N1943 N 0.7916 0.61618 0.81649 0.0
H1944 H 0.36571 0.14582 0.84633 0.0
H1945 H 0.27161 0.13253 0.77969 0.0
H1946 H 0.29182 0.12742 0.85242 0.0
H1947 H 0.33546 0.12686 0.7728 0.0
H1948 H 0.27828 0.1302 0.80625 0.0
H1949 H 0.35509 0.13904 0.81931 0.0
C1950 C 0.3472 0.14019 0.84194 0.0
C1951 C 0.32963 0.13732 0.85156 0.0
C1952 C 0.29067 0.12919 0.7989 0.0
C1953 C 0.31738 0.1297 0.82074 0.0
C1954 C 0.2868 0.13037 0.78367 0.0
C1955 C 0.3031 0.1301 0.77392 0.0
C1956 C 0.31117 0.12805 0.80448 0.0
C1957 C 0.32272 0.12772 0.7799 0.0
C1958 C 0.34111 0.1362 0.82655 0.0
C1959 C 0.30585 0.12975 0.84535 0.0
N1960 N 0.32636 0.12707 0.7948 0.0
N1961 N 0.30048 0.1265 0.83031 0.0
H1962 H 0.77481 0.12531 0.84204 0.0
H1963 H 0.86042 0.1978 0.77971 0.0
H1964 H 0.83715 0.19859 0.85052 0.0
H1965 H 0.8093 0.11983 0.7737 0.0
H1966 H 0.84997 0.19901 0.80523 0.0
H1967 H 0.78506 0.12341 0.81642 0.0
C1968 C 0.79063 0.14097 0.83851 0.0
C1969 C 0.80523 0.16207 0.84844 0.0
C1970 C 0.84107 0.18161 0.79835 0.0
C1971 C 0.81699 0.1601 0.81922 0.0
C1972 C 0.84693 0.18095 0.78376 0.0
C1973 C 0.83572 0.15869 0.77458 0.0
C1974 C 0.82369 0.15989 0.80379 0.0
C1975 C 0.81856 0.13734 0.78046 0.0
C1976 C 0.79653 0.13984 0.82393 0.0
C1977 C 0.8256 0.18181 0.84331 0.0
N1978 N 0.81298 0.13848 0.79467 0.0
N1979 N 0.8308 0.18037 0.82906 0.0
H1980 H 0.3346 0.13864 0.49542 0.0
H1981 H 0.37453 0.21941 0.57437 0.0
H1982 H 0.34674 0.21233 0.501 0.0
H1983 H 0.34643 0.14125 0.56953 0.0
H1984 H 0.36898 0.21846 0.54724 0.0
H1985 H 0.34378 0.14073 0.52234 0.0
C1986 C 0.33949 0.15537 0.5023 0.0
C1987 C 0.33987 0.17533 0.49599 0.0
C1988 C 0.36404 0.20152 0.55212 0.0
C1989 C 0.35014 0.17776 0.52678 0.0
C1990 C 0.36732 0.20207 0.56757 0.0
C1991 C 0.36087 0.18036 0.57418 0.0
C1992 C 0.35445 0.17913 0.54319 0.0
C1993 C 0.35136 0.15836 0.56488 0.0
C1994 C 0.34453 0.15648 0.51767 0.0
C1995 C 0.346 0.19644 0.50544 0.0
N1996 N 0.34848 0.15831 0.54985 0.0
N1997 N 0.35088 0.1971 0.52037 0.0
H1998 H 0.89067 0.16201 0.51316 0.0
H1999 H 0.80399 0.18773 0.56225 0.0
H2000 H 0.84197 0.18533 0.49498 0.0
H2001 H 0.8637 0.17998 0.58111 0.0
H2002 H 0.81733 0.1868 0.53752 0.0
H2003 H 0.8807 0.16817 0.53816 0.0
C2004 C 0.87796 0.16854 0.51446 0.0
C2005 C 0.86705 0.17307 0.50199 0.0
C2006 C 0.82756 0.18542 0.5471 0.0
C2007 C 0.85543 0.18005 0.53056 0.0
C2008 C 0.82002 0.18605 0.56124 0.0
C2009 C 0.83261 0.18375 0.57383 0.0
C2010 C 0.84776 0.18231 0.54548 0.0
C2011 C 0.85307 0.18128 0.57174 0.0
C2012 C 0.87233 0.17214 0.52873 0.0
C2013 C 0.8509 0.18177 0.50431 0.0
N2014 N 0.8599 0.18049 0.55786 0.0
N2015 N 0.84539 0.18476 0.51831 0.0
H2016 H 0.83123 0.66665 0.4927 0.0
H2017 H 0.85554 0.6954 0.58158 0.0
H2018 H 0.87938 0.73892 0.51546 0.0
H2019 H 0.79981 0.6255 0.5591 0.0
H2020 H 0.86606 0.71098 0.55741 0.0
H2021 H 0.82113 0.65057 0.51685 0.0
C2022 C 0.83965 0.67918 0.50275 0.0
C2023 C 0.85617 0.70424 0.50198 0.0
C2024 C 0.85151 0.69223 0.55775 0.0
C2025 C 0.84486 0.68582 0.52973 0.0
C2026 C 0.84536 0.68335 0.57157 0.0
C2027 C 0.82661 0.6591 0.57244 0.0
C2028 C 0.83892 0.67679 0.54461 0.0
C2029 C 0.81453 0.64422 0.55902 0.0
C2030 C 0.83394 0.66994 0.51655 0.0
C2031 C 0.86682 0.71944 0.51544 0.0
N2032 N 0.82087 0.65331 0.54568 0.0
N2033 N 0.86095 0.71001 0.52872 0.0
loop_
_geom_bond_atom_site_label_1
_geom_bond_atom_site_label_2
_geom_bond_distance
_geom_bond_site_symmetry_2
_ccdc_geom_bond_type
C0 C1 1.386 . S
C0 C2 1.397 . S
C0 H24 0.931 . S
C1 C0 1.386 . S
C1 C5 1.397 . S
C2 C0 1.397 . S
C2 C3 1.384 . S
C2 H25 0.930 . S
C3 C2 1.384 . S
C3 C4 1.377 . S
C3 C6 1.481 . S
C4 C3 1.377 . S
C4 C5 1.389 . S
C4 H26 0.929 . S
C5 C1 1.397 . S
C5 C4 1.389 . S
C5 H27 0.931 . S
C6 C3 1.481 . S
C6 C7 1.387 . S
C6 C11 1.390 . S
C7 C6 1.387 . S
C7 C8 1.401 . S
C7 H28 0.930 . S
C8 C7 1.401 . S
C8 C9 1.376 . S
C8 C17 1.511 . S
C9 C8 1.376 . S
C9 C10 1.392 . S
C9 H30 0.931 . S
C10 C9 1.392 . S
C10 C11 1.361 . S
C10 C12 1.500 . S
C11 C6 1.390 . S
C11 C10 1.361 . S
C11 H29 0.931 . S
C12 C10 1.500 . S
C12 C13 1.371 . S
C12 C14 1.365 . S
C13 C12 1.371 . S
C13 C23 1.386 . S
C13 H31 0.931 . S
C14 C12 1.365 . S
C14 C15 1.409 . S
C14 H32 0.929 . S
C15 C14 1.409 . S
C15 C16 1.380 . S
C15 H33 0.930 . S
C16 C15 1.380 . S
C16 C23 1.357 . S
C17 C8 1.511 . S
C17 C18 1.341 . S
C17 C19 1.371 . S
C18 C17 1.341 . S
C18 C22 1.394 . S
C18 H34 0.930 . S
C19 C17 1.371 . S
C19 C20 1.392 . S
C19 H35 0.931 . S
C20 C19 1.392 . S
C20 C21 1.331 . S
C20 H38 0.932 . S
C21 C20 1.331 . S
C21 C22 1.336 . S
C22 C18 1.394 . S
C22 C21 1.336 . S
C22 H37 0.929 . S
C23 C13 1.386 . S
C23 C16 1.357 . S
C23 H36 0.928 . S
H24 C0 0.931 . S
H25 C2 0.930 . S
H26 C4 0.929 . S
H27 C5 0.931 . S
H28 C7 0.930 . S
H29 C11 0.931 . S
H30 C9 0.931 . S
H31 C13 0.931 . S
H32 C14 0.929 . S
H33 C15 0.930 . S
H34 C18 0.930 . S
H35 C19 0.931 . S
H36 C23 0.928 . S
H37 C22 0.929 . S
H38 C20 0.932 . S
C39 C40 1.386 . S
C39 C41 1.397 . S
C39 H63 0.931 . S
C40 C39 1.386 . S
C40 C44 1.397 . S
C41 C39 1.397 . S
C41 C42 1.384 . S
C41 H64 0.930 . S
C42 C41 1.384 . S
C42 C43 1.377 . S
C42 C45 1.481 . S
C43 C42 1.377 . S
C43 C44 1.389 . S
C43 H65 0.929 . S
C44 C40 1.397 . S
C44 C43 1.389 . S
C44 H66 0.931 . S
C45 C42 1.481 . S
C45 C46 1.387 . S
C45 C50 1.390 . S
C46 C45 1.387 . S
C46 C47 1.401 . S
C46 H67 0.930 . S
C47 C46 1.401 . S
C47 C48 1.376 . S
C47 C56 1.511 . S
C48 C47 1.376 . S
C48 C49 1.392 . S
C48 H69 0.931 . S
C49 C48 1.392 . S
C49 C50 1.361 . S
C49 C51 1.500 . S
C50 C45 1.390 . S
C50 C49 1.361 . S
C50 H68 0.931 . S
C51 C49 1.500 . S
C51 C52 1.371 . S
C51 C53 1.365 . S
C52 C51 1.371 . S
C52 C62 1.386 . S
C52 H70 0.931 . S
C53 C51 1.365 . S
C53 C54 1.409 . S
C53 H71 0.929 . S
C54 C53 1.409 . S
C54 C55 1.380 . S
C54 H72 0.930 . S
C55 C54 1.380 . S
C55 C62 1.357 . S
C56 C47 1.511 . S
C56 C57 1.341 . S
C56 C58 1.371 . S
C57 C56 1.341 . S
C57 C61 1.394 . S
C57 H73 0.930 . S
C58 C56 1.371 . S
C58 C59 1.392 . S
C58 H74 0.931 . S
C59 C58 1.392 . S
C59 C60 1.331 . S
C59 H77 0.932 . S
C60 C59 1.331 . S
C60 C61 1.336 . S
C61 C57 1.394 . S
C61 C60 1.336 . S
C61 H76 0.929 . S
C62 C52 1.386 . S
C62 C55 1.357 . S
C62 H75 0.928 . S
H63 C39 0.931 . S
H64 C41 0.930 . S
H65 C43 0.929 . S
H66 C44 0.931 . S
H67 C46 0.930 . S
H68 C50 0.931 . S
H69 C48 0.931 . S
H70 C52 0.931 . S
H71 C53 0.929 . S
H72 C54 0.930 . S
H73 C57 0.930 . S
H74 C58 0.931 . S
H75 C62 0.928 . S
H76 C61 0.929 . S
H77 C59 0.932 . S
C78 C79 1.386 . S
C78 C80 1.397 . S
C78 H102 0.931 . S
C79 C78 1.386 . S
C79 C83 1.397 . S
C80 C78 1.397 . S
C80 C81 1.384 . S
C80 H103 0.930 . S
C81 C80 1.384 . S
C81 C82 1.377 . S
C81 C84 1.481 . S
C82 C81 1.377 . S
C82 C83 1.389 . S
C82 H104 0.929 . S
C83 C79 1.397 . S
C83 C82 1.389 . S
C83 H105 0.931 . S
C84 C81 1.481 . S
C84 C85 1.387 . S
C84 C89 1.390 . S
C85 C84 1.387 . S
C85 C86 1.401 . S
C85 H106 0.930 . S
C86 C85 1.401 . S
C86 C87 1.376 . S
C86 C95 1.511 . S
C87 C86 1.376 . S
C87 C88 1.392 . S
C87 H108 0.931 . S
C88 C87 1.392 . S
C88 C89 1.361 . S
C88 C90 1.500 . S
C89 C84 1.390 . S
C89 C88 1.361 . S
C89 H107 0.931 . S
C90 C88 1.500 . S
C90 C91 1.371 . S
C90 C92 1.365 . S
C91 C90 1.371 . S
C91 C101 1.386 . S
C91 H109 0.931 . S
C92 C90 1.365 . S
C92 C93 1.409 . S
C92 H110 0.929 . S
C93 C92 1.409 . S
C93 C94 1.380 . S
C93 H111 0.930 . S
C94 C93 1.380 . S
C94 C101 1.357 . S
C95 C86 1.511 . S
C95 C96 1.341 . S
C95 C97 1.371 . S
C96 C95 1.341 . S
C96 C100 1.394 . S
C96 H112 0.930 . S
C97 C95 1.371 . S
C97 C98 1.392 . S
C97 H113 0.931 . S
C98 C97 1.392 . S
C98 C99 1.331 . S
C98 H116 0.932 . S
C99 C98 1.331 . S
C99 C100 1.336 . S
C100 C96 1.394 . S
C100 C99 1.336 . S
C100 H115 0.929 . S
C101 C91 1.386 . S
C101 C94 1.357 . S
C101 H114 0.928 . S
H102 C78 0.931 . S
H103 C80 0.930 . S
H104 C82 0.929 . S
H105 C83 0.931 . S
H106 C85 0.930 . S
H107 C89 0.931 . S
H108 C87 0.931 . S
H109 C91 0.931 . S
H110 C92 0.929 . S
H111 C93 0.930 . S
H112 C96 0.930 . S
H113 C97 0.931 . S
H114 C101 0.928 . S
H115 C100 0.929 . S
H116 C98 0.932 . S
C117 C118 1.386 . S
C117 C119 1.397 . S
C117 H141 0.931 . S
C118 C117 1.386 . S
C118 C122 1.397 . S
C119 C117 1.397 . S
C119 C120 1.384 . S
C119 H142 0.930 . S
C120 C119 1.384 . S
C120 C121 1.377 . S
C120 C123 1.481 . S
C121 C120 1.377 . S
C121 C122 1.389 . S
C121 H143 0.929 . S
C122 C118 1.397 . S
C122 C121 1.389 . S
C122 H144 0.931 . S
C123 C120 1.481 . S
C123 C124 1.387 . S
C123 C128 1.390 . S
C124 C123 1.387 . S
C124 C125 1.401 . S
C124 H145 0.930 . S
C125 C124 1.401 . S
C125 C126 1.376 . S
C125 C134 1.511 . S
C126 C125 1.376 . S
C126 C127 1.392 . S
C126 H147 0.931 . S
C127 C126 1.392 . S
C127 C128 1.361 . S
C127 C129 1.500 . S
C128 C123 1.390 . S
C128 C127 1.361 . S
C128 H146 0.931 . S
C129 C127 1.500 . S
C129 C130 1.371 . S
C129 C131 1.365 . S
C130 C129 1.371 . S
C130 C140 1.386 . S
C130 H148 0.931 . S
C131 C129 1.365 . S
C131 C132 1.409 . S
C131 H149 0.929 . S
C132 C131 1.409 . S
C132 C133 1.380 . S
C132 H150 0.930 . S
C133 C132 1.380 . S
C133 C140 1.357 . S
C134 C125 1.511 . S
C134 C135 1.341 . S
C134 C136 1.371 . S
C135 C134 1.341 . S
C135 C139 1.394 . S
C135 H151 0.930 . S
C136 C134 1.371 . S
C136 C137 1.392 . S
C136 H152 0.931 . S
C137 C136 1.392 . S
C137 C138 1.331 . S
C137 H155 0.932 . S
C138 C137 1.331 . S
C138 C139 1.336 . S
C139 C135 1.394 . S
C139 C138 1.336 . S
C139 H154 0.929 . S
C140 C130 1.386 . S
C140 C133 1.357 . S
C140 H153 0.928 . S
H141 C117 0.931 . S
H142 C119 0.930 . S
H143 C121 0.929 . S
H144 C122 0.931 . S
H145 C124 0.930 . S
H146 C128 0.931 . S
H147 C126 0.931 . S
H148 C130 0.931 . S
H149 C131 0.929 . S
H150 C132 0.930 . S
H151 C135 0.930 . S
H152 C136 0.931 . S
H153 C140 0.928 . S
H154 C139 0.929 . S
H155 C137 0.932 . S
C156 C157 1.386 . S
C156 C158 1.397 . S
C156 H180 0.931 . S
C157 C156 1.386 . S
C157 C161 1.397 . S
C158 C156 1.397 . S
C158 C159 1.384 . S
C158 H181 0.930 . S
C159 C158 1.384 . S
C159 C160 1.377 . S
C159 C162 1.481 . S
C160 C159 1.377 . S
C160 C161 1.389 . S
C160 H182 0.929 . S
C161 C157 1.397 . S
C161 C160 1.389 . S
C161 H183 0.931 . S
C162 C159 1.481 . S
C162 C163 1.387 . S
C162 C167 1.390 . S
C163 C162 1.387 . S
C163 C164 1.401 . S
C163 H184 0.930 . S
C164 C163 1.401 . S
C164 C165 1.376 . S
C164 C173 1.511 . S
C165 C164 1.376 . S
C165 C166 1.392 . S
C165 H186 0.931 . S
C166 C165 1.392 . S
C166 C167 1.361 . S
C166 C168 1.500 . S
C167 C162 1.390 . S
C167 C166 1.361 . S
C167 H185 0.931 . S
C168 C166 1.500 . S
C168 C169 1.371 . S
C168 C170 1.365 . S
C169 C168 1.371 . S
C169 C179 1.386 . S
C169 H187 0.931 . S
C170 C168 1.365 . S
C170 C171 1.409 . S
C170 H188 0.929 . S
C171 C170 1.409 . S
C171 C172 1.380 . S
C171 H189 0.930 . S
C172 C171 1.380 . S
C172 C179 1.357 . S
C173 C164 1.511 . S
C173 C174 1.341 . S
C173 C175 1.371 . S
C174 C173 1.341 . S
C174 C178 1.394 . S
C174 H190 0.930 . S
C175 C173 1.371 . S
C175 C176 1.392 . S
C175 H191 0.931 . S
C176 C175 1.392 . S
C176 C177 1.331 . S
C176 H194 0.932 . S
C177 C176 1.331 . S
C177 C178 1.336 . S
C178 C174 1.394 . S
C178 C177 1.336 . S
C178 H193 0.929 . S
C179 C169 1.386 . S
C179 C172 1.357 . S
C179 H192 0.928 . S
H180 C156 0.931 . S
H181 C158 0.930 . S
H182 C160 0.929 . S
H183 C161 0.931 . S
H184 C163 0.930 . S
H185 C167 0.931 . S
H186 C165 0.931 . S
H187 C169 0.931 . S
H188 C170 0.929 . S
H189 C171 0.930 . S
H190 C174 0.930 . S
H191 C175 0.931 . S
H192 C179 0.928 . S
H193 C178 0.929 . S
H194 C176 0.932 . S
C195 C196 1.386 . S
C195 C197 1.397 . S
C195 H219 0.931 . S
C196 C195 1.386 . S
C196 C200 1.397 . S
C197 C195 1.397 . S
C197 C198 1.384 . S
C197 H220 0.930 . S
C198 C197 1.384 . S
C198 C199 1.377 . S
C198 C201 1.481 . S
C199 C198 1.377 . S
C199 C200 1.389 . S
C199 H221 0.929 . S
C200 C196 1.397 . S
C200 C199 1.389 . S
C200 H222 0.931 . S
C201 C198 1.481 . S
C201 C202 1.387 . S
C201 C206 1.390 . S
C202 C201 1.387 . S
C202 C203 1.401 . S
C202 H223 0.930 . S
C203 C202 1.401 . S
C203 C204 1.376 . S
C203 C212 1.511 . S
C204 C203 1.376 . S
C204 C205 1.392 . S
C204 H225 0.931 . S
C205 C204 1.392 . S
C205 C206 1.361 . S
C205 C207 1.500 . S
C206 C201 1.390 . S
C206 C205 1.361 . S
C206 H224 0.931 . S
C207 C205 1.500 . S
C207 C208 1.371 . S
C207 C209 1.365 . S
C208 C207 1.371 . S
C208 C218 1.386 . S
C208 H226 0.931 . S
C209 C207 1.365 . S
C209 C210 1.409 . S
C209 H227 0.929 . S
C210 C209 1.409 . S
C210 C211 1.380 . S
C210 H228 0.930 . S
C211 C210 1.380 . S
C211 C218 1.357 . S
C212 C203 1.511 . S
C212 C213 1.341 . S
C212 C214 1.371 . S
C213 C212 1.341 . S
C213 C217 1.394 . S
C213 H229 0.930 . S
C214 C212 1.371 . S
C214 C215 1.392 . S
C214 H230 0.931 . S
C215 C214 1.392 . S
C215 C216 1.331 . S
C215 H233 0.932 . S
C216 C215 1.331 . S
C216 C217 1.336 . S
C217 C213 1.394 . S
C217 C216 1.336 . S
C217 H232 0.929 . S
C218 C208 1.386 . S
C218 C211 1.357 . S
C218 H231 0.928 . S
H219 C195 0.931 . S
H220 C197 0.930 . S
H221 C199 0.929 . S
H222 C200 0.931 . S
H223 C202 0.930 . S
H224 C206 0.931 . S
H225 C204 0.931 . S
H226 C208 0.931 . S
H227 C209 0.929 . S
H228 C210 0.930 . S
H229 C213 0.930 . S
H230 C214 0.931 . S
H231 C218 0.928 . S
H232 C217 0.929 . S
H233 C215 0.932 . S
C234 C235 1.386 . S
C234 C236 1.397 . S
C234 H258 0.931 . S
C235 C234 1.386 . S
C235 C239 1.397 1_655 S
C236 C234 1.397 . S
C236 C237 1.384 . S
C236 H259 0.930 . S
C237 C236 1.384 . S
C237 C238 1.377 . S
C237 C240 1.481 . S
C238 C237 1.377 . S
C238 C239 1.389 1_655 S
C238 H260 0.929 1_655 S
C239 C235 1.397 1_455 S
C239 C238 1.389 1_455 S
C239 H261 0.931 . S
C240 C237 1.481 . S
C240 C241 1.387 . S
C240 C245 1.390 . S
C241 C240 1.387 . S
C241 C242 1.401 . S
C241 H262 0.930 . S
C242 C241 1.401 . S
C242 C243 1.376 . S
C242 C251 1.511 . S
C243 C242 1.376 . S
C243 C244 1.392 . S
C243 H264 0.931 . S
C244 C243 1.392 . S
C244 C245 1.361 . S
C244 C246 1.500 . S
C245 C240 1.390 . S
C245 C244 1.361 . S
C245 H263 0.931 . S
C246 C244 1.500 . S
C246 C247 1.371 . S
C246 C248 1.365 . S
C247 C246 1.371 . S
C247 C257 1.386 . S
C247 H265 0.931 . S
C248 C246 1.365 . S
C248 C249 1.409 . S
C248 H266 0.929 . S
C249 C248 1.409 . S
C249 C250 1.380 . S
C249 H267 0.930 . S
C250 C249 1.380 . S
C250 C257 1.357 . S
C251 C242 1.511 . S
C251 C252 1.341 . S
C251 C253 1.371 . S
C252 C251 1.341 . S
C252 C256 1.394 . S
C252 H268 0.930 . S
C253 C251 1.371 . S
C253 C254 1.392 . S
C253 H269 0.931 . S
C254 C253 1.392 . S
C254 C255 1.331 . S
C254 H272 0.932 . S
C255 C254 1.331 . S
C255 C256 1.336 . S
C256 C252 1.394 . S
C256 C255 1.336 . S
C256 H271 0.929 . S
C257 C247 1.386 . S
C257 C250 1.357 . S
C257 H270 0.928 . S
H258 C234 0.931 . S
H259 C236 0.930 . S
H260 C238 0.929 1_455 S
H261 C239 0.931 . S
H262 C241 0.930 . S
H263 C245 0.931 . S
H264 C243 0.931 . S
H265 C247 0.931 . S
H266 C248 0.929 . S
H267 C249 0.930 . S
H268 C252 0.930 . S
H269 C253 0.931 . S
H270 C257 0.928 . S
H271 C256 0.929 . S
H272 C254 0.932 . S
C273 C274 1.386 . S
C273 C275 1.397 . S
C273 H297 0.931 . S
C274 C273 1.386 . S
C274 C278 1.397 . S
C275 C273 1.397 . S
C275 C276 1.384 . S
C275 H298 0.930 . S
C276 C275 1.384 . S
C276 C277 1.377 . S
C276 C279 1.481 . S
C277 C276 1.377 . S
C277 C278 1.389 . S
C277 H299 0.929 . S
C278 C274 1.397 . S
C278 C277 1.389 . S
C278 H300 0.931 . S
C279 C276 1.481 . S
C279 C280 1.387 . S
C279 C284 1.390 . S
C280 C279 1.387 . S
C280 C281 1.401 . S
C280 H301 0.930 . S
C281 C280 1.401 . S
C281 C282 1.376 . S
C281 C290 1.511 . S
C282 C281 1.376 . S
C282 C283 1.392 . S
C282 H303 0.931 . S
C283 C282 1.392 . S
C283 C284 1.361 . S
C283 C285 1.500 . S
C284 C279 1.390 . S
C284 C283 1.361 . S
C284 H302 0.931 . S
C285 C283 1.500 . S
C285 C286 1.371 . S
C285 C287 1.365 . S
C286 C285 1.371 . S
C286 C296 1.386 . S
C286 H304 0.931 . S
C287 C285 1.365 . S
C287 C288 1.409 . S
C287 H305 0.929 . S
C288 C287 1.409 . S
C288 C289 1.380 . S
C288 H306 0.930 . S
C289 C288 1.380 . S
C289 C296 1.357 . S
C290 C281 1.511 . S
C290 C291 1.341 . S
C290 C292 1.371 . S
C291 C290 1.341 . S
C291 C295 1.394 . S
C291 H307 0.930 . S
C292 C290 1.371 . S
C292 C293 1.392 . S
C292 H308 0.931 . S
C293 C292 1.392 . S
C293 C294 1.331 . S
C293 H311 0.932 . S
C294 C293 1.331 . S
C294 C295 1.336 . S
C295 C291 1.394 . S
C295 C294 1.336 . S
C295 H310 0.929 . S
C296 C286 1.386 . S
C296 C289 1.357 . S
C296 H309 0.928 . S
H297 C273 0.931 . S
H298 C275 0.930 . S
H299 C277 0.929 . S
H300 C278 0.931 . S
H301 C280 0.930 . S
H302 C284 0.931 . S
H303 C282 0.931 . S
H304 C286 0.931 . S
H305 C287 0.929 . S
H306 C288 0.930 . S
H307 C291 0.930 . S
H308 C292 0.931 . S
H309 C296 0.928 . S
H310 C295 0.929 . S
H311 C293 0.932 . S
C312 C313 1.386 . S
C312 C314 1.397 . S
C312 H336 0.931 . S
C313 C312 1.386 . S
C313 C317 1.397 . S
C314 C312 1.397 . S
C314 C315 1.384 . S
C314 H337 0.930 . S
C315 C314 1.384 . S
C315 C316 1.377 . S
C315 C318 1.481 . S
C316 C315 1.377 . S
C316 C317 1.389 . S
C316 H338 0.929 . S
C317 C313 1.397 . S
C317 C316 1.389 . S
C317 H339 0.931 . S
C318 C315 1.481 . S
C318 C319 1.387 . S
C318 C323 1.390 . S
C319 C318 1.387 . S
C319 C320 1.401 . S
C319 H340 0.930 . S
C320 C319 1.401 . S
C320 C321 1.376 . S
C320 C329 1.511 . S
C321 C320 1.376 . S
C321 C322 1.392 . S
C321 H342 0.931 . S
C322 C321 1.392 . S
C322 C323 1.361 . S
C322 C324 1.500 . S
C323 C318 1.390 . S
C323 C322 1.361 . S
C323 H341 0.931 . S
C324 C322 1.500 . S
C324 C325 1.371 . S
C324 C326 1.365 . S
C325 C324 1.371 . S
C325 C335 1.386 . S
C325 H343 0.931 . S
C326 C324 1.365 . S
C326 C327 1.409 . S
C326 H344 0.929 . S
C327 C326 1.409 . S
C327 C328 1.380 . S
C327 H345 0.930 . S
C328 C327 1.380 . S
C328 C335 1.357 . S
C329 C320 1.511 . S
C329 C330 1.341 . S
C329 C331 1.371 . S
C330 C329 1.341 . S
C330 C334 1.394 . S
C330 H346 0.930 . S
C331 C329 1.371 . S
C331 C332 1.392 . S
C331 H347 0.931 . S
C332 C331 1.392 . S
C332 C333 1.331 . S
C332 H350 0.932 . S
C333 C332 1.331 . S
C333 C334 1.336 . S
C334 C330 1.394 . S
C334 C333 1.336 . S
C334 H349 0.929 . S
C335 C325 1.386 . S
C335 C328 1.357 . S
C335 H348 0.928 . S
H336 C312 0.931 . S
H337 C314 0.930 . S
H338 C316 0.929 . S
H339 C317 0.931 . S
H340 C319 0.930 . S
H341 C323 0.931 . S
H342 C321 0.931 . S
H343 C325 0.931 . S
H344 C326 0.929 . S
H345 C327 0.930 . S
H346 C330 0.930 . S
H347 C331 0.931 . S
H348 C335 0.928 . S
H349 C334 0.929 . S
H350 C332 0.932 . S
C351 C352 1.386 . S
C351 C353 1.397 . S
C351 H375 0.931 . S
C352 C351 1.386 . S
C352 C356 1.397 . S
C353 C351 1.397 . S
C353 C354 1.384 . S
C353 H376 0.930 . S
C354 C353 1.384 . S
C354 C355 1.377 . S
C354 C357 1.481 . S
C355 C354 1.377 . S
C355 C356 1.389 . S
C355 H377 0.929 . S
C356 C352 1.397 . S
C356 C355 1.389 . S
C356 H378 0.931 . S
C357 C354 1.481 . S
C357 C358 1.387 . S
C357 C362 1.390 . S
C358 C357 1.387 . S
C358 C359 1.401 . S
C358 H379 0.930 . S
C359 C358 1.401 . S
C359 C360 1.376 . S
C359 C368 1.511 . S
C360 C359 1.376 . S
C360 C361 1.392 . S
C360 H381 0.931 . S
C361 C360 1.392 . S
C361 C362 1.361 . S
C361 C363 1.500 . S
C362 C357 1.390 . S
C362 C361 1.361 . S
C362 H380 0.931 . S
C363 C361 1.500 . S
C363 C364 1.371 . S
C363 C365 1.365 . S
C364 C363 1.371 . S
C364 C374 1.386 . S
C364 H382 0.931 . S
C365 C363 1.365 . S
C365 C366 1.409 . S
C365 H383 0.929 . S
C366 C365 1.409 . S
C366 C367 1.380 . S
C366 H384 0.930 . S
C367 C366 1.380 . S
C367 C374 1.357 . S
C368 C359 1.511 . S
C368 C369 1.341 . S
C368 C370 1.371 . S
C369 C368 1.341 . S
C369 C373 1.394 . S
C369 H385 0.930 . S
C370 C368 1.371 . S
C370 C371 1.392 . S
C370 H386 0.931 . S
C371 C370 1.392 . S
C371 C372 1.331 . S
C371 H389 0.932 . S
C372 C371 1.331 . S
C372 C373 1.336 . S
C373 C369 1.394 . S
C373 C372 1.336 . S
C373 H388 0.929 . S
C374 C364 1.386 . S
C374 C367 1.357 . S
C374 H387 0.928 . S
H375 C351 0.931 . S
H376 C353 0.930 . S
H377 C355 0.929 . S
H378 C356 0.931 . S
H379 C358 0.930 . S
H380 C362 0.931 . S
H381 C360 0.931 . S
H382 C364 0.931 . S
H383 C365 0.929 . S
H384 C366 0.930 . S
H385 C369 0.930 . S
H386 C370 0.931 . S
H387 C374 0.928 . S
H388 C373 0.929 . S
H389 C371 0.932 . S
C390 C391 1.386 . S
C390 C392 1.397 . S
C390 H414 0.931 . S
C391 C390 1.386 . S
C391 C395 1.397 . S
C392 C390 1.397 . S
C392 C393 1.384 . S
C392 H415 0.930 . S
C393 C392 1.384 . S
C393 C394 1.377 . S
C393 C396 1.481 . S
C394 C393 1.377 . S
C394 C395 1.389 . S
C394 H416 0.929 . S
C395 C391 1.397 . S
C395 C394 1.389 . S
C395 H417 0.931 . S
C396 C393 1.481 . S
C396 C397 1.387 . S
C396 C401 1.390 . S
C397 C396 1.387 . S
C397 C398 1.401 . S
C397 H418 0.930 . S
C398 C397 1.401 . S
C398 C399 1.376 . S
C398 C407 1.511 . S
C399 C398 1.376 . S
C399 C400 1.392 . S
C399 H420 0.931 . S
C400 C399 1.392 . S
C400 C401 1.361 . S
C400 C402 1.500 . S
C401 C396 1.390 . S
C401 C400 1.361 . S
C401 H419 0.931 . S
C402 C400 1.500 . S
C402 C403 1.371 . S
C402 C404 1.365 . S
C403 C402 1.371 . S
C403 C413 1.386 . S
C403 H421 0.931 . S
C404 C402 1.365 . S
C404 C405 1.409 . S
C404 H422 0.929 . S
C405 C404 1.409 . S
C405 C406 1.380 . S
C405 H423 0.930 . S
C406 C405 1.380 . S
C406 C413 1.357 . S
C407 C398 1.511 . S
C407 C408 1.341 . S
C407 C409 1.371 . S
C408 C407 1.341 . S
C408 C412 1.394 . S
C408 H424 0.930 . S
C409 C407 1.371 . S
C409 C410 1.392 . S
C409 H425 0.931 . S
C410 C409 1.392 . S
C410 C411 1.331 . S
C410 H428 0.932 . S
C411 C410 1.331 . S
C411 C412 1.336 . S
C412 C408 1.394 . S
C412 C411 1.336 . S
C412 H427 0.929 . S
C413 C403 1.386 . S
C413 C406 1.357 . S
C413 H426 0.928 . S
H414 C390 0.931 . S
H415 C392 0.930 . S
H416 C394 0.929 . S
H417 C395 0.931 . S
H418 C397 0.930 . S
H419 C401 0.931 . S
H420 C399 0.931 . S
H421 C403 0.931 . S
H422 C404 0.929 . S
H423 C405 0.930 . S
H424 C408 0.930 . S
H425 C409 0.931 . S
H426 C413 0.928 . S
H427 C412 0.929 . S
H428 C410 0.932 . S
C429 C430 1.386 . S
C429 C431 1.397 . S
C429 H453 0.931 . S
C430 C429 1.386 . S
C430 C434 1.397 . S
C431 C429 1.397 . S
C431 C432 1.384 . S
C431 H454 0.930 . S
C432 C431 1.384 . S
C432 C433 1.377 . S
C432 C435 1.481 . S
C433 C432 1.377 . S
C433 C434 1.389 . S
C433 H455 0.929 . S
C434 C430 1.397 . S
C434 C433 1.389 . S
C434 H456 0.931 . S
C435 C432 1.481 . S
C435 C436 1.387 . S
C435 C440 1.390 . S
C436 C435 1.387 . S
C436 C437 1.401 . S
C436 H457 0.930 . S
C437 C436 1.401 . S
C437 C438 1.376 . S
C437 C446 1.511 . S
C438 C437 1.376 . S
C438 C439 1.392 . S
C438 H459 0.931 . S
C439 C438 1.392 . S
C439 C440 1.361 . S
C439 C441 1.500 . S
C440 C435 1.390 . S
C440 C439 1.361 . S
C440 H458 0.931 . S
C441 C439 1.500 . S
C441 C442 1.371 . S
C441 C443 1.365 . S
C442 C441 1.371 . S
C442 C452 1.386 . S
C442 H460 0.931 . S
C443 C441 1.365 . S
C443 C444 1.409 . S
C443 H461 0.929 . S
C444 C443 1.409 . S
C444 C445 1.380 . S
C444 H462 0.930 . S
C445 C444 1.380 . S
C445 C452 1.357 . S
C446 C437 1.511 . S
C446 C447 1.341 . S
C446 C448 1.371 . S
C447 C446 1.341 . S
C447 C451 1.394 . S
C447 H463 0.930 . S
C448 C446 1.371 . S
C448 C449 1.392 . S
C448 H464 0.931 . S
C449 C448 1.392 . S
C449 C450 1.331 . S
C449 H467 0.932 . S
C450 C449 1.331 . S
C450 C451 1.336 . S
C451 C447 1.394 . S
C451 C450 1.336 . S
C451 H466 0.929 . S
C452 C442 1.386 . S
C452 C445 1.357 . S
C452 H465 0.928 . S
H453 C429 0.931 . S
H454 C431 0.930 . S
H455 C433 0.929 . S
H456 C434 0.931 . S
H457 C436 0.930 . S
H458 C440 0.931 . S
H459 C438 0.931 . S
H460 C442 0.931 . S
H461 C443 0.929 . S
H462 C444 0.930 . S
H463 C447 0.930 . S
H464 C448 0.931 . S
H465 C452 0.928 . S
H466 C451 0.929 . S
H467 C449 0.932 . S
C468 C469 1.386 . S
C468 C470 1.397 . S
C468 H492 0.931 . S
C469 C468 1.386 . S
C469 C473 1.397 . S
C470 C468 1.397 . S
C470 C471 1.384 . S
C470 H493 0.930 . S
C471 C470 1.384 . S
C471 C472 1.377 . S
C471 C474 1.481 . S
C472 C471 1.377 . S
C472 C473 1.389 . S
C472 H494 0.929 . S
C473 C469 1.397 . S
C473 C472 1.389 . S
C473 H495 0.931 . S
C474 C471 1.481 . S
C474 C475 1.387 . S
C474 C479 1.390 . S
C475 C474 1.387 . S
C475 C476 1.401 . S
C475 H496 0.930 . S
C476 C475 1.401 . S
C476 C477 1.376 . S
C476 C485 1.511 . S
C477 C476 1.376 . S
C477 C478 1.392 . S
C477 H498 0.931 . S
C478 C477 1.392 . S
C478 C479 1.361 . S
C478 C480 1.500 . S
C479 C474 1.390 . S
C479 C478 1.361 . S
C479 H497 0.931 . S
C480 C478 1.500 . S
C480 C481 1.371 . S
C480 C482 1.365 . S
C481 C480 1.371 . S
C481 C491 1.386 . S
C481 H499 0.931 . S
C482 C480 1.365 . S
C482 C483 1.409 . S
C482 H500 0.929 . S
C483 C482 1.409 . S
C483 C484 1.380 . S
C483 H501 0.930 . S
C484 C483 1.380 . S
C484 C491 1.357 . S
C485 C476 1.511 . S
C485 C486 1.341 . S
C485 C487 1.371 . S
C486 C485 1.341 . S
C486 C490 1.394 . S
C486 H502 0.930 . S
C487 C485 1.371 . S
C487 C488 1.392 . S
C487 H503 0.931 . S
C488 C487 1.392 . S
C488 C489 1.331 . S
C488 H506 0.932 . S
C489 C488 1.331 . S
C489 C490 1.336 . S
C490 C486 1.394 . S
C490 C489 1.336 . S
C490 H505 0.929 . S
C491 C481 1.386 . S
C491 C484 1.357 . S
C491 H504 0.928 . S
H492 C468 0.931 . S
H493 C470 0.930 . S
H494 C472 0.929 . S
H495 C473 0.931 . S
H496 C475 0.930 . S
H497 C479 0.931 . S
H498 C477 0.931 . S
H499 C481 0.931 . S
H500 C482 0.929 . S
H501 C483 0.930 . S
H502 C486 0.930 . S
H503 C487 0.931 . S
H504 C491 0.928 . S
H505 C490 0.929 . S
H506 C488 0.932 . S
C507 C508 1.386 . S
C507 C509 1.397 . S
C507 H531 0.931 . S
C508 C507 1.386 . S
C508 C512 1.397 . S
C509 C507 1.397 . S
C509 C510 1.384 . S
C509 H532 0.930 . S
C510 C509 1.384 . S
C510 C511 1.377 . S
C510 C513 1.481 . S
C511 C510 1.377 . S
C511 C512 1.389 . S
C511 H533 0.929 . S
C512 C508 1.397 . S
C512 C511 1.389 . S
C512 H534 0.931 . S
C513 C510 1.481 . S
C513 C514 1.387 . S
C513 C518 1.390 . S
C514 C513 1.387 . S
C514 C515 1.401 . S
C514 H535 0.930 . S
C515 C514 1.401 . S
C515 C516 1.376 . S
C515 C524 1.511 . S
C516 C515 1.376 . S
C516 C517 1.392 . S
C516 H537 0.931 . S
C517 C516 1.392 . S
C517 C518 1.361 . S
C517 C519 1.500 . S
C518 C513 1.390 . S
C518 C517 1.361 . S
C518 H536 0.931 . S
C519 C517 1.500 . S
C519 C520 1.371 . S
C519 C521 1.365 . S
C520 C519 1.371 . S
C520 C530 1.386 . S
C520 H538 0.931 . S
C521 C519 1.365 . S
C521 C522 1.409 . S
C521 H539 0.929 . S
C522 C521 1.409 . S
C522 C523 1.380 . S
C522 H540 0.930 . S
C523 C522 1.380 . S
C523 C530 1.357 . S
C524 C515 1.511 . S
C524 C525 1.341 . S
C524 C526 1.371 . S
C525 C524 1.341 . S
C525 C529 1.394 . S
C525 H541 0.930 . S
C526 C524 1.371 . S
C526 C527 1.392 . S
C526 H542 0.931 . S
C527 C526 1.392 . S
C527 C528 1.331 . S
C527 H545 0.932 . S
C528 C527 1.331 . S
C528 C529 1.336 . S
C529 C525 1.394 . S
C529 C528 1.336 . S
C529 H544 0.929 . S
C530 C520 1.386 . S
C530 C523 1.357 . S
C530 H543 0.928 . S
H531 C507 0.931 . S
H532 C509 0.930 . S
H533 C511 0.929 . S
H534 C512 0.931 . S
H535 C514 0.930 . S
H536 C518 0.931 . S
H537 C516 0.931 . S
H538 C520 0.931 . S
H539 C521 0.929 . S
H540 C522 0.930 . S
H541 C525 0.930 . S
H542 C526 0.931 . S
H543 C530 0.928 . S
H544 C529 0.929 . S
H545 C527 0.932 . S
C546 C547 1.386 . S
C546 C548 1.397 . S
C546 H570 0.931 . S
C547 C546 1.386 . S
C547 C551 1.397 . S
C548 C546 1.397 . S
C548 C549 1.384 . S
C548 H571 0.930 . S
C549 C548 1.384 . S
C549 C550 1.377 . S
C549 C552 1.481 . S
C550 C549 1.377 . S
C550 C551 1.389 . S
C550 H572 0.929 . S
C551 C547 1.397 . S
C551 C550 1.389 . S
C551 H573 0.931 . S
C552 C549 1.481 . S
C552 C553 1.387 . S
C552 C557 1.390 . S
C553 C552 1.387 . S
C553 C554 1.401 . S
C553 H574 0.930 . S
C554 C553 1.401 . S
C554 C555 1.376 . S
C554 C563 1.511 . S
C555 C554 1.376 . S
C555 C556 1.392 . S
C555 H576 0.931 . S
C556 C555 1.392 . S
C556 C557 1.361 . S
C556 C558 1.500 . S
C557 C552 1.390 . S
C557 C556 1.361 . S
C557 H575 0.931 . S
C558 C556 1.500 . S
C558 C559 1.371 . S
C558 C560 1.365 . S
C559 C558 1.371 . S
C559 C569 1.386 . S
C559 H577 0.931 . S
C560 C558 1.365 . S
C560 C561 1.409 . S
C560 H578 0.929 . S
C561 C560 1.409 . S
C561 C562 1.380 . S
C561 H579 0.930 . S
C562 C561 1.380 . S
C562 C569 1.357 . S
C563 C554 1.511 . S
C563 C564 1.341 . S
C563 C565 1.371 . S
C564 C563 1.341 . S
C564 C568 1.394 . S
C564 H580 0.930 . S
C565 C563 1.371 . S
C565 C566 1.392 . S
C565 H581 0.931 . S
C566 C565 1.392 . S
C566 C567 1.331 . S
C566 H584 0.932 . S
C567 C566 1.331 . S
C567 C568 1.336 . S
C568 C564 1.394 . S
C568 C567 1.336 . S
C568 H583 0.929 . S
C569 C559 1.386 . S
C569 C562 1.357 . S
C569 H582 0.928 . S
H570 C546 0.931 . S
H571 C548 0.930 . S
H572 C550 0.929 . S
H573 C551 0.931 . S
H574 C553 0.930 . S
H575 C557 0.931 . S
H576 C555 0.931 . S
H577 C559 0.931 . S
H578 C560 0.929 . S
H579 C561 0.930 . S
H580 C564 0.930 . S
H581 C565 0.931 . S
H582 C569 0.928 . S
H583 C568 0.929 . S
H584 C566 0.932 . S
C585 C586 1.386 . S
C585 C587 1.397 . S
C585 H609 0.931 . S
C586 C585 1.386 . S
C586 C590 1.397 . S
C587 C585 1.397 . S
C587 C588 1.384 . S
C587 H610 0.930 . S
C588 C587 1.384 . S
C588 C589 1.377 . S
C588 C591 1.481 . S
C589 C588 1.377 . S
C589 C590 1.389 . S
C589 H611 0.929 . S
C590 C586 1.397 . S
C590 C589 1.389 . S
C590 H612 0.931 . S
C591 C588 1.481 . S
C591 C592 1.387 . S
C591 C596 1.390 . S
C592 C591 1.387 . S
C592 C593 1.401 . S
C592 H613 0.930 . S
C593 C592 1.401 . S
C593 C594 1.376 . S
C593 C602 1.511 . S
C594 C593 1.376 . S
C594 C595 1.392 . S
C594 H615 0.931 . S
C595 C594 1.392 . S
C595 C596 1.361 . S
C595 C597 1.500 . S
C596 C591 1.390 . S
C596 C595 1.361 . S
C596 H614 0.931 . S
C597 C595 1.500 . S
C597 C598 1.371 . S
C597 C599 1.365 . S
C598 C597 1.371 . S
C598 C608 1.386 . S
C598 H616 0.931 . S
C599 C597 1.365 . S
C599 C600 1.409 . S
C599 H617 0.929 . S
C600 C599 1.409 . S
C600 C601 1.380 . S
C600 H618 0.930 . S
C601 C600 1.380 . S
C601 C608 1.357 . S
C602 C593 1.511 . S
C602 C603 1.341 . S
C602 C604 1.371 . S
C603 C602 1.341 . S
C603 C607 1.394 . S
C603 H619 0.930 . S
C604 C602 1.371 . S
C604 C605 1.392 . S
C604 H620 0.931 . S
C605 C604 1.392 . S
C605 C606 1.331 . S
C605 H623 0.932 . S
C606 C605 1.331 . S
C606 C607 1.336 . S
C607 C603 1.394 . S
C607 C606 1.336 . S
C607 H622 0.929 . S
C608 C598 1.386 . S
C608 C601 1.357 . S
C608 H621 0.928 . S
H609 C585 0.931 . S
H610 C587 0.930 . S
H611 C589 0.929 . S
H612 C590 0.931 . S
H613 C592 0.930 . S
H614 C596 0.931 . S
H615 C594 0.931 . S
H616 C598 0.931 . S
H617 C599 0.929 . S
H618 C600 0.930 . S
H619 C603 0.930 . S
H620 C604 0.931 . S
H621 C608 0.928 . S
H622 C607 0.929 . S
H623 C605 0.932 . S
C624 C625 1.386 1_655 S
C624 C626 1.397 1_655 S
C624 H648 0.931 . S
C625 C624 1.386 1_455 S
C625 C629 1.397 . S
C626 C624 1.397 1_455 S
C626 C627 1.384 . S
C626 H649 0.930 1_455 S
C627 C626 1.384 . S
C627 C628 1.377 . S
C627 C630 1.481 . S
C628 C627 1.377 . S
C628 C629 1.389 . S
C628 H650 0.929 . S
C629 C625 1.397 . S
C629 C628 1.389 . S
C629 H651 0.931 . S
C630 C627 1.481 . S
C630 C631 1.387 . S
C630 C635 1.390 . S
C631 C630 1.387 . S
C631 C632 1.401 . S
C631 H652 0.930 . S
C632 C631 1.401 . S
C632 C633 1.376 . S
C632 C641 1.511 . S
C633 C632 1.376 . S
C633 C634 1.392 . S
C633 H654 0.931 . S
C634 C633 1.392 . S
C634 C635 1.361 . S
C634 C636 1.500 . S
C635 C630 1.390 . S
C635 C634 1.361 . S
C635 H653 0.931 . S
C636 C634 1.500 . S
C636 C637 1.371 . S
C636 C638 1.365 . S
C637 C636 1.371 . S
C637 C647 1.386 . S
C637 H655 0.931 . S
C638 C636 1.365 . S
C638 C639 1.409 . S
C638 H656 0.929 . S
C639 C638 1.409 . S
C639 C640 1.380 . S
C639 H657 0.930 . S
C640 C639 1.380 . S
C640 C647 1.357 . S
C641 C632 1.511 . S
C641 C642 1.341 . S
C641 C643 1.371 . S
C642 C641 1.341 . S
C642 C646 1.394 . S
C642 H658 0.930 . S
C643 C641 1.371 . S
C643 C644 1.392 . S
C643 H659 0.931 . S
C644 C643 1.392 . S
C644 C645 1.331 . S
C644 H662 0.932 . S
C645 C644 1.331 . S
C645 C646 1.336 . S
C646 C642 1.394 . S
C646 C645 1.336 . S
C646 H661 0.929 . S
C647 C637 1.386 . S
C647 C640 1.357 . S
C647 H660 0.928 . S
H648 C624 0.931 . S
H649 C626 0.930 1_655 S
H650 C628 0.929 . S
H651 C629 0.931 . S
H652 C631 0.930 . S
H653 C635 0.931 . S
H654 C633 0.931 . S
H655 C637 0.931 . S
H656 C638 0.929 . S
H657 C639 0.930 . S
H658 C642 0.930 . S
H659 C643 0.931 . S
H660 C647 0.928 . S
H661 C646 0.929 . S
H662 C644 0.932 . S
C663 C664 1.386 . S
C663 C665 1.397 . S
C663 H687 0.931 . S
C664 C663 1.386 . S
C664 C668 1.397 . S
C665 C663 1.397 . S
C665 C666 1.384 . S
C665 H688 0.930 . S
C666 C665 1.384 . S
C666 C667 1.377 . S
C666 C669 1.481 . S
C667 C666 1.377 . S
C667 C668 1.389 . S
C667 H689 0.929 . S
C668 C664 1.397 . S
C668 C667 1.389 . S
C668 H690 0.931 . S
C669 C666 1.481 . S
C669 C670 1.387 . S
C669 C674 1.390 . S
C670 C669 1.387 . S
C670 C671 1.401 . S
C670 H691 0.930 . S
C671 C670 1.401 . S
C671 C672 1.376 . S
C671 C680 1.511 . S
C672 C671 1.376 . S
C672 C673 1.392 . S
C672 H693 0.931 . S
C673 C672 1.392 . S
C673 C674 1.361 . S
C673 C675 1.500 . S
C674 C669 1.390 . S
C674 C673 1.361 . S
C674 H692 0.931 . S
C675 C673 1.500 . S
C675 C676 1.371 . S
C675 C677 1.365 . S
C676 C675 1.371 . S
C676 C686 1.386 . S
C676 H694 0.931 . S
C677 C675 1.365 . S
C677 C678 1.409 . S
C677 H695 0.929 . S
C678 C677 1.409 . S
C678 C679 1.380 . S
C678 H696 0.930 . S
C679 C678 1.380 . S
C679 C686 1.357 . S
C680 C671 1.511 . S
C680 C681 1.341 . S
C680 C682 1.371 . S
C681 C680 1.341 . S
C681 C685 1.394 . S
C681 H697 0.930 . S
C682 C680 1.371 . S
C682 C683 1.392 . S
C682 H698 0.931 . S
C683 C682 1.392 . S
C683 C684 1.331 . S
C683 H701 0.932 . S
C684 C683 1.331 . S
C684 C685 1.336 . S
C685 C681 1.394 . S
C685 C684 1.336 . S
C685 H700 0.929 . S
C686 C676 1.386 . S
C686 C679 1.357 . S
C686 H699 0.928 . S
H687 C663 0.931 . S
H688 C665 0.930 . S
H689 C667 0.929 . S
H690 C668 0.931 . S
H691 C670 0.930 . S
H692 C674 0.931 . S
H693 C672 0.931 . S
H694 C676 0.931 . S
H695 C677 0.929 . S
H696 C678 0.930 . S
H697 C681 0.930 . S
H698 C682 0.931 . S
H699 C686 0.928 . S
H700 C685 0.929 . S
H701 C683 0.932 . S
Eu702 C711 2.828 . S
Eu702 O713 2.350 1_556 S
Eu702 O715 2.418 . S
Eu702 O720 2.373 1_565 S
Eu702 O723 2.488 . S
Eu702 O724 2.471 1_565 S
Eu702 O725 2.349 1_565 S
Eu703 O712 2.373 1_545 S
Eu703 O716 2.488 . S
Eu703 O717 2.460 1_545 S
Eu703 O718 2.349 1_545 S
Eu703 O721 2.392 . S
Eu703 O722 2.418 . S
Eu703 C732 2.828 . S
C704 O722 1.259 . S
C704 O725 1.259 1_554 S
C705 C706 1.379 1_565 S
C705 C709 1.373 . S
C705 C711 1.505 . S
C706 C705 1.379 1_545 S
C706 C708 1.369 . S
C706 H734 0.930 . S
C707 C709 1.383 . S
C707 C710 1.382 1_565 S
C707 H735 0.930 . S
C708 C706 1.369 . S
C708 C710 1.392 . S
C708 H736 0.930 . S
C709 C705 1.373 . S
C709 C707 1.383 . S
C709 H737 0.931 . S
C710 C707 1.382 1_545 S
C710 C708 1.392 . S
C711 Eu702 2.828 . S
C711 C705 1.505 . S
C711 O723 1.249 . S
C711 O724 1.244 1_565 S
O712 Eu703 2.373 1_565 S
O712 C714 1.258 . S
O713 Eu702 2.350 1_554 S
O713 C714 1.293 . S
C714 O712 1.258 . S
C714 O713 1.293 . S
O715 Eu702 2.418 . S
O715 C719 1.244 1_556 S
O716 Eu703 2.488 . S
O716 C732 1.249 . S
O717 Eu703 2.460 1_565 S
O717 C732 1.228 1_565 S
O718 Eu703 2.349 1_565 S
O718 C719 1.265 . S
C719 O715 1.244 1_554 S
C719 O718 1.265 . S
O720 Eu702 2.373 1_545 S
O720 C733 1.258 . S
O721 Eu703 2.392 . S
O721 C733 1.242 1_554 S
O722 Eu703 2.418 . S
O722 C704 1.259 . S
O723 Eu702 2.488 . S
O723 C711 1.249 . S
O724 Eu702 2.471 1_545 S
O724 C711 1.244 1_545 S
O725 Eu702 2.349 1_545 S
O725 C704 1.259 1_556 S
C726 C727 1.379 1_545 S
C726 C730 1.373 . S
C726 C732 1.505 . S
C727 C726 1.379 1_565 S
C727 C729 1.369 . S
C727 H738 0.930 . S
C728 C730 1.383 . S
C728 C731 1.382 1_545 S
C728 H739 0.930 . S
C729 C727 1.369 . S
C729 C731 1.392 . S
C729 H740 0.930 . S
C730 C726 1.373 . S
C730 C728 1.383 . S
C730 H741 0.931 . S
C731 C728 1.382 1_565 S
C731 C729 1.392 . S
C732 Eu703 2.828 . S
C732 O716 1.249 . S
C732 O717 1.228 1_545 S
C732 C726 1.505 . S
C733 O720 1.258 . S
C733 O721 1.242 1_556 S
H734 C706 0.930 . S
H735 C707 0.930 . S
H736 C708 0.930 . S
H737 C709 0.931 . S
H738 C727 0.930 . S
H739 C728 0.930 . S
H740 C729 0.930 . S
H741 C730 0.931 . S
Eu742 C751 2.828 . S
Eu742 O753 2.392 1_556 S
Eu742 O755 2.418 . S
Eu742 O760 2.373 1_455 S
Eu742 O763 2.488 . S
Eu742 O764 2.471 1_455 S
Eu742 O765 2.349 1_455 S
Eu743 O752 2.373 1_655 S
Eu743 O756 2.488 . S
Eu743 O757 2.471 1_655 S
Eu743 O758 2.349 1_655 S
Eu743 O761 2.392 . S
Eu743 O762 2.418 . S
Eu743 C772 2.828 . S
C744 O762 1.244 1_556 S
C744 O765 1.265 . S
C745 C746 1.379 1_455 S
C745 C749 1.373 . S
C745 C751 1.505 . S
C746 C745 1.379 1_655 S
C746 C748 1.369 . S
C746 H774 0.930 . S
C747 C749 1.383 . S
C747 C750 1.382 1_455 S
C747 H775 0.930 . S
C748 C746 1.369 . S
C748 C750 1.392 . S
C748 H776 0.930 . S
C749 C745 1.373 . S
C749 C747 1.383 . S
C749 H777 0.931 . S
C750 C747 1.382 1_655 S
C750 C748 1.392 . S
C751 Eu742 2.828 . S
C751 C745 1.505 . S
C751 O763 1.249 . S
C751 O764 1.244 1_455 S
O752 Eu743 2.373 1_455 S
O752 C754 1.258 . S
O753 Eu742 2.392 1_554 S
O753 C754 1.242 . S
C754 O752 1.258 . S
C754 O753 1.242 . S
O755 Eu742 2.418 . S
O755 C759 1.244 1_556 S
O756 Eu743 2.488 . S
O756 C772 1.249 . S
O757 Eu743 2.471 1_455 S
O757 C772 1.244 1_455 S
O758 Eu743 2.349 1_455 S
O758 C759 1.265 . S
C759 O755 1.244 1_554 S
C759 O758 1.265 . S
O760 Eu742 2.373 1_655 S
O760 C773 1.258 . S
O761 Eu743 2.392 . S
O761 C773 1.242 1_554 S
O762 Eu743 2.418 . S
O762 C744 1.244 1_554 S
O763 Eu742 2.488 . S
O763 C751 1.249 . S
O764 Eu742 2.471 1_655 S
O764 C751 1.244 1_655 S
O765 Eu742 2.349 1_655 S
O765 C744 1.265 . S
C766 C767 1.379 1_655 S
C766 C770 1.373 . S
C766 C772 1.505 . S
C767 C766 1.379 1_455 S
C767 C769 1.369 . S
C767 H778 0.930 . S
C768 C770 1.383 . S
C768 C771 1.382 1_655 S
C768 H779 0.930 . S
C769 C767 1.369 . S
C769 C771 1.392 . S
C769 H780 0.930 . S
C770 C766 1.373 . S
C770 C768 1.383 . S
C770 H781 0.931 . S
C771 C768 1.382 1_455 S
C771 C769 1.392 . S
C772 Eu743 2.828 . S
C772 O756 1.249 . S
C772 O757 1.244 1_655 S
C772 C766 1.505 . S
C773 O760 1.258 . S
C773 O761 1.242 1_556 S
H774 C746 0.930 . S
H775 C747 0.930 . S
H776 C748 0.930 . S
H777 C749 0.931 . S
H778 C767 0.930 . S
H779 C768 0.930 . S
H780 C769 0.930 . S
H781 C770 0.931 . S
Eu782 C791 2.828 . S
Eu782 O793 2.392 . S
Eu782 O795 2.418 . S
Eu782 O800 2.373 . S
Eu782 O803 2.488 . S
Eu782 O804 2.471 . S
Eu782 O805 2.349 . S
Eu783 O792 2.373 . S
Eu783 O796 2.488 . S
Eu783 O797 2.471 . S
Eu783 O798 2.349 . S
Eu783 O801 2.392 1_556 S
Eu783 O802 2.418 . S
Eu783 C812 2.828 . S
C784 O802 1.244 1_554 S
C784 O805 1.265 . S
C785 C786 1.379 . S
C785 C789 1.373 . S
C785 C791 1.505 . S
C786 C785 1.379 . S
C786 C788 1.369 . S
C786 H814 0.930 . S
C787 C789 1.383 . S
C787 C790 1.382 . S
C787 H815 0.930 . S
C788 C786 1.369 . S
C788 C790 1.392 . S
C788 H816 0.930 . S
C789 C785 1.373 . S
C789 C787 1.383 . S
C789 H817 0.931 . S
C790 C787 1.382 . S
C790 C788 1.392 . S
C791 Eu782 2.828 . S
C791 C785 1.505 . S
C791 O803 1.249 . S
C791 O804 1.244 . S
O792 Eu783 2.373 . S
O792 C794 1.258 . S
O793 Eu782 2.392 . S
O793 C794 1.242 1_554 S
C794 O792 1.258 . S
C794 O793 1.242 1_556 S
O795 Eu782 2.418 . S
O795 C799 1.244 1_554 S
O796 Eu783 2.488 . S
O796 C812 1.249 . S
O797 Eu783 2.471 . S
O797 C812 1.244 . S
O798 Eu783 2.349 . S
O798 C799 1.265 . S
C799 O795 1.244 1_556 S
C799 O798 1.265 . S
O800 Eu782 2.373 . S
O800 C813 1.258 . S
O801 Eu783 2.392 1_554 S
O801 C813 1.242 . S
O802 Eu783 2.418 . S
O802 C784 1.244 1_556 S
O803 Eu782 2.488 . S
O803 C791 1.249 . S
O804 Eu782 2.471 . S
O804 C791 1.244 . S
O805 Eu782 2.349 . S
O805 C784 1.265 . S
C806 C807 1.379 . S
C806 C810 1.373 . S
C806 C812 1.505 . S
C807 C806 1.379 . S
C807 C809 1.369 . S
C807 H818 0.930 . S
C808 C810 1.383 . S
C808 C811 1.382 . S
C808 H819 0.930 . S
C809 C807 1.369 . S
C809 C811 1.392 . S
C809 H820 0.930 . S
C810 C806 1.373 . S
C810 C808 1.383 . S
C810 H821 0.931 . S
C811 C808 1.382 . S
C811 C809 1.392 . S
C812 Eu783 2.828 . S
C812 O796 1.249 . S
C812 O797 1.244 . S
C812 C806 1.505 . S
C813 O800 1.258 . S
C813 O801 1.242 . S
H814 C786 0.930 . S
H815 C787 0.930 . S
H816 C788 0.930 . S
H817 C789 0.931 . S
H818 C807 0.930 . S
H819 C808 0.930 . S
H820 C809 0.930 . S
H821 C810 0.931 . S
Eu822 C831 2.828 . S
Eu822 O833 2.392 . S
Eu822 O835 2.418 . S
Eu822 O840 2.373 . S
Eu822 O843 2.488 . S
Eu822 O844 2.471 . S
Eu822 O845 2.349 . S
Eu823 O832 2.373 . S
Eu823 O836 2.488 . S
Eu823 O837 2.471 . S
Eu823 O838 2.349 . S
Eu823 O841 2.392 . S
Eu823 O842 2.418 . S
Eu823 C852 2.828 . S
C824 O842 1.244 . S
C824 O845 1.265 . S
C825 C826 1.379 . S
C825 C829 1.373 . S
C825 C831 1.505 . S
C826 C825 1.379 . S
C826 C828 1.369 . S
C826 H854 0.930 . S
C827 C829 1.383 . S
C827 C830 1.382 . S
C827 H855 0.930 . S
C828 C826 1.369 . S
C828 C830 1.392 . S
C828 H856 0.930 . S
C829 C825 1.373 . S
C829 C827 1.383 . S
C829 H857 0.931 . S
C830 C827 1.382 . S
C830 C828 1.392 . S
C831 Eu822 2.828 . S
C831 C825 1.505 . S
C831 O843 1.249 . S
C831 O844 1.244 . S
O832 Eu823 2.373 . S
O832 C834 1.258 . S
O833 Eu822 2.392 . S
O833 C834 1.242 . S
C834 O832 1.258 . S
C834 O833 1.242 . S
O835 Eu822 2.418 . S
O835 C839 1.244 . S
O836 Eu823 2.488 . S
O836 C852 1.249 . S
O837 Eu823 2.471 . S
O837 C852 1.244 . S
O838 Eu823 2.349 . S
O838 C839 1.265 . S
C839 O835 1.244 . S
C839 O838 1.265 . S
O840 Eu822 2.373 . S
O840 C853 1.258 . S
O841 Eu823 2.392 . S
O841 C853 1.242 . S
O842 Eu823 2.418 . S
O842 C824 1.244 . S
O843 Eu822 2.488 . S
O843 C831 1.249 . S
O844 Eu822 2.471 . S
O844 C831 1.244 . S
O845 Eu822 2.349 . S
O845 C824 1.265 . S
C846 C847 1.379 . S
C846 C850 1.373 . S
C846 C852 1.505 . S
C847 C846 1.379 . S
C847 C849 1.369 . S
C847 H858 0.930 . S
C848 C850 1.383 . S
C848 C851 1.382 . S
C848 H859 0.930 . S
C849 C847 1.369 . S
C849 C851 1.392 . S
C849 H860 0.930 . S
C850 C846 1.373 . S
C850 C848 1.383 . S
C850 H861 0.931 . S
C851 C848 1.382 . S
C851 C849 1.392 . S
C852 Eu823 2.828 . S
C852 O836 1.249 . S
C852 O837 1.244 . S
C852 C846 1.505 . S
C853 O840 1.258 . S
C853 O841 1.242 . S
H854 C826 0.930 . S
H855 C827 0.930 . S
H856 C828 0.930 . S
H857 C829 0.931 . S
H858 C847 0.930 . S
H859 C848 0.930 . S
H860 C849 0.930 . S
H861 C850 0.931 . S
Eu862 C871 2.828 . S
Eu862 O873 2.392 . S
Eu862 O875 2.418 . S
Eu862 O880 2.373 . S
Eu862 O883 2.488 . S
Eu862 O884 2.471 . S
Eu862 O885 2.349 . S
Eu863 O872 2.373 . S
Eu863 O876 2.488 . S
Eu863 O877 2.471 . S
Eu863 O878 2.349 . S
Eu863 O881 2.392 . S
Eu863 O882 2.418 . S
Eu863 C892 2.828 . S
C864 O882 1.244 . S
C864 O885 1.265 . S
C865 C866 1.379 . S
C865 C869 1.373 . S
C865 C871 1.505 . S
C866 C865 1.379 . S
C866 C868 1.369 . S
C866 H894 0.930 . S
C867 C869 1.383 . S
C867 C870 1.382 . S
C867 H895 0.930 . S
C868 C866 1.369 . S
C868 C870 1.392 . S
C868 H896 0.930 . S
C869 C865 1.373 . S
C869 C867 1.383 . S
C869 H897 0.931 . S
C870 C867 1.382 . S
C870 C868 1.392 . S
C871 Eu862 2.828 . S
C871 C865 1.505 . S
C871 O883 1.249 . S
C871 O884 1.244 . S
O872 Eu863 2.373 . S
O872 C874 1.258 . S
O873 Eu862 2.392 . S
O873 C874 1.242 . S
C874 O872 1.258 . S
C874 O873 1.242 . S
O875 Eu862 2.418 . S
O875 C879 1.244 . S
O876 Eu863 2.488 . S
O876 C892 1.249 . S
O877 Eu863 2.471 . S
O877 C892 1.244 . S
O878 Eu863 2.349 . S
O878 C879 1.265 . S
C879 O875 1.244 . S
C879 O878 1.265 . S
O880 Eu862 2.373 . S
O880 C893 1.258 . S
O881 Eu863 2.392 . S
O881 C893 1.242 . S
O882 Eu863 2.418 . S
O882 C864 1.244 . S
O883 Eu862 2.488 . S
O883 C871 1.249 . S
O884 Eu862 2.471 . S
O884 C871 1.244 . S
O885 Eu862 2.349 . S
O885 C864 1.265 . S
C886 C887 1.379 . S
C886 C890 1.373 . S
C886 C892 1.505 . S
C887 C886 1.379 . S
C887 C889 1.369 . S
C887 H898 0.930 . S
C888 C890 1.383 . S
C888 C891 1.382 . S
C888 H899 0.930 . S
C889 C887 1.369 . S
C889 C891 1.392 . S
C889 H900 0.930 . S
C890 C886 1.373 . S
C890 C888 1.383 . S
C890 H901 0.931 . S
C891 C888 1.382 . S
C891 C889 1.392 . S
C892 Eu863 2.828 . S
C892 O876 1.249 . S
C892 O877 1.244 . S
C892 C886 1.505 . S
C893 O880 1.258 . S
C893 O881 1.242 . S
H894 C866 0.930 . S
H895 C867 0.930 . S
H896 C868 0.930 . S
H897 C869 0.931 . S
H898 C887 0.930 . S
H899 C888 0.930 . S
H900 C889 0.930 . S
H901 C890 0.931 . S
Eu902 C911 2.828 . S
Eu902 O913 2.392 . S
Eu902 O915 2.418 . S
Eu902 O920 2.373 . S
Eu902 O923 2.488 . S
Eu902 O924 2.471 . S
Eu902 O925 2.349 . S
Eu903 O912 2.373 . S
Eu903 O916 2.488 . S
Eu903 O917 2.471 . S
Eu903 O918 2.349 . S
Eu903 O921 2.392 . S
Eu903 O922 2.418 . S
Eu903 C932 2.828 . S
C904 O922 1.244 . S
C904 O925 1.265 . S
C905 C906 1.379 . S
C905 C909 1.373 . S
C905 C911 1.505 . S
C906 C905 1.379 . S
C906 C908 1.369 . S
C906 H934 0.930 . S
C907 C909 1.383 . S
C907 C910 1.382 . S
C907 H935 0.930 . S
C908 C906 1.369 . S
C908 C910 1.392 . S
C908 H936 0.930 . S
C909 C905 1.373 . S
C909 C907 1.383 . S
C909 H937 0.931 . S
C910 C907 1.382 . S
C910 C908 1.392 . S
C911 Eu902 2.828 . S
C911 C905 1.505 . S
C911 O923 1.249 . S
C911 O924 1.244 . S
O912 Eu903 2.373 . S
O912 C914 1.258 . S
O913 Eu902 2.392 . S
O913 C914 1.242 . S
C914 O912 1.258 . S
C914 O913 1.242 . S
O915 Eu902 2.418 . S
O915 C919 1.244 . S
O916 Eu903 2.488 . S
O916 C932 1.249 . S
O917 Eu903 2.471 . S
O917 C932 1.244 . S
O918 Eu903 2.349 . S
O918 C919 1.265 . S
C919 O915 1.244 . S
C919 O918 1.265 . S
O920 Eu902 2.373 . S
O920 C933 1.258 . S
O921 Eu903 2.392 . S
O921 C933 1.242 . S
O922 Eu903 2.418 . S
O922 C904 1.244 . S
O923 Eu902 2.488 . S
O923 C911 1.249 . S
O924 Eu902 2.471 . S
O924 C911 1.244 . S
O925 Eu902 2.349 . S
O925 C904 1.265 . S
C926 C927 1.379 . S
C926 C930 1.373 . S
C926 C932 1.505 . S
C927 C926 1.379 . S
C927 C929 1.369 . S
C927 H938 0.930 . S
C928 C930 1.383 . S
C928 C931 1.382 . S
C928 H939 0.930 . S
C929 C927 1.369 . S
C929 C931 1.392 . S
C929 H940 0.930 . S
C930 C926 1.373 . S
C930 C928 1.383 . S
C930 H941 0.931 . S
C931 C928 1.382 . S
C931 C929 1.392 . S
C932 Eu903 2.828 . S
C932 O916 1.249 . S
C932 O917 1.244 . S
C932 C926 1.505 . S
C933 O920 1.258 . S
C933 O921 1.242 . S
H934 C906 0.930 . S
H935 C907 0.930 . S
H936 C908 0.930 . S
H937 C909 0.931 . S
H938 C927 0.930 . S
H939 C928 0.930 . S
H940 C929 0.930 . S
H941 C930 0.931 . S
Eu942 C951 2.828 . S
Eu942 O953 2.392 . S
Eu942 O955 2.418 . S
Eu942 O960 2.373 . S
Eu942 O963 2.488 . S
Eu942 O964 2.471 . S
Eu942 O965 2.349 . S
Eu943 O952 2.373 . S
Eu943 O956 2.488 . S
Eu943 O957 2.471 . S
Eu943 O958 2.349 . S
Eu943 O961 2.392 . S
Eu943 O962 2.418 . S
Eu943 C972 2.828 . S
C944 O962 1.244 . S
C944 O965 1.265 . S
C945 C946 1.379 . S
C945 C949 1.373 . S
C945 C951 1.505 . S
C946 C945 1.379 . S
C946 C948 1.369 . S
C946 H974 0.930 . S
C947 C949 1.383 . S
C947 C950 1.382 . S
C947 H975 0.930 . S
C948 C946 1.369 . S
C948 C950 1.392 . S
C948 H976 0.930 . S
C949 C945 1.373 . S
C949 C947 1.383 . S
C949 H977 0.931 . S
C950 C947 1.382 . S
C950 C948 1.392 . S
C951 Eu942 2.828 . S
C951 C945 1.505 . S
C951 O963 1.249 . S
C951 O964 1.244 . S
O952 Eu943 2.373 . S
O952 C954 1.258 . S
O953 Eu942 2.392 . S
O953 C954 1.242 . S
C954 O952 1.258 . S
C954 O953 1.242 . S
O955 Eu942 2.418 . S
O955 C959 1.244 . S
O956 Eu943 2.488 . S
O956 C972 1.249 . S
O957 Eu943 2.471 . S
O957 C972 1.244 . S
O958 Eu943 2.349 . S
O958 C959 1.265 . S
C959 O955 1.244 . S
C959 O958 1.265 . S
O960 Eu942 2.373 . S
O960 C973 1.258 . S
O961 Eu943 2.392 . S
O961 C973 1.242 . S
O962 Eu943 2.418 . S
O962 C944 1.244 . S
O963 Eu942 2.488 . S
O963 C951 1.249 . S
O964 Eu942 2.471 . S
O964 C951 1.244 . S
O965 Eu942 2.349 . S
O965 C944 1.265 . S
C966 C967 1.379 . S
C966 C970 1.373 . S
C966 C972 1.505 . S
C967 C966 1.379 . S
C967 C969 1.369 . S
C967 H978 0.930 . S
C968 C970 1.383 . S
C968 C971 1.382 . S
C968 H979 0.930 . S
C969 C967 1.369 . S
C969 C971 1.392 . S
C969 H980 0.930 . S
C970 C966 1.373 . S
C970 C968 1.383 . S
C970 H981 0.931 . S
C971 C968 1.382 . S
C971 C969 1.392 . S
C972 Eu943 2.828 . S
C972 O956 1.249 . S
C972 O957 1.244 . S
C972 C966 1.505 . S
C973 O960 1.258 . S
C973 O961 1.242 . S
H974 C946 0.930 . S
H975 C947 0.930 . S
H976 C948 0.930 . S
H977 C949 0.931 . S
H978 C967 0.930 . S
H979 C968 0.930 . S
H980 C969 0.930 . S
H981 C970 0.931 . S
Eu982 C991 2.828 . S
Eu982 O993 2.392 . S
Eu982 O995 2.418 . S
Eu982 O1000 2.373 . S
Eu982 O1003 2.488 . S
Eu982 O1004 2.471 . S
Eu982 O1005 2.349 . S
Eu983 O992 2.373 . S
Eu983 O996 2.488 . S
Eu983 O997 2.471 . S
Eu983 O998 2.349 . S
Eu983 O1001 2.392 . S
Eu983 O1002 2.418 . S
Eu983 C1012 2.828 . S
C984 O1002 1.244 . S
C984 O1005 1.265 . S
C985 C986 1.379 . S
C985 C989 1.373 . S
C985 C991 1.505 . S
C986 C985 1.379 . S
C986 C988 1.369 . S
C986 H1014 0.930 . S
C987 C989 1.383 . S
C987 C990 1.382 . S
C987 H1015 0.930 . S
C988 C986 1.369 . S
C988 C990 1.392 . S
C988 H1016 0.930 . S
C989 C985 1.373 . S
C989 C987 1.383 . S
C989 H1017 0.931 . S
C990 C987 1.382 . S
C990 C988 1.392 . S
C991 Eu982 2.828 . S
C991 C985 1.505 . S
C991 O1003 1.249 . S
C991 O1004 1.244 . S
O992 Eu983 2.373 . S
O992 C994 1.258 . S
O993 Eu982 2.392 . S
O993 C994 1.242 . S
C994 O992 1.258 . S
C994 O993 1.242 . S
O995 Eu982 2.418 . S
O995 C999 1.244 . S
O996 Eu983 2.488 . S
O996 C1012 1.249 . S
O997 Eu983 2.471 . S
O997 C1012 1.244 . S
O998 Eu983 2.349 . S
O998 C999 1.265 . S
C999 O995 1.244 . S
C999 O998 1.265 . S
O1000 Eu982 2.373 . S
O1000 C1013 1.258 . S
O1001 Eu983 2.392 . S
O1001 C1013 1.242 . S
O1002 Eu983 2.418 . S
O1002 C984 1.244 . S
O1003 Eu982 2.488 . S
O1003 C991 1.249 . S
O1004 Eu982 2.471 . S
O1004 C991 1.244 . S
O1005 Eu982 2.349 . S
O1005 C984 1.265 . S
C1006 C1007 1.379 . S
C1006 C1010 1.373 . S
C1006 C1012 1.505 . S
C1007 C1006 1.379 . S
C1007 C1009 1.369 . S
C1007 H1018 0.930 . S
C1008 C1010 1.383 . S
C1008 C1011 1.382 . S
C1008 H1019 0.930 . S
C1009 C1007 1.369 . S
C1009 C1011 1.392 . S
C1009 H1020 0.930 . S
C1010 C1006 1.373 . S
C1010 C1008 1.383 . S
C1010 H1021 0.931 . S
C1011 C1008 1.382 . S
C1011 C1009 1.392 . S
C1012 Eu983 2.828 . S
C1012 O996 1.249 . S
C1012 O997 1.244 . S
C1012 C1006 1.505 . S
C1013 O1000 1.258 . S
C1013 O1001 1.242 . S
H1014 C986 0.930 . S
H1015 C987 0.930 . S
H1016 C988 0.930 . S
H1017 C989 0.931 . S
H1018 C1007 0.930 . S
H1019 C1008 0.930 . S
H1020 C1009 0.930 . S
H1021 C1010 0.931 . S
Eu1022 C1031 2.828 . S
Eu1022 O1033 2.392 . S
Eu1022 O1035 2.418 . S
Eu1022 O1040 2.373 . S
Eu1022 O1043 2.488 . S
Eu1022 O1044 2.471 . S
Eu1022 O1045 2.349 . S
Eu1023 O1032 2.373 . S
Eu1023 O1036 2.488 . S
Eu1023 O1037 2.471 . S
Eu1023 O1038 2.349 . S
Eu1023 O1041 2.392 . S
Eu1023 O1042 2.418 . S
Eu1023 C1052 2.828 . S
C1024 O1042 1.244 . S
C1024 O1045 1.265 . S
C1025 C1026 1.379 . S
C1025 C1029 1.373 . S
C1025 C1031 1.505 . S
C1026 C1025 1.379 . S
C1026 C1028 1.369 . S
C1026 H1054 0.930 . S
C1027 C1029 1.383 . S
C1027 C1030 1.382 . S
C1027 H1055 0.930 . S
C1028 C1026 1.369 . S
C1028 C1030 1.392 . S
C1028 H1056 0.930 . S
C1029 C1025 1.373 . S
C1029 C1027 1.383 . S
C1029 H1057 0.931 . S
C1030 C1027 1.382 . S
C1030 C1028 1.392 . S
C1031 Eu1022 2.828 . S
C1031 C1025 1.505 . S
C1031 O1043 1.249 . S
C1031 O1044 1.244 . S
O1032 Eu1023 2.373 . S
O1032 C1034 1.258 . S
O1033 Eu1022 2.392 . S
O1033 C1034 1.242 . S
C1034 O1032 1.258 . S
C1034 O1033 1.242 . S
O1035 Eu1022 2.418 . S
O1035 C1039 1.244 . S
O1036 Eu1023 2.488 . S
O1036 C1052 1.249 . S
O1037 Eu1023 2.471 . S
O1037 C1052 1.244 . S
O1038 Eu1023 2.349 . S
O1038 C1039 1.265 . S
C1039 O1035 1.244 . S
C1039 O1038 1.265 . S
O1040 Eu1022 2.373 . S
O1040 C1053 1.258 . S
O1041 Eu1023 2.392 . S
O1041 C1053 1.242 . S
O1042 Eu1023 2.418 . S
O1042 C1024 1.244 . S
O1043 Eu1022 2.488 . S
O1043 C1031 1.249 . S
O1044 Eu1022 2.471 . S
O1044 C1031 1.244 . S
O1045 Eu1022 2.349 . S
O1045 C1024 1.265 . S
C1046 C1047 1.379 . S
C1046 C1050 1.373 . S
C1046 C1052 1.505 . S
C1047 C1046 1.379 . S
C1047 C1049 1.369 . S
C1047 H1058 0.930 . S
C1048 C1050 1.383 . S
C1048 C1051 1.382 . S
C1048 H1059 0.930 . S
C1049 C1047 1.369 . S
C1049 C1051 1.392 . S
C1049 H1060 0.930 . S
C1050 C1046 1.373 . S
C1050 C1048 1.383 . S
C1050 H1061 0.931 . S
C1051 C1048 1.382 . S
C1051 C1049 1.392 . S
C1052 Eu1023 2.828 . S
C1052 O1036 1.249 . S
C1052 O1037 1.244 . S
C1052 C1046 1.505 . S
C1053 O1040 1.258 . S
C1053 O1041 1.242 . S
H1054 C1026 0.930 . S
H1055 C1027 0.930 . S
H1056 C1028 0.930 . S
H1057 C1029 0.931 . S
H1058 C1047 0.930 . S
H1059 C1048 0.930 . S
H1060 C1049 0.930 . S
H1061 C1050 0.931 . S
H1062 C1068 0.930 . S
H1063 C1072 0.930 . S
H1064 C1077 0.929 . S
H1065 C1075 0.929 . S
H1066 C1070 0.929 . S
H1067 C1076 0.929 . S
C1068 H1062 0.930 . S
C1068 C1069 1.367 . S
C1068 C1076 1.378 . S
C1069 C1068 1.367 . S
C1069 C1077 1.433 . S
C1070 H1066 0.929 . S
C1070 C1072 1.378 . S
C1070 C1074 1.350 . S
C1071 C1074 1.463 . S
C1071 C1076 1.350 . S
C1071 N1079 1.427 . S
C1072 H1063 0.930 . S
C1072 C1070 1.378 . S
C1072 C1073 1.367 . S
C1073 C1072 1.367 . S
C1073 C1075 1.433 . S
C1074 C1070 1.350 . S
C1074 C1071 1.463 . S
C1074 N1078 1.427 . S
C1075 H1065 0.929 . S
C1075 C1073 1.433 . S
C1075 N1078 1.384 . S
C1076 H1067 0.929 . S
C1076 C1068 1.378 . S
C1076 C1071 1.350 . S
C1077 H1064 0.929 . S
C1077 C1069 1.433 . S
C1077 N1079 1.384 . S
N1078 C1074 1.427 . S
N1078 C1075 1.384 . S
N1079 C1071 1.427 . S
N1079 C1077 1.384 . S
H1080 C1086 0.930 . S
H1081 C1090 0.930 . S
H1082 C1095 0.929 . S
H1083 C1093 0.929 . S
H1084 C1088 0.929 . S
H1085 C1094 0.929 . S
C1086 H1080 0.930 . S
C1086 C1087 1.367 . S
C1086 C1094 1.378 . S
C1087 C1086 1.367 . S
C1087 C1095 1.433 . S
C1088 H1084 0.929 . S
C1088 C1090 1.378 . S
C1088 C1092 1.350 . S
C1089 C1092 1.463 . S
C1089 C1094 1.350 . S
C1089 N1097 1.427 . S
C1090 H1081 0.930 . S
C1090 C1088 1.378 . S
C1090 C1091 1.367 . S
C1091 C1090 1.367 . S
C1091 C1093 1.433 . S
C1092 C1088 1.350 . S
C1092 C1089 1.463 . S
C1092 N1096 1.427 . S
C1093 H1083 0.929 . S
C1093 C1091 1.433 . S
C1093 N1096 1.384 . S
C1094 H1085 0.929 . S
C1094 C1086 1.378 . S
C1094 C1089 1.350 . S
C1095 H1082 0.929 . S
C1095 C1087 1.433 . S
C1095 N1097 1.384 . S
N1096 C1092 1.427 . S
N1096 C1093 1.384 . S
N1097 C1089 1.427 . S
N1097 C1095 1.384 . S
H1098 C1104 0.930 . S
H1099 C1108 0.930 1_556 S
H1100 C1113 0.929 . S
H1101 C1111 0.929 . S
H1102 C1106 0.929 1_556 S
H1103 C1112 0.929 . S
C1104 H1098 0.930 . S
C1104 C1105 1.367 . S
C1104 C1112 1.378 . S
C1105 C1104 1.367 . S
C1105 C1113 1.433 . S
C1106 H1102 0.929 1_554 S
C1106 C1108 1.378 . S
C1106 C1110 1.350 . S
C1107 C1110 1.463 . S
C1107 C1112 1.350 . S
C1107 N1115 1.427 . S
C1108 H1099 0.930 1_554 S
C1108 C1106 1.378 . S
C1108 C1109 1.367 . S
C1109 C1108 1.367 . S
C1109 C1111 1.433 . S
C1110 C1106 1.350 . S
C1110 C1107 1.463 . S
C1110 N1114 1.427 . S
C1111 H1101 0.929 . S
C1111 C1109 1.433 . S
C1111 N1114 1.384 . S
C1112 H1103 0.929 . S
C1112 C1104 1.378 . S
C1112 C1107 1.350 . S
C1113 H1100 0.929 . S
C1113 C1105 1.433 . S
C1113 N1115 1.384 . S
N1114 C1110 1.427 . S
N1114 C1111 1.384 . S
N1115 C1107 1.427 . S
N1115 C1113 1.384 . S
H1116 C1122 0.930 . S
H1117 C1126 0.930 . S
H1118 C1131 0.929 . S
H1119 C1129 0.929 1_554 S
H1120 C1124 0.929 . S
H1121 C1130 0.929 . S
C1122 H1116 0.930 . S
C1122 C1123 1.367 . S
C1122 C1130 1.378 . S
C1123 C1122 1.367 . S
C1123 C1131 1.433 . S
C1124 H1120 0.929 . S
C1124 C1126 1.378 . S
C1124 C1128 1.350 . S
C1125 C1128 1.463 . S
C1125 C1130 1.350 . S
C1125 N1133 1.427 . S
C1126 H1117 0.930 . S
C1126 C1124 1.378 . S
C1126 C1127 1.367 . S
C1127 C1126 1.367 . S
C1127 C1129 1.433 . S
C1128 C1124 1.350 . S
C1128 C1125 1.463 . S
C1128 N1132 1.427 . S
C1129 H1119 0.929 1_556 S
C1129 C1127 1.433 . S
C1129 N1132 1.384 . S
C1130 H1121 0.929 . S
C1130 C1122 1.378 . S
C1130 C1125 1.350 . S
C1131 H1118 0.929 . S
C1131 C1123 1.433 . S
C1131 N1133 1.384 . S
N1132 C1128 1.427 . S
N1132 C1129 1.384 . S
N1133 C1125 1.427 . S
N1133 C1131 1.384 . S
H1134 C1140 0.930 . S
H1135 C1144 0.930 . S
H1136 C1149 0.929 . S
H1137 C1147 0.929 . S
H1138 C1142 0.929 . S
H1139 C1148 0.929 . S
C1140 H1134 0.930 . S
C1140 C1141 1.367 . S
C1140 C1148 1.378 . S
C1141 C1140 1.367 . S
C1141 C1149 1.433 . S
C1142 H1138 0.929 . S
C1142 C1144 1.378 . S
C1142 C1146 1.350 . S
C1143 C1146 1.463 . S
C1143 C1148 1.350 . S
C1143 N1151 1.427 . S
C1144 H1135 0.930 . S
C1144 C1142 1.378 . S
C1144 C1145 1.367 . S
C1145 C1144 1.367 . S
C1145 C1147 1.433 . S
C1146 C1142 1.350 . S
C1146 C1143 1.463 . S
C1146 N1150 1.427 . S
C1147 H1137 0.929 . S
C1147 C1145 1.433 . S
C1147 N1150 1.384 . S
C1148 H1139 0.929 . S
C1148 C1140 1.378 . S
C1148 C1143 1.350 . S
C1149 H1136 0.929 . S
C1149 C1141 1.433 . S
C1149 N1151 1.384 . S
N1150 C1146 1.427 . S
N1150 C1147 1.384 . S
N1151 C1143 1.427 . S
N1151 C1149 1.384 . S
H1152 C1158 0.930 . S
H1153 C1162 0.930 . S
H1154 C1167 0.929 . S
H1155 C1165 0.929 . S
H1156 C1160 0.929 . S
H1157 C1166 0.929 . S
C1158 H1152 0.930 . S
C1158 C1159 1.367 . S
C1158 C1166 1.378 . S
C1159 C1158 1.367 . S
C1159 C1167 1.433 . S
C1160 H1156 0.929 . S
C1160 C1162 1.378 . S
C1160 C1164 1.350 1_554 S
C1161 C1164 1.463 . S
C1161 C1166 1.350 . S
C1161 N1169 1.427 . S
C1162 H1153 0.930 . S
C1162 C1160 1.378 . S
C1162 C1163 1.367 1_554 S
C1163 C1162 1.367 1_556 S
C1163 C1165 1.433 . S
C1164 C1160 1.350 1_556 S
C1164 C1161 1.463 . S
C1164 N1168 1.427 . S
C1165 H1155 0.929 . S
C1165 C1163 1.433 . S
C1165 N1168 1.384 . S
C1166 H1157 0.929 . S
C1166 C1158 1.378 . S
C1166 C1161 1.350 . S
C1167 H1154 0.929 . S
C1167 C1159 1.433 . S
C1167 N1169 1.384 . S
N1168 C1164 1.427 . S
N1168 C1165 1.384 . S
N1169 C1161 1.427 . S
N1169 C1167 1.384 . S
H1170 C1176 0.930 . S
H1171 C1180 0.930 . S
H1172 C1185 0.929 . S
H1173 C1183 0.929 . S
H1174 C1178 0.929 . S
H1175 C1184 0.929 . S
C1176 H1170 0.930 . S
C1176 C1177 1.367 . S
C1176 C1184 1.378 . S
C1177 C1176 1.367 . S
C1177 C1185 1.433 . S
C1178 H1174 0.929 . S
C1178 C1180 1.378 . S
C1178 C1182 1.350 . S
C1179 C1182 1.463 . S
C1179 C1184 1.350 . S
C1179 N1187 1.427 . S
C1180 H1171 0.930 . S
C1180 C1178 1.378 . S
C1180 C1181 1.367 . S
C1181 C1180 1.367 . S
C1181 C1183 1.433 . S
C1182 C1178 1.350 . S
C1182 C1179 1.463 . S
C1182 N1186 1.427 . S
C1183 H1173 0.929 . S
C1183 C1181 1.433 . S
C1183 N1186 1.384 . S
C1184 H1175 0.929 . S
C1184 C1176 1.378 . S
C1184 C1179 1.350 . S
C1185 H1172 0.929 . S
C1185 C1177 1.433 . S
C1185 N1187 1.384 . S
N1186 C1182 1.427 . S
N1186 C1183 1.384 . S
N1187 C1179 1.427 . S
N1187 C1185 1.384 . S
H1188 C1194 0.930 . S
H1189 C1198 0.930 . S
H1190 C1203 0.929 . S
H1191 C1201 0.929 1_554 S
H1192 C1196 0.929 . S
H1193 C1202 0.929 . S
C1194 H1188 0.930 . S
C1194 C1195 1.367 . S
C1194 C1202 1.378 . S
C1195 C1194 1.367 . S
C1195 C1203 1.433 . S
C1196 H1192 0.929 . S
C1196 C1198 1.378 . S
C1196 C1200 1.350 . S
C1197 C1200 1.463 . S
C1197 C1202 1.350 . S
C1197 N1205 1.427 . S
C1198 H1189 0.930 . S
C1198 C1196 1.378 . S
C1198 C1199 1.367 . S
C1199 C1198 1.367 . S
C1199 C1201 1.433 . S
C1200 C1196 1.350 . S
C1200 C1197 1.463 . S
C1200 N1204 1.427 . S
C1201 H1191 0.929 1_556 S
C1201 C1199 1.433 . S
C1201 N1204 1.384 . S
C1202 H1193 0.929 . S
C1202 C1194 1.378 . S
C1202 C1197 1.350 . S
C1203 H1190 0.929 . S
C1203 C1195 1.433 . S
C1203 N1205 1.384 . S
N1204 C1200 1.427 . S
N1204 C1201 1.384 . S
N1205 C1197 1.427 . S
N1205 C1203 1.384 . S
H1206 C1212 0.930 . S
H1207 C1216 0.930 . S
H1208 C1221 0.929 . S
H1209 C1219 0.929 . S
H1210 C1214 0.929 . S
H1211 C1220 0.929 . S
C1212 H1206 0.930 . S
C1212 C1213 1.367 . S
C1212 C1220 1.378 . S
C1213 C1212 1.367 . S
C1213 C1221 1.433 . S
C1214 H1210 0.929 . S
C1214 C1216 1.378 . S
C1214 C1218 1.350 . S
C1215 C1218 1.463 . S
C1215 C1220 1.350 . S
C1215 N1223 1.427 . S
C1216 H1207 0.930 . S
C1216 C1214 1.378 . S
C1216 C1217 1.367 . S
C1217 C1216 1.367 . S
C1217 C1219 1.433 . S
C1218 C1214 1.350 . S
C1218 C1215 1.463 . S
C1218 N1222 1.427 . S
C1219 H1209 0.929 . S
C1219 C1217 1.433 . S
C1219 N1222 1.384 . S
C1220 H1211 0.929 . S
C1220 C1212 1.378 . S
C1220 C1215 1.350 . S
C1221 H1208 0.929 . S
C1221 C1213 1.433 . S
C1221 N1223 1.384 . S
N1222 C1218 1.427 . S
N1222 C1219 1.384 . S
N1223 C1215 1.427 . S
N1223 C1221 1.384 . S
H1224 C1230 0.930 . S
H1225 C1234 0.930 1_556 S
H1226 C1239 0.929 . S
H1227 C1237 0.929 . S
H1228 C1232 0.929 . S
H1229 C1238 0.929 . S
C1230 H1224 0.930 . S
C1230 C1231 1.367 . S
C1230 C1238 1.378 . S
C1231 C1230 1.367 . S
C1231 C1239 1.433 . S
C1232 H1228 0.929 . S
C1232 C1234 1.378 . S
C1232 C1236 1.350 . S
C1233 C1236 1.463 . S
C1233 C1238 1.350 . S
C1233 N1241 1.427 . S
C1234 H1225 0.930 1_554 S
C1234 C1232 1.378 . S
C1234 C1235 1.367 . S
C1235 C1234 1.367 . S
C1235 C1237 1.433 . S
C1236 C1232 1.350 . S
C1236 C1233 1.463 . S
C1236 N1240 1.427 . S
C1237 H1227 0.929 . S
C1237 C1235 1.433 . S
C1237 N1240 1.384 . S
C1238 H1229 0.929 . S
C1238 C1230 1.378 . S
C1238 C1233 1.350 . S
C1239 H1226 0.929 . S
C1239 C1231 1.433 . S
C1239 N1241 1.384 . S
N1240 C1236 1.427 . S
N1240 C1237 1.384 . S
N1241 C1233 1.427 . S
N1241 C1239 1.384 . S
H1242 C1248 0.930 . S
H1243 C1252 0.930 . S
H1244 C1257 0.929 . S
H1245 C1255 0.929 . S
H1246 C1250 0.929 . S
H1247 C1256 0.929 . S
C1248 H1242 0.930 . S
C1248 C1249 1.367 . S
C1248 C1256 1.378 . S
C1249 C1248 1.367 . S
C1249 C1257 1.433 . S
C1250 H1246 0.929 . S
C1250 C1252 1.378 . S
C1250 C1254 1.350 . S
C1251 C1254 1.463 . S
C1251 C1256 1.350 . S
C1251 N1259 1.427 . S
C1252 H1243 0.930 . S
C1252 C1250 1.378 . S
C1252 C1253 1.367 . S
C1253 C1252 1.367 . S
C1253 C1255 1.433 . S
C1254 C1250 1.350 . S
C1254 C1251 1.463 . S
C1254 N1258 1.427 . S
C1255 H1245 0.929 . S
C1255 C1253 1.433 . S
C1255 N1258 1.384 . S
C1256 H1247 0.929 . S
C1256 C1248 1.378 . S
C1256 C1251 1.350 . S
C1257 H1244 0.929 . S
C1257 C1249 1.433 . S
C1257 N1259 1.384 . S
N1258 C1254 1.427 . S
N1258 C1255 1.384 . S
N1259 C1251 1.427 . S
N1259 C1257 1.384 . S
H1260 C1266 0.930 . S
H1261 C1270 0.930 . S
H1262 C1275 0.929 . S
H1263 C1273 0.929 . S
H1264 C1268 0.929 . S
H1265 C1274 0.929 . S
C1266 H1260 0.930 . S
C1266 C1267 1.367 . S
C1266 C1274 1.378 . S
C1267 C1266 1.367 . S
C1267 C1275 1.433 . S
C1268 H1264 0.929 . S
C1268 C1270 1.378 . S
C1268 C1272 1.350 . S
C1269 C1272 1.463 . S
C1269 C1274 1.350 . S
C1269 N1277 1.427 . S
C1270 H1261 0.930 . S
C1270 C1268 1.378 . S
C1270 C1271 1.367 . S
C1271 C1270 1.367 . S
C1271 C1273 1.433 . S
C1272 C1268 1.350 . S
C1272 C1269 1.463 . S
C1272 N1276 1.427 . S
C1273 H1263 0.929 . S
C1273 C1271 1.433 . S
C1273 N1276 1.384 . S
C1274 H1265 0.929 . S
C1274 C1266 1.378 . S
C1274 C1269 1.350 . S
C1275 H1262 0.929 . S
C1275 C1267 1.433 . S
C1275 N1277 1.384 . S
N1276 C1272 1.427 . S
N1276 C1273 1.384 . S
N1277 C1269 1.427 . S
N1277 C1275 1.384 . S
H1278 C1284 0.930 . S
H1279 C1288 0.930 . S
H1280 C1293 0.929 . S
H1281 C1291 0.929 . S
H1282 C1286 0.929 . S
H1283 C1292 0.929 . S
C1284 H1278 0.930 . S
C1284 C1285 1.367 . S
C1284 C1292 1.378 1_655 S
C1285 C1284 1.367 . S
C1285 C1293 1.433 . S
C1286 H1282 0.929 . S
C1286 C1288 1.378 . S
C1286 C1290 1.350 . S
C1287 C1290 1.463 . S
C1287 C1292 1.350 . S
C1287 N1295 1.427 . S
C1288 H1279 0.930 . S
C1288 C1286 1.378 . S
C1288 C1289 1.367 . S
C1289 C1288 1.367 . S
C1289 C1291 1.433 . S
C1290 C1286 1.350 . S
C1290 C1287 1.463 . S
C1290 N1294 1.427 . S
C1291 H1281 0.929 . S
C1291 C1289 1.433 . S
C1291 N1294 1.384 . S
C1292 H1283 0.929 . S
C1292 C1284 1.378 1_455 S
C1292 C1287 1.350 . S
C1293 H1280 0.929 . S
C1293 C1285 1.433 . S
C1293 N1295 1.384 1_655 S
N1294 C1290 1.427 . S
N1294 C1291 1.384 . S
N1295 C1287 1.427 . S
N1295 C1293 1.384 1_455 S
H1296 C1302 0.930 . S
H1297 C1306 0.930 . S
H1298 C1311 0.929 . S
H1299 C1309 0.929 . S
H1300 C1304 0.929 . S
H1301 C1310 0.929 . S
C1302 H1296 0.930 . S
C1302 C1303 1.367 . S
C1302 C1310 1.378 . S
C1303 C1302 1.367 . S
C1303 C1311 1.433 . S
C1304 H1300 0.929 . S
C1304 C1306 1.378 . S
C1304 C1308 1.350 . S
C1305 C1308 1.463 . S
C1305 C1310 1.350 . S
C1305 N1313 1.427 . S
C1306 H1297 0.930 . S
C1306 C1304 1.378 . S
C1306 C1307 1.367 . S
C1307 C1306 1.367 . S
C1307 C1309 1.433 . S
C1308 C1304 1.350 . S
C1308 C1305 1.463 . S
C1308 N1312 1.427 . S
C1309 H1299 0.929 . S
C1309 C1307 1.433 . S
C1309 N1312 1.384 . S
C1310 H1301 0.929 . S
C1310 C1302 1.378 . S
C1310 C1305 1.350 . S
C1311 H1298 0.929 . S
C1311 C1303 1.433 . S
C1311 N1313 1.384 . S
N1312 C1308 1.427 . S
N1312 C1309 1.384 . S
N1313 C1305 1.427 . S
N1313 C1311 1.384 . S
H1314 C1320 0.930 . S
H1315 C1324 0.930 . S
H1316 C1329 0.929 . S
H1317 C1327 0.929 . S
H1318 C1322 0.929 . S
H1319 C1328 0.929 1_565 S
C1320 H1314 0.930 . S
C1320 C1321 1.367 . S
C1320 C1328 1.378 . S
C1321 C1320 1.367 . S
C1321 C1329 1.433 . S
C1322 H1318 0.929 . S
C1322 C1324 1.378 . S
C1322 C1326 1.350 . S
C1323 C1326 1.463 . S
C1323 C1328 1.350 1_565 S
C1323 N1331 1.414 1_565 S
C1324 H1315 0.930 . S
C1324 C1322 1.378 . S
C1324 C1325 1.367 . S
C1325 C1324 1.367 . S
C1325 C1327 1.433 . S
C1326 C1322 1.350 . S
C1326 C1323 1.463 . S
C1326 N1330 1.427 . S
C1327 H1317 0.929 . S
C1327 C1325 1.433 . S
C1327 N1330 1.384 . S
C1328 H1319 0.929 1_545 S
C1328 C1320 1.378 . S
C1328 C1323 1.350 1_545 S
C1329 H1316 0.929 . S
C1329 C1321 1.433 . S
C1329 N1331 1.413 . S
N1330 C1326 1.427 . S
N1330 C1327 1.384 . S
N1331 C1323 1.414 1_545 S
N1331 C1329 1.413 . S
H1332 C1338 0.930 . S
H1333 C1342 0.930 . S
H1334 C1347 0.929 . S
H1335 C1345 0.929 . S
H1336 C1340 0.929 . S
H1337 C1346 0.929 . S
C1338 H1332 0.930 . S
C1338 C1339 1.367 . S
C1338 C1346 1.378 . S
C1339 C1338 1.367 . S
C1339 C1347 1.433 . S
C1340 H1336 0.929 . S
C1340 C1342 1.378 . S
C1340 C1344 1.350 . S
C1341 C1344 1.463 . S
C1341 C1346 1.350 . S
C1341 N1349 1.427 . S
C1342 H1333 0.930 . S
C1342 C1340 1.378 . S
C1342 C1343 1.367 . S
C1343 C1342 1.367 . S
C1343 C1345 1.433 . S
C1344 C1340 1.350 . S
C1344 C1341 1.463 . S
C1344 N1348 1.427 . S
C1345 H1335 0.929 . S
C1345 C1343 1.433 . S
C1345 N1348 1.384 . S
C1346 H1337 0.929 . S
C1346 C1338 1.378 . S
C1346 C1341 1.350 . S
C1347 H1334 0.929 . S
C1347 C1339 1.433 . S
C1347 N1349 1.384 . S
N1348 C1344 1.427 . S
N1348 C1345 1.384 . S
N1349 C1341 1.427 . S
N1349 C1347 1.384 . S
H1350 C1356 0.930 . S
H1351 C1360 0.930 . S
H1352 C1365 0.929 . S
H1353 C1363 0.929 . S
H1354 C1358 0.929 . S
H1355 C1364 0.929 . S
C1356 H1350 0.930 . S
C1356 C1357 1.367 . S
C1356 C1364 1.378 . S
C1357 C1356 1.367 . S
C1357 C1365 1.433 . S
C1358 H1354 0.929 . S
C1358 C1360 1.378 . S
C1358 C1362 1.350 . S
C1359 C1362 1.463 . S
C1359 C1364 1.350 . S
C1359 N1367 1.427 . S
C1360 H1351 0.930 . S
C1360 C1358 1.378 . S
C1360 C1361 1.367 . S
C1361 C1360 1.367 . S
C1361 C1363 1.433 . S
C1362 C1358 1.350 . S
C1362 C1359 1.463 . S
C1362 N1366 1.427 . S
C1363 H1353 0.929 . S
C1363 C1361 1.433 . S
C1363 N1366 1.384 . S
C1364 H1355 0.929 . S
C1364 C1356 1.378 . S
C1364 C1359 1.350 . S
C1365 H1352 0.929 . S
C1365 C1357 1.433 . S
C1365 N1367 1.384 . S
N1366 C1362 1.427 . S
N1366 C1363 1.384 . S
N1367 C1359 1.427 . S
N1367 C1365 1.384 . S
H1368 C1374 0.930 . S
H1369 C1378 0.930 . S
H1370 C1383 0.929 . S
H1371 C1381 0.929 . S
H1372 C1376 0.929 . S
H1373 C1382 0.929 . S
C1374 H1368 0.930 . S
C1374 C1375 1.367 . S
C1374 C1382 1.378 . S
C1375 C1374 1.367 . S
C1375 C1383 1.433 . S
C1376 H1372 0.929 . S
C1376 C1378 1.378 . S
C1376 C1380 1.350 . S
C1377 C1380 1.463 . S
C1377 C1382 1.350 . S
C1377 N1385 1.427 . S
C1378 H1369 0.930 . S
C1378 C1376 1.378 . S
C1378 C1379 1.367 . S
C1379 C1378 1.367 . S
C1379 C1381 1.433 . S
C1380 C1376 1.350 . S
C1380 C1377 1.463 . S
C1380 N1384 1.427 . S
C1381 H1371 0.929 . S
C1381 C1379 1.433 . S
C1381 N1384 1.384 . S
C1382 H1373 0.929 . S
C1382 C1374 1.378 . S
C1382 C1377 1.350 . S
C1383 H1370 0.929 . S
C1383 C1375 1.433 . S
C1383 N1385 1.384 . S
N1384 C1380 1.427 . S
N1384 C1381 1.384 . S
N1385 C1377 1.427 . S
N1385 C1383 1.384 . S
H1386 C1392 0.930 . S
H1387 C1396 0.930 . S
H1388 C1401 0.929 . S
H1389 C1399 0.929 . S
H1390 C1394 0.929 . S
H1391 C1400 0.929 . S
C1392 H1386 0.930 . S
C1392 C1393 1.367 . S
C1392 C1400 1.378 . S
C1393 C1392 1.367 . S
C1393 C1401 1.433 . S
C1394 H1390 0.929 . S
C1394 C1396 1.378 . S
C1394 C1398 1.350 . S
C1395 C1398 1.463 . S
C1395 C1400 1.350 . S
C1395 N1403 1.427 . S
C1396 H1387 0.930 . S
C1396 C1394 1.378 . S
C1396 C1397 1.367 . S
C1397 C1396 1.367 . S
C1397 C1399 1.433 . S
C1398 C1394 1.350 . S
C1398 C1395 1.463 . S
C1398 N1402 1.427 . S
C1399 H1389 0.929 . S
C1399 C1397 1.433 . S
C1399 N1402 1.384 . S
C1400 H1391 0.929 . S
C1400 C1392 1.378 . S
C1400 C1395 1.350 . S
C1401 H1388 0.929 . S
C1401 C1393 1.433 . S
C1401 N1403 1.384 . S
N1402 C1398 1.427 . S
N1402 C1399 1.384 . S
N1403 C1395 1.427 . S
N1403 C1401 1.384 . S
H1404 C1410 0.930 . S
H1405 C1414 0.930 . S
H1406 C1419 0.929 . S
H1407 C1417 0.929 . S
H1408 C1412 0.929 . S
H1409 C1418 0.929 . S
C1410 H1404 0.930 . S
C1410 C1411 1.367 . S
C1410 C1418 1.378 . S
C1411 C1410 1.367 . S
C1411 C1419 1.433 . S
C1412 H1408 0.929 . S
C1412 C1414 1.378 . S
C1412 C1416 1.350 . S
C1413 C1416 1.463 . S
C1413 C1418 1.350 . S
C1413 N1421 1.427 . S
C1414 H1405 0.930 . S
C1414 C1412 1.378 . S
C1414 C1415 1.367 . S
C1415 C1414 1.367 . S
C1415 C1417 1.433 . S
C1416 C1412 1.350 . S
C1416 C1413 1.463 . S
C1416 N1420 1.427 . S
C1417 H1407 0.929 . S
C1417 C1415 1.433 . S
C1417 N1420 1.384 . S
C1418 H1409 0.929 . S
C1418 C1410 1.378 . S
C1418 C1413 1.350 . S
C1419 H1406 0.929 . S
C1419 C1411 1.433 . S
C1419 N1421 1.384 . S
N1420 C1416 1.427 . S
N1420 C1417 1.384 . S
N1421 C1413 1.427 . S
N1421 C1419 1.384 . S
H1422 C1428 0.930 . S
H1423 C1432 0.930 . S
H1424 C1437 0.929 . S
H1425 C1435 0.929 . S
H1426 C1430 0.929 . S
H1427 C1436 0.929 . S
C1428 H1422 0.930 . S
C1428 C1429 1.367 . S
C1428 C1436 1.378 . S
C1429 C1428 1.367 . S
C1429 C1437 1.433 . S
C1430 H1426 0.929 . S
C1430 C1432 1.378 . S
C1430 C1434 1.350 . S
C1431 C1434 1.463 . S
C1431 C1436 1.350 . S
C1431 N1439 1.427 . S
C1432 H1423 0.930 . S
C1432 C1430 1.378 . S
C1432 C1433 1.367 . S
C1433 C1432 1.367 . S
C1433 C1435 1.433 . S
C1434 C1430 1.350 . S
C1434 C1431 1.463 . S
C1434 N1438 1.427 . S
C1435 H1425 0.929 . S
C1435 C1433 1.433 . S
C1435 N1438 1.384 . S
C1436 H1427 0.929 . S
C1436 C1428 1.378 . S
C1436 C1431 1.350 . S
C1437 H1424 0.929 . S
C1437 C1429 1.433 . S
C1437 N1439 1.384 . S
N1438 C1434 1.427 . S
N1438 C1435 1.384 . S
N1439 C1431 1.427 . S
N1439 C1437 1.384 . S
H1440 C1446 0.930 . S
H1441 C1450 0.930 . S
H1442 C1455 0.929 . S
H1443 C1453 0.929 . S
H1444 C1448 0.929 . S
H1445 C1454 0.929 . S
C1446 H1440 0.930 . S
C1446 C1447 1.367 . S
C1446 C1454 1.378 1_545 S
C1447 C1446 1.367 . S
C1447 C1455 1.433 . S
C1448 H1444 0.929 . S
C1448 C1450 1.378 . S
C1448 C1452 1.350 . S
C1449 C1452 1.463 . S
C1449 C1454 1.350 . S
C1449 N1457 1.427 . S
C1450 H1441 0.930 . S
C1450 C1448 1.378 . S
C1450 C1451 1.367 . S
C1451 C1450 1.367 . S
C1451 C1453 1.433 . S
C1452 C1448 1.350 . S
C1452 C1449 1.463 . S
C1452 N1456 1.427 . S
C1453 H1443 0.929 . S
C1453 C1451 1.433 . S
C1453 N1456 1.384 . S
C1454 H1445 0.929 . S
C1454 C1446 1.378 1_565 S
C1454 C1449 1.350 . S
C1455 H1442 0.929 . S
C1455 C1447 1.433 . S
C1455 N1457 1.384 1_545 S
N1456 C1452 1.427 . S
N1456 C1453 1.384 . S
N1457 C1449 1.427 . S
N1457 C1455 1.384 1_565 S
H1458 C1464 0.930 . S
H1459 C1468 0.930 . S
H1460 C1473 0.929 . S
H1461 C1471 0.929 . S
H1462 C1466 0.929 . S
H1463 C1472 0.929 . S
C1464 H1458 0.930 . S
C1464 C1465 1.367 . S
C1464 C1472 1.378 1_655 S
C1465 C1464 1.367 . S
C1465 C1473 1.433 1_655 S
C1466 H1462 0.929 . S
C1466 C1468 1.378 . S
C1466 C1470 1.350 . S
C1467 C1470 1.463 . S
C1467 C1472 1.350 . S
C1467 N1475 1.427 . S
C1468 H1459 0.930 . S
C1468 C1466 1.378 . S
C1468 C1469 1.367 . S
C1469 C1468 1.367 . S
C1469 C1471 1.433 . S
C1470 C1466 1.350 . S
C1470 C1467 1.463 . S
C1470 N1474 1.427 . S
C1471 H1461 0.929 . S
C1471 C1469 1.433 . S
C1471 N1474 1.384 . S
C1472 H1463 0.929 . S
C1472 C1464 1.378 1_455 S
C1472 C1467 1.350 . S
C1473 H1460 0.929 . S
C1473 C1465 1.433 1_455 S
C1473 N1475 1.384 . S
N1474 C1470 1.427 . S
N1474 C1471 1.384 . S
N1475 C1467 1.427 . S
N1475 C1473 1.384 . S
H1476 C1482 0.930 . S
H1477 C1486 0.930 . S
H1478 C1491 0.929 . S
H1479 C1489 0.929 . S
H1480 C1484 0.929 . S
H1481 C1490 0.929 . S
C1482 H1476 0.930 . S
C1482 C1483 1.367 . S
C1482 C1490 1.378 . S
C1483 C1482 1.367 . S
C1483 C1491 1.433 . S
C1484 H1480 0.929 . S
C1484 C1486 1.378 . S
C1484 C1488 1.350 . S
C1485 C1488 1.463 . S
C1485 C1490 1.350 . S
C1485 N1493 1.427 . S
C1486 H1477 0.930 . S
C1486 C1484 1.378 . S
C1486 C1487 1.367 . S
C1487 C1486 1.367 . S
C1487 C1489 1.433 . S
C1488 C1484 1.350 . S
C1488 C1485 1.463 . S
C1488 N1492 1.427 . S
C1489 H1479 0.929 . S
C1489 C1487 1.433 . S
C1489 N1492 1.384 . S
C1490 H1481 0.929 . S
C1490 C1482 1.378 . S
C1490 C1485 1.350 . S
C1491 H1478 0.929 . S
C1491 C1483 1.433 . S
C1491 N1493 1.384 . S
N1492 C1488 1.427 . S
N1492 C1489 1.384 . S
N1493 C1485 1.427 . S
N1493 C1491 1.384 . S
H1494 C1500 0.930 . S
H1495 C1504 0.930 . S
H1496 C1509 0.929 . S
H1497 C1507 0.929 . S
H1498 C1502 0.929 . S
H1499 C1508 0.929 . S
C1500 H1494 0.930 . S
C1500 C1501 1.367 . S
C1500 C1508 1.378 . S
C1501 C1500 1.367 . S
C1501 C1509 1.433 . S
C1502 H1498 0.929 . S
C1502 C1504 1.378 . S
C1502 C1506 1.350 . S
C1503 C1506 1.463 . S
C1503 C1508 1.350 . S
C1503 N1511 1.427 . S
C1504 H1495 0.930 . S
C1504 C1502 1.378 . S
C1504 C1505 1.367 . S
C1505 C1504 1.367 . S
C1505 C1507 1.433 . S
C1506 C1502 1.350 . S
C1506 C1503 1.463 . S
C1506 N1510 1.427 . S
C1507 H1497 0.929 . S
C1507 C1505 1.433 . S
C1507 N1510 1.384 . S
C1508 H1499 0.929 . S
C1508 C1500 1.378 . S
C1508 C1503 1.350 . S
C1509 H1496 0.929 . S
C1509 C1501 1.433 . S
C1509 N1511 1.384 . S
N1510 C1506 1.427 . S
N1510 C1507 1.384 . S
N1511 C1503 1.427 . S
N1511 C1509 1.384 . S
H1512 C1518 0.930 . S
H1513 C1522 0.930 . S
H1514 C1527 0.929 . S
H1515 C1525 0.929 . S
H1516 C1520 0.929 . S
H1517 C1526 0.929 . S
C1518 H1512 0.930 . S
C1518 C1519 1.367 . S
C1518 C1526 1.378 . S
C1519 C1518 1.367 . S
C1519 C1527 1.433 . S
C1520 H1516 0.929 . S
C1520 C1522 1.378 . S
C1520 C1524 1.350 . S
C1521 C1524 1.463 . S
C1521 C1526 1.350 . S
C1521 N1529 1.427 . S
C1522 H1513 0.930 . S
C1522 C1520 1.378 . S
C1522 C1523 1.367 . S
C1523 C1522 1.367 . S
C1523 C1525 1.433 . S
C1524 C1520 1.350 . S
C1524 C1521 1.463 . S
C1524 N1528 1.427 . S
C1525 H1515 0.929 . S
C1525 C1523 1.433 . S
C1525 N1528 1.384 . S
C1526 H1517 0.929 . S
C1526 C1518 1.378 . S
C1526 C1521 1.350 . S
C1527 H1514 0.929 . S
C1527 C1519 1.433 . S
C1527 N1529 1.384 . S
N1528 C1524 1.427 . S
N1528 C1525 1.384 . S
N1529 C1521 1.427 . S
N1529 C1527 1.384 . S
H1530 C1536 0.930 . S
H1531 C1540 0.930 . S
H1532 C1545 0.929 . S
H1533 C1543 0.929 . S
H1534 C1538 0.929 . S
H1535 C1544 0.929 . S
C1536 H1530 0.930 . S
C1536 C1537 1.367 . S
C1536 C1544 1.378 . S
C1537 C1536 1.367 . S
C1537 C1545 1.433 . S
C1538 H1534 0.929 . S
C1538 C1540 1.378 . S
C1538 C1542 1.350 . S
C1539 C1542 1.463 . S
C1539 C1544 1.350 . S
C1539 N1547 1.427 . S
C1540 H1531 0.930 . S
C1540 C1538 1.378 . S
C1540 C1541 1.367 . S
C1541 C1540 1.367 . S
C1541 C1543 1.433 . S
C1542 C1538 1.350 . S
C1542 C1539 1.463 . S
C1542 N1546 1.427 . S
C1543 H1533 0.929 . S
C1543 C1541 1.433 . S
C1543 N1546 1.384 . S
C1544 H1535 0.929 . S
C1544 C1536 1.378 . S
C1544 C1539 1.350 . S
C1545 H1532 0.929 . S
C1545 C1537 1.433 . S
C1545 N1547 1.384 . S
N1546 C1542 1.427 . S
N1546 C1543 1.384 . S
N1547 C1539 1.427 . S
N1547 C1545 1.384 . S
H1548 C1554 0.930 . S
H1549 C1558 0.930 . S
H1550 C1563 0.929 . S
H1551 C1561 0.929 . S
H1552 C1556 0.929 . S
H1553 C1562 0.929 . S
C1554 H1548 0.930 . S
C1554 C1555 1.367 . S
C1554 C1562 1.378 1_565 S
C1555 C1554 1.367 . S
C1555 C1563 1.433 . S
C1556 H1552 0.929 . S
C1556 C1558 1.378 . S
C1556 C1560 1.350 . S
C1557 C1560 1.463 . S
C1557 C1562 1.350 . S
C1557 N1565 1.427 . S
C1558 H1549 0.930 . S
C1558 C1556 1.378 . S
C1558 C1559 1.367 . S
C1559 C1558 1.367 . S
C1559 C1561 1.433 . S
C1560 C1556 1.350 . S
C1560 C1557 1.463 . S
C1560 N1564 1.427 . S
C1561 H1551 0.929 . S
C1561 C1559 1.433 . S
C1561 N1564 1.384 . S
C1562 H1553 0.929 . S
C1562 C1554 1.378 1_545 S
C1562 C1557 1.350 . S
C1563 H1550 0.929 . S
C1563 C1555 1.433 . S
C1563 N1565 1.384 1_565 S
N1564 C1560 1.427 . S
N1564 C1561 1.384 . S
N1565 C1557 1.427 . S
N1565 C1563 1.384 1_545 S
H1566 C1572 0.930 . S
H1567 C1576 0.930 . S
H1568 C1581 0.929 . S
H1569 C1579 0.929 . S
H1570 C1574 0.929 . S
H1571 C1580 0.929 . S
C1572 H1566 0.930 . S
C1572 C1573 1.367 . S
C1572 C1580 1.378 1_455 S
C1573 C1572 1.367 . S
C1573 C1581 1.433 1_455 S
C1574 H1570 0.929 . S
C1574 C1576 1.378 . S
C1574 C1578 1.350 . S
C1575 C1578 1.463 . S
C1575 C1580 1.350 . S
C1575 N1583 1.427 . S
C1576 H1567 0.930 . S
C1576 C1574 1.378 . S
C1576 C1577 1.367 . S
C1577 C1576 1.367 . S
C1577 C1579 1.433 . S
C1578 C1574 1.350 . S
C1578 C1575 1.463 . S
C1578 N1582 1.427 . S
C1579 H1569 0.929 . S
C1579 C1577 1.433 . S
C1579 N1582 1.384 . S
C1580 H1571 0.929 . S
C1580 C1572 1.378 1_655 S
C1580 C1575 1.350 . S
C1581 H1568 0.929 . S
C1581 C1573 1.433 1_655 S
C1581 N1583 1.384 . S
N1582 C1578 1.427 . S
N1582 C1579 1.384 . S
N1583 C1575 1.427 . S
N1583 C1581 1.384 . S
H1584 C1590 0.930 . S
H1585 C1594 0.930 . S
H1586 C1599 0.929 . S
H1587 C1597 0.929 . S
H1588 C1592 0.929 . S
H1589 C1598 0.929 . S
C1590 H1584 0.930 . S
C1590 C1591 1.367 . S
C1590 C1598 1.378 . S
C1591 C1590 1.367 . S
C1591 C1599 1.433 . S
C1592 H1588 0.929 . S
C1592 C1594 1.378 . S
C1592 C1596 1.350 . S
C1593 C1596 1.463 . S
C1593 C1598 1.350 . S
C1593 N1601 1.427 . S
C1594 H1585 0.930 . S
C1594 C1592 1.378 . S
C1594 C1595 1.367 . S
C1595 C1594 1.367 . S
C1595 C1597 1.433 . S
C1596 C1592 1.350 . S
C1596 C1593 1.463 . S
C1596 N1600 1.427 . S
C1597 H1587 0.929 . S
C1597 C1595 1.433 . S
C1597 N1600 1.384 . S
C1598 H1589 0.929 . S
C1598 C1590 1.378 . S
C1598 C1593 1.350 . S
C1599 H1586 0.929 . S
C1599 C1591 1.433 . S
C1599 N1601 1.384 . S
N1600 C1596 1.427 . S
N1600 C1597 1.384 . S
N1601 C1593 1.427 . S
N1601 C1599 1.384 . S
H1602 C1608 0.930 . S
H1603 C1612 0.930 . S
H1604 C1617 0.929 . S
H1605 C1615 0.929 . S
H1606 C1610 0.929 . S
H1607 C1616 0.929 . S
C1608 H1602 0.930 . S
C1608 C1609 1.367 . S
C1608 C1616 1.378 1_455 S
C1609 C1608 1.367 . S
C1609 C1617 1.433 . S
C1610 H1606 0.929 . S
C1610 C1612 1.378 . S
C1610 C1614 1.350 . S
C1611 C1614 1.463 . S
C1611 C1616 1.350 . S
C1611 N1619 1.427 . S
C1612 H1603 0.930 . S
C1612 C1610 1.378 . S
C1612 C1613 1.367 . S
C1613 C1612 1.367 . S
C1613 C1615 1.433 . S
C1614 C1610 1.350 . S
C1614 C1611 1.463 . S
C1614 N1618 1.427 . S
C1615 H1605 0.929 . S
C1615 C1613 1.433 . S
C1615 N1618 1.384 . S
C1616 H1607 0.929 . S
C1616 C1608 1.378 1_655 S
C1616 C1611 1.350 . S
C1617 H1604 0.929 . S
C1617 C1609 1.433 . S
C1617 N1619 1.384 1_455 S
N1618 C1614 1.427 . S
N1618 C1615 1.384 . S
N1619 C1611 1.427 . S
N1619 C1617 1.384 1_655 S
H1620 C1626 0.930 . S
H1621 C1630 0.930 . S
H1622 C1635 0.929 . S
H1623 C1633 0.929 . S
H1624 C1628 0.929 . S
H1625 C1634 0.929 . S
C1626 H1620 0.930 . S
C1626 C1627 1.367 . S
C1626 C1634 1.378 . S
C1627 C1626 1.367 . S
C1627 C1635 1.433 . S
C1628 H1624 0.929 . S
C1628 C1630 1.378 . S
C1628 C1632 1.350 . S
C1629 C1632 1.463 . S
C1629 C1634 1.350 . S
C1629 N1637 1.427 . S
C1630 H1621 0.930 . S
C1630 C1628 1.378 . S
C1630 C1631 1.367 . S
C1631 C1630 1.367 . S
C1631 C1633 1.433 . S
C1632 C1628 1.350 . S
C1632 C1629 1.463 . S
C1632 N1636 1.427 . S
C1633 H1623 0.929 . S
C1633 C1631 1.433 . S
C1633 N1636 1.384 . S
C1634 H1625 0.929 . S
C1634 C1626 1.378 . S
C1634 C1629 1.350 . S
C1635 H1622 0.929 . S
C1635 C1627 1.433 . S
C1635 N1637 1.384 . S
N1636 C1632 1.427 . S
N1636 C1633 1.384 . S
N1637 C1629 1.427 . S
N1637 C1635 1.384 . S
H1638 C1644 0.930 . S
H1639 C1648 0.930 . S
H1640 C1653 0.929 . S
H1641 C1651 0.929 . S
H1642 C1646 0.929 . S
H1643 C1652 0.929 1_545 S
C1644 H1638 0.930 . S
C1644 C1645 1.367 . S
C1644 C1652 1.378 . S
C1645 C1644 1.367 . S
C1645 C1653 1.433 . S
C1646 H1642 0.929 . S
C1646 C1648 1.378 . S
C1646 C1650 1.350 . S
C1647 C1650 1.463 . S
C1647 C1652 1.350 1_545 S
C1647 N1655 1.432 . S
C1648 H1639 0.930 . S
C1648 C1646 1.378 . S
C1648 C1649 1.367 . S
C1649 C1648 1.367 . S
C1649 C1651 1.433 . S
C1650 C1646 1.350 . S
C1650 C1647 1.463 . S
C1650 N1654 1.427 . S
C1651 H1641 0.929 . S
C1651 C1649 1.433 . S
C1651 N1654 1.384 . S
C1652 H1643 0.929 1_565 S
C1652 C1644 1.378 . S
C1652 C1647 1.350 1_565 S
C1653 H1640 0.929 . S
C1653 C1645 1.433 . S
C1653 N1655 1.342 1_565 S
N1654 C1650 1.427 . S
N1654 C1651 1.384 . S
N1655 C1647 1.432 . S
N1655 C1653 1.342 1_545 S
H1656 C1662 0.930 . S
H1657 C1666 0.930 . S
H1658 C1671 0.929 . S
H1659 C1669 0.929 . S
H1660 C1664 0.929 . S
H1661 C1670 0.929 . S
C1662 H1656 0.930 . S
C1662 C1663 1.367 . S
C1662 C1670 1.378 . S
C1663 C1662 1.367 . S
C1663 C1671 1.433 . S
C1664 H1660 0.929 . S
C1664 C1666 1.378 . S
C1664 C1668 1.350 . S
C1665 C1668 1.463 . S
C1665 C1670 1.350 . S
C1665 N1673 1.427 . S
C1666 H1657 0.930 . S
C1666 C1664 1.378 . S
C1666 C1667 1.367 . S
C1667 C1666 1.367 . S
C1667 C1669 1.433 . S
C1668 C1664 1.350 . S
C1668 C1665 1.463 . S
C1668 N1672 1.427 . S
C1669 H1659 0.929 . S
C1669 C1667 1.433 . S
C1669 N1672 1.384 . S
C1670 H1661 0.929 . S
C1670 C1662 1.378 . S
C1670 C1665 1.350 . S
C1671 H1658 0.929 . S
C1671 C1663 1.433 . S
C1671 N1673 1.384 . S
N1672 C1668 1.427 . S
N1672 C1669 1.384 . S
N1673 C1665 1.427 . S
N1673 C1671 1.384 . S
H1674 C1680 0.930 . S
H1675 C1684 0.930 . S
H1676 C1689 0.929 . S
H1677 C1687 0.929 . S
H1678 C1682 0.929 . S
H1679 C1688 0.929 . S
C1680 H1674 0.930 . S
C1680 C1681 1.367 . S
C1680 C1688 1.378 . S
C1681 C1680 1.367 . S
C1681 C1689 1.433 . S
C1682 H1678 0.929 . S
C1682 C1684 1.378 . S
C1682 C1686 1.350 . S
C1683 C1686 1.463 . S
C1683 C1688 1.350 . S
C1683 N1691 1.427 . S
C1684 H1675 0.930 . S
C1684 C1682 1.378 . S
C1684 C1685 1.367 . S
C1685 C1684 1.367 . S
C1685 C1687 1.433 . S
C1686 C1682 1.350 . S
C1686 C1683 1.463 . S
C1686 N1690 1.427 . S
C1687 H1677 0.929 . S
C1687 C1685 1.433 . S
C1687 N1690 1.384 . S
C1688 H1679 0.929 . S
C1688 C1680 1.378 . S
C1688 C1683 1.350 . S
C1689 H1676 0.929 . S
C1689 C1681 1.433 . S
C1689 N1691 1.384 . S
N1690 C1686 1.427 . S
N1690 C1687 1.384 . S
N1691 C1683 1.427 . S
N1691 C1689 1.384 . S
H1692 C1698 0.930 . S
H1693 C1702 0.930 . S
H1694 C1707 0.929 . S
H1695 C1705 0.929 . S
H1696 C1700 0.929 . S
H1697 C1706 0.929 . S
C1698 H1692 0.930 . S
C1698 C1699 1.367 . S
C1698 C1706 1.378 . S
C1699 C1698 1.367 . S
C1699 C1707 1.433 . S
C1700 H1696 0.929 . S
C1700 C1702 1.378 . S
C1700 C1704 1.350 . S
C1701 C1704 1.463 . S
C1701 C1706 1.350 . S
C1701 N1709 1.427 . S
C1702 H1693 0.930 . S
C1702 C1700 1.378 . S
C1702 C1703 1.367 . S
C1703 C1702 1.367 . S
C1703 C1705 1.433 . S
C1704 C1700 1.350 . S
C1704 C1701 1.463 . S
C1704 N1708 1.427 . S
C1705 H1695 0.929 . S
C1705 C1703 1.433 . S
C1705 N1708 1.384 . S
C1706 H1697 0.929 . S
C1706 C1698 1.378 . S
C1706 C1701 1.350 . S
C1707 H1694 0.929 . S
C1707 C1699 1.433 . S
C1707 N1709 1.384 . S
N1708 C1704 1.427 . S
N1708 C1705 1.384 . S
N1709 C1701 1.427 . S
N1709 C1707 1.384 . S
H1710 C1716 0.930 . S
H1711 C1720 0.930 . S
H1712 C1725 0.929 . S
H1713 C1723 0.929 . S
H1714 C1718 0.929 . S
H1715 C1724 0.929 . S
C1716 H1710 0.930 . S
C1716 C1717 1.367 . S
C1716 C1724 1.378 . S
C1717 C1716 1.367 . S
C1717 C1725 1.433 . S
C1718 H1714 0.929 . S
C1718 C1720 1.378 . S
C1718 C1722 1.350 1_545 S
C1719 C1722 1.463 . S
C1719 C1724 1.350 . S
C1719 N1727 1.427 . S
C1720 H1711 0.930 . S
C1720 C1718 1.378 . S
C1720 C1721 1.367 1_545 S
C1721 C1720 1.367 1_565 S
C1721 C1723 1.433 . S
C1722 C1718 1.350 1_565 S
C1722 C1719 1.463 . S
C1722 N1726 1.427 . S
C1723 H1713 0.929 . S
C1723 C1721 1.433 . S
C1723 N1726 1.384 . S
C1724 H1715 0.929 . S
C1724 C1716 1.378 . S
C1724 C1719 1.350 . S
C1725 H1712 0.929 . S
C1725 C1717 1.433 . S
C1725 N1727 1.384 . S
N1726 C1722 1.427 . S
N1726 C1723 1.384 . S
N1727 C1719 1.427 . S
N1727 C1725 1.384 . S
H1728 C1734 0.930 . S
H1729 C1738 0.930 . S
H1730 C1743 0.929 . S
H1731 C1741 0.929 . S
H1732 C1736 0.929 . S
H1733 C1742 0.929 . S
C1734 H1728 0.930 . S
C1734 C1735 1.367 1_655 S
C1734 C1742 1.378 . S
C1735 C1734 1.367 1_455 S
C1735 C1743 1.433 . S
C1736 H1732 0.929 . S
C1736 C1738 1.378 . S
C1736 C1740 1.350 . S
C1737 C1740 1.463 . S
C1737 C1742 1.350 1_455 S
C1737 N1745 1.427 . S
C1738 H1729 0.930 . S
C1738 C1736 1.378 . S
C1738 C1739 1.367 . S
C1739 C1738 1.367 . S
C1739 C1741 1.433 1_455 S
C1740 C1736 1.350 . S
C1740 C1737 1.463 . S
C1740 N1744 1.427 1_455 S
C1741 H1731 0.929 . S
C1741 C1739 1.433 1_655 S
C1741 N1744 1.384 . S
C1742 H1733 0.929 . S
C1742 C1734 1.378 . S
C1742 C1737 1.350 1_655 S
C1743 H1730 0.929 . S
C1743 C1735 1.433 . S
C1743 N1745 1.384 . S
N1744 C1740 1.427 1_655 S
N1744 C1741 1.384 . S
N1745 C1737 1.427 . S
N1745 C1743 1.384 . S
H1746 C1752 0.930 . S
H1747 C1756 0.930 . S
H1748 C1761 0.929 . S
H1749 C1759 0.929 . S
H1750 C1754 0.929 . S
H1751 C1760 0.929 . S
C1752 H1746 0.930 . S
C1752 C1753 1.367 . S
C1752 C1760 1.378 . S
C1753 C1752 1.367 . S
C1753 C1761 1.433 . S
C1754 H1750 0.929 . S
C1754 C1756 1.378 . S
C1754 C1758 1.350 . S
C1755 C1758 1.463 . S
C1755 C1760 1.350 . S
C1755 N1763 1.427 . S
C1756 H1747 0.930 . S
C1756 C1754 1.378 . S
C1756 C1757 1.367 . S
C1757 C1756 1.367 . S
C1757 C1759 1.433 . S
C1758 C1754 1.350 . S
C1758 C1755 1.463 . S
C1758 N1762 1.427 . S
C1759 H1749 0.929 . S
C1759 C1757 1.433 . S
C1759 N1762 1.384 . S
C1760 H1751 0.929 . S
C1760 C1752 1.378 . S
C1760 C1755 1.350 . S
C1761 H1748 0.929 . S
C1761 C1753 1.433 . S
C1761 N1763 1.384 . S
N1762 C1758 1.427 . S
N1762 C1759 1.384 . S
N1763 C1755 1.427 . S
N1763 C1761 1.384 . S
H1764 C1770 0.930 . S
H1765 C1774 0.930 . S
H1766 C1779 0.929 . S
H1767 C1777 0.929 . S
H1768 C1772 0.929 . S
H1769 C1778 0.929 . S
C1770 H1764 0.930 . S
C1770 C1771 1.367 . S
C1770 C1778 1.378 . S
C1771 C1770 1.367 . S
C1771 C1779 1.433 1_655 S
C1772 H1768 0.929 . S
C1772 C1774 1.378 . S
C1772 C1776 1.350 1_455 S
C1773 C1776 1.463 . S
C1773 C1778 1.350 . S
C1773 N1781 1.427 1_655 S
C1774 H1765 0.930 . S
C1774 C1772 1.378 . S
C1774 C1775 1.367 1_455 S
C1775 C1774 1.367 1_655 S
C1775 C1777 1.433 . S
C1776 C1772 1.350 1_655 S
C1776 C1773 1.463 . S
C1776 N1780 1.427 . S
C1777 H1767 0.929 . S
C1777 C1775 1.433 . S
C1777 N1780 1.384 . S
C1778 H1769 0.929 . S
C1778 C1770 1.378 . S
C1778 C1773 1.350 . S
C1779 H1766 0.929 . S
C1779 C1771 1.433 1_455 S
C1779 N1781 1.384 . S
N1780 C1776 1.427 . S
N1780 C1777 1.384 . S
N1781 C1773 1.427 1_455 S
N1781 C1779 1.384 . S
H1782 C1788 0.930 . S
H1783 C1792 0.930 . S
H1784 C1797 0.929 . S
H1785 C1795 0.929 . S
H1786 C1790 0.929 . S
H1787 C1796 0.929 . S
C1788 H1782 0.930 . S
C1788 C1789 1.367 . S
C1788 C1796 1.378 . S
C1789 C1788 1.367 . S
C1789 C1797 1.433 . S
C1790 H1786 0.929 . S
C1790 C1792 1.378 . S
C1790 C1794 1.350 . S
C1791 C1794 1.463 . S
C1791 C1796 1.350 . S
C1791 N1799 1.427 . S
C1792 H1783 0.930 . S
C1792 C1790 1.378 . S
C1792 C1793 1.367 . S
C1793 C1792 1.367 . S
C1793 C1795 1.433 . S
C1794 C1790 1.350 . S
C1794 C1791 1.463 . S
C1794 N1798 1.427 . S
C1795 H1785 0.929 . S
C1795 C1793 1.433 . S
C1795 N1798 1.384 . S
C1796 H1787 0.929 . S
C1796 C1788 1.378 . S
C1796 C1791 1.350 . S
C1797 H1784 0.929 . S
C1797 C1789 1.433 . S
C1797 N1799 1.384 . S
N1798 C1794 1.427 . S
N1798 C1795 1.384 . S
N1799 C1791 1.427 . S
N1799 C1797 1.384 . S
H1800 C1806 0.930 . S
H1801 C1810 0.930 . S
H1802 C1815 0.944 . S
H1803 C1813 0.929 . S
H1804 C1808 0.929 . S
H1805 C1814 0.929 . S
C1806 H1800 0.930 . S
C1806 C1807 1.367 . S
C1806 C1814 1.378 . S
C1807 C1806 1.367 . S
C1807 C1815 1.433 . S
C1808 H1804 0.929 . S
C1808 C1810 1.378 . S
C1808 C1812 1.350 1_565 S
C1809 C1812 1.463 . S
C1809 C1814 1.350 . S
C1809 N1817 1.427 . S
C1810 H1801 0.930 . S
C1810 C1808 1.378 . S
C1810 C1811 1.367 1_565 S
C1811 C1810 1.367 1_545 S
C1811 C1813 1.433 . S
C1812 C1808 1.350 1_545 S
C1812 C1809 1.463 . S
C1812 N1816 1.427 . S
C1813 H1803 0.929 . S
C1813 C1811 1.433 . S
C1813 N1816 1.384 . S
C1814 H1805 0.929 . S
C1814 C1806 1.378 . S
C1814 C1809 1.350 . S
C1815 H1802 0.944 . S
C1815 C1807 1.433 . S
C1815 N1817 1.384 . S
N1816 C1812 1.427 . S
N1816 C1813 1.384 . S
N1817 C1809 1.427 . S
N1817 C1815 1.384 . S
H1818 C1824 0.930 . S
H1819 C1828 0.930 . S
H1820 C1833 0.929 . S
H1821 C1831 0.929 . S
H1822 C1826 0.929 . S
H1823 C1832 0.929 . S
C1824 H1818 0.930 . S
C1824 C1825 1.367 . S
C1824 C1832 1.378 . S
C1825 C1824 1.367 . S
C1825 C1833 1.433 . S
C1826 H1822 0.929 . S
C1826 C1828 1.378 . S
C1826 C1830 1.350 . S
C1827 C1830 1.463 . S
C1827 C1832 1.350 . S
C1827 N1835 1.427 . S
C1828 H1819 0.930 . S
C1828 C1826 1.378 . S
C1828 C1829 1.367 . S
C1829 C1828 1.367 . S
C1829 C1831 1.433 . S
C1830 C1826 1.350 . S
C1830 C1827 1.463 . S
C1830 N1834 1.427 . S
C1831 H1821 0.929 . S
C1831 C1829 1.433 . S
C1831 N1834 1.384 . S
C1832 H1823 0.929 . S
C1832 C1824 1.378 . S
C1832 C1827 1.350 . S
C1833 H1820 0.929 . S
C1833 C1825 1.433 . S
C1833 N1835 1.384 . S
N1834 C1830 1.427 . S
N1834 C1831 1.384 . S
N1835 C1827 1.427 . S
N1835 C1833 1.384 . S
H1836 C1842 0.930 . S
H1837 C1846 0.930 . S
H1838 C1851 0.929 . S
H1839 C1849 0.929 . S
H1840 C1844 0.929 . S
H1841 C1850 0.929 . S
C1842 H1836 0.930 . S
C1842 C1843 1.367 . S
C1842 C1850 1.378 . S
C1843 C1842 1.367 . S
C1843 C1851 1.433 . S
C1844 H1840 0.929 . S
C1844 C1846 1.378 . S
C1844 C1848 1.350 . S
C1845 C1848 1.463 . S
C1845 C1850 1.350 . S
C1845 N1853 1.427 . S
C1846 H1837 0.930 . S
C1846 C1844 1.378 . S
C1846 C1847 1.367 . S
C1847 C1846 1.367 . S
C1847 C1849 1.433 . S
C1848 C1844 1.350 . S
C1848 C1845 1.463 . S
C1848 N1852 1.427 . S
C1849 H1839 0.929 . S
C1849 C1847 1.433 . S
C1849 N1852 1.384 . S
C1850 H1841 0.929 . S
C1850 C1842 1.378 . S
C1850 C1845 1.350 . S
C1851 H1838 0.929 . S
C1851 C1843 1.433 . S
C1851 N1853 1.384 . S
N1852 C1848 1.427 . S
N1852 C1849 1.384 . S
N1853 C1845 1.427 . S
N1853 C1851 1.384 . S
H1854 C1860 0.930 . S
H1855 C1864 0.930 . S
H1856 C1869 0.929 . S
H1857 C1867 0.929 . S
H1858 C1862 0.929 . S
H1859 C1868 0.929 . S
C1860 H1854 0.930 . S
C1860 C1861 1.367 . S
C1860 C1868 1.378 . S
C1861 C1860 1.367 . S
C1861 C1869 1.433 . S
C1862 H1858 0.929 . S
C1862 C1864 1.378 . S
C1862 C1866 1.350 . S
C1863 C1866 1.463 . S
C1863 C1868 1.350 . S
C1863 N1871 1.427 . S
C1864 H1855 0.930 . S
C1864 C1862 1.378 . S
C1864 C1865 1.367 . S
C1865 C1864 1.367 . S
C1865 C1867 1.433 . S
C1866 C1862 1.350 . S
C1866 C1863 1.463 . S
C1866 N1870 1.427 . S
C1867 H1857 0.929 . S
C1867 C1865 1.433 . S
C1867 N1870 1.384 . S
C1868 H1859 0.929 . S
C1868 C1860 1.378 . S
C1868 C1863 1.350 . S
C1869 H1856 0.929 . S
C1869 C1861 1.433 . S
C1869 N1871 1.384 . S
N1870 C1866 1.427 . S
N1870 C1867 1.384 . S
N1871 C1863 1.427 . S
N1871 C1869 1.384 . S
H1872 C1878 0.930 . S
H1873 C1882 0.930 . S
H1874 C1887 0.929 . S
H1875 C1885 0.929 . S
H1876 C1880 0.929 . S
H1877 C1886 0.929 . S
C1878 H1872 0.930 . S
C1878 C1879 1.367 . S
C1878 C1886 1.378 . S
C1879 C1878 1.367 . S
C1879 C1887 1.433 . S
C1880 H1876 0.929 . S
C1880 C1882 1.378 . S
C1880 C1884 1.350 . S
C1881 C1884 1.463 . S
C1881 C1886 1.350 . S
C1881 N1889 1.427 . S
C1882 H1873 0.930 . S
C1882 C1880 1.378 . S
C1882 C1883 1.367 . S
C1883 C1882 1.367 . S
C1883 C1885 1.433 . S
C1884 C1880 1.350 . S
C1884 C1881 1.463 . S
C1884 N1888 1.427 . S
C1885 H1875 0.929 . S
C1885 C1883 1.433 . S
C1885 N1888 1.384 . S
C1886 H1877 0.929 . S
C1886 C1878 1.378 . S
C1886 C1881 1.350 . S
C1887 H1874 0.929 . S
C1887 C1879 1.433 . S
C1887 N1889 1.384 . S
N1888 C1884 1.427 . S
N1888 C1885 1.384 . S
N1889 C1881 1.427 . S
N1889 C1887 1.384 . S
H1890 C1896 0.930 . S
H1891 C1900 0.930 . S
H1892 C1905 0.929 . S
H1893 C1903 0.929 . S
H1894 C1898 0.929 . S
H1895 C1904 0.929 . S
C1896 H1890 0.930 . S
C1896 C1897 1.367 . S
C1896 C1904 1.378 . S
C1897 C1896 1.367 . S
C1897 C1905 1.433 . S
C1898 H1894 0.929 . S
C1898 C1900 1.378 . S
C1898 C1902 1.350 . S
C1899 C1902 1.463 . S
C1899 C1904 1.350 . S
C1899 N1907 1.427 . S
C1900 H1891 0.930 . S
C1900 C1898 1.378 . S
C1900 C1901 1.367 . S
C1901 C1900 1.367 . S
C1901 C1903 1.433 . S
C1902 C1898 1.350 . S
C1902 C1899 1.463 . S
C1902 N1906 1.427 . S
C1903 H1893 0.929 . S
C1903 C1901 1.433 . S
C1903 N1906 1.384 . S
C1904 H1895 0.929 . S
C1904 C1896 1.378 . S
C1904 C1899 1.350 . S
C1905 H1892 0.929 . S
C1905 C1897 1.433 . S
C1905 N1907 1.384 . S
N1906 C1902 1.427 . S
N1906 C1903 1.384 . S
N1907 C1899 1.427 . S
N1907 C1905 1.384 . S
H1908 C1914 0.930 . S
H1909 C1918 0.930 . S
H1910 C1923 0.929 . S
H1911 C1921 0.929 . S
H1912 C1916 0.929 . S
H1913 C1922 0.929 . S
C1914 H1908 0.930 . S
C1914 C1915 1.367 . S
C1914 C1922 1.378 . S
C1915 C1914 1.367 . S
C1915 C1923 1.433 . S
C1916 H1912 0.929 . S
C1916 C1918 1.378 . S
C1916 C1920 1.350 . S
C1917 C1920 1.463 . S
C1917 C1922 1.350 . S
C1917 N1925 1.427 . S
C1918 H1909 0.930 . S
C1918 C1916 1.378 . S
C1918 C1919 1.367 . S
C1919 C1918 1.367 . S
C1919 C1921 1.433 . S
C1920 C1916 1.350 . S
C1920 C1917 1.463 . S
C1920 N1924 1.427 . S
C1921 H1911 0.929 . S
C1921 C1919 1.433 . S
C1921 N1924 1.384 . S
C1922 H1913 0.929 . S
C1922 C1914 1.378 . S
C1922 C1917 1.350 . S
C1923 H1910 0.929 . S
C1923 C1915 1.433 . S
C1923 N1925 1.384 . S
N1924 C1920 1.427 . S
N1924 C1921 1.384 . S
N1925 C1917 1.427 . S
N1925 C1923 1.384 . S
H1926 C1932 0.930 . S
H1927 C1936 0.930 . S
H1928 C1941 0.929 . S
H1929 C1939 0.929 . S
H1930 C1934 0.929 . S
H1931 C1940 0.929 . S
C1932 H1926 0.930 . S
C1932 C1933 1.367 . S
C1932 C1940 1.378 . S
C1933 C1932 1.367 . S
C1933 C1941 1.433 . S
C1934 H1930 0.929 . S
C1934 C1936 1.378 . S
C1934 C1938 1.350 . S
C1935 C1938 1.463 . S
C1935 C1940 1.350 . S
C1935 N1943 1.427 . S
C1936 H1927 0.930 . S
C1936 C1934 1.378 . S
C1936 C1937 1.367 . S
C1937 C1936 1.367 . S
C1937 C1939 1.433 . S
C1938 C1934 1.350 . S
C1938 C1935 1.463 . S
C1938 N1942 1.427 . S
C1939 H1929 0.929 . S
C1939 C1937 1.433 . S
C1939 N1942 1.384 . S
C1940 H1931 0.929 . S
C1940 C1932 1.378 . S
C1940 C1935 1.350 . S
C1941 H1928 0.929 . S
C1941 C1933 1.433 . S
C1941 N1943 1.384 . S
N1942 C1938 1.427 . S
N1942 C1939 1.384 . S
N1943 C1935 1.427 . S
N1943 C1941 1.384 . S
H1944 C1950 0.930 . S
H1945 C1954 0.930 . S
H1946 C1959 0.929 . S
H1947 C1957 0.929 . S
H1948 C1952 0.929 . S
H1949 C1958 0.929 . S
C1950 H1944 0.930 . S
C1950 C1951 1.367 . S
C1950 C1958 1.378 . S
C1951 C1950 1.367 . S
C1951 C1959 1.433 . S
C1952 H1948 0.929 . S
C1952 C1954 1.378 . S
C1952 C1956 1.350 . S
C1953 C1956 1.463 . S
C1953 C1958 1.350 . S
C1953 N1961 1.427 . S
C1954 H1945 0.930 . S
C1954 C1952 1.378 . S
C1954 C1955 1.367 . S
C1955 C1954 1.367 . S
C1955 C1957 1.433 . S
C1956 C1952 1.350 . S
C1956 C1953 1.463 . S
C1956 N1960 1.427 . S
C1957 H1947 0.929 . S
C1957 C1955 1.433 . S
C1957 N1960 1.384 . S
C1958 H1949 0.929 . S
C1958 C1950 1.378 . S
C1958 C1953 1.350 . S
C1959 H1946 0.929 . S
C1959 C1951 1.433 . S
C1959 N1961 1.384 . S
N1960 C1956 1.427 . S
N1960 C1957 1.384 . S
N1961 C1953 1.427 . S
N1961 C1959 1.384 . S
H1962 C1968 0.930 . S
H1963 C1972 0.930 . S
H1964 C1977 0.929 . S
H1965 C1975 0.929 . S
H1966 C1970 0.929 . S
H1967 C1976 0.929 . S
C1968 H1962 0.930 . S
C1968 C1969 1.367 . S
C1968 C1976 1.378 . S
C1969 C1968 1.367 . S
C1969 C1977 1.433 . S
C1970 H1966 0.929 . S
C1970 C1972 1.378 . S
C1970 C1974 1.350 . S
C1971 C1974 1.463 . S
C1971 C1976 1.350 . S
C1971 N1979 1.427 . S
C1972 H1963 0.930 . S
C1972 C1970 1.378 . S
C1972 C1973 1.367 . S
C1973 C1972 1.367 . S
C1973 C1975 1.433 . S
C1974 C1970 1.350 . S
C1974 C1971 1.463 . S
C1974 N1978 1.427 . S
C1975 H1965 0.929 . S
C1975 C1973 1.433 . S
C1975 N1978 1.384 . S
C1976 H1967 0.929 . S
C1976 C1968 1.378 . S
C1976 C1971 1.350 . S
C1977 H1964 0.929 . S
C1977 C1969 1.433 . S
C1977 N1979 1.384 . S
N1978 C1974 1.427 . S
N1978 C1975 1.384 . S
N1979 C1971 1.427 . S
N1979 C1977 1.384 . S
H1980 C1986 0.930 . S
H1981 C1990 0.930 . S
H1982 C1995 0.929 . S
H1983 C1993 0.929 . S
H1984 C1988 0.929 . S
H1985 C1994 0.929 . S
C1986 H1980 0.930 . S
C1986 C1987 1.367 . S
C1986 C1994 1.378 . S
C1987 C1986 1.367 . S
C1987 C1995 1.433 . S
C1988 H1984 0.929 . S
C1988 C1990 1.378 . S
C1988 C1992 1.350 . S
C1989 C1992 1.463 . S
C1989 C1994 1.350 . S
C1989 N1997 1.427 . S
C1990 H1981 0.930 . S
C1990 C1988 1.378 . S
C1990 C1991 1.367 . S
C1991 C1990 1.367 . S
C1991 C1993 1.433 . S
C1992 C1988 1.350 . S
C1992 C1989 1.463 . S
C1992 N1996 1.427 . S
C1993 H1983 0.929 . S
C1993 C1991 1.433 . S
C1993 N1996 1.384 . S
C1994 H1985 0.929 . S
C1994 C1986 1.378 . S
C1994 C1989 1.350 . S
C1995 H1982 0.929 . S
C1995 C1987 1.433 . S
C1995 N1997 1.384 . S
N1996 C1992 1.427 . S
N1996 C1993 1.384 . S
N1997 C1989 1.427 . S
N1997 C1995 1.384 . S
H1998 C2004 0.930 . S
H1999 C2008 0.930 . S
H2000 C2013 0.929 . S
H2001 C2011 0.929 . S
H2002 C2006 0.929 . S
H2003 C2012 0.929 . S
C2004 H1998 0.930 . S
C2004 C2005 1.367 . S
C2004 C2012 1.378 . S
C2005 C2004 1.367 . S
C2005 C2013 1.433 . S
C2006 H2002 0.929 . S
C2006 C2008 1.378 . S
C2006 C2010 1.350 . S
C2007 C2010 1.463 . S
C2007 C2012 1.350 . S
C2007 N2015 1.427 . S
C2008 H1999 0.930 . S
C2008 C2006 1.378 . S
C2008 C2009 1.367 . S
C2009 C2008 1.367 . S
C2009 C2011 1.433 . S
C2010 C2006 1.350 . S
C2010 C2007 1.463 . S
C2010 N2014 1.427 . S
C2011 H2001 0.929 . S
C2011 C2009 1.433 . S
C2011 N2014 1.384 . S
C2012 H2003 0.929 . S
C2012 C2004 1.378 . S
C2012 C2007 1.350 . S
C2013 H2000 0.929 . S
C2013 C2005 1.433 . S
C2013 N2015 1.384 . S
N2014 C2010 1.427 . S
N2014 C2011 1.384 . S
N2015 C2007 1.427 . S
N2015 C2013 1.384 . S
H2016 C2022 0.930 . S
H2017 C2026 0.930 . S
H2018 C2031 0.929 . S
H2019 C2029 0.929 . S
H2020 C2024 0.929 . S
H2021 C2030 0.929 . S
C2022 H2016 0.930 . S
C2022 C2023 1.367 . S
C2022 C2030 1.378 . S
C2023 C2022 1.367 . S
C2023 C2031 1.433 . S
C2024 H2020 0.929 . S
C2024 C2026 1.378 . S
C2024 C2028 1.350 . S
C2025 C2028 1.463 . S
C2025 C2030 1.350 . S
C2025 N2033 1.427 . S
C2026 H2017 0.930 . S
C2026 C2024 1.378 . S
C2026 C2027 1.367 . S
C2027 C2026 1.367 . S
C2027 C2029 1.433 . S
C2028 C2024 1.350 . S
C2028 C2025 1.463 . S
C2028 N2032 1.427 . S
C2029 H2019 0.929 . S
C2029 C2027 1.433 . S
C2029 N2032 1.384 . S
C2030 H2021 0.929 . S
C2030 C2022 1.378 . S
C2030 C2025 1.350 . S
C2031 H2018 0.929 . S
C2031 C2023 1.433 . S
C2031 N2033 1.384 . S
N2032 C2028 1.427 . S
N2032 C2029 1.384 . S
N2033 C2025 1.427 . S
N2033 C2031 1.384 . S
C1069 C528 1.661 . S
C1073 C714 1.677 . S
C1087 C562 1.816 . S
C1091 C754 1.819 . S
C1105 C484 1.743 . S
C1109 C784 1.752 . S
C1123 C445 1.578 . S
C1127 C744 1.572 . S
C1145 C794 1.502 . S
C1141 C367 1.494 . S
C1159 C411 1.412 . S
C1163 C704 1.420 1_556 S
C1181 C733 1.702 . S
C1177 C450 1.675 . S
C1199 C773 1.801 . S
C1195 C372 1.791 . S
C1213 C406 1.739 . S
C1217 C799 1.759 . S
C1231 C523 1.567 . S
C1235 C759 1.564 . S
C1249 C567 1.460 . S
C1253 C813 1.478 . S
C1271 C719 1.452 . S
C1267 C489 1.413 . S
C1289 C834 1.679 . S
C1285 C60 1.664 . S
C1303 C94 1.812 . S
C1307 C874 1.817 . S
C1321 C16 1.751 . S
C1325 C904 1.762 . S
C1339 C679 1.569 . S
C1343 C864 1.564 . S
C1357 C601 1.494 . S
C1361 C914 1.503 . S
C1375 C645 1.410 . S
C1379 C824 1.427 . S
C1393 C684 1.672 . S
C1397 C853 1.700 . S
C1411 C606 1.789 . S
C1415 C893 1.798 . S
C1433 C919 1.763 . S
C1429 C640 1.744 . S
C1447 C55 1.574 . S
C1451 C879 1.571 . S
C1469 C933 1.480 . S
C1465 C99 1.464 . S
C1483 C21 1.412 . S
C1487 C839 1.447 . S
C1505 C954 1.683 . S
C1501 C294 1.670 . S
C1519 C328 1.817 . S
C1523 C994 1.821 . S
C1541 C1024 1.754 . S
C1537 C250 1.747 . S
C1559 C984 1.572 . S
C1555 C211 1.578 . S
C1577 C1034 1.500 . S
C1573 C133 1.490 . S
C1591 C177 1.411 . S
C1595 C944 1.427 . S
C1609 C216 1.668 . S
C1613 C973 1.697 . S
C1627 C138 1.791 . S
C1631 C1013 1.801 . S
C1649 C1039 1.763 . S
C1645 C172 1.745 . S
C1663 C289 1.572 . S
C1667 C999 1.567 . S
C1681 C333 1.463 . S
C1685 C1053 1.479 . S
C1699 C255 1.414 . S
C1703 C959 1.453 . S
C1717 C586 1.335 . S
C1721 C731 1.325 . S
C1739 C771 1.848 . S
C1735 C625 1.860 . S
C1753 C664 1.577 . S
C1757 C790 1.580 . S
C1771 C235 1.859 . S
C1775 C750 1.855 . S
C1789 C274 1.561 . S
C1793 C811 1.563 . S
C1811 C710 1.323 . S
C1807 C313 1.332 . S
C1825 C118 1.337 . S
C1829 C851 1.324 . S
C1843 C157 1.861 . S
C1847 C891 1.851 . S
C1861 C196 1.572 . S
C1865 C910 1.580 . S
C1879 C469 1.863 . S
C1883 C870 1.857 . S
C1901 C931 1.564 . S
C1897 C508 1.561 . S
C1915 C547 1.334 . S
C1919 C830 1.321 . S
C1933 C352 1.337 . S
C1937 C971 1.330 . S
C1951 C391 1.854 . S
C1955 C1011 1.845 . S
C1973 C1030 1.579 . S
C1969 C430 1.576 . S
C1987 C1 1.864 . S
C1991 C990 1.862 . S
C2005 C40 1.561 . S
C2009 C1051 1.562 . S
C2023 C79 1.335 . S
C2027 C950 1.327 . S
