# Generated by pormake.
# Topology pyr, (3,6)-cn, num edge types: 1
# Building blocks:
#     Node 0, Type 0, BuildingBlock: VETTIZ_charged_linker_0, # of connection points: 3
#     Node 1, Type 0, BuildingBlock: VETTIZ_charged_linker_0, # of connection points: 3
#     Node 2, Type 0, BuildingBlock: VETTIZ_charged_linker_0, # of connection points: 3
#     Node 3, Type 0, BuildingBlock: VETTIZ_charged_linker_0, # of connection points: 3
#     Node 4, Type 0, BuildingBlock: VETTIZ_charged_linker_0, # of connection points: 3
#     Node 5, Type 0, BuildingBlock: VETTIZ_charged_linker_0, # of connection points: 3
#     Node 6, Type 0, BuildingBlock: VETTIZ_charged_linker_0, # of connection points: 3
#     Node 7, Type 0, BuildingBlock: VETTIZ_charged_linker_0, # of connection points: 3
#     Node 8, Type 1, BuildingBlock: BETDAH_clean_sbu_0, # of connection points: 6
#     Node 9, Type 1, BuildingBlock: BETDAH_clean_sbu_0, # of connection points: 6
#     Node 10, Type 1, BuildingBlock: BETDAH_clean_sbu_0, # of connection points: 6
#     Node 11, Type 1, BuildingBlock: BETDAH_clean_sbu_0, # of connection points: 6
#     Edge 12, Type (0, 1), BuildingBlock: AJUNOK_clean_linker_0, # of connection points: 2
#     Edge 13, Type (0, 1), BuildingBlock: AJUNOK_clean_linker_0, # of connection points: 2
#     Edge 14, Type (0, 1), BuildingBlock: AJUNOK_clean_linker_0, # of connection points: 2
#     Edge 15, Type (0, 1), BuildingBlock: AJUNOK_clean_linker_0, # of connection points: 2
#     Edge 16, Type (0, 1), BuildingBlock: AJUNOK_clean_linker_0, # of connection points: 2
#     Edge 17, Type (0, 1), BuildingBlock: AJUNOK_clean_linker_0, # of connection points: 2
#     Edge 18, Type (0, 1), BuildingBlock: AJUNOK_clean_linker_0, # of connection points: 2
#     Edge 19, Type (0, 1), BuildingBlock: AJUNOK_clean_linker_0, # of connection points: 2
#     Edge 20, Type (0, 1), BuildingBlock: AJUNOK_clean_linker_0, # of connection points: 2
#     Edge 21, Type (0, 1), BuildingBlock: AJUNOK_clean_linker_0, # of connection points: 2
#     Edge 22, Type (0, 1), BuildingBlock: AJUNOK_clean_linker_0, # of connection points: 2
#     Edge 23, Type (0, 1), BuildingBlock: AJUNOK_clean_linker_0, # of connection points: 2
#     Edge 24, Type (0, 1), BuildingBlock: AJUNOK_clean_linker_0, # of connection points: 2
#     Edge 25, Type (0, 1), BuildingBlock: AJUNOK_clean_linker_0, # of connection points: 2
#     Edge 26, Type (0, 1), BuildingBlock: AJUNOK_clean_linker_0, # of connection points: 2
#     Edge 27, Type (0, 1), BuildingBlock: AJUNOK_clean_linker_0, # of connection points: 2
#     Edge 28, Type (0, 1), BuildingBlock: AJUNOK_clean_linker_0, # of connection points: 2
#     Edge 29, Type (0, 1), BuildingBlock: AJUNOK_clean_linker_0, # of connection points: 2
#     Edge 30, Type (0, 1), BuildingBlock: AJUNOK_clean_linker_0, # of connection points: 2
#     Edge 31, Type (0, 1), BuildingBlock: AJUNOK_clean_linker_0, # of connection points: 2
#     Edge 32, Type (0, 1), BuildingBlock: AJUNOK_clean_linker_0, # of connection points: 2
#     Edge 33, Type (0, 1), BuildingBlock: AJUNOK_clean_linker_0, # of connection points: 2
#     Edge 34, Type (0, 1), BuildingBlock: AJUNOK_clean_linker_0, # of connection points: 2
#     Edge 35, Type (0, 1), BuildingBlock: AJUNOK_clean_linker_0, # of connection points: 2
# Relax obj value: 0.134
# Max RMSD: 0.135
# Mean RMSD: 0.065
data_MOF--net-pyr--node1-BETDAH_clean_sbu_0--node2-VETTIZ_charged_linker_0--edge1-AJUNOK_clean_linker_0
_symmetry_space_group_name_H-M    P1
_symmetry_Int_Tables_number       1
_symmetry_cell_setting            triclinic
loop_
_symmetry_equiv_pos_as_xyz
'x, y, z'
_cell_length_a     36.131663
_cell_length_b     37.640909
_cell_length_c     33.697428
_cell_angle_alpha  90.362799
_cell_angle_beta   88.163094
_cell_angle_gamma 102.2876
loop_
_atom_site_label
_atom_site_type_symbol
_atom_site_fract_x
_atom_site_fract_y
_atom_site_fract_z
_atom_type_partial_charge
C0 C 0.33151 0.28917 0.39525 0.0
C1 C 0.3027 0.30537 0.41141 0.0
C2 C 0.29818 0.3387 0.39565 0.0
C3 C 0.34291 0.33341 0.34209 0.0
C4 C 0.35124 0.30358 0.36054 0.0
C5 C 0.3784 0.28658 0.3359 0.0
H6 H 0.44264 0.25077 0.1544 0.0
C7 C 0.35977 0.33552 0.30147 0.0
C8 C 0.38124 0.30866 0.29779 0.0
H9 H 0.46934 0.21056 0.26752 0.0
H10 H 0.4381 0.25312 0.30175 0.0
H11 H 0.45829 0.34044 0.18261 0.0
H12 H 0.35913 0.25346 0.17675 0.0
H13 H 0.34654 0.29365 0.16157 0.0
H14 H 0.38172 0.27616 0.13289 0.0
H15 H 0.44053 0.3202 0.13668 0.0
H16 H 0.42163 0.35623 0.15953 0.0
C17 C 0.41672 0.29288 0.35718 0.0
C18 C 0.35998 0.24592 0.32925 0.0
C19 C 0.3029 0.40471 0.20014 0.0
C20 C 0.30098 0.40254 0.15871 0.0
C21 C 0.324 0.38256 0.13755 0.0
C22 C 0.34785 0.36418 0.15776 0.0
C23 C 0.34765 0.36486 0.19957 0.0
C24 C 0.32559 0.38524 0.21989 0.0
C25 C 0.32534 0.38018 0.26402 0.0
C26 C 0.35111 0.35341 0.26712 0.0
C27 C 0.3645 0.3447 0.22939 0.0
C28 C 0.34328 0.41718 0.28287 0.0
C29 C 0.28385 0.36412 0.27896 0.0
C30 C 0.44227 0.25171 0.18654 0.0
C31 C 0.45814 0.22722 0.20847 0.0
C32 C 0.45696 0.22895 0.25019 0.0
C33 C 0.43877 0.25352 0.26997 0.0
C34 C 0.42068 0.27595 0.24788 0.0
C35 C 0.4238 0.27599 0.20692 0.0
C36 C 0.40308 0.30247 0.18887 0.0
C37 C 0.38758 0.31846 0.22588 0.0
C38 C 0.39706 0.30177 0.26017 0.0
C39 C 0.43219 0.33139 0.16539 0.0
C40 C 0.37104 0.28062 0.1634 0.0
H41 H 0.31271 0.37753 0.34939 0.0
H42 H 0.33574 0.2636 0.40672 0.0
H43 H 0.33025 0.24295 0.31982 0.0
H44 H 0.37454 0.23288 0.306 0.0
H45 H 0.35958 0.22998 0.35693 0.0
H46 H 0.41884 0.31422 0.3805 0.0
H47 H 0.42069 0.26768 0.37187 0.0
H48 H 0.44115 0.30277 0.33641 0.0
H49 H 0.28458 0.41883 0.21727 0.0
H50 H 0.32268 0.38036 0.10554 0.0
H51 H 0.36436 0.34898 0.1402 0.0
H52 H 0.36883 0.43098 0.26527 0.0
H53 H 0.32292 0.43554 0.2839 0.0
H54 H 0.35316 0.41427 0.31315 0.0
H55 H 0.26393 0.35668 0.2543 0.0
H56 H 0.28136 0.3384 0.29562 0.0
H57 H 0.27242 0.38377 0.29791 0.0
H58 H 0.2768 0.35214 0.40817 0.0
C59 C 0.31851 0.35302 0.36122 0.0
C60 C 0.16045 0.90051 0.65646 0.0
C61 C 0.13261 0.913 0.67928 0.0
C62 C 0.13054 0.90763 0.72069 0.0
C63 C 0.18357 0.87747 0.71567 0.0
C64 C 0.18532 0.88276 0.67507 0.0
C65 C 0.21673 0.86837 0.65484 0.0
H66 H 0.36945 0.79371 0.67071 0.0
C67 C 0.21381 0.85839 0.72548 0.0
C68 C 0.23298 0.85259 0.68986 0.0
H69 H 0.32579 0.82893 0.56349 0.0
H70 H 0.27326 0.84471 0.60163 0.0
H71 H 0.35142 0.86073 0.73059 0.0
H72 H 0.29723 0.75059 0.70331 0.0
H73 H 0.28031 0.75847 0.75135 0.0
H74 H 0.33032 0.7604 0.7424 0.0
H75 H 0.37112 0.82129 0.73759 0.0
H76 H 0.34042 0.83471 0.77456 0.0
C77 C 0.24522 0.90099 0.63593 0.0
C78 C 0.19913 0.83857 0.62494 0.0
C79 C 0.24781 0.84422 0.86867 0.0
C80 C 0.276 0.82882 0.88553 0.0
C81 C 0.294 0.80603 0.86194 0.0
C82 C 0.28758 0.80234 0.82129 0.0
C83 C 0.26301 0.82167 0.80408 0.0
C84 C 0.24144 0.83986 0.82795 0.0
C85 C 0.21436 0.85604 0.80428 0.0
C86 C 0.22588 0.84719 0.76217 0.0
C87 C 0.25522 0.82808 0.76243 0.0
C88 C 0.2223 0.89756 0.81185 0.0
C89 C 0.1734 0.83593 0.81569 0.0
C90 C 0.34906 0.80575 0.65564 0.0
C91 C 0.35225 0.81156 0.61452 0.0
C92 C 0.3242 0.82527 0.5954 0.0
C93 C 0.2938 0.83416 0.61759 0.0
C94 C 0.29145 0.82878 0.65906 0.0
C95 C 0.31864 0.81433 0.67717 0.0
C96 C 0.31124 0.80881 0.72099 0.0
C97 C 0.27532 0.82323 0.72667 0.0
C98 C 0.26415 0.83527 0.69049 0.0
C99 C 0.34523 0.83245 0.74235 0.0
C100 C 0.30462 0.76754 0.73025 0.0
H101 H 0.1531 0.8865 0.77065 0.0
H102 H 0.16346 0.90519 0.62471 0.0
H103 H 0.17127 0.82285 0.63648 0.0
H104 H 0.21654 0.81806 0.61978 0.0
H105 H 0.19437 0.85068 0.59606 0.0
H106 H 0.24835 0.92539 0.65537 0.0
H107 H 0.23548 0.90833 0.60675 0.0
H108 H 0.27415 0.89613 0.63201 0.0
H109 H 0.23329 0.86176 0.88587 0.0
H110 H 0.31503 0.79307 0.87445 0.0
H111 H 0.30354 0.78619 0.80447 0.0
H112 H 0.25332 0.90917 0.81047 0.0
H113 H 0.21117 0.90368 0.84165 0.0
H114 H 0.20996 0.91254 0.78957 0.0
H115 H 0.17257 0.80781 0.82627 0.0
H116 H 0.15456 0.83234 0.79007 0.0
H117 H 0.16095 0.85035 0.83984 0.0
H118 H 0.10944 0.91734 0.7388 0.0
C119 C 0.15577 0.88969 0.73901 0.0
C120 C 0.62194 0.26591 0.95742 0.0
C121 C 0.58628 0.24566 0.94674 0.0
C122 C 0.567 0.25959 0.91662 0.0
C123 C 0.6185 0.31302 0.90873 0.0
C124 C 0.63716 0.29942 0.93851 0.0
C125 C 0.67358 0.32515 0.94844 0.0
H126 H 0.80365 0.48189 0.91662 0.0
C127 C 0.64219 0.34889 0.89554 0.0
C128 C 0.67441 0.35599 0.91916 0.0
H129 H 0.80198 0.39935 1.00566 0.0
H130 H 0.74323 0.36503 0.98162 0.0
H131 H 0.71069 0.48143 0.92556 0.0
H132 H 0.77575 0.42695 0.84536 0.0
H133 H 0.74031 0.4402 0.81813 0.0
H134 H 0.77621 0.47451 0.8406 0.0
H135 H 0.74477 0.50522 0.8897 0.0
H136 H 0.69677 0.48605 0.87651 0.0
C137 C 0.67005 0.33767 0.99213 0.0
C138 C 0.7065 0.30541 0.93994 0.0
C139 C 0.6017 0.42104 0.78131 0.0
C140 C 0.61953 0.45331 0.76119 0.0
C141 C 0.65534 0.47183 0.77378 0.0
C142 C 0.67298 0.45894 0.80576 0.0
C143 C 0.65503 0.42671 0.82554 0.0
C144 C 0.62011 0.40804 0.81295 0.0
C145 C 0.60622 0.37332 0.83647 0.0
C146 C 0.63819 0.37442 0.86536 0.0
C147 C 0.66665 0.40615 0.85909 0.0
C148 C 0.56861 0.37581 0.85837 0.0
C149 C 0.60272 0.34087 0.80747 0.0
C150 C 0.7904 0.45652 0.93101 0.0
C151 C 0.80816 0.44309 0.96277 0.0
C152 C 0.7897 0.40998 0.98061 0.0
C153 C 0.75524 0.3901 0.96672 0.0
C154 C 0.73824 0.40327 0.93456 0.0
C155 C 0.75556 0.43613 0.91738 0.0
C156 C 0.73286 0.44559 0.88348 0.0
C157 C 0.69902 0.41331 0.88365 0.0
C158 C 0.70261 0.38852 0.91359 0.0
C159 C 0.72067 0.48158 0.89397 0.0
C160 C 0.75742 0.44723 0.84475 0.0
H161 H 0.56665 0.30189 0.87498 0.0
H162 H 0.63718 0.25641 0.98092 0.0
H163 H 0.70185 0.28927 0.91208 0.0
H164 H 0.73419 0.32424 0.93521 0.0
H165 H 0.70871 0.2864 0.96441 0.0
H166 H 0.64001 0.33681 1.00129 0.0
H167 H 0.68123 0.32 1.0129 0.0
H168 H 0.68455 0.36631 0.9968 0.0
H169 H 0.57435 0.40596 0.77215 0.0
H170 H 0.66966 0.49663 0.75891 0.0
H171 H 0.70011 0.47458 0.8138 0.0
H172 H 0.57019 0.40358 0.87064 0.0
H173 H 0.54455 0.3699 0.83792 0.0
H174 H 0.56205 0.35734 0.88413 0.0
H175 H 0.62741 0.34505 0.78613 0.0
H176 H 0.60264 0.31494 0.82255 0.0
H177 H 0.57663 0.33775 0.79005 0.0
H178 H 0.53944 0.24464 0.90787 0.0
C179 C 0.58289 0.29289 0.89752 0.0
C180 C 0.9366 0.82984 0.41463 0.0
C181 C 0.92535 0.84646 0.44968 0.0
C182 C 0.89529 0.82621 0.4733 0.0
C183 C 0.88693 0.77572 0.42702 0.0
C184 C 0.91731 0.79427 0.40423 0.0
C185 C 0.92578 0.77141 0.36912 0.0
H186 H 0.88778 0.60614 0.27479 0.0
C187 C 0.87213 0.73994 0.40832 0.0
C188 C 0.89509 0.73663 0.37455 0.0
H189 H 0.97262 0.70128 0.24036 0.0
H190 H 0.95173 0.73508 0.29457 0.0
H191 H 0.88995 0.61391 0.37156 0.0
H192 H 0.82385 0.65171 0.28315 0.0
H193 H 0.79453 0.64213 0.32593 0.0
H194 H 0.81194 0.60588 0.30126 0.0
H195 H 0.85675 0.58435 0.34104 0.0
H196 H 0.84145 0.60308 0.38631 0.0
C197 C 0.96598 0.76429 0.37356 0.0
C198 C 0.92098 0.79162 0.3305 0.0
C199 C 0.75221 0.65936 0.46775 0.0
C200 C 0.73007 0.62536 0.4573 0.0
C201 C 0.74174 0.60707 0.42405 0.0
C202 C 0.77519 0.62218 0.40206 0.0
C203 C 0.79709 0.65624 0.41302 0.0
C204 C 0.78522 0.67421 0.44532 0.0
C205 C 0.81127 0.71035 0.45247 0.0
C206 C 0.8404 0.71169 0.41863 0.0
C207 C 0.83233 0.67979 0.3958 0.0
C208 C 0.82899 0.70896 0.49368 0.0
C209 C 0.78801 0.74026 0.44835 0.0
C210 C 0.9021 0.63421 0.27862 0.0
C211 C 0.93332 0.65004 0.25362 0.0
C212 C 0.95009 0.68718 0.26002 0.0
C213 C 0.93758 0.70715 0.29143 0.0
C214 C 0.90719 0.69044 0.31668 0.0
C215 C 0.88934 0.6548 0.3092 0.0
C216 C 0.85508 0.64235 0.33626 0.0
C217 C 0.85656 0.67544 0.36273 0.0
C218 C 0.88746 0.70376 0.35159 0.0
C219 C 0.86078 0.60901 0.36005 0.0
C220 C 0.81938 0.63482 0.31057 0.0
H221 H 0.85332 0.77831 0.48154 0.0
H222 H 0.95937 0.84419 0.3954 0.0
H223 H 0.89555 0.80385 0.33308 0.0
H224 H 0.91638 0.77338 0.30455 0.0
H225 H 0.94602 0.81389 0.32417 0.0
H226 H 0.96981 0.75585 0.40448 0.0
H227 H 0.98787 0.78926 0.36687 0.0
H228 H 0.97168 0.74218 0.35432 0.0
H229 H 0.74373 0.67444 0.49269 0.0
H230 H 0.72519 0.58085 0.41538 0.0
H231 H 0.78279 0.6067 0.37741 0.0
H232 H 0.82923 0.68059 0.50257 0.0
H233 H 0.81293 0.72061 0.51724 0.0
H234 H 0.85915 0.72321 0.4938 0.0
H235 H 0.76868 0.73421 0.42298 0.0
H236 H 0.8057 0.76742 0.44194 0.0
H237 H 0.77033 0.74196 0.47559 0.0
H238 H 0.88648 0.83716 0.50098 0.0
C239 C 0.87608 0.7915 0.46214 0.0
C240 C 0.73625 0.7363 0.94707 0.0
C241 C 0.7573 0.71286 0.9283 0.0
C242 C 0.74734 0.69966 0.8899 0.0
C243 C 0.70418 0.73996 0.88591 0.0
C244 C 0.70894 0.74881 0.92531 0.0
C245 C 0.68176 0.77219 0.93931 0.0
H246 H 0.57176 0.88883 0.8879 0.0
C247 C 0.6788 0.76084 0.86917 0.0
C248 C 0.66319 0.7782 0.9004 0.0
H249 H 0.59425 0.85746 1.00622 0.0
H250 H 0.62681 0.8121 0.97894 0.0
H251 H 0.55292 0.80356 0.85052 0.0
H252 H 0.63427 0.8992 0.84953 0.0
H253 H 0.66175 0.87388 0.82151 0.0
H254 H 0.61806 0.88229 0.80282 0.0
H255 H 0.55573 0.84611 0.82539 0.0
H256 H 0.57402 0.80976 0.80226 0.0
C257 C 0.65291 0.75014 0.96969 0.0
C258 C 0.70505 0.80802 0.95616 0.0
C259 C 0.7164 0.81578 0.73486 0.0
C260 C 0.70362 0.84311 0.7144 0.0
C261 C 0.66659 0.84812 0.72275 0.0
C262 C 0.64542 0.83056 0.7553 0.0
C263 C 0.66186 0.80854 0.77972 0.0
C264 C 0.69506 0.79877 0.76749 0.0
C265 C 0.7068 0.77288 0.79597 0.0
C266 C 0.67701 0.7723 0.8295 0.0
C267 C 0.65228 0.79506 0.82047 0.0
C268 C 0.70406 0.73567 0.77505 0.0
C269 C 0.74742 0.78916 0.80969 0.0
C270 C 0.58348 0.87194 0.90789 0.0
C271 C 0.58064 0.87666 0.94908 0.0
C272 C 0.5959 0.85406 0.97431 0.0
C273 C 0.61501 0.82804 0.95847 0.0
C274 C 0.61916 0.82488 0.91704 0.0
C275 C 0.60287 0.84618 0.89254 0.0
C276 C 0.60979 0.83928 0.84927 0.0
C277 C 0.63309 0.81011 0.85173 0.0
C278 C 0.63881 0.80205 0.89157 0.0
C279 C 0.5711 0.82402 0.83059 0.0
C280 C 0.63205 0.87525 0.82961 0.0
H281 H 0.71196 0.70118 0.84055 0.0
H282 H 0.74188 0.7458 0.97709 0.0
H283 H 0.72778 0.8207 0.93444 0.0
H284 H 0.6878 0.82835 0.96263 0.0
H285 H 0.71865 0.80292 0.98406 0.0
H286 H 0.64923 0.72037 0.96464 0.0
H287 H 0.6623 0.75578 1.0006 0.0
H288 H 0.62419 0.7556 0.96704 0.0
H289 H 0.74416 0.81038 0.72815 0.0
H290 H 0.65516 0.86751 0.70592 0.0
H291 H 0.61784 0.83586 0.76147 0.0
H292 H 0.70478 0.73817 0.74215 0.0
H293 H 0.72851 0.7234 0.78168 0.0
H294 H 0.67731 0.7163 0.7837 0.0
H295 H 0.74891 0.81644 0.82321 0.0
H296 H 0.75693 0.77175 0.83178 0.0
H297 H 0.76831 0.7919 0.78443 0.0
H298 H 0.76114 0.67976 0.87581 0.0
C299 C 0.72019 0.71264 0.86896 0.0
C300 C 0.88061 0.18897 0.47352 0.0
C301 C 0.9016 0.16969 0.44907 0.0
C302 C 0.90414 0.17585 0.40788 0.0
C303 C 0.86329 0.21896 0.41565 0.0
C304 C 0.86216 0.21383 0.45628 0.0
C305 C 0.83946 0.23747 0.47795 0.0
H306 H 0.73125 0.3631 0.46853 0.0
C307 C 0.84066 0.24612 0.40716 0.0
C308 C 0.8275 0.25786 0.44359 0.0
H309 H 0.75583 0.30772 0.57302 0.0
H310 H 0.7964 0.27643 0.53315 0.0
H311 H 0.71055 0.29995 0.42188 0.0
H312 H 0.81684 0.3758 0.42196 0.0
H313 H 0.80536 0.36567 0.37206 0.0
H314 H 0.77341 0.38458 0.40394 0.0
H315 H 0.72023 0.33778 0.38849 0.0
H316 H 0.73017 0.29428 0.37474 0.0
C317 C 0.80513 0.21244 0.49941 0.0
C318 C 0.86607 0.26316 0.50587 0.0
C319 C 0.79899 0.26096 0.26743 0.0
C320 C 0.7735 0.28065 0.25243 0.0
C321 C 0.76387 0.30893 0.27538 0.0
C322 C 0.77606 0.31476 0.31436 0.0
C323 C 0.79787 0.29194 0.33049 0.0
C324 C 0.81071 0.2669 0.30656 0.0
C325 C 0.83394 0.24532 0.32893 0.0
C326 C 0.82975 0.25926 0.37091 0.0
C327 C 0.8084 0.2863 0.37155 0.0
C328 C 0.81551 0.20437 0.32516 0.0
C329 C 0.8755 0.2556 0.31272 0.0
C330 C 0.74637 0.34505 0.48298 0.0
C331 C 0.74138 0.33833 0.52383 0.0
C332 C 0.75994 0.31352 0.54155 0.0
C333 C 0.78316 0.29535 0.51831 0.0
C334 C 0.78687 0.30158 0.47698 0.0
C335 C 0.76851 0.32613 0.46016 0.0
C336 C 0.77176 0.32669 0.41568 0.0
C337 C 0.79611 0.29906 0.4083 0.0
C338 C 0.8052 0.28466 0.44419 0.0
C339 C 0.73129 0.31428 0.3991 0.0
C340 C 0.79272 0.36522 0.4024 0.0
H341 H 0.88745 0.20382 0.35939 0.0
H342 H 0.87881 0.18489 0.50539 0.0
H343 H 0.89419 0.2735 0.49093 0.0
H344 H 0.85543 0.28763 0.51428 0.0
H345 H 0.87079 0.24873 0.5333 0.0
H346 H 0.79498 0.18717 0.48208 0.0
H347 H 0.81276 0.20426 0.52917 0.0
H348 H 0.78023 0.22502 0.50263 0.0
H349 H 0.80708 0.23926 0.25024 0.0
H350 H 0.74507 0.32506 0.26395 0.0
H351 H 0.76638 0.33551 0.3311 0.0
H352 H 0.7844 0.19971 0.33121 0.0
H353 H 0.82026 0.19425 0.29479 0.0
H354 H 0.8263 0.18713 0.34632 0.0
H355 H 0.88159 0.28228 0.29712 0.0
H356 H 0.89613 0.25893 0.33682 0.0
H357 H 0.88184 0.235 0.29128 0.0
H358 H 0.92046 0.1612 0.38882 0.0
C359 C 0.88503 0.20046 0.39099 0.0
C360 C 0.43865 0.68099 0.34979 0.0
C361 C 0.42362 0.64577 0.36521 0.0
C362 C 0.39128 0.62489 0.34724 0.0
C363 C 0.38885 0.67397 0.301 0.0
C364 C 0.42102 0.69439 0.31779 0.0
C365 C 0.4339 0.73073 0.29708 0.0
H366 H 0.40221 0.85266 0.15881 0.0
C367 C 0.37681 0.69596 0.2689 0.0
C368 C 0.40326 0.72952 0.26661 0.0
H369 H 0.49928 0.86319 0.23269 0.0
H370 H 0.47264 0.80441 0.26279 0.0
H371 H 0.34021 0.82126 0.22306 0.0
H372 H 0.39918 0.76852 0.13595 0.0
H373 H 0.3509 0.74738 0.135 0.0
H374 H 0.36527 0.79515 0.12411 0.0
H375 H 0.32568 0.81623 0.17261 0.0
H376 H 0.30759 0.78183 0.20966 0.0
C377 C 0.43381 0.76123 0.32795 0.0
C378 C 0.47317 0.73167 0.2769 0.0
C379 C 0.25751 0.64576 0.18906 0.0
C380 C 0.2381 0.66166 0.16035 0.0
C381 C 0.2519 0.69878 0.15119 0.0
C382 C 0.28496 0.71884 0.16779 0.0
C383 C 0.30471 0.70234 0.19499 0.0
C384 C 0.29043 0.66669 0.20621 0.0
C385 C 0.31373 0.65517 0.23851 0.0
C386 C 0.34505 0.68925 0.24339 0.0
C387 C 0.33968 0.71656 0.21723 0.0
C388 C 0.28806 0.64679 0.2764 0.0
C389 C 0.32977 0.62257 0.22301 0.0
C390 C 0.41757 0.84252 0.18176 0.0
C391 C 0.45275 0.86297 0.19361 0.0
C392 C 0.47211 0.84812 0.22299 0.0
C393 C 0.4566 0.81391 0.2404 0.0
C394 C 0.42144 0.79366 0.22799 0.0
C395 C 0.40279 0.80816 0.1989 0.0
C396 C 0.36659 0.78267 0.18792 0.0
C397 C 0.36653 0.75028 0.21477 0.0
C398 C 0.39847 0.75676 0.23878 0.0
C399 C 0.33315 0.80132 0.19849 0.0
C400 C 0.37025 0.77291 0.1434 0.0
H401 H 0.34944 0.62122 0.30356 0.0
H402 H 0.46396 0.69759 0.36194 0.0
H403 H 0.47503 0.70439 0.26517 0.0
H404 H 0.4788 0.74987 0.25084 0.0
H405 H 0.49623 0.74 0.29824 0.0
H406 H 0.40711 0.75545 0.34637 0.0
H407 H 0.45789 0.76344 0.34818 0.0
H408 H 0.43529 0.78801 0.31418 0.0
H409 H 0.24749 0.61766 0.19787 0.0
H410 H 0.2368 0.71283 0.13144 0.0
H411 H 0.29377 0.74669 0.15879 0.0
H412 H 0.26865 0.66603 0.27944 0.0
H413 H 0.27033 0.61881 0.27546 0.0
H414 H 0.30417 0.65016 0.30393 0.0
H415 H 0.34051 0.62731 0.19176 0.0
H416 H 0.35411 0.61825 0.23987 0.0
H417 H 0.30754 0.59713 0.22374 0.0
H418 H 0.37898 0.59779 0.35812 0.0
C419 C 0.37392 0.63868 0.31558 0.0
C420 C 0.09938 0.27346 0.71586 0.0
C421 C 0.11375 0.25498 0.68406 0.0
C422 C 0.14958 0.27056 0.66708 0.0
C423 C 0.15513 0.32304 0.71035 0.0
C424 C 0.12061 0.30763 0.72845 0.0
C425 C 0.11012 0.3323 0.7609 0.0
H426 H 0.15485 0.4957 0.85916 0.0
C427 C 0.16965 0.35913 0.72845 0.0
C428 C 0.14362 0.36503 0.75845 0.0
H429 H 0.05605 0.40988 0.88027 0.0
H430 H 0.07865 0.373 0.82926 0.0
H431 H 0.15351 0.49101 0.76408 0.0
H432 H 0.21554 0.44348 0.84905 0.0
H433 H 0.24673 0.46087 0.80927 0.0
H434 H 0.22528 0.49144 0.83909 0.0
H435 H 0.19172 0.51774 0.79105 0.0
H436 H 0.20016 0.49528 0.74527 0.0
C437 C 0.07258 0.34275 0.75022 0.0
C438 C 0.10806 0.31219 0.80097 0.0
C439 C 0.2925 0.43645 0.67145 0.0
C440 C 0.31372 0.4714 0.67985 0.0
C441 C 0.30056 0.4914 0.71087 0.0
C442 C 0.26698 0.47682 0.73291 0.0
C443 C 0.24602 0.4418 0.72393 0.0
C444 C 0.25913 0.42234 0.69364 0.0
C445 C 0.23359 0.38573 0.68781 0.0
C446 C 0.2027 0.38627 0.71938 0.0
C447 C 0.20994 0.41912 0.74057 0.0
C448 C 0.21823 0.38469 0.64521 0.0
C449 C 0.25649 0.35625 0.69647 0.0
C450 C 0.13779 0.46911 0.85268 0.0
C451 C 0.1032 0.45612 0.87365 0.0
C452 C 0.08273 0.42075 0.86473 0.0
C453 C 0.09582 0.3994 0.8349 0.0
C454 C 0.12999 0.41328 0.81355 0.0
C455 C 0.15041 0.44761 0.82298 0.0
C456 C 0.18601 0.45848 0.79755 0.0
C457 C 0.18393 0.4252 0.7713 0.0
C458 C 0.15094 0.39846 0.78048 0.0
C459 C 0.18311 0.49255 0.77328 0.0
C460 C 0.22038 0.46417 0.82494 0.0
H461 H 0.19693 0.31426 0.66503 0.0
H462 H 0.07203 0.26209 0.72976 0.0
H463 H 0.13226 0.2984 0.80315 0.0
H464 H 0.11002 0.3307 0.82668 0.0
H465 H 0.08143 0.29114 0.8041 0.0
H466 H 0.07321 0.35036 0.71832 0.0
H467 H 0.04816 0.3196 0.75555 0.0
H468 H 0.0673 0.36652 0.76697 0.0
H469 H 0.30182 0.42016 0.64809 0.0
H470 H 0.3159 0.51861 0.71768 0.0
H471 H 0.25849 0.4935 0.75598 0.0
H472 H 0.21395 0.41191 0.63628 0.0
H473 H 0.23833 0.37649 0.62314 0.0
H474 H 0.19009 0.36654 0.64246 0.0
H475 H 0.27841 0.36589 0.71882 0.0
H476 H 0.23874 0.3313 0.70972 0.0
H477 H 0.27126 0.34897 0.66918 0.0
H478 H 0.16167 0.25672 0.64327 0.0
C479 C 0.17015 0.30414 0.6799 0.0
Ho480 Ho 0.05444 0.05911 0.53584 0.0
Ho481 Ho 0.99327 1.03807 0.59826 0.0
C482 C 0.05061 0.11486 0.60994 0.0
C483 C 0.10957 0.08814 0.48792 0.0
C484 C 0.1354 0.12362 0.48213 0.0
C485 C 0.124 0.15631 0.49055 0.0
C486 C 0.15002 0.18955 0.4867 0.0
C487 C 0.18792 0.19032 0.47531 0.0
C488 C 0.1992 0.15747 0.46724 0.0
C489 C 0.17314 0.12443 0.4706 0.0
C490 C 0.06317 1.00614 0.58593 0.0
C491 C 0.99253 0.98739 0.52036 0.0
C492 C 0.9481 1.01386 0.65702 0.0
C493 C 0.90978 0.99036 0.65916 0.0
C494 C 0.90425 0.95632 0.67774 0.0
C495 C 0.86854 0.9331 0.67886 0.0
C496 C 0.83763 0.9437 0.66177 0.0
C497 C 0.84306 0.97763 0.64297 0.0
C498 C 0.8789 1.00073 0.64146 0.0
C499 C 0.97122 0.0692 0.53332 0.0
O500 O 0.06501 0.10966 0.57426 0.0
O501 O 0.02426 0.08957 0.62739 0.0
O502 O 0.11409 0.07181 0.52091 0.0
O503 O 0.07382 0.0852 0.47952 0.0
O504 O 0.06938 1.00549 0.54806 0.0
O505 O 0.05292 1.03492 0.59581 0.0
O506 O 0.9845 0.98805 0.559 0.0
O507 O 1.01516 1.01532 0.50227 0.0
O508 O 0.95113 1.04646 0.64209 0.0
O509 O 0.97526 0.99798 0.64441 0.0
O510 O 0.9502 1.0427 0.5532 0.0
O511 O 1.00251 0.07882 0.54991 0.0
H512 H 0.09516 0.15608 0.50021 0.0
H513 H 0.14065 0.2146 0.49261 0.0
H514 H 0.22804 0.15738 0.45742 0.0
H515 H 0.18252 0.09941 0.46434 0.0
H516 H 0.9276 0.94766 0.69142 0.0
H517 H 0.86482 0.9072 0.69398 0.0
H518 H 0.81955 0.98628 0.62964 0.0
H519 H 0.88232 1.02664 0.62647 0.0
Ho520 Ho 0.55916 0.06403 0.07729 0.0
Ho521 Ho 0.47665 1.04619 1.06433 0.0
C522 C 0.50447 0.10713 0.12651 0.0
C523 C 0.63015 0.09303 0.08508 0.0
C524 C 0.65294 0.1282 0.09691 0.0
C525 C 0.63802 0.15973 0.09737 0.0
C526 C 0.65848 0.19182 0.114 0.0
C527 C 0.69386 0.19252 0.13063 0.0
C528 C 0.70948 0.1614 0.12781 0.0
C529 C 0.68913 0.1295 0.11112 0.0
C530 C 0.52257 1.00156 0.11476 0.0
C531 C 0.53099 1.00105 1.01766 0.0
C532 C 0.40567 1.01858 1.05406 0.0
C533 C 0.38259 0.98275 1.045 0.0
C534 C 0.3979 0.95152 1.046 0.0
C535 C 0.3777 0.91872 1.03073 0.0
C536 C 0.34198 0.91686 1.01439 0.0
C537 C 0.32582 0.94769 1.01611 0.0
C538 C 0.34602 0.98039 1.0313 0.0
C539 C 0.51367 0.10928 1.02831 0.0
O540 O 0.5385 0.109 0.1101 0.0
O541 O 0.47602 0.08011 0.11857 0.0
O542 O 0.60867 0.07491 0.11329 0.0
O543 O 0.61287 0.09216 1.0515 0.0
O544 O 0.5564 1.00689 0.09892 0.0
O545 O 0.51032 1.0306 0.11211 0.0
O546 O 0.49711 0.99975 1.03422 0.0
O547 O 0.55937 1.02852 1.02425 0.0
O548 O 0.42918 1.03343 1.02557 0.0
O549 O 0.42098 1.02223 0.0888 0.0
O550 O 0.48001 0.10384 1.0444 0.0
O551 O 0.52546 0.07995 1.02983 0.0
H552 H 0.6101 0.15915 0.08624 0.0
H553 H 0.64603 0.21557 0.11534 0.0
H554 H 0.73647 0.161 0.14071 0.0
H555 H 0.70097 0.10535 0.11095 0.0
H556 H 0.42612 0.95295 1.05674 0.0
H557 H 0.39084 0.89539 1.02962 0.0
H558 H 0.29881 0.94739 1.00291 0.0
H559 H 0.33393 1.00435 1.03029 0.0
Ho560 Ho 0.5176 0.51668 0.5415 0.0
Ho561 Ho 0.52308 0.5819 0.58888 0.0
C562 C 0.55266 0.519 0.63008 0.0
C563 C 0.53134 0.45883 0.50832 0.0
C564 C 0.558 0.43606 0.51894 0.0
C565 C 0.58579 0.43096 0.49085 0.0
C566 C 0.61491 0.41439 0.50178 0.0
C567 C 0.6165 0.4023 0.54088 0.0
C568 C 0.58788 0.40578 0.56871 0.0
C569 C 0.55891 0.4229 0.55791 0.0
C570 C 0.45223 0.51958 0.58215 0.0
C571 C 0.48848 0.57998 0.49914 0.0
C572 C 0.51093 0.63974 0.62366 0.0
C573 C 0.4919 0.6687 0.61113 0.0
C574 C 0.45254 0.66431 0.61688 0.0
C575 C 0.43427 0.69124 0.6049 0.0
C576 C 0.45487 0.72336 0.58712 0.0
C577 C 0.49418 0.72778 0.58087 0.0
C578 C 0.51257 0.70065 0.59282 0.0
C579 C 0.58907 0.57804 0.55032 0.0
O580 O 0.55363 0.50662 0.59324 0.0
O581 O 0.5369 0.54694 0.63788 0.0
O582 O 0.50253 0.45847 0.53283 0.0
O583 O 0.54723 0.49161 0.49622 0.0
O584 O 0.45398 0.50853 0.54575 0.0
O585 O 0.4853 0.5282 0.59519 0.0
O586 O 0.49117 0.59501 0.53498 0.0
O587 O 0.50003 0.54937 0.49264 0.0
O588 O 0.54289 0.6383 0.60516 0.0
O589 O 0.4892 0.60752 0.62916 0.0
O590 O 0.58634 0.58885 0.58669 0.0
O591 O 0.55643 0.5702 0.53587 0.0
H592 H 0.58575 0.44102 0.46079 0.0
H593 H 0.63663 0.41147 0.47981 0.0
H594 H 0.58869 0.39646 0.59895 0.0
H595 H 0.53804 0.42682 0.58037 0.0
H596 H 0.43574 0.64018 0.63105 0.0
H597 H 0.40403 0.68744 0.61089 0.0
H598 H 0.51067 0.75228 0.56717 0.0
H599 H 0.54297 0.70481 0.58795 0.0
Ho600 Ho 0.02399 0.51677 0.08574 0.0
Ho601 Ho 1.01704 0.59144 1.04669 0.0
C602 C 0.09473 0.58851 0.08998 0.0
C603 C 0.0491 0.46074 0.10698 0.0
C604 C 0.08782 0.45385 0.11036 0.0
C605 C 0.10599 0.4402 0.07788 0.0
C606 C 0.14294 0.43477 0.08078 0.0
C607 C 0.16252 0.44293 0.11615 0.0
C608 C 0.14415 0.456 0.14877 0.0
C609 C 0.10726 0.46139 0.14593 0.0
C610 C 0.98685 0.56001 0.12915 0.0
C611 C 0.95141 0.51738 1.03295 0.0
C612 C 0.99151 0.65027 1.04175 0.0
C613 C 0.95916 0.66106 1.02337 0.0
C614 C 0.94211 0.68694 1.04255 0.0
C615 C 0.90904 0.69511 1.02809 0.0
C616 C 0.89248 0.67752 0.99412 0.0
C617 C 0.90992 0.65197 0.97457 0.0
C618 C 0.94284 0.64355 0.98927 0.0
C619 C 0.04564 0.54921 0.99211 0.0
O620 O 0.08201 0.55296 0.09511 0.0
O621 O 0.07458 0.60966 0.0731 0.0
O622 O 0.03894 0.48363 0.13239 0.0
O623 O 0.03821 0.46525 0.07105 0.0
O624 O 0.97692 0.52465 0.12908 0.0
O625 O 1.01619 0.56978 0.10723 0.0
O626 O 0.96081 0.55354 1.03294 0.0
O627 O 0.97274 0.49715 1.0493 0.0
O628 O 1.01872 0.64327 1.01816 0.0
O629 O 0.98205 0.62664 0.07056 0.0
O630 O 0.04018 0.58163 0.98477 0.0
O631 O 0.03578 0.54244 1.02805 0.0
H632 H 0.09174 0.43383 1.05012 0.0
H633 H 0.1563 0.42435 1.0553 0.0
H634 H 0.15809 0.46145 0.17682 0.0
H635 H 0.094 0.47148 0.17168 0.0
H636 H 0.95406 0.7004 0.06918 0.0
H637 H 0.89647 0.71526 1.04337 0.0
H638 H 0.89763 0.638 0.94836 0.0
H639 H 0.95514 0.62298 0.97446 0.0
C640 C 0.23449 0.2784 0.42535 0.0
C641 C 0.27234 0.28325 0.43706 0.0
C642 C 0.20637 0.24987 0.44056 0.0
C643 C 0.21515 0.22513 0.46787 0.0
H644 H 0.22707 0.29472 0.40171 0.0
H645 H 0.17834 0.24545 0.42844 0.0
S646 S 0.30759 0.2308 0.51484 0.0
N647 N 0.31545 0.26482 0.48279 0.0
N648 N 0.2625 0.21072 0.51106 0.0
C649 C 0.25185 0.23181 0.48283 0.0
C650 C 0.28047 0.26102 0.46753 0.0
C651 C 0.3317 0.85468 0.92601 0.0
C652 C 0.29214 0.84254 0.92406 0.0
C653 C 0.34789 0.87595 0.95764 0.0
C654 C 0.32518 0.88609 0.98849 0.0
H655 H 0.35026 0.85033 0.90141 0.0
H656 H 0.37814 0.88705 0.95607 0.0
S657 S 0.22113 0.85474 1.002 0.0
N658 N 0.23128 0.83703 0.95907 0.0
N659 N 0.26188 0.87765 1.01859 0.0
C660 C 0.286 0.87131 0.98893 0.0
C661 C 0.26944 0.84941 0.95668 0.0
C662 C 0.56923 0.48304 0.7332 0.0
C663 C 0.60151 0.46802 0.72702 0.0
C664 C 0.55387 0.49969 0.70195 0.0
C665 C 0.56961 0.50135 0.66291 0.0
H666 H 0.55623 0.48265 0.76266 0.0
H667 H 0.52924 0.51112 0.70839 0.0
S668 S 0.65433 0.46602 0.63106 0.0
N669 N 0.64887 0.4563 0.67892 0.0
N670 N 0.61962 0.48633 0.62028 0.0
C671 C 0.60156 0.48589 0.65632 0.0
C672 C 0.6176 0.46965 0.68828 0.0
C673 C 0.92232 0.60076 0.20038 0.0
C674 C 0.94771 0.62798 0.221 0.0
C675 C 0.93504 0.57891 0.1709 0.0
C676 C 0.97362 0.58386 0.15976 0.0
H677 H 0.89214 0.59622 0.20682 0.0
H678 H 0.91439 0.55824 0.15637 0.0
S679 S 0.0526 0.6492 0.205 0.0
N680 N 1.01429 0.65637 0.22899 0.0
N681 N 0.03739 0.61719 0.17211 0.0
C682 C 0.99936 0.611 0.17954 0.0
C683 C 0.98665 0.63256 0.21036 0.0
C684 C 0.4563 0.16121 0.19895 0.0
C685 C 0.4725 0.19744 0.18853 0.0
C686 C 0.46769 0.13213 0.17954 0.0
C687 C 0.49628 0.13822 0.14959 0.0
H688 H 0.43384 0.15528 0.22156 0.0
H689 H 0.45365 0.10465 0.18771 0.0
S690 S 0.54846 0.22811 0.11212 0.0
N691 N 0.5189 0.23796 0.14685 0.0
N692 N 0.54099 0.18328 0.11074 0.0
C693 C 0.51347 0.17437 0.13958 0.0
C694 C 0.50132 0.204 0.15889 0.0
C695 C 0.1053 0.96843 0.67328 0.0
C696 C 0.10771 0.93355 0.65958 0.0
C697 C 0.08834 0.9913 0.65049 0.0
C698 C 0.07372 0.97998 0.61326 0.0
H699 H 0.11864 0.97893 0.70052 0.0
H700 H 0.08888 1.0187 0.66086 0.0
S701 S 0.0663 0.88888 0.56796 0.0
N702 N 0.08875 0.88692 0.60956 0.0
N703 N 0.05779 0.93023 0.56637 0.0
C704 C 0.07326 0.94427 0.60082 0.0
C705 C 0.09005 0.92093 0.6241 0.0
C706 C 0.85264 0.49983 0.98785 0.0
C707 C 0.84587 0.46267 0.97766 0.0
C708 C 0.88679 0.51744 1.00528 0.0
C709 C 0.91565 0.49863 1.01338 0.0
H710 H 0.83095 0.5152 0.98335 0.0
H711 H 0.89022 0.54587 1.01318 0.0
S712 S 0.91397 0.40216 0.98729 0.0
N713 N 0.87255 0.4087 0.9734 0.0
N714 N 0.93599 0.44123 1.00617 0.0
C715 C 0.90966 0.46179 1.00185 0.0
C716 C 0.87509 0.44402 0.98404 0.0
C717 C 0.65978 0.59844 0.46239 0.0
C718 C 0.69477 0.60954 0.48097 0.0
C719 C 0.62572 0.58693 0.48479 0.0
C720 C 0.62542 0.58601 0.5266 0.0
H721 H 0.65854 0.59992 0.43038 0.0
H722 H 0.59936 0.57986 0.46928 0.0
S723 S 0.71006 0.60731 0.58918 0.0
N724 N 0.72731 0.61531 0.54338 0.0
N725 N 0.66376 0.59375 0.58531 0.0
C726 C 0.66047 0.59521 0.54531 0.0
C727 C 0.69498 0.60699 0.52258 0.0
C728 C 0.2425 0.39207 0.11911 0.0
C729 C 0.27057 0.41643 0.13941 0.0
C730 C 0.20835 0.4016 0.10961 0.0
C731 C 0.20113 0.4358 0.12012 0.0
H732 H 0.24579 0.36459 0.11304 0.0
H733 H 0.18657 0.38124 0.09616 0.0
S734 S 0.26843 0.5115 0.16698 0.0
N735 N 0.29102 0.47768 0.16509 0.0
N736 N 0.22704 0.49578 0.14686 0.0
C737 C 0.23024 0.46136 0.13754 0.0
C738 C 0.26493 0.45164 0.14724 0.0
C739 C 0.5859 0.18107 0.96893 0.0
C740 C 0.56827 0.21113 0.96826 0.0
C741 C 0.56845 0.1482 0.98832 0.0
C742 C 0.53289 0.14424 1.00829 0.0
H743 H 0.6131 0.18278 0.95376 0.0
H744 H 0.58281 0.12571 0.98742 0.0
S745 S 0.47702 0.21634 1.01902 0.0
N746 N 0.51454 0.23545 0.99156 0.0
N747 N 0.48219 0.17469 1.02828 0.0
C748 C 0.51572 0.17464 1.00883 0.0
C749 C 0.53324 0.20774 0.9888 0.0
C750 C 0.92108 0.90664 0.48138 0.0
C751 C 0.94366 0.88447 0.4628 0.0
C752 C 0.93709 0.94011 0.49902 0.0
C753 C 0.97638 0.95386 0.4977 0.0
H754 H 0.89054 0.89775 0.48317 0.0
H755 H 0.91849 0.95526 0.51416 0.0
S756 S 0.04875 0.90855 0.45184 0.0
N757 N 1.00816 0.87981 0.4443 0.0
N758 N 0.03774 0.94378 0.47523 0.0
C759 C 0.99938 0.93324 0.4777 0.0
C760 C 0.98319 0.89846 0.46065 0.0
C761 C 0.37352 0.76781 0.56875 0.0
C762 C 0.38293 0.79897 0.59252 0.0
C763 C 0.39933 0.74521 0.56243 0.0
C764 C 0.43508 0.7532 0.57985 0.0
H765 H 0.34477 0.75858 0.55902 0.0
H766 H 0.38986 0.71952 0.54737 0.0
S767 S 0.47585 0.83653 0.63613 0.0
N768 N 0.43244 0.84065 0.62649 0.0
N769 N 0.48088 0.7979 0.61537 0.0
C770 C 0.44657 0.78697 0.59868 0.0
C771 C 0.42038 0.81001 0.60485 0.0
C772 C 0.75946 0.8592 0.66698 0.0
C773 C 0.7318 0.87048 0.69149 0.0
C774 C 0.79285 0.88365 0.65511 0.0
C775 C 0.79939 0.92031 0.66677 0.0
H776 H 0.75644 0.83078 0.65918 0.0
H777 H 0.81454 0.87347 0.63842 0.0
S778 S 0.73479 0.96456 0.72747 0.0
N779 N 0.71239 0.92162 0.72461 0.0
N780 N 0.77466 0.96751 0.70117 0.0
C781 C 0.77076 0.93263 0.68834 0.0
C782 C 0.73698 0.90774 0.70088 0.0
C783 C 0.77153 0.25758 0.18256 0.0
C784 C 0.75224 0.26706 0.21658 0.0
C785 C 0.75194 0.23606 0.15266 0.0
C786 C 0.71242 0.22316 0.15586 0.0
H787 H 0.80218 0.26503 0.1802 0.0
H788 H 0.76808 0.22756 0.12807 0.0
S789 S 0.64844 0.24271 0.2376 0.0
N790 N 0.69113 0.26412 0.25037 0.0
N791 N 0.65443 0.22362 0.19433 0.0
C792 C 0.69251 0.23478 0.18823 0.0
C793 C 0.71242 0.25674 0.21861 0.0
C794 C 0.44798 0.59464 0.39748 0.0
C795 C 0.44126 0.63023 0.39948 0.0
C796 C 0.46329 0.57896 0.42945 0.0
C797 C 0.47223 0.59775 0.46549 0.0
H798 H 0.44156 0.57872 0.37074 0.0
H799 H 0.46784 0.55158 0.42583 0.0
S800 S 0.45918 0.69152 0.48672 0.0
N801 N 0.44442 0.68364 0.441 0.0
N802 N 0.47269 0.65443 0.50087 0.0
C803 C 0.46548 0.63339 0.46795 0.0
C804 C 0.45027 0.64949 0.43513 0.0
C805 C 0.07418 0.46641 0.9416 0.0
C806 C 0.08824 0.47984 0.90377 0.0
C807 C 0.06076 0.48877 0.9702 0.0
C808 C 0.06057 0.52545 0.96223 0.0
H809 H 0.07392 0.43849 0.94937 0.0
H810 H 0.05014 0.47707 0.99854 0.0
S811 S 0.09199 0.57338 0.86693 0.0
N812 N 0.09924 0.53198 0.85953 0.0
N813 N 0.07468 0.57364 0.91282 0.0
C814 C 0.07405 0.53896 0.92432 0.0
C815 C 0.08771 0.51634 0.89533 0.0
C816 C 0.58087 0.94293 0.9518 0.0
C817 C 0.56508 0.90742 0.96512 0.0
C818 C 0.56859 0.973 0.96788 0.0
C819 C 0.53949 0.96866 0.99727 0.0
H820 H 0.60379 0.9476 0.92964 0.0
H821 H 0.58248 0.99994 0.95772 0.0
S822 S 0.4877 0.88114 1.04104 0.0
N823 N 0.5182 0.8694 1.00858 0.0
N824 N 0.4945 0.92587 1.03841 0.0
C825 C 0.52254 0.93315 1.00992 0.0
C826 C 0.53557 0.90255 0.99402 0.0
C827 C 0.8984 0.11108 0.48375 0.0
C828 C 0.92041 0.14289 0.4668 0.0
C829 C 0.9154 0.08647 0.50356 0.0
C830 C 0.95493 0.09327 0.50776 0.0
H831 H 0.86779 0.10552 0.48219 0.0
H832 H 0.89723 0.0626 0.51684 0.0
S833 S 0.0248 0.17245 0.46707 0.0
N834 N 0.98338 0.17947 0.45369 0.0
N835 N 1.01562 0.13366 0.49187 0.0
C836 C 0.97728 0.12465 0.48996 0.0
C837 C 0.95991 0.1494 0.46925 0.0
C838 C 0.1751 0.61582 0.16266 0.0
C839 C 0.20294 0.64073 0.14079 0.0
C840 C 0.1407 0.59838 0.14571 0.0
C841 C 0.13226 0.60556 0.10639 0.0
H842 H 0.17932 0.61046 0.19354 0.0
H843 H 0.11999 0.57999 0.16399 0.0
S844 S 0.19679 0.66404 1.03426 0.0
N845 N 0.22086 0.66766 0.07545 0.0
N846 N 0.15553 0.63678 1.04505 0.0
C847 C 0.16001 0.6294 0.08381 0.0
C848 C 0.19543 0.64642 0.10058 0.0
C849 C 0.34897 0.48362 0.614 0.0
C850 C 0.34902 0.48666 0.65571 0.0
C851 C 0.38215 0.49541 0.59054 0.0
C852 C 0.41698 0.51065 0.60771 0.0
H853 H 0.32301 0.47171 0.59927 0.0
H854 H 0.38057 0.49188 0.5587 0.0
S855 S 0.43265 0.52534 0.71548 0.0
N856 N 0.38708 0.50659 0.71313 0.0
N857 N 0.44926 0.52897 0.66913 0.0
C858 C 0.41733 0.51471 0.6493 0.0
C859 C 0.38346 0.50271 0.67324 0.0
C860 C 0.82444 0.70544 0.92314 0.0
C861 C 0.79109 0.70371 0.94664 0.0
C862 C 0.85687 0.69674 0.9387 0.0
C863 C 0.85751 0.68633 0.97855 0.0
H864 H 0.82567 0.71395 0.89238 0.0
H865 H 0.88184 0.69865 0.91949 0.0
S866 S 0.77756 0.67581 1.0524 0.0
N867 N 0.76049 0.6894 1.01161 0.0
N868 N 0.82188 0.67372 1.04111 0.0
C869 C 0.82455 0.6845 1.00253 0.0
C870 C 0.79128 0.69309 0.98656 0.0
C871 C 0.5067 0.90518 0.15719 0.0
C872 C 0.46984 0.89894 0.17436 0.0
C873 C 0.52307 0.93828 0.1381 0.0
C874 C 0.50373 0.96704 0.13579 0.0
H875 H 0.52281 0.88405 0.15789 0.0
H876 H 0.55134 0.94124 0.1249 0.0
S877 S 0.40709 0.9653 0.17766 0.0
N878 N 0.41461 0.92468 0.1883 0.0
N879 N 0.44589 0.98711 0.15384 0.0
C880 C 0.46706 0.96136 0.15339 0.0
C881 C 0.45005 0.92733 0.17222 0.0
C882 C 0.08142 0.18815 0.68929 0.0
C883 C 0.09221 0.22022 0.66657 0.0
C884 C 0.06699 0.15418 0.67115 0.0
C885 C 0.06324 0.15102 0.62962 0.0
H886 H 0.08563 0.18905 0.72099 0.0
H887 H 0.06005 0.13008 0.68961 0.0
S888 S 0.08163 0.22772 0.55793 0.0
N889 N 0.09383 0.24704 0.60104 0.0
N890 N 0.06728 0.18387 0.56729 0.0
C891 C 0.07206 0.18324 0.60709 0.0
C892 C 0.08634 0.21759 0.62545 0.0
C893 C 0.71715 0.39239 0.54455 0.0
C894 C 0.7128 0.3544 0.54529 0.0
C895 C 0.68556 0.4083 0.54755 0.0
C896 C 0.64884 0.38667 0.55165 0.0
H897 H 0.74459 0.40956 0.53729 0.0
H898 H 0.68957 0.43737 0.54309 0.0
S899 S 0.62315 0.2866 0.56219 0.0
N900 N 0.66976 0.29599 0.55588 0.0
N901 N 0.61019 0.32614 0.56198 0.0
C902 C 0.64453 0.34913 0.55723 0.0
C903 C 0.67672 0.33288 0.55404 0.0
loop_
_geom_bond_atom_site_label_1
_geom_bond_atom_site_label_2
_geom_bond_distance
_geom_bond_site_symmetry_2
_ccdc_geom_bond_type
C0 C1 1.391 . S
C0 C4 1.391 . S
C0 H42 0.948 . S
C1 C0 1.391 . S
C1 C2 1.391 . S
C2 C1 1.391 . S
C2 H58 0.947 . S
C2 C59 1.392 . S
C3 C4 1.391 . S
C3 C7 1.397 . S
C3 C59 1.419 . S
C4 C0 1.391 . S
C4 C3 1.391 . S
C4 C5 1.399 . S
C5 C4 1.399 . S
C5 C8 1.396 . S
C5 C17 1.453 . S
C5 C18 1.684 . S
H6 C30 0.948 . S
C7 C3 1.397 . S
C7 C8 1.394 . S
C7 C26 1.723 . S
C8 C5 1.396 . S
C8 C7 1.394 . S
C8 C38 1.723 . S
H9 C32 0.947 . S
H10 C33 0.948 . S
H11 C39 0.982 . S
H12 C40 0.979 . S
H13 C40 0.980 . S
H14 C40 0.983 . S
H15 C39 0.979 . S
H16 C39 0.977 . S
C17 C5 1.453 . S
C17 H46 0.982 . S
C17 H47 0.979 . S
C17 H48 0.977 . S
C18 C5 1.684 . S
C18 H43 0.979 . S
C18 H44 0.980 . S
C18 H45 0.983 . S
C19 C20 1.391 . S
C19 C24 1.391 . S
C19 H49 0.948 . S
C20 C19 1.391 . S
C20 C21 1.391 . S
C21 C20 1.391 . S
C21 C22 1.392 . S
C21 H50 0.947 . S
C22 C21 1.392 . S
C22 C23 1.419 . S
C22 H51 0.948 . S
C23 C22 1.419 . S
C23 C24 1.391 . S
C23 C27 1.397 . S
C24 C19 1.391 . S
C24 C23 1.391 . S
C24 C25 1.399 . S
C25 C24 1.399 . S
C25 C26 1.396 . S
C25 C28 1.453 . S
C25 C29 1.684 . S
C26 C7 1.723 . S
C26 C25 1.396 . S
C26 C27 1.394 . S
C27 C23 1.397 . S
C27 C26 1.394 . S
C27 C37 1.723 . S
C28 C25 1.453 . S
C28 H52 0.982 . S
C28 H53 0.979 . S
C28 H54 0.977 . S
C29 C25 1.684 . S
C29 H55 0.979 . S
C29 H56 0.980 . S
C29 H57 0.983 . S
C30 H6 0.948 . S
C30 C31 1.391 . S
C30 C35 1.391 . S
C31 C30 1.391 . S
C31 C32 1.391 . S
C32 H9 0.947 . S
C32 C31 1.391 . S
C32 C33 1.392 . S
C33 H10 0.948 . S
C33 C32 1.392 . S
C33 C34 1.419 . S
C34 C33 1.419 . S
C34 C35 1.391 . S
C34 C38 1.397 . S
C35 C30 1.391 . S
C35 C34 1.391 . S
C35 C36 1.399 . S
C36 C35 1.399 . S
C36 C37 1.396 . S
C36 C39 1.453 . S
C36 C40 1.684 . S
C37 C27 1.723 . S
C37 C36 1.396 . S
C37 C38 1.394 . S
C38 C8 1.723 . S
C38 C34 1.397 . S
C38 C37 1.394 . S
C39 H11 0.982 . S
C39 H15 0.979 . S
C39 H16 0.977 . S
C39 C36 1.453 . S
C40 H12 0.979 . S
C40 H13 0.980 . S
C40 H14 0.983 . S
C40 C36 1.684 . S
H41 C59 0.948 . S
H42 C0 0.948 . S
H43 C18 0.979 . S
H44 C18 0.980 . S
H45 C18 0.983 . S
H46 C17 0.982 . S
H47 C17 0.979 . S
H48 C17 0.977 . S
H49 C19 0.948 . S
H50 C21 0.947 . S
H51 C22 0.948 . S
H52 C28 0.982 . S
H53 C28 0.979 . S
H54 C28 0.977 . S
H55 C29 0.979 . S
H56 C29 0.980 . S
H57 C29 0.983 . S
H58 C2 0.947 . S
C59 C2 1.392 . S
C59 C3 1.419 . S
C59 H41 0.948 . S
C60 C61 1.391 . S
C60 C64 1.391 . S
C60 H102 0.948 . S
C61 C60 1.391 . S
C61 C62 1.391 . S
C62 C61 1.391 . S
C62 H118 0.947 . S
C62 C119 1.392 . S
C63 C64 1.391 . S
C63 C67 1.397 . S
C63 C119 1.419 . S
C64 C60 1.391 . S
C64 C63 1.391 . S
C64 C65 1.399 . S
C65 C64 1.399 . S
C65 C68 1.396 . S
C65 C77 1.453 . S
C65 C78 1.684 . S
H66 C90 0.948 . S
C67 C63 1.397 . S
C67 C68 1.394 . S
C67 C86 1.723 . S
C68 C65 1.396 . S
C68 C67 1.394 . S
C68 C98 1.723 . S
H69 C92 0.947 . S
H70 C93 0.948 . S
H71 C99 0.982 . S
H72 C100 0.979 . S
H73 C100 0.980 . S
H74 C100 0.983 . S
H75 C99 0.979 . S
H76 C99 0.977 . S
C77 C65 1.453 . S
C77 H106 0.982 . S
C77 H107 0.979 . S
C77 H108 0.977 . S
C78 C65 1.684 . S
C78 H103 0.979 . S
C78 H104 0.980 . S
C78 H105 0.983 . S
C79 C80 1.391 . S
C79 C84 1.391 . S
C79 H109 0.948 . S
C80 C79 1.391 . S
C80 C81 1.391 . S
C81 C80 1.391 . S
C81 C82 1.392 . S
C81 H110 0.947 . S
C82 C81 1.392 . S
C82 C83 1.419 . S
C82 H111 0.948 . S
C83 C82 1.419 . S
C83 C84 1.391 . S
C83 C87 1.397 . S
C84 C79 1.391 . S
C84 C83 1.391 . S
C84 C85 1.399 . S
C85 C84 1.399 . S
C85 C86 1.396 . S
C85 C88 1.453 . S
C85 C89 1.684 . S
C86 C67 1.723 . S
C86 C85 1.396 . S
C86 C87 1.394 . S
C87 C83 1.397 . S
C87 C86 1.394 . S
C87 C97 1.723 . S
C88 C85 1.453 . S
C88 H112 0.982 . S
C88 H113 0.979 . S
C88 H114 0.977 . S
C89 C85 1.684 . S
C89 H115 0.979 . S
C89 H116 0.980 . S
C89 H117 0.983 . S
C90 H66 0.948 . S
C90 C91 1.391 . S
C90 C95 1.391 . S
C91 C90 1.391 . S
C91 C92 1.391 . S
C92 H69 0.947 . S
C92 C91 1.391 . S
C92 C93 1.392 . S
C93 H70 0.948 . S
C93 C92 1.392 . S
C93 C94 1.419 . S
C94 C93 1.419 . S
C94 C95 1.391 . S
C94 C98 1.397 . S
C95 C90 1.391 . S
C95 C94 1.391 . S
C95 C96 1.399 . S
C96 C95 1.399 . S
C96 C97 1.396 . S
C96 C99 1.453 . S
C96 C100 1.684 . S
C97 C87 1.723 . S
C97 C96 1.396 . S
C97 C98 1.394 . S
C98 C68 1.723 . S
C98 C94 1.397 . S
C98 C97 1.394 . S
C99 H71 0.982 . S
C99 H75 0.979 . S
C99 H76 0.977 . S
C99 C96 1.453 . S
C100 H72 0.979 . S
C100 H73 0.980 . S
C100 H74 0.983 . S
C100 C96 1.684 . S
H101 C119 0.948 . S
H102 C60 0.948 . S
H103 C78 0.979 . S
H104 C78 0.980 . S
H105 C78 0.983 . S
H106 C77 0.982 . S
H107 C77 0.979 . S
H108 C77 0.977 . S
H109 C79 0.948 . S
H110 C81 0.947 . S
H111 C82 0.948 . S
H112 C88 0.982 . S
H113 C88 0.979 . S
H114 C88 0.977 . S
H115 C89 0.979 . S
H116 C89 0.980 . S
H117 C89 0.983 . S
H118 C62 0.947 . S
C119 C62 1.392 . S
C119 C63 1.419 . S
C119 H101 0.948 . S
C120 C121 1.391 . S
C120 C124 1.391 . S
C120 H162 0.948 . S
C121 C120 1.391 . S
C121 C122 1.391 . S
C122 C121 1.391 . S
C122 H178 0.947 . S
C122 C179 1.392 . S
C123 C124 1.391 . S
C123 C127 1.397 . S
C123 C179 1.419 . S
C124 C120 1.391 . S
C124 C123 1.391 . S
C124 C125 1.399 . S
C125 C124 1.399 . S
C125 C128 1.396 . S
C125 C137 1.453 . S
C125 C138 1.684 . S
H126 C150 0.948 . S
C127 C123 1.397 . S
C127 C128 1.394 . S
C127 C146 1.723 . S
C128 C125 1.396 . S
C128 C127 1.394 . S
C128 C158 1.723 . S
H129 C152 0.947 . S
H130 C153 0.948 . S
H131 C159 0.982 . S
H132 C160 0.979 . S
H133 C160 0.980 . S
H134 C160 0.983 . S
H135 C159 0.979 . S
H136 C159 0.977 . S
C137 C125 1.453 . S
C137 H166 0.982 . S
C137 H167 0.979 . S
C137 H168 0.977 . S
C138 C125 1.684 . S
C138 H163 0.979 . S
C138 H164 0.980 . S
C138 H165 0.983 . S
C139 C140 1.391 . S
C139 C144 1.391 . S
C139 H169 0.948 . S
C140 C139 1.391 . S
C140 C141 1.391 . S
C141 C140 1.391 . S
C141 C142 1.392 . S
C141 H170 0.947 . S
C142 C141 1.392 . S
C142 C143 1.419 . S
C142 H171 0.948 . S
C143 C142 1.419 . S
C143 C144 1.391 . S
C143 C147 1.397 . S
C144 C139 1.391 . S
C144 C143 1.391 . S
C144 C145 1.399 . S
C145 C144 1.399 . S
C145 C146 1.396 . S
C145 C148 1.453 . S
C145 C149 1.684 . S
C146 C127 1.723 . S
C146 C145 1.396 . S
C146 C147 1.394 . S
C147 C143 1.397 . S
C147 C146 1.394 . S
C147 C157 1.723 . S
C148 C145 1.453 . S
C148 H172 0.982 . S
C148 H173 0.979 . S
C148 H174 0.977 . S
C149 C145 1.684 . S
C149 H175 0.979 . S
C149 H176 0.980 . S
C149 H177 0.983 . S
C150 H126 0.948 . S
C150 C151 1.391 . S
C150 C155 1.391 . S
C151 C150 1.391 . S
C151 C152 1.391 . S
C152 H129 0.947 . S
C152 C151 1.391 . S
C152 C153 1.392 . S
C153 H130 0.948 . S
C153 C152 1.392 . S
C153 C154 1.419 . S
C154 C153 1.419 . S
C154 C155 1.391 . S
C154 C158 1.397 . S
C155 C150 1.391 . S
C155 C154 1.391 . S
C155 C156 1.399 . S
C156 C155 1.399 . S
C156 C157 1.396 . S
C156 C159 1.453 . S
C156 C160 1.684 . S
C157 C147 1.723 . S
C157 C156 1.396 . S
C157 C158 1.394 . S
C158 C128 1.723 . S
C158 C154 1.397 . S
C158 C157 1.394 . S
C159 H131 0.982 . S
C159 H135 0.979 . S
C159 H136 0.977 . S
C159 C156 1.453 . S
C160 H132 0.979 . S
C160 H133 0.980 . S
C160 H134 0.983 . S
C160 C156 1.684 . S
H161 C179 0.948 . S
H162 C120 0.948 . S
H163 C138 0.979 . S
H164 C138 0.980 . S
H165 C138 0.983 . S
H166 C137 0.982 . S
H167 C137 0.979 . S
H168 C137 0.977 . S
H169 C139 0.948 . S
H170 C141 0.947 . S
H171 C142 0.948 . S
H172 C148 0.982 . S
H173 C148 0.979 . S
H174 C148 0.977 . S
H175 C149 0.979 . S
H176 C149 0.980 . S
H177 C149 0.983 . S
H178 C122 0.947 . S
C179 C122 1.392 . S
C179 C123 1.419 . S
C179 H161 0.948 . S
C180 C181 1.391 . S
C180 C184 1.391 . S
C180 H222 0.948 . S
C181 C180 1.391 . S
C181 C182 1.391 . S
C182 C181 1.391 . S
C182 H238 0.947 . S
C182 C239 1.392 . S
C183 C184 1.391 . S
C183 C187 1.397 . S
C183 C239 1.419 . S
C184 C180 1.391 . S
C184 C183 1.391 . S
C184 C185 1.399 . S
C185 C184 1.399 . S
C185 C188 1.396 . S
C185 C197 1.453 . S
C185 C198 1.684 . S
H186 C210 0.948 . S
C187 C183 1.397 . S
C187 C188 1.394 . S
C187 C206 1.723 . S
C188 C185 1.396 . S
C188 C187 1.394 . S
C188 C218 1.723 . S
H189 C212 0.947 . S
H190 C213 0.948 . S
H191 C219 0.982 . S
H192 C220 0.979 . S
H193 C220 0.980 . S
H194 C220 0.983 . S
H195 C219 0.979 . S
H196 C219 0.977 . S
C197 C185 1.453 . S
C197 H226 0.982 . S
C197 H227 0.979 . S
C197 H228 0.977 . S
C198 C185 1.684 . S
C198 H223 0.979 . S
C198 H224 0.980 . S
C198 H225 0.983 . S
C199 C200 1.391 . S
C199 C204 1.391 . S
C199 H229 0.948 . S
C200 C199 1.391 . S
C200 C201 1.391 . S
C201 C200 1.391 . S
C201 C202 1.392 . S
C201 H230 0.947 . S
C202 C201 1.392 . S
C202 C203 1.419 . S
C202 H231 0.948 . S
C203 C202 1.419 . S
C203 C204 1.391 . S
C203 C207 1.397 . S
C204 C199 1.391 . S
C204 C203 1.391 . S
C204 C205 1.399 . S
C205 C204 1.399 . S
C205 C206 1.396 . S
C205 C208 1.453 . S
C205 C209 1.684 . S
C206 C187 1.723 . S
C206 C205 1.396 . S
C206 C207 1.394 . S
C207 C203 1.397 . S
C207 C206 1.394 . S
C207 C217 1.723 . S
C208 C205 1.453 . S
C208 H232 0.982 . S
C208 H233 0.979 . S
C208 H234 0.977 . S
C209 C205 1.684 . S
C209 H235 0.979 . S
C209 H236 0.980 . S
C209 H237 0.983 . S
C210 H186 0.948 . S
C210 C211 1.391 . S
C210 C215 1.391 . S
C211 C210 1.391 . S
C211 C212 1.391 . S
C212 H189 0.947 . S
C212 C211 1.391 . S
C212 C213 1.392 . S
C213 H190 0.948 . S
C213 C212 1.392 . S
C213 C214 1.419 . S
C214 C213 1.419 . S
C214 C215 1.391 . S
C214 C218 1.397 . S
C215 C210 1.391 . S
C215 C214 1.391 . S
C215 C216 1.399 . S
C216 C215 1.399 . S
C216 C217 1.396 . S
C216 C219 1.453 . S
C216 C220 1.684 . S
C217 C207 1.723 . S
C217 C216 1.396 . S
C217 C218 1.394 . S
C218 C188 1.723 . S
C218 C214 1.397 . S
C218 C217 1.394 . S
C219 H191 0.982 . S
C219 H195 0.979 . S
C219 H196 0.977 . S
C219 C216 1.453 . S
C220 H192 0.979 . S
C220 H193 0.980 . S
C220 H194 0.983 . S
C220 C216 1.684 . S
H221 C239 0.948 . S
H222 C180 0.948 . S
H223 C198 0.979 . S
H224 C198 0.980 . S
H225 C198 0.983 . S
H226 C197 0.982 . S
H227 C197 0.979 . S
H228 C197 0.977 . S
H229 C199 0.948 . S
H230 C201 0.947 . S
H231 C202 0.948 . S
H232 C208 0.982 . S
H233 C208 0.979 . S
H234 C208 0.977 . S
H235 C209 0.979 . S
H236 C209 0.980 . S
H237 C209 0.983 . S
H238 C182 0.947 . S
C239 C182 1.392 . S
C239 C183 1.419 . S
C239 H221 0.948 . S
C240 C241 1.391 . S
C240 C244 1.391 . S
C240 H282 0.948 . S
C241 C240 1.391 . S
C241 C242 1.391 . S
C242 C241 1.391 . S
C242 H298 0.947 . S
C242 C299 1.392 . S
C243 C244 1.391 . S
C243 C247 1.397 . S
C243 C299 1.419 . S
C244 C240 1.391 . S
C244 C243 1.391 . S
C244 C245 1.399 . S
C245 C244 1.399 . S
C245 C248 1.396 . S
C245 C257 1.453 . S
C245 C258 1.684 . S
H246 C270 0.948 . S
C247 C243 1.397 . S
C247 C248 1.394 . S
C247 C266 1.723 . S
C248 C245 1.396 . S
C248 C247 1.394 . S
C248 C278 1.723 . S
H249 C272 0.947 . S
H250 C273 0.948 . S
H251 C279 0.982 . S
H252 C280 0.979 . S
H253 C280 0.980 . S
H254 C280 0.983 . S
H255 C279 0.979 . S
H256 C279 0.977 . S
C257 C245 1.453 . S
C257 H286 0.982 . S
C257 H287 0.979 . S
C257 H288 0.977 . S
C258 C245 1.684 . S
C258 H283 0.979 . S
C258 H284 0.980 . S
C258 H285 0.983 . S
C259 C260 1.391 . S
C259 C264 1.391 . S
C259 H289 0.948 . S
C260 C259 1.391 . S
C260 C261 1.391 . S
C261 C260 1.391 . S
C261 C262 1.392 . S
C261 H290 0.947 . S
C262 C261 1.392 . S
C262 C263 1.419 . S
C262 H291 0.948 . S
C263 C262 1.419 . S
C263 C264 1.391 . S
C263 C267 1.397 . S
C264 C259 1.391 . S
C264 C263 1.391 . S
C264 C265 1.399 . S
C265 C264 1.399 . S
C265 C266 1.396 . S
C265 C268 1.453 . S
C265 C269 1.684 . S
C266 C247 1.723 . S
C266 C265 1.396 . S
C266 C267 1.394 . S
C267 C263 1.397 . S
C267 C266 1.394 . S
C267 C277 1.723 . S
C268 C265 1.453 . S
C268 H292 0.982 . S
C268 H293 0.979 . S
C268 H294 0.977 . S
C269 C265 1.684 . S
C269 H295 0.979 . S
C269 H296 0.980 . S
C269 H297 0.983 . S
C270 H246 0.948 . S
C270 C271 1.391 . S
C270 C275 1.391 . S
C271 C270 1.391 . S
C271 C272 1.391 . S
C272 H249 0.947 . S
C272 C271 1.391 . S
C272 C273 1.392 . S
C273 H250 0.948 . S
C273 C272 1.392 . S
C273 C274 1.419 . S
C274 C273 1.419 . S
C274 C275 1.391 . S
C274 C278 1.397 . S
C275 C270 1.391 . S
C275 C274 1.391 . S
C275 C276 1.399 . S
C276 C275 1.399 . S
C276 C277 1.396 . S
C276 C279 1.453 . S
C276 C280 1.684 . S
C277 C267 1.723 . S
C277 C276 1.396 . S
C277 C278 1.394 . S
C278 C248 1.723 . S
C278 C274 1.397 . S
C278 C277 1.394 . S
C279 H251 0.982 . S
C279 H255 0.979 . S
C279 H256 0.977 . S
C279 C276 1.453 . S
C280 H252 0.979 . S
C280 H253 0.980 . S
C280 H254 0.983 . S
C280 C276 1.684 . S
H281 C299 0.948 . S
H282 C240 0.948 . S
H283 C258 0.979 . S
H284 C258 0.980 . S
H285 C258 0.983 . S
H286 C257 0.982 . S
H287 C257 0.979 . S
H288 C257 0.977 . S
H289 C259 0.948 . S
H290 C261 0.947 . S
H291 C262 0.948 . S
H292 C268 0.982 . S
H293 C268 0.979 . S
H294 C268 0.977 . S
H295 C269 0.979 . S
H296 C269 0.980 . S
H297 C269 0.983 . S
H298 C242 0.947 . S
C299 C242 1.392 . S
C299 C243 1.419 . S
C299 H281 0.948 . S
C300 C301 1.391 . S
C300 C304 1.391 . S
C300 H342 0.948 . S
C301 C300 1.391 . S
C301 C302 1.391 . S
C302 C301 1.391 . S
C302 H358 0.947 . S
C302 C359 1.392 . S
C303 C304 1.391 . S
C303 C307 1.397 . S
C303 C359 1.419 . S
C304 C300 1.391 . S
C304 C303 1.391 . S
C304 C305 1.399 . S
C305 C304 1.399 . S
C305 C308 1.396 . S
C305 C317 1.453 . S
C305 C318 1.684 . S
H306 C330 0.948 . S
C307 C303 1.397 . S
C307 C308 1.394 . S
C307 C326 1.723 . S
C308 C305 1.396 . S
C308 C307 1.394 . S
C308 C338 1.723 . S
H309 C332 0.947 . S
H310 C333 0.948 . S
H311 C339 0.982 . S
H312 C340 0.979 . S
H313 C340 0.980 . S
H314 C340 0.983 . S
H315 C339 0.979 . S
H316 C339 0.977 . S
C317 C305 1.453 . S
C317 H346 0.982 . S
C317 H347 0.979 . S
C317 H348 0.977 . S
C318 C305 1.684 . S
C318 H343 0.979 . S
C318 H344 0.980 . S
C318 H345 0.983 . S
C319 C320 1.391 . S
C319 C324 1.391 . S
C319 H349 0.948 . S
C320 C319 1.391 . S
C320 C321 1.391 . S
C321 C320 1.391 . S
C321 C322 1.392 . S
C321 H350 0.947 . S
C322 C321 1.392 . S
C322 C323 1.419 . S
C322 H351 0.948 . S
C323 C322 1.419 . S
C323 C324 1.391 . S
C323 C327 1.397 . S
C324 C319 1.391 . S
C324 C323 1.391 . S
C324 C325 1.399 . S
C325 C324 1.399 . S
C325 C326 1.396 . S
C325 C328 1.453 . S
C325 C329 1.684 . S
C326 C307 1.723 . S
C326 C325 1.396 . S
C326 C327 1.394 . S
C327 C323 1.397 . S
C327 C326 1.394 . S
C327 C337 1.723 . S
C328 C325 1.453 . S
C328 H352 0.982 . S
C328 H353 0.979 . S
C328 H354 0.977 . S
C329 C325 1.684 . S
C329 H355 0.979 . S
C329 H356 0.980 . S
C329 H357 0.983 . S
C330 H306 0.948 . S
C330 C331 1.391 . S
C330 C335 1.391 . S
C331 C330 1.391 . S
C331 C332 1.391 . S
C332 H309 0.947 . S
C332 C331 1.391 . S
C332 C333 1.392 . S
C333 H310 0.948 . S
C333 C332 1.392 . S
C333 C334 1.419 . S
C334 C333 1.419 . S
C334 C335 1.391 . S
C334 C338 1.397 . S
C335 C330 1.391 . S
C335 C334 1.391 . S
C335 C336 1.399 . S
C336 C335 1.399 . S
C336 C337 1.396 . S
C336 C339 1.453 . S
C336 C340 1.684 . S
C337 C327 1.723 . S
C337 C336 1.396 . S
C337 C338 1.394 . S
C338 C308 1.723 . S
C338 C334 1.397 . S
C338 C337 1.394 . S
C339 H311 0.982 . S
C339 H315 0.979 . S
C339 H316 0.977 . S
C339 C336 1.453 . S
C340 H312 0.979 . S
C340 H313 0.980 . S
C340 H314 0.983 . S
C340 C336 1.684 . S
H341 C359 0.948 . S
H342 C300 0.948 . S
H343 C318 0.979 . S
H344 C318 0.980 . S
H345 C318 0.983 . S
H346 C317 0.982 . S
H347 C317 0.979 . S
H348 C317 0.977 . S
H349 C319 0.948 . S
H350 C321 0.947 . S
H351 C322 0.948 . S
H352 C328 0.982 . S
H353 C328 0.979 . S
H354 C328 0.977 . S
H355 C329 0.979 . S
H356 C329 0.980 . S
H357 C329 0.983 . S
H358 C302 0.947 . S
C359 C302 1.392 . S
C359 C303 1.419 . S
C359 H341 0.948 . S
C360 C361 1.391 . S
C360 C364 1.391 . S
C360 H402 0.948 . S
C361 C360 1.391 . S
C361 C362 1.391 . S
C362 C361 1.391 . S
C362 H418 0.947 . S
C362 C419 1.392 . S
C363 C364 1.391 . S
C363 C367 1.397 . S
C363 C419 1.419 . S
C364 C360 1.391 . S
C364 C363 1.391 . S
C364 C365 1.399 . S
C365 C364 1.399 . S
C365 C368 1.396 . S
C365 C377 1.453 . S
C365 C378 1.684 . S
H366 C390 0.948 . S
C367 C363 1.397 . S
C367 C368 1.394 . S
C367 C386 1.723 . S
C368 C365 1.396 . S
C368 C367 1.394 . S
C368 C398 1.723 . S
H369 C392 0.947 . S
H370 C393 0.948 . S
H371 C399 0.982 . S
H372 C400 0.979 . S
H373 C400 0.980 . S
H374 C400 0.983 . S
H375 C399 0.979 . S
H376 C399 0.977 . S
C377 C365 1.453 . S
C377 H406 0.982 . S
C377 H407 0.979 . S
C377 H408 0.977 . S
C378 C365 1.684 . S
C378 H403 0.979 . S
C378 H404 0.980 . S
C378 H405 0.983 . S
C379 C380 1.391 . S
C379 C384 1.391 . S
C379 H409 0.948 . S
C380 C379 1.391 . S
C380 C381 1.391 . S
C381 C380 1.391 . S
C381 C382 1.392 . S
C381 H410 0.947 . S
C382 C381 1.392 . S
C382 C383 1.419 . S
C382 H411 0.948 . S
C383 C382 1.419 . S
C383 C384 1.391 . S
C383 C387 1.397 . S
C384 C379 1.391 . S
C384 C383 1.391 . S
C384 C385 1.399 . S
C385 C384 1.399 . S
C385 C386 1.396 . S
C385 C388 1.453 . S
C385 C389 1.684 . S
C386 C367 1.723 . S
C386 C385 1.396 . S
C386 C387 1.394 . S
C387 C383 1.397 . S
C387 C386 1.394 . S
C387 C397 1.723 . S
C388 C385 1.453 . S
C388 H412 0.982 . S
C388 H413 0.979 . S
C388 H414 0.977 . S
C389 C385 1.684 . S
C389 H415 0.979 . S
C389 H416 0.980 . S
C389 H417 0.983 . S
C390 H366 0.948 . S
C390 C391 1.391 . S
C390 C395 1.391 . S
C391 C390 1.391 . S
C391 C392 1.391 . S
C392 H369 0.947 . S
C392 C391 1.391 . S
C392 C393 1.392 . S
C393 H370 0.948 . S
C393 C392 1.392 . S
C393 C394 1.419 . S
C394 C393 1.419 . S
C394 C395 1.391 . S
C394 C398 1.397 . S
C395 C390 1.391 . S
C395 C394 1.391 . S
C395 C396 1.399 . S
C396 C395 1.399 . S
C396 C397 1.396 . S
C396 C399 1.453 . S
C396 C400 1.684 . S
C397 C387 1.723 . S
C397 C396 1.396 . S
C397 C398 1.394 . S
C398 C368 1.723 . S
C398 C394 1.397 . S
C398 C397 1.394 . S
C399 H371 0.982 . S
C399 H375 0.979 . S
C399 H376 0.977 . S
C399 C396 1.453 . S
C400 H372 0.979 . S
C400 H373 0.980 . S
C400 H374 0.983 . S
C400 C396 1.684 . S
H401 C419 0.948 . S
H402 C360 0.948 . S
H403 C378 0.979 . S
H404 C378 0.980 . S
H405 C378 0.983 . S
H406 C377 0.982 . S
H407 C377 0.979 . S
H408 C377 0.977 . S
H409 C379 0.948 . S
H410 C381 0.947 . S
H411 C382 0.948 . S
H412 C388 0.982 . S
H413 C388 0.979 . S
H414 C388 0.977 . S
H415 C389 0.979 . S
H416 C389 0.980 . S
H417 C389 0.983 . S
H418 C362 0.947 . S
C419 C362 1.392 . S
C419 C363 1.419 . S
C419 H401 0.948 . S
C420 C421 1.391 . S
C420 C424 1.391 . S
C420 H462 0.948 . S
C421 C420 1.391 . S
C421 C422 1.391 . S
C422 C421 1.391 . S
C422 H478 0.947 . S
C422 C479 1.392 . S
C423 C424 1.391 . S
C423 C427 1.397 . S
C423 C479 1.419 . S
C424 C420 1.391 . S
C424 C423 1.391 . S
C424 C425 1.399 . S
C425 C424 1.399 . S
C425 C428 1.396 . S
C425 C437 1.453 . S
C425 C438 1.684 . S
H426 C450 0.948 . S
C427 C423 1.397 . S
C427 C428 1.394 . S
C427 C446 1.723 . S
C428 C425 1.396 . S
C428 C427 1.394 . S
C428 C458 1.723 . S
H429 C452 0.947 . S
H430 C453 0.948 . S
H431 C459 0.982 . S
H432 C460 0.979 . S
H433 C460 0.980 . S
H434 C460 0.983 . S
H435 C459 0.979 . S
H436 C459 0.977 . S
C437 C425 1.453 . S
C437 H466 0.982 . S
C437 H467 0.979 . S
C437 H468 0.977 . S
C438 C425 1.684 . S
C438 H463 0.979 . S
C438 H464 0.980 . S
C438 H465 0.983 . S
C439 C440 1.391 . S
C439 C444 1.391 . S
C439 H469 0.948 . S
C440 C439 1.391 . S
C440 C441 1.391 . S
C441 C440 1.391 . S
C441 C442 1.392 . S
C441 H470 0.947 . S
C442 C441 1.392 . S
C442 C443 1.419 . S
C442 H471 0.948 . S
C443 C442 1.419 . S
C443 C444 1.391 . S
C443 C447 1.397 . S
C444 C439 1.391 . S
C444 C443 1.391 . S
C444 C445 1.399 . S
C445 C444 1.399 . S
C445 C446 1.396 . S
C445 C448 1.453 . S
C445 C449 1.684 . S
C446 C427 1.723 . S
C446 C445 1.396 . S
C446 C447 1.394 . S
C447 C443 1.397 . S
C447 C446 1.394 . S
C447 C457 1.723 . S
C448 C445 1.453 . S
C448 H472 0.982 . S
C448 H473 0.979 . S
C448 H474 0.977 . S
C449 C445 1.684 . S
C449 H475 0.979 . S
C449 H476 0.980 . S
C449 H477 0.983 . S
C450 H426 0.948 . S
C450 C451 1.391 . S
C450 C455 1.391 . S
C451 C450 1.391 . S
C451 C452 1.391 . S
C452 H429 0.947 . S
C452 C451 1.391 . S
C452 C453 1.392 . S
C453 H430 0.948 . S
C453 C452 1.392 . S
C453 C454 1.419 . S
C454 C453 1.419 . S
C454 C455 1.391 . S
C454 C458 1.397 . S
C455 C450 1.391 . S
C455 C454 1.391 . S
C455 C456 1.399 . S
C456 C455 1.399 . S
C456 C457 1.396 . S
C456 C459 1.453 . S
C456 C460 1.684 . S
C457 C447 1.723 . S
C457 C456 1.396 . S
C457 C458 1.394 . S
C458 C428 1.723 . S
C458 C454 1.397 . S
C458 C457 1.394 . S
C459 H431 0.982 . S
C459 H435 0.979 . S
C459 H436 0.977 . S
C459 C456 1.453 . S
C460 H432 0.979 . S
C460 H433 0.980 . S
C460 H434 0.983 . S
C460 C456 1.684 . S
H461 C479 0.948 . S
H462 C420 0.948 . S
H463 C438 0.979 . S
H464 C438 0.980 . S
H465 C438 0.983 . S
H466 C437 0.982 . S
H467 C437 0.979 . S
H468 C437 0.977 . S
H469 C439 0.948 . S
H470 C441 0.947 . S
H471 C442 0.948 . S
H472 C448 0.982 . S
H473 C448 0.979 . S
H474 C448 0.977 . S
H475 C449 0.979 . S
H476 C449 0.980 . S
H477 C449 0.983 . S
H478 C422 0.947 . S
C479 C422 1.392 . S
C479 C423 1.419 . S
C479 H461 0.948 . S
Ho480 C483 2.811 . S
Ho480 O500 2.322 . S
Ho480 O502 2.378 . S
Ho480 O503 2.524 . S
Ho480 O504 2.381 1_545 S
Ho480 O505 2.669 1_545 S
Ho480 O507 2.346 1_445 S
Ho480 O511 2.305 1_455 S
Ho481 C492 2.811 . S
Ho481 O501 2.346 1_665 S
Ho481 O505 2.305 1_655 S
Ho481 O506 2.322 . S
Ho481 O508 2.378 . S
Ho481 O509 2.524 . S
Ho481 O510 2.381 1_565 S
Ho481 O511 2.669 1_565 S
C482 O500 1.259 . S
C482 O501 1.268 . S
C483 Ho480 2.811 . S
C483 C484 1.488 . S
C483 O502 1.215 . S
C483 O503 1.289 . S
C484 C483 1.488 . S
C484 C485 1.348 . S
C484 C489 1.413 . S
C485 C484 1.348 . S
C485 C486 1.442 . S
C485 H512 0.930 . S
C486 C485 1.442 . S
C486 C487 1.381 . S
C486 H513 0.931 . S
C487 C486 1.381 . S
C487 C488 1.321 . S
C488 C487 1.321 . S
C488 C489 1.403 . S
C488 H514 0.934 . S
C489 C484 1.413 . S
C489 C488 1.403 . S
C489 H515 0.930 . S
C490 O504 1.275 . S
C490 O505 1.256 . S
C491 O506 1.259 . S
C491 O507 1.268 . S
C492 Ho481 2.811 . S
C492 C493 1.488 . S
C492 O508 1.215 . S
C492 O509 1.289 . S
C493 C492 1.488 . S
C493 C494 1.348 . S
C493 C498 1.413 . S
C494 C493 1.348 . S
C494 C495 1.442 . S
C494 H516 0.930 . S
C495 C494 1.442 . S
C495 C496 1.381 . S
C495 H517 0.931 . S
C496 C495 1.381 . S
C496 C497 1.321 . S
C497 C496 1.321 . S
C497 C498 1.403 . S
C497 H518 0.934 . S
C498 C493 1.413 . S
C498 C497 1.403 . S
C498 H519 0.930 . S
C499 O510 1.275 . S
C499 O511 1.256 . S
O500 Ho480 2.322 . S
O500 C482 1.259 . S
O501 Ho481 2.346 1_445 S
O501 C482 1.268 . S
O502 Ho480 2.378 . S
O502 C483 1.215 . S
O503 Ho480 2.524 . S
O503 C483 1.289 . S
O504 Ho480 2.381 1_565 S
O504 C490 1.275 . S
O505 Ho480 2.669 1_565 S
O505 Ho481 2.305 1_455 S
O505 C490 1.256 . S
O506 Ho481 2.322 . S
O506 C491 1.259 . S
O507 Ho480 2.346 1_665 S
O507 C491 1.268 . S
O508 Ho481 2.378 . S
O508 C492 1.215 . S
O509 Ho481 2.524 . S
O509 C492 1.289 . S
O510 Ho481 2.381 1_545 S
O510 C499 1.275 . S
O511 Ho480 2.305 1_655 S
O511 Ho481 2.669 1_545 S
O511 C499 1.256 . S
H512 C485 0.930 . S
H513 C486 0.931 . S
H514 C488 0.934 . S
H515 C489 0.930 . S
H516 C494 0.930 . S
H517 C495 0.931 . S
H518 C497 0.934 . S
H519 C498 0.930 . S
Ho520 C523 2.811 1_565 S
Ho520 O540 2.322 1_565 S
Ho520 O542 2.378 1_565 S
Ho520 O543 2.524 1_565 S
Ho520 O544 2.381 . S
Ho520 O545 2.669 . S
Ho520 O547 2.346 1_554 S
Ho520 O551 2.305 1_564 S
Ho521 C532 2.811 1_545 S
Ho521 O541 2.346 1_556 S
Ho521 O545 2.305 1_546 S
Ho521 O546 2.322 1_545 S
Ho521 O548 2.378 1_545 S
Ho521 O549 2.524 1_545 S
Ho521 O550 2.381 . S
Ho521 O551 2.669 . S
C522 O540 1.259 . S
C522 O541 1.268 . S
C523 Ho520 2.811 1_545 S
C523 C524 1.488 . S
C523 O542 1.215 . S
C523 O543 1.289 . S
C524 C523 1.488 . S
C524 C525 1.348 . S
C524 C529 1.413 . S
C525 C524 1.348 . S
C525 C526 1.442 . S
C525 H552 0.930 . S
C526 C525 1.442 . S
C526 C527 1.381 . S
C526 H553 0.931 . S
C527 C526 1.381 . S
C527 C528 1.321 . S
C528 C527 1.321 . S
C528 C529 1.403 . S
C528 H554 0.934 . S
C529 C524 1.413 . S
C529 C528 1.403 . S
C529 H555 0.930 . S
C530 O544 1.275 . S
C530 O545 1.256 . S
C531 O546 1.259 . S
C531 O547 1.268 . S
C532 Ho521 2.811 1_565 S
C532 C533 1.488 . S
C532 O548 1.215 . S
C532 O549 1.289 . S
C533 C532 1.488 . S
C533 C534 1.348 . S
C533 C538 1.413 . S
C534 C533 1.348 . S
C534 C535 1.442 . S
C534 H556 0.930 . S
C535 C534 1.442 . S
C535 C536 1.381 . S
C535 H557 0.931 . S
C536 C535 1.381 . S
C536 C537 1.321 . S
C537 C536 1.321 . S
C537 C538 1.403 . S
C537 H558 0.934 . S
C538 C533 1.413 . S
C538 C537 1.403 . S
C538 H559 0.930 . S
C539 O550 1.275 . S
C539 O551 1.256 . S
O540 Ho520 2.322 1_545 S
O540 C522 1.259 . S
O541 Ho521 2.346 1_554 S
O541 C522 1.268 . S
O542 Ho520 2.378 1_545 S
O542 C523 1.215 . S
O543 Ho520 2.524 1_545 S
O543 C523 1.289 . S
O544 Ho520 2.381 . S
O544 C530 1.275 . S
O545 Ho520 2.669 . S
O545 Ho521 2.305 1_564 S
O545 C530 1.256 . S
O546 Ho521 2.322 1_565 S
O546 C531 1.259 . S
O547 Ho520 2.346 1_556 S
O547 C531 1.268 . S
O548 Ho521 2.378 1_565 S
O548 C532 1.215 . S
O549 Ho521 2.524 1_565 S
O549 C532 1.289 . S
O550 Ho521 2.381 . S
O550 C539 1.275 . S
O551 Ho520 2.305 1_546 S
O551 Ho521 2.669 . S
O551 C539 1.256 . S
H552 C525 0.930 . S
H553 C526 0.931 . S
H554 C528 0.934 . S
H555 C529 0.930 . S
H556 C534 0.930 . S
H557 C535 0.931 . S
H558 C537 0.934 . S
H559 C538 0.930 . S
Ho560 C563 2.811 . S
Ho560 O580 2.322 . S
Ho560 O582 2.378 . S
Ho560 O583 2.524 . S
Ho560 O584 2.381 . S
Ho560 O585 2.669 . S
Ho560 O587 2.346 . S
Ho560 O591 2.305 . S
Ho561 C572 2.811 . S
Ho561 O581 2.346 . S
Ho561 O585 2.305 . S
Ho561 O586 2.322 . S
Ho561 O588 2.378 . S
Ho561 O589 2.524 . S
Ho561 O590 2.381 . S
Ho561 O591 2.669 . S
C562 O580 1.259 . S
C562 O581 1.268 . S
C563 Ho560 2.811 . S
C563 C564 1.488 . S
C563 O582 1.215 . S
C563 O583 1.289 . S
C564 C563 1.488 . S
C564 C565 1.348 . S
C564 C569 1.413 . S
C565 C564 1.348 . S
C565 C566 1.442 . S
C565 H592 0.930 . S
C566 C565 1.442 . S
C566 C567 1.381 . S
C566 H593 0.931 . S
C567 C566 1.381 . S
C567 C568 1.321 . S
C568 C567 1.321 . S
C568 C569 1.403 . S
C568 H594 0.934 . S
C569 C564 1.413 . S
C569 C568 1.403 . S
C569 H595 0.930 . S
C570 O584 1.275 . S
C570 O585 1.256 . S
C571 O586 1.259 . S
C571 O587 1.268 . S
C572 Ho561 2.811 . S
C572 C573 1.488 . S
C572 O588 1.215 . S
C572 O589 1.289 . S
C573 C572 1.488 . S
C573 C574 1.348 . S
C573 C578 1.413 . S
C574 C573 1.348 . S
C574 C575 1.442 . S
C574 H596 0.930 . S
C575 C574 1.442 . S
C575 C576 1.381 . S
C575 H597 0.931 . S
C576 C575 1.381 . S
C576 C577 1.321 . S
C577 C576 1.321 . S
C577 C578 1.403 . S
C577 H598 0.934 . S
C578 C573 1.413 . S
C578 C577 1.403 . S
C578 H599 0.930 . S
C579 O590 1.275 . S
C579 O591 1.256 . S
O580 Ho560 2.322 . S
O580 C562 1.259 . S
O581 Ho561 2.346 . S
O581 C562 1.268 . S
O582 Ho560 2.378 . S
O582 C563 1.215 . S
O583 Ho560 2.524 . S
O583 C563 1.289 . S
O584 Ho560 2.381 . S
O584 C570 1.275 . S
O585 Ho560 2.669 . S
O585 Ho561 2.305 . S
O585 C570 1.256 . S
O586 Ho561 2.322 . S
O586 C571 1.259 . S
O587 Ho560 2.346 . S
O587 C571 1.268 . S
O588 Ho561 2.378 . S
O588 C572 1.215 . S
O589 Ho561 2.524 . S
O589 C572 1.289 . S
O590 Ho561 2.381 . S
O590 C579 1.275 . S
O591 Ho560 2.305 . S
O591 Ho561 2.669 . S
O591 C579 1.256 . S
H592 C565 0.930 . S
H593 C566 0.931 . S
H594 C568 0.934 . S
H595 C569 0.930 . S
H596 C574 0.930 . S
H597 C575 0.931 . S
H598 C577 0.934 . S
H599 C578 0.930 . S
Ho600 C603 2.811 . S
Ho600 O620 2.322 . S
Ho600 O622 2.378 . S
Ho600 O623 2.524 . S
Ho600 O624 2.381 1_455 S
Ho600 O625 2.669 1_455 S
Ho600 O627 2.346 1_454 S
Ho600 O631 2.305 1_554 S
Ho601 C612 2.811 . S
Ho601 O621 2.346 1_656 S
Ho601 O625 2.305 1_556 S
Ho601 O626 2.322 . S
Ho601 O628 2.378 . S
Ho601 O629 2.524 . S
Ho601 O630 2.381 1_655 S
Ho601 O631 2.669 1_655 S
C602 O620 1.259 . S
C602 O621 1.268 . S
C603 Ho600 2.811 . S
C603 C604 1.488 . S
C603 O622 1.215 . S
C603 O623 1.289 . S
C604 C603 1.488 . S
C604 C605 1.348 . S
C604 C609 1.413 . S
C605 C604 1.348 . S
C605 C606 1.442 . S
C605 H632 0.930 . S
C606 C605 1.442 . S
C606 C607 1.381 . S
C606 H633 0.931 . S
C607 C606 1.381 . S
C607 C608 1.321 . S
C608 C607 1.321 . S
C608 C609 1.403 . S
C608 H634 0.934 . S
C609 C604 1.413 . S
C609 C608 1.403 . S
C609 H635 0.930 . S
C610 O624 1.275 . S
C610 O625 1.256 . S
C611 O626 1.259 . S
C611 O627 1.268 . S
C612 Ho601 2.811 . S
C612 C613 1.488 . S
C612 O628 1.215 . S
C612 O629 1.289 . S
C613 C612 1.488 . S
C613 C614 1.348 . S
C613 C618 1.413 . S
C614 C613 1.348 . S
C614 C615 1.442 . S
C614 H636 0.930 . S
C615 C614 1.442 . S
C615 C616 1.381 . S
C615 H637 0.931 . S
C616 C615 1.381 . S
C616 C617 1.321 . S
C617 C616 1.321 . S
C617 C618 1.403 . S
C617 H638 0.934 . S
C618 C613 1.413 . S
C618 C617 1.403 . S
C618 H639 0.930 . S
C619 O630 1.275 . S
C619 O631 1.256 . S
O620 Ho600 2.322 . S
O620 C602 1.259 . S
O621 Ho601 2.346 1_454 S
O621 C602 1.268 . S
O622 Ho600 2.378 . S
O622 C603 1.215 . S
O623 Ho600 2.524 . S
O623 C603 1.289 . S
O624 Ho600 2.381 1_655 S
O624 C610 1.275 . S
O625 Ho600 2.669 1_655 S
O625 Ho601 2.305 1_554 S
O625 C610 1.256 . S
O626 Ho601 2.322 . S
O626 C611 1.259 . S
O627 Ho600 2.346 1_656 S
O627 C611 1.268 . S
O628 Ho601 2.378 . S
O628 C612 1.215 . S
O629 Ho601 2.524 . S
O629 C612 1.289 . S
O630 Ho601 2.381 1_455 S
O630 C619 1.275 . S
O631 Ho600 2.305 1_556 S
O631 Ho601 2.669 1_455 S
O631 C619 1.256 . S
H632 C605 0.930 . S
H633 C606 0.931 . S
H634 C608 0.934 . S
H635 C609 0.930 . S
H636 C614 0.930 . S
H637 C615 0.931 . S
H638 C617 0.934 . S
H639 C618 0.930 . S
C640 C641 1.369 . S
C640 C642 1.419 . S
C640 H644 0.930 . S
C641 C640 1.369 . S
C641 C650 1.429 . S
C642 C640 1.419 . S
C642 C643 1.363 . S
C642 H645 0.929 . S
C643 C642 1.363 . S
C643 C649 1.428 . S
H644 C640 0.930 . S
H645 C642 0.929 . S
S646 N647 1.613 . S
S646 N648 1.610 . S
N647 S646 1.613 . S
N647 C650 1.350 . S
N648 S646 1.610 . S
N648 C649 1.351 . S
C649 C643 1.428 . S
C649 N648 1.351 . S
C649 C650 1.434 . S
C650 C641 1.429 . S
C650 N647 1.350 . S
C650 C649 1.434 . S
C651 C652 1.369 . S
C651 C653 1.419 . S
C651 H655 0.930 . S
C652 C651 1.369 . S
C652 C661 1.429 . S
C653 C651 1.419 . S
C653 C654 1.363 . S
C653 H656 0.929 . S
C654 C653 1.363 . S
C654 C660 1.428 . S
H655 C651 0.930 . S
H656 C653 0.929 . S
S657 N658 1.613 . S
S657 N659 1.610 . S
N658 S657 1.613 . S
N658 C661 1.350 . S
N659 S657 1.610 . S
N659 C660 1.351 . S
C660 C654 1.428 . S
C660 N659 1.351 . S
C660 C661 1.434 . S
C661 C652 1.429 . S
C661 N658 1.350 . S
C661 C660 1.434 . S
C662 C663 1.369 . S
C662 C664 1.419 . S
C662 H666 0.930 . S
C663 C662 1.369 . S
C663 C672 1.429 . S
C664 C662 1.419 . S
C664 C665 1.363 . S
C664 H667 0.929 . S
C665 C664 1.363 . S
C665 C671 1.428 . S
H666 C662 0.930 . S
H667 C664 0.929 . S
S668 N669 1.613 . S
S668 N670 1.610 . S
N669 S668 1.613 . S
N669 C672 1.350 . S
N670 S668 1.610 . S
N670 C671 1.351 . S
C671 C665 1.428 . S
C671 N670 1.351 . S
C671 C672 1.434 . S
C672 C663 1.429 . S
C672 N669 1.350 . S
C672 C671 1.434 . S
C673 C674 1.369 . S
C673 C675 1.419 . S
C673 H677 0.930 . S
C674 C673 1.369 . S
C674 C683 1.429 . S
C675 C673 1.419 . S
C675 C676 1.363 . S
C675 H678 0.929 . S
C676 C675 1.363 . S
C676 C682 1.428 . S
H677 C673 0.930 . S
H678 C675 0.929 . S
S679 N680 1.613 1_455 S
S679 N681 1.610 . S
N680 S679 1.613 1_655 S
N680 C683 1.350 . S
N681 S679 1.610 . S
N681 C682 1.351 1_455 S
C682 C676 1.428 . S
C682 N681 1.351 1_655 S
C682 C683 1.434 . S
C683 C674 1.429 . S
C683 N680 1.350 . S
C683 C682 1.434 . S
C684 C685 1.369 . S
C684 C686 1.419 . S
C684 H688 0.930 . S
C685 C684 1.369 . S
C685 C694 1.429 . S
C686 C684 1.419 . S
C686 C687 1.363 . S
C686 H689 0.929 . S
C687 C686 1.363 . S
C687 C693 1.428 . S
H688 C684 0.930 . S
H689 C686 0.929 . S
S690 N691 1.613 . S
S690 N692 1.610 . S
N691 S690 1.613 . S
N691 C694 1.350 . S
N692 S690 1.610 . S
N692 C693 1.351 . S
C693 C687 1.428 . S
C693 N692 1.351 . S
C693 C694 1.434 . S
C694 C685 1.429 . S
C694 N691 1.350 . S
C694 C693 1.434 . S
C695 C696 1.369 . S
C695 C697 1.419 . S
C695 H699 0.930 . S
C696 C695 1.369 . S
C696 C705 1.429 . S
C697 C695 1.419 . S
C697 C698 1.363 . S
C697 H700 0.929 . S
C698 C697 1.363 . S
C698 C704 1.428 . S
H699 C695 0.930 . S
H700 C697 0.929 . S
S701 N702 1.613 . S
S701 N703 1.610 . S
N702 S701 1.613 . S
N702 C705 1.350 . S
N703 S701 1.610 . S
N703 C704 1.351 . S
C704 C698 1.428 . S
C704 N703 1.351 . S
C704 C705 1.434 . S
C705 C696 1.429 . S
C705 N702 1.350 . S
C705 C704 1.434 . S
C706 C707 1.369 . S
C706 C708 1.419 . S
C706 H710 0.930 . S
C707 C706 1.369 . S
C707 C716 1.429 . S
C708 C706 1.419 . S
C708 C709 1.363 . S
C708 H711 0.929 . S
C709 C708 1.363 . S
C709 C715 1.428 . S
H710 C706 0.930 . S
H711 C708 0.929 . S
S712 N713 1.613 . S
S712 N714 1.610 . S
N713 S712 1.613 . S
N713 C716 1.350 . S
N714 S712 1.610 . S
N714 C715 1.351 . S
C715 C709 1.428 . S
C715 N714 1.351 . S
C715 C716 1.434 . S
C716 C707 1.429 . S
C716 N713 1.350 . S
C716 C715 1.434 . S
C717 C718 1.369 . S
C717 C719 1.419 . S
C717 H721 0.930 . S
C718 C717 1.369 . S
C718 C727 1.429 . S
C719 C717 1.419 . S
C719 C720 1.363 . S
C719 H722 0.929 . S
C720 C719 1.363 . S
C720 C726 1.428 . S
H721 C717 0.930 . S
H722 C719 0.929 . S
S723 N724 1.613 . S
S723 N725 1.610 . S
N724 S723 1.613 . S
N724 C727 1.350 . S
N725 S723 1.610 . S
N725 C726 1.351 . S
C726 C720 1.428 . S
C726 N725 1.351 . S
C726 C727 1.434 . S
C727 C718 1.429 . S
C727 N724 1.350 . S
C727 C726 1.434 . S
C728 C729 1.369 . S
C728 C730 1.419 . S
C728 H732 0.930 . S
C729 C728 1.369 . S
C729 C738 1.429 . S
C730 C728 1.419 . S
C730 C731 1.363 . S
C730 H733 0.929 . S
C731 C730 1.363 . S
C731 C737 1.428 . S
H732 C728 0.930 . S
H733 C730 0.929 . S
S734 N735 1.613 . S
S734 N736 1.610 . S
N735 S734 1.613 . S
N735 C738 1.350 . S
N736 S734 1.610 . S
N736 C737 1.351 . S
C737 C731 1.428 . S
C737 N736 1.351 . S
C737 C738 1.434 . S
C738 C729 1.429 . S
C738 N735 1.350 . S
C738 C737 1.434 . S
C739 C740 1.369 . S
C739 C741 1.419 . S
C739 H743 0.930 . S
C740 C739 1.369 . S
C740 C749 1.429 . S
C741 C739 1.419 . S
C741 C742 1.363 . S
C741 H744 0.929 . S
C742 C741 1.363 . S
C742 C748 1.428 . S
H743 C739 0.930 . S
H744 C741 0.929 . S
S745 N746 1.613 . S
S745 N747 1.610 . S
N746 S745 1.613 . S
N746 C749 1.350 . S
N747 S745 1.610 . S
N747 C748 1.351 . S
C748 C742 1.428 . S
C748 N747 1.351 . S
C748 C749 1.434 . S
C749 C740 1.429 . S
C749 N746 1.350 . S
C749 C748 1.434 . S
C750 C751 1.369 . S
C750 C752 1.419 . S
C750 H754 0.930 . S
C751 C750 1.369 . S
C751 C760 1.429 . S
C752 C750 1.419 . S
C752 C753 1.363 . S
C752 H755 0.929 . S
C753 C752 1.363 . S
C753 C759 1.428 . S
H754 C750 0.930 . S
H755 C752 0.929 . S
S756 N757 1.613 1_455 S
S756 N758 1.610 1_455 S
N757 S756 1.613 1_655 S
N757 C760 1.350 . S
N758 S756 1.610 1_655 S
N758 C759 1.351 . S
C759 C753 1.428 . S
C759 N758 1.351 . S
C759 C760 1.434 . S
C760 C751 1.429 . S
C760 N757 1.350 . S
C760 C759 1.434 . S
C761 C762 1.369 . S
C761 C763 1.419 . S
C761 H765 0.930 . S
C762 C761 1.369 . S
C762 C771 1.429 . S
C763 C761 1.419 . S
C763 C764 1.363 . S
C763 H766 0.929 . S
C764 C763 1.363 . S
C764 C770 1.428 . S
H765 C761 0.930 . S
H766 C763 0.929 . S
S767 N768 1.613 . S
S767 N769 1.610 . S
N768 S767 1.613 . S
N768 C771 1.350 . S
N769 S767 1.610 . S
N769 C770 1.351 . S
C770 C764 1.428 . S
C770 N769 1.351 . S
C770 C771 1.434 . S
C771 C762 1.429 . S
C771 N768 1.350 . S
C771 C770 1.434 . S
C772 C773 1.369 . S
C772 C774 1.419 . S
C772 H776 0.930 . S
C773 C772 1.369 . S
C773 C782 1.429 . S
C774 C772 1.419 . S
C774 C775 1.363 . S
C774 H777 0.929 . S
C775 C774 1.363 . S
C775 C781 1.428 . S
H776 C772 0.930 . S
H777 C774 0.929 . S
S778 N779 1.613 . S
S778 N780 1.610 . S
N779 S778 1.613 . S
N779 C782 1.350 . S
N780 S778 1.610 . S
N780 C781 1.351 . S
C781 C775 1.428 . S
C781 N780 1.351 . S
C781 C782 1.434 . S
C782 C773 1.429 . S
C782 N779 1.350 . S
C782 C781 1.434 . S
C783 C784 1.369 . S
C783 C785 1.419 . S
C783 H787 0.930 . S
C784 C783 1.369 . S
C784 C793 1.429 . S
C785 C783 1.419 . S
C785 C786 1.363 . S
C785 H788 0.929 . S
C786 C785 1.363 . S
C786 C792 1.428 . S
H787 C783 0.930 . S
H788 C785 0.929 . S
S789 N790 1.613 . S
S789 N791 1.610 . S
N790 S789 1.613 . S
N790 C793 1.350 . S
N791 S789 1.610 . S
N791 C792 1.351 . S
C792 C786 1.428 . S
C792 N791 1.351 . S
C792 C793 1.434 . S
C793 C784 1.429 . S
C793 N790 1.350 . S
C793 C792 1.434 . S
C794 C795 1.369 . S
C794 C796 1.419 . S
C794 H798 0.930 . S
C795 C794 1.369 . S
C795 C804 1.429 . S
C796 C794 1.419 . S
C796 C797 1.363 . S
C796 H799 0.929 . S
C797 C796 1.363 . S
C797 C803 1.428 . S
H798 C794 0.930 . S
H799 C796 0.929 . S
S800 N801 1.613 . S
S800 N802 1.610 . S
N801 S800 1.613 . S
N801 C804 1.350 . S
N802 S800 1.610 . S
N802 C803 1.351 . S
C803 C797 1.428 . S
C803 N802 1.351 . S
C803 C804 1.434 . S
C804 C795 1.429 . S
C804 N801 1.350 . S
C804 C803 1.434 . S
C805 C806 1.369 . S
C805 C807 1.419 . S
C805 H809 0.930 . S
C806 C805 1.369 . S
C806 C815 1.429 . S
C807 C805 1.419 . S
C807 C808 1.363 . S
C807 H810 0.929 . S
C808 C807 1.363 . S
C808 C814 1.428 . S
H809 C805 0.930 . S
H810 C807 0.929 . S
S811 N812 1.613 . S
S811 N813 1.610 . S
N812 S811 1.613 . S
N812 C815 1.350 . S
N813 S811 1.610 . S
N813 C814 1.351 . S
C814 C808 1.428 . S
C814 N813 1.351 . S
C814 C815 1.434 . S
C815 C806 1.429 . S
C815 N812 1.350 . S
C815 C814 1.434 . S
C816 C817 1.369 . S
C816 C818 1.419 . S
C816 H820 0.930 . S
C817 C816 1.369 . S
C817 C826 1.429 . S
C818 C816 1.419 . S
C818 C819 1.363 . S
C818 H821 0.929 . S
C819 C818 1.363 . S
C819 C825 1.428 . S
H820 C816 0.930 . S
H821 C818 0.929 . S
S822 N823 1.613 . S
S822 N824 1.610 . S
N823 S822 1.613 . S
N823 C826 1.350 . S
N824 S822 1.610 . S
N824 C825 1.351 . S
C825 C819 1.428 . S
C825 N824 1.351 . S
C825 C826 1.434 . S
C826 C817 1.429 . S
C826 N823 1.350 . S
C826 C825 1.434 . S
C827 C828 1.369 . S
C827 C829 1.419 . S
C827 H831 0.930 . S
C828 C827 1.369 . S
C828 C837 1.429 . S
C829 C827 1.419 . S
C829 C830 1.363 . S
C829 H832 0.929 . S
C830 C829 1.363 . S
C830 C836 1.428 . S
H831 C827 0.930 . S
H832 C829 0.929 . S
S833 N834 1.613 . S
S833 N835 1.610 . S
N834 S833 1.613 . S
N834 C837 1.350 . S
N835 S833 1.610 . S
N835 C836 1.351 . S
C836 C830 1.428 . S
C836 N835 1.351 . S
C836 C837 1.434 . S
C837 C828 1.429 . S
C837 N834 1.350 . S
C837 C836 1.434 . S
C838 C839 1.369 . S
C838 C840 1.419 . S
C838 H842 0.930 . S
C839 C838 1.369 . S
C839 C848 1.429 . S
C840 C838 1.419 . S
C840 C841 1.363 . S
C840 H843 0.929 . S
C841 C840 1.363 . S
C841 C847 1.428 . S
H842 C838 0.930 . S
H843 C840 0.929 . S
S844 N845 1.613 . S
S844 N846 1.610 . S
N845 S844 1.613 . S
N845 C848 1.350 . S
N846 S844 1.610 . S
N846 C847 1.351 . S
C847 C841 1.428 . S
C847 N846 1.351 . S
C847 C848 1.434 . S
C848 C839 1.429 . S
C848 N845 1.350 . S
C848 C847 1.434 . S
C849 C850 1.369 . S
C849 C851 1.419 . S
C849 H853 0.930 . S
C850 C849 1.369 . S
C850 C859 1.429 . S
C851 C849 1.419 . S
C851 C852 1.363 . S
C851 H854 0.929 . S
C852 C851 1.363 . S
C852 C858 1.428 . S
H853 C849 0.930 . S
H854 C851 0.929 . S
S855 N856 1.613 . S
S855 N857 1.610 . S
N856 S855 1.613 . S
N856 C859 1.350 . S
N857 S855 1.610 . S
N857 C858 1.351 . S
C858 C852 1.428 . S
C858 N857 1.351 . S
C858 C859 1.434 . S
C859 C850 1.429 . S
C859 N856 1.350 . S
C859 C858 1.434 . S
C860 C861 1.369 . S
C860 C862 1.419 . S
C860 H864 0.930 . S
C861 C860 1.369 . S
C861 C870 1.429 . S
C862 C860 1.419 . S
C862 C863 1.363 . S
C862 H865 0.929 . S
C863 C862 1.363 . S
C863 C869 1.428 . S
H864 C860 0.930 . S
H865 C862 0.929 . S
S866 N867 1.613 . S
S866 N868 1.610 . S
N867 S866 1.613 . S
N867 C870 1.350 . S
N868 S866 1.610 . S
N868 C869 1.351 . S
C869 C863 1.428 . S
C869 N868 1.351 . S
C869 C870 1.434 . S
C870 C861 1.429 . S
C870 N867 1.350 . S
C870 C869 1.434 . S
C871 C872 1.369 . S
C871 C873 1.419 . S
C871 H875 0.930 . S
C872 C871 1.369 . S
C872 C881 1.429 . S
C873 C871 1.419 . S
C873 C874 1.363 . S
C873 H876 0.929 . S
C874 C873 1.363 . S
C874 C880 1.428 . S
H875 C871 0.930 . S
H876 C873 0.929 . S
S877 N878 1.613 . S
S877 N879 1.610 . S
N878 S877 1.613 . S
N878 C881 1.350 . S
N879 S877 1.610 . S
N879 C880 1.351 . S
C880 C874 1.428 . S
C880 N879 1.351 . S
C880 C881 1.434 . S
C881 C872 1.429 . S
C881 N878 1.350 . S
C881 C880 1.434 . S
C882 C883 1.369 . S
C882 C884 1.419 . S
C882 H886 0.930 . S
C883 C882 1.369 . S
C883 C892 1.429 . S
C884 C882 1.419 . S
C884 C885 1.363 . S
C884 H887 0.929 . S
C885 C884 1.363 . S
C885 C891 1.428 . S
H886 C882 0.930 . S
H887 C884 0.929 . S
S888 N889 1.613 . S
S888 N890 1.610 . S
N889 S888 1.613 . S
N889 C892 1.350 . S
N890 S888 1.610 . S
N890 C891 1.351 . S
C891 C885 1.428 . S
C891 N890 1.351 . S
C891 C892 1.434 . S
C892 C883 1.429 . S
C892 N889 1.350 . S
C892 C891 1.434 . S
C893 C894 1.369 . S
C893 C895 1.419 . S
C893 H897 0.930 . S
C894 C893 1.369 . S
C894 C903 1.429 . S
C895 C893 1.419 . S
C895 C896 1.363 . S
C895 H898 0.929 . S
C896 C895 1.363 . S
C896 C902 1.428 . S
H897 C893 0.930 . S
H898 C895 0.929 . S
S899 N900 1.613 . S
S899 N901 1.610 . S
N900 S899 1.613 . S
N900 C903 1.350 . S
N901 S899 1.610 . S
N901 C902 1.351 . S
C902 C896 1.428 . S
C902 N901 1.351 . S
C902 C903 1.434 . S
C903 C894 1.429 . S
C903 N900 1.350 . S
C903 C902 1.434 . S
C641 C1 1.199 . S
C643 C487 1.404 . S
C652 C80 1.019 . S
C654 C536 1.096 . S
C665 C562 2.498 . S
C663 C140 2.486 . S
C674 C211 2.427 . S
C676 C610 2.404 . S
C687 C522 2.626 . S
C685 C31 2.243 . S
C698 C490 0.857 . S
C696 C61 0.853 . S
C709 C611 1.927 . S
C707 C151 1.955 . S
C720 C579 1.704 . S
C718 C200 1.703 . S
C729 C20 1.694 . S
C731 C607 1.832 . S
C742 C539 2.347 . S
C740 C121 2.428 . S
C751 C181 2.304 . S
C753 C491 2.352 . S
C762 C91 1.149 . S
C764 C576 1.138 . S
C775 C496 1.404 . S
C773 C260 1.288 . S
C784 C320 1.025 . S
C786 C527 1.092 . S
C795 C361 2.494 . S
C797 C571 2.495 . S
C806 C451 2.430 . S
C808 C619 2.405 . S
C817 C271 2.347 . S
C819 C531 2.625 . S
C830 C499 0.866 . S
C828 C301 0.835 . S
C841 C602 1.928 . S
C839 C380 1.926 . S
C852 C570 1.704 . S
C850 C440 1.699 . S
C861 C241 1.564 . S
C863 C616 1.831 . S
C874 C530 2.347 . S
C872 C391 2.424 . S
C885 C482 2.352 . S
C883 C421 2.303 . S
C894 C331 1.148 . S
C896 C567 1.136 . S
