# Generated by pormake.
# Topology wbl, (4,4)-cn, num edge types: 1
# Building blocks:
#     Node 0, Type 0, BuildingBlock: MIFKUJ_clean_linker_1, # of connection points: 4
#     Node 1, Type 0, BuildingBlock: MIFKUJ_clean_linker_1, # of connection points: 4
#     Node 2, Type 0, BuildingBlock: MIFKUJ_clean_linker_1, # of connection points: 4
#     Node 3, Type 0, BuildingBlock: MIFKUJ_clean_linker_1, # of connection points: 4
#     Node 4, Type 0, BuildingBlock: MIFKUJ_clean_linker_1, # of connection points: 4
#     Node 5, Type 0, BuildingBlock: MIFKUJ_clean_linker_1, # of connection points: 4
#     Node 6, Type 0, BuildingBlock: MIFKUJ_clean_linker_1, # of connection points: 4
#     Node 7, Type 0, BuildingBlock: MIFKUJ_clean_linker_1, # of connection points: 4
#     Node 8, Type 1, BuildingBlock: QUQFOY_clean_sbu_1, # of connection points: 4
#     Node 9, Type 1, BuildingBlock: QUQFOY_clean_sbu_1, # of connection points: 4
#     Node 10, Type 1, BuildingBlock: QUQFOY_clean_sbu_1, # of connection points: 4
#     Node 11, Type 1, BuildingBlock: QUQFOY_clean_sbu_1, # of connection points: 4
#     Node 12, Type 1, BuildingBlock: QUQFOY_clean_sbu_1, # of connection points: 4
#     Node 13, Type 1, BuildingBlock: QUQFOY_clean_sbu_1, # of connection points: 4
#     Node 14, Type 1, BuildingBlock: QUQFOY_clean_sbu_1, # of connection points: 4
#     Node 15, Type 1, BuildingBlock: QUQFOY_clean_sbu_1, # of connection points: 4
#     Edge 16, Type (0, 1), BuildingBlock: TEMPAE_clean_linker_10, # of connection points: 2
#     Edge 17, Type (0, 1), BuildingBlock: TEMPAE_clean_linker_10, # of connection points: 2
#     Edge 18, Type (0, 1), BuildingBlock: TEMPAE_clean_linker_10, # of connection points: 2
#     Edge 19, Type (0, 1), BuildingBlock: TEMPAE_clean_linker_10, # of connection points: 2
#     Edge 20, Type (0, 1), BuildingBlock: TEMPAE_clean_linker_10, # of connection points: 2
#     Edge 21, Type (0, 1), BuildingBlock: TEMPAE_clean_linker_10, # of connection points: 2
#     Edge 22, Type (0, 1), BuildingBlock: TEMPAE_clean_linker_10, # of connection points: 2
#     Edge 23, Type (0, 1), BuildingBlock: TEMPAE_clean_linker_10, # of connection points: 2
#     Edge 24, Type (0, 1), BuildingBlock: TEMPAE_clean_linker_10, # of connection points: 2
#     Edge 25, Type (0, 1), BuildingBlock: TEMPAE_clean_linker_10, # of connection points: 2
#     Edge 26, Type (0, 1), BuildingBlock: TEMPAE_clean_linker_10, # of connection points: 2
#     Edge 27, Type (0, 1), BuildingBlock: TEMPAE_clean_linker_10, # of connection points: 2
#     Edge 28, Type (0, 1), BuildingBlock: TEMPAE_clean_linker_10, # of connection points: 2
#     Edge 29, Type (0, 1), BuildingBlock: TEMPAE_clean_linker_10, # of connection points: 2
#     Edge 30, Type (0, 1), BuildingBlock: TEMPAE_clean_linker_10, # of connection points: 2
#     Edge 31, Type (0, 1), BuildingBlock: TEMPAE_clean_linker_10, # of connection points: 2
#     Edge 32, Type (0, 1), BuildingBlock: TEMPAE_clean_linker_10, # of connection points: 2
#     Edge 33, Type (0, 1), BuildingBlock: TEMPAE_clean_linker_10, # of connection points: 2
#     Edge 34, Type (0, 1), BuildingBlock: TEMPAE_clean_linker_10, # of connection points: 2
#     Edge 35, Type (0, 1), BuildingBlock: TEMPAE_clean_linker_10, # of connection points: 2
#     Edge 36, Type (0, 1), BuildingBlock: TEMPAE_clean_linker_10, # of connection points: 2
#     Edge 37, Type (0, 1), BuildingBlock: TEMPAE_clean_linker_10, # of connection points: 2
#     Edge 38, Type (0, 1), BuildingBlock: TEMPAE_clean_linker_10, # of connection points: 2
#     Edge 39, Type (0, 1), BuildingBlock: TEMPAE_clean_linker_10, # of connection points: 2
#     Edge 40, Type (0, 1), BuildingBlock: TEMPAE_clean_linker_10, # of connection points: 2
#     Edge 41, Type (0, 1), BuildingBlock: TEMPAE_clean_linker_10, # of connection points: 2
#     Edge 42, Type (0, 1), BuildingBlock: TEMPAE_clean_linker_10, # of connection points: 2
#     Edge 43, Type (0, 1), BuildingBlock: TEMPAE_clean_linker_10, # of connection points: 2
#     Edge 44, Type (0, 1), BuildingBlock: TEMPAE_clean_linker_10, # of connection points: 2
#     Edge 45, Type (0, 1), BuildingBlock: TEMPAE_clean_linker_10, # of connection points: 2
#     Edge 46, Type (0, 1), BuildingBlock: TEMPAE_clean_linker_10, # of connection points: 2
#     Edge 47, Type (0, 1), BuildingBlock: TEMPAE_clean_linker_10, # of connection points: 2
# Relax obj value: 0.175
# Max RMSD: 0.210
# Mean RMSD: 0.159
data_MOF--net-wbl--node1-QUQFOY_clean_sbu_1--node2-MIFKUJ_clean_linker_1--edge1-TEMPAE_clean_linker_10
_symmetry_space_group_name_H-M    P1
_symmetry_Int_Tables_number       1
_symmetry_cell_setting            triclinic
loop_
_symmetry_equiv_pos_as_xyz
'x, y, z'
_cell_length_a     46.254088
_cell_length_b     46.244624
_cell_length_c     77.339289
_cell_angle_alpha  93.505448
_cell_angle_beta   93.456093
_cell_angle_gamma 90.270351
loop_
_atom_site_label
_atom_site_type_symbol
_atom_site_fract_x
_atom_site_fract_y
_atom_site_fract_z
_atom_type_partial_charge
H0 H 0.15712 0.15662 0.38911 0.0
H1 H 0.12672 0.18446 0.40845 0.0
H2 H 0.0504 0.15146 0.37835 0.0
H3 H 0.08092 0.12133 0.36026 0.0
H4 H 0.16149 0.10141 0.38533 0.0
H5 H 0.13176 0.17442 0.34504 0.0
H6 H 0.09173 0.20156 0.33174 0.0
H7 H 0.05584 0.12169 0.3073 0.0
H8 H 0.09563 0.09486 0.32058 0.0
H9 H 0.15491 0.03323 0.32123 0.0
H10 H 0.18378 0.99598 0.30666 0.0
H11 H 0.26208 0.03796 0.32928 0.0
H12 H 0.233 0.07446 0.34422 0.0
H13 H 0.15285 0.09323 0.32099 0.0
H14 H 0.17366 0.02069 0.36081 0.0
H15 H 0.19868 0.98803 0.38029 0.0
H16 H 0.2433 0.06131 0.40739 0.0
H17 H 0.21901 0.09368 0.38748 0.0
C18 C 0.12146 0.13706 0.37304 0.0
C19 C 0.13382 0.15537 0.38668 0.0
C20 C 0.1163 0.17167 0.39762 0.0
C21 C 0.0859 0.17046 0.39504 0.0
C22 C 0.07362 0.15271 0.38102 0.0
C23 C 0.09116 0.13579 0.37038 0.0
C24 C 0.1403 0.11789 0.36245 0.0
C25 C 0.16014 0.10027 0.37125 0.0
C26 C 0.1377 0.11538 0.34405 0.0
C27 C 0.11643 0.13257 0.33399 0.0
C28 C 0.11546 0.16288 0.3366 0.0
C29 C 0.09259 0.17833 0.32904 0.0
C30 C 0.07056 0.16374 0.31856 0.0
C31 C 0.07264 0.13363 0.31513 0.0
C32 C 0.09537 0.11823 0.32274 0.0
C33 C 0.19184 0.05638 0.33392 0.0
C34 C 0.17831 0.0345 0.32288 0.0
C35 C 0.19486 0.01329 0.31452 0.0
C36 C 0.22527 0.0138 0.31691 0.0
C37 C 0.23871 0.03652 0.32745 0.0
C38 C 0.22215 0.05751 0.33592 0.0
C39 C 0.17427 0.07732 0.34396 0.0
C40 C 0.15475 0.09512 0.33506 0.0
C41 C 0.1768 0.07976 0.3623 0.0
C42 C 0.19461 0.05963 0.37262 0.0
C43 C 0.18947 0.02962 0.37062 0.0
C44 C 0.20355 0.01101 0.38188 0.0
C45 C 0.22287 0.02208 0.39544 0.0
C46 C 0.22885 0.05202 0.39695 0.0
C47 C 0.21481 0.07059 0.38567 0.0
H48 H 0.03211 0.58465 0.56067 0.0
H49 H 0.01024 0.54347 0.54319 0.0
H50 H 0.92589 0.56846 0.55941 0.0
H51 H 0.94747 0.61077 0.57619 0.0
H52 H 0.03176 0.64014 0.56438 0.0
H53 H 0.99716 0.56291 0.59727 0.0
H54 H 0.96525 0.53053 0.61115 0.0
H55 H 0.92496 0.60483 0.63628 0.0
H56 H 0.95498 0.63684 0.62108 0.0
H57 H 0.01889 0.69771 0.63284 0.0
H58 H 0.04775 0.72097 0.65738 0.0
H59 H 0.12484 0.68094 0.63827 0.0
H60 H 0.09565 0.65675 0.61421 0.0
H61 H 0.01099 0.64119 0.62656 0.0
H62 H 0.04979 0.71761 0.5963 0.0
H63 H 0.08981 0.74797 0.58849 0.0
H64 H 0.12721 0.6739 0.5617 0.0
H65 H 0.08753 0.64329 0.56997 0.0
C66 C 0.99153 0.60047 0.57009 0.0
C67 C 0.00878 0.58201 0.55998 0.0
C68 C 0.99633 0.5585 0.55 0.0
C69 C 0.96654 0.55298 0.5501 0.0
C70 C 0.94895 0.5725 0.55917 0.0
C71 C 0.9613 0.59644 0.56884 0.0
C72 C 0.00563 0.6217 0.58317 0.0
C73 C 0.02717 0.64035 0.57798 0.0
C74 C -0.00065 0.62241 0.60093 0.0
C75 C 0.97831 0.6024 0.60795 0.0
C76 C 0.98076 0.57221 0.6053 0.0
C77 C 0.96273 0.55367 0.6135 0.0
C78 C 0.94254 0.56489 0.62505 0.0
C79 C 0.93973 0.59517 0.62729 0.0
C80 C 0.95722 0.61364 0.61875 0.0
C81 C 0.05511 0.67565 0.62163 0.0
C82 C 0.04204 0.69413 0.63389 0.0
C83 C 0.05861 0.70759 0.64783 0.0
C84 C 0.0886 0.70277 0.6498 0.0
C85 C 0.10174 0.68484 0.63723 0.0
C86 C 0.08514 0.67126 0.62336 0.0
C87 C 0.03708 0.65926 0.6078 0.0
C88 C 0.01496 0.64146 0.61288 0.0
C89 C 0.04301 0.65911 0.59006 0.0
C90 C 0.06585 0.67805 0.58396 0.0
C91 C 0.06665 0.70782 0.58883 0.0
C92 C 0.08952 0.72514 0.58439 0.0
C93 C 0.11172 0.71316 0.57468 0.0
C94 C 0.11034 0.68364 0.56919 0.0
C95 C 0.08764 0.6662 0.57385 0.0
H96 H 0.51913 0.57401 0.87723 0.0
H97 H 0.49328 0.60362 0.89835 0.0
H98 H 0.4118 0.57824 0.87127 0.0
H99 H 0.43796 0.54803 0.85022 0.0
H100 H 0.51471 0.51496 0.86987 0.0
H101 H 0.50413 0.60374 0.83922 0.0
H102 H 0.47086 0.64254 0.8316 0.0
H103 H 0.4151 0.57994 0.80197 0.0
H104 H 0.44884 0.54133 0.80944 0.0
H105 H 0.5269 0.48108 0.79544 0.0
H106 H 0.56522 0.46271 0.77721 0.0
H107 H 0.62949 0.49132 0.81768 0.0
H108 H 0.59169 0.51147 0.83491 0.0
H109 H 0.51486 0.53481 0.80752 0.0
H110 H 0.53282 0.4444 0.83952 0.0
H111 H 0.56135 0.40923 0.85599 0.0
H112 H 0.60473 0.47989 0.88634 0.0
H113 H 0.57594 0.51461 0.87027 0.0
C114 C 0.48046 0.55886 0.86219 0.0
C115 C 0.49569 0.57481 0.87583 0.0
C116 C 0.48091 0.59196 0.88777 0.0
C117 C 0.45053 0.59342 0.88637 0.0
C118 C 0.43522 0.57745 0.87267 0.0
C119 C 0.4501 0.56032 0.86063 0.0
C120 C 0.49677 0.54075 0.84973 0.0
C121 C 0.51463 0.51911 0.8562 0.0
C122 C 0.49634 0.54599 0.83192 0.0
C123 C 0.47878 0.56973 0.82495 0.0
C124 C 0.485 0.59853 0.8308 0.0
C125 C 0.46586 0.6206 0.82656 0.0
C126 C 0.44015 0.61428 0.81636 0.0
C127 C 0.43481 0.58558 0.80974 0.0
C128 C 0.45403 0.56348 0.81398 0.0
C129 C 0.55631 0.49699 0.81677 0.0
C130 C 0.54931 0.48344 0.80029 0.0
C131 C 0.57124 0.47279 0.78993 0.0
C132 C 0.60056 0.47556 0.79589 0.0
C133 C 0.6073 0.48922 0.81241 0.0
C134 C 0.58554 0.5002 0.82255 0.0
C135 C 0.53355 0.50919 0.82777 0.0
C136 C 0.51435 0.52983 0.82103 0.0
C137 C 0.53305 0.50335 0.84551 0.0
C138 C 0.55237 0.48202 0.85371 0.0
C139 C 0.54881 0.45219 0.84955 0.0
C140 C 0.56499 0.4322 0.85895 0.0
C141 C 0.58532 0.44192 0.87232 0.0
C142 C 0.58951 0.47183 0.87594 0.0
C143 C 0.573 0.49166 0.86685 0.0
H144 H 0.5703 0.98296 0.07042 0.0
H145 H 0.53701 0.94543 0.0576 0.0
H146 H 0.46702 0.98586 0.08445 0.0
H147 H 0.50062 0.02346 0.09734 0.0
H148 H 0.57338 0.04145 0.07042 0.0
H149 H 0.55318 0.9694 0.11098 0.0
H150 H 0.52655 0.94177 0.13068 0.0
H151 H 0.51104 0.02088 0.1615 0.0
H152 H 0.53468 0.04848 0.14067 0.0
H153 H 0.59592 0.11406 0.12988 0.0
H154 H 0.63246 0.13897 0.1495 0.0
H155 H 0.69552 0.07484 0.13439 0.0
H156 H 0.65915 0.05147 0.11382 0.0
H157 H 0.58778 0.04853 0.13458 0.0
H158 H 0.606 0.12058 0.09642 0.0
H159 H 0.63347 0.15121 0.07908 0.0
H160 H 0.65077 0.07709 0.04443 0.0
H161 H 0.6258 0.04588 0.06318 0.0
C162 C 0.53799 0.00573 0.085 0.0
C163 C 0.54767 0.98407 0.07328 0.0
C164 C 0.52859 0.96267 0.06593 0.0
C165 C 0.49943 0.96262 0.07011 0.0
C166 C 0.48946 0.98515 0.0812 0.0
C167 C 0.50858 0.00664 0.08852 0.0
C168 C 0.55923 0.02604 0.09428 0.0
C169 C 0.57674 0.04286 0.08445 0.0
C170 C 0.56284 0.02841 0.11264 0.0
C171 C 0.54559 0.0112 0.12409 0.0
C172 C 0.54317 0.98091 0.12164 0.0
C173 C 0.52835 0.965 0.1332 0.0
C174 C 0.51657 0.97887 0.14789 0.0
C175 C 0.51905 0.00925 0.15023 0.0
C176 C 0.53305 0.02516 0.1384 0.0
C177 C 0.62502 0.08118 0.12035 0.0
C178 C 0.61787 0.10594 0.13048 0.0
C179 C 0.63873 0.11987 0.14187 0.0
C180 C 0.66689 0.10862 0.14386 0.0
C181 C 0.67423 0.08436 0.13312 0.0
C182 C 0.65346 0.07088 0.12138 0.0
C183 C 0.60183 0.06372 0.11077 0.0
C184 C 0.5842 0.04724 0.12055 0.0
C185 C 0.59789 0.06199 0.09247 0.0
C186 C 0.61452 0.08066 0.08153 0.0
C187 C 0.61652 0.11064 0.08547 0.0
C188 C 0.63166 0.12837 0.07515 0.0
C189 C 0.64426 0.11684 0.06012 0.0
C190 C 0.6418 0.08681 0.05599 0.0
C191 C 0.62724 0.06892 0.06664 0.0
H192 H 0.00686 0.6819 0.92847 0.0
H193 H 0.03751 0.71251 0.91274 0.0
H194 H 0.11331 0.66904 0.93367 0.0
H195 H 0.0822 0.63645 0.94778 0.0
H196 H 0.00013 0.62713 0.9214 0.0
H197 H 0.03732 0.68296 0.97464 0.0
H198 H 0.08053 0.70182 0.99171 0.0
H199 H 0.10962 0.61431 0.99813 0.0
H200 H 0.06702 0.59563 0.98081 0.0
H201 H 0.00724 0.53958 0.96997 0.0
H202 H 0.97805 0.49867 0.97816 0.0
H203 H 0.89997 0.5455 0.96518 0.0
H204 H 0.92917 0.58618 0.95684 0.0
H205 H 0.0106 0.59709 0.98189 0.0
H206 H 0.98756 0.54033 0.93092 0.0
H207 H 0.9618 0.51319 0.90673 0.0
H208 H 0.91897 0.59157 0.89187 0.0
H209 H 0.94367 0.61835 0.91679 0.0
C210 C 0.04207 0.65689 0.93947 0.0
C211 C 0.03012 0.6791 0.92978 0.0
C212 C 0.04784 0.69692 0.92092 0.0
C213 C 0.07811 0.69336 0.92176 0.0
C214 C 0.09013 0.67216 0.93233 0.0
C215 C 0.07231 0.65377 0.94077 0.0
C216 C 0.02267 0.6352 0.94645 0.0
C217 C 0.00182 0.62128 0.9348 0.0
C218 C 0.02601 0.62619 0.96366 0.0
C219 C 0.04923 0.63792 0.9762 0.0
C220 C 0.05282 0.66788 0.97995 0.0
C221 C 0.07734 0.6786 0.98981 0.0
C222 C 0.09849 0.65948 0.99606 0.0
C223 C 0.09379 0.6295 0.99329 0.0
C224 C 0.06937 0.61882 0.98348 0.0
C225 C 0.9703 0.56582 0.96279 0.0
C226 C 0.98383 0.54108 0.96904 0.0
C227 C 0.96722 0.51772 0.97359 0.0
C228 C 0.93685 0.51904 0.97229 0.0
C229 C 0.92337 0.54409 0.96641 0.0
C230 C 0.93997 0.56724 0.96161 0.0
C231 C 0.9879 0.58972 0.9569 0.0
C232 C 0.00824 0.60386 0.9687 0.0
C233 C 0.98498 0.59819 0.93964 0.0
C234 C 0.96723 0.58133 0.92587 0.0
C235 C 0.97196 0.55154 0.9228 0.0
C236 C 0.95754 0.53611 0.90877 0.0
C237 C 0.9385 0.55024 0.89726 0.0
C238 C 0.93324 0.57995 0.90058 0.0
C239 C 0.9475 0.59534 0.91475 0.0
H240 H 0.55884 0.55327 0.22674 0.0
H241 H 0.53359 0.59313 0.24121 0.0
H242 H 0.45197 0.55977 0.21789 0.0
H243 H 0.47743 0.5195 0.20353 0.0
H244 H 0.55958 0.49633 0.22545 0.0
H245 H 0.52881 0.56981 0.18746 0.0
H246 H 0.49774 0.60049 0.17003 0.0
H247 H 0.4635 0.52432 0.14024 0.0
H248 H 0.49228 0.4938 0.15896 0.0
H249 H 0.56017 0.42268 0.1657 0.0
H250 H 0.58946 0.39884 0.1439 0.0
H251 H 0.65306 0.46805 0.15262 0.0
H252 H 0.62466 0.49012 0.17541 0.0
H253 H 0.54768 0.49007 0.1612 0.0
H254 H 0.58457 0.41774 0.19747 0.0
H255 H 0.62186 0.38972 0.21181 0.0
H256 H 0.64888 0.4658 0.24427 0.0
H257 H 0.61367 0.49449 0.22825 0.0
C258 C 0.52009 0.53364 0.21386 0.0
C259 C 0.53544 0.55406 0.22508 0.0
C260 C 0.52096 0.57685 0.23336 0.0
C261 C 0.49083 0.57967 0.23057 0.0
C262 C 0.47525 0.5583 0.22009 0.0
C263 C 0.48975 0.53531 0.21192 0.0
C264 C 0.53629 0.51241 0.20311 0.0
C265 C 0.55707 0.49499 0.21139 0.0
C266 C 0.53257 0.51041 0.18474 0.0
C267 C 0.51258 0.52935 0.17479 0.0
C268 C 0.51386 0.55965 0.17758 0.0
C269 C 0.49639 0.57727 0.16731 0.0
C270 C 0.47805 0.56509 0.15353 0.0
C271 C 0.47673 0.53469 0.15089 0.0
C272 C 0.49357 0.51709 0.16148 0.0
C273 C 0.59054 0.45784 0.17228 0.0
C274 C 0.58087 0.43213 0.1632 0.0
C275 C 0.5975 0.41882 0.15055 0.0
C276 C 0.62357 0.43165 0.14618 0.0
C277 C 0.63346 0.45712 0.15572 0.0
C278 C 0.61718 0.46993 0.16873 0.0
C279 C 0.57097 0.47435 0.18352 0.0
C280 C 0.54975 0.49105 0.17528 0.0
C281 C 0.57469 0.47603 0.20184 0.0
C282 C 0.59676 0.45854 0.21128 0.0
C283 C 0.59911 0.42868 0.20725 0.0
C284 C 0.6201 0.41241 0.2159 0.0
C285 C 0.63862 0.42527 0.22938 0.0
C286 C 0.63559 0.45507 0.23377 0.0
C287 C 0.61511 0.47153 0.22473 0.0
H288 H 0.60211 0.98506 0.42602 0.0
H289 H 0.57218 0.94964 0.4084 0.0
H290 H 0.49517 0.98886 0.42813 0.0
H291 H 0.52553 0.02477 0.44568 0.0
H292 H 0.59754 0.04466 0.42159 0.0
H293 H 0.58262 0.97605 0.46522 0.0
H294 H 0.54922 0.94918 0.4819 0.0
H295 H 0.52242 0.02924 0.50742 0.0
H296 H 0.55449 0.05639 0.49005 0.0
H297 H 0.62408 0.13245 0.45748 0.0
H298 H 0.66271 0.16661 0.46806 0.0
H299 H 0.70748 0.09792 0.4938 0.0
H300 H 0.66882 0.06398 0.48323 0.0
H301 H 0.60967 0.06032 0.48565 0.0
H302 H 0.5966 0.10466 0.4186 0.0
H303 H 0.62251 0.13071 0.39764 0.0
H304 H 0.70369 0.09839 0.41908 0.0
H305 H 0.67759 0.07284 0.44021 0.0
C306 C 0.566 0.0075 0.4371 0.0
C307 C 0.57879 0.98578 0.42674 0.0
C308 C 0.56165 0.96539 0.41679 0.0
C309 C 0.5313 0.96641 0.4169 0.0
C310 C 0.51851 0.98766 0.42773 0.0
C311 C 0.53576 0.00806 0.4378 0.0
C312 C 0.58457 0.03062 0.44603 0.0
C313 C 0.60004 0.04817 0.43561 0.0
C314 C 0.58758 0.03525 0.46433 0.0
C315 C 0.5705 0.01837 0.47598 0.0
C316 C 0.56949 0.98792 0.47431 0.0
C317 C 0.55072 0.97253 0.48396 0.0
C318 C 0.53347 0.98728 0.49586 0.0
C319 C 0.53577 0.0175 0.49837 0.0
C320 C 0.55405 0.03295 0.48845 0.0
C321 C 0.6438 0.09564 0.46943 0.0
C322 C 0.64209 0.12488 0.46556 0.0
C323 C 0.66419 0.14431 0.47155 0.0
C324 C 0.68823 0.13487 0.48163 0.0
C325 C 0.68911 0.10591 0.48619 0.0
C326 C 0.66706 0.08648 0.48016 0.0
C327 C 0.62276 0.07407 0.46115 0.0
C328 C 0.60687 0.05689 0.47165 0.0
C329 C 0.61902 0.06983 0.4429 0.0
C330 C 0.63518 0.08691 0.43098 0.0
C331 C 0.62 0.1034 0.41885 0.0
C332 C 0.63484 0.11818 0.40684 0.0
C333 C 0.66518 0.11654 0.40661 0.0
C334 C 0.68038 0.10046 0.41904 0.0
C335 C 0.6655 0.08573 0.43109 0.0
H336 H 0.09938 0.19165 0.73671 0.0
H337 H 0.0611 0.22547 0.74471 0.0
H338 H 0.99788 0.17087 0.71475 0.0
H339 H 0.03635 0.13756 0.7066 0.0
H340 H 0.10557 0.12521 0.73752 0.0
H341 H 0.09238 0.20444 0.69682 0.0
H342 H 0.06221 0.23236 0.67671 0.0
H343 H 0.03613 0.15287 0.64753 0.0
H344 H 0.06557 0.12525 0.66778 0.0
H345 H 0.12349 0.06818 0.67275 0.0
H346 H 0.15721 0.03933 0.65599 0.0
H347 H 0.22902 0.07661 0.68827 0.0
H348 H 0.1948 0.10545 0.70529 0.0
H349 H 0.12418 0.12806 0.67512 0.0
H350 H 0.12888 0.04901 0.70889 0.0
H351 H 0.14943 0.01081 0.72566 0.0
H352 H 0.17746 0.07417 0.7668 0.0
H353 H 0.15879 0.11289 0.74905 0.0
C354 C 0.07064 0.16231 0.721 0.0
C355 C 0.07716 0.1867 0.73223 0.0
C356 C 0.05526 0.20597 0.73676 0.0
C357 C 0.02649 0.20101 0.73018 0.0
C358 C 0.01988 0.17558 0.71976 0.0
C359 C 0.04176 0.15641 0.71523 0.0
C360 C 0.09415 0.14496 0.71358 0.0
C361 C 0.11028 0.12625 0.724 0.0
C362 C 0.0991 0.1454 0.69576 0.0
C363 C 0.08112 0.16278 0.68379 0.0
C364 C 0.07992 0.1931 0.68617 0.0
C365 C 0.06281 0.209 0.67465 0.0
C366 C 0.04664 0.19478 0.66062 0.0
C367 C 0.0479 0.16443 0.65838 0.0
C368 C 0.06498 0.14863 0.66982 0.0
C369 C 0.15667 0.0889 0.69024 0.0
C370 C 0.14645 0.06984 0.6764 0.0
C371 C 0.16573 0.05323 0.66692 0.0
C372 C 0.19572 0.05565 0.67089 0.0
C373 C 0.20599 0.07436 0.68497 0.0
C374 C 0.18653 0.09071 0.6947 0.0
C375 C 0.13595 0.10828 0.69899 0.0
C376 C 0.12029 0.1275 0.68879 0.0
C377 C 0.13057 0.10712 0.71678 0.0
C378 C 0.14305 0.084 0.72742 0.0
C379 C 0.14012 0.05488 0.7213 0.0
C380 C 0.15134 0.03288 0.73116 0.0
C381 C 0.16496 0.03923 0.74773 0.0
C382 C 0.16746 0.06843 0.75402 0.0
C383 C 0.15661 0.0906 0.74394 0.0
O384 O 0.36205 0.71577 0.99424 0.0
Cd385 Cd 0.34843 0.73739 0.01634 0.0
Cd386 Cd 0.39414 0.71021 0.03227 0.0
O387 O 0.39568 0.69044 0.0077 0.0
O388 O 0.30834 0.74933 0.00998 0.0
O389 O 0.31906 0.71816 0.02999 0.0
C390 C 0.29968 0.73197 0.02107 0.0
C391 C 0.40154 0.68055 0.05545 0.0
C392 C 0.38145 0.69647 0.99383 0.0
C393 C 0.39519 0.77556 0.03354 0.0
O394 O 0.40874 0.75244 0.03672 0.0
O395 O 0.37008 0.77433 0.02592 0.0
O396 O 0.42226 0.68696 0.04594 0.0
O397 O 0.37618 0.69096 0.05185 0.0
O398 O 0.4212 0.83974 0.3104 0.0
Cd399 Cd 0.39859 0.8271 0.28747 0.0
Cd400 Cd 0.4461 0.84384 0.27248 0.0
O401 O 0.45541 0.8617 0.29739 0.0
O402 O 0.35676 0.83258 0.29116 0.0
O403 O 0.38175 0.85962 0.27451 0.0
C404 C 0.35787 0.85463 0.28172 0.0
C405 C 0.45431 0.87198 0.24918 0.0
C406 C 0.44354 0.85595 0.3112 0.0
C407 C 0.43025 0.78025 0.26912 0.0
O408 O 0.4494 0.79961 0.26759 0.0
O409 O 0.40657 0.7869 0.27583 0.0
O410 O 0.47548 0.86174 0.25846 0.0
O411 O 0.42824 0.86657 0.2532 0.0
O412 O 0.29234 0.89959 0.5053 0.0
Cd413 Cd 0.30839 0.88472 0.52858 0.0
Cd414 Cd 0.27312 0.92302 0.54237 0.0
O415 O 0.27486 0.93897 0.51813 0.0
O416 O 0.34952 0.87366 0.52621 0.0
O417 O 0.33572 0.91252 0.54183 0.0
C418 C 0.35632 0.89734 0.53534 0.0
C419 C 0.27111 0.95564 0.56663 0.0
C420 C 0.28124 0.92458 0.50437 0.0
C421 C 0.25896 0.85959 0.54432 0.0
O422 O 0.24978 0.88545 0.54452 0.0
O423 O 0.28454 0.85403 0.54002 0.0
O424 O 0.24989 0.95247 0.5551 0.0
O425 O 0.29429 0.94091 0.56413 0.0
O426 O 0.2219 0.78589 0.76157 0.0
Cd427 Cd 0.24496 0.80284 0.78348 0.0
Cd428 Cd 0.21113 0.76575 0.79944 0.0
O429 O 0.18864 0.76437 0.77551 0.0
O430 O 0.26024 0.84006 0.77621 0.0
O431 O 0.2282 0.83741 0.79622 0.0
C432 C 0.24295 0.85307 0.78655 0.0
C433 C 0.18337 0.76381 0.82363 0.0
C434 C 0.19805 0.77218 0.76141 0.0
C435 C 0.27568 0.75412 0.79916 0.0
O436 O 0.25044 0.74469 0.80157 0.0
O437 O 0.27895 0.77885 0.79318 0.0
O438 O 0.18533 0.74196 0.81265 0.0
O439 O 0.19711 0.78731 0.82091 0.0
O440 O 0.92707 0.28596 0.55275 0.0
Cd441 Cd 0.90711 0.29852 0.52987 0.0
Cd442 Cd 0.9367 0.25416 0.51475 0.0
O443 O 0.95511 0.25417 0.53973 0.0
O444 O 0.89421 0.33908 0.53396 0.0
O445 O 0.9291 0.32632 0.51659 0.0
C446 C 0.91369 0.34643 0.52377 0.0
C447 C 0.96781 0.24687 0.49222 0.0
C448 C 0.94744 0.26767 0.55349 0.0
C449 C 0.87159 0.25001 0.51223 0.0
O450 O 0.89543 0.23732 0.50976 0.0
O451 O 0.87144 0.27543 0.51943 0.0
O452 O 0.96178 0.22643 0.50203 0.0
O453 O 0.95627 0.27191 0.49521 0.0
O454 O 0.85336 0.41945 0.78514 0.0
Cd455 Cd 0.83735 0.3959 0.76316 0.0
Cd456 Cd 0.87427 0.4298 0.74744 0.0
O457 O 0.87482 0.45276 0.77121 0.0
O458 O 0.79986 0.3805 0.76991 0.0
O459 O 0.80327 0.41222 0.74977 0.0
C460 C 0.78722 0.3975 0.75925 0.0
C461 C 0.87607 0.45708 0.72306 0.0
C462 C 0.86674 0.44348 0.78528 0.0
C463 C 0.88677 0.3655 0.74812 0.0
O464 O 0.89597 0.3908 0.74567 0.0
O465 O 0.86192 0.36203 0.7539 0.0
O466 O 0.89784 0.45564 0.73413 0.0
O467 O 0.85273 0.44309 0.7258 0.0
O468 O 0.74103 0.34714 0.03746 0.0
Cd469 Cd 0.75904 0.32762 0.01615 0.0
Cd470 Cd 0.72453 0.3661 0.99867 0.0
O471 O 0.71016 0.37467 0.02327 0.0
O472 O 0.77169 0.28958 0.02418 0.0
O473 O 0.73644 0.29454 0.00388 0.0
C474 C 0.75101 0.27803 0.01407 0.0
C475 C 0.69057 0.36883 0.97515 0.0
C476 C 0.72049 0.36521 0.03741 0.0
C477 C 0.79012 0.37055 0.99716 0.0
O478 O 0.7651 0.38055 0.99351 0.0
O479 O 0.79317 0.3483 0.00594 0.0
O480 O 0.69903 0.39141 0.98469 0.0
O481 O 0.70088 0.34407 0.97918 0.0
O482 O 0.8016 0.21608 0.24689 0.0
Cd483 Cd 0.81562 0.24288 0.26797 0.0
Cd484 Cd 0.80467 0.19337 0.28492 0.0
O485 O 0.78887 0.178 0.26055 0.0
O486 O 0.81242 0.28154 0.25828 0.0
O487 O 0.78565 0.26788 0.27919 0.0
C488 C 0.79148 0.28682 0.26825 0.0
C489 C 0.7778 0.18302 0.30848 0.0
C490 C 0.79052 0.19089 0.2466 0.0
C491 C 0.86632 0.21702 0.28664 0.0
O492 O 0.84881 0.19706 0.28988 0.0
O493 O 0.85738 0.23861 0.27847 0.0
O494 O 0.79299 0.16354 0.30068 0.0
O495 O 0.77761 0.20871 0.30277 0.0
C496 C 0.23582 0.97787 0.29232 0.0
C497 C 0.2429 0.9901 0.30912 0.0
C498 C 0.2521 0.95503 0.28514 0.0
C499 C 0.27613 0.94438 0.29495 0.0
C500 C 0.28347 0.95676 0.31185 0.0
C501 C 0.26668 0.97927 0.31875 0.0
C502 C 0.24354 0.94221 0.26713 0.0
C503 C 0.30899 0.94607 0.32274 0.0
C504 C 0.30784 0.86953 0.28865 0.0
C505 C 0.33396 0.87576 0.28129 0.0
C506 C 0.28755 0.89135 0.2919 0.0
C507 C 0.29371 0.92009 0.28785 0.0
C508 C 0.31894 0.926 0.27914 0.0
C509 C 0.33872 0.90369 0.27587 0.0
C510 C 0.26062 0.88403 0.3009 0.0
C511 C 0.32633 0.95636 0.27462 0.0
H512 H 0.21765 0.98627 0.28471 0.0
H513 H 0.27197 0.98809 0.33187 0.0
H514 H 0.26174 0.94429 0.25858 0.0
H515 H 0.2388 0.91873 0.26759 0.0
H516 H 0.2242 0.95286 0.26122 0.0
H517 H 0.31226 0.95856 0.33545 0.0
H518 H 0.30573 0.92292 0.32517 0.0
H519 H 0.32908 0.94764 0.31569 0.0
H520 H 0.30388 0.84791 0.29271 0.0
H521 H 0.35882 0.90868 0.27013 0.0
H522 H 0.24132 0.89428 0.29473 0.0
H523 H 0.2629 0.89265 0.31463 0.0
H524 H 0.25679 0.86028 0.30071 0.0
H525 H 0.30716 0.96688 0.26848 0.0
H526 H 0.34429 0.95664 0.26571 0.0
H527 H 0.333 0.96956 0.28668 0.0
C528 C 0.15074 0.74961 0.58336 0.0
C529 C 0.13626 0.73157 0.57039 0.0
C530 C 0.17289 0.76846 0.57938 0.0
C531 C 0.18041 0.76956 0.56196 0.0
C532 C 0.16643 0.75074 0.54888 0.0
C533 C 0.14461 0.7318 0.55328 0.0
C534 C 0.18755 0.78789 0.59373 0.0
C535 C 0.17359 0.75154 0.53012 0.0
C536 C 0.20948 0.84152 0.54932 0.0
C537 C 0.23925 0.83617 0.54874 0.0
C538 C 0.19017 0.81989 0.55338 0.0
C539 C 0.20088 0.79225 0.55721 0.0
C540 C 0.2309 0.78663 0.5567 0.0
C541 C 0.24976 0.80863 0.55234 0.0
C542 C 0.15826 0.82668 0.5536 0.0
C543 C 0.2431 0.7575 0.56094 0.0
H544 H 0.14456 0.74911 0.59665 0.0
H545 H 0.13333 0.71792 0.54323 0.0
H546 H 0.21144 0.78628 0.59338 0.0
H547 H 0.18174 0.81078 0.59183 0.0
H548 H 0.18119 0.78241 0.60677 0.0
H549 H 0.16238 0.73403 0.52176 0.0
H550 H 0.16708 0.77272 0.52517 0.0
H551 H 0.19728 0.74948 0.52892 0.0
H552 H 0.20111 0.86265 0.54643 0.0
H553 H 0.27274 0.80438 0.55197 0.0
H554 H 0.15066 0.82423 0.56677 0.0
H555 H 0.14563 0.81114 0.54455 0.0
H556 H 0.15336 0.84901 0.54983 0.0
H557 H 0.23813 0.7527 0.57433 0.0
H558 H 0.26693 0.75656 0.55989 0.0
H559 H 0.23275 0.74021 0.55206 0.0
C560 C 0.40303 0.63888 0.79743 0.0
C561 C 0.41814 0.63711 0.8136 0.0
C562 C 0.38092 0.6592 0.79505 0.0
C563 C 0.37377 0.67822 0.80919 0.0
C564 C 0.38939 0.67701 0.82542 0.0
C565 C 0.41133 0.65644 0.82744 0.0
C566 C 0.36473 0.65986 0.77754 0.0
C567 C 0.38238 0.69688 0.84081 0.0
C568 C 0.32914 0.7448 0.79944 0.0
C569 C 0.30112 0.73544 0.80257 0.0
C570 C 0.35309 0.72655 0.80173 0.0
C571 C 0.3489 0.69827 0.80723 0.0
C572 C 0.32078 0.68887 0.81068 0.0
C573 C 0.29727 0.70756 0.80833 0.0
C574 C 0.38281 0.73736 0.79804 0.0
C575 C 0.31542 0.65888 0.81659 0.0
H576 H 0.40841 0.62423 0.78664 0.0
H577 H 0.42257 0.65491 0.84006 0.0
H578 H 0.34162 0.65418 0.77869 0.0
H579 H 0.36542 0.68201 0.77282 0.0
H580 H 0.37378 0.64451 0.76769 0.0
H581 H 0.39776 0.69444 0.85222 0.0
H582 H 0.38281 0.71979 0.83733 0.0
H583 H 0.36017 0.69216 0.8446 0.0
H584 H 0.33236 0.76629 0.795 0.0
H585 H 0.27575 0.70009 0.8108 0.0
H586 H 0.39158 0.72358 0.78736 0.0
H587 H 0.3979 0.73575 0.80964 0.0
H588 H 0.38255 0.76018 0.79432 0.0
H589 H 0.32199 0.64236 0.8066 0.0
H590 H 0.29232 0.65509 0.81902 0.0
H591 H 0.32879 0.65551 0.82868 0.0
C592 C 0.4811 0.92597 0.04681 0.0
C593 C 0.48024 0.93792 0.06387 0.0
C594 C 0.46562 0.90057 0.04136 0.0
C595 C 0.44887 0.88688 0.05327 0.0
C596 C 0.44694 0.89949 0.0703 0.0
C597 C 0.46271 0.92486 0.07541 0.0
C598 C 0.46808 0.88779 0.02307 0.0
C599 C 0.42923 0.88552 0.08335 0.0
C600 C 0.39359 0.82977 0.03593 0.0
C601 C 0.40879 0.80408 0.03867 0.0
C602 C 0.4063 0.85693 0.04066 0.0
C603 C 0.43489 0.8584 0.04827 0.0
C604 C 0.45034 0.83259 0.0511 0.0
C605 C 0.43709 0.80575 0.04629 0.0
C606 C 0.38918 0.88403 0.03753 0.0
C607 C 0.48093 0.83334 0.05916 0.0
H608 H 0.49434 0.93622 0.03779 0.0
H609 H 0.46225 0.9338 0.08868 0.0
H610 H 0.47914 0.86657 0.02341 0.0
H611 H 0.44623 0.8838 0.01662 0.0
H612 H 0.48044 0.9021 0.01509 0.0
H613 H 0.42813 0.89928 0.09557 0.0
H614 H 0.40687 0.88104 0.0778 0.0
H615 H 0.43892 0.86444 0.08651 0.0
H616 H 0.37169 0.82871 0.03008 0.0
H617 H 0.44901 0.78604 0.04845 0.0
H618 H 0.40074 0.89777 0.02886 0.0
H619 H 0.38718 0.89695 0.04996 0.0
H620 H 0.36711 0.87915 0.03156 0.0
H621 H 0.49522 0.84553 0.05112 0.0
H622 H 0.48993 0.8113 0.0605 0.0
H623 H 0.48151 0.84482 0.0722 0.0
C624 C 0.15225 0.65903 0.99703 0.0
C625 C 0.12688 0.67059 0.00356 0.0
C626 C 0.17944 0.67051 0.00268 0.0
C627 C 0.18138 0.69402 0.01531 0.0
C628 C 0.15593 0.70514 0.02246 0.0
C629 C 0.12884 0.69346 0.01635 0.0
C630 C 0.206 0.65826 0.99452 0.0
C631 C 0.15726 0.72986 0.03617 0.0
C632 C 0.25866 0.70597 0.03335 0.0
C633 C 0.2684 0.72623 0.0222 0.0
C634 C 0.22953 0.69695 0.03232 0.0
C635 C 0.20995 0.70822 0.01969 0.0
C636 C 0.21924 0.73022 0.00931 0.0
C637 C 0.24832 0.73908 0.01077 0.0
C638 C 0.22022 0.67392 0.04387 0.0
C639 C 0.19911 0.74271 0.99562 0.0
H640 H 0.15075 0.64165 0.98694 0.0
H641 H 0.1092 0.70229 0.02146 0.0
H642 H 0.21637 0.67514 0.98731 0.0
H643 H 0.2221 0.65165 0.00471 0.0
H644 H 0.20082 0.63921 0.98538 0.0
H645 H 0.13607 0.7335 0.04195 0.0
H646 H 0.17384 0.72563 0.04666 0.0
H647 H 0.16375 0.75007 0.03035 0.0
H648 H 0.274 0.6962 0.04237 0.0
H649 H 0.25558 0.75498 0.00222 0.0
H650 H 0.21788 0.65287 0.03621 0.0
H651 H 0.19886 0.67919 0.04901 0.0
H652 H 0.23623 0.67129 0.05495 0.0
H653 H 0.19412 0.72596 0.98495 0.0
H654 H 0.20873 0.76185 0.99003 0.0
H655 H 0.17832 0.74918 0.00108 0.0
C656 C 0.4834 0.61781 0.25424 0.0
C657 C 0.4764 0.60622 0.23733 0.0
C658 C 0.47316 0.64504 0.25994 0.0
C659 C 0.45561 0.66107 0.24839 0.0
C660 C 0.44727 0.64885 0.2316 0.0
C661 C 0.45776 0.62152 0.22626 0.0
C662 C 0.48234 0.65725 0.278 0.0
C663 C 0.42867 0.66531 0.2189 0.0
C664 C 0.41674 0.72745 0.26657 0.0
C665 C 0.43602 0.74977 0.26336 0.0
C666 C 0.42266 0.69843 0.26166 0.0
C667 C 0.44838 0.69164 0.25331 0.0
C668 C 0.46769 0.71409 0.24982 0.0
C669 C 0.4613 0.74284 0.25491 0.0
C670 C 0.40162 0.67501 0.26559 0.0
C671 C 0.4953 0.70773 0.24086 0.0
H672 H 0.49755 0.60587 0.26288 0.0
H673 H 0.45256 0.61281 0.2131 0.0
H674 H 0.49721 0.67595 0.27718 0.0
H675 H 0.46326 0.66531 0.28481 0.0
H676 H 0.4936 0.64096 0.28591 0.0
H677 H 0.42163 0.65162 0.20708 0.0
H678 H 0.40918 0.67388 0.22508 0.0
H679 H 0.44105 0.68414 0.21492 0.0
H680 H 0.39716 0.73258 0.2731 0.0
H681 H 0.47629 0.75991 0.25231 0.0
H682 H 0.4125 0.65977 0.27436 0.0
H683 H 0.39436 0.66228 0.25347 0.0
H684 H 0.38226 0.68393 0.27181 0.0
H685 H 0.50934 0.69348 0.24872 0.0
H686 H 0.5077 0.72773 0.23878 0.0
H687 H 0.49025 0.69599 0.22808 0.0
C688 C 0.51246 0.96882 0.52219 0.0
C689 C 0.51082 0.97164 0.50423 0.0
C690 C 0.48999 0.95519 0.53017 0.0
C691 C 0.46507 0.94512 0.51997 0.0
C692 C 0.46357 0.9479 0.50178 0.0
C693 C 0.48666 0.96082 0.49412 0.0
C694 C 0.49271 0.95186 0.54949 0.0
C695 C 0.43719 0.938 0.49044 0.0
C696 C 0.40927 0.89077 0.53176 0.0
C697 C 0.38619 0.90899 0.53582 0.0
C698 C 0.43624 0.9023 0.52815 0.0
C699 C 0.43984 0.93272 0.52812 0.0
C700 C 0.41727 0.95117 0.53348 0.0
C701 C 0.39082 0.93904 0.5375 0.0
C702 C 0.46012 0.88191 0.52311 0.0
C703 C 0.41998 0.98371 0.53336 0.0
H704 H 0.5313 0.97728 0.52993 0.0
H705 H 0.48548 0.96332 0.48024 0.0
H706 H 0.47623 0.96528 0.55596 0.0
H707 H 0.48856 0.92901 0.55229 0.0
H708 H 0.51448 0.95848 0.55529 0.0
H709 H 0.43938 0.94206 0.47657 0.0
H710 H 0.43342 0.91449 0.49147 0.0
H711 H 0.41772 0.94947 0.49492 0.0
H712 H 0.40586 0.8675 0.5306 0.0
H713 H 0.37302 0.95325 0.54057 0.0
H714 H 0.48131 0.8896 0.52923 0.0
H715 H 0.46177 0.8812 0.50884 0.0
H716 H 0.456 0.85954 0.5269 0.0
H717 H 0.44084 0.9914 0.53989 0.0
H718 H 0.40203 0.99499 0.53983 0.0
H719 H 0.41967 0.99003 0.51973 0.0
C720 C 0.16217 0.98836 0.75708 0.0
C721 C 0.17662 0.01524 0.7581 0.0
C722 C 0.17468 0.96421 0.76455 0.0
C723 C 0.20192 0.96713 0.77389 0.0
C724 C 0.21552 0.99469 0.77627 0.0
C725 C 0.20292 0.01837 0.76814 0.0
C726 C 0.15948 0.93518 0.76153 0.0
C727 C 0.24404 0.99892 0.78668 0.0
C728 C 0.22092 0.89965 0.79761 0.0
C729 C 0.23732 0.88441 0.78544 0.0
C730 C 0.21123 0.92786 0.79479 0.0
C731 C 0.21734 0.94061 0.7792 0.0
C732 C 0.23535 0.92597 0.76742 0.0
C733 C 0.24545 0.89825 0.77082 0.0
C734 C 0.1931 0.94329 0.80801 0.0
C735 C 0.24204 0.9385 0.7505 0.0
H736 H 0.14134 0.9859 0.74993 0.0
H737 H 0.21434 0.03896 0.76909 0.0
H738 H 0.17301 0.92009 0.75381 0.0
H739 H 0.15649 0.92549 0.77406 0.0
H740 H 0.13795 0.9368 0.75449 0.0
H741 H 0.24871 0.02218 0.79025 0.0
H742 H 0.24414 0.98699 0.79871 0.0
H743 H 0.2618 0.99018 0.77894 0.0
H744 H 0.2148 0.88918 0.80902 0.0
H745 H 0.25814 0.88667 0.76135 0.0
H746 H 0.16995 0.94201 0.80336 0.0
H747 H 0.19922 0.96656 0.80982 0.0
H748 H 0.19543 0.93346 0.82076 0.0
H749 H 0.22179 0.93975 0.74213 0.0
H750 H 0.2579 0.92525 0.74331 0.0
H751 H 0.25082 0.96083 0.75287 0.0
C752 C 0.62131 0.43745 0.77551 0.0
C753 C 0.62434 0.464 0.78532 0.0
C754 C 0.64503 0.42474 0.76748 0.0
C755 C 0.67253 0.43848 0.76976 0.0
C756 C 0.67527 0.46606 0.77872 0.0
C757 C 0.65107 0.47867 0.78607 0.0
C758 C 0.64096 0.3959 0.75738 0.0
C759 C 0.70422 0.48144 0.78162 0.0
C760 C 0.74138 0.3953 0.77432 0.0
C761 C 0.75577 0.40291 0.75979 0.0
C762 C 0.71346 0.40538 0.77719 0.0
C763 C 0.69918 0.4228 0.76495 0.0
C764 C 0.7125 0.42826 0.74943 0.0
C765 C 0.74091 0.41866 0.74717 0.0
C766 C 0.70034 0.3994 0.79406 0.0
C767 C 0.69746 0.44564 0.73572 0.0
H768 H 0.60079 0.4259 0.77474 0.0
H769 H 0.65341 0.49971 0.79301 0.0
H770 H 0.65338 0.39519 0.74553 0.0
H771 H 0.64916 0.37838 0.76549 0.0
H772 H 0.61777 0.39134 0.75356 0.0
H773 H 0.70243 0.50326 0.7883 0.0
H774 H 0.71925 0.46835 0.78964 0.0
H775 H 0.71408 0.48386 0.76907 0.0
H776 H 0.75267 0.3831 0.78414 0.0
H777 H 0.75181 0.42434 0.73581 0.0
H778 H 0.67815 0.39036 0.79154 0.0
H779 H 0.69863 0.42 0.80207 0.0
H780 H 0.71344 0.38401 0.80169 0.0
H781 H 0.67414 0.43973 0.73391 0.0
H782 H 0.70749 0.44234 0.72306 0.0
H783 H 0.69896 0.46902 0.73983 0.0
C784 C 0.68465 0.12684 0.04064 0.0
C785 C 0.65995 0.13629 0.04904 0.0
C786 C 0.7009 0.14598 0.03153 0.0
C787 C 0.69292 0.17547 0.03139 0.0
C788 C 0.66737 0.18483 0.03916 0.0
C789 C 0.65092 0.16501 0.0475 0.0
C790 C 0.72727 0.13487 0.02274 0.0
C791 C 0.65819 0.21618 0.03953 0.0
C792 C 0.74857 0.23556 0.03209 0.0
C793 C 0.74123 0.24809 0.01637 0.0
C794 C 0.7342 0.2107 0.03669 0.0
C795 C 0.71264 0.19744 0.02501 0.0
C796 C 0.70736 0.20818 0.00836 0.0
C797 C 0.72133 0.23379 0.00434 0.0
C798 C 0.74019 0.20037 0.05471 0.0
C799 C 0.68562 0.19377 0.99522 0.0
H800 H 0.69201 0.10478 0.04165 0.0
H801 H 0.63126 0.17238 0.05325 0.0
H802 H 0.72905 0.1446 0.01007 0.0
H803 H 0.74705 0.141 0.03099 0.0
H804 H 0.72672 0.1109 0.02057 0.0
H805 H 0.63757 0.21983 0.04595 0.0
H806 H 0.67529 0.23 0.04659 0.0
H807 H 0.65545 0.22348 0.02615 0.0
H808 H 0.76394 0.24646 0.04147 0.0
H809 H 0.71581 0.2432 0.99209 0.0
H810 H 0.74448 0.17679 0.05411 0.0
H811 H 0.72083 0.20411 0.06235 0.0
H812 H 0.75898 0.21179 0.06175 0.0
H813 H 0.68705 0.16982 0.9953 0.0
H814 H 0.6889 0.20036 0.98189 0.0
H815 H 0.66341 0.2 0.99853 0.0
C816 C 0.02993 0.1979 0.32415 0.0
C817 C 0.04402 0.17905 0.31257 0.0
C818 C 0.00229 0.20856 0.31974 0.0
C819 C 0.98842 0.20002 0.30341 0.0
C820 C 0.00336 0.18263 0.29122 0.0
C821 C 0.03102 0.17238 0.29594 0.0
C822 C 0.98713 0.2272 0.33306 0.0
C823 C 0.98936 0.17313 0.27363 0.0
C824 C 0.907 0.1899 0.30063 0.0
C825 C 0.8975 0.2141 0.29184 0.0
C826 C 0.93647 0.18547 0.30471 0.0
C827 C 0.95708 0.20578 0.29996 0.0
C828 C 0.94771 0.23068 0.29151 0.0
C829 C 0.91798 0.23454 0.28751 0.0
C830 C 0.94557 0.15861 0.31376 0.0
C831 C 0.96912 0.25287 0.28639 0.0
H832 H 0.03973 0.20296 0.33708 0.0
H833 H 0.04205 0.15819 0.28685 0.0
H834 H 0.97651 0.24586 0.32701 0.0
H835 H 0.96995 0.21426 0.33847 0.0
H836 H 0.00229 0.23551 0.34394 0.0
H837 H 0.00502 0.16261 0.26495 0.0
H838 H 0.97163 0.15744 0.27525 0.0
H839 H 0.9796 0.19188 0.26723 0.0
H840 H 0.8914 0.17402 0.3041 0.0
H841 H 0.91084 0.25333 0.28075 0.0
H842 H 0.95864 0.16472 0.32595 0.0
H843 H 0.95941 0.14501 0.30536 0.0
H844 H 0.92676 0.14535 0.31696 0.0
H845 H 0.98343 0.26047 0.29781 0.0
H846 H 0.95826 0.27191 0.28087 0.0
H847 H 0.98318 0.24284 0.27659 0.0
C848 C 0.95359 0.51665 0.52551 0.0
C849 C 0.95497 0.52455 0.5433 0.0
C850 C 0.94508 0.48846 0.51937 0.0
C851 C 0.93894 0.4677 0.53141 0.0
C852 C 0.94014 0.47588 0.5494 0.0
C853 C 0.94779 0.50435 0.55509 0.0
C854 C 0.94312 0.48076 0.50009 0.0
C855 C 0.93438 0.45431 0.56273 0.0
C856 C 0.89729 0.39741 0.52222 0.0
C857 C 0.91982 0.3773 0.52191 0.0
C858 C 0.90319 0.42727 0.52365 0.0
C859 C 0.93231 0.43706 0.52554 0.0
C860 C 0.95511 0.41681 0.52427 0.0
C861 C 0.94853 0.3871 0.52216 0.0
C862 C 0.87828 0.44821 0.52426 0.0
C863 C 0.98646 0.42627 0.52667 0.0
H864 H 0.95935 0.53245 0.51648 0.0
H865 H 0.94932 0.51058 0.56888 0.0
H866 H 0.9603 0.46509 0.49678 0.0
H867 H 0.92198 0.47014 0.49612 0.0
H868 H 0.94558 0.50009 0.49243 0.0
H869 H 0.9367 0.46414 0.57622 0.0
H870 H 0.91215 0.44525 0.56038 0.0
H871 H 0.94967 0.43597 0.56156 0.0
H872 H 0.87505 0.38975 0.52188 0.0
H873 H 0.96594 0.37148 0.52206 0.0
H874 H 0.88228 0.4669 0.51636 0.0
H875 H 0.87617 0.45681 0.53783 0.0
H876 H 0.85743 0.43769 0.51948 0.0
H877 H 0.99079 0.44431 0.51837 0.0
H878 H 0.00149 0.40827 0.5236 0.0
H879 H 0.99129 0.43437 0.54035 0.0
C880 C 0.72709 0.15479 0.50311 0.0
C881 C 0.71319 0.15458 0.48648 0.0
C882 C 0.7521 0.17161 0.50739 0.0
C883 C 0.76345 0.1886 0.49472 0.0
C884 C 0.74909 0.18908 0.47806 0.0
C885 C 0.72412 0.17204 0.47414 0.0
C886 C 0.76678 0.17064 0.52532 0.0
C887 C 0.76058 0.2069 0.46422 0.0
C888 C 0.81732 0.24827 0.5101 0.0
C889 C 0.84384 0.23475 0.50715 0.0
C890 C 0.79094 0.23363 0.50594 0.0
C891 C 0.79109 0.20481 0.49868 0.0
C892 C 0.81773 0.19117 0.49545 0.0
C893 C 0.84377 0.2063 0.49972 0.0
C894 C 0.76291 0.24887 0.50951 0.0
C895 C 0.81873 0.16043 0.4877 0.0
H896 H 0.71851 0.14158 0.51274 0.0
H897 H 0.7137 0.17164 0.46119 0.0
H898 H 0.78879 0.16145 0.52438 0.0
H899 H 0.76937 0.19287 0.53148 0.0
H900 H 0.75449 0.15732 0.53389 0.0
H901 H 0.74597 0.20617 0.45226 0.0
H902 H 0.76352 0.22982 0.46917 0.0
H903 H 0.78214 0.19876 0.46076 0.0
H904 H 0.81713 0.27026 0.51581 0.0
H905 H 0.86412 0.19567 0.49737 0.0
H906 H 0.75103 0.23698 0.51894 0.0
H907 H 0.7488 0.24905 0.4974 0.0
H908 H 0.76649 0.27157 0.5148 0.0
H909 H 0.8087 0.14552 0.49637 0.0
H910 H 0.8412 0.15317 0.48567 0.0
H911 H 0.80603 0.15852 0.47505 0.0
C912 C 0.00223 0.23797 0.74943 0.0
C913 C 0.0039 0.2232 0.73315 0.0
C914 C 0.98207 0.26018 0.75201 0.0
C915 C 0.96313 0.26777 0.73796 0.0
C916 C 0.96429 0.25254 0.72159 0.0
C917 C 0.9847 0.2305 0.71937 0.0
C918 C 0.98145 0.27595 0.76966 0.0
C919 C 0.94452 0.26005 0.70628 0.0
C920 C 0.89641 0.3121 0.74783 0.0
C921 C 0.90572 0.3402 0.74486 0.0
C922 C 0.91478 0.28824 0.74552 0.0
C923 C 0.94311 0.29262 0.74015 0.0
C924 C 0.9525 0.32085 0.73694 0.0
C925 C 0.93371 0.34426 0.73931 0.0
C926 C 0.90398 0.2584 0.74897 0.0
C927 C 0.98257 0.32639 0.73118 0.0
H928 H 0.01681 0.23223 0.76016 0.0
H929 H 0.98618 0.21954 0.70666 0.0
H930 H 0.98715 0.29911 0.76872 0.0
H931 H 0.9593 0.27516 0.77439 0.0
H932 H 0.99677 0.26663 0.77941 0.0
H933 H 0.94703 0.24504 0.6947 0.0
H934 H 0.9216 0.25946 0.70972 0.0
H935 H 0.94926 0.28242 0.70278 0.0
H936 H 0.87484 0.30872 0.75212 0.0
H937 H 0.94114 0.36586 0.73697 0.0
H938 H 0.91784 0.24932 0.75949 0.0
H939 H 0.90546 0.2436 0.73721 0.0
H940 H 0.8812 0.25857 0.75278 0.0
H941 H 0.999 0.31948 0.74111 0.0
H942 H 0.98641 0.3496 0.72904 0.0
H943 H 0.986 0.3134 0.71895 0.0
C944 C 0.8966 0.4986 0.98791 0.0
C945 C 0.91908 0.4942 0.97673 0.0
C946 C 0.87831 0.47571 0.99139 0.0
C947 C 0.88236 0.44785 0.98326 0.0
C948 C 0.90553 0.44311 0.9723 0.0
C949 C 0.92379 0.46637 0.96925 0.0
C950 C 0.85409 0.48155 0.00336 0.0
C951 C 0.91026 0.41384 0.96322 0.0
C952 C 0.84181 0.38676 0.00217 0.0
C953 C 0.81563 0.38657 0.99204 0.0
C954 C 0.86444 0.40576 0.99901 0.0
C955 C 0.86083 0.42452 0.98524 0.0
C956 C 0.83519 0.4229 0.97427 0.0
C957 C 0.8128 0.40413 0.9779 0.0
C958 C 0.89139 0.40705 0.01106 0.0
C959 C 0.83073 0.4421 0.95924 0.0
H960 H 0.8932 0.52009 0.99382 0.0
H961 H 0.9411 0.46305 0.96051 0.0
H962 H 0.8329 0.47892 0.9959 0.0
H963 H 0.85466 0.46569 0.01357 0.0
H964 H 0.85536 0.50377 0.00971 0.0
H965 H 0.93069 0.4131 0.95636 0.0
H966 H 0.91082 0.3967 0.97265 0.0
H967 H 0.89192 0.40866 0.95359 0.0
H968 H 0.84401 0.37328 0.01315 0.0
H969 H 0.79269 0.40379 0.96992 0.0
H970 H 0.89187 0.42775 0.01912 0.0
H971 H 0.91109 0.40655 0.00355 0.0
H972 H 0.89229 0.38887 0.01983 0.0
H973 H 0.82854 0.46493 0.96424 0.0
H974 H 0.81104 0.43593 0.95086 0.0
H975 H 0.84975 0.44108 0.95115 0.0
C976 C 0.68805 0.41999 0.24459 0.0
C977 C 0.66119 0.40767 0.2385 0.0
C978 C 0.71008 0.40308 0.25205 0.0
C979 C 0.70565 0.37292 0.25285 0.0
C980 C 0.67841 0.36048 0.24726 0.0
C981 C 0.65639 0.37808 0.24054 0.0
C982 C 0.73848 0.41734 0.25844 0.0
C983 C 0.67294 0.32827 0.24754 0.0
C984 C 0.76963 0.3227 0.24888 0.0
C985 C 0.77238 0.31183 0.26543 0.0
C986 C 0.74846 0.34314 0.24479 0.0
C987 C 0.73021 0.35379 0.25774 0.0
C988 C 0.73414 0.34432 0.2748 0.0
C989 C 0.75483 0.32294 0.27837 0.0
C990 C 0.74452 0.35198 0.2263 0.0
C991 C 0.7159 0.35607 0.28912 0.0
H992 H 0.69237 0.44269 0.24304 0.0
H993 H 0.63552 0.36835 0.23654 0.0
H994 H 0.74592 0.40954 0.27124 0.0
H995 H 0.75531 0.41153 0.24924 0.0
H996 H 0.73682 0.44132 0.25966 0.0
H997 H 0.65033 0.3221 0.24311 0.0
H998 H 0.68788 0.31638 0.23899 0.0
H999 H 0.67736 0.32101 0.26083 0.0
H1000 H 0.78295 0.31396 0.23878 0.0
H1001 H 0.757 0.31465 0.29119 0.0
H1002 H 0.74597 0.37587 0.22595 0.0
H1003 H 0.72266 0.34524 0.22076 0.0
H1004 H 0.76093 0.34214 0.21788 0.0
H1005 H 0.71467 0.38004 0.28913 0.0
H1006 H 0.72462 0.35003 0.3021 0.0
H1007 H 0.6935 0.34741 0.28693 0.0
C1008 C 0.21619 0.98327 0.41603 0.0
C1009 C 0.23454 0.00313 0.40901 0.0
C1010 C 0.22553 0.96803 0.43044 0.0
C1011 C 0.25388 0.97281 0.43804 0.0
C1012 C 0.27304 0.99161 0.43045 0.0
C1013 C 0.26312 0.00659 0.41602 0.0
C1014 C 0.20443 0.94815 0.43815 0.0
C1015 C 0.30351 0.99709 0.43811 0.0
C1016 C 0.26291 0.96459 0.4865 0.0
C1017 C 0.2753 0.93703 0.48731 0.0
C1018 C 0.25631 0.97657 0.47055 0.0
C1019 C 0.26226 0.96066 0.45496 0.0
C1020 C 0.27519 0.93303 0.45564 0.0
C1021 C 0.28155 0.92151 0.47183 0.0
C1022 C 0.24254 0.00612 0.47038 0.0
C1023 C 0.28187 0.9155 0.43928 0.0
H1024 H 0.19397 0.98071 0.41084 0.0
H1025 H 0.27753 0.0216 0.41048 0.0
H1026 H 0.21458 0.92694 0.44045 0.0
H1027 H 0.19837 0.95782 0.4509 0.0
H1028 H 0.18435 0.9444 0.42967 0.0
H1029 H 0.31667 0.00961 0.42956 0.0
H1030 H 0.30279 0.00946 0.45083 0.0
H1031 H 0.31452 0.97632 0.44046 0.0
H1032 H 0.25806 0.97681 0.49837 0.0
H1033 H 0.29119 0.90024 0.47233 0.0
H1034 H 0.22086 0.00443 0.4634 0.0
H1035 H 0.25587 0.02095 0.46332 0.0
H1036 H 0.23999 0.01597 0.48366 0.0
H1037 H 0.26148 0.91019 0.4314 0.0
H1038 H 0.29314 0.89498 0.44205 0.0
H1039 H 0.29562 0.92835 0.43127 0.0
C1040 C 0.12625 0.6979 0.67405 0.0
C1041 C 0.10576 0.71504 0.66542 0.0
C1042 C 0.14158 0.70848 0.68934 0.0
C1043 C 0.13618 0.73686 0.69623 0.0
C1044 C 0.11586 0.75447 0.68747 0.0
C1045 C 0.10091 0.74336 0.67214 0.0
C1046 C 0.16311 0.68905 0.6983 0.0
C1047 C 0.10957 0.78485 0.69445 0.0
C1048 C 0.1544 0.75083 0.74451 0.0
C1049 C 0.18153 0.76459 0.74473 0.0
C1050 C 0.13908 0.74236 0.7288 0.0
C1051 C 0.15123 0.74765 0.71292 0.0
C1052 C 0.1783 0.76205 0.71302 0.0
C1053 C 0.19311 0.77041 0.72893 0.0
C1054 C 0.11015 0.7272 0.7292 0.0
C1055 C 0.19196 0.76798 0.69633 0.0
H1056 H 0.12977 0.67584 0.66912 0.0
H1057 H 0.08536 0.75684 0.66542 0.0
H1058 H 0.18458 0.69995 0.7002 0.0
H1059 H 0.15596 0.68473 0.71135 0.0
H1060 H 0.16567 0.66799 0.69086 0.0
H1061 H 0.09378 0.79604 0.68582 0.0
H1062 H 0.10075 0.78419 0.70745 0.0
H1063 H 0.12988 0.79786 0.69608 0.0
H1064 H 0.14519 0.74638 0.75664 0.0
H1065 H 0.21403 0.78106 0.72895 0.0
H1066 H 0.11147 0.70486 0.72321 0.0
H1067 H 0.09334 0.73869 0.72148 0.0
H1068 H 0.10307 0.72595 0.74262 0.0
H1069 H 0.19663 0.74719 0.68914 0.0
H1070 H 0.21246 0.78063 0.69862 0.0
H1071 H 0.17673 0.78008 0.68786 0.0
C1072 C 0.41172 0.59862 0.90755 0.0
C1073 C 0.43519 0.61063 0.89974 0.0
C1074 C 0.3997 0.61309 0.92188 0.0
C1075 C 0.41149 0.64013 0.92851 0.0
C1076 C 0.43405 0.65309 0.92003 0.0
C1077 C 0.44561 0.63818 0.90574 0.0
C1078 C 0.37554 0.59865 0.93053 0.0
C1079 C 0.44707 0.682 0.92661 0.0
C1080 C 0.37293 0.68772 0.96155 0.0
C1081 C 0.38804 0.68123 0.97712 0.0
C1082 C 0.37984 0.67407 0.94562 0.0
C1083 C 0.4024 0.65352 0.94526 0.0
C1084 C 0.41733 0.64648 0.96094 0.0
C1085 C 0.40996 0.66038 0.97666 0.0
C1086 C 0.36339 0.68201 0.92914 0.0
C1087 C 0.44154 0.62466 0.9611 0.0
H1088 H 0.40369 0.57727 0.90301 0.0
H1089 H 0.46343 0.64775 0.89953 0.0
H1090 H 0.38386 0.59144 0.9433 0.0
H1091 H 0.35782 0.61418 0.93295 0.0
H1092 H 0.36647 0.57951 0.92261 0.0
H1093 H 0.46258 0.69031 0.91763 0.0
H1094 H 0.42981 0.69827 0.92846 0.0
H1095 H 0.4587 0.67981 0.93943 0.0
H1096 H 0.35589 0.70372 0.96178 0.0
H1097 H 0.42171 0.65511 0.9886 0.0
H1098 H 0.35432 0.66223 0.92191 0.0
H1099 H 0.37834 0.69225 0.92059 0.0
H1100 H 0.34542 0.69721 0.93173 0.0
H1101 H 0.43371 0.60366 0.95478 0.0
H1102 H 0.45035 0.62092 0.97446 0.0
H1103 H 0.45945 0.63232 0.95357 0.0
C1104 C 0.51382 0.93429 0.16495 0.0
C1105 C 0.50329 0.96185 0.16127 0.0
C1106 C 0.5032 0.91908 0.17843 0.0
C1107 C 0.48227 0.9321 0.18896 0.0
C1108 C 0.471 0.95951 0.18513 0.0
C1109 C 0.48119 0.97376 0.17114 0.0
C1110 C 0.51518 0.88948 0.18178 0.0
C1111 C 0.44911 0.9744 0.19627 0.0
C1112 C 0.44226 0.88551 0.21884 0.0
C1113 C 0.46005 0.8888 0.23415 0.0
C1114 C 0.44916 0.89947 0.20396 0.0
C1115 C 0.47382 0.91791 0.20469 0.0
C1116 C 0.49113 0.92216 0.22039 0.0
C1117 C 0.48434 0.9071 0.23483 0.0
C1118 C 0.43077 0.89362 0.1873 0.0
C1119 C 0.51704 0.94235 0.22189 0.0
H1120 H 0.53112 0.92483 0.15772 0.0
H1121 H 0.47215 0.99457 0.1682 0.0
H1122 H 0.52891 0.89067 0.19407 0.0
H1123 H 0.4973 0.87392 0.18327 0.0
H1124 H 0.52848 0.88088 0.17116 0.0
H1125 H 0.44163 0.9952 0.19116 0.0
H1126 H 0.43001 0.96014 0.19721 0.0
H1127 H 0.45888 0.97885 0.20964 0.0
H1128 H 0.42364 0.87108 0.21829 0.0
H1129 H 0.49798 0.90975 0.24674 0.0
H1130 H 0.44409 0.88303 0.1773 0.0
H1131 H 0.42282 0.91424 0.18224 0.0
H1132 H 0.41185 0.87942 0.18903 0.0
H1133 H 0.53381 0.93388 0.2133 0.0
H1134 H 0.52683 0.94499 0.23537 0.0
H1135 H 0.51067 0.964 0.21758 0.0
C1136 C 0.08905 0.73763 0.90561 0.0
C1137 C 0.09653 0.70961 0.91033 0.0
C1138 C 0.10347 0.75109 0.89273 0.0
C1139 C 0.12645 0.73656 0.88471 0.0
C1140 C 0.13558 0.70936 0.89035 0.0
C1141 C 0.1203 0.69605 0.90286 0.0
C1142 C 0.09288 0.77999 0.88696 0.0
C1143 C 0.16044 0.69338 0.88241 0.0
C1144 C 0.1415 0.74379 0.83765 0.0
C1145 C 0.16656 0.76105 0.83904 0.0
C1146 C 0.12713 0.73738 0.85239 0.0
C1147 C 0.13866 0.74774 0.86901 0.0
C1148 C 0.16334 0.76621 0.87045 0.0
C1149 C 0.17683 0.77299 0.85535 0.0
C1150 C 0.1004 0.71829 0.85021 0.0
C1151 C 0.17662 0.77721 0.88793 0.0
H1152 H 0.0713 0.74877 0.91157 0.0
H1153 H 0.12624 0.67432 0.90607 0.0
H1154 H 0.1113 0.79512 0.886 0.0
H1155 H 0.08178 0.77692 0.87384 0.0
H1156 H 0.07743 0.79015 0.89592 0.0
H1157 H 0.16743 0.67457 0.88985 0.0
H1158 H 0.15377 0.68535 0.86894 0.0
H1159 H 0.17928 0.70814 0.88175 0.0
H1160 H 0.13345 0.73476 0.82498 0.0
H1161 H 0.19638 0.78617 0.85642 0.0
H1162 H 0.0828 0.72795 0.85776 0.0
H1163 H 0.10538 0.69683 0.85529 0.0
H1164 H 0.09235 0.7149 0.83641 0.0
H1165 H 0.15974 0.78585 0.89639 0.0
H1166 H 0.19313 0.7944 0.88679 0.0
H1167 H 0.18719 0.75897 0.89446 0.0
C1168 C 0.43536 0.57472 0.13283 0.0
C1169 C 0.46199 0.58384 0.14119 0.0
C1170 C 0.42204 0.59029 0.11954 0.0
C1171 C 0.43514 0.61613 0.11483 0.0
C1172 C 0.4609 0.62653 0.12397 0.0
C1173 C 0.47422 0.61008 0.13681 0.0
C1174 C 0.39483 0.57822 0.10991 0.0
C1175 C 0.47522 0.65437 0.11962 0.0
C1176 C 0.4277 0.64002 0.06882 0.0
C1177 C 0.40732 0.6622 0.07018 0.0
C1178 C 0.43573 0.62388 0.08306 0.0
C1179 C 0.42381 0.63076 0.09923 0.0
C1180 C 0.40269 0.65276 0.10058 0.0
C1181 C 0.39434 0.66798 0.08591 0.0
C1182 C 0.45768 0.60003 0.08091 0.0
C1183 C 0.39008 0.66124 0.11769 0.0
H1184 H 0.42518 0.55496 0.13636 0.0
H1185 H 0.49492 0.61735 0.14287 0.0
H1186 H 0.37793 0.5951 0.10915 0.0
H1187 H 0.39965 0.5713 0.0964 0.0
H1188 H 0.38596 0.55932 0.11611 0.0
H1189 H 0.49281 0.66144 0.12941 0.0
H1190 H 0.48464 0.65131 0.10678 0.0
H1191 H 0.45905 0.67195 0.11874 0.0
H1192 H 0.43756 0.63543 0.05659 0.0
H1193 H 0.37875 0.68534 0.08696 0.0
H1194 H 0.4496 0.57977 0.08598 0.0
H1195 H 0.47811 0.60623 0.08851 0.0
H1196 H 0.46265 0.59554 0.06713 0.0
H1197 H 0.38191 0.64187 0.12369 0.0
H1198 H 0.37213 0.67696 0.11626 0.0
H1199 H 0.4073 0.67121 0.1268 0.0
C1200 C 0.49081 0.95851 0.39417 0.0
C1201 C 0.51346 0.94705 0.40444 0.0
C1202 C 0.47712 0.94187 0.38022 0.0
C1203 C 0.48633 0.91313 0.37649 0.0
C1204 C 0.50782 0.90083 0.38752 0.0
C1205 C 0.52113 0.91795 0.40138 0.0
C1206 C 0.45418 0.95573 0.36879 0.0
C1207 C 0.51805 0.87018 0.38406 0.0
C1208 C 0.44078 0.86553 0.34336 0.0
C1209 C 0.45516 0.8692 0.32815 0.0
C1210 C 0.45084 0.87935 0.35929 0.0
C1211 C 0.47586 0.8972 0.36 0.0
C1212 C 0.49077 0.90053 0.34478 0.0
C1213 C 0.48025 0.88652 0.32906 0.0
C1214 C 0.43443 0.87529 0.37527 0.0
C1215 C 0.51764 0.91932 0.34502 0.0
H1216 H 0.48494 0.98104 0.39636 0.0
H1217 H 0.53833 0.90888 0.40947 0.0
H1218 H 0.46287 0.95928 0.35602 0.0
H1219 H 0.43499 0.94125 0.36639 0.0
H1220 H 0.4471 0.97692 0.37458 0.0
H1221 H 0.53222 0.86273 0.395 0.0
H1222 H 0.49932 0.85508 0.38171 0.0
H1223 H 0.53041 0.86892 0.37219 0.0
H1224 H 0.42136 0.85221 0.34279 0.0
H1225 H 0.49158 0.88944 0.31742 0.0
H1226 H 0.42574 0.89639 0.38011 0.0
H1227 H 0.4492 0.86744 0.38578 0.0
H1228 H 0.41612 0.85968 0.3727 0.0
H1229 H 0.51237 0.94201 0.3491 0.0
H1230 H 0.52706 0.91911 0.33214 0.0
H1231 H 0.53432 0.91181 0.35461 0.0
C1232 C 0.23761 0.05548 0.65187 0.0
C1233 C 0.21576 0.04021 0.65933 0.0
C1234 C 0.25249 0.0427 0.63808 0.0
C1235 C 0.2453 0.01404 0.63171 0.0
C1236 C 0.22506 0.99778 0.64024 0.0
C1237 C 0.21049 0.01109 0.65393 0.0
C1238 C 0.27411 0.06067 0.62946 0.0
C1239 C 0.21699 0.96704 0.63402 0.0
C1240 C 0.24397 0.99263 0.5837 0.0
C1241 C 0.26766 0.97395 0.58273 0.0
C1242 C 0.23748 0.00703 0.59943 0.0
C1243 C 0.25507 0.00258 0.61465 0.0
C1244 C 0.28002 0.98508 0.6136 0.0
C1245 C 0.28608 0.97095 0.5976 0.0
C1246 C 0.21083 0.02577 0.59991 0.0
C1247 C 0.29938 0.97997 0.62951 0.0
H1248 H 0.24168 0.07804 0.65599 0.0
H1249 H 0.19388 0.99915 0.65986 0.0
H1250 H 0.29342 0.04771 0.62629 0.0
H1251 H 0.26405 0.06792 0.61708 0.0
H1252 H 0.28123 0.08017 0.63776 0.0
H1253 H 0.20382 0.95625 0.64334 0.0
H1254 H 0.20426 0.96712 0.62139 0.0
H1255 H 0.2367 0.95404 0.63193 0.0
H1256 H 0.22982 0.9953 0.57222 0.0
H1257 H 0.30444 0.95654 0.59693 0.0
H1258 H 0.21634 0.04739 0.6063 0.0
H1259 H 0.19452 0.01566 0.60765 0.0
H1260 H 0.20079 0.0288 0.58673 0.0
H1261 H 0.30415 0.00063 0.63724 0.0
H1262 H 0.32014 0.96974 0.62612 0.0
H1263 H 0.28812 0.96549 0.63789 0.0
C1264 C 0.58475 0.40183 0.89254 0.0
C1265 C 0.60058 0.42149 0.88366 0.0
C1266 C 0.59798 0.38721 0.90629 0.0
C1267 C 0.62767 0.39235 0.91111 0.0
C1268 C 0.64424 0.41011 0.90108 0.0
C1269 C 0.63044 0.42461 0.88753 0.0
C1270 C 0.57958 0.36838 0.91658 0.0
C1271 C 0.67606 0.41583 0.90558 0.0
C1272 C 0.6547 0.3974 0.9583 0.0
C1273 C 0.67105 0.37211 0.95956 0.0
C1274 C 0.63919 0.40334 0.94284 0.0
C1275 C 0.64027 0.38362 0.92815 0.0
C1276 C 0.65548 0.35727 0.92957 0.0
C1277 C 0.67065 0.35173 0.94535 0.0
C1278 C 0.62287 0.4315 0.942 0.0
C1279 C 0.65712 0.33574 0.91421 0.0
H1280 H 0.56161 0.39949 0.88959 0.0
H1281 H 0.64271 0.4396 0.88052 0.0
H1282 H 0.59125 0.3484 0.91995 0.0
H1283 H 0.57473 0.38039 0.92892 0.0
H1284 H 0.55873 0.36221 0.90939 0.0
H1285 H 0.68663 0.42658 0.89512 0.0
H1286 H 0.67864 0.43008 0.91766 0.0
H1287 H 0.68751 0.39532 0.90802 0.0
H1288 H 0.65468 0.41307 0.96932 0.0
H1289 H 0.68332 0.33217 0.94626 0.0
H1290 H 0.60031 0.42741 0.9367 0.0
H1291 H 0.63337 0.44576 0.93315 0.0
H1292 H 0.62223 0.44329 0.95493 0.0
H1293 H 0.63544 0.33215 0.90745 0.0
H1294 H 0.66583 0.31458 0.91807 0.0
H1295 H 0.67149 0.34449 0.90477 0.0
C1296 C 0.6774 0.13061 0.17401 0.0
C1297 C 0.68763 0.12077 0.15797 0.0
C1298 C 0.69635 0.14166 0.18764 0.0
C1299 C 0.72647 0.14219 0.18543 0.0
C1300 C 0.73713 0.13197 0.16942 0.0
C1301 C 0.71755 0.12167 0.15581 0.0
C1302 C 0.68406 0.15274 0.20444 0.0
C1303 C 0.76918 0.1318 0.16673 0.0
C1304 C 0.76909 0.19519 0.21651 0.0
C1305 C 0.77738 0.17761 0.23008 0.0
C1306 C 0.75348 0.1837 0.20154 0.0
C1307 C 0.74652 0.15379 0.19996 0.0
C1308 C 0.7563 0.13562 0.21316 0.0
C1309 C 0.77134 0.14781 0.22818 0.0
C1310 C 0.74295 0.2039 0.18792 0.0
C1311 C 0.74983 0.1035 0.21173 0.0
H1312 H 0.65449 0.12928 0.17609 0.0
H1313 H 0.72572 0.11441 0.14346 0.0
H1314 H 0.69242 0.13972 0.21521 0.0
H1315 H 0.69108 0.17551 0.20768 0.0
H1316 H 0.66001 0.1518 0.20382 0.0
H1317 H 0.77403 0.12231 0.15369 0.0
H1318 H 0.77801 0.15421 0.16828 0.0
H1319 H 0.78072 0.11917 0.17673 0.0
H1320 H 0.77359 0.21827 0.21792 0.0
H1321 H 0.77794 0.13409 0.23856 0.0
H1322 H 0.71899 0.20532 0.1877 0.0
H1323 H 0.74864 0.19541 0.17485 0.0
H1324 H 0.7522 0.22608 0.19041 0.0
H1325 H 0.72633 0.09981 0.21287 0.0
H1326 H 0.76194 0.0919 0.22201 0.0
H1327 H 0.75539 0.0939 0.19887 0.0
C1328 C 0.04094 0.17384 0.41181 0.0
C1329 C 0.06721 0.18618 0.40757 0.0
C1330 C 0.0243 0.18704 0.42461 0.0
C1331 C 0.03452 0.21281 0.43384 0.0
C1332 C 0.06049 0.22592 0.42934 0.0
C1333 C 0.07628 0.21269 0.4161 0.0
C1334 C 0.99637 0.17267 0.42877 0.0
C1335 C 0.07234 0.25314 0.43907 0.0
C1336 C 0.98157 0.2538 0.46195 0.0
C1337 C 0.98681 0.24103 0.47779 0.0
C1338 C 0.99736 0.24534 0.44752 0.0
C1339 C 0.01936 0.2243 0.44922 0.0
C1340 C 0.02571 0.21261 0.46551 0.0
C1341 C 0.00904 0.22078 0.47951 0.0
C1342 C 0.98947 0.25775 0.43028 0.0
C1343 C 0.04951 0.19073 0.46802 0.0
H1344 H 0.03374 0.1532 0.40563 0.0
H1345 H 0.09609 0.22292 0.4127 0.0
H1346 H 0.99909 0.16353 0.4417 0.0
H1347 H 0.9787 0.18877 0.42936 0.0
H1348 H 0.98965 0.15488 0.41904 0.0
H1349 H 0.09161 0.26184 0.43315 0.0
H1350 H 0.05553 0.27014 0.4395 0.0
H1351 H 0.07861 0.24844 0.45269 0.0
H1352 H 0.96418 0.26929 0.4606 0.0
H1353 H 0.01324 0.21108 0.49182 0.0
H1354 H 0.97992 0.2404 0.4211 0.0
H1355 H 0.00907 0.26597 0.42453 0.0
H1356 H 0.97361 0.27562 0.43143 0.0
H1357 H 0.04358 0.1702 0.46043 0.0
H1358 H 0.05354 0.18593 0.48186 0.0
H1359 H 0.06996 0.19877 0.46316 0.0
C1360 C 0.89903 0.55294 0.64154 0.0
C1361 C 0.92661 0.5455 0.63605 0.0
C1362 C 0.88619 0.53781 0.65434 0.0
C1363 C 0.90092 0.51419 0.66151 0.0
C1364 C 0.92751 0.50499 0.65497 0.0
C1365 C 0.9402 0.52094 0.64252 0.0
C1366 C 0.85789 0.54842 0.66103 0.0
C1367 C 0.94363 0.47947 0.66199 0.0
C1368 C 0.89658 0.49833 0.70868 0.0
C1369 C 0.8787 0.4737 0.70756 0.0
C1370 C 0.90249 0.51267 0.69385 0.0
C1371 C 0.8909 0.5016 0.67739 0.0
C1372 C 0.87193 0.47731 0.67623 0.0
C1373 C 0.86575 0.4638 0.69142 0.0
C1374 C 0.92219 0.53898 0.69575 0.0
C1375 C 0.85959 0.46455 0.6589 0.0
H1376 H 0.88786 0.57131 0.63631 0.0
H1377 H 0.96157 0.51496 0.63863 0.0
H1378 H 0.84277 0.53006 0.66219 0.0
H1379 H 0.862 0.55912 0.67419 0.0
H1380 H 0.84722 0.56423 0.65252 0.0
H1381 H 0.9616 0.47249 0.65383 0.0
H1382 H 0.95288 0.48544 0.67531 0.0
H1383 H 0.92869 0.46083 0.66281 0.0
H1384 H 0.90639 0.50612 0.7212 0.0
H1385 H 0.85208 0.44459 0.69055 0.0
H1386 H 0.91222 0.55704 0.68876 0.0
H1387 H 0.94298 0.53375 0.68987 0.0
H1388 H 0.92696 0.54651 0.70955 0.0
H1389 H 0.85056 0.48177 0.65084 0.0
H1390 H 0.84236 0.44821 0.66034 0.0
H1391 H 0.87717 0.45392 0.65177 0.0
C1392 C 0.66911 0.12829 0.37562 0.0
C1393 C 0.68072 0.13017 0.39285 0.0
C1394 C 0.68426 0.13927 0.36225 0.0
C1395 C 0.71182 0.15231 0.36613 0.0
C1396 C 0.72333 0.15504 0.38355 0.0
C1397 C 0.70763 0.14396 0.39671 0.0
C1398 C 0.67124 0.13589 0.34385 0.0
C1399 C 0.75263 0.16884 0.38822 0.0
C1400 C 0.76339 0.14798 0.32977 0.0
C1401 C 0.76128 0.17578 0.3235 0.0
C1402 C 0.74777 0.14031 0.3438 0.0
C1403 C 0.72947 0.1609 0.35178 0.0
C1404 C 0.72743 0.18911 0.34566 0.0
C1405 C 0.74341 0.19625 0.33158 0.0
C1406 C 0.75061 0.11 0.34995 0.0
C1407 C 0.70807 0.21159 0.35383 0.0
H1408 H 0.64854 0.11732 0.37246 0.0
H1409 H 0.71656 0.14587 0.41001 0.0
H1410 H 0.67126 0.15701 0.33777 0.0
H1411 H 0.68454 0.12077 0.33602 0.0
H1412 H 0.64867 0.12738 0.34317 0.0
H1413 H 0.75754 0.17128 0.40247 0.0
H1414 H 0.76971 0.15536 0.38235 0.0
H1415 H 0.75377 0.19049 0.38285 0.0
H1416 H 0.77723 0.13204 0.32366 0.0
H1417 H 0.7417 0.21778 0.32683 0.0
H1418 H 0.72926 0.09881 0.34845 0.0
H1419 H 0.75765 0.1109 0.36394 0.0
H1420 H 0.76639 0.09683 0.34265 0.0
H1421 H 0.68522 0.20399 0.35233 0.0
H1422 H 0.70962 0.23282 0.34795 0.0
H1423 H 0.71386 0.21473 0.36796 0.0
C1424 C 0.00209 0.20113 0.6413 0.0
C1425 C 0.02951 0.21126 0.64774 0.0
C1426 C 0.9875 0.21363 0.62723 0.0
C1427 C 0.0006 0.23691 0.61948 0.0
C1428 C 0.02735 0.24855 0.62669 0.0
C1429 C 0.04154 0.23554 0.64075 0.0
C1430 C 0.95893 0.20066 0.62 0.0
C1431 C 0.04189 0.27352 0.61887 0.0
C1432 C 0.98329 0.23978 0.57113 0.0
C1433 C 0.96196 0.26122 0.57043 0.0
C1434 C 0.99639 0.2322 0.587 0.0
C1435 C 0.98811 0.24646 0.60262 0.0
C1436 C 0.96714 0.26864 0.60205 0.0
C1437 C 0.95423 0.27572 0.58594 0.0
C1438 C 0.01865 0.20837 0.58704 0.0
C1439 C 0.95797 0.28445 0.61845 0.0
H1440 H 0.99245 0.18273 0.6469 0.0
H1441 H 0.06277 0.24341 0.64564 0.0
H1442 H 0.94266 0.21789 0.61807 0.0
H1443 H 0.96184 0.18947 0.60712 0.0
H1444 H 0.95022 0.18476 0.62859 0.0
H1445 H 0.06028 0.28268 0.62742 0.0
H1446 H 0.05027 0.26596 0.60625 0.0
H1447 H 0.02615 0.291 0.61632 0.0
H1448 H 0.98951 0.22848 0.55925 0.0
H1449 H 0.93787 0.2924 0.58553 0.0
H1450 H 0.01081 0.19006 0.59418 0.0
H1451 H 0.03918 0.21639 0.59387 0.0
H1452 H 0.02332 0.20006 0.57373 0.0
H1453 H 0.94712 0.26911 0.62649 0.0
H1454 H 0.94287 0.30246 0.61573 0.0
H1455 H 0.97722 0.29338 0.62628 0.0
C1456 C 0.89694 0.53921 0.87531 0.0
C1457 C 0.92567 0.53442 0.88129 0.0
C1458 C 0.88516 0.52503 0.85988 0.0
C1459 C 0.90249 0.50554 0.85027 0.0
C1460 C 0.93137 0.5004 0.85633 0.0
C1461 C 0.94263 0.51499 0.87169 0.0
C1462 C 0.85428 0.53109 0.85378 0.0
C1463 C 0.95055 0.47975 0.84645 0.0
C1464 C 0.86893 0.44836 0.81777 0.0
C1465 C 0.87385 0.46029 0.80194 0.0
C1466 C 0.87734 0.46325 0.83364 0.0
C1467 C 0.89081 0.4908 0.83369 0.0
C1468 C 0.89491 0.50341 0.81778 0.0
C1469 C 0.88647 0.48796 0.8021 0.0
C1470 C 0.87274 0.44907 0.85035 0.0
C1471 C 0.90899 0.53286 0.81731 0.0
H1472 H 0.88363 0.55398 0.88274 0.0
H1473 H 0.96502 0.51158 0.876 0.0
H1474 H 0.85379 0.54014 0.84081 0.0
H1475 H 0.8415 0.51063 0.85238 0.0
H1476 H 0.84358 0.54659 0.86285 0.0
H1477 H 0.97223 0.47749 0.8532 0.0
H1478 H 0.94015 0.45802 0.8446 0.0
H1479 H 0.9535 0.48749 0.83337 0.0
H1480 H 0.85915 0.42702 0.81779 0.0
H1481 H 0.89016 0.49746 0.78994 0.0
H1482 H 0.8611 0.46392 0.8593 0.0
H1483 H 0.89403 0.4444 0.85695 0.0
H1484 H 0.86023 0.42847 0.84815 0.0
H1485 H 0.8978 0.54903 0.82568 0.0
H1486 H 0.90871 0.5405 0.80396 0.0
H1487 H 0.93183 0.53198 0.82253 0.0
C1488 C 0.66946 0.42231 0.13075 0.0
C1489 C 0.6392 0.41977 0.13099 0.0
C1490 C 0.68399 0.4134 0.11593 0.0
C1491 C 0.66802 0.40078 0.10117 0.0
C1492 C 0.6377 0.39711 0.10151 0.0
C1493 C 0.62363 0.40708 0.11626 0.0
C1494 C 0.71631 0.41814 0.11591 0.0
C1495 C 0.61998 0.38314 0.08616 0.0
C1496 C 0.69626 0.40244 0.05615 0.0
C1497 C 0.70805 0.37472 0.05392 0.0
C1498 C 0.68406 0.41155 0.07173 0.0
C1499 C 0.68279 0.3921 0.08513 0.0
C1500 C 0.69462 0.36403 0.0829 0.0
C1501 C 0.70753 0.35583 0.06741 0.0
C1502 C 0.67235 0.44191 0.0738 0.0
C1503 C 0.69289 0.34239 0.09667 0.0
H1504 H 0.68189 0.43152 0.1421 0.0
H1505 H 0.60024 0.40551 0.11599 0.0
H1506 H 0.72733 0.39723 0.11327 0.0
H1507 H 0.72124 0.43231 0.10537 0.0
H1508 H 0.72557 0.42829 0.12843 0.0
H1509 H 0.59701 0.37974 0.08904 0.0
H1510 H 0.62053 0.39697 0.07496 0.0
H1511 H 0.62932 0.36189 0.08215 0.0
H1512 H 0.69689 0.41713 0.04578 0.0
H1513 H 0.71643 0.33428 0.06563 0.0
H1514 H 0.68211 0.45315 0.08586 0.0
H1515 H 0.6486 0.44108 0.07503 0.0
H1516 H 0.67679 0.45496 0.06264 0.0
H1517 H 0.70328 0.35142 0.10915 0.0
H1518 H 0.7035 0.32159 0.09301 0.0
H1519 H 0.66986 0.33792 0.0989 0.0
loop_
_geom_bond_atom_site_label_1
_geom_bond_atom_site_label_2
_geom_bond_distance
_geom_bond_site_symmetry_2
_ccdc_geom_bond_type
H0 C19 0.949 . S
H1 C20 0.950 . S
H2 C22 0.950 1_655 S
H3 C23 0.950 . S
H4 C25 0.950 . S
H5 C28 0.950 . S
H6 C29 0.950 . S
H7 C31 0.951 . S
H8 C32 0.949 . S
H9 C34 0.949 . S
H10 C35 0.950 . S
H11 C37 0.950 . S
H12 C38 0.950 . S
H13 C40 0.950 . S
H14 C43 0.950 . S
H15 C44 0.950 . S
H16 C46 0.951 . S
H17 C47 0.949 . S
C18 C19 1.376 . S
C18 C23 1.386 . S
C18 C24 1.483 . S
C19 H0 0.949 . S
C19 C18 1.376 . S
C19 C20 1.397 . S
C20 H1 0.950 . S
C20 C19 1.397 . S
C20 C21 1.391 . S
C21 C20 1.391 . S
C21 C22 1.405 . S
C22 H2 0.950 1_455 S
C22 C21 1.405 . S
C22 C23 1.367 . S
C23 H3 0.950 . S
C23 C18 1.386 . S
C23 C22 1.367 . S
C24 C18 1.483 . S
C24 C25 1.382 . S
C24 C26 1.403 . S
C25 H4 0.950 . S
C25 C24 1.382 . S
C25 C41 1.411 . S
C26 C24 1.403 . S
C26 C27 1.489 . S
C26 C40 1.411 . S
C27 C26 1.489 . S
C27 C28 1.383 . S
C27 C32 1.382 . S
C28 H5 0.950 . S
C28 C27 1.383 . S
C28 C29 1.395 . S
C29 H6 0.950 . S
C29 C28 1.395 . S
C29 C30 1.288 . S
C30 C29 1.288 . S
C30 C31 1.392 . S
C31 H7 0.951 . S
C31 C30 1.392 . S
C31 C32 1.392 . S
C32 H8 0.949 . S
C32 C27 1.382 . S
C32 C31 1.392 . S
C33 C34 1.376 . S
C33 C38 1.386 1_565 S
C33 C39 1.483 1_565 S
C34 H9 0.949 . S
C34 C33 1.376 . S
C34 C35 1.397 . S
C35 H10 0.950 . S
C35 C34 1.397 . S
C35 C36 1.391 . S
C36 C35 1.391 . S
C36 C37 1.405 . S
C37 H11 0.950 . S
C37 C36 1.405 . S
C37 C38 1.367 1_565 S
C38 H12 0.950 . S
C38 C33 1.386 1_545 S
C38 C37 1.367 1_545 S
C39 C33 1.483 1_545 S
C39 C40 1.382 . S
C39 C41 1.403 . S
C40 H13 0.950 . S
C40 C26 1.411 . S
C40 C39 1.382 . S
C41 C25 1.411 . S
C41 C39 1.403 . S
C41 C42 1.489 . S
C42 C41 1.489 . S
C42 C43 1.383 1_545 S
C42 C47 1.382 . S
C43 H14 0.950 . S
C43 C42 1.383 1_565 S
C43 C44 1.395 . S
C44 H15 0.950 . S
C44 C43 1.395 . S
C44 C45 1.288 . S
C45 C44 1.288 . S
C45 C46 1.392 1_565 S
C46 H16 0.951 . S
C46 C45 1.392 1_545 S
C46 C47 1.392 . S
C47 H17 0.949 . S
C47 C42 1.382 . S
C47 C46 1.392 . S
H48 C67 0.949 . S
H49 C68 0.950 . S
H50 C70 0.950 . S
H51 C71 0.950 . S
H52 C73 0.950 . S
H53 C76 0.950 . S
H54 C77 0.950 . S
H55 C79 0.951 . S
H56 C80 0.949 . S
H57 C82 0.949 . S
H58 C83 0.950 . S
H59 C85 0.950 . S
H60 C86 0.950 . S
H61 C88 0.950 . S
H62 C91 0.950 . S
H63 C92 0.950 . S
H64 C94 0.951 . S
H65 C95 0.949 . S
C66 C67 1.376 . S
C66 C71 1.386 1_455 S
C66 C72 1.483 . S
C67 H48 0.949 . S
C67 C66 1.376 . S
C67 C68 1.397 . S
C68 H49 0.950 . S
C68 C67 1.397 . S
C68 C69 1.391 1_455 S
C69 C68 1.391 1_655 S
C69 C70 1.405 . S
C70 H50 0.950 . S
C70 C69 1.405 . S
C70 C71 1.367 . S
C71 H51 0.950 . S
C71 C66 1.386 1_655 S
C71 C70 1.367 . S
C72 C66 1.483 . S
C72 C73 1.382 . S
C72 C74 1.403 . S
C73 H52 0.950 . S
C73 C72 1.382 . S
C73 C89 1.411 . S
C74 C72 1.403 . S
C74 C75 1.508 . S
C74 C88 1.411 . S
C75 C74 1.508 . S
C75 C76 1.387 . S
C75 C80 1.359 1_455 S
C76 H53 0.950 . S
C76 C75 1.387 . S
C76 C77 1.395 1_455 S
C77 H54 0.950 . S
C77 C76 1.395 1_655 S
C77 C78 1.288 . S
C78 C77 1.288 . S
C78 C79 1.392 . S
C79 H55 0.951 . S
C79 C78 1.392 . S
C79 C80 1.392 . S
C80 H56 0.949 . S
C80 C75 1.359 1_655 S
C80 C79 1.392 . S
C81 C82 1.376 . S
C81 C86 1.386 . S
C81 C87 1.483 . S
C82 H57 0.949 . S
C82 C81 1.376 . S
C82 C83 1.397 . S
C83 H58 0.950 . S
C83 C82 1.397 . S
C83 C84 1.391 . S
C84 C83 1.391 . S
C84 C85 1.405 . S
C85 H59 0.950 . S
C85 C84 1.405 . S
C85 C86 1.367 . S
C86 H60 0.950 . S
C86 C81 1.386 . S
C86 C85 1.367 . S
C87 C81 1.483 . S
C87 C88 1.382 . S
C87 C89 1.403 . S
C88 H61 0.950 . S
C88 C74 1.411 . S
C88 C87 1.382 . S
C89 C73 1.411 . S
C89 C87 1.403 . S
C89 C90 1.489 . S
C90 C89 1.489 . S
C90 C91 1.383 . S
C90 C95 1.382 . S
C91 H62 0.950 . S
C91 C90 1.383 . S
C91 C92 1.395 . S
C92 H63 0.950 . S
C92 C91 1.395 . S
C92 C93 1.288 . S
C93 C92 1.288 . S
C93 C94 1.392 . S
C94 H64 0.951 . S
C94 C93 1.392 . S
C94 C95 1.392 . S
C95 H65 0.949 . S
C95 C90 1.382 . S
C95 C94 1.392 . S
H96 C115 0.949 . S
H97 C116 0.950 . S
H98 C118 0.950 . S
H99 C119 0.950 . S
H100 C121 0.950 . S
H101 C124 0.950 . S
H102 C125 0.950 . S
H103 C127 0.951 . S
H104 C128 0.949 . S
H105 C130 0.949 . S
H106 C131 0.950 . S
H107 C133 0.950 . S
H108 C134 0.950 . S
H109 C136 0.950 . S
H110 C139 0.950 . S
H111 C140 0.950 . S
H112 C142 0.951 . S
H113 C143 0.949 . S
C114 C115 1.376 . S
C114 C119 1.386 . S
C114 C120 1.483 . S
C115 H96 0.949 . S
C115 C114 1.376 . S
C115 C116 1.397 . S
C116 H97 0.950 . S
C116 C115 1.397 . S
C116 C117 1.391 . S
C117 C116 1.391 . S
C117 C118 1.405 . S
C118 H98 0.950 . S
C118 C117 1.405 . S
C118 C119 1.367 . S
C119 H99 0.950 . S
C119 C114 1.386 . S
C119 C118 1.367 . S
C120 C114 1.483 . S
C120 C121 1.382 . S
C120 C122 1.403 . S
C121 H100 0.950 . S
C121 C120 1.382 . S
C121 C137 1.411 . S
C122 C120 1.403 . S
C122 C123 1.489 . S
C122 C136 1.411 . S
C123 C122 1.489 . S
C123 C124 1.383 . S
C123 C128 1.382 . S
C124 H101 0.950 . S
C124 C123 1.383 . S
C124 C125 1.395 . S
C125 H102 0.950 . S
C125 C124 1.395 . S
C125 C126 1.288 . S
C126 C125 1.288 . S
C126 C127 1.392 . S
C127 H103 0.951 . S
C127 C126 1.392 . S
C127 C128 1.392 . S
C128 H104 0.949 . S
C128 C123 1.382 . S
C128 C127 1.392 . S
C129 C130 1.376 . S
C129 C134 1.386 . S
C129 C135 1.483 . S
C130 H105 0.949 . S
C130 C129 1.376 . S
C130 C131 1.397 . S
C131 H106 0.950 . S
C131 C130 1.397 . S
C131 C132 1.391 . S
C132 C131 1.391 . S
C132 C133 1.405 . S
C133 H107 0.950 . S
C133 C132 1.405 . S
C133 C134 1.367 . S
C134 H108 0.950 . S
C134 C129 1.386 . S
C134 C133 1.367 . S
C135 C129 1.483 . S
C135 C136 1.382 . S
C135 C137 1.403 . S
C136 H109 0.950 . S
C136 C122 1.411 . S
C136 C135 1.382 . S
C137 C121 1.411 . S
C137 C135 1.403 . S
C137 C138 1.489 . S
C138 C137 1.489 . S
C138 C139 1.383 . S
C138 C143 1.382 . S
C139 H110 0.950 . S
C139 C138 1.383 . S
C139 C140 1.395 . S
C140 H111 0.950 . S
C140 C139 1.395 . S
C140 C141 1.288 . S
C141 C140 1.288 . S
C141 C142 1.392 . S
C142 H112 0.951 . S
C142 C141 1.392 . S
C142 C143 1.392 . S
C143 H113 0.949 . S
C143 C138 1.382 . S
C143 C142 1.392 . S
H144 C163 0.949 . S
H145 C164 0.950 . S
H146 C166 0.950 . S
H147 C167 0.950 . S
H148 C169 0.950 . S
H149 C172 0.950 . S
H150 C173 0.950 . S
H151 C175 0.951 . S
H152 C176 0.949 . S
H153 C178 0.949 . S
H154 C179 0.950 . S
H155 C181 0.950 . S
H156 C182 0.950 . S
H157 C184 0.950 . S
H158 C187 0.950 . S
H159 C188 0.950 . S
H160 C190 0.951 . S
H161 C191 0.949 . S
C162 C163 1.376 . S
C162 C167 1.386 . S
C162 C168 1.483 . S
C163 H144 0.949 . S
C163 C162 1.376 . S
C163 C164 1.397 . S
C164 H145 0.950 . S
C164 C163 1.397 . S
C164 C165 1.391 . S
C165 C164 1.391 . S
C165 C166 1.405 . S
C166 H146 0.950 . S
C166 C165 1.405 . S
C166 C167 1.367 . S
C167 H147 0.950 . S
C167 C162 1.386 . S
C167 C166 1.367 . S
C168 C162 1.483 . S
C168 C169 1.382 . S
C168 C170 1.403 . S
C169 H148 0.950 . S
C169 C168 1.382 . S
C169 C185 1.411 1_565 S
C170 C168 1.403 . S
C170 C171 1.489 . S
C170 C184 1.411 1_565 S
C171 C170 1.489 . S
C171 C172 1.383 . S
C171 C176 1.382 . S
C172 H149 0.950 . S
C172 C171 1.383 . S
C172 C173 1.395 . S
C173 H150 0.950 . S
C173 C172 1.395 . S
C173 C174 1.288 . S
C174 C173 1.288 . S
C174 C175 1.392 . S
C175 H151 0.951 . S
C175 C174 1.392 . S
C175 C176 1.392 . S
C176 H152 0.949 . S
C176 C171 1.382 . S
C176 C175 1.392 . S
C177 C178 1.376 . S
C177 C182 1.386 . S
C177 C183 1.483 . S
C178 H153 0.949 . S
C178 C177 1.376 . S
C178 C179 1.397 . S
C179 H154 0.950 . S
C179 C178 1.397 . S
C179 C180 1.391 . S
C180 C179 1.391 . S
C180 C181 1.405 . S
C181 H155 0.950 . S
C181 C180 1.405 . S
C181 C182 1.367 . S
C182 H156 0.950 . S
C182 C177 1.386 . S
C182 C181 1.367 . S
C183 C177 1.483 . S
C183 C184 1.382 . S
C183 C185 1.403 . S
C184 H157 0.950 . S
C184 C170 1.411 1_545 S
C184 C183 1.382 . S
C185 C169 1.411 1_545 S
C185 C183 1.403 . S
C185 C186 1.489 . S
C186 C185 1.489 . S
C186 C187 1.383 . S
C186 C191 1.382 . S
C187 H158 0.950 . S
C187 C186 1.383 . S
C187 C188 1.395 . S
C188 H159 0.950 . S
C188 C187 1.395 . S
C188 C189 1.288 . S
C189 C188 1.288 . S
C189 C190 1.392 . S
C190 H160 0.951 . S
C190 C189 1.392 . S
C190 C191 1.392 . S
C191 H161 0.949 . S
C191 C186 1.382 . S
C191 C190 1.392 . S
H192 C211 0.949 . S
H193 C212 0.950 . S
H194 C214 0.950 . S
H195 C215 0.950 . S
H196 C217 0.950 . S
H197 C220 0.950 . S
H198 C221 0.950 . S
H199 C223 0.951 1_554 S
H200 C224 0.949 . S
H201 C226 0.949 . S
H202 C227 0.950 . S
H203 C229 0.950 . S
H204 C230 0.950 . S
H205 C232 0.950 . S
H206 C235 0.950 . S
H207 C236 0.950 . S
H208 C238 0.951 . S
H209 C239 0.949 . S
C210 C211 1.376 . S
C210 C215 1.386 . S
C210 C216 1.483 . S
C211 H192 0.949 . S
C211 C210 1.376 . S
C211 C212 1.397 . S
C212 H193 0.950 . S
C212 C211 1.397 . S
C212 C213 1.391 . S
C213 C212 1.391 . S
C213 C214 1.405 . S
C214 H194 0.950 . S
C214 C213 1.405 . S
C214 C215 1.367 . S
C215 H195 0.950 . S
C215 C210 1.386 . S
C215 C214 1.367 . S
C216 C210 1.483 . S
C216 C217 1.382 1_455 S
C216 C218 1.403 . S
C217 H196 0.950 . S
C217 C216 1.382 1_655 S
C217 C233 1.411 . S
C218 C216 1.403 . S
C218 C219 1.489 . S
C218 C232 1.411 . S
C219 C218 1.489 . S
C219 C220 1.383 . S
C219 C224 1.382 . S
C220 H197 0.950 . S
C220 C219 1.383 . S
C220 C221 1.395 . S
C221 H198 0.950 . S
C221 C220 1.395 . S
C221 C222 1.317 . S
C222 C221 1.317 . S
C222 C223 1.396 . S
C223 H199 0.951 1_556 S
C223 C222 1.396 . S
C223 C224 1.392 . S
C224 H200 0.949 . S
C224 C219 1.382 . S
C224 C223 1.392 . S
C225 C226 1.376 . S
C225 C230 1.386 . S
C225 C231 1.483 . S
C226 H201 0.949 . S
C226 C225 1.376 . S
C226 C227 1.397 . S
C227 H202 0.950 . S
C227 C226 1.397 . S
C227 C228 1.391 . S
C228 C227 1.391 . S
C228 C229 1.405 . S
C229 H203 0.950 . S
C229 C228 1.405 . S
C229 C230 1.367 . S
C230 H204 0.950 . S
C230 C225 1.386 . S
C230 C229 1.367 . S
C231 C225 1.483 . S
C231 C232 1.382 1_655 S
C231 C233 1.403 . S
C232 H205 0.950 . S
C232 C218 1.411 . S
C232 C231 1.382 1_455 S
C233 C217 1.411 . S
C233 C231 1.403 . S
C233 C234 1.489 . S
C234 C233 1.489 . S
C234 C235 1.383 . S
C234 C239 1.382 . S
C235 H206 0.950 . S
C235 C234 1.383 . S
C235 C236 1.395 . S
C236 H207 0.950 . S
C236 C235 1.395 . S
C236 C237 1.288 . S
C237 C236 1.288 . S
C237 C238 1.392 . S
C238 H208 0.951 . S
C238 C237 1.392 . S
C238 C239 1.392 . S
C239 H209 0.949 . S
C239 C234 1.382 . S
C239 C238 1.392 . S
H240 C259 0.949 . S
H241 C260 0.950 . S
H242 C262 0.950 . S
H243 C263 0.950 . S
H244 C265 0.950 . S
H245 C268 0.950 . S
H246 C269 0.950 . S
H247 C271 0.951 . S
H248 C272 0.949 . S
H249 C274 0.949 . S
H250 C275 0.950 . S
H251 C277 0.950 . S
H252 C278 0.950 . S
H253 C280 0.950 . S
H254 C283 0.950 . S
H255 C284 0.950 . S
H256 C286 0.951 . S
H257 C287 0.949 . S
C258 C259 1.376 . S
C258 C263 1.386 . S
C258 C264 1.483 . S
C259 H240 0.949 . S
C259 C258 1.376 . S
C259 C260 1.397 . S
C260 H241 0.950 . S
C260 C259 1.397 . S
C260 C261 1.391 . S
C261 C260 1.391 . S
C261 C262 1.405 . S
C262 H242 0.950 . S
C262 C261 1.405 . S
C262 C263 1.367 . S
C263 H243 0.950 . S
C263 C258 1.386 . S
C263 C262 1.367 . S
C264 C258 1.483 . S
C264 C265 1.382 . S
C264 C266 1.403 . S
C265 H244 0.950 . S
C265 C264 1.382 . S
C265 C281 1.411 . S
C266 C264 1.403 . S
C266 C267 1.489 . S
C266 C280 1.411 . S
C267 C266 1.489 . S
C267 C268 1.383 . S
C267 C272 1.382 . S
C268 H245 0.950 . S
C268 C267 1.383 . S
C268 C269 1.395 . S
C269 H246 0.950 . S
C269 C268 1.395 . S
C269 C270 1.288 . S
C270 C269 1.288 . S
C270 C271 1.392 . S
C271 H247 0.951 . S
C271 C270 1.392 . S
C271 C272 1.392 . S
C272 H248 0.949 . S
C272 C267 1.382 . S
C272 C271 1.392 . S
C273 C274 1.376 . S
C273 C278 1.386 . S
C273 C279 1.483 . S
C274 H249 0.949 . S
C274 C273 1.376 . S
C274 C275 1.397 . S
C275 H250 0.950 . S
C275 C274 1.397 . S
C275 C276 1.391 . S
C276 C275 1.391 . S
C276 C277 1.405 . S
C277 H251 0.950 . S
C277 C276 1.405 . S
C277 C278 1.367 . S
C278 H252 0.950 . S
C278 C273 1.386 . S
C278 C277 1.367 . S
C279 C273 1.483 . S
C279 C280 1.382 . S
C279 C281 1.403 . S
C280 H253 0.950 . S
C280 C266 1.411 . S
C280 C279 1.382 . S
C281 C265 1.411 . S
C281 C279 1.403 . S
C281 C282 1.489 . S
C282 C281 1.489 . S
C282 C283 1.383 . S
C282 C287 1.382 . S
C283 H254 0.950 . S
C283 C282 1.383 . S
C283 C284 1.395 . S
C284 H255 0.950 . S
C284 C283 1.395 . S
C284 C285 1.288 . S
C285 C284 1.288 . S
C285 C286 1.392 . S
C286 H256 0.951 . S
C286 C285 1.392 . S
C286 C287 1.392 . S
C287 H257 0.949 . S
C287 C282 1.382 . S
C287 C286 1.392 . S
H288 C307 0.949 . S
H289 C308 0.950 . S
H290 C310 0.950 . S
H291 C311 0.950 1_545 S
H292 C313 0.950 . S
H293 C316 0.950 . S
H294 C317 0.950 . S
H295 C319 0.951 . S
H296 C320 0.949 . S
H297 C322 0.949 . S
H298 C323 0.950 . S
H299 C325 0.950 . S
H300 C326 0.950 . S
H301 C328 0.950 . S
H302 C331 0.950 . S
H303 C332 0.950 . S
H304 C334 0.951 . S
H305 C335 0.949 . S
C306 C307 1.376 . S
C306 C311 1.386 . S
C306 C312 1.483 1_565 S
C307 H288 0.949 . S
C307 C306 1.376 . S
C307 C308 1.397 . S
C308 H289 0.950 . S
C308 C307 1.397 . S
C308 C309 1.391 . S
C309 C308 1.391 . S
C309 C310 1.405 . S
C310 H290 0.950 . S
C310 C309 1.405 . S
C310 C311 1.367 . S
C311 H291 0.950 1_565 S
C311 C306 1.386 . S
C311 C310 1.367 . S
C312 C306 1.483 1_545 S
C312 C313 1.382 . S
C312 C314 1.403 . S
C313 H292 0.950 . S
C313 C312 1.382 . S
C313 C329 1.411 . S
C314 C312 1.403 . S
C314 C315 1.489 . S
C314 C328 1.411 . S
C315 C314 1.489 . S
C315 C316 1.383 1_545 S
C315 C320 1.382 . S
C316 H293 0.950 . S
C316 C315 1.383 1_565 S
C316 C317 1.395 . S
C317 H294 0.950 . S
C317 C316 1.395 . S
C317 C318 1.288 . S
C318 C317 1.288 . S
C318 C319 1.392 1_565 S
C319 H295 0.951 . S
C319 C318 1.392 1_545 S
C319 C320 1.392 . S
C320 H296 0.949 . S
C320 C315 1.382 . S
C320 C319 1.392 . S
C321 C322 1.376 . S
C321 C326 1.386 . S
C321 C327 1.483 . S
C322 H297 0.949 . S
C322 C321 1.376 . S
C322 C323 1.397 . S
C323 H298 0.950 . S
C323 C322 1.397 . S
C323 C324 1.391 . S
C324 C323 1.391 . S
C324 C325 1.405 . S
C325 H299 0.950 . S
C325 C324 1.405 . S
C325 C326 1.367 . S
C326 H300 0.950 . S
C326 C321 1.386 . S
C326 C325 1.367 . S
C327 C321 1.483 . S
C327 C328 1.382 . S
C327 C329 1.403 . S
C328 H301 0.950 . S
C328 C314 1.411 . S
C328 C327 1.382 . S
C329 C313 1.411 . S
C329 C327 1.403 . S
C329 C330 1.489 . S
C330 C329 1.489 . S
C330 C331 1.383 . S
C330 C335 1.382 . S
C331 H302 0.950 . S
C331 C330 1.383 . S
C331 C332 1.395 . S
C332 H303 0.950 . S
C332 C331 1.395 . S
C332 C333 1.288 . S
C333 C332 1.288 . S
C333 C334 1.392 . S
C334 H304 0.951 . S
C334 C333 1.392 . S
C334 C335 1.392 . S
C335 H305 0.949 . S
C335 C330 1.382 . S
C335 C334 1.392 . S
H336 C355 0.949 . S
H337 C356 0.950 . S
H338 C358 0.950 1_655 S
H339 C359 0.950 . S
H340 C361 0.950 . S
H341 C364 0.950 . S
H342 C365 0.950 . S
H343 C367 0.951 . S
H344 C368 0.949 . S
H345 C370 0.949 . S
H346 C371 0.950 . S
H347 C373 0.950 . S
H348 C374 0.950 . S
H349 C376 0.950 . S
H350 C379 0.950 . S
H351 C380 0.950 . S
H352 C382 0.951 . S
H353 C383 0.949 . S
C354 C355 1.376 . S
C354 C359 1.386 . S
C354 C360 1.483 . S
C355 H336 0.949 . S
C355 C354 1.376 . S
C355 C356 1.397 . S
C356 H337 0.950 . S
C356 C355 1.397 . S
C356 C357 1.391 . S
C357 C356 1.391 . S
C357 C358 1.405 . S
C358 H338 0.950 1_455 S
C358 C357 1.405 . S
C358 C359 1.367 . S
C359 H339 0.950 . S
C359 C354 1.386 . S
C359 C358 1.367 . S
C360 C354 1.483 . S
C360 C361 1.382 . S
C360 C362 1.403 . S
C361 H340 0.950 . S
C361 C360 1.382 . S
C361 C377 1.411 . S
C362 C360 1.403 . S
C362 C363 1.489 . S
C362 C376 1.411 . S
C363 C362 1.489 . S
C363 C364 1.383 . S
C363 C368 1.382 . S
C364 H341 0.950 . S
C364 C363 1.383 . S
C364 C365 1.395 . S
C365 H342 0.950 . S
C365 C364 1.395 . S
C365 C366 1.288 . S
C366 C365 1.288 . S
C366 C367 1.392 . S
C367 H343 0.951 . S
C367 C366 1.392 . S
C367 C368 1.392 . S
C368 H344 0.949 . S
C368 C363 1.382 . S
C368 C367 1.392 . S
C369 C370 1.376 . S
C369 C374 1.386 . S
C369 C375 1.483 . S
C370 H345 0.949 . S
C370 C369 1.376 . S
C370 C371 1.397 . S
C371 H346 0.950 . S
C371 C370 1.397 . S
C371 C372 1.391 . S
C372 C371 1.391 . S
C372 C373 1.405 . S
C373 H347 0.950 . S
C373 C372 1.405 . S
C373 C374 1.367 . S
C374 H348 0.950 . S
C374 C369 1.386 . S
C374 C373 1.367 . S
C375 C369 1.483 . S
C375 C376 1.382 . S
C375 C377 1.403 . S
C376 H349 0.950 . S
C376 C362 1.411 . S
C376 C375 1.382 . S
C377 C361 1.411 . S
C377 C375 1.403 . S
C377 C378 1.489 . S
C378 C377 1.489 . S
C378 C379 1.383 . S
C378 C383 1.382 . S
C379 H350 0.950 . S
C379 C378 1.383 . S
C379 C380 1.395 . S
C380 H351 0.950 . S
C380 C379 1.395 . S
C380 C381 1.288 . S
C381 C380 1.288 . S
C381 C382 1.392 . S
C382 H352 0.951 . S
C382 C381 1.392 . S
C382 C383 1.392 . S
C383 H353 0.949 . S
C383 C378 1.382 . S
C383 C382 1.392 . S
O384 Cd385 2.223 . S
O384 C392 1.315 . S
Cd385 O384 2.223 . S
Cd385 O388 2.297 . S
Cd385 O389 2.439 . S
Cd385 O395 2.240 . S
Cd386 O387 2.240 . S
Cd386 O394 2.223 . S
Cd386 O396 2.297 . S
Cd386 O397 2.439 . S
O387 Cd386 2.240 . S
O387 C392 1.279 . S
O388 Cd385 2.297 . S
O388 C390 1.247 . S
O389 Cd385 2.439 . S
O389 C390 1.208 . S
C390 O388 1.247 . S
C390 O389 1.208 . S
C391 O396 1.247 . S
C391 O397 1.208 . S
C392 O384 1.315 . S
C392 O387 1.279 . S
C393 O394 1.315 . S
C393 O395 1.279 . S
O394 Cd386 2.223 . S
O394 C393 1.315 . S
O395 Cd385 2.240 . S
O395 C393 1.279 . S
O396 Cd386 2.297 . S
O396 C391 1.247 . S
O397 Cd386 2.439 . S
O397 C391 1.208 . S
O398 Cd399 2.223 . S
O398 C406 1.315 . S
Cd399 O398 2.223 . S
Cd399 O402 2.297 . S
Cd399 O403 2.439 . S
Cd399 O409 2.240 . S
Cd400 O401 2.240 . S
Cd400 O408 2.223 . S
Cd400 O410 2.297 . S
Cd400 O411 2.439 . S
O401 Cd400 2.240 . S
O401 C406 1.279 . S
O402 Cd399 2.297 . S
O402 C404 1.247 . S
O403 Cd399 2.439 . S
O403 C404 1.208 . S
C404 O402 1.247 . S
C404 O403 1.208 . S
C405 O410 1.247 . S
C405 O411 1.208 . S
C406 O398 1.315 . S
C406 O401 1.279 . S
C407 O408 1.315 . S
C407 O409 1.279 . S
O408 Cd400 2.223 . S
O408 C407 1.315 . S
O409 Cd399 2.240 . S
O409 C407 1.279 . S
O410 Cd400 2.297 . S
O410 C405 1.247 . S
O411 Cd400 2.439 . S
O411 C405 1.208 . S
O412 Cd413 2.223 . S
O412 C420 1.315 . S
Cd413 O412 2.223 . S
Cd413 O416 2.297 . S
Cd413 O417 2.439 . S
Cd413 O423 2.240 . S
Cd414 O415 2.240 . S
Cd414 O422 2.223 . S
Cd414 O424 2.297 . S
Cd414 O425 2.439 . S
O415 Cd414 2.240 . S
O415 C420 1.279 . S
O416 Cd413 2.297 . S
O416 C418 1.247 . S
O417 Cd413 2.439 . S
O417 C418 1.208 . S
C418 O416 1.247 . S
C418 O417 1.208 . S
C419 O424 1.247 . S
C419 O425 1.208 . S
C420 O412 1.315 . S
C420 O415 1.279 . S
C421 O422 1.315 . S
C421 O423 1.279 . S
O422 Cd414 2.223 . S
O422 C421 1.315 . S
O423 Cd413 2.240 . S
O423 C421 1.279 . S
O424 Cd414 2.297 . S
O424 C419 1.247 . S
O425 Cd414 2.439 . S
O425 C419 1.208 . S
O426 Cd427 2.223 . S
O426 C434 1.315 . S
Cd427 O426 2.223 . S
Cd427 O430 2.297 . S
Cd427 O431 2.439 . S
Cd427 O437 2.240 . S
Cd428 O429 2.240 . S
Cd428 O436 2.223 . S
Cd428 O438 2.297 . S
Cd428 O439 2.439 . S
O429 Cd428 2.240 . S
O429 C434 1.279 . S
O430 Cd427 2.297 . S
O430 C432 1.247 . S
O431 Cd427 2.439 . S
O431 C432 1.208 . S
C432 O430 1.247 . S
C432 O431 1.208 . S
C433 O438 1.247 . S
C433 O439 1.208 . S
C434 O426 1.315 . S
C434 O429 1.279 . S
C435 O436 1.315 . S
C435 O437 1.279 . S
O436 Cd428 2.223 . S
O436 C435 1.315 . S
O437 Cd427 2.240 . S
O437 C435 1.279 . S
O438 Cd428 2.297 . S
O438 C433 1.247 . S
O439 Cd428 2.439 . S
O439 C433 1.208 . S
O440 Cd441 2.223 . S
O440 C448 1.315 . S
Cd441 O440 2.223 . S
Cd441 O444 2.297 . S
Cd441 O445 2.439 . S
Cd441 O451 2.240 . S
Cd442 O443 2.240 . S
Cd442 O450 2.223 . S
Cd442 O452 2.297 . S
Cd442 O453 2.439 . S
O443 Cd442 2.240 . S
O443 C448 1.279 . S
O444 Cd441 2.297 . S
O444 C446 1.247 . S
O445 Cd441 2.439 . S
O445 C446 1.208 . S
C446 O444 1.247 . S
C446 O445 1.208 . S
C447 O452 1.247 . S
C447 O453 1.208 . S
C448 O440 1.315 . S
C448 O443 1.279 . S
C449 O450 1.315 . S
C449 O451 1.279 . S
O450 Cd442 2.223 . S
O450 C449 1.315 . S
O451 Cd441 2.240 . S
O451 C449 1.279 . S
O452 Cd442 2.297 . S
O452 C447 1.247 . S
O453 Cd442 2.439 . S
O453 C447 1.208 . S
O454 Cd455 2.223 . S
O454 C462 1.315 . S
Cd455 O454 2.223 . S
Cd455 O458 2.297 . S
Cd455 O459 2.439 . S
Cd455 O465 2.240 . S
Cd456 O457 2.240 . S
Cd456 O464 2.223 . S
Cd456 O466 2.297 . S
Cd456 O467 2.439 . S
O457 Cd456 2.240 . S
O457 C462 1.279 . S
O458 Cd455 2.297 . S
O458 C460 1.247 . S
O459 Cd455 2.439 . S
O459 C460 1.208 . S
C460 O458 1.247 . S
C460 O459 1.208 . S
C461 O466 1.247 . S
C461 O467 1.208 . S
C462 O454 1.315 . S
C462 O457 1.279 . S
C463 O464 1.315 . S
C463 O465 1.279 . S
O464 Cd456 2.223 . S
O464 C463 1.315 . S
O465 Cd455 2.240 . S
O465 C463 1.279 . S
O466 Cd456 2.297 . S
O466 C461 1.247 . S
O467 Cd456 2.439 . S
O467 C461 1.208 . S
O468 Cd469 2.223 . S
O468 C476 1.315 . S
Cd469 O468 2.223 . S
Cd469 O472 2.297 . S
Cd469 O473 2.439 . S
Cd469 O479 2.240 1_554 S
Cd470 O471 2.240 1_556 S
Cd470 O478 2.224 . S
Cd470 O480 2.297 . S
Cd470 O481 2.439 . S
O471 Cd470 2.240 1_554 S
O471 C476 1.279 . S
O472 Cd469 2.297 . S
O472 C474 1.247 . S
O473 Cd469 2.439 . S
O473 C474 1.208 . S
C474 O472 1.247 . S
C474 O473 1.208 . S
C475 O480 1.247 . S
C475 O481 1.208 . S
C476 O468 1.315 . S
C476 O471 1.279 . S
C477 O478 1.323 . S
C477 O479 1.279 . S
O478 Cd470 2.224 . S
O478 C477 1.323 . S
O479 Cd469 2.240 1_556 S
O479 C477 1.279 . S
O480 Cd470 2.297 . S
O480 C475 1.247 . S
O481 Cd470 2.439 . S
O481 C475 1.208 . S
O482 Cd483 2.223 . S
O482 C490 1.315 . S
Cd483 O482 2.223 . S
Cd483 O486 2.297 . S
Cd483 O487 2.439 . S
Cd483 O493 2.240 . S
Cd484 O485 2.240 . S
Cd484 O492 2.223 . S
Cd484 O494 2.297 . S
Cd484 O495 2.439 . S
O485 Cd484 2.240 . S
O485 C490 1.279 . S
O486 Cd483 2.297 . S
O486 C488 1.247 . S
O487 Cd483 2.439 . S
O487 C488 1.208 . S
C488 O486 1.247 . S
C488 O487 1.208 . S
C489 O494 1.247 . S
C489 O495 1.208 . S
C490 O482 1.315 . S
C490 O485 1.279 . S
C491 O492 1.315 . S
C491 O493 1.279 . S
O492 Cd484 2.223 . S
O492 C491 1.315 . S
O493 Cd483 2.240 . S
O493 C491 1.279 . S
O494 Cd484 2.297 . S
O494 C489 1.247 . S
O495 Cd484 2.439 . S
O495 C489 1.208 . S
C496 C497 1.391 . S
C496 C498 1.394 . S
C496 H512 0.931 . S
C497 C496 1.391 . S
C497 C501 1.376 . S
C498 C496 1.394 . S
C498 C499 1.369 . S
C498 C502 1.531 . S
C499 C498 1.369 . S
C499 C500 1.410 . S
C499 C507 1.503 . S
C500 C499 1.410 . S
C500 C501 1.392 . S
C500 C503 1.511 . S
C501 C497 1.376 . S
C501 C500 1.392 . S
C501 H513 0.929 . S
C502 C498 1.531 . S
C502 H514 0.960 . S
C502 H515 0.962 . S
C502 H516 0.960 . S
C503 C500 1.511 . S
C503 H517 0.961 . S
C503 H518 0.961 . S
C503 H519 0.961 . S
C504 C505 1.370 . S
C504 C506 1.363 . S
C504 H520 0.931 . S
C505 C504 1.370 . S
C505 C509 1.408 . S
C506 C504 1.363 . S
C506 C507 1.370 . S
C506 C510 1.524 . S
C507 C499 1.503 . S
C507 C506 1.370 . S
C507 C508 1.403 . S
C508 C507 1.403 . S
C508 C509 1.404 . S
C508 C511 1.539 . S
C509 C505 1.408 . S
C509 C508 1.404 . S
C509 H521 0.930 . S
C510 C506 1.524 . S
C510 H522 0.956 . S
C510 H523 0.961 . S
C510 H524 0.961 . S
C511 C508 1.539 . S
C511 H525 0.958 . S
C511 H526 0.961 . S
C511 H527 0.960 . S
H512 C496 0.931 . S
H513 C501 0.929 . S
H514 C502 0.960 . S
H515 C502 0.962 . S
H516 C502 0.960 . S
H517 C503 0.961 . S
H518 C503 0.961 . S
H519 C503 0.961 . S
H520 C504 0.931 . S
H521 C509 0.930 . S
H522 C510 0.956 . S
H523 C510 0.961 . S
H524 C510 0.961 . S
H525 C511 0.958 . S
H526 C511 0.961 . S
H527 C511 0.960 . S
C528 C529 1.391 . S
C528 C530 1.394 . S
C528 H544 0.931 . S
C529 C528 1.391 . S
C529 C533 1.376 . S
C530 C528 1.394 . S
C530 C531 1.369 . S
C530 C534 1.531 . S
C531 C530 1.369 . S
C531 C532 1.410 . S
C531 C539 1.503 . S
C532 C531 1.410 . S
C532 C533 1.392 . S
C532 C535 1.511 . S
C533 C529 1.376 . S
C533 C532 1.392 . S
C533 H545 0.929 . S
C534 C530 1.531 . S
C534 H546 0.960 . S
C534 H547 0.962 . S
C534 H548 0.960 . S
C535 C532 1.511 . S
C535 H549 0.961 . S
C535 H550 0.961 . S
C535 H551 0.961 . S
C536 C537 1.370 . S
C536 C538 1.363 . S
C536 H552 0.931 . S
C537 C536 1.370 . S
C537 C541 1.408 . S
C538 C536 1.363 . S
C538 C539 1.370 . S
C538 C542 1.524 . S
C539 C531 1.503 . S
C539 C538 1.370 . S
C539 C540 1.403 . S
C540 C539 1.403 . S
C540 C541 1.404 . S
C540 C543 1.539 . S
C541 C537 1.408 . S
C541 C540 1.404 . S
C541 H553 0.930 . S
C542 C538 1.524 . S
C542 H554 0.956 . S
C542 H555 0.961 . S
C542 H556 0.961 . S
C543 C540 1.539 . S
C543 H557 0.958 . S
C543 H558 0.961 . S
C543 H559 0.960 . S
H544 C528 0.931 . S
H545 C533 0.929 . S
H546 C534 0.960 . S
H547 C534 0.962 . S
H548 C534 0.960 . S
H549 C535 0.961 . S
H550 C535 0.961 . S
H551 C535 0.961 . S
H552 C536 0.931 . S
H553 C541 0.930 . S
H554 C542 0.956 . S
H555 C542 0.961 . S
H556 C542 0.961 . S
H557 C543 0.958 . S
H558 C543 0.961 . S
H559 C543 0.960 . S
C560 C561 1.391 . S
C560 C562 1.394 . S
C560 H576 0.931 . S
C561 C560 1.391 . S
C561 C565 1.376 . S
C562 C560 1.394 . S
C562 C563 1.369 . S
C562 C566 1.531 . S
C563 C562 1.369 . S
C563 C564 1.410 . S
C563 C571 1.503 . S
C564 C563 1.410 . S
C564 C565 1.392 . S
C564 C567 1.511 . S
C565 C561 1.376 . S
C565 C564 1.392 . S
C565 H577 0.929 . S
C566 C562 1.531 . S
C566 H578 0.960 . S
C566 H579 0.962 . S
C566 H580 0.960 . S
C567 C564 1.511 . S
C567 H581 0.961 . S
C567 H582 0.961 . S
C567 H583 0.961 . S
C568 C569 1.370 . S
C568 C570 1.363 . S
C568 H584 0.931 . S
C569 C568 1.370 . S
C569 C573 1.408 . S
C570 C568 1.363 . S
C570 C571 1.370 . S
C570 C574 1.524 . S
C571 C563 1.503 . S
C571 C570 1.370 . S
C571 C572 1.403 . S
C572 C571 1.403 . S
C572 C573 1.404 . S
C572 C575 1.539 . S
C573 C569 1.408 . S
C573 C572 1.404 . S
C573 H585 0.930 . S
C574 C570 1.524 . S
C574 H586 0.956 . S
C574 H587 0.961 . S
C574 H588 0.961 . S
C575 C572 1.539 . S
C575 H589 0.958 . S
C575 H590 0.961 . S
C575 H591 0.960 . S
H576 C560 0.931 . S
H577 C565 0.929 . S
H578 C566 0.960 . S
H579 C566 0.962 . S
H580 C566 0.960 . S
H581 C567 0.961 . S
H582 C567 0.961 . S
H583 C567 0.961 . S
H584 C568 0.931 . S
H585 C573 0.930 . S
H586 C574 0.956 . S
H587 C574 0.961 . S
H588 C574 0.961 . S
H589 C575 0.958 . S
H590 C575 0.961 . S
H591 C575 0.960 . S
C592 C593 1.391 . S
C592 C594 1.394 . S
C592 H608 0.931 . S
C593 C592 1.391 . S
C593 C597 1.376 . S
C594 C592 1.394 . S
C594 C595 1.369 . S
C594 C598 1.531 . S
C595 C594 1.369 . S
C595 C596 1.410 . S
C595 C603 1.503 . S
C596 C595 1.410 . S
C596 C597 1.392 . S
C596 C599 1.511 . S
C597 C593 1.376 . S
C597 C596 1.392 . S
C597 H609 0.929 . S
C598 C594 1.531 . S
C598 H610 0.960 . S
C598 H611 0.962 . S
C598 H612 0.960 . S
C599 C596 1.511 . S
C599 H613 0.961 . S
C599 H614 0.961 . S
C599 H615 0.961 . S
C600 C601 1.370 . S
C600 C602 1.363 . S
C600 H616 0.931 . S
C601 C600 1.370 . S
C601 C605 1.408 . S
C602 C600 1.363 . S
C602 C603 1.370 . S
C602 C606 1.524 . S
C603 C595 1.503 . S
C603 C602 1.370 . S
C603 C604 1.403 . S
C604 C603 1.403 . S
C604 C605 1.404 . S
C604 C607 1.539 . S
C605 C601 1.408 . S
C605 C604 1.404 . S
C605 H617 0.930 . S
C606 C602 1.524 . S
C606 H618 0.956 . S
C606 H619 0.961 . S
C606 H620 0.961 . S
C607 C604 1.539 . S
C607 H621 0.958 . S
C607 H622 0.961 . S
C607 H623 0.960 . S
H608 C592 0.931 . S
H609 C597 0.929 . S
H610 C598 0.960 . S
H611 C598 0.962 . S
H612 C598 0.960 . S
H613 C599 0.961 . S
H614 C599 0.961 . S
H615 C599 0.961 . S
H616 C600 0.931 . S
H617 C605 0.930 . S
H618 C606 0.956 . S
H619 C606 0.961 . S
H620 C606 0.961 . S
H621 C607 0.958 . S
H622 C607 0.961 . S
H623 C607 0.960 . S
C624 C625 1.391 1_556 S
C624 C626 1.394 . S
C624 H640 0.931 . S
C625 C624 1.391 1_554 S
C625 C629 1.376 . S
C626 C624 1.394 . S
C626 C627 1.369 1_556 S
C626 C630 1.531 . S
C627 C626 1.369 1_554 S
C627 C628 1.410 . S
C627 C635 1.503 . S
C628 C627 1.410 . S
C628 C629 1.392 . S
C628 C631 1.511 . S
C629 C625 1.376 . S
C629 C628 1.392 . S
C629 H641 0.929 . S
C630 C626 1.531 . S
C630 H642 0.960 . S
C630 H643 0.962 . S
C630 H644 0.960 . S
C631 C628 1.511 . S
C631 H645 0.961 . S
C631 H646 0.961 . S
C631 H647 0.961 . S
C632 C633 1.370 . S
C632 C634 1.363 . S
C632 H648 0.931 . S
C633 C632 1.370 . S
C633 C637 1.408 . S
C634 C632 1.363 . S
C634 C635 1.370 . S
C634 C638 1.524 . S
C635 C627 1.503 . S
C635 C634 1.370 . S
C635 C636 1.403 . S
C636 C635 1.403 . S
C636 C637 1.404 . S
C636 C639 1.539 . S
C637 C633 1.408 . S
C637 C636 1.404 . S
C637 H649 0.930 . S
C638 C634 1.524 . S
C638 H650 0.956 . S
C638 H651 0.961 . S
C638 H652 0.961 . S
C639 C636 1.539 . S
C639 H653 0.958 1_554 S
C639 H654 0.961 . S
C639 H655 0.960 . S
H640 C624 0.931 . S
H641 C629 0.929 . S
H642 C630 0.960 . S
H643 C630 0.962 . S
H644 C630 0.960 . S
H645 C631 0.961 . S
H646 C631 0.961 . S
H647 C631 0.961 . S
H648 C632 0.931 . S
H649 C637 0.930 . S
H650 C638 0.956 . S
H651 C638 0.961 . S
H652 C638 0.961 . S
H653 C639 0.958 1_556 S
H654 C639 0.961 . S
H655 C639 0.960 . S
C656 C657 1.391 . S
C656 C658 1.394 . S
C656 H672 0.931 . S
C657 C656 1.391 . S
C657 C661 1.376 . S
C658 C656 1.394 . S
C658 C659 1.369 . S
C658 C662 1.531 . S
C659 C658 1.369 . S
C659 C660 1.410 . S
C659 C667 1.503 . S
C660 C659 1.410 . S
C660 C661 1.392 . S
C660 C663 1.511 . S
C661 C657 1.376 . S
C661 C660 1.392 . S
C661 H673 0.929 . S
C662 C658 1.531 . S
C662 H674 0.960 . S
C662 H675 0.962 . S
C662 H676 0.960 . S
C663 C660 1.511 . S
C663 H677 0.961 . S
C663 H678 0.961 . S
C663 H679 0.961 . S
C664 C665 1.370 . S
C664 C666 1.363 . S
C664 H680 0.931 . S
C665 C664 1.370 . S
C665 C669 1.408 . S
C666 C664 1.363 . S
C666 C667 1.370 . S
C666 C670 1.524 . S
C667 C659 1.503 . S
C667 C666 1.370 . S
C667 C668 1.403 . S
C668 C667 1.403 . S
C668 C669 1.404 . S
C668 C671 1.539 . S
C669 C665 1.408 . S
C669 C668 1.404 . S
C669 H681 0.930 . S
C670 C666 1.524 . S
C670 H682 0.956 . S
C670 H683 0.961 . S
C670 H684 0.961 . S
C671 C668 1.539 . S
C671 H685 0.958 . S
C671 H686 0.961 . S
C671 H687 0.960 . S
H672 C656 0.931 . S
H673 C661 0.929 . S
H674 C662 0.960 . S
H675 C662 0.962 . S
H676 C662 0.960 . S
H677 C663 0.961 . S
H678 C663 0.961 . S
H679 C663 0.961 . S
H680 C664 0.931 . S
H681 C669 0.930 . S
H682 C670 0.956 . S
H683 C670 0.961 . S
H684 C670 0.961 . S
H685 C671 0.958 . S
H686 C671 0.961 . S
H687 C671 0.960 . S
C688 C689 1.391 . S
C688 C690 1.394 . S
C688 H704 0.926 1_565 S
C689 C688 1.391 . S
C689 C693 1.376 . S
C690 C688 1.394 . S
C690 C691 1.369 . S
C690 C694 1.531 . S
C691 C690 1.369 . S
C691 C692 1.410 . S
C691 C699 1.503 . S
C692 C691 1.410 . S
C692 C693 1.392 . S
C692 C695 1.511 . S
C693 C689 1.376 . S
C693 C692 1.392 . S
C693 H705 0.929 . S
C694 C690 1.531 . S
C694 H706 0.960 . S
C694 H707 0.962 . S
C694 H708 0.960 1_565 S
C695 C692 1.511 . S
C695 H709 0.961 . S
C695 H710 0.961 . S
C695 H711 0.961 . S
C696 C697 1.370 . S
C696 C698 1.363 . S
C696 H712 0.931 . S
C697 C696 1.370 . S
C697 C701 1.408 . S
C698 C696 1.363 . S
C698 C699 1.370 . S
C698 C702 1.524 . S
C699 C691 1.503 . S
C699 C698 1.370 . S
C699 C700 1.403 . S
C700 C699 1.403 . S
C700 C701 1.404 . S
C700 C703 1.539 . S
C701 C697 1.408 . S
C701 C700 1.404 . S
C701 H713 0.930 . S
C702 C698 1.524 . S
C702 H714 0.956 . S
C702 H715 0.961 . S
C702 H716 0.961 . S
C703 C700 1.539 . S
C703 H717 0.958 . S
C703 H718 0.961 . S
C703 H719 0.960 . S
H704 C688 0.926 1_545 S
H705 C693 0.929 . S
H706 C694 0.960 . S
H707 C694 0.962 . S
H708 C694 0.960 1_545 S
H709 C695 0.961 . S
H710 C695 0.961 . S
H711 C695 0.961 . S
H712 C696 0.931 . S
H713 C701 0.930 . S
H714 C702 0.956 . S
H715 C702 0.961 . S
H716 C702 0.961 . S
H717 C703 0.958 . S
H718 C703 0.961 . S
H719 C703 0.960 . S
C720 C721 1.391 . S
C720 C722 1.394 . S
C720 H736 0.931 . S
C721 C720 1.391 . S
C721 C725 1.376 . S
C722 C720 1.394 . S
C722 C723 1.363 1_545 S
C722 C726 1.531 1_545 S
C723 C722 1.363 1_565 S
C723 C724 1.381 1_565 S
C723 C731 1.538 . S
C724 C723 1.381 1_545 S
C724 C725 1.392 . S
C724 C727 1.511 . S
C725 C721 1.376 . S
C725 C724 1.392 . S
C725 H737 0.929 . S
C726 C722 1.531 1_565 S
C726 H738 0.960 . S
C726 H739 0.962 . S
C726 H740 0.960 . S
C727 C724 1.511 . S
C727 H741 0.961 . S
C727 H742 0.961 . S
C727 H743 0.961 . S
C728 C729 1.370 . S
C728 C730 1.363 . S
C728 H744 0.931 . S
C729 C728 1.370 . S
C729 C733 1.408 . S
C730 C728 1.363 . S
C730 C731 1.370 . S
C730 C734 1.524 . S
C731 C723 1.538 . S
C731 C730 1.370 . S
C731 C732 1.403 . S
C732 C731 1.403 . S
C732 C733 1.404 . S
C732 C735 1.539 . S
C733 C729 1.408 . S
C733 C732 1.404 . S
C733 H745 0.930 . S
C734 C730 1.524 . S
C734 H746 0.956 . S
C734 H747 0.961 . S
C734 H748 0.961 . S
C735 C732 1.539 . S
C735 H749 0.958 . S
C735 H750 0.961 . S
C735 H751 0.960 . S
H736 C720 0.931 . S
H737 C725 0.929 . S
H738 C726 0.960 . S
H739 C726 0.962 . S
H740 C726 0.960 . S
H741 C727 0.961 . S
H742 C727 0.961 . S
H743 C727 0.961 . S
H744 C728 0.931 . S
H745 C733 0.930 . S
H746 C734 0.956 . S
H747 C734 0.961 . S
H748 C734 0.961 . S
H749 C735 0.958 . S
H750 C735 0.961 . S
H751 C735 0.960 . S
C752 C753 1.391 . S
C752 C754 1.394 . S
C752 H768 0.931 . S
C753 C752 1.391 . S
C753 C757 1.376 . S
C754 C752 1.394 . S
C754 C755 1.369 . S
C754 C758 1.531 . S
C755 C754 1.369 . S
C755 C756 1.410 . S
C755 C763 1.503 . S
C756 C755 1.410 . S
C756 C757 1.392 . S
C756 C759 1.511 . S
C757 C753 1.376 . S
C757 C756 1.392 . S
C757 H769 0.929 . S
C758 C754 1.531 . S
C758 H770 0.960 . S
C758 H771 0.962 . S
C758 H772 0.960 . S
C759 C756 1.511 . S
C759 H773 0.961 . S
C759 H774 0.961 . S
C759 H775 0.961 . S
C760 C761 1.370 . S
C760 C762 1.363 . S
C760 H776 0.931 . S
C761 C760 1.370 . S
C761 C765 1.408 . S
C762 C760 1.363 . S
C762 C763 1.370 . S
C762 C766 1.524 . S
C763 C755 1.503 . S
C763 C762 1.370 . S
C763 C764 1.403 . S
C764 C763 1.403 . S
C764 C765 1.404 . S
C764 C767 1.539 . S
C765 C761 1.408 . S
C765 C764 1.404 . S
C765 H777 0.930 . S
C766 C762 1.524 . S
C766 H778 0.956 . S
C766 H779 0.961 . S
C766 H780 0.961 . S
C767 C764 1.539 . S
C767 H781 0.958 . S
C767 H782 0.961 . S
C767 H783 0.960 . S
H768 C752 0.931 . S
H769 C757 0.929 . S
H770 C758 0.960 . S
H771 C758 0.962 . S
H772 C758 0.960 . S
H773 C759 0.961 . S
H774 C759 0.961 . S
H775 C759 0.961 . S
H776 C760 0.931 . S
H777 C765 0.930 . S
H778 C766 0.956 . S
H779 C766 0.961 . S
H780 C766 0.961 . S
H781 C767 0.958 . S
H782 C767 0.961 . S
H783 C767 0.960 . S
C784 C785 1.391 . S
C784 C786 1.394 . S
C784 H800 0.931 . S
C785 C784 1.391 . S
C785 C789 1.376 . S
C786 C784 1.394 . S
C786 C787 1.369 . S
C786 C790 1.531 . S
C787 C786 1.369 . S
C787 C788 1.410 . S
C787 C795 1.503 . S
C788 C787 1.410 . S
C788 C789 1.392 . S
C788 C791 1.511 . S
C789 C785 1.376 . S
C789 C788 1.392 . S
C789 H801 0.929 . S
C790 C786 1.531 . S
C790 H802 0.960 1_554 S
C790 H803 0.962 . S
C790 H804 0.960 1_554 S
C791 C788 1.511 . S
C791 H805 0.961 . S
C791 H806 0.961 . S
C791 H807 0.961 . S
C792 C793 1.370 . S
C792 C794 1.363 . S
C792 H808 0.931 . S
C793 C792 1.370 . S
C793 C797 1.408 . S
C794 C792 1.363 . S
C794 C795 1.370 . S
C794 C798 1.524 . S
C795 C787 1.503 . S
C795 C794 1.370 . S
C795 C796 1.403 . S
C796 C795 1.403 . S
C796 C797 1.404 . S
C796 C799 1.539 . S
C797 C793 1.408 . S
C797 C796 1.404 . S
C797 H809 0.967 . S
C798 C794 1.524 . S
C798 H810 0.956 . S
C798 H811 0.961 . S
C798 H812 0.961 . S
C799 C796 1.539 . S
C799 H813 0.958 1_554 S
C799 H814 0.961 . S
C799 H815 0.960 . S
H800 C784 0.931 . S
H801 C789 0.929 . S
H802 C790 0.960 1_556 S
H803 C790 0.962 . S
H804 C790 0.960 1_556 S
H805 C791 0.961 . S
H806 C791 0.961 . S
H807 C791 0.961 . S
H808 C792 0.931 . S
H809 C797 0.967 . S
H810 C798 0.956 . S
H811 C798 0.961 . S
H812 C798 0.961 . S
H813 C799 0.958 1_556 S
H814 C799 0.961 . S
H815 C799 0.960 . S
C816 C817 1.391 1_655 S
C816 C818 1.394 . S
C816 H832 0.931 . S
C817 C816 1.391 1_455 S
C817 C821 1.376 . S
C818 C816 1.394 . S
C818 C819 1.369 . S
C818 C822 1.531 . S
C819 C818 1.369 . S
C819 C820 1.410 . S
C819 C827 1.503 . S
C820 C819 1.410 . S
C820 C821 1.392 1_655 S
C820 C823 1.511 . S
C821 C817 1.376 . S
C821 C820 1.392 1_455 S
C821 H833 0.929 . S
C822 C818 1.531 . S
C822 H834 0.960 . S
C822 H835 0.962 . S
C822 H836 0.960 . S
C823 C820 1.511 . S
C823 H837 0.961 . S
C823 H838 0.961 . S
C823 H839 0.961 . S
C824 C825 1.370 . S
C824 C826 1.363 . S
C824 H840 0.931 . S
C825 C824 1.370 . S
C825 C829 1.408 . S
C826 C824 1.363 . S
C826 C827 1.370 . S
C826 C830 1.524 . S
C827 C819 1.503 . S
C827 C826 1.370 . S
C827 C828 1.403 . S
C828 C827 1.403 . S
C828 C829 1.404 . S
C828 C831 1.539 . S
C829 C825 1.408 . S
C829 C828 1.404 . S
C829 H841 0.930 . S
C830 C826 1.524 . S
C830 H842 0.956 . S
C830 H843 0.961 . S
C830 H844 0.961 . S
C831 C828 1.539 . S
C831 H845 0.958 . S
C831 H846 0.961 . S
C831 H847 0.960 . S
H832 C816 0.931 . S
H833 C821 0.929 . S
H834 C822 0.960 . S
H835 C822 0.962 . S
H836 C822 0.960 . S
H837 C823 0.961 . S
H838 C823 0.961 . S
H839 C823 0.961 . S
H840 C824 0.931 . S
H841 C829 0.930 . S
H842 C830 0.956 . S
H843 C830 0.961 . S
H844 C830 0.961 . S
H845 C831 0.958 . S
H846 C831 0.961 . S
H847 C831 0.960 . S
C848 C849 1.363 1_455 S
C848 C850 1.382 1_455 S
C848 H864 0.970 . S
C849 C848 1.363 1_655 S
C849 C853 1.376 . S
C850 C848 1.382 1_655 S
C850 C851 1.369 . S
C850 C854 1.531 1_655 S
C851 C850 1.369 . S
C851 C852 1.410 . S
C851 C859 1.503 . S
C852 C851 1.410 . S
C852 C853 1.392 . S
C852 C855 1.511 . S
C853 C849 1.376 . S
C853 C852 1.392 . S
C853 H865 0.929 . S
C854 C850 1.531 1_455 S
C854 H866 0.960 . S
C854 H867 0.962 . S
C854 H868 0.960 . S
C855 C852 1.511 . S
C855 H869 0.961 . S
C855 H870 0.961 . S
C855 H871 0.961 . S
C856 C857 1.370 . S
C856 C858 1.363 . S
C856 H872 0.931 . S
C857 C856 1.370 . S
C857 C861 1.408 . S
C858 C856 1.363 . S
C858 C859 1.370 . S
C858 C862 1.524 . S
C859 C851 1.503 . S
C859 C858 1.370 . S
C859 C860 1.403 . S
C860 C859 1.403 . S
C860 C861 1.404 . S
C860 C863 1.539 . S
C861 C857 1.408 . S
C861 C860 1.404 . S
C861 H873 0.930 . S
C862 C858 1.524 . S
C862 H874 0.956 . S
C862 H875 0.961 . S
C862 H876 0.961 . S
C863 C860 1.539 . S
C863 H877 0.958 . S
C863 H878 0.961 . S
C863 H879 0.960 . S
H864 C848 0.970 . S
H865 C853 0.929 . S
H866 C854 0.960 . S
H867 C854 0.962 . S
H868 C854 0.960 . S
H869 C855 0.961 . S
H870 C855 0.961 . S
H871 C855 0.961 . S
H872 C856 0.931 . S
H873 C861 0.930 . S
H874 C862 0.956 . S
H875 C862 0.961 . S
H876 C862 0.961 . S
H877 C863 0.958 . S
H878 C863 0.961 . S
H879 C863 0.960 . S
C880 C881 1.391 . S
C880 C882 1.394 . S
C880 H896 0.931 . S
C881 C880 1.391 . S
C881 C885 1.376 . S
C882 C880 1.394 . S
C882 C883 1.369 . S
C882 C886 1.531 . S
C883 C882 1.369 . S
C883 C884 1.410 . S
C883 C891 1.503 . S
C884 C883 1.410 . S
C884 C885 1.392 . S
C884 C887 1.511 . S
C885 C881 1.376 . S
C885 C884 1.392 . S
C885 H897 0.929 . S
C886 C882 1.531 . S
C886 H898 0.960 . S
C886 H899 0.962 . S
C886 H900 0.960 . S
C887 C884 1.511 . S
C887 H901 0.961 . S
C887 H902 0.961 . S
C887 H903 0.961 . S
C888 C889 1.370 . S
C888 C890 1.363 . S
C888 H904 0.931 . S
C889 C888 1.370 . S
C889 C893 1.408 . S
C890 C888 1.363 . S
C890 C891 1.370 . S
C890 C894 1.524 . S
C891 C883 1.503 . S
C891 C890 1.370 . S
C891 C892 1.403 . S
C892 C891 1.403 . S
C892 C893 1.404 . S
C892 C895 1.539 . S
C893 C889 1.408 . S
C893 C892 1.404 . S
C893 H905 0.930 . S
C894 C890 1.524 . S
C894 H906 0.956 . S
C894 H907 0.961 . S
C894 H908 0.961 . S
C895 C892 1.539 . S
C895 H909 0.958 . S
C895 H910 0.961 . S
C895 H911 0.960 . S
H896 C880 0.931 . S
H897 C885 0.929 . S
H898 C886 0.960 . S
H899 C886 0.962 . S
H900 C886 0.960 . S
H901 C887 0.961 . S
H902 C887 0.961 . S
H903 C887 0.961 . S
H904 C888 0.931 . S
H905 C893 0.930 . S
H906 C894 0.956 . S
H907 C894 0.961 . S
H908 C894 0.961 . S
H909 C895 0.958 . S
H910 C895 0.961 . S
H911 C895 0.960 . S
C912 C913 1.391 . S
C912 C914 1.394 . S
C912 H928 0.931 1_655 S
C913 C912 1.391 . S
C913 C917 1.376 . S
C914 C912 1.394 . S
C914 C915 1.369 . S
C914 C918 1.531 . S
C915 C914 1.369 . S
C915 C916 1.410 . S
C915 C923 1.503 . S
C916 C915 1.410 . S
C916 C917 1.392 . S
C916 C919 1.511 . S
C917 C913 1.376 . S
C917 C916 1.392 . S
C917 H929 0.929 . S
C918 C914 1.531 . S
C918 H930 0.960 . S
C918 H931 0.962 . S
C918 H932 0.960 . S
C919 C916 1.511 . S
C919 H933 0.961 . S
C919 H934 0.961 . S
C919 H935 0.961 . S
C920 C921 1.370 . S
C920 C922 1.363 . S
C920 H936 0.931 . S
C921 C920 1.370 . S
C921 C925 1.408 . S
C922 C920 1.363 . S
C922 C923 1.370 . S
C922 C926 1.524 . S
C923 C915 1.503 . S
C923 C922 1.370 . S
C923 C924 1.403 . S
C924 C923 1.403 . S
C924 C925 1.404 . S
C924 C927 1.539 . S
C925 C921 1.408 . S
C925 C924 1.404 . S
C925 H937 0.930 . S
C926 C922 1.524 . S
C926 H938 0.956 . S
C926 H939 0.961 . S
C926 H940 0.961 . S
C927 C924 1.539 . S
C927 H941 0.958 . S
C927 H942 0.961 . S
C927 H943 0.960 . S
H928 C912 0.931 1_455 S
H929 C917 0.929 . S
H930 C918 0.960 . S
H931 C918 0.962 . S
H932 C918 0.960 . S
H933 C919 0.961 . S
H934 C919 0.961 . S
H935 C919 0.961 . S
H936 C920 0.931 . S
H937 C925 0.930 . S
H938 C926 0.956 . S
H939 C926 0.961 . S
H940 C926 0.961 . S
H941 C927 0.958 . S
H942 C927 0.961 . S
H943 C927 0.960 . S
C944 C945 1.391 1_554 S
C944 C946 1.394 . S
C944 H960 0.931 . S
C945 C944 1.391 1_556 S
C945 C949 1.376 . S
C946 C944 1.394 . S
C946 C947 1.369 1_554 S
C946 C950 1.531 . S
C947 C946 1.369 1_556 S
C947 C948 1.410 . S
C947 C955 1.503 . S
C948 C947 1.410 . S
C948 C949 1.392 . S
C948 C951 1.511 . S
C949 C945 1.376 . S
C949 C948 1.392 . S
C949 H961 0.929 . S
C950 C946 1.531 . S
C950 H962 0.960 . S
C950 H963 0.962 . S
C950 H964 0.960 . S
C951 C948 1.511 . S
C951 H965 0.961 . S
C951 H966 0.961 . S
C951 H967 0.961 . S
C952 C953 1.370 1_554 S
C952 C954 1.353 1_554 S
C952 H968 0.931 . S
C953 C952 1.370 1_556 S
C953 C957 1.408 . S
C954 C952 1.353 1_556 S
C954 C955 1.397 . S
C954 C958 1.511 1_556 S
C955 C947 1.503 . S
C955 C954 1.397 . S
C955 C956 1.403 . S
C956 C955 1.403 . S
C956 C957 1.404 . S
C956 C959 1.539 . S
C957 C953 1.408 . S
C957 C956 1.404 . S
C957 H969 0.930 . S
C958 C954 1.511 1_554 S
C958 H970 0.956 . S
C958 H971 0.961 1_554 S
C958 H972 0.961 . S
C959 C956 1.539 . S
C959 H973 0.958 . S
C959 H974 0.961 . S
C959 H975 0.960 . S
H960 C944 0.931 . S
H961 C949 0.929 . S
H962 C950 0.960 . S
H963 C950 0.962 . S
H964 C950 0.960 . S
H965 C951 0.961 . S
H966 C951 0.961 . S
H967 C951 0.961 . S
H968 C952 0.931 . S
H969 C957 0.930 . S
H970 C958 0.956 . S
H971 C958 0.961 1_556 S
H972 C958 0.961 . S
H973 C959 0.958 . S
H974 C959 0.961 . S
H975 C959 0.960 . S
C976 C977 1.391 . S
C976 C978 1.394 . S
C976 H992 0.931 . S
C977 C976 1.391 . S
C977 C981 1.376 . S
C978 C976 1.394 . S
C978 C979 1.369 . S
C978 C982 1.531 . S
C979 C978 1.369 . S
C979 C980 1.410 . S
C979 C987 1.503 . S
C980 C979 1.410 . S
C980 C981 1.392 . S
C980 C983 1.511 . S
C981 C977 1.376 . S
C981 C980 1.392 . S
C981 H993 0.929 . S
C982 C978 1.531 . S
C982 H994 0.960 . S
C982 H995 0.962 . S
C982 H996 0.960 . S
C983 C980 1.511 . S
C983 H997 0.961 . S
C983 H998 0.961 . S
C983 H999 0.961 . S
C984 C985 1.370 . S
C984 C986 1.363 . S
C984 H1000 0.931 . S
C985 C984 1.370 . S
C985 C989 1.408 . S
C986 C984 1.363 . S
C986 C987 1.370 . S
C986 C990 1.524 . S
C987 C979 1.503 . S
C987 C986 1.370 . S
C987 C988 1.403 . S
C988 C987 1.403 . S
C988 C989 1.404 . S
C988 C991 1.539 . S
C989 C985 1.408 . S
C989 C988 1.404 . S
C989 H1001 0.930 . S
C990 C986 1.524 . S
C990 H1002 0.956 . S
C990 H1003 0.961 . S
C990 H1004 0.961 . S
C991 C988 1.539 . S
C991 H1005 0.958 . S
C991 H1006 0.961 . S
C991 H1007 0.960 . S
H992 C976 0.931 . S
H993 C981 0.929 . S
H994 C982 0.960 . S
H995 C982 0.962 . S
H996 C982 0.960 . S
H997 C983 0.961 . S
H998 C983 0.961 . S
H999 C983 0.961 . S
H1000 C984 0.931 . S
H1001 C989 0.930 . S
H1002 C990 0.956 . S
H1003 C990 0.961 . S
H1004 C990 0.961 . S
H1005 C991 0.958 . S
H1006 C991 0.961 . S
H1007 C991 0.960 . S
C1008 C1009 1.391 . S
C1008 C1010 1.394 . S
C1008 H1024 0.931 . S
C1009 C1008 1.391 . S
C1009 C1013 1.376 . S
C1010 C1008 1.394 . S
C1010 C1011 1.369 . S
C1010 C1014 1.531 . S
C1011 C1010 1.369 . S
C1011 C1012 1.410 . S
C1011 C1019 1.503 . S
C1012 C1011 1.410 . S
C1012 C1013 1.392 . S
C1012 C1015 1.511 . S
C1013 C1009 1.376 . S
C1013 C1012 1.392 . S
C1013 H1025 0.929 . S
C1014 C1010 1.531 . S
C1014 H1026 0.960 . S
C1014 H1027 0.962 . S
C1014 H1028 0.960 . S
C1015 C1012 1.511 . S
C1015 H1029 0.952 1_565 S
C1015 H1030 0.961 . S
C1015 H1031 0.961 . S
C1016 C1017 1.370 . S
C1016 C1018 1.363 . S
C1016 H1032 0.931 . S
C1017 C1016 1.370 . S
C1017 C1021 1.408 . S
C1018 C1016 1.363 . S
C1018 C1019 1.370 . S
C1018 C1022 1.524 . S
C1019 C1011 1.503 . S
C1019 C1018 1.370 . S
C1019 C1020 1.403 . S
C1020 C1019 1.403 . S
C1020 C1021 1.404 . S
C1020 C1023 1.539 . S
C1021 C1017 1.408 . S
C1021 C1020 1.404 . S
C1021 H1033 0.930 . S
C1022 C1018 1.524 . S
C1022 H1034 0.956 . S
C1022 H1035 0.961 . S
C1022 H1036 0.961 . S
C1023 C1020 1.539 . S
C1023 H1037 0.958 . S
C1023 H1038 0.961 . S
C1023 H1039 0.960 . S
H1024 C1008 0.931 . S
H1025 C1013 0.929 . S
H1026 C1014 0.960 . S
H1027 C1014 0.962 . S
H1028 C1014 0.960 . S
H1029 C1015 0.952 1_545 S
H1030 C1015 0.961 . S
H1031 C1015 0.961 . S
H1032 C1016 0.931 . S
H1033 C1021 0.930 . S
H1034 C1022 0.956 . S
H1035 C1022 0.961 . S
H1036 C1022 0.961 . S
H1037 C1023 0.958 . S
H1038 C1023 0.961 . S
H1039 C1023 0.960 . S
C1040 C1041 1.391 . S
C1040 C1042 1.394 . S
C1040 H1056 0.931 . S
C1041 C1040 1.391 . S
C1041 C1045 1.376 . S
C1042 C1040 1.394 . S
C1042 C1043 1.369 . S
C1042 C1046 1.531 . S
C1043 C1042 1.369 . S
C1043 C1044 1.410 . S
C1043 C1051 1.503 . S
C1044 C1043 1.410 . S
C1044 C1045 1.392 . S
C1044 C1047 1.511 . S
C1045 C1041 1.376 . S
C1045 C1044 1.392 . S
C1045 H1057 0.929 . S
C1046 C1042 1.531 . S
C1046 H1058 0.960 . S
C1046 H1059 0.962 . S
C1046 H1060 0.960 . S
C1047 C1044 1.511 . S
C1047 H1061 0.961 . S
C1047 H1062 0.961 . S
C1047 H1063 0.961 . S
C1048 C1049 1.370 . S
C1048 C1050 1.363 . S
C1048 H1064 0.931 . S
C1049 C1048 1.370 . S
C1049 C1053 1.408 . S
C1050 C1048 1.363 . S
C1050 C1051 1.370 . S
C1050 C1054 1.524 . S
C1051 C1043 1.503 . S
C1051 C1050 1.370 . S
C1051 C1052 1.403 . S
C1052 C1051 1.403 . S
C1052 C1053 1.404 . S
C1052 C1055 1.539 . S
C1053 C1049 1.408 . S
C1053 C1052 1.404 . S
C1053 H1065 0.930 . S
C1054 C1050 1.524 . S
C1054 H1066 0.956 . S
C1054 H1067 0.961 . S
C1054 H1068 0.961 . S
C1055 C1052 1.539 . S
C1055 H1069 0.958 . S
C1055 H1070 0.961 . S
C1055 H1071 0.960 . S
H1056 C1040 0.931 . S
H1057 C1045 0.929 . S
H1058 C1046 0.960 . S
H1059 C1046 0.962 . S
H1060 C1046 0.960 . S
H1061 C1047 0.961 . S
H1062 C1047 0.961 . S
H1063 C1047 0.961 . S
H1064 C1048 0.931 . S
H1065 C1053 0.930 . S
H1066 C1054 0.956 . S
H1067 C1054 0.961 . S
H1068 C1054 0.961 . S
H1069 C1055 0.958 . S
H1070 C1055 0.961 . S
H1071 C1055 0.960 . S
C1072 C1073 1.391 . S
C1072 C1074 1.394 . S
C1072 H1088 0.931 . S
C1073 C1072 1.391 . S
C1073 C1077 1.376 . S
C1074 C1072 1.394 . S
C1074 C1075 1.369 . S
C1074 C1078 1.531 . S
C1075 C1074 1.369 . S
C1075 C1076 1.410 . S
C1075 C1083 1.503 . S
C1076 C1075 1.410 . S
C1076 C1077 1.392 . S
C1076 C1079 1.511 . S
C1077 C1073 1.376 . S
C1077 C1076 1.392 . S
C1077 H1089 0.929 . S
C1078 C1074 1.531 . S
C1078 H1090 0.960 . S
C1078 H1091 0.962 . S
C1078 H1092 0.960 . S
C1079 C1076 1.511 . S
C1079 H1093 0.961 . S
C1079 H1094 0.961 . S
C1079 H1095 0.961 . S
C1080 C1081 1.370 . S
C1080 C1082 1.363 . S
C1080 H1096 0.931 . S
C1081 C1080 1.370 . S
C1081 C1085 1.408 . S
C1082 C1080 1.363 . S
C1082 C1083 1.370 . S
C1082 C1086 1.524 . S
C1083 C1075 1.503 . S
C1083 C1082 1.370 . S
C1083 C1084 1.403 . S
C1084 C1083 1.403 . S
C1084 C1085 1.404 . S
C1084 C1087 1.539 . S
C1085 C1081 1.408 . S
C1085 C1084 1.404 . S
C1085 H1097 0.930 . S
C1086 C1082 1.524 . S
C1086 H1098 0.956 . S
C1086 H1099 0.961 . S
C1086 H1100 0.961 . S
C1087 C1084 1.539 . S
C1087 H1101 0.958 . S
C1087 H1102 0.961 . S
C1087 H1103 0.960 . S
H1088 C1072 0.931 . S
H1089 C1077 0.929 . S
H1090 C1078 0.960 . S
H1091 C1078 0.962 . S
H1092 C1078 0.960 . S
H1093 C1079 0.961 . S
H1094 C1079 0.961 . S
H1095 C1079 0.961 . S
H1096 C1080 0.931 . S
H1097 C1085 0.930 . S
H1098 C1086 0.956 . S
H1099 C1086 0.961 . S
H1100 C1086 0.961 . S
H1101 C1087 0.958 . S
H1102 C1087 0.961 . S
H1103 C1087 0.960 . S
C1104 C1105 1.391 . S
C1104 C1106 1.394 . S
C1104 H1120 0.931 . S
C1105 C1104 1.391 . S
C1105 C1109 1.376 . S
C1106 C1104 1.394 . S
C1106 C1107 1.369 . S
C1106 C1110 1.531 . S
C1107 C1106 1.369 . S
C1107 C1108 1.410 . S
C1107 C1115 1.503 . S
C1108 C1107 1.410 . S
C1108 C1109 1.392 . S
C1108 C1111 1.511 . S
C1109 C1105 1.376 . S
C1109 C1108 1.392 . S
C1109 H1121 0.929 . S
C1110 C1106 1.531 . S
C1110 H1122 0.960 . S
C1110 H1123 0.962 . S
C1110 H1124 0.960 . S
C1111 C1108 1.511 . S
C1111 H1125 0.961 . S
C1111 H1126 0.961 . S
C1111 H1127 0.961 . S
C1112 C1113 1.370 . S
C1112 C1114 1.363 . S
C1112 H1128 0.931 . S
C1113 C1112 1.370 . S
C1113 C1117 1.408 . S
C1114 C1112 1.363 . S
C1114 C1115 1.370 . S
C1114 C1118 1.524 . S
C1115 C1107 1.503 . S
C1115 C1114 1.370 . S
C1115 C1116 1.403 . S
C1116 C1115 1.403 . S
C1116 C1117 1.404 . S
C1116 C1119 1.539 . S
C1117 C1113 1.408 . S
C1117 C1116 1.404 . S
C1117 H1129 0.930 . S
C1118 C1114 1.524 . S
C1118 H1130 0.956 . S
C1118 H1131 0.961 . S
C1118 H1132 0.961 . S
C1119 C1116 1.539 . S
C1119 H1133 0.958 . S
C1119 H1134 0.961 . S
C1119 H1135 0.960 . S
H1120 C1104 0.931 . S
H1121 C1109 0.929 . S
H1122 C1110 0.960 . S
H1123 C1110 0.962 . S
H1124 C1110 0.960 . S
H1125 C1111 0.961 . S
H1126 C1111 0.961 . S
H1127 C1111 0.961 . S
H1128 C1112 0.931 . S
H1129 C1117 0.930 . S
H1130 C1118 0.956 . S
H1131 C1118 0.961 . S
H1132 C1118 0.961 . S
H1133 C1119 0.958 . S
H1134 C1119 0.961 . S
H1135 C1119 0.960 . S
C1136 C1137 1.391 . S
C1136 C1138 1.394 . S
C1136 H1152 0.931 . S
C1137 C1136 1.391 . S
C1137 C1141 1.376 . S
C1138 C1136 1.394 . S
C1138 C1139 1.369 . S
C1138 C1142 1.531 . S
C1139 C1138 1.369 . S
C1139 C1140 1.410 . S
C1139 C1147 1.503 . S
C1140 C1139 1.410 . S
C1140 C1141 1.392 . S
C1140 C1143 1.511 . S
C1141 C1137 1.376 . S
C1141 C1140 1.392 . S
C1141 H1153 0.929 . S
C1142 C1138 1.531 . S
C1142 H1154 0.960 . S
C1142 H1155 0.962 . S
C1142 H1156 0.960 . S
C1143 C1140 1.511 . S
C1143 H1157 0.961 . S
C1143 H1158 0.961 . S
C1143 H1159 0.961 . S
C1144 C1145 1.370 . S
C1144 C1146 1.363 . S
C1144 H1160 0.931 . S
C1145 C1144 1.370 . S
C1145 C1149 1.408 . S
C1146 C1144 1.363 . S
C1146 C1147 1.370 . S
C1146 C1150 1.524 . S
C1147 C1139 1.503 . S
C1147 C1146 1.370 . S
C1147 C1148 1.403 . S
C1148 C1147 1.403 . S
C1148 C1149 1.404 . S
C1148 C1151 1.539 . S
C1149 C1145 1.408 . S
C1149 C1148 1.404 . S
C1149 H1161 0.930 . S
C1150 C1146 1.524 . S
C1150 H1162 0.956 . S
C1150 H1163 0.961 . S
C1150 H1164 0.961 . S
C1151 C1148 1.539 . S
C1151 H1165 0.958 . S
C1151 H1166 0.961 . S
C1151 H1167 0.960 . S
H1152 C1136 0.931 . S
H1153 C1141 0.929 . S
H1154 C1142 0.960 . S
H1155 C1142 0.962 . S
H1156 C1142 0.960 . S
H1157 C1143 0.961 . S
H1158 C1143 0.961 . S
H1159 C1143 0.961 . S
H1160 C1144 0.931 . S
H1161 C1149 0.930 . S
H1162 C1150 0.956 . S
H1163 C1150 0.961 . S
H1164 C1150 0.961 . S
H1165 C1151 0.958 . S
H1166 C1151 0.961 . S
H1167 C1151 0.960 . S
C1168 C1169 1.391 . S
C1168 C1170 1.394 . S
C1168 H1184 0.931 . S
C1169 C1168 1.391 . S
C1169 C1173 1.376 . S
C1170 C1168 1.394 . S
C1170 C1171 1.369 . S
C1170 C1174 1.531 . S
C1171 C1170 1.369 . S
C1171 C1172 1.410 . S
C1171 C1179 1.503 . S
C1172 C1171 1.410 . S
C1172 C1173 1.392 . S
C1172 C1175 1.511 . S
C1173 C1169 1.376 . S
C1173 C1172 1.392 . S
C1173 H1185 0.929 . S
C1174 C1170 1.531 . S
C1174 H1186 0.960 . S
C1174 H1187 0.962 . S
C1174 H1188 0.960 . S
C1175 C1172 1.511 . S
C1175 H1189 0.961 . S
C1175 H1190 0.961 . S
C1175 H1191 0.961 . S
C1176 C1177 1.370 . S
C1176 C1178 1.363 . S
C1176 H1192 0.931 . S
C1177 C1176 1.370 . S
C1177 C1181 1.408 . S
C1178 C1176 1.363 . S
C1178 C1179 1.370 . S
C1178 C1182 1.524 . S
C1179 C1171 1.503 . S
C1179 C1178 1.370 . S
C1179 C1180 1.403 . S
C1180 C1179 1.403 . S
C1180 C1181 1.404 . S
C1180 C1183 1.539 . S
C1181 C1177 1.408 . S
C1181 C1180 1.404 . S
C1181 H1193 0.930 . S
C1182 C1178 1.524 . S
C1182 H1194 0.956 . S
C1182 H1195 0.961 . S
C1182 H1196 0.961 . S
C1183 C1180 1.539 . S
C1183 H1197 0.958 . S
C1183 H1198 0.961 . S
C1183 H1199 0.960 . S
H1184 C1168 0.931 . S
H1185 C1173 0.929 . S
H1186 C1174 0.960 . S
H1187 C1174 0.962 . S
H1188 C1174 0.960 . S
H1189 C1175 0.961 . S
H1190 C1175 0.961 . S
H1191 C1175 0.961 . S
H1192 C1176 0.931 . S
H1193 C1181 0.930 . S
H1194 C1182 0.956 . S
H1195 C1182 0.961 . S
H1196 C1182 0.961 . S
H1197 C1183 0.958 . S
H1198 C1183 0.961 . S
H1199 C1183 0.960 . S
C1200 C1201 1.391 . S
C1200 C1202 1.394 . S
C1200 H1216 0.931 . S
C1201 C1200 1.391 . S
C1201 C1205 1.376 . S
C1202 C1200 1.394 . S
C1202 C1203 1.369 . S
C1202 C1206 1.531 . S
C1203 C1202 1.369 . S
C1203 C1204 1.410 . S
C1203 C1211 1.503 . S
C1204 C1203 1.410 . S
C1204 C1205 1.392 . S
C1204 C1207 1.511 . S
C1205 C1201 1.376 . S
C1205 C1204 1.392 . S
C1205 H1217 0.929 . S
C1206 C1202 1.531 . S
C1206 H1218 0.960 . S
C1206 H1219 0.962 . S
C1206 H1220 0.960 . S
C1207 C1204 1.511 . S
C1207 H1221 0.961 . S
C1207 H1222 0.961 . S
C1207 H1223 0.961 . S
C1208 C1209 1.370 . S
C1208 C1210 1.363 . S
C1208 H1224 0.931 . S
C1209 C1208 1.370 . S
C1209 C1213 1.408 . S
C1210 C1208 1.363 . S
C1210 C1211 1.370 . S
C1210 C1214 1.524 . S
C1211 C1203 1.503 . S
C1211 C1210 1.370 . S
C1211 C1212 1.403 . S
C1212 C1211 1.403 . S
C1212 C1213 1.404 . S
C1212 C1215 1.539 . S
C1213 C1209 1.408 . S
C1213 C1212 1.404 . S
C1213 H1225 0.930 . S
C1214 C1210 1.524 . S
C1214 H1226 0.956 . S
C1214 H1227 0.961 . S
C1214 H1228 0.961 . S
C1215 C1212 1.539 . S
C1215 H1229 0.958 . S
C1215 H1230 0.961 . S
C1215 H1231 0.960 . S
H1216 C1200 0.931 . S
H1217 C1205 0.929 . S
H1218 C1206 0.960 . S
H1219 C1206 0.962 . S
H1220 C1206 0.960 . S
H1221 C1207 0.961 . S
H1222 C1207 0.961 . S
H1223 C1207 0.961 . S
H1224 C1208 0.931 . S
H1225 C1213 0.930 . S
H1226 C1214 0.956 . S
H1227 C1214 0.961 . S
H1228 C1214 0.961 . S
H1229 C1215 0.958 . S
H1230 C1215 0.961 . S
H1231 C1215 0.960 . S
C1232 C1233 1.391 . S
C1232 C1234 1.394 . S
C1232 H1248 0.931 . S
C1233 C1232 1.391 . S
C1233 C1237 1.376 . S
C1234 C1232 1.394 . S
C1234 C1235 1.369 . S
C1234 C1238 1.531 . S
C1235 C1234 1.369 . S
C1235 C1236 1.410 . S
C1235 C1243 1.503 1_545 S
C1236 C1235 1.410 . S
C1236 C1237 1.392 . S
C1236 C1239 1.511 1_545 S
C1237 C1233 1.376 . S
C1237 C1236 1.392 . S
C1237 H1249 0.929 . S
C1238 C1234 1.531 . S
C1238 H1250 0.960 . S
C1238 H1251 0.962 . S
C1238 H1252 0.960 . S
C1239 C1236 1.511 1_565 S
C1239 H1253 0.961 . S
C1239 H1254 0.961 . S
C1239 H1255 0.961 . S
C1240 C1241 1.370 . S
C1240 C1242 1.363 1_565 S
C1240 H1256 0.931 . S
C1241 C1240 1.370 . S
C1241 C1245 1.408 . S
C1242 C1240 1.363 1_545 S
C1242 C1243 1.370 1_545 S
C1242 C1246 1.524 . S
C1243 C1235 1.503 1_565 S
C1243 C1242 1.370 1_565 S
C1243 C1244 1.403 . S
C1244 C1243 1.403 . S
C1244 C1245 1.404 . S
C1244 C1247 1.539 . S
C1245 C1241 1.408 . S
C1245 C1244 1.404 . S
C1245 H1257 0.930 . S
C1246 C1242 1.524 . S
C1246 H1258 0.956 . S
C1246 H1259 0.961 . S
C1246 H1260 0.961 . S
C1247 C1244 1.539 . S
C1247 H1261 0.958 . S
C1247 H1262 0.961 . S
C1247 H1263 0.960 . S
H1248 C1232 0.931 . S
H1249 C1237 0.929 . S
H1250 C1238 0.960 . S
H1251 C1238 0.962 . S
H1252 C1238 0.960 . S
H1253 C1239 0.961 . S
H1254 C1239 0.961 . S
H1255 C1239 0.961 . S
H1256 C1240 0.931 . S
H1257 C1245 0.930 . S
H1258 C1246 0.956 . S
H1259 C1246 0.961 . S
H1260 C1246 0.961 . S
H1261 C1247 0.958 . S
H1262 C1247 0.961 . S
H1263 C1247 0.960 . S
C1264 C1265 1.391 . S
C1264 C1266 1.394 . S
C1264 H1280 0.931 . S
C1265 C1264 1.391 . S
C1265 C1269 1.376 . S
C1266 C1264 1.394 . S
C1266 C1267 1.369 . S
C1266 C1270 1.531 . S
C1267 C1266 1.369 . S
C1267 C1268 1.410 . S
C1267 C1275 1.503 . S
C1268 C1267 1.410 . S
C1268 C1269 1.392 . S
C1268 C1271 1.511 . S
C1269 C1265 1.376 . S
C1269 C1268 1.392 . S
C1269 H1281 0.929 . S
C1270 C1266 1.531 . S
C1270 H1282 0.960 . S
C1270 H1283 0.962 . S
C1270 H1284 0.960 . S
C1271 C1268 1.511 . S
C1271 H1285 0.961 . S
C1271 H1286 0.961 . S
C1271 H1287 0.961 . S
C1272 C1273 1.370 . S
C1272 C1274 1.363 . S
C1272 H1288 0.931 . S
C1273 C1272 1.370 . S
C1273 C1277 1.408 . S
C1274 C1272 1.363 . S
C1274 C1275 1.370 . S
C1274 C1278 1.524 . S
C1275 C1267 1.503 . S
C1275 C1274 1.370 . S
C1275 C1276 1.403 . S
C1276 C1275 1.403 . S
C1276 C1277 1.404 . S
C1276 C1279 1.539 . S
C1277 C1273 1.408 . S
C1277 C1276 1.404 . S
C1277 H1289 0.930 . S
C1278 C1274 1.524 . S
C1278 H1290 0.956 . S
C1278 H1291 0.961 . S
C1278 H1292 0.961 . S
C1279 C1276 1.539 . S
C1279 H1293 0.958 . S
C1279 H1294 0.961 . S
C1279 H1295 0.960 . S
H1280 C1264 0.931 . S
H1281 C1269 0.929 . S
H1282 C1270 0.960 . S
H1283 C1270 0.962 . S
H1284 C1270 0.960 . S
H1285 C1271 0.961 . S
H1286 C1271 0.961 . S
H1287 C1271 0.961 . S
H1288 C1272 0.931 . S
H1289 C1277 0.930 . S
H1290 C1278 0.956 . S
H1291 C1278 0.961 . S
H1292 C1278 0.961 . S
H1293 C1279 0.958 . S
H1294 C1279 0.961 . S
H1295 C1279 0.960 . S
C1296 C1297 1.391 . S
C1296 C1298 1.394 . S
C1296 H1312 0.931 . S
C1297 C1296 1.391 . S
C1297 C1301 1.376 . S
C1298 C1296 1.394 . S
C1298 C1299 1.369 . S
C1298 C1302 1.531 . S
C1299 C1298 1.369 . S
C1299 C1300 1.410 . S
C1299 C1307 1.503 . S
C1300 C1299 1.410 . S
C1300 C1301 1.392 . S
C1300 C1303 1.511 . S
C1301 C1297 1.376 . S
C1301 C1300 1.392 . S
C1301 H1313 0.929 . S
C1302 C1298 1.531 . S
C1302 H1314 0.960 . S
C1302 H1315 0.962 . S
C1302 H1316 0.960 . S
C1303 C1300 1.511 . S
C1303 H1317 0.961 . S
C1303 H1318 0.961 . S
C1303 H1319 0.961 . S
C1304 C1305 1.370 . S
C1304 C1306 1.363 . S
C1304 H1320 0.931 . S
C1305 C1304 1.370 . S
C1305 C1309 1.408 . S
C1306 C1304 1.363 . S
C1306 C1307 1.370 . S
C1306 C1310 1.524 . S
C1307 C1299 1.503 . S
C1307 C1306 1.370 . S
C1307 C1308 1.403 . S
C1308 C1307 1.403 . S
C1308 C1309 1.404 . S
C1308 C1311 1.539 . S
C1309 C1305 1.408 . S
C1309 C1308 1.404 . S
C1309 H1321 0.930 . S
C1310 C1306 1.524 . S
C1310 H1322 0.956 . S
C1310 H1323 0.961 . S
C1310 H1324 0.961 . S
C1311 C1308 1.539 . S
C1311 H1325 0.958 . S
C1311 H1326 0.961 . S
C1311 H1327 0.960 . S
H1312 C1296 0.931 . S
H1313 C1301 0.929 . S
H1314 C1302 0.960 . S
H1315 C1302 0.962 . S
H1316 C1302 0.960 . S
H1317 C1303 0.961 . S
H1318 C1303 0.961 . S
H1319 C1303 0.961 . S
H1320 C1304 0.931 . S
H1321 C1309 0.930 . S
H1322 C1310 0.956 . S
H1323 C1310 0.961 . S
H1324 C1310 0.961 . S
H1325 C1311 0.958 . S
H1326 C1311 0.961 . S
H1327 C1311 0.960 . S
C1328 C1329 1.391 1_655 S
C1328 C1330 1.394 . S
C1328 H1344 0.931 . S
C1329 C1328 1.391 1_455 S
C1329 C1333 1.376 . S
C1330 C1328 1.394 . S
C1330 C1331 1.369 . S
C1330 C1334 1.531 . S
C1331 C1330 1.369 . S
C1331 C1332 1.410 1_655 S
C1331 C1339 1.503 . S
C1332 C1331 1.410 1_455 S
C1332 C1333 1.392 . S
C1332 C1335 1.511 . S
C1333 C1329 1.376 . S
C1333 C1332 1.392 . S
C1333 H1345 0.929 . S
C1334 C1330 1.531 . S
C1334 H1346 0.960 . S
C1334 H1347 0.962 . S
C1334 H1348 0.960 . S
C1335 C1332 1.511 . S
C1335 H1349 0.961 . S
C1335 H1350 0.961 . S
C1335 H1351 0.961 . S
C1336 C1337 1.370 . S
C1336 C1338 1.363 . S
C1336 H1352 0.931 . S
C1337 C1336 1.370 . S
C1337 C1341 1.408 . S
C1338 C1336 1.363 . S
C1338 C1339 1.370 . S
C1338 C1342 1.524 . S
C1339 C1331 1.503 . S
C1339 C1338 1.370 . S
C1339 C1340 1.403 . S
C1340 C1339 1.403 . S
C1340 C1341 1.404 . S
C1340 C1343 1.539 1_655 S
C1341 C1337 1.408 . S
C1341 C1340 1.404 . S
C1341 H1353 0.930 . S
C1342 C1338 1.524 . S
C1342 H1354 0.956 . S
C1342 H1355 0.961 . S
C1342 H1356 0.961 . S
C1343 C1340 1.539 1_455 S
C1343 H1357 0.958 . S
C1343 H1358 0.961 . S
C1343 H1359 0.960 . S
H1344 C1328 0.931 . S
H1345 C1333 0.929 . S
H1346 C1334 0.960 . S
H1347 C1334 0.962 . S
H1348 C1334 0.960 . S
H1349 C1335 0.961 . S
H1350 C1335 0.961 . S
H1351 C1335 0.961 . S
H1352 C1336 0.931 . S
H1353 C1341 0.930 . S
H1354 C1342 0.956 . S
H1355 C1342 0.961 . S
H1356 C1342 0.961 . S
H1357 C1343 0.958 . S
H1358 C1343 0.961 . S
H1359 C1343 0.960 . S
C1360 C1361 1.391 . S
C1360 C1362 1.394 . S
C1360 H1376 0.931 . S
C1361 C1360 1.391 . S
C1361 C1365 1.376 . S
C1362 C1360 1.394 . S
C1362 C1363 1.369 . S
C1362 C1366 1.531 . S
C1363 C1362 1.369 . S
C1363 C1364 1.410 . S
C1363 C1371 1.503 . S
C1364 C1363 1.410 . S
C1364 C1365 1.392 . S
C1364 C1367 1.511 . S
C1365 C1361 1.376 . S
C1365 C1364 1.392 . S
C1365 H1377 0.929 . S
C1366 C1362 1.531 . S
C1366 H1378 0.960 . S
C1366 H1379 0.962 . S
C1366 H1380 0.960 . S
C1367 C1364 1.511 . S
C1367 H1381 0.961 . S
C1367 H1382 0.961 . S
C1367 H1383 0.961 . S
C1368 C1369 1.370 . S
C1368 C1370 1.363 . S
C1368 H1384 0.931 . S
C1369 C1368 1.370 . S
C1369 C1373 1.408 . S
C1370 C1368 1.363 . S
C1370 C1371 1.370 . S
C1370 C1374 1.524 . S
C1371 C1363 1.503 . S
C1371 C1370 1.370 . S
C1371 C1372 1.403 . S
C1372 C1371 1.403 . S
C1372 C1373 1.404 . S
C1372 C1375 1.539 . S
C1373 C1369 1.408 . S
C1373 C1372 1.404 . S
C1373 H1385 0.930 . S
C1374 C1370 1.524 . S
C1374 H1386 0.956 . S
C1374 H1387 0.961 . S
C1374 H1388 0.961 . S
C1375 C1372 1.539 . S
C1375 H1389 0.958 . S
C1375 H1390 0.961 . S
C1375 H1391 0.960 . S
H1376 C1360 0.931 . S
H1377 C1365 0.929 . S
H1378 C1366 0.960 . S
H1379 C1366 0.962 . S
H1380 C1366 0.960 . S
H1381 C1367 0.961 . S
H1382 C1367 0.961 . S
H1383 C1367 0.961 . S
H1384 C1368 0.931 . S
H1385 C1373 0.930 . S
H1386 C1374 0.956 . S
H1387 C1374 0.961 . S
H1388 C1374 0.961 . S
H1389 C1375 0.958 . S
H1390 C1375 0.961 . S
H1391 C1375 0.960 . S
C1392 C1393 1.391 . S
C1392 C1394 1.394 . S
C1392 H1408 0.931 . S
C1393 C1392 1.391 . S
C1393 C1397 1.376 . S
C1394 C1392 1.394 . S
C1394 C1395 1.369 . S
C1394 C1398 1.531 . S
C1395 C1394 1.369 . S
C1395 C1396 1.410 . S
C1395 C1403 1.503 . S
C1396 C1395 1.410 . S
C1396 C1397 1.392 . S
C1396 C1399 1.511 . S
C1397 C1393 1.376 . S
C1397 C1396 1.392 . S
C1397 H1409 0.929 . S
C1398 C1394 1.531 . S
C1398 H1410 0.960 . S
C1398 H1411 0.962 . S
C1398 H1412 0.960 . S
C1399 C1396 1.511 . S
C1399 H1413 0.961 . S
C1399 H1414 0.961 . S
C1399 H1415 0.961 . S
C1400 C1401 1.370 . S
C1400 C1402 1.363 . S
C1400 H1416 0.931 . S
C1401 C1400 1.370 . S
C1401 C1405 1.408 . S
C1402 C1400 1.363 . S
C1402 C1403 1.370 . S
C1402 C1406 1.524 . S
C1403 C1395 1.503 . S
C1403 C1402 1.370 . S
C1403 C1404 1.403 . S
C1404 C1403 1.403 . S
C1404 C1405 1.404 . S
C1404 C1407 1.539 . S
C1405 C1401 1.408 . S
C1405 C1404 1.404 . S
C1405 H1417 0.930 . S
C1406 C1402 1.524 . S
C1406 H1418 0.956 . S
C1406 H1419 0.961 . S
C1406 H1420 0.961 . S
C1407 C1404 1.539 . S
C1407 H1421 0.958 . S
C1407 H1422 0.961 . S
C1407 H1423 0.960 . S
H1408 C1392 0.931 . S
H1409 C1397 0.929 . S
H1410 C1398 0.960 . S
H1411 C1398 0.962 . S
H1412 C1398 0.960 . S
H1413 C1399 0.961 . S
H1414 C1399 0.961 . S
H1415 C1399 0.961 . S
H1416 C1400 0.931 . S
H1417 C1405 0.930 . S
H1418 C1406 0.956 . S
H1419 C1406 0.961 . S
H1420 C1406 0.961 . S
H1421 C1407 0.958 . S
H1422 C1407 0.961 . S
H1423 C1407 0.960 . S
C1424 C1425 1.391 1_655 S
C1424 C1426 1.394 . S
C1424 H1440 0.931 . S
C1425 C1424 1.391 1_455 S
C1425 C1429 1.376 . S
C1426 C1424 1.394 . S
C1426 C1427 1.369 . S
C1426 C1430 1.531 . S
C1427 C1426 1.369 . S
C1427 C1428 1.410 1_655 S
C1427 C1435 1.503 . S
C1428 C1427 1.410 1_455 S
C1428 C1429 1.392 . S
C1428 C1431 1.511 . S
C1429 C1425 1.376 . S
C1429 C1428 1.392 . S
C1429 H1441 0.929 . S
C1430 C1426 1.531 . S
C1430 H1442 0.960 . S
C1430 H1443 0.962 . S
C1430 H1444 0.960 . S
C1431 C1428 1.511 . S
C1431 H1445 0.961 . S
C1431 H1446 0.961 . S
C1431 H1447 0.961 . S
C1432 C1433 1.370 . S
C1432 C1434 1.363 . S
C1432 H1448 0.931 . S
C1433 C1432 1.370 . S
C1433 C1437 1.408 . S
C1434 C1432 1.363 . S
C1434 C1435 1.370 . S
C1434 C1438 1.524 . S
C1435 C1427 1.503 . S
C1435 C1434 1.370 . S
C1435 C1436 1.403 . S
C1436 C1435 1.403 . S
C1436 C1437 1.404 . S
C1436 C1439 1.539 . S
C1437 C1433 1.408 . S
C1437 C1436 1.404 . S
C1437 H1449 0.930 . S
C1438 C1434 1.524 . S
C1438 H1450 0.956 . S
C1438 H1451 0.961 . S
C1438 H1452 0.961 . S
C1439 C1436 1.539 . S
C1439 H1453 0.958 . S
C1439 H1454 0.961 . S
C1439 H1455 0.960 . S
H1440 C1424 0.931 . S
H1441 C1429 0.929 . S
H1442 C1430 0.960 . S
H1443 C1430 0.962 . S
H1444 C1430 0.960 . S
H1445 C1431 0.961 . S
H1446 C1431 0.961 . S
H1447 C1431 0.961 . S
H1448 C1432 0.931 . S
H1449 C1437 0.930 . S
H1450 C1438 0.956 . S
H1451 C1438 0.961 . S
H1452 C1438 0.961 . S
H1453 C1439 0.958 . S
H1454 C1439 0.961 . S
H1455 C1439 0.960 . S
C1456 C1457 1.391 . S
C1456 C1458 1.394 . S
C1456 H1472 0.931 . S
C1457 C1456 1.391 . S
C1457 C1461 1.376 . S
C1458 C1456 1.394 . S
C1458 C1459 1.369 . S
C1458 C1462 1.531 . S
C1459 C1458 1.369 . S
C1459 C1460 1.410 . S
C1459 C1467 1.503 . S
C1460 C1459 1.410 . S
C1460 C1461 1.392 . S
C1460 C1463 1.511 . S
C1461 C1457 1.376 . S
C1461 C1460 1.392 . S
C1461 H1473 0.929 . S
C1462 C1458 1.531 . S
C1462 H1474 0.960 . S
C1462 H1475 0.962 . S
C1462 H1476 0.960 . S
C1463 C1460 1.511 . S
C1463 H1477 0.961 . S
C1463 H1478 0.961 . S
C1463 H1479 0.961 . S
C1464 C1465 1.370 . S
C1464 C1466 1.363 . S
C1464 H1480 0.931 . S
C1465 C1464 1.370 . S
C1465 C1469 1.408 . S
C1466 C1464 1.363 . S
C1466 C1467 1.370 . S
C1466 C1470 1.524 . S
C1467 C1459 1.503 . S
C1467 C1466 1.370 . S
C1467 C1468 1.403 . S
C1468 C1467 1.403 . S
C1468 C1469 1.404 . S
C1468 C1471 1.539 . S
C1469 C1465 1.408 . S
C1469 C1468 1.404 . S
C1469 H1481 0.930 . S
C1470 C1466 1.524 . S
C1470 H1482 0.956 . S
C1470 H1483 0.961 . S
C1470 H1484 0.961 . S
C1471 C1468 1.539 . S
C1471 H1485 0.958 . S
C1471 H1486 0.961 . S
C1471 H1487 0.960 . S
H1472 C1456 0.931 . S
H1473 C1461 0.929 . S
H1474 C1462 0.960 . S
H1475 C1462 0.962 . S
H1476 C1462 0.960 . S
H1477 C1463 0.961 . S
H1478 C1463 0.961 . S
H1479 C1463 0.961 . S
H1480 C1464 0.931 . S
H1481 C1469 0.930 . S
H1482 C1470 0.956 . S
H1483 C1470 0.961 . S
H1484 C1470 0.961 . S
H1485 C1471 0.958 . S
H1486 C1471 0.961 . S
H1487 C1471 0.960 . S
C1488 C1489 1.391 . S
C1488 C1490 1.394 . S
C1488 H1504 0.931 . S
C1489 C1488 1.391 . S
C1489 C1493 1.376 . S
C1490 C1488 1.394 . S
C1490 C1491 1.369 . S
C1490 C1494 1.531 . S
C1491 C1490 1.369 . S
C1491 C1492 1.410 . S
C1491 C1499 1.503 . S
C1492 C1491 1.410 . S
C1492 C1493 1.392 . S
C1492 C1495 1.511 . S
C1493 C1489 1.376 . S
C1493 C1492 1.392 . S
C1493 H1505 0.929 . S
C1494 C1490 1.531 . S
C1494 H1506 0.960 . S
C1494 H1507 0.962 . S
C1494 H1508 0.960 . S
C1495 C1492 1.511 . S
C1495 H1509 0.961 . S
C1495 H1510 0.961 . S
C1495 H1511 0.961 . S
C1496 C1497 1.370 . S
C1496 C1498 1.363 . S
C1496 H1512 0.931 . S
C1497 C1496 1.370 . S
C1497 C1501 1.408 . S
C1498 C1496 1.363 . S
C1498 C1499 1.370 . S
C1498 C1502 1.524 . S
C1499 C1491 1.503 . S
C1499 C1498 1.370 . S
C1499 C1500 1.403 . S
C1500 C1499 1.403 . S
C1500 C1501 1.404 . S
C1500 C1503 1.539 . S
C1501 C1497 1.408 . S
C1501 C1500 1.404 . S
C1501 H1513 0.930 . S
C1502 C1498 1.524 . S
C1502 H1514 0.956 . S
C1502 H1515 0.961 . S
C1502 H1516 0.961 . S
C1503 C1500 1.539 . S
C1503 H1517 0.958 . S
C1503 H1518 0.961 . S
C1503 H1519 0.960 . S
H1504 C1488 0.931 . S
H1505 C1493 0.929 . S
H1506 C1494 0.960 . S
H1507 C1494 0.962 . S
H1508 C1494 0.960 . S
H1509 C1495 0.961 . S
H1510 C1495 0.961 . S
H1511 C1495 0.961 . S
H1512 C1496 0.931 . S
H1513 C1501 0.930 . S
H1514 C1502 0.956 . S
H1515 C1502 0.961 . S
H1516 C1502 0.961 . S
H1517 C1503 0.958 . S
H1518 C1503 0.961 . S
H1519 C1503 0.960 . S
C505 C404 1.364 . S
C497 C36 1.311 . S
C537 C421 1.392 . S
C529 C93 1.383 . S
C569 C435 1.504 . S
C561 C126 1.531 . S
C593 C165 1.354 . S
C601 C393 1.312 . S
C625 C222 1.280 1_554 S
C633 C390 1.339 . S
C657 C261 1.175 . S
C665 C407 1.151 . S
C697 C418 1.546 . S
C689 C318 1.470 . S
C729 C432 1.410 . S
C721 C381 1.396 . S
C753 C132 1.417 . S
C761 C460 1.425 . S
C793 C474 1.555 . S
C785 C189 1.554 . S
C817 C30 1.162 . S
C825 C491 1.171 . S
C857 C446 1.340 . S
C849 C69 1.254 . S
C881 C324 1.281 . S
C889 C449 1.321 . S
C913 C357 1.510 1_655 S
C921 C463 1.505 . S
C953 C477 1.373 . S
C945 C228 1.394 . S
C977 C285 1.368 . S
C985 C488 1.364 . S
C1017 C420 1.980 . S
C1009 C45 1.987 . S
C1049 C434 2.080 . S
C1041 C84 2.059 . S
C1073 C117 1.967 . S
C1081 C392 2.014 1_556 S
C1105 C174 1.810 . S
C1113 C405 1.757 . S
C1137 C213 1.708 . S
C1145 C433 1.588 . S
C1177 C391 1.562 . S
C1169 C270 1.643 . S
C1209 C406 1.894 . S
C1201 C309 1.888 . S
C1241 C419 1.688 . S
C1233 C372 1.803 . S
C1273 C475 1.686 . S
C1265 C141 1.789 . S
C1305 C490 1.901 . S
C1297 C180 1.893 . S
C1329 C21 1.662 . S
C1337 C447 1.533 . S
C1369 C461 1.583 . S
C1361 C78 1.702 . S
C1401 C489 1.781 . S
C1393 C333 1.884 . S
C1425 C366 1.974 . S
C1433 C448 2.000 . S
C1465 C462 2.077 . S
C1457 C237 2.055 . S
C1497 C476 1.977 . S
C1489 C276 1.991 . S
