# Generated by pormake.
# Topology anh, (6,3)-cn, num edge types: 1
# Building blocks:
#     Node 0, Type 0, BuildingBlock: INOVEN_clean_sbu_0, # of connection points: 6
#     Node 1, Type 0, BuildingBlock: INOVEN_clean_sbu_0, # of connection points: 6
#     Node 2, Type 0, BuildingBlock: INOVEN_clean_sbu_0, # of connection points: 6
#     Node 3, Type 1, BuildingBlock: BETDAH_clean_linker_0, # of connection points: 3
#     Node 4, Type 1, BuildingBlock: BETDAH_clean_linker_0, # of connection points: 3
#     Node 5, Type 1, BuildingBlock: BETDAH_clean_linker_0, # of connection points: 3
#     Node 6, Type 1, BuildingBlock: BETDAH_clean_linker_0, # of connection points: 3
#     Node 7, Type 1, BuildingBlock: BETDAH_clean_linker_0, # of connection points: 3
#     Node 8, Type 1, BuildingBlock: BETDAH_clean_linker_0, # of connection points: 3
#     Edge 9, Type (0, 1), BuildingBlock: KIFKEQ_clean_linker_1, # of connection points: 2
#     Edge 10, Type (0, 1), BuildingBlock: KIFKEQ_clean_linker_1, # of connection points: 2
#     Edge 11, Type (0, 1), BuildingBlock: KIFKEQ_clean_linker_1, # of connection points: 2
#     Edge 12, Type (0, 1), BuildingBlock: KIFKEQ_clean_linker_1, # of connection points: 2
#     Edge 13, Type (0, 1), BuildingBlock: KIFKEQ_clean_linker_1, # of connection points: 2
#     Edge 14, Type (0, 1), BuildingBlock: KIFKEQ_clean_linker_1, # of connection points: 2
#     Edge 15, Type (0, 1), BuildingBlock: KIFKEQ_clean_linker_1, # of connection points: 2
#     Edge 16, Type (0, 1), BuildingBlock: KIFKEQ_clean_linker_1, # of connection points: 2
#     Edge 17, Type (0, 1), BuildingBlock: KIFKEQ_clean_linker_1, # of connection points: 2
#     Edge 18, Type (0, 1), BuildingBlock: KIFKEQ_clean_linker_1, # of connection points: 2
#     Edge 19, Type (0, 1), BuildingBlock: KIFKEQ_clean_linker_1, # of connection points: 2
#     Edge 20, Type (0, 1), BuildingBlock: KIFKEQ_clean_linker_1, # of connection points: 2
#     Edge 21, Type (0, 1), BuildingBlock: KIFKEQ_clean_linker_1, # of connection points: 2
#     Edge 22, Type (0, 1), BuildingBlock: KIFKEQ_clean_linker_1, # of connection points: 2
#     Edge 23, Type (0, 1), BuildingBlock: KIFKEQ_clean_linker_1, # of connection points: 2
#     Edge 24, Type (0, 1), BuildingBlock: KIFKEQ_clean_linker_1, # of connection points: 2
#     Edge 25, Type (0, 1), BuildingBlock: KIFKEQ_clean_linker_1, # of connection points: 2
#     Edge 26, Type (0, 1), BuildingBlock: KIFKEQ_clean_linker_1, # of connection points: 2
# Relax obj value: 0.142
# Max RMSD: 0.185
# Mean RMSD: 0.109
data_MOF--net-anh--node1-INOVEN_clean_sbu_0--node2-BETDAH_clean_linker_0--edge1-KIFKEQ_clean_linker_1
_symmetry_space_group_name_H-M    P1
_symmetry_Int_Tables_number       1
_symmetry_cell_setting            triclinic
loop_
_symmetry_equiv_pos_as_xyz
'x, y, z'
_cell_length_a     31.011575
_cell_length_b     38.754762
_cell_length_c     49.777011
_cell_angle_alpha  93.975027
_cell_angle_beta   89.834058
_cell_angle_gamma 129.80245
loop_
_atom_site_label
_atom_site_type_symbol
_atom_site_fract_x
_atom_site_fract_y
_atom_site_fract_z
_atom_type_partial_charge
Gd0 Gd 0.18392 0.56905 0.15297 0.0
Gd1 Gd 0.11649 0.59741 0.17025 0.0
C2 C 0.24776 0.67608 0.16112 0.0
C3 C 0.24371 0.55374 0.12888 0.0
C4 C 0.27818 0.54501 0.11508 0.0
C5 C 0.3311 0.56347 0.12638 0.0
C6 C 0.2568 0.51562 0.09151 0.0
C7 C 0.3348 0.51544 0.09424 0.0
C8 C 0.28492 0.50095 0.08114 0.0
C9 C 0.35944 0.549 0.11592 0.0
C10 C 0.16373 0.56494 0.206 0.0
C11 C 1.0542 0.49234 0.16211 0.0
C12 C 1.06208 0.6192 0.19372 0.0
C13 C 1.00077 0.59042 0.19381 0.0
C14 C 0.96869 0.54976 0.17741 0.0
C15 C 0.97385 0.60088 0.21089 0.0
C16 C 0.88278 0.5299 0.19463 0.0
C17 C 0.91493 0.57081 0.21119 0.0
C18 C 0.91057 0.52 0.17772 0.0
C19 C 0.1058 0.5718 0.1168 0.0
O20 O 0.25081 0.64448 0.15306 0.0
O21 O 0.2008 0.66624 0.1695 0.0
O22 O 0.25839 0.57531 0.15295 0.0
O23 O 0.19532 0.53909 0.11833 0.0
O24 O 0.16434 0.53583 0.19195 0.0
O25 O 0.17647 0.59559 0.19178 0.0
O26 O 1.0574 0.52363 0.17682 0.0
O27 O 0.09551 0.50312 0.14686 0.0
O28 O 1.08315 0.63235 0.1701 0.0
O29 O 1.0826 0.6037 0.20649 0.0
O30 O 1.06478 0.56276 0.13069 0.0
O31 O 0.15037 0.59535 0.1315 0.0
H32 H 0.34925 0.58725 0.14414 0.0
H33 H 0.2166 0.50167 0.08205 0.0
H34 H 0.26484 0.47525 0.06435 0.0
H35 H 0.39868 0.56175 0.12594 0.0
H36 H 0.98861 0.54086 0.16426 0.0
H37 H 0.9982 0.63196 0.22394 0.0
H38 H 0.89463 0.57942 0.22433 0.0
H39 H 0.88741 0.4896 0.16408 0.0
Gd40 Gd 0.69678 0.06875 0.48324 0.0
Gd41 Gd 0.61886 0.08735 0.46934 0.0
C42 C 0.56369 0.98542 0.46834 0.0
C43 C 0.74441 0.04103 0.50493 0.0
C44 C 0.73014 0.99834 0.51116 0.0
C45 C 0.68651 0.95734 0.49667 0.0
C46 C 0.76209 0.99894 0.53131 0.0
C47 C 0.70964 0.91838 0.52129 0.0
C48 C 0.75193 0.95933 0.53638 0.0
C49 C 0.67646 0.91769 0.50164 0.0
C50 C 0.69117 0.07945 0.43073 0.0
C51 C 0.75411 0.17146 0.48047 0.0
C52 C 0.57113 0.11771 0.45215 0.0
C53 C 0.5789 0.15927 0.45882 0.0
C54 C 0.53709 0.15671 0.47216 0.0
C55 C 0.62863 0.2018 0.45327 0.0
C56 C 0.59595 0.23857 0.47585 0.0
C57 C 0.63704 0.24098 0.46169 0.0
C58 C 0.54555 0.19588 0.48066 0.0
C59 C 0.62531 0.07666 0.52175 0.0
O60 O 0.60923 1.00021 0.48284 0.0
O61 O 0.5616 0.01355 0.45611 0.0
O62 O 0.74642 0.0476 0.47938 0.0
O63 O 0.72036 0.05384 0.51891 0.0
O64 O 0.73663 0.09258 0.44337 0.0
O65 O 0.65029 0.05853 0.44575 0.0
O66 O 0.70495 0.15652 0.47023 0.0
O67 O 0.76046 0.14402 0.49021 0.0
O68 O 0.55126 0.09006 0.47111 0.0
O69 O 0.61136 0.12191 0.43971 0.0
O70 O 0.57944 0.06209 0.50899 0.0
O71 O 0.66605 0.0984 0.50674 0.0
H72 H 0.661 0.95615 0.48118 0.0
H73 H 0.79585 0.0303 0.54271 0.0
H74 H 0.77861 0.96114 0.55143 0.0
H75 H 0.64312 0.88658 0.48992 0.0
H76 H 0.49829 0.12437 0.47662 0.0
H77 H 0.66151 0.205 0.44278 0.0
H78 H 0.6759 0.27321 0.45719 0.0
H79 H 0.51321 0.1927 0.49174 0.0
Gd80 Gd 0.65462 0.5952 0.84251 0.0
Gd81 Gd 0.57138 0.4938 0.83665 0.0
C82 C 0.5189 0.54252 0.84279 0.0
C83 C 0.71274 0.68002 0.83646 0.0
C84 C 0.70382 0.71071 0.82804 0.0
C85 C 0.7447 0.75697 0.83544 0.0
C86 C 0.65587 0.69471 0.81227 0.0
C87 C 0.6907 0.77154 0.81088 0.0
C88 C 0.64936 0.7249 0.80375 0.0
C89 C 0.73823 0.78711 0.82701 0.0
C90 C 0.6312 0.55527 0.88871 0.0
C91 C 0.70814 0.54678 0.8405 0.0
C92 C 0.5168 0.40881 0.84013 0.0
C93 C 0.52996 0.37851 0.83533 0.0
C94 C 0.4936 0.33872 0.81831 0.0
C95 C 0.57962 0.38975 0.84641 0.0
C96 C 0.55729 0.32267 0.82254 0.0
C97 C 0.59306 0.36199 0.84013 0.0
C98 C 0.50715 0.31109 0.81192 0.0
C99 C 0.59245 0.53261 0.79013 0.0
O100 O 0.56959 0.5792 0.83687 0.0
O101 O 0.51054 0.50544 0.84753 0.0
O102 O 0.69265 0.6628 0.85945 0.0
O103 O 0.70467 0.65082 0.81763 0.0
O104 O 0.68127 0.59127 0.88384 0.0
O105 O 0.59679 0.54403 0.86973 0.0
O106 O 0.65561 0.5084 0.84083 0.0
O107 O 0.71885 0.58556 0.83907 0.0
O108 O 0.5133 0.42479 0.81872 0.0
O109 O 0.54331 0.43908 0.86079 0.0
O110 O 0.54323 0.49714 0.7962 0.0
O111 O 0.62886 0.5449 0.8085 0.0
H112 H 0.78185 0.76985 0.8477 0.0
H113 H 0.62382 0.65901 0.80634 0.0
H114 H 0.61245 0.71178 0.79122 0.0
H115 H 0.77029 0.82263 0.83336 0.0
H116 H 0.45508 0.32938 0.80959 0.0
H117 H 0.60861 0.42036 0.85954 0.0
H118 H 0.63223 0.372 0.84842 0.0
H119 H 0.47845 0.28071 0.79858 0.0
H120 H 0.57855 0.98881 0.23175 0.0
H121 H 0.69471 0.13023 0.21956 0.0
H122 H 0.60148 0.03101 0.15184 0.0
C123 C 0.59911 0.01567 0.21841 0.0
C124 C 0.58533 1.00449 0.19066 0.0
C125 C 0.63763 0.06084 0.22924 0.0
C126 C 0.665 0.09528 0.21153 0.0
C127 C 0.65222 0.08444 0.18348 0.0
C128 C 0.6118 0.03916 0.17336 0.0
N129 N 0.67795 0.11787 0.16478 0.0
C130 C 0.72293 0.16353 0.17087 0.0
H131 H 0.63816 0.49432 0.5944 0.0
H132 H 0.68575 0.62438 0.58545 0.0
H133 H 0.69167 0.5518 0.51831 0.0
C134 C 0.65201 0.52128 0.58194 0.0
C135 C 0.66326 0.51807 0.55497 0.0
C136 C 0.66028 0.55958 0.59322 0.0
C137 C 0.67964 0.59491 0.57702 0.0
C138 C 0.69093 0.59192 0.54992 0.0
C139 C 0.68325 0.55385 0.53926 0.0
N140 N 0.71048 0.6264 0.53264 0.0
C141 C 0.70873 0.66121 0.53756 0.0
H142 H 1.01388 0.54425 0.91742 0.0
H143 H 0.15124 0.54504 0.90286 0.0
H144 H 1.06341 0.54634 0.83629 0.0
C145 C 1.04083 0.54455 0.90332 0.0
C146 C 1.0332 0.54578 0.8757 0.0
C147 C 1.08288 0.5441 0.91321 0.0
C148 C 0.11867 0.54512 0.89517 0.0
C149 C 0.11174 0.54549 0.86726 0.0
C150 C 1.06856 0.54553 0.8577 0.0
N151 N 0.14729 0.54617 0.84835 0.0
C152 C 0.19144 0.5457 0.85396 0.0
H153 H 0.22294 0.66272 0.40055 0.0
H154 H 0.1092 0.52486 0.42005 0.0
H155 H 0.22244 0.63155 0.48178 0.0
C156 C 0.20523 0.6382 0.41539 0.0
C157 C 0.22726 0.6527 0.44212 0.0
C158 C 0.1633 0.59219 0.40721 0.0
C159 C 0.14152 0.56037 0.42637 0.0
C160 C 0.16215 0.57463 0.4535 0.0
C161 C 0.20575 0.62067 0.46103 0.0
N162 N 0.141 0.54385 0.47368 0.0
C163 C 0.093 0.49856 0.47038 0.0
H164 H 0.63016 0.12542 0.7198 0.0
H165 H 0.66716 0.03767 0.73171 0.0
H166 H 0.67169 0.1152 0.79954 0.0
C167 C 0.64155 0.11119 0.73318 0.0
C168 C 0.64974 0.12399 0.76095 0.0
C169 C 0.64788 0.08025 0.72238 0.0
C170 C 0.66228 0.06159 0.73984 0.0
C171 C 0.67033 0.07403 0.7678 0.0
C172 C 0.66456 0.10539 0.77805 0.0
N173 N 0.68498 0.05637 0.78633 0.0
C174 C 0.67868 0.01764 0.78109 0.0
H175 H 0.6054 0.3955 0.0543 0.0
H176 H 0.43791 0.2958 0.01915 0.0
H177 H 0.47374 0.29082 0.10101 0.0
C178 C 0.5627 0.36457 0.05571 0.0
C179 C 0.54503 0.34471 0.08034 0.0
C180 C 0.52428 0.3475 0.03366 0.0
C181 C 0.46872 0.308 0.03555 0.0
C182 C 0.45087 0.28686 0.0596 0.0
C183 C 0.48918 0.30504 0.08185 0.0
N184 N 0.39277 0.25688 0.06385 0.0
C185 C 0.36864 0.27679 0.06809 0.0
H186 H 0.34069 0.48107 0.0454 0.0
H187 H 0.36845 0.48788 0.13136 0.0
H188 H 0.35125 0.42376 0.03841 0.0
H189 H 0.37893 0.4313 0.12441 0.0
H190 H 0.29436 0.2807 0.04312 0.0
H191 H 0.29454 0.34431 0.04794 0.0
H192 H 0.43591 0.4145 0.10608 0.0
H193 H 0.43419 0.35055 0.10171 0.0
C194 C 0.35004 0.47097 0.06271 0.0
C195 C 0.35373 0.48904 0.08892 0.0
C196 C 0.35564 0.43797 0.05874 0.0
C197 C 0.3652 0.42264 0.0809 0.0
C198 C 0.37216 0.44268 0.10688 0.0
C199 C 0.36655 0.47549 0.11084 0.0
C200 C 0.32449 0.3095 0.05726 0.0
C201 C 0.36318 0.31073 0.07266 0.0
C202 C 0.32536 0.34613 0.0597 0.0
C203 C 0.36534 0.38445 0.07738 0.0
C204 C 0.4041 0.38527 0.09262 0.0
C205 C 0.40296 0.34869 0.09026 0.0
H206 H 0.86397 0.21516 0.49635 0.0
H207 H 0.75651 0.23817 0.46317 0.0
H208 H 0.94538 0.29432 0.49337 0.0
H209 H 0.83784 0.31684 0.45966 0.0
H210 H 0.98939 0.46588 0.48344 0.0
H211 H 0.90688 0.38676 0.48664 0.0
H212 H 1.00315 0.34674 0.46003 0.0
H213 H 1.08575 0.42615 0.45744 0.0
C214 C 0.85759 0.23703 0.48848 0.0
C215 C 0.80352 0.22013 0.48001 0.0
C216 C 0.90441 0.2824 0.48654 0.0
C217 C 0.89835 0.31204 0.47612 0.0
C218 C 0.84414 0.29521 0.46803 0.0
C219 C 0.7974 0.2499 0.46994 0.0
C220 C 0.99245 0.43995 0.47807 0.0
C221 C 1.04335 0.45165 0.47006 0.0
C222 C 0.94529 0.39467 0.47983 0.0
C223 C 0.94828 0.36024 0.47367 0.0
C224 C 0.99949 0.37233 0.46531 0.0
C225 C 1.04661 0.41765 0.46355 0.0
H226 H 0.59504 0.76187 0.80788 0.0
H227 H 0.77216 0.85487 0.79345 0.0
H228 H 0.58637 0.81719 0.7958 0.0
H229 H 0.76411 0.91087 0.78271 0.0
H230 H 0.72969 0.99609 0.74845 0.0
H231 H 0.72754 0.93205 0.75137 0.0
H232 H 0.61436 0.88705 0.81637 0.0
H233 H 0.61575 0.95024 0.81274 0.0
C234 C 0.63204 0.79393 0.8019 0.0
C235 C 0.68441 0.80404 0.8019 0.0
C236 C 0.62719 0.82585 0.79525 0.0
C237 C 0.67461 0.86867 0.78847 0.0
C238 C 0.72656 0.87815 0.78757 0.0
C239 C 0.73137 0.84623 0.79414 0.0
C240 C 0.70366 0.97184 0.76294 0.0
C241 C 0.67272 0.97754 0.78033 0.0
C242 C 0.70269 0.93544 0.7648 0.0
C243 C 0.67097 0.90443 0.78421 0.0
C244 C 0.63857 0.90975 0.80093 0.0
C245 C 0.6395 0.946 0.79899 0.0
H246 H 0.81398 0.55136 0.19371 0.0
H247 H 0.8103 0.43788 0.1907 0.0
H248 H 0.71697 0.50186 0.1758 0.0
H249 H 0.71604 0.38943 0.17033 0.0
H250 H 0.55604 0.3089 0.12309 0.0
H251 H 0.62185 0.34977 0.16231 0.0
H252 H 0.68621 0.47598 0.1317 0.0
H253 H 0.61748 0.43535 0.09448 0.0
C254 C 0.79206 0.51566 0.18987 0.0
C255 C 0.82048 0.49882 0.19252 0.0
C256 C 0.73663 0.48729 0.17912 0.0
C257 C 0.70936 0.44199 0.17018 0.0
C258 C 0.73535 0.42408 0.17648 0.0
C259 C 0.79004 0.45212 0.18789 0.0
C260 C 0.58353 0.34537 0.12514 0.0
C261 C 0.58279 0.36882 0.1051 0.0
C262 C 0.62162 0.3689 0.14756 0.0
C263 C 0.6604 0.41643 0.15019 0.0
C264 C 0.65706 0.43955 0.13085 0.0
C265 C 0.61843 0.4161 0.10886 0.0
H266 H 0.53943 0.92066 0.50011 0.0
H267 H 0.47673 0.93971 0.43028 0.0
H268 H 0.45676 0.8409 0.49646 0.0
H269 H 0.39577 0.85979 0.42562 0.0
H270 H 0.23091 0.72347 0.43495 0.0
H271 H 0.31094 0.80364 0.4432 0.0
H272 H 0.41163 0.77123 0.47231 0.0
H273 H 0.33015 0.69108 0.46537 0.0
C274 C 0.50823 0.90768 0.48379 0.0
C275 C 0.51453 0.93657 0.46555 0.0
C276 C 0.46083 0.86179 0.48158 0.0
C277 C 0.41896 0.84347 0.46081 0.0
C278 C 0.42605 0.87252 0.44234 0.0
C279 C 0.47289 0.91846 0.44483 0.0
C280 C 0.27007 0.73371 0.44345 0.0
C281 C 0.27445 0.70123 0.44956 0.0
C282 C 0.31626 0.77968 0.44793 0.0
C283 C 0.36847 0.79437 0.45808 0.0
C284 C 0.37221 0.76157 0.4648 0.0
C285 C 0.32558 0.71554 0.46078 0.0
H286 H 0.59957 0.29501 0.85489 0.0
H287 H 0.55096 0.28721 0.77203 0.0
H288 H 0.62614 0.24919 0.84125 0.0
H289 H 0.57653 0.24097 0.75852 0.0
H290 H 0.68335 0.20079 0.73993 0.0
H291 H 0.66326 0.24992 0.75572 0.0
H292 H 0.57851 0.16963 0.82276 0.0
H293 H 0.59776 0.11988 0.80674 0.0
C294 C 0.59468 0.28358 0.83379 0.0
C295 C 0.57304 0.29457 0.81454 0.0
C296 C 0.6095 0.25712 0.82602 0.0
C297 C 0.60356 0.24162 0.79882 0.0
C298 C 0.58216 0.25283 0.77959 0.0
C299 C 0.56694 0.27888 0.78737 0.0
C300 C 0.66022 0.19345 0.75798 0.0
C301 C 0.64165 0.1561 0.77191 0.0
C302 C 0.64881 0.22166 0.76704 0.0
C303 C 0.61891 0.21339 0.79034 0.0
C304 C 0.60203 0.17703 0.80485 0.0
C305 C 0.61316 0.1486 0.79569 0.0
H306 H 0.69428 0.8582 0.48199 0.0
H307 H 0.71085 0.88634 0.56854 0.0
H308 H 0.69132 0.79472 0.4873 0.0
H309 H 0.70926 0.82323 0.57383 0.0
H310 H 0.65199 0.67783 0.56982 0.0
H311 H 0.64797 0.73886 0.56674 0.0
H312 H 0.76158 0.78827 0.5018 0.0
H313 H 0.76486 0.72736 0.50487 0.0
C314 C 0.69655 0.85048 0.50218 0.0
C315 C 0.70297 0.87742 0.52484 0.0
C316 C 0.69552 0.81442 0.50521 0.0
C317 C 0.70072 0.80429 0.53098 0.0
C318 C 0.70506 0.83014 0.55372 0.0
C319 C 0.70641 0.86647 0.55068 0.0
C320 C 0.67629 0.70214 0.55512 0.0
C321 C 0.70882 0.69842 0.5376 0.0
C322 C 0.6741 0.73696 0.55335 0.0
C323 C 0.70403 0.7681 0.53384 0.0
C324 C 0.73726 0.7644 0.5167 0.0
C325 C 0.73958 0.72986 0.51858 0.0
H326 H 0.82124 0.6194 0.84762 0.0
H327 H 0.70593 0.47395 0.83853 0.0
H328 H 0.89972 0.61993 0.85323 0.0
H329 H 0.7848 0.47449 0.84433 0.0
H330 H 0.94862 0.4936 0.83514 0.0
H331 H 0.87088 0.49339 0.82471 0.0
H332 H 0.93884 0.60271 0.88639 0.0
H333 H 1.0158 0.60291 0.89655 0.0
C334 C 0.8124 0.5874 0.84668 0.0
C335 C 0.7566 0.54663 0.84269 0.0
C336 C 0.85772 0.5877 0.85009 0.0
C337 C 0.84922 0.54726 0.84943 0.0
C338 C 0.79352 0.50642 0.84479 0.0
C339 C 0.748 0.5061 0.84162 0.0
C340 C 0.94733 0.51801 0.84616 0.0
C341 C 0.9888 0.54828 0.86671 0.0
C342 C 0.90232 0.51759 0.84039 0.0
C343 C 0.89794 0.54798 0.85469 0.0
C344 C 0.94051 0.57902 0.87466 0.0
C345 C 0.98479 0.57901 0.88062 0.0
H346 H 0.35604 0.71095 0.15275 0.0
H347 H 0.25523 0.75026 0.16937 0.0
H348 H 0.44042 0.79032 0.15508 0.0
H349 H 0.33946 0.82928 0.17186 0.0
H350 H 0.49493 0.96883 0.15608 0.0
H351 H 0.41486 0.88901 0.14464 0.0
H352 H 0.49471 0.85224 0.19166 0.0
H353 H 0.57492 0.93185 0.20267 0.0
C354 C 0.35174 0.73643 0.15672 0.0
C355 C 0.29881 0.72416 0.16108 0.0
C356 C 0.40015 0.7819 0.15813 0.0
C357 C 0.39664 0.81609 0.16366 0.0
C358 C 0.34355 0.8038 0.16724 0.0
C359 C 0.29527 0.75842 0.16604 0.0
C360 C 0.49586 0.94364 0.16342 0.0
C361 C 0.54094 0.95653 0.18041 0.0
C362 C 0.44983 0.89798 0.15711 0.0
C363 C 0.44821 0.86431 0.16746 0.0
C364 C 0.49475 0.87728 0.18324 0.0
C365 C 0.54051 0.92287 0.18971 0.0
H366 H 0.69405 0.31752 0.49843 0.0
H367 H 0.52127 0.25427 0.47734 0.0
H368 H 0.71041 0.38511 0.51697 0.0
H369 H 0.53761 0.32177 0.49626 0.0
H370 H 0.57323 0.42977 0.56055 0.0
H371 H 0.55739 0.3627 0.54097 0.0
H372 H 0.71525 0.4471 0.50245 0.0
H373 H 0.73173 0.51418 0.52256 0.0
C374 C 0.6597 0.31818 0.49743 0.0
C375 C 0.60631 0.28037 0.48635 0.0
C376 C 0.66909 0.35693 0.50813 0.0
C377 C 0.62528 0.35876 0.50815 0.0
C378 C 0.57201 0.32115 0.49691 0.0
C379 C 0.56266 0.28246 0.48608 0.0
C380 C 0.60475 0.43398 0.54808 0.0
C381 C 0.65377 0.47727 0.54313 0.0
C382 C 0.59539 0.39557 0.53663 0.0
C383 C 0.635 0.39959 0.52011 0.0
C384 C 0.68414 0.44289 0.51526 0.0
C385 C 0.69334 0.48129 0.52657 0.0
H386 H 0.41063 0.4752 0.85684 0.0
H387 H 0.51756 0.61157 0.8339 0.0
H388 H 0.33318 0.47622 0.86113 0.0
H389 H 0.43954 0.61233 0.83754 0.0
H390 H 0.30193 0.6154 0.86844 0.0
H391 H 0.38076 0.61511 0.86648 0.0
H392 H 0.26552 0.47392 0.83775 0.0
H393 H 0.18719 0.47449 0.84043 0.0
C394 C 0.41773 0.50545 0.85252 0.0
C395 C 0.47092 0.54327 0.84496 0.0
C396 C 0.37283 0.50596 0.85485 0.0
C397 C 0.37916 0.54432 0.84967 0.0
C398 C 0.43253 0.58223 0.84213 0.0
C399 C 0.47752 0.58172 0.83982 0.0
C400 C 0.29354 0.58421 0.86206 0.0
C401 C 0.23818 0.54484 0.85492 0.0
C402 C 0.33891 0.58406 0.86062 0.0
C403 C 0.33038 0.54449 0.85188 0.0
C404 C 0.27447 0.50501 0.845 0.0
C405 C 0.22924 0.50525 0.84646 0.0
H406 H 0.95956 0.45756 0.18984 0.0
H407 H 1.03616 0.41798 0.13823 0.0
H408 H 0.87976 0.37845 0.19415 0.0
H409 H 0.95589 0.33894 0.14215 0.0
H410 H 0.83249 0.20288 0.17604 0.0
H411 H 0.91301 0.28323 0.17491 0.0
H412 H 0.79938 0.31135 0.16816 0.0
H413 H 0.71928 0.23102 0.16979 0.0
C414 C 0.95933 0.43202 0.1793 0.0
C415 C 1.00447 0.4442 0.16375 0.0
C416 C 0.91338 0.38661 0.18169 0.0
C417 C 0.91148 0.35224 0.16865 0.0
C418 C 0.95638 0.36449 0.15287 0.0
C419 C 1.00225 0.40987 0.15043 0.0
C420 C 0.8251 0.22653 0.17474 0.0
C421 C 0.7702 0.21128 0.1732 0.0
C422 C 0.87101 0.2724 0.17381 0.0
C423 C 0.86273 0.3038 0.17123 0.0
C424 C 0.80739 0.28827 0.17041 0.0
C425 C 0.76153 0.24236 0.17131 0.0
H426 H 0.18829 0.58853 0.0848 0.0
H427 H 1.01713 0.53729 0.08172 0.0
H428 H 0.18398 0.57705 0.03568 0.0
H429 H 1.01347 0.52815 0.03275 0.0
H430 H 1.00209 0.48422 0.94607 0.0
H431 H 1.00851 0.48666 -0.00497 0.0
H432 H 0.1835 0.60634 -0.00401 0.0
H433 H 0.17716 0.60223 0.94677 0.0
C434 C 0.1497 0.57474 0.07359 0.0
C435 C 0.10295 0.56362 0.0871 0.0
C436 C 0.14735 0.56855 0.04537 0.0
C437 C 0.09838 0.55165 0.02997 0.0
C438 C 1.05158 0.54032 0.04372 0.0
C439 C 1.05373 0.54591 0.07189 0.0
C440 C 1.04205 0.51067 0.95681 0.0
C441 C 0.08905 0.54315 0.94268 0.0
C442 C 1.04573 0.51239 0.98493 0.0
C443 C 0.0963 0.54717 -0.00023 0.0
C444 C 0.14393 0.57876 0.98543 0.0
C445 C 0.1404 0.57658 0.95718 0.0
H446 H 0.60319 0.06316 0.40342 0.0
H447 H 0.76788 0.10408 0.39287 0.0
H448 H 0.5935 0.06762 0.35566 0.0
H449 H 0.75674 0.10502 0.34454 0.0
H450 H 0.73702 0.1259 0.25905 0.0
H451 H 0.75204 0.1373 0.3081 0.0
H452 H 0.57484 0.02728 0.31549 0.0
H453 H 0.55949 0.01891 0.26721 0.0
C454 C 0.63732 0.07306 0.3908 0.0
C455 C 0.68622 0.08324 0.40181 0.0
C456 C 0.63161 0.07514 0.36327 0.0
C457 C 0.67397 0.08608 0.34587 0.0
C458 C 0.72346 0.0971 0.35715 0.0
C459 C 0.7297 0.09611 0.38486 0.0
C460 C 0.7012 0.10493 0.27126 0.0
C461 C 0.64721 0.07096 0.25909 0.0
C462 C 0.70988 0.11098 0.29942 0.0
C463 C 0.66484 0.08295 0.31603 0.0
C464 C 0.61069 0.05008 0.30371 0.0
C465 C 0.60195 0.04462 0.27577 0.0
H466 H 0.69466 0.58466 0.76718 0.0
H467 H 0.51783 0.51229 0.7507 0.0
H468 H 0.71111 0.59717 0.71933 0.0
H469 H 0.5342 0.52576 0.70328 0.0
H470 H 0.56984 0.49381 0.61983 0.0
H471 H 0.55542 0.49428 0.66779 0.0
H472 H 0.71035 0.63198 0.68004 0.0
H473 H 0.72564 0.63091 0.63175 0.0
C474 C 0.65959 0.57231 0.75341 0.0
C475 C 0.60485 0.54686 0.76248 0.0
C476 C 0.66897 0.57961 0.72604 0.0
C477 C 0.62377 0.56178 0.70737 0.0
C478 C 0.56972 0.53899 0.71696 0.0
C479 C 0.56036 0.53146 0.74416 0.0
C480 C 0.60077 0.52426 0.63272 0.0
C481 C 0.64907 0.56219 0.62203 0.0
C482 C 0.59223 0.52474 0.66022 0.0
C483 C 0.6317 0.56323 0.67783 0.0
C484 C 0.67938 0.6017 0.66706 0.0
C485 C 0.68785 0.60125 0.63939 0.0
H486 H 0.53878 0.0174 0.55206 0.0
H487 H 0.71938 0.12045 0.55543 0.0
H488 H 0.54206 0.00901 0.59985 0.0
H489 H 0.72283 0.11353 0.60372 0.0
H490 H 0.71589 0.07701 0.6889 0.0
H491 H 0.70963 0.06897 0.63948 0.0
H492 H 0.55794 0.0525 0.64004 0.0
H493 H 0.56306 0.05854 0.68894 0.0
C494 C 0.57925 0.03829 0.56311 0.0
C495 C 0.62876 0.07001 0.55022 0.0
C496 C 0.58116 0.0336 0.59052 0.0
C497 C 0.63262 0.06103 0.60581 0.0
C498 C 0.68249 0.09156 0.59257 0.0
C499 C 0.68057 0.09584 0.56498 0.0
C500 C 0.68054 0.07052 0.67835 0.0
C501 C 0.64025 0.06882 0.69275 0.0
C502 C 0.67729 0.06648 0.65007 0.0
C503 C 0.63356 0.06047 0.6357 0.0
C504 C 0.59191 0.05661 0.65028 0.0
C505 C 0.59511 0.06054 0.67839 0.0
H506 H 0.52728 0.48323 0.90144 0.0
H507 H 0.70282 0.56315 0.92581 0.0
H508 H 0.50215 0.43161 0.93508 0.0
H509 H 0.67755 0.5126 0.96089 0.0
H510 H 0.61562 0.38689 0.00253 0.0
H511 H 0.64284 0.43826 0.96768 0.0
H512 H 0.49605 0.42614 0.98158 0.0
H513 H 0.46828 0.37392 0.01533 0.0
C514 C 0.56051 0.49001 0.91429 0.0
C515 C 0.617 0.52697 0.91094 0.0
C516 C 0.54609 0.46057 0.93376 0.0
C517 C 0.58776 0.46786 0.95083 0.0
C518 C 0.64442 0.50554 0.94783 0.0
C519 C 0.65892 0.53482 0.928 0.0
C520 C 0.58903 0.39492 -0.00227 0.0
C521 C 0.53932 0.37579 0.01114 0.0
C522 C 0.60482 0.42465 0.97803 0.0
C523 C 0.57156 0.43629 0.9717 0.0
C524 C 0.52203 0.41719 0.98537 0.0
C525 C 0.50597 0.38714 0.00471 0.0
H526 H 0.18535 0.63282 0.24028 0.0
H527 H 0.11842 0.49481 0.23702 0.0
H528 H 0.17462 0.63327 0.28871 0.0
H529 H 0.10488 0.49417 0.2854 0.0
H530 H 0.16593 0.53346 0.37565 0.0
H531 H 0.15777 0.5226 0.32655 0.0
H532 H 0.11433 0.60852 0.32416 0.0
H533 H 0.12535 0.62087 0.37326 0.0
C534 C 0.1675 0.60233 0.24993 0.0
C535 C 0.15335 0.56398 0.23501 0.0
C536 C 0.16077 0.60234 0.27771 0.0
C537 C 0.13887 0.56372 0.29119 0.0
C538 C 0.12286 0.52481 0.27592 0.0
C539 C 0.13037 0.52505 0.24817 0.0
C540 C 0.15339 0.54911 0.36456 0.0
C541 C 0.14655 0.57815 0.37814 0.0
C542 C 0.14862 0.54292 0.33637 0.0
C543 C 0.1362 0.56523 0.32117 0.0
C544 C 0.1255 0.59179 0.33504 0.0
C545 C 0.13116 0.59851 0.36318 0.0
loop_
_geom_bond_atom_site_label_1
_geom_bond_atom_site_label_2
_geom_bond_distance
_geom_bond_site_symmetry_2
_ccdc_geom_bond_type
Gd0 C3 2.818 . S
Gd0 O20 2.377 . S
Gd0 O22 2.448 . S
Gd0 O23 2.506 . S
Gd0 O24 2.435 . S
Gd0 O25 2.717 . S
Gd0 O27 2.395 1_455 S
Gd0 O31 2.327 . S
Gd1 C12 2.818 1_455 S
Gd1 O21 2.395 . S
Gd1 O25 2.327 . S
Gd1 O26 2.377 1_455 S
Gd1 O28 2.448 1_455 S
Gd1 O29 2.506 1_455 S
Gd1 O30 2.435 . S
Gd1 O31 2.717 . S
C2 O20 1.240 . S
C2 O21 1.240 . S
C3 Gd0 2.818 . S
C3 C4 1.510 . S
C3 O22 1.249 . S
C3 O23 1.252 . S
C4 C3 1.510 . S
C4 C5 1.404 . S
C4 C6 1.352 . S
C5 C4 1.404 . S
C5 C9 1.389 . S
C5 H32 0.930 . S
C6 C4 1.352 . S
C6 C8 1.374 . S
C6 H33 0.931 . S
C7 C8 1.359 . S
C7 C9 1.364 . S
C8 C6 1.374 . S
C8 C7 1.359 . S
C8 H34 0.931 . S
C9 C5 1.389 . S
C9 C7 1.364 . S
C9 H35 0.931 . S
C10 O24 1.256 . S
C10 O25 1.257 . S
C11 O26 1.240 . S
C11 O27 1.240 . S
C12 Gd1 2.818 1_655 S
C12 C13 1.510 . S
C12 O28 1.249 . S
C12 O29 1.252 . S
C13 C12 1.510 . S
C13 C14 1.404 . S
C13 C15 1.352 . S
C14 C13 1.404 . S
C14 C18 1.389 . S
C14 H36 0.930 . S
C15 C13 1.352 . S
C15 C17 1.374 . S
C15 H37 0.931 . S
C16 C17 1.359 . S
C16 C18 1.364 . S
C17 C15 1.374 . S
C17 C16 1.359 . S
C17 H38 0.931 . S
C18 C14 1.389 . S
C18 C16 1.364 . S
C18 H39 0.931 . S
C19 O30 1.256 . S
C19 O31 1.257 . S
O20 Gd0 2.377 . S
O20 C2 1.240 . S
O21 Gd1 2.395 . S
O21 C2 1.240 . S
O22 Gd0 2.448 . S
O22 C3 1.249 . S
O23 Gd0 2.506 . S
O23 C3 1.252 . S
O24 Gd0 2.435 . S
O24 C10 1.256 . S
O25 Gd0 2.717 . S
O25 Gd1 2.327 . S
O25 C10 1.257 . S
O26 Gd1 2.377 1_655 S
O26 C11 1.240 . S
O27 Gd0 2.395 1_655 S
O27 C11 1.240 . S
O28 Gd1 2.448 1_655 S
O28 C12 1.249 . S
O29 Gd1 2.506 1_655 S
O29 C12 1.252 . S
O30 Gd1 2.435 . S
O30 C19 1.256 . S
O31 Gd0 2.327 . S
O31 Gd1 2.717 . S
O31 C19 1.257 . S
H32 C5 0.930 . S
H33 C6 0.931 . S
H34 C8 0.931 . S
H35 C9 0.931 . S
H36 C14 0.930 . S
H37 C15 0.931 . S
H38 C17 0.931 . S
H39 C18 0.931 . S
Gd40 C43 2.818 1_545 S
Gd40 O60 2.377 1_545 S
Gd40 O62 2.448 1_545 S
Gd40 O63 2.506 1_545 S
Gd40 O64 2.435 . S
Gd40 O65 2.717 . S
Gd40 O67 2.395 . S
Gd40 O71 2.327 . S
Gd41 C52 2.818 . S
Gd41 O61 2.395 1_545 S
Gd41 O65 2.327 . S
Gd41 O66 2.377 . S
Gd41 O68 2.448 . S
Gd41 O69 2.506 . S
Gd41 O70 2.435 . S
Gd41 O71 2.717 . S
C42 O60 1.240 . S
C42 O61 1.240 . S
C43 Gd40 2.818 1_565 S
C43 C44 1.510 . S
C43 O62 1.249 . S
C43 O63 1.252 . S
C44 C43 1.510 . S
C44 C45 1.404 . S
C44 C46 1.352 . S
C45 C44 1.404 . S
C45 C49 1.389 . S
C45 H72 0.930 . S
C46 C44 1.352 . S
C46 C48 1.374 . S
C46 H73 0.931 . S
C47 C48 1.359 . S
C47 C49 1.364 . S
C48 C46 1.374 . S
C48 C47 1.359 . S
C48 H74 0.931 . S
C49 C45 1.389 . S
C49 C47 1.364 . S
C49 H75 0.931 . S
C50 O64 1.256 . S
C50 O65 1.257 . S
C51 O66 1.240 . S
C51 O67 1.240 . S
C52 Gd41 2.818 . S
C52 C53 1.510 . S
C52 O68 1.249 . S
C52 O69 1.252 . S
C53 C52 1.510 . S
C53 C54 1.404 . S
C53 C55 1.352 . S
C54 C53 1.404 . S
C54 C58 1.389 . S
C54 H76 0.930 . S
C55 C53 1.352 . S
C55 C57 1.374 . S
C55 H77 0.931 . S
C56 C57 1.359 . S
C56 C58 1.364 . S
C57 C55 1.374 . S
C57 C56 1.359 . S
C57 H78 0.931 . S
C58 C54 1.389 . S
C58 C56 1.364 . S
C58 H79 0.931 . S
C59 O70 1.256 . S
C59 O71 1.257 . S
O60 Gd40 2.377 1_565 S
O60 C42 1.240 . S
O61 Gd41 2.395 1_565 S
O61 C42 1.240 . S
O62 Gd40 2.448 1_565 S
O62 C43 1.249 . S
O63 Gd40 2.506 1_565 S
O63 C43 1.252 . S
O64 Gd40 2.435 . S
O64 C50 1.256 . S
O65 Gd40 2.717 . S
O65 Gd41 2.327 . S
O65 C50 1.257 . S
O66 Gd41 2.377 . S
O66 C51 1.240 . S
O67 Gd40 2.395 . S
O67 C51 1.240 . S
O68 Gd41 2.448 . S
O68 C52 1.249 . S
O69 Gd41 2.506 . S
O69 C52 1.252 . S
O70 Gd41 2.435 . S
O70 C59 1.256 . S
O71 Gd40 2.327 . S
O71 Gd41 2.717 . S
O71 C59 1.257 . S
H72 C45 0.930 . S
H73 C46 0.931 . S
H74 C48 0.931 . S
H75 C49 0.931 . S
H76 C54 0.930 . S
H77 C55 0.931 . S
H78 C57 0.931 . S
H79 C58 0.931 . S
Gd80 C83 2.818 . S
Gd80 O100 2.377 . S
Gd80 O102 2.448 . S
Gd80 O103 2.506 . S
Gd80 O104 2.435 . S
Gd80 O105 2.717 . S
Gd80 O107 2.395 . S
Gd80 O111 2.327 . S
Gd81 C92 2.818 . S
Gd81 O101 2.395 . S
Gd81 O105 2.327 . S
Gd81 O106 2.377 . S
Gd81 O108 2.448 . S
Gd81 O109 2.506 . S
Gd81 O110 2.435 . S
Gd81 O111 2.717 . S
C82 O100 1.240 . S
C82 O101 1.240 . S
C83 Gd80 2.818 . S
C83 C84 1.510 . S
C83 O102 1.249 . S
C83 O103 1.252 . S
C84 C83 1.510 . S
C84 C85 1.404 . S
C84 C86 1.352 . S
C85 C84 1.404 . S
C85 C89 1.389 . S
C85 H112 0.930 . S
C86 C84 1.352 . S
C86 C88 1.374 . S
C86 H113 0.931 . S
C87 C88 1.359 . S
C87 C89 1.364 . S
C88 C86 1.374 . S
C88 C87 1.359 . S
C88 H114 0.931 . S
C89 C85 1.389 . S
C89 C87 1.364 . S
C89 H115 0.931 . S
C90 O104 1.256 . S
C90 O105 1.257 . S
C91 O106 1.240 . S
C91 O107 1.240 . S
C92 Gd81 2.818 . S
C92 C93 1.510 . S
C92 O108 1.249 . S
C92 O109 1.252 . S
C93 C92 1.510 . S
C93 C94 1.404 . S
C93 C95 1.352 . S
C94 C93 1.404 . S
C94 C98 1.389 . S
C94 H116 0.930 . S
C95 C93 1.352 . S
C95 C97 1.374 . S
C95 H117 0.931 . S
C96 C97 1.359 . S
C96 C98 1.364 . S
C97 C95 1.374 . S
C97 C96 1.359 . S
C97 H118 0.931 . S
C98 C94 1.389 . S
C98 C96 1.364 . S
C98 H119 0.931 . S
C99 O110 1.256 . S
C99 O111 1.257 . S
O100 Gd80 2.377 . S
O100 C82 1.240 . S
O101 Gd81 2.395 . S
O101 C82 1.240 . S
O102 Gd80 2.448 . S
O102 C83 1.249 . S
O103 Gd80 2.506 . S
O103 C83 1.252 . S
O104 Gd80 2.435 . S
O104 C90 1.256 . S
O105 Gd80 2.717 . S
O105 Gd81 2.327 . S
O105 C90 1.257 . S
O106 Gd81 2.377 . S
O106 C91 1.240 . S
O107 Gd80 2.395 . S
O107 C91 1.240 . S
O108 Gd81 2.448 . S
O108 C92 1.249 . S
O109 Gd81 2.506 . S
O109 C92 1.252 . S
O110 Gd81 2.435 . S
O110 C99 1.256 . S
O111 Gd80 2.327 . S
O111 Gd81 2.717 . S
O111 C99 1.257 . S
H112 C85 0.930 . S
H113 C86 0.931 . S
H114 C88 0.931 . S
H115 C89 0.931 . S
H116 C94 0.930 . S
H117 C95 0.931 . S
H118 C97 0.931 . S
H119 C98 0.931 . S
H120 C123 0.929 1_565 S
H121 C126 0.929 . S
H122 C128 0.930 . S
C123 H120 0.929 1_545 S
C123 C124 1.398 1_545 S
C123 C125 1.396 . S
C124 C123 1.398 1_565 S
C124 C128 1.407 1_565 S
C125 C123 1.396 . S
C125 C126 1.394 . S
C126 H121 0.929 . S
C126 C125 1.394 . S
C126 C127 1.382 . S
C127 C126 1.382 . S
C127 C128 1.392 . S
C127 N129 1.420 . S
C128 H122 0.930 . S
C128 C124 1.407 1_545 S
C128 C127 1.392 . S
N129 C127 1.420 . S
N129 C130 1.244 . S
C130 N129 1.244 . S
H131 C134 0.929 . S
H132 C137 0.929 . S
H133 C139 0.930 . S
C134 H131 0.929 . S
C134 C135 1.398 . S
C134 C136 1.396 . S
C135 C134 1.398 . S
C135 C139 1.407 . S
C136 C134 1.396 . S
C136 C137 1.394 . S
C137 H132 0.929 . S
C137 C136 1.394 . S
C137 C138 1.382 . S
C138 C137 1.382 . S
C138 C139 1.392 . S
C138 N140 1.420 . S
C139 H133 0.930 . S
C139 C135 1.407 . S
C139 C138 1.392 . S
N140 C138 1.420 . S
N140 C141 1.244 . S
C141 N140 1.244 . S
H142 C145 0.929 . S
H143 C148 0.929 . S
H144 C150 0.930 . S
C145 H142 0.929 . S
C145 C146 1.398 . S
C145 C147 1.396 . S
C146 C145 1.398 . S
C146 C150 1.407 . S
C147 C145 1.396 . S
C147 C148 1.394 . S
C148 H143 0.929 . S
C148 C147 1.394 . S
C148 C149 1.382 . S
C149 C148 1.382 . S
C149 C150 1.392 . S
C149 N151 1.420 . S
C150 H144 0.930 . S
C150 C146 1.407 . S
C150 C149 1.392 . S
N151 C149 1.420 . S
N151 C152 1.244 . S
C152 N151 1.244 . S
H153 C156 0.929 . S
H154 C159 0.929 . S
H155 C161 0.930 . S
C156 H153 0.929 . S
C156 C157 1.398 . S
C156 C158 1.396 . S
C157 C156 1.398 . S
C157 C161 1.407 . S
C158 C156 1.396 . S
C158 C159 1.394 1_455 S
C159 H154 0.929 . S
C159 C158 1.394 1_655 S
C159 C160 1.382 . S
C160 C159 1.382 . S
C160 C161 1.392 1_655 S
C160 N162 1.420 . S
C161 H155 0.930 . S
C161 C157 1.407 . S
C161 C160 1.392 1_455 S
N162 C160 1.420 . S
N162 C163 1.244 . S
C163 N162 1.244 . S
H164 C167 0.929 . S
H165 C170 0.929 1_565 S
H166 C172 0.930 . S
C167 H164 0.929 . S
C167 C168 1.398 . S
C167 C169 1.396 . S
C168 C167 1.398 . S
C168 C172 1.407 . S
C169 C167 1.396 . S
C169 C170 1.394 . S
C170 H165 0.929 1_545 S
C170 C169 1.394 . S
C170 C171 1.382 . S
C171 C170 1.382 . S
C171 C172 1.392 . S
C171 N173 1.420 . S
C172 H166 0.930 . S
C172 C168 1.407 . S
C172 C171 1.392 . S
N173 C171 1.420 . S
N173 C174 1.244 1_545 S
C174 N173 1.244 1_565 S
H175 C178 0.929 . S
H176 C181 0.929 . S
H177 C183 0.930 . S
C178 H175 0.929 . S
C178 C179 1.398 . S
C178 C180 1.396 . S
C179 C178 1.398 . S
C179 C183 1.407 . S
C180 C178 1.396 . S
C180 C181 1.394 . S
C181 H176 0.929 . S
C181 C180 1.394 . S
C181 C182 1.382 . S
C182 C181 1.382 . S
C182 C183 1.392 . S
C182 N184 1.420 . S
C183 H177 0.930 . S
C183 C179 1.407 . S
C183 C182 1.392 . S
N184 C182 1.420 . S
N184 C185 1.244 . S
C185 N184 1.244 . S
H186 C194 0.950 . S
H187 C199 0.950 . S
H188 C196 0.950 . S
H189 C198 0.950 . S
H190 C200 0.950 . S
H191 C202 0.950 . S
H192 C204 0.950 . S
H193 C205 0.950 . S
C194 H186 0.950 . S
C194 C195 1.386 . S
C194 C196 1.391 . S
C195 C194 1.386 . S
C195 C199 1.393 . S
C196 H188 0.950 . S
C196 C194 1.391 . S
C196 C197 1.400 . S
C197 C196 1.400 . S
C197 C198 1.398 . S
C197 C203 1.491 . S
C198 H189 0.950 . S
C198 C197 1.398 . S
C198 C199 1.391 . S
C199 H187 0.950 . S
C199 C195 1.393 . S
C199 C198 1.391 . S
C200 H190 0.950 . S
C200 C201 1.386 . S
C200 C202 1.391 . S
C201 C200 1.386 . S
C201 C205 1.393 . S
C202 H191 0.950 . S
C202 C200 1.391 . S
C202 C203 1.400 . S
C203 C197 1.491 . S
C203 C202 1.400 . S
C203 C204 1.398 . S
C204 H192 0.950 . S
C204 C203 1.398 . S
C204 C205 1.391 . S
C205 H193 0.950 . S
C205 C201 1.393 . S
C205 C204 1.391 . S
H206 C214 0.950 . S
H207 C219 0.950 . S
H208 C216 0.950 . S
H209 C218 0.950 . S
H210 C220 0.950 . S
H211 C222 0.950 . S
H212 C224 0.950 . S
H213 C225 0.950 . S
C214 H206 0.950 . S
C214 C215 1.386 . S
C214 C216 1.391 . S
C215 C214 1.386 . S
C215 C219 1.393 . S
C216 H208 0.950 . S
C216 C214 1.391 . S
C216 C217 1.400 . S
C217 C216 1.400 . S
C217 C218 1.398 . S
C217 C223 1.491 . S
C218 H209 0.950 . S
C218 C217 1.398 . S
C218 C219 1.391 . S
C219 H207 0.950 . S
C219 C215 1.393 . S
C219 C218 1.391 . S
C220 H210 0.950 . S
C220 C221 1.386 . S
C220 C222 1.391 . S
C221 C220 1.386 . S
C221 C225 1.393 . S
C222 H211 0.950 . S
C222 C220 1.391 . S
C222 C223 1.400 . S
C223 C217 1.491 . S
C223 C222 1.400 . S
C223 C224 1.398 . S
C224 H212 0.950 . S
C224 C223 1.398 . S
C224 C225 1.391 . S
C225 H213 0.950 . S
C225 C221 1.393 . S
C225 C224 1.391 . S
H226 C234 0.950 . S
H227 C239 0.950 . S
H228 C236 0.950 . S
H229 C238 0.950 . S
H230 C240 0.950 . S
H231 C242 0.950 . S
H232 C244 0.950 . S
H233 C245 0.950 . S
C234 H226 0.950 . S
C234 C235 1.386 . S
C234 C236 1.391 . S
C235 C234 1.386 . S
C235 C239 1.393 . S
C236 H228 0.950 . S
C236 C234 1.391 . S
C236 C237 1.400 . S
C237 C236 1.400 . S
C237 C238 1.398 . S
C237 C243 1.491 . S
C238 H229 0.950 . S
C238 C237 1.398 . S
C238 C239 1.391 . S
C239 H227 0.950 . S
C239 C235 1.393 . S
C239 C238 1.391 . S
C240 H230 0.950 . S
C240 C241 1.386 . S
C240 C242 1.391 . S
C241 C240 1.386 . S
C241 C245 1.393 . S
C242 H231 0.950 . S
C242 C240 1.391 . S
C242 C243 1.400 . S
C243 C237 1.491 . S
C243 C242 1.400 . S
C243 C244 1.398 . S
C244 H232 0.950 . S
C244 C243 1.398 . S
C244 C245 1.391 . S
C245 H233 0.950 . S
C245 C241 1.393 . S
C245 C244 1.391 . S
H246 C254 0.950 . S
H247 C259 0.950 . S
H248 C256 0.950 . S
H249 C258 0.950 . S
H250 C260 0.950 . S
H251 C262 0.950 . S
H252 C264 0.950 . S
H253 C265 0.950 . S
C254 H246 0.950 . S
C254 C255 1.386 . S
C254 C256 1.391 . S
C255 C254 1.386 . S
C255 C259 1.393 . S
C256 H248 0.950 . S
C256 C254 1.391 . S
C256 C257 1.400 . S
C257 C256 1.400 . S
C257 C258 1.398 . S
C257 C263 1.491 . S
C258 H249 0.950 . S
C258 C257 1.398 . S
C258 C259 1.391 . S
C259 H247 0.950 . S
C259 C255 1.393 . S
C259 C258 1.391 . S
C260 H250 0.950 . S
C260 C261 1.386 . S
C260 C262 1.391 . S
C261 C260 1.386 . S
C261 C265 1.393 . S
C262 H251 0.950 . S
C262 C260 1.391 . S
C262 C263 1.400 . S
C263 C257 1.491 . S
C263 C262 1.400 . S
C263 C264 1.398 . S
C264 H252 0.950 . S
C264 C263 1.398 . S
C264 C265 1.391 . S
C265 H253 0.950 . S
C265 C261 1.393 . S
C265 C264 1.391 . S
H266 C274 0.950 . S
H267 C279 0.950 . S
H268 C276 0.950 . S
H269 C278 0.950 . S
H270 C280 0.950 . S
H271 C282 0.950 . S
H272 C284 0.950 . S
H273 C285 0.950 . S
C274 H266 0.950 . S
C274 C275 1.386 . S
C274 C276 1.391 . S
C275 C274 1.386 . S
C275 C279 1.393 . S
C276 H268 0.950 . S
C276 C274 1.391 . S
C276 C277 1.400 . S
C277 C276 1.400 . S
C277 C278 1.398 . S
C277 C283 1.491 . S
C278 H269 0.950 . S
C278 C277 1.398 . S
C278 C279 1.391 . S
C279 H267 0.950 . S
C279 C275 1.393 . S
C279 C278 1.391 . S
C280 H270 0.950 . S
C280 C281 1.386 . S
C280 C282 1.391 . S
C281 C280 1.386 . S
C281 C285 1.393 . S
C282 H271 0.950 . S
C282 C280 1.391 . S
C282 C283 1.400 . S
C283 C277 1.491 . S
C283 C282 1.400 . S
C283 C284 1.398 . S
C284 H272 0.950 . S
C284 C283 1.398 . S
C284 C285 1.391 . S
C285 H273 0.950 . S
C285 C281 1.393 . S
C285 C284 1.391 . S
H286 C294 0.950 . S
H287 C299 0.950 . S
H288 C296 0.950 . S
H289 C298 0.950 . S
H290 C300 0.950 . S
H291 C302 0.950 . S
H292 C304 0.950 . S
H293 C305 0.950 . S
C294 H286 0.950 . S
C294 C295 1.386 . S
C294 C296 1.391 . S
C295 C294 1.386 . S
C295 C299 1.393 . S
C296 H288 0.950 . S
C296 C294 1.391 . S
C296 C297 1.400 . S
C297 C296 1.400 . S
C297 C298 1.398 . S
C297 C303 1.491 . S
C298 H289 0.950 . S
C298 C297 1.398 . S
C298 C299 1.391 . S
C299 H287 0.950 . S
C299 C295 1.393 . S
C299 C298 1.391 . S
C300 H290 0.950 . S
C300 C301 1.386 . S
C300 C302 1.391 . S
C301 C300 1.386 . S
C301 C305 1.393 . S
C302 H291 0.950 . S
C302 C300 1.391 . S
C302 C303 1.400 . S
C303 C297 1.491 . S
C303 C302 1.400 . S
C303 C304 1.398 . S
C304 H292 0.950 . S
C304 C303 1.398 . S
C304 C305 1.391 . S
C305 H293 0.950 . S
C305 C301 1.393 . S
C305 C304 1.391 . S
H306 C314 0.950 . S
H307 C319 0.950 . S
H308 C316 0.950 . S
H309 C318 0.950 . S
H310 C320 0.950 . S
H311 C322 0.950 . S
H312 C324 0.950 . S
H313 C325 0.950 . S
C314 H306 0.950 . S
C314 C315 1.386 . S
C314 C316 1.391 . S
C315 C314 1.386 . S
C315 C319 1.393 . S
C316 H308 0.950 . S
C316 C314 1.391 . S
C316 C317 1.400 . S
C317 C316 1.400 . S
C317 C318 1.398 . S
C317 C323 1.491 . S
C318 H309 0.950 . S
C318 C317 1.398 . S
C318 C319 1.391 . S
C319 H307 0.950 . S
C319 C315 1.393 . S
C319 C318 1.391 . S
C320 H310 0.950 . S
C320 C321 1.386 . S
C320 C322 1.391 . S
C321 C320 1.386 . S
C321 C325 1.393 . S
C322 H311 0.950 . S
C322 C320 1.391 . S
C322 C323 1.400 . S
C323 C317 1.491 . S
C323 C322 1.400 . S
C323 C324 1.398 . S
C324 H312 0.950 . S
C324 C323 1.398 . S
C324 C325 1.391 . S
C325 H313 0.950 . S
C325 C321 1.393 . S
C325 C324 1.391 . S
H326 C334 0.950 . S
H327 C339 0.950 . S
H328 C336 0.950 . S
H329 C338 0.950 . S
H330 C340 0.950 . S
H331 C342 0.950 . S
H332 C344 0.950 . S
H333 C345 0.950 . S
C334 H326 0.950 . S
C334 C335 1.386 . S
C334 C336 1.391 . S
C335 C334 1.386 . S
C335 C339 1.393 . S
C336 H328 0.950 . S
C336 C334 1.391 . S
C336 C337 1.400 . S
C337 C336 1.400 . S
C337 C338 1.398 . S
C337 C343 1.491 . S
C338 H329 0.950 . S
C338 C337 1.398 . S
C338 C339 1.391 . S
C339 H327 0.950 . S
C339 C335 1.393 . S
C339 C338 1.391 . S
C340 H330 0.950 . S
C340 C341 1.386 . S
C340 C342 1.391 . S
C341 C340 1.386 . S
C341 C345 1.393 . S
C342 H331 0.950 . S
C342 C340 1.391 . S
C342 C343 1.400 . S
C343 C337 1.491 . S
C343 C342 1.400 . S
C343 C344 1.398 . S
C344 H332 0.950 . S
C344 C343 1.398 . S
C344 C345 1.391 . S
C345 H333 0.950 . S
C345 C341 1.393 . S
C345 C344 1.391 . S
H346 C354 0.950 . S
H347 C359 0.950 . S
H348 C356 0.950 . S
H349 C358 0.950 . S
H350 C360 0.950 . S
H351 C362 0.950 . S
H352 C364 0.950 . S
H353 C365 0.950 . S
C354 H346 0.950 . S
C354 C355 1.386 . S
C354 C356 1.391 . S
C355 C354 1.386 . S
C355 C359 1.393 . S
C356 H348 0.950 . S
C356 C354 1.391 . S
C356 C357 1.400 . S
C357 C356 1.400 . S
C357 C358 1.398 . S
C357 C363 1.491 . S
C358 H349 0.950 . S
C358 C357 1.398 . S
C358 C359 1.391 . S
C359 H347 0.950 . S
C359 C355 1.393 . S
C359 C358 1.391 . S
C360 H350 0.950 . S
C360 C361 1.386 . S
C360 C362 1.391 . S
C361 C360 1.386 . S
C361 C365 1.393 . S
C362 H351 0.950 . S
C362 C360 1.391 . S
C362 C363 1.400 . S
C363 C357 1.491 . S
C363 C362 1.400 . S
C363 C364 1.398 . S
C364 H352 0.950 . S
C364 C363 1.398 . S
C364 C365 1.391 . S
C365 H353 0.950 . S
C365 C361 1.393 . S
C365 C364 1.391 . S
H366 C374 0.950 . S
H367 C379 0.950 . S
H368 C376 0.950 . S
H369 C378 0.950 . S
H370 C380 0.950 . S
H371 C382 0.950 . S
H372 C384 0.950 . S
H373 C385 0.950 . S
C374 H366 0.950 . S
C374 C375 1.386 . S
C374 C376 1.391 . S
C375 C374 1.386 . S
C375 C379 1.393 . S
C376 H368 0.950 . S
C376 C374 1.391 . S
C376 C377 1.400 . S
C377 C376 1.400 . S
C377 C378 1.398 . S
C377 C383 1.491 . S
C378 H369 0.950 . S
C378 C377 1.398 . S
C378 C379 1.391 . S
C379 H367 0.950 . S
C379 C375 1.393 . S
C379 C378 1.391 . S
C380 H370 0.950 . S
C380 C381 1.386 . S
C380 C382 1.391 . S
C381 C380 1.386 . S
C381 C385 1.393 . S
C382 H371 0.950 . S
C382 C380 1.391 . S
C382 C383 1.400 . S
C383 C377 1.491 . S
C383 C382 1.400 . S
C383 C384 1.398 . S
C384 H372 0.950 . S
C384 C383 1.398 . S
C384 C385 1.391 . S
C385 H373 0.950 . S
C385 C381 1.393 . S
C385 C384 1.391 . S
H386 C394 0.950 . S
H387 C399 0.950 . S
H388 C396 0.950 . S
H389 C398 0.950 . S
H390 C400 0.950 . S
H391 C402 0.950 . S
H392 C404 0.950 . S
H393 C405 0.950 . S
C394 H386 0.950 . S
C394 C395 1.386 . S
C394 C396 1.391 . S
C395 C394 1.386 . S
C395 C399 1.393 . S
C396 H388 0.950 . S
C396 C394 1.391 . S
C396 C397 1.400 . S
C397 C396 1.400 . S
C397 C398 1.398 . S
C397 C403 1.491 . S
C398 H389 0.950 . S
C398 C397 1.398 . S
C398 C399 1.391 . S
C399 H387 0.950 . S
C399 C395 1.393 . S
C399 C398 1.391 . S
C400 H390 0.950 . S
C400 C401 1.386 . S
C400 C402 1.391 . S
C401 C400 1.386 . S
C401 C405 1.393 . S
C402 H391 0.950 . S
C402 C400 1.391 . S
C402 C403 1.400 . S
C403 C397 1.491 . S
C403 C402 1.400 . S
C403 C404 1.398 . S
C404 H392 0.950 . S
C404 C403 1.398 . S
C404 C405 1.391 . S
C405 H393 0.950 . S
C405 C401 1.393 . S
C405 C404 1.391 . S
H406 C414 0.950 . S
H407 C419 0.950 . S
H408 C416 0.950 . S
H409 C418 0.950 . S
H410 C420 0.950 . S
H411 C422 0.950 . S
H412 C424 0.950 . S
H413 C425 0.950 . S
C414 H406 0.950 . S
C414 C415 1.386 . S
C414 C416 1.391 . S
C415 C414 1.386 . S
C415 C419 1.393 . S
C416 H408 0.950 . S
C416 C414 1.391 . S
C416 C417 1.400 . S
C417 C416 1.400 . S
C417 C418 1.398 . S
C417 C423 1.491 . S
C418 H409 0.950 . S
C418 C417 1.398 . S
C418 C419 1.391 . S
C419 H407 0.950 . S
C419 C415 1.393 . S
C419 C418 1.391 . S
C420 H410 0.950 . S
C420 C421 1.386 . S
C420 C422 1.391 . S
C421 C420 1.386 . S
C421 C425 1.393 . S
C422 H411 0.950 . S
C422 C420 1.391 . S
C422 C423 1.400 . S
C423 C417 1.491 . S
C423 C422 1.400 . S
C423 C424 1.398 . S
C424 H412 0.950 . S
C424 C423 1.398 . S
C424 C425 1.391 . S
C425 H413 0.950 . S
C425 C421 1.393 . S
C425 C424 1.391 . S
H426 C434 0.950 . S
H427 C439 0.950 1_655 S
H428 C436 0.950 . S
H429 C438 0.950 1_655 S
H430 C440 0.950 1_655 S
H431 C442 0.950 1_655 S
H432 C444 0.971 . S
H433 C445 0.950 . S
C434 H426 0.950 . S
C434 C435 1.386 . S
C434 C436 1.391 . S
C435 C434 1.386 . S
C435 C439 1.393 . S
C436 H428 0.950 . S
C436 C434 1.391 . S
C436 C437 1.400 . S
C437 C436 1.400 . S
C437 C438 1.398 . S
C437 C443 1.491 1_554 S
C438 H429 0.950 1_455 S
C438 C437 1.398 . S
C438 C439 1.391 . S
C439 H427 0.950 1_455 S
C439 C435 1.393 . S
C439 C438 1.391 . S
C440 H430 0.950 1_455 S
C440 C441 1.386 . S
C440 C442 1.391 . S
C441 C440 1.386 . S
C441 C445 1.393 . S
C442 H431 0.950 1_455 S
C442 C440 1.391 . S
C442 C443 1.400 . S
C443 C437 1.491 1_556 S
C443 C442 1.400 . S
C443 C444 1.398 . S
C444 H432 0.971 . S
C444 C443 1.398 . S
C444 C445 1.391 . S
C445 H433 0.950 . S
C445 C441 1.393 . S
C445 C444 1.391 . S
H446 C454 0.950 . S
H447 C459 0.950 . S
H448 C456 0.950 . S
H449 C458 0.950 . S
H450 C460 0.950 . S
H451 C462 0.950 . S
H452 C464 0.950 . S
H453 C465 0.950 . S
C454 H446 0.950 . S
C454 C455 1.386 . S
C454 C456 1.391 . S
C455 C454 1.386 . S
C455 C459 1.393 . S
C456 H448 0.950 . S
C456 C454 1.391 . S
C456 C457 1.400 . S
C457 C456 1.400 . S
C457 C458 1.398 . S
C457 C463 1.491 . S
C458 H449 0.950 . S
C458 C457 1.398 . S
C458 C459 1.391 . S
C459 H447 0.950 . S
C459 C455 1.393 . S
C459 C458 1.391 . S
C460 H450 0.950 . S
C460 C461 1.386 . S
C460 C462 1.391 . S
C461 C460 1.386 . S
C461 C465 1.393 . S
C462 H451 0.950 . S
C462 C460 1.391 . S
C462 C463 1.400 . S
C463 C457 1.491 . S
C463 C462 1.400 . S
C463 C464 1.398 . S
C464 H452 0.950 . S
C464 C463 1.398 . S
C464 C465 1.391 . S
C465 H453 0.950 . S
C465 C461 1.393 . S
C465 C464 1.391 . S
H466 C474 0.950 . S
H467 C479 0.950 . S
H468 C476 0.950 . S
H469 C478 0.950 . S
H470 C480 0.950 . S
H471 C482 0.950 . S
H472 C484 0.950 . S
H473 C485 0.950 . S
C474 H466 0.950 . S
C474 C475 1.386 . S
C474 C476 1.391 . S
C475 C474 1.386 . S
C475 C479 1.393 . S
C476 H468 0.950 . S
C476 C474 1.391 . S
C476 C477 1.400 . S
C477 C476 1.400 . S
C477 C478 1.398 . S
C477 C483 1.491 . S
C478 H469 0.950 . S
C478 C477 1.398 . S
C478 C479 1.391 . S
C479 H467 0.950 . S
C479 C475 1.393 . S
C479 C478 1.391 . S
C480 H470 0.950 . S
C480 C481 1.386 . S
C480 C482 1.391 . S
C481 C480 1.386 . S
C481 C485 1.393 . S
C482 H471 0.950 . S
C482 C480 1.391 . S
C482 C483 1.400 . S
C483 C477 1.491 . S
C483 C482 1.400 . S
C483 C484 1.398 . S
C484 H472 0.950 . S
C484 C483 1.398 . S
C484 C485 1.391 . S
C485 H473 0.950 . S
C485 C481 1.393 . S
C485 C484 1.391 . S
H486 C494 0.934 1_565 S
H487 C499 0.950 . S
H488 C496 0.968 . S
H489 C498 0.950 . S
H490 C500 0.950 . S
H491 C502 0.950 . S
H492 C504 0.950 . S
H493 C505 0.950 . S
C494 H486 0.934 1_545 S
C494 C495 1.406 . S
C494 C496 1.382 1_545 S
C495 C494 1.406 . S
C495 C499 1.393 . S
C496 H488 0.968 . S
C496 C494 1.382 1_565 S
C496 C497 1.387 1_565 S
C497 C496 1.387 1_545 S
C497 C498 1.398 . S
C497 C503 1.491 . S
C498 H489 0.950 . S
C498 C497 1.398 . S
C498 C499 1.391 . S
C499 H487 0.950 . S
C499 C495 1.393 . S
C499 C498 1.391 . S
C500 H490 0.950 . S
C500 C501 1.386 . S
C500 C502 1.391 . S
C501 C500 1.386 . S
C501 C505 1.393 1_545 S
C502 H491 0.950 . S
C502 C500 1.391 . S
C502 C503 1.400 . S
C503 C497 1.491 . S
C503 C502 1.400 . S
C503 C504 1.398 1_545 S
C504 H492 0.950 . S
C504 C503 1.398 1_565 S
C504 C505 1.391 . S
C505 H493 0.950 . S
C505 C501 1.393 1_565 S
C505 C504 1.391 . S
H506 C514 0.950 . S
H507 C519 0.950 . S
H508 C516 0.950 . S
H509 C518 0.950 . S
H510 C520 0.950 . S
H511 C522 0.950 1_556 S
H512 C524 0.950 1_556 S
H513 C525 0.950 . S
C514 H506 0.950 . S
C514 C515 1.386 . S
C514 C516 1.391 . S
C515 C514 1.386 . S
C515 C519 1.393 . S
C516 H508 0.950 . S
C516 C514 1.391 . S
C516 C517 1.400 . S
C517 C516 1.400 . S
C517 C518 1.398 . S
C517 C523 1.491 . S
C518 H509 0.950 . S
C518 C517 1.398 . S
C518 C519 1.391 . S
C519 H507 0.950 . S
C519 C515 1.393 . S
C519 C518 1.391 . S
C520 H510 0.950 . S
C520 C521 1.386 . S
C520 C522 1.391 . S
C521 C520 1.386 . S
C521 C525 1.393 . S
C522 H511 0.950 1_554 S
C522 C520 1.391 . S
C522 C523 1.400 1_554 S
C523 C517 1.491 . S
C523 C522 1.400 1_556 S
C523 C524 1.398 1_556 S
C524 H512 0.950 1_554 S
C524 C523 1.398 1_554 S
C524 C525 1.391 . S
C525 H513 0.950 . S
C525 C521 1.393 . S
C525 C524 1.391 . S
H526 C534 0.950 . S
H527 C539 0.950 1_655 S
H528 C536 0.950 . S
H529 C538 0.950 1_655 S
H530 C540 0.944 . S
H531 C542 0.950 1_655 S
H532 C544 0.950 . S
H533 C545 0.950 . S
C534 H526 0.950 . S
C534 C535 1.386 . S
C534 C536 1.391 . S
C535 C534 1.386 . S
C535 C539 1.393 . S
C536 H528 0.950 . S
C536 C534 1.391 . S
C536 C537 1.400 . S
C537 C536 1.400 . S
C537 C538 1.398 . S
C537 C543 1.491 . S
C538 H529 0.950 1_455 S
C538 C537 1.398 . S
C538 C539 1.391 . S
C539 H527 0.950 1_455 S
C539 C535 1.393 . S
C539 C538 1.391 . S
C540 H530 0.944 . S
C540 C541 1.395 1_655 S
C540 C542 1.389 1_655 S
C541 C540 1.395 1_455 S
C541 C545 1.393 . S
C542 H531 0.950 1_455 S
C542 C540 1.389 1_455 S
C542 C543 1.400 . S
C543 C537 1.491 . S
C543 C542 1.400 . S
C543 C544 1.398 . S
C544 H532 0.950 . S
C544 C543 1.398 . S
C544 C545 1.391 . S
C545 H533 0.950 . S
C545 C541 1.393 . S
C545 C544 1.391 . S
C195 C7 0.773 . S
C201 C185 0.754 . S
C215 C51 1.937 . S
C221 C163 1.892 . S
C235 C87 1.282 . S
C241 C174 1.277 . S
C255 C16 0.310 . S
C261 C179 0.252 . S
C281 C157 1.844 . S
C275 C42 1.886 . S
C301 C168 1.179 . S
C295 C96 1.178 . S
C315 C47 1.282 . S
C321 C141 1.302 . S
C335 C91 3.039 . S
C341 C146 2.994 1_655 S
C355 C2 1.907 . S
C361 C124 1.875 . S
C381 C135 1.166 . S
C375 C56 1.178 . S
C401 C152 2.986 . S
C395 C82 3.025 . S
C415 C11 1.937 . S
C421 C130 1.890 . S
C441 C147 1.725 . S
C435 C19 1.694 . S
C455 C50 1.409 . S
C461 C125 1.462 . S
C475 C99 1.502 . S
C481 C136 1.546 . S
C501 C169 1.515 . S
C495 C59 1.510 . S
C521 C180 1.270 . S
C515 C90 1.262 . S
C535 C10 1.401 . S
C541 C158 1.427 . S
