# Generated by pormake.
# Topology anh, (6,3)-cn, num edge types: 1
# Building blocks:
#     Node 0, Type 0, BuildingBlock: MIFKUJ_clean_sbu_0, # of connection points: 6
#     Node 1, Type 0, BuildingBlock: MIFKUJ_clean_sbu_0, # of connection points: 6
#     Node 2, Type 0, BuildingBlock: MIFKUJ_clean_sbu_0, # of connection points: 6
#     Node 3, Type 1, BuildingBlock: ESEHIV_clean_linker_0, # of connection points: 3
#     Node 4, Type 1, BuildingBlock: ESEHIV_clean_linker_0, # of connection points: 3
#     Node 5, Type 1, BuildingBlock: ESEHIV_clean_linker_0, # of connection points: 3
#     Node 6, Type 1, BuildingBlock: ESEHIV_clean_linker_0, # of connection points: 3
#     Node 7, Type 1, BuildingBlock: ESEHIV_clean_linker_0, # of connection points: 3
#     Node 8, Type 1, BuildingBlock: ESEHIV_clean_linker_0, # of connection points: 3
#     Edge 9, Type (0, 1), BuildingBlock: OJICUG_clean_linker_0, # of connection points: 2
#     Edge 10, Type (0, 1), BuildingBlock: OJICUG_clean_linker_0, # of connection points: 2
#     Edge 11, Type (0, 1), BuildingBlock: OJICUG_clean_linker_0, # of connection points: 2
#     Edge 12, Type (0, 1), BuildingBlock: OJICUG_clean_linker_0, # of connection points: 2
#     Edge 13, Type (0, 1), BuildingBlock: OJICUG_clean_linker_0, # of connection points: 2
#     Edge 14, Type (0, 1), BuildingBlock: OJICUG_clean_linker_0, # of connection points: 2
#     Edge 15, Type (0, 1), BuildingBlock: OJICUG_clean_linker_0, # of connection points: 2
#     Edge 16, Type (0, 1), BuildingBlock: OJICUG_clean_linker_0, # of connection points: 2
#     Edge 17, Type (0, 1), BuildingBlock: OJICUG_clean_linker_0, # of connection points: 2
#     Edge 18, Type (0, 1), BuildingBlock: OJICUG_clean_linker_0, # of connection points: 2
#     Edge 19, Type (0, 1), BuildingBlock: OJICUG_clean_linker_0, # of connection points: 2
#     Edge 20, Type (0, 1), BuildingBlock: OJICUG_clean_linker_0, # of connection points: 2
#     Edge 21, Type (0, 1), BuildingBlock: OJICUG_clean_linker_0, # of connection points: 2
#     Edge 22, Type (0, 1), BuildingBlock: OJICUG_clean_linker_0, # of connection points: 2
#     Edge 23, Type (0, 1), BuildingBlock: OJICUG_clean_linker_0, # of connection points: 2
#     Edge 24, Type (0, 1), BuildingBlock: OJICUG_clean_linker_0, # of connection points: 2
#     Edge 25, Type (0, 1), BuildingBlock: OJICUG_clean_linker_0, # of connection points: 2
#     Edge 26, Type (0, 1), BuildingBlock: OJICUG_clean_linker_0, # of connection points: 2
# Relax obj value: 0.135
# Max RMSD: 0.189
# Mean RMSD: 0.158
data_MOF--net-anh--node1-MIFKUJ_clean_sbu_0--node2-ESEHIV_clean_linker_0--edge1-OJICUG_clean_linker_0
_symmetry_space_group_name_H-M    P1
_symmetry_Int_Tables_number       1
_symmetry_cell_setting            triclinic
loop_
_symmetry_equiv_pos_as_xyz
'x, y, z'
_cell_length_a     21.397312
_cell_length_b     20.953567
_cell_length_c     34.664786
_cell_angle_alpha  95.043769
_cell_angle_beta   89.532218
_cell_angle_gamma 118.20799
loop_
_atom_site_label
_atom_site_type_symbol
_atom_site_fract_x
_atom_site_fract_y
_atom_site_fract_z
_atom_type_partial_charge
Zn0 Zn 0.03293 0.53791 0.15837 0.0
Zn1 Zn 0.83039 0.39871 0.14744 0.0
C2 C 0.15407 0.52785 0.18868 0.0
O3 O 0.16394 0.58536 0.21169 0.0
C4 C 0.72163 0.43416 0.17331 0.0
O5 O 0.70068 0.37356 0.18981 0.0
O6 O 0.09712 0.64469 0.16259 0.0
O7 O 0.99874 0.50435 0.10333 0.0
O8 O 0.88467 0.42111 0.09825 0.0
C9 C 0.14898 0.66595 0.1402 0.0
O10 O 0.15136 0.61877 0.11341 0.0
O11 O 0.09686 0.49365 0.16798 0.0
C12 C 0.76667 0.24391 0.13917 0.0
O13 O 0.83236 0.25699 0.14533 0.0
O14 O 0.75393 0.29686 0.13735 0.0
O15 O 0.88288 0.39976 0.19571 0.0
O16 O 0.95455 0.51546 0.19468 0.0
O17 O 0.7795 0.45915 0.15542 0.0
C18 C 0.94377 0.45919 0.08311 0.0
C19 C 0.93417 0.45772 0.21112 0.0
Zn20 Zn 0.62289 0.13334 0.49078 0.0
Zn21 Zn 0.50773 0.91213 0.48951 0.0
C22 C 0.77351 0.22667 0.50659 0.0
O23 O 0.75111 0.25325 0.53605 0.0
C24 C 0.40392 0.77316 0.45828 0.0
O25 O 0.4578 0.78427 0.4363 0.0
O26 O 0.61006 0.22241 0.49893 0.0
O27 O 0.57344 0.08163 0.43965 0.0
O28 O 0.51404 0.96214 0.44221 0.0
C29 C 0.645 0.28036 0.48248 0.0
O30 O 0.69075 0.28296 0.45634 0.0
O31 O 0.72848 0.1708 0.48564 0.0
C32 C 0.63162 0.89463 0.50945 0.0
O33 O 0.6526 0.95484 0.53253 0.0
O34 O 0.57617 0.87201 0.48791 0.0
O35 O 0.51631 0.96601 0.54155 0.0
O36 O 0.58469 0.08492 0.53952 0.0
O37 O 0.4112 0.82248 0.48478 0.0
C38 C 0.53436 0.01778 0.42369 0.0
C39 C 0.54815 0.03033 0.55819 0.0
Zn40 Zn 0.60171 0.57551 0.84216 0.0
Zn41 Zn 0.45608 0.61062 0.83061 0.0
C42 C 0.56536 0.42753 0.84562 0.0
O43 O 0.60544 0.45906 0.87726 0.0
C44 C 0.47023 0.7557 0.84432 0.0
O45 O 0.41553 0.72172 0.86587 0.0
O46 O 0.70282 0.5969 0.84602 0.0
O47 O 0.5983 0.63717 0.80238 0.0
O48 O 0.48708 0.56712 0.78446 0.0
C49 C 0.72636 0.5736 0.81736 0.0
O50 O 0.68601 0.54367 0.78568 0.0
O51 O 0.55034 0.46629 0.82494 0.0
C52 C 0.30612 0.50737 0.82154 0.0
O53 O 0.32684 0.4585 0.82595 0.0
O54 O 0.35217 0.57384 0.82203 0.0
O55 O 0.46868 0.59117 0.88587 0.0
O56 O 0.57211 0.59259 0.89508 0.0
O57 O 0.49902 0.72009 0.82753 0.0
C58 C 0.55172 0.60077 0.77581 0.0
C59 C 0.51565 0.59079 0.90805 0.0
H60 H 0.37172 0.89031 0.25716 0.0
H61 H 0.58806 0.05467 0.24911 0.0
H62 H 0.45918 0.94907 0.14537 0.0
C63 C 0.41573 0.92286 0.23971 0.0
C64 C 0.40763 0.91286 0.19903 0.0
C65 C 0.4805 0.97434 0.25802 0.0
C66 C 0.53766 0.01495 0.23525 0.0
C67 C 0.53023 0.00583 0.19473 0.0
C68 C 0.46507 0.95522 0.17671 0.0
H69 H 0.65398 0.70821 0.61608 0.0
H70 H 0.61797 0.4885 0.61006 0.0
H71 H 0.67741 0.60493 0.508 0.0
C72 C 0.65482 0.66224 0.59954 0.0
C73 C 0.66967 0.66515 0.56 0.0
C74 C 0.63548 0.59857 0.61745 0.0
C75 C 0.63215 0.53736 0.59585 0.0
C76 C 0.64798 0.53927 0.55636 0.0
C77 C 0.66693 0.60355 0.53864 0.0
H78 H 0.88186 0.48195 0.91551 0.0
H79 H 0.05115 0.42713 0.91104 0.0
H80 H 0.99594 0.50098 0.81084 0.0
C81 C 0.92176 0.47447 0.89919 0.0
C82 C 0.93325 0.49314 0.86097 0.0
C83 C 0.96398 0.45067 0.91735 0.0
C84 C 0.01669 0.44298 0.89648 0.0
C85 C 0.02855 0.46064 0.85796 0.0
C86 C 0.98601 0.48516 0.84013 0.0
H87 H 0.9457 0.37418 0.37795 0.0
H88 H 0.14897 0.554 0.35922 0.0
H89 H 0.09994 0.47788 0.47255 0.0
C90 C 0.99864 0.41403 0.38858 0.0
C91 C 0.01801 0.41814 0.42773 0.0
C92 C 0.04506 0.46311 0.36365 0.0
C93 C 0.11235 0.51616 0.37826 0.0
C94 C 0.13256 0.52223 0.41744 0.0
C95 C 0.08476 0.47354 0.4423 0.0
H96 H 0.5308 0.17661 0.72557 0.0
H97 H 0.52666 0.97149 0.73207 0.0
H98 H 0.51691 0.09267 0.83657 0.0
C99 C 0.52755 0.13458 0.74285 0.0
C100 C 0.52357 0.14299 0.78343 0.0
C101 C 0.52796 0.07264 0.72419 0.0
C102 C 0.52584 0.01915 0.74646 0.0
C103 C 0.52235 0.02579 0.78691 0.0
C104 C 0.52041 0.08762 0.80536 0.0
H105 H 0.3746 0.55148 0.07635 0.0
H106 H 0.56929 0.53894 0.07508 0.0
H107 H 0.45026 0.50334 0.17878 0.0
C108 C 0.41403 0.54241 0.0908 0.0
C109 C 0.40469 0.5252 0.12948 0.0
C110 C 0.47412 0.54918 0.07102 0.0
C111 C 0.52489 0.5382 0.09065 0.0
C112 C 0.51766 0.52266 0.12955 0.0
C113 C 0.45714 0.51628 0.14893 0.0
C114 C 0.28202 0.55855 0.19816 0.0
C115 C 0.2157 0.51611 0.17853 0.0
H116 H 0.39417 0.59417 0.19815 0.0
C117 C 0.21145 0.47013 0.1454 0.0
H118 H 0.28724 0.59458 0.22375 0.0
C119 C 0.27265 0.4708 0.1306 0.0
C120 C 0.33938 0.51652 0.14885 0.0
H121 H 0.16143 0.43663 0.12951 0.0
H122 H 0.26819 0.43741 0.10399 0.0
C123 C 0.34329 0.55841 0.18356 0.0
C124 C 0.88772 0.34375 0.50735 0.0
C125 C 0.84521 0.27117 0.49188 0.0
H126 H 0.97633 0.44756 0.49911 0.0
C127 C 0.86729 0.24507 0.45865 0.0
H128 H 0.87237 0.36563 0.53297 0.0
C129 C 0.92681 0.29196 0.43943 0.0
C130 C 0.96565 0.36601 0.45296 0.0
H131 H 0.83633 0.18936 0.44617 0.0
H132 H 0.94039 0.27111 0.41277 0.0
C133 C 0.94745 0.39078 0.48804 0.0
C134 C 0.54906 0.86775 0.81192 0.0
C135 C 0.49144 0.83133 0.83547 0.0
H136 H 0.60541 0.95916 0.77925 0.0
C137 C 0.45061 0.86551 0.84771 0.0
H138 H 0.58218 0.84364 0.80233 0.0
C139 C 0.46383 0.9319 0.83432 0.0
C140 C 0.5182 0.96544 0.80846 0.0
H141 H 0.40605 0.83925 0.86607 0.0
H142 H 0.42872 0.95448 0.84221 0.0
C143 C 0.56238 0.93405 0.79871 0.0
C144 C 0.60106 0.42584 0.1794 0.0
C145 C 0.67238 0.46482 0.16923 0.0
H146 H 0.49595 0.41342 0.17476 0.0
C147 C 0.69387 0.52905 0.15119 0.0
H148 H 0.58272 0.37625 0.19349 0.0
C149 C 0.64423 0.55074 0.14092 0.0
C150 C 0.57182 0.5084 0.1481 0.0
H151 H 0.7485 0.5609 0.14342 0.0
H152 H 0.66206 0.59903 0.12569 0.0
C153 C 0.55124 0.44732 0.16886 0.0
C154 C 0.27611 0.69237 0.4731 0.0
C155 C 0.33553 0.70553 0.45077 0.0
H156 H 0.16489 0.623 0.48029 0.0
C157 C 0.32873 0.65412 0.41994 0.0
H158 H 0.27975 0.73071 0.49719 0.0
C159 C 0.26347 0.59286 0.41046 0.0
C160 C 0.20337 0.58121 0.43163 0.0
H161 H 0.37344 0.66199 0.40235 0.0
H162 H 0.25952 0.55534 0.38584 0.0
C163 C 0.21057 0.63053 0.46366 0.0
C164 C 0.50376 0.31511 0.79871 0.0
C165 C 0.54696 0.35105 0.83215 0.0
H166 H 0.4601 0.22037 0.758 0.0
C167 C 0.57681 0.31486 0.85147 0.0
H168 H 0.47943 0.341 0.7833 0.0
C169 C 0.56674 0.24612 0.83667 0.0
C170 C 0.52617 0.21141 0.80223 0.0
H171 H 0.61043 0.34078 0.87735 0.0
H172 H 0.59355 0.22182 0.85132 0.0
C173 C 0.49313 0.24602 0.7841 0.0
C174 C 0.62969 0.77515 0.49374 0.0
C175 C 0.65908 0.84332 0.51564 0.0
H176 H 0.60991 0.66494 0.49074 0.0
C177 C 0.70506 0.85629 0.54748 0.0
H178 H 0.59484 0.76365 0.46866 0.0
C179 C 0.71445 0.79959 0.55988 0.0
C180 C 0.67784 0.72904 0.54072 0.0
H181 H 0.7294 0.90849 0.56463 0.0
H182 H 0.74634 0.80973 0.58606 0.0
C183 C 0.63877 0.71847 0.50624 0.0
C184 C 0.80111 0.51389 0.79907 0.0
C185 C 0.79016 0.5652 0.8231 0.0
H186 H 0.85597 0.45047 0.79243 0.0
C187 C 0.83505 0.60089 0.85594 0.0
H188 H 0.76736 0.48562 0.77348 0.0
C189 C 0.88559 0.58101 0.86652 0.0
C190 C 0.89192 0.52486 0.84457 0.0
H191 H 0.82853 0.64134 0.87469 0.0
H192 H 0.91713 0.60674 0.89311 0.0
C193 C 0.85175 0.49375 0.80981 0.0
C194 C 0.2117 0.7851 0.18041 0.0
C195 C 0.21279 0.73618 0.15033 0.0
H196 H 0.27266 0.8804 0.219 0.0
C197 C 0.27753 0.75052 0.13352 0.0
H198 H 0.1625 0.77577 0.19374 0.0
C199 C 0.34063 0.80984 0.14833 0.0
C200 C 0.34007 0.85614 0.18005 0.0
H201 H 0.28015 0.71376 0.11034 0.0
H202 H 0.39015 0.81709 0.13624 0.0
C203 C 0.27478 0.84462 0.1951 0.0
C204 C 0.58698 0.3417 0.52176 0.0
C205 C 0.64121 0.34678 0.49709 0.0
H206 H 0.5457 0.39841 0.559 0.0
C207 C 0.69471 0.41593 0.48941 0.0
H208 H 0.54456 0.2892 0.52793 0.0
C209 C 0.69587 0.47876 0.5077 0.0
C210 C 0.6434 0.47347 0.53384 0.0
H211 H 0.73735 0.42158 0.47061 0.0
H212 H 0.73943 0.53128 0.5026 0.0
C213 C 0.58791 0.40429 0.5398 0.0
C214 C 0.20907 0.5403 0.81548 0.0
C215 C 0.23029 0.48811 0.82238 0.0
H216 H 0.12776 0.57193 0.82099 0.0
C217 C 0.17998 0.42111 0.83445 0.0
H218 H 0.24644 0.59217 0.80571 0.0
C219 C 0.11168 0.40943 0.84304 0.0
C220 C 0.09257 0.46433 0.83942 0.0
H221 H 0.19457 0.37958 0.83968 0.0
H222 H 0.07509 0.35915 0.85463 0.0
C223 C 0.14078 0.52847 0.82386 0.0
C224 C 0.6376 0.15661 0.13331 0.0
C225 C 0.70683 0.17183 0.14401 0.0
H226 H 0.52653 0.09044 0.14091 0.0
C227 C 0.71677 0.12318 0.16533 0.0
H228 H 0.62856 0.19297 0.11656 0.0
C229 C 0.65837 0.06494 0.17948 0.0
C230 C 0.5895 0.05412 0.17195 0.0
H231 H 0.76954 0.13344 0.17385 0.0
H232 H 0.66718 0.03113 0.19833 0.0
C233 C 0.57924 0.09788 0.14708 0.0
C234 C 0.88765 0.41175 0.01647 0.0
C235 C 0.94896 0.4512 0.04063 0.0
H236 H 0.84453 0.37974 0.95817 0.0
C237 C 0.01555 0.48448 0.02377 0.0
H238 H 0.83561 0.38507 0.02856 0.0
C239 C 0.02053 0.48085 0.98361 0.0
C240 C 0.95906 0.44416 0.95949 0.0
H241 H 0.0639 0.51473 0.04154 0.0
H242 H 0.0723 0.50963 0.97146 0.0
C243 C 0.89267 0.40855 0.97624 0.0
C244 C 0.53931 0.06695 0.35975 0.0
C245 C 0.51547 0.00712 0.3818 0.0
H246 H 0.54583 0.10342 0.30341 0.0
C247 C 0.47628 0.9365 0.36306 0.0
H248 H 0.56919 0.12206 0.37326 0.0
C249 C 0.4634 0.92588 0.32301 0.0
C250 C 0.48931 0.98561 0.30084 0.0
H251 H 0.45696 0.88912 0.37916 0.0
H252 H 0.43517 0.87079 0.30926 0.0
C253 C 0.5263 0.05628 0.3197 0.0
C254 C 0.64107 0.64942 0.72498 0.0
C255 C 0.57345 0.59775 0.73545 0.0
H256 H 0.71342 0.69006 0.67921 0.0
C257 C 0.52747 0.54408 0.70709 0.0
H258 H 0.67777 0.69138 0.74619 0.0
C259 C 0.54859 0.54271 0.66887 0.0
C260 C 0.61544 0.59569 0.65836 0.0
H261 H 0.47525 0.50333 0.71441 0.0
H262 H 0.51199 0.50158 0.64728 0.0
C263 C 0.66159 0.64878 0.68673 0.0
C264 C 0.58239 0.11101 0.62074 0.0
C265 C 0.5416 0.04211 0.60045 0.0
H266 H 0.6107 0.17455 0.67577 0.0
C267 C 0.49462 0.9843 0.621 0.0
H268 H 0.61916 0.15675 0.60581 0.0
C269 C 0.4892 0.99481 0.66092 0.0
C270 C 0.53104 0.0632 0.68137 0.0
H271 H 0.46188 0.93071 0.60628 0.0
H272 H 0.45214 0.94916 0.67582 0.0
C273 C 0.57724 0.12139 0.6608 0.0
C274 C 0.56209 0.61578 0.9765 0.0
C275 C 0.5039 0.5859 0.94999 0.0
H276 H 0.59828 0.63107 0.03541 0.0
C277 C 0.43514 0.5481 0.96374 0.0
H278 H 0.61566 0.64609 0.96678 0.0
C279 C 0.42508 0.5373 0.00309 0.0
C280 C 0.48356 0.56539 0.02962 0.0
H281 H 0.38932 0.5242 0.94384 0.0
H282 H 0.37162 0.50469 0.01234 0.0
C283 C 0.55202 0.60655 0.01586 0.0
C284 C 0.95044 0.39352 0.26468 0.0
C285 C 0.96728 0.45871 0.24857 0.0
H286 H 0.96347 0.34357 0.31302 0.0
C287 C 0.01356 0.52514 0.26943 0.0
H288 H 0.91551 0.3414 0.24911 0.0
C289 C 0.04002 0.52647 0.30635 0.0
C290 C 0.02157 0.46134 0.32307 0.0
H291 H 0.02761 0.57635 0.2578 0.0
H292 H 0.07292 0.57879 0.32227 0.0
C293 C 0.9776 0.3948 0.30142 0.0
loop_
_geom_bond_atom_site_label_1
_geom_bond_atom_site_label_2
_geom_bond_distance
_geom_bond_site_symmetry_2
_ccdc_geom_bond_type
Zn0 O6 1.969 . S
Zn0 O7 1.965 . S
Zn0 O11 2.024 . S
Zn0 O16 1.969 . S
Zn1 O8 1.969 . S
Zn1 O14 1.969 . S
Zn1 O15 1.965 . S
Zn1 O17 2.024 . S
C2 O3 1.229 . S
C2 O11 1.058 . S
O3 C2 1.229 . S
C4 O5 1.229 . S
C4 O17 1.058 . S
O5 C4 1.229 . S
O6 Zn0 1.969 . S
O6 C9 1.267 . S
O7 Zn0 1.965 . S
O7 C18 1.260 1_455 S
O8 Zn1 1.969 . S
O8 C18 1.258 . S
C9 O6 1.267 . S
C9 O10 1.228 . S
O10 C9 1.228 . S
O11 Zn0 2.024 . S
O11 C2 1.058 . S
C12 O13 1.228 . S
C12 O14 1.267 . S
O13 C12 1.228 . S
O14 Zn1 1.969 . S
O14 C12 1.267 . S
O15 Zn1 1.965 . S
O15 C19 1.260 1_655 S
O16 Zn0 1.969 . S
O16 C19 1.258 . S
O17 Zn1 2.024 . S
O17 C4 1.058 . S
C18 O7 1.260 1_655 S
C18 O8 1.258 . S
C19 O15 1.260 1_455 S
C19 O16 1.258 . S
Zn20 O26 1.969 . S
Zn20 O27 1.965 . S
Zn20 O31 2.024 . S
Zn20 O36 1.969 . S
Zn21 O28 1.969 . S
Zn21 O34 1.969 . S
Zn21 O35 1.965 . S
Zn21 O37 2.024 . S
C22 O23 1.229 . S
C22 O31 1.058 . S
O23 C22 1.229 . S
C24 O25 1.229 . S
C24 O37 1.058 . S
O25 C24 1.229 . S
O26 Zn20 1.969 . S
O26 C29 1.267 . S
O27 Zn20 1.965 . S
O27 C38 1.260 . S
O28 Zn21 1.969 . S
O28 C38 1.258 1_565 S
C29 O26 1.267 . S
C29 O30 1.228 . S
O30 C29 1.228 . S
O31 Zn20 2.024 . S
O31 C22 1.058 . S
C32 O33 1.228 . S
C32 O34 1.267 . S
O33 C32 1.228 . S
O34 Zn21 1.969 . S
O34 C32 1.267 . S
O35 Zn21 1.965 . S
O35 C39 1.260 1_565 S
O36 Zn20 1.969 . S
O36 C39 1.258 . S
O37 Zn21 2.024 . S
O37 C24 1.058 . S
C38 O27 1.260 . S
C38 O28 1.258 1_545 S
C39 O35 1.260 1_545 S
C39 O36 1.258 . S
Zn40 O46 1.969 . S
Zn40 O47 1.965 . S
Zn40 O51 2.024 . S
Zn40 O56 1.969 . S
Zn41 O48 1.969 . S
Zn41 O54 1.969 . S
Zn41 O55 1.965 . S
Zn41 O57 2.024 . S
C42 O43 1.229 . S
C42 O51 1.058 . S
O43 C42 1.229 . S
C44 O45 1.229 . S
C44 O57 1.058 . S
O45 C44 1.229 . S
O46 Zn40 1.969 . S
O46 C49 1.267 . S
O47 Zn40 1.965 . S
O47 C58 1.260 . S
O48 Zn41 1.969 . S
O48 C58 1.258 . S
C49 O46 1.267 . S
C49 O50 1.228 . S
O50 C49 1.228 . S
O51 Zn40 2.024 . S
O51 C42 1.058 . S
C52 O53 1.228 . S
C52 O54 1.267 . S
O53 C52 1.228 . S
O54 Zn41 1.969 . S
O54 C52 1.267 . S
O55 Zn41 1.965 . S
O55 C59 1.260 . S
O56 Zn40 1.969 . S
O56 C59 1.258 . S
O57 Zn41 2.024 . S
O57 C44 1.058 . S
C58 O47 1.260 . S
C58 O48 1.258 . S
C59 O55 1.260 . S
C59 O56 1.258 . S
H60 C63 0.931 . S
H61 C66 0.928 . S
H62 C68 0.930 . S
C63 H60 0.931 . S
C63 C64 1.413 . S
C63 C65 1.360 1_565 S
C64 C63 1.413 . S
C64 C68 1.429 1_565 S
C65 C63 1.360 1_545 S
C65 C66 1.372 . S
C66 H61 0.928 . S
C66 C65 1.372 . S
C66 C67 1.404 . S
C67 C66 1.404 . S
C67 C68 1.391 . S
C68 H62 0.930 . S
C68 C64 1.429 1_545 S
C68 C67 1.391 . S
H69 C72 0.931 . S
H70 C75 0.928 . S
H71 C77 0.930 . S
C72 H69 0.931 . S
C72 C73 1.413 . S
C72 C74 1.360 . S
C73 C72 1.413 . S
C73 C77 1.429 . S
C74 C72 1.360 . S
C74 C75 1.372 . S
C75 H70 0.928 . S
C75 C74 1.372 . S
C75 C76 1.404 . S
C76 C75 1.404 . S
C76 C77 1.391 . S
C77 H71 0.930 . S
C77 C73 1.429 . S
C77 C76 1.391 . S
H78 C81 0.931 . S
H79 C84 0.928 . S
H80 C86 0.930 . S
C81 H78 0.931 . S
C81 C82 1.413 . S
C81 C83 1.360 1_655 S
C82 C81 1.413 . S
C82 C86 1.429 1_655 S
C83 C81 1.360 1_455 S
C83 C84 1.372 . S
C84 H79 0.928 . S
C84 C83 1.372 . S
C84 C85 1.404 . S
C85 C84 1.404 . S
C85 C86 1.391 . S
C86 H80 0.930 . S
C86 C82 1.429 1_455 S
C86 C85 1.391 . S
H87 C90 0.931 . S
H88 C93 0.928 . S
H89 C95 0.930 . S
C90 H87 0.931 . S
C90 C91 1.413 . S
C90 C92 1.360 1_655 S
C91 C90 1.413 . S
C91 C95 1.429 1_655 S
C92 C90 1.360 1_455 S
C92 C93 1.372 . S
C93 H88 0.928 . S
C93 C92 1.372 . S
C93 C94 1.404 . S
C94 C93 1.404 . S
C94 C95 1.391 . S
C95 H89 0.930 . S
C95 C91 1.429 1_455 S
C95 C94 1.391 . S
H96 C99 0.931 . S
H97 C102 0.928 . S
H98 C104 0.930 . S
C99 H96 0.931 . S
C99 C100 1.413 . S
C99 C101 1.360 . S
C100 C99 1.413 . S
C100 C104 1.429 . S
C101 C99 1.360 . S
C101 C102 1.372 1_545 S
C102 H97 0.928 . S
C102 C101 1.372 1_565 S
C102 C103 1.404 . S
C103 C102 1.404 . S
C103 C104 1.391 1_565 S
C104 H98 0.930 . S
C104 C100 1.429 . S
C104 C103 1.391 1_545 S
H105 C108 0.931 . S
H106 C111 0.928 . S
H107 C113 0.930 . S
C108 H105 0.931 . S
C108 C109 1.413 . S
C108 C110 1.360 . S
C109 C108 1.413 . S
C109 C113 1.429 . S
C110 C108 1.360 . S
C110 C111 1.372 . S
C111 H106 0.928 . S
C111 C110 1.372 . S
C111 C112 1.404 . S
C112 C111 1.404 . S
C112 C113 1.391 . S
C113 H107 0.930 . S
C113 C109 1.429 . S
C113 C112 1.391 . S
C114 C115 1.387 . S
C114 H118 0.950 . S
C114 C123 1.390 . S
C115 C114 1.387 . S
C115 C117 1.387 . S
H116 C123 0.950 . S
C117 C115 1.387 . S
C117 C119 1.390 . S
C117 H121 0.950 . S
H118 C114 0.950 . S
C119 C117 1.390 . S
C119 C120 1.387 . S
C119 H122 0.950 . S
C120 C119 1.387 . S
C120 C123 1.387 . S
H121 C117 0.950 . S
H122 C119 0.950 . S
C123 C114 1.390 . S
C123 H116 0.950 . S
C123 C120 1.387 . S
C124 C125 1.387 . S
C124 H128 0.950 . S
C124 C133 1.390 . S
C125 C124 1.387 . S
C125 C127 1.387 . S
H126 C133 0.950 . S
C127 C125 1.387 . S
C127 C129 1.390 . S
C127 H131 0.950 . S
H128 C124 0.950 . S
C129 C127 1.390 . S
C129 C130 1.387 . S
C129 H132 0.950 . S
C130 C129 1.387 . S
C130 C133 1.387 . S
H131 C127 0.950 . S
H132 C129 0.950 . S
C133 C124 1.390 . S
C133 H126 0.950 . S
C133 C130 1.387 . S
C134 C135 1.387 . S
C134 H138 0.950 . S
C134 C143 1.390 . S
C135 C134 1.387 . S
C135 C137 1.387 . S
H136 C143 0.950 . S
C137 C135 1.387 . S
C137 C139 1.390 . S
C137 H141 0.950 . S
H138 C134 0.950 . S
C139 C137 1.390 . S
C139 C140 1.387 . S
C139 H142 0.950 . S
C140 C139 1.387 . S
C140 C143 1.387 . S
H141 C137 0.950 . S
H142 C139 0.950 . S
C143 C134 1.390 . S
C143 H136 0.950 . S
C143 C140 1.387 . S
C144 C145 1.387 . S
C144 H148 0.950 . S
C144 C153 1.390 . S
C145 C144 1.387 . S
C145 C147 1.387 . S
H146 C153 0.950 . S
C147 C145 1.387 . S
C147 C149 1.390 . S
C147 H151 0.950 . S
H148 C144 0.950 . S
C149 C147 1.390 . S
C149 C150 1.387 . S
C149 H152 0.950 . S
C150 C149 1.387 . S
C150 C153 1.387 . S
H151 C147 0.950 . S
H152 C149 0.950 . S
C153 C144 1.390 . S
C153 H146 0.950 . S
C153 C150 1.387 . S
C154 C155 1.387 . S
C154 H158 0.950 . S
C154 C163 1.390 . S
C155 C154 1.387 . S
C155 C157 1.387 . S
H156 C163 0.950 . S
C157 C155 1.387 . S
C157 C159 1.390 . S
C157 H161 0.950 . S
H158 C154 0.950 . S
C159 C157 1.390 . S
C159 C160 1.387 . S
C159 H162 0.950 . S
C160 C159 1.387 . S
C160 C163 1.387 . S
H161 C157 0.950 . S
H162 C159 0.950 . S
C163 C154 1.390 . S
C163 H156 0.950 . S
C163 C160 1.387 . S
C164 C165 1.387 . S
C164 H168 0.950 . S
C164 C173 1.390 . S
C165 C164 1.387 . S
C165 C167 1.387 . S
H166 C173 0.950 . S
C167 C165 1.387 . S
C167 C169 1.390 . S
C167 H171 0.950 . S
H168 C164 0.950 . S
C169 C167 1.390 . S
C169 C170 1.387 . S
C169 H172 0.950 . S
C170 C169 1.387 . S
C170 C173 1.387 . S
H171 C167 0.950 . S
H172 C169 0.950 . S
C173 C164 1.390 . S
C173 H166 0.950 . S
C173 C170 1.387 . S
C174 C175 1.387 . S
C174 H178 0.950 . S
C174 C183 1.390 . S
C175 C174 1.387 . S
C175 C177 1.387 . S
H176 C183 0.950 . S
C177 C175 1.387 . S
C177 C179 1.390 . S
C177 H181 0.950 . S
H178 C174 0.950 . S
C179 C177 1.390 . S
C179 C180 1.387 . S
C179 H182 0.950 . S
C180 C179 1.387 . S
C180 C183 1.387 . S
H181 C177 0.950 . S
H182 C179 0.950 . S
C183 C174 1.390 . S
C183 H176 0.950 . S
C183 C180 1.387 . S
C184 C185 1.387 . S
C184 H188 0.950 . S
C184 C193 1.390 . S
C185 C184 1.387 . S
C185 C187 1.387 . S
H186 C193 0.950 . S
C187 C185 1.387 . S
C187 C189 1.390 . S
C187 H191 0.950 . S
H188 C184 0.950 . S
C189 C187 1.390 . S
C189 C190 1.387 . S
C189 H192 0.950 . S
C190 C189 1.387 . S
C190 C193 1.387 . S
H191 C187 0.950 . S
H192 C189 0.950 . S
C193 C184 1.390 . S
C193 H186 0.950 . S
C193 C190 1.387 . S
C194 C195 1.387 . S
C194 H198 0.950 . S
C194 C203 1.390 . S
C195 C194 1.387 . S
C195 C197 1.387 . S
H196 C203 0.950 . S
C197 C195 1.387 . S
C197 C199 1.390 . S
C197 H201 0.950 . S
H198 C194 0.950 . S
C199 C197 1.390 . S
C199 C200 1.387 . S
C199 H202 0.950 . S
C200 C199 1.387 . S
C200 C203 1.387 . S
H201 C197 0.950 . S
H202 C199 0.950 . S
C203 C194 1.390 . S
C203 H196 0.950 . S
C203 C200 1.387 . S
C204 C205 1.387 . S
C204 H208 0.950 . S
C204 C213 1.390 . S
C205 C204 1.387 . S
C205 C207 1.387 . S
H206 C213 0.950 . S
C207 C205 1.387 . S
C207 C209 1.390 . S
C207 H211 0.950 . S
H208 C204 0.950 . S
C209 C207 1.390 . S
C209 C210 1.387 . S
C209 H212 0.950 . S
C210 C209 1.387 . S
C210 C213 1.387 . S
H211 C207 0.950 . S
H212 C209 0.950 . S
C213 C204 1.390 . S
C213 H206 0.950 . S
C213 C210 1.387 . S
C214 C215 1.387 . S
C214 H218 0.950 . S
C214 C223 1.390 . S
C215 C214 1.387 . S
C215 C217 1.387 . S
H216 C223 0.950 . S
C217 C215 1.387 . S
C217 C219 1.390 . S
C217 H221 0.950 . S
H218 C214 0.950 . S
C219 C217 1.390 . S
C219 C220 1.387 . S
C219 H222 0.950 . S
C220 C219 1.387 . S
C220 C223 1.387 . S
H221 C217 0.950 . S
H222 C219 0.950 . S
C223 C214 1.390 . S
C223 H216 0.950 . S
C223 C220 1.387 . S
C224 C225 1.387 . S
C224 H228 0.950 . S
C224 C233 1.390 . S
C225 C224 1.387 . S
C225 C227 1.387 . S
H226 C233 0.950 . S
C227 C225 1.387 . S
C227 C229 1.390 . S
C227 H231 0.950 . S
H228 C224 0.950 . S
C229 C227 1.390 . S
C229 C230 1.387 . S
C229 H232 0.950 . S
C230 C229 1.387 . S
C230 C233 1.387 . S
H231 C227 0.950 . S
H232 C229 0.950 . S
C233 C224 1.390 . S
C233 H226 0.950 . S
C233 C230 1.387 . S
C234 C235 1.387 1_655 S
C234 H238 0.950 . S
C234 C243 1.390 1_554 S
C235 C234 1.387 1_455 S
C235 C237 1.387 . S
H236 C243 0.950 . S
C237 C235 1.387 . S
C237 C239 1.390 . S
C237 H241 0.950 . S
H238 C234 0.950 . S
C239 C237 1.390 . S
C239 C240 1.387 1_554 S
C239 H242 0.950 . S
C240 C239 1.387 1_556 S
C240 C243 1.387 1_455 S
H241 C237 0.950 . S
H242 C239 0.950 . S
C243 C234 1.390 1_556 S
C243 H236 0.950 . S
C243 C240 1.387 1_655 S
C244 C245 1.387 . S
C244 H248 0.950 . S
C244 C253 1.390 . S
C245 C244 1.387 . S
C245 C247 1.387 1_545 S
H246 C253 0.950 . S
C247 C245 1.387 1_565 S
C247 C249 1.390 . S
C247 H251 0.950 . S
H248 C244 0.950 . S
C249 C247 1.390 . S
C249 C250 1.387 1_565 S
C249 H252 0.950 . S
C250 C249 1.387 1_545 S
C250 C253 1.387 . S
H251 C247 0.950 . S
H252 C249 0.950 . S
C253 C244 1.390 . S
C253 H246 0.950 . S
C253 C250 1.387 . S
C254 C255 1.387 . S
C254 H258 0.950 . S
C254 C263 1.390 . S
C255 C254 1.387 . S
C255 C257 1.387 . S
H256 C263 0.950 . S
C257 C255 1.387 . S
C257 C259 1.390 . S
C257 H261 0.950 . S
H258 C254 0.950 . S
C259 C257 1.390 . S
C259 C260 1.387 . S
C259 H262 0.950 . S
C260 C259 1.387 . S
C260 C263 1.387 . S
H261 C257 0.950 . S
H262 C259 0.950 . S
C263 C254 1.390 . S
C263 H256 0.950 . S
C263 C260 1.387 . S
C264 C265 1.387 . S
C264 H268 0.950 . S
C264 C273 1.390 . S
C265 C264 1.387 . S
C265 C267 1.387 1_545 S
H266 C273 0.950 . S
C267 C265 1.387 1_565 S
C267 C269 1.390 . S
C267 H271 0.950 . S
H268 C264 0.950 . S
C269 C267 1.390 . S
C269 C270 1.387 1_565 S
C269 H272 0.950 . S
C270 C269 1.387 1_545 S
C270 C273 1.387 . S
H271 C267 0.950 . S
H272 C269 0.950 . S
C273 C264 1.390 . S
C273 H266 0.950 . S
C273 C270 1.387 . S
C274 C275 1.387 . S
C274 H278 0.950 . S
C274 C283 1.390 . S
C275 C274 1.387 . S
C275 C277 1.387 . S
H276 C283 0.950 1_554 S
C277 C275 1.387 . S
C277 C279 1.390 . S
C277 H281 0.950 . S
H278 C274 0.950 . S
C279 C277 1.390 . S
C279 C280 1.387 1_556 S
C279 H282 0.950 1_556 S
C280 C279 1.387 1_554 S
C280 C283 1.387 1_554 S
H281 C277 0.950 . S
H282 C279 0.950 1_554 S
C283 C274 1.390 . S
C283 H276 0.950 1_556 S
C283 C280 1.387 1_556 S
C284 C285 1.387 1_455 S
C284 H288 0.950 . S
C284 C293 1.390 . S
C285 C284 1.387 1_655 S
C285 C287 1.387 . S
H286 C293 0.950 . S
C287 C285 1.387 . S
C287 C289 1.389 1_655 S
C287 H291 0.950 . S
H288 C284 0.950 . S
C289 C287 1.389 1_455 S
C289 C290 1.396 . S
C289 H292 0.941 1_455 S
C290 C289 1.396 . S
C290 C293 1.387 . S
H291 C287 0.950 . S
H292 C289 0.941 1_655 S
C293 C284 1.390 . S
C293 H286 0.950 . S
C293 C290 1.387 . S
C115 C2 1.420 . S
C120 C109 1.525 . S
C125 C22 1.423 . S
C130 C91 1.549 . S
C135 C44 1.407 . S
C140 C103 1.525 . S
C145 C4 1.470 . S
C150 C112 1.589 . S
C160 C94 1.575 . S
C155 C24 1.482 . S
C170 C100 1.583 . S
C165 C42 1.482 . S
C175 C32 1.290 . S
C180 C73 1.338 . S
C185 C49 1.328 . S
C190 C82 1.367 . S
C195 C9 1.316 . S
C200 C64 1.359 . S
C210 C76 1.367 . S
C205 C29 1.295 . S
C220 C85 1.331 . S
C215 C52 1.241 . S
C225 C12 1.240 . S
C230 C67 1.323 . S
C240 C83 1.439 . S
C235 C18 1.429 1_455 S
C245 C38 1.420 . S
C250 C65 1.439 . S
C255 C58 1.417 . S
C260 C74 1.441 . S
C270 C101 1.521 . S
C265 C39 1.503 . S
C280 C110 1.508 . S
C275 C59 1.478 . S
C285 C19 1.480 1_655 S
C290 C92 1.509 . S
