# Generated by pormake.
# Topology zzz, (3,6)-cn, num edge types: 1
# Building blocks:
#     Node 0, Type 0, BuildingBlock: CUQRIR_clean_linker_1, # of connection points: 3
#     Node 1, Type 0, BuildingBlock: CUQRIR_clean_linker_1, # of connection points: 3
#     Node 2, Type 0, BuildingBlock: CUQRIR_clean_linker_1, # of connection points: 3
#     Node 3, Type 0, BuildingBlock: CUQRIR_clean_linker_1, # of connection points: 3
#     Node 4, Type 0, BuildingBlock: CUQRIR_clean_linker_1, # of connection points: 3
#     Node 5, Type 0, BuildingBlock: CUQRIR_clean_linker_1, # of connection points: 3
#     Node 6, Type 0, BuildingBlock: CUQRIR_clean_linker_1, # of connection points: 3
#     Node 7, Type 0, BuildingBlock: CUQRIR_clean_linker_1, # of connection points: 3
#     Node 8, Type 1, BuildingBlock: VOLQOD_clean_sbu_1, # of connection points: 6
#     Node 9, Type 1, BuildingBlock: VOLQOD_clean_sbu_1, # of connection points: 6
#     Node 10, Type 1, BuildingBlock: VOLQOD_clean_sbu_1, # of connection points: 6
#     Node 11, Type 1, BuildingBlock: VOLQOD_clean_sbu_1, # of connection points: 6
#     Edge 12, Type (0, 1), BuildingBlock: AJUNOK_clean_linker_0, # of connection points: 2
#     Edge 13, Type (0, 1), BuildingBlock: AJUNOK_clean_linker_0, # of connection points: 2
#     Edge 14, Type (0, 1), BuildingBlock: AJUNOK_clean_linker_0, # of connection points: 2
#     Edge 15, Type (0, 1), BuildingBlock: AJUNOK_clean_linker_0, # of connection points: 2
#     Edge 16, Type (0, 1), BuildingBlock: AJUNOK_clean_linker_0, # of connection points: 2
#     Edge 17, Type (0, 1), BuildingBlock: AJUNOK_clean_linker_0, # of connection points: 2
#     Edge 18, Type (0, 1), BuildingBlock: AJUNOK_clean_linker_0, # of connection points: 2
#     Edge 19, Type (0, 1), BuildingBlock: AJUNOK_clean_linker_0, # of connection points: 2
#     Edge 20, Type (0, 1), BuildingBlock: AJUNOK_clean_linker_0, # of connection points: 2
#     Edge 21, Type (0, 1), BuildingBlock: AJUNOK_clean_linker_0, # of connection points: 2
#     Edge 22, Type (0, 1), BuildingBlock: AJUNOK_clean_linker_0, # of connection points: 2
#     Edge 23, Type (0, 1), BuildingBlock: AJUNOK_clean_linker_0, # of connection points: 2
#     Edge 24, Type (0, 1), BuildingBlock: AJUNOK_clean_linker_0, # of connection points: 2
#     Edge 25, Type (0, 1), BuildingBlock: AJUNOK_clean_linker_0, # of connection points: 2
#     Edge 26, Type (0, 1), BuildingBlock: AJUNOK_clean_linker_0, # of connection points: 2
#     Edge 27, Type (0, 1), BuildingBlock: AJUNOK_clean_linker_0, # of connection points: 2
#     Edge 28, Type (0, 1), BuildingBlock: AJUNOK_clean_linker_0, # of connection points: 2
#     Edge 29, Type (0, 1), BuildingBlock: AJUNOK_clean_linker_0, # of connection points: 2
#     Edge 30, Type (0, 1), BuildingBlock: AJUNOK_clean_linker_0, # of connection points: 2
#     Edge 31, Type (0, 1), BuildingBlock: AJUNOK_clean_linker_0, # of connection points: 2
#     Edge 32, Type (0, 1), BuildingBlock: AJUNOK_clean_linker_0, # of connection points: 2
#     Edge 33, Type (0, 1), BuildingBlock: AJUNOK_clean_linker_0, # of connection points: 2
#     Edge 34, Type (0, 1), BuildingBlock: AJUNOK_clean_linker_0, # of connection points: 2
#     Edge 35, Type (0, 1), BuildingBlock: AJUNOK_clean_linker_0, # of connection points: 2
# Relax obj value: 0.209
# Max RMSD: 0.240
# Mean RMSD: 0.125
data_MOF--net-zzz--node1-VOLQOD_clean_sbu_1--node2-CUQRIR_clean_linker_1--edge1-AJUNOK_clean_linker_0
_symmetry_space_group_name_H-M    P1
_symmetry_Int_Tables_number       1
_symmetry_cell_setting            triclinic
loop_
_symmetry_equiv_pos_as_xyz
'x, y, z'
_cell_length_a     35.413381
_cell_length_b     35.008229
_cell_length_c     11.298248
_cell_angle_alpha  90.038092
_cell_angle_beta   89.917196
_cell_angle_gamma 90.35993
loop_
_atom_site_label
_atom_site_type_symbol
_atom_site_fract_x
_atom_site_fract_y
_atom_site_fract_z
_atom_type_partial_charge
C0 C 0.76212 0.51094 0.19348 0.0
N1 N 0.79972 0.50374 0.1999 0.0
N2 N 0.7476 0.497 0.09076 0.0
C3 C 0.73981 0.53268 0.28365 0.0
C4 C 0.77752 0.48116 0.03561 0.0
N5 N 0.80893 0.48498 0.10206 0.0
C6 C 0.7766 0.46501 0.91213 0.0
H7 H 0.71701 0.51397 0.31882 0.0
H8 H 0.7261 0.55744 0.24042 0.0
H9 H 0.75784 0.54287 0.35757 0.0
H10 H 0.80209 0.44779 0.89302 0.0
H11 H 0.77518 0.48892 0.84784 0.0
H12 H 0.75104 0.44701 0.89965 0.0
C13 C 0.00819 0.74398 0.16035 0.0
N14 N 0.0139 0.78165 0.18178 0.0
N15 N 0.01765 0.73538 0.04687 0.0
C16 C 0.99528 0.7155 0.25133 0.0
C17 C 0.02934 0.76912 0.00066 0.0
N18 N 0.02764 0.79712 0.08309 0.0
C19 C 0.0379 0.77539 0.87138 0.0
H20 H 0.00492 0.72422 0.34085 0.0
H21 H 0.00603 0.68657 0.23025 0.0
H22 H 0.96398 0.71434 0.25214 0.0
H23 H 0.02251 0.75444 0.8154 0.0
H24 H 0.06861 0.77157 0.85639 0.0
H25 H 0.03012 0.80462 0.843 0.0
C26 C 0.74543 0.00207 0.15543 0.0
N27 N 0.70819 0.00903 0.17277 0.0
N28 N 0.75519 0.00926 0.04121 0.0
C29 C 0.77228 0.98916 0.24952 0.0
C30 C 0.72262 0.02055 0.98994 0.0
N31 N 0.69416 0.02048 0.0696 0.0
C32 C 0.71816 0.02935 0.86034 0.0
H33 H 0.80135 -0.00051 0.23047 0.0
H34 H 0.77259 0.95747 0.25082 0.0
H35 H 0.76309 -0.00061 0.33792 0.0
H36 H 0.69053 0.01871 0.82735 0.0
H37 H 0.74114 0.01647 0.80705 0.0
H38 H 0.71906 0.06078 0.848 0.0
C39 C 0.49598 0.75947 0.19671 0.0
N40 N 0.48947 0.72212 0.22108 0.0
N41 N 0.48376 0.76799 0.08619 0.0
C42 C 0.51451 0.78737 0.2793 0.0
C43 C 0.4701 0.7345 0.04388 0.0
N44 N 0.4732 0.70664 0.1262 0.0
C45 C 0.45782 0.72832 0.91757 0.0
H46 H 0.50918 0.77927 0.37282 0.0
H47 H 0.50415 0.81673 0.26269 0.0
H48 H 0.54543 0.78706 0.26347 0.0
H49 H 0.47014 0.75023 0.8578 0.0
H50 H 0.42662 0.73044 0.91283 0.0
H51 H 0.46616 0.69964 0.88539 0.0
C52 C 0.27138 0.50846 0.15629 0.0
N53 N 0.23416 0.51521 0.1378 0.0
N54 N 0.28096 0.51687 0.2701 0.0
C55 C 0.29851 0.49567 0.06237 0.0
C56 C 0.24823 0.52888 0.31942 0.0
N57 N 0.22007 0.52839 0.23883 0.0
C58 C 0.24292 0.53666 0.44961 0.0
H59 H 0.29875 0.46401 0.05918 0.0
H60 H 0.32754 0.5059 0.08219 0.0
H61 H 0.28955 0.50627 0.97428 0.0
H62 H 0.24838 0.5674 0.46683 0.0
H63 H 0.26296 0.51975 0.50342 0.0
H64 H 0.21372 0.5298 0.47865 0.0
C65 C 0.02883 0.2496 0.14109 0.0
N66 N 0.01983 0.2125 0.12036 0.0
N67 N 0.01948 0.2594 0.25392 0.0
C68 C 0.04473 0.27646 0.05024 0.0
C69 C 0.00443 0.22708 0.30002 0.0
N70 N 0.00439 0.19891 0.21885 0.0
C71 C 0.99109 0.22263 0.42584 0.0
H72 H 0.03831 0.30657 0.073 0.0
H73 H 0.03337 0.26951 0.96124 0.0
H74 H 0.07584 0.27302 0.04717 0.0
H75 H 0.96049 0.22908 0.43007 0.0
H76 H 0.00631 0.24262 0.48559 0.0
H77 H 0.99525 0.19292 0.45723 0.0
C78 C 0.24082 0.02265 0.14122 0.0
N79 N 0.27708 0.0126 0.1197 0.0
N80 N 0.22986 0.01059 0.25051 0.0
C81 C 0.21592 0.0433 0.05554 0.0
C82 C 0.26058 0.99229 0.29321 0.0
N83 N 0.28899 0.99324 0.21327 0.0
C84 C 0.26273 0.97253 0.41145 0.0
H85 H 0.23294 0.06006 0.9912 0.0
H86 H 0.19625 0.0624 0.10365 0.0
H87 H 0.19883 0.02199 0.00597 0.0
H88 H 0.25773 0.94152 0.39828 0.0
H89 H 0.24126 0.98289 0.47469 0.0
H90 H 0.29121 0.97629 0.4508 0.0
C91 C 0.47272 0.25491 0.17839 0.0
N92 N 0.48426 0.29141 0.16035 0.0
N93 N 0.48303 0.24286 0.28803 0.0
C94 C 0.45302 0.23065 0.08788 0.0
C95 C 0.50195 0.27308 0.33449 0.0
N96 N 0.50303 0.30226 0.25632 0.0
C97 C 0.52075 0.27353 0.45405 0.0
H98 H 0.43524 0.20853 0.13143 0.0
H99 H 0.47457 0.21612 0.03285 0.0
H100 H 0.43541 0.24855 0.02892 0.0
H101 H 0.54971 0.26202 0.44478 0.0
H102 H 0.50552 0.25539 0.51871 0.0
H103 H 0.52273 0.303 0.48977 0.0
O104 O 0.08471 0.01092 0.60932 0.0
Zn105 Zn 0.03915 0.00968 0.72298 0.0
O106 O 0.99129 0.99893 0.63552 0.0
Zn107 Zn 0.95773 0.04201 0.64565 0.0
Zn108 Zn 0.00317 0.98832 0.47152 0.0
Zn109 Zn 0.96259 0.95502 0.69383 0.0
O110 O 0.9086 0.03007 0.72792 0.0
O111 O 0.91042 0.96777 0.75944 0.0
O112 O 0.03723 0.06288 0.80084 0.0
O113 O 0.98152 0.08369 0.73992 0.0
O114 O 0.95076 0.06449 0.48597 0.0
O115 O 0.97585 0.02286 0.36062 0.0
O116 O 0.99626 0.93331 0.43361 0.0
O117 O 0.04625 0.96789 0.84972 0.0
O118 O 0.96309 0.90873 0.58227 0.0
O119 O 0.99116 0.93739 0.83005 0.0
C120 C 0.08676 0.00643 0.49725 0.0
C121 C 0.89382 -0.00019 0.77034 0.0
C122 C 0.95965 0.05451 0.38139 0.0
C123 C 0.01224 0.08901 0.79571 0.0
C124 C 0.98021 0.90506 0.48363 0.0
C125 C 0.02245 0.94238 0.88265 0.0
O126 O 0.05759 0.99817 0.43704 0.0
O127 O 0.47985 0.09108 0.62516 0.0
Zn128 Zn 0.48063 0.04355 0.73226 0.0
O129 O 0.49091 0.99665 0.63608 0.0
Zn130 Zn 0.44874 0.96148 0.6473 0.0
Zn131 Zn 0.50019 0.01057 0.47315 0.0
Zn132 Zn 0.53491 0.96752 0.68543 0.0
O133 O 0.46106 0.91417 0.73972 0.0
O134 O 0.52317 0.9158 0.75884 0.0
O135 O 0.42792 0.03996 0.81126 0.0
O136 O 0.40663 0.98522 0.7376 0.0
O137 O 0.42739 0.95001 0.48782 0.0
O138 O 0.46259 0.98531 0.36639 0.0
O139 O 0.55418 0.00252 0.42652 0.0
O140 O 0.52259 0.04965 0.85838 0.0
O141 O 0.57922 0.96751 0.56942 0.0
O142 O 0.55436 0.99657 0.817 0.0
C143 C 0.48474 0.09487 0.51368 0.0
C144 C 0.4914 0.89986 0.77963 0.0
C145 C 0.4346 0.96307 0.38513 0.0
C146 C 0.40158 0.01507 0.7996 0.0
C147 C 0.58235 0.98567 0.47224 0.0
C148 C 0.54947 0.02634 0.87867 0.0
O149 O 0.49238 0.06632 0.44874 0.0
O150 O 0.42094 0.49817 0.64571 0.0
Zn151 Zn 0.46617 0.49528 0.75991 0.0
O152 O 0.51456 0.50581 0.67329 0.0
Zn153 Zn 0.54852 0.46298 0.68801 0.0
Zn154 Zn 0.5041 0.51544 0.50759 0.0
Zn155 Zn 0.5425 0.55015 0.73162 0.0
O156 O 0.59609 0.47567 0.77835 0.0
O157 O 0.59436 0.53851 0.80029 0.0
O158 O 0.46699 0.44138 0.8362 0.0
O159 O 0.52371 0.42183 0.78124 0.0
O160 O 0.55826 0.43905 0.53018 0.0
O161 O 0.5285 0.47682 0.40339 0.0
O162 O 0.51463 0.56966 0.46226 0.0
O163 O 0.45911 0.53603 0.88937 0.0
O164 O 0.54184 0.59591 0.61953 0.0
O165 O 0.5133 0.56776 0.86656 0.0
C166 C 0.41955 0.5035 0.53396 0.0
C167 C 0.6104 0.50653 0.81829 0.0
C168 C 0.54729 0.4468 0.42575 0.0
C169 C 0.49265 0.4158 0.8345 0.0
C170 C 0.52841 0.59858 0.5154 0.0
C171 C 0.48236 0.56217 0.92076 0.0
O172 O 0.44913 0.50966 0.47331 0.0
O173 O 0.95396 0.53767 0.49887 0.0
Zn174 Zn 0.00654 0.54136 0.57784 0.0
O175 O 0.01725 0.49472 0.67398 0.0
Zn176 Zn 0.02464 0.50838 0.83886 0.0
Zn177 Zn 0.97611 0.45836 0.65694 0.0
Zn178 Zn 0.06243 0.46747 0.62615 0.0
O179 O 0.07817 0.49935 0.89428 0.0
O180 O 0.10541 0.46879 0.74509 0.0
O181 O 0.00708 0.58898 0.6835 0.0
O182 O 0.01818 0.56432 0.86135 0.0
O183 O 0.98336 0.48535 0.93786 0.0
O184 O 0.95305 0.4466 0.81371 0.0
O185 O 0.99103 0.41065 0.56877 0.0
O186 O 0.04788 0.548 0.45201 0.0
O187 O 0.05324 0.41491 0.55809 0.0
O188 O 0.0817 0.49626 0.49307 0.0
C189 C 0.92822 0.51197 0.50632 0.0
C190 C 0.10713 0.48417 0.847 0.0
C191 C 0.95661 0.462 0.91508 0.0
C192 C 0.01169 0.5927 0.79491 0.0
C193 C 0.02263 0.3972 0.53539 0.0
C194 C 0.0756 0.52581 0.43153 0.0
O195 O 0.93388 0.48135 0.56388 0.0
C196 C 0.16253 0.99287 0.2615 0.0
C197 C 0.19337 0.01351 0.3064 0.0
C198 C 0.12815 0.99125 0.32337 0.0
C199 C 0.12346 0.00985 0.43341 0.0
H200 H 0.16548 0.97693 0.17987 0.0
H201 H 0.10537 0.97437 0.28592 0.0
S202 S 0.19517 0.07087 0.58196 0.0
N203 N 0.21655 0.05558 0.46094 0.0
N204 N 0.15235 0.05184 0.57962 0.0
C205 C 0.15393 0.03165 0.47705 0.0
C206 C 0.18871 0.03375 0.41277 0.0
C207 C 0.50111 0.17514 0.29221 0.0
C208 C 0.47986 0.20525 0.33882 0.0
C209 C 0.50221 0.13958 0.34926 0.0
C210 C 0.48241 0.13296 0.45599 0.0
H211 H 0.51782 0.17956 0.21298 0.0
H212 H 0.5195 0.11737 0.3107 0.0
S213 S 0.42004 0.2023 0.60782 0.0
N214 N 0.43643 0.22587 0.49175 0.0
N215 N 0.43913 0.15938 0.60157 0.0
C216 C 0.46028 0.16278 0.50171 0.0
C217 C 0.45877 0.19879 0.44227 0.0
C218 C 0.33212 0.54446 0.39171 0.0
C219 C 0.31673 0.51306 0.33016 0.0
C220 C 0.36472 0.54074 0.46125 0.0
C221 C 0.38302 0.50544 0.47185 0.0
H222 H 0.31859 0.57206 0.38636 0.0
H223 H 0.37595 0.56573 0.50593 0.0
S224 S 0.35454 0.41459 0.32841 0.0
N225 N 0.32215 0.44545 0.28575 0.0
N226 N 0.38427 0.43878 0.41315 0.0
C227 C 0.36833 0.47395 0.40978 0.0
C228 C 0.33495 0.47766 0.33967 0.0
C229 C 0.98777 0.31248 0.35425 0.0
C230 C 0.02116 0.29594 0.31199 0.0
C231 C 0.98867 0.34486 0.42698 0.0
C232 C 0.02313 0.36208 0.46066 0.0
H233 H 0.96075 0.29959 0.33279 0.0
H234 H 0.962 0.35627 0.45736 0.0
S235 S 0.11864 0.32936 0.37004 0.0
N236 N 0.08943 0.29863 0.3066 0.0
N237 N 0.09176 0.36 0.4422 0.0
C238 C 0.05685 0.346 0.41656 0.0
C239 C 0.05571 0.31288 0.34232 0.0
C240 C 0.80713 0.97159 0.95425 0.0
C241 C 0.79159 0.00705 0.9847 0.0
C242 C 0.84 0.96938 0.88426 0.0
C243 C 0.85834 0.00262 0.84179 0.0
H244 H 0.79316 0.9455 0.98214 0.0
H245 H 0.85084 0.94139 0.86239 0.0
S246 S 0.82882 0.10249 0.90463 0.0
N247 N 0.79689 0.07577 0.97235 0.0
N248 N 0.85846 0.07238 0.84191 0.0
C249 C 0.84305 0.03831 0.87453 0.0
C250 C 0.80976 0.04032 0.94565 0.0
C251 C 0.52072 0.81584 0.97415 0.0
C252 C 0.4862 0.8034 0.02214 0.0
C253 C 0.52225 0.84691 0.89525 0.0
C254 C 0.4892 0.86634 0.86097 0.0
H255 H 0.5464 0.80066 0.99504 0.0
H256 H 0.54946 0.85536 0.85969 0.0
S257 S 0.39215 0.8455 0.97146 0.0
N258 N 0.41886 0.81316 0.03605 0.0
N259 N 0.42104 0.87155 0.88925 0.0
C260 C 0.4546 0.85439 0.91179 0.0
C261 C 0.4533 0.82294 0.99194 0.0
C262 C 0.70136 0.53483 0.97841 0.0
C263 C 0.71058 0.5014 0.04046 0.0
C264 C 0.66866 0.5366 0.90788 0.0
C265 C 0.64453 0.50466 0.89512 0.0
H266 H 0.72038 0.55915 0.98105 0.0
H267 H 0.66291 0.56275 0.86019 0.0
S268 S 0.65544 0.41137 0.04823 0.0
N269 N 0.69249 0.43672 0.09097 0.0
N270 N 0.63126 0.43939 0.9589 0.0
C271 C 0.65311 0.47146 0.96037 0.0
C272 C 0.68607 0.47 0.03284 0.0
C273 C 0.04766 0.68461 0.92936 0.0
C274 C 0.0154 0.69933 0.98552 0.0
C275 C 0.04586 0.65074 0.86315 0.0
C276 C 0.01166 0.63069 0.85032 0.0
H277 H 0.07447 0.69941 0.93752 0.0
H278 H 0.0715 0.63977 0.8236 0.0
S279 S 0.91909 0.6575 0.97732 0.0
N280 N 0.94813 0.69185 0.02103 0.0
N281 N 0.94496 0.62752 0.89899 0.0
C282 C 0.97921 0.64505 0.9056 0.0
C283 C 0.98101 0.6796 0.97267 0.0
C284 C 0.953 0.15344 0.26339 0.0
C285 C 0.99103 0.16053 0.23549 0.0
C286 C 0.94087 0.11674 0.29586 0.0
C287 C 0.96637 0.08609 0.29845 0.0
H288 H 0.93321 0.17687 0.26671 0.0
H289 H 0.91229 0.11293 0.32832 0.0
S290 S 0.06856 0.09029 0.22512 0.0
N291 N 0.05371 0.1346 0.21048 0.0
N292 N 0.0307 0.06498 0.26001 0.0
C293 C 0.00369 0.09246 0.25934 0.0
C294 C 0.0162 0.12999 0.23153 0.0
C295 C 0.35555 0.01086 0.23396 0.0
C296 C 0.32755 0.98245 0.23295 0.0
C297 C 0.39255 0.00245 0.2655 0.0
C298 C 0.40239 0.96562 0.30391 0.0
H299 H 0.34824 0.04033 0.21811 0.0
H300 H 0.41234 0.02607 0.27298 0.0
S301 S 0.34054 0.87993 0.29985 0.0
N302 N 0.31306 0.91494 0.25402 0.0
N303 N 0.38233 0.8995 0.32588 0.0
C304 C 0.37526 0.9363 0.29571 0.0
C305 C 0.33777 0.94469 0.25819 0.0
C306 C 0.49287 0.37106 0.27269 0.0
C307 C 0.51766 0.34011 0.27591 0.0
C308 C 0.50496 0.4076 0.3042 0.0
C309 C 0.54189 0.41407 0.34602 0.0
H310 H 0.46328 0.36653 0.25334 0.0
H311 H 0.48388 0.42989 0.3085 0.0
S312 S 0.61921 0.3434 0.35209 0.0
N313 N 0.5822 0.319 0.30377 0.0
N314 N 0.6044 0.38749 0.37501 0.0
C315 C 0.56773 0.38386 0.34156 0.0
C316 C 0.55567 0.34681 0.30435 0.0
C317 C 0.15629 0.50101 0.24588 0.0
C318 C 0.18041 0.53236 0.26338 0.0
C319 C 0.11868 0.5023 0.28106 0.0
C320 C 0.10454 0.53408 0.34256 0.0
H321 H 0.16718 0.47434 0.21222 0.0
H322 H 0.10195 0.47635 0.27391 0.0
S323 S 0.15499 0.62535 0.39619 0.0
N324 N 0.18637 0.59821 0.32843 0.0
N325 N 0.11601 0.59933 0.40698 0.0
C326 C 0.12734 0.56685 0.35205 0.0
C327 C 0.16548 0.56606 0.31119 0.0
C328 C 8e-05 0.86122 0.07805 0.0
C329 C 0.03138 0.83754 0.06129 0.0
C330 C 0.00037 0.8988 0.03764 0.0
C331 C 0.03116 0.91339 0.97262 0.0
H332 H 0.97404 0.8498 0.11372 0.0
H333 H 0.97443 0.91495 0.04445 0.0
S334 S 0.12252 0.86496 0.9237 0.0
N335 N 0.09651 0.83317 0.9956 0.0
N336 N 0.09589 0.90328 0.9088 0.0
C337 C 0.0641 0.89141 0.96556 0.0
C338 C 0.06428 0.85334 0.01115 0.0
C339 C 0.64152 0.06 0.99462 0.0
C340 C 0.65464 0.02566 0.04412 0.0
C341 C 0.6039 0.06334 0.95635 0.0
C342 C 0.57844 0.03266 0.96943 0.0
H343 H 0.66104 0.08341 0.97932 0.0
H344 H 0.59588 0.08833 0.90601 0.0
S345 S 0.59802 0.93843 0.10365 0.0
N346 N 0.63899 0.96112 0.10541 0.0
N347 N 0.56753 0.96921 0.04936 0.0
C348 C 0.59032 0.00015 0.0317 0.0
C349 C 0.62879 0.99591 0.06359 0.0
C350 C 0.50352 0.64409 0.11386 0.0
C351 C 0.47084 0.66617 0.10345 0.0
C352 C 0.50443 0.60667 0.07273 0.0
C353 C 0.47348 0.59075 0.01193 0.0
H354 H 0.52959 0.65675 0.14483 0.0
H355 H 0.53121 0.59184 0.07522 0.0
S356 S 0.37903 0.63439 0.98057 0.0
N357 N 0.40453 0.66731 0.04932 0.0
N358 N 0.40733 0.59762 0.95929 0.0
C359 C 0.43938 0.611 0.01102 0.0
C360 C 0.43799 0.64885 0.05831 0.0
C361 C 0.86838 0.4484 0.10073 0.0
C362 C 0.84678 0.47947 0.06146 0.0
C363 C 0.90517 0.44274 0.05716 0.0
C364 C 0.92102 0.46882 0.9765 0.0
H365 H 0.85636 0.42816 0.16289 0.0
H366 H 0.9209 0.41785 0.08466 0.0
S367 S 0.87555 0.55479 0.85055 0.0
N368 N 0.84342 0.5362 0.93991 0.0
N369 N 0.91265 0.52664 0.86044 0.0
C370 C 0.89975 0.50038 0.93977 0.0
C371 C 0.8625 0.50549 0.98178 0.0
C372 C 0.98654 0.17929 0.96197 0.0
C373 C 0.02091 0.19123 0.01133 0.0
C374 C 0.98455 0.14735 0.8878 0.0
C375 C 0.01692 0.1257 0.861 0.0
H376 H 0.96055 0.19284 0.98953 0.0
H377 H 0.95689 0.13825 0.85768 0.0
S378 S 0.11487 0.14959 0.95258 0.0
N379 N 0.08874 0.18285 0.01581 0.0
N380 N 0.08534 0.12196 0.87771 0.0
C381 C 0.05206 0.13945 0.90162 0.0
C382 C 0.05401 0.17264 0.97563 0.0
C383 C 0.31009 0.98524 0.95044 0.0
C384 C 0.2996 0.01777 0.01445 0.0
C385 C 0.34187 0.98551 0.87663 0.0
C386 C 0.36508 0.01828 0.86529 0.0
H387 H 0.2952 0.95853 0.96503 0.0
H388 H 0.34949 0.95892 0.83406 0.0
S389 S 0.34669 0.11241 0.00458 0.0
N390 N 0.31201 0.08474 0.05321 0.0
N391 N 0.37255 0.08549 0.91615 0.0
C392 C 0.35324 0.05191 0.9226 0.0
C393 C 0.32021 0.05166 0.9962 0.0
C394 C 0.45101 0.33748 0.03289 0.0
C395 C 0.48243 0.31413 0.05425 0.0
C396 C 0.4538 0.36955 0.95783 0.0
C397 C 0.48806 0.37902 0.90069 0.0
H398 H 0.4252 0.3328 0.08244 0.0
H399 H 0.4295 0.38796 0.9491 0.0
S400 S 0.57707 0.32308 0.91907 0.0
N401 N 0.54728 0.30016 0.00654 0.0
N402 N 0.55307 0.35908 0.86333 0.0
C403 C 0.51872 0.35364 0.91481 0.0
C404 C 0.51571 0.32148 0.99172 0.0
C405 C 0.18778 0.53721 0.99333 0.0
C406 C 0.21128 0.50786 0.03428 0.0
C407 C 0.15471 0.52905 0.93007 0.0
C408 C 0.14442 0.49126 0.9021 0.0
H409 H 0.19316 0.56639 0.02072 0.0
H410 H 0.13626 0.55245 0.90675 0.0
S411 S 0.19885 0.40445 0.97424 0.0
N412 N 0.22368 0.43974 0.03344 0.0
N413 N 0.1624 0.42453 0.90811 0.0
C414 C 0.16953 0.46191 0.93174 0.0
C415 C 0.20297 0.47021 0.99863 0.0
C416 C 0.03408 0.82606 0.3363 0.0
C417 C 0.00547 0.8032 0.28721 0.0
C418 C 0.02536 0.8575 0.4074 0.0
C419 C 0.98769 0.86692 0.43335 0.0
H420 H 0.06318 0.82161 0.31029 0.0
H421 H 0.04822 0.87599 0.43632 0.0
S422 S 0.90266 0.81327 0.33843 0.0
N423 N 0.93819 0.78981 0.27807 0.0
N424 N 0.92175 0.84869 0.41503 0.0
C425 C 0.95895 0.84218 0.39471 0.0
C426 C 0.96789 0.81015 0.32116 0.0
C427 C 0.67875 0.96956 0.33025 0.0
C428 C 0.68603 0.00569 0.27976 0.0
C429 C 0.64605 0.96315 0.39941 0.0
C430 C 0.62003 0.99275 0.41911 0.0
H431 H 0.696 0.94541 0.30549 0.0
H432 H 0.63969 0.93445 0.42944 0.0
S433 S 0.63239 0.09435 0.33323 0.0
N434 N 0.66937 0.07259 0.2758 0.0
N435 N 0.60794 0.06085 0.40262 0.0
C436 C 0.62977 0.02978 0.3812 0.0
C437 C 0.66304 0.03624 0.3133 0.0
C438 C 0.5372 0.69344 0.35349 0.0
C439 C 0.4991 0.70066 0.32564 0.0
C440 C 0.54722 0.66154 0.42283 0.0
C441 C 0.51927 0.63644 0.46603 0.0
H442 H 0.55932 0.71009 0.31148 0.0
H443 H 0.5768 0.65496 0.43504 0.0
S444 S 0.41569 0.64737 0.43549 0.0
N445 N 0.43372 0.68367 0.36066 0.0
N446 N 0.45213 0.62405 0.49007 0.0
C447 C 0.48118 0.64584 0.44856 0.0
C448 C 0.47118 0.67809 0.37926 0.0
C449 C 0.85695 0.53817 0.26748 0.0
C450 C 0.82644 0.5134 0.29189 0.0
C451 C 0.889 0.53946 0.34098 0.0
C452 C 0.89167 0.51592 0.44165 0.0
H453 H 0.85692 0.55498 0.18714 0.0
H454 H 0.91265 0.55732 0.31477 0.0
S455 S 0.81619 0.45096 0.55387 0.0
N456 N 0.79888 0.46826 0.42941 0.0
N457 N 0.85818 0.47108 0.57009 0.0
C458 C 0.85976 0.49348 0.47196 0.0
C459 C 0.82737 0.49218 0.39663 0.0
loop_
_geom_bond_atom_site_label_1
_geom_bond_atom_site_label_2
_geom_bond_distance
_geom_bond_site_symmetry_2
_ccdc_geom_bond_type
C0 N1 1.317 . S
C0 N2 1.348 1_554 S
C0 C3 1.485 . S
N1 C0 1.317 . S
N1 N5 1.370 1_554 S
N2 C0 1.348 1_556 S
N2 C4 1.346 . S
C3 C0 1.485 . S
C3 H7 0.960 . S
C3 H8 0.961 . S
C3 H9 0.960 . S
C4 N2 1.346 . S
C4 N5 1.307 . S
C4 C6 1.486 . S
N5 N1 1.370 1_556 S
N5 C4 1.307 . S
C6 C4 1.486 . S
C6 H10 0.960 . S
C6 H11 0.960 . S
C6 H12 0.959 . S
H7 C3 0.960 . S
H8 C3 0.961 . S
H9 C3 0.960 . S
H10 C6 0.960 . S
H11 C6 0.960 . S
H12 C6 0.959 . S
C13 N14 1.317 . S
C13 N15 1.348 . S
C13 C16 1.485 . S
N14 C13 1.317 . S
N14 N18 1.370 1_655 S
N15 C13 1.348 . S
N15 C17 1.346 1_554 S
C16 C13 1.485 . S
C16 H20 0.960 1_655 S
C16 H21 0.961 . S
C16 H22 0.960 . S
C17 N15 1.346 1_556 S
C17 N18 1.307 1_656 S
C17 C19 1.486 1_655 S
N18 N14 1.370 1_455 S
N18 C17 1.307 1_454 S
C19 C17 1.486 1_455 S
C19 H23 0.960 1_455 S
C19 H24 0.960 . S
C19 H25 0.959 . S
H20 C16 0.960 1_455 S
H21 C16 0.961 . S
H22 C16 0.960 . S
H23 C19 0.960 1_655 S
H24 C19 0.960 . S
H25 C19 0.959 . S
C26 N27 1.317 . S
C26 N28 1.348 . S
C26 C29 1.485 . S
N27 C26 1.317 . S
N27 N31 1.371 . S
N28 C26 1.348 . S
N28 C30 1.346 1_564 S
C29 C26 1.485 . S
C29 H33 0.960 1_565 S
C29 H34 0.961 . S
C29 H35 0.960 . S
C30 N28 1.346 1_546 S
C30 N31 1.307 1_546 S
C30 C32 1.486 . S
N31 N27 1.371 . S
N31 C30 1.307 1_564 S
C32 C30 1.486 . S
C32 H36 0.960 1_545 S
C32 H37 0.960 . S
C32 H38 0.959 . S
H33 C29 0.960 1_545 S
H34 C29 0.961 . S
H35 C29 0.960 . S
H36 C32 0.960 1_565 S
H37 C32 0.960 . S
H38 C32 0.959 . S
C39 N40 1.317 . S
C39 N41 1.348 . S
C39 C42 1.485 . S
N40 C39 1.317 . S
N40 N44 1.370 1_554 S
N41 C39 1.348 . S
N41 C43 1.346 1_554 S
C42 C39 1.485 . S
C42 H46 0.960 . S
C42 H47 0.961 . S
C42 H48 0.960 . S
C43 N41 1.346 1_556 S
C43 N44 1.307 . S
C43 C45 1.486 . S
N44 N40 1.370 1_556 S
N44 C43 1.307 . S
C45 C43 1.486 . S
C45 H49 0.960 . S
C45 H50 0.960 . S
C45 H51 0.959 . S
H46 C42 0.960 . S
H47 C42 0.961 . S
H48 C42 0.960 . S
H49 C45 0.960 . S
H50 C45 0.960 . S
H51 C45 0.959 . S
C52 N53 1.317 . S
C52 N54 1.348 . S
C52 C55 1.485 . S
N53 C52 1.317 . S
N53 N57 1.370 . S
N54 C52 1.348 . S
N54 C56 1.346 . S
C55 C52 1.485 . S
C55 H59 0.960 . S
C55 H60 0.961 . S
C55 H61 0.960 1_554 S
C56 N54 1.346 . S
C56 N57 1.307 . S
C56 C58 1.486 . S
N57 N53 1.370 . S
N57 C56 1.307 . S
C58 C56 1.486 . S
C58 H62 0.960 . S
C58 H63 0.960 . S
C58 H64 0.959 . S
H59 C55 0.960 . S
H60 C55 0.961 . S
H61 C55 0.960 1_556 S
H62 C58 0.960 . S
H63 C58 0.960 . S
H64 C58 0.959 . S
C65 N66 1.317 . S
C65 N67 1.348 . S
C65 C68 1.485 . S
N66 C65 1.317 . S
N66 N70 1.370 . S
N67 C65 1.348 . S
N67 C69 1.346 . S
C68 C65 1.485 . S
C68 H72 0.960 . S
C68 H73 0.961 . S
C68 H74 0.960 . S
C69 N67 1.346 . S
C69 N70 1.307 . S
C69 C71 1.486 . S
N70 N66 1.370 . S
N70 C69 1.307 . S
C71 C69 1.486 . S
C71 H75 0.960 . S
C71 H76 0.960 . S
C71 H77 0.959 . S
H72 C68 0.960 . S
H73 C68 0.961 . S
H74 C68 0.960 . S
H75 C71 0.960 . S
H76 C71 0.960 . S
H77 C71 0.959 . S
C78 N79 1.317 . S
C78 N80 1.348 . S
C78 C81 1.485 . S
N79 C78 1.317 . S
N79 N83 1.370 . S
N80 C78 1.348 . S
N80 C82 1.346 . S
C81 C78 1.485 . S
C81 H85 0.960 . S
C81 H86 0.961 1_545 S
C81 H87 0.960 1_545 S
C82 N80 1.346 . S
C82 N83 1.307 . S
C82 C84 1.486 . S
N83 N79 1.370 . S
N83 C82 1.307 . S
C84 C82 1.486 . S
C84 H88 0.960 1_545 S
C84 H89 0.960 . S
C84 H90 0.959 . S
H85 C81 0.960 . S
H86 C81 0.961 1_565 S
H87 C81 0.960 1_565 S
H88 C84 0.960 1_565 S
H89 C84 0.960 . S
H90 C84 0.959 . S
C91 N92 1.317 . S
C91 N93 1.348 . S
C91 C94 1.485 . S
N92 C91 1.317 . S
N92 N96 1.370 . S
N93 C91 1.348 . S
N93 C95 1.346 . S
C94 C91 1.485 . S
C94 H98 0.960 . S
C94 H99 0.961 . S
C94 H100 0.960 . S
C95 N93 1.346 . S
C95 N96 1.307 . S
C95 C97 1.486 . S
N96 N92 1.370 . S
N96 C95 1.307 . S
C97 C95 1.486 . S
C97 H101 0.960 . S
C97 H102 0.960 . S
C97 H103 0.959 . S
H98 C94 0.960 . S
H99 C94 0.961 . S
H100 C94 0.960 . S
H101 C97 0.960 . S
H102 C97 0.960 . S
H103 C97 0.959 . S
O104 Zn105 1.953 . S
O104 C120 1.225 1_545 S
Zn105 O104 1.953 . S
Zn105 O106 1.948 1_545 S
Zn105 O112 1.919 . S
Zn105 O117 1.924 1_545 S
O106 Zn105 1.948 1_565 S
O106 Zn107 1.898 1_465 S
O106 Zn108 1.953 . S
O106 Zn109 1.968 1_455 S
Zn107 O106 1.898 1_645 S
Zn107 O110 1.933 . S
Zn107 O113 1.941 1_655 S
Zn107 O114 1.965 . S
Zn108 O106 1.953 . S
Zn108 O115 1.938 1_565 S
Zn108 O116 1.906 . S
Zn108 O126 1.953 . S
Zn109 O106 1.968 1_655 S
Zn109 O111 1.932 . S
Zn109 O118 1.977 . S
Zn109 O119 1.910 1_655 S
O110 Zn107 1.933 . S
O110 C121 1.226 . S
O111 Zn109 1.932 . S
O111 C121 1.307 1_565 S
O112 Zn105 1.919 . S
O112 C123 1.253 . S
O113 Zn107 1.941 1_455 S
O113 C123 1.283 . S
O114 Zn107 1.965 . S
O114 C122 1.303 1_655 S
O115 Zn108 1.938 1_545 S
O115 C122 1.247 . S
O116 Zn108 1.906 . S
O116 C124 1.304 1_455 S
O117 Zn105 1.924 1_565 S
O117 C125 1.311 . S
O118 Zn109 1.977 . S
O118 C124 1.272 . S
O119 Zn109 1.910 1_455 S
O119 C125 1.231 . S
C120 O104 1.225 1_565 S
C120 O126 1.298 . S
C121 O110 1.226 . S
C121 O111 1.307 1_545 S
C122 O114 1.303 1_455 S
C122 O115 1.247 . S
C123 O112 1.253 . S
C123 O113 1.283 . S
C124 O116 1.304 1_655 S
C124 O118 1.272 . S
C125 O117 1.311 . S
C125 O119 1.231 . S
O126 Zn108 1.953 . S
O126 C120 1.298 . S
O127 Zn128 1.953 . S
O127 C143 1.225 . S
Zn128 O127 1.953 . S
Zn128 O129 1.949 . S
Zn128 O135 1.919 . S
Zn128 O140 1.924 . S
O129 Zn128 1.949 . S
O129 Zn130 1.923 1_545 S
O129 Zn131 1.950 . S
O129 Zn132 1.945 1_545 S
Zn130 O129 1.923 1_565 S
Zn130 O133 1.933 . S
Zn130 O136 1.941 . S
Zn130 O137 1.965 . S
Zn131 O129 1.950 . S
Zn131 O138 1.938 . S
Zn131 O139 1.906 . S
Zn131 O149 1.953 . S
Zn132 O129 1.945 1_565 S
Zn132 O134 1.932 . S
Zn132 O141 1.977 . S
Zn132 O142 1.910 1_565 S
O133 Zn130 1.933 . S
O133 C144 1.226 . S
O134 Zn132 1.932 . S
O134 C144 1.307 . S
O135 Zn128 1.919 . S
O135 C146 1.253 . S
O136 Zn130 1.941 . S
O136 C146 1.283 1_565 S
O137 Zn130 1.965 . S
O137 C145 1.303 1_565 S
O138 Zn131 1.938 . S
O138 C145 1.247 . S
O139 Zn131 1.906 . S
O139 C147 1.304 1_545 S
O140 Zn128 1.924 . S
O140 C148 1.311 . S
O141 Zn132 1.977 . S
O141 C147 1.272 . S
O142 Zn132 1.910 1_545 S
O142 C148 1.231 . S
C143 O127 1.225 . S
C143 O149 1.298 . S
C144 O133 1.226 . S
C144 O134 1.307 . S
C145 O137 1.303 1_545 S
C145 O138 1.247 . S
C146 O135 1.253 . S
C146 O136 1.283 1_545 S
C147 O139 1.304 1_565 S
C147 O141 1.272 . S
C148 O140 1.311 . S
C148 O142 1.231 . S
O149 Zn131 1.953 . S
O149 C143 1.298 . S
O150 Zn151 1.953 . S
O150 C166 1.225 . S
Zn151 O150 1.953 . S
Zn151 O152 1.949 . S
Zn151 O158 1.919 . S
Zn151 O163 1.924 . S
O152 Zn151 1.949 . S
O152 Zn153 1.923 . S
O152 Zn154 1.950 . S
O152 Zn155 1.945 . S
Zn153 O152 1.923 . S
Zn153 O156 1.933 . S
Zn153 O159 1.941 . S
Zn153 O160 1.965 . S
Zn154 O152 1.950 . S
Zn154 O161 1.938 . S
Zn154 O162 1.906 . S
Zn154 O172 1.953 . S
Zn155 O152 1.945 . S
Zn155 O157 1.932 . S
Zn155 O164 1.977 . S
Zn155 O165 1.910 . S
O156 Zn153 1.933 . S
O156 C167 1.226 . S
O157 Zn155 1.932 . S
O157 C167 1.307 . S
O158 Zn151 1.919 . S
O158 C169 1.253 . S
O159 Zn153 1.941 . S
O159 C169 1.283 . S
O160 Zn153 1.965 . S
O160 C168 1.303 . S
O161 Zn154 1.938 . S
O161 C168 1.247 . S
O162 Zn154 1.906 . S
O162 C170 1.304 . S
O163 Zn151 1.924 . S
O163 C171 1.311 . S
O164 Zn155 1.977 . S
O164 C170 1.272 . S
O165 Zn155 1.910 . S
O165 C171 1.231 . S
C166 O150 1.225 . S
C166 O172 1.298 . S
C167 O156 1.226 . S
C167 O157 1.307 . S
C168 O160 1.303 . S
C168 O161 1.247 . S
C169 O158 1.253 . S
C169 O159 1.283 . S
C170 O162 1.304 . S
C170 O164 1.272 . S
C171 O163 1.311 . S
C171 O165 1.231 . S
O172 Zn154 1.953 . S
O172 C166 1.298 . S
O173 Zn174 1.953 1_655 S
O173 C189 1.225 . S
Zn174 O173 1.953 1_455 S
Zn174 O175 1.949 . S
Zn174 O181 1.919 . S
Zn174 O186 1.924 . S
O175 Zn174 1.949 . S
O175 Zn176 1.918 1_455 S
O175 Zn177 1.928 1_455 S
O175 Zn178 1.973 . S
Zn176 O175 1.918 1_655 S
Zn176 O179 1.933 1_655 S
Zn176 O182 1.941 . S
Zn176 O183 1.965 . S
Zn177 O175 1.928 1_655 S
Zn177 O184 1.938 . S
Zn177 O185 1.906 . S
Zn177 O195 1.953 . S
Zn178 O175 1.973 . S
Zn178 O180 1.932 . S
Zn178 O187 1.977 . S
Zn178 O188 1.910 . S
O179 Zn176 1.933 1_455 S
O179 C190 1.226 . S
O180 Zn178 1.932 . S
O180 C190 1.307 . S
O181 Zn174 1.919 . S
O181 C192 1.253 . S
O182 Zn176 1.941 . S
O182 C192 1.281 1_655 S
O183 Zn176 1.965 . S
O183 C191 1.303 . S
O184 Zn177 1.938 . S
O184 C191 1.247 . S
O185 Zn177 1.906 . S
O185 C193 1.304 1_655 S
O186 Zn174 1.924 . S
O186 C194 1.311 . S
O187 Zn178 1.977 . S
O187 C193 1.272 . S
O188 Zn178 1.910 . S
O188 C194 1.231 . S
C189 O173 1.225 . S
C189 O195 1.298 . S
C190 O179 1.226 . S
C190 O180 1.307 . S
C191 O183 1.303 . S
C191 O184 1.247 . S
C192 O181 1.253 . S
C192 O182 1.281 1_455 S
C193 O185 1.304 1_455 S
C193 O187 1.272 . S
C194 O186 1.311 . S
C194 O188 1.231 . S
O195 Zn177 1.953 . S
O195 C189 1.298 . S
C196 C197 1.369 1_565 S
C196 C198 1.419 . S
C196 H200 0.930 . S
C197 C196 1.369 1_545 S
C197 C206 1.429 . S
C198 C196 1.419 . S
C198 C199 1.368 . S
C198 H201 0.929 . S
C199 C198 1.368 . S
C199 C205 1.421 1_565 S
H200 C196 0.930 . S
H201 C198 0.929 . S
S202 N203 1.613 . S
S202 N204 1.610 . S
N203 S202 1.613 . S
N203 C206 1.350 . S
N204 S202 1.610 . S
N204 C205 1.351 . S
C205 C199 1.421 1_545 S
C205 N204 1.351 . S
C205 C206 1.434 . S
C206 C197 1.429 . S
C206 N203 1.350 . S
C206 C205 1.434 . S
C207 C208 1.369 . S
C207 C209 1.419 . S
C207 H211 0.930 . S
C208 C207 1.369 . S
C208 C217 1.429 . S
C209 C207 1.419 . S
C209 C210 1.363 . S
C209 H212 0.929 . S
C210 C209 1.363 . S
C210 C216 1.428 . S
H211 C207 0.930 . S
H212 C209 0.929 . S
S213 N214 1.613 . S
S213 N215 1.610 . S
N214 S213 1.613 . S
N214 C217 1.350 . S
N215 S213 1.610 . S
N215 C216 1.351 . S
C216 C210 1.428 . S
C216 N215 1.351 . S
C216 C217 1.434 . S
C217 C208 1.429 . S
C217 N214 1.350 . S
C217 C216 1.434 . S
C218 C219 1.369 . S
C218 C220 1.419 . S
C218 H222 0.930 . S
C219 C218 1.369 . S
C219 C228 1.429 . S
C220 C218 1.419 . S
C220 C221 1.363 . S
C220 H223 0.929 . S
C221 C220 1.363 . S
C221 C227 1.428 . S
H222 C218 0.930 . S
H223 C220 0.929 . S
S224 N225 1.613 . S
S224 N226 1.610 . S
N225 S224 1.613 . S
N225 C228 1.350 . S
N226 S224 1.610 . S
N226 C227 1.351 . S
C227 C221 1.428 . S
C227 N226 1.351 . S
C227 C228 1.434 . S
C228 C219 1.429 . S
C228 N225 1.350 . S
C228 C227 1.434 . S
C229 C230 1.369 . S
C229 C231 1.419 . S
C229 H233 0.930 . S
C230 C229 1.369 . S
C230 C239 1.429 . S
C231 C229 1.419 . S
C231 C232 1.363 . S
C231 H234 0.929 . S
C232 C231 1.363 . S
C232 C238 1.428 . S
H233 C229 0.930 . S
H234 C231 0.929 . S
S235 N236 1.613 . S
S235 N237 1.610 . S
N236 S235 1.613 . S
N236 C239 1.350 . S
N237 S235 1.610 . S
N237 C238 1.351 . S
C238 C232 1.428 . S
C238 N237 1.351 . S
C238 C239 1.434 . S
C239 C230 1.429 . S
C239 N236 1.350 . S
C239 C238 1.434 . S
C240 C241 1.359 1_565 S
C240 C242 1.419 . S
C240 H244 0.930 . S
C241 C240 1.359 1_545 S
C241 C250 1.440 . S
C242 C240 1.419 . S
C242 C243 1.363 1_565 S
C242 H245 0.929 . S
C243 C242 1.363 1_545 S
C243 C249 1.428 . S
H244 C240 0.930 . S
H245 C242 0.929 . S
S246 N247 1.613 . S
S246 N248 1.610 1_554 S
N247 S246 1.613 . S
N247 C250 1.350 1_554 S
N248 S246 1.610 1_556 S
N248 C249 1.351 . S
C249 C243 1.428 . S
C249 N248 1.351 . S
C249 C250 1.434 . S
C250 C241 1.440 . S
C250 N247 1.350 1_556 S
C250 C249 1.434 . S
C251 C252 1.369 . S
C251 C253 1.419 . S
C251 H255 0.930 . S
C252 C251 1.369 . S
C252 C261 1.429 . S
C253 C251 1.419 . S
C253 C254 1.363 . S
C253 H256 0.929 . S
C254 C253 1.363 . S
C254 C260 1.428 . S
H255 C251 0.930 . S
H256 C253 0.929 . S
S257 N258 1.613 . S
S257 N259 1.610 1_554 S
N258 S257 1.613 . S
N258 C261 1.350 1_554 S
N259 S257 1.610 1_556 S
N259 C260 1.351 . S
C260 C254 1.428 . S
C260 N259 1.351 . S
C260 C261 1.434 . S
C261 C252 1.429 . S
C261 N258 1.350 1_556 S
C261 C260 1.434 . S
C262 C263 1.369 . S
C262 C264 1.419 . S
C262 H266 0.933 . S
C263 C262 1.369 . S
C263 C272 1.429 . S
C264 C262 1.419 . S
C264 C265 1.363 . S
C264 H267 0.929 . S
C265 C264 1.363 . S
C265 C271 1.428 . S
H266 C262 0.933 . S
H267 C264 0.929 . S
S268 N269 1.613 . S
S268 N270 1.610 . S
N269 S268 1.613 . S
N269 C272 1.350 . S
N270 S268 1.610 . S
N270 C271 1.351 . S
C271 C265 1.428 . S
C271 N270 1.351 . S
C271 C272 1.434 . S
C272 C263 1.429 . S
C272 N269 1.350 . S
C272 C271 1.434 . S
C273 C274 1.365 1_456 S
C273 C275 1.419 . S
C273 H277 0.930 . S
C274 C273 1.365 1_654 S
C274 C283 1.430 . S
C275 C273 1.419 . S
C275 C276 1.363 . S
C275 H278 0.929 . S
C276 C275 1.363 . S
C276 C282 1.428 1_455 S
H277 C273 0.930 . S
H278 C275 0.929 . S
S279 N280 1.613 . S
S279 N281 1.610 1_554 S
N280 S279 1.613 . S
N280 C283 1.350 . S
N281 S279 1.610 1_556 S
N281 C282 1.351 . S
C282 C276 1.428 1_655 S
C282 N281 1.351 . S
C282 C283 1.434 1_556 S
C283 C274 1.430 . S
C283 N280 1.350 . S
C283 C282 1.434 1_554 S
C284 C285 1.369 . S
C284 C286 1.419 . S
C284 H288 0.930 . S
C285 C284 1.369 . S
C285 C294 1.429 . S
C286 C284 1.419 . S
C286 C287 1.363 . S
C286 H289 0.929 . S
C287 C286 1.363 . S
C287 C293 1.428 . S
H288 C284 0.930 . S
H289 C286 0.929 . S
S290 N291 1.613 . S
S290 N292 1.610 . S
N291 S290 1.613 . S
N291 C294 1.350 . S
N292 S290 1.610 . S
N292 C293 1.351 . S
C293 C287 1.428 . S
C293 N292 1.351 . S
C293 C294 1.434 . S
C294 C285 1.429 . S
C294 N291 1.350 . S
C294 C293 1.434 . S
C295 C296 1.369 . S
C295 C297 1.419 . S
C295 H299 0.930 . S
C296 C295 1.369 . S
C296 C305 1.433 . S
C297 C295 1.419 . S
C297 C298 1.363 . S
C297 H300 0.929 . S
C298 C297 1.363 . S
C298 C304 1.431 . S
H299 C295 0.930 . S
H300 C297 0.929 . S
S301 N302 1.613 . S
S301 N303 1.610 . S
N302 S301 1.613 . S
N302 C305 1.345 1_565 S
N303 S301 1.610 . S
N303 C304 1.347 1_565 S
C304 C298 1.431 . S
C304 N303 1.347 1_545 S
C304 C305 1.434 . S
C305 C296 1.433 . S
C305 N302 1.345 1_545 S
C305 C304 1.434 . S
C306 C307 1.369 . S
C306 C308 1.419 . S
C306 H310 0.930 . S
C307 C306 1.369 . S
C307 C316 1.429 . S
C308 C306 1.419 . S
C308 C309 1.363 . S
C308 H311 0.929 . S
C309 C308 1.363 . S
C309 C315 1.428 . S
H310 C306 0.930 . S
H311 C308 0.929 . S
S312 N313 1.613 . S
S312 N314 1.610 . S
N313 S312 1.613 . S
N313 C316 1.350 . S
N314 S312 1.610 . S
N314 C315 1.351 . S
C315 C309 1.428 . S
C315 N314 1.351 . S
C315 C316 1.434 . S
C316 C307 1.429 . S
C316 N313 1.350 . S
C316 C315 1.434 . S
C317 C318 1.369 . S
C317 C319 1.419 . S
C317 H321 0.930 . S
C318 C317 1.369 . S
C318 C327 1.429 . S
C319 C317 1.419 . S
C319 C320 1.363 . S
C319 H322 0.929 . S
C320 C319 1.363 . S
C320 C326 1.428 . S
H321 C317 0.930 . S
H322 C319 0.929 . S
S323 N324 1.613 . S
S323 N325 1.610 . S
N324 S323 1.613 . S
N324 C327 1.350 . S
N325 S323 1.610 . S
N325 C326 1.351 . S
C326 C320 1.428 . S
C326 N325 1.351 . S
C326 C327 1.434 . S
C327 C318 1.429 . S
C327 N324 1.350 . S
C327 C326 1.434 . S
C328 C329 1.369 1_655 S
C328 C330 1.419 1_654 S
C328 H332 0.930 . S
C329 C328 1.369 1_455 S
C329 C338 1.429 1_554 S
C330 C328 1.419 1_456 S
C330 C331 1.363 . S
C330 H333 0.929 1_556 S
C331 C330 1.363 . S
C331 C337 1.428 . S
H332 C328 0.930 . S
H333 C330 0.929 1_554 S
S334 N335 1.613 . S
S334 N336 1.610 . S
N335 S334 1.613 . S
N335 C338 1.350 . S
N336 S334 1.610 . S
N336 C337 1.351 . S
C337 C331 1.428 . S
C337 N336 1.351 . S
C337 C338 1.434 . S
C338 C329 1.429 1_556 S
C338 N335 1.350 . S
C338 C337 1.434 . S
C339 C340 1.369 . S
C339 C341 1.419 . S
C339 H343 0.930 1_556 S
C340 C339 1.369 . S
C340 C349 1.429 1_545 S
C341 C339 1.419 . S
C341 C342 1.363 . S
C341 H344 0.929 . S
C342 C341 1.363 . S
C342 C348 1.428 . S
H343 C339 0.930 1_554 S
H344 C341 0.929 . S
S345 N346 1.613 . S
S345 N347 1.610 . S
N346 S345 1.613 . S
N346 C349 1.350 . S
N347 S345 1.610 . S
N347 C348 1.351 1_565 S
C348 C342 1.428 . S
C348 N347 1.351 1_545 S
C348 C349 1.434 1_545 S
C349 C340 1.429 1_565 S
C349 N346 1.350 . S
C349 C348 1.434 1_565 S
C350 C351 1.369 . S
C350 C352 1.419 . S
C350 H354 0.930 1_556 S
C351 C350 1.369 . S
C351 C360 1.429 . S
C352 C350 1.419 . S
C352 C353 1.363 . S
C352 H355 0.929 . S
C353 C352 1.363 . S
C353 C359 1.428 . S
H354 C350 0.930 1_554 S
H355 C352 0.929 . S
S356 N357 1.613 . S
S356 N358 1.610 . S
N357 S356 1.613 . S
N357 C360 1.350 . S
N358 S356 1.610 . S
N358 C359 1.351 . S
C359 C353 1.428 . S
C359 N358 1.351 . S
C359 C360 1.434 . S
C360 C351 1.429 . S
C360 N357 1.350 . S
C360 C359 1.434 . S
C361 C362 1.369 . S
C361 C363 1.419 . S
C361 H365 0.930 . S
C362 C361 1.369 . S
C362 C371 1.429 . S
C363 C361 1.419 . S
C363 C364 1.363 . S
C363 H366 0.929 . S
C364 C363 1.363 . S
C364 C370 1.428 . S
H365 C361 0.930 . S
H366 C363 0.929 . S
S367 N368 1.613 . S
S367 N369 1.610 . S
N368 S367 1.613 . S
N368 C371 1.350 . S
N369 S367 1.610 . S
N369 C370 1.351 . S
C370 C364 1.428 . S
C370 N369 1.351 . S
C370 C371 1.434 . S
C371 C362 1.429 . S
C371 N368 1.350 . S
C371 C370 1.434 . S
C372 C373 1.369 . S
C372 C374 1.419 1_455 S
C372 H376 0.930 1_455 S
C373 C372 1.369 . S
C373 C382 1.429 . S
C374 C372 1.419 1_655 S
C374 C375 1.363 1_655 S
C374 H377 0.929 . S
C375 C374 1.363 1_455 S
C375 C381 1.428 . S
H376 C372 0.930 1_655 S
H377 C374 0.929 . S
S378 N379 1.613 . S
S378 N380 1.610 . S
N379 S378 1.613 . S
N379 C382 1.350 . S
N380 S378 1.610 . S
N380 C381 1.351 . S
C381 C375 1.428 . S
C381 N380 1.351 . S
C381 C382 1.434 . S
C382 C373 1.429 . S
C382 N379 1.350 . S
C382 C381 1.434 . S
C383 C384 1.369 1_565 S
C383 C385 1.419 . S
C383 H387 0.930 . S
C384 C383 1.369 1_545 S
C384 C393 1.429 . S
C385 C383 1.419 . S
C385 C386 1.363 1_564 S
C385 H388 0.929 1_554 S
C386 C385 1.363 1_546 S
C386 C392 1.428 1_556 S
H387 C383 0.930 . S
H388 C385 0.929 1_556 S
S389 N390 1.613 . S
S389 N391 1.610 . S
N390 S389 1.613 . S
N390 C393 1.350 . S
N391 S389 1.610 . S
N391 C392 1.351 . S
C392 C386 1.428 1_554 S
C392 N391 1.351 . S
C392 C393 1.434 . S
C393 C384 1.429 . S
C393 N390 1.350 . S
C393 C392 1.434 . S
C394 C395 1.369 . S
C394 C396 1.419 . S
C394 H398 0.930 . S
C395 C394 1.369 . S
C395 C404 1.429 . S
C396 C394 1.419 . S
C396 C397 1.363 1_554 S
C396 H399 0.929 . S
C397 C396 1.363 1_556 S
C397 C403 1.428 . S
H398 C394 0.930 . S
H399 C396 0.929 . S
S400 N401 1.613 1_556 S
S400 N402 1.610 . S
N401 S400 1.613 1_554 S
N401 C404 1.350 . S
N402 S400 1.610 . S
N402 C403 1.351 . S
C403 C397 1.428 . S
C403 N402 1.351 . S
C403 C404 1.434 1_556 S
C404 C395 1.429 . S
C404 N401 1.350 . S
C404 C403 1.434 1_554 S
C405 C406 1.369 . S
C405 C407 1.419 . S
C405 H409 0.930 . S
C406 C405 1.369 . S
C406 C415 1.429 1_554 S
C407 C405 1.419 . S
C407 C408 1.363 1_554 S
C407 H410 0.929 . S
C408 C407 1.363 1_556 S
C408 C414 1.428 . S
H409 C405 0.930 . S
H410 C407 0.929 . S
S411 N412 1.613 . S
S411 N413 1.610 . S
N412 S411 1.613 . S
N412 C415 1.350 . S
N413 S411 1.610 . S
N413 C414 1.351 . S
C414 C408 1.428 . S
C414 N413 1.351 . S
C414 C415 1.434 . S
C415 C406 1.429 1_556 S
C415 N412 1.350 . S
C415 C414 1.434 . S
C416 C417 1.369 . S
C416 C418 1.419 . S
C416 H420 0.930 . S
C417 C416 1.369 . S
C417 C426 1.429 . S
C418 C416 1.419 . S
C418 C419 1.363 . S
C418 H421 0.929 . S
C419 C418 1.363 . S
C419 C425 1.428 . S
H420 C416 0.930 . S
H421 C418 0.929 . S
S422 N423 1.613 1_655 S
S422 N424 1.610 . S
N423 S422 1.613 1_455 S
N423 C426 1.350 1_455 S
N424 S422 1.610 . S
N424 C425 1.351 . S
C425 C419 1.428 . S
C425 N424 1.351 . S
C425 C426 1.434 . S
C426 C417 1.429 . S
C426 N423 1.350 1_655 S
C426 C425 1.434 . S
C427 C428 1.369 . S
C427 C429 1.419 . S
C427 H431 0.930 . S
C428 C427 1.369 . S
C428 C437 1.429 1_565 S
C429 C427 1.419 . S
C429 C430 1.363 . S
C429 H432 0.929 . S
C430 C429 1.363 . S
C430 C436 1.428 1_565 S
H431 C427 0.930 . S
H432 C429 0.929 . S
S433 N434 1.613 . S
S433 N435 1.610 . S
N434 S433 1.613 . S
N434 C437 1.350 . S
N435 S433 1.610 . S
N435 C436 1.351 . S
C436 C430 1.428 1_545 S
C436 N435 1.351 . S
C436 C437 1.434 . S
C437 C428 1.429 1_545 S
C437 N434 1.350 . S
C437 C436 1.434 . S
C438 C439 1.369 . S
C438 C440 1.419 . S
C438 H442 0.930 . S
C439 C438 1.369 . S
C439 C448 1.429 . S
C440 C438 1.419 . S
C440 C441 1.363 . S
C440 H443 0.929 . S
C441 C440 1.363 . S
C441 C447 1.428 . S
H442 C438 0.930 . S
H443 C440 0.929 . S
S444 N445 1.613 . S
S444 N446 1.610 . S
N445 S444 1.613 . S
N445 C448 1.350 . S
N446 S444 1.610 . S
N446 C447 1.351 . S
C447 C441 1.428 . S
C447 N446 1.351 . S
C447 C448 1.434 . S
C448 C439 1.429 . S
C448 N445 1.350 . S
C448 C447 1.434 . S
C449 C450 1.369 . S
C449 C451 1.419 . S
C449 H453 0.930 . S
C450 C449 1.369 . S
C450 C459 1.429 . S
C451 C449 1.419 . S
C451 C452 1.363 . S
C451 H454 0.929 . S
C452 C451 1.363 . S
C452 C458 1.428 . S
H453 C449 0.930 . S
H454 C451 0.929 . S
S455 N456 1.613 . S
S455 N457 1.610 . S
N456 S455 1.613 . S
N456 C459 1.350 . S
N457 S455 1.610 . S
N457 C458 1.351 . S
C458 C452 1.428 . S
C458 N457 1.351 . S
C458 C459 1.434 . S
C459 C450 1.429 . S
C459 N456 1.350 . S
C459 C458 1.434 . S
C197 N80 1.630 . S
C199 C120 1.626 . S
C210 C143 1.645 . S
C208 N93 1.637 . S
C221 C166 1.645 . S
C219 N54 1.644 . S
C232 C193 1.531 . S
C230 N67 1.610 . S
C243 C121 1.576 . S
C241 N28 1.568 1_546 S
C252 N41 1.535 1_556 S
C254 C144 1.540 . S
C263 N2 1.532 . S
C265 C167 1.541 . S
C274 N15 1.609 . S
C276 C192 1.592 . S
C287 C122 0.767 . S
C285 N70 0.758 . S
C298 C145 0.755 . S
C296 N83 0.754 . S
C309 C168 0.768 . S
C307 N96 0.772 . S
C318 N57 0.963 . S
C320 C194 0.881 . S
C329 N18 1.026 . S
C331 C125 0.968 . S
C342 C148 0.946 . S
C340 N31 1.042 1_546 S
C353 C171 0.930 . S
C351 N44 0.993 . S
C362 N5 0.744 . S
C364 C191 0.746 . S
C373 N66 1.598 . S
C375 C123 1.537 1_554 S
C384 N79 1.579 . S
C386 C146 1.524 . S
C397 C169 1.537 . S
C395 N92 1.585 . S
C408 C190 1.464 . S
C406 N53 1.474 . S
C417 N14 1.709 . S
C419 C124 1.564 . S
C430 C147 1.520 . S
C428 N27 1.660 . S
C441 C170 1.508 . S
C439 N40 1.647 . S
C450 N1 1.697 . S
C452 C189 1.691 . S
