# Generated by pormake.
# Topology zzz, (3,6)-cn, num edge types: 1
# Building blocks:
#     Node 0, Type 0, BuildingBlock: PAMTOO_clean_linker_0, # of connection points: 3
#     Node 1, Type 0, BuildingBlock: PAMTOO_clean_linker_0, # of connection points: 3
#     Node 2, Type 0, BuildingBlock: PAMTOO_clean_linker_0, # of connection points: 3
#     Node 3, Type 0, BuildingBlock: PAMTOO_clean_linker_0, # of connection points: 3
#     Node 4, Type 0, BuildingBlock: PAMTOO_clean_linker_0, # of connection points: 3
#     Node 5, Type 0, BuildingBlock: PAMTOO_clean_linker_0, # of connection points: 3
#     Node 6, Type 0, BuildingBlock: PAMTOO_clean_linker_0, # of connection points: 3
#     Node 7, Type 0, BuildingBlock: PAMTOO_clean_linker_0, # of connection points: 3
#     Node 8, Type 1, BuildingBlock: KUMBUR_clean_sbu_1, # of connection points: 6
#     Node 9, Type 1, BuildingBlock: KUMBUR_clean_sbu_1, # of connection points: 6
#     Node 10, Type 1, BuildingBlock: KUMBUR_clean_sbu_1, # of connection points: 6
#     Node 11, Type 1, BuildingBlock: KUMBUR_clean_sbu_1, # of connection points: 6
#     Edge 12, Type (0, 1), BuildingBlock: AJUNOK_clean_linker_0, # of connection points: 2
#     Edge 13, Type (0, 1), BuildingBlock: AJUNOK_clean_linker_0, # of connection points: 2
#     Edge 14, Type (0, 1), BuildingBlock: AJUNOK_clean_linker_0, # of connection points: 2
#     Edge 15, Type (0, 1), BuildingBlock: AJUNOK_clean_linker_0, # of connection points: 2
#     Edge 16, Type (0, 1), BuildingBlock: AJUNOK_clean_linker_0, # of connection points: 2
#     Edge 17, Type (0, 1), BuildingBlock: AJUNOK_clean_linker_0, # of connection points: 2
#     Edge 18, Type (0, 1), BuildingBlock: AJUNOK_clean_linker_0, # of connection points: 2
#     Edge 19, Type (0, 1), BuildingBlock: AJUNOK_clean_linker_0, # of connection points: 2
#     Edge 20, Type (0, 1), BuildingBlock: AJUNOK_clean_linker_0, # of connection points: 2
#     Edge 21, Type (0, 1), BuildingBlock: AJUNOK_clean_linker_0, # of connection points: 2
#     Edge 22, Type (0, 1), BuildingBlock: AJUNOK_clean_linker_0, # of connection points: 2
#     Edge 23, Type (0, 1), BuildingBlock: AJUNOK_clean_linker_0, # of connection points: 2
#     Edge 24, Type (0, 1), BuildingBlock: AJUNOK_clean_linker_0, # of connection points: 2
#     Edge 25, Type (0, 1), BuildingBlock: AJUNOK_clean_linker_0, # of connection points: 2
#     Edge 26, Type (0, 1), BuildingBlock: AJUNOK_clean_linker_0, # of connection points: 2
#     Edge 27, Type (0, 1), BuildingBlock: AJUNOK_clean_linker_0, # of connection points: 2
#     Edge 28, Type (0, 1), BuildingBlock: AJUNOK_clean_linker_0, # of connection points: 2
#     Edge 29, Type (0, 1), BuildingBlock: AJUNOK_clean_linker_0, # of connection points: 2
#     Edge 30, Type (0, 1), BuildingBlock: AJUNOK_clean_linker_0, # of connection points: 2
#     Edge 31, Type (0, 1), BuildingBlock: AJUNOK_clean_linker_0, # of connection points: 2
#     Edge 32, Type (0, 1), BuildingBlock: AJUNOK_clean_linker_0, # of connection points: 2
#     Edge 33, Type (0, 1), BuildingBlock: AJUNOK_clean_linker_0, # of connection points: 2
#     Edge 34, Type (0, 1), BuildingBlock: AJUNOK_clean_linker_0, # of connection points: 2
#     Edge 35, Type (0, 1), BuildingBlock: AJUNOK_clean_linker_0, # of connection points: 2
# Relax obj value: 0.238
# Max RMSD: 0.125
# Mean RMSD: 0.083
data_MOF--net-zzz--node1-KUMBUR_clean_sbu_1--node2-PAMTOO_clean_linker_0--edge1-AJUNOK_clean_linker_0
_symmetry_space_group_name_H-M    P1
_symmetry_Int_Tables_number       1
_symmetry_cell_setting            triclinic
loop_
_symmetry_equiv_pos_as_xyz
'x, y, z'
_cell_length_a     36.443737
_cell_length_b     36.745855
_cell_length_c     11.699445
_cell_angle_alpha  89.63031
_cell_angle_beta   90.41567
_cell_angle_gamma 89.897974
loop_
_atom_site_label
_atom_site_type_symbol
_atom_site_fract_x
_atom_site_fract_y
_atom_site_fract_z
_atom_type_partial_charge
H0 H 0.86547 0.55592 0.23825 0.0
H1 H 0.75356 0.57843 0.1465 0.0
H2 H 0.78124 0.55443 0.49753 0.0
H3 H 0.68961 0.52397 0.37585 0.0
C4 C 0.70197 0.5359 0.29762 0.0
O5 O 0.72452 0.56488 0.33447 0.0
H6 H 0.7194 0.51395 0.26143 0.0
C7 C 0.83739 0.56015 0.26524 0.0
C8 C 0.82874 0.55724 0.38248 0.0
C9 C 0.81007 0.56679 0.18136 0.0
C10 C 0.774 0.57283 0.21227 0.0
C11 C 0.76226 0.56567 0.32173 0.0
C12 C 0.78984 0.55881 0.41019 0.0
H13 H 0.96082 0.86235 0.35162 0.0
H14 H 0.96409 0.75312 0.2208 0.0
H15 H 0.04451 0.78768 0.46616 0.0
H16 H 0.06895 0.73046 0.21853 0.0
C17 C 0.0395 0.72314 0.21016 0.0
O18 O 1.02251 0.73238 0.31499 0.0
H19 H 0.02839 0.74072 0.14023 0.0
C20 C 0.97274 0.83543 0.34995 0.0
C21 C 1.00183 0.82837 0.42709 0.0
C22 C 0.96104 0.81007 0.26618 0.0
C23 C 0.97494 0.77446 0.27375 0.0
C24 C 1.00667 0.76629 0.33577 0.0
C25 C 1.02055 0.79367 0.41423 0.0
H26 H 0.70443 0.96469 0.378 0.0
H27 H 0.80645 0.96648 0.19704 0.0
H28 H 0.78085 0.05175 0.43635 0.0
H29 H 0.82998 0.07125 0.19035 0.0
C30 C 0.83859 0.04251 0.17917 0.0
O31 O 0.83252 0.02485 0.28456 0.0
H32 H 0.81992 0.03107 0.11292 0.0
C33 C 0.73095 0.97692 0.36343 0.0
C34 C 0.73925 1.00892 0.42282 0.0
C35 C 0.75356 0.96293 0.27663 0.0
C36 C 0.78845 0.97791 0.26089 0.0
C37 C 0.79887 1.01019 0.31488 0.0
C38 C 0.77361 0.02645 0.39519 0.0
H39 H 0.48548 0.70803 0.28286 0.0
H40 H 0.51034 0.80918 0.1209 0.0
H41 H 0.56655 0.7801 0.43363 0.0
H42 H 0.54699 0.87687 0.34806 0.0
C43 C 0.5403 0.86562 0.26297 0.0
O44 O 0.5584 0.83172 0.25728 0.0
H45 H 0.51003 0.86165 0.26363 0.0
C46 C 0.50047 0.73342 0.28636 0.0
C47 C 0.52641 0.73936 0.37477 0.0
C48 C 0.49408 0.75889 0.19828 0.0
C49 C 0.51497 0.79019 0.19095 0.0
C50 C 0.54058 0.79893 0.27395 0.0
C51 C 0.54662 0.77347 0.36808 0.0
H52 H 0.20681 0.50089 0.22679 0.0
H53 H 0.3179 0.48304 0.33602 0.0
H54 H 0.29594 0.52701 1.00029 0.0
H55 H 0.34575 0.55222 0.29967 0.0
C56 C 0.36622 0.54109 0.239 0.0
O57 O 0.34973 0.51352 0.17164 0.0
H58 H 0.37257 0.56396 0.17986 0.0
C59 C 0.23581 0.50024 0.20687 0.0
C60 C 0.2468 0.5106 0.09626 0.0
C61 C 0.26161 0.49212 0.29411 0.0
C62 C 0.29872 0.49054 0.26892 0.0
C63 C 0.31223 0.50654 0.17065 0.0
C64 C 0.28606 0.51597 0.08029 0.0
H65 H 0.09496 0.20147 0.17747 0.0
H66 H 0.10127 0.30857 0.32434 0.0
H67 H 0.03384 0.28994 0.02773 0.0
H68 H 0.02955 0.33577 0.34361 0.0
C69 C 0.0337 0.35595 0.27359 0.0
O70 O 0.05732 0.34093 0.19027 0.0
H71 H 1.00625 0.3593 0.23296 0.0
C72 C 0.08776 0.23002 0.17727 0.0
C73 C 0.06463 0.24196 0.08819 0.0
C74 C 0.09841 0.25255 0.26976 0.0
C75 C 0.09063 0.28997 0.26167 0.0
C76 C 0.06621 0.30412 0.18042 0.0
C77 C 0.05279 0.27973 0.09196 0.0
H78 H 0.36391 0.11556 0.15544 0.0
H79 H 0.26225 0.11273 0.33797 0.0
H80 H 0.29053 0.02522 0.10932 0.0
H81 H 0.24878 0.0532 0.43262 0.0
C82 C 0.23156 0.0384 0.36932 0.0
O83 O 0.23806 0.05227 0.25857 0.0
H84 H 0.24191 1.00998 0.37177 0.0
C85 C 0.33762 0.10284 0.17083 0.0
C86 C 0.33049 0.06975 0.1162 0.0
C87 C 0.31432 0.11744 0.2547 0.0
C88 C 0.28027 0.1012 0.27435 0.0
C89 C 0.27114 0.06768 0.22576 0.0
C90 C 0.29688 0.0513 0.14702 0.0
H91 H 0.59368 0.35918 0.20186 0.0
H92 H 0.57757 0.25082 0.32384 0.0
H93 H 0.50257 0.29547 0.07392 0.0
H94 H 0.46869 0.23092 0.31458 0.0
C95 C 0.49844 0.23245 0.33321 0.0
O96 O 0.51667 0.23885 0.22867 0.0
H97 H 0.50163 0.25666 0.38921 0.0
C98 C 0.57899 0.33376 0.19306 0.0
C99 C 0.54953 0.33116 0.11424 0.0
C100 C 0.58878 0.30522 0.26772 0.0
C101 C 0.56958 0.27272 0.26611 0.0
C102 C 0.53702 0.26971 0.20553 0.0
C103 C 0.52693 0.29871 0.12599 0.0
Tb104 Tb 1.00321 0.05112 0.64473 0.0
C105 C 0.1345 0.05764 0.97322 0.0
N106 N 0.12541 0.03272 0.89287 0.0
C107 C 0.18837 0.03083 0.83228 0.0
C108 C 0.17057 0.07118 0.98392 0.0
C109 C 0.15237 1.01769 0.82716 0.0
C110 C 0.19742 0.05814 0.90982 0.0
C111 C 0.1167 0.09071 0.14199 0.0
C112 C 0.10822 0.06719 0.05101 0.0
C113 C 0.15202 0.10573 0.15035 0.0
C114 C 0.17896 0.09601 0.0712 0.0
Tb115 Tb 0.06478 1.01467 0.8862 0.0
N116 N 0.07465 0.05175 0.04062 0.0
C117 C 0.08978 0.0975 0.2235 0.0
C118 C 0.04906 0.0563 0.12461 0.0
C119 C 0.05583 0.08017 0.21503 0.0
H120 H 0.14646 0.99514 0.77133 0.0
H121 H 0.03499 0.08493 0.27864 0.0
H122 H 0.91968 0.03427 0.74167 0.0
H123 H 0.0771 0.99803 0.27771 0.0
H124 H 1.02285 0.04268 0.1187 0.0
H125 H 0.09541 0.11517 0.29478 0.0
H126 H 0.06516 0.04203 0.42818 0.0
H127 H 0.20925 1.01938 0.77782 0.0
H128 H 0.15903 0.12409 0.21924 0.0
H129 H 0.20642 0.10692 0.08036 0.0
H130 H 0.86704 0.9958 0.68896 0.0
H131 H 0.22545 0.06782 0.91513 0.0
H132 H 0.0297 0.95288 0.22638 0.0
N133 N 0.95377 1.01477 0.60825 0.0
C134 C 0.9558 0.99379 0.51314 0.0
C135 C 0.892 0.99469 0.63949 0.0
C136 C 0.92645 0.97104 0.48064 0.0
C137 C 0.92212 1.01618 0.66995 0.0
C138 C 0.89421 0.9719 0.54474 0.0
N139 N 1.01551 1.01722 0.48373 0.0
C140 C 0.04603 1.02024 0.41714 0.0
C141 C 0.99226 0.97059 0.35741 0.0
C142 C 0.98814 0.9941 0.45135 0.0
C143 C 1.02524 0.97104 0.29753 0.0
C144 C 0.05215 0.99619 0.32707 0.0
H145 H 0.87094 0.95503 0.52202 0.0
H146 H 0.90834 0.92995 0.36085 0.0
H147 H 0.96632 0.92923 0.25456 0.0
O148 O 0.98924 0.07971 0.49441 0.0
O149 O 1.00005 0.9918 0.6965 0.0
O150 O 0.05876 0.97751 0.73656 0.0
O151 O 0.9599 0.0888 0.65008 0.0
O152 O 0.06274 0.0634 0.61704 0.0
O153 O 0.08678 1.01412 0.7093 0.0
O154 O 0.04272 0.97834 1.00417 0.0
O155 O 0.04694 0.0728 0.90628 0.0
O156 O 0.03689 0.09538 0.72637 0.0
O157 O 0.0993 0.97387 0.95734 0.0
O158 O 1.00423 1.00997 0.91849 0.0
O159 O 0.97938 0.05753 0.81669 0.0
C160 C 0.02711 0.9678 0.69136 0.0
C161 C 0.97317 0.13952 0.54012 0.0
C162 C 1.01766 0.18886 0.54036 0.0
C163 C 0.98833 0.21398 0.53648 0.0
C164 C 0.94431 0.16465 0.53748 0.0
C165 C 0.95196 0.20186 0.53631 0.0
C166 C 1.00949 0.15173 0.54414 0.0
C167 C 0.0908 0.04125 0.63613 0.0
C168 C 0.96599 0.1005 0.54721 0.0
C169 C 0.93043 0.94787 0.38666 0.0
C170 C 0.9634 0.94741 0.32608 0.0
C171 C 0.0433 0.10098 0.8365 0.0
C172 C 0.06477 0.91937 0.97307 0.0
C173 C 1.02032 0.87013 0.94955 0.0
C174 C 0.04993 0.84532 0.94395 0.0
C175 C 0.09366 0.8943 0.96809 0.0
C176 C 0.0286 0.90734 0.9545 0.0
C177 C 0.08621 0.85755 0.94989 0.0
C178 C 0.97789 0.0345 0.90349 0.0
C179 C 0.07156 0.95762 1.00417 0.0
H180 H 0.99323 0.24292 0.52855 0.0
H181 H 0.91607 0.15551 0.53672 0.0
H182 H 0.92969 0.22137 0.53291 0.0
H183 H 0.0315 0.13203 0.54773 0.0
H184 H 0.04557 0.81625 0.94286 0.0
H185 H 0.1218 0.903 0.9802 0.0
H186 H 1.00645 0.92694 0.95223 0.0
H187 H 0.10857 0.83814 0.9474 0.0
Tb188 Tb 0.55373 0.07352 0.87604 0.0
C189 C 0.53476 0.92676 0.62955 0.0
N190 N 0.54855 0.95962 0.59693 0.0
C191 C 0.59994 0.92896 0.51138 0.0
C192 C 0.55278 0.89383 0.60291 0.0
C193 C 0.58064 0.96076 0.53711 0.0
C194 C 0.58592 0.89533 0.54402 0.0
C195 C 0.48814 0.89282 0.73122 0.0
C196 C 0.50334 0.92624 0.69485 0.0
C197 C 0.50528 0.85999 0.70155 0.0
C198 C 0.53764 0.86051 0.63797 0.0
Tb199 Tb 0.51563 1.01028 0.65408 0.0
N200 N 0.48857 0.95861 0.72673 0.0
C201 C 0.45639 0.8934 0.79734 0.0
C202 C 0.45637 0.95902 0.78573 0.0
C203 C 0.44021 0.92667 0.82358 0.0
H204 H 0.59134 0.98573 0.50498 0.0
H205 H 0.41491 0.92744 0.87138 0.0
H206 H 0.47741 0.09996 1.01752 0.0
H207 H 0.65635 0.15358 0.65659 0.0
H208 H 0.44198 0.98398 0.79998 0.0
H209 H 0.44386 0.86836 0.82694 0.0
H210 H 0.6281 0.09791 0.73001 0.0
H211 H 0.6254 0.93037 0.46462 0.0
H212 H 0.494 0.8341 0.72873 0.0
H213 H 0.55094 0.83501 0.61723 0.0
H214 H 0.44562 0.15618 0.06092 0.0
H215 H 0.60073 0.87072 0.52274 0.0
H216 H 0.62877 0.21333 0.69997 0.0
N217 N 0.52162 0.12493 0.92942 0.0
C218 C 0.53642 0.15735 0.8973 0.0
C219 C 0.47134 0.15699 1.01581 0.0
C220 C 0.51978 0.1908 0.92624 0.0
C221 C 0.4894 0.12466 0.98849 0.0
C222 C 0.48683 0.19026 0.98622 0.0
N223 N 0.58142 0.1242 0.79877 0.0
C224 C 0.61383 0.12306 0.74102 0.0
C225 C 0.58372 0.18995 0.79486 0.0
C226 C 0.56743 0.15695 0.83022 0.0
C227 C 0.61543 0.18861 0.72876 0.0
C228 C 0.63081 0.15497 0.70297 0.0
H229 H 0.47299 0.21529 1.00906 0.0
H230 H 0.52389 0.24954 0.91465 0.0
H231 H 0.5809 0.24867 0.80385 0.0
O232 O 0.60865 0.07406 0.92973 0.0
O233 O 0.52242 0.10154 0.73701 0.0
O234 O 0.53086 0.06494 0.58255 0.0
O235 O 0.56513 0.08544 0.04659 0.0
O236 O 0.59351 0.03996 0.77657 0.0
O237 O 0.56848 0.03576 0.59953 0.0
O238 O 0.46044 1.01438 0.6047 0.0
O239 O 0.54368 0.98031 0.79747 0.0
O240 O 0.53845 1.01955 0.94672 0.0
O241 O 0.50131 0.99616 0.48708 0.0
O242 O 0.47547 0.04214 0.75786 0.0
O243 O 0.50123 0.04822 0.93379 0.0
C244 C 0.52396 0.09757 0.62539 0.0
C245 C 0.61351 0.0485 0.11169 0.0
C246 C 0.64081 0.98823 0.14152 0.0
C247 C 0.63575 0.99289 0.25984 0.0
C248 C 0.61046 0.05287 0.22925 0.0
C249 C 0.62055 0.02473 0.30201 0.0
C250 C 0.62797 1.0158 0.06758 0.0
C251 C 0.59804 0.03844 0.66511 0.0
C252 C 0.59963 0.07731 0.03613 0.0
C253 C 0.53605 0.22365 0.89217 0.0
C254 C 0.5682 0.2232 0.82775 0.0
C255 C 0.54378 0.9862 0.90831 0.0
C256 C 0.45709 0.03793 0.41909 0.0
C257 C 0.43039 0.09812 0.38203 0.0
C258 C 0.43837 0.09344 0.26527 0.0
C259 C 0.46274 0.03351 0.30249 0.0
C260 C 0.44173 0.07074 0.45913 0.0
C261 C 0.45511 0.06175 0.22734 0.0
C262 C 0.47156 0.04403 0.86958 0.0
C263 C 0.46818 1.00869 0.4982 0.0
H264 H 0.64429 0.97252 0.32128 0.0
H265 H 0.59912 0.07749 0.26477 0.0
H266 H 0.61511 0.02709 0.39113 0.0
H267 H 0.62973 1.01201 0.97617 0.0
H268 H 0.42972 0.11294 0.20125 0.0
H269 H 0.47298 1.00818 0.26916 0.0
H270 H 0.43686 0.07435 0.54956 0.0
H271 H 0.46135 0.05836 0.13883 0.0
Tb272 Tb 0.57821 0.52612 0.66123 0.0
C273 C 0.44446 0.48964 0.95573 0.0
N274 N 0.44795 0.50929 0.85718 0.0
C275 C 0.39139 0.48404 0.78637 0.0
C276 C 0.41426 0.46625 0.9726 0.0
C277 C 0.42158 0.50704 0.77336 0.0
C278 C 0.38769 0.46354 0.88627 0.0
C279 C 0.46849 0.47282 0.14259 0.0
C280 C 0.47106 0.49349 0.04073 0.0
C281 C 0.43928 0.44848 0.15742 0.0
C282 C 0.41176 0.44586 0.07405 0.0
Tb283 Tb 0.49677 0.54874 0.85282 0.0
N284 N 0.49871 0.51805 0.02509 0.0
C285 C 0.49488 0.4778 0.22801 0.0
C286 C 0.52166 0.52584 0.1146 0.0
C287 C 0.52122 0.50476 0.21449 0.0
H288 H 0.42245 0.5242 0.69864 0.0
H289 H 0.54113 0.50944 0.2815 0.0
H290 H 0.6556 0.53096 0.82337 0.0
H291 H 0.54045 0.59452 0.26382 0.0
H292 H 0.54019 0.54847 0.11214 0.0
H293 H 0.49429 0.46199 0.3065 0.0
H294 H 0.5315 0.55289 0.42347 0.0
H295 H 0.37062 0.48262 0.71993 0.0
H296 H 0.43735 0.43204 0.23424 0.0
H297 H 0.38896 0.42752 0.08802 0.0
H298 H 0.71366 0.56376 0.81837 0.0
H299 H 0.36415 0.44586 0.89615 0.0
H300 H 0.59854 0.62835 0.2456 0.0
N301 N 0.63343 0.55644 0.67277 0.0
C302 C 0.64069 0.57936 0.58349 0.0
C303 C 0.69322 0.5687 0.75244 0.0
C304 C 0.67455 0.5978 0.57595 0.0
C305 C 0.65956 0.55057 0.7559 0.0
C306 C 0.70074 0.59245 0.66233 0.0
N307 N 0.58228 0.56463 0.50571 0.0
C308 C 0.5563 0.56813 0.4216 0.0
C309 C 0.6215 0.60636 0.40263 0.0
C310 C 0.61457 0.58319 0.49685 0.0
C311 C 0.59439 0.61058 0.31862 0.0
C312 C 0.5616 0.59152 0.32858 0.0
H313 H 0.72709 0.60602 0.65922 0.0
H314 H 0.70745 0.63472 0.47436 0.0
H315 H 0.66092 0.64243 0.32321 0.0
O316 O 0.57691 0.47533 0.57713 0.0
O317 O 0.5673 0.58585 0.68302 0.0
O318 O 0.50549 0.589 0.71105 0.0
O319 O 0.62641 0.50631 0.58748 0.0
O320 O 0.52273 0.51377 0.57982 0.0
O321 O 0.48097 0.55078 0.67048 0.0
O322 O 0.49052 0.59902 0.93747 0.0
O323 O 0.50697 0.48915 0.82248 0.0
O324 O 0.56898 0.4869 0.805 0.0
O325 O 0.44443 0.56447 0.90648 0.0
O326 O 0.55279 0.5642 0.92585 0.0
O327 O 0.59235 0.52344 0.84486 0.0
C328 C 0.53617 0.60418 0.67413 0.0
C329 C 0.63257 0.44438 0.61709 0.0
C330 C 0.65534 0.38269 0.60247 0.0
C331 C 0.66907 0.38417 0.71444 0.0
C332 C 0.64671 0.44605 0.72925 0.0
C333 C 0.66516 0.41615 0.77717 0.0
C334 C 0.6376 0.413 0.55386 0.0
C335 C 0.48953 0.52913 0.58529 0.0
C336 C 0.61244 0.475 0.56553 0.0
C337 C 0.68156 0.62048 0.48163 0.0
C338 C 0.65512 0.62474 0.39529 0.0
C339 C 0.53799 0.47088 0.8352 0.0
C340 C 0.43475 0.62615 0.8773 0.0
C341 C 0.41517 0.68909 0.8793 0.0
C342 C 0.40217 0.68629 0.7668 0.0
C343 C 0.42098 0.62293 0.76499 0.0
C344 C 0.4309 0.6588 0.93423 0.0
C345 C 0.40447 0.65289 0.71054 0.0
C346 C 0.5851 0.54699 0.92592 0.0
C347 C 0.45486 0.59657 0.93465 0.0
H348 H 0.68165 0.36045 0.75389 0.0
H349 H 0.64304 0.47013 0.78037 0.0
H350 H 0.67547 0.41745 0.86406 0.0
H351 H 0.62584 0.41141 0.46846 0.0
H352 H 0.39127 0.70991 0.72222 0.0
H353 H 0.42361 0.59767 0.71866 0.0
H354 H 0.44253 0.66137 0.01957 0.0
H355 H 0.39457 0.65051 0.62346 0.0
Tb356 Tb 0.05316 0.57554 0.64759 0.0
C357 C 0.06434 0.4273 0.92159 0.0
N358 N 0.04053 0.43707 0.83666 0.0
C359 C 0.04079 0.37561 0.76709 0.0
C360 C 0.07845 0.39159 0.92961 0.0
C361 C 0.02831 0.41155 0.76038 0.0
C362 C 0.06643 0.3657 0.85079 0.0
C363 C 0.09716 0.44344 0.09504 0.0
C364 C 0.07333 0.45281 1.00379 0.0
C365 C 0.11251 0.4084 0.10051 0.0
C366 C 0.10326 0.38257 1.01775 0.0
Tb367 Tb 1.02093 0.49663 0.83801 0.0
N368 N 0.0583 0.48669 0.99489 0.0
C369 C 0.10436 0.46933 0.17916 0.0
C370 C 0.06364 0.51119 0.08092 0.0
C371 C 0.08707 0.50315 0.17291 0.0
H372 H 1.00793 0.41841 0.69634 0.0
H373 H 0.09142 0.52294 0.23979 0.0
H374 H 0.05553 0.65018 0.81021 0.0
H375 H 1.00501 0.56102 0.21971 0.0
H376 H 0.04965 0.53677 0.08159 0.0
H377 H 0.12236 0.46314 0.25074 0.0
H378 H 0.03381 0.54296 0.38881 0.0
H379 H 0.03065 0.35563 0.70718 0.0
H380 H 0.131 0.4008 0.16962 0.0
H381 H 0.11475 0.35541 0.0243 0.0
H382 H 1.01754 0.70429 0.83868 0.0
H383 H 0.07619 0.33786 0.85543 0.0
H384 H 0.96374 0.64405 0.08382 0.0
N385 N 1.02462 0.63071 0.66821 0.0
C386 C 1.00007 0.64027 0.5853 0.0
C387 C 1.01152 0.68601 0.7689 0.0
C388 C 0.97775 0.67106 0.59813 0.0
C389 C 0.03233 0.65448 0.75473 0.0
C390 C 0.9832 0.69374 0.692 0.0
N391 N 1.0179 0.5883 0.48617 0.0
C392 C 1.01822 0.56793 0.39037 0.0
C393 C 0.97506 0.63002 0.39201 0.0
C394 C 0.99785 0.61925 0.48682 0.0
C395 C 0.98141 0.61486 0.27411 0.0
C396 C 1.0008 0.57984 0.28914 0.0
H397 H 0.96654 0.71785 0.70316 0.0
H398 H 0.93016 0.69914 0.53229 0.0
H399 H 0.92334 0.6619 0.3704 0.0
O400 O 0.09445 0.57253 0.52422 0.0
O401 O 0.99202 0.56962 0.66689 0.0
O402 O 0.9837 0.50863 0.68793 0.0
O403 O 0.08439 0.62246 0.6125 0.0
O404 O 0.06175 0.5196 0.56901 0.0
O405 O 1.02038 0.48118 0.65599 0.0
O406 O 0.97525 0.50958 0.93782 0.0
O407 O 0.08242 0.50017 0.82439 0.0
O408 O 0.09451 0.56011 0.78369 0.0
O409 O 0.98817 0.45384 0.90074 0.0
O410 O 1.01409 0.55281 0.91525 0.0
O411 O 0.05967 0.58652 0.83343 0.0
C412 C 0.97109 0.54066 0.65268 0.0
C413 C 0.14551 0.60241 0.60353 0.0
C414 C 0.19827 0.56333 0.64157 0.0
C415 C 0.2094 0.5863 0.73057 0.0
C416 C 0.15662 0.62515 0.69377 0.0
C417 C 0.1888 0.61739 0.75545 0.0
C418 C 0.16763 0.57295 0.57494 0.0
C419 C 0.04411 0.48781 0.57412 0.0
C420 C 0.10804 0.60387 0.55486 0.0
C421 C 0.94993 0.6775 0.51917 0.0
C422 C 0.94717 0.65596 0.42201 0.0
C423 C 0.10534 0.5281 0.82529 0.0
C424 C 0.92746 0.47318 0.86903 0.0
C425 C 0.87082 0.50437 0.81814 0.0
C426 C 0.86575 0.4811 0.72496 0.0
C427 C 0.9225 0.44992 0.77491 0.0
C428 C 0.90092 0.49917 0.89155 0.0
C429 C 0.8915 0.45367 0.70421 0.0
C430 C 0.03623 0.58153 0.91765 0.0
C431 C 0.96272 0.47639 0.93013 0.0
H432 H 0.2338 0.58018 0.78056 0.0
H433 H 0.13991 0.64808 0.71917 0.0
H434 H 0.19713 0.63485 0.82509 0.0
H435 H 0.16008 0.55665 0.50153 0.0
H436 H 0.84205 0.48405 0.66926 0.0
H437 H 0.94293 0.42971 0.75372 0.0
H438 H 0.90444 0.5163 0.96611 0.0
H439 H 0.88789 0.43585 0.63171 0.0
C440 C 0.17429 0.07291 0.44971 0.0
C441 C 0.19112 0.03995 0.41467 0.0
C442 C 0.1415 0.07356 0.51679 0.0
C443 C 0.12426 0.04125 0.55597 0.0
H444 H 0.18744 0.0985 0.42911 0.0
H445 H 0.13049 0.09965 0.54223 0.0
S446 S 0.15433 0.94779 0.47944 0.0
N447 N 0.18501 0.97423 0.41769 0.0
N448 N 0.12558 0.97545 0.54412 0.0
C449 C 0.14005 1.00839 0.51745 0.0
C450 C 0.17264 1.00774 0.4474 0.0
C451 C 0.50523 0.19768 0.52501 0.0
C452 C 0.50952 0.19766 0.40461 0.0
C453 C 0.50963 0.16583 0.59389 0.0
C454 C 0.51896 0.13148 0.54795 0.0
H455 H 0.49735 0.22266 0.56698 0.0
H456 H 0.50472 0.16828 0.68436 0.0
S457 S 0.52998 0.1151 0.23904 0.0
N458 N 0.52103 0.15899 0.24317 0.0
N459 N 0.53044 0.09985 0.37149 0.0
C460 C 0.52282 0.13096 0.42787 0.0
C461 C 0.51782 0.16349 0.35723 0.0
C462 C 0.42678 0.56129 0.33371 0.0
C463 C 0.40189 0.53235 0.31217 0.0
C464 C 0.45537 0.55931 0.41716 0.0
C465 C 0.46217 0.52782 0.48408 0.0
H466 H 0.42299 0.58694 0.28899 0.0
H467 H 0.47178 0.58341 0.43166 0.0
S468 S 0.405 0.44422 0.47099 0.0
N469 N 0.38592 0.47114 0.37352 0.0
N470 N 0.44023 0.46687 0.52449 0.0
C471 C 0.43801 0.49833 0.46345 0.0
C472 C 0.40802 0.50069 0.37991 0.0
C473 C 1.02398 0.42557 0.31072 0.0
C474 C 0.04477 0.39331 0.33141 0.0
C475 C 1.02571 0.45679 0.38358 0.0
C476 C 0.04846 0.45808 0.48233 0.0
H477 H 1.00436 0.42599 0.24079 0.0
H478 H 1.00748 0.47942 0.36537 0.0
S479 S 0.11015 0.38261 0.5749 0.0
N480 N 0.09065 0.36674 0.45751 0.0
N481 N 0.09286 0.42368 0.59396 0.0
C482 C 0.07024 0.42667 0.50169 0.0
C483 C 0.06885 0.39513 0.42679 0.0
C484 C 0.90037 1.00943 0.12303 0.0
C485 C 0.87827 0.04126 0.1274 0.0
C486 C 0.93307 1.00753 0.0554 0.0
C487 C 0.94486 0.03689 0.9849 0.0
H488 H 0.89182 0.98541 0.16973 0.0
H489 H 0.94842 0.98227 0.05509 0.0
S490 S 0.8972 0.12645 0.96395 0.0
N491 N 0.8719 0.10294 0.05433 0.0
N492 N 0.93104 0.09911 0.92791 0.0
C493 C 0.92308 0.06876 0.98988 0.0
C494 C 0.89059 0.07091 0.05988 0.0
C495 C 0.54898 0.88805 0.0484 0.0
C496 C 0.54813 0.89499 0.16762 0.0
C497 C 0.54911 0.91692 0.96463 0.0
C498 C 0.54677 0.95435 0.99485 0.0
H499 H 0.54885 0.86016 0.01922 0.0
H500 H 0.55046 0.90963 0.87557 0.0
S501 S 0.54435 0.98728 0.29181 0.0
N502 N 0.54553 0.94285 0.30755 0.0
N503 N 0.54465 0.99541 0.15423 0.0
C504 C 0.54631 0.96111 0.11293 0.0
C505 C 0.547 0.93217 0.19719 0.0
C506 C 0.66544 0.57424 0.13711 0.0
C507 C 0.6698 0.54312 0.20877 0.0
C508 C 0.63704 0.57661 0.05075 0.0
C509 C 0.61184 0.54779 0.02935 0.0
H510 H 0.68434 0.59672 0.14633 0.0
H511 H 0.63574 0.60076 0.99738 0.0
S512 S 0.61227 0.45976 0.18781 0.0
N513 N 0.64572 0.48296 0.24879 0.0
N514 N 0.59534 0.48666 0.08689 0.0
C515 C 0.61656 0.51671 0.09949 0.0
C516 C 0.64446 0.51464 0.18821 0.0
C517 C 0.0662 0.66803 0.09821 0.0
C518 C 0.03706 0.68276 0.16539 0.0
C519 C 0.06574 0.63518 0.0298 0.0
C520 C 0.0365 0.60943 1.01765 0.0
H521 H 0.09093 0.6842 0.09197 0.0
H522 H 0.09003 0.63059 0.97903 0.0
S523 S 0.92423 0.62604 0.18253 0.0
N524 N 0.96384 0.67063 0.21466 0.0
N525 N 0.96638 0.59438 0.09769 0.0
C526 C 1.00743 0.61601 0.09272 0.0
C527 C 1.00597 0.66085 0.16499 0.0
C528 C 0.108 0.1974 0.39082 0.0
C529 C 0.10839 0.23571 0.38437 0.0
C530 C 0.07962 0.18032 0.45072 0.0
C531 C 0.05605 0.20089 0.52058 0.0
H532 H 0.12339 0.18134 0.33044 0.0
H533 H 0.07414 0.15215 0.43221 0.0
S534 S 0.07925 0.29203 0.62999 0.0
N535 N 0.10608 0.2866 0.51802 0.0
N536 N 0.05435 0.25469 0.63993 0.0
C537 C 0.06801 0.23572 0.55057 0.0
C538 C 0.0956 0.25295 0.48411 0.0
C539 C 0.33685 0.12202 0.44867 0.0
C540 C 0.3311 0.14072 0.34464 0.0
C541 C 0.3728 0.11338 0.48248 0.0
C542 C 0.40259 0.12582 0.41646 0.0
H543 H 0.31485 0.10624 0.48618 0.0
H544 H 0.37624 0.09179 0.545 0.0
S545 S 0.39805 0.2021 0.20897 0.0
N546 N 0.35484 0.19009 0.22841 0.0
N547 N 0.42287 0.1758 0.29497 0.0
C548 C 0.3959 0.15645 0.34647 0.0
C549 C 0.35924 0.16445 0.31143 0.0
C550 C 0.64828 0.32842 0.34366 0.0
C551 C 0.61406 0.31223 0.36373 0.0
C552 C 0.66694 0.34617 0.43192 0.0
C553 C 0.65145 0.34838 0.54132 0.0
H554 H 0.65878 0.33049 0.25745 0.0
H555 H 0.6907 0.36251 0.41074 0.0
S556 S 0.56554 0.30583 0.64069 0.0
N557 N 0.568 0.29533 0.50412 0.0
N558 N 0.60348 0.32852 0.66958 0.0
C559 C 0.62021 0.32777 0.56603 0.0
C560 C 0.60105 0.30997 0.47654 0.0
C561 C 0.27249 0.52159 0.48173 0.0
C562 C 0.25186 0.49673 0.41568 0.0
C563 C 0.25702 0.53893 0.5753 0.0
C564 C 0.2205 0.53207 0.60415 0.0
H565 H 0.29877 0.53163 0.45279 0.0
H566 H 0.27165 0.5617 0.61224 0.0
S567 S 0.16153 0.45901 0.48899 0.0
N568 N 0.19819 0.4582 0.40745 0.0
N569 N 0.16899 0.49045 0.58653 0.0
C570 C 0.20306 0.50155 0.55588 0.0
C571 C 0.2186 0.48427 0.45919 0.0
C572 C 0.93955 0.86082 0.13992 0.0
C573 C 0.94307 0.82297 0.15575 0.0
C574 C 0.96121 0.8782 0.05749 0.0
C575 C 0.98263 0.85742 0.98113 0.0
H576 H 0.92665 0.87739 0.20432 0.0
H577 H 0.96417 0.90731 0.06458 0.0
S578 S 0.96144 0.76163 0.91198 0.0
N579 N 0.9415 0.7686 0.03624 0.0
N580 N 0.98154 0.80034 0.87672 0.0
C581 C 0.97194 0.82104 0.96745 0.0
C582 C 0.95068 0.80389 0.05409 0.0
C583 C 0.70604 0.91911 0.21293 0.0
C584 C 0.73583 0.94162 0.183 0.0
C585 C 0.67073 0.92794 0.17197 0.0
C586 C 0.66596 0.95889 0.10119 0.0
H587 H 0.70821 0.90149 0.28729 0.0
H588 H 0.64735 0.91624 0.2155 0.0
S589 S 0.73917 0.99926 0.92268 0.0
N590 N 0.76109 0.97554 0.02233 0.0
N591 N 0.69505 0.99274 0.94637 0.0
C592 C 0.69669 0.96954 0.03717 0.0
C593 C 0.73236 0.96018 0.07797 0.0
C594 C 0.47665 0.7549 0.99263 0.0
C595 C 0.46652 0.7522 0.10824 0.0
C596 C 0.45363 0.74161 0.90678 0.0
C597 C 0.42078 0.72403 0.93547 0.0
H598 H 0.50382 0.7641 0.96915 0.0
H599 H 0.46452 0.7394 0.82107 0.0
S600 S 0.37683 0.72167 0.21922 0.0
N601 N 0.41738 0.74033 0.2427 0.0
N602 N 0.37461 0.7139 0.08037 0.0
C603 C 0.4075 0.72751 0.04707 0.0
C604 C 0.43077 0.74114 0.13464 0.0
C605 C 0.84436 0.57779 1.00059 0.0
C606 C 0.81681 0.55937 0.06002 0.0
C607 C 0.85657 0.5645 0.89584 0.0
C608 C 0.84324 0.53108 0.85383 0.0
H609 H 0.85838 0.60061 0.03922 0.0
H610 H 0.8813 0.57618 0.86063 0.0
S611 S 0.76236 0.48054 0.95732 0.0
N612 N 0.76933 0.51265 0.05298 0.0
N613 N 0.79387 0.48698 0.85863 0.0
C614 C 0.81097 0.51703 0.90017 0.0
C615 C 0.79796 0.5308 1.00529 0.0
C616 C 0.06968 0.2032 0.90206 0.0
C617 C 0.05147 0.21137 1.00615 0.0
C618 C 0.06557 0.16891 0.84406 0.0
C619 C 0.04403 0.13989 0.88841 0.0
H620 H 0.08882 0.22286 0.86763 0.0
H621 H 0.08109 0.16448 0.76679 0.0
S622 S 0.9887 0.14694 0.15386 0.0
N623 N 1.00937 0.18681 0.14594 0.0
N624 N 1.00229 0.12385 0.04107 0.0
C625 C 1.02492 0.14825 0.99014 0.0
C626 C 0.02852 0.18316 0.04745 0.0
C627 C 0.37462 0.08067 0.9494 0.0
C628 C 0.36118 0.05666 0.03532 0.0
C629 C 0.40897 0.07559 0.89395 0.0
C630 C 0.43289 0.04654 0.92213 0.0
H631 H 0.35905 0.10498 0.92851 0.0
H632 H 0.41767 0.09578 0.83202 0.0
S633 S 0.4107 0.9733 0.13184 0.0
N634 N 0.37471 1.00066 0.13818 0.0
N635 N 0.4386 0.9913 0.03619 0.0
C636 C 0.41909 1.0211 1.00297 0.0
C637 C 0.3838 0.02613 0.05889 0.0
C638 C 0.57543 0.38565 0.99861 0.0
C639 C 0.54451 0.36394 0.02913 0.0
C640 C 0.5728 0.41878 0.93578 0.0
C641 C 0.53918 0.43302 0.89486 0.0
H642 H 0.60277 0.37729 0.02409 0.0
H643 H 0.59785 0.43375 0.92091 0.0
S644 S 0.45107 0.38191 0.91144 0.0
N645 N 0.47944 0.35679 0.98948 0.0
N646 N 0.47509 0.41716 0.8656 0.0
C647 C 0.5084 0.40991 0.91286 0.0
C648 C 0.51092 0.37614 0.97995 0.0
C649 C 0.19523 0.54998 1.00201 0.0
C650 C 0.2153 0.5168 1.00766 0.0
C651 C 0.16087 0.5536 0.94178 0.0
C652 C 0.14357 0.52416 0.88455 0.0
H653 H 0.20556 0.57329 0.04818 0.0
H654 H 0.14711 0.57973 0.94336 0.0
S655 S 0.18283 0.43065 0.8756 0.0
N656 N 0.21347 0.45349 0.95115 0.0
N657 N 0.15031 0.4601 0.84046 0.0
C658 C 0.16325 0.49085 0.89011 0.0
C659 C 0.19831 0.48726 0.95048 0.0
C660 C 0.04506 0.87866 0.51211 0.0
C661 C 1.01117 0.85971 0.51195 0.0
C662 C 0.05035 0.91228 0.57251 0.0
C663 C 1.022 0.9299 0.63459 0.0
H664 H 0.06741 0.86828 0.46126 0.0
H665 H 0.07678 0.92523 0.56687 0.0
S666 S 0.92941 0.88993 0.67628 0.0
N667 N 0.94983 0.86047 0.59163 0.0
N668 N 0.95964 0.92244 0.70058 0.0
C669 C 0.98862 0.9104 0.63903 0.0
C670 C 0.98334 0.87608 0.57933 0.0
C671 C 0.69381 0.99825 0.58675 0.0
C672 C 0.70886 1.02247 0.50409 0.0
C673 C 0.65944 1.00443 0.64112 0.0
C674 C 0.63702 0.03481 0.61467 0.0
H675 H 0.70808 0.97303 0.60579 0.0
H676 H 0.64945 0.98405 0.70048 0.0
S677 S 0.66364 0.10859 0.41171 0.0
N678 N 0.69855 0.0799 0.40593 0.0
N679 N 0.63445 0.09108 0.50441 0.0
C680 C 0.65259 0.06043 0.53746 0.0
C681 C 0.68794 0.0543 0.48295 0.0
C682 C 0.49906 0.68707 0.49718 0.0
C683 C 0.53015 0.70854 0.46697 0.0
C684 C 0.50132 0.65468 0.56445 0.0
C685 C 0.53477 0.64121 0.60964 0.0
H686 H 0.47206 0.69494 0.46674 0.0
H687 H 0.4763 0.63955 0.57879 0.0
S688 S 0.62382 0.6902 0.58224 0.0
N689 N 0.59542 0.71516 0.50367 0.0
N690 N 0.59932 0.65614 0.63398 0.0
C691 C 0.5658 0.66371 0.58854 0.0
C692 C 0.56357 0.69667 0.51774 0.0
C693 C 0.88556 0.52065 0.45499 0.0
C694 C 0.86149 0.55094 0.46705 0.0
C695 C 0.91966 0.51712 0.51634 0.0
C696 C 0.93303 0.54415 0.59196 0.0
H697 H 0.87827 0.49948 0.39508 0.0
H698 H 0.93632 0.4932 0.5014 0.0
S699 S 0.88197 0.62951 0.65565 0.0
N700 N 0.85469 0.6086 0.56384 0.0
N701 N 0.9181 0.60279 0.67418 0.0
C702 C 0.90936 0.57464 0.60466 0.0
C703 C 0.87416 0.57779 0.54422 0.0
loop_
_geom_bond_atom_site_label_1
_geom_bond_atom_site_label_2
_geom_bond_distance
_geom_bond_site_symmetry_2
_ccdc_geom_bond_type
H0 C7 0.929 . S
H1 C10 0.930 . S
H2 C12 0.929 . S
H3 C4 0.969 . S
C4 H3 0.969 . S
C4 O5 1.550 . S
C4 H6 0.973 . S
O5 C4 1.550 . S
O5 C11 1.412 . S
H6 C4 0.973 . S
C7 H0 0.929 . S
C7 C8 1.400 . S
C7 C9 1.364 . S
C8 C7 1.400 . S
C8 C12 1.377 . S
C9 C7 1.364 . S
C9 C10 1.374 . S
C10 H1 0.930 . S
C10 C9 1.374 . S
C10 C11 1.383 . S
C11 O5 1.412 . S
C11 C10 1.383 . S
C11 C12 1.394 . S
C12 H2 0.929 . S
C12 C8 1.377 . S
C12 C11 1.394 . S
H13 C20 0.929 . S
H14 C23 0.930 . S
H15 C25 0.929 . S
H16 C17 0.969 1_455 S
C17 H16 0.969 1_655 S
C17 O18 1.550 . S
C17 H19 0.973 . S
O18 C17 1.550 . S
O18 C24 1.412 . S
H19 C17 0.973 . S
C20 H13 0.929 . S
C20 C21 1.400 . S
C20 C22 1.364 . S
C21 C20 1.400 . S
C21 C25 1.377 . S
C22 C20 1.364 . S
C22 C23 1.374 . S
C23 H14 0.930 . S
C23 C22 1.374 . S
C23 C24 1.383 . S
C24 O18 1.412 . S
C24 C23 1.383 . S
C24 C25 1.394 . S
C25 H15 0.929 . S
C25 C21 1.377 . S
C25 C24 1.394 . S
H26 C33 0.929 . S
H27 C36 0.930 . S
H28 C38 0.929 . S
H29 C30 0.969 1_545 S
C30 H29 0.969 1_565 S
C30 O31 1.550 . S
C30 H32 0.973 . S
O31 C30 1.550 . S
O31 C37 1.412 . S
H32 C30 0.973 . S
C33 H26 0.929 . S
C33 C34 1.400 . S
C33 C35 1.364 . S
C34 C33 1.400 . S
C34 C38 1.377 . S
C35 C33 1.364 . S
C35 C36 1.374 . S
C36 H27 0.930 . S
C36 C35 1.374 . S
C36 C37 1.383 . S
C37 O31 1.412 . S
C37 C36 1.383 . S
C37 C38 1.394 . S
C38 H28 0.929 . S
C38 C34 1.377 . S
C38 C37 1.394 . S
H39 C46 0.929 . S
H40 C49 0.930 . S
H41 C51 0.929 . S
H42 C43 0.969 . S
C43 H42 0.969 . S
C43 O44 1.550 . S
C43 H45 0.973 . S
O44 C43 1.550 . S
O44 C50 1.412 . S
H45 C43 0.973 . S
C46 H39 0.929 . S
C46 C47 1.400 . S
C46 C48 1.364 . S
C47 C46 1.400 . S
C47 C51 1.377 . S
C48 C46 1.364 . S
C48 C49 1.374 . S
C49 H40 0.930 . S
C49 C48 1.374 . S
C49 C50 1.383 . S
C50 O44 1.412 . S
C50 C49 1.383 . S
C50 C51 1.394 . S
C51 H41 0.929 . S
C51 C47 1.377 . S
C51 C50 1.394 . S
H52 C59 0.929 . S
H53 C62 0.930 . S
H54 C64 0.929 . S
H55 C56 0.969 . S
C56 H55 0.969 . S
C56 O57 1.550 . S
C56 H58 0.973 . S
O57 C56 1.550 . S
O57 C63 1.412 . S
H58 C56 0.973 . S
C59 H52 0.929 . S
C59 C60 1.400 1_554 S
C59 C61 1.364 . S
C60 C59 1.400 1_556 S
C60 C64 1.377 . S
C61 C59 1.364 . S
C61 C62 1.374 . S
C62 H53 0.930 . S
C62 C61 1.374 . S
C62 C63 1.383 . S
C63 O57 1.412 . S
C63 C62 1.383 . S
C63 C64 1.394 1_554 S
C64 H54 0.929 . S
C64 C60 1.377 . S
C64 C63 1.394 1_556 S
H65 C72 0.929 . S
H66 C75 0.930 . S
H67 C77 0.929 . S
H68 C69 0.969 . S
C69 H68 0.969 . S
C69 O70 1.550 . S
C69 H71 0.973 . S
O70 C69 1.550 . S
O70 C76 1.412 . S
H71 C69 0.973 . S
C72 H65 0.929 . S
C72 C73 1.400 1_554 S
C72 C74 1.364 . S
C73 C72 1.400 1_556 S
C73 C77 1.377 . S
C74 C72 1.364 . S
C74 C75 1.374 . S
C75 H66 0.930 . S
C75 C74 1.374 . S
C75 C76 1.383 . S
C76 O70 1.412 . S
C76 C75 1.383 . S
C76 C77 1.394 1_554 S
C77 H67 0.929 . S
C77 C73 1.377 . S
C77 C76 1.394 1_556 S
H78 C85 0.929 . S
H79 C88 0.930 . S
H80 C90 0.929 . S
H81 C82 0.969 . S
C82 H81 0.969 . S
C82 O83 1.550 . S
C82 H84 0.973 . S
O83 C82 1.550 . S
O83 C89 1.412 . S
H84 C82 0.973 . S
C85 H78 0.929 . S
C85 C86 1.400 1_554 S
C85 C87 1.364 . S
C86 C85 1.400 1_556 S
C86 C90 1.377 . S
C87 C85 1.364 . S
C87 C88 1.374 . S
C88 H79 0.930 . S
C88 C87 1.374 . S
C88 C89 1.383 . S
C89 O83 1.412 . S
C89 C88 1.383 . S
C89 C90 1.394 1_554 S
C90 H80 0.929 . S
C90 C86 1.377 . S
C90 C89 1.394 1_556 S
H91 C98 0.929 . S
H92 C101 0.930 . S
H93 C103 0.929 . S
H94 C95 0.969 . S
C95 H94 0.969 . S
C95 O96 1.550 . S
C95 H97 0.973 . S
O96 C95 1.550 . S
O96 C102 1.412 . S
H97 C95 0.973 . S
C98 H91 0.929 . S
C98 C99 1.400 1_554 S
C98 C100 1.364 . S
C99 C98 1.400 1_556 S
C99 C103 1.377 . S
C100 C98 1.364 . S
C100 C101 1.374 . S
C101 H92 0.930 . S
C101 C100 1.374 . S
C101 C102 1.383 . S
C102 O96 1.412 . S
C102 C101 1.383 . S
C102 C103 1.394 1_554 S
C103 H93 0.929 . S
C103 C99 1.377 . S
C103 C102 1.394 1_556 S
Tb104 N133 2.617 . S
Tb104 N139 2.572 . S
Tb104 O148 2.465 . S
Tb104 O149 2.387 1_545 S
Tb104 O151 2.428 . S
Tb104 O152 2.308 1_655 S
Tb104 O156 2.349 1_655 S
Tb104 O159 2.393 . S
Tb104 C168 2.802 . S
C105 N106 1.379 1_554 S
C105 C108 1.416 . S
C105 C112 1.424 . S
N106 C105 1.379 1_556 S
N106 C109 1.334 . S
N106 Tb115 2.617 1_545 S
C107 C109 1.390 . S
C107 C110 1.339 . S
C107 H127 0.930 . S
C108 C105 1.416 . S
C108 C110 1.416 1_554 S
C108 C114 1.448 . S
C109 N106 1.334 . S
C109 C107 1.390 . S
C109 H120 0.930 1_545 S
C110 C107 1.339 . S
C110 C108 1.416 1_556 S
C110 H131 0.930 . S
C111 C112 1.413 . S
C111 C113 1.427 . S
C111 C117 1.416 . S
C112 C105 1.424 . S
C112 C111 1.413 . S
C112 N116 1.361 . S
C113 C111 1.427 . S
C113 C114 1.328 . S
C113 H128 0.929 . S
C114 C108 1.448 . S
C114 C113 1.328 . S
C114 H129 0.930 . S
Tb115 N106 2.617 1_565 S
Tb115 N116 2.572 1_566 S
Tb115 O150 2.349 . S
Tb115 O153 2.393 . S
Tb115 O154 2.465 . S
Tb115 O155 2.387 1_565 S
Tb115 O157 2.428 . S
Tb115 O158 2.308 1_465 S
Tb115 C179 2.802 . S
N116 C112 1.361 . S
N116 Tb115 2.572 1_544 S
N116 C118 1.340 . S
C117 C111 1.416 . S
C117 C119 1.332 . S
C117 H125 0.931 . S
C118 N116 1.340 . S
C118 C119 1.407 . S
C118 H124 0.930 . S
C119 C117 1.332 . S
C119 C118 1.407 . S
C119 H121 0.929 . S
H120 C109 0.930 1_565 S
H121 C119 0.929 . S
H122 C137 0.930 . S
H123 C144 0.929 1_455 S
H124 C118 0.930 . S
H125 C117 0.931 . S
H126 C140 0.930 1_455 S
H127 C107 0.930 . S
H128 C113 0.929 . S
H129 C114 0.930 . S
H130 C135 0.930 . S
H131 C110 0.930 . S
H132 C143 0.931 . S
N133 Tb104 2.617 . S
N133 C134 1.379 1_545 S
N133 C137 1.334 . S
C134 N133 1.379 1_565 S
C134 C136 1.416 . S
C134 C142 1.424 . S
C135 H130 0.930 . S
C135 C137 1.390 . S
C135 C138 1.339 1_545 S
C136 C134 1.416 . S
C136 C138 1.416 . S
C136 C169 1.448 . S
C137 H122 0.930 . S
C137 N133 1.334 . S
C137 C135 1.390 . S
C138 C135 1.339 1_565 S
C138 C136 1.416 . S
C138 H145 0.930 . S
N139 Tb104 2.572 . S
N139 C140 1.340 . S
N139 C142 1.361 1_545 S
C140 H126 0.930 1_655 S
C140 N139 1.340 . S
C140 C144 1.407 1_545 S
C141 C142 1.413 . S
C141 C143 1.416 . S
C141 C170 1.427 . S
C142 C134 1.424 . S
C142 N139 1.361 1_565 S
C142 C141 1.413 . S
C143 H132 0.931 . S
C143 C141 1.416 . S
C143 C144 1.332 . S
C144 H123 0.929 1_655 S
C144 C140 1.407 1_565 S
C144 C143 1.332 . S
H145 C138 0.930 . S
H146 C169 0.930 . S
H147 C170 0.929 . S
O148 Tb104 2.465 . S
O148 C168 1.264 . S
O149 Tb104 2.387 1_565 S
O149 C160 1.264 . S
O150 Tb115 2.349 . S
O150 C160 1.243 1_455 S
O151 Tb104 2.428 . S
O151 C168 1.256 . S
O152 Tb104 2.308 1_455 S
O152 C167 1.266 . S
O153 Tb115 2.393 . S
O153 C167 1.248 1_565 S
O154 Tb115 2.465 . S
O154 C179 1.264 . S
O155 Tb115 2.387 1_545 S
O155 C171 1.264 . S
O156 Tb104 2.349 1_455 S
O156 C171 1.243 . S
O157 Tb115 2.428 . S
O157 C179 1.256 . S
O158 Tb115 2.308 1_645 S
O158 C178 1.266 . S
O159 Tb104 2.393 . S
O159 C178 1.248 . S
C160 O149 1.264 . S
C160 O150 1.243 1_655 S
C161 C164 1.399 . S
C161 C166 1.383 . S
C161 C168 1.496 . S
C162 C163 1.399 . S
C162 C166 1.389 . S
C163 C162 1.399 . S
C163 C165 1.380 . S
C163 H180 0.929 . S
C164 C161 1.399 . S
C164 C165 1.392 . S
C164 H181 0.929 . S
C165 C163 1.380 . S
C165 C164 1.392 . S
C165 H182 0.929 . S
C166 C161 1.383 . S
C166 C162 1.389 . S
C166 H183 0.931 1_655 S
C167 O152 1.266 . S
C167 O153 1.248 1_545 S
C168 Tb104 2.802 . S
C168 O148 1.264 . S
C168 O151 1.256 . S
C168 C161 1.496 . S
C169 C136 1.448 . S
C169 H146 0.930 . S
C169 C170 1.328 . S
C170 C141 1.427 . S
C170 H147 0.929 . S
C170 C169 1.328 . S
C171 O155 1.264 . S
C171 O156 1.243 . S
C172 C175 1.399 . S
C172 C176 1.383 . S
C172 C179 1.496 1_554 S
C173 C174 1.399 . S
C173 C176 1.389 . S
C174 C173 1.399 . S
C174 C177 1.380 . S
C174 H184 0.929 . S
C175 C172 1.399 . S
C175 C177 1.392 . S
C175 H185 0.929 1_554 S
C176 C172 1.383 . S
C176 C173 1.389 . S
C176 H186 0.931 . S
C177 C174 1.380 . S
C177 C175 1.392 . S
C177 H187 0.929 . S
C178 O158 1.266 . S
C178 O159 1.248 . S
C179 Tb115 2.802 . S
C179 O154 1.264 . S
C179 O157 1.256 . S
C179 C172 1.496 1_556 S
H180 C163 0.929 . S
H181 C164 0.929 . S
H182 C165 0.929 . S
H183 C166 0.931 1_455 S
H184 C174 0.929 . S
H185 C175 0.929 1_556 S
H186 C176 0.931 . S
H187 C177 0.929 . S
Tb188 N217 2.617 . S
Tb188 N223 2.572 . S
Tb188 O232 2.465 . S
Tb188 O233 2.387 . S
Tb188 O235 2.428 1_556 S
Tb188 O236 2.308 . S
Tb188 O240 2.349 1_545 S
Tb188 O243 2.393 . S
Tb188 C252 2.802 1_556 S
C189 N190 1.379 . S
C189 C192 1.416 . S
C189 C196 1.424 . S
N190 C189 1.379 . S
N190 C193 1.334 . S
N190 Tb199 2.617 . S
C191 C193 1.390 . S
C191 C194 1.339 . S
C191 H211 0.930 . S
C192 C189 1.416 . S
C192 C194 1.416 . S
C192 C198 1.448 . S
C193 N190 1.334 . S
C193 C191 1.390 . S
C193 H204 0.930 . S
C194 C191 1.339 . S
C194 C192 1.416 . S
C194 H215 0.930 . S
C195 C196 1.413 . S
C195 C197 1.427 . S
C195 C201 1.416 . S
C196 C189 1.424 . S
C196 C195 1.413 . S
C196 N200 1.361 . S
C197 C195 1.427 . S
C197 C198 1.328 . S
C197 H212 0.929 . S
C198 C192 1.448 . S
C198 C197 1.328 . S
C198 H213 0.930 . S
Tb199 N190 2.617 . S
Tb199 N200 2.572 . S
Tb199 O234 2.349 1_565 S
Tb199 O237 2.393 . S
Tb199 O238 2.465 . S
Tb199 O239 2.387 . S
Tb199 O241 2.428 . S
Tb199 O242 2.308 1_565 S
Tb199 C263 2.802 . S
N200 C196 1.361 . S
N200 Tb199 2.572 . S
N200 C202 1.340 . S
C201 C195 1.416 . S
C201 C203 1.332 . S
C201 H209 0.931 . S
C202 N200 1.340 . S
C202 C203 1.407 . S
C202 H208 0.930 . S
C203 C201 1.332 . S
C203 C202 1.407 . S
C203 H205 0.929 . S
H204 C193 0.930 . S
H205 C203 0.929 . S
H206 C221 0.930 1_554 S
H207 C228 0.929 . S
H208 C202 0.930 . S
H209 C201 0.931 . S
H210 C224 0.930 . S
H211 C191 0.930 . S
H212 C197 0.929 . S
H213 C198 0.930 . S
H214 C219 0.930 . S
H215 C194 0.930 . S
H216 C227 0.931 . S
N217 Tb188 2.617 . S
N217 C218 1.379 . S
N217 C221 1.334 . S
C218 N217 1.379 . S
C218 C220 1.416 . S
C218 C226 1.424 . S
C219 H214 0.930 . S
C219 C221 1.390 1_554 S
C219 C222 1.339 1_554 S
C220 C218 1.416 . S
C220 C222 1.416 . S
C220 C253 1.448 . S
C221 H206 0.930 1_556 S
C221 N217 1.334 . S
C221 C219 1.390 1_556 S
C222 C219 1.339 1_556 S
C222 C220 1.416 . S
C222 H229 0.930 1_556 S
N223 Tb188 2.572 . S
N223 C224 1.340 . S
N223 C226 1.361 . S
C224 H210 0.930 . S
C224 N223 1.340 . S
C224 C228 1.407 . S
C225 C226 1.413 . S
C225 C227 1.416 . S
C225 C254 1.427 . S
C226 C218 1.424 . S
C226 N223 1.361 . S
C226 C225 1.413 . S
C227 H216 0.931 . S
C227 C225 1.416 . S
C227 C228 1.332 . S
C228 H207 0.929 . S
C228 C224 1.407 . S
C228 C227 1.332 . S
H229 C222 0.930 1_554 S
H230 C253 0.930 . S
H231 C254 0.929 . S
O232 Tb188 2.465 . S
O232 C252 1.264 1_556 S
O233 Tb188 2.387 . S
O233 C244 1.264 . S
O234 Tb199 2.349 1_545 S
O234 C244 1.243 . S
O235 Tb188 2.428 1_554 S
O235 C252 1.256 . S
O236 Tb188 2.308 . S
O236 C251 1.267 . S
O237 Tb199 2.393 . S
O237 C251 1.247 1_565 S
O238 Tb199 2.465 . S
O238 C263 1.264 . S
O239 Tb199 2.387 . S
O239 C255 1.264 . S
O240 Tb188 2.349 1_565 S
O240 C255 1.243 . S
O241 Tb199 2.428 . S
O241 C263 1.256 . S
O242 Tb199 2.308 1_545 S
O242 C262 1.266 . S
O243 Tb188 2.393 . S
O243 C262 1.248 . S
C244 O233 1.264 . S
C244 O234 1.243 . S
C245 C248 1.399 . S
C245 C250 1.383 . S
C245 C252 1.496 . S
C246 C247 1.399 . S
C246 C250 1.389 . S
C247 C246 1.399 . S
C247 C249 1.380 . S
C247 H264 0.929 . S
C248 C245 1.399 . S
C248 C249 1.392 . S
C248 H265 0.929 . S
C249 C247 1.380 . S
C249 C248 1.392 . S
C249 H266 0.929 . S
C250 C245 1.383 . S
C250 C246 1.389 . S
C250 H267 0.931 . S
C251 O236 1.267 . S
C251 O237 1.247 1_545 S
C252 Tb188 2.802 1_554 S
C252 O232 1.264 1_554 S
C252 O235 1.256 . S
C252 C245 1.496 . S
C253 C220 1.448 . S
C253 H230 0.930 . S
C253 C254 1.328 . S
C254 C225 1.427 . S
C254 H231 0.929 . S
C254 C253 1.328 . S
C255 O239 1.264 . S
C255 O240 1.243 . S
C256 C259 1.399 . S
C256 C260 1.383 . S
C256 C263 1.496 . S
C257 C258 1.399 . S
C257 C260 1.389 . S
C258 C257 1.399 . S
C258 C261 1.380 . S
C258 H268 0.929 . S
C259 C256 1.399 . S
C259 C261 1.392 . S
C259 H269 0.929 . S
C260 C256 1.383 . S
C260 C257 1.389 . S
C260 H270 0.931 1_565 S
C261 C258 1.380 . S
C261 C259 1.392 . S
C261 H271 0.929 . S
C262 O242 1.266 . S
C262 O243 1.248 . S
C263 Tb199 2.802 . S
C263 O238 1.264 . S
C263 O241 1.256 . S
C263 C256 1.496 . S
H264 C247 0.929 . S
H265 C248 0.929 . S
H266 C249 0.929 . S
H267 C250 0.931 . S
H268 C258 0.929 . S
H269 C259 0.929 . S
H270 C260 0.931 1_545 S
H271 C261 0.929 . S
Tb272 N301 2.617 . S
Tb272 N307 2.572 . S
Tb272 O316 2.465 . S
Tb272 O317 2.387 . S
Tb272 O319 2.428 . S
Tb272 O320 2.308 . S
Tb272 O324 2.349 . S
Tb272 O327 2.393 . S
Tb272 C336 2.802 . S
C273 N274 1.379 1_554 S
C273 C276 1.416 . S
C273 C280 1.424 . S
N274 C273 1.379 1_556 S
N274 C277 1.334 . S
N274 Tb283 2.617 . S
C275 C277 1.390 . S
C275 C278 1.339 . S
C275 H295 0.930 . S
C276 C273 1.416 . S
C276 C278 1.416 1_554 S
C276 C282 1.448 . S
C277 N274 1.334 . S
C277 C275 1.390 . S
C277 H288 0.930 . S
C278 C275 1.339 . S
C278 C276 1.416 1_556 S
C278 H299 0.930 . S
C279 C280 1.413 . S
C279 C281 1.427 . S
C279 C285 1.416 . S
C280 C273 1.424 . S
C280 C279 1.413 . S
C280 N284 1.361 . S
C281 C279 1.427 . S
C281 C282 1.328 . S
C281 H296 0.929 . S
C282 C276 1.448 . S
C282 C281 1.328 . S
C282 H297 0.930 . S
Tb283 N274 2.617 . S
Tb283 N284 2.572 1_556 S
Tb283 O318 2.349 . S
Tb283 O321 2.393 . S
Tb283 O322 2.465 . S
Tb283 O323 2.387 . S
Tb283 O325 2.428 . S
Tb283 O326 2.308 . S
Tb283 C347 2.802 . S
N284 C280 1.361 . S
N284 Tb283 2.572 1_554 S
N284 C286 1.340 . S
C285 C279 1.416 . S
C285 C287 1.332 . S
C285 H293 0.931 . S
C286 N284 1.340 . S
C286 C287 1.407 . S
C286 H292 0.930 . S
C287 C285 1.332 . S
C287 C286 1.407 . S
C287 H289 0.929 . S
H288 C277 0.930 . S
H289 C287 0.929 . S
H290 C305 0.930 . S
H291 C312 0.929 . S
H292 C286 0.930 . S
H293 C285 0.931 . S
H294 C308 0.930 . S
H295 C275 0.930 . S
H296 C281 0.929 . S
H297 C282 0.930 . S
H298 C303 0.930 . S
H299 C278 0.930 . S
H300 C311 0.931 . S
N301 Tb272 2.617 . S
N301 C302 1.379 . S
N301 C305 1.334 . S
C302 N301 1.379 . S
C302 C304 1.416 . S
C302 C310 1.424 . S
C303 H298 0.930 . S
C303 C305 1.390 . S
C303 C306 1.339 . S
C304 C302 1.416 . S
C304 C306 1.416 . S
C304 C337 1.448 . S
C305 H290 0.930 . S
C305 N301 1.334 . S
C305 C303 1.390 . S
C306 C303 1.339 . S
C306 C304 1.416 . S
C306 H313 0.930 . S
N307 Tb272 2.572 . S
N307 C308 1.340 . S
N307 C310 1.361 . S
C308 H294 0.930 . S
C308 N307 1.340 . S
C308 C312 1.407 . S
C309 C310 1.413 . S
C309 C311 1.416 . S
C309 C338 1.427 . S
C310 C302 1.424 . S
C310 N307 1.361 . S
C310 C309 1.413 . S
C311 H300 0.931 . S
C311 C309 1.416 . S
C311 C312 1.332 . S
C312 H291 0.929 . S
C312 C308 1.407 . S
C312 C311 1.332 . S
H313 C306 0.930 . S
H314 C337 0.930 . S
H315 C338 0.929 . S
O316 Tb272 2.465 . S
O316 C336 1.264 . S
O317 Tb272 2.387 . S
O317 C328 1.264 . S
O318 Tb283 2.349 . S
O318 C328 1.243 . S
O319 Tb272 2.428 . S
O319 C336 1.256 . S
O320 Tb272 2.308 . S
O320 C335 1.266 . S
O321 Tb283 2.393 . S
O321 C335 1.248 . S
O322 Tb283 2.465 . S
O322 C347 1.264 . S
O323 Tb283 2.387 . S
O323 C339 1.264 . S
O324 Tb272 2.349 . S
O324 C339 1.243 . S
O325 Tb283 2.428 . S
O325 C347 1.256 . S
O326 Tb283 2.308 . S
O326 C346 1.266 . S
O327 Tb272 2.393 . S
O327 C346 1.248 . S
C328 O317 1.264 . S
C328 O318 1.243 . S
C329 C332 1.399 . S
C329 C334 1.383 . S
C329 C336 1.496 . S
C330 C331 1.399 . S
C330 C334 1.389 . S
C331 C330 1.399 . S
C331 C333 1.380 . S
C331 H348 0.929 . S
C332 C329 1.399 . S
C332 C333 1.392 . S
C332 H349 0.929 . S
C333 C331 1.380 . S
C333 C332 1.392 . S
C333 H350 0.929 . S
C334 C329 1.383 . S
C334 C330 1.389 . S
C334 H351 0.931 . S
C335 O320 1.266 . S
C335 O321 1.248 . S
C336 Tb272 2.802 . S
C336 O316 1.264 . S
C336 O319 1.256 . S
C336 C329 1.496 . S
C337 C304 1.448 . S
C337 H314 0.930 . S
C337 C338 1.328 . S
C338 C309 1.427 . S
C338 H315 0.929 . S
C338 C337 1.328 . S
C339 O323 1.264 . S
C339 O324 1.243 . S
C340 C343 1.399 . S
C340 C344 1.383 . S
C340 C347 1.496 1_554 S
C341 C342 1.399 . S
C341 C344 1.389 . S
C342 C341 1.399 . S
C342 C345 1.380 . S
C342 H352 0.929 . S
C343 C340 1.399 . S
C343 C345 1.392 . S
C343 H353 0.929 1_554 S
C344 C340 1.383 . S
C344 C341 1.389 . S
C344 H354 0.931 . S
C345 C342 1.380 . S
C345 C343 1.392 . S
C345 H355 0.929 . S
C346 O326 1.266 . S
C346 O327 1.248 . S
C347 Tb283 2.802 . S
C347 O322 1.264 . S
C347 O325 1.256 . S
C347 C340 1.496 1_556 S
H348 C331 0.929 . S
H349 C332 0.929 . S
H350 C333 0.929 . S
H351 C334 0.931 . S
H352 C342 0.929 . S
H353 C343 0.929 1_556 S
H354 C344 0.931 . S
H355 C345 0.929 . S
Tb356 N385 2.617 . S
Tb356 N391 2.572 . S
Tb356 O400 2.465 . S
Tb356 O401 2.387 1_455 S
Tb356 O403 2.428 . S
Tb356 O404 2.308 . S
Tb356 O408 2.349 . S
Tb356 O411 2.393 . S
Tb356 C420 2.802 . S
C357 N358 1.379 1_554 S
C357 C360 1.416 . S
C357 C364 1.424 . S
N358 C357 1.379 1_556 S
N358 C361 1.336 . S
N358 Tb367 2.617 1_455 S
C359 C361 1.393 . S
C359 C362 1.339 . S
C359 H379 0.930 . S
C360 C357 1.416 . S
C360 C362 1.416 1_554 S
C360 C366 1.448 . S
C361 N358 1.336 . S
C361 C359 1.393 . S
C361 H372 0.926 1_455 S
C362 C359 1.339 . S
C362 C360 1.416 1_556 S
C362 H383 0.930 . S
C363 C364 1.413 . S
C363 C365 1.427 . S
C363 C369 1.416 . S
C364 C357 1.424 . S
C364 C363 1.413 . S
C364 N368 1.361 . S
C365 C363 1.427 . S
C365 C366 1.328 . S
C365 H380 0.929 . S
C366 C360 1.448 . S
C366 C365 1.328 . S
C366 H381 0.930 . S
Tb367 N358 2.617 1_655 S
Tb367 N368 2.572 1_656 S
Tb367 O402 2.349 . S
Tb367 O405 2.393 . S
Tb367 O406 2.465 . S
Tb367 O407 2.387 1_655 S
Tb367 O409 2.428 . S
Tb367 O410 2.308 1_655 S
Tb367 C431 2.802 . S
N368 C364 1.361 . S
N368 Tb367 2.572 1_454 S
N368 C370 1.340 . S
C369 C363 1.416 . S
C369 C371 1.332 . S
C369 H377 0.931 . S
C370 N368 1.340 . S
C370 C371 1.407 . S
C370 H376 0.930 . S
C371 C369 1.332 . S
C371 C370 1.407 . S
C371 H373 0.929 . S
H372 C361 0.926 1_655 S
H373 C371 0.929 . S
H374 C389 0.930 . S
H375 C396 0.929 . S
H376 C370 0.930 . S
H377 C369 0.931 . S
H378 C392 0.930 . S
H379 C359 0.930 . S
H380 C365 0.929 . S
H381 C366 0.930 . S
H382 C387 0.930 . S
H383 C362 0.930 . S
H384 C395 0.931 . S
N385 Tb356 2.617 . S
N385 C386 1.379 1_455 S
N385 C389 1.334 . S
C386 N385 1.379 1_655 S
C386 C388 1.416 . S
C386 C394 1.424 . S
C387 H382 0.930 . S
C387 C389 1.390 . S
C387 C390 1.339 1_455 S
C388 C386 1.416 . S
C388 C390 1.416 . S
C388 C421 1.448 . S
C389 H374 0.930 . S
C389 N385 1.334 . S
C389 C387 1.390 . S
C390 C387 1.339 1_655 S
C390 C388 1.416 . S
C390 H397 0.930 . S
N391 Tb356 2.572 . S
N391 C392 1.340 . S
N391 C394 1.361 1_455 S
C392 H378 0.930 . S
C392 N391 1.340 . S
C392 C396 1.407 1_455 S
C393 C394 1.413 . S
C393 C395 1.416 . S
C393 C422 1.427 . S
C394 C386 1.424 . S
C394 N391 1.361 1_655 S
C394 C393 1.413 . S
C395 H384 0.931 . S
C395 C393 1.416 . S
C395 C396 1.332 . S
C396 H375 0.929 . S
C396 C392 1.407 1_655 S
C396 C395 1.332 . S
H397 C390 0.930 . S
H398 C421 0.930 . S
H399 C422 0.929 . S
O400 Tb356 2.465 . S
O400 C420 1.264 . S
O401 Tb356 2.387 1_655 S
O401 C412 1.264 . S
O402 Tb367 2.349 . S
O402 C412 1.243 . S
O403 Tb356 2.428 . S
O403 C420 1.256 . S
O404 Tb356 2.308 . S
O404 C419 1.266 . S
O405 Tb367 2.393 . S
O405 C419 1.248 1_655 S
O406 Tb367 2.465 . S
O406 C431 1.264 . S
O407 Tb367 2.387 1_455 S
O407 C423 1.264 . S
O408 Tb356 2.349 . S
O408 C423 1.243 . S
O409 Tb367 2.428 . S
O409 C431 1.256 . S
O410 Tb367 2.308 1_455 S
O410 C430 1.266 . S
O411 Tb356 2.393 . S
O411 C430 1.248 . S
C412 O401 1.264 . S
C412 O402 1.243 . S
C413 C416 1.399 . S
C413 C418 1.383 . S
C413 C420 1.496 . S
C414 C415 1.399 . S
C414 C418 1.389 . S
C415 C414 1.399 . S
C415 C417 1.380 . S
C415 H432 0.929 . S
C416 C413 1.399 . S
C416 C417 1.392 . S
C416 H433 0.929 . S
C417 C415 1.380 . S
C417 C416 1.392 . S
C417 H434 0.929 . S
C418 C413 1.383 . S
C418 C414 1.389 . S
C418 H435 0.931 . S
C419 O404 1.266 . S
C419 O405 1.248 1_455 S
C420 Tb356 2.802 . S
C420 O400 1.264 . S
C420 O403 1.256 . S
C420 C413 1.496 . S
C421 C388 1.448 . S
C421 H398 0.930 . S
C421 C422 1.328 . S
C422 C393 1.427 . S
C422 H399 0.929 . S
C422 C421 1.328 . S
C423 O407 1.264 . S
C423 O408 1.243 . S
C424 C427 1.399 . S
C424 C428 1.383 . S
C424 C431 1.496 1_554 S
C425 C426 1.399 . S
C425 C428 1.389 . S
C426 C425 1.399 . S
C426 C429 1.380 . S
C426 H436 0.929 . S
C427 C424 1.399 . S
C427 C429 1.392 . S
C427 H437 0.929 1_554 S
C428 C424 1.383 . S
C428 C425 1.389 . S
C428 H438 0.931 . S
C429 C426 1.380 . S
C429 C427 1.392 . S
C429 H439 0.929 . S
C430 O410 1.266 . S
C430 O411 1.248 . S
C431 Tb367 2.802 . S
C431 O406 1.264 . S
C431 O409 1.256 . S
C431 C424 1.496 1_556 S
H432 C415 0.929 . S
H433 C416 0.929 . S
H434 C417 0.929 . S
H435 C418 0.931 . S
H436 C426 0.929 . S
H437 C427 0.929 1_556 S
H438 C428 0.931 . S
H439 C429 0.929 . S
C440 C441 1.369 . S
C440 C442 1.419 . S
C440 H444 0.930 . S
C441 C440 1.369 . S
C441 C450 1.426 1_545 S
C442 C440 1.419 . S
C442 C443 1.363 . S
C442 H445 0.929 . S
C443 C442 1.363 . S
C443 C449 1.428 1_545 S
H444 C440 0.930 . S
H445 C442 0.929 . S
S446 N447 1.613 . S
S446 N448 1.610 . S
N447 S446 1.613 . S
N447 C450 1.352 . S
N448 S446 1.610 . S
N448 C449 1.351 . S
C449 C443 1.428 1_565 S
C449 N448 1.351 . S
C449 C450 1.434 . S
C450 C441 1.426 1_565 S
C450 N447 1.352 . S
C450 C449 1.434 . S
C451 C452 1.369 . S
C451 C453 1.419 . S
C451 H455 0.930 . S
C452 C451 1.369 . S
C452 C461 1.429 . S
C453 C451 1.419 . S
C453 C454 1.363 . S
C453 H456 0.929 . S
C454 C453 1.363 . S
C454 C460 1.428 . S
H455 C451 0.930 . S
H456 C453 0.929 . S
S457 N458 1.613 . S
S457 N459 1.610 . S
N458 S457 1.613 . S
N458 C461 1.350 . S
N459 S457 1.610 . S
N459 C460 1.351 . S
C460 C454 1.428 . S
C460 N459 1.351 . S
C460 C461 1.434 . S
C461 C452 1.429 . S
C461 N458 1.350 . S
C461 C460 1.434 . S
C462 C463 1.369 . S
C462 C464 1.419 . S
C462 H466 0.930 . S
C463 C462 1.369 . S
C463 C472 1.429 . S
C464 C462 1.419 . S
C464 C465 1.363 . S
C464 H467 0.929 . S
C465 C464 1.363 . S
C465 C471 1.428 . S
H466 C462 0.930 . S
H467 C464 0.929 . S
S468 N469 1.613 . S
S468 N470 1.610 . S
N469 S468 1.613 . S
N469 C472 1.350 . S
N470 S468 1.610 . S
N470 C471 1.351 . S
C471 C465 1.428 . S
C471 N470 1.351 . S
C471 C472 1.434 . S
C472 C463 1.429 . S
C472 N469 1.350 . S
C472 C471 1.434 . S
C473 C474 1.369 1_655 S
C473 C475 1.419 . S
C473 H477 0.930 . S
C474 C473 1.369 1_455 S
C474 C483 1.429 . S
C475 C473 1.419 . S
C475 C476 1.363 1_655 S
C475 H478 0.929 . S
C476 C475 1.363 1_455 S
C476 C482 1.428 . S
H477 C473 0.930 . S
H478 C475 0.929 . S
S479 N480 1.613 . S
S479 N481 1.610 . S
N480 S479 1.613 . S
N480 C483 1.350 . S
N481 S479 1.610 . S
N481 C482 1.351 . S
C482 C476 1.428 . S
C482 N481 1.351 . S
C482 C483 1.434 . S
C483 C474 1.429 . S
C483 N480 1.350 . S
C483 C482 1.434 . S
C484 C485 1.369 . S
C484 C486 1.419 . S
C484 H488 0.930 . S
C485 C484 1.369 . S
C485 C494 1.429 1_565 S
C486 C484 1.419 . S
C486 C487 1.369 . S
C486 H489 0.929 1_554 S
C487 C486 1.369 . S
C487 C493 1.424 1_565 S
H488 C484 0.930 . S
H489 C486 0.929 1_556 S
S490 N491 1.613 . S
S490 N492 1.610 . S
N491 S490 1.613 . S
N491 C494 1.350 . S
N492 S490 1.610 . S
N492 C493 1.351 . S
C493 C487 1.424 1_545 S
C493 N492 1.351 . S
C493 C494 1.434 . S
C494 C485 1.429 1_545 S
C494 N491 1.350 . S
C494 C493 1.434 . S
C495 C496 1.369 . S
C495 C497 1.419 . S
C495 H499 0.930 . S
C496 C495 1.369 . S
C496 C505 1.429 . S
C497 C495 1.419 . S
C497 C498 1.363 . S
C497 H500 0.929 1_554 S
C498 C497 1.363 . S
C498 C504 1.428 . S
H499 C495 0.930 . S
H500 C497 0.929 1_556 S
S501 N502 1.613 . S
S501 N503 1.610 . S
N502 S501 1.613 . S
N502 C505 1.350 . S
N503 S501 1.610 . S
N503 C504 1.351 . S
C504 C498 1.428 . S
C504 N503 1.351 . S
C504 C505 1.434 . S
C505 C496 1.429 . S
C505 N502 1.350 . S
C505 C504 1.434 . S
C506 C507 1.369 . S
C506 C508 1.419 . S
C506 H510 0.930 . S
C507 C506 1.369 . S
C507 C516 1.429 . S
C508 C506 1.419 . S
C508 C509 1.363 . S
C508 H511 0.929 1_554 S
C509 C508 1.363 . S
C509 C515 1.428 . S
H510 C506 0.930 . S
H511 C508 0.929 1_556 S
S512 N513 1.613 . S
S512 N514 1.610 . S
N513 S512 1.613 . S
N513 C516 1.350 . S
N514 S512 1.610 . S
N514 C515 1.351 . S
C515 C509 1.428 . S
C515 N514 1.351 . S
C515 C516 1.434 . S
C516 C507 1.429 . S
C516 N513 1.350 . S
C516 C515 1.434 . S
C517 C518 1.369 1_455 S
C517 C519 1.419 . S
C517 H521 0.930 . S
C518 C517 1.369 1_655 S
C518 C527 1.429 . S
C519 C517 1.419 . S
C519 C520 1.363 1_455 S
C519 H522 0.929 1_554 S
C520 C519 1.363 1_655 S
C520 C526 1.428 . S
H521 C517 0.930 . S
H522 C519 0.929 1_556 S
S523 N524 1.613 . S
S523 N525 1.610 . S
N524 S523 1.613 . S
N524 C527 1.350 . S
N525 S523 1.610 . S
N525 C526 1.351 . S
C526 C520 1.428 . S
C526 N525 1.351 . S
C526 C527 1.434 . S
C527 C518 1.429 . S
C527 N524 1.350 . S
C527 C526 1.434 . S
C528 C529 1.369 . S
C528 C530 1.419 . S
C528 H532 0.930 . S
C529 C528 1.369 . S
C529 C538 1.429 1_455 S
C530 C528 1.419 . S
C530 C531 1.363 1_455 S
C530 H533 0.929 . S
C531 C530 1.363 1_655 S
C531 C537 1.428 . S
H532 C528 0.930 . S
H533 C530 0.929 . S
S534 N535 1.613 . S
S534 N536 1.610 . S
N535 S534 1.613 . S
N535 C538 1.350 . S
N536 S534 1.610 . S
N536 C537 1.351 . S
C537 C531 1.428 . S
C537 N536 1.351 . S
C537 C538 1.434 . S
C538 C529 1.429 1_655 S
C538 N535 1.350 . S
C538 C537 1.434 . S
C539 C540 1.369 . S
C539 C541 1.419 1_545 S
C539 H543 0.930 1_545 S
C540 C539 1.369 . S
C540 C549 1.429 . S
C541 C539 1.419 1_565 S
C541 C542 1.363 1_565 S
C541 H544 0.929 . S
C542 C541 1.363 1_545 S
C542 C548 1.428 . S
H543 C539 0.930 1_565 S
H544 C541 0.929 . S
S545 N546 1.613 . S
S545 N547 1.610 . S
N546 S545 1.613 . S
N546 C549 1.350 . S
N547 S545 1.610 . S
N547 C548 1.351 . S
C548 C542 1.428 . S
C548 N547 1.351 . S
C548 C549 1.434 . S
C549 C540 1.429 . S
C549 N546 1.350 . S
C549 C548 1.434 . S
C550 C551 1.369 . S
C550 C552 1.419 . S
C550 H554 0.930 . S
C551 C550 1.369 . S
C551 C560 1.429 . S
C552 C550 1.419 . S
C552 C553 1.363 . S
C552 H555 0.929 . S
C553 C552 1.363 . S
C553 C559 1.428 . S
H554 C550 0.930 . S
H555 C552 0.929 . S
S556 N557 1.613 . S
S556 N558 1.610 . S
N557 S556 1.613 . S
N557 C560 1.350 . S
N558 S556 1.610 . S
N558 C559 1.351 . S
C559 C553 1.428 . S
C559 N558 1.351 . S
C559 C560 1.434 . S
C560 C551 1.429 . S
C560 N557 1.350 . S
C560 C559 1.434 . S
C561 C562 1.369 . S
C561 C563 1.419 . S
C561 H565 0.930 . S
C562 C561 1.369 . S
C562 C571 1.429 . S
C563 C561 1.419 . S
C563 C564 1.363 . S
C563 H566 0.929 . S
C564 C563 1.363 . S
C564 C570 1.428 . S
H565 C561 0.930 . S
H566 C563 0.929 . S
S567 N568 1.613 1_556 S
S567 N569 1.610 1_556 S
N568 S567 1.613 1_554 S
N568 C571 1.350 . S
N569 S567 1.610 1_554 S
N569 C570 1.351 . S
C570 C564 1.428 . S
C570 N569 1.351 . S
C570 C571 1.434 . S
C571 C562 1.429 . S
C571 N568 1.350 . S
C571 C570 1.434 . S
C572 C573 1.369 . S
C572 C574 1.419 . S
C572 H576 0.930 . S
C573 C572 1.369 . S
C573 C582 1.429 1_655 S
C574 C572 1.419 . S
C574 C575 1.363 1_655 S
C574 H577 0.929 . S
C575 C574 1.363 1_455 S
C575 C581 1.428 . S
H576 C572 0.930 . S
H577 C574 0.929 . S
S578 N579 1.613 . S
S578 N580 1.610 . S
N579 S578 1.613 . S
N579 C582 1.350 . S
N580 S578 1.610 . S
N580 C581 1.351 . S
C581 C575 1.428 . S
C581 N580 1.351 . S
C581 C582 1.434 . S
C582 C573 1.429 1_455 S
C582 N579 1.350 . S
C582 C581 1.434 . S
C583 C584 1.369 . S
C583 C585 1.419 1_565 S
C583 H587 0.930 . S
C584 C583 1.369 . S
C584 C593 1.429 1_565 S
C585 C583 1.419 1_545 S
C585 C586 1.363 . S
C585 H588 0.929 . S
C586 C585 1.363 . S
C586 C592 1.428 . S
H587 C583 0.930 . S
H588 C585 0.929 . S
S589 N590 1.613 . S
S589 N591 1.610 . S
N590 S589 1.613 . S
N590 C593 1.350 . S
N591 S589 1.610 . S
N591 C592 1.351 . S
C592 C586 1.428 . S
C592 N591 1.351 . S
C592 C593 1.434 . S
C593 C584 1.429 1_545 S
C593 N590 1.350 . S
C593 C592 1.434 . S
C594 C595 1.369 . S
C594 C596 1.419 . S
C594 H598 0.930 . S
C595 C594 1.369 . S
C595 C604 1.429 . S
C596 C594 1.419 . S
C596 C597 1.363 . S
C596 H599 0.929 . S
C597 C596 1.363 . S
C597 C603 1.428 . S
H598 C594 0.930 . S
H599 C596 0.929 . S
S600 N601 1.613 . S
S600 N602 1.610 . S
N601 S600 1.613 . S
N601 C604 1.350 . S
N602 S600 1.610 . S
N602 C603 1.351 . S
C603 C597 1.428 . S
C603 N602 1.351 . S
C603 C604 1.434 . S
C604 C595 1.429 . S
C604 N601 1.350 . S
C604 C603 1.434 . S
C605 C606 1.369 . S
C605 C607 1.419 . S
C605 H609 0.930 . S
C606 C605 1.369 . S
C606 C615 1.429 . S
C607 C605 1.419 . S
C607 C608 1.363 . S
C607 H610 0.929 . S
C608 C607 1.363 . S
C608 C614 1.428 . S
H609 C605 0.930 . S
H610 C607 0.929 . S
S611 N612 1.613 . S
S611 N613 1.610 . S
N612 S611 1.613 . S
N612 C615 1.350 . S
N613 S611 1.610 . S
N613 C614 1.351 . S
C614 C608 1.428 . S
C614 N613 1.351 . S
C614 C615 1.434 . S
C615 C606 1.429 . S
C615 N612 1.350 . S
C615 C614 1.434 . S
C616 C617 1.369 . S
C616 C618 1.419 . S
C616 H620 0.930 . S
C617 C616 1.369 . S
C617 C626 1.429 . S
C618 C616 1.419 . S
C618 C619 1.363 . S
C618 H621 0.929 . S
C619 C618 1.363 . S
C619 C625 1.428 . S
H620 C616 0.930 . S
H621 C618 0.929 . S
S622 N623 1.613 . S
S622 N624 1.610 . S
N623 S622 1.613 . S
N623 C626 1.350 1_554 S
N624 S622 1.610 . S
N624 C625 1.351 1_554 S
C625 C619 1.428 . S
C625 N624 1.351 1_556 S
C625 C626 1.434 . S
C626 C617 1.429 . S
C626 N623 1.350 1_556 S
C626 C625 1.434 . S
C627 C628 1.369 . S
C627 C629 1.419 . S
C627 H631 0.930 . S
C628 C627 1.369 . S
C628 C637 1.429 . S
C629 C627 1.419 . S
C629 C630 1.363 . S
C629 H632 0.929 . S
C630 C629 1.363 . S
C630 C636 1.428 . S
H631 C627 0.930 . S
H632 C629 0.929 . S
S633 N634 1.613 . S
S633 N635 1.610 . S
N634 S633 1.613 . S
N634 C637 1.350 1_565 S
N635 S633 1.610 . S
N635 C636 1.351 1_565 S
C636 C630 1.428 . S
C636 N635 1.351 1_545 S
C636 C637 1.434 . S
C637 C628 1.429 . S
C637 N634 1.350 1_545 S
C637 C636 1.434 . S
C638 C639 1.369 . S
C638 C640 1.419 . S
C638 H642 0.930 1_556 S
C639 C638 1.369 . S
C639 C648 1.429 . S
C640 C638 1.419 . S
C640 C641 1.363 . S
C640 H643 0.929 . S
C641 C640 1.363 . S
C641 C647 1.428 . S
H642 C638 0.930 1_554 S
H643 C640 0.929 . S
S644 N645 1.613 . S
S644 N646 1.610 . S
N645 S644 1.613 . S
N645 C648 1.350 . S
N646 S644 1.610 . S
N646 C647 1.351 . S
C647 C641 1.428 . S
C647 N646 1.351 . S
C647 C648 1.434 . S
C648 C639 1.429 . S
C648 N645 1.350 . S
C648 C647 1.434 . S
C649 C650 1.369 . S
C649 C651 1.419 . S
C649 H653 0.930 . S
C650 C649 1.369 . S
C650 C659 1.429 . S
C651 C649 1.419 . S
C651 C652 1.363 . S
C651 H654 0.929 . S
C652 C651 1.363 . S
C652 C658 1.428 . S
H653 C649 0.930 . S
H654 C651 0.929 . S
S655 N656 1.613 . S
S655 N657 1.610 . S
N656 S655 1.613 . S
N656 C659 1.350 . S
N657 S655 1.610 . S
N657 C658 1.351 . S
C658 C652 1.428 . S
C658 N657 1.351 . S
C658 C659 1.434 . S
C659 C650 1.429 . S
C659 N656 1.350 . S
C659 C658 1.434 . S
C660 C661 1.369 1_455 S
C660 C662 1.419 . S
C660 H664 0.930 . S
C661 C660 1.369 1_655 S
C661 C670 1.429 . S
C662 C660 1.419 . S
C662 C663 1.363 1_455 S
C662 H665 0.929 . S
C663 C662 1.363 1_655 S
C663 C669 1.428 . S
H664 C660 0.930 . S
H665 C662 0.929 . S
S666 N667 1.613 . S
S666 N668 1.610 . S
N667 S666 1.613 . S
N667 C670 1.350 . S
N668 S666 1.610 . S
N668 C669 1.351 . S
C669 C663 1.428 . S
C669 N668 1.351 . S
C669 C670 1.434 . S
C670 C661 1.429 . S
C670 N667 1.350 . S
C670 C669 1.434 . S
C671 C672 1.369 . S
C671 C673 1.419 . S
C671 H675 0.930 . S
C672 C671 1.369 . S
C672 C681 1.429 1_565 S
C673 C671 1.419 . S
C673 C674 1.363 . S
C673 H676 0.929 . S
C674 C673 1.363 . S
C674 C680 1.428 1_565 S
H675 C671 0.930 . S
H676 C673 0.929 . S
S677 N678 1.613 . S
S677 N679 1.610 . S
N678 S677 1.613 . S
N678 C681 1.350 . S
N679 S677 1.610 . S
N679 C680 1.351 . S
C680 C674 1.428 1_545 S
C680 N679 1.351 . S
C680 C681 1.434 . S
C681 C672 1.429 1_545 S
C681 N678 1.350 . S
C681 C680 1.434 . S
C682 C683 1.369 . S
C682 C684 1.419 . S
C682 H686 0.930 . S
C683 C682 1.369 . S
C683 C692 1.429 . S
C684 C682 1.419 . S
C684 C685 1.363 . S
C684 H687 0.929 . S
C685 C684 1.363 . S
C685 C691 1.428 . S
H686 C682 0.930 . S
H687 C684 0.929 . S
S688 N689 1.613 . S
S688 N690 1.610 . S
N689 S688 1.613 . S
N689 C692 1.350 . S
N690 S688 1.610 . S
N690 C691 1.351 . S
C691 C685 1.428 . S
C691 N690 1.351 . S
C691 C692 1.434 . S
C692 C683 1.429 . S
C692 N689 1.350 . S
C692 C691 1.434 . S
C693 C694 1.369 . S
C693 C695 1.419 . S
C693 H697 0.930 . S
C694 C693 1.369 . S
C694 C703 1.429 . S
C695 C693 1.419 . S
C695 C696 1.363 . S
C695 H698 0.929 . S
C696 C695 1.363 . S
C696 C702 1.428 . S
H697 C693 0.930 . S
H698 C695 0.929 . S
S699 N700 1.613 . S
S699 N701 1.610 . S
N700 S699 1.613 . S
N700 C703 1.350 . S
N701 S699 1.610 . S
N701 C702 1.351 . S
C702 C696 1.428 . S
C702 N701 1.351 . S
C702 C703 1.434 . S
C703 C694 1.429 . S
C703 N700 1.350 . S
C703 C702 1.434 . S
C441 C82 1.809 . S
C443 C167 2.166 . S
C454 C244 2.169 . S
C452 C95 1.807 . S
C465 C335 2.170 . S
C463 C56 1.793 . S
C476 C419 2.157 . S
C474 C69 1.787 . S
C487 C178 2.165 1_564 S
C485 C30 1.768 . S
C496 C43 1.770 . S
C498 C255 2.170 1_554 S
C507 C4 1.771 . S
C509 C346 2.166 1_554 S
C518 C17 1.766 . S
C520 C430 2.155 1_654 S
C531 C162 0.757 . S
C529 C74 0.761 . S
C542 C257 0.742 1_545 S
C540 C87 0.747 . S
C553 C330 0.768 . S
C551 C100 0.777 . S
C562 C61 0.742 . S
C564 C414 0.754 . S
C573 C22 0.758 . S
C575 C173 0.756 . S
C586 C246 0.756 . S
C584 C35 0.751 . S
C597 C341 0.771 . S
C595 C48 0.758 . S
C606 C9 0.744 . S
C608 C425 0.755 . S
C617 C73 2.020 . S
C619 C171 2.280 . S
C628 C86 2.032 . S
C630 C262 2.324 . S
C641 C339 2.292 . S
C639 C99 2.044 . S
C652 C423 2.298 . S
C650 C60 2.043 . S
C661 C21 2.025 . S
C663 C160 2.279 . S
C674 C251 2.324 1_565 S
C672 C34 2.035 . S
C685 C328 2.292 . S
C683 C47 2.042 . S
C694 C8 2.036 . S
C696 C412 2.299 . S
