# Generated by pormake.
# Topology sqc, (4,8)-cn, num edge types: 1
# Building blocks:
#     Node 0, Type 0, BuildingBlock: MUDLON_clean_linker_0, # of connection points: 4
#     Node 1, Type 0, BuildingBlock: MUDLON_clean_linker_0, # of connection points: 4
#     Node 2, Type 0, BuildingBlock: MUDLON_clean_linker_0, # of connection points: 4
#     Node 3, Type 0, BuildingBlock: MUDLON_clean_linker_0, # of connection points: 4
#     Node 4, Type 0, BuildingBlock: MUDLON_clean_linker_0, # of connection points: 4
#     Node 5, Type 0, BuildingBlock: MUDLON_clean_linker_0, # of connection points: 4
#     Node 6, Type 0, BuildingBlock: MUDLON_clean_linker_0, # of connection points: 4
#     Node 7, Type 0, BuildingBlock: MUDLON_clean_linker_0, # of connection points: 4
#     Node 8, Type 1, BuildingBlock: VETTIZ_charged_sbu_0, # of connection points: 8
#     Node 9, Type 1, BuildingBlock: VETTIZ_charged_sbu_0, # of connection points: 8
#     Node 10, Type 1, BuildingBlock: VETTIZ_charged_sbu_0, # of connection points: 8
#     Node 11, Type 1, BuildingBlock: VETTIZ_charged_sbu_0, # of connection points: 8
#     Edge 12, Type (0, 1), BuildingBlock: XIVTED_clean_linker_0, # of connection points: 2
#     Edge 13, Type (0, 1), BuildingBlock: XIVTED_clean_linker_0, # of connection points: 2
#     Edge 14, Type (0, 1), BuildingBlock: XIVTED_clean_linker_0, # of connection points: 2
#     Edge 15, Type (0, 1), BuildingBlock: XIVTED_clean_linker_0, # of connection points: 2
#     Edge 16, Type (0, 1), BuildingBlock: XIVTED_clean_linker_0, # of connection points: 2
#     Edge 17, Type (0, 1), BuildingBlock: XIVTED_clean_linker_0, # of connection points: 2
#     Edge 18, Type (0, 1), BuildingBlock: XIVTED_clean_linker_0, # of connection points: 2
#     Edge 19, Type (0, 1), BuildingBlock: XIVTED_clean_linker_0, # of connection points: 2
#     Edge 20, Type (0, 1), BuildingBlock: XIVTED_clean_linker_0, # of connection points: 2
#     Edge 21, Type (0, 1), BuildingBlock: XIVTED_clean_linker_0, # of connection points: 2
#     Edge 22, Type (0, 1), BuildingBlock: XIVTED_clean_linker_0, # of connection points: 2
#     Edge 23, Type (0, 1), BuildingBlock: XIVTED_clean_linker_0, # of connection points: 2
#     Edge 24, Type (0, 1), BuildingBlock: XIVTED_clean_linker_0, # of connection points: 2
#     Edge 25, Type (0, 1), BuildingBlock: XIVTED_clean_linker_0, # of connection points: 2
#     Edge 26, Type (0, 1), BuildingBlock: XIVTED_clean_linker_0, # of connection points: 2
#     Edge 27, Type (0, 1), BuildingBlock: XIVTED_clean_linker_0, # of connection points: 2
#     Edge 28, Type (0, 1), BuildingBlock: XIVTED_clean_linker_0, # of connection points: 2
#     Edge 29, Type (0, 1), BuildingBlock: XIVTED_clean_linker_0, # of connection points: 2
#     Edge 30, Type (0, 1), BuildingBlock: XIVTED_clean_linker_0, # of connection points: 2
#     Edge 31, Type (0, 1), BuildingBlock: XIVTED_clean_linker_0, # of connection points: 2
#     Edge 32, Type (0, 1), BuildingBlock: XIVTED_clean_linker_0, # of connection points: 2
#     Edge 33, Type (0, 1), BuildingBlock: XIVTED_clean_linker_0, # of connection points: 2
#     Edge 34, Type (0, 1), BuildingBlock: XIVTED_clean_linker_0, # of connection points: 2
#     Edge 35, Type (0, 1), BuildingBlock: XIVTED_clean_linker_0, # of connection points: 2
#     Edge 36, Type (0, 1), BuildingBlock: XIVTED_clean_linker_0, # of connection points: 2
#     Edge 37, Type (0, 1), BuildingBlock: XIVTED_clean_linker_0, # of connection points: 2
#     Edge 38, Type (0, 1), BuildingBlock: XIVTED_clean_linker_0, # of connection points: 2
#     Edge 39, Type (0, 1), BuildingBlock: XIVTED_clean_linker_0, # of connection points: 2
#     Edge 40, Type (0, 1), BuildingBlock: XIVTED_clean_linker_0, # of connection points: 2
#     Edge 41, Type (0, 1), BuildingBlock: XIVTED_clean_linker_0, # of connection points: 2
#     Edge 42, Type (0, 1), BuildingBlock: XIVTED_clean_linker_0, # of connection points: 2
#     Edge 43, Type (0, 1), BuildingBlock: XIVTED_clean_linker_0, # of connection points: 2
# Relax obj value: 0.165
# Max RMSD: 0.286
# Mean RMSD: 0.211
data_MOF--net-sqc--node1-VETTIZ_charged_sbu_0--node2-MUDLON_clean_linker_0--edge1-XIVTED_clean_linker_0
_symmetry_space_group_name_H-M    P1
_symmetry_Int_Tables_number       1
_symmetry_cell_setting            triclinic
loop_
_symmetry_equiv_pos_as_xyz
'x, y, z'
_cell_length_a     32.061942
_cell_length_b     32.202157
_cell_length_c     87.528997
_cell_angle_alpha  90.077362
_cell_angle_beta   90.027502
_cell_angle_gamma 90.228867
loop_
_atom_site_label
_atom_site_type_symbol
_atom_site_fract_x
_atom_site_fract_y
_atom_site_fract_z
_atom_type_partial_charge
H0 H 0.81752 0.95069 0.56503 0.0
N1 N 0.85856 0.97295 0.53988 0.0
H2 H 0.77875 0.9957 0.58265 0.0
H3 H 0.85542 0.05855 0.53927 0.0
H4 H 0.81799 0.103 0.55676 0.0
H5 H 0.81433 0.02198 0.51994 0.0
H6 H 0.76327 0.99792 0.50116 0.0
H7 H 0.84308 0.89513 0.53142 0.0
H8 H 0.79252 0.87079 0.51231 0.0
H9 H 0.92325 0.93316 0.5517 0.0
H10 H 0.89161 0.02949 0.51975 0.0
H11 H 0.99705 0.94814 0.54811 0.0
H12 H 0.96428 0.0489 0.51761 0.0
H13 H 0.22365 0.00971 0.54074 0.0
H14 H 0.26569 0.02001 0.56318 0.0
H15 H 0.18391 0.1196 0.57749 0.0
H16 H 0.14507 0.11218 0.55377 0.0
H17 H 0.20677 0.10726 0.51323 0.0
H18 H 0.2506 0.08556 0.49165 0.0
H19 H 0.20962 0.9588 0.49809 0.0
H20 H 0.1663 0.98067 0.51957 0.0
H21 H 0.12204 0.01082 0.55329 0.0
H22 H 0.05012 0.98891 0.55437 0.0
H23 H 0.02908 0.04239 0.50962 0.0
N24 N 0.15878 0.05934 0.53087 0.0
H25 H 0.09987 0.06902 0.50967 0.0
C26 C 0.83946 1.0008 0.55077 0.0
C27 C 0.81809 0.98399 0.56331 0.0
C28 C 0.79619 0.00973 0.57339 0.0
C29 C 0.79512 0.05289 0.57103 0.0
C30 C 0.81776 0.06982 0.55878 0.0
C31 C 0.83957 0.04417 0.54875 0.0
C32 C 0.83224 0.96021 0.52731 0.0
C33 C 0.81012 0.98896 0.51834 0.0
C34 C 0.78081 0.97518 0.5076 0.0
C35 C 0.77367 0.9325 0.50537 0.0
C36 C 0.79747 0.90387 0.51374 0.0
C37 C 0.82627 0.91767 0.52465 0.0
C38 C 0.90184 0.98084 0.53639 0.0
C39 C 0.93238 0.95797 0.54404 0.0
C40 C 0.9747 0.96722 0.54213 0.0
C41 C 0.9876 1.00074 0.53287 0.0
C42 C 0.95657 0.02264 0.52476 0.0
C43 C 0.91439 0.01214 0.52621 0.0
C44 C 0.18174 0.06132 0.54516 0.0
C45 C 0.21491 0.03425 0.54852 0.0
C46 C 0.23881 0.03978 0.56173 0.0
C47 C 0.22923 0.07127 0.57237 0.0
C48 C 0.19393 0.09614 0.56946 0.0
C49 C 0.1711 0.09167 0.55593 0.0
C50 C 0.18298 0.04579 0.51786 0.0
C51 C 0.20713 0.07489 0.50985 0.0
C52 C 0.2322 0.06244 0.49762 0.0
C53 C 0.23329 0.02055 0.4931 0.0
C54 C 0.20884 0.99143 0.5011 0.0
C55 C 0.1841 0.00383 0.51339 0.0
C56 C 0.11668 0.04254 0.53145 0.0
C57 C 0.10196 0.01853 0.54378 0.0
C58 C 0.0604 0.00515 0.54424 0.0
C59 C 0.03267 0.0137 0.53211 0.0
C60 C 0.04827 0.03608 0.5195 0.0
C61 C 0.08926 0.05098 0.51936 0.0
H62 H 0.2755 0.5645 0.78602 0.0
N63 N 0.21901 0.61314 0.77055 0.0
H64 H 0.25966 0.51611 0.80678 0.0
H65 H 0.14709 0.60389 0.78535 0.0
H66 H 0.13154 0.55658 0.80659 0.0
H67 H 0.19449 0.56009 0.74898 0.0
H68 H 0.23768 0.52455 0.73006 0.0
H69 H 0.3031 0.62458 0.76599 0.0
H70 H 0.34592 0.59133 0.74667 0.0
H71 H 0.26957 0.64903 0.79219 0.0
H72 H 0.18485 0.67557 0.75528 0.0
H73 H 0.28155 0.72329 0.79596 0.0
H74 H 0.1977 0.74999 0.75857 0.0
H75 H 0.29826 0.93494 0.81423 0.0
H76 H 0.26544 0.98451 0.83177 0.0
H77 H 0.16379 0.99962 0.79986 0.0
H78 H 0.1971 0.95146 0.78238 0.0
H79 H 0.23206 0.92737 0.75877 0.0
H80 H 0.24513 0.98239 0.73998 0.0
H81 H 0.35482 0.01993 0.76517 0.0
H82 H 0.34147 0.96517 0.78388 0.0
H83 H 0.32851 0.85539 0.78755 0.0
H84 H 0.31518 0.78113 0.78401 0.0
H85 H 0.18525 0.80741 0.77523 0.0
N86 N 0.27459 0.91726 0.78581 0.0
H87 H 0.19922 0.88129 0.77825 0.0
C88 C 0.21209 0.58734 0.78385 0.0
C89 C 0.24397 0.56306 0.79037 0.0
C90 C 0.23498 0.53546 0.80228 0.0
C91 C 0.19437 0.53253 0.80822 0.0
C92 C 0.16315 0.55837 0.80226 0.0
C93 C 0.17192 0.58526 0.79013 0.0
C94 C 0.24522 0.59515 0.75886 0.0
C95 C 0.22752 0.56714 0.74843 0.0
C96 C 0.25227 0.54714 0.73754 0.0
C97 C 0.29546 0.55497 0.73677 0.0
C98 C 0.31297 0.58392 0.74703 0.0
C99 C 0.28829 0.60345 0.75804 0.0
C100 C 0.22584 0.65678 0.77351 0.0
C101 C 0.25336 0.67087 0.78494 0.0
C102 C 0.26053 0.71342 0.78697 0.0
C103 C 0.24065 0.74279 0.77756 0.0
C104 C 0.21306 0.72844 0.76619 0.0
C105 C 0.20579 0.68594 0.76423 0.0
C106 C 0.25023 0.9392 0.79704 0.0
C107 C 0.26833 0.94817 0.81126 0.0
C108 C 0.24958 0.97651 0.82124 0.0
C109 C 0.21235 0.99647 0.81709 0.0
C110 C 0.19289 0.98536 0.80326 0.0
C111 C 0.21167 0.9572 0.79332 0.0
C112 C 0.28591 0.94226 0.77279 0.0
C113 C 0.2595 0.9467 0.76003 0.0
C114 C 0.26693 0.9782 0.74931 0.0
C115 C 0.30053 0.00587 0.75129 0.0
C116 C 0.32825 0.99952 0.7635 0.0
C117 C 0.32099 0.96802 0.77409 0.0
C118 C 0.26508 0.874 0.78325 0.0
C119 C 0.29723 0.84499 0.78479 0.0
C120 C 0.28942 0.80256 0.7829 0.0
C121 C 0.24902 0.78811 0.77945 0.0
C122 C 0.21682 0.81736 0.77774 0.0
C123 C 0.22475 0.85986 0.77957 0.0
H124 H 0.6882 0.05273 0.04744 0.0
N125 N 0.65203 0.02072 0.02288 0.0
H126 H 0.74128 0.02095 0.06353 0.0
H127 H 0.67936 0.94061 0.02079 0.0
H128 H 0.73078 0.90739 0.0373 0.0
H129 H 0.6882 0.9873 0.99761 0.0
H130 H 0.7351 0.02392 0.98003 0.0
H131 H 0.66197 0.10229 0.02073 0.0
H132 H 0.70802 0.13946 1.00308 0.0
H133 H 0.58751 0.05754 0.036 0.0
H134 H 0.61999 0.95569 0.00651 0.0
H135 H 0.51413 0.0372 0.03478 0.0
H136 H 0.54713 0.93311 0.00596 0.0
H137 H 0.32121 0.99676 0.03751 0.0
H138 H 0.27332 0.98684 0.0591 0.0
H139 H 0.273 0.85476 0.05076 0.0
H140 H 0.32192 0.86472 0.02948 0.0
H141 H 0.28986 0.90564 1.00019 0.0
H142 H 0.24491 0.94355 0.98259 0.0
H143 H 0.31451 0.05606 0.99228 0.0
H144 H 0.35643 0.01859 0.01076 0.0
H145 H 0.39336 0.97 0.04284 0.0
H146 H 0.4663 0.98841 0.04351 0.0
H147 H 0.48024 0.94687 0.99681 0.0
N148 N 0.34965 0.93621 0.01815 0.0
H149 H 0.40695 0.92627 0.99644 0.0
C150 C 0.67931 0.99893 0.03313 0.0
C151 C 0.69704 0.0208 0.04534 0.0
C152 C 0.72734 1.00242 0.05454 0.0
C153 C 0.74036 0.96133 0.05183 0.0
C154 C 0.722 0.93919 0.03965 0.0
C155 C 0.69199 0.95793 0.03031 0.0
C156 C 0.67178 0.04225 0.01046 0.0
C157 C 0.69156 0.02064 0.99858 0.0
C158 C 0.71836 0.04166 0.98855 0.0
C159 C 0.7258 0.08454 0.99031 0.0
C160 C 0.70359 0.10633 1.0016 0.0
C161 C 0.67692 0.08532 0.01157 0.0
C162 C 0.60914 0.00792 0.02154 0.0
C163 C 0.57867 0.03048 0.02937 0.0
C164 C 0.53677 0.01843 0.02877 0.0
C165 C 0.52434 0.98302 0.02044 0.0
C166 C 0.55517 0.9607 0.01241 0.0
C167 C 0.5971 0.97325 0.01285 0.0
C168 C 0.3258 0.93122 0.03206 0.0
C169 C 0.31162 0.96559 0.04056 0.0
C170 C 0.28419 0.95995 0.05284 0.0
C171 C 0.26941 0.92008 0.05651 0.0
C172 C 0.28383 0.88583 0.0481 0.0
C173 C 0.31197 0.89139 0.03607 0.0
C174 C 0.32668 0.95902 0.0067 0.0
C175 C 0.29535 0.93849 0.99841 0.0
C176 C 0.26986 0.96027 0.98825 0.0
C177 C 0.2756 0.00318 0.98595 0.0
C178 C 0.3081 0.02337 0.99396 0.0
C179 C 0.33277 1.00179 0.00441 0.0
C180 C 0.3937 0.94686 0.01941 0.0
C181 C 0.4115 0.96459 0.03266 0.0
C182 C 0.45379 0.97555 0.03302 0.0
C183 C 0.47952 0.96971 0.02016 0.0
C184 C 0.46184 0.9515 0.00704 0.0
C185 C 0.41971 0.93994 0.00675 0.0
H186 H 0.21639 0.4516 0.30879 0.0
N187 N 0.25802 0.41682 0.28477 0.0
H188 H 0.24641 0.50021 0.32742 0.0
H189 H 0.33845 0.43008 0.28994 0.0
H190 H 0.36887 0.47801 0.30862 0.0
H191 H 0.28304 0.47317 0.26475 0.0
H192 H 0.24004 0.52337 0.25091 0.0
H193 H 0.17255 0.4191 0.28462 0.0
H194 H 0.12909 0.46857 0.27034 0.0
H195 H 0.2114 0.37472 0.30595 0.0
H196 H 0.28597 0.36001 0.26543 0.0
H197 H 0.20125 0.29942 0.30727 0.0
H198 H 0.27487 0.28489 0.26624 0.0
H199 H 0.1942 0.08037 0.31746 0.0
H200 H 0.23374 0.03237 0.33355 0.0
H201 H 0.33419 0.03421 0.30062 0.0
H202 H 0.29394 0.08043 0.28448 0.0
H203 H 0.25618 0.1009 0.26261 0.0
H204 H 0.23564 0.05704 0.24098 0.0
H205 H 0.12243 0.02323 0.26472 0.0
H206 H 0.14351 0.06677 0.28635 0.0
H207 H 0.15887 0.1662 0.29655 0.0
H208 H 0.16748 0.24171 0.29526 0.0
H209 H 0.29472 0.22511 0.2802 0.0
N210 N 0.21444 0.10814 0.28986 0.0
H211 H 0.28525 0.15018 0.281 0.0
C212 C 0.27537 0.4374 0.29795 0.0
C213 C 0.24983 0.4563 0.309 0.0
C214 C 0.26702 0.48413 0.31963 0.0
C215 C 0.3099 0.49351 0.3193 0.0
C216 C 0.33561 0.47204 0.30896 0.0
C217 C 0.31844 0.44433 0.2984 0.0
C218 C 0.23107 0.44216 0.27552 0.0
C219 C 0.24942 0.47172 0.26588 0.0
C220 C 0.22493 0.50051 0.25812 0.0
C221 C 0.18137 0.49991 0.25967 0.0
C222 C 0.16266 0.46953 0.26897 0.0
C223 C 0.18739 0.44116 0.27704 0.0
C224 C 0.24984 0.37285 0.28564 0.0
C225 C 0.2254 0.35527 0.29729 0.0
C226 C 0.2194 0.31214 0.29794 0.0
C227 C 0.23746 0.28581 0.28691 0.0
C228 C 0.2612 0.30389 0.27512 0.0
C229 C 0.26732 0.34685 0.27455 0.0
C230 C 0.241 0.08437 0.29984 0.0
C231 C 0.22503 0.0708 0.31388 0.0
C232 C 0.24775 0.04344 0.32305 0.0
C233 C 0.28712 0.02908 0.31835 0.0
C234 C 0.30368 0.04395 0.30449 0.0
C235 C 0.28083 0.07106 0.2953 0.0
C236 C 0.20129 0.08696 0.27615 0.0
C237 C 0.22685 0.08431 0.26313 0.0
C238 C 0.21515 0.05908 0.25078 0.0
C239 C 0.17747 0.03654 0.25115 0.0
C240 C 0.15142 0.04049 0.26399 0.0
C241 C 0.16336 0.0653 0.27636 0.0
C242 C 0.22125 0.15239 0.28896 0.0
C243 C 0.18855 0.17902 0.29295 0.0
C244 C 0.19367 0.22217 0.29231 0.0
C245 C 0.23186 0.23974 0.28766 0.0
C246 C 0.26467 0.21285 0.28363 0.0
C247 C 0.25939 0.16969 0.2842 0.0
H248 H 0.80896 0.09509 0.31453 0.0
N249 N 0.7664 0.12708 0.29019 0.0
H250 H 0.77881 0.05871 0.33636 0.0
H251 H 0.68598 0.11716 0.29653 0.0
H252 H 0.65532 0.07999 0.3182 0.0
H253 H 0.73767 0.08509 0.2664 0.0
H254 H 0.77619 0.03784 0.24966 0.0
H255 H 0.84942 0.10878 0.29236 0.0
H256 H 0.88822 0.06038 0.27584 0.0
H257 H 0.80442 0.1719 0.3131 0.0
H258 H 0.75411 0.18041 0.26755 0.0
H259 H 0.81569 0.24645 0.31353 0.0
H260 H 0.76846 0.25482 0.2673 0.0
H261 H 0.83089 0.49424 0.31459 0.0
H262 H 0.78846 0.52939 0.33371 0.0
H263 H 0.68302 0.45234 0.32106 0.0
H264 H 0.7246 0.42012 0.3013 0.0
H265 H 0.74908 0.46793 0.27588 0.0
H266 H 0.7626 0.51137 0.25341 0.0
H267 H 0.89515 0.50125 0.26164 0.0
H268 H 0.88116 0.45723 0.28378 0.0
H269 H 0.85748 0.37899 0.30761 0.0
H270 H 0.85286 0.30346 0.30544 0.0
H271 H 0.74398 0.31665 0.27659 0.0
N272 N 0.80776 0.4353 0.29513 0.0
H273 H 0.75119 0.39172 0.27794 0.0
C274 C 0.74956 0.10868 0.30386 0.0
C275 C 0.77543 0.09232 0.31532 0.0
C276 C 0.7581 0.07138 0.32779 0.0
C277 C 0.71463 0.0662 0.32901 0.0
C278 C 0.68886 0.08385 0.31776 0.0
C279 C 0.70625 0.10487 0.30532 0.0
C280 C 0.79061 0.10014 0.28057 0.0
C281 C 0.77055 0.07991 0.26847 0.0
C282 C 0.79257 0.05304 0.25896 0.0
C283 C 0.83515 0.04549 0.26149 0.0
C284 C 0.85533 0.06545 0.27375 0.0
C285 C 0.83328 0.09301 0.28315 0.0
C286 C 0.77754 0.17052 0.29035 0.0
C287 C 0.79626 0.18965 0.30308 0.0
C288 C 0.80319 0.23259 0.30322 0.0
C289 C 0.79266 0.25725 0.2905 0.0
C290 C 0.77589 0.23742 0.27751 0.0
C291 C 0.76808 0.19472 0.27753 0.0
C292 C 0.78149 0.45416 0.30659 0.0
C293 C 0.79858 0.48506 0.31599 0.0
C294 C 0.77424 0.5048 0.32704 0.0
C295 C 0.73211 0.4936 0.32917 0.0
C296 C 0.71505 0.4624 0.31973 0.0
C297 C 0.73921 0.44335 0.30843 0.0
C298 C 0.8143 0.45933 0.28145 0.0
C299 C 0.78099 0.47474 0.2727 0.0
C300 C 0.7888 0.49983 0.25994 0.0
C301 C 0.83 0.50982 0.25567 0.0
C302 C 0.86308 0.4937 0.26439 0.0
C303 C 0.85523 0.46873 0.2771 0.0
C304 C 0.80451 0.39094 0.29313 0.0
C305 C 0.83294 0.36533 0.30072 0.0
C306 C 0.82991 0.32211 0.29956 0.0
C307 C 0.79773 0.30344 0.29096 0.0
C308 C 0.76963 0.32947 0.28314 0.0
C309 C 0.77334 0.37267 0.28403 0.0
H310 H 0.74929 0.94914 0.79 0.0
N311 N 0.80137 0.91463 0.7686 0.0
H312 H 0.76997 0.98635 0.81303 0.0
H313 H 0.87843 0.92987 0.77846 0.0
H314 H 0.89967 0.96849 0.80131 0.0
H315 H 0.82003 0.97001 0.74712 0.0
H316 H 0.77192 0.00743 0.7304 0.0
H317 H 0.71614 0.90752 0.7684 0.0
H318 H 0.66807 0.94302 0.75134 0.0
H319 H 0.7673 0.87239 0.79319 0.0
H320 H 0.81537 0.85701 0.74748 0.0
H321 H 0.7521 0.79913 0.79454 0.0
H322 H 0.79719 0.78331 0.74833 0.0
H323 H 0.70966 0.56692 0.80331 0.0
H324 H 0.74959 0.5353 0.82418 0.0
H325 H 0.86198 0.59266 0.80684 0.0
H326 H 0.82274 0.62265 0.786 0.0
H327 H 0.80125 0.56391 0.76721 0.0
H328 H 0.79177 0.50966 0.74794 0.0
H329 H 0.66152 0.54129 0.74427 0.0
H330 H 0.67067 0.59458 0.76406 0.0
H331 H 0.69353 0.67448 0.78992 0.0
H332 H 0.70651 0.74847 0.78615 0.0
H333 H 0.81418 0.71891 0.75843 0.0
N334 N 0.73903 0.61147 0.78006 0.0
H335 H 0.79872 0.64519 0.76135 0.0
C336 C 0.81247 0.93686 0.7824 0.0
C337 C 0.78217 0.95321 0.79235 0.0
C338 C 0.79411 0.97463 0.80555 0.0
C339 C 0.83655 0.98066 0.80906 0.0
C340 C 0.86672 0.96395 0.79914 0.0
C341 C 0.85471 0.94221 0.78599 0.0
C342 C 0.77189 0.93598 0.75895 0.0
C343 C 0.78685 0.96418 0.74807 0.0
C344 C 0.75929 0.98515 0.73843 0.0
C345 C 0.716 0.97815 0.73943 0.0
C346 C 0.70108 0.94965 0.75035 0.0
C347 C 0.72863 0.92905 0.76007 0.0
C348 C 0.79331 0.87058 0.77022 0.0
C349 C 0.77473 0.85348 0.78338 0.0
C350 C 0.76527 0.8112 0.78406 0.0
C351 C 0.77294 0.78499 0.77149 0.0
C352 C 0.79136 0.80218 0.75834 0.0
C353 C 0.80167 0.84438 0.75779 0.0
C354 C 0.76285 0.59708 0.79302 0.0
C355 C 0.74282 0.57305 0.80419 0.0
C356 C 0.76559 0.55534 0.81614 0.0
C357 C 0.80897 0.56137 0.8171 0.0
C358 C 0.82867 0.58708 0.80632 0.0
C359 C 0.806 0.60454 0.79437 0.0
C360 C 0.73623 0.58283 0.76737 0.0
C361 C 0.77062 0.5594 0.76231 0.0
C362 C 0.7653 0.52845 0.75124 0.0
C363 C 0.72593 0.52128 0.7447 0.0
C364 C 0.69225 0.54638 0.74908 0.0
C365 C 0.69737 0.57666 0.76039 0.0
C366 C 0.74534 0.65447 0.77613 0.0
C367 C 0.71943 0.68419 0.78281 0.0
C368 C 0.72735 0.72646 0.7808 0.0
C369 C 0.76207 0.73997 0.77227 0.0
C370 C 0.78704 0.70994 0.76501 0.0
C371 C 0.77845 0.66761 0.76676 0.0
H372 H 0.3215 0.6286 0.99055 0.0
N373 N 0.36552 0.59289 0.01269 0.0
H374 H 0.27736 0.5944 0.97136 0.0
H375 H 0.35983 0.50919 0.00758 0.0
H376 H 0.31573 0.47479 0.98858 0.0
H377 H 0.3235 0.53685 0.03057 0.0
H378 H 0.2694 0.55263 0.04923 0.0
H379 H 0.34368 0.66755 0.02298 0.0
H380 H 0.29022 0.68385 0.04205 0.0
H381 H 0.42969 0.59217 0.99333 0.0
H382 H 0.39754 0.56075 0.03983 0.0
H383 H 0.50071 0.56839 0.99778 0.0
H384 H 0.46847 0.53934 0.04451 0.0
H385 H 0.70683 0.53789 0.01182 0.0
H386 H 0.75222 0.50604 0.99262 0.0
H387 H 0.7083 0.38459 0.00623 0.0
H388 H 0.66328 0.41681 0.02545 0.0
H389 H 0.70414 0.46101 0.05473 0.0
H390 H 0.7515 0.49468 0.07304 0.0
H391 H 0.72017 0.61421 0.05408 0.0
H392 H 0.67393 0.58054 0.03564 0.0
H393 H 0.63496 0.55971 0.01385 0.0
H394 H 0.5639 0.58362 0.00955 0.0
H395 H 0.51795 0.48828 0.04006 0.0
N396 N 0.65931 0.49656 0.03286 0.0
H397 H 0.58962 0.46648 0.04496 0.0
C398 C 0.34415 0.57159 1.0004 0.0
C399 C 0.32086 0.59501 0.98996 0.0
C400 C 0.29543 0.57544 0.97912 0.0
C401 C 0.29295 0.53189 0.97847 0.0
C402 C 0.31733 0.50839 0.98865 0.0
C403 C 0.34254 0.528 0.99954 0.0
C404 C 0.33781 0.60117 0.02537 0.0
C405 C 0.31672 0.56901 0.03309 0.0
C406 C 0.28583 0.57812 0.04384 0.0
C407 C 0.27516 0.61955 0.04709 0.0
C408 C 0.29712 0.65161 0.03965 0.0
C409 C 0.32805 0.64243 0.0289 0.0
C410 C 0.40737 0.578 0.01602 0.0
C411 C 0.43781 0.58025 0.0045 0.0
C412 C 0.47871 0.56702 0.00714 0.0
C413 C 0.49078 0.55182 0.02155 0.0
C414 C 0.46043 0.54995 0.03317 0.0
C415 C 0.41933 0.5626 0.03046 0.0
C416 C 0.68171 0.47953 0.02006 0.0
C417 C 0.70628 0.50451 0.01042 0.0
C418 C 0.7322 0.48624 0.99944 0.0
C419 C 0.73415 0.44275 0.998 0.0
C420 C 0.70797 0.41812 0.0072 0.0
C421 C 0.68204 0.4364 0.0181 0.0
C422 C 0.68476 0.51806 0.04399 0.0
C423 C 0.70736 0.4945 0.05461 0.0
C424 C 0.73462 0.51368 0.06494 0.0
C425 C 0.73943 0.55704 0.06499 0.0
C426 C 0.71675 0.58074 0.05438 0.0
C427 C 0.69006 0.56145 0.04386 0.0
C428 C 0.61768 0.51159 0.02995 0.0
C429 C 0.60969 0.54433 0.01977 0.0
C430 C 0.56873 0.55765 0.01717 0.0
C431 C 0.53469 0.53803 0.02444 0.0
C432 C 0.54306 0.5049 0.03448 0.0
C433 C 0.58404 0.4921 0.03723 0.0
H434 H 0.15446 0.54252 0.56729 0.0
N435 N 0.13981 0.5312 0.53764 0.0
H436 H 0.19205 0.49619 0.58466 0.0
H437 H 0.16722 0.45294 0.531 0.0
H438 H 0.20287 0.40581 0.54832 0.0
H439 H 0.20462 0.58243 0.53705 0.0
H440 H 0.25245 0.59593 0.5158 0.0
H441 H 0.13315 0.49939 0.50844 0.0
H442 H 0.1803 0.51368 0.48705 0.0
H443 H 0.08487 0.59237 0.5402 0.0
H444 H 0.09408 0.46174 0.53001 0.0
H445 H 0.00882 0.58804 0.5379 0.0
H446 H 0.01872 0.45663 0.52842 0.0
H447 H 0.79182 0.55826 0.55069 0.0
H448 H 0.74955 0.54366 0.57336 0.0
H449 H 0.78018 0.4136 0.56964 0.0
H450 H 0.82153 0.42826 0.54672 0.0
H451 H 0.76866 0.47047 0.51467 0.0
H452 H 0.72115 0.50953 0.49817 0.0
H453 H 0.7871 0.6228 0.50923 0.0
H454 H 0.8341 0.58368 0.5259 0.0
H455 H 0.8738 0.5533 0.55063 0.0
H456 H 0.94954 0.56157 0.55106 0.0
H457 H 0.95993 0.47426 0.51368 0.0
N458 N 0.82913 0.50032 0.53223 0.0
H459 H 0.88426 0.4648 0.51389 0.0
C460 C 0.15815 0.50135 0.54789 0.0
C461 C 0.16465 0.51248 0.56319 0.0
C462 C 0.18585 0.48584 0.5731 0.0
C463 C 0.20082 0.44737 0.56786 0.0
C464 C 0.1925 0.43551 0.55267 0.0
C465 C 0.17171 0.4623 0.54276 0.0
C466 C 0.16498 0.54047 0.52437 0.0
C467 C 0.19898 0.56753 0.52613 0.0
C468 C 0.22643 0.57489 0.51405 0.0
C469 C 0.22016 0.55565 0.49982 0.0
C470 C 0.18571 0.52901 0.4979 0.0
C471 C 0.15862 0.52101 0.51012 0.0
C472 C 0.09531 0.52754 0.53543 0.0
C473 C 0.07047 0.56279 0.53748 0.0
C474 C 0.02702 0.56013 0.5363 0.0
C475 C 0.00743 0.52191 0.53307 0.0
C476 C 0.03256 0.48671 0.53073 0.0
C477 C 0.07595 0.48951 0.5318 0.0
C478 C 0.8093 0.49404 0.54685 0.0
C479 C 0.78979 0.52667 0.55481 0.0
C480 C 0.76566 0.51834 0.56777 0.0
C481 C 0.76144 0.4775 0.5732 0.0
C482 C 0.78312 0.44542 0.56578 0.0
C483 C 0.80663 0.45366 0.55269 0.0
C484 C 0.80501 0.52394 0.52141 0.0
C485 C 0.77316 0.50363 0.51335 0.0
C486 C 0.746 0.52596 0.50403 0.0
C487 C 0.75045 0.56916 0.50249 0.0
C488 C 0.78326 0.58946 0.51014 0.0
C489 C 0.81014 0.56711 0.51965 0.0
C490 C 0.8735 0.50775 0.53237 0.0
C491 C 0.89241 0.5358 0.54259 0.0
C492 C 0.93579 0.54082 0.54271 0.0
C493 C 0.96107 0.51834 0.53248 0.0
C494 C 0.9417 0.49138 0.52195 0.0
C495 C 0.89846 0.48611 0.52197 0.0
Fe496 Fe 1.00126 0.76926 0.17452 0.0
O497 O 0.0328 0.74185 0.15769 0.0
Fe498 Fe 0.90755 0.7951 0.15771 0.0
Fe499 Fe 0.09402 0.74175 0.1576 0.0
O500 O 0.96855 0.79422 0.15755 0.0
O501 O 0.96853 0.79415 0.15603 0.0
O502 O 0.03264 0.74154 0.15607 0.0
Fe503 Fe 1.00039 0.76761 0.13895 0.0
C504 C 0.0784 0.81857 0.17751 0.0
O505 O 0.03933 0.73738 0.19032 0.0
O506 O 0.08429 0.69999 0.17504 0.0
O507 O 0.96 0.71706 0.13808 0.0
O508 O 0.89897 0.74875 0.14199 0.0
O509 O 0.90122 0.75147 0.17515 0.0
O510 O 0.96218 0.71911 0.17547 0.0
O511 O 0.08719 0.70189 0.13916 0.0
O512 O 0.03996 0.73599 0.12359 0.0
C513 C 0.92363 0.72025 0.17863 0.0
O514 O 0.96133 0.79972 0.12349 0.0
O515 O 0.91454 0.83405 0.13919 0.0
O516 O 0.04012 0.81944 0.17401 0.0
O517 O 0.10062 0.7867 0.17469 0.0
C518 C 0.06473 0.70656 0.1878 0.0
C519 C 0.06984 0.70921 0.12598 0.0
C520 C 0.07986 0.81706 0.13648 0.0
O521 O 0.10201 0.78735 0.14149 0.0
O522 O 0.04033 0.81809 0.13804 0.0
C523 C 0.92026 0.71831 0.13702 0.0
O524 O 0.91795 0.83792 0.17466 0.0
O525 O 0.96465 0.80369 0.19015 0.0
C526 C 0.93262 0.8276 0.1261 0.0
C527 C 0.93851 0.83373 0.18733 0.0
Fe528 Fe 0.45438 0.77447 0.44383 0.0
O529 O 0.46231 0.77091 0.42159 0.0
Fe530 Fe 0.49496 0.81994 0.41112 0.0
Fe531 Fe 0.49186 0.7236 0.41159 0.0
O532 O 0.46265 0.77519 0.42162 0.0
O533 O 0.52334 0.77259 0.40076 0.0
O534 O 0.52309 0.76857 0.40076 0.0
Fe535 Fe 0.53238 0.76956 0.37869 0.0
C536 C 0.53128 0.71878 0.44244 0.0
O537 O 0.41329 0.72681 0.43917 0.0
O538 O 0.45387 0.68274 0.42454 0.0
O539 O 0.48939 0.81534 0.37361 0.0
O540 O 0.45007 0.82311 0.39443 0.0
O541 O 0.45958 0.86398 0.42343 0.0
O542 O 0.41636 0.82364 0.43854 0.0
O543 O 0.44691 0.72073 0.39481 0.0
O544 O 0.48741 0.72521 0.37416 0.0
C545 C 0.42643 0.85817 0.43182 0.0
O546 O 0.57326 0.81763 0.38343 0.0
O547 O 0.53343 0.86074 0.39863 0.0
O548 O 0.49704 0.72845 0.44887 0.0
O549 O 0.53714 0.72373 0.4282 0.0
C550 C 0.42142 0.691 0.43304 0.0
C551 C 0.45378 0.71377 0.38072 0.0
C552 C 0.56041 0.68546 0.39062 0.0
O553 O 0.52812 0.68001 0.3995 0.0
O554 O 0.5707 0.72018 0.38403 0.0
C555 C 0.45647 0.82836 0.38022 0.0
O556 O 0.54037 0.81895 0.42769 0.0
O557 O 0.50016 0.81858 0.44838 0.0
C558 C 0.56515 0.85331 0.38972 0.0
C559 C 0.53513 0.82515 0.44189 0.0
Fe560 Fe 0.50304 0.26572 0.69594 0.0
O561 O 0.50585 0.27059 0.67387 0.0
Fe562 Fe 0.44973 0.26367 0.66017 0.0
Fe563 Fe 0.55359 0.25842 0.65987 0.0
O564 O 0.49854 0.25555 0.67414 0.0
O565 O 0.49843 0.26776 0.64597 0.0
O566 O 0.50414 0.25135 0.6462 0.0
Fe567 Fe 0.50081 0.25684 0.62417 0.0
C568 C 0.59441 0.2947 0.68804 0.0
O569 O 0.53442 0.21009 0.69536 0.0
O570 O 0.55294 0.1992 0.67032 0.0
O571 O 0.46201 0.20578 0.62631 0.0
O572 O 0.44403 0.20257 0.65166 0.0
O573 O 0.40527 0.24929 0.67639 0.0
O574 O 0.44624 0.23532 0.6969 0.0
O575 O 0.59628 0.23739 0.64405 0.0
O576 O 0.5538 0.22036 0.62425 0.0
C577 C 0.41133 0.23395 0.68974 0.0
O578 O 0.44782 0.29314 0.62355 0.0
O579 O 0.40598 0.28021 0.64392 0.0
O580 O 0.56001 0.29618 0.6955 0.0
O581 O 0.59913 0.27582 0.67524 0.0
C582 C 0.54923 0.18744 0.68444 0.0
C583 C 0.58917 0.21968 0.63115 0.0
C584 C 0.55769 0.32887 0.63529 0.0
O585 O 0.55928 0.31723 0.64946 0.0
O586 O 0.53934 0.30846 0.62446 0.0
C587 C 0.44384 0.18823 0.6378 0.0
O588 O 0.45017 0.32526 0.66879 0.0
O589 O 0.47156 0.32098 0.69383 0.0
C590 C 0.41248 0.29464 0.63044 0.0
C591 C 0.45539 0.3406 0.68241 0.0
Fe592 Fe 0.04501 0.27181 0.9399 0.0
O593 O 0.04294 0.26854 0.91752 0.0
Fe594 Fe 0.01527 0.31842 0.90579 0.0
Fe595 Fe 0.01683 0.22119 0.90617 0.0
O596 O 0.04273 0.27291 0.91752 0.0
O597 O 0.98838 0.27114 0.8946 0.0
O598 O 0.98866 0.26663 0.89458 0.0
Fe599 Fe 0.98584 0.26753 0.87223 0.0
C600 C 0.08159 0.18877 0.92973 0.0
O601 O 0.99971 0.22678 0.94332 0.0
O602 O 0.96722 0.21941 0.92096 0.0
O603 O 0.94534 0.31626 0.8753 0.0
O604 O 0.98189 0.35956 0.89169 0.0
O605 O 0.96554 0.31976 0.92067 0.0
O606 O 0.99963 0.31628 0.9428 0.0
O607 O 0.9842 0.17774 0.89246 0.0
O608 O 0.94548 0.2187 0.87612 0.0
C609 C 0.96697 0.32433 0.9351 0.0
O610 O 0.03079 0.31241 0.86868 0.0
O611 O 0.06466 0.32045 0.89076 0.0
O612 O 0.08619 0.22411 0.93668 0.0
O613 O 0.05183 0.18 0.92001 0.0
C614 C 0.96801 0.21608 0.93542 0.0
C615 C 0.95422 0.18342 0.88256 0.0
C616 C 0.06308 0.21283 0.87699 0.0
O617 O 0.06626 0.22005 0.89123 0.0
O618 O 0.03083 0.22282 0.86937 0.0
C619 C 0.95353 0.35232 0.88131 0.0
O620 O 0.04932 0.36169 0.91917 0.0
O621 O 0.08574 0.3201 0.93604 0.0
C622 C 0.06199 0.32527 0.87636 0.0
C623 C 0.07993 0.35458 0.92868 0.0
H624 H 0.31464 0.04279 0.48749 0.0
H625 H 0.34327 0.86001 0.42736 0.0
H626 H 0.21452 0.96655 0.46995 0.0
H627 H 0.44576 0.93396 0.44416 0.0
H628 H 0.29439 0.90876 0.43885 0.0
H629 H 0.36149 0.01289 0.46833 0.0
C630 C 0.30234 0.02029 0.47944 0.0
C631 C 0.26077 0.00664 0.48046 0.0
C632 C 0.3275 0.91499 0.43981 0.0
C633 C 0.31418 0.97218 0.4586 0.0
C634 C 0.35535 0.88731 0.43315 0.0
C635 C 0.39838 0.89313 0.43489 0.0
C636 C 0.34282 0.94822 0.44862 0.0
C637 C 0.41267 0.9287 0.44253 0.0
C638 C 0.32913 0.00315 0.46854 0.0
C639 C 0.24656 0.97729 0.46979 0.0
N640 N 0.38489 0.95458 0.44941 0.0
N641 N 0.27327 0.9608 0.45942 0.0
H642 H 0.31291 0.08541 0.76062 0.0
H643 H 0.36324 0.17219 0.67723 0.0
H644 H 0.29834 0.01149 0.71984 0.0
H645 H 0.38706 0.2378 0.71929 0.0
H646 H 0.32526 0.11866 0.69171 0.0
H647 H 0.32675 0.14618 0.74488 0.0
C648 C 0.31264 0.08204 0.7483 0.0
C649 C 0.30539 0.0432 0.74152 0.0
C650 C 0.33789 0.14532 0.69771 0.0
C651 C 0.32121 0.11291 0.72332 0.0
C652 C 0.35905 0.17611 0.68943 0.0
C653 C 0.37823 0.20931 0.69713 0.0
C654 C 0.33597 0.14811 0.71373 0.0
C655 C 0.37275 0.21257 0.71296 0.0
C656 C 0.32031 0.11682 0.7393 0.0
C657 C 0.30419 0.04085 0.7255 0.0
N658 N 0.35256 0.18216 0.72074 0.0
N659 N 0.31267 0.07516 0.71691 0.0
H660 H 0.23387 0.9772 0.95972 0.0
H661 H 0.16135 0.20299 0.93813 0.0
H662 H 0.2506 0.08428 0.98902 0.0
H663 H 0.07369 0.10275 0.9309 0.0
H664 H 0.20919 0.15464 0.95009 0.0
H665 H 0.18672 0.01836 0.94365 0.0
C666 C 0.22778 0.00911 0.96286 0.0
C667 C 0.247 0.02719 0.97578 0.0
C668 C 0.17969 0.14311 0.94574 0.0
C669 C 0.19428 0.07436 0.95709 0.0
C670 C 0.15231 0.17059 0.93888 0.0
C671 C 0.11294 0.15707 0.93385 0.0
C672 C 0.1681 0.1015 0.94751 0.0
C673 C 0.10357 0.11447 0.93477 0.0
C674 C 0.201 0.03248 0.95361 0.0
C675 C 0.23803 0.06898 0.97901 0.0
N676 N 0.13088 0.08801 0.94171 0.0
N677 N 0.21278 0.09109 0.96967 0.0
H678 H 0.22704 0.98043 0.23607 0.0
H679 H 0.03782 0.88899 0.18645 0.0
H680 H 0.10107 0.02683 0.23759 0.0
H681 H 0.15783 0.82897 0.18925 0.0
H682 H 0.0637 0.94431 0.20283 0.0
H683 H 0.20537 0.92968 0.21666 0.0
C684 C 0.19495 0.98029 0.23218 0.0
C685 C 0.16575 0.0078 0.23852 0.0
C686 C 0.08454 0.91921 0.19983 0.0
C687 C 0.14074 0.94967 0.21642 0.0
C688 C 0.06981 0.88749 0.1904 0.0
C689 C 0.09559 0.85391 0.18648 0.0
C690 C 0.12548 0.91769 0.20546 0.0
C691 C 0.13677 0.85407 0.192 0.0
C692 C 0.18257 0.95114 0.22119 0.0
C693 C 0.12451 0.00589 0.23319 0.0
N694 N 0.1504 0.88537 0.20127 0.0
N695 N 0.11327 0.97733 0.2225 0.0
H696 H 0.28319 0.01745 0.58759 0.0
H697 H 0.36456 0.1811 0.64814 0.0
H698 H 0.24077 0.14501 0.58823 0.0
H699 H 0.45289 0.12367 0.61766 0.0
H700 H 0.30795 0.14398 0.63507 0.0
H701 H 0.33534 0.03565 0.60687 0.0
C702 C 0.28428 0.04913 0.59168 0.0
C703 C 0.25734 0.07978 0.58578 0.0
C704 C 0.33993 0.13836 0.63169 0.0
C705 C 0.31547 0.09954 0.6087 0.0
C706 C 0.37229 0.15905 0.63923 0.0
C707 C 0.41345 0.15534 0.63396 0.0
C708 C 0.34903 0.11308 0.61909 0.0
C709 C 0.42154 0.12726 0.62205 0.0
C710 C 0.31383 0.05912 0.60288 0.0
C711 C 0.25983 0.11977 0.59231 0.0
N712 N 0.38948 0.10741 0.61487 0.0
N713 N 0.28831 0.12839 0.60337 0.0
H714 H 0.18209 0.07041 0.80693 0.0
H715 H 0.1154 0.15443 0.88948 0.0
H716 H 0.20536 1.0022 0.84846 0.0
H717 H 0.08133 0.21158 0.84671 0.0
H718 H 0.15747 0.10368 0.87532 0.0
H719 H 0.15299 0.12683 0.82196 0.0
C720 C 0.18077 0.06715 0.81924 0.0
C721 C 0.19547 0.03113 0.82642 0.0
C722 C 0.14118 0.12768 0.86909 0.0
C723 C 0.16264 0.09626 0.84382 0.0
C724 C 0.1175 0.15684 0.87715 0.0
C725 C 0.09458 0.18699 0.86922 0.0
C726 C 0.14206 0.12904 0.85303 0.0
C727 C 0.09811 0.18855 0.85326 0.0
C728 C 0.16445 0.0996 0.82784 0.0
C729 C 0.19422 0.02934 0.84245 0.0
N730 N 0.12108 0.15984 0.84572 0.0
N731 N 0.17775 0.06135 0.85063 0.0
H732 H 0.27366 0.94537 0.08637 0.0
H733 H 0.05257 0.84643 0.10901 0.0
H734 H 0.19386 0.88136 0.05436 0.0
H735 H 0.15609 0.85303 0.14038 0.0
H736 H 0.09599 0.88001 0.08943 0.0
H737 H 0.22283 0.93079 0.10676 0.0
C738 C 0.24521 0.92869 0.08363 0.0
C739 C 0.23802 0.91409 0.06875 0.0
C740 C 0.1088 0.87495 0.10073 0.0
C741 C 0.17971 0.89813 0.09181 0.0
C742 C 0.08392 0.85632 0.11194 0.0
C743 C 0.10089 0.84702 0.1263 0.0
C744 C 0.15057 0.88488 0.10402 0.0
C745 C 0.14197 0.85968 0.12942 0.0
C746 C 0.21634 0.92038 0.09523 0.0
C747 C 0.20072 0.89264 0.06575 0.0
N748 N 0.16553 0.87777 0.11834 0.0
N749 N 0.17294 0.88529 0.07718 0.0
H750 H 0.3331 0.96323 0.30787 0.0
H751 H 0.39372 0.87858 0.39093 0.0
H752 H 0.29317 0.0222 0.34969 0.0
H753 H 0.45212 0.83731 0.34916 0.0
H754 H 0.35017 0.92582 0.376 0.0
H755 H 0.37123 0.9122 0.32286 0.0
C756 C 0.33256 0.96574 0.32021 0.0
C757 C 0.31013 0.99752 0.32748 0.0
C758 C 0.37237 0.90625 0.37011 0.0
C759 C 0.35324 0.93828 0.34479 0.0
C760 C 0.3971 0.87905 0.37861 0.0
C761 C 0.42685 0.85401 0.3713 0.0
C762 C 0.37717 0.90822 0.35417 0.0
C763 C 0.42986 0.85618 0.35531 0.0
C764 C 0.35414 0.9363 0.32877 0.0
C765 C 0.30974 0.99819 0.34355 0.0
N766 N 0.40546 0.88284 0.34732 0.0
N767 N 0.33102 0.9691 0.35165 0.0
H768 H 0.74379 0.11438 0.56115 0.0
H769 H 0.6583 0.18101 0.64347 0.0
H770 H 0.78417 0.05283 0.60232 0.0
H771 H 0.59766 0.20844 0.60064 0.0
H772 H 0.71178 0.14172 0.62934 0.0
H773 H 0.69755 0.15763 0.5763 0.0
C774 C 0.74327 0.11026 0.57343 0.0
C775 C 0.768 0.07999 0.58047 0.0
C776 C 0.68673 0.15652 0.62311 0.0
C777 C 0.71442 0.12925 0.59796 0.0
C778 C 0.65643 0.17905 0.63114 0.0
C779 C 0.62335 0.19774 0.62322 0.0
C780 C 0.68411 0.15346 0.60711 0.0
C781 C 0.62228 0.19416 0.60725 0.0
C782 C 0.71658 0.13479 0.58208 0.0
C783 C 0.76536 0.07561 0.59643 0.0
N784 N 0.65214 0.17257 0.59976 0.0
N785 N 0.739 0.10002 0.60467 0.0
H786 H 0.6426 0.07876 0.34552 0.0
H787 H 0.64595 0.85011 0.38014 0.0
H788 H 0.7447 0.99294 0.34026 0.0
H789 H 0.54555 0.93621 0.38827 0.0
H790 H 0.68609 0.90563 0.36824 0.0
H791 H 0.60966 0.03051 0.36348 0.0
C792 C 0.65825 0.04995 0.34821 0.0
C793 C 0.69636 0.0398 0.34125 0.0
C794 C 0.65551 0.91265 0.37278 0.0
C795 C 0.65894 0.98456 0.36186 0.0
C796 C 0.63255 0.88091 0.37959 0.0
C797 C 0.59213 0.88842 0.38505 0.0
C798 C 0.63779 0.95222 0.37117 0.0
C799 C 0.57658 0.92905 0.38419 0.0
C800 C 0.63954 0.02253 0.35854 0.0
C801 C 0.71553 1.00234 0.3454 0.0
N802 N 0.59919 0.95933 0.37714 0.0
N803 N 0.69643 0.97599 0.35529 0.0
H804 H 0.8024 0.90588 0.04372 0.0
H805 H 0.90183 0.90574 0.12738 0.0
H806 H 0.75323 0.97262 0.08256 0.0
H807 H 0.92355 0.80509 0.09582 0.0
H808 H 0.85934 0.94017 0.10821 0.0
H809 H 0.85598 0.8759 0.06037 0.0
C810 C 0.80262 0.91419 0.05571 0.0
C811 C 0.77307 0.94211 0.06167 0.0
C812 C 0.87369 0.91076 0.10538 0.0
C813 C 0.83512 0.90877 0.0806 0.0
C814 C 0.8982 0.89118 0.11628 0.0
C815 C 0.91577 0.85219 0.11326 0.0
C816 C 0.8664 0.89131 0.09128 0.0
C817 C 0.9105 0.83511 0.09861 0.0
C818 C 0.83347 0.89727 0.06515 0.0
C819 C 0.77563 0.95209 0.07727 0.0
N820 N 0.88571 0.85455 0.08817 0.0
N821 N 0.80607 0.93559 0.08612 0.0
H822 H 0.79912 0.05053 0.82052 0.0
H823 H 0.98165 0.10301 0.87957 0.0
H824 H 0.90315 0.96862 0.82857 0.0
H825 H 0.87538 0.18141 0.87105 0.0
H826 H 0.94901 0.04842 0.86397 0.0
H827 H 0.82232 0.09382 0.84166 0.0
C828 C 0.82655 0.04121 0.82685 0.0
C829 C 0.84926 0.00582 0.82262 0.0
C830 C 0.93254 0.07732 0.86575 0.0
C831 C 0.87672 0.05619 0.84682 0.0
C832 C 0.95099 0.10832 0.87477 0.0
C833 C 0.9314 0.14697 0.87646 0.0
C834 C 0.8943 0.08514 0.85843 0.0
C835 C 0.89187 0.1523 0.86987 0.0
C836 C 0.83998 0.06621 0.83891 0.0
C837 C 0.88505 0.99601 0.83119 0.0
N838 N 0.8749 0.122 0.86103 0.0
N839 N 0.89786 0.02123 0.84279 0.0
H840 H 0.77691 0.87168 0.48338 0.0
H841 H 0.53163 0.86782 0.46892 0.0
H842 H 0.69312 0.95951 0.50422 0.0
H843 H 0.61883 0.82006 0.43579 0.0
H844 H 0.5902 0.89504 0.48388 0.0
H845 H 0.71909 0.84595 0.4675 0.0
C846 C 0.74637 0.88558 0.48457 0.0
C847 C 0.73978 0.91786 0.49508 0.0
C848 C 0.59648 0.8787 0.47332 0.0
C849 C 0.67358 0.88829 0.47717 0.0
C850 C 0.5631 0.86297 0.46481 0.0
C851 C 0.57033 0.84174 0.45106 0.0
C852 C 0.63751 0.87251 0.46821 0.0
C853 C 0.61182 0.83651 0.44626 0.0
C854 C 0.71349 0.87102 0.47549 0.0
C855 C 0.69964 0.93488 0.49615 0.0
N856 N 0.64387 0.85153 0.45488 0.0
N857 N 0.668 0.91967 0.48741 0.0
H858 H 0.83688 0.04898 0.23056 0.0
H859 H 0.952 0.83109 0.21869 0.0
H860 H 0.88495 0.97863 0.26851 0.0
H861 H 0.90853 0.9112 0.18256 0.0
H862 H 0.93313 0.88524 0.23739 0.0
H863 H 0.86832 0.99967 0.21299 0.0
C864 C 0.85432 0.0231 0.23517 0.0
C865 C 0.85802 0.0176 0.25097 0.0
C866 C 0.92807 0.89085 0.22534 0.0
C867 C 0.89403 0.96038 0.23089 0.0
C868 C 0.93885 0.86002 0.21468 0.0
C869 C 0.93108 0.86621 0.19905 0.0
C870 C 0.90973 0.928 0.22024 0.0
C871 C 0.91427 0.90444 0.19449 0.0
C872 C 0.87238 0.99489 0.22514 0.0
C873 C 0.88144 0.98385 0.25636 0.0
N874 N 0.90402 0.93354 0.20499 0.0
N875 N 0.89821 0.95611 0.24632 0.0
H876 H 0.74483 0.07687 0.95971 0.0
H877 H 0.95017 0.21829 0.96599 0.0
H878 H 0.78382 0.13988 1.00088 0.0
H879 H 0.90175 0.17345 0.92296 0.0
H880 H 0.89007 0.18788 0.97896 0.0
H881 H 0.8028 0.10999 0.94599 0.0
C882 C 0.76547 0.09773 0.96585 0.0
C883 C 0.75927 0.10576 0.98145 0.0
C884 C 0.8925 0.18472 0.96667 0.0
C885 C 0.82568 0.1436 0.96587 0.0
C886 C 0.92696 0.20196 0.95926 0.0
C887 C 0.93122 0.19825 0.94336 0.0
C888 C 0.86207 0.16324 0.95818 0.0
C889 C 0.8998 0.17708 0.93524 0.0
C890 C 0.79843 0.11675 0.95801 0.0
C891 C 0.78689 0.13326 0.98881 0.0
N892 N 0.86668 0.16018 0.94275 0.0
N893 N 0.8189 0.15097 0.98099 0.0
H894 H 0.63903 0.00869 0.74706 0.0
H895 H 0.61354 0.14342 0.67149 0.0
H896 H 0.72543 1.00164 0.70931 0.0
H897 H 0.52406 0.13941 0.70827 0.0
H898 H 0.65052 0.08499 0.68323 0.0
H899 H 0.59278 0.05037 0.73143 0.0
C900 C 0.64812 0.01534 0.73541 0.0
C901 C 0.68648 1.00166 0.72958 0.0
C902 C 0.62236 0.09646 0.68857 0.0
C903 C 0.63365 0.05059 0.71159 0.0
C904 C 0.60107 0.12958 0.6818 0.0
C905 C 0.56607 0.14668 0.68905 0.0
C906 C 0.60843 0.08054 0.70264 0.0
C907 C 0.55136 0.12767 0.70244 0.0
C908 C 0.62167 0.03945 0.72647 0.0
C909 C 0.69663 0.01216 0.71442 0.0
N910 N 0.57288 0.09605 0.70888 0.0
N911 N 0.67057 0.03632 0.706 0.0
H912 H 0.78439 0.37707 0.00468 0.0
H913 H 0.90147 0.37053 0.92395 0.0
H914 H 0.75643 0.46362 0.96854 0.0
H915 H 0.94827 0.31384 0.96517 0.0
H916 H 0.84228 0.39812 0.93862 0.0
H917 H 0.83835 0.34631 0.98873 0.0
C918 C 0.78926 0.38931 0.9933 0.0
C919 C 0.76571 0.42293 0.98793 0.0
C920 C 0.86556 0.37959 0.9444 0.0
C921 C 0.82807 0.38802 0.9696 0.0
C922 C 0.89919 0.36372 0.93604 0.0
C923 C 0.93005 0.34017 0.94339 0.0
C924 C 0.8625 0.37121 0.96012 0.0
C925 C 0.92555 0.33229 0.95907 0.0
C926 C 0.82036 0.37193 0.98423 0.0
C927 C 0.77406 0.43794 0.97317 0.0
N928 N 0.89247 0.34768 0.96687 0.0
N929 N 0.80454 0.42034 0.96449 0.0
H930 H 0.78799 0.58048 0.24706 0.0
H931 H 0.9596 0.64565 0.18541 0.0
H932 H 0.89236 0.50359 0.23432 0.0
H933 H 0.84762 0.71659 0.19329 0.0
H934 H 0.9335 0.59218 0.20258 0.0
H935 H 0.80689 0.62911 0.22672 0.0
C936 C 0.81455 0.57349 0.23988 0.0
C937 C 0.83883 0.53797 0.24254 0.0
C938 C 0.91439 0.61923 0.20048 0.0
C939 C 0.86099 0.59394 0.21935 0.0
C940 C 0.9293 0.6499 0.19065 0.0
C941 C 0.90589 0.68593 0.18793 0.0
C942 C 0.87584 0.62454 0.20782 0.0
C943 C 0.86678 0.68941 0.19505 0.0
C944 C 0.82546 0.60143 0.22831 0.0
C945 C 0.87319 0.53092 0.23294 0.0
N946 N 0.85315 0.6593 0.20478 0.0
N947 N 0.88336 0.55874 0.22188 0.0
H948 H 0.76457 0.62853 0.48059 0.0
H949 H 0.52329 0.68223 0.47043 0.0
H950 H 0.66584 0.56425 0.50436 0.0
H951 H 0.61437 0.71014 0.43556 0.0
H952 H 0.57738 0.64749 0.48524 0.0
H953 H 0.7118 0.6671 0.46602 0.0
C954 C 0.73181 0.62268 0.48275 0.0
C955 C 0.71943 0.59304 0.49359 0.0
C956 C 0.58553 0.66124 0.47435 0.0
C957 C 0.65928 0.63706 0.47719 0.0
C958 C 0.55472 0.68126 0.46591 0.0
C959 C 0.56426 0.69893 0.45169 0.0
C960 C 0.62638 0.6593 0.46864 0.0
C961 C 0.60558 0.69661 0.44642 0.0
C962 C 0.70181 0.64449 0.47442 0.0
C963 C 0.67665 0.58647 0.49596 0.0
N964 N 0.6352 0.67722 0.45492 0.0
N965 N 0.64813 0.60842 0.48788 0.0
H966 H 0.74508 0.4401 0.74972 0.0
H967 H 0.63468 0.35765 0.67356 0.0
H968 H 0.68982 0.52145 0.71635 0.0
H969 H 0.62863 0.2925 0.71643 0.0
H970 H 0.67745 0.41181 0.68579 0.0
H971 H 0.72422 0.38011 0.7341 0.0
C972 C 0.72938 0.4453 0.73893 0.0
C973 C 0.71887 0.48562 0.73431 0.0
C974 C 0.66768 0.38504 0.69238 0.0
C975 C 0.69539 0.41751 0.71644 0.0
C976 C 0.64382 0.35397 0.68538 0.0
C977 C 0.62861 0.32058 0.69401 0.0
C978 C 0.67675 0.38215 0.70804 0.0
C979 C 0.64009 0.31775 0.70942 0.0
C980 C 0.71738 0.41116 0.73009 0.0
C981 C 0.69816 0.49076 0.72033 0.0
N982 N 0.66339 0.34828 0.71599 0.0
N983 N 0.68696 0.45704 0.71188 0.0
H984 H 0.72109 0.6226 0.08344 0.0
H985 H 0.94938 0.66114 0.11583 0.0
H986 H 0.82069 0.53824 0.0723 0.0
H987 H 0.83716 0.70225 0.13842 0.0
H988 H 0.9061 0.61778 0.09876 0.0
H989 H 0.76649 0.6565 0.10211 0.0
C990 C 0.75264 0.61134 0.0849 0.0
C991 C 0.76718 0.57765 0.07631 0.0
C992 C 0.89122 0.63596 0.10762 0.0
C993 C 0.81951 0.61632 0.0977 0.0
C994 C 0.91588 0.66049 0.1174 0.0
C995 C 0.89689 0.68587 0.12845 0.0
C996 C 0.84749 0.63732 0.10885 0.0
C997 C 0.85326 0.68386 0.12992 0.0
C998 C 0.77847 0.63046 0.09564 0.0
C999 C 0.80827 0.56403 0.07878 0.0
N1000 N 0.83016 0.6606 0.12014 0.0
N1001 N 0.83322 0.58366 0.08917 0.0
H1002 H 0.75629 0.52601 0.35707 0.0
H1003 H 0.53158 0.61092 0.38023 0.0
H1004 H 0.64772 0.51072 0.32823 0.0
H1005 H 0.64485 0.67863 0.38983 0.0
H1006 H 0.57301 0.55733 0.36719 0.0
H1007 H 0.7142 0.56674 0.37482 0.0
C1008 C 0.72374 0.53102 0.3544 0.0
C1009 C 0.70597 0.51521 0.34087 0.0
C1010 C 0.58874 0.58351 0.37247 0.0
C1011 C 0.65734 0.56044 0.36161 0.0
C1012 C 0.56526 0.61374 0.38002 0.0
C1013 C 0.58502 0.64901 0.38608 0.0
C1014 C 0.63217 0.58837 0.37131 0.0
C1015 C 0.62862 0.65179 0.38527 0.0
C1016 C 0.69971 0.55395 0.36466 0.0
C1017 C 0.66304 0.52172 0.33848 0.0
N1018 N 0.6508 0.62188 0.37797 0.0
N1019 N 0.64027 0.54389 0.34872 0.0
H1020 H 0.68052 0.50249 0.57595 0.0
H1021 H 0.63395 0.3513 0.64629 0.0
H1022 H 0.77431 0.42888 0.59845 0.0
H1023 H 0.54187 0.38522 0.61269 0.0
H1024 H 0.68404 0.39802 0.63396 0.0
H1025 H 0.6287 0.47717 0.59434 0.0
C1026 C 0.69039 0.48173 0.58498 0.0
C1027 C 0.73165 0.46745 0.58563 0.0
C1028 C 0.65254 0.396 0.62953 0.0
C1029 C 0.67265 0.43846 0.60662 0.0
C1030 C 0.62376 0.36983 0.63669 0.0
C1031 C 0.5837 0.36451 0.63052 0.0
C1032 C 0.64101 0.41717 0.61618 0.0
C1033 C 0.57253 0.38837 0.61776 0.0
C1034 C 0.66078 0.46715 0.59539 0.0
C1035 C 0.74268 0.44024 0.59746 0.0
N1036 N 0.60117 0.41341 0.61092 0.0
N1037 N 0.71329 0.42641 0.60744 0.0
H1038 H 0.88168 0.52121 0.81141 0.0
H1039 H 0.91692 0.42239 0.89378 0.0
H1040 H 0.79375 0.54572 0.84764 0.0
H1041 H 0.94731 0.36277 0.85107 0.0
H1042 H 0.8837 0.47944 0.87925 0.0
H1043 H 0.92024 0.47596 0.82849 0.0
C1044 C 0.87087 0.51771 0.82306 0.0
C1045 C 0.83435 0.53723 0.82809 0.0
C1046 C 0.89782 0.45376 0.87319 0.0
C1047 C 0.87817 0.48472 0.84765 0.0
C1048 C 0.91672 0.4215 0.88141 0.0
C1049 C 0.93423 0.38783 0.87355 0.0
C1050 C 0.89792 0.45245 0.85713 0.0
C1051 C 0.93351 0.3879 0.85755 0.0
C1052 C 0.89274 0.49157 0.83276 0.0
C1053 C 0.82152 0.53083 0.84328 0.0
N1054 N 0.91586 0.41973 0.84989 0.0
N1055 N 0.84337 0.50486 0.85257 0.0
H1056 H 0.25648 0.58082 0.07419 0.0
H1057 H 0.07141 0.73606 0.09617 0.0
H1058 H 0.21512 0.68005 0.04482 0.0
H1059 H 0.11618 0.63818 0.12548 0.0
H1060 H 0.11759 0.71099 0.07589 0.0
H1061 H 0.2002 0.59719 0.09192 0.0
C1062 C 0.23541 0.60588 0.0714 0.0
C1063 C 0.24082 0.62919 0.05799 0.0
C1064 C 0.11684 0.69466 0.08669 0.0
C1065 C 0.17619 0.64843 0.07839 0.0
C1066 C 0.09014 0.70871 0.09823 0.0
C1067 C 0.09012 0.68941 0.11261 0.0
C1068 C 0.14363 0.66107 0.08955 0.0
C1069 C 0.11545 0.65434 0.11464 0.0
C1070 C 0.20328 0.61533 0.08157 0.0
C1071 C 0.21269 0.66168 0.05513 0.0
N1072 N 0.1414 0.6416 0.10333 0.0
N1073 N 0.18173 0.67041 0.06525 0.0
H1074 H 0.20937 0.44929 0.80709 0.0
H1075 H 0.09954 0.39634 0.88675 0.0
H1076 H 0.15466 0.54366 0.83564 0.0
H1077 H 0.09251 0.31525 0.84758 0.0
H1078 H 0.13906 0.44674 0.87132 0.0
H1079 H 0.1853 0.39612 0.82518 0.0
C1080 C 0.19292 0.45882 0.81731 0.0
C1081 C 0.18378 0.50082 0.81988 0.0
C1082 C 0.12945 0.41755 0.86623 0.0
C1083 C 0.15666 0.44042 0.84061 0.0
C1084 C 0.10732 0.38868 0.87504 0.0
C1085 C 0.09275 0.3517 0.86838 0.0
C1086 C 0.13777 0.40883 0.8508 0.0
C1087 C 0.1031 0.34351 0.8531 0.0
C1088 C 0.17908 0.42853 0.82756 0.0
C1089 C 0.16203 0.51153 0.83322 0.0
N1090 N 0.12495 0.37187 0.84481 0.0
N1091 N 0.1492 0.48151 0.84312 0.0
H1092 H 0.19442 0.43165 0.59887 0.0
H1093 H 0.40728 0.30323 0.59972 0.0
H1094 H 0.27014 0.40431 0.55936 0.0
H1095 H 0.3384 0.32843 0.64108 0.0
H1096 H 0.35345 0.33686 0.58501 0.0
H1097 H 0.24313 0.39163 0.61471 0.0
C1098 C 0.2211 0.41716 0.59351 0.0
C1099 C 0.22801 0.42128 0.57771 0.0
C1100 C 0.34979 0.33517 0.59729 0.0
C1101 C 0.28352 0.3754 0.59572 0.0
C1102 C 0.38076 0.31598 0.60576 0.0
C1103 C 0.37774 0.31344 0.62173 0.0
C1104 C 0.31523 0.35246 0.60472 0.0
C1105 C 0.34206 0.32986 0.62879 0.0
C1106 C 0.24874 0.3942 0.60255 0.0
C1107 C 0.26288 0.40148 0.57138 0.0
N1108 N 0.31223 0.34907 0.62023 0.0
N1109 N 0.28921 0.37965 0.5804 0.0
H1110 H 0.3629 0.55425 0.30971 0.0
H1111 H 0.39193 0.66163 0.39151 0.0
H1112 H 0.29577 0.51293 0.34963 0.0
H1113 H 0.45001 0.704 0.34982 0.0
H1114 H 0.35254 0.60998 0.37663 0.0
H1115 H 0.3923 0.61119 0.32449 0.0
C1116 C 0.3546 0.55697 0.32166 0.0
C1117 C 0.32736 0.52833 0.3285 0.0
C1118 C 0.37358 0.63094 0.37076 0.0
C1119 C 0.36066 0.59424 0.34559 0.0
C1120 C 0.39589 0.6606 0.37922 0.0
C1121 C 0.42467 0.68698 0.37192 0.0
C1122 C 0.38014 0.62774 0.35492 0.0
C1123 C 0.42861 0.68406 0.35599 0.0
C1124 C 0.37114 0.5898 0.33009 0.0
C1125 C 0.3168 0.53423 0.34393 0.0
N1126 N 0.40693 0.65485 0.34809 0.0
N1127 N 0.33375 0.56638 0.35201 0.0
H1128 H 0.30691 0.46261 0.96108 0.0
H1129 H 0.06896 0.43829 0.93418 0.0
H1130 H 0.21222 0.55319 0.97146 0.0
H1131 H 0.16307 0.34376 0.92992 0.0
H1132 H 0.12288 0.48687 0.94359 0.0
H1133 H 0.25647 0.42451 0.94554 0.0
C1134 C 0.27551 0.47457 0.96004 0.0
C1135 C 0.26368 0.51086 0.96774 0.0
C1136 C 0.13173 0.45566 0.94035 0.0
C1137 C 0.2055 0.46735 0.9499 0.0
C1138 C 0.10108 0.42815 0.93489 0.0
C1139 C 0.11167 0.38699 0.93146 0.0
C1140 C 0.17303 0.44174 0.9422 0.0
C1141 C 0.15359 0.37515 0.93265 0.0
C1142 C 0.2467 0.45291 0.9511 0.0
C1143 C 0.22273 0.52538 0.96569 0.0
N1144 N 0.18258 0.40221 0.93801 0.0
N1145 N 0.19496 0.50334 0.95711 0.0
H1146 H 0.27774 0.5282 0.70741 0.0
H1147 H 0.48832 0.39728 0.702 0.0
H1148 H 0.37504 0.52675 0.74157 0.0
H1149 H 0.38455 0.37798 0.6714 0.0
H1150 H 0.45284 0.45714 0.71287 0.0
H1151 H 0.32085 0.48371 0.69114 0.0
C1152 C 0.30815 0.51879 0.7115 0.0
C1153 C 0.32248 0.53118 0.72601 0.0
C1154 C 0.43796 0.4403 0.70363 0.0
C1155 C 0.37226 0.48092 0.70725 0.0
C1156 C 0.45835 0.40625 0.69735 0.0
C1157 C 0.43909 0.38237 0.68592 0.0
C1158 C 0.39766 0.45037 0.69862 0.0
C1159 C 0.40044 0.39559 0.68022 0.0
C1160 C 0.33284 0.49364 0.70212 0.0
C1161 C 0.36262 0.51865 0.73046 0.0
N1162 N 0.38054 0.42834 0.68683 0.0
N1163 N 0.38584 0.49412 0.72118 0.0
H1164 H 0.20159 0.57889 0.47052 0.0
H1165 H 0.44062 0.61975 0.44823 0.0
H1166 H 0.30531 0.55192 0.50021 0.0
H1167 H 0.33764 0.68796 0.42923 0.0
H1168 H 0.39075 0.57602 0.46234 0.0
H1169 H 0.25097 0.60091 0.45064 0.0
C1170 C 0.23476 0.57691 0.47273 0.0
C1171 C 0.24946 0.56411 0.48706 0.0
C1172 C 0.37909 0.59983 0.45474 0.0
C1173 C 0.30593 0.58886 0.46443 0.0
C1174 C 0.40746 0.62436 0.44657 0.0
C1175 C 0.393 0.65722 0.43756 0.0
C1176 C 0.33615 0.60819 0.45374 0.0
C1177 C 0.34984 0.66273 0.43605 0.0
C1178 C 0.26287 0.58957 0.46143 0.0
C1179 C 0.29275 0.56223 0.48938 0.0
N1180 N 0.3229 0.6387 0.44416 0.0
N1181 N 0.31947 0.5747 0.47822 0.0
H1182 H 0.18912 0.58416 0.26098 0.0
H1183 H 0.06494 0.62286 0.18528 0.0
H1184 H 0.11698 0.48673 0.23973 0.0
H1185 H 0.08244 0.72152 0.21802 0.0
H1186 H 0.08558 0.57239 0.2047 0.0
H1187 H 0.15257 0.63545 0.24523 0.0
C1188 C 0.1652 0.57372 0.2531 0.0
C1189 C 0.15608 0.53127 0.25155 0.0
C1190 C 0.08436 0.60498 0.20773 0.0
C1191 C 0.11477 0.58945 0.2334 0.0
C1192 C 0.07278 0.63376 0.19665 0.0
C1193 C 0.07228 0.67629 0.20009 0.0
C1194 C 0.09667 0.61892 0.22224 0.0
C1195 C 0.08242 0.68892 0.21497 0.0
C1196 C 0.14427 0.60293 0.24419 0.0
C1197 C 0.12479 0.51921 0.24125 0.0
N1198 N 0.09503 0.66036 0.22547 0.0
N1199 N 0.10572 0.54812 0.23236 0.0
loop_
_geom_bond_atom_site_label_1
_geom_bond_atom_site_label_2
_geom_bond_distance
_geom_bond_site_symmetry_2
_ccdc_geom_bond_type
H0 C27 0.953 . S
N1 C26 1.433 . S
N1 C32 1.435 1_545 S
N1 C38 1.423 1_545 S
H2 C28 0.930 . S
H3 C31 0.931 . S
H4 C30 0.929 . S
H5 C33 0.930 . S
H6 C34 0.932 1_545 S
H7 C37 0.929 . S
H8 C36 0.931 . S
H9 C39 0.929 . S
H10 C43 0.932 . S
H11 C40 0.931 . S
H12 C42 0.929 . S
H13 C45 0.953 . S
H14 C46 0.930 . S
H15 C48 0.929 . S
H16 C49 0.931 . S
H17 C51 0.930 . S
H18 C52 0.932 1_545 S
H19 C54 0.931 . S
H20 C55 0.929 . S
H21 C57 0.929 . S
H22 C58 0.931 . S
H23 C60 0.929 . S
N24 C44 1.433 . S
N24 C50 1.435 1_545 S
N24 C56 1.423 1_545 S
H25 C61 0.932 . S
C26 N1 1.433 . S
C26 C27 1.363 . S
C26 C31 1.370 . S
C27 H0 0.953 . S
C27 C26 1.363 . S
C27 C28 1.385 . S
C28 H2 0.930 . S
C28 C27 1.385 . S
C28 C29 1.357 . S
C29 C28 1.357 . S
C29 C30 1.406 . S
C30 H4 0.929 . S
C30 C29 1.406 . S
C30 C31 1.391 . S
C31 H3 0.931 . S
C31 C26 1.370 . S
C31 C30 1.391 . S
C32 N1 1.435 1_565 S
C32 C33 1.358 1_565 S
C32 C37 1.371 . S
C33 H5 0.930 . S
C33 C32 1.358 1_545 S
C33 C34 1.405 1_545 S
C34 H6 0.932 1_565 S
C34 C33 1.405 1_565 S
C34 C35 1.383 . S
C35 C34 1.383 . S
C35 C36 1.393 . S
C36 H8 0.931 . S
C36 C35 1.393 . S
C36 C37 1.382 . S
C37 H7 0.929 . S
C37 C32 1.371 . S
C37 C36 1.382 . S
C38 N1 1.423 1_565 S
C38 C39 1.362 . S
C38 C43 1.388 . S
C39 H9 0.929 . S
C39 C38 1.362 . S
C39 C40 1.376 . S
C40 H11 0.931 . S
C40 C39 1.376 . S
C40 C41 1.396 . S
C41 C40 1.396 . S
C41 C42 1.348 . S
C41 C59 1.472 1_655 S
C42 H12 0.929 . S
C42 C41 1.348 . S
C42 C43 1.443 . S
C43 H10 0.932 . S
C43 C38 1.388 . S
C43 C42 1.443 . S
C44 N24 1.433 . S
C44 C45 1.363 . S
C44 C49 1.370 . S
C45 H13 0.953 . S
C45 C44 1.363 . S
C45 C46 1.385 . S
C46 H14 0.930 . S
C46 C45 1.385 . S
C46 C47 1.357 . S
C47 C46 1.357 . S
C47 C48 1.406 . S
C48 H15 0.929 . S
C48 C47 1.406 . S
C48 C49 1.391 . S
C49 H16 0.931 . S
C49 C44 1.370 . S
C49 C48 1.391 . S
C50 N24 1.435 1_565 S
C50 C51 1.358 1_565 S
C50 C55 1.371 . S
C51 H17 0.930 . S
C51 C50 1.358 1_545 S
C51 C52 1.405 1_545 S
C52 H18 0.932 1_565 S
C52 C51 1.405 1_565 S
C52 C53 1.383 . S
C53 C52 1.383 . S
C53 C54 1.393 . S
C54 H19 0.931 . S
C54 C53 1.393 . S
C54 C55 1.382 . S
C55 H20 0.929 . S
C55 C50 1.371 . S
C55 C54 1.382 . S
C56 N24 1.423 1_565 S
C56 C57 1.362 . S
C56 C61 1.388 . S
C57 H21 0.929 . S
C57 C56 1.362 . S
C57 C58 1.376 . S
C58 H22 0.931 . S
C58 C57 1.376 . S
C58 C59 1.396 . S
C59 C41 1.472 1_455 S
C59 C58 1.396 . S
C59 C60 1.348 . S
C60 H23 0.929 . S
C60 C59 1.348 . S
C60 C61 1.443 . S
C61 H25 0.932 . S
C61 C56 1.388 . S
C61 C60 1.443 . S
H62 C89 0.929 . S
N63 C88 1.433 . S
N63 C94 1.435 . S
N63 C100 1.423 . S
H64 C90 0.930 . S
H65 C93 0.931 . S
H66 C92 0.929 . S
H67 C95 0.930 . S
H68 C96 0.932 . S
H69 C99 0.929 . S
H70 C98 0.931 . S
H71 C101 0.929 . S
H72 C105 0.932 . S
H73 C102 0.931 . S
H74 C104 0.929 . S
H75 C107 0.929 . S
H76 C108 0.930 1_545 S
H77 C110 0.929 . S
H78 C111 0.931 . S
H79 C113 0.930 . S
H80 C114 0.950 . S
H81 C116 0.931 . S
H82 C117 0.929 . S
H83 C119 0.929 . S
H84 C120 0.931 . S
H85 C122 0.929 . S
N86 C106 1.433 . S
N86 C112 1.435 . S
N86 C118 1.423 . S
H87 C123 0.932 . S
C88 N63 1.433 . S
C88 C89 1.363 . S
C88 C93 1.370 . S
C89 H62 0.929 . S
C89 C88 1.363 . S
C89 C90 1.385 . S
C90 H64 0.930 . S
C90 C89 1.385 . S
C90 C91 1.357 . S
C91 C90 1.357 . S
C91 C92 1.406 . S
C92 H66 0.929 . S
C92 C91 1.406 . S
C92 C93 1.391 . S
C93 H65 0.931 . S
C93 C88 1.370 . S
C93 C92 1.391 . S
C94 N63 1.435 . S
C94 C95 1.358 . S
C94 C99 1.371 . S
C95 H67 0.930 . S
C95 C94 1.358 . S
C95 C96 1.405 . S
C96 H68 0.932 . S
C96 C95 1.405 . S
C96 C97 1.383 . S
C97 C96 1.383 . S
C97 C98 1.393 . S
C98 H70 0.931 . S
C98 C97 1.393 . S
C98 C99 1.382 . S
C99 H69 0.929 . S
C99 C94 1.371 . S
C99 C98 1.382 . S
C100 N63 1.423 . S
C100 C101 1.362 . S
C100 C105 1.388 . S
C101 H71 0.929 . S
C101 C100 1.362 . S
C101 C102 1.376 . S
C102 H73 0.931 . S
C102 C101 1.376 . S
C102 C103 1.396 . S
C103 C102 1.396 . S
C103 C104 1.348 . S
C103 C121 1.472 . S
C104 H74 0.929 . S
C104 C103 1.348 . S
C104 C105 1.443 . S
C105 H72 0.932 . S
C105 C100 1.388 . S
C105 C104 1.443 . S
C106 N86 1.433 . S
C106 C107 1.363 . S
C106 C111 1.370 . S
C107 H75 0.929 . S
C107 C106 1.363 . S
C107 C108 1.385 . S
C108 H76 0.930 1_565 S
C108 C107 1.385 . S
C108 C109 1.357 . S
C109 C108 1.357 . S
C109 C110 1.406 . S
C110 H77 0.929 . S
C110 C109 1.406 . S
C110 C111 1.391 . S
C111 H78 0.931 . S
C111 C106 1.370 . S
C111 C110 1.391 . S
C112 N86 1.435 . S
C112 C113 1.358 . S
C112 C117 1.371 . S
C113 H79 0.930 . S
C113 C112 1.358 . S
C113 C114 1.389 1_565 S
C114 H80 0.950 . S
C114 C113 1.389 1_545 S
C114 C115 1.381 1_545 S
C115 C114 1.381 1_565 S
C115 C116 1.393 . S
C116 H81 0.931 . S
C116 C115 1.393 . S
C116 C117 1.382 . S
C117 H82 0.929 . S
C117 C112 1.371 . S
C117 C116 1.382 . S
C118 N86 1.423 . S
C118 C119 1.362 . S
C118 C123 1.388 . S
C119 H83 0.929 . S
C119 C118 1.362 . S
C119 C120 1.376 . S
C120 H84 0.931 . S
C120 C119 1.376 . S
C120 C121 1.396 . S
C121 C103 1.472 . S
C121 C120 1.396 . S
C121 C122 1.348 . S
C122 H85 0.929 . S
C122 C121 1.348 . S
C122 C123 1.443 . S
C123 H87 0.932 . S
C123 C118 1.388 . S
C123 C122 1.443 . S
H124 C151 0.929 . S
N125 C150 1.431 . S
N125 C156 1.435 . S
N125 C162 1.423 . S
H126 C152 0.930 . S
H127 C155 0.931 . S
H128 C154 0.929 . S
H129 C157 0.930 1_565 S
H130 C158 0.924 1_556 S
H131 C161 0.929 . S
H132 C160 0.932 1_556 S
H133 C163 0.929 . S
H134 C167 0.932 . S
H135 C164 0.931 . S
H136 C166 0.929 . S
H137 C169 0.929 . S
H138 C170 0.930 . S
H139 C172 0.929 . S
H140 C173 0.931 . S
H141 C175 0.930 1_565 S
H142 C176 0.924 1_556 S
H143 C178 0.932 1_556 S
H144 C179 0.929 . S
H145 C181 0.929 . S
H146 C182 0.931 . S
H147 C184 0.929 . S
N148 C168 1.431 . S
N148 C174 1.435 . S
N148 C180 1.423 . S
H149 C185 0.932 . S
C150 N125 1.431 . S
C150 C151 1.363 . S
C150 C155 1.372 1_545 S
C151 H124 0.929 . S
C151 C150 1.363 . S
C151 C152 1.385 1_545 S
C152 H126 0.930 . S
C152 C151 1.385 1_565 S
C152 C153 1.357 . S
C153 C152 1.357 . S
C153 C154 1.406 . S
C154 H128 0.929 . S
C154 C153 1.406 . S
C154 C155 1.391 . S
C155 H127 0.931 . S
C155 C150 1.372 1_565 S
C155 C154 1.391 . S
C156 N125 1.435 . S
C156 C157 1.358 . S
C156 C161 1.371 . S
C157 H129 0.930 1_545 S
C157 C156 1.358 . S
C157 C158 1.405 . S
C158 H130 0.924 1_554 S
C158 C157 1.405 . S
C158 C159 1.383 1_554 S
C159 C158 1.383 1_556 S
C159 C160 1.393 1_556 S
C160 H132 0.932 1_554 S
C160 C159 1.393 1_554 S
C160 C161 1.382 . S
C161 H131 0.929 . S
C161 C156 1.371 . S
C161 C160 1.382 . S
C162 N125 1.423 . S
C162 C163 1.362 . S
C162 C167 1.388 . S
C163 H133 0.929 . S
C163 C162 1.362 . S
C163 C164 1.376 . S
C164 H135 0.931 . S
C164 C163 1.376 . S
C164 C165 1.396 . S
C165 C164 1.396 . S
C165 C166 1.348 . S
C165 C183 1.472 . S
C166 H136 0.929 . S
C166 C165 1.348 . S
C166 C167 1.443 . S
C167 H134 0.932 . S
C167 C162 1.388 . S
C167 C166 1.443 . S
C168 N148 1.431 . S
C168 C169 1.363 . S
C168 C173 1.372 1_545 S
C169 H137 0.929 . S
C169 C168 1.363 . S
C169 C170 1.385 1_545 S
C170 H138 0.930 . S
C170 C169 1.385 1_565 S
C170 C171 1.357 . S
C171 C170 1.357 . S
C171 C172 1.406 . S
C172 H139 0.929 . S
C172 C171 1.406 . S
C172 C173 1.391 . S
C173 H140 0.931 . S
C173 C168 1.372 1_565 S
C173 C172 1.391 . S
C174 N148 1.435 . S
C174 C175 1.358 . S
C174 C179 1.371 . S
C175 H141 0.930 1_545 S
C175 C174 1.358 . S
C175 C176 1.405 . S
C176 H142 0.924 1_554 S
C176 C175 1.405 . S
C176 C177 1.383 1_554 S
C177 C176 1.383 1_556 S
C177 C178 1.393 1_556 S
C178 H143 0.932 1_554 S
C178 C177 1.393 1_554 S
C178 C179 1.382 . S
C179 H144 0.929 . S
C179 C174 1.371 . S
C179 C178 1.382 . S
C180 N148 1.423 . S
C180 C181 1.362 . S
C180 C185 1.388 . S
C181 H145 0.929 . S
C181 C180 1.362 . S
C181 C182 1.376 . S
C182 H146 0.931 . S
C182 C181 1.376 . S
C182 C183 1.396 . S
C183 C165 1.472 . S
C183 C182 1.396 . S
C183 C184 1.348 . S
C184 H147 0.929 . S
C184 C183 1.348 . S
C184 C185 1.443 . S
C185 H149 0.932 . S
C185 C180 1.388 . S
C185 C184 1.443 . S
H186 C213 0.929 . S
N187 C212 1.433 . S
N187 C218 1.435 . S
N187 C224 1.423 . S
H188 C214 0.930 . S
H189 C217 0.931 . S
H190 C216 0.929 . S
H191 C219 0.930 . S
H192 C220 0.932 . S
H193 C223 0.929 . S
H194 C222 0.931 . S
H195 C225 0.929 . S
H196 C229 0.932 . S
H197 C226 0.931 . S
H198 C228 0.929 . S
H199 C231 0.929 . S
H200 C232 0.930 . S
H201 C234 0.929 . S
H202 C235 0.931 . S
H203 C237 0.930 . S
H204 C238 0.932 . S
H205 C240 0.931 . S
H206 C241 0.929 . S
H207 C243 0.929 . S
H208 C244 0.931 . S
H209 C246 0.929 . S
N210 C230 1.433 . S
N210 C236 1.435 . S
N210 C242 1.423 . S
H211 C247 0.932 . S
C212 N187 1.433 . S
C212 C213 1.363 . S
C212 C217 1.370 . S
C213 H186 0.929 . S
C213 C212 1.363 . S
C213 C214 1.385 . S
C214 H188 0.930 . S
C214 C213 1.385 . S
C214 C215 1.357 . S
C215 C214 1.357 . S
C215 C216 1.406 . S
C216 H190 0.929 . S
C216 C215 1.406 . S
C216 C217 1.391 . S
C217 H189 0.931 . S
C217 C212 1.370 . S
C217 C216 1.391 . S
C218 N187 1.435 . S
C218 C219 1.358 . S
C218 C223 1.371 . S
C219 H191 0.930 . S
C219 C218 1.358 . S
C219 C220 1.405 . S
C220 H192 0.932 . S
C220 C219 1.405 . S
C220 C221 1.383 . S
C221 C220 1.383 . S
C221 C222 1.393 . S
C222 H194 0.931 . S
C222 C221 1.393 . S
C222 C223 1.382 . S
C223 H193 0.929 . S
C223 C218 1.371 . S
C223 C222 1.382 . S
C224 N187 1.423 . S
C224 C225 1.362 . S
C224 C229 1.388 . S
C225 H195 0.929 . S
C225 C224 1.362 . S
C225 C226 1.376 . S
C226 H197 0.931 . S
C226 C225 1.376 . S
C226 C227 1.396 . S
C227 C226 1.396 . S
C227 C228 1.348 . S
C227 C245 1.472 . S
C228 H198 0.929 . S
C228 C227 1.348 . S
C228 C229 1.443 . S
C229 H196 0.932 . S
C229 C224 1.388 . S
C229 C228 1.443 . S
C230 N210 1.433 . S
C230 C231 1.363 . S
C230 C235 1.370 . S
C231 H199 0.929 . S
C231 C230 1.363 . S
C231 C232 1.385 . S
C232 H200 0.930 . S
C232 C231 1.385 . S
C232 C233 1.357 . S
C233 C232 1.357 . S
C233 C234 1.406 . S
C234 H201 0.929 . S
C234 C233 1.406 . S
C234 C235 1.391 . S
C235 H202 0.931 . S
C235 C230 1.370 . S
C235 C234 1.391 . S
C236 N210 1.435 . S
C236 C237 1.358 . S
C236 C241 1.371 . S
C237 H203 0.930 . S
C237 C236 1.358 . S
C237 C238 1.405 . S
C238 H204 0.932 . S
C238 C237 1.405 . S
C238 C239 1.383 . S
C239 C238 1.383 . S
C239 C240 1.393 . S
C240 H205 0.931 . S
C240 C239 1.393 . S
C240 C241 1.382 . S
C241 H206 0.929 . S
C241 C236 1.371 . S
C241 C240 1.382 . S
C242 N210 1.423 . S
C242 C243 1.362 . S
C242 C247 1.388 . S
C243 H207 0.929 . S
C243 C242 1.362 . S
C243 C244 1.376 . S
C244 H208 0.931 . S
C244 C243 1.376 . S
C244 C245 1.396 . S
C245 C227 1.472 . S
C245 C244 1.396 . S
C245 C246 1.348 . S
C246 H209 0.929 . S
C246 C245 1.348 . S
C246 C247 1.443 . S
C247 H211 0.932 . S
C247 C242 1.388 . S
C247 C246 1.443 . S
H248 C275 0.929 . S
N249 C274 1.433 . S
N249 C280 1.435 . S
N249 C286 1.423 . S
H250 C276 0.930 . S
H251 C279 0.931 . S
H252 C278 0.929 . S
H253 C281 0.930 . S
H254 C282 0.932 . S
H255 C285 0.929 . S
H256 C284 0.931 . S
H257 C287 0.929 . S
H258 C291 0.932 . S
H259 C288 0.931 . S
H260 C290 0.929 . S
H261 C293 0.929 . S
H262 C294 0.930 . S
H263 C296 0.929 . S
H264 C297 0.931 . S
H265 C299 0.930 . S
H266 C300 0.932 . S
H267 C302 0.931 . S
H268 C303 0.929 . S
H269 C305 0.929 . S
H270 C306 0.931 . S
H271 C308 0.929 . S
N272 C292 1.433 . S
N272 C298 1.435 . S
N272 C304 1.423 . S
H273 C309 0.932 . S
C274 N249 1.433 . S
C274 C275 1.363 . S
C274 C279 1.370 . S
C275 H248 0.929 . S
C275 C274 1.363 . S
C275 C276 1.385 . S
C276 H250 0.930 . S
C276 C275 1.385 . S
C276 C277 1.357 . S
C277 C276 1.357 . S
C277 C278 1.406 . S
C278 H252 0.929 . S
C278 C277 1.406 . S
C278 C279 1.391 . S
C279 H251 0.931 . S
C279 C274 1.370 . S
C279 C278 1.391 . S
C280 N249 1.435 . S
C280 C281 1.358 . S
C280 C285 1.371 . S
C281 H253 0.930 . S
C281 C280 1.358 . S
C281 C282 1.405 . S
C282 H254 0.932 . S
C282 C281 1.405 . S
C282 C283 1.383 . S
C283 C282 1.383 . S
C283 C284 1.393 . S
C284 H256 0.931 . S
C284 C283 1.393 . S
C284 C285 1.382 . S
C285 H255 0.929 . S
C285 C280 1.371 . S
C285 C284 1.382 . S
C286 N249 1.423 . S
C286 C287 1.362 . S
C286 C291 1.388 . S
C287 H257 0.929 . S
C287 C286 1.362 . S
C287 C288 1.376 . S
C288 H259 0.931 . S
C288 C287 1.376 . S
C288 C289 1.396 . S
C289 C288 1.396 . S
C289 C290 1.348 . S
C289 C307 1.472 . S
C290 H260 0.929 . S
C290 C289 1.348 . S
C290 C291 1.443 . S
C291 H258 0.932 . S
C291 C286 1.388 . S
C291 C290 1.443 . S
C292 N272 1.433 . S
C292 C293 1.363 . S
C292 C297 1.370 . S
C293 H261 0.929 . S
C293 C292 1.363 . S
C293 C294 1.385 . S
C294 H262 0.930 . S
C294 C293 1.385 . S
C294 C295 1.357 . S
C295 C294 1.357 . S
C295 C296 1.406 . S
C296 H263 0.929 . S
C296 C295 1.406 . S
C296 C297 1.391 . S
C297 H264 0.931 . S
C297 C292 1.370 . S
C297 C296 1.391 . S
C298 N272 1.435 . S
C298 C299 1.358 . S
C298 C303 1.371 . S
C299 H265 0.930 . S
C299 C298 1.358 . S
C299 C300 1.405 . S
C300 H266 0.932 . S
C300 C299 1.405 . S
C300 C301 1.383 . S
C301 C300 1.383 . S
C301 C302 1.393 . S
C302 H267 0.931 . S
C302 C301 1.393 . S
C302 C303 1.382 . S
C303 H268 0.929 . S
C303 C298 1.371 . S
C303 C302 1.382 . S
C304 N272 1.423 . S
C304 C305 1.362 . S
C304 C309 1.388 . S
C305 H269 0.929 . S
C305 C304 1.362 . S
C305 C306 1.376 . S
C306 H270 0.931 . S
C306 C305 1.376 . S
C306 C307 1.396 . S
C307 C289 1.472 . S
C307 C306 1.396 . S
C307 C308 1.348 . S
C308 H271 0.929 . S
C308 C307 1.348 . S
C308 C309 1.443 . S
C309 H273 0.932 . S
C309 C304 1.388 . S
C309 C308 1.443 . S
H310 C337 0.929 . S
N311 C336 1.433 . S
N311 C342 1.435 . S
N311 C348 1.423 . S
H312 C338 0.930 1_545 S
H313 C341 0.931 . S
H314 C340 0.929 . S
H315 C343 0.930 . S
H316 C344 0.950 . S
H317 C347 0.929 . S
H318 C346 0.931 . S
H319 C349 0.929 . S
H320 C353 0.932 . S
H321 C350 0.931 . S
H322 C352 0.929 . S
H323 C355 0.929 . S
H324 C356 0.930 . S
H325 C358 0.929 . S
H326 C359 0.931 . S
H327 C361 0.930 . S
H328 C362 0.932 . S
H329 C364 0.931 . S
H330 C365 0.929 . S
H331 C367 0.929 . S
H332 C368 0.931 . S
H333 C370 0.929 . S
N334 C354 1.433 . S
N334 C360 1.435 . S
N334 C366 1.423 . S
H335 C371 0.932 . S
C336 N311 1.433 . S
C336 C337 1.363 . S
C336 C341 1.370 . S
C337 H310 0.929 . S
C337 C336 1.363 . S
C337 C338 1.385 . S
C338 H312 0.930 1_565 S
C338 C337 1.385 . S
C338 C339 1.357 . S
C339 C338 1.357 . S
C339 C340 1.406 . S
C340 H314 0.929 . S
C340 C339 1.406 . S
C340 C341 1.391 . S
C341 H313 0.931 . S
C341 C336 1.370 . S
C341 C340 1.391 . S
C342 N311 1.435 . S
C342 C343 1.358 . S
C342 C347 1.371 . S
C343 H315 0.930 . S
C343 C342 1.358 . S
C343 C344 1.389 1_565 S
C344 H316 0.950 . S
C344 C343 1.389 1_545 S
C344 C345 1.381 1_545 S
C345 C344 1.381 1_565 S
C345 C346 1.393 . S
C346 H318 0.931 . S
C346 C345 1.393 . S
C346 C347 1.382 . S
C347 H317 0.929 . S
C347 C342 1.371 . S
C347 C346 1.382 . S
C348 N311 1.423 . S
C348 C349 1.362 . S
C348 C353 1.388 . S
C349 H319 0.929 . S
C349 C348 1.362 . S
C349 C350 1.376 . S
C350 H321 0.931 . S
C350 C349 1.376 . S
C350 C351 1.396 . S
C351 C350 1.396 . S
C351 C352 1.348 . S
C351 C369 1.472 . S
C352 H322 0.929 . S
C352 C351 1.348 . S
C352 C353 1.443 . S
C353 H320 0.932 . S
C353 C348 1.388 . S
C353 C352 1.443 . S
C354 N334 1.433 . S
C354 C355 1.363 . S
C354 C359 1.370 . S
C355 H323 0.929 . S
C355 C354 1.363 . S
C355 C356 1.385 . S
C356 H324 0.930 . S
C356 C355 1.385 . S
C356 C357 1.357 . S
C357 C356 1.357 . S
C357 C358 1.406 . S
C358 H325 0.929 . S
C358 C357 1.406 . S
C358 C359 1.391 . S
C359 H326 0.931 . S
C359 C354 1.370 . S
C359 C358 1.391 . S
C360 N334 1.435 . S
C360 C361 1.358 . S
C360 C365 1.371 . S
C361 H327 0.930 . S
C361 C360 1.358 . S
C361 C362 1.405 . S
C362 H328 0.932 . S
C362 C361 1.405 . S
C362 C363 1.383 . S
C363 C362 1.383 . S
C363 C364 1.393 . S
C364 H329 0.931 . S
C364 C363 1.393 . S
C364 C365 1.382 . S
C365 H330 0.929 . S
C365 C360 1.371 . S
C365 C364 1.382 . S
C366 N334 1.423 . S
C366 C367 1.362 . S
C366 C371 1.388 . S
C367 H331 0.929 . S
C367 C366 1.362 . S
C367 C368 1.376 . S
C368 H332 0.931 . S
C368 C367 1.376 . S
C368 C369 1.396 . S
C369 C351 1.472 . S
C369 C368 1.396 . S
C369 C370 1.348 . S
C370 H333 0.929 . S
C370 C369 1.348 . S
C370 C371 1.443 . S
C371 H335 0.932 . S
C371 C366 1.388 . S
C371 C370 1.443 . S
H372 C399 0.929 . S
N373 C398 1.433 . S
N373 C404 1.435 . S
N373 C410 1.423 . S
H374 C400 0.930 . S
H375 C403 0.931 . S
H376 C402 0.929 . S
H377 C405 0.930 . S
H378 C406 0.932 . S
H379 C409 0.929 . S
H380 C408 0.931 . S
H381 C411 0.929 1_556 S
H382 C415 0.932 . S
H383 C412 0.931 1_556 S
H384 C414 0.929 . S
H385 C417 0.929 . S
H386 C418 0.930 . S
H387 C420 0.929 . S
H388 C421 0.931 . S
H389 C423 0.930 . S
H390 C424 0.932 . S
H391 C426 0.931 . S
H392 C427 0.929 . S
H393 C429 0.929 1_556 S
H394 C430 0.931 1_556 S
H395 C432 0.929 . S
N396 C416 1.433 . S
N396 C422 1.435 . S
N396 C428 1.423 . S
H397 C433 0.932 . S
C398 N373 1.433 . S
C398 C399 1.363 . S
C398 C403 1.370 . S
C399 H372 0.929 . S
C399 C398 1.363 . S
C399 C400 1.385 1_554 S
C400 H374 0.930 . S
C400 C399 1.385 1_556 S
C400 C401 1.357 . S
C401 C400 1.357 . S
C401 C402 1.406 . S
C402 H376 0.929 . S
C402 C401 1.406 . S
C402 C403 1.391 1_556 S
C403 H375 0.931 . S
C403 C398 1.370 . S
C403 C402 1.391 1_554 S
C404 N373 1.435 . S
C404 C405 1.358 . S
C404 C409 1.371 . S
C405 H377 0.930 . S
C405 C404 1.358 . S
C405 C406 1.405 . S
C406 H378 0.932 . S
C406 C405 1.405 . S
C406 C407 1.383 . S
C407 C406 1.383 . S
C407 C408 1.393 . S
C408 H380 0.931 . S
C408 C407 1.393 . S
C408 C409 1.382 . S
C409 H379 0.929 . S
C409 C404 1.371 . S
C409 C408 1.382 . S
C410 N373 1.423 . S
C410 C411 1.362 . S
C410 C415 1.388 . S
C411 H381 0.929 1_554 S
C411 C410 1.362 . S
C411 C412 1.376 . S
C412 H383 0.931 1_554 S
C412 C411 1.376 . S
C412 C413 1.396 . S
C413 C412 1.396 . S
C413 C414 1.348 . S
C413 C431 1.472 . S
C414 H384 0.929 . S
C414 C413 1.348 . S
C414 C415 1.443 . S
C415 H382 0.932 . S
C415 C410 1.388 . S
C415 C414 1.443 . S
C416 N396 1.433 . S
C416 C417 1.363 . S
C416 C421 1.370 . S
C417 H385 0.929 . S
C417 C416 1.363 . S
C417 C418 1.385 1_554 S
C418 H386 0.930 . S
C418 C417 1.385 1_556 S
C418 C419 1.357 . S
C419 C418 1.357 . S
C419 C420 1.406 . S
C420 H387 0.929 . S
C420 C419 1.406 . S
C420 C421 1.391 1_556 S
C421 H388 0.931 . S
C421 C416 1.370 . S
C421 C420 1.391 1_554 S
C422 N396 1.435 . S
C422 C423 1.358 . S
C422 C427 1.371 . S
C423 H389 0.930 . S
C423 C422 1.358 . S
C423 C424 1.405 . S
C424 H390 0.932 . S
C424 C423 1.405 . S
C424 C425 1.383 . S
C425 C424 1.383 . S
C425 C426 1.393 . S
C426 H391 0.931 . S
C426 C425 1.393 . S
C426 C427 1.382 . S
C427 H392 0.929 . S
C427 C422 1.371 . S
C427 C426 1.382 . S
C428 N396 1.423 . S
C428 C429 1.362 . S
C428 C433 1.388 . S
C429 H393 0.929 1_554 S
C429 C428 1.362 . S
C429 C430 1.376 . S
C430 H394 0.931 1_554 S
C430 C429 1.376 . S
C430 C431 1.396 . S
C431 C413 1.472 . S
C431 C430 1.396 . S
C431 C432 1.348 . S
C432 H395 0.929 . S
C432 C431 1.348 . S
C432 C433 1.443 . S
C433 H397 0.932 . S
C433 C428 1.388 . S
C433 C432 1.443 . S
H434 C461 0.929 . S
N435 C460 1.433 . S
N435 C466 1.435 . S
N435 C472 1.423 . S
H436 C462 0.930 . S
H437 C465 0.931 . S
H438 C464 0.929 . S
H439 C467 0.930 . S
H440 C468 0.932 . S
H441 C471 0.929 . S
H442 C470 0.931 . S
H443 C473 0.929 . S
H444 C477 0.932 . S
H445 C474 0.931 . S
H446 C476 0.929 . S
H447 C479 0.929 . S
H448 C480 0.930 . S
H449 C482 0.929 . S
H450 C483 0.931 . S
H451 C485 0.930 . S
H452 C486 0.932 . S
H453 C488 0.931 . S
H454 C489 0.929 . S
H455 C491 0.929 . S
H456 C492 0.931 . S
H457 C494 0.929 . S
N458 C478 1.433 . S
N458 C484 1.435 . S
N458 C490 1.423 . S
H459 C495 0.932 . S
C460 N435 1.433 . S
C460 C461 1.363 . S
C460 C465 1.370 . S
C461 H434 0.929 . S
C461 C460 1.363 . S
C461 C462 1.385 . S
C462 H436 0.930 . S
C462 C461 1.385 . S
C462 C463 1.357 . S
C463 C462 1.357 . S
C463 C464 1.406 . S
C464 H438 0.929 . S
C464 C463 1.406 . S
C464 C465 1.391 . S
C465 H437 0.931 . S
C465 C460 1.370 . S
C465 C464 1.391 . S
C466 N435 1.435 . S
C466 C467 1.358 . S
C466 C471 1.371 . S
C467 H439 0.930 . S
C467 C466 1.358 . S
C467 C468 1.405 . S
C468 H440 0.932 . S
C468 C467 1.405 . S
C468 C469 1.383 . S
C469 C468 1.383 . S
C469 C470 1.393 . S
C470 H442 0.931 . S
C470 C469 1.393 . S
C470 C471 1.382 . S
C471 H441 0.929 . S
C471 C466 1.371 . S
C471 C470 1.382 . S
C472 N435 1.423 . S
C472 C473 1.362 . S
C472 C477 1.388 . S
C473 H443 0.929 . S
C473 C472 1.362 . S
C473 C474 1.376 . S
C474 H445 0.931 . S
C474 C473 1.376 . S
C474 C475 1.396 . S
C475 C474 1.396 . S
C475 C476 1.348 . S
C475 C493 1.472 1_455 S
C476 H446 0.929 . S
C476 C475 1.348 . S
C476 C477 1.443 . S
C477 H444 0.932 . S
C477 C472 1.388 . S
C477 C476 1.443 . S
C478 N458 1.433 . S
C478 C479 1.363 . S
C478 C483 1.370 . S
C479 H447 0.929 . S
C479 C478 1.363 . S
C479 C480 1.385 . S
C480 H448 0.930 . S
C480 C479 1.385 . S
C480 C481 1.357 . S
C481 C480 1.357 . S
C481 C482 1.406 . S
C482 H449 0.929 . S
C482 C481 1.406 . S
C482 C483 1.391 . S
C483 H450 0.931 . S
C483 C478 1.370 . S
C483 C482 1.391 . S
C484 N458 1.435 . S
C484 C485 1.358 . S
C484 C489 1.371 . S
C485 H451 0.930 . S
C485 C484 1.358 . S
C485 C486 1.405 . S
C486 H452 0.932 . S
C486 C485 1.405 . S
C486 C487 1.383 . S
C487 C486 1.383 . S
C487 C488 1.393 . S
C488 H453 0.931 . S
C488 C487 1.393 . S
C488 C489 1.382 . S
C489 H454 0.929 . S
C489 C484 1.371 . S
C489 C488 1.382 . S
C490 N458 1.423 . S
C490 C491 1.362 . S
C490 C495 1.388 . S
C491 H455 0.929 . S
C491 C490 1.362 . S
C491 C492 1.376 . S
C492 H456 0.931 . S
C492 C491 1.376 . S
C492 C493 1.396 . S
C493 C475 1.472 1_655 S
C493 C492 1.396 . S
C493 C494 1.348 . S
C494 H457 0.929 . S
C494 C493 1.348 . S
C494 C495 1.443 . S
C495 H459 0.932 . S
C495 C490 1.388 . S
C495 C494 1.443 . S
Fe496 O497 1.886 . S
Fe496 O500 1.715 1_455 S
Fe496 O505 2.077 . S
Fe496 O510 1.935 1_455 S
Fe496 O516 2.077 . S
Fe496 O525 1.935 1_455 S
O497 Fe496 1.886 . S
O497 Fe499 1.715 . S
Fe498 O500 1.886 . S
Fe498 O501 1.715 . S
Fe498 O508 1.935 . S
Fe498 O509 2.077 . S
Fe498 O515 1.935 . S
Fe498 O524 2.077 . S
Fe499 O497 1.715 . S
Fe499 O502 1.886 . S
Fe499 O506 1.935 . S
Fe499 O511 2.077 . S
Fe499 O517 1.935 . S
Fe499 O521 2.077 . S
O500 Fe496 1.715 1_655 S
O500 Fe498 1.886 . S
O501 Fe498 1.715 . S
O501 Fe503 1.904 . S
O502 Fe499 1.886 . S
O502 Fe503 1.696 1_455 S
Fe503 O501 1.904 . S
Fe503 O502 1.696 1_655 S
Fe503 O507 2.094 . S
Fe503 O512 1.921 1_655 S
Fe503 O514 2.094 . S
Fe503 O522 1.921 1_655 S
C504 O516 1.381 . S
C504 O517 1.421 . S
O505 Fe496 2.077 . S
O505 C518 1.381 . S
O506 Fe499 1.935 . S
O506 C518 1.421 . S
O507 Fe503 2.094 . S
O507 C523 1.381 . S
O508 Fe498 1.935 . S
O508 C523 1.421 . S
O509 Fe498 2.077 . S
O509 C513 1.381 . S
O510 Fe496 1.935 1_655 S
O510 C513 1.421 . S
O511 Fe499 2.077 . S
O511 C519 1.381 . S
O512 Fe503 1.921 1_455 S
O512 C519 1.421 . S
C513 O509 1.381 . S
C513 O510 1.421 . S
O514 Fe503 2.094 . S
O514 C526 1.381 . S
O515 Fe498 1.935 . S
O515 C526 1.421 . S
O516 Fe496 2.077 . S
O516 C504 1.381 . S
O517 Fe499 1.935 . S
O517 C504 1.421 . S
C518 O505 1.381 . S
C518 O506 1.421 . S
C519 O511 1.381 . S
C519 O512 1.421 . S
C520 O521 1.381 . S
C520 O522 1.421 . S
O521 Fe499 2.077 . S
O521 C520 1.381 . S
O522 Fe503 1.921 1_455 S
O522 C520 1.421 . S
C523 O507 1.381 . S
C523 O508 1.421 . S
O524 Fe498 2.077 . S
O524 C527 1.381 . S
O525 Fe496 1.935 1_655 S
O525 C527 1.421 . S
C526 O514 1.381 . S
C526 O515 1.421 . S
C527 O524 1.381 . S
C527 O525 1.421 . S
Fe528 O529 1.886 . S
Fe528 O532 1.715 . S
Fe528 O537 2.077 . S
Fe528 O542 1.935 . S
Fe528 O548 2.077 . S
Fe528 O557 1.935 . S
O529 Fe528 1.886 . S
O529 Fe531 1.715 . S
Fe530 O532 1.886 . S
Fe530 O533 1.715 . S
Fe530 O540 1.935 . S
Fe530 O541 2.077 . S
Fe530 O547 1.935 . S
Fe530 O556 2.077 . S
Fe531 O529 1.715 . S
Fe531 O534 1.886 . S
Fe531 O538 1.935 . S
Fe531 O543 2.077 . S
Fe531 O549 1.935 . S
Fe531 O553 2.077 . S
O532 Fe528 1.715 . S
O532 Fe530 1.886 . S
O533 Fe530 1.715 . S
O533 Fe535 1.886 . S
O534 Fe531 1.886 . S
O534 Fe535 1.715 . S
Fe535 O533 1.886 . S
Fe535 O534 1.715 . S
Fe535 O539 2.077 . S
Fe535 O544 1.935 . S
Fe535 O546 2.077 . S
Fe535 O554 1.935 . S
C536 O548 1.381 . S
C536 O549 1.421 . S
O537 Fe528 2.077 . S
O537 C550 1.381 . S
O538 Fe531 1.935 . S
O538 C550 1.421 . S
O539 Fe535 2.077 . S
O539 C555 1.381 . S
O540 Fe530 1.935 . S
O540 C555 1.421 . S
O541 Fe530 2.077 . S
O541 C545 1.381 . S
O542 Fe528 1.935 . S
O542 C545 1.421 . S
O543 Fe531 2.077 . S
O543 C551 1.381 . S
O544 Fe535 1.935 . S
O544 C551 1.421 . S
C545 O541 1.381 . S
C545 O542 1.421 . S
O546 Fe535 2.077 . S
O546 C558 1.381 . S
O547 Fe530 1.935 . S
O547 C558 1.421 . S
O548 Fe528 2.077 . S
O548 C536 1.381 . S
O549 Fe531 1.935 . S
O549 C536 1.421 . S
C550 O537 1.381 . S
C550 O538 1.421 . S
C551 O543 1.381 . S
C551 O544 1.421 . S
C552 O553 1.381 . S
C552 O554 1.421 . S
O553 Fe531 2.077 . S
O553 C552 1.381 . S
O554 Fe535 1.935 . S
O554 C552 1.421 . S
C555 O539 1.381 . S
C555 O540 1.421 . S
O556 Fe530 2.077 . S
O556 C559 1.381 . S
O557 Fe528 1.935 . S
O557 C559 1.421 . S
C558 O546 1.381 . S
C558 O547 1.421 . S
C559 O556 1.381 . S
C559 O557 1.421 . S
Fe560 O561 1.886 . S
Fe560 O564 1.715 . S
Fe560 O569 2.077 . S
Fe560 O574 1.935 . S
Fe560 O580 2.077 . S
Fe560 O589 1.935 . S
O561 Fe560 1.886 . S
O561 Fe563 1.715 . S
Fe562 O564 1.886 . S
Fe562 O565 1.715 . S
Fe562 O572 1.935 . S
Fe562 O573 2.077 . S
Fe562 O579 1.935 . S
Fe562 O588 2.077 . S
Fe563 O561 1.715 . S
Fe563 O566 1.886 . S
Fe563 O570 1.935 . S
Fe563 O575 2.077 . S
Fe563 O581 1.935 . S
Fe563 O585 2.077 . S
O564 Fe560 1.715 . S
O564 Fe562 1.886 . S
O565 Fe562 1.715 . S
O565 Fe567 1.886 . S
O566 Fe563 1.886 . S
O566 Fe567 1.715 . S
Fe567 O565 1.886 . S
Fe567 O566 1.715 . S
Fe567 O571 2.077 . S
Fe567 O576 1.935 . S
Fe567 O578 2.077 . S
Fe567 O586 1.935 . S
C568 O580 1.381 . S
C568 O581 1.421 . S
O569 Fe560 2.077 . S
O569 C582 1.381 . S
O570 Fe563 1.935 . S
O570 C582 1.421 . S
O571 Fe567 2.077 . S
O571 C587 1.381 . S
O572 Fe562 1.935 . S
O572 C587 1.421 . S
O573 Fe562 2.077 . S
O573 C577 1.381 . S
O574 Fe560 1.935 . S
O574 C577 1.421 . S
O575 Fe563 2.077 . S
O575 C583 1.381 . S
O576 Fe567 1.935 . S
O576 C583 1.421 . S
C577 O573 1.381 . S
C577 O574 1.421 . S
O578 Fe567 2.077 . S
O578 C590 1.381 . S
O579 Fe562 1.935 . S
O579 C590 1.421 . S
O580 Fe560 2.077 . S
O580 C568 1.381 . S
O581 Fe563 1.935 . S
O581 C568 1.421 . S
C582 O569 1.381 . S
C582 O570 1.421 . S
C583 O575 1.381 . S
C583 O576 1.421 . S
C584 O585 1.381 . S
C584 O586 1.421 . S
O585 Fe563 2.077 . S
O585 C584 1.381 . S
O586 Fe567 1.935 . S
O586 C584 1.421 . S
C587 O571 1.381 . S
C587 O572 1.421 . S
O588 Fe562 2.077 . S
O588 C591 1.381 . S
O589 Fe560 1.935 . S
O589 C591 1.421 . S
C590 O578 1.381 . S
C590 O579 1.421 . S
C591 O588 1.381 . S
C591 O589 1.421 . S
Fe592 O593 1.886 . S
Fe592 O596 1.715 . S
Fe592 O601 2.077 1_455 S
Fe592 O606 1.935 1_455 S
Fe592 O612 2.077 . S
Fe592 O621 1.935 . S
O593 Fe592 1.886 . S
O593 Fe595 1.715 . S
Fe594 O596 1.886 . S
Fe594 O597 1.715 . S
Fe594 O604 1.935 1_455 S
Fe594 O605 2.077 1_455 S
Fe594 O611 1.935 . S
Fe594 O620 2.077 . S
Fe595 O593 1.715 . S
Fe595 O598 1.886 . S
Fe595 O602 1.935 1_455 S
Fe595 O607 2.077 1_455 S
Fe595 O613 1.935 . S
Fe595 O617 2.077 . S
O596 Fe592 1.715 . S
O596 Fe594 1.886 . S
O597 Fe594 1.715 . S
O597 Fe599 1.886 . S
O598 Fe595 1.886 . S
O598 Fe599 1.715 . S
Fe599 O597 1.886 . S
Fe599 O598 1.715 . S
Fe599 O603 2.077 1_455 S
Fe599 O608 1.935 1_455 S
Fe599 O610 2.077 . S
Fe599 O618 1.935 . S
C600 O612 1.381 . S
C600 O613 1.421 . S
O601 Fe592 2.077 1_655 S
O601 C614 1.381 . S
O602 Fe595 1.935 1_655 S
O602 C614 1.421 . S
O603 Fe599 2.077 1_655 S
O603 C619 1.381 . S
O604 Fe594 1.935 1_655 S
O604 C619 1.421 . S
O605 Fe594 2.077 1_655 S
O605 C609 1.381 . S
O606 Fe592 1.935 1_655 S
O606 C609 1.421 . S
O607 Fe595 2.077 1_655 S
O607 C615 1.381 . S
O608 Fe599 1.935 1_655 S
O608 C615 1.421 . S
C609 O605 1.381 . S
C609 O606 1.421 . S
O610 Fe599 2.077 . S
O610 C622 1.381 . S
O611 Fe594 1.935 . S
O611 C622 1.421 . S
O612 Fe592 2.077 . S
O612 C600 1.381 . S
O613 Fe595 1.935 . S
O613 C600 1.421 . S
C614 O601 1.381 . S
C614 O602 1.421 . S
C615 O607 1.381 . S
C615 O608 1.421 . S
C616 O617 1.381 . S
C616 O618 1.421 . S
O617 Fe595 2.077 . S
O617 C616 1.381 . S
O618 Fe599 1.935 . S
O618 C616 1.421 . S
C619 O603 1.381 . S
C619 O604 1.421 . S
O620 Fe594 2.077 . S
O620 C623 1.381 . S
O621 Fe592 1.935 . S
O621 C623 1.421 . S
C622 O610 1.381 . S
C622 O611 1.421 . S
C623 O620 1.381 . S
C623 O621 1.421 . S
H624 C630 0.930 . S
H625 C634 0.930 . S
H626 C639 0.929 . S
H627 C637 0.929 . S
H628 C632 0.929 . S
H629 C638 0.929 . S
C630 H624 0.930 . S
C630 C631 1.367 . S
C630 C638 1.378 . S
C631 C630 1.367 . S
C631 C639 1.433 . S
C632 H628 0.929 . S
C632 C634 1.378 . S
C632 C636 1.350 . S
C633 C636 1.463 . S
C633 C638 1.350 . S
C633 N641 1.427 . S
C634 H625 0.930 . S
C634 C632 1.378 . S
C634 C635 1.367 . S
C635 C634 1.367 . S
C635 C637 1.433 . S
C636 C632 1.350 . S
C636 C633 1.463 . S
C636 N640 1.427 . S
C637 H627 0.929 . S
C637 C635 1.433 . S
C637 N640 1.384 . S
C638 H629 0.929 . S
C638 C630 1.378 . S
C638 C633 1.350 . S
C639 H626 0.929 . S
C639 C631 1.433 . S
C639 N641 1.384 . S
N640 C636 1.427 . S
N640 C637 1.384 . S
N641 C633 1.427 . S
N641 C639 1.384 . S
H642 C648 0.930 . S
H643 C652 0.930 . S
H644 C657 0.929 1_565 S
H645 C655 0.929 . S
H646 C650 0.929 . S
H647 C656 0.929 . S
C648 H642 0.930 . S
C648 C649 1.367 . S
C648 C656 1.378 . S
C649 C648 1.367 . S
C649 C657 1.433 . S
C650 H646 0.929 . S
C650 C652 1.378 . S
C650 C654 1.350 . S
C651 C654 1.463 . S
C651 C656 1.350 . S
C651 N659 1.427 . S
C652 H643 0.930 . S
C652 C650 1.378 . S
C652 C653 1.367 . S
C653 C652 1.367 . S
C653 C655 1.433 . S
C654 C650 1.350 . S
C654 C651 1.463 . S
C654 N658 1.427 . S
C655 H645 0.929 . S
C655 C653 1.433 . S
C655 N658 1.384 . S
C656 H647 0.929 . S
C656 C648 1.378 . S
C656 C651 1.350 . S
C657 H644 0.929 1_545 S
C657 C649 1.433 . S
C657 N659 1.384 . S
N658 C654 1.427 . S
N658 C655 1.384 . S
N659 C651 1.427 . S
N659 C657 1.384 . S
H660 C666 0.930 . S
H661 C670 0.930 . S
H662 C675 0.929 . S
H663 C673 0.929 . S
H664 C668 0.929 . S
H665 C674 0.929 . S
C666 H660 0.930 . S
C666 C667 1.367 . S
C666 C674 1.378 . S
C667 C666 1.367 . S
C667 C675 1.433 . S
C668 H664 0.929 . S
C668 C670 1.378 . S
C668 C672 1.350 . S
C669 C672 1.463 . S
C669 C674 1.350 . S
C669 N677 1.427 . S
C670 H661 0.930 . S
C670 C668 1.378 . S
C670 C671 1.367 . S
C671 C670 1.367 . S
C671 C673 1.433 . S
C672 C668 1.350 . S
C672 C669 1.463 . S
C672 N676 1.427 . S
C673 H663 0.929 . S
C673 C671 1.433 . S
C673 N676 1.384 . S
C674 H665 0.929 . S
C674 C666 1.378 . S
C674 C669 1.350 . S
C675 H662 0.929 . S
C675 C667 1.433 . S
C675 N677 1.384 . S
N676 C672 1.427 . S
N676 C673 1.384 . S
N677 C669 1.427 . S
N677 C675 1.384 . S
H678 C684 0.930 . S
H679 C688 0.930 . S
H680 C693 0.929 . S
H681 C691 0.929 . S
H682 C686 0.929 . S
H683 C692 0.929 . S
C684 H678 0.930 . S
C684 C685 1.367 1_565 S
C684 C692 1.378 . S
C685 C684 1.367 1_545 S
C685 C693 1.433 . S
C686 H682 0.929 . S
C686 C688 1.378 . S
C686 C690 1.350 . S
C687 C690 1.463 . S
C687 C692 1.350 . S
C687 N695 1.427 . S
C688 H679 0.930 . S
C688 C686 1.378 . S
C688 C689 1.367 . S
C689 C688 1.367 . S
C689 C691 1.433 . S
C690 C686 1.350 . S
C690 C687 1.463 . S
C690 N694 1.427 . S
C691 H681 0.929 . S
C691 C689 1.433 . S
C691 N694 1.384 . S
C692 H683 0.929 . S
C692 C684 1.378 . S
C692 C687 1.350 . S
C693 H680 0.929 . S
C693 C685 1.433 . S
C693 N695 1.384 1_545 S
N694 C690 1.427 . S
N694 C691 1.384 . S
N695 C687 1.427 . S
N695 C693 1.384 1_565 S
H696 C702 0.930 . S
H697 C706 0.930 . S
H698 C711 0.929 . S
H699 C709 0.929 . S
H700 C704 0.929 . S
H701 C710 0.929 . S
C702 H696 0.930 . S
C702 C703 1.367 . S
C702 C710 1.378 . S
C703 C702 1.367 . S
C703 C711 1.433 . S
C704 H700 0.929 . S
C704 C706 1.378 . S
C704 C708 1.350 . S
C705 C708 1.463 . S
C705 C710 1.350 . S
C705 N713 1.427 . S
C706 H697 0.930 . S
C706 C704 1.378 . S
C706 C707 1.367 . S
C707 C706 1.367 . S
C707 C709 1.433 . S
C708 C704 1.350 . S
C708 C705 1.463 . S
C708 N712 1.427 . S
C709 H699 0.929 . S
C709 C707 1.433 . S
C709 N712 1.384 . S
C710 H701 0.929 . S
C710 C702 1.378 . S
C710 C705 1.350 . S
C711 H698 0.929 . S
C711 C703 1.433 . S
C711 N713 1.384 . S
N712 C708 1.427 . S
N712 C709 1.384 . S
N713 C705 1.427 . S
N713 C711 1.384 . S
H714 C720 0.930 . S
H715 C724 0.930 . S
H716 C729 0.929 . S
H717 C727 0.929 . S
H718 C722 0.929 . S
H719 C728 0.929 . S
C720 H714 0.930 . S
C720 C721 1.367 1_545 S
C720 C728 1.378 . S
C721 C720 1.367 1_565 S
C721 C729 1.433 . S
C722 H718 0.929 . S
C722 C724 1.378 . S
C722 C726 1.350 . S
C723 C726 1.463 . S
C723 C728 1.350 . S
C723 N731 1.427 . S
C724 H715 0.930 . S
C724 C722 1.378 . S
C724 C725 1.367 . S
C725 C724 1.367 . S
C725 C727 1.433 . S
C726 C722 1.350 . S
C726 C723 1.463 . S
C726 N730 1.427 . S
C727 H717 0.929 . S
C727 C725 1.433 . S
C727 N730 1.384 . S
C728 H719 0.929 . S
C728 C720 1.378 . S
C728 C723 1.350 . S
C729 H716 0.929 . S
C729 C721 1.433 . S
C729 N731 1.384 1_565 S
N730 C726 1.427 . S
N730 C727 1.384 . S
N731 C723 1.427 . S
N731 C729 1.384 1_545 S
H732 C738 0.930 . S
H733 C742 0.930 . S
H734 C747 0.929 . S
H735 C745 0.929 . S
H736 C740 0.929 . S
H737 C746 0.929 . S
C738 H732 0.930 . S
C738 C739 1.367 . S
C738 C746 1.378 . S
C739 C738 1.367 . S
C739 C747 1.433 . S
C740 H736 0.929 . S
C740 C742 1.378 . S
C740 C744 1.350 . S
C741 C744 1.463 . S
C741 C746 1.350 . S
C741 N749 1.427 . S
C742 H733 0.930 . S
C742 C740 1.378 . S
C742 C743 1.367 . S
C743 C742 1.367 . S
C743 C745 1.433 . S
C744 C740 1.350 . S
C744 C741 1.463 . S
C744 N748 1.427 . S
C745 H735 0.929 . S
C745 C743 1.433 . S
C745 N748 1.384 . S
C746 H737 0.929 . S
C746 C738 1.378 . S
C746 C741 1.350 . S
C747 H734 0.929 . S
C747 C739 1.433 . S
C747 N749 1.384 . S
N748 C744 1.427 . S
N748 C745 1.384 . S
N749 C741 1.427 . S
N749 C747 1.384 . S
H750 C756 0.930 . S
H751 C760 0.930 . S
H752 C765 0.929 . S
H753 C763 0.929 . S
H754 C758 0.929 . S
H755 C764 0.929 . S
C756 H750 0.930 . S
C756 C757 1.367 . S
C756 C764 1.378 1_545 S
C757 C756 1.367 . S
C757 C765 1.433 . S
C758 H754 0.929 . S
C758 C760 1.378 . S
C758 C762 1.350 . S
C759 C762 1.463 . S
C759 C764 1.350 . S
C759 N767 1.427 . S
C760 H751 0.930 . S
C760 C758 1.378 . S
C760 C761 1.367 . S
C761 C760 1.367 . S
C761 C763 1.433 . S
C762 C758 1.350 . S
C762 C759 1.463 . S
C762 N766 1.427 . S
C763 H753 0.929 . S
C763 C761 1.433 . S
C763 N766 1.384 . S
C764 H755 0.929 . S
C764 C756 1.378 1_565 S
C764 C759 1.350 . S
C765 H752 0.929 . S
C765 C757 1.433 . S
C765 N767 1.384 1_545 S
N766 C762 1.427 . S
N766 C763 1.384 . S
N767 C759 1.427 . S
N767 C765 1.384 1_565 S
H768 C774 0.930 . S
H769 C778 0.930 . S
H770 C783 0.929 . S
H771 C781 0.929 . S
H772 C776 0.929 . S
H773 C782 0.929 . S
C774 H768 0.930 . S
C774 C775 1.367 . S
C774 C782 1.378 . S
C775 C774 1.367 . S
C775 C783 1.433 . S
C776 H772 0.929 . S
C776 C778 1.378 . S
C776 C780 1.350 . S
C777 C780 1.463 . S
C777 C782 1.350 . S
C777 N785 1.427 . S
C778 H769 0.930 . S
C778 C776 1.378 . S
C778 C779 1.367 . S
C779 C778 1.367 . S
C779 C781 1.433 . S
C780 C776 1.350 . S
C780 C777 1.463 . S
C780 N784 1.427 . S
C781 H771 0.929 . S
C781 C779 1.433 . S
C781 N784 1.384 . S
C782 H773 0.929 . S
C782 C774 1.378 . S
C782 C777 1.350 . S
C783 H770 0.929 . S
C783 C775 1.433 . S
C783 N785 1.384 . S
N784 C780 1.427 . S
N784 C781 1.384 . S
N785 C777 1.427 . S
N785 C783 1.384 . S
H786 C792 0.930 . S
H787 C796 0.930 . S
H788 C801 0.929 . S
H789 C799 0.929 . S
H790 C794 0.929 . S
H791 C800 0.929 . S
C792 H786 0.930 . S
C792 C793 1.367 . S
C792 C800 1.378 . S
C793 C792 1.367 . S
C793 C801 1.433 1_545 S
C794 H790 0.929 . S
C794 C796 1.378 . S
C794 C798 1.350 . S
C795 C798 1.463 . S
C795 C800 1.350 1_565 S
C795 N803 1.427 . S
C796 H787 0.930 . S
C796 C794 1.378 . S
C796 C797 1.367 . S
C797 C796 1.367 . S
C797 C799 1.433 . S
C798 C794 1.350 . S
C798 C795 1.463 . S
C798 N802 1.427 . S
C799 H789 0.929 . S
C799 C797 1.433 . S
C799 N802 1.384 . S
C800 H791 0.929 . S
C800 C792 1.378 . S
C800 C795 1.350 1_545 S
C801 H788 0.929 . S
C801 C793 1.433 1_565 S
C801 N803 1.384 . S
N802 C798 1.427 . S
N802 C799 1.384 . S
N803 C795 1.427 . S
N803 C801 1.384 . S
H804 C810 0.930 . S
H805 C814 0.930 . S
H806 C819 0.929 . S
H807 C817 0.929 . S
H808 C812 0.929 . S
H809 C818 0.929 . S
C810 H804 0.930 . S
C810 C811 1.367 . S
C810 C818 1.378 . S
C811 C810 1.367 . S
C811 C819 1.433 . S
C812 H808 0.929 . S
C812 C814 1.378 . S
C812 C816 1.350 . S
C813 C816 1.463 . S
C813 C818 1.350 . S
C813 N821 1.427 . S
C814 H805 0.930 . S
C814 C812 1.378 . S
C814 C815 1.367 . S
C815 C814 1.367 . S
C815 C817 1.433 . S
C816 C812 1.350 . S
C816 C813 1.463 . S
C816 N820 1.427 . S
C817 H807 0.929 . S
C817 C815 1.433 . S
C817 N820 1.384 . S
C818 H809 0.929 . S
C818 C810 1.378 . S
C818 C813 1.350 . S
C819 H806 0.929 . S
C819 C811 1.433 . S
C819 N821 1.384 . S
N820 C816 1.427 . S
N820 C817 1.384 . S
N821 C813 1.427 . S
N821 C819 1.384 . S
H822 C828 0.930 . S
H823 C832 0.930 . S
H824 C837 0.929 . S
H825 C835 0.929 . S
H826 C830 0.929 . S
H827 C836 0.929 . S
C828 H822 0.930 . S
C828 C829 1.367 1_545 S
C828 C836 1.378 . S
C829 C828 1.367 1_565 S
C829 C837 1.433 . S
C830 H826 0.929 . S
C830 C832 1.378 . S
C830 C834 1.350 . S
C831 C834 1.463 . S
C831 C836 1.350 . S
C831 N839 1.427 . S
C832 H823 0.930 . S
C832 C830 1.378 . S
C832 C833 1.367 . S
C833 C832 1.367 . S
C833 C835 1.433 . S
C834 C830 1.350 . S
C834 C831 1.463 . S
C834 N838 1.427 . S
C835 H825 0.929 . S
C835 C833 1.433 . S
C835 N838 1.384 . S
C836 H827 0.929 . S
C836 C828 1.378 . S
C836 C831 1.350 . S
C837 H824 0.929 . S
C837 C829 1.433 . S
C837 N839 1.384 1_565 S
N838 C834 1.427 . S
N838 C835 1.384 . S
N839 C831 1.427 . S
N839 C837 1.384 1_545 S
H840 C846 0.930 . S
H841 C850 0.930 . S
H842 C855 0.929 . S
H843 C853 0.929 . S
H844 C848 0.929 . S
H845 C854 0.929 . S
C846 H840 0.930 . S
C846 C847 1.367 . S
C846 C854 1.378 . S
C847 C846 1.367 . S
C847 C855 1.433 . S
C848 H844 0.929 . S
C848 C850 1.378 . S
C848 C852 1.350 . S
C849 C852 1.463 . S
C849 C854 1.350 . S
C849 N857 1.427 . S
C850 H841 0.930 . S
C850 C848 1.378 . S
C850 C851 1.367 . S
C851 C850 1.367 . S
C851 C853 1.433 . S
C852 C848 1.350 . S
C852 C849 1.463 . S
C852 N856 1.427 . S
C853 H843 0.929 . S
C853 C851 1.433 . S
C853 N856 1.384 . S
C854 H845 0.929 . S
C854 C846 1.378 . S
C854 C849 1.350 . S
C855 H842 0.929 . S
C855 C847 1.433 . S
C855 N857 1.384 . S
N856 C852 1.427 . S
N856 C853 1.384 . S
N857 C849 1.427 . S
N857 C855 1.384 . S
H858 C864 0.930 1_545 S
H859 C868 0.930 . S
H860 C873 0.929 . S
H861 C871 0.929 . S
H862 C866 0.929 . S
H863 C872 0.929 . S
C864 H858 0.930 1_565 S
C864 C865 1.367 1_565 S
C864 C872 1.378 . S
C865 C864 1.367 1_545 S
C865 C873 1.433 1_545 S
C866 H862 0.929 . S
C866 C868 1.378 . S
C866 C870 1.350 . S
C867 C870 1.463 . S
C867 C872 1.350 . S
C867 N875 1.427 . S
C868 H859 0.930 . S
C868 C866 1.378 . S
C868 C869 1.367 . S
C869 C868 1.367 . S
C869 C871 1.433 . S
C870 C866 1.350 . S
C870 C867 1.463 . S
C870 N874 1.427 . S
C871 H861 0.929 . S
C871 C869 1.433 . S
C871 N874 1.384 . S
C872 H863 0.929 . S
C872 C864 1.378 . S
C872 C867 1.350 . S
C873 H860 0.929 . S
C873 C865 1.433 1_565 S
C873 N875 1.384 . S
N874 C870 1.427 . S
N874 C871 1.384 . S
N875 C867 1.427 . S
N875 C873 1.384 . S
H876 C882 0.930 . S
H877 C886 0.930 . S
H878 C891 0.929 . S
H879 C889 0.929 . S
H880 C884 0.929 . S
H881 C890 0.929 . S
C882 H876 0.930 . S
C882 C883 1.367 . S
C882 C890 1.378 . S
C883 C882 1.367 . S
C883 C891 1.433 . S
C884 H880 0.929 . S
C884 C886 1.378 . S
C884 C888 1.350 . S
C885 C888 1.463 . S
C885 C890 1.350 . S
C885 N893 1.427 . S
C886 H877 0.930 . S
C886 C884 1.378 . S
C886 C887 1.367 . S
C887 C886 1.367 . S
C887 C889 1.433 . S
C888 C884 1.350 . S
C888 C885 1.463 . S
C888 N892 1.427 . S
C889 H879 0.929 . S
C889 C887 1.433 . S
C889 N892 1.384 . S
C890 H881 0.929 . S
C890 C882 1.378 . S
C890 C885 1.350 . S
C891 H878 0.929 . S
C891 C883 1.433 . S
C891 N893 1.384 . S
N892 C888 1.427 . S
N892 C889 1.384 . S
N893 C885 1.427 . S
N893 C891 1.384 . S
H894 C900 0.930 . S
H895 C904 0.930 . S
H896 C909 0.929 . S
H897 C907 0.929 . S
H898 C902 0.929 . S
H899 C908 0.929 . S
C900 H894 0.930 . S
C900 C901 1.367 . S
C900 C908 1.378 . S
C901 C900 1.367 . S
C901 C909 1.433 . S
C902 H898 0.929 . S
C902 C904 1.378 . S
C902 C906 1.350 . S
C903 C906 1.463 . S
C903 C908 1.350 . S
C903 N911 1.427 . S
C904 H895 0.930 . S
C904 C902 1.378 . S
C904 C905 1.367 . S
C905 C904 1.367 . S
C905 C907 1.433 . S
C906 C902 1.350 . S
C906 C903 1.463 . S
C906 N910 1.427 . S
C907 H897 0.929 . S
C907 C905 1.433 . S
C907 N910 1.384 . S
C908 H899 0.929 . S
C908 C900 1.378 . S
C908 C903 1.350 . S
C909 H896 0.929 . S
C909 C901 1.433 . S
C909 N911 1.384 . S
N910 C906 1.427 . S
N910 C907 1.384 . S
N911 C903 1.427 . S
N911 C909 1.384 . S
H912 C918 0.930 . S
H913 C922 0.930 . S
H914 C927 0.929 . S
H915 C925 0.929 . S
H916 C920 0.929 . S
H917 C926 0.929 . S
C918 H912 0.930 . S
C918 C919 1.367 . S
C918 C926 1.378 . S
C919 C918 1.367 . S
C919 C927 1.433 . S
C920 H916 0.929 . S
C920 C922 1.378 . S
C920 C924 1.350 . S
C921 C924 1.463 . S
C921 C926 1.350 . S
C921 N929 1.427 . S
C922 H913 0.930 . S
C922 C920 1.378 . S
C922 C923 1.367 . S
C923 C922 1.367 . S
C923 C925 1.433 . S
C924 C920 1.350 . S
C924 C921 1.463 . S
C924 N928 1.427 . S
C925 H915 0.929 . S
C925 C923 1.433 . S
C925 N928 1.384 . S
C926 H917 0.929 . S
C926 C918 1.378 . S
C926 C921 1.350 . S
C927 H914 0.929 . S
C927 C919 1.433 . S
C927 N929 1.384 . S
N928 C924 1.427 . S
N928 C925 1.384 . S
N929 C921 1.427 . S
N929 C927 1.384 . S
H930 C936 0.930 . S
H931 C940 0.930 . S
H932 C945 0.929 . S
H933 C943 0.929 . S
H934 C938 0.929 . S
H935 C944 0.929 . S
C936 H930 0.930 . S
C936 C937 1.367 . S
C936 C944 1.378 . S
C937 C936 1.367 . S
C937 C945 1.433 . S
C938 H934 0.929 . S
C938 C940 1.378 . S
C938 C942 1.350 . S
C939 C942 1.463 . S
C939 C944 1.350 . S
C939 N947 1.427 . S
C940 H931 0.930 . S
C940 C938 1.378 . S
C940 C941 1.367 . S
C941 C940 1.367 . S
C941 C943 1.433 . S
C942 C938 1.350 . S
C942 C939 1.463 . S
C942 N946 1.427 . S
C943 H933 0.929 . S
C943 C941 1.433 . S
C943 N946 1.384 . S
C944 H935 0.929 . S
C944 C936 1.378 . S
C944 C939 1.350 . S
C945 H932 0.929 . S
C945 C937 1.433 . S
C945 N947 1.384 . S
N946 C942 1.427 . S
N946 C943 1.384 . S
N947 C939 1.427 . S
N947 C945 1.384 . S
H948 C954 0.930 . S
H949 C958 0.930 . S
H950 C963 0.929 . S
H951 C961 0.929 . S
H952 C956 0.929 . S
H953 C962 0.929 . S
C954 H948 0.930 . S
C954 C955 1.367 . S
C954 C962 1.378 . S
C955 C954 1.367 . S
C955 C963 1.433 . S
C956 H952 0.929 . S
C956 C958 1.378 . S
C956 C960 1.350 . S
C957 C960 1.463 . S
C957 C962 1.350 . S
C957 N965 1.427 . S
C958 H949 0.930 . S
C958 C956 1.378 . S
C958 C959 1.367 . S
C959 C958 1.367 . S
C959 C961 1.433 . S
C960 C956 1.350 . S
C960 C957 1.463 . S
C960 N964 1.427 . S
C961 H951 0.929 . S
C961 C959 1.433 . S
C961 N964 1.384 . S
C962 H953 0.929 . S
C962 C954 1.378 . S
C962 C957 1.350 . S
C963 H950 0.929 . S
C963 C955 1.433 . S
C963 N965 1.384 . S
N964 C960 1.427 . S
N964 C961 1.384 . S
N965 C957 1.427 . S
N965 C963 1.384 . S
H966 C972 0.930 . S
H967 C976 0.930 . S
H968 C981 0.929 . S
H969 C979 0.929 . S
H970 C974 0.929 . S
H971 C980 0.929 . S
C972 H966 0.930 . S
C972 C973 1.367 . S
C972 C980 1.378 . S
C973 C972 1.367 . S
C973 C981 1.433 . S
C974 H970 0.929 . S
C974 C976 1.378 . S
C974 C978 1.350 . S
C975 C978 1.463 . S
C975 C980 1.350 . S
C975 N983 1.427 . S
C976 H967 0.930 . S
C976 C974 1.378 . S
C976 C977 1.367 . S
C977 C976 1.367 . S
C977 C979 1.433 . S
C978 C974 1.350 . S
C978 C975 1.463 . S
C978 N982 1.427 . S
C979 H969 0.929 . S
C979 C977 1.433 . S
C979 N982 1.384 . S
C980 H971 0.929 . S
C980 C972 1.378 . S
C980 C975 1.350 . S
C981 H968 0.929 . S
C981 C973 1.433 . S
C981 N983 1.384 . S
N982 C978 1.427 . S
N982 C979 1.384 . S
N983 C975 1.427 . S
N983 C981 1.384 . S
H984 C990 0.930 . S
H985 C994 0.930 . S
H986 C999 0.929 . S
H987 C997 0.929 . S
H988 C992 0.929 . S
H989 C998 0.929 . S
C990 H984 0.930 . S
C990 C991 1.367 . S
C990 C998 1.378 . S
C991 C990 1.367 . S
C991 C999 1.433 . S
C992 H988 0.929 . S
C992 C994 1.378 . S
C992 C996 1.350 . S
C993 C996 1.463 . S
C993 C998 1.350 . S
C993 N1001 1.427 . S
C994 H985 0.930 . S
C994 C992 1.378 . S
C994 C995 1.367 . S
C995 C994 1.367 . S
C995 C997 1.433 . S
C996 C992 1.350 . S
C996 C993 1.463 . S
C996 N1000 1.427 . S
C997 H987 0.929 . S
C997 C995 1.433 . S
C997 N1000 1.384 . S
C998 H989 0.929 . S
C998 C990 1.378 . S
C998 C993 1.350 . S
C999 H986 0.929 . S
C999 C991 1.433 . S
C999 N1001 1.384 . S
N1000 C996 1.427 . S
N1000 C997 1.384 . S
N1001 C993 1.427 . S
N1001 C999 1.384 . S
H1002 C1008 0.930 . S
H1003 C1012 0.930 . S
H1004 C1017 0.929 . S
H1005 C1015 0.929 . S
H1006 C1010 0.929 . S
H1007 C1016 0.929 . S
C1008 H1002 0.930 . S
C1008 C1009 1.367 . S
C1008 C1016 1.378 . S
C1009 C1008 1.367 . S
C1009 C1017 1.433 . S
C1010 H1006 0.929 . S
C1010 C1012 1.378 . S
C1010 C1014 1.350 . S
C1011 C1014 1.463 . S
C1011 C1016 1.350 . S
C1011 N1019 1.427 . S
C1012 H1003 0.930 . S
C1012 C1010 1.378 . S
C1012 C1013 1.367 . S
C1013 C1012 1.367 . S
C1013 C1015 1.433 . S
C1014 C1010 1.350 . S
C1014 C1011 1.463 . S
C1014 N1018 1.427 . S
C1015 H1005 0.929 . S
C1015 C1013 1.433 . S
C1015 N1018 1.384 . S
C1016 H1007 0.929 . S
C1016 C1008 1.378 . S
C1016 C1011 1.350 . S
C1017 H1004 0.929 . S
C1017 C1009 1.433 . S
C1017 N1019 1.384 . S
N1018 C1014 1.427 . S
N1018 C1015 1.384 . S
N1019 C1011 1.427 . S
N1019 C1017 1.384 . S
H1020 C1026 0.930 . S
H1021 C1030 0.930 . S
H1022 C1035 0.929 . S
H1023 C1033 0.929 . S
H1024 C1028 0.929 . S
H1025 C1034 0.929 . S
C1026 H1020 0.930 . S
C1026 C1027 1.367 . S
C1026 C1034 1.378 . S
C1027 C1026 1.367 . S
C1027 C1035 1.433 . S
C1028 H1024 0.929 . S
C1028 C1030 1.378 . S
C1028 C1032 1.350 . S
C1029 C1032 1.463 . S
C1029 C1034 1.350 . S
C1029 N1037 1.427 . S
C1030 H1021 0.930 . S
C1030 C1028 1.378 . S
C1030 C1031 1.367 . S
C1031 C1030 1.367 . S
C1031 C1033 1.433 . S
C1032 C1028 1.350 . S
C1032 C1029 1.463 . S
C1032 N1036 1.427 . S
C1033 H1023 0.929 . S
C1033 C1031 1.433 . S
C1033 N1036 1.384 . S
C1034 H1025 0.929 . S
C1034 C1026 1.378 . S
C1034 C1029 1.350 . S
C1035 H1022 0.929 . S
C1035 C1027 1.433 . S
C1035 N1037 1.384 . S
N1036 C1032 1.427 . S
N1036 C1033 1.384 . S
N1037 C1029 1.427 . S
N1037 C1035 1.384 . S
H1038 C1044 0.930 . S
H1039 C1048 0.930 . S
H1040 C1053 0.929 . S
H1041 C1051 0.929 . S
H1042 C1046 0.929 . S
H1043 C1052 0.929 . S
C1044 H1038 0.930 . S
C1044 C1045 1.367 . S
C1044 C1052 1.378 . S
C1045 C1044 1.367 . S
C1045 C1053 1.433 . S
C1046 H1042 0.929 . S
C1046 C1048 1.378 . S
C1046 C1050 1.350 . S
C1047 C1050 1.463 . S
C1047 C1052 1.350 . S
C1047 N1055 1.427 . S
C1048 H1039 0.930 . S
C1048 C1046 1.378 . S
C1048 C1049 1.367 . S
C1049 C1048 1.367 . S
C1049 C1051 1.433 . S
C1050 C1046 1.350 . S
C1050 C1047 1.463 . S
C1050 N1054 1.427 . S
C1051 H1041 0.929 . S
C1051 C1049 1.433 . S
C1051 N1054 1.384 . S
C1052 H1043 0.929 . S
C1052 C1044 1.378 . S
C1052 C1047 1.350 . S
C1053 H1040 0.929 . S
C1053 C1045 1.433 . S
C1053 N1055 1.384 . S
N1054 C1050 1.427 . S
N1054 C1051 1.384 . S
N1055 C1047 1.427 . S
N1055 C1053 1.384 . S
H1056 C1062 0.930 . S
H1057 C1066 0.930 . S
H1058 C1071 0.929 . S
H1059 C1069 0.929 . S
H1060 C1064 0.929 . S
H1061 C1070 0.929 . S
C1062 H1056 0.930 . S
C1062 C1063 1.367 . S
C1062 C1070 1.378 . S
C1063 C1062 1.367 . S
C1063 C1071 1.433 . S
C1064 H1060 0.929 . S
C1064 C1066 1.378 . S
C1064 C1068 1.350 . S
C1065 C1068 1.463 . S
C1065 C1070 1.350 . S
C1065 N1073 1.427 . S
C1066 H1057 0.930 . S
C1066 C1064 1.378 . S
C1066 C1067 1.367 . S
C1067 C1066 1.367 . S
C1067 C1069 1.433 . S
C1068 C1064 1.350 . S
C1068 C1065 1.463 . S
C1068 N1072 1.427 . S
C1069 H1059 0.929 . S
C1069 C1067 1.433 . S
C1069 N1072 1.384 . S
C1070 H1061 0.929 . S
C1070 C1062 1.378 . S
C1070 C1065 1.350 . S
C1071 H1058 0.929 . S
C1071 C1063 1.433 . S
C1071 N1073 1.384 . S
N1072 C1068 1.427 . S
N1072 C1069 1.384 . S
N1073 C1065 1.427 . S
N1073 C1071 1.384 . S
H1074 C1080 0.930 . S
H1075 C1084 0.930 . S
H1076 C1089 0.929 . S
H1077 C1087 0.929 . S
H1078 C1082 0.929 . S
H1079 C1088 0.929 . S
C1080 H1074 0.930 . S
C1080 C1081 1.367 . S
C1080 C1088 1.378 . S
C1081 C1080 1.367 . S
C1081 C1089 1.433 . S
C1082 H1078 0.929 . S
C1082 C1084 1.378 . S
C1082 C1086 1.350 . S
C1083 C1086 1.463 . S
C1083 C1088 1.350 . S
C1083 N1091 1.427 . S
C1084 H1075 0.930 . S
C1084 C1082 1.378 . S
C1084 C1085 1.367 . S
C1085 C1084 1.367 . S
C1085 C1087 1.433 . S
C1086 C1082 1.350 . S
C1086 C1083 1.463 . S
C1086 N1090 1.427 . S
C1087 H1077 0.929 . S
C1087 C1085 1.433 . S
C1087 N1090 1.384 . S
C1088 H1079 0.929 . S
C1088 C1080 1.378 . S
C1088 C1083 1.350 . S
C1089 H1076 0.929 . S
C1089 C1081 1.433 . S
C1089 N1091 1.384 . S
N1090 C1086 1.427 . S
N1090 C1087 1.384 . S
N1091 C1083 1.427 . S
N1091 C1089 1.384 . S
H1092 C1098 0.930 . S
H1093 C1102 0.930 . S
H1094 C1107 0.929 . S
H1095 C1105 0.929 . S
H1096 C1100 0.929 . S
H1097 C1106 0.929 . S
C1098 H1092 0.930 . S
C1098 C1099 1.367 . S
C1098 C1106 1.378 . S
C1099 C1098 1.367 . S
C1099 C1107 1.433 . S
C1100 H1096 0.929 . S
C1100 C1102 1.378 . S
C1100 C1104 1.350 . S
C1101 C1104 1.463 . S
C1101 C1106 1.350 . S
C1101 N1109 1.427 . S
C1102 H1093 0.930 . S
C1102 C1100 1.378 . S
C1102 C1103 1.367 . S
C1103 C1102 1.367 . S
C1103 C1105 1.433 . S
C1104 C1100 1.350 . S
C1104 C1101 1.463 . S
C1104 N1108 1.427 . S
C1105 H1095 0.929 . S
C1105 C1103 1.433 . S
C1105 N1108 1.384 . S
C1106 H1097 0.929 . S
C1106 C1098 1.378 . S
C1106 C1101 1.350 . S
C1107 H1094 0.929 . S
C1107 C1099 1.433 . S
C1107 N1109 1.384 . S
N1108 C1104 1.427 . S
N1108 C1105 1.384 . S
N1109 C1101 1.427 . S
N1109 C1107 1.384 . S
H1110 C1116 0.930 . S
H1111 C1120 0.930 . S
H1112 C1125 0.929 . S
H1113 C1123 0.929 . S
H1114 C1118 0.929 . S
H1115 C1124 0.929 . S
C1116 H1110 0.930 . S
C1116 C1117 1.367 . S
C1116 C1124 1.378 . S
C1117 C1116 1.367 . S
C1117 C1125 1.433 . S
C1118 H1114 0.929 . S
C1118 C1120 1.378 . S
C1118 C1122 1.350 . S
C1119 C1122 1.463 . S
C1119 C1124 1.350 . S
C1119 N1127 1.427 . S
C1120 H1111 0.930 . S
C1120 C1118 1.378 . S
C1120 C1121 1.367 . S
C1121 C1120 1.367 . S
C1121 C1123 1.433 . S
C1122 C1118 1.350 . S
C1122 C1119 1.463 . S
C1122 N1126 1.427 . S
C1123 H1113 0.929 . S
C1123 C1121 1.433 . S
C1123 N1126 1.384 . S
C1124 H1115 0.929 . S
C1124 C1116 1.378 . S
C1124 C1119 1.350 . S
C1125 H1112 0.929 . S
C1125 C1117 1.433 . S
C1125 N1127 1.384 . S
N1126 C1122 1.427 . S
N1126 C1123 1.384 . S
N1127 C1119 1.427 . S
N1127 C1125 1.384 . S
H1128 C1134 0.930 . S
H1129 C1138 0.930 . S
H1130 C1143 0.929 . S
H1131 C1141 0.929 . S
H1132 C1136 0.929 . S
H1133 C1142 0.929 . S
C1134 H1128 0.930 . S
C1134 C1135 1.367 . S
C1134 C1142 1.378 . S
C1135 C1134 1.367 . S
C1135 C1143 1.433 . S
C1136 H1132 0.929 . S
C1136 C1138 1.378 . S
C1136 C1140 1.350 . S
C1137 C1140 1.463 . S
C1137 C1142 1.350 . S
C1137 N1145 1.427 . S
C1138 H1129 0.930 . S
C1138 C1136 1.378 . S
C1138 C1139 1.367 . S
C1139 C1138 1.367 . S
C1139 C1141 1.433 . S
C1140 C1136 1.350 . S
C1140 C1137 1.463 . S
C1140 N1144 1.427 . S
C1141 H1131 0.929 . S
C1141 C1139 1.433 . S
C1141 N1144 1.384 . S
C1142 H1133 0.929 . S
C1142 C1134 1.378 . S
C1142 C1137 1.350 . S
C1143 H1130 0.929 . S
C1143 C1135 1.433 . S
C1143 N1145 1.384 . S
N1144 C1140 1.427 . S
N1144 C1141 1.384 . S
N1145 C1137 1.427 . S
N1145 C1143 1.384 . S
H1146 C1152 0.930 . S
H1147 C1156 0.930 . S
H1148 C1161 0.929 . S
H1149 C1159 0.929 . S
H1150 C1154 0.929 . S
H1151 C1160 0.929 . S
C1152 H1146 0.930 . S
C1152 C1153 1.367 . S
C1152 C1160 1.378 . S
C1153 C1152 1.367 . S
C1153 C1161 1.433 . S
C1154 H1150 0.929 . S
C1154 C1156 1.378 . S
C1154 C1158 1.350 . S
C1155 C1158 1.463 . S
C1155 C1160 1.350 . S
C1155 N1163 1.427 . S
C1156 H1147 0.930 . S
C1156 C1154 1.378 . S
C1156 C1157 1.367 . S
C1157 C1156 1.367 . S
C1157 C1159 1.433 . S
C1158 C1154 1.350 . S
C1158 C1155 1.463 . S
C1158 N1162 1.427 . S
C1159 H1149 0.929 . S
C1159 C1157 1.433 . S
C1159 N1162 1.384 . S
C1160 H1151 0.929 . S
C1160 C1152 1.378 . S
C1160 C1155 1.350 . S
C1161 H1148 0.929 . S
C1161 C1153 1.433 . S
C1161 N1163 1.384 . S
N1162 C1158 1.427 . S
N1162 C1159 1.384 . S
N1163 C1155 1.427 . S
N1163 C1161 1.384 . S
H1164 C1170 0.930 . S
H1165 C1174 0.930 . S
H1166 C1179 0.929 . S
H1167 C1177 0.929 . S
H1168 C1172 0.929 . S
H1169 C1178 0.929 . S
C1170 H1164 0.930 . S
C1170 C1171 1.367 . S
C1170 C1178 1.378 . S
C1171 C1170 1.367 . S
C1171 C1179 1.433 . S
C1172 H1168 0.929 . S
C1172 C1174 1.378 . S
C1172 C1176 1.350 . S
C1173 C1176 1.463 . S
C1173 C1178 1.350 . S
C1173 N1181 1.427 . S
C1174 H1165 0.930 . S
C1174 C1172 1.378 . S
C1174 C1175 1.367 . S
C1175 C1174 1.367 . S
C1175 C1177 1.433 . S
C1176 C1172 1.350 . S
C1176 C1173 1.463 . S
C1176 N1180 1.427 . S
C1177 H1167 0.929 . S
C1177 C1175 1.433 . S
C1177 N1180 1.384 . S
C1178 H1169 0.929 . S
C1178 C1170 1.378 . S
C1178 C1173 1.350 . S
C1179 H1166 0.929 . S
C1179 C1171 1.433 . S
C1179 N1181 1.384 . S
N1180 C1176 1.427 . S
N1180 C1177 1.384 . S
N1181 C1173 1.427 . S
N1181 C1179 1.384 . S
H1182 C1188 0.930 . S
H1183 C1192 0.930 . S
H1184 C1197 0.929 . S
H1185 C1195 0.929 . S
H1186 C1190 0.929 . S
H1187 C1196 0.929 . S
C1188 H1182 0.930 . S
C1188 C1189 1.367 . S
C1188 C1196 1.378 . S
C1189 C1188 1.367 . S
C1189 C1197 1.433 . S
C1190 H1186 0.929 . S
C1190 C1192 1.378 . S
C1190 C1194 1.350 . S
C1191 C1194 1.463 . S
C1191 C1196 1.350 . S
C1191 N1199 1.427 . S
C1192 H1183 0.930 . S
C1192 C1190 1.378 . S
C1192 C1193 1.367 . S
C1193 C1192 1.367 . S
C1193 C1195 1.433 . S
C1194 C1190 1.350 . S
C1194 C1191 1.463 . S
C1194 N1198 1.427 . S
C1195 H1185 0.929 . S
C1195 C1193 1.433 . S
C1195 N1198 1.384 . S
C1196 H1187 0.929 . S
C1196 C1188 1.378 . S
C1196 C1191 1.350 . S
C1197 H1184 0.929 . S
C1197 C1189 1.433 . S
C1197 N1199 1.384 . S
N1198 C1194 1.427 . S
N1198 C1195 1.384 . S
N1199 C1191 1.427 . S
N1199 C1197 1.384 . S
C635 C545 1.435 . S
C631 C53 1.463 . S
C649 C115 1.473 1_545 S
C653 C577 1.448 . S
C667 C177 1.482 . S
C671 C600 1.460 . S
C689 C504 1.468 . S
C685 C239 1.482 . S
C707 C587 1.523 . S
C703 C47 1.582 . S
C725 C616 1.530 . S
C721 C109 1.568 . S
C743 C520 1.527 . S
C739 C171 1.568 . S
C761 C555 1.528 . S
C757 C233 1.583 . S
C775 C29 1.589 . S
C779 C583 1.554 . S
C793 C277 1.591 . S
C797 C558 1.531 . S
C811 C153 1.581 . S
C815 C526 1.532 . S
C833 C615 1.527 . S
C829 C339 1.570 . S
C851 C559 1.426 . S
C847 C35 1.469 . S
C865 C283 1.486 . S
C869 C527 1.451 . S
C883 C159 1.483 . S
C887 C614 1.463 . S
C905 C582 1.450 . S
C901 C345 1.475 1_545 S
C919 C419 1.582 . S
C923 C609 1.647 . S
C937 C301 1.482 . S
C941 C513 1.452 . S
C955 C487 1.467 . S
C959 C536 1.441 . S
C973 C363 1.474 . S
C977 C568 1.458 . S
C995 C523 1.405 . S
C991 C425 1.496 . S
C1009 C295 1.585 . S
C1013 C552 1.534 . S
C1027 C481 1.584 . S
C1031 C584 1.542 . S
C1049 C619 1.524 . S
C1045 C357 1.580 . S
C1063 C407 1.494 . S
C1067 C519 1.389 . S
C1081 C91 1.570 . S
C1085 C622 1.508 . S
C1099 C463 1.597 . S
C1103 C590 1.533 . S
C1121 C551 1.533 . S
C1117 C215 1.576 . S
C1139 C623 1.643 . S
C1135 C401 1.581 . S
C1157 C591 1.439 . S
C1153 C97 1.476 . S
C1175 C550 1.444 . S
C1171 C469 1.463 . S
C1193 C518 1.465 . S
C1189 C221 1.480 . S
