# Generated by pormake.
# Topology bwt, (3,3)-cn, num edge types: 1
# Building blocks:
#     Node 0, Type 0, BuildingBlock: OLANEW_clean_sbu_2, # of connection points: 3
#     Node 1, Type 0, BuildingBlock: OLANEW_clean_sbu_2, # of connection points: 3
#     Node 2, Type 0, BuildingBlock: OLANEW_clean_sbu_2, # of connection points: 3
#     Node 3, Type 0, BuildingBlock: OLANEW_clean_sbu_2, # of connection points: 3
#     Node 4, Type 0, BuildingBlock: OLANEW_clean_sbu_2, # of connection points: 3
#     Node 5, Type 0, BuildingBlock: OLANEW_clean_sbu_2, # of connection points: 3
#     Node 6, Type 0, BuildingBlock: OLANEW_clean_sbu_2, # of connection points: 3
#     Node 7, Type 0, BuildingBlock: OLANEW_clean_sbu_2, # of connection points: 3
#     Node 8, Type 0, BuildingBlock: OLANEW_clean_sbu_2, # of connection points: 3
#     Node 9, Type 0, BuildingBlock: OLANEW_clean_sbu_2, # of connection points: 3
#     Node 10, Type 0, BuildingBlock: OLANEW_clean_sbu_2, # of connection points: 3
#     Node 11, Type 0, BuildingBlock: OLANEW_clean_sbu_2, # of connection points: 3
#     Node 12, Type 0, BuildingBlock: OLANEW_clean_sbu_2, # of connection points: 3
#     Node 13, Type 0, BuildingBlock: OLANEW_clean_sbu_2, # of connection points: 3
#     Node 14, Type 0, BuildingBlock: OLANEW_clean_sbu_2, # of connection points: 3
#     Node 15, Type 0, BuildingBlock: OLANEW_clean_sbu_2, # of connection points: 3
#     Node 16, Type 0, BuildingBlock: OLANEW_clean_sbu_2, # of connection points: 3
#     Node 17, Type 0, BuildingBlock: OLANEW_clean_sbu_2, # of connection points: 3
#     Node 18, Type 0, BuildingBlock: OLANEW_clean_sbu_2, # of connection points: 3
#     Node 19, Type 0, BuildingBlock: OLANEW_clean_sbu_2, # of connection points: 3
#     Node 20, Type 0, BuildingBlock: OLANEW_clean_sbu_2, # of connection points: 3
#     Node 21, Type 0, BuildingBlock: OLANEW_clean_sbu_2, # of connection points: 3
#     Node 22, Type 0, BuildingBlock: OLANEW_clean_sbu_2, # of connection points: 3
#     Node 23, Type 0, BuildingBlock: OLANEW_clean_sbu_2, # of connection points: 3
#     Node 24, Type 1, BuildingBlock: ESEHIV_clean_linker_0, # of connection points: 3
#     Node 25, Type 1, BuildingBlock: ESEHIV_clean_linker_0, # of connection points: 3
#     Node 26, Type 1, BuildingBlock: ESEHIV_clean_linker_0, # of connection points: 3
#     Node 27, Type 1, BuildingBlock: ESEHIV_clean_linker_0, # of connection points: 3
#     Node 28, Type 1, BuildingBlock: ESEHIV_clean_linker_0, # of connection points: 3
#     Node 29, Type 1, BuildingBlock: ESEHIV_clean_linker_0, # of connection points: 3
#     Node 30, Type 1, BuildingBlock: ESEHIV_clean_linker_0, # of connection points: 3
#     Node 31, Type 1, BuildingBlock: ESEHIV_clean_linker_0, # of connection points: 3
#     Node 32, Type 1, BuildingBlock: ESEHIV_clean_linker_0, # of connection points: 3
#     Node 33, Type 1, BuildingBlock: ESEHIV_clean_linker_0, # of connection points: 3
#     Node 34, Type 1, BuildingBlock: ESEHIV_clean_linker_0, # of connection points: 3
#     Node 35, Type 1, BuildingBlock: ESEHIV_clean_linker_0, # of connection points: 3
#     Node 36, Type 1, BuildingBlock: ESEHIV_clean_linker_0, # of connection points: 3
#     Node 37, Type 1, BuildingBlock: ESEHIV_clean_linker_0, # of connection points: 3
#     Node 38, Type 1, BuildingBlock: ESEHIV_clean_linker_0, # of connection points: 3
#     Node 39, Type 1, BuildingBlock: ESEHIV_clean_linker_0, # of connection points: 3
#     Node 40, Type 1, BuildingBlock: ESEHIV_clean_linker_0, # of connection points: 3
#     Node 41, Type 1, BuildingBlock: ESEHIV_clean_linker_0, # of connection points: 3
#     Node 42, Type 1, BuildingBlock: ESEHIV_clean_linker_0, # of connection points: 3
#     Node 43, Type 1, BuildingBlock: ESEHIV_clean_linker_0, # of connection points: 3
#     Node 44, Type 1, BuildingBlock: ESEHIV_clean_linker_0, # of connection points: 3
#     Node 45, Type 1, BuildingBlock: ESEHIV_clean_linker_0, # of connection points: 3
#     Node 46, Type 1, BuildingBlock: ESEHIV_clean_linker_0, # of connection points: 3
#     Node 47, Type 1, BuildingBlock: ESEHIV_clean_linker_0, # of connection points: 3
#     Edge 48, Type (0, 1), BuildingBlock: XUDNAN_clean_linker_2, # of connection points: 2
#     Edge 49, Type (0, 1), BuildingBlock: XUDNAN_clean_linker_2, # of connection points: 2
#     Edge 50, Type (0, 1), BuildingBlock: XUDNAN_clean_linker_2, # of connection points: 2
#     Edge 51, Type (0, 1), BuildingBlock: XUDNAN_clean_linker_2, # of connection points: 2
#     Edge 52, Type (0, 1), BuildingBlock: XUDNAN_clean_linker_2, # of connection points: 2
#     Edge 53, Type (0, 1), BuildingBlock: XUDNAN_clean_linker_2, # of connection points: 2
#     Edge 54, Type (0, 1), BuildingBlock: XUDNAN_clean_linker_2, # of connection points: 2
#     Edge 55, Type (0, 1), BuildingBlock: XUDNAN_clean_linker_2, # of connection points: 2
#     Edge 56, Type (0, 1), BuildingBlock: XUDNAN_clean_linker_2, # of connection points: 2
#     Edge 57, Type (0, 1), BuildingBlock: XUDNAN_clean_linker_2, # of connection points: 2
#     Edge 58, Type (0, 1), BuildingBlock: XUDNAN_clean_linker_2, # of connection points: 2
#     Edge 59, Type (0, 1), BuildingBlock: XUDNAN_clean_linker_2, # of connection points: 2
#     Edge 60, Type (0, 1), BuildingBlock: XUDNAN_clean_linker_2, # of connection points: 2
#     Edge 61, Type (0, 1), BuildingBlock: XUDNAN_clean_linker_2, # of connection points: 2
#     Edge 62, Type (0, 1), BuildingBlock: XUDNAN_clean_linker_2, # of connection points: 2
#     Edge 63, Type (0, 1), BuildingBlock: XUDNAN_clean_linker_2, # of connection points: 2
#     Edge 64, Type (0, 1), BuildingBlock: XUDNAN_clean_linker_2, # of connection points: 2
#     Edge 65, Type (0, 1), BuildingBlock: XUDNAN_clean_linker_2, # of connection points: 2
#     Edge 66, Type (0, 1), BuildingBlock: XUDNAN_clean_linker_2, # of connection points: 2
#     Edge 67, Type (0, 1), BuildingBlock: XUDNAN_clean_linker_2, # of connection points: 2
#     Edge 68, Type (0, 1), BuildingBlock: XUDNAN_clean_linker_2, # of connection points: 2
#     Edge 69, Type (0, 1), BuildingBlock: XUDNAN_clean_linker_2, # of connection points: 2
#     Edge 70, Type (0, 1), BuildingBlock: XUDNAN_clean_linker_2, # of connection points: 2
#     Edge 71, Type (0, 1), BuildingBlock: XUDNAN_clean_linker_2, # of connection points: 2
#     Edge 72, Type (0, 1), BuildingBlock: XUDNAN_clean_linker_2, # of connection points: 2
#     Edge 73, Type (0, 1), BuildingBlock: XUDNAN_clean_linker_2, # of connection points: 2
#     Edge 74, Type (0, 1), BuildingBlock: XUDNAN_clean_linker_2, # of connection points: 2
#     Edge 75, Type (0, 1), BuildingBlock: XUDNAN_clean_linker_2, # of connection points: 2
#     Edge 76, Type (0, 1), BuildingBlock: XUDNAN_clean_linker_2, # of connection points: 2
#     Edge 77, Type (0, 1), BuildingBlock: XUDNAN_clean_linker_2, # of connection points: 2
#     Edge 78, Type (0, 1), BuildingBlock: XUDNAN_clean_linker_2, # of connection points: 2
#     Edge 79, Type (0, 1), BuildingBlock: XUDNAN_clean_linker_2, # of connection points: 2
#     Edge 80, Type (0, 1), BuildingBlock: XUDNAN_clean_linker_2, # of connection points: 2
#     Edge 81, Type (0, 1), BuildingBlock: XUDNAN_clean_linker_2, # of connection points: 2
#     Edge 82, Type (0, 1), BuildingBlock: XUDNAN_clean_linker_2, # of connection points: 2
#     Edge 83, Type (0, 1), BuildingBlock: XUDNAN_clean_linker_2, # of connection points: 2
#     Edge 84, Type (0, 1), BuildingBlock: XUDNAN_clean_linker_2, # of connection points: 2
#     Edge 85, Type (0, 1), BuildingBlock: XUDNAN_clean_linker_2, # of connection points: 2
#     Edge 86, Type (0, 1), BuildingBlock: XUDNAN_clean_linker_2, # of connection points: 2
#     Edge 87, Type (0, 1), BuildingBlock: XUDNAN_clean_linker_2, # of connection points: 2
#     Edge 88, Type (0, 1), BuildingBlock: XUDNAN_clean_linker_2, # of connection points: 2
#     Edge 89, Type (0, 1), BuildingBlock: XUDNAN_clean_linker_2, # of connection points: 2
#     Edge 90, Type (0, 1), BuildingBlock: XUDNAN_clean_linker_2, # of connection points: 2
#     Edge 91, Type (0, 1), BuildingBlock: XUDNAN_clean_linker_2, # of connection points: 2
#     Edge 92, Type (0, 1), BuildingBlock: XUDNAN_clean_linker_2, # of connection points: 2
#     Edge 93, Type (0, 1), BuildingBlock: XUDNAN_clean_linker_2, # of connection points: 2
#     Edge 94, Type (0, 1), BuildingBlock: XUDNAN_clean_linker_2, # of connection points: 2
#     Edge 95, Type (0, 1), BuildingBlock: XUDNAN_clean_linker_2, # of connection points: 2
#     Edge 96, Type (0, 1), BuildingBlock: XUDNAN_clean_linker_2, # of connection points: 2
#     Edge 97, Type (0, 1), BuildingBlock: XUDNAN_clean_linker_2, # of connection points: 2
#     Edge 98, Type (0, 1), BuildingBlock: XUDNAN_clean_linker_2, # of connection points: 2
#     Edge 99, Type (0, 1), BuildingBlock: XUDNAN_clean_linker_2, # of connection points: 2
#     Edge 100, Type (0, 1), BuildingBlock: XUDNAN_clean_linker_2, # of connection points: 2
#     Edge 101, Type (0, 1), BuildingBlock: XUDNAN_clean_linker_2, # of connection points: 2
#     Edge 102, Type (0, 1), BuildingBlock: XUDNAN_clean_linker_2, # of connection points: 2
#     Edge 103, Type (0, 1), BuildingBlock: XUDNAN_clean_linker_2, # of connection points: 2
#     Edge 104, Type (0, 1), BuildingBlock: XUDNAN_clean_linker_2, # of connection points: 2
#     Edge 105, Type (0, 1), BuildingBlock: XUDNAN_clean_linker_2, # of connection points: 2
#     Edge 106, Type (0, 1), BuildingBlock: XUDNAN_clean_linker_2, # of connection points: 2
#     Edge 107, Type (0, 1), BuildingBlock: XUDNAN_clean_linker_2, # of connection points: 2
#     Edge 108, Type (0, 1), BuildingBlock: XUDNAN_clean_linker_2, # of connection points: 2
#     Edge 109, Type (0, 1), BuildingBlock: XUDNAN_clean_linker_2, # of connection points: 2
#     Edge 110, Type (0, 1), BuildingBlock: XUDNAN_clean_linker_2, # of connection points: 2
#     Edge 111, Type (0, 1), BuildingBlock: XUDNAN_clean_linker_2, # of connection points: 2
#     Edge 112, Type (0, 1), BuildingBlock: XUDNAN_clean_linker_2, # of connection points: 2
#     Edge 113, Type (0, 1), BuildingBlock: XUDNAN_clean_linker_2, # of connection points: 2
#     Edge 114, Type (0, 1), BuildingBlock: XUDNAN_clean_linker_2, # of connection points: 2
#     Edge 115, Type (0, 1), BuildingBlock: XUDNAN_clean_linker_2, # of connection points: 2
#     Edge 116, Type (0, 1), BuildingBlock: XUDNAN_clean_linker_2, # of connection points: 2
#     Edge 117, Type (0, 1), BuildingBlock: XUDNAN_clean_linker_2, # of connection points: 2
#     Edge 118, Type (0, 1), BuildingBlock: XUDNAN_clean_linker_2, # of connection points: 2
#     Edge 119, Type (0, 1), BuildingBlock: XUDNAN_clean_linker_2, # of connection points: 2
# Relax obj value: 0.142
# Max RMSD: 0.141
# Mean RMSD: 0.092
data_MOF--net-bwt--node1-OLANEW_clean_sbu_2--node2-ESEHIV_clean_linker_0--edge1-XUDNAN_clean_linker_2
_symmetry_space_group_name_H-M    P1
_symmetry_Int_Tables_number       1
_symmetry_cell_setting            triclinic
loop_
_symmetry_equiv_pos_as_xyz
'x, y, z'
_cell_length_a     55.413869
_cell_length_b     55.333328
_cell_length_c     55.346097
_cell_angle_alpha  93.576642
_cell_angle_beta   93.566682
_cell_angle_gamma 93.576497
loop_
_atom_site_label
_atom_site_type_symbol
_atom_site_fract_x
_atom_site_fract_y
_atom_site_fract_z
_atom_type_partial_charge
O0 O 0.33161 0.57465 0.32686 0.0
Cd1 Cd 0.32415 0.57352 0.28292 0.0
O2 O 0.35323 0.60944 0.32913 0.0
Cd3 Cd 0.35858 0.60617 0.29029 0.0
O4 O 0.39009 0.59463 0.2719 0.0
C5 C 0.40728 0.59305 0.28788 0.0
O6 O 0.40314 0.59753 0.31077 0.0
C7 C 0.3427 0.59231 0.33957 0.0
C8 C 0.27527 0.58086 0.27443 0.0
O9 O 0.28258 0.55976 0.27791 0.0
O10 O 0.2912 0.59862 0.274 0.0
O11 O 0.22077 0.40338 0.72299 0.0
Cd12 Cd 0.21287 0.38918 0.68025 0.0
O13 O 0.18796 0.38401 0.73435 0.0
Cd14 Cd 0.17294 0.37342 0.6976 0.0
O15 O 0.14151 0.37555 0.67232 0.0
C16 C 0.12134 0.36753 0.67941 0.0
O17 O 0.12121 0.35686 0.69996 0.0
C18 C 0.20736 0.39726 0.7397 0.0
C19 C 0.24566 0.41362 0.65269 0.0
O20 O 0.22458 0.42127 0.65543 0.0
O21 O 0.25098 0.39408 0.66248 0.0
O22 O 0.79048 0.97002 0.68806 0.0
Cd23 Cd 0.78457 0.97354 0.73151 0.0
O24 O 0.8227 0.9488 0.69142 0.0
Cd25 Cd 0.83049 0.95652 0.73033 0.0
O26 O 0.86408 0.97083 0.75031 0.0
C27 C 0.87175 0.9919 0.74519 0.0
O28 O 0.85795 0.004 0.73073 0.0
C29 C 0.80644 0.95788 0.67825 0.0
C30 C 0.73821 0.98884 0.73818 0.0
O31 O 0.75685 0.00391 0.74114 0.0
O32 O 0.74151 0.96653 0.73256 0.0
O33 O 0.73601 0.99193 0.30285 0.0
Cd34 Cd 0.72534 0.98892 0.345 0.0
O35 O 0.72574 0.02945 0.29992 0.0
Cd36 Cd 0.70736 0.02752 0.33335 0.0
O37 O 0.67484 0.01031 0.3465 0.0
C38 C 0.65475 0.01643 0.33729 0.0
O39 O 0.65487 0.03379 0.32213 0.0
C40 C 0.73495 0.01075 0.29084 0.0
C41 C 0.76707 0.97751 0.37132 0.0
O42 O 0.75152 0.96078 0.36219 0.0
O43 O 0.7623 0.99964 0.36892 0.0
O44 O 0.33169 0.25813 0.57684 0.0
Cd45 Cd 0.2892 0.26436 0.58284 0.0
O46 O 0.3468 0.29543 0.58678 0.0
Cd47 Cd 0.31252 0.31217 0.59069 0.0
O48 O 0.29814 0.3472 0.58401 0.0
C49 C 0.31283 0.36084 0.57339 0.0
O50 O 0.3336 0.3525 0.56777 0.0
C51 C 0.34981 0.27346 0.58021 0.0
C52 C 0.2652 0.21847 0.58242 0.0
O53 O 0.26847 0.2288 0.56269 0.0
O54 O 0.27256 0.23017 0.60252 0.0
O55 O 0.2727 0.74651 0.99522 0.0
Cd56 Cd 0.31689 0.74654 0.99637 0.0
O57 O 0.26798 0.71389 0.01571 0.0
Cd58 Cd 0.30413 0.70156 0.0106 0.0
O59 O 0.32111 0.67017 0.99477 0.0
C60 C 0.31623 0.64985 0.00351 0.0
O61 O 0.30325 0.64931 0.02257 0.0
C62 C 0.25911 0.73187 0.00596 0.0
C63 C 0.33586 0.789 0.97787 0.0
O64 O 0.33357 0.76893 0.9648 0.0
O65 O 0.32954 0.78897 0.99973 0.0
O66 O 0.69279 0.20242 0.42014 0.0
Cd67 Cd 0.6489 0.19864 0.42115 0.0
O68 O 0.69239 0.17853 0.38681 0.0
Cd69 Cd 0.66096 0.15631 0.39644 0.0
O70 O 0.67616 0.12494 0.41241 0.0
C71 C 0.66992 0.10247 0.40833 0.0
O72 O 0.65054 0.09564 0.39407 0.0
C73 C 0.70351 0.19415 0.40205 0.0
C74 C 0.63386 0.246 0.42285 0.0
O75 O 0.63577 0.2344 0.44214 0.0
O76 O 0.63852 0.23504 0.40278 0.0
O77 O 0.6248 0.76184 0.96525 0.0
Cd78 Cd 0.66811 0.77358 0.97086 0.0
O79 O 0.61633 0.79433 0.94623 0.0
Cd80 Cd 0.65272 0.81213 0.9517 0.0
O81 O 0.67831 0.84263 0.96426 0.0
C82 C 0.67589 0.85167 0.98558 0.0
O83 O 0.65946 0.84147 0.99852 0.0
C84 C 0.60946 0.77418 0.95431 0.0
C85 C 0.69357 0.73394 0.98379 0.0
O86 O 0.68485 0.74797 0.99988 0.0
O87 O 0.6905 0.73883 0.96152 0.0
O88 O 0.60761 0.32961 0.26715 0.0
Cd89 Cd 0.60047 0.28593 0.25781 0.0
O90 O 0.63036 0.32506 0.30032 0.0
Cd91 Cd 0.62152 0.28611 0.30078 0.0
O92 O 0.60566 0.26167 0.32583 0.0
C93 C 0.58645 0.26867 0.33466 0.0
O94 O 0.57701 0.28802 0.32644 0.0
C95 C 0.62105 0.33882 0.28526 0.0
C96 C 0.5916 0.27505 0.20804 0.0
O97 O 0.57446 0.28026 0.22158 0.0
O98 O 0.61308 0.2749 0.21805 0.0
O99 O 0.01745 0.28713 0.72186 0.0
Cd100 Cd 0.9945 0.32252 0.71529 0.0
O101 O 0.02516 0.27314 0.68508 0.0
Cd102 Cd 0.00428 0.29701 0.66316 0.0
O103 O 0.9816 0.29231 0.62918 0.0
C104 C 0.98448 0.30381 0.61026 0.0
O105 O 0.00138 0.32161 0.61077 0.0
C106 C 0.02712 0.2719 0.70798 0.0
C107 C 0.97798 0.33561 0.76057 0.0
O108 O 0.9652 0.32101 0.74524 0.0
O109 O 0.9981 0.34496 0.75403 0.0
O110 O 0.3931 0.72239 0.25 0.0
Cd111 Cd 0.3744 0.68103 0.24728 0.0
O112 O 0.42445 0.71269 0.22981 0.0
Cd113 Cd 0.40843 0.67793 0.21365 0.0
O114 O 0.40579 0.65861 0.17785 0.0
C115 C 0.39225 0.66679 0.16129 0.0
O116 O 0.37872 0.68466 0.16711 0.0
C117 C 0.41382 0.7281 0.24262 0.0
C118 C 0.37924 0.6668 0.29468 0.0
O119 O 0.39499 0.66174 0.27945 0.0
O120 O 0.36052 0.67729 0.28705 0.0
O121 O 0.97809 0.65899 0.7177 0.0
Cd122 Cd 0.98889 0.69992 0.73562 0.0
O123 O 0.96467 0.64101 0.7492 0.0
Cd124 Cd 0.97274 0.67088 0.7769 0.0
O125 O 0.97986 0.68148 0.81564 0.0
C126 C 0.97036 0.66695 0.82982 0.0
O127 O 0.95676 0.64801 0.8203 0.0
C128 C 0.96895 0.6403 0.72686 0.0
C129 C 0.00465 0.7272 0.69808 0.0
O130 O 0.01959 0.71607 0.71128 0.0
O131 O 0.98237 0.72613 0.70317 0.0
O132 O 0.69173 0.39252 0.68708 0.0
Cd133 Cd 0.71303 0.3763 0.72178 0.0
O134 O 0.65683 0.39634 0.70338 0.0
Cd135 Cd 0.61845 0.40313 0.69864 0.0
O136 O 0.58606 0.41616 0.68068 0.0
C137 C 0.57793 0.43593 0.68852 0.0
O138 O 0.58864 0.44765 0.70805 0.0
C139 C 0.66999 0.39861 0.68553 0.0
C140 C 0.76196 0.37757 0.71244 0.0
O141 O 0.7476 0.3591 0.70532 0.0
O142 O 0.75334 0.39508 0.7247 0.0
O143 O 0.7841 0.69748 0.25925 0.0
Cd144 Cd 0.77345 0.72056 0.29572 0.0
O145 O 0.81955 0.68963 0.27543 0.0
Cd146 Cd 0.85451 0.67354 0.28013 0.0
O147 O 0.89158 0.66253 0.28476 0.0
C148 C 0.89913 0.64633 0.27034 0.0
O149 O 0.88426 0.63612 0.25268 0.0
C150 C 0.8037 0.68687 0.25763 0.0
C151 C 0.73803 0.69162 0.31587 0.0
O152 O 0.73227 0.70658 0.30004 0.0
O153 O 0.76045 0.69117 0.32295 0.0
O154 O 0.23653 0.01853 0.33296 0.0
Cd155 Cd 0.25004 0.02564 0.29275 0.0
O156 O 0.20118 0.00035 0.3205 0.0
Cd157 Cd 0.16537 0.98461 0.32752 0.0
O158 O 0.13181 0.96901 0.34031 0.0
C159 C 0.12605 0.97434 0.36179 0.0
O160 O 0.14044 0.9896 0.37604 0.0
C161 C 0.21661 0.00783 0.33773 0.0
C162 C 0.29854 0.01525 0.29418 0.0
O163 O 0.29222 0.03618 0.30159 0.0
O164 O 0.28198 0.99948 0.28512 0.0
O165 O 0.27234 0.95732 0.70865 0.0
Cd166 Cd 0.24891 0.9483 0.67 0.0
O167 O 0.30192 0.97734 0.69228 0.0
Cd168 Cd 0.3377 0.99682 0.69338 0.0
O169 O 0.37127 0.01966 0.70108 0.0
C170 C 0.38753 0.01405 0.71659 0.0
O171 O 0.38414 0.99398 0.72778 0.0
C172 C 0.29256 0.96966 0.71101 0.0
C173 C 0.20785 0.97472 0.66927 0.0
O174 O 0.208 0.95424 0.67885 0.0
O175 O 0.22698 0.98247 0.65951 0.0
O176 O 0.66095 0.72894 0.35088 0.0
Cd177 Cd 0.69854 0.73416 0.3307 0.0
O178 O 0.66592 0.69126 0.35954 0.0
Cd179 Cd 0.65661 0.65934 0.37936 0.0
O180 O 0.64231 0.62882 0.39858 0.0
C181 C 0.65532 0.61137 0.40322 0.0
O182 O 0.67785 0.61223 0.3971 0.0
C183 C 0.65406 0.71016 0.36134 0.0
C184 C 0.72385 0.77111 0.36005 0.0
O185 O 0.71149 0.77601 0.34083 0.0
O186 O 0.72553 0.74876 0.3643 0.0
O187 O 0.70519 0.26081 0.98389 0.0
Cd188 Cd 0.67419 0.24314 0.00808 0.0
O189 O 0.70319 0.29765 0.00065 0.0
Cd190 Cd 0.7179 0.33522 0.00877 0.0
O191 O 0.7345 0.37232 0.01335 0.0
C192 C 0.73379 0.38526 0.03307 0.0
O193 O 0.72284 0.37609 0.05114 0.0
C194 C 0.71291 0.283 0.98614 0.0
C195 C 0.69332 0.20314 0.02869 0.0
O196 O 0.67956 0.20042 0.0091 0.0
O197 O 0.69737 0.22459 0.03884 0.0
O198 O 0.26652 0.7733 0.65104 0.0
Cd199 Cd 0.28495 0.75391 0.68548 0.0
O200 O 0.2755 0.81061 0.6661 0.0
Cd201 Cd 0.27909 0.8502 0.66656 0.0
O202 O 0.29942 0.88278 0.68348 0.0
C203 C 0.30168 0.90456 0.67738 0.0
O204 O 0.31658 0.92004 0.69086 0.0
C205 C 0.26593 0.79601 0.64907 0.0
C206 C 0.3032 0.71104 0.66759 0.0
O207 O 0.28118 0.71142 0.67334 0.0
O208 O 0.31674 0.73076 0.67103 0.0
O209 O 0.30859 0.24746 0.07438 0.0
Cd210 Cd 0.27248 0.27023 0.07035 0.0
O211 O 0.29444 0.22532 0.04157 0.0
Cd212 Cd 0.30059 0.19566 0.01509 0.0
O213 O 0.3115 0.16124 0.99905 0.0
C214 C 0.32834 0.15089 0.01018 0.0
O215 O 0.33866 0.16145 0.03047 0.0
C216 C 0.3113 0.23098 0.05793 0.0
C217 C 0.28289 0.30598 0.03853 0.0
O218 O 0.2843 0.31123 0.06147 0.0
O219 O 0.27578 0.28425 0.03076 0.0
O220 O 0.3379 0.6963 0.73069 0.0
Cd221 Cd 0.31111 0.72335 0.75074 0.0
O222 O 0.35857 0.72407 0.71241 0.0
Cd223 Cd 0.38391 0.73801 0.68679 0.0
O224 O 0.40966 0.74163 0.6586 0.0
C225 C 0.41005 0.72305 0.64398 0.0
O226 O 0.39533 0.70413 0.64684 0.0
C227 C 0.35475 0.70195 0.71711 0.0
C228 C 0.31511 0.71483 0.7998 0.0
O229 O 0.30004 0.70184 0.78512 0.0
O230 O 0.32753 0.73236 0.79139 0.0
O231 O 0.93407 0.70265 0.25068 0.0
Cd232 Cd 0.94275 0.6643 0.22966 0.0
O233 O 0.96557 0.70162 0.2764 0.0
Cd234 Cd 0.99329 0.71275 0.30582 0.0
O235 O 0.01922 0.7239 0.33662 0.0
C236 C 0.01156 0.72718 0.35768 0.0
O237 O 0.98833 0.72322 0.36054 0.0
C238 C 0.94711 0.71234 0.26887 0.0
C239 C 0.97249 0.6706 0.19138 0.0
O240 O 0.94946 0.67153 0.18825 0.0
O241 O 0.98144 0.66687 0.21264 0.0
O242 O 0.64151 0.30392 0.75744 0.0
Cd243 Cd 0.64722 0.3449 0.74341 0.0
O244 O 0.60809 0.31047 0.77578 0.0
Cd245 Cd 0.58047 0.29595 0.79868 0.0
O246 O 0.56212 0.27666 0.82645 0.0
C247 C 0.56581 0.2847 0.84848 0.0
O248 O 0.57987 0.3046 0.85362 0.0
C249 C 0.62402 0.29626 0.76933 0.0
C250 C 0.63987 0.34245 0.69291 0.0
O251 O 0.6607 0.33927 0.70317 0.0
O252 O 0.62268 0.34732 0.70652 0.0
O253 O 0.04384 0.33909 0.22369 0.0
Cd254 Cd 0.0236 0.29894 0.21549 0.0
O255 O 0.01678 0.35561 0.20025 0.0
Cd256 Cd 0.0041 0.32229 0.17881 0.0
O257 O 0.99138 0.3048 0.14342 0.0
C258 C 0.99639 0.31669 0.12524 0.0
O259 O 0.00914 0.33757 0.12901 0.0
C260 C 0.03434 0.35785 0.21631 0.0
C261 C 0.99348 0.29543 0.25375 0.0
O262 O 0.01446 0.28688 0.25506 0.0
O263 O 0.98634 0.30427 0.23388 0.0
H264 H 0.33903 0.59891 0.5294 0.0
H265 H 0.32403 0.52475 0.50112 0.0
H266 H 0.31281 0.54507 0.57566 0.0
C267 C 0.33336 0.58017 0.53188 0.0
C268 C 0.32656 0.57385 0.55476 0.0
C269 C 0.33208 0.56277 0.51214 0.0
C270 C 0.32442 0.53863 0.51588 0.0
C271 C 0.31728 0.53221 0.53867 0.0
C272 C 0.31799 0.54999 0.55795 0.0
H273 H 0.27937 0.41879 0.90833 0.0
H274 H 0.28482 0.49454 0.89574 0.0
H275 H 0.31978 0.46902 0.96044 0.0
C276 C 0.2864 0.43715 0.914 0.0
C277 C 0.3007 0.44156 0.93578 0.0
C278 C 0.28062 0.4561 0.8996 0.0
C279 C 0.28962 0.47986 0.9068 0.0
C280 C 0.3036 0.4848 0.92893 0.0
C281 C 0.30892 0.4655 0.94346 0.0
H282 H 0.78055 0.90847 0.49594 0.0
H283 H 0.76858 0.98407 0.50112 0.0
H284 H 0.7409 0.94017 0.43746 0.0
C285 C 0.7728 0.92382 0.48796 0.0
C286 C 0.75982 0.92089 0.46511 0.0
C287 C 0.77531 0.94627 0.5013 0.0
C288 C 0.76643 0.96661 0.49091 0.0
C289 C 0.75472 0.96464 0.46757 0.0
C290 C 0.75087 0.94166 0.45499 0.0
H291 H 0.75195 0.05933 0.12098 0.0
H292 H 0.74502 0.98213 0.10549 0.0
H293 H 0.7359 0.02975 0.04755 0.0
C294 C 0.74899 0.04381 0.10796 0.0
C295 C 0.74418 0.04748 0.08326 0.0
C296 C 0.74936 0.02034 0.11618 0.0
C297 C 0.74508 0.00032 0.09928 0.0
C298 C 0.74016 0.00351 0.0745 0.0
C299 C 0.73991 0.02717 0.06659 0.0
H300 H 0.53005 0.28172 0.56659 0.0
H301 H 0.50802 0.24939 0.49546 0.0
H302 H 0.58182 0.27678 0.51176 0.0
C303 C 0.53445 0.27676 0.54821 0.0
C304 C 0.55819 0.28145 0.54117 0.0
C305 C 0.51633 0.26503 0.53198 0.0
C306 C 0.52201 0.25791 0.50836 0.0
C307 C 0.5456 0.26196 0.50112 0.0
C308 C 0.5637 0.27343 0.51761 0.0
H309 H 0.08701 0.71374 0.05327 0.0
H310 H 0.07335 0.71124 0.97608 0.0
H311 H 0.01667 0.6881 0.02102 0.0
C312 C 0.07466 0.70956 0.03739 0.0
C313 C 0.05091 0.70006 0.04001 0.0
C314 C 0.08272 0.71385 0.01443 0.0
C315 C 0.06669 0.70892 0.99384 0.0
C316 C 0.04273 0.69967 0.99592 0.0
C317 C 0.03498 0.69546 0.01917 0.0
H318 H 0.87817 0.26761 0.3794 0.0
H319 H 0.87399 0.25183 0.45392 0.0
H320 H 0.9392 0.28719 0.43006 0.0
C321 C 0.88643 0.26817 0.39774 0.0
C322 C 0.90993 0.27887 0.40271 0.0
C323 C 0.87353 0.25807 0.41599 0.0
C324 C 0.88419 0.25926 0.43972 0.0
C325 C 0.90795 0.26965 0.44515 0.0
C326 C 0.92083 0.27934 0.42637 0.0
H327 H 0.42773 0.70738 0.92988 0.0
H328 H 0.45537 0.69105 0.00087 0.0
H329 H 0.38124 0.66998 0.97671 0.0
C330 C 0.42498 0.69971 0.94713 0.0
C331 C 0.40216 0.68889 0.95126 0.0
C332 C 0.44426 0.7009 0.96492 0.0
C333 C 0.44083 0.68984 0.98672 0.0
C334 C 0.41817 0.67852 0.99101 0.0
C335 C 0.39887 0.67818 0.97324 0.0
H336 H 0.63986 0.52952 0.31488 0.0
H337 H 0.5665 0.50522 0.29147 0.0
H338 H 0.5861 0.58145 0.30505 0.0
C339 C 0.62128 0.53358 0.31053 0.0
C340 C 0.61507 0.55784 0.31137 0.0
C341 C 0.60393 0.51444 0.3035 0.0
C342 C 0.58016 0.51984 0.29647 0.0
C343 C 0.57364 0.544 0.29679 0.0
C344 C 0.59115 0.56283 0.30448 0.0
H345 H 0.09083 0.10406 0.7186 0.0
H346 H 0.02378 0.10155 0.75343 0.0
H347 H 0.05134 0.0354 0.72484 0.0
C348 C 0.0754 0.09356 0.72459 0.0
C349 C 0.07351 0.06817 0.72052 0.0
C350 C 0.05758 0.10565 0.73647 0.0
C351 C 0.03777 0.09217 0.74459 0.0
C352 C 0.03536 0.06681 0.7405 0.0
C353 C 0.05345 0.05489 0.72868 0.0
H354 H 0.42983 0.90291 0.29619 0.0
H355 H 0.50592 0.89399 0.30915 0.0
H356 H 0.47826 0.96371 0.32363 0.0
C357 C 0.44783 0.91053 0.30216 0.0
C358 C 0.45139 0.93521 0.31029 0.0
C359 C 0.46743 0.89561 0.30127 0.0
C360 C 0.49072 0.90538 0.30951 0.0
C361 C 0.49466 0.92988 0.31775 0.0
C362 C 0.47501 0.94468 0.31779 0.0
H363 H 0.90873 0.46755 0.67196 0.0
H364 H 0.98253 0.46904 0.65265 0.0
H365 H 0.94322 0.4006 0.6593 0.0
C366 C 0.92439 0.45786 0.66734 0.0
C367 C 0.92314 0.43233 0.66613 0.0
C368 C 0.9457 0.47116 0.66241 0.0
C369 C 0.9658 0.45878 0.65568 0.0
C370 C 0.96504 0.43332 0.65448 0.0
C371 C 0.94367 0.42022 0.65977 0.0
H372 H 0.62984 0.39864 0.51122 0.0
H373 H 0.62852 0.47608 0.51809 0.0
H374 H 0.61769 0.43842 0.44759 0.0
C375 C 0.62758 0.41553 0.50282 0.0
C376 C 0.62322 0.41544 0.47749 0.0
C377 C 0.62908 0.4371 0.5177 0.0
C378 C 0.62674 0.4592 0.5069 0.0
C379 C 0.62316 0.45973 0.48157 0.0
C380 C 0.62121 0.43784 0.467 0.0
H381 H 0.77673 0.62672 0.09253 0.0
H382 H 0.79205 0.55377 0.10722 0.0
H383 H 0.76178 0.56922 0.03665 0.0
C384 C 0.77665 0.60772 0.08637 0.0
C385 C 0.76833 0.60009 0.06249 0.0
C386 C 0.78515 0.59116 0.1025 0.0
C387 C 0.7856 0.56659 0.09468 0.0
C388 C 0.77737 0.55857 0.07077 0.0
C389 C 0.76887 0.57546 0.05481 0.0
H390 H 0.20848 0.05247 0.51358 0.0
H391 H 0.2206 0.97748 0.52275 0.0
H392 H 0.23426 0.03019 0.58312 0.0
C393 C 0.21402 0.03837 0.52506 0.0
C394 C 0.22157 0.04445 0.5495 0.0
C395 C 0.21401 0.0144 0.51504 0.0
C396 C 0.22005 0.99598 0.53027 0.0
C397 C 0.22707 0.00158 0.55489 0.0
C398 C 0.22799 0.02583 0.56433 0.0
H399 H 0.35378 0.93794 0.87876 0.0
H400 H 0.34604 0.01409 0.89307 0.0
H401 H 0.35907 0.96884 0.95236 0.0
C402 C 0.35361 0.95354 0.89157 0.0
C403 C 0.35709 0.95058 0.91657 0.0
C404 C 0.34959 0.97635 0.88291 0.0
C405 C 0.34918 0.99643 0.89962 0.0
C406 C 0.35255 0.99397 0.9247 0.0
C407 C 0.35655 0.97094 0.93305 0.0
H408 H 0.49457 0.68358 0.42169 0.0
H409 H 0.52253 0.70604 0.49418 0.0
H410 H 0.44694 0.68344 0.48007 0.0
C411 C 0.49179 0.68581 0.44088 0.0
C412 C 0.46844 0.68171 0.44896 0.0
C413 C 0.5114 0.69438 0.45701 0.0
C414 C 0.5075 0.69922 0.48163 0.0
C415 C 0.48427 0.69526 0.4901 0.0
C416 C 0.46493 0.68623 0.47369 0.0
H417 H 0.87964 0.3252 0.90571 0.0
H418 H 0.88371 0.30006 0.97757 0.0
H419 H 0.94922 0.31656 0.94252 0.0
C420 C 0.89042 0.32021 0.92142 0.0
C421 C 0.91588 0.32168 0.92147 0.0
C422 C 0.87875 0.31219 0.9415 0.0
C423 C 0.89268 0.30572 0.9618 0.0
C424 C 0.91806 0.30746 0.96242 0.0
C425 C 0.92961 0.31562 0.94225 0.0
H426 H 0.11539 0.79878 0.58315 0.0
H427 H 0.12948 0.80047 0.50777 0.0
H428 H 0.05998 0.7727 0.52872 0.0
C429 C 0.10928 0.79587 0.56417 0.0
C430 C 0.08549 0.78634 0.55796 0.0
C431 C 0.12549 0.80063 0.54623 0.0
C432 C 0.11727 0.79628 0.52169 0.0
C433 C 0.09368 0.78604 0.51499 0.0
C434 C 0.07787 0.78139 0.53337 0.0
H435 H 0.49041 0.21941 0.06636 0.0
H436 H 0.47368 0.21013 0.98932 0.0
H437 H 0.54449 0.23902 0.01772 0.0
C438 C 0.49587 0.22042 0.04799 0.0
C439 C 0.51939 0.22976 0.04438 0.0
C440 C 0.47913 0.21322 0.02838 0.0
C441 C 0.48647 0.21525 0.00465 0.0
C442 C 0.50996 0.22473 0.00056 0.0
C443 C 0.5264 0.23166 0.0206 0.0
H444 H 0.3712 0.54545 0.63347 0.0
H445 H 0.44815 0.5508 0.65035 0.0
H446 H 0.41251 0.48376 0.61884 0.0
C447 C 0.38851 0.5374 0.63324 0.0
C448 C 0.38932 0.51304 0.62483 0.0
C449 C 0.40951 0.55112 0.64275 0.0
C450 C 0.43188 0.54046 0.64278 0.0
C451 C 0.43319 0.51617 0.63396 0.0
C452 C 0.41181 0.50269 0.6249 0.0
H453 H 0.89819 0.87574 0.36081 0.0
H454 H 0.97432 0.8662 0.36243 0.0
H455 H 0.94896 0.92894 0.39982 0.0
C456 C 0.91642 0.88199 0.36749 0.0
C457 C 0.9208 0.90403 0.38182 0.0
C458 C 0.93559 0.86801 0.36103 0.0
C459 C 0.95945 0.87654 0.36817 0.0
C460 C 0.96439 0.89886 0.3815 0.0
C461 C 0.945 0.91199 0.38908 0.0
H462 H 0.61976 0.10923 0.76378 0.0
H463 H 0.54613 0.12769 0.76995 0.0
H464 H 0.56142 0.05412 0.7511 0.0
C465 C 0.6007 0.10372 0.76389 0.0
C466 C 0.59292 0.0792 0.75825 0.0
C467 C 0.58415 0.12143 0.76857 0.0
C468 C 0.55923 0.11443 0.76632 0.0
C469 C 0.5509 0.09037 0.75919 0.0
C470 C 0.56785 0.07275 0.75599 0.0
H471 H 0.10806 0.52881 0.26347 0.0
H472 H 0.03208 0.53778 0.2665 0.0
H473 H 0.08291 0.60055 0.27284 0.0
C474 C 0.09341 0.54069 0.26571 0.0
C475 C 0.09851 0.56588 0.26884 0.0
C476 C 0.06965 0.53045 0.26512 0.0
C477 C 0.05048 0.54571 0.26661 0.0
C478 C 0.05505 0.57111 0.26934 0.0
C479 C 0.07919 0.58106 0.27049 0.0
H480 H 0.23916 0.55303 0.29191 0.0
H481 H 0.25254 0.61734 0.25253 0.0
H482 H 0.20837 0.62284 0.24907 0.0
H483 H 0.18539 0.53007 0.25908 0.0
H484 H 0.1711 0.51963 0.28524 0.0
H485 H 0.2036 0.52154 0.28492 0.0
H486 H 0.20674 0.54916 0.32478 0.0
H487 H 0.1742 0.54741 0.32515 0.0
H488 H 0.19078 0.57657 0.32613 0.0
H489 H 0.16192 0.61888 0.24744 0.0
H490 H 0.11829 0.60635 0.24854 0.0
H491 H 0.137 0.54713 0.2925 0.0
C492 C 0.23282 0.56827 0.28253 0.0
C493 C 0.24913 0.58462 0.27224 0.0
C494 C 0.24023 0.60457 0.26046 0.0
C495 C 0.21523 0.60785 0.25847 0.0
C496 C 0.19958 0.5913 0.26882 0.0
C497 C 0.20815 0.57207 0.28085 0.0
C498 C 0.18784 0.55672 0.29038 0.0
C499 C 0.18693 0.53045 0.27923 0.0
C500 C 0.19003 0.55753 0.31826 0.0
C501 C 0.16636 0.56983 0.28125 0.0
C502 C 0.17333 0.58974 0.26886 0.0
C503 C 0.15629 0.60354 0.25743 0.0
C504 C 0.13155 0.59639 0.25827 0.0
C505 C 0.1242 0.57567 0.27048 0.0
C506 C 0.14196 0.56285 0.28271 0.0
H507 H 0.29431 0.40797 0.65309 0.0
H508 H 0.23845 0.45239 0.62529 0.0
H509 H 0.26979 0.4796 0.60939 0.0
H510 H 0.33315 0.45594 0.67509 0.0
H511 H 0.36076 0.44194 0.66864 0.0
H512 H 0.334 0.42336 0.67359 0.0
H513 H 0.33628 0.39998 0.63145 0.0
H514 H 0.36359 0.41831 0.62723 0.0
H515 H 0.33848 0.41703 0.60491 0.0
H516 H 0.3071 0.50411 0.60019 0.0
H517 H 0.34746 0.52554 0.60069 0.0
H518 H 0.37864 0.46673 0.63763 0.0
C519 C 0.28859 0.4229 0.64287 0.0
C520 C 0.26392 0.42789 0.64016 0.0
C521 C 0.25723 0.4481 0.62739 0.0
C522 C 0.2749 0.46356 0.61813 0.0
C523 C 0.29913 0.45842 0.62155 0.0
C524 C 0.30599 0.4386 0.63369 0.0
C525 C 0.33326 0.43907 0.63812 0.0
C526 C 0.34071 0.44016 0.66547 0.0
C527 C 0.34349 0.41728 0.62464 0.0
C528 C 0.34061 0.46252 0.62708 0.0
C529 C 0.32072 0.47313 0.61713 0.0
C530 C 0.32286 0.49567 0.60732 0.0
C531 C 0.34585 0.50785 0.60798 0.0
C532 C 0.36629 0.4979 0.61926 0.0
C533 C 0.36359 0.47463 0.62833 0.0
H534 H 0.72461 0.02797 0.76563 0.0
H535 H 0.69629 0.96851 0.71495 0.0
H536 H 0.65541 0.98403 0.7157 0.0
H537 H 0.67094 0.02826 0.80163 0.0
H538 H 0.67351 0.0608 0.80713 0.0
H539 H 0.70028 0.0445 0.80308 0.0
H540 H 0.71141 0.07153 0.76827 0.0
H541 H 0.68462 0.08777 0.77211 0.0
H542 H 0.68978 0.0735 0.74288 0.0
H543 H 0.61878 0.00869 0.71867 0.0
H544 H 0.58827 0.03812 0.72655 0.0
H545 H 0.63939 0.0785 0.77937 0.0
C546 C 0.70974 0.01813 0.75487 0.0
C547 C 0.71355 0.99713 0.74013 0.0
C548 C 0.69368 0.98459 0.72643 0.0
C549 C 0.67044 0.9933 0.72669 0.0
C550 C 0.66732 0.01423 0.74119 0.0
C551 C 0.68633 0.02621 0.75539 0.0
C552 C 0.67811 0.04819 0.7695 0.0
C553 C 0.68087 0.04525 0.79696 0.0
C554 C 0.69179 0.07163 0.76278 0.0
C555 C 0.65169 0.04712 0.76045 0.0
C556 C 0.64584 0.02751 0.74404 0.0
C557 C 0.62297 0.0238 0.73196 0.0
C558 C 0.60564 0.0406 0.73676 0.0
C559 C 0.61107 0.06076 0.75383 0.0
C560 C 0.63444 0.06363 0.766 0.0
H561 H 0.78238 0.93239 0.37946 0.0
H562 H 0.80616 0.00888 0.3856 0.0
H563 H 0.84814 0.99834 0.39491 0.0
H564 H 0.82719 0.91274 0.42732 0.0
H565 H 0.83058 0.8847 0.40982 0.0
H566 H 0.80212 0.89879 0.40807 0.0
H567 H 0.80407 0.89924 0.36054 0.0
H568 H 0.83205 0.8846 0.36338 0.0
H569 H 0.83082 0.91276 0.34877 0.0
H570 H 0.88772 0.97951 0.39399 0.0
H571 H 0.92172 0.95416 0.38791 0.0
H572 H 0.87273 0.88949 0.3874 0.0
C573 C 0.79629 0.94695 0.38354 0.0
C574 C 0.791 0.97145 0.38174 0.0
C575 C 0.80975 0.98998 0.38695 0.0
C576 C 0.83368 0.98417 0.39225 0.0
C577 C 0.83848 0.95978 0.39275 0.0
C578 C 0.82025 0.94146 0.38904 0.0
C579 C 0.83052 0.9167 0.38846 0.0
C580 C 0.82211 0.90238 0.40968 0.0
C581 C 0.82397 0.90249 0.36386 0.0
C582 C 0.85738 0.92397 0.3915 0.0
C583 C 0.86158 0.94889 0.39385 0.0
C584 C 0.88476 0.95995 0.39319 0.0
C585 C 0.90411 0.94521 0.38985 0.0
C586 C 0.90037 0.9195 0.38756 0.0
C587 C 0.87658 0.90895 0.38902 0.0
H588 H 0.26076 0.18489 0.54389 0.0
H589 H 0.24649 0.19485 0.61993 0.0
H590 H 0.23139 0.15174 0.61941 0.0
H591 H 0.20954 0.14175 0.52495 0.0
H592 H 0.22693 0.12418 0.50467 0.0
H593 H 0.23439 0.15626 0.51058 0.0
H594 H 0.27849 0.14762 0.52409 0.0
H595 H 0.27116 0.11557 0.51824 0.0
H596 H 0.28377 0.12726 0.54778 0.0
H597 H 0.21923 0.10687 0.61066 0.0
H598 H 0.21241 0.06403 0.5949 0.0
H599 H 0.23758 0.08372 0.52553 0.0
C600 C 0.25404 0.17814 0.56033 0.0
C601 C 0.25454 0.19326 0.58189 0.0
C602 C 0.24613 0.18359 0.60318 0.0
C603 C 0.23749 0.15916 0.60303 0.0
C604 C 0.23757 0.14465 0.58152 0.0
C605 C 0.24572 0.1538 0.56059 0.0
C606 C 0.24554 0.13416 0.5403 0.0
C607 C 0.22805 0.13941 0.51886 0.0
C608 C 0.27127 0.13097 0.53214 0.0
C609 C 0.23616 0.11247 0.55309 0.0
C610 C 0.23141 0.11886 0.57676 0.0
C611 C 0.22289 0.10168 0.59213 0.0
C612 C 0.21925 0.07735 0.58307 0.0
C613 C 0.22435 0.07037 0.55892 0.0
C614 C 0.23291 0.08835 0.54388 0.0
H615 H 0.32486 0.83527 0.99111 0.0
H616 H 0.36645 0.79379 0.94145 0.0
H617 H 0.37944 0.83148 0.92273 0.0
H618 H 0.3026 0.87401 0.9481 0.0
H619 H 0.30362 0.90052 0.96887 0.0
H620 H 0.29981 0.87077 0.98004 0.0
H621 H 0.33745 0.88055 0.01004 0.0
H622 H 0.34141 0.91036 0.9989 0.0
H623 H 0.36594 0.89045 0.99864 0.0
H624 H 0.38635 0.87325 0.90832 0.0
H625 H 0.38461 0.91563 0.89727 0.0
H626 H 0.33672 0.92964 0.95498 0.0
C627 C 0.33708 0.83423 0.9766 0.0
C628 C 0.34479 0.81168 0.96773 0.0
C629 C 0.36028 0.81089 0.94836 0.0
C630 C 0.36788 0.83221 0.93778 0.0
C631 C 0.3597 0.85414 0.94671 0.0
C632 C 0.34453 0.8553 0.9656 0.0
C633 C 0.33674 0.88083 0.97045 0.0
C634 C 0.30906 0.88156 0.96662 0.0
C635 C 0.34595 0.89115 0.99603 0.0
C636 C 0.34962 0.89378 0.95112 0.0
C637 C 0.36304 0.87812 0.93787 0.0
C638 C 0.37593 0.88568 0.91858 0.0
C639 C 0.3747 0.90976 0.91235 0.0
C640 C 0.36041 0.92597 0.92515 0.0
C641 C 0.34808 0.91786 0.94506 0.0
H642 H 0.61534 0.27183 0.4605 0.0
H643 H 0.63883 0.27827 0.38771 0.0
H644 H 0.63466 0.32249 0.39182 0.0
H645 H 0.57113 0.32353 0.45939 0.0
H646 H 0.57951 0.32882 0.49123 0.0
H647 H 0.57974 0.29876 0.47684 0.0
H648 H 0.62453 0.30058 0.49694 0.0
H649 H 0.62378 0.33214 0.50656 0.0
H650 H 0.64651 0.32251 0.48681 0.0
H651 H 0.63511 0.36676 0.40696 0.0
H652 H 0.63564 0.40637 0.43002 0.0
H653 H 0.60656 0.3703 0.49063 0.0
C654 C 0.61904 0.28245 0.4452 0.0
C655 C 0.6277 0.27168 0.4239 0.0
C656 C 0.6323 0.28617 0.40427 0.0
C657 C 0.62995 0.31131 0.40641 0.0
C658 C 0.6224 0.32155 0.42808 0.0
C659 C 0.61634 0.30747 0.44688 0.0
C660 C 0.61011 0.32303 0.4688 0.0
C661 C 0.58353 0.31826 0.47438 0.0
C662 C 0.62727 0.31934 0.49107 0.0
C663 C 0.6144 0.34799 0.4597 0.0
C664 C 0.62154 0.3469 0.43625 0.0
C665 C 0.62878 0.36783 0.42509 0.0
C666 C 0.62884 0.39036 0.43835 0.0
C667 C 0.62126 0.39188 0.46242 0.0
C668 C 0.61319 0.37023 0.47266 0.0
H669 H 0.69776 0.71583 0.02864 0.0
H670 H 0.71836 0.70358 0.95469 0.0
H671 H 0.73954 0.66764 0.96649 0.0
H672 H 0.75274 0.69867 0.05844 0.0
H673 H 0.73762 0.68413 0.08211 0.0
H674 H 0.72427 0.70889 0.06777 0.0
H675 H 0.68478 0.68177 0.05668 0.0
H676 H 0.69803 0.65694 0.07099 0.0
H677 H 0.68628 0.65303 0.03979 0.0
H678 H 0.75895 0.63319 0.98678 0.0
H679 H 0.77475 0.60305 0.01381 0.0
H680 H 0.73973 0.63736 0.07377 0.0
C681 C 0.70677 0.70566 0.01491 0.0
C682 C 0.70648 0.71256 0.99076 0.0
C683 C 0.71837 0.69864 0.97332 0.0
C684 C 0.73044 0.6782 0.97984 0.0
C685 C 0.73032 0.67188 0.00382 0.0
C686 C 0.71873 0.68518 0.02105 0.0
C687 C 0.72104 0.67451 0.04552 0.0
C688 C 0.73474 0.69263 0.06458 0.0
C689 C 0.69605 0.66606 0.05371 0.0
C690 C 0.73589 0.65321 0.03944 0.0
C691 C 0.7411 0.65196 0.01533 0.0
C692 C 0.75487 0.63392 0.00567 0.0
C693 C 0.76364 0.6168 0.02113 0.0
C694 C 0.75855 0.61783 0.04595 0.0
C695 C 0.7443 0.63623 0.05501 0.0
H696 H 0.54945 0.28002 0.18103 0.0
H697 H 0.6223 0.25655 0.17555 0.0
H698 H 0.61296 0.24505 0.13189 0.0
H699 H 0.51945 0.23322 0.14277 0.0
H700 H 0.49771 0.25215 0.12928 0.0
H701 H 0.51078 0.25994 0.15954 0.0
H702 H 0.52539 0.30246 0.14682 0.0
H703 H 0.51232 0.29478 0.11648 0.0
H704 H 0.54393 0.3048 0.12132 0.0
H705 H 0.59427 0.23326 0.08928 0.0
H706 H 0.56795 0.22248 0.05184 0.0
H707 H 0.50841 0.25577 0.08546 0.0
C708 C 0.56354 0.27266 0.17064 0.0
C709 C 0.58659 0.26914 0.1817 0.0
C710 C 0.60452 0.25946 0.16743 0.0
C711 C 0.59939 0.2529 0.14263 0.0
C712 C 0.57637 0.25641 0.13234 0.0
C713 C 0.55882 0.26624 0.14592 0.0
C714 C 0.53527 0.2675 0.13088 0.0
C715 C 0.51459 0.25229 0.14124 0.0
C716 C 0.52886 0.29396 0.12875 0.0
C717 C 0.54207 0.25627 0.10686 0.0
C718 C 0.56586 0.25009 0.10792 0.0
C719 C 0.5757 0.23831 0.08816 0.0
C720 C 0.56067 0.23235 0.06694 0.0
C721 C 0.53609 0.23814 0.06575 0.0
C722 C 0.52702 0.25077 0.08586 0.0
H723 H 0.93795 0.3157 0.78048 0.0
H724 H 0.00184 0.36469 0.79764 0.0
H725 H 0.99188 0.3682 0.84058 0.0
H726 H 0.89879 0.34502 0.82314 0.0
H727 H 0.88463 0.31644 0.83052 0.0
H728 H 0.89568 0.31963 0.80087 0.0
H729 H 0.92191 0.28296 0.80663 0.0
H730 H 0.91109 0.27977 0.83632 0.0
H731 H 0.94318 0.28345 0.83269 0.0
H732 H 0.97663 0.36364 0.88234 0.0
H733 H 0.9563 0.35267 0.9191 0.0
H734 H 0.90287 0.30645 0.87421 0.0
C735 C 0.94963 0.32755 0.79314 0.0
C736 C 0.97063 0.34 0.78566 0.0
C737 C 0.98557 0.35507 0.80291 0.0
C738 C 0.98009 0.35716 0.82735 0.0
C739 C 0.95954 0.34418 0.83421 0.0
C740 C 0.94444 0.32983 0.81755 0.0
C741 C 0.92411 0.31683 0.82969 0.0
C742 C 0.89934 0.32497 0.82051 0.0
C743 C 0.92515 0.28911 0.82612 0.0
C744 C 0.93035 0.32577 0.85585 0.0
C745 C 0.95078 0.34159 0.85813 0.0
C746 C 0.96049 0.35144 0.88073 0.0
C747 C 0.94894 0.34498 0.90151 0.0
C748 C 0.92793 0.32883 0.89951 0.0
C749 C 0.91861 0.31921 0.87631 0.0
H750 H 0.41666 0.64421 0.31626 0.0
H751 H 0.35336 0.68313 0.33218 0.0
H752 H 0.36613 0.68528 0.37576 0.0
H753 H 0.41755 0.61047 0.37667 0.0
H754 H 0.45013 0.61178 0.37751 0.0
H755 H 0.43263 0.60822 0.34893 0.0
H756 H 0.45717 0.64682 0.33535 0.0
H757 H 0.47384 0.64977 0.36433 0.0
H758 H 0.45753 0.67477 0.35395 0.0
H759 H 0.39022 0.69109 0.41562 0.0
H760 H 0.42226 0.69756 0.44868 0.0
H761 H 0.46776 0.65095 0.40807 0.0
C762 C 0.40488 0.65214 0.32901 0.0
C763 C 0.38396 0.66337 0.32081 0.0
C764 C 0.36939 0.67426 0.33801 0.0
C765 C 0.37648 0.67555 0.36284 0.0
C766 C 0.39776 0.66519 0.37024 0.0
C767 C 0.41132 0.6529 0.35392 0.0
C768 C 0.43439 0.64498 0.36635 0.0
C769 C 0.43361 0.61724 0.3674 0.0
C770 C 0.45705 0.65468 0.35429 0.0
C771 C 0.4328 0.65684 0.39147 0.0
C772 C 0.41124 0.66778 0.39363 0.0
C773 C 0.40684 0.68192 0.41441 0.0
C774 C 0.42516 0.68541 0.4332 0.0
C775 C 0.44763 0.67475 0.43107 0.0
C776 C 0.45094 0.65954 0.41025 0.0
H777 H 0.05026 0.73057 0.6815 0.0
H778 H 0.97705 0.75184 0.66625 0.0
H779 H 0.98984 0.77019 0.62913 0.0
H780 H 0.08154 0.78408 0.65979 0.0
H781 H 0.10496 0.76702 0.64714 0.0
H782 H 0.09024 0.75675 0.67312 0.0
H783 H 0.07874 0.71505 0.64995 0.0
H784 H 0.09332 0.72523 0.62389 0.0
H785 H 0.062 0.71388 0.62086 0.0
H786 H 0.01035 0.78448 0.59246 0.0
H787 H 0.03735 0.79479 0.56008 0.0
H788 H 0.09671 0.76359 0.59944 0.0
C789 C 0.03695 0.73934 0.67054 0.0
C790 C 0.01265 0.73982 0.67684 0.0
C791 C 0.99579 0.75131 0.66185 0.0
C792 C 0.00287 0.76177 0.64071 0.0
C793 C 0.02689 0.76064 0.63485 0.0
C794 C 0.0437 0.74984 0.64942 0.0
C795 C 0.06822 0.75044 0.63877 0.0
C796 C 0.08737 0.76547 0.65572 0.0
C797 C 0.07601 0.72461 0.63302 0.0
C798 C 0.06254 0.76307 0.61583 0.0
C799 C 0.03864 0.76886 0.61386 0.0
C800 C 0.02914 0.78015 0.59388 0.0
C801 C 0.04454 0.7858 0.57553 0.0
C802 C 0.06916 0.78017 0.57731 0.0
C803 C 0.07811 0.76858 0.59774 0.0
H804 H 0.79766 0.41278 0.72749 0.0
H805 H 0.78334 0.3467 0.68093 0.0
H806 H 0.82421 0.35203 0.66585 0.0
H807 H 0.82866 0.44635 0.68661 0.0
H808 H 0.85063 0.46148 0.7088 0.0
H809 H 0.82121 0.45133 0.71771 0.0
H810 H 0.84115 0.42631 0.75066 0.0
H811 H 0.87069 0.43658 0.74199 0.0
H812 H 0.86254 0.40455 0.74218 0.0
H813 H 0.8649 0.36692 0.65272 0.0
H814 H 0.90307 0.38911 0.64409 0.0
H815 H 0.89163 0.44422 0.70089 0.0
C816 C 0.80326 0.39919 0.71443 0.0
C817 C 0.7873 0.37932 0.7054 0.0
C818 C 0.79528 0.36202 0.68821 0.0
C819 C 0.81846 0.3649 0.67951 0.0
C820 C 0.83354 0.38499 0.6884 0.0
C821 C 0.82638 0.40168 0.70572 0.0
C822 C 0.84564 0.42217 0.71161 0.0
C823 C 0.83595 0.44678 0.70583 0.0
C824 C 0.8556 0.4224 0.73819 0.0
C825 C 0.86444 0.41479 0.69438 0.0
C826 C 0.85719 0.39326 0.68122 0.0
C827 C 0.87098 0.38357 0.66323 0.0
C828 C 0.89272 0.39628 0.65854 0.0
C829 C 0.90053 0.41843 0.67183 0.0
C830 C 0.88619 0.42752 0.69017 0.0
H831 H 0.69108 0.68235 0.29761 0.0
H832 H 0.74407 0.65954 0.35113 0.0
H833 H 0.71605 0.62493 0.35908 0.0
H834 H 0.63502 0.6612 0.3285 0.0
H835 H 0.61957 0.65232 0.29945 0.0
H836 H 0.64198 0.67759 0.30237 0.0
H837 H 0.66428 0.65599 0.26776 0.0
H838 H 0.6424 0.63047 0.26605 0.0
H839 H 0.67414 0.62594 0.27161 0.0
H840 H 0.68552 0.58945 0.35625 0.0
H841 H 0.65241 0.558 0.3466 0.0
H842 H 0.62048 0.60293 0.29312 0.0
C843 C 0.6965 0.67053 0.31155 0.0
C844 C 0.71975 0.67367 0.32378 0.0
C845 C 0.72633 0.65753 0.34158 0.0
C846 C 0.71052 0.63783 0.34625 0.0
C847 C 0.68817 0.63462 0.33307 0.0
C848 C 0.68099 0.65072 0.31634 0.0
C849 C 0.65704 0.64195 0.303 0.0
C850 C 0.63724 0.65931 0.30867 0.0
C851 C 0.65964 0.63837 0.27549 0.0
C852 C 0.65237 0.61796 0.31416 0.0
C853 C 0.67037 0.6142 0.33166 0.0
C854 C 0.67087 0.59259 0.34323 0.0
C855 C 0.6522 0.57459 0.33722 0.0
C856 C 0.63372 0.57785 0.31903 0.0
C857 C 0.63387 0.59999 0.30754 0.0
H858 H 0.32075 0.97884 0.27012 0.0
H859 H 0.33332 0.03688 0.32681 0.0
H860 H 0.37426 0.02342 0.33638 0.0
H861 H 0.35034 0.934 0.30001 0.0
H862 H 0.36377 0.92124 0.27367 0.0
H863 H 0.33592 0.93614 0.27017 0.0
H864 H 0.35536 0.9652 0.2408 0.0
H865 H 0.38319 0.95016 0.24395 0.0
H866 H 0.38334 0.98252 0.25034 0.0
H867 H 0.41149 0.0007 0.34301 0.0
H868 H 0.44493 0.97357 0.34299 0.0
H869 H 0.41023 0.93302 0.27892 0.0
C870 C 0.33228 0.98891 0.2843 0.0
C871 C 0.3239 0.00885 0.29778 0.0
C872 C 0.33947 0.02163 0.31618 0.0
C873 C 0.3627 0.01407 0.32181 0.0
C874 C 0.37022 0.99401 0.30854 0.0
C875 C 0.35572 0.98192 0.28982 0.0
C876 C 0.36824 0.96091 0.27841 0.0
C877 C 0.35369 0.93665 0.28071 0.0
C878 C 0.37281 0.96495 0.2518 0.0
C879 C 0.39172 0.96267 0.29413 0.0
C880 C 0.39242 0.98178 0.31148 0.0
C881 C 0.41149 0.98606 0.32909 0.0
C882 C 0.43053 0.97057 0.32879 0.0
C883 C 0.43067 0.95121 0.31071 0.0
C884 C 0.41086 0.9474 0.29316 0.0
H885 H 0.17082 0.97006 0.69939 0.0
H886 H 0.19766 0.0135 0.64289 0.0
H887 H 0.16405 0.04039 0.64769 0.0
H888 H 0.10572 0.97619 0.68543 0.0
H889 H 0.09934 0.97832 0.717 0.0
H890 H 0.12383 0.96096 0.70719 0.0
H891 H 0.15367 0.98633 0.73827 0.0
H892 H 0.12934 0.00379 0.74811 0.0
H893 H 0.15608 0.01893 0.7376 0.0
H894 H 0.12909 0.06385 0.66037 0.0
H895 H 0.09608 0.08297 0.68069 0.0
H896 H 0.09341 0.02525 0.73033 0.0
C897 C 0.16934 0.98493 0.68766 0.0
C898 C 0.18671 0.98961 0.67062 0.0
C899 C 0.18448 0.00956 0.656 0.0
C900 C 0.16543 0.02487 0.65855 0.0
C901 C 0.14885 0.02 0.67584 0.0
C902 C 0.15062 0.00052 0.69016 0.0
C903 C 0.13159 0.00034 0.70866 0.0
C904 C 0.11408 0.9776 0.7043 0.0
C905 C 0.14338 0.00249 0.73469 0.0
C906 C 0.1191 0.02302 0.7028 0.0
C907 C 0.12912 0.03391 0.68362 0.0
C908 C 0.12107 0.05546 0.67537 0.0
C909 C 0.10245 0.06629 0.68719 0.0
C910 C 0.09224 0.05573 0.70725 0.0
C911 C 0.10058 0.03363 0.71489 0.0
H912 H 0.73049 0.82016 0.35419 0.0
H913 H 0.73806 0.76609 0.40729 0.0
H914 H 0.74828 0.79856 0.43942 0.0
H915 H 0.78084 0.86226 0.38113 0.0
H916 H 0.76496 0.88869 0.37395 0.0
H917 H 0.7596 0.86101 0.35497 0.0
H918 H 0.71371 0.86245 0.36115 0.0
H919 H 0.7194 0.88977 0.38064 0.0
H920 H 0.70355 0.86358 0.3915 0.0
H921 H 0.75139 0.83621 0.46627 0.0
H922 H 0.75534 0.87697 0.48612 0.0
H923 H 0.75232 0.90762 0.41544 0.0
C924 C 0.73474 0.81517 0.3725 0.0
C925 C 0.73347 0.79058 0.37824 0.0
C926 C 0.73907 0.78477 0.40242 0.0
C927 C 0.74475 0.80309 0.42084 0.0
C928 C 0.74519 0.82712 0.41472 0.0
C929 C 0.74094 0.83327 0.39111 0.0
C930 C 0.7427 0.86062 0.38966 0.0
C931 C 0.76328 0.86859 0.374 0.0
C932 C 0.71839 0.86962 0.38017 0.0
C933 C 0.74844 0.8688 0.41619 0.0
C934 C 0.74925 0.84911 0.43027 0.0
C935 C 0.75185 0.85181 0.4554 0.0
C936 C 0.75442 0.87529 0.46651 0.0
C937 C 0.75536 0.89604 0.45257 0.0
C938 C 0.75199 0.89251 0.42693 0.0
H939 H 0.6806 0.15457 0.01885 0.0
H940 H 0.73225 0.20475 0.06159 0.0
H941 H 0.75254 0.17022 0.07793 0.0
H942 H 0.67441 0.11194 0.06448 0.0
H943 H 0.67153 0.08569 0.04326 0.0
H944 H 0.66191 0.11435 0.03393 0.0
H945 H 0.69014 0.11199 0.99835 0.0
H946 H 0.70002 0.0834 0.00774 0.0
H947 H 0.72197 0.10826 0.0046 0.0
H948 H 0.76728 0.13046 0.08957 0.0
H949 H 0.77324 0.08813 0.09876 0.0
H950 H 0.71062 0.06374 0.05029 0.0
C951 C 0.69625 0.15827 0.03156 0.0
C952 C 0.70493 0.18234 0.03888 0.0
C953 C 0.72526 0.18646 0.05577 0.0
C954 C 0.737 0.16697 0.06504 0.0
C955 C 0.72806 0.14347 0.05739 0.0
C956 C 0.708 0.13901 0.04125 0.0
C957 C 0.70132 0.11203 0.03703 0.0
C958 C 0.67578 0.10563 0.04517 0.0
C959 C 0.7035 0.10342 0.01034 0.0
C960 C 0.72068 0.10206 0.05343 0.0
C961 C 0.7361 0.1205 0.06474 0.0
C962 C 0.75525 0.11586 0.08092 0.0
C963 C 0.75841 0.09176 0.08611 0.0
C964 C 0.74231 0.07257 0.07541 0.0
C965 C 0.72345 0.07789 0.05855 0.0
H966 H 0.27667 0.66995 0.64862 0.0
H967 H 0.34997 0.70293 0.65874 0.0
H968 H 0.36455 0.66844 0.63425 0.0
H969 H 0.29251 0.60542 0.64797 0.0
H970 H 0.26906 0.59613 0.62469 0.0
H971 H 0.26517 0.62138 0.64599 0.0
H972 H 0.25721 0.64831 0.60996 0.0
H973 H 0.26153 0.62322 0.58877 0.0
H974 H 0.27956 0.65136 0.58784 0.0
H975 H 0.37049 0.63418 0.60461 0.0
H976 H 0.36731 0.60046 0.57278 0.0
H977 H 0.29041 0.58939 0.58203 0.0
C978 C 0.29589 0.66967 0.64617 0.0
C979 C 0.31226 0.68907 0.65563 0.0
C980 C 0.33718 0.68825 0.65164 0.0
C981 C 0.34562 0.66884 0.63779 0.0
C982 C 0.32889 0.65054 0.62793 0.0
C983 C 0.30459 0.65057 0.63216 0.0
C984 C 0.29018 0.62953 0.61803 0.0
C985 C 0.27856 0.61209 0.63521 0.0
C986 C 0.271 0.63866 0.60009 0.0
C987 C 0.31014 0.61797 0.60488 0.0
C988 C 0.33236 0.63033 0.61094 0.0
C989 C 0.35327 0.62416 0.59991 0.0
C990 C 0.3513 0.60509 0.58188 0.0
C991 C 0.32868 0.59239 0.57525 0.0
C992 C 0.30796 0.59862 0.58718 0.0
H993 H 0.28119 0.35558 0.04383 0.0
H994 H 0.30073 0.29702 0.99452 0.0
H995 H 0.31295 0.32671 0.96539 0.0
H996 H 0.25405 0.38879 0.99835 0.0
H997 H 0.26388 0.41827 0.01251 0.0
H998 H 0.25961 0.39282 0.03084 0.0
H999 H 0.30376 0.40065 0.04928 0.0
H1000 H 0.30821 0.42603 0.03077 0.0
H1001 H 0.32837 0.40171 0.02946 0.0
H1002 H 0.32077 0.36175 0.94076 0.0
H1003 H 0.31933 0.39973 0.91982 0.0
H1004 H 0.29307 0.43603 0.98379 0.0
C1005 C 0.2884 0.34913 0.02704 0.0
C1006 C 0.29021 0.32406 0.02143 0.0
C1007 C 0.29919 0.31616 0.99911 0.0
C1008 C 0.30638 0.33289 0.98257 0.0
C1009 C 0.30429 0.35746 0.98854 0.0
C1010 C 0.29526 0.36561 0.01007 0.0
C1011 C 0.29255 0.39277 0.01082 0.0
C1012 C 0.26594 0.39849 0.01326 0.0
C1013 C 0.30922 0.40607 0.0313 0.0
C1014 C 0.30095 0.39846 0.98611 0.0
C1015 C 0.30812 0.37785 0.97383 0.0
C1016 C 0.31539 0.37805 0.95023 0.0
C1017 C 0.3145 0.39967 0.93849 0.0
C1018 C 0.30617 0.42073 0.95025 0.0
C1019 C 0.29997 0.42029 0.97461 0.0
H1020 H 0.34009 0.74268 0.83664 0.0
H1021 H 0.30127 0.67253 0.8199 0.0
H1022 H 0.31486 0.65973 0.86024 0.0
H1023 H 0.39069 0.72239 0.86377 0.0
H1024 H 0.39605 0.74671 0.88708 0.0
H1025 H 0.37979 0.75186 0.85898 0.0
H1026 H 0.34359 0.76615 0.88238 0.0
H1027 H 0.35989 0.76111 0.91062 0.0
H1028 H 0.33002 0.74671 0.90349 0.0
H1029 H 0.3388 0.65224 0.89915 0.0
H1030 H 0.36933 0.65174 0.93374 0.0
H1031 H 0.39016 0.72752 0.92594 0.0
C1032 C 0.33386 0.72488 0.84172 0.0
C1033 C 0.31963 0.70861 0.82518 0.0
C1034 C 0.31203 0.68537 0.83239 0.0
C1035 C 0.31966 0.67794 0.85527 0.0
C1036 C 0.33444 0.69414 0.87086 0.0
C1037 C 0.34108 0.71731 0.86452 0.0
C1038 C 0.35869 0.73057 0.88351 0.0
C1039 C 0.38271 0.73831 0.87268 0.0
C1040 C 0.34734 0.75243 0.89572 0.0
C1041 C 0.36198 0.71085 0.90088 0.0
C1042 C 0.34765 0.69003 0.89353 0.0
C1043 C 0.34958 0.66866 0.90546 0.0
C1044 C 0.36685 0.66854 0.92514 0.0
C1045 C 0.3819 0.68962 0.9326 0.0
C1046 C 0.37887 0.71113 0.92065 0.0
H1047 H 0.96055 0.68726 0.14675 0.0
H1048 H 0.02008 0.66058 0.18997 0.0
H1049 H 0.04639 0.66492 0.15587 0.0
H1050 H 0.97371 0.65859 0.0894 0.0
H1051 H 0.9657 0.68387 0.07221 0.0
H1052 H 0.9514 0.67844 0.09989 0.0
H1053 H 0.96507 0.72215 0.11697 0.0
H1054 H 0.97935 0.72774 0.08932 0.0
H1055 H 0.99672 0.73223 0.11806 0.0
H1056 H 0.06586 0.67116 0.11688 0.0
H1057 H 0.07792 0.68055 0.07628 0.0
H1058 H 0.00639 0.70539 0.05903 0.0
C1059 C 0.97911 0.68228 0.14903 0.0
C1060 C 0.98826 0.67352 0.171 0.0
C1061 C 0.0127 0.66739 0.17333 0.0
C1062 C 0.02776 0.66973 0.15404 0.0
C1063 C 0.01817 0.67841 0.13263 0.0
C1064 C 0.99447 0.68475 0.13005 0.0
C1065 C 0.98882 0.69406 0.10527 0.0
C1066 C 0.96872 0.67776 0.09085 0.0
C1067 C 0.9821 0.72062 0.10755 0.0
C1068 C 0.01302 0.69185 0.0943 0.0
C1069 C 0.02964 0.68267 0.11036 0.0
C1070 C 0.05309 0.67861 0.10424 0.0
C1071 C 0.05982 0.68421 0.08115 0.0
C1072 C 0.04325 0.69404 0.06442 0.0
C1073 C 0.0195 0.69779 0.07122 0.0
H1074 H 0.59973 0.35355 0.66552 0.0
H1075 H 0.6694 0.32267 0.66025 0.0
H1076 H 0.65845 0.30957 0.61733 0.0
H1077 H 0.56578 0.30846 0.63498 0.0
H1078 H 0.54489 0.32648 0.61893 0.0
H1079 H 0.56004 0.33839 0.64718 0.0
H1080 H 0.57718 0.37602 0.62667 0.0
H1081 H 0.56165 0.36443 0.59831 0.0
H1082 H 0.59384 0.37196 0.59995 0.0
H1083 H 0.63665 0.29197 0.57873 0.0
H1084 H 0.60689 0.27373 0.54682 0.0
H1085 H 0.55216 0.31828 0.57566 0.0
C1086 C 0.61298 0.3447 0.65511 0.0
C1087 C 0.63531 0.33892 0.66626 0.0
C1088 C 0.65216 0.32727 0.65209 0.0
C1089 C 0.64612 0.31981 0.62766 0.0
C1090 C 0.62341 0.32465 0.61752 0.0
C1091 C 0.60732 0.33737 0.63064 0.0
C1092 C 0.58319 0.33812 0.61637 0.0
C1093 C 0.56226 0.3272 0.63019 0.0
C1094 C 0.57871 0.36417 0.60994 0.0
C1095 C 0.58759 0.32222 0.59399 0.0
C1096 C 0.61104 0.31504 0.59475 0.0
C1097 C 0.61845 0.29804 0.57754 0.0
C1098 C 0.60135 0.28776 0.5594 0.0
C1099 C 0.57703 0.29443 0.55861 0.0
C1100 C 0.57047 0.31251 0.57578 0.0
H1101 H 0.0003 0.27325 0.29661 0.0
H1102 H 0.95317 0.3206 0.25907 0.0
H1103 H 0.92958 0.32492 0.29522 0.0
H1104 H 0.95339 0.24181 0.32618 0.0
H1105 H 0.97179 0.23902 0.35376 0.0
H1106 H 0.98579 0.24076 0.32538 0.0
H1107 H 0.01369 0.27751 0.3438 0.0
H1108 H 0.99948 0.27609 0.37214 0.0
H1109 H 0.00037 0.30385 0.35673 0.0
H1110 H 0.91055 0.32354 0.33454 0.0
H1111 H 0.89436 0.3129 0.37334 0.0
H1112 H 0.95309 0.26601 0.38571 0.0
C1113 C 0.98504 0.28456 0.29603 0.0
C1114 C 0.97861 0.29664 0.27502 0.0
C1115 C 0.9584 0.31111 0.27491 0.0
C1116 C 0.94501 0.31384 0.29542 0.0
C1117 C 0.95198 0.30195 0.3159 0.0
C1118 C 0.97132 0.28734 0.31632 0.0
C1119 C 0.97402 0.27543 0.34022 0.0
C1120 C 0.97106 0.24761 0.33613 0.0
C1121 C 0.99834 0.28373 0.35403 0.0
C1122 C 0.95296 0.28537 0.35299 0.0
C1123 C 0.94075 0.30092 0.33872 0.0
C1124 C 0.92003 0.31155 0.34597 0.0
C1125 C 0.91103 0.30548 0.36802 0.0
C1126 C 0.92266 0.28887 0.38249 0.0
C1127 C 0.94424 0.27918 0.37519 0.0
H1128 H 0.31527 0.56396 0.36783 0.0
H1129 H 0.37374 0.62012 0.37176 0.0
H1130 H 0.37802 0.61852 0.41633 0.0
H1131 H 0.28845 0.58482 0.42271 0.0
H1132 H 0.28033 0.55455 0.43103 0.0
H1133 H 0.28198 0.56051 0.39954 0.0
H1134 H 0.31239 0.52709 0.39453 0.0
H1135 H 0.31102 0.52119 0.42607 0.0
H1136 H 0.33982 0.52876 0.41404 0.0
H1137 H 0.37679 0.60929 0.46038 0.0
H1138 H 0.36849 0.59546 0.50076 0.0
H1139 H 0.30943 0.54657 0.46795 0.0
C1140 C 0.32891 0.57599 0.37807 0.0
C1141 C 0.34423 0.59225 0.36635 0.0
C1142 C 0.36175 0.60774 0.38042 0.0
C1143 C 0.36437 0.60682 0.40572 0.0
C1144 C 0.34914 0.5904 0.41667 0.0
C1145 C 0.33158 0.57545 0.40332 0.0
C1146 C 0.3173 0.55963 0.41948 0.0
C1147 C 0.29043 0.56522 0.41811 0.0
C1148 C 0.32033 0.53257 0.41315 0.0
C1149 C 0.32969 0.56786 0.44401 0.0
C1150 C 0.34807 0.58552 0.44201 0.0
C1151 C 0.36227 0.59565 0.4622 0.0
C1152 C 0.35732 0.58775 0.48509 0.0
C1153 C 0.33818 0.57001 0.48766 0.0
C1154 C 0.32436 0.55992 0.4667 0.0
H1155 H 0.24851 0.42432 0.7585 0.0
H1156 H 0.18064 0.3902 0.77882 0.0
H1157 H 0.19065 0.40509 0.82133 0.0
H1158 H 0.28405 0.41021 0.81077 0.0
H1159 H 0.30243 0.43841 0.81324 0.0
H1160 H 0.28931 0.42635 0.78407 0.0
H1161 H 0.26892 0.46665 0.77819 0.0
H1162 H 0.28183 0.47877 0.80748 0.0
H1163 H 0.24954 0.47794 0.80072 0.0
H1164 H 0.20852 0.42154 0.86165 0.0
H1165 H 0.23436 0.43713 0.89796 0.0
H1166 H 0.29057 0.46116 0.85217 0.0
C1167 C 0.23569 0.4201 0.77186 0.0
C1168 C 0.21375 0.4061 0.76526 0.0
C1169 C 0.19755 0.40086 0.78336 0.0
C1170 C 0.20301 0.40935 0.80757 0.0
C1171 C 0.2247 0.42312 0.81343 0.0
C1172 C 0.24086 0.42842 0.79618 0.0
C1173 C 0.26346 0.4426 0.80762 0.0
C1174 C 0.28615 0.42855 0.80369 0.0
C1175 C 0.26608 0.468 0.79792 0.0
C1176 C 0.25763 0.44403 0.83406 0.0
C1177 C 0.23505 0.43285 0.8369 0.0
C1178 C 0.22609 0.4306 0.85966 0.0
C1179 C 0.24082 0.43951 0.88013 0.0
C1180 C 0.26418 0.45055 0.87768 0.0
C1181 C 0.27252 0.45327 0.85437 0.0
H1182 H 0.77407 0.97404 0.64418 0.0
H1183 H 0.839 0.93429 0.65171 0.0
H1184 H 0.83939 0.929 0.60718 0.0
H1185 H 0.74597 0.93753 0.59359 0.0
H1186 H 0.73331 0.96261 0.57913 0.0
H1187 H 0.73866 0.96402 0.61162 0.0
H1188 H 0.76492 0.00427 0.61013 0.0
H1189 H 0.75978 0.00289 0.5776 0.0
H1190 H 0.79029 0.00525 0.59126 0.0
H1191 H 0.83215 0.92692 0.56188 0.0
H1192 H 0.81697 0.9274 0.51894 0.0
H1193 H 0.75689 0.96839 0.54102 0.0
C1194 C 0.78842 0.9643 0.6365 0.0
C1195 C 0.8065 0.95461 0.65149 0.0
C1196 C 0.82492 0.94189 0.64064 0.0
C1197 C 0.82537 0.93884 0.61535 0.0
C1198 C 0.80731 0.94865 0.60113 0.0
C1199 C 0.78916 0.96108 0.61129 0.0
C1200 C 0.77152 0.96923 0.59192 0.0
C1201 C 0.74585 0.95765 0.5942 0.0
C1202 C 0.77165 0.99707 0.59279 0.0
C1203 C 0.78247 0.95922 0.56931 0.0
C1204 C 0.80318 0.94751 0.575 0.0
C1205 C 0.81602 0.93613 0.55717 0.0
C1206 C 0.80725 0.93643 0.53288 0.0
C1207 C 0.78585 0.94802 0.52669 0.0
C1208 C 0.77355 0.95979 0.54518 0.0
H1209 H 0.72332 0.04136 0.25558 0.0
H1210 H 0.76407 0.97861 0.26941 0.0
H1211 H 0.77479 0.97597 0.22668 0.0
H1212 H 0.69766 0.01899 0.19846 0.0
H1213 H 0.69876 0.04797 0.18525 0.0
H1214 H 0.69658 0.04655 0.21743 0.0
H1215 H 0.7353 0.07546 0.22541 0.0
H1216 H 0.73757 0.077 0.1932 0.0
H1217 H 0.76277 0.06774 0.2118 0.0
H1218 H 0.77906 0.97883 0.18183 0.0
H1219 H 0.77572 0.98634 0.13824 0.0
H1220 H 0.73039 0.04589 0.1538 0.0
C1221 C 0.73491 0.02736 0.24977 0.0
C1222 C 0.74304 0.01031 0.26586 0.0
C1223 C 0.75771 0.99192 0.2574 0.0
C1224 C 0.76395 0.99031 0.23319 0.0
C1225 C 0.75528 0.00718 0.21769 0.0
C1226 C 0.74106 0.02533 0.22564 0.0
C1227 C 0.73259 0.04008 0.205 0.0
C1228 C 0.70475 0.03827 0.20133 0.0
C1229 C 0.74267 0.06665 0.2091 0.0
C1230 C 0.74398 0.02719 0.18412 0.0
C1231 C 0.75722 0.00843 0.19181 0.0
C1232 C 0.76881 0.99353 0.17561 0.0
C1233 C 0.76666 0.99783 0.15087 0.0
C1234 C 0.75283 0.01673 0.14254 0.0
C1235 C 0.74151 0.03162 0.15955 0.0
H1236 H 0.39247 0.30181 0.58498 0.0
H1237 H 0.36248 0.22887 0.56261 0.0
H1238 H 0.40253 0.21804 0.54984 0.0
H1239 H 0.42926 0.30867 0.53646 0.0
H1240 H 0.45403 0.32534 0.55408 0.0
H1241 H 0.42363 0.32677 0.56351 0.0
H1242 H 0.4373 0.31237 0.60558 0.0
H1243 H 0.46782 0.31102 0.59632 0.0
H1244 H 0.45251 0.28459 0.60731 0.0
H1245 H 0.4449 0.21625 0.53622 0.0
H1246 H 0.48704 0.22317 0.52457 0.0
H1247 H 0.48919 0.29708 0.55616 0.0
C1248 C 0.39436 0.28343 0.57777 0.0
C1249 C 0.37429 0.26619 0.57483 0.0
C1250 C 0.37758 0.24239 0.56513 0.0
C1251 C 0.40026 0.23605 0.55781 0.0
C1252 C 0.41951 0.25365 0.56049 0.0
C1253 C 0.41685 0.27678 0.57045 0.0
C1254 C 0.44013 0.29263 0.57042 0.0
C1255 C 0.43654 0.31464 0.55521 0.0
C1256 C 0.45002 0.30062 0.59646 0.0
C1257 C 0.45615 0.27496 0.55841 0.0
C1258 C 0.44397 0.25254 0.55288 0.0
C1259 C 0.45471 0.23364 0.5407 0.0
C1260 C 0.47855 0.23777 0.53402 0.0
C1261 C 0.49135 0.2606 0.53958 0.0
C1262 C 0.47997 0.27932 0.55205 0.0
H1263 H 0.22567 0.70601 0.03029 0.0
H1264 H 0.23285 0.76458 0.982 0.0
H1265 H 0.18851 0.76777 0.98034 0.0
H1266 H 0.17202 0.67729 0.00168 0.0
H1267 H 0.15918 0.66911 0.02941 0.0
H1268 H 0.19156 0.6725 0.02799 0.0
H1269 H 0.19446 0.70404 0.06489 0.0
H1270 H 0.16206 0.7007 0.06646 0.0
H1271 H 0.17681 0.7303 0.06386 0.0
H1272 H 0.14296 0.76242 0.98161 0.0
H1273 H 0.10004 0.75006 0.98723 0.0
H1274 H 0.12316 0.69566 0.03521 0.0
C1275 C 0.218 0.71971 0.01956 0.0
C1276 C 0.23277 0.73504 0.00626 0.0
C1277 C 0.22193 0.75267 0.99241 0.0
C1278 C 0.19676 0.75462 0.99133 0.0
C1279 C 0.18271 0.73896 0.00439 0.0
C1280 C 0.19298 0.72199 0.0184 0.0
C1281 C 0.17388 0.70687 0.0302 0.0
C1282 C 0.17419 0.67985 0.02181 0.0
C1283 C 0.17699 0.71072 0.058 0.0
C1284 C 0.1512 0.7177 0.02031 0.0
C1285 C 0.15663 0.7362 0.00547 0.0
C1286 C 0.13851 0.74814 0.99341 0.0
C1287 C 0.11423 0.74095 0.9966 0.0
C1288 C 0.10835 0.72209 0.01181 0.0
C1289 C 0.12714 0.71047 0.02386 0.0
H1290 H 0.73334 0.22567 0.43245 0.0
H1291 H 0.73184 0.17987 0.36562 0.0
H1292 H 0.77514 0.19131 0.36204 0.0
H1293 H 0.7741 0.27376 0.4141 0.0
H1294 H 0.78949 0.27917 0.44379 0.0
H1295 H 0.75821 0.2678 0.44078 0.0
H1296 H 0.76901 0.23125 0.46551 0.0
H1297 H 0.80036 0.24241 0.46845 0.0
H1298 H 0.79211 0.21206 0.45559 0.0
H1299 H 0.81863 0.20686 0.36615 0.0
H1300 H 0.85943 0.22632 0.37719 0.0
H1301 H 0.83258 0.26226 0.44115 0.0
C1302 C 0.74204 0.21815 0.41696 0.0
C1303 C 0.72916 0.20189 0.39929 0.0
C1304 C 0.74129 0.19239 0.37937 0.0
C1305 C 0.7659 0.19875 0.37718 0.0
C1306 C 0.77808 0.21462 0.39505 0.0
C1307 C 0.76658 0.22427 0.4145 0.0
C1308 C 0.78391 0.24076 0.43131 0.0
C1309 C 0.77595 0.26692 0.43255 0.0
C1310 C 0.7865 0.23103 0.45672 0.0
C1311 C 0.80699 0.23879 0.41829 0.0
C1312 C 0.80321 0.22363 0.39741 0.0
C1313 C 0.8218 0.21888 0.38237 0.0
C1314 C 0.84486 0.2301 0.38874 0.0
C1315 C 0.84912 0.24589 0.40995 0.0
C1316 C 0.82991 0.25013 0.42495 0.0
H1317 H 0.58778 0.73249 0.97042 0.0
H1318 H 0.57212 0.79729 0.93342 0.0
H1319 H 0.52851 0.78518 0.93193 0.0
H1320 H 0.54045 0.69246 0.93726 0.0
H1321 H 0.53356 0.67615 0.96344 0.0
H1322 H 0.56375 0.68941 0.96089 0.0
H1323 H 0.56189 0.71306 0.00256 0.0
H1324 H 0.53163 0.70003 0.00516 0.0
H1325 H 0.53748 0.73253 0.00733 0.0
H1326 H 0.48683 0.76759 0.93627 0.0
H1327 H 0.44922 0.74432 0.94419 0.0
H1328 H 0.49133 0.68993 0.97723 0.0
C1329 C 0.57521 0.74403 0.9618 0.0
C1330 C 0.58343 0.76588 0.95204 0.0
C1331 C 0.56633 0.78047 0.941 0.0
C1332 C 0.54149 0.77377 0.94009 0.0
C1333 C 0.534 0.75236 0.95018 0.0
C1334 C 0.55029 0.73758 0.96065 0.0
C1335 C 0.53729 0.71564 0.97038 0.0
C1336 C 0.54417 0.69202 0.9572 0.0
C1337 C 0.54238 0.71531 0.998 0.0
C1338 C 0.51115 0.7206 0.96393 0.0
C1339 C 0.50975 0.7419 0.95231 0.0
C1340 C 0.48767 0.75069 0.94505 0.0
C1341 C 0.4664 0.73723 0.94952 0.0
C1342 C 0.46725 0.71504 0.96099 0.0
C1343 C 0.49002 0.70678 0.96844 0.0
H1344 H 0.6004 0.37392 0.25931 0.0
H1345 H 0.64841 0.36409 0.32252 0.0
H1346 H 0.65041 0.40813 0.33312 0.0
H1347 H 0.62889 0.43257 0.24468 0.0
H1348 H 0.60028 0.44419 0.23553 0.0
H1349 H 0.60414 0.4121 0.23188 0.0
H1350 H 0.56688 0.40366 0.25691 0.0
H1351 H 0.56307 0.4357 0.26086 0.0
H1352 H 0.56636 0.41802 0.287 0.0
H1353 H 0.64466 0.45255 0.33874 0.0
H1354 H 0.63311 0.4948 0.33788 0.0
H1355 H 0.58971 0.47609 0.27046 0.0
C1356 C 0.61169 0.38105 0.27514 0.0
C1357 C 0.6243 0.3655 0.29004 0.0
C1358 C 0.63864 0.37559 0.31076 0.0
C1359 C 0.63988 0.4006 0.31696 0.0
C1360 C 0.6268 0.41532 0.3022 0.0
C1361 C 0.61316 0.40598 0.2816 0.0
C1362 C 0.60012 0.42566 0.26935 0.0
C1363 C 0.60889 0.42881 0.24385 0.0
C1364 C 0.57247 0.42044 0.26849 0.0
C1365 C 0.60826 0.44742 0.28653 0.0
C1366 C 0.62369 0.44106 0.30531 0.0
C1367 C 0.6329 0.45784 0.32391 0.0
C1368 C 0.62631 0.48183 0.32319 0.0
C1369 C 0.61069 0.48888 0.30397 0.0
C1370 C 0.60159 0.47132 0.28545 0.0
H1371 H 0.0467 0.23398 0.68356 0.0
H1372 H 0.03162 0.26164 0.75584 0.0
H1373 H 0.04323 0.22328 0.77216 0.0
H1374 H 0.02125 0.17701 0.68716 0.0
H1375 H 0.04305 0.16123 0.67042 0.0
H1376 H 0.03804 0.19226 0.66503 0.0
H1377 H 0.08376 0.20428 0.67453 0.0
H1378 H 0.08898 0.17314 0.67975 0.0
H1379 H 0.09836 0.19683 0.70287 0.0
H1380 H 0.04936 0.17979 0.77934 0.0
H1381 H 0.05207 0.13521 0.77704 0.0
H1382 H 0.06401 0.13625 0.70045 0.0
C1383 C 0.04657 0.23231 0.70295 0.0
C1384 C 0.03825 0.25087 0.71839 0.0
C1385 C 0.038 0.24776 0.74361 0.0
C1386 C 0.04461 0.22601 0.75309 0.0
C1387 C 0.05175 0.2077 0.73718 0.0
C1388 C 0.05315 0.21077 0.71269 0.0
C1389 C 0.05918 0.18756 0.6991 0.0
C1390 C 0.03918 0.17902 0.67927 0.0
C1391 C 0.08405 0.19064 0.68844 0.0
C1392 C 0.05982 0.17066 0.71956 0.0
C1393 C 0.05576 0.18266 0.74145 0.0
C1394 C 0.05316 0.17032 0.76244 0.0
C1395 C 0.05457 0.14504 0.76096 0.0
C1396 C 0.05858 0.13248 0.73866 0.0
C1397 C 0.06162 0.14556 0.71786 0.0
H1398 H 0.39815 0.76475 0.2725 0.0
H1399 H 0.45663 0.74682 0.2272 0.0
H1400 H 0.47681 0.78739 0.23776 0.0
H1401 H 0.39619 0.82702 0.25808 0.0
H1402 H 0.39018 0.83788 0.28835 0.0
H1403 H 0.38027 0.80732 0.27738 0.0
H1404 H 0.40365 0.7907 0.31414 0.0
H1405 H 0.41362 0.82121 0.32523 0.0
H1406 H 0.43554 0.79905 0.31997 0.0
H1407 H 0.49038 0.82994 0.25259 0.0
H1408 H 0.49652 0.87183 0.27083 0.0
H1409 H 0.42992 0.86186 0.30752 0.0
C1410 C 0.41518 0.76934 0.26477 0.0
C1411 C 0.42577 0.75256 0.24898 0.0
C1412 C 0.44814 0.75932 0.23934 0.0
C1413 C 0.45976 0.78233 0.24523 0.0
C1414 C 0.44886 0.79839 0.26084 0.0
C1415 C 0.4271 0.79223 0.27052 0.0
C1416 C 0.41929 0.81291 0.28687 0.0
C1417 C 0.39505 0.82181 0.27707 0.0
C1418 C 0.41796 0.80552 0.31311 0.0
C1419 C 0.44001 0.83168 0.28474 0.0
C1420 C 0.45686 0.82291 0.26965 0.0
C1421 C 0.47741 0.83697 0.26459 0.0
C1422 C 0.48082 0.8607 0.2752 0.0
C1423 C 0.46382 0.87014 0.29078 0.0
C1424 C 0.44318 0.8553 0.29558 0.0
H1425 H 0.94759 0.59727 0.73976 0.0
H1426 H 0.98003 0.63104 0.67971 0.0
H1427 H 0.97485 0.59191 0.65542 0.0
H1428 H 0.97504 0.54211 0.73313 0.0
H1429 H 0.94911 0.52354 0.74083 0.0
H1430 H 0.95351 0.55461 0.75275 0.0
H1431 H 0.91082 0.56307 0.73465 0.0
H1432 H 0.90628 0.53197 0.72267 0.0
H1433 H 0.90313 0.55627 0.70272 0.0
H1434 H 0.96955 0.54834 0.63905 0.0
H1435 H 0.96323 0.50374 0.63147 0.0
H1436 H 0.93345 0.49884 0.70176 0.0
C1437 C 0.95332 0.59657 0.72139 0.0
C1438 C 0.96422 0.61728 0.71167 0.0
C1439 C 0.97157 0.61547 0.68757 0.0
C1440 C 0.96869 0.59332 0.6736 0.0
C1441 C 0.95822 0.5732 0.68388 0.0
C1442 C 0.95046 0.57466 0.70716 0.0
C1443 C 0.9407 0.55015 0.71433 0.0
C1444 C 0.95548 0.54214 0.73657 0.0
C1445 C 0.91362 0.55039 0.71885 0.0
C1446 C 0.94469 0.53456 0.69166 0.0
C1447 C 0.95473 0.54819 0.67427 0.0
C1448 C 0.96138 0.53753 0.65238 0.0
C1449 C 0.95782 0.51224 0.64827 0.0
C1450 C 0.94763 0.49798 0.66592 0.0
C1451 C 0.94076 0.50939 0.68773 0.0
H1452 H 0.67964 0.38308 0.63975 0.0
H1453 H 0.63931 0.43512 0.67967 0.0
H1454 H 0.6234 0.45015 0.64108 0.0
H1455 H 0.69814 0.42309 0.59553 0.0
H1456 H 0.696 0.39992 0.57097 0.0
H1457 H 0.70249 0.39197 0.60163 0.0
H1458 H 0.66565 0.36045 0.59743 0.0
H1459 H 0.65903 0.3682 0.56671 0.0
H1460 H 0.63611 0.36993 0.58832 0.0
H1461 H 0.61282 0.46011 0.59775 0.0
H1462 H 0.60822 0.46394 0.55344 0.0
H1463 H 0.6586 0.40776 0.54273 0.0
C1464 C 0.66735 0.39754 0.64033 0.0
C1465 C 0.66007 0.40745 0.6626 0.0
C1466 C 0.64423 0.42656 0.66272 0.0
C1467 C 0.63537 0.43543 0.64091 0.0
C1468 C 0.64287 0.42521 0.6192 0.0
C1469 C 0.65855 0.40673 0.61878 0.0
C1470 C 0.66463 0.3995 0.59319 0.0
C1471 C 0.69193 0.40389 0.59016 0.0
C1472 C 0.65582 0.37295 0.58599 0.0
C1473 C 0.65008 0.41694 0.57927 0.0
C1474 C 0.6375 0.43152 0.59451 0.0
C1475 C 0.62265 0.44884 0.58564 0.0
C1476 C 0.62034 0.45105 0.56046 0.0
C1477 C 0.63295 0.43612 0.54449 0.0
C1478 C 0.6483 0.41917 0.55427 0.0
H1479 H 0.76787 0.66665 0.22555 0.0
H1480 H 0.84602 0.67134 0.23905 0.0
H1481 H 0.84944 0.64303 0.2034 0.0
H1482 H 0.75981 0.60389 0.20231 0.0
H1483 H 0.73683 0.60988 0.17936 0.0
H1484 H 0.74046 0.62847 0.20742 0.0
H1485 H 0.74599 0.66708 0.18353 0.0
H1486 H 0.74213 0.64865 0.15545 0.0
H1487 H 0.76895 0.66874 0.16189 0.0
H1488 H 0.84405 0.61486 0.16482 0.0
H1489 H 0.83069 0.59345 0.12497 0.0
H1490 H 0.75667 0.61005 0.13585 0.0
C1491 C 0.78576 0.66163 0.2212 0.0
C1492 C 0.80662 0.67055 0.23582 0.0
C1493 C 0.82965 0.66383 0.22908 0.0
C1494 C 0.83179 0.64793 0.20859 0.0
C1495 C 0.81074 0.63918 0.19485 0.0
C1496 C 0.7882 0.64612 0.20075 0.0
C1497 C 0.7685 0.63586 0.18214 0.0
C1498 C 0.75033 0.61849 0.19349 0.0
C1499 C 0.75565 0.6563 0.17004 0.0
C1500 C 0.78346 0.62228 0.16459 0.0
C1501 C 0.80775 0.62401 0.17235 0.0
C1502 C 0.82506 0.61331 0.15866 0.0
C1503 C 0.81736 0.60109 0.13619 0.0
C1504 C 0.79271 0.60005 0.12768 0.0
C1505 C 0.77558 0.61044 0.14222 0.0
H1506 H 0.23108 0.03878 0.37671 0.0
H1507 H 0.19272 0.96903 0.35664 0.0
H1508 H 0.18572 0.9638 0.39975 0.0
H1509 H 0.26196 0.02038 0.42995 0.0
H1510 H 0.26049 0.04911 0.44686 0.0
H1511 H 0.26077 0.04795 0.41431 0.0
H1512 H 0.2208 0.06996 0.4119 0.0
H1513 H 0.22039 0.07113 0.44447 0.0
H1514 H 0.1947 0.05742 0.42585 0.0
H1515 H 0.18408 0.96595 0.44567 0.0
H1516 H 0.18893 0.97481 0.49019 0.0
H1517 H 0.23036 0.04206 0.47944 0.0
C1518 C 0.22096 0.02252 0.38137 0.0
C1519 C 0.21166 0.0047 0.36329 0.0
C1520 C 0.19899 0.98343 0.3701 0.0
C1521 C 0.19522 0.98017 0.39458 0.0
C1522 C 0.2044 0.99827 0.41196 0.0
C1523 C 0.21712 0.01897 0.40563 0.0
C1524 C 0.22612 0.0352 0.42773 0.0
C1525 C 0.25398 0.03833 0.42983 0.0
C1526 C 0.21482 0.05989 0.42746 0.0
C1527 C 0.21661 0.02037 0.44754 0.0
C1528 C 0.20401 0.99919 0.43818 0.0
C1529 C 0.19389 0.98251 0.45319 0.0
C1530 C 0.19684 0.98763 0.47844 0.0
C1531 C 0.20986 0.00921 0.48836 0.0
C1532 C 0.21981 0.02567 0.47254 0.0
H1533 H 0.29052 0.94099 0.74919 0.0
H1534 H 0.32065 0.01037 0.72862 0.0
H1535 H 0.34109 0.01828 0.76945 0.0
H1536 H 0.27665 0.96287 0.80819 0.0
H1537 H 0.28338 0.93535 0.82227 0.0
H1538 H 0.27317 0.93413 0.79068 0.0
H1539 H 0.31141 0.91232 0.77946 0.0
H1540 H 0.32177 0.91351 0.81105 0.0
H1541 H 0.34101 0.92615 0.78927 0.0
H1542 H 0.35725 0.01908 0.81304 0.0
H1543 H 0.36635 0.01366 0.85653 0.0
H1544 H 0.32263 0.94534 0.84941 0.0
C1545 C 0.30164 0.95773 0.75322 0.0
C1546 C 0.30494 0.97457 0.73538 0.0
C1547 C 0.31909 0.99654 0.74149 0.0
C1548 C 0.33045 0.00138 0.7648 0.0
C1549 C 0.32707 0.98424 0.78188 0.0
C1550 C 0.31283 0.96296 0.77645 0.0
C1551 C 0.3109 0.94821 0.79845 0.0
C1552 C 0.28446 0.94496 0.8053 0.0
C1553 C 0.32194 0.92359 0.7943 0.0
C1554 C 0.32615 0.96461 0.81717 0.0
C1555 C 0.33549 0.98519 0.80722 0.0
C1556 C 0.34997 0.00307 0.82106 0.0
C1557 C 0.35489 0.9999 0.84579 0.0
C1558 C 0.34516 0.97911 0.85648 0.0
C1559 C 0.33069 0.96126 0.84181 0.0
H1560 H 0.61707 0.67573 0.3672 0.0
H1561 H 0.64613 0.74821 0.39221 0.0
H1562 H 0.61424 0.75106 0.42131 0.0
H1563 H 0.55445 0.68878 0.37009 0.0
H1564 H 0.54505 0.65932 0.37972 0.0
H1565 H 0.5707 0.66269 0.36149 0.0
H1566 H 0.59667 0.64286 0.39389 0.0
H1567 H 0.57173 0.64016 0.41308 0.0
H1568 H 0.59988 0.65604 0.42466 0.0
H1569 H 0.57962 0.74607 0.44781 0.0
H1570 H 0.54182 0.7351 0.46719 0.0
H1571 H 0.53475 0.66617 0.42461 0.0
C1572 C 0.61684 0.69205 0.37901 0.0
C1573 C 0.6342 0.71164 0.37778 0.0
C1574 C 0.63294 0.73302 0.39295 0.0
C1575 C 0.61503 0.73474 0.40962 0.0
C1576 C 0.59835 0.71503 0.41067 0.0
C1577 C 0.59884 0.6942 0.39556 0.0
C1578 C 0.57793 0.67621 0.39951 0.0
C1579 C 0.56103 0.67149 0.37633 0.0
C1580 C 0.58713 0.65242 0.40833 0.0
C1581 C 0.56578 0.69014 0.41927 0.0
C1582 C 0.57795 0.71239 0.42558 0.0
C1583 C 0.56993 0.72866 0.44311 0.0
C1584 C 0.54857 0.72221 0.45415 0.0
C1585 C 0.53543 0.69978 0.44746 0.0
C1586 C 0.54441 0.68346 0.43004 0.0
H1587 H 0.75244 0.25747 0.9801 0.0
H1588 H 0.72264 0.326 0.96522 0.0
H1589 H 0.7611 0.33973 0.94819 0.0
H1590 H 0.81006 0.28158 0.00048 0.0
H1591 H 0.82593 0.25691 0.98764 0.0
H1592 H 0.79523 0.25157 0.99576 0.0
H1593 H 0.78257 0.23409 0.95193 0.0
H1594 H 0.81331 0.23934 0.94366 0.0
H1595 H 0.78889 0.25204 0.9267 0.0
H1596 H 0.80398 0.34676 0.9354 0.0
H1597 H 0.84809 0.34736 0.93013 0.0
H1598 H 0.84939 0.27437 0.95424 0.0
C1599 C 0.75384 0.27517 0.97276 0.0
C1600 C 0.73475 0.29078 0.97404 0.0
C1601 C 0.7373 0.31397 0.96472 0.0
C1602 C 0.75895 0.32178 0.95481 0.0
C1603 C 0.77771 0.30611 0.95432 0.0
C1604 C 0.77532 0.28328 0.96308 0.0
C1605 C 0.79872 0.27066 0.96245 0.0
C1606 C 0.80803 0.26486 0.9881 0.0
C1607 C 0.79568 0.24767 0.94515 0.0
C1608 C 0.81486 0.29014 0.95248 0.0
C1609 C 0.80237 0.31031 0.94749 0.0
C1610 C 0.81387 0.33097 0.93901 0.0
C1611 C 0.83886 0.33114 0.93599 0.0
C1612 C 0.85202 0.31092 0.94178 0.0
C1613 C 0.83972 0.29008 0.94971 0.0
H1614 H 0.23019 0.82756 0.64749 0.0
H1615 H 0.27182 0.78143 0.60241 0.0
H1616 H 0.24385 0.78677 0.56703 0.0
H1617 H 0.17689 0.80184 0.62772 0.0
H1618 H 0.15951 0.82831 0.62802 0.0
H1619 H 0.18654 0.82821 0.64758 0.0
H1620 H 0.20424 0.86686 0.62929 0.0
H1621 H 0.17703 0.86732 0.60971 0.0
H1622 H 0.20614 0.86733 0.5969 0.0
H1623 H 0.20728 0.78805 0.54016 0.0
H1624 H 0.16491 0.78457 0.52399 0.0
H1625 H 0.14534 0.83011 0.58554 0.0
C1626 C 0.23405 0.81981 0.62981 0.0
C1627 C 0.25335 0.80458 0.62737 0.0
C1628 C 0.25734 0.79354 0.60438 0.0
C1629 C 0.24157 0.79654 0.5842 0.0
C1630 C 0.2218 0.81054 0.58735 0.0
C1631 C 0.21806 0.82224 0.60955 0.0
C1632 C 0.19316 0.83222 0.60925 0.0
C1633 C 0.17816 0.82202 0.62931 0.0
C1634 C 0.19528 0.8601 0.61141 0.0
C1635 C 0.18288 0.82267 0.58419 0.0
C1636 C 0.19998 0.81092 0.57159 0.0
C1637 C 0.19393 0.79788 0.54946 0.0
C1638 C 0.16969 0.79609 0.54034 0.0
C1639 C 0.15162 0.80715 0.55337 0.0
C1640 C 0.15865 0.82143 0.57509 0.0
H1641 H 0.33871 0.23218 0.01957 0.0
H1642 H 0.33727 0.20804 0.0924 0.0
H1643 H 0.37859 0.19358 0.08927 0.0
H1644 H 0.37709 0.18515 0.9936 0.0
H1645 H 0.39313 0.20697 0.97656 0.0
H1646 H 0.36192 0.2106 0.98264 0.0
H1647 H 0.37361 0.25386 0.00236 0.0
H1648 H 0.40468 0.25043 0.99618 0.0
H1649 H 0.3969 0.25791 0.02678 0.0
H1650 H 0.42082 0.18431 0.07886 0.0
H1651 H 0.46249 0.1874 0.06584 0.0
H1652 H 0.43738 0.22299 0.00203 0.0
C1653 C 0.34691 0.22317 0.03454 0.0
C1654 C 0.33486 0.22055 0.05598 0.0
C1655 C 0.34627 0.20973 0.07571 0.0
C1656 C 0.36957 0.20136 0.07398 0.0
C1657 C 0.38116 0.2044 0.05256 0.0
C1658 C 0.3703 0.21539 0.03333 0.0
C1659 C 0.38775 0.21992 0.01389 0.0
C1660 C 0.37948 0.20475 0.99027 0.0
C1661 C 0.39093 0.24714 0.00958 0.0
C1662 C 0.41052 0.21078 0.02563 0.0
C1663 C 0.40609 0.20101 0.04743 0.0
C1664 C 0.42449 0.19206 0.06188 0.0
C1665 C 0.4482 0.19416 0.05441 0.0
C1666 C 0.45352 0.20601 0.03314 0.0
C1667 C 0.43415 0.21359 0.0182 0.0
H1668 H 0.34065 0.65382 0.71119 0.0
H1669 H 0.40113 0.70487 0.70089 0.0
H1670 H 0.42205 0.67213 0.68039 0.0
H1671 H 0.38058 0.60605 0.72687 0.0
H1672 H 0.35926 0.58211 0.7139 0.0
H1673 H 0.3485 0.60993 0.72654 0.0
H1674 H 0.32472 0.61663 0.68524 0.0
H1675 H 0.33458 0.58785 0.67411 0.0
H1676 H 0.34073 0.61439 0.65791 0.0
H1677 H 0.43468 0.6336 0.65788 0.0
H1678 H 0.43997 0.59219 0.6401 0.0
H1679 H 0.3741 0.56612 0.67143 0.0
C1680 C 0.35827 0.65822 0.70457 0.0
C1681 C 0.36854 0.68234 0.70627 0.0
C1682 C 0.39202 0.68702 0.69818 0.0
C1683 C 0.4043 0.66837 0.68695 0.0
C1684 C 0.39322 0.64497 0.6848 0.0
C1685 C 0.37103 0.63976 0.69404 0.0
C1686 C 0.36379 0.6129 0.6912 0.0
C1687 C 0.363 0.60212 0.71611 0.0
C1688 C 0.3395 0.60768 0.67625 0.0
C1689 C 0.38465 0.60399 0.67756 0.0
C1690 C 0.40154 0.62265 0.67406 0.0
C1691 C 0.42176 0.61877 0.66086 0.0
C1692 C 0.42466 0.5952 0.65089 0.0
C1693 C 0.4074 0.57589 0.6542 0.0
C1694 C 0.38744 0.58048 0.66812 0.0
H1695 H 0.96037 0.73328 0.31505 0.0
H1696 H 0.91852 0.74486 0.24835 0.0
H1697 H 0.90816 0.78463 0.2659 0.0
H1698 H 0.92273 0.76421 0.35699 0.0
H1699 H 0.94858 0.77666 0.37617 0.0
H1700 H 0.94998 0.74822 0.35879 0.0
H1701 H 0.98868 0.76667 0.33874 0.0
H1702 H 0.98632 0.79429 0.35713 0.0
H1703 H 0.98659 0.7949 0.32461 0.0
H1704 H 0.90377 0.82409 0.29011 0.0
H1705 H 0.90761 0.86084 0.31833 0.0
H1706 H 0.9542 0.82423 0.36806 0.0
C1707 C 0.94957 0.74428 0.30383 0.0
C1708 C 0.94084 0.73604 0.28004 0.0
C1709 C 0.92556 0.75074 0.26661 0.0
C1710 C 0.91954 0.77339 0.27641 0.0
C1711 C 0.9289 0.78116 0.29971 0.0
C1712 C 0.94368 0.7671 0.31321 0.0
C1713 C 0.95232 0.78015 0.33736 0.0
C1714 C 0.94285 0.7665 0.35858 0.0
C1715 C 0.98011 0.78425 0.3396 0.0
C1716 C 0.94043 0.80385 0.33515 0.0
C1717 C 0.92669 0.80397 0.31347 0.0
C1718 C 0.91437 0.82414 0.3072 0.0
C1719 C 0.91655 0.84486 0.32337 0.0
C1720 C 0.93114 0.84528 0.34534 0.0
C1721 C 0.94294 0.82437 0.35136 0.0
H1722 H 0.58456 0.26495 0.75938 0.0
H1723 H 0.65862 0.26976 0.7902 0.0
H1724 H 0.65499 0.22588 0.79729 0.0
H1725 H 0.55951 0.21869 0.79763 0.0
H1726 H 0.54063 0.20358 0.77281 0.0
H1727 H 0.54804 0.2358 0.77325 0.0
H1728 H 0.56525 0.23031 0.73088 0.0
H1729 H 0.55784 0.19816 0.73027 0.0
H1730 H 0.58849 0.20939 0.72634 0.0
H1731 H 0.64324 0.18141 0.80014 0.0
H1732 H 0.6266 0.13904 0.79424 0.0
H1733 H 0.56195 0.16299 0.7567 0.0
C1734 C 0.59978 0.25679 0.76812 0.0
C1735 C 0.62169 0.2706 0.77479 0.0
C1736 C 0.64162 0.25936 0.78532 0.0
C1737 C 0.63965 0.23456 0.78949 0.0
C1738 C 0.61777 0.22134 0.7826 0.0
C1739 C 0.5983 0.23202 0.77186 0.0
C1740 C 0.57774 0.2134 0.7638 0.0
C1741 C 0.55515 0.21815 0.77771 0.0
C1742 C 0.57201 0.21278 0.73619 0.0
C1743 C 0.58887 0.19046 0.77121 0.0
C1744 C 0.61169 0.1955 0.78258 0.0
C1745 C 0.62548 0.17723 0.79104 0.0
C1746 C 0.61592 0.15313 0.78732 0.0
C1747 C 0.59303 0.14732 0.77458 0.0
C1748 C 0.57931 0.16649 0.76678 0.0
H1749 H 0.018 0.40167 0.2045 0.0
H1750 H 0.06953 0.36919 0.25299 0.0
H1751 H 0.08233 0.40976 0.27228 0.0
H1752 H 0.05547 0.45485 0.19549 0.0
H1753 H 0.03077 0.47455 0.19483 0.0
H1754 H 0.0253 0.44288 0.18528 0.0
H1755 H 0.99253 0.43871 0.21647 0.0
H1756 H 0.99806 0.47034 0.22629 0.0
H1757 H 0.00037 0.44753 0.24803 0.0
H1758 H 0.08988 0.45359 0.28591 0.0
H1759 H 0.0933 0.49829 0.29163 0.0
H1760 H 0.03696 0.50236 0.23425 0.0
C1761 C 0.03199 0.40304 0.21917 0.0
C1762 C 0.04277 0.38222 0.22723 0.0
C1763 C 0.06104 0.38486 0.24646 0.0
C1764 C 0.06836 0.40781 0.25761 0.0
C1765 C 0.0572 0.42789 0.24934 0.0
C1766 C 0.0395 0.42578 0.23049 0.0
C1767 C 0.03084 0.45032 0.22467 0.0
C1768 C 0.03591 0.45598 0.19852 0.0
C1769 C 0.00385 0.4518 0.22914 0.0
C1770 C 0.04665 0.46662 0.24303 0.0
C1771 C 0.06158 0.45326 0.25719 0.0
C1772 C 0.07827 0.46425 0.27497 0.0
C1773 C 0.08011 0.4896 0.27804 0.0
C1774 C 0.06543 0.50369 0.26333 0.0
C1775 C 0.04818 0.492 0.24592 0.0
H1776 H 0.45005 0.60674 0.31257 0.0
H1777 H 0.41886 0.56304 0.24934 0.0
H1778 H 0.45908 0.5471 0.24301 0.0
H1779 H 0.50986 0.62063 0.28971 0.0
H1780 H 0.52515 0.61884 0.31919 0.0
H1781 H 0.49471 0.62852 0.31672 0.0
H1782 H 0.48097 0.59482 0.34418 0.0
H1783 H 0.51121 0.58476 0.34657 0.0
H1784 H 0.4862 0.56366 0.33575 0.0
H1785 H 0.50201 0.53301 0.24658 0.0
H1786 H 0.54422 0.52387 0.25799 0.0
H1787 H 0.546 0.57659 0.3196 0.0
C1788 C 0.45168 0.59393 0.29733 0.0
C1789 C 0.4314 0.58586 0.28163 0.0
C1790 C 0.4343 0.56948 0.26151 0.0
C1791 C 0.45701 0.56031 0.25786 0.0
C1792 C 0.47651 0.56803 0.27433 0.0
C1793 C 0.47407 0.58477 0.29347 0.0
C1794 C 0.49732 0.58944 0.30931 0.0
C1795 C 0.50735 0.61593 0.30868 0.0
C1796 C 0.49369 0.58275 0.33549 0.0
C1797 C 0.51317 0.57217 0.29654 0.0
C1798 C 0.50098 0.5601 0.2763 0.0
C1799 C 0.51178 0.54255 0.26223 0.0
C1800 C 0.53566 0.53734 0.26897 0.0
C1801 C 0.54843 0.54961 0.28961 0.0
C1802 C 0.53691 0.56724 0.30347 0.0
H1803 H 0.07555 0.35793 0.6936 0.0
H1804 H 0.11505 0.39189 0.63799 0.0
H1805 H 0.07717 0.40777 0.62158 0.0
H1806 H 0.01746 0.34379 0.65559 0.0
H1807 H 0.99922 0.3506 0.68061 0.0
H1808 H 0.02828 0.33813 0.68596 0.0
H1809 H 0.04259 0.37409 0.71646 0.0
H1810 H 0.01363 0.38658 0.71205 0.0
H1811 H 0.04091 0.40469 0.70729 0.0
H1812 H 0.03669 0.42516 0.61536 0.0
H1813 H 0.99679 0.44209 0.61949 0.0
H1814 H 0.98403 0.39703 0.67938 0.0
C1815 C 0.07615 0.3681 0.67753 0.0
C1816 C 0.09827 0.37363 0.66705 0.0
C1817 C 0.0983 0.38733 0.64626 0.0
C1818 C 0.07685 0.39638 0.63678 0.0
C1819 C 0.05551 0.39137 0.64813 0.0
C1820 C 0.05497 0.37732 0.66791 0.0
C1821 C 0.0303 0.37648 0.67825 0.0
C1822 C 0.01809 0.35071 0.67492 0.0
C1823 C 0.03198 0.38605 0.70508 0.0
C1824 C 0.01748 0.39342 0.66214 0.0
C1825 C 0.03213 0.40141 0.64453 0.0
C1826 C 0.02489 0.41867 0.62877 0.0
C1827 C 0.00229 0.42829 0.63134 0.0
C1828 C 0.98728 0.42074 0.64965 0.0
C1829 C 0.99484 0.4027 0.66485 0.0
H1830 H 0.89332 0.03587 0.73617 0.0
H1831 H 0.90775 0.96833 0.7685 0.0
H1832 H 0.95131 0.98152 0.77395 0.0
H1833 H 0.94336 0.03876 0.70212 0.0
H1834 H 0.9492 0.07122 0.70611 0.0
H1835 H 0.91893 0.05797 0.70777 0.0
H1836 H 0.91667 0.07924 0.75057 0.0
H1837 H 0.94692 0.09278 0.74896 0.0
H1838 H 0.93975 0.07495 0.77404 0.0
H1839 H 0.99395 1.00012 0.77115 0.0
H1840 H 0.03161 0.02365 0.76252 0.0
H1841 H 0.98863 0.07865 0.73209 0.0
C1842 C 0.90551 0.02405 0.74492 0.0
C1843 C 0.8971 0.00108 0.75194 0.0
C1844 C 0.91374 0.98608 0.7631 0.0
C1845 C 0.93853 0.99341 0.76625 0.0
C1846 C 0.94631 0.01587 0.75837 0.0
C1847 C 0.93021 0.03109 0.74823 0.0
C1848 C 0.94322 0.05359 0.73983 0.0
C1849 C 0.93839 0.05547 0.71233 0.0
C1850 C 0.93622 0.07649 0.75421 0.0
C1851 C 0.96922 0.04836 0.74617 0.0
C1852 C 0.9707 0.02661 0.75699 0.0
C1853 C 0.99298 0.01736 0.76305 0.0
C1854 C 0.01424 0.03074 0.75794 0.0
C1855 C 0.01303 0.05308 0.7469 0.0
C1856 C 0.99017 0.06193 0.7411 0.0
H1857 H 0.60922 0.02407 0.31866 0.0
H1858 H 0.64882 0.97605 0.36331 0.0
H1859 H 0.61135 0.94993 0.36547 0.0
H1860 H 0.55144 0.01768 0.34788 0.0
H1861 H 0.53378 0.01825 0.31948 0.0
H1862 H 0.56309 0.03451 0.32379 0.0
H1863 H 0.57672 0.01132 0.28536 0.0
H1864 H 0.54757 0.99488 0.28103 0.0
H1865 H 0.57471 0.9786 0.28336 0.0
H1866 H 0.57038 0.92708 0.35959 0.0
H1867 H 0.52873 0.91016 0.34728 0.0
H1868 H 0.5166 0.97282 0.30584 0.0
C1869 C 0.60996 0.00833 0.32931 0.0
C1870 C 0.63193 0.00223 0.34097 0.0
C1871 C 0.63215 0.98128 0.35445 0.0
C1872 C 0.61096 0.96627 0.35574 0.0
C1873 C 0.58974 0.97253 0.34351 0.0
C1874 C 0.58905 0.99316 0.33071 0.0
C1875 C 0.56436 0.9951 0.31798 0.0
C1876 C 0.55246 0.01773 0.32788 0.0
C1877 C 0.56595 0.99496 0.2903 0.0
C1878 C 0.55138 0.97207 0.32519 0.0
C1879 C 0.56624 0.95935 0.34004 0.0
C1880 C 0.5585 0.937 0.34816 0.0
C1881 C 0.53492 0.92746 0.34094 0.0
C1882 C 0.51942 0.94023 0.32571 0.0
C1883 C 0.52785 0.96285 0.31786 0.0
H1884 H 0.34187 0.39392 0.5523 0.0
H1885 H 0.27175 0.38454 0.58259 0.0
H1886 H 0.26381 0.42687 0.57431 0.0
H1887 H 0.35619 0.45334 0.57815 0.0
H1888 H 0.37164 0.46355 0.55262 0.0
H1889 H 0.37077 0.432 0.55899 0.0
H1890 H 0.35195 0.41994 0.51552 0.0
H1891 H 0.35279 0.45145 0.50894 0.0
H1892 H 0.3246 0.43312 0.50499 0.0
H1893 H 0.26441 0.47102 0.56382 0.0
H1894 H 0.27469 0.51365 0.55466 0.0
H1895 H 0.34466 0.49358 0.53229 0.0
C1896 C 0.32469 0.4006 0.55698 0.0
C1897 C 0.30733 0.38583 0.56792 0.0
C1898 C 0.28525 0.39547 0.57405 0.0
C1899 C 0.28059 0.41948 0.56942 0.0
C1900 C 0.29826 0.43361 0.55883 0.0
C1901 C 0.31992 0.4245 0.55282 0.0
C1902 C 0.33657 0.44365 0.54292 0.0
C1903 C 0.36018 0.44841 0.55913 0.0
C1904 C 0.34177 0.43661 0.51652 0.0
C1905 C 0.32101 0.46508 0.54443 0.0
C1906 C 0.29887 0.45894 0.55341 0.0
C1907 C 0.28171 0.47601 0.55685 0.0
C1908 C 0.28763 0.50009 0.55158 0.0
C1909 C 0.31037 0.50666 0.54273 0.0
C1910 C 0.32706 0.48886 0.53882 0.0
H1911 H 0.30842 0.60369 0.01781 0.0
H1912 H 0.33543 0.64402 0.95927 0.0
H1913 H 0.33918 0.60553 0.93506 0.0
H1914 H 0.34557 0.55044 0.00875 0.0
H1915 H 0.32118 0.52957 0.01595 0.0
H1916 H 0.32397 0.56006 0.02981 0.0
H1917 H 0.27998 0.56639 0.01395 0.0
H1918 H 0.2771 0.53607 0.99991 0.0
H1919 H 0.2716 0.56148 0.98193 0.0
H1920 H 0.33474 0.56299 0.91534 0.0
H1921 H 0.32434 0.5198 0.9024 0.0
H1922 H 0.3003 0.50738 0.97395 0.0
C1923 C 0.31569 0.60443 1.00014 0.0
C1924 C 0.32179 0.62688 0.99046 0.0
C1925 C 0.33094 0.62703 0.96714 0.0
C1926 C 0.33306 0.60525 0.95324 0.0
C1927 C 0.32616 0.58344 0.96304 0.0
C1928 C 0.31793 0.58287 0.98608 0.0
C1929 C 0.31002 0.55726 0.99178 0.0
C1930 C 0.32615 0.54884 0.01282 0.0
C1931 C 0.28308 0.5552 0.9972 0.0
C1932 C 0.31431 0.54358 0.96805 0.0
C1933 C 0.3238 0.55895 0.95176 0.0
C1934 C 0.32769 0.55074 0.92808 0.0
C1935 C 0.32159 0.52623 0.92085 0.0
C1936 C 0.3117 0.51023 0.93723 0.0
C1937 C 0.30834 0.51906 0.9612 0.0
H1938 H 0.66007 0.05313 0.41121 0.0
H1939 H 0.71671 0.11096 0.42637 0.0
H1940 H 0.74483 0.08138 0.44048 0.0
H1941 H 0.67561 0.0209 0.46401 0.0
H1942 H 0.66876 0.99121 0.44895 0.0
H1943 H 0.65311 0.0167 0.43887 0.0
H1944 H 0.66682 0.00813 0.39548 0.0
H1945 H 0.68231 0.98248 0.40547 0.0
H1946 H 0.69864 0.0061 0.39095 0.0
H1947 H 0.76699 0.04624 0.45273 0.0
H1948 H 0.78104 0.00758 0.46622 0.0
H1949 H 0.71017 0.97206 0.44501 0.0
C1950 C 0.6784 0.05952 0.41746 0.0
C1951 C 0.68617 0.08439 0.41761 0.0
C1952 C 0.71026 0.09206 0.42614 0.0
C1953 C 0.72646 0.07537 0.43406 0.0
C1954 C 0.71831 0.05105 0.43357 0.0
C1955 C 0.69482 0.04309 0.4258 0.0
C1956 C 0.69056 0.01602 0.42838 0.0
C1957 C 0.67084 0.01092 0.44611 0.0
C1958 C 0.68421 0.00237 0.40357 0.0
C1959 C 0.71532 0.01013 0.4388 0.0
C1960 C 0.73106 0.03063 0.44138 0.0
C1961 C 0.75484 0.03006 0.45089 0.0
C1962 C 0.76262 0.00805 0.45854 0.0
C1963 C 0.74665 0.9869 0.4568 0.0
C1964 C 0.72282 0.98789 0.44635 0.0
H1965 H 0.67415 0.8751 0.03029 0.0
H1966 H 0.70887 0.87967 0.96239 0.0
H1967 H 0.72991 0.91888 0.97783 0.0
H1968 H 0.66348 0.93727 0.0388 0.0
H1969 H 0.6694 0.93871 0.07127 0.0
H1970 H 0.65815 0.91055 0.05526 0.0
H1971 H 0.69478 0.88919 0.07347 0.0
H1972 H 0.70609 0.91728 0.08962 0.0
H1973 H 0.72511 0.90142 0.06961 0.0
H1974 H 0.74574 0.95879 0.00045 0.0
H1975 H 0.75603 0.99494 0.02879 0.0
H1976 H 0.71027 0.96363 0.08116 0.0
C1977 C 0.68634 0.88418 0.01869 0.0
C1978 C 0.68987 0.8743 0.99513 0.0
C1979 C 0.70593 0.88687 0.98055 0.0
C1980 C 0.71793 0.90916 0.98914 0.0
C1981 C 0.71374 0.91854 0.01237 0.0
C1982 C 0.69842 0.90634 0.02696 0.0
C1983 C 0.69652 0.92041 0.051 0.0
C1984 C 0.67034 0.92713 0.05425 0.0
C1985 C 0.70621 0.90623 0.07217 0.0
C1986 C 0.713 0.94258 0.04763 0.0
C1987 C 0.72281 0.94124 0.02528 0.0
C1988 C 0.73824 0.95995 0.01804 0.0
C1989 C 0.74386 0.98046 0.03417 0.0
C1990 C 0.7341 0.98202 0.05724 0.0
C1991 C 0.7184 0.9628 0.06386 0.0
H1992 H 0.55124 0.28541 0.36242 0.0
H1993 H 0.60183 0.22886 0.35709 0.0
H1994 H 0.59205 0.2167 0.39778 0.0
H1995 H 0.56691 0.30598 0.41849 0.0
H1996 H 0.53738 0.31159 0.42897 0.0
H1997 H 0.54245 0.31206 0.39728 0.0
H1998 H 0.50811 0.27922 0.38573 0.0
H1999 H 0.50148 0.27915 0.41721 0.0
H2000 H 0.50736 0.25122 0.40074 0.0
H2001 H 0.5855 0.21836 0.44253 0.0
H2002 H 0.57568 0.22805 0.48505 0.0
H2003 H 0.52813 0.28208 0.46068 0.0
C2004 C 0.55984 0.27005 0.3695 0.0
C2005 C 0.57749 0.25826 0.35668 0.0
C2006 C 0.58836 0.2383 0.36665 0.0
C2007 C 0.58299 0.23132 0.38978 0.0
C2008 C 0.56692 0.2446 0.40271 0.0
C2009 C 0.55486 0.26301 0.39259 0.0
C2010 C 0.53969 0.27557 0.41073 0.0
C2011 C 0.54707 0.30291 0.4141 0.0
C2012 C 0.51255 0.271 0.40315 0.0
C2013 C 0.54646 0.26253 0.43315 0.0
C2014 C 0.56202 0.24454 0.42814 0.0
C2015 C 0.57272 0.23182 0.44652 0.0
C2016 C 0.56719 0.23749 0.47056 0.0
C2017 C 0.55088 0.25542 0.47583 0.0
C2018 C 0.54019 0.26785 0.45688 0.0
H2019 H 0.98122 0.32657 0.5673 0.0
H2020 H 0.95656 0.26146 0.60104 0.0
H2021 H 0.93561 0.24548 0.56228 0.0
H2022 H 0.92575 0.33108 0.52968 0.0
H2023 H 0.94128 0.34187 0.50437 0.0
H2024 H 0.95452 0.34829 0.53482 0.0
H2025 H 0.9936 0.3287 0.52251 0.0
H2026 H 0.98038 0.32199 0.49208 0.0
H2027 H 0.9916 0.29797 0.5093 0.0
H2028 H 0.91898 0.23554 0.51987 0.0
H2029 H 0.904 0.23386 0.47698 0.0
H2030 H 0.93705 0.3063 0.47067 0.0
C2031 C 0.97132 0.309 0.56655 0.0
C2032 C 0.97062 0.29525 0.58724 0.0
C2033 C 0.95735 0.27239 0.58551 0.0
C2034 C 0.94547 0.26308 0.56353 0.0
C2035 C 0.94678 0.27691 0.54344 0.0
C2036 C 0.95907 0.2995 0.54475 0.0
C2037 C 0.95706 0.3108 0.52046 0.0
C2038 C 0.94386 0.33441 0.52246 0.0
C2039 C 0.98216 0.31511 0.51051 0.0
C2040 C 0.94186 0.29092 0.50534 0.0
C2041 C 0.93636 0.27148 0.51897 0.0
C2042 C 0.92288 0.25078 0.50907 0.0
C2043 C 0.91433 0.25008 0.48469 0.0
C2044 C 0.91896 0.27009 0.47044 0.0
C2045 C 0.93325 0.29064 0.48095 0.0
H2046 H 0.36758 0.68259 0.12149 0.0
H2047 H 0.42378 0.63535 0.14262 0.0
H2048 H 0.43314 0.62898 0.09978 0.0
H2049 H 0.34868 0.64969 0.06066 0.0
H2050 H 0.34389 0.67809 0.04739 0.0
H2051 H 0.33886 0.67492 0.07892 0.0
H2052 H 0.36867 0.71267 0.09007 0.0
H2053 H 0.37408 0.71522 0.05863 0.0
H2054 H 0.39916 0.71255 0.08044 0.0
H2055 H 0.44119 0.63354 0.05622 0.0
H2056 H 0.44528 0.64655 0.01458 0.0
H2057 H 0.3831 0.68963 0.02149 0.0
C2058 C 0.38135 0.67029 0.11706 0.0
C2059 C 0.39492 0.65945 0.13544 0.0
C2060 C 0.41304 0.64377 0.12887 0.0
C2061 C 0.41848 0.64002 0.10456 0.0
C2062 C 0.4054 0.65176 0.087 0.0
C2063 C 0.38691 0.66626 0.09288 0.0
C2064 C 0.37708 0.67855 0.07098 0.0
C2065 C 0.35055 0.66976 0.06409 0.0
C2066 C 0.37994 0.70639 0.0753 0.0
C2067 C 0.39361 0.66953 0.05211 0.0
C2068 C 0.4097 0.65393 0.06164 0.0
C2069 C 0.42829 0.64522 0.04837 0.0
C2070 C 0.43058 0.65277 0.02484 0.0
C2071 C 0.41429 0.66876 0.01484 0.0
C2072 C 0.39537 0.67687 0.02853 0.0
H2073 H 0.99888 0.70336 0.856 0.0
H2074 H 0.95443 0.63722 0.8639 0.0
H2075 H 0.96567 0.64017 0.90778 0.0
H2076 H 0.04685 0.69142 0.89693 0.0
H2077 H 0.0527 0.72227 0.90936 0.0
H2078 H 0.03958 0.7163 0.87884 0.0
H2079 H 0.00333 0.74156 0.88925 0.0
H2080 H 0.01641 0.74771 0.91982 0.0
H2081 H 0.98597 0.73412 0.91458 0.0
H2082 H 0.98471 0.64791 0.94989 0.0
H2083 H 0.00939 0.66056 0.98757 0.0
H2084 H 0.03979 0.72305 0.95325 0.0
C2085 C 0.99122 0.68971 0.86701 0.0
C2086 C 0.97576 0.67006 0.85645 0.0
C2087 C 0.96627 0.65247 0.87151 0.0
C2088 C 0.97252 0.65399 0.89651 0.0
C2089 C 0.98809 0.67334 0.90628 0.0
C2090 C 0.99716 0.69102 0.89208 0.0
C2091 C 0.01437 0.70935 0.90701 0.0
C2092 C 0.03988 0.70984 0.89746 0.0
C2093 C 0.00442 0.73469 0.90771 0.0
C2094 C 0.01405 0.6988 0.93163 0.0
C2095 C 0.99867 0.67811 0.93082 0.0
C2096 C 0.99645 0.66437 0.9509 0.0
C2097 C 0.01047 0.67184 0.97234 0.0
C2098 C 0.02648 0.69298 0.97365 0.0
C2099 C 0.02789 0.70674 0.95298 0.0
H2100 H 0.55091 0.47276 0.70456 0.0
H2101 H 0.55788 0.4217 0.64297 0.0
H2102 H 0.52323 0.43864 0.62111 0.0
H2103 H 0.48648 0.46913 0.70138 0.0
H2104 H 0.48429 0.50077 0.7103 0.0
H2105 H 0.51045 0.4855 0.72041 0.0
H2106 H 0.53835 0.51792 0.70203 0.0
H2107 H 0.51222 0.5332 0.6917 0.0
H2108 H 0.53359 0.52356 0.67041 0.0
H2109 H 0.48724 0.46059 0.60635 0.0
H2110 H 0.45119 0.48427 0.60072 0.0
H2111 H 0.46714 0.51994 0.67254 0.0
C2112 C 0.54527 0.46524 0.68641 0.0
C2113 C 0.55713 0.44595 0.67544 0.0
C2114 C 0.54902 0.43645 0.65176 0.0
C2115 C 0.52944 0.44603 0.63915 0.0
C2116 C 0.51815 0.46504 0.6505 0.0
C2117 C 0.52567 0.47445 0.67366 0.0
C2118 C 0.50973 0.49407 0.68223 0.0
C2119 C 0.49698 0.48693 0.70492 0.0
C2120 C 0.52435 0.51864 0.68686 0.0
C2121 C 0.49191 0.4941 0.66037 0.0
C2122 C 0.49721 0.4774 0.64217 0.0
C2123 C 0.48293 0.47374 0.62047 0.0
C2124 C 0.46245 0.48721 0.61748 0.0
C2125 C 0.45633 0.504 0.63616 0.0
C2126 C 0.47154 0.50763 0.65772 0.0
H2127 H 0.92023 0.61053 0.24423 0.0
H2128 H 0.93516 0.6659 0.30329 0.0
H2129 H 0.97733 0.65409 0.30813 0.0
H2130 H 0.9548 0.56564 0.27022 0.0
H2131 H 0.96549 0.55434 0.24184 0.0
H2132 H 0.93683 0.56795 0.24226 0.0
H2133 H 0.95115 0.59875 0.21171 0.0
H2134 H 0.97971 0.58492 0.21109 0.0
H2135 H 0.9791 0.617 0.21868 0.0
H2136 H 0.01761 0.63542 0.30725 0.0
H2137 H 0.05252 0.61042 0.30159 0.0
H2138 H 0.0112 0.56745 0.24303 0.0
C2139 C 0.93236 0.62024 0.25814 0.0
C2140 C 0.92439 0.63918 0.27335 0.0
C2141 C 0.94084 0.65132 0.29142 0.0
C2142 C 0.96486 0.6448 0.29426 0.0
C2143 C 0.97213 0.62608 0.27892 0.0
C2144 C 0.95636 0.61395 0.26125 0.0
C2145 C 0.96849 0.59399 0.24762 0.0
C2146 C 0.95564 0.56901 0.25068 0.0
C2147 C 0.96967 0.59897 0.22068 0.0
C2148 C 0.99343 0.59651 0.26066 0.0
C2149 C 0.99526 0.61527 0.2785 0.0
C2150 C 0.01645 0.62078 0.29323 0.0
C2151 C 0.03622 0.60657 0.28979 0.0
C2152 C 0.0346 0.58701 0.27185 0.0
C2153 C 0.01294 0.58216 0.25701 0.0
H2154 H 0.09176 0.94357 0.33614 0.0
H2155 H 0.1087 0.9812 0.40693 0.0
H2156 H 0.07005 0.96413 0.42082 0.0
H2157 H 0.02924 0.95312 0.33244 0.0
H2158 H 0.02031 0.92386 0.31729 0.0
H2159 H 0.04986 0.93799 0.3136 0.0
H2160 H 0.06965 0.89983 0.32839 0.0
H2161 H 0.04012 0.88561 0.33223 0.0
H2162 H 0.06265 0.88894 0.35735 0.0
H2163 H 0.02836 0.94418 0.42623 0.0
H2164 H 0.98725 0.92339 0.4224 0.0
H2165 H 0.99831 0.89965 0.34793 0.0
C2166 C 0.08749 0.94811 0.35464 0.0
C2167 C 0.10327 0.96371 0.37045 0.0
C2168 C 0.09689 0.96927 0.39448 0.0
C2169 C 0.075 0.95962 0.40256 0.0
C2170 C 0.05979 0.9444 0.38641 0.0
C2171 C 0.0658 0.93867 0.36296 0.0
C2172 C 0.04603 0.92263 0.34886 0.0
C2173 C 0.03575 0.93516 0.32675 0.0
C2174 C 0.05517 0.89778 0.34127 0.0
C2175 C 0.02778 0.92046 0.36791 0.0
C2176 C 0.03602 0.93298 0.38952 0.0
C2177 C 0.02179 0.93418 0.40944 0.0
C2178 C 0.99847 0.92242 0.40708 0.0
C2179 C 0.98966 0.90969 0.38496 0.0
C2180 C 0.0047 0.90867 0.36528 0.0
H2181 H 0.42847 0.00465 0.74414 0.0
H2182 H 0.39748 0.05936 0.70098 0.0
H2183 H 0.43504 0.0857 0.70933 0.0
H2184 H 0.46158 0.04634 0.78995 0.0
H2185 H 0.48725 0.02797 0.79247 0.0
H2186 H 0.45744 0.01387 0.78421 0.0
H2187 H 0.47319 0.99365 0.74525 0.0
H2188 H 0.50303 0.00766 0.7534 0.0
H2189 H 0.4881 0.01233 0.72435 0.0
H2190 H 0.47626 0.1055 0.7211 0.0
H2191 H 0.519 0.11683 0.73414 0.0
H2192 H 0.52345 0.04938 0.76981 0.0
C2193 C 0.42949 0.02225 0.73659 0.0
C2194 C 0.40998 0.02996 0.72194 0.0
C2195 C 0.41217 0.05304 0.71224 0.0
C2196 C 0.4334 0.06817 0.71694 0.0
C2197 C 0.45231 0.05998 0.73136 0.0
C2198 C 0.45061 0.03755 0.741 0.0
C2199 C 0.47398 0.03271 0.75508 0.0
C2200 C 0.46981 0.03007 0.78203 0.0
C2201 C 0.48523 0.01026 0.74384 0.0
C2202 C 0.48917 0.0558 0.75158 0.0
C2203 C 0.47622 0.07136 0.73804 0.0
C2204 C 0.48652 0.09356 0.73191 0.0
C2205 C 0.51079 0.09991 0.73956 0.0
C2206 C 0.5246 0.0841 0.75316 0.0
C2207 C 0.51345 0.06184 0.75939 0.0
H2208 H 0.67009 0.56509 0.40086 0.0
H2209 H 0.61774 0.61032 0.43295 0.0
H2210 H 0.60215 0.57566 0.45492 0.0
H2211 H 0.62944 0.50963 0.3931 0.0
H2212 H 0.65358 0.49017 0.39964 0.0
H2213 H 0.65987 0.51831 0.38579 0.0
H2214 H 0.6925 0.53158 0.4205 0.0
H2215 H 0.68628 0.50355 0.43447 0.0
H2216 H 0.6843 0.53211 0.45153 0.0
H2217 H 0.59497 0.53721 0.47624 0.0
H2218 H 0.59475 0.49682 0.49319 0.0
H2219 H 0.64999 0.47597 0.4453 0.0
C2220 C 0.65529 0.56765 0.41246 0.0
C2221 C 0.64526 0.5904 0.41545 0.0
C2222 C 0.62568 0.59301 0.43046 0.0
C2223 C 0.61672 0.57344 0.443 0.0
C2224 C 0.6272 0.5513 0.43989 0.0
C2225 C 0.64581 0.54819 0.42471 0.0
C2226 C 0.65394 0.52255 0.42457 0.0
C2227 C 0.6489 0.50939 0.39928 0.0
C2228 C 0.68085 0.52246 0.4333 0.0
C2229 C 0.63761 0.51196 0.44275 0.0
C2230 C 0.62229 0.52882 0.45134 0.0
C2231 C 0.6066 0.52373 0.46938 0.0
C2232 C 0.60666 0.50084 0.47896 0.0
C2233 C 0.62216 0.48331 0.47035 0.0
C2234 C 0.63762 0.48891 0.45183 0.0
H2235 H 0.73274 0.41888 0.07163 0.0
H2236 H 0.75912 0.40896 0.99965 0.0
H2237 H 0.77584 0.45151 0.00283 0.0
H2238 H 0.71396 0.47813 0.06559 0.0
H2239 H 0.72293 0.48886 0.09646 0.0
H2240 H 0.71458 0.45716 0.08925 0.0
H2241 H 0.75592 0.44611 0.10856 0.0
H2242 H 0.76444 0.47783 0.11578 0.0
H2243 H 0.78356 0.45948 0.0981 0.0
H2244 H 0.78742 0.49571 0.01268 0.0
H2245 H 0.79272 0.53863 0.02846 0.0
H2246 H 0.75907 0.51982 0.09406 0.0
C2247 C 0.74227 0.42555 0.05663 0.0
C2248 C 0.74464 0.41053 0.0354 0.0
C2249 C 0.75707 0.42008 0.01611 0.0
C2250 C 0.7667 0.44422 0.01777 0.0
C2251 C 0.76386 0.45857 0.03886 0.0
C2252 C 0.75199 0.4496 0.05798 0.0
C2253 C 0.75046 0.46915 0.07817 0.0
C2254 C 0.72391 0.47358 0.08261 0.0
C2255 C 0.76443 0.46276 0.10153 0.0
C2256 C 0.76295 0.49061 0.06723 0.0
C2257 C 0.77067 0.48407 0.04461 0.0
C2258 C 0.78165 0.501 0.03046 0.0
C2259 C 0.78452 0.52532 0.03952 0.0
C2260 C 0.77644 0.53248 0.06251 0.0
C2261 C 0.76585 0.51478 0.07664 0.0
H2262 H 0.31321 0.94451 0.65318 0.0
H2263 H 0.25913 0.88438 0.65363 0.0
H2264 H 0.23546 0.90113 0.62004 0.0
H2265 H 0.27376 0.98908 0.64573 0.0
H2266 H 0.29065 0.00662 0.62533 0.0
H2267 H 0.30633 0.98875 0.64644 0.0
H2268 H 0.32639 0.96512 0.61269 0.0
H2269 H 0.31237 0.98368 0.59093 0.0
H2270 H 0.30808 0.95108 0.58693 0.0
H2271 H 0.21614 0.9263 0.58826 0.0
H2272 H 0.20306 0.95789 0.5613 0.0
H2273 H 0.2691 0.00197 0.58332 0.0
C2274 C 0.29657 0.93461 0.64599 0.0
C2275 C 0.28825 0.91289 0.65582 0.0
C2276 C 0.26629 0.90061 0.64599 0.0
C2277 C 0.2526 0.9101 0.62699 0.0
C2278 C 0.26115 0.93182 0.61805 0.0
C2279 C 0.28273 0.94382 0.62716 0.0
C2280 C 0.28734 0.96752 0.61545 0.0
C2281 C 0.28961 0.98926 0.63438 0.0
C2282 C 0.30988 0.96679 0.60061 0.0
C2283 C 0.26448 0.96752 0.59908 0.0
C2284 C 0.24977 0.9466 0.60045 0.0
C2285 C 0.22759 0.94268 0.58696 0.0
C2286 C 0.22032 0.96065 0.57173 0.0
C2287 C 0.23501 0.98235 0.57045 0.0
C2288 C 0.25739 0.98566 0.58422 0.0
H2289 H 0.30797 0.12209 0.97107 0.0
H2290 H 0.36534 0.12544 0.02855 0.0
H2291 H 0.3771 0.08507 0.01382 0.0
H2292 H 0.29102 0.05835 0.97248 0.0
H2293 H 0.28518 0.0538 0.94006 0.0
H2294 H 0.28125 0.08294 0.95517 0.0
H2295 H 0.31085 0.10351 0.92701 0.0
H2296 H 0.3148 0.07446 0.91177 0.0
H2297 H 0.34082 0.09291 0.925 0.0
H2298 H 0.38282 0.04427 0.99246 0.0
H2299 H 0.38267 0.00694 0.96541 0.0
H2300 H 0.32093 0.03015 0.92277 0.0
C2301 C 0.32304 0.11438 0.98056 0.0
C2302 C 0.33571 0.12693 0.00099 0.0
C2303 C 0.3553 0.11615 0.01289 0.0
C2304 C 0.36212 0.09321 0.00468 0.0
C2305 C 0.34914 0.08126 0.98459 0.0
C2306 C 0.33003 0.0915 0.97267 0.0
C2307 C 0.31914 0.07499 0.95142 0.0
C2308 C 0.29258 0.06705 0.95501 0.0
C2309 C 0.32156 0.0872 0.92738 0.0
C2310 C 0.3352 0.05394 0.95315 0.0
C2311 C 0.35235 0.05783 0.97242 0.0
C2312 C 0.36939 0.04099 0.97737 0.0
C2313 C 0.36907 0.01977 0.96201 0.0
C2314 C 0.35184 0.01561 0.94193 0.0
C2315 C 0.33455 0.03289 0.93776 0.0
H2316 H 0.41253 0.6864 0.60916 0.0
H2317 H 0.44368 0.7586 0.63273 0.0
H2318 H 0.4692 0.75779 0.59757 0.0
H2319 H 0.46739 0.66268 0.58585 0.0
H2320 H 0.45073 0.64557 0.56072 0.0
H2321 H 0.43665 0.6511 0.58885 0.0
H2322 H 0.40129 0.67029 0.56583 0.0
H2323 H 0.4152 0.66487 0.53766 0.0
H2324 H 0.40782 0.69513 0.54714 0.0
H2325 H 0.48919 0.74999 0.5583 0.0
H2326 H 0.50081 0.73664 0.51743 0.0
H2327 H 0.45653 0.6695 0.52017 0.0
C2328 C 0.42492 0.70197 0.60716 0.0
C2329 C 0.42617 0.72257 0.62371 0.0
C2330 C 0.44247 0.74262 0.62028 0.0
C2331 C 0.45708 0.74227 0.60043 0.0
C2332 C 0.4552 0.72172 0.58432 0.0
C2333 C 0.43952 0.70194 0.58752 0.0
C2334 C 0.43977 0.68266 0.56695 0.0
C2335 C 0.44921 0.65911 0.57615 0.0
C2336 C 0.41453 0.67798 0.55361 0.0
C2337 C 0.45761 0.69493 0.55129 0.0
C2338 C 0.46657 0.7173 0.56174 0.0
C2339 C 0.48252 0.73239 0.55008 0.0
C2340 C 0.48913 0.7246 0.52694 0.0
C2341 C 0.47963 0.70201 0.51567 0.0
C2342 C 0.46403 0.68688 0.5283 0.0
H2343 H 0.00017 0.7495 0.40064 0.0
H2344 H 0.06086 0.7251 0.36188 0.0
H2345 H 0.08877 0.7391 0.39729 0.0
H2346 H 0.03238 0.80391 0.4303 0.0
H2347 H 0.01707 0.80151 0.45793 0.0
H2348 H 0.00202 0.78997 0.42935 0.0
H2349 H 0.99478 0.74778 0.44649 0.0
H2350 H 0.00984 0.75916 0.47507 0.0
H2351 H 0.02023 0.73283 0.45904 0.0
H2352 H 0.10949 0.75313 0.4379 0.0
H2353 H 0.12201 0.76769 0.47995 0.0
H2354 H 0.04821 0.78608 0.49118 0.0
C2355 C 0.01934 0.74711 0.3996 0.0
C2356 C 0.02837 0.73605 0.3786 0.0
C2357 C 0.05358 0.73352 0.37781 0.0
C2358 C 0.06955 0.74141 0.39782 0.0
C2359 C 0.06005 0.75212 0.41831 0.0
C2360 C 0.03556 0.75521 0.41925 0.0
C2361 C 0.03001 0.76729 0.44342 0.0
C2362 C 0.01977 0.79215 0.44004 0.0
C2363 C 0.0127 0.75077 0.45679 0.0
C2364 C 0.05513 0.77 0.45615 0.0
C2365 C 0.07217 0.76114 0.44135 0.0
C2366 C 0.09639 0.76055 0.44951 0.0
C2367 C 0.10335 0.76911 0.47346 0.0
C2368 C 0.08624 0.77843 0.48906 0.0
C2369 C 0.06183 0.77903 0.47998 0.0
H2370 H 0.56771 0.29909 0.89686 0.0
H2371 H 0.53983 0.24053 0.84478 0.0
H2372 H 0.52293 0.21837 0.87802 0.0
H2373 H 0.5849 0.26202 0.94501 0.0
H2374 H 0.57593 0.28287 0.96861 0.0
H2375 H 0.58573 0.29409 0.94073 0.0
H2376 H 0.54541 0.31493 0.93431 0.0
H2377 H 0.53556 0.3039 0.96224 0.0
H2378 H 0.51704 0.29714 0.93441 0.0
H2379 H 0.50941 0.20246 0.91735 0.0
H2380 H 0.49951 0.19465 0.95923 0.0
H2381 H 0.53557 0.26422 0.98497 0.0
C2382 C 0.55804 0.28162 0.89238 0.0
C2383 C 0.55511 0.27155 0.86819 0.0
C2384 C 0.54226 0.24865 0.86317 0.0
C2385 C 0.53264 0.23589 0.88193 0.0
C2386 C 0.53597 0.24632 0.90559 0.0
C2387 C 0.54828 0.26872 0.91083 0.0
C2388 C 0.5492 0.27607 0.93769 0.0
C2389 C 0.5755 0.27892 0.94865 0.0
C2390 C 0.53601 0.29939 0.94243 0.0
C2391 C 0.53555 0.25429 0.94681 0.0
C2392 C 0.52809 0.23729 0.92806 0.0
C2393 C 0.5151 0.2157 0.93214 0.0
C2394 C 0.50948 0.21147 0.95598 0.0
C2395 C 0.51679 0.22877 0.97545 0.0
C2396 C 0.53005 0.25041 0.97063 0.0
H2397 H -6e-05 0.34079 0.08377 0.0
H2398 H 0.96991 0.27408 0.11072 0.0
H2399 H 0.95056 0.26206 0.06996 0.0
H2400 H 0.94892 0.35282 0.04836 0.0
H2401 H 0.96505 0.36502 0.02407 0.0
H2402 H 0.97916 0.36678 0.05432 0.0
H2403 H 0.01553 0.34459 0.03859 0.0
H2404 H 0.00148 0.34275 0.00821 0.0
H2405 H 0.01017 0.31556 0.02182 0.0
H2406 H 0.93088 0.25949 0.02777 0.0
H2407 H 0.91193 0.26683 0.9875 0.0
H2408 H 0.95484 0.33512 0.98802 0.0
C2409 C 0.98973 0.3234 0.08103 0.0
C2410 C 0.98653 0.30832 0.10044 0.0
C2411 C 0.97269 0.28589 0.09612 0.0
C2412 C 0.9617 0.27887 0.073 0.0
C2413 C 0.96486 0.2944 0.05438 0.0
C2414 C 0.97862 0.31616 0.05812 0.0
C2415 C 0.97758 0.33048 0.03567 0.0
C2416 C 0.96704 0.35523 0.04093 0.0
C2417 C 0.00268 0.33352 0.02547 0.0
C2418 C 0.96042 0.31377 0.01894 0.0
C2419 C 0.95354 0.2929 0.02998 0.0
C2420 C 0.93643 0.27557 0.01881 0.0
C2421 C 0.92572 0.27991 0.99601 0.0
C2422 C 0.9321 0.30143 0.98465 0.0
C2423 C 0.95007 0.31827 0.99607 0.0
loop_
_geom_bond_atom_site_label_1
_geom_bond_atom_site_label_2
_geom_bond_distance
_geom_bond_site_symmetry_2
_ccdc_geom_bond_type
O0 Cd1 2.300 . S
O0 C7 1.275 . S
Cd1 O0 2.300 . S
Cd1 O9 2.381 . S
Cd1 O10 2.378 . S
O2 Cd3 2.385 . S
O2 C7 1.255 . S
Cd3 O2 2.385 . S
Cd3 O4 2.317 . S
O4 Cd3 2.317 . S
O4 C5 1.232 . S
C5 O4 1.232 . S
C5 O6 1.218 . S
O6 C5 1.218 . S
C7 O0 1.275 . S
C7 O2 1.255 . S
C8 O9 1.258 . S
C8 O10 1.256 . S
O9 Cd1 2.381 . S
O9 C8 1.258 . S
O10 Cd1 2.378 . S
O10 C8 1.256 . S
O11 Cd12 2.300 . S
O11 C18 1.275 . S
Cd12 O11 2.300 . S
Cd12 O20 2.381 . S
Cd12 O21 2.378 . S
O13 Cd14 2.385 . S
O13 C18 1.255 . S
Cd14 O13 2.385 . S
Cd14 O15 2.317 . S
O15 Cd14 2.317 . S
O15 C16 1.232 . S
C16 O15 1.232 . S
C16 O17 1.218 . S
O17 C16 1.218 . S
C18 O11 1.275 . S
C18 O13 1.255 . S
C19 O20 1.258 . S
C19 O21 1.256 . S
O20 Cd12 2.381 . S
O20 C19 1.258 . S
O21 Cd12 2.378 . S
O21 C19 1.256 . S
O22 Cd23 2.300 . S
O22 C29 1.275 . S
Cd23 O22 2.300 . S
Cd23 O31 2.381 1_565 S
Cd23 O32 2.378 . S
O24 Cd25 2.385 . S
O24 C29 1.255 . S
Cd25 O24 2.385 . S
Cd25 O26 2.317 . S
O26 Cd25 2.317 . S
O26 C27 1.232 . S
C27 O26 1.232 . S
C27 O28 1.218 . S
O28 C27 1.218 . S
C29 O22 1.275 . S
C29 O24 1.255 . S
C30 O31 1.258 . S
C30 O32 1.256 1_545 S
O31 Cd23 2.381 1_545 S
O31 C30 1.258 . S
O32 Cd23 2.378 . S
O32 C30 1.256 1_565 S
O33 Cd34 2.300 . S
O33 C40 1.275 . S
Cd34 O33 2.300 . S
Cd34 O42 2.381 1_545 S
Cd34 O43 2.378 . S
O35 Cd36 2.385 . S
O35 C40 1.255 . S
Cd36 O35 2.385 . S
Cd36 O37 2.317 . S
O37 Cd36 2.317 . S
O37 C38 1.232 . S
C38 O37 1.232 . S
C38 O39 1.218 . S
O39 C38 1.218 . S
C40 O33 1.275 . S
C40 O35 1.255 . S
C41 O42 1.258 . S
C41 O43 1.256 1_565 S
O42 Cd34 2.381 1_565 S
O42 C41 1.258 . S
O43 Cd34 2.378 . S
O43 C41 1.256 1_545 S
O44 Cd45 2.300 . S
O44 C51 1.275 . S
Cd45 O44 2.300 . S
Cd45 O53 2.381 . S
Cd45 O54 2.378 . S
O46 Cd47 2.385 . S
O46 C51 1.255 . S
Cd47 O46 2.385 . S
Cd47 O48 2.317 . S
O48 Cd47 2.317 . S
O48 C49 1.232 . S
C49 O48 1.232 . S
C49 O50 1.218 . S
O50 C49 1.218 . S
C51 O44 1.275 . S
C51 O46 1.255 . S
C52 O53 1.258 . S
C52 O54 1.256 . S
O53 Cd45 2.381 . S
O53 C52 1.258 . S
O54 Cd45 2.378 . S
O54 C52 1.256 . S
O55 Cd56 2.300 . S
O55 C62 1.275 . S
Cd56 O55 2.300 . S
Cd56 O64 2.381 1_554 S
Cd56 O65 2.378 . S
O57 Cd58 2.385 . S
O57 C62 1.255 . S
Cd58 O57 2.385 . S
Cd58 O59 2.317 . S
O59 Cd58 2.317 . S
O59 C60 1.232 . S
C60 O59 1.232 . S
C60 O61 1.218 . S
O61 C60 1.218 . S
C62 O55 1.275 . S
C62 O57 1.255 . S
C63 O64 1.258 . S
C63 O65 1.256 1_556 S
O64 Cd56 2.381 1_556 S
O64 C63 1.258 . S
O65 Cd56 2.378 . S
O65 C63 1.256 1_554 S
O66 Cd67 2.300 . S
O66 C73 1.275 . S
Cd67 O66 2.300 . S
Cd67 O75 2.381 . S
Cd67 O76 2.378 . S
O68 Cd69 2.385 . S
O68 C73 1.255 . S
Cd69 O68 2.385 . S
Cd69 O70 2.317 . S
O70 Cd69 2.317 . S
O70 C71 1.232 . S
C71 O70 1.232 . S
C71 O72 1.218 . S
O72 C71 1.218 . S
C73 O66 1.275 . S
C73 O68 1.255 . S
C74 O75 1.258 . S
C74 O76 1.256 . S
O75 Cd67 2.381 . S
O75 C74 1.258 . S
O76 Cd67 2.378 . S
O76 C74 1.256 . S
O77 Cd78 2.300 . S
O77 C84 1.275 . S
Cd78 O77 2.300 . S
Cd78 O86 2.381 1_556 S
Cd78 O87 2.378 . S
O79 Cd80 2.385 . S
O79 C84 1.255 . S
Cd80 O79 2.385 . S
Cd80 O81 2.317 . S
O81 Cd80 2.317 . S
O81 C82 1.232 . S
C82 O81 1.232 . S
C82 O83 1.218 . S
O83 C82 1.218 . S
C84 O77 1.275 . S
C84 O79 1.255 . S
C85 O86 1.258 . S
C85 O87 1.256 1_554 S
O86 Cd78 2.381 1_554 S
O86 C85 1.258 . S
O87 Cd78 2.378 . S
O87 C85 1.256 1_556 S
O88 Cd89 2.300 . S
O88 C95 1.275 . S
Cd89 O88 2.300 . S
Cd89 O97 2.381 . S
Cd89 O98 2.378 . S
O90 Cd91 2.385 . S
O90 C95 1.255 . S
Cd91 O90 2.385 . S
Cd91 O92 2.317 . S
O92 Cd91 2.317 . S
O92 C93 1.232 . S
C93 O92 1.232 . S
C93 O94 1.218 . S
O94 C93 1.218 . S
C95 O88 1.275 . S
C95 O90 1.255 . S
C96 O97 1.258 . S
C96 O98 1.256 . S
O97 Cd89 2.381 . S
O97 C96 1.258 . S
O98 Cd89 2.378 . S
O98 C96 1.256 . S
O99 Cd100 2.300 . S
O99 C106 1.275 . S
Cd100 O99 2.300 . S
Cd100 O108 2.381 1_455 S
Cd100 O109 2.378 . S
O101 Cd102 2.385 . S
O101 C106 1.255 . S
Cd102 O101 2.385 . S
Cd102 O103 2.317 . S
O103 Cd102 2.317 . S
O103 C104 1.232 . S
C104 O103 1.232 . S
C104 O105 1.218 . S
O105 C104 1.218 . S
C106 O99 1.275 . S
C106 O101 1.255 . S
C107 O108 1.258 . S
C107 O109 1.256 1_655 S
O108 Cd100 2.381 1_655 S
O108 C107 1.258 . S
O109 Cd100 2.378 . S
O109 C107 1.256 1_455 S
O110 Cd111 2.300 . S
O110 C117 1.275 . S
Cd111 O110 2.300 . S
Cd111 O119 2.381 . S
Cd111 O120 2.378 . S
O112 Cd113 2.385 . S
O112 C117 1.255 . S
Cd113 O112 2.385 . S
Cd113 O114 2.317 . S
O114 Cd113 2.317 . S
O114 C115 1.232 . S
C115 O114 1.232 . S
C115 O116 1.218 . S
O116 C115 1.218 . S
C117 O110 1.275 . S
C117 O112 1.255 . S
C118 O119 1.258 . S
C118 O120 1.256 . S
O119 Cd111 2.381 . S
O119 C118 1.258 . S
O120 Cd111 2.378 . S
O120 C118 1.256 . S
O121 Cd122 2.300 . S
O121 C128 1.275 . S
Cd122 O121 2.300 . S
Cd122 O130 2.381 1_655 S
Cd122 O131 2.378 . S
O123 Cd124 2.385 . S
O123 C128 1.255 . S
Cd124 O123 2.385 . S
Cd124 O125 2.317 . S
O125 Cd124 2.317 . S
O125 C126 1.232 . S
C126 O125 1.232 . S
C126 O127 1.218 . S
O127 C126 1.218 . S
C128 O121 1.275 . S
C128 O123 1.255 . S
C129 O130 1.258 . S
C129 O131 1.256 1_455 S
O130 Cd122 2.381 1_455 S
O130 C129 1.258 . S
O131 Cd122 2.378 . S
O131 C129 1.256 1_655 S
O132 Cd133 2.300 . S
O132 C139 1.275 . S
Cd133 O132 2.300 . S
Cd133 O141 2.381 . S
Cd133 O142 2.378 . S
O134 Cd135 2.385 . S
O134 C139 1.255 . S
Cd135 O134 2.385 . S
Cd135 O136 2.317 . S
O136 Cd135 2.317 . S
O136 C137 1.232 . S
C137 O136 1.232 . S
C137 O138 1.218 . S
O138 C137 1.218 . S
C139 O132 1.275 . S
C139 O134 1.255 . S
C140 O141 1.258 . S
C140 O142 1.256 . S
O141 Cd133 2.381 . S
O141 C140 1.258 . S
O142 Cd133 2.378 . S
O142 C140 1.256 . S
O143 Cd144 2.300 . S
O143 C150 1.275 . S
Cd144 O143 2.300 . S
Cd144 O152 2.381 . S
Cd144 O153 2.378 . S
O145 Cd146 2.385 . S
O145 C150 1.255 . S
Cd146 O145 2.385 . S
Cd146 O147 2.317 . S
O147 Cd146 2.317 . S
O147 C148 1.232 . S
C148 O147 1.232 . S
C148 O149 1.218 . S
O149 C148 1.218 . S
C150 O143 1.275 . S
C150 O145 1.255 . S
C151 O152 1.258 . S
C151 O153 1.256 . S
O152 Cd144 2.381 . S
O152 C151 1.258 . S
O153 Cd144 2.378 . S
O153 C151 1.256 . S
O154 Cd155 2.300 1_545 S
O154 C161 1.275 . S
Cd155 O154 2.300 1_565 S
Cd155 O163 2.381 1_565 S
Cd155 O164 2.378 . S
O156 Cd157 2.385 . S
O156 C161 1.255 1_565 S
Cd157 O156 2.385 . S
Cd157 O158 2.317 . S
O158 Cd157 2.317 . S
O158 C159 1.232 . S
C159 O158 1.232 . S
C159 O160 1.218 . S
O160 C159 1.218 . S
C161 O154 1.275 . S
C161 O156 1.255 1_545 S
C162 O163 1.258 1_565 S
C162 O164 1.256 . S
O163 Cd155 2.381 1_545 S
O163 C162 1.258 1_545 S
O164 Cd155 2.378 . S
O164 C162 1.256 . S
O165 Cd166 2.300 1_565 S
O165 C172 1.275 . S
Cd166 O165 2.300 1_545 S
Cd166 O174 2.381 1_545 S
Cd166 O175 2.378 . S
O167 Cd168 2.385 . S
O167 C172 1.255 1_545 S
Cd168 O167 2.385 . S
Cd168 O169 2.317 . S
O169 Cd168 2.317 . S
O169 C170 1.232 . S
C170 O169 1.232 . S
C170 O171 1.218 . S
O171 C170 1.218 . S
C172 O165 1.275 . S
C172 O167 1.255 1_565 S
C173 O174 1.258 1_545 S
C173 O175 1.256 . S
O174 Cd166 2.381 1_565 S
O174 C173 1.258 1_565 S
O175 Cd166 2.378 . S
O175 C173 1.256 . S
O176 Cd177 2.300 . S
O176 C183 1.275 . S
Cd177 O176 2.300 . S
Cd177 O185 2.381 . S
Cd177 O186 2.378 . S
O178 Cd179 2.385 . S
O178 C183 1.255 . S
Cd179 O178 2.385 . S
Cd179 O180 2.317 . S
O180 Cd179 2.317 . S
O180 C181 1.232 . S
C181 O180 1.232 . S
C181 O182 1.218 . S
O182 C181 1.218 . S
C183 O176 1.275 . S
C183 O178 1.255 . S
C184 O185 1.258 . S
C184 O186 1.256 . S
O185 Cd177 2.381 . S
O185 C184 1.258 . S
O186 Cd177 2.378 . S
O186 C184 1.256 . S
O187 Cd188 2.300 1_556 S
O187 C194 1.275 . S
Cd188 O187 2.300 1_554 S
Cd188 O196 2.381 1_554 S
Cd188 O197 2.378 . S
O189 Cd190 2.385 . S
O189 C194 1.255 1_554 S
Cd190 O189 2.385 . S
Cd190 O191 2.317 . S
O191 Cd190 2.317 . S
O191 C192 1.232 . S
C192 O191 1.232 . S
C192 O193 1.218 . S
O193 C192 1.218 . S
C194 O187 1.275 . S
C194 O189 1.255 1_556 S
C195 O196 1.258 1_554 S
C195 O197 1.256 . S
O196 Cd188 2.381 1_556 S
O196 C195 1.258 1_556 S
O197 Cd188 2.378 . S
O197 C195 1.256 . S
O198 Cd199 2.300 . S
O198 C205 1.275 . S
Cd199 O198 2.300 . S
Cd199 O207 2.381 . S
Cd199 O208 2.378 . S
O200 Cd201 2.385 . S
O200 C205 1.255 . S
Cd201 O200 2.385 . S
Cd201 O202 2.317 . S
O202 Cd201 2.317 . S
O202 C203 1.232 . S
C203 O202 1.232 . S
C203 O204 1.218 . S
O204 C203 1.218 . S
C205 O198 1.275 . S
C205 O200 1.255 . S
C206 O207 1.258 . S
C206 O208 1.256 . S
O207 Cd199 2.381 . S
O207 C206 1.258 . S
O208 Cd199 2.378 . S
O208 C206 1.256 . S
O209 Cd210 2.300 1_554 S
O209 C216 1.275 . S
Cd210 O209 2.300 1_556 S
Cd210 O218 2.381 1_556 S
Cd210 O219 2.378 . S
O211 Cd212 2.385 . S
O211 C216 1.255 1_556 S
Cd212 O211 2.385 . S
Cd212 O213 2.317 . S
O213 Cd212 2.317 . S
O213 C214 1.232 . S
C214 O213 1.232 . S
C214 O215 1.218 . S
O215 C214 1.218 . S
C216 O209 1.275 . S
C216 O211 1.255 1_554 S
C217 O218 1.258 1_556 S
C217 O219 1.256 . S
O218 Cd210 2.381 1_554 S
O218 C217 1.258 1_554 S
O219 Cd210 2.378 . S
O219 C217 1.256 . S
O220 Cd221 2.300 . S
O220 C227 1.275 . S
Cd221 O220 2.300 . S
Cd221 O229 2.381 . S
Cd221 O230 2.378 . S
O222 Cd223 2.385 . S
O222 C227 1.255 . S
Cd223 O222 2.385 . S
Cd223 O224 2.317 . S
O224 Cd223 2.317 . S
O224 C225 1.232 . S
C225 O224 1.232 . S
C225 O226 1.218 . S
O226 C225 1.218 . S
C227 O220 1.275 . S
C227 O222 1.255 . S
C228 O229 1.258 . S
C228 O230 1.256 . S
O229 Cd221 2.381 . S
O229 C228 1.258 . S
O230 Cd221 2.378 . S
O230 C228 1.256 . S
O231 Cd232 2.300 1_655 S
O231 C238 1.275 . S
Cd232 O231 2.300 1_455 S
Cd232 O240 2.381 1_455 S
Cd232 O241 2.378 . S
O233 Cd234 2.385 . S
O233 C238 1.255 1_455 S
Cd234 O233 2.385 . S
Cd234 O235 2.317 . S
O235 Cd234 2.317 . S
O235 C236 1.232 . S
C236 O235 1.232 . S
C236 O237 1.218 . S
O237 C236 1.218 . S
C238 O231 1.275 . S
C238 O233 1.255 1_655 S
C239 O240 1.258 1_455 S
C239 O241 1.256 . S
O240 Cd232 2.381 1_655 S
O240 C239 1.258 1_655 S
O241 Cd232 2.378 . S
O241 C239 1.256 . S
O242 Cd243 2.300 . S
O242 C249 1.275 . S
Cd243 O242 2.300 . S
Cd243 O251 2.381 . S
Cd243 O252 2.378 . S
O244 Cd245 2.385 . S
O244 C249 1.255 . S
Cd245 O244 2.385 . S
Cd245 O246 2.317 . S
O246 Cd245 2.317 . S
O246 C247 1.232 . S
C247 O246 1.232 . S
C247 O248 1.218 . S
O248 C247 1.218 . S
C249 O242 1.275 . S
C249 O244 1.255 . S
C250 O251 1.258 . S
C250 O252 1.256 . S
O251 Cd243 2.381 . S
O251 C250 1.258 . S
O252 Cd243 2.378 . S
O252 C250 1.256 . S
O253 Cd254 2.300 1_455 S
O253 C260 1.275 . S
Cd254 O253 2.300 1_655 S
Cd254 O262 2.381 1_655 S
Cd254 O263 2.378 . S
O255 Cd256 2.385 . S
O255 C260 1.255 1_655 S
Cd256 O255 2.385 . S
Cd256 O257 2.317 . S
O257 Cd256 2.317 . S
O257 C258 1.232 . S
C258 O257 1.232 . S
C258 O259 1.218 . S
O259 C258 1.218 . S
C260 O253 1.275 . S
C260 O255 1.255 1_455 S
C261 O262 1.258 1_655 S
C261 O263 1.256 . S
O262 Cd254 2.381 1_455 S
O262 C261 1.258 1_455 S
O263 Cd254 2.378 . S
O263 C261 1.256 . S
H264 C267 0.931 . S
H265 C270 0.928 . S
H266 C272 0.930 . S
C267 H264 0.931 . S
C267 C268 1.413 . S
C267 C269 1.360 . S
C268 C267 1.413 . S
C268 C272 1.429 . S
C269 C267 1.360 . S
C269 C270 1.372 . S
C270 H265 0.928 . S
C270 C269 1.372 . S
C270 C271 1.404 . S
C271 C270 1.404 . S
C271 C272 1.391 . S
C272 H266 0.930 . S
C272 C268 1.429 . S
C272 C271 1.391 . S
H273 C276 0.931 . S
H274 C279 0.928 . S
H275 C281 0.930 . S
C276 H273 0.931 . S
C276 C277 1.413 . S
C276 C278 1.360 . S
C277 C276 1.413 . S
C277 C281 1.429 . S
C278 C276 1.360 . S
C278 C279 1.372 . S
C279 H274 0.928 . S
C279 C278 1.372 . S
C279 C280 1.404 . S
C280 C279 1.404 . S
C280 C281 1.391 . S
C281 H275 0.930 . S
C281 C277 1.429 . S
C281 C280 1.391 . S
H282 C285 0.931 . S
H283 C288 0.928 . S
H284 C290 0.930 . S
C285 H282 0.931 . S
C285 C286 1.413 . S
C285 C287 1.360 1_565 S
C286 C285 1.413 . S
C286 C290 1.429 . S
C287 C285 1.360 1_545 S
C287 C288 1.372 . S
C288 H283 0.928 . S
C288 C287 1.372 . S
C288 C289 1.404 . S
C289 C288 1.404 . S
C289 C290 1.391 1_545 S
C290 H284 0.930 . S
C290 C286 1.429 . S
C290 C289 1.391 1_565 S
H291 C294 0.931 . S
H292 C297 0.928 . S
H293 C299 0.930 . S
C294 H291 0.931 . S
C294 C295 1.413 . S
C294 C296 1.378 . S
C295 C294 1.413 . S
C295 C299 1.429 1_545 S
C296 C294 1.378 . S
C296 C297 1.355 1_545 S
C297 H292 0.928 . S
C297 C296 1.355 1_565 S
C297 C298 1.404 . S
C298 C297 1.404 . S
C298 C299 1.391 . S
C299 H293 0.930 . S
C299 C295 1.429 1_565 S
C299 C298 1.391 . S
H300 C303 0.931 . S
H301 C306 0.928 . S
H302 C308 0.930 . S
C303 H300 0.931 . S
C303 C304 1.413 . S
C303 C305 1.360 . S
C304 C303 1.413 . S
C304 C308 1.429 . S
C305 C303 1.360 . S
C305 C306 1.372 . S
C306 H301 0.928 . S
C306 C305 1.372 . S
C306 C307 1.404 . S
C307 C306 1.404 . S
C307 C308 1.391 . S
C308 H302 0.930 . S
C308 C304 1.429 . S
C308 C307 1.391 . S
H309 C312 0.931 . S
H310 C315 0.928 . S
H311 C317 0.930 . S
C312 H309 0.931 . S
C312 C313 1.413 . S
C312 C314 1.378 . S
C313 C312 1.413 . S
C313 C317 1.429 1_554 S
C314 C312 1.378 . S
C314 C315 1.355 1_554 S
C315 H310 0.928 . S
C315 C314 1.355 1_556 S
C315 C316 1.404 . S
C316 C315 1.404 . S
C316 C317 1.391 . S
C317 H311 0.930 . S
C317 C313 1.429 1_556 S
C317 C316 1.391 . S
H318 C321 0.931 . S
H319 C324 0.928 . S
H320 C326 0.930 . S
C321 H318 0.931 . S
C321 C322 1.413 . S
C321 C323 1.360 . S
C322 C321 1.413 . S
C322 C326 1.429 . S
C323 C321 1.360 . S
C323 C324 1.372 . S
C324 H319 0.928 . S
C324 C323 1.372 . S
C324 C325 1.404 . S
C325 C324 1.404 . S
C325 C326 1.391 . S
C326 H320 0.930 . S
C326 C322 1.429 . S
C326 C325 1.391 . S
H327 C330 0.931 . S
H328 C333 0.928 . S
H329 C335 0.930 . S
C330 H327 0.931 . S
C330 C331 1.413 . S
C330 C332 1.360 1_556 S
C331 C330 1.413 . S
C331 C335 1.429 . S
C332 C330 1.360 1_554 S
C332 C333 1.372 . S
C333 H328 0.928 . S
C333 C332 1.372 . S
C333 C334 1.404 . S
C334 C333 1.404 . S
C334 C335 1.391 1_554 S
C335 H329 0.930 . S
C335 C331 1.429 . S
C335 C334 1.391 1_556 S
H336 C339 0.931 . S
H337 C342 0.928 . S
H338 C344 0.930 . S
C339 H336 0.931 . S
C339 C340 1.413 . S
C339 C341 1.360 . S
C340 C339 1.413 . S
C340 C344 1.429 . S
C341 C339 1.360 . S
C341 C342 1.372 . S
C342 H337 0.928 . S
C342 C341 1.372 . S
C342 C343 1.404 . S
C343 C342 1.404 . S
C343 C344 1.391 . S
C344 H338 0.930 . S
C344 C340 1.429 . S
C344 C343 1.391 . S
H345 C348 0.931 . S
H346 C351 0.928 . S
H347 C353 0.930 . S
C348 H345 0.931 . S
C348 C349 1.413 . S
C348 C350 1.378 . S
C349 C348 1.413 . S
C349 C353 1.429 1_455 S
C350 C348 1.378 . S
C350 C351 1.355 1_455 S
C351 H346 0.928 . S
C351 C350 1.355 1_655 S
C351 C352 1.404 . S
C352 C351 1.404 . S
C352 C353 1.391 . S
C353 H347 0.930 . S
C353 C349 1.429 1_655 S
C353 C352 1.391 . S
H354 C357 0.931 . S
H355 C360 0.928 . S
H356 C362 0.930 . S
C357 H354 0.931 . S
C357 C358 1.413 . S
C357 C359 1.360 . S
C358 C357 1.413 . S
C358 C362 1.429 . S
C359 C357 1.360 . S
C359 C360 1.372 . S
C360 H355 0.928 . S
C360 C359 1.372 . S
C360 C361 1.404 . S
C361 C360 1.404 . S
C361 C362 1.391 . S
C362 H356 0.930 . S
C362 C358 1.429 . S
C362 C361 1.391 . S
H363 C366 0.931 . S
H364 C369 0.928 . S
H365 C371 0.930 . S
C366 H363 0.931 . S
C366 C367 1.413 . S
C366 C368 1.360 1_655 S
C367 C366 1.413 . S
C367 C371 1.429 . S
C368 C366 1.360 1_455 S
C368 C369 1.372 . S
C369 H364 0.928 . S
C369 C368 1.372 . S
C369 C370 1.404 . S
C370 C369 1.404 . S
C370 C371 1.391 1_455 S
C371 H365 0.930 . S
C371 C367 1.429 . S
C371 C370 1.391 1_655 S
H372 C375 0.931 . S
H373 C378 0.928 . S
H374 C380 0.930 . S
C375 H372 0.931 . S
C375 C376 1.413 . S
C375 C377 1.360 . S
C376 C375 1.413 . S
C376 C380 1.429 . S
C377 C375 1.360 . S
C377 C378 1.372 . S
C378 H373 0.928 . S
C378 C377 1.372 . S
C378 C379 1.404 . S
C379 C378 1.404 . S
C379 C380 1.391 . S
C380 H374 0.930 . S
C380 C376 1.429 . S
C380 C379 1.391 . S
H381 C384 0.931 . S
H382 C387 0.928 . S
H383 C389 0.930 . S
C384 H381 0.931 . S
C384 C385 1.413 . S
C384 C386 1.360 . S
C385 C384 1.413 . S
C385 C389 1.429 . S
C386 C384 1.360 . S
C386 C387 1.372 . S
C387 H382 0.928 . S
C387 C386 1.372 . S
C387 C388 1.404 . S
C388 C387 1.404 . S
C388 C389 1.391 . S
C389 H383 0.930 . S
C389 C385 1.429 . S
C389 C388 1.391 . S
H390 C393 0.931 . S
H391 C396 0.928 . S
H392 C398 0.930 . S
C393 H390 0.931 . S
C393 C394 1.413 . S
C393 C395 1.360 1_545 S
C394 C393 1.413 . S
C394 C398 1.429 . S
C395 C393 1.360 1_565 S
C395 C396 1.372 . S
C396 H391 0.928 . S
C396 C395 1.372 . S
C396 C397 1.404 . S
C397 C396 1.404 . S
C397 C398 1.391 1_565 S
C398 H392 0.930 . S
C398 C394 1.429 . S
C398 C397 1.391 1_545 S
H399 C402 0.931 . S
H400 C405 0.928 . S
H401 C407 0.930 . S
C402 H399 0.931 . S
C402 C403 1.413 . S
C402 C404 1.376 . S
C403 C402 1.413 . S
C403 C407 1.429 1_565 S
C404 C402 1.376 . S
C404 C405 1.357 1_565 S
C405 H400 0.928 . S
C405 C404 1.357 1_545 S
C405 C406 1.404 . S
C406 C405 1.404 . S
C406 C407 1.391 . S
C407 H401 0.930 . S
C407 C403 1.429 1_545 S
C407 C406 1.391 . S
H408 C411 0.931 . S
H409 C414 0.928 . S
H410 C416 0.930 . S
C411 H408 0.931 . S
C411 C412 1.413 . S
C411 C413 1.360 . S
C412 C411 1.413 . S
C412 C416 1.429 . S
C413 C411 1.360 . S
C413 C414 1.372 . S
C414 H409 0.928 . S
C414 C413 1.372 . S
C414 C415 1.404 . S
C415 C414 1.404 . S
C415 C416 1.391 . S
C416 H410 0.930 . S
C416 C412 1.429 . S
C416 C415 1.391 . S
H417 C420 0.931 . S
H418 C423 0.928 . S
H419 C425 0.930 . S
C420 H417 0.931 . S
C420 C421 1.413 . S
C420 C422 1.376 . S
C421 C420 1.413 . S
C421 C425 1.429 1_556 S
C422 C420 1.376 . S
C422 C423 1.357 1_556 S
C423 H418 0.928 . S
C423 C422 1.357 1_554 S
C423 C424 1.404 . S
C424 C423 1.404 . S
C424 C425 1.391 . S
C425 H419 0.930 . S
C425 C421 1.429 1_554 S
C425 C424 1.391 . S
H426 C429 0.931 . S
H427 C432 0.928 . S
H428 C434 0.930 . S
C429 H426 0.931 . S
C429 C430 1.413 . S
C429 C431 1.360 . S
C430 C429 1.413 . S
C430 C434 1.429 . S
C431 C429 1.360 . S
C431 C432 1.372 . S
C432 H427 0.928 . S
C432 C431 1.372 . S
C432 C433 1.404 . S
C433 C432 1.404 . S
C433 C434 1.391 . S
C434 H428 0.930 . S
C434 C430 1.429 . S
C434 C433 1.391 . S
H435 C438 0.931 . S
H436 C441 0.928 . S
H437 C443 0.930 . S
C438 H435 0.931 . S
C438 C439 1.413 . S
C438 C440 1.360 1_554 S
C439 C438 1.413 . S
C439 C443 1.429 . S
C440 C438 1.360 1_556 S
C440 C441 1.372 . S
C441 H436 0.928 . S
C441 C440 1.372 . S
C441 C442 1.404 . S
C442 C441 1.404 . S
C442 C443 1.391 1_556 S
C443 H437 0.930 . S
C443 C439 1.429 . S
C443 C442 1.391 1_554 S
H444 C447 0.931 . S
H445 C450 0.928 . S
H446 C452 0.930 . S
C447 H444 0.931 . S
C447 C448 1.413 . S
C447 C449 1.360 . S
C448 C447 1.413 . S
C448 C452 1.429 . S
C449 C447 1.360 . S
C449 C450 1.372 . S
C450 H445 0.928 . S
C450 C449 1.372 . S
C450 C451 1.404 . S
C451 C450 1.404 . S
C451 C452 1.391 . S
C452 H446 0.930 . S
C452 C448 1.429 . S
C452 C451 1.391 . S
H453 C456 0.931 . S
H454 C459 0.928 . S
H455 C461 0.930 . S
C456 H453 0.931 . S
C456 C457 1.413 . S
C456 C458 1.376 . S
C457 C456 1.413 . S
C457 C461 1.429 1_655 S
C458 C456 1.376 . S
C458 C459 1.357 1_655 S
C459 H454 0.928 . S
C459 C458 1.357 1_455 S
C459 C460 1.404 . S
C460 C459 1.404 . S
C460 C461 1.391 . S
C461 H455 0.930 . S
C461 C457 1.429 1_455 S
C461 C460 1.391 . S
H462 C465 0.931 . S
H463 C468 0.928 . S
H464 C470 0.930 . S
C465 H462 0.931 . S
C465 C466 1.413 . S
C465 C467 1.360 . S
C466 C465 1.413 . S
C466 C470 1.429 . S
C467 C465 1.360 . S
C467 C468 1.372 . S
C468 H463 0.928 . S
C468 C467 1.372 . S
C468 C469 1.404 . S
C469 C468 1.404 . S
C469 C470 1.391 . S
C470 H464 0.930 . S
C470 C466 1.429 . S
C470 C469 1.391 . S
H471 C474 0.931 . S
H472 C477 0.928 . S
H473 C479 0.930 . S
C474 H471 0.931 . S
C474 C475 1.413 . S
C474 C476 1.360 1_455 S
C475 C474 1.413 . S
C475 C479 1.429 . S
C476 C474 1.360 1_655 S
C476 C477 1.372 . S
C477 H472 0.928 . S
C477 C476 1.372 . S
C477 C478 1.404 . S
C478 C477 1.404 . S
C478 C479 1.391 1_655 S
C479 H473 0.930 . S
C479 C475 1.429 . S
C479 C478 1.391 1_455 S
H480 C492 0.930 . S
H481 C494 0.930 . S
H482 C495 0.930 . S
H483 C499 0.959 . S
H484 C499 0.959 . S
H485 C499 0.961 . S
H486 C500 0.960 . S
H487 C500 0.961 . S
H488 C500 0.959 . S
H489 C503 0.929 . S
H490 C504 0.931 . S
H491 C506 0.930 . S
C492 H480 0.930 . S
C492 C493 1.399 . S
C492 C497 1.399 . S
C493 C492 1.399 . S
C493 C494 1.376 . S
C494 H481 0.930 . S
C494 C493 1.376 . S
C494 C495 1.388 . S
C495 H482 0.930 . S
C495 C494 1.388 . S
C495 C496 1.390 . S
C496 C495 1.390 . S
C496 C497 1.394 . S
C496 C502 1.465 . S
C497 C492 1.399 . S
C497 C496 1.394 . S
C497 C498 1.516 . S
C498 C497 1.516 . S
C498 C499 1.502 . S
C498 C500 1.561 . S
C498 C501 1.526 . S
C499 H483 0.959 . S
C499 H484 0.959 . S
C499 H485 0.961 . S
C499 C498 1.502 . S
C500 H486 0.960 . S
C500 H487 0.961 . S
C500 H488 0.959 . S
C500 C498 1.561 . S
C501 C498 1.526 . S
C501 C502 1.396 . S
C501 C506 1.390 . S
C502 C496 1.465 . S
C502 C501 1.396 . S
C502 C503 1.399 . S
C503 H489 0.929 . S
C503 C502 1.399 . S
C503 C504 1.385 . S
C504 H490 0.931 . S
C504 C503 1.385 . S
C504 C505 1.389 . S
C505 C504 1.389 . S
C505 C506 1.387 . S
C506 H491 0.930 . S
C506 C501 1.390 . S
C506 C505 1.387 . S
H507 C519 0.930 . S
H508 C521 0.930 . S
H509 C522 0.930 . S
H510 C526 0.959 . S
H511 C526 0.959 . S
H512 C526 0.961 . S
H513 C527 0.960 . S
H514 C527 0.961 . S
H515 C527 0.959 . S
H516 C530 0.929 . S
H517 C531 0.931 . S
H518 C533 0.930 . S
C519 H507 0.930 . S
C519 C520 1.399 . S
C519 C524 1.399 . S
C520 C519 1.399 . S
C520 C521 1.376 . S
C521 H508 0.930 . S
C521 C520 1.376 . S
C521 C522 1.388 . S
C522 H509 0.930 . S
C522 C521 1.388 . S
C522 C523 1.390 . S
C523 C522 1.390 . S
C523 C524 1.394 . S
C523 C529 1.465 . S
C524 C519 1.399 . S
C524 C523 1.394 . S
C524 C525 1.516 . S
C525 C524 1.516 . S
C525 C526 1.502 . S
C525 C527 1.561 . S
C525 C528 1.526 . S
C526 H510 0.959 . S
C526 H511 0.959 . S
C526 H512 0.961 . S
C526 C525 1.502 . S
C527 H513 0.960 . S
C527 H514 0.961 . S
C527 H515 0.959 . S
C527 C525 1.561 . S
C528 C525 1.526 . S
C528 C529 1.396 . S
C528 C533 1.390 . S
C529 C523 1.465 . S
C529 C528 1.396 . S
C529 C530 1.399 . S
C530 H516 0.929 . S
C530 C529 1.399 . S
C530 C531 1.385 . S
C531 H517 0.931 . S
C531 C530 1.385 . S
C531 C532 1.389 . S
C532 C531 1.389 . S
C532 C533 1.387 . S
C533 H518 0.930 . S
C533 C528 1.390 . S
C533 C532 1.387 . S
H534 C546 0.948 . S
H535 C548 0.930 . S
H536 C549 0.930 . S
H537 C553 0.959 . S
H538 C553 0.959 . S
H539 C553 0.961 . S
H540 C554 0.960 . S
H541 C554 0.961 . S
H542 C554 0.959 . S
H543 C557 0.929 . S
H544 C558 0.931 . S
H545 C560 0.930 . S
C546 H534 0.948 . S
C546 C547 1.399 . S
C546 C551 1.399 . S
C547 C546 1.399 . S
C547 C548 1.376 . S
C548 H535 0.930 . S
C548 C547 1.376 . S
C548 C549 1.388 . S
C549 H536 0.930 . S
C549 C548 1.388 . S
C549 C550 1.390 . S
C550 C549 1.390 . S
C550 C551 1.394 . S
C550 C556 1.465 . S
C551 C546 1.399 . S
C551 C550 1.394 . S
C551 C552 1.516 . S
C552 C551 1.516 . S
C552 C553 1.502 1_545 S
C552 C554 1.561 . S
C552 C555 1.526 . S
C553 H537 0.959 . S
C553 H538 0.959 . S
C553 H539 0.961 . S
C553 C552 1.502 1_565 S
C554 H540 0.960 . S
C554 H541 0.961 . S
C554 H542 0.959 . S
C554 C552 1.561 . S
C555 C552 1.526 . S
C555 C556 1.396 . S
C555 C560 1.390 . S
C556 C550 1.465 . S
C556 C555 1.396 . S
C556 C557 1.399 . S
C557 H543 0.929 . S
C557 C556 1.399 . S
C557 C558 1.385 . S
C558 H544 0.931 . S
C558 C557 1.385 . S
C558 C559 1.389 . S
C559 C558 1.389 . S
C559 C560 1.387 . S
C560 H545 0.930 . S
C560 C555 1.390 . S
C560 C559 1.387 . S
H561 C573 0.930 . S
H562 C575 0.930 . S
H563 C576 0.930 . S
H564 C580 0.959 . S
H565 C580 0.959 . S
H566 C580 0.961 . S
H567 C581 0.960 . S
H568 C581 0.961 . S
H569 C581 0.959 . S
H570 C584 0.929 . S
H571 C585 0.931 . S
H572 C587 0.930 . S
C573 H561 0.930 . S
C573 C574 1.399 . S
C573 C578 1.399 . S
C574 C573 1.399 . S
C574 C575 1.376 . S
C575 H562 0.930 . S
C575 C574 1.376 . S
C575 C576 1.388 . S
C576 H563 0.930 . S
C576 C575 1.388 . S
C576 C577 1.390 . S
C577 C576 1.390 . S
C577 C578 1.394 . S
C577 C583 1.465 . S
C578 C573 1.399 . S
C578 C577 1.394 . S
C578 C579 1.516 . S
C579 C578 1.516 . S
C579 C580 1.502 . S
C579 C581 1.561 . S
C579 C582 1.526 . S
C580 H564 0.959 . S
C580 H565 0.959 . S
C580 H566 0.961 . S
C580 C579 1.502 . S
C581 H567 0.960 . S
C581 H568 0.961 . S
C581 H569 0.959 . S
C581 C579 1.561 . S
C582 C579 1.526 . S
C582 C583 1.396 . S
C582 C587 1.390 . S
C583 C577 1.465 . S
C583 C582 1.396 . S
C583 C584 1.399 . S
C584 H570 0.929 . S
C584 C583 1.399 . S
C584 C585 1.385 . S
C585 H571 0.931 . S
C585 C584 1.385 . S
C585 C586 1.389 . S
C586 C585 1.389 . S
C586 C587 1.387 . S
C587 H572 0.930 . S
C587 C582 1.390 . S
C587 C586 1.387 . S
H588 C600 0.930 . S
H589 C602 0.930 . S
H590 C603 0.930 . S
H591 C607 0.959 . S
H592 C607 0.959 . S
H593 C607 0.961 . S
H594 C608 0.960 . S
H595 C608 0.961 . S
H596 C608 0.959 . S
H597 C611 0.929 . S
H598 C612 0.931 . S
H599 C614 0.930 . S
C600 H588 0.930 . S
C600 C601 1.399 . S
C600 C605 1.399 . S
C601 C600 1.399 . S
C601 C602 1.376 . S
C602 H589 0.930 . S
C602 C601 1.376 . S
C602 C603 1.388 . S
C603 H590 0.930 . S
C603 C602 1.388 . S
C603 C604 1.390 . S
C604 C603 1.390 . S
C604 C605 1.394 . S
C604 C610 1.465 . S
C605 C600 1.399 . S
C605 C604 1.394 . S
C605 C606 1.516 . S
C606 C605 1.516 . S
C606 C607 1.502 . S
C606 C608 1.561 . S
C606 C609 1.526 . S
C607 H591 0.959 . S
C607 H592 0.959 . S
C607 H593 0.961 . S
C607 C606 1.502 . S
C608 H594 0.960 . S
C608 H595 0.961 . S
C608 H596 0.959 . S
C608 C606 1.561 . S
C609 C606 1.526 . S
C609 C610 1.396 . S
C609 C614 1.390 . S
C610 C604 1.465 . S
C610 C609 1.396 . S
C610 C611 1.399 . S
C611 H597 0.929 . S
C611 C610 1.399 . S
C611 C612 1.385 . S
C612 H598 0.931 . S
C612 C611 1.385 . S
C612 C613 1.389 . S
C613 C612 1.389 . S
C613 C614 1.387 . S
C614 H599 0.930 . S
C614 C609 1.390 . S
C614 C613 1.387 . S
H615 C627 0.930 1_554 S
H616 C629 0.930 . S
H617 C630 0.930 . S
H618 C634 0.959 1_556 S
H619 C634 0.959 . S
H620 C634 0.961 . S
H621 C635 0.960 . S
H622 C635 0.961 . S
H623 C635 0.959 . S
H624 C638 0.929 . S
H625 C639 0.931 . S
H626 C641 0.930 . S
C627 H615 0.930 1_556 S
C627 C628 1.399 . S
C627 C632 1.399 . S
C628 C627 1.399 . S
C628 C629 1.376 . S
C629 H616 0.930 . S
C629 C628 1.376 . S
C629 C630 1.388 . S
C630 H617 0.930 . S
C630 C629 1.388 . S
C630 C631 1.390 . S
C631 C630 1.390 . S
C631 C632 1.394 . S
C631 C637 1.465 . S
C632 C627 1.399 . S
C632 C631 1.394 . S
C632 C633 1.516 . S
C633 C632 1.516 . S
C633 C634 1.502 1_556 S
C633 C635 1.561 1_556 S
C633 C636 1.526 . S
C634 H618 0.959 1_554 S
C634 H619 0.959 . S
C634 H620 0.961 . S
C634 C633 1.502 1_554 S
C635 H621 0.960 . S
C635 H622 0.961 . S
C635 H623 0.959 . S
C635 C633 1.561 1_554 S
C636 C633 1.526 . S
C636 C637 1.396 . S
C636 C641 1.390 . S
C637 C631 1.465 . S
C637 C636 1.396 . S
C637 C638 1.399 . S
C638 H624 0.929 . S
C638 C637 1.399 . S
C638 C639 1.385 . S
C639 H625 0.931 . S
C639 C638 1.385 . S
C639 C640 1.389 . S
C640 C639 1.389 . S
C640 C641 1.387 . S
C641 H626 0.930 . S
C641 C636 1.390 . S
C641 C640 1.387 . S
H642 C654 0.930 . S
H643 C656 0.930 . S
H644 C657 0.930 . S
H645 C661 0.959 . S
H646 C661 0.959 . S
H647 C661 0.961 . S
H648 C662 0.960 . S
H649 C662 0.961 . S
H650 C662 0.959 . S
H651 C665 0.929 . S
H652 C666 0.931 . S
H653 C668 0.930 . S
C654 H642 0.930 . S
C654 C655 1.399 . S
C654 C659 1.399 . S
C655 C654 1.399 . S
C655 C656 1.376 . S
C656 H643 0.930 . S
C656 C655 1.376 . S
C656 C657 1.388 . S
C657 H644 0.930 . S
C657 C656 1.388 . S
C657 C658 1.390 . S
C658 C657 1.390 . S
C658 C659 1.394 . S
C658 C664 1.465 . S
C659 C654 1.399 . S
C659 C658 1.394 . S
C659 C660 1.516 . S
C660 C659 1.516 . S
C660 C661 1.502 . S
C660 C662 1.561 . S
C660 C663 1.526 . S
C661 H645 0.959 . S
C661 H646 0.959 . S
C661 H647 0.961 . S
C661 C660 1.502 . S
C662 H648 0.960 . S
C662 H649 0.961 . S
C662 H650 0.959 . S
C662 C660 1.561 . S
C663 C660 1.526 . S
C663 C664 1.396 . S
C663 C668 1.390 . S
C664 C658 1.465 . S
C664 C663 1.396 . S
C664 C665 1.399 . S
C665 H651 0.929 . S
C665 C664 1.399 . S
C665 C666 1.385 . S
C666 H652 0.931 . S
C666 C665 1.385 . S
C666 C667 1.389 . S
C667 C666 1.389 . S
C667 C668 1.387 . S
C668 H653 0.930 . S
C668 C663 1.390 . S
C668 C667 1.387 . S
H669 C681 0.930 . S
H670 C683 0.930 . S
H671 C684 0.930 . S
H672 C688 0.959 . S
H673 C688 0.959 . S
H674 C688 0.961 . S
H675 C689 0.960 . S
H676 C689 0.961 . S
H677 C689 0.959 . S
H678 C692 0.929 1_556 S
H679 C693 0.931 . S
H680 C695 0.930 . S
C681 H669 0.930 . S
C681 C682 1.399 . S
C681 C686 1.399 . S
C682 C681 1.399 . S
C682 C683 1.376 1_554 S
C683 H670 0.930 . S
C683 C682 1.376 1_556 S
C683 C684 1.388 . S
C684 H671 0.930 . S
C684 C683 1.388 . S
C684 C685 1.390 1_556 S
C685 C684 1.390 1_554 S
C685 C686 1.394 . S
C685 C691 1.465 . S
C686 C681 1.399 . S
C686 C685 1.394 . S
C686 C687 1.516 . S
C687 C686 1.516 . S
C687 C688 1.502 . S
C687 C689 1.561 . S
C687 C690 1.526 . S
C688 H672 0.959 . S
C688 H673 0.959 . S
C688 H674 0.961 . S
C688 C687 1.502 . S
C689 H675 0.960 . S
C689 H676 0.961 . S
C689 H677 0.959 . S
C689 C687 1.561 . S
C690 C687 1.526 . S
C690 C691 1.396 . S
C690 C695 1.390 . S
C691 C685 1.465 . S
C691 C690 1.396 . S
C691 C692 1.399 . S
C692 H678 0.929 1_554 S
C692 C691 1.399 . S
C692 C693 1.385 . S
C693 H679 0.931 . S
C693 C692 1.385 . S
C693 C694 1.389 . S
C694 C693 1.389 . S
C694 C695 1.387 . S
C695 H680 0.930 . S
C695 C690 1.390 . S
C695 C694 1.387 . S
H696 C708 0.930 . S
H697 C710 0.930 . S
H698 C711 0.930 . S
H699 C715 0.959 . S
H700 C715 0.959 . S
H701 C715 0.961 . S
H702 C716 0.960 . S
H703 C716 0.961 . S
H704 C716 0.959 . S
H705 C719 0.929 . S
H706 C720 0.931 . S
H707 C722 0.930 . S
C708 H696 0.930 . S
C708 C709 1.399 . S
C708 C713 1.399 . S
C709 C708 1.399 . S
C709 C710 1.376 . S
C710 H697 0.930 . S
C710 C709 1.376 . S
C710 C711 1.388 . S
C711 H698 0.930 . S
C711 C710 1.388 . S
C711 C712 1.390 . S
C712 C711 1.390 . S
C712 C713 1.394 . S
C712 C718 1.465 . S
C713 C708 1.399 . S
C713 C712 1.394 . S
C713 C714 1.516 . S
C714 C713 1.516 . S
C714 C715 1.502 . S
C714 C716 1.561 . S
C714 C717 1.526 . S
C715 H699 0.959 . S
C715 H700 0.959 . S
C715 H701 0.961 . S
C715 C714 1.502 . S
C716 H702 0.960 . S
C716 H703 0.961 . S
C716 H704 0.959 . S
C716 C714 1.561 . S
C717 C714 1.526 . S
C717 C718 1.396 . S
C717 C722 1.390 . S
C718 C712 1.465 . S
C718 C717 1.396 . S
C718 C719 1.399 . S
C719 H705 0.929 . S
C719 C718 1.399 . S
C719 C720 1.385 . S
C720 H706 0.931 . S
C720 C719 1.385 . S
C720 C721 1.389 . S
C721 C720 1.389 . S
C721 C722 1.387 . S
C722 H707 0.930 . S
C722 C717 1.390 . S
C722 C721 1.387 . S
H723 C735 0.930 . S
H724 C737 0.930 . S
H725 C738 0.930 . S
H726 C742 0.959 . S
H727 C742 0.959 . S
H728 C742 0.961 . S
H729 C743 0.943 1_455 S
H730 C743 0.961 . S
H731 C743 0.959 1_455 S
H732 C746 0.929 . S
H733 C747 0.931 . S
H734 C749 0.930 . S
C735 H723 0.930 . S
C735 C736 1.399 . S
C735 C740 1.399 . S
C736 C735 1.399 . S
C736 C737 1.376 . S
C737 H724 0.930 . S
C737 C736 1.376 . S
C737 C738 1.388 . S
C738 H725 0.930 . S
C738 C737 1.388 . S
C738 C739 1.390 . S
C739 C738 1.390 . S
C739 C740 1.394 . S
C739 C745 1.465 . S
C740 C735 1.399 . S
C740 C739 1.394 . S
C740 C741 1.516 . S
C741 C740 1.516 . S
C741 C742 1.502 . S
C741 C743 1.561 . S
C741 C744 1.526 . S
C742 H726 0.959 . S
C742 H727 0.959 . S
C742 H728 0.961 . S
C742 C741 1.502 . S
C743 H729 0.943 1_655 S
C743 H730 0.961 . S
C743 H731 0.959 1_655 S
C743 C741 1.561 . S
C744 C741 1.526 . S
C744 C745 1.396 . S
C744 C749 1.390 . S
C745 C739 1.465 . S
C745 C744 1.396 . S
C745 C746 1.399 . S
C746 H732 0.929 . S
C746 C745 1.399 . S
C746 C747 1.385 . S
C747 H733 0.931 . S
C747 C746 1.385 . S
C747 C748 1.389 . S
C748 C747 1.389 . S
C748 C749 1.387 . S
C749 H734 0.930 . S
C749 C744 1.390 . S
C749 C748 1.387 . S
H750 C762 0.930 . S
H751 C764 0.930 . S
H752 C765 0.930 . S
H753 C769 0.959 . S
H754 C769 0.959 . S
H755 C769 0.961 . S
H756 C770 0.960 . S
H757 C770 0.961 . S
H758 C770 0.959 . S
H759 C773 0.929 . S
H760 C774 0.931 . S
H761 C776 0.930 . S
C762 H750 0.930 . S
C762 C763 1.399 . S
C762 C767 1.399 . S
C763 C762 1.399 . S
C763 C764 1.376 . S
C764 H751 0.930 . S
C764 C763 1.376 . S
C764 C765 1.388 . S
C765 H752 0.930 . S
C765 C764 1.388 . S
C765 C766 1.390 . S
C766 C765 1.390 . S
C766 C767 1.394 . S
C766 C772 1.465 . S
C767 C762 1.399 . S
C767 C766 1.394 . S
C767 C768 1.516 . S
C768 C767 1.516 . S
C768 C769 1.502 . S
C768 C770 1.561 . S
C768 C771 1.526 . S
C769 H753 0.959 . S
C769 H754 0.959 . S
C769 H755 0.961 . S
C769 C768 1.502 . S
C770 H756 0.960 . S
C770 H757 0.961 . S
C770 H758 0.959 . S
C770 C768 1.561 . S
C771 C768 1.526 . S
C771 C772 1.396 . S
C771 C776 1.390 . S
C772 C766 1.465 . S
C772 C771 1.396 . S
C772 C773 1.399 . S
C773 H759 0.929 . S
C773 C772 1.399 . S
C773 C774 1.385 . S
C774 H760 0.931 . S
C774 C773 1.385 . S
C774 C775 1.389 . S
C775 C774 1.389 . S
C775 C776 1.387 . S
C776 H761 0.930 . S
C776 C771 1.390 . S
C776 C775 1.387 . S
H777 C789 0.930 . S
H778 C791 0.930 . S
H779 C792 0.930 . S
H780 C796 0.959 . S
H781 C796 0.959 . S
H782 C796 0.961 . S
H783 C797 0.960 . S
H784 C797 0.961 . S
H785 C797 0.959 1_655 S
H786 C800 0.929 . S
H787 C801 0.931 . S
H788 C803 0.930 . S
C789 H777 0.930 . S
C789 C790 1.399 . S
C789 C794 1.399 . S
C790 C789 1.399 . S
C790 C791 1.376 . S
C791 H778 0.930 . S
C791 C790 1.376 . S
C791 C792 1.388 . S
C792 H779 0.930 . S
C792 C791 1.388 . S
C792 C793 1.390 . S
C793 C792 1.390 . S
C793 C794 1.394 . S
C793 C799 1.465 . S
C794 C789 1.399 . S
C794 C793 1.394 . S
C794 C795 1.516 . S
C795 C794 1.516 . S
C795 C796 1.502 . S
C795 C797 1.561 . S
C795 C798 1.526 . S
C796 H780 0.959 . S
C796 H781 0.959 . S
C796 H782 0.961 . S
C796 C795 1.502 . S
C797 H783 0.960 . S
C797 H784 0.961 . S
C797 H785 0.959 1_455 S
C797 C795 1.561 . S
C798 C795 1.526 . S
C798 C799 1.396 . S
C798 C803 1.390 . S
C799 C793 1.465 . S
C799 C798 1.396 . S
C799 C800 1.399 . S
C800 H786 0.929 . S
C800 C799 1.399 . S
C800 C801 1.385 . S
C801 H787 0.931 . S
C801 C800 1.385 . S
C801 C802 1.389 . S
C802 C801 1.389 . S
C802 C803 1.387 . S
C803 H788 0.930 . S
C803 C798 1.390 . S
C803 C802 1.387 . S
H804 C816 0.930 . S
H805 C818 0.930 . S
H806 C819 0.930 . S
H807 C823 0.959 . S
H808 C823 0.959 . S
H809 C823 0.961 . S
H810 C824 0.960 . S
H811 C824 0.961 . S
H812 C824 0.959 . S
H813 C827 0.929 . S
H814 C828 0.931 . S
H815 C830 0.930 . S
C816 H804 0.930 . S
C816 C817 1.399 . S
C816 C821 1.399 . S
C817 C816 1.399 . S
C817 C818 1.376 . S
C818 H805 0.930 . S
C818 C817 1.376 . S
C818 C819 1.388 . S
C819 H806 0.930 . S
C819 C818 1.388 . S
C819 C820 1.390 . S
C820 C819 1.390 . S
C820 C821 1.394 . S
C820 C826 1.465 . S
C821 C816 1.399 . S
C821 C820 1.394 . S
C821 C822 1.516 . S
C822 C821 1.516 . S
C822 C823 1.502 . S
C822 C824 1.561 . S
C822 C825 1.526 . S
C823 H807 0.959 . S
C823 H808 0.959 . S
C823 H809 0.961 . S
C823 C822 1.502 . S
C824 H810 0.960 . S
C824 H811 0.961 . S
C824 H812 0.959 . S
C824 C822 1.561 . S
C825 C822 1.526 . S
C825 C826 1.396 . S
C825 C830 1.390 . S
C826 C820 1.465 . S
C826 C825 1.396 . S
C826 C827 1.399 . S
C827 H813 0.929 . S
C827 C826 1.399 . S
C827 C828 1.385 . S
C828 H814 0.931 . S
C828 C827 1.385 . S
C828 C829 1.389 . S
C829 C828 1.389 . S
C829 C830 1.387 . S
C830 H815 0.930 . S
C830 C825 1.390 . S
C830 C829 1.387 . S
H831 C843 0.930 . S
H832 C845 0.930 . S
H833 C846 0.930 . S
H834 C850 0.959 . S
H835 C850 0.959 . S
H836 C850 0.961 . S
H837 C851 0.960 . S
H838 C851 0.961 . S
H839 C851 0.959 . S
H840 C854 0.929 . S
H841 C855 0.931 . S
H842 C857 0.930 . S
C843 H831 0.930 . S
C843 C844 1.399 . S
C843 C848 1.399 . S
C844 C843 1.399 . S
C844 C845 1.376 . S
C845 H832 0.930 . S
C845 C844 1.376 . S
C845 C846 1.388 . S
C846 H833 0.930 . S
C846 C845 1.388 . S
C846 C847 1.390 . S
C847 C846 1.390 . S
C847 C848 1.394 . S
C847 C853 1.465 . S
C848 C843 1.399 . S
C848 C847 1.394 . S
C848 C849 1.516 . S
C849 C848 1.516 . S
C849 C850 1.502 . S
C849 C851 1.561 . S
C849 C852 1.526 . S
C850 H834 0.959 . S
C850 H835 0.959 . S
C850 H836 0.961 . S
C850 C849 1.502 . S
C851 H837 0.960 . S
C851 H838 0.961 . S
C851 H839 0.959 . S
C851 C849 1.561 . S
C852 C849 1.526 . S
C852 C853 1.396 . S
C852 C857 1.390 . S
C853 C847 1.465 . S
C853 C852 1.396 . S
C853 C854 1.399 . S
C854 H840 0.929 . S
C854 C853 1.399 . S
C854 C855 1.385 . S
C855 H841 0.931 . S
C855 C854 1.385 . S
C855 C856 1.389 . S
C856 C855 1.389 . S
C856 C857 1.387 . S
C857 H842 0.930 . S
C857 C852 1.390 . S
C857 C856 1.387 . S
H858 C870 0.930 . S
H859 C872 0.930 1_545 S
H860 C873 0.940 . S
H861 C877 0.959 . S
H862 C877 0.959 . S
H863 C877 0.961 . S
H864 C878 0.960 . S
H865 C878 0.961 . S
H866 C878 0.959 . S
H867 C881 0.929 . S
H868 C882 0.931 . S
H869 C884 0.930 . S
C870 H858 0.930 . S
C870 C871 1.399 . S
C870 C875 1.399 . S
C871 C870 1.399 . S
C871 C872 1.376 . S
C872 H859 0.930 1_565 S
C872 C871 1.376 . S
C872 C873 1.388 . S
C873 H860 0.940 . S
C873 C872 1.388 . S
C873 C874 1.390 . S
C874 C873 1.390 . S
C874 C875 1.394 . S
C874 C880 1.465 . S
C875 C870 1.399 . S
C875 C874 1.394 . S
C875 C876 1.516 . S
C876 C875 1.516 . S
C876 C877 1.502 . S
C876 C878 1.561 . S
C876 C879 1.526 . S
C877 H861 0.959 . S
C877 H862 0.959 . S
C877 H863 0.961 . S
C877 C876 1.502 . S
C878 H864 0.960 . S
C878 H865 0.961 . S
C878 H866 0.959 . S
C878 C876 1.561 . S
C879 C876 1.526 . S
C879 C880 1.396 . S
C879 C884 1.390 . S
C880 C874 1.465 . S
C880 C879 1.396 . S
C880 C881 1.399 . S
C881 H867 0.929 . S
C881 C880 1.399 . S
C881 C882 1.385 . S
C882 H868 0.931 . S
C882 C881 1.385 . S
C882 C883 1.389 . S
C883 C882 1.389 . S
C883 C884 1.387 . S
C884 H869 0.930 . S
C884 C879 1.390 . S
C884 C883 1.387 . S
H885 C897 0.930 . S
H886 C899 0.930 . S
H887 C900 0.930 . S
H888 C904 0.959 . S
H889 C904 0.959 . S
H890 C904 0.961 . S
H891 C905 0.960 . S
H892 C905 0.961 . S
H893 C905 0.959 . S
H894 C908 0.929 . S
H895 C909 0.931 . S
H896 C911 0.930 . S
C897 H885 0.930 . S
C897 C898 1.399 . S
C897 C902 1.399 . S
C898 C897 1.399 . S
C898 C899 1.376 . S
C899 H886 0.930 . S
C899 C898 1.376 . S
C899 C900 1.388 . S
C900 H887 0.930 . S
C900 C899 1.388 . S
C900 C901 1.390 . S
C901 C900 1.390 . S
C901 C902 1.394 . S
C901 C907 1.465 . S
C902 C897 1.399 . S
C902 C901 1.394 . S
C902 C903 1.516 . S
C903 C902 1.516 . S
C903 C904 1.502 . S
C903 C905 1.561 . S
C903 C906 1.526 . S
C904 H888 0.959 . S
C904 H889 0.959 . S
C904 H890 0.961 . S
C904 C903 1.502 . S
C905 H891 0.960 . S
C905 H892 0.961 . S
C905 H893 0.959 . S
C905 C903 1.561 . S
C906 C903 1.526 . S
C906 C907 1.396 . S
C906 C911 1.390 . S
C907 C901 1.465 . S
C907 C906 1.396 . S
C907 C908 1.399 . S
C908 H894 0.929 . S
C908 C907 1.399 . S
C908 C909 1.385 . S
C909 H895 0.931 . S
C909 C908 1.385 . S
C909 C910 1.389 . S
C910 C909 1.389 . S
C910 C911 1.387 . S
C911 H896 0.930 . S
C911 C906 1.390 . S
C911 C910 1.387 . S
H912 C924 0.930 . S
H913 C926 0.930 . S
H914 C927 0.930 . S
H915 C931 0.959 . S
H916 C931 0.959 . S
H917 C931 0.961 . S
H918 C932 0.960 . S
H919 C932 0.961 . S
H920 C932 0.959 . S
H921 C935 0.929 . S
H922 C936 0.931 . S
H923 C938 0.930 . S
C924 H912 0.930 . S
C924 C925 1.399 . S
C924 C929 1.399 . S
C925 C924 1.399 . S
C925 C926 1.376 . S
C926 H913 0.930 . S
C926 C925 1.376 . S
C926 C927 1.388 . S
C927 H914 0.930 . S
C927 C926 1.388 . S
C927 C928 1.390 . S
C928 C927 1.390 . S
C928 C929 1.394 . S
C928 C934 1.465 . S
C929 C924 1.399 . S
C929 C928 1.394 . S
C929 C930 1.516 . S
C930 C929 1.516 . S
C930 C931 1.502 . S
C930 C932 1.561 . S
C930 C933 1.526 . S
C931 H915 0.959 . S
C931 H916 0.959 . S
C931 H917 0.961 . S
C931 C930 1.502 . S
C932 H918 0.960 . S
C932 H919 0.961 . S
C932 H920 0.959 . S
C932 C930 1.561 . S
C933 C930 1.526 . S
C933 C934 1.396 . S
C933 C938 1.390 . S
C934 C928 1.465 . S
C934 C933 1.396 . S
C934 C935 1.399 . S
C935 H921 0.929 . S
C935 C934 1.399 . S
C935 C936 1.385 . S
C936 H922 0.931 . S
C936 C935 1.385 . S
C936 C937 1.389 . S
C937 C936 1.389 . S
C937 C938 1.387 . S
C938 H923 0.930 . S
C938 C933 1.390 . S
C938 C937 1.387 . S
H939 C951 0.930 1_556 S
H940 C953 0.930 . S
H941 C954 0.930 . S
H942 C958 0.959 1_554 S
H943 C958 0.959 . S
H944 C958 0.961 . S
H945 C959 0.960 . S
H946 C959 0.961 . S
H947 C959 0.959 . S
H948 C962 0.929 . S
H949 C963 0.931 . S
H950 C965 0.930 . S
C951 H939 0.930 1_554 S
C951 C952 1.399 . S
C951 C956 1.399 . S
C952 C951 1.399 . S
C952 C953 1.376 . S
C953 H940 0.930 . S
C953 C952 1.376 . S
C953 C954 1.388 . S
C954 H941 0.930 . S
C954 C953 1.388 . S
C954 C955 1.390 . S
C955 C954 1.390 . S
C955 C956 1.394 . S
C955 C961 1.465 . S
C956 C951 1.399 . S
C956 C955 1.394 . S
C956 C957 1.516 . S
C957 C956 1.516 . S
C957 C958 1.502 1_554 S
C957 C959 1.561 1_554 S
C957 C960 1.526 . S
C958 H942 0.959 1_556 S
C958 H943 0.959 . S
C958 H944 0.961 . S
C958 C957 1.502 1_556 S
C959 H945 0.960 . S
C959 H946 0.961 . S
C959 H947 0.959 . S
C959 C957 1.561 1_556 S
C960 C957 1.526 . S
C960 C961 1.396 . S
C960 C965 1.390 . S
C961 C955 1.465 . S
C961 C960 1.396 . S
C961 C962 1.399 . S
C962 H948 0.929 . S
C962 C961 1.399 . S
C962 C963 1.385 . S
C963 H949 0.931 . S
C963 C962 1.385 . S
C963 C964 1.389 . S
C964 C963 1.389 . S
C964 C965 1.387 . S
C965 H950 0.930 . S
C965 C960 1.390 . S
C965 C964 1.387 . S
H966 C978 0.930 . S
H967 C980 0.930 . S
H968 C981 0.930 . S
H969 C985 0.959 . S
H970 C985 0.959 . S
H971 C985 0.961 . S
H972 C986 0.960 . S
H973 C986 0.961 . S
H974 C986 0.959 . S
H975 C989 0.929 . S
H976 C990 0.931 . S
H977 C992 0.930 . S
C978 H966 0.930 . S
C978 C979 1.399 . S
C978 C983 1.399 . S
C979 C978 1.399 . S
C979 C980 1.376 . S
C980 H967 0.930 . S
C980 C979 1.376 . S
C980 C981 1.388 . S
C981 H968 0.930 . S
C981 C980 1.388 . S
C981 C982 1.390 . S
C982 C981 1.390 . S
C982 C983 1.394 . S
C982 C988 1.465 . S
C983 C978 1.399 . S
C983 C982 1.394 . S
C983 C984 1.516 . S
C984 C983 1.516 . S
C984 C985 1.502 . S
C984 C986 1.561 . S
C984 C987 1.526 . S
C985 H969 0.959 . S
C985 H970 0.959 . S
C985 H971 0.961 . S
C985 C984 1.502 . S
C986 H972 0.960 . S
C986 H973 0.961 . S
C986 H974 0.959 . S
C986 C984 1.561 . S
C987 C984 1.526 . S
C987 C988 1.396 . S
C987 C992 1.390 . S
C988 C982 1.465 . S
C988 C987 1.396 . S
C988 C989 1.399 . S
C989 H975 0.929 . S
C989 C988 1.399 . S
C989 C990 1.385 . S
C990 H976 0.931 . S
C990 C989 1.385 . S
C990 C991 1.389 . S
C991 C990 1.389 . S
C991 C992 1.387 . S
C992 H977 0.930 . S
C992 C987 1.390 . S
C992 C991 1.387 . S
H993 C1005 0.930 1_554 S
H994 C1007 0.930 . S
H995 C1008 0.930 . S
H996 C1012 0.959 . S
H997 C1012 0.967 . S
H998 C1012 0.961 1_554 S
H999 C1013 0.960 . S
H1000 C1013 0.961 . S
H1001 C1013 0.959 . S
H1002 C1016 0.929 . S
H1003 C1017 0.931 . S
H1004 C1019 0.930 . S
C1005 H993 0.930 1_556 S
C1005 C1006 1.399 . S
C1005 C1010 1.399 . S
C1006 C1005 1.399 . S
C1006 C1007 1.376 . S
C1007 H994 0.930 . S
C1007 C1006 1.376 . S
C1007 C1008 1.388 . S
C1008 H995 0.930 . S
C1008 C1007 1.388 . S
C1008 C1009 1.390 . S
C1009 C1008 1.390 . S
C1009 C1010 1.394 . S
C1009 C1015 1.465 . S
C1010 C1005 1.399 . S
C1010 C1009 1.394 . S
C1010 C1011 1.516 . S
C1011 C1010 1.516 . S
C1011 C1012 1.502 . S
C1011 C1013 1.561 1_556 S
C1011 C1014 1.526 . S
C1012 H996 0.959 . S
C1012 H997 0.967 . S
C1012 H998 0.961 1_556 S
C1012 C1011 1.502 . S
C1013 H999 0.960 . S
C1013 H1000 0.961 . S
C1013 H1001 0.959 . S
C1013 C1011 1.561 1_554 S
C1014 C1011 1.526 . S
C1014 C1015 1.396 . S
C1014 C1019 1.390 . S
C1015 C1009 1.465 . S
C1015 C1014 1.396 . S
C1015 C1016 1.399 . S
C1016 H1002 0.929 . S
C1016 C1015 1.399 . S
C1016 C1017 1.385 . S
C1017 H1003 0.931 . S
C1017 C1016 1.385 . S
C1017 C1018 1.389 . S
C1018 C1017 1.389 . S
C1018 C1019 1.387 . S
C1019 H1004 0.930 . S
C1019 C1014 1.390 . S
C1019 C1018 1.387 . S
H1020 C1032 0.930 . S
H1021 C1034 0.930 . S
H1022 C1035 0.930 . S
H1023 C1039 0.959 . S
H1024 C1039 0.959 . S
H1025 C1039 0.961 . S
H1026 C1040 0.960 . S
H1027 C1040 0.961 . S
H1028 C1040 0.959 . S
H1029 C1043 0.929 . S
H1030 C1044 0.931 . S
H1031 C1046 0.930 . S
C1032 H1020 0.930 . S
C1032 C1033 1.399 . S
C1032 C1037 1.399 . S
C1033 C1032 1.399 . S
C1033 C1034 1.376 . S
C1034 H1021 0.930 . S
C1034 C1033 1.376 . S
C1034 C1035 1.388 . S
C1035 H1022 0.930 . S
C1035 C1034 1.388 . S
C1035 C1036 1.390 . S
C1036 C1035 1.390 . S
C1036 C1037 1.394 . S
C1036 C1042 1.465 . S
C1037 C1032 1.399 . S
C1037 C1036 1.394 . S
C1037 C1038 1.516 . S
C1038 C1037 1.516 . S
C1038 C1039 1.502 . S
C1038 C1040 1.561 . S
C1038 C1041 1.526 . S
C1039 H1023 0.959 . S
C1039 H1024 0.959 . S
C1039 H1025 0.961 . S
C1039 C1038 1.502 . S
C1040 H1026 0.960 . S
C1040 H1027 0.961 . S
C1040 H1028 0.959 . S
C1040 C1038 1.561 . S
C1041 C1038 1.526 . S
C1041 C1042 1.396 . S
C1041 C1046 1.390 . S
C1042 C1036 1.465 . S
C1042 C1041 1.396 . S
C1042 C1043 1.399 . S
C1043 H1029 0.929 . S
C1043 C1042 1.399 . S
C1043 C1044 1.385 . S
C1044 H1030 0.931 . S
C1044 C1043 1.385 . S
C1044 C1045 1.389 . S
C1045 C1044 1.389 . S
C1045 C1046 1.387 . S
C1046 H1031 0.930 . S
C1046 C1041 1.390 . S
C1046 C1045 1.387 . S
H1047 C1059 0.930 . S
H1048 C1061 0.930 . S
H1049 C1062 0.930 . S
H1050 C1066 0.959 1_655 S
H1051 C1066 0.959 . S
H1052 C1066 0.961 1_655 S
H1053 C1067 0.960 . S
H1054 C1067 0.961 . S
H1055 C1067 0.959 . S
H1056 C1070 0.929 . S
H1057 C1071 0.931 . S
H1058 C1073 0.930 . S
C1059 H1047 0.930 . S
C1059 C1060 1.399 . S
C1059 C1064 1.399 . S
C1060 C1059 1.399 . S
C1060 C1061 1.376 . S
C1061 H1048 0.930 . S
C1061 C1060 1.376 . S
C1061 C1062 1.388 . S
C1062 H1049 0.930 . S
C1062 C1061 1.388 . S
C1062 C1063 1.390 . S
C1063 C1062 1.390 . S
C1063 C1064 1.394 . S
C1063 C1069 1.465 . S
C1064 C1059 1.399 . S
C1064 C1063 1.394 . S
C1064 C1065 1.516 . S
C1065 C1064 1.516 . S
C1065 C1066 1.502 . S
C1065 C1067 1.561 . S
C1065 C1068 1.526 . S
C1066 H1050 0.959 1_455 S
C1066 H1051 0.959 . S
C1066 H1052 0.961 1_455 S
C1066 C1065 1.502 . S
C1067 H1053 0.960 . S
C1067 H1054 0.961 . S
C1067 H1055 0.959 . S
C1067 C1065 1.561 . S
C1068 C1065 1.526 . S
C1068 C1069 1.396 . S
C1068 C1073 1.390 . S
C1069 C1063 1.465 . S
C1069 C1068 1.396 . S
C1069 C1070 1.399 . S
C1070 H1056 0.929 . S
C1070 C1069 1.399 . S
C1070 C1071 1.385 . S
C1071 H1057 0.931 . S
C1071 C1070 1.385 . S
C1071 C1072 1.389 . S
C1072 C1071 1.389 . S
C1072 C1073 1.387 . S
C1073 H1058 0.930 . S
C1073 C1068 1.390 . S
C1073 C1072 1.387 . S
H1074 C1086 0.930 . S
H1075 C1088 0.930 . S
H1076 C1089 0.930 . S
H1077 C1093 0.959 . S
H1078 C1093 0.959 . S
H1079 C1093 0.961 . S
H1080 C1094 0.960 . S
H1081 C1094 0.961 . S
H1082 C1094 0.959 . S
H1083 C1097 0.929 . S
H1084 C1098 0.931 . S
H1085 C1100 0.930 . S
C1086 H1074 0.930 . S
C1086 C1087 1.399 . S
C1086 C1091 1.399 . S
C1087 C1086 1.399 . S
C1087 C1088 1.376 . S
C1088 H1075 0.930 . S
C1088 C1087 1.376 . S
C1088 C1089 1.388 . S
C1089 H1076 0.930 . S
C1089 C1088 1.388 . S
C1089 C1090 1.390 . S
C1090 C1089 1.390 . S
C1090 C1091 1.394 . S
C1090 C1096 1.465 . S
C1091 C1086 1.399 . S
C1091 C1090 1.394 . S
C1091 C1092 1.516 . S
C1092 C1091 1.516 . S
C1092 C1093 1.502 . S
C1092 C1094 1.561 . S
C1092 C1095 1.526 . S
C1093 H1077 0.959 . S
C1093 H1078 0.959 . S
C1093 H1079 0.961 . S
C1093 C1092 1.502 . S
C1094 H1080 0.960 . S
C1094 H1081 0.961 . S
C1094 H1082 0.959 . S
C1094 C1092 1.561 . S
C1095 C1092 1.526 . S
C1095 C1096 1.396 . S
C1095 C1100 1.390 . S
C1096 C1090 1.465 . S
C1096 C1095 1.396 . S
C1096 C1097 1.399 . S
C1097 H1083 0.929 . S
C1097 C1096 1.399 . S
C1097 C1098 1.385 . S
C1098 H1084 0.931 . S
C1098 C1097 1.385 . S
C1098 C1099 1.389 . S
C1099 C1098 1.389 . S
C1099 C1100 1.387 . S
C1100 H1085 0.930 . S
C1100 C1095 1.390 . S
C1100 C1099 1.387 . S
H1101 C1113 0.930 1_455 S
H1102 C1115 0.930 . S
H1103 C1116 0.930 . S
H1104 C1120 0.959 1_655 S
H1105 C1120 0.959 . S
H1106 C1120 0.961 . S
H1107 C1121 0.960 . S
H1108 C1121 0.961 . S
H1109 C1121 0.959 . S
H1110 C1124 0.929 . S
H1111 C1125 0.931 . S
H1112 C1127 0.930 . S
C1113 H1101 0.930 1_655 S
C1113 C1114 1.399 . S
C1113 C1118 1.399 . S
C1114 C1113 1.399 . S
C1114 C1115 1.376 . S
C1115 H1102 0.930 . S
C1115 C1114 1.376 . S
C1115 C1116 1.388 . S
C1116 H1103 0.930 . S
C1116 C1115 1.388 . S
C1116 C1117 1.390 . S
C1117 C1116 1.390 . S
C1117 C1118 1.394 . S
C1117 C1123 1.465 . S
C1118 C1113 1.399 . S
C1118 C1117 1.394 . S
C1118 C1119 1.516 . S
C1119 C1118 1.516 . S
C1119 C1120 1.502 1_655 S
C1119 C1121 1.561 1_655 S
C1119 C1122 1.526 . S
C1120 H1104 0.959 1_455 S
C1120 H1105 0.959 . S
C1120 H1106 0.961 . S
C1120 C1119 1.502 1_455 S
C1121 H1107 0.960 . S
C1121 H1108 0.961 . S
C1121 H1109 0.959 . S
C1121 C1119 1.561 1_455 S
C1122 C1119 1.526 . S
C1122 C1123 1.396 . S
C1122 C1127 1.390 . S
C1123 C1117 1.465 . S
C1123 C1122 1.396 . S
C1123 C1124 1.399 . S
C1124 H1110 0.929 . S
C1124 C1123 1.399 . S
C1124 C1125 1.385 . S
C1125 H1111 0.931 . S
C1125 C1124 1.385 . S
C1125 C1126 1.389 . S
C1126 C1125 1.389 . S
C1126 C1127 1.387 . S
C1127 H1112 0.930 . S
C1127 C1122 1.390 . S
C1127 C1126 1.387 . S
H1128 C1140 0.930 . S
H1129 C1142 0.930 . S
H1130 C1143 0.930 . S
H1131 C1147 0.959 . S
H1132 C1147 0.959 . S
H1133 C1147 0.961 . S
H1134 C1148 0.960 . S
H1135 C1148 0.961 . S
H1136 C1148 0.959 . S
H1137 C1151 0.929 . S
H1138 C1152 0.931 . S
H1139 C1154 0.930 . S
C1140 H1128 0.930 . S
C1140 C1141 1.399 . S
C1140 C1145 1.399 . S
C1141 C1140 1.399 . S
C1141 C1142 1.376 . S
C1142 H1129 0.930 . S
C1142 C1141 1.376 . S
C1142 C1143 1.388 . S
C1143 H1130 0.930 . S
C1143 C1142 1.388 . S
C1143 C1144 1.390 . S
C1144 C1143 1.390 . S
C1144 C1145 1.394 . S
C1144 C1150 1.465 . S
C1145 C1140 1.399 . S
C1145 C1144 1.394 . S
C1145 C1146 1.516 . S
C1146 C1145 1.516 . S
C1146 C1147 1.502 . S
C1146 C1148 1.561 . S
C1146 C1149 1.526 . S
C1147 H1131 0.959 . S
C1147 H1132 0.959 . S
C1147 H1133 0.961 . S
C1147 C1146 1.502 . S
C1148 H1134 0.960 . S
C1148 H1135 0.961 . S
C1148 H1136 0.959 . S
C1148 C1146 1.561 . S
C1149 C1146 1.526 . S
C1149 C1150 1.396 . S
C1149 C1154 1.390 . S
C1150 C1144 1.465 . S
C1150 C1149 1.396 . S
C1150 C1151 1.399 . S
C1151 H1137 0.929 . S
C1151 C1150 1.399 . S
C1151 C1152 1.385 . S
C1152 H1138 0.931 . S
C1152 C1151 1.385 . S
C1152 C1153 1.389 . S
C1153 C1152 1.389 . S
C1153 C1154 1.387 . S
C1154 H1139 0.930 . S
C1154 C1149 1.390 . S
C1154 C1153 1.387 . S
H1155 C1167 0.930 . S
H1156 C1169 0.930 . S
H1157 C1170 0.930 . S
H1158 C1174 0.959 . S
H1159 C1174 0.959 . S
H1160 C1174 0.961 . S
H1161 C1175 0.960 . S
H1162 C1175 0.961 . S
H1163 C1175 0.959 . S
H1164 C1178 0.929 . S
H1165 C1179 0.931 . S
H1166 C1181 0.930 . S
C1167 H1155 0.930 . S
C1167 C1168 1.399 . S
C1167 C1172 1.399 . S
C1168 C1167 1.399 . S
C1168 C1169 1.376 . S
C1169 H1156 0.930 . S
C1169 C1168 1.376 . S
C1169 C1170 1.388 . S
C1170 H1157 0.930 . S
C1170 C1169 1.388 . S
C1170 C1171 1.390 . S
C1171 C1170 1.390 . S
C1171 C1172 1.394 . S
C1171 C1177 1.465 . S
C1172 C1167 1.399 . S
C1172 C1171 1.394 . S
C1172 C1173 1.516 . S
C1173 C1172 1.516 . S
C1173 C1174 1.502 . S
C1173 C1175 1.561 . S
C1173 C1176 1.526 . S
C1174 H1158 0.959 . S
C1174 H1159 0.959 . S
C1174 H1160 0.961 . S
C1174 C1173 1.502 . S
C1175 H1161 0.960 . S
C1175 H1162 0.961 . S
C1175 H1163 0.959 . S
C1175 C1173 1.561 . S
C1176 C1173 1.526 . S
C1176 C1177 1.396 . S
C1176 C1181 1.390 . S
C1177 C1171 1.465 . S
C1177 C1176 1.396 . S
C1177 C1178 1.399 . S
C1178 H1164 0.929 . S
C1178 C1177 1.399 . S
C1178 C1179 1.385 . S
C1179 H1165 0.931 . S
C1179 C1178 1.385 . S
C1179 C1180 1.389 . S
C1180 C1179 1.389 . S
C1180 C1181 1.387 . S
C1181 H1166 0.930 . S
C1181 C1176 1.390 . S
C1181 C1180 1.387 . S
H1182 C1194 0.930 . S
H1183 C1196 0.930 . S
H1184 C1197 0.930 . S
H1185 C1201 0.959 . S
H1186 C1201 0.959 . S
H1187 C1201 0.961 . S
H1188 C1202 0.960 . S
H1189 C1202 0.961 . S
H1190 C1202 0.959 . S
H1191 C1205 0.928 . S
H1192 C1206 0.931 . S
H1193 C1208 0.930 . S
C1194 H1182 0.930 . S
C1194 C1195 1.399 . S
C1194 C1199 1.399 . S
C1195 C1194 1.399 . S
C1195 C1196 1.376 . S
C1196 H1183 0.930 . S
C1196 C1195 1.376 . S
C1196 C1197 1.388 . S
C1197 H1184 0.930 . S
C1197 C1196 1.388 . S
C1197 C1198 1.390 . S
C1198 C1197 1.390 . S
C1198 C1199 1.394 . S
C1198 C1204 1.465 . S
C1199 C1194 1.399 . S
C1199 C1198 1.394 . S
C1199 C1200 1.516 . S
C1200 C1199 1.516 . S
C1200 C1201 1.502 . S
C1200 C1202 1.561 1_565 S
C1200 C1203 1.529 . S
C1201 H1185 0.959 . S
C1201 H1186 0.959 . S
C1201 H1187 0.961 . S
C1201 C1200 1.502 . S
C1202 H1188 0.960 . S
C1202 H1189 0.961 . S
C1202 H1190 0.959 . S
C1202 C1200 1.561 1_545 S
C1203 C1200 1.529 . S
C1203 C1204 1.402 . S
C1203 C1208 1.383 1_565 S
C1204 C1198 1.465 . S
C1204 C1203 1.402 . S
C1204 C1205 1.399 . S
C1205 H1191 0.928 . S
C1205 C1204 1.399 . S
C1205 C1206 1.385 1_565 S
C1206 H1192 0.931 . S
C1206 C1205 1.385 1_545 S
C1206 C1207 1.389 . S
C1207 C1206 1.389 . S
C1207 C1208 1.387 . S
C1208 H1193 0.930 . S
C1208 C1203 1.383 1_545 S
C1208 C1207 1.387 . S
H1209 C1221 0.930 . S
H1210 C1223 0.930 . S
H1211 C1224 0.930 . S
H1212 C1228 0.959 . S
H1213 C1228 0.959 . S
H1214 C1228 0.961 . S
H1215 C1229 0.960 . S
H1216 C1229 0.961 . S
H1217 C1229 0.959 . S
H1218 C1232 0.929 . S
H1219 C1233 0.931 . S
H1220 C1235 0.930 . S
C1221 H1209 0.930 . S
C1221 C1222 1.399 . S
C1221 C1226 1.399 . S
C1222 C1221 1.399 . S
C1222 C1223 1.376 1_545 S
C1223 H1210 0.930 . S
C1223 C1222 1.376 1_565 S
C1223 C1224 1.388 . S
C1224 H1211 0.930 . S
C1224 C1223 1.388 . S
C1224 C1225 1.390 1_565 S
C1225 C1224 1.390 1_545 S
C1225 C1226 1.394 . S
C1225 C1231 1.465 1_545 S
C1226 C1221 1.399 . S
C1226 C1225 1.394 . S
C1226 C1227 1.516 . S
C1227 C1226 1.516 . S
C1227 C1228 1.502 . S
C1227 C1229 1.561 . S
C1227 C1230 1.526 . S
C1228 H1212 0.959 . S
C1228 H1213 0.959 . S
C1228 H1214 0.961 . S
C1228 C1227 1.502 . S
C1229 H1215 0.960 . S
C1229 H1216 0.961 . S
C1229 H1217 0.959 . S
C1229 C1227 1.561 . S
C1230 C1227 1.526 . S
C1230 C1231 1.396 1_545 S
C1230 C1235 1.390 . S
C1231 C1225 1.465 1_565 S
C1231 C1230 1.396 1_565 S
C1231 C1232 1.399 . S
C1232 H1218 0.929 . S
C1232 C1231 1.399 . S
C1232 C1233 1.385 . S
C1233 H1219 0.931 . S
C1233 C1232 1.385 . S
C1233 C1234 1.411 . S
C1234 C1233 1.411 . S
C1234 C1235 1.368 1_565 S
C1235 H1220 0.930 . S
C1235 C1230 1.390 . S
C1235 C1234 1.368 1_545 S
H1236 C1248 0.930 . S
H1237 C1250 0.930 . S
H1238 C1251 0.930 . S
H1239 C1255 0.959 . S
H1240 C1255 0.959 . S
H1241 C1255 0.961 . S
H1242 C1256 0.960 . S
H1243 C1256 0.961 . S
H1244 C1256 0.959 . S
H1245 C1259 0.929 . S
H1246 C1260 0.931 . S
H1247 C1262 0.930 . S
C1248 H1236 0.930 . S
C1248 C1249 1.399 . S
C1248 C1253 1.399 . S
C1249 C1248 1.399 . S
C1249 C1250 1.376 . S
C1250 H1237 0.930 . S
C1250 C1249 1.376 . S
C1250 C1251 1.388 . S
C1251 H1238 0.930 . S
C1251 C1250 1.388 . S
C1251 C1252 1.390 . S
C1252 C1251 1.390 . S
C1252 C1253 1.394 . S
C1252 C1258 1.465 . S
C1253 C1248 1.399 . S
C1253 C1252 1.394 . S
C1253 C1254 1.516 . S
C1254 C1253 1.516 . S
C1254 C1255 1.502 . S
C1254 C1256 1.561 . S
C1254 C1257 1.526 . S
C1255 H1239 0.959 . S
C1255 H1240 0.959 . S
C1255 H1241 0.961 . S
C1255 C1254 1.502 . S
C1256 H1242 0.960 . S
C1256 H1243 0.961 . S
C1256 H1244 0.959 . S
C1256 C1254 1.561 . S
C1257 C1254 1.526 . S
C1257 C1258 1.396 . S
C1257 C1262 1.390 . S
C1258 C1252 1.465 . S
C1258 C1257 1.396 . S
C1258 C1259 1.399 . S
C1259 H1245 0.929 . S
C1259 C1258 1.399 . S
C1259 C1260 1.385 . S
C1260 H1246 0.931 . S
C1260 C1259 1.385 . S
C1260 C1261 1.389 . S
C1261 C1260 1.389 . S
C1261 C1262 1.387 . S
C1262 H1247 0.930 . S
C1262 C1257 1.390 . S
C1262 C1261 1.387 . S
H1263 C1275 0.930 . S
H1264 C1277 0.930 . S
H1265 C1278 0.930 . S
H1266 C1282 0.959 . S
H1267 C1282 0.959 . S
H1268 C1282 0.961 . S
H1269 C1283 0.960 . S
H1270 C1283 0.961 . S
H1271 C1283 0.959 . S
H1272 C1286 0.929 . S
H1273 C1287 0.931 . S
H1274 C1289 0.930 . S
C1275 H1263 0.930 . S
C1275 C1276 1.399 . S
C1275 C1280 1.399 . S
C1276 C1275 1.399 . S
C1276 C1277 1.376 1_554 S
C1277 H1264 0.930 . S
C1277 C1276 1.376 1_556 S
C1277 C1278 1.388 . S
C1278 H1265 0.930 . S
C1278 C1277 1.388 . S
C1278 C1279 1.372 1_556 S
C1279 C1278 1.372 1_554 S
C1279 C1280 1.418 . S
C1279 C1285 1.464 1_554 S
C1280 C1275 1.399 . S
C1280 C1279 1.418 . S
C1280 C1281 1.516 . S
C1281 C1280 1.516 . S
C1281 C1282 1.502 . S
C1281 C1283 1.561 . S
C1281 C1284 1.526 . S
C1282 H1266 0.959 . S
C1282 H1267 0.959 . S
C1282 H1268 0.961 . S
C1282 C1281 1.502 . S
C1283 H1269 0.960 . S
C1283 H1270 0.961 . S
C1283 H1271 0.959 . S
C1283 C1281 1.561 . S
C1284 C1281 1.526 . S
C1284 C1285 1.396 1_554 S
C1284 C1289 1.390 . S
C1285 C1279 1.464 1_556 S
C1285 C1284 1.396 1_556 S
C1285 C1286 1.399 . S
C1286 H1272 0.929 . S
C1286 C1285 1.399 . S
C1286 C1287 1.385 . S
C1287 H1273 0.931 . S
C1287 C1286 1.385 . S
C1287 C1288 1.425 . S
C1288 C1287 1.425 . S
C1288 C1289 1.356 1_556 S
C1289 H1274 0.930 . S
C1289 C1284 1.390 . S
C1289 C1288 1.356 1_554 S
H1290 C1302 0.930 . S
H1291 C1304 0.930 . S
H1292 C1305 0.930 . S
H1293 C1309 0.959 . S
H1294 C1309 0.959 . S
H1295 C1309 0.961 . S
H1296 C1310 0.960 . S
H1297 C1310 0.961 . S
H1298 C1310 0.959 . S
H1299 C1313 0.929 . S
H1300 C1314 0.931 . S
H1301 C1316 0.930 . S
C1302 H1290 0.930 . S
C1302 C1303 1.399 . S
C1302 C1307 1.399 . S
C1303 C1302 1.399 . S
C1303 C1304 1.376 . S
C1304 H1291 0.930 . S
C1304 C1303 1.376 . S
C1304 C1305 1.388 . S
C1305 H1292 0.930 . S
C1305 C1304 1.388 . S
C1305 C1306 1.390 . S
C1306 C1305 1.390 . S
C1306 C1307 1.394 . S
C1306 C1312 1.465 . S
C1307 C1302 1.399 . S
C1307 C1306 1.394 . S
C1307 C1308 1.516 . S
C1308 C1307 1.516 . S
C1308 C1309 1.502 . S
C1308 C1310 1.561 . S
C1308 C1311 1.526 . S
C1309 H1293 0.959 . S
C1309 H1294 0.959 . S
C1309 H1295 0.961 . S
C1309 C1308 1.502 . S
C1310 H1296 0.960 . S
C1310 H1297 0.961 . S
C1310 H1298 0.959 . S
C1310 C1308 1.561 . S
C1311 C1308 1.526 . S
C1311 C1312 1.396 . S
C1311 C1316 1.390 . S
C1312 C1306 1.465 . S
C1312 C1311 1.396 . S
C1312 C1313 1.399 . S
C1313 H1299 0.929 . S
C1313 C1312 1.399 . S
C1313 C1314 1.385 . S
C1314 H1300 0.931 . S
C1314 C1313 1.385 . S
C1314 C1315 1.389 . S
C1315 C1314 1.389 . S
C1315 C1316 1.387 . S
C1316 H1301 0.930 . S
C1316 C1311 1.390 . S
C1316 C1315 1.387 . S
H1317 C1329 0.930 . S
H1318 C1331 0.930 . S
H1319 C1332 0.930 . S
H1320 C1336 0.959 . S
H1321 C1336 0.959 . S
H1322 C1336 0.961 . S
H1323 C1337 0.960 . S
H1324 C1337 0.961 . S
H1325 C1337 0.959 . S
H1326 C1340 0.934 . S
H1327 C1341 0.931 . S
H1328 C1343 0.930 . S
C1329 H1317 0.930 . S
C1329 C1330 1.399 . S
C1329 C1334 1.399 . S
C1330 C1329 1.399 . S
C1330 C1331 1.376 . S
C1331 H1318 0.930 . S
C1331 C1330 1.376 . S
C1331 C1332 1.388 . S
C1332 H1319 0.930 . S
C1332 C1331 1.388 . S
C1332 C1333 1.390 . S
C1333 C1332 1.390 . S
C1333 C1334 1.394 . S
C1333 C1339 1.465 . S
C1334 C1329 1.399 . S
C1334 C1333 1.394 . S
C1334 C1335 1.516 . S
C1335 C1334 1.516 . S
C1335 C1336 1.502 . S
C1335 C1337 1.561 1_556 S
C1335 C1338 1.527 . S
C1336 H1320 0.959 . S
C1336 H1321 0.959 . S
C1336 H1322 0.961 . S
C1336 C1335 1.502 . S
C1337 H1323 0.960 . S
C1337 H1324 0.961 . S
C1337 H1325 0.959 . S
C1337 C1335 1.561 1_554 S
C1338 C1335 1.527 . S
C1338 C1339 1.401 . S
C1338 C1343 1.385 1_556 S
C1339 C1333 1.465 . S
C1339 C1338 1.401 . S
C1339 C1340 1.401 . S
C1340 H1326 0.934 . S
C1340 C1339 1.401 . S
C1340 C1341 1.380 1_556 S
C1341 H1327 0.931 . S
C1341 C1340 1.380 1_554 S
C1341 C1342 1.389 . S
C1342 C1341 1.389 . S
C1342 C1343 1.387 . S
C1343 H1328 0.930 . S
C1343 C1338 1.385 1_554 S
C1343 C1342 1.387 . S
H1344 C1356 0.930 . S
H1345 C1358 0.930 . S
H1346 C1359 0.930 . S
H1347 C1363 0.959 . S
H1348 C1363 0.959 . S
H1349 C1363 0.961 . S
H1350 C1364 0.960 . S
H1351 C1364 0.961 . S
H1352 C1364 0.959 . S
H1353 C1367 0.929 . S
H1354 C1368 0.931 . S
H1355 C1370 0.930 . S
C1356 H1344 0.930 . S
C1356 C1357 1.399 . S
C1356 C1361 1.399 . S
C1357 C1356 1.399 . S
C1357 C1358 1.376 . S
C1358 H1345 0.930 . S
C1358 C1357 1.376 . S
C1358 C1359 1.388 . S
C1359 H1346 0.930 . S
C1359 C1358 1.388 . S
C1359 C1360 1.390 . S
C1360 C1359 1.390 . S
C1360 C1361 1.394 . S
C1360 C1366 1.465 . S
C1361 C1356 1.399 . S
C1361 C1360 1.394 . S
C1361 C1362 1.516 . S
C1362 C1361 1.516 . S
C1362 C1363 1.502 . S
C1362 C1364 1.561 . S
C1362 C1365 1.526 . S
C1363 H1347 0.959 . S
C1363 H1348 0.959 . S
C1363 H1349 0.961 . S
C1363 C1362 1.502 . S
C1364 H1350 0.960 . S
C1364 H1351 0.961 . S
C1364 H1352 0.959 . S
C1364 C1362 1.561 . S
C1365 C1362 1.526 . S
C1365 C1366 1.396 . S
C1365 C1370 1.390 . S
C1366 C1360 1.465 . S
C1366 C1365 1.396 . S
C1366 C1367 1.399 . S
C1367 H1353 0.929 . S
C1367 C1366 1.399 . S
C1367 C1368 1.385 . S
C1368 H1354 0.931 . S
C1368 C1367 1.385 . S
C1368 C1369 1.389 . S
C1369 C1368 1.389 . S
C1369 C1370 1.387 . S
C1370 H1355 0.930 . S
C1370 C1365 1.390 . S
C1370 C1369 1.387 . S
H1371 C1383 0.930 . S
H1372 C1385 0.930 . S
H1373 C1386 0.930 . S
H1374 C1390 0.959 . S
H1375 C1390 0.959 . S
H1376 C1390 0.961 . S
H1377 C1391 0.960 . S
H1378 C1391 0.961 . S
H1379 C1391 0.959 . S
H1380 C1394 0.929 . S
H1381 C1395 0.931 . S
H1382 C1397 0.930 . S
C1383 H1371 0.930 . S
C1383 C1384 1.399 . S
C1383 C1388 1.399 . S
C1384 C1383 1.399 . S
C1384 C1385 1.376 . S
C1385 H1372 0.930 . S
C1385 C1384 1.376 . S
C1385 C1386 1.388 . S
C1386 H1373 0.930 . S
C1386 C1385 1.388 . S
C1386 C1387 1.390 . S
C1387 C1386 1.390 . S
C1387 C1388 1.394 . S
C1387 C1393 1.465 . S
C1388 C1383 1.399 . S
C1388 C1387 1.394 . S
C1388 C1389 1.516 . S
C1389 C1388 1.516 . S
C1389 C1390 1.502 1_455 S
C1389 C1391 1.561 . S
C1389 C1392 1.526 . S
C1390 H1374 0.959 . S
C1390 H1375 0.959 . S
C1390 H1376 0.961 . S
C1390 C1389 1.502 1_655 S
C1391 H1377 0.960 . S
C1391 H1378 0.961 . S
C1391 H1379 0.959 . S
C1391 C1389 1.561 . S
C1392 C1389 1.526 . S
C1392 C1393 1.396 . S
C1392 C1397 1.390 1_455 S
C1393 C1387 1.465 . S
C1393 C1392 1.396 . S
C1393 C1394 1.399 . S
C1394 H1380 0.929 . S
C1394 C1393 1.399 . S
C1394 C1395 1.385 . S
C1395 H1381 0.931 . S
C1395 C1394 1.385 . S
C1395 C1396 1.389 . S
C1396 C1395 1.389 . S
C1396 C1397 1.387 1_455 S
C1397 H1382 0.930 . S
C1397 C1392 1.390 1_655 S
C1397 C1396 1.387 1_655 S
H1398 C1410 0.930 . S
H1399 C1412 0.930 . S
H1400 C1413 0.930 . S
H1401 C1417 0.959 . S
H1402 C1417 0.959 . S
H1403 C1417 0.961 . S
H1404 C1418 0.960 . S
H1405 C1418 0.961 . S
H1406 C1418 0.959 . S
H1407 C1421 0.929 . S
H1408 C1422 0.931 . S
H1409 C1424 0.930 . S
C1410 H1398 0.930 . S
C1410 C1411 1.399 . S
C1410 C1415 1.399 . S
C1411 C1410 1.399 . S
C1411 C1412 1.376 . S
C1412 H1399 0.930 . S
C1412 C1411 1.376 . S
C1412 C1413 1.388 . S
C1413 H1400 0.930 . S
C1413 C1412 1.388 . S
C1413 C1414 1.390 . S
C1414 C1413 1.390 . S
C1414 C1415 1.394 . S
C1414 C1420 1.465 . S
C1415 C1410 1.399 . S
C1415 C1414 1.394 . S
C1415 C1416 1.516 . S
C1416 C1415 1.516 . S
C1416 C1417 1.502 . S
C1416 C1418 1.561 . S
C1416 C1419 1.526 . S
C1417 H1401 0.959 . S
C1417 H1402 0.959 . S
C1417 H1403 0.961 . S
C1417 C1416 1.502 . S
C1418 H1404 0.960 . S
C1418 H1405 0.961 . S
C1418 H1406 0.959 . S
C1418 C1416 1.561 . S
C1419 C1416 1.526 . S
C1419 C1420 1.396 . S
C1419 C1424 1.390 . S
C1420 C1414 1.465 . S
C1420 C1419 1.396 . S
C1420 C1421 1.399 . S
C1421 H1407 0.929 . S
C1421 C1420 1.399 . S
C1421 C1422 1.385 . S
C1422 H1408 0.931 . S
C1422 C1421 1.385 . S
C1422 C1423 1.389 . S
C1423 C1422 1.389 . S
C1423 C1424 1.387 . S
C1424 H1409 0.930 . S
C1424 C1419 1.390 . S
C1424 C1423 1.387 . S
H1425 C1437 0.930 . S
H1426 C1439 0.930 . S
H1427 C1440 0.930 . S
H1428 C1444 0.959 . S
H1429 C1444 0.959 . S
H1430 C1444 0.961 . S
H1431 C1445 0.960 . S
H1432 C1445 0.961 . S
H1433 C1445 0.959 . S
H1434 C1448 0.929 . S
H1435 C1449 0.931 . S
H1436 C1451 0.930 . S
C1437 H1425 0.930 . S
C1437 C1438 1.399 . S
C1437 C1442 1.399 . S
C1438 C1437 1.399 . S
C1438 C1439 1.376 . S
C1439 H1426 0.930 . S
C1439 C1438 1.376 . S
C1439 C1440 1.388 . S
C1440 H1427 0.930 . S
C1440 C1439 1.388 . S
C1440 C1441 1.390 . S
C1441 C1440 1.390 . S
C1441 C1442 1.394 . S
C1441 C1447 1.465 . S
C1442 C1437 1.399 . S
C1442 C1441 1.394 . S
C1442 C1443 1.516 . S
C1443 C1442 1.516 . S
C1443 C1444 1.502 1_655 S
C1443 C1445 1.561 . S
C1443 C1446 1.526 . S
C1444 H1428 0.959 . S
C1444 H1429 0.959 . S
C1444 H1430 0.961 . S
C1444 C1443 1.502 1_455 S
C1445 H1431 0.960 . S
C1445 H1432 0.961 . S
C1445 H1433 0.959 . S
C1445 C1443 1.561 . S
C1446 C1443 1.526 . S
C1446 C1447 1.396 . S
C1446 C1451 1.390 1_655 S
C1447 C1441 1.465 . S
C1447 C1446 1.396 . S
C1447 C1448 1.399 . S
C1448 H1434 0.929 . S
C1448 C1447 1.399 . S
C1448 C1449 1.385 . S
C1449 H1435 0.931 . S
C1449 C1448 1.385 . S
C1449 C1450 1.389 1_655 S
C1450 C1449 1.389 1_455 S
C1450 C1451 1.387 . S
C1451 H1436 0.930 . S
C1451 C1446 1.390 1_455 S
C1451 C1450 1.387 . S
H1452 C1464 0.930 . S
H1453 C1466 0.930 . S
H1454 C1467 0.930 . S
H1455 C1471 0.959 . S
H1456 C1471 0.959 . S
H1457 C1471 0.961 . S
H1458 C1472 0.960 . S
H1459 C1472 0.961 . S
H1460 C1472 0.959 . S
H1461 C1475 0.929 . S
H1462 C1476 0.931 . S
H1463 C1478 0.930 . S
C1464 H1452 0.930 . S
C1464 C1465 1.399 . S
C1464 C1469 1.399 . S
C1465 C1464 1.399 . S
C1465 C1466 1.376 . S
C1466 H1453 0.930 . S
C1466 C1465 1.376 . S
C1466 C1467 1.388 . S
C1467 H1454 0.930 . S
C1467 C1466 1.388 . S
C1467 C1468 1.390 . S
C1468 C1467 1.390 . S
C1468 C1469 1.394 . S
C1468 C1474 1.465 . S
C1469 C1464 1.399 . S
C1469 C1468 1.394 . S
C1469 C1470 1.516 . S
C1470 C1469 1.516 . S
C1470 C1471 1.502 . S
C1470 C1472 1.561 . S
C1470 C1473 1.526 . S
C1471 H1455 0.959 . S
C1471 H1456 0.959 . S
C1471 H1457 0.961 . S
C1471 C1470 1.502 . S
C1472 H1458 0.960 . S
C1472 H1459 0.961 . S
C1472 H1460 0.959 . S
C1472 C1470 1.561 . S
C1473 C1470 1.526 . S
C1473 C1474 1.396 . S
C1473 C1478 1.390 . S
C1474 C1468 1.465 . S
C1474 C1473 1.396 . S
C1474 C1475 1.399 . S
C1475 H1461 0.929 . S
C1475 C1474 1.399 . S
C1475 C1476 1.385 . S
C1476 H1462 0.931 . S
C1476 C1475 1.385 . S
C1476 C1477 1.389 . S
C1477 C1476 1.389 . S
C1477 C1478 1.387 . S
C1478 H1463 0.930 . S
C1478 C1473 1.390 . S
C1478 C1477 1.387 . S
H1479 C1491 0.930 . S
H1480 C1493 0.930 . S
H1481 C1494 0.930 . S
H1482 C1498 0.959 . S
H1483 C1498 0.959 . S
H1484 C1498 0.961 . S
H1485 C1499 0.960 . S
H1486 C1499 0.961 . S
H1487 C1499 0.959 . S
H1488 C1502 0.929 . S
H1489 C1503 0.931 . S
H1490 C1505 0.930 . S
C1491 H1479 0.930 . S
C1491 C1492 1.399 . S
C1491 C1496 1.399 . S
C1492 C1491 1.399 . S
C1492 C1493 1.376 . S
C1493 H1480 0.930 . S
C1493 C1492 1.376 . S
C1493 C1494 1.388 . S
C1494 H1481 0.930 . S
C1494 C1493 1.388 . S
C1494 C1495 1.390 . S
C1495 C1494 1.390 . S
C1495 C1496 1.394 . S
C1495 C1501 1.465 . S
C1496 C1491 1.399 . S
C1496 C1495 1.394 . S
C1496 C1497 1.516 . S
C1497 C1496 1.516 . S
C1497 C1498 1.502 . S
C1497 C1499 1.561 . S
C1497 C1500 1.526 . S
C1498 H1482 0.959 . S
C1498 H1483 0.959 . S
C1498 H1484 0.961 . S
C1498 C1497 1.502 . S
C1499 H1485 0.960 . S
C1499 H1486 0.961 . S
C1499 H1487 0.959 . S
C1499 C1497 1.561 . S
C1500 C1497 1.526 . S
C1500 C1501 1.396 . S
C1500 C1505 1.390 . S
C1501 C1495 1.465 . S
C1501 C1500 1.396 . S
C1501 C1502 1.399 . S
C1502 H1488 0.929 . S
C1502 C1501 1.399 . S
C1502 C1503 1.385 . S
C1503 H1489 0.931 . S
C1503 C1502 1.385 . S
C1503 C1504 1.389 . S
C1504 C1503 1.389 . S
C1504 C1505 1.387 . S
C1505 H1490 0.930 . S
C1505 C1500 1.390 . S
C1505 C1504 1.387 . S
H1506 C1518 0.930 . S
H1507 C1520 0.930 . S
H1508 C1521 0.930 . S
H1509 C1525 0.959 . S
H1510 C1525 0.959 . S
H1511 C1525 0.961 . S
H1512 C1526 0.960 . S
H1513 C1526 0.961 . S
H1514 C1526 0.959 . S
H1515 C1529 0.929 . S
H1516 C1530 0.931 . S
H1517 C1532 0.930 . S
C1518 H1506 0.930 . S
C1518 C1519 1.399 . S
C1518 C1523 1.399 . S
C1519 C1518 1.399 . S
C1519 C1520 1.376 1_545 S
C1520 H1507 0.930 . S
C1520 C1519 1.376 1_565 S
C1520 C1521 1.388 . S
C1521 H1508 0.930 . S
C1521 C1520 1.388 . S
C1521 C1522 1.390 . S
C1522 C1521 1.390 . S
C1522 C1523 1.394 1_565 S
C1522 C1528 1.465 . S
C1523 C1518 1.399 . S
C1523 C1522 1.394 1_545 S
C1523 C1524 1.516 . S
C1524 C1523 1.516 . S
C1524 C1525 1.502 . S
C1524 C1526 1.561 . S
C1524 C1527 1.526 . S
C1525 H1509 0.959 . S
C1525 H1510 0.959 . S
C1525 H1511 0.961 . S
C1525 C1524 1.502 . S
C1526 H1512 0.960 . S
C1526 H1513 0.961 . S
C1526 H1514 0.959 . S
C1526 C1524 1.561 . S
C1527 C1524 1.526 . S
C1527 C1528 1.396 1_545 S
C1527 C1532 1.390 . S
C1528 C1522 1.465 . S
C1528 C1527 1.396 1_565 S
C1528 C1529 1.399 . S
C1529 H1515 0.929 . S
C1529 C1528 1.399 . S
C1529 C1530 1.385 . S
C1530 H1516 0.931 . S
C1530 C1529 1.385 . S
C1530 C1531 1.389 . S
C1531 C1530 1.389 . S
C1531 C1532 1.387 1_565 S
C1532 H1517 0.930 . S
C1532 C1527 1.390 . S
C1532 C1531 1.387 1_545 S
H1533 C1545 0.930 . S
H1534 C1547 0.930 . S
H1535 C1548 0.930 . S
H1536 C1552 0.959 . S
H1537 C1552 0.959 . S
H1538 C1552 0.961 . S
H1539 C1553 0.960 . S
H1540 C1553 0.961 . S
H1541 C1553 0.959 . S
H1542 C1556 0.929 . S
H1543 C1557 0.931 . S
H1544 C1559 0.930 . S
C1545 H1533 0.930 . S
C1545 C1546 1.399 . S
C1545 C1550 1.399 . S
C1546 C1545 1.399 . S
C1546 C1547 1.376 1_565 S
C1547 H1534 0.930 . S
C1547 C1546 1.376 1_545 S
C1547 C1548 1.388 . S
C1548 H1535 0.930 . S
C1548 C1547 1.388 . S
C1548 C1549 1.390 1_545 S
C1549 C1548 1.390 1_565 S
C1549 C1550 1.394 . S
C1549 C1555 1.465 1_565 S
C1550 C1545 1.399 . S
C1550 C1549 1.394 . S
C1550 C1551 1.516 . S
C1551 C1550 1.516 . S
C1551 C1552 1.502 . S
C1551 C1553 1.561 . S
C1551 C1554 1.526 . S
C1552 H1536 0.959 . S
C1552 H1537 0.959 . S
C1552 H1538 0.961 . S
C1552 C1551 1.502 . S
C1553 H1539 0.960 . S
C1553 H1540 0.961 . S
C1553 H1541 0.959 . S
C1553 C1551 1.561 . S
C1554 C1551 1.526 . S
C1554 C1555 1.396 1_565 S
C1554 C1559 1.390 . S
C1555 C1549 1.465 1_545 S
C1555 C1554 1.396 1_545 S
C1555 C1556 1.399 . S
C1556 H1542 0.929 . S
C1556 C1555 1.399 . S
C1556 C1557 1.385 . S
C1557 H1543 0.931 . S
C1557 C1556 1.385 . S
C1557 C1558 1.403 . S
C1558 C1557 1.403 . S
C1558 C1559 1.374 1_545 S
C1559 H1544 0.930 . S
C1559 C1554 1.390 . S
C1559 C1558 1.374 1_565 S
H1560 C1572 0.930 . S
H1561 C1574 0.930 . S
H1562 C1575 0.930 . S
H1563 C1579 0.959 . S
H1564 C1579 0.959 . S
H1565 C1579 0.961 . S
H1566 C1580 0.960 . S
H1567 C1580 0.961 . S
H1568 C1580 0.959 . S
H1569 C1583 0.929 . S
H1570 C1584 0.931 . S
H1571 C1586 0.930 . S
C1572 H1560 0.930 . S
C1572 C1573 1.399 . S
C1572 C1577 1.399 . S
C1573 C1572 1.399 . S
C1573 C1574 1.376 . S
C1574 H1561 0.930 . S
C1574 C1573 1.376 . S
C1574 C1575 1.388 . S
C1575 H1562 0.930 . S
C1575 C1574 1.388 . S
C1575 C1576 1.390 . S
C1576 C1575 1.390 . S
C1576 C1577 1.394 . S
C1576 C1582 1.465 . S
C1577 C1572 1.399 . S
C1577 C1576 1.394 . S
C1577 C1578 1.516 . S
C1578 C1577 1.516 . S
C1578 C1579 1.502 . S
C1578 C1580 1.561 . S
C1578 C1581 1.526 . S
C1579 H1563 0.959 . S
C1579 H1564 0.959 . S
C1579 H1565 0.961 . S
C1579 C1578 1.502 . S
C1580 H1566 0.960 . S
C1580 H1567 0.961 . S
C1580 H1568 0.959 . S
C1580 C1578 1.561 . S
C1581 C1578 1.526 . S
C1581 C1582 1.396 . S
C1581 C1586 1.390 . S
C1582 C1576 1.465 . S
C1582 C1581 1.396 . S
C1582 C1583 1.399 . S
C1583 H1569 0.929 . S
C1583 C1582 1.399 . S
C1583 C1584 1.385 . S
C1584 H1570 0.931 . S
C1584 C1583 1.385 . S
C1584 C1585 1.389 . S
C1585 C1584 1.389 . S
C1585 C1586 1.387 . S
C1586 H1571 0.930 . S
C1586 C1581 1.390 . S
C1586 C1585 1.387 . S
H1587 C1599 0.930 . S
H1588 C1601 0.930 1_554 S
H1589 C1602 0.930 . S
H1590 C1606 0.959 . S
H1591 C1606 0.959 . S
H1592 C1606 0.961 . S
H1593 C1607 0.960 . S
H1594 C1607 0.961 . S
H1595 C1607 0.959 . S
H1596 C1610 0.929 . S
H1597 C1611 0.931 . S
H1598 C1613 0.930 . S
C1599 H1587 0.930 . S
C1599 C1600 1.399 . S
C1599 C1604 1.399 . S
C1600 C1599 1.399 . S
C1600 C1601 1.376 . S
C1601 H1588 0.930 1_556 S
C1601 C1600 1.376 . S
C1601 C1602 1.388 1_556 S
C1602 H1589 0.930 . S
C1602 C1601 1.388 1_554 S
C1602 C1603 1.390 1_554 S
C1603 C1602 1.390 1_556 S
C1603 C1604 1.394 . S
C1603 C1609 1.465 . S
C1604 C1599 1.399 . S
C1604 C1603 1.394 . S
C1604 C1605 1.516 . S
C1605 C1604 1.516 . S
C1605 C1606 1.502 . S
C1605 C1607 1.561 . S
C1605 C1608 1.526 . S
C1606 H1590 0.959 . S
C1606 H1591 0.959 . S
C1606 H1592 0.961 . S
C1606 C1605 1.502 . S
C1607 H1593 0.960 . S
C1607 H1594 0.961 . S
C1607 H1595 0.959 . S
C1607 C1605 1.561 . S
C1608 C1605 1.526 . S
C1608 C1609 1.396 . S
C1608 C1613 1.390 . S
C1609 C1603 1.465 . S
C1609 C1608 1.396 . S
C1609 C1610 1.399 1_556 S
C1610 H1596 0.929 . S
C1610 C1609 1.399 1_554 S
C1610 C1611 1.385 . S
C1611 H1597 0.931 . S
C1611 C1610 1.385 . S
C1611 C1612 1.383 1_554 S
C1612 C1611 1.383 1_556 S
C1612 C1613 1.394 . S
C1613 H1598 0.930 . S
C1613 C1608 1.390 . S
C1613 C1612 1.394 . S
H1614 C1626 0.930 . S
H1615 C1628 0.930 . S
H1616 C1629 0.930 . S
H1617 C1633 0.959 . S
H1618 C1633 0.959 . S
H1619 C1633 0.961 . S
H1620 C1634 0.960 . S
H1621 C1634 0.961 . S
H1622 C1634 0.959 . S
H1623 C1637 0.929 . S
H1624 C1638 0.931 . S
H1625 C1640 0.930 . S
C1626 H1614 0.930 . S
C1626 C1627 1.399 . S
C1626 C1631 1.399 . S
C1627 C1626 1.399 . S
C1627 C1628 1.376 . S
C1628 H1615 0.930 . S
C1628 C1627 1.376 . S
C1628 C1629 1.388 . S
C1629 H1616 0.930 . S
C1629 C1628 1.388 . S
C1629 C1630 1.390 . S
C1630 C1629 1.390 . S
C1630 C1631 1.394 . S
C1630 C1636 1.465 . S
C1631 C1626 1.399 . S
C1631 C1630 1.394 . S
C1631 C1632 1.516 . S
C1632 C1631 1.516 . S
C1632 C1633 1.502 . S
C1632 C1634 1.561 . S
C1632 C1635 1.526 . S
C1633 H1617 0.959 . S
C1633 H1618 0.959 . S
C1633 H1619 0.961 . S
C1633 C1632 1.502 . S
C1634 H1620 0.960 . S
C1634 H1621 0.961 . S
C1634 H1622 0.959 . S
C1634 C1632 1.561 . S
C1635 C1632 1.526 . S
C1635 C1636 1.396 . S
C1635 C1640 1.390 . S
C1636 C1630 1.465 . S
C1636 C1635 1.396 . S
C1636 C1637 1.399 . S
C1637 H1623 0.929 . S
C1637 C1636 1.399 . S
C1637 C1638 1.385 . S
C1638 H1624 0.931 . S
C1638 C1637 1.385 . S
C1638 C1639 1.389 . S
C1639 C1638 1.389 . S
C1639 C1640 1.387 . S
C1640 H1625 0.930 . S
C1640 C1635 1.390 . S
C1640 C1639 1.387 . S
H1641 C1653 0.930 1_556 S
H1642 C1655 0.930 . S
H1643 C1656 0.930 . S
H1644 C1660 0.959 . S
H1645 C1660 0.959 . S
H1646 C1660 0.961 . S
H1647 C1661 0.960 . S
H1648 C1661 0.961 . S
H1649 C1661 0.959 . S
H1650 C1664 0.929 . S
H1651 C1665 0.931 . S
H1652 C1667 0.930 . S
C1653 H1641 0.930 1_554 S
C1653 C1654 1.399 . S
C1653 C1658 1.399 . S
C1654 C1653 1.399 . S
C1654 C1655 1.376 . S
C1655 H1642 0.930 . S
C1655 C1654 1.376 . S
C1655 C1656 1.388 . S
C1656 H1643 0.930 . S
C1656 C1655 1.388 . S
C1656 C1657 1.390 . S
C1657 C1656 1.390 . S
C1657 C1658 1.394 . S
C1657 C1663 1.465 . S
C1658 C1653 1.399 . S
C1658 C1657 1.394 . S
C1658 C1659 1.516 1_554 S
C1659 C1658 1.516 1_556 S
C1659 C1660 1.502 . S
C1659 C1661 1.561 1_556 S
C1659 C1662 1.526 . S
C1660 H1644 0.959 . S
C1660 H1645 0.959 . S
C1660 H1646 0.961 . S
C1660 C1659 1.502 . S
C1661 H1647 0.960 . S
C1661 H1648 0.961 . S
C1661 H1649 0.959 . S
C1661 C1659 1.561 1_554 S
C1662 C1659 1.526 . S
C1662 C1663 1.396 1_556 S
C1662 C1667 1.390 . S
C1663 C1657 1.465 . S
C1663 C1662 1.396 1_554 S
C1663 C1664 1.399 . S
C1664 H1650 0.929 . S
C1664 C1663 1.399 . S
C1664 C1665 1.385 . S
C1665 H1651 0.931 . S
C1665 C1664 1.385 . S
C1665 C1666 1.389 1_554 S
C1666 C1665 1.389 1_556 S
C1666 C1667 1.387 . S
C1667 H1652 0.930 . S
C1667 C1662 1.390 . S
C1667 C1666 1.387 . S
H1668 C1680 0.930 . S
H1669 C1682 0.930 . S
H1670 C1683 0.930 . S
H1671 C1687 0.959 . S
H1672 C1687 0.959 . S
H1673 C1687 0.961 . S
H1674 C1688 0.960 . S
H1675 C1688 0.961 . S
H1676 C1688 0.959 . S
H1677 C1691 0.929 . S
H1678 C1692 0.931 . S
H1679 C1694 0.930 . S
C1680 H1668 0.930 . S
C1680 C1681 1.399 . S
C1680 C1685 1.399 . S
C1681 C1680 1.399 . S
C1681 C1682 1.376 . S
C1682 H1669 0.930 . S
C1682 C1681 1.376 . S
C1682 C1683 1.388 . S
C1683 H1670 0.930 . S
C1683 C1682 1.388 . S
C1683 C1684 1.390 . S
C1684 C1683 1.390 . S
C1684 C1685 1.394 . S
C1684 C1690 1.465 . S
C1685 C1680 1.399 . S
C1685 C1684 1.394 . S
C1685 C1686 1.516 . S
C1686 C1685 1.516 . S
C1686 C1687 1.502 . S
C1686 C1688 1.561 . S
C1686 C1689 1.526 . S
C1687 H1671 0.959 . S
C1687 H1672 0.959 . S
C1687 H1673 0.961 . S
C1687 C1686 1.502 . S
C1688 H1674 0.960 . S
C1688 H1675 0.961 . S
C1688 H1676 0.959 . S
C1688 C1686 1.561 . S
C1689 C1686 1.526 . S
C1689 C1690 1.396 . S
C1689 C1694 1.390 . S
C1690 C1684 1.465 . S
C1690 C1689 1.396 . S
C1690 C1691 1.399 . S
C1691 H1677 0.929 . S
C1691 C1690 1.399 . S
C1691 C1692 1.385 . S
C1692 H1678 0.931 . S
C1692 C1691 1.385 . S
C1692 C1693 1.389 . S
C1693 C1692 1.389 . S
C1693 C1694 1.387 . S
C1694 H1679 0.930 . S
C1694 C1689 1.390 . S
C1694 C1693 1.387 . S
H1695 C1707 0.930 . S
H1696 C1709 0.930 . S
H1697 C1710 0.919 1_455 S
H1698 C1714 0.959 . S
H1699 C1714 0.959 . S
H1700 C1714 0.961 . S
H1701 C1715 0.960 1_655 S
H1702 C1715 0.969 . S
H1703 C1715 0.959 . S
H1704 C1718 0.929 . S
H1705 C1719 0.931 . S
H1706 C1721 0.930 . S
C1707 H1695 0.930 . S
C1707 C1708 1.399 . S
C1707 C1712 1.399 . S
C1708 C1707 1.399 . S
C1708 C1709 1.376 . S
C1709 H1696 0.930 . S
C1709 C1708 1.376 . S
C1709 C1710 1.393 . S
C1710 H1697 0.919 1_655 S
C1710 C1709 1.393 . S
C1710 C1711 1.397 . S
C1711 C1710 1.397 . S
C1711 C1712 1.394 . S
C1711 C1717 1.465 . S
C1712 C1707 1.399 . S
C1712 C1711 1.394 . S
C1712 C1713 1.516 . S
C1713 C1712 1.516 . S
C1713 C1714 1.502 . S
C1713 C1715 1.561 1_655 S
C1713 C1716 1.526 . S
C1714 H1698 0.959 . S
C1714 H1699 0.959 . S
C1714 H1700 0.961 . S
C1714 C1713 1.502 . S
C1715 H1701 0.960 1_455 S
C1715 H1702 0.969 . S
C1715 H1703 0.959 . S
C1715 C1713 1.561 1_455 S
C1716 C1713 1.526 . S
C1716 C1717 1.396 . S
C1716 C1721 1.390 . S
C1717 C1711 1.465 . S
C1717 C1716 1.396 . S
C1717 C1718 1.399 1_655 S
C1718 H1704 0.929 . S
C1718 C1717 1.399 1_455 S
C1718 C1719 1.385 . S
C1719 H1705 0.931 . S
C1719 C1718 1.385 . S
C1719 C1720 1.383 1_455 S
C1720 C1719 1.383 1_655 S
C1720 C1721 1.392 . S
C1721 H1706 0.930 . S
C1721 C1716 1.390 . S
C1721 C1720 1.392 . S
H1722 C1734 0.930 . S
H1723 C1736 0.930 . S
H1724 C1737 0.930 . S
H1725 C1741 0.959 . S
H1726 C1741 0.959 . S
H1727 C1741 0.961 . S
H1728 C1742 0.960 . S
H1729 C1742 0.961 . S
H1730 C1742 0.959 . S
H1731 C1745 0.929 . S
H1732 C1746 0.931 . S
H1733 C1748 0.930 . S
C1734 H1722 0.930 . S
C1734 C1735 1.399 . S
C1734 C1739 1.399 . S
C1735 C1734 1.399 . S
C1735 C1736 1.376 . S
C1736 H1723 0.930 . S
C1736 C1735 1.376 . S
C1736 C1737 1.388 . S
C1737 H1724 0.930 . S
C1737 C1736 1.388 . S
C1737 C1738 1.390 . S
C1738 C1737 1.390 . S
C1738 C1739 1.394 . S
C1738 C1744 1.465 . S
C1739 C1734 1.399 . S
C1739 C1738 1.394 . S
C1739 C1740 1.516 . S
C1740 C1739 1.516 . S
C1740 C1741 1.502 . S
C1740 C1742 1.561 . S
C1740 C1743 1.526 . S
C1741 H1725 0.959 . S
C1741 H1726 0.959 . S
C1741 H1727 0.961 . S
C1741 C1740 1.502 . S
C1742 H1728 0.960 . S
C1742 H1729 0.961 . S
C1742 H1730 0.959 . S
C1742 C1740 1.561 . S
C1743 C1740 1.526 . S
C1743 C1744 1.396 . S
C1743 C1748 1.390 . S
C1744 C1738 1.465 . S
C1744 C1743 1.396 . S
C1744 C1745 1.399 . S
C1745 H1731 0.929 . S
C1745 C1744 1.399 . S
C1745 C1746 1.385 . S
C1746 H1732 0.931 . S
C1746 C1745 1.385 . S
C1746 C1747 1.389 . S
C1747 C1746 1.389 . S
C1747 C1748 1.387 . S
C1748 H1733 0.930 . S
C1748 C1743 1.390 . S
C1748 C1747 1.387 . S
H1749 C1761 0.930 . S
H1750 C1763 0.930 . S
H1751 C1764 0.930 . S
H1752 C1768 0.959 . S
H1753 C1768 0.959 . S
H1754 C1768 0.961 . S
H1755 C1769 0.960 . S
H1756 C1769 0.961 . S
H1757 C1769 0.959 . S
H1758 C1772 0.929 . S
H1759 C1773 0.931 . S
H1760 C1775 0.930 . S
C1761 H1749 0.930 . S
C1761 C1762 1.399 . S
C1761 C1766 1.399 . S
C1762 C1761 1.399 . S
C1762 C1763 1.376 . S
C1763 H1750 0.930 . S
C1763 C1762 1.376 . S
C1763 C1764 1.388 . S
C1764 H1751 0.930 . S
C1764 C1763 1.388 . S
C1764 C1765 1.390 . S
C1765 C1764 1.390 . S
C1765 C1766 1.394 . S
C1765 C1771 1.465 . S
C1766 C1761 1.399 . S
C1766 C1765 1.394 . S
C1766 C1767 1.516 1_455 S
C1767 C1766 1.516 1_655 S
C1767 C1768 1.502 1_655 S
C1767 C1769 1.561 . S
C1767 C1770 1.526 . S
C1768 H1752 0.959 . S
C1768 H1753 0.959 . S
C1768 H1754 0.961 . S
C1768 C1767 1.502 1_455 S
C1769 H1755 0.960 . S
C1769 H1756 0.961 . S
C1769 H1757 0.959 . S
C1769 C1767 1.561 . S
C1770 C1767 1.526 . S
C1770 C1771 1.396 1_655 S
C1770 C1775 1.390 . S
C1771 C1765 1.465 . S
C1771 C1770 1.396 1_455 S
C1771 C1772 1.399 . S
C1772 H1758 0.929 . S
C1772 C1771 1.399 . S
C1772 C1773 1.385 . S
C1773 H1759 0.931 . S
C1773 C1772 1.385 . S
C1773 C1774 1.389 1_455 S
C1774 C1773 1.389 1_655 S
C1774 C1775 1.387 . S
C1775 H1760 0.930 . S
C1775 C1770 1.390 . S
C1775 C1774 1.387 . S
H1776 C1788 0.930 . S
H1777 C1790 0.930 . S
H1778 C1791 0.930 . S
H1779 C1795 0.959 . S
H1780 C1795 0.959 . S
H1781 C1795 0.961 . S
H1782 C1796 0.960 . S
H1783 C1796 0.961 . S
H1784 C1796 0.959 . S
H1785 C1799 0.929 . S
H1786 C1800 0.931 . S
H1787 C1802 0.930 . S
C1788 H1776 0.930 . S
C1788 C1789 1.399 . S
C1788 C1793 1.399 . S
C1789 C1788 1.399 . S
C1789 C1790 1.376 . S
C1790 H1777 0.930 . S
C1790 C1789 1.376 . S
C1790 C1791 1.388 . S
C1791 H1778 0.930 . S
C1791 C1790 1.388 . S
C1791 C1792 1.390 . S
C1792 C1791 1.390 . S
C1792 C1793 1.394 . S
C1792 C1798 1.465 . S
C1793 C1788 1.399 . S
C1793 C1792 1.394 . S
C1793 C1794 1.516 . S
C1794 C1793 1.516 . S
C1794 C1795 1.502 . S
C1794 C1796 1.561 . S
C1794 C1797 1.526 . S
C1795 H1779 0.959 . S
C1795 H1780 0.959 . S
C1795 H1781 0.961 . S
C1795 C1794 1.502 . S
C1796 H1782 0.960 . S
C1796 H1783 0.961 . S
C1796 H1784 0.959 . S
C1796 C1794 1.561 . S
C1797 C1794 1.526 . S
C1797 C1798 1.396 . S
C1797 C1802 1.390 . S
C1798 C1792 1.465 . S
C1798 C1797 1.396 . S
C1798 C1799 1.399 . S
C1799 H1785 0.929 . S
C1799 C1798 1.399 . S
C1799 C1800 1.385 . S
C1800 H1786 0.931 . S
C1800 C1799 1.385 . S
C1800 C1801 1.389 . S
C1801 C1800 1.389 . S
C1801 C1802 1.387 . S
C1802 H1787 0.930 . S
C1802 C1797 1.390 . S
C1802 C1801 1.387 . S
H1803 C1815 0.930 . S
H1804 C1817 0.930 . S
H1805 C1818 0.930 . S
H1806 C1822 0.959 . S
H1807 C1822 0.959 . S
H1808 C1822 0.961 . S
H1809 C1823 0.960 . S
H1810 C1823 0.961 . S
H1811 C1823 0.959 . S
H1812 C1826 0.929 . S
H1813 C1827 0.931 . S
H1814 C1829 0.930 . S
C1815 H1803 0.930 . S
C1815 C1816 1.399 . S
C1815 C1820 1.399 . S
C1816 C1815 1.399 . S
C1816 C1817 1.376 . S
C1817 H1804 0.930 . S
C1817 C1816 1.376 . S
C1817 C1818 1.388 . S
C1818 H1805 0.930 . S
C1818 C1817 1.388 . S
C1818 C1819 1.390 . S
C1819 C1818 1.390 . S
C1819 C1820 1.394 . S
C1819 C1825 1.465 . S
C1820 C1815 1.399 . S
C1820 C1819 1.394 . S
C1820 C1821 1.516 . S
C1821 C1820 1.516 . S
C1821 C1822 1.502 . S
C1821 C1823 1.561 . S
C1821 C1824 1.526 . S
C1822 H1806 0.959 . S
C1822 H1807 0.959 . S
C1822 H1808 0.961 . S
C1822 C1821 1.502 . S
C1823 H1809 0.960 . S
C1823 H1810 0.961 . S
C1823 H1811 0.959 . S
C1823 C1821 1.561 . S
C1824 C1821 1.526 . S
C1824 C1825 1.396 . S
C1824 C1829 1.390 . S
C1825 C1819 1.465 . S
C1825 C1824 1.396 . S
C1825 C1826 1.399 . S
C1826 H1812 0.929 . S
C1826 C1825 1.399 . S
C1826 C1827 1.385 . S
C1827 H1813 0.931 . S
C1827 C1826 1.385 . S
C1827 C1828 1.389 . S
C1828 C1827 1.389 . S
C1828 C1829 1.387 . S
C1829 H1814 0.930 . S
C1829 C1824 1.390 . S
C1829 C1828 1.387 . S
H1830 C1842 0.930 . S
H1831 C1844 0.930 1_565 S
H1832 C1845 0.930 . S
H1833 C1849 0.959 . S
H1834 C1849 0.959 . S
H1835 C1849 0.961 . S
H1836 C1850 0.960 . S
H1837 C1850 0.961 . S
H1838 C1850 0.959 . S
H1839 C1853 0.929 . S
H1840 C1854 0.931 . S
H1841 C1856 0.930 . S
C1842 H1830 0.930 . S
C1842 C1843 1.399 . S
C1842 C1847 1.399 . S
C1843 C1842 1.399 . S
C1843 C1844 1.376 . S
C1844 H1831 0.930 1_545 S
C1844 C1843 1.376 . S
C1844 C1845 1.388 . S
C1845 H1832 0.930 . S
C1845 C1844 1.388 . S
C1845 C1846 1.390 . S
C1846 C1845 1.390 . S
C1846 C1847 1.394 . S
C1846 C1852 1.465 . S
C1847 C1842 1.399 . S
C1847 C1846 1.394 . S
C1847 C1848 1.516 . S
C1848 C1847 1.516 . S
C1848 C1849 1.502 . S
C1848 C1850 1.561 . S
C1848 C1851 1.526 . S
C1849 H1833 0.959 . S
C1849 H1834 0.959 . S
C1849 H1835 0.961 . S
C1849 C1848 1.502 . S
C1850 H1836 0.960 . S
C1850 H1837 0.961 . S
C1850 H1838 0.959 . S
C1850 C1848 1.561 . S
C1851 C1848 1.526 . S
C1851 C1852 1.396 . S
C1851 C1856 1.390 . S
C1852 C1846 1.465 . S
C1852 C1851 1.396 . S
C1852 C1853 1.399 . S
C1853 H1839 0.929 . S
C1853 C1852 1.399 . S
C1853 C1854 1.385 . S
C1854 H1840 0.931 . S
C1854 C1853 1.385 . S
C1854 C1855 1.389 . S
C1855 C1854 1.389 . S
C1855 C1856 1.387 . S
C1856 H1841 0.930 . S
C1856 C1851 1.390 . S
C1856 C1855 1.387 . S
H1857 C1869 0.930 . S
H1858 C1871 0.930 . S
H1859 C1872 0.930 . S
H1860 C1876 0.959 . S
H1861 C1876 0.959 . S
H1862 C1876 0.961 . S
H1863 C1877 0.960 . S
H1864 C1877 0.961 . S
H1865 C1877 0.959 . S
H1866 C1880 0.929 . S
H1867 C1881 0.931 . S
H1868 C1883 0.930 . S
C1869 H1857 0.930 . S
C1869 C1870 1.399 . S
C1869 C1874 1.399 . S
C1870 C1869 1.399 . S
C1870 C1871 1.376 . S
C1871 H1858 0.930 . S
C1871 C1870 1.376 . S
C1871 C1872 1.388 . S
C1872 H1859 0.930 . S
C1872 C1871 1.388 . S
C1872 C1873 1.390 . S
C1873 C1872 1.390 . S
C1873 C1874 1.394 . S
C1873 C1879 1.465 . S
C1874 C1869 1.399 . S
C1874 C1873 1.394 . S
C1874 C1875 1.516 . S
C1875 C1874 1.516 . S
C1875 C1876 1.502 . S
C1875 C1877 1.561 . S
C1875 C1878 1.526 . S
C1876 H1860 0.959 . S
C1876 H1861 0.959 . S
C1876 H1862 0.961 . S
C1876 C1875 1.502 . S
C1877 H1863 0.960 . S
C1877 H1864 0.961 . S
C1877 H1865 0.959 . S
C1877 C1875 1.561 . S
C1878 C1875 1.526 . S
C1878 C1879 1.396 . S
C1878 C1883 1.390 . S
C1879 C1873 1.465 . S
C1879 C1878 1.396 . S
C1879 C1880 1.399 . S
C1880 H1866 0.929 . S
C1880 C1879 1.399 . S
C1880 C1881 1.385 . S
C1881 H1867 0.931 . S
C1881 C1880 1.385 . S
C1881 C1882 1.389 . S
C1882 C1881 1.389 . S
C1882 C1883 1.387 . S
C1883 H1868 0.930 . S
C1883 C1878 1.390 . S
C1883 C1882 1.387 . S
H1884 C1896 0.930 . S
H1885 C1898 0.930 . S
H1886 C1899 0.930 . S
H1887 C1903 0.959 . S
H1888 C1903 0.959 . S
H1889 C1903 0.961 . S
H1890 C1904 0.960 . S
H1891 C1904 0.961 . S
H1892 C1904 0.959 . S
H1893 C1907 0.929 . S
H1894 C1908 0.931 . S
H1895 C1910 0.930 . S
C1896 H1884 0.930 . S
C1896 C1897 1.399 . S
C1896 C1901 1.399 . S
C1897 C1896 1.399 . S
C1897 C1898 1.376 . S
C1898 H1885 0.930 . S
C1898 C1897 1.376 . S
C1898 C1899 1.388 . S
C1899 H1886 0.930 . S
C1899 C1898 1.388 . S
C1899 C1900 1.390 . S
C1900 C1899 1.390 . S
C1900 C1901 1.394 . S
C1900 C1906 1.465 . S
C1901 C1896 1.399 . S
C1901 C1900 1.394 . S
C1901 C1902 1.516 . S
C1902 C1901 1.516 . S
C1902 C1903 1.502 . S
C1902 C1904 1.561 . S
C1902 C1905 1.526 . S
C1903 H1887 0.959 . S
C1903 H1888 0.959 . S
C1903 H1889 0.961 . S
C1903 C1902 1.502 . S
C1904 H1890 0.960 . S
C1904 H1891 0.961 . S
C1904 H1892 0.959 . S
C1904 C1902 1.561 . S
C1905 C1902 1.526 . S
C1905 C1906 1.396 . S
C1905 C1910 1.390 . S
C1906 C1900 1.465 . S
C1906 C1905 1.396 . S
C1906 C1907 1.399 . S
C1907 H1893 0.929 . S
C1907 C1906 1.399 . S
C1907 C1908 1.385 . S
C1908 H1894 0.931 . S
C1908 C1907 1.385 . S
C1908 C1909 1.389 . S
C1909 C1908 1.389 . S
C1909 C1910 1.387 . S
C1910 H1895 0.930 . S
C1910 C1905 1.390 . S
C1910 C1909 1.387 . S
H1911 C1923 0.930 . S
H1912 C1925 0.930 . S
H1913 C1926 0.930 . S
H1914 C1930 0.959 . S
H1915 C1930 0.959 . S
H1916 C1930 0.961 . S
H1917 C1931 0.960 . S
H1918 C1931 0.961 . S
H1919 C1931 0.959 . S
H1920 C1934 0.929 . S
H1921 C1935 0.931 . S
H1922 C1937 0.930 . S
C1923 H1911 0.930 . S
C1923 C1924 1.399 . S
C1923 C1928 1.399 . S
C1924 C1923 1.399 . S
C1924 C1925 1.376 . S
C1925 H1912 0.930 . S
C1925 C1924 1.376 . S
C1925 C1926 1.388 . S
C1926 H1913 0.930 . S
C1926 C1925 1.388 . S
C1926 C1927 1.390 . S
C1927 C1926 1.390 . S
C1927 C1928 1.394 . S
C1927 C1933 1.465 . S
C1928 C1923 1.399 . S
C1928 C1927 1.394 . S
C1928 C1929 1.516 . S
C1929 C1928 1.516 . S
C1929 C1930 1.502 1_556 S
C1929 C1931 1.561 . S
C1929 C1932 1.526 . S
C1930 H1914 0.959 . S
C1930 H1915 0.959 . S
C1930 H1916 0.961 . S
C1930 C1929 1.502 1_554 S
C1931 H1917 0.960 . S
C1931 H1918 0.961 . S
C1931 H1919 0.959 . S
C1931 C1929 1.561 . S
C1932 C1929 1.526 . S
C1932 C1933 1.396 . S
C1932 C1937 1.390 . S
C1933 C1927 1.465 . S
C1933 C1932 1.396 . S
C1933 C1934 1.399 . S
C1934 H1920 0.929 . S
C1934 C1933 1.399 . S
C1934 C1935 1.385 . S
C1935 H1921 0.931 . S
C1935 C1934 1.385 . S
C1935 C1936 1.389 . S
C1936 C1935 1.389 . S
C1936 C1937 1.387 . S
C1937 H1922 0.930 . S
C1937 C1932 1.390 . S
C1937 C1936 1.387 . S
H1938 C1950 0.930 . S
H1939 C1952 0.930 . S
H1940 C1953 0.930 . S
H1941 C1957 0.959 . S
H1942 C1957 0.959 . S
H1943 C1957 0.961 . S
H1944 C1958 0.960 . S
H1945 C1958 0.961 . S
H1946 C1958 0.959 . S
H1947 C1961 0.929 . S
H1948 C1962 0.931 . S
H1949 C1964 0.930 . S
C1950 H1938 0.930 . S
C1950 C1951 1.399 . S
C1950 C1955 1.399 . S
C1951 C1950 1.399 . S
C1951 C1952 1.376 . S
C1952 H1939 0.930 . S
C1952 C1951 1.376 . S
C1952 C1953 1.388 . S
C1953 H1940 0.930 . S
C1953 C1952 1.388 . S
C1953 C1954 1.390 . S
C1954 C1953 1.390 . S
C1954 C1955 1.394 . S
C1954 C1960 1.465 . S
C1955 C1950 1.399 . S
C1955 C1954 1.394 . S
C1955 C1956 1.516 . S
C1956 C1955 1.516 . S
C1956 C1957 1.502 . S
C1956 C1958 1.561 . S
C1956 C1959 1.526 . S
C1957 H1941 0.959 . S
C1957 H1942 0.959 . S
C1957 H1943 0.961 . S
C1957 C1956 1.502 . S
C1958 H1944 0.960 . S
C1958 H1945 0.961 . S
C1958 H1946 0.959 . S
C1958 C1956 1.561 . S
C1959 C1956 1.526 . S
C1959 C1960 1.396 . S
C1959 C1964 1.390 . S
C1960 C1954 1.465 . S
C1960 C1959 1.396 . S
C1960 C1961 1.399 . S
C1961 H1947 0.929 . S
C1961 C1960 1.399 . S
C1961 C1962 1.385 . S
C1962 H1948 0.931 . S
C1962 C1961 1.385 . S
C1962 C1963 1.389 . S
C1963 C1962 1.389 . S
C1963 C1964 1.387 . S
C1964 H1949 0.930 . S
C1964 C1959 1.390 . S
C1964 C1963 1.387 . S
H1965 C1977 0.930 . S
H1966 C1979 0.930 1_556 S
H1967 C1980 0.930 . S
H1968 C1984 0.959 . S
H1969 C1984 0.959 . S
H1970 C1984 0.961 . S
H1971 C1985 0.960 . S
H1972 C1985 0.961 . S
H1973 C1985 0.959 . S
H1974 C1988 0.929 . S
H1975 C1989 0.931 . S
H1976 C1991 0.930 . S
C1977 H1965 0.930 . S
C1977 C1978 1.399 . S
C1977 C1982 1.399 . S
C1978 C1977 1.399 . S
C1978 C1979 1.376 . S
C1979 H1966 0.930 1_554 S
C1979 C1978 1.376 . S
C1979 C1980 1.388 . S
C1980 H1967 0.930 . S
C1980 C1979 1.388 . S
C1980 C1981 1.390 . S
C1981 C1980 1.390 . S
C1981 C1982 1.394 . S
C1981 C1987 1.465 . S
C1982 C1977 1.399 . S
C1982 C1981 1.394 . S
C1982 C1983 1.516 . S
C1983 C1982 1.516 . S
C1983 C1984 1.502 . S
C1983 C1985 1.561 . S
C1983 C1986 1.526 . S
C1984 H1968 0.959 . S
C1984 H1969 0.959 . S
C1984 H1970 0.961 . S
C1984 C1983 1.502 . S
C1985 H1971 0.960 . S
C1985 H1972 0.961 . S
C1985 H1973 0.959 . S
C1985 C1983 1.561 . S
C1986 C1983 1.526 . S
C1986 C1987 1.396 . S
C1986 C1991 1.390 . S
C1987 C1981 1.465 . S
C1987 C1986 1.396 . S
C1987 C1988 1.399 . S
C1988 H1974 0.929 . S
C1988 C1987 1.399 . S
C1988 C1989 1.385 . S
C1989 H1975 0.931 . S
C1989 C1988 1.385 . S
C1989 C1990 1.389 . S
C1990 C1989 1.389 . S
C1990 C1991 1.387 . S
C1991 H1976 0.930 . S
C1991 C1986 1.390 . S
C1991 C1990 1.387 . S
H1992 C2004 0.930 . S
H1993 C2006 0.930 . S
H1994 C2007 0.930 . S
H1995 C2011 0.959 . S
H1996 C2011 0.959 . S
H1997 C2011 0.961 . S
H1998 C2012 0.960 . S
H1999 C2012 0.961 . S
H2000 C2012 0.959 . S
H2001 C2015 0.929 . S
H2002 C2016 0.931 . S
H2003 C2018 0.930 . S
C2004 H1992 0.930 . S
C2004 C2005 1.399 . S
C2004 C2009 1.399 . S
C2005 C2004 1.399 . S
C2005 C2006 1.376 . S
C2006 H1993 0.930 . S
C2006 C2005 1.376 . S
C2006 C2007 1.388 . S
C2007 H1994 0.930 . S
C2007 C2006 1.388 . S
C2007 C2008 1.390 . S
C2008 C2007 1.390 . S
C2008 C2009 1.394 . S
C2008 C2014 1.465 . S
C2009 C2004 1.399 . S
C2009 C2008 1.394 . S
C2009 C2010 1.516 . S
C2010 C2009 1.516 . S
C2010 C2011 1.502 . S
C2010 C2012 1.561 . S
C2010 C2013 1.526 . S
C2011 H1995 0.959 . S
C2011 H1996 0.959 . S
C2011 H1997 0.961 . S
C2011 C2010 1.502 . S
C2012 H1998 0.960 . S
C2012 H1999 0.961 . S
C2012 H2000 0.959 . S
C2012 C2010 1.561 . S
C2013 C2010 1.526 . S
C2013 C2014 1.396 . S
C2013 C2018 1.390 . S
C2014 C2008 1.465 . S
C2014 C2013 1.396 . S
C2014 C2015 1.399 . S
C2015 H2001 0.929 . S
C2015 C2014 1.399 . S
C2015 C2016 1.385 . S
C2016 H2002 0.931 . S
C2016 C2015 1.385 . S
C2016 C2017 1.389 . S
C2017 C2016 1.389 . S
C2017 C2018 1.387 . S
C2018 H2003 0.930 . S
C2018 C2013 1.390 . S
C2018 C2017 1.387 . S
H2019 C2031 0.930 . S
H2020 C2033 0.930 1_455 S
H2021 C2034 0.930 . S
H2022 C2038 0.959 . S
H2023 C2038 0.959 . S
H2024 C2038 0.961 . S
H2025 C2039 0.960 . S
H2026 C2039 0.961 . S
H2027 C2039 0.959 . S
H2028 C2042 0.929 . S
H2029 C2043 0.931 . S
H2030 C2045 0.930 . S
C2031 H2019 0.930 . S
C2031 C2032 1.399 . S
C2031 C2036 1.399 . S
C2032 C2031 1.399 . S
C2032 C2033 1.376 . S
C2033 H2020 0.930 1_655 S
C2033 C2032 1.376 . S
C2033 C2034 1.388 . S
C2034 H2021 0.930 . S
C2034 C2033 1.388 . S
C2034 C2035 1.390 . S
C2035 C2034 1.390 . S
C2035 C2036 1.394 . S
C2035 C2041 1.465 . S
C2036 C2031 1.399 . S
C2036 C2035 1.394 . S
C2036 C2037 1.516 . S
C2037 C2036 1.516 . S
C2037 C2038 1.502 . S
C2037 C2039 1.561 . S
C2037 C2040 1.526 . S
C2038 H2022 0.959 . S
C2038 H2023 0.959 . S
C2038 H2024 0.961 . S
C2038 C2037 1.502 . S
C2039 H2025 0.960 . S
C2039 H2026 0.961 . S
C2039 H2027 0.959 . S
C2039 C2037 1.561 . S
C2040 C2037 1.526 . S
C2040 C2041 1.396 . S
C2040 C2045 1.390 . S
C2041 C2035 1.465 . S
C2041 C2040 1.396 . S
C2041 C2042 1.399 . S
C2042 H2028 0.929 . S
C2042 C2041 1.399 . S
C2042 C2043 1.385 . S
C2043 H2029 0.931 . S
C2043 C2042 1.385 . S
C2043 C2044 1.389 . S
C2044 C2043 1.389 . S
C2044 C2045 1.387 . S
C2045 H2030 0.930 . S
C2045 C2040 1.390 . S
C2045 C2044 1.387 . S
H2046 C2058 0.930 . S
H2047 C2060 0.930 . S
H2048 C2061 0.930 . S
H2049 C2065 0.959 . S
H2050 C2065 0.959 . S
H2051 C2065 0.961 . S
H2052 C2066 0.960 . S
H2053 C2066 0.961 . S
H2054 C2066 0.959 . S
H2055 C2069 0.929 . S
H2056 C2070 0.931 . S
H2057 C2072 0.930 . S
C2058 H2046 0.930 . S
C2058 C2059 1.399 . S
C2058 C2063 1.399 . S
C2059 C2058 1.399 . S
C2059 C2060 1.376 . S
C2060 H2047 0.930 . S
C2060 C2059 1.376 . S
C2060 C2061 1.388 . S
C2061 H2048 0.930 . S
C2061 C2060 1.388 . S
C2061 C2062 1.390 . S
C2062 C2061 1.390 . S
C2062 C2063 1.394 . S
C2062 C2068 1.465 . S
C2063 C2058 1.399 . S
C2063 C2062 1.394 . S
C2063 C2064 1.516 . S
C2064 C2063 1.516 . S
C2064 C2065 1.502 . S
C2064 C2066 1.561 . S
C2064 C2067 1.526 . S
C2065 H2049 0.959 . S
C2065 H2050 0.959 . S
C2065 H2051 0.961 . S
C2065 C2064 1.502 . S
C2066 H2052 0.960 . S
C2066 H2053 0.961 . S
C2066 H2054 0.959 . S
C2066 C2064 1.561 . S
C2067 C2064 1.526 . S
C2067 C2068 1.396 . S
C2067 C2072 1.390 . S
C2068 C2062 1.465 . S
C2068 C2067 1.396 . S
C2068 C2069 1.399 . S
C2069 H2055 0.929 . S
C2069 C2068 1.399 . S
C2069 C2070 1.385 . S
C2070 H2056 0.931 . S
C2070 C2069 1.385 . S
C2070 C2071 1.389 . S
C2071 C2070 1.389 . S
C2071 C2072 1.387 . S
C2072 H2057 0.930 . S
C2072 C2067 1.390 . S
C2072 C2071 1.387 . S
H2073 C2085 0.930 . S
H2074 C2087 0.930 . S
H2075 C2088 0.930 1_655 S
H2076 C2092 0.959 . S
H2077 C2092 0.959 . S
H2078 C2092 0.961 . S
H2079 C2093 0.960 . S
H2080 C2093 0.961 . S
H2081 C2093 0.959 . S
H2082 C2096 0.929 . S
H2083 C2097 0.931 . S
H2084 C2099 0.930 . S
C2085 H2073 0.930 . S
C2085 C2086 1.399 . S
C2085 C2090 1.399 . S
C2086 C2085 1.399 . S
C2086 C2087 1.376 1_455 S
C2087 H2074 0.930 . S
C2087 C2086 1.376 1_655 S
C2087 C2088 1.388 1_655 S
C2088 H2075 0.930 1_455 S
C2088 C2087 1.388 1_455 S
C2088 C2089 1.390 . S
C2089 C2088 1.390 . S
C2089 C2090 1.394 . S
C2089 C2095 1.465 . S
C2090 C2085 1.399 . S
C2090 C2089 1.394 . S
C2090 C2091 1.516 . S
C2091 C2090 1.516 . S
C2091 C2092 1.502 . S
C2091 C2093 1.561 . S
C2091 C2094 1.526 . S
C2092 H2076 0.959 . S
C2092 H2077 0.959 . S
C2092 H2078 0.961 . S
C2092 C2091 1.502 . S
C2093 H2079 0.960 . S
C2093 H2080 0.961 . S
C2093 H2081 0.959 . S
C2093 C2091 1.561 . S
C2094 C2091 1.526 . S
C2094 C2095 1.396 . S
C2094 C2099 1.390 . S
C2095 C2089 1.465 . S
C2095 C2094 1.396 . S
C2095 C2096 1.399 . S
C2096 H2082 0.929 . S
C2096 C2095 1.399 . S
C2096 C2097 1.385 . S
C2097 H2083 0.931 . S
C2097 C2096 1.385 . S
C2097 C2098 1.389 . S
C2098 C2097 1.389 . S
C2098 C2099 1.387 . S
C2099 H2084 0.930 . S
C2099 C2094 1.390 . S
C2099 C2098 1.387 . S
H2100 C2112 0.930 . S
H2101 C2114 0.930 . S
H2102 C2115 0.930 . S
H2103 C2119 0.959 . S
H2104 C2119 0.959 . S
H2105 C2119 0.961 . S
H2106 C2120 0.960 . S
H2107 C2120 0.961 . S
H2108 C2120 0.959 . S
H2109 C2123 0.929 . S
H2110 C2124 0.931 . S
H2111 C2126 0.930 . S
C2112 H2100 0.930 . S
C2112 C2113 1.399 . S
C2112 C2117 1.399 . S
C2113 C2112 1.399 . S
C2113 C2114 1.376 . S
C2114 H2101 0.930 . S
C2114 C2113 1.376 . S
C2114 C2115 1.388 . S
C2115 H2102 0.930 . S
C2115 C2114 1.388 . S
C2115 C2116 1.390 . S
C2116 C2115 1.390 . S
C2116 C2117 1.394 . S
C2116 C2122 1.465 . S
C2117 C2112 1.399 . S
C2117 C2116 1.394 . S
C2117 C2118 1.516 . S
C2118 C2117 1.516 . S
C2118 C2119 1.502 . S
C2118 C2120 1.561 . S
C2118 C2121 1.526 . S
C2119 H2103 0.959 . S
C2119 H2104 0.959 . S
C2119 H2105 0.961 . S
C2119 C2118 1.502 . S
C2120 H2106 0.960 . S
C2120 H2107 0.961 . S
C2120 H2108 0.959 . S
C2120 C2118 1.561 . S
C2121 C2118 1.526 . S
C2121 C2122 1.396 . S
C2121 C2126 1.390 . S
C2122 C2116 1.465 . S
C2122 C2121 1.396 . S
C2122 C2123 1.399 . S
C2123 H2109 0.929 . S
C2123 C2122 1.399 . S
C2123 C2124 1.385 . S
C2124 H2110 0.931 . S
C2124 C2123 1.385 . S
C2124 C2125 1.389 . S
C2125 C2124 1.389 . S
C2125 C2126 1.387 . S
C2126 H2111 0.930 . S
C2126 C2121 1.390 . S
C2126 C2125 1.387 . S
H2127 C2139 0.930 . S
H2128 C2141 0.930 . S
H2129 C2142 0.930 . S
H2130 C2146 0.959 . S
H2131 C2146 0.959 . S
H2132 C2146 0.961 . S
H2133 C2147 0.960 . S
H2134 C2147 0.961 . S
H2135 C2147 0.959 . S
H2136 C2150 0.929 . S
H2137 C2151 0.931 . S
H2138 C2153 0.930 . S
C2139 H2127 0.930 . S
C2139 C2140 1.399 . S
C2139 C2144 1.399 . S
C2140 C2139 1.399 . S
C2140 C2141 1.376 . S
C2141 H2128 0.930 . S
C2141 C2140 1.376 . S
C2141 C2142 1.388 . S
C2142 H2129 0.930 . S
C2142 C2141 1.388 . S
C2142 C2143 1.390 . S
C2143 C2142 1.390 . S
C2143 C2144 1.394 . S
C2143 C2149 1.465 . S
C2144 C2139 1.399 . S
C2144 C2143 1.394 . S
C2144 C2145 1.516 . S
C2145 C2144 1.516 . S
C2145 C2146 1.502 . S
C2145 C2147 1.561 . S
C2145 C2148 1.526 . S
C2146 H2130 0.959 . S
C2146 H2131 0.959 . S
C2146 H2132 0.961 . S
C2146 C2145 1.502 . S
C2147 H2133 0.960 . S
C2147 H2134 0.961 . S
C2147 H2135 0.959 . S
C2147 C2145 1.561 . S
C2148 C2145 1.526 . S
C2148 C2149 1.396 . S
C2148 C2153 1.390 . S
C2149 C2143 1.465 . S
C2149 C2148 1.396 . S
C2149 C2150 1.399 . S
C2150 H2136 0.929 . S
C2150 C2149 1.399 . S
C2150 C2151 1.385 . S
C2151 H2137 0.931 . S
C2151 C2150 1.385 . S
C2151 C2152 1.389 . S
C2152 C2151 1.389 . S
C2152 C2153 1.387 . S
C2153 H2138 0.930 . S
C2153 C2148 1.390 . S
C2153 C2152 1.387 . S
H2154 C2166 0.930 . S
H2155 C2168 0.930 . S
H2156 C2169 0.930 1_545 S
H2157 C2173 0.959 . S
H2158 C2173 0.959 . S
H2159 C2173 0.961 . S
H2160 C2174 0.960 . S
H2161 C2174 0.961 . S
H2162 C2174 0.959 . S
H2163 C2177 0.929 . S
H2164 C2178 0.931 . S
H2165 C2180 0.930 . S
C2166 H2154 0.930 . S
C2166 C2167 1.399 . S
C2166 C2171 1.399 . S
C2167 C2166 1.399 . S
C2167 C2168 1.376 1_565 S
C2168 H2155 0.930 . S
C2168 C2167 1.376 1_545 S
C2168 C2169 1.388 1_545 S
C2169 H2156 0.930 1_565 S
C2169 C2168 1.388 1_565 S
C2169 C2170 1.390 . S
C2170 C2169 1.390 . S
C2170 C2171 1.394 . S
C2170 C2176 1.465 . S
C2171 C2166 1.399 . S
C2171 C2170 1.394 . S
C2171 C2172 1.516 . S
C2172 C2171 1.516 . S
C2172 C2173 1.502 . S
C2172 C2174 1.561 . S
C2172 C2175 1.526 . S
C2173 H2157 0.959 . S
C2173 H2158 0.959 . S
C2173 H2159 0.961 . S
C2173 C2172 1.502 . S
C2174 H2160 0.960 . S
C2174 H2161 0.961 . S
C2174 H2162 0.959 . S
C2174 C2172 1.561 . S
C2175 C2172 1.526 . S
C2175 C2176 1.396 . S
C2175 C2180 1.390 . S
C2176 C2170 1.465 . S
C2176 C2175 1.396 . S
C2176 C2177 1.399 . S
C2177 H2163 0.929 . S
C2177 C2176 1.399 . S
C2177 C2178 1.385 . S
C2178 H2164 0.931 . S
C2178 C2177 1.385 . S
C2178 C2179 1.389 . S
C2179 C2178 1.389 . S
C2179 C2180 1.387 . S
C2180 H2165 0.930 . S
C2180 C2175 1.390 . S
C2180 C2179 1.387 . S
H2181 C2193 0.930 1_565 S
H2182 C2195 0.930 . S
H2183 C2196 0.930 . S
H2184 C2200 0.959 . S
H2185 C2200 0.956 1_565 S
H2186 C2200 0.961 1_565 S
H2187 C2201 0.960 . S
H2188 C2201 0.961 . S
H2189 C2201 0.959 . S
H2190 C2204 0.929 . S
H2191 C2205 0.931 . S
H2192 C2207 0.930 . S
C2193 H2181 0.930 1_545 S
C2193 C2194 1.399 . S
C2193 C2198 1.399 . S
C2194 C2193 1.399 . S
C2194 C2195 1.376 . S
C2195 H2182 0.930 . S
C2195 C2194 1.376 . S
C2195 C2196 1.388 . S
C2196 H2183 0.930 . S
C2196 C2195 1.388 . S
C2196 C2197 1.390 . S
C2197 C2196 1.390 . S
C2197 C2198 1.394 . S
C2197 C2203 1.465 . S
C2198 C2193 1.399 . S
C2198 C2197 1.394 . S
C2198 C2199 1.516 . S
C2199 C2198 1.516 . S
C2199 C2200 1.502 . S
C2199 C2201 1.561 1_545 S
C2199 C2202 1.526 . S
C2200 H2184 0.959 . S
C2200 H2185 0.956 1_545 S
C2200 H2186 0.961 1_545 S
C2200 C2199 1.502 . S
C2201 H2187 0.960 . S
C2201 H2188 0.961 . S
C2201 H2189 0.959 . S
C2201 C2199 1.561 1_565 S
C2202 C2199 1.526 . S
C2202 C2203 1.396 . S
C2202 C2207 1.390 . S
C2203 C2197 1.465 . S
C2203 C2202 1.396 . S
C2203 C2204 1.399 . S
C2204 H2190 0.929 . S
C2204 C2203 1.399 . S
C2204 C2205 1.385 . S
C2205 H2191 0.931 . S
C2205 C2204 1.385 . S
C2205 C2206 1.389 . S
C2206 C2205 1.389 . S
C2206 C2207 1.387 . S
C2207 H2192 0.930 . S
C2207 C2202 1.390 . S
C2207 C2206 1.387 . S
H2208 C2220 0.930 . S
H2209 C2222 0.930 . S
H2210 C2223 0.930 . S
H2211 C2227 0.959 . S
H2212 C2227 0.959 . S
H2213 C2227 0.961 . S
H2214 C2228 0.960 . S
H2215 C2228 0.961 . S
H2216 C2228 0.959 . S
H2217 C2231 0.929 . S
H2218 C2232 0.931 . S
H2219 C2234 0.930 . S
C2220 H2208 0.930 . S
C2220 C2221 1.399 . S
C2220 C2225 1.399 . S
C2221 C2220 1.399 . S
C2221 C2222 1.376 . S
C2222 H2209 0.930 . S
C2222 C2221 1.376 . S
C2222 C2223 1.388 . S
C2223 H2210 0.930 . S
C2223 C2222 1.388 . S
C2223 C2224 1.390 . S
C2224 C2223 1.390 . S
C2224 C2225 1.394 . S
C2224 C2230 1.465 . S
C2225 C2220 1.399 . S
C2225 C2224 1.394 . S
C2225 C2226 1.516 . S
C2226 C2225 1.516 . S
C2226 C2227 1.502 . S
C2226 C2228 1.561 . S
C2226 C2229 1.526 . S
C2227 H2211 0.959 . S
C2227 H2212 0.959 . S
C2227 H2213 0.961 . S
C2227 C2226 1.502 . S
C2228 H2214 0.960 . S
C2228 H2215 0.961 . S
C2228 H2216 0.959 . S
C2228 C2226 1.561 . S
C2229 C2226 1.526 . S
C2229 C2230 1.396 . S
C2229 C2234 1.390 . S
C2230 C2224 1.465 . S
C2230 C2229 1.396 . S
C2230 C2231 1.399 . S
C2231 H2217 0.929 . S
C2231 C2230 1.399 . S
C2231 C2232 1.385 . S
C2232 H2218 0.931 . S
C2232 C2231 1.385 . S
C2232 C2233 1.389 . S
C2233 C2232 1.389 . S
C2233 C2234 1.387 . S
C2234 H2219 0.930 . S
C2234 C2229 1.390 . S
C2234 C2233 1.387 . S
H2235 C2247 0.930 . S
H2236 C2249 0.969 . S
H2237 C2250 0.930 1_556 S
H2238 C2254 0.959 . S
H2239 C2254 0.959 . S
H2240 C2254 0.961 . S
H2241 C2255 0.960 . S
H2242 C2255 0.961 . S
H2243 C2255 0.959 . S
H2244 C2258 0.929 . S
H2245 C2259 0.931 . S
H2246 C2261 0.930 . S
C2247 H2235 0.930 . S
C2247 C2248 1.399 . S
C2247 C2252 1.399 . S
C2248 C2247 1.399 . S
C2248 C2249 1.341 1_554 S
C2249 H2236 0.969 . S
C2249 C2248 1.341 1_556 S
C2249 C2250 1.387 1_556 S
C2250 H2237 0.930 1_554 S
C2250 C2249 1.387 1_554 S
C2250 C2251 1.390 . S
C2251 C2250 1.390 . S
C2251 C2252 1.394 . S
C2251 C2257 1.465 . S
C2252 C2247 1.399 . S
C2252 C2251 1.394 . S
C2252 C2253 1.516 . S
C2253 C2252 1.516 . S
C2253 C2254 1.502 . S
C2253 C2255 1.561 . S
C2253 C2256 1.526 . S
C2254 H2238 0.959 . S
C2254 H2239 0.959 . S
C2254 H2240 0.961 . S
C2254 C2253 1.502 . S
C2255 H2241 0.960 . S
C2255 H2242 0.961 . S
C2255 H2243 0.959 . S
C2255 C2253 1.561 . S
C2256 C2253 1.526 . S
C2256 C2257 1.396 . S
C2256 C2261 1.390 . S
C2257 C2251 1.465 . S
C2257 C2256 1.396 . S
C2257 C2258 1.399 . S
C2258 H2244 0.929 . S
C2258 C2257 1.399 . S
C2258 C2259 1.385 . S
C2259 H2245 0.931 . S
C2259 C2258 1.385 . S
C2259 C2260 1.389 . S
C2260 C2259 1.389 . S
C2260 C2261 1.387 . S
C2261 H2246 0.930 . S
C2261 C2256 1.390 . S
C2261 C2260 1.387 . S
H2262 C2274 0.930 . S
H2263 C2276 0.930 . S
H2264 C2277 0.930 . S
H2265 C2281 0.959 . S
H2266 C2281 0.959 . S
H2267 C2281 0.961 . S
H2268 C2282 0.960 . S
H2269 C2282 0.961 . S
H2270 C2282 0.959 . S
H2271 C2285 0.929 . S
H2272 C2286 0.931 . S
H2273 C2288 0.930 . S
C2274 H2262 0.930 . S
C2274 C2275 1.399 . S
C2274 C2279 1.399 . S
C2275 C2274 1.399 . S
C2275 C2276 1.376 . S
C2276 H2263 0.930 . S
C2276 C2275 1.376 . S
C2276 C2277 1.388 . S
C2277 H2264 0.930 . S
C2277 C2276 1.388 . S
C2277 C2278 1.390 . S
C2278 C2277 1.390 . S
C2278 C2279 1.394 . S
C2278 C2284 1.465 . S
C2279 C2274 1.399 . S
C2279 C2278 1.394 . S
C2279 C2280 1.516 . S
C2280 C2279 1.516 . S
C2280 C2281 1.502 . S
C2280 C2282 1.561 . S
C2280 C2283 1.526 . S
C2281 H2265 0.959 . S
C2281 H2266 0.959 . S
C2281 H2267 0.961 . S
C2281 C2280 1.502 . S
C2282 H2268 0.960 . S
C2282 H2269 0.961 . S
C2282 H2270 0.959 . S
C2282 C2280 1.561 . S
C2283 C2280 1.526 . S
C2283 C2284 1.396 . S
C2283 C2288 1.390 . S
C2284 C2278 1.465 . S
C2284 C2283 1.396 . S
C2284 C2285 1.399 . S
C2285 H2271 0.929 . S
C2285 C2284 1.399 . S
C2285 C2286 1.385 . S
C2286 H2272 0.931 . S
C2286 C2285 1.385 . S
C2286 C2287 1.389 . S
C2287 C2286 1.389 . S
C2287 C2288 1.387 . S
C2288 H2273 0.930 . S
C2288 C2283 1.390 . S
C2288 C2287 1.387 . S
H2289 C2301 0.930 . S
H2290 C2303 0.930 . S
H2291 C2304 0.930 . S
H2292 C2308 0.959 . S
H2293 C2308 0.959 . S
H2294 C2308 0.961 . S
H2295 C2309 0.960 . S
H2296 C2309 0.961 . S
H2297 C2309 0.959 . S
H2298 C2312 0.929 1_554 S
H2299 C2313 0.931 . S
H2300 C2315 0.930 . S
C2301 H2289 0.930 . S
C2301 C2302 1.399 . S
C2301 C2306 1.399 . S
C2302 C2301 1.399 . S
C2302 C2303 1.376 1_556 S
C2303 H2290 0.930 . S
C2303 C2302 1.376 1_554 S
C2303 C2304 1.388 . S
C2304 H2291 0.930 . S
C2304 C2303 1.388 . S
C2304 C2305 1.390 1_554 S
C2305 C2304 1.390 1_556 S
C2305 C2306 1.394 . S
C2305 C2311 1.465 . S
C2306 C2301 1.399 . S
C2306 C2305 1.394 . S
C2306 C2307 1.516 . S
C2307 C2306 1.516 . S
C2307 C2308 1.502 . S
C2307 C2309 1.561 . S
C2307 C2310 1.526 . S
C2308 H2292 0.959 . S
C2308 H2293 0.959 . S
C2308 H2294 0.961 . S
C2308 C2307 1.502 . S
C2309 H2295 0.960 . S
C2309 H2296 0.961 . S
C2309 H2297 0.959 . S
C2309 C2307 1.561 . S
C2310 C2307 1.526 . S
C2310 C2311 1.396 . S
C2310 C2315 1.390 . S
C2311 C2305 1.465 . S
C2311 C2310 1.396 . S
C2311 C2312 1.399 . S
C2312 H2298 0.929 1_556 S
C2312 C2311 1.399 . S
C2312 C2313 1.385 . S
C2313 H2299 0.931 . S
C2313 C2312 1.385 . S
C2313 C2314 1.389 . S
C2314 C2313 1.389 . S
C2314 C2315 1.387 . S
C2315 H2300 0.930 . S
C2315 C2310 1.390 . S
C2315 C2314 1.387 . S
H2316 C2328 0.930 . S
H2317 C2330 0.930 . S
H2318 C2331 0.930 . S
H2319 C2335 0.959 . S
H2320 C2335 0.959 . S
H2321 C2335 0.961 . S
H2322 C2336 0.960 . S
H2323 C2336 0.961 . S
H2324 C2336 0.959 . S
H2325 C2339 0.929 . S
H2326 C2340 0.931 . S
H2327 C2342 0.930 . S
C2328 H2316 0.930 . S
C2328 C2329 1.399 . S
C2328 C2333 1.399 . S
C2329 C2328 1.399 . S
C2329 C2330 1.376 . S
C2330 H2317 0.930 . S
C2330 C2329 1.376 . S
C2330 C2331 1.388 . S
C2331 H2318 0.930 . S
C2331 C2330 1.388 . S
C2331 C2332 1.390 . S
C2332 C2331 1.390 . S
C2332 C2333 1.394 . S
C2332 C2338 1.465 . S
C2333 C2328 1.399 . S
C2333 C2332 1.394 . S
C2333 C2334 1.516 . S
C2334 C2333 1.516 . S
C2334 C2335 1.502 . S
C2334 C2336 1.561 . S
C2334 C2337 1.526 . S
C2335 H2319 0.959 . S
C2335 H2320 0.959 . S
C2335 H2321 0.961 . S
C2335 C2334 1.502 . S
C2336 H2322 0.960 . S
C2336 H2323 0.961 . S
C2336 H2324 0.959 . S
C2336 C2334 1.561 . S
C2337 C2334 1.526 . S
C2337 C2338 1.396 . S
C2337 C2342 1.390 . S
C2338 C2332 1.465 . S
C2338 C2337 1.396 . S
C2338 C2339 1.399 . S
C2339 H2325 0.929 . S
C2339 C2338 1.399 . S
C2339 C2340 1.385 . S
C2340 H2326 0.931 . S
C2340 C2339 1.385 . S
C2340 C2341 1.389 . S
C2341 C2340 1.389 . S
C2341 C2342 1.387 . S
C2342 H2327 0.930 . S
C2342 C2337 1.390 . S
C2342 C2341 1.387 . S
H2343 C2355 0.930 1_655 S
H2344 C2357 0.930 . S
H2345 C2358 0.930 . S
H2346 C2362 0.959 1_455 S
H2347 C2362 0.959 . S
H2348 C2362 0.961 . S
H2349 C2363 0.960 . S
H2350 C2363 0.961 . S
H2351 C2363 0.953 1_455 S
H2352 C2366 0.929 . S
H2353 C2367 0.931 . S
H2354 C2369 0.930 . S
C2355 H2343 0.930 1_455 S
C2355 C2356 1.399 . S
C2355 C2360 1.399 . S
C2356 C2355 1.399 . S
C2356 C2357 1.376 . S
C2357 H2344 0.930 . S
C2357 C2356 1.376 . S
C2357 C2358 1.388 . S
C2358 H2345 0.930 . S
C2358 C2357 1.388 . S
C2358 C2359 1.390 . S
C2359 C2358 1.390 . S
C2359 C2360 1.394 . S
C2359 C2365 1.465 . S
C2360 C2355 1.399 . S
C2360 C2359 1.394 . S
C2360 C2361 1.516 . S
C2361 C2360 1.516 . S
C2361 C2362 1.502 1_455 S
C2361 C2363 1.561 1_455 S
C2361 C2364 1.526 . S
C2362 H2346 0.959 1_655 S
C2362 H2347 0.959 . S
C2362 H2348 0.961 . S
C2362 C2361 1.502 1_655 S
C2363 H2349 0.960 . S
C2363 H2350 0.961 . S
C2363 H2351 0.953 1_655 S
C2363 C2361 1.561 1_655 S
C2364 C2361 1.526 . S
C2364 C2365 1.396 . S
C2364 C2369 1.390 . S
C2365 C2359 1.465 . S
C2365 C2364 1.396 . S
C2365 C2366 1.399 . S
C2366 H2352 0.929 . S
C2366 C2365 1.399 . S
C2366 C2367 1.385 . S
C2367 H2353 0.931 . S
C2367 C2366 1.385 . S
C2367 C2368 1.389 . S
C2368 C2367 1.389 . S
C2368 C2369 1.387 . S
C2369 H2354 0.930 . S
C2369 C2364 1.390 . S
C2369 C2368 1.387 . S
H2370 C2382 0.930 . S
H2371 C2384 0.930 . S
H2372 C2385 0.930 . S
H2373 C2389 0.959 . S
H2374 C2389 0.959 . S
H2375 C2389 0.961 . S
H2376 C2390 0.960 . S
H2377 C2390 0.961 . S
H2378 C2390 0.959 . S
H2379 C2393 0.929 . S
H2380 C2394 0.931 . S
H2381 C2396 0.930 . S
C2382 H2370 0.930 . S
C2382 C2383 1.399 . S
C2382 C2387 1.399 . S
C2383 C2382 1.399 . S
C2383 C2384 1.376 . S
C2384 H2371 0.930 . S
C2384 C2383 1.376 . S
C2384 C2385 1.388 . S
C2385 H2372 0.930 . S
C2385 C2384 1.388 . S
C2385 C2386 1.390 . S
C2386 C2385 1.390 . S
C2386 C2387 1.394 . S
C2386 C2392 1.465 . S
C2387 C2382 1.399 . S
C2387 C2386 1.394 . S
C2387 C2388 1.516 . S
C2388 C2387 1.516 . S
C2388 C2389 1.502 . S
C2388 C2390 1.561 . S
C2388 C2391 1.526 . S
C2389 H2373 0.959 . S
C2389 H2374 0.959 . S
C2389 H2375 0.961 . S
C2389 C2388 1.502 . S
C2390 H2376 0.960 . S
C2390 H2377 0.961 . S
C2390 H2378 0.959 . S
C2390 C2388 1.561 . S
C2391 C2388 1.526 . S
C2391 C2392 1.396 . S
C2391 C2396 1.390 . S
C2392 C2386 1.465 . S
C2392 C2391 1.396 . S
C2392 C2393 1.399 . S
C2393 H2379 0.929 . S
C2393 C2392 1.399 . S
C2393 C2394 1.385 . S
C2394 H2380 0.931 . S
C2394 C2393 1.385 . S
C2394 C2395 1.389 . S
C2395 C2394 1.389 . S
C2395 C2396 1.387 . S
C2396 H2381 0.930 . S
C2396 C2391 1.390 . S
C2396 C2395 1.387 . S
H2397 C2409 0.930 . S
H2398 C2411 0.930 . S
H2399 C2412 0.930 . S
H2400 C2416 0.959 . S
H2401 C2416 0.959 . S
H2402 C2416 0.961 . S
H2403 C2417 0.960 . S
H2404 C2417 0.961 . S
H2405 C2417 0.959 1_455 S
H2406 C2420 0.929 . S
H2407 C2421 0.931 . S
H2408 C2423 0.930 . S
C2409 H2397 0.930 . S
C2409 C2410 1.399 . S
C2409 C2414 1.399 . S
C2410 C2409 1.399 . S
C2410 C2411 1.376 . S
C2411 H2398 0.930 . S
C2411 C2410 1.376 . S
C2411 C2412 1.388 . S
C2412 H2399 0.930 . S
C2412 C2411 1.388 . S
C2412 C2413 1.390 . S
C2413 C2412 1.390 . S
C2413 C2414 1.394 . S
C2413 C2419 1.465 . S
C2414 C2409 1.399 . S
C2414 C2413 1.394 . S
C2414 C2415 1.516 . S
C2415 C2414 1.516 . S
C2415 C2416 1.502 . S
C2415 C2417 1.561 . S
C2415 C2418 1.526 . S
C2416 H2400 0.959 . S
C2416 H2401 0.959 . S
C2416 H2402 0.961 . S
C2416 C2415 1.502 . S
C2417 H2403 0.960 . S
C2417 H2404 0.961 . S
C2417 H2405 0.959 1_655 S
C2417 C2415 1.561 . S
C2418 C2415 1.526 . S
C2418 C2419 1.396 . S
C2418 C2423 1.390 . S
C2419 C2413 1.465 . S
C2419 C2418 1.396 . S
C2419 C2420 1.399 . S
C2420 H2406 0.929 . S
C2420 C2419 1.399 . S
C2420 C2421 1.385 . S
C2421 H2407 0.931 . S
C2421 C2420 1.385 . S
C2421 C2422 1.389 . S
C2422 C2421 1.389 . S
C2422 C2423 1.387 . S
C2423 H2408 0.930 . S
C2423 C2418 1.390 . S
C2423 C2422 1.387 . S
C505 C475 1.799 . S
C493 C8 1.796 . S
C532 C448 1.543 . S
C520 C19 1.528 . S
C559 C466 1.391 . S
C547 C30 1.373 . S
C586 C457 1.965 . S
C574 C41 1.905 . S
C613 C394 1.807 . S
C601 C52 1.761 . S
C628 C63 1.943 . S
C640 C403 1.958 . S
C667 C376 1.561 . S
C655 C74 1.462 . S
C682 C85 1.371 . S
C694 C385 1.417 . S
C721 C439 1.802 . S
C709 C96 1.793 . S
C736 C107 1.944 . S
C748 C421 1.964 . S
C763 C118 1.458 . S
C775 C412 1.539 . S
C802 C430 1.406 . S
C790 C129 1.412 . S
C829 C367 1.800 . S
C817 C140 1.734 . S
C844 C151 1.425 . S
C856 C340 1.536 . S
C883 C358 1.412 . S
C871 C162 1.341 . S
C898 C173 1.880 . S
C910 C349 1.966 . S
C937 C286 1.783 . S
C925 C184 1.695 . S
C964 C295 1.957 . S
C952 C195 1.817 . S
C979 C206 1.395 . S
C991 C268 1.531 . S
C1006 C217 1.291 . S
C1018 C277 1.384 . S
C1033 C228 1.729 . S
C1045 C331 1.806 . S
C1060 C239 1.861 . S
C1072 C313 1.962 . S
C1099 C304 1.556 . S
C1087 C250 1.421 . S
C1114 C261 1.293 . S
C1126 C322 1.381 . S
C1153 C269 1.211 . S
C1141 C7 1.231 . S
C1180 C278 1.123 . S
C1168 C18 1.184 . S
C1195 C29 1.206 . S
C1207 C287 1.206 . S
C1222 C40 0.992 . S
C1234 C296 1.013 1_565 S
C1261 C305 1.198 . S
C1249 C51 1.187 . S
C1276 C62 0.994 . S
C1288 C314 1.016 1_556 S
C1315 C323 1.166 . S
C1303 C73 1.173 . S
C1342 C332 1.205 . S
C1330 C84 1.206 . S
C1369 C341 1.197 . S
C1357 C95 1.229 . S
C1384 C106 1.013 . S
C1396 C350 0.999 . S
C1411 C117 1.149 . S
C1423 C359 1.182 . S
C1438 C128 1.169 . S
C1450 C368 1.156 . S
C1465 C139 1.135 . S
C1477 C377 1.230 . S
C1492 C150 1.066 . S
C1504 C386 1.180 . S
C1519 C161 1.086 . S
C1531 C395 1.212 . S
C1546 C172 0.942 . S
C1558 C404 1.036 1_545 S
C1573 C183 1.072 . S
C1585 C413 1.210 . S
C1612 C422 1.040 . S
C1600 C194 0.976 . S
C1639 C431 1.137 . S
C1627 C205 0.972 . S
C1666 C440 1.186 . S
C1654 C216 1.175 . S
C1693 C449 1.230 . S
C1681 C227 1.093 . S
C1708 C238 0.872 . S
C1720 C458 1.014 . S
C1735 C249 1.127 . S
C1747 C467 1.149 . S
C1762 C260 1.061 . S
C1774 C476 1.167 . S
C1789 C5 1.530 . S
C1801 C343 1.649 . S
C1828 C370 1.580 . S
C1816 C16 1.462 . S
C1843 C27 1.243 1_545 S
C1855 C352 1.318 . S
C1882 C361 1.947 . S
C1870 C38 1.816 1_565 S
C1897 C49 1.497 . S
C1909 C271 1.656 . S
C1924 C60 1.832 1_556 S
C1936 C280 1.947 . S
C1951 C71 1.410 . S
C1963 C289 1.597 . S
C1978 C82 1.252 1_554 S
C1990 C298 1.315 . S
C2017 C307 1.650 . S
C2005 C93 1.519 . S
C2044 C325 1.987 . S
C2032 C104 1.731 1_655 S
C2059 C115 1.491 . S
C2071 C334 1.564 . S
C2086 C126 1.159 1_455 S
C2098 C316 1.359 . S
C2125 C451 1.687 . S
C2113 C137 1.173 . S
C2152 C478 1.577 . S
C2140 C148 1.128 . S
C2167 C159 0.945 . S
C2179 C460 1.359 . S
C2206 C469 1.958 . S
C2194 C170 1.441 . S
C2221 C181 1.182 . S
C2233 C379 1.664 . S
C2248 C192 1.397 . S
C2260 C388 1.988 . S
C2275 C203 0.980 . S
C2287 C397 1.595 . S
C2314 C406 1.364 . S
C2302 C214 1.021 . S
C2341 C415 1.662 . S
C2329 C225 1.326 . S
C2368 C433 1.961 . S
C2356 C236 1.422 . S
C2383 C247 1.003 . S
C2395 C442 1.612 . S
C2422 C424 1.327 . S
C2410 C258 1.098 . S
