# Generated by pormake.
# Topology zzz, (3,6)-cn, num edge types: 1
# Building blocks:
#     Node 0, Type 0, BuildingBlock: KAKCAD_clean_linker_0, # of connection points: 3
#     Node 1, Type 0, BuildingBlock: KAKCAD_clean_linker_0, # of connection points: 3
#     Node 2, Type 0, BuildingBlock: KAKCAD_clean_linker_0, # of connection points: 3
#     Node 3, Type 0, BuildingBlock: KAKCAD_clean_linker_0, # of connection points: 3
#     Node 4, Type 0, BuildingBlock: KAKCAD_clean_linker_0, # of connection points: 3
#     Node 5, Type 0, BuildingBlock: KAKCAD_clean_linker_0, # of connection points: 3
#     Node 6, Type 0, BuildingBlock: KAKCAD_clean_linker_0, # of connection points: 3
#     Node 7, Type 0, BuildingBlock: KAKCAD_clean_linker_0, # of connection points: 3
#     Node 8, Type 1, BuildingBlock: FUNLAD_clean_sbu_0, # of connection points: 6
#     Node 9, Type 1, BuildingBlock: FUNLAD_clean_sbu_0, # of connection points: 6
#     Node 10, Type 1, BuildingBlock: FUNLAD_clean_sbu_0, # of connection points: 6
#     Node 11, Type 1, BuildingBlock: FUNLAD_clean_sbu_0, # of connection points: 6
#     Edge 12, Type (0, 1), BuildingBlock: XUDNAN_clean_linker_2, # of connection points: 2
#     Edge 13, Type (0, 1), BuildingBlock: XUDNAN_clean_linker_2, # of connection points: 2
#     Edge 14, Type (0, 1), BuildingBlock: XUDNAN_clean_linker_2, # of connection points: 2
#     Edge 15, Type (0, 1), BuildingBlock: XUDNAN_clean_linker_2, # of connection points: 2
#     Edge 16, Type (0, 1), BuildingBlock: XUDNAN_clean_linker_2, # of connection points: 2
#     Edge 17, Type (0, 1), BuildingBlock: XUDNAN_clean_linker_2, # of connection points: 2
#     Edge 18, Type (0, 1), BuildingBlock: XUDNAN_clean_linker_2, # of connection points: 2
#     Edge 19, Type (0, 1), BuildingBlock: XUDNAN_clean_linker_2, # of connection points: 2
#     Edge 20, Type (0, 1), BuildingBlock: XUDNAN_clean_linker_2, # of connection points: 2
#     Edge 21, Type (0, 1), BuildingBlock: XUDNAN_clean_linker_2, # of connection points: 2
#     Edge 22, Type (0, 1), BuildingBlock: XUDNAN_clean_linker_2, # of connection points: 2
#     Edge 23, Type (0, 1), BuildingBlock: XUDNAN_clean_linker_2, # of connection points: 2
#     Edge 24, Type (0, 1), BuildingBlock: XUDNAN_clean_linker_2, # of connection points: 2
#     Edge 25, Type (0, 1), BuildingBlock: XUDNAN_clean_linker_2, # of connection points: 2
#     Edge 26, Type (0, 1), BuildingBlock: XUDNAN_clean_linker_2, # of connection points: 2
#     Edge 27, Type (0, 1), BuildingBlock: XUDNAN_clean_linker_2, # of connection points: 2
#     Edge 28, Type (0, 1), BuildingBlock: XUDNAN_clean_linker_2, # of connection points: 2
#     Edge 29, Type (0, 1), BuildingBlock: XUDNAN_clean_linker_2, # of connection points: 2
#     Edge 30, Type (0, 1), BuildingBlock: XUDNAN_clean_linker_2, # of connection points: 2
#     Edge 31, Type (0, 1), BuildingBlock: XUDNAN_clean_linker_2, # of connection points: 2
#     Edge 32, Type (0, 1), BuildingBlock: XUDNAN_clean_linker_2, # of connection points: 2
#     Edge 33, Type (0, 1), BuildingBlock: XUDNAN_clean_linker_2, # of connection points: 2
#     Edge 34, Type (0, 1), BuildingBlock: XUDNAN_clean_linker_2, # of connection points: 2
#     Edge 35, Type (0, 1), BuildingBlock: XUDNAN_clean_linker_2, # of connection points: 2
# Relax obj value: 0.277
# Max RMSD: 0.225
# Mean RMSD: 0.191
data_MOF--net-zzz--node1-FUNLAD_clean_sbu_0--node2-KAKCAD_clean_linker_0--edge1-XUDNAN_clean_linker_2
_symmetry_space_group_name_H-M    P1
_symmetry_Int_Tables_number       1
_symmetry_cell_setting            triclinic
loop_
_symmetry_equiv_pos_as_xyz
'x, y, z'
_cell_length_a     58.16055
_cell_length_b     63.014672
_cell_length_c     22.657168
_cell_angle_alpha  86.825633
_cell_angle_beta   87.016203
_cell_angle_gamma 92.191211
loop_
_atom_site_label
_atom_site_type_symbol
_atom_site_fract_x
_atom_site_fract_y
_atom_site_fract_z
_atom_type_partial_charge
C0 C 0.85364 0.43251 0.02552 0.0
C1 C 0.87261 0.42059 0.04036 0.0
C2 C 0.83493 0.43365 0.06592 0.0
C3 C 0.83501 0.423 0.12199 0.0
C4 C 0.85328 0.40985 0.13514 0.0
C5 C 0.87196 0.40858 0.09438 0.0
C6 C 0.81779 0.42806 0.16877 0.0
C7 C 0.79453 0.42925 0.15697 0.0
C8 C 0.77874 0.43711 0.19841 0.0
C9 C 0.78638 0.44368 0.25281 0.0
C10 C 0.8097 0.44192 0.26598 0.0
C11 C 0.82517 0.43424 0.22325 0.0
C12 C 0.81892 0.4491 0.32203 0.0
C13 C 0.81253 0.46834 0.34544 0.0
C14 C 0.83649 0.43785 0.34839 0.0
C15 C 0.84885 0.4465 0.39297 0.0
C16 C 0.84358 0.46643 0.41419 0.0
C17 C 0.75464 0.43917 0.18189 0.0
C18 C 0.74501 0.45923 0.17673 0.0
C19 C 0.74247 0.42142 0.16259 0.0
C20 C 0.72143 0.42376 0.13658 0.0
C21 C 0.71222 0.44395 0.12866 0.0
C22 C 0.72401 0.46163 0.14995 0.0
C23 C 0.82461 0.47683 0.39133 0.0
H24 H 0.85388 0.44188 0.98388 0.0
H25 H 0.8212 0.44405 0.05483 0.0
H26 H 0.85361 0.40139 0.17802 0.0
H27 H 0.88653 0.3994 0.10664 0.0
H28 H 0.78881 0.42473 0.11443 0.0
H29 H 0.84341 0.43419 0.23097 0.0
H30 H 0.77421 0.44987 0.28469 0.0
H31 H 0.79903 0.4774 0.32631 0.0
H32 H 0.84153 0.42273 0.33243 0.0
H33 H 0.86336 0.43788 0.40811 0.0
H34 H 0.7543 0.47318 0.19054 0.0
H35 H 0.74971 0.40583 0.16559 0.0
H36 H 0.81948 0.49189 0.4074 0.0
H37 H 0.71724 0.47736 0.14474 0.0
H38 H 0.71293 0.40986 0.12006 0.0
C39 C 0.97955 0.85469 0.05837 0.0
C40 C 0.99817 0.85178 0.01828 0.0
C41 C 0.96747 0.83718 0.08682 0.0
C42 C 0.97407 0.81637 0.07679 0.0
C43 C 0.99261 0.81353 0.03587 0.0
C44 C 0.00441 0.8311 0.00643 0.0
C45 C 0.96219 0.79787 0.11075 0.0
C46 C 0.95834 0.77841 0.08492 0.0
C47 C 0.9477 0.76082 0.11803 0.0
C48 C 0.94054 0.76284 0.17774 0.0
C49 C 0.94376 0.78246 0.20326 0.0
C50 C 0.95486 0.79961 0.17004 0.0
C51 C 0.93567 0.78623 0.26429 0.0
C52 C 0.91739 0.79983 0.27266 0.0
C53 C 0.95005 0.7819 0.3109 0.0
C54 C 0.94748 0.79261 0.36323 0.0
C55 C 0.93065 0.80792 0.36915 0.0
C56 C 0.94482 0.74046 0.08911 0.0
C57 C 0.93481 0.74023 0.0341 0.0
C58 C 0.95485 0.72201 0.11172 0.0
C59 C 0.95652 0.7042 0.07752 0.0
C60 C 0.9481 0.70462 0.02036 0.0
C61 C 0.93632 0.72247 1.00024 0.0
C62 C 0.91488 0.81058 0.32468 0.0
H63 H 0.97415 0.87053 0.0671 0.0
H64 H 0.95291 0.84002 0.11668 0.0
H65 H 0.99837 0.79778 0.02753 0.0
H66 H 0.0187 0.82858 0.97535 0.0
H67 H 0.96376 0.77684 0.03892 0.0
H68 H 0.95801 0.81438 0.19127 0.0
H69 H 0.93217 0.74946 0.20359 0.0
H70 H 0.90638 0.80365 0.23674 0.0
H71 H 0.96458 0.77185 0.30469 0.0
H72 H 0.95997 0.79033 0.3966 0.0
H73 H 0.92676 0.75421 0.01606 0.0
H74 H 0.96279 0.72188 0.15394 0.0
H75 H 0.90161 0.82212 0.32834 0.0
H76 H 0.92917 0.72309 0.957 0.0
H77 H 0.96575 0.69072 0.09419 0.0
C78 C 0.69963 0.01622 0.99344 0.0
C79 C 0.68319 0.03169 1.00101 0.0
C80 C 0.71893 0.016 0.02754 0.0
C81 C 0.7217 0.03107 0.07022 0.0
C82 C 0.7064 0.04775 0.07354 0.0
C83 C 0.68726 0.0481 0.03888 0.0
C84 C 0.73738 0.02688 0.11828 0.0
C85 C 0.76041 0.02248 0.10615 0.0
C86 C 0.77455 0.01644 0.15202 0.0
C87 C 0.76514 0.01441 0.21123 0.0
C88 C 0.74167 0.01867 0.22375 0.0
C89 C 0.72824 0.02499 0.17666 0.0
C90 C 0.72965 0.01539 0.28383 0.0
C91 C 0.73065 0.99611 0.31758 0.0
C92 C 0.71339 0.03003 0.30199 0.0
C93 C 0.69702 0.02472 0.34838 0.0
C94 C 0.69671 0.00476 0.37969 0.0
C95 C 0.79901 0.01263 0.13525 0.0
C96 C 0.80425 0.9967 0.09624 0.0
C97 C 0.8164 0.02759 0.14694 0.0
C98 C 0.83831 0.02723 0.11803 0.0
C99 C 0.84343 0.01175 0.07701 0.0
C100 C 0.8262 0.99614 0.06789 0.0
C101 C 0.71452 0.99093 0.36521 0.0
H102 H 0.69656 0.00331 0.96477 0.0
H103 H 0.7304 0.00291 0.02455 0.0
H104 H 0.7083 0.05954 0.10618 0.0
H105 H 0.67457 0.06 0.04571 0.0
H106 H 0.76739 0.02381 0.06068 0.0
H107 H 0.71001 0.02733 0.18497 0.0
H108 H 0.77586 0.00946 0.24676 0.0
H109 H 0.74291 0.98445 0.30493 0.0
H110 H 0.71227 0.04517 0.27741 0.0
H111 H 0.68383 0.03596 0.35686 0.0
H112 H 0.79099 0.98518 0.08572 0.0
H113 H 0.81262 0.04039 0.17548 0.0
H114 H 0.71563 0.97572 0.38919 0.0
H115 H 0.82943 0.9837 0.03783 0.0
H116 H 0.85083 0.03978 0.12583 0.0
C117 C 0.5802 0.68055 0.39342 0.0
C118 C 0.58782 0.65951 0.3976 0.0
C119 C 0.58136 0.69238 0.33902 0.0
C120 C 0.59086 0.68373 0.28787 0.0
C121 C 0.60139 0.66403 0.29394 0.0
C122 C 0.59952 0.65192 0.34756 0.0
C123 C 0.5867 0.69313 0.22756 0.0
C124 C 0.58627 0.71526 0.21431 0.0
C125 C 0.58074 0.72309 0.15752 0.0
C126 C 0.57566 0.70885 0.11414 0.0
C127 C 0.57509 0.68686 0.12729 0.0
C128 C 0.58065 0.67927 0.18386 0.0
C129 C 0.5666 0.67163 0.08471 0.0
C130 C 0.54778 0.6763 0.05035 0.0
C131 C 0.57591 0.65143 0.08234 0.0
C132 C 0.56585 0.63589 0.04947 0.0
C133 C 0.54656 0.64027 0.01646 0.0
C134 C 0.57668 0.7458 0.14446 0.0
C135 C 0.55526 0.75358 0.16136 0.0
C136 C 0.59189 0.75839 0.10582 0.0
C137 C 0.58551 0.77837 0.08339 0.0
C138 C 0.56351 0.78589 0.09796 0.0
C139 C 0.54865 0.77326 0.13808 0.0
C140 C 0.53799 0.66085 0.01626 0.0
H141 H 0.57214 0.68756 0.43136 0.0
H142 H 0.57338 0.70762 0.33649 0.0
H143 H 0.60967 0.65719 0.25593 0.0
H144 H 0.60586 0.63602 0.3479 0.0
H145 H 0.58981 0.72634 0.24792 0.0
H146 H 0.57883 0.66234 0.1952 0.0
H147 H 0.57111 0.71502 0.07085 0.0
H148 H 0.54 0.69162 0.05143 0.0
H149 H 0.59066 0.64737 0.10735 0.0
H150 H 0.57285 0.62022 0.05173 0.0
H151 H 0.54302 0.74382 0.18979 0.0
H152 H 0.60837 0.75244 0.09144 0.0
H153 H 0.5235 0.665 0.99044 0.0
H154 H 0.53137 0.77797 0.14954 0.0
H155 H 0.59766 0.78766 0.05366 0.0
C156 C 0.15671 0.59752 0.261 0.0
C157 C 0.15322 0.59061 0.32092 0.0
C158 C 0.17684 0.59276 0.22909 0.0
C159 C 0.19382 0.58113 0.25671 0.0
C160 C 0.19139 0.57623 0.31796 0.0
C161 C 0.17125 0.5809 0.3498 0.0
C162 C 0.21191 0.5711 0.22087 0.0
C163 C 0.23443 0.57023 0.23933 0.0
C164 C 0.25078 0.55811 0.20991 0.0
C165 C 0.24426 0.54667 0.16115 0.0
C166 C 0.22158 0.54742 0.14257 0.0
C167 C 0.20574 0.55988 0.17215 0.0
C168 C 0.2132 0.53462 0.09457 0.0
C169 C 0.22211 0.5383 0.03593 0.0
C170 C 0.19338 0.52129 0.10608 0.0
C171 C 0.18153 0.51329 0.05968 0.0
C172 C 0.18931 0.51834 1.00073 0.0
C173 C 0.27396 0.55659 0.2339 0.0
C174 C 0.28534 0.57493 0.25246 0.0
C175 C 0.28366 0.53676 0.24465 0.0
C176 C 0.30385 0.53524 0.27551 0.0
C177 C 0.31475 0.55355 0.296 0.0
C178 C 0.30539 0.57343 0.28327 0.0
C179 C 0.21024 0.53015 0.98917 0.0
H180 H 0.14325 0.60533 0.23788 0.0
H181 H 0.17851 0.597 0.18202 0.0
H182 H 0.20412 0.56713 0.34035 0.0
H183 H 0.16906 0.57513 0.39575 0.0
H184 H 0.23898 0.57843 0.27816 0.0
H185 H 0.18812 0.56005 0.15862 0.0
H186 H 0.25654 0.53694 0.13872 0.0
H187 H 0.23726 0.54868 0.02605 0.0
H188 H 0.18625 0.51813 0.151 0.0
H189 H 0.1656 0.50401 0.06976 0.0
H190 H 0.27833 0.59046 0.2446 0.0
H191 H 0.27513 0.52233 0.23141 0.0
H192 H 0.21654 0.53428 0.94401 0.0
H193 H 0.3131 0.58785 0.29889 0.0
H194 H 0.31077 0.51972 0.28389 0.0
C195 C 0.055 0.18214 0.43757 0.0
C196 C 0.06364 0.16233 0.45437 0.0
C197 C 0.06888 0.19733 0.40401 0.0
C198 C 0.0917 0.19304 0.38655 0.0
C199 C 0.10072 0.17367 0.40597 0.0
C200 C 0.08683 0.15846 0.43963 0.0
C201 C 0.10474 0.20754 0.34202 0.0
C202 C 0.10334 0.22962 0.3441 0.0
C203 C 0.11132 0.24318 0.29565 0.0
C204 C 0.12107 0.23461 0.24458 0.0
C205 C 0.12331 0.21249 0.24294 0.0
C206 C 0.11544 0.19918 0.29209 0.0
C207 C 0.1297 0.20227 0.18761 0.0
C208 C 0.11488 0.20351 0.14072 0.0
C209 C 0.14703 0.18732 0.18706 0.0
C210 C 0.14848 0.17285 0.14248 0.0
C211 C 0.13232 0.17289 0.09862 0.0
C212 C 0.10601 0.26582 0.29685 0.0
C213 C 0.08333 0.27166 0.28907 0.0
C214 C 0.12214 0.28081 0.31532 0.0
C215 C 0.1154 0.30128 0.32775 0.0
C216 C 0.09238 0.30697 0.32223 0.0
C217 C 0.07657 0.292 0.30157 0.0
C218 C 0.11605 0.18879 0.09683 0.0
H219 H 0.03715 0.18552 0.44764 0.0
H220 H 0.06126 0.21193 0.38882 0.0
H221 H 0.11832 0.17002 0.39357 0.0
H222 H 0.09408 0.14347 0.45296 0.0
H223 H 0.0949 0.23626 0.38231 0.0
H224 H 0.11568 0.18207 0.28899 0.0
H225 H 0.12603 0.24493 0.20578 0.0
H226 H 0.10111 0.21461 0.14088 0.0
H227 H 0.15838 0.18589 0.22338 0.0
H228 H 0.16103 0.1606 0.14492 0.0
H229 H 0.07055 0.26012 0.27602 0.0
H230 H 0.13964 0.27641 0.32249 0.0
H231 H 0.10338 0.18903 0.0634 0.0
H232 H 0.05862 0.29556 0.29785 0.0
H233 H 0.12807 0.31247 0.34297 0.0
C234 C 0.32936 0.9767 0.40942 0.0
C235 C 0.35107 0.98732 0.40049 0.0
C236 C 0.31132 0.9822 0.37382 0.0
C237 C 0.31468 0.99842 0.32873 0.0
C238 C 0.3361 0.00956 0.32142 0.0
C239 C 0.35411 0.00399 0.35653 0.0
C240 C 0.29675 0.00248 0.28587 0.0
C241 C 0.27348 0.0031 0.3044 0.0
C242 C 0.25622 0.0053 0.26321 0.0
C243 C 0.263 0.00758 0.20189 0.0
C244 C 0.28662 0.00745 0.18329 0.0
C245 C 0.30307 0.00478 0.22553 0.0
C246 C 0.29555 0.00855 0.12059 0.0
C247 C 0.298 0.98955 0.09192 0.0
C248 C 0.30852 0.02677 0.09796 0.0
C249 C 0.32452 0.02571 0.04975 0.0
C250 C 0.32821 0.0063 0.02338 0.0
C251 C 0.23151 0.00498 0.28633 0.0
C252 C 0.2243 0.9919 0.337 0.0
C253 C 0.21546 0.01865 0.26187 0.0
C254 C 0.19322 0.0198 0.28896 0.0
C255 C 0.18667 0.00751 0.34145 0.0
C256 C 0.2024 0.99336 0.36452 0.0
C257 C 0.31412 0.9884 0.04411 0.0
H258 H 0.32635 0.96402 0.44351 0.0
H259 H 0.29502 0.97324 0.38019 0.0
H260 H 0.33912 0.0223 0.28747 0.0
H261 H 0.37064 0.01238 0.34784 0.0
H262 H 0.26892 0.00205 0.35147 0.0
H263 H 0.32103 0.00378 0.2108 0.0
H264 H 0.25016 0.00907 0.16913 0.0
H265 H 0.28892 0.97508 0.10982 0.0
H266 H 0.3075 0.04147 0.12041 0.0
H267 H 0.33462 0.03996 0.03472 0.0
H268 H 0.23575 0.9806 0.35623 0.0
H269 H 0.2203 0.029 0.22311 0.0
H270 H 0.31654 0.97303 0.02619 0.0
H271 H 0.1977 0.98328 0.40393 0.0
H272 H 0.18139 0.03078 0.26991 0.0
C273 C 0.45285 0.31518 0.01715 0.0
C274 C 0.47326 0.32646 0.99612 0.0
C275 C 0.45271 0.30136 0.06791 0.0
C276 C 0.47304 0.29844 0.09759 0.0
C277 C 0.49375 0.30827 0.07352 0.0
C278 C 0.49387 0.32214 0.02332 0.0
C279 C 0.47199 0.29055 0.16025 0.0
C280 C 0.47165 0.26879 0.1781 0.0
C281 C 0.47365 0.26259 0.23832 0.0
C282 C 0.47565 0.27817 0.28006 0.0
C283 C 0.47541 0.29979 0.26252 0.0
C284 C 0.47346 0.30579 0.20269 0.0
C285 C 0.47909 0.31645 0.30489 0.0
C286 C 0.46555 0.33441 0.30357 0.0
C287 C 0.49795 0.31586 0.34119 0.0
C288 C 0.50422 0.33365 0.3719 0.0
C289 C 0.49171 0.35225 0.36671 0.0
C290 C 0.47452 0.24004 0.25924 0.0
C291 C 0.4547 0.22657 0.26103 0.0
C292 C 0.4942 0.23297 0.28639 0.0
C293 C 0.49375 0.21319 0.31747 0.0
C294 C 0.47349 0.20018 0.32268 0.0
C295 C 0.45414 0.20682 0.29279 0.0
C296 C 0.47176 0.35212 0.33429 0.0
H297 H 0.43671 0.31826 0.99714 0.0
H298 H 0.43648 0.2943 0.08654 0.0
H299 H 0.50955 0.30651 0.09634 0.0
H300 H 0.50991 0.33038 0.00765 0.0
H301 H 0.47076 0.2569 0.14542 0.0
H302 H 0.47417 0.32254 0.18843 0.0
H303 H 0.47738 0.27342 0.32632 0.0
H304 H 0.4507 0.3351 0.27664 0.0
H305 H 0.50872 0.30221 0.34272 0.0
H306 H 0.51967 0.33331 0.39659 0.0
H307 H 0.43926 0.23185 0.2409 0.0
H308 H 0.50959 0.24324 0.28594 0.0
H309 H 0.46145 0.36605 0.33077 0.0
H310 H 0.43835 0.19705 0.29564 0.0
H311 H 0.50886 0.20868 0.34042 0.0
C312 C 0.02772 0.97659 0.76246 0.0
N313 N 0.98271 0.97 0.63729 0.0
C314 C 0.98786 0.96542 0.58025 0.0
C315 C 0.97907 0.94664 0.55818 0.0
C316 C 0.96486 0.93238 0.59516 0.0
C317 C 0.95926 0.93792 0.65327 0.0
C318 C 0.96844 0.95683 0.67351 0.0
Zn319 Zn 0.99922 0.9954 0.67222 0.0
C320 C 0.97776 0.01268 0.7886 0.0
N321 N 0.04907 0.03575 0.79108 0.0
C322 C 0.07129 0.03009 0.79589 0.0
C323 C 0.04028 0.05152 0.82275 0.0
C324 C 0.05389 0.06259 0.86033 0.0
C325 C 0.07703 0.05755 0.86582 0.0
C326 C 0.08565 0.04081 0.83351 0.0
Zn327 Zn 0.02673 0.02608 0.73028 0.0
O328 O 0.01404 0.9727 0.72325 0.0
C329 C 0.049 0.00868 0.61605 0.0
O330 O 0.03365 0.99565 0.77008 0.0
H331 H 0.02285 0.05624 0.81663 0.0
H332 H 0.99938 0.976 0.55233 0.0
H333 H 0.07809 0.01782 0.76919 0.0
O334 O 0.02995 0.9976 0.61199 0.0
O335 O 0.05236 0.02063 0.65986 0.0
H336 H 0.96475 0.96065 0.71888 0.0
O337 O 0.005 0.02989 0.66677 0.0
O338 O 0.98104 0.01599 0.61111 0.0
O339 O 0.99666 0.0241 0.79046 0.0
O340 O 0.97422 0.00022 0.74597 0.0
C341 C 0.99131 0.03239 0.62663 0.0
H342 H 0.98412 0.94296 0.51334 0.0
H343 H 0.94816 0.92759 0.68316 0.0
H344 H 0.04653 0.07572 0.88254 0.0
H345 H 0.10337 0.03635 0.83631 0.0
C346 C 0.488 0.9785 0.63135 0.0
N347 N 0.51121 0.04053 0.6581 0.0
C348 C 0.51452 0.04202 0.59806 0.0
C349 C 0.50914 0.06047 0.56559 0.0
C350 C 0.50006 0.07755 0.59501 0.0
C351 C 0.49752 0.07589 0.65717 0.0
C352 C 0.50328 0.05715 0.68802 0.0
Zn353 Zn 0.51482 0.01136 0.70073 0.0
C354 C 0.47445 0.99884 0.78337 0.0
N355 N 0.51823 0.94785 0.77576 0.0
C356 C 0.52342 0.92921 0.75136 0.0
C357 C 0.51497 0.94879 0.83543 0.0
C358 C 0.51716 0.93091 0.87302 0.0
C359 C 0.52214 0.91131 0.84976 0.0
C360 C 0.5254 0.9106 0.78779 0.0
Zn361 Zn 0.51564 0.97692 0.73012 0.0
O362 O 0.49402 0.9978 0.63797 0.0
C363 C 0.55552 0.98895 0.64578 0.0
O364 O 0.49565 0.9639 0.66509 0.0
H365 H 0.51085 0.9636 0.85451 0.0
H366 H 0.52048 0.02854 0.57495 0.0
H367 H 0.52604 0.92876 0.70383 0.0
O368 O 0.5457 0.00667 0.64676 0.0
O369 O 0.54663 0.97301 0.67727 0.0
H370 H 0.50068 0.05563 0.73571 0.0
O371 O 0.53551 0.99079 0.79481 0.0
O372 O 0.53551 0.02445 0.76416 0.0
O373 O 0.48424 0.98124 0.78013 0.0
O374 O 0.48381 0.01537 0.75586 0.0
C375 C 0.54177 0.01006 0.80061 0.0
H376 H 0.51111 0.06095 0.51772 0.0
H377 H 0.49078 0.08879 0.6816 0.0
H378 H 0.51521 0.93265 0.92026 0.0
H379 H 0.5292 0.89587 0.76765 0.0
C380 C 0.53085 0.47093 0.59878 0.0
N381 N 0.47321 0.50673 0.63215 0.0
C382 C 0.47813 0.51359 0.57468 0.0
C383 C 0.46098 0.52115 0.53968 0.0
C384 C 0.43834 0.52176 0.56351 0.0
C385 C 0.43334 0.51395 0.62232 0.0
C386 C 0.45125 0.50655 0.65632 0.0
Zn387 Zn 0.50154 0.49821 0.67721 0.0
C388 C 0.49718 0.45859 0.74803 0.0
N389 N 0.56514 0.48333 0.75206 0.0
C390 C 0.57 0.46245 0.75997 0.0
C391 C 0.57675 0.49855 0.78047 0.0
C392 C 0.59294 0.49284 0.82145 0.0
C393 C 0.59714 0.47126 0.83337 0.0
C394 C 0.58601 0.45605 0.80048 0.0
Zn395 Zn 0.53632 0.49092 0.70799 0.0
O396 O 0.51249 0.48105 0.60419 0.0
C397 C 0.53996 0.53139 0.63996 0.0
O398 O 0.54542 0.47145 0.6385 0.0
H399 H 0.57255 0.51506 0.77389 0.0
H400 H 0.49558 0.51359 0.55583 0.0
H401 H 0.56056 0.45057 0.73716 0.0
O402 O 0.51865 0.5262 0.64112 0.0
O403 O 0.55384 0.51842 0.66224 0.0
H404 H 0.44769 0.50103 0.70206 0.0
O405 O 0.52666 0.51017 0.77611 0.0
O406 O 0.49133 0.51568 0.75109 0.0
O407 O 0.51814 0.46432 0.75355 0.0
O408 O 0.48472 0.46993 0.71545 0.0
C409 C 0.50761 0.51891 0.78535 0.0
H410 H 0.46549 0.52664 0.49423 0.0
H411 H 0.41602 0.51416 0.64217 0.0
H412 H 0.60103 0.50509 0.84598 0.0
H413 H 0.58903 0.43927 0.80748 0.0
C414 C 0.03884 0.52963 0.59663 0.0
N415 N 0.03227 0.46308 0.61114 0.0
C416 C 0.02878 0.46567 0.55233 0.0
C417 C 0.034 0.4497 0.51435 0.0
C418 C 0.04232 0.4304 0.53686 0.0
C419 C 0.04562 0.42805 0.59801 0.0
C420 C 0.04058 0.44472 0.63444 0.0
Zn421 Zn 0.02423 0.48805 0.66196 0.0
C422 C 0.06146 0.50107 0.73871 0.0
N423 N 0.00678 0.5423 0.7578 0.0
C424 C 0.02267 0.55867 0.75902 0.0
C425 C 0.98536 0.54336 0.78454 0.0
C426 C 0.97897 0.56176 0.81201 0.0
C427 C 0.9947 0.57924 0.811 0.0
C428 C 0.01692 0.57741 0.78514 0.0
Zn429 Zn 0.01519 0.51684 0.70975 0.0
O430 O 0.03774 0.50962 0.59259 0.0
C431 C 0.97773 0.50357 0.63441 0.0
O432 O 0.03128 0.53764 0.64346 0.0
H433 H 0.97297 0.53018 0.78297 0.0
H434 H 0.02192 0.48023 0.53448 0.0
H435 H 0.03967 0.55747 0.73808 0.0
O436 O 0.99133 0.48857 0.62625 0.0
O437 O 0.98361 0.51863 0.66628 0.0
H438 H 0.04316 0.44293 0.68136 0.0
O439 O 0.99913 0.49566 0.77509 0.0
O440 O 0.0101 0.46715 0.73147 0.0
O441 O 0.0466 0.51454 0.7521 0.0
O442 O 0.05713 0.48786 0.69979 0.0
C443 C 0.99951 0.47552 0.77422 0.0
H444 H 0.03165 0.45265 0.46759 0.0
H445 H 0.05168 0.41342 0.61782 0.0
H446 H 0.96164 0.56268 0.83137 0.0
H447 H 0.02956 0.59052 0.78407 0.0
H448 H 0.17649 0.01226 0.45994 0.0
H449 H 0.14454 0.00604 0.29273 0.0
H450 H 0.106 0.00609 0.34462 0.0
H451 H 0.13625 0.97911 0.55008 0.0
H452 H 0.13644 0.99549 0.61281 0.0
H453 H 0.16147 0.99543 0.56257 0.0
H454 H 0.16041 0.03634 0.54506 0.0
H455 H 0.13543 0.03653 0.59552 0.0
H456 H 0.1344 0.04802 0.5211 0.0
H457 H 0.071 0.00411 0.41595 0.0
H458 H 0.04198 0.00369 0.49962 0.0
H459 H 0.09636 0.01363 0.62037 0.0
C460 C 0.16136 0.011 0.43426 0.0
C461 C 0.16351 0.00907 0.37218 0.0
C462 C 0.14331 0.00767 0.34012 0.0
C463 C 0.12136 0.00758 0.36931 0.0
C464 C 0.11985 0.00925 0.43057 0.0
C465 C 0.13931 0.01127 0.46259 0.0
C466 C 0.13289 0.01314 0.52795 0.0
C467 C 0.14233 0.99469 0.56555 0.0
C468 C 0.14128 0.0348 0.54861 0.0
C469 C 0.10678 0.01145 0.52792 0.0
C470 C 0.09964 0.00905 0.4713 0.0
C471 C 0.0764 0.00619 0.46032 0.0
C472 C 0.06004 0.00584 0.50825 0.0
C473 C 0.06686 0.00863 0.56658 0.0
C474 C 0.09059 0.01163 0.57626 0.0
H475 H 0.5055 0.16945 0.33595 0.0
H476 H 0.43857 0.18794 0.40429 0.0
H477 H 0.43785 0.15838 0.48069 0.0
H478 H 0.49438 0.11193 0.36148 0.0
H479 H 0.52339 0.10735 0.38193 0.0
H480 H 0.51791 0.12919 0.33051 0.0
H481 H 0.53819 0.15532 0.3976 0.0
H482 H 0.54351 0.1336 0.44947 0.0
H483 H 0.52823 0.15613 0.47411 0.0
H484 H 0.44567 0.12839 0.55404 0.0
H485 H 0.46002 0.09822 0.61393 0.0
H486 H 0.52184 0.09924 0.49779 0.0
C487 C 0.49059 0.16713 0.36663 0.0
C488 C 0.47203 0.18094 0.36395 0.0
C489 C 0.45281 0.17736 0.40483 0.0
C490 C 0.45232 0.16071 0.4487 0.0
C491 C 0.47111 0.14768 0.45086 0.0
C492 C 0.48976 0.15051 0.41045 0.0
C493 C 0.50786 0.13443 0.42293 0.0
C494 C 0.51107 0.11986 0.37113 0.0
C495 C 0.5308 0.14554 0.43686 0.0
C496 C 0.49667 0.12235 0.47725 0.0
C497 C 0.4755 0.13026 0.49272 0.0
C498 C 0.46217 0.12198 0.54215 0.0
C499 C 0.47056 0.10498 0.57621 0.0
C500 C 0.49206 0.09639 0.56063 0.0
C501 C 0.50525 0.10532 0.51052 0.0
H502 H 0.32353 0.52311 0.38356 0.0
H503 H 0.35278 0.58073 0.28998 0.0
H504 H 0.38578 0.58002 0.35372 0.0
H505 H 0.34143 0.53477 0.52869 0.0
H506 H 0.34831 0.50778 0.54894 0.0
H507 H 0.32634 0.51292 0.49737 0.0
H508 H 0.34775 0.49101 0.41983 0.0
H509 H 0.3696 0.48559 0.47142 0.0
H510 H 0.37759 0.49767 0.39891 0.0
H511 H 0.41547 0.57336 0.42633 0.0
H512 H 0.44214 0.55936 0.49855 0.0
H513 H 0.39492 0.50524 0.54389 0.0
C514 C 0.33698 0.53546 0.37602 0.0
C515 C 0.33539 0.55211 0.33198 0.0
C516 C 0.35332 0.56805 0.32408 0.0
C517 C 0.37219 0.56777 0.35999 0.0
C518 C 0.37301 0.55137 0.40349 0.0
C519 C 0.35606 0.53537 0.41136 0.0
C520 C 0.36163 0.51923 0.46028 0.0
C521 C 0.34333 0.51865 0.51187 0.0
C522 C 0.36431 0.49707 0.43615 0.0
C523 C 0.38449 0.52859 0.47813 0.0
C524 C 0.39053 0.54726 0.44509 0.0
C525 C 0.41098 0.55874 0.45239 0.0
C526 C 0.42601 0.55065 0.49343 0.0
C527 C 0.42063 0.53118 0.5265 0.0
C528 C 0.39935 0.52025 0.51962 0.0
H529 H 0.10523 0.32871 0.41854 0.0
H530 H 0.06084 0.33223 0.27018 0.0
H531 H 0.04356 0.36405 0.30904 0.0
H532 H 0.06534 0.34416 0.52739 0.0
H533 H 0.08543 0.36023 0.56551 0.0
H534 H 0.09545 0.33828 0.52503 0.0
H535 H 0.12489 0.36349 0.46322 0.0
H536 H 0.11521 0.38547 0.50421 0.0
H537 H 0.115 0.38691 0.42457 0.0
H538 H 0.02848 0.39306 0.36839 0.0
H539 H 0.01937 0.42026 0.43841 0.0
H540 H 0.07599 0.40043 0.54388 0.0
C541 C 0.09229 0.33645 0.39332 0.0
C542 C 0.08427 0.32776 0.34146 0.0
C543 C 0.06699 0.33827 0.31056 0.0
C544 C 0.05713 0.35644 0.33211 0.0
C545 C 0.06496 0.36416 0.38416 0.0
C546 C 0.08243 0.35479 0.41383 0.0
C547 C 0.08743 0.36627 0.4692 0.0
C548 C 0.08315 0.35134 0.52507 0.0
C549 C 0.11209 0.37612 0.46502 0.0
C550 C 0.06972 0.38329 0.46643 0.0
C551 C 0.0569 0.38167 0.41715 0.0
C552 C 0.03877 0.39485 0.40639 0.0
C553 C 0.03385 0.4104 0.44644 0.0
C554 C 0.04723 0.413 0.49642 0.0
C555 C 0.06533 0.39902 0.50645 0.0
H556 H 0.85309 0.00048 0.96147 0.0
H557 H 0.88601 0.02439 0.11387 0.0
H558 H 0.92313 0.02737 0.05629 0.0
H559 H 0.90087 0.96826 0.91425 0.0
H560 H 0.89686 0.97354 0.83655 0.0
H561 H 0.87258 0.97343 0.88933 0.0
H562 H 0.86356 0.0115 0.8508 0.0
H563 H 0.88788 0.01178 0.79814 0.0
H564 H 0.88563 0.03243 0.84984 0.0
H565 H 0.95648 0.02906 0.98194 0.0
H566 H 0.98455 0.02738 0.8975 0.0
H567 H 0.93126 0.0001 0.79388 0.0
C568 C 0.8681 0.00602 0.98336 0.0
C569 C 0.86628 0.01237 0.04263 0.0
C570 C 0.88655 0.01986 0.06846 0.0
C571 C 0.90786 0.02146 0.03616 0.0
C572 C 0.9089 0.01527 0.97803 0.0
C573 C 0.88965 0.00747 0.95195 0.0
C574 C 0.89567 0.00174 0.88876 0.0
C575 C 0.89123 0.97782 0.88184 0.0
C576 C 0.88239 0.01517 0.84427 0.0
C577 C 0.9213 0.00771 0.88337 0.0
C578 C 0.92846 0.01559 0.93542 0.0
C579 C 0.95111 0.02277 0.94112 0.0
C580 C 0.96693 0.02181 0.89261 0.0
C581 C 0.96023 0.01356 0.83877 0.0
C582 C 0.93702 0.00634 0.8344 0.0
H583 H 0.57531 0.80443 0.98543 0.0
H584 H 0.53355 0.81391 0.14608 0.0
H585 H 0.51685 0.84485 0.09669 0.0
H586 H 0.58832 0.86118 0.95246 0.0
H587 H 0.58825 0.85897 0.87349 0.0
H588 H 0.59631 0.83677 0.92044 0.0
H589 H 0.56494 0.81295 0.87655 0.0
H590 H 0.55652 0.83517 0.83018 0.0
H591 H 0.53544 0.82081 0.8799 0.0
H592 H 0.50254 0.87303 0.02889 0.0
H593 H 0.49649 0.90127 0.95315 0.0
H594 H 0.55134 0.87745 0.8403 0.0
C595 C 0.56295 0.81312 0.01086 0.0
C596 C 0.55543 0.80613 0.06965 0.0
C597 C 0.53908 0.81819 0.1005 0.0
C598 C 0.52954 0.83597 0.07293 0.0
C599 C 0.53685 0.84196 0.01476 0.0
C600 C 0.55361 0.8313 0.98449 0.0
C601 C 0.55924 0.84197 0.92333 0.0
C602 C 0.58453 0.85022 0.91708 0.0
C603 C 0.5537 0.82682 0.87462 0.0
C604 C 0.54288 0.86018 0.92405 0.0
C605 C 0.52989 0.85954 0.97695 0.0
C606 C 0.513 0.87405 0.98784 0.0
C607 C 0.50984 0.89017 0.94445 0.0
C608 C 0.52391 0.89217 0.89112 0.0
C609 C 0.54032 0.87656 0.88042 0.0
H610 H 0.70485 0.47403 0.03992 0.0
H611 H 0.67243 0.41914 0.13979 0.0
H612 H 0.63919 0.42077 0.07641 0.0
H613 H 0.65166 0.50214 0.01404 0.0
H614 H 0.66151 0.51172 0.94027 0.0
H615 H 0.68201 0.50711 0.99607 0.0
H616 H 0.70374 0.48206 0.92763 0.0
H617 H 0.6832 0.48641 0.87189 0.0
H618 H 0.68831 0.45973 0.89959 0.0
H619 H 0.61071 0.42696 0.9991 0.0
H620 H 0.5878 0.43819 0.91527 0.0
H621 H 0.63859 0.48912 0.86463 0.0
C622 C 0.6905 0.46268 0.04932 0.0
C623 C 0.69117 0.44648 0.09494 0.0
C624 C 0.67231 0.4316 0.10492 0.0
C625 C 0.65334 0.43244 0.06927 0.0
C626 C 0.65346 0.44829 0.02386 0.0
C627 C 0.67143 0.46325 0.014 0.0
C628 C 0.66764 0.47811 0.9607 0.0
C629 C 0.66558 0.50113 0.97887 0.0
C630 C 0.68686 0.47647 0.91209 0.0
C631 C 0.64482 0.46903 0.94187 0.0
C632 C 0.63698 0.45184 0.97898 0.0
C633 C 0.61663 0.44043 0.96984 0.0
C634 C 0.60385 0.44683 0.92171 0.0
C635 C 0.61145 0.46446 0.88304 0.0
C636 C 0.63222 0.47569 0.89359 0.0
H637 H 0.94711 0.66089 0.04277 0.0
H638 H 0.96321 0.71065 0.9048 0.0
H639 H 0.97524 0.68379 0.83617 0.0
H640 H 0.99463 0.62908 0.00792 0.0
H641 H 0.97901 0.60392 0.02242 0.0
H642 H 0.97023 0.62682 0.06065 0.0
H643 H 0.9291 0.62213 0.0231 0.0
H644 H 0.93777 0.59915 0.98492 0.0
H645 H 0.92542 0.62103 0.94479 0.0
H646 H 0.98805 0.65247 0.78442 0.0
H647 H 0.99918 0.6176 0.75036 0.0
H648 H 0.97434 0.58736 0.91956 0.0
C649 C 0.95301 0.66607 0.99799 0.0
C650 C 0.95394 0.68788 0.97901 0.0
C651 C 0.96183 0.69403 0.92006 0.0
C652 C 0.96887 0.6789 0.88077 0.0
C653 C 0.96787 0.65762 0.90086 0.0
C654 C 0.95998 0.65109 0.95781 0.0
C655 C 0.96112 0.62714 0.96796 0.0
C656 C 0.97721 0.62141 0.01768 0.0
C657 C 0.93691 0.61675 0.98096 0.0
C658 C 0.97125 0.62139 0.90816 0.0
C659 C 0.975 0.63927 0.87028 0.0
C660 C 0.98503 0.6383 0.81341 0.0
C661 C 0.9914 0.61848 0.7946 0.0
C662 C 0.9876 0.59989 0.83236 0.0
C663 C 0.97722 0.60134 0.88972 0.0
H664 H 0.06167 0.12013 0.4314 0.0
H665 H 0.03036 0.16614 0.54299 0.0
H666 H 0.00334 0.13796 0.58844 0.0
H667 H 0.00962 0.08854 0.40856 0.0
H668 H 0.02391 0.06366 0.41294 0.0
H669 H 0.03972 0.08769 0.38573 0.0
H670 H 0.06982 0.08177 0.46519 0.0
H671 H 0.05437 0.05752 0.49131 0.0
H672 H 0.06008 0.07788 0.54201 0.0
H673 H 0.98243 0.10446 0.62802 0.0
H674 H 0.971 0.06751 0.66336 0.0
H675 H 0.01493 0.04363 0.52426 0.0
C676 C 0.04919 0.12429 0.46556 0.0
C677 C 0.04805 0.14534 0.48358 0.0
C678 C 0.03132 0.15016 0.528 0.0
C679 C 0.01589 0.13429 0.55396 0.0
C680 C 0.01734 0.11374 0.53468 0.0
C681 C 0.03368 0.10867 0.49183 0.0
C682 C 0.03265 0.08512 0.48181 0.0
C683 C 0.02608 0.08103 0.41848 0.0
C684 C 0.05558 0.07498 0.49595 0.0
C685 C 0.01346 0.07766 0.52659 0.0
C686 C 0.00469 0.09445 0.55627 0.0
C687 C 0.98861 0.09125 0.60402 0.0
C688 C 0.982 0.07029 0.62338 0.0
C689 C 0.99126 0.05301 0.59442 0.0
C690 C 0.00666 0.05672 0.54463 0.0
H691 H 0.38422 0.01336 0.44324 0.0
H692 H 0.36266 0.94683 0.43694 0.0
H693 H 0.39667 0.93656 0.49146 0.0
H694 H 0.4447 0.00604 0.41743 0.0
H695 H 0.45299 0.02633 0.46615 0.0
H696 H 0.42661 0.02825 0.42832 0.0
H697 H 0.40354 0.03067 0.52872 0.0
H698 H 0.42989 0.02904 0.56662 0.0
H699 H 0.40622 0.01029 0.58674 0.0
H700 H 0.43324 0.93398 0.54947 0.0
H701 H 0.46793 0.93966 0.60691 0.0
H702 H 0.46587 0.00765 0.56536 0.0
C703 C 0.38669 0.99659 0.45265 0.0
C704 C 0.37077 0.98092 0.43562 0.0
C705 C 0.37446 0.95917 0.4502 0.0
C706 C 0.39384 0.95316 0.48063 0.0
C707 C 0.40941 0.96908 0.49566 0.0
C708 C 0.40596 0.99034 0.48206 0.0
C709 C 0.42502 0.00449 0.50297 0.0
C710 C 0.43811 0.017 0.45058 0.0
C711 C 0.4156 0.01949 0.549 0.0
C712 C 0.43975 0.9879 0.53079 0.0
C713 C 0.43056 0.96755 0.52655 0.0
C714 C 0.44072 0.94985 0.55248 0.0
C715 C 0.46044 0.9532 0.58475 0.0
C716 C 0.46974 0.97406 0.59027 0.0
C717 C 0.45946 0.99144 0.56154 0.0
H718 H 0.50926 0.35826 0.47554 0.0
H719 H 0.49421 0.39155 0.30999 0.0
H720 H 0.5084 0.42528 0.34742 0.0
H721 H 0.49103 0.39797 0.56806 0.0
H722 H 0.51309 0.39428 0.62022 0.0
H723 H 0.5037 0.37245 0.57832 0.0
H724 H 0.54591 0.36799 0.53977 0.0
H725 H 0.55534 0.39007 0.58103 0.0
H726 H 0.56193 0.39031 0.50236 0.0
H727 H 0.51983 0.45559 0.40523 0.0
H728 H 0.52664 0.48095 0.48247 0.0
H729 H 0.53676 0.42851 0.6089 0.0
C730 C 0.50933 0.37261 0.44693 0.0
C731 C 0.50053 0.37232 0.39 0.0
C732 C 0.50053 0.39146 0.35412 0.0
C733 C 0.50883 0.41066 0.37466 0.0
C734 C 0.51729 0.41045 0.43097 0.0
C735 C 0.5176 0.39197 0.46677 0.0
C736 C 0.52596 0.39651 0.52722 0.0
C737 C 0.50733 0.38992 0.57632 0.0
C738 C 0.54864 0.38557 0.53821 0.0
C739 C 0.52973 0.42046 0.52015 0.0
C740 C 0.5248 0.42813 0.46402 0.0
C741 C 0.52439 0.44983 0.44879 0.0
C742 C 0.52837 0.4641 0.49265 0.0
C743 C 0.533 0.45656 0.5505 0.0
C744 C 0.53434 0.43455 0.56404 0.0
H745 H 0.14081 0.59797 0.43637 0.0
H746 H 0.11319 0.57907 0.27202 0.0
H747 H 0.07669 0.56758 0.32527 0.0
H748 H 0.12225 0.55509 0.51798 0.0
H749 H 0.11465 0.56739 0.58586 0.0
H750 H 0.13602 0.58007 0.53422 0.0
H751 H 0.11281 0.6143 0.52877 0.0
H752 H 0.09142 0.60187 0.58146 0.0
H753 H 0.08296 0.61275 0.51094 0.0
H754 H 0.04892 0.54886 0.39637 0.0
H755 H 0.02893 0.52844 0.48154 0.0
H756 H 0.07256 0.5603 0.60123 0.0
C757 C 0.1267 0.59225 0.41137 0.0
C758 C 0.1298 0.58958 0.35005 0.0
C759 C 0.1111 0.58175 0.31876 0.0
C760 C 0.09028 0.57504 0.34873 0.0
C761 C 0.08829 0.57656 0.40979 0.0
C762 C 0.10577 0.58545 0.44076 0.0
C763 C 0.10046 0.5826 0.50694 0.0
C764 C 0.11947 0.57057 0.538 0.0
C765 C 0.09668 0.60417 0.5336 0.0
C766 C 0.07819 0.56932 0.50823 0.0
C767 C 0.07133 0.56625 0.45165 0.0
C768 C 0.05347 0.55183 0.44097 0.0
C769 C 0.04237 0.54018 0.48931 0.0
C770 C 0.04905 0.5433 0.5473 0.0
C771 C 0.06677 0.55833 0.55711 0.0
H772 H 0.0043 0.86052 0.89963 0.0
H773 H 0.01838 0.88542 0.06901 0.0
H774 H 0.03494 0.91872 0.01811 0.0
H775 H 0.05472 0.88753 0.81096 0.0
H776 H 0.03754 0.89261 0.74813 0.0
H777 H 0.0313 0.86925 0.79682 0.0
H778 H 0.98913 0.88046 0.81372 0.0
H779 H 0.99522 0.90368 0.76506 0.0
H780 H 0.98377 0.90646 0.83956 0.0
H781 H 0.04491 0.95072 0.95045 0.0
H782 H 0.04432 0.97976 0.87276 0.0
H783 H 0.02282 0.93417 0.74778 0.0
C784 C 0.01166 0.87274 0.92562 0.0
C785 C 0.01052 0.87045 0.98788 0.0
C786 C 0.0194 0.88696 0.02108 0.0
C787 C 0.02894 0.9058 0.99256 0.0
C788 C 0.0294 0.90782 0.93094 0.0
C789 C 0.02091 0.89174 0.89785 0.0
C790 C 0.02036 0.89894 0.83319 0.0
C791 C 0.03698 0.88633 0.79503 0.0
C792 C 0.99566 0.8973 0.81168 0.0
C793 C 0.02889 0.92184 0.83551 0.0
C794 C 0.0346 0.92653 0.89192 0.0
C795 C 0.04093 0.94716 0.90583 0.0
C796 C 0.04062 0.96355 0.86142 0.0
C797 C 0.0336 0.95916 0.80433 0.0
C798 C 0.02851 0.93794 0.7909 0.0
H799 H 0.66078 0.05345 0.91352 0.0
H800 H 0.65333 0.00089 0.04579 0.0
H801 H 0.61359 0.99333 0.01753 0.0
H802 H 0.60039 0.07018 0.92599 0.0
H803 H 0.59898 0.0758 0.84741 0.0
H804 H 0.62606 0.07889 0.88191 0.0
H805 H 0.64477 0.05328 0.8095 0.0
H806 H 0.61787 0.05037 0.77443 0.0
H807 H 0.63162 0.02716 0.80349 0.0
H808 H 0.57663 0.98967 0.97222 0.0
H809 H 0.54503 0.98753 0.90458 0.0
H810 H 0.5755 0.04193 0.79855 0.0
C811 C 0.65055 0.04053 0.9366 0.0
C812 C 0.6598 0.02769 0.98173 0.0
C813 C 0.64632 0.01076 0.01095 0.0
C814 C 0.62375 0.0065 0.99562 0.0
C815 C 0.61499 0.01935 0.95093 0.0
C816 C 0.62793 0.03587 0.92124 0.0
C817 C 0.61488 0.04582 0.87121 0.0
C818 C 0.60977 0.06906 0.88231 0.0
C819 C 0.62807 0.04404 0.81112 0.0
C820 C 0.59296 0.03183 0.87644 0.0
C821 C 0.59331 0.017 0.92365 0.0
C822 C 0.57594 0.00134 0.93555 0.0
C823 C 0.55809 0.00026 0.89688 0.0
C824 C 0.5578 0.01466 0.84676 0.0
C825 C 0.57506 0.03107 0.8374 0.0
H826 H 0.5672 0.60765 0.96147 0.0
H827 H 0.50023 0.63388 0.99761 0.0
H828 H 0.48189 0.60467 0.94618 0.0
H829 H 0.55747 0.58901 0.82067 0.0
H830 H 0.57319 0.56522 0.83307 0.0
H831 H 0.58063 0.58874 0.87058 0.0
H832 H 0.57498 0.56713 0.97161 0.0
H833 H 0.56728 0.5436 0.93425 0.0
H834 H 0.54789 0.55293 0.99091 0.0
H835 H 0.47134 0.57269 0.8855 0.0
H836 H 0.47011 0.54125 0.82403 0.0
H837 H 0.54349 0.53487 0.84242 0.0
C838 C 0.54863 0.60723 0.95972 0.0
C839 C 0.53527 0.62319 0.98388 0.0
C840 C 0.51102 0.62212 0.97862 0.0
C841 C 0.50037 0.60543 0.95005 0.0
C842 C 0.51413 0.58976 0.92791 0.0
C843 C 0.53773 0.59052 0.93296 0.0
C844 C 0.54883 0.57179 0.90636 0.0
C845 C 0.56603 0.57914 0.8546 0.0
C846 C 0.56042 0.55805 0.95361 0.0
C847 C 0.52785 0.56041 0.88495 0.0
C848 C 0.50794 0.57097 0.89704 0.0
C849 C 0.48679 0.56409 0.87671 0.0
C850 C 0.4862 0.54621 0.84208 0.0
C851 C 0.50659 0.53541 0.82909 0.0
C852 C 0.52743 0.54241 0.85232 0.0
H853 H 0.8953 0.4578 0.00906 0.0
H854 H 0.89838 0.3899 0.99043 0.0
H855 H 0.93423 0.39596 0.92591 0.0
H856 H 0.91298 0.47434 0.86363 0.0
H857 H 0.9295 0.49739 0.8836 0.0
H858 H 0.90531 0.48715 0.93068 0.0
H859 H 0.93175 0.48379 0.01933 0.0
H860 H 0.95608 0.4939 0.97221 0.0
H861 H 0.95732 0.46861 0.01291 0.0
H862 H 0.96757 0.41046 0.85554 0.0
H863 H 0.99564 0.43175 0.78816 0.0
H864 H 0.97067 0.48958 0.85996 0.0
C865 C 0.9036 0.44421 0.99148 0.0
C866 C 0.89417 0.42345 0.00359 0.0
C867 C 0.90551 0.40594 0.98099 0.0
C868 C 0.92579 0.40924 0.94464 0.0
C869 C 0.93453 0.43008 0.93283 0.0
C870 C 0.92384 0.44721 0.95619 0.0
C871 C 0.93602 0.46807 0.93583 0.0
C872 C 0.92 0.48258 0.90138 0.0
C873 C 0.94588 0.47924 0.9882 0.0
C874 C 0.95492 0.46014 0.89585 0.0
C875 C 0.95396 0.43822 0.89461 0.0
C876 C 0.96875 0.4276 0.85698 0.0
C877 C 0.98462 0.4398 0.81895 0.0
C878 C 0.98546 0.4623 0.81923 0.0
C879 C 0.97075 0.47241 0.85924 0.0
H880 H 0.09579 0.14513 0.09786 0.0
H881 H 0.16393 0.1594 0.01581 0.0
H882 H 0.1591 0.12872 0.95234 0.0
H883 H 0.09915 0.08712 0.09924 0.0
H884 H 0.06909 0.0833 0.08526 0.0
H885 H 0.07862 0.10569 0.12514 0.0
H886 H 0.06031 0.13146 0.04935 0.0
H887 H 0.05061 0.10918 0.00957 0.0
H888 H 0.06827 0.13035 0.97163 0.0
H889 H 0.1446 0.0982 0.89176 0.0
H890 H 0.12238 0.0711 0.84097 0.0
H891 H 0.06537 0.07527 0.97067 0.0
C892 C 0.10969 0.14172 0.06653 0.0
C893 C 0.13009 0.15464 0.0608 0.0
C894 C 0.14813 0.14965 0.02026 0.0
C895 C 0.14553 0.13226 0.98437 0.0
C896 C 0.12504 0.11984 0.99086 0.0
C897 C 0.10756 0.12428 0.03152 0.0
C898 C 0.08708 0.10889 0.02962 0.0
C899 C 0.08327 0.09545 0.0883 0.0
C900 C 0.06529 0.12068 0.0141 0.0
C901 C 0.09529 0.09551 0.97998 0.0
C902 C 0.11725 0.10191 0.95822 0.0
C903 C 0.12757 0.09283 0.90921 0.0
C904 C 0.11485 0.0773 0.88085 0.0
C905 C 0.09204 0.07099 0.90158 0.0
C906 C 0.08264 0.0798 0.95313 0.0
H907 H 0.37137 0.02743 0.01218 0.0
H908 H 0.32905 0.98046 0.92913 0.0
H909 H 0.36156 0.97431 0.85932 0.0
H910 H 0.40083 0.04963 0.8729 0.0
H911 H 0.42788 0.05411 0.9065 0.0
H912 H 0.40116 0.05522 0.95004 0.0
H913 H 0.41517 0.02683 0.02542 0.0
H914 H 0.44184 0.02552 0.98198 0.0
H915 H 0.42417 0.00168 0.99999 0.0
H916 H 0.39919 0.97092 0.80363 0.0
H917 H 0.4389 0.97285 0.75909 0.0
H918 H 0.45666 0.02432 0.86982 0.0
C919 C 0.36865 0.01617 0.97861 0.0
C920 C 0.34742 0.00427 0.97718 0.0
C921 C 0.34509 0.98946 0.93268 0.0
C922 C 0.36348 0.98595 0.89229 0.0
C923 C 0.38414 0.99761 0.89578 0.0
C924 C 0.38679 0.01268 0.93709 0.0
C925 C 0.41098 0.023 0.93096 0.0
C926 C 0.41016 0.04691 0.91409 0.0
C927 C 0.42379 0.01901 0.98798 0.0
C928 C 0.42158 0.01111 0.88032 0.0
C929 C 0.40573 0.99643 0.86119 0.0
C930 C 0.41162 0.98257 0.81757 0.0
C931 C 0.43423 0.98373 0.7927 0.0
C932 C 0.45072 0.99884 0.81058 0.0
C933 C 0.44425 0.01287 0.85467 0.0
H934 H 0.49244 0.36634 0.00174 0.0
H935 H 0.45268 0.32724 0.88918 0.0
H936 H 0.45229 0.35766 0.81476 0.0
H937 H 0.46369 0.41555 0.96674 0.0
H938 H 0.4897 0.43182 0.97013 0.0
H939 H 0.48576 0.40731 0.01502 0.0
H940 H 0.52419 0.39425 0.96979 0.0
H941 H 0.52828 0.41872 0.92506 0.0
H942 H 0.52842 0.39363 0.89049 0.0
H943 H 0.45721 0.39274 0.75181 0.0
H944 H 0.46859 0.42836 0.70459 0.0
H945 H 0.50602 0.44328 0.85845 0.0
C946 C 0.48377 0.36411 0.96124 0.0
C947 C 0.47279 0.34438 0.95081 0.0
C948 C 0.46117 0.34225 0.89794 0.0
C949 C 0.46086 0.35942 0.85557 0.0
C950 C 0.47198 0.37866 0.86724 0.0
C951 C 0.48317 0.38104 0.91897 0.0
C952 C 0.4941 0.40314 0.92101 0.0
C953 C 0.48263 0.41516 0.9712 0.0
C954 C 0.5203 0.40237 0.92689 0.0
C955 C 0.48828 0.41259 0.86113 0.0
C956 C 0.47504 0.39848 0.83119 0.0
C957 C 0.46748 0.40391 0.77505 0.0
C958 C 0.47389 0.42416 0.74871 0.0
C959 C 0.48807 0.43845 0.77813 0.0
C960 C 0.49517 0.43259 0.8351 0.0
H961 H 0.14476 0.52872 0.99357 0.0
H962 H 0.19944 0.49765 0.89901 0.0
H963 H 0.17265 0.4893 0.82058 0.0
H964 H 0.09833 0.49318 0.96263 0.0
H965 H 0.07804 0.51392 0.95434 0.0
H966 H 0.10159 0.5171 0.00204 0.0
H967 H 0.1147 0.5525 0.94403 0.0
H968 H 0.09116 0.54947 0.89621 0.0
H969 H 0.12031 0.55278 0.86498 0.0
H970 H 0.13853 0.48325 0.75474 0.0
H971 H 0.1017 0.48249 0.70426 0.0
H972 H 0.07082 0.51923 0.84173 0.0
C973 C 0.15106 0.52005 0.95647 0.0
C974 C 0.17401 0.51354 0.95248 0.0
C975 C 0.18184 0.50266 0.90276 0.0
C976 C 0.16675 0.49784 0.85827 0.0
C977 C 0.14407 0.50432 0.86398 0.0
C978 C 0.13642 0.51542 0.91163 0.0
C979 C 0.11154 0.52113 0.9073 0.0
C980 C 0.09649 0.51071 0.95968 0.0
C981 C 0.10931 0.54541 0.90284 0.0
C982 C 0.10617 0.51138 0.8499 0.0
C983 C 0.12502 0.50159 0.82559 0.0
C984 C 0.12376 0.49102 0.77325 0.0
C985 C 0.10277 0.49061 0.74499 0.0
C986 C 0.08345 0.50092 0.76883 0.0
C987 C 0.08532 0.51138 0.82199 0.0
H988 H 0.92999 0.85103 0.35475 0.0
H989 H 0.93576 0.79981 0.48832 0.0
H990 H 0.9423 0.82632 0.56324 0.0
H991 H 0.97475 0.88326 0.4014 0.0
H992 H 0.96137 0.90808 0.38494 0.0
H993 H 0.95447 0.88523 0.344 0.0
H994 H 0.9111 0.88835 0.3728 0.0
H995 H 0.9178 0.91137 0.41348 0.0
H996 H 0.90171 0.88888 0.44978 0.0
H997 H 0.95106 0.85862 0.62127 0.0
H998 H 0.96199 0.89363 0.65745 0.0
H999 H 0.9504 0.92356 0.4849 0.0
C1000 C 0.93191 0.84537 0.40017 0.0
C1001 C 0.93195 0.82337 0.4161 0.0
C1002 C 0.93548 0.8166 0.47544 0.0
C1003 C 0.93915 0.83154 0.51818 0.0
C1004 C 0.93935 0.85315 0.50067 0.0
C1005 C 0.93579 0.86002 0.44302 0.0
C1006 C 0.93862 0.88399 0.43421 0.0
C1007 C 0.95848 0.89051 0.38844 0.0
C1008 C 0.91595 0.89372 0.41655 0.0
C1009 C 0.94456 0.88961 0.49583 0.0
C1010 C 0.94473 0.87164 0.53367 0.0
C1011 C 0.95068 0.87281 0.59221 0.0
C1012 C 0.95675 0.89282 0.61244 0.0
C1013 C 0.95694 0.91145 0.57421 0.0
C1014 C 0.95054 0.90969 0.51527 0.0
H1015 H 0.66878 0.02992 0.44911 0.0
H1016 H 0.67871 0.96399 0.40956 0.0
H1017 H 0.64529 0.95295 0.47629 0.0
H1018 H 0.64791 0.02093 0.60153 0.0
H1019 H 0.62663 0.04092 0.59658 0.0
H1020 H 0.65272 0.04367 0.54986 0.0
H1021 H 0.62863 0.04673 0.45702 0.0
H1022 H 0.60246 0.04399 0.50338 0.0
H1023 H 0.60735 0.02607 0.44512 0.0
H1024 H 0.60985 0.94882 0.54629 0.0
H1025 H 0.57455 0.95234 0.61004 0.0
H1026 H 0.58536 0.021 0.59648 0.0
C1027 C 0.66407 0.01313 0.45378 0.0
C1028 C 0.67703 0.99794 0.42363 0.0
C1029 C 0.66991 0.97612 0.43281 0.0
C1030 C 0.65063 0.9696 0.47039 0.0
C1031 C 0.6382 0.98502 0.49831 0.0
C1032 C 0.64455 0.00636 0.49013 0.0
C1033 C 0.62753 0.01984 0.5229 0.0
C1034 C 0.63941 0.03206 0.57055 0.0
C1035 C 0.6158 0.03505 0.47951 0.0
C1036 C 0.61058 0.00274 0.55059 0.0
C1037 C 0.61721 0.98274 0.53641 0.0
C1038 C 0.60448 0.96442 0.55749 0.0
C1039 C 0.58444 0.96657 0.59379 0.0
C1040 C 0.57704 0.98692 0.60816 0.0
C1041 C 0.5904 0.00521 0.58605 0.0
H1042 H 0.60952 0.62328 0.44049 0.0
H1043 H 0.54937 0.66091 0.47323 0.0
H1044 H 0.53461 0.6343 0.54928 0.0
H1045 H 0.57844 0.57529 0.44278 0.0
H1046 H 0.59951 0.55931 0.47771 0.0
H1047 H 0.60859 0.58329 0.43463 0.0
H1048 H 0.62891 0.5975 0.52452 0.0
H1049 H 0.61995 0.57346 0.56787 0.0
H1050 H 0.61275 0.59898 0.59416 0.0
H1051 H 0.52289 0.60217 0.60994 0.0
H1052 H 0.51477 0.56584 0.65235 0.0
H1053 H 0.58061 0.54656 0.57862 0.0
C1054 C 0.59339 0.62621 0.46391 0.0
C1055 C 0.58095 0.64471 0.45034 0.0
C1056 C 0.55992 0.64755 0.48316 0.0
C1057 C 0.55115 0.6323 0.52652 0.0
C1058 C 0.56338 0.61405 0.53684 0.0
C1059 C 0.58406 0.61086 0.50673 0.0
C1060 C 0.59224 0.58863 0.5217 0.0
C1061 C 0.59484 0.57589 0.46588 0.0
C1062 C 0.61481 0.58971 0.55398 0.0
C1063 C 0.5724 0.57961 0.56296 0.0
C1064 C 0.55622 0.59482 0.57167 0.0
C1065 C 0.53556 0.59022 0.60423 0.0
C1066 C 0.53107 0.56946 0.62779 0.0
C1067 C 0.54707 0.55338 0.61873 0.0
C1068 C 0.56827 0.55862 0.58695 0.0
H1069 H 0.86988 0.44731 0.49913 0.0
H1070 H 0.85368 0.50941 0.42247 0.0
H1071 H 0.88323 0.52607 0.48058 0.0
H1072 H 0.88747 0.46347 0.64433 0.0
H1073 H 0.91097 0.44564 0.64448 0.0
H1074 H 0.8853 0.43899 0.60703 0.0
H1075 H 0.91009 0.43491 0.5102 0.0
H1076 H 0.93576 0.44165 0.54717 0.0
H1077 H 0.92899 0.45674 0.48086 0.0
H1078 H 0.91727 0.53588 0.54084 0.0
H1079 H 0.95395 0.53735 0.59201 0.0
H1080 H 0.95076 0.46857 0.61662 0.0
C1081 C 0.87229 0.46444 0.49437 0.0
C1082 C 0.85912 0.47688 0.45574 0.0
C1083 C 0.86292 0.49934 0.45249 0.0
C1084 C 0.87988 0.50903 0.48513 0.0
C1085 C 0.89316 0.49613 0.52053 0.0
C1086 C 0.88959 0.47429 0.52508 0.0
C1087 C 0.9079 0.4637 0.56009 0.0
C1088 C 0.89727 0.45228 0.61738 0.0
C1089 C 0.92148 0.44836 0.52231 0.0
C1090 C 0.92268 0.48294 0.57325 0.0
C1091 C 0.91361 0.50158 0.55153 0.0
C1092 C 0.92447 0.52138 0.55815 0.0
C1093 C 0.94524 0.52208 0.5872 0.0
C1094 C 0.95515 0.50307 0.60766 0.0
C1095 C 0.9436 0.48333 0.6009 0.0
loop_
_geom_bond_atom_site_label_1
_geom_bond_atom_site_label_2
_geom_bond_distance
_geom_bond_site_symmetry_2
_ccdc_geom_bond_type
C0 C1 1.386 . S
C0 C2 1.397 . S
C0 H24 0.931 . S
C1 C0 1.386 . S
C1 C5 1.397 1_556 S
C2 C0 1.397 . S
C2 C3 1.384 1_556 S
C2 H25 0.930 . S
C3 C2 1.384 1_554 S
C3 C4 1.377 . S
C3 C6 1.481 . S
C4 C3 1.377 . S
C4 C5 1.389 . S
C4 H26 0.929 . S
C5 C1 1.397 1_554 S
C5 C4 1.389 . S
C5 H27 0.931 . S
C6 C3 1.481 . S
C6 C7 1.387 . S
C6 C11 1.390 . S
C7 C6 1.387 . S
C7 C8 1.401 . S
C7 H28 0.930 . S
C8 C7 1.401 . S
C8 C9 1.376 . S
C8 C17 1.511 . S
C9 C8 1.376 . S
C9 C10 1.392 . S
C9 H30 0.931 . S
C10 C9 1.392 . S
C10 C11 1.361 . S
C10 C12 1.500 . S
C11 C6 1.390 . S
C11 C10 1.361 . S
C11 H29 0.931 . S
C12 C10 1.500 . S
C12 C13 1.371 . S
C12 C14 1.365 . S
C13 C12 1.371 . S
C13 C23 1.386 . S
C13 H31 0.931 . S
C14 C12 1.365 . S
C14 C15 1.409 . S
C14 H32 0.929 . S
C15 C14 1.409 . S
C15 C16 1.380 . S
C15 H33 0.930 . S
C16 C15 1.380 . S
C16 C23 1.357 . S
C17 C8 1.511 . S
C17 C18 1.341 . S
C17 C19 1.371 . S
C18 C17 1.341 . S
C18 C22 1.394 . S
C18 H34 0.930 . S
C19 C17 1.371 . S
C19 C20 1.392 . S
C19 H35 0.931 . S
C20 C19 1.392 . S
C20 C21 1.331 . S
C20 H38 0.932 . S
C21 C20 1.331 . S
C21 C22 1.336 . S
C22 C18 1.394 . S
C22 C21 1.336 . S
C22 H37 0.929 . S
C23 C13 1.386 . S
C23 C16 1.357 . S
C23 H36 0.928 . S
H24 C0 0.931 . S
H25 C2 0.930 . S
H26 C4 0.929 . S
H27 C5 0.931 . S
H28 C7 0.930 . S
H29 C11 0.931 . S
H30 C9 0.931 . S
H31 C13 0.931 . S
H32 C14 0.929 . S
H33 C15 0.930 . S
H34 C18 0.930 . S
H35 C19 0.931 . S
H36 C23 0.928 . S
H37 C22 0.929 . S
H38 C20 0.932 . S
C39 C40 1.386 . S
C39 C41 1.397 . S
C39 H63 0.931 . S
C40 C39 1.386 . S
C40 C44 1.397 . S
C41 C39 1.397 . S
C41 C42 1.384 . S
C41 H64 0.930 . S
C42 C41 1.384 . S
C42 C43 1.377 . S
C42 C45 1.481 . S
C43 C42 1.377 . S
C43 C44 1.389 . S
C43 H65 0.929 . S
C44 C40 1.397 . S
C44 C43 1.389 . S
C44 H66 0.931 . S
C45 C42 1.481 . S
C45 C46 1.387 . S
C45 C50 1.390 1_556 S
C46 C45 1.387 . S
C46 C47 1.401 . S
C46 H67 0.930 . S
C47 C46 1.401 . S
C47 C48 1.376 1_556 S
C47 C56 1.511 . S
C48 C47 1.376 1_554 S
C48 C49 1.392 . S
C48 H69 0.931 . S
C49 C48 1.392 . S
C49 C50 1.361 . S
C49 C51 1.500 . S
C50 C45 1.390 1_554 S
C50 C49 1.361 . S
C50 H68 0.931 . S
C51 C49 1.500 . S
C51 C52 1.371 . S
C51 C53 1.365 . S
C52 C51 1.371 . S
C52 C62 1.386 . S
C52 H70 0.931 . S
C53 C51 1.365 . S
C53 C54 1.409 . S
C53 H71 0.929 . S
C54 C53 1.409 . S
C54 C55 1.380 . S
C54 H72 0.930 . S
C55 C54 1.380 . S
C55 C62 1.357 . S
C56 C47 1.511 . S
C56 C57 1.341 . S
C56 C58 1.371 1_556 S
C57 C56 1.341 . S
C57 C61 1.394 . S
C57 H73 0.930 . S
C58 C56 1.371 1_554 S
C58 C59 1.392 . S
C58 H74 0.931 . S
C59 C58 1.392 . S
C59 C60 1.331 1_554 S
C59 H77 0.932 . S
C60 C59 1.331 1_556 S
C60 C61 1.336 . S
C61 C57 1.394 . S
C61 C60 1.336 . S
C61 H76 0.929 . S
C62 C52 1.386 . S
C62 C55 1.357 . S
C62 H75 0.928 . S
H63 C39 0.931 . S
H64 C41 0.930 . S
H65 C43 0.929 . S
H66 C44 0.931 . S
H67 C46 0.930 . S
H68 C50 0.931 . S
H69 C48 0.931 . S
H70 C52 0.931 . S
H71 C53 0.929 . S
H72 C54 0.930 . S
H73 C57 0.930 . S
H74 C58 0.931 . S
H75 C62 0.928 . S
H76 C61 0.929 . S
H77 C59 0.932 . S
C78 C79 1.395 . S
C78 C80 1.397 . S
C78 H102 0.931 . S
C79 C78 1.395 . S
C79 C83 1.388 1_565 S
C80 C78 1.397 . S
C80 C81 1.389 . S
C80 H103 0.930 . S
C81 C80 1.389 . S
C81 C82 1.374 1_565 S
C81 C84 1.481 1_556 S
C82 C81 1.374 1_545 S
C82 C83 1.404 . S
C82 H104 0.913 1_556 S
C83 C79 1.388 1_545 S
C83 C82 1.404 . S
C83 H105 0.931 . S
C84 C81 1.481 1_554 S
C84 C85 1.390 . S
C84 C89 1.389 . S
C85 C84 1.390 . S
C85 C86 1.403 . S
C85 H106 0.930 1_554 S
C86 C85 1.403 . S
C86 C87 1.377 . S
C86 C95 1.514 . S
C87 C86 1.377 . S
C87 C88 1.389 . S
C87 H108 0.934 . S
C88 C87 1.389 . S
C88 C89 1.361 . S
C88 C90 1.497 1_565 S
C89 C84 1.389 . S
C89 C88 1.361 . S
C89 H107 0.931 . S
C90 C88 1.497 1_545 S
C90 C91 1.363 1_545 S
C90 C92 1.375 . S
C91 C90 1.363 1_565 S
C91 C101 1.386 . S
C91 H109 0.931 . S
C92 C90 1.375 . S
C92 C93 1.409 . S
C92 H110 0.929 . S
C93 C92 1.409 . S
C93 C94 1.379 . S
C93 H111 0.930 . S
C94 C93 1.379 . S
C94 C101 1.359 1_545 S
C95 C86 1.514 . S
C95 C96 1.341 . S
C95 C97 1.371 1_565 S
C96 C95 1.341 . S
C96 C100 1.394 1_554 S
C96 H112 0.930 1_554 S
C97 C95 1.371 1_545 S
C97 C98 1.392 . S
C97 H113 0.931 . S
C98 C97 1.392 . S
C98 C99 1.320 1_545 S
C98 H116 0.932 . S
C99 C98 1.320 1_565 S
C99 C100 1.345 1_554 S
C100 C96 1.394 1_556 S
C100 C99 1.345 1_556 S
C100 H115 0.929 . S
C101 C91 1.386 . S
C101 C94 1.359 1_565 S
C101 H114 0.928 . S
H102 C78 0.931 . S
H103 C80 0.930 . S
H104 C82 0.913 1_554 S
H105 C83 0.931 . S
H106 C85 0.930 1_556 S
H107 C89 0.931 . S
H108 C87 0.934 . S
H109 C91 0.931 . S
H110 C92 0.929 . S
H111 C93 0.930 . S
H112 C96 0.930 1_556 S
H113 C97 0.931 . S
H114 C101 0.928 . S
H115 C100 0.929 . S
H116 C98 0.932 . S
C117 C118 1.386 . S
C117 C119 1.397 . S
C117 H141 0.931 . S
C118 C117 1.386 . S
C118 C122 1.397 . S
C119 C117 1.397 . S
C119 C120 1.384 . S
C119 H142 0.930 . S
C120 C119 1.384 . S
C120 C121 1.377 . S
C120 C123 1.481 . S
C121 C120 1.377 . S
C121 C122 1.389 . S
C121 H143 0.929 . S
C122 C118 1.397 . S
C122 C121 1.389 . S
C122 H144 0.931 . S
C123 C120 1.481 . S
C123 C124 1.387 . S
C123 C128 1.390 . S
C124 C123 1.387 . S
C124 C125 1.401 . S
C124 H145 0.930 . S
C125 C124 1.401 . S
C125 C126 1.376 . S
C125 C134 1.511 . S
C126 C125 1.376 . S
C126 C127 1.392 . S
C126 H147 0.931 1_554 S
C127 C126 1.392 . S
C127 C128 1.361 . S
C127 C129 1.500 . S
C128 C123 1.390 . S
C128 C127 1.361 . S
C128 H146 0.931 . S
C129 C127 1.500 . S
C129 C130 1.371 1_554 S
C129 C131 1.365 . S
C130 C129 1.371 1_556 S
C130 C140 1.386 . S
C130 H148 0.931 . S
C131 C129 1.365 . S
C131 C132 1.409 1_554 S
C131 H149 0.929 . S
C132 C131 1.409 1_556 S
C132 C133 1.380 . S
C132 H150 0.930 . S
C133 C132 1.380 . S
C133 C140 1.357 . S
C134 C125 1.511 . S
C134 C135 1.341 . S
C134 C136 1.371 . S
C135 C134 1.341 . S
C135 C139 1.394 . S
C135 H151 0.930 . S
C136 C134 1.371 . S
C136 C137 1.392 1_554 S
C136 H152 0.931 1_554 S
C137 C136 1.392 1_556 S
C137 C138 1.331 1_556 S
C137 H155 0.932 . S
C138 C137 1.331 1_554 S
C138 C139 1.336 . S
C139 C135 1.394 . S
C139 C138 1.336 . S
C139 H154 0.929 . S
C140 C130 1.386 . S
C140 C133 1.357 . S
C140 H153 0.928 . S
H141 C117 0.931 . S
H142 C119 0.930 . S
H143 C121 0.929 . S
H144 C122 0.931 . S
H145 C124 0.930 . S
H146 C128 0.931 . S
H147 C126 0.931 1_556 S
H148 C130 0.931 . S
H149 C131 0.929 . S
H150 C132 0.930 . S
H151 C135 0.930 . S
H152 C136 0.931 1_556 S
H153 C140 0.928 . S
H154 C139 0.929 . S
H155 C137 0.932 . S
C156 C157 1.386 . S
C156 C158 1.397 . S
C156 H180 0.931 . S
C157 C156 1.386 . S
C157 C161 1.397 . S
C158 C156 1.397 . S
C158 C159 1.384 . S
C158 H181 0.930 . S
C159 C158 1.384 . S
C159 C160 1.377 . S
C159 C162 1.481 . S
C160 C159 1.377 . S
C160 C161 1.389 . S
C160 H182 0.929 . S
C161 C157 1.397 . S
C161 C160 1.389 . S
C161 H183 0.931 . S
C162 C159 1.481 . S
C162 C163 1.387 . S
C162 C167 1.390 . S
C163 C162 1.387 . S
C163 C164 1.401 . S
C163 H184 0.930 . S
C164 C163 1.401 . S
C164 C165 1.376 . S
C164 C173 1.511 . S
C165 C164 1.376 . S
C165 C166 1.392 . S
C165 H186 0.931 . S
C166 C165 1.392 . S
C166 C167 1.361 . S
C166 C168 1.500 . S
C167 C162 1.390 . S
C167 C166 1.361 . S
C167 H185 0.931 . S
C168 C166 1.500 . S
C168 C169 1.371 . S
C168 C170 1.365 . S
C169 C168 1.371 . S
C169 C179 1.386 . S
C169 H187 0.931 . S
C170 C168 1.365 . S
C170 C171 1.409 . S
C170 H188 0.929 . S
C171 C170 1.409 . S
C171 C172 1.380 . S
C171 H189 0.930 . S
C172 C171 1.380 . S
C172 C179 1.357 . S
C173 C164 1.511 . S
C173 C174 1.341 . S
C173 C175 1.371 . S
C174 C173 1.341 . S
C174 C178 1.394 . S
C174 H190 0.930 . S
C175 C173 1.371 . S
C175 C176 1.392 . S
C175 H191 0.931 . S
C176 C175 1.392 . S
C176 C177 1.331 . S
C176 H194 0.932 . S
C177 C176 1.331 . S
C177 C178 1.336 . S
C178 C174 1.394 . S
C178 C177 1.336 . S
C178 H193 0.929 . S
C179 C169 1.386 . S
C179 C172 1.357 . S
C179 H192 0.928 . S
H180 C156 0.931 . S
H181 C158 0.930 . S
H182 C160 0.929 . S
H183 C161 0.931 . S
H184 C163 0.930 . S
H185 C167 0.931 . S
H186 C165 0.931 . S
H187 C169 0.931 . S
H188 C170 0.929 . S
H189 C171 0.930 . S
H190 C174 0.930 . S
H191 C175 0.931 . S
H192 C179 0.928 . S
H193 C178 0.929 . S
H194 C176 0.932 . S
C195 C196 1.386 . S
C195 C197 1.397 . S
C195 H219 0.931 . S
C196 C195 1.386 . S
C196 C200 1.397 . S
C197 C195 1.397 . S
C197 C198 1.384 . S
C197 H220 0.930 . S
C198 C197 1.384 . S
C198 C199 1.377 . S
C198 C201 1.481 . S
C199 C198 1.377 . S
C199 C200 1.389 . S
C199 H221 0.929 . S
C200 C196 1.397 . S
C200 C199 1.389 . S
C200 H222 0.931 . S
C201 C198 1.481 . S
C201 C202 1.387 . S
C201 C206 1.390 . S
C202 C201 1.387 . S
C202 C203 1.401 . S
C202 H223 0.930 . S
C203 C202 1.401 . S
C203 C204 1.376 . S
C203 C212 1.511 . S
C204 C203 1.376 . S
C204 C205 1.392 . S
C204 H225 0.931 . S
C205 C204 1.392 . S
C205 C206 1.361 . S
C205 C207 1.500 . S
C206 C201 1.390 . S
C206 C205 1.361 . S
C206 H224 0.931 . S
C207 C205 1.500 . S
C207 C208 1.371 . S
C207 C209 1.365 . S
C208 C207 1.371 . S
C208 C218 1.386 . S
C208 H226 0.931 . S
C209 C207 1.365 . S
C209 C210 1.409 . S
C209 H227 0.929 . S
C210 C209 1.409 . S
C210 C211 1.380 . S
C210 H228 0.930 . S
C211 C210 1.380 . S
C211 C218 1.357 . S
C212 C203 1.511 . S
C212 C213 1.341 . S
C212 C214 1.371 . S
C213 C212 1.341 . S
C213 C217 1.394 . S
C213 H229 0.930 . S
C214 C212 1.371 . S
C214 C215 1.392 . S
C214 H230 0.931 . S
C215 C214 1.392 . S
C215 C216 1.331 . S
C215 H233 0.932 . S
C216 C215 1.331 . S
C216 C217 1.336 . S
C217 C213 1.394 . S
C217 C216 1.336 . S
C217 H232 0.929 . S
C218 C208 1.386 . S
C218 C211 1.357 . S
C218 H231 0.928 . S
H219 C195 0.931 . S
H220 C197 0.930 . S
H221 C199 0.929 . S
H222 C200 0.931 . S
H223 C202 0.930 . S
H224 C206 0.931 . S
H225 C204 0.931 . S
H226 C208 0.931 . S
H227 C209 0.929 . S
H228 C210 0.930 . S
H229 C213 0.930 . S
H230 C214 0.931 . S
H231 C218 0.928 . S
H232 C217 0.929 . S
H233 C215 0.932 . S
C234 C235 1.387 . S
C234 C236 1.397 . S
C234 H258 0.931 . S
C235 C234 1.387 . S
C235 C239 1.396 1_565 S
C236 C234 1.397 . S
C236 C237 1.382 . S
C236 H259 0.930 . S
C237 C236 1.382 . S
C237 C238 1.380 1_565 S
C237 C240 1.480 . S
C238 C237 1.380 1_545 S
C238 C239 1.389 . S
C238 H260 0.929 . S
C239 C235 1.396 1_545 S
C239 C238 1.389 . S
C239 H261 0.931 . S
C240 C237 1.480 . S
C240 C241 1.387 . S
C240 C245 1.392 . S
C241 C240 1.387 . S
C241 C242 1.401 . S
C241 H262 0.930 . S
C242 C241 1.401 . S
C242 C243 1.375 . S
C242 C251 1.511 . S
C243 C242 1.375 . S
C243 C244 1.393 1_565 S
C243 H264 0.934 . S
C244 C243 1.393 1_545 S
C244 C245 1.361 1_545 S
C244 C246 1.502 . S
C245 C240 1.392 . S
C245 C244 1.361 1_565 S
C245 H263 0.931 . S
C246 C244 1.502 . S
C246 C247 1.356 1_545 S
C246 C248 1.379 . S
C247 C246 1.356 1_565 S
C247 C257 1.386 . S
C247 H265 0.931 . S
C248 C246 1.379 . S
C248 C249 1.409 . S
C248 H266 0.929 . S
C249 C248 1.409 . S
C249 C250 1.384 . S
C249 H267 0.930 . S
C250 C249 1.384 . S
C250 C257 1.354 1_545 S
C251 C242 1.511 . S
C251 C252 1.341 . S
C251 C253 1.371 1_565 S
C252 C251 1.341 . S
C252 C256 1.394 . S
C252 H268 0.930 . S
C253 C251 1.371 1_545 S
C253 C254 1.392 . S
C253 H269 0.931 . S
C254 C253 1.392 . S
C254 C255 1.327 1_545 S
C254 H272 0.932 . S
C255 C254 1.327 1_565 S
C255 C256 1.341 . S
C256 C252 1.394 . S
C256 C255 1.341 . S
C256 H271 0.929 . S
C257 C247 1.386 . S
C257 C250 1.354 1_565 S
C257 H270 0.928 . S
H258 C234 0.931 . S
H259 C236 0.930 . S
H260 C238 0.929 . S
H261 C239 0.931 . S
H262 C241 0.930 . S
H263 C245 0.931 . S
H264 C243 0.934 . S
H265 C247 0.931 . S
H266 C248 0.929 . S
H267 C249 0.930 . S
H268 C252 0.930 . S
H269 C253 0.931 . S
H270 C257 0.928 . S
H271 C256 0.929 . S
H272 C254 0.932 . S
C273 C274 1.386 . S
C273 C275 1.397 . S
C273 H297 0.931 . S
C274 C273 1.386 . S
C274 C278 1.397 . S
C275 C273 1.397 . S
C275 C276 1.384 . S
C275 H298 0.930 . S
C276 C275 1.384 . S
C276 C277 1.377 . S
C276 C279 1.481 . S
C277 C276 1.377 . S
C277 C278 1.389 . S
C277 H299 0.929 . S
C278 C274 1.397 . S
C278 C277 1.389 . S
C278 H300 0.931 . S
C279 C276 1.481 . S
C279 C280 1.387 . S
C279 C284 1.390 . S
C280 C279 1.387 . S
C280 C281 1.401 . S
C280 H301 0.930 . S
C281 C280 1.401 . S
C281 C282 1.376 . S
C281 C290 1.511 . S
C282 C281 1.376 . S
C282 C283 1.392 . S
C282 H303 0.931 . S
C283 C282 1.392 . S
C283 C284 1.361 . S
C283 C285 1.500 . S
C284 C279 1.390 . S
C284 C283 1.361 . S
C284 H302 0.931 . S
C285 C283 1.500 . S
C285 C286 1.371 . S
C285 C287 1.365 . S
C286 C285 1.371 . S
C286 C296 1.386 . S
C286 H304 0.931 . S
C287 C285 1.365 . S
C287 C288 1.409 . S
C287 H305 0.929 . S
C288 C287 1.409 . S
C288 C289 1.380 . S
C288 H306 0.930 . S
C289 C288 1.380 . S
C289 C296 1.357 . S
C290 C281 1.511 . S
C290 C291 1.341 . S
C290 C292 1.371 . S
C291 C290 1.341 . S
C291 C295 1.394 . S
C291 H307 0.930 . S
C292 C290 1.371 . S
C292 C293 1.392 . S
C292 H308 0.931 . S
C293 C292 1.392 . S
C293 C294 1.331 . S
C293 H311 0.932 . S
C294 C293 1.331 . S
C294 C295 1.336 . S
C295 C291 1.394 . S
C295 C294 1.336 . S
C295 H310 0.929 . S
C296 C286 1.386 . S
C296 C289 1.357 . S
C296 H309 0.928 . S
H297 C273 0.931 . S
H298 C275 0.930 . S
H299 C277 0.929 . S
H300 C278 0.931 . S
H301 C280 0.930 . S
H302 C284 0.931 . S
H303 C282 0.931 . S
H304 C286 0.931 . S
H305 C287 0.929 . S
H306 C288 0.930 . S
H307 C291 0.930 . S
H308 C292 0.931 . S
H309 C296 0.928 . S
H310 C295 0.929 . S
H311 C293 0.932 . S
C312 O328 1.251 . S
C312 O330 1.254 . S
N313 C314 1.340 . S
N313 C318 1.307 . S
N313 Zn319 2.020 1_655 S
C314 N313 1.340 . S
C314 C315 1.395 . S
C314 H332 0.930 1_655 S
C315 C314 1.395 . S
C315 C316 1.390 . S
C315 H342 0.949 . S
C316 C315 1.390 . S
C316 C317 1.357 . S
C317 C316 1.357 . S
C317 C318 1.370 . S
C317 H343 0.950 . S
C318 N313 1.307 . S
C318 C317 1.370 . S
C318 H336 0.959 . S
Zn319 N313 2.020 1_455 S
Zn319 O328 2.039 . S
Zn319 O334 2.034 . S
Zn319 O338 2.025 1_565 S
Zn319 O340 2.039 1_455 S
C320 O339 1.246 . S
C320 O340 1.229 1_545 S
N321 C322 1.307 . S
N321 C323 1.333 . S
N321 Zn327 2.020 . S
C322 N321 1.307 . S
C322 C326 1.370 . S
C322 H333 0.972 . S
C323 N321 1.333 . S
C323 C324 1.379 . S
C323 H331 0.952 . S
C324 C323 1.379 . S
C324 C325 1.390 . S
C324 H344 0.949 . S
C325 C324 1.390 . S
C325 C326 1.357 . S
C326 C322 1.370 . S
C326 C325 1.357 . S
C326 H345 0.950 . S
Zn327 N321 2.020 . S
Zn327 O330 2.025 1_545 S
Zn327 O335 2.043 . S
Zn327 O337 2.039 . S
Zn327 O339 2.034 1_455 S
O328 C312 1.251 . S
O328 Zn319 2.039 . S
C329 O334 1.246 . S
C329 O335 1.224 1_565 S
O330 C312 1.254 . S
O330 Zn327 2.025 1_565 S
H331 C323 0.952 . S
H332 C314 0.930 1_455 S
H333 C322 0.972 . S
O334 Zn319 2.034 . S
O334 C329 1.246 . S
O335 Zn327 2.043 . S
O335 C329 1.224 1_545 S
H336 C318 0.959 . S
O337 Zn327 2.039 . S
O337 C341 1.251 . S
O338 Zn319 2.025 1_545 S
O338 C341 1.254 . S
O339 C320 1.246 . S
O339 Zn327 2.034 1_655 S
O340 Zn319 2.039 1_655 S
O340 C320 1.229 1_565 S
C341 O337 1.251 . S
C341 O338 1.254 . S
H342 C315 0.949 . S
H343 C317 0.950 . S
H344 C324 0.949 . S
H345 C326 0.950 . S
C346 O362 1.251 1_565 S
C346 O364 1.254 . S
N347 C348 1.333 . S
N347 C352 1.307 . S
N347 Zn353 2.020 . S
C348 N347 1.333 . S
C348 C349 1.379 . S
C348 H366 0.952 . S
C349 C348 1.379 . S
C349 C350 1.390 . S
C349 H376 0.949 . S
C350 C349 1.390 . S
C350 C351 1.357 . S
C351 C350 1.357 . S
C351 C352 1.370 . S
C351 H377 0.950 . S
C352 N347 1.307 . S
C352 C351 1.370 . S
C352 H370 0.948 . S
Zn353 N347 2.020 . S
Zn353 O362 2.039 . S
Zn353 O368 2.034 . S
Zn353 O372 2.025 . S
Zn353 O374 2.024 . S
C354 O373 1.246 1_545 S
C354 O374 1.249 . S
N355 C356 1.307 . S
N355 C357 1.333 . S
N355 Zn361 2.020 . S
C356 N355 1.307 . S
C356 C360 1.370 . S
C356 H367 0.948 . S
C357 N355 1.333 . S
C357 C358 1.379 . S
C357 H365 0.952 . S
C358 C357 1.379 . S
C358 C359 1.390 . S
C358 H378 0.949 . S
C359 C358 1.390 . S
C359 C360 1.357 . S
C360 C356 1.370 . S
C360 C359 1.357 . S
C360 H379 0.950 . S
Zn361 N355 2.020 . S
Zn361 O364 2.025 . S
Zn361 O369 2.024 . S
Zn361 O371 2.039 . S
Zn361 O373 2.034 . S
O362 C346 1.251 1_545 S
O362 Zn353 2.039 . S
C363 O368 1.246 1_565 S
C363 O369 1.249 . S
O364 C346 1.254 . S
O364 Zn361 2.025 . S
H365 C357 0.952 . S
H366 C348 0.952 . S
H367 C356 0.948 . S
O368 Zn353 2.034 . S
O368 C363 1.246 1_545 S
O369 Zn361 2.024 . S
O369 C363 1.249 . S
H370 C352 0.948 . S
O371 Zn361 2.039 . S
O371 C375 1.251 1_565 S
O372 Zn353 2.025 . S
O372 C375 1.254 . S
O373 C354 1.246 1_565 S
O373 Zn361 2.034 . S
O374 Zn353 2.024 . S
O374 C354 1.249 . S
C375 O371 1.251 1_545 S
C375 O372 1.254 . S
H376 C349 0.949 . S
H377 C351 0.950 . S
H378 C358 0.949 . S
H379 C360 0.950 . S
C380 O396 1.251 . S
C380 O398 1.254 . S
N381 C382 1.333 . S
N381 C386 1.307 . S
N381 Zn387 2.020 . S
C382 N381 1.333 . S
C382 C383 1.379 . S
C382 H400 0.952 . S
C383 C382 1.379 . S
C383 C384 1.390 . S
C383 H410 0.949 . S
C384 C383 1.390 . S
C384 C385 1.357 . S
C385 C384 1.357 . S
C385 C386 1.370 . S
C385 H411 0.950 . S
C386 N381 1.307 . S
C386 C385 1.370 . S
C386 H404 0.948 . S
Zn387 N381 2.020 . S
Zn387 O396 2.039 . S
Zn387 O402 2.034 . S
Zn387 O406 2.025 . S
Zn387 O408 2.024 . S
C388 O407 1.246 . S
C388 O408 1.249 . S
N389 C390 1.307 . S
N389 C391 1.333 . S
N389 Zn395 2.020 . S
C390 N389 1.307 . S
C390 C394 1.370 . S
C390 H401 0.948 . S
C391 N389 1.333 . S
C391 C392 1.379 . S
C391 H399 0.952 . S
C392 C391 1.379 . S
C392 C393 1.390 . S
C392 H412 0.949 . S
C393 C392 1.390 . S
C393 C394 1.357 . S
C394 C390 1.370 . S
C394 C393 1.357 . S
C394 H413 0.950 . S
Zn395 N389 2.020 . S
Zn395 O398 2.025 . S
Zn395 O403 2.024 . S
Zn395 O405 2.039 . S
Zn395 O407 2.034 . S
O396 C380 1.251 . S
O396 Zn387 2.039 . S
C397 O402 1.246 . S
C397 O403 1.249 . S
O398 C380 1.254 . S
O398 Zn395 2.025 . S
H399 C391 0.952 . S
H400 C382 0.952 . S
H401 C390 0.948 . S
O402 Zn387 2.034 . S
O402 C397 1.246 . S
O403 Zn395 2.024 . S
O403 C397 1.249 . S
H404 C386 0.948 . S
O405 Zn395 2.039 . S
O405 C409 1.251 . S
O406 Zn387 2.025 . S
O406 C409 1.254 . S
O407 C388 1.246 . S
O407 Zn395 2.034 . S
O408 Zn387 2.024 . S
O408 C388 1.249 . S
C409 O405 1.251 . S
C409 O406 1.254 . S
H410 C383 0.949 . S
H411 C385 0.950 . S
H412 C392 0.949 . S
H413 C394 0.950 . S
C414 O430 1.251 . S
C414 O432 1.254 . S
N415 C416 1.333 . S
N415 C420 1.307 . S
N415 Zn421 2.020 . S
C416 N415 1.333 . S
C416 C417 1.379 . S
C416 H434 0.952 . S
C417 C416 1.379 . S
C417 C418 1.390 . S
C417 H444 0.949 . S
C418 C417 1.390 . S
C418 C419 1.357 . S
C419 C418 1.357 . S
C419 C420 1.370 . S
C419 H445 0.950 . S
C420 N415 1.307 . S
C420 C419 1.370 . S
C420 H438 0.948 . S
Zn421 N415 2.020 . S
Zn421 O430 2.039 . S
Zn421 O436 2.000 1_455 S
Zn421 O440 2.025 1_455 S
Zn421 O442 2.024 . S
C422 O441 1.246 . S
C422 O442 1.249 . S
N423 C424 1.307 . S
N423 C425 1.333 1_455 S
N423 Zn429 2.020 . S
C424 N423 1.307 . S
C424 C428 1.370 1_455 S
C424 H435 0.948 . S
C425 N423 1.333 1_655 S
C425 C426 1.379 . S
C425 H433 0.952 . S
C426 C425 1.379 . S
C426 C427 1.390 . S
C426 H446 0.949 . S
C427 C426 1.390 . S
C427 C428 1.357 . S
C428 C424 1.370 1_655 S
C428 C427 1.357 . S
C428 H447 0.950 1_655 S
Zn429 N423 2.020 . S
Zn429 O432 2.025 . S
Zn429 O437 2.024 1_455 S
Zn429 O439 2.039 1_455 S
Zn429 O441 2.034 . S
O430 C414 1.251 . S
O430 Zn421 2.039 . S
C431 O436 1.277 . S
C431 O437 1.249 . S
O432 C414 1.254 . S
O432 Zn429 2.025 . S
H433 C425 0.952 . S
H434 C416 0.952 . S
H435 C424 0.948 . S
O436 Zn421 2.000 1_655 S
O436 C431 1.277 . S
O437 Zn429 2.024 1_655 S
O437 C431 1.249 . S
H438 C420 0.948 . S
O439 Zn429 2.039 1_655 S
O439 C443 1.251 . S
O440 Zn421 2.025 1_655 S
O440 C443 1.254 . S
O441 C422 1.246 . S
O441 Zn429 2.034 . S
O442 Zn421 2.024 . S
O442 C422 1.249 . S
C443 O439 1.251 . S
C443 O440 1.254 . S
H444 C417 0.949 . S
H445 C419 0.950 . S
H446 C426 0.949 . S
H447 C428 0.950 1_455 S
H448 C460 0.930 . S
H449 C462 0.930 . S
H450 C463 0.930 . S
H451 C467 0.959 . S
H452 C467 0.959 . S
H453 C467 0.961 . S
H454 C468 0.960 . S
H455 C468 0.961 . S
H456 C468 0.959 . S
H457 C471 0.929 . S
H458 C472 0.930 . S
H459 C474 0.930 . S
C460 H448 0.930 . S
C460 C461 1.396 1_565 S
C460 C465 1.399 . S
C461 C460 1.396 1_545 S
C461 C462 1.382 . S
C462 H449 0.930 . S
C462 C461 1.382 . S
C462 C463 1.388 . S
C463 H450 0.930 . S
C463 C462 1.388 . S
C463 C464 1.390 . S
C464 C463 1.390 . S
C464 C465 1.394 1_545 S
C464 C470 1.465 1_545 S
C465 C460 1.399 . S
C465 C464 1.394 1_565 S
C465 C466 1.516 . S
C466 C465 1.516 . S
C466 C467 1.502 . S
C466 C468 1.561 1_565 S
C466 C469 1.526 . S
C467 H451 0.959 . S
C467 H452 0.959 . S
C467 H453 0.961 . S
C467 C466 1.502 . S
C468 H454 0.960 . S
C468 H455 0.961 . S
C468 H456 0.959 . S
C468 C466 1.561 1_545 S
C469 C466 1.526 . S
C469 C470 1.402 . S
C469 C474 1.390 . S
C470 C464 1.465 1_565 S
C470 C469 1.402 . S
C470 C471 1.395 1_565 S
C471 H457 0.929 . S
C471 C470 1.395 1_545 S
C471 C472 1.385 1_545 S
C472 H458 0.930 . S
C472 C471 1.385 1_565 S
C472 C473 1.389 . S
C473 C472 1.389 . S
C473 C474 1.387 . S
C474 H459 0.930 . S
C474 C469 1.390 . S
C474 C473 1.387 . S
H475 C487 0.930 . S
H476 C489 0.930 . S
H477 C490 0.930 . S
H478 C494 0.959 . S
H479 C494 0.959 . S
H480 C494 0.961 . S
H481 C495 0.960 . S
H482 C495 0.961 . S
H483 C495 0.959 . S
H484 C498 0.929 . S
H485 C499 0.931 . S
H486 C501 0.930 . S
C487 H475 0.930 . S
C487 C488 1.399 . S
C487 C492 1.399 . S
C488 C487 1.399 . S
C488 C489 1.376 . S
C489 H476 0.930 . S
C489 C488 1.376 . S
C489 C490 1.388 . S
C490 H477 0.930 . S
C490 C489 1.388 . S
C490 C491 1.390 . S
C491 C490 1.390 . S
C491 C492 1.394 . S
C491 C497 1.465 . S
C492 C487 1.399 . S
C492 C491 1.394 . S
C492 C493 1.516 . S
C493 C492 1.516 . S
C493 C494 1.502 . S
C493 C495 1.561 . S
C493 C496 1.526 . S
C494 H478 0.959 . S
C494 H479 0.959 . S
C494 H480 0.961 . S
C494 C493 1.502 . S
C495 H481 0.960 . S
C495 H482 0.961 . S
C495 H483 0.959 . S
C495 C493 1.561 . S
C496 C493 1.526 . S
C496 C497 1.396 . S
C496 C501 1.390 . S
C497 C491 1.465 . S
C497 C496 1.396 . S
C497 C498 1.399 . S
C498 H484 0.929 . S
C498 C497 1.399 . S
C498 C499 1.385 . S
C499 H485 0.931 . S
C499 C498 1.385 . S
C499 C500 1.389 . S
C500 C499 1.389 . S
C500 C501 1.387 . S
C501 H486 0.930 . S
C501 C496 1.390 . S
C501 C500 1.387 . S
H502 C514 0.930 . S
H503 C516 0.930 . S
H504 C517 0.930 . S
H505 C521 0.959 . S
H506 C521 0.959 . S
H507 C521 0.961 . S
H508 C522 0.960 . S
H509 C522 0.961 . S
H510 C522 0.959 . S
H511 C525 0.929 . S
H512 C526 0.931 . S
H513 C528 0.930 . S
C514 H502 0.930 . S
C514 C515 1.399 . S
C514 C519 1.399 . S
C515 C514 1.399 . S
C515 C516 1.376 . S
C516 H503 0.930 . S
C516 C515 1.376 . S
C516 C517 1.388 . S
C517 H504 0.930 . S
C517 C516 1.388 . S
C517 C518 1.390 . S
C518 C517 1.390 . S
C518 C519 1.394 . S
C518 C524 1.465 . S
C519 C514 1.399 . S
C519 C518 1.394 . S
C519 C520 1.516 . S
C520 C519 1.516 . S
C520 C521 1.502 . S
C520 C522 1.561 . S
C520 C523 1.526 . S
C521 H505 0.959 . S
C521 H506 0.959 . S
C521 H507 0.961 . S
C521 C520 1.502 . S
C522 H508 0.960 . S
C522 H509 0.961 . S
C522 H510 0.959 . S
C522 C520 1.561 . S
C523 C520 1.526 . S
C523 C524 1.396 . S
C523 C528 1.390 . S
C524 C518 1.465 . S
C524 C523 1.396 . S
C524 C525 1.399 . S
C525 H511 0.929 . S
C525 C524 1.399 . S
C525 C526 1.385 . S
C526 H512 0.931 . S
C526 C525 1.385 . S
C526 C527 1.389 . S
C527 C526 1.389 . S
C527 C528 1.387 . S
C528 H513 0.930 . S
C528 C523 1.390 . S
C528 C527 1.387 . S
H529 C541 0.930 . S
H530 C543 0.930 . S
H531 C544 0.930 . S
H532 C548 0.959 . S
H533 C548 0.959 . S
H534 C548 0.961 . S
H535 C549 0.960 . S
H536 C549 0.961 . S
H537 C549 0.959 . S
H538 C552 0.929 . S
H539 C553 0.931 . S
H540 C555 0.930 . S
C541 H529 0.930 . S
C541 C542 1.399 . S
C541 C546 1.399 . S
C542 C541 1.399 . S
C542 C543 1.376 . S
C543 H530 0.930 . S
C543 C542 1.376 . S
C543 C544 1.388 . S
C544 H531 0.930 . S
C544 C543 1.388 . S
C544 C545 1.390 . S
C545 C544 1.390 . S
C545 C546 1.394 . S
C545 C551 1.465 . S
C546 C541 1.399 . S
C546 C545 1.394 . S
C546 C547 1.516 . S
C547 C546 1.516 . S
C547 C548 1.502 . S
C547 C549 1.561 . S
C547 C550 1.526 . S
C548 H532 0.959 . S
C548 H533 0.959 . S
C548 H534 0.961 . S
C548 C547 1.502 . S
C549 H535 0.960 . S
C549 H536 0.961 . S
C549 H537 0.959 . S
C549 C547 1.561 . S
C550 C547 1.526 . S
C550 C551 1.396 . S
C550 C555 1.390 . S
C551 C545 1.465 . S
C551 C550 1.396 . S
C551 C552 1.399 . S
C552 H538 0.929 . S
C552 C551 1.399 . S
C552 C553 1.385 . S
C553 H539 0.931 . S
C553 C552 1.385 . S
C553 C554 1.389 . S
C554 C553 1.389 . S
C554 C555 1.387 . S
C555 H540 0.930 . S
C555 C550 1.390 . S
C555 C554 1.387 . S
H556 C568 0.930 . S
H557 C570 0.930 . S
H558 C571 0.930 . S
H559 C575 0.959 . S
H560 C575 0.959 . S
H561 C575 0.961 . S
H562 C576 0.951 1_565 S
H563 C576 0.945 1_565 S
H564 C576 1.002 . S
H565 C579 0.929 . S
H566 C580 0.931 . S
H567 C582 0.930 . S
C568 H556 0.930 . S
C568 C569 1.399 1_565 S
C568 C573 1.399 . S
C569 C568 1.399 1_545 S
C569 C570 1.376 1_556 S
C570 H557 0.930 . S
C570 C569 1.376 1_554 S
C570 C571 1.388 1_554 S
C571 H558 0.930 . S
C571 C570 1.388 1_556 S
C571 C572 1.390 . S
C572 C571 1.390 . S
C572 C573 1.394 1_545 S
C572 C578 1.465 . S
C573 C568 1.399 . S
C573 C572 1.394 1_565 S
C573 C574 1.516 . S
C574 C573 1.516 . S
C574 C575 1.502 . S
C574 C576 1.545 1_565 S
C574 C577 1.517 1_565 S
C575 H559 0.959 . S
C575 H560 0.959 . S
C575 H561 0.961 . S
C575 C574 1.502 . S
C576 H562 0.951 1_545 S
C576 H563 0.945 1_545 S
C576 H564 1.002 . S
C576 C574 1.545 1_545 S
C577 C574 1.517 1_545 S
C577 C578 1.411 . S
C577 C582 1.386 1_545 S
C578 C572 1.465 . S
C578 C577 1.411 . S
C578 C579 1.399 . S
C579 H565 0.929 . S
C579 C578 1.399 . S
C579 C580 1.385 . S
C580 H566 0.931 . S
C580 C579 1.385 . S
C580 C581 1.389 . S
C581 C580 1.389 . S
C581 C582 1.387 1_545 S
C582 H567 0.930 . S
C582 C577 1.386 1_565 S
C582 C581 1.387 1_565 S
H583 C595 0.930 . S
H584 C597 0.930 . S
H585 C598 0.930 . S
H586 C602 0.959 . S
H587 C602 0.959 . S
H588 C602 0.961 . S
H589 C603 0.960 . S
H590 C603 0.961 . S
H591 C603 0.959 . S
H592 C606 0.929 . S
H593 C607 0.931 . S
H594 C609 0.930 . S
C595 H583 0.930 . S
C595 C596 1.387 1_556 S
C595 C600 1.399 . S
C596 C595 1.387 1_554 S
C596 C597 1.383 . S
C597 H584 0.930 . S
C597 C596 1.383 . S
C597 C598 1.388 . S
C598 H585 0.930 . S
C598 C597 1.388 . S
C598 C599 1.390 1_554 S
C599 C598 1.390 1_556 S
C599 C600 1.394 . S
C599 C605 1.465 . S
C600 C595 1.399 . S
C600 C599 1.394 . S
C600 C601 1.516 . S
C601 C600 1.516 . S
C601 C602 1.502 . S
C601 C603 1.561 . S
C601 C604 1.526 . S
C602 H586 0.959 . S
C602 H587 0.959 . S
C602 H588 0.961 . S
C602 C601 1.502 . S
C603 H589 0.960 . S
C603 H590 0.961 . S
C603 H591 0.959 . S
C603 C601 1.561 . S
C604 C601 1.526 . S
C604 C605 1.396 . S
C604 C609 1.390 . S
C605 C599 1.465 . S
C605 C604 1.396 . S
C605 C606 1.399 . S
C606 H592 0.929 . S
C606 C605 1.399 . S
C606 C607 1.385 . S
C607 H593 0.931 . S
C607 C606 1.385 . S
C607 C608 1.389 . S
C608 C607 1.389 . S
C608 C609 1.387 . S
C609 H594 0.930 . S
C609 C604 1.390 . S
C609 C608 1.387 . S
H610 C622 0.930 . S
H611 C624 0.930 . S
H612 C625 0.930 . S
H613 C629 0.959 . S
H614 C629 0.959 . S
H615 C629 0.961 . S
H616 C630 0.960 . S
H617 C630 0.961 . S
H618 C630 0.959 . S
H619 C633 0.929 . S
H620 C634 0.931 . S
H621 C636 0.930 . S
C622 H610 0.930 . S
C622 C623 1.399 1_556 S
C622 C627 1.399 . S
C623 C622 1.399 1_554 S
C623 C624 1.376 . S
C624 H611 0.930 . S
C624 C623 1.376 . S
C624 C625 1.388 . S
C625 H612 0.930 . S
C625 C624 1.388 . S
C625 C626 1.390 1_554 S
C626 C625 1.390 1_556 S
C626 C627 1.394 . S
C626 C632 1.465 . S
C627 C622 1.399 . S
C627 C626 1.394 . S
C627 C628 1.516 . S
C628 C627 1.516 . S
C628 C629 1.502 . S
C628 C630 1.561 . S
C628 C631 1.526 . S
C629 H613 0.959 . S
C629 H614 0.959 . S
C629 H615 0.961 . S
C629 C628 1.502 . S
C630 H616 0.960 . S
C630 H617 0.961 . S
C630 H618 0.959 . S
C630 C628 1.561 . S
C631 C628 1.526 . S
C631 C632 1.396 . S
C631 C636 1.390 . S
C632 C626 1.465 . S
C632 C631 1.396 . S
C632 C633 1.399 . S
C633 H619 0.929 . S
C633 C632 1.399 . S
C633 C634 1.385 . S
C634 H620 0.931 . S
C634 C633 1.385 . S
C634 C635 1.389 . S
C635 C634 1.389 . S
C635 C636 1.387 . S
C636 H621 0.930 . S
C636 C631 1.390 . S
C636 C635 1.387 . S
H637 C649 0.930 . S
H638 C651 0.930 . S
H639 C652 0.930 . S
H640 C656 0.959 . S
H641 C656 0.959 . S
H642 C656 0.961 . S
H643 C657 0.960 . S
H644 C657 0.961 . S
H645 C657 0.959 . S
H646 C660 0.929 . S
H647 C661 0.931 . S
H648 C663 0.930 . S
C649 H637 0.930 . S
C649 C650 1.399 . S
C649 C654 1.399 . S
C650 C649 1.399 . S
C650 C651 1.376 . S
C651 H638 0.930 . S
C651 C650 1.376 . S
C651 C652 1.388 . S
C652 H639 0.930 . S
C652 C651 1.388 . S
C652 C653 1.390 . S
C653 C652 1.390 . S
C653 C654 1.394 . S
C653 C659 1.465 . S
C654 C649 1.399 . S
C654 C653 1.394 . S
C654 C655 1.516 . S
C655 C654 1.516 . S
C655 C656 1.502 . S
C655 C657 1.561 . S
C655 C658 1.526 . S
C656 H640 0.959 . S
C656 H641 0.959 . S
C656 H642 0.961 . S
C656 C655 1.502 . S
C657 H643 0.960 . S
C657 H644 0.961 . S
C657 H645 0.959 . S
C657 C655 1.561 . S
C658 C655 1.526 . S
C658 C659 1.396 . S
C658 C663 1.390 . S
C659 C653 1.465 . S
C659 C658 1.396 . S
C659 C660 1.399 . S
C660 H646 0.929 . S
C660 C659 1.399 . S
C660 C661 1.385 . S
C661 H647 0.931 . S
C661 C660 1.385 . S
C661 C662 1.389 . S
C662 C661 1.389 . S
C662 C663 1.387 . S
C663 H648 0.930 . S
C663 C658 1.390 . S
C663 C662 1.387 . S
H664 C676 0.930 . S
H665 C678 0.930 . S
H666 C679 0.930 . S
H667 C683 0.959 . S
H668 C683 0.959 . S
H669 C683 0.961 . S
H670 C684 0.960 . S
H671 C684 0.961 . S
H672 C684 0.959 . S
H673 C687 0.929 . S
H674 C688 0.931 . S
H675 C690 0.930 . S
C676 H664 0.930 . S
C676 C677 1.399 . S
C676 C681 1.399 . S
C677 C676 1.399 . S
C677 C678 1.376 . S
C678 H665 0.930 . S
C678 C677 1.376 . S
C678 C679 1.388 . S
C679 H666 0.930 . S
C679 C678 1.388 . S
C679 C680 1.390 . S
C680 C679 1.390 . S
C680 C681 1.394 . S
C680 C686 1.465 . S
C681 C676 1.399 . S
C681 C680 1.394 . S
C681 C682 1.516 . S
C682 C681 1.516 . S
C682 C683 1.502 . S
C682 C684 1.561 . S
C682 C685 1.526 . S
C683 H667 0.959 . S
C683 H668 0.959 . S
C683 H669 0.961 . S
C683 C682 1.502 . S
C684 H670 0.960 . S
C684 H671 0.961 . S
C684 H672 0.959 . S
C684 C682 1.561 . S
C685 C682 1.526 . S
C685 C686 1.396 . S
C685 C690 1.390 . S
C686 C680 1.465 . S
C686 C685 1.396 . S
C686 C687 1.399 . S
C687 H673 0.929 . S
C687 C686 1.399 . S
C687 C688 1.385 . S
C688 H674 0.931 . S
C688 C687 1.385 . S
C688 C689 1.389 . S
C689 C688 1.389 . S
C689 C690 1.387 . S
C690 H675 0.930 . S
C690 C685 1.390 . S
C690 C689 1.387 . S
H691 C703 0.930 . S
H692 C705 0.930 . S
H693 C706 0.930 . S
H694 C710 0.959 . S
H695 C710 0.959 . S
H696 C710 0.961 . S
H697 C711 0.960 . S
H698 C711 0.961 . S
H699 C711 0.959 . S
H700 C714 0.929 . S
H701 C715 0.931 . S
H702 C717 0.930 . S
C703 H691 0.930 . S
C703 C704 1.399 1_545 S
C703 C708 1.399 . S
C704 C703 1.399 1_565 S
C704 C705 1.376 . S
C705 H692 0.930 . S
C705 C704 1.376 . S
C705 C706 1.388 . S
C706 H693 0.930 . S
C706 C705 1.388 . S
C706 C707 1.390 . S
C707 C706 1.390 . S
C707 C708 1.394 1_565 S
C707 C713 1.465 . S
C708 C703 1.399 . S
C708 C707 1.394 1_545 S
C708 C709 1.516 . S
C709 C708 1.516 . S
C709 C710 1.502 . S
C709 C711 1.561 . S
C709 C712 1.526 . S
C710 H694 0.959 . S
C710 H695 0.959 . S
C710 H696 0.961 . S
C710 C709 1.502 . S
C711 H697 0.960 . S
C711 H698 0.961 . S
C711 H699 0.959 . S
C711 C709 1.561 . S
C712 C709 1.526 . S
C712 C713 1.396 1_545 S
C712 C717 1.390 . S
C713 C707 1.465 . S
C713 C712 1.396 1_565 S
C713 C714 1.399 . S
C714 H700 0.929 . S
C714 C713 1.399 . S
C714 C715 1.385 . S
C715 H701 0.931 . S
C715 C714 1.385 . S
C715 C716 1.389 . S
C716 C715 1.389 . S
C716 C717 1.387 1_565 S
C717 H702 0.930 . S
C717 C712 1.390 . S
C717 C716 1.387 1_545 S
H718 C730 0.930 . S
H719 C732 0.930 . S
H720 C733 0.930 . S
H721 C737 0.959 . S
H722 C737 0.959 . S
H723 C737 0.961 . S
H724 C738 0.960 . S
H725 C738 0.961 . S
H726 C738 0.959 . S
H727 C741 0.929 . S
H728 C742 0.931 . S
H729 C744 0.930 . S
C730 H718 0.930 . S
C730 C731 1.399 . S
C730 C735 1.399 . S
C731 C730 1.399 . S
C731 C732 1.376 . S
C732 H719 0.930 . S
C732 C731 1.376 . S
C732 C733 1.388 . S
C733 H720 0.930 . S
C733 C732 1.388 . S
C733 C734 1.390 . S
C734 C733 1.390 . S
C734 C735 1.394 . S
C734 C740 1.465 . S
C735 C730 1.399 . S
C735 C734 1.394 . S
C735 C736 1.516 . S
C736 C735 1.516 . S
C736 C737 1.502 . S
C736 C738 1.561 . S
C736 C739 1.526 . S
C737 H721 0.959 . S
C737 H722 0.959 . S
C737 H723 0.961 . S
C737 C736 1.502 . S
C738 H724 0.960 . S
C738 H725 0.961 . S
C738 H726 0.959 . S
C738 C736 1.561 . S
C739 C736 1.526 . S
C739 C740 1.396 . S
C739 C744 1.390 . S
C740 C734 1.465 . S
C740 C739 1.396 . S
C740 C741 1.399 . S
C741 H727 0.929 . S
C741 C740 1.399 . S
C741 C742 1.385 . S
C742 H728 0.931 . S
C742 C741 1.385 . S
C742 C743 1.389 . S
C743 C742 1.389 . S
C743 C744 1.387 . S
C744 H729 0.930 . S
C744 C739 1.390 . S
C744 C743 1.387 . S
H745 C757 0.930 . S
H746 C759 0.930 . S
H747 C760 0.930 . S
H748 C764 0.959 . S
H749 C764 0.959 . S
H750 C764 0.961 . S
H751 C765 0.960 . S
H752 C765 0.961 . S
H753 C765 0.959 . S
H754 C768 0.929 . S
H755 C769 0.931 . S
H756 C771 0.930 . S
C757 H745 0.930 . S
C757 C758 1.399 . S
C757 C762 1.399 . S
C758 C757 1.399 . S
C758 C759 1.376 . S
C759 H746 0.930 . S
C759 C758 1.376 . S
C759 C760 1.388 . S
C760 H747 0.930 . S
C760 C759 1.388 . S
C760 C761 1.390 . S
C761 C760 1.390 . S
C761 C762 1.394 . S
C761 C767 1.465 . S
C762 C757 1.399 . S
C762 C761 1.394 . S
C762 C763 1.516 . S
C763 C762 1.516 . S
C763 C764 1.502 . S
C763 C765 1.561 . S
C763 C766 1.526 . S
C764 H748 0.959 . S
C764 H749 0.959 . S
C764 H750 0.961 . S
C764 C763 1.502 . S
C765 H751 0.960 . S
C765 H752 0.961 . S
C765 H753 0.959 . S
C765 C763 1.561 . S
C766 C763 1.526 . S
C766 C767 1.396 . S
C766 C771 1.390 . S
C767 C761 1.465 . S
C767 C766 1.396 . S
C767 C768 1.399 . S
C768 H754 0.929 . S
C768 C767 1.399 . S
C768 C769 1.385 . S
C769 H755 0.931 . S
C769 C768 1.385 . S
C769 C770 1.389 . S
C770 C769 1.389 . S
C770 C771 1.387 . S
C771 H756 0.930 . S
C771 C766 1.390 . S
C771 C770 1.387 . S
H772 C784 0.930 . S
H773 C786 0.930 . S
H774 C787 0.930 . S
H775 C791 0.959 . S
H776 C791 0.937 1_455 S
H777 C791 0.961 . S
H778 C792 0.960 . S
H779 C792 0.961 . S
H780 C792 0.959 . S
H781 C795 0.929 . S
H782 C796 0.920 1_455 S
H783 C798 0.930 . S
C784 H772 0.930 . S
C784 C785 1.399 . S
C784 C789 1.399 . S
C785 C784 1.399 . S
C785 C786 1.376 . S
C786 H773 0.930 . S
C786 C785 1.376 . S
C786 C787 1.388 . S
C787 H774 0.930 . S
C787 C786 1.388 . S
C787 C788 1.390 . S
C788 C787 1.390 . S
C788 C789 1.394 . S
C788 C794 1.465 . S
C789 C784 1.399 . S
C789 C788 1.394 . S
C789 C790 1.516 . S
C790 C789 1.516 . S
C790 C791 1.502 . S
C790 C792 1.561 . S
C790 C793 1.526 . S
C791 H775 0.959 . S
C791 H776 0.937 1_655 S
C791 H777 0.961 . S
C791 C790 1.502 . S
C792 H778 0.960 . S
C792 H779 0.961 . S
C792 H780 0.959 . S
C792 C790 1.561 . S
C793 C790 1.526 . S
C793 C794 1.396 . S
C793 C798 1.390 1_655 S
C794 C788 1.465 . S
C794 C793 1.396 . S
C794 C795 1.399 . S
C795 H781 0.929 . S
C795 C794 1.399 . S
C795 C796 1.385 . S
C796 H782 0.920 1_655 S
C796 C795 1.385 . S
C796 C797 1.389 1_655 S
C797 C796 1.389 1_455 S
C797 C798 1.387 . S
C798 H783 0.930 . S
C798 C793 1.390 1_455 S
C798 C797 1.387 . S
H799 C811 0.930 . S
H800 C813 0.930 . S
H801 C814 0.930 . S
H802 C818 0.959 . S
H803 C818 0.959 . S
H804 C818 0.961 . S
H805 C819 0.960 . S
H806 C819 0.961 . S
H807 C819 0.959 . S
H808 C822 0.929 . S
H809 C823 0.931 . S
H810 C825 0.930 . S
C811 H799 0.930 . S
C811 C812 1.399 1_545 S
C811 C816 1.399 . S
C812 C811 1.399 1_565 S
C812 C813 1.376 . S
C813 H800 0.930 . S
C813 C812 1.376 . S
C813 C814 1.388 . S
C814 H801 0.930 . S
C814 C813 1.388 . S
C814 C815 1.390 . S
C815 C814 1.390 . S
C815 C816 1.394 1_565 S
C815 C821 1.465 . S
C816 C811 1.399 . S
C816 C815 1.394 1_545 S
C816 C817 1.516 . S
C817 C816 1.516 . S
C817 C818 1.502 . S
C817 C819 1.561 . S
C817 C820 1.526 . S
C818 H802 0.959 . S
C818 H803 0.959 . S
C818 H804 0.961 . S
C818 C817 1.502 . S
C819 H805 0.960 . S
C819 H806 0.961 . S
C819 H807 0.959 . S
C819 C817 1.561 . S
C820 C817 1.526 . S
C820 C821 1.396 1_545 S
C820 C825 1.390 . S
C821 C815 1.465 . S
C821 C820 1.396 1_565 S
C821 C822 1.399 . S
C822 H808 0.929 . S
C822 C821 1.399 . S
C822 C823 1.385 . S
C823 H809 0.931 . S
C823 C822 1.385 . S
C823 C824 1.389 1_565 S
C824 C823 1.389 1_545 S
C824 C825 1.387 . S
C825 H810 0.930 . S
C825 C820 1.390 . S
C825 C824 1.387 . S
H826 C838 0.930 . S
H827 C840 0.930 . S
H828 C841 0.930 . S
H829 C845 0.959 . S
H830 C845 0.959 . S
H831 C845 0.961 . S
H832 C846 0.960 . S
H833 C846 0.961 . S
H834 C846 0.959 . S
H835 C849 0.929 . S
H836 C850 0.931 . S
H837 C852 0.930 . S
C838 H826 0.930 . S
C838 C839 1.399 . S
C838 C843 1.399 . S
C839 C838 1.399 . S
C839 C840 1.376 . S
C840 H827 0.930 . S
C840 C839 1.376 . S
C840 C841 1.388 . S
C841 H828 0.930 . S
C841 C840 1.388 . S
C841 C842 1.390 . S
C842 C841 1.390 . S
C842 C843 1.394 . S
C842 C848 1.465 . S
C843 C838 1.399 . S
C843 C842 1.394 . S
C843 C844 1.516 . S
C844 C843 1.516 . S
C844 C845 1.502 . S
C844 C846 1.561 . S
C844 C847 1.526 . S
C845 H829 0.959 . S
C845 H830 0.959 . S
C845 H831 0.961 . S
C845 C844 1.502 . S
C846 H832 0.960 . S
C846 H833 0.961 . S
C846 H834 0.959 . S
C846 C844 1.561 . S
C847 C844 1.526 . S
C847 C848 1.396 . S
C847 C852 1.390 . S
C848 C842 1.465 . S
C848 C847 1.396 . S
C848 C849 1.399 . S
C849 H835 0.929 . S
C849 C848 1.399 . S
C849 C850 1.385 . S
C850 H836 0.931 . S
C850 C849 1.385 . S
C850 C851 1.389 . S
C851 C850 1.389 . S
C851 C852 1.387 . S
C852 H837 0.930 . S
C852 C847 1.390 . S
C852 C851 1.387 . S
H853 C865 0.930 . S
H854 C867 0.930 . S
H855 C868 0.930 . S
H856 C872 0.959 . S
H857 C872 0.959 . S
H858 C872 0.961 . S
H859 C873 0.960 . S
H860 C873 0.961 . S
H861 C873 0.959 . S
H862 C876 0.929 . S
H863 C877 0.931 . S
H864 C879 0.930 . S
C865 H853 0.930 . S
C865 C866 1.399 . S
C865 C870 1.399 . S
C866 C865 1.399 . S
C866 C867 1.376 . S
C867 H854 0.930 . S
C867 C866 1.376 . S
C867 C868 1.388 . S
C868 H855 0.930 . S
C868 C867 1.388 . S
C868 C869 1.390 . S
C869 C868 1.390 . S
C869 C870 1.394 . S
C869 C875 1.465 . S
C870 C865 1.399 . S
C870 C869 1.394 . S
C870 C871 1.516 . S
C871 C870 1.516 . S
C871 C872 1.502 . S
C871 C873 1.561 . S
C871 C874 1.526 . S
C872 H856 0.959 . S
C872 H857 0.959 . S
C872 H858 0.961 . S
C872 C871 1.502 . S
C873 H859 0.960 . S
C873 H860 0.961 . S
C873 H861 0.959 . S
C873 C871 1.561 . S
C874 C871 1.526 . S
C874 C875 1.396 . S
C874 C879 1.390 . S
C875 C869 1.465 . S
C875 C874 1.396 . S
C875 C876 1.399 . S
C876 H862 0.929 . S
C876 C875 1.399 . S
C876 C877 1.385 . S
C877 H863 0.931 . S
C877 C876 1.385 . S
C877 C878 1.389 . S
C878 C877 1.389 . S
C878 C879 1.387 . S
C879 H864 0.930 . S
C879 C874 1.390 . S
C879 C878 1.387 . S
H880 C892 0.930 . S
H881 C894 0.930 . S
H882 C895 0.930 . S
H883 C899 0.959 . S
H884 C899 0.959 . S
H885 C899 0.961 . S
H886 C900 0.960 . S
H887 C900 0.961 . S
H888 C900 0.959 . S
H889 C903 0.932 . S
H890 C904 0.931 . S
H891 C906 0.930 . S
C892 H880 0.930 . S
C892 C893 1.399 . S
C892 C897 1.399 . S
C893 C892 1.399 . S
C893 C894 1.376 . S
C894 H881 0.930 . S
C894 C893 1.376 . S
C894 C895 1.388 . S
C895 H882 0.930 . S
C895 C894 1.388 . S
C895 C896 1.390 . S
C896 C895 1.390 . S
C896 C897 1.394 . S
C896 C902 1.465 . S
C897 C892 1.399 . S
C897 C896 1.394 . S
C897 C898 1.516 . S
C898 C897 1.516 . S
C898 C899 1.502 . S
C898 C900 1.561 1_554 S
C898 C901 1.526 . S
C899 H883 0.959 . S
C899 H884 0.959 . S
C899 H885 0.961 . S
C899 C898 1.502 . S
C900 H886 0.960 . S
C900 H887 0.961 . S
C900 H888 0.959 . S
C900 C898 1.561 1_556 S
C901 C898 1.526 . S
C901 C902 1.396 . S
C901 C906 1.390 1_554 S
C902 C896 1.465 . S
C902 C901 1.396 . S
C902 C903 1.405 . S
C903 H889 0.932 . S
C903 C902 1.405 . S
C903 C904 1.377 1_554 S
C904 H890 0.931 . S
C904 C903 1.377 1_556 S
C904 C905 1.389 . S
C905 C904 1.389 . S
C905 C906 1.387 . S
C906 H891 0.930 . S
C906 C901 1.390 1_556 S
C906 C905 1.387 . S
H907 C919 0.930 . S
H908 C921 0.930 . S
H909 C922 0.930 . S
H910 C926 0.959 . S
H911 C926 0.959 . S
H912 C926 0.961 1_554 S
H913 C927 0.960 . S
H914 C927 0.961 . S
H915 C927 0.959 1_565 S
H916 C930 0.929 . S
H917 C931 0.931 . S
H918 C933 0.930 . S
C919 H907 0.930 . S
C919 C920 1.399 1_545 S
C919 C924 1.399 1_554 S
C920 C919 1.399 1_565 S
C920 C921 1.376 1_554 S
C921 H908 0.930 . S
C921 C920 1.376 1_556 S
C921 C922 1.388 . S
C922 H909 0.930 . S
C922 C921 1.388 . S
C922 C923 1.390 . S
C923 C922 1.390 . S
C923 C924 1.394 1_565 S
C923 C929 1.465 . S
C924 C919 1.399 1_556 S
C924 C923 1.394 1_545 S
C924 C925 1.516 . S
C925 C924 1.516 . S
C925 C926 1.502 . S
C925 C927 1.561 1_556 S
C925 C928 1.526 . S
C926 H910 0.959 . S
C926 H911 0.959 . S
C926 H912 0.961 1_556 S
C926 C925 1.502 . S
C927 H913 0.960 . S
C927 H914 0.961 . S
C927 H915 0.959 1_545 S
C927 C925 1.561 1_554 S
C928 C925 1.526 . S
C928 C929 1.396 1_545 S
C928 C933 1.390 . S
C929 C923 1.465 . S
C929 C928 1.396 1_565 S
C929 C930 1.399 . S
C930 H916 0.929 . S
C930 C929 1.399 . S
C930 C931 1.385 . S
C931 H917 0.931 . S
C931 C930 1.385 . S
C931 C932 1.389 1_565 S
C932 C931 1.389 1_545 S
C932 C933 1.387 . S
C933 H918 0.930 . S
C933 C928 1.390 . S
C933 C932 1.387 . S
H934 C946 0.930 . S
H935 C948 0.930 . S
H936 C949 0.930 . S
H937 C953 0.959 . S
H938 C953 0.959 . S
H939 C953 0.961 1_554 S
H940 C954 0.960 . S
H941 C954 0.961 . S
H942 C954 0.959 . S
H943 C957 0.929 . S
H944 C958 0.931 . S
H945 C960 0.930 . S
C946 H934 0.930 . S
C946 C947 1.399 . S
C946 C951 1.399 1_554 S
C947 C946 1.399 . S
C947 C948 1.376 1_554 S
C948 H935 0.930 . S
C948 C947 1.376 1_556 S
C948 C949 1.388 . S
C949 H936 0.930 . S
C949 C948 1.388 . S
C949 C950 1.390 . S
C950 C949 1.390 . S
C950 C951 1.394 . S
C950 C956 1.465 . S
C951 C946 1.399 1_556 S
C951 C950 1.394 . S
C951 C952 1.516 . S
C952 C951 1.516 . S
C952 C953 1.502 . S
C952 C954 1.561 1_556 S
C952 C955 1.526 . S
C953 H937 0.959 . S
C953 H938 0.959 . S
C953 H939 0.961 1_556 S
C953 C952 1.502 . S
C954 H940 0.960 . S
C954 H941 0.961 . S
C954 H942 0.959 . S
C954 C952 1.561 1_554 S
C955 C952 1.526 . S
C955 C956 1.396 . S
C955 C960 1.390 . S
C956 C950 1.465 . S
C956 C955 1.396 . S
C956 C957 1.399 . S
C957 H943 0.929 . S
C957 C956 1.399 . S
C957 C958 1.385 . S
C958 H944 0.931 . S
C958 C957 1.385 . S
C958 C959 1.389 . S
C959 C958 1.389 . S
C959 C960 1.387 . S
C960 H945 0.930 . S
C960 C955 1.390 . S
C960 C959 1.387 . S
H961 C973 0.930 1_554 S
H962 C975 0.930 . S
H963 C976 0.930 . S
H964 C980 0.959 1_554 S
H965 C980 0.959 . S
H966 C980 0.961 1_554 S
H967 C981 0.960 . S
H968 C981 0.961 . S
H969 C981 0.959 . S
H970 C984 0.929 . S
H971 C985 0.931 . S
H972 C987 0.930 . S
C973 H961 0.930 1_556 S
C973 C974 1.399 . S
C973 C978 1.399 . S
C974 C973 1.399 . S
C974 C975 1.376 . S
C975 H962 0.930 . S
C975 C974 1.376 . S
C975 C976 1.388 . S
C976 H963 0.930 . S
C976 C975 1.388 . S
C976 C977 1.390 . S
C977 C976 1.390 . S
C977 C978 1.394 . S
C977 C983 1.465 . S
C978 C973 1.399 . S
C978 C977 1.394 . S
C978 C979 1.516 . S
C979 C978 1.516 . S
C979 C980 1.502 . S
C979 C981 1.561 . S
C979 C982 1.526 . S
C980 H964 0.959 1_556 S
C980 H965 0.959 . S
C980 H966 0.961 1_556 S
C980 C979 1.502 . S
C981 H967 0.960 . S
C981 H968 0.961 . S
C981 H969 0.959 . S
C981 C979 1.561 . S
C982 C979 1.526 . S
C982 C983 1.396 . S
C982 C987 1.390 . S
C983 C977 1.465 . S
C983 C982 1.396 . S
C983 C984 1.399 . S
C984 H970 0.929 . S
C984 C983 1.399 . S
C984 C985 1.385 . S
C985 H971 0.931 . S
C985 C984 1.385 . S
C985 C986 1.389 . S
C986 C985 1.389 . S
C986 C987 1.387 . S
C987 H972 0.930 . S
C987 C982 1.390 . S
C987 C986 1.387 . S
H988 C1000 0.930 . S
H989 C1002 0.930 . S
H990 C1003 0.930 . S
H991 C1007 0.959 . S
H992 C1007 0.959 . S
H993 C1007 0.961 . S
H994 C1008 0.960 . S
H995 C1008 0.961 . S
H996 C1008 0.959 . S
H997 C1011 0.929 . S
H998 C1012 0.931 . S
H999 C1014 0.930 . S
C1000 H988 0.930 . S
C1000 C1001 1.399 . S
C1000 C1005 1.399 . S
C1001 C1000 1.399 . S
C1001 C1002 1.376 . S
C1002 H989 0.930 . S
C1002 C1001 1.376 . S
C1002 C1003 1.388 . S
C1003 H990 0.930 . S
C1003 C1002 1.388 . S
C1003 C1004 1.390 . S
C1004 C1003 1.390 . S
C1004 C1005 1.394 . S
C1004 C1010 1.465 . S
C1005 C1000 1.399 . S
C1005 C1004 1.394 . S
C1005 C1006 1.516 . S
C1006 C1005 1.516 . S
C1006 C1007 1.502 . S
C1006 C1008 1.561 . S
C1006 C1009 1.526 . S
C1007 H991 0.959 . S
C1007 H992 0.959 . S
C1007 H993 0.961 . S
C1007 C1006 1.502 . S
C1008 H994 0.960 . S
C1008 H995 0.961 . S
C1008 H996 0.959 . S
C1008 C1006 1.561 . S
C1009 C1006 1.526 . S
C1009 C1010 1.396 . S
C1009 C1014 1.390 . S
C1010 C1004 1.465 . S
C1010 C1009 1.396 . S
C1010 C1011 1.399 . S
C1011 H997 0.929 . S
C1011 C1010 1.399 . S
C1011 C1012 1.385 . S
C1012 H998 0.931 . S
C1012 C1011 1.385 . S
C1012 C1013 1.389 . S
C1013 C1012 1.389 . S
C1013 C1014 1.387 . S
C1014 H999 0.930 . S
C1014 C1009 1.390 . S
C1014 C1013 1.387 . S
H1015 C1027 0.930 . S
H1016 C1029 0.930 . S
H1017 C1030 0.930 . S
H1018 C1034 0.959 . S
H1019 C1034 0.959 . S
H1020 C1034 0.961 . S
H1021 C1035 0.960 . S
H1022 C1035 0.961 . S
H1023 C1035 0.959 . S
H1024 C1038 0.929 . S
H1025 C1039 0.931 . S
H1026 C1041 0.930 . S
C1027 H1015 0.930 . S
C1027 C1028 1.399 1_545 S
C1027 C1032 1.399 . S
C1028 C1027 1.399 1_565 S
C1028 C1029 1.376 . S
C1029 H1016 0.930 . S
C1029 C1028 1.376 . S
C1029 C1030 1.388 . S
C1030 H1017 0.930 . S
C1030 C1029 1.388 . S
C1030 C1031 1.390 . S
C1031 C1030 1.390 . S
C1031 C1032 1.394 1_565 S
C1031 C1037 1.465 . S
C1032 C1027 1.399 . S
C1032 C1031 1.394 1_545 S
C1032 C1033 1.516 . S
C1033 C1032 1.516 . S
C1033 C1034 1.502 . S
C1033 C1035 1.561 . S
C1033 C1036 1.526 . S
C1034 H1018 0.959 . S
C1034 H1019 0.959 . S
C1034 H1020 0.961 . S
C1034 C1033 1.502 . S
C1035 H1021 0.960 . S
C1035 H1022 0.961 . S
C1035 H1023 0.959 . S
C1035 C1033 1.561 . S
C1036 C1033 1.526 . S
C1036 C1037 1.396 1_545 S
C1036 C1041 1.390 . S
C1037 C1031 1.465 . S
C1037 C1036 1.396 1_565 S
C1037 C1038 1.399 . S
C1038 H1024 0.929 . S
C1038 C1037 1.399 . S
C1038 C1039 1.385 . S
C1039 H1025 0.931 . S
C1039 C1038 1.385 . S
C1039 C1040 1.389 . S
C1040 C1039 1.389 . S
C1040 C1041 1.387 1_565 S
C1041 H1026 0.930 . S
C1041 C1036 1.390 . S
C1041 C1040 1.387 1_545 S
H1042 C1054 0.930 . S
H1043 C1056 0.930 . S
H1044 C1057 0.930 . S
H1045 C1061 0.959 . S
H1046 C1061 0.959 . S
H1047 C1061 0.961 . S
H1048 C1062 0.960 . S
H1049 C1062 0.961 . S
H1050 C1062 0.959 . S
H1051 C1065 0.929 . S
H1052 C1066 0.931 . S
H1053 C1068 0.930 . S
C1054 H1042 0.930 . S
C1054 C1055 1.399 . S
C1054 C1059 1.399 . S
C1055 C1054 1.399 . S
C1055 C1056 1.376 . S
C1056 H1043 0.930 . S
C1056 C1055 1.376 . S
C1056 C1057 1.388 . S
C1057 H1044 0.930 . S
C1057 C1056 1.388 . S
C1057 C1058 1.390 . S
C1058 C1057 1.390 . S
C1058 C1059 1.394 . S
C1058 C1064 1.465 . S
C1059 C1054 1.399 . S
C1059 C1058 1.394 . S
C1059 C1060 1.516 . S
C1060 C1059 1.516 . S
C1060 C1061 1.502 . S
C1060 C1062 1.561 . S
C1060 C1063 1.526 . S
C1061 H1045 0.959 . S
C1061 H1046 0.959 . S
C1061 H1047 0.961 . S
C1061 C1060 1.502 . S
C1062 H1048 0.960 . S
C1062 H1049 0.961 . S
C1062 H1050 0.959 . S
C1062 C1060 1.561 . S
C1063 C1060 1.526 . S
C1063 C1064 1.396 . S
C1063 C1068 1.390 . S
C1064 C1058 1.465 . S
C1064 C1063 1.396 . S
C1064 C1065 1.399 . S
C1065 H1051 0.929 . S
C1065 C1064 1.399 . S
C1065 C1066 1.385 . S
C1066 H1052 0.931 . S
C1066 C1065 1.385 . S
C1066 C1067 1.389 . S
C1067 C1066 1.389 . S
C1067 C1068 1.387 . S
C1068 H1053 0.930 . S
C1068 C1063 1.390 . S
C1068 C1067 1.387 . S
H1069 C1081 0.930 . S
H1070 C1083 0.930 . S
H1071 C1084 0.930 . S
H1072 C1088 0.959 . S
H1073 C1088 0.959 . S
H1074 C1088 0.961 . S
H1075 C1089 0.960 . S
H1076 C1089 0.961 . S
H1077 C1089 0.959 . S
H1078 C1092 0.929 . S
H1079 C1093 0.931 . S
H1080 C1095 0.930 . S
C1081 H1069 0.930 . S
C1081 C1082 1.399 . S
C1081 C1086 1.399 . S
C1082 C1081 1.399 . S
C1082 C1083 1.376 . S
C1083 H1070 0.930 . S
C1083 C1082 1.376 . S
C1083 C1084 1.388 . S
C1084 H1071 0.930 . S
C1084 C1083 1.388 . S
C1084 C1085 1.390 . S
C1085 C1084 1.390 . S
C1085 C1086 1.394 . S
C1085 C1091 1.465 . S
C1086 C1081 1.399 . S
C1086 C1085 1.394 . S
C1086 C1087 1.516 . S
C1087 C1086 1.516 . S
C1087 C1088 1.502 . S
C1087 C1089 1.561 . S
C1087 C1090 1.526 . S
C1088 H1072 0.959 . S
C1088 H1073 0.959 . S
C1088 H1074 0.961 . S
C1088 C1087 1.502 . S
C1089 H1075 0.960 . S
C1089 H1076 0.961 . S
C1089 H1077 0.959 . S
C1089 C1087 1.561 . S
C1090 C1087 1.526 . S
C1090 C1091 1.396 . S
C1090 C1095 1.390 . S
C1091 C1085 1.465 . S
C1091 C1090 1.396 . S
C1091 C1092 1.399 . S
C1092 H1078 0.929 . S
C1092 C1091 1.399 . S
C1092 C1093 1.385 . S
C1093 H1079 0.931 . S
C1093 C1092 1.385 . S
C1093 C1094 1.389 . S
C1094 C1093 1.389 . S
C1094 C1095 1.387 . S
C1095 H1080 0.930 . S
C1095 C1090 1.390 . S
C1095 C1094 1.387 . S
C461 C255 1.891 1_545 S
C473 C329 1.873 . S
C500 C350 1.731 . S
C488 C294 1.697 . S
C527 C384 1.529 . S
C515 C177 1.586 . S
C554 C418 1.725 . S
C542 C216 1.634 . S
C581 C320 1.884 . S
C569 C99 1.881 1_546 S
C596 C138 1.685 . S
C608 C359 1.737 . S
C623 C21 1.580 . S
C635 C393 1.527 . S
C650 C60 1.676 . S
C662 C427 1.726 . S
C689 C341 0.525 . S
C677 C196 0.822 . S
C716 C346 0.496 . S
C704 C235 0.493 . S
C743 C380 0.663 . S
C731 C289 0.521 . S
C758 C157 0.258 . S
C770 C414 0.250 . S
C785 C40 0.687 . S
C797 C312 0.664 . S
C824 C375 0.375 . S
C812 C79 0.545 . S
C851 C409 0.684 . S
C839 C133 0.522 . S
C866 C1 0.445 . S
C878 C443 0.138 . S
C893 C211 1.683 . S
C905 C325 1.756 . S
C920 C250 2.038 1_565 S
C932 C354 2.129 . S
C959 C388 1.877 . S
C947 C274 1.802 . S
C986 C422 1.928 . S
C974 C172 1.843 1_556 S
C1001 C55 1.686 . S
C1013 C316 1.745 . S
C1040 C363 2.143 . S
C1028 C94 1.999 1_565 S
C1067 C397 1.890 . S
C1055 C118 1.756 . S
C1082 C16 1.770 . S
C1094 C431 1.943 . S
