# Generated by pormake.
# Topology ptr, (4,4)-cn, num edge types: 1
# Building blocks:
#     Node 0, Type 0, BuildingBlock: NAHDIM_clean_sbu_0, # of connection points: 4
#     Node 1, Type 0, BuildingBlock: NAHDIM_clean_sbu_0, # of connection points: 4
#     Node 2, Type 0, BuildingBlock: NAHDIM_clean_sbu_0, # of connection points: 4
#     Node 3, Type 0, BuildingBlock: NAHDIM_clean_sbu_0, # of connection points: 4
#     Node 4, Type 0, BuildingBlock: NAHDIM_clean_sbu_0, # of connection points: 4
#     Node 5, Type 0, BuildingBlock: NAHDIM_clean_sbu_0, # of connection points: 4
#     Node 6, Type 0, BuildingBlock: NAHDIM_clean_sbu_0, # of connection points: 4
#     Node 7, Type 0, BuildingBlock: NAHDIM_clean_sbu_0, # of connection points: 4
#     Node 8, Type 0, BuildingBlock: NAHDIM_clean_sbu_0, # of connection points: 4
#     Node 9, Type 0, BuildingBlock: NAHDIM_clean_sbu_0, # of connection points: 4
#     Node 10, Type 0, BuildingBlock: NAHDIM_clean_sbu_0, # of connection points: 4
#     Node 11, Type 0, BuildingBlock: NAHDIM_clean_sbu_0, # of connection points: 4
#     Node 12, Type 0, BuildingBlock: NAHDIM_clean_sbu_0, # of connection points: 4
#     Node 13, Type 0, BuildingBlock: NAHDIM_clean_sbu_0, # of connection points: 4
#     Node 14, Type 0, BuildingBlock: NAHDIM_clean_sbu_0, # of connection points: 4
#     Node 15, Type 0, BuildingBlock: NAHDIM_clean_sbu_0, # of connection points: 4
#     Node 16, Type 0, BuildingBlock: NAHDIM_clean_sbu_0, # of connection points: 4
#     Node 17, Type 0, BuildingBlock: NAHDIM_clean_sbu_0, # of connection points: 4
#     Node 18, Type 1, BuildingBlock: MIFKUJ_clean_linker_1, # of connection points: 4
#     Node 19, Type 1, BuildingBlock: MIFKUJ_clean_linker_1, # of connection points: 4
#     Node 20, Type 1, BuildingBlock: MIFKUJ_clean_linker_1, # of connection points: 4
#     Node 21, Type 1, BuildingBlock: MIFKUJ_clean_linker_1, # of connection points: 4
#     Node 22, Type 1, BuildingBlock: MIFKUJ_clean_linker_1, # of connection points: 4
#     Node 23, Type 1, BuildingBlock: MIFKUJ_clean_linker_1, # of connection points: 4
#     Node 24, Type 1, BuildingBlock: MIFKUJ_clean_linker_1, # of connection points: 4
#     Node 25, Type 1, BuildingBlock: MIFKUJ_clean_linker_1, # of connection points: 4
#     Node 26, Type 1, BuildingBlock: MIFKUJ_clean_linker_1, # of connection points: 4
#     Node 27, Type 1, BuildingBlock: MIFKUJ_clean_linker_1, # of connection points: 4
#     Node 28, Type 1, BuildingBlock: MIFKUJ_clean_linker_1, # of connection points: 4
#     Node 29, Type 1, BuildingBlock: MIFKUJ_clean_linker_1, # of connection points: 4
#     Node 30, Type 1, BuildingBlock: MIFKUJ_clean_linker_1, # of connection points: 4
#     Node 31, Type 1, BuildingBlock: MIFKUJ_clean_linker_1, # of connection points: 4
#     Node 32, Type 1, BuildingBlock: MIFKUJ_clean_linker_1, # of connection points: 4
#     Node 33, Type 1, BuildingBlock: MIFKUJ_clean_linker_1, # of connection points: 4
#     Node 34, Type 1, BuildingBlock: MIFKUJ_clean_linker_1, # of connection points: 4
#     Node 35, Type 1, BuildingBlock: MIFKUJ_clean_linker_1, # of connection points: 4
#     Edge 36, Type (0, 1), BuildingBlock: UVAHIK_clean_linker_0, # of connection points: 2
#     Edge 37, Type (0, 1), BuildingBlock: UVAHIK_clean_linker_0, # of connection points: 2
#     Edge 38, Type (0, 1), BuildingBlock: UVAHIK_clean_linker_0, # of connection points: 2
#     Edge 39, Type (0, 1), BuildingBlock: UVAHIK_clean_linker_0, # of connection points: 2
#     Edge 40, Type (0, 1), BuildingBlock: UVAHIK_clean_linker_0, # of connection points: 2
#     Edge 41, Type (0, 1), BuildingBlock: UVAHIK_clean_linker_0, # of connection points: 2
#     Edge 42, Type (0, 1), BuildingBlock: UVAHIK_clean_linker_0, # of connection points: 2
#     Edge 43, Type (0, 1), BuildingBlock: UVAHIK_clean_linker_0, # of connection points: 2
#     Edge 44, Type (0, 1), BuildingBlock: UVAHIK_clean_linker_0, # of connection points: 2
#     Edge 45, Type (0, 1), BuildingBlock: UVAHIK_clean_linker_0, # of connection points: 2
#     Edge 46, Type (0, 1), BuildingBlock: UVAHIK_clean_linker_0, # of connection points: 2
#     Edge 47, Type (0, 1), BuildingBlock: UVAHIK_clean_linker_0, # of connection points: 2
#     Edge 48, Type (0, 1), BuildingBlock: UVAHIK_clean_linker_0, # of connection points: 2
#     Edge 49, Type (0, 1), BuildingBlock: UVAHIK_clean_linker_0, # of connection points: 2
#     Edge 50, Type (0, 1), BuildingBlock: UVAHIK_clean_linker_0, # of connection points: 2
#     Edge 51, Type (0, 1), BuildingBlock: UVAHIK_clean_linker_0, # of connection points: 2
#     Edge 52, Type (0, 1), BuildingBlock: UVAHIK_clean_linker_0, # of connection points: 2
#     Edge 53, Type (0, 1), BuildingBlock: UVAHIK_clean_linker_0, # of connection points: 2
#     Edge 54, Type (0, 1), BuildingBlock: UVAHIK_clean_linker_0, # of connection points: 2
#     Edge 55, Type (0, 1), BuildingBlock: UVAHIK_clean_linker_0, # of connection points: 2
#     Edge 56, Type (0, 1), BuildingBlock: UVAHIK_clean_linker_0, # of connection points: 2
#     Edge 57, Type (0, 1), BuildingBlock: UVAHIK_clean_linker_0, # of connection points: 2
#     Edge 58, Type (0, 1), BuildingBlock: UVAHIK_clean_linker_0, # of connection points: 2
#     Edge 59, Type (0, 1), BuildingBlock: UVAHIK_clean_linker_0, # of connection points: 2
#     Edge 60, Type (0, 1), BuildingBlock: UVAHIK_clean_linker_0, # of connection points: 2
#     Edge 61, Type (0, 1), BuildingBlock: UVAHIK_clean_linker_0, # of connection points: 2
#     Edge 62, Type (0, 1), BuildingBlock: UVAHIK_clean_linker_0, # of connection points: 2
#     Edge 63, Type (0, 1), BuildingBlock: UVAHIK_clean_linker_0, # of connection points: 2
#     Edge 64, Type (0, 1), BuildingBlock: UVAHIK_clean_linker_0, # of connection points: 2
#     Edge 65, Type (0, 1), BuildingBlock: UVAHIK_clean_linker_0, # of connection points: 2
#     Edge 66, Type (0, 1), BuildingBlock: UVAHIK_clean_linker_0, # of connection points: 2
#     Edge 67, Type (0, 1), BuildingBlock: UVAHIK_clean_linker_0, # of connection points: 2
#     Edge 68, Type (0, 1), BuildingBlock: UVAHIK_clean_linker_0, # of connection points: 2
#     Edge 69, Type (0, 1), BuildingBlock: UVAHIK_clean_linker_0, # of connection points: 2
#     Edge 70, Type (0, 1), BuildingBlock: UVAHIK_clean_linker_0, # of connection points: 2
#     Edge 71, Type (0, 1), BuildingBlock: UVAHIK_clean_linker_0, # of connection points: 2
#     Edge 72, Type (0, 1), BuildingBlock: UVAHIK_clean_linker_0, # of connection points: 2
#     Edge 73, Type (0, 1), BuildingBlock: UVAHIK_clean_linker_0, # of connection points: 2
#     Edge 74, Type (0, 1), BuildingBlock: UVAHIK_clean_linker_0, # of connection points: 2
#     Edge 75, Type (0, 1), BuildingBlock: UVAHIK_clean_linker_0, # of connection points: 2
#     Edge 76, Type (0, 1), BuildingBlock: UVAHIK_clean_linker_0, # of connection points: 2
#     Edge 77, Type (0, 1), BuildingBlock: UVAHIK_clean_linker_0, # of connection points: 2
#     Edge 78, Type (0, 1), BuildingBlock: UVAHIK_clean_linker_0, # of connection points: 2
#     Edge 79, Type (0, 1), BuildingBlock: UVAHIK_clean_linker_0, # of connection points: 2
#     Edge 80, Type (0, 1), BuildingBlock: UVAHIK_clean_linker_0, # of connection points: 2
#     Edge 81, Type (0, 1), BuildingBlock: UVAHIK_clean_linker_0, # of connection points: 2
#     Edge 82, Type (0, 1), BuildingBlock: UVAHIK_clean_linker_0, # of connection points: 2
#     Edge 83, Type (0, 1), BuildingBlock: UVAHIK_clean_linker_0, # of connection points: 2
#     Edge 84, Type (0, 1), BuildingBlock: UVAHIK_clean_linker_0, # of connection points: 2
#     Edge 85, Type (0, 1), BuildingBlock: UVAHIK_clean_linker_0, # of connection points: 2
#     Edge 86, Type (0, 1), BuildingBlock: UVAHIK_clean_linker_0, # of connection points: 2
#     Edge 87, Type (0, 1), BuildingBlock: UVAHIK_clean_linker_0, # of connection points: 2
#     Edge 88, Type (0, 1), BuildingBlock: UVAHIK_clean_linker_0, # of connection points: 2
#     Edge 89, Type (0, 1), BuildingBlock: UVAHIK_clean_linker_0, # of connection points: 2
#     Edge 90, Type (0, 1), BuildingBlock: UVAHIK_clean_linker_0, # of connection points: 2
#     Edge 91, Type (0, 1), BuildingBlock: UVAHIK_clean_linker_0, # of connection points: 2
#     Edge 92, Type (0, 1), BuildingBlock: UVAHIK_clean_linker_0, # of connection points: 2
#     Edge 93, Type (0, 1), BuildingBlock: UVAHIK_clean_linker_0, # of connection points: 2
#     Edge 94, Type (0, 1), BuildingBlock: UVAHIK_clean_linker_0, # of connection points: 2
#     Edge 95, Type (0, 1), BuildingBlock: UVAHIK_clean_linker_0, # of connection points: 2
#     Edge 96, Type (0, 1), BuildingBlock: UVAHIK_clean_linker_0, # of connection points: 2
#     Edge 97, Type (0, 1), BuildingBlock: UVAHIK_clean_linker_0, # of connection points: 2
#     Edge 98, Type (0, 1), BuildingBlock: UVAHIK_clean_linker_0, # of connection points: 2
#     Edge 99, Type (0, 1), BuildingBlock: UVAHIK_clean_linker_0, # of connection points: 2
#     Edge 100, Type (0, 1), BuildingBlock: UVAHIK_clean_linker_0, # of connection points: 2
#     Edge 101, Type (0, 1), BuildingBlock: UVAHIK_clean_linker_0, # of connection points: 2
#     Edge 102, Type (0, 1), BuildingBlock: UVAHIK_clean_linker_0, # of connection points: 2
#     Edge 103, Type (0, 1), BuildingBlock: UVAHIK_clean_linker_0, # of connection points: 2
#     Edge 104, Type (0, 1), BuildingBlock: UVAHIK_clean_linker_0, # of connection points: 2
#     Edge 105, Type (0, 1), BuildingBlock: UVAHIK_clean_linker_0, # of connection points: 2
#     Edge 106, Type (0, 1), BuildingBlock: UVAHIK_clean_linker_0, # of connection points: 2
#     Edge 107, Type (0, 1), BuildingBlock: UVAHIK_clean_linker_0, # of connection points: 2
# Relax obj value: 0.073
# Max RMSD: 0.245
# Mean RMSD: 0.109
data_MOF--net-ptr--node1-NAHDIM_clean_sbu_0--node2-MIFKUJ_clean_linker_1--edge1-UVAHIK_clean_linker_0
_symmetry_space_group_name_H-M    P1
_symmetry_Int_Tables_number       1
_symmetry_cell_setting            triclinic
loop_
_symmetry_equiv_pos_as_xyz
'x, y, z'
_cell_length_a     113.15239
_cell_length_b     111.07743
_cell_length_c     75.096977
_cell_angle_alpha  91.623219
_cell_angle_beta   89.196992
_cell_angle_gamma 121.76582
loop_
_atom_site_label
_atom_site_type_symbol
_atom_site_fract_x
_atom_site_fract_y
_atom_site_fract_z
_atom_type_partial_charge
C0 C 0.02664 0.35395 0.03192 0.0
O1 O 0.01783 0.35525 0.0421 0.0
O2 O 0.99628 0.34096 0.9968 0.0
Zn3 Zn 0.01254 0.35962 0.00542 0.0
O4 O 0.00728 0.36909 0.0245 0.0
C5 C 0.01722 0.36891 0.96878 0.0
O6 O 0.00972 0.35529 0.96492 0.0
O7 O 0.02673 0.3558 0.01527 0.0
C8 C 0.99513 0.36583 0.02922 0.0
O9 O 0.98426 0.35508 0.02132 0.0
C10 C 0.9892 0.33046 0.00679 0.0
O11 O 0.99186 0.33189 0.02395 0.0
O12 O 0.02018 0.37302 0.98497 0.0
C13 C 0.67511 0.64957 0.98653 0.0
O14 O 0.66584 0.65041 0.97723 0.0
O15 O 0.65969 0.66266 0.02324 0.0
Zn16 Zn 0.65505 0.64361 0.01363 0.0
O17 O 0.64023 0.63628 0.99465 0.0
C18 C 0.64116 0.63119 0.04605 0.0
O19 O 0.63882 0.64156 0.04534 0.0
O20 O 0.67265 0.64628 0.00282 0.0
C21 C 0.62865 0.63545 0.99663 0.0
O22 O 0.62588 0.63959 0.01184 0.0
C23 C 0.66036 0.67219 0.01355 0.0
O24 O 0.65745 0.66949 0.99649 0.0
O25 O 0.64828 0.62986 0.03378 0.0
C26 C 0.34377 0.03316 0.01774 0.0
O27 O 0.33605 0.02468 0.03047 0.0
O28 O 0.33621 0.99907 0.02377 0.0
Zn29 Zn 0.35502 0.01518 0.01671 0.0
O30 O 0.36275 0.01035 0.9953 0.0
C31 C 0.36814 0.0092 0.04307 0.0
O32 O 0.36005 0.99672 0.03537 0.0
O33 O 0.3531 0.03154 0.01057 0.0
C34 C 0.35914 0.99798 0.98962 0.0
O35 O 0.34922 0.98689 0.99783 0.0
C36 C 0.32564 0.9933 0.01364 0.0
O37 O 0.32698 0.99724 0.99703 0.0
O38 O 0.36801 0.01978 0.03733 0.0
C39 C 0.97914 0.66515 0.99545 0.0
O40 O 0.99228 0.67434 0.99213 0.0
O41 O 0.00804 0.66903 0.01672 0.0
Zn42 Zn 0.99138 0.65037 0.00843 0.0
O43 O 0.99504 0.64162 0.98681 0.0
C44 C 0.996 0.63715 0.03661 0.0
O45 O 0.00875 0.64589 0.03115 0.0
O46 O 0.97582 0.65355 0.00262 0.0
C47 C 0.0063 0.64212 0.98322 0.0
O48 O 0.01707 0.64932 0.99383 0.0
C49 C 0.01827 0.67834 0.00782 0.0
O50 O 0.01904 0.67623 0.99064 0.0
O51 O 0.98601 0.63692 0.02872 0.0
C52 C 0.31765 0.34139 0.02445 0.0
O53 O 0.32224 0.33284 0.02655 0.0
O54 O 0.34027 0.33818 0.99642 0.0
Zn55 Zn 0.34358 0.35644 0.00721 0.0
O56 O 0.35719 0.36304 0.02747 0.0
C57 C 0.34848 0.36913 0.97239 0.0
O58 O 0.33916 0.35621 0.96692 0.0
O59 O 0.32526 0.3529 0.01636 0.0
C60 C 0.36061 0.3749 0.03478 0.0
O61 O 0.3549 0.38175 0.02902 0.0
C62 C 0.34923 0.33688 0.98765 0.0
O63 O 0.36174 0.34804 0.98544 0.0
O64 O 0.35158 0.37157 0.98884 0.0
C65 C 0.65416 0.97969 0.02587 0.0
O66 O 0.65849 0.99212 0.0335 0.0
O67 O 0.66306 0.00784 0.99625 0.0
Zn68 Zn 0.64417 0.9916 0.00302 0.0
O69 O 0.6363 0.9975 0.02327 0.0
C70 C 0.63534 0.98873 0.96622 0.0
O71 O 0.64877 0.99622 0.96317 0.0
O72 O 0.64701 0.97634 0.01165 0.0
C73 C 0.62879 0.00268 0.02076 0.0
O74 O 0.62622 0.00455 0.0044 0.0
C75 C 0.66572 0.01995 0.99169 0.0
O76 O 0.65567 0.02255 0.99148 0.0
O77 O 0.63102 0.98502 0.98203 0.0
C78 C 0.68882 0.68702 0.3662 0.0
O79 O 0.67841 0.68553 0.37592 0.0
O80 O 0.66006 0.6742 0.33008 0.0
Zn81 Zn 0.67482 0.69319 0.34009 0.0
O82 O 0.66708 0.69983 0.35978 0.0
C83 C 0.67408 0.70613 0.30815 0.0
O84 O 0.66109 0.69555 0.30859 0.0
O85 O 0.68981 0.6907 0.35011 0.0
C86 C 0.65661 0.70106 0.35798 0.0
O87 O 0.65024 0.6979 0.34252 0.0
C88 C 0.65047 0.66464 0.3395 0.0
O89 O 0.64974 0.66724 0.35652 0.0
O90 O 0.68234 0.70739 0.32039 0.0
C91 C 0.34179 0.98596 0.34517 0.0
O92 O 0.34377 0.99505 0.35811 0.0
O93 O 0.32086 -0.00068 0.356 0.0
Zn94 Zn 0.3136 0.9791 0.34845 0.0
O95 O 0.29937 0.97278 0.32898 0.0
C96 C 0.29279 0.96283 0.37428 0.0
O97 O 0.2862 0.96769 0.36564 0.0
O98 O 0.3296 0.97776 0.33907 0.0
C99 C 0.29474 0.96048 0.32223 0.0
O100 O 0.29945 0.95278 0.32826 0.0
C101 C 0.3134 0.00471 0.3577 0.0
O102 O 0.30002 0.99687 0.35429 0.0
O103 O 0.30497 0.96636 0.36937 0.0
C104 C 0.02202 0.35867 0.31816 0.0
O105 O 0.01906 0.34716 0.309 0.0
O106 O 0.00772 0.33059 0.3553 0.0
Zn107 Zn 0.02665 0.34416 0.34532 0.0
O108 O 0.0322 0.33464 0.32666 0.0
C109 C 0.03932 0.3431 0.37712 0.0
O110 O 0.02895 0.32986 0.3759 0.0
O111 O 0.02592 0.36002 0.33427 0.0
C112 C 0.02875 0.32175 0.32691 0.0
O113 O 0.02113 0.31382 0.34008 0.0
C114 C 0.99743 0.32177 0.34573 0.0
O115 O -0.00092 0.32113 0.32845 0.0
O116 O 0.04062 0.35166 0.36528 0.0
C117 C 0.64548 0.98594 0.33646 0.0
O118 O 0.65293 0.9945 0.34968 0.0
O119 O 0.67843 0.99439 0.34999 0.0
Zn120 Zn 0.66337 0.97514 0.3411 0.0
O121 O 0.67052 0.96742 0.3222 0.0
C122 C 0.65604 0.96449 0.37735 0.0
O123 O 0.6616 0.97784 0.38229 0.0
O124 O 0.64801 0.97667 0.33067 0.0
C125 C 0.68134 0.97468 0.31282 0.0
O126 O 0.68888 0.98849 0.31526 0.0
C127 C 0.6891 0.9967 0.35844 0.0
O128 O 0.69077 0.98609 0.36145 0.0
O129 O 0.65572 0.96125 0.36092 0.0
C130 C 0.99143 0.69002 0.36632 0.0
O131 O 0.00067 0.69006 0.37675 0.0
O132 O 0.01013 0.6785 0.33114 0.0
Zn133 Zn 0.01294 0.69687 0.34094 0.0
O134 O 0.02699 0.70505 0.36098 0.0
C135 C 0.03099 0.7126 0.31329 0.0
O136 O 0.03629 0.7052 0.3184 0.0
O137 O 0.99442 0.69303 0.35002 0.0
C138 C 0.03597 0.7018 0.36413 0.0
O139 O 0.03658 0.69241 0.35378 0.0
C140 C 0.00711 0.66797 0.34066 0.0
O141 O 0.00606 0.66899 0.35801 0.0
O142 O 0.02021 0.71089 0.32115 0.0
C143 C 0.31772 0.30936 0.3426 0.0
O144 O 0.32332 0.31566 0.32755 0.0
O145 O 0.32605 0.34397 0.33388 0.0
Zn146 Zn 0.30767 0.32829 0.34302 0.0
O147 O 0.30138 0.33552 0.36367 0.0
C148 C 0.29415 0.33057 0.31301 0.0
O149 O 0.30363 0.34398 0.31601 0.0
O150 O 0.31008 0.31267 0.35131 0.0
C151 C 0.30602 0.34863 0.36634 0.0
O152 O 0.31518 0.35786 0.35523 0.0
C153 C 0.33749 0.34776 0.34152 0.0
O154 O 0.33743 0.34148 0.35611 0.0
O155 O 0.29362 0.32135 0.32319 0.0
C156 C 0.35473 0.02551 0.69987 0.0
O157 O 0.34515 0.02544 0.71002 0.0
O158 O 0.32441 0.0086 0.66258 0.0
Zn159 Zn 0.33869 0.02789 0.67241 0.0
O160 O 0.33061 0.0349 0.69117 0.0
C161 C 0.33692 0.04298 0.64402 0.0
O162 O 0.32381 0.03541 0.64883 0.0
O163 O 0.35427 0.02667 0.68313 0.0
C164 C 0.31776 0.02966 0.69435 0.0
O165 O 0.30844 0.01875 0.68478 0.0
C166 C 0.31808 0.99781 0.67231 0.0
O167 O 0.32055 -0.00073 0.68952 0.0
O168 O 0.34583 0.04161 0.65235 0.0
C169 C 0.00764 0.31599 0.65093 0.0
O170 O -0.00143 0.31699 0.64138 0.0
O171 O 0.98699 0.32319 0.68698 0.0
Zn172 Zn 0.98545 0.30573 0.67594 0.0
O173 O 0.97147 0.29822 0.65598 0.0
C174 C 0.98323 0.29449 0.71063 0.0
O175 O 0.99241 0.30784 0.71455 0.0
O176 O 0.00429 0.31107 0.6665 0.0
C177 C 0.95891 0.2944 0.65902 0.0
O178 O 0.95513 0.29526 0.67541 0.0
C179 C 0.98512 0.33167 0.67823 0.0
O180 O 0.98185 0.32897 0.66126 0.0
O181 O 0.97897 0.29095 0.69466 0.0
C182 C 0.68098 0.68779 0.65129 0.0
O183 O 0.67924 0.67667 0.64227 0.0
O184 O 0.67272 0.66144 0.68959 0.0
Zn185 Zn 0.69012 0.67648 0.67766 0.0
O186 O 0.69662 0.66845 0.65821 0.0
C187 C 0.70667 0.67861 0.70691 0.0
O188 O 0.69834 0.66479 0.70554 0.0
O189 O 0.6859 0.69022 0.66699 0.0
C190 C 0.69416 0.6559 0.65706 0.0
O191 O 0.68678 0.64686 0.66949 0.0
C192 C 0.66207 0.65199 0.6811 0.0
O193 O 0.66238 0.65147 0.66362 0.0
O194 O 0.7052 0.68633 0.69611 0.0
C195 C 0.31068 0.31905 0.64951 0.0
O196 O 0.31984 0.31864 0.63898 0.0
O197 O 0.3405 0.33168 0.68604 0.0
Zn198 Zn 0.3251 0.31324 0.67561 0.0
O199 O 0.33188 0.30542 0.65614 0.0
C200 C 0.32606 0.29694 0.7025 0.0
O201 O 0.33901 0.30397 0.69696 0.0
O202 O 0.31063 0.31665 0.66597 0.0
C203 C 0.34451 0.30975 0.65265 0.0
O204 O 0.35442 0.3203 0.66208 0.0
C205 C 0.34775 0.34274 0.67699 0.0
O206 O 0.34561 0.3422 0.65976 0.0
O207 O 0.31731 0.29911 0.69518 0.0
C208 C 0.65776 0.0123 0.68756 0.0
O209 O 0.66046 0.00221 0.68895 0.0
O210 O 0.67973 0.00671 0.6607 0.0
Zn211 Zn 0.68413 0.02567 0.67037 0.0
O212 O 0.69815 0.03249 0.69016 0.0
C213 C 0.68946 0.03717 0.63469 0.0
O214 O 0.6811 0.02392 0.62948 0.0
O215 O 0.66655 0.02368 0.67996 0.0
C216 C 0.70207 0.04465 0.69691 0.0
O217 O 0.69671 0.05172 0.69077 0.0
C218 C 0.68844 0.00454 0.65278 0.0
O219 O 0.70128 0.01516 0.65066 0.0
O220 O 0.69198 0.04016 0.65119 0.0
C221 C 0.97409 0.64486 0.6966 0.0
O222 O 0.97695 0.65607 0.7064 0.0
O223 O 0.98713 0.67372 0.65958 0.0
Zn224 Zn 0.96871 0.65974 0.67056 0.0
O225 O 0.96373 0.6688 0.69048 0.0
C226 C 0.95581 0.64918 0.63606 0.0
O227 O 0.96824 0.65191 0.63154 0.0
O228 O 0.97016 0.64395 0.68058 0.0
C229 C 0.96694 0.68162 0.6912 0.0
O230 O 0.97389 0.68998 0.67799 0.0
C231 C 0.99764 0.6819 0.66922 0.0
O232 O 0.9963 0.68155 0.68663 0.0
O233 O 0.95366 0.65172 0.65199 0.0
H234 H 0.13384 0.3047 0.18937 0.0
H235 H 0.11671 0.30415 0.20984 0.0
H236 H 0.08374 0.26954 0.17905 0.0
H237 H 0.10107 0.27016 0.15842 0.0
H238 H 0.14098 0.2868 0.18209 0.0
H239 H 0.12447 0.31034 0.15067 0.0
H240 H 0.10939 0.31645 0.13586 0.0
H241 H 0.09698 0.28178 0.09803 0.0
H242 H 0.11211 0.27559 0.11312 0.0
H243 H 0.15339 0.2747 0.11212 0.0
H244 H 0.17378 0.28095 0.09351 0.0
H245 H 0.19696 0.32134 0.12158 0.0
H246 H 0.17659 0.31509 0.1399 0.0
H247 H 0.13996 0.29175 0.11679 0.0
H248 H 0.16411 0.27398 0.15367 0.0
H249 H 0.18496 0.27806 0.16924 0.0
H250 H 0.18823 0.31431 0.19697 0.0
H251 H 0.16756 0.31021 0.18151 0.0
C252 C 0.11876 0.28743 0.1724 0.0
C253 C 0.12293 0.2969 0.18707 0.0
C254 C 0.11312 0.29655 0.1988 0.0
C255 C 0.09888 0.28669 0.19618 0.0
C256 C 0.09465 0.2773 0.18136 0.0
C257 C 0.10452 0.27763 0.16959 0.0
C258 C 0.12945 0.28789 0.16025 0.0
C259 C 0.14065 0.28776 0.16779 0.0
C260 C 0.12919 0.28938 0.14161 0.0
C261 C 0.11919 0.29231 0.13325 0.0
C262 C 0.11825 0.30381 0.13947 0.0
C263 C 0.10964 0.30732 0.13095 0.0
C264 C 0.10193 0.29954 0.11584 0.0
C265 C 0.10285 0.288 0.1096 0.0
C266 C 0.11143 0.28443 0.11824 0.0
C267 C 0.16358 0.29438 0.12745 0.0
C268 C 0.16288 0.28489 0.11419 0.0
C269 C 0.17453 0.28845 0.10366 0.0
C270 C 0.18694 0.30164 0.1061 0.0
C271 C 0.1875 0.31117 0.11927 0.0
C272 C 0.17592 0.30757 0.12983 0.0
C273 C 0.15139 0.29072 0.13873 0.0
C274 C 0.13991 0.2902 0.131 0.0
C275 C 0.15181 0.28961 0.15735 0.0
C276 C 0.16431 0.29178 0.1665 0.0
C277 C 0.16937 0.2828 0.16309 0.0
C278 C 0.18122 0.28511 0.17198 0.0
C279 C 0.18824 0.29655 0.18419 0.0
C280 C 0.18315 0.30553 0.18745 0.0
C281 C 0.17128 0.30313 0.17876 0.0
H282 H 0.73173 0.88711 0.1677 0.0
H283 H 0.72947 0.90347 0.18799 0.0
H284 H 0.68758 0.88656 0.16911 0.0
H285 H 0.68981 0.87008 0.14917 0.0
H286 H 0.71447 0.85731 0.16871 0.0
H287 H 0.72555 0.89461 0.126 0.0
H288 H 0.71984 0.91023 0.11104 0.0
H289 H 0.68156 0.87363 0.09175 0.0
H290 H 0.68737 0.85816 0.10653 0.0
H291 H 0.68997 0.82738 0.10259 0.0
H292 H 0.68652 0.80675 0.08558 0.0
H293 H 0.72393 0.81232 0.10856 0.0
H294 H 0.7275 0.83321 0.12543 0.0
H295 H 0.70805 0.85365 0.10319 0.0
H296 H 0.69174 0.81701 0.14362 0.0
H297 H 0.6893 0.79808 0.1618 0.0
H298 H 0.72722 0.82805 0.18973 0.0
H299 H 0.73016 0.84676 0.17043 0.0
C300 C 0.71098 0.87749 0.15685 0.0
C301 C 0.72212 0.88705 0.16784 0.0
C302 C 0.72085 0.89644 0.17932 0.0
C303 C 0.70834 0.89627 0.18015 0.0
C304 C 0.6973 0.88684 0.16887 0.0
C305 C 0.6986 0.87751 0.15737 0.0
C306 C 0.71193 0.86682 0.1457 0.0
C307 C 0.71347 0.85668 0.15432 0.0
C308 C 0.70978 0.86561 0.12708 0.0
C309 C 0.70687 0.87523 0.11743 0.0
C310 C 0.71595 0.88998 0.11851 0.0
C311 C 0.71266 0.89888 0.10999 0.0
C312 C 0.70024 0.89317 0.10019 0.0
C313 C 0.69131 0.87838 0.09892 0.0
C314 C 0.6946 0.86951 0.10742 0.0
C315 C 0.70897 0.83183 0.11536 0.0
C316 C 0.69757 0.82432 0.10379 0.0
C317 C 0.6956 0.81253 0.09406 0.0
C318 C 0.70497 0.80795 0.09574 0.0
C319 C 0.71649 0.81556 0.10714 0.0
C320 C 0.71853 0.82747 0.11677 0.0
C321 C 0.71053 0.84398 0.12618 0.0
C322 C 0.70948 0.85442 0.11753 0.0
C323 C 0.7123 0.84499 0.14492 0.0
C324 C 0.71129 0.8333 0.15537 0.0
C325 C 0.69977 0.81945 0.15328 0.0
C326 C 0.69825 0.80865 0.16396 0.0
C327 C 0.70799 0.8115 0.17741 0.0
C328 C 0.7196 0.82537 0.17938 0.0
C329 C 0.72124 0.83614 0.16845 0.0
H330 H 0.11829 0.85063 0.17114 0.0
H331 H 0.10217 0.83152 0.19053 0.0
H332 H 0.11262 0.80332 0.16387 0.0
H333 H 0.12915 0.82263 0.14513 0.0
H334 H 0.14619 0.86166 0.17022 0.0
H335 H 0.10791 0.83637 0.12721 0.0
H336 H 0.09135 0.81504 0.10995 0.0
H337 H 0.12555 0.81373 0.08582 0.0
H338 H 0.14195 0.83477 0.10315 0.0
H339 H 0.17285 0.86712 0.10228 0.0
H340 H 0.19311 0.8844 0.08553 0.0
H341 H 0.19319 0.91843 0.11491 0.0
H342 H 0.17253 0.90107 0.13135 0.0
H343 H 0.14813 0.8606 0.10428 0.0
H344 H 0.18432 0.87682 0.14602 0.0
H345 H 0.20356 0.89142 0.16644 0.0
H346 H 0.17832 0.90436 0.1946 0.0
H347 H 0.15923 0.89006 0.17371 0.0
C348 C 0.12482 0.83803 0.15656 0.0
C349 C 0.11699 0.84028 0.16938 0.0
C350 C 0.1077 0.82931 0.18036 0.0
C351 C 0.10611 0.81588 0.17878 0.0
C352 C 0.11371 0.81357 0.16559 0.0
C353 C 0.12304 0.82456 0.15469 0.0
C354 C 0.1357 0.85006 0.14625 0.0
C355 C 0.14645 0.86163 0.15577 0.0
C356 C 0.13641 0.8496 0.12743 0.0
C357 C 0.12617 0.83714 0.11654 0.0
C358 C 0.11181 0.83146 0.11821 0.0
C359 C 0.10238 0.8193 0.10835 0.0
C360 C 0.10718 0.81277 0.0965 0.0
C361 C 0.12155 0.81865 0.09462 0.0
C362 C 0.13093 0.83068 0.10455 0.0
C363 C 0.17115 0.88276 0.11815 0.0
C364 C 0.17707 0.87829 0.105 0.0
C365 C 0.18865 0.88817 0.09542 0.0
C366 C 0.19466 0.90272 0.09891 0.0
C367 C 0.18878 0.90724 0.11206 0.0
C368 C 0.17703 0.89734 0.12149 0.0
C369 C 0.15884 0.87204 0.12826 0.0
C370 C 0.14774 0.86083 0.11872 0.0
C371 C 0.15825 0.87235 0.14709 0.0
C372 C 0.17038 0.88247 0.15822 0.0
C373 C 0.18304 0.88309 0.15629 0.0
C374 C 0.19398 0.89131 0.16811 0.0
C375 C 0.19243 0.89897 0.18222 0.0
C376 C 0.17989 0.8987 0.18377 0.0
C377 C 0.16895 0.89048 0.17191 0.0
H378 H 0.27194 0.15673 0.84187 0.0
H379 H 0.27444 0.17504 0.82196 0.0
H380 H 0.31644 0.20316 0.84105 0.0
H381 H 0.31414 0.18464 0.85996 0.0
H382 H 0.28636 0.1436 0.8417 0.0
H383 H 0.27972 0.17307 0.8846 0.0
H384 H 0.28659 0.19614 0.89827 0.0
H385 H 0.32541 0.20127 0.91501 0.0
H386 H 0.31869 0.17848 0.9009 0.0
H387 H 0.31804 0.14563 0.8999 0.0
H388 H 0.32336 0.13097 0.9175 0.0
H389 H 0.28202 0.09492 0.90764 0.0
H390 H 0.27666 0.10981 0.89006 0.0
H391 H 0.29889 0.15245 0.90578 0.0
H392 H 0.30985 0.12834 0.86174 0.0
H393 H 0.30909 0.10982 0.84264 0.0
H394 H 0.26786 0.09725 0.82513 0.0
H395 H 0.26853 0.11567 0.84465 0.0
C396 C 0.29277 0.16939 0.85261 0.0
C397 C 0.28167 0.16686 0.84173 0.0
C398 C 0.28308 0.17737 0.83047 0.0
C399 C 0.29565 0.19058 0.82988 0.0
C400 C 0.30668 0.19306 0.84095 0.0
C401 C 0.30531 0.18254 0.852 0.0
C402 C 0.29163 0.15813 0.86402 0.0
C403 C 0.28868 0.14532 0.85585 0.0
C404 C 0.29514 0.16063 0.88232 0.0
C405 C 0.29872 0.17409 0.89164 0.0
C406 C 0.2897 0.17918 0.89123 0.0
C407 C 0.2936 0.19231 0.89914 0.0
C408 C 0.30659 0.20056 0.90761 0.0
C409 C 0.31544 0.19527 0.90834 0.0
C410 C 0.31154 0.18217 0.90046 0.0
C411 C 0.29696 0.1288 0.89369 0.0
C412 C 0.3101 0.13457 0.90153 0.0
C413 C 0.31317 0.12616 0.91146 0.0
C414 C 0.30312 0.11179 0.91386 0.0
C415 C 0.28992 0.10599 0.90605 0.0
C416 C 0.28688 0.11443 0.89596 0.0
C417 C 0.294 0.13808 0.88335 0.0
C418 C 0.29608 0.15047 0.89177 0.0
C419 C 0.29014 0.13537 0.86516 0.0
C420 C 0.28913 0.12324 0.85491 0.0
C421 C 0.30046 0.12133 0.85425 0.0
C422 C 0.30004 0.11077 0.84326 0.0
C423 C 0.2884 0.10207 0.83243 0.0
C424 C 0.27698 0.10385 0.83328 0.0
C425 C 0.27735 0.11433 0.84444 0.0
H426 H 0.83894 0.12075 0.84482 0.0
H427 H 0.82018 0.10632 0.82356 0.0
H428 H 0.79629 0.12301 0.84656 0.0
H429 H 0.81527 0.13779 0.86721 0.0
H430 H 0.85387 0.14951 0.84705 0.0
H431 H 0.82357 0.11161 0.88715 0.0
H432 H 0.80105 0.09606 0.90129 0.0
H433 H 0.80216 0.1327 0.9245 0.0
H434 H 0.82436 0.14814 0.90991 0.0
H435 H 0.85894 0.17797 0.91431 0.0
H436 H 0.87662 0.19795 0.93209 0.0
H437 H 0.90826 0.19177 0.90901 0.0
H438 H 0.89042 0.17135 0.89159 0.0
H439 H 0.84896 0.15165 0.91258 0.0
H440 H 0.87365 0.18909 0.87227 0.0
H441 H 0.89259 0.20751 0.85485 0.0
H442 H 0.89931 0.1761 0.82971 0.0
H443 H 0.8808 0.15783 0.8479 0.0
C444 C 0.82845 0.13023 0.85773 0.0
C445 C 0.8296 0.1212 0.84534 0.0
C446 C 0.81883 0.11289 0.8333 0.0
C447 C 0.80675 0.11354 0.83334 0.0
C448 C 0.80552 0.12238 0.84603 0.0
C449 C 0.8163 0.13071 0.858 0.0
C450 C 0.84032 0.13995 0.86947 0.0
C451 C 0.85295 0.14977 0.86144 0.0
C452 C 0.83887 0.14065 0.88814 0.0
C453 C 0.8256 0.13104 0.89737 0.0
C454 C 0.81893 0.11627 0.89525 0.0
C455 C 0.80612 0.1074 0.90344 0.0
C456 C 0.79979 0.11316 0.91393 0.0
C457 C 0.80665 0.12794 0.91628 0.0
C458 C 0.81942 0.13678 0.9081 0.0
C459 C 0.87333 0.17318 0.90147 0.0
C460 C 0.86963 0.18071 0.91327 0.0
C461 C 0.87974 0.19215 0.92343 0.0
C462 C 0.89378 0.19639 0.92188 0.0
C463 C 0.8975 0.18876 0.91031 0.0
C464 C 0.88733 0.17714 0.90034 0.0
C465 C 0.86247 0.16148 0.89014 0.0
C466 C 0.85006 0.15122 0.89823 0.0
C467 C 0.8639 0.16078 0.87143 0.0
C468 C 0.87594 0.1721 0.86159 0.0
C469 C 0.87941 0.18621 0.86331 0.0
C470 C 0.89013 0.19672 0.85315 0.0
C471 C 0.89745 0.1933 0.8408 0.0
C472 C 0.89404 0.17916 0.83926 0.0
C473 C 0.88338 0.16867 0.84954 0.0
H474 H 0.83705 0.70245 0.82766 0.0
H475 H 0.81993 0.70311 0.80912 0.0
H476 H 0.8208 0.73489 0.8446 0.0
H477 H 0.83809 0.73423 0.86319 0.0
H478 H 0.8623 0.72003 0.83605 0.0
H479 H 0.82065 0.69393 0.8667 0.0
H480 H 0.79874 0.68687 0.88159 0.0
H481 H 0.82083 0.71959 0.92195 0.0
H482 H 0.84285 0.72678 0.90678 0.0
H483 H 0.88398 0.72867 0.90736 0.0
H484 H 0.89697 0.72188 0.92621 0.0
H485 H 0.88366 0.68464 0.89268 0.0
H486 H 0.87056 0.69136 0.87413 0.0
H487 H 0.85464 0.71146 0.90083 0.0
H488 H 0.89817 0.73353 0.86381 0.0
H489 H 0.91613 0.73214 0.8466 0.0
H490 H 0.88401 0.69569 0.81735 0.0
H491 H 0.86625 0.6972 0.83433 0.0
C492 C 0.83886 0.71828 0.84684 0.0
C493 C 0.83372 0.70971 0.83136 0.0
C494 C 0.82394 0.71012 0.82074 0.0
C495 C 0.81907 0.71911 0.82535 0.0
C496 C 0.82428 0.72778 0.84079 0.0
C497 C 0.83416 0.72742 0.8514 0.0
C498 C 0.84893 0.71734 0.85828 0.0
C499 C 0.86062 0.71824 0.85024 0.0
C500 C 0.84669 0.71476 0.87675 0.0
C501 C 0.83338 0.71108 0.88541 0.0
C502 C 0.82078 0.69981 0.87853 0.0
C503 C 0.80826 0.69576 0.88708 0.0
C504 C 0.80807 0.70274 0.90287 0.0
C505 C 0.82068 0.71399 0.90983 0.0
C506 C 0.83324 0.71813 0.90116 0.0
C507 C 0.8765 0.71062 0.88924 0.0
C508 C 0.88397 0.71911 0.90404 0.0
C509 C 0.8914 0.71524 0.91474 0.0
C510 C 0.89129 0.70271 0.91092 0.0
C511 C 0.88382 0.69427 0.89604 0.0
C512 C 0.87647 0.69818 0.88532 0.0
C513 C 0.86793 0.71419 0.87855 0.0
C514 C 0.85652 0.71378 0.88677 0.0
C515 C 0.86992 0.71631 0.86004 0.0
C516 C 0.88092 0.71548 0.85028 0.0
C517 C 0.89506 0.72523 0.85372 0.0
C518 C 0.90526 0.72445 0.8439 0.0
C519 C 0.90142 0.71376 0.83074 0.0
C520 C 0.88726 0.70393 0.82755 0.0
C521 C 0.87711 0.70484 0.83714 0.0
H522 H 0.79937 0.63918 0.51636 0.0
H523 H 0.78264 0.64157 0.53455 0.0
H524 H 0.74896 0.60833 0.50321 0.0
H525 H 0.7659 0.60607 0.48469 0.0
H526 H 0.80202 0.6161 0.51032 0.0
H527 H 0.7935 0.64753 0.47939 0.0
H528 H 0.77951 0.65523 0.46488 0.0
H529 H 0.76665 0.62181 0.42501 0.0
H530 H 0.78059 0.61399 0.43983 0.0
H531 H 0.82136 0.61399 0.438 0.0
H532 H 0.84351 0.6216 0.42285 0.0
H533 H 0.86534 0.65278 0.46493 0.0
H534 H 0.84333 0.64521 0.47985 0.0
H535 H 0.80943 0.62963 0.44692 0.0
H536 H 0.82686 0.60462 0.47927 0.0
H537 H 0.84436 0.60319 0.49648 0.0
H538 H 0.84429 0.63206 0.5362 0.0
H539 H 0.82708 0.63359 0.51901 0.0
C540 C 0.78386 0.62245 0.49921 0.0
C541 C 0.78839 0.63234 0.51343 0.0
C542 C 0.77885 0.63377 0.52371 0.0
C543 C 0.76456 0.62519 0.52016 0.0
C544 C 0.75994 0.61505 0.50616 0.0
C545 C 0.76957 0.61377 0.49562 0.0
C546 C 0.79436 0.62174 0.48804 0.0
C547 C 0.80361 0.61892 0.4964 0.0
C548 C 0.79631 0.62535 0.46988 0.0
C549 C 0.7878 0.62996 0.46094 0.0
C550 C 0.78749 0.6417 0.46771 0.0
C551 C 0.77952 0.64612 0.45938 0.0
C552 C 0.77189 0.63904 0.44391 0.0
C553 C 0.77246 0.62748 0.43689 0.0
C554 C 0.78036 0.62298 0.44535 0.0
C555 C 0.83074 0.62882 0.46023 0.0
C556 C 0.83095 0.62243 0.44393 0.0
C557 C 0.84358 0.62681 0.43529 0.0
C558 C 0.85617 0.63768 0.44281 0.0
C559 C 0.85586 0.64417 0.459 0.0
C560 C 0.84328 0.63985 0.46755 0.0
C561 C 0.81744 0.62448 0.4694 0.0
C562 C 0.8076 0.62624 0.46062 0.0
C563 C 0.81531 0.62054 0.48748 0.0
C564 C 0.82562 0.61919 0.49785 0.0
C565 C 0.83066 0.61066 0.49166 0.0
C566 C 0.84064 0.60985 0.50148 0.0
C567 C 0.8456 0.61742 0.51775 0.0
C568 C 0.84048 0.62588 0.5239 0.0
C569 C 0.83063 0.62677 0.51406 0.0
H570 H 0.3944 0.22306 0.50577 0.0
H571 H 0.39168 0.23879 0.52651 0.0
H572 H 0.3515 0.22474 0.50345 0.0
H573 H 0.35393 0.20847 0.48361 0.0
H574 H 0.37785 0.19443 0.50481 0.0
H575 H 0.38951 0.23174 0.45997 0.0
H576 H 0.38337 0.2469 0.44435 0.0
H577 H 0.34395 0.20992 0.42918 0.0
H578 H 0.35012 0.1949 0.44458 0.0
H579 H 0.35378 0.16507 0.43816 0.0
H580 H 0.34982 0.14407 0.42161 0.0
H581 H 0.38623 0.14829 0.44591 0.0
H582 H 0.39044 0.16965 0.46219 0.0
H583 H 0.37186 0.19098 0.43923 0.0
H584 H 0.35431 0.15467 0.48018 0.0
H585 H 0.35119 0.1354 0.49834 0.0
H586 H 0.39022 0.16404 0.52488 0.0
H587 H 0.39364 0.18316 0.50589 0.0
C588 C 0.37448 0.21473 0.49294 0.0
C589 C 0.38506 0.22348 0.50511 0.0
C590 C 0.38353 0.23255 0.51687 0.0
C591 C 0.37135 0.23304 0.51669 0.0
C592 C 0.36093 0.22452 0.50414 0.0
C593 C 0.36241 0.21536 0.49254 0.0
C594 C 0.37549 0.20407 0.48177 0.0
C595 C 0.37697 0.19389 0.4904 0.0
C596 C 0.37346 0.20287 0.46312 0.0
C597 C 0.37026 0.21223 0.4534 0.0
C598 C 0.37959 0.22694 0.45321 0.0
C599 C 0.37609 0.23555 0.44429 0.0
C600 C 0.36316 0.22954 0.4357 0.0
C601 C 0.35392 0.21481 0.43586 0.0
C602 C 0.35748 0.20624 0.44452 0.0
C603 C 0.37237 0.16893 0.45152 0.0
C604 C 0.36109 0.16167 0.43971 0.0
C605 C 0.35882 0.14966 0.43025 0.0
C606 C 0.36772 0.14457 0.43249 0.0
C607 C 0.37916 0.15194 0.44406 0.0
C608 C 0.38154 0.16411 0.45337 0.0
C609 C 0.37413 0.18122 0.46225 0.0
C610 C 0.37325 0.19174 0.45357 0.0
C611 C 0.37576 0.18218 0.48101 0.0
C612 C 0.37433 0.17033 0.49144 0.0
C613 C 0.36237 0.15674 0.4896 0.0
C614 C 0.3605 0.14576 0.5002 0.0
C615 C 0.37041 0.14817 0.51317 0.0
C616 C 0.38247 0.16175 0.51488 0.0
C617 C 0.38439 0.17273 0.50413 0.0
H618 H 0.78721 0.17963 0.49835 0.0
H619 H 0.76877 0.16135 0.51676 0.0
H620 H 0.78227 0.13263 0.50171 0.0
H621 H 0.80069 0.15092 0.4835 0.0
H622 H 0.81535 0.19144 0.50226 0.0
H623 H 0.78066 0.16297 0.45616 0.0
H624 H 0.76498 0.13985 0.44182 0.0
H625 H 0.80019 0.13621 0.42796 0.0
H626 H 0.8157 0.159 0.4428 0.0
H627 H 0.8476 0.19354 0.44056 0.0
H628 H 0.86838 0.21049 0.4243 0.0
H629 H 0.86368 0.24461 0.44416 0.0
H630 H 0.84264 0.22755 0.46017 0.0
H631 H 0.82216 0.18521 0.43805 0.0
H632 H 0.85509 0.20595 0.48421 0.0
H633 H 0.8726 0.22251 0.50545 0.0
H634 H 0.84527 0.23686 0.52238 0.0
H635 H 0.82765 0.22003 0.50121 0.0
C636 C 0.79519 0.16657 0.48936 0.0
C637 C 0.78612 0.16935 0.49895 0.0
C638 C 0.77562 0.15893 0.50947 0.0
C639 C 0.77404 0.14554 0.5106 0.0
C640 C 0.78307 0.14275 0.50085 0.0
C641 C 0.7936 0.1532 0.49044 0.0
C642 C 0.80677 0.17787 0.47898 0.0
C643 C 0.81668 0.19028 0.4881 0.0
C644 C 0.80885 0.17596 0.46074 0.0
C645 C 0.79933 0.16264 0.45071 0.0
C646 C 0.78498 0.15718 0.45 0.0
C647 C 0.77605 0.14403 0.4417 0.0
C648 C 0.78134 0.13615 0.4339 0.0
C649 C 0.79577 0.14189 0.43413 0.0
C650 C 0.80466 0.155 0.44243 0.0
C651 C 0.84356 0.20925 0.45166 0.0
C652 C 0.85094 0.20465 0.44132 0.0
C653 C 0.86282 0.21434 0.43202 0.0
C654 C 0.86761 0.22885 0.43295 0.0
C655 C 0.86027 0.23349 0.44335 0.0
C656 C 0.84828 0.22376 0.45252 0.0
C657 C 0.83087 0.1988 0.46137 0.0
C658 C 0.82071 0.1866 0.45211 0.0
C659 C 0.82892 0.20054 0.4797 0.0
C660 C 0.84011 0.21184 0.49102 0.0
C661 C 0.85299 0.21289 0.49221 0.0
C662 C 0.86301 0.22239 0.50436 0.0
C663 C 0.86034 0.23101 0.51567 0.0
C664 C 0.84759 0.23025 0.51405 0.0
C665 C 0.83754 0.2207 0.5019 0.0
H666 H 0.96292 0.50472 0.17582 0.0
H667 H 0.96308 0.52285 0.15799 0.0
H668 H 0.00169 0.55471 0.18295 0.0
H669 H 0.00182 0.53642 0.20002 0.0
H670 H 0.98069 0.49625 0.17495 0.0
H671 H 0.96574 0.51712 0.21936 0.0
H672 H 0.96725 0.53676 0.23699 0.0
H673 H 0.00586 0.54552 0.25998 0.0
H674 H 0.00451 0.52612 0.24203 0.0
H675 H 0.00754 0.49313 0.23706 0.0
H676 H 0.01175 0.47627 0.25142 0.0
H677 H 0.97275 0.44165 0.23063 0.0
H678 H 0.96861 0.45861 0.21627 0.0
H679 H 0.98762 0.49907 0.24035 0.0
H680 H 0.0041 0.48049 0.19463 0.0
H681 H 0.00463 0.46286 0.17505 0.0
H682 H 0.96455 0.45107 0.15361 0.0
H683 H 0.96378 0.46819 0.17392 0.0
C684 C 0.98229 0.51921 0.18936 0.0
C685 C 0.9714 0.51562 0.17747 0.0
C686 C 0.97144 0.52603 0.16741 0.0
C687 C 0.98239 0.54026 0.16903 0.0
C688 C 0.99317 0.54384 0.1812 0.0
C689 C 0.99318 0.53341 0.19115 0.0
C690 C 0.98265 0.508 0.19919 0.0
C691 C 0.98191 0.49671 0.18931 0.0
C692 C 0.98463 0.50882 0.21786 0.0
C693 C 0.98511 0.52026 0.22917 0.0
C694 C 0.97458 0.52333 0.22809 0.0
C695 C 0.97544 0.53452 0.23818 0.0
C696 C 0.9867 0.54267 0.24979 0.0
C697 C 0.99701 0.53933 0.25124 0.0
C698 C 0.99624 0.52825 0.24099 0.0
C699 C 0.98783 0.47712 0.22546 0.0
C700 C -0.00016 0.48191 0.23574 0.0
C701 C 0.00221 0.47227 0.24397 0.0
C702 C 0.99261 0.45763 0.24209 0.0
C703 C 0.98044 0.45286 0.23209 0.0
C704 C 0.97805 0.46252 0.22391 0.0
C705 C 0.98578 0.48744 0.21607 0.0
C706 C 0.98619 0.49853 0.22603 0.0
C707 C 0.9836 0.4865 0.19745 0.0
C708 C 0.98381 0.47554 0.18592 0.0
C709 C 0.9953 0.47391 0.18596 0.0
C710 C 0.99567 0.46394 0.17459 0.0
C711 C 0.98464 0.45554 0.16271 0.0
C712 C 0.97312 0.45717 0.16276 0.0
C713 C 0.97272 0.46706 0.17424 0.0
H714 H 0.50068 0.45395 0.17776 0.0
H715 H 0.48157 0.43911 0.1571 0.0
H716 H 0.4571 0.45436 0.18212 0.0
H717 H 0.47638 0.46958 0.20208 0.0
H718 H 0.51517 0.48224 0.18022 0.0
H719 H 0.48848 0.44503 0.22261 0.0
H720 H 0.46716 0.42821 0.23845 0.0
H721 H 0.46319 0.46285 0.25807 0.0
H722 H 0.48448 0.47959 0.24229 0.0
H723 H 0.52035 0.51226 0.24552 0.0
H724 H 0.53785 0.53261 0.26299 0.0
H725 H 0.56956 0.52539 0.24265 0.0
H726 H 0.55189 0.50478 0.22532 0.0
H727 H 0.51083 0.4854 0.24573 0.0
H728 H 0.53586 0.52248 0.20432 0.0
H729 H 0.55514 0.54031 0.18657 0.0
H730 H 0.5608 0.50783 0.16283 0.0
H731 H 0.54176 0.49004 0.18103 0.0
C732 C 0.48993 0.46276 0.19162 0.0
C733 C 0.49115 0.45399 0.17886 0.0
C734 C 0.48018 0.44545 0.16715 0.0
C735 C 0.46782 0.44558 0.16792 0.0
C736 C 0.46653 0.45413 0.18101 0.0
C737 C 0.47749 0.4627 0.19262 0.0
C738 C 0.50195 0.47283 0.20296 0.0
C739 C 0.51439 0.48273 0.19461 0.0
C740 C 0.50076 0.47373 0.22163 0.0
C741 C 0.488 0.46352 0.23127 0.0
C742 C 0.483 0.44897 0.23033 0.0
C743 C 0.47089 0.43941 0.23942 0.0
C744 C 0.46356 0.44427 0.24942 0.0
C745 C 0.4686 0.45884 0.25033 0.0
C746 C 0.48078 0.4684 0.24144 0.0
C747 C 0.5348 0.50704 0.234 0.0
C748 C 0.53103 0.51492 0.24498 0.0
C749 C 0.54104 0.52654 0.25498 0.0
C750 C 0.55506 0.53057 0.25418 0.0
C751 C 0.55884 0.52259 0.24337 0.0
C752 C 0.54877 0.51083 0.23347 0.0
C753 C 0.52403 0.49503 0.22298 0.0
C754 C 0.51182 0.48475 0.2314 0.0
C755 C 0.52537 0.49397 0.20431 0.0
C756 C 0.5375 0.50494 0.19424 0.0
C757 C 0.54146 0.51923 0.19564 0.0
C758 C 0.55245 0.52941 0.18546 0.0
C759 C 0.55947 0.52543 0.1734 0.0
C760 C 0.55552 0.51115 0.172 0.0
C761 C 0.54466 0.501 0.18238 0.0
H762 H 0.5351 0.03474 0.17708 0.0
H763 H 0.55299 0.0366 0.15663 0.0
H764 H 0.54215 0.99439 0.17003 0.0
H765 H 0.52426 0.99256 0.19032 0.0
H766 H 0.5078 0.01684 0.17529 0.0
H767 H 0.54308 0.02762 0.21919 0.0
H768 H 0.56031 0.02486 0.23489 0.0
H769 H 0.52853 0.98178 0.24687 0.0
H770 H 0.51141 0.98455 0.23097 0.0
H771 H 0.47513 0.98361 0.23402 0.0
H772 H 0.45532 0.9796 0.25225 0.0
H773 H 0.46578 0.0223 0.24275 0.0
H774 H 0.48568 0.02631 0.2247 0.0
H775 H 0.50279 0.0027 0.23833 0.0
H776 H 0.46753 0.99149 0.19601 0.0
H777 H 0.44971 0.99283 0.17996 0.0
H778 H 0.48067 0.03496 0.16322 0.0
H779 H 0.49831 0.03384 0.18021 0.0
C780 C 0.52843 0.01358 0.18537 0.0
C781 C 0.53665 0.02593 0.17568 0.0
C782 C 0.54684 0.02696 0.16398 0.0
C783 C 0.54899 0.01565 0.16174 0.0
C784 C 0.5409 0.00338 0.17168 0.0
C785 C 0.53067 0.00232 0.1833 0.0
C786 C 0.51698 0.01212 0.19683 0.0
C787 C 0.50687 0.01406 0.18919 0.0
C788 C 0.51548 0.00797 0.21476 0.0
C789 C 0.526 0.00626 0.22385 0.0
C790 C 0.53987 0.01756 0.22508 0.0
C791 C 0.54966 0.016 0.23415 0.0
C792 C 0.54574 0.0031 0.24209 0.0
C793 C 0.53187 0.99179 0.24072 0.0
C794 C 0.52207 0.99338 0.23176 0.0
C795 C 0.4818 0.00522 0.22794 0.0
C796 C 0.47318 0.99211 0.23593 0.0
C797 C 0.46183 0.98981 0.24622 0.0
C798 C 0.45901 0.00063 0.24887 0.0
C799 C 0.46778 0.01381 0.24104 0.0
C800 C 0.47907 0.01608 0.23064 0.0
C801 C 0.49368 0.0075 0.21681 0.0
C802 C 0.50383 0.00568 0.22449 0.0
C803 C 0.49515 0.01165 0.19888 0.0
C804 C 0.48423 0.01264 0.18954 0.0
C805 C 0.47043 0.00114 0.18922 0.0
C806 C 0.46028 0.00185 0.17981 0.0
C807 C 0.46375 0.01399 0.17022 0.0
C808 C 0.47758 0.02554 0.17065 0.0
C809 C 0.48771 0.02486 0.18022 0.0
H810 H 0.48526 0.00657 0.85646 0.0
H811 H 0.4678 0.00615 0.87631 0.0
H812 H 0.43534 0.97102 0.84557 0.0
H813 H 0.45292 0.97157 0.82563 0.0
H814 H 0.49196 0.98742 0.84981 0.0
H815 H 0.47587 0.01163 0.81667 0.0
H816 H 0.45949 0.0161 0.80197 0.0
H817 H 0.44738 0.98024 0.7663 0.0
H818 H 0.46374 0.97573 0.7812 0.0
H819 H 0.50063 0.97201 0.77951 0.0
H820 H 0.51983 0.97466 0.76088 0.0
H821 H 0.54826 0.01359 0.78947 0.0
H822 H 0.52906 0.01096 0.8078 0.0
H823 H 0.49137 0.99174 0.78428 0.0
H824 H 0.5069 0.96693 0.82253 0.0
H825 H 0.52511 0.96525 0.83761 0.0
H826 H 0.54058 0.00651 0.86217 0.0
H827 H 0.5222 0.00801 0.84742 0.0
C828 C 0.4704 0.98913 0.83954 0.0
C829 C 0.47439 0.99875 0.85403 0.0
C830 C 0.46439 0.99846 0.86539 0.0
C831 C 0.45018 0.98849 0.86257 0.0
C832 C 0.44619 0.97891 0.84799 0.0
C833 C 0.45622 0.9792 0.8366 0.0
C834 C 0.48116 0.98942 0.82774 0.0
C835 C 0.49181 0.98843 0.8355 0.0
C836 C 0.48097 0.99063 0.80903 0.0
C837 C 0.47087 0.9932 0.80023 0.0
C838 C 0.46955 0.0046 0.80586 0.0
C839 C 0.46019 0.00715 0.79743 0.0
C840 C 0.4521 0.99848 0.78304 0.0
C841 C 0.45355 0.98717 0.77727 0.0
C842 C 0.46286 0.98455 0.78579 0.0
C843 C 0.51349 0.99122 0.79509 0.0
C844 C 0.51101 0.98111 0.78169 0.0
C845 C 0.52197 0.9826 0.77115 0.0
C846 C 0.53552 0.99434 0.77373 0.0
C847 C 0.5379 0.00452 0.78706 0.0
C848 C 0.52698 0.00297 0.79763 0.0
C849 C 0.502 0.98967 0.80641 0.0
C850 C 0.49127 0.99047 0.79856 0.0
C851 C 0.50223 0.98858 0.82506 0.0
C852 C 0.51325 0.98758 0.83394 0.0
C853 C 0.51422 0.97559 0.83119 0.0
C854 C 0.52456 0.97462 0.83979 0.0
C855 C 0.53422 0.98577 0.85097 0.0
C856 C 0.53331 0.99784 0.85351 0.0
C857 C 0.5228 0.99867 0.8452 0.0
H858 H 0.02954 0.53427 0.8401 0.0
H859 H 0.02929 0.55212 0.85945 0.0
H860 H 0.98891 0.53993 0.83866 0.0
H861 H 0.98878 0.52138 0.82045 0.0
H862 H 0.01429 0.50714 0.84007 0.0
H863 H 0.02332 0.54175 0.79676 0.0
H864 H 0.019 0.55838 0.78191 0.0
H865 H 0.97888 0.52358 0.76445 0.0
H866 H 0.98324 0.507 0.77938 0.0
H867 H 0.98511 0.4722 0.77879 0.0
H868 H 0.98276 0.45191 0.76186 0.0
H869 H 0.02445 0.4644 0.77713 0.0
H870 H 0.02682 0.48478 0.79386 0.0
H871 H 0.00221 0.5 0.77582 0.0
H872 H 0.99283 0.46587 0.82132 0.0
H873 H 0.99647 0.44987 0.83883 0.0
H874 H 0.03807 0.48436 0.85171 0.0
H875 H 0.03423 0.50032 0.83444 0.0
C876 C 0.00925 0.52655 0.82864 0.0
C877 C 0.02061 0.53541 0.83976 0.0
C878 C 0.02052 0.54576 0.85068 0.0
C879 C 0.0091 0.54757 0.85062 0.0
C880 C 0.99781 0.53876 0.83929 0.0
C881 C 0.9978 0.52826 0.82861 0.0
C882 C 0.00916 0.51518 0.81759 0.0
C883 C 0.01189 0.50575 0.82595 0.0
C884 C 0.00577 0.51315 0.79922 0.0
C885 C 0.00353 0.52316 0.78937 0.0
C886 C 0.01359 0.53771 0.78975 0.0
C887 C 0.0111 0.5472 0.7813 0.0
C888 C -0.00144 0.54228 0.77212 0.0
C889 C 0.98868 0.52766 0.77129 0.0
C890 C 0.99115 0.51818 0.77983 0.0
C891 C 0.00607 0.4799 0.78778 0.0
C892 C 0.99378 0.47063 0.77838 0.0
C893 C 0.99246 0.45906 0.7687 0.0
C894 C 0.0034 0.45655 0.76826 0.0
C895 C 0.01577 0.46596 0.77746 0.0
C896 C 0.01713 0.47759 0.78703 0.0
C897 C 0.00724 0.49195 0.79837 0.0
C898 C 0.00472 0.5015 0.78991 0.0
C899 C 0.01093 0.49415 0.81661 0.0
C900 C 0.01328 0.48426 0.82654 0.0
C901 C 0.00277 0.46993 0.82778 0.0
C902 C 0.0049 0.46079 0.83774 0.0
C903 C 0.01757 0.46583 0.8467 0.0
C904 C 0.02812 0.48017 0.84521 0.0
C905 C 0.02597 0.4893 0.8353 0.0
H906 H 0.45497 0.5106 0.84197 0.0
H907 H 0.43669 0.49164 0.85974 0.0
H908 H 0.44768 0.46248 0.83761 0.0
H909 H 0.46623 0.48156 0.82042 0.0
H910 H 0.48259 0.52145 0.8441 0.0
H911 H 0.44729 0.4973 0.79929 0.0
H912 H 0.43013 0.47657 0.78175 0.0
H913 H 0.46291 0.47164 0.76001 0.0
H914 H 0.47997 0.49202 0.77794 0.0
H915 H 0.51413 0.5242 0.78227 0.0
H916 H 0.53536 0.54068 0.76639 0.0
H917 H 0.5329 0.57581 0.78775 0.0
H918 H 0.51144 0.55923 0.80341 0.0
H919 H 0.48892 0.51824 0.77905 0.0
H920 H 0.52188 0.53565 0.82747 0.0
H921 H 0.53951 0.55238 0.84854 0.0
H922 H 0.51304 0.56829 0.86341 0.0
H923 H 0.49528 0.55117 0.84265 0.0
C924 C 0.46188 0.49747 0.82976 0.0
C925 C 0.45338 0.5001 0.8409 0.0
C926 C 0.44287 0.48923 0.85093 0.0
C927 C 0.44073 0.47555 0.85008 0.0
C928 C 0.44915 0.47292 0.8387 0.0
C929 C 0.45966 0.48379 0.82873 0.0
C930 C 0.47357 0.50917 0.81994 0.0
C931 C 0.48383 0.52089 0.8298 0.0
C932 C 0.47536 0.50824 0.80136 0.0
C933 C 0.46492 0.49614 0.79012 0.0
C934 C 0.45078 0.4917 0.79086 0.0
C935 C 0.44099 0.4799 0.78081 0.0
C936 C 0.44523 0.47254 0.76956 0.0
C937 C 0.4594 0.47722 0.76845 0.0
C938 C 0.46914 0.48887 0.77869 0.0
C939 C 0.5112 0.54046 0.7941 0.0
C940 C 0.5181 0.53544 0.78348 0.0
C941 C 0.53022 0.54486 0.7744 0.0
C942 C 0.53574 0.55951 0.77581 0.0
C943 C 0.52893 0.56457 0.78657 0.0
C944 C 0.51669 0.55511 0.79554 0.0
C945 C 0.49814 0.53022 0.80331 0.0
C946 C 0.48757 0.51888 0.7933 0.0
C947 C 0.4962 0.53128 0.8218 0.0
C948 C 0.50732 0.54224 0.83346 0.0
C949 C 0.51997 0.54287 0.83512 0.0
C950 C 0.53007 0.5525 0.84714 0.0
C951 C 0.52771 0.5617 0.85773 0.0
C952 C 0.51512 0.56122 0.8557 0.0
C953 C 0.50499 0.55151 0.84377 0.0
H954 H 0.60305 0.82183 0.51364 0.0
H955 H 0.60358 0.84011 0.4955 0.0
H956 H 0.64655 0.869 0.51018 0.0
H957 H 0.64598 0.85073 0.52812 0.0
H958 H 0.61941 0.81019 0.50955 0.0
H959 H 0.61272 0.83824 0.55555 0.0
H960 H 0.62023 0.86131 0.56969 0.0
H961 H 0.65938 0.86594 0.58364 0.0
H962 H 0.65205 0.84321 0.56894 0.0
H963 H 0.65031 0.80999 0.56934 0.0
H964 H 0.65536 0.79387 0.58397 0.0
H965 H 0.61551 0.75835 0.567 0.0
H966 H 0.61043 0.77459 0.55245 0.0
H967 H 0.63207 0.81694 0.57359 0.0
H968 H 0.64518 0.79736 0.52678 0.0
H969 H 0.64604 0.7802 0.50676 0.0
H970 H 0.6034 0.76361 0.49134 0.0
H971 H 0.60269 0.78104 0.51136 0.0
C972 C 0.6244 0.83499 0.52244 0.0
C973 C 0.61255 0.83214 0.51301 0.0
C974 C 0.61287 0.84257 0.50265 0.0
C975 C 0.62508 0.85602 0.50152 0.0
C976 C 0.63691 0.85884 0.51107 0.0
C977 C 0.6366 0.8484 0.52131 0.0
C978 C 0.62428 0.82378 0.53281 0.0
C979 C 0.62179 0.81145 0.52368 0.0
C980 C 0.62809 0.8258 0.55102 0.0
C981 C 0.63188 0.83906 0.56103 0.0
C982 C 0.62291 0.84423 0.56169 0.0
C983 C 0.62717 0.85736 0.56988 0.0
C984 C 0.64046 0.86551 0.57764 0.0
C985 C 0.64919 0.86005 0.5775 0.0
C986 C 0.64495 0.84698 0.56928 0.0
C987 C 0.63002 0.79351 0.55973 0.0
C988 C 0.64257 0.79875 0.56895 0.0
C989 C 0.64544 0.78953 0.57732 0.0
C990 C 0.63583 0.77485 0.57663 0.0
C991 C 0.62318 0.7696 0.56758 0.0
C992 C 0.62026 0.77886 0.55928 0.0
C993 C 0.62738 0.80342 0.55028 0.0
C994 C 0.62927 0.81544 0.5596 0.0
C995 C 0.62376 0.80149 0.53201 0.0
C996 C 0.62381 0.79035 0.52074 0.0
C997 C 0.63593 0.78986 0.51934 0.0
C998 C 0.63639 0.78001 0.50789 0.0
C999 C 0.62476 0.77047 0.49749 0.0
C1000 C 0.61257 0.77089 0.49905 0.0
C1001 C 0.61212 0.78078 0.51052 0.0
H1002 H 0.16831 0.78632 0.51479 0.0
H1003 H 0.14952 0.77081 0.49424 0.0
H1004 H 0.12202 0.78056 0.52288 0.0
H1005 H 0.14109 0.79666 0.54272 0.0
H1006 H 0.17964 0.81422 0.51831 0.0
H1007 H 0.15451 0.77446 0.55785 0.0
H1008 H 0.13332 0.75696 0.57328 0.0
H1009 H 0.13214 0.7908 0.60131 0.0
H1010 H 0.15306 0.80819 0.5857 0.0
H1011 H 0.18647 0.84096 0.58748 0.0
H1012 H 0.20435 0.86192 0.60378 0.0
H1013 H 0.23622 0.8592 0.57501 0.0
H1014 H 0.21827 0.83797 0.559 0.0
H1015 H 0.17847 0.81477 0.58434 0.0
H1016 H 0.1962 0.85277 0.54443 0.0
H1017 H 0.21216 0.87258 0.52585 0.0
H1018 H 0.22341 0.84563 0.49754 0.0
H1019 H 0.2077 0.82594 0.51654 0.0
C1020 C 0.15609 0.79256 0.53041 0.0
C1021 C 0.15819 0.78502 0.51671 0.0
C1022 C 0.14738 0.77605 0.50506 0.0
C1023 C 0.13423 0.77442 0.50687 0.0
C1024 C 0.13206 0.78169 0.52093 0.0
C1025 C 0.14291 0.79077 0.53247 0.0
C1026 C 0.16799 0.80319 0.54152 0.0
C1027 C 0.17954 0.81413 0.53277 0.0
C1028 C 0.16755 0.80344 0.56038 0.0
C1029 C 0.15532 0.79265 0.57049 0.0
C1030 C 0.14967 0.7781 0.5673 0.0
C1031 C 0.13759 0.76812 0.57611 0.0
C1032 C 0.1311 0.77254 0.58848 0.0
C1033 C 0.13701 0.78709 0.59202 0.0
C1034 C 0.14897 0.79703 0.58309 0.0
C1035 C 0.201 0.83795 0.57185 0.0
C1036 C 0.1973 0.8447 0.58488 0.0
C1037 C 0.20752 0.85668 0.59419 0.0
C1038 C 0.22166 0.86221 0.59058 0.0
C1039 C 0.22539 0.85525 0.57789 0.0
C1040 C 0.21515 0.84314 0.56873 0.0
C1041 C 0.19003 0.82587 0.56109 0.0
C1042 C 0.17871 0.81465 0.56989 0.0
C1043 C 0.19035 0.82565 0.54225 0.0
C1044 C 0.20087 0.83792 0.53198 0.0
C1045 C 0.20232 0.85121 0.53447 0.0
C1046 C 0.21134 0.86248 0.52373 0.0
C1047 C 0.21901 0.86065 0.51018 0.0
C1048 C 0.21778 0.84742 0.50799 0.0
C1049 C 0.20874 0.83614 0.51875 0.0
H1050 H 0.16968 0.36647 0.50286 0.0
H1051 H 0.14962 0.36321 0.48665 0.0
H1052 H 0.15105 0.39718 0.51788 0.0
H1053 H 0.17124 0.40039 0.53434 0.0
H1054 H 0.19602 0.38831 0.50709 0.0
H1055 H 0.15633 0.35913 0.54099 0.0
H1056 H 0.13437 0.35209 0.55577 0.0
H1057 H 0.15594 0.38697 0.5936 0.0
H1058 H 0.17803 0.39423 0.57839 0.0
H1059 H 0.22023 0.39463 0.57755 0.0
H1060 H 0.23478 0.38748 0.59229 0.0
H1061 H 0.22073 0.3526 0.55435 0.0
H1062 H 0.20621 0.35966 0.53991 0.0
H1063 H 0.19102 0.3785 0.5717 0.0
H1064 H 0.23341 0.40087 0.53383 0.0
H1065 H 0.25079 0.39875 0.51631 0.0
H1066 H 0.21793 0.36552 0.48393 0.0
H1067 H 0.20073 0.36758 0.5014 0.0
C1068 C 0.17195 0.38368 0.51977 0.0
C1069 C 0.16581 0.37335 0.5061 0.0
C1070 C 0.15428 0.3714 0.49697 0.0
C1071 C 0.14877 0.37987 0.50117 0.0
C1072 C 0.15515 0.39054 0.51445 0.0
C1073 C 0.16663 0.39237 0.52382 0.0
C1074 C 0.18333 0.38455 0.53035 0.0
C1075 C 0.19506 0.38642 0.52128 0.0
C1076 C 0.18192 0.3818 0.54879 0.0
C1077 C 0.16875 0.37744 0.5583 0.0
C1078 C 0.15633 0.36541 0.5523 0.0
C1079 C 0.1438 0.36137 0.56077 0.0
C1080 C 0.14345 0.3691 0.57567 0.0
C1081 C 0.15595 0.38085 0.58211 0.0
C1082 C 0.16852 0.38501 0.57344 0.0
C1083 C 0.21242 0.37787 0.5574 0.0
C1084 C 0.22033 0.38546 0.57245 0.0
C1085 C 0.22858 0.38135 0.58086 0.0
C1086 C 0.22901 0.36959 0.57431 0.0
C1087 C 0.22086 0.36189 0.55945 0.0
C1088 C 0.21257 0.36592 0.55118 0.0
C1089 C 0.20362 0.38205 0.54834 0.0
C1090 C 0.19238 0.38116 0.55772 0.0
C1091 C 0.20502 0.3848 0.5299 0.0
C1092 C 0.21579 0.38439 0.5189 0.0
C1093 C 0.23 0.39319 0.52289 0.0
C1094 C 0.23989 0.392 0.51288 0.0
C1095 C 0.23566 0.38188 0.49889 0.0
C1096 C 0.22146 0.37327 0.4948 0.0
C1097 C 0.21164 0.37454 0.50465 0.0
C1098 C 0.00513 0.38682 0.05013 0.0
C1099 C 0.99343 0.37438 0.04333 0.0
C1100 C 0.00365 0.39513 0.06318 0.0
C1101 C 0.98059 0.39429 0.09854 0.0
H1102 H 0.00112 0.43497 0.09273 0.0
C1103 C 0.97344 0.43234 0.14546 0.0
C1104 C 0.98538 0.44553 0.14982 0.0
C1105 C 0.97406 0.42327 0.1327 0.0
C1106 C 0.99546 0.42365 0.09471 0.0
H1107 H 0.971 0.36079 0.04512 0.0
H1108 H 0.96844 0.37534 0.0681 0.0
H1109 H 0.00276 0.41984 0.07004 0.0
H1110 H 0.00735 0.45943 0.14419 0.0
H1111 H 0.00852 0.44345 0.12249 0.0
H1112 H 0.97345 0.39812 0.12337 0.0
C1113 C 0.97875 0.37861 0.06326 0.0
C1114 C 0.99636 0.41498 0.08166 0.0
C1115 C 0.98021 0.37033 0.05006 0.0
C1116 C 0.99799 0.4493 0.14134 0.0
C1117 C -0.00139 0.44021 0.12868 0.0
C1118 C 0.97975 0.40299 0.11169 0.0
C1119 C 0.99046 0.39115 0.06984 0.0
C1120 C 0.98902 0.40022 0.08348 0.0
C1121 C 0.98663 0.42715 0.12404 0.0
C1122 C 0.98725 0.41779 0.10998 0.0
H1123 H 0.01547 0.39024 0.0453 0.0
H1124 H 0.01288 0.40464 0.06817 0.0
H1125 H 0.97492 0.38295 0.10037 0.0
H1126 H 0.9636 0.42902 0.1519 0.0
H1127 H 0.9646 0.41334 0.12937 0.0
C1128 C 0.62491 0.62078 0.07175 0.0
C1129 C 0.635 0.62089 0.06053 0.0
C1130 C 0.61862 0.61079 0.08504 0.0
C1131 C 0.6117 0.57577 0.09805 0.0
H1132 H 0.59975 0.58545 0.14188 0.0
C1133 C 0.56985 0.5333 0.14319 0.0
C1134 C 0.57035 0.53606 0.16161 0.0
C1135 C 0.57942 0.54369 0.13181 0.0
C1136 C 0.6032 0.58256 0.12988 0.0
H1137 H 0.64665 0.61079 0.05473 0.0
H1138 H 0.63594 0.59354 0.07831 0.0
H1139 H 0.61383 0.60383 0.12087 0.0
H1140 H 0.58157 0.55156 0.1827 0.0
H1141 H 0.59861 0.56961 0.16292 0.0
H1142 H 0.60136 0.55455 0.10729 0.0
C1143 C 0.63265 0.60099 0.07656 0.0
C1144 C 0.61111 0.5931 0.11766 0.0
C1145 C 0.63885 0.61092 0.0631 0.0
C1146 C 0.58088 0.54924 0.16851 0.0
C1147 C 0.59059 0.55958 0.15715 0.0
C1148 C 0.60392 0.56524 0.11038 0.0
C1149 C 0.62237 0.60074 0.08762 0.0
C1150 C 0.61519 0.58979 0.10139 0.0
C1151 C 0.58983 0.55703 0.13861 0.0
C1152 C 0.59931 0.56844 0.12629 0.0
H1153 H 0.62163 0.62825 0.07005 0.0
H1154 H 0.61055 0.61076 0.093 0.0
H1155 H 0.61457 0.57278 0.08563 0.0
H1156 H 0.56172 0.52328 0.1375 0.0
H1157 H 0.57831 0.54139 0.11761 0.0
C1158 C 0.37751 0.99888 0.06353 0.0
C1159 C 0.37731 0.01073 0.05794 0.0
C1160 C 0.38623 0.00016 0.07734 0.0
C1161 C 0.41829 0.02609 0.1011 0.0
H1162 H 0.40561 0.99555 0.13433 0.0
C1163 C 0.45292 0.02686 0.15792 0.0
C1164 C 0.45312 0.01435 0.15922 0.0
C1165 C 0.44317 0.02722 0.14707 0.0
C1166 C 0.4093 0.00414 0.12512 0.0
H1167 H 0.38603 0.03323 0.06259 0.0
H1168 H 0.40125 0.03545 0.08693 0.0
H1169 H 0.38937 0.99487 0.11275 0.0
H1170 H 0.44327 0.99246 0.14991 0.0
H1171 H 0.42618 0.99305 0.13131 0.0
H1172 H 0.43828 0.03525 0.11343 0.0
C1173 C 0.39473 0.02519 0.08045 0.0
C1174 C 0.40002 0.00375 0.11274 0.0
C1175 C 0.38598 0.02391 0.06657 0.0
C1176 C 0.44325 0.00219 0.14956 0.0
C1177 C 0.43346 0.00253 0.13885 0.0
C1178 C 0.42757 0.02651 0.11357 0.0
C1179 C 0.39496 0.01331 0.08597 0.0
C1180 C 0.40447 0.01455 0.10031 0.0
C1181 C 0.43335 0.01505 0.13742 0.0
C1182 C 0.42323 0.01538 0.12544 0.0
H1183 H 0.37101 0.98858 0.05714 0.0
H1184 H 0.38633 0.99085 0.08101 0.0
H1185 H 0.42208 0.03451 0.09161 0.0
H1186 H 0.46025 0.03636 0.16537 0.0
H1187 H 0.44325 0.03698 0.14632 0.0
C1188 C 0.36406 0.9828 0.96926 0.0
C1189 C 0.36684 0.99627 0.97466 0.0
C1190 C 0.37213 0.98141 0.95603 0.0
C1191 C 0.40695 0.00165 0.93634 0.0
H1192 H 0.39186 0.97211 0.89953 0.0
C1193 C 0.44218 0.98991 0.89341 0.0
C1194 C 0.43965 0.9881 0.87497 0.0
C1195 C 0.43265 0.99021 0.90509 0.0
C1196 C 0.3962 0.98046 0.90969 0.0
H1197 H 0.37986 0.01879 0.96984 0.0
H1198 H 0.3938 0.01634 0.94678 0.0
H1199 H 0.37611 0.9742 0.9203 0.0
H1200 H 0.42497 0.98494 0.85436 0.0
H1201 H 0.40824 0.98544 0.87485 0.0
H1202 H 0.42698 0.00802 0.92574 0.0
C1203 C 0.38556 0.00687 0.95296 0.0
C1204 C 0.38721 0.98157 0.92165 0.0
C1205 C 0.37752 0.00826 0.96614 0.0
C1206 C 0.42717 0.98623 0.86851 0.0
C1207 C 0.41759 0.98651 0.88023 0.0
C1208 C 0.41591 0.0005 0.92447 0.0
C1209 C 0.38313 0.99347 0.94798 0.0
C1210 C 0.3925 0.99221 0.93509 0.0
C1211 C 0.42033 0.9887 0.89862 0.0
C1212 C 0.41066 0.98987 0.91105 0.0
H1213 H 0.35589 0.97336 0.97555 0.0
H1214 H 0.37006 0.97095 0.95254 0.0
H1215 H 0.41137 0.00985 0.94667 0.0
H1216 H 0.45155 0.99106 0.89884 0.0
H1217 H 0.43493 0.99163 0.91922 0.0
C1218 C 0.01541 0.37493 0.93741 0.0
C1219 C 0.02052 0.3794 0.95484 0.0
C1220 C 0.01697 0.38475 0.92488 0.0
C1221 C 0.02102 0.41971 0.92325 0.0
H1222 H 0.02812 0.41739 0.87299 0.0
C1223 C 0.0263 0.46131 0.87471 0.0
C1224 C 0.01956 0.45634 0.85815 0.0
C1225 C 0.02769 0.4523 0.88588 0.0
C1226 C 0.02602 0.41809 0.88697 0.0
H1227 H 0.03199 0.39778 0.97247 0.0
H1228 H 0.03482 0.41487 0.95059 0.0
H1229 H 0.02873 0.40104 0.89354 0.0
H1230 H 0.00933 0.43805 0.84016 0.0
H1231 H 0.01146 0.42219 0.85988 0.0
H1232 H 0.01805 0.43653 0.91675 0.0
C1233 C 0.02937 0.40375 0.9467 0.0
C1234 C 0.02639 0.40875 0.89873 0.0
C1235 C 0.02782 0.39396 0.95921 0.0
C1236 C 0.01444 0.44217 0.85291 0.0
C1237 C 0.01581 0.43313 0.86412 0.0
C1238 C 0.02062 0.429 0.91152 0.0
C1239 C 0.02366 0.39923 0.92954 0.0
C1240 C 0.02388 0.40945 0.91701 0.0
C1241 C 0.02232 0.43806 0.88082 0.0
C1242 C 0.02308 0.4283 0.89324 0.0
H1243 H 0.00975 0.3638 0.93359 0.0
H1244 H 0.01238 0.38091 0.91181 0.0
H1245 H 0.01873 0.42033 0.93718 0.0
H1246 H 0.03023 0.47211 0.87927 0.0
H1247 H 0.03293 0.45649 0.89854 0.0
C1248 C 0.62197 0.62697 0.96503 0.0
C1249 C 0.61831 0.62956 0.98205 0.0
C1250 C 0.6121 0.62098 0.95137 0.0
C1251 C 0.57467 0.59828 0.94399 0.0
H1252 H 0.58347 0.61211 0.89582 0.0
C1253 C 0.53366 0.57336 0.88817 0.0
C1254 C 0.53807 0.57124 0.87141 0.0
C1255 C 0.54333 0.58162 0.90142 0.0
C1256 C 0.58089 0.60802 0.90916 0.0
H1257 H 0.60147 0.62806 0.998 0.0
H1258 H 0.58421 0.61747 0.97414 0.0
H1259 H 0.60065 0.6244 0.91946 0.0
H1260 H 0.55619 0.57661 0.85529 0.0
H1261 H 0.57301 0.59056 0.87859 0.0
H1262 H 0.55511 0.58168 0.93373 0.0
C1263 C 0.59472 0.62006 0.97142 0.0
C1264 C 0.59072 0.6151 0.9227 0.0
C1265 C 0.60462 0.62618 0.98505 0.0
C1266 C 0.55241 0.57784 0.86812 0.0
C1267 C 0.56208 0.58602 0.88143 0.0
C1268 C 0.56489 0.59114 0.93044 0.0
C1269 C 0.59835 0.61733 0.95448 0.0
C1270 C 0.58773 0.61025 0.94023 0.0
C1271 C 0.55765 0.58788 0.89832 0.0
C1272 C 0.5679 0.59587 0.91283 0.0
H1273 H 0.63244 0.62949 0.96226 0.0
H1274 H 0.61517 0.61887 0.93849 0.0
H1275 H 0.57216 0.59418 0.95733 0.0
H1276 H 0.52271 0.56833 0.89128 0.0
H1277 H 0.53954 0.583 0.91417 0.0
C1278 C 0.99453 0.62323 0.95954 0.0
C1279 C 0.00687 0.63375 0.96792 0.0
C1280 C 0.99488 0.61461 0.94592 0.0
C1281 C 0.0168 0.61199 0.91185 0.0
H1282 H 0.99258 0.57147 0.91751 0.0
C1283 C 0.02102 0.57126 0.86684 0.0
C1284 C 0.00879 0.55824 0.86277 0.0
C1285 C 0.02081 0.58093 0.87896 0.0
C1286 C -0.00076 0.58274 0.91548 0.0
H1287 H 0.0293 0.64382 0.96816 0.0
H1288 H 0.0299 0.62884 0.94406 0.0
H1289 H 0.99212 0.5877 0.93953 0.0
H1290 H 0.98665 0.54538 0.8682 0.0
H1291 H 0.98614 0.56249 0.88843 0.0
H1292 H 0.02372 0.6071 0.8876 0.0
C1293 C 0.01998 0.62726 0.94817 0.0
C1294 C -0.00099 0.59203 0.92819 0.0
C1295 C 0.01961 0.63577 0.962 0.0
C1296 C 0.99627 0.55533 0.87078 0.0
C1297 C 0.99602 0.56508 0.88269 0.0
C1298 C 0.01689 0.60269 0.89897 0.0
C1299 C 0.00759 0.61646 0.94022 0.0
C1300 C 0.00781 0.60673 0.92652 0.0
C1301 C 0.00831 0.57793 0.88715 0.0
C1302 C 0.00812 0.58793 0.90064 0.0
H1303 H 0.98453 0.6214 0.96377 0.0
H1304 H 0.9852 0.60643 0.93989 0.0
H1305 H 0.02361 0.6233 0.91022 0.0
H1306 H 0.03082 0.574 0.86072 0.0
H1307 H 0.03051 0.59063 0.88216 0.0
C1308 C 0.35437 0.37759 0.94103 0.0
C1309 C 0.35622 0.38052 0.95946 0.0
C1310 C 0.36259 0.38812 0.92888 0.0
C1311 C 0.39665 0.42123 0.9261 0.0
H1312 H 0.38263 0.42545 0.88137 0.0
C1313 C 0.43344 0.4553 0.87043 0.0
C1314 C 0.43023 0.46424 0.86165 0.0
C1315 C 0.42386 0.44504 0.88191 0.0
C1316 C 0.38667 0.42446 0.89386 0.0
H1317 H 0.36773 0.39698 0.97957 0.0
H1318 H 0.38191 0.41534 0.95842 0.0
H1319 H 0.36655 0.40802 0.90258 0.0
H1320 H 0.41429 0.46916 0.85773 0.0
H1321 H 0.39758 0.45132 0.87805 0.0
H1322 H 0.41671 0.43772 0.91756 0.0
C1323 C 0.3743 0.40484 0.95334 0.0
C1324 C 0.37749 0.4144 0.90593 0.0
C1325 C 0.36611 0.39433 0.96546 0.0
C1326 C 0.41712 0.46253 0.86443 0.0
C1327 C 0.4075 0.45222 0.87592 0.0
C1328 C 0.4058 0.43124 0.91405 0.0
C1329 C 0.37282 0.4018 0.93493 0.0
C1330 C 0.38239 0.41267 0.92218 0.0
C1331 C 0.41083 0.44346 0.88492 0.0
C1332 C 0.40095 0.43293 0.89776 0.0
H1333 H 0.34684 0.36706 0.93597 0.0
H1334 H 0.36126 0.38541 0.91478 0.0
H1335 H 0.4008 0.42005 0.93838 0.0
H1336 H 0.4435 0.45644 0.86875 0.0
H1337 H 0.42667 0.43833 0.88846 0.0
C1338 C 0.63008 0.99426 0.93639 0.0
C1339 C 0.6254 0.98625 0.95191 0.0
C1340 C 0.6206 0.99317 0.92376 0.0
C1341 C 0.5852 0.97096 0.9066 0.0
H1342 H 0.58839 0.00651 0.89597 0.0
C1343 C 0.54144 0.97317 0.871 0.0
C1344 C 0.54507 0.98477 0.8603 0.0
C1345 C 0.5516 0.97272 0.88083 0.0
C1346 C 0.58746 0.99649 0.89842 0.0
H1347 H 0.60715 0.9703 0.96594 0.0
H1348 H 0.59057 0.96819 0.94359 0.0
H1349 H 0.60557 0.0065 0.91501 0.0
H1350 H 0.56212 0.00466 0.85073 0.0
H1351 H 0.57998 0.00364 0.86719 0.0
H1352 H 0.56725 0.96092 0.88977 0.0
C1353 C 0.60159 0.97538 0.94133 0.0
C1354 C 0.5973 0.99651 0.90944 0.0
C1355 C 0.61106 0.97664 0.95413 0.0
C1356 C 0.55907 0.99568 0.85909 0.0
C1357 C 0.56926 0.99511 0.86863 0.0
C1358 C 0.57546 0.97095 0.8953 0.0
C1359 C 0.60626 0.98387 0.92625 0.0
C1360 C 0.59619 0.98375 0.91376 0.0
C1361 C 0.56565 0.98375 0.87992 0.0
C1362 C 0.57638 0.98371 0.89119 0.0
H1363 H 0.64105 0.00178 0.93429 0.0
H1364 H 0.62445 -0.00024 0.91216 0.0
H1365 H 0.58419 0.96099 0.90967 0.0
H1366 H 0.53068 0.96469 0.87224 0.0
H1367 H 0.54833 0.96391 0.88956 0.0
C1368 C 0.61424 0.01174 0.03346 0.0
C1369 C 0.62246 0.00589 0.0361 0.0
C1370 C 0.60772 0.01414 0.04787 0.0
C1371 C 0.59482 0.00172 0.09288 0.0
H1372 H 0.59272 0.03542 0.09692 0.0
C1373 C 0.5678 0.01121 0.15246 0.0
C1374 C 0.55915 0.01632 0.14847 0.0
C1375 C 0.57677 0.01109 0.13956 0.0
C1376 C 0.59312 0.0259 0.09591 0.0
H1377 H 0.63054 0.99827 0.05601 0.0
H1378 H 0.61917 0.00247 0.08112 0.0
H1379 H 0.6061 0.0331 0.07276 0.0
H1380 H 0.55316 0.02538 0.12787 0.0
H1381 H 0.56869 0.02507 0.10534 0.0
H1382 H 0.58163 0.99434 0.11574 0.0
C1383 C 0.61767 0.00508 0.06788 0.0
C1384 C 0.6008 0.02458 0.08208 0.0
C1385 C 0.62423 0.00274 0.0535 0.0
C1386 C 0.55985 0.02157 0.13143 0.0
C1387 C 0.56877 0.0214 0.11852 0.0
C1388 C 0.58711 0.003 0.10666 0.0
C1389 C 0.60924 0.01068 0.06521 0.0
C1390 C 0.60165 0.01243 0.08034 0.0
C1391 C 0.57724 0.01603 0.12236 0.0
C1392 C 0.58607 0.01506 0.10826 0.0
H1393 H 0.61267 0.0143 0.02023 0.0
H1394 H 0.60118 0.01834 0.04536 0.0
H1395 H 0.59511 0.99213 0.09175 0.0
H1396 H 0.56763 0.00728 0.16555 0.0
H1397 H 0.58332 0.0071 0.14306 0.0
C1398 C 0.00474 0.628 0.05971 0.0
C1399 C 0.99349 0.62776 0.05164 0.0
C1400 C 0.00257 0.61914 0.07378 0.0
C1401 C 0.97591 0.58598 0.09431 0.0
H1402 H 0.00262 0.59966 0.13301 0.0
C1403 C 0.97071 0.55095 0.15325 0.0
C1404 C 0.9829 0.55118 0.15749 0.0
C1405 C 0.97117 0.56083 0.14167 0.0
C1406 C 0.9951 0.59568 0.12226 0.0
H1407 H 0.9711 0.61808 0.05213 0.0
H1408 H 0.96731 0.60262 0.07693 0.0
H1409 H 0.00477 0.61597 0.11034 0.0
H1410 H 0.00513 0.56199 0.15279 0.0
H1411 H 0.00594 0.57929 0.13287 0.0
H1412 H 0.96635 0.56563 0.1062 0.0
C1413 C 0.97781 0.6096 0.07219 0.0
C1414 C 0.99633 0.60501 0.10926 0.0
C1415 C 0.97999 0.61849 0.05804 0.0
C1416 C 0.99558 0.56166 0.15012 0.0
C1417 C 0.99605 0.57158 0.13866 0.0
C1418 C 0.97464 0.57665 0.10738 0.0
C1419 C 0.98909 0.60983 0.08021 0.0
C1420 C 0.98693 0.6002 0.09492 0.0
C1421 C 0.98385 0.57121 0.1342 0.0
C1422 C 0.98439 0.58135 0.1213 0.0
H1423 H 0.01527 0.63496 0.05508 0.0
H1424 H 0.01146 0.6194 0.07941 0.0
H1425 H 0.96858 0.5819 0.08336 0.0
H1426 H 0.9608 0.54315 0.1589 0.0
H1427 H 0.96163 0.56039 0.13861 0.0
C1428 C 0.37756 0.37412 0.05525 0.0
C1429 C 0.37127 0.38126 0.049 0.0
C1430 C 0.38799 0.38046 0.06823 0.0
C1431 C 0.41407 0.41553 0.08696 0.0
H1432 H 0.41482 0.3946 0.12694 0.0
C1433 C 0.44978 0.44366 0.14708 0.0
C1434 C 0.45661 0.43748 0.15456 0.0
C1435 C 0.43947 0.43631 0.13421 0.0
C1436 C 0.41485 0.40054 0.11573 0.0
H1437 H 0.37083 0.40052 0.05174 0.0
H1438 H 0.38893 0.4115 0.07437 0.0
H1439 H 0.39653 0.38256 0.10446 0.0
H1440 H 0.45782 0.41864 0.1545 0.0
H1441 H 0.43992 0.40586 0.13171 0.0
H1442 H 0.43234 0.43349 0.09811 0.0
C1443 C 0.38593 0.40109 0.06908 0.0
C1444 C 0.40437 0.39365 0.10287 0.0
C1445 C 0.3755 0.39475 0.05618 0.0
C1446 C 0.45283 0.42373 0.14889 0.0
C1447 C 0.44248 0.41636 0.13597 0.0
C1448 C 0.42454 0.42239 0.09975 0.0
C1449 C 0.39238 0.39408 0.07515 0.0
C1450 C 0.40378 0.40113 0.08846 0.0
C1451 C 0.43575 0.42262 0.12841 0.0
C1452 C 0.42496 0.41504 0.11441 0.0
H1453 H 0.37453 0.3637 0.04999 0.0
H1454 H 0.39283 0.37484 0.07257 0.0
H1455 H 0.41408 0.42151 0.07581 0.0
H1456 H 0.45255 0.4543 0.15094 0.0
H1457 H 0.43436 0.44137 0.12884 0.0
C1458 C 0.64195 0.71003 0.37056 0.0
C1459 C 0.65187 0.70628 0.37311 0.0
C1460 C 0.6379 0.7155 0.38475 0.0
C1461 C 0.65005 0.73324 0.42894 0.0
H1462 H 0.61223 0.72472 0.43358 0.0
C1463 C 0.63307 0.75415 0.48867 0.0
C1464 C 0.6257 0.76068 0.48445 0.0
C1465 C 0.63513 0.74608 0.47584 0.0
C1466 C 0.62284 0.72723 0.4324 0.0
H1467 H 0.66499 0.70488 0.39269 0.0
H1468 H 0.65773 0.7141 0.41747 0.0
H1469 H 0.61802 0.71326 0.40975 0.0
H1470 H 0.61437 0.76346 0.46352 0.0
H1471 H 0.61784 0.74922 0.44121 0.0
H1472 H 0.65487 0.74721 0.45156 0.0
C1473 C 0.6533 0.71316 0.40443 0.0
C1474 C 0.62617 0.7207 0.41872 0.0
C1475 C 0.65742 0.7078 0.39023 0.0
C1476 C 0.61995 0.75845 0.4673 0.0
C1477 C 0.62195 0.75031 0.45449 0.0
C1478 C 0.64669 0.73967 0.44266 0.0
C1479 C 0.64362 0.71724 0.40184 0.0
C1480 C 0.63985 0.72371 0.41675 0.0
C1481 C 0.6298 0.74428 0.45853 0.0
C1482 C 0.63308 0.73682 0.44447 0.0
H1483 H 0.6375 0.70902 0.35752 0.0
H1484 H 0.63056 0.7187 0.3822 0.0
H1485 H 0.66074 0.73603 0.42765 0.0
H1486 H 0.6374 0.75542 0.50185 0.0
H1487 H 0.64102 0.74136 0.47943 0.0
C1488 C 0.29227 0.94668 0.39738 0.0
C1489 C 0.28594 0.95312 0.38922 0.0
C1490 C 0.28553 0.93716 0.41112 0.0
C1491 C 0.25051 0.91366 0.42982 0.0
H1492 H 0.27071 0.91322 0.47085 0.0
C1493 C 0.22233 0.8801 0.49065 0.0
C1494 C 0.22755 0.87221 0.49766 0.0
C1495 C 0.22991 0.8904 0.47805 0.0
C1496 C 0.26497 0.91315 0.45939 0.0
H1497 H 0.26772 0.95486 0.38937 0.0
H1498 H 0.2561 0.93846 0.41346 0.0
H1499 H 0.28312 0.93049 0.44764 0.0
H1500 H 0.245 0.86921 0.49731 0.0
H1501 H 0.25824 0.88719 0.4751 0.0
H1502 H 0.23237 0.89638 0.44155 0.0
C1503 C 0.26614 0.94054 0.40903 0.0
C1504 C 0.27207 0.92302 0.44609 0.0
C1505 C 0.27284 0.95001 0.39528 0.0
C1506 C 0.24067 0.87505 0.49204 0.0
C1507 C 0.24829 0.88542 0.47946 0.0
C1508 C 0.24343 0.90385 0.44311 0.0
C1509 C 0.27234 0.93389 0.41701 0.0
C1510 C 0.2649 0.92341 0.43117 0.0
C1511 C 0.2429 0.89307 0.47216 0.0
C1512 C 0.25056 0.90351 0.45807 0.0
H1513 H 0.30235 0.94884 0.393 0.0
H1514 H 0.29053 0.93212 0.41685 0.0
H1515 H 0.24472 0.91346 0.41833 0.0
H1516 H 0.2122 0.87807 0.49456 0.0
H1517 H 0.22556 0.89624 0.47283 0.0
C1518 C 0.04853 0.33789 0.40397 0.0
C1519 C 0.04959 0.34774 0.3917 0.0
C1520 C 0.05856 0.34199 0.41721 0.0
C1521 C 0.08658 0.37269 0.44204 0.0
H1522 H 0.10062 0.34784 0.44776 0.0
C1523 C 0.13615 0.3881 0.48276 0.0
C1524 C 0.13622 0.37721 0.4917 0.0
C1525 C 0.12489 0.38504 0.47192 0.0
C1526 C 0.09667 0.35479 0.44659 0.0
H1527 H 0.0618 0.36973 0.38407 0.0
H1528 H 0.07938 0.37688 0.40727 0.0
H1529 H 0.08228 0.34152 0.4263 0.0
H1530 H 0.1243 0.35488 0.49752 0.0
H1531 H 0.10449 0.34956 0.47909 0.0
H1532 H 0.10105 0.38598 0.46241 0.0
C1533 C 0.07073 0.366 0.40663 0.0
C1534 C 0.08617 0.35117 0.43423 0.0
C1535 C 0.06071 0.36188 0.39329 0.0
C1536 C 0.12456 0.3634 0.49049 0.0
C1537 C 0.11327 0.36037 0.47986 0.0
C1538 C 0.09708 0.37629 0.45454 0.0
C1539 C 0.06986 0.35604 0.41855 0.0
C1540 C 0.08098 0.36004 0.43184 0.0
C1541 C 0.11347 0.37105 0.47 0.0
C1542 C 0.10221 0.36734 0.45699 0.0
H1543 H 0.04006 0.32693 0.4032 0.0
H1544 H 0.0575 0.33413 0.42638 0.0
H1545 H 0.08271 0.37968 0.44054 0.0
H1546 H 0.14508 0.39883 0.48348 0.0
H1547 H 0.1254 0.3935 0.46445 0.0
C1548 C 0.02923 0.30147 0.31208 0.0
C1549 C 0.03341 0.31585 0.31248 0.0
C1550 C 0.0339 0.29604 0.29859 0.0
C1551 C 0.05034 0.30405 0.25377 0.0
H1552 H 0.06291 0.27918 0.26732 0.0
C1553 C 0.09139 0.28807 0.22731 0.0
C1554 C 0.0886 0.28643 0.20894 0.0
C1555 C 0.08247 0.28918 0.23931 0.0
C1556 C 0.05945 0.28612 0.26331 0.0
H1557 H 0.04567 0.33575 0.2989 0.0
H1558 H 0.05401 0.32638 0.27568 0.0
H1559 H 0.05169 0.28639 0.28935 0.0
H1560 H 0.07395 0.28409 0.1888 0.0
H1561 H 0.05816 0.28576 0.20984 0.0
H1562 H 0.05876 0.30438 0.22799 0.0
C1563 C 0.04692 0.31921 0.28556 0.0
C1564 C 0.05286 0.29013 0.27589 0.0
C1565 C 0.04222 0.32462 0.29899 0.0
C1566 C 0.07635 0.28531 0.20289 0.0
C1567 C 0.06739 0.28641 0.21492 0.0
C1568 C 0.05698 0.30009 0.2412 0.0
C1569 C 0.04287 0.30487 0.28522 0.0
C1570 C 0.04851 0.29939 0.27138 0.0
C1571 C 0.07049 0.28861 0.23325 0.0
C1572 C 0.06189 0.29132 0.24593 0.0
H1573 H 0.02238 0.29441 0.32223 0.0
H1574 H 0.03047 0.28491 0.29862 0.0
H1575 H 0.0469 0.311 0.24976 0.0
H1576 H 0.10063 0.28874 0.23243 0.0
H1577 H 0.08527 0.29102 0.25328 0.0
C1578 C 0.69296 0.72681 0.29155 0.0
C1579 C 0.6788 0.71658 0.29384 0.0
C1580 C 0.69725 0.73672 0.27805 0.0
C1581 C 0.68481 0.74362 0.23608 0.0
H1582 H 0.71396 0.78265 0.24579 0.0
C1583 C 0.69214 0.79009 0.19536 0.0
C1584 C 0.70568 0.80021 0.18979 0.0
C1585 C 0.68986 0.77958 0.20714 0.0
C1586 C 0.70592 0.77175 0.24284 0.0
H1587 H 0.65802 0.7088 0.28388 0.0
H1588 H 0.66539 0.72621 0.26082 0.0
H1589 H 0.70809 0.76485 0.26823 0.0
H1590 H 0.72746 0.80705 0.19233 0.0
H1591 H 0.72344 0.78889 0.21343 0.0
H1592 H 0.68231 0.75069 0.21097 0.0
C1593 C 0.67328 0.72641 0.26905 0.0
C1594 C 0.70257 0.76153 0.25565 0.0
C1595 C 0.66903 0.71646 0.28239 0.0
C1596 C 0.71691 0.79957 0.19648 0.0
C1597 C 0.71463 0.78915 0.2085 0.0
C1598 C 0.68805 0.75385 0.22339 0.0
C1599 C 0.68744 0.73666 0.26665 0.0
C1600 C 0.69181 0.74736 0.25255 0.0
C1601 C 0.70107 0.77903 0.21387 0.0
C1602 C 0.6985 0.76804 0.22675 0.0
H1603 H 0.70075 0.72714 0.30012 0.0
H1604 H 0.70825 0.74434 0.27648 0.0
H1605 H 0.67671 0.73276 0.23302 0.0
H1606 H 0.68325 0.79041 0.19092 0.0
H1607 H 0.67932 0.77205 0.2113 0.0
C1608 C 0.27952 0.94137 0.30017 0.0
C1609 C 0.2842 0.95482 0.30786 0.0
C1610 C 0.26953 0.9359 0.28669 0.0
C1611 C 0.25359 0.94621 0.2525 0.0
H1612 H 0.2248 0.90634 0.25296 0.0
C1613 C 0.20701 0.91968 0.20307 0.0
C1614 C 0.20344 0.90632 0.19599 0.0
C1615 C 0.2169 0.92616 0.21669 0.0
C1616 C 0.23285 0.91747 0.25255 0.0
H1617 H 0.28207 0.97311 0.30739 0.0
H1618 H 0.26447 0.96347 0.2839 0.0
H1619 H 0.24182 0.91658 0.27695 0.0
H1620 H 0.20743 0.8893 0.19768 0.0
H1621 H 0.22478 0.90068 0.22115 0.0
H1622 H 0.24454 0.94703 0.22802 0.0
C1623 C 0.26867 0.95723 0.2882 0.0
C1624 C 0.24261 0.92333 0.2663 0.0
C1625 C 0.2787 0.96272 0.30171 0.0
C1626 C 0.21007 0.89967 0.20268 0.0
C1627 C 0.21988 0.90611 0.2163 0.0
C1628 C 0.24378 0.94033 0.23873 0.0
C1629 C 0.26394 0.94372 0.28058 0.0
C1630 C 0.2532 0.93773 0.26634 0.0
C1631 C 0.22332 0.91936 0.22358 0.0
C1632 C 0.23341 0.92585 0.23851 0.0
H1633 H 0.28359 0.93503 0.30453 0.0
H1634 H 0.26629 0.92557 0.2809 0.0
H1635 H 0.2617 0.95731 0.25205 0.0
H1636 H 0.20215 0.9251 0.19811 0.0
H1637 H 0.2193 0.93635 0.2221 0.0
C1638 C 0.69765 0.97506 0.28946 0.0
C1639 C 0.68526 0.96748 0.29924 0.0
C1640 C 0.70126 0.96809 0.27673 0.0
C1641 C 0.69358 0.93227 0.26352 0.0
H1642 H 0.70852 0.94897 0.21768 0.0
C1643 C 0.6943 0.8995 0.20364 0.0
C1644 C 0.70651 0.9053 0.19343 0.0
C1645 C 0.69266 0.90772 0.21664 0.0
C1646 C 0.70451 0.94426 0.23051 0.0
H1647 H 0.66688 0.94668 0.30315 0.0
H1648 H 0.67303 0.93466 0.28088 0.0
H1649 H 0.70398 0.96225 0.2404 0.0
H1650 H 0.72649 0.92433 0.18861 0.0
H1651 H 0.7236 0.93878 0.21144 0.0
H1652 H 0.69384 0.91418 0.25354 0.0
C1653 C 0.68012 0.94591 0.28324 0.0
C1654 C 0.70193 0.95186 0.24352 0.0
C1655 C 0.67655 0.95284 0.29596 0.0
C1656 C 0.71701 0.91957 0.19636 0.0
C1657 C 0.71531 0.92785 0.20931 0.0
C1658 C 0.69609 0.92467 0.25051 0.0
C1659 C 0.69255 0.95341 0.27353 0.0
C1660 C 0.69623 0.94585 0.26008 0.0
C1661 C 0.70317 0.92196 0.21969 0.0
C1662 C 0.70138 0.93049 0.23378 0.0
H1663 H 0.70461 0.98635 0.2917 0.0
H1664 H 0.71096 0.97415 0.26957 0.0
H1665 H 0.6895 0.92746 0.27627 0.0
H1666 H 0.6861 0.8885 0.20183 0.0
H1667 H 0.68312 0.90294 0.22428 0.0
C1668 C 0.03221 0.73088 0.29306 0.0
C1669 C 0.03778 0.72297 0.29896 0.0
C1670 C 0.03895 0.74089 0.27978 0.0
C1671 C 0.07345 0.76307 0.25944 0.0
H1672 H 0.05325 0.76597 0.22019 0.0
C1673 C 0.10191 0.79623 0.19862 0.0
C1674 C 0.09728 0.80463 0.19159 0.0
C1675 C 0.0941 0.7862 0.21142 0.0
C1676 C 0.05901 0.7654 0.23118 0.0
H1677 H 0.05466 0.71922 0.29534 0.0
H1678 H 0.06631 0.73656 0.27226 0.0
H1679 H 0.04056 0.74868 0.24332 0.0
H1680 H 0.08057 0.80879 0.1922 0.0
H1681 H 0.06703 0.79142 0.21487 0.0
H1682 H 0.09188 0.77974 0.24746 0.0
C1683 C 0.05685 0.73518 0.27801 0.0
C1684 C 0.05175 0.7555 0.24442 0.0
C1685 C 0.05011 0.72517 0.29119 0.0
C1686 C 0.0845 0.80259 0.19747 0.0
C1687 C 0.07667 0.79254 0.21033 0.0
C1688 C 0.08069 0.77295 0.24628 0.0
C1689 C 0.05142 0.74323 0.27224 0.0
C1690 C 0.05892 0.75413 0.25857 0.0
C1691 C 0.08148 0.78435 0.2176 0.0
C1692 C 0.07359 0.77413 0.23187 0.0
H1693 H 0.02272 0.72942 0.29877 0.0
H1694 H 0.03457 0.747 0.27567 0.0
H1695 H 0.07925 0.76247 0.27038 0.0
H1696 H 0.11178 0.79763 0.19458 0.0
H1697 H 0.098 0.77992 0.21653 0.0
C1698 C 0.28508 0.33674 0.28689 0.0
C1699 C 0.28415 0.3264 0.29818 0.0
C1700 C 0.27545 0.333 0.27322 0.0
C1701 C 0.24896 0.30289 0.24572 0.0
H1702 H 0.23449 0.32738 0.24012 0.0
C1703 C 0.20047 0.28807 0.20297 0.0
C1704 C 0.20064 0.2991 0.19402 0.0
C1705 C 0.21145 0.29096 0.21425 0.0
C1706 C 0.23857 0.32054 0.24129 0.0
H1707 H 0.27252 0.30396 0.30373 0.0
H1708 H 0.25555 0.29746 0.2799 0.0
H1709 H 0.25197 0.3332 0.2627 0.0
H1710 H 0.21281 0.32153 0.18872 0.0
H1711 H 0.23204 0.32654 0.20812 0.0
H1712 H 0.23538 0.29015 0.22431 0.0
C1713 C 0.26384 0.30844 0.28156 0.0
C1714 C 0.24859 0.32387 0.25427 0.0
C1715 C 0.27351 0.31218 0.29527 0.0
C1716 C 0.21231 0.31288 0.19572 0.0
C1717 C 0.22329 0.31575 0.20688 0.0
C1718 C 0.23891 0.29955 0.23266 0.0
C1719 C 0.26462 0.31885 0.27052 0.0
C1720 C 0.25394 0.31513 0.25662 0.0
C1721 C 0.2228 0.30491 0.21669 0.0
C1722 C 0.23364 0.30838 0.23027 0.0
H1723 H 0.29322 0.34777 0.28866 0.0
H1724 H 0.27648 0.34124 0.26475 0.0
H1725 H 0.25298 0.29601 0.24712 0.0
H1726 H 0.19154 0.27736 0.20195 0.0
H1727 H 0.21072 0.28238 0.22169 0.0
C1728 C 0.29094 0.34349 0.39326 0.0
C1729 C 0.30107 0.3534 0.38172 0.0
C1730 C 0.28606 0.34794 0.40759 0.0
C1731 C 0.28248 0.3776 0.42302 0.0
H1732 H 0.2733 0.35819 0.4679 0.0
C1733 C 0.25778 0.39186 0.48131 0.0
C1734 C 0.24589 0.38012 0.48848 0.0
C1735 C 0.26662 0.38992 0.47001 0.0
C1736 C 0.27581 0.36371 0.45544 0.0
H1737 H 0.31417 0.3758 0.37636 0.0
H1738 H 0.30571 0.38358 0.4015 0.0
H1739 H 0.28481 0.35232 0.4446 0.0
H1740 H 0.23431 0.35726 0.4903 0.0
H1741 H 0.24965 0.35386 0.47059 0.0
H1742 H 0.27321 0.38879 0.43375 0.0
C1743 C 0.30143 0.37234 0.39932 0.0
C1744 C 0.28236 0.36032 0.44208 0.0
C1745 C 0.30632 0.36788 0.38495 0.0
C1746 C 0.24333 0.36648 0.48479 0.0
C1747 C 0.25219 0.36455 0.47365 0.0
C1748 C 0.27595 0.38102 0.4364 0.0
C1749 C 0.2912 0.36241 0.41076 0.0
C1750 C 0.2855 0.36701 0.42557 0.0
C1751 C 0.26379 0.37622 0.46587 0.0
C1752 C 0.27228 0.37389 0.45261 0.0
H1753 H 0.28665 0.33224 0.39114 0.0
H1754 H 0.27801 0.33999 0.41596 0.0
H1755 H 0.28462 0.38285 0.4104 0.0
H1756 H 0.25996 0.40249 0.48392 0.0
H1757 H 0.27555 0.39912 0.46432 0.0
C1758 C 0.64326 0.93895 0.38525 0.0
C1759 C 0.6508 0.95328 0.39072 0.0
C1760 C 0.63897 0.9283 0.39764 0.0
C1761 C 0.63389 0.92102 0.44598 0.0
H1762 H 0.6381 0.88962 0.43189 0.0
C1763 C 0.63263 0.88117 0.49533 0.0
C1764 C 0.62578 0.86686 0.48973 0.0
C1765 C 0.63429 0.89153 0.48366 0.0
C1766 C 0.63668 0.89821 0.43595 0.0
H1767 H 0.65946 0.96768 0.41356 0.0
H1768 H 0.65222 0.94907 0.43521 0.0
H1769 H 0.64372 0.90811 0.41083 0.0
H1770 H 0.61504 0.85217 0.46766 0.0
H1771 H 0.61784 0.87025 0.44734 0.0
H1772 H 0.62714 0.91116 0.47131 0.0
C1773 C 0.64944 0.94606 0.42135 0.0
C1774 C 0.63989 0.90882 0.42387 0.0
C1775 C 0.65365 0.95673 0.40894 0.0
C1776 C 0.62027 0.86309 0.4724 0.0
C1777 C 0.622 0.87345 0.46072 0.0
C1778 C 0.63075 0.91042 0.45813 0.0
C1779 C 0.64221 0.93172 0.4158 0.0
C1780 C 0.63853 0.92036 0.42871 0.0
C1781 C 0.62922 0.88781 0.46613 0.0
C1782 C 0.63211 0.8989 0.45322 0.0
H1783 H 0.64076 0.93592 0.37134 0.0
H1784 H 0.63317 0.91737 0.39295 0.0
H1785 H 0.63258 0.92968 0.45007 0.0
H1786 H 0.63685 0.88437 0.50867 0.0
H1787 H 0.63997 0.90251 0.48818 0.0
C1788 C 0.04611 0.71988 0.38902 0.0
C1789 C 0.04568 0.70865 0.3793 0.0
C1790 C 0.05537 0.72651 0.4032 0.0
C1791 C 0.07616 0.72146 0.43585 0.0
H1792 H 0.09749 0.76251 0.43876 0.0
C1793 C 0.12136 0.75329 0.48598 0.0
C1794 C 0.1231 0.76587 0.4935 0.0
C1795 C 0.11154 0.74584 0.47253 0.0
C1796 C 0.09147 0.75104 0.43833 0.0
H1797 H 0.05452 0.69545 0.37703 0.0
H1798 H 0.0707 0.70704 0.4019 0.0
H1799 H 0.08111 0.75042 0.4144 0.0
H1800 H 0.11568 0.78033 0.49286 0.0
H1801 H 0.09826 0.76708 0.47 0.0
H1802 H 0.08641 0.72207 0.45991 0.0
C1803 C 0.06382 0.71066 0.39852 0.0
C1804 C 0.08212 0.74412 0.42432 0.0
C1805 C 0.05462 0.70409 0.38422 0.0
C1806 C 0.11454 0.7706 0.48756 0.0
C1807 C 0.10467 0.76311 0.47422 0.0
C1808 C 0.08546 0.72839 0.44997 0.0
C1809 C 0.06435 0.722 0.40807 0.0
C1810 C 0.07435 0.72927 0.42294 0.0
C1811 C 0.10318 0.75075 0.46634 0.0
C1812 C 0.09322 0.74328 0.4514 0.0
H1813 H 0.03934 0.72363 0.38562 0.0
H1814 H 0.05544 0.73511 0.41045 0.0
H1815 H 0.0702 0.70999 0.43521 0.0
H1816 H 0.12765 0.74923 0.49039 0.0
H1817 H 0.11075 0.73641 0.46669 0.0
C1818 C 0.29947 0.02911 0.71426 0.0
C1819 C 0.31346 0.03576 0.70896 0.0
C1820 C 0.29555 0.03482 0.72831 0.0
C1821 C 0.3102 0.05978 0.76717 0.0
H1822 H 0.27617 0.06006 0.76417 0.0
C1823 C 0.29368 0.08331 0.82438 0.0
C1824 C 0.28865 0.09191 0.81943 0.0
C1825 C 0.29515 0.07475 0.81168 0.0
C1826 C 0.28574 0.06012 0.76519 0.0
H1827 H 0.33425 0.05376 0.71408 0.0
H1828 H 0.32739 0.06386 0.73819 0.0
H1829 H 0.28217 0.04896 0.74021 0.0
H1830 H 0.28098 0.09809 0.79739 0.0
H1831 H 0.28378 0.08339 0.77517 0.0
H1832 H 0.31413 0.0715 0.79168 0.0
C1833 C 0.31947 0.05404 0.73183 0.0
C1834 C 0.2891 0.0536 0.75154 0.0
C1835 C 0.3234 0.0483 0.71789 0.0
C1836 C 0.28472 0.09144 0.80164 0.0
C1837 C 0.28631 0.08298 0.78891 0.0
C1838 C 0.30689 0.06637 0.78073 0.0
C1839 C 0.30552 0.04734 0.7373 0.0
C1840 C 0.30147 0.05352 0.75225 0.0
C1841 C 0.29176 0.0747 0.79371 0.0
C1842 C 0.29469 0.06676 0.77985 0.0
H1843 H 0.29157 0.0194 0.70769 0.0
H1844 H 0.28473 0.0293 0.73229 0.0
H1845 H 0.31969 0.05971 0.76832 0.0
H1846 H 0.29662 0.08333 0.83805 0.0
H1847 H 0.29911 0.06829 0.81593 0.0
C1848 C 0.98036 0.28821 0.74284 0.0
C1849 C 0.97699 0.28396 0.72488 0.0
C1850 C 0.97354 0.27854 0.75639 0.0
C1851 C 0.9517 0.24029 0.7657 0.0
H1852 H 0.93754 0.25291 0.80454 0.0
C1853 C 0.92029 0.20444 0.82445 0.0
C1854 C 0.90811 0.20429 0.82899 0.0
C1855 C 0.92999 0.21447 0.81277 0.0
C1856 C 0.94143 0.24924 0.79379 0.0
H1857 H 0.9642 0.26608 0.70705 0.0
H1858 H 0.9523 0.24923 0.7307 0.0
H1859 H 0.95235 0.26962 0.78199 0.0
H1860 H 0.89656 0.21454 0.82459 0.0
H1861 H 0.91353 0.23209 0.80449 0.0
H1862 H 0.94042 0.21979 0.77727 0.0
C1863 C 0.96026 0.26002 0.73431 0.0
C1864 C 0.95003 0.25884 0.78097 0.0
C1865 C 0.96703 0.26971 0.72075 0.0
C1866 C 0.90595 0.21451 0.82172 0.0
C1867 C 0.91567 0.22457 0.81015 0.0
C1868 C 0.94315 0.2307 0.7786 0.0
C1869 C 0.96326 0.26439 0.75228 0.0
C1870 C 0.9551 0.25443 0.76664 0.0
C1871 C 0.92776 0.22462 0.80547 0.0
C1872 C 0.93775 0.23503 0.79261 0.0
H1873 H 0.98803 0.2991 0.74648 0.0
H1874 H 0.97621 0.28217 0.77012 0.0
H1875 H 0.95555 0.23662 0.7549 0.0
H1876 H 0.92237 0.19684 0.82999 0.0
H1877 H 0.93929 0.21435 0.80953 0.0
C1878 C 0.71931 0.67628 0.73231 0.0
C1879 C 0.71775 0.68499 0.7206 0.0
C1880 C 0.73 0.68216 0.7449 0.0
C1881 C 0.76456 0.71358 0.75363 0.0
H1882 H 0.75884 0.69716 0.80022 0.0
C1883 C 0.79675 0.71862 0.82217 0.0
C1884 C 0.80827 0.71901 0.81424 0.0
C1885 C 0.78587 0.71697 0.81165 0.0
C1886 C 0.7606 0.70205 0.78739 0.0
H1887 H 0.72602 0.70674 0.71313 0.0
H1888 H 0.74467 0.71702 0.73524 0.0
H1889 H 0.73903 0.6894 0.78059 0.0
H1890 H 0.8178 0.71883 0.78907 0.0
H1891 H 0.79874 0.71565 0.77077 0.0
H1892 H 0.78615 0.72618 0.76042 0.0
C1893 C 0.7377 0.70562 0.73454 0.0
C1894 C 0.74926 0.69746 0.77605 0.0
C1895 C 0.72699 0.69974 0.72192 0.0
C1896 C 0.80897 0.71836 0.79557 0.0
C1897 C 0.79811 0.71672 0.78508 0.0
C1898 C 0.77591 0.71818 0.765 0.0
C1899 C 0.73937 0.69688 0.7461 0.0
C1900 C 0.75115 0.70293 0.75888 0.0
C1901 C 0.7863 0.71571 0.79299 0.0
C1902 C 0.7741 0.71224 0.78185 0.0
H1903 H 0.7124 0.66488 0.73164 0.0
H1904 H 0.73112 0.6751 0.75339 0.0
H1905 H 0.76639 0.71796 0.74047 0.0
H1906 H 0.79589 0.71903 0.83653 0.0
H1907 H 0.77698 0.71639 0.81814 0.0
C1908 C 0.70857 0.66182 0.62945 0.0
C1909 C 0.69984 0.65171 0.6419 0.0
C1910 C 0.71434 0.65812 0.61542 0.0
C1911 C 0.71075 0.62827 0.58841 0.0
H1912 H 0.75011 0.65407 0.57998 0.0
C1913 C 0.74389 0.61563 0.54038 0.0
C1914 C 0.75472 0.62705 0.53124 0.0
C1915 C 0.73595 0.61795 0.55289 0.0
C1916 C 0.73906 0.64685 0.58192 0.0
H1917 H 0.69003 0.62968 0.64908 0.0
H1918 H 0.70018 0.62323 0.62442 0.0
H1919 H 0.73869 0.65933 0.60385 0.0
H1920 H 0.76513 0.64957 0.52689 0.0
H1921 H 0.75107 0.65359 0.54824 0.0
H1922 H 0.71117 0.61582 0.56634 0.0
C1923 C 0.7025 0.63401 0.62559 0.0
C1924 C 0.73253 0.64985 0.59567 0.0
C1925 C 0.69677 0.63773 0.63975 0.0
C1926 C 0.75695 0.64064 0.53399 0.0
C1927 C 0.74896 0.64293 0.5463 0.0
C1928 C 0.71729 0.62529 0.57452 0.0
C1929 C 0.71148 0.64423 0.61342 0.0
C1930 C 0.7183 0.64067 0.599 0.0
C1931 C 0.73867 0.63171 0.55634 0.0
C1932 C 0.73151 0.63462 0.57104 0.0
H1933 H 0.71109 0.67266 0.63062 0.0
H1934 H 0.72107 0.66618 0.60609 0.0
H1935 H 0.69974 0.62104 0.59064 0.0
H1936 H 0.74203 0.60507 0.5385 0.0
H1937 H 0.72815 0.60908 0.56044 0.0
C1938 C 0.35513 0.06117 0.62391 0.0
C1939 C 0.34118 0.0531 0.62937 0.0
C1940 C 0.35908 0.07088 0.61025 0.0
C1941 C 0.34467 0.08012 0.5726 0.0
H1942 H 0.378 0.11738 0.57826 0.0
C1943 C 0.35438 0.12753 0.53205 0.0
C1944 C 0.36782 0.13671 0.52538 0.0
C1945 C 0.35185 0.11686 0.54369 0.0
C1946 C 0.36877 0.10695 0.57637 0.0
H1947 H 0.32043 0.04888 0.62473 0.0
H1948 H 0.32731 0.06588 0.60117 0.0
H1949 H 0.37224 0.09952 0.60057 0.0
H1950 H 0.38913 0.14174 0.52568 0.0
H1951 H 0.3847 0.12315 0.54629 0.0
H1952 H 0.34103 0.08765 0.54864 0.0
C1953 C 0.33519 0.06457 0.6072 0.0
C1954 C 0.36547 0.09671 0.58913 0.0
C1955 C 0.33126 0.05488 0.62081 0.0
C1956 C 0.37869 0.13496 0.53072 0.0
C1957 C 0.37616 0.12431 0.54249 0.0
C1958 C 0.34794 0.09035 0.55991 0.0
C1959 C 0.34915 0.07271 0.60176 0.0
C1960 C 0.35326 0.08325 0.58754 0.0
C1961 C 0.3627 0.11513 0.54906 0.0
C1962 C 0.3599 0.10395 0.56179 0.0
H1963 H 0.36302 0.06001 0.63021 0.0
H1964 H 0.36988 0.07688 0.60625 0.0
H1965 H 0.33535 0.06976 0.57077 0.0
H1966 H 0.34582 0.12876 0.52858 0.0
H1967 H 0.34142 0.11014 0.5488 0.0
C1968 C 0.95293 0.28903 0.6266 0.0
C1969 C 0.94871 0.28915 0.64427 0.0
C1970 C 0.94328 0.28396 0.61269 0.0
C1971 C 0.90595 0.2604 0.60363 0.0
H1972 H 0.91501 0.27938 0.55844 0.0
C1973 C 0.86572 0.24065 0.5471 0.0
C1974 C 0.87043 0.23995 0.5299 0.0
C1975 C 0.87515 0.2479 0.56096 0.0
C1976 C 0.91237 0.2739 0.57093 0.0
H1977 H 0.93106 0.2842 0.66114 0.0
H1978 H 0.91423 0.27535 0.63683 0.0
H1979 H 0.93175 0.28953 0.5829 0.0
H1980 H 0.88881 0.2469 0.51364 0.0
H1981 H 0.90527 0.25925 0.53792 0.0
H1982 H 0.88671 0.24464 0.59165 0.0
C1983 C 0.92499 0.27907 0.63378 0.0
C1984 C 0.92195 0.27971 0.58494 0.0
C1985 C 0.93465 0.28419 0.64769 0.0
C1986 C 0.88483 0.24708 0.52678 0.0
C1987 C 0.89427 0.2543 0.54066 0.0
C1988 C 0.8964 0.25457 0.58963 0.0
C1989 C 0.92919 0.27885 0.61613 0.0
C1990 C 0.91887 0.27299 0.60141 0.0
C1991 C 0.88954 0.25458 0.55799 0.0
C1992 C 0.89951 0.2612 0.57307 0.0
H1993 H 0.96369 0.29279 0.6235 0.0
H1994 H 0.94682 0.28377 0.59926 0.0
H1995 H 0.90335 0.25484 0.61606 0.0
H1996 H 0.85471 0.23517 0.55005 0.0
H1997 H 0.87116 0.24809 0.57409 0.0
C1998 C 0.33731 0.29002 0.63022 0.0
C1999 C 0.34792 0.3026 0.63838 0.0
C2000 C 0.34047 0.283 0.61709 0.0
C2001 C 0.36656 0.28797 0.58382 0.0
H2002 H 0.34918 0.24728 0.58691 0.0
C2003 C 0.38019 0.25518 0.53579 0.0
C2004 C 0.36916 0.24175 0.53018 0.0
C2005 C 0.37813 0.26303 0.54901 0.0
C2006 C 0.35399 0.25862 0.5857 0.0
H2007 H 0.37015 0.31783 0.63893 0.0
H2008 H 0.37564 0.30556 0.6158 0.0
H2009 H 0.34458 0.26024 0.60982 0.0
H2010 H 0.34729 0.22609 0.53417 0.0
H2011 H 0.3436 0.23994 0.55656 0.0
H2012 H 0.37578 0.28632 0.5595 0.0
C2013 C 0.36489 0.30116 0.61963 0.0
C2014 C 0.35138 0.26603 0.59887 0.0
C2015 C 0.36174 0.30813 0.63292 0.0
C2016 C 0.356 0.23646 0.53794 0.0
C2017 C 0.35392 0.24433 0.55103 0.0
C2018 C 0.3691 0.28053 0.57054 0.0
C2019 C 0.35429 0.28846 0.61171 0.0
C2020 C 0.35754 0.28076 0.598 0.0
C2021 C 0.36498 0.25764 0.55687 0.0
C2022 C 0.36274 0.26573 0.57124 0.0
H2023 H 0.32655 0.28548 0.63408 0.0
H2024 H 0.33207 0.27332 0.61105 0.0
H2025 H 0.37137 0.29932 0.58276 0.0
H2026 H 0.39043 0.25964 0.52998 0.0
H2027 H 0.3869 0.2732 0.55327 0.0
C2028 C 0.69598 0.04514 0.60324 0.0
C2029 C 0.69644 0.04848 0.6215 0.0
C2030 C 0.70328 0.05586 0.59096 0.0
C2031 C 0.73286 0.09286 0.58862 0.0
H2032 H 0.71858 0.09095 0.54129 0.0
C2033 C 0.76175 0.13856 0.53997 0.0
C2034 C 0.76348 0.13473 0.52258 0.0
C2035 C 0.7526 0.12826 0.55175 0.0
C2036 C 0.72271 0.09157 0.55444 0.0
H2037 H 0.70446 0.06572 0.64113 0.0
H2038 H 0.71689 0.08437 0.61972 0.0
H2039 H 0.70427 0.07253 0.56253 0.0
H2040 H 0.75658 0.11717 0.50367 0.0
H2041 H 0.74061 0.09912 0.52433 0.0
H2042 H 0.75127 0.11187 0.58056 0.0
C2043 C 0.71121 0.07347 0.61489 0.0
C2044 C 0.71454 0.08102 0.56659 0.0
C2045 C 0.70401 0.06277 0.62717 0.0
C2046 C 0.75555 0.12041 0.51705 0.0
C2047 C 0.74632 0.11011 0.52881 0.0
C2048 C 0.74097 0.10343 0.57653 0.0
C2049 C 0.71111 0.07015 0.59667 0.0
C2050 C 0.71955 0.08151 0.58381 0.0
C2051 C 0.74492 0.1139 0.54637 0.0
C2052 C 0.73601 0.10288 0.5593 0.0
H2053 H 0.69027 0.03423 0.59846 0.0
H2054 H 0.7031 0.0529 0.57705 0.0
H2055 H 0.73717 0.09344 0.60162 0.0
H2056 H 0.7678 0.14949 0.54466 0.0
H2057 H 0.75163 0.13151 0.56515 0.0
C2058 C 0.93094 0.63942 0.62797 0.0
C2059 C 0.94447 0.64338 0.62275 0.0
C2060 C 0.92027 0.63425 0.61541 0.0
C2061 C 0.91415 0.6354 0.56795 0.0
H2062 H 0.87684 0.60483 0.57923 0.0
C2063 C 0.86814 0.61823 0.52009 0.0
C2064 C 0.85624 0.61682 0.5283 0.0
C2065 C 0.87881 0.61916 0.53039 0.0
C2066 C 0.88719 0.6134 0.5759 0.0
H2067 H 0.95736 0.64483 0.60024 0.0
H2068 H 0.93867 0.63582 0.57827 0.0
H2069 H 0.89588 0.61102 0.59971 0.0
H2070 H 0.84584 0.61445 0.55359 0.0
H2071 H 0.86447 0.61628 0.57152 0.0
H2072 H 0.90541 0.63811 0.54444 0.0
C2073 C 0.93637 0.63679 0.5921 0.0
C2074 C 0.89809 0.61694 0.58762 0.0
C2075 C 0.94706 0.6419 0.6047 0.0
C2076 C 0.85497 0.61572 0.5469 0.0
C2077 C 0.86559 0.6166 0.55716 0.0
C2078 C 0.90324 0.63189 0.55624 0.0
C2079 C 0.92288 0.63296 0.59733 0.0
C2080 C 0.91163 0.62819 0.58397 0.0
C2081 C 0.87775 0.6186 0.54907 0.0
C2082 C 0.88958 0.62106 0.56028 0.0
H2083 H 0.92859 0.64042 0.64177 0.0
H2084 H 0.91003 0.63158 0.61983 0.0
H2085 H 0.92444 0.6442 0.56484 0.0
H2086 H 0.86942 0.61917 0.50578 0.0
H2087 H 0.88799 0.62055 0.52375 0.0
C2088 C 0.95513 0.67781 0.72071 0.0
C2089 C 0.96292 0.687 0.70694 0.0
C2090 C 0.95115 0.68272 0.73552 0.0
C2091 C 0.94504 0.7109 0.75009 0.0
H2092 H 0.943 0.69575 0.79671 0.0
C2093 C 0.92243 0.72491 0.81102 0.0
C2094 C 0.91199 0.71295 0.81983 0.0
C2095 C 0.93121 0.72365 0.79884 0.0
C2096 C 0.94354 0.70009 0.78378 0.0
H2097 H 0.97283 0.70863 0.69808 0.0
H2098 H 0.96597 0.71724 0.7241 0.0
H2099 H 0.95363 0.69008 0.77202 0.0
H2100 H 0.90304 0.69053 0.82368 0.0
H2101 H 0.91839 0.68831 0.80254 0.0
H2102 H 0.9347 0.72069 0.76182 0.0
C2103 C 0.9628 0.70619 0.7233 0.0
C2104 C 0.94958 0.69681 0.76962 0.0
C2105 C 0.96677 0.70126 0.70842 0.0
C2106 C 0.91095 0.69989 0.81696 0.0
C2107 C 0.91981 0.69865 0.80497 0.0
C2108 C 0.93907 0.71425 0.76429 0.0
C2109 C 0.95491 0.69695 0.73701 0.0
C2110 C 0.95006 0.70186 0.75249 0.0
C2111 C 0.92982 0.71044 0.79547 0.0
C2112 C 0.93794 0.70858 0.78117 0.0
H2113 H 0.95195 0.66675 0.72 0.0
H2114 H 0.94485 0.67523 0.74564 0.0
H2115 H 0.94512 0.71487 0.73705 0.0
H2116 H 0.92339 0.73509 0.81294 0.0
H2117 H 0.93891 0.73293 0.7918 0.0
C2118 C 0.33161 0.28388 0.724 0.0
C2119 C 0.32185 0.28655 0.7168 0.0
C2120 C 0.32777 0.27399 0.73732 0.0
C2121 C 0.29748 0.24277 0.75687 0.0
H2122 H 0.32387 0.25023 0.79438 0.0
C2123 C 0.28672 0.20408 0.81436 0.0
C2124 C 0.29751 0.20163 0.81746 0.0
C2125 C 0.28873 0.21474 0.8029 0.0
C2126 C 0.31641 0.24799 0.78396 0.0
H2127 H 0.30038 0.28099 0.71802 0.0
H2128 H 0.2937 0.26376 0.74153 0.0
H2129 H 0.32909 0.26859 0.77319 0.0
H2130 H 0.31869 0.20813 0.81034 0.0
H2131 H 0.32224 0.2268 0.79076 0.0
H2132 H 0.28485 0.22209 0.76773 0.0
C2133 C 0.3043 0.26924 0.73669 0.0
C2134 C 0.31941 0.25848 0.77179 0.0
C2135 C 0.30814 0.27915 0.72328 0.0
C2136 C 0.31027 0.20995 0.80866 0.0
C2137 C 0.31231 0.22063 0.79739 0.0
C2138 C 0.29444 0.23228 0.76915 0.0
C2139 C 0.31409 0.26656 0.74386 0.0
C2140 C 0.31014 0.25589 0.75784 0.0
C2141 C 0.30161 0.2232 0.79447 0.0
C2142 C 0.30404 0.2347 0.78256 0.0
H2143 H 0.34224 0.28934 0.71926 0.0
H2144 H 0.33551 0.272 0.74228 0.0
H2145 H 0.29016 0.2404 0.7462 0.0
H2146 H 0.2768 0.19796 0.82104 0.0
H2147 H 0.28033 0.21654 0.80092 0.0
C2148 C 0.71844 0.04348 0.71802 0.0
C2149 C 0.71273 0.05096 0.71113 0.0
C2150 C 0.72871 0.04967 0.73123 0.0
C2151 C 0.75531 0.08454 0.75 0.0
H2152 H 0.75396 0.06344 0.79105 0.0
C2153 C 0.78956 0.11216 0.81143 0.0
C2154 C 0.79578 0.10564 0.81964 0.0
C2155 C 0.77956 0.10501 0.79816 0.0
C2156 C 0.75458 0.06941 0.77955 0.0
H2157 H 0.7132 0.07075 0.71285 0.0
H2158 H 0.73099 0.08147 0.73586 0.0
H2159 H 0.73624 0.05176 0.76783 0.0
H2160 H 0.7962 0.08637 0.82048 0.0
H2161 H 0.77883 0.07391 0.79702 0.0
H2162 H 0.77357 0.10218 0.76164 0.0
C2163 C 0.72768 0.07089 0.73093 0.0
C2164 C 0.74443 0.06273 0.76627 0.0
C2165 C 0.71741 0.0647 0.7178 0.0
C2166 C 0.79168 0.09172 0.81432 0.0
C2167 C 0.78164 0.08455 0.80101 0.0
C2168 C 0.76544 0.0912 0.76323 0.0
C2169 C 0.7335 0.06349 0.73772 0.0
C2170 C 0.7446 0.07028 0.75146 0.0
C2171 C 0.77554 0.09116 0.7927 0.0
C2172 C 0.7651 0.08378 0.77827 0.0
H2173 H 0.71505 0.03287 0.71315 0.0
H2174 H 0.73307 0.04374 0.73612 0.0
H2175 H 0.75588 0.09056 0.73857 0.0
H2176 H 0.7926 0.12293 0.81503 0.0
H2177 H 0.77493 0.11034 0.79221 0.0
C2178 C 0.04358 0.34589 0.02878 0.0
C2179 C 0.03558 0.34941 0.03969 0.0
C2180 C 0.05132 0.34078 0.03624 0.0
C2181 C 0.06647 0.33926 0.07875 0.0
H2182 H 0.06465 0.30619 0.05715 0.0
C2183 C 0.08546 0.30818 0.11594 0.0
C2184 C 0.09345 0.30393 0.10632 0.0
C2185 C 0.07845 0.31351 0.10715 0.0
C2186 C 0.06539 0.31552 0.06322 0.0
H2187 H 0.02965 0.35058 0.06699 0.0
H2188 H 0.04307 0.34167 0.07993 0.0
H2189 H 0.05297 0.31662 0.0428 0.0
H2190 H 0.10012 0.30165 0.07989 0.0
H2191 H 0.08784 0.31098 0.06449 0.0
H2192 H 0.07881 0.33817 0.09919 0.0
C2193 C 0.04346 0.34294 0.06564 0.0
C2194 C 0.05873 0.32151 0.055 0.0
C2195 C 0.0357 0.34798 0.0582 0.0
C2196 C 0.09392 0.3047 0.08765 0.0
C2197 C 0.08691 0.31007 0.07884 0.0
C2198 C 0.07313 0.3333 0.08695 0.0
C2199 C 0.05128 0.33919 0.05475 0.0
C2200 C 0.05907 0.33335 0.06279 0.0
C2201 C 0.07929 0.31475 0.08853 0.0
C2202 C 0.07253 0.32126 0.0794 0.0
H2203 H 0.04369 0.34687 0.01446 0.0
H2204 H 0.05735 0.3381 0.02753 0.0
H2205 H 0.06714 0.34853 0.08491 0.0
H2206 H 0.08471 0.30747 0.13031 0.0
H2207 H 0.07241 0.31672 0.11496 0.0
C2208 C 0.66947 0.6896 0.0392 0.0
C2209 C 0.66511 0.68641 0.02133 0.0
C2210 C 0.67447 0.70315 0.04644 0.0
C2211 C 0.67362 0.73537 0.04074 0.0
H2212 H 0.70662 0.75291 0.07045 0.0
C2213 C 0.69806 0.79252 0.06815 0.0
C2214 C 0.70234 0.79496 0.08605 0.0
C2215 C 0.69448 0.77978 0.05941 0.0
C2216 C 0.69733 0.74811 0.06232 0.0
H2217 H 0.6624 0.69491 0.99712 0.0
H2218 H 0.6711 0.71861 0.00985 0.0
H2219 H 0.69815 0.72954 0.05691 0.0
H2220 H 0.70643 0.78608 0.10876 0.0
H2221 H 0.70006 0.76375 0.09359 0.0
H2222 H 0.67261 0.75378 0.04638 0.0
C2223 C 0.67061 0.71058 0.01822 0.0
C2224 C 0.69248 0.73474 0.05456 0.0
C2225 C 0.66567 0.69702 0.01093 0.0
C2226 C 0.70333 0.78455 0.0949 0.0
C2227 C 0.69968 0.77177 0.08619 0.0
C2228 C 0.67842 0.74872 0.04856 0.0
C2229 C 0.67514 0.7138 0.03602 0.0
C2230 C 0.68053 0.72819 0.04378 0.0
C2231 C 0.69504 0.76916 0.06841 0.0
C2232 C 0.69029 0.75522 0.05953 0.0
H2233 H 0.66915 0.68166 0.0476 0.0
H2234 H 0.67769 0.70526 0.06027 0.0
H2235 H 0.66428 0.73051 0.03267 0.0
H2236 H 0.69739 0.80045 0.06093 0.0
H2237 H 0.69122 0.77823 0.04562 0.0
C2238 C 0.30005 0.97577 0.01012 0.0
C2239 C 0.31177 0.98343 0.02118 0.0
C2240 C 0.28685 0.96713 0.01753 0.0
C2241 C 0.26705 0.96318 0.05808 0.0
H2242 H 0.24287 0.92406 0.04249 0.0
C2243 C 0.21892 0.92379 0.09832 0.0
C2244 C 0.20724 0.91306 0.08909 0.0
C2245 C 0.23118 0.93284 0.08918 0.0
C2246 C 0.24936 0.93504 0.0468 0.0
H2247 H 0.31886 0.98792 0.04866 0.0
H2248 H 0.29587 0.97299 0.06148 0.0
H2249 H 0.26519 0.93881 0.02777 0.0
H2250 H 0.19897 0.9037 0.06305 0.0
H2251 H 0.22023 0.91976 0.04697 0.0
H2252 H 0.25127 0.95959 0.07695 0.0
C2253 C 0.29689 0.97368 0.04712 0.0
C2254 C 0.26217 0.94345 0.03839 0.0
C2255 C 0.31006 0.98214 0.03975 0.0
C2256 C 0.2079 0.9118 0.07049 0.0
C2257 C 0.2201 0.92096 0.06132 0.0
C2258 C 0.25419 0.95485 0.06634 0.0
C2259 C 0.28515 0.96619 0.03611 0.0
C2260 C 0.27121 0.95752 0.04415 0.0
C2261 C 0.23198 0.93146 0.07057 0.0
C2262 C 0.24526 0.94061 0.06099 0.0
H2263 H 0.30104 0.97655 0.99577 0.0
H2264 H 0.27793 0.96144 0.00877 0.0
H2265 H 0.27377 0.97409 0.06259 0.0
H2266 H 0.21872 0.92486 0.11269 0.0
H2267 H 0.24017 0.94063 0.09681 0.0
C2268 C 0.34876 0.05233 0.99666 0.0
C2269 C 0.34037 0.04309 0.01007 0.0
C2270 C 0.34472 0.06052 0.98793 0.0
C2271 C 0.31345 0.06043 0.97599 0.0
H2272 H 0.33973 0.09912 0.96258 0.0
C2273 C 0.29731 0.09429 0.93793 0.0
C2274 C 0.30652 0.1031 0.92476 0.0
C2275 C 0.30111 0.08706 0.94918 0.0
C2276 C 0.33229 0.08827 0.96607 0.0
H2277 H 0.32141 0.03562 0.02531 0.0
H2278 H 0.31438 0.04998 0.01003 0.0
H2279 H 0.34732 0.08699 0.98155 0.0
H2280 H 0.3266 0.1107 0.91244 0.0
H2281 H 0.33315 0.09795 0.93184 0.0
H2282 H 0.29849 0.0616 0.96022 0.0
C2283 C 0.32402 0.05076 0.00619 0.0
C2284 C 0.33663 0.08136 0.97698 0.0
C2285 C 0.3281 0.04262 0.01502 0.0
C2286 C 0.31939 0.10417 0.92269 0.0
C2287 C 0.32316 0.09692 0.93385 0.0
C2288 C 0.30911 0.06734 0.965 0.0
C2289 C 0.33217 0.05961 0.99235 0.0
C2290 C 0.32731 0.06732 0.9819 0.0
C2291 C 0.31417 0.08846 0.94742 0.0
C2292 C 0.31853 0.08128 0.95974 0.0
H2293 H 0.35828 0.05295 0.99254 0.0
H2294 H 0.35117 0.06716 0.97722 0.0
H2295 H 0.30607 0.04954 0.97937 0.0
H2296 H 0.28737 0.09337 0.93993 0.0
H2297 H 0.29398 0.0807 0.95958 0.0
C2298 C 0.97858 0.31415 0.98032 0.0
C2299 C 0.9789 0.31648 0.99886 0.0
C2300 C 0.96954 0.30074 0.97283 0.0
C2301 C 0.937 0.26737 0.98001 0.0
H2302 H 0.9519 0.25185 0.94595 0.0
C2303 C 0.90272 0.21104 0.95 0.0
C2304 C 0.90449 0.20914 0.93182 0.0
C2305 C 0.91224 0.22359 0.95904 0.0
C2306 C 0.94752 0.25607 0.95527 0.0
H2307 H 0.96975 0.30666 0.02402 0.0
H2308 H 0.95372 0.2832 0.01079 0.0
H2309 H 0.9673 0.27506 0.95986 0.0
H2310 H 0.91762 0.21872 0.90883 0.0
H2311 H 0.93408 0.24079 0.92441 0.0
H2312 H 0.91715 0.24869 0.97506 0.0
C2313 C 0.96056 0.29179 0.00215 0.0
C2314 C 0.95636 0.26935 0.96327 0.0
C2315 C 0.96975 0.30518 0.0097 0.0
C2316 C 0.91612 0.21987 0.92291 0.0
C2317 C 0.92555 0.2325 0.93188 0.0
C2318 C 0.92811 0.25417 0.97185 0.0
C2319 C 0.96051 0.28941 0.98367 0.0
C2320 C 0.95118 0.27515 0.97564 0.0
C2321 C 0.92365 0.23459 0.95002 0.0
C2322 C 0.93324 0.24837 0.95929 0.0
H2323 H 0.9855 0.32262 0.97159 0.0
H2324 H 0.96958 0.29922 0.95852 0.0
H2325 H 0.93273 0.27167 0.98939 0.0
H2326 H 0.8939 0.20284 0.9572 0.0
H2327 H 0.9106 0.22469 0.97308 0.0
C2328 C 0.69967 0.65534 0.98892 0.0
C2329 C 0.68862 0.65349 0.97842 0.0
C2330 C 0.71271 0.66005 0.98132 0.0
C2331 C 0.7302 0.6633 0.93833 0.0
H2332 H 0.76279 0.69401 0.9622 0.0
C2333 C 0.78276 0.69442 0.90262 0.0
C2334 C 0.79474 0.69789 0.91227 0.0
C2335 C 0.76999 0.68894 0.91124 0.0
C2336 C 0.75382 0.68532 0.95547 0.0
H2337 H 0.68248 0.65478 0.95163 0.0
H2338 H 0.70516 0.66295 0.93842 0.0
H2339 H 0.74004 0.6838 0.97635 0.0
H2340 H 0.80279 0.69849 0.93852 0.0
H2341 H 0.78043 0.68882 0.95359 0.0
H2342 H 0.7439 0.66478 0.91746 0.0
C2343 C 0.70375 0.66071 0.9525 0.0
C2344 C 0.7408 0.67946 0.96359 0.0
C2345 C 0.69077 0.6561 0.9601 0.0
C2346 C 0.79375 0.69606 0.93078 0.0
C2347 C 0.78095 0.69051 0.9394 0.0
C2348 C 0.7432 0.66911 0.93026 0.0
C2349 C 0.7149 0.66289 0.96305 0.0
C2350 C 0.72883 0.66849 0.95501 0.0
C2351 C 0.76889 0.68673 0.92968 0.0
C2352 C 0.75515 0.68029 0.93863 0.0
H2353 H 0.69834 0.65342 0.00308 0.0
H2354 H 0.72108 0.66151 0.98974 0.0
H2355 H 0.72119 0.65471 0.93153 0.0
H2356 H 0.78326 0.69593 0.88838 0.0
H2357 H 0.76097 0.68644 0.90342 0.0
C2358 C 0.95432 0.6577 0.98985 0.0
C2359 C 0.96851 0.66832 0.99035 0.0
C2360 C 0.94452 0.66073 0.98389 0.0
C2361 C 0.93923 0.69025 0.97586 0.0
H2362 H 0.91387 0.66547 0.9388 0.0
C2363 C 0.91244 0.70828 0.92823 0.0
C2364 C 0.89886 0.69837 0.92247 0.0
C2365 C 0.91973 0.70406 0.93859 0.0
C2366 C 0.92068 0.67238 0.94937 0.0
H2367 H 0.98348 0.69052 0.98562 0.0
H2368 H 0.96644 0.69577 0.97534 0.0
H2369 H 0.92852 0.65889 0.95384 0.0
H2370 H 0.88206 0.67639 0.92356 0.0
H2371 H 0.89473 0.66903 0.9418 0.0
H2372 H 0.93155 0.70385 0.97127 0.0
C2373 C 0.96286 0.68513 0.97956 0.0
C2374 C 0.92908 0.66859 0.95797 0.0
C2375 C 0.97264 0.68208 0.98532 0.0
C2376 C 0.89261 0.68421 0.92757 0.0
C2377 C 0.89987 0.68 0.93801 0.0
C2378 C 0.93078 0.69401 0.96733 0.0
C2379 C 0.94872 0.67447 0.97857 0.0
C2380 C 0.93864 0.67763 0.97104 0.0
C2381 C 0.91356 0.68985 0.94351 0.0
C2382 C 0.92162 0.68526 0.95372 0.0
H2383 H 0.95083 0.647 0.99366 0.0
H2384 H 0.93366 0.65233 0.98335 0.0
H2385 H 0.94637 0.69733 0.98607 0.0
H2386 H 0.91756 0.71922 0.92434 0.0
H2387 H 0.93034 0.71188 0.94233 0.0
C2388 C 0.35484 0.32128 0.96931 0.0
C2389 C 0.34529 0.32296 0.97954 0.0
C2390 C 0.35088 0.30815 0.96133 0.0
C2391 C 0.31982 0.27446 0.94654 0.0
H2392 H 0.34434 0.25995 0.94759 0.0
C2393 C 0.30168 0.21692 0.92542 0.0
C2394 C 0.31102 0.21472 0.91548 0.0
C2395 C 0.30597 0.23024 0.93299 0.0
C2396 C 0.33744 0.26393 0.947 0.0
H2397 H 0.32413 0.31212 0.98961 0.0
H2398 H 0.31731 0.28929 0.97585 0.0
H2399 H 0.35179 0.28307 0.96124 0.0
H2400 H 0.33208 0.22486 0.90529 0.0
H2401 H 0.33955 0.2481 0.91846 0.0
H2402 H 0.30546 0.25535 0.93232 0.0
C2403 C 0.32779 0.29814 0.97377 0.0
C2404 C 0.34171 0.27717 0.95482 0.0
C2405 C 0.33175 0.31122 0.98175 0.0
C2406 C 0.32471 0.22616 0.91315 0.0
C2407 C 0.32899 0.23947 0.9207 0.0
C2408 C 0.31555 0.26124 0.93872 0.0
C2409 C 0.33728 0.29646 0.9634 0.0
C2410 C 0.33292 0.28255 0.95475 0.0
C2411 C 0.31969 0.24166 0.93075 0.0
C2412 C 0.32429 0.25579 0.93891 0.0
H2413 H 0.36534 0.33012 0.96733 0.0
H2414 H 0.35839 0.30721 0.95329 0.0
H2415 H 0.3129 0.27842 0.94601 0.0
H2416 H 0.29112 0.20827 0.92763 0.0
H2417 H 0.2986 0.23153 0.94087 0.0
C2418 C 0.69049 0.02762 0.98575 0.0
C2419 C 0.67982 0.03054 0.9854 0.0
C2420 C 0.70362 0.0372 0.97891 0.0
C2421 C 0.72108 0.06603 0.94715 0.0
H2422 H 0.75461 0.07315 0.9705 0.0
C2423 C 0.77593 0.10758 0.92233 0.0
C2424 C 0.78603 0.10386 0.9223 0.0
C2425 C 0.76304 0.09899 0.93041 0.0
C2426 C 0.74534 0.07115 0.96373 0.0
H2427 H 0.67468 0.04597 0.97795 0.0
H2428 H 0.69768 0.06277 0.9661 0.0
H2429 H 0.73207 0.05787 0.98443 0.0
H2430 H 0.79052 0.08818 0.93078 0.0
H2431 H 0.7679 0.07301 0.94463 0.0
H2432 H 0.73433 0.0792 0.92637 0.0
C2433 C 0.6958 0.05297 0.97149 0.0
C2434 C 0.73243 0.06243 0.97172 0.0
C2435 C 0.68266 0.04339 0.97838 0.0
C2436 C 0.78292 0.09128 0.93045 0.0
C2437 C 0.77003 0.08268 0.93857 0.0
C2438 C 0.73399 0.07474 0.93914 0.0
C2439 C 0.70639 0.04992 0.97155 0.0
C2440 C 0.72015 0.05971 0.96348 0.0
C2441 C 0.75995 0.08646 0.93866 0.0
C2442 C 0.74626 0.07735 0.9473 0.0
H2443 H 0.68867 0.01782 0.99106 0.0
H2444 H 0.71149 0.03445 0.97897 0.0
H2445 H 0.7118 0.06395 0.94031 0.0
H2446 H 0.77794 0.11712 0.91597 0.0
H2447 H 0.75556 0.10226 0.93039 0.0
C2448 C 0.6652 0.97369 0.04978 0.0
C2449 C 0.65811 0.97014 0.03342 0.0
C2450 C 0.66945 0.96506 0.05675 0.0
C2451 C 0.67807 0.93849 0.04372 0.0
H2452 H 0.6739 0.93068 0.09418 0.0
C2453 C 0.68999 0.89899 0.07485 0.0
C2454 C 0.69633 0.90252 0.09174 0.0
C2455 C 0.68548 0.90727 0.06739 0.0
C2456 C 0.67531 0.93291 0.0801 0.0
H2457 H 0.64979 0.95465 0.01162 0.0
H2458 H 0.65724 0.93951 0.02388 0.0
H2459 H 0.66521 0.94464 0.08191 0.0
H2460 H 0.7031 0.91766 0.1139 0.0
H2461 H 0.69556 0.93231 0.10068 0.0
H2462 H 0.68829 0.92686 0.04194 0.0
C2463 C 0.65957 0.94906 0.03121 0.0
C2464 C 0.67029 0.94087 0.07307 0.0
C2465 C 0.65524 0.95767 0.02425 0.0
C2466 C 0.69836 0.91471 0.1008 0.0
C2467 C 0.69387 0.923 0.09333 0.0
C2468 C 0.68315 0.93056 0.05077 0.0
C2469 C 0.66676 0.9527 0.04751 0.0
C2470 C 0.67166 0.9438 0.05482 0.0
C2471 C 0.68723 0.91928 0.07663 0.0
C2472 C 0.68187 0.92773 0.06906 0.0
H2473 H 0.66759 0.98323 0.05718 0.0
H2474 H 0.67511 0.96824 0.06923 0.0
H2475 H 0.67945 0.94074 0.02964 0.0
H2476 H 0.68843 0.88976 0.06742 0.0
H2477 H 0.68032 0.90404 0.05457 0.0
C2478 C 0.03913 0.70308 0.00685 0.0
C2479 C 0.02842 0.69201 0.0166 0.0
C2480 C 0.04809 0.71626 0.0151 0.0
C2481 C 0.06031 0.73381 0.05949 0.0
H2482 H 0.0695 0.76781 0.03461 0.0
C2483 C 0.08599 0.78831 0.09526 0.0
C2484 C 0.09734 0.79955 0.08654 0.0
C2485 C 0.07749 0.77537 0.0863 0.0
C2486 C 0.06711 0.75841 0.04166 0.0
H2487 H 0.01889 0.68601 0.04273 0.0
H2488 H 0.03431 0.70892 0.05695 0.0
H2489 H 0.05545 0.74469 0.0197 0.0
H2490 H 0.10836 0.80629 0.06143 0.0
H2491 H 0.09354 0.78366 0.0458 0.0
H2492 H 0.07184 0.74751 0.08149 0.0
C2493 C 0.03595 0.70743 0.04302 0.0
C2494 C 0.05912 0.74518 0.03311 0.0
C2495 C 0.02704 0.69429 0.03481 0.0
C2496 C 0.09975 0.79775 0.06853 0.0
C2497 C 0.09121 0.78484 0.05954 0.0
C2498 C 0.06824 0.74702 0.06805 0.0
C2499 C 0.04651 0.71861 0.03325 0.0
C2500 C 0.05556 0.73272 0.04197 0.0
C2501 C 0.08013 0.77344 0.06843 0.0
C2502 C 0.07166 0.75945 0.05926 0.0
H2503 H 0.04049 0.70165 0.99281 0.0
H2504 H 0.05625 0.72462 0.00726 0.0
H2505 H 0.05796 0.72445 0.06658 0.0
H2506 H 0.08394 0.78936 0.10917 0.0
H2507 H 0.06891 0.76681 0.09342 0.0
C2508 C 0.29491 0.32406 0.03837 0.0
C2509 C 0.30377 0.33749 0.03122 0.0
C2510 C 0.2818 0.32027 0.04482 0.0
C2511 C 0.26208 0.33543 0.06286 0.0
H2512 H 0.23008 0.29794 0.05282 0.0
C2513 C 0.20744 0.31905 0.08814 0.0
C2514 C 0.1994 0.30546 0.09519 0.0
C2515 C 0.21964 0.32296 0.07876 0.0
C2516 C 0.23893 0.30841 0.05588 0.0
H2517 H 0.3058 0.35748 0.02516 0.0
H2518 H 0.28285 0.35085 0.03654 0.0
H2519 H 0.2525 0.30488 0.03945 0.0
H2520 H 0.19773 0.28524 0.09779 0.0
H2521 H 0.21914 0.29209 0.08161 0.0
H2522 H 0.24866 0.33889 0.07961 0.0
C2523 C 0.28612 0.34329 0.03719 0.0
C2524 C 0.25176 0.31238 0.04819 0.0
C2525 C 0.29922 0.34705 0.03062 0.0
C2526 C 0.20365 0.29574 0.09233 0.0
C2527 C 0.2159 0.29967 0.08304 0.0
C2528 C 0.24927 0.33144 0.07062 0.0
C2529 C 0.27727 0.32985 0.04435 0.0
C2530 C 0.26349 0.3259 0.05173 0.0
C2531 C 0.22412 0.31338 0.0763 0.0
C2532 C 0.23757 0.31783 0.06734 0.0
H2533 H 0.29809 0.31643 0.03902 0.0
H2534 H 0.27529 0.30991 0.05047 0.0
H2535 H 0.27098 0.34585 0.06602 0.0
H2536 H 0.2043 0.32669 0.0899 0.0
H2537 H 0.22558 0.33351 0.07346 0.0
C2538 C 0.69837 0.68096 0.39191 0.0
C2539 C 0.69869 0.68356 0.37366 0.0
C2540 C 0.70712 0.67695 0.39891 0.0
C2541 C 0.72622 0.65976 0.38642 0.0
H2542 H 0.74506 0.67565 0.43153 0.0
C2543 C 0.76395 0.64537 0.41661 0.0
C2544 C 0.76348 0.64385 0.43516 0.0
C2545 C 0.75649 0.65055 0.40855 0.0
C2546 C 0.73974 0.67098 0.41902 0.0
H2547 H 0.70857 0.68417 0.34845 0.0
H2548 H 0.72386 0.67708 0.36073 0.0
H2549 H 0.73155 0.68449 0.41848 0.0
H2550 H 0.75443 0.64605 0.45974 0.0
H2551 H 0.74124 0.65484 0.4457 0.0
H2552 H 0.73417 0.64604 0.38711 0.0
C2553 C 0.71677 0.67811 0.36958 0.0
C2554 C 0.73205 0.67609 0.41152 0.0
C2555 C 0.70809 0.68225 0.36258 0.0
C2556 C 0.75517 0.64733 0.44544 0.0
C2557 C 0.74766 0.65242 0.43739 0.0
C2558 C 0.73386 0.65458 0.39397 0.0
C2559 C 0.71632 0.67535 0.3878 0.0
C2560 C 0.72511 0.67046 0.39523 0.0
C2561 C 0.74834 0.65424 0.41887 0.0
C2562 C 0.74061 0.66004 0.41045 0.0
H2563 H 0.69125 0.68187 0.40081 0.0
H2564 H 0.70643 0.67475 0.41298 0.0
H2565 H 0.72085 0.6551 0.37394 0.0
H2566 H 0.77038 0.64291 0.40839 0.0
H2567 H 0.75736 0.65196 0.39428 0.0
C2568 C 0.31142 0.02506 0.3688 0.0
C2569 C 0.31976 0.01961 0.36391 0.0
C2570 C 0.31748 0.03902 0.37522 0.0
C2571 C 0.34999 0.06839 0.39542 0.0
H2572 H 0.33395 0.09058 0.38365 0.0
C2573 C 0.36443 0.12047 0.43293 0.0
C2574 C 0.36458 0.13122 0.42334 0.0
C2575 C 0.36005 0.10731 0.42477 0.0
C2576 C 0.3387 0.08462 0.3869 0.0
H2577 H 0.34101 0.02461 0.36152 0.0
H2578 H 0.35156 0.04901 0.37228 0.0
H2579 H 0.32418 0.0669 0.37069 0.0
H2580 H 0.361 0.13696 0.39753 0.0
H2581 H 0.35367 0.11412 0.38312 0.0
H2582 H 0.36471 0.08625 0.41131 0.0
C2583 C 0.34034 0.04244 0.37158 0.0
C2584 C 0.33294 0.07094 0.37966 0.0
C2585 C 0.33428 0.02846 0.3653 0.0
C2586 C 0.3608 0.12877 0.40527 0.0
C2587 C 0.35654 0.11567 0.39707 0.0
C2588 C 0.3558 0.08211 0.40257 0.0
C2589 C 0.33201 0.04786 0.37674 0.0
C2590 C 0.33844 0.06261 0.38395 0.0
C2591 C 0.35584 0.10468 0.4068 0.0
C2592 C 0.35016 0.09035 0.39851 0.0
H2593 H 0.3002 0.01849 0.36797 0.0
H2594 H 0.31073 0.04277 0.37932 0.0
H2595 H 0.3544 0.06223 0.39918 0.0
H2596 H 0.36714 0.12203 0.44694 0.0
H2597 H 0.35948 0.09905 0.43274 0.0
C2598 C 0.98155 0.31444 0.37206 0.0
C2599 C 0.98374 0.31243 0.35404 0.0
C2600 C 0.96861 0.30571 0.37995 0.0
C2601 C 0.93705 0.27056 0.3759 0.0
H2602 H 0.92074 0.28684 0.40628 0.0
C2603 C 0.88224 0.23614 0.4054 0.0
C2604 C 0.8803 0.23906 0.42315 0.0
C2605 C 0.89445 0.24543 0.39636 0.0
C2606 C 0.92522 0.28211 0.398 0.0
H2607 H 0.97407 0.29963 0.33015 0.0
H2608 H 0.95146 0.28429 0.34401 0.0
H2609 H 0.94294 0.30235 0.39169 0.0
H2610 H 0.88955 0.254 0.44535 0.0
H2611 H 0.91103 0.27014 0.4297 0.0
H2612 H 0.91955 0.25032 0.38246 0.0
C2613 C 0.95979 0.29263 0.35201 0.0
C2614 C 0.93791 0.291 0.38961 0.0
C2615 C 0.97272 0.30145 0.34407 0.0
C2616 C 0.89072 0.25157 0.43161 0.0
C2617 C 0.90301 0.26082 0.42262 0.0
C2618 C 0.92441 0.26166 0.38438 0.0
C2619 C 0.95761 0.2947 0.37001 0.0
C2620 C 0.94397 0.2853 0.37853 0.0
C2621 C 0.90506 0.2578 0.40492 0.0
C2622 C 0.91835 0.26732 0.39558 0.0
H2623 H 0.98982 0.3228 0.38012 0.0
H2624 H 0.96726 0.30744 0.3939 0.0
H2625 H 0.94157 0.26587 0.36761 0.0
H2626 H 0.87427 0.22666 0.39848 0.0
H2627 H 0.89556 0.24291 0.38264 0.0
C2628 C 0.0226 0.38154 0.32002 0.0
C2629 C 0.02002 0.36946 0.31011 0.0
C2630 C 0.01999 0.39133 0.31265 0.0
C2631 C -0.00094 0.3942 0.27789 0.0
H2632 H 0.0245 0.43465 0.28481 0.0
C2633 C 0.99292 0.43523 0.2406 0.0
C2634 C 0.99545 0.44739 0.25023 0.0
C2635 C 0.99595 0.42578 0.24804 0.0
C2636 C 0.01721 0.42338 0.28294 0.0
H2637 H 0.01299 0.35836 0.28456 0.0
H2638 H 0.00855 0.37549 0.2717 0.0
H2639 H 0.03005 0.41819 0.29742 0.0
H2640 H 0.00288 0.45904 0.27536 0.0
H2641 H 0.00812 0.4425 0.2884 0.0
H2642 H 0.9862 0.39934 0.26347 0.0
C2643 C 0.0124 0.37729 0.28524 0.0
C2644 C 0.0204 0.41396 0.29014 0.0
C2645 C 0.01503 0.36752 0.29258 0.0
C2646 C 0.00099 0.44986 0.26752 0.0
C2647 C 0.00401 0.4404 0.27497 0.0
C2648 C 0.99586 0.4036 0.27071 0.0
C2649 C 0.01472 0.38923 0.29525 0.0
C2650 C 0.01138 0.39927 0.28765 0.0
C2651 C 0.00157 0.42828 0.2653 0.0
C2652 C 0.00491 0.4183 0.27311 0.0
H2653 H 0.02644 0.38334 0.33356 0.0
H2654 H 0.02178 0.40037 0.32074 0.0
H2655 H 0.99178 0.38293 0.276 0.0
H2656 H 0.98887 0.43316 0.22714 0.0
H2657 H 0.99415 0.41666 0.24013 0.0
C2658 C 0.64238 0.64737 0.3137 0.0
C2659 C 0.6406 0.65055 0.33142 0.0
C2660 C 0.63335 0.63396 0.30616 0.0
C2661 C 0.59831 0.60258 0.31033 0.0
H2662 H 0.61335 0.58406 0.28183 0.0
C2663 C 0.56316 0.54589 0.28189 0.0
C2664 C 0.56568 0.54336 0.26422 0.0
C2665 C 0.57266 0.55845 0.29092 0.0
C2666 C 0.60897 0.58914 0.2896 0.0
H2667 H 0.62786 0.64218 0.35507 0.0
H2668 H 0.61204 0.61874 0.34183 0.0
H2669 H 0.62908 0.60714 0.2959 0.0
H2670 H 0.58019 0.55187 0.24223 0.0
H2671 H 0.59673 0.57388 0.2579 0.0
H2672 H 0.5782 0.58477 0.30379 0.0
C2673 C 0.62042 0.62667 0.33379 0.0
C2674 C 0.61799 0.60235 0.29767 0.0
C2675 C 0.62951 0.64007 0.34138 0.0
C2676 C 0.57806 0.55347 0.25591 0.0
C2677 C 0.58753 0.56607 0.26491 0.0
C2678 C 0.58929 0.58941 0.30218 0.0
C2679 C 0.6223 0.62346 0.31613 0.0
C2680 C 0.61274 0.60924 0.30804 0.0
C2681 C 0.58486 0.56879 0.28245 0.0
C2682 C 0.59451 0.58256 0.29164 0.0
H2683 H 0.6508 0.65521 0.30564 0.0
H2684 H 0.63494 0.63186 0.29245 0.0
H2685 H 0.59396 0.60772 0.31805 0.0
H2686 H 0.55378 0.53818 0.2887 0.0
H2687 H 0.57041 0.56007 0.30453 0.0
C2688 C 0.3674 0.9967 0.34132 0.0
C2689 C 0.35373 0.98595 0.33695 0.0
C2690 C 0.37868 0.99726 0.33267 0.0
C2691 C 0.38748 0.985 0.29121 0.0
H2692 H 0.42224 0.99788 0.31574 0.0
C2693 C 0.43389 0.98563 0.25727 0.0
C2694 C 0.44692 0.99815 0.2597 0.0
C2695 C 0.42243 0.98339 0.26727 0.0
C2696 C 0.41261 0.99434 0.30871 0.0
H2697 H 0.34118 0.96702 0.32058 0.0
H2698 H 0.36086 0.9678 0.3058 0.0
H2699 H 0.40228 0.99493 0.3325 0.0
H2700 H 0.45825 0.018 0.27471 0.0
H2701 H 0.43819 0.01409 0.29218 0.0
H2702 H 0.39783 0.98437 0.26745 0.0
C2703 C 0.36287 0.97601 0.31559 0.0
C2704 C 0.40119 0.99267 0.31829 0.0
C2705 C 0.35159 0.97552 0.32414 0.0
C2706 C 0.4483 0.00831 0.27246 0.0
C2707 C 0.43687 0.00601 0.28257 0.0
C2708 C 0.39887 0.98656 0.28167 0.0
C2709 C 0.37655 0.98701 0.31956 0.0
C2710 C 0.38852 0.9881 0.30962 0.0
C2711 C 0.4238 0.99357 0.28 0.0
C2712 C 0.41158 0.99137 0.2903 0.0
H2713 H 0.3694 0.00493 0.35109 0.0
H2714 H 0.38905 0.00598 0.33591 0.0
H2715 H 0.37797 0.9817 0.28403 0.0
H2716 H 0.43251 0.97767 0.24743 0.0
H2717 H 0.4125 0.97366 0.2651 0.0
C2718 C 0.62583 0.97747 0.31491 0.0
C2719 C 0.63462 0.98741 0.32794 0.0
C2720 C 0.61587 0.97909 0.30642 0.0
C2721 C 0.60821 0.00605 0.29475 0.0
H2722 H 0.57084 0.97395 0.28668 0.0
C2723 C 0.56515 0.0121 0.26419 0.0
C2724 C 0.55602 0.00149 0.25204 0.0
C2725 C 0.57459 0.01042 0.27392 0.0
C2726 C 0.58128 0.98298 0.28863 0.0
H2727 H 0.63976 0.00675 0.34243 0.0
H2728 H 0.62237 0.00959 0.32752 0.0
H2729 H 0.58747 0.97083 0.30306 0.0
H2730 H 0.54979 0.98095 0.24024 0.0
H2731 H 0.56642 0.97809 0.25699 0.0
H2732 H 0.60215 0.01817 0.28008 0.0
C2733 C 0.62325 0.00059 0.32384 0.0
C2734 C 0.59078 0.9812 0.29806 0.0
C2735 C 0.63315 0.99892 0.33243 0.0
C2736 C 0.55659 0.98922 0.24969 0.0
C2737 C 0.56609 0.98757 0.25933 0.0
C2738 C 0.59874 0.00782 0.28522 0.0
C2739 C 0.61456 0.99073 0.3107 0.0
C2740 C 0.60435 0.9927 0.30116 0.0
C2741 C 0.57516 0.99812 0.27163 0.0
C2742 C 0.58517 0.9963 0.28199 0.0
H2743 H 0.62669 0.96847 0.31116 0.0
H2744 H 0.6094 0.97139 0.29622 0.0
H2745 H 0.61866 0.01506 0.29674 0.0
H2746 H 0.5648 0.02158 0.26644 0.0
H2747 H 0.58128 0.01865 0.28347 0.0
C2748 C 0.00387 0.6439 0.34245 0.0
C2749 C 0.00466 0.65468 0.33216 0.0
C2750 C 0.00149 0.63133 0.3343 0.0
C2751 C 0.98645 0.60887 0.29429 0.0
H2752 H 0.01018 0.59455 0.30511 0.0
C2753 C 0.98587 0.56473 0.25155 0.0
C2754 C 0.98787 0.55484 0.26003 0.0
C2755 C 0.98743 0.57649 0.26101 0.0
C2756 C 0.00329 0.59824 0.30214 0.0
H2757 H 0.00352 0.66072 0.3053 0.0
H2758 H -0.00078 0.63873 0.29116 0.0
H2759 H 0.01371 0.61577 0.32067 0.0
H2760 H 0.99276 0.54927 0.28512 0.0
H2761 H 0.99514 0.56961 0.30182 0.0
H2762 H 0.97589 0.59132 0.27595 0.0
C2763 C 0.00043 0.64001 0.3055 0.0
C2764 C 0.00536 0.61043 0.31103 0.0
C2765 C 0.00298 0.65262 0.3136 0.0
C2766 C 0.9913 0.55683 0.27822 0.0
C2767 C 0.99271 0.56851 0.28775 0.0
C2768 C 0.98427 0.5966 0.28554 0.0
C2769 C -0.00032 0.62925 0.31576 0.0
C2770 C 0.99706 0.61594 0.30703 0.0
C2771 C 0.99088 0.57854 0.27924 0.0
C2772 C 0.99277 0.59122 0.28919 0.0
H2773 H 0.00514 0.64519 0.35678 0.0
H2774 H 0.00089 0.62317 0.34251 0.0
H2775 H 0.97977 0.61279 0.29115 0.0
H2776 H 0.98343 0.56356 0.23747 0.0
H2777 H 0.98621 0.58412 0.25392 0.0
C2778 C 0.35083 0.36716 0.32002 0.0
C2779 C 0.35072 0.35843 0.33327 0.0
C2780 C 0.3632 0.37673 0.31148 0.0
C2781 C 0.40163 0.39459 0.31484 0.0
H2782 H 0.39988 0.39971 0.26426 0.0
C2783 C 0.45024 0.42393 0.26982 0.0
C2784 C 0.45065 0.4342 0.2589 0.0
C2785 C 0.43814 0.41469 0.27913 0.0
C2786 C 0.4005 0.39844 0.27841 0.0
H2787 H 0.36346 0.35294 0.34809 0.0
H2788 H 0.385 0.36934 0.33281 0.0
H2789 H 0.37865 0.38365 0.2803 0.0
H2790 H 0.43875 0.44273 0.24883 0.0
H2791 H 0.41751 0.42644 0.26494 0.0
H2792 H 0.4236 0.40917 0.31269 0.0
C2793 C 0.37561 0.36906 0.32928 0.0
C2794 C 0.38833 0.3893 0.28764 0.0
C2795 C 0.36325 0.3596 0.338 0.0
C2796 C 0.43871 0.43496 0.25726 0.0
C2797 C 0.42656 0.4256 0.26637 0.0
C2798 C 0.41382 0.4036 0.30553 0.0
C2799 C 0.37571 0.37765 0.3158 0.0
C2800 C 0.38872 0.38732 0.306 0.0
C2801 C 0.42619 0.41543 0.27746 0.0
C2802 C 0.41334 0.40566 0.28726 0.0
H2803 H 0.34135 0.36659 0.31621 0.0
H2804 H 0.36293 0.38341 0.30146 0.0
H2805 H 0.40231 0.3935 0.329 0.0
H2806 H 0.45935 0.4232 0.27137 0.0
H2807 H 0.43807 0.40687 0.28751 0.0
C2808 C 0.33332 0.29976 0.34409 0.0
C2809 C 0.32164 0.29989 0.35044 0.0
C2810 C 0.33783 0.29186 0.35259 0.0
C2811 C 0.32662 0.26188 0.3818 0.0
H2812 H 0.36542 0.28121 0.39569 0.0
C2813 C 0.34606 0.23667 0.42978 0.0
C2814 C 0.35913 0.23847 0.42654 0.0
C2815 C 0.34176 0.24434 0.42034 0.0
C2816 C 0.35461 0.27557 0.39169 0.0
H2817 H 0.30524 0.29145 0.37025 0.0
H2818 H 0.313 0.27744 0.38488 0.0
H2819 H 0.3571 0.29365 0.37857 0.0
H2820 H 0.37806 0.24977 0.41113 0.0
H2821 H 0.37045 0.26298 0.39423 0.0
H2822 H 0.32408 0.24372 0.39457 0.0
C2823 C 0.31869 0.28352 0.3734 0.0
C2824 C 0.34985 0.28272 0.38191 0.0
C2825 C 0.31428 0.29158 0.36506 0.0
C2826 C 0.36797 0.24829 0.41395 0.0
C2827 C 0.3636 0.25586 0.40432 0.0
C2828 C 0.3314 0.25467 0.39138 0.0
C2829 C 0.33063 0.28377 0.36742 0.0
C2830 C 0.33579 0.27597 0.37702 0.0
C2831 C 0.35037 0.25386 0.40727 0.0
C2832 C 0.34542 0.26147 0.39662 0.0
H2833 H 0.33923 0.3061 0.33288 0.0
H2834 H 0.347 0.29212 0.34763 0.0
H2835 H 0.31576 0.25639 0.37801 0.0
H2836 H 0.33913 0.22928 0.43962 0.0
H2837 H 0.33166 0.24279 0.42332 0.0
C2838 C 0.69715 0.02235 0.36224 0.0
C2839 C 0.69916 0.01113 0.36542 0.0
C2840 C 0.70634 0.0359 0.36927 0.0
C2841 C 0.73196 0.05456 0.40514 0.0
H2842 H 0.74337 0.08771 0.37702 0.0
C2843 C 0.77418 0.11079 0.42897 0.0
C2844 C 0.77189 0.12183 0.42596 0.0
C2845 C 0.7654 0.09731 0.42146 0.0
C2846 C 0.74015 0.07856 0.3851 0.0
H2847 H 0.71251 0.0054 0.37827 0.0
H2848 H 0.72863 0.02914 0.39045 0.0
H2849 H 0.72817 0.06414 0.36386 0.0
H2850 H 0.75857 0.12739 0.41269 0.0
H2851 H 0.74306 0.10375 0.39979 0.0
H2852 H 0.7439 0.06897 0.42641 0.0
C2853 C 0.71984 0.02738 0.38268 0.0
C2854 C 0.73147 0.06506 0.37756 0.0
C2855 C 0.71065 0.01381 0.37562 0.0
C2856 C 0.76056 0.11907 0.41535 0.0
C2857 C 0.75177 0.10558 0.4078 0.0
C2858 C 0.74064 0.06806 0.41269 0.0
C2859 C 0.71774 0.03856 0.37964 0.0
C2860 C 0.72725 0.05291 0.38751 0.0
C2861 C 0.75411 0.09455 0.41077 0.0
C2862 C 0.74483 0.08021 0.40276 0.0
H2863 H 0.68839 0.02066 0.35447 0.0
H2864 H 0.70433 0.04424 0.36687 0.0
H2865 H 0.72871 0.04541 0.41325 0.0
H2866 H 0.78272 0.11252 0.43727 0.0
H2867 H 0.76757 0.08909 0.42387 0.0
C2868 C 0.96688 0.68391 0.36199 0.0
C2869 C 0.97752 0.68578 0.37336 0.0
C2870 C 0.95358 0.67922 0.36868 0.0
C2871 C 0.93478 0.67626 0.41052 0.0
H2872 H 0.9026 0.64621 0.38523 0.0
C2873 C 0.8813 0.64539 0.44385 0.0
C2874 C 0.86965 0.64247 0.43383 0.0
C2875 C 0.89423 0.65076 0.43572 0.0
C2876 C 0.91147 0.65473 0.39234 0.0
H2877 H 0.98259 0.6844 0.40069 0.0
H2878 H 0.95947 0.67622 0.41229 0.0
H2879 H 0.92575 0.65603 0.37231 0.0
H2880 H 0.86236 0.64265 0.40735 0.0
H2881 H 0.88502 0.65207 0.3931 0.0
H2882 H 0.92059 0.67494 0.43059 0.0
C2883 C 0.9614 0.67847 0.39825 0.0
C2884 C 0.92472 0.66036 0.38493 0.0
C2885 C 0.97465 0.68309 0.39157 0.0
C2886 C 0.87113 0.64468 0.41539 0.0
C2887 C 0.88411 0.65009 0.40724 0.0
C2888 C 0.92157 0.67066 0.4179 0.0
C2889 C 0.95069 0.6764 0.38688 0.0
C2890 C 0.93653 0.67106 0.39407 0.0
C2891 C 0.89584 0.65337 0.41738 0.0
C2892 C 0.90978 0.6597 0.40902 0.0
H2893 H 0.96877 0.68589 0.34788 0.0
H2894 H 0.94556 0.67784 0.35963 0.0
H2895 H 0.94365 0.68469 0.41773 0.0
H2896 H 0.88043 0.64354 0.45803 0.0
H2897 H 0.90299 0.65287 0.44384 0.0
C2898 C 0.37477 0.02188 0.69699 0.0
C2899 C 0.36558 0.02372 0.70783 0.0
C2900 C 0.38465 0.01965 0.70461 0.0
C2901 C 0.4035 0.02455 0.74644 0.0
H2902 H 0.40791 0.99437 0.72723 0.0
C2903 C 0.43381 0.00475 0.784 0.0
C2904 C 0.4423 0.00135 0.77399 0.0
C2905 C 0.42477 0.00772 0.77551 0.0
C2906 C 0.40695 0.00296 0.73261 0.0
H2907 H 0.35969 0.02488 0.73516 0.0
H2908 H 0.37692 0.02102 0.7484 0.0
H2909 H 0.39185 -0.0005 0.71299 0.0
H2910 H 0.44803 0.99852 0.74723 0.0
H2911 H 0.43231 0.00383 0.73238 0.0
H2912 H 0.41859 0.02806 0.76604 0.0
C2913 C 0.37654 0.02137 0.73403 0.0
C2914 C 0.39774 0.00589 0.72445 0.0
C2915 C 0.36661 0.0235 0.72643 0.0
C2916 C 0.44149 0.00092 0.7553 0.0
C2917 C 0.43248 0.00396 0.7468 0.0
C2918 C 0.41275 0.02167 0.75455 0.0
C2919 C 0.38561 0.01934 0.72321 0.0
C2920 C 0.39584 0.01664 0.73137 0.0
C2921 C 0.42404 0.00744 0.75681 0.0
C2922 C 0.4145 0.01076 0.74783 0.0
H2923 H 0.37424 0.02199 0.68261 0.0
H2924 H 0.39159 0.01826 0.69594 0.0
H2925 H 0.4024 0.03304 0.75191 0.0
H2926 H 0.43406 0.00495 0.79842 0.0
H2927 H 0.41822 0.01009 0.78364 0.0
C2928 C 0.98375 0.35347 0.67798 0.0
C2929 C 0.98688 0.34459 0.68705 0.0
C2930 C 0.98559 0.36576 0.68632 0.0
C2931 C 0.00495 0.39147 0.72257 0.0
H2932 H 0.97633 0.40055 0.71948 0.0
C2933 C 0.00614 0.4356 0.76614 0.0
C2934 C 0.00184 0.44404 0.7584 0.0
C2935 C 0.00445 0.42366 0.75702 0.0
C2936 C 0.98451 0.39828 0.72027 0.0
H2937 H 0.99435 0.34161 0.71202 0.0
H2938 H 0.99755 0.36304 0.72652 0.0
H2939 H 0.97311 0.37936 0.70418 0.0
H2940 H 0.99264 0.44676 0.73492 0.0
H2941 H 0.98985 0.42601 0.71886 0.0
H2942 H 0.01641 0.4104 0.73853 0.0
C2943 C 0.99378 0.36055 0.71292 0.0
C2944 C 0.98265 0.38613 0.71153 0.0
C2945 C 0.99186 0.34824 0.70464 0.0
C2946 C 0.99589 0.44035 0.7413 0.0
C2947 C 0.99427 0.42845 0.73213 0.0
C2948 C 0.00685 0.40366 0.73122 0.0
C2949 C 0.99068 0.36945 0.70385 0.0
C2950 C 0.9928 0.38255 0.71269 0.0
C2951 C -0.0015 0.41994 0.7399 0.0
C2952 C 0.99662 0.40717 0.73028 0.0
H2953 H 0.9799 0.35096 0.66442 0.0
H2954 H 0.98322 0.37248 0.67896 0.0
H2955 H 0.01305 0.38909 0.72347 0.0
H2956 H 0.01057 0.43807 0.77941 0.0
H2957 H 0.0076 0.41721 0.76354 0.0
C2958 C 0.64828 0.64403 0.70929 0.0
C2959 C 0.64926 0.6421 0.69087 0.0
C2960 C 0.636 0.6351 0.71844 0.0
C2961 C 0.60419 0.5999 0.7164 0.0
H2962 H 0.58956 0.61658 0.74906 0.0
C2963 C 0.55002 0.56651 0.748 0.0
C2964 C 0.54852 0.5694 0.76593 0.0
C2965 C 0.56223 0.57553 0.73876 0.0
C2966 C 0.59358 0.61173 0.74018 0.0
H2967 H 0.63818 0.62911 0.66765 0.0
H2968 H 0.61673 0.61342 0.68371 0.0
H2969 H 0.61119 0.63185 0.73321 0.0
H2970 H 0.55855 0.58397 0.78828 0.0
H2971 H 0.58002 0.59965 0.77227 0.0
H2972 H 0.58675 0.57979 0.72351 0.0
C2973 C 0.6255 0.62186 0.69103 0.0
C2974 C 0.60596 0.62049 0.73107 0.0
C2975 C 0.63776 0.63088 0.68184 0.0
C2976 C 0.5594 0.58158 0.77441 0.0
C2977 C 0.57167 0.59056 0.76521 0.0
C2978 C 0.59187 0.59114 0.7256 0.0
C2979 C 0.62447 0.62396 0.70939 0.0
C2980 C 0.61137 0.61466 0.71908 0.0
C2981 C 0.57325 0.5876 0.74729 0.0
C2982 C 0.5864 0.59695 0.73757 0.0
H2983 H 0.65696 0.65257 0.71665 0.0
H2984 H 0.63554 0.63685 0.73263 0.0
H2985 H 0.60822 0.59512 0.7074 0.0
H2986 H 0.54171 0.5573 0.74106 0.0
H2987 H 0.56297 0.57308 0.72488 0.0
C2988 C 0.67036 0.69365 0.62662 0.0
C2989 C 0.67661 0.69694 0.64354 0.0
C2990 C 0.66574 0.70193 0.6195 0.0
C2991 C 0.65529 0.72729 0.63256 0.0
H2992 H 0.66082 0.73627 0.58245 0.0
C2993 C 0.64557 0.76838 0.60182 0.0
C2994 C 0.63923 0.76511 0.58496 0.0
C2995 C 0.64955 0.75966 0.60922 0.0
C2996 C 0.65904 0.7337 0.59642 0.0
H2997 H 0.68309 0.71164 0.66617 0.0
H2998 H 0.67519 0.72623 0.65361 0.0
H2999 H 0.66938 0.7222 0.59478 0.0
H3000 H 0.63194 0.75003 0.56271 0.0
H3001 H 0.63877 0.73468 0.57575 0.0
H3002 H 0.64505 0.7389 0.6342 0.0
C3003 C 0.67367 0.7171 0.64598 0.0
C3004 C 0.66396 0.72565 0.60349 0.0
C3005 C 0.67828 0.70879 0.65311 0.0
C3006 C 0.63671 0.75277 0.5758 0.0
C3007 C 0.64075 0.74407 0.58317 0.0
C3008 C 0.6504 0.73537 0.62549 0.0
C3009 C 0.66728 0.71371 0.62913 0.0
C3010 C 0.66214 0.72236 0.62165 0.0
C3011 C 0.64734 0.7475 0.59988 0.0
C3012 C 0.65223 0.73866 0.60735 0.0
H3013 H 0.66887 0.68456 0.61892 0.0
H3014 H 0.66071 0.69893 0.60659 0.0
H3015 H 0.65353 0.72473 0.64654 0.0
H3016 H 0.64752 0.77776 0.60927 0.0
H3017 H 0.65469 0.76264 0.62207 0.0
C3018 C 0.29952 0.97217 0.67494 0.0
C3019 C 0.30821 0.98374 0.66422 0.0
C3020 C 0.29029 0.95886 0.66722 0.0
C3021 C 0.27307 0.94148 0.62423 0.0
H3022 H 0.2665 0.9075 0.64678 0.0
C3023 C 0.24299 0.8865 0.58939 0.0
C3024 C 0.23241 0.87558 0.59946 0.0
C3025 C 0.25254 0.8995 0.59749 0.0
C3026 C 0.26819 0.91691 0.64041 0.0
H3027 H 0.31415 0.99039 0.63698 0.0
H3028 H 0.29838 0.96718 0.62355 0.0
H3029 H 0.28253 0.93066 0.66051 0.0
H3030 H 0.2238 0.86951 0.62597 0.0
H3031 H 0.24062 0.89226 0.6402 0.0
H3032 H 0.25888 0.92769 0.60397 0.0
C3033 C 0.2984 0.9684 0.63791 0.0
C3034 C 0.27732 0.93018 0.64829 0.0
C3035 C 0.30751 0.98172 0.64562 0.0
C3036 C 0.2318 0.87779 0.61789 0.0
C3037 C 0.24147 0.89075 0.62603 0.0
C3038 C 0.26406 0.92824 0.61627 0.0
C3039 C 0.28963 0.9568 0.6486 0.0
C3040 C 0.27987 0.94264 0.6403 0.0
C3041 C 0.2518 0.9018 0.61586 0.0
C3042 C 0.26152 0.91582 0.62427 0.0
H3043 H 0.29977 0.9734 0.68932 0.0
H3044 H 0.28355 0.95023 0.67586 0.0
H3045 H 0.27454 0.95081 0.61787 0.0
H3046 H 0.24362 0.88512 0.57514 0.0
H3047 H 0.26049 0.9078 0.58938 0.0
C3048 C 0.02467 0.32458 0.62582 0.0
C3049 C 0.02169 0.32098 0.6438 0.0
C3050 C 0.038 0.32964 0.61909 0.0
C3051 C 0.07457 0.34762 0.63221 0.0
H3052 H 0.07893 0.33296 0.58675 0.0
C3053 C 0.12843 0.36329 0.60287 0.0
C3054 C 0.12998 0.36475 0.58433 0.0
C3055 C 0.11539 0.35813 0.61075 0.0
C3056 C 0.07791 0.33732 0.59935 0.0
H3057 H 0.03036 0.31989 0.66886 0.0
H3058 H 0.05373 0.32885 0.65705 0.0
H3059 H 0.0558 0.32334 0.59931 0.0
H3060 H 0.11938 0.3627 0.55958 0.0
H3061 H 0.09676 0.35402 0.57328 0.0
H3062 H 0.09667 0.36179 0.6321 0.0
C3063 C 0.04571 0.32774 0.64821 0.0
C3064 C 0.06465 0.33175 0.60656 0.0
C3065 C 0.03232 0.32254 0.65492 0.0
C3066 C 0.11841 0.36144 0.57388 0.0
C3067 C 0.10544 0.3564 0.58174 0.0
C3068 C 0.08786 0.35328 0.62492 0.0
C3069 C 0.04867 0.33133 0.63022 0.0
C3070 C 0.06283 0.3369 0.623 0.0
C3071 C 0.1037 0.35444 0.60022 0.0
C3072 C 0.08967 0.34827 0.60832 0.0
H3073 H 0.01671 0.32352 0.6169 0.0
H3074 H 0.04001 0.33246 0.6052 0.0
H3075 H 0.07345 0.35187 0.64484 0.0
H3076 H 0.13718 0.36569 0.6112 0.0
H3077 H 0.11441 0.35664 0.625 0.0
C3078 C 0.30079 0.32499 0.62408 0.0
C3079 C 0.3012 0.32316 0.64245 0.0
C3080 C 0.29239 0.32956 0.6174 0.0
C3081 C 0.27565 0.34918 0.63027 0.0
H3082 H 0.25462 0.3323 0.58676 0.0
C3083 C 0.23796 0.36428 0.60152 0.0
C3084 C 0.23779 0.36517 0.58291 0.0
C3085 C 0.24553 0.35916 0.60943 0.0
C3086 C 0.26055 0.33724 0.59881 0.0
H3087 H 0.29299 0.32451 0.66821 0.0
H3088 H 0.27828 0.33249 0.65648 0.0
H3089 H 0.26772 0.32287 0.5994 0.0
H3090 H 0.24592 0.36207 0.55805 0.0
H3091 H 0.25923 0.3533 0.5718 0.0
H3092 H 0.26862 0.36368 0.62955 0.0
C3093 C 0.28454 0.33048 0.64729 0.0
C3094 C 0.26803 0.3318 0.60608 0.0
C3095 C 0.29289 0.32582 0.65398 0.0
C3096 C 0.24565 0.36125 0.57241 0.0
C3097 C 0.25324 0.35619 0.58029 0.0
C3098 C 0.2682 0.35466 0.62297 0.0
C3099 C 0.28426 0.33246 0.62894 0.0
C3100 C 0.27576 0.33779 0.62179 0.0
C3101 C 0.25311 0.35488 0.59886 0.0
C3102 C 0.26068 0.34884 0.60705 0.0
H3103 H 0.30708 0.32305 0.61484 0.0
H3104 H 0.29251 0.33114 0.60322 0.0
H3105 H 0.28164 0.35411 0.6423 0.0
H3106 H 0.2319 0.36713 0.60992 0.0
H3107 H 0.24513 0.35818 0.62376 0.0
C3108 C 0.6931 0.98773 0.63566 0.0
C3109 C 0.68393 0.99022 0.64557 0.0
C3110 C 0.68862 0.97422 0.62853 0.0
C3111 C 0.66153 0.93646 0.63336 0.0
H3112 H 0.67142 0.93269 0.58478 0.0
C3113 C 0.63653 0.8824 0.59592 0.0
C3114 C 0.64539 0.87981 0.58546 0.0
C3115 C 0.6413 0.89588 0.60334 0.0
C3116 C 0.66869 0.93357 0.59843 0.0
H3117 H 0.66291 0.98045 0.65589 0.0
H3118 H 0.65512 0.95699 0.64339 0.0
H3119 H 0.67992 0.95621 0.59783 0.0
H3120 H 0.66612 0.88943 0.57427 0.0
H3121 H 0.67452 0.91282 0.5875 0.0
H3122 H 0.6503 0.91383 0.63398 0.0
C3123 C 0.6658 0.96542 0.64127 0.0
C3124 C 0.67357 0.94704 0.60591 0.0
C3125 C 0.67025 0.9789 0.64834 0.0
C3126 C 0.65909 0.89102 0.58247 0.0
C3127 C 0.66385 0.90448 0.58987 0.0
C3128 C 0.65666 0.92299 0.6259 0.0
C3129 C 0.67491 0.96293 0.63123 0.0
C3130 C 0.67001 0.94864 0.62344 0.0
C3131 C 0.65503 0.90707 0.60041 0.0
C3132 C 0.66017 0.92139 0.60834 0.0
H3133 H 0.70371 0.99622 0.63331 0.0
H3134 H 0.69592 0.9726 0.62101 0.0
H3135 H 0.65876 0.93735 0.647 0.0
H3136 H 0.62595 0.87397 0.59856 0.0
H3137 H 0.6342 0.89758 0.61123 0.0
C3138 C 0.01325 0.69035 0.64254 0.0
C3139 C 0.01136 0.69129 0.66096 0.0
C3140 C 0.02633 0.69886 0.63485 0.0
C3141 C 0.05995 0.73196 0.64193 0.0
H3142 H 0.07365 0.71525 0.60784 0.0
C3143 C 0.11599 0.76354 0.61554 0.0
C3144 C 0.11793 0.76212 0.59727 0.0
C3145 C 0.10321 0.75441 0.62357 0.0
C3146 C 0.06992 0.72012 0.61719 0.0
H3147 H 0.02168 0.702 0.68571 0.0
H3148 H 0.0445 0.71689 0.67225 0.0
H3149 H 0.05072 0.70051 0.62114 0.0
H3150 H 0.1081 0.74992 0.57311 0.0
H3151 H 0.08571 0.73406 0.58706 0.0
H3152 H 0.079 0.7516 0.63784 0.0
C3153 C 0.03585 0.7096 0.66377 0.0
C3154 C 0.05679 0.71167 0.62481 0.0
C3155 C 0.02279 0.70103 0.67148 0.0
C3156 C 0.10694 0.75116 0.58727 0.0
C3157 C 0.09412 0.74207 0.59527 0.0
C3158 C 0.07304 0.74042 0.63425 0.0
C3159 C 0.03777 0.70855 0.64539 0.0
C3160 C 0.05168 0.71751 0.63726 0.0
C3161 C 0.09205 0.74371 0.61348 0.0
C3162 C 0.07819 0.73461 0.6218 0.0
H3163 H 0.00465 0.68295 0.63406 0.0
H3164 H 0.02747 0.69794 0.62062 0.0
H3165 H 0.05621 0.7368 0.6513 0.0
H3166 H 0.12435 0.77178 0.62362 0.0
H3167 H 0.10207 0.75578 0.6377 0.0
C3168 C 0.97243 0.62146 0.69386 0.0
C3169 C 0.9757 0.63364 0.70408 0.0
C3170 C 0.9742 0.61101 0.70093 0.0
C3171 C 0.97808 0.59766 0.74369 0.0
H3172 H 0.99438 0.58084 0.71431 0.0
C3173 C -0.00128 0.56492 0.77309 0.0
C3174 C 0.99564 0.55242 0.76385 0.0
C3175 C 0.99576 0.57437 0.76551 0.0
C3176 C 0.98967 0.58532 0.72261 0.0
H3177 H 0.98339 0.64437 0.72971 0.0
H3178 H 0.98664 0.62626 0.74191 0.0
H3179 H 0.99002 0.59812 0.70159 0.0
H3180 H 0.98719 0.54009 0.73936 0.0
H3181 H 0.98192 0.55659 0.72615 0.0
H3182 H 0.97789 0.585 0.76476 0.0
C3183 C 0.9825 0.62467 0.72855 0.0
C3184 C 0.98715 0.59521 0.71533 0.0
C3185 C 0.98071 0.6351 0.72151 0.0
C3186 C 0.98959 0.54959 0.74684 0.0
C3187 C 0.98668 0.55909 0.73922 0.0
C3188 C 0.98063 0.58782 0.75097 0.0
C3189 C 0.97929 0.61251 0.71835 0.0
C3190 C 0.98143 0.60157 0.72583 0.0
C3191 C 0.98969 0.57156 0.74852 0.0
C3192 C 0.98655 0.58163 0.74056 0.0
H3193 H 0.96851 0.62 0.6804 0.0
H3194 H 0.97148 0.60169 0.6928 0.0
H3195 H 0.97342 0.60217 0.75204 0.0
H3196 H 0.00325 0.56731 0.7863 0.0
H3197 H 0.99834 0.58397 0.77292 0.0
C3198 C 0.368 0.36777 0.6761 0.0
C3199 C 0.35818 0.35615 0.68599 0.0
C3200 C 0.37769 0.38049 0.68472 0.0
C3201 C 0.39336 0.3955 0.72928 0.0
H3202 H 0.40373 0.43122 0.70816 0.0
C3203 C 0.42312 0.44887 0.76795 0.0
C3204 C 0.43488 0.45973 0.75938 0.0
C3205 C 0.41379 0.43639 0.75863 0.0
C3206 C 0.40098 0.42131 0.71413 0.0
H3207 H 0.3507 0.3488 0.71264 0.0
H3208 H 0.36722 0.37103 0.72759 0.0
H3209 H 0.38747 0.40902 0.69256 0.0
H3210 H 0.44595 0.46631 0.7343 0.0
H3211 H 0.42947 0.44452 0.7179 0.0
H3212 H 0.40662 0.40786 0.75107 0.0
C3213 C 0.36777 0.37027 0.71323 0.0
C3214 C 0.39172 0.40858 0.70518 0.0
C3215 C 0.35822 0.35752 0.70464 0.0
C3216 C 0.43698 0.45805 0.74122 0.0
C3217 C 0.42754 0.44565 0.73184 0.0
C3218 C 0.40246 0.4082 0.73832 0.0
C3219 C 0.37765 0.38192 0.7034 0.0
C3220 C 0.38776 0.39551 0.71267 0.0
C3221 C 0.41596 0.43464 0.74052 0.0
C3222 C 0.40632 0.42122 0.73085 0.0
H3223 H 0.36827 0.36701 0.6617 0.0
H3224 H 0.38528 0.38916 0.67673 0.0
H3225 H 0.39081 0.38566 0.73529 0.0
H3226 H 0.42133 0.44987 0.78197 0.0
H3227 H 0.40487 0.42809 0.76559 0.0
C3228 C 0.64239 0.02167 0.69508 0.0
C3229 C 0.64472 0.01043 0.69488 0.0
C3230 C 0.63017 0.01995 0.70235 0.0
C3231 C 0.59421 0.99289 0.71429 0.0
H3232 H 0.59711 0.0221 0.74676 0.0
C3233 C 0.54894 0.98443 0.75965 0.0
C3234 C 0.54724 0.99596 0.76276 0.0
C3235 C 0.56044 0.98619 0.75017 0.0
C3236 C 0.59607 0.01394 0.73751 0.0
H3237 H 0.63598 0.98851 0.70193 0.0
H3238 H 0.61468 0.98554 0.71462 0.0
H3239 H 0.61793 0.02526 0.73231 0.0
H3240 H 0.55589 0.0182 0.75779 0.0
H3241 H 0.57586 0.02125 0.74104 0.0
H3242 H 0.57234 0.98155 0.71948 0.0
C3243 C 0.62226 0.99565 0.70906 0.0
C3244 C 0.60802 0.01575 0.72926 0.0
C3245 C 0.63451 0.99739 0.7019 0.0
C3246 C 0.55706 0.00919 0.75583 0.0
C3247 C 0.56851 0.01093 0.74628 0.0
C3248 C 0.58224 0.9911 0.72248 0.0
C3249 C 0.62 0.00693 0.70946 0.0
C3250 C 0.60722 0.00521 0.71766 0.0
C3251 C 0.57044 -0.0005 0.74353 0.0
C3252 C 0.58304 0.00157 0.73427 0.0
H3253 H 0.65004 0.03185 0.68974 0.0
H3254 H 0.62864 0.0288 0.70232 0.0
H3255 H 0.59326 0.98467 0.70522 0.0
H3256 H 0.5416 0.97415 0.765 0.0
H3257 H 0.5617 0.97721 0.74851 0.0
loop_
_geom_bond_atom_site_label_1
_geom_bond_atom_site_label_2
_geom_bond_distance
_geom_bond_site_symmetry_2
_ccdc_geom_bond_type
C0 O1 1.160 . S
C0 O7 1.185 . S
O1 C0 1.160 . S
O2 Zn3 1.899 1_656 S
O2 C10 1.274 1_556 S
Zn3 O2 1.899 1_454 S
Zn3 O4 2.032 . S
Zn3 O7 2.086 . S
Zn3 O12 1.977 1_554 S
O4 Zn3 2.032 . S
O4 C8 1.278 1_455 S
C5 O6 1.203 1_455 S
C5 O12 1.267 . S
O6 C5 1.203 1_655 S
O7 C0 1.185 . S
O7 Zn3 2.086 . S
C8 O4 1.278 1_655 S
C8 O9 1.211 . S
O9 C8 1.211 . S
C10 O2 1.274 1_554 S
C10 O11 1.297 . S
O11 C10 1.297 . S
O12 Zn3 1.977 1_556 S
O12 C5 1.267 . S
C13 O14 1.160 . S
C13 O20 1.185 1_556 S
O14 C13 1.160 . S
O15 Zn16 1.899 . S
O15 C23 1.284 . S
Zn16 O15 1.899 . S
Zn16 O17 2.032 1_554 S
Zn16 O20 2.086 . S
Zn16 O25 1.977 . S
O17 Zn16 2.032 1_556 S
O17 C21 1.278 . S
C18 O19 1.203 . S
C18 O25 1.267 . S
O19 C18 1.203 . S
O20 C13 1.185 1_554 S
O20 Zn16 2.086 . S
C21 O17 1.278 . S
C21 O22 1.219 . S
O22 C21 1.219 . S
C23 O15 1.284 . S
C23 O24 1.273 . S
O24 C23 1.273 . S
O25 Zn16 1.977 . S
O25 C18 1.267 . S
C26 O27 1.143 1_554 S
C26 O33 1.221 . S
O27 C26 1.143 1_556 S
O28 Zn29 1.895 1_565 S
O28 C36 1.304 . S
Zn29 O28 1.895 1_545 S
Zn29 O30 2.032 1_554 S
Zn29 O33 2.086 . S
Zn29 O38 1.977 . S
O30 Zn29 2.032 1_556 S
O30 C34 1.278 . S
C31 O32 1.203 1_545 S
C31 O38 1.267 . S
O32 C31 1.203 1_565 S
O33 C26 1.221 . S
O33 Zn29 2.086 . S
C34 O30 1.278 . S
C34 O35 1.238 1_545 S
O35 C34 1.238 1_565 S
C36 O28 1.304 . S
C36 O37 1.273 . S
O37 C36 1.273 . S
O38 Zn29 1.977 . S
O38 C31 1.267 . S
C39 O40 1.160 . S
C39 O46 1.185 1_556 S
O40 C39 1.160 . S
O41 Zn42 1.899 1_455 S
O41 C49 1.284 . S
Zn42 O41 1.899 1_655 S
Zn42 O43 2.033 1_654 S
Zn42 O46 2.086 . S
Zn42 O51 1.977 . S
O43 Zn42 2.033 1_456 S
O43 C47 1.275 . S
C44 O45 1.203 1_655 S
C44 O51 1.267 . S
O45 C44 1.203 1_455 S
O46 C39 1.185 1_554 S
O46 Zn42 2.086 . S
C47 O43 1.275 . S
C47 O48 1.211 . S
O48 C47 1.211 . S
C49 O41 1.284 . S
C49 O50 1.273 . S
O50 C49 1.273 . S
O51 Zn42 1.977 . S
O51 C44 1.267 . S
C52 O53 1.160 . S
C52 O59 1.185 . S
O53 C52 1.160 . S
O54 Zn55 1.899 1_556 S
O54 C62 1.284 . S
Zn55 O54 1.899 1_554 S
Zn55 O56 2.032 . S
Zn55 O59 2.086 . S
Zn55 O64 1.977 1_554 S
O56 Zn55 2.032 . S
O56 C60 1.278 . S
C57 O58 1.203 . S
C57 O64 1.267 . S
O58 C57 1.203 . S
O59 C52 1.185 . S
O59 Zn55 2.086 . S
C60 O56 1.278 . S
C60 O61 1.211 . S
O61 C60 1.211 . S
C62 O54 1.284 . S
C62 O63 1.273 1_556 S
O63 C62 1.273 1_554 S
O64 Zn55 1.977 1_556 S
O64 C57 1.267 . S
C65 O66 1.160 . S
C65 O72 1.185 . S
O66 C65 1.160 . S
O67 Zn68 1.899 1_546 S
O67 C75 1.289 . S
Zn68 O67 1.899 1_564 S
Zn68 O69 2.022 1_565 S
Zn68 O72 2.086 . S
Zn68 O77 1.977 1_554 S
O69 Zn68 2.022 1_545 S
O69 C73 1.305 . S
C70 O71 1.203 1_565 S
C70 O77 1.267 . S
O71 C70 1.203 1_545 S
O72 C65 1.185 . S
O72 Zn68 2.086 . S
C73 O69 1.305 . S
C73 O74 1.211 . S
O74 C73 1.211 . S
C75 O67 1.289 . S
C75 O76 1.264 1_556 S
O76 C75 1.264 1_554 S
O77 Zn68 1.977 1_556 S
O77 C70 1.267 . S
C78 O79 1.160 . S
C78 O85 1.185 . S
O79 C78 1.160 . S
O80 Zn81 1.899 . S
O80 C88 1.284 . S
Zn81 O80 1.899 . S
Zn81 O82 2.032 . S
Zn81 O85 2.086 . S
Zn81 O90 1.977 . S
O82 Zn81 2.032 . S
O82 C86 1.278 . S
C83 O84 1.203 . S
C83 O90 1.267 . S
O84 C83 1.203 . S
O85 C78 1.185 . S
O85 Zn81 2.086 . S
C86 O82 1.278 . S
C86 O87 1.211 . S
O87 C86 1.211 . S
C88 O80 1.284 . S
C88 O89 1.273 . S
O89 C88 1.273 . S
O90 Zn81 1.977 . S
O90 C83 1.267 . S
C91 O92 1.147 1_565 S
C91 O98 1.185 . S
O92 C91 1.147 1_545 S
O93 Zn94 1.899 1_545 S
O93 C101 1.284 . S
Zn94 O93 1.899 1_565 S
Zn94 O95 2.032 . S
Zn94 O98 2.086 . S
Zn94 O103 1.977 . S
O95 Zn94 2.032 . S
O95 C99 1.278 . S
C96 O97 1.203 . S
C96 O103 1.267 . S
O97 C96 1.203 . S
O98 C91 1.185 . S
O98 Zn94 2.086 . S
C99 O95 1.278 . S
C99 O100 1.211 . S
O100 C99 1.211 . S
C101 O93 1.284 . S
C101 O102 1.273 . S
O102 C101 1.273 . S
O103 Zn94 1.977 . S
O103 C96 1.267 . S
C104 O105 1.160 . S
C104 O111 1.185 . S
O105 C104 1.160 . S
O106 Zn107 1.899 . S
O106 C114 1.281 . S
Zn107 O106 1.899 . S
Zn107 O108 2.032 . S
Zn107 O111 2.086 . S
Zn107 O116 1.977 . S
O108 Zn107 2.032 . S
O108 C112 1.278 . S
C109 O110 1.203 . S
C109 O116 1.267 . S
O110 C109 1.203 . S
O111 C104 1.185 . S
O111 Zn107 2.086 . S
C112 O108 1.278 . S
C112 O113 1.211 . S
O113 C112 1.211 . S
C114 O106 1.281 . S
C114 O115 1.311 . S
O115 C114 1.311 . S
O116 Zn107 1.977 . S
O116 C109 1.267 . S
C117 O118 1.173 . S
C117 O124 1.185 . S
O118 C117 1.173 . S
O119 Zn120 1.899 1_545 S
O119 C127 1.284 . S
Zn120 O119 1.899 1_565 S
Zn120 O121 2.032 . S
Zn120 O124 2.086 . S
Zn120 O129 1.977 . S
O121 Zn120 2.032 . S
O121 C125 1.278 . S
C122 O123 1.203 . S
C122 O129 1.267 . S
O123 C122 1.203 . S
O124 C117 1.185 . S
O124 Zn120 2.086 . S
C125 O121 1.278 . S
C125 O126 1.211 . S
O126 C125 1.211 . S
C127 O119 1.284 . S
C127 O128 1.273 . S
O128 C127 1.273 . S
O129 Zn120 1.977 . S
O129 C122 1.267 . S
C130 O131 1.160 . S
C130 O137 1.185 . S
O131 C130 1.160 . S
O132 Zn133 1.899 . S
O132 C140 1.284 . S
Zn133 O132 1.899 . S
Zn133 O134 2.032 . S
Zn133 O137 2.086 1_455 S
Zn133 O142 1.977 . S
O134 Zn133 2.032 . S
O134 C138 1.278 . S
C135 O136 1.203 . S
C135 O142 1.267 . S
O136 C135 1.203 . S
O137 C130 1.185 . S
O137 Zn133 2.086 1_655 S
C138 O134 1.278 . S
C138 O139 1.211 . S
O139 C138 1.211 . S
C140 O132 1.284 . S
C140 O141 1.273 . S
O141 C140 1.273 . S
O142 Zn133 1.977 . S
O142 C135 1.267 . S
C143 O144 1.160 . S
C143 O150 1.185 . S
O144 C143 1.160 . S
O145 Zn146 1.899 . S
O145 C153 1.284 . S
Zn146 O145 1.899 . S
Zn146 O147 2.032 . S
Zn146 O150 2.086 . S
Zn146 O155 1.977 . S
O147 Zn146 2.032 . S
O147 C151 1.278 . S
C148 O149 1.203 . S
C148 O155 1.267 . S
O149 C148 1.203 . S
O150 C143 1.185 . S
O150 Zn146 2.086 . S
C151 O147 1.278 . S
C151 O152 1.211 . S
O152 C151 1.211 . S
C153 O145 1.284 . S
C153 O154 1.273 . S
O154 C153 1.273 . S
O155 Zn146 1.977 . S
O155 C148 1.267 . S
C156 O157 1.160 . S
C156 O163 1.185 . S
O157 C156 1.160 . S
O158 Zn159 1.899 . S
O158 C166 1.284 1_545 S
Zn159 O158 1.899 . S
Zn159 O160 2.032 . S
Zn159 O163 2.086 . S
Zn159 O168 1.977 . S
O160 Zn159 2.032 . S
O160 C164 1.278 . S
C161 O162 1.203 . S
C161 O168 1.267 . S
O162 C161 1.203 . S
O163 C156 1.185 . S
O163 Zn159 2.086 . S
C164 O160 1.278 . S
C164 O165 1.211 . S
O165 C164 1.211 . S
C166 O158 1.284 1_565 S
C166 O167 1.273 1_565 S
O167 C166 1.273 1_545 S
O168 Zn159 1.977 . S
O168 C161 1.267 . S
C169 O170 1.160 . S
C169 O176 1.185 . S
O170 C169 1.160 . S
O171 Zn172 1.899 . S
O171 C179 1.284 . S
Zn172 O171 1.899 . S
Zn172 O173 2.032 . S
Zn172 O176 2.086 1_655 S
Zn172 O181 1.977 . S
O173 Zn172 2.032 . S
O173 C177 1.278 . S
C174 O175 1.203 . S
C174 O181 1.267 . S
O175 C174 1.203 . S
O176 C169 1.185 . S
O176 Zn172 2.086 1_455 S
C177 O173 1.278 . S
C177 O178 1.211 . S
O178 C177 1.211 . S
C179 O171 1.284 . S
C179 O180 1.273 . S
O180 C179 1.273 . S
O181 Zn172 1.977 . S
O181 C174 1.267 . S
C182 O183 1.160 . S
C182 O189 1.185 . S
O183 C182 1.160 . S
O184 Zn185 1.899 . S
O184 C192 1.284 . S
Zn185 O184 1.899 . S
Zn185 O186 2.032 . S
Zn185 O189 2.086 . S
Zn185 O194 1.977 . S
O186 Zn185 2.032 . S
O186 C190 1.278 . S
C187 O188 1.203 . S
C187 O194 1.267 . S
O188 C187 1.203 . S
O189 C182 1.185 . S
O189 Zn185 2.086 . S
C190 O186 1.278 . S
C190 O191 1.211 . S
O191 C190 1.211 . S
C192 O184 1.284 . S
C192 O193 1.273 . S
O193 C192 1.273 . S
O194 Zn185 1.977 . S
O194 C187 1.267 . S
C195 O196 1.160 . S
C195 O202 1.185 . S
O196 C195 1.160 . S
O197 Zn198 1.899 . S
O197 C205 1.284 . S
Zn198 O197 1.899 . S
Zn198 O199 2.032 . S
Zn198 O202 2.086 . S
Zn198 O207 1.977 . S
O199 Zn198 2.032 . S
O199 C203 1.278 . S
C200 O201 1.203 . S
C200 O207 1.267 . S
O201 C200 1.203 . S
O202 C195 1.185 . S
O202 Zn198 2.086 . S
C203 O199 1.278 . S
C203 O204 1.211 . S
O204 C203 1.211 . S
C205 O197 1.284 . S
C205 O206 1.273 . S
O206 C205 1.273 . S
O207 Zn198 1.977 . S
O207 C200 1.267 . S
C208 O209 1.160 . S
C208 O215 1.185 . S
O209 C208 1.160 . S
O210 Zn211 1.899 . S
O210 C218 1.284 1_545 S
Zn211 O210 1.899 . S
Zn211 O212 2.032 . S
Zn211 O215 2.086 . S
Zn211 O220 1.977 . S
O212 Zn211 2.032 . S
O212 C216 1.278 . S
C213 O214 1.203 . S
C213 O220 1.267 . S
O214 C213 1.203 . S
O215 C208 1.185 . S
O215 Zn211 2.086 . S
C216 O212 1.278 . S
C216 O217 1.211 . S
O217 C216 1.211 . S
C218 O210 1.284 1_565 S
C218 O219 1.273 1_565 S
O219 C218 1.273 1_545 S
O220 Zn211 1.977 . S
O220 C213 1.267 . S
C221 O222 1.160 . S
C221 O228 1.185 . S
O222 C221 1.160 . S
O223 Zn224 1.899 . S
O223 C231 1.295 1_655 S
Zn224 O223 1.899 . S
Zn224 O225 2.032 . S
Zn224 O228 2.086 . S
Zn224 O233 1.977 . S
O225 Zn224 2.032 . S
O225 C229 1.278 . S
C226 O227 1.203 . S
C226 O233 1.267 . S
O227 C226 1.203 . S
O228 C221 1.185 . S
O228 Zn224 2.086 . S
C229 O225 1.278 . S
C229 O230 1.211 . S
O230 C229 1.211 . S
C231 O223 1.295 1_455 S
C231 O232 1.204 1_455 S
O232 C231 1.204 1_655 S
O233 Zn224 1.977 . S
O233 C226 1.267 . S
H234 C253 0.949 . S
H235 C254 0.950 . S
H236 C256 0.950 . S
H237 C257 0.950 . S
H238 C259 0.950 . S
H239 C262 0.950 . S
H240 C263 0.950 . S
H241 C265 0.951 . S
H242 C266 0.949 . S
H243 C268 0.949 . S
H244 C269 0.950 . S
H245 C271 0.950 . S
H246 C272 0.950 . S
H247 C274 0.950 . S
H248 C277 0.950 . S
H249 C278 0.950 . S
H250 C280 0.951 . S
H251 C281 0.949 . S
C252 C253 1.376 . S
C252 C257 1.386 . S
C252 C258 1.483 . S
C253 H234 0.949 . S
C253 C252 1.376 . S
C253 C254 1.397 . S
C254 H235 0.950 . S
C254 C253 1.397 . S
C254 C255 1.391 . S
C255 C254 1.391 . S
C255 C256 1.405 . S
C256 H236 0.950 . S
C256 C255 1.405 . S
C256 C257 1.367 . S
C257 H237 0.950 . S
C257 C252 1.386 . S
C257 C256 1.367 . S
C258 C252 1.483 . S
C258 C259 1.382 . S
C258 C260 1.403 . S
C259 H238 0.950 . S
C259 C258 1.382 . S
C259 C275 1.411 . S
C260 C258 1.403 . S
C260 C261 1.489 . S
C260 C274 1.411 . S
C261 C260 1.489 . S
C261 C262 1.383 . S
C261 C266 1.382 . S
C262 H239 0.950 . S
C262 C261 1.383 . S
C262 C263 1.395 . S
C263 H240 0.950 . S
C263 C262 1.395 . S
C263 C264 1.288 . S
C264 C263 1.288 . S
C264 C265 1.392 . S
C265 H241 0.951 . S
C265 C264 1.392 . S
C265 C266 1.392 . S
C266 H242 0.949 . S
C266 C261 1.382 . S
C266 C265 1.392 . S
C267 C268 1.376 . S
C267 C272 1.386 . S
C267 C273 1.483 . S
C268 H243 0.949 . S
C268 C267 1.376 . S
C268 C269 1.397 . S
C269 H244 0.950 . S
C269 C268 1.397 . S
C269 C270 1.391 . S
C270 C269 1.391 . S
C270 C271 1.405 . S
C271 H245 0.950 . S
C271 C270 1.405 . S
C271 C272 1.367 . S
C272 H246 0.950 . S
C272 C267 1.386 . S
C272 C271 1.367 . S
C273 C267 1.483 . S
C273 C274 1.382 . S
C273 C275 1.403 . S
C274 H247 0.950 . S
C274 C260 1.411 . S
C274 C273 1.382 . S
C275 C259 1.411 . S
C275 C273 1.403 . S
C275 C276 1.489 . S
C276 C275 1.489 . S
C276 C277 1.383 . S
C276 C281 1.382 . S
C277 H248 0.950 . S
C277 C276 1.383 . S
C277 C278 1.395 . S
C278 H249 0.950 . S
C278 C277 1.395 . S
C278 C279 1.288 . S
C279 C278 1.288 . S
C279 C280 1.392 . S
C280 H250 0.951 . S
C280 C279 1.392 . S
C280 C281 1.392 . S
C281 H251 0.949 . S
C281 C276 1.382 . S
C281 C280 1.392 . S
H282 C301 0.949 . S
H283 C302 0.950 . S
H284 C304 0.950 . S
H285 C305 0.950 . S
H286 C307 0.950 . S
H287 C310 0.950 . S
H288 C311 0.950 . S
H289 C313 0.951 . S
H290 C314 0.949 . S
H291 C316 0.949 . S
H292 C317 0.950 . S
H293 C319 0.950 . S
H294 C320 0.950 . S
H295 C322 0.950 . S
H296 C325 0.950 . S
H297 C326 0.950 . S
H298 C328 0.951 . S
H299 C329 0.949 . S
C300 C301 1.376 . S
C300 C305 1.386 . S
C300 C306 1.483 . S
C301 H282 0.949 . S
C301 C300 1.376 . S
C301 C302 1.397 . S
C302 H283 0.950 . S
C302 C301 1.397 . S
C302 C303 1.391 . S
C303 C302 1.391 . S
C303 C304 1.405 . S
C304 H284 0.950 . S
C304 C303 1.405 . S
C304 C305 1.367 . S
C305 H285 0.950 . S
C305 C300 1.386 . S
C305 C304 1.367 . S
C306 C300 1.483 . S
C306 C307 1.382 . S
C306 C308 1.403 . S
C307 H286 0.950 . S
C307 C306 1.382 . S
C307 C323 1.411 . S
C308 C306 1.403 . S
C308 C309 1.489 . S
C308 C322 1.411 . S
C309 C308 1.489 . S
C309 C310 1.383 . S
C309 C314 1.382 . S
C310 H287 0.950 . S
C310 C309 1.383 . S
C310 C311 1.395 . S
C311 H288 0.950 . S
C311 C310 1.395 . S
C311 C312 1.288 . S
C312 C311 1.288 . S
C312 C313 1.392 . S
C313 H289 0.951 . S
C313 C312 1.392 . S
C313 C314 1.392 . S
C314 H290 0.949 . S
C314 C309 1.382 . S
C314 C313 1.392 . S
C315 C316 1.376 . S
C315 C320 1.386 . S
C315 C321 1.483 . S
C316 H291 0.949 . S
C316 C315 1.376 . S
C316 C317 1.397 . S
C317 H292 0.950 . S
C317 C316 1.397 . S
C317 C318 1.391 . S
C318 C317 1.391 . S
C318 C319 1.405 . S
C319 H293 0.950 . S
C319 C318 1.405 . S
C319 C320 1.367 . S
C320 H294 0.950 . S
C320 C315 1.386 . S
C320 C319 1.367 . S
C321 C315 1.483 . S
C321 C322 1.382 . S
C321 C323 1.403 . S
C322 H295 0.950 . S
C322 C308 1.411 . S
C322 C321 1.382 . S
C323 C307 1.411 . S
C323 C321 1.403 . S
C323 C324 1.489 . S
C324 C323 1.489 . S
C324 C325 1.383 . S
C324 C329 1.382 . S
C325 H296 0.950 . S
C325 C324 1.383 . S
C325 C326 1.395 . S
C326 H297 0.950 . S
C326 C325 1.395 . S
C326 C327 1.288 . S
C327 C326 1.288 . S
C327 C328 1.392 . S
C328 H298 0.951 . S
C328 C327 1.392 . S
C328 C329 1.392 . S
C329 H299 0.949 . S
C329 C324 1.382 . S
C329 C328 1.392 . S
H330 C349 0.949 . S
H331 C350 0.950 . S
H332 C352 0.950 . S
H333 C353 0.950 . S
H334 C355 0.950 . S
H335 C358 0.950 . S
H336 C359 0.950 . S
H337 C361 0.951 . S
H338 C362 0.949 . S
H339 C364 0.949 . S
H340 C365 0.950 . S
H341 C367 0.950 . S
H342 C368 0.950 . S
H343 C370 0.950 . S
H344 C373 0.950 . S
H345 C374 0.950 . S
H346 C376 0.951 . S
H347 C377 0.949 . S
C348 C349 1.376 . S
C348 C353 1.386 . S
C348 C354 1.483 . S
C349 H330 0.949 . S
C349 C348 1.376 . S
C349 C350 1.397 . S
C350 H331 0.950 . S
C350 C349 1.397 . S
C350 C351 1.391 . S
C351 C350 1.391 . S
C351 C352 1.405 . S
C352 H332 0.950 . S
C352 C351 1.405 . S
C352 C353 1.367 . S
C353 H333 0.950 . S
C353 C348 1.386 . S
C353 C352 1.367 . S
C354 C348 1.483 . S
C354 C355 1.382 . S
C354 C356 1.403 . S
C355 H334 0.950 . S
C355 C354 1.382 . S
C355 C371 1.411 . S
C356 C354 1.403 . S
C356 C357 1.489 . S
C356 C370 1.411 . S
C357 C356 1.489 . S
C357 C358 1.383 . S
C357 C362 1.382 . S
C358 H335 0.950 . S
C358 C357 1.383 . S
C358 C359 1.395 . S
C359 H336 0.950 . S
C359 C358 1.395 . S
C359 C360 1.288 . S
C360 C359 1.288 . S
C360 C361 1.392 . S
C361 H337 0.951 . S
C361 C360 1.392 . S
C361 C362 1.392 . S
C362 H338 0.949 . S
C362 C357 1.382 . S
C362 C361 1.392 . S
C363 C364 1.376 . S
C363 C368 1.386 . S
C363 C369 1.483 . S
C364 H339 0.949 . S
C364 C363 1.376 . S
C364 C365 1.397 . S
C365 H340 0.950 . S
C365 C364 1.397 . S
C365 C366 1.391 . S
C366 C365 1.391 . S
C366 C367 1.405 . S
C367 H341 0.950 . S
C367 C366 1.405 . S
C367 C368 1.367 . S
C368 H342 0.950 . S
C368 C363 1.386 . S
C368 C367 1.367 . S
C369 C363 1.483 . S
C369 C370 1.382 . S
C369 C371 1.403 . S
C370 H343 0.950 . S
C370 C356 1.411 . S
C370 C369 1.382 . S
C371 C355 1.411 . S
C371 C369 1.403 . S
C371 C372 1.489 . S
C372 C371 1.489 . S
C372 C373 1.383 . S
C372 C377 1.382 . S
C373 H344 0.950 . S
C373 C372 1.383 . S
C373 C374 1.395 . S
C374 H345 0.950 . S
C374 C373 1.395 . S
C374 C375 1.288 . S
C375 C374 1.288 . S
C375 C376 1.392 . S
C376 H346 0.951 . S
C376 C375 1.392 . S
C376 C377 1.392 . S
C377 H347 0.949 . S
C377 C372 1.382 . S
C377 C376 1.392 . S
H378 C397 0.949 . S
H379 C398 0.950 . S
H380 C400 0.950 . S
H381 C401 0.950 . S
H382 C403 0.950 . S
H383 C406 0.950 . S
H384 C407 0.950 . S
H385 C409 0.951 . S
H386 C410 0.949 . S
H387 C412 0.949 . S
H388 C413 0.950 . S
H389 C415 0.950 . S
H390 C416 0.950 . S
H391 C418 0.950 . S
H392 C421 0.950 . S
H393 C422 0.950 . S
H394 C424 0.951 . S
H395 C425 0.949 . S
C396 C397 1.376 . S
C396 C401 1.386 . S
C396 C402 1.483 . S
C397 H378 0.949 . S
C397 C396 1.376 . S
C397 C398 1.397 . S
C398 H379 0.950 . S
C398 C397 1.397 . S
C398 C399 1.391 . S
C399 C398 1.391 . S
C399 C400 1.405 . S
C400 H380 0.950 . S
C400 C399 1.405 . S
C400 C401 1.367 . S
C401 H381 0.950 . S
C401 C396 1.386 . S
C401 C400 1.367 . S
C402 C396 1.483 . S
C402 C403 1.382 . S
C402 C404 1.403 . S
C403 H382 0.950 . S
C403 C402 1.382 . S
C403 C419 1.411 . S
C404 C402 1.403 . S
C404 C405 1.489 . S
C404 C418 1.411 . S
C405 C404 1.489 . S
C405 C406 1.383 . S
C405 C410 1.382 . S
C406 H383 0.950 . S
C406 C405 1.383 . S
C406 C407 1.395 . S
C407 H384 0.950 . S
C407 C406 1.395 . S
C407 C408 1.288 . S
C408 C407 1.288 . S
C408 C409 1.392 . S
C409 H385 0.951 . S
C409 C408 1.392 . S
C409 C410 1.392 . S
C410 H386 0.949 . S
C410 C405 1.382 . S
C410 C409 1.392 . S
C411 C412 1.376 . S
C411 C416 1.386 . S
C411 C417 1.483 . S
C412 H387 0.949 . S
C412 C411 1.376 . S
C412 C413 1.397 . S
C413 H388 0.950 . S
C413 C412 1.397 . S
C413 C414 1.391 . S
C414 C413 1.391 . S
C414 C415 1.405 . S
C415 H389 0.950 . S
C415 C414 1.405 . S
C415 C416 1.367 . S
C416 H390 0.950 . S
C416 C411 1.386 . S
C416 C415 1.367 . S
C417 C411 1.483 . S
C417 C418 1.382 . S
C417 C419 1.403 . S
C418 H391 0.950 . S
C418 C404 1.411 . S
C418 C417 1.382 . S
C419 C403 1.411 . S
C419 C417 1.403 . S
C419 C420 1.489 . S
C420 C419 1.489 . S
C420 C421 1.383 . S
C420 C425 1.382 . S
C421 H392 0.950 . S
C421 C420 1.383 . S
C421 C422 1.395 . S
C422 H393 0.950 . S
C422 C421 1.395 . S
C422 C423 1.288 . S
C423 C422 1.288 . S
C423 C424 1.392 . S
C424 H394 0.951 . S
C424 C423 1.392 . S
C424 C425 1.392 . S
C425 H395 0.949 . S
C425 C420 1.382 . S
C425 C424 1.392 . S
H426 C445 0.949 . S
H427 C446 0.950 . S
H428 C448 0.950 . S
H429 C449 0.950 . S
H430 C451 0.950 . S
H431 C454 0.950 . S
H432 C455 0.950 . S
H433 C457 0.951 . S
H434 C458 0.949 . S
H435 C460 0.949 . S
H436 C461 0.950 . S
H437 C463 0.950 . S
H438 C464 0.950 . S
H439 C466 0.950 . S
H440 C469 0.950 . S
H441 C470 0.950 . S
H442 C472 0.951 . S
H443 C473 0.949 . S
C444 C445 1.376 . S
C444 C449 1.386 . S
C444 C450 1.483 . S
C445 H426 0.949 . S
C445 C444 1.376 . S
C445 C446 1.397 . S
C446 H427 0.950 . S
C446 C445 1.397 . S
C446 C447 1.391 . S
C447 C446 1.391 . S
C447 C448 1.405 . S
C448 H428 0.950 . S
C448 C447 1.405 . S
C448 C449 1.367 . S
C449 H429 0.950 . S
C449 C444 1.386 . S
C449 C448 1.367 . S
C450 C444 1.483 . S
C450 C451 1.382 . S
C450 C452 1.403 . S
C451 H430 0.950 . S
C451 C450 1.382 . S
C451 C467 1.411 . S
C452 C450 1.403 . S
C452 C453 1.489 . S
C452 C466 1.411 . S
C453 C452 1.489 . S
C453 C454 1.383 . S
C453 C458 1.382 . S
C454 H431 0.950 . S
C454 C453 1.383 . S
C454 C455 1.395 . S
C455 H432 0.950 . S
C455 C454 1.395 . S
C455 C456 1.288 . S
C456 C455 1.288 . S
C456 C457 1.392 . S
C457 H433 0.951 . S
C457 C456 1.392 . S
C457 C458 1.392 . S
C458 H434 0.949 . S
C458 C453 1.382 . S
C458 C457 1.392 . S
C459 C460 1.376 . S
C459 C464 1.386 . S
C459 C465 1.483 . S
C460 H435 0.949 . S
C460 C459 1.376 . S
C460 C461 1.397 . S
C461 H436 0.950 . S
C461 C460 1.397 . S
C461 C462 1.391 . S
C462 C461 1.391 . S
C462 C463 1.405 . S
C463 H437 0.950 . S
C463 C462 1.405 . S
C463 C464 1.367 . S
C464 H438 0.950 . S
C464 C459 1.386 . S
C464 C463 1.367 . S
C465 C459 1.483 . S
C465 C466 1.382 . S
C465 C467 1.403 . S
C466 H439 0.950 . S
C466 C452 1.411 . S
C466 C465 1.382 . S
C467 C451 1.411 . S
C467 C465 1.403 . S
C467 C468 1.489 . S
C468 C467 1.489 . S
C468 C469 1.383 . S
C468 C473 1.382 . S
C469 H440 0.950 . S
C469 C468 1.383 . S
C469 C470 1.395 . S
C470 H441 0.950 . S
C470 C469 1.395 . S
C470 C471 1.288 . S
C471 C470 1.288 . S
C471 C472 1.392 . S
C472 H442 0.951 . S
C472 C471 1.392 . S
C472 C473 1.392 . S
C473 H443 0.949 . S
C473 C468 1.382 . S
C473 C472 1.392 . S
H474 C493 0.949 . S
H475 C494 0.950 . S
H476 C496 0.950 . S
H477 C497 0.950 . S
H478 C499 0.950 . S
H479 C502 0.950 . S
H480 C503 0.950 . S
H481 C505 0.951 . S
H482 C506 0.949 . S
H483 C508 0.949 . S
H484 C509 0.950 . S
H485 C511 0.950 . S
H486 C512 0.950 . S
H487 C514 0.950 . S
H488 C517 0.950 . S
H489 C518 0.950 . S
H490 C520 0.951 . S
H491 C521 0.949 . S
C492 C493 1.376 . S
C492 C497 1.386 . S
C492 C498 1.483 . S
C493 H474 0.949 . S
C493 C492 1.376 . S
C493 C494 1.397 . S
C494 H475 0.950 . S
C494 C493 1.397 . S
C494 C495 1.391 . S
C495 C494 1.391 . S
C495 C496 1.405 . S
C496 H476 0.950 . S
C496 C495 1.405 . S
C496 C497 1.367 . S
C497 H477 0.950 . S
C497 C492 1.386 . S
C497 C496 1.367 . S
C498 C492 1.483 . S
C498 C499 1.382 . S
C498 C500 1.403 . S
C499 H478 0.950 . S
C499 C498 1.382 . S
C499 C515 1.411 . S
C500 C498 1.403 . S
C500 C501 1.489 . S
C500 C514 1.411 . S
C501 C500 1.489 . S
C501 C502 1.383 . S
C501 C506 1.382 . S
C502 H479 0.950 . S
C502 C501 1.383 . S
C502 C503 1.395 . S
C503 H480 0.950 . S
C503 C502 1.395 . S
C503 C504 1.288 . S
C504 C503 1.288 . S
C504 C505 1.392 . S
C505 H481 0.951 . S
C505 C504 1.392 . S
C505 C506 1.392 . S
C506 H482 0.949 . S
C506 C501 1.382 . S
C506 C505 1.392 . S
C507 C508 1.376 . S
C507 C512 1.386 . S
C507 C513 1.483 . S
C508 H483 0.949 . S
C508 C507 1.376 . S
C508 C509 1.397 . S
C509 H484 0.950 . S
C509 C508 1.397 . S
C509 C510 1.391 . S
C510 C509 1.391 . S
C510 C511 1.405 . S
C511 H485 0.950 . S
C511 C510 1.405 . S
C511 C512 1.367 . S
C512 H486 0.950 . S
C512 C507 1.386 . S
C512 C511 1.367 . S
C513 C507 1.483 . S
C513 C514 1.382 . S
C513 C515 1.403 . S
C514 H487 0.950 . S
C514 C500 1.411 . S
C514 C513 1.382 . S
C515 C499 1.411 . S
C515 C513 1.403 . S
C515 C516 1.489 . S
C516 C515 1.489 . S
C516 C517 1.383 . S
C516 C521 1.382 . S
C517 H488 0.950 . S
C517 C516 1.383 . S
C517 C518 1.395 . S
C518 H489 0.950 . S
C518 C517 1.395 . S
C518 C519 1.288 . S
C519 C518 1.288 . S
C519 C520 1.392 . S
C520 H490 0.951 . S
C520 C519 1.392 . S
C520 C521 1.392 . S
C521 H491 0.949 . S
C521 C516 1.382 . S
C521 C520 1.392 . S
H522 C541 0.949 . S
H523 C542 0.950 . S
H524 C544 0.950 . S
H525 C545 0.950 . S
H526 C547 0.950 . S
H527 C550 0.950 . S
H528 C551 0.950 . S
H529 C553 0.951 . S
H530 C554 0.949 . S
H531 C556 0.949 . S
H532 C557 0.950 . S
H533 C559 0.950 . S
H534 C560 0.950 . S
H535 C562 0.950 . S
H536 C565 0.950 . S
H537 C566 0.950 . S
H538 C568 0.951 . S
H539 C569 0.949 . S
C540 C541 1.376 . S
C540 C545 1.386 . S
C540 C546 1.483 . S
C541 H522 0.949 . S
C541 C540 1.376 . S
C541 C542 1.397 . S
C542 H523 0.950 . S
C542 C541 1.397 . S
C542 C543 1.391 . S
C543 C542 1.391 . S
C543 C544 1.405 . S
C544 H524 0.950 . S
C544 C543 1.405 . S
C544 C545 1.367 . S
C545 H525 0.950 . S
C545 C540 1.386 . S
C545 C544 1.367 . S
C546 C540 1.483 . S
C546 C547 1.382 . S
C546 C548 1.403 . S
C547 H526 0.950 . S
C547 C546 1.382 . S
C547 C563 1.411 . S
C548 C546 1.403 . S
C548 C549 1.489 . S
C548 C562 1.411 . S
C549 C548 1.489 . S
C549 C550 1.383 . S
C549 C554 1.382 . S
C550 H527 0.950 . S
C550 C549 1.383 . S
C550 C551 1.395 . S
C551 H528 0.950 . S
C551 C550 1.395 . S
C551 C552 1.288 . S
C552 C551 1.288 . S
C552 C553 1.392 . S
C553 H529 0.951 . S
C553 C552 1.392 . S
C553 C554 1.392 . S
C554 H530 0.949 . S
C554 C549 1.382 . S
C554 C553 1.392 . S
C555 C556 1.376 . S
C555 C560 1.386 . S
C555 C561 1.483 . S
C556 H531 0.949 . S
C556 C555 1.376 . S
C556 C557 1.397 . S
C557 H532 0.950 . S
C557 C556 1.397 . S
C557 C558 1.391 . S
C558 C557 1.391 . S
C558 C559 1.405 . S
C559 H533 0.950 . S
C559 C558 1.405 . S
C559 C560 1.367 . S
C560 H534 0.950 . S
C560 C555 1.386 . S
C560 C559 1.367 . S
C561 C555 1.483 . S
C561 C562 1.382 . S
C561 C563 1.403 . S
C562 H535 0.950 . S
C562 C548 1.411 . S
C562 C561 1.382 . S
C563 C547 1.411 . S
C563 C561 1.403 . S
C563 C564 1.489 . S
C564 C563 1.489 . S
C564 C565 1.383 . S
C564 C569 1.382 . S
C565 H536 0.950 . S
C565 C564 1.383 . S
C565 C566 1.395 . S
C566 H537 0.950 . S
C566 C565 1.395 . S
C566 C567 1.288 . S
C567 C566 1.288 . S
C567 C568 1.392 . S
C568 H538 0.951 . S
C568 C567 1.392 . S
C568 C569 1.392 . S
C569 H539 0.949 . S
C569 C564 1.382 . S
C569 C568 1.392 . S
H570 C589 0.949 . S
H571 C590 0.950 . S
H572 C592 0.950 . S
H573 C593 0.950 . S
H574 C595 0.950 . S
H575 C598 0.950 . S
H576 C599 0.950 . S
H577 C601 0.951 . S
H578 C602 0.949 . S
H579 C604 0.949 . S
H580 C605 0.950 . S
H581 C607 0.950 . S
H582 C608 0.950 . S
H583 C610 0.950 . S
H584 C613 0.950 . S
H585 C614 0.950 . S
H586 C616 0.951 . S
H587 C617 0.949 . S
C588 C589 1.376 . S
C588 C593 1.386 . S
C588 C594 1.483 . S
C589 H570 0.949 . S
C589 C588 1.376 . S
C589 C590 1.397 . S
C590 H571 0.950 . S
C590 C589 1.397 . S
C590 C591 1.391 . S
C591 C590 1.391 . S
C591 C592 1.405 . S
C592 H572 0.950 . S
C592 C591 1.405 . S
C592 C593 1.367 . S
C593 H573 0.950 . S
C593 C588 1.386 . S
C593 C592 1.367 . S
C594 C588 1.483 . S
C594 C595 1.382 . S
C594 C596 1.403 . S
C595 H574 0.950 . S
C595 C594 1.382 . S
C595 C611 1.411 . S
C596 C594 1.403 . S
C596 C597 1.489 . S
C596 C610 1.411 . S
C597 C596 1.489 . S
C597 C598 1.383 . S
C597 C602 1.382 . S
C598 H575 0.950 . S
C598 C597 1.383 . S
C598 C599 1.395 . S
C599 H576 0.950 . S
C599 C598 1.395 . S
C599 C600 1.288 . S
C600 C599 1.288 . S
C600 C601 1.392 . S
C601 H577 0.951 . S
C601 C600 1.392 . S
C601 C602 1.392 . S
C602 H578 0.949 . S
C602 C597 1.382 . S
C602 C601 1.392 . S
C603 C604 1.376 . S
C603 C608 1.386 . S
C603 C609 1.483 . S
C604 H579 0.949 . S
C604 C603 1.376 . S
C604 C605 1.397 . S
C605 H580 0.950 . S
C605 C604 1.397 . S
C605 C606 1.391 . S
C606 C605 1.391 . S
C606 C607 1.405 . S
C607 H581 0.950 . S
C607 C606 1.405 . S
C607 C608 1.367 . S
C608 H582 0.950 . S
C608 C603 1.386 . S
C608 C607 1.367 . S
C609 C603 1.483 . S
C609 C610 1.382 . S
C609 C611 1.403 . S
C610 H583 0.950 . S
C610 C596 1.411 . S
C610 C609 1.382 . S
C611 C595 1.411 . S
C611 C609 1.403 . S
C611 C612 1.489 . S
C612 C611 1.489 . S
C612 C613 1.383 . S
C612 C617 1.382 . S
C613 H584 0.950 . S
C613 C612 1.383 . S
C613 C614 1.395 . S
C614 H585 0.950 . S
C614 C613 1.395 . S
C614 C615 1.288 . S
C615 C614 1.288 . S
C615 C616 1.392 . S
C616 H586 0.951 . S
C616 C615 1.392 . S
C616 C617 1.392 . S
C617 H587 0.949 . S
C617 C612 1.382 . S
C617 C616 1.392 . S
H618 C637 0.949 . S
H619 C638 0.950 . S
H620 C640 0.950 . S
H621 C641 0.950 . S
H622 C643 0.950 . S
H623 C646 0.950 . S
H624 C647 0.950 . S
H625 C649 0.951 . S
H626 C650 0.949 . S
H627 C652 0.949 . S
H628 C653 0.950 . S
H629 C655 0.950 . S
H630 C656 0.950 . S
H631 C658 0.950 . S
H632 C661 0.950 . S
H633 C662 0.950 . S
H634 C664 0.951 . S
H635 C665 0.949 . S
C636 C637 1.376 . S
C636 C641 1.386 . S
C636 C642 1.483 . S
C637 H618 0.949 . S
C637 C636 1.376 . S
C637 C638 1.397 . S
C638 H619 0.950 . S
C638 C637 1.397 . S
C638 C639 1.391 . S
C639 C638 1.391 . S
C639 C640 1.405 . S
C640 H620 0.950 . S
C640 C639 1.405 . S
C640 C641 1.367 . S
C641 H621 0.950 . S
C641 C636 1.386 . S
C641 C640 1.367 . S
C642 C636 1.483 . S
C642 C643 1.382 . S
C642 C644 1.403 . S
C643 H622 0.950 . S
C643 C642 1.382 . S
C643 C659 1.411 . S
C644 C642 1.403 . S
C644 C645 1.489 . S
C644 C658 1.411 . S
C645 C644 1.489 . S
C645 C646 1.383 . S
C645 C650 1.382 . S
C646 H623 0.950 . S
C646 C645 1.383 . S
C646 C647 1.395 . S
C647 H624 0.950 . S
C647 C646 1.395 . S
C647 C648 1.288 . S
C648 C647 1.288 . S
C648 C649 1.392 . S
C649 H625 0.951 . S
C649 C648 1.392 . S
C649 C650 1.392 . S
C650 H626 0.949 . S
C650 C645 1.382 . S
C650 C649 1.392 . S
C651 C652 1.376 . S
C651 C656 1.386 . S
C651 C657 1.483 . S
C652 H627 0.949 . S
C652 C651 1.376 . S
C652 C653 1.397 . S
C653 H628 0.950 . S
C653 C652 1.397 . S
C653 C654 1.391 . S
C654 C653 1.391 . S
C654 C655 1.405 . S
C655 H629 0.950 . S
C655 C654 1.405 . S
C655 C656 1.367 . S
C656 H630 0.950 . S
C656 C651 1.386 . S
C656 C655 1.367 . S
C657 C651 1.483 . S
C657 C658 1.382 . S
C657 C659 1.403 . S
C658 H631 0.950 . S
C658 C644 1.411 . S
C658 C657 1.382 . S
C659 C643 1.411 . S
C659 C657 1.403 . S
C659 C660 1.489 . S
C660 C659 1.489 . S
C660 C661 1.383 . S
C660 C665 1.382 . S
C661 H632 0.950 . S
C661 C660 1.383 . S
C661 C662 1.395 . S
C662 H633 0.950 . S
C662 C661 1.395 . S
C662 C663 1.288 . S
C663 C662 1.288 . S
C663 C664 1.392 . S
C664 H634 0.951 . S
C664 C663 1.392 . S
C664 C665 1.392 . S
C665 H635 0.949 . S
C665 C660 1.382 . S
C665 C664 1.392 . S
H666 C685 0.949 . S
H667 C686 0.950 . S
H668 C688 0.950 . S
H669 C689 0.950 . S
H670 C691 0.950 . S
H671 C694 0.950 . S
H672 C695 0.950 . S
H673 C697 0.951 . S
H674 C698 0.949 . S
H675 C700 0.949 . S
H676 C701 0.950 . S
H677 C703 0.950 . S
H678 C704 0.950 . S
H679 C706 0.950 . S
H680 C709 0.950 . S
H681 C710 0.950 . S
H682 C712 0.951 . S
H683 C713 0.949 . S
C684 C685 1.376 . S
C684 C689 1.386 1_655 S
C684 C690 1.483 . S
C685 H666 0.949 . S
C685 C684 1.376 . S
C685 C686 1.397 . S
C686 H667 0.950 . S
C686 C685 1.397 . S
C686 C687 1.391 . S
C687 C686 1.391 . S
C687 C688 1.405 1_655 S
C688 H668 0.950 . S
C688 C687 1.405 1_455 S
C688 C689 1.367 . S
C689 H669 0.950 . S
C689 C684 1.386 1_455 S
C689 C688 1.367 . S
C690 C684 1.483 . S
C690 C691 1.382 . S
C690 C692 1.403 1_655 S
C691 H670 0.950 . S
C691 C690 1.382 . S
C691 C707 1.411 . S
C692 C690 1.403 1_455 S
C692 C693 1.489 . S
C692 C706 1.411 . S
C693 C692 1.489 . S
C693 C694 1.383 1_455 S
C693 C698 1.382 . S
C694 H671 0.950 . S
C694 C693 1.383 1_655 S
C694 C695 1.395 . S
C695 H672 0.950 . S
C695 C694 1.395 . S
C695 C696 1.288 1_655 S
C696 C695 1.288 1_455 S
C696 C697 1.392 . S
C697 H673 0.951 . S
C697 C696 1.392 . S
C697 C698 1.392 . S
C698 H674 0.949 . S
C698 C693 1.382 . S
C698 C697 1.392 . S
C699 C700 1.376 . S
C699 C704 1.386 1_455 S
C699 C705 1.483 . S
C700 H675 0.949 . S
C700 C699 1.376 . S
C700 C701 1.397 . S
C701 H676 0.950 . S
C701 C700 1.397 . S
C701 C702 1.391 . S
C702 C701 1.391 . S
C702 C703 1.405 1_455 S
C703 H677 0.950 . S
C703 C702 1.405 1_655 S
C703 C704 1.367 . S
C704 H678 0.950 . S
C704 C699 1.386 1_655 S
C704 C703 1.367 . S
C705 C699 1.483 . S
C705 C706 1.382 . S
C705 C707 1.403 1_455 S
C706 H679 0.950 . S
C706 C692 1.411 . S
C706 C705 1.382 . S
C707 C691 1.411 . S
C707 C705 1.403 1_655 S
C707 C708 1.489 . S
C708 C707 1.489 . S
C708 C709 1.383 1_655 S
C708 C713 1.382 . S
C709 H680 0.950 . S
C709 C708 1.383 1_455 S
C709 C710 1.395 . S
C710 H681 0.950 . S
C710 C709 1.395 . S
C710 C711 1.288 1_455 S
C711 C710 1.288 1_655 S
C711 C712 1.392 . S
C712 H682 0.951 . S
C712 C711 1.392 . S
C712 C713 1.392 . S
C713 H683 0.949 . S
C713 C708 1.382 . S
C713 C712 1.392 . S
H714 C733 0.949 . S
H715 C734 0.950 . S
H716 C736 0.950 . S
H717 C737 0.950 . S
H718 C739 0.950 . S
H719 C742 0.950 . S
H720 C743 0.950 . S
H721 C745 0.951 . S
H722 C746 0.949 . S
H723 C748 0.949 . S
H724 C749 0.950 . S
H725 C751 0.950 . S
H726 C752 0.950 . S
H727 C754 0.950 . S
H728 C757 0.950 . S
H729 C758 0.950 . S
H730 C760 0.951 . S
H731 C761 0.949 . S
C732 C733 1.376 . S
C732 C737 1.386 . S
C732 C738 1.483 . S
C733 H714 0.949 . S
C733 C732 1.376 . S
C733 C734 1.397 . S
C734 H715 0.950 . S
C734 C733 1.397 . S
C734 C735 1.391 . S
C735 C734 1.391 . S
C735 C736 1.405 . S
C736 H716 0.950 . S
C736 C735 1.405 . S
C736 C737 1.367 . S
C737 H717 0.950 . S
C737 C732 1.386 . S
C737 C736 1.367 . S
C738 C732 1.483 . S
C738 C739 1.382 . S
C738 C740 1.403 . S
C739 H718 0.950 . S
C739 C738 1.382 . S
C739 C755 1.411 . S
C740 C738 1.403 . S
C740 C741 1.489 . S
C740 C754 1.411 . S
C741 C740 1.489 . S
C741 C742 1.383 . S
C741 C746 1.382 . S
C742 H719 0.950 . S
C742 C741 1.383 . S
C742 C743 1.395 . S
C743 H720 0.950 . S
C743 C742 1.395 . S
C743 C744 1.288 . S
C744 C743 1.288 . S
C744 C745 1.392 . S
C745 H721 0.951 . S
C745 C744 1.392 . S
C745 C746 1.392 . S
C746 H722 0.949 . S
C746 C741 1.382 . S
C746 C745 1.392 . S
C747 C748 1.376 . S
C747 C752 1.386 . S
C747 C753 1.483 . S
C748 H723 0.949 . S
C748 C747 1.376 . S
C748 C749 1.397 . S
C749 H724 0.950 . S
C749 C748 1.397 . S
C749 C750 1.391 . S
C750 C749 1.391 . S
C750 C751 1.405 . S
C751 H725 0.950 . S
C751 C750 1.405 . S
C751 C752 1.367 . S
C752 H726 0.950 . S
C752 C747 1.386 . S
C752 C751 1.367 . S
C753 C747 1.483 . S
C753 C754 1.382 . S
C753 C755 1.403 . S
C754 H727 0.950 . S
C754 C740 1.411 . S
C754 C753 1.382 . S
C755 C739 1.411 . S
C755 C753 1.403 . S
C755 C756 1.489 . S
C756 C755 1.489 . S
C756 C757 1.383 . S
C756 C761 1.382 . S
C757 H728 0.950 . S
C757 C756 1.383 . S
C757 C758 1.395 . S
C758 H729 0.950 . S
C758 C757 1.395 . S
C758 C759 1.288 . S
C759 C758 1.288 . S
C759 C760 1.392 . S
C760 H730 0.951 . S
C760 C759 1.392 . S
C760 C761 1.392 . S
C761 H731 0.949 . S
C761 C756 1.382 . S
C761 C760 1.392 . S
H762 C781 0.949 . S
H763 C782 0.950 . S
H764 C784 0.950 . S
H765 C785 0.950 . S
H766 C787 0.950 . S
H767 C790 0.950 . S
H768 C791 0.950 . S
H769 C793 0.951 . S
H770 C794 0.949 . S
H771 C796 0.949 . S
H772 C797 0.950 . S
H773 C799 0.950 . S
H774 C800 0.950 . S
H775 C802 0.950 . S
H776 C805 0.950 . S
H777 C806 0.950 . S
H778 C808 0.951 . S
H779 C809 0.949 . S
C780 C781 1.376 . S
C780 C785 1.386 1_545 S
C780 C786 1.483 . S
C781 H762 0.949 . S
C781 C780 1.376 . S
C781 C782 1.397 . S
C782 H763 0.950 . S
C782 C781 1.397 . S
C782 C783 1.391 . S
C783 C782 1.391 . S
C783 C784 1.405 1_545 S
C784 H764 0.950 . S
C784 C783 1.405 1_565 S
C784 C785 1.367 . S
C785 H765 0.950 . S
C785 C780 1.386 1_565 S
C785 C784 1.367 . S
C786 C780 1.483 . S
C786 C787 1.382 . S
C786 C788 1.403 1_545 S
C787 H766 0.950 . S
C787 C786 1.382 . S
C787 C803 1.411 . S
C788 C786 1.403 1_565 S
C788 C789 1.489 . S
C788 C802 1.411 . S
C789 C788 1.489 . S
C789 C790 1.383 1_565 S
C789 C794 1.382 . S
C790 H767 0.950 . S
C790 C789 1.383 1_545 S
C790 C791 1.395 . S
C791 H768 0.950 . S
C791 C790 1.395 . S
C791 C792 1.288 1_545 S
C792 C791 1.288 1_565 S
C792 C793 1.392 . S
C793 H769 0.951 . S
C793 C792 1.392 . S
C793 C794 1.392 . S
C794 H770 0.949 . S
C794 C789 1.382 . S
C794 C793 1.392 . S
C795 C796 1.376 . S
C795 C800 1.386 1_565 S
C795 C801 1.483 . S
C796 H771 0.949 . S
C796 C795 1.376 . S
C796 C797 1.397 . S
C797 H772 0.950 . S
C797 C796 1.397 . S
C797 C798 1.391 . S
C798 C797 1.391 . S
C798 C799 1.405 1_565 S
C799 H773 0.950 . S
C799 C798 1.405 1_545 S
C799 C800 1.367 . S
C800 H774 0.950 . S
C800 C795 1.386 1_545 S
C800 C799 1.367 . S
C801 C795 1.483 . S
C801 C802 1.382 . S
C801 C803 1.403 1_565 S
C802 H775 0.950 . S
C802 C788 1.411 . S
C802 C801 1.382 . S
C803 C787 1.411 . S
C803 C801 1.403 1_545 S
C803 C804 1.489 . S
C804 C803 1.489 . S
C804 C805 1.383 1_545 S
C804 C809 1.382 . S
C805 H776 0.950 . S
C805 C804 1.383 1_565 S
C805 C806 1.395 . S
C806 H777 0.950 . S
C806 C805 1.395 . S
C806 C807 1.288 1_565 S
C807 C806 1.288 1_545 S
C807 C808 1.392 . S
C808 H778 0.951 . S
C808 C807 1.392 . S
C808 C809 1.392 . S
C809 H779 0.949 . S
C809 C804 1.382 . S
C809 C808 1.392 . S
H810 C829 0.949 . S
H811 C830 0.950 . S
H812 C832 0.950 . S
H813 C833 0.950 . S
H814 C835 0.950 . S
H815 C838 0.950 . S
H816 C839 0.950 . S
H817 C841 0.951 . S
H818 C842 0.949 . S
H819 C844 0.949 . S
H820 C845 0.950 . S
H821 C847 0.950 . S
H822 C848 0.950 . S
H823 C850 0.950 . S
H824 C853 0.950 . S
H825 C854 0.950 . S
H826 C856 0.951 . S
H827 C857 0.949 . S
C828 C829 1.404 . S
C828 C833 1.374 1_545 S
C828 C834 1.499 . S
C829 H810 0.949 . S
C829 C828 1.404 . S
C829 C830 1.397 . S
C830 H811 0.950 . S
C830 C829 1.397 . S
C830 C831 1.391 1_545 S
C831 C830 1.391 1_565 S
C831 C832 1.405 . S
C832 H812 0.950 . S
C832 C831 1.405 . S
C832 C833 1.367 . S
C833 H813 0.950 . S
C833 C828 1.374 1_565 S
C833 C832 1.367 . S
C834 C828 1.499 . S
C834 C835 1.349 . S
C834 C836 1.402 1_545 S
C835 H814 0.950 . S
C835 C834 1.349 . S
C835 C851 1.437 . S
C836 C834 1.402 1_565 S
C836 C837 1.475 . S
C836 C850 1.426 . S
C837 C836 1.475 . S
C837 C838 1.384 1_565 S
C837 C842 1.381 . S
C838 H815 0.950 . S
C838 C837 1.384 1_545 S
C838 C839 1.395 . S
C839 H816 0.950 . S
C839 C838 1.395 . S
C839 C840 1.288 . S
C840 C839 1.288 . S
C840 C841 1.392 1_545 S
C841 H817 0.951 . S
C841 C840 1.392 1_565 S
C841 C842 1.392 . S
C842 H818 0.949 . S
C842 C837 1.381 . S
C842 C841 1.392 . S
C843 C844 1.388 . S
C843 C848 1.381 1_565 S
C843 C849 1.499 . S
C844 H819 0.949 . S
C844 C843 1.388 . S
C844 C845 1.397 . S
C845 H820 0.950 . S
C845 C844 1.397 . S
C845 C846 1.391 1_565 S
C846 C845 1.391 1_545 S
C846 C847 1.405 . S
C847 H821 0.950 . S
C847 C846 1.405 . S
C847 C848 1.367 . S
C848 H822 0.950 . S
C848 C843 1.381 1_545 S
C848 C847 1.367 . S
C849 C843 1.499 . S
C849 C850 1.358 . S
C849 C851 1.402 1_565 S
C850 H823 0.950 . S
C850 C836 1.426 . S
C850 C849 1.358 . S
C851 C835 1.437 . S
C851 C849 1.402 1_545 S
C851 C852 1.475 . S
C852 C851 1.475 . S
C852 C853 1.363 1_545 S
C852 C857 1.392 . S
C853 H824 0.950 . S
C853 C852 1.363 1_565 S
C853 C854 1.395 . S
C854 H825 0.950 . S
C854 C853 1.395 . S
C854 C855 1.288 . S
C855 C854 1.288 . S
C855 C856 1.392 1_565 S
C856 H826 0.951 . S
C856 C855 1.392 1_545 S
C856 C857 1.392 . S
C857 H827 0.949 . S
C857 C852 1.392 . S
C857 C856 1.392 . S
H858 C877 0.949 . S
H859 C878 0.950 . S
H860 C880 0.950 . S
H861 C881 0.950 . S
H862 C883 0.950 . S
H863 C886 0.950 . S
H864 C887 0.950 . S
H865 C889 0.951 . S
H866 C890 0.949 . S
H867 C892 0.949 . S
H868 C893 0.950 . S
H869 C895 0.950 . S
H870 C896 0.950 . S
H871 C898 0.950 . S
H872 C901 0.950 . S
H873 C902 0.950 . S
H874 C904 0.951 . S
H875 C905 0.949 . S
C876 C877 1.376 . S
C876 C881 1.386 1_455 S
C876 C882 1.483 . S
C877 H858 0.949 . S
C877 C876 1.376 . S
C877 C878 1.397 . S
C878 H859 0.950 . S
C878 C877 1.397 . S
C878 C879 1.391 . S
C879 C878 1.391 . S
C879 C880 1.405 1_455 S
C880 H860 0.950 . S
C880 C879 1.405 1_655 S
C880 C881 1.367 . S
C881 H861 0.950 . S
C881 C876 1.386 1_655 S
C881 C880 1.367 . S
C882 C876 1.483 . S
C882 C883 1.382 . S
C882 C884 1.403 1_455 S
C883 H862 0.950 . S
C883 C882 1.382 . S
C883 C899 1.411 . S
C884 C882 1.403 1_655 S
C884 C885 1.489 . S
C884 C898 1.411 . S
C885 C884 1.489 . S
C885 C886 1.383 1_655 S
C885 C890 1.382 . S
C886 H863 0.950 . S
C886 C885 1.383 1_455 S
C886 C887 1.395 . S
C887 H864 0.950 . S
C887 C886 1.395 . S
C887 C888 1.288 1_455 S
C888 C887 1.288 1_655 S
C888 C889 1.392 . S
C889 H865 0.951 . S
C889 C888 1.392 . S
C889 C890 1.392 . S
C890 H866 0.949 . S
C890 C885 1.382 . S
C890 C889 1.392 . S
C891 C892 1.376 . S
C891 C896 1.386 1_655 S
C891 C897 1.483 . S
C892 H867 0.949 . S
C892 C891 1.376 . S
C892 C893 1.397 . S
C893 H868 0.950 . S
C893 C892 1.397 . S
C893 C894 1.391 . S
C894 C893 1.391 . S
C894 C895 1.405 1_655 S
C895 H869 0.950 . S
C895 C894 1.405 1_455 S
C895 C896 1.367 . S
C896 H870 0.950 . S
C896 C891 1.386 1_455 S
C896 C895 1.367 . S
C897 C891 1.483 . S
C897 C898 1.382 . S
C897 C899 1.403 1_655 S
C898 H871 0.950 . S
C898 C884 1.411 . S
C898 C897 1.382 . S
C899 C883 1.411 . S
C899 C897 1.403 1_455 S
C899 C900 1.489 . S
C900 C899 1.489 . S
C900 C901 1.383 1_455 S
C900 C905 1.382 . S
C901 H872 0.950 . S
C901 C900 1.383 1_655 S
C901 C902 1.395 . S
C902 H873 0.950 . S
C902 C901 1.395 . S
C902 C903 1.288 1_655 S
C903 C902 1.288 1_455 S
C903 C904 1.392 . S
C904 H874 0.951 . S
C904 C903 1.392 . S
C904 C905 1.392 . S
C905 H875 0.949 . S
C905 C900 1.382 . S
C905 C904 1.392 . S
H906 C925 0.949 . S
H907 C926 0.950 . S
H908 C928 0.950 . S
H909 C929 0.950 . S
H910 C931 0.950 . S
H911 C934 0.950 . S
H912 C935 0.950 . S
H913 C937 0.951 . S
H914 C938 0.949 . S
H915 C940 0.949 . S
H916 C941 0.950 . S
H917 C943 0.950 . S
H918 C944 0.950 . S
H919 C946 0.950 . S
H920 C949 0.950 . S
H921 C950 0.950 . S
H922 C952 0.951 . S
H923 C953 0.949 . S
C924 C925 1.376 . S
C924 C929 1.386 . S
C924 C930 1.483 . S
C925 H906 0.949 . S
C925 C924 1.376 . S
C925 C926 1.397 . S
C926 H907 0.950 . S
C926 C925 1.397 . S
C926 C927 1.391 . S
C927 C926 1.391 . S
C927 C928 1.405 . S
C928 H908 0.950 . S
C928 C927 1.405 . S
C928 C929 1.367 . S
C929 H909 0.950 . S
C929 C924 1.386 . S
C929 C928 1.367 . S
C930 C924 1.483 . S
C930 C931 1.382 . S
C930 C932 1.403 . S
C931 H910 0.950 . S
C931 C930 1.382 . S
C931 C947 1.411 . S
C932 C930 1.403 . S
C932 C933 1.489 . S
C932 C946 1.411 . S
C933 C932 1.489 . S
C933 C934 1.383 . S
C933 C938 1.382 . S
C934 H911 0.950 . S
C934 C933 1.383 . S
C934 C935 1.395 . S
C935 H912 0.950 . S
C935 C934 1.395 . S
C935 C936 1.288 . S
C936 C935 1.288 . S
C936 C937 1.392 . S
C937 H913 0.951 . S
C937 C936 1.392 . S
C937 C938 1.392 . S
C938 H914 0.949 . S
C938 C933 1.382 . S
C938 C937 1.392 . S
C939 C940 1.376 . S
C939 C944 1.386 . S
C939 C945 1.483 . S
C940 H915 0.949 . S
C940 C939 1.376 . S
C940 C941 1.397 . S
C941 H916 0.950 . S
C941 C940 1.397 . S
C941 C942 1.391 . S
C942 C941 1.391 . S
C942 C943 1.405 . S
C943 H917 0.950 . S
C943 C942 1.405 . S
C943 C944 1.367 . S
C944 H918 0.950 . S
C944 C939 1.386 . S
C944 C943 1.367 . S
C945 C939 1.483 . S
C945 C946 1.382 . S
C945 C947 1.403 . S
C946 H919 0.950 . S
C946 C932 1.411 . S
C946 C945 1.382 . S
C947 C931 1.411 . S
C947 C945 1.403 . S
C947 C948 1.489 . S
C948 C947 1.489 . S
C948 C949 1.383 . S
C948 C953 1.382 . S
C949 H920 0.950 . S
C949 C948 1.383 . S
C949 C950 1.395 . S
C950 H921 0.950 . S
C950 C949 1.395 . S
C950 C951 1.288 . S
C951 C950 1.288 . S
C951 C952 1.392 . S
C952 H922 0.951 . S
C952 C951 1.392 . S
C952 C953 1.392 . S
C953 H923 0.949 . S
C953 C948 1.382 . S
C953 C952 1.392 . S
H954 C973 0.949 . S
H955 C974 0.950 . S
H956 C976 0.950 . S
H957 C977 0.950 . S
H958 C979 0.950 . S
H959 C982 0.950 . S
H960 C983 0.950 . S
H961 C985 0.951 . S
H962 C986 0.949 . S
H963 C988 0.949 . S
H964 C989 0.950 . S
H965 C991 0.950 . S
H966 C992 0.950 . S
H967 C994 0.950 . S
H968 C997 0.950 . S
H969 C998 0.950 . S
H970 C1000 0.951 . S
H971 C1001 0.949 . S
C972 C973 1.376 . S
C972 C977 1.386 . S
C972 C978 1.483 . S
C973 H954 0.949 . S
C973 C972 1.376 . S
C973 C974 1.397 . S
C974 H955 0.950 . S
C974 C973 1.397 . S
C974 C975 1.391 . S
C975 C974 1.391 . S
C975 C976 1.405 . S
C976 H956 0.950 . S
C976 C975 1.405 . S
C976 C977 1.367 . S
C977 H957 0.950 . S
C977 C972 1.386 . S
C977 C976 1.367 . S
C978 C972 1.483 . S
C978 C979 1.382 . S
C978 C980 1.403 . S
C979 H958 0.950 . S
C979 C978 1.382 . S
C979 C995 1.411 . S
C980 C978 1.403 . S
C980 C981 1.489 . S
C980 C994 1.411 . S
C981 C980 1.489 . S
C981 C982 1.383 . S
C981 C986 1.382 . S
C982 H959 0.950 . S
C982 C981 1.383 . S
C982 C983 1.395 . S
C983 H960 0.950 . S
C983 C982 1.395 . S
C983 C984 1.288 . S
C984 C983 1.288 . S
C984 C985 1.392 . S
C985 H961 0.951 . S
C985 C984 1.392 . S
C985 C986 1.392 . S
C986 H962 0.949 . S
C986 C981 1.382 . S
C986 C985 1.392 . S
C987 C988 1.376 . S
C987 C992 1.386 . S
C987 C993 1.483 . S
C988 H963 0.949 . S
C988 C987 1.376 . S
C988 C989 1.397 . S
C989 H964 0.950 . S
C989 C988 1.397 . S
C989 C990 1.391 . S
C990 C989 1.391 . S
C990 C991 1.405 . S
C991 H965 0.950 . S
C991 C990 1.405 . S
C991 C992 1.367 . S
C992 H966 0.950 . S
C992 C987 1.386 . S
C992 C991 1.367 . S
C993 C987 1.483 . S
C993 C994 1.382 . S
C993 C995 1.403 . S
C994 H967 0.950 . S
C994 C980 1.411 . S
C994 C993 1.382 . S
C995 C979 1.411 . S
C995 C993 1.403 . S
C995 C996 1.489 . S
C996 C995 1.489 . S
C996 C997 1.383 . S
C996 C1001 1.382 . S
C997 H968 0.950 . S
C997 C996 1.383 . S
C997 C998 1.395 . S
C998 H969 0.950 . S
C998 C997 1.395 . S
C998 C999 1.288 . S
C999 C998 1.288 . S
C999 C1000 1.392 . S
C1000 H970 0.951 . S
C1000 C999 1.392 . S
C1000 C1001 1.392 . S
C1001 H971 0.949 . S
C1001 C996 1.382 . S
C1001 C1000 1.392 . S
H1002 C1021 0.949 . S
H1003 C1022 0.950 . S
H1004 C1024 0.950 . S
H1005 C1025 0.950 . S
H1006 C1027 0.950 . S
H1007 C1030 0.950 . S
H1008 C1031 0.950 . S
H1009 C1033 0.951 . S
H1010 C1034 0.949 . S
H1011 C1036 0.949 . S
H1012 C1037 0.950 . S
H1013 C1039 0.950 . S
H1014 C1040 0.950 . S
H1015 C1042 0.950 . S
H1016 C1045 0.950 . S
H1017 C1046 0.950 . S
H1018 C1048 0.951 . S
H1019 C1049 0.949 . S
C1020 C1021 1.376 . S
C1020 C1025 1.386 . S
C1020 C1026 1.483 . S
C1021 H1002 0.949 . S
C1021 C1020 1.376 . S
C1021 C1022 1.397 . S
C1022 H1003 0.950 . S
C1022 C1021 1.397 . S
C1022 C1023 1.391 . S
C1023 C1022 1.391 . S
C1023 C1024 1.405 . S
C1024 H1004 0.950 . S
C1024 C1023 1.405 . S
C1024 C1025 1.367 . S
C1025 H1005 0.950 . S
C1025 C1020 1.386 . S
C1025 C1024 1.367 . S
C1026 C1020 1.483 . S
C1026 C1027 1.382 . S
C1026 C1028 1.403 . S
C1027 H1006 0.950 . S
C1027 C1026 1.382 . S
C1027 C1043 1.411 . S
C1028 C1026 1.403 . S
C1028 C1029 1.489 . S
C1028 C1042 1.411 . S
C1029 C1028 1.489 . S
C1029 C1030 1.383 . S
C1029 C1034 1.382 . S
C1030 H1007 0.950 . S
C1030 C1029 1.383 . S
C1030 C1031 1.395 . S
C1031 H1008 0.950 . S
C1031 C1030 1.395 . S
C1031 C1032 1.288 . S
C1032 C1031 1.288 . S
C1032 C1033 1.392 . S
C1033 H1009 0.951 . S
C1033 C1032 1.392 . S
C1033 C1034 1.392 . S
C1034 H1010 0.949 . S
C1034 C1029 1.382 . S
C1034 C1033 1.392 . S
C1035 C1036 1.376 . S
C1035 C1040 1.386 . S
C1035 C1041 1.483 . S
C1036 H1011 0.949 . S
C1036 C1035 1.376 . S
C1036 C1037 1.397 . S
C1037 H1012 0.950 . S
C1037 C1036 1.397 . S
C1037 C1038 1.391 . S
C1038 C1037 1.391 . S
C1038 C1039 1.405 . S
C1039 H1013 0.950 . S
C1039 C1038 1.405 . S
C1039 C1040 1.367 . S
C1040 H1014 0.950 . S
C1040 C1035 1.386 . S
C1040 C1039 1.367 . S
C1041 C1035 1.483 . S
C1041 C1042 1.382 . S
C1041 C1043 1.403 . S
C1042 H1015 0.950 . S
C1042 C1028 1.411 . S
C1042 C1041 1.382 . S
C1043 C1027 1.411 . S
C1043 C1041 1.403 . S
C1043 C1044 1.489 . S
C1044 C1043 1.489 . S
C1044 C1045 1.383 . S
C1044 C1049 1.382 . S
C1045 H1016 0.950 . S
C1045 C1044 1.383 . S
C1045 C1046 1.395 . S
C1046 H1017 0.950 . S
C1046 C1045 1.395 . S
C1046 C1047 1.288 . S
C1047 C1046 1.288 . S
C1047 C1048 1.392 . S
C1048 H1018 0.951 . S
C1048 C1047 1.392 . S
C1048 C1049 1.392 . S
C1049 H1019 0.949 . S
C1049 C1044 1.382 . S
C1049 C1048 1.392 . S
H1050 C1069 0.949 . S
H1051 C1070 0.950 . S
H1052 C1072 0.950 . S
H1053 C1073 0.950 . S
H1054 C1075 0.950 . S
H1055 C1078 0.950 . S
H1056 C1079 0.950 . S
H1057 C1081 0.951 . S
H1058 C1082 0.949 . S
H1059 C1084 0.949 . S
H1060 C1085 0.950 . S
H1061 C1087 0.950 . S
H1062 C1088 0.950 . S
H1063 C1090 0.950 . S
H1064 C1093 0.950 . S
H1065 C1094 0.950 . S
H1066 C1096 0.951 . S
H1067 C1097 0.949 . S
C1068 C1069 1.376 . S
C1068 C1073 1.386 . S
C1068 C1074 1.483 . S
C1069 H1050 0.949 . S
C1069 C1068 1.376 . S
C1069 C1070 1.397 . S
C1070 H1051 0.950 . S
C1070 C1069 1.397 . S
C1070 C1071 1.391 . S
C1071 C1070 1.391 . S
C1071 C1072 1.405 . S
C1072 H1052 0.950 . S
C1072 C1071 1.405 . S
C1072 C1073 1.367 . S
C1073 H1053 0.950 . S
C1073 C1068 1.386 . S
C1073 C1072 1.367 . S
C1074 C1068 1.483 . S
C1074 C1075 1.382 . S
C1074 C1076 1.403 . S
C1075 H1054 0.950 . S
C1075 C1074 1.382 . S
C1075 C1091 1.411 . S
C1076 C1074 1.403 . S
C1076 C1077 1.489 . S
C1076 C1090 1.411 . S
C1077 C1076 1.489 . S
C1077 C1078 1.383 . S
C1077 C1082 1.382 . S
C1078 H1055 0.950 . S
C1078 C1077 1.383 . S
C1078 C1079 1.395 . S
C1079 H1056 0.950 . S
C1079 C1078 1.395 . S
C1079 C1080 1.288 . S
C1080 C1079 1.288 . S
C1080 C1081 1.392 . S
C1081 H1057 0.951 . S
C1081 C1080 1.392 . S
C1081 C1082 1.392 . S
C1082 H1058 0.949 . S
C1082 C1077 1.382 . S
C1082 C1081 1.392 . S
C1083 C1084 1.376 . S
C1083 C1088 1.386 . S
C1083 C1089 1.483 . S
C1084 H1059 0.949 . S
C1084 C1083 1.376 . S
C1084 C1085 1.397 . S
C1085 H1060 0.950 . S
C1085 C1084 1.397 . S
C1085 C1086 1.391 . S
C1086 C1085 1.391 . S
C1086 C1087 1.405 . S
C1087 H1061 0.950 . S
C1087 C1086 1.405 . S
C1087 C1088 1.367 . S
C1088 H1062 0.950 . S
C1088 C1083 1.386 . S
C1088 C1087 1.367 . S
C1089 C1083 1.483 . S
C1089 C1090 1.382 . S
C1089 C1091 1.403 . S
C1090 H1063 0.950 . S
C1090 C1076 1.411 . S
C1090 C1089 1.382 . S
C1091 C1075 1.411 . S
C1091 C1089 1.403 . S
C1091 C1092 1.489 . S
C1092 C1091 1.489 . S
C1092 C1093 1.383 . S
C1092 C1097 1.382 . S
C1093 H1064 0.950 . S
C1093 C1092 1.383 . S
C1093 C1094 1.395 . S
C1094 H1065 0.950 . S
C1094 C1093 1.395 . S
C1094 C1095 1.288 . S
C1095 C1094 1.288 . S
C1095 C1096 1.392 . S
C1096 H1066 0.951 . S
C1096 C1095 1.392 . S
C1096 C1097 1.392 . S
C1097 H1067 0.949 . S
C1097 C1092 1.382 . S
C1097 C1096 1.392 . S
C1098 C1099 1.349 1_455 S
C1098 C1100 1.327 . S
C1098 H1123 0.950 . S
C1099 C1098 1.349 1_655 S
C1099 C1115 1.349 . S
C1100 C1098 1.327 . S
C1100 C1119 1.429 1_455 S
C1100 H1124 0.950 . S
C1101 C1118 1.574 . S
C1101 C1120 1.368 . S
C1101 H1125 0.949 . S
H1102 C1106 0.949 . S
C1103 C1104 1.349 . S
C1103 C1105 1.327 . S
C1103 H1126 0.950 . S
C1104 C1103 1.349 . S
C1104 C1116 1.349 1_655 S
C1105 C1103 1.327 . S
C1105 C1121 1.429 . S
C1105 H1127 0.950 . S
C1106 H1102 0.949 . S
C1106 C1114 1.574 . S
C1106 C1122 1.368 1_455 S
H1107 C1115 0.950 . S
H1108 C1113 0.950 . S
H1109 C1114 0.949 . S
H1110 C1116 0.950 . S
H1111 C1117 0.950 . S
H1112 C1118 0.949 . S
C1113 H1108 0.950 . S
C1113 C1115 1.327 . S
C1113 C1119 1.429 . S
C1114 C1106 1.574 . S
C1114 H1109 0.949 . S
C1114 C1120 1.368 1_455 S
C1115 C1099 1.349 . S
C1115 H1107 0.950 . S
C1115 C1113 1.327 . S
C1116 C1104 1.349 1_455 S
C1116 H1110 0.950 . S
C1116 C1117 1.327 . S
C1117 H1111 0.950 . S
C1117 C1116 1.327 . S
C1117 C1121 1.429 1_455 S
C1118 C1101 1.574 . S
C1118 H1112 0.949 . S
C1118 C1122 1.368 . S
C1119 C1100 1.429 1_655 S
C1119 C1113 1.429 . S
C1119 C1120 1.523 . S
C1120 C1101 1.368 . S
C1120 C1114 1.368 1_655 S
C1120 C1119 1.523 . S
C1121 C1105 1.429 . S
C1121 C1117 1.429 1_655 S
C1121 C1122 1.523 . S
C1122 C1106 1.368 1_655 S
C1122 C1118 1.368 . S
C1122 C1121 1.523 . S
H1123 C1098 0.950 . S
H1124 C1100 0.950 . S
H1125 C1101 0.949 . S
H1126 C1103 0.950 . S
H1127 C1105 0.950 . S
C1128 C1129 1.349 . S
C1128 C1130 1.327 . S
C1128 H1153 0.950 . S
C1129 C1128 1.349 . S
C1129 C1145 1.349 . S
C1130 C1128 1.327 . S
C1130 C1149 1.429 . S
C1130 H1154 0.950 . S
C1131 C1148 1.574 . S
C1131 C1150 1.368 . S
C1131 H1155 0.949 . S
H1132 C1136 0.949 . S
C1133 C1134 1.349 . S
C1133 C1135 1.327 . S
C1133 H1156 0.950 . S
C1134 C1133 1.349 . S
C1134 C1146 1.349 . S
C1135 C1133 1.327 . S
C1135 C1151 1.429 . S
C1135 H1157 0.950 . S
C1136 H1132 0.949 . S
C1136 C1144 1.574 . S
C1136 C1152 1.368 . S
H1137 C1145 0.950 . S
H1138 C1143 0.950 . S
H1139 C1144 0.949 . S
H1140 C1146 0.950 . S
H1141 C1147 0.950 . S
H1142 C1148 0.949 . S
C1143 H1138 0.950 . S
C1143 C1145 1.327 . S
C1143 C1149 1.429 . S
C1144 C1136 1.574 . S
C1144 H1139 0.949 . S
C1144 C1150 1.368 . S
C1145 C1129 1.349 . S
C1145 H1137 0.950 . S
C1145 C1143 1.327 . S
C1146 C1134 1.349 . S
C1146 H1140 0.950 . S
C1146 C1147 1.327 . S
C1147 H1141 0.950 . S
C1147 C1146 1.327 . S
C1147 C1151 1.429 . S
C1148 C1131 1.574 . S
C1148 H1142 0.949 . S
C1148 C1152 1.368 . S
C1149 C1130 1.429 . S
C1149 C1143 1.429 . S
C1149 C1150 1.523 . S
C1150 C1131 1.368 . S
C1150 C1144 1.368 . S
C1150 C1149 1.523 . S
C1151 C1135 1.429 . S
C1151 C1147 1.429 . S
C1151 C1152 1.523 . S
C1152 C1136 1.368 . S
C1152 C1148 1.368 . S
C1152 C1151 1.523 . S
H1153 C1128 0.950 . S
H1154 C1130 0.950 . S
H1155 C1131 0.949 . S
H1156 C1133 0.950 . S
H1157 C1135 0.950 . S
C1158 C1159 1.349 . S
C1158 C1160 1.327 . S
C1158 H1183 0.950 1_545 S
C1159 C1158 1.349 . S
C1159 C1175 1.349 . S
C1160 C1158 1.327 . S
C1160 C1179 1.429 . S
C1160 H1184 0.950 1_545 S
C1161 C1178 1.574 . S
C1161 C1180 1.368 . S
C1161 H1185 0.949 . S
H1162 C1166 0.949 . S
C1163 C1164 1.349 . S
C1163 C1165 1.327 . S
C1163 H1186 0.950 . S
C1164 C1163 1.349 . S
C1164 C1176 1.349 1_545 S
C1165 C1163 1.327 . S
C1165 C1181 1.429 . S
C1165 H1187 0.950 . S
C1166 H1162 0.949 . S
C1166 C1174 1.574 . S
C1166 C1182 1.368 1_565 S
H1167 C1175 0.950 . S
H1168 C1173 0.950 . S
H1169 C1174 0.949 . S
H1170 C1176 0.950 . S
H1171 C1177 0.950 . S
H1172 C1178 0.949 . S
C1173 H1168 0.950 . S
C1173 C1175 1.327 . S
C1173 C1179 1.429 . S
C1174 C1166 1.574 . S
C1174 H1169 0.949 . S
C1174 C1180 1.368 1_565 S
C1175 C1159 1.349 . S
C1175 H1167 0.950 . S
C1175 C1173 1.327 . S
C1176 C1164 1.349 1_565 S
C1176 H1170 0.950 . S
C1176 C1177 1.327 . S
C1177 H1171 0.950 . S
C1177 C1176 1.327 . S
C1177 C1181 1.429 1_565 S
C1178 C1161 1.574 . S
C1178 H1172 0.949 . S
C1178 C1182 1.368 . S
C1179 C1160 1.429 . S
C1179 C1173 1.429 . S
C1179 C1180 1.523 . S
C1180 C1161 1.368 . S
C1180 C1174 1.368 1_545 S
C1180 C1179 1.523 . S
C1181 C1165 1.429 . S
C1181 C1177 1.429 1_545 S
C1181 C1182 1.523 . S
C1182 C1166 1.368 1_545 S
C1182 C1178 1.368 . S
C1182 C1181 1.523 . S
H1183 C1158 0.950 1_565 S
H1184 C1160 0.950 1_565 S
H1185 C1161 0.949 . S
H1186 C1163 0.950 . S
H1187 C1165 0.950 . S
C1188 C1189 1.320 1_565 S
C1188 C1190 1.327 . S
C1188 H1213 0.950 . S
C1189 C1188 1.320 1_545 S
C1189 C1205 1.361 . S
C1190 C1188 1.327 . S
C1190 C1209 1.427 . S
C1190 H1214 0.950 . S
C1191 C1208 1.574 . S
C1191 C1210 1.360 1_545 S
C1191 H1215 0.949 . S
H1192 C1196 0.949 . S
C1193 C1194 1.349 1_545 S
C1193 C1195 1.327 . S
C1193 H1216 0.950 . S
C1194 C1193 1.349 1_565 S
C1194 C1206 1.349 . S
C1195 C1193 1.327 . S
C1195 C1211 1.429 1_545 S
C1195 H1217 0.950 . S
C1196 H1192 0.949 . S
C1196 C1204 1.574 . S
C1196 C1212 1.397 . S
H1197 C1205 0.950 . S
H1198 C1203 0.950 . S
H1199 C1204 0.949 . S
H1200 C1206 0.950 . S
H1201 C1207 0.950 . S
H1202 C1208 0.949 . S
C1203 H1198 0.950 . S
C1203 C1205 1.327 . S
C1203 C1209 1.433 1_545 S
C1204 C1196 1.574 . S
C1204 H1199 0.949 . S
C1204 C1210 1.384 . S
C1205 C1189 1.361 . S
C1205 H1197 0.950 . S
C1205 C1203 1.327 . S
C1206 C1194 1.349 . S
C1206 H1200 0.950 . S
C1206 C1207 1.327 . S
C1207 H1201 0.950 . S
C1207 C1206 1.327 . S
C1207 C1211 1.429 . S
C1208 C1191 1.574 . S
C1208 H1202 0.949 . S
C1208 C1212 1.319 1_545 S
C1209 C1190 1.427 . S
C1209 C1203 1.433 1_565 S
C1209 C1210 1.510 . S
C1210 C1191 1.360 1_565 S
C1210 C1204 1.384 . S
C1210 C1209 1.510 . S
C1211 C1195 1.429 1_565 S
C1211 C1207 1.429 . S
C1211 C1212 1.557 . S
C1212 C1196 1.397 . S
C1212 C1208 1.319 1_565 S
C1212 C1211 1.557 . S
H1213 C1188 0.950 . S
H1214 C1190 0.950 . S
H1215 C1191 0.949 . S
H1216 C1193 0.950 . S
H1217 C1195 0.950 . S
C1218 C1219 1.349 . S
C1218 C1220 1.327 . S
C1218 H1243 0.950 . S
C1219 C1218 1.349 . S
C1219 C1235 1.349 . S
C1220 C1218 1.327 . S
C1220 C1239 1.429 . S
C1220 H1244 0.950 . S
C1221 C1238 1.574 . S
C1221 C1240 1.368 . S
C1221 H1245 0.949 . S
H1222 C1226 0.949 . S
C1223 C1224 1.349 . S
C1223 C1225 1.327 . S
C1223 H1246 0.950 . S
C1224 C1223 1.349 . S
C1224 C1236 1.349 . S
C1225 C1223 1.327 . S
C1225 C1241 1.429 . S
C1225 H1247 0.950 . S
C1226 H1222 0.949 . S
C1226 C1234 1.574 . S
C1226 C1242 1.368 . S
H1227 C1235 0.950 . S
H1228 C1233 0.950 . S
H1229 C1234 0.949 . S
H1230 C1236 0.950 . S
H1231 C1237 0.950 . S
H1232 C1238 0.949 . S
C1233 H1228 0.950 . S
C1233 C1235 1.327 . S
C1233 C1239 1.429 . S
C1234 C1226 1.574 . S
C1234 H1229 0.949 . S
C1234 C1240 1.368 . S
C1235 C1219 1.349 . S
C1235 H1227 0.950 . S
C1235 C1233 1.327 . S
C1236 C1224 1.349 . S
C1236 H1230 0.950 . S
C1236 C1237 1.327 . S
C1237 H1231 0.950 . S
C1237 C1236 1.327 . S
C1237 C1241 1.429 . S
C1238 C1221 1.574 . S
C1238 H1232 0.949 . S
C1238 C1242 1.368 . S
C1239 C1220 1.429 . S
C1239 C1233 1.429 . S
C1239 C1240 1.523 . S
C1240 C1221 1.368 . S
C1240 C1234 1.368 . S
C1240 C1239 1.523 . S
C1241 C1225 1.429 . S
C1241 C1237 1.429 . S
C1241 C1242 1.523 . S
C1242 C1226 1.368 . S
C1242 C1238 1.368 . S
C1242 C1241 1.523 . S
H1243 C1218 0.950 . S
H1244 C1220 0.950 . S
H1245 C1221 0.949 . S
H1246 C1223 0.950 . S
H1247 C1225 0.950 . S
C1248 C1249 1.349 . S
C1248 C1250 1.327 . S
C1248 H1273 0.950 . S
C1249 C1248 1.349 . S
C1249 C1265 1.349 . S
C1250 C1248 1.327 . S
C1250 C1269 1.429 . S
C1250 H1274 0.950 . S
C1251 C1268 1.574 . S
C1251 C1270 1.368 . S
C1251 H1275 0.949 . S
H1252 C1256 0.949 . S
C1253 C1254 1.349 . S
C1253 C1255 1.327 . S
C1253 H1276 0.950 . S
C1254 C1253 1.349 . S
C1254 C1266 1.349 . S
C1255 C1253 1.327 . S
C1255 C1271 1.429 . S
C1255 H1277 0.950 . S
C1256 H1252 0.949 . S
C1256 C1264 1.574 . S
C1256 C1272 1.368 . S
H1257 C1265 0.950 . S
H1258 C1263 0.950 . S
H1259 C1264 0.949 . S
H1260 C1266 0.950 . S
H1261 C1267 0.950 . S
H1262 C1268 0.949 . S
C1263 H1258 0.950 . S
C1263 C1265 1.327 . S
C1263 C1269 1.429 . S
C1264 C1256 1.574 . S
C1264 H1259 0.949 . S
C1264 C1270 1.368 . S
C1265 C1249 1.349 . S
C1265 H1257 0.950 . S
C1265 C1263 1.327 . S
C1266 C1254 1.349 . S
C1266 H1260 0.950 . S
C1266 C1267 1.327 . S
C1267 H1261 0.950 . S
C1267 C1266 1.327 . S
C1267 C1271 1.429 . S
C1268 C1251 1.574 . S
C1268 H1262 0.949 . S
C1268 C1272 1.368 . S
C1269 C1250 1.429 . S
C1269 C1263 1.429 . S
C1269 C1270 1.523 . S
C1270 C1251 1.368 . S
C1270 C1264 1.368 . S
C1270 C1269 1.523 . S
C1271 C1255 1.429 . S
C1271 C1267 1.429 . S
C1271 C1272 1.523 . S
C1272 C1256 1.368 . S
C1272 C1268 1.368 . S
C1272 C1271 1.523 . S
H1273 C1248 0.950 . S
H1274 C1250 0.950 . S
H1275 C1251 0.949 . S
H1276 C1253 0.950 . S
H1277 C1255 0.950 . S
C1278 C1279 1.349 1_655 S
C1278 C1280 1.327 . S
C1278 H1303 0.950 . S
C1279 C1278 1.349 1_455 S
C1279 C1295 1.349 . S
C1280 C1278 1.327 . S
C1280 C1299 1.429 1_655 S
C1280 H1304 0.950 . S
C1281 C1298 1.574 . S
C1281 C1300 1.368 . S
C1281 H1305 0.949 . S
H1282 C1286 0.949 . S
C1283 C1284 1.349 . S
C1283 C1285 1.327 . S
C1283 H1306 0.950 . S
C1284 C1283 1.349 . S
C1284 C1296 1.349 1_455 S
C1285 C1283 1.327 . S
C1285 C1301 1.429 . S
C1285 H1307 0.950 . S
C1286 H1282 0.949 . S
C1286 C1294 1.574 . S
C1286 C1302 1.368 1_655 S
H1287 C1295 0.950 . S
H1288 C1293 0.950 . S
H1289 C1294 0.949 . S
H1290 C1296 0.950 . S
H1291 C1297 0.950 . S
H1292 C1298 0.949 . S
C1293 H1288 0.950 . S
C1293 C1295 1.327 . S
C1293 C1299 1.429 . S
C1294 C1286 1.574 . S
C1294 H1289 0.949 . S
C1294 C1300 1.368 1_655 S
C1295 C1279 1.349 . S
C1295 H1287 0.950 . S
C1295 C1293 1.327 . S
C1296 C1284 1.349 1_655 S
C1296 H1290 0.950 . S
C1296 C1297 1.327 . S
C1297 H1291 0.950 . S
C1297 C1296 1.327 . S
C1297 C1301 1.429 1_655 S
C1298 C1281 1.574 . S
C1298 H1292 0.949 . S
C1298 C1302 1.368 . S
C1299 C1280 1.429 1_455 S
C1299 C1293 1.429 . S
C1299 C1300 1.523 . S
C1300 C1281 1.368 . S
C1300 C1294 1.368 1_455 S
C1300 C1299 1.523 . S
C1301 C1285 1.429 . S
C1301 C1297 1.429 1_455 S
C1301 C1302 1.523 . S
C1302 C1286 1.368 1_455 S
C1302 C1298 1.368 . S
C1302 C1301 1.523 . S
H1303 C1278 0.950 . S
H1304 C1280 0.950 . S
H1305 C1281 0.949 . S
H1306 C1283 0.950 . S
H1307 C1285 0.950 . S
C1308 C1309 1.349 . S
C1308 C1310 1.327 . S
C1308 H1333 0.950 . S
C1309 C1308 1.349 . S
C1309 C1325 1.349 . S
C1310 C1308 1.327 . S
C1310 C1329 1.429 . S
C1310 H1334 0.950 . S
C1311 C1328 1.574 . S
C1311 C1330 1.368 . S
C1311 H1335 0.949 . S
H1312 C1316 0.949 . S
C1313 C1314 1.349 . S
C1313 C1315 1.327 . S
C1313 H1336 0.950 . S
C1314 C1313 1.349 . S
C1314 C1326 1.349 . S
C1315 C1313 1.327 . S
C1315 C1331 1.429 . S
C1315 H1337 0.950 . S
C1316 H1312 0.949 . S
C1316 C1324 1.574 . S
C1316 C1332 1.368 . S
H1317 C1325 0.950 . S
H1318 C1323 0.950 . S
H1319 C1324 0.949 . S
H1320 C1326 0.950 . S
H1321 C1327 0.950 . S
H1322 C1328 0.949 . S
C1323 H1318 0.950 . S
C1323 C1325 1.327 . S
C1323 C1329 1.429 . S
C1324 C1316 1.574 . S
C1324 H1319 0.949 . S
C1324 C1330 1.368 . S
C1325 C1309 1.349 . S
C1325 H1317 0.950 . S
C1325 C1323 1.327 . S
C1326 C1314 1.349 . S
C1326 H1320 0.950 . S
C1326 C1327 1.327 . S
C1327 H1321 0.950 . S
C1327 C1326 1.327 . S
C1327 C1331 1.429 . S
C1328 C1311 1.574 . S
C1328 H1322 0.949 . S
C1328 C1332 1.368 . S
C1329 C1310 1.429 . S
C1329 C1323 1.429 . S
C1329 C1330 1.523 . S
C1330 C1311 1.368 . S
C1330 C1324 1.368 . S
C1330 C1329 1.523 . S
C1331 C1315 1.429 . S
C1331 C1327 1.429 . S
C1331 C1332 1.523 . S
C1332 C1316 1.368 . S
C1332 C1328 1.368 . S
C1332 C1331 1.523 . S
H1333 C1308 0.950 . S
H1334 C1310 0.950 . S
H1335 C1311 0.949 . S
H1336 C1313 0.950 . S
H1337 C1315 0.950 . S
C1338 C1339 1.349 1_545 S
C1338 C1340 1.327 . S
C1338 H1363 0.950 . S
C1339 C1338 1.349 1_565 S
C1339 C1355 1.349 . S
C1340 C1338 1.327 . S
C1340 C1359 1.429 1_545 S
C1340 H1364 0.950 . S
C1341 C1358 1.574 . S
C1341 C1360 1.368 . S
C1341 H1365 0.949 . S
H1342 C1346 0.949 . S
C1343 C1344 1.349 . S
C1343 C1345 1.327 . S
C1343 H1366 0.950 . S
C1344 C1343 1.349 . S
C1344 C1356 1.349 1_565 S
C1345 C1343 1.327 . S
C1345 C1361 1.429 . S
C1345 H1367 0.950 . S
C1346 H1342 0.949 . S
C1346 C1354 1.574 . S
C1346 C1362 1.368 1_545 S
H1347 C1355 0.950 . S
H1348 C1353 0.950 . S
H1349 C1354 0.949 . S
H1350 C1356 0.950 . S
H1351 C1357 0.950 . S
H1352 C1358 0.949 . S
C1353 H1348 0.950 . S
C1353 C1355 1.327 . S
C1353 C1359 1.429 . S
C1354 C1346 1.574 . S
C1354 H1349 0.949 . S
C1354 C1360 1.368 1_545 S
C1355 C1339 1.349 . S
C1355 H1347 0.950 . S
C1355 C1353 1.327 . S
C1356 C1344 1.349 1_545 S
C1356 H1350 0.950 . S
C1356 C1357 1.327 . S
C1357 H1351 0.950 . S
C1357 C1356 1.327 . S
C1357 C1361 1.429 1_545 S
C1358 C1341 1.574 . S
C1358 H1352 0.949 . S
C1358 C1362 1.368 . S
C1359 C1340 1.429 1_565 S
C1359 C1353 1.429 . S
C1359 C1360 1.523 . S
C1360 C1341 1.368 . S
C1360 C1354 1.368 1_565 S
C1360 C1359 1.523 . S
C1361 C1345 1.429 . S
C1361 C1357 1.429 1_565 S
C1361 C1362 1.523 . S
C1362 C1346 1.368 1_565 S
C1362 C1358 1.368 . S
C1362 C1361 1.523 . S
H1363 C1338 0.950 . S
H1364 C1340 0.950 . S
H1365 C1341 0.949 . S
H1366 C1343 0.950 . S
H1367 C1345 0.950 . S
C1368 C1369 1.349 . S
C1368 C1370 1.327 . S
C1368 H1393 0.950 . S
C1369 C1368 1.349 . S
C1369 C1385 1.349 1_545 S
C1370 C1368 1.327 . S
C1370 C1389 1.429 . S
C1370 H1394 0.950 . S
C1371 C1388 1.574 . S
C1371 C1390 1.368 1_565 S
C1371 H1395 0.949 . S
H1372 C1376 0.949 . S
C1373 C1374 1.349 1_565 S
C1373 C1375 1.327 . S
C1373 H1396 0.950 . S
C1374 C1373 1.349 1_545 S
C1374 C1386 1.349 . S
C1375 C1373 1.327 . S
C1375 C1391 1.429 1_565 S
C1375 H1397 0.950 . S
C1376 H1372 0.949 . S
C1376 C1384 1.574 . S
C1376 C1392 1.368 . S
H1377 C1385 0.950 . S
H1378 C1383 0.950 . S
H1379 C1384 0.949 . S
H1380 C1386 0.950 . S
H1381 C1387 0.950 . S
H1382 C1388 0.949 . S
C1383 H1378 0.950 . S
C1383 C1385 1.327 . S
C1383 C1389 1.429 1_565 S
C1384 C1376 1.574 . S
C1384 H1379 0.949 . S
C1384 C1390 1.368 . S
C1385 C1369 1.349 1_565 S
C1385 H1377 0.950 . S
C1385 C1383 1.327 . S
C1386 C1374 1.349 . S
C1386 H1380 0.950 . S
C1386 C1387 1.327 . S
C1387 H1381 0.950 . S
C1387 C1386 1.327 . S
C1387 C1391 1.429 . S
C1388 C1371 1.574 . S
C1388 H1382 0.949 . S
C1388 C1392 1.368 1_565 S
C1389 C1370 1.429 . S
C1389 C1383 1.429 1_545 S
C1389 C1390 1.523 . S
C1390 C1371 1.368 1_545 S
C1390 C1384 1.368 . S
C1390 C1389 1.523 . S
C1391 C1375 1.429 1_545 S
C1391 C1387 1.429 . S
C1391 C1392 1.523 . S
C1392 C1376 1.368 . S
C1392 C1388 1.368 1_545 S
C1392 C1391 1.523 . S
H1393 C1368 0.950 . S
H1394 C1370 0.950 . S
H1395 C1371 0.949 . S
H1396 C1373 0.950 . S
H1397 C1375 0.950 . S
C1398 C1399 1.349 1_455 S
C1398 C1400 1.327 . S
C1398 H1423 0.950 . S
C1399 C1398 1.349 1_655 S
C1399 C1415 1.349 . S
C1400 C1398 1.327 . S
C1400 C1419 1.429 1_455 S
C1400 H1424 0.950 . S
C1401 C1418 1.574 . S
C1401 C1420 1.368 . S
C1401 H1425 0.949 . S
H1402 C1406 0.949 . S
C1403 C1404 1.349 . S
C1403 C1405 1.327 . S
C1403 H1426 0.950 . S
C1404 C1403 1.349 . S
C1404 C1416 1.349 1_655 S
C1405 C1403 1.327 . S
C1405 C1421 1.429 . S
C1405 H1427 0.950 . S
C1406 H1402 0.949 . S
C1406 C1414 1.574 . S
C1406 C1422 1.368 1_455 S
H1407 C1415 0.950 . S
H1408 C1413 0.950 . S
H1409 C1414 0.949 . S
H1410 C1416 0.950 . S
H1411 C1417 0.950 . S
H1412 C1418 0.949 . S
C1413 H1408 0.950 . S
C1413 C1415 1.327 . S
C1413 C1419 1.429 . S
C1414 C1406 1.574 . S
C1414 H1409 0.949 . S
C1414 C1420 1.368 1_455 S
C1415 C1399 1.349 . S
C1415 H1407 0.950 . S
C1415 C1413 1.327 . S
C1416 C1404 1.349 1_455 S
C1416 H1410 0.950 . S
C1416 C1417 1.327 . S
C1417 H1411 0.950 . S
C1417 C1416 1.327 . S
C1417 C1421 1.429 1_455 S
C1418 C1401 1.574 . S
C1418 H1412 0.949 . S
C1418 C1422 1.368 . S
C1419 C1400 1.429 1_655 S
C1419 C1413 1.429 . S
C1419 C1420 1.523 . S
C1420 C1401 1.368 . S
C1420 C1414 1.368 1_655 S
C1420 C1419 1.523 . S
C1421 C1405 1.429 . S
C1421 C1417 1.429 1_655 S
C1421 C1422 1.523 . S
C1422 C1406 1.368 1_655 S
C1422 C1418 1.368 . S
C1422 C1421 1.523 . S
H1423 C1398 0.950 . S
H1424 C1400 0.950 . S
H1425 C1401 0.949 . S
H1426 C1403 0.950 . S
H1427 C1405 0.950 . S
C1428 C1429 1.349 . S
C1428 C1430 1.327 . S
C1428 H1453 0.950 . S
C1429 C1428 1.349 . S
C1429 C1445 1.349 . S
C1430 C1428 1.327 . S
C1430 C1449 1.429 . S
C1430 H1454 0.950 . S
C1431 C1448 1.574 . S
C1431 C1450 1.368 . S
C1431 H1455 0.949 . S
H1432 C1436 0.949 . S
C1433 C1434 1.349 . S
C1433 C1435 1.327 . S
C1433 H1456 0.950 . S
C1434 C1433 1.349 . S
C1434 C1446 1.349 . S
C1435 C1433 1.327 . S
C1435 C1451 1.429 . S
C1435 H1457 0.950 . S
C1436 H1432 0.949 . S
C1436 C1444 1.574 . S
C1436 C1452 1.368 . S
H1437 C1445 0.950 . S
H1438 C1443 0.950 . S
H1439 C1444 0.949 . S
H1440 C1446 0.950 . S
H1441 C1447 0.950 . S
H1442 C1448 0.949 . S
C1443 H1438 0.950 . S
C1443 C1445 1.327 . S
C1443 C1449 1.429 . S
C1444 C1436 1.574 . S
C1444 H1439 0.949 . S
C1444 C1450 1.368 . S
C1445 C1429 1.349 . S
C1445 H1437 0.950 . S
C1445 C1443 1.327 . S
C1446 C1434 1.349 . S
C1446 H1440 0.950 . S
C1446 C1447 1.327 . S
C1447 H1441 0.950 . S
C1447 C1446 1.327 . S
C1447 C1451 1.429 . S
C1448 C1431 1.574 . S
C1448 H1442 0.949 . S
C1448 C1452 1.368 . S
C1449 C1430 1.429 . S
C1449 C1443 1.429 . S
C1449 C1450 1.523 . S
C1450 C1431 1.368 . S
C1450 C1444 1.368 . S
C1450 C1449 1.523 . S
C1451 C1435 1.429 . S
C1451 C1447 1.429 . S
C1451 C1452 1.523 . S
C1452 C1436 1.368 . S
C1452 C1448 1.368 . S
C1452 C1451 1.523 . S
H1453 C1428 0.950 . S
H1454 C1430 0.950 . S
H1455 C1431 0.949 . S
H1456 C1433 0.950 . S
H1457 C1435 0.950 . S
C1458 C1459 1.349 . S
C1458 C1460 1.327 . S
C1458 H1483 0.950 . S
C1459 C1458 1.349 . S
C1459 C1475 1.349 . S
C1460 C1458 1.327 . S
C1460 C1479 1.429 . S
C1460 H1484 0.950 . S
C1461 C1478 1.574 . S
C1461 C1480 1.368 . S
C1461 H1485 0.949 . S
H1462 C1466 0.949 . S
C1463 C1464 1.349 . S
C1463 C1465 1.327 . S
C1463 H1486 0.950 . S
C1464 C1463 1.349 . S
C1464 C1476 1.349 . S
C1465 C1463 1.327 . S
C1465 C1481 1.429 . S
C1465 H1487 0.950 . S
C1466 H1462 0.949 . S
C1466 C1474 1.574 . S
C1466 C1482 1.368 . S
H1467 C1475 0.950 . S
H1468 C1473 0.950 . S
H1469 C1474 0.949 . S
H1470 C1476 0.950 . S
H1471 C1477 0.950 . S
H1472 C1478 0.949 . S
C1473 H1468 0.950 . S
C1473 C1475 1.327 . S
C1473 C1479 1.429 . S
C1474 C1466 1.574 . S
C1474 H1469 0.949 . S
C1474 C1480 1.368 . S
C1475 C1459 1.349 . S
C1475 H1467 0.950 . S
C1475 C1473 1.327 . S
C1476 C1464 1.349 . S
C1476 H1470 0.950 . S
C1476 C1477 1.327 . S
C1477 H1471 0.950 . S
C1477 C1476 1.327 . S
C1477 C1481 1.429 . S
C1478 C1461 1.574 . S
C1478 H1472 0.949 . S
C1478 C1482 1.368 . S
C1479 C1460 1.429 . S
C1479 C1473 1.429 . S
C1479 C1480 1.523 . S
C1480 C1461 1.368 . S
C1480 C1474 1.368 . S
C1480 C1479 1.523 . S
C1481 C1465 1.429 . S
C1481 C1477 1.429 . S
C1481 C1482 1.523 . S
C1482 C1466 1.368 . S
C1482 C1478 1.368 . S
C1482 C1481 1.523 . S
H1483 C1458 0.950 . S
H1484 C1460 0.950 . S
H1485 C1461 0.949 . S
H1486 C1463 0.950 . S
H1487 C1465 0.950 . S
C1488 C1489 1.349 . S
C1488 C1490 1.327 . S
C1488 H1513 0.950 . S
C1489 C1488 1.349 . S
C1489 C1505 1.349 . S
C1490 C1488 1.327 . S
C1490 C1509 1.429 . S
C1490 H1514 0.950 . S
C1491 C1508 1.574 . S
C1491 C1510 1.368 . S
C1491 H1515 0.949 . S
H1492 C1496 0.949 . S
C1493 C1494 1.349 . S
C1493 C1495 1.327 . S
C1493 H1516 0.950 . S
C1494 C1493 1.349 . S
C1494 C1506 1.349 . S
C1495 C1493 1.327 . S
C1495 C1511 1.429 . S
C1495 H1517 0.950 . S
C1496 H1492 0.949 . S
C1496 C1504 1.574 . S
C1496 C1512 1.368 . S
H1497 C1505 0.950 . S
H1498 C1503 0.950 . S
H1499 C1504 0.949 . S
H1500 C1506 0.950 . S
H1501 C1507 0.950 . S
H1502 C1508 0.949 . S
C1503 H1498 0.950 . S
C1503 C1505 1.327 . S
C1503 C1509 1.429 . S
C1504 C1496 1.574 . S
C1504 H1499 0.949 . S
C1504 C1510 1.368 . S
C1505 C1489 1.349 . S
C1505 H1497 0.950 . S
C1505 C1503 1.327 . S
C1506 C1494 1.349 . S
C1506 H1500 0.950 . S
C1506 C1507 1.327 . S
C1507 H1501 0.950 . S
C1507 C1506 1.327 . S
C1507 C1511 1.429 . S
C1508 C1491 1.574 . S
C1508 H1502 0.949 . S
C1508 C1512 1.368 . S
C1509 C1490 1.429 . S
C1509 C1503 1.429 . S
C1509 C1510 1.523 . S
C1510 C1491 1.368 . S
C1510 C1504 1.368 . S
C1510 C1509 1.523 . S
C1511 C1495 1.429 . S
C1511 C1507 1.429 . S
C1511 C1512 1.523 . S
C1512 C1496 1.368 . S
C1512 C1508 1.368 . S
C1512 C1511 1.523 . S
H1513 C1488 0.950 . S
H1514 C1490 0.950 . S
H1515 C1491 0.949 . S
H1516 C1493 0.950 . S
H1517 C1495 0.950 . S
C1518 C1519 1.349 . S
C1518 C1520 1.327 . S
C1518 H1543 0.950 . S
C1519 C1518 1.349 . S
C1519 C1535 1.349 . S
C1520 C1518 1.327 . S
C1520 C1539 1.429 . S
C1520 H1544 0.950 . S
C1521 C1538 1.574 . S
C1521 C1540 1.368 . S
C1521 H1545 0.949 . S
H1522 C1526 0.949 . S
C1523 C1524 1.349 . S
C1523 C1525 1.327 . S
C1523 H1546 0.950 . S
C1524 C1523 1.349 . S
C1524 C1536 1.349 . S
C1525 C1523 1.327 . S
C1525 C1541 1.429 . S
C1525 H1547 0.950 . S
C1526 H1522 0.949 . S
C1526 C1534 1.574 . S
C1526 C1542 1.368 . S
H1527 C1535 0.950 . S
H1528 C1533 0.950 . S
H1529 C1534 0.949 . S
H1530 C1536 0.950 . S
H1531 C1537 0.950 . S
H1532 C1538 0.949 . S
C1533 H1528 0.950 . S
C1533 C1535 1.327 . S
C1533 C1539 1.429 . S
C1534 C1526 1.574 . S
C1534 H1529 0.949 . S
C1534 C1540 1.368 . S
C1535 C1519 1.349 . S
C1535 H1527 0.950 . S
C1535 C1533 1.327 . S
C1536 C1524 1.349 . S
C1536 H1530 0.950 . S
C1536 C1537 1.327 . S
C1537 H1531 0.950 . S
C1537 C1536 1.327 . S
C1537 C1541 1.429 . S
C1538 C1521 1.574 . S
C1538 H1532 0.949 . S
C1538 C1542 1.368 . S
C1539 C1520 1.429 . S
C1539 C1533 1.429 . S
C1539 C1540 1.523 . S
C1540 C1521 1.368 . S
C1540 C1534 1.368 . S
C1540 C1539 1.523 . S
C1541 C1525 1.429 . S
C1541 C1537 1.429 . S
C1541 C1542 1.523 . S
C1542 C1526 1.368 . S
C1542 C1538 1.368 . S
C1542 C1541 1.523 . S
H1543 C1518 0.950 . S
H1544 C1520 0.950 . S
H1545 C1521 0.949 . S
H1546 C1523 0.950 . S
H1547 C1525 0.950 . S
C1548 C1549 1.349 . S
C1548 C1550 1.327 . S
C1548 H1573 0.950 . S
C1549 C1548 1.349 . S
C1549 C1565 1.349 . S
C1550 C1548 1.327 . S
C1550 C1569 1.429 . S
C1550 H1574 0.950 . S
C1551 C1568 1.574 . S
C1551 C1570 1.368 . S
C1551 H1575 0.949 . S
H1552 C1556 0.949 . S
C1553 C1554 1.349 . S
C1553 C1555 1.327 . S
C1553 H1576 0.950 . S
C1554 C1553 1.349 . S
C1554 C1566 1.349 . S
C1555 C1553 1.327 . S
C1555 C1571 1.429 . S
C1555 H1577 0.950 . S
C1556 H1552 0.949 . S
C1556 C1564 1.574 . S
C1556 C1572 1.368 . S
H1557 C1565 0.950 . S
H1558 C1563 0.950 . S
H1559 C1564 0.949 . S
H1560 C1566 0.950 . S
H1561 C1567 0.950 . S
H1562 C1568 0.949 . S
C1563 H1558 0.950 . S
C1563 C1565 1.327 . S
C1563 C1569 1.429 . S
C1564 C1556 1.574 . S
C1564 H1559 0.949 . S
C1564 C1570 1.368 . S
C1565 C1549 1.349 . S
C1565 H1557 0.950 . S
C1565 C1563 1.327 . S
C1566 C1554 1.349 . S
C1566 H1560 0.950 . S
C1566 C1567 1.327 . S
C1567 H1561 0.950 . S
C1567 C1566 1.327 . S
C1567 C1571 1.429 . S
C1568 C1551 1.574 . S
C1568 H1562 0.949 . S
C1568 C1572 1.368 . S
C1569 C1550 1.429 . S
C1569 C1563 1.429 . S
C1569 C1570 1.523 . S
C1570 C1551 1.368 . S
C1570 C1564 1.368 . S
C1570 C1569 1.523 . S
C1571 C1555 1.429 . S
C1571 C1567 1.429 . S
C1571 C1572 1.523 . S
C1572 C1556 1.368 . S
C1572 C1568 1.368 . S
C1572 C1571 1.523 . S
H1573 C1548 0.950 . S
H1574 C1550 0.950 . S
H1575 C1551 0.949 . S
H1576 C1553 0.950 . S
H1577 C1555 0.950 . S
C1578 C1579 1.349 . S
C1578 C1580 1.327 . S
C1578 H1603 0.950 . S
C1579 C1578 1.349 . S
C1579 C1595 1.349 . S
C1580 C1578 1.327 . S
C1580 C1599 1.429 . S
C1580 H1604 0.950 . S
C1581 C1598 1.574 . S
C1581 C1600 1.368 . S
C1581 H1605 0.949 . S
H1582 C1586 0.949 . S
C1583 C1584 1.349 . S
C1583 C1585 1.327 . S
C1583 H1606 0.950 . S
C1584 C1583 1.349 . S
C1584 C1596 1.349 . S
C1585 C1583 1.327 . S
C1585 C1601 1.429 . S
C1585 H1607 0.950 . S
C1586 H1582 0.949 . S
C1586 C1594 1.574 . S
C1586 C1602 1.368 . S
H1587 C1595 0.950 . S
H1588 C1593 0.950 . S
H1589 C1594 0.949 . S
H1590 C1596 0.950 . S
H1591 C1597 0.950 . S
H1592 C1598 0.949 . S
C1593 H1588 0.950 . S
C1593 C1595 1.327 . S
C1593 C1599 1.429 . S
C1594 C1586 1.574 . S
C1594 H1589 0.949 . S
C1594 C1600 1.368 . S
C1595 C1579 1.349 . S
C1595 H1587 0.950 . S
C1595 C1593 1.327 . S
C1596 C1584 1.349 . S
C1596 H1590 0.950 . S
C1596 C1597 1.327 . S
C1597 H1591 0.950 . S
C1597 C1596 1.327 . S
C1597 C1601 1.429 . S
C1598 C1581 1.574 . S
C1598 H1592 0.949 . S
C1598 C1602 1.368 . S
C1599 C1580 1.429 . S
C1599 C1593 1.429 . S
C1599 C1600 1.523 . S
C1600 C1581 1.368 . S
C1600 C1594 1.368 . S
C1600 C1599 1.523 . S
C1601 C1585 1.429 . S
C1601 C1597 1.429 . S
C1601 C1602 1.523 . S
C1602 C1586 1.368 . S
C1602 C1598 1.368 . S
C1602 C1601 1.523 . S
H1603 C1578 0.950 . S
H1604 C1580 0.950 . S
H1605 C1581 0.949 . S
H1606 C1583 0.950 . S
H1607 C1585 0.950 . S
C1608 C1609 1.349 . S
C1608 C1610 1.327 . S
C1608 H1633 0.950 . S
C1609 C1608 1.349 . S
C1609 C1625 1.349 . S
C1610 C1608 1.327 . S
C1610 C1629 1.429 . S
C1610 H1634 0.950 . S
C1611 C1628 1.574 . S
C1611 C1630 1.368 . S
C1611 H1635 0.949 . S
H1612 C1616 0.949 . S
C1613 C1614 1.349 . S
C1613 C1615 1.327 . S
C1613 H1636 0.950 . S
C1614 C1613 1.349 . S
C1614 C1626 1.349 . S
C1615 C1613 1.327 . S
C1615 C1631 1.429 . S
C1615 H1637 0.950 . S
C1616 H1612 0.949 . S
C1616 C1624 1.574 . S
C1616 C1632 1.368 . S
H1617 C1625 0.950 . S
H1618 C1623 0.950 . S
H1619 C1624 0.949 . S
H1620 C1626 0.950 . S
H1621 C1627 0.950 . S
H1622 C1628 0.949 . S
C1623 H1618 0.950 . S
C1623 C1625 1.327 . S
C1623 C1629 1.429 . S
C1624 C1616 1.574 . S
C1624 H1619 0.949 . S
C1624 C1630 1.368 . S
C1625 C1609 1.349 . S
C1625 H1617 0.950 . S
C1625 C1623 1.327 . S
C1626 C1614 1.349 . S
C1626 H1620 0.950 . S
C1626 C1627 1.327 . S
C1627 H1621 0.950 . S
C1627 C1626 1.327 . S
C1627 C1631 1.429 . S
C1628 C1611 1.574 . S
C1628 H1622 0.949 . S
C1628 C1632 1.368 . S
C1629 C1610 1.429 . S
C1629 C1623 1.429 . S
C1629 C1630 1.523 . S
C1630 C1611 1.368 . S
C1630 C1624 1.368 . S
C1630 C1629 1.523 . S
C1631 C1615 1.429 . S
C1631 C1627 1.429 . S
C1631 C1632 1.523 . S
C1632 C1616 1.368 . S
C1632 C1628 1.368 . S
C1632 C1631 1.523 . S
H1633 C1608 0.950 . S
H1634 C1610 0.950 . S
H1635 C1611 0.949 . S
H1636 C1613 0.950 . S
H1637 C1615 0.950 . S
C1638 C1639 1.349 . S
C1638 C1640 1.327 . S
C1638 H1663 0.950 . S
C1639 C1638 1.349 . S
C1639 C1655 1.349 . S
C1640 C1638 1.327 . S
C1640 C1659 1.429 . S
C1640 H1664 0.950 . S
C1641 C1658 1.574 . S
C1641 C1660 1.368 . S
C1641 H1665 0.949 . S
H1642 C1646 0.949 . S
C1643 C1644 1.349 . S
C1643 C1645 1.327 . S
C1643 H1666 0.950 . S
C1644 C1643 1.349 . S
C1644 C1656 1.349 . S
C1645 C1643 1.327 . S
C1645 C1661 1.429 . S
C1645 H1667 0.950 . S
C1646 H1642 0.949 . S
C1646 C1654 1.574 . S
C1646 C1662 1.368 . S
H1647 C1655 0.950 . S
H1648 C1653 0.950 . S
H1649 C1654 0.949 . S
H1650 C1656 0.950 . S
H1651 C1657 0.950 . S
H1652 C1658 0.949 . S
C1653 H1648 0.950 . S
C1653 C1655 1.327 . S
C1653 C1659 1.429 . S
C1654 C1646 1.574 . S
C1654 H1649 0.949 . S
C1654 C1660 1.368 . S
C1655 C1639 1.349 . S
C1655 H1647 0.950 . S
C1655 C1653 1.327 . S
C1656 C1644 1.349 . S
C1656 H1650 0.950 . S
C1656 C1657 1.327 . S
C1657 H1651 0.950 . S
C1657 C1656 1.327 . S
C1657 C1661 1.429 . S
C1658 C1641 1.574 . S
C1658 H1652 0.949 . S
C1658 C1662 1.368 . S
C1659 C1640 1.429 . S
C1659 C1653 1.429 . S
C1659 C1660 1.523 . S
C1660 C1641 1.368 . S
C1660 C1654 1.368 . S
C1660 C1659 1.523 . S
C1661 C1645 1.429 . S
C1661 C1657 1.429 . S
C1661 C1662 1.523 . S
C1662 C1646 1.368 . S
C1662 C1658 1.368 . S
C1662 C1661 1.523 . S
H1663 C1638 0.950 . S
H1664 C1640 0.950 . S
H1665 C1641 0.949 . S
H1666 C1643 0.950 . S
H1667 C1645 0.950 . S
C1668 C1669 1.349 . S
C1668 C1670 1.327 . S
C1668 H1693 0.950 . S
C1669 C1668 1.349 . S
C1669 C1685 1.349 . S
C1670 C1668 1.327 . S
C1670 C1689 1.429 . S
C1670 H1694 0.950 . S
C1671 C1688 1.574 . S
C1671 C1690 1.368 . S
C1671 H1695 0.949 . S
H1672 C1676 0.949 . S
C1673 C1674 1.349 . S
C1673 C1675 1.327 . S
C1673 H1696 0.950 . S
C1674 C1673 1.349 . S
C1674 C1686 1.349 . S
C1675 C1673 1.327 . S
C1675 C1691 1.429 . S
C1675 H1697 0.950 . S
C1676 H1672 0.949 . S
C1676 C1684 1.574 . S
C1676 C1692 1.368 . S
H1677 C1685 0.950 . S
H1678 C1683 0.950 . S
H1679 C1684 0.949 . S
H1680 C1686 0.950 . S
H1681 C1687 0.950 . S
H1682 C1688 0.949 . S
C1683 H1678 0.950 . S
C1683 C1685 1.327 . S
C1683 C1689 1.429 . S
C1684 C1676 1.574 . S
C1684 H1679 0.949 . S
C1684 C1690 1.368 . S
C1685 C1669 1.349 . S
C1685 H1677 0.950 . S
C1685 C1683 1.327 . S
C1686 C1674 1.349 . S
C1686 H1680 0.950 . S
C1686 C1687 1.327 . S
C1687 H1681 0.950 . S
C1687 C1686 1.327 . S
C1687 C1691 1.429 . S
C1688 C1671 1.574 . S
C1688 H1682 0.949 . S
C1688 C1692 1.368 . S
C1689 C1670 1.429 . S
C1689 C1683 1.429 . S
C1689 C1690 1.523 . S
C1690 C1671 1.368 . S
C1690 C1684 1.368 . S
C1690 C1689 1.523 . S
C1691 C1675 1.429 . S
C1691 C1687 1.429 . S
C1691 C1692 1.523 . S
C1692 C1676 1.368 . S
C1692 C1688 1.368 . S
C1692 C1691 1.523 . S
H1693 C1668 0.950 . S
H1694 C1670 0.950 . S
H1695 C1671 0.949 . S
H1696 C1673 0.950 . S
H1697 C1675 0.950 . S
C1698 C1699 1.349 . S
C1698 C1700 1.327 . S
C1698 H1723 0.950 . S
C1699 C1698 1.349 . S
C1699 C1715 1.349 . S
C1700 C1698 1.327 . S
C1700 C1719 1.429 . S
C1700 H1724 0.950 . S
C1701 C1718 1.574 . S
C1701 C1720 1.368 . S
C1701 H1725 0.949 . S
H1702 C1706 0.949 . S
C1703 C1704 1.349 . S
C1703 C1705 1.327 . S
C1703 H1726 0.950 . S
C1704 C1703 1.349 . S
C1704 C1716 1.349 . S
C1705 C1703 1.327 . S
C1705 C1721 1.429 . S
C1705 H1727 0.950 . S
C1706 H1702 0.949 . S
C1706 C1714 1.574 . S
C1706 C1722 1.368 . S
H1707 C1715 0.950 . S
H1708 C1713 0.950 . S
H1709 C1714 0.949 . S
H1710 C1716 0.950 . S
H1711 C1717 0.950 . S
H1712 C1718 0.949 . S
C1713 H1708 0.950 . S
C1713 C1715 1.327 . S
C1713 C1719 1.429 . S
C1714 C1706 1.574 . S
C1714 H1709 0.949 . S
C1714 C1720 1.368 . S
C1715 C1699 1.349 . S
C1715 H1707 0.950 . S
C1715 C1713 1.327 . S
C1716 C1704 1.349 . S
C1716 H1710 0.950 . S
C1716 C1717 1.327 . S
C1717 H1711 0.950 . S
C1717 C1716 1.327 . S
C1717 C1721 1.429 . S
C1718 C1701 1.574 . S
C1718 H1712 0.949 . S
C1718 C1722 1.368 . S
C1719 C1700 1.429 . S
C1719 C1713 1.429 . S
C1719 C1720 1.523 . S
C1720 C1701 1.368 . S
C1720 C1714 1.368 . S
C1720 C1719 1.523 . S
C1721 C1705 1.429 . S
C1721 C1717 1.429 . S
C1721 C1722 1.523 . S
C1722 C1706 1.368 . S
C1722 C1718 1.368 . S
C1722 C1721 1.523 . S
H1723 C1698 0.950 . S
H1724 C1700 0.950 . S
H1725 C1701 0.949 . S
H1726 C1703 0.950 . S
H1727 C1705 0.950 . S
C1728 C1729 1.349 . S
C1728 C1730 1.327 . S
C1728 H1753 0.950 . S
C1729 C1728 1.349 . S
C1729 C1745 1.349 . S
C1730 C1728 1.327 . S
C1730 C1749 1.429 . S
C1730 H1754 0.950 . S
C1731 C1748 1.574 . S
C1731 C1750 1.368 . S
C1731 H1755 0.949 . S
H1732 C1736 0.949 . S
C1733 C1734 1.349 . S
C1733 C1735 1.327 . S
C1733 H1756 0.950 . S
C1734 C1733 1.349 . S
C1734 C1746 1.349 . S
C1735 C1733 1.327 . S
C1735 C1751 1.429 . S
C1735 H1757 0.950 . S
C1736 H1732 0.949 . S
C1736 C1744 1.574 . S
C1736 C1752 1.368 . S
H1737 C1745 0.950 . S
H1738 C1743 0.950 . S
H1739 C1744 0.949 . S
H1740 C1746 0.950 . S
H1741 C1747 0.950 . S
H1742 C1748 0.949 . S
C1743 H1738 0.950 . S
C1743 C1745 1.327 . S
C1743 C1749 1.429 . S
C1744 C1736 1.574 . S
C1744 H1739 0.949 . S
C1744 C1750 1.368 . S
C1745 C1729 1.349 . S
C1745 H1737 0.950 . S
C1745 C1743 1.327 . S
C1746 C1734 1.349 . S
C1746 H1740 0.950 . S
C1746 C1747 1.327 . S
C1747 H1741 0.950 . S
C1747 C1746 1.327 . S
C1747 C1751 1.429 . S
C1748 C1731 1.574 . S
C1748 H1742 0.949 . S
C1748 C1752 1.368 . S
C1749 C1730 1.429 . S
C1749 C1743 1.429 . S
C1749 C1750 1.523 . S
C1750 C1731 1.368 . S
C1750 C1744 1.368 . S
C1750 C1749 1.523 . S
C1751 C1735 1.429 . S
C1751 C1747 1.429 . S
C1751 C1752 1.523 . S
C1752 C1736 1.368 . S
C1752 C1748 1.368 . S
C1752 C1751 1.523 . S
H1753 C1728 0.950 . S
H1754 C1730 0.950 . S
H1755 C1731 0.949 . S
H1756 C1733 0.950 . S
H1757 C1735 0.950 . S
C1758 C1759 1.349 . S
C1758 C1760 1.327 . S
C1758 H1783 0.950 . S
C1759 C1758 1.349 . S
C1759 C1775 1.349 . S
C1760 C1758 1.327 . S
C1760 C1779 1.429 . S
C1760 H1784 0.950 . S
C1761 C1778 1.574 . S
C1761 C1780 1.368 . S
C1761 H1785 0.949 . S
H1762 C1766 0.949 . S
C1763 C1764 1.349 . S
C1763 C1765 1.327 . S
C1763 H1786 0.950 . S
C1764 C1763 1.349 . S
C1764 C1776 1.349 . S
C1765 C1763 1.327 . S
C1765 C1781 1.429 . S
C1765 H1787 0.950 . S
C1766 H1762 0.949 . S
C1766 C1774 1.574 . S
C1766 C1782 1.368 . S
H1767 C1775 0.950 . S
H1768 C1773 0.950 . S
H1769 C1774 0.949 . S
H1770 C1776 0.950 . S
H1771 C1777 0.950 . S
H1772 C1778 0.949 . S
C1773 H1768 0.950 . S
C1773 C1775 1.327 . S
C1773 C1779 1.429 . S
C1774 C1766 1.574 . S
C1774 H1769 0.949 . S
C1774 C1780 1.368 . S
C1775 C1759 1.349 . S
C1775 H1767 0.950 . S
C1775 C1773 1.327 . S
C1776 C1764 1.349 . S
C1776 H1770 0.950 . S
C1776 C1777 1.327 . S
C1777 H1771 0.950 . S
C1777 C1776 1.327 . S
C1777 C1781 1.429 . S
C1778 C1761 1.574 . S
C1778 H1772 0.949 . S
C1778 C1782 1.368 . S
C1779 C1760 1.429 . S
C1779 C1773 1.429 . S
C1779 C1780 1.523 . S
C1780 C1761 1.368 . S
C1780 C1774 1.368 . S
C1780 C1779 1.523 . S
C1781 C1765 1.429 . S
C1781 C1777 1.429 . S
C1781 C1782 1.523 . S
C1782 C1766 1.368 . S
C1782 C1778 1.368 . S
C1782 C1781 1.523 . S
H1783 C1758 0.950 . S
H1784 C1760 0.950 . S
H1785 C1761 0.949 . S
H1786 C1763 0.950 . S
H1787 C1765 0.950 . S
C1788 C1789 1.349 . S
C1788 C1790 1.327 . S
C1788 H1813 0.950 . S
C1789 C1788 1.349 . S
C1789 C1805 1.349 . S
C1790 C1788 1.327 . S
C1790 C1809 1.429 . S
C1790 H1814 0.950 . S
C1791 C1808 1.574 . S
C1791 C1810 1.368 . S
C1791 H1815 0.949 . S
H1792 C1796 0.949 . S
C1793 C1794 1.349 . S
C1793 C1795 1.327 . S
C1793 H1816 0.950 . S
C1794 C1793 1.349 . S
C1794 C1806 1.349 . S
C1795 C1793 1.327 . S
C1795 C1811 1.429 . S
C1795 H1817 0.950 . S
C1796 H1792 0.949 . S
C1796 C1804 1.574 . S
C1796 C1812 1.368 . S
H1797 C1805 0.950 . S
H1798 C1803 0.950 . S
H1799 C1804 0.949 . S
H1800 C1806 0.950 . S
H1801 C1807 0.950 . S
H1802 C1808 0.949 . S
C1803 H1798 0.950 . S
C1803 C1805 1.327 . S
C1803 C1809 1.429 . S
C1804 C1796 1.574 . S
C1804 H1799 0.949 . S
C1804 C1810 1.368 . S
C1805 C1789 1.349 . S
C1805 H1797 0.950 . S
C1805 C1803 1.327 . S
C1806 C1794 1.349 . S
C1806 H1800 0.950 . S
C1806 C1807 1.327 . S
C1807 H1801 0.950 . S
C1807 C1806 1.327 . S
C1807 C1811 1.429 . S
C1808 C1791 1.574 . S
C1808 H1802 0.949 . S
C1808 C1812 1.368 . S
C1809 C1790 1.429 . S
C1809 C1803 1.429 . S
C1809 C1810 1.523 . S
C1810 C1791 1.368 . S
C1810 C1804 1.368 . S
C1810 C1809 1.523 . S
C1811 C1795 1.429 . S
C1811 C1807 1.429 . S
C1811 C1812 1.523 . S
C1812 C1796 1.368 . S
C1812 C1808 1.368 . S
C1812 C1811 1.523 . S
H1813 C1788 0.950 . S
H1814 C1790 0.950 . S
H1815 C1791 0.949 . S
H1816 C1793 0.950 . S
H1817 C1795 0.950 . S
C1818 C1819 1.349 . S
C1818 C1820 1.327 . S
C1818 H1843 0.950 . S
C1819 C1818 1.349 . S
C1819 C1835 1.349 . S
C1820 C1818 1.327 . S
C1820 C1839 1.429 . S
C1820 H1844 0.950 . S
C1821 C1838 1.574 . S
C1821 C1840 1.368 . S
C1821 H1845 0.949 . S
H1822 C1826 0.949 . S
C1823 C1824 1.349 . S
C1823 C1825 1.327 . S
C1823 H1846 0.950 . S
C1824 C1823 1.349 . S
C1824 C1836 1.349 . S
C1825 C1823 1.327 . S
C1825 C1841 1.429 . S
C1825 H1847 0.950 . S
C1826 H1822 0.949 . S
C1826 C1834 1.574 . S
C1826 C1842 1.368 . S
H1827 C1835 0.950 . S
H1828 C1833 0.950 . S
H1829 C1834 0.949 . S
H1830 C1836 0.950 . S
H1831 C1837 0.950 . S
H1832 C1838 0.949 . S
C1833 H1828 0.950 . S
C1833 C1835 1.327 . S
C1833 C1839 1.429 . S
C1834 C1826 1.574 . S
C1834 H1829 0.949 . S
C1834 C1840 1.368 . S
C1835 C1819 1.349 . S
C1835 H1827 0.950 . S
C1835 C1833 1.327 . S
C1836 C1824 1.349 . S
C1836 H1830 0.950 . S
C1836 C1837 1.327 . S
C1837 H1831 0.950 . S
C1837 C1836 1.327 . S
C1837 C1841 1.429 . S
C1838 C1821 1.574 . S
C1838 H1832 0.949 . S
C1838 C1842 1.368 . S
C1839 C1820 1.429 . S
C1839 C1833 1.429 . S
C1839 C1840 1.523 . S
C1840 C1821 1.368 . S
C1840 C1834 1.368 . S
C1840 C1839 1.523 . S
C1841 C1825 1.429 . S
C1841 C1837 1.429 . S
C1841 C1842 1.523 . S
C1842 C1826 1.368 . S
C1842 C1838 1.368 . S
C1842 C1841 1.523 . S
H1843 C1818 0.950 . S
H1844 C1820 0.950 . S
H1845 C1821 0.949 . S
H1846 C1823 0.950 . S
H1847 C1825 0.950 . S
C1848 C1849 1.349 . S
C1848 C1850 1.327 . S
C1848 H1873 0.950 . S
C1849 C1848 1.349 . S
C1849 C1865 1.349 . S
C1850 C1848 1.327 . S
C1850 C1869 1.429 . S
C1850 H1874 0.950 . S
C1851 C1868 1.574 . S
C1851 C1870 1.368 . S
C1851 H1875 0.949 . S
H1852 C1856 0.949 . S
C1853 C1854 1.349 . S
C1853 C1855 1.327 . S
C1853 H1876 0.950 . S
C1854 C1853 1.349 . S
C1854 C1866 1.349 . S
C1855 C1853 1.327 . S
C1855 C1871 1.429 . S
C1855 H1877 0.950 . S
C1856 H1852 0.949 . S
C1856 C1864 1.574 . S
C1856 C1872 1.368 . S
H1857 C1865 0.950 . S
H1858 C1863 0.950 . S
H1859 C1864 0.949 . S
H1860 C1866 0.950 . S
H1861 C1867 0.950 . S
H1862 C1868 0.949 . S
C1863 H1858 0.950 . S
C1863 C1865 1.327 . S
C1863 C1869 1.429 . S
C1864 C1856 1.574 . S
C1864 H1859 0.949 . S
C1864 C1870 1.368 . S
C1865 C1849 1.349 . S
C1865 H1857 0.950 . S
C1865 C1863 1.327 . S
C1866 C1854 1.349 . S
C1866 H1860 0.950 . S
C1866 C1867 1.327 . S
C1867 H1861 0.950 . S
C1867 C1866 1.327 . S
C1867 C1871 1.429 . S
C1868 C1851 1.574 . S
C1868 H1862 0.949 . S
C1868 C1872 1.368 . S
C1869 C1850 1.429 . S
C1869 C1863 1.429 . S
C1869 C1870 1.523 . S
C1870 C1851 1.368 . S
C1870 C1864 1.368 . S
C1870 C1869 1.523 . S
C1871 C1855 1.429 . S
C1871 C1867 1.429 . S
C1871 C1872 1.523 . S
C1872 C1856 1.368 . S
C1872 C1868 1.368 . S
C1872 C1871 1.523 . S
H1873 C1848 0.950 . S
H1874 C1850 0.950 . S
H1875 C1851 0.949 . S
H1876 C1853 0.950 . S
H1877 C1855 0.950 . S
C1878 C1879 1.349 . S
C1878 C1880 1.327 . S
C1878 H1903 0.950 . S
C1879 C1878 1.349 . S
C1879 C1895 1.349 . S
C1880 C1878 1.327 . S
C1880 C1899 1.429 . S
C1880 H1904 0.950 . S
C1881 C1898 1.574 . S
C1881 C1900 1.368 . S
C1881 H1905 0.949 . S
H1882 C1886 0.949 . S
C1883 C1884 1.349 . S
C1883 C1885 1.327 . S
C1883 H1906 0.950 . S
C1884 C1883 1.349 . S
C1884 C1896 1.349 . S
C1885 C1883 1.327 . S
C1885 C1901 1.429 . S
C1885 H1907 0.950 . S
C1886 H1882 0.949 . S
C1886 C1894 1.574 . S
C1886 C1902 1.368 . S
H1887 C1895 0.950 . S
H1888 C1893 0.950 . S
H1889 C1894 0.949 . S
H1890 C1896 0.950 . S
H1891 C1897 0.950 . S
H1892 C1898 0.949 . S
C1893 H1888 0.950 . S
C1893 C1895 1.327 . S
C1893 C1899 1.429 . S
C1894 C1886 1.574 . S
C1894 H1889 0.949 . S
C1894 C1900 1.368 . S
C1895 C1879 1.349 . S
C1895 H1887 0.950 . S
C1895 C1893 1.327 . S
C1896 C1884 1.349 . S
C1896 H1890 0.950 . S
C1896 C1897 1.327 . S
C1897 H1891 0.950 . S
C1897 C1896 1.327 . S
C1897 C1901 1.429 . S
C1898 C1881 1.574 . S
C1898 H1892 0.949 . S
C1898 C1902 1.368 . S
C1899 C1880 1.429 . S
C1899 C1893 1.429 . S
C1899 C1900 1.523 . S
C1900 C1881 1.368 . S
C1900 C1894 1.368 . S
C1900 C1899 1.523 . S
C1901 C1885 1.429 . S
C1901 C1897 1.429 . S
C1901 C1902 1.523 . S
C1902 C1886 1.368 . S
C1902 C1898 1.368 . S
C1902 C1901 1.523 . S
H1903 C1878 0.950 . S
H1904 C1880 0.950 . S
H1905 C1881 0.949 . S
H1906 C1883 0.950 . S
H1907 C1885 0.950 . S
C1908 C1909 1.349 . S
C1908 C1910 1.327 . S
C1908 H1933 0.950 . S
C1909 C1908 1.349 . S
C1909 C1925 1.349 . S
C1910 C1908 1.327 . S
C1910 C1929 1.429 . S
C1910 H1934 0.950 . S
C1911 C1928 1.574 . S
C1911 C1930 1.368 . S
C1911 H1935 0.949 . S
H1912 C1916 0.949 . S
C1913 C1914 1.349 . S
C1913 C1915 1.327 . S
C1913 H1936 0.950 . S
C1914 C1913 1.349 . S
C1914 C1926 1.349 . S
C1915 C1913 1.327 . S
C1915 C1931 1.429 . S
C1915 H1937 0.950 . S
C1916 H1912 0.949 . S
C1916 C1924 1.574 . S
C1916 C1932 1.368 . S
H1917 C1925 0.950 . S
H1918 C1923 0.950 . S
H1919 C1924 0.949 . S
H1920 C1926 0.950 . S
H1921 C1927 0.950 . S
H1922 C1928 0.949 . S
C1923 H1918 0.950 . S
C1923 C1925 1.327 . S
C1923 C1929 1.429 . S
C1924 C1916 1.574 . S
C1924 H1919 0.949 . S
C1924 C1930 1.368 . S
C1925 C1909 1.349 . S
C1925 H1917 0.950 . S
C1925 C1923 1.327 . S
C1926 C1914 1.349 . S
C1926 H1920 0.950 . S
C1926 C1927 1.327 . S
C1927 H1921 0.950 . S
C1927 C1926 1.327 . S
C1927 C1931 1.429 . S
C1928 C1911 1.574 . S
C1928 H1922 0.949 . S
C1928 C1932 1.368 . S
C1929 C1910 1.429 . S
C1929 C1923 1.429 . S
C1929 C1930 1.523 . S
C1930 C1911 1.368 . S
C1930 C1924 1.368 . S
C1930 C1929 1.523 . S
C1931 C1915 1.429 . S
C1931 C1927 1.429 . S
C1931 C1932 1.523 . S
C1932 C1916 1.368 . S
C1932 C1928 1.368 . S
C1932 C1931 1.523 . S
H1933 C1908 0.950 . S
H1934 C1910 0.950 . S
H1935 C1911 0.949 . S
H1936 C1913 0.950 . S
H1937 C1915 0.950 . S
C1938 C1939 1.349 . S
C1938 C1940 1.327 . S
C1938 H1963 0.950 . S
C1939 C1938 1.349 . S
C1939 C1955 1.349 . S
C1940 C1938 1.327 . S
C1940 C1959 1.429 . S
C1940 H1964 0.950 . S
C1941 C1958 1.574 . S
C1941 C1960 1.368 . S
C1941 H1965 0.949 . S
H1942 C1946 0.949 . S
C1943 C1944 1.349 . S
C1943 C1945 1.327 . S
C1943 H1966 0.950 . S
C1944 C1943 1.349 . S
C1944 C1956 1.349 . S
C1945 C1943 1.327 . S
C1945 C1961 1.429 . S
C1945 H1967 0.950 . S
C1946 H1942 0.949 . S
C1946 C1954 1.574 . S
C1946 C1962 1.368 . S
H1947 C1955 0.950 . S
H1948 C1953 0.950 . S
H1949 C1954 0.949 . S
H1950 C1956 0.950 . S
H1951 C1957 0.950 . S
H1952 C1958 0.949 . S
C1953 H1948 0.950 . S
C1953 C1955 1.327 . S
C1953 C1959 1.429 . S
C1954 C1946 1.574 . S
C1954 H1949 0.949 . S
C1954 C1960 1.368 . S
C1955 C1939 1.349 . S
C1955 H1947 0.950 . S
C1955 C1953 1.327 . S
C1956 C1944 1.349 . S
C1956 H1950 0.950 . S
C1956 C1957 1.327 . S
C1957 H1951 0.950 . S
C1957 C1956 1.327 . S
C1957 C1961 1.429 . S
C1958 C1941 1.574 . S
C1958 H1952 0.949 . S
C1958 C1962 1.368 . S
C1959 C1940 1.429 . S
C1959 C1953 1.429 . S
C1959 C1960 1.523 . S
C1960 C1941 1.368 . S
C1960 C1954 1.368 . S
C1960 C1959 1.523 . S
C1961 C1945 1.429 . S
C1961 C1957 1.429 . S
C1961 C1962 1.523 . S
C1962 C1946 1.368 . S
C1962 C1958 1.368 . S
C1962 C1961 1.523 . S
H1963 C1938 0.950 . S
H1964 C1940 0.950 . S
H1965 C1941 0.949 . S
H1966 C1943 0.950 . S
H1967 C1945 0.950 . S
C1968 C1969 1.349 . S
C1968 C1970 1.327 . S
C1968 H1993 0.950 . S
C1969 C1968 1.349 . S
C1969 C1985 1.349 . S
C1970 C1968 1.327 . S
C1970 C1989 1.429 . S
C1970 H1994 0.950 . S
C1971 C1988 1.574 . S
C1971 C1990 1.368 . S
C1971 H1995 0.949 . S
H1972 C1976 0.949 . S
C1973 C1974 1.349 . S
C1973 C1975 1.327 . S
C1973 H1996 0.950 . S
C1974 C1973 1.349 . S
C1974 C1986 1.349 . S
C1975 C1973 1.327 . S
C1975 C1991 1.429 . S
C1975 H1997 0.950 . S
C1976 H1972 0.949 . S
C1976 C1984 1.574 . S
C1976 C1992 1.368 . S
H1977 C1985 0.950 . S
H1978 C1983 0.950 . S
H1979 C1984 0.949 . S
H1980 C1986 0.950 . S
H1981 C1987 0.950 . S
H1982 C1988 0.949 . S
C1983 H1978 0.950 . S
C1983 C1985 1.327 . S
C1983 C1989 1.429 . S
C1984 C1976 1.574 . S
C1984 H1979 0.949 . S
C1984 C1990 1.368 . S
C1985 C1969 1.349 . S
C1985 H1977 0.950 . S
C1985 C1983 1.327 . S
C1986 C1974 1.349 . S
C1986 H1980 0.950 . S
C1986 C1987 1.327 . S
C1987 H1981 0.950 . S
C1987 C1986 1.327 . S
C1987 C1991 1.429 . S
C1988 C1971 1.574 . S
C1988 H1982 0.949 . S
C1988 C1992 1.368 . S
C1989 C1970 1.429 . S
C1989 C1983 1.429 . S
C1989 C1990 1.523 . S
C1990 C1971 1.368 . S
C1990 C1984 1.368 . S
C1990 C1989 1.523 . S
C1991 C1975 1.429 . S
C1991 C1987 1.429 . S
C1991 C1992 1.523 . S
C1992 C1976 1.368 . S
C1992 C1988 1.368 . S
C1992 C1991 1.523 . S
H1993 C1968 0.950 . S
H1994 C1970 0.950 . S
H1995 C1971 0.949 . S
H1996 C1973 0.950 . S
H1997 C1975 0.950 . S
C1998 C1999 1.349 . S
C1998 C2000 1.327 . S
C1998 H2023 0.950 . S
C1999 C1998 1.349 . S
C1999 C2015 1.349 . S
C2000 C1998 1.327 . S
C2000 C2019 1.429 . S
C2000 H2024 0.950 . S
C2001 C2018 1.574 . S
C2001 C2020 1.368 . S
C2001 H2025 0.949 . S
H2002 C2006 0.949 . S
C2003 C2004 1.349 . S
C2003 C2005 1.327 . S
C2003 H2026 0.950 . S
C2004 C2003 1.349 . S
C2004 C2016 1.349 . S
C2005 C2003 1.327 . S
C2005 C2021 1.429 . S
C2005 H2027 0.950 . S
C2006 H2002 0.949 . S
C2006 C2014 1.574 . S
C2006 C2022 1.368 . S
H2007 C2015 0.950 . S
H2008 C2013 0.950 . S
H2009 C2014 0.949 . S
H2010 C2016 0.950 . S
H2011 C2017 0.950 . S
H2012 C2018 0.949 . S
C2013 H2008 0.950 . S
C2013 C2015 1.327 . S
C2013 C2019 1.429 . S
C2014 C2006 1.574 . S
C2014 H2009 0.949 . S
C2014 C2020 1.368 . S
C2015 C1999 1.349 . S
C2015 H2007 0.950 . S
C2015 C2013 1.327 . S
C2016 C2004 1.349 . S
C2016 H2010 0.950 . S
C2016 C2017 1.327 . S
C2017 H2011 0.950 . S
C2017 C2016 1.327 . S
C2017 C2021 1.429 . S
C2018 C2001 1.574 . S
C2018 H2012 0.949 . S
C2018 C2022 1.368 . S
C2019 C2000 1.429 . S
C2019 C2013 1.429 . S
C2019 C2020 1.523 . S
C2020 C2001 1.368 . S
C2020 C2014 1.368 . S
C2020 C2019 1.523 . S
C2021 C2005 1.429 . S
C2021 C2017 1.429 . S
C2021 C2022 1.523 . S
C2022 C2006 1.368 . S
C2022 C2018 1.368 . S
C2022 C2021 1.523 . S
H2023 C1998 0.950 . S
H2024 C2000 0.950 . S
H2025 C2001 0.949 . S
H2026 C2003 0.950 . S
H2027 C2005 0.950 . S
C2028 C2029 1.349 . S
C2028 C2030 1.327 . S
C2028 H2053 0.950 . S
C2029 C2028 1.349 . S
C2029 C2045 1.349 . S
C2030 C2028 1.327 . S
C2030 C2049 1.429 . S
C2030 H2054 0.950 . S
C2031 C2048 1.574 . S
C2031 C2050 1.368 . S
C2031 H2055 0.949 . S
H2032 C2036 0.949 . S
C2033 C2034 1.349 . S
C2033 C2035 1.327 . S
C2033 H2056 0.950 . S
C2034 C2033 1.349 . S
C2034 C2046 1.349 . S
C2035 C2033 1.327 . S
C2035 C2051 1.429 . S
C2035 H2057 0.950 . S
C2036 H2032 0.949 . S
C2036 C2044 1.574 . S
C2036 C2052 1.368 . S
H2037 C2045 0.950 . S
H2038 C2043 0.950 . S
H2039 C2044 0.949 . S
H2040 C2046 0.950 . S
H2041 C2047 0.950 . S
H2042 C2048 0.949 . S
C2043 H2038 0.950 . S
C2043 C2045 1.327 . S
C2043 C2049 1.429 . S
C2044 C2036 1.574 . S
C2044 H2039 0.949 . S
C2044 C2050 1.368 . S
C2045 C2029 1.349 . S
C2045 H2037 0.950 . S
C2045 C2043 1.327 . S
C2046 C2034 1.349 . S
C2046 H2040 0.950 . S
C2046 C2047 1.327 . S
C2047 H2041 0.950 . S
C2047 C2046 1.327 . S
C2047 C2051 1.429 . S
C2048 C2031 1.574 . S
C2048 H2042 0.949 . S
C2048 C2052 1.368 . S
C2049 C2030 1.429 . S
C2049 C2043 1.429 . S
C2049 C2050 1.523 . S
C2050 C2031 1.368 . S
C2050 C2044 1.368 . S
C2050 C2049 1.523 . S
C2051 C2035 1.429 . S
C2051 C2047 1.429 . S
C2051 C2052 1.523 . S
C2052 C2036 1.368 . S
C2052 C2048 1.368 . S
C2052 C2051 1.523 . S
H2053 C2028 0.950 . S
H2054 C2030 0.950 . S
H2055 C2031 0.949 . S
H2056 C2033 0.950 . S
H2057 C2035 0.950 . S
C2058 C2059 1.349 . S
C2058 C2060 1.327 . S
C2058 H2083 0.950 . S
C2059 C2058 1.349 . S
C2059 C2075 1.349 . S
C2060 C2058 1.327 . S
C2060 C2079 1.429 . S
C2060 H2084 0.950 . S
C2061 C2078 1.574 . S
C2061 C2080 1.368 . S
C2061 H2085 0.949 . S
H2062 C2066 0.949 . S
C2063 C2064 1.349 . S
C2063 C2065 1.327 . S
C2063 H2086 0.950 . S
C2064 C2063 1.349 . S
C2064 C2076 1.349 . S
C2065 C2063 1.327 . S
C2065 C2081 1.429 . S
C2065 H2087 0.950 . S
C2066 H2062 0.949 . S
C2066 C2074 1.574 . S
C2066 C2082 1.368 . S
H2067 C2075 0.950 . S
H2068 C2073 0.950 . S
H2069 C2074 0.949 . S
H2070 C2076 0.950 . S
H2071 C2077 0.950 . S
H2072 C2078 0.949 . S
C2073 H2068 0.950 . S
C2073 C2075 1.327 . S
C2073 C2079 1.429 . S
C2074 C2066 1.574 . S
C2074 H2069 0.949 . S
C2074 C2080 1.368 . S
C2075 C2059 1.349 . S
C2075 H2067 0.950 . S
C2075 C2073 1.327 . S
C2076 C2064 1.349 . S
C2076 H2070 0.950 . S
C2076 C2077 1.327 . S
C2077 H2071 0.950 . S
C2077 C2076 1.327 . S
C2077 C2081 1.429 . S
C2078 C2061 1.574 . S
C2078 H2072 0.949 . S
C2078 C2082 1.368 . S
C2079 C2060 1.429 . S
C2079 C2073 1.429 . S
C2079 C2080 1.523 . S
C2080 C2061 1.368 . S
C2080 C2074 1.368 . S
C2080 C2079 1.523 . S
C2081 C2065 1.429 . S
C2081 C2077 1.429 . S
C2081 C2082 1.523 . S
C2082 C2066 1.368 . S
C2082 C2078 1.368 . S
C2082 C2081 1.523 . S
H2083 C2058 0.950 . S
H2084 C2060 0.950 . S
H2085 C2061 0.949 . S
H2086 C2063 0.950 . S
H2087 C2065 0.950 . S
C2088 C2089 1.349 . S
C2088 C2090 1.327 . S
C2088 H2113 0.950 . S
C2089 C2088 1.349 . S
C2089 C2105 1.349 . S
C2090 C2088 1.327 . S
C2090 C2109 1.429 . S
C2090 H2114 0.950 . S
C2091 C2108 1.574 . S
C2091 C2110 1.368 . S
C2091 H2115 0.949 . S
H2092 C2096 0.949 . S
C2093 C2094 1.349 . S
C2093 C2095 1.327 . S
C2093 H2116 0.950 . S
C2094 C2093 1.349 . S
C2094 C2106 1.349 . S
C2095 C2093 1.327 . S
C2095 C2111 1.429 . S
C2095 H2117 0.950 . S
C2096 H2092 0.949 . S
C2096 C2104 1.574 . S
C2096 C2112 1.368 . S
H2097 C2105 0.950 . S
H2098 C2103 0.950 . S
H2099 C2104 0.949 . S
H2100 C2106 0.950 . S
H2101 C2107 0.950 . S
H2102 C2108 0.949 . S
C2103 H2098 0.950 . S
C2103 C2105 1.327 . S
C2103 C2109 1.429 . S
C2104 C2096 1.574 . S
C2104 H2099 0.949 . S
C2104 C2110 1.368 . S
C2105 C2089 1.349 . S
C2105 H2097 0.950 . S
C2105 C2103 1.327 . S
C2106 C2094 1.349 . S
C2106 H2100 0.950 . S
C2106 C2107 1.327 . S
C2107 H2101 0.950 . S
C2107 C2106 1.327 . S
C2107 C2111 1.429 . S
C2108 C2091 1.574 . S
C2108 H2102 0.949 . S
C2108 C2112 1.368 . S
C2109 C2090 1.429 . S
C2109 C2103 1.429 . S
C2109 C2110 1.523 . S
C2110 C2091 1.368 . S
C2110 C2104 1.368 . S
C2110 C2109 1.523 . S
C2111 C2095 1.429 . S
C2111 C2107 1.429 . S
C2111 C2112 1.523 . S
C2112 C2096 1.368 . S
C2112 C2108 1.368 . S
C2112 C2111 1.523 . S
H2113 C2088 0.950 . S
H2114 C2090 0.950 . S
H2115 C2091 0.949 . S
H2116 C2093 0.950 . S
H2117 C2095 0.950 . S
C2118 C2119 1.349 . S
C2118 C2120 1.327 . S
C2118 H2143 0.950 . S
C2119 C2118 1.349 . S
C2119 C2135 1.349 . S
C2120 C2118 1.327 . S
C2120 C2139 1.429 . S
C2120 H2144 0.950 . S
C2121 C2138 1.574 . S
C2121 C2140 1.368 . S
C2121 H2145 0.949 . S
H2122 C2126 0.949 . S
C2123 C2124 1.349 . S
C2123 C2125 1.327 . S
C2123 H2146 0.950 . S
C2124 C2123 1.349 . S
C2124 C2136 1.349 . S
C2125 C2123 1.327 . S
C2125 C2141 1.429 . S
C2125 H2147 0.950 . S
C2126 H2122 0.949 . S
C2126 C2134 1.574 . S
C2126 C2142 1.368 . S
H2127 C2135 0.950 . S
H2128 C2133 0.950 . S
H2129 C2134 0.949 . S
H2130 C2136 0.950 . S
H2131 C2137 0.950 . S
H2132 C2138 0.949 . S
C2133 H2128 0.950 . S
C2133 C2135 1.327 . S
C2133 C2139 1.429 . S
C2134 C2126 1.574 . S
C2134 H2129 0.949 . S
C2134 C2140 1.368 . S
C2135 C2119 1.349 . S
C2135 H2127 0.950 . S
C2135 C2133 1.327 . S
C2136 C2124 1.349 . S
C2136 H2130 0.950 . S
C2136 C2137 1.327 . S
C2137 H2131 0.950 . S
C2137 C2136 1.327 . S
C2137 C2141 1.429 . S
C2138 C2121 1.574 . S
C2138 H2132 0.949 . S
C2138 C2142 1.368 . S
C2139 C2120 1.429 . S
C2139 C2133 1.429 . S
C2139 C2140 1.523 . S
C2140 C2121 1.368 . S
C2140 C2134 1.368 . S
C2140 C2139 1.523 . S
C2141 C2125 1.429 . S
C2141 C2137 1.429 . S
C2141 C2142 1.523 . S
C2142 C2126 1.368 . S
C2142 C2138 1.368 . S
C2142 C2141 1.523 . S
H2143 C2118 0.950 . S
H2144 C2120 0.950 . S
H2145 C2121 0.949 . S
H2146 C2123 0.950 . S
H2147 C2125 0.950 . S
C2148 C2149 1.349 . S
C2148 C2150 1.327 . S
C2148 H2173 0.950 . S
C2149 C2148 1.349 . S
C2149 C2165 1.349 . S
C2150 C2148 1.327 . S
C2150 C2169 1.429 . S
C2150 H2174 0.950 . S
C2151 C2168 1.574 . S
C2151 C2170 1.368 . S
C2151 H2175 0.949 . S
H2152 C2156 0.949 . S
C2153 C2154 1.349 . S
C2153 C2155 1.327 . S
C2153 H2176 0.950 . S
C2154 C2153 1.349 . S
C2154 C2166 1.349 . S
C2155 C2153 1.327 . S
C2155 C2171 1.429 . S
C2155 H2177 0.950 . S
C2156 H2152 0.949 . S
C2156 C2164 1.574 . S
C2156 C2172 1.368 . S
H2157 C2165 0.950 . S
H2158 C2163 0.950 . S
H2159 C2164 0.949 . S
H2160 C2166 0.950 . S
H2161 C2167 0.950 . S
H2162 C2168 0.949 . S
C2163 H2158 0.950 . S
C2163 C2165 1.327 . S
C2163 C2169 1.429 . S
C2164 C2156 1.574 . S
C2164 H2159 0.949 . S
C2164 C2170 1.368 . S
C2165 C2149 1.349 . S
C2165 H2157 0.950 . S
C2165 C2163 1.327 . S
C2166 C2154 1.349 . S
C2166 H2160 0.950 . S
C2166 C2167 1.327 . S
C2167 H2161 0.950 . S
C2167 C2166 1.327 . S
C2167 C2171 1.429 . S
C2168 C2151 1.574 . S
C2168 H2162 0.949 . S
C2168 C2172 1.368 . S
C2169 C2150 1.429 . S
C2169 C2163 1.429 . S
C2169 C2170 1.523 . S
C2170 C2151 1.368 . S
C2170 C2164 1.368 . S
C2170 C2169 1.523 . S
C2171 C2155 1.429 . S
C2171 C2167 1.429 . S
C2171 C2172 1.523 . S
C2172 C2156 1.368 . S
C2172 C2168 1.368 . S
C2172 C2171 1.523 . S
H2173 C2148 0.950 . S
H2174 C2150 0.950 . S
H2175 C2151 0.949 . S
H2176 C2153 0.950 . S
H2177 C2155 0.950 . S
C2178 C2179 1.349 . S
C2178 C2180 1.327 . S
C2178 H2203 0.950 . S
C2179 C2178 1.349 . S
C2179 C2195 1.349 . S
C2180 C2178 1.327 . S
C2180 C2199 1.429 . S
C2180 H2204 0.950 . S
C2181 C2198 1.574 . S
C2181 C2200 1.368 . S
C2181 H2205 0.949 . S
H2182 C2186 0.949 . S
C2183 C2184 1.349 . S
C2183 C2185 1.327 . S
C2183 H2206 0.950 . S
C2184 C2183 1.349 . S
C2184 C2196 1.349 . S
C2185 C2183 1.327 . S
C2185 C2201 1.429 . S
C2185 H2207 0.950 . S
C2186 H2182 0.949 . S
C2186 C2194 1.574 . S
C2186 C2202 1.368 . S
H2187 C2195 0.950 . S
H2188 C2193 0.950 . S
H2189 C2194 0.949 . S
H2190 C2196 0.950 . S
H2191 C2197 0.950 . S
H2192 C2198 0.949 . S
C2193 H2188 0.950 . S
C2193 C2195 1.327 . S
C2193 C2199 1.429 . S
C2194 C2186 1.574 . S
C2194 H2189 0.949 . S
C2194 C2200 1.368 . S
C2195 C2179 1.349 . S
C2195 H2187 0.950 . S
C2195 C2193 1.327 . S
C2196 C2184 1.349 . S
C2196 H2190 0.950 . S
C2196 C2197 1.327 . S
C2197 H2191 0.950 . S
C2197 C2196 1.327 . S
C2197 C2201 1.429 . S
C2198 C2181 1.574 . S
C2198 H2192 0.949 . S
C2198 C2202 1.368 . S
C2199 C2180 1.429 . S
C2199 C2193 1.429 . S
C2199 C2200 1.523 . S
C2200 C2181 1.368 . S
C2200 C2194 1.368 . S
C2200 C2199 1.523 . S
C2201 C2185 1.429 . S
C2201 C2197 1.429 . S
C2201 C2202 1.523 . S
C2202 C2186 1.368 . S
C2202 C2198 1.368 . S
C2202 C2201 1.523 . S
H2203 C2178 0.950 . S
H2204 C2180 0.950 . S
H2205 C2181 0.949 . S
H2206 C2183 0.950 . S
H2207 C2185 0.950 . S
C2208 C2209 1.349 . S
C2208 C2210 1.327 . S
C2208 H2233 0.950 . S
C2209 C2208 1.349 . S
C2209 C2225 1.349 . S
C2210 C2208 1.327 . S
C2210 C2229 1.429 . S
C2210 H2234 0.950 . S
C2211 C2228 1.574 . S
C2211 C2230 1.368 . S
C2211 H2235 0.949 . S
H2212 C2216 0.949 . S
C2213 C2214 1.349 . S
C2213 C2215 1.327 . S
C2213 H2236 0.950 . S
C2214 C2213 1.349 . S
C2214 C2226 1.349 . S
C2215 C2213 1.327 . S
C2215 C2231 1.429 . S
C2215 H2237 0.950 . S
C2216 H2212 0.949 . S
C2216 C2224 1.574 . S
C2216 C2232 1.368 . S
H2217 C2225 0.950 . S
H2218 C2223 0.950 . S
H2219 C2224 0.949 . S
H2220 C2226 0.950 . S
H2221 C2227 0.950 . S
H2222 C2228 0.949 . S
C2223 H2218 0.950 . S
C2223 C2225 1.327 . S
C2223 C2229 1.429 . S
C2224 C2216 1.574 . S
C2224 H2219 0.949 . S
C2224 C2230 1.368 . S
C2225 C2209 1.349 . S
C2225 H2217 0.950 . S
C2225 C2223 1.327 . S
C2226 C2214 1.349 . S
C2226 H2220 0.950 . S
C2226 C2227 1.327 . S
C2227 H2221 0.950 . S
C2227 C2226 1.327 . S
C2227 C2231 1.429 . S
C2228 C2211 1.574 . S
C2228 H2222 0.949 . S
C2228 C2232 1.368 . S
C2229 C2210 1.429 . S
C2229 C2223 1.429 . S
C2229 C2230 1.523 . S
C2230 C2211 1.368 . S
C2230 C2224 1.368 . S
C2230 C2229 1.523 . S
C2231 C2215 1.429 . S
C2231 C2227 1.429 . S
C2231 C2232 1.523 . S
C2232 C2216 1.368 . S
C2232 C2228 1.368 . S
C2232 C2231 1.523 . S
H2233 C2208 0.950 . S
H2234 C2210 0.950 . S
H2235 C2211 0.949 . S
H2236 C2213 0.950 . S
H2237 C2215 0.950 . S
C2238 C2239 1.349 . S
C2238 C2240 1.327 . S
C2238 H2263 0.950 . S
C2239 C2238 1.349 . S
C2239 C2255 1.349 . S
C2240 C2238 1.327 . S
C2240 C2259 1.429 . S
C2240 H2264 0.950 . S
C2241 C2258 1.574 . S
C2241 C2260 1.368 . S
C2241 H2265 0.949 . S
H2242 C2246 0.949 . S
C2243 C2244 1.349 . S
C2243 C2245 1.327 . S
C2243 H2266 0.950 . S
C2244 C2243 1.349 . S
C2244 C2256 1.349 . S
C2245 C2243 1.327 . S
C2245 C2261 1.429 . S
C2245 H2267 0.950 . S
C2246 H2242 0.949 . S
C2246 C2254 1.574 . S
C2246 C2262 1.368 . S
H2247 C2255 0.950 . S
H2248 C2253 0.950 . S
H2249 C2254 0.949 . S
H2250 C2256 0.950 . S
H2251 C2257 0.950 . S
H2252 C2258 0.949 . S
C2253 H2248 0.950 . S
C2253 C2255 1.327 . S
C2253 C2259 1.429 . S
C2254 C2246 1.574 . S
C2254 H2249 0.949 . S
C2254 C2260 1.368 . S
C2255 C2239 1.349 . S
C2255 H2247 0.950 . S
C2255 C2253 1.327 . S
C2256 C2244 1.349 . S
C2256 H2250 0.950 . S
C2256 C2257 1.327 . S
C2257 H2251 0.950 . S
C2257 C2256 1.327 . S
C2257 C2261 1.429 . S
C2258 C2241 1.574 . S
C2258 H2252 0.949 . S
C2258 C2262 1.368 . S
C2259 C2240 1.429 . S
C2259 C2253 1.429 . S
C2259 C2260 1.523 . S
C2260 C2241 1.368 . S
C2260 C2254 1.368 . S
C2260 C2259 1.523 . S
C2261 C2245 1.429 . S
C2261 C2257 1.429 . S
C2261 C2262 1.523 . S
C2262 C2246 1.368 . S
C2262 C2258 1.368 . S
C2262 C2261 1.523 . S
H2263 C2238 0.950 . S
H2264 C2240 0.950 . S
H2265 C2241 0.949 . S
H2266 C2243 0.950 . S
H2267 C2245 0.950 . S
C2268 C2269 1.349 . S
C2268 C2270 1.327 . S
C2268 H2293 0.950 . S
C2269 C2268 1.349 . S
C2269 C2285 1.349 . S
C2270 C2268 1.327 . S
C2270 C2289 1.429 . S
C2270 H2294 0.950 . S
C2271 C2288 1.574 . S
C2271 C2290 1.368 . S
C2271 H2295 0.949 . S
H2272 C2276 0.949 . S
C2273 C2274 1.349 . S
C2273 C2275 1.327 . S
C2273 H2296 0.950 . S
C2274 C2273 1.349 . S
C2274 C2286 1.349 . S
C2275 C2273 1.327 . S
C2275 C2291 1.429 . S
C2275 H2297 0.950 . S
C2276 H2272 0.949 . S
C2276 C2284 1.574 . S
C2276 C2292 1.368 . S
H2277 C2285 0.971 . S
H2278 C2283 0.950 . S
H2279 C2284 0.949 . S
H2280 C2286 0.950 . S
H2281 C2287 0.950 . S
H2282 C2288 0.949 . S
C2283 H2278 0.950 . S
C2283 C2285 1.327 . S
C2283 C2289 1.429 . S
C2284 C2276 1.574 . S
C2284 H2279 0.949 . S
C2284 C2290 1.368 . S
C2285 C2269 1.349 . S
C2285 H2277 0.971 . S
C2285 C2283 1.327 . S
C2286 C2274 1.349 . S
C2286 H2280 0.950 . S
C2286 C2287 1.327 . S
C2287 H2281 0.950 . S
C2287 C2286 1.327 . S
C2287 C2291 1.429 . S
C2288 C2271 1.574 . S
C2288 H2282 0.949 . S
C2288 C2292 1.368 . S
C2289 C2270 1.429 . S
C2289 C2283 1.429 . S
C2289 C2290 1.523 . S
C2290 C2271 1.368 . S
C2290 C2284 1.368 . S
C2290 C2289 1.523 . S
C2291 C2275 1.429 . S
C2291 C2287 1.429 . S
C2291 C2292 1.523 . S
C2292 C2276 1.368 . S
C2292 C2288 1.368 . S
C2292 C2291 1.523 . S
H2293 C2268 0.950 . S
H2294 C2270 0.950 . S
H2295 C2271 0.949 . S
H2296 C2273 0.950 . S
H2297 C2275 0.950 . S
C2298 C2299 1.349 . S
C2298 C2300 1.327 . S
C2298 H2323 0.950 . S
C2299 C2298 1.349 . S
C2299 C2315 1.372 . S
C2300 C2298 1.327 . S
C2300 C2319 1.429 . S
C2300 H2324 0.950 . S
C2301 C2318 1.574 . S
C2301 C2320 1.368 . S
C2301 H2325 0.949 . S
H2302 C2306 0.949 . S
C2303 C2304 1.349 . S
C2303 C2305 1.327 . S
C2303 H2326 0.950 . S
C2304 C2303 1.349 . S
C2304 C2316 1.349 . S
C2305 C2303 1.327 . S
C2305 C2321 1.429 . S
C2305 H2327 0.950 . S
C2306 H2302 0.949 . S
C2306 C2314 1.574 . S
C2306 C2322 1.368 . S
H2307 C2315 0.905 1_554 S
H2308 C2313 0.950 . S
H2309 C2314 0.949 . S
H2310 C2316 0.950 . S
H2311 C2317 0.950 . S
H2312 C2318 0.949 . S
C2313 H2308 0.950 . S
C2313 C2315 1.351 . S
C2313 C2319 1.429 . S
C2314 C2306 1.574 . S
C2314 H2309 0.949 . S
C2314 C2320 1.368 . S
C2315 C2299 1.372 . S
C2315 H2307 0.905 1_556 S
C2315 C2313 1.351 . S
C2316 C2304 1.349 . S
C2316 H2310 0.950 . S
C2316 C2317 1.327 . S
C2317 H2311 0.950 . S
C2317 C2316 1.327 . S
C2317 C2321 1.429 . S
C2318 C2301 1.574 . S
C2318 H2312 0.949 . S
C2318 C2322 1.368 . S
C2319 C2300 1.429 . S
C2319 C2313 1.429 . S
C2319 C2320 1.523 . S
C2320 C2301 1.368 . S
C2320 C2314 1.368 . S
C2320 C2319 1.523 . S
C2321 C2305 1.429 . S
C2321 C2317 1.429 . S
C2321 C2322 1.523 . S
C2322 C2306 1.368 . S
C2322 C2318 1.368 . S
C2322 C2321 1.523 . S
H2323 C2298 0.950 . S
H2324 C2300 0.950 . S
H2325 C2301 0.949 . S
H2326 C2303 0.950 . S
H2327 C2305 0.950 . S
C2328 C2329 1.353 . S
C2328 C2330 1.330 . S
C2328 H2353 0.943 1_556 S
C2329 C2328 1.353 . S
C2329 C2345 1.349 . S
C2330 C2328 1.330 . S
C2330 C2349 1.429 . S
C2330 H2354 0.950 . S
C2331 C2348 1.574 . S
C2331 C2350 1.368 . S
C2331 H2355 0.949 . S
H2332 C2336 0.949 . S
C2333 C2334 1.349 . S
C2333 C2335 1.327 . S
C2333 H2356 0.950 . S
C2334 C2333 1.349 . S
C2334 C2346 1.349 . S
C2335 C2333 1.327 . S
C2335 C2351 1.429 . S
C2335 H2357 0.950 . S
C2336 H2332 0.949 . S
C2336 C2344 1.574 . S
C2336 C2352 1.368 . S
H2337 C2345 0.950 . S
H2338 C2343 0.950 . S
H2339 C2344 0.949 . S
H2340 C2346 0.950 . S
H2341 C2347 0.950 . S
H2342 C2348 0.949 . S
C2343 H2338 0.950 . S
C2343 C2345 1.327 . S
C2343 C2349 1.429 . S
C2344 C2336 1.574 . S
C2344 H2339 0.949 . S
C2344 C2350 1.368 . S
C2345 C2329 1.349 . S
C2345 H2337 0.950 . S
C2345 C2343 1.327 . S
C2346 C2334 1.349 . S
C2346 H2340 0.950 . S
C2346 C2347 1.327 . S
C2347 H2341 0.950 . S
C2347 C2346 1.327 . S
C2347 C2351 1.429 . S
C2348 C2331 1.574 . S
C2348 H2342 0.949 . S
C2348 C2352 1.368 . S
C2349 C2330 1.429 . S
C2349 C2343 1.429 . S
C2349 C2350 1.523 . S
C2350 C2331 1.368 . S
C2350 C2344 1.368 . S
C2350 C2349 1.523 . S
C2351 C2335 1.429 . S
C2351 C2347 1.429 . S
C2351 C2352 1.523 . S
C2352 C2336 1.368 . S
C2352 C2348 1.368 . S
C2352 C2351 1.523 . S
H2353 C2328 0.943 1_554 S
H2354 C2330 0.950 . S
H2355 C2331 0.949 . S
H2356 C2333 0.950 . S
H2357 C2335 0.950 . S
C2358 C2359 1.349 . S
C2358 C2360 1.327 . S
C2358 H2383 0.950 . S
C2359 C2358 1.349 . S
C2359 C2375 1.349 . S
C2360 C2358 1.327 . S
C2360 C2379 1.429 . S
C2360 H2384 0.950 . S
C2361 C2378 1.574 . S
C2361 C2380 1.368 . S
C2361 H2385 0.949 . S
H2362 C2366 0.949 . S
C2363 C2364 1.349 . S
C2363 C2365 1.327 . S
C2363 H2386 0.950 . S
C2364 C2363 1.349 . S
C2364 C2376 1.349 . S
C2365 C2363 1.327 . S
C2365 C2381 1.429 . S
C2365 H2387 0.950 . S
C2366 H2362 0.949 . S
C2366 C2374 1.574 . S
C2366 C2382 1.368 . S
H2367 C2375 0.950 . S
H2368 C2373 0.950 . S
H2369 C2374 0.949 . S
H2370 C2376 0.950 . S
H2371 C2377 0.950 . S
H2372 C2378 0.949 . S
C2373 H2368 0.950 . S
C2373 C2375 1.327 . S
C2373 C2379 1.429 . S
C2374 C2366 1.574 . S
C2374 H2369 0.949 . S
C2374 C2380 1.368 . S
C2375 C2359 1.349 . S
C2375 H2367 0.950 . S
C2375 C2373 1.327 . S
C2376 C2364 1.349 . S
C2376 H2370 0.950 . S
C2376 C2377 1.327 . S
C2377 H2371 0.950 . S
C2377 C2376 1.327 . S
C2377 C2381 1.429 . S
C2378 C2361 1.574 . S
C2378 H2372 0.949 . S
C2378 C2382 1.368 . S
C2379 C2360 1.429 . S
C2379 C2373 1.429 . S
C2379 C2380 1.523 . S
C2380 C2361 1.368 . S
C2380 C2374 1.368 . S
C2380 C2379 1.523 . S
C2381 C2365 1.429 . S
C2381 C2377 1.429 . S
C2381 C2382 1.523 . S
C2382 C2366 1.368 . S
C2382 C2378 1.368 . S
C2382 C2381 1.523 . S
H2383 C2358 0.950 . S
H2384 C2360 0.950 . S
H2385 C2361 0.949 . S
H2386 C2363 0.950 . S
H2387 C2365 0.950 . S
C2388 C2389 1.349 . S
C2388 C2390 1.327 . S
C2388 H2413 0.950 . S
C2389 C2388 1.349 . S
C2389 C2405 1.349 . S
C2390 C2388 1.327 . S
C2390 C2409 1.429 . S
C2390 H2414 0.950 . S
C2391 C2408 1.574 . S
C2391 C2410 1.368 . S
C2391 H2415 0.949 . S
H2392 C2396 0.949 . S
C2393 C2394 1.349 . S
C2393 C2395 1.327 . S
C2393 H2416 0.950 . S
C2394 C2393 1.349 . S
C2394 C2406 1.349 . S
C2395 C2393 1.327 . S
C2395 C2411 1.429 . S
C2395 H2417 0.950 . S
C2396 H2392 0.949 . S
C2396 C2404 1.574 . S
C2396 C2412 1.368 . S
H2397 C2405 0.950 . S
H2398 C2403 0.950 . S
H2399 C2404 0.949 . S
H2400 C2406 0.950 . S
H2401 C2407 0.950 . S
H2402 C2408 0.949 . S
C2403 H2398 0.950 . S
C2403 C2405 1.327 . S
C2403 C2409 1.429 . S
C2404 C2396 1.574 . S
C2404 H2399 0.949 . S
C2404 C2410 1.368 . S
C2405 C2389 1.349 . S
C2405 H2397 0.950 . S
C2405 C2403 1.327 . S
C2406 C2394 1.349 . S
C2406 H2400 0.950 . S
C2406 C2407 1.327 . S
C2407 H2401 0.950 . S
C2407 C2406 1.327 . S
C2407 C2411 1.429 . S
C2408 C2391 1.574 . S
C2408 H2402 0.949 . S
C2408 C2412 1.368 . S
C2409 C2390 1.429 . S
C2409 C2403 1.429 . S
C2409 C2410 1.523 . S
C2410 C2391 1.368 . S
C2410 C2404 1.368 . S
C2410 C2409 1.523 . S
C2411 C2395 1.429 . S
C2411 C2407 1.429 . S
C2411 C2412 1.523 . S
C2412 C2396 1.368 . S
C2412 C2408 1.368 . S
C2412 C2411 1.523 . S
H2413 C2388 0.950 . S
H2414 C2390 0.950 . S
H2415 C2391 0.949 . S
H2416 C2393 0.950 . S
H2417 C2395 0.950 . S
C2418 C2419 1.349 . S
C2418 C2420 1.327 . S
C2418 H2443 0.950 1_556 S
C2419 C2418 1.349 . S
C2419 C2435 1.349 . S
C2420 C2418 1.327 . S
C2420 C2439 1.429 . S
C2420 H2444 0.950 . S
C2421 C2438 1.574 . S
C2421 C2440 1.368 . S
C2421 H2445 0.949 . S
H2422 C2426 0.949 . S
C2423 C2424 1.349 . S
C2423 C2425 1.327 . S
C2423 H2446 0.950 . S
C2424 C2423 1.349 . S
C2424 C2436 1.349 . S
C2425 C2423 1.327 . S
C2425 C2441 1.429 . S
C2425 H2447 0.950 . S
C2426 H2422 0.949 . S
C2426 C2434 1.574 . S
C2426 C2442 1.368 . S
H2427 C2435 0.950 . S
H2428 C2433 0.950 . S
H2429 C2434 0.949 . S
H2430 C2436 0.950 . S
H2431 C2437 0.950 . S
H2432 C2438 0.949 . S
C2433 H2428 0.950 . S
C2433 C2435 1.327 . S
C2433 C2439 1.429 . S
C2434 C2426 1.574 . S
C2434 H2429 0.949 . S
C2434 C2440 1.368 . S
C2435 C2419 1.349 . S
C2435 H2427 0.950 . S
C2435 C2433 1.327 . S
C2436 C2424 1.349 . S
C2436 H2430 0.950 . S
C2436 C2437 1.327 . S
C2437 H2431 0.950 . S
C2437 C2436 1.327 . S
C2437 C2441 1.429 . S
C2438 C2421 1.574 . S
C2438 H2432 0.949 . S
C2438 C2442 1.368 . S
C2439 C2420 1.429 . S
C2439 C2433 1.429 . S
C2439 C2440 1.523 . S
C2440 C2421 1.368 . S
C2440 C2434 1.368 . S
C2440 C2439 1.523 . S
C2441 C2425 1.429 . S
C2441 C2437 1.429 . S
C2441 C2442 1.523 . S
C2442 C2426 1.368 . S
C2442 C2438 1.368 . S
C2442 C2441 1.523 . S
H2443 C2418 0.950 1_554 S
H2444 C2420 0.950 . S
H2445 C2421 0.949 . S
H2446 C2423 0.950 . S
H2447 C2425 0.950 . S
C2448 C2449 1.349 . S
C2448 C2450 1.327 . S
C2448 H2473 0.950 . S
C2449 C2448 1.349 . S
C2449 C2465 1.349 . S
C2450 C2448 1.327 . S
C2450 C2469 1.429 . S
C2450 H2474 0.950 . S
C2451 C2468 1.574 . S
C2451 C2470 1.368 . S
C2451 H2475 0.949 . S
H2452 C2456 0.949 . S
C2453 C2454 1.349 . S
C2453 C2455 1.327 . S
C2453 H2476 0.950 . S
C2454 C2453 1.349 . S
C2454 C2466 1.349 . S
C2455 C2453 1.327 . S
C2455 C2471 1.429 . S
C2455 H2477 0.950 . S
C2456 H2452 0.949 . S
C2456 C2464 1.574 . S
C2456 C2472 1.368 . S
H2457 C2465 0.950 . S
H2458 C2463 0.950 . S
H2459 C2464 0.949 . S
H2460 C2466 0.950 . S
H2461 C2467 0.950 . S
H2462 C2468 0.949 . S
C2463 H2458 0.950 . S
C2463 C2465 1.327 . S
C2463 C2469 1.429 . S
C2464 C2456 1.574 . S
C2464 H2459 0.949 . S
C2464 C2470 1.368 . S
C2465 C2449 1.349 . S
C2465 H2457 0.950 . S
C2465 C2463 1.327 . S
C2466 C2454 1.349 . S
C2466 H2460 0.950 . S
C2466 C2467 1.327 . S
C2467 H2461 0.950 . S
C2467 C2466 1.327 . S
C2467 C2471 1.429 . S
C2468 C2451 1.574 . S
C2468 H2462 0.949 . S
C2468 C2472 1.368 . S
C2469 C2450 1.429 . S
C2469 C2463 1.429 . S
C2469 C2470 1.523 . S
C2470 C2451 1.368 . S
C2470 C2464 1.368 . S
C2470 C2469 1.523 . S
C2471 C2455 1.429 . S
C2471 C2467 1.429 . S
C2471 C2472 1.523 . S
C2472 C2456 1.368 . S
C2472 C2468 1.368 . S
C2472 C2471 1.523 . S
H2473 C2448 0.950 . S
H2474 C2450 0.950 . S
H2475 C2451 0.949 . S
H2476 C2453 0.950 . S
H2477 C2455 0.950 . S
C2478 C2479 1.349 . S
C2478 C2480 1.327 . S
C2478 H2503 0.950 . S
C2479 C2478 1.349 . S
C2479 C2495 1.349 . S
C2480 C2478 1.327 . S
C2480 C2499 1.429 . S
C2480 H2504 0.950 . S
C2481 C2498 1.574 . S
C2481 C2500 1.368 . S
C2481 H2505 0.949 . S
H2482 C2486 0.949 . S
C2483 C2484 1.349 . S
C2483 C2485 1.327 . S
C2483 H2506 0.950 . S
C2484 C2483 1.349 . S
C2484 C2496 1.349 . S
C2485 C2483 1.327 . S
C2485 C2501 1.429 . S
C2485 H2507 0.950 . S
C2486 H2482 0.949 . S
C2486 C2494 1.574 . S
C2486 C2502 1.368 . S
H2487 C2495 0.950 . S
H2488 C2493 0.950 . S
H2489 C2494 0.949 . S
H2490 C2496 0.950 . S
H2491 C2497 0.950 . S
H2492 C2498 0.949 . S
C2493 H2488 0.950 . S
C2493 C2495 1.327 . S
C2493 C2499 1.429 . S
C2494 C2486 1.574 . S
C2494 H2489 0.949 . S
C2494 C2500 1.368 . S
C2495 C2479 1.349 . S
C2495 H2487 0.950 . S
C2495 C2493 1.327 . S
C2496 C2484 1.349 . S
C2496 H2490 0.950 . S
C2496 C2497 1.327 . S
C2497 H2491 0.950 . S
C2497 C2496 1.327 . S
C2497 C2501 1.429 . S
C2498 C2481 1.574 . S
C2498 H2492 0.949 . S
C2498 C2502 1.368 . S
C2499 C2480 1.429 . S
C2499 C2493 1.429 . S
C2499 C2500 1.523 . S
C2500 C2481 1.368 . S
C2500 C2494 1.368 . S
C2500 C2499 1.523 . S
C2501 C2485 1.429 . S
C2501 C2497 1.429 . S
C2501 C2502 1.523 . S
C2502 C2486 1.368 . S
C2502 C2498 1.368 . S
C2502 C2501 1.523 . S
H2503 C2478 0.950 . S
H2504 C2480 0.950 . S
H2505 C2481 0.949 . S
H2506 C2483 0.950 . S
H2507 C2485 0.950 . S
C2508 C2509 1.349 . S
C2508 C2510 1.327 . S
C2508 H2533 0.950 . S
C2509 C2508 1.349 . S
C2509 C2525 1.349 . S
C2510 C2508 1.327 . S
C2510 C2529 1.429 . S
C2510 H2534 0.950 . S
C2511 C2528 1.574 . S
C2511 C2530 1.368 . S
C2511 H2535 0.949 . S
H2512 C2516 0.949 . S
C2513 C2514 1.349 . S
C2513 C2515 1.327 . S
C2513 H2536 0.950 . S
C2514 C2513 1.349 . S
C2514 C2526 1.349 . S
C2515 C2513 1.327 . S
C2515 C2531 1.429 . S
C2515 H2537 0.950 . S
C2516 H2512 0.949 . S
C2516 C2524 1.574 . S
C2516 C2532 1.368 . S
H2517 C2525 0.950 . S
H2518 C2523 0.950 . S
H2519 C2524 0.949 . S
H2520 C2526 0.950 . S
H2521 C2527 0.950 . S
H2522 C2528 0.949 . S
C2523 H2518 0.950 . S
C2523 C2525 1.327 . S
C2523 C2529 1.429 . S
C2524 C2516 1.574 . S
C2524 H2519 0.949 . S
C2524 C2530 1.368 . S
C2525 C2509 1.349 . S
C2525 H2517 0.950 . S
C2525 C2523 1.327 . S
C2526 C2514 1.349 . S
C2526 H2520 0.950 . S
C2526 C2527 1.327 . S
C2527 H2521 0.950 . S
C2527 C2526 1.327 . S
C2527 C2531 1.429 . S
C2528 C2511 1.574 . S
C2528 H2522 0.949 . S
C2528 C2532 1.368 . S
C2529 C2510 1.429 . S
C2529 C2523 1.429 . S
C2529 C2530 1.523 . S
C2530 C2511 1.368 . S
C2530 C2524 1.368 . S
C2530 C2529 1.523 . S
C2531 C2515 1.429 . S
C2531 C2527 1.429 . S
C2531 C2532 1.523 . S
C2532 C2516 1.368 . S
C2532 C2528 1.368 . S
C2532 C2531 1.523 . S
H2533 C2508 0.950 . S
H2534 C2510 0.950 . S
H2535 C2511 0.949 . S
H2536 C2513 0.950 . S
H2537 C2515 0.950 . S
C2538 C2539 1.349 . S
C2538 C2540 1.327 . S
C2538 H2563 0.950 . S
C2539 C2538 1.349 . S
C2539 C2555 1.349 . S
C2540 C2538 1.327 . S
C2540 C2559 1.429 . S
C2540 H2564 0.950 . S
C2541 C2558 1.574 . S
C2541 C2560 1.368 . S
C2541 H2565 0.949 . S
H2542 C2546 0.949 . S
C2543 C2544 1.349 . S
C2543 C2545 1.327 . S
C2543 H2566 0.950 . S
C2544 C2543 1.349 . S
C2544 C2556 1.349 . S
C2545 C2543 1.327 . S
C2545 C2561 1.429 . S
C2545 H2567 0.950 . S
C2546 H2542 0.949 . S
C2546 C2554 1.574 . S
C2546 C2562 1.368 . S
H2547 C2555 0.950 . S
H2548 C2553 0.950 . S
H2549 C2554 0.949 . S
H2550 C2556 0.950 . S
H2551 C2557 0.950 . S
H2552 C2558 0.949 . S
C2553 H2548 0.950 . S
C2553 C2555 1.327 . S
C2553 C2559 1.429 . S
C2554 C2546 1.574 . S
C2554 H2549 0.949 . S
C2554 C2560 1.368 . S
C2555 C2539 1.349 . S
C2555 H2547 0.950 . S
C2555 C2553 1.327 . S
C2556 C2544 1.349 . S
C2556 H2550 0.950 . S
C2556 C2557 1.327 . S
C2557 H2551 0.950 . S
C2557 C2556 1.327 . S
C2557 C2561 1.429 . S
C2558 C2541 1.574 . S
C2558 H2552 0.949 . S
C2558 C2562 1.368 . S
C2559 C2540 1.429 . S
C2559 C2553 1.429 . S
C2559 C2560 1.523 . S
C2560 C2541 1.368 . S
C2560 C2554 1.368 . S
C2560 C2559 1.523 . S
C2561 C2545 1.429 . S
C2561 C2557 1.429 . S
C2561 C2562 1.523 . S
C2562 C2546 1.368 . S
C2562 C2558 1.368 . S
C2562 C2561 1.523 . S
H2563 C2538 0.950 . S
H2564 C2540 0.950 . S
H2565 C2541 0.949 . S
H2566 C2543 0.950 . S
H2567 C2545 0.950 . S
C2568 C2569 1.349 . S
C2568 C2570 1.327 . S
C2568 H2593 0.950 . S
C2569 C2568 1.349 . S
C2569 C2585 1.349 . S
C2570 C2568 1.327 . S
C2570 C2589 1.429 . S
C2570 H2594 0.950 . S
C2571 C2588 1.574 . S
C2571 C2590 1.368 . S
C2571 H2595 0.949 . S
H2572 C2576 0.949 . S
C2573 C2574 1.349 . S
C2573 C2575 1.327 . S
C2573 H2596 0.950 . S
C2574 C2573 1.349 . S
C2574 C2586 1.349 . S
C2575 C2573 1.327 . S
C2575 C2591 1.429 . S
C2575 H2597 0.950 . S
C2576 H2572 0.949 . S
C2576 C2584 1.574 . S
C2576 C2592 1.368 . S
H2577 C2585 0.950 . S
H2578 C2583 0.950 . S
H2579 C2584 0.949 . S
H2580 C2586 0.950 . S
H2581 C2587 0.950 . S
H2582 C2588 0.949 . S
C2583 H2578 0.950 . S
C2583 C2585 1.327 . S
C2583 C2589 1.429 . S
C2584 C2576 1.574 . S
C2584 H2579 0.949 . S
C2584 C2590 1.368 . S
C2585 C2569 1.349 . S
C2585 H2577 0.950 . S
C2585 C2583 1.327 . S
C2586 C2574 1.349 . S
C2586 H2580 0.950 . S
C2586 C2587 1.327 . S
C2587 H2581 0.950 . S
C2587 C2586 1.327 . S
C2587 C2591 1.429 . S
C2588 C2571 1.574 . S
C2588 H2582 0.949 . S
C2588 C2592 1.368 . S
C2589 C2570 1.429 . S
C2589 C2583 1.429 . S
C2589 C2590 1.523 . S
C2590 C2571 1.368 . S
C2590 C2584 1.368 . S
C2590 C2589 1.523 . S
C2591 C2575 1.429 . S
C2591 C2587 1.429 . S
C2591 C2592 1.523 . S
C2592 C2576 1.368 . S
C2592 C2588 1.368 . S
C2592 C2591 1.523 . S
H2593 C2568 0.950 . S
H2594 C2570 0.950 . S
H2595 C2571 0.949 . S
H2596 C2573 0.950 . S
H2597 C2575 0.950 . S
C2598 C2599 1.349 . S
C2598 C2600 1.327 . S
C2598 H2623 0.950 . S
C2599 C2598 1.349 . S
C2599 C2615 1.349 . S
C2600 C2598 1.327 . S
C2600 C2619 1.429 . S
C2600 H2624 0.950 . S
C2601 C2618 1.574 . S
C2601 C2620 1.368 . S
C2601 H2625 0.949 . S
H2602 C2606 0.949 . S
C2603 C2604 1.349 . S
C2603 C2605 1.327 . S
C2603 H2626 0.950 . S
C2604 C2603 1.349 . S
C2604 C2616 1.349 . S
C2605 C2603 1.327 . S
C2605 C2621 1.429 . S
C2605 H2627 0.950 . S
C2606 H2602 0.949 . S
C2606 C2614 1.574 . S
C2606 C2622 1.368 . S
H2607 C2615 0.950 . S
H2608 C2613 0.950 . S
H2609 C2614 0.949 . S
H2610 C2616 0.950 . S
H2611 C2617 0.950 . S
H2612 C2618 0.949 . S
C2613 H2608 0.950 . S
C2613 C2615 1.327 . S
C2613 C2619 1.429 . S
C2614 C2606 1.574 . S
C2614 H2609 0.949 . S
C2614 C2620 1.368 . S
C2615 C2599 1.349 . S
C2615 H2607 0.950 . S
C2615 C2613 1.327 . S
C2616 C2604 1.349 . S
C2616 H2610 0.950 . S
C2616 C2617 1.327 . S
C2617 H2611 0.950 . S
C2617 C2616 1.327 . S
C2617 C2621 1.429 . S
C2618 C2601 1.574 . S
C2618 H2612 0.949 . S
C2618 C2622 1.368 . S
C2619 C2600 1.429 . S
C2619 C2613 1.429 . S
C2619 C2620 1.523 . S
C2620 C2601 1.368 . S
C2620 C2614 1.368 . S
C2620 C2619 1.523 . S
C2621 C2605 1.429 . S
C2621 C2617 1.429 . S
C2621 C2622 1.523 . S
C2622 C2606 1.368 . S
C2622 C2618 1.368 . S
C2622 C2621 1.523 . S
H2623 C2598 0.950 . S
H2624 C2600 0.950 . S
H2625 C2601 0.949 . S
H2626 C2603 0.950 . S
H2627 C2605 0.950 . S
C2628 C2629 1.349 . S
C2628 C2630 1.327 . S
C2628 H2653 0.950 . S
C2629 C2628 1.349 . S
C2629 C2645 1.349 . S
C2630 C2628 1.327 . S
C2630 C2649 1.429 . S
C2630 H2654 0.950 . S
C2631 C2648 1.598 . S
C2631 C2650 1.368 . S
C2631 H2655 0.949 1_455 S
H2632 C2636 0.949 . S
C2633 C2634 1.349 1_655 S
C2633 C2635 1.327 . S
C2633 H2656 0.950 . S
C2634 C2633 1.349 1_455 S
C2634 C2646 1.349 . S
C2635 C2633 1.327 . S
C2635 C2651 1.429 1_655 S
C2635 H2657 0.950 . S
C2636 H2632 0.949 . S
C2636 C2644 1.574 . S
C2636 C2652 1.368 . S
H2637 C2645 0.950 . S
H2638 C2643 0.921 1_655 S
H2639 C2644 0.949 . S
H2640 C2646 0.950 . S
H2641 C2647 0.950 . S
H2642 C2648 0.920 1_655 S
C2643 H2638 0.921 1_455 S
C2643 C2645 1.327 . S
C2643 C2649 1.429 . S
C2644 C2636 1.574 . S
C2644 H2639 0.949 . S
C2644 C2650 1.368 . S
C2645 C2629 1.349 . S
C2645 H2637 0.950 . S
C2645 C2643 1.327 . S
C2646 C2634 1.349 . S
C2646 H2640 0.950 . S
C2646 C2647 1.327 . S
C2647 H2641 0.950 . S
C2647 C2646 1.327 . S
C2647 C2651 1.429 . S
C2648 C2631 1.598 . S
C2648 H2642 0.920 1_455 S
C2648 C2652 1.378 . S
C2649 C2630 1.429 . S
C2649 C2643 1.429 . S
C2649 C2650 1.523 . S
C2650 C2631 1.368 . S
C2650 C2644 1.368 . S
C2650 C2649 1.523 . S
C2651 C2635 1.429 1_455 S
C2651 C2647 1.429 . S
C2651 C2652 1.523 . S
C2652 C2636 1.368 . S
C2652 C2648 1.378 . S
C2652 C2651 1.523 . S
H2653 C2628 0.950 . S
H2654 C2630 0.950 . S
H2655 C2631 0.949 1_655 S
H2656 C2633 0.950 . S
H2657 C2635 0.950 . S
C2658 C2659 1.349 . S
C2658 C2660 1.327 . S
C2658 H2683 0.950 . S
C2659 C2658 1.349 . S
C2659 C2675 1.349 . S
C2660 C2658 1.327 . S
C2660 C2679 1.429 . S
C2660 H2684 0.950 . S
C2661 C2678 1.574 . S
C2661 C2680 1.368 . S
C2661 H2685 0.949 . S
H2662 C2666 0.949 . S
C2663 C2664 1.349 . S
C2663 C2665 1.327 . S
C2663 H2686 0.950 . S
C2664 C2663 1.349 . S
C2664 C2676 1.349 . S
C2665 C2663 1.327 . S
C2665 C2681 1.429 . S
C2665 H2687 0.950 . S
C2666 H2662 0.949 . S
C2666 C2674 1.574 . S
C2666 C2682 1.368 . S
H2667 C2675 0.950 . S
H2668 C2673 0.950 . S
H2669 C2674 0.949 . S
H2670 C2676 0.950 . S
H2671 C2677 0.950 . S
H2672 C2678 0.949 . S
C2673 H2668 0.950 . S
C2673 C2675 1.327 . S
C2673 C2679 1.429 . S
C2674 C2666 1.574 . S
C2674 H2669 0.949 . S
C2674 C2680 1.368 . S
C2675 C2659 1.349 . S
C2675 H2667 0.950 . S
C2675 C2673 1.327 . S
C2676 C2664 1.349 . S
C2676 H2670 0.950 . S
C2676 C2677 1.327 . S
C2677 H2671 0.950 . S
C2677 C2676 1.327 . S
C2677 C2681 1.429 . S
C2678 C2661 1.574 . S
C2678 H2672 0.949 . S
C2678 C2682 1.368 . S
C2679 C2660 1.429 . S
C2679 C2673 1.429 . S
C2679 C2680 1.523 . S
C2680 C2661 1.368 . S
C2680 C2674 1.368 . S
C2680 C2679 1.523 . S
C2681 C2665 1.429 . S
C2681 C2677 1.429 . S
C2681 C2682 1.523 . S
C2682 C2666 1.368 . S
C2682 C2678 1.368 . S
C2682 C2681 1.523 . S
H2683 C2658 0.950 . S
H2684 C2660 0.950 . S
H2685 C2661 0.949 . S
H2686 C2663 0.950 . S
H2687 C2665 0.950 . S
C2688 C2689 1.349 . S
C2688 C2690 1.294 . S
C2688 H2713 0.950 1_565 S
C2689 C2688 1.349 . S
C2689 C2705 1.349 . S
C2690 C2688 1.294 . S
C2690 C2709 1.492 . S
C2690 H2714 0.929 1_565 S
C2691 C2708 1.574 . S
C2691 C2710 1.368 . S
C2691 H2715 0.949 . S
H2692 C2696 0.949 . S
C2693 C2694 1.349 . S
C2693 C2695 1.327 . S
C2693 H2716 0.950 . S
C2694 C2693 1.349 . S
C2694 C2706 1.349 1_565 S
C2695 C2693 1.327 . S
C2695 C2711 1.429 . S
C2695 H2717 0.950 . S
C2696 H2692 0.949 . S
C2696 C2704 1.574 . S
C2696 C2712 1.368 1_545 S
H2697 C2705 0.950 . S
H2698 C2703 0.950 . S
H2699 C2704 0.949 . S
H2700 C2706 0.950 . S
H2701 C2707 0.950 . S
H2702 C2708 0.949 . S
C2703 H2698 0.950 . S
C2703 C2705 1.327 . S
C2703 C2709 1.429 . S
C2704 C2696 1.574 . S
C2704 H2699 0.949 . S
C2704 C2710 1.368 1_545 S
C2705 C2689 1.349 . S
C2705 H2697 0.950 . S
C2705 C2703 1.327 . S
C2706 C2694 1.349 1_545 S
C2706 H2700 0.950 . S
C2706 C2707 1.327 . S
C2707 H2701 0.950 . S
C2707 C2706 1.327 . S
C2707 C2711 1.429 1_545 S
C2708 C2691 1.574 . S
C2708 H2702 0.949 . S
C2708 C2712 1.368 . S
C2709 C2690 1.492 . S
C2709 C2703 1.429 . S
C2709 C2710 1.523 . S
C2710 C2691 1.368 . S
C2710 C2704 1.368 1_565 S
C2710 C2709 1.523 . S
C2711 C2695 1.429 . S
C2711 C2707 1.429 1_565 S
C2711 C2712 1.523 . S
C2712 C2696 1.368 1_565 S
C2712 C2708 1.368 . S
C2712 C2711 1.523 . S
H2713 C2688 0.950 1_545 S
H2714 C2690 0.929 1_545 S
H2715 C2691 0.949 . S
H2716 C2693 0.950 . S
H2717 C2695 0.950 . S
C2718 C2719 1.349 . S
C2718 C2720 1.327 . S
C2718 H2743 0.950 . S
C2719 C2718 1.349 . S
C2719 C2735 1.407 . S
C2720 C2718 1.327 . S
C2720 C2739 1.429 . S
C2720 H2744 0.950 . S
C2721 C2738 1.574 . S
C2721 C2740 1.368 1_545 S
C2721 H2745 0.949 . S
H2722 C2726 0.949 . S
C2723 C2724 1.349 1_545 S
C2723 C2725 1.327 . S
C2723 H2746 0.950 . S
C2724 C2723 1.349 1_565 S
C2724 C2736 1.349 . S
C2725 C2723 1.327 . S
C2725 C2741 1.429 1_545 S
C2725 H2747 0.950 . S
C2726 H2722 0.949 . S
C2726 C2734 1.574 . S
C2726 C2742 1.368 . S
H2727 C2735 0.930 1_545 S
H2728 C2733 1.002 . S
H2729 C2734 0.949 . S
H2730 C2736 0.950 . S
H2731 C2737 0.950 . S
H2732 C2738 0.949 . S
C2733 H2728 1.002 . S
C2733 C2735 1.261 1_545 S
C2733 C2739 1.412 1_545 S
C2734 C2726 1.574 . S
C2734 H2729 0.949 . S
C2734 C2740 1.368 . S
C2735 C2719 1.407 . S
C2735 H2727 0.930 1_565 S
C2735 C2733 1.261 1_565 S
C2736 C2724 1.349 . S
C2736 H2730 0.950 . S
C2736 C2737 1.327 . S
C2737 H2731 0.950 . S
C2737 C2736 1.327 . S
C2737 C2741 1.429 . S
C2738 C2721 1.574 . S
C2738 H2732 0.949 . S
C2738 C2742 1.368 1_545 S
C2739 C2720 1.429 . S
C2739 C2733 1.412 1_565 S
C2739 C2740 1.523 . S
C2740 C2721 1.368 1_565 S
C2740 C2734 1.368 . S
C2740 C2739 1.523 . S
C2741 C2725 1.429 1_565 S
C2741 C2737 1.429 . S
C2741 C2742 1.523 . S
C2742 C2726 1.368 . S
C2742 C2738 1.368 1_565 S
C2742 C2741 1.523 . S
H2743 C2718 0.950 . S
H2744 C2720 0.950 . S
H2745 C2721 0.949 . S
H2746 C2723 0.950 . S
H2747 C2725 0.950 . S
C2748 C2749 1.349 . S
C2748 C2750 1.327 . S
C2748 H2773 0.950 . S
C2749 C2748 1.349 . S
C2749 C2765 1.349 . S
C2750 C2748 1.327 . S
C2750 C2769 1.429 . S
C2750 H2774 0.950 . S
C2751 C2768 1.574 . S
C2751 C2770 1.368 1_655 S
C2751 H2775 0.949 . S
H2752 C2756 0.949 . S
C2753 C2754 1.349 1_655 S
C2753 C2755 1.327 . S
C2753 H2776 0.950 . S
C2754 C2753 1.349 1_455 S
C2754 C2766 1.349 . S
C2755 C2753 1.327 . S
C2755 C2771 1.429 1_655 S
C2755 H2777 0.950 . S
C2756 H2752 0.949 . S
C2756 C2764 1.574 . S
C2756 C2772 1.368 . S
H2757 C2765 0.950 1_655 S
H2758 C2763 0.942 1_655 S
H2759 C2764 0.949 . S
H2760 C2766 0.950 . S
H2761 C2767 0.950 . S
H2762 C2768 0.949 . S
C2763 H2758 0.942 1_455 S
C2763 C2765 1.322 . S
C2763 C2769 1.441 . S
C2764 C2756 1.574 . S
C2764 H2759 0.949 . S
C2764 C2770 1.368 . S
C2765 C2749 1.349 . S
C2765 H2757 0.950 1_455 S
C2765 C2763 1.322 . S
C2766 C2754 1.349 . S
C2766 H2760 0.950 . S
C2766 C2767 1.327 . S
C2767 H2761 0.950 . S
C2767 C2766 1.327 . S
C2767 C2771 1.429 . S
C2768 C2751 1.574 . S
C2768 H2762 0.949 . S
C2768 C2772 1.368 1_655 S
C2769 C2750 1.429 . S
C2769 C2763 1.441 . S
C2769 C2770 1.523 . S
C2770 C2751 1.368 1_455 S
C2770 C2764 1.368 . S
C2770 C2769 1.523 . S
C2771 C2755 1.429 1_455 S
C2771 C2767 1.429 . S
C2771 C2772 1.523 . S
C2772 C2756 1.368 . S
C2772 C2768 1.368 1_455 S
C2772 C2771 1.523 . S
H2773 C2748 0.950 . S
H2774 C2750 0.950 . S
H2775 C2751 0.949 . S
H2776 C2753 0.950 . S
H2777 C2755 0.950 . S
C2778 C2779 1.349 . S
C2778 C2780 1.327 . S
C2778 H2803 0.950 . S
C2779 C2778 1.349 . S
C2779 C2795 1.349 . S
C2780 C2778 1.327 . S
C2780 C2799 1.429 . S
C2780 H2804 0.950 . S
C2781 C2798 1.574 . S
C2781 C2800 1.368 . S
C2781 H2805 0.949 . S
H2782 C2786 0.949 . S
C2783 C2784 1.349 . S
C2783 C2785 1.327 . S
C2783 H2806 0.950 . S
C2784 C2783 1.349 . S
C2784 C2796 1.349 . S
C2785 C2783 1.327 . S
C2785 C2801 1.429 . S
C2785 H2807 0.950 . S
C2786 H2782 0.949 . S
C2786 C2794 1.574 . S
C2786 C2802 1.368 . S
H2787 C2795 0.950 . S
H2788 C2793 0.950 . S
H2789 C2794 0.949 . S
H2790 C2796 0.950 . S
H2791 C2797 0.950 . S
H2792 C2798 0.949 . S
C2793 H2788 0.950 . S
C2793 C2795 1.327 . S
C2793 C2799 1.429 . S
C2794 C2786 1.574 . S
C2794 H2789 0.949 . S
C2794 C2800 1.368 . S
C2795 C2779 1.349 . S
C2795 H2787 0.950 . S
C2795 C2793 1.327 . S
C2796 C2784 1.349 . S
C2796 H2790 0.950 . S
C2796 C2797 1.327 . S
C2797 H2791 0.950 . S
C2797 C2796 1.327 . S
C2797 C2801 1.429 . S
C2798 C2781 1.574 . S
C2798 H2792 0.949 . S
C2798 C2802 1.368 . S
C2799 C2780 1.429 . S
C2799 C2793 1.429 . S
C2799 C2800 1.523 . S
C2800 C2781 1.368 . S
C2800 C2794 1.368 . S
C2800 C2799 1.523 . S
C2801 C2785 1.429 . S
C2801 C2797 1.429 . S
C2801 C2802 1.523 . S
C2802 C2786 1.368 . S
C2802 C2798 1.368 . S
C2802 C2801 1.523 . S
H2803 C2778 0.950 . S
H2804 C2780 0.950 . S
H2805 C2781 0.949 . S
H2806 C2783 0.950 . S
H2807 C2785 0.950 . S
C2808 C2809 1.349 . S
C2808 C2810 1.327 . S
C2808 H2833 0.950 . S
C2809 C2808 1.349 . S
C2809 C2825 1.349 . S
C2810 C2808 1.327 . S
C2810 C2829 1.429 . S
C2810 H2834 0.950 . S
C2811 C2828 1.574 . S
C2811 C2830 1.368 . S
C2811 H2835 0.949 . S
H2812 C2816 0.949 . S
C2813 C2814 1.349 . S
C2813 C2815 1.327 . S
C2813 H2836 0.950 . S
C2814 C2813 1.349 . S
C2814 C2826 1.349 . S
C2815 C2813 1.327 . S
C2815 C2831 1.429 . S
C2815 H2837 0.950 . S
C2816 H2812 0.949 . S
C2816 C2824 1.574 . S
C2816 C2832 1.368 . S
H2817 C2825 0.950 . S
H2818 C2823 0.950 . S
H2819 C2824 0.949 . S
H2820 C2826 0.950 . S
H2821 C2827 0.950 . S
H2822 C2828 0.949 . S
C2823 H2818 0.950 . S
C2823 C2825 1.327 . S
C2823 C2829 1.429 . S
C2824 C2816 1.574 . S
C2824 H2819 0.949 . S
C2824 C2830 1.368 . S
C2825 C2809 1.349 . S
C2825 H2817 0.950 . S
C2825 C2823 1.327 . S
C2826 C2814 1.349 . S
C2826 H2820 0.950 . S
C2826 C2827 1.327 . S
C2827 H2821 0.950 . S
C2827 C2826 1.327 . S
C2827 C2831 1.429 . S
C2828 C2811 1.574 . S
C2828 H2822 0.949 . S
C2828 C2832 1.368 . S
C2829 C2810 1.429 . S
C2829 C2823 1.429 . S
C2829 C2830 1.523 . S
C2830 C2811 1.368 . S
C2830 C2824 1.368 . S
C2830 C2829 1.523 . S
C2831 C2815 1.429 . S
C2831 C2827 1.429 . S
C2831 C2832 1.523 . S
C2832 C2816 1.368 . S
C2832 C2828 1.368 . S
C2832 C2831 1.523 . S
H2833 C2808 0.950 . S
H2834 C2810 0.950 . S
H2835 C2811 0.949 . S
H2836 C2813 0.950 . S
H2837 C2815 0.950 . S
C2838 C2839 1.349 . S
C2838 C2840 1.327 . S
C2838 H2863 0.950 . S
C2839 C2838 1.349 . S
C2839 C2855 1.349 . S
C2840 C2838 1.327 . S
C2840 C2859 1.429 . S
C2840 H2864 0.950 . S
C2841 C2858 1.574 . S
C2841 C2860 1.368 . S
C2841 H2865 0.949 . S
H2842 C2846 0.949 . S
C2843 C2844 1.349 . S
C2843 C2845 1.327 . S
C2843 H2866 0.950 . S
C2844 C2843 1.349 . S
C2844 C2856 1.349 . S
C2845 C2843 1.327 . S
C2845 C2861 1.429 . S
C2845 H2867 0.950 . S
C2846 H2842 0.949 . S
C2846 C2854 1.574 . S
C2846 C2862 1.368 . S
H2847 C2855 0.950 . S
H2848 C2853 0.950 . S
H2849 C2854 0.949 . S
H2850 C2856 0.950 . S
H2851 C2857 0.950 . S
H2852 C2858 0.949 . S
C2853 H2848 0.950 . S
C2853 C2855 1.327 . S
C2853 C2859 1.429 . S
C2854 C2846 1.574 . S
C2854 H2849 0.949 . S
C2854 C2860 1.368 . S
C2855 C2839 1.349 . S
C2855 H2847 0.950 . S
C2855 C2853 1.327 . S
C2856 C2844 1.349 . S
C2856 H2850 0.950 . S
C2856 C2857 1.327 . S
C2857 H2851 0.950 . S
C2857 C2856 1.327 . S
C2857 C2861 1.429 . S
C2858 C2841 1.574 . S
C2858 H2852 0.949 . S
C2858 C2862 1.368 . S
C2859 C2840 1.429 . S
C2859 C2853 1.429 . S
C2859 C2860 1.523 . S
C2860 C2841 1.368 . S
C2860 C2854 1.368 . S
C2860 C2859 1.523 . S
C2861 C2845 1.429 . S
C2861 C2857 1.429 . S
C2861 C2862 1.523 . S
C2862 C2846 1.368 . S
C2862 C2858 1.368 . S
C2862 C2861 1.523 . S
H2863 C2838 0.950 . S
H2864 C2840 0.950 . S
H2865 C2841 0.949 . S
H2866 C2843 0.950 . S
H2867 C2845 0.950 . S
C2868 C2869 1.349 . S
C2868 C2870 1.327 . S
C2868 H2893 0.950 . S
C2869 C2868 1.349 . S
C2869 C2885 1.349 . S
C2870 C2868 1.327 . S
C2870 C2889 1.429 . S
C2870 H2894 0.950 . S
C2871 C2888 1.574 . S
C2871 C2890 1.368 . S
C2871 H2895 0.949 . S
H2872 C2876 0.949 . S
C2873 C2874 1.349 . S
C2873 C2875 1.327 . S
C2873 H2896 0.950 . S
C2874 C2873 1.349 . S
C2874 C2886 1.349 . S
C2875 C2873 1.327 . S
C2875 C2891 1.429 . S
C2875 H2897 0.950 . S
C2876 H2872 0.949 . S
C2876 C2884 1.574 . S
C2876 C2892 1.368 . S
H2877 C2885 0.950 . S
H2878 C2883 0.950 . S
H2879 C2884 0.949 . S
H2880 C2886 0.950 . S
H2881 C2887 0.950 . S
H2882 C2888 0.949 . S
C2883 H2878 0.950 . S
C2883 C2885 1.327 . S
C2883 C2889 1.429 . S
C2884 C2876 1.574 . S
C2884 H2879 0.949 . S
C2884 C2890 1.368 . S
C2885 C2869 1.349 . S
C2885 H2877 0.950 . S
C2885 C2883 1.327 . S
C2886 C2874 1.349 . S
C2886 H2880 0.950 . S
C2886 C2887 1.327 . S
C2887 H2881 0.950 . S
C2887 C2886 1.327 . S
C2887 C2891 1.429 . S
C2888 C2871 1.574 . S
C2888 H2882 0.949 . S
C2888 C2892 1.368 . S
C2889 C2870 1.429 . S
C2889 C2883 1.429 . S
C2889 C2890 1.523 . S
C2890 C2871 1.368 . S
C2890 C2884 1.368 . S
C2890 C2889 1.523 . S
C2891 C2875 1.429 . S
C2891 C2887 1.429 . S
C2891 C2892 1.523 . S
C2892 C2876 1.368 . S
C2892 C2888 1.368 . S
C2892 C2891 1.523 . S
H2893 C2868 0.950 . S
H2894 C2870 0.950 . S
H2895 C2871 0.949 . S
H2896 C2873 0.950 . S
H2897 C2875 0.950 . S
C2898 C2899 1.349 . S
C2898 C2900 1.327 . S
C2898 H2923 0.950 . S
C2899 C2898 1.349 . S
C2899 C2915 1.349 . S
C2900 C2898 1.327 . S
C2900 C2919 1.429 . S
C2900 H2924 0.940 . S
C2901 C2918 1.574 . S
C2901 C2920 1.368 . S
C2901 H2925 0.949 . S
H2902 C2906 0.885 1_565 S
C2903 C2904 1.349 . S
C2903 C2905 1.327 . S
C2903 H2926 0.950 . S
C2904 C2903 1.349 . S
C2904 C2916 1.349 1_545 S
C2905 C2903 1.327 . S
C2905 C2921 1.429 . S
C2905 H2927 0.950 . S
C2906 H2902 0.885 1_545 S
C2906 C2914 1.615 . S
C2906 C2922 1.400 . S
H2907 C2915 0.950 . S
H2908 C2913 0.950 . S
H2909 C2914 0.949 1_565 S
H2910 C2916 0.950 . S
H2911 C2917 0.950 . S
H2912 C2918 0.949 . S
C2913 H2908 0.950 . S
C2913 C2915 1.327 . S
C2913 C2919 1.429 . S
C2914 C2906 1.615 . S
C2914 H2909 0.949 1_545 S
C2914 C2920 1.368 . S
C2915 C2899 1.349 . S
C2915 H2907 0.950 . S
C2915 C2913 1.327 . S
C2916 C2904 1.349 1_565 S
C2916 H2910 0.950 . S
C2916 C2917 1.327 . S
C2917 H2911 0.950 . S
C2917 C2916 1.327 . S
C2917 C2921 1.429 1_565 S
C2918 C2901 1.574 . S
C2918 H2912 0.949 . S
C2918 C2922 1.368 . S
C2919 C2900 1.429 . S
C2919 C2913 1.429 . S
C2919 C2920 1.523 . S
C2920 C2901 1.368 . S
C2920 C2914 1.368 . S
C2920 C2919 1.523 . S
C2921 C2905 1.429 . S
C2921 C2917 1.429 1_545 S
C2921 C2922 1.523 . S
C2922 C2906 1.400 . S
C2922 C2918 1.368 . S
C2922 C2921 1.523 . S
H2923 C2898 0.950 . S
H2924 C2900 0.940 . S
H2925 C2901 0.949 . S
H2926 C2903 0.950 . S
H2927 C2905 0.950 . S
C2928 C2929 1.349 . S
C2928 C2930 1.327 . S
C2928 H2953 0.950 . S
C2929 C2928 1.349 . S
C2929 C2945 1.349 . S
C2930 C2928 1.327 . S
C2930 C2949 1.429 . S
C2930 H2954 0.950 . S
C2931 C2948 1.574 . S
C2931 C2950 1.368 1_455 S
C2931 H2955 0.949 . S
H2932 C2936 0.949 . S
C2933 C2934 1.349 1_455 S
C2933 C2935 1.327 . S
C2933 H2956 0.950 . S
C2934 C2933 1.349 1_655 S
C2934 C2946 1.349 . S
C2935 C2933 1.327 . S
C2935 C2951 1.429 1_455 S
C2935 H2957 0.950 . S
C2936 H2932 0.949 . S
C2936 C2944 1.574 . S
C2936 C2952 1.368 . S
H2937 C2945 0.950 1_455 S
H2938 C2943 0.930 1_455 S
H2939 C2944 0.949 . S
H2940 C2946 0.950 . S
H2941 C2947 0.950 . S
H2942 C2948 0.949 . S
C2943 H2938 0.930 1_655 S
C2943 C2945 1.310 . S
C2943 C2949 1.467 . S
C2944 C2936 1.574 . S
C2944 H2939 0.949 . S
C2944 C2950 1.368 . S
C2945 C2929 1.349 . S
C2945 H2937 0.950 1_655 S
C2945 C2943 1.310 . S
C2946 C2934 1.349 . S
C2946 H2940 0.950 . S
C2946 C2947 1.327 . S
C2947 H2941 0.950 . S
C2947 C2946 1.327 . S
C2947 C2951 1.429 . S
C2948 C2931 1.574 . S
C2948 H2942 0.949 . S
C2948 C2952 1.368 1_455 S
C2949 C2930 1.429 . S
C2949 C2943 1.467 . S
C2949 C2950 1.523 . S
C2950 C2931 1.368 1_655 S
C2950 C2944 1.368 . S
C2950 C2949 1.523 . S
C2951 C2935 1.429 1_655 S
C2951 C2947 1.429 . S
C2951 C2952 1.523 . S
C2952 C2936 1.368 . S
C2952 C2948 1.368 1_655 S
C2952 C2951 1.523 . S
H2953 C2928 0.950 . S
H2954 C2930 0.950 . S
H2955 C2931 0.949 . S
H2956 C2933 0.950 . S
H2957 C2935 0.950 . S
C2958 C2959 1.349 . S
C2958 C2960 1.327 . S
C2958 H2983 0.950 . S
C2959 C2958 1.349 . S
C2959 C2975 1.349 . S
C2960 C2958 1.327 . S
C2960 C2979 1.429 . S
C2960 H2984 0.950 . S
C2961 C2978 1.574 . S
C2961 C2980 1.368 . S
C2961 H2985 0.949 . S
H2962 C2966 0.949 . S
C2963 C2964 1.349 . S
C2963 C2965 1.327 . S
C2963 H2986 0.950 . S
C2964 C2963 1.349 . S
C2964 C2976 1.349 . S
C2965 C2963 1.327 . S
C2965 C2981 1.429 . S
C2965 H2987 0.950 . S
C2966 H2962 0.949 . S
C2966 C2974 1.574 . S
C2966 C2982 1.368 . S
H2967 C2975 0.950 . S
H2968 C2973 0.950 . S
H2969 C2974 0.949 . S
H2970 C2976 0.950 . S
H2971 C2977 0.950 . S
H2972 C2978 0.949 . S
C2973 H2968 0.950 . S
C2973 C2975 1.327 . S
C2973 C2979 1.429 . S
C2974 C2966 1.574 . S
C2974 H2969 0.949 . S
C2974 C2980 1.368 . S
C2975 C2959 1.349 . S
C2975 H2967 0.950 . S
C2975 C2973 1.327 . S
C2976 C2964 1.349 . S
C2976 H2970 0.950 . S
C2976 C2977 1.327 . S
C2977 H2971 0.950 . S
C2977 C2976 1.327 . S
C2977 C2981 1.429 . S
C2978 C2961 1.574 . S
C2978 H2972 0.949 . S
C2978 C2982 1.368 . S
C2979 C2960 1.429 . S
C2979 C2973 1.429 . S
C2979 C2980 1.523 . S
C2980 C2961 1.368 . S
C2980 C2974 1.368 . S
C2980 C2979 1.523 . S
C2981 C2965 1.429 . S
C2981 C2977 1.429 . S
C2981 C2982 1.523 . S
C2982 C2966 1.368 . S
C2982 C2978 1.368 . S
C2982 C2981 1.523 . S
H2983 C2958 0.950 . S
H2984 C2960 0.950 . S
H2985 C2961 0.949 . S
H2986 C2963 0.950 . S
H2987 C2965 0.950 . S
C2988 C2989 1.349 . S
C2988 C2990 1.327 . S
C2988 H3013 0.950 . S
C2989 C2988 1.349 . S
C2989 C3005 1.349 . S
C2990 C2988 1.327 . S
C2990 C3009 1.429 . S
C2990 H3014 0.950 . S
C2991 C3008 1.574 . S
C2991 C3010 1.368 . S
C2991 H3015 0.949 . S
H2992 C2996 0.949 . S
C2993 C2994 1.349 . S
C2993 C2995 1.327 . S
C2993 H3016 0.950 . S
C2994 C2993 1.349 . S
C2994 C3006 1.349 . S
C2995 C2993 1.327 . S
C2995 C3011 1.429 . S
C2995 H3017 0.950 . S
C2996 H2992 0.949 . S
C2996 C3004 1.574 . S
C2996 C3012 1.368 . S
H2997 C3005 0.950 . S
H2998 C3003 0.950 . S
H2999 C3004 0.949 . S
H3000 C3006 0.950 . S
H3001 C3007 0.950 . S
H3002 C3008 0.949 . S
C3003 H2998 0.950 . S
C3003 C3005 1.327 . S
C3003 C3009 1.429 . S
C3004 C2996 1.574 . S
C3004 H2999 0.949 . S
C3004 C3010 1.368 . S
C3005 C2989 1.349 . S
C3005 H2997 0.950 . S
C3005 C3003 1.327 . S
C3006 C2994 1.349 . S
C3006 H3000 0.950 . S
C3006 C3007 1.327 . S
C3007 H3001 0.950 . S
C3007 C3006 1.327 . S
C3007 C3011 1.429 . S
C3008 C2991 1.574 . S
C3008 H3002 0.949 . S
C3008 C3012 1.368 . S
C3009 C2990 1.429 . S
C3009 C3003 1.429 . S
C3009 C3010 1.523 . S
C3010 C2991 1.368 . S
C3010 C3004 1.368 . S
C3010 C3009 1.523 . S
C3011 C2995 1.429 . S
C3011 C3007 1.429 . S
C3011 C3012 1.523 . S
C3012 C2996 1.368 . S
C3012 C3008 1.368 . S
C3012 C3011 1.523 . S
H3013 C2988 0.950 . S
H3014 C2990 0.950 . S
H3015 C2991 0.949 . S
H3016 C2993 0.950 . S
H3017 C2995 0.950 . S
C3018 C3019 1.349 . S
C3018 C3020 1.327 . S
C3018 H3043 0.950 . S
C3019 C3018 1.349 . S
C3019 C3035 1.349 . S
C3020 C3018 1.327 . S
C3020 C3039 1.429 . S
C3020 H3044 0.950 . S
C3021 C3038 1.574 . S
C3021 C3040 1.368 . S
C3021 H3045 0.949 . S
H3022 C3026 0.949 . S
C3023 C3024 1.349 . S
C3023 C3025 1.327 . S
C3023 H3046 0.950 . S
C3024 C3023 1.349 . S
C3024 C3036 1.349 . S
C3025 C3023 1.327 . S
C3025 C3041 1.429 . S
C3025 H3047 0.950 . S
C3026 H3022 0.949 . S
C3026 C3034 1.574 . S
C3026 C3042 1.368 . S
H3027 C3035 0.950 . S
H3028 C3033 0.950 . S
H3029 C3034 0.949 . S
H3030 C3036 0.950 . S
H3031 C3037 0.950 . S
H3032 C3038 0.949 . S
C3033 H3028 0.950 . S
C3033 C3035 1.327 . S
C3033 C3039 1.429 . S
C3034 C3026 1.574 . S
C3034 H3029 0.949 . S
C3034 C3040 1.368 . S
C3035 C3019 1.349 . S
C3035 H3027 0.950 . S
C3035 C3033 1.327 . S
C3036 C3024 1.349 . S
C3036 H3030 0.950 . S
C3036 C3037 1.327 . S
C3037 H3031 0.950 . S
C3037 C3036 1.327 . S
C3037 C3041 1.429 . S
C3038 C3021 1.574 . S
C3038 H3032 0.949 . S
C3038 C3042 1.368 . S
C3039 C3020 1.429 . S
C3039 C3033 1.429 . S
C3039 C3040 1.523 . S
C3040 C3021 1.368 . S
C3040 C3034 1.368 . S
C3040 C3039 1.523 . S
C3041 C3025 1.429 . S
C3041 C3037 1.429 . S
C3041 C3042 1.523 . S
C3042 C3026 1.368 . S
C3042 C3038 1.368 . S
C3042 C3041 1.523 . S
H3043 C3018 0.950 . S
H3044 C3020 0.950 . S
H3045 C3021 0.949 . S
H3046 C3023 0.950 . S
H3047 C3025 0.950 . S
C3048 C3049 1.349 . S
C3048 C3050 1.327 . S
C3048 H3073 0.950 . S
C3049 C3048 1.349 . S
C3049 C3065 1.349 . S
C3050 C3048 1.327 . S
C3050 C3069 1.429 . S
C3050 H3074 0.950 . S
C3051 C3068 1.574 . S
C3051 C3070 1.368 . S
C3051 H3075 0.949 . S
H3052 C3056 0.949 . S
C3053 C3054 1.349 . S
C3053 C3055 1.327 . S
C3053 H3076 0.950 . S
C3054 C3053 1.349 . S
C3054 C3066 1.349 . S
C3055 C3053 1.327 . S
C3055 C3071 1.429 . S
C3055 H3077 0.950 . S
C3056 H3052 0.949 . S
C3056 C3064 1.574 . S
C3056 C3072 1.368 . S
H3057 C3065 0.950 . S
H3058 C3063 0.950 . S
H3059 C3064 0.949 . S
H3060 C3066 0.950 . S
H3061 C3067 0.950 . S
H3062 C3068 0.949 . S
C3063 H3058 0.950 . S
C3063 C3065 1.327 . S
C3063 C3069 1.429 . S
C3064 C3056 1.574 . S
C3064 H3059 0.949 . S
C3064 C3070 1.368 . S
C3065 C3049 1.349 . S
C3065 H3057 0.950 . S
C3065 C3063 1.327 . S
C3066 C3054 1.349 . S
C3066 H3060 0.950 . S
C3066 C3067 1.327 . S
C3067 H3061 0.950 . S
C3067 C3066 1.327 . S
C3067 C3071 1.429 . S
C3068 C3051 1.574 . S
C3068 H3062 0.949 . S
C3068 C3072 1.368 . S
C3069 C3050 1.429 . S
C3069 C3063 1.429 . S
C3069 C3070 1.523 . S
C3070 C3051 1.368 . S
C3070 C3064 1.368 . S
C3070 C3069 1.523 . S
C3071 C3055 1.429 . S
C3071 C3067 1.429 . S
C3071 C3072 1.523 . S
C3072 C3056 1.368 . S
C3072 C3068 1.368 . S
C3072 C3071 1.523 . S
H3073 C3048 0.950 . S
H3074 C3050 0.950 . S
H3075 C3051 0.949 . S
H3076 C3053 0.950 . S
H3077 C3055 0.950 . S
C3078 C3079 1.349 . S
C3078 C3080 1.327 . S
C3078 H3103 0.950 . S
C3079 C3078 1.349 . S
C3079 C3095 1.349 . S
C3080 C3078 1.327 . S
C3080 C3099 1.429 . S
C3080 H3104 0.950 . S
C3081 C3098 1.574 . S
C3081 C3100 1.368 . S
C3081 H3105 0.949 . S
H3082 C3086 0.949 . S
C3083 C3084 1.349 . S
C3083 C3085 1.327 . S
C3083 H3106 0.950 . S
C3084 C3083 1.349 . S
C3084 C3096 1.349 . S
C3085 C3083 1.327 . S
C3085 C3101 1.429 . S
C3085 H3107 0.950 . S
C3086 H3082 0.949 . S
C3086 C3094 1.574 . S
C3086 C3102 1.368 . S
H3087 C3095 0.950 . S
H3088 C3093 0.950 . S
H3089 C3094 0.949 . S
H3090 C3096 0.950 . S
H3091 C3097 0.950 . S
H3092 C3098 0.949 . S
C3093 H3088 0.950 . S
C3093 C3095 1.327 . S
C3093 C3099 1.429 . S
C3094 C3086 1.574 . S
C3094 H3089 0.949 . S
C3094 C3100 1.368 . S
C3095 C3079 1.349 . S
C3095 H3087 0.950 . S
C3095 C3093 1.327 . S
C3096 C3084 1.349 . S
C3096 H3090 0.950 . S
C3096 C3097 1.327 . S
C3097 H3091 0.950 . S
C3097 C3096 1.327 . S
C3097 C3101 1.429 . S
C3098 C3081 1.574 . S
C3098 H3092 0.949 . S
C3098 C3102 1.368 . S
C3099 C3080 1.429 . S
C3099 C3093 1.429 . S
C3099 C3100 1.523 . S
C3100 C3081 1.368 . S
C3100 C3094 1.368 . S
C3100 C3099 1.523 . S
C3101 C3085 1.429 . S
C3101 C3097 1.429 . S
C3101 C3102 1.523 . S
C3102 C3086 1.368 . S
C3102 C3098 1.368 . S
C3102 C3101 1.523 . S
H3103 C3078 0.950 . S
H3104 C3080 0.950 . S
H3105 C3081 0.949 . S
H3106 C3083 0.950 . S
H3107 C3085 0.950 . S
C3108 C3109 1.349 . S
C3108 C3110 1.327 . S
C3108 H3133 0.950 . S
C3109 C3108 1.349 . S
C3109 C3125 1.349 . S
C3110 C3108 1.327 . S
C3110 C3129 1.429 . S
C3110 H3134 0.950 . S
C3111 C3128 1.574 . S
C3111 C3130 1.368 . S
C3111 H3135 0.949 . S
H3112 C3116 0.949 . S
C3113 C3114 1.349 . S
C3113 C3115 1.327 . S
C3113 H3136 0.950 . S
C3114 C3113 1.349 . S
C3114 C3126 1.349 . S
C3115 C3113 1.327 . S
C3115 C3131 1.429 . S
C3115 H3137 0.950 . S
C3116 H3112 0.949 . S
C3116 C3124 1.574 . S
C3116 C3132 1.368 . S
H3117 C3125 0.950 . S
H3118 C3123 0.950 . S
H3119 C3124 0.949 . S
H3120 C3126 0.950 . S
H3121 C3127 0.950 . S
H3122 C3128 0.949 . S
C3123 H3118 0.950 . S
C3123 C3125 1.327 . S
C3123 C3129 1.429 . S
C3124 C3116 1.574 . S
C3124 H3119 0.949 . S
C3124 C3130 1.368 . S
C3125 C3109 1.349 . S
C3125 H3117 0.950 . S
C3125 C3123 1.327 . S
C3126 C3114 1.349 . S
C3126 H3120 0.950 . S
C3126 C3127 1.327 . S
C3127 H3121 0.950 . S
C3127 C3126 1.327 . S
C3127 C3131 1.429 . S
C3128 C3111 1.574 . S
C3128 H3122 0.949 . S
C3128 C3132 1.368 . S
C3129 C3110 1.429 . S
C3129 C3123 1.429 . S
C3129 C3130 1.523 . S
C3130 C3111 1.368 . S
C3130 C3124 1.368 . S
C3130 C3129 1.523 . S
C3131 C3115 1.429 . S
C3131 C3127 1.429 . S
C3131 C3132 1.523 . S
C3132 C3116 1.368 . S
C3132 C3128 1.368 . S
C3132 C3131 1.523 . S
H3133 C3108 0.950 . S
H3134 C3110 0.950 . S
H3135 C3111 0.949 . S
H3136 C3113 0.950 . S
H3137 C3115 0.950 . S
C3138 C3139 1.349 . S
C3138 C3140 1.327 . S
C3138 H3163 0.950 . S
C3139 C3138 1.349 . S
C3139 C3155 1.349 . S
C3140 C3138 1.327 . S
C3140 C3159 1.429 . S
C3140 H3164 0.950 . S
C3141 C3158 1.574 . S
C3141 C3160 1.368 . S
C3141 H3165 0.949 . S
H3142 C3146 0.949 . S
C3143 C3144 1.349 . S
C3143 C3145 1.327 . S
C3143 H3166 0.950 . S
C3144 C3143 1.349 . S
C3144 C3156 1.349 . S
C3145 C3143 1.327 . S
C3145 C3161 1.429 . S
C3145 H3167 0.950 . S
C3146 H3142 0.949 . S
C3146 C3154 1.574 . S
C3146 C3162 1.368 . S
H3147 C3155 0.950 . S
H3148 C3153 0.950 . S
H3149 C3154 0.949 . S
H3150 C3156 0.950 . S
H3151 C3157 0.950 . S
H3152 C3158 0.949 . S
C3153 H3148 0.950 . S
C3153 C3155 1.327 . S
C3153 C3159 1.429 . S
C3154 C3146 1.574 . S
C3154 H3149 0.949 . S
C3154 C3160 1.368 . S
C3155 C3139 1.349 . S
C3155 H3147 0.950 . S
C3155 C3153 1.327 . S
C3156 C3144 1.349 . S
C3156 H3150 0.950 . S
C3156 C3157 1.327 . S
C3157 H3151 0.950 . S
C3157 C3156 1.327 . S
C3157 C3161 1.429 . S
C3158 C3141 1.574 . S
C3158 H3152 0.949 . S
C3158 C3162 1.368 . S
C3159 C3140 1.429 . S
C3159 C3153 1.429 . S
C3159 C3160 1.523 . S
C3160 C3141 1.368 . S
C3160 C3154 1.368 . S
C3160 C3159 1.523 . S
C3161 C3145 1.429 . S
C3161 C3157 1.429 . S
C3161 C3162 1.523 . S
C3162 C3146 1.368 . S
C3162 C3158 1.368 . S
C3162 C3161 1.523 . S
H3163 C3138 0.950 . S
H3164 C3140 0.950 . S
H3165 C3141 0.949 . S
H3166 C3143 0.950 . S
H3167 C3145 0.950 . S
C3168 C3169 1.349 . S
C3168 C3170 1.327 . S
C3168 H3193 0.950 . S
C3169 C3168 1.349 . S
C3169 C3185 1.349 . S
C3170 C3168 1.327 . S
C3170 C3189 1.429 . S
C3170 H3194 0.950 . S
C3171 C3188 1.574 . S
C3171 C3190 1.368 . S
C3171 H3195 0.949 . S
H3172 C3176 0.949 1_455 S
C3173 C3174 1.349 . S
C3173 C3175 1.327 . S
C3173 H3196 0.950 . S
C3174 C3173 1.349 . S
C3174 C3186 1.349 1_655 S
C3175 C3173 1.327 . S
C3175 C3191 1.429 . S
C3175 H3197 0.950 . S
C3176 H3172 0.949 1_655 S
C3176 C3184 1.574 . S
C3176 C3192 1.368 . S
H3177 C3185 0.950 . S
H3178 C3183 0.950 . S
H3179 C3184 0.950 . S
H3180 C3186 0.950 . S
H3181 C3187 0.972 . S
H3182 C3188 0.949 . S
C3183 H3178 0.950 . S
C3183 C3185 1.327 . S
C3183 C3189 1.429 . S
C3184 C3176 1.574 . S
C3184 H3179 0.950 . S
C3184 C3190 1.368 . S
C3185 C3169 1.349 . S
C3185 H3177 0.950 . S
C3185 C3183 1.327 . S
C3186 C3174 1.349 1_455 S
C3186 H3180 0.950 . S
C3186 C3187 1.363 . S
C3187 H3181 0.972 . S
C3187 C3186 1.363 . S
C3187 C3191 1.374 1_455 S
C3188 C3171 1.574 . S
C3188 H3182 0.949 . S
C3188 C3192 1.368 . S
C3189 C3170 1.429 . S
C3189 C3183 1.429 . S
C3189 C3190 1.523 . S
C3190 C3171 1.368 . S
C3190 C3184 1.368 . S
C3190 C3189 1.523 . S
C3191 C3175 1.429 . S
C3191 C3187 1.374 1_655 S
C3191 C3192 1.523 . S
C3192 C3176 1.368 . S
C3192 C3188 1.368 . S
C3192 C3191 1.523 . S
H3193 C3168 0.950 . S
H3194 C3170 0.950 . S
H3195 C3171 0.949 . S
H3196 C3173 0.950 . S
H3197 C3175 0.950 . S
C3198 C3199 1.349 . S
C3198 C3200 1.327 . S
C3198 H3223 0.950 . S
C3199 C3198 1.349 . S
C3199 C3215 1.349 . S
C3200 C3198 1.327 . S
C3200 C3219 1.429 . S
C3200 H3224 0.950 . S
C3201 C3218 1.574 . S
C3201 C3220 1.368 . S
C3201 H3225 0.949 . S
H3202 C3206 0.949 . S
C3203 C3204 1.349 . S
C3203 C3205 1.327 . S
C3203 H3226 0.950 . S
C3204 C3203 1.349 . S
C3204 C3216 1.349 . S
C3205 C3203 1.327 . S
C3205 C3221 1.429 . S
C3205 H3227 0.950 . S
C3206 H3202 0.949 . S
C3206 C3214 1.574 . S
C3206 C3222 1.368 . S
H3207 C3215 0.950 . S
H3208 C3213 0.950 . S
H3209 C3214 0.949 . S
H3210 C3216 0.950 . S
H3211 C3217 0.950 . S
H3212 C3218 0.949 . S
C3213 H3208 0.950 . S
C3213 C3215 1.327 . S
C3213 C3219 1.429 . S
C3214 C3206 1.574 . S
C3214 H3209 0.949 . S
C3214 C3220 1.368 . S
C3215 C3199 1.349 . S
C3215 H3207 0.950 . S
C3215 C3213 1.327 . S
C3216 C3204 1.349 . S
C3216 H3210 0.950 . S
C3216 C3217 1.327 . S
C3217 H3211 0.950 . S
C3217 C3216 1.327 . S
C3217 C3221 1.429 . S
C3218 C3201 1.574 . S
C3218 H3212 0.949 . S
C3218 C3222 1.368 . S
C3219 C3200 1.429 . S
C3219 C3213 1.429 . S
C3219 C3220 1.523 . S
C3220 C3201 1.368 . S
C3220 C3214 1.368 . S
C3220 C3219 1.523 . S
C3221 C3205 1.429 . S
C3221 C3217 1.429 . S
C3221 C3222 1.523 . S
C3222 C3206 1.368 . S
C3222 C3218 1.368 . S
C3222 C3221 1.523 . S
H3223 C3198 0.950 . S
H3224 C3200 0.950 . S
H3225 C3201 0.949 . S
H3226 C3203 0.950 . S
H3227 C3205 0.950 . S
C3228 C3229 1.349 . S
C3228 C3230 1.327 . S
C3228 H3253 0.950 . S
C3229 C3228 1.349 . S
C3229 C3245 1.349 . S
C3230 C3228 1.327 . S
C3230 C3249 1.429 . S
C3230 H3254 0.950 . S
C3231 C3248 1.574 . S
C3231 C3250 1.368 1_565 S
C3231 H3255 0.949 . S
H3232 C3236 0.949 . S
C3233 C3234 1.349 1_565 S
C3233 C3235 1.327 . S
C3233 H3256 0.950 . S
C3234 C3233 1.349 1_545 S
C3234 C3246 1.349 . S
C3235 C3233 1.327 . S
C3235 C3251 1.429 1_565 S
C3235 H3257 0.950 . S
C3236 H3232 0.949 . S
C3236 C3244 1.574 . S
C3236 C3252 1.368 . S
H3237 C3245 0.950 1_565 S
H3238 C3243 0.950 1_565 S
H3239 C3244 0.949 . S
H3240 C3246 0.950 . S
H3241 C3247 0.950 . S
H3242 C3248 0.949 . S
C3243 H3238 0.950 1_545 S
C3243 C3245 1.327 . S
C3243 C3249 1.429 . S
C3244 C3236 1.574 . S
C3244 H3239 0.949 . S
C3244 C3250 1.368 . S
C3245 C3229 1.349 . S
C3245 H3237 0.950 1_545 S
C3245 C3243 1.327 . S
C3246 C3234 1.349 . S
C3246 H3240 0.950 . S
C3246 C3247 1.327 . S
C3247 H3241 0.950 . S
C3247 C3246 1.327 . S
C3247 C3251 1.429 . S
C3248 C3231 1.574 . S
C3248 H3242 0.949 . S
C3248 C3252 1.368 1_565 S
C3249 C3230 1.429 . S
C3249 C3243 1.429 . S
C3249 C3250 1.523 . S
C3250 C3231 1.368 1_545 S
C3250 C3244 1.368 . S
C3250 C3249 1.523 . S
C3251 C3235 1.429 1_545 S
C3251 C3247 1.429 . S
C3251 C3252 1.523 . S
C3252 C3236 1.368 . S
C3252 C3248 1.368 1_545 S
C3252 C3251 1.523 . S
H3253 C3228 0.950 . S
H3254 C3230 0.950 . S
H3255 C3231 0.949 . S
H3256 C3233 0.950 . S
H3257 C3235 0.950 . S
C1099 C8 1.400 . S
C1104 C711 1.456 . S
C1129 C18 1.478 . S
C1134 C759 1.522 . S
C1164 C807 1.495 . S
C1159 C31 1.430 . S
C1189 C34 1.440 . S
C1194 C831 1.489 . S
C1219 C5 1.425 . S
C1224 C903 1.491 . S
C1249 C21 1.485 . S
C1254 C951 1.537 . S
C1279 C47 1.392 . S
C1284 C879 1.455 . S
C1314 C927 1.526 . S
C1309 C57 1.478 . S
C1344 C855 1.517 . S
C1339 C70 1.460 . S
C1369 C73 1.388 . S
C1374 C783 1.454 . S
C1404 C687 1.516 . S
C1399 C44 1.450 . S
C1429 C60 1.483 . S
C1434 C735 1.538 . S
C1459 C86 1.562 . S
C1464 C999 1.614 . S
C1489 C96 1.539 . S
C1494 C1047 1.568 . S
C1524 C1071 1.623 . S
C1519 C109 1.603 . S
C1549 C112 1.577 . S
C1554 C255 1.615 . S
C1579 C83 1.593 . S
C1584 C327 1.631 . S
C1609 C99 1.540 . S
C1614 C375 1.584 . S
C1639 C125 1.485 . S
C1644 C303 1.536 . S
C1669 C135 1.534 . S
C1674 C351 1.577 . S
C1704 C279 1.607 . S
C1699 C148 1.597 . S
C1734 C1095 1.664 . S
C1729 C151 1.647 . S
C1764 C975 1.603 . S
C1759 C122 1.574 . S
C1794 C1023 1.621 . S
C1789 C138 1.574 . S
C1819 C164 1.491 . S
C1824 C423 1.542 . S
C1849 C174 1.519 . S
C1854 C471 1.559 . S
C1879 C187 1.595 . S
C1884 C495 1.623 . S
C1909 C190 1.645 . S
C1914 C543 1.683 . S
C1944 C615 1.621 . S
C1939 C161 1.592 . S
C1974 C663 1.620 . S
C1969 C177 1.576 . S
C2004 C591 1.634 . S
C1999 C203 1.579 . S
C2034 C639 1.589 . S
C2029 C213 1.555 . S
C2059 C226 1.589 . S
C2064 C567 1.588 . S
C2094 C519 1.578 . S
C2089 C229 1.562 . S
C2119 C200 1.592 . S
C2124 C399 1.632 . S
C2154 C447 1.597 . S
C2149 C216 1.551 . S
C2184 C264 1.435 . S
C2179 C0 1.377 . S
C2209 C23 1.351 . S
C2214 C318 1.327 . S
C2244 C366 1.415 . S
C2239 C36 1.438 . S
C2274 C414 1.447 . S
C2269 C26 1.380 1_556 S
C2304 C462 1.376 . S
C2299 C10 1.383 1_556 S
C2334 C504 1.379 . S
C2329 C13 1.330 . S
C2359 C39 1.394 . S
C2364 C510 1.450 . S
C2389 C62 1.344 . S
C2394 C408 1.313 . S
C2419 C75 1.400 . S
C2424 C456 1.357 . S
C2449 C65 1.444 . S
C2454 C312 1.478 . S
C2484 C360 1.358 . S
C2479 C49 1.393 . S
C2509 C52 1.334 . S
C2514 C270 1.371 . S
C2544 C552 1.401 . S
C2539 C78 1.353 . S
C2569 C101 1.476 . S
C2574 C606 1.452 . S
C2599 C114 1.459 1_655 S
C2604 C654 1.471 . S
C2634 C702 1.257 . S
C2629 C104 1.235 . S
C2659 C88 1.360 . S
C2664 C750 1.340 . S
C2689 C91 1.146 . S
C2694 C798 1.162 . S
C2719 C117 1.185 . S
C2724 C792 1.193 . S
C2749 C140 1.202 . S
C2754 C696 1.204 . S
C2784 C744 1.364 . S
C2779 C153 1.385 . S
C2809 C143 1.386 . S
C2814 C600 1.404 . S
C2839 C127 1.479 . S
C2844 C648 1.447 . S
C2874 C558 1.475 . S
C2869 C130 1.445 . S
C2904 C840 1.224 . S
C2899 C156 1.199 . S
C2929 C179 1.191 . S
C2934 C894 1.194 . S
C2959 C192 1.380 . S
C2964 C942 1.365 . S
C2994 C990 1.389 . S
C2989 C182 1.363 . S
C3024 C1038 1.459 . S
C3019 C166 1.484 . S
C3049 C169 1.448 . S
C3054 C1080 1.490 . S
C3079 C195 1.373 . S
C3084 C1086 1.411 . S
C3109 C218 1.468 . S
C3114 C984 1.437 . S
C3144 C1032 1.437 . S
C3139 C231 1.524 . S
C3174 C888 1.228 . S
C3169 C221 1.210 . S
C3204 C936 1.344 . S
C3199 C205 1.371 . S
C3229 C208 1.168 . S
C3234 C846 1.189 . S
