# Generated by pormake.
# Topology pto, (3,4)-cn, num edge types: 1
# Building blocks:
#     Node 0, Type 0, BuildingBlock: OLANEW_clean_sbu_2, # of connection points: 3
#     Node 1, Type 0, BuildingBlock: OLANEW_clean_sbu_2, # of connection points: 3
#     Node 2, Type 0, BuildingBlock: OLANEW_clean_sbu_2, # of connection points: 3
#     Node 3, Type 0, BuildingBlock: OLANEW_clean_sbu_2, # of connection points: 3
#     Node 4, Type 0, BuildingBlock: OLANEW_clean_sbu_2, # of connection points: 3
#     Node 5, Type 0, BuildingBlock: OLANEW_clean_sbu_2, # of connection points: 3
#     Node 6, Type 0, BuildingBlock: OLANEW_clean_sbu_2, # of connection points: 3
#     Node 7, Type 0, BuildingBlock: OLANEW_clean_sbu_2, # of connection points: 3
#     Node 8, Type 1, BuildingBlock: KUFVIS_clean_linker_0, # of connection points: 4
#     Node 9, Type 1, BuildingBlock: KUFVIS_clean_linker_0, # of connection points: 4
#     Node 10, Type 1, BuildingBlock: KUFVIS_clean_linker_0, # of connection points: 4
#     Node 11, Type 1, BuildingBlock: KUFVIS_clean_linker_0, # of connection points: 4
#     Node 12, Type 1, BuildingBlock: KUFVIS_clean_linker_0, # of connection points: 4
#     Node 13, Type 1, BuildingBlock: KUFVIS_clean_linker_0, # of connection points: 4
#     Edge 14, Type (0, 1), BuildingBlock: UVAHIK_clean_linker_0, # of connection points: 2
#     Edge 15, Type (0, 1), BuildingBlock: UVAHIK_clean_linker_0, # of connection points: 2
#     Edge 16, Type (0, 1), BuildingBlock: UVAHIK_clean_linker_0, # of connection points: 2
#     Edge 17, Type (0, 1), BuildingBlock: UVAHIK_clean_linker_0, # of connection points: 2
#     Edge 18, Type (0, 1), BuildingBlock: UVAHIK_clean_linker_0, # of connection points: 2
#     Edge 19, Type (0, 1), BuildingBlock: UVAHIK_clean_linker_0, # of connection points: 2
#     Edge 20, Type (0, 1), BuildingBlock: UVAHIK_clean_linker_0, # of connection points: 2
#     Edge 21, Type (0, 1), BuildingBlock: UVAHIK_clean_linker_0, # of connection points: 2
#     Edge 22, Type (0, 1), BuildingBlock: UVAHIK_clean_linker_0, # of connection points: 2
#     Edge 23, Type (0, 1), BuildingBlock: UVAHIK_clean_linker_0, # of connection points: 2
#     Edge 24, Type (0, 1), BuildingBlock: UVAHIK_clean_linker_0, # of connection points: 2
#     Edge 25, Type (0, 1), BuildingBlock: UVAHIK_clean_linker_0, # of connection points: 2
#     Edge 26, Type (0, 1), BuildingBlock: UVAHIK_clean_linker_0, # of connection points: 2
#     Edge 27, Type (0, 1), BuildingBlock: UVAHIK_clean_linker_0, # of connection points: 2
#     Edge 28, Type (0, 1), BuildingBlock: UVAHIK_clean_linker_0, # of connection points: 2
#     Edge 29, Type (0, 1), BuildingBlock: UVAHIK_clean_linker_0, # of connection points: 2
#     Edge 30, Type (0, 1), BuildingBlock: UVAHIK_clean_linker_0, # of connection points: 2
#     Edge 31, Type (0, 1), BuildingBlock: UVAHIK_clean_linker_0, # of connection points: 2
#     Edge 32, Type (0, 1), BuildingBlock: UVAHIK_clean_linker_0, # of connection points: 2
#     Edge 33, Type (0, 1), BuildingBlock: UVAHIK_clean_linker_0, # of connection points: 2
#     Edge 34, Type (0, 1), BuildingBlock: UVAHIK_clean_linker_0, # of connection points: 2
#     Edge 35, Type (0, 1), BuildingBlock: UVAHIK_clean_linker_0, # of connection points: 2
#     Edge 36, Type (0, 1), BuildingBlock: UVAHIK_clean_linker_0, # of connection points: 2
#     Edge 37, Type (0, 1), BuildingBlock: UVAHIK_clean_linker_0, # of connection points: 2
# Relax obj value: 0.007
# Max RMSD: 0.123
# Mean RMSD: 0.071
data_MOF--net-pto--node1-OLANEW_clean_sbu_2--node2-KUFVIS_clean_linker_0--edge1-UVAHIK_clean_linker_0
_symmetry_space_group_name_H-M    P1
_symmetry_Int_Tables_number       1
_symmetry_cell_setting            triclinic
loop_
_symmetry_equiv_pos_as_xyz
'x, y, z'
_cell_length_a     38.583419
_cell_length_b     70.009737
_cell_length_c     54.497008
_cell_angle_alpha  92.433042
_cell_angle_beta   89.282763
_cell_angle_gamma 106.93458
loop_
_atom_site_label
_atom_site_type_symbol
_atom_site_fract_x
_atom_site_fract_y
_atom_site_fract_z
_atom_type_partial_charge
O0 O 0.34907 0.3246 0.31006 0.0
Cd1 Cd 0.33767 0.32101 0.35404 0.0
O2 O 0.34225 0.35456 0.31318 0.0
Cd3 Cd 0.33522 0.38268 0.30126 0.0
O4 O 0.31772 0.40953 0.29878 0.0
C5 C 0.30036 0.41222 0.28021 0.0
O6 O 0.29431 0.39896 0.26177 0.0
C7 C 0.34844 0.34051 0.29991 0.0
C8 C 0.34682 0.28568 0.37087 0.0
O9 O 0.31626 0.28616 0.36239 0.0
O10 O 0.37311 0.30188 0.3712 0.0
O11 O 0.18216 0.88078 0.82037 0.0
Cd12 Cd 0.14145 0.89392 0.79664 0.0
O13 O 0.17719 0.85612 0.79325 0.0
Cd14 Cd 0.1878 0.82959 0.77564 0.0
O15 O 0.1876 0.80068 0.75865 0.0
C16 C 0.17869 0.78516 0.77133 0.0
O17 O 0.17089 0.78699 0.79469 0.0
C18 C 0.19017 0.86502 0.81344 0.0
C19 C 0.17707 0.91986 0.76077 0.0
O20 O 0.17408 0.92631 0.78282 0.0
O21 O 0.16349 0.90111 0.75575 0.0
O22 O 0.82926 0.79971 0.3233 0.0
Cd23 Cd 0.79796 0.7676 0.30238 0.0
O24 O 0.81472 0.81626 0.29357 0.0
Cd25 Cd 0.79086 0.79077 0.26849 0.0
O26 O 0.76251 0.7773 0.23475 0.0
C27 C 0.77957 0.77986 0.21447 0.0
O28 O 0.81443 0.78926 0.21469 0.0
C29 C 0.82903 0.81621 0.31445 0.0
C30 C 0.82259 0.73495 0.31259 0.0
O31 O 0.83364 0.74519 0.29357 0.0
O32 O 0.80059 0.74043 0.32714 0.0
O33 O 0.76645 0.29215 0.63799 0.0
Cd34 Cd 0.73179 0.25792 0.64764 0.0
O35 O 0.75748 0.2975 0.67689 0.0
Cd36 Cd 0.75501 0.31309 0.7122 0.0
O37 O 0.7499 0.32407 0.74967 0.0
C38 C 0.75349 0.34239 0.75495 0.0
O39 O 0.76093 0.35524 0.73735 0.0
C40 C 0.7701 0.30441 0.65633 0.0
C41 C 0.75825 0.22659 0.63092 0.0
O42 O 0.73679 0.23282 0.61773 0.0
O43 O 0.76825 0.23566 0.65173 0.0
O44 O 0.70269 0.7735 0.58841 0.0
Cd45 Cd 0.68005 0.73739 0.59443 0.0
O46 O 0.72073 0.78001 0.62664 0.0
Cd47 Cd 0.73648 0.79857 0.66028 0.0
O48 O 0.73294 0.80747 0.69893 0.0
C49 C 0.71778 0.82087 0.7048 0.0
O50 O 0.70665 0.82999 0.68727 0.0
C51 C 0.71591 0.78621 0.60572 0.0
C52 C 0.72896 0.7149 0.59676 0.0
O53 O 0.71615 0.71779 0.57611 0.0
O54 O 0.71984 0.72335 0.61611 0.0
O55 O 0.82894 0.29036 0.3317 0.0
Cd56 Cd 0.81232 0.25833 0.30779 0.0
O57 O 0.79554 0.3022 0.30748 0.0
Cd58 Cd 0.77545 0.2762 0.28243 0.0
O59 O 0.74943 0.26522 0.24711 0.0
C60 C 0.76673 0.27183 0.22775 0.0
O61 O 0.8002 0.28346 0.22987 0.0
C62 C 0.81684 0.30462 0.32573 0.0
C63 C 0.81435 0.22402 0.33176 0.0
O64 O 0.84284 0.23533 0.3218 0.0
O65 O 0.78518 0.22925 0.33103 0.0
O66 O 0.21099 0.35205 0.77769 0.0
Cd67 Cd 0.16434 0.35074 0.74719 0.0
O68 O 0.21875 0.32486 0.76016 0.0
Cd69 Cd 0.24497 0.30128 0.75327 0.0
O70 O 0.26728 0.27952 0.7339 0.0
C71 C 0.28477 0.26913 0.744 0.0
O72 O 0.29025 0.27118 0.76784 0.0
C73 C 0.22667 0.33839 0.77721 0.0
C74 C 0.17168 0.3863 0.72353 0.0
O75 O 0.15648 0.38327 0.74464 0.0
O76 O 0.18421 0.37267 0.7138 0.0
O77 O 0.36826 0.86091 0.28667 0.0
Cd78 Cd 0.34925 0.8559 0.32941 0.0
O79 O 0.31838 0.83917 0.27255 0.0
Cd80 Cd 0.29948 0.82668 0.3081 0.0
O81 O 0.27857 0.80101 0.33127 0.0
C82 C 0.29216 0.78661 0.32774 0.0
O83 O 0.31855 0.78853 0.3117 0.0
C84 C 0.34832 0.85232 0.26865 0.0
C85 C 0.36552 0.89212 0.35663 0.0
O86 O 0.38745 0.88142 0.35598 0.0
O87 O 0.33593 0.88568 0.34443 0.0
H88 H 0.03431 0.48954 0.34713 0.0
H89 H 0.97491 0.52766 0.37914 0.0
H90 H 0.07793 0.55301 0.34336 0.0
H91 H 0.08045 0.57536 0.37785 0.0
H92 H 0.02077 0.61842 0.37729 0.0
H93 H 0.96722 0.55702 0.35792 0.0
C94 C 0.03191 0.5044 0.35127 0.0
C95 C 0.05929 0.52103 0.34383 0.0
C96 C 0.00159 0.50665 0.36408 0.0
C97 C 0.99835 0.52593 0.36915 0.0
C98 C 0.02614 0.54294 0.36209 0.0
C99 C 0.0566 0.54024 0.3494 0.0
C100 C 0.02387 0.56355 0.36784 0.0
C101 C 0.05523 0.57886 0.3752 0.0
C102 C 0.05452 0.59875 0.37865 0.0
C103 C 0.02157 0.60306 0.37573 0.0
C104 C 0.99007 0.58812 0.36856 0.0
C105 C 0.99126 0.56838 0.36445 0.0
H106 H 0.98644 0.62023 0.6512 0.0
H107 H 0.04019 0.57516 0.65649 0.0
H108 H 0.93657 0.56168 0.61933 0.0
H109 H 0.93146 0.53088 0.63418 0.0
H110 H 0.9932 0.48972 0.62017 0.0
H111 H 0.04859 0.55206 0.62984 0.0
C112 C 0.98684 0.60496 0.64731 0.0
C113 C 0.95756 0.5914 0.63517 0.0
C114 C 0.01676 0.59918 0.65442 0.0
C115 C 0.01734 0.57945 0.64983 0.0
C116 C 0.98862 0.56551 0.63697 0.0
C117 C 0.95887 0.57185 0.62943 0.0
C118 C 0.98973 0.5445 0.63162 0.0
C119 C 0.95749 0.52838 0.63056 0.0
C120 C 0.95875 0.50873 0.62567 0.0
C121 C 0.99224 0.50504 0.62243 0.0
C122 C 0.02455 0.52054 0.62478 0.0
C123 C 0.02325 0.54024 0.62872 0.0
H124 H 0.38412 0.16133 0.54782 0.0
H125 H 0.3741 0.10812 0.5868 0.0
H126 H 0.36681 0.10546 0.5075 0.0
H127 H 0.39247 0.08036 0.51214 0.0
H128 H 0.35453 0.02477 0.54779 0.0
H129 H 0.33456 0.07727 0.58099 0.0
C130 C 0.38117 0.14544 0.54763 0.0
C131 C 0.37711 0.13458 0.52514 0.0
C132 C 0.37916 0.13588 0.56988 0.0
C133 C 0.37431 0.11521 0.5695 0.0
C134 C 0.37018 0.10388 0.54708 0.0
C135 C 0.37103 0.11379 0.52494 0.0
C136 C 0.36492 0.08182 0.54691 0.0
C137 C 0.37824 0.07206 0.52737 0.0
C138 C 0.37415 0.0515 0.52764 0.0
C139 C 0.3571 0.04061 0.5476 0.0
C140 C 0.34283 0.04979 0.56697 0.0
C141 C 0.34666 0.07036 0.56642 0.0
H142 H 0.5417 0.82163 0.07225 0.0
H143 H 0.55899 0.80139 0.999 0.0
H144 H 0.48981 0.83952 0.01191 0.0
H145 H 0.45883 0.81902 0.98088 0.0
H146 H 0.48971 0.8142 0.90574 0.0
H147 H 0.568 0.81854 0.96265 0.0
C148 C 0.53697 0.8215 0.05266 0.0
C149 C 0.51367 0.83172 0.04392 0.0
C150 C 0.5536 0.81072 0.03656 0.0
C151 C 0.54698 0.81028 0.01124 0.0
C152 C 0.52354 0.82042 0.00197 0.0
C153 C 0.50735 0.83129 0.01858 0.0
C154 C 0.51461 0.81891 0.97523 0.0
C155 C 0.47957 0.81841 0.96753 0.0
C156 C 0.4706 0.8167 0.94255 0.0
C157 C 0.49652 0.81506 0.92509 0.0
C158 C 0.53162 0.81559 0.93217 0.0
C159 C 0.54068 0.81775 0.95725 0.0
H160 H 0.83503 0.08627 0.48769 0.0
H161 H 0.83895 0.037 0.53058 0.0
H162 H 0.82897 0.02996 0.45131 0.0
H163 H 0.86482 0.00928 0.45815 0.0
H164 H 0.8409 0.95507 0.49729 0.0
H165 H 0.8051 0.00374 0.52666 0.0
C166 C 0.83536 0.07086 0.4887 0.0
C167 C 0.83252 0.05911 0.46709 0.0
C168 C 0.83717 0.06293 0.51158 0.0
C169 C 0.83673 0.04286 0.51278 0.0
C170 C 0.8345 0.03068 0.4911 0.0
C171 C 0.83187 0.03901 0.4682 0.0
C172 C 0.83548 0.00951 0.49247 0.0
C173 C 0.85261 1.00082 0.47382 0.0
C174 C 0.85481 0.98122 0.47554 0.0
C175 C 0.84016 0.97039 0.49609 0.0
C176 C 0.8225 0.97845 0.51449 0.0
C177 C 0.81972 0.99788 0.51258 0.0
H178 H 0.50996 0.30818 0.09014 0.0
H179 H 0.5576 0.31366 0.01812 0.0
H180 H 0.4732 0.34093 0.03659 0.0
H181 H 0.46021 0.33011 0.99454 0.0
H182 H 0.52517 0.35802 0.93418 0.0
H183 H 0.57677 0.3438 0.99733 0.0
C184 C 0.51091 0.31317 0.07151 0.0
C185 C 0.48786 0.3243 0.06494 0.0
C186 C 0.53657 0.30951 0.05493 0.0
C187 C 0.53842 0.31685 0.03118 0.0
C188 C 0.5155 0.32812 0.02421 0.0
C189 C 0.49046 0.3319 0.04139 0.0
C190 C 0.51819 0.33631 0.99926 0.0
C191 C 0.48671 0.33647 0.98652 0.0
C192 C 0.48919 0.3446 0.96324 0.0
C193 C 0.52332 0.35245 0.95258 0.0
C194 C 0.55487 0.35186 0.96458 0.0
C195 C 0.55223 0.3439 0.98796 0.0
C196 C 0.2892 0.44261 0.30078 0.0
C197 C 0.28366 0.42879 0.28066 0.0
C198 C 0.27004 0.45675 0.30267 0.0
C199 C 0.18326 0.46226 0.28397 0.0
H200 H 0.22075 0.51611 0.31207 0.0
C201 C 0.086 0.50804 0.30739 0.0
C202 C 0.0908 0.51779 0.33063 0.0
C203 C 0.11353 0.50118 0.29683 0.0
C204 C 0.20984 0.50108 0.30428 0.0
H205 H 0.2553 0.41983 0.24601 0.0
H206 H 0.22189 0.44453 0.24935 0.0
H207 H 0.26239 0.49649 0.3017 0.0
H208 H 0.12814 0.52889 0.36073 0.0
H209 H 0.17613 0.51641 0.34273 0.0
H210 H 0.13072 0.46625 0.28752 0.0
C211 C 0.24074 0.44423 0.26379 0.0
C212 C 0.23371 0.48988 0.29829 0.0
C213 C 0.25999 0.43013 0.26185 0.0
C214 C 0.12417 0.52158 0.34263 0.0
C215 C 0.1516 0.51445 0.33224 0.0
C216 C 0.15945 0.47335 0.29008 0.0
C217 C 0.24487 0.45736 0.28452 0.0
C218 C 0.22057 0.47023 0.28841 0.0
C219 C 0.14611 0.50354 0.30958 0.0
C220 C 0.1723 0.49281 0.30066 0.0
H221 H 0.30739 0.44206 0.31553 0.0
H222 H 0.27364 0.46655 0.31895 0.0
H223 H 0.17215 0.44704 0.27682 0.0
H224 H 0.06034 0.50498 0.29788 0.0
H225 H 0.10866 0.49329 0.2791 0.0
C226 C 0.15892 0.7478 0.77266 0.0
C227 C 0.17396 0.76512 0.75948 0.0
C228 C 0.15107 0.72889 0.76092 0.0
C229 C 0.12976 0.70512 0.69929 0.0
H230 H 0.1333 0.65745 0.7317 0.0
C231 C 0.07164 0.62823 0.65183 0.0
C232 C 0.04733 0.61432 0.66629 0.0
C233 C 0.09547 0.64538 0.66275 0.0
C234 C 0.13218 0.67064 0.72241 0.0
H235 H 0.19452 0.77608 0.72393 0.0
H236 H 0.18139 0.74308 0.70354 0.0
H237 H 0.16006 0.69033 0.75167 0.0
H238 H 0.02943 0.60669 0.70329 0.0
H239 H 0.07103 0.63674 0.7226 0.0
H240 H 0.10112 0.68555 0.67039 0.0
C241 C 0.17488 0.74413 0.72284 0.0
C242 C 0.14743 0.68947 0.73386 0.0
C243 C 0.18257 0.76305 0.73456 0.0
C244 C 0.04846 0.61715 0.69191 0.0
C245 C 0.07227 0.63434 0.70288 0.0
C246 C 0.11466 0.68636 0.68785 0.0
C247 C 0.15825 0.72683 0.73573 0.0
C248 C 0.1458 0.70692 0.72262 0.0
C249 C 0.09511 0.649 0.68834 0.0
C250 C 0.11511 0.66887 0.69944 0.0
H251 H 0.15201 0.74884 0.7919 0.0
H252 H 0.13792 0.71594 0.77138 0.0
H253 H 0.12735 0.71816 0.69026 0.0
H254 H 0.07083 0.62635 0.63199 0.0
H255 H 0.11308 0.65623 0.65108 0.0
C256 C 0.84888 0.70768 0.29825 0.0
C257 C 0.83421 0.71706 0.31728 0.0
C258 C 0.8592 0.69054 0.30246 0.0
C259 C 0.8509 0.65077 0.34801 0.0
H260 H 0.93658 0.64482 0.31448 0.0
C261 C 0.9428 0.60455 0.38053 0.0
C262 C 0.95785 0.59437 0.36256 0.0
C263 C 0.91995 0.61569 0.3738 0.0
C264 C 0.91222 0.64606 0.32367 0.0
H265 H 0.81899 0.71589 0.35572 0.0
H266 H 0.83856 0.6866 0.36344 0.0
H267 H 0.914 0.6727 0.30546 0.0
H268 H 0.95943 0.58684 0.32373 0.0
H269 H 0.91955 0.60649 0.31184 0.0
H270 H 0.85079 0.6246 0.36725 0.0
C271 C 0.84105 0.69201 0.345 0.0
C272 C 0.89916 0.66208 0.31848 0.0
C273 C 0.83013 0.70895 0.34065 0.0
C274 C 0.94768 0.59433 0.33793 0.0
C275 C 0.92524 0.60573 0.33113 0.0
C276 C 0.86438 0.6349 0.35348 0.0
C277 C 0.85577 0.68253 0.32595 0.0
C278 C 0.86848 0.6648 0.33072 0.0
C279 C 0.91231 0.61713 0.34892 0.0
C280 C 0.89533 0.63248 0.34147 0.0
H281 H 0.85193 0.71341 0.27995 0.0
H282 H 0.86964 0.68351 0.28716 0.0
H283 H 0.8268 0.65206 0.35747 0.0
H284 H 0.95073 0.60498 0.3996 0.0
H285 H 0.91059 0.62441 0.38788 0.0
C286 C 0.78806 0.33421 0.62996 0.0
C287 C 0.78668 0.32615 0.65327 0.0
C288 C 0.8023 0.3548 0.62704 0.0
C289 C 0.85934 0.40129 0.65929 0.0
H290 H 0.82135 0.42731 0.60904 0.0
C291 C 0.91021 0.48614 0.65019 0.0
C292 C 0.92625 0.49132 0.62723 0.0
C293 C 0.88701 0.46694 0.65347 0.0
C294 C 0.83202 0.42021 0.62321 0.0
H295 H 0.80191 0.33346 0.69141 0.0
H296 H 0.82381 0.36918 0.68686 0.0
H297 H 0.79419 0.39163 0.61494 0.0
H298 H 0.92904 0.48121 0.58939 0.0
H299 H 0.88734 0.44781 0.59488 0.0
H300 H 0.89671 0.43 0.66776 0.0
C301 C 0.81431 0.35971 0.67065 0.0
C302 C 0.81678 0.39972 0.62647 0.0
C303 C 0.80074 0.33912 0.67344 0.0
C304 C 0.91651 0.47759 0.60716 0.0
C305 C 0.89279 0.45851 0.61034 0.0
C306 C 0.87403 0.42179 0.65634 0.0
C307 C 0.8153 0.3679 0.6474 0.0
C308 C 0.83051 0.3899 0.64439 0.0
C309 C 0.87911 0.45274 0.63375 0.0
C310 C 0.86078 0.43141 0.63814 0.0
H311 H 0.77782 0.32463 0.61394 0.0
H312 H 0.80339 0.36035 0.60872 0.0
H313 H 0.87138 0.39435 0.67288 0.0
H314 H 0.91786 0.49639 0.66599 0.0
H315 H 0.87666 0.46285 0.67168 0.0
C316 C 0.38354 0.2674 0.39261 0.0
C317 C 0.35131 0.26715 0.38071 0.0
C318 C 0.387 0.25024 0.40326 0.0
C319 C 0.33118 0.20303 0.42839 0.0
H320 H 0.4235 0.19164 0.43166 0.0
C321 C 0.34848 0.13906 0.48555 0.0
C322 C 0.37751 0.14523 0.50217 0.0
C323 C 0.34607 0.15108 0.46612 0.0
C324 C 0.39752 0.1946 0.43084 0.0
H325 H 0.2979 0.24844 0.36985 0.0
H326 H 0.30414 0.2184 0.38808 0.0
H327 H 0.41741 0.21826 0.40604 0.0
H328 H 0.4279 0.168 0.51069 0.0
H329 H 0.42386 0.1889 0.47682 0.0
H330 H 0.31152 0.17966 0.45357 0.0
C331 C 0.32652 0.23198 0.38961 0.0
C332 C 0.39404 0.2099 0.41625 0.0
C333 C 0.323 0.24918 0.37905 0.0
C334 C 0.40515 0.16296 0.49817 0.0
C335 C 0.40294 0.17485 0.47868 0.0
C336 C 0.33461 0.18767 0.44285 0.0
C337 C 0.35837 0.23236 0.40216 0.0
C338 C 0.36106 0.21463 0.41532 0.0
C339 C 0.37286 0.16934 0.46286 0.0
C340 C 0.36803 0.1836 0.44469 0.0
H341 H 0.40586 0.281 0.39425 0.0
H342 H 0.41171 0.25121 0.41309 0.0
H343 H 0.3055 0.20639 0.4284 0.0
H344 H 0.32673 0.12549 0.48832 0.0
H345 H 0.32273 0.14637 0.45408 0.0
C346 C 0.2134 0.83742 0.82811 0.0
C347 C 0.21481 0.85772 0.82866 0.0
C348 C 0.23728 0.83086 0.84234 0.0
C349 C 0.29343 0.84293 0.89757 0.0
H350 H 0.35334 0.81404 0.86436 0.0
C351 C 0.42321 0.83446 0.94121 0.0
C352 C 0.43495 0.81785 0.93425 0.0
C353 C 0.3924 0.83719 0.93045 0.0
C354 C 0.33634 0.82167 0.87416 0.0
H355 H 0.24111 0.88688 0.84561 0.0
H356 H 0.28219 0.87531 0.87088 0.0
H357 H 0.3066 0.82266 0.84153 0.0
H358 H 0.42276 0.79042 0.91191 0.0
H359 H 0.36794 0.79459 0.89393 0.0
H360 H 0.32265 0.84179 0.93029 0.0
C361 C 0.26299 0.86456 0.85911 0.0
C362 C 0.30968 0.8267 0.86096 0.0
C363 C 0.23955 0.87117 0.84458 0.0
C364 C 0.4143 0.80344 0.9174 0.0
C365 C 0.38313 0.80596 0.90695 0.0
C366 C 0.31968 0.8376 0.9109 0.0
C367 C 0.26233 0.84439 0.85791 0.0
C368 C 0.28844 0.83767 0.87244 0.0
C369 C 0.37235 0.82318 0.91277 0.0
C370 C 0.34198 0.82721 0.89928 0.0
H371 H 0.19335 0.82648 0.81723 0.0
H372 H 0.23582 0.81516 0.84145 0.0
H373 H 0.27705 0.85121 0.90689 0.0
H374 H 0.43896 0.84588 0.95399 0.0
H375 H 0.38539 0.85077 0.9352 0.0
C376 C 0.8364 0.85279 0.32092 0.0
C377 C 0.84324 0.83536 0.32881 0.0
C378 C 0.84693 0.87056 0.33519 0.0
C379 C 0.86922 0.88868 0.39947 0.0
H380 H 0.8925 0.94068 0.37074 0.0
C381 C 0.89219 0.9592 0.461 0.0
C382 C 0.86949 0.9709 0.4554 0.0
C383 C 0.89811 0.94512 0.44381 0.0
C384 C 0.88613 0.92626 0.379 0.0
H385 H 0.86807 0.82324 0.35745 0.0
H386 H 0.88746 0.85445 0.38209 0.0
H387 H 0.88626 0.9108 0.34428 0.0
H388 H 0.83789 0.97833 0.42671 0.0
H389 H 0.84855 0.95381 0.39644 0.0
H390 H 0.86882 0.90411 0.43412 0.0
C391 C 0.87303 0.85423 0.36513 0.0
C392 C 0.88236 0.9091 0.36386 0.0
C393 C 0.86211 0.83634 0.35093 0.0
C394 C 0.85568 0.9696 0.43146 0.0
C395 C 0.8617 0.95551 0.41417 0.0
C396 C 0.87339 0.90582 0.41457 0.0
C397 C 0.86498 0.8715 0.35766 0.0
C398 C 0.8731 0.89002 0.37385 0.0
C399 C 0.88158 0.9425 0.4206 0.0
C400 C 0.88128 0.92477 0.4045 0.0
H401 H 0.8218 0.8526 0.30402 0.0
H402 H 0.83963 0.88335 0.32896 0.0
H403 H 0.86141 0.87431 0.40788 0.0
H404 H 0.90352 0.96007 0.47925 0.0
H405 H 0.91415 0.93559 0.44911 0.0
C406 C 0.74066 0.33518 0.79926 0.0
C407 C 0.74649 0.34877 0.7803 0.0
C408 C 0.73055 0.34046 0.82267 0.0
C409 C 0.68115 0.37234 0.8515 0.0
H410 H 0.70953 0.35373 0.91197 0.0
C411 C 0.6002 0.37573 0.93886 0.0
C412 C 0.58977 0.35776 0.95125 0.0
C413 C 0.62865 0.37934 0.92196 0.0
C414 C 0.70131 0.35904 0.89526 0.0
H415 H 0.74813 0.37894 0.7714 0.0
H416 H 0.73021 0.38811 0.81236 0.0
H417 H 0.7427 0.3512 0.87406 0.0
H418 H 0.60225 0.33009 0.95703 0.0
H419 H 0.6513 0.33605 0.92714 0.0
H420 H 0.63861 0.37915 0.87206 0.0
C421 C 0.73327 0.37332 0.80899 0.0
C422 C 0.72036 0.35762 0.87358 0.0
C423 C 0.7436 0.36808 0.78556 0.0
C424 C 0.60997 0.34413 0.94783 0.0
C425 C 0.63816 0.34761 0.9307 0.0
C426 C 0.662 0.37364 0.87308 0.0
C427 C 0.7259 0.35942 0.82764 0.0
C428 C 0.70984 0.36377 0.85135 0.0
C429 C 0.64687 0.36489 0.91683 0.0
C430 C 0.67119 0.36652 0.89511 0.0
H431 H 0.74287 0.32023 0.79586 0.0
H432 H 0.72469 0.32934 0.83655 0.0
H433 H 0.67204 0.37696 0.83463 0.0
H434 H 0.58522 0.38657 0.94141 0.0
H435 H 0.63524 0.39303 0.91208 0.0
C436 C 0.21326 0.9538 0.74764 0.0
C437 C 0.19515 0.93367 0.74156 0.0
C438 C 0.22982 0.96689 0.7294 0.0
C439 C 0.26322 0.9675 0.66512 0.0
H440 H 0.25765 0.02198 0.66822 0.0
C441 C 0.301 0.01821 0.58293 0.0
C442 C 0.32389 0.03769 0.5876 0.0
C443 C 0.28532 0.00618 0.60224 0.0
C444 C 0.25968 0.00686 0.66725 0.0
H445 H 0.18007 0.91154 0.71152 0.0
H446 H 0.20815 0.93439 0.6797 0.0
H447 H 0.23059 0.99954 0.70091 0.0
H448 H 0.34731 0.05997 0.61632 0.0
H449 H 0.31926 0.03895 0.65014 0.0
H450 H 0.2917 0.97473 0.63123 0.0
C451 C 0.21031 0.94003 0.69861 0.0
C452 C 0.24429 0.994 0.686 0.0
C453 C 0.19399 0.92692 0.71685 0.0
C454 C 0.32961 0.0451 0.61208 0.0
C455 C 0.31364 0.03306 0.63144 0.0
C456 C 0.27831 0.98029 0.64632 0.0
C457 C 0.22847 0.96018 0.70463 0.0
C458 C 0.24568 0.97411 0.68509 0.0
C459 C 0.29184 0.01335 0.6267 0.0
C460 C 0.27651 1.00006 0.6471 0.0
H461 H 0.21477 0.95945 0.76653 0.0
H462 H 0.244 0.98222 0.73478 0.0
H463 H 0.26555 0.95244 0.66405 0.0
H464 H 0.29528 0.0122 0.56429 0.0
H465 H 0.26803 0.99119 0.59801 0.0
C466 C 0.72164 0.76708 0.19072 0.0
C467 C 0.75953 0.77511 0.19092 0.0
C468 C 0.70218 0.76542 0.16889 0.0
C469 C 0.70948 0.79038 0.11074 0.0
H470 H 0.61836 0.75 0.09672 0.0
C471 C 0.61277 0.80261 0.03782 0.0
C472 C 0.57742 0.7998 0.04676 0.0
C473 C 0.63705 0.79497 0.05025 0.0
C474 C 0.64383 0.76136 0.10032 0.0
H475 H 0.80692 0.78632 0.168 0.0
H476 H 0.77292 0.78329 0.12988 0.0
H477 H 0.65804 0.74475 0.12871 0.0
H478 H 0.53875 0.78546 0.07435 0.0
H479 H 0.58093 0.77237 0.09614 0.0
H480 H 0.69465 0.80742 0.08326 0.0
C481 C 0.75823 0.7786 0.1467 0.0
C482 C 0.66653 0.75836 0.11866 0.0
C483 C 0.77771 0.78025 0.16854 0.0
C484 C 0.56602 0.78805 0.06725 0.0
C485 C 0.59013 0.78036 0.07958 0.0
C486 C 0.6868 0.79338 0.09245 0.0
C487 C 0.72017 0.77173 0.14675 0.0
C488 C 0.69907 0.77313 0.12461 0.0
C489 C 0.62627 0.78427 0.07172 0.0
C490 C 0.65316 0.77921 0.08758 0.0
H491 H 0.70678 0.76289 0.20761 0.0
H492 H 0.67287 0.76023 0.16967 0.0
H493 H 0.73412 0.80218 0.11502 0.0
H494 H 0.62219 0.81161 0.02204 0.0
H495 H 0.6646 0.79802 0.04357 0.0
C496 C 0.79298 0.20192 0.63743 0.0
C497 C 0.76973 0.20888 0.62284 0.0
C498 C 0.80215 0.18455 0.63033 0.0
C499 C 0.77051 0.13853 0.59091 0.0
H500 H 0.87014 0.13722 0.59381 0.0
C501 C 0.80891 0.07057 0.55092 0.0
C502 C 0.83729 0.07583 0.53384 0.0
C503 C 0.80321 0.08494 0.5679 0.0
C504 C 0.84215 0.1373 0.59305 0.0
H505 H 0.73831 0.20317 0.58917 0.0
H506 H 0.75452 0.17308 0.57673 0.0
H507 H 0.85429 0.16665 0.61011 0.0
H508 H 0.88388 0.0995 0.52249 0.0
H509 H 0.87416 0.12452 0.552 0.0
H510 H 0.75852 0.10966 0.57286 0.0
C511 C 0.76526 0.18086 0.59384 0.0
C512 C 0.83303 0.15411 0.60251 0.0
C513 C 0.75622 0.19822 0.60087 0.0
C514 C 0.86179 0.09511 0.5355 0.0
C515 C 0.85623 0.10942 0.55248 0.0
C516 C 0.77957 0.12174 0.58153 0.0
C517 C 0.78808 0.17372 0.60856 0.0
C518 C 0.79727 0.15512 0.60094 0.0
C519 C 0.82593 0.10476 0.56813 0.0
C520 C 0.81566 0.1211 0.58192 0.0
H521 H 0.80378 0.20976 0.6545 0.0
H522 H 0.81968 0.1794 0.64211 0.0
H523 H 0.74259 0.1387 0.58981 0.0
H524 H 0.78956 0.05582 0.5499 0.0
H525 H 0.77994 0.08081 0.57997 0.0
C526 C 0.34592 0.32462 0.25794 0.0
C527 C 0.35411 0.34208 0.27309 0.0
C528 C 0.3533 0.3256 0.23283 0.0
C529 C 0.41419 0.35714 0.18876 0.0
H530 H 0.35481 0.3189 0.14148 0.0
C531 C 0.4635 0.34846 0.0898 0.0
C532 C 0.46259 0.32866 0.08349 0.0
C533 C 0.44393 0.35266 0.11009 0.0
C534 C 0.37156 0.32975 0.15444 0.0
H535 H 0.3771 0.37428 0.27375 0.0
H536 H 0.38904 0.37608 0.2297 0.0
H537 H 0.33203 0.32192 0.18302 0.0
H538 H 0.43896 0.29769 0.09226 0.0
H539 H 0.40459 0.30493 0.12747 0.0
H540 H 0.45413 0.36454 0.16037 0.0
C541 C 0.37681 0.36161 0.2373 0.0
C542 C 0.3586 0.33144 0.17825 0.0
C543 C 0.36942 0.36061 0.2625 0.0
C544 C 0.44015 0.31308 0.09683 0.0
C545 C 0.42031 0.31724 0.11687 0.0
C546 C 0.42705 0.35553 0.1649 0.0
C547 C 0.36921 0.34407 0.2222 0.0
C548 C 0.38028 0.34467 0.19593 0.0
C549 C 0.42278 0.33709 0.12415 0.0
C550 C 0.40636 0.34136 0.14775 0.0
H551 H 0.33423 0.3101 0.26557 0.0
H552 H 0.34773 0.31175 0.22191 0.0
H553 H 0.43177 0.36735 0.20194 0.0
H554 H 0.4808 0.36073 0.07985 0.0
H555 H 0.44616 0.36809 0.11522 0.0
C556 C 0.76085 0.6915 0.5773 0.0
C557 C 0.75178 0.70124 0.59846 0.0
C558 C 0.78002 0.67743 0.5792 0.0
C559 C 0.80035 0.64363 0.62347 0.0
H560 H 0.8808 0.64344 0.5802 0.0
C561 C 0.90965 0.60711 0.64774 0.0
C562 C 0.92586 0.59819 0.62911 0.0
C563 C 0.88386 0.61663 0.64206 0.0
C564 C 0.85794 0.64301 0.59212 0.0
H565 H 0.75652 0.70415 0.63816 0.0
H566 H 0.79011 0.67982 0.64143 0.0
H567 H 0.84605 0.66697 0.57401 0.0
H568 H 0.92687 0.59144 0.59005 0.0
H569 H 0.88126 0.60813 0.57994 0.0
H570 H 0.81253 0.61997 0.64187 0.0
C571 C 0.78195 0.68281 0.62338 0.0
C572 C 0.83812 0.65656 0.58863 0.0
C573 C 0.76295 0.6969 0.62149 0.0
C574 C 0.91453 0.59812 0.60472 0.0
C575 C 0.88877 0.60783 0.59896 0.0
C576 C 0.82006 0.63009 0.62692 0.0
C577 C 0.79034 0.67273 0.6023 0.0
C578 C 0.80962 0.65732 0.60462 0.0
C579 C 0.87371 0.61756 0.61756 0.0
C580 C 0.84963 0.62992 0.61166 0.0
H581 H 0.75259 0.69446 0.55928 0.0
H582 H 0.78595 0.66988 0.56262 0.0
H583 H 0.778 0.64351 0.63575 0.0
H584 H 0.91801 0.60736 0.6667 0.0
H585 H 0.87322 0.62413 0.65683 0.0
C586 C 0.85675 0.32905 0.35632 0.0
C587 C 0.82915 0.3246 0.33854 0.0
C588 C 0.87096 0.34862 0.36605 0.0
C589 C 0.85569 0.39915 0.36973 0.0
H590 H 0.96054 0.4179 0.37162 0.0
C591 C 0.94027 0.4818 0.36017 0.0
C592 C 0.97412 0.48835 0.37182 0.0
C593 C 0.91848 0.46205 0.36235 0.0
C594 C 0.93121 0.41291 0.37172 0.0
H595 H 0.79362 0.33713 0.31805 0.0
H596 H 0.81862 0.371 0.33458 0.0
H597 H 0.93035 0.38258 0.36419 0.0
H598 H 0.01068 0.48018 0.3963 0.0
H599 H 0.97235 0.44597 0.40076 0.0
H600 H 0.85685 0.42977 0.37631 0.0
C601 C 0.82915 0.35946 0.3413 0.0
C602 C 0.91383 0.39257 0.36746 0.0
C603 C 0.81498 0.33997 0.33163 0.0
C604 C 0.98458 0.47542 0.38721 0.0
C605 C 0.96281 0.45579 0.38951 0.0
C606 C 0.87313 0.41957 0.37391 0.0
C607 C 0.85787 0.36417 0.35823 0.0
C608 C 0.87587 0.38544 0.36592 0.0
C609 C 0.93027 0.44858 0.37623 0.0
C610 C 0.91114 0.42674 0.37455 0.0
H611 H 0.86818 0.31757 0.36216 0.0
H612 H 0.89271 0.35165 0.37934 0.0
H613 H 0.82637 0.39416 0.36905 0.0
H614 H 0.93194 0.49145 0.34794 0.0
H615 H 0.89369 0.45698 0.35176 0.0
C616 C 0.1786 0.40499 0.6847 0.0
C617 C 0.17259 0.40441 0.7102 0.0
C618 C 0.17487 0.42105 0.67162 0.0
C619 C 0.16924 0.4728 0.67716 0.0
H620 H 0.09669 0.45547 0.626 0.0
C621 C 0.07699 0.51938 0.65003 0.0
C622 C 0.05868 0.51524 0.62747 0.0
C623 C 0.102 0.50935 0.65598 0.0
C624 C 0.11781 0.46082 0.63965 0.0
H625 H 0.16022 0.42076 0.74217 0.0
H626 H 0.15424 0.4489 0.71936 0.0
H627 H 0.12072 0.43118 0.64459 0.0
H628 H 0.05473 0.49911 0.5924 0.0
H629 H 0.10008 0.48245 0.60206 0.0
H630 H 0.16611 0.50244 0.67247 0.0
C631 C 0.16168 0.43692 0.7095 0.0
C632 C 0.13145 0.44677 0.65043 0.0
C633 C 0.16484 0.42073 0.72253 0.0
C634 C 0.0685 0.50248 0.60995 0.0
C635 C 0.0941 0.49275 0.61569 0.0
C636 C 0.15606 0.48697 0.66608 0.0
C637 C 0.16571 0.43698 0.68384 0.0
C638 C 0.15639 0.4525 0.66982 0.0
C639 C 0.10963 0.49516 0.63931 0.0
C640 C 0.12915 0.48107 0.64776 0.0
H641 H 0.18463 0.39265 0.67468 0.0
H642 H 0.17823 0.42078 0.65185 0.0
H643 H 0.1888 0.47763 0.69191 0.0
H644 H 0.06952 0.52897 0.66396 0.0
H645 H 0.11298 0.51159 0.67441 0.0
C646 C 0.24696 0.76462 0.35583 0.0
C647 C 0.27621 0.76724 0.33939 0.0
C648 C 0.22968 0.74573 0.36473 0.0
C649 C 0.21106 0.69312 0.34591 0.0
H650 H 0.17497 0.68315 0.41228 0.0
C651 C 0.1197 0.61569 0.36854 0.0
C652 C 0.08845 0.61554 0.38216 0.0
C653 C 0.14883 0.63309 0.36766 0.0
C654 C 0.1847 0.68568 0.39363 0.0
H655 H 0.31136 0.75225 0.32042 0.0
H656 H 0.28113 0.7194 0.33584 0.0
H657 H 0.21378 0.71631 0.40241 0.0
H658 H 0.06502 0.63303 0.40759 0.0
H659 H 0.11485 0.66351 0.40522 0.0
H660 H 0.18083 0.66305 0.33661 0.0
C661 C 0.27137 0.7319 0.34167 0.0
C662 C 0.20698 0.70467 0.38802 0.0
C663 C 0.28875 0.75075 0.3329 0.0
C664 C 0.08833 0.63274 0.39646 0.0
C665 C 0.11722 0.65021 0.39533 0.0
C666 C 0.18855 0.67426 0.35142 0.0
C667 C 0.24118 0.72908 0.35726 0.0
C668 C 0.22003 0.70864 0.36402 0.0
C669 C 0.14725 0.65085 0.38014 0.0
C670 C 0.17461 0.67031 0.37527 0.0
H671 H 0.2367 0.77701 0.36126 0.0
H672 H 0.20633 0.744 0.3766 0.0
H673 H 0.22019 0.69578 0.32715 0.0
H674 H 0.12085 0.60277 0.35726 0.0
H675 H 0.17193 0.63284 0.3563 0.0
C676 C 0.75198 0.82222 0.61269 0.0
C677 C 0.72254 0.80774 0.60173 0.0
C678 C 0.75876 0.84246 0.60761 0.0
C679 C 0.73635 0.8745 0.56091 0.0
H680 H 0.78394 0.91762 0.60699 0.0
C681 C 0.76798 0.95538 0.53314 0.0
C682 C 0.80517 0.96534 0.53443 0.0
C683 C 0.75338 0.93813 0.54632 0.0
C684 C 0.77041 0.9057 0.59403 0.0
H685 H 0.67613 0.80305 0.57785 0.0
H686 H 0.6867 0.83816 0.5699 0.0
H687 H 0.76702 0.88307 0.61996 0.0
H688 H 0.85583 0.96617 0.55162 0.0
H689 H 0.83022 0.93634 0.57522 0.0
H690 H 0.7397 0.89708 0.53505 0.0
C691 C 0.70562 0.83406 0.58161 0.0
C692 C 0.76099 0.88588 0.60134 0.0
C693 C 0.69936 0.81388 0.58627 0.0
C694 C 0.82692 0.95889 0.55073 0.0
C695 C 0.81227 0.94179 0.56414 0.0
C696 C 0.7452 0.89425 0.55379 0.0
C697 C 0.73585 0.84864 0.59175 0.0
C698 C 0.74421 0.86995 0.58476 0.0
C699 C 0.77575 0.93068 0.56111 0.0
C700 C 0.7627 0.91007 0.57013 0.0
H701 H 0.77052 0.81785 0.62447 0.0
H702 H 0.7826 0.85311 0.61552 0.0
H703 H 0.7244 0.86278 0.54731 0.0
H704 H 0.75088 0.95991 0.52035 0.0
H705 H 0.72507 0.92992 0.54379 0.0
C706 C 0.76594 0.27861 0.18305 0.0
C707 C 0.74784 0.26917 0.20379 0.0
C708 C 0.74691 0.27882 0.16146 0.0
C709 C 0.65908 0.25706 0.12915 0.0
H710 H 0.67685 0.31077 0.10636 0.0
C711 C 0.55199 0.2835 0.0794 0.0
C712 C 0.56301 0.29941 0.06342 0.0
C713 C 0.57756 0.27649 0.09115 0.0
C714 C 0.67198 0.29555 0.11194 0.0
H715 H 0.69599 0.25134 0.21752 0.0
H716 H 0.66277 0.25182 0.17992 0.0
H717 H 0.71651 0.30419 0.13697 0.0
H718 H 0.6095 0.31931 0.04572 0.0
H719 H 0.65408 0.3066 0.06557 0.0
H720 H 0.61385 0.24856 0.10451 0.0
C721 C 0.69172 0.259 0.1803 0.0
C722 C 0.69477 0.29179 0.12961 0.0
C723 C 0.71074 0.25883 0.20192 0.0
C724 C 0.60005 0.30704 0.05792 0.0
C725 C 0.62566 0.29992 0.06956 0.0
C726 C 0.63635 0.2608 0.11131 0.0
C727 C 0.70938 0.26954 0.1601 0.0
C728 C 0.68808 0.27262 0.13887 0.0
C729 C 0.61481 0.28509 0.08705 0.0
C730 C 0.64196 0.28022 0.10296 0.0
H731 H 0.79458 0.28657 0.18376 0.0
H732 H 0.76137 0.2868 0.14607 0.0
H733 H 0.65352 0.24207 0.1357 0.0
H734 H 0.52359 0.27703 0.08367 0.0
H735 H 0.56808 0.26512 0.10455 0.0
C736 C 0.29336 0.25325 0.70328 0.0
C737 C 0.29899 0.25502 0.7288 0.0
C738 C 0.30688 0.24016 0.68872 0.0
C739 C 0.33776 0.1952 0.69054 0.0
H740 H 0.37724 0.21235 0.62669 0.0
C741 C 0.35139 0.14088 0.61053 0.0
C742 C 0.37922 0.14752 0.59329 0.0
C743 C 0.34718 0.15353 0.63019 0.0
C744 C 0.3669 0.20736 0.6446 0.0
H745 H 0.32315 0.24427 0.75907 0.0
H746 H 0.34697 0.2214 0.7335 0.0
H747 H 0.35931 0.23571 0.65461 0.0
H748 H 0.42631 0.17183 0.58423 0.0
H749 H 0.41954 0.19376 0.61883 0.0
H750 H 0.34538 0.16676 0.68039 0.0
C751 C 0.33184 0.2301 0.72484 0.0
C752 C 0.35611 0.22071 0.6605 0.0
C753 C 0.31833 0.24327 0.73946 0.0
C754 C 0.40432 0.16646 0.59708 0.0
C755 C 0.40029 0.17903 0.61681 0.0
C756 C 0.3486 0.18179 0.67459 0.0
C757 C 0.32642 0.2285 0.69927 0.0
C758 C 0.34075 0.21469 0.68345 0.0
C759 C 0.37087 0.17302 0.63307 0.0
C760 C 0.3628 0.18763 0.65126 0.0
H761 H 0.27845 0.26198 0.69444 0.0
H762 H 0.30161 0.23903 0.66915 0.0
H763 H 0.32591 0.19008 0.70808 0.0
H764 H 0.33148 0.12641 0.60794 0.0
H765 H 0.32407 0.14843 0.64223 0.0
C766 C 0.33717 0.84895 0.22327 0.0
C767 C 0.36085 0.85649 0.24309 0.0
C768 C 0.34987 0.8509 0.19911 0.0
C769 C 0.42943 0.87585 0.16033 0.0
H770 H 0.39617 0.82697 0.12015 0.0
C771 C 0.51237 0.85283 0.08203 0.0
C772 C 0.49406 0.84142 0.06174 0.0
C773 C 0.49308 0.85886 0.10121 0.0
C774 C 0.40525 0.84091 0.13084 0.0
H775 H 0.41611 0.87284 0.25302 0.0
H776 H 0.4385 0.87577 0.21098 0.0
H777 H 0.36779 0.82962 0.15959 0.0
H778 H 0.44143 0.82853 0.04484 0.0
H779 H 0.40765 0.83921 0.0783 0.0
H780 H 0.46814 0.88668 0.13183 0.0
C781 C 0.40994 0.86864 0.214 0.0
C782 C 0.38893 0.84246 0.15354 0.0
C783 C 0.39715 0.86685 0.23817 0.0
C784 C 0.45626 0.83735 0.06021 0.0
C785 C 0.43693 0.8433 0.07947 0.0
C786 C 0.44592 0.87425 0.13762 0.0
C787 C 0.38664 0.86027 0.19419 0.0
C788 C 0.40128 0.85977 0.16883 0.0
C789 C 0.45504 0.85354 0.10054 0.0
C790 C 0.43448 0.8566 0.12286 0.0
H791 H 0.30892 0.8411 0.2264 0.0
H792 H 0.33099 0.84465 0.1843 0.0
H793 H 0.43921 0.88954 0.17143 0.0
H794 H 0.54155 0.85635 0.08355 0.0
H795 H 0.50787 0.86662 0.11721 0.0
C796 C 0.84751 0.20039 0.34564 0.0
C797 C 0.81483 0.20517 0.34303 0.0
C798 C 0.84781 0.18235 0.35567 0.0
C799 C 0.79256 0.14184 0.39389 0.0
H800 H 0.86027 0.11384 0.36999 0.0
C801 C 0.79472 0.06857 0.43596 0.0
C802 C 0.82912 0.06851 0.44387 0.0
C803 C 0.79118 0.08257 0.4193 0.0
C804 C 0.8412 0.12148 0.37684 0.0
H805 H 0.75675 0.1946 0.34872 0.0
H806 H 0.75713 0.16306 0.36575 0.0
H807 H 0.85759 0.14407 0.35027 0.0
H808 H 0.88675 0.08219 0.43998 0.0
H809 H 0.8808 0.10643 0.41051 0.0
H810 H 0.7764 0.11939 0.42057 0.0
C811 C 0.7827 0.17338 0.36052 0.0
C812 C 0.83978 0.13889 0.36565 0.0
C813 C 0.78245 0.19147 0.35065 0.0
C814 C 0.85999 0.08168 0.43362 0.0
C815 C 0.8565 0.09561 0.41687 0.0
C816 C 0.79381 0.12439 0.40494 0.0
C817 C 0.81539 0.16856 0.36319 0.0
C818 C 0.81575 0.14945 0.37423 0.0
C819 C 0.82203 0.09678 0.41034 0.0
C820 C 0.81841 0.11412 0.39675 0.0
H821 H 0.87297 0.21062 0.34001 0.0
H822 H 0.87358 0.17937 0.35782 0.0
H823 H 0.77414 0.14969 0.40132 0.0
H824 H 0.77057 0.05881 0.44406 0.0
H825 H 0.76426 0.08293 0.4144 0.0
C826 C 0.25611 0.32031 0.80521 0.0
C827 C 0.25322 0.33836 0.79647 0.0
C828 C 0.27932 0.32036 0.82474 0.0
C829 C 0.32894 0.35314 0.87632 0.0
H830 H 0.3825 0.31413 0.87723 0.0
C831 C 0.45354 0.361 0.93775 0.0
C832 C 0.45642 0.34382 0.94894 0.0
C833 C 0.42531 0.35979 0.92143 0.0
C834 C 0.36732 0.32494 0.87738 0.0
H835 H 0.27243 0.3706 0.80108 0.0
H836 H 0.31385 0.37079 0.83454 0.0
H837 H 0.34151 0.3132 0.84323 0.0
H838 H 0.43167 0.31205 0.95247 0.0
H839 H 0.38225 0.30988 0.92364 0.0
H840 H 0.35593 0.36526 0.9101 0.0
C841 C 0.29766 0.35654 0.82679 0.0
C842 C 0.34379 0.32442 0.8579 0.0
C843 C 0.27417 0.35646 0.80746 0.0
C844 C 0.42983 0.32553 0.94421 0.0
C845 C 0.40183 0.32426 0.92759 0.0
C846 C 0.35278 0.35378 0.89564 0.0
C847 C 0.30026 0.33849 0.83589 0.0
C848 C 0.32451 0.33862 0.857 0.0
C849 C 0.39969 0.34133 0.91573 0.0
C850 C 0.37238 0.33978 0.89627 0.0
H851 H 0.23941 0.30612 0.79764 0.0
H852 H 0.28005 0.30617 0.83151 0.0
H853 H 0.31394 0.36403 0.87658 0.0
H854 H 0.47376 0.37526 0.94113 0.0
H855 H 0.42447 0.37315 0.91243 0.0
C856 C 0.35241 0.92418 0.36918 0.0
C857 C 0.37377 0.91114 0.37141 0.0
C858 C 0.35928 0.94175 0.38386 0.0
C859 C 0.39617 0.96234 0.44361 0.0
H860 H 0.39443 0.01319 0.41891 0.0
C861 C 0.40949 0.02931 0.51048 0.0
C862 C 0.38577 0.04074 0.50668 0.0
C863 C 0.41505 0.01606 0.49202 0.0
C864 C 0.39473 0.99908 0.42616 0.0
H865 H 0.41955 0.90654 0.39044 0.0
H866 H 0.43114 0.93709 0.41634 0.0
H867 H 0.38976 0.98474 0.39025 0.0
H868 H 0.35044 0.04806 0.4805 0.0
H869 H 0.35904 0.02446 0.44842 0.0
H870 H 0.39929 0.97609 0.4795 0.0
C871 C 0.40914 0.93369 0.40319 0.0
C872 C 0.39217 0.98281 0.40971 0.0
C873 C 0.40254 0.91624 0.38832 0.0
C874 C 0.36916 0.03952 0.4837 0.0
C875 C 0.3742 0.02599 0.46533 0.0
C876 C 0.39826 0.97848 0.46006 0.0
C877 C 0.38738 0.94654 0.40126 0.0
C878 C 0.39255 0.96424 0.41832 0.0
C879 C 0.39634 0.01361 0.46954 0.0
C880 C 0.39725 0.99704 0.45162 0.0
H881 H 0.33012 0.92072 0.35626 0.0
H882 H 0.34186 0.95128 0.38214 0.0
H883 H 0.396 0.94813 0.45082 0.0
H884 H 0.42267 0.0301 0.52809 0.0
H885 H 0.43309 0.00722 0.49572 0.0
C886 C 0.6871 0.83693 0.73682 0.0
C887 C 0.70828 0.82413 0.73076 0.0
C888 C 0.67374 0.83791 0.76063 0.0
C889 C 0.68106 0.82502 0.82517 0.0
H890 H 0.57765 0.81826 0.82589 0.0
C891 C 0.59293 0.82884 0.91263 0.0
C892 C 0.55857 0.81465 0.91284 0.0
C893 C 0.61555 0.83 0.89207 0.0
C894 C 0.60651 0.82008 0.82601 0.0
H895 H 0.73407 0.80333 0.74542 0.0
H896 H 0.7106 0.80503 0.78702 0.0
H897 H 0.61006 0.82206 0.78702 0.0
H898 H 0.52234 0.78946 0.89279 0.0
H899 H 0.56162 0.7915 0.85704 0.0
H900 H 0.67704 0.82281 0.86439 0.0
C901 C 0.70438 0.8143 0.77331 0.0
C902 C 0.62517 0.82251 0.80376 0.0
C903 C 0.71765 0.81326 0.74943 0.0
C904 C 0.54838 0.80079 0.89292 0.0
C905 C 0.57081 0.80198 0.87246 0.0
C906 C 0.66234 0.82279 0.84759 0.0
C907 C 0.68137 0.82617 0.77895 0.0
C908 C 0.66258 0.82487 0.80303 0.0
C909 C 0.60404 0.81701 0.87145 0.0
C910 C 0.62477 0.82002 0.84813 0.0
H911 H 0.67964 0.84565 0.72296 0.0
H912 H 0.65654 0.84743 0.76455 0.0
H913 H 0.70992 0.82687 0.82514 0.0
H914 H 0.6014 0.83976 0.92771 0.0
H915 H 0.64106 0.84173 0.89176 0.0
loop_
_geom_bond_atom_site_label_1
_geom_bond_atom_site_label_2
_geom_bond_distance
_geom_bond_site_symmetry_2
_ccdc_geom_bond_type
O0 Cd1 2.300 . S
O0 C7 1.275 . S
Cd1 O0 2.300 . S
Cd1 O9 2.381 . S
Cd1 O10 2.378 . S
O2 Cd3 2.385 . S
O2 C7 1.255 . S
Cd3 O2 2.385 . S
Cd3 O4 2.317 . S
O4 Cd3 2.317 . S
O4 C5 1.232 . S
C5 O4 1.232 . S
C5 O6 1.218 . S
O6 C5 1.218 . S
C7 O0 1.275 . S
C7 O2 1.255 . S
C8 O9 1.258 . S
C8 O10 1.256 . S
O9 Cd1 2.381 . S
O9 C8 1.258 . S
O10 Cd1 2.378 . S
O10 C8 1.256 . S
O11 Cd12 2.300 . S
O11 C18 1.275 . S
Cd12 O11 2.300 . S
Cd12 O20 2.381 . S
Cd12 O21 2.378 . S
O13 Cd14 2.385 . S
O13 C18 1.255 . S
Cd14 O13 2.385 . S
Cd14 O15 2.317 . S
O15 Cd14 2.317 . S
O15 C16 1.232 . S
C16 O15 1.232 . S
C16 O17 1.218 . S
O17 C16 1.218 . S
C18 O11 1.275 . S
C18 O13 1.255 . S
C19 O20 1.258 . S
C19 O21 1.256 . S
O20 Cd12 2.381 . S
O20 C19 1.258 . S
O21 Cd12 2.378 . S
O21 C19 1.256 . S
O22 Cd23 2.300 . S
O22 C29 1.275 . S
Cd23 O22 2.300 . S
Cd23 O31 2.381 . S
Cd23 O32 2.378 . S
O24 Cd25 2.385 . S
O24 C29 1.255 . S
Cd25 O24 2.385 . S
Cd25 O26 2.317 . S
O26 Cd25 2.317 . S
O26 C27 1.232 . S
C27 O26 1.232 . S
C27 O28 1.218 . S
O28 C27 1.218 . S
C29 O22 1.275 . S
C29 O24 1.255 . S
C30 O31 1.258 . S
C30 O32 1.256 . S
O31 Cd23 2.381 . S
O31 C30 1.258 . S
O32 Cd23 2.378 . S
O32 C30 1.256 . S
O33 Cd34 2.300 . S
O33 C40 1.275 . S
Cd34 O33 2.300 . S
Cd34 O42 2.381 . S
Cd34 O43 2.378 . S
O35 Cd36 2.385 . S
O35 C40 1.255 . S
Cd36 O35 2.385 . S
Cd36 O37 2.317 . S
O37 Cd36 2.317 . S
O37 C38 1.232 . S
C38 O37 1.232 . S
C38 O39 1.218 . S
O39 C38 1.218 . S
C40 O33 1.275 . S
C40 O35 1.255 . S
C41 O42 1.258 . S
C41 O43 1.256 . S
O42 Cd34 2.381 . S
O42 C41 1.258 . S
O43 Cd34 2.378 . S
O43 C41 1.256 . S
O44 Cd45 2.300 . S
O44 C51 1.275 . S
Cd45 O44 2.300 . S
Cd45 O53 2.381 . S
Cd45 O54 2.378 . S
O46 Cd47 2.385 . S
O46 C51 1.255 . S
Cd47 O46 2.385 . S
Cd47 O48 2.317 . S
O48 Cd47 2.317 . S
O48 C49 1.232 . S
C49 O48 1.232 . S
C49 O50 1.218 . S
O50 C49 1.218 . S
C51 O44 1.275 . S
C51 O46 1.255 . S
C52 O53 1.258 . S
C52 O54 1.256 . S
O53 Cd45 2.381 . S
O53 C52 1.258 . S
O54 Cd45 2.378 . S
O54 C52 1.256 . S
O55 Cd56 2.300 . S
O55 C62 1.275 . S
Cd56 O55 2.300 . S
Cd56 O64 2.381 . S
Cd56 O65 2.378 . S
O57 Cd58 2.385 . S
O57 C62 1.255 . S
Cd58 O57 2.385 . S
Cd58 O59 2.317 . S
O59 Cd58 2.317 . S
O59 C60 1.232 . S
C60 O59 1.232 . S
C60 O61 1.218 . S
O61 C60 1.218 . S
C62 O55 1.275 . S
C62 O57 1.255 . S
C63 O64 1.258 . S
C63 O65 1.256 . S
O64 Cd56 2.381 . S
O64 C63 1.258 . S
O65 Cd56 2.378 . S
O65 C63 1.256 . S
O66 Cd67 2.300 . S
O66 C73 1.275 . S
Cd67 O66 2.300 . S
Cd67 O75 2.381 . S
Cd67 O76 2.378 . S
O68 Cd69 2.385 . S
O68 C73 1.255 . S
Cd69 O68 2.385 . S
Cd69 O70 2.317 . S
O70 Cd69 2.317 . S
O70 C71 1.232 . S
C71 O70 1.232 . S
C71 O72 1.218 . S
O72 C71 1.218 . S
C73 O66 1.275 . S
C73 O68 1.255 . S
C74 O75 1.258 . S
C74 O76 1.256 . S
O75 Cd67 2.381 . S
O75 C74 1.258 . S
O76 Cd67 2.378 . S
O76 C74 1.256 . S
O77 Cd78 2.300 . S
O77 C84 1.275 . S
Cd78 O77 2.300 . S
Cd78 O86 2.381 . S
Cd78 O87 2.378 . S
O79 Cd80 2.385 . S
O79 C84 1.255 . S
Cd80 O79 2.385 . S
Cd80 O81 2.317 . S
O81 Cd80 2.317 . S
O81 C82 1.232 . S
C82 O81 1.232 . S
C82 O83 1.218 . S
O83 C82 1.218 . S
C84 O77 1.275 . S
C84 O79 1.255 . S
C85 O86 1.258 . S
C85 O87 1.256 . S
O86 Cd78 2.381 . S
O86 C85 1.258 . S
O87 Cd78 2.378 . S
O87 C85 1.256 . S
H88 C94 0.930 . S
H89 C97 0.931 1_655 S
H90 C99 0.931 . S
H91 C101 0.930 . S
H92 C103 0.930 . S
H93 C105 0.931 1_655 S
C94 H88 0.930 . S
C94 C95 1.380 . S
C94 C96 1.394 . S
C95 C94 1.380 . S
C95 C99 1.382 . S
C96 C94 1.394 . S
C96 C97 1.400 . S
C97 H89 0.931 1_455 S
C97 C96 1.400 . S
C97 C98 1.375 . S
C98 C97 1.375 . S
C98 C99 1.415 . S
C98 C100 1.501 . S
C99 H90 0.931 . S
C99 C95 1.382 . S
C99 C98 1.415 . S
C100 C98 1.501 . S
C100 C101 1.384 . S
C100 C105 1.408 . S
C101 H91 0.930 . S
C101 C100 1.384 . S
C101 C102 1.389 . S
C102 C101 1.389 . S
C102 C103 1.405 . S
C103 H92 0.930 . S
C103 C102 1.405 . S
C103 C104 1.364 . S
C104 C103 1.364 . S
C104 C105 1.400 . S
C105 H93 0.931 1_455 S
C105 C100 1.408 . S
C105 C104 1.400 . S
H106 C112 0.930 . S
H107 C115 0.931 . S
H108 C117 0.931 . S
H109 C119 0.930 . S
H110 C121 0.930 . S
H111 C123 0.931 . S
C112 H106 0.930 . S
C112 C113 1.380 1_455 S
C112 C114 1.394 . S
C113 C112 1.380 1_655 S
C113 C117 1.382 . S
C114 C112 1.394 . S
C114 C115 1.400 . S
C115 H107 0.931 . S
C115 C114 1.400 . S
C115 C116 1.393 . S
C116 C115 1.393 . S
C116 C117 1.388 1_455 S
C116 C118 1.512 1_455 S
C117 H108 0.931 . S
C117 C113 1.382 . S
C117 C116 1.388 1_655 S
C118 C116 1.512 1_655 S
C118 C119 1.392 . S
C118 C123 1.396 1_655 S
C119 H109 0.930 . S
C119 C118 1.392 . S
C119 C120 1.389 . S
C120 C119 1.389 . S
C120 C121 1.405 . S
C121 H110 0.930 . S
C121 C120 1.405 . S
C121 C122 1.364 1_655 S
C122 C121 1.364 1_455 S
C122 C123 1.400 . S
C123 H111 0.931 . S
C123 C118 1.396 1_455 S
C123 C122 1.400 . S
H124 C130 0.930 . S
H125 C133 0.931 . S
H126 C135 0.931 . S
H127 C137 0.930 . S
H128 C139 0.930 . S
H129 C141 0.931 . S
C130 H124 0.930 . S
C130 C131 1.380 . S
C130 C132 1.394 . S
C131 C130 1.380 . S
C131 C135 1.382 . S
C132 C130 1.394 . S
C132 C133 1.400 . S
C133 H125 0.931 . S
C133 C132 1.400 . S
C133 C134 1.375 . S
C134 C133 1.375 . S
C134 C135 1.415 . S
C134 C136 1.501 . S
C135 H126 0.931 . S
C135 C131 1.382 . S
C135 C134 1.415 . S
C136 C134 1.501 . S
C136 C137 1.384 . S
C136 C141 1.408 . S
C137 H127 0.930 . S
C137 C136 1.384 . S
C137 C138 1.389 . S
C138 C137 1.389 . S
C138 C139 1.405 . S
C139 H128 0.930 . S
C139 C138 1.405 . S
C139 C140 1.364 . S
C140 C139 1.364 . S
C140 C141 1.400 . S
C141 H129 0.931 . S
C141 C136 1.408 . S
C141 C140 1.400 . S
H142 C148 0.930 . S
H143 C151 0.931 . S
H144 C153 0.931 . S
H145 C155 0.930 . S
H146 C157 0.930 . S
H147 C159 0.931 . S
C148 H142 0.930 . S
C148 C149 1.380 . S
C148 C150 1.394 . S
C149 C148 1.380 . S
C149 C153 1.382 . S
C150 C148 1.394 . S
C150 C151 1.400 . S
C151 H143 0.931 . S
C151 C150 1.400 . S
C151 C152 1.375 . S
C152 C151 1.375 . S
C152 C153 1.415 . S
C152 C154 1.501 1_554 S
C153 H144 0.931 . S
C153 C149 1.382 . S
C153 C152 1.415 . S
C154 C152 1.501 1_556 S
C154 C155 1.384 . S
C154 C159 1.408 . S
C155 H145 0.930 . S
C155 C154 1.384 . S
C155 C156 1.389 . S
C156 C155 1.389 . S
C156 C157 1.405 . S
C157 H146 0.930 . S
C157 C156 1.405 . S
C157 C158 1.364 . S
C158 C157 1.364 . S
C158 C159 1.400 . S
C159 H147 0.931 . S
C159 C154 1.408 . S
C159 C158 1.400 . S
H160 C166 0.930 . S
H161 C169 0.931 . S
H162 C171 0.931 . S
H163 C173 0.930 1_545 S
H164 C175 0.930 . S
H165 C177 0.931 1_545 S
C166 H160 0.930 . S
C166 C167 1.380 . S
C166 C168 1.394 . S
C167 C166 1.380 . S
C167 C171 1.382 . S
C168 C166 1.394 . S
C168 C169 1.400 . S
C169 H161 0.931 . S
C169 C168 1.400 . S
C169 C170 1.375 . S
C170 C169 1.375 . S
C170 C171 1.415 . S
C170 C172 1.501 . S
C171 H162 0.931 . S
C171 C167 1.382 . S
C171 C170 1.415 . S
C172 C170 1.501 . S
C172 C173 1.384 1_545 S
C172 C177 1.408 1_545 S
C173 H163 0.930 1_565 S
C173 C172 1.384 1_565 S
C173 C174 1.389 . S
C174 C173 1.389 . S
C174 C175 1.405 . S
C175 H164 0.930 . S
C175 C174 1.405 . S
C175 C176 1.364 . S
C176 C175 1.364 . S
C176 C177 1.400 . S
C177 H165 0.931 1_565 S
C177 C172 1.408 1_565 S
C177 C176 1.400 . S
H178 C184 0.930 . S
H179 C187 0.931 . S
H180 C189 0.931 . S
H181 C191 0.930 . S
H182 C193 0.930 . S
H183 C195 0.931 . S
C184 H178 0.930 . S
C184 C185 1.380 . S
C184 C186 1.394 . S
C185 C184 1.380 . S
C185 C189 1.382 . S
C186 C184 1.394 . S
C186 C187 1.400 . S
C187 H179 0.931 . S
C187 C186 1.400 . S
C187 C188 1.375 . S
C188 C187 1.375 . S
C188 C189 1.415 . S
C188 C190 1.501 1_554 S
C189 H180 0.931 . S
C189 C185 1.382 . S
C189 C188 1.415 . S
C190 C188 1.501 1_556 S
C190 C191 1.384 . S
C190 C195 1.408 . S
C191 H181 0.930 . S
C191 C190 1.384 . S
C191 C192 1.389 . S
C192 C191 1.389 . S
C192 C193 1.405 . S
C193 H182 0.930 . S
C193 C192 1.405 . S
C193 C194 1.364 . S
C194 C193 1.364 . S
C194 C195 1.400 . S
C195 H183 0.931 . S
C195 C190 1.408 . S
C195 C194 1.400 . S
C196 C197 1.349 . S
C196 C198 1.327 . S
C196 H221 0.950 . S
C197 C196 1.349 . S
C197 C213 1.349 . S
C198 C196 1.327 . S
C198 C217 1.429 . S
C198 H222 0.950 . S
C199 C216 1.574 . S
C199 C218 1.368 . S
C199 H223 0.949 . S
H200 C204 0.949 . S
C201 C202 1.349 . S
C201 C203 1.327 . S
C201 H224 0.950 . S
C202 C201 1.349 . S
C202 C214 1.349 . S
C203 C201 1.327 . S
C203 C219 1.429 . S
C203 H225 0.950 . S
C204 H200 0.949 . S
C204 C212 1.574 . S
C204 C220 1.368 . S
H205 C213 0.950 . S
H206 C211 0.950 . S
H207 C212 0.949 . S
H208 C214 0.950 . S
H209 C215 0.950 . S
H210 C216 0.949 . S
C211 H206 0.950 . S
C211 C213 1.327 . S
C211 C217 1.429 . S
C212 C204 1.574 . S
C212 H207 0.949 . S
C212 C218 1.368 . S
C213 C197 1.349 . S
C213 H205 0.950 . S
C213 C211 1.327 . S
C214 C202 1.349 . S
C214 H208 0.950 . S
C214 C215 1.327 . S
C215 H209 0.950 . S
C215 C214 1.327 . S
C215 C219 1.429 . S
C216 C199 1.574 . S
C216 H210 0.949 . S
C216 C220 1.368 . S
C217 C198 1.429 . S
C217 C211 1.429 . S
C217 C218 1.523 . S
C218 C199 1.368 . S
C218 C212 1.368 . S
C218 C217 1.523 . S
C219 C203 1.429 . S
C219 C215 1.429 . S
C219 C220 1.523 . S
C220 C204 1.368 . S
C220 C216 1.368 . S
C220 C219 1.523 . S
H221 C196 0.950 . S
H222 C198 0.950 . S
H223 C199 0.949 . S
H224 C201 0.950 . S
H225 C203 0.950 . S
C226 C227 1.349 . S
C226 C228 1.327 . S
C226 H251 0.950 . S
C227 C226 1.349 . S
C227 C243 1.349 . S
C228 C226 1.327 . S
C228 C247 1.429 . S
C228 H252 0.950 . S
C229 C246 1.574 . S
C229 C248 1.368 . S
C229 H253 0.949 . S
H230 C234 0.949 . S
C231 C232 1.349 . S
C231 C233 1.327 . S
C231 H254 0.950 . S
C232 C231 1.349 . S
C232 C244 1.349 . S
C233 C231 1.327 . S
C233 C249 1.429 . S
C233 H255 0.950 . S
C234 H230 0.949 . S
C234 C242 1.574 . S
C234 C250 1.368 . S
H235 C243 0.950 . S
H236 C241 0.950 . S
H237 C242 0.949 . S
H238 C244 0.950 . S
H239 C245 0.950 . S
H240 C246 0.949 . S
C241 H236 0.950 . S
C241 C243 1.327 . S
C241 C247 1.429 . S
C242 C234 1.574 . S
C242 H237 0.949 . S
C242 C248 1.368 . S
C243 C227 1.349 . S
C243 H235 0.950 . S
C243 C241 1.327 . S
C244 C232 1.349 . S
C244 H238 0.950 . S
C244 C245 1.327 . S
C245 H239 0.950 . S
C245 C244 1.327 . S
C245 C249 1.429 . S
C246 C229 1.574 . S
C246 H240 0.949 . S
C246 C250 1.368 . S
C247 C228 1.429 . S
C247 C241 1.429 . S
C247 C248 1.523 . S
C248 C229 1.368 . S
C248 C242 1.368 . S
C248 C247 1.523 . S
C249 C233 1.429 . S
C249 C245 1.429 . S
C249 C250 1.523 . S
C250 C234 1.368 . S
C250 C246 1.368 . S
C250 C249 1.523 . S
H251 C226 0.950 . S
H252 C228 0.950 . S
H253 C229 0.949 . S
H254 C231 0.950 . S
H255 C233 0.950 . S
C256 C257 1.349 . S
C256 C258 1.327 . S
C256 H281 0.950 . S
C257 C256 1.349 . S
C257 C273 1.349 . S
C258 C256 1.327 . S
C258 C277 1.429 . S
C258 H282 0.950 . S
C259 C276 1.574 . S
C259 C278 1.368 . S
C259 H283 0.949 . S
H260 C264 0.949 . S
C261 C262 1.349 . S
C261 C263 1.327 . S
C261 H284 0.950 . S
C262 C261 1.349 . S
C262 C274 1.349 1_655 S
C263 C261 1.327 . S
C263 C279 1.429 . S
C263 H285 0.950 . S
C264 H260 0.949 . S
C264 C272 1.574 . S
C264 C280 1.368 . S
H265 C273 0.950 . S
H266 C271 0.950 . S
H267 C272 0.949 . S
H268 C274 0.950 . S
H269 C275 0.950 . S
H270 C276 0.949 . S
C271 H266 0.950 . S
C271 C273 1.327 . S
C271 C277 1.429 . S
C272 C264 1.574 . S
C272 H267 0.949 . S
C272 C278 1.368 . S
C273 C257 1.349 . S
C273 H265 0.950 . S
C273 C271 1.327 . S
C274 C262 1.349 1_455 S
C274 H268 0.950 . S
C274 C275 1.327 1_455 S
C275 H269 0.950 . S
C275 C274 1.327 1_655 S
C275 C279 1.429 . S
C276 C259 1.574 . S
C276 H270 0.949 . S
C276 C280 1.368 . S
C277 C258 1.429 . S
C277 C271 1.429 . S
C277 C278 1.523 . S
C278 C259 1.368 . S
C278 C272 1.368 . S
C278 C277 1.523 . S
C279 C263 1.429 . S
C279 C275 1.429 . S
C279 C280 1.523 . S
C280 C264 1.368 . S
C280 C276 1.368 . S
C280 C279 1.523 . S
H281 C256 0.950 . S
H282 C258 0.950 . S
H283 C259 0.949 . S
H284 C261 0.950 . S
H285 C263 0.950 . S
C286 C287 1.349 . S
C286 C288 1.327 . S
C286 H311 0.950 . S
C287 C286 1.349 . S
C287 C303 1.349 . S
C288 C286 1.327 . S
C288 C307 1.429 . S
C288 H312 0.950 . S
C289 C306 1.574 . S
C289 C308 1.368 . S
C289 H313 0.949 . S
H290 C294 0.949 . S
C291 C292 1.349 . S
C291 C293 1.327 . S
C291 H314 0.950 . S
C292 C291 1.349 . S
C292 C304 1.349 . S
C293 C291 1.327 . S
C293 C309 1.429 . S
C293 H315 0.950 . S
C294 H290 0.949 . S
C294 C302 1.574 . S
C294 C310 1.368 . S
H295 C303 0.950 . S
H296 C301 0.950 . S
H297 C302 0.949 . S
H298 C304 0.950 . S
H299 C305 0.950 . S
H300 C306 0.949 . S
C301 H296 0.950 . S
C301 C303 1.327 . S
C301 C307 1.429 . S
C302 C294 1.574 . S
C302 H297 0.949 . S
C302 C308 1.368 . S
C303 C287 1.349 . S
C303 H295 0.950 . S
C303 C301 1.327 . S
C304 C292 1.349 . S
C304 H298 0.950 . S
C304 C305 1.327 . S
C305 H299 0.950 . S
C305 C304 1.327 . S
C305 C309 1.429 . S
C306 C289 1.574 . S
C306 H300 0.949 . S
C306 C310 1.368 . S
C307 C288 1.429 . S
C307 C301 1.429 . S
C307 C308 1.523 . S
C308 C289 1.368 . S
C308 C302 1.368 . S
C308 C307 1.523 . S
C309 C293 1.429 . S
C309 C305 1.429 . S
C309 C310 1.523 . S
C310 C294 1.368 . S
C310 C306 1.368 . S
C310 C309 1.523 . S
H311 C286 0.950 . S
H312 C288 0.950 . S
H313 C289 0.949 . S
H314 C291 0.950 . S
H315 C293 0.950 . S
C316 C317 1.349 . S
C316 C318 1.327 . S
C316 H341 0.950 . S
C317 C316 1.349 . S
C317 C333 1.349 . S
C318 C316 1.327 . S
C318 C337 1.429 . S
C318 H342 0.950 . S
C319 C336 1.574 . S
C319 C338 1.368 . S
C319 H343 0.949 . S
H320 C324 0.949 . S
C321 C322 1.349 . S
C321 C323 1.327 . S
C321 H344 0.950 . S
C322 C321 1.349 . S
C322 C334 1.349 . S
C323 C321 1.327 . S
C323 C339 1.429 . S
C323 H345 0.950 . S
C324 H320 0.949 . S
C324 C332 1.574 . S
C324 C340 1.368 . S
H325 C333 0.950 . S
H326 C331 0.950 . S
H327 C332 0.949 . S
H328 C334 0.950 . S
H329 C335 0.950 . S
H330 C336 0.949 . S
C331 H326 0.950 . S
C331 C333 1.327 . S
C331 C337 1.429 . S
C332 C324 1.574 . S
C332 H327 0.949 . S
C332 C338 1.368 . S
C333 C317 1.349 . S
C333 H325 0.950 . S
C333 C331 1.327 . S
C334 C322 1.349 . S
C334 H328 0.950 . S
C334 C335 1.327 . S
C335 H329 0.950 . S
C335 C334 1.327 . S
C335 C339 1.429 . S
C336 C319 1.574 . S
C336 H330 0.949 . S
C336 C340 1.368 . S
C337 C318 1.429 . S
C337 C331 1.429 . S
C337 C338 1.523 . S
C338 C319 1.368 . S
C338 C332 1.368 . S
C338 C337 1.523 . S
C339 C323 1.429 . S
C339 C335 1.429 . S
C339 C340 1.523 . S
C340 C324 1.368 . S
C340 C336 1.368 . S
C340 C339 1.523 . S
H341 C316 0.950 . S
H342 C318 0.950 . S
H343 C319 0.949 . S
H344 C321 0.950 . S
H345 C323 0.950 . S
C346 C347 1.349 . S
C346 C348 1.327 . S
C346 H371 0.950 . S
C347 C346 1.349 . S
C347 C363 1.349 . S
C348 C346 1.327 . S
C348 C367 1.429 . S
C348 H372 0.950 . S
C349 C366 1.574 . S
C349 C368 1.368 . S
C349 H373 0.949 . S
H350 C354 0.949 . S
C351 C352 1.349 . S
C351 C353 1.327 . S
C351 H374 0.950 . S
C352 C351 1.349 . S
C352 C364 1.349 . S
C353 C351 1.327 . S
C353 C369 1.429 . S
C353 H375 0.950 . S
C354 H350 0.949 . S
C354 C362 1.574 . S
C354 C370 1.368 . S
H355 C363 0.950 . S
H356 C361 0.950 . S
H357 C362 0.949 . S
H358 C364 0.950 . S
H359 C365 0.950 . S
H360 C366 0.949 . S
C361 H356 0.950 . S
C361 C363 1.327 . S
C361 C367 1.429 . S
C362 C354 1.574 . S
C362 H357 0.949 . S
C362 C368 1.368 . S
C363 C347 1.349 . S
C363 H355 0.950 . S
C363 C361 1.327 . S
C364 C352 1.349 . S
C364 H358 0.950 . S
C364 C365 1.327 . S
C365 H359 0.950 . S
C365 C364 1.327 . S
C365 C369 1.429 . S
C366 C349 1.574 . S
C366 H360 0.949 . S
C366 C370 1.368 . S
C367 C348 1.429 . S
C367 C361 1.429 . S
C367 C368 1.523 . S
C368 C349 1.368 . S
C368 C362 1.368 . S
C368 C367 1.523 . S
C369 C353 1.429 . S
C369 C365 1.429 . S
C369 C370 1.523 . S
C370 C354 1.368 . S
C370 C366 1.368 . S
C370 C369 1.523 . S
H371 C346 0.950 . S
H372 C348 0.950 . S
H373 C349 0.949 . S
H374 C351 0.950 . S
H375 C353 0.950 . S
C376 C377 1.349 . S
C376 C378 1.327 . S
C376 H401 0.950 . S
C377 C376 1.349 . S
C377 C393 1.349 . S
C378 C376 1.327 . S
C378 C397 1.429 . S
C378 H402 0.950 . S
C379 C396 1.574 . S
C379 C398 1.368 . S
C379 H403 0.949 . S
H380 C384 0.949 . S
C381 C382 1.349 . S
C381 C383 1.327 . S
C381 H404 0.950 . S
C382 C381 1.349 . S
C382 C394 1.349 . S
C383 C381 1.327 . S
C383 C399 1.429 . S
C383 H405 0.950 . S
C384 H380 0.949 . S
C384 C392 1.574 . S
C384 C400 1.368 . S
H385 C393 0.950 . S
H386 C391 0.950 . S
H387 C392 0.949 . S
H388 C394 0.950 . S
H389 C395 0.950 . S
H390 C396 0.949 . S
C391 H386 0.950 . S
C391 C393 1.327 . S
C391 C397 1.429 . S
C392 C384 1.574 . S
C392 H387 0.949 . S
C392 C398 1.368 . S
C393 C377 1.349 . S
C393 H385 0.950 . S
C393 C391 1.327 . S
C394 C382 1.349 . S
C394 H388 0.950 . S
C394 C395 1.327 . S
C395 H389 0.950 . S
C395 C394 1.327 . S
C395 C399 1.429 . S
C396 C379 1.574 . S
C396 H390 0.949 . S
C396 C400 1.368 . S
C397 C378 1.429 . S
C397 C391 1.429 . S
C397 C398 1.523 . S
C398 C379 1.368 . S
C398 C392 1.368 . S
C398 C397 1.523 . S
C399 C383 1.429 . S
C399 C395 1.429 . S
C399 C400 1.523 . S
C400 C384 1.368 . S
C400 C396 1.368 . S
C400 C399 1.523 . S
H401 C376 0.950 . S
H402 C378 0.950 . S
H403 C379 0.949 . S
H404 C381 0.950 . S
H405 C383 0.950 . S
C406 C407 1.349 . S
C406 C408 1.327 . S
C406 H431 0.950 . S
C407 C406 1.349 . S
C407 C423 1.349 . S
C408 C406 1.327 . S
C408 C427 1.429 . S
C408 H432 0.950 . S
C409 C426 1.574 . S
C409 C428 1.368 . S
C409 H433 0.949 . S
H410 C414 0.949 . S
C411 C412 1.349 . S
C411 C413 1.327 . S
C411 H434 0.950 . S
C412 C411 1.349 . S
C412 C424 1.349 . S
C413 C411 1.327 . S
C413 C429 1.429 . S
C413 H435 0.950 . S
C414 H410 0.949 . S
C414 C422 1.574 . S
C414 C430 1.368 . S
H415 C423 0.950 . S
H416 C421 0.950 . S
H417 C422 0.949 . S
H418 C424 0.950 . S
H419 C425 0.950 . S
H420 C426 0.949 . S
C421 H416 0.950 . S
C421 C423 1.327 . S
C421 C427 1.429 . S
C422 C414 1.574 . S
C422 H417 0.949 . S
C422 C428 1.368 . S
C423 C407 1.349 . S
C423 H415 0.950 . S
C423 C421 1.327 . S
C424 C412 1.349 . S
C424 H418 0.950 . S
C424 C425 1.327 . S
C425 H419 0.950 . S
C425 C424 1.327 . S
C425 C429 1.429 . S
C426 C409 1.574 . S
C426 H420 0.949 . S
C426 C430 1.368 . S
C427 C408 1.429 . S
C427 C421 1.429 . S
C427 C428 1.523 . S
C428 C409 1.368 . S
C428 C422 1.368 . S
C428 C427 1.523 . S
C429 C413 1.429 . S
C429 C425 1.429 . S
C429 C430 1.523 . S
C430 C414 1.368 . S
C430 C426 1.368 . S
C430 C429 1.523 . S
H431 C406 0.950 . S
H432 C408 0.950 . S
H433 C409 0.949 . S
H434 C411 0.950 . S
H435 C413 0.950 . S
C436 C437 1.349 . S
C436 C438 1.327 . S
C436 H461 0.950 . S
C437 C436 1.349 . S
C437 C453 1.349 . S
C438 C436 1.327 . S
C438 C457 1.429 . S
C438 H462 0.950 . S
C439 C456 1.574 . S
C439 C458 1.368 . S
C439 H463 0.949 . S
H440 C444 0.949 1_545 S
C441 C442 1.349 . S
C441 C443 1.327 . S
C441 H464 0.950 . S
C442 C441 1.349 . S
C442 C454 1.349 . S
C443 C441 1.327 . S
C443 C459 1.429 . S
C443 H465 0.950 . S
C444 H440 0.949 1_565 S
C444 C452 1.574 . S
C444 C460 1.368 . S
H445 C453 0.950 . S
H446 C451 0.950 . S
H447 C452 0.949 . S
H448 C454 0.950 . S
H449 C455 0.950 . S
H450 C456 0.949 . S
C451 H446 0.950 . S
C451 C453 1.327 . S
C451 C457 1.429 . S
C452 C444 1.574 . S
C452 H447 0.949 . S
C452 C458 1.368 . S
C453 C437 1.349 . S
C453 H445 0.950 . S
C453 C451 1.327 . S
C454 C442 1.349 . S
C454 H448 0.950 . S
C454 C455 1.327 . S
C455 H449 0.950 . S
C455 C454 1.327 . S
C455 C459 1.429 . S
C456 C439 1.574 . S
C456 H450 0.949 . S
C456 C460 1.368 . S
C457 C438 1.429 . S
C457 C451 1.429 . S
C457 C458 1.523 . S
C458 C439 1.368 . S
C458 C452 1.368 . S
C458 C457 1.523 . S
C459 C443 1.429 . S
C459 C455 1.429 . S
C459 C460 1.523 1_545 S
C460 C444 1.368 . S
C460 C456 1.368 . S
C460 C459 1.523 1_565 S
H461 C436 0.950 . S
H462 C438 0.950 . S
H463 C439 0.949 . S
H464 C441 0.950 . S
H465 C443 0.950 . S
C466 C467 1.349 . S
C466 C468 1.327 . S
C466 H491 0.950 . S
C467 C466 1.349 . S
C467 C483 1.349 . S
C468 C466 1.327 . S
C468 C487 1.429 . S
C468 H492 0.950 . S
C469 C486 1.574 . S
C469 C488 1.368 . S
C469 H493 0.949 . S
H470 C474 0.949 . S
C471 C472 1.349 . S
C471 C473 1.327 . S
C471 H494 0.950 . S
C472 C471 1.349 . S
C472 C484 1.349 . S
C473 C471 1.327 . S
C473 C489 1.429 . S
C473 H495 0.950 . S
C474 H470 0.949 . S
C474 C482 1.574 . S
C474 C490 1.368 . S
H475 C483 0.950 . S
H476 C481 0.950 . S
H477 C482 0.949 . S
H478 C484 0.950 . S
H479 C485 0.950 . S
H480 C486 0.949 . S
C481 H476 0.950 . S
C481 C483 1.327 . S
C481 C487 1.429 . S
C482 C474 1.574 . S
C482 H477 0.949 . S
C482 C488 1.368 . S
C483 C467 1.349 . S
C483 H475 0.950 . S
C483 C481 1.327 . S
C484 C472 1.349 . S
C484 H478 0.950 . S
C484 C485 1.327 . S
C485 H479 0.950 . S
C485 C484 1.327 . S
C485 C489 1.429 . S
C486 C469 1.574 . S
C486 H480 0.949 . S
C486 C490 1.368 . S
C487 C468 1.429 . S
C487 C481 1.429 . S
C487 C488 1.523 . S
C488 C469 1.368 . S
C488 C482 1.368 . S
C488 C487 1.523 . S
C489 C473 1.429 . S
C489 C485 1.429 . S
C489 C490 1.523 . S
C490 C474 1.368 . S
C490 C486 1.368 . S
C490 C489 1.523 . S
H491 C466 0.950 . S
H492 C468 0.950 . S
H493 C469 0.949 . S
H494 C471 0.950 . S
H495 C473 0.950 . S
C496 C497 1.349 . S
C496 C498 1.327 . S
C496 H521 0.950 . S
C497 C496 1.349 . S
C497 C513 1.349 . S
C498 C496 1.327 . S
C498 C517 1.429 . S
C498 H522 0.950 . S
C499 C516 1.574 . S
C499 C518 1.368 . S
C499 H523 0.949 . S
H500 C504 0.949 . S
C501 C502 1.349 . S
C501 C503 1.327 . S
C501 H524 0.950 . S
C502 C501 1.349 . S
C502 C514 1.349 . S
C503 C501 1.327 . S
C503 C519 1.429 . S
C503 H525 0.950 . S
C504 H500 0.949 . S
C504 C512 1.574 . S
C504 C520 1.368 . S
H505 C513 0.950 . S
H506 C511 0.950 . S
H507 C512 0.949 . S
H508 C514 0.950 . S
H509 C515 0.950 . S
H510 C516 0.949 . S
C511 H506 0.950 . S
C511 C513 1.327 . S
C511 C517 1.429 . S
C512 C504 1.574 . S
C512 H507 0.949 . S
C512 C518 1.368 . S
C513 C497 1.349 . S
C513 H505 0.950 . S
C513 C511 1.327 . S
C514 C502 1.349 . S
C514 H508 0.950 . S
C514 C515 1.327 . S
C515 H509 0.950 . S
C515 C514 1.327 . S
C515 C519 1.429 . S
C516 C499 1.574 . S
C516 H510 0.949 . S
C516 C520 1.368 . S
C517 C498 1.429 . S
C517 C511 1.429 . S
C517 C518 1.523 . S
C518 C499 1.368 . S
C518 C512 1.368 . S
C518 C517 1.523 . S
C519 C503 1.429 . S
C519 C515 1.429 . S
C519 C520 1.523 . S
C520 C504 1.368 . S
C520 C516 1.368 . S
C520 C519 1.523 . S
H521 C496 0.950 . S
H522 C498 0.950 . S
H523 C499 0.949 . S
H524 C501 0.950 . S
H525 C503 0.950 . S
C526 C527 1.349 . S
C526 C528 1.327 . S
C526 H551 0.950 . S
C527 C526 1.349 . S
C527 C543 1.349 . S
C528 C526 1.327 . S
C528 C547 1.429 . S
C528 H552 0.950 . S
C529 C546 1.574 . S
C529 C548 1.368 . S
C529 H553 0.949 . S
H530 C534 0.949 . S
C531 C532 1.349 . S
C531 C533 1.327 . S
C531 H554 0.950 . S
C532 C531 1.349 . S
C532 C544 1.349 . S
C533 C531 1.327 . S
C533 C549 1.429 . S
C533 H555 0.950 . S
C534 H530 0.949 . S
C534 C542 1.574 . S
C534 C550 1.368 . S
H535 C543 0.950 . S
H536 C541 0.950 . S
H537 C542 0.949 . S
H538 C544 0.950 . S
H539 C545 0.950 . S
H540 C546 0.949 . S
C541 H536 0.950 . S
C541 C543 1.327 . S
C541 C547 1.429 . S
C542 C534 1.574 . S
C542 H537 0.949 . S
C542 C548 1.368 . S
C543 C527 1.349 . S
C543 H535 0.950 . S
C543 C541 1.327 . S
C544 C532 1.349 . S
C544 H538 0.950 . S
C544 C545 1.327 . S
C545 H539 0.950 . S
C545 C544 1.327 . S
C545 C549 1.429 . S
C546 C529 1.574 . S
C546 H540 0.949 . S
C546 C550 1.368 . S
C547 C528 1.429 . S
C547 C541 1.429 . S
C547 C548 1.523 . S
C548 C529 1.368 . S
C548 C542 1.368 . S
C548 C547 1.523 . S
C549 C533 1.429 . S
C549 C545 1.429 . S
C549 C550 1.523 . S
C550 C534 1.368 . S
C550 C546 1.368 . S
C550 C549 1.523 . S
H551 C526 0.950 . S
H552 C528 0.950 . S
H553 C529 0.949 . S
H554 C531 0.950 . S
H555 C533 0.950 . S
C556 C557 1.349 . S
C556 C558 1.327 . S
C556 H581 0.950 . S
C557 C556 1.349 . S
C557 C573 1.349 . S
C558 C556 1.327 . S
C558 C577 1.429 . S
C558 H582 0.950 . S
C559 C576 1.574 . S
C559 C578 1.368 . S
C559 H583 0.949 . S
H560 C564 0.949 . S
C561 C562 1.349 . S
C561 C563 1.327 . S
C561 H584 0.950 . S
C562 C561 1.349 . S
C562 C574 1.349 . S
C563 C561 1.327 . S
C563 C579 1.429 . S
C563 H585 0.950 . S
C564 H560 0.949 . S
C564 C572 1.574 . S
C564 C580 1.368 . S
H565 C573 0.950 . S
H566 C571 0.950 . S
H567 C572 0.949 . S
H568 C574 0.950 . S
H569 C575 0.950 . S
H570 C576 0.949 . S
C571 H566 0.950 . S
C571 C573 1.327 . S
C571 C577 1.429 . S
C572 C564 1.574 . S
C572 H567 0.949 . S
C572 C578 1.368 . S
C573 C557 1.349 . S
C573 H565 0.950 . S
C573 C571 1.327 . S
C574 C562 1.349 . S
C574 H568 0.950 . S
C574 C575 1.327 . S
C575 H569 0.950 . S
C575 C574 1.327 . S
C575 C579 1.429 . S
C576 C559 1.574 . S
C576 H570 0.949 . S
C576 C580 1.368 . S
C577 C558 1.429 . S
C577 C571 1.429 . S
C577 C578 1.523 . S
C578 C559 1.368 . S
C578 C572 1.368 . S
C578 C577 1.523 . S
C579 C563 1.429 . S
C579 C575 1.429 . S
C579 C580 1.523 . S
C580 C564 1.368 . S
C580 C576 1.368 . S
C580 C579 1.523 . S
H581 C556 0.950 . S
H582 C558 0.950 . S
H583 C559 0.949 . S
H584 C561 0.950 . S
H585 C563 0.950 . S
C586 C587 1.349 . S
C586 C588 1.327 . S
C586 H611 0.950 . S
C587 C586 1.349 . S
C587 C603 1.349 . S
C588 C586 1.327 . S
C588 C607 1.429 . S
C588 H612 0.950 . S
C589 C606 1.574 . S
C589 C608 1.368 . S
C589 H613 0.949 . S
H590 C594 0.949 . S
C591 C592 1.349 . S
C591 C593 1.327 . S
C591 H614 0.950 . S
C592 C591 1.349 . S
C592 C604 1.330 1_655 S
C593 C591 1.327 . S
C593 C609 1.429 . S
C593 H615 0.950 . S
C594 H590 0.949 . S
C594 C602 1.574 . S
C594 C610 1.368 . S
H595 C603 0.950 . S
H596 C601 0.950 . S
H597 C602 0.949 . S
H598 C604 0.977 . S
H599 C605 0.950 . S
H600 C606 0.949 . S
C601 H596 0.950 . S
C601 C603 1.327 . S
C601 C607 1.429 . S
C602 C594 1.574 . S
C602 H597 0.949 . S
C602 C608 1.368 . S
C603 C587 1.349 . S
C603 H595 0.950 . S
C603 C601 1.327 . S
C604 C592 1.330 1_455 S
C604 H598 0.977 . S
C604 C605 1.320 1_455 S
C605 H599 0.950 . S
C605 C604 1.320 1_655 S
C605 C609 1.429 . S
C606 C589 1.574 . S
C606 H600 0.949 . S
C606 C610 1.368 . S
C607 C588 1.429 . S
C607 C601 1.429 . S
C607 C608 1.523 . S
C608 C589 1.368 . S
C608 C602 1.368 . S
C608 C607 1.523 . S
C609 C593 1.429 . S
C609 C605 1.429 . S
C609 C610 1.523 . S
C610 C594 1.368 . S
C610 C606 1.368 . S
C610 C609 1.523 . S
H611 C586 0.950 . S
H612 C588 0.950 . S
H613 C589 0.949 . S
H614 C591 0.950 . S
H615 C593 0.950 . S
C616 C617 1.349 . S
C616 C618 1.327 . S
C616 H641 0.950 . S
C617 C616 1.349 . S
C617 C633 1.349 . S
C618 C616 1.327 . S
C618 C637 1.429 . S
C618 H642 0.950 . S
C619 C636 1.574 . S
C619 C638 1.368 . S
C619 H643 0.949 . S
H620 C624 0.949 . S
C621 C622 1.349 . S
C621 C623 1.327 . S
C621 H644 0.950 . S
C622 C621 1.349 . S
C622 C634 1.349 . S
C623 C621 1.327 . S
C623 C639 1.429 . S
C623 H645 0.950 . S
C624 H620 0.949 . S
C624 C632 1.574 . S
C624 C640 1.368 . S
H625 C633 0.950 . S
H626 C631 0.950 . S
H627 C632 0.949 . S
H628 C634 0.950 . S
H629 C635 0.950 . S
H630 C636 0.949 . S
C631 H626 0.950 . S
C631 C633 1.327 . S
C631 C637 1.429 . S
C632 C624 1.574 . S
C632 H627 0.949 . S
C632 C638 1.368 . S
C633 C617 1.349 . S
C633 H625 0.950 . S
C633 C631 1.327 . S
C634 C622 1.349 . S
C634 H628 0.950 . S
C634 C635 1.327 . S
C635 H629 0.950 . S
C635 C634 1.327 . S
C635 C639 1.429 . S
C636 C619 1.574 . S
C636 H630 0.949 . S
C636 C640 1.368 . S
C637 C618 1.429 . S
C637 C631 1.429 . S
C637 C638 1.523 . S
C638 C619 1.368 . S
C638 C632 1.368 . S
C638 C637 1.523 . S
C639 C623 1.429 . S
C639 C635 1.429 . S
C639 C640 1.523 . S
C640 C624 1.368 . S
C640 C636 1.368 . S
C640 C639 1.523 . S
H641 C616 0.950 . S
H642 C618 0.950 . S
H643 C619 0.949 . S
H644 C621 0.950 . S
H645 C623 0.950 . S
C646 C647 1.349 . S
C646 C648 1.327 . S
C646 H671 0.950 . S
C647 C646 1.349 . S
C647 C663 1.349 . S
C648 C646 1.327 . S
C648 C667 1.429 . S
C648 H672 0.950 . S
C649 C666 1.574 . S
C649 C668 1.368 . S
C649 H673 0.949 . S
H650 C654 0.949 . S
C651 C652 1.349 . S
C651 C653 1.327 . S
C651 H674 0.950 . S
C652 C651 1.349 . S
C652 C664 1.349 . S
C653 C651 1.327 . S
C653 C669 1.429 . S
C653 H675 0.950 . S
C654 H650 0.949 . S
C654 C662 1.574 . S
C654 C670 1.368 . S
H655 C663 0.950 . S
H656 C661 0.950 . S
H657 C662 0.949 . S
H658 C664 0.950 . S
H659 C665 0.950 . S
H660 C666 0.949 . S
C661 H656 0.950 . S
C661 C663 1.327 . S
C661 C667 1.429 . S
C662 C654 1.574 . S
C662 H657 0.949 . S
C662 C668 1.368 . S
C663 C647 1.349 . S
C663 H655 0.950 . S
C663 C661 1.327 . S
C664 C652 1.349 . S
C664 H658 0.950 . S
C664 C665 1.327 . S
C665 H659 0.950 . S
C665 C664 1.327 . S
C665 C669 1.429 . S
C666 C649 1.574 . S
C666 H660 0.949 . S
C666 C670 1.368 . S
C667 C648 1.429 . S
C667 C661 1.429 . S
C667 C668 1.523 . S
C668 C649 1.368 . S
C668 C662 1.368 . S
C668 C667 1.523 . S
C669 C653 1.429 . S
C669 C665 1.429 . S
C669 C670 1.523 . S
C670 C654 1.368 . S
C670 C666 1.368 . S
C670 C669 1.523 . S
H671 C646 0.950 . S
H672 C648 0.950 . S
H673 C649 0.949 . S
H674 C651 0.950 . S
H675 C653 0.950 . S
C676 C677 1.349 . S
C676 C678 1.327 . S
C676 H701 0.950 . S
C677 C676 1.349 . S
C677 C693 1.349 . S
C678 C676 1.327 . S
C678 C697 1.429 . S
C678 H702 0.950 . S
C679 C696 1.574 . S
C679 C698 1.368 . S
C679 H703 0.949 . S
H680 C684 0.949 . S
C681 C682 1.349 . S
C681 C683 1.327 . S
C681 H704 0.950 . S
C682 C681 1.349 . S
C682 C694 1.349 . S
C683 C681 1.327 . S
C683 C699 1.429 . S
C683 H705 0.950 . S
C684 H680 0.949 . S
C684 C692 1.574 . S
C684 C700 1.368 . S
H685 C693 0.950 . S
H686 C691 0.950 . S
H687 C692 0.949 . S
H688 C694 0.950 . S
H689 C695 0.950 . S
H690 C696 0.949 . S
C691 H686 0.950 . S
C691 C693 1.327 . S
C691 C697 1.429 . S
C692 C684 1.574 . S
C692 H687 0.949 . S
C692 C698 1.368 . S
C693 C677 1.349 . S
C693 H685 0.950 . S
C693 C691 1.327 . S
C694 C682 1.349 . S
C694 H688 0.950 . S
C694 C695 1.327 . S
C695 H689 0.950 . S
C695 C694 1.327 . S
C695 C699 1.429 . S
C696 C679 1.574 . S
C696 H690 0.949 . S
C696 C700 1.368 . S
C697 C678 1.429 . S
C697 C691 1.429 . S
C697 C698 1.523 . S
C698 C679 1.368 . S
C698 C692 1.368 . S
C698 C697 1.523 . S
C699 C683 1.429 . S
C699 C695 1.429 . S
C699 C700 1.523 . S
C700 C684 1.368 . S
C700 C696 1.368 . S
C700 C699 1.523 . S
H701 C676 0.950 . S
H702 C678 0.950 . S
H703 C679 0.949 . S
H704 C681 0.950 . S
H705 C683 0.950 . S
C706 C707 1.349 . S
C706 C708 1.327 . S
C706 H731 0.950 . S
C707 C706 1.349 . S
C707 C723 1.349 . S
C708 C706 1.327 . S
C708 C727 1.429 . S
C708 H732 0.950 . S
C709 C726 1.574 . S
C709 C728 1.368 . S
C709 H733 0.949 . S
H710 C714 0.949 . S
C711 C712 1.349 . S
C711 C713 1.327 . S
C711 H734 0.950 . S
C712 C711 1.349 . S
C712 C724 1.349 . S
C713 C711 1.327 . S
C713 C729 1.429 . S
C713 H735 0.950 . S
C714 H710 0.949 . S
C714 C722 1.574 . S
C714 C730 1.368 . S
H715 C723 0.950 . S
H716 C721 0.950 . S
H717 C722 0.949 . S
H718 C724 0.950 . S
H719 C725 0.950 . S
H720 C726 0.949 . S
C721 H716 0.950 . S
C721 C723 1.327 . S
C721 C727 1.429 . S
C722 C714 1.574 . S
C722 H717 0.949 . S
C722 C728 1.368 . S
C723 C707 1.349 . S
C723 H715 0.950 . S
C723 C721 1.327 . S
C724 C712 1.349 . S
C724 H718 0.950 . S
C724 C725 1.327 . S
C725 H719 0.950 . S
C725 C724 1.327 . S
C725 C729 1.429 . S
C726 C709 1.574 . S
C726 H720 0.949 . S
C726 C730 1.368 . S
C727 C708 1.429 . S
C727 C721 1.429 . S
C727 C728 1.523 . S
C728 C709 1.368 . S
C728 C722 1.368 . S
C728 C727 1.523 . S
C729 C713 1.429 . S
C729 C725 1.429 . S
C729 C730 1.523 . S
C730 C714 1.368 . S
C730 C726 1.368 . S
C730 C729 1.523 . S
H731 C706 0.950 . S
H732 C708 0.950 . S
H733 C709 0.949 . S
H734 C711 0.950 . S
H735 C713 0.950 . S
C736 C737 1.349 . S
C736 C738 1.327 . S
C736 H761 0.950 . S
C737 C736 1.349 . S
C737 C753 1.349 . S
C738 C736 1.327 . S
C738 C757 1.429 . S
C738 H762 0.950 . S
C739 C756 1.574 . S
C739 C758 1.368 . S
C739 H763 0.949 . S
H740 C744 0.949 . S
C741 C742 1.349 . S
C741 C743 1.327 . S
C741 H764 0.950 . S
C742 C741 1.349 . S
C742 C754 1.349 . S
C743 C741 1.327 . S
C743 C759 1.429 . S
C743 H765 0.950 . S
C744 H740 0.949 . S
C744 C752 1.574 . S
C744 C760 1.368 . S
H745 C753 0.950 . S
H746 C751 0.950 . S
H747 C752 0.949 . S
H748 C754 0.950 . S
H749 C755 0.950 . S
H750 C756 0.949 . S
C751 H746 0.950 . S
C751 C753 1.327 . S
C751 C757 1.429 . S
C752 C744 1.574 . S
C752 H747 0.949 . S
C752 C758 1.368 . S
C753 C737 1.349 . S
C753 H745 0.950 . S
C753 C751 1.327 . S
C754 C742 1.349 . S
C754 H748 0.950 . S
C754 C755 1.327 . S
C755 H749 0.950 . S
C755 C754 1.327 . S
C755 C759 1.429 . S
C756 C739 1.574 . S
C756 H750 0.949 . S
C756 C760 1.368 . S
C757 C738 1.429 . S
C757 C751 1.429 . S
C757 C758 1.523 . S
C758 C739 1.368 . S
C758 C752 1.368 . S
C758 C757 1.523 . S
C759 C743 1.429 . S
C759 C755 1.429 . S
C759 C760 1.523 . S
C760 C744 1.368 . S
C760 C756 1.368 . S
C760 C759 1.523 . S
H761 C736 0.950 . S
H762 C738 0.950 . S
H763 C739 0.949 . S
H764 C741 0.950 . S
H765 C743 0.950 . S
C766 C767 1.349 . S
C766 C768 1.327 . S
C766 H791 0.950 . S
C767 C766 1.349 . S
C767 C783 1.349 . S
C768 C766 1.327 . S
C768 C787 1.429 . S
C768 H792 0.950 . S
C769 C786 1.574 . S
C769 C788 1.368 . S
C769 H793 0.949 . S
H770 C774 0.949 . S
C771 C772 1.349 . S
C771 C773 1.327 . S
C771 H794 0.950 . S
C772 C771 1.349 . S
C772 C784 1.349 . S
C773 C771 1.327 . S
C773 C789 1.429 . S
C773 H795 0.950 . S
C774 H770 0.949 . S
C774 C782 1.574 . S
C774 C790 1.368 . S
H775 C783 0.950 . S
H776 C781 0.950 . S
H777 C782 0.949 . S
H778 C784 0.950 . S
H779 C785 0.950 . S
H780 C786 0.949 . S
C781 H776 0.950 . S
C781 C783 1.327 . S
C781 C787 1.429 . S
C782 C774 1.574 . S
C782 H777 0.949 . S
C782 C788 1.368 . S
C783 C767 1.349 . S
C783 H775 0.950 . S
C783 C781 1.327 . S
C784 C772 1.349 . S
C784 H778 0.950 . S
C784 C785 1.327 . S
C785 H779 0.950 . S
C785 C784 1.327 . S
C785 C789 1.429 . S
C786 C769 1.574 . S
C786 H780 0.949 . S
C786 C790 1.368 . S
C787 C768 1.429 . S
C787 C781 1.429 . S
C787 C788 1.523 . S
C788 C769 1.368 . S
C788 C782 1.368 . S
C788 C787 1.523 . S
C789 C773 1.429 . S
C789 C785 1.429 . S
C789 C790 1.523 . S
C790 C774 1.368 . S
C790 C786 1.368 . S
C790 C789 1.523 . S
H791 C766 0.950 . S
H792 C768 0.950 . S
H793 C769 0.949 . S
H794 C771 0.950 . S
H795 C773 0.950 . S
C796 C797 1.349 . S
C796 C798 1.327 . S
C796 H821 0.950 . S
C797 C796 1.349 . S
C797 C813 1.349 . S
C798 C796 1.327 . S
C798 C817 1.429 . S
C798 H822 0.950 . S
C799 C816 1.574 . S
C799 C818 1.368 . S
C799 H823 0.949 . S
H800 C804 0.949 . S
C801 C802 1.349 . S
C801 C803 1.327 . S
C801 H824 0.950 . S
C802 C801 1.349 . S
C802 C814 1.349 . S
C803 C801 1.327 . S
C803 C819 1.429 . S
C803 H825 0.950 . S
C804 H800 0.949 . S
C804 C812 1.574 . S
C804 C820 1.368 . S
H805 C813 0.950 . S
H806 C811 0.950 . S
H807 C812 0.949 . S
H808 C814 0.950 . S
H809 C815 0.950 . S
H810 C816 0.949 . S
C811 H806 0.950 . S
C811 C813 1.327 . S
C811 C817 1.429 . S
C812 C804 1.574 . S
C812 H807 0.949 . S
C812 C818 1.368 . S
C813 C797 1.349 . S
C813 H805 0.950 . S
C813 C811 1.327 . S
C814 C802 1.349 . S
C814 H808 0.950 . S
C814 C815 1.327 . S
C815 H809 0.950 . S
C815 C814 1.327 . S
C815 C819 1.429 . S
C816 C799 1.574 . S
C816 H810 0.949 . S
C816 C820 1.368 . S
C817 C798 1.429 . S
C817 C811 1.429 . S
C817 C818 1.523 . S
C818 C799 1.368 . S
C818 C812 1.368 . S
C818 C817 1.523 . S
C819 C803 1.429 . S
C819 C815 1.429 . S
C819 C820 1.523 . S
C820 C804 1.368 . S
C820 C816 1.368 . S
C820 C819 1.523 . S
H821 C796 0.950 . S
H822 C798 0.950 . S
H823 C799 0.949 . S
H824 C801 0.950 . S
H825 C803 0.950 . S
C826 C827 1.349 . S
C826 C828 1.327 . S
C826 H851 0.950 . S
C827 C826 1.349 . S
C827 C843 1.349 . S
C828 C826 1.327 . S
C828 C847 1.429 . S
C828 H852 0.950 . S
C829 C846 1.574 . S
C829 C848 1.368 . S
C829 H853 0.949 . S
H830 C834 0.949 . S
C831 C832 1.349 . S
C831 C833 1.327 . S
C831 H854 0.950 . S
C832 C831 1.349 . S
C832 C844 1.349 . S
C833 C831 1.327 . S
C833 C849 1.429 . S
C833 H855 0.950 . S
C834 H830 0.949 . S
C834 C842 1.574 . S
C834 C850 1.368 . S
H835 C843 0.950 . S
H836 C841 0.950 . S
H837 C842 0.949 . S
H838 C844 0.950 . S
H839 C845 0.950 . S
H840 C846 0.949 . S
C841 H836 0.950 . S
C841 C843 1.327 . S
C841 C847 1.429 . S
C842 C834 1.574 . S
C842 H837 0.949 . S
C842 C848 1.368 . S
C843 C827 1.349 . S
C843 H835 0.950 . S
C843 C841 1.327 . S
C844 C832 1.349 . S
C844 H838 0.950 . S
C844 C845 1.327 . S
C845 H839 0.950 . S
C845 C844 1.327 . S
C845 C849 1.429 . S
C846 C829 1.574 . S
C846 H840 0.949 . S
C846 C850 1.368 . S
C847 C828 1.429 . S
C847 C841 1.429 . S
C847 C848 1.523 . S
C848 C829 1.368 . S
C848 C842 1.368 . S
C848 C847 1.523 . S
C849 C833 1.429 . S
C849 C845 1.429 . S
C849 C850 1.523 . S
C850 C834 1.368 . S
C850 C846 1.368 . S
C850 C849 1.523 . S
H851 C826 0.950 . S
H852 C828 0.950 . S
H853 C829 0.949 . S
H854 C831 0.950 . S
H855 C833 0.950 . S
C856 C857 1.349 . S
C856 C858 1.327 . S
C856 H881 0.950 . S
C857 C856 1.349 . S
C857 C873 1.349 . S
C858 C856 1.327 . S
C858 C877 1.429 . S
C858 H882 0.950 . S
C859 C876 1.574 . S
C859 C878 1.368 . S
C859 H883 0.949 . S
H860 C864 0.943 1_545 S
C861 C862 1.349 . S
C861 C863 1.327 . S
C861 H884 0.950 . S
C862 C861 1.349 . S
C862 C874 1.349 . S
C863 C861 1.327 . S
C863 C879 1.429 . S
C863 H885 0.950 . S
C864 H860 0.943 1_565 S
C864 C872 1.574 . S
C864 C880 1.368 . S
H865 C873 0.950 . S
H866 C871 0.950 . S
H867 C872 0.949 . S
H868 C874 0.950 . S
H869 C875 0.950 . S
H870 C876 0.949 . S
C871 H866 0.950 . S
C871 C873 1.327 . S
C871 C877 1.429 . S
C872 C864 1.574 . S
C872 H867 0.949 . S
C872 C878 1.368 . S
C873 C857 1.349 . S
C873 H865 0.950 . S
C873 C871 1.327 . S
C874 C862 1.349 . S
C874 H868 0.950 . S
C874 C875 1.327 . S
C875 H869 0.950 . S
C875 C874 1.327 . S
C875 C879 1.429 . S
C876 C859 1.574 . S
C876 H870 0.949 . S
C876 C880 1.368 . S
C877 C858 1.429 . S
C877 C871 1.429 . S
C877 C878 1.523 . S
C878 C859 1.368 . S
C878 C872 1.368 . S
C878 C877 1.523 . S
C879 C863 1.429 . S
C879 C875 1.429 . S
C879 C880 1.523 1_545 S
C880 C864 1.368 . S
C880 C876 1.368 . S
C880 C879 1.523 1_565 S
H881 C856 0.950 . S
H882 C858 0.950 . S
H883 C859 0.949 . S
H884 C861 0.950 . S
H885 C863 0.950 . S
C886 C887 1.349 . S
C886 C888 1.327 . S
C886 H911 0.950 . S
C887 C886 1.349 . S
C887 C903 1.349 . S
C888 C886 1.327 . S
C888 C907 1.429 . S
C888 H912 0.950 . S
C889 C906 1.574 . S
C889 C908 1.368 . S
C889 H913 0.949 . S
H890 C894 0.949 . S
C891 C892 1.349 . S
C891 C893 1.327 . S
C891 H914 0.950 . S
C892 C891 1.349 . S
C892 C904 1.349 . S
C893 C891 1.327 . S
C893 C909 1.429 . S
C893 H915 0.950 . S
C894 H890 0.949 . S
C894 C902 1.574 . S
C894 C910 1.368 . S
H895 C903 0.950 . S
H896 C901 0.950 . S
H897 C902 0.949 . S
H898 C904 0.950 . S
H899 C905 0.950 . S
H900 C906 0.949 . S
C901 H896 0.950 . S
C901 C903 1.327 . S
C901 C907 1.429 . S
C902 C894 1.574 . S
C902 H897 0.949 . S
C902 C908 1.368 . S
C903 C887 1.349 . S
C903 H895 0.950 . S
C903 C901 1.327 . S
C904 C892 1.349 . S
C904 H898 0.950 . S
C904 C905 1.327 . S
C905 H899 0.950 . S
C905 C904 1.327 . S
C905 C909 1.429 . S
C906 C889 1.574 . S
C906 H900 0.949 . S
C906 C910 1.368 . S
C907 C888 1.429 . S
C907 C901 1.429 . S
C907 C908 1.523 . S
C908 C889 1.368 . S
C908 C902 1.368 . S
C908 C907 1.523 . S
C909 C893 1.429 . S
C909 C905 1.429 . S
C909 C910 1.523 . S
C910 C894 1.368 . S
C910 C906 1.368 . S
C910 C909 1.523 . S
H911 C886 0.950 . S
H912 C888 0.950 . S
H913 C889 0.949 . S
H914 C891 0.950 . S
H915 C893 0.950 . S
C202 C95 1.477 . S
C197 C5 1.359 . S
C232 C114 1.473 . S
C227 C16 1.304 . S
C262 C104 1.678 1_655 S
C257 C30 1.734 . S
C292 C120 1.663 . S
C287 C40 1.655 . S
C322 C131 1.354 . S
C317 C8 1.411 . S
C352 C156 1.396 . S
C347 C18 1.400 . S
C377 C29 1.738 . S
C382 C174 1.699 . S
C412 C194 1.553 . S
C407 C38 1.331 . S
C442 C140 1.305 . S
C437 C19 1.355 . S
C467 C27 1.435 . S
C472 C150 1.553 . S
C502 C168 1.593 . S
C497 C41 1.637 . S
C532 C185 1.453 . S
C527 C7 1.488 . S
C557 C52 1.693 . S
C562 C113 1.656 . S
C592 C96 1.586 1_655 S
C587 C62 1.604 . S
C617 C74 1.461 . S
C622 C122 1.387 . S
C647 C82 1.240 . S
C652 C102 1.382 . S
C682 C176 1.803 . S
C677 C51 1.796 . S
C712 C186 1.550 . S
C707 C60 1.378 . S
C742 C132 1.370 . S
C737 C71 1.200 . S
C767 C84 1.451 . S
C772 C149 1.422 . S
C802 C167 1.685 . S
C797 C63 1.768 . S
C832 C192 1.410 . S
C827 C73 1.431 . S
C862 C138 1.422 . S
C857 C85 1.467 . S
C887 C49 1.382 . S
C892 C158 1.608 . S
