# Generated by pormake.
# Topology pyr, (3,6)-cn, num edge types: 1
# Building blocks:
#     Node 0, Type 0, BuildingBlock: BETDAH_clean_linker_0, # of connection points: 3
#     Node 1, Type 0, BuildingBlock: BETDAH_clean_linker_0, # of connection points: 3
#     Node 2, Type 0, BuildingBlock: BETDAH_clean_linker_0, # of connection points: 3
#     Node 3, Type 0, BuildingBlock: BETDAH_clean_linker_0, # of connection points: 3
#     Node 4, Type 0, BuildingBlock: BETDAH_clean_linker_0, # of connection points: 3
#     Node 5, Type 0, BuildingBlock: BETDAH_clean_linker_0, # of connection points: 3
#     Node 6, Type 0, BuildingBlock: BETDAH_clean_linker_0, # of connection points: 3
#     Node 7, Type 0, BuildingBlock: BETDAH_clean_linker_0, # of connection points: 3
#     Node 8, Type 1, BuildingBlock: GEDQOX_clean_sbu_0, # of connection points: 6
#     Node 9, Type 1, BuildingBlock: GEDQOX_clean_sbu_0, # of connection points: 6
#     Node 10, Type 1, BuildingBlock: GEDQOX_clean_sbu_0, # of connection points: 6
#     Node 11, Type 1, BuildingBlock: GEDQOX_clean_sbu_0, # of connection points: 6
#     Edge 12, Type (0, 1), BuildingBlock: MIFKUJ_clean_linker_0, # of connection points: 2
#     Edge 13, Type (0, 1), BuildingBlock: MIFKUJ_clean_linker_0, # of connection points: 2
#     Edge 14, Type (0, 1), BuildingBlock: MIFKUJ_clean_linker_0, # of connection points: 2
#     Edge 15, Type (0, 1), BuildingBlock: MIFKUJ_clean_linker_0, # of connection points: 2
#     Edge 16, Type (0, 1), BuildingBlock: MIFKUJ_clean_linker_0, # of connection points: 2
#     Edge 17, Type (0, 1), BuildingBlock: MIFKUJ_clean_linker_0, # of connection points: 2
#     Edge 18, Type (0, 1), BuildingBlock: MIFKUJ_clean_linker_0, # of connection points: 2
#     Edge 19, Type (0, 1), BuildingBlock: MIFKUJ_clean_linker_0, # of connection points: 2
#     Edge 20, Type (0, 1), BuildingBlock: MIFKUJ_clean_linker_0, # of connection points: 2
#     Edge 21, Type (0, 1), BuildingBlock: MIFKUJ_clean_linker_0, # of connection points: 2
#     Edge 22, Type (0, 1), BuildingBlock: MIFKUJ_clean_linker_0, # of connection points: 2
#     Edge 23, Type (0, 1), BuildingBlock: MIFKUJ_clean_linker_0, # of connection points: 2
#     Edge 24, Type (0, 1), BuildingBlock: MIFKUJ_clean_linker_0, # of connection points: 2
#     Edge 25, Type (0, 1), BuildingBlock: MIFKUJ_clean_linker_0, # of connection points: 2
#     Edge 26, Type (0, 1), BuildingBlock: MIFKUJ_clean_linker_0, # of connection points: 2
#     Edge 27, Type (0, 1), BuildingBlock: MIFKUJ_clean_linker_0, # of connection points: 2
#     Edge 28, Type (0, 1), BuildingBlock: MIFKUJ_clean_linker_0, # of connection points: 2
#     Edge 29, Type (0, 1), BuildingBlock: MIFKUJ_clean_linker_0, # of connection points: 2
#     Edge 30, Type (0, 1), BuildingBlock: MIFKUJ_clean_linker_0, # of connection points: 2
#     Edge 31, Type (0, 1), BuildingBlock: MIFKUJ_clean_linker_0, # of connection points: 2
#     Edge 32, Type (0, 1), BuildingBlock: MIFKUJ_clean_linker_0, # of connection points: 2
#     Edge 33, Type (0, 1), BuildingBlock: MIFKUJ_clean_linker_0, # of connection points: 2
#     Edge 34, Type (0, 1), BuildingBlock: MIFKUJ_clean_linker_0, # of connection points: 2
#     Edge 35, Type (0, 1), BuildingBlock: MIFKUJ_clean_linker_0, # of connection points: 2
# Relax obj value: 0.156
# Max RMSD: 0.204
# Mean RMSD: 0.148
data_MOF--net-pyr--node1-GEDQOX_clean_sbu_0--node2-BETDAH_clean_linker_0--edge1-MIFKUJ_clean_linker_0
_symmetry_space_group_name_H-M    P1
_symmetry_Int_Tables_number       1
_symmetry_cell_setting            triclinic
loop_
_symmetry_equiv_pos_as_xyz
'x, y, z'
_cell_length_a     50.42222
_cell_length_b     50.868812
_cell_length_c     47.592065
_cell_angle_alpha  89.056579
_cell_angle_beta   94.049014
_cell_angle_gamma 95.965426
loop_
_atom_site_label
_atom_site_type_symbol
_atom_site_fract_x
_atom_site_fract_y
_atom_site_fract_z
_atom_type_partial_charge
H0 H 0.22746 0.15726 0.20903 0.0
H1 H 0.2345 0.21525 0.14229 0.0
H2 H 0.17357 0.21922 0.20069 0.0
C3 C 0.22044 0.17424 0.1981 0.0
C4 C 0.19822 0.18626 0.20893 0.0
C5 C 0.23456 0.18413 0.17401 0.0
C6 C 0.22499 0.20728 0.1607 0.0
C7 C 0.20315 0.22058 0.16966 0.0
C8 C 0.19016 0.20967 0.19389 0.0
N9 N 0.19606 0.24407 0.15273 0.0
C10 C 0.17814 0.26483 0.15088 0.0
H11 H 0.42495 0.79045 0.77826 0.0
H12 H 0.34786 0.81152 0.79836 0.0
H13 H 0.35267 0.7432 0.74863 0.0
C14 C 0.40337 0.78654 0.77687 0.0
C15 C 0.39081 0.7651 0.7608 0.0
C16 C 0.38803 0.80341 0.79064 0.0
C17 C 0.35997 0.79893 0.78773 0.0
C18 C 0.34742 0.77718 0.77259 0.0
C19 C 0.3628 0.76018 0.75978 0.0
N20 N 0.3193 0.77142 0.77082 0.0
C21 C 0.30222 0.79015 0.76225 0.0
H22 H 0.73795 0.41051 0.92003 0.0
H23 H 0.72849 0.49372 0.91335 0.0
H24 H 0.65946 0.43715 0.91467 0.0
C25 C 0.72526 0.42647 0.91797 0.0
C26 C 0.6974 0.42066 0.91768 0.0
C27 C 0.73683 0.45278 0.91655 0.0
C28 C 0.72011 0.47331 0.91509 0.0
C29 C 0.69235 0.46766 0.91419 0.0
C30 C 0.68102 0.44138 0.91549 0.0
N31 N 0.67595 0.48852 0.91047 0.0
C32 C 0.65821 0.48894 0.88691 0.0
H33 H 0.88641 0.77047 0.38988 0.0
H34 H 0.94824 0.77286 0.33159 0.0
H35 H 0.89686 0.70131 0.34276 0.0
C36 C 0.89678 0.76086 0.37439 0.0
C37 C 0.88929 0.73415 0.36812 0.0
C38 C 0.91813 0.775 0.36143 0.0
C39 C 0.93204 0.76212 0.34217 0.0
C40 C 0.92411 0.73585 0.33503 0.0
C41 C 0.90289 0.72178 0.34819 0.0
N42 N 0.93684 0.7243 0.31351 0.0
C43 C 0.92197 0.70892 0.29311 0.0
H44 H 0.90735 0.85899 0.83707 0.0
H45 H 0.84686 0.85861 0.89832 0.0
H46 H 0.85374 0.91952 0.83389 0.0
C47 C 0.89101 0.86762 0.84566 0.0
C48 C 0.88259 0.89107 0.83198 0.0
C49 C 0.87916 0.85515 0.87006 0.0
C50 C 0.85645 0.86719 0.88021 0.0
C51 C 0.84677 0.89081 0.8673 0.0
C52 C 0.86069 0.9019 0.84372 0.0
N53 N 0.82457 0.90555 0.87608 0.0
C54 C 0.80249 0.90585 0.89435 0.0
H55 H 0.70209 0.21862 0.30802 0.0
H56 H 0.69113 0.28234 0.36331 0.0
H57 H 0.63525 0.26398 0.29225 0.0
C58 C 0.6908 0.23447 0.31378 0.0
C59 C 0.66765 0.23932 0.29722 0.0
C60 C 0.69964 0.24996 0.33754 0.0
C61 C 0.68449 0.27019 0.34517 0.0
C62 C 0.66131 0.2753 0.32855 0.0
C63 C 0.65327 0.26 0.30469 0.0
N64 N 0.64574 0.29599 0.33442 0.0
C65 C 0.64667 0.30961 0.35961 0.0
H66 H 0.31338 0.67848 0.18157 0.0
H67 H 0.29541 0.60171 0.21909 0.0
H68 H 0.37358 0.64348 0.234 0.0
C69 C 0.31942 0.66225 0.19474 0.0
C70 C 0.34565 0.66352 0.20715 0.0
C71 C 0.30104 0.64011 0.19898 0.0
C72 C 0.3092 0.61915 0.21591 0.0
C73 C 0.33506 0.62035 0.22889 0.0
C74 C 0.35339 0.64254 0.22436 0.0
N75 N 0.34198 0.59868 0.246 0.0
C76 C 0.36272 0.60029 0.2669 0.0
H77 H 0.20712 0.30559 0.71028 0.0
H78 H 0.22643 0.32351 0.79774 0.0
H79 H 0.18688 0.24745 0.77407 0.0
C80 C 0.20636 0.29997 0.73229 0.0
C81 C 0.19504 0.27455 0.73944 0.0
C82 C 0.21763 0.31787 0.75313 0.0
C83 C 0.21779 0.30986 0.78154 0.0
C84 C 0.20695 0.28424 0.78898 0.0
C85 C 0.19574 0.26683 0.76793 0.0
N86 N 0.2068 0.27548 0.81745 0.0
C87 C 0.20901 0.29299 0.8397 0.0
Nd88 Nd 0.05874 0.02784 0.52452 0.0
Nd89 Nd 1.01765 0.06489 0.51973 0.0
C90 C 0.08814 0.98755 0.53041 0.0
C91 C 0.09934 0.97168 0.55362 0.0
C92 C 0.10218 0.94495 0.54939 0.0
C93 C 0.1153 0.93036 0.57022 0.0
C94 C 0.12601 0.94241 0.59549 0.0
C95 C 0.12227 0.96895 0.60008 0.0
C96 C 0.10889 0.98342 0.5794 0.0
C97 C 0.07535 0.07661 0.54686 0.0
C98 C 1.01466 0.02152 0.57513 0.0
C99 C 0.98375 0.10045 0.52589 0.0
C100 C 0.96447 0.1166 0.51088 0.0
C101 C 0.97138 0.13377 0.48853 0.0
C102 C 0.95229 0.14881 0.47514 0.0
C103 C 0.92601 0.14694 0.48386 0.0
C104 C 0.91934 0.12967 0.50624 0.0
C105 C 0.93836 0.1148 0.51962 0.0
C106 C 1.00791 0.02421 0.48219 0.0
C107 C 0.06226 0.06951 0.46968 0.0
O108 O 0.06228 0.98446 0.5249 0.0
O109 O 0.09803 0.01222 0.5292 0.0
O110 O 0.08968 0.06396 0.53132 0.0
O111 O 0.05325 0.06355 0.5504 0.0
O112 O 0.03798 0.01499 0.56706 0.0
O113 O 1.00262 0.03967 0.5597 0.0
O114 O 1.00941 0.10675 0.52361 0.0
O115 O 0.97699 0.07494 0.52637 0.0
O116 O 1.00298 0.04818 0.47589 0.0
O117 O 1.01612 0.02239 0.50758 0.0
O118 O 0.04706 0.08314 0.48499 0.0
O119 O 0.06585 0.04488 0.47832 0.0
H120 H 0.09493 0.93556 0.52965 0.0
H121 H 0.11805 0.90997 0.5661 0.0
H122 H 0.13005 0.9786 0.6195 0.0
H123 H 0.10668 1.00398 0.58325 0.0
H124 H 0.99142 0.13556 0.48141 0.0
H125 H 0.95818 0.16206 0.45812 0.0
H126 H 0.89923 0.12724 0.51319 0.0
H127 H 0.93258 0.10169 0.53682 0.0
Nd128 Nd 0.51262 0.02114 0.057 0.0
Nd129 Nd 0.51666 0.04989 0.01705 0.0
C130 C 0.50304 0.98257 0.09444 0.0
C131 C 0.50351 0.95451 0.10211 0.0
C132 C 0.49611 0.93434 0.0824 0.0
C133 C 0.49154 0.90803 0.09149 0.0
C134 C 0.49412 0.90166 0.12037 0.0
C135 C 0.50327 0.92172 0.1397 0.0
C136 C 0.50794 0.9479 0.13062 0.0
C137 C 0.47366 0.05823 0.06357 0.0
C138 C 0.48537 0.99741 1.00022 0.0
C139 C 0.51849 0.09089 0.98158 0.0
C140 C 0.53769 0.11344 0.9748 0.0
C141 C 0.5558 0.12531 0.99577 0.0
C142 C 0.57222 0.14819 0.98976 0.0
C143 C 0.57105 0.1594 0.96259 0.0
C144 C 0.55377 0.14683 0.9413 0.0
C145 C 0.5371 0.12405 0.94743 0.0
C146 C 0.55766 0.01571 1.00895 0.0
C147 C 0.5526 0.06891 0.07378 0.0
O148 O 0.52552 0.99771 0.09473 0.0
O149 O 0.4859 0.98856 0.07422 0.0
O150 O 0.49334 0.05365 0.08132 0.0
O151 O 0.47727 0.04573 0.04097 0.0
O152 O 0.5021 0.99142 0.02098 0.0
O153 O 0.48221 0.02239 0.99674 0.0
O154 O 0.50913 0.09105 1.00636 0.0
O155 O 0.52415 0.06756 0.97478 0.0
O156 O 0.53984 0.02291 0.99024 0.0
O157 O 0.55235 0.02519 0.03286 0.0
O158 O 0.54056 0.07723 0.05052 0.0
O159 O 0.54764 0.04418 0.08079 0.0
H160 H 0.49254 0.93904 0.06026 0.0
H161 H 0.48436 0.89296 0.07617 0.0
H162 H 0.50569 0.9173 0.16203 0.0
H163 H 0.51362 0.9632 0.14612 0.0
H164 H 0.55681 0.11729 0.01696 0.0
H165 H 0.58561 0.15735 1.00644 0.0
H166 H 0.55241 0.15519 0.92022 0.0
H167 H 0.52328 0.1151 0.93098 0.0
Nd168 Nd 0.50865 0.52863 0.56147 0.0
Nd169 Nd 0.56206 0.56078 0.56532 0.0
C170 C 0.45739 0.51104 0.55637 0.0
C171 C 0.43621 0.50559 0.57624 0.0
C172 C 0.41244 0.51769 0.57224 0.0
C173 C 0.39204 0.51221 0.59061 0.0
C174 C 0.39496 0.49435 0.61327 0.0
C175 C 0.41908 0.48272 0.6175 0.0
C176 C 0.43949 0.48837 0.59932 0.0
C177 C 0.54089 0.51648 0.60797 0.0
C178 C 0.51598 0.58452 0.59578 0.0
C179 C 0.61285 0.57995 0.57211 0.0
C180 C 0.63485 0.58621 0.55378 0.0
C181 C 0.66116 0.59045 0.56556 0.0
C182 C 0.68203 0.59838 0.54847 0.0
C183 C 0.67678 0.60233 0.51937 0.0
C184 C 0.65043 0.59726 0.50755 0.0
C185 C 0.62963 0.58915 0.52462 0.0
C186 C 0.52921 0.57268 0.51907 0.0
C187 C 0.55531 0.50404 0.53213 0.0
O188 O 0.46611 0.53587 0.55249 0.0
O189 O 0.47658 0.49553 0.55807 0.0
O190 O 0.52426 0.49924 0.59448 0.0
O191 O 0.53846 0.53926 0.59831 0.0
O192 O 0.49979 0.56892 0.57877 0.0
O193 O 0.54169 0.58163 0.59871 0.0
O194 O 0.60473 0.55488 0.57537 0.0
O195 O 0.59314 0.59472 0.56845 0.0
O196 O 0.54522 0.59025 0.53287 0.0
O197 O 0.5323 0.54995 0.52846 0.0
O198 O 0.57161 0.521 0.54757 0.0
O199 O 0.52933 0.50586 0.52984 0.0
H200 H 0.40957 0.53124 0.55474 0.0
H201 H 0.37391 0.52181 0.58692 0.0
H202 H 0.42195 0.46852 0.63436 0.0
H203 H 0.45768 0.47887 0.60318 0.0
H204 H 0.66547 0.58824 0.58806 0.0
H205 H 0.70211 0.60237 0.55817 0.0
H206 H 0.64589 0.59987 0.48515 0.0
H207 H 0.60939 0.58575 0.51517 0.0
Nd208 Nd 1.0043 0.55343 0.0309 0.0
Nd209 Nd 0.05415 0.56647 0.9915 0.0
C210 C 0.95878 0.53328 0.05011 0.0
C211 C 0.93356 0.54454 0.05314 0.0
C212 C 0.92749 0.56682 0.0371 0.0
C213 C 0.9067 0.58104 0.04401 0.0
C214 C 0.89179 0.57322 0.06711 0.0
C215 C 0.89638 0.54952 0.08144 0.0
C216 C 0.91725 0.53533 0.07455 0.0
C217 C 0.04543 0.58787 0.05259 0.0
C218 C 1.00517 0.6093 0.98984 0.0
C219 C 0.10214 0.57995 0.97356 0.0
C220 C 0.1257 0.56534 0.97271 0.0
C221 C 0.14247 0.56978 0.95052 0.0
C222 C 0.16112 0.5521 0.94583 0.0
C223 C 0.16296 0.52948 0.96305 0.0
C224 C 0.14747 0.5263 0.98656 0.0
C225 C 0.12907 0.54412 0.99137 0.0
C226 C 1.0102 0.53871 0.96396 0.0
C227 C 0.05291 0.51019 0.0328 0.0
O228 O 0.96494 0.53006 0.0242 0.0
O229 O 0.97906 0.54353 0.06658 0.0
O230 O 0.02082 0.58831 0.05923 0.0
O231 O 0.0476 0.56795 0.03772 0.0
O232 O 0.99088 0.59126 1.00523 0.0
O233 O 0.03048 0.60537 0.98453 0.0
O234 O 0.09543 0.58609 0.99851 0.0
O235 O 0.08161 0.57062 0.95705 0.0
O236 O 0.03196 0.54502 0.9513 0.0
O237 O 1.0143 0.54636 0.98865 0.0
O238 O 0.06551 0.52599 0.01382 0.0
O239 O 0.02958 0.51646 0.04169 0.0
H240 H 0.93986 0.57419 0.0204 0.0
H241 H 0.90352 0.59918 0.03259 0.0
H242 H 0.88544 0.5432 0.09958 0.0
H243 H 0.92174 0.51819 0.08713 0.0
H244 H 0.14013 0.58607 0.9359 0.0
H245 H 0.17312 0.55543 0.92787 0.0
H246 H 0.1481 0.50905 1.00014 0.0
H247 H 0.11639 0.54038 1.00871 0.0
H248 H 0.19684 0.13491 0.23482 0.0
H249 H 0.1758 0.11692 0.27639 0.0
H250 H 0.14323 0.19045 0.28792 0.0
H251 H 0.16544 0.20918 0.2469 0.0
H252 H 0.15044 0.17449 0.33819 0.0
H253 H 0.10624 0.12203 0.26284 0.0
H254 H 0.10228 0.09261 0.22174 0.0
H255 H 0.14165 0.03455 0.27072 0.0
H256 H 0.14612 0.06376 0.31204 0.0
H257 H 0.06105 0.12031 0.44416 0.0
H258 H 0.08199 0.1393 0.40233 0.0
H259 H 0.11618 0.06663 0.39043 0.0
H260 H 0.09471 0.04749 0.43194 0.0
H261 H 0.10775 0.08242 0.34028 0.0
H262 H 0.15186 0.13515 0.4157 0.0
H263 H 0.15518 0.16451 0.45683 0.0
H264 H 0.11529 0.22206 0.4076 0.0
H265 H 0.11146 0.1929 0.36626 0.0
C266 C 0.18553 0.14784 0.24588 0.0
C267 C 0.18373 0.17427 0.23581 0.0
C268 C 0.17267 0.13698 0.27022 0.0
C269 C 0.15655 0.15141 0.28653 0.0
C270 C 0.15493 0.17789 0.27677 0.0
C271 C 0.16785 0.18882 0.2524 0.0
C272 C 0.14201 0.13932 0.31327 0.0
C273 C 0.14088 0.1544 0.33803 0.0
C274 C 0.12933 0.11275 0.31518 0.0
C275 C 0.12677 0.09519 0.29042 0.0
C276 C 0.11421 0.10306 0.26478 0.0
C277 C 0.11185 0.08641 0.24146 0.0
C278 C 0.12178 0.06176 0.24359 0.0
C279 C 0.13402 0.05367 0.26909 0.0
C280 C 0.13646 0.07025 0.29247 0.0
C281 C 0.07303 0.10813 0.43289 0.0
C282 C 0.07566 0.08186 0.44271 0.0
C283 C 0.08557 0.11935 0.40847 0.0
C284 C 0.10196 0.10529 0.392 0.0
C285 C 0.1042 0.07887 0.40164 0.0
C286 C 0.09167 0.06765 0.42606 0.0
C287 C 0.11624 0.11756 0.36521 0.0
C288 C 0.11732 0.10251 0.34043 0.0
C289 C 0.12881 0.14416 0.36327 0.0
C290 C 0.13113 0.16173 0.388 0.0
C291 C 0.14366 0.15401 0.41371 0.0
C292 C 0.14565 0.17061 0.43704 0.0
C293 C 0.13539 0.1951 0.43485 0.0
C294 C 0.12319 0.20307 0.40928 0.0
C295 C 0.12111 0.18652 0.38589 0.0
H296 H 0.13694 0.20793 0.45294 0.0
H297 H 0.11993 0.0489 0.22552 0.0
H298 H 0.42853 0.8004 0.83143 0.0
H299 H 0.4461 0.83417 0.86598 0.0
H300 H 0.39407 0.88842 0.82697 0.0
H301 H 0.37639 0.85471 0.79237 0.0
H302 H 0.44687 0.912 0.84296 0.0
H303 H 0.37463 0.85696 0.88236 0.0
H304 H 0.3508 0.81451 0.89638 0.0
H305 H 0.41806 0.79874 0.95226 0.0
H306 H 0.44248 0.84095 0.93821 0.0
H307 H 0.45183 1.00439 0.95346 0.0
H308 H 0.43581 0.97188 0.91717 0.0
H309 H 0.47744 0.91289 0.963 0.0
H310 H 0.493 0.94509 0.99962 0.0
H311 H 0.43031 0.8916 0.94295 0.0
H312 H 0.50291 0.94536 0.90506 0.0
H313 H 0.52855 0.98688 0.89114 0.0
H314 H 0.46365 1.00406 0.83269 0.0
H315 H 0.43744 0.96281 0.84658 0.0
C316 C 0.42121 0.81969 0.8299 0.0
C317 C 0.40101 0.82489 0.80928 0.0
C318 C 0.43113 0.83889 0.84974 0.0
C319 C 0.42118 0.8637 0.84919 0.0
C320 C 0.40196 0.86939 0.8278 0.0
C321 C 0.39181 0.85009 0.80815 0.0
C322 C 0.42971 0.88314 0.87184 0.0
C323 C 0.443 0.90771 0.86479 0.0
C324 C 0.42521 0.87725 0.90038 0.0
C325 C 0.41048 0.85198 0.90901 0.0
C326 C 0.38443 0.84434 0.89746 0.0
C327 C 0.3708 0.82034 0.90544 0.0
C328 C 0.38294 0.8039 0.92514 0.0
C329 C 0.4087 0.81147 0.93696 0.0
C330 C 0.42244 0.83544 0.92901 0.0
C331 C 0.45737 0.98443 0.95593 0.0
C332 C 0.47379 0.97736 0.97935 0.0
C333 C 0.44835 0.9659 0.93506 0.0
C334 C 0.45581 0.94002 0.93705 0.0
C335 C 0.4715 0.93273 0.9609 0.0
C336 C 0.48041 0.9512 0.98182 0.0
C337 C 0.44755 0.92062 0.91418 0.0
C338 C 0.43426 0.89599 0.92116 0.0
C339 C 0.45235 0.92637 0.88562 0.0
C340 C 0.4681 0.95112 0.87708 0.0
C341 C 0.49402 0.95809 0.8894 0.0
C342 C 0.50867 0.98156 0.88149 0.0
C343 C 0.49771 0.99813 0.86109 0.0
C344 C 0.4721 0.99122 0.84851 0.0
C345 C 0.45734 0.96779 0.85639 0.0
H346 H 0.50908 0.0163 0.85499 0.0
H347 H 0.37235 0.78533 0.9313 0.0
H348 H 0.66227 0.45656 0.84415 0.0
H349 H 0.64055 0.45907 0.79651 0.0
H350 H 0.59907 0.52385 0.82205 0.0
H351 H 0.6208 0.52121 0.86982 0.0
H352 H 0.56692 0.48852 0.78689 0.0
H353 H 0.65383 0.53771 0.78943 0.0
H354 H 0.70275 0.54417 0.79907 0.0
H355 H 0.71187 0.48231 0.7413 0.0
H356 H 0.66293 0.47521 0.73163 0.0
H357 H 0.57555 0.55085 0.63889 0.0
H358 H 0.5949 0.54429 0.68679 0.0
H359 H 0.5557 0.46477 0.68763 0.0
H360 H 0.53627 0.47121 0.63963 0.0
H361 H 0.6277 0.50841 0.7099 0.0
H362 H 0.53307 0.45433 0.75444 0.0
H363 H 0.48408 0.45108 0.74493 0.0
H364 H 0.49029 0.52927 0.70895 0.0
H365 H 0.53924 0.53312 0.71862 0.0
C366 C 0.64815 0.471 0.83957 0.0
C367 C 0.64301 0.4887 0.86024 0.0
C368 C 0.63587 0.47248 0.81247 0.0
C369 C 0.61843 0.49181 0.80576 0.0
C370 C 0.61244 0.50879 0.82688 0.0
C371 C 0.62481 0.50733 0.85402 0.0
C372 C 0.60791 0.49542 0.7763 0.0
C373 C 0.58017 0.49276 0.77003 0.0
C374 C 0.62526 0.50138 0.75443 0.0
C375 C 0.65471 0.50576 0.76003 0.0
C376 C 0.66625 0.52535 0.77895 0.0
C377 C 0.69399 0.52915 0.78439 0.0
C378 C 0.71041 0.51361 0.77087 0.0
C379 C 0.69912 0.4943 0.7518 0.0
C380 C 0.67139 0.49039 0.74631 0.0
C381 C 0.57125 0.5319 0.64923 0.0
C382 C 0.55429 0.51158 0.63574 0.0
C383 C 0.58235 0.52817 0.6765 0.0
C384 C 0.57647 0.50416 0.69078 0.0
C385 C 0.56021 0.48353 0.67701 0.0
C386 C 0.54923 0.4872 0.64962 0.0
C387 C 0.58672 0.5011 0.7204 0.0
C388 C 0.61443 0.50393 0.72672 0.0
C389 C 0.56932 0.49574 0.74233 0.0
C390 C 0.53984 0.49387 0.73699 0.0
C391 C 0.52396 0.47086 0.74461 0.0
C392 C 0.4962 0.46891 0.73918 0.0
C393 C 0.48409 0.48992 0.72625 0.0
C394 C 0.4997 0.51297 0.71886 0.0
C395 C 0.52745 0.51503 0.72429 0.0
H396 H 0.46262 0.48834 0.72201 0.0
H397 H 0.73187 0.51658 0.77511 0.0
H398 H 0.87564 0.72327 0.26965 0.0
H399 H 0.84866 0.70204 0.22955 0.0
H400 H 0.9046 0.64341 0.22738 0.0
H401 H 0.93117 0.66445 0.26749 0.0
H402 H 0.86271 0.69711 0.1779 0.0
H403 H 0.87697 0.58653 0.20722 0.0
H404 H 0.87463 0.55786 0.24942 0.0
H405 H 0.8245 0.60928 0.28611 0.0
H406 H 0.82634 0.63816 0.24409 0.0
H407 H 0.9075 0.62467 0.07759 0.0
H408 H 0.89044 0.65159 0.11186 0.0
H409 H 0.82371 0.59231 0.12135 0.0
H410 H 0.84203 0.56425 0.08775 0.0
H411 H 0.84525 0.59985 0.16837 0.0
H412 H 0.81634 0.66218 0.10362 0.0
H413 H 0.81584 0.69105 0.06152 0.0
H414 H 0.88715 0.73668 0.0949 0.0
H415 H 0.88842 0.70791 0.13697 0.0
C416 C 0.88176 0.70558 0.26072 0.0
C417 C 0.90522 0.69526 0.27128 0.0
C418 C 0.86642 0.69353 0.23794 0.0
C419 C 0.8744 0.67095 0.22573 0.0
C420 C 0.8977 0.66044 0.23688 0.0
C421 C 0.91297 0.67249 0.25958 0.0
C422 C 0.86029 0.65961 0.19968 0.0
C423 C 0.85838 0.67589 0.17569 0.0
C424 C 0.85317 0.63212 0.19719 0.0
C425 C 0.85179 0.61454 0.22242 0.0
C426 C 0.86527 0.59163 0.22417 0.0
C427 C 0.86411 0.57539 0.24814 0.0
C428 C 0.84948 0.58177 0.27048 0.0
C429 C 0.83594 0.60441 0.26888 0.0
C430 C 0.83707 0.62075 0.24501 0.0
C431 C 0.88855 0.61778 0.08597 0.0
C432 C 0.87624 0.59222 0.08023 0.0
C433 C 0.87857 0.63341 0.10559 0.0
C434 C 0.85559 0.6242 0.11936 0.0
C435 C 0.84155 0.59985 0.11121 0.0
C436 C 0.85196 0.58384 0.09199 0.0
C437 C 0.8503 0.63711 0.14593 0.0
C438 C 0.84841 0.62116 0.17027 0.0
C439 C 0.8532 0.66498 0.14869 0.0
C440 C 0.85235 0.68287 0.12364 0.0
C441 C 0.83195 0.67834 0.10201 0.0
C442 C 0.83154 0.6947 0.07811 0.0
C443 C 0.85139 0.71574 0.07559 0.0
C444 C 0.87169 0.72048 0.09697 0.0
C445 C 0.87221 0.70418 0.1209 0.0
H446 H 0.85109 0.72832 0.05703 0.0
H447 H 0.8486 0.56917 0.28901 0.0
H448 H 0.27829 0.20583 0.14274 0.0
H449 H 0.31523 0.18565 0.12421 0.0
H450 H 0.28658 0.11072 0.1596 0.0
H451 H 0.24902 0.13083 0.17791 0.0
H452 H 0.30719 0.09721 0.11365 0.0
H453 H 0.38184 0.19072 0.10944 0.0
H454 H 0.39348 0.23295 0.13439 0.0
H455 H 0.36058 0.19862 0.20901 0.0
H456 H 0.34904 0.15613 0.18461 0.0
H457 H 0.42042 0.06031 0.037 0.0
H458 H 0.3817 0.08 0.05379 0.0
H459 H 0.42886 0.10616 0.1288 0.0
H460 H 0.46724 0.08663 0.11207 0.0
H461 H 0.39892 0.14296 0.12104 0.0
H462 H 0.37048 0.05025 0.12122 0.0
H463 H 0.35985 1.00565 0.10124 0.0
H464 H 0.30189 0.03501 0.04153 0.0
H465 H 0.31241 0.07987 0.06096 0.0
C466 C 0.27924 0.18496 0.14679 0.0
C467 C 0.25915 0.17075 0.16255 0.0
C468 C 0.30132 0.17312 0.13611 0.0
C469 C 0.30545 0.14592 0.1401 0.0
C470 C 0.28525 0.13156 0.15553 0.0
C471 C 0.26323 0.14348 0.16649 0.0
C472 C 0.33016 0.13291 0.12851 0.0
C473 C 0.32706 0.10771 0.11526 0.0
C474 C 0.35733 0.145 0.1302 0.0
C475 C 0.36433 0.17036 0.14509 0.0
C476 C 0.37717 0.19218 0.13119 0.0
C477 C 0.38373 0.21616 0.14523 0.0
C478 C 0.37769 0.21849 0.17324 0.0
C479 C 0.36516 0.19682 0.18729 0.0
C480 C 0.35858 0.17279 0.17336 0.0
C481 C 0.42286 0.07023 0.0571 0.0
C482 C 0.4482 0.07127 0.07265 0.0
C483 C 0.40006 0.08162 0.06715 0.0
C484 C 0.40074 0.09507 0.09349 0.0
C485 C 0.42626 0.09641 0.10861 0.0
C486 C 0.44883 0.08485 0.09876 0.0
C487 C 0.37584 0.10765 0.10527 0.0
C488 C 0.37897 0.13266 0.11889 0.0
C489 C 0.34877 0.09529 0.10407 0.0
C490 C 0.34244 0.06844 0.09234 0.0
C491 C 0.3556 0.04722 0.1037 0.0
C492 C 0.34958 0.02189 0.0925 0.0
C493 C 0.33026 0.01752 0.07007 0.0
C494 C 0.31688 0.03844 0.05886 0.0
C495 C 0.32286 0.06382 0.06997 0.0
H496 H 0.32562 0.9979 0.06143 0.0
H497 H 0.38277 0.23707 0.18406 0.0
H498 H 0.31273 0.84114 0.74625 0.0
H499 H 0.28117 0.86869 0.72125 0.0
H500 H 0.21816 0.80479 0.72601 0.0
H501 H 0.24977 0.77733 0.75073 0.0
H502 H 0.22132 0.82461 0.67303 0.0
H503 H 0.21933 0.85961 0.76636 0.0
H504 H 0.23927 0.87976 0.81074 0.0
H505 H 0.27215 0.94751 0.76502 0.0
H506 H 0.25269 0.9276 0.7203 0.0
H507 H 0.11438 0.89266 0.61694 0.0
H508 H 0.14301 0.86791 0.649 0.0
H509 H 0.20379 0.93434 0.6518 0.0
H510 H 0.17491 0.95934 0.62046 0.0
H511 H 0.20159 0.9134 0.70189 0.0
H512 H 0.20673 0.87956 0.60936 0.0
H513 H 0.18934 0.86032 0.56365 0.0
H514 H 0.154 0.79154 0.6059 0.0
H515 H 0.17088 0.81055 0.65192 0.0
C516 C 0.29201 0.8333 0.74229 0.0
C517 C 0.28339 0.80739 0.7504 0.0
C518 C 0.27403 0.84896 0.72809 0.0
C519 C 0.24726 0.83882 0.72192 0.0
C520 C 0.23868 0.813 0.73059 0.0
C521 C 0.25664 0.79741 0.74478 0.0
C522 C 0.22853 0.85446 0.70501 0.0
C523 C 0.21666 0.84385 0.67956 0.0
C524 C 0.2232 0.87993 0.71306 0.0
C525 C 0.23475 0.892 0.73996 0.0
C526 C 0.23097 0.87872 0.76575 0.0
C527 C 0.24216 0.89011 0.79097 0.0
C528 C 0.25702 0.91487 0.7907 0.0
C529 C 0.26066 0.92832 0.7652 0.0
C530 C 0.24953 0.917 0.73991 0.0
C531 C 0.13381 0.90196 0.62454 0.0
C532 C 0.14249 0.92785 0.61617 0.0
C533 C 0.15018 0.88782 0.64278 0.0
C534 C 0.17579 0.89908 0.65244 0.0
C535 C 0.18415 0.92521 0.64466 0.0
C536 C 0.16764 0.93948 0.62677 0.0
C537 C 0.19418 0.88345 0.66996 0.0
C538 C 0.2061 0.89409 0.69543 0.0
C539 C 0.19992 0.85813 0.66173 0.0
C540 C 0.18983 0.8466 0.63409 0.0
C541 C 0.19509 0.86041 0.60891 0.0
C542 C 0.18535 0.84954 0.58295 0.0
C543 C 0.17051 0.82475 0.58188 0.0
C544 C 0.16546 0.81076 0.60677 0.0
C545 C 0.17512 0.82156 0.63279 0.0
H546 H 0.16299 0.81637 0.56175 0.0
H547 H 0.26568 0.92366 0.81024 0.0
H548 H 0.76842 0.49285 0.94357 0.0
H549 H 0.81644 0.50408 0.94138 0.0
H550 H 0.82021 0.4375 0.88741 0.0
H551 H 0.77184 0.42642 0.88883 0.0
H552 H 0.86104 0.44278 0.9318 0.0
H553 H 0.82492 0.49474 0.85732 0.0
H554 H 0.79443 0.52493 0.83476 0.0
H555 H 0.82517 0.58574 0.8934 0.0
H556 H 0.85555 0.55578 0.91661 0.0
H557 H 0.9985 0.5004 0.92386 0.0
H558 H 0.95341 0.48216 0.90544 0.0
H559 H 0.91859 0.53721 0.95629 0.0
H560 H 0.96298 0.55504 0.97455 0.0
H561 H 0.8953 0.53283 0.90076 0.0
H562 H 0.92252 0.47818 0.98081 0.0
H563 H 0.95218 0.44851 1.00573 0.0
H564 H 0.93777 0.39339 0.9376 0.0
H565 H 0.90828 0.42298 0.91209 0.0
C566 C 0.77935 0.48072 0.93098 0.0
C567 C 0.76624 0.45887 0.9162 0.0
C568 C 0.8068 0.48711 0.92983 0.0
C569 C 0.82173 0.4718 0.91393 0.0
C570 C 0.80895 0.44957 0.89972 0.0
C571 C 0.78138 0.44323 0.9007 0.0
C572 C 0.85071 0.4793 0.91249 0.0
C573 C 0.86865 0.46219 0.9243 0.0
C574 C 0.86049 0.50468 0.90287 0.0
C575 C 0.84245 0.52294 0.88878 0.0
C576 C 0.82507 0.51449 0.86552 0.0
C577 C 0.80782 0.53158 0.8526 0.0
C578 C 0.80785 0.55723 0.86265 0.0
C579 C 0.82518 0.56587 0.88562 0.0
C580 C 0.84245 0.54885 0.89864 0.0
C581 C 0.9811 0.5086 0.93078 0.0
C582 C 0.98396 0.52869 0.95095 0.0
C583 C 0.95551 0.49824 0.92034 0.0
C584 C 0.93278 0.50835 0.92963 0.0
C585 C 0.93588 0.52918 0.94885 0.0
C586 C 0.96122 0.53914 0.9595 0.0
C587 C 0.90546 0.49669 0.92096 0.0
C588 C 0.88779 0.51308 0.9073 0.0
C589 C 0.89594 0.47073 0.92901 0.0
C590 C 0.91353 0.45293 0.94438 0.0
C591 C 0.92588 0.45985 0.97103 0.0
C592 C 0.94262 0.44303 0.98528 0.0
C593 C 0.94694 0.41912 0.97321 0.0
C594 C 0.93446 0.41195 0.94689 0.0
C595 C 0.91774 0.42873 0.93252 0.0
H596 H 0.9599 0.40612 0.98428 0.0
H597 H 0.79447 0.57042 0.85263 0.0
H598 H 0.88975 0.68622 0.39443 0.0
H599 H 0.8538 0.66204 0.41929 0.0
H600 H 0.80322 0.72401 0.39826 0.0
H601 H 0.83949 0.74859 0.37421 0.0
H602 H 0.79915 0.71053 0.45042 0.0
H603 H 0.79589 0.66242 0.36422 0.0
H604 H 0.81412 0.63774 0.32716 0.0
H605 H 0.83451 0.57827 0.38767 0.0
H606 H 0.81679 0.60285 0.42522 0.0
H607 H 0.67524 0.64245 0.48093 0.0
H608 H 0.71175 0.6627 0.45408 0.0
H609 H 0.76385 0.60769 0.49146 0.0
H610 H 0.72725 0.58716 0.51838 0.0
H611 H 0.76758 0.61633 0.43186 0.0
H612 H 0.76998 0.66554 0.51778 0.0
H613 H 0.75068 0.69062 0.5538 0.0
H614 H 0.73017 0.74848 0.49148 0.0
H615 H 0.749 0.7235 0.45498 0.0
C616 C 0.87086 0.69452 0.39499 0.0
C617 C 0.86729 0.71919 0.3824 0.0
C618 C 0.85032 0.68069 0.4091 0.0
C619 C 0.82564 0.69101 0.4103 0.0
C620 C 0.82208 0.71565 0.39763 0.0
C621 C 0.84276 0.72967 0.38391 0.0
C622 C 0.80375 0.67654 0.42541 0.0
C623 C 0.79204 0.69005 0.44602 0.0
C624 C 0.79484 0.6496 0.4202 0.0
C625 C 0.80524 0.63462 0.39759 0.0
C626 C 0.80443 0.64417 0.36967 0.0
C627 C 0.81466 0.63018 0.34856 0.0
C628 C 0.82553 0.60647 0.35506 0.0
C629 C 0.82611 0.59666 0.38267 0.0
C630 C 0.81597 0.61061 0.40387 0.0
C631 C 0.69435 0.6344 0.48311 0.0
C632 C 0.69845 0.61326 0.50176 0.0
C633 C 0.71519 0.64608 0.4679 0.0
C634 C 0.74047 0.63678 0.471 0.0
C635 C 0.74445 0.61512 0.48886 0.0
C636 C 0.72363 0.60356 0.50431 0.0
C637 C 0.76298 0.65049 0.45645 0.0
C638 C 0.77479 0.63683 0.43609 0.0
C639 C 0.77183 0.67736 0.46164 0.0
C640 C 0.76067 0.69251 0.4836 0.0
C641 C 0.76116 0.68349 0.51171 0.0
C642 C 0.75033 0.69771 0.53222 0.0
C643 C 0.73914 0.72109 0.52492 0.0
C644 C 0.73882 0.73034 0.4971 0.0
C645 C 0.74958 0.71618 0.4765 0.0
H646 H 0.73078 0.73207 0.54083 0.0
H647 H 0.83346 0.59566 0.33871 0.0
H648 H 0.19582 0.30292 0.11222 0.0
H649 H 0.17581 0.34185 0.09296 0.0
H650 H 0.10947 0.32425 0.14457 0.0
H651 H 0.12944 0.28464 0.16341 0.0
H652 H 0.08763 0.34485 0.10033 0.0
H653 H 0.1678 0.38125 0.15171 0.0
H654 H 0.21617 0.38812 0.16505 0.0
H655 H 0.23132 0.41336 0.08062 0.0
H656 H 0.18311 0.40644 0.06672 0.0
H657 H 0.03377 0.47089 0.07147 0.0
H658 H 0.05358 0.43198 0.09105 0.0
H659 H 0.12191 0.45106 0.04255 0.0
H660 H 0.10208 0.49018 0.02315 0.0
H661 H 0.14271 0.42954 0.08498 0.0
H662 H 0.06379 0.39235 0.0328 0.0
H663 H 1.01562 0.38565 0.01835 0.0
H664 H 0.99845 0.36199 0.10273 0.0
H665 H 0.0465 0.36886 0.11776 0.0
C666 C 0.17702 0.30718 0.11987 0.0
C667 C 0.16498 0.28973 0.1401 0.0
C668 C 0.16534 0.33019 0.10873 0.0
C669 C 0.14067 0.33788 0.11708 0.0
C670 C 0.12837 0.32012 0.13709 0.0
C671 C 0.1401 0.29696 0.14826 0.0
C672 C 0.12791 0.3636 0.10495 0.0
C673 C 0.10001 0.3633 0.09756 0.0
C674 C 0.14287 0.38869 0.09978 0.0
C675 C 0.17185 0.39291 0.10807 0.0
C676 C 0.18147 0.38806 0.13593 0.0
C677 C 0.20886 0.39202 0.14361 0.0
C678 C 0.22682 0.40105 0.12366 0.0
C679 C 0.21741 0.40626 0.09602 0.0
C680 C 0.19004 0.40233 0.08824 0.0
C681 C 0.05295 0.46696 0.06454 0.0
C682 C 0.06559 0.48473 0.04494 0.0
C683 C 0.06452 0.44391 0.07584 0.0
C684 C 0.08966 0.43654 0.06836 0.0
C685 C 0.10255 0.4547 0.04919 0.0
C686 C 0.09091 0.47771 0.03777 0.0
C687 C 0.10241 0.41083 0.0805 0.0
C688 C 0.13031 0.4111 0.0878 0.0
C689 C 0.08751 0.38569 0.08541 0.0
C690 C 0.05869 0.38138 0.07646 0.0
C691 C 0.04971 0.38585 0.0483 0.0
C692 C 0.02244 0.38202 0.04 0.0
C693 C 1.00398 0.37347 0.05962 0.0
C694 C 1.01277 0.36865 0.08757 0.0
C695 C 0.04001 0.3725 0.09599 0.0
H696 H 0.98288 0.37053 0.05316 0.0
H697 H 0.24802 0.4041 0.12965 0.0
H698 H 0.65983 0.40121 0.95301 0.0
H699 H 0.64119 0.35518 0.95861 0.0
H700 H 0.68945 0.33171 0.89394 0.0
H701 H 0.70826 0.37783 0.88826 0.0
H702 H 0.63419 0.30953 0.88931 0.0
H703 H 0.70997 0.31926 0.95682 0.0
H704 H 0.73838 0.34084 0.99589 0.0
H705 H 0.67329 0.32876 0.04975 0.0
H706 H 0.64434 0.30746 1.01085 0.0
H707 H 0.60261 0.17246 0.91896 0.0
H708 H 0.62728 0.21547 0.90957 0.0
H709 H 0.59802 0.24706 0.98377 0.0
H710 H 0.57416 0.20403 0.99361 0.0
H711 H 0.64788 0.26393 0.98138 0.0
H712 H 0.57089 0.25841 0.9149 0.0
H713 H 0.54036 0.23859 0.8764 0.0
H714 H 0.60476 0.24438 0.82146 0.0
H715 H 0.63575 0.26394 0.85978 0.0
C716 C 0.66628 0.38626 0.93984 0.0
C717 C 0.68549 0.39299 0.92025 0.0
C718 C 0.65576 0.36002 0.94315 0.0
C719 C 0.66414 0.34014 0.92681 0.0
C720 C 0.68284 0.34684 0.90676 0.0
C721 C 0.69363 0.37308 0.90366 0.0
C722 C 0.65352 0.31231 0.93109 0.0
C723 C 0.6375 0.29931 0.90924 0.0
C724 C 0.65748 0.29937 0.95732 0.0
C725 C 0.67492 0.31196 0.98084 0.0
C726 C 0.70164 0.32139 0.97692 0.0
C727 C 0.71786 0.33354 0.99905 0.0
C728 C 0.70763 0.33622 0.02527 0.0
C729 C 0.68118 0.32669 0.02943 0.0
C730 C 0.66487 0.31455 1.00735 0.0
C731 C 0.60156 0.18864 0.93322 0.0
C732 C 0.58656 0.185 0.95701 0.0
C733 C 0.61556 0.21319 0.92782 0.0
C734 C 0.61423 0.23461 0.94577 0.0
C735 C 0.59944 0.23083 0.96968 0.0
C736 C 0.58582 0.20625 0.9753 0.0
C737 C 0.62796 0.26112 0.93976 0.0
C738 C 0.64468 0.27393 0.9613 0.0
C739 C 0.62431 0.27401 0.91336 0.0
C740 C 0.60569 0.26235 0.89029 0.0
C741 C 0.57857 0.25527 0.89467 0.0
C742 C 0.56118 0.24412 0.87287 0.0
C743 C 0.57063 0.24015 0.84653 0.0
C744 C 0.59748 0.24742 0.8419 0.0
C745 C 0.61496 0.25855 0.86363 0.0
H746 H 0.55714 0.23151 0.82968 0.0
H747 H 0.72021 0.34563 0.04237 0.0
H748 H 0.9684 0.79973 0.37196 0.0
H749 H 0.98091 0.84582 0.38513 0.0
H750 H 0.89781 0.86006 0.37834 0.0
H751 H 0.88514 0.8139 0.36516 0.0
H752 H 0.97385 0.89441 0.36145 0.0
H753 H 0.88835 0.89915 0.43366 0.0
H754 H 0.85675 0.86919 0.45961 0.0
H755 H 0.9138 0.81199 0.46813 0.0
H756 H 0.94582 0.84175 0.44258 0.0
H757 H 0.98426 0.02311 0.42854 0.0
H758 H 0.96639 0.9836 0.4015 0.0
H759 H 0.99301 0.93398 0.47002 0.0
H760 H 1.01067 0.973 0.49693 0.0
H761 H 0.94056 0.92054 0.45153 0.0
H762 H 0.02716 0.94131 0.41325 0.0
H763 H 0.06108 0.97019 0.38927 0.0
H764 H 1.00641 0.97441 0.31634 0.0
H765 H 0.97201 0.94585 0.34008 0.0
C766 C 0.95284 0.81279 0.37286 0.0
C767 C 0.92579 0.80321 0.36788 0.0
C768 C 0.96 0.8391 0.38027 0.0
C769 C 0.94026 0.85623 0.38285 0.0
C770 C 0.9133 0.84703 0.37671 0.0
C771 C 0.9061 0.82067 0.36942 0.0
C772 C 0.94786 0.88286 0.39456 0.0
C773 C 0.96638 0.90029 0.38097 0.0
C774 C 0.93816 0.8904 0.42008 0.0
C775 C 0.9193 0.87253 0.43593 0.0
C776 C 0.89415 0.88021 0.44117 0.0
C777 C 0.87617 0.86327 0.45579 0.0
C778 C 0.88323 0.83867 0.46542 0.0
C779 C 0.90832 0.83101 0.46057 0.0
C780 C 0.92638 0.84789 0.44601 0.0
C781 C 0.98639 1.00373 0.43764 0.0
C782 C 0.99869 1.00101 0.4648 0.0
C783 C 0.97623 0.98127 0.42224 0.0
C784 C 0.97831 0.95598 0.43391 0.0
C785 C 0.99105 0.95336 0.46079 0.0
C786 C 1.00123 0.97566 0.47606 0.0
C787 C 0.96693 0.93192 0.41872 0.0
C788 C 0.94759 0.91497 0.43165 0.0
C789 C 0.9762 0.92474 0.39287 0.0
C790 C 0.99692 0.94173 0.37856 0.0
C791 C 0.0223 0.94859 0.39219 0.0
C792 C 0.04162 0.96486 0.37863 0.0
C793 C 0.03588 0.9742 0.35133 0.0
C794 C 1.01081 0.96721 0.33751 0.0
C795 C 0.9914 0.95097 0.351 0.0
H796 H 0.05086 0.9868 0.34087 0.0
H797 H 0.86927 0.82556 0.4767 0.0
H798 H 0.43936 0.74658 0.77632 0.0
H799 H 0.46318 0.71643 0.74996 0.0
H800 H 0.40096 0.71407 0.68282 0.0
H801 H 0.37761 0.74469 0.70833 0.0
H802 H 0.41418 0.66373 0.70052 0.0
H803 H 0.45796 0.74898 0.6738 0.0
H804 H 0.4833 0.79243 0.68319 0.0
H805 H 0.54772 0.7545 0.72466 0.0
H806 H 0.52257 0.71081 0.71585 0.0
H807 H 0.46682 0.6027 0.58871 0.0
H808 H 0.44803 0.63384 0.6183 0.0
H809 H 0.52075 0.64078 0.67239 0.0
H810 H 0.54003 0.61037 0.64224 0.0
H811 H 0.50402 0.68729 0.66543 0.0
H812 H 0.4631 0.6024 0.69095 0.0
H813 H 0.4391 0.5582 0.68235 0.0
H814 H 0.3707 0.5936 0.6463 0.0
H815 H 0.39444 0.63804 0.65431 0.0
C816 C 0.43095 0.73995 0.75578 0.0
C817 C 0.40637 0.74787 0.74464 0.0
C818 C 0.44451 0.72261 0.74082 0.0
C819 C 0.4337 0.71288 0.71453 0.0
C820 C 0.40948 0.72108 0.70322 0.0
C821 C 0.3961 0.73853 0.71794 0.0
C822 C 0.44729 0.69393 0.69866 0.0
C823 C 0.43375 0.66891 0.69266 0.0
C824 C 0.47315 0.70042 0.6892 0.0
C825 C 0.48825 0.72666 0.69447 0.0
C826 C 0.47742 0.74992 0.68515 0.0
C827 C 0.49177 0.77458 0.69032 0.0
C828 C 0.51707 0.77623 0.70459 0.0
C829 C 0.5281 0.7532 0.71366 0.0
C830 C 0.51381 0.72848 0.70857 0.0
C831 C 0.47884 0.61091 0.60686 0.0
C832 C 0.50486 0.60398 0.6132 0.0
C833 C 0.46803 0.62862 0.62387 0.0
C834 C 0.48276 0.63929 0.64796 0.0
C835 C 0.50895 0.63278 0.654 0.0
C836 C 0.51993 0.61535 0.63675 0.0
C837 C 0.47074 0.65713 0.66682 0.0
C838 C 0.48457 0.68192 0.67347 0.0
C839 C 0.44528 0.65027 0.67727 0.0
C840 C 0.43065 0.62357 0.67305 0.0
C841 C 0.44298 0.60077 0.68107 0.0
C842 C 0.42943 0.57567 0.6763 0.0
C843 C 0.40341 0.57309 0.66371 0.0
C844 C 0.39086 0.59563 0.65602 0.0
C845 C 0.40434 0.62078 0.66071 0.0
H846 H 0.39298 0.55364 0.65996 0.0
H847 H 0.52815 0.79534 0.70856 0.0
H848 H 0.89234 0.94504 0.81595 0.0
H849 H 0.9142 0.9659 0.77595 0.0
H850 H 0.92672 0.88938 0.7453 0.0
H851 H 0.90611 0.86857 0.78642 0.0
H852 H 0.96363 0.91473 0.72521 0.0
H853 H 0.87649 0.94313 0.71533 0.0
H854 H 0.83681 0.96325 0.72876 0.0
H855 H 0.88459 0.03728 0.74352 0.0
H856 H 0.92461 0.01751 0.73044 0.0
H857 H 0.96169 0.01938 0.59189 0.0
H858 H 0.94088 0.99766 0.63243 0.0
H859 H 1.01689 0.97264 0.66242 0.0
H860 H 0.03703 0.99267 0.62082 0.0
H861 H 0.93401 0.99646 0.68119 0.0
H862 H 1.0157 0.92919 0.71769 0.0
H863 H 0.04872 0.90374 0.69741 0.0
H864 H 1.00126 0.8986 0.61877 0.0
H865 H 0.96786 0.92379 0.63867 0.0
C866 C 0.89944 0.93228 0.80079 0.0
C867 C 0.89657 0.90443 0.80563 0.0
C868 C 0.91209 0.94456 0.77698 0.0
C869 C 0.92222 0.93004 0.75539 0.0
C870 C 0.91961 0.90216 0.76044 0.0
C871 C 0.90744 0.88989 0.78461 0.0
C872 C 0.93555 0.94347 0.72848 0.0
C873 C 0.95687 0.93269 0.71602 0.0
C874 C 0.92747 0.96682 0.71423 0.0
C875 C 0.90357 0.97876 0.72222 0.0
C876 C 0.87855 0.96365 0.7216 0.0
C877 C 0.856 0.975 0.72913 0.0
C878 C 0.8582 1.0015 0.73708 0.0
C879 C 0.88293 0.01674 0.73742 0.0
C880 C 0.90555 1.00548 0.72994 0.0
C881 C 0.97417 1.00905 0.60685 0.0
C882 C 1.00157 1.00817 0.60178 0.0
C883 C 0.96199 0.99637 0.63078 0.0
C884 C 0.97626 0.98202 0.65185 0.0
C885 C 1.00394 0.98191 0.64708 0.0
C886 C 1.01596 0.99405 0.6228 0.0
C887 C 0.96247 0.96803 0.67824 0.0
C888 C 0.94096 0.97863 0.69051 0.0
C889 C 0.96965 0.94393 0.6916 0.0
C890 C 0.98948 0.92863 0.67958 0.0
C891 C 1.0123 0.92256 0.6961 0.0
C892 C 0.03108 0.9082 0.68466 0.0
C893 C 0.02714 0.89965 0.65678 0.0
C894 C 1.00434 0.90532 0.64032 0.0
C895 C 0.98549 0.91964 0.65166 0.0
H896 H 0.04172 0.88858 0.64796 0.0
H897 H 0.84072 1.01025 0.7429 0.0
H898 H 0.64859 0.25551 0.24514 0.0
H899 H 0.63204 0.228 0.20468 0.0
H900 H 0.64925 0.15815 0.25227 0.0
H901 H 0.66574 0.18553 0.29284 0.0
H902 H 0.66438 0.15578 0.19928 0.0
H903 H 0.58584 0.1753 0.24314 0.0
H904 H 0.55518 0.204 0.26246 0.0
H905 H 0.54426 0.24165 0.18165 0.0
H906 H 0.57517 0.2134 0.16194 0.0
H907 H 0.58095 0.05697 0.12245 0.0
H908 H 0.60394 0.08766 0.15718 0.0
H909 H 0.58429 0.15354 0.10428 0.0
H910 H 0.56083 0.12288 0.06953 0.0
H911 H 0.57188 0.15992 0.1576 0.0
H912 H 0.6485 0.13747 0.11307 0.0
H913 H 0.67843 0.10766 0.09436 0.0
H914 H 0.69234 0.07438 0.17692 0.0
H915 H 0.66219 0.10374 0.19607 0.0
C916 C 0.64872 0.23428 0.24704 0.0
C917 C 0.65835 0.22271 0.27228 0.0
C918 C 0.63931 0.21859 0.22387 0.0
C919 C 0.63914 0.19098 0.22553 0.0
C920 C 0.64925 0.17941 0.25048 0.0
C921 C 0.65871 0.1951 0.27364 0.0
C922 C 0.62796 0.1741 0.20146 0.0
C923 C 0.64408 0.1565 0.19032 0.0
C924 C 0.60166 0.17546 0.18935 0.0
C925 C 0.58305 0.19245 0.20115 0.0
C926 C 0.57708 0.18986 0.22955 0.0
C927 C 0.55962 0.20601 0.24056 0.0
C928 C 0.54784 0.22469 0.22332 0.0
C929 C 0.55344 0.2272 0.195 0.0
C930 C 0.57091 0.21112 0.18389 0.0
C931 C 0.5818 0.07797 0.11799 0.0
C932 C 0.56906 0.08747 0.09319 0.0
C933 C 0.59507 0.09551 0.13784 0.0
C934 C 0.59602 0.12292 0.13327 0.0
C935 C 0.58384 0.13247 0.10823 0.0
C936 C 0.57056 0.11491 0.08831 0.0
C937 C 0.60826 0.1415 0.15544 0.0
C938 C 0.59229 0.15938 0.16632 0.0
C939 C 0.63464 0.14028 0.16738 0.0
C940 C 0.6529 0.12268 0.15596 0.0
C941 C 0.65778 0.12366 0.1272 0.0
C942 C 0.67482 0.10687 0.11652 0.0
C943 C 0.68723 0.0891 0.13443 0.0
C944 C 0.68269 0.08814 0.16307 0.0
C945 C 0.66566 0.10488 0.17385 0.0
H946 H 0.70041 0.07611 0.12612 0.0
H947 H 0.53432 0.23718 0.23188 0.0
H948 H 0.37627 0.55727 0.29516 0.0
H949 H 0.40602 0.55601 0.33807 0.0
H950 H 0.42192 0.64101 0.33505 0.0
H951 H 0.39213 0.64218 0.2918 0.0
H952 H 0.46763 0.61594 0.34973 0.0
H953 H 0.37864 0.61465 0.37887 0.0
H954 H 0.33066 0.59922 0.37918 0.0
H955 H 0.34983 0.52204 0.4061 0.0
H956 H 0.39795 0.53691 0.40556 0.0
H957 H 0.52388 0.62018 0.49266 0.0
H958 H 0.49639 0.62826 0.44936 0.0
H959 H 0.46991 0.54493 0.44409 0.0
H960 H 0.49693 0.53686 0.4874 0.0
H961 H 0.42893 0.57384 0.43451 0.0
H962 H 0.51767 0.57419 0.40253 0.0
H963 H 0.56572 0.58924 0.40186 0.0
H964 H 0.54717 0.66789 0.38032 0.0
H965 H 0.49898 0.65337 0.38125 0.0
C966 C 0.38641 0.5756 0.30355 0.0
C967 C 0.38214 0.59979 0.2905 0.0
C968 C 0.40325 0.5749 0.32805 0.0
C969 C 0.41587 0.59845 0.33994 0.0
C970 C 0.41231 0.62264 0.32624 0.0
C971 C 0.39537 0.62332 0.30166 0.0
C972 C 0.43193 0.59763 0.3672 0.0
C973 C 0.45911 0.60714 0.36842 0.0
C974 C 0.42084 0.58584 0.39145 0.0
C975 C 0.39191 0.57685 0.39195 0.0
C976 C 0.37263 0.59433 0.38465 0.0
C977 C 0.34541 0.5857 0.3849 0.0
C978 C 0.3372 0.55965 0.3926 0.0
C979 C 0.35621 0.5422 0.40012 0.0
C980 C 0.38346 0.55073 0.39988 0.0
C981 C 0.51216 0.60364 0.48221 0.0
C982 C 0.51259 0.5779 0.49325 0.0
C983 C 0.49658 0.60825 0.45745 0.0
C984 C 0.48131 0.58715 0.44333 0.0
C985 C 0.48154 0.56149 0.4546 0.0
C986 C 0.49705 0.5569 0.4793 0.0
C987 C 0.46483 0.59158 0.41694 0.0
C988 C 0.43746 0.58283 0.41591 0.0
C989 C 0.4758 0.60404 0.39292 0.0
C990 C 0.50474 0.61276 0.39228 0.0
C991 C 0.52384 0.59474 0.39789 0.0
C992 C 0.5511 0.60317 0.39742 0.0
C993 C 0.55949 0.62952 0.39114 0.0
C994 C 0.54064 0.64749 0.38524 0.0
C995 C 0.51335 0.63917 0.38571 0.0
H996 H 0.5806 0.636 0.39079 0.0
H997 H 0.31611 0.553 0.39278 0.0
H998 H 0.16631 0.31365 0.85649 0.0
H999 H 0.1665 0.35279 0.88577 0.0
H1000 H 0.25253 0.35728 0.89797 0.0
H1001 H 0.25227 0.31827 0.86801 0.0
H1002 H 0.18303 0.36795 0.93838 0.0
H1003 H 0.27612 0.42136 0.89322 0.0
H1004 H 0.30293 0.41721 0.85233 0.0
H1005 H 0.23228 0.38731 0.80245 0.0
H1006 H 0.20506 0.39158 0.84291 0.0
H1007 H 0.19199 0.49655 0.99671 0.0
H1008 H 0.20855 0.45548 0.98259 0.0
H1009 H 0.18368 0.47146 0.89595 0.0
H1010 H 0.1667 0.51192 0.90976 0.0
H1011 H 0.22959 0.44959 0.89889 0.0
H1012 H 0.14382 0.43514 0.93857 0.0
H1013 H 0.11028 0.43361 0.974 0.0
H1014 H 0.15612 0.38337 0.02696 0.0
H1015 H 0.19047 0.38535 0.9923 0.0
C1016 C 0.18515 0.32275 0.86597 0.0
C1017 C 0.20926 0.31328 0.86029 0.0
C1018 C 0.18526 0.34497 0.88273 0.0
C1019 C 0.20954 0.35803 0.89387 0.0
C1020 C 0.23362 0.34758 0.88939 0.0
C1021 C 0.23348 0.32538 0.87244 0.0
C1022 C 0.20948 0.38398 0.90744 0.0
C1023 C 0.19359 0.3858 0.93018 0.0
C1024 C 0.22284 0.40722 0.89621 0.0
C1025 C 0.23867 0.4065 0.87118 0.0
C1026 C 0.26631 0.4141 0.87346 0.0
C1027 C 0.28158 0.41159 0.85041 0.0
C1028 C 0.26936 0.40164 0.82494 0.0
C1029 C 0.24177 0.3947 0.82228 0.0
C1030 C 0.22641 0.39723 0.84523 0.0
C1031 C 0.19036 0.49147 0.9746 0.0
C1032 C 0.1778 0.50749 0.95442 0.0
C1033 C 0.19991 0.46804 0.96659 0.0
C1034 C 0.19705 0.46029 0.93827 0.0
C1035 C 0.1862 0.47711 0.91791 0.0
C1036 C 0.17659 0.5004 0.92588 0.0
C1037 C 0.20283 0.4337 0.92982 0.0
C1038 C 0.21976 0.43174 0.90788 0.0
C1039 C 0.18968 0.41036 0.94126 0.0
C1040 C 0.16999 0.41079 0.96302 0.0
C1041 C 0.14708 0.42425 0.95804 0.0
C1042 C 0.12788 0.42324 0.97796 0.0
C1043 C 0.13113 0.40845 1.00274 0.0
C1044 C 0.15375 0.39496 1.00784 0.0
C1045 C 0.17314 0.3961 0.98812 0.0
H1046 H 0.11601 0.40724 0.01787 0.0
H1047 H 0.28124 0.39962 0.80719 0.0
H1048 H 0.75152 0.91252 0.86967 0.0
H1049 H 0.7128 0.92925 0.88916 0.0
H1050 H 0.7564 0.9382 0.96994 0.0
H1051 H 0.79514 0.92092 0.95033 0.0
H1052 H 0.70778 0.92779 0.98385 0.0
H1053 H 0.73698 0.99319 0.91626 0.0
H1054 H 0.7492 0.0109 0.86983 0.0
H1055 H 0.6711 0.98313 0.83362 0.0
H1056 H 0.65852 0.96498 0.87979 0.0
H1057 H 0.60695 1.00476 0.04014 0.0
H1058 H 0.64681 0.98708 0.02357 0.0
H1059 H 0.60884 0.98072 0.93983 0.0
H1060 H 0.56967 0.99882 0.95622 0.0
H1061 H 0.65571 0.99042 0.92847 0.0
H1062 H 0.62655 0.92434 0.99581 0.0
H1063 H 0.61422 0.90668 0.04223 0.0
H1064 H 0.69177 0.93573 0.0789 0.0
H1065 H 0.70445 0.95381 0.03273 0.0
C1066 C 0.75314 0.91775 0.89173 0.0
C1067 C 0.7775 0.91454 0.90789 0.0
C1068 C 0.73049 0.92798 0.90314 0.0
C1069 C 0.73029 0.93626 0.93169 0.0
C1070 C 0.75458 0.93255 0.94801 0.0
C1071 C 0.77733 0.92234 0.93653 0.0
C1072 C 0.70546 0.94847 0.9441 0.0
C1073 C 0.69688 0.94174 0.97148 0.0
C1074 C 0.68944 0.9667 0.92915 0.0
C1075 C 0.69692 0.97749 0.9014 0.0
C1076 C 0.72248 0.99071 0.89835 0.0
C1077 C 0.72946 1.00085 0.87209 0.0
C1078 C 0.71097 0.99807 0.84877 0.0
C1079 C 0.68542 0.98521 0.85169 0.0
C1080 C 0.67835 0.97501 0.8779 0.0
C1081 C 0.60676 0.99956 0.01817 0.0
C1082 C 0.58377 1.00371 1.00006 0.0
C1083 C 0.63011 0.98893 1.00837 0.0
C1084 C 0.6323 0.98138 0.97974 0.0
C1085 C 0.60928 0.9858 0.96186 0.0
C1086 C 0.58613 0.99637 0.97158 0.0
C1087 C 0.65776 0.96957 0.96815 0.0
C1088 C 0.66651 0.97641 0.94086 0.0
C1089 C 0.67386 0.95143 0.98319 0.0
C1090 C 0.66633 0.94067 1.01091 0.0
C1091 C 0.6409 0.9271 0.01382 0.0
C1092 C 0.63386 0.917 0.04007 0.0
C1093 C 0.65217 0.92016 0.06352 0.0
C1094 C 0.67759 0.93335 0.06073 0.0
C1095 C 0.68472 0.94352 0.03453 0.0
H1096 H 0.64669 0.91232 0.08382 0.0
H1097 H 0.71641 1.00594 0.82846 0.0
H1098 H 0.70962 0.24751 0.39504 0.0
H1099 H 0.75 0.23438 0.42109 0.0
H1100 H 0.78673 0.22724 0.3428 0.0
H1101 H 0.74679 0.24056 0.3168 0.0
H1102 H 0.78922 0.1833 0.37553 0.0
H1103 H 0.80772 0.27753 0.38719 0.0
H1104 H 0.7979 0.32176 0.4012 0.0
H1105 H 0.79193 0.29471 0.48668 0.0
H1106 H 0.80135 0.25019 0.4731 0.0
H1107 H 0.91796 0.15764 0.42732 0.0
H1108 H 0.8817 0.17964 0.40356 0.0
H1109 H 0.85 0.19177 0.48364 0.0
H1110 H 0.88694 0.17103 0.50768 0.0
H1111 H 0.84453 0.23355 0.45097 0.0
H1112 H 0.82427 0.14003 0.44067 0.0
H1113 H 0.83235 0.09485 0.42808 0.0
H1114 H 0.8392 0.11923 0.34186 0.0
H1115 H 0.83152 0.16467 0.35402 0.0
C1116 C 0.72651 0.24361 0.38346 0.0
C1117 C 0.72488 0.24477 0.35384 0.0
C1118 C 0.74954 0.23607 0.39835 0.0
C1119 C 0.77136 0.22975 0.38387 0.0
C1120 C 0.77008 0.23181 0.3544 0.0
C1121 C 0.74718 0.23935 0.33957 0.0
C1122 C 0.79498 0.2195 0.39905 0.0
C1123 C 0.80155 0.19447 0.39174 0.0
C1124 C 0.81052 0.23367 0.42085 0.0
C1125 C 0.80498 0.26045 0.42906 0.0
C1126 C 0.8041 0.28095 0.40893 0.0
C1127 C 0.79865 0.30609 0.4168 0.0
C1128 C 0.79422 0.31103 0.44479 0.0
C1129 C 0.79532 0.29085 0.46499 0.0
C1130 C 0.80074 0.26567 0.45722 0.0
C1131 C 0.90362 0.16545 0.43996 0.0
C1132 C 0.90525 0.16223 0.46943 0.0
C1133 C 0.88269 0.17779 0.4263 0.0
C1134 C 0.86275 0.18687 0.44175 0.0
C1135 C 0.86499 0.18475 0.47123 0.0
C1136 C 0.886 0.17261 0.48492 0.0
C1137 C 0.83899 0.19749 0.42715 0.0
C1138 C 0.83228 0.22244 0.43467 0.0
C1139 C 0.82305 0.18313 0.40572 0.0
C1140 C 0.82759 0.15581 0.39832 0.0
C1141 C 0.8277 0.1358 0.41907 0.0
C1142 C 0.83218 0.11014 0.412 0.0
C1143 C 0.83636 0.10419 0.3842 0.0
C1144 C 0.836 0.12388 0.36339 0.0
C1145 C 0.83157 0.14958 0.37035 0.0
H1146 H 0.83982 0.08431 0.37877 0.0
H1147 H 0.79 0.3305 0.45085 0.0
H1148 H 0.25435 0.62356 0.22281 0.0
H1149 H 0.20908 0.61941 0.20014 0.0
H1150 H 0.24 0.64932 0.12229 0.0
H1151 H 0.28536 0.65354 0.14486 0.0
H1152 H 0.19426 0.67018 0.13206 0.0
H1153 H 0.22461 0.58369 0.13207 0.0
H1154 H 0.24317 0.54436 0.15321 0.0
H1155 H 0.17719 0.53159 0.20583 0.0
H1156 H 0.15842 0.57109 0.18527 0.0
H1157 H 0.08819 0.61888 0.03459 0.0
H1158 H 0.13011 0.63249 0.06217 0.0
H1159 H 0.09538 0.60021 0.1373 0.0
H1160 H 0.05392 0.58555 0.1093 0.0
H1161 H 0.14208 0.58193 0.13104 0.0
H1162 H 0.10997 0.66729 0.12773 0.0
H1163 H 0.09164 0.70615 0.10523 0.0
H1164 H 0.16081 0.72065 0.05734 0.0
H1165 H 0.1794 0.68165 0.07926 0.0
C1166 C 0.25151 0.62918 0.20084 0.0
C1167 C 0.27344 0.63867 0.18555 0.0
C1168 C 0.22564 0.62688 0.18795 0.0
C1169 C 0.22121 0.63376 0.15944 0.0
C1170 C 0.24297 0.64394 0.14432 0.0
C1171 C 0.26886 0.64635 0.15725 0.0
C1172 C 0.19405 0.62942 0.14511 0.0
C1173 C 0.1829 0.65085 0.1316 0.0
C1174 C 0.17906 0.60431 0.14501 0.0
C1175 C 0.19027 0.58051 0.15735 0.0
C1176 C 0.21418 0.57262 0.14831 0.0
C1177 C 0.22471 0.55028 0.16016 0.0
C1178 C 0.21141 0.53553 0.18091 0.0
C1179 C 0.1875 0.54306 0.1898 0.0
C1180 C 0.17689 0.56542 0.17804 0.0
C1181 C 0.08968 0.61466 0.05694 0.0
C1182 C 0.06831 0.60068 0.06979 0.0
C1183 C 0.1134 0.62282 0.0728 0.0
C1184 C 0.11591 0.61734 0.10184 0.0
C1185 C 0.09392 0.60458 0.11492 0.0
C1186 C 0.07023 0.59639 0.09901 0.0
C1187 C 0.14214 0.6227 0.11799 0.0
C1188 C 0.15323 0.60137 0.13174 0.0
C1189 C 0.15706 0.64786 0.11814 0.0
C1190 C 0.14598 0.6714 0.10499 0.0
C1191 C 0.12118 0.67864 0.11224 0.0
C1192 C 0.11076 0.70072 0.09962 0.0
C1193 C 0.12503 0.71583 0.07982 0.0
C1194 C 0.14978 0.70892 0.07266 0.0
C1195 C 0.16028 0.68685 0.08521 0.0
H1196 H 0.11692 0.73291 0.07007 0.0
H1197 H 0.21959 0.51823 0.19005 0.0
H1198 H 0.26459 0.34461 0.77481 0.0
H1199 H 0.28842 0.38443 0.75543 0.0
H1200 H 0.22343 0.39039 0.69254 0.0
H1201 H 0.1991 0.35111 0.71221 0.0
H1202 H 0.27257 0.38518 0.67093 0.0
H1203 H 0.23583 0.4374 0.73691 0.0
H1204 H 0.22409 0.45298 0.78272 0.0
H1205 H 0.30729 0.46786 0.80964 0.0
H1206 H 0.31958 0.4518 0.7642 0.0
H1207 H 0.34147 0.48629 0.59711 0.0
H1208 H 0.30571 0.4661 0.62472 0.0
H1209 H 0.36165 0.462 0.69713 0.0
H1210 H 0.39728 0.48376 0.67017 0.0
H1211 H 0.31297 0.4697 0.71342 0.0
H1212 H 0.34893 0.41044 0.65106 0.0
H1213 H 0.36129 0.39554 0.60514 0.0
H1214 H 0.27949 0.39326 0.57249 0.0
H1215 H 0.26672 0.40851 0.61814 0.0
C1216 C 0.25497 0.35484 0.75742 0.0
C1217 C 0.23015 0.34436 0.74471 0.0
C1218 C 0.26862 0.37763 0.7464 0.0
C1219 C 0.2577 0.39027 0.72252 0.0
C1220 C 0.23221 0.38086 0.71095 0.0
C1221 C 0.21847 0.35827 0.72207 0.0
C1222 C 0.27446 0.41045 0.70704 0.0
C1223 C 0.28094 0.40392 0.68003 0.0
C1224 C 0.28594 0.43451 0.71929 0.0
C1225 C 0.27864 0.44315 0.74714 0.0
C1226 C 0.25165 0.44363 0.75271 0.0
C1227 C 0.24489 0.4527 0.77857 0.0
C1228 C 0.26493 0.46155 0.79901 0.0
C1229 C 0.29178 0.46115 0.79371 0.0
C1230 C 0.29866 0.45201 0.76792 0.0
C1231 C 0.34608 0.48195 0.61915 0.0
C1232 C 0.37245 0.48618 0.63122 0.0
C1233 C 0.3256 0.47015 0.63486 0.0
C1234 C 0.33116 0.46187 0.66276 0.0
C1235 C 0.35694 0.46797 0.67555 0.0
C1236 C 0.37738 0.4801 0.65996 0.0
C1237 C 0.31109 0.44428 0.67746 0.0
C1238 C 0.30423 0.45111 0.7043 0.0
C1239 C 0.29932 0.42026 0.66527 0.0
C1240 C 0.30693 0.41089 0.63789 0.0
C1241 C 0.33362 0.40692 0.63403 0.0
C1242 C 0.34069 0.3984 0.60806 0.0
C1243 C 0.3212 0.39353 0.58589 0.0
C1244 C 0.29457 0.39709 0.58967 0.0
C1245 C 0.28741 0.40567 0.61558 0.0
H1246 H 0.32671 0.38693 0.5658 0.0
H1247 H 0.25964 0.46852 0.81903 0.0
H1248 H 0.93197 0.84006 0.87221 0.0
H1249 H 0.95116 0.80131 0.89178 0.0
H1250 H 0.87514 0.77159 0.92143 0.0
H1251 H 0.85565 0.81109 0.90191 0.0
H1252 H 0.90769 0.75305 0.95834 0.0
H1253 H 0.91245 0.74562 0.85914 0.0
H1254 H 0.9238 0.75934 0.81114 0.0
H1255 H 1.00711 0.76991 0.83881 0.0
H1256 H 0.99621 0.75654 0.88708 0.0
H1257 H 0.95246 0.62319 0.99226 0.0
H1258 H 0.9313 0.66163 0.97363 0.0
H1259 H 1.00567 0.69372 0.94166 0.0
H1260 H 0.02663 0.65457 0.95953 0.0
H1261 H 0.9727 0.71045 0.90582 0.0
H1262 H 0.96652 0.71736 1.00616 0.0
H1263 H 0.95373 0.70179 0.05319 0.0
H1264 H 0.87134 0.69013 0.02224 0.0
H1265 H 0.88366 0.70546 0.97497 0.0
C1266 C 0.91868 0.82539 0.88235 0.0
C1267 C 0.89135 0.82991 0.8842 0.0
C1268 C 0.93008 0.8024 0.89386 0.0
C1269 C 0.91519 0.78151 0.90805 0.0
C1270 C 0.88802 0.78626 0.91074 0.0
C1271 C 0.87656 0.80949 0.8993 0.0
C1272 C 0.92789 0.75564 0.9199 0.0
C1273 C 0.92163 0.74386 0.94633 0.0
C1274 C 0.94683 0.74229 0.90568 0.0
C1275 C 0.95348 0.75036 0.87677 0.0
C1276 C 0.93317 0.75104 0.85502 0.0
C1277 C 0.93953 0.75873 0.82776 0.0
C1278 C 0.96615 0.76557 0.82195 0.0
C1279 C 0.98649 0.76466 0.84336 0.0
C1280 C 0.98024 0.75701 0.87067 0.0
C1281 C 0.96469 0.63832 0.98142 0.0
C1282 C 0.99196 0.63466 0.97814 0.0
C1283 C 0.95231 0.66113 0.97071 0.0
C1284 C 0.96624 0.68251 0.95614 0.0
C1285 C 0.99346 0.67864 0.95256 0.0
C1286 C 1.00582 0.65569 0.96315 0.0
C1287 C 0.95279 0.70801 0.94441 0.0
C1288 C 0.95887 0.71971 0.91793 0.0
C1289 C 0.93355 0.7211 0.95851 0.0
C1290 C 0.92606 0.7123 0.98697 0.0
C1291 C 0.94569 0.71139 1.00937 0.0
C1292 C 0.93852 0.70262 0.03607 0.0
C1293 C 0.91175 0.6949 0.04068 0.0
C1294 C 0.89207 0.69609 0.01863 0.0
C1295 C 0.89913 0.70485 0.9919 0.0
H1296 H 0.90625 0.68801 0.06133 0.0
H1297 H 0.97103 0.77152 0.80083 0.0
H1298 H 0.39574 0.66357 0.18877 0.0
H1299 H 0.42547 0.70192 0.17445 0.0
H1300 H 0.3686 0.75379 0.1986 0.0
H1301 H 0.33861 0.71549 0.21205 0.0
H1302 H 0.38328 0.76741 0.14931 0.0
H1303 H 0.42985 0.74685 0.23718 0.0
H1304 H 0.45248 0.71867 0.27189 0.0
H1305 H 0.51116 0.70714 0.21336 0.0
H1306 H 0.48865 0.73497 0.17813 0.0
H1307 H 0.46074 0.89029 0.16211 0.0
H1308 H 0.44056 0.84696 0.17673 0.0
H1309 H 0.48406 0.8095 0.11655 0.0
H1310 H 0.50427 0.85317 0.1014 0.0
H1311 H 0.47933 0.78661 0.18021 0.0
H1312 H 0.43086 0.80921 0.09264 0.0
H1313 H 0.4081 0.83997 0.06102 0.0
H1314 H 0.35243 0.84968 0.12336 0.0
H1315 H 0.37518 0.81931 0.15555 0.0
C1316 C 0.38985 0.68322 0.19137 0.0
C1317 C 0.3649 0.68665 0.2014 0.0
C1318 C 0.40684 0.70511 0.18323 0.0
C1319 C 0.39934 0.73081 0.18553 0.0
C1320 C 0.37476 0.73419 0.19643 0.0
C1321 C 0.35766 0.71234 0.20417 0.0
C1322 C 0.41626 0.75418 0.17525 0.0
C1323 C 0.40424 0.77156 0.15628 0.0
C1324 C 0.4438 0.75944 0.18374 0.0
C1325 C 0.45739 0.74275 0.20491 0.0
C1326 C 0.44745 0.73813 0.23162 0.0
C1327 C 0.46028 0.72225 0.25141 0.0
C1328 C 0.48319 0.71106 0.2448 0.0
C1329 C 0.49338 0.71578 0.21843 0.0
C1330 C 0.48061 0.73162 0.19855 0.0
C1331 C 0.46646 0.87283 0.15234 0.0
C1332 C 0.48416 0.87506 0.13069 0.0
C1333 C 0.45486 0.84813 0.16067 0.0
C1334 C 0.46092 0.82517 0.14774 0.0
C1335 C 0.47932 0.8271 0.12683 0.0
C1336 C 0.49068 0.85196 0.11812 0.0
C1337 C 0.44612 0.7996 0.15475 0.0
C1338 C 0.45848 0.78199 0.17307 0.0
C1339 C 0.41879 0.7942 0.14602 0.0
C1340 C 0.40488 0.81221 0.12659 0.0
C1341 C 0.41393 0.81811 0.0997 0.0
C1342 C 0.40099 0.83543 0.08166 0.0
C1343 C 0.37887 0.84683 0.0902 0.0
C1344 C 0.36959 0.84086 0.11678 0.0
C1345 C 0.38248 0.82358 0.13492 0.0
H1346 H 0.36888 0.86023 0.0762 0.0
H1347 H 0.4931 0.69877 0.26015 0.0
H1348 H 0.19599 0.22075 0.73706 0.0
H1349 H 0.17462 0.19073 0.70098 0.0
H1350 H 0.14569 0.25661 0.65421 0.0
H1351 H 0.16529 0.28659 0.6913 0.0
H1352 H 0.10857 0.21845 0.65189 0.0
H1353 H 0.20049 0.22572 0.63453 0.0
H1354 H 0.24901 0.22557 0.64549 0.0
H1355 H 0.2375 0.14371 0.66965 0.0
H1356 H 0.18886 0.14345 0.65921 0.0
H1357 H 0.11838 0.11079 0.53582 0.0
H1358 H 0.13765 0.14901 0.56361 0.0
H1359 H 0.07595 0.13338 0.62198 0.0
H1360 H 0.05594 0.09601 0.5934 0.0
H1361 H 0.15982 0.15117 0.61269 0.0
H1362 H 0.06438 0.1876 0.65558 0.0
H1363 H 1.01746 0.19145 0.63903 0.0
H1364 H 0.03878 0.19339 0.5532 0.0
H1365 H 0.08589 0.18999 0.56923 0.0
C1366 C 0.18477 0.22888 0.71935 0.0
C1367 C 0.18248 0.25617 0.71713 0.0
C1368 C 0.17287 0.21169 0.69847 0.0
C1369 C 0.15897 0.22145 0.67456 0.0
C1370 C 0.15644 0.24862 0.67237 0.0
C1371 C 0.16797 0.26579 0.69347 0.0
C1372 C 0.1469 0.2032 0.65205 0.0
C1373 C 0.11979 0.20381 0.64321 0.0
C1374 C 0.16172 0.18462 0.64002 0.0
C1375 C 0.19099 0.18463 0.64629 0.0
C1376 C 0.20829 0.20773 0.64236 0.0
C1377 C 0.23582 0.20771 0.64846 0.0
C1378 C 0.24633 0.18466 0.65831 0.0
C1379 C 0.22933 0.16155 0.66203 0.0
C1380 C 0.20178 0.16147 0.656 0.0
C1381 C 0.10877 0.11582 0.55438 0.0
C1382 C 0.08576 0.10055 0.56257 0.0
C1383 C 0.11981 0.13758 0.57028 0.0
C1384 C 0.1082 0.14424 0.59482 0.0
C1385 C 0.08497 0.12906 0.60281 0.0
C1386 C 0.07363 0.10761 0.58659 0.0
C1387 C 0.12129 0.16596 0.613 0.0
C1388 C 0.14861 0.16597 0.6211 0.0
C1389 C 0.1069 0.18573 0.62345 0.0
C1390 C 0.07866 0.18832 0.61364 0.0
C1391 C 0.0591 0.18901 0.63319 0.0
C1392 C 0.03245 0.19108 0.62389 0.0
C1393 C 0.02513 0.19259 0.59508 0.0
C1394 C 0.04446 0.19214 0.57551 0.0
C1395 C 0.07113 0.19012 0.58469 0.0
H1396 H 1.00449 0.19414 0.58793 0.0
H1397 H 0.26765 0.18469 0.66301 0.0
H1398 H 0.60219 0.30598 0.38737 0.0
H1399 H 0.58963 0.3381 0.42056 0.0
H1400 H 0.66699 0.38248 0.41653 0.0
H1401 H 0.67955 0.35022 0.38306 0.0
H1402 H 0.64602 0.37909 0.47248 0.0
H1403 H 0.62039 0.40282 0.37659 0.0
H1404 H 0.59911 0.39432 0.32891 0.0
H1405 H 0.52298 0.37543 0.36347 0.0
H1406 H 0.5439 0.38344 0.41144 0.0
H1407 H 0.60775 0.50011 0.52277 0.0
H1408 H 0.62588 0.46604 0.49643 0.0
H1409 H 0.54645 0.42634 0.48065 0.0
H1410 H 0.52813 0.4608 0.50615 0.0
H1411 H 0.57068 0.42777 0.43473 0.0
H1412 H 0.5948 0.40351 0.53022 0.0
H1413 H 0.6151 0.41034 0.57855 0.0
H1414 H 0.69243 0.42838 0.5464 0.0
H1415 H 0.67252 0.42201 0.49781 0.0
C1416 C 0.61672 0.32223 0.39419 0.0
C1417 C 0.64182 0.32572 0.38299 0.0
C1418 C 0.60952 0.3406 0.413 0.0
C1419 C 0.62729 0.36279 0.42079 0.0
C1420 C 0.65303 0.36546 0.41082 0.0
C1421 C 0.66019 0.34709 0.3918 0.0
C1422 C 0.61796 0.38423 0.43714 0.0
C1423 C 0.62979 0.39003 0.46418 0.0
C1424 C 0.59642 0.39806 0.42645 0.0
C1425 C 0.58376 0.39349 0.39761 0.0
C1426 C 0.59915 0.39665 0.37404 0.0
C1427 C 0.58715 0.39196 0.34696 0.0
C1428 C 0.55972 0.38428 0.34317 0.0
C1429 C 0.54423 0.38135 0.36645 0.0
C1430 C 0.55614 0.38598 0.39358 0.0
C1431 C 0.59414 0.48408 0.51376 0.0
C1432 C 0.56647 0.48318 0.51657 0.0
C1433 C 0.60457 0.46449 0.49883 0.0
C1434 C 0.58762 0.44333 0.48683 0.0
C1435 C 0.55998 0.44243 0.48968 0.0
C1436 C 0.54951 0.46215 0.50431 0.0
C1437 C 0.59842 0.42258 0.47049 0.0
C1438 C 0.58691 0.41694 0.44325 0.0
C1439 C 0.62008 0.40878 0.48117 0.0
C1440 C 0.63212 0.41255 0.51036 0.0
C1441 C 0.6161 0.40914 0.53344 0.0
C1442 C 0.62754 0.41289 0.56088 0.0
C1443 C 0.65503 0.41986 0.56554 0.0
C1444 C 0.67114 0.42302 0.54275 0.0
C1445 C 0.65979 0.41932 0.51526 0.0
H1446 H 0.66385 0.42276 0.5868 0.0
H1447 H 0.55047 0.38065 0.32218 0.0
loop_
_geom_bond_atom_site_label_1
_geom_bond_atom_site_label_2
_geom_bond_distance
_geom_bond_site_symmetry_2
_ccdc_geom_bond_type
H0 C3 0.929 . S
H1 C6 0.929 . S
H2 C8 0.930 . S
C3 H0 0.929 . S
C3 C4 1.398 . S
C3 C5 1.396 . S
C4 C3 1.398 . S
C4 C8 1.407 . S
C5 C3 1.396 . S
C5 C6 1.394 . S
C6 H1 0.929 . S
C6 C5 1.394 . S
C6 C7 1.382 . S
C7 C6 1.382 . S
C7 C8 1.392 . S
C7 N9 1.420 . S
C8 H2 0.930 . S
C8 C4 1.407 . S
C8 C7 1.392 . S
N9 C7 1.420 . S
N9 C10 1.244 . S
C10 N9 1.244 . S
H11 C14 0.929 . S
H12 C17 0.929 . S
H13 C19 0.930 . S
C14 H11 0.929 . S
C14 C15 1.398 . S
C14 C16 1.396 . S
C15 C14 1.398 . S
C15 C19 1.407 . S
C16 C14 1.396 . S
C16 C17 1.394 . S
C17 H12 0.929 . S
C17 C16 1.394 . S
C17 C18 1.382 . S
C18 C17 1.382 . S
C18 C19 1.392 . S
C18 N20 1.420 . S
C19 H13 0.930 . S
C19 C15 1.407 . S
C19 C18 1.392 . S
N20 C18 1.420 . S
N20 C21 1.244 . S
C21 N20 1.244 . S
H22 C25 0.929 . S
H23 C28 0.929 . S
H24 C30 0.930 . S
C25 H22 0.929 . S
C25 C26 1.398 . S
C25 C27 1.396 . S
C26 C25 1.398 . S
C26 C30 1.407 . S
C27 C25 1.396 . S
C27 C28 1.394 . S
C28 H23 0.929 . S
C28 C27 1.394 . S
C28 C29 1.382 . S
C29 C28 1.382 . S
C29 C30 1.392 . S
C29 N31 1.420 . S
C30 H24 0.930 . S
C30 C26 1.407 . S
C30 C29 1.392 . S
N31 C29 1.420 . S
N31 C32 1.244 . S
C32 N31 1.244 . S
H33 C36 0.929 . S
H34 C39 0.929 . S
H35 C41 0.930 . S
C36 H33 0.929 . S
C36 C37 1.398 . S
C36 C38 1.396 . S
C37 C36 1.398 . S
C37 C41 1.407 . S
C38 C36 1.396 . S
C38 C39 1.394 . S
C39 H34 0.929 . S
C39 C38 1.394 . S
C39 C40 1.382 . S
C40 C39 1.382 . S
C40 C41 1.392 . S
C40 N42 1.420 . S
C41 H35 0.930 . S
C41 C37 1.407 . S
C41 C40 1.392 . S
N42 C40 1.420 . S
N42 C43 1.244 . S
C43 N42 1.244 . S
H44 C47 0.929 . S
H45 C50 0.929 . S
H46 C52 0.930 . S
C47 H44 0.929 . S
C47 C48 1.398 . S
C47 C49 1.396 . S
C48 C47 1.398 . S
C48 C52 1.407 . S
C49 C47 1.396 . S
C49 C50 1.394 . S
C50 H45 0.929 . S
C50 C49 1.394 . S
C50 C51 1.382 . S
C51 C50 1.382 . S
C51 C52 1.392 . S
C51 N53 1.420 . S
C52 H46 0.930 . S
C52 C48 1.407 . S
C52 C51 1.392 . S
N53 C51 1.420 . S
N53 C54 1.244 . S
C54 N53 1.244 . S
H55 C58 0.929 . S
H56 C61 0.929 . S
H57 C63 0.930 . S
C58 H55 0.929 . S
C58 C59 1.398 . S
C58 C60 1.396 . S
C59 C58 1.398 . S
C59 C63 1.407 . S
C60 C58 1.396 . S
C60 C61 1.394 . S
C61 H56 0.929 . S
C61 C60 1.394 . S
C61 C62 1.382 . S
C62 C61 1.382 . S
C62 C63 1.392 . S
C62 N64 1.420 . S
C63 H57 0.930 . S
C63 C59 1.407 . S
C63 C62 1.392 . S
N64 C62 1.420 . S
N64 C65 1.244 . S
C65 N64 1.244 . S
H66 C69 0.929 . S
H67 C72 0.929 . S
H68 C74 0.930 . S
C69 H66 0.929 . S
C69 C70 1.398 . S
C69 C71 1.396 . S
C70 C69 1.398 . S
C70 C74 1.407 . S
C71 C69 1.396 . S
C71 C72 1.394 . S
C72 H67 0.929 . S
C72 C71 1.394 . S
C72 C73 1.382 . S
C73 C72 1.382 . S
C73 C74 1.392 . S
C73 N75 1.420 . S
C74 H68 0.930 . S
C74 C70 1.407 . S
C74 C73 1.392 . S
N75 C73 1.420 . S
N75 C76 1.244 . S
C76 N75 1.244 . S
H77 C80 0.929 . S
H78 C83 0.929 . S
H79 C85 0.930 . S
C80 H77 0.929 . S
C80 C81 1.398 . S
C80 C82 1.396 . S
C81 C80 1.398 . S
C81 C85 1.407 . S
C82 C80 1.396 . S
C82 C83 1.394 . S
C83 H78 0.929 . S
C83 C82 1.394 . S
C83 C84 1.382 . S
C84 C83 1.382 . S
C84 C85 1.392 . S
C84 N86 1.420 . S
C85 H79 0.930 . S
C85 C81 1.407 . S
C85 C84 1.392 . S
N86 C84 1.420 . S
N86 C87 1.244 . S
C87 N86 1.244 . S
Nd88 C90 2.836 1_545 S
Nd88 O108 2.500 1_545 S
Nd88 O109 2.492 1_545 S
Nd88 O110 2.487 . S
Nd88 O111 2.682 . S
Nd88 O112 2.410 . S
Nd88 O117 2.414 1_445 S
Nd88 O119 2.424 . S
Nd89 C99 2.836 . S
Nd89 O111 2.414 1_655 S
Nd89 O113 2.424 . S
Nd89 O114 2.500 . S
Nd89 O115 2.492 . S
Nd89 O116 2.487 1_545 S
Nd89 O117 2.682 1_545 S
Nd89 O118 2.410 . S
C90 Nd88 2.836 1_565 S
C90 C91 1.498 . S
C90 O108 1.258 . S
C90 O109 1.239 . S
C91 C90 1.498 . S
C91 C92 1.366 . S
C91 C96 1.407 . S
C92 C91 1.366 . S
C92 C93 1.392 . S
C92 H120 0.930 . S
C93 C92 1.392 . S
C93 C94 1.398 . S
C93 H121 0.929 . S
C94 C93 1.398 . S
C94 C95 1.352 . S
C95 C94 1.352 . S
C95 C96 1.384 . S
C95 H122 0.930 . S
C96 C91 1.407 . S
C96 C95 1.384 . S
C96 H123 0.929 . S
C97 O110 1.241 . S
C97 O111 1.273 . S
C98 O112 1.251 1_665 S
C98 O113 1.268 1_565 S
C99 Nd89 2.836 . S
C99 C100 1.498 . S
C99 O114 1.258 . S
C99 O115 1.239 . S
C100 C99 1.498 . S
C100 C101 1.366 . S
C100 C105 1.407 . S
C101 C100 1.366 . S
C101 C102 1.392 . S
C101 H124 0.930 . S
C102 C101 1.392 . S
C102 C103 1.398 . S
C102 H125 0.929 . S
C103 C102 1.398 . S
C103 C104 1.352 . S
C104 C103 1.352 . S
C104 C105 1.384 . S
C104 H126 0.930 . S
C105 C100 1.407 . S
C105 C104 1.384 . S
C105 H127 0.929 . S
C106 O116 1.241 . S
C106 O117 1.273 . S
C107 O118 1.251 1_455 S
C107 O119 1.268 . S
O108 Nd88 2.500 1_565 S
O108 C90 1.258 . S
O109 Nd88 2.492 1_565 S
O109 C90 1.239 . S
O110 Nd88 2.487 . S
O110 C97 1.241 . S
O111 Nd88 2.682 . S
O111 Nd89 2.414 1_455 S
O111 C97 1.273 . S
O112 Nd88 2.410 . S
O112 C98 1.251 1_445 S
O113 Nd89 2.424 . S
O113 C98 1.268 1_545 S
O114 Nd89 2.500 . S
O114 C99 1.258 . S
O115 Nd89 2.492 . S
O115 C99 1.239 . S
O116 Nd89 2.487 1_565 S
O116 C106 1.241 . S
O117 Nd88 2.414 1_665 S
O117 Nd89 2.682 1_565 S
O117 C106 1.273 . S
O118 Nd89 2.410 . S
O118 C107 1.251 1_655 S
O119 Nd88 2.424 . S
O119 C107 1.268 . S
H120 C92 0.930 . S
H121 C93 0.929 . S
H122 C95 0.930 . S
H123 C96 0.929 . S
H124 C101 0.930 . S
H125 C102 0.929 . S
H126 C104 0.930 . S
H127 C105 0.929 . S
Nd128 C130 2.836 1_545 S
Nd128 O148 2.500 1_545 S
Nd128 O149 2.492 1_545 S
Nd128 O150 2.487 . S
Nd128 O151 2.682 . S
Nd128 O152 2.410 1_545 S
Nd128 O157 2.414 . S
Nd128 O159 2.424 . S
Nd129 C139 2.836 . S
Nd129 O151 2.414 . S
Nd129 O153 2.424 1_554 S
Nd129 O154 2.500 . S
Nd129 O155 2.492 1_554 S
Nd129 O156 2.487 . S
Nd129 O157 2.682 . S
Nd129 O158 2.410 . S
C130 Nd128 2.836 1_565 S
C130 C131 1.498 . S
C130 O148 1.258 . S
C130 O149 1.239 . S
C131 C130 1.498 . S
C131 C132 1.366 . S
C131 C136 1.407 . S
C132 C131 1.366 . S
C132 C133 1.392 . S
C132 H160 0.930 . S
C133 C132 1.392 . S
C133 C134 1.398 . S
C133 H161 0.929 . S
C134 C133 1.398 . S
C134 C135 1.352 . S
C135 C134 1.352 . S
C135 C136 1.384 . S
C135 H162 0.930 . S
C136 C131 1.407 . S
C136 C135 1.384 . S
C136 H163 0.929 . S
C137 O150 1.241 . S
C137 O151 1.273 . S
C138 O152 1.251 . S
C138 O153 1.269 1_564 S
C139 Nd129 2.836 . S
C139 C140 1.498 . S
C139 O154 1.258 . S
C139 O155 1.239 1_554 S
C140 C139 1.498 . S
C140 C141 1.366 . S
C140 C145 1.407 1_554 S
C141 C140 1.366 . S
C141 C142 1.392 . S
C141 H164 0.930 . S
C142 C141 1.392 . S
C142 C143 1.398 1_554 S
C142 H165 0.929 . S
C143 C142 1.398 1_556 S
C143 C144 1.352 . S
C144 C143 1.352 . S
C144 C145 1.384 . S
C144 H166 0.930 . S
C145 C140 1.407 1_556 S
C145 C144 1.384 . S
C145 H167 0.929 . S
C146 O156 1.241 . S
C146 O157 1.273 . S
C147 O158 1.251 . S
C147 O159 1.268 . S
O148 Nd128 2.500 1_565 S
O148 C130 1.258 . S
O149 Nd128 2.492 1_565 S
O149 C130 1.239 . S
O150 Nd128 2.487 . S
O150 C137 1.241 . S
O151 Nd128 2.682 . S
O151 Nd129 2.414 . S
O151 C137 1.273 . S
O152 Nd128 2.410 1_565 S
O152 C138 1.251 . S
O153 Nd129 2.424 1_556 S
O153 C138 1.269 1_546 S
O154 Nd129 2.500 . S
O154 C139 1.258 . S
O155 Nd129 2.492 1_556 S
O155 C139 1.239 1_556 S
O156 Nd129 2.487 . S
O156 C146 1.241 . S
O157 Nd128 2.414 . S
O157 Nd129 2.682 . S
O157 C146 1.273 . S
O158 Nd129 2.410 . S
O158 C147 1.251 . S
O159 Nd128 2.424 . S
O159 C147 1.268 . S
H160 C132 0.930 . S
H161 C133 0.929 . S
H162 C135 0.930 . S
H163 C136 0.929 . S
H164 C141 0.930 . S
H165 C142 0.929 . S
H166 C144 0.930 . S
H167 C145 0.929 . S
Nd168 C170 2.836 . S
Nd168 O188 2.500 . S
Nd168 O189 2.492 . S
Nd168 O190 2.487 . S
Nd168 O191 2.682 . S
Nd168 O192 2.410 . S
Nd168 O197 2.414 . S
Nd168 O199 2.424 . S
Nd169 C179 2.836 . S
Nd169 O191 2.414 . S
Nd169 O193 2.424 . S
Nd169 O194 2.500 . S
Nd169 O195 2.492 . S
Nd169 O196 2.487 . S
Nd169 O197 2.682 . S
Nd169 O198 2.410 . S
C170 Nd168 2.836 . S
C170 C171 1.498 . S
C170 O188 1.258 . S
C170 O189 1.239 . S
C171 C170 1.498 . S
C171 C172 1.366 . S
C171 C176 1.407 . S
C172 C171 1.366 . S
C172 C173 1.392 . S
C172 H200 0.930 . S
C173 C172 1.392 . S
C173 C174 1.398 . S
C173 H201 0.929 . S
C174 C173 1.398 . S
C174 C175 1.352 . S
C175 C174 1.352 . S
C175 C176 1.384 . S
C175 H202 0.930 . S
C176 C171 1.407 . S
C176 C175 1.384 . S
C176 H203 0.929 . S
C177 O190 1.241 . S
C177 O191 1.273 . S
C178 O192 1.251 . S
C178 O193 1.268 . S
C179 Nd169 2.836 . S
C179 C180 1.498 . S
C179 O194 1.258 . S
C179 O195 1.239 . S
C180 C179 1.498 . S
C180 C181 1.366 . S
C180 C185 1.407 . S
C181 C180 1.366 . S
C181 C182 1.392 . S
C181 H204 0.930 . S
C182 C181 1.392 . S
C182 C183 1.398 . S
C182 H205 0.929 . S
C183 C182 1.398 . S
C183 C184 1.352 . S
C184 C183 1.352 . S
C184 C185 1.384 . S
C184 H206 0.930 . S
C185 C180 1.407 . S
C185 C184 1.384 . S
C185 H207 0.929 . S
C186 O196 1.241 . S
C186 O197 1.273 . S
C187 O198 1.251 . S
C187 O199 1.268 . S
O188 Nd168 2.500 . S
O188 C170 1.258 . S
O189 Nd168 2.492 . S
O189 C170 1.239 . S
O190 Nd168 2.487 . S
O190 C177 1.241 . S
O191 Nd168 2.682 . S
O191 Nd169 2.414 . S
O191 C177 1.273 . S
O192 Nd168 2.410 . S
O192 C178 1.251 . S
O193 Nd169 2.424 . S
O193 C178 1.268 . S
O194 Nd169 2.500 . S
O194 C179 1.258 . S
O195 Nd169 2.492 . S
O195 C179 1.239 . S
O196 Nd169 2.487 . S
O196 C186 1.241 . S
O197 Nd168 2.414 . S
O197 Nd169 2.682 . S
O197 C186 1.273 . S
O198 Nd169 2.410 . S
O198 C187 1.251 . S
O199 Nd168 2.424 . S
O199 C187 1.268 . S
H200 C172 0.930 . S
H201 C173 0.929 . S
H202 C175 0.930 . S
H203 C176 0.929 . S
H204 C181 0.930 . S
H205 C182 0.929 . S
H206 C184 0.930 . S
H207 C185 0.929 . S
Nd208 C210 2.836 1_455 S
Nd208 O228 2.500 1_455 S
Nd208 O229 2.492 . S
Nd208 O230 2.487 . S
Nd208 O231 2.682 . S
Nd208 O232 2.410 . S
Nd208 O237 2.414 1_455 S
Nd208 O239 2.424 . S
Nd209 C219 2.836 . S
Nd209 O231 2.414 1_556 S
Nd209 O233 2.424 . S
Nd209 O234 2.500 . S
Nd209 O235 2.492 . S
Nd209 O236 2.487 1_455 S
Nd209 O237 2.682 1_456 S
Nd209 O238 2.410 . S
C210 Nd208 2.836 1_655 S
C210 C211 1.498 . S
C210 O228 1.258 . S
C210 O229 1.239 1_655 S
C211 C210 1.498 . S
C211 C212 1.366 . S
C211 C216 1.407 . S
C212 C211 1.366 . S
C212 C213 1.392 . S
C212 H240 0.930 . S
C213 C212 1.392 . S
C213 C214 1.398 . S
C213 H241 0.929 . S
C214 C213 1.398 . S
C214 C215 1.352 . S
C215 C214 1.352 . S
C215 C216 1.384 . S
C215 H242 0.930 . S
C216 C211 1.407 . S
C216 C215 1.384 . S
C216 H243 0.929 1_655 S
C217 O230 1.241 . S
C217 O231 1.273 . S
C218 O232 1.251 . S
C218 O233 1.268 1_554 S
C219 Nd209 2.836 . S
C219 C220 1.498 . S
C219 O234 1.258 . S
C219 O235 1.239 . S
C220 C219 1.498 . S
C220 C221 1.366 . S
C220 C225 1.407 . S
C221 C220 1.366 . S
C221 C222 1.392 . S
C221 H244 0.930 . S
C222 C221 1.392 . S
C222 C223 1.398 . S
C222 H245 0.929 . S
C223 C222 1.398 . S
C223 C224 1.352 . S
C224 C223 1.352 . S
C224 C225 1.384 . S
C224 H246 0.930 . S
C225 C220 1.407 . S
C225 C224 1.384 . S
C225 H247 0.929 . S
C226 O236 1.241 . S
C226 O237 1.273 1_556 S
C227 O238 1.251 1_554 S
C227 O239 1.268 . S
O228 Nd208 2.500 1_655 S
O228 C210 1.258 . S
O229 Nd208 2.492 . S
O229 C210 1.239 1_455 S
O230 Nd208 2.487 . S
O230 C217 1.241 . S
O231 Nd208 2.682 . S
O231 Nd209 2.414 1_554 S
O231 C217 1.273 . S
O232 Nd208 2.410 . S
O232 C218 1.251 . S
O233 Nd209 2.424 . S
O233 C218 1.268 1_556 S
O234 Nd209 2.500 . S
O234 C219 1.258 . S
O235 Nd209 2.492 . S
O235 C219 1.239 . S
O236 Nd209 2.487 1_655 S
O236 C226 1.241 . S
O237 Nd208 2.414 1_655 S
O237 Nd209 2.682 1_654 S
O237 C226 1.273 1_554 S
O238 Nd209 2.410 . S
O238 C227 1.251 1_556 S
O239 Nd208 2.424 . S
O239 C227 1.268 . S
H240 C212 0.930 . S
H241 C213 0.929 . S
H242 C215 0.930 . S
H243 C216 0.929 1_455 S
H244 C221 0.930 . S
H245 C222 0.929 . S
H246 C224 0.930 . S
H247 C225 0.929 . S
H248 C266 0.951 . S
H249 C268 0.951 . S
H250 C270 0.950 . S
H251 C271 0.950 . S
H252 C273 0.950 . S
H253 C276 0.950 . S
H254 C277 0.950 . S
H255 C279 0.950 . S
H256 C280 0.950 . S
H257 C281 0.951 . S
H258 C283 0.951 . S
H259 C285 0.950 . S
H260 C286 0.950 . S
H261 C288 0.950 . S
H262 C291 0.950 . S
H263 C292 0.950 . S
H264 C294 0.950 . S
H265 C295 0.950 . S
C266 H248 0.951 . S
C266 C267 1.366 . S
C266 C268 1.388 . S
C267 C266 1.366 . S
C267 C271 1.385 . S
C268 H249 0.951 . S
C268 C266 1.388 . S
C268 C269 1.366 . S
C269 C268 1.366 . S
C269 C270 1.414 . S
C269 C272 1.499 . S
C270 H250 0.950 . S
C270 C269 1.414 . S
C270 C271 1.374 . S
C271 H251 0.950 . S
C271 C267 1.385 . S
C271 C270 1.374 . S
C272 C269 1.499 . S
C272 C273 1.373 . S
C272 C274 1.389 . S
C273 H252 0.950 . S
C273 C272 1.373 . S
C273 C289 1.377 . S
C274 C272 1.389 . S
C274 C275 1.524 . S
C274 C288 1.377 . S
C275 C274 1.524 . S
C275 C276 1.397 . S
C275 C280 1.363 . S
C276 H253 0.950 . S
C276 C275 1.397 . S
C276 C277 1.334 . S
C277 H254 0.950 . S
C277 C276 1.334 . S
C277 C278 1.287 . S
C278 C277 1.287 . S
C278 C279 1.524 . S
C278 H297 0.913 . S
C279 H255 0.950 . S
C279 C278 1.524 . S
C279 C280 1.415 . S
C280 H256 0.950 . S
C280 C275 1.363 . S
C280 C279 1.415 . S
C281 H257 0.951 . S
C281 C282 1.366 . S
C281 C283 1.388 . S
C282 C281 1.366 . S
C282 C286 1.385 . S
C283 H258 0.951 . S
C283 C281 1.388 . S
C283 C284 1.366 . S
C284 C283 1.366 . S
C284 C285 1.414 . S
C284 C287 1.499 . S
C285 H259 0.950 . S
C285 C284 1.414 . S
C285 C286 1.374 . S
C286 H260 0.950 . S
C286 C282 1.385 . S
C286 C285 1.374 . S
C287 C284 1.499 . S
C287 C288 1.373 . S
C287 C289 1.389 . S
C288 H261 0.950 . S
C288 C274 1.377 . S
C288 C287 1.373 . S
C289 C273 1.377 . S
C289 C287 1.389 . S
C289 C290 1.524 . S
C290 C289 1.524 . S
C290 C291 1.397 . S
C290 C295 1.363 . S
C291 H262 0.950 . S
C291 C290 1.397 . S
C291 C292 1.334 . S
C292 H263 0.950 . S
C292 C291 1.334 . S
C292 C293 1.287 . S
C293 C292 1.287 . S
C293 C294 1.524 . S
C293 H296 0.999 . S
C294 H264 0.950 . S
C294 C293 1.524 . S
C294 C295 1.415 . S
C295 H265 0.950 . S
C295 C290 1.363 . S
C295 C294 1.415 . S
H296 C293 0.999 . S
H297 C278 0.913 . S
H298 C316 0.951 . S
H299 C318 0.951 . S
H300 C320 0.950 . S
H301 C321 0.950 . S
H302 C323 0.950 . S
H303 C326 0.950 . S
H304 C327 0.950 . S
H305 C329 0.950 . S
H306 C330 0.950 . S
H307 C331 0.951 . S
H308 C333 0.951 . S
H309 C335 0.950 . S
H310 C336 0.950 . S
H311 C338 0.950 . S
H312 C341 0.950 . S
H313 C342 0.950 . S
H314 C344 0.950 . S
H315 C345 0.950 . S
C316 H298 0.951 . S
C316 C317 1.366 . S
C316 C318 1.388 . S
C317 C316 1.366 . S
C317 C321 1.385 . S
C318 H299 0.951 . S
C318 C316 1.388 . S
C318 C319 1.366 . S
C319 C318 1.366 . S
C319 C320 1.414 . S
C319 C322 1.499 . S
C320 H300 0.950 . S
C320 C319 1.414 . S
C320 C321 1.374 . S
C321 H301 0.950 . S
C321 C317 1.385 . S
C321 C320 1.374 . S
C322 C319 1.499 . S
C322 C323 1.373 . S
C322 C324 1.389 . S
C323 H302 0.950 . S
C323 C322 1.373 . S
C323 C339 1.377 . S
C324 C322 1.389 . S
C324 C325 1.524 . S
C324 C338 1.377 . S
C325 C324 1.524 . S
C325 C326 1.397 . S
C325 C330 1.363 . S
C326 H303 0.950 . S
C326 C325 1.397 . S
C326 C327 1.334 . S
C327 H304 0.950 . S
C327 C326 1.334 . S
C327 C328 1.287 . S
C328 C327 1.287 . S
C328 C329 1.524 . S
C328 H347 0.913 . S
C329 H305 0.950 . S
C329 C328 1.524 . S
C329 C330 1.415 . S
C330 H306 0.950 . S
C330 C325 1.363 . S
C330 C329 1.415 . S
C331 H307 0.951 . S
C331 C332 1.366 . S
C331 C333 1.388 . S
C332 C331 1.366 . S
C332 C336 1.385 . S
C333 H308 0.951 . S
C333 C331 1.388 . S
C333 C334 1.366 . S
C334 C333 1.366 . S
C334 C335 1.414 . S
C334 C337 1.499 . S
C335 H309 0.950 . S
C335 C334 1.414 . S
C335 C336 1.374 . S
C336 H310 0.950 . S
C336 C332 1.385 . S
C336 C335 1.374 . S
C337 C334 1.499 . S
C337 C338 1.373 . S
C337 C339 1.389 . S
C338 H311 0.950 . S
C338 C324 1.377 . S
C338 C337 1.373 . S
C339 C323 1.377 . S
C339 C337 1.389 . S
C339 C340 1.524 . S
C340 C339 1.524 . S
C340 C341 1.397 . S
C340 C345 1.363 . S
C341 H312 0.950 . S
C341 C340 1.397 . S
C341 C342 1.334 . S
C342 H313 0.950 . S
C342 C341 1.334 . S
C342 C343 1.287 . S
C343 C342 1.287 . S
C343 C344 1.524 . S
C343 H346 0.999 . S
C344 H314 0.950 . S
C344 C343 1.524 . S
C344 C345 1.415 . S
C345 H315 0.950 . S
C345 C340 1.363 . S
C345 C344 1.415 . S
H346 C343 0.999 . S
H347 C328 0.913 . S
H348 C366 0.951 . S
H349 C368 0.951 . S
H350 C370 0.950 . S
H351 C371 0.950 . S
H352 C373 0.950 . S
H353 C376 0.950 . S
H354 C377 0.950 . S
H355 C379 0.950 . S
H356 C380 0.950 . S
H357 C381 0.951 . S
H358 C383 0.951 . S
H359 C385 0.950 . S
H360 C386 0.950 . S
H361 C388 0.950 . S
H362 C391 0.950 . S
H363 C392 0.950 . S
H364 C394 0.950 . S
H365 C395 0.950 . S
C366 H348 0.951 . S
C366 C367 1.366 . S
C366 C368 1.388 . S
C367 C366 1.366 . S
C367 C371 1.385 . S
C368 H349 0.951 . S
C368 C366 1.388 . S
C368 C369 1.366 . S
C369 C368 1.366 . S
C369 C370 1.414 . S
C369 C372 1.499 . S
C370 H350 0.950 . S
C370 C369 1.414 . S
C370 C371 1.374 . S
C371 H351 0.950 . S
C371 C367 1.385 . S
C371 C370 1.374 . S
C372 C369 1.499 . S
C372 C373 1.373 . S
C372 C374 1.389 . S
C373 H352 0.950 . S
C373 C372 1.373 . S
C373 C389 1.377 . S
C374 C372 1.389 . S
C374 C375 1.524 . S
C374 C388 1.377 . S
C375 C374 1.524 . S
C375 C376 1.397 . S
C375 C380 1.363 . S
C376 H353 0.950 . S
C376 C375 1.397 . S
C376 C377 1.334 . S
C377 H354 0.950 . S
C377 C376 1.334 . S
C377 C378 1.287 . S
C378 C377 1.287 . S
C378 C379 1.524 . S
C378 H397 0.913 . S
C379 H355 0.950 . S
C379 C378 1.524 . S
C379 C380 1.415 . S
C380 H356 0.950 . S
C380 C375 1.363 . S
C380 C379 1.415 . S
C381 H357 0.951 . S
C381 C382 1.366 . S
C381 C383 1.388 . S
C382 C381 1.366 . S
C382 C386 1.385 . S
C383 H358 0.951 . S
C383 C381 1.388 . S
C383 C384 1.366 . S
C384 C383 1.366 . S
C384 C385 1.414 . S
C384 C387 1.499 . S
C385 H359 0.950 . S
C385 C384 1.414 . S
C385 C386 1.374 . S
C386 H360 0.950 . S
C386 C382 1.385 . S
C386 C385 1.374 . S
C387 C384 1.499 . S
C387 C388 1.373 . S
C387 C389 1.389 . S
C388 H361 0.950 . S
C388 C374 1.377 . S
C388 C387 1.373 . S
C389 C373 1.377 . S
C389 C387 1.389 . S
C389 C390 1.524 . S
C390 C389 1.524 . S
C390 C391 1.397 . S
C390 C395 1.363 . S
C391 H362 0.950 . S
C391 C390 1.397 . S
C391 C392 1.334 . S
C392 H363 0.950 . S
C392 C391 1.334 . S
C392 C393 1.287 . S
C393 C392 1.287 . S
C393 C394 1.524 . S
C393 H396 0.999 . S
C394 H364 0.950 . S
C394 C393 1.524 . S
C394 C395 1.415 . S
C395 H365 0.950 . S
C395 C390 1.363 . S
C395 C394 1.415 . S
H396 C393 0.999 . S
H397 C378 0.913 . S
H398 C416 0.951 . S
H399 C418 0.951 . S
H400 C420 0.950 . S
H401 C421 0.950 . S
H402 C423 0.950 . S
H403 C426 0.950 . S
H404 C427 0.950 . S
H405 C429 0.950 . S
H406 C430 0.950 . S
H407 C431 0.951 . S
H408 C433 0.951 . S
H409 C435 0.950 . S
H410 C436 0.950 . S
H411 C438 0.950 . S
H412 C441 0.950 . S
H413 C442 0.950 . S
H414 C444 0.950 . S
H415 C445 0.950 . S
C416 H398 0.951 . S
C416 C417 1.366 . S
C416 C418 1.388 . S
C417 C416 1.366 . S
C417 C421 1.385 . S
C418 H399 0.951 . S
C418 C416 1.388 . S
C418 C419 1.366 . S
C419 C418 1.366 . S
C419 C420 1.414 . S
C419 C422 1.499 . S
C420 H400 0.950 . S
C420 C419 1.414 . S
C420 C421 1.374 . S
C421 H401 0.950 . S
C421 C417 1.385 . S
C421 C420 1.374 . S
C422 C419 1.499 . S
C422 C423 1.373 . S
C422 C424 1.389 . S
C423 H402 0.950 . S
C423 C422 1.373 . S
C423 C439 1.377 . S
C424 C422 1.389 . S
C424 C425 1.524 . S
C424 C438 1.377 . S
C425 C424 1.524 . S
C425 C426 1.397 . S
C425 C430 1.363 . S
C426 H403 0.950 . S
C426 C425 1.397 . S
C426 C427 1.334 . S
C427 H404 0.950 . S
C427 C426 1.334 . S
C427 C428 1.287 . S
C428 C427 1.287 . S
C428 C429 1.524 . S
C428 H447 0.913 . S
C429 H405 0.950 . S
C429 C428 1.524 . S
C429 C430 1.415 . S
C430 H406 0.950 . S
C430 C425 1.363 . S
C430 C429 1.415 . S
C431 H407 0.951 . S
C431 C432 1.366 . S
C431 C433 1.388 . S
C432 C431 1.366 . S
C432 C436 1.385 . S
C433 H408 0.951 . S
C433 C431 1.388 . S
C433 C434 1.366 . S
C434 C433 1.366 . S
C434 C435 1.414 . S
C434 C437 1.499 . S
C435 H409 0.950 . S
C435 C434 1.414 . S
C435 C436 1.374 . S
C436 H410 0.950 . S
C436 C432 1.385 . S
C436 C435 1.374 . S
C437 C434 1.499 . S
C437 C438 1.373 . S
C437 C439 1.389 . S
C438 H411 0.950 . S
C438 C424 1.377 . S
C438 C437 1.373 . S
C439 C423 1.377 . S
C439 C437 1.389 . S
C439 C440 1.524 . S
C440 C439 1.524 . S
C440 C441 1.397 . S
C440 C445 1.363 . S
C441 H412 0.950 . S
C441 C440 1.397 . S
C441 C442 1.334 . S
C442 H413 0.950 . S
C442 C441 1.334 . S
C442 C443 1.287 . S
C443 C442 1.287 . S
C443 C444 1.524 . S
C443 H446 0.999 . S
C444 H414 0.950 . S
C444 C443 1.524 . S
C444 C445 1.415 . S
C445 H415 0.950 . S
C445 C440 1.363 . S
C445 C444 1.415 . S
H446 C443 0.999 . S
H447 C428 0.913 . S
H448 C466 0.951 . S
H449 C468 0.951 . S
H450 C470 0.950 . S
H451 C471 0.950 . S
H452 C473 0.950 . S
H453 C476 0.950 . S
H454 C477 0.950 . S
H455 C479 0.950 . S
H456 C480 0.950 . S
H457 C481 0.951 . S
H458 C483 0.951 . S
H459 C485 0.950 . S
H460 C486 0.950 . S
H461 C488 0.950 . S
H462 C491 0.950 . S
H463 C492 0.950 . S
H464 C494 0.949 1_565 S
H465 C495 0.950 . S
C466 H448 0.951 . S
C466 C467 1.366 . S
C466 C468 1.388 . S
C467 C466 1.366 . S
C467 C471 1.385 . S
C468 H449 0.951 . S
C468 C466 1.388 . S
C468 C469 1.366 . S
C469 C468 1.366 . S
C469 C470 1.414 . S
C469 C472 1.499 . S
C470 H450 0.950 . S
C470 C469 1.414 . S
C470 C471 1.374 . S
C471 H451 0.950 . S
C471 C467 1.385 . S
C471 C470 1.374 . S
C472 C469 1.499 . S
C472 C473 1.373 . S
C472 C474 1.389 . S
C473 H452 0.950 . S
C473 C472 1.373 . S
C473 C489 1.377 . S
C474 C472 1.389 . S
C474 C475 1.524 . S
C474 C488 1.377 . S
C475 C474 1.524 . S
C475 C476 1.397 . S
C475 C480 1.363 . S
C476 H453 0.950 . S
C476 C475 1.397 . S
C476 C477 1.334 . S
C477 H454 0.950 . S
C477 C476 1.334 . S
C477 C478 1.287 . S
C478 C477 1.287 . S
C478 C479 1.524 . S
C478 H497 0.913 . S
C479 H455 0.950 . S
C479 C478 1.524 . S
C479 C480 1.415 . S
C480 H456 0.950 . S
C480 C475 1.363 . S
C480 C479 1.415 . S
C481 H457 0.951 . S
C481 C482 1.366 . S
C481 C483 1.388 . S
C482 C481 1.366 . S
C482 C486 1.385 . S
C483 H458 0.951 . S
C483 C481 1.388 . S
C483 C484 1.366 . S
C484 C483 1.366 . S
C484 C485 1.414 . S
C484 C487 1.499 . S
C485 H459 0.950 . S
C485 C484 1.414 . S
C485 C486 1.374 . S
C486 H460 0.950 . S
C486 C482 1.385 . S
C486 C485 1.374 . S
C487 C484 1.499 . S
C487 C488 1.373 . S
C487 C489 1.389 . S
C488 H461 0.950 . S
C488 C474 1.377 . S
C488 C487 1.373 . S
C489 C473 1.377 . S
C489 C487 1.389 . S
C489 C490 1.524 . S
C490 C489 1.524 . S
C490 C491 1.397 . S
C490 C495 1.363 . S
C491 H462 0.950 . S
C491 C490 1.397 . S
C491 C492 1.334 . S
C492 H463 0.950 . S
C492 C491 1.334 . S
C492 C493 1.287 . S
C493 C492 1.287 . S
C493 C494 1.524 . S
C493 H496 0.999 1_545 S
C494 H464 0.949 1_545 S
C494 C493 1.524 . S
C494 C495 1.415 . S
C495 H465 0.950 . S
C495 C490 1.363 . S
C495 C494 1.415 . S
H496 C493 0.999 1_565 S
H497 C478 0.913 . S
H498 C516 0.951 . S
H499 C518 0.951 . S
H500 C520 0.950 . S
H501 C521 0.950 . S
H502 C523 0.950 . S
H503 C526 0.950 . S
H504 C527 0.950 . S
H505 C529 0.950 . S
H506 C530 0.950 . S
H507 C531 0.951 . S
H508 C533 0.951 . S
H509 C535 0.950 . S
H510 C536 0.950 . S
H511 C538 0.950 . S
H512 C541 0.950 . S
H513 C542 0.950 . S
H514 C544 0.950 . S
H515 C545 0.950 . S
C516 H498 0.951 . S
C516 C517 1.366 . S
C516 C518 1.388 . S
C517 C516 1.366 . S
C517 C521 1.385 . S
C518 H499 0.951 . S
C518 C516 1.388 . S
C518 C519 1.366 . S
C519 C518 1.366 . S
C519 C520 1.414 . S
C519 C522 1.499 . S
C520 H500 0.950 . S
C520 C519 1.414 . S
C520 C521 1.374 . S
C521 H501 0.950 . S
C521 C517 1.385 . S
C521 C520 1.374 . S
C522 C519 1.499 . S
C522 C523 1.373 . S
C522 C524 1.389 . S
C523 H502 0.950 . S
C523 C522 1.373 . S
C523 C539 1.377 . S
C524 C522 1.389 . S
C524 C525 1.524 . S
C524 C538 1.377 . S
C525 C524 1.524 . S
C525 C526 1.397 . S
C525 C530 1.363 . S
C526 H503 0.950 . S
C526 C525 1.397 . S
C526 C527 1.334 . S
C527 H504 0.950 . S
C527 C526 1.334 . S
C527 C528 1.287 . S
C528 C527 1.287 . S
C528 C529 1.524 . S
C528 H547 0.913 . S
C529 H505 0.950 . S
C529 C528 1.524 . S
C529 C530 1.415 . S
C530 H506 0.950 . S
C530 C525 1.363 . S
C530 C529 1.415 . S
C531 H507 0.951 . S
C531 C532 1.366 . S
C531 C533 1.388 . S
C532 C531 1.366 . S
C532 C536 1.385 . S
C533 H508 0.951 . S
C533 C531 1.388 . S
C533 C534 1.366 . S
C534 C533 1.366 . S
C534 C535 1.414 . S
C534 C537 1.499 . S
C535 H509 0.950 . S
C535 C534 1.414 . S
C535 C536 1.374 . S
C536 H510 0.950 . S
C536 C532 1.385 . S
C536 C535 1.374 . S
C537 C534 1.499 . S
C537 C538 1.373 . S
C537 C539 1.389 . S
C538 H511 0.950 . S
C538 C524 1.377 . S
C538 C537 1.373 . S
C539 C523 1.377 . S
C539 C537 1.389 . S
C539 C540 1.524 . S
C540 C539 1.524 . S
C540 C541 1.397 . S
C540 C545 1.363 . S
C541 H512 0.950 . S
C541 C540 1.397 . S
C541 C542 1.334 . S
C542 H513 0.950 . S
C542 C541 1.334 . S
C542 C543 1.287 . S
C543 C542 1.287 . S
C543 C544 1.524 . S
C543 H546 0.999 . S
C544 H514 0.950 . S
C544 C543 1.524 . S
C544 C545 1.415 . S
C545 H515 0.950 . S
C545 C540 1.363 . S
C545 C544 1.415 . S
H546 C543 0.999 . S
H547 C528 0.913 . S
H548 C566 0.951 . S
H549 C568 0.951 . S
H550 C570 0.950 . S
H551 C571 0.950 . S
H552 C573 0.950 . S
H553 C576 0.950 . S
H554 C577 0.950 . S
H555 C579 0.950 . S
H556 C580 0.950 . S
H557 C581 0.951 . S
H558 C583 0.951 . S
H559 C585 0.950 . S
H560 C586 0.950 1_554 S
H561 C588 0.950 . S
H562 C591 0.950 . S
H563 C592 0.950 1_554 S
H564 C594 0.950 . S
H565 C595 0.950 . S
C566 H548 0.951 . S
C566 C567 1.366 . S
C566 C568 1.388 . S
C567 C566 1.366 . S
C567 C571 1.385 . S
C568 H549 0.951 . S
C568 C566 1.388 . S
C568 C569 1.366 . S
C569 C568 1.366 . S
C569 C570 1.414 . S
C569 C572 1.499 . S
C570 H550 0.950 . S
C570 C569 1.414 . S
C570 C571 1.374 . S
C571 H551 0.950 . S
C571 C567 1.385 . S
C571 C570 1.374 . S
C572 C569 1.499 . S
C572 C573 1.373 . S
C572 C574 1.389 . S
C573 H552 0.950 . S
C573 C572 1.373 . S
C573 C589 1.377 . S
C574 C572 1.389 . S
C574 C575 1.524 . S
C574 C588 1.377 . S
C575 C574 1.524 . S
C575 C576 1.397 . S
C575 C580 1.363 . S
C576 H553 0.950 . S
C576 C575 1.397 . S
C576 C577 1.334 . S
C577 H554 0.950 . S
C577 C576 1.334 . S
C577 C578 1.287 . S
C578 C577 1.287 . S
C578 C579 1.524 . S
C578 H597 0.913 . S
C579 H555 0.950 . S
C579 C578 1.524 . S
C579 C580 1.415 . S
C580 H556 0.950 . S
C580 C575 1.363 . S
C580 C579 1.415 . S
C581 H557 0.951 . S
C581 C582 1.366 . S
C581 C583 1.388 . S
C582 C581 1.366 . S
C582 C586 1.385 . S
C583 H558 0.951 . S
C583 C581 1.388 . S
C583 C584 1.366 . S
C584 C583 1.366 . S
C584 C585 1.414 . S
C584 C587 1.499 . S
C585 H559 0.950 . S
C585 C584 1.414 . S
C585 C586 1.374 . S
C586 H560 0.950 1_556 S
C586 C582 1.385 . S
C586 C585 1.374 . S
C587 C584 1.499 . S
C587 C588 1.373 . S
C587 C589 1.389 . S
C588 H561 0.950 . S
C588 C574 1.377 . S
C588 C587 1.373 . S
C589 C573 1.377 . S
C589 C587 1.389 . S
C589 C590 1.524 . S
C590 C589 1.524 . S
C590 C591 1.397 . S
C590 C595 1.363 . S
C591 H562 0.950 . S
C591 C590 1.397 . S
C591 C592 1.334 . S
C592 H563 0.950 1_556 S
C592 C591 1.334 . S
C592 C593 1.287 . S
C593 C592 1.287 . S
C593 C594 1.524 . S
C593 H596 0.999 . S
C594 H564 0.950 . S
C594 C593 1.524 . S
C594 C595 1.415 . S
C595 H565 0.950 . S
C595 C590 1.363 . S
C595 C594 1.415 . S
H596 C593 0.999 . S
H597 C578 0.913 . S
H598 C616 0.951 . S
H599 C618 0.951 . S
H600 C620 0.950 . S
H601 C621 0.950 . S
H602 C623 0.950 . S
H603 C626 0.950 . S
H604 C627 0.950 . S
H605 C629 0.950 . S
H606 C630 0.950 . S
H607 C631 0.951 . S
H608 C633 0.951 . S
H609 C635 0.950 . S
H610 C636 0.950 . S
H611 C638 0.950 . S
H612 C641 0.950 . S
H613 C642 0.950 . S
H614 C644 0.950 . S
H615 C645 0.950 . S
C616 H598 0.951 . S
C616 C617 1.366 . S
C616 C618 1.388 . S
C617 C616 1.366 . S
C617 C621 1.385 . S
C618 H599 0.951 . S
C618 C616 1.388 . S
C618 C619 1.366 . S
C619 C618 1.366 . S
C619 C620 1.414 . S
C619 C622 1.499 . S
C620 H600 0.950 . S
C620 C619 1.414 . S
C620 C621 1.374 . S
C621 H601 0.950 . S
C621 C617 1.385 . S
C621 C620 1.374 . S
C622 C619 1.499 . S
C622 C623 1.373 . S
C622 C624 1.389 . S
C623 H602 0.950 . S
C623 C622 1.373 . S
C623 C639 1.377 . S
C624 C622 1.389 . S
C624 C625 1.524 . S
C624 C638 1.377 . S
C625 C624 1.524 . S
C625 C626 1.397 . S
C625 C630 1.363 . S
C626 H603 0.950 . S
C626 C625 1.397 . S
C626 C627 1.334 . S
C627 H604 0.950 . S
C627 C626 1.334 . S
C627 C628 1.287 . S
C628 C627 1.287 . S
C628 C629 1.524 . S
C628 H647 0.913 . S
C629 H605 0.950 . S
C629 C628 1.524 . S
C629 C630 1.415 . S
C630 H606 0.950 . S
C630 C625 1.363 . S
C630 C629 1.415 . S
C631 H607 0.951 . S
C631 C632 1.366 . S
C631 C633 1.388 . S
C632 C631 1.366 . S
C632 C636 1.385 . S
C633 H608 0.951 . S
C633 C631 1.388 . S
C633 C634 1.366 . S
C634 C633 1.366 . S
C634 C635 1.414 . S
C634 C637 1.499 . S
C635 H609 0.950 . S
C635 C634 1.414 . S
C635 C636 1.374 . S
C636 H610 0.950 . S
C636 C632 1.385 . S
C636 C635 1.374 . S
C637 C634 1.499 . S
C637 C638 1.373 . S
C637 C639 1.389 . S
C638 H611 0.950 . S
C638 C624 1.377 . S
C638 C637 1.373 . S
C639 C623 1.377 . S
C639 C637 1.389 . S
C639 C640 1.524 . S
C640 C639 1.524 . S
C640 C641 1.397 . S
C640 C645 1.363 . S
C641 H612 0.950 . S
C641 C640 1.397 . S
C641 C642 1.334 . S
C642 H613 0.950 . S
C642 C641 1.334 . S
C642 C643 1.287 . S
C643 C642 1.287 . S
C643 C644 1.524 . S
C643 H646 0.999 . S
C644 H614 0.950 . S
C644 C643 1.524 . S
C644 C645 1.415 . S
C645 H615 0.950 . S
C645 C640 1.363 . S
C645 C644 1.415 . S
H646 C643 0.999 . S
H647 C628 0.913 . S
H648 C666 0.951 . S
H649 C668 0.951 . S
H650 C670 0.950 . S
H651 C671 0.950 . S
H652 C673 0.950 . S
H653 C676 0.950 . S
H654 C677 0.950 . S
H655 C679 0.950 . S
H656 C680 0.950 . S
H657 C681 0.951 . S
H658 C683 0.951 . S
H659 C685 0.950 . S
H660 C686 0.950 . S
H661 C688 0.950 . S
H662 C691 0.950 . S
H663 C692 0.950 . S
H664 C694 0.950 . S
H665 C695 0.950 . S
C666 H648 0.951 . S
C666 C667 1.366 . S
C666 C668 1.388 . S
C667 C666 1.366 . S
C667 C671 1.385 . S
C668 H649 0.951 . S
C668 C666 1.388 . S
C668 C669 1.366 . S
C669 C668 1.366 . S
C669 C670 1.414 . S
C669 C672 1.499 . S
C670 H650 0.950 . S
C670 C669 1.414 . S
C670 C671 1.374 . S
C671 H651 0.950 . S
C671 C667 1.385 . S
C671 C670 1.374 . S
C672 C669 1.499 . S
C672 C673 1.373 . S
C672 C674 1.389 . S
C673 H652 0.950 . S
C673 C672 1.373 . S
C673 C689 1.377 . S
C674 C672 1.389 . S
C674 C675 1.524 . S
C674 C688 1.377 . S
C675 C674 1.524 . S
C675 C676 1.397 . S
C675 C680 1.363 1_554 S
C676 H653 0.950 . S
C676 C675 1.397 . S
C676 C677 1.334 . S
C677 H654 0.950 . S
C677 C676 1.334 . S
C677 C678 1.287 1_554 S
C678 C677 1.287 1_556 S
C678 C679 1.524 . S
C678 H697 0.913 . S
C679 H655 0.950 . S
C679 C678 1.524 . S
C679 C680 1.415 . S
C680 H656 0.950 . S
C680 C675 1.363 1_556 S
C680 C679 1.415 . S
C681 H657 0.951 . S
C681 C682 1.366 . S
C681 C683 1.388 . S
C682 C681 1.366 . S
C682 C686 1.385 . S
C683 H658 0.951 . S
C683 C681 1.388 . S
C683 C684 1.366 . S
C684 C683 1.366 . S
C684 C685 1.414 . S
C684 C687 1.499 . S
C685 H659 0.950 . S
C685 C684 1.414 . S
C685 C686 1.374 . S
C686 H660 0.950 . S
C686 C682 1.385 . S
C686 C685 1.374 . S
C687 C684 1.499 . S
C687 C688 1.373 . S
C687 C689 1.389 . S
C688 H661 0.950 . S
C688 C674 1.377 . S
C688 C687 1.373 . S
C689 C673 1.377 . S
C689 C687 1.389 . S
C689 C690 1.524 . S
C690 C689 1.524 . S
C690 C691 1.397 . S
C690 C695 1.363 . S
C691 H662 0.950 . S
C691 C690 1.397 . S
C691 C692 1.334 . S
C692 H663 0.950 . S
C692 C691 1.334 . S
C692 C693 1.287 . S
C693 C692 1.287 . S
C693 C694 1.524 . S
C693 H696 0.999 . S
C694 H664 0.950 . S
C694 C693 1.524 . S
C694 C695 1.415 . S
C695 H665 0.950 . S
C695 C690 1.363 . S
C695 C694 1.415 . S
H696 C693 0.999 . S
H697 C678 0.913 . S
H698 C716 0.951 . S
H699 C718 0.951 . S
H700 C720 0.950 . S
H701 C721 0.950 . S
H702 C723 0.950 . S
H703 C726 0.950 . S
H704 C727 0.950 . S
H705 C729 0.950 . S
H706 C730 0.950 . S
H707 C731 0.951 . S
H708 C733 0.951 . S
H709 C735 0.950 . S
H710 C736 0.950 . S
H711 C738 0.950 . S
H712 C741 0.950 . S
H713 C742 0.950 . S
H714 C744 0.950 . S
H715 C745 0.950 . S
C716 H698 0.951 . S
C716 C717 1.366 . S
C716 C718 1.388 . S
C717 C716 1.366 . S
C717 C721 1.385 . S
C718 H699 0.951 . S
C718 C716 1.388 . S
C718 C719 1.366 . S
C719 C718 1.366 . S
C719 C720 1.414 . S
C719 C722 1.499 . S
C720 H700 0.950 . S
C720 C719 1.414 . S
C720 C721 1.374 . S
C721 H701 0.950 . S
C721 C717 1.385 . S
C721 C720 1.374 . S
C722 C719 1.499 . S
C722 C723 1.373 . S
C722 C724 1.389 . S
C723 H702 0.950 . S
C723 C722 1.373 . S
C723 C739 1.377 . S
C724 C722 1.389 . S
C724 C725 1.524 . S
C724 C738 1.377 . S
C725 C724 1.524 . S
C725 C726 1.397 . S
C725 C730 1.363 . S
C726 H703 0.950 . S
C726 C725 1.397 . S
C726 C727 1.334 1_556 S
C727 H704 0.950 . S
C727 C726 1.334 1_554 S
C727 C728 1.287 . S
C728 C727 1.287 . S
C728 C729 1.524 . S
C728 H747 0.913 . S
C729 H705 0.950 . S
C729 C728 1.524 . S
C729 C730 1.415 1_554 S
C730 H706 0.950 . S
C730 C725 1.363 . S
C730 C729 1.415 1_556 S
C731 H707 0.951 . S
C731 C732 1.366 . S
C731 C733 1.388 . S
C732 C731 1.366 . S
C732 C736 1.385 . S
C733 H708 0.951 . S
C733 C731 1.388 . S
C733 C734 1.366 . S
C734 C733 1.366 . S
C734 C735 1.414 . S
C734 C737 1.499 . S
C735 H709 0.950 . S
C735 C734 1.414 . S
C735 C736 1.374 . S
C736 H710 0.950 . S
C736 C732 1.385 . S
C736 C735 1.374 . S
C737 C734 1.499 . S
C737 C738 1.373 . S
C737 C739 1.389 . S
C738 H711 0.950 . S
C738 C724 1.377 . S
C738 C737 1.373 . S
C739 C723 1.377 . S
C739 C737 1.389 . S
C739 C740 1.524 . S
C740 C739 1.524 . S
C740 C741 1.397 . S
C740 C745 1.363 . S
C741 H712 0.950 . S
C741 C740 1.397 . S
C741 C742 1.334 . S
C742 H713 0.950 . S
C742 C741 1.334 . S
C742 C743 1.287 . S
C743 C742 1.287 . S
C743 C744 1.524 . S
C743 H746 0.999 . S
C744 H714 0.950 . S
C744 C743 1.524 . S
C744 C745 1.415 . S
C745 H715 0.950 . S
C745 C740 1.363 . S
C745 C744 1.415 . S
H746 C743 0.999 . S
H747 C728 0.913 . S
H748 C766 0.951 . S
H749 C768 0.951 . S
H750 C770 0.950 . S
H751 C771 0.950 . S
H752 C773 0.950 . S
H753 C776 0.950 . S
H754 C777 0.950 . S
H755 C779 0.950 . S
H756 C780 0.950 . S
H757 C781 0.951 . S
H758 C783 0.951 . S
H759 C785 0.950 . S
H760 C786 0.950 1_455 S
H761 C788 0.950 . S
H762 C791 0.950 . S
H763 C792 0.950 . S
H764 C794 0.950 . S
H765 C795 0.950 . S
C766 H748 0.951 . S
C766 C767 1.366 . S
C766 C768 1.388 . S
C767 C766 1.366 . S
C767 C771 1.385 . S
C768 H749 0.951 . S
C768 C766 1.388 . S
C768 C769 1.366 . S
C769 C768 1.366 . S
C769 C770 1.414 . S
C769 C772 1.499 . S
C770 H750 0.950 . S
C770 C769 1.414 . S
C770 C771 1.374 . S
C771 H751 0.950 . S
C771 C767 1.385 . S
C771 C770 1.374 . S
C772 C769 1.499 . S
C772 C773 1.373 . S
C772 C774 1.389 . S
C773 H752 0.950 . S
C773 C772 1.373 . S
C773 C789 1.377 . S
C774 C772 1.389 . S
C774 C775 1.524 . S
C774 C788 1.377 . S
C775 C774 1.524 . S
C775 C776 1.397 . S
C775 C780 1.363 . S
C776 H753 0.950 . S
C776 C775 1.397 . S
C776 C777 1.334 . S
C777 H754 0.950 . S
C777 C776 1.334 . S
C777 C778 1.287 . S
C778 C777 1.287 . S
C778 C779 1.524 . S
C778 H797 0.913 . S
C779 H755 0.950 . S
C779 C778 1.524 . S
C779 C780 1.415 . S
C780 H756 0.950 . S
C780 C775 1.363 . S
C780 C779 1.415 . S
C781 H757 0.951 . S
C781 C782 1.366 . S
C781 C783 1.388 . S
C782 C781 1.366 . S
C782 C786 1.385 . S
C783 H758 0.951 . S
C783 C781 1.388 . S
C783 C784 1.366 . S
C784 C783 1.366 . S
C784 C785 1.414 . S
C784 C787 1.499 . S
C785 H759 0.950 . S
C785 C784 1.414 . S
C785 C786 1.374 . S
C786 H760 0.950 1_655 S
C786 C782 1.385 . S
C786 C785 1.374 . S
C787 C784 1.499 . S
C787 C788 1.373 . S
C787 C789 1.389 . S
C788 H761 0.950 . S
C788 C774 1.377 . S
C788 C787 1.373 . S
C789 C773 1.377 . S
C789 C787 1.389 . S
C789 C790 1.524 . S
C790 C789 1.524 . S
C790 C791 1.397 . S
C790 C795 1.363 . S
C791 H762 0.950 . S
C791 C790 1.397 . S
C791 C792 1.334 . S
C792 H763 0.950 . S
C792 C791 1.334 . S
C792 C793 1.287 . S
C793 C792 1.287 . S
C793 C794 1.524 . S
C793 H796 0.999 . S
C794 H764 0.950 . S
C794 C793 1.524 . S
C794 C795 1.415 . S
C795 H765 0.950 . S
C795 C790 1.363 . S
C795 C794 1.415 . S
H796 C793 0.999 . S
H797 C778 0.913 . S
H798 C816 0.951 . S
H799 C818 0.951 . S
H800 C820 0.950 . S
H801 C821 0.950 . S
H802 C823 0.950 . S
H803 C826 0.950 . S
H804 C827 0.950 . S
H805 C829 0.950 . S
H806 C830 0.950 . S
H807 C831 0.951 . S
H808 C833 0.951 . S
H809 C835 0.950 . S
H810 C836 0.950 . S
H811 C838 0.950 . S
H812 C841 0.950 . S
H813 C842 0.950 . S
H814 C844 0.950 . S
H815 C845 0.950 . S
C816 H798 0.951 . S
C816 C817 1.366 . S
C816 C818 1.388 . S
C817 C816 1.366 . S
C817 C821 1.385 . S
C818 H799 0.951 . S
C818 C816 1.388 . S
C818 C819 1.366 . S
C819 C818 1.366 . S
C819 C820 1.414 . S
C819 C822 1.499 . S
C820 H800 0.950 . S
C820 C819 1.414 . S
C820 C821 1.374 . S
C821 H801 0.950 . S
C821 C817 1.385 . S
C821 C820 1.374 . S
C822 C819 1.499 . S
C822 C823 1.373 . S
C822 C824 1.389 . S
C823 H802 0.950 . S
C823 C822 1.373 . S
C823 C839 1.377 . S
C824 C822 1.389 . S
C824 C825 1.524 . S
C824 C838 1.377 . S
C825 C824 1.524 . S
C825 C826 1.397 . S
C825 C830 1.363 . S
C826 H803 0.950 . S
C826 C825 1.397 . S
C826 C827 1.334 . S
C827 H804 0.950 . S
C827 C826 1.334 . S
C827 C828 1.287 . S
C828 C827 1.287 . S
C828 C829 1.524 . S
C828 H847 0.913 . S
C829 H805 0.950 . S
C829 C828 1.524 . S
C829 C830 1.415 . S
C830 H806 0.950 . S
C830 C825 1.363 . S
C830 C829 1.415 . S
C831 H807 0.951 . S
C831 C832 1.366 . S
C831 C833 1.388 . S
C832 C831 1.366 . S
C832 C836 1.385 . S
C833 H808 0.951 . S
C833 C831 1.388 . S
C833 C834 1.366 . S
C834 C833 1.366 . S
C834 C835 1.414 . S
C834 C837 1.499 . S
C835 H809 0.950 . S
C835 C834 1.414 . S
C835 C836 1.374 . S
C836 H810 0.950 . S
C836 C832 1.385 . S
C836 C835 1.374 . S
C837 C834 1.499 . S
C837 C838 1.373 . S
C837 C839 1.389 . S
C838 H811 0.950 . S
C838 C824 1.377 . S
C838 C837 1.373 . S
C839 C823 1.377 . S
C839 C837 1.389 . S
C839 C840 1.524 . S
C840 C839 1.524 . S
C840 C841 1.397 . S
C840 C845 1.363 . S
C841 H812 0.950 . S
C841 C840 1.397 . S
C841 C842 1.334 . S
C842 H813 0.950 . S
C842 C841 1.334 . S
C842 C843 1.287 . S
C843 C842 1.287 . S
C843 C844 1.524 . S
C843 H846 0.999 . S
C844 H814 0.950 . S
C844 C843 1.524 . S
C844 C845 1.415 . S
C845 H815 0.950 . S
C845 C840 1.363 . S
C845 C844 1.415 . S
H846 C843 0.999 . S
H847 C828 0.913 . S
H848 C866 0.951 . S
H849 C868 0.951 . S
H850 C870 0.950 . S
H851 C871 0.950 . S
H852 C873 0.950 . S
H853 C876 0.950 . S
H854 C877 0.950 . S
H855 C879 0.950 . S
H856 C880 0.950 . S
H857 C881 0.951 . S
H858 C883 0.951 . S
H859 C885 0.950 . S
H860 C886 0.936 1_455 S
H861 C888 0.950 . S
H862 C891 0.950 . S
H863 C892 0.950 . S
H864 C894 0.950 . S
H865 C895 0.950 . S
C866 H848 0.951 . S
C866 C867 1.366 . S
C866 C868 1.388 . S
C867 C866 1.366 . S
C867 C871 1.385 . S
C868 H849 0.951 . S
C868 C866 1.388 . S
C868 C869 1.366 . S
C869 C868 1.366 . S
C869 C870 1.414 . S
C869 C872 1.499 . S
C870 H850 0.950 . S
C870 C869 1.414 . S
C870 C871 1.374 . S
C871 H851 0.950 . S
C871 C867 1.385 . S
C871 C870 1.374 . S
C872 C869 1.499 . S
C872 C873 1.373 . S
C872 C874 1.389 . S
C873 H852 0.950 . S
C873 C872 1.373 . S
C873 C889 1.377 . S
C874 C872 1.389 . S
C874 C875 1.524 . S
C874 C888 1.377 . S
C875 C874 1.524 . S
C875 C876 1.397 . S
C875 C880 1.363 . S
C876 H853 0.950 . S
C876 C875 1.397 . S
C876 C877 1.334 . S
C877 H854 0.950 . S
C877 C876 1.334 . S
C877 C878 1.287 1_565 S
C878 C877 1.287 1_545 S
C878 C879 1.524 . S
C878 H897 0.913 . S
C879 H855 0.950 . S
C879 C878 1.524 . S
C879 C880 1.415 1_545 S
C880 H856 0.950 . S
C880 C875 1.363 . S
C880 C879 1.415 1_565 S
C881 H857 0.951 . S
C881 C882 1.366 . S
C881 C883 1.388 . S
C882 C881 1.366 . S
C882 C886 1.385 . S
C883 H858 0.951 . S
C883 C881 1.388 . S
C883 C884 1.366 . S
C884 C883 1.366 . S
C884 C885 1.414 . S
C884 C887 1.499 . S
C885 H859 0.950 . S
C885 C884 1.414 . S
C885 C886 1.374 . S
C886 H860 0.936 1_655 S
C886 C882 1.385 . S
C886 C885 1.374 . S
C887 C884 1.499 . S
C887 C888 1.373 . S
C887 C889 1.389 . S
C888 H861 0.950 . S
C888 C874 1.377 . S
C888 C887 1.373 . S
C889 C873 1.377 . S
C889 C887 1.389 . S
C889 C890 1.524 . S
C890 C889 1.524 . S
C890 C891 1.397 . S
C890 C895 1.363 . S
C891 H862 0.950 . S
C891 C890 1.397 . S
C891 C892 1.334 . S
C892 H863 0.950 . S
C892 C891 1.334 . S
C892 C893 1.287 . S
C893 C892 1.287 . S
C893 C894 1.524 . S
C893 H896 0.999 . S
C894 H864 0.950 . S
C894 C893 1.524 . S
C894 C895 1.415 . S
C895 H865 0.950 . S
C895 C890 1.363 . S
C895 C894 1.415 . S
H896 C893 0.999 . S
H897 C878 0.913 . S
H898 C916 0.951 . S
H899 C918 0.951 . S
H900 C920 0.950 . S
H901 C921 0.950 . S
H902 C923 0.950 . S
H903 C926 0.950 . S
H904 C927 0.950 . S
H905 C929 0.950 . S
H906 C930 0.950 . S
H907 C931 0.951 . S
H908 C933 0.951 . S
H909 C935 0.950 . S
H910 C936 0.950 . S
H911 C938 0.950 . S
H912 C941 0.950 . S
H913 C942 0.950 . S
H914 C944 0.950 . S
H915 C945 0.950 . S
C916 H898 0.951 . S
C916 C917 1.366 . S
C916 C918 1.388 . S
C917 C916 1.366 . S
C917 C921 1.385 . S
C918 H899 0.951 . S
C918 C916 1.388 . S
C918 C919 1.366 . S
C919 C918 1.366 . S
C919 C920 1.414 . S
C919 C922 1.499 . S
C920 H900 0.950 . S
C920 C919 1.414 . S
C920 C921 1.374 . S
C921 H901 0.950 . S
C921 C917 1.385 . S
C921 C920 1.374 . S
C922 C919 1.499 . S
C922 C923 1.373 . S
C922 C924 1.389 . S
C923 H902 0.950 . S
C923 C922 1.373 . S
C923 C939 1.377 . S
C924 C922 1.389 . S
C924 C925 1.524 . S
C924 C938 1.377 . S
C925 C924 1.524 . S
C925 C926 1.397 . S
C925 C930 1.363 . S
C926 H903 0.950 . S
C926 C925 1.397 . S
C926 C927 1.334 . S
C927 H904 0.950 . S
C927 C926 1.334 . S
C927 C928 1.287 . S
C928 C927 1.287 . S
C928 C929 1.524 . S
C928 H947 0.913 . S
C929 H905 0.950 . S
C929 C928 1.524 . S
C929 C930 1.415 . S
C930 H906 0.950 . S
C930 C925 1.363 . S
C930 C929 1.415 . S
C931 H907 0.951 . S
C931 C932 1.366 . S
C931 C933 1.388 . S
C932 C931 1.366 . S
C932 C936 1.385 . S
C933 H908 0.951 . S
C933 C931 1.388 . S
C933 C934 1.366 . S
C934 C933 1.366 . S
C934 C935 1.414 . S
C934 C937 1.499 . S
C935 H909 0.950 . S
C935 C934 1.414 . S
C935 C936 1.374 . S
C936 H910 0.950 . S
C936 C932 1.385 . S
C936 C935 1.374 . S
C937 C934 1.499 . S
C937 C938 1.373 . S
C937 C939 1.389 . S
C938 H911 0.950 . S
C938 C924 1.377 . S
C938 C937 1.373 . S
C939 C923 1.377 . S
C939 C937 1.389 . S
C939 C940 1.524 . S
C940 C939 1.524 . S
C940 C941 1.397 . S
C940 C945 1.363 . S
C941 H912 0.950 . S
C941 C940 1.397 . S
C941 C942 1.334 . S
C942 H913 0.950 . S
C942 C941 1.334 . S
C942 C943 1.287 . S
C943 C942 1.287 . S
C943 C944 1.524 . S
C943 H946 0.999 . S
C944 H914 0.950 . S
C944 C943 1.524 . S
C944 C945 1.415 . S
C945 H915 0.950 . S
C945 C940 1.363 . S
C945 C944 1.415 . S
H946 C943 0.999 . S
H947 C928 0.913 . S
H948 C966 0.951 . S
H949 C968 0.951 . S
H950 C970 0.950 . S
H951 C971 0.950 . S
H952 C973 0.950 . S
H953 C976 0.950 . S
H954 C977 0.950 . S
H955 C979 0.950 . S
H956 C980 0.950 . S
H957 C981 0.951 . S
H958 C983 0.951 . S
H959 C985 0.950 . S
H960 C986 0.950 . S
H961 C988 0.950 . S
H962 C991 0.950 . S
H963 C992 0.950 . S
H964 C994 0.950 . S
H965 C995 0.950 . S
C966 H948 0.951 . S
C966 C967 1.366 . S
C966 C968 1.388 . S
C967 C966 1.366 . S
C967 C971 1.385 . S
C968 H949 0.951 . S
C968 C966 1.388 . S
C968 C969 1.366 . S
C969 C968 1.366 . S
C969 C970 1.414 . S
C969 C972 1.499 . S
C970 H950 0.950 . S
C970 C969 1.414 . S
C970 C971 1.374 . S
C971 H951 0.950 . S
C971 C967 1.385 . S
C971 C970 1.374 . S
C972 C969 1.499 . S
C972 C973 1.373 . S
C972 C974 1.389 . S
C973 H952 0.950 . S
C973 C972 1.373 . S
C973 C989 1.377 . S
C974 C972 1.389 . S
C974 C975 1.524 . S
C974 C988 1.377 . S
C975 C974 1.524 . S
C975 C976 1.397 . S
C975 C980 1.363 . S
C976 H953 0.950 . S
C976 C975 1.397 . S
C976 C977 1.334 . S
C977 H954 0.950 . S
C977 C976 1.334 . S
C977 C978 1.287 . S
C978 C977 1.287 . S
C978 C979 1.524 . S
C978 H997 0.913 . S
C979 H955 0.950 . S
C979 C978 1.524 . S
C979 C980 1.415 . S
C980 H956 0.950 . S
C980 C975 1.363 . S
C980 C979 1.415 . S
C981 H957 0.951 . S
C981 C982 1.366 . S
C981 C983 1.388 . S
C982 C981 1.366 . S
C982 C986 1.385 . S
C983 H958 0.951 . S
C983 C981 1.388 . S
C983 C984 1.366 . S
C984 C983 1.366 . S
C984 C985 1.414 . S
C984 C987 1.499 . S
C985 H959 0.950 . S
C985 C984 1.414 . S
C985 C986 1.374 . S
C986 H960 0.950 . S
C986 C982 1.385 . S
C986 C985 1.374 . S
C987 C984 1.499 . S
C987 C988 1.373 . S
C987 C989 1.389 . S
C988 H961 0.950 . S
C988 C974 1.377 . S
C988 C987 1.373 . S
C989 C973 1.377 . S
C989 C987 1.389 . S
C989 C990 1.524 . S
C990 C989 1.524 . S
C990 C991 1.397 . S
C990 C995 1.363 . S
C991 H962 0.950 . S
C991 C990 1.397 . S
C991 C992 1.334 . S
C992 H963 0.950 . S
C992 C991 1.334 . S
C992 C993 1.287 . S
C993 C992 1.287 . S
C993 C994 1.524 . S
C993 H996 0.999 . S
C994 H964 0.950 . S
C994 C993 1.524 . S
C994 C995 1.415 . S
C995 H965 0.950 . S
C995 C990 1.363 . S
C995 C994 1.415 . S
H996 C993 0.999 . S
H997 C978 0.913 . S
H998 C1016 0.951 . S
H999 C1018 0.951 . S
H1000 C1020 0.950 . S
H1001 C1021 0.950 . S
H1002 C1023 0.950 . S
H1003 C1026 0.950 . S
H1004 C1027 0.950 . S
H1005 C1029 0.950 . S
H1006 C1030 0.950 . S
H1007 C1031 0.951 . S
H1008 C1033 0.951 . S
H1009 C1035 0.950 . S
H1010 C1036 0.950 . S
H1011 C1038 0.950 . S
H1012 C1041 0.950 . S
H1013 C1042 0.950 . S
H1014 C1044 0.950 . S
H1015 C1045 0.950 . S
C1016 H998 0.951 . S
C1016 C1017 1.366 . S
C1016 C1018 1.388 . S
C1017 C1016 1.366 . S
C1017 C1021 1.385 . S
C1018 H999 0.951 . S
C1018 C1016 1.388 . S
C1018 C1019 1.366 . S
C1019 C1018 1.366 . S
C1019 C1020 1.414 . S
C1019 C1022 1.499 . S
C1020 H1000 0.950 . S
C1020 C1019 1.414 . S
C1020 C1021 1.374 . S
C1021 H1001 0.950 . S
C1021 C1017 1.385 . S
C1021 C1020 1.374 . S
C1022 C1019 1.499 . S
C1022 C1023 1.373 . S
C1022 C1024 1.389 . S
C1023 H1002 0.950 . S
C1023 C1022 1.373 . S
C1023 C1039 1.377 . S
C1024 C1022 1.389 . S
C1024 C1025 1.524 . S
C1024 C1038 1.377 . S
C1025 C1024 1.524 . S
C1025 C1026 1.397 . S
C1025 C1030 1.363 . S
C1026 H1003 0.950 . S
C1026 C1025 1.397 . S
C1026 C1027 1.334 . S
C1027 H1004 0.950 . S
C1027 C1026 1.334 . S
C1027 C1028 1.287 . S
C1028 C1027 1.287 . S
C1028 C1029 1.524 . S
C1028 H1047 0.913 . S
C1029 H1005 0.950 . S
C1029 C1028 1.524 . S
C1029 C1030 1.415 . S
C1030 H1006 0.950 . S
C1030 C1025 1.363 . S
C1030 C1029 1.415 . S
C1031 H1007 0.951 . S
C1031 C1032 1.366 . S
C1031 C1033 1.388 . S
C1032 C1031 1.366 . S
C1032 C1036 1.385 . S
C1033 H1008 0.951 . S
C1033 C1031 1.388 . S
C1033 C1034 1.366 . S
C1034 C1033 1.366 . S
C1034 C1035 1.414 . S
C1034 C1037 1.499 . S
C1035 H1009 0.950 . S
C1035 C1034 1.414 . S
C1035 C1036 1.374 . S
C1036 H1010 0.950 . S
C1036 C1032 1.385 . S
C1036 C1035 1.374 . S
C1037 C1034 1.499 . S
C1037 C1038 1.373 . S
C1037 C1039 1.389 . S
C1038 H1011 0.950 . S
C1038 C1024 1.377 . S
C1038 C1037 1.373 . S
C1039 C1023 1.377 . S
C1039 C1037 1.389 . S
C1039 C1040 1.524 . S
C1040 C1039 1.524 . S
C1040 C1041 1.397 . S
C1040 C1045 1.363 . S
C1041 H1012 0.950 . S
C1041 C1040 1.397 . S
C1041 C1042 1.334 . S
C1042 H1013 0.950 . S
C1042 C1041 1.334 . S
C1042 C1043 1.287 . S
C1043 C1042 1.287 . S
C1043 C1044 1.524 . S
C1043 H1046 0.999 . S
C1044 H1014 0.950 . S
C1044 C1043 1.524 . S
C1044 C1045 1.415 . S
C1045 H1015 0.950 . S
C1045 C1040 1.363 . S
C1045 C1044 1.415 . S
H1046 C1043 0.999 . S
H1047 C1028 0.913 . S
H1048 C1066 0.951 . S
H1049 C1068 0.951 . S
H1050 C1070 0.985 . S
H1051 C1071 0.950 . S
H1052 C1073 0.950 . S
H1053 C1076 0.950 . S
H1054 C1077 0.950 . S
H1055 C1079 0.950 . S
H1056 C1080 0.950 . S
H1057 C1081 0.951 . S
H1058 C1083 0.951 . S
H1059 C1085 0.950 . S
H1060 C1086 0.950 . S
H1061 C1088 0.950 . S
H1062 C1091 0.950 . S
H1063 C1092 0.950 1_556 S
H1064 C1094 0.950 . S
H1065 C1095 0.950 . S
C1066 H1048 0.951 . S
C1066 C1067 1.366 . S
C1066 C1068 1.388 . S
C1067 C1066 1.366 . S
C1067 C1071 1.385 . S
C1068 H1049 0.951 . S
C1068 C1066 1.388 . S
C1068 C1069 1.366 . S
C1069 C1068 1.366 . S
C1069 C1070 1.414 . S
C1069 C1072 1.499 . S
C1070 H1050 0.985 . S
C1070 C1069 1.414 . S
C1070 C1071 1.374 . S
C1071 H1051 0.950 . S
C1071 C1067 1.385 . S
C1071 C1070 1.374 . S
C1072 C1069 1.499 . S
C1072 C1073 1.373 . S
C1072 C1074 1.389 . S
C1073 H1052 0.950 . S
C1073 C1072 1.373 . S
C1073 C1089 1.377 . S
C1074 C1072 1.389 . S
C1074 C1075 1.524 . S
C1074 C1088 1.377 . S
C1075 C1074 1.524 . S
C1075 C1076 1.397 . S
C1075 C1080 1.363 . S
C1076 H1053 0.950 . S
C1076 C1075 1.397 . S
C1076 C1077 1.334 1_565 S
C1077 H1054 0.950 . S
C1077 C1076 1.334 1_545 S
C1077 C1078 1.287 . S
C1078 C1077 1.287 . S
C1078 C1079 1.524 . S
C1078 H1097 0.913 . S
C1079 H1055 0.950 . S
C1079 C1078 1.524 . S
C1079 C1080 1.415 1_545 S
C1080 H1056 0.950 . S
C1080 C1075 1.363 . S
C1080 C1079 1.415 1_565 S
C1081 H1057 0.951 . S
C1081 C1082 1.366 . S
C1081 C1083 1.388 . S
C1082 C1081 1.366 . S
C1082 C1086 1.385 1_554 S
C1083 H1058 0.951 . S
C1083 C1081 1.388 . S
C1083 C1084 1.334 1_554 S
C1084 C1083 1.334 1_556 S
C1084 C1085 1.432 . S
C1084 C1087 1.513 . S
C1085 H1059 0.950 . S
C1085 C1084 1.432 . S
C1085 C1086 1.374 . S
C1086 H1060 0.950 . S
C1086 C1082 1.385 1_556 S
C1086 C1085 1.374 . S
C1087 C1084 1.513 . S
C1087 C1088 1.373 . S
C1087 C1089 1.389 . S
C1088 H1061 0.950 . S
C1088 C1074 1.377 . S
C1088 C1087 1.373 . S
C1089 C1073 1.377 . S
C1089 C1087 1.389 . S
C1089 C1090 1.524 1_556 S
C1090 C1089 1.524 1_554 S
C1090 C1091 1.397 1_554 S
C1090 C1095 1.363 . S
C1091 H1062 0.950 . S
C1091 C1090 1.397 1_556 S
C1091 C1092 1.334 1_556 S
C1092 H1063 0.950 1_554 S
C1092 C1091 1.334 1_554 S
C1092 C1093 1.287 . S
C1093 C1092 1.287 . S
C1093 C1094 1.524 . S
C1093 H1096 0.999 . S
C1094 H1064 0.950 . S
C1094 C1093 1.524 . S
C1094 C1095 1.415 . S
C1095 H1065 0.950 . S
C1095 C1090 1.363 . S
C1095 C1094 1.415 . S
H1096 C1093 0.999 . S
H1097 C1078 0.913 . S
H1098 C1116 0.951 . S
H1099 C1118 0.951 . S
H1100 C1120 0.950 . S
H1101 C1121 0.950 . S
H1102 C1123 0.950 . S
H1103 C1126 0.950 . S
H1104 C1127 0.950 . S
H1105 C1129 0.950 . S
H1106 C1130 0.950 . S
H1107 C1131 0.951 . S
H1108 C1133 0.951 . S
H1109 C1135 0.950 . S
H1110 C1136 0.950 . S
H1111 C1138 0.950 . S
H1112 C1141 0.950 . S
H1113 C1142 0.950 . S
H1114 C1144 0.950 . S
H1115 C1145 0.950 . S
C1116 H1098 0.951 . S
C1116 C1117 1.366 . S
C1116 C1118 1.388 . S
C1117 C1116 1.366 . S
C1117 C1121 1.385 . S
C1118 H1099 0.951 . S
C1118 C1116 1.388 . S
C1118 C1119 1.366 . S
C1119 C1118 1.366 . S
C1119 C1120 1.414 . S
C1119 C1122 1.499 . S
C1120 H1100 0.950 . S
C1120 C1119 1.414 . S
C1120 C1121 1.374 . S
C1121 H1101 0.950 . S
C1121 C1117 1.385 . S
C1121 C1120 1.374 . S
C1122 C1119 1.499 . S
C1122 C1123 1.373 . S
C1122 C1124 1.389 . S
C1123 H1102 0.950 . S
C1123 C1122 1.373 . S
C1123 C1139 1.377 . S
C1124 C1122 1.389 . S
C1124 C1125 1.524 . S
C1124 C1138 1.377 . S
C1125 C1124 1.524 . S
C1125 C1126 1.397 . S
C1125 C1130 1.363 . S
C1126 H1103 0.950 . S
C1126 C1125 1.397 . S
C1126 C1127 1.334 . S
C1127 H1104 0.950 . S
C1127 C1126 1.334 . S
C1127 C1128 1.287 . S
C1128 C1127 1.287 . S
C1128 C1129 1.524 . S
C1128 H1147 0.913 . S
C1129 H1105 0.950 . S
C1129 C1128 1.524 . S
C1129 C1130 1.415 . S
C1130 H1106 0.950 . S
C1130 C1125 1.363 . S
C1130 C1129 1.415 . S
C1131 H1107 0.951 . S
C1131 C1132 1.366 . S
C1131 C1133 1.388 . S
C1132 C1131 1.366 . S
C1132 C1136 1.385 . S
C1133 H1108 0.951 . S
C1133 C1131 1.388 . S
C1133 C1134 1.366 . S
C1134 C1133 1.366 . S
C1134 C1135 1.414 . S
C1134 C1137 1.499 . S
C1135 H1109 0.950 . S
C1135 C1134 1.414 . S
C1135 C1136 1.374 . S
C1136 H1110 0.950 . S
C1136 C1132 1.385 . S
C1136 C1135 1.374 . S
C1137 C1134 1.499 . S
C1137 C1138 1.373 . S
C1137 C1139 1.389 . S
C1138 H1111 0.950 . S
C1138 C1124 1.377 . S
C1138 C1137 1.373 . S
C1139 C1123 1.377 . S
C1139 C1137 1.389 . S
C1139 C1140 1.524 . S
C1140 C1139 1.524 . S
C1140 C1141 1.397 . S
C1140 C1145 1.363 . S
C1141 H1112 0.950 . S
C1141 C1140 1.397 . S
C1141 C1142 1.334 . S
C1142 H1113 0.950 . S
C1142 C1141 1.334 . S
C1142 C1143 1.287 . S
C1143 C1142 1.287 . S
C1143 C1144 1.524 . S
C1143 H1146 0.999 . S
C1144 H1114 0.950 . S
C1144 C1143 1.524 . S
C1144 C1145 1.415 . S
C1145 H1115 0.950 . S
C1145 C1140 1.363 . S
C1145 C1144 1.415 . S
H1146 C1143 0.999 . S
H1147 C1128 0.913 . S
H1148 C1166 0.951 . S
H1149 C1168 0.951 . S
H1150 C1170 0.950 . S
H1151 C1171 0.950 . S
H1152 C1173 0.950 . S
H1153 C1176 0.950 . S
H1154 C1177 0.950 . S
H1155 C1179 0.950 . S
H1156 C1180 0.950 . S
H1157 C1181 0.951 . S
H1158 C1183 0.951 . S
H1159 C1185 0.950 . S
H1160 C1186 0.950 . S
H1161 C1188 0.950 . S
H1162 C1191 0.950 . S
H1163 C1192 0.950 . S
H1164 C1194 0.950 . S
H1165 C1195 0.950 . S
C1166 H1148 0.951 . S
C1166 C1167 1.366 . S
C1166 C1168 1.388 . S
C1167 C1166 1.366 . S
C1167 C1171 1.385 . S
C1168 H1149 0.951 . S
C1168 C1166 1.388 . S
C1168 C1169 1.366 . S
C1169 C1168 1.366 . S
C1169 C1170 1.414 . S
C1169 C1172 1.499 . S
C1170 H1150 0.950 . S
C1170 C1169 1.414 . S
C1170 C1171 1.374 . S
C1171 H1151 0.950 . S
C1171 C1167 1.385 . S
C1171 C1170 1.374 . S
C1172 C1169 1.499 . S
C1172 C1173 1.373 . S
C1172 C1174 1.389 . S
C1173 H1152 0.950 . S
C1173 C1172 1.373 . S
C1173 C1189 1.377 . S
C1174 C1172 1.389 . S
C1174 C1175 1.524 . S
C1174 C1188 1.377 . S
C1175 C1174 1.524 . S
C1175 C1176 1.397 . S
C1175 C1180 1.363 . S
C1176 H1153 0.950 . S
C1176 C1175 1.397 . S
C1176 C1177 1.334 . S
C1177 H1154 0.950 . S
C1177 C1176 1.334 . S
C1177 C1178 1.287 . S
C1178 C1177 1.287 . S
C1178 C1179 1.524 . S
C1178 H1197 0.913 . S
C1179 H1155 0.950 . S
C1179 C1178 1.524 . S
C1179 C1180 1.415 . S
C1180 H1156 0.950 . S
C1180 C1175 1.363 . S
C1180 C1179 1.415 . S
C1181 H1157 0.951 . S
C1181 C1182 1.366 . S
C1181 C1183 1.388 . S
C1182 C1181 1.366 . S
C1182 C1186 1.385 . S
C1183 H1158 0.951 . S
C1183 C1181 1.388 . S
C1183 C1184 1.366 . S
C1184 C1183 1.366 . S
C1184 C1185 1.414 . S
C1184 C1187 1.499 . S
C1185 H1159 0.950 . S
C1185 C1184 1.414 . S
C1185 C1186 1.374 . S
C1186 H1160 0.950 . S
C1186 C1182 1.385 . S
C1186 C1185 1.374 . S
C1187 C1184 1.499 . S
C1187 C1188 1.373 . S
C1187 C1189 1.389 . S
C1188 H1161 0.950 . S
C1188 C1174 1.377 . S
C1188 C1187 1.373 . S
C1189 C1173 1.377 . S
C1189 C1187 1.389 . S
C1189 C1190 1.524 . S
C1190 C1189 1.524 . S
C1190 C1191 1.397 . S
C1190 C1195 1.363 . S
C1191 H1162 0.950 . S
C1191 C1190 1.397 . S
C1191 C1192 1.334 . S
C1192 H1163 0.950 . S
C1192 C1191 1.334 . S
C1192 C1193 1.287 . S
C1193 C1192 1.287 . S
C1193 C1194 1.524 . S
C1193 H1196 0.999 . S
C1194 H1164 0.950 . S
C1194 C1193 1.524 . S
C1194 C1195 1.415 . S
C1195 H1165 0.950 . S
C1195 C1190 1.363 . S
C1195 C1194 1.415 . S
H1196 C1193 0.999 . S
H1197 C1178 0.913 . S
H1198 C1216 0.951 . S
H1199 C1218 0.951 . S
H1200 C1220 0.950 . S
H1201 C1221 0.950 . S
H1202 C1223 0.950 . S
H1203 C1226 0.950 . S
H1204 C1227 0.950 . S
H1205 C1229 0.950 . S
H1206 C1230 0.950 . S
H1207 C1231 0.951 . S
H1208 C1233 0.951 . S
H1209 C1235 0.950 . S
H1210 C1236 0.950 . S
H1211 C1238 0.950 . S
H1212 C1241 0.950 . S
H1213 C1242 0.950 . S
H1214 C1244 0.950 . S
H1215 C1245 0.950 . S
C1216 H1198 0.951 . S
C1216 C1217 1.366 . S
C1216 C1218 1.388 . S
C1217 C1216 1.366 . S
C1217 C1221 1.385 . S
C1218 H1199 0.951 . S
C1218 C1216 1.388 . S
C1218 C1219 1.366 . S
C1219 C1218 1.366 . S
C1219 C1220 1.414 . S
C1219 C1222 1.499 . S
C1220 H1200 0.950 . S
C1220 C1219 1.414 . S
C1220 C1221 1.374 . S
C1221 H1201 0.950 . S
C1221 C1217 1.385 . S
C1221 C1220 1.374 . S
C1222 C1219 1.499 . S
C1222 C1223 1.373 . S
C1222 C1224 1.389 . S
C1223 H1202 0.950 . S
C1223 C1222 1.373 . S
C1223 C1239 1.377 . S
C1224 C1222 1.389 . S
C1224 C1225 1.524 . S
C1224 C1238 1.377 . S
C1225 C1224 1.524 . S
C1225 C1226 1.397 . S
C1225 C1230 1.363 . S
C1226 H1203 0.950 . S
C1226 C1225 1.397 . S
C1226 C1227 1.334 . S
C1227 H1204 0.950 . S
C1227 C1226 1.334 . S
C1227 C1228 1.287 . S
C1228 C1227 1.287 . S
C1228 C1229 1.524 . S
C1228 H1247 0.913 . S
C1229 H1205 0.950 . S
C1229 C1228 1.524 . S
C1229 C1230 1.415 . S
C1230 H1206 0.950 . S
C1230 C1225 1.363 . S
C1230 C1229 1.415 . S
C1231 H1207 0.951 . S
C1231 C1232 1.366 . S
C1231 C1233 1.388 . S
C1232 C1231 1.366 . S
C1232 C1236 1.385 . S
C1233 H1208 0.951 . S
C1233 C1231 1.388 . S
C1233 C1234 1.366 . S
C1234 C1233 1.366 . S
C1234 C1235 1.414 . S
C1234 C1237 1.499 . S
C1235 H1209 0.950 . S
C1235 C1234 1.414 . S
C1235 C1236 1.374 . S
C1236 H1210 0.950 . S
C1236 C1232 1.385 . S
C1236 C1235 1.374 . S
C1237 C1234 1.499 . S
C1237 C1238 1.373 . S
C1237 C1239 1.389 . S
C1238 H1211 0.950 . S
C1238 C1224 1.377 . S
C1238 C1237 1.373 . S
C1239 C1223 1.377 . S
C1239 C1237 1.389 . S
C1239 C1240 1.524 . S
C1240 C1239 1.524 . S
C1240 C1241 1.397 . S
C1240 C1245 1.363 . S
C1241 H1212 0.950 . S
C1241 C1240 1.397 . S
C1241 C1242 1.334 . S
C1242 H1213 0.950 . S
C1242 C1241 1.334 . S
C1242 C1243 1.287 . S
C1243 C1242 1.287 . S
C1243 C1244 1.524 . S
C1243 H1246 0.999 . S
C1244 H1214 0.950 . S
C1244 C1243 1.524 . S
C1244 C1245 1.415 . S
C1245 H1215 0.950 . S
C1245 C1240 1.363 . S
C1245 C1244 1.415 . S
H1246 C1243 0.999 . S
H1247 C1228 0.913 . S
H1248 C1266 0.951 . S
H1249 C1268 0.951 . S
H1250 C1270 0.950 . S
H1251 C1271 0.950 . S
H1252 C1273 0.950 . S
H1253 C1276 0.950 . S
H1254 C1277 0.950 . S
H1255 C1279 0.950 . S
H1256 C1280 0.950 . S
H1257 C1281 0.951 . S
H1258 C1283 0.928 1_554 S
H1259 C1285 0.950 . S
H1260 C1286 0.950 . S
H1261 C1288 0.950 . S
H1262 C1291 0.950 . S
H1263 C1292 0.950 . S
H1264 C1294 0.954 . S
H1265 C1295 0.950 . S
C1266 H1248 0.951 . S
C1266 C1267 1.366 . S
C1266 C1268 1.388 . S
C1267 C1266 1.366 . S
C1267 C1271 1.385 . S
C1268 H1249 0.951 . S
C1268 C1266 1.388 . S
C1268 C1269 1.366 . S
C1269 C1268 1.366 . S
C1269 C1270 1.414 . S
C1269 C1272 1.499 . S
C1270 H1250 0.950 . S
C1270 C1269 1.414 . S
C1270 C1271 1.374 . S
C1271 H1251 0.950 . S
C1271 C1267 1.385 . S
C1271 C1270 1.374 . S
C1272 C1269 1.499 . S
C1272 C1273 1.373 . S
C1272 C1274 1.389 . S
C1273 H1252 0.950 . S
C1273 C1272 1.373 . S
C1273 C1289 1.377 . S
C1274 C1272 1.389 . S
C1274 C1275 1.524 . S
C1274 C1288 1.377 . S
C1275 C1274 1.524 . S
C1275 C1276 1.397 . S
C1275 C1280 1.363 . S
C1276 H1253 0.950 . S
C1276 C1275 1.397 . S
C1276 C1277 1.334 . S
C1277 H1254 0.950 . S
C1277 C1276 1.334 . S
C1277 C1278 1.287 . S
C1278 C1277 1.287 . S
C1278 C1279 1.524 . S
C1278 H1297 0.913 . S
C1279 H1255 0.950 . S
C1279 C1278 1.524 . S
C1279 C1280 1.415 . S
C1280 H1256 0.950 . S
C1280 C1275 1.363 . S
C1280 C1279 1.415 . S
C1281 H1257 0.951 . S
C1281 C1282 1.366 1_554 S
C1281 C1283 1.380 1_554 S
C1282 C1281 1.366 1_556 S
C1282 C1286 1.385 . S
C1283 H1258 0.928 1_556 S
C1283 C1281 1.380 1_556 S
C1283 C1284 1.396 . S
C1284 C1283 1.396 . S
C1284 C1285 1.414 . S
C1284 C1287 1.499 . S
C1285 H1259 0.950 . S
C1285 C1284 1.414 . S
C1285 C1286 1.374 . S
C1286 H1260 0.950 . S
C1286 C1282 1.385 . S
C1286 C1285 1.374 . S
C1287 C1284 1.499 . S
C1287 C1288 1.373 . S
C1287 C1289 1.389 . S
C1288 H1261 0.950 . S
C1288 C1274 1.377 . S
C1288 C1287 1.373 . S
C1289 C1273 1.377 . S
C1289 C1287 1.389 . S
C1289 C1290 1.524 . S
C1290 C1289 1.524 . S
C1290 C1291 1.397 1_655 S
C1290 C1295 1.363 1_556 S
C1291 H1262 0.950 . S
C1291 C1290 1.397 1_455 S
C1291 C1292 1.334 1_556 S
C1292 H1263 0.950 . S
C1292 C1291 1.334 1_554 S
C1292 C1293 1.287 . S
C1293 C1292 1.287 . S
C1293 C1294 1.524 . S
C1293 H1296 0.999 . S
C1294 H1264 0.954 . S
C1294 C1293 1.524 . S
C1294 C1295 1.415 1_455 S
C1295 H1265 0.950 . S
C1295 C1290 1.363 1_554 S
C1295 C1294 1.415 1_655 S
H1296 C1293 0.999 . S
H1297 C1278 0.913 . S
H1298 C1316 0.951 . S
H1299 C1318 0.951 . S
H1300 C1320 0.950 . S
H1301 C1321 0.950 . S
H1302 C1323 0.950 . S
H1303 C1326 0.950 . S
H1304 C1327 0.950 . S
H1305 C1329 0.950 . S
H1306 C1330 0.950 . S
H1307 C1331 0.951 . S
H1308 C1333 0.951 . S
H1309 C1335 0.950 . S
H1310 C1336 0.950 . S
H1311 C1338 0.950 . S
H1312 C1341 0.950 . S
H1313 C1342 0.950 . S
H1314 C1344 0.950 . S
H1315 C1345 0.950 . S
C1316 H1298 0.951 . S
C1316 C1317 1.366 . S
C1316 C1318 1.388 . S
C1317 C1316 1.366 . S
C1317 C1321 1.385 . S
C1318 H1299 0.951 . S
C1318 C1316 1.388 . S
C1318 C1319 1.366 . S
C1319 C1318 1.366 . S
C1319 C1320 1.414 . S
C1319 C1322 1.499 . S
C1320 H1300 0.950 . S
C1320 C1319 1.414 . S
C1320 C1321 1.374 . S
C1321 H1301 0.950 . S
C1321 C1317 1.385 . S
C1321 C1320 1.374 . S
C1322 C1319 1.499 . S
C1322 C1323 1.373 . S
C1322 C1324 1.389 . S
C1323 H1302 0.950 . S
C1323 C1322 1.373 . S
C1323 C1339 1.377 . S
C1324 C1322 1.389 . S
C1324 C1325 1.524 . S
C1324 C1338 1.377 . S
C1325 C1324 1.524 . S
C1325 C1326 1.397 . S
C1325 C1330 1.363 . S
C1326 H1303 0.950 . S
C1326 C1325 1.397 . S
C1326 C1327 1.334 . S
C1327 H1304 0.950 . S
C1327 C1326 1.334 . S
C1327 C1328 1.287 . S
C1328 C1327 1.287 . S
C1328 C1329 1.524 . S
C1328 H1347 0.913 . S
C1329 H1305 0.950 . S
C1329 C1328 1.524 . S
C1329 C1330 1.415 . S
C1330 H1306 0.950 . S
C1330 C1325 1.363 . S
C1330 C1329 1.415 . S
C1331 H1307 0.951 . S
C1331 C1332 1.366 . S
C1331 C1333 1.388 . S
C1332 C1331 1.366 . S
C1332 C1336 1.385 . S
C1333 H1308 0.951 . S
C1333 C1331 1.388 . S
C1333 C1334 1.366 . S
C1334 C1333 1.366 . S
C1334 C1335 1.414 . S
C1334 C1337 1.499 . S
C1335 H1309 0.950 . S
C1335 C1334 1.414 . S
C1335 C1336 1.374 . S
C1336 H1310 0.950 . S
C1336 C1332 1.385 . S
C1336 C1335 1.374 . S
C1337 C1334 1.499 . S
C1337 C1338 1.373 . S
C1337 C1339 1.389 . S
C1338 H1311 0.950 . S
C1338 C1324 1.377 . S
C1338 C1337 1.373 . S
C1339 C1323 1.377 . S
C1339 C1337 1.389 . S
C1339 C1340 1.524 . S
C1340 C1339 1.524 . S
C1340 C1341 1.397 . S
C1340 C1345 1.363 . S
C1341 H1312 0.950 . S
C1341 C1340 1.397 . S
C1341 C1342 1.334 . S
C1342 H1313 0.950 . S
C1342 C1341 1.334 . S
C1342 C1343 1.287 . S
C1343 C1342 1.287 . S
C1343 C1344 1.524 . S
C1343 H1346 0.999 . S
C1344 H1314 0.950 . S
C1344 C1343 1.524 . S
C1344 C1345 1.415 . S
C1345 H1315 0.950 . S
C1345 C1340 1.363 . S
C1345 C1344 1.415 . S
H1346 C1343 0.999 . S
H1347 C1328 0.913 . S
H1348 C1366 0.951 . S
H1349 C1368 0.951 . S
H1350 C1370 0.950 . S
H1351 C1371 0.950 . S
H1352 C1373 0.950 . S
H1353 C1376 0.950 . S
H1354 C1377 0.950 . S
H1355 C1379 0.950 . S
H1356 C1380 0.950 . S
H1357 C1381 0.951 . S
H1358 C1383 0.951 . S
H1359 C1385 0.950 . S
H1360 C1386 0.950 . S
H1361 C1388 0.950 . S
H1362 C1391 0.950 . S
H1363 C1392 0.957 . S
H1364 C1394 0.950 . S
H1365 C1395 0.950 . S
C1366 H1348 0.951 . S
C1366 C1367 1.366 . S
C1366 C1368 1.388 . S
C1367 C1366 1.366 . S
C1367 C1371 1.385 . S
C1368 H1349 0.951 . S
C1368 C1366 1.388 . S
C1368 C1369 1.366 . S
C1369 C1368 1.366 . S
C1369 C1370 1.414 . S
C1369 C1372 1.499 . S
C1370 H1350 0.950 . S
C1370 C1369 1.414 . S
C1370 C1371 1.374 . S
C1371 H1351 0.950 . S
C1371 C1367 1.385 . S
C1371 C1370 1.374 . S
C1372 C1369 1.499 . S
C1372 C1373 1.373 . S
C1372 C1374 1.389 . S
C1373 H1352 0.950 . S
C1373 C1372 1.373 . S
C1373 C1389 1.377 . S
C1374 C1372 1.389 . S
C1374 C1375 1.524 . S
C1374 C1388 1.377 . S
C1375 C1374 1.524 . S
C1375 C1376 1.397 . S
C1375 C1380 1.363 . S
C1376 H1353 0.950 . S
C1376 C1375 1.397 . S
C1376 C1377 1.334 . S
C1377 H1354 0.950 . S
C1377 C1376 1.334 . S
C1377 C1378 1.287 . S
C1378 C1377 1.287 . S
C1378 C1379 1.524 . S
C1378 H1397 0.913 . S
C1379 H1355 0.950 . S
C1379 C1378 1.524 . S
C1379 C1380 1.415 . S
C1380 H1356 0.950 . S
C1380 C1375 1.363 . S
C1380 C1379 1.415 . S
C1381 H1357 0.951 . S
C1381 C1382 1.366 . S
C1381 C1383 1.388 . S
C1382 C1381 1.366 . S
C1382 C1386 1.385 . S
C1383 H1358 0.951 . S
C1383 C1381 1.388 . S
C1383 C1384 1.366 . S
C1384 C1383 1.366 . S
C1384 C1385 1.414 . S
C1384 C1387 1.499 . S
C1385 H1359 0.950 . S
C1385 C1384 1.414 . S
C1385 C1386 1.374 . S
C1386 H1360 0.950 . S
C1386 C1382 1.385 . S
C1386 C1385 1.374 . S
C1387 C1384 1.499 . S
C1387 C1388 1.373 . S
C1387 C1389 1.389 . S
C1388 H1361 0.950 . S
C1388 C1374 1.377 . S
C1388 C1387 1.373 . S
C1389 C1373 1.377 . S
C1389 C1387 1.389 . S
C1389 C1390 1.524 . S
C1390 C1389 1.524 . S
C1390 C1391 1.397 . S
C1390 C1395 1.363 . S
C1391 H1362 0.950 . S
C1391 C1390 1.397 . S
C1391 C1392 1.311 1_455 S
C1392 H1363 0.957 . S
C1392 C1391 1.311 1_655 S
C1392 C1393 1.304 . S
C1393 C1392 1.304 . S
C1393 C1394 1.524 . S
C1393 H1396 0.999 . S
C1394 H1364 0.950 . S
C1394 C1393 1.524 . S
C1394 C1395 1.415 1_655 S
C1395 H1365 0.950 . S
C1395 C1390 1.363 . S
C1395 C1394 1.415 1_455 S
H1396 C1393 0.999 . S
H1397 C1378 0.913 . S
H1398 C1416 0.951 . S
H1399 C1418 0.951 . S
H1400 C1420 0.950 . S
H1401 C1421 0.950 . S
H1402 C1423 0.950 . S
H1403 C1426 0.950 . S
H1404 C1427 0.950 . S
H1405 C1429 0.950 . S
H1406 C1430 0.950 . S
H1407 C1431 0.951 . S
H1408 C1433 0.951 . S
H1409 C1435 0.950 . S
H1410 C1436 0.950 . S
H1411 C1438 0.950 . S
H1412 C1441 0.950 . S
H1413 C1442 0.950 . S
H1414 C1444 0.950 . S
H1415 C1445 0.950 . S
C1416 H1398 0.951 . S
C1416 C1417 1.366 . S
C1416 C1418 1.388 . S
C1417 C1416 1.366 . S
C1417 C1421 1.385 . S
C1418 H1399 0.951 . S
C1418 C1416 1.388 . S
C1418 C1419 1.366 . S
C1419 C1418 1.366 . S
C1419 C1420 1.414 . S
C1419 C1422 1.499 . S
C1420 H1400 0.950 . S
C1420 C1419 1.414 . S
C1420 C1421 1.374 . S
C1421 H1401 0.950 . S
C1421 C1417 1.385 . S
C1421 C1420 1.374 . S
C1422 C1419 1.499 . S
C1422 C1423 1.373 . S
C1422 C1424 1.389 . S
C1423 H1402 0.950 . S
C1423 C1422 1.373 . S
C1423 C1439 1.377 . S
C1424 C1422 1.389 . S
C1424 C1425 1.524 . S
C1424 C1438 1.377 . S
C1425 C1424 1.524 . S
C1425 C1426 1.397 . S
C1425 C1430 1.363 . S
C1426 H1403 0.950 . S
C1426 C1425 1.397 . S
C1426 C1427 1.334 . S
C1427 H1404 0.950 . S
C1427 C1426 1.334 . S
C1427 C1428 1.287 . S
C1428 C1427 1.287 . S
C1428 C1429 1.524 . S
C1428 H1447 0.913 . S
C1429 H1405 0.950 . S
C1429 C1428 1.524 . S
C1429 C1430 1.415 . S
C1430 H1406 0.950 . S
C1430 C1425 1.363 . S
C1430 C1429 1.415 . S
C1431 H1407 0.951 . S
C1431 C1432 1.366 . S
C1431 C1433 1.388 . S
C1432 C1431 1.366 . S
C1432 C1436 1.385 . S
C1433 H1408 0.951 . S
C1433 C1431 1.388 . S
C1433 C1434 1.366 . S
C1434 C1433 1.366 . S
C1434 C1435 1.414 . S
C1434 C1437 1.499 . S
C1435 H1409 0.950 . S
C1435 C1434 1.414 . S
C1435 C1436 1.374 . S
C1436 H1410 0.950 . S
C1436 C1432 1.385 . S
C1436 C1435 1.374 . S
C1437 C1434 1.499 . S
C1437 C1438 1.373 . S
C1437 C1439 1.389 . S
C1438 H1411 0.950 . S
C1438 C1424 1.377 . S
C1438 C1437 1.373 . S
C1439 C1423 1.377 . S
C1439 C1437 1.389 . S
C1439 C1440 1.524 . S
C1440 C1439 1.524 . S
C1440 C1441 1.397 . S
C1440 C1445 1.363 . S
C1441 H1412 0.950 . S
C1441 C1440 1.397 . S
C1441 C1442 1.334 . S
C1442 H1413 0.950 . S
C1442 C1441 1.334 . S
C1442 C1443 1.287 . S
C1443 C1442 1.287 . S
C1443 C1444 1.524 . S
C1443 H1446 0.999 . S
C1444 H1414 0.950 . S
C1444 C1443 1.524 . S
C1444 C1445 1.415 . S
C1445 H1415 0.950 . S
C1445 C1440 1.363 . S
C1445 C1444 1.415 . S
H1446 C1443 0.999 . S
H1447 C1428 0.913 . S
C267 C4 3.126 . S
C282 C107 3.093 . S
C317 C16 2.512 . S
C332 C138 2.547 1_556 S
C382 C177 0.740 . S
C367 C32 0.736 . S
C417 C43 0.246 . S
C432 C214 0.310 . S
C482 C137 3.401 . S
C467 C5 3.465 . S
C532 C94 1.268 . S
C517 C21 1.257 . S
C582 C226 1.072 . S
C567 C27 1.088 . S
C632 C183 0.782 . S
C617 C37 0.782 . S
C667 C10 2.463 . S
C682 C227 2.460 . S
C732 C143 1.471 . S
C717 C26 1.475 . S
C767 C38 0.196 . S
C782 C106 0.404 . S
C817 C15 2.561 . S
C832 C178 2.590 . S
C882 C98 3.147 . S
C867 C48 3.186 . S
C917 C59 2.239 . S
C932 C147 2.270 . S
C967 C76 1.060 . S
C982 C186 1.034 . S
C1017 C87 0.307 . S
C1032 C223 0.247 . S
C1067 C54 2.794 . S
C1082 C146 2.695 1_565 S
C1132 C103 1.855 . S
C1117 C60 1.838 . S
C1182 C217 1.102 . S
C1167 C71 1.144 . S
C1232 C174 0.821 . S
C1217 C82 0.825 . S
C1267 C49 2.577 . S
C1282 C218 2.588 1_656 S
C1332 C134 1.209 . S
C1317 C70 1.214 . S
C1382 C97 0.650 . S
C1367 C81 0.632 . S
C1417 C65 2.396 . S
C1432 C187 2.422 . S
