# Generated by pormake.
# Topology anh, (6,3)-cn, num edge types: 1
# Building blocks:
#     Node 0, Type 0, BuildingBlock: MIFKUJ_clean_sbu_0, # of connection points: 6
#     Node 1, Type 0, BuildingBlock: MIFKUJ_clean_sbu_0, # of connection points: 6
#     Node 2, Type 0, BuildingBlock: MIFKUJ_clean_sbu_0, # of connection points: 6
#     Node 3, Type 1, BuildingBlock: KAKCAD_clean_linker_0, # of connection points: 3
#     Node 4, Type 1, BuildingBlock: KAKCAD_clean_linker_0, # of connection points: 3
#     Node 5, Type 1, BuildingBlock: KAKCAD_clean_linker_0, # of connection points: 3
#     Node 6, Type 1, BuildingBlock: KAKCAD_clean_linker_0, # of connection points: 3
#     Node 7, Type 1, BuildingBlock: KAKCAD_clean_linker_0, # of connection points: 3
#     Node 8, Type 1, BuildingBlock: KAKCAD_clean_linker_0, # of connection points: 3
#     Edge 9, Type (0, 1), BuildingBlock: UVAHIK_clean_linker_0, # of connection points: 2
#     Edge 10, Type (0, 1), BuildingBlock: UVAHIK_clean_linker_0, # of connection points: 2
#     Edge 11, Type (0, 1), BuildingBlock: UVAHIK_clean_linker_0, # of connection points: 2
#     Edge 12, Type (0, 1), BuildingBlock: UVAHIK_clean_linker_0, # of connection points: 2
#     Edge 13, Type (0, 1), BuildingBlock: UVAHIK_clean_linker_0, # of connection points: 2
#     Edge 14, Type (0, 1), BuildingBlock: UVAHIK_clean_linker_0, # of connection points: 2
#     Edge 15, Type (0, 1), BuildingBlock: UVAHIK_clean_linker_0, # of connection points: 2
#     Edge 16, Type (0, 1), BuildingBlock: UVAHIK_clean_linker_0, # of connection points: 2
#     Edge 17, Type (0, 1), BuildingBlock: UVAHIK_clean_linker_0, # of connection points: 2
#     Edge 18, Type (0, 1), BuildingBlock: UVAHIK_clean_linker_0, # of connection points: 2
#     Edge 19, Type (0, 1), BuildingBlock: UVAHIK_clean_linker_0, # of connection points: 2
#     Edge 20, Type (0, 1), BuildingBlock: UVAHIK_clean_linker_0, # of connection points: 2
#     Edge 21, Type (0, 1), BuildingBlock: UVAHIK_clean_linker_0, # of connection points: 2
#     Edge 22, Type (0, 1), BuildingBlock: UVAHIK_clean_linker_0, # of connection points: 2
#     Edge 23, Type (0, 1), BuildingBlock: UVAHIK_clean_linker_0, # of connection points: 2
#     Edge 24, Type (0, 1), BuildingBlock: UVAHIK_clean_linker_0, # of connection points: 2
#     Edge 25, Type (0, 1), BuildingBlock: UVAHIK_clean_linker_0, # of connection points: 2
#     Edge 26, Type (0, 1), BuildingBlock: UVAHIK_clean_linker_0, # of connection points: 2
# Relax obj value: 0.135
# Max RMSD: 0.182
# Mean RMSD: 0.140
data_MOF--net-anh--node1-MIFKUJ_clean_sbu_0--node2-KAKCAD_clean_linker_0--edge1-UVAHIK_clean_linker_0
_symmetry_space_group_name_H-M    P1
_symmetry_Int_Tables_number       1
_symmetry_cell_setting            triclinic
loop_
_symmetry_equiv_pos_as_xyz
'x, y, z'
_cell_length_a     45.582827
_cell_length_b     45.603892
_cell_length_c     79.52724
_cell_angle_alpha  93.865353
_cell_angle_beta   90.758792
_cell_angle_gamma 119.93812
loop_
_atom_site_label
_atom_site_type_symbol
_atom_site_fract_x
_atom_site_fract_y
_atom_site_fract_z
_atom_type_partial_charge
Zn0 Zn 0.03302 0.55902 0.16637 0.0
Zn1 Zn 0.96871 0.48525 0.16354 0.0
C2 C 0.08772 0.54819 0.17458 0.0
O3 O 0.08896 0.56738 0.18797 0.0
C4 C 0.91623 0.49822 0.15302 0.0
O5 O 0.91651 0.4799 0.13961 0.0
O6 O 0.06441 0.60907 0.16726 0.0
O7 O 0.00274 0.54831 0.14552 0.0
O8 O 0.99324 0.49627 0.14197 0.0
C9 C 0.07899 0.62121 0.15386 0.0
O10 O 0.07228 0.60069 0.14016 0.0
O11 O 0.0642 0.53929 0.1632 0.0
C12 C 0.9207 0.42095 0.17348 0.0
O13 O 0.92616 0.43938 0.18783 0.0
O14 O 0.93686 0.43518 0.16081 0.0
O15 O 0.99502 0.49446 0.18575 0.0
O16 O 0.01313 0.54927 0.18914 0.0
O17 O 0.93774 0.50552 0.16524 0.0
C18 C 0.99809 0.52309 0.13572 0.0
C19 C 0.00505 0.52147 0.19537 0.0
Zn20 Zn 0.53212 0.04608 0.50069 0.0
Zn21 Zn 0.54063 0.97971 0.49969 0.0
C22 C 0.60143 0.09791 0.50848 0.0
O23 O 0.58822 0.10001 0.52278 0.0
C24 C 0.47706 0.92246 0.48699 0.0
O25 O 0.49642 0.92315 0.47475 0.0
O26 O 0.51589 0.07933 0.49949 0.0
O27 O 0.50779 0.01114 0.48116 0.0
O28 O 0.55195 0.00472 0.47857 0.0
C29 C 0.51897 0.0926 0.4856 0.0
O30 O 0.53061 0.08249 0.47279 0.0
O31 O 0.58261 0.07491 0.49699 0.0
C32 C 0.56147 0.93481 0.51044 0.0
O33 O 0.54589 0.9372 0.52379 0.0
O34 O 0.56298 0.95144 0.49799 0.0
O35 O 0.55556 0.00535 0.5228 0.0
O36 O 0.52522 0.03091 0.52411 0.0
O37 O 0.49 0.9454 0.49923 0.0
C38 C 0.52807 0.00726 0.4718 0.0
C39 C 0.54192 0.01944 0.53137 0.0
Zn40 Zn 0.55823 0.52912 0.8361 0.0
Zn41 Zn 0.48325 0.5187 0.8337 0.0
C42 C 0.54166 0.46218 0.84438 0.0
O43 O 0.55645 0.47928 0.85889 0.0
C44 C 0.4843 0.57766 0.82357 0.0
O45 O 0.46099 0.55373 0.81296 0.0
O46 O 0.60813 0.5473 0.83548 0.0
O47 O 0.5477 0.54708 0.81593 0.0
O48 O 0.4964 0.50335 0.81218 0.0
C49 C 0.61756 0.53727 0.82244 0.0
O50 O 0.59458 0.51634 0.81077 0.0
O51 O 0.53772 0.47778 0.83265 0.0
C52 C 0.41707 0.49955 0.84397 0.0
O53 O 0.43424 0.51465 0.85835 0.0
O54 O 0.43268 0.49675 0.83143 0.0
O55 O 0.49365 0.5075 0.85644 0.0
O56 O 0.54895 0.54223 0.85916 0.0
O57 O 0.49989 0.56951 0.83402 0.0
C58 C 0.52337 0.52537 0.80604 0.0
C59 C 0.52073 0.52474 0.86572 0.0
C60 C 0.51853 0.06817 0.28704 0.0
C61 C 0.50206 0.03679 0.29406 0.0
C62 C 0.51568 0.06971 0.26964 0.0
C63 C 0.49679 0.03982 0.25888 0.0
C64 C 0.48055 0.00843 0.26603 0.0
C65 C 0.48291 0.00699 0.28343 0.0
C66 C 0.49457 0.0411 0.24027 0.0
C67 C 0.52268 0.06445 0.23188 0.0
C68 C 0.52132 0.06421 0.21421 0.0
C69 C 0.49158 0.04046 0.20485 0.0
C70 C 0.46344 0.01691 0.21299 0.0
C71 C 0.46486 0.01773 0.23066 0.0
C72 C 0.43365 0.98956 0.20297 0.0
C73 C 0.41882 0.99664 0.18937 0.0
C74 C 0.42074 0.95578 0.20666 0.0
C75 C 0.3936 0.9295 0.19693 0.0
C76 C 0.37868 0.93643 0.18334 0.0
C77 C 0.55162 0.08757 0.20546 0.0
C78 C 0.57019 0.12219 0.21104 0.0
C79 C 0.56252 0.0752 0.19169 0.0
C80 C 0.59185 0.09702 0.18381 0.0
C81 C 0.61056 0.13161 0.18947 0.0
C82 C 0.59932 0.14405 0.20307 0.0
C83 C 0.39129 0.97024 0.1797 0.0
H84 H 0.53325 0.09151 0.29505 0.0
H85 H 0.52812 0.09436 0.26465 0.0
H86 H 0.46651 0.98478 0.25818 0.0
H87 H 0.47036 0.98245 0.28855 0.0
H88 H 0.54622 0.08187 0.23898 0.0
H89 H 0.44273 0.99984 0.23687 0.0
H90 H 0.49068 0.0397 0.19119 0.0
H91 H 0.42838 0.02256 0.18631 0.0
H92 H 0.43198 0.94961 0.21694 0.0
H93 H 0.384 0.90369 0.20019 0.0
H94 H 0.56218 0.13233 0.22158 0.0
H95 H 0.54878 0.04852 0.18725 0.0
H96 H 0.38009 0.97617 0.16931 0.0
H97 H 0.61354 0.17055 0.20782 0.0
H98 H 0.59995 0.08685 0.17332 0.0
C99 C 0.54867 0.5391 0.61692 0.0
C100 C 0.56671 0.52873 0.62706 0.0
C101 C 0.55377 0.54148 0.59967 0.0
C102 C 0.57675 0.5332 0.59221 0.0
C103 C 0.59456 0.52251 0.60231 0.0
C104 C 0.58975 0.52051 0.61961 0.0
C105 C 0.58199 0.53564 0.5739 0.0
C106 C 0.58672 0.56447 0.56632 0.0
C107 C 0.59089 0.56665 0.54891 0.0
C108 C 0.59018 0.53962 0.53904 0.0
C109 C 0.58493 0.51035 0.54639 0.0
C110 C 0.58128 0.50875 0.56388 0.0
C111 C 0.58114 0.4806 0.53573 0.0
C112 C 0.56117 0.46957 0.52052 0.0
C113 C 0.59592 0.46196 0.54112 0.0
C114 C 0.58998 0.43233 0.53177 0.0
C115 C 0.56914 0.42069 0.51683 0.0
C116 C 0.59467 0.59666 0.54097 0.0
C117 C 0.57239 0.60879 0.54461 0.0
C118 C 0.62034 0.61326 0.52973 0.0
C119 C 0.62396 0.6419 0.52247 0.0
C120 C 0.60163 0.654 0.52615 0.0
C121 C 0.57575 0.6371 0.53723 0.0
C122 C 0.55522 0.4399 0.51117 0.0
H123 H 0.53095 0.54584 0.62237 0.0
H124 H 0.53949 0.5495 0.59214 0.0
H125 H 0.61253 0.51612 0.59687 0.0
H126 H 0.60382 0.51224 0.62714 0.0
H127 H 0.58753 0.58544 0.57401 0.0
H128 H 0.57637 0.48593 0.56962 0.0
H129 H 0.59299 0.5411 0.52555 0.0
H130 H 0.54918 0.48322 0.51612 0.0
H131 H 0.61168 0.47004 0.5527 0.0
H132 H 0.60079 0.41791 0.53657 0.0
H133 H 0.55221 0.59624 0.55311 0.0
H134 H 0.6379 0.60441 0.52679 0.0
H135 H 0.53931 0.43174 0.49963 0.0
H136 H 0.55846 0.64616 0.54044 0.0
H137 H 0.64407 0.65449 0.51395 0.0
C138 C 0.0634 0.58023 0.95109 0.0
C139 C 0.03222 0.55711 0.95736 0.0
C140 C 0.0663 0.58398 0.93379 0.0
C141 C 0.03795 0.56504 0.9225 0.0
C142 C 0.00674 0.54205 0.92879 0.0
C143 C 0.00395 0.53797 0.94604 0.0
C144 C 0.04089 0.56901 0.90418 0.0
C145 C 0.06705 0.56757 0.89573 0.0
C146 C 0.0689 0.56948 0.87818 0.0
C147 C 0.04512 0.57426 0.8692 0.0
C148 C 0.019 0.57576 0.87753 0.0
C149 C 0.01675 0.57284 0.89495 0.0
C150 C 0.99273 0.57817 0.86784 0.0
C151 C 0.00087 0.60732 0.85957 0.0
C152 C 0.95929 0.55101 0.86678 0.0
C153 C 0.93419 0.55291 0.85755 0.0
C154 C 0.94208 0.58226 0.84953 0.0
C155 C 0.09378 0.56349 0.86908 0.0
C156 C 0.1276 0.57896 0.87536 0.0
C157 C 0.08318 0.54037 0.85465 0.0
C158 C 0.10566 0.53191 0.84701 0.0
C159 C 0.1392 0.54659 0.85359 0.0
C160 C 0.15015 0.57069 0.86764 0.0
C161 C 0.97554 0.60954 0.85063 0.0
H162 H 0.08561 0.59513 0.95955 0.0
H163 H 0.0906 0.60195 0.92925 0.0
H164 H 0.98458 0.52692 0.92032 0.0
H165 H 0.97958 0.52015 0.95057 0.0
H166 H 0.08489 0.56316 0.9027 0.0
H167 H 0.99628 0.57374 0.90131 0.0
H168 H 0.04628 0.57579 0.85566 0.0
H169 H 0.02664 0.62848 0.86028 0.0
H170 H 0.95268 0.52829 0.87305 0.0
H171 H 0.90842 0.53175 0.85699 0.0
H172 H 0.13642 0.59699 0.88641 0.0
H173 H 0.05714 0.52781 0.84964 0.0
H174 H 0.982 0.63242 0.84455 0.0
H175 H 0.1758 0.58215 0.87308 0.0
H176 H 0.09665 0.51342 0.83614 0.0
C177 C 0.99177 0.49863 0.38475 0.0
C178 C 0.02115 0.50915 0.37572 0.0
C179 C 0.9932 0.4981 0.40229 0.0
C180 C 0.02399 0.50758 0.41118 0.0
C181 C 0.05327 0.51758 0.40202 0.0
C182 C 0.05191 0.51862 0.38451 0.0
C183 C 0.02565 0.50759 0.42992 0.0
C184 C 0.99861 0.48268 0.43822 0.0
C185 C 0.99936 0.48302 0.45595 0.0
C186 C 0.02837 0.50856 0.46547 0.0
C187 C 0.05599 0.5333 0.45727 0.0
C188 C 0.05419 0.53274 0.43961 0.0
C189 C 0.08727 0.56032 0.46664 0.0
C190 C 0.08663 0.58557 0.47749 0.0
C191 C 0.1187 0.56376 0.46267 0.0
C192 C 0.14896 0.59251 0.46882 0.0
C193 C 0.14856 0.61879 0.47896 0.0
C194 C 0.96962 0.4561 0.46405 0.0
C195 C 0.93656 0.44597 0.45791 0.0
C196 C 0.97375 0.43844 0.47685 0.0
C197 C 0.94551 0.41032 0.48278 0.0
C198 C 0.9125 0.39933 0.47609 0.0
C199 C 0.90848 0.41798 0.46377 0.0
C200 C 0.11703 0.61467 0.48353 0.0
H201 H 0.96779 0.49152 0.37827 0.0
H202 H 0.97025 0.49087 0.40889 0.0
H203 H 0.07729 0.52438 0.40833 0.0
H204 H 0.07485 0.52644 0.3778 0.0
H205 H 0.97703 0.46238 0.43082 0.0
H206 H 0.07504 0.55259 0.43347 0.0
H207 H 0.02951 0.50919 0.47912 0.0
H208 H 0.06268 0.58364 0.48056 0.0
H209 H 0.11982 0.54476 0.45419 0.0
H210 H 0.17266 0.59493 0.46488 0.0
H211 H 0.93239 0.45926 0.4482 0.0
H212 H 0.99887 0.44551 0.48182 0.0
H213 H 0.11585 0.63432 0.49142 0.0
H214 H 0.88368 0.41027 0.45813 0.0
H215 H 0.9496 0.39695 0.49246 0.0
C216 C 0.52554 0.99676 0.71999 0.0
C217 C 0.54751 0.02689 0.71275 0.0
C218 C 0.52291 0.99657 0.73748 0.0
C219 C 0.54255 0.02643 0.74813 0.0
C220 C 0.56502 0.05642 0.74083 0.0
C221 C 0.56729 0.05669 0.72333 0.0
C222 C 0.53904 0.02647 0.76674 0.0
C223 C 0.53376 0.99844 0.77525 0.0
C224 C 0.52904 0.99762 0.7927 0.0
C225 C 0.53082 0.02613 0.80188 0.0
C226 C 0.53674 0.05481 0.79354 0.0
C227 C 0.54028 0.05435 0.776 0.0
C228 C 0.53844 0.08543 0.8025 0.0
C229 C 0.51293 0.0828 0.81312 0.0
C230 C 0.56358 0.11788 0.79859 0.0
C231 C 0.56183 0.14668 0.80398 0.0
C232 C 0.5351 0.14391 0.8136 0.0
C233 C 0.52199 0.96637 0.80078 0.0
C234 C 0.49862 0.93441 0.79274 0.0
C235 C 0.54056 0.9678 0.81537 0.0
C236 C 0.53703 0.93786 0.82124 0.0
C237 C 0.5147 0.90591 0.81268 0.0
C238 C 0.49514 0.9047 0.79853 0.0
C239 C 0.51133 0.11188 0.81867 0.0
H240 H 0.50972 0.97351 0.7121 0.0
H241 H 0.5049 0.97315 0.74259 0.0
H242 H 0.58103 0.07974 0.74863 0.0
H243 H 0.58474 0.08017 0.71806 0.0
H244 H 0.53367 0.97713 0.76828 0.0
H245 H 0.54312 0.07562 0.76944 0.0
H246 H 0.52744 0.0259 0.81534 0.0
H247 H 0.49315 0.05815 0.81628 0.0
H248 H 0.58391 0.12082 0.79068 0.0
H249 H 0.58089 0.17111 0.80018 0.0
H250 H 0.48371 0.93242 0.78155 0.0
H251 H 0.55883 0.99208 0.8218 0.0
H252 H 0.49049 0.10906 0.82612 0.0
H253 H 0.47803 0.88084 0.7914 0.0
H254 H 0.5522 0.93979 0.8323 0.0
C255 C 0.51536 0.49742 0.05504 0.0
C256 C 0.50289 0.51499 0.04626 0.0
C257 C 0.51356 0.4967 0.07255 0.0
C258 C 0.49964 0.51391 0.08171 0.0
C259 C 0.4872 0.5315 0.07286 0.0
C260 C 0.48862 0.53186 0.05533 0.0
C261 C 0.49845 0.51384 0.10042 0.0
C262 C 0.52522 0.51562 0.1102 0.0
C263 C 0.52461 0.51602 0.12785 0.0
C264 C 0.497 0.51532 0.13595 0.0
C265 C 0.46951 0.51272 0.12629 0.0
C266 C 0.47056 0.51201 0.10861 0.0
C267 C 0.43902 0.51018 0.13416 0.0
C268 C 0.40663 0.48419 0.12812 0.0
C269 C 0.44168 0.53543 0.14624 0.0
C270 C 0.41248 0.53572 0.15143 0.0
C271 C 0.38006 0.51061 0.14469 0.0
C272 C 0.55286 0.51599 0.13726 0.0
C273 C 0.55872 0.48877 0.13398 0.0
C274 C 0.57684 0.54484 0.14736 0.0
C275 C 0.60706 0.54707 0.15336 0.0
C276 C 0.61359 0.52031 0.14948 0.0
C277 C 0.5886 0.49079 0.1401 0.0
C278 C 0.37756 0.48429 0.13337 0.0
H279 H 0.5261 0.48384 0.04832 0.0
H280 H 0.5228 0.48234 0.07886 0.0
H281 H 0.47687 0.54555 0.07949 0.0
H282 H 0.47917 0.54592 0.04889 0.0
H283 H 0.54706 0.5172 0.10412 0.0
H284 H 0.44936 0.5099 0.10119 0.0
H285 H 0.49635 0.51554 0.14958 0.0
H286 H 0.40385 0.4642 0.11892 0.0
H287 H 0.46637 0.55589 0.15101 0.0
H288 H 0.41546 0.55647 0.16011 0.0
H289 H 0.54072 0.46642 0.12605 0.0
H290 H 0.57301 0.56631 0.14985 0.0
H291 H 0.35309 0.46401 0.12826 0.0
H292 H 0.59289 0.46988 0.13669 0.0
H293 H 0.62569 0.57005 0.16065 0.0
C294 C 0.11834 0.52523 0.15679 0.0
C295 C 0.11514 0.53987 0.17229 0.0
C296 C 0.14595 0.52012 0.1544 0.0
C297 C 0.23357 0.55068 0.17172 0.0
H298 H 0.22429 0.47228 0.14466 0.0
C299 C 0.34484 0.52371 0.16489 0.0
C300 C 0.34909 0.51261 0.14864 0.0
C301 C 0.31583 0.52586 0.16832 0.0
C302 C 0.22738 0.49447 0.15215 0.0
H303 H 0.13791 0.55946 0.19761 0.0
H304 H 0.18542 0.54998 0.19356 0.0
H305 H 0.17431 0.47749 0.14957 0.0
H306 H 0.32621 0.49597 0.12316 0.0
H307 H 0.27584 0.49941 0.12918 0.0
H308 H 0.28665 0.56765 0.17427 0.0
C309 C 0.16712 0.54315 0.18309 0.0
C310 C 0.19868 0.49749 0.15495 0.0
C311 C 0.13966 0.54836 0.18546 0.0
C312 C 0.32356 0.50383 0.13593 0.0
C313 C 0.2946 0.50586 0.13938 0.0
C314 C 0.26223 0.5476 0.16897 0.0
C315 C 0.17097 0.52943 0.16746 0.0
C316 C 0.20139 0.52572 0.16472 0.0
C317 C 0.29031 0.51691 0.1556 0.0
C318 C 0.25956 0.51956 0.15907 0.0
H319 H 0.1 0.51853 0.14636 0.0
H320 H 0.14817 0.50979 0.14213 0.0
H321 H 0.23683 0.57308 0.17906 0.0
H322 H 0.36374 0.53036 0.17504 0.0
H323 H 0.31321 0.53416 0.18101 0.0
C324 C 0.65826 0.14701 0.51861 0.0
C325 C 0.6364 0.12465 0.50522 0.0
C326 C 0.68986 0.17457 0.51553 0.0
C327 C 0.73319 0.232 0.48281 0.0
H328 H 0.81453 0.26071 0.51107 0.0
C329 C 0.85057 0.36571 0.48222 0.0
C330 C 0.88238 0.3678 0.48122 0.0
C331 C 0.82167 0.33527 0.4854 0.0
C332 C 0.79208 0.25293 0.50302 0.0
H333 H 0.63111 0.11326 0.47807 0.0
H334 H 0.68627 0.16163 0.47266 0.0
H335 H 0.76267 0.20769 0.51559 0.0
H336 H 0.90848 0.33922 0.48328 0.0
H337 H 0.85811 0.28636 0.48926 0.0
H338 H 0.76239 0.27733 0.47035 0.0
C339 C 0.67884 0.15779 0.48557 0.0
C340 C 0.76232 0.22268 0.50567 0.0
C341 C 0.64735 0.12994 0.48868 0.0
C342 C 0.8846 0.33883 0.48415 0.0
C343 C 0.85567 0.30842 0.48751 0.0
C344 C 0.76278 0.2624 0.48029 0.0
C345 C 0.70026 0.18072 0.49895 0.0
C346 C 0.73248 0.21191 0.49563 0.0
C347 C 0.82375 0.30612 0.48787 0.0
C348 C 0.79255 0.27335 0.49042 0.0
H349 H 0.65065 0.14367 0.53151 0.0
H350 H 0.7056 0.19185 0.5261 0.0
H351 H 0.71059 0.22465 0.47496 0.0
H352 H 0.84788 0.38759 0.48044 0.0
H353 H 0.79759 0.33456 0.48594 0.0
C354 C 0.51921 0.64073 0.83197 0.0
C355 C 0.4902 0.6128 0.82381 0.0
C356 C 0.52414 0.6737 0.83183 0.0
C357 C 0.49261 0.72273 0.80898 0.0
H358 H 0.53481 0.78955 0.84735 0.0
C359 C 0.48203 0.84296 0.81567 0.0
C360 C 0.5129 0.87398 0.81761 0.0
C361 C 0.48097 0.81229 0.8178 0.0
C362 C 0.52314 0.77114 0.83653 0.0
H363 H 0.44309 0.59751 0.80964 0.0
H364 H 0.45087 0.65402 0.80993 0.0
H365 H 0.52994 0.73365 0.84811 0.0
H366 H 0.56664 0.8968 0.82434 0.0
H367 H 0.56441 0.84305 0.82862 0.0
H368 H 0.4848 0.75976 0.79768 0.0
C369 C 0.47065 0.65111 0.81589 0.0
C370 C 0.52048 0.73914 0.83689 0.0
C371 C 0.46602 0.61846 0.81582 0.0
C372 C 0.54235 0.87355 0.82285 0.0
C373 C 0.54116 0.84275 0.82522 0.0
C374 C 0.49475 0.75433 0.80876 0.0
C375 C 0.49994 0.67937 0.82369 0.0
C376 C 0.50477 0.71429 0.82318 0.0
C377 C 0.51062 0.81176 0.82223 0.0
C378 C 0.50969 0.77875 0.82257 0.0
H379 H 0.53831 0.63719 0.83825 0.0
H380 H 0.54715 0.69474 0.83787 0.0
H381 H 0.48134 0.70489 0.79794 0.0
H382 H 0.45865 0.84222 0.81211 0.0
H383 H 0.45696 0.7888 0.8157 0.0
C384 C 0.86877 0.50305 0.13985 0.0
C385 C 0.88944 0.50766 0.15421 0.0
C386 C 0.8418 0.50936 0.141 0.0
C387 C 0.78248 0.51205 0.17106 0.0
H388 H 0.76069 0.55317 0.13541 0.0
C389 C 0.64943 0.49634 0.15939 0.0
C390 C 0.64721 0.52388 0.15388 0.0
C391 C 0.6809 0.49825 0.1615 0.0
C392 C 0.76657 0.54201 0.1456 0.0
H393 H 0.89827 0.52318 0.18103 0.0
H394 H 0.85092 0.5341 0.18305 0.0
H395 H 0.81279 0.55051 0.13491 0.0
H396 H 0.67662 0.57544 0.14677 0.0
H397 H 0.73154 0.5789 0.1506 0.0
H398 H 0.73596 0.50316 0.18162 0.0
C399 C 0.85561 0.52546 0.1709 0.0
C400 C 0.7963 0.54017 0.14521 0.0
C401 C 0.88288 0.51943 0.16972 0.0
C402 C 0.67739 0.55385 0.15116 0.0
C403 C 0.70886 0.5557 0.15317 0.0
C404 C 0.75258 0.51368 0.17139 0.0
C405 C 0.83458 0.52023 0.15657 0.0
C406 C 0.80442 0.52476 0.1578 0.0
C407 C 0.71098 0.52769 0.15806 0.0
C408 C 0.74403 0.52831 0.15854 0.0
H409 H 0.87307 0.49403 0.1277 0.0
H410 H 0.82594 0.5047 0.12975 0.0
H411 H 0.78782 0.49981 0.18089 0.0
H412 H 0.62671 0.47297 0.16174 0.0
H413 H 0.68151 0.47612 0.16518 0.0
C414 C 0.42772 0.86936 0.47311 0.0
C415 C 0.44161 0.89379 0.48702 0.0
C416 C 0.39539 0.84088 0.47342 0.0
C417 C 0.31458 0.80523 0.49528 0.0
H418 H 0.30349 0.71968 0.47601 0.0
C419 C 0.18312 0.68273 0.4818 0.0
C420 C 0.18091 0.65119 0.48353 0.0
C421 C 0.21445 0.71295 0.48394 0.0
C422 C 0.30612 0.74322 0.48164 0.0
H423 H 0.43181 0.90775 0.51204 0.0
H424 H 0.37532 0.85778 0.51264 0.0
H425 H 0.35849 0.77099 0.47624 0.0
H426 H 0.20969 0.62702 0.48994 0.0
H427 H 0.26412 0.67959 0.49388 0.0
H428 H 0.26213 0.77714 0.50087 0.0
C429 C 0.38943 0.86084 0.50141 0.0
C430 C 0.33766 0.77284 0.48154 0.0
C431 C 0.42189 0.88946 0.50109 0.0
C432 C 0.21055 0.6508 0.48823 0.0
C433 C 0.24181 0.68098 0.49043 0.0
C434 C 0.28292 0.7755 0.49536 0.0
C435 C 0.37597 0.8359 0.48767 0.0
C436 C 0.34232 0.80433 0.48823 0.0
C437 C 0.24436 0.71241 0.48791 0.0
C438 C 0.27824 0.74409 0.48849 0.0
H439 H 0.44201 0.87195 0.46199 0.0
H440 H 0.38562 0.82265 0.46245 0.0
H441 H 0.31716 0.82903 0.50046 0.0
H442 H 0.16088 0.68395 0.478 0.0
H443 H 0.2154 0.73658 0.48175 0.0
C444 C 0.53374 0.40808 0.85476 0.0
C445 C 0.53365 0.42641 0.84124 0.0
C446 C 0.5298 0.37566 0.8518 0.0
C447 C 0.5456 0.32451 0.81981 0.0
H448 H 0.48953 0.24882 0.84585 0.0
C449 C 0.5328 0.1937 0.80381 0.0
C450 C 0.53101 0.17411 0.81707 0.0
C451 C 0.53036 0.22291 0.8068 0.0
C452 C 0.50568 0.26979 0.8386 0.0
H453 H 0.52834 0.42455 0.81399 0.0
H454 H 0.52181 0.36807 0.80882 0.0
H455 H 0.48953 0.3023 0.85092 0.0
H456 H 0.52456 0.16937 0.84384 0.0
H457 H 0.52135 0.2212 0.84928 0.0
H458 H 0.56277 0.29289 0.80787 0.0
C459 C 0.52497 0.37887 0.82173 0.0
C460 C 0.50552 0.30039 0.84146 0.0
C461 C 0.52848 0.41113 0.8247 0.0
C462 C 0.52598 0.184 0.83339 0.0
C463 C 0.52399 0.21364 0.83645 0.0
C464 C 0.54609 0.29415 0.81709 0.0
C465 C 0.52611 0.36098 0.83523 0.0
C466 C 0.52538 0.32805 0.83203 0.0
C467 C 0.52654 0.23374 0.82321 0.0
C468 C 0.52602 0.26622 0.82637 0.0
H469 H 0.53759 0.41908 0.86766 0.0
H470 H 0.53098 0.36265 0.86246 0.0
H471 H 0.56172 0.34555 0.81257 0.0
H472 H 0.53598 0.18632 0.79103 0.0
H473 H 0.53142 0.23697 0.79617 0.0
C474 C 0.58607 0.90378 0.49433 0.0
C475 C 0.57545 0.91174 0.50962 0.0
C476 C 0.59701 0.88006 0.49339 0.0
C477 C 0.62651 0.83467 0.51945 0.0
H478 H 0.58151 0.76102 0.48421 0.0
C479 C 0.57722 0.68542 0.51252 0.0
C480 C 0.6057 0.68486 0.51901 0.0
C481 C 0.5801 0.71563 0.50784 0.0
C482 C 0.59453 0.78158 0.49402 0.0
H483 H 0.56918 0.90211 0.53605 0.0
H484 H 0.58819 0.86078 0.53441 0.0
H485 H 0.57527 0.8111 0.48361 0.0
H486 H 0.65984 0.71494 0.52493 0.0
H487 H 0.66493 0.76801 0.51674 0.0
H488 H 0.64426 0.80441 0.53037 0.0
C489 C 0.58826 0.87297 0.52316 0.0
C490 C 0.59119 0.81034 0.49361 0.0
C491 C 0.57708 0.89643 0.52407 0.0
C492 C 0.6375 0.7147 0.51991 0.0
C493 C 0.64036 0.74505 0.51534 0.0
C494 C 0.62998 0.80599 0.51982 0.0
C495 C 0.59786 0.86417 0.50777 0.0
C496 C 0.60622 0.83664 0.50663 0.0
C497 C 0.61152 0.74595 0.50965 0.0
C498 C 0.61309 0.77868 0.50741 0.0
H499 H 0.58514 0.91523 0.48298 0.0
H500 H 0.60444 0.87385 0.48139 0.0
H501 H 0.6387 0.85477 0.52953 0.0
H502 H 0.55247 0.66266 0.51154 0.0
H503 H 0.55735 0.71556 0.50367 0.0
C504 C 0.67879 0.57282 0.83204 0.0
C505 C 0.65353 0.54748 0.82074 0.0
C506 C 0.71252 0.58085 0.83103 0.0
C507 C 0.76094 0.54059 0.81924 0.0
H508 H 0.83861 0.63182 0.82405 0.0
C509 C 0.89381 0.55962 0.82813 0.0
C510 C 0.91475 0.58465 0.84082 0.0
C511 C 0.86482 0.55885 0.82166 0.0
C512 C 0.8172 0.60618 0.82278 0.0
H513 H 0.64391 0.51152 0.79915 0.0
H514 H 0.70277 0.52518 0.79762 0.0
H515 H 0.78153 0.6236 0.8206 0.0
H516 H 0.92308 0.62929 0.85627 0.0
H517 H 0.8717 0.6273 0.84557 0.0
H518 H 0.79577 0.5229 0.82244 0.0
C519 C 0.69641 0.53882 0.80721 0.0
C520 C 0.7846 0.60154 0.82074 0.0
C521 C 0.66278 0.53107 0.80809 0.0
C522 C 0.9073 0.6099 0.84638 0.0
C523 C 0.87794 0.60879 0.84016 0.0
C524 C 0.79337 0.5452 0.82152 0.0
C525 C 0.72147 0.56341 0.81882 0.0
C526 C 0.7562 0.5687 0.8192 0.0
C527 C 0.85579 0.58263 0.82808 0.0
C528 C 0.82191 0.57806 0.82359 0.0
H529 H 0.67244 0.58604 0.84186 0.0
H530 H 0.73136 0.59969 0.84024 0.0
H531 H 0.7394 0.515 0.81832 0.0
H532 H 0.89939 0.54008 0.82358 0.0
H533 H 0.84888 0.53889 0.81204 0.0
C534 C 0.12061 0.67117 0.13919 0.0
C535 C 0.10573 0.65715 0.15416 0.0
C536 C 0.14854 0.70401 0.13974 0.0
C537 C 0.22077 0.75998 0.16759 0.0
H538 H 0.23459 0.83215 0.13979 0.0
C539 C 0.34972 0.8782 0.16864 0.0
C540 C 0.34923 0.90808 0.17358 0.0
C541 C 0.32004 0.84895 0.16257 0.0
C542 C 0.23098 0.81207 0.14754 0.0
H543 H 0.10717 0.66711 0.18132 0.0
H544 H 0.15617 0.72421 0.18227 0.0
H545 H 0.18013 0.77839 0.13733 0.0
H546 H 0.31824 0.93184 0.17469 0.0
H547 H 0.266 0.88034 0.16406 0.0
H548 H 0.27116 0.79314 0.17787 0.0
C549 C 0.14625 0.70974 0.17015 0.0
C550 C 0.20002 0.78148 0.14612 0.0
C551 C 0.1182 0.67712 0.16958 0.0
C552 C 0.31922 0.90908 0.17094 0.0
C553 C 0.2894 0.87969 0.16485 0.0
C554 C 0.25167 0.79016 0.16882 0.0
C555 C 0.16214 0.7231 0.15529 0.0
C556 C 0.19463 0.75541 0.15632 0.0
C557 C 0.28935 0.84906 0.16135 0.0
C558 C 0.25705 0.81654 0.15889 0.0
H559 H 0.11135 0.65644 0.12709 0.0
H560 H 0.16049 0.71382 0.12814 0.0
H561 H 0.21733 0.74007 0.17543 0.0
H562 H 0.37274 0.87703 0.17025 0.0
H563 H 0.3207 0.82573 0.15967 0.0
C564 C 0.51998 0.13839 0.46956 0.0
C565 C 0.51389 0.12197 0.48452 0.0
C566 C 0.51955 0.16875 0.46918 0.0
C567 C 0.49546 0.22559 0.49322 0.0
H568 H 0.57481 0.29723 0.47425 0.0
C569 C 0.52668 0.36445 0.50208 0.0
C570 C 0.56033 0.38754 0.50785 0.0
C571 C 0.51756 0.33174 0.49537 0.0
C572 C 0.55246 0.27747 0.47954 0.0
H573 H 0.50068 0.12346 0.51056 0.0
H574 H 0.50038 0.17653 0.50997 0.0
H575 H 0.56289 0.23882 0.4701 0.0
H576 H 0.61116 0.39516 0.51019 0.0
H577 H 0.59517 0.3379 0.49887 0.0
H578 H 0.48615 0.2645 0.50352 0.0
C579 C 0.50516 0.16587 0.49846 0.0
C580 C 0.54538 0.24394 0.477 0.0
C581 C 0.50556 0.13553 0.49884 0.0
C582 C 0.58495 0.37777 0.50605 0.0
C583 C 0.57583 0.34509 0.49936 0.0
C584 C 0.50257 0.25913 0.49578 0.0
C585 C 0.51299 0.18325 0.48376 0.0
C586 C 0.51733 0.21777 0.48421 0.0
C587 C 0.5419 0.32146 0.4943 0.0
C588 C 0.53167 0.28555 0.48937 0.0
H589 H 0.52619 0.12842 0.45827 0.0
H590 H 0.52519 0.18131 0.4576 0.0
H591 H 0.47341 0.20591 0.49874 0.0
H592 H 0.50706 0.37112 0.5034 0.0
H593 H 0.49128 0.31422 0.4914 0.0
C594 C 0.36338 0.49146 0.85581 0.0
C595 C 0.3814 0.49091 0.84173 0.0
C596 C 0.33147 0.48828 0.85366 0.0
C597 C 0.28542 0.50974 0.82428 0.0
H598 H 0.21229 0.46474 0.85423 0.0
C599 C 0.19612 0.55863 0.8443 0.0
C600 C 0.16208 0.53507 0.8467 0.0
C601 C 0.21863 0.54751 0.83973 0.0
C602 C 0.23217 0.47697 0.84554 0.0
H603 H 0.3794 0.48468 0.81436 0.0
H604 H 0.32364 0.47942 0.81063 0.0
H605 H 0.25863 0.45246 0.85403 0.0
H606 H 0.12453 0.48146 0.84559 0.0
H607 H 0.16398 0.46202 0.8376 0.0
H608 H 0.25963 0.53528 0.81629 0.0
C609 C 0.33432 0.4824 0.82331 0.0
C610 C 0.25879 0.47014 0.84554 0.0
C611 C 0.36613 0.48527 0.82546 0.0
C612 C 0.15061 0.50019 0.84372 0.0
C613 C 0.17319 0.48906 0.83927 0.0
C614 C 0.25891 0.51675 0.82437 0.0
C615 C 0.31709 0.48472 0.83738 0.0
C616 C 0.28613 0.48719 0.83526 0.0
C617 C 0.20755 0.51261 0.8376 0.0
C618 C 0.23254 0.50116 0.83535 0.0
H619 H 0.37444 0.49563 0.8685 0.0
H620 H 0.31891 0.49048 0.86474 0.0
H621 H 0.3063 0.52345 0.81632 0.0
H622 H 0.20552 0.58566 0.84638 0.0
H623 H 0.24506 0.56625 0.83869 0.0
C624 C 0.88209 0.36722 0.15571 0.0
C625 C 0.89402 0.38487 0.17175 0.0
C626 C 0.8544 0.33418 0.15406 0.0
C627 C 0.801 0.26012 0.17775 0.0
H628 H 0.72733 0.24887 0.14798 0.0
C629 C 0.64965 0.18704 0.17809 0.0
C630 C 0.64257 0.15456 0.18179 0.0
C631 C 0.68136 0.21016 0.17268 0.0
C632 C 0.7478 0.2515 0.1562 0.0
H633 H 0.88761 0.38123 0.19865 0.0
H634 H 0.83938 0.32366 0.19576 0.0
H635 H 0.78351 0.29887 0.14708 0.0
H636 H 0.66241 0.12014 0.18204 0.0
H637 H 0.71807 0.16074 0.17257 0.0
H638 H 0.76489 0.21377 0.18754 0.0
C639 C 0.85143 0.33525 0.18447 0.0
C640 C 0.77998 0.27993 0.15559 0.0
C641 C 0.87886 0.36833 0.18612 0.0
C642 C 0.66721 0.14502 0.1792 0.0
C643 C 0.69906 0.16825 0.17389 0.0
C644 C 0.76888 0.23161 0.17829 0.0
C645 C 0.83848 0.31814 0.16842 0.0
C646 C 0.80655 0.28508 0.16679 0.0
C647 C 0.70666 0.20128 0.17095 0.0
C648 C 0.7417 0.22767 0.16794 0.0
H649 H 0.89334 0.37931 0.1444 0.0
H650 H 0.84499 0.32144 0.14155 0.0
H651 H 0.82117 0.26336 0.18639 0.0
H652 H 0.63094 0.19486 0.17982 0.0
H653 H 0.6866 0.23555 0.17068 0.0
C654 C 0.00969 0.55676 0.11058 0.0
C655 C 0.99974 0.52556 0.11728 0.0
C656 C 0.01291 0.55959 0.09325 0.0
C657 C 0.98442 0.51113 0.0521 0.0
H658 H 0.06712 0.58508 0.03684 0.0
C659 C 0.01277 0.52062 0.98157 0.0
C660 C 0.02905 0.5531 0.97567 0.0
C661 C 0.00945 0.51682 0.99884 0.0
C662 C 0.04365 0.56456 0.04086 0.0
H663 H 0.9843 0.47262 0.11094 0.0
H664 H 0.9894 0.47754 0.08057 0.0
H665 H 0.05988 0.57934 0.06697 0.0
H666 H 0.05422 0.60707 0.98311 0.0
H667 H 0.04767 0.60057 0.01323 0.0
H668 H 0.9677 0.49673 0.02609 0.0
C669 C 0.99496 0.49979 0.08882 0.0
C670 C 0.0396 0.56124 0.05812 0.0
C671 C 0.99217 0.49704 0.1062 0.0
C672 C 0.04192 0.58174 0.98735 0.0
C673 C 0.03825 0.57796 0.00461 0.0
C674 C 0.98827 0.51467 0.03483 0.0
C675 C 0.00574 0.53119 0.08222 0.0
C676 C 0.00996 0.53451 0.0639 0.0
C677 C 0.02198 0.54545 0.01059 0.0
C678 C 0.01795 0.54146 0.02898 0.0
H679 H 0.01543 0.57917 0.11874 0.0
H680 H 0.02086 0.58399 0.08846 0.0
H681 H 0.96118 0.49048 0.05625 0.0
H682 H 0.00297 0.49813 0.97282 0.0
H683 H 0.99736 0.49143 0.00298 0.0
C684 C 0.55384 0.01749 0.44369 0.0
C685 C 0.52553 0.00876 0.4534 0.0
C686 C 0.55177 0.02045 0.4264 0.0
C687 C 0.49307 0.99123 0.38969 0.0
H688 H 0.55777 0.07508 0.37142 0.0
C689 C 0.47599 0.01687 0.32144 0.0
C690 C 0.50511 0.0349 0.31242 0.0
C691 C 0.47882 0.0141 0.33869 0.0
C692 C 0.53982 0.05125 0.37621 0.0
H693 H 0.47273 0.99555 0.45263 0.0
H694 H 0.46893 0.99985 0.42228 0.0
H695 H 0.56254 0.06831 0.40132 0.0
H696 H 0.55994 0.06396 0.31416 0.0
H697 H 0.56514 0.05815 0.34416 0.0
H698 H 0.47084 0.97353 0.36465 0.0
C699 C 0.49273 0.00471 0.42811 0.0
C700 C 0.54252 0.0475 0.39335 0.0
C701 C 0.49496 0.00239 0.44545 0.0
C702 C 0.53712 0.05022 0.32093 0.0
C703 C 0.54001 0.04697 0.33813 0.0
C704 C 0.49069 0.9947 0.37249 0.0
C705 C 0.52119 0.01406 0.41848 0.0
C706 C 0.51901 0.01757 0.40024 0.0
C707 C 0.51088 0.02879 0.34724 0.0
C708 C 0.51386 0.02488 0.36553 0.0
H709 H 0.57777 0.0227 0.44951 0.0
H710 H 0.57399 0.02754 0.41918 0.0
H711 H 0.47485 0.96777 0.39471 0.0
H712 H 0.45101 0.00512 0.31515 0.0
H713 H 0.45578 0.0006 0.34531 0.0
C714 C 0.55906 0.54471 0.78111 0.0
C715 C 0.52703 0.5253 0.7876 0.0
C716 C 0.56282 0.54445 0.76373 0.0
C717 C 0.51978 0.49523 0.72313 0.0
H718 H 0.58443 0.57848 0.70433 0.0
C719 C 0.52896 0.51139 0.65143 0.0
C720 C 0.56177 0.52694 0.64541 0.0
C721 C 0.52433 0.51036 0.66876 0.0
C722 C 0.56648 0.55499 0.70943 0.0
H723 H 0.47372 0.49068 0.78096 0.0
H724 H 0.48009 0.49097 0.75055 0.0
H725 H 0.5765 0.57869 0.73456 0.0
H726 H 0.61541 0.55368 0.65273 0.0
H727 H 0.60732 0.55207 0.68306 0.0
H728 H 0.50939 0.47184 0.69782 0.0
C729 C 0.50248 0.50577 0.7589 0.0
C730 C 0.56198 0.55504 0.72676 0.0
C731 C 0.49877 0.50575 0.77633 0.0
C732 C 0.58985 0.54133 0.65704 0.0
C733 C 0.58523 0.54065 0.67436 0.0
C734 C 0.52405 0.49529 0.70575 0.0
C735 C 0.53458 0.52509 0.75238 0.0
C736 C 0.53873 0.52512 0.73386 0.0
C737 C 0.55243 0.52523 0.68039 0.0
C738 C 0.54759 0.52513 0.69877 0.0
H739 H 0.5814 0.55985 0.78947 0.0
H740 H 0.58802 0.55911 0.75921 0.0
H741 H 0.50205 0.4716 0.72816 0.0
H742 H 0.50687 0.49989 0.64272 0.0
H743 H 0.49878 0.49849 0.67307 0.0
C744 C 0.5367 0.04339 0.55977 0.0
C745 C 0.54507 0.02196 0.55004 0.0
C746 C 0.5389 0.04507 0.5774 0.0
C747 C 0.5349 0.99527 0.61218 0.0
H748 H 0.57944 0.08164 0.63925 0.0
C749 C 0.55254 0.00226 0.68454 0.0
C750 C 0.54929 0.02734 0.69417 0.0
C751 C 0.55361 0.00238 0.66699 0.0
C752 C 0.56647 0.05728 0.63191 0.0
H753 H 0.5626 0.98575 0.55121 0.0
H754 H 0.5658 0.98828 0.58197 0.0
H755 H 0.57795 0.08057 0.60853 0.0
H756 H 0.54426 0.07195 0.69307 0.0
H757 H 0.54507 0.07167 0.66243 0.0
H758 H 0.52241 0.97182 0.63539 0.0
C759 C 0.55761 0.00378 0.57592 0.0
C760 C 0.56578 0.05673 0.61431 0.0
C761 C 0.5559 0.00246 0.55832 0.0
C762 C 0.54719 0.05256 0.68594 0.0
C763 C 0.5478 0.05243 0.66838 0.0
C764 C 0.53519 0.99579 0.62976 0.0
C765 C 0.54904 0.02501 0.58563 0.0
C766 C 0.55003 0.02571 0.60429 0.0
C767 C 0.55098 0.02731 0.65864 0.0
C768 C 0.55101 0.02681 0.63989 0.0
H769 H 0.52842 0.05886 0.55379 0.0
H770 H 0.53196 0.06151 0.5846 0.0
H771 H 0.52221 0.971 0.60473 0.0
H772 H 0.5546 0.98275 0.6906 0.0
H773 H 0.55677 0.98303 0.65999 0.0
C774 C 0.48807 0.51026 0.89191 0.0
C775 C 0.51935 0.5239 0.88428 0.0
C776 C 0.48669 0.50969 0.90943 0.0
C777 C 0.53266 0.50929 0.9473 0.0
H778 H 0.47901 0.54156 0.97098 0.0
C779 C 0.53525 0.52335 0.02009 0.0
C780 C 0.50493 0.51589 0.0277 0.0
C781 C 0.53733 0.52464 0.00261 0.0
C782 C 0.4937 0.53195 0.96457 0.0
H783 H 0.57371 0.54714 0.8891 0.0
H784 H 0.57118 0.54565 0.91973 0.0
H785 H 0.4818 0.54277 0.94043 0.0
H786 H 0.45284 0.50323 0.02302 0.0
H787 H 0.45604 0.50447 0.99248 0.0
H788 H 0.54396 0.49762 0.97128 0.0
C789 C 0.54778 0.53559 0.91209 0.0
C790 C 0.4954 0.53281 0.94707 0.0
C791 C 0.54922 0.5366 0.89457 0.0
C792 C 0.47665 0.50946 0.01749 0.0
C793 C 0.47858 0.51032 -1e-05 0.0
C794 C 0.53065 0.50803 0.96478 0.0
C795 C 0.51651 0.52229 0.91969 0.0
C796 C 0.51492 0.52153 0.93827 0.0
C797 C 0.509 0.51808 0.99231 0.0
C798 C 0.51116 0.51938 0.97367 0.0
H799 H 0.46456 0.50014 0.88437 0.0
H800 H 0.46222 0.499 0.91495 0.0
H801 H 0.54759 0.50007 0.94079 0.0
H802 H 0.55756 0.52882 0.0277 0.0
H803 H 0.56135 0.53131 0.99723 0.0
C804 C 0.9907 0.48935 0.2212 0.0
C805 C 0.00731 0.52049 0.21389 0.0
C806 C 0.99224 0.48842 0.2387 0.0
C807 C 0.04382 0.53431 0.27704 0.0
H808 H 0.96053 0.4848 0.30002 0.0
C809 C 0.04312 0.53981 0.34976 0.0
C810 C 0.01979 0.51052 0.35719 0.0
C811 C 0.04159 0.54132 0.3323 0.0
C812 C 0.98412 0.49828 0.29382 0.0
H813 H 0.03918 0.575 0.21921 0.0
H814 H 0.04245 0.57321 0.24983 0.0
H815 H 0.95821 0.48645 0.26948 0.0
H816 H 0.977 0.45961 0.35226 0.0
H817 H 0.97499 0.46158 0.32173 0.0
H818 H 0.06997 0.54534 0.30116 0.0
C819 C 0.02798 0.54962 0.24196 0.0
C820 C 0.98271 0.49935 0.27632 0.0
C821 C 0.02596 0.55063 0.22446 0.0
C822 C 0.99507 0.48263 0.34684 0.0
C823 C 0.99385 0.4839 0.32934 0.0
C824 C 0.04531 0.53281 0.29451 0.0
C825 C 0.01093 0.51853 0.24924 0.0
C826 C 0.01252 0.51744 0.26778 0.0
C827 C 0.017 0.51333 0.32182 0.0
C828 C 0.01546 0.51484 0.30317 0.0
H829 H 0.97623 0.46567 0.21343 0.0
H830 H 0.97911 0.4641 0.24401 0.0
H831 H 0.0672 0.54814 0.27071 0.0
H832 H 0.06219 0.56181 0.35751 0.0
H833 H 0.05943 0.56466 0.32707 0.0
loop_
_geom_bond_atom_site_label_1
_geom_bond_atom_site_label_2
_geom_bond_distance
_geom_bond_site_symmetry_2
_ccdc_geom_bond_type
Zn0 O6 1.969 . S
Zn0 O7 1.965 . S
Zn0 O11 2.024 . S
Zn0 O16 1.969 . S
Zn1 O8 1.969 . S
Zn1 O14 1.969 . S
Zn1 O15 1.965 . S
Zn1 O17 2.024 . S
C2 O3 1.229 . S
C2 O11 1.058 . S
O3 C2 1.229 . S
C4 O5 1.229 . S
C4 O17 1.058 . S
O5 C4 1.229 . S
O6 Zn0 1.969 . S
O6 C9 1.267 . S
O7 Zn0 1.965 . S
O7 C18 1.260 1_455 S
O8 Zn1 1.969 . S
O8 C18 1.258 . S
C9 O6 1.267 . S
C9 O10 1.228 . S
O10 C9 1.228 . S
O11 Zn0 2.024 . S
O11 C2 1.058 . S
C12 O13 1.228 . S
C12 O14 1.267 . S
O13 C12 1.228 . S
O14 Zn1 1.969 . S
O14 C12 1.267 . S
O15 Zn1 1.965 . S
O15 C19 1.260 1_655 S
O16 Zn0 1.969 . S
O16 C19 1.258 . S
O17 Zn1 2.024 . S
O17 C4 1.058 . S
C18 O7 1.260 1_655 S
C18 O8 1.258 . S
C19 O15 1.260 1_455 S
C19 O16 1.258 . S
Zn20 O26 1.969 . S
Zn20 O27 1.965 . S
Zn20 O31 2.024 . S
Zn20 O36 1.969 . S
Zn21 O28 1.969 . S
Zn21 O34 1.969 . S
Zn21 O35 1.984 . S
Zn21 O37 2.024 . S
C22 O23 1.229 . S
C22 O31 1.058 . S
O23 C22 1.229 . S
C24 O25 1.229 . S
C24 O37 1.058 . S
O25 C24 1.229 . S
O26 Zn20 1.969 . S
O26 C29 1.267 . S
O27 Zn20 1.965 . S
O27 C38 1.260 . S
O28 Zn21 1.969 . S
O28 C38 1.258 1_565 S
C29 O26 1.267 . S
C29 O30 1.228 . S
O30 C29 1.228 . S
O31 Zn20 2.024 . S
O31 C22 1.058 . S
C32 O33 1.228 . S
C32 O34 1.267 . S
O33 C32 1.228 . S
O34 Zn21 1.969 . S
O34 C32 1.267 . S
O35 Zn21 1.984 . S
O35 C39 1.232 1_565 S
O36 Zn20 1.969 . S
O36 C39 1.258 . S
O37 Zn21 2.024 . S
O37 C24 1.058 . S
C38 O27 1.260 . S
C38 O28 1.258 1_545 S
C39 O35 1.232 1_545 S
C39 O36 1.258 . S
Zn40 O46 1.969 . S
Zn40 O47 1.965 . S
Zn40 O51 2.024 . S
Zn40 O56 1.969 . S
Zn41 O48 1.969 . S
Zn41 O54 1.969 . S
Zn41 O55 1.965 . S
Zn41 O57 2.024 . S
C42 O43 1.229 . S
C42 O51 1.058 . S
O43 C42 1.229 . S
C44 O45 1.229 . S
C44 O57 1.058 . S
O45 C44 1.229 . S
O46 Zn40 1.969 . S
O46 C49 1.267 . S
O47 Zn40 1.965 . S
O47 C58 1.260 . S
O48 Zn41 1.969 . S
O48 C58 1.258 . S
C49 O46 1.267 . S
C49 O50 1.228 . S
O50 C49 1.228 . S
O51 Zn40 2.024 . S
O51 C42 1.058 . S
C52 O53 1.228 . S
C52 O54 1.267 . S
O53 C52 1.228 . S
O54 Zn41 1.969 . S
O54 C52 1.267 . S
O55 Zn41 1.965 . S
O55 C59 1.260 . S
O56 Zn40 1.969 . S
O56 C59 1.258 . S
O57 Zn41 2.024 . S
O57 C44 1.058 . S
C58 O47 1.260 . S
C58 O48 1.258 . S
C59 O55 1.260 . S
C59 O56 1.258 . S
C60 C61 1.386 . S
C60 C62 1.397 . S
C60 H84 0.931 . S
C61 C60 1.386 . S
C61 C65 1.397 . S
C62 C60 1.397 . S
C62 C63 1.384 . S
C62 H85 0.930 . S
C63 C62 1.384 . S
C63 C64 1.377 . S
C63 C66 1.481 . S
C64 C63 1.377 . S
C64 C65 1.389 . S
C64 H86 0.929 1_545 S
C65 C61 1.397 . S
C65 C64 1.389 . S
C65 H87 0.931 1_545 S
C66 C63 1.481 . S
C66 C67 1.387 . S
C66 C71 1.390 . S
C67 C66 1.387 . S
C67 C68 1.401 . S
C67 H88 0.930 . S
C68 C67 1.401 . S
C68 C69 1.376 . S
C68 C77 1.511 . S
C69 C68 1.376 . S
C69 C70 1.392 . S
C69 H90 0.931 . S
C70 C69 1.392 . S
C70 C71 1.361 . S
C70 C72 1.500 1_545 S
C71 C66 1.390 . S
C71 C70 1.361 . S
C71 H89 0.931 1_545 S
C72 C70 1.500 1_565 S
C72 C73 1.371 . S
C72 C74 1.365 . S
C73 C72 1.371 . S
C73 C83 1.386 . S
C73 H91 0.931 1_565 S
C74 C72 1.365 . S
C74 C75 1.409 . S
C74 H92 0.929 . S
C75 C74 1.409 . S
C75 C76 1.380 . S
C75 H93 0.930 . S
C76 C75 1.380 . S
C76 C83 1.357 . S
C77 C68 1.511 . S
C77 C78 1.341 . S
C77 C79 1.371 . S
C78 C77 1.341 . S
C78 C82 1.394 . S
C78 H94 0.930 . S
C79 C77 1.371 . S
C79 C80 1.392 . S
C79 H95 0.931 . S
C80 C79 1.392 . S
C80 C81 1.331 . S
C80 H98 0.932 . S
C81 C80 1.331 . S
C81 C82 1.336 . S
C82 C78 1.394 . S
C82 C81 1.336 . S
C82 H97 0.929 . S
C83 C73 1.386 . S
C83 C76 1.357 . S
C83 H96 0.928 . S
H84 C60 0.931 . S
H85 C62 0.930 . S
H86 C64 0.929 1_565 S
H87 C65 0.931 1_565 S
H88 C67 0.930 . S
H89 C71 0.931 1_565 S
H90 C69 0.931 . S
H91 C73 0.931 1_545 S
H92 C74 0.929 . S
H93 C75 0.930 . S
H94 C78 0.930 . S
H95 C79 0.931 . S
H96 C83 0.928 . S
H97 C82 0.929 . S
H98 C80 0.932 . S
C99 C100 1.386 . S
C99 C101 1.397 . S
C99 H123 0.931 . S
C100 C99 1.386 . S
C100 C104 1.397 . S
C101 C99 1.397 . S
C101 C102 1.384 . S
C101 H124 0.930 . S
C102 C101 1.384 . S
C102 C103 1.377 . S
C102 C105 1.481 . S
C103 C102 1.377 . S
C103 C104 1.389 . S
C103 H125 0.929 . S
C104 C100 1.397 . S
C104 C103 1.389 . S
C104 H126 0.931 . S
C105 C102 1.481 . S
C105 C106 1.387 . S
C105 C110 1.390 . S
C106 C105 1.387 . S
C106 C107 1.401 . S
C106 H127 0.930 . S
C107 C106 1.401 . S
C107 C108 1.376 . S
C107 C116 1.511 . S
C108 C107 1.376 . S
C108 C109 1.392 . S
C108 H129 0.931 . S
C109 C108 1.392 . S
C109 C110 1.361 . S
C109 C111 1.500 . S
C110 C105 1.390 . S
C110 C109 1.361 . S
C110 H128 0.931 . S
C111 C109 1.500 . S
C111 C112 1.371 . S
C111 C113 1.365 . S
C112 C111 1.371 . S
C112 C122 1.386 . S
C112 H130 0.931 . S
C113 C111 1.365 . S
C113 C114 1.409 . S
C113 H131 0.929 . S
C114 C113 1.409 . S
C114 C115 1.380 . S
C114 H132 0.930 . S
C115 C114 1.380 . S
C115 C122 1.357 . S
C116 C107 1.511 . S
C116 C117 1.341 . S
C116 C118 1.371 . S
C117 C116 1.341 . S
C117 C121 1.394 . S
C117 H133 0.930 . S
C118 C116 1.371 . S
C118 C119 1.392 . S
C118 H134 0.931 . S
C119 C118 1.392 . S
C119 C120 1.331 . S
C119 H137 0.932 . S
C120 C119 1.331 . S
C120 C121 1.336 . S
C121 C117 1.394 . S
C121 C120 1.336 . S
C121 H136 0.929 . S
C122 C112 1.386 . S
C122 C115 1.357 . S
C122 H135 0.928 . S
H123 C99 0.931 . S
H124 C101 0.930 . S
H125 C103 0.929 . S
H126 C104 0.931 . S
H127 C106 0.930 . S
H128 C110 0.931 . S
H129 C108 0.931 . S
H130 C112 0.931 . S
H131 C113 0.929 . S
H132 C114 0.930 . S
H133 C117 0.930 . S
H134 C118 0.931 . S
H135 C122 0.928 . S
H136 C121 0.929 . S
H137 C119 0.932 . S
C138 C139 1.386 . S
C138 C140 1.397 . S
C138 H162 0.931 . S
C139 C138 1.386 . S
C139 C143 1.397 . S
C140 C138 1.397 . S
C140 C141 1.384 . S
C140 H163 0.930 . S
C141 C140 1.384 . S
C141 C142 1.377 . S
C141 C144 1.481 . S
C142 C141 1.377 . S
C142 C143 1.389 . S
C142 H164 0.929 1_455 S
C143 C139 1.397 . S
C143 C142 1.389 . S
C143 H165 0.931 1_455 S
C144 C141 1.481 . S
C144 C145 1.387 . S
C144 C149 1.390 . S
C145 C144 1.387 . S
C145 C146 1.401 . S
C145 H166 0.930 . S
C146 C145 1.401 . S
C146 C147 1.376 . S
C146 C155 1.511 . S
C147 C146 1.376 . S
C147 C148 1.392 . S
C147 H168 0.931 . S
C148 C147 1.392 . S
C148 C149 1.361 . S
C148 C150 1.500 1_455 S
C149 C144 1.390 . S
C149 C148 1.361 . S
C149 H167 0.931 1_455 S
C150 C148 1.500 1_655 S
C150 C151 1.371 . S
C150 C152 1.365 . S
C151 C150 1.371 . S
C151 C161 1.386 . S
C151 H169 0.931 1_655 S
C152 C150 1.365 . S
C152 C153 1.409 . S
C152 H170 0.929 . S
C153 C152 1.409 . S
C153 C154 1.380 . S
C153 H171 0.930 . S
C154 C153 1.380 . S
C154 C161 1.357 . S
C155 C146 1.511 . S
C155 C156 1.341 . S
C155 C157 1.371 . S
C156 C155 1.341 . S
C156 C160 1.394 . S
C156 H172 0.930 . S
C157 C155 1.371 . S
C157 C158 1.392 . S
C157 H173 0.931 . S
C158 C157 1.392 . S
C158 C159 1.331 . S
C158 H176 0.932 . S
C159 C158 1.331 . S
C159 C160 1.336 . S
C160 C156 1.394 . S
C160 C159 1.336 . S
C160 H175 0.929 . S
C161 C151 1.386 . S
C161 C154 1.357 . S
C161 H174 0.928 . S
H162 C138 0.931 . S
H163 C140 0.930 . S
H164 C142 0.929 1_655 S
H165 C143 0.931 1_655 S
H166 C145 0.930 . S
H167 C149 0.931 1_655 S
H168 C147 0.931 . S
H169 C151 0.931 1_455 S
H170 C152 0.929 . S
H171 C153 0.930 . S
H172 C156 0.930 . S
H173 C157 0.931 . S
H174 C161 0.928 . S
H175 C160 0.929 . S
H176 C158 0.932 . S
C177 C178 1.386 1_655 S
C177 C179 1.397 . S
C177 H201 0.931 . S
C178 C177 1.386 1_455 S
C178 C182 1.397 . S
C179 C177 1.397 . S
C179 C180 1.384 1_655 S
C179 H202 0.930 . S
C180 C179 1.384 1_455 S
C180 C181 1.377 . S
C180 C183 1.481 . S
C181 C180 1.377 . S
C181 C182 1.389 . S
C181 H203 0.929 . S
C182 C178 1.397 . S
C182 C181 1.389 . S
C182 H204 0.931 . S
C183 C180 1.481 . S
C183 C184 1.387 1_455 S
C183 C188 1.390 . S
C184 C183 1.387 1_655 S
C184 C185 1.401 . S
C184 H205 0.930 . S
C185 C184 1.401 . S
C185 C186 1.376 1_655 S
C185 C194 1.511 . S
C186 C185 1.376 1_455 S
C186 C187 1.392 . S
C186 H207 0.931 . S
C187 C186 1.392 . S
C187 C188 1.361 . S
C187 C189 1.500 . S
C188 C183 1.390 . S
C188 C187 1.361 . S
C188 H206 0.931 . S
C189 C187 1.500 . S
C189 C190 1.371 . S
C189 C191 1.365 . S
C190 C189 1.371 . S
C190 C200 1.386 . S
C190 H208 0.931 . S
C191 C189 1.365 . S
C191 C192 1.409 . S
C191 H209 0.929 . S
C192 C191 1.409 . S
C192 C193 1.380 . S
C192 H210 0.930 . S
C193 C192 1.380 . S
C193 C200 1.357 . S
C194 C185 1.511 . S
C194 C195 1.341 . S
C194 C196 1.371 . S
C195 C194 1.341 . S
C195 C199 1.394 . S
C195 H211 0.930 . S
C196 C194 1.371 . S
C196 C197 1.392 . S
C196 H212 0.931 . S
C197 C196 1.392 . S
C197 C198 1.331 . S
C197 H215 0.932 . S
C198 C197 1.331 . S
C198 C199 1.336 . S
C199 C195 1.394 . S
C199 C198 1.336 . S
C199 H214 0.929 . S
C200 C190 1.386 . S
C200 C193 1.357 . S
C200 H213 0.928 . S
H201 C177 0.931 . S
H202 C179 0.930 . S
H203 C181 0.929 . S
H204 C182 0.931 . S
H205 C184 0.930 . S
H206 C188 0.931 . S
H207 C186 0.931 . S
H208 C190 0.931 . S
H209 C191 0.929 . S
H210 C192 0.930 . S
H211 C195 0.930 . S
H212 C196 0.931 . S
H213 C200 0.928 . S
H214 C199 0.929 . S
H215 C197 0.932 . S
C216 C217 1.386 1_565 S
C216 C218 1.397 . S
C216 H240 0.931 . S
C217 C216 1.386 1_545 S
C217 C221 1.397 . S
C218 C216 1.397 . S
C218 C219 1.384 1_565 S
C218 H241 0.930 . S
C219 C218 1.384 1_545 S
C219 C220 1.377 . S
C219 C222 1.481 . S
C220 C219 1.377 . S
C220 C221 1.389 . S
C220 H242 0.929 . S
C221 C217 1.397 . S
C221 C220 1.389 . S
C221 H243 0.931 . S
C222 C219 1.481 . S
C222 C223 1.387 1_545 S
C222 C227 1.390 . S
C223 C222 1.387 1_565 S
C223 C224 1.401 . S
C223 H244 0.930 . S
C224 C223 1.401 . S
C224 C225 1.376 1_565 S
C224 C233 1.511 . S
C225 C224 1.376 1_545 S
C225 C226 1.392 . S
C225 H246 0.931 . S
C226 C225 1.392 . S
C226 C227 1.361 . S
C226 C228 1.500 . S
C227 C222 1.390 . S
C227 C226 1.361 . S
C227 H245 0.931 . S
C228 C226 1.500 . S
C228 C229 1.371 . S
C228 C230 1.365 . S
C229 C228 1.371 . S
C229 C239 1.386 . S
C229 H247 0.931 . S
C230 C228 1.365 . S
C230 C231 1.409 . S
C230 H248 0.929 . S
C231 C230 1.409 . S
C231 C232 1.380 . S
C231 H249 0.930 . S
C232 C231 1.380 . S
C232 C239 1.357 . S
C233 C224 1.511 . S
C233 C234 1.341 . S
C233 C235 1.371 . S
C234 C233 1.341 . S
C234 C238 1.394 . S
C234 H250 0.930 . S
C235 C233 1.371 . S
C235 C236 1.392 . S
C235 H251 0.931 . S
C236 C235 1.392 . S
C236 C237 1.331 . S
C236 H254 0.932 . S
C237 C236 1.331 . S
C237 C238 1.336 . S
C238 C234 1.394 . S
C238 C237 1.336 . S
C238 H253 0.929 . S
C239 C229 1.386 . S
C239 C232 1.357 . S
C239 H252 0.928 . S
H240 C216 0.931 . S
H241 C218 0.930 . S
H242 C220 0.929 . S
H243 C221 0.931 . S
H244 C223 0.930 . S
H245 C227 0.931 . S
H246 C225 0.931 . S
H247 C229 0.931 . S
H248 C230 0.929 . S
H249 C231 0.930 . S
H250 C234 0.930 . S
H251 C235 0.931 . S
H252 C239 0.928 . S
H253 C238 0.929 . S
H254 C236 0.932 . S
C255 C256 1.386 . S
C255 C257 1.397 . S
C255 H279 0.931 . S
C256 C255 1.386 . S
C256 C260 1.397 . S
C257 C255 1.397 . S
C257 C258 1.384 . S
C257 H280 0.930 . S
C258 C257 1.384 . S
C258 C259 1.377 . S
C258 C261 1.481 . S
C259 C258 1.377 . S
C259 C260 1.389 . S
C259 H281 0.929 . S
C260 C256 1.397 . S
C260 C259 1.389 . S
C260 H282 0.931 . S
C261 C258 1.481 . S
C261 C262 1.387 . S
C261 C266 1.390 . S
C262 C261 1.387 . S
C262 C263 1.401 . S
C262 H283 0.930 . S
C263 C262 1.401 . S
C263 C264 1.376 . S
C263 C272 1.511 . S
C264 C263 1.376 . S
C264 C265 1.392 . S
C264 H285 0.931 . S
C265 C264 1.392 . S
C265 C266 1.361 . S
C265 C267 1.500 . S
C266 C261 1.390 . S
C266 C265 1.361 . S
C266 H284 0.931 . S
C267 C265 1.500 . S
C267 C268 1.371 . S
C267 C269 1.365 . S
C268 C267 1.371 . S
C268 C278 1.386 . S
C268 H286 0.931 . S
C269 C267 1.365 . S
C269 C270 1.409 . S
C269 H287 0.929 . S
C270 C269 1.409 . S
C270 C271 1.380 . S
C270 H288 0.930 . S
C271 C270 1.380 . S
C271 C278 1.357 . S
C272 C263 1.511 . S
C272 C273 1.341 . S
C272 C274 1.371 . S
C273 C272 1.341 . S
C273 C277 1.394 . S
C273 H289 0.930 . S
C274 C272 1.371 . S
C274 C275 1.392 . S
C274 H290 0.931 . S
C275 C274 1.392 . S
C275 C276 1.331 . S
C275 H293 0.932 . S
C276 C275 1.331 . S
C276 C277 1.336 . S
C277 C273 1.394 . S
C277 C276 1.336 . S
C277 H292 0.929 . S
C278 C268 1.386 . S
C278 C271 1.357 . S
C278 H291 0.928 . S
H279 C255 0.931 . S
H280 C257 0.930 . S
H281 C259 0.929 . S
H282 C260 0.931 . S
H283 C262 0.930 . S
H284 C266 0.931 . S
H285 C264 0.931 . S
H286 C268 0.931 . S
H287 C269 0.929 . S
H288 C270 0.930 . S
H289 C273 0.930 . S
H290 C274 0.931 . S
H291 C278 0.928 . S
H292 C277 0.929 . S
H293 C275 0.932 . S
C294 C295 1.349 . S
C294 C296 1.327 . S
C294 H319 0.950 . S
C295 C294 1.349 . S
C295 C311 1.349 . S
C296 C294 1.327 . S
C296 C315 1.429 . S
C296 H320 0.950 . S
C297 C314 1.574 . S
C297 C316 1.368 . S
C297 H321 0.949 . S
H298 C302 0.949 . S
C299 C300 1.349 . S
C299 C301 1.327 . S
C299 H322 0.950 . S
C300 C299 1.349 . S
C300 C312 1.349 . S
C301 C299 1.327 . S
C301 C317 1.429 . S
C301 H323 0.950 . S
C302 H298 0.949 . S
C302 C310 1.574 . S
C302 C318 1.368 . S
H303 C311 0.950 . S
H304 C309 0.950 . S
H305 C310 0.949 . S
H306 C312 0.950 . S
H307 C313 0.950 . S
H308 C314 0.949 . S
C309 H304 0.950 . S
C309 C311 1.327 . S
C309 C315 1.429 . S
C310 C302 1.574 . S
C310 H305 0.949 . S
C310 C316 1.368 . S
C311 C295 1.349 . S
C311 H303 0.950 . S
C311 C309 1.327 . S
C312 C300 1.349 . S
C312 H306 0.950 . S
C312 C313 1.327 . S
C313 H307 0.950 . S
C313 C312 1.327 . S
C313 C317 1.429 . S
C314 C297 1.574 . S
C314 H308 0.949 . S
C314 C318 1.368 . S
C315 C296 1.429 . S
C315 C309 1.429 . S
C315 C316 1.523 . S
C316 C297 1.368 . S
C316 C310 1.368 . S
C316 C315 1.523 . S
C317 C301 1.429 . S
C317 C313 1.429 . S
C317 C318 1.523 . S
C318 C302 1.368 . S
C318 C314 1.368 . S
C318 C317 1.523 . S
H319 C294 0.950 . S
H320 C296 0.950 . S
H321 C297 0.949 . S
H322 C299 0.950 . S
H323 C301 0.950 . S
C324 C325 1.349 . S
C324 C326 1.327 . S
C324 H349 0.950 . S
C325 C324 1.349 . S
C325 C341 1.349 . S
C326 C324 1.327 . S
C326 C345 1.429 . S
C326 H350 0.950 . S
C327 C344 1.574 . S
C327 C346 1.368 . S
C327 H351 0.949 . S
H328 C332 0.949 . S
C329 C330 1.349 . S
C329 C331 1.327 . S
C329 H352 0.950 . S
C330 C329 1.349 . S
C330 C342 1.349 . S
C331 C329 1.327 . S
C331 C347 1.429 . S
C331 H353 0.950 . S
C332 H328 0.949 . S
C332 C340 1.574 . S
C332 C348 1.368 . S
H333 C341 0.950 . S
H334 C339 0.950 . S
H335 C340 0.949 . S
H336 C342 0.950 . S
H337 C343 0.950 . S
H338 C344 0.949 . S
C339 H334 0.950 . S
C339 C341 1.327 . S
C339 C345 1.429 . S
C340 C332 1.574 . S
C340 H335 0.949 . S
C340 C346 1.368 . S
C341 C325 1.349 . S
C341 H333 0.950 . S
C341 C339 1.327 . S
C342 C330 1.349 . S
C342 H336 0.950 . S
C342 C343 1.327 . S
C343 H337 0.950 . S
C343 C342 1.327 . S
C343 C347 1.429 . S
C344 C327 1.574 . S
C344 H338 0.949 . S
C344 C348 1.368 . S
C345 C326 1.429 . S
C345 C339 1.429 . S
C345 C346 1.523 . S
C346 C327 1.368 . S
C346 C340 1.368 . S
C346 C345 1.523 . S
C347 C331 1.429 . S
C347 C343 1.429 . S
C347 C348 1.523 . S
C348 C332 1.368 . S
C348 C344 1.368 . S
C348 C347 1.523 . S
H349 C324 0.950 . S
H350 C326 0.950 . S
H351 C327 0.949 . S
H352 C329 0.950 . S
H353 C331 0.950 . S
C354 C355 1.349 . S
C354 C356 1.327 . S
C354 H379 0.950 . S
C355 C354 1.349 . S
C355 C371 1.349 . S
C356 C354 1.327 . S
C356 C375 1.429 . S
C356 H380 0.950 . S
C357 C374 1.574 . S
C357 C376 1.368 . S
C357 H381 0.949 . S
H358 C362 0.949 . S
C359 C360 1.349 . S
C359 C361 1.327 . S
C359 H382 0.950 . S
C360 C359 1.349 . S
C360 C372 1.349 . S
C361 C359 1.327 . S
C361 C377 1.429 . S
C361 H383 0.950 . S
C362 H358 0.949 . S
C362 C370 1.574 . S
C362 C378 1.368 . S
H363 C371 0.950 . S
H364 C369 0.950 . S
H365 C370 0.949 . S
H366 C372 0.950 . S
H367 C373 0.950 . S
H368 C374 0.949 . S
C369 H364 0.950 . S
C369 C371 1.327 . S
C369 C375 1.429 . S
C370 C362 1.574 . S
C370 H365 0.949 . S
C370 C376 1.368 . S
C371 C355 1.349 . S
C371 H363 0.950 . S
C371 C369 1.327 . S
C372 C360 1.349 . S
C372 H366 0.950 . S
C372 C373 1.327 . S
C373 H367 0.950 . S
C373 C372 1.327 . S
C373 C377 1.429 . S
C374 C357 1.574 . S
C374 H368 0.949 . S
C374 C378 1.368 . S
C375 C356 1.429 . S
C375 C369 1.429 . S
C375 C376 1.523 . S
C376 C357 1.368 . S
C376 C370 1.368 . S
C376 C375 1.523 . S
C377 C361 1.429 . S
C377 C373 1.429 . S
C377 C378 1.523 . S
C378 C362 1.368 . S
C378 C374 1.368 . S
C378 C377 1.523 . S
H379 C354 0.950 . S
H380 C356 0.950 . S
H381 C357 0.949 . S
H382 C359 0.950 . S
H383 C361 0.950 . S
C384 C385 1.349 . S
C384 C386 1.327 . S
C384 H409 0.950 . S
C385 C384 1.349 . S
C385 C401 1.349 . S
C386 C384 1.327 . S
C386 C405 1.429 . S
C386 H410 0.950 . S
C387 C404 1.574 . S
C387 C406 1.368 . S
C387 H411 0.949 . S
H388 C392 0.949 . S
C389 C390 1.349 . S
C389 C391 1.327 . S
C389 H412 0.950 . S
C390 C389 1.349 . S
C390 C402 1.349 . S
C391 C389 1.327 . S
C391 C407 1.429 . S
C391 H413 0.950 . S
C392 H388 0.949 . S
C392 C400 1.574 . S
C392 C408 1.368 . S
H393 C401 0.950 . S
H394 C399 0.950 . S
H395 C400 0.949 . S
H396 C402 0.950 . S
H397 C403 0.950 . S
H398 C404 0.949 . S
C399 H394 0.950 . S
C399 C401 1.327 . S
C399 C405 1.429 . S
C400 C392 1.574 . S
C400 H395 0.949 . S
C400 C406 1.368 . S
C401 C385 1.349 . S
C401 H393 0.950 . S
C401 C399 1.327 . S
C402 C390 1.349 . S
C402 H396 0.950 . S
C402 C403 1.327 . S
C403 H397 0.950 . S
C403 C402 1.327 . S
C403 C407 1.429 . S
C404 C387 1.574 . S
C404 H398 0.949 . S
C404 C408 1.368 . S
C405 C386 1.429 . S
C405 C399 1.429 . S
C405 C406 1.523 . S
C406 C387 1.368 . S
C406 C400 1.368 . S
C406 C405 1.523 . S
C407 C391 1.429 . S
C407 C403 1.429 . S
C407 C408 1.523 . S
C408 C392 1.368 . S
C408 C404 1.368 . S
C408 C407 1.523 . S
H409 C384 0.950 . S
H410 C386 0.950 . S
H411 C387 0.949 . S
H412 C389 0.950 . S
H413 C391 0.950 . S
C414 C415 1.349 . S
C414 C416 1.327 . S
C414 H439 0.950 . S
C415 C414 1.349 . S
C415 C431 1.349 . S
C416 C414 1.327 . S
C416 C435 1.429 . S
C416 H440 0.950 . S
C417 C434 1.574 . S
C417 C436 1.368 . S
C417 H441 0.949 . S
H418 C422 0.949 . S
C419 C420 1.349 . S
C419 C421 1.327 . S
C419 H442 0.950 . S
C420 C419 1.349 . S
C420 C432 1.349 . S
C421 C419 1.327 . S
C421 C437 1.429 . S
C421 H443 0.950 . S
C422 H418 0.949 . S
C422 C430 1.574 . S
C422 C438 1.368 . S
H423 C431 0.950 . S
H424 C429 0.950 . S
H425 C430 0.949 . S
H426 C432 0.950 . S
H427 C433 0.950 . S
H428 C434 0.949 . S
C429 H424 0.950 . S
C429 C431 1.327 . S
C429 C435 1.429 . S
C430 C422 1.574 . S
C430 H425 0.949 . S
C430 C436 1.368 . S
C431 C415 1.349 . S
C431 H423 0.950 . S
C431 C429 1.327 . S
C432 C420 1.349 . S
C432 H426 0.950 . S
C432 C433 1.327 . S
C433 H427 0.950 . S
C433 C432 1.327 . S
C433 C437 1.429 . S
C434 C417 1.574 . S
C434 H428 0.949 . S
C434 C438 1.368 . S
C435 C416 1.429 . S
C435 C429 1.429 . S
C435 C436 1.523 . S
C436 C417 1.368 . S
C436 C430 1.368 . S
C436 C435 1.523 . S
C437 C421 1.429 . S
C437 C433 1.429 . S
C437 C438 1.523 . S
C438 C422 1.368 . S
C438 C434 1.368 . S
C438 C437 1.523 . S
H439 C414 0.950 . S
H440 C416 0.950 . S
H441 C417 0.949 . S
H442 C419 0.950 . S
H443 C421 0.950 . S
C444 C445 1.349 . S
C444 C446 1.327 . S
C444 H469 0.950 . S
C445 C444 1.349 . S
C445 C461 1.349 . S
C446 C444 1.327 . S
C446 C465 1.429 . S
C446 H470 0.950 . S
C447 C464 1.574 . S
C447 C466 1.368 . S
C447 H471 0.949 . S
H448 C452 0.949 . S
C449 C450 1.349 . S
C449 C451 1.327 . S
C449 H472 0.950 . S
C450 C449 1.349 . S
C450 C462 1.349 . S
C451 C449 1.327 . S
C451 C467 1.429 . S
C451 H473 0.950 . S
C452 H448 0.949 . S
C452 C460 1.574 . S
C452 C468 1.368 . S
H453 C461 0.950 . S
H454 C459 0.950 . S
H455 C460 0.949 . S
H456 C462 0.950 . S
H457 C463 0.950 . S
H458 C464 0.949 . S
C459 H454 0.950 . S
C459 C461 1.327 . S
C459 C465 1.429 . S
C460 C452 1.574 . S
C460 H455 0.949 . S
C460 C466 1.368 . S
C461 C445 1.349 . S
C461 H453 0.950 . S
C461 C459 1.327 . S
C462 C450 1.349 . S
C462 H456 0.950 . S
C462 C463 1.327 . S
C463 H457 0.950 . S
C463 C462 1.327 . S
C463 C467 1.429 . S
C464 C447 1.574 . S
C464 H458 0.949 . S
C464 C468 1.368 . S
C465 C446 1.429 . S
C465 C459 1.429 . S
C465 C466 1.523 . S
C466 C447 1.368 . S
C466 C460 1.368 . S
C466 C465 1.523 . S
C467 C451 1.429 . S
C467 C463 1.429 . S
C467 C468 1.523 . S
C468 C452 1.368 . S
C468 C464 1.368 . S
C468 C467 1.523 . S
H469 C444 0.950 . S
H470 C446 0.950 . S
H471 C447 0.949 . S
H472 C449 0.950 . S
H473 C451 0.950 . S
C474 C475 1.349 . S
C474 C476 1.327 . S
C474 H499 0.950 . S
C475 C474 1.349 . S
C475 C491 1.349 . S
C476 C474 1.327 . S
C476 C495 1.429 . S
C476 H500 0.950 . S
C477 C494 1.574 . S
C477 C496 1.368 . S
C477 H501 0.949 . S
H478 C482 0.949 . S
C479 C480 1.349 . S
C479 C481 1.327 . S
C479 H502 0.950 . S
C480 C479 1.349 . S
C480 C492 1.349 . S
C481 C479 1.327 . S
C481 C497 1.429 . S
C481 H503 0.950 . S
C482 H478 0.949 . S
C482 C490 1.574 . S
C482 C498 1.368 . S
H483 C491 0.950 . S
H484 C489 0.950 . S
H485 C490 0.949 . S
H486 C492 0.950 . S
H487 C493 0.950 . S
H488 C494 0.949 . S
C489 H484 0.950 . S
C489 C491 1.327 . S
C489 C495 1.429 . S
C490 C482 1.574 . S
C490 H485 0.949 . S
C490 C496 1.368 . S
C491 C475 1.349 . S
C491 H483 0.950 . S
C491 C489 1.327 . S
C492 C480 1.349 . S
C492 H486 0.950 . S
C492 C493 1.327 . S
C493 H487 0.950 . S
C493 C492 1.327 . S
C493 C497 1.429 . S
C494 C477 1.574 . S
C494 H488 0.949 . S
C494 C498 1.368 . S
C495 C476 1.429 . S
C495 C489 1.429 . S
C495 C496 1.523 . S
C496 C477 1.368 . S
C496 C490 1.368 . S
C496 C495 1.523 . S
C497 C481 1.429 . S
C497 C493 1.429 . S
C497 C498 1.523 . S
C498 C482 1.368 . S
C498 C494 1.368 . S
C498 C497 1.523 . S
H499 C474 0.950 . S
H500 C476 0.950 . S
H501 C477 0.949 . S
H502 C479 0.950 . S
H503 C481 0.950 . S
C504 C505 1.349 . S
C504 C506 1.327 . S
C504 H529 0.950 . S
C505 C504 1.349 . S
C505 C521 1.349 . S
C506 C504 1.327 . S
C506 C525 1.429 . S
C506 H530 0.950 . S
C507 C524 1.574 . S
C507 C526 1.368 . S
C507 H531 0.949 . S
H508 C512 0.949 . S
C509 C510 1.349 . S
C509 C511 1.327 . S
C509 H532 0.950 . S
C510 C509 1.349 . S
C510 C522 1.349 . S
C511 C509 1.327 . S
C511 C527 1.429 . S
C511 H533 0.950 . S
C512 H508 0.949 . S
C512 C520 1.574 . S
C512 C528 1.368 . S
H513 C521 0.950 . S
H514 C519 0.950 . S
H515 C520 0.949 . S
H516 C522 0.950 . S
H517 C523 0.950 . S
H518 C524 0.949 . S
C519 H514 0.950 . S
C519 C521 1.327 . S
C519 C525 1.429 . S
C520 C512 1.574 . S
C520 H515 0.949 . S
C520 C526 1.368 . S
C521 C505 1.349 . S
C521 H513 0.950 . S
C521 C519 1.327 . S
C522 C510 1.349 . S
C522 H516 0.950 . S
C522 C523 1.327 . S
C523 H517 0.950 . S
C523 C522 1.327 . S
C523 C527 1.429 . S
C524 C507 1.574 . S
C524 H518 0.949 . S
C524 C528 1.368 . S
C525 C506 1.429 . S
C525 C519 1.429 . S
C525 C526 1.523 . S
C526 C507 1.368 . S
C526 C520 1.368 . S
C526 C525 1.523 . S
C527 C511 1.429 . S
C527 C523 1.429 . S
C527 C528 1.523 . S
C528 C512 1.368 . S
C528 C524 1.368 . S
C528 C527 1.523 . S
H529 C504 0.950 . S
H530 C506 0.950 . S
H531 C507 0.949 . S
H532 C509 0.950 . S
H533 C511 0.950 . S
C534 C535 1.349 . S
C534 C536 1.327 . S
C534 H559 0.950 . S
C535 C534 1.349 . S
C535 C551 1.349 . S
C536 C534 1.327 . S
C536 C555 1.429 . S
C536 H560 0.950 . S
C537 C554 1.574 . S
C537 C556 1.368 . S
C537 H561 0.949 . S
H538 C542 0.949 . S
C539 C540 1.349 . S
C539 C541 1.327 . S
C539 H562 0.950 . S
C540 C539 1.349 . S
C540 C552 1.349 . S
C541 C539 1.327 . S
C541 C557 1.429 . S
C541 H563 0.950 . S
C542 H538 0.949 . S
C542 C550 1.574 . S
C542 C558 1.368 . S
H543 C551 0.950 . S
H544 C549 0.950 . S
H545 C550 0.949 . S
H546 C552 0.950 . S
H547 C553 0.950 . S
H548 C554 0.949 . S
C549 H544 0.950 . S
C549 C551 1.327 . S
C549 C555 1.429 . S
C550 C542 1.574 . S
C550 H545 0.949 . S
C550 C556 1.368 . S
C551 C535 1.349 . S
C551 H543 0.950 . S
C551 C549 1.327 . S
C552 C540 1.349 . S
C552 H546 0.950 . S
C552 C553 1.327 . S
C553 H547 0.950 . S
C553 C552 1.327 . S
C553 C557 1.429 . S
C554 C537 1.574 . S
C554 H548 0.949 . S
C554 C558 1.368 . S
C555 C536 1.429 . S
C555 C549 1.429 . S
C555 C556 1.523 . S
C556 C537 1.368 . S
C556 C550 1.368 . S
C556 C555 1.523 . S
C557 C541 1.429 . S
C557 C553 1.429 . S
C557 C558 1.523 . S
C558 C542 1.368 . S
C558 C554 1.368 . S
C558 C557 1.523 . S
H559 C534 0.950 . S
H560 C536 0.950 . S
H561 C537 0.949 . S
H562 C539 0.950 . S
H563 C541 0.950 . S
C564 C565 1.349 . S
C564 C566 1.327 . S
C564 H589 0.950 . S
C565 C564 1.349 . S
C565 C581 1.349 . S
C566 C564 1.327 . S
C566 C585 1.429 . S
C566 H590 0.950 . S
C567 C584 1.574 . S
C567 C586 1.368 . S
C567 H591 0.949 . S
H568 C572 0.949 . S
C569 C570 1.349 . S
C569 C571 1.327 . S
C569 H592 0.950 . S
C570 C569 1.349 . S
C570 C582 1.349 . S
C571 C569 1.327 . S
C571 C587 1.429 . S
C571 H593 0.950 . S
C572 H568 0.949 . S
C572 C580 1.574 . S
C572 C588 1.368 . S
H573 C581 0.950 . S
H574 C579 0.950 . S
H575 C580 0.949 . S
H576 C582 0.950 . S
H577 C583 0.950 . S
H578 C584 0.949 . S
C579 H574 0.950 . S
C579 C581 1.327 . S
C579 C585 1.429 . S
C580 C572 1.574 . S
C580 H575 0.949 . S
C580 C586 1.368 . S
C581 C565 1.349 . S
C581 H573 0.950 . S
C581 C579 1.327 . S
C582 C570 1.349 . S
C582 H576 0.950 . S
C582 C583 1.327 . S
C583 H577 0.950 . S
C583 C582 1.327 . S
C583 C587 1.429 . S
C584 C567 1.574 . S
C584 H578 0.949 . S
C584 C588 1.368 . S
C585 C566 1.429 . S
C585 C579 1.429 . S
C585 C586 1.523 . S
C586 C567 1.368 . S
C586 C580 1.368 . S
C586 C585 1.523 . S
C587 C571 1.429 . S
C587 C583 1.429 . S
C587 C588 1.523 . S
C588 C572 1.368 . S
C588 C584 1.368 . S
C588 C587 1.523 . S
H589 C564 0.950 . S
H590 C566 0.950 . S
H591 C567 0.949 . S
H592 C569 0.950 . S
H593 C571 0.950 . S
C594 C595 1.349 . S
C594 C596 1.327 . S
C594 H619 0.950 . S
C595 C594 1.349 . S
C595 C611 1.349 . S
C596 C594 1.327 . S
C596 C615 1.429 . S
C596 H620 0.950 . S
C597 C614 1.574 . S
C597 C616 1.368 . S
C597 H621 0.949 . S
H598 C602 0.949 . S
C599 C600 1.349 . S
C599 C601 1.327 . S
C599 H622 0.950 . S
C600 C599 1.349 . S
C600 C612 1.349 . S
C601 C599 1.327 . S
C601 C617 1.429 . S
C601 H623 0.950 . S
C602 H598 0.949 . S
C602 C610 1.574 . S
C602 C618 1.368 . S
H603 C611 0.950 . S
H604 C609 0.950 . S
H605 C610 0.949 . S
H606 C612 0.950 . S
H607 C613 0.950 . S
H608 C614 0.949 . S
C609 H604 0.950 . S
C609 C611 1.327 . S
C609 C615 1.429 . S
C610 C602 1.574 . S
C610 H605 0.949 . S
C610 C616 1.368 . S
C611 C595 1.349 . S
C611 H603 0.950 . S
C611 C609 1.327 . S
C612 C600 1.349 . S
C612 H606 0.950 . S
C612 C613 1.327 . S
C613 H607 0.950 . S
C613 C612 1.327 . S
C613 C617 1.429 . S
C614 C597 1.574 . S
C614 H608 0.949 . S
C614 C618 1.368 . S
C615 C596 1.429 . S
C615 C609 1.429 . S
C615 C616 1.523 . S
C616 C597 1.368 . S
C616 C610 1.368 . S
C616 C615 1.523 . S
C617 C601 1.429 . S
C617 C613 1.429 . S
C617 C618 1.523 . S
C618 C602 1.368 . S
C618 C614 1.368 . S
C618 C617 1.523 . S
H619 C594 0.950 . S
H620 C596 0.950 . S
H621 C597 0.949 . S
H622 C599 0.950 . S
H623 C601 0.950 . S
C624 C625 1.349 . S
C624 C626 1.327 . S
C624 H649 0.950 . S
C625 C624 1.349 . S
C625 C641 1.349 . S
C626 C624 1.327 . S
C626 C645 1.429 . S
C626 H650 0.950 . S
C627 C644 1.574 . S
C627 C646 1.368 . S
C627 H651 0.949 . S
H628 C632 0.949 . S
C629 C630 1.349 . S
C629 C631 1.327 . S
C629 H652 0.950 . S
C630 C629 1.349 . S
C630 C642 1.349 . S
C631 C629 1.327 . S
C631 C647 1.429 . S
C631 H653 0.950 . S
C632 H628 0.949 . S
C632 C640 1.574 . S
C632 C648 1.368 . S
H633 C641 0.950 . S
H634 C639 0.950 . S
H635 C640 0.949 . S
H636 C642 0.950 . S
H637 C643 0.950 . S
H638 C644 0.949 . S
C639 H634 0.950 . S
C639 C641 1.327 . S
C639 C645 1.429 . S
C640 C632 1.574 . S
C640 H635 0.949 . S
C640 C646 1.368 . S
C641 C625 1.349 . S
C641 H633 0.950 . S
C641 C639 1.327 . S
C642 C630 1.349 . S
C642 H636 0.950 . S
C642 C643 1.327 . S
C643 H637 0.950 . S
C643 C642 1.327 . S
C643 C647 1.429 . S
C644 C627 1.574 . S
C644 H638 0.949 . S
C644 C648 1.368 . S
C645 C626 1.429 . S
C645 C639 1.429 . S
C645 C646 1.523 . S
C646 C627 1.368 . S
C646 C640 1.368 . S
C646 C645 1.523 . S
C647 C631 1.429 . S
C647 C643 1.429 . S
C647 C648 1.523 . S
C648 C632 1.368 . S
C648 C644 1.368 . S
C648 C647 1.523 . S
H649 C624 0.950 . S
H650 C626 0.950 . S
H651 C627 0.949 . S
H652 C629 0.950 . S
H653 C631 0.950 . S
C654 C655 1.349 . S
C654 C656 1.327 . S
C654 H679 0.950 . S
C655 C654 1.349 . S
C655 C671 1.349 1_455 S
C656 C654 1.327 . S
C656 C675 1.429 . S
C656 H680 0.950 . S
C657 C674 1.574 . S
C657 C676 1.368 1_655 S
C657 H681 0.949 . S
H658 C662 0.949 . S
C659 C660 1.349 . S
C659 C661 1.327 1_456 S
C659 H682 0.950 1_455 S
C660 C659 1.349 . S
C660 C672 1.349 . S
C661 C659 1.327 1_654 S
C661 C677 1.429 1_655 S
C661 H683 0.950 . S
C662 H658 0.949 . S
C662 C670 1.574 . S
C662 C678 1.368 . S
H663 C671 0.950 . S
H664 C669 0.950 . S
H665 C670 0.949 . S
H666 C672 0.950 . S
H667 C673 0.950 . S
H668 C674 0.949 . S
C669 H664 0.950 . S
C669 C671 1.327 . S
C669 C675 1.429 1_655 S
C670 C662 1.574 . S
C670 H665 0.949 . S
C670 C676 1.368 . S
C671 C655 1.349 1_655 S
C671 H663 0.950 . S
C671 C669 1.327 . S
C672 C660 1.349 . S
C672 H666 0.950 . S
C672 C673 1.327 1_556 S
C673 H667 0.950 . S
C673 C672 1.327 1_554 S
C673 C677 1.429 . S
C674 C657 1.574 . S
C674 H668 0.949 . S
C674 C678 1.368 1_655 S
C675 C656 1.429 . S
C675 C669 1.429 1_455 S
C675 C676 1.523 . S
C676 C657 1.368 1_455 S
C676 C670 1.368 . S
C676 C675 1.523 . S
C677 C661 1.429 1_455 S
C677 C673 1.429 . S
C677 C678 1.523 . S
C678 C662 1.368 . S
C678 C674 1.368 1_455 S
C678 C677 1.523 . S
H679 C654 0.950 . S
H680 C656 0.950 . S
H681 C657 0.949 . S
H682 C659 0.950 1_655 S
H683 C661 0.950 . S
C684 C685 1.349 . S
C684 C686 1.327 . S
C684 H709 0.950 . S
C685 C684 1.349 . S
C685 C701 1.347 1_545 S
C686 C684 1.327 . S
C686 C705 1.429 . S
C686 H710 0.950 . S
C687 C704 1.574 . S
C687 C706 1.368 . S
C687 H711 0.949 1_545 S
H688 C692 0.949 . S
C689 C690 1.349 . S
C689 C691 1.327 . S
C689 H712 0.949 1_545 S
C690 C689 1.349 . S
C690 C702 1.349 . S
C691 C689 1.327 . S
C691 C707 1.429 . S
C691 H713 0.950 1_545 S
C692 H688 0.949 . S
C692 C700 1.574 . S
C692 C708 1.368 . S
H693 C701 0.957 . S
H694 C699 0.948 1_565 S
H695 C700 0.949 . S
H696 C702 0.950 . S
H697 C703 0.950 . S
H698 C704 0.949 1_565 S
C699 H694 0.948 1_545 S
C699 C701 1.320 1_545 S
C699 C705 1.434 . S
C700 C692 1.574 . S
C700 H695 0.949 . S
C700 C706 1.368 . S
C701 C685 1.347 1_565 S
C701 H693 0.957 . S
C701 C699 1.320 1_565 S
C702 C690 1.349 . S
C702 H696 0.950 . S
C702 C703 1.327 . S
C703 H697 0.950 . S
C703 C702 1.327 . S
C703 C707 1.429 . S
C704 C687 1.574 . S
C704 H698 0.949 1_545 S
C704 C708 1.368 . S
C705 C686 1.429 . S
C705 C699 1.434 . S
C705 C706 1.523 . S
C706 C687 1.368 . S
C706 C700 1.368 . S
C706 C705 1.523 . S
C707 C691 1.429 . S
C707 C703 1.429 . S
C707 C708 1.523 . S
C708 C692 1.368 . S
C708 C704 1.368 . S
C708 C707 1.523 . S
H709 C684 0.950 . S
H710 C686 0.950 . S
H711 C687 0.949 1_565 S
H712 C689 0.949 1_565 S
H713 C691 0.950 1_565 S
C714 C715 1.349 . S
C714 C716 1.327 . S
C714 H739 0.950 . S
C715 C714 1.349 . S
C715 C731 1.349 . S
C716 C714 1.327 . S
C716 C735 1.429 . S
C716 H740 0.950 . S
C717 C734 1.574 . S
C717 C736 1.368 . S
C717 H741 0.949 . S
H718 C722 0.949 . S
C719 C720 1.349 . S
C719 C721 1.327 . S
C719 H742 0.950 . S
C720 C719 1.349 . S
C720 C732 1.349 . S
C721 C719 1.327 . S
C721 C737 1.429 . S
C721 H743 0.950 . S
C722 H718 0.949 . S
C722 C730 1.574 . S
C722 C738 1.368 . S
H723 C731 0.950 . S
H724 C729 0.950 . S
H725 C730 0.949 . S
H726 C732 0.950 . S
H727 C733 0.950 . S
H728 C734 0.949 . S
C729 H724 0.950 . S
C729 C731 1.327 . S
C729 C735 1.429 . S
C730 C722 1.574 . S
C730 H725 0.949 . S
C730 C736 1.368 . S
C731 C715 1.349 . S
C731 H723 0.950 . S
C731 C729 1.327 . S
C732 C720 1.349 . S
C732 H726 0.950 . S
C732 C733 1.327 . S
C733 H727 0.950 . S
C733 C732 1.327 . S
C733 C737 1.429 . S
C734 C717 1.574 . S
C734 H728 0.949 . S
C734 C738 1.368 . S
C735 C716 1.429 . S
C735 C729 1.429 . S
C735 C736 1.523 . S
C736 C717 1.368 . S
C736 C730 1.368 . S
C736 C735 1.523 . S
C737 C721 1.429 . S
C737 C733 1.429 . S
C737 C738 1.523 . S
C738 C722 1.368 . S
C738 C734 1.368 . S
C738 C737 1.523 . S
H739 C714 0.950 . S
H740 C716 0.950 . S
H741 C717 0.949 . S
H742 C719 0.950 . S
H743 C721 0.950 . S
C744 C745 1.349 . S
C744 C746 1.327 . S
C744 H769 0.950 . S
C745 C744 1.349 . S
C745 C761 1.349 1_545 S
C746 C744 1.327 . S
C746 C765 1.429 . S
C746 H770 0.950 . S
C747 C764 1.574 . S
C747 C766 1.368 1_565 S
C747 H771 0.949 . S
H748 C752 0.949 . S
C749 C750 1.349 1_565 S
C749 C751 1.327 . S
C749 H772 0.950 . S
C750 C749 1.349 1_545 S
C750 C762 1.349 . S
C751 C749 1.327 . S
C751 C767 1.429 1_565 S
C751 H773 0.950 . S
C752 H748 0.949 . S
C752 C760 1.574 . S
C752 C768 1.368 . S
H753 C761 0.950 . S
H754 C759 0.950 . S
H755 C760 0.949 . S
H756 C762 0.950 . S
H757 C763 0.950 . S
H758 C764 0.949 . S
C759 H754 0.950 . S
C759 C761 1.327 . S
C759 C765 1.429 1_565 S
C760 C752 1.574 . S
C760 H755 0.949 . S
C760 C766 1.368 . S
C761 C745 1.349 1_565 S
C761 H753 0.950 . S
C761 C759 1.327 . S
C762 C750 1.349 . S
C762 H756 0.950 . S
C762 C763 1.327 . S
C763 H757 0.950 . S
C763 C762 1.327 . S
C763 C767 1.429 . S
C764 C747 1.574 . S
C764 H758 0.949 . S
C764 C768 1.368 1_565 S
C765 C746 1.429 . S
C765 C759 1.429 1_545 S
C765 C766 1.523 . S
C766 C747 1.368 1_545 S
C766 C760 1.368 . S
C766 C765 1.523 . S
C767 C751 1.429 1_545 S
C767 C763 1.429 . S
C767 C768 1.523 . S
C768 C752 1.368 . S
C768 C764 1.368 1_545 S
C768 C767 1.523 . S
H769 C744 0.950 . S
H770 C746 0.950 . S
H771 C747 0.949 . S
H772 C749 0.950 . S
H773 C751 0.950 . S
C774 C775 1.349 . S
C774 C776 1.327 . S
C774 H799 0.950 . S
C775 C774 1.349 . S
C775 C791 1.349 . S
C776 C774 1.327 . S
C776 C795 1.429 . S
C776 H800 0.950 . S
C777 C794 1.574 . S
C777 C796 1.368 . S
C777 H801 0.949 . S
H778 C782 0.949 . S
C779 C780 1.349 . S
C779 C781 1.327 1_554 S
C779 H802 0.950 . S
C780 C779 1.349 . S
C780 C792 1.349 . S
C781 C779 1.327 1_556 S
C781 C797 1.429 . S
C781 H803 0.950 . S
C782 H778 0.949 . S
C782 C790 1.574 . S
C782 C798 1.368 . S
H783 C791 0.950 . S
H784 C789 0.950 . S
H785 C790 0.949 . S
H786 C792 0.950 . S
H787 C793 0.950 . S
H788 C794 0.949 . S
C789 H784 0.950 . S
C789 C791 1.327 . S
C789 C795 1.429 . S
C790 C782 1.574 . S
C790 H785 0.949 . S
C790 C796 1.368 . S
C791 C775 1.349 . S
C791 H783 0.950 . S
C791 C789 1.327 . S
C792 C780 1.349 . S
C792 H786 0.950 . S
C792 C793 1.327 1_554 S
C793 H787 0.950 . S
C793 C792 1.327 1_556 S
C793 C797 1.429 . S
C794 C777 1.574 . S
C794 H788 0.949 . S
C794 C798 1.368 . S
C795 C776 1.429 . S
C795 C789 1.429 . S
C795 C796 1.523 . S
C796 C777 1.368 . S
C796 C790 1.368 . S
C796 C795 1.523 . S
C797 C781 1.429 . S
C797 C793 1.429 . S
C797 C798 1.523 . S
C798 C782 1.368 . S
C798 C794 1.368 . S
C798 C797 1.523 . S
H799 C774 0.950 . S
H800 C776 0.950 . S
H801 C777 0.949 . S
H802 C779 0.950 . S
H803 C781 0.950 . S
C804 C805 1.344 1_655 S
C804 C806 1.327 . S
C804 H829 0.950 . S
C805 C804 1.344 1_455 S
C805 C821 1.355 . S
C806 C804 1.327 . S
C806 C825 1.429 1_655 S
C806 H830 0.950 . S
C807 C824 1.574 . S
C807 C826 1.368 . S
C807 H831 0.949 . S
H808 C812 0.949 . S
C809 C810 1.349 . S
C809 C811 1.327 . S
C809 H832 0.950 . S
C810 C809 1.349 . S
C810 C822 1.349 1_455 S
C811 C809 1.327 . S
C811 C827 1.429 . S
C811 H833 0.950 . S
C812 H808 0.949 . S
C812 C820 1.574 . S
C812 C828 1.368 1_655 S
H813 C821 0.950 . S
H814 C819 0.950 . S
H815 C820 0.949 . S
H816 C822 0.950 . S
H817 C823 0.950 . S
H818 C824 0.949 . S
C819 H814 0.950 . S
C819 C821 1.327 . S
C819 C825 1.429 . S
C820 C812 1.574 . S
C820 H815 0.949 . S
C820 C826 1.368 1_655 S
C821 C805 1.355 . S
C821 H813 0.950 . S
C821 C819 1.327 . S
C822 C810 1.349 1_655 S
C822 H816 0.950 . S
C822 C823 1.327 . S
C823 H817 0.950 . S
C823 C822 1.327 . S
C823 C827 1.429 1_655 S
C824 C807 1.574 . S
C824 H818 0.949 . S
C824 C828 1.368 . S
C825 C806 1.429 1_455 S
C825 C819 1.429 . S
C825 C826 1.523 . S
C826 C807 1.368 . S
C826 C820 1.368 1_455 S
C826 C825 1.523 . S
C827 C811 1.429 . S
C827 C823 1.429 1_455 S
C827 C828 1.523 . S
C828 C812 1.368 1_455 S
C828 C824 1.368 . S
C828 C827 1.523 . S
H829 C804 0.950 . S
H830 C806 0.950 . S
H831 C807 0.949 . S
H832 C809 0.950 . S
H833 C811 0.950 . S
C295 C2 1.291 . S
C300 C271 1.359 . S
C325 C22 1.260 . S
C330 C198 1.338 . S
C355 C44 1.325 . S
C360 C237 1.399 . S
C385 C4 1.492 . S
C390 C276 1.571 . S
C420 C193 1.602 . S
C415 C24 1.538 . S
C450 C232 1.523 . S
C445 C42 1.449 . S
C475 C32 1.282 . S
C480 C120 1.294 . S
C505 C49 1.223 . S
C510 C154 1.228 . S
C535 C9 1.189 . S
C540 C76 1.197 . S
C570 C115 1.186 . S
C565 C29 1.159 . S
C600 C159 1.245 . S
C595 C52 1.204 . S
C625 C12 1.212 . S
C630 C81 1.248 . S
C660 C139 1.437 . S
C655 C18 1.424 1_455 S
C685 C38 1.420 . S
C690 C61 1.438 . S
C715 C58 1.418 . S
C720 C100 1.440 . S
C750 C217 1.498 . S
C745 C39 1.481 . S
C780 C256 1.489 . S
C775 C59 1.465 . S
C805 C19 1.467 . S
C810 C178 1.491 . S
