# Generated by pormake.
# Topology tbo, (3,4)-cn, num edge types: 1
# Building blocks:
#     Node 0, Type 0, BuildingBlock: KAKCAD_clean_linker_0, # of connection points: 3
#     Node 1, Type 0, BuildingBlock: KAKCAD_clean_linker_0, # of connection points: 3
#     Node 2, Type 0, BuildingBlock: KAKCAD_clean_linker_0, # of connection points: 3
#     Node 3, Type 0, BuildingBlock: KAKCAD_clean_linker_0, # of connection points: 3
#     Node 4, Type 0, BuildingBlock: KAKCAD_clean_linker_0, # of connection points: 3
#     Node 5, Type 0, BuildingBlock: KAKCAD_clean_linker_0, # of connection points: 3
#     Node 6, Type 0, BuildingBlock: KAKCAD_clean_linker_0, # of connection points: 3
#     Node 7, Type 0, BuildingBlock: KAKCAD_clean_linker_0, # of connection points: 3
#     Node 8, Type 0, BuildingBlock: KAKCAD_clean_linker_0, # of connection points: 3
#     Node 9, Type 0, BuildingBlock: KAKCAD_clean_linker_0, # of connection points: 3
#     Node 10, Type 0, BuildingBlock: KAKCAD_clean_linker_0, # of connection points: 3
#     Node 11, Type 0, BuildingBlock: KAKCAD_clean_linker_0, # of connection points: 3
#     Node 12, Type 0, BuildingBlock: KAKCAD_clean_linker_0, # of connection points: 3
#     Node 13, Type 0, BuildingBlock: KAKCAD_clean_linker_0, # of connection points: 3
#     Node 14, Type 0, BuildingBlock: KAKCAD_clean_linker_0, # of connection points: 3
#     Node 15, Type 0, BuildingBlock: KAKCAD_clean_linker_0, # of connection points: 3
#     Node 16, Type 0, BuildingBlock: KAKCAD_clean_linker_0, # of connection points: 3
#     Node 17, Type 0, BuildingBlock: KAKCAD_clean_linker_0, # of connection points: 3
#     Node 18, Type 0, BuildingBlock: KAKCAD_clean_linker_0, # of connection points: 3
#     Node 19, Type 0, BuildingBlock: KAKCAD_clean_linker_0, # of connection points: 3
#     Node 20, Type 0, BuildingBlock: KAKCAD_clean_linker_0, # of connection points: 3
#     Node 21, Type 0, BuildingBlock: KAKCAD_clean_linker_0, # of connection points: 3
#     Node 22, Type 0, BuildingBlock: KAKCAD_clean_linker_0, # of connection points: 3
#     Node 23, Type 0, BuildingBlock: KAKCAD_clean_linker_0, # of connection points: 3
#     Node 24, Type 0, BuildingBlock: KAKCAD_clean_linker_0, # of connection points: 3
#     Node 25, Type 0, BuildingBlock: KAKCAD_clean_linker_0, # of connection points: 3
#     Node 26, Type 0, BuildingBlock: KAKCAD_clean_linker_0, # of connection points: 3
#     Node 27, Type 0, BuildingBlock: KAKCAD_clean_linker_0, # of connection points: 3
#     Node 28, Type 0, BuildingBlock: KAKCAD_clean_linker_0, # of connection points: 3
#     Node 29, Type 0, BuildingBlock: KAKCAD_clean_linker_0, # of connection points: 3
#     Node 30, Type 0, BuildingBlock: KAKCAD_clean_linker_0, # of connection points: 3
#     Node 31, Type 0, BuildingBlock: KAKCAD_clean_linker_0, # of connection points: 3
#     Node 32, Type 1, BuildingBlock: ESEHIV_clean_sbu_0, # of connection points: 4
#     Node 33, Type 1, BuildingBlock: ESEHIV_clean_sbu_0, # of connection points: 4
#     Node 34, Type 1, BuildingBlock: ESEHIV_clean_sbu_0, # of connection points: 4
#     Node 35, Type 1, BuildingBlock: ESEHIV_clean_sbu_0, # of connection points: 4
#     Node 36, Type 1, BuildingBlock: ESEHIV_clean_sbu_0, # of connection points: 4
#     Node 37, Type 1, BuildingBlock: ESEHIV_clean_sbu_0, # of connection points: 4
#     Node 38, Type 1, BuildingBlock: ESEHIV_clean_sbu_0, # of connection points: 4
#     Node 39, Type 1, BuildingBlock: ESEHIV_clean_sbu_0, # of connection points: 4
#     Node 40, Type 1, BuildingBlock: ESEHIV_clean_sbu_0, # of connection points: 4
#     Node 41, Type 1, BuildingBlock: ESEHIV_clean_sbu_0, # of connection points: 4
#     Node 42, Type 1, BuildingBlock: ESEHIV_clean_sbu_0, # of connection points: 4
#     Node 43, Type 1, BuildingBlock: ESEHIV_clean_sbu_0, # of connection points: 4
#     Node 44, Type 1, BuildingBlock: ESEHIV_clean_sbu_0, # of connection points: 4
#     Node 45, Type 1, BuildingBlock: ESEHIV_clean_sbu_0, # of connection points: 4
#     Node 46, Type 1, BuildingBlock: ESEHIV_clean_sbu_0, # of connection points: 4
#     Node 47, Type 1, BuildingBlock: ESEHIV_clean_sbu_0, # of connection points: 4
#     Node 48, Type 1, BuildingBlock: ESEHIV_clean_sbu_0, # of connection points: 4
#     Node 49, Type 1, BuildingBlock: ESEHIV_clean_sbu_0, # of connection points: 4
#     Node 50, Type 1, BuildingBlock: ESEHIV_clean_sbu_0, # of connection points: 4
#     Node 51, Type 1, BuildingBlock: ESEHIV_clean_sbu_0, # of connection points: 4
#     Node 52, Type 1, BuildingBlock: ESEHIV_clean_sbu_0, # of connection points: 4
#     Node 53, Type 1, BuildingBlock: ESEHIV_clean_sbu_0, # of connection points: 4
#     Node 54, Type 1, BuildingBlock: ESEHIV_clean_sbu_0, # of connection points: 4
#     Node 55, Type 1, BuildingBlock: ESEHIV_clean_sbu_0, # of connection points: 4
#     Edge 56, Type (0, 1), BuildingBlock: CIFDUS_clean_linker_0, # of connection points: 2
#     Edge 57, Type (0, 1), BuildingBlock: CIFDUS_clean_linker_0, # of connection points: 2
#     Edge 58, Type (0, 1), BuildingBlock: CIFDUS_clean_linker_0, # of connection points: 2
#     Edge 59, Type (0, 1), BuildingBlock: CIFDUS_clean_linker_0, # of connection points: 2
#     Edge 60, Type (0, 1), BuildingBlock: CIFDUS_clean_linker_0, # of connection points: 2
#     Edge 61, Type (0, 1), BuildingBlock: CIFDUS_clean_linker_0, # of connection points: 2
#     Edge 62, Type (0, 1), BuildingBlock: CIFDUS_clean_linker_0, # of connection points: 2
#     Edge 63, Type (0, 1), BuildingBlock: CIFDUS_clean_linker_0, # of connection points: 2
#     Edge 64, Type (0, 1), BuildingBlock: CIFDUS_clean_linker_0, # of connection points: 2
#     Edge 65, Type (0, 1), BuildingBlock: CIFDUS_clean_linker_0, # of connection points: 2
#     Edge 66, Type (0, 1), BuildingBlock: CIFDUS_clean_linker_0, # of connection points: 2
#     Edge 67, Type (0, 1), BuildingBlock: CIFDUS_clean_linker_0, # of connection points: 2
#     Edge 68, Type (0, 1), BuildingBlock: CIFDUS_clean_linker_0, # of connection points: 2
#     Edge 69, Type (0, 1), BuildingBlock: CIFDUS_clean_linker_0, # of connection points: 2
#     Edge 70, Type (0, 1), BuildingBlock: CIFDUS_clean_linker_0, # of connection points: 2
#     Edge 71, Type (0, 1), BuildingBlock: CIFDUS_clean_linker_0, # of connection points: 2
#     Edge 72, Type (0, 1), BuildingBlock: CIFDUS_clean_linker_0, # of connection points: 2
#     Edge 73, Type (0, 1), BuildingBlock: CIFDUS_clean_linker_0, # of connection points: 2
#     Edge 74, Type (0, 1), BuildingBlock: CIFDUS_clean_linker_0, # of connection points: 2
#     Edge 75, Type (0, 1), BuildingBlock: CIFDUS_clean_linker_0, # of connection points: 2
#     Edge 76, Type (0, 1), BuildingBlock: CIFDUS_clean_linker_0, # of connection points: 2
#     Edge 77, Type (0, 1), BuildingBlock: CIFDUS_clean_linker_0, # of connection points: 2
#     Edge 78, Type (0, 1), BuildingBlock: CIFDUS_clean_linker_0, # of connection points: 2
#     Edge 79, Type (0, 1), BuildingBlock: CIFDUS_clean_linker_0, # of connection points: 2
#     Edge 80, Type (0, 1), BuildingBlock: CIFDUS_clean_linker_0, # of connection points: 2
#     Edge 81, Type (0, 1), BuildingBlock: CIFDUS_clean_linker_0, # of connection points: 2
#     Edge 82, Type (0, 1), BuildingBlock: CIFDUS_clean_linker_0, # of connection points: 2
#     Edge 83, Type (0, 1), BuildingBlock: CIFDUS_clean_linker_0, # of connection points: 2
#     Edge 84, Type (0, 1), BuildingBlock: CIFDUS_clean_linker_0, # of connection points: 2
#     Edge 85, Type (0, 1), BuildingBlock: CIFDUS_clean_linker_0, # of connection points: 2
#     Edge 86, Type (0, 1), BuildingBlock: CIFDUS_clean_linker_0, # of connection points: 2
#     Edge 87, Type (0, 1), BuildingBlock: CIFDUS_clean_linker_0, # of connection points: 2
#     Edge 88, Type (0, 1), BuildingBlock: CIFDUS_clean_linker_0, # of connection points: 2
#     Edge 89, Type (0, 1), BuildingBlock: CIFDUS_clean_linker_0, # of connection points: 2
#     Edge 90, Type (0, 1), BuildingBlock: CIFDUS_clean_linker_0, # of connection points: 2
#     Edge 91, Type (0, 1), BuildingBlock: CIFDUS_clean_linker_0, # of connection points: 2
#     Edge 92, Type (0, 1), BuildingBlock: CIFDUS_clean_linker_0, # of connection points: 2
#     Edge 93, Type (0, 1), BuildingBlock: CIFDUS_clean_linker_0, # of connection points: 2
#     Edge 94, Type (0, 1), BuildingBlock: CIFDUS_clean_linker_0, # of connection points: 2
#     Edge 95, Type (0, 1), BuildingBlock: CIFDUS_clean_linker_0, # of connection points: 2
#     Edge 96, Type (0, 1), BuildingBlock: CIFDUS_clean_linker_0, # of connection points: 2
#     Edge 97, Type (0, 1), BuildingBlock: CIFDUS_clean_linker_0, # of connection points: 2
#     Edge 98, Type (0, 1), BuildingBlock: CIFDUS_clean_linker_0, # of connection points: 2
#     Edge 99, Type (0, 1), BuildingBlock: CIFDUS_clean_linker_0, # of connection points: 2
#     Edge 100, Type (0, 1), BuildingBlock: CIFDUS_clean_linker_0, # of connection points: 2
#     Edge 101, Type (0, 1), BuildingBlock: CIFDUS_clean_linker_0, # of connection points: 2
#     Edge 102, Type (0, 1), BuildingBlock: CIFDUS_clean_linker_0, # of connection points: 2
#     Edge 103, Type (0, 1), BuildingBlock: CIFDUS_clean_linker_0, # of connection points: 2
#     Edge 104, Type (0, 1), BuildingBlock: CIFDUS_clean_linker_0, # of connection points: 2
#     Edge 105, Type (0, 1), BuildingBlock: CIFDUS_clean_linker_0, # of connection points: 2
#     Edge 106, Type (0, 1), BuildingBlock: CIFDUS_clean_linker_0, # of connection points: 2
#     Edge 107, Type (0, 1), BuildingBlock: CIFDUS_clean_linker_0, # of connection points: 2
#     Edge 108, Type (0, 1), BuildingBlock: CIFDUS_clean_linker_0, # of connection points: 2
#     Edge 109, Type (0, 1), BuildingBlock: CIFDUS_clean_linker_0, # of connection points: 2
#     Edge 110, Type (0, 1), BuildingBlock: CIFDUS_clean_linker_0, # of connection points: 2
#     Edge 111, Type (0, 1), BuildingBlock: CIFDUS_clean_linker_0, # of connection points: 2
#     Edge 112, Type (0, 1), BuildingBlock: CIFDUS_clean_linker_0, # of connection points: 2
#     Edge 113, Type (0, 1), BuildingBlock: CIFDUS_clean_linker_0, # of connection points: 2
#     Edge 114, Type (0, 1), BuildingBlock: CIFDUS_clean_linker_0, # of connection points: 2
#     Edge 115, Type (0, 1), BuildingBlock: CIFDUS_clean_linker_0, # of connection points: 2
#     Edge 116, Type (0, 1), BuildingBlock: CIFDUS_clean_linker_0, # of connection points: 2
#     Edge 117, Type (0, 1), BuildingBlock: CIFDUS_clean_linker_0, # of connection points: 2
#     Edge 118, Type (0, 1), BuildingBlock: CIFDUS_clean_linker_0, # of connection points: 2
#     Edge 119, Type (0, 1), BuildingBlock: CIFDUS_clean_linker_0, # of connection points: 2
#     Edge 120, Type (0, 1), BuildingBlock: CIFDUS_clean_linker_0, # of connection points: 2
#     Edge 121, Type (0, 1), BuildingBlock: CIFDUS_clean_linker_0, # of connection points: 2
#     Edge 122, Type (0, 1), BuildingBlock: CIFDUS_clean_linker_0, # of connection points: 2
#     Edge 123, Type (0, 1), BuildingBlock: CIFDUS_clean_linker_0, # of connection points: 2
#     Edge 124, Type (0, 1), BuildingBlock: CIFDUS_clean_linker_0, # of connection points: 2
#     Edge 125, Type (0, 1), BuildingBlock: CIFDUS_clean_linker_0, # of connection points: 2
#     Edge 126, Type (0, 1), BuildingBlock: CIFDUS_clean_linker_0, # of connection points: 2
#     Edge 127, Type (0, 1), BuildingBlock: CIFDUS_clean_linker_0, # of connection points: 2
#     Edge 128, Type (0, 1), BuildingBlock: CIFDUS_clean_linker_0, # of connection points: 2
#     Edge 129, Type (0, 1), BuildingBlock: CIFDUS_clean_linker_0, # of connection points: 2
#     Edge 130, Type (0, 1), BuildingBlock: CIFDUS_clean_linker_0, # of connection points: 2
#     Edge 131, Type (0, 1), BuildingBlock: CIFDUS_clean_linker_0, # of connection points: 2
#     Edge 132, Type (0, 1), BuildingBlock: CIFDUS_clean_linker_0, # of connection points: 2
#     Edge 133, Type (0, 1), BuildingBlock: CIFDUS_clean_linker_0, # of connection points: 2
#     Edge 134, Type (0, 1), BuildingBlock: CIFDUS_clean_linker_0, # of connection points: 2
#     Edge 135, Type (0, 1), BuildingBlock: CIFDUS_clean_linker_0, # of connection points: 2
#     Edge 136, Type (0, 1), BuildingBlock: CIFDUS_clean_linker_0, # of connection points: 2
#     Edge 137, Type (0, 1), BuildingBlock: CIFDUS_clean_linker_0, # of connection points: 2
#     Edge 138, Type (0, 1), BuildingBlock: CIFDUS_clean_linker_0, # of connection points: 2
#     Edge 139, Type (0, 1), BuildingBlock: CIFDUS_clean_linker_0, # of connection points: 2
#     Edge 140, Type (0, 1), BuildingBlock: CIFDUS_clean_linker_0, # of connection points: 2
#     Edge 141, Type (0, 1), BuildingBlock: CIFDUS_clean_linker_0, # of connection points: 2
#     Edge 142, Type (0, 1), BuildingBlock: CIFDUS_clean_linker_0, # of connection points: 2
#     Edge 143, Type (0, 1), BuildingBlock: CIFDUS_clean_linker_0, # of connection points: 2
#     Edge 144, Type (0, 1), BuildingBlock: CIFDUS_clean_linker_0, # of connection points: 2
#     Edge 145, Type (0, 1), BuildingBlock: CIFDUS_clean_linker_0, # of connection points: 2
#     Edge 146, Type (0, 1), BuildingBlock: CIFDUS_clean_linker_0, # of connection points: 2
#     Edge 147, Type (0, 1), BuildingBlock: CIFDUS_clean_linker_0, # of connection points: 2
#     Edge 148, Type (0, 1), BuildingBlock: CIFDUS_clean_linker_0, # of connection points: 2
#     Edge 149, Type (0, 1), BuildingBlock: CIFDUS_clean_linker_0, # of connection points: 2
#     Edge 150, Type (0, 1), BuildingBlock: CIFDUS_clean_linker_0, # of connection points: 2
#     Edge 151, Type (0, 1), BuildingBlock: CIFDUS_clean_linker_0, # of connection points: 2
# Relax obj value: 0.002
# Max RMSD: 0.119
# Mean RMSD: 0.049
data_MOF--net-tbo--node1-ESEHIV_clean_sbu_0--node2-KAKCAD_clean_linker_0--edge1-CIFDUS_clean_linker_0
_symmetry_space_group_name_H-M    P1
_symmetry_Int_Tables_number       1
_symmetry_cell_setting            triclinic
loop_
_symmetry_equiv_pos_as_xyz
'x, y, z'
_cell_length_a     81.853047
_cell_length_b     81.541389
_cell_length_c     81.483002
_cell_angle_alpha  90.316033
_cell_angle_beta   92.183588
_cell_angle_gamma 90.83154
loop_
_atom_site_label
_atom_site_type_symbol
_atom_site_fract_x
_atom_site_fract_y
_atom_site_fract_z
_atom_type_partial_charge
C0 C 0.20852 0.18998 0.13027 0.0
C1 C 0.21102 0.20711 0.1308 0.0
C2 C 0.20288 0.18155 0.14394 0.0
C3 C 0.19949 0.19003 0.15846 0.0
C4 C 0.20197 0.20714 0.15899 0.0
C5 C 0.20768 0.21555 0.14537 0.0
C6 C 0.19339 0.18116 0.17303 0.0
C7 C 0.20031 0.16619 0.17808 0.0
C8 C 0.19505 0.15822 0.19224 0.0
C9 C 0.18258 0.1653 0.20123 0.0
C10 C 0.1752 0.18003 0.19627 0.0
C11 C 0.18074 0.18784 0.18211 0.0
C12 C 0.16185 0.18721 0.20604 0.0
C13 C 0.15072 0.177 0.21411 0.0
C14 C 0.16032 0.2043 0.20773 0.0
C15 C 0.14817 0.21095 0.2173 0.0
C16 C 0.13733 0.20073 0.22575 0.0
C17 C 0.20228 0.14242 0.19785 0.0
C18 C 0.20465 0.12942 0.18676 0.0
C19 C 0.20554 0.13977 0.21469 0.0
C20 C 0.20982 0.12426 0.22043 0.0
C21 C 0.21112 0.11102 0.20949 0.0
C22 C 0.20907 0.11384 0.19255 0.0
C23 C 0.1388 0.18364 0.22394 0.0
H24 H 0.21071 0.18306 0.1192 0.0
H25 H 0.20092 0.1684 0.14304 0.0
H26 H 0.19974 0.21403 0.17006 0.0
H27 H 0.20974 0.22867 0.14639 0.0
H28 H 0.21015 0.161 0.1713 0.0
H29 H 0.17499 0.19901 0.17789 0.0
H30 H 0.17862 0.15923 0.2122 0.0
H31 H 0.15117 0.1638 0.21289 0.0
H32 H 0.16869 0.21264 0.2019 0.0
H33 H 0.14731 0.22416 0.21803 0.0
H34 H 0.20222 0.13106 0.17372 0.0
H35 H 0.20425 0.14959 0.22353 0.0
H36 H 0.13093 0.17526 0.23035 0.0
H37 H 0.20993 0.1038 0.18387 0.0
H38 H 0.21153 0.12246 0.23354 0.0
C39 C 0.90961 0.23662 0.21796 0.0
C40 C 0.92416 0.22807 0.22116 0.0
C41 C 0.89628 0.22892 0.2097 0.0
C42 C 0.89708 0.2124 0.20481 0.0
C43 C 0.91166 0.20387 0.20794 0.0
C44 C 0.92515 0.21169 0.21589 0.0
C45 C 0.8827 0.20418 0.19646 0.0
C46 C 0.87506 0.21145 0.18269 0.0
C47 C 0.86131 0.20405 0.17473 0.0
C48 C 0.85521 0.18911 0.18074 0.0
C49 C 0.86233 0.18179 0.19492 0.0
C50 C 0.87626 0.18943 0.20254 0.0
C51 C 0.85479 0.16668 0.20214 0.0
C52 C 0.83776 0.16389 0.20092 0.0
C53 C 0.86441 0.15511 0.21073 0.0
C54 C 0.85721 0.14146 0.21815 0.0
C55 C 0.84016 0.13873 0.21695 0.0
C56 C 0.85311 0.21226 0.16042 0.0
C57 C 0.85028 0.22921 0.1609 0.0
C58 C 0.8482 0.20337 0.14619 0.0
C59 C 0.84096 0.21134 0.13262 0.0
C60 C 0.83838 0.22838 0.13301 0.0
C61 C 0.84297 0.23714 0.14742 0.0
C62 C 0.83061 0.15008 0.208 0.0
H63 H 0.90853 0.24922 0.22199 0.0
H64 H 0.88517 0.23576 0.20748 0.0
H65 H 0.91262 0.19116 0.2042 0.0
H66 H 0.93617 0.2048 0.2184 0.0
H67 H 0.88001 0.22283 0.17802 0.0
H68 H 0.88179 0.18435 0.21364 0.0
H69 H 0.8447 0.18339 0.17447 0.0
H70 H 0.82976 0.17253 0.19474 0.0
H71 H 0.87758 0.15654 0.21179 0.0
H72 H 0.86507 0.13324 0.22507 0.0
H73 H 0.85361 0.23636 0.17179 0.0
H74 H 0.85032 0.19031 0.1454 0.0
H75 H 0.81751 0.14837 0.2064 0.0
H76 H 0.84085 0.25018 0.14834 0.0
H77 H 0.83775 0.20421 0.12169 0.0
C78 C 0.82759 0.82348 0.12998 0.0
C79 C 0.82173 0.83316 0.11685 0.0
C80 C 0.83383 0.83079 0.14455 0.0
C81 C 0.83429 0.84797 0.14639 0.0
C82 C 0.82858 0.85765 0.13324 0.0
C83 C 0.82247 0.85036 0.11864 0.0
C84 C 0.84076 0.85572 0.16197 0.0
C85 C 0.85523 0.84996 0.16968 0.0
C86 C 0.86148 0.85704 0.18444 0.0
C87 C 0.85286 0.86985 0.1916 0.0
C88 C 0.83836 0.8758 0.18415 0.0
C89 C 0.83249 0.86881 0.16921 0.0
C90 C 0.82947 0.88922 0.19229 0.0
C91 C 0.82696 0.88847 0.20923 0.0
C92 C 0.82447 0.90328 0.18363 0.0
C93 C 0.81808 0.91674 0.19198 0.0
C94 C 0.81655 0.91632 0.20911 0.0
C95 C 0.87706 0.85121 0.19236 0.0
C96 C 0.88053 0.83438 0.19314 0.0
C97 C 0.88857 0.86248 0.19929 0.0
C98 C 0.90313 0.85708 0.20684 0.0
C99 C 0.9066 0.84026 0.20767 0.0
C100 C 0.89511 0.82897 0.20072 0.0
C101 C 0.82055 0.9018 0.2175 0.0
H102 H 0.82701 0.81022 0.12919 0.0
H103 H 0.83799 0.82298 0.15452 0.0
H104 H 0.82902 0.87091 0.13416 0.0
H105 H 0.8184 0.85825 0.1087 0.0
H106 H 0.86189 0.84024 0.16393 0.0
H107 H 0.82121 0.87321 0.16351 0.0
H108 H 0.85746 0.87525 0.20308 0.0
H109 H 0.83036 0.87768 0.21618 0.0
H110 H 0.82625 0.90419 0.17056 0.0
H111 H 0.81515 0.92775 0.18517 0.0
H112 H 0.87189 0.82535 0.18806 0.0
H113 H 0.8864 0.87554 0.19875 0.0
H114 H 0.81916 0.90092 0.23064 0.0
H115 H 0.89746 0.81594 0.20096 0.0
H116 H 0.9116 0.86611 0.2122 0.0
C117 C 0.17116 0.80129 0.10946 0.0
C118 C 0.18832 0.80116 0.10916 0.0
C119 C 0.16331 0.80854 0.12251 0.0
C120 C 0.17239 0.81564 0.13581 0.0
C121 C 0.18956 0.8157 0.13544 0.0
C122 C 0.19741 0.80864 0.12225 0.0
C123 C 0.16396 0.82247 0.15019 0.0
C124 C 0.14972 0.81477 0.1557 0.0
C125 C 0.14166 0.82092 0.16925 0.0
C126 C 0.14814 0.83477 0.17765 0.0
C127 C 0.16235 0.84275 0.17238 0.0
C128 C 0.17011 0.83654 0.15856 0.0
C129 C 0.169 0.85762 0.1812 0.0
C130 C 0.15844 0.86946 0.18735 0.0
C131 C 0.18598 0.8601 0.18355 0.0
C132 C 0.19222 0.87411 0.1917 0.0
C133 C 0.18166 0.88592 0.19782 0.0
C134 C 0.12634 0.8129 0.17446 0.0
C135 C 0.11383 0.80883 0.16278 0.0
C136 C 0.12407 0.80934 0.19107 0.0
C137 C 0.10955 0.80189 0.1959 0.0
C138 C 0.09695 0.79802 0.18425 0.0
C139 C 0.09924 0.80154 0.16764 0.0
C140 C 0.1647 0.88341 0.19562 0.0
H141 H 0.16369 0.7955 0.09976 0.0
H142 H 0.15007 0.80852 0.12217 0.0
H143 H 0.19699 0.8209 0.1455 0.0
H144 H 0.21064 0.80906 0.12235 0.0
H145 H 0.14503 0.8037 0.14968 0.0
H146 H 0.18074 0.8429 0.15408 0.0
H147 H 0.14202 0.83937 0.18826 0.0
H148 H 0.14532 0.86813 0.18554 0.0
H149 H 0.19447 0.85112 0.17926 0.0
H150 H 0.20535 0.8756 0.1934 0.0
H151 H 0.11522 0.81154 0.1499 0.0
H152 H 0.13355 0.81225 0.2003 0.0
H153 H 0.15626 0.8924 0.2 0.0
H154 H 0.08976 0.79864 0.1584 0.0
H155 H 0.10804 0.79948 0.20882 0.0
C156 C 0.1365 0.83586 0.8406 0.0
C157 C 0.13402 0.83404 0.82351 0.0
C158 C 0.15058 0.84363 0.84726 0.0
C159 C 0.16261 0.84985 0.83704 0.0
C160 C 0.15973 0.84892 0.81989 0.0
C161 C 0.14556 0.84109 0.81319 0.0
C162 C 0.17842 0.85637 0.8444 0.0
C163 C 0.1862 0.84799 0.85756 0.0
C164 C 0.20104 0.85382 0.86477 0.0
C165 C 0.20802 0.86832 0.85887 0.0
C166 C 0.20042 0.87708 0.84595 0.0
C167 C 0.18573 0.87088 0.83855 0.0
C168 C 0.20793 0.89285 0.84066 0.0
C169 C 0.21412 0.90416 0.85251 0.0
C170 C 0.20984 0.89636 0.82396 0.0
C171 C 0.21834 0.91055 0.81928 0.0
C172 C 0.22506 0.92154 0.83121 0.0
C173 C 0.20926 0.84496 0.87864 0.0
C174 C 0.20043 0.83988 0.89222 0.0
C175 C 0.22615 0.84202 0.87862 0.0
C176 C 0.23404 0.83423 0.8919 0.0
C177 C 0.22527 0.82938 0.90561 0.0
C178 C 0.20837 0.83228 0.90561 0.0
C179 C 0.22256 0.91829 0.84786 0.0
H180 H 0.12769 0.83088 0.84891 0.0
H181 H 0.15218 0.84449 0.8605 0.0
H182 H 0.16876 0.85359 0.81166 0.0
H183 H 0.14403 0.83985 0.79998 0.0
H184 H 0.1809 0.83667 0.86197 0.0
H185 H 0.17972 0.87762 0.82868 0.0
H186 H 0.21942 0.8729 0.86449 0.0
H187 H 0.21255 0.902 0.86546 0.0
H188 H 0.20528 0.88785 0.81455 0.0
H189 H 0.2201 0.91263 0.80635 0.0
H190 H 0.18743 0.84209 0.89262 0.0
H191 H 0.23326 0.84571 0.86829 0.0
H192 H 0.22719 0.92666 0.85736 0.0
H193 H 0.20125 0.82854 0.91592 0.0
H194 H 0.24708 0.83222 0.89157 0.0
C195 C 0.21829 0.19293 0.92079 0.0
C196 C 0.23326 0.20166 0.92052 0.0
C197 C 0.21051 0.18728 0.90624 0.0
C198 C 0.21765 0.18986 0.89108 0.0
C199 C 0.23303 0.19765 0.89075 0.0
C200 C 0.24076 0.20356 0.90534 0.0
C201 C 0.20813 0.18598 0.8757 0.0
C202 C 0.19407 0.19502 0.87181 0.0
C203 C 0.18416 0.19126 0.85778 0.0
C204 C 0.18853 0.17808 0.84769 0.0
C205 C 0.20259 0.16882 0.85139 0.0
C206 C 0.21249 0.17304 0.86537 0.0
C207 C 0.20643 0.15434 0.84105 0.0
C208 C 0.19394 0.14323 0.83585 0.0
C209 C 0.2225 0.15137 0.83641 0.0
C210 C 0.226 0.13758 0.82685 0.0
C211 C 0.21352 0.12636 0.82189 0.0
C212 C 0.16921 0.20099 0.85384 0.0
C213 C 0.15932 0.20654 0.86644 0.0
C214 C 0.16478 0.205 0.8375 0.0
C215 C 0.15091 0.21438 0.8339 0.0
C216 C 0.1412 0.22008 0.84653 0.0
C217 C 0.14555 0.21602 0.86284 0.0
C218 C 0.19745 0.12942 0.82644 0.0
H219 H 0.21232 0.19083 0.93224 0.0
H220 H 0.19866 0.18124 0.90676 0.0
H221 H 0.23869 0.19986 0.87915 0.0
H222 H 0.25219 0.2103 0.90458 0.0
H223 H 0.19099 0.20516 0.87971 0.0
H224 H 0.22318 0.16589 0.86859 0.0
H225 H 0.18086 0.17488 0.83698 0.0
H226 H 0.18146 0.14504 0.83933 0.0
H227 H 0.23237 0.15974 0.84011 0.0
H228 H 0.23853 0.1355 0.82369 0.0
H229 H 0.16212 0.20343 0.87913 0.0
H230 H 0.1722 0.20116 0.82749 0.0
H231 H 0.18754 0.12108 0.82275 0.0
H232 H 0.13818 0.22 0.87283 0.0
H233 H 0.14799 0.21745 0.82122 0.0
C234 C 0.84917 0.12602 0.82783 0.0
C235 C 0.83202 0.1245 0.82685 0.0
C236 C 0.85674 0.14055 0.83352 0.0
C237 C 0.84733 0.15383 0.83847 0.0
C238 C 0.8302 0.15233 0.83754 0.0
C239 C 0.82263 0.13785 0.83174 0.0
C240 C 0.85535 0.16913 0.84484 0.0
C241 C 0.8686 0.17617 0.83675 0.0
C242 C 0.87626 0.19061 0.84281 0.0
C243 C 0.87073 0.19777 0.85728 0.0
C244 C 0.85761 0.19086 0.86556 0.0
C245 C 0.84988 0.17661 0.85917 0.0
C246 C 0.85224 0.19848 0.88101 0.0
C247 C 0.86387 0.20386 0.89306 0.0
C248 C 0.83556 0.20076 0.88369 0.0
C249 C 0.83065 0.20862 0.89796 0.0
C250 C 0.84233 0.2143 0.90987 0.0
C251 C 0.89024 0.19825 0.83443 0.0
C252 C 0.90317 0.18869 0.82893 0.0
C253 C 0.89136 0.2154 0.83309 0.0
C254 C 0.90554 0.22289 0.82763 0.0
C255 C 0.91886 0.21341 0.82321 0.0
C256 C 0.9174 0.19624 0.82333 0.0
C257 C 0.85897 0.21164 0.90732 0.0
H258 H 0.85679 0.1159 0.8244 0.0
H259 H 0.86997 0.14128 0.83432 0.0
H260 H 0.82264 0.16245 0.84109 0.0
H261 H 0.8094 0.13723 0.83086 0.0
H262 H 0.87271 0.17062 0.82554 0.0
H263 H 0.83993 0.17103 0.86567 0.0
H264 H 0.87673 0.20877 0.86219 0.0
H265 H 0.87679 0.20199 0.89149 0.0
H266 H 0.82634 0.19686 0.87456 0.0
H267 H 0.81774 0.21061 0.89946 0.0
H268 H 0.90268 0.17545 0.82984 0.0
H269 H 0.88146 0.22308 0.83683 0.0
H270 H 0.86827 0.21553 0.91639 0.0
H271 H 0.92759 0.18872 0.82005 0.0
H272 H 0.90637 0.23616 0.82749 0.0
C273 C 0.80956 0.84844 0.88 0.0
C274 C 0.81744 0.84317 0.89458 0.0
C275 C 0.81853 0.85197 0.86617 0.0
C276 C 0.83568 0.85063 0.86663 0.0
C277 C 0.84353 0.84499 0.88117 0.0
C278 C 0.83448 0.8412 0.89497 0.0
C279 C 0.84521 0.85564 0.85213 0.0
C280 C 0.84007 0.86903 0.84258 0.0
C281 C 0.84807 0.87353 0.82833 0.0
C282 C 0.86219 0.86508 0.82418 0.0
C283 C 0.86787 0.85171 0.83365 0.0
C284 C 0.85912 0.84702 0.84753 0.0
C285 C 0.8826 0.84238 0.82876 0.0
C286 C 0.88622 0.84047 0.8121 0.0
C287 C 0.89319 0.83526 0.84065 0.0
C288 C 0.90685 0.82642 0.83603 0.0
C289 C 0.91056 0.82469 0.81937 0.0
C290 C 0.84097 0.88647 0.81744 0.0
C291 C 0.82393 0.88712 0.81472 0.0
C292 C 0.85085 0.89818 0.80974 0.0
C293 C 0.84377 0.9104 0.7998 0.0
C294 C 0.82668 0.91113 0.79732 0.0
C295 C 0.8169 0.8993 0.80495 0.0
C296 C 0.90006 0.83197 0.80751 0.0
H297 H 0.7964 0.84977 0.87926 0.0
H298 H 0.81194 0.85578 0.8551 0.0
H299 H 0.8567 0.84391 0.88206 0.0
H300 H 0.84086 0.83719 0.90609 0.0
H301 H 0.8297 0.87609 0.84627 0.0
H302 H 0.86279 0.83632 0.85448 0.0
H303 H 0.86858 0.86881 0.8134 0.0
H304 H 0.8783 0.84541 0.80247 0.0
H305 H 0.89104 0.83658 0.85361 0.0
H306 H 0.91439 0.82084 0.84559 0.0
H307 H 0.81592 0.87816 0.82017 0.0
H308 H 0.86402 0.89809 0.81161 0.0
H309 H 0.90252 0.83127 0.79458 0.0
H310 H 0.8037 0.89958 0.80366 0.0
H311 H 0.8517 0.91924 0.79406 0.0
C312 C 0.19698 0.69563 0.60366 0.0
C313 C 0.19656 0.71275 0.60158 0.0
C314 C 0.19344 0.68853 0.61873 0.0
C315 C 0.18946 0.69833 0.63222 0.0
C316 C 0.1891 0.71547 0.63018 0.0
C317 C 0.1926 0.72258 0.61506 0.0
C318 C 0.18563 0.69065 0.64826 0.0
C319 C 0.19442 0.677 0.65408 0.0
C320 C 0.19068 0.66943 0.66897 0.0
C321 C 0.17798 0.67577 0.67818 0.0
C322 C 0.16904 0.68942 0.67267 0.0
C323 C 0.17298 0.69675 0.6577 0.0
C324 C 0.15544 0.69591 0.68241 0.0
C325 C 0.14433 0.68521 0.68985 0.0
C326 C 0.15334 0.71291 0.68417 0.0
C327 C 0.14038 0.71905 0.69296 0.0
C328 C 0.12914 0.70836 0.70023 0.0
C329 C 0.19992 0.65479 0.67484 0.0
C330 C 0.20384 0.6422 0.66386 0.0
C331 C 0.2047 0.65319 0.69151 0.0
C332 C 0.213 0.63928 0.69708 0.0
C333 C 0.2167 0.62654 0.68616 0.0
C334 C 0.21211 0.62825 0.66944 0.0
C335 C 0.13135 0.69135 0.69865 0.0
H336 H 0.20023 0.68765 0.59367 0.0
H337 H 0.19366 0.6753 0.61972 0.0
H338 H 0.18626 0.72343 0.64033 0.0
H339 H 0.19204 0.73578 0.61391 0.0
H340 H 0.20445 0.67244 0.64714 0.0
H341 H 0.16581 0.70693 0.65311 0.0
H342 H 0.17499 0.67 0.68966 0.0
H343 H 0.14544 0.67205 0.68857 0.0
H344 H 0.16181 0.72152 0.67885 0.0
H345 H 0.13925 0.73221 0.69417 0.0
H346 H 0.20017 0.64293 0.65098 0.0
H347 H 0.20214 0.66278 0.70026 0.0
H348 H 0.12282 0.68275 0.70388 0.0
H349 H 0.21454 0.61862 0.6607 0.0
H350 H 0.2166 0.63855 0.70998 0.0
C351 C 0.90566 0.74518 0.69495 0.0
C352 C 0.92054 0.73741 0.69875 0.0
C353 C 0.89262 0.73648 0.68718 0.0
C354 C 0.89409 0.71974 0.68343 0.0
C355 C 0.90909 0.71206 0.6869 0.0
C356 C 0.92225 0.72087 0.69432 0.0
C357 C 0.87972 0.71005 0.67691 0.0
C358 C 0.87102 0.71494 0.66261 0.0
C359 C 0.85715 0.70599 0.65661 0.0
C360 C 0.85215 0.69198 0.66527 0.0
C361 C 0.86056 0.68697 0.67978 0.0
C362 C 0.87441 0.69614 0.6854 0.0
C363 C 0.85463 0.67251 0.68931 0.0
C364 C 0.83782 0.66868 0.68978 0.0
C365 C 0.86565 0.66253 0.69826 0.0
C366 C 0.86003 0.64938 0.70759 0.0
C367 C 0.84322 0.64552 0.70801 0.0
C368 C 0.8477 0.71141 0.64153 0.0
C369 C 0.84584 0.72821 0.63814 0.0
C370 C 0.84027 0.69992 0.63047 0.0
C371 C 0.83128 0.70509 0.61649 0.0
C372 C 0.82973 0.72186 0.61306 0.0
C373 C 0.83709 0.73334 0.62405 0.0
C374 C 0.83224 0.6553 0.69878 0.0
H375 H 0.90401 0.75791 0.69831 0.0
H376 H 0.88116 0.74265 0.68471 0.0
H377 H 0.91053 0.69917 0.68411 0.0
H378 H 0.93352 0.71454 0.69729 0.0
H379 H 0.87529 0.72559 0.65604 0.0
H380 H 0.88081 0.69287 0.69676 0.0
H381 H 0.84153 0.68504 0.66076 0.0
H382 H 0.82882 0.67613 0.68338 0.0
H383 H 0.8787 0.66481 0.69807 0.0
H384 H 0.86894 0.64241 0.71466 0.0
H385 H 0.85098 0.73748 0.64647 0.0
H386 H 0.8416 0.68688 0.63243 0.0
H387 H 0.81924 0.65266 0.6984 0.0
H388 H 0.83594 0.74637 0.62182 0.0
H389 H 0.82587 0.69597 0.60815 0.0
C390 C 0.83542 0.32131 0.64525 0.0
C391 C 0.8333 0.32911 0.63001 0.0
C392 C 0.84108 0.33015 0.65912 0.0
C393 C 0.84446 0.34705 0.65814 0.0
C394 C 0.84219 0.35493 0.64294 0.0
C395 C 0.83683 0.34599 0.62894 0.0
C396 C 0.85052 0.35621 0.67301 0.0
C397 C 0.86398 0.35027 0.68231 0.0
C398 C 0.86929 0.35789 0.69715 0.0
C399 C 0.86076 0.37165 0.70254 0.0
C400 C 0.8474 0.37797 0.69332 0.0
C401 C 0.84249 0.37028 0.6784 0.0
C402 C 0.83864 0.39244 0.69968 0.0
C403 C 0.83516 0.39334 0.71642 0.0
C404 C 0.83487 0.40594 0.68958 0.0
C405 C 0.82886 0.42044 0.69638 0.0
C406 C 0.82657 0.42163 0.71335 0.0
C407 C 0.88347 0.35136 0.70717 0.0
C408 C 0.88665 0.33444 0.70758 0.0
C409 C 0.89387 0.36195 0.71663 0.0
C410 C 0.90675 0.3558 0.72646 0.0
C411 C 0.90994 0.33888 0.72685 0.0
C412 C 0.89977 0.32833 0.71709 0.0
C413 C 0.82926 0.40775 0.72316 0.0
H414 H 0.83285 0.3083 0.64639 0.0
H415 H 0.84265 0.32379 0.6707 0.0
H416 H 0.84477 0.36794 0.64186 0.0
H417 H 0.8352 0.3523 0.61734 0.0
H418 H 0.87039 0.33974 0.67776 0.0
H419 H 0.83201 0.37481 0.67136 0.0
H420 H 0.86443 0.37749 0.71409 0.0
H421 H 0.83754 0.38304 0.72446 0.0
H422 H 0.8374 0.4056 0.67664 0.0
H423 H 0.82695 0.43099 0.68856 0.0
H424 H 0.87889 0.32577 0.70073 0.0
H425 H 0.89214 0.37508 0.71648 0.0
H426 H 0.8274 0.40827 0.73625 0.0
H427 H 0.90192 0.31528 0.71669 0.0
H428 H 0.91404 0.36439 0.7339 0.0
C429 C 0.18571 0.32045 0.63489 0.0
C430 C 0.20261 0.32115 0.63237 0.0
C431 C 0.17895 0.32961 0.64739 0.0
C432 C 0.1889 0.33952 0.65798 0.0
C433 C 0.20579 0.34031 0.65543 0.0
C434 C 0.21254 0.33133 0.64274 0.0
C435 C 0.18163 0.34873 0.67173 0.0
C436 C 0.16855 0.34179 0.68015 0.0
C437 C 0.1612 0.3504 0.69279 0.0
C438 C 0.16717 0.3661 0.69716 0.0
C439 C 0.1804 0.37318 0.68918 0.0
C440 C 0.18758 0.36444 0.67646 0.0
C441 C 0.18657 0.38974 0.69427 0.0
C442 C 0.1756 0.40257 0.69663 0.0
C443 C 0.20336 0.39265 0.69743 0.0
C444 C 0.20902 0.40802 0.70311 0.0
C445 C 0.19803 0.42084 0.70553 0.0
C446 C 0.14719 0.34311 0.7014 0.0
C447 C 0.13437 0.33488 0.6926 0.0
C448 C 0.14628 0.3449 0.71849 0.0
C449 C 0.13257 0.33924 0.72651 0.0
C450 C 0.11947 0.33162 0.71765 0.0
C451 C 0.12063 0.32915 0.70068 0.0
C452 C 0.18127 0.41797 0.70212 0.0
H453 H 0.17765 0.31262 0.62736 0.0
H454 H 0.16584 0.3289 0.64872 0.0
H455 H 0.21389 0.34767 0.6634 0.0
H456 H 0.22556 0.33244 0.64105 0.0
H457 H 0.16423 0.32947 0.67713 0.0
H458 H 0.19748 0.37012 0.66998 0.0
H459 H 0.16152 0.37288 0.70687 0.0
H460 H 0.1626 0.4007 0.6942 0.0
H461 H 0.21207 0.38295 0.69583 0.0
H462 H 0.22202 0.40994 0.70546 0.0
H463 H 0.13469 0.3334 0.6794 0.0
H464 H 0.15611 0.35082 0.72568 0.0
H465 H 0.17251 0.42759 0.70391 0.0
H466 H 0.11067 0.32337 0.69356 0.0
H467 H 0.13213 0.34101 0.73967 0.0
C468 C 0.14338 0.3305 0.35328 0.0
C469 C 0.13783 0.33281 0.33689 0.0
C470 C 0.15865 0.33653 0.35894 0.0
C471 C 0.16907 0.34487 0.34835 0.0
C472 C 0.16371 0.34687 0.33183 0.0
C473 C 0.14829 0.34095 0.32619 0.0
C474 C 0.18522 0.35166 0.35471 0.0
C475 C 0.19442 0.34331 0.36698 0.0
C476 C 0.20917 0.34998 0.3737 0.0
C477 C 0.2148 0.36514 0.3679 0.0
C478 C 0.20598 0.37367 0.35564 0.0
C479 C 0.19125 0.36683 0.34905 0.0
C480 C 0.21221 0.38986 0.35001 0.0
C481 C 0.21838 0.40154 0.36148 0.0
C482 C 0.2127 0.39349 0.33319 0.0
C483 C 0.21964 0.40829 0.32797 0.0
C484 C 0.22611 0.41984 0.33947 0.0
C485 C 0.21859 0.34147 0.38709 0.0
C486 C 0.21057 0.33448 0.40037 0.0
C487 C 0.23577 0.34096 0.38708 0.0
C488 C 0.24471 0.3339 0.40013 0.0
C489 C 0.23673 0.32718 0.41357 0.0
C490 C 0.21953 0.32745 0.41347 0.0
C491 C 0.22521 0.41635 0.35629 0.0
H492 H 0.1359 0.324 0.36186 0.0
H493 H 0.16212 0.33489 0.37177 0.0
H494 H 0.17144 0.35301 0.32321 0.0
H495 H 0.14447 0.34303 0.31351 0.0
H496 H 0.19024 0.33145 0.3712 0.0
H497 H 0.18419 0.37367 0.33996 0.0
H498 H 0.2261 0.37043 0.37307 0.0
H499 H 0.21802 0.3992 0.37454 0.0
H500 H 0.2081 0.38471 0.32405 0.0
H501 H 0.21996 0.41069 0.31493 0.0
H502 H 0.19737 0.33477 0.40085 0.0
H503 H 0.24233 0.34608 0.37697 0.0
H504 H 0.23017 0.4249 0.36546 0.0
H505 H 0.21296 0.32218 0.4235 0.0
H506 H 0.25793 0.33401 0.39982 0.0
C507 C 0.20031 0.67968 0.3995 0.0
C508 C 0.21725 0.68278 0.40054 0.0
C509 C 0.19255 0.67508 0.38455 0.0
C510 C 0.20158 0.67323 0.37035 0.0
C511 C 0.21857 0.6761 0.37141 0.0
C512 C 0.22631 0.68099 0.38633 0.0
C513 C 0.19314 0.6685 0.3545 0.0
C514 C 0.17902 0.6768 0.34909 0.0
C515 C 0.17037 0.6721 0.33453 0.0
C516 C 0.17606 0.65875 0.32541 0.0
C517 C 0.19024 0.65034 0.33054 0.0
C518 C 0.19882 0.65545 0.34503 0.0
C519 C 0.19574 0.63584 0.32107 0.0
C520 C 0.18438 0.6238 0.31537 0.0
C521 C 0.21236 0.63375 0.31792 0.0
C522 C 0.21751 0.61988 0.30941 0.0
C523 C 0.20618 0.60768 0.30402 0.0
C524 C 0.15537 0.68106 0.32893 0.0
C525 C 0.1443 0.6869 0.34035 0.0
C526 C 0.15199 0.6839 0.31212 0.0
C527 C 0.1379 0.69221 0.30689 0.0
C528 C 0.12689 0.69803 0.31831 0.0
C529 C 0.13029 0.69535 0.33511 0.0
C530 C 0.18954 0.60987 0.30702 0.0
H531 H 0.193 0.68108 0.41021 0.0
H532 H 0.17946 0.67285 0.38413 0.0
H533 H 0.22581 0.67482 0.36063 0.0
H534 H 0.2394 0.68323 0.3868 0.0
H535 H 0.17496 0.68716 0.35617 0.0
H536 H 0.20954 0.64883 0.34932 0.0
H537 H 0.16937 0.6548 0.31433 0.0
H538 H 0.17151 0.62495 0.31771 0.0
H539 H 0.22139 0.64286 0.32203 0.0
H540 H 0.23043 0.61849 0.30745 0.0
H541 H 0.14628 0.68471 0.35336 0.0
H542 H 0.16035 0.6799 0.30297 0.0
H543 H 0.1805 0.60076 0.30295 0.0
H544 H 0.12193 0.69949 0.3442 0.0
H545 H 0.13572 0.69426 0.29387 0.0
C546 C 0.84232 0.6188 0.3309 0.0
C547 C 0.82555 0.61721 0.32667 0.0
C548 C 0.84861 0.63315 0.33825 0.0
C549 C 0.83827 0.64619 0.34174 0.0
C550 C 0.82132 0.64414 0.3388 0.0
C551 C 0.815 0.62974 0.33128 0.0
C552 C 0.84549 0.66234 0.34666 0.0
C553 C 0.8578 0.66929 0.33716 0.0
C554 C 0.86478 0.68461 0.3413 0.0
C555 C 0.85964 0.69283 0.35529 0.0
C556 C 0.84773 0.68595 0.36526 0.0
C557 C 0.84038 0.6708 0.36065 0.0
C558 C 0.84354 0.69472 0.38059 0.0
C559 C 0.85597 0.70246 0.39032 0.0
C560 C 0.82724 0.69626 0.38515 0.0
C561 C 0.82347 0.70589 0.39878 0.0
C562 C 0.83592 0.71418 0.40811 0.0
C563 C 0.87782 0.69205 0.33145 0.0
C564 C 0.89153 0.68297 0.32722 0.0
C565 C 0.87727 0.70877 0.32748 0.0
C566 C 0.89054 0.7165 0.32038 0.0
C567 C 0.90472 0.70771 0.31715 0.0
C568 C 0.90489 0.69074 0.32013 0.0
C569 C 0.85222 0.71215 0.40378 0.0
H570 H 0.85073 0.60922 0.32782 0.0
H571 H 0.86169 0.63432 0.34064 0.0
H572 H 0.8131 0.65404 0.34138 0.0
H573 H 0.80203 0.62887 0.32814 0.0
H574 H 0.86169 0.66291 0.3263 0.0
H575 H 0.83117 0.66531 0.36819 0.0
H576 H 0.86515 0.70462 0.35855 0.0
H577 H 0.8687 0.70127 0.38738 0.0
H578 H 0.81738 0.69046 0.37792 0.0
H579 H 0.81079 0.70692 0.40192 0.0
H580 H 0.89229 0.67006 0.3302 0.0
H581 H 0.86672 0.716 0.33031 0.0
H582 H 0.86215 0.71842 0.41049 0.0
H583 H 0.91567 0.68367 0.31781 0.0
H584 H 0.8899 0.72951 0.31789 0.0
C585 C 0.82456 0.32069 0.40069 0.0
C586 C 0.81646 0.33118 0.41138 0.0
C587 C 0.83536 0.32695 0.38937 0.0
C588 C 0.83856 0.34389 0.38846 0.0
C589 C 0.83056 0.35444 0.3992 0.0
C590 C 0.81965 0.34815 0.41054 0.0
C591 C 0.85006 0.35037 0.37617 0.0
C592 C 0.84638 0.36464 0.36722 0.0
C593 C 0.85659 0.37022 0.35481 0.0
C594 C 0.87082 0.36137 0.35166 0.0
C595 C 0.87492 0.34725 0.36067 0.0
C596 C 0.86444 0.34188 0.37289 0.0
C597 C 0.89 0.33794 0.35715 0.0
C598 C 0.8949 0.33576 0.34091 0.0
C599 C 0.89959 0.33105 0.36999 0.0
C600 C 0.9136 0.32216 0.36668 0.0
C601 C 0.91849 0.32005 0.35046 0.0
C602 C 0.85225 0.38504 0.34488 0.0
C603 C 0.83583 0.38857 0.34074 0.0
C604 C 0.86449 0.39567 0.33921 0.0
C605 C 0.86045 0.40924 0.32952 0.0
C606 C 0.84402 0.41281 0.32544 0.0
C607 C 0.83177 0.40232 0.33133 0.0
C608 C 0.909 0.32699 0.33762 0.0
H609 H 0.82271 0.30753 0.40116 0.0
H610 H 0.84108 0.31845 0.38118 0.0
H611 H 0.83284 0.36754 0.39894 0.0
H612 H 0.81361 0.35659 0.41854 0.0
H613 H 0.8354 0.37127 0.3698 0.0
H614 H 0.86737 0.33091 0.37975 0.0
H615 H 0.87872 0.36543 0.34208 0.0
H616 H 0.8877 0.3406 0.33067 0.0
H617 H 0.89638 0.33268 0.38266 0.0
H618 H 0.92077 0.31713 0.37686 0.0
H619 H 0.82601 0.38061 0.34459 0.0
H620 H 0.87727 0.3936 0.34231 0.0
H621 H 0.9123 0.32539 0.32498 0.0
H622 H 0.81896 0.40474 0.32879 0.0
H623 H 0.87031 0.4168 0.32509 0.0
C624 C 0.7153 0.19599 0.61792 0.0
C625 C 0.71708 0.21312 0.61672 0.0
C626 C 0.70828 0.18891 0.63156 0.0
C627 C 0.70279 0.19875 0.64437 0.0
C628 C 0.70367 0.21592 0.64278 0.0
C629 C 0.71077 0.22305 0.62906 0.0
C630 C 0.69701 0.19093 0.65961 0.0
C631 C 0.70591 0.17795 0.66675 0.0
C632 C 0.70064 0.17011 0.68096 0.0
C633 C 0.6861 0.17531 0.68787 0.0
C634 C 0.67717 0.18842 0.68115 0.0
C635 C 0.68278 0.19628 0.66706 0.0
C636 C 0.6622 0.19391 0.68925 0.0
C637 C 0.65076 0.18233 0.69469 0.0
C638 C 0.65978 0.2106 0.69261 0.0
C639 C 0.64657 0.21552 0.70181 0.0
C640 C 0.63545 0.20386 0.70777 0.0
C641 C 0.71044 0.15681 0.68893 0.0
C642 C 0.71861 0.14515 0.67955 0.0
C643 C 0.71162 0.15566 0.70614 0.0
C644 C 0.72037 0.14308 0.71375 0.0
C645 C 0.72855 0.13138 0.70445 0.0
C646 C 0.72759 0.13262 0.68722 0.0
C647 C 0.63755 0.18723 0.70381 0.0
H648 H 0.71972 0.18801 0.60844 0.0
H649 H 0.70743 0.17566 0.63223 0.0
H650 H 0.69954 0.22382 0.65247 0.0
H651 H 0.71202 0.23628 0.62851 0.0
H652 H 0.71724 0.17428 0.66145 0.0
H653 H 0.67585 0.20625 0.66166 0.0
H654 H 0.68175 0.16926 0.69871 0.0
H655 H 0.65214 0.1694 0.69206 0.0
H656 H 0.66847 0.2198 0.6887 0.0
H657 H 0.64542 0.22842 0.70474 0.0
H658 H 0.71788 0.14553 0.66626 0.0
H659 H 0.7058 0.16454 0.71383 0.0
H660 H 0.62903 0.17795 0.70785 0.0
H661 H 0.73382 0.12396 0.67961 0.0
H662 H 0.72047 0.14244 0.72702 0.0
C663 C 0.42275 0.24681 0.69672 0.0
C664 C 0.43639 0.23697 0.70021 0.0
C665 C 0.40759 0.23965 0.69209 0.0
C666 C 0.40572 0.22248 0.69103 0.0
C667 C 0.41932 0.21267 0.69471 0.0
C668 C 0.43447 0.21982 0.69921 0.0
C669 C 0.38974 0.21478 0.68579 0.0
C670 C 0.38068 0.22096 0.67229 0.0
C671 C 0.36577 0.21357 0.66687 0.0
C672 C 0.36018 0.19948 0.6751 0.0
C673 C 0.36918 0.19289 0.68857 0.0
C674 C 0.38382 0.2009 0.69393 0.0
C675 C 0.36364 0.17749 0.69684 0.0
C676 C 0.34691 0.17365 0.69826 0.0
C677 C 0.37514 0.16634 0.70333 0.0
C678 C 0.37013 0.15198 0.71111 0.0
C679 C 0.35343 0.148 0.71235 0.0
C680 C 0.3563 0.22046 0.65245 0.0
C681 C 0.35638 0.2375 0.64945 0.0
C682 C 0.34724 0.21014 0.64142 0.0
C683 C 0.33845 0.21667 0.62797 0.0
C684 C 0.33879 0.2336 0.625 0.0
C685 C 0.34788 0.24395 0.63579 0.0
C686 C 0.34189 0.15908 0.70577 0.0
H687 H 0.42385 0.26005 0.69732 0.0
H688 H 0.3973 0.24753 0.68944 0.0
H689 H 0.41834 0.19943 0.69387 0.0
H690 H 0.44468 0.21188 0.70202 0.0
H691 H 0.3856 0.23128 0.66567 0.0
H692 H 0.39062 0.19645 0.70462 0.0
H693 H 0.34886 0.19355 0.67093 0.0
H694 H 0.33761 0.18193 0.69368 0.0
H695 H 0.38812 0.16855 0.70227 0.0
H696 H 0.37948 0.14406 0.71624 0.0
H697 H 0.36284 0.24595 0.65777 0.0
H698 H 0.34708 0.19697 0.64299 0.0
H699 H 0.32892 0.15645 0.7062 0.0
H700 H 0.34813 0.25708 0.6338 0.0
H701 H 0.33151 0.20847 0.61974 0.0
C702 C 0.32969 0.8263 0.63715 0.0
C703 C 0.32874 0.83422 0.62188 0.0
C704 C 0.33426 0.83506 0.65144 0.0
C705 C 0.33767 0.85199 0.65082 0.0
C706 C 0.33624 0.86004 0.63565 0.0
C707 C 0.33198 0.85119 0.62127 0.0
C708 C 0.34355 0.86094 0.66588 0.0
C709 C 0.35718 0.8551 0.67497 0.0
C710 C 0.36299 0.86311 0.68942 0.0
C711 C 0.35465 0.877 0.6948 0.0
C712 C 0.34102 0.88315 0.68584 0.0
C713 C 0.33568 0.87514 0.67121 0.0
C714 C 0.33266 0.89801 0.69198 0.0
C715 C 0.33014 0.89981 0.70886 0.0
C716 C 0.32833 0.911 0.68141 0.0
C717 C 0.32268 0.92584 0.68779 0.0
C718 C 0.32132 0.92792 0.70481 0.0
C719 C 0.37787 0.85717 0.69874 0.0
C720 C 0.38137 0.84033 0.69965 0.0
C721 C 0.38883 0.86833 0.70672 0.0
C722 C 0.40277 0.86286 0.71538 0.0
C723 C 0.40642 0.84605 0.71608 0.0
C724 C 0.39548 0.83487 0.70806 0.0
C725 C 0.32462 0.91458 0.71519 0.0
H726 H 0.32734 0.81323 0.63795 0.0
H727 H 0.33525 0.82859 0.663 0.0
H728 H 0.33888 0.87305 0.63485 0.0
H729 H 0.33127 0.8576 0.60966 0.0
H730 H 0.36352 0.84453 0.67042 0.0
H731 H 0.32514 0.87963 0.66425 0.0
H732 H 0.35881 0.88316 0.70603 0.0
H733 H 0.33293 0.88993 0.7173 0.0
H734 H 0.33014 0.91001 0.66835 0.0
H735 H 0.32029 0.93598 0.67955 0.0
H736 H 0.37317 0.83128 0.69391 0.0
H737 H 0.38682 0.88141 0.70614 0.0
H738 H 0.32349 0.91579 0.72835 0.0
H739 H 0.39789 0.82185 0.70806 0.0
H740 H 0.41066 0.87189 0.72158 0.0
C741 C 0.68128 0.83384 0.61548 0.0
C742 C 0.69849 0.83453 0.61591 0.0
C743 C 0.67269 0.83677 0.62974 0.0
C744 C 0.68118 0.8407 0.64458 0.0
C745 C 0.69836 0.84106 0.64504 0.0
C746 C 0.70691 0.83794 0.6309 0.0
C747 C 0.67239 0.84551 0.65939 0.0
C748 C 0.66018 0.83537 0.66586 0.0
C749 C 0.65314 0.83962 0.68074 0.0
C750 C 0.65797 0.8543 0.68878 0.0
C751 C 0.66976 0.86477 0.6822 0.0
C752 C 0.67689 0.86023 0.6675 0.0
C753 C 0.67488 0.88026 0.69084 0.0
C754 C 0.66336 0.89006 0.69851 0.0
C755 C 0.69137 0.88538 0.69146 0.0
C756 C 0.6962 0.89997 0.69941 0.0
C757 C 0.68471 0.90977 0.70711 0.0
C758 C 0.64124 0.82866 0.68865 0.0
C759 C 0.62585 0.82509 0.68115 0.0
C760 C 0.64458 0.8234 0.70477 0.0
C761 C 0.63245 0.81572 0.71365 0.0
C762 C 0.6166 0.81331 0.7067 0.0
C763 C 0.61358 0.81748 0.69013 0.0
C764 C 0.66822 0.90461 0.70658 0.0
H765 H 0.67449 0.83111 0.6041 0.0
H766 H 0.65945 0.83648 0.62907 0.0
H767 H 0.70519 0.84399 0.65636 0.0
H768 H 0.72015 0.83867 0.63161 0.0
H769 H 0.65673 0.82391 0.65978 0.0
H770 H 0.68593 0.86824 0.66219 0.0
H771 H 0.65265 0.85742 0.70035 0.0
H772 H 0.65053 0.88659 0.69814 0.0
H773 H 0.70063 0.87805 0.6859 0.0
H774 H 0.70897 0.90365 0.69934 0.0
H775 H 0.62301 0.8291 0.66872 0.0
H776 H 0.65642 0.82588 0.71075 0.0
H777 H 0.65906 0.91176 0.71251 0.0
H778 H 0.60148 0.81581 0.68445 0.0
H779 H 0.63528 0.81233 0.72627 0.0
C780 C 0.62106 0.83845 0.33983 0.0
C781 C 0.61804 0.83958 0.32275 0.0
C782 C 0.63654 0.84214 0.34685 0.0
C783 C 0.64944 0.84709 0.337 0.0
C784 C 0.64645 0.84818 0.31991 0.0
C785 C 0.63095 0.84442 0.31287 0.0
C786 C 0.66589 0.85117 0.34458 0.0
C787 C 0.67266 0.84142 0.35724 0.0
C788 C 0.68805 0.84527 0.36469 0.0
C789 C 0.69674 0.85911 0.35913 0.0
C790 C 0.69029 0.86898 0.34636 0.0
C791 C 0.67479 0.8649 0.33928 0.0
C792 C 0.69971 0.88347 0.34031 0.0
C793 C 0.70911 0.89359 0.35121 0.0
C794 C 0.69935 0.88732 0.32348 0.0
C795 C 0.70805 0.90088 0.31773 0.0
C796 C 0.71752 0.91096 0.3286 0.0
C797 C 0.69509 0.83475 0.37814 0.0
C798 C 0.68502 0.82764 0.38991 0.0
C799 C 0.71196 0.83171 0.37934 0.0
C800 C 0.71859 0.82205 0.392 0.0
C801 C 0.70856 0.81493 0.40378 0.0
C802 C 0.69165 0.81783 0.40251 0.0
C803 C 0.71792 0.90711 0.34543 0.0
H804 H 0.61148 0.83455 0.3478 0.0
H805 H 0.63836 0.84131 0.36005 0.0
H806 H 0.65615 0.85179 0.31195 0.0
H807 H 0.62903 0.84549 0.2997 0.0
H808 H 0.66606 0.83055 0.361 0.0
H809 H 0.66941 0.87268 0.32986 0.0
H810 H 0.7086 0.8622 0.36472 0.0
H811 H 0.70956 0.89118 0.36427 0.0
H812 H 0.69246 0.87974 0.31465 0.0
H813 H 0.70719 0.90353 0.30473 0.0
H814 H 0.672 0.82983 0.38956 0.0
H815 H 0.72012 0.83671 0.37043 0.0
H816 H 0.7252 0.91443 0.35418 0.0
H817 H 0.68347 0.81248 0.41121 0.0
H818 H 0.7317 0.82043 0.39266 0.0
C819 C 0.6985 0.19858 0.40013 0.0
C820 C 0.71555 0.20097 0.3996 0.0
C821 C 0.68924 0.19399 0.38596 0.0
C822 C 0.69685 0.19157 0.37097 0.0
C823 C 0.71382 0.19427 0.37038 0.0
C824 C 0.72302 0.19895 0.38447 0.0
C825 C 0.68736 0.18579 0.35604 0.0
C826 C 0.67243 0.19296 0.3512 0.0
C827 C 0.66385 0.18788 0.33666 0.0
C828 C 0.67048 0.17532 0.32703 0.0
C829 C 0.68548 0.16808 0.33163 0.0
C830 C 0.69361 0.17328 0.34629 0.0
C831 C 0.69316 0.15556 0.32099 0.0
C832 C 0.68384 0.14315 0.31276 0.0
C833 C 0.71018 0.15584 0.31924 0.0
C834 C 0.71774 0.14392 0.30996 0.0
C835 C 0.70854 0.13141 0.30179 0.0
C836 C 0.64827 0.19604 0.33128 0.0
C837 C 0.63693 0.20117 0.34278 0.0
C838 C 0.64464 0.19885 0.31451 0.0
C839 C 0.62996 0.20614 0.30938 0.0
C840 C 0.61856 0.21101 0.32085 0.0
C841 C 0.62229 0.20866 0.33763 0.0
C842 C 0.69144 0.13121 0.30329 0.0
H843 H 0.69232 0.19987 0.41157 0.0
H844 H 0.67621 0.1919 0.38682 0.0
H845 H 0.72 0.19281 0.35896 0.0
H846 H 0.73604 0.20107 0.38345 0.0
H847 H 0.66785 0.20293 0.35847 0.0
H848 H 0.7049 0.16747 0.35027 0.0
H849 H 0.6641 0.17131 0.3158 0.0
H850 H 0.67071 0.14248 0.31388 0.0
H851 H 0.71779 0.16533 0.3251 0.0
H852 H 0.73094 0.1444 0.30947 0.0
H853 H 0.63916 0.1991 0.35578 0.0
H854 H 0.65318 0.19553 0.30528 0.0
H855 H 0.68391 0.12187 0.29711 0.0
H856 H 0.61368 0.21216 0.34675 0.0
H857 H 0.62754 0.20801 0.29637 0.0
C858 C 0.31936 0.10771 0.33504 0.0
C859 C 0.30221 0.10779 0.33566 0.0
C860 C 0.32865 0.12169 0.33942 0.0
C861 C 0.32099 0.13605 0.34453 0.0
C862 C 0.30383 0.13617 0.34503 0.0
C863 C 0.29455 0.12219 0.34066 0.0
C864 C 0.33087 0.1507 0.34987 0.0
C865 C 0.34451 0.1558 0.34117 0.0
C866 C 0.35423 0.16935 0.34653 0.0
C867 C 0.34986 0.17797 0.36074 0.0
C868 C 0.33602 0.17319 0.36938 0.0
C869 C 0.32677 0.15946 0.36392 0.0
C870 C 0.33118 0.18213 0.38435 0.0
C871 C 0.34285 0.18688 0.39662 0.0
C872 C 0.31457 0.18502 0.38691 0.0
C873 C 0.30965 0.19177 0.40167 0.0
C874 C 0.32123 0.19594 0.41424 0.0
C875 C 0.36879 0.17444 0.33717 0.0
C876 C 0.37841 0.16261 0.32958 0.0
C877 C 0.37305 0.19112 0.33543 0.0
C878 C 0.38644 0.19582 0.32625 0.0
C879 C 0.39574 0.18397 0.3184 0.0
C880 C 0.39162 0.16733 0.3202 0.0
C881 C 0.33793 0.19371 0.41141 0.0
H882 H 0.32565 0.09674 0.33144 0.0
H883 H 0.34185 0.12113 0.33915 0.0
H884 H 0.29755 0.14712 0.34869 0.0
H885 H 0.28136 0.12273 0.341 0.0
H886 H 0.34734 0.14935 0.33 0.0
H887 H 0.31655 0.15527 0.37095 0.0
H888 H 0.35719 0.18837 0.3651 0.0
H889 H 0.35573 0.18477 0.39505 0.0
H890 H 0.30528 0.18172 0.3776 0.0
H891 H 0.2967 0.19316 0.40343 0.0
H892 H 0.37582 0.14964 0.33092 0.0
H893 H 0.36584 0.20062 0.34085 0.0
H894 H 0.34719 0.19702 0.42073 0.0
H895 H 0.39873 0.15793 0.31447 0.0
H896 H 0.38928 0.20875 0.32496 0.0
C897 C 0.30876 0.83363 0.39717 0.0
C898 C 0.31872 0.83077 0.41129 0.0
C899 C 0.31534 0.84111 0.38334 0.0
C900 C 0.33196 0.84577 0.38345 0.0
C901 C 0.34152 0.84392 0.39798 0.0
C902 C 0.33499 0.83656 0.41172 0.0
C903 C 0.33991 0.85125 0.36827 0.0
C904 C 0.33341 0.86391 0.35849 0.0
C905 C 0.34178 0.86962 0.34477 0.0
C906 C 0.35658 0.86221 0.34077 0.0
C907 C 0.36312 0.84937 0.35027 0.0
C908 C 0.35459 0.84395 0.36391 0.0
C909 C 0.37904 0.84183 0.34631 0.0
C910 C 0.38324 0.83911 0.32994 0.0
C911 C 0.3902 0.83723 0.35897 0.0
C912 C 0.40502 0.82997 0.3554 0.0
C913 C 0.40925 0.82726 0.33904 0.0
C914 C 0.33554 0.8838 0.33503 0.0
C915 C 0.31883 0.8851 0.33064 0.0
C916 C 0.34635 0.89625 0.33011 0.0
C917 C 0.34061 0.90971 0.32118 0.0
C918 C 0.32389 0.9111 0.31688 0.0
C919 C 0.31307 0.89856 0.32161 0.0
C920 C 0.39816 0.83196 0.32636 0.0
H921 H 0.29619 0.82926 0.39649 0.0
H922 H 0.30769 0.84242 0.3723 0.0
H923 H 0.35428 0.84771 0.39855 0.0
H924 H 0.34288 0.83482 0.42253 0.0
H925 H 0.32225 0.86976 0.36198 0.0
H926 H 0.35931 0.83385 0.37117 0.0
H927 H 0.36312 0.86663 0.33032 0.0
H928 H 0.37492 0.84233 0.31986 0.0
H929 H 0.38756 0.83936 0.37173 0.0
H930 H 0.4131 0.82635 0.36552 0.0
H931 H 0.3102 0.87567 0.33413 0.0
H932 H 0.35928 0.89576 0.33343 0.0
H933 H 0.40105 0.83028 0.31361 0.0
H934 H 0.3001 0.89933 0.31865 0.0
H935 H 0.34929 0.91907 0.31763 0.0
C936 C 0.69781 0.70139 0.11709 0.0
C937 C 0.69766 0.71859 0.1159 0.0
C938 C 0.69321 0.69358 0.13146 0.0
C939 C 0.68832 0.70274 0.14504 0.0
C940 C 0.68778 0.71993 0.14373 0.0
C941 C 0.69238 0.72776 0.12932 0.0
C942 C 0.68425 0.69441 0.16065 0.0
C943 C 0.69383 0.68139 0.16658 0.0
C944 C 0.69023 0.67334 0.18128 0.0
C945 C 0.67701 0.67889 0.19028 0.0
C946 C 0.66736 0.6921 0.18476 0.0
C947 C 0.671 0.69957 0.16975 0.0
C948 C 0.6538 0.69832 0.19486 0.0
C949 C 0.64476 0.68768 0.20475 0.0
C950 C 0.65006 0.71512 0.19506 0.0
C951 C 0.63777 0.72107 0.20483 0.0
C952 C 0.62906 0.71053 0.21511 0.0
C953 C 0.70032 0.65922 0.18724 0.0
C954 C 0.70717 0.64828 0.17606 0.0
C955 C 0.70312 0.65644 0.20414 0.0
C956 C 0.71219 0.64302 0.20968 0.0
C957 C 0.71915 0.63214 0.19851 0.0
C958 C 0.71659 0.63508 0.1816 0.0
C959 C 0.63274 0.69371 0.21486 0.0
H960 H 0.70152 0.69393 0.10688 0.0
H961 H 0.69347 0.68031 0.13192 0.0
H962 H 0.68425 0.72739 0.15401 0.0
H963 H 0.69229 0.74103 0.1289 0.0
H964 H 0.70441 0.67781 0.1599 0.0
H965 H 0.66335 0.70929 0.16494 0.0
H966 H 0.67426 0.67296 0.2017 0.0
H967 H 0.64692 0.67462 0.20477 0.0
H968 H 0.65681 0.72384 0.18787 0.0
H969 H 0.63514 0.73403 0.20427 0.0
H970 H 0.70516 0.64975 0.16295 0.0
H971 H 0.6984 0.66467 0.21322 0.0
H972 H 0.62654 0.68513 0.22267 0.0
H973 H 0.72192 0.62726 0.17253 0.0
H974 H 0.71355 0.64114 0.22279 0.0
C975 C 0.40846 0.73837 0.19119 0.0
C976 C 0.42316 0.72972 0.19336 0.0
C977 C 0.3945 0.73068 0.18397 0.0
C978 C 0.39496 0.71418 0.17898 0.0
C979 C 0.4098 0.70583 0.18037 0.0
C980 C 0.42376 0.71354 0.18731 0.0
C981 C 0.37991 0.70514 0.17342 0.0
C982 C 0.37055 0.71023 0.15964 0.0
C983 C 0.35698 0.70081 0.15377 0.0
C984 C 0.35274 0.68632 0.16215 0.0
C985 C 0.36183 0.68118 0.17619 0.0
C986 C 0.37535 0.69084 0.1817 0.0
C987 C 0.35752 0.66568 0.18497 0.0
C988 C 0.34117 0.66029 0.18602 0.0
C989 C 0.36982 0.65614 0.19258 0.0
C990 C 0.36592 0.64195 0.20124 0.0
C991 C 0.34959 0.63648 0.20223 0.0
C992 C 0.3475 0.70576 0.13863 0.0
C993 C 0.34359 0.72229 0.13573 0.0
C994 C 0.34214 0.69389 0.12698 0.0
C995 C 0.33273 0.69831 0.11309 0.0
C996 C 0.32841 0.71474 0.1104 0.0
C997 C 0.33417 0.72673 0.12175 0.0
C998 C 0.33728 0.64585 0.19439 0.0
H999 H 0.40752 0.7508 0.19576 0.0
H1000 H 0.38315 0.73734 0.18302 0.0
H1001 H 0.41051 0.69317 0.17638 0.0
H1002 H 0.43495 0.70663 0.18833 0.0
H1003 H 0.37426 0.72114 0.15313 0.0
H1004 H 0.38239 0.6874 0.19264 0.0
H1005 H 0.3424 0.67898 0.15759 0.0
H1006 H 0.33127 0.6673 0.18054 0.0
H1007 H 0.3826 0.65954 0.19184 0.0
H1008 H 0.37582 0.63539 0.20729 0.0
H1009 H 0.34744 0.73175 0.14448 0.0
H1010 H 0.34526 0.68112 0.12857 0.0
H1011 H 0.32457 0.64202 0.19457 0.0
H1012 H 0.33096 0.73947 0.1201 0.0
H1013 H 0.32878 0.6888 0.10442 0.0
C1014 C 0.34563 0.31674 0.13417 0.0
C1015 C 0.34198 0.32651 0.12036 0.0
C1016 C 0.35002 0.32396 0.14939 0.0
C1017 C 0.3509 0.34114 0.15123 0.0
C1018 C 0.34717 0.35089 0.13744 0.0
C1019 C 0.34274 0.34369 0.12226 0.0
C1020 C 0.35577 0.34888 0.16741 0.0
C1021 C 0.3681 0.34194 0.17755 0.0
C1022 C 0.37272 0.34895 0.1929 0.0
C1023 C 0.36504 0.36337 0.19789 0.0
C1024 C 0.35265 0.37061 0.18797 0.0
C1025 C 0.3481 0.36319 0.17279 0.0
C1026 C 0.34431 0.38575 0.19359 0.0
C1027 C 0.34082 0.38792 0.21024 0.0
C1028 C 0.3399 0.39824 0.18245 0.0
C1029 C 0.33254 0.41261 0.18788 0.0
C1030 C 0.32952 0.41492 0.20459 0.0
C1031 C 0.38515 0.3408 0.2039 0.0
C1032 C 0.38506 0.32363 0.20532 0.0
C1033 C 0.39702 0.34994 0.21318 0.0
C1034 C 0.40846 0.34206 0.22361 0.0
C1035 C 0.40821 0.32488 0.2251 0.0
C1036 C 0.39643 0.3158 0.2157 0.0
C1037 C 0.3336 0.40231 0.21566 0.0
H1038 H 0.3453 0.30349 0.13319 0.0
H1039 H 0.35258 0.31603 0.15976 0.0
H1040 H 0.34786 0.36414 0.1383 0.0
H1041 H 0.33976 0.35164 0.11201 0.0
H1042 H 0.37434 0.33116 0.17337 0.0
H1043 H 0.33823 0.36833 0.16533 0.0
H1044 H 0.36861 0.36888 0.20963 0.0
H1045 H 0.34362 0.37845 0.21914 0.0
H1046 H 0.34252 0.39711 0.16957 0.0
H1047 H 0.32967 0.42215 0.17907 0.0
H1048 H 0.37603 0.31616 0.19856 0.0
H1049 H 0.39756 0.36318 0.21228 0.0
H1050 H 0.33118 0.40358 0.22858 0.0
H1051 H 0.39602 0.30253 0.21624 0.0
H1052 H 0.41733 0.34944 0.23068 0.0
C1053 C 0.67716 0.33467 0.12748 0.0
C1054 C 0.69352 0.32965 0.12801 0.0
C1055 C 0.6707 0.34272 0.14087 0.0
C1056 C 0.68041 0.34591 0.15517 0.0
C1057 C 0.69694 0.3414 0.1555 0.0
C1058 C 0.70344 0.33337 0.14204 0.0
C1059 C 0.67301 0.35323 0.16987 0.0
C1060 C 0.65746 0.34797 0.17446 0.0
C1061 C 0.65015 0.35461 0.18828 0.0
C1062 C 0.65866 0.36673 0.19771 0.0
C1063 C 0.67435 0.37206 0.19336 0.0
C1064 C 0.6814 0.36522 0.17944 0.0
C1065 C 0.68358 0.38486 0.20307 0.0
C1066 C 0.67651 0.40002 0.20669 0.0
C1067 C 0.70012 0.38246 0.20746 0.0
C1068 C 0.70967 0.39525 0.2143 0.0
C1069 C 0.70299 0.41082 0.21678 0.0
C1070 C 0.63391 0.34815 0.19291 0.0
C1071 C 0.62149 0.34544 0.18075 0.0
C1072 C 0.63123 0.3431 0.20905 0.0
C1073 C 0.61677 0.33474 0.21275 0.0
C1074 C 0.60466 0.33136 0.2004 0.0
C1075 C 0.60705 0.33715 0.18445 0.0
C1076 C 0.68615 0.41292 0.21348 0.0
H1077 H 0.6693 0.33229 0.11671 0.0
H1078 H 0.65802 0.34635 0.14006 0.0
H1079 H 0.70471 0.34356 0.16638 0.0
H1080 H 0.71607 0.32956 0.14284 0.0
H1081 H 0.65118 0.33825 0.16751 0.0
H1082 H 0.69332 0.36954 0.17583 0.0
H1083 H 0.65317 0.37191 0.20843 0.0
H1084 H 0.66378 0.40218 0.20342 0.0
H1085 H 0.70581 0.37082 0.20509 0.0
H1086 H 0.72252 0.39312 0.21705 0.0
H1087 H 0.62315 0.34932 0.16822 0.0
H1088 H 0.64061 0.34494 0.21865 0.0
H1089 H 0.68066 0.42478 0.21521 0.0
H1090 H 0.59804 0.3347 0.17462 0.0
H1091 H 0.6152 0.33066 0.22522 0.0
C1092 C 0.63982 0.34295 0.84191 0.0
C1093 C 0.64169 0.33896 0.8253 0.0
C1094 C 0.65268 0.35045 0.85112 0.0
C1095 C 0.66748 0.35441 0.8438 0.0
C1096 C 0.66913 0.35095 0.82704 0.0
C1097 C 0.65641 0.3431 0.81792 0.0
C1098 C 0.68138 0.36161 0.85376 0.0
C1099 C 0.68743 0.35346 0.86782 0.0
C1100 C 0.7007 0.36 0.8774 0.0
C1101 C 0.70763 0.37511 0.87268 0.0
C1102 C 0.7019 0.38335 0.85851 0.0
C1103 C 0.68877 0.37642 0.84908 0.0
C1104 C 0.70986 0.39906 0.85351 0.0
C1105 C 0.71525 0.41073 0.86537 0.0
C1106 C 0.71255 0.40233 0.83688 0.0
C1107 C 0.72058 0.41677 0.83228 0.0
C1108 C 0.72623 0.4283 0.84418 0.0
C1109 C 0.7075 0.35104 0.89212 0.0
C1110 C 0.69741 0.34115 0.90174 0.0
C1111 C 0.72423 0.35231 0.89674 0.0
C1112 C 0.73057 0.34433 0.91067 0.0
C1113 C 0.72053 0.33433 0.92023 0.0
C1114 C 0.70385 0.33277 0.91543 0.0
C1115 C 0.72338 0.4251 0.86079 0.0
H1116 H 0.62865 0.33971 0.8479 0.0
H1117 H 0.65112 0.35305 0.86402 0.0
H1118 H 0.68045 0.35384 0.82114 0.0
H1119 H 0.65815 0.34006 0.80515 0.0
H1120 H 0.68205 0.34172 0.87091 0.0
H1121 H 0.68401 0.38271 0.83827 0.0
H1122 H 0.71767 0.38047 0.87998 0.0
H1123 H 0.71319 0.4088 0.87827 0.0
H1124 H 0.70872 0.39358 0.8274 0.0
H1125 H 0.72229 0.4189 0.81935 0.0
H1126 H 0.68443 0.33994 0.89885 0.0
H1127 H 0.73261 0.35941 0.88957 0.0
H1128 H 0.72767 0.43357 0.87034 0.0
H1129 H 0.69566 0.325 0.92215 0.0
H1130 H 0.74338 0.34624 0.91397 0.0
C1131 C 0.72692 0.69722 0.9047 0.0
C1132 C 0.72783 0.71443 0.906 0.0
C1133 C 0.71795 0.68964 0.89165 0.0
C1134 C 0.70958 0.69909 0.8797 0.0
C1135 C 0.71044 0.71627 0.88111 0.0
C1136 C 0.71938 0.72381 0.89407 0.0
C1137 C 0.70021 0.69125 0.86559 0.0
C1138 C 0.68508 0.69758 0.86011 0.0
C1139 C 0.67658 0.6911 0.84613 0.0
C1140 C 0.68356 0.67805 0.83754 0.0
C1141 C 0.69877 0.67157 0.84269 0.0
C1142 C 0.7068 0.67809 0.85695 0.0
C1143 C 0.7068 0.65878 0.83263 0.0
C1144 C 0.69765 0.64627 0.82436 0.0
C1145 C 0.72382 0.65931 0.83085 0.0
C1146 C 0.73147 0.64776 0.82117 0.0
C1147 C 0.72235 0.63543 0.81263 0.0
C1148 C 0.66083 0.69853 0.84015 0.0
C1149 C 0.64963 0.70461 0.85131 0.0
C1150 C 0.65708 0.70014 0.82324 0.0
C1151 C 0.6427 0.70774 0.81767 0.0
C1152 C 0.63171 0.71422 0.82883 0.0
C1153 C 0.63537 0.71244 0.84574 0.0
C1154 C 0.70532 0.63476 0.81446 0.0
H1155 H 0.7333 0.68963 0.91364 0.0
H1156 H 0.71746 0.67637 0.891 0.0
H1157 H 0.70437 0.72396 0.87204 0.0
H1158 H 0.71953 0.73708 0.8948 0.0
H1159 H 0.68007 0.70785 0.86662 0.0
H1160 H 0.71848 0.67324 0.86111 0.0
H1161 H 0.6773 0.67315 0.82661 0.0
H1162 H 0.68454 0.64531 0.82556 0.0
H1163 H 0.73133 0.66886 0.83671 0.0
H1164 H 0.74464 0.64852 0.82046 0.0
H1165 H 0.65189 0.7034 0.86442 0.0
H1166 H 0.66542 0.69585 0.81421 0.0
H1167 H 0.69785 0.62552 0.80807 0.0
H1168 H 0.62739 0.71738 0.85478 0.0
H1169 H 0.64024 0.70855 0.80456 0.0
C1170 C 0.34213 0.61522 0.81781 0.0
C1171 C 0.32554 0.61508 0.81258 0.0
C1172 C 0.34967 0.62956 0.82395 0.0
C1173 C 0.34078 0.64408 0.82519 0.0
C1174 C 0.32407 0.64386 0.82048 0.0
C1175 C 0.31654 0.62952 0.81419 0.0
C1176 C 0.34896 0.65935 0.83144 0.0
C1177 C 0.36432 0.66415 0.82581 0.0
C1178 C 0.37238 0.67837 0.83199 0.0
C1179 C 0.36497 0.68767 0.84419 0.0
C1180 C 0.34959 0.68302 0.84985 0.0
C1181 C 0.3416 0.66899 0.8433 0.0
C1182 C 0.34199 0.69223 0.86317 0.0
C1183 C 0.34986 0.69348 0.87875 0.0
C1184 C 0.3262 0.69851 0.8608 0.0
C1185 C 0.31827 0.70566 0.87388 0.0
C1186 C 0.32586 0.70629 0.88962 0.0
C1187 C 0.38847 0.68344 0.82561 0.0
C1188 C 0.40065 0.67179 0.82315 0.0
C1189 C 0.39167 0.6999 0.82163 0.0
C1190 C 0.40666 0.70458 0.81525 0.0
C1191 C 0.41886 0.69293 0.81284 0.0
C1192 C 0.41569 0.67648 0.81689 0.0
C1193 C 0.34178 0.7003 0.89192 0.0
H1194 H 0.34935 0.60423 0.81708 0.0
H1195 H 0.36248 0.62928 0.82782 0.0
H1196 H 0.31694 0.6549 0.82125 0.0
H1197 H 0.30381 0.62991 0.8101 0.0
H1198 H 0.36985 0.65697 0.81632 0.0
H1199 H 0.32988 0.66523 0.84793 0.0
H1200 H 0.37117 0.69846 0.84936 0.0
H1201 H 0.36198 0.68856 0.88086 0.0
H1202 H 0.3199 0.6976 0.84888 0.0
H1203 H 0.30595 0.71011 0.87184 0.0
H1204 H 0.39862 0.65903 0.82621 0.0
H1205 H 0.38249 0.70915 0.82325 0.0
H1206 H 0.34787 0.7007 0.90396 0.0
H1207 H 0.42479 0.6672 0.81511 0.0
H1208 H 0.4088 0.71738 0.81242 0.0
C1209 C 0.3198 0.33921 0.89921 0.0
C1210 C 0.32929 0.33395 0.91289 0.0
C1211 C 0.32724 0.34436 0.88488 0.0
C1212 C 0.34438 0.34443 0.88387 0.0
C1213 C 0.35386 0.33955 0.89772 0.0
C1214 C 0.34642 0.33437 0.91201 0.0
C1215 C 0.35231 0.34903 0.8683 0.0
C1216 C 0.34635 0.36208 0.85862 0.0
C1217 C 0.35338 0.36609 0.84358 0.0
C1218 C 0.36668 0.35681 0.83847 0.0
C1219 C 0.37312 0.34402 0.84813 0.0
C1220 C 0.36578 0.34017 0.86295 0.0
C1221 C 0.3877 0.33492 0.84274 0.0
C1222 C 0.38932 0.33078 0.82611 0.0
C1223 C 0.40047 0.33099 0.85404 0.0
C1224 C 0.41473 0.32365 0.84873 0.0
C1225 C 0.41657 0.32014 0.832 0.0
C1226 C 0.34685 0.3798 0.8331 0.0
C1227 C 0.33014 0.38368 0.83269 0.0
C1228 C 0.35724 0.38891 0.82306 0.0
C1229 C 0.35106 0.40101 0.81252 0.0
C1230 C 0.33432 0.40484 0.81201 0.0
C1231 C 0.32402 0.39613 0.82249 0.0
C1232 C 0.40357 0.32353 0.82081 0.0
H1233 H 0.30657 0.33889 0.8994 0.0
H1234 H 0.31953 0.34783 0.87441 0.0
H1235 H 0.36708 0.33976 0.89753 0.0
H1236 H 0.35412 0.3307 0.92241 0.0
H1237 H 0.33643 0.36932 0.86304 0.0
H1238 H 0.37032 0.32994 0.87012 0.0
H1239 H 0.37217 0.35955 0.82692 0.0
H1240 H 0.3796 0.33327 0.81712 0.0
H1241 H 0.39971 0.33413 0.86692 0.0
H1242 H 0.42457 0.3213 0.85764 0.0
H1243 H 0.32161 0.37694 0.84002 0.0
H1244 H 0.37025 0.38674 0.82322 0.0
H1245 H 0.40448 0.32068 0.80788 0.0
H1246 H 0.31115 0.39884 0.82289 0.0
H1247 H 0.35948 0.40712 0.80459 0.0
Cu1248 Cu 0.27011 0.27461 0.02403 0.0
N1249 N 0.27145 0.29391 0.01173 0.0
N1250 N 0.27864 0.31086 0.99161 0.0
C1251 C 0.27861 0.29527 0.99716 0.0
C1252 C 0.27109 0.31962 1.00315 0.0
C1253 C 0.26674 0.30915 0.01557 0.0
O1254 O 0.26687 0.25656 1.00822 0.0
C1255 C 0.30044 0.28407 0.0403 0.0
O1256 O 0.30206 0.29423 0.02801 0.0
H1257 H 0.28385 0.28499 0.99087 0.0
H1258 H 0.26095 0.31249 0.02679 0.0
N1259 N 0.25204 0.27442 0.03751 0.0
N1260 N 0.23577 0.2664 0.05759 0.0
C1261 C 0.25005 0.26406 0.05013 0.0
C1262 C 0.23859 0.28371 0.0369 0.0
C1263 C 0.22855 0.2788 0.04924 0.0
C1264 C 0.25343 0.25759 0.99986 0.0
O1265 O 0.24396 0.2701 1.00261 0.0
H1266 H 0.25906 0.25508 0.05382 0.0
H1267 H 0.23613 0.29321 0.02798 0.0
O1268 O 0.28888 0.27339 0.03957 0.0
H1269 H 0.26932 0.33274 1.00292 0.0
H1270 H 0.2167 0.28381 0.05164 0.0
Cu1271 Cu 0.77231 0.26963 0.02282 0.0
N1272 N 0.75331 0.27632 0.03483 0.0
N1273 N 0.7374 0.28756 0.05337 0.0
C1274 C 0.75289 0.28547 0.04862 0.0
C1275 C 0.72782 0.27945 0.04202 0.0
C1276 C 0.73767 0.27254 0.03064 0.0
O1277 O 0.78135 0.25769 0.0431 0.0
C1278 C 0.77111 0.29168 0.99431 0.0
O1279 O 0.78627 0.29531 0.999 0.0
H1280 H 0.76371 0.29031 0.05509 0.0
H1281 H 0.73375 0.26533 0.01998 0.0
N1282 N 0.79113 0.26258 0.01063 0.0
N1283 N 0.80589 0.25163 0.99101 0.0
C1284 C 0.79079 0.25338 0.99685 0.0
C1285 C 0.80692 0.26674 0.01369 0.0
C1286 C 0.81606 0.25999 1.0016 0.0
C1287 C 0.79127 0.26476 0.05338 0.0
O1288 O 0.7955 0.28014 0.05096 0.0
H1289 H 0.77964 0.24856 0.99097 0.0
H1290 H 0.81143 0.27442 0.02377 0.0
O1291 O 0.76294 0.28136 1.00246 0.0
H1292 H 0.71461 0.27876 0.04177 0.0
H1293 H 0.82918 0.26119 1.00067 0.0
Cu1294 Cu 0.75898 0.78393 0.01114 0.0
N1295 N 0.76033 0.8002 0.99507 0.0
N1296 N 0.77007 0.81252 0.97285 0.0
C1297 C 0.77212 0.80044 0.984 0.0
C1298 C 0.7564 0.82029 0.97727 0.0
C1299 C 0.75043 0.81266 0.99097 0.0
O1300 O 0.7625 0.76341 0.9994 0.0
C1301 C 0.77016 0.8037 0.03586 0.0
O1302 O 0.75735 0.81127 0.02953 0.0
H1303 H 0.78192 0.7917 0.98417 0.0
H1304 H 0.73953 0.81585 0.99728 0.0
N1305 N 0.73856 0.78177 0.02055 0.0
N1306 N 0.72058 0.7728 0.0386 0.0
C1307 C 0.73635 0.77317 0.03434 0.0
C1308 C 0.72364 0.78711 0.0158 0.0
C1309 C 0.71251 0.78164 0.02698 0.0
C1310 C 0.75226 0.76157 0.98729 0.0
O1311 O 0.74109 0.77274 0.98468 0.0
H1312 H 0.74626 0.76735 0.04116 0.0
H1313 H 0.72095 0.79417 1.00487 0.0
O1314 O 0.77423 0.79021 0.02924 0.0
H1315 H 0.7508 0.83048 0.97089 0.0
H1316 H 0.69947 0.78369 0.02636 0.0
Cu1317 Cu 0.26325 0.75764 1.00232 0.0
N1318 N 0.24238 0.7571 0.01069 0.0
N1319 N 0.22199 0.76305 0.02704 0.0
C1320 C 0.23832 0.76303 0.02541 0.0
C1321 C 0.21552 0.75681 0.01281 0.0
C1322 C 0.22816 0.75312 1.00274 0.0
O1323 O 0.27925 0.75721 0.02077 0.0
C1324 C 0.25661 0.78959 0.99029 0.0
O1325 O 0.25022 0.79188 1.00465 0.0
H1326 H 0.24714 0.76817 0.03431 0.0
H1327 H 0.22706 0.74853 0.99027 0.0
N1328 N 0.26636 0.7392 0.98926 0.0
N1329 N 0.27661 0.72327 0.96994 0.0
C1330 C 0.27626 0.73849 0.97647 0.0
C1331 C 0.2601 0.72396 0.99081 0.0
C1332 C 0.2665 0.71405 0.97894 0.0
C1333 C 0.27742 0.74526 0.03061 0.0
O1334 O 0.26528 0.73484 0.02758 0.0
H1335 H 0.28339 0.74884 0.97232 0.0
H1336 H 0.25163 0.72028 1.00001 0.0
O1337 O 0.26434 0.77644 0.98773 0.0
H1338 H 0.20259 0.7554 1.00974 0.0
H1339 H 0.26388 0.70112 0.97703 0.0
Cu1340 Cu 0.03347 0.26596 0.28747 0.0
N1341 N 0.04445 0.24605 0.28757 0.0
N1342 N 0.06182 0.22732 0.27873 0.0
C1343 C 0.058 0.24335 0.27913 0.0
C1344 C 0.05024 0.21962 0.28734 0.0
C1345 C 0.03954 0.23122 0.29281 0.0
O1346 O 0.05053 0.28316 0.28774 0.0
C1347 C 1.00566 0.25595 0.2702 0.0
O1348 O 1.00438 0.24788 0.284 0.0
H1349 H 0.06426 0.25284 0.27245 0.0
H1350 H 0.02851 0.22888 0.29936 0.0
N1351 N 0.02046 0.26899 0.30571 0.0
N1352 N 1.00025 0.27914 0.32033 0.0
C1353 C 1.0085 0.28011 0.30631 0.0
C1354 C 0.01985 0.26061 0.31986 0.0
C1355 C 1.00741 0.26687 0.32892 0.0
C1356 C 0.0573 0.28654 0.30176 0.0
O1357 O 0.05199 0.27904 0.31477 0.0
H1358 H 1.00558 0.28833 0.29628 0.0
H1359 H 0.02775 0.25057 0.32326 0.0
O1360 O 0.01818 0.26519 0.26833 0.0
H1361 H 0.04926 0.2065 0.28909 0.0
H1362 H 1.00394 0.26265 0.34088 0.0
Cu1363 Cu 0.77307 0.02469 0.2679 0.0
N1364 N 0.79265 0.03703 0.26738 0.0
N1365 N 0.811 0.05578 0.25963 0.0
C1366 C 0.79549 0.05003 0.25766 0.0
C1367 C 0.81822 0.04603 0.27099 0.0
C1368 C 0.80685 0.03455 0.27583 0.0
O1369 O 0.75475 0.03986 0.26585 0.0
C1370 C 0.78566 0.99742 0.25392 0.0
O1371 O 0.79491 0.9996 0.2673 0.0
H1372 H 0.78643 0.05502 0.24911 0.0
H1373 H 0.80883 0.02498 0.2848 0.0
N1374 N 0.77084 0.01386 0.28793 0.0
N1375 N 0.76217 0.99525 0.30588 0.0
C1376 C 0.76279 0.9995 0.28991 0.0
C1377 C 0.7755 0.01891 0.30316 0.0
C1378 C 0.77015 1.00746 0.31427 0.0
C1379 C 0.75633 0.05308 0.27426 0.0
O1380 O 0.76979 0.05569 0.28323 0.0
H1381 H 0.75704 0.99259 0.27983 0.0
H1382 H 0.78204 0.03025 0.30601 0.0
O1383 O 0.77417 1.00755 0.25102 0.0
H1384 H 0.83078 0.04722 0.27556 0.0
H1385 H 0.77194 1.00812 0.32748 0.0
Cu1386 Cu 0.01164 0.75989 0.26556 0.0
N1387 N 1.00137 0.78006 0.26254 0.0
N1388 N 0.98212 0.79778 0.25444 0.0
C1389 C 0.98579 0.7819 0.25704 0.0
C1390 C 0.99598 0.80629 0.25852 0.0
C1391 C 1.00784 0.79531 0.26354 0.0
O1392 O 0.99471 0.74376 0.27004 0.0
C1393 C 0.02259 0.76226 0.23288 0.0
O1394 O 1.00969 0.77136 0.23003 0.0
H1395 H 0.97755 0.77167 0.25427 0.0
H1396 H 0.02041 0.79818 0.26719 0.0
N1397 N 0.02688 0.76045 0.28322 0.0
N1398 N 0.04892 0.75348 0.29868 0.0
C1399 C 0.04002 0.75074 0.28457 0.0
C1400 C 0.02741 0.76981 0.29686 0.0
C1401 C 0.04095 0.76552 0.30643 0.0
C1402 C 0.98634 0.74719 0.28242 0.0
O1403 O 0.99022 0.7605 0.29096 0.0
H1404 H 0.04296 0.74195 0.27519 0.0
H1405 H 0.01855 0.77902 0.29968 0.0
O1406 O 0.02428 0.75493 0.24656 0.0
H1407 H 0.99751 0.81947 0.25777 0.0
H1408 H 0.04443 0.77079 0.31828 0.0
Cu1409 Cu 0.24505 0.99623 0.26128 0.0
N1410 N 0.24773 1.00831 0.28071 0.0
N1411 N 0.25803 0.02815 0.29719 0.0
C1412 C 0.25601 0.02264 0.28162 0.0
C1413 C 0.25041 0.01695 0.30648 0.0
C1414 C 0.2441 1.00462 0.29624 0.0
O1415 O 0.24361 0.01255 0.24377 0.0
C1416 C 0.27614 0.98202 0.26881 0.0
O1417 O 0.27991 0.99622 0.27574 0.0
H1418 H 0.26096 0.02859 0.27102 0.0
H1419 H 0.23793 0.99349 0.29992 0.0
N1420 N 0.22585 0.98359 0.2608 0.0
N1421 N 0.20827 0.96342 0.25323 0.0
C1422 C 0.22312 0.97038 0.25108 0.0
C1423 C 0.21236 0.98509 0.26956 0.0
C1424 C 0.20147 0.97268 0.26489 0.0
C1425 C 0.23159 0.02218 0.24516 0.0
O1426 O 0.22143 0.01936 0.25695 0.0
H1427 H 0.23207 0.96588 0.2428 0.0
H1428 H 0.21054 0.99454 0.27865 0.0
O1429 O 0.26274 0.98048 0.26042 0.0
H1430 H 0.25012 0.01723 0.31975 0.0
H1431 H 0.18942 0.97081 0.26964 0.0
Cu1432 Cu 0.02818 0.77251 0.76865 0.0
N1433 N 0.0387 0.75242 0.76658 0.0
N1434 N 0.05664 0.73429 0.75756 0.0
C1435 C 0.05136 0.7499 0.75684 0.0
C1436 C 0.04684 0.72671 0.76824 0.0
C1437 C 0.03576 0.73792 0.77375 0.0
O1438 O 0.04553 0.78937 0.77119 0.0
C1439 C 1.00054 0.76429 0.75022 0.0
O1440 O 0.99926 0.75459 0.76293 0.0
H1441 H 0.05672 0.7595 0.74957 0.0
H1442 H 0.02621 0.73565 0.7823 0.0
N1443 N 0.01559 0.77375 0.78741 0.0
N1444 N 0.99572 0.7818 0.8036 0.0
C1445 C 1.00175 0.7824 0.78844 0.0
C1446 C 0.01839 0.76743 0.80248 0.0
C1447 C 1.00618 0.77248 0.81253 0.0
C1448 C 0.05602 0.78626 0.78273 0.0
O1449 O 0.05413 0.77264 0.79102 0.0
H1450 H 0.99639 0.7893 0.77833 0.0
H1451 H 0.02863 0.75981 0.80597 0.0
O1452 O 0.01292 0.77396 0.7496 0.0
H1453 H 0.04746 0.71393 0.77168 0.0
H1454 H 1.00503 0.76947 0.82537 0.0
Cu1455 Cu 0.27938 0.03625 0.76284 0.0
N1456 N 0.29804 0.04989 0.76395 0.0
N1457 N 0.31391 0.07147 0.75807 0.0
C1458 C 0.29883 0.06462 0.75657 0.0
C1459 C 0.32301 0.0607 0.76681 0.0
C1460 C 0.31313 0.04744 0.77058 0.0
O1461 O 0.26133 0.05176 0.76201 0.0
C1462 C 0.29332 0.01148 0.74614 0.0
O1463 O 0.30285 0.01336 0.75936 0.0
H1464 H 0.28865 0.06997 0.74974 0.0
H1465 H 0.3168 0.03671 0.77744 0.0
N1466 N 0.27745 0.02281 0.78124 0.0
N1467 N 0.26794 1.00191 0.79601 0.0
C1468 C 0.26848 1.00884 0.78103 0.0
C1469 C 0.28305 0.02478 0.79687 0.0
C1470 C 0.27723 0.01185 0.80602 0.0
C1471 C 0.2497 0.05147 0.77199 0.0
O1472 O 0.24706 0.03813 0.78048 0.0
H1473 H 0.26219 1.00407 0.77006 0.0
H1474 H 0.29045 0.03507 0.80135 0.0
O1475 O 0.2812 0.02107 0.74424 0.0
H1476 H 0.33585 0.06231 0.77022 0.0
H1477 H 0.27918 1.01024 0.81912 0.0
Cu1478 Cu 0.0232 0.27871 0.78413 0.0
N1479 N 0.01045 0.29751 0.78588 0.0
N1480 N 0.99071 0.31508 0.77884 0.0
C1481 C 0.99657 0.29986 0.77685 0.0
C1482 C 1.00128 0.32265 0.78961 0.0
C1483 C 0.0134 0.31172 0.79405 0.0
O1484 O 1.00783 0.26032 0.78381 0.0
C1485 C 0.0455 0.29404 0.76615 0.0
O1486 O 0.04515 0.30288 0.77965 0.0
H1487 H 0.99132 0.29082 0.76832 0.0
H1488 H 0.02396 0.31422 0.8021 0.0
N1489 N 0.03829 0.27574 0.8017 0.0
N1490 N 0.05985 0.26512 0.81544 0.0
C1491 C 0.05092 0.26539 0.80115 0.0
C1492 C 0.0392 0.28239 0.81686 0.0
C1493 C 0.0525 0.27586 0.82537 0.0
C1494 C 1.00014 0.25957 0.79709 0.0
O1495 O 1.00396 0.27032 0.80873 0.0
H1496 H 0.0535 0.25831 0.79031 0.0
H1497 H 0.0307 0.29114 0.8215 0.0
O1498 O 0.03616 0.28143 0.76479 0.0
H1499 H 1.00047 0.33525 0.79372 0.0
H1500 H 0.05619 0.27859 0.83799 0.0
Cu1501 Cu 0.76491 0.01896 0.76077 0.0
N1502 N 0.76737 0.02909 0.78128 0.0
N1503 N 0.77683 0.04688 0.80044 0.0
C1504 C 0.77781 0.0416 0.78479 0.0
C1505 C 0.76532 0.03716 0.80705 0.0
C1506 C 0.75952 0.02616 0.79519 0.0
O1507 O 0.7644 0.03596 0.74395 0.0
C1508 C 0.78222 0.99175 0.7696 0.0
O1509 O 0.76998 0.99076 0.77952 0.0
H1510 H 0.78553 0.04703 0.77575 0.0
H1511 H 0.75018 0.0168 0.79655 0.0
N1512 N 0.74527 1.00712 0.75874 0.0
N1513 N 0.72773 0.98683 0.75177 0.0
C1514 C 0.74344 0.99205 0.75207 0.0
C1515 C 0.73018 0.01169 0.76268 0.0
C1516 C 0.71928 0.99917 0.75834 0.0
C1517 C 0.75655 0.0489 0.7472 0.0
O1518 O 0.7494 0.0501 0.7613 0.0
H1519 H 0.75341 0.98517 0.74723 0.0
H1520 H 0.7273 0.02333 0.76821 0.0
O1521 O 0.78285 1.0036 0.7595 0.0
H1522 H 0.76134 0.0379 0.81954 0.0
H1523 H 0.70622 0.99908 0.76 0.0
Cu1524 Cu 0.26568 0.76462 0.51015 0.0
N1525 N 0.28332 0.76702 0.52532 0.0
N1526 N 0.2974 0.77702 0.5473 0.0
C1527 C 0.28268 0.77577 0.53935 0.0
C1528 C 0.30776 0.76867 0.53799 0.0
C1529 C 0.299 0.76237 0.52448 0.0
O1530 O 0.24655 0.76572 0.52372 0.0
C1531 C 0.28044 0.78017 0.48497 0.0
O1532 O 0.29005 0.76772 0.48807 0.0
H1533 H 0.27173 0.78166 0.54334 0.0
H1534 H 0.30382 0.75522 0.5146 0.0
N1535 N 0.26566 0.74441 0.49904 0.0
N1536 N 0.26039 0.72616 0.47886 0.0
C1537 C 0.26087 0.74216 0.48318 0.0
C1538 C 0.26838 0.7293 0.50501 0.0
C1539 C 0.26505 0.71798 0.49258 0.0
C1540 C 0.23523 0.75483 0.52358 0.0
O1541 O 0.23392 0.74437 0.51127 0.0
H1542 H 0.25708 0.75205 0.47515 0.0
H1543 H 0.27195 0.72668 0.51763 0.0
O1544 O 0.26785 0.78177 0.49359 0.0
H1545 H 0.32071 0.76728 0.54073 0.0
H1546 H 0.26579 0.70478 0.49359 0.0
Cu1547 Cu 0.77299 0.78126 0.51099 0.0
N1548 N 0.78946 0.78384 0.49587 0.0
N1549 N 0.80347 0.77686 0.47402 0.0
C1550 C 0.78964 0.77464 0.48214 0.0
C1551 C 0.81251 0.78789 0.48294 0.0
C1552 C 0.80371 0.79237 0.49639 0.0
O1553 O 0.75321 0.77673 0.49731 0.0
C1554 C 0.79349 0.76982 0.53492 0.0
O1555 O 0.79894 0.78471 0.53205 0.0
H1556 H 0.78013 0.76579 0.47861 0.0
H1557 H 0.80769 0.80076 0.50611 0.0
N1558 N 0.76875 0.79992 0.52346 0.0
N1559 N 0.75786 0.8138 0.54393 0.0
C1560 C 0.76181 0.79896 0.53812 0.0
C1561 C 0.76938 0.81603 0.51989 0.0
C1562 C 0.7625 0.82465 0.53251 0.0
C1563 C 0.75065 0.78801 0.48674 0.0
O1564 O 0.76076 0.80063 0.48651 0.0
H1565 H 0.75898 0.78747 0.54405 0.0
H1566 H 0.77398 0.82111 0.50871 0.0
O1567 O 0.78075 0.76471 0.52679 0.0
H1568 H 0.82468 0.7921 0.48011 0.0
H1569 H 0.76081 0.83778 0.53314 0.0
Cu1570 Cu 0.77313 0.27101 0.51523 0.0
N1571 N 0.77078 0.25232 0.50179 0.0
N1572 N 0.76006 0.2362 0.48166 0.0
C1573 C 0.75882 0.2504 0.4901 0.0
C1574 C 0.7734 0.22886 0.48841 0.0
C1575 C 0.77999 0.23884 0.50083 0.0
O1576 O 0.77171 0.29 0.5007 0.0
C1577 C 0.75996 0.25606 0.54106 0.0
O1578 O 0.77266 0.24714 0.53765 0.0
H1579 H 0.7497 0.25961 0.48757 0.0
H1580 H 0.79077 0.23651 0.50849 0.0
N1581 N 0.79342 0.273 0.52648 0.0
N1582 N 0.81152 0.28258 0.54558 0.0
C1583 C 0.79558 0.28082 0.54101 0.0
C1584 C 0.80855 0.26963 0.52162 0.0
C1585 C 0.81977 0.27557 0.5334 0.0
C1586 C 0.78034 0.28861 0.48806 0.0
O1587 O 0.78879 0.27523 0.48609 0.0
H1588 H 0.78562 0.28589 0.54768 0.0
H1589 H 0.81126 0.26383 0.51009 0.0
O1590 O 0.75696 0.26856 0.53214 0.0
H1591 H 0.7781 0.21713 0.48471 0.0
H1592 H 0.83295 0.27503 0.5329 0.0
Cu1593 Cu 0.26813 0.26826 0.52446 0.0
N1594 N 0.24846 0.26654 0.53497 0.0
N1595 N 0.22952 0.27273 0.55289 0.0
C1596 C 0.2454 0.27406 0.54922 0.0
C1597 C 0.22229 0.26397 0.54044 0.0
C1598 C 0.23405 0.26013 0.52938 0.0
O1599 O 0.28464 0.27103 0.54205 0.0
C1600 C 0.27432 0.28975 0.49708 0.0
O1601 O 0.28807 0.28193 0.49531 0.0
H1602 H 0.25448 0.28123 0.55624 0.0
H1603 H 0.23213 0.25377 0.51776 0.0
N1604 N 0.27225 0.2488 0.51329 0.0
N1605 N 0.27975 0.23176 0.49345 0.0
C1606 C 0.27364 0.2466 0.49701 0.0
C1607 C 0.27725 0.23473 0.52024 0.0
C1608 C 0.28191 0.2242 0.50805 0.0
C1609 C 0.2997 0.26772 0.541 0.0
O1610 O 0.3056 0.2647 0.52654 0.0
H1611 H 0.27114 0.25602 0.48803 0.0
H1612 H 0.27828 0.23264 0.53334 0.0
O1613 O 0.26551 0.28641 0.5092 0.0
H1614 H 0.20938 0.26095 0.5392 0.0
H1615 H 0.28702 0.21215 0.50987 0.0
Cu1616 Cu 0.78644 0.53241 0.76905 0.0
N1617 N 0.80555 0.54521 0.7674 0.0
N1618 N 0.82258 0.56443 0.75817 0.0
C1619 C 0.8074 0.55778 0.75693 0.0
C1620 C 0.83067 0.55569 0.76982 0.0
C1621 C 0.82007 0.54392 0.77561 0.0
O1622 O 0.76775 0.54717 0.76849 0.0
C1623 C 0.79929 0.50613 0.75384 0.0
O1624 O 0.80975 0.50933 0.76611 0.0
H1625 H 0.79782 0.56187 0.74845 0.0
H1626 H 0.82278 0.53499 0.78506 0.0
N1627 N 0.78555 0.52123 0.78899 0.0
N1628 N 0.7778 0.50168 0.8063 0.0
C1629 C 0.77945 0.50591 0.79047 0.0
C1630 C 0.78787 0.52694 0.80445 0.0
C1631 C 0.78305 0.51488 0.81518 0.0
C1632 C 0.76981 0.56043 0.77678 0.0
O1633 O 0.78394 0.56332 0.78448 0.0
H1634 H 0.77539 0.49836 0.78009 0.0
H1635 H 0.79208 0.53922 0.80766 0.0
O1636 O 0.78691 0.51537 0.75199 0.0
H1637 H 0.84324 0.55782 0.77397 0.0
H1638 H 0.78304 0.51587 0.82844 0.0
Cu1639 Cu 0.27874 0.51404 0.74316 0.0
N1640 N 0.29577 0.49899 0.74259 0.0
N1641 N 0.31199 0.47894 0.75179 0.0
C1642 C 0.29769 0.48667 0.75342 0.0
C1643 C 0.31937 0.48662 0.73939 0.0
C1644 C 0.30925 0.49892 0.73362 0.0
O1645 O 0.25954 0.50063 0.74755 0.0
C1646 C 0.29818 0.53806 0.75654 0.0
O1647 O 0.30531 0.53446 0.74283 0.0
H1648 H 0.28915 0.48402 0.76291 0.0
H1649 H 0.31187 0.50761 0.72406 0.0
N1650 N 0.27555 0.52546 0.72344 0.0
N1651 N 0.26701 0.54537 0.70648 0.0
C1652 C 0.26861 0.5403 0.72221 0.0
C1653 C 0.2786 0.52093 0.70798 0.0
C1654 C 0.27338 0.53322 0.69748 0.0
C1655 C 0.24663 0.50037 0.73832 0.0
O1656 O 0.24437 0.51208 0.72751 0.0
H1657 H 0.26469 0.54716 0.73273 0.0
H1658 H 0.28391 0.5094 0.70456 0.0
O1659 O 0.28508 0.53033 0.75985 0.0
H1660 H 0.33135 0.48377 0.73506 0.0
H1661 H 0.27381 0.53296 0.68422 0.0
Cu1662 Cu 0.28628 0.52248 0.26153 0.0
N1663 N 0.28353 0.51287 0.28207 0.0
N1664 N 0.27512 0.494 0.29983 0.0
C1665 C 0.27827 0.49732 0.28405 0.0
C1666 C 0.2786 0.50808 0.30815 0.0
C1667 C 0.28383 0.51971 0.29714 0.0
O1668 O 0.29241 0.50463 0.24674 0.0
C1669 C 0.25353 0.5337 0.26381 0.0
O1670 O 0.25107 0.5207 0.27286 0.0
H1671 H 0.27587 0.4889 0.2739 0.0
H1672 H 0.28695 0.53241 0.2998 0.0
N1673 N 0.30289 0.53856 0.26196 0.0
N1674 N 0.31634 0.56117 0.25434 0.0
C1675 C 0.30234 0.55228 0.25281 0.0
C1676 C 0.31772 0.53893 0.26975 0.0
C1677 C 0.32611 0.55282 0.26493 0.0
C1678 C 0.30495 0.49692 0.25215 0.0
O1679 O 0.31206 0.50198 0.26601 0.0
H1680 H 0.29205 0.55543 0.24475 0.0
H1681 H 0.32223 0.5297 0.27817 0.0
O1682 O 0.26659 0.5348 0.25581 0.0
H1683 H 0.27716 0.50994 0.32117 0.0
H1684 H 0.33841 0.5565 0.26887 0.0
Cu1685 Cu 0.77284 0.5166 0.25706 0.0
N1686 N 0.79154 0.50365 0.25901 0.0
N1687 N 0.80745 0.48338 0.26819 0.0
C1688 C 0.79226 0.48956 0.26754 0.0
C1689 C 0.81671 0.49393 0.25974 0.0
C1690 C 0.80681 0.50639 0.25394 0.0
O1691 O 0.7542 0.50126 0.25652 0.0
C1692 C 0.78632 0.54278 0.27332 0.0
O1693 O 0.79517 0.54128 0.2603 0.0
H1694 H 0.78194 0.48422 0.27361 0.0
H1695 H 0.81058 0.51682 0.2468 0.0
N1696 N 0.77166 0.52859 0.2375 0.0
N1697 N 0.76369 0.54811 0.21995 0.0
C1698 C 0.76325 0.54255 0.23548 0.0
C1699 C 0.77777 0.52527 0.22275 0.0
C1700 C 0.77272 0.53725 0.21183 0.0
C1701 C 0.75513 0.49066 0.24502 0.0
O1702 O 0.7676 0.4917 0.23539 0.0
H1703 H 0.75657 0.54829 0.24513 0.0
H1704 H 0.78517 0.51478 0.22006 0.0
O1705 O 0.77446 0.53268 0.275 0.0
H1706 H 0.82967 0.49271 0.25792 0.0
H1707 H 0.77548 0.53795 0.19896 0.0
Cu1708 Cu 0.534 0.27764 0.77524 0.0
N1709 N 0.52174 0.27479 0.79388 0.0
N1710 N 0.50092 0.27845 0.81053 0.0
C1711 C 0.5067 0.2809 0.79541 0.0
C1712 C 0.51289 0.27028 0.8188 0.0
C1713 C 0.52574 0.26809 0.8085 0.0
O1714 O 0.51764 0.28224 0.75783 0.0
C1715 C 0.56293 0.29126 0.78832 0.0
O1716 O 0.56459 0.27602 0.79316 0.0
H1717 H 0.50024 0.2872 0.78555 0.0
H1718 H 0.53731 0.26241 0.81158 0.0
N1719 N 0.5452 0.25863 0.76979 0.0
N1720 N 0.56311 0.24273 0.75738 0.0
C1721 C 0.55805 0.25818 0.75997 0.0
C1722 C 0.54208 0.24293 0.77377 0.0
C1723 C 0.55315 0.23308 0.76615 0.0
C1724 C 0.51695 0.27503 0.7439 0.0
O1725 O 0.52959 0.2667 0.73927 0.0
H1726 H 0.5634 0.26904 0.75466 0.0
H1727 H 0.53225 0.23893 0.78136 0.0
O1728 O 0.55007 0.29519 0.78 0.0
H1729 H 0.51267 0.26663 0.83153 0.0
H1730 H 0.55348 0.21983 0.76661 0.0
Cu1731 Cu 0.51371 0.767 0.77086 0.0
N1732 N 0.52578 0.76428 0.79063 0.0
N1733 N 0.54543 0.75542 0.8081 0.0
C1734 C 0.54052 0.75718 0.79221 0.0
C1735 C 0.53329 0.7617 0.81686 0.0
C1736 C 0.5212 0.7672 0.80605 0.0
O1737 O 0.52922 0.76942 0.75337 0.0
C1738 C 0.49769 0.73637 0.77705 0.0
O1739 O 0.51044 0.73334 0.78676 0.0
H1740 H 0.54716 0.75272 0.78189 0.0
H1741 H 0.50967 0.77249 0.80917 0.0
N1742 N 0.501 0.78588 0.7712 0.0
N1743 N 0.48044 0.8026 0.76448 0.0
C1744 C 0.48628 0.78727 0.7634 0.0
C1745 C 0.50453 0.80084 0.7776 0.0
C1746 C 0.49188 0.81123 0.77336 0.0
C1747 C 0.54 0.78065 0.75606 0.0
O1748 O 0.53954 0.78914 0.76978 0.0
H1749 H 0.48023 0.77735 0.75656 0.0
H1750 H 0.51561 0.80405 0.78461 0.0
O1751 O 0.49787 0.74903 0.76796 0.0
H1752 H 0.53308 0.7621 0.83013 0.0
H1753 H 0.49117 0.82411 0.7765 0.0
Cu1754 Cu 0.52058 0.7699 0.27394 0.0
N1755 N 0.50815 0.77286 0.29248 0.0
N1756 N 0.48728 0.78075 0.30742 0.0
C1757 C 0.4927 0.77834 0.29218 0.0
C1758 C 0.49982 0.7766 0.31775 0.0
C1759 C 0.51268 0.77165 0.30848 0.0
O1760 O 0.50524 0.7655 0.25539 0.0
C1761 C 0.53658 0.80061 0.28125 0.0
O1762 O 0.52438 0.80324 0.29088 0.0
H1763 H 0.48581 0.78114 0.28096 0.0
H1764 H 0.52463 0.76792 0.31303 0.0
N1765 N 0.53403 0.75164 0.27591 0.0
N1766 N 0.55346 0.73422 0.26903 0.0
C1767 C 0.54689 0.74909 0.26646 0.0
C1768 C 0.53252 0.73798 0.28497 0.0
C1769 C 0.54445 0.72711 0.28062 0.0
C1770 C 0.49657 0.7526 0.25742 0.0
O1771 O 0.4986 0.74448 0.2712 0.0
H1772 H 0.55086 0.75768 0.25729 0.0
H1773 H 0.52308 0.73584 0.29368 0.0
O1774 O 0.53588 0.78827 0.27157 0.0
H1775 H 0.49975 0.77725 0.33102 0.0
H1776 H 0.54621 0.71487 0.2854 0.0
Cu1777 Cu 0.50848 0.25407 0.26458 0.0
N1778 N 0.494 0.23609 0.26523 0.0
N1779 N 0.47384 0.22034 0.27475 0.0
C1780 C 0.4835 0.23376 0.27733 0.0
C1781 C 0.47859 0.21398 0.26034 0.0
C1782 C 0.49099 0.22375 0.25449 0.0
O1783 O 0.49557 0.27384 0.2681 0.0
C1784 C 0.53394 0.23587 0.27525 0.0
O1785 O 0.52778 0.22815 0.26219 0.0
H1786 H 0.4827 0.24219 0.28754 0.0
H1787 H 0.49724 0.22208 0.24315 0.0
N1788 N 0.51774 0.25725 0.24425 0.0
N1789 N 0.53591 0.2682 0.22754 0.0
C1790 C 0.53303 0.26322 0.2429 0.0
C1791 C 0.51063 0.2584 0.22913 0.0
C1792 C 0.52185 0.26523 0.21877 0.0
C1793 C 0.48181 0.27377 0.26011 0.0
O1794 O 0.47755 0.2609 0.25112 0.0
H1795 H 0.54143 0.26519 0.25334 0.0
H1796 H 0.49793 0.25556 0.2261 0.0
O1797 O 0.52697 0.249 0.27974 0.0
H1798 H 0.47351 0.20308 0.25436 0.0
H1799 H 0.51962 0.26843 0.20601 0.0
H1800 H 0.20193 0.23727 0.11936 0.0
H1801 H 0.23416 0.19726 0.10949 0.0
H1802 H 0.24437 0.21187 0.08584 0.0
H1803 H 0.24434 0.23605 0.06803 0.0
H1804 H 0.21302 0.27661 0.07868 0.0
H1805 H 0.20237 0.26174 0.1019 0.0
C1806 C 0.21131 0.23179 0.11216 0.0
C1807 C 0.2172 0.21611 0.11629 0.0
C1808 C 0.21732 0.24036 0.09865 0.0
C1809 C 0.22917 0.20915 0.10654 0.0
C1810 C 0.23513 0.21757 0.09305 0.0
C1811 C 0.23532 0.24177 0.07548 0.0
C1812 C 0.22955 0.25752 0.07145 0.0
C1813 C 0.22932 0.2332 0.089 0.0
C1814 C 0.2176 0.26447 0.08122 0.0
C1815 C 0.21154 0.25599 0.09463 0.0
H1816 H 0.81357 0.21804 0.11164 0.0
H1817 H 0.84729 0.25845 0.12135 0.0
H1818 H 0.83548 0.27328 0.09802 0.0
H1819 H 0.81572 0.27488 0.07475 0.0
H1820 H 0.78257 0.23422 0.06421 0.0
H1821 H 0.79415 0.21936 0.08779 0.0
C1822 C 0.81845 0.23001 0.10857 0.0
C1823 C 0.83125 0.23712 0.11841 0.0
C1824 C 0.81171 0.23847 0.09495 0.0
C1825 C 0.83725 0.25277 0.11427 0.0
C1826 C 0.83057 0.26124 0.10083 0.0
C1827 C 0.81098 0.26278 0.07761 0.0
C1828 C 0.79825 0.25572 0.06772 0.0
C1829 C 0.81778 0.25425 0.09111 0.0
C1830 C 0.79236 0.23997 0.07159 0.0
C1831 C 0.79899 0.23145 0.08509 0.0
H1832 H 0.79524 0.84329 0.09874 0.0
H1833 H 0.83149 0.8054 0.10057 0.0
H1834 H 0.81891 0.79269 0.07581 0.0
H1835 H 0.79736 0.79244 0.05336 0.0
H1836 H 0.76205 0.83134 0.05193 0.0
H1837 H 0.77472 0.84357 0.07645 0.0
C1838 C 0.80061 0.8324 0.09363 0.0
C1839 C 0.81437 0.82542 0.10156 0.0
C1840 C 0.79346 0.82527 0.07933 0.0
C1841 C 0.82081 0.81101 0.09488 0.0
C1842 C 0.81366 0.80376 0.08064 0.0
C1843 C 0.7925 0.8036 0.05841 0.0
C1844 C 0.77872 0.81087 0.0507 0.0
C1845 C 0.79994 0.81078 0.07272 0.0
C1846 C 0.77261 0.82538 0.05747 0.0
C1847 C 0.77984 0.83245 0.07158 0.0
H1848 H 0.17879 0.80023 0.07661 0.0
H1849 H 0.21667 0.78357 0.11067 0.0
H1850 H 0.23042 0.77039 0.08823 0.0
H1851 H 0.23164 0.76335 0.05892 0.0
H1852 H 0.19313 0.77881 0.02518 0.0
H1853 H 0.17936 0.79216 0.04763 0.0
C1854 C 0.18993 0.79354 0.07923 0.0
C1855 C 0.19667 0.79304 0.0954 0.0
C1856 C 0.19759 0.7856 0.06633 0.0
C1857 C 0.21131 0.78452 0.09837 0.0
C1858 C 0.21914 0.77681 0.08555 0.0
C1859 C 0.22025 0.76967 0.05652 0.0
C1860 C 0.21343 0.77011 0.04042 0.0
C1861 C 0.2124 0.77729 0.06948 0.0
C1862 C 0.19853 0.77813 0.03748 0.0
C1863 C 0.19072 0.78587 0.05029 0.0
H1864 H 0.22261 0.83621 0.93814 0.0
H1865 H 0.24698 0.80429 0.90487 0.0
H1866 H 0.26009 0.7901 0.92811 0.0
H1867 H 0.26329 0.78567 0.95789 0.0
H1868 H 0.23878 0.81762 0.99116 0.0
H1869 H 0.22727 0.83295 0.96796 0.0
C1870 C 0.23078 0.82614 0.936 0.0
C1871 C 0.2337 0.82123 0.9198 0.0
C1872 C 0.23831 0.81806 0.94943 0.0
C1873 C 0.24456 0.80835 0.91721 0.0
C1874 C 0.25203 0.8002 0.9305 0.0
C1875 C 0.25564 0.79614 0.96011 0.0
C1876 C 0.25187 0.80038 0.97631 0.0
C1877 C 0.24886 0.80483 0.94667 0.0
C1878 C 0.2419 0.81401 0.97887 0.0
C1879 C 0.23521 0.82276 0.96558 0.0
H1880 H 0.21647 0.2167 0.94427 0.0
H1881 H 0.26564 0.20564 0.93099 0.0
H1882 H 0.27651 0.2209 0.95511 0.0
H1883 H 0.27188 0.23878 0.97944 0.0
H1884 H 0.22228 0.24932 0.99174 0.0
H1885 H 0.21183 0.23244 0.96892 0.0
C1886 C 0.22957 0.21723 0.94677 0.0
C1887 C 0.24016 0.20991 0.93576 0.0
C1888 C 0.23571 0.22596 0.96061 0.0
C1889 C 0.25714 0.21126 0.93911 0.0
C1890 C 0.26338 0.21993 0.95297 0.0
C1891 C 0.25882 0.2371 0.97724 0.0
C1892 C 0.24788 0.24536 0.98726 0.0
C1893 C 0.25277 0.22752 0.96375 0.0
C1894 C 0.23097 0.24322 0.98417 0.0
C1895 C 0.22495 0.23358 0.97108 0.0
H1896 H 0.81642 0.20742 0.92901 0.0
H1897 H 0.85686 0.24142 0.92417 0.0
H1898 H 0.84921 0.25584 0.94893 0.0
H1899 H 0.83105 0.25893 0.97189 0.0
H1900 H 0.79038 0.22534 0.97675 0.0
H1901 H 0.79786 0.21088 0.95183 0.0
C1902 C 0.82347 0.21808 0.93328 0.0
C1903 C 0.83727 0.22322 0.92477 0.0
C1904 C 0.81892 0.22644 0.94749 0.0
C1905 C 0.84636 0.23698 0.93061 0.0
C1906 C 0.84194 0.24532 0.94473 0.0
C1907 C 0.82391 0.24836 0.9676 0.0
C1908 C 0.81023 0.24318 0.97624 0.0
C1909 C 0.8283 0.24011 0.9533 0.0
C1910 C 0.80089 0.22966 0.97027 0.0
C1911 C 0.80521 0.22134 0.95606 0.0
H1912 H 0.81786 0.81613 0.91404 0.0
H1913 H 0.79527 0.86326 0.90812 0.0
H1914 H 0.77876 0.85812 0.932 0.0
H1915 H 0.77068 0.8402 0.95446 0.0
H1916 H 0.79217 0.79228 0.95925 0.0
H1917 H 0.80923 0.7979 0.93619 0.0
C1918 C 0.8094 0.8253 0.91808 0.0
C1919 C 0.8078 0.84005 0.90936 0.0
C1920 C 0.79974 0.82215 0.93167 0.0
C1921 C 0.79664 0.85176 0.91458 0.0
C1922 C 0.78722 0.84884 0.92825 0.0
C1923 C 0.77896 0.83089 0.95046 0.0
C1924 C 0.78007 0.81587 0.9589 0.0
C1925 C 0.7886 0.83403 0.93685 0.0
C1926 C 0.79111 0.8041 0.95341 0.0
C1927 C 0.80088 0.80724 0.94005 0.0
H1928 H 0.1066 0.1886 0.2317 0.0
H1929 H 0.13962 0.2289 0.24453 0.0
H1930 H 0.11913 0.24073 0.26173 0.0
H1931 H 0.0918 0.23967 0.27344 0.0
H1932 H 0.05971 0.19844 0.26227 0.0
H1933 H 0.0801 0.18667 0.24465 0.0
C1934 C 0.10953 0.19983 0.23842 0.0
C1935 C 0.12475 0.20782 0.23655 0.0
C1936 C 0.09785 0.20637 0.24878 0.0
C1937 C 0.12796 0.22258 0.24526 0.0
C1938 C 0.11628 0.22932 0.2553 0.0
C1939 C 0.08932 0.22811 0.26714 0.0
C1940 C 0.07427 0.21995 0.26914 0.0
C1941 C 0.10118 0.22134 0.25714 0.0
C1942 C 0.07126 0.20487 0.26108 0.0
C1943 C 0.08288 0.1982 0.25091 0.0
H1944 H 0.85267 0.10796 0.22247 0.0
H1945 H 0.80981 0.1369 0.23041 0.0
H1946 H 0.79673 0.11359 0.24325 0.0
H1947 H 0.7975 0.08499 0.25299 0.0
H1948 H 0.84122 0.05704 0.24765 0.0
H1949 H 0.85403 0.08002 0.23348 0.0
C1950 C 0.84057 0.10936 0.22719 0.0
C1951 C 0.83231 0.12434 0.22518 0.0
C1952 C 0.83324 0.09601 0.23517 0.0
C1953 C 0.81646 0.12555 0.23125 0.0
C1954 C 0.80895 0.11221 0.2388 0.0
C1955 C 0.8098 0.08397 0.24862 0.0
C1956 C 0.8184 0.06935 0.25126 0.0
C1957 C 0.81721 0.09738 0.24084 0.0
C1958 C 0.83442 0.06822 0.24581 0.0
C1959 C 0.84171 0.08133 0.23768 0.0
H1960 H 0.91111 0.81389 0.22779 0.0
H1961 H 0.93724 0.85383 0.20555 0.0
H1962 H 0.9628 0.84466 0.21863 0.0
H1963 H 0.97795 0.82482 0.23579 0.0
H1964 H 0.95189 0.78466 0.25765 0.0
H1965 H 0.9262 0.79422 0.24512 0.0
C1966 C 0.92241 0.82052 0.22568 0.0
C1967 C 0.92219 0.83455 0.21567 0.0
C1968 C 0.93713 0.8151 0.23315 0.0
C1969 C 0.93696 0.84312 0.21334 0.0
C1970 C 0.95163 0.83783 0.22075 0.0
C1971 C 0.96663 0.81828 0.23797 0.0
C1972 C 0.96689 0.80401 0.24763 0.0
C1973 C 0.95188 0.82382 0.23066 0.0
C1974 C 0.9521 0.79555 0.25011 0.0
C1975 C 0.93738 0.80105 0.243 0.0
H1976 H 0.17175 0.89973 0.22624 0.0
H1977 H 0.20659 0.90578 0.18824 0.0
H1978 H 0.21774 0.93043 0.20193 0.0
H1979 H 0.21744 0.95031 0.22444 0.0
H1980 H 0.1833 0.94387 0.2631 0.0
H1981 H 0.17177 0.9196 0.24915 0.0
C1982 C 0.18171 0.90652 0.22092 0.0
C1983 C 0.18833 0.90092 0.20625 0.0
C1984 C 0.18813 0.92067 0.2289 0.0
C1985 C 0.20139 0.90972 0.19961 0.0
C1986 C 0.20772 0.92387 0.20739 0.0
C1987 C 0.20762 0.94357 0.23 0.0
C1988 C 0.20135 0.94906 0.2449 0.0
C1989 C 0.20121 0.92943 0.22206 0.0
C1990 C 0.18833 0.94017 0.25159 0.0
C1991 C 0.18176 0.92618 0.24366 0.0
H1992 H 0.11222 0.8399 0.79745 0.0
H1993 H 0.12504 0.80413 0.83447 0.0
H1994 H 0.10241 0.78653 0.82492 0.0
H1995 H 0.07892 0.78125 0.80671 0.0
H1996 H 0.06489 0.81625 0.76944 0.0
H1997 H 0.08808 0.83412 0.77835 0.0
C1998 C 0.11006 0.82821 0.80334 0.0
C1999 C 0.12024 0.82347 0.81684 0.0
C2000 C 0.09682 0.81801 0.79777 0.0
C2001 C 0.11726 0.80828 0.82432 0.0
C2002 C 0.10435 0.79813 0.8188 0.0
C2003 C 0.08083 0.79277 0.80042 0.0
C2004 C 0.07008 0.79737 0.78741 0.0
C2005 C 0.09401 0.80291 0.80566 0.0
C2006 C 0.07293 0.81237 0.7795 0.0
C2007 C 0.0862 0.82259 0.78462 0.0
H2008 H 0.23312 0.12304 0.79559 0.0
H2009 H 0.20245 0.09531 0.82761 0.0
H2010 H 0.20944 0.06995 0.8137 0.0
H2011 H 0.22575 0.05537 0.79386 0.0
H2012 H 0.2569 0.08278 0.76201 0.0
H2013 H 0.24804 0.10845 0.77423 0.0
C2014 C 0.22797 0.11143 0.7995 0.0
C2015 C 0.21733 0.1111 0.81269 0.0
C2016 C 0.23207 0.09681 0.79143 0.0
C2017 C 0.21056 0.09598 0.81743 0.0
C2018 C 0.21461 0.08143 0.80951 0.0
C2019 C 0.23043 0.06695 0.78938 0.0
C2020 C 0.24206 0.06706 0.77707 0.0
C2021 C 0.22551 0.08167 0.79665 0.0
C2022 C 0.24792 0.08226 0.77143 0.0
C2023 C 0.24295 0.09697 0.77851 0.0
H2024 H 0.93798 0.21209 0.79629 0.0
H2025 H 0.9353 0.23299 0.84484 0.0
H2026 H 0.96083 0.24804 0.84133 0.0
H2027 H 0.98294 0.25633 0.8243 0.0
H2028 H 0.98591 0.23718 0.77505 0.0
H2029 H 0.96133 0.2202 0.77901 0.0
C2030 C 0.94314 0.21988 0.80606 0.0
C2031 C 0.93479 0.2216 0.82075 0.0
C2032 C 0.95778 0.22878 0.80383 0.0
C2033 C 0.94147 0.23168 0.83338 0.0
C2034 C 0.95606 0.24024 0.8314 0.0
C2035 C 0.97833 0.24841 0.81438 0.0
C2036 C 0.98621 0.24811 0.79936 0.0
C2037 C 0.96416 0.23906 0.81663 0.0
C2038 C 0.98006 0.23766 0.78674 0.0
C2039 C 0.96598 0.228 0.78899 0.0
H2040 H 0.83566 0.94366 0.79556 0.0
H2041 H 0.79977 0.90843 0.77646 0.0
H2042 H 0.78368 0.93046 0.7644 0.0
H2043 H 0.77794 0.95987 0.76246 0.0
H2044 H 0.81396 0.99526 0.7803 0.0
H2045 H 0.83212 0.97306 0.78926 0.0
C2046 C 0.82456 0.94073 0.7884 0.0
C2047 C 0.81873 0.92437 0.78741 0.0
C2048 C 0.81537 0.95351 0.78127 0.0
C2049 C 0.8043 0.92091 0.77799 0.0
C2050 C 0.7951 0.9335 0.77096 0.0
C2051 C 0.79001 0.96265 0.76782 0.0
C2052 C 0.79475 0.97904 0.77067 0.0
C2053 C 0.80023 0.94986 0.77302 0.0
C2054 C 0.81025 0.98266 0.7778 0.0
C2055 C 0.82052 0.96997 0.78307 0.0
H2056 H 0.23391 0.08753 0.20292 0.0
H2057 H 0.19126 0.09673 0.2309 0.0
H2058 H 0.19331 0.06973 0.24336 0.0
H2059 H 0.20762 0.04425 0.24734 0.0
H2060 H 0.25116 0.03448 0.22094 0.0
H2061 H 0.2483 0.06084 0.20669 0.0
C2062 C 0.22506 0.0835 0.21167 0.0
C2063 C 0.21252 0.09415 0.21612 0.0
C2064 C 0.22648 0.06791 0.21906 0.0
C2065 C 0.20112 0.08884 0.22746 0.0
C2066 C 0.20226 0.07339 0.23455 0.0
C2067 C 0.21651 0.04774 0.23841 0.0
C2068 C 0.22962 0.03736 0.23527 0.0
C2069 C 0.21497 0.06294 0.23061 0.0
C2070 C 0.24093 0.0422 0.2236 0.0
C2071 C 0.23932 0.05732 0.21549 0.0
H2072 H 0.21927 0.94261 0.80571 0.0
H2073 H 0.25342 0.93323 0.8461 0.0
H2074 H 0.26958 0.95735 0.83898 0.0
H2075 H 0.2742 0.98113 0.82115 0.0
H2076 H 0.24002 0.99041 0.78078 0.0
H2077 H 0.22399 0.96625 0.78781 0.0
C2078 C 0.23032 0.94575 0.81287 0.0
C2079 C 0.23502 0.93612 0.82649 0.0
C2080 C 0.23966 0.95964 0.80866 0.0
C2081 C 0.24932 0.94054 0.83572 0.0
C2082 C 0.25865 0.9543 0.8316 0.0
C2083 C 0.2632 0.97793 0.81396 0.0
C2084 C 0.25845 0.9876 0.80039 0.0
C2085 C 0.25392 0.96399 0.81813 0.0
C2086 C 0.2442 0.98311 0.79111 0.0
C2087 C 0.23492 0.96931 0.79519 0.0
H2088 H 0.11763 0.21521 0.82241 0.0
H2089 H 0.13203 0.24798 0.86228 0.0
H2090 H 0.1081 0.26482 0.85626 0.0
H2091 H 0.08325 0.27043 0.83944 0.0
H2092 H 0.06855 0.23706 0.80008 0.0
H2093 H 0.09253 0.22056 0.80594 0.0
C2094 C 0.11559 0.22611 0.8297 0.0
C2095 C 0.12662 0.23032 0.84276 0.0
C2096 C 0.10177 0.23571 0.82622 0.0
C2097 C 0.12365 0.24435 0.85225 0.0
C2098 C 0.11 0.25404 0.84877 0.0
C2099 C 0.08516 0.25949 0.83222 0.0
C2100 C 0.07401 0.25518 0.81923 0.0
C2101 C 0.09895 0.24983 0.83579 0.0
C2102 C 0.07695 0.24097 0.80994 0.0
C2103 C 0.09066 0.2314 0.81335 0.0
H2104 H 0.80483 0.10918 0.83818 0.0
H2105 H 0.84107 0.10523 0.80127 0.0
H2106 H 0.82772 0.08027 0.79057 0.0
H2107 H 0.80546 0.06006 0.79118 0.0
H2108 H 0.76812 0.06485 0.82685 0.0
H2109 H 0.78231 0.08892 0.83862 0.0
C2110 C 0.80973 0.10295 0.82771 0.0
C2111 C 0.82395 0.10913 0.82056 0.0
C2112 C 0.80184 0.08872 0.82141 0.0
C2113 C 0.83029 0.10067 0.80718 0.0
C2114 C 0.8226 0.08644 0.80097 0.0
C2115 C 0.80028 0.06641 0.80142 0.0
C2116 C 0.78562 0.06063 0.80798 0.0
C2117 C 0.80831 0.08043 0.80792 0.0
C2118 C 0.77942 0.06886 0.82158 0.0
C2119 C 0.78748 0.08273 0.82826 0.0
H2120 H 0.94034 0.8218 0.83591 0.0
H2121 H 0.91402 0.80615 0.79141 0.0
H2122 H 0.93814 0.79212 0.78243 0.0
H2123 H 0.96686 0.78414 0.78706 0.0
H2124 H 0.99234 0.79744 0.8325 0.0
H2125 H 0.96827 0.8121 0.84146 0.0
C2126 C 0.93968 0.81512 0.82437 0.0
C2127 C 0.92524 0.81537 0.81432 0.0
C2128 C 0.95349 0.80654 0.81944 0.0
C2129 C 0.92496 0.80671 0.79928 0.0
C2130 C 0.93876 0.79849 0.79415 0.0
C2131 C 0.96709 0.79028 0.79891 0.0
C2132 C 0.98134 0.78985 0.80908 0.0
C2133 C 0.95311 0.79839 0.80408 0.0
C2134 C 0.98146 0.79759 0.82452 0.0
C2135 C 0.96773 0.806 0.8296 0.0
H2136 H 0.79225 0.93887 0.20262 0.0
H2137 H 0.83199 0.92764 0.23693 0.0
H2138 H 0.82579 0.95147 0.25343 0.0
H2139 H 0.80935 0.97519 0.25845 0.0
H2140 H 0.76941 0.98757 0.22493 0.0
H2141 H 0.77549 0.96368 0.20775 0.0
C2142 C 0.79956 0.94172 0.21368 0.0
C2143 C 0.81244 0.93128 0.21863 0.0
C2144 C 0.79592 0.95563 0.22325 0.0
C2145 C 0.82179 0.93518 0.23299 0.0
C2146 C 0.81833 0.94889 0.24241 0.0
C2147 C 0.80189 0.97278 0.24739 0.0
C2148 C 0.78891 0.98321 0.24303 0.0
C2149 C 0.80541 0.95912 0.23772 0.0
C2150 C 0.77948 0.97976 0.22861 0.0
C2151 C 0.78296 0.96609 0.21879 0.0
H2152 H 0.09246 0.77262 0.20515 0.0
H2153 H 0.06617 0.80767 0.17523 0.0
H2154 H 0.04032 0.79798 0.18599 0.0
H2155 H 0.02561 0.78165 0.20603 0.0
H2156 H 0.05204 0.74701 0.23647 0.0
H2157 H 0.07732 0.75424 0.22317 0.0
C2158 C 0.08105 0.77805 0.20094 0.0
C2159 C 0.08122 0.79095 0.18957 0.0
C2160 C 0.06625 0.7725 0.20726 0.0
C2161 C 0.06634 0.79769 0.18396 0.0
C2162 C 0.05156 0.79221 0.19015 0.0
C2163 C 0.03682 0.77543 0.20955 0.0
C2164 C 0.03692 0.76396 0.2224 0.0
C2165 C 0.05141 0.77988 0.20209 0.0
C2166 C 0.05159 0.75597 0.2267 0.0
C2167 C 0.0661 0.76016 0.21917 0.0
H2168 H 0.95614 0.23271 0.21332 0.0
H2169 H 0.92229 0.24064 0.25174 0.0
H2170 H 0.94444 0.25149 0.26978 0.0
H2171 H 0.97364 0.25667 0.2754 0.0
H2172 H 1.00784 0.25009 0.23713 0.0
H2173 H 0.98539 0.24109 0.21807 0.0
C2174 C 0.95368 0.23696 0.2256 0.0
C2175 C 0.93766 0.23578 0.23129 0.0
C2176 C 0.9665 0.24347 0.23585 0.0
C2177 C 0.93452 0.24146 0.24713 0.0
C2178 C 0.94717 0.24763 0.25745 0.0
C2179 C 0.97611 0.25357 0.26277 0.0
C2180 C 0.99229 0.25399 0.25762 0.0
C2181 C 0.96321 0.24844 0.25203 0.0
C2182 C 0.99542 0.25001 0.24127 0.0
C2183 C 0.98261 0.2447 0.23047 0.0
H2184 H 0.21403 0.74095 0.59581 0.0
H2185 H 0.18766 0.70132 0.57082 0.0
H2186 H 0.19595 0.71181 0.5444 0.0
H2187 H 0.21235 0.73094 0.5285 0.0
H2188 H 0.23873 0.77065 0.55333 0.0
H2189 H 0.2283 0.76174 0.57955 0.0
C2190 C 0.20983 0.73476 0.58459 0.0
C2191 C 0.20043 0.72017 0.58542 0.0
C2192 C 0.2146 0.7409 0.56934 0.0
C2193 C 0.19524 0.71231 0.57066 0.0
C2194 C 0.19987 0.71837 0.5555 0.0
C2195 C 0.21562 0.73784 0.53958 0.0
C2196 C 0.22644 0.75139 0.53887 0.0
C2197 C 0.20982 0.73247 0.5547 0.0
C2198 C 0.23045 0.76018 0.55343 0.0
C2199 C 0.22457 0.75501 0.56849 0.0
H2200 H 0.84083 0.7433 0.59088 0.0
H2201 H 0.79899 0.71296 0.60111 0.0
H2202 H 0.78408 0.724 0.57696 0.0
H2203 H 0.78247 0.744 0.55379 0.0
H2204 H 0.82512 0.77376 0.54432 0.0
H2205 H 0.84009 0.7612 0.56708 0.0
C2206 C 0.82845 0.73909 0.5878 0.0
C2207 C 0.82095 0.72752 0.59786 0.0
C2208 C 0.82005 0.74543 0.57397 0.0
C2209 C 0.80501 0.72191 0.59354 0.0
C2210 C 0.79648 0.72826 0.57977 0.0
C2211 C 0.7951 0.7475 0.55659 0.0
C2212 C 0.80255 0.75997 0.54744 0.0
C2213 C 0.80379 0.74024 0.56997 0.0
C2214 C 0.81895 0.76438 0.55126 0.0
C2215 C 0.82759 0.75721 0.56431 0.0
H2216 H 0.84682 0.32695 0.60002 0.0
H2217 H 0.80602 0.30976 0.62746 0.0
H2218 H 0.79574 0.29364 0.60376 0.0
H2219 H 0.7983 0.28444 0.57522 0.0
H2220 H 0.83951 0.30073 0.54791 0.0
H2221 H 0.84982 0.31698 0.57156 0.0
C2222 C 0.83564 0.31973 0.60072 0.0
C2223 C 0.82713 0.31959 0.6154 0.0
C2224 C 0.82996 0.31023 0.58712 0.0
C2225 C 0.81279 0.31001 0.61629 0.0
C2226 C 0.8069 0.3008 0.60275 0.0
C2227 C 0.80951 0.29159 0.57445 0.0
C2228 C 0.81809 0.29142 0.5598 0.0
C2229 C 0.81538 0.30082 0.58811 0.0
C2230 C 0.83276 0.30052 0.55908 0.0
C2231 C 0.83859 0.30991 0.57256 0.0
H2232 H 0.18921 0.3139 0.60185 0.0
H2233 H 0.23227 0.30583 0.63292 0.0
H2234 H 0.24426 0.29 0.6111 0.0
H2235 H 0.24263 0.27848 0.58313 0.0
H2236 H 0.19914 0.28541 0.55261 0.0
H2237 H 0.18693 0.30109 0.57455 0.0
C2238 C 0.2011 0.30849 0.60402 0.0
C2239 C 0.20981 0.31123 0.61907 0.0
C2240 C 0.20781 0.29904 0.59155 0.0
C2241 C 0.22537 0.3043 0.62139 0.0
C2242 C 0.23221 0.29508 0.60896 0.0
C2243 C 0.23048 0.28343 0.58132 0.0
C2244 C 0.22183 0.28084 0.56626 0.0
C2245 C 0.22357 0.29243 0.59398 0.0
C2246 C 0.20599 0.28709 0.56414 0.0
C2247 C 0.19906 0.29617 0.57663 0.0
H2248 H 0.23145 0.33043 0.4463 0.0
H2249 H 0.26368 0.30773 0.41249 0.0
H2250 H 0.27919 0.29555 0.43541 0.0
H2251 H 0.28269 0.29004 0.46501 0.0
H2252 H 0.24972 0.31183 0.49868 0.0
H2253 H 0.2355 0.32567 0.47592 0.0
C2254 C 0.24181 0.32274 0.44393 0.0
C2255 C 0.24631 0.31997 0.42764 0.0
C2256 C 0.25061 0.31564 0.45718 0.0
C2257 C 0.25999 0.31022 0.42487 0.0
C2258 C 0.26885 0.30318 0.43799 0.0
C2259 C 0.27258 0.29805 0.46741 0.0
C2260 C 0.26732 0.29991 0.48356 0.0
C2261 C 0.2642 0.3057 0.45419 0.0
C2262 C 0.25404 0.31017 0.48639 0.0
C2263 C 0.24584 0.31804 0.47336 0.0
H2264 H 0.23809 0.7087 0.40611 0.0
H2265 H 0.21422 0.66879 0.43061 0.0
H2266 H 0.22625 0.67814 0.45704 0.0
H2267 H 0.24269 0.69839 0.47339 0.0
H2268 H 0.26544 0.73903 0.44905 0.0
H2269 H 0.25483 0.72872 0.42241 0.0
C2270 C 0.2357 0.70197 0.41723 0.0
C2271 C 0.2253 0.68807 0.41641 0.0
C2272 C 0.24241 0.7076 0.43243 0.0
C2273 C 0.2221 0.67959 0.43094 0.0
C2274 C 0.229 0.68491 0.44605 0.0
C2275 C 0.24548 0.70484 0.46222 0.0
C2276 C 0.25486 0.71943 0.46317 0.0
C2277 C 0.23906 0.69899 0.44697 0.0
C2278 C 0.25815 0.72784 0.44862 0.0
C2279 C 0.25212 0.72192 0.4334 0.0
H2280 H 0.81003 0.73482 0.41022 0.0
H2281 H 0.85316 0.7187 0.43738 0.0
H2282 H 0.84784 0.73802 0.45938 0.0
H2283 H 0.83046 0.75905 0.47146 0.0
H2284 H 0.78611 0.7732 0.44566 0.0
H2285 H 0.79226 0.7551 0.42261 0.0
C2286 C 0.81816 0.73533 0.42103 0.0
C2287 C 0.83204 0.72531 0.42199 0.0
C2288 C 0.81485 0.74624 0.43386 0.0
C2289 C 0.84254 0.72643 0.43607 0.0
C2290 C 0.83948 0.73744 0.44875 0.0
C2291 C 0.82237 0.7583 0.46063 0.0
C2292 C 0.80804 0.76754 0.45999 0.0
C2293 C 0.8257 0.74743 0.44777 0.0
C2294 C 0.7973 0.76625 0.44619 0.0
C2295 C 0.80077 0.75587 0.43312 0.0
H2296 H 0.81247 0.3405 0.44347 0.0
H2297 H 0.79441 0.30605 0.40638 0.0
H2298 H 0.77918 0.29128 0.42682 0.0
H2299 H 0.77432 0.28576 0.45575 0.0
H2300 H 0.79176 0.31993 0.49309 0.0
H2301 H 0.8034 0.33756 0.47201 0.0
C2302 C 0.80489 0.33001 0.43976 0.0
C2303 C 0.80503 0.32414 0.42344 0.0
C2304 C 0.796 0.32154 0.45164 0.0
C2305 C 0.79503 0.31054 0.41892 0.0
C2306 C 0.78619 0.30212 0.43059 0.0
C2307 C 0.78014 0.29739 0.45916 0.0
C2308 C 0.78213 0.30166 0.47584 0.0
C2309 C 0.78707 0.30716 0.44706 0.0
C2310 C 0.78985 0.3166 0.48026 0.0
C2311 C 0.79672 0.32652 0.46822 0.0
H2312 H 0.11642 0.69738 0.72886 0.0
H2313 H 0.10988 0.73423 0.69145 0.0
H2314 H 0.08696 0.74545 0.70586 0.0
H2315 H 0.0686 0.74476 0.7289 0.0
H2316 H 0.07496 0.70804 0.76643 0.0
H2317 H 0.09777 0.69658 0.75193 0.0
C2318 C 0.10989 0.70777 0.72378 0.0
C2319 C 0.115 0.71497 0.7091 0.0
C2320 C 0.09659 0.71415 0.7321 0.0
C2321 C 0.10646 0.72858 0.70284 0.0
C2322 C 0.09325 0.73496 0.71103 0.0
C2323 C 0.07503 0.73435 0.73404 0.0
C2324 C 0.07001 0.72736 0.74883 0.0
C2325 C 0.08824 0.72789 0.72569 0.0
C2326 C 0.07838 0.71362 0.75503 0.0
C2327 C 0.09152 0.7071 0.74677 0.0
H2328 H 0.85835 0.61634 0.7152 0.0
H2329 H 0.81423 0.64304 0.72397 0.0
H2330 H 0.80376 0.62008 0.73949 0.0
H2331 H 0.80706 0.59238 0.75097 0.0
H2332 H 0.8521 0.56687 0.74474 0.0
H2333 H 0.86247 0.58958 0.72829 0.0
C2334 C 0.84656 0.61736 0.72069 0.0
C2335 C 0.83711 0.63153 0.71808 0.0
C2336 C 0.84077 0.60429 0.73019 0.0
C2337 C 0.8217 0.63225 0.72522 0.0
C2338 C 0.81571 0.61914 0.73431 0.0
C2339 C 0.81912 0.59184 0.74595 0.0
C2340 C 0.82879 0.57799 0.74891 0.0
C2341 C 0.8251 0.60508 0.73683 0.0
C2342 C 0.84451 0.57748 0.74262 0.0
C2343 C 0.85039 0.59042 0.73319 0.0
H2344 H 0.93959 0.35356 0.73534 0.0
H2345 H 0.91138 0.30913 0.74263 0.0
H2346 H 0.93395 0.29782 0.75896 0.0
H2347 H 0.96184 0.30038 0.77129 0.0
H2348 H 0.989 0.34556 0.76618 0.0
H2349 H 0.96648 0.35695 0.7494 0.0
C2350 C 0.93814 0.34152 0.74069 0.0
C2351 C 0.92368 0.33223 0.73742 0.0
C2352 C 0.951 0.33523 0.75062 0.0
C2353 C 0.92241 0.3165 0.74439 0.0
C2354 C 0.93529 0.31003 0.75394 0.0
C2355 C 0.96275 0.31272 0.76651 0.0
C2356 C 0.97703 0.32211 0.76989 0.0
C2357 C 0.94967 0.31924 0.75708 0.0
C2358 C 0.97805 0.33817 0.76383 0.0
C2359 C 0.96523 0.34463 0.75416 0.0
H2360 H 0.21979 0.42786 0.73082 0.0
H2361 H 0.18965 0.45065 0.6931 0.0
H2362 H 0.20056 0.47762 0.70134 0.0
H2363 H 0.22026 0.49442 0.71771 0.0
H2364 H 0.25082 0.47166 0.75519 0.0
H2365 H 0.23794 0.44509 0.7488 0.0
C2366 C 0.21561 0.43875 0.72443 0.0
C2367 C 0.20405 0.43724 0.71126 0.0
C2368 C 0.22196 0.45424 0.72923 0.0
C2369 C 0.19851 0.45148 0.7033 0.0
C2370 C 0.20478 0.46691 0.70798 0.0
C2371 C 0.22393 0.48372 0.72469 0.0
C2372 C 0.23662 0.48507 0.73681 0.0
C2373 C 0.2167 0.4684 0.72075 0.0
C2374 C 0.24112 0.47103 0.74577 0.0
C2375 C 0.23384 0.45577 0.74204 0.0
H2376 H 0.12769 0.31923 0.30698 0.0
H2377 H 0.10991 0.33349 0.35416 0.0
H2378 H 0.08326 0.32157 0.34681 0.0
H2379 H 0.06551 0.30532 0.32805 0.0
H2380 H 0.08212 0.29167 0.2804 0.0
H2381 H 0.10849 0.30558 0.28665 0.0
C2382 C 0.11793 0.31999 0.31556 0.0
C2383 C 0.12109 0.32692 0.33133 0.0
C2384 C 0.10236 0.31326 0.31115 0.0
C2385 C 0.10815 0.32776 0.34219 0.0
C2386 C 0.09279 0.32107 0.33795 0.0
C2387 C 0.07481 0.30561 0.31891 0.0
C2388 C 0.07192 0.29741 0.30383 0.0
C2389 C 0.08986 0.31349 0.32264 0.0
C2390 C 0.08401 0.29799 0.29206 0.0
C2391 C 0.09914 0.30581 0.29571 0.0
H2392 H 0.22829 0.60452 0.27987 0.0
H2393 H 0.19668 0.57625 0.31049 0.0
H2394 H 0.20707 0.55084 0.29918 0.0
H2395 H 0.22676 0.53662 0.28242 0.0
H2396 H 0.2588 0.56473 0.25205 0.0
H2397 H 0.24644 0.5901 0.26121 0.0
C2398 C 0.22365 0.59279 0.28402 0.0
C2399 C 0.21179 0.59233 0.29611 0.0
C2400 C 0.22973 0.57815 0.27748 0.0
C2401 C 0.20572 0.57701 0.30114 0.0
C2402 C 0.21171 0.56244 0.29473 0.0
C2403 C 0.23087 0.54826 0.27755 0.0
C2404 C 0.24381 0.54868 0.26664 0.0
C2405 C 0.22391 0.56286 0.2831 0.0
C2406 C 0.24888 0.56395 0.26045 0.0
C2407 C 0.2419 0.57852 0.2658 0.0
H2408 H 0.92602 0.6993 0.29336 0.0
H2409 H 0.91719 0.73603 0.33021 0.0
H2410 H 0.94161 0.75115 0.32276 0.0
H2411 H 0.96527 0.75413 0.306 0.0
H2412 H 0.97479 0.71806 0.26875 0.0
H2413 H 0.95037 0.7024 0.27624 0.0
C2414 C 0.92951 0.71058 0.29975 0.0
C2415 C 0.91968 0.71662 0.3122 0.0
C2416 C 0.94368 0.7193 0.29539 0.0
C2417 C 0.92433 0.73128 0.32037 0.0
C2418 C 0.93836 0.73989 0.3162 0.0
C2419 C 0.9621 0.74281 0.29949 0.0
C2420 C 0.97188 0.73726 0.28685 0.0
C2421 C 0.94808 0.73404 0.30374 0.0
C2422 C 0.96747 0.7226 0.27855 0.0
C2423 C 0.95351 0.71366 0.28282 0.0
H2424 H 0.81848 0.4159 0.30294 0.0
H2425 H 0.85973 0.44288 0.32473 0.0
H2426 H 0.85282 0.46656 0.30792 0.0
H2427 H 0.83439 0.48019 0.28772 0.0
H2428 H 0.79174 0.45421 0.2682 0.0
H2429 H 0.79964 0.42971 0.28367 0.0
C2430 C 0.82588 0.42699 0.30427 0.0
C2431 C 0.83969 0.4274 0.31517 0.0
C2432 C 0.82153 0.44083 0.29496 0.0
C2433 C 0.84924 0.44192 0.31628 0.0
C2434 C 0.84521 0.45559 0.30674 0.0
C2435 C 0.82697 0.46908 0.28679 0.0
C2436 C 0.81259 0.46888 0.2768 0.0
C2437 C 0.83136 0.45522 0.29609 0.0
C2438 C 0.80284 0.45457 0.27586 0.0
C2439 C 0.80737 0.4406 0.28469 0.0
H2440 H 0.24051 0.60892 0.67155 0.0
H2441 H 0.21131 0.60991 0.71455 0.0
H2442 H 0.22451 0.58516 0.72473 0.0
H2443 H 0.24384 0.56286 0.72124 0.0
H2444 H 0.27296 0.56152 0.67824 0.0
H2445 H 0.25999 0.58649 0.66809 0.0
C2446 C 0.23693 0.60367 0.68309 0.0
C2447 C 0.22494 0.6114 0.69227 0.0
C2448 C 0.24449 0.58927 0.68885 0.0
C2449 C 0.22067 0.60446 0.70732 0.0
C2450 C 0.22813 0.5902 0.71312 0.0
C2451 C 0.24753 0.56809 0.70974 0.0
C2452 C 0.25944 0.56025 0.70057 0.0
C2453 C 0.24005 0.5825 0.704 0.0
C2454 C 0.26374 0.56713 0.6855 0.0
C2455 C 0.25638 0.58149 0.67972 0.0
H2456 H 0.24739 0.42366 0.31483 0.0
H2457 H 0.22289 0.4508 0.352 0.0
H2458 H 0.23647 0.47609 0.34354 0.0
H2459 H 0.25492 0.49066 0.32514 0.0
H2460 H 0.27927 0.46342 0.28796 0.0
H2461 H 0.26604 0.43811 0.29674 0.0
C2462 C 0.24489 0.43513 0.32098 0.0
C2463 C 0.23409 0.43531 0.33401 0.0
C2464 C 0.25274 0.44965 0.31605 0.0
C2465 C 0.23124 0.45026 0.34203 0.0
C2466 C 0.23897 0.46476 0.33716 0.0
C2467 C 0.25749 0.47916 0.31911 0.0
C2468 C 0.26805 0.47898 0.30587 0.0
C2469 C 0.24976 0.46461 0.32419 0.0
C2470 C 0.27105 0.46396 0.29804 0.0
C2471 C 0.26352 0.44946 0.30308 0.0
H2472 H 0.11441 0.72621 0.33062 0.0
H2473 H 0.1054 0.68906 0.29336 0.0
H2474 H 0.08045 0.70286 0.28407 0.0
H2475 H 0.06108 0.72511 0.28676 0.0
H2476 H 0.07056 0.76301 0.32333 0.0
H2477 H 0.09518 0.74905 0.33282 0.0
C2478 C 0.10693 0.72111 0.32052 0.0
C2479 C 0.11177 0.70662 0.3127 0.0
C2480 C 0.09261 0.72917 0.31516 0.0
C2481 C 0.10205 0.70027 0.29949 0.0
C2482 C 0.08773 0.70812 0.29422 0.0
C2483 C 0.06852 0.73053 0.29668 0.0
C2484 C 0.0637 0.74522 0.30424 0.0
C2485 C 0.0829 0.72258 0.30196 0.0
C2486 C 0.07363 0.75169 0.3173 0.0
C2487 C 0.08786 0.74374 0.32273 0.0
H2488 H 0.79815 0.59725 0.32894 0.0
H2489 H 0.83979 0.60684 0.29924 0.0
H2490 H 0.83125 0.5848 0.28059 0.0
H2491 H 0.81239 0.56303 0.27253 0.0
H2492 H 0.77039 0.55227 0.30124 0.0
H2493 H 0.77861 0.57456 0.32046 0.0
C2494 C 0.80529 0.59447 0.31837 0.0
C2495 C 0.81974 0.60355 0.31565 0.0
C2496 C 0.80027 0.58162 0.30752 0.0
C2497 C 0.82885 0.59984 0.30187 0.0
C2498 C 0.82392 0.58729 0.2911 0.0
C2499 C 0.80492 0.56547 0.28296 0.0
C2500 C 0.79075 0.55597 0.28539 0.0
C2501 C 0.80973 0.57811 0.29383 0.0
C2502 C 0.78136 0.55938 0.29906 0.0
C2503 C 0.78607 0.57214 0.31003 0.0
H2504 H 0.94251 0.32806 0.32958 0.0
H2505 H 0.92789 0.29065 0.36346 0.0
H2506 H 0.95209 0.27478 0.35742 0.0
H2507 H 0.97703 0.27121 0.34195 0.0
H2508 H 0.9919 0.3091 0.30861 0.0
H2509 H 0.96788 0.32489 0.3148 0.0
C2510 C 0.94458 0.31639 0.33558 0.0
C2511 C 0.93337 0.31054 0.34692 0.0
C2512 C 0.95854 0.30735 0.33208 0.0
C2513 C 0.93638 0.29551 0.35478 0.0
C2514 C 0.95018 0.28639 0.35128 0.0
C2515 C 0.97517 0.28299 0.33616 0.0
C2516 C 0.98632 0.28879 0.32469 0.0
C2517 C 0.96134 0.29217 0.33991 0.0
C2518 C 0.98347 0.30407 0.31723 0.0
C2519 C 0.96974 0.31321 0.32084 0.0
H2520 H 0.80187 0.44364 0.70675 0.0
H2521 H 0.84477 0.43556 0.73793 0.0
H2522 H 0.8403 0.4611 0.75253 0.0
H2523 H 0.82413 0.48506 0.75713 0.0
H2524 H 0.78051 0.49391 0.7273 0.0
H2525 H 0.78534 0.46879 0.71142 0.0
C2526 C 0.81022 0.44759 0.71669 0.0
C2527 C 0.82356 0.43765 0.72138 0.0
C2528 C 0.80744 0.46235 0.72528 0.0
C2529 C 0.83431 0.44286 0.73427 0.0
C2530 C 0.83179 0.45749 0.74259 0.0
C2531 C 0.81561 0.48163 0.74713 0.0
C2532 C 0.80195 0.49141 0.74345 0.0
C2533 C 0.81835 0.46722 0.73832 0.0
C2534 C 0.79114 0.48663 0.73041 0.0
C2535 C 0.7939 0.47225 0.72136 0.0
H2536 H 0.10169 0.30286 0.7157 0.0
H2537 H 0.10321 0.35081 0.73847 0.0
H2538 H 0.07953 0.34367 0.75428 0.0
H2539 H 0.05973 0.32353 0.763 0.0
H2540 H 0.05777 0.27513 0.74136 0.0
H2541 H 0.08007 0.28281 0.7234 0.0
C2542 C 0.09668 0.31175 0.724 0.0
C2543 C 0.10434 0.32725 0.72614 0.0
C2544 C 0.08304 0.3075 0.73321 0.0
C2545 C 0.09774 0.3387 0.7369 0.0
C2546 C 0.08416 0.33466 0.74587 0.0
C2547 C 0.06408 0.31463 0.7543 0.0
C2548 C 0.05727 0.29873 0.75363 0.0
C2549 C 0.07695 0.31903 0.74436 0.0
C2550 C 0.06285 0.28746 0.74209 0.0
C2551 C 0.07566 0.29183 0.73192 0.0
H2552 H 0.95276 0.74209 0.69184 0.0
H2553 H 0.91747 0.75157 0.72855 0.0
H2554 H 0.93907 0.76255 0.74718 0.0
H2555 H 0.96831 0.76672 0.75411 0.0
H2556 H 1.00383 0.75856 0.71742 0.0
H2557 H 0.98191 0.7501 0.69756 0.0
C2558 C 0.94985 0.74679 0.70384 0.0
C2559 C 0.93358 0.74592 0.70889 0.0
C2560 C 0.96236 0.75331 0.71445 0.0
C2561 C 0.92988 0.75216 0.72439 0.0
C2562 C 0.94223 0.75838 0.73507 0.0
C2563 C 0.97116 0.7635 0.74161 0.0
C2564 C 0.98757 0.76328 0.73715 0.0
C2565 C 0.95854 0.75867 0.73037 0.0
C2566 C 0.99123 0.75903 0.721 0.0
C2567 C 0.97872 0.75401 0.70974 0.0
H2568 H 0.71019 0.23978 0.59703 0.0
H2569 H 0.74622 0.20254 0.60671 0.0
H2570 H 0.76244 0.21282 0.58453 0.0
H2571 H 0.76631 0.23164 0.56224 0.0
H2572 H 0.73106 0.26928 0.55147 0.0
H2573 H 0.71468 0.25969 0.57434 0.0
C2574 C 0.72164 0.23402 0.5943 0.0
C2575 C 0.72685 0.22023 0.60338 0.0
C2576 C 0.73102 0.24003 0.58137 0.0
C2577 C 0.74172 0.2129 0.59971 0.0
C2578 C 0.75107 0.21883 0.58708 0.0
C2579 C 0.75505 0.23785 0.5648 0.0
C2580 C 0.74989 0.25113 0.55505 0.0
C2581 C 0.74578 0.23225 0.57777 0.0
C2582 C 0.7353 0.25901 0.55875 0.0
C2583 C 0.72594 0.2535 0.57181 0.0
H2584 H 0.3505 0.24815 0.59785 0.0
H2585 H 0.30585 0.23418 0.62075 0.0
H2586 H 0.28976 0.24504 0.59739 0.0
H2587 H 0.28844 0.25734 0.57002 0.0
H2588 H 0.33298 0.26909 0.54573 0.0
H2589 H 0.34912 0.26042 0.57005 0.0
C2590 C 0.33724 0.24761 0.59767 0.0
C2591 C 0.32928 0.24046 0.61091 0.0
C2592 C 0.32811 0.25349 0.58399 0.0
C2593 C 0.31215 0.23962 0.61061 0.0
C2594 C 0.30298 0.24584 0.5973 0.0
C2595 C 0.30168 0.25825 0.57013 0.0
C2596 C 0.30952 0.26403 0.55616 0.0
C2597 C 0.31083 0.25268 0.58387 0.0
C2598 C 0.32668 0.26477 0.55637 0.0
C2599 C 0.33589 0.25976 0.57024 0.0
H2600 H 0.30312 0.8132 0.61562 0.0
H2601 H 0.34598 0.83378 0.59395 0.0
H2602 H 0.34051 0.81729 0.56909 0.0
H2603 H 0.32342 0.79693 0.55345 0.0
H2604 H 0.27963 0.77778 0.57439 0.0
H2605 H 0.28552 0.79366 0.5996 0.0
C2606 C 0.31124 0.81404 0.60544 0.0
C2607 C 0.32494 0.82465 0.60661 0.0
C2608 C 0.30785 0.80472 0.59109 0.0
C2609 C 0.33529 0.82577 0.59327 0.0
C2610 C 0.33221 0.81629 0.5791 0.0
C2611 C 0.31529 0.79618 0.56362 0.0
C2612 C 0.3012 0.78612 0.56219 0.0
C2613 C 0.31855 0.80569 0.57787 0.0
C2614 C 0.29053 0.78547 0.57527 0.0
C2615 C 0.2939 0.79452 0.58966 0.0
H2616 H 0.72509 0.81559 0.61213 0.0
H2617 H 0.69272 0.84834 0.5858 0.0
H2618 H 0.70886 0.8456 0.56127 0.0
H2619 H 0.7323 0.83375 0.54726 0.0
H2620 H 0.76378 0.80013 0.57337 0.0
H2621 H 0.74811 0.80351 0.59813 0.0
C2622 C 0.72161 0.82216 0.60102 0.0
C2623 C 0.70776 0.83217 0.60078 0.0
C2624 C 0.73089 0.82047 0.58699 0.0
C2625 C 0.70325 0.84043 0.58624 0.0
C2626 C 0.71254 0.83897 0.57226 0.0
C2627 C 0.73578 0.82738 0.55847 0.0
C2628 C 0.74922 0.81684 0.55864 0.0
C2629 C 0.72642 0.82906 0.5725 0.0
C2630 C 0.75347 0.80831 0.57307 0.0
C2631 C 0.74451 0.81022 0.58717 0.0
H2632 H 0.69938 0.81336 0.43587 0.0
H2633 H 0.73433 0.79381 0.40279 0.0
H2634 H 0.74894 0.78087 0.42574 0.0
H2635 H 0.754 0.77841 0.45559 0.0
H2636 H 0.71932 0.79786 0.48867 0.0
H2637 H 0.70197 0.80686 0.46533 0.0
C2638 C 0.70992 0.80592 0.43354 0.0
C2639 C 0.71592 0.805 0.41754 0.0
C2640 C 0.71825 0.79832 0.44685 0.0
C2641 C 0.72969 0.79529 0.41497 0.0
C2642 C 0.738 0.78771 0.42809 0.0
C2643 C 0.74224 0.78392 0.45761 0.0
C2644 C 0.7377 0.78715 0.47375 0.0
C2645 C 0.7327 0.78957 0.44414 0.0
C2646 C 0.72278 0.79483 0.47632 0.0
C2647 C 0.71304 0.80024 0.46297 0.0
H2648 H 0.70783 0.22178 0.42456 0.0
H2649 H 0.74604 0.19003 0.40877 0.0
H2650 H 0.7631 0.198 0.43274 0.0
H2651 H 0.76752 0.21445 0.45789 0.0
H2652 H 0.72881 0.2452 0.47433 0.0
H2653 H 0.71169 0.23706 0.45052 0.0
C2654 C 0.7198 0.21642 0.42644 0.0
C2655 C 0.72562 0.20541 0.4147 0.0
C2656 C 0.72955 0.22092 0.44039 0.0
C2657 C 0.74129 0.19879 0.41735 0.0
C2658 C 0.75106 0.20325 0.43115 0.0
C2659 C 0.75529 0.21924 0.45643 0.0
C2660 C 0.74964 0.23058 0.46794 0.0
C2661 C 0.74537 0.21439 0.4427 0.0
C2662 C 0.73372 0.23672 0.4656 0.0
C2663 C 0.72382 0.23199 0.45199 0.0
H2664 H 0.29652 0.21704 0.42032 0.0
H2665 H 0.33355 0.18777 0.44473 0.0
H2666 H 0.32387 0.19617 0.47139 0.0
H2667 H 0.30471 0.2115 0.48779 0.0
H2668 H 0.26712 0.24007 0.46351 0.0
H2669 H 0.27707 0.23208 0.43678 0.0
C2670 C 0.30242 0.2124 0.43146 0.0
C2671 C 0.31578 0.20179 0.43046 0.0
C2672 C 0.29662 0.21706 0.44679 0.0
C2673 C 0.32343 0.19615 0.44508 0.0
C2674 C 0.3178 0.20082 0.46035 0.0
C2675 C 0.29853 0.2158 0.47667 0.0
C2676 C 0.28512 0.22632 0.47769 0.0
C2677 C 0.30434 0.21118 0.46135 0.0
C2678 C 0.27752 0.23206 0.4631 0.0
C2679 C 0.28319 0.22747 0.4478 0.0
H2680 H 0.29003 0.83222 0.42803 0.0
H2681 H 0.33477 0.80518 0.42472 0.0
H2682 H 0.32682 0.78758 0.44709 0.0
H2683 H 0.30766 0.77983 0.46756 0.0
H2684 H 0.26266 0.80609 0.47204 0.0
H2685 H 0.27022 0.82406 0.44929 0.0
C2686 C 0.29796 0.82243 0.43222 0.0
C2687 C 0.31308 0.82015 0.42482 0.0
C2688 C 0.29332 0.81226 0.4453 0.0
C2689 C 0.32324 0.80742 0.43037 0.0
C2690 C 0.31867 0.79728 0.44313 0.0
C2691 C 0.2994 0.78946 0.46363 0.0
C2692 C 0.28458 0.79156 0.47152 0.0
C2693 C 0.30382 0.79963 0.45071 0.0
C2694 C 0.27416 0.8042 0.46621 0.0
C2695 C 0.27848 0.81444 0.45319 0.0
H2696 H 0.61607 0.2308 0.7049 0.0
H2697 H 0.62473 0.18821 0.73506 0.0
H2698 H 0.6029 0.19625 0.75285 0.0
H2699 H 0.58162 0.21568 0.76025 0.0
H2700 H 0.57325 0.2584 0.73028 0.0
H2701 H 0.59487 0.25021 0.71233 0.0
C2702 C 0.61328 0.22333 0.71544 0.0
C2703 C 0.62203 0.20887 0.71853 0.0
C2704 C 0.6008 0.22812 0.72577 0.0
C2705 C 0.61805 0.19926 0.73216 0.0
C2706 C 0.60562 0.20391 0.74244 0.0
C2707 C 0.58445 0.22312 0.74973 0.0
C2708 C 0.57584 0.23768 0.74673 0.0
C2709 C 0.59691 0.21831 0.73938 0.0
C2710 C 0.57982 0.24729 0.7331 0.0
C2711 C 0.59214 0.24256 0.72273 0.0
H2712 H 0.3261 0.14204 0.73022 0.0
H2713 H 0.36882 0.1182 0.71232 0.0
H2714 H 0.361 0.09296 0.72587 0.0
H2715 H 0.34169 0.07716 0.74236 0.0
H2716 H 0.29769 0.09996 0.75781 0.0
H2717 H 0.30614 0.12591 0.74541 0.0
C2718 C 0.33363 0.13132 0.72902 0.0
C2719 C 0.3482 0.13232 0.72031 0.0
C2720 C 0.32879 0.11654 0.73643 0.0
C2721 C 0.3578 0.11816 0.71925 0.0
C2722 C 0.35326 0.10357 0.7269 0.0
C2723 C 0.33406 0.08788 0.74308 0.0
C2724 C 0.31918 0.08676 0.75108 0.0
C2725 C 0.3388 0.10261 0.73553 0.0
C2726 C 0.3092 0.1006 0.75169 0.0
C2727 C 0.31404 0.11541 0.74462 0.0
H2728 H 0.41097 0.81749 0.7333 0.0
H2729 H 0.43649 0.86152 0.71875 0.0
H2730 H 0.46119 0.85249 0.73337 0.0
H2731 H 0.47602 0.83168 0.74965 0.0
H2732 H 0.45134 0.7867 0.7621 0.0
H2733 H 0.42601 0.79631 0.74865 0.0
C2734 C 0.42195 0.82507 0.73309 0.0
C2735 C 0.42164 0.84029 0.72493 0.0
C2736 C 0.43636 0.81957 0.74113 0.0
C2737 C 0.43607 0.84995 0.72517 0.0
C2738 C 0.45033 0.84472 0.73343 0.0
C2739 C 0.46503 0.82409 0.74952 0.0
C2740 C 0.46548 0.80856 0.75692 0.0
C2741 C 0.45063 0.82956 0.74143 0.0
C2742 C 0.45127 0.79867 0.75642 0.0
C2743 C 0.4368 0.80418 0.74876 0.0
H2744 H 0.71253 0.9156 0.72578 0.0
H2745 H 0.66864 0.93906 0.70735 0.0
H2746 H 0.67762 0.9648 0.72048 0.0
H2747 H 0.69863 0.98105 0.73612 0.0
H2748 H 0.74301 0.95779 0.75323 0.0
H2749 H 0.73331 0.93167 0.74142 0.0
C2750 C 0.70497 0.92636 0.72448 0.0
C2751 C 0.68994 0.92534 0.71552 0.0
C2752 C 0.71036 0.94121 0.73176 0.0
C2753 C 0.68017 0.93938 0.71433 0.0
C2754 C 0.68535 0.95416 0.72174 0.0
C2755 C 0.70605 0.9702 0.73739 0.0
C2756 C 0.72152 0.97134 0.74547 0.0
C2757 C 0.70048 0.95526 0.73038 0.0
C2758 C 0.73115 0.95725 0.74688 0.0
C2759 C 0.72559 0.94231 0.74019 0.0
H2760 H 0.61025 0.82201 0.29474 0.0
H2761 H 0.58848 0.8483 0.33428 0.0
H2762 H 0.56126 0.84004 0.32382 0.0
H2763 H 0.54376 0.82368 0.30477 0.0
H2764 H 0.56535 0.79677 0.26552 0.0
H2765 H 0.59241 0.80735 0.27424 0.0
C2766 C 0.59954 0.82615 0.30091 0.0
C2767 C 0.60147 0.8356 0.31542 0.0
C2768 C 0.58386 0.82128 0.29485 0.0
C2769 C 0.58741 0.84074 0.32331 0.0
C2770 C 0.57182 0.83611 0.31727 0.0
C2771 C 0.55432 0.82032 0.29792 0.0
C2772 C 0.55246 0.80934 0.28455 0.0
C2773 C 0.5699 0.82612 0.30324 0.0
C2774 C 0.56636 0.80517 0.27586 0.0
C2775 C 0.58188 0.81115 0.28091 0.0
H2776 H 0.70112 0.09838 0.29877 0.0
H2777 H 0.73519 0.13545 0.28285 0.0
H2778 H 0.75211 0.11438 0.27132 0.0
H2779 H 0.75907 0.08535 0.26874 0.0
H2780 H 0.72475 0.04804 0.28296 0.0
H2781 H 0.70584 0.06925 0.29169 0.0
C2782 C 0.71201 0.10192 0.29244 0.0
C2783 C 0.71708 0.11856 0.29225 0.0
C2784 C 0.72167 0.08967 0.2855 0.0
C2785 C 0.73125 0.12277 0.28384 0.0
C2786 C 0.74092 0.11072 0.27708 0.0
C2787 C 0.74721 0.08191 0.2733 0.0
C2788 C 0.74322 0.06524 0.2752 0.0
C2789 C 0.73654 0.09413 0.27832 0.0
C2790 C 0.72793 0.06084 0.28119 0.0
C2791 C 0.71724 0.07297 0.28636 0.0
H2792 H 0.4208 0.20497 0.32671 0.0
H2793 H 0.40172 0.17397 0.28725 0.0
H2794 H 0.42432 0.18232 0.27019 0.0
H2795 H 0.44913 0.1989 0.26634 0.0
H2796 H 0.46894 0.22873 0.30657 0.0
H2797 H 0.44637 0.22053 0.32328 0.0
C2798 C 0.42159 0.2001 0.31435 0.0
C2799 C 0.4096 0.18894 0.30821 0.0
C2800 C 0.43472 0.20481 0.30469 0.0
C2801 C 0.41087 0.18253 0.29227 0.0
C2802 C 0.42376 0.18734 0.2825 0.0
C2803 C 0.4487 0.20351 0.27879 0.0
C2804 C 0.4608 0.21466 0.28494 0.0
C2805 C 0.43575 0.1985 0.28858 0.0
C2806 C 0.45976 0.22047 0.30119 0.0
C2807 C 0.44684 0.21569 0.31089 0.0
H2808 H 0.30125 0.91249 0.29132 0.0
H2809 H 0.33268 0.94306 0.32274 0.0
H2810 H 0.32201 0.96755 0.30935 0.0
H2811 H 0.30248 0.98043 0.29011 0.0
H2812 H 0.27035 0.95012 0.25912 0.0
H2813 H 0.28268 0.92547 0.2708 0.0
C2814 C 0.30574 0.92452 0.29524 0.0
C2815 C 0.31772 0.92589 0.30808 0.0
C2816 C 0.29946 0.93863 0.28753 0.0
C2817 C 0.32359 0.94158 0.31281 0.0
C2818 C 0.31744 0.95563 0.3052 0.0
C2819 C 0.29831 0.96845 0.2857 0.0
C2820 C 0.28541 0.9672 0.27379 0.0
C2821 C 0.30523 0.95432 0.29269 0.0
C2822 C 0.28023 0.95151 0.26827 0.0
C2823 C 0.28722 0.93738 0.27503 0.0
H2824 H 0.73153 0.09927 0.69447 0.0
H2825 H 0.74646 0.133 0.7335 0.0
H2826 H 0.75762 0.11047 0.74955 0.0
H2827 H 0.76061 0.08093 0.75381 0.0
H2828 H 0.74762 0.0471 0.71454 0.0
H2829 H 0.7387 0.06999 0.69704 0.0
C2830 C 0.73755 0.1018 0.7063 0.0
C2831 C 0.73762 0.11785 0.71291 0.0
C2832 C 0.74431 0.08876 0.71544 0.0
C2833 C 0.74558 0.12075 0.7283 0.0
C2834 C 0.75213 0.10788 0.73748 0.0
C2835 C 0.75615 0.07865 0.74127 0.0
C2836 C 0.75465 0.06245 0.73543 0.0
C2837 C 0.75112 0.0918 0.73138 0.0
C2838 C 0.74897 0.05953 0.7192 0.0
C2839 C 0.74374 0.0726 0.70928 0.0
H2840 H 0.72271 0.94115 0.34312 0.0
H2841 H 0.73379 0.91323 0.29985 0.0
H2842 H 0.74833 0.93682 0.28897 0.0
H2843 H 0.75798 0.96546 0.29161 0.0
H2844 H 0.74781 0.99309 0.33521 0.0
H2845 H 0.73328 0.96945 0.34623 0.0
C2846 C 0.72847 0.9401 0.33141 0.0
C2847 C 0.72695 0.92535 0.32231 0.0
C2848 C 0.73708 0.95369 0.32527 0.0
C2849 C 0.73438 0.92445 0.30703 0.0
C2850 C 0.74284 0.93793 0.30081 0.0
C2851 C 0.75252 0.96633 0.30348 0.0
C2852 C 0.75396 0.98108 0.31253 0.0
C2853 C 0.7442 0.95264 0.30978 0.0
C2854 C 0.74704 0.98188 0.32804 0.0
C2855 C 0.73863 0.96837 0.33432 0.0
H2856 H 0.59804 0.19862 0.29711 0.0
H2857 H 0.60303 0.2385 0.33188 0.0
H2858 H 0.57704 0.24986 0.32138 0.0
H2859 H 0.55309 0.24873 0.30134 0.0
H2860 H 0.54897 0.20784 0.26735 0.0
H2861 H 0.57424 0.19679 0.27845 0.0
C2862 C 0.59349 0.20985 0.30235 0.0
C2863 C 0.60254 0.2178 0.3151 0.0
C2864 C 0.5786 0.21619 0.29635 0.0
C2865 C 0.59628 0.23214 0.32203 0.0
C2866 C 0.58144 0.23866 0.31598 0.0
C2867 C 0.5577 0.23737 0.29647 0.0
C2868 C 0.54906 0.22928 0.28339 0.0
C2869 C 0.57249 0.23084 0.30302 0.0
C2870 C 0.55526 0.21451 0.2773 0.0
C2871 C 0.5698 0.20809 0.28364 0.0
H2872 H 0.30643 0.08752 0.3097 0.0
H2873 H 0.27575 0.09481 0.35092 0.0
H2874 H 0.25935 0.07059 0.3428 0.0
H2875 H 0.25361 0.04736 0.3237 0.0
H2876 H 0.28482 0.04024 0.28286 0.0
H2877 H 0.30115 0.06424 0.29118 0.0
C2878 C 0.29627 0.08371 0.31703 0.0
C2879 C 0.29235 0.09295 0.3309 0.0
C2880 C 0.28694 0.0698 0.31232 0.0
C2881 C 0.27894 0.08801 0.34007 0.0
C2882 C 0.2696 0.07411 0.33549 0.0
C2883 C 0.26405 0.05103 0.31673 0.0
C2884 C 0.26785 0.04211 0.30259 0.0
C2885 C 0.27347 0.06491 0.3216 0.0
C2886 C 0.28138 0.04706 0.29359 0.0
C2887 C 0.29082 0.06074 0.2984 0.0
H2888 H 0.41554 0.80532 0.31459 0.0
H2889 H 0.43902 0.83205 0.35509 0.0
H2890 H 0.46498 0.8193 0.34947 0.0
H2891 H 0.48133 0.80106 0.33262 0.0
H2892 H 0.45826 0.77553 0.29129 0.0
H2893 H 0.43196 0.78752 0.29747 0.0
C2894 C 0.42635 0.80853 0.32209 0.0
C2895 C 0.42519 0.81962 0.33531 0.0
C2896 C 0.44138 0.80138 0.31861 0.0
C2897 C 0.43938 0.82336 0.34503 0.0
C2898 C 0.4543 0.81615 0.34176 0.0
C2899 C 0.4705 0.79801 0.32509 0.0
C2900 C 0.47172 0.78739 0.31155 0.0
C2901 C 0.45546 0.80515 0.32859 0.0
C2902 C 0.45764 0.78376 0.30171 0.0
C2903 C 0.4426 0.79058 0.30526 0.0
H2904 H 0.29561 0.94899 0.69921 0.0
H2905 H 0.34114 0.94357 0.72696 0.0
H2906 H 0.33696 0.9695 0.74102 0.0
H2907 H 0.32001 0.99271 0.74665 0.0
H2908 H 0.27369 0.99866 0.7205 0.0
H2909 H 0.2786 0.9737 0.70441 0.0
C2910 C 0.30462 0.95363 0.70824 0.0
C2911 C 0.3186 0.94431 0.71219 0.0
C2912 C 0.30199 0.96858 0.71656 0.0
C2913 C 0.3302 0.95041 0.7239 0.0
C2914 C 0.32784 0.96525 0.73191 0.0
C2915 C 0.31094 0.98867 0.73739 0.0
C2916 C 0.29643 0.99752 0.7349 0.0
C2917 C 0.3137 0.97428 0.72854 0.0
C2918 C 0.28497 0.9921 0.72269 0.0
C2919 C 0.28775 0.97778 0.71355 0.0
H2920 H 0.59163 0.79075 0.7005 0.0
H2921 H 0.61094 0.82529 0.73691 0.0
H2922 H 0.58922 0.818 0.75511 0.0
H2923 H 0.56492 0.80222 0.76085 0.0
H2924 H 0.54464 0.76746 0.72525 0.0
H2925 H 0.56653 0.77445 0.70657 0.0
C2926 C 0.59102 0.79666 0.71241 0.0
C2927 C 0.60307 0.80839 0.71741 0.0
C2928 C 0.57835 0.79241 0.72295 0.0
C2929 C 0.60209 0.81596 0.73288 0.0
C2930 C 0.5896 0.81189 0.74328 0.0
C2931 C 0.56519 0.79611 0.74901 0.0
C2932 C 0.5531 0.78435 0.74447 0.0
C2933 C 0.57771 0.80015 0.73847 0.0
C2934 C 0.55379 0.77657 0.72907 0.0
C2935 C 0.5663 0.78058 0.71838 0.0
H2936 H 0.44321 0.26213 0.72182 0.0
H2937 H 0.4661 0.22847 0.68906 0.0
H2938 H 0.49305 0.23877 0.69832 0.0
H2939 H 0.51012 0.2556 0.71726 0.0
H2940 H 0.4875 0.28862 0.75088 0.0
H2941 H 0.4605 0.28066 0.73942 0.0
C2942 C 0.45409 0.25724 0.71653 0.0
C2943 C 0.45263 0.2444 0.7049 0.0
C2944 C 0.46962 0.26313 0.72204 0.0
C2945 C 0.46688 0.23814 0.69824 0.0
C2946 C 0.4823 0.24408 0.70347 0.0
C2947 C 0.49933 0.2613 0.72192 0.0
C2948 C 0.5009 0.27264 0.735 0.0
C2949 C 0.48383 0.25632 0.7156 0.0
C2950 C 0.48671 0.27985 0.74084 0.0
C2951 C 0.47123 0.27522 0.73435 0.0
H2952 H 0.68458 0.74501 0.09973 0.0
H2953 H 0.72437 0.7109 0.09855 0.0
H2954 H 0.73464 0.72439 0.07432 0.0
H2955 H 0.73262 0.74595 0.05366 0.0
H2956 H 0.69338 0.78062 0.05486 0.0
H2957 H 0.68256 0.76677 0.07879 0.0
C2958 C 0.69555 0.74059 0.09422 0.0
C2959 C 0.70364 0.7269 0.10097 0.0
C2960 C 0.70148 0.74848 0.08026 0.0
C2961 C 0.71773 0.72123 0.09351 0.0
C2962 C 0.72369 0.72901 0.07969 0.0
C2963 C 0.72179 0.75062 0.05922 0.0
C2964 C 0.71392 0.76441 0.05249 0.0
C2965 C 0.71571 0.74266 0.073 0.0
C2966 C 0.69964 0.76998 0.05968 0.0
C2967 C 0.6935 0.76211 0.07343 0.0
H2968 H 0.33074 0.74071 0.08913 0.0
H2969 H 0.30076 0.69842 0.09997 0.0
H2970 H 0.28255 0.70435 0.07652 0.0
H2971 H 0.27524 0.72102 0.05287 0.0
H2972 H 0.3046 0.76345 0.04123 0.0
H2973 H 0.32286 0.75807 0.06515 0.0
C2974 C 0.32016 0.73288 0.0864 0.0
C2975 C 0.31725 0.71902 0.09624 0.0
C2976 C 0.30963 0.73637 0.07277 0.0
C2977 C 0.3035 0.70897 0.09246 0.0
C2978 C 0.29301 0.71239 0.0791 0.0
C2979 C 0.2856 0.72917 0.05549 0.0
C2980 C 0.28854 0.74262 0.04519 0.0
C2981 C 0.29601 0.72597 0.06913 0.0
C2982 C 0.30205 0.753 0.04892 0.0
C2983 C 0.31249 0.74992 0.0626 0.0
H2984 H 0.3228 0.29916 0.11386 0.0
H2985 H 0.35086 0.33672 0.08997 0.0
H2986 H 0.34171 0.32593 0.06318 0.0
H2987 H 0.32433 0.30708 0.04648 0.0
H2988 H 0.29627 0.26939 0.07013 0.0
H2989 H 0.30731 0.27863 0.09695 0.0
C2990 C 0.32716 0.30483 0.10282 0.0
C2991 C 0.33734 0.31894 0.10405 0.0
C2992 C 0.32191 0.29849 0.08734 0.0
C2993 C 0.34271 0.32614 0.0895 0.0
C2994 C 0.33758 0.31988 0.07412 0.0
C2995 C 0.3208 0.30069 0.05746 0.0
C2996 C 0.30937 0.28761 0.05621 0.0
C2997 C 0.32695 0.30626 0.07289 0.0
C2998 C 0.30503 0.27949 0.07065 0.0
C2999 C 0.31126 0.28485 0.08604 0.0
H3000 H 0.72283 0.3334 0.11334 0.0
H3001 H 0.67849 0.30404 0.11176 0.0
H3002 H 0.6883 0.28829 0.0887 0.0
H3003 H 0.70928 0.28288 0.06898 0.0
H3004 H 0.75348 0.3124 0.06984 0.0
H3005 H 0.7441 0.32776 0.09343 0.0
C3006 C 0.71539 0.32348 0.108 0.0
C3007 C 0.69989 0.31999 0.11419 0.0
C3008 C 0.7211 0.31444 0.09467 0.0
C3009 C 0.69034 0.30716 0.10707 0.0
C3010 C 0.69597 0.29808 0.09393 0.0
C3011 C 0.71682 0.29277 0.07417 0.0
C3012 C 0.73204 0.29648 0.06751 0.0
C3013 C 0.71127 0.30168 0.08758 0.0
C3014 C 0.74179 0.30913 0.07475 0.0
C3015 C 0.73638 0.318 0.0882 0.0
H3016 H 0.75164 0.32277 0.92583 0.0
H3017 H 0.70504 0.3265 0.94875 0.0
H3018 H 0.71616 0.31262 0.97293 0.0
H3019 H 0.73945 0.30023 0.98824 0.0
H3020 H 0.78671 0.2998 0.96665 0.0
H3021 H 0.7751 0.31202 0.94155 0.0
C3022 C 0.74389 0.3209 0.93615 0.0
C3023 C 0.7274 0.32577 0.93517 0.0
C3024 C 0.75055 0.31354 0.95042 0.0
C3025 C 0.71763 0.32265 0.94874 0.0
C3026 C 0.72404 0.31484 0.96276 0.0
C3027 C 0.74715 0.30279 0.97799 0.0
C3028 C 0.76388 0.29908 0.97923 0.0
C3029 C 0.7405 0.31029 0.96378 0.0
C3030 C 0.77381 0.30263 0.96599 0.0
C3031 C 0.76717 0.30957 0.95163 0.0
H3032 H 0.72971 0.70611 0.93865 0.0
H3033 H 0.74742 0.74167 0.90425 0.0
H3034 H 0.75932 0.75813 0.92682 0.0
H3035 H 0.76116 0.76445 0.95629 0.0
H3036 H 0.74335 0.72951 0.99096 0.0
H3037 H 0.73553 0.7105 0.96843 0.0
C3038 C 0.7365 0.71725 0.93606 0.0
C3039 C 0.73727 0.72283 0.91974 0.0
C3040 C 0.74336 0.72675 0.94919 0.0
C3041 C 0.74617 0.73731 0.91669 0.0
C3042 C 0.7531 0.74671 0.92959 0.0
C3043 C 0.75617 0.75237 0.9589 0.0
C3044 C 0.75304 0.7482 0.97518 0.0
C3045 C 0.75128 0.74183 0.94588 0.0
C3046 C 0.7462 0.73276 0.97851 0.0
C3047 C 0.74151 0.72203 0.9656 0.0
H3048 H 0.32006 0.69009 0.91769 0.0
H3049 H 0.31101 0.73577 0.89286 0.0
H3050 H 0.29516 0.74534 0.91589 0.0
H3051 H 0.28346 0.74038 0.9429 0.0
H3052 H 0.2913 0.69407 0.96694 0.0
H3053 H 0.30795 0.68495 0.9444 0.0
C3054 C 0.31472 0.70219 0.91745 0.0
C3055 C 0.31678 0.71231 0.90376 0.0
C3056 C 0.30533 0.7074 0.93051 0.0
C3057 C 0.30957 0.72783 0.90334 0.0
C3058 C 0.30053 0.73327 0.91647 0.0
C3059 C 0.28892 0.72835 0.9432 0.0
C3060 C 0.28622 0.71791 0.95655 0.0
C3061 C 0.29827 0.72313 0.93009 0.0
C3062 C 0.29311 0.70223 0.95671 0.0
C3063 C 0.30268 0.69706 0.94389 0.0
H3064 H 0.30305 0.34637 0.92842 0.0
H3065 H 0.33781 0.3071 0.93098 0.0
H3066 H 0.32519 0.29647 0.95548 0.0
H3067 H 0.30441 0.29833 0.97631 0.0
H3068 H 0.26946 0.33739 0.97382 0.0
H3069 H 0.282 0.34807 0.94923 0.0
C3070 C 0.30779 0.33542 0.93427 0.0
C3071 C 0.32142 0.3276 0.92785 0.0
C3072 C 0.30045 0.32933 0.94841 0.0
C3073 C 0.3275 0.31353 0.93575 0.0
C3074 C 0.32023 0.30737 0.94973 0.0
C3075 C 0.2994 0.30907 0.9703 0.0
C3076 C 0.28595 0.31699 0.97693 0.0
C3077 C 0.3067 0.31516 0.95618 0.0
C3078 C 0.27988 0.33112 0.96911 0.0
C3079 C 0.28701 0.33719 0.95499 0.0
H3080 H 0.60091 0.69528 0.22511 0.0
H3081 H 0.62861 0.7407 0.23038 0.0
H3082 H 0.60759 0.752 0.24719 0.0
H3083 H 0.58112 0.74925 0.26036 0.0
H3084 H 0.55471 0.70323 0.2574 0.0
H3085 H 0.57573 0.69171 0.24024 0.0
C3086 C 0.6026 0.70755 0.23012 0.0
C3087 C 0.61639 0.71711 0.2261 0.0
C3088 C 0.5907 0.71386 0.24035 0.0
C3089 C 0.618 0.7331 0.23269 0.0
C3090 C 0.60603 0.73958 0.24252 0.0
C3091 C 0.58006 0.73669 0.25597 0.0
C3092 C 0.56641 0.7271 0.26002 0.0
C3093 C 0.59229 0.73012 0.24634 0.0
C3094 C 0.5652 0.71077 0.2545 0.0
C3095 C 0.57715 0.70424 0.24462 0.0
H3096 H 0.32212 0.62934 0.21952 0.0
H3097 H 0.36788 0.60853 0.20554 0.0
H3098 H 0.36215 0.58409 0.22136 0.0
H3099 H 0.34396 0.56812 0.23891 0.0
H3100 H 0.29705 0.58741 0.25034 0.0
H3101 H 0.30322 0.61272 0.23551 0.0
C3102 C 0.33078 0.61942 0.21965 0.0
C3103 C 0.34557 0.62111 0.2114 0.0
C3104 C 0.32717 0.60501 0.22835 0.0
C3105 C 0.35662 0.608 0.21207 0.0
C3106 C 0.3533 0.59385 0.22102 0.0
C3107 C 0.33519 0.57796 0.2382 0.0
C3108 C 0.32016 0.57606 0.2458 0.0
C3109 C 0.33865 0.59223 0.22925 0.0
C3110 C 0.3087 0.58868 0.24457 0.0
C3111 C 0.31224 0.60312 0.23611 0.0
H3112 H 0.44114 0.3312 0.23065 0.0
H3113 H 0.40194 0.29895 0.24498 0.0
H3114 H 0.42146 0.28171 0.25976 0.0
H3115 H 0.44978 0.27356 0.26517 0.0
H3116 H 0.48934 0.30523 0.25121 0.0
H3117 H 0.46963 0.32523 0.24028 0.0
C3118 C 0.43683 0.32062 0.23732 0.0
C3119 C 0.42008 0.31616 0.23626 0.0
C3120 C 0.44821 0.31067 0.24592 0.0
C3121 C 0.41477 0.30241 0.24508 0.0
C3122 C 0.42593 0.29258 0.25366 0.0
C3123 C 0.45405 0.28515 0.26029 0.0
C3124 C 0.47092 0.28802 0.25908 0.0
C3125 C 0.44269 0.29626 0.25368 0.0
C3126 C 0.47639 0.30292 0.25255 0.0
C3127 C 0.4651 0.31422 0.24605 0.0
H3128 H 0.69905 0.4358 0.23929 0.0
H3129 H 0.73167 0.41801 0.20298 0.0
H3130 H 0.75034 0.44087 0.20877 0.0
H3131 H 0.75754 0.46569 0.22369 0.0
H3132 H 0.72593 0.48458 0.26028 0.0
H3133 H 0.7067 0.46153 0.25482 0.0
C3134 C 0.71024 0.437 0.23267 0.0
C3135 C 0.71404 0.42504 0.22086 0.0
C3136 C 0.72108 0.45034 0.23607 0.0
C3137 C 0.72859 0.42677 0.21237 0.0
C3138 C 0.73925 0.43992 0.21559 0.0
C3139 C 0.74645 0.4649 0.23053 0.0
C3140 C 0.74317 0.47693 0.24235 0.0
C3141 C 0.73564 0.45172 0.22739 0.0
C3142 C 0.72875 0.47551 0.2511 0.0
C3143 C 0.71777 0.46233 0.24796 0.0
H3144 H 0.60968 0.34667 0.81899 0.0
H3145 H 0.64521 0.30915 0.81136 0.0
H3146 H 0.62406 0.29141 0.79839 0.0
H3147 H 0.59524 0.28588 0.79085 0.0
H3148 H 0.5596 0.32361 0.7968 0.0
H3149 H 0.58098 0.34211 0.80857 0.0
C3150 C 0.61273 0.33466 0.81433 0.0
C3151 C 0.62891 0.32913 0.81618 0.0
C3152 C 0.60052 0.32462 0.80662 0.0
C3153 C 0.63284 0.31363 0.81 0.0
C3154 C 0.62075 0.30349 0.80265 0.0
C3155 C 0.5922 0.29823 0.79457 0.0
C3156 C 0.57589 0.30337 0.79312 0.0
C3157 C 0.60453 0.30875 0.80112 0.0
C3158 C 0.5721 0.31944 0.79776 0.0
C3159 C 0.5843 0.32995 0.80458 0.0
H3160 H 0.71542 0.60251 0.80763 0.0
H3161 H 0.74827 0.64135 0.7932 0.0
H3162 H 0.76479 0.62158 0.77914 0.0
H3163 H 0.77178 0.59303 0.77365 0.0
H3164 H 0.73876 0.55403 0.78656 0.0
H3165 H 0.72011 0.57412 0.79797 0.0
C3166 C 0.72597 0.60674 0.80112 0.0
C3167 C 0.73082 0.62343 0.80202 0.0
C3168 C 0.73538 0.59526 0.79271 0.0
C3169 C 0.74454 0.62856 0.79336 0.0
C3170 C 0.75395 0.61727 0.78514 0.0
C3171 C 0.76025 0.589 0.77854 0.0
C3172 C 0.75658 0.57216 0.77929 0.0
C3173 C 0.74977 0.60056 0.78516 0.0
C3174 C 0.74169 0.56699 0.78568 0.0
C3175 C 0.73116 0.57846 0.79239 0.0
H3176 H 0.42489 0.71347 0.78737 0.0
H3177 H 0.44912 0.68373 0.82425 0.0
H3178 H 0.47572 0.69312 0.81513 0.0
H3179 H 0.49205 0.71134 0.79817 0.0
H3180 H 0.46789 0.74165 0.76165 0.0
H3181 H 0.4414 0.73033 0.76902 0.0
C3182 C 0.43601 0.70905 0.7934 0.0
C3183 C 0.435 0.698 0.80655 0.0
C3184 C 0.4513 0.71458 0.78814 0.0
C3185 C 0.44952 0.69216 0.81404 0.0
C3186 C 0.46476 0.69757 0.80888 0.0
C3187 C 0.48103 0.71531 0.79162 0.0
C3188 C 0.48202 0.72744 0.77944 0.0
C3189 C 0.46579 0.70897 0.79611 0.0
C3190 C 0.46756 0.73236 0.77109 0.0
C3191 C 0.45236 0.72596 0.77536 0.0
H3192 H 0.34983 0.43252 0.80055 0.0
H3193 H 0.3036 0.40613 0.79694 0.0
H3194 H 0.29255 0.42697 0.77863 0.0
H3195 H 0.29596 0.45265 0.76314 0.0
H3196 H 0.34289 0.47724 0.76429 0.0
H3197 H 0.35388 0.45682 0.78353 0.0
C3198 C 0.33743 0.43102 0.7956 0.0
C3199 C 0.32764 0.41763 0.80047 0.0
C3200 C 0.33127 0.44273 0.78443 0.0
C3201 C 0.31144 0.4164 0.79398 0.0
C3202 C 0.3051 0.42826 0.78327 0.0
C3203 C 0.30859 0.45344 0.76761 0.0
C3204 C 0.31862 0.4664 0.76237 0.0
C3205 C 0.31488 0.44148 0.77841 0.0
C3206 C 0.33501 0.46728 0.76807 0.0
C3207 C 0.34125 0.45567 0.77913 0.0
H3208 H 0.72188 0.6018 0.18403 0.0
H3209 H 0.73886 0.63005 0.22656 0.0
H3210 H 0.75365 0.60645 0.23707 0.0
H3211 H 0.76182 0.57761 0.23438 0.0
H3212 H 0.74716 0.55027 0.1908 0.0
H3213 H 0.73187 0.57386 0.18025 0.0
C3214 C 0.72903 0.60301 0.19545 0.0
C3215 C 0.72893 0.61782 0.2045 0.0
C3216 C 0.73804 0.58952 0.20122 0.0
C3217 C 0.73818 0.6188 0.21945 0.0
C3218 C 0.74683 0.60531 0.22544 0.0
C3219 C 0.75527 0.5769 0.22257 0.0
C3220 C 0.75548 0.56227 0.2134 0.0
C3221 C 0.74678 0.59059 0.2165 0.0
C3222 C 0.7472 0.56147 0.198 0.0
C3223 C 0.73841 0.57491 0.19203 0.0
H3224 H 0.74838 0.43186 0.8201 0.0
H3225 H 0.72414 0.45923 0.85736 0.0
H3226 H 0.73884 0.4841 0.84971 0.0
H3227 H 0.75793 0.49842 0.83175 0.0
H3228 H 0.78087 0.47138 0.79356 0.0
H3229 H 0.76716 0.44614 0.80207 0.0
C3230 C 0.74614 0.44328 0.82645 0.0
C3231 C 0.73513 0.44355 0.83933 0.0
C3232 C 0.75441 0.45765 0.82179 0.0
C3233 C 0.7327 0.4585 0.84758 0.0
C3234 C 0.74104 0.47279 0.84314 0.0
C3235 C 0.76006 0.48695 0.82546 0.0
C3236 C 0.77043 0.48673 0.81208 0.0
C3237 C 0.75189 0.47254 0.83024 0.0
C3238 C 0.77286 0.47185 0.80383 0.0
C3239 C 0.76505 0.45742 0.8087 0.0
H3240 H 0.60147 0.71461 0.84233 0.0
H3241 H 0.62811 0.73405 0.80182 0.0
H3242 H 0.60376 0.74815 0.79172 0.0
H3243 H 0.57487 0.75532 0.79443 0.0
H3244 H 0.5487 0.73726 0.83569 0.0
H3245 H 0.57301 0.72275 0.84571 0.0
C3246 C 0.60209 0.72209 0.83142 0.0
C3247 C 0.61673 0.72304 0.82284 0.0
C3248 C 0.5881 0.73057 0.82584 0.0
C3249 C 0.61702 0.73267 0.80854 0.0
C3250 C 0.6031 0.74091 0.8028 0.0
C3251 C 0.57449 0.74816 0.80558 0.0
C3252 C 0.55997 0.74735 0.81427 0.0
C3253 C 0.58856 0.73993 0.81132 0.0
C3254 C 0.55975 0.73822 0.82885 0.0
C3255 C 0.57363 0.72984 0.83453 0.0
H3256 H 0.33944 0.59487 0.79088 0.0
H3257 H 0.29461 0.60202 0.81596 0.0
H3258 H 0.28218 0.57826 0.8015 0.0
H3259 H 0.28391 0.55586 0.78082 0.0
H3260 H 0.32925 0.54947 0.75627 0.0
H3261 H 0.34167 0.57221 0.77175 0.0
C3262 C 0.32705 0.59108 0.79347 0.0
C3263 C 0.31802 0.60021 0.80455 0.0
C3264 C 0.32004 0.57748 0.78518 0.0
C3265 C 0.30181 0.59532 0.80737 0.0
C3266 C 0.29471 0.58168 0.79916 0.0
C3267 C 0.29655 0.55937 0.77903 0.0
C3268 C 0.30558 0.55103 0.76732 0.0
C3269 C 0.30368 0.57272 0.78791 0.0
C3270 C 0.32194 0.55575 0.76507 0.0
C3271 C 0.3291 0.56878 0.77393 0.0
H3272 H 0.43561 0.29573 0.84512 0.0
H3273 H 0.43294 0.33057 0.80546 0.0
H3274 H 0.45871 0.32076 0.7954 0.0
H3275 H 0.48214 0.30279 0.79802 0.0
H3276 H 0.48493 0.26724 0.83706 0.0
H3277 H 0.45921 0.27712 0.8474 0.0
C3278 C 0.44072 0.3012 0.83432 0.0
C3279 C 0.43228 0.31382 0.82602 0.0
C3280 C 0.45562 0.29546 0.82853 0.0
C3281 C 0.43902 0.32068 0.81195 0.0
C3282 C 0.45382 0.31515 0.80623 0.0
C3283 C 0.47712 0.29696 0.80865 0.0
C3284 C 0.4856 0.28418 0.81665 0.0
C3285 C 0.46222 0.30254 0.8144 0.0
C3286 C 0.47887 0.27718 0.83068 0.0
C3287 C 0.46407 0.28278 0.83657 0.0
H3288 H 0.34067 0.43262 0.2309 0.0
H3289 H 0.30365 0.43269 0.19188 0.0
H3290 H 0.2927 0.4583 0.20268 0.0
H3291 H 0.29338 0.48051 0.22398 0.0
H3292 H 0.33124 0.47957 0.26241 0.0
H3293 H 0.34192 0.45461 0.25115 0.0
C3294 C 0.33012 0.43816 0.2248 0.0
C3295 C 0.3229 0.43065 0.21073 0.0
C3296 C 0.32399 0.45282 0.23101 0.0
C3297 C 0.30947 0.43823 0.20275 0.0
C3298 C 0.30317 0.45285 0.20896 0.0
C3299 C 0.30399 0.47486 0.22981 0.0
C3300 C 0.31136 0.482 0.24411 0.0
C3301 C 0.31029 0.46027 0.22318 0.0
C3302 C 0.32517 0.47446 0.25146 0.0
C3303 C 0.33137 0.4601 0.24503 0.0
H3304 H 0.60342 0.30361 0.21871 0.0
H3305 H 0.57294 0.33594 0.18958 0.0
H3306 H 0.54908 0.31848 0.19434 0.0
H3307 H 0.53668 0.29436 0.20748 0.0
H3308 H 0.56707 0.26269 0.23731 0.0
H3309 H 0.59115 0.27955 0.23164 0.0
C3310 C 0.59153 0.30696 0.21357 0.0
C3311 C 0.58999 0.32112 0.20387 0.0
C3312 C 0.57785 0.29691 0.2164 0.0
C3313 C 0.57452 0.32506 0.197 0.0
C3314 C 0.56085 0.31509 0.19974 0.0
C3315 C 0.54863 0.29104 0.21249 0.0
C3316 C 0.55015 0.27728 0.22273 0.0
C3317 C 0.56236 0.30098 0.20942 0.0
C3318 C 0.56564 0.27326 0.22943 0.0
C3319 C 0.57938 0.28291 0.22622 0.0
H3320 H 0.44271 0.71404 0.21549 0.0
H3321 H 0.43541 0.76152 0.19356 0.0
H3322 H 0.45813 0.77291 0.21075 0.0
H3323 H 0.4797 0.76934 0.23291 0.0
H3324 H 0.48608 0.72133 0.2541 0.0
H3325 H 0.46446 0.71016 0.23596 0.0
C3326 C 0.44625 0.72681 0.21414 0.0
C3327 C 0.43739 0.73683 0.20311 0.0
C3328 C 0.45926 0.73321 0.22396 0.0
C3329 C 0.44192 0.7535 0.20201 0.0
C3330 C 0.45498 0.76001 0.21179 0.0
C3331 C 0.47646 0.75642 0.23335 0.0
C3332 C 0.48445 0.74622 0.24492 0.0
C3333 C 0.4637 0.74999 0.22293 0.0
C3334 C 0.48004 0.72951 0.24545 0.0
C3335 C 0.46766 0.72307 0.23507 0.0
loop_
_geom_bond_atom_site_label_1
_geom_bond_atom_site_label_2
_geom_bond_distance
_geom_bond_site_symmetry_2
_ccdc_geom_bond_type
C0 C1 1.386 . S
C0 C2 1.397 . S
C0 H24 0.931 . S
C1 C0 1.386 . S
C1 C5 1.397 . S
C2 C0 1.397 . S
C2 C3 1.384 . S
C2 H25 0.930 . S
C3 C2 1.384 . S
C3 C4 1.377 . S
C3 C6 1.481 . S
C4 C3 1.377 . S
C4 C5 1.389 . S
C4 H26 0.929 . S
C5 C1 1.397 . S
C5 C4 1.389 . S
C5 H27 0.931 . S
C6 C3 1.481 . S
C6 C7 1.387 . S
C6 C11 1.390 . S
C7 C6 1.387 . S
C7 C8 1.401 . S
C7 H28 0.930 . S
C8 C7 1.401 . S
C8 C9 1.376 . S
C8 C17 1.511 . S
C9 C8 1.376 . S
C9 C10 1.392 . S
C9 H30 0.931 . S
C10 C9 1.392 . S
C10 C11 1.361 . S
C10 C12 1.500 . S
C11 C6 1.390 . S
C11 C10 1.361 . S
C11 H29 0.931 . S
C12 C10 1.500 . S
C12 C13 1.371 . S
C12 C14 1.365 . S
C13 C12 1.371 . S
C13 C23 1.386 . S
C13 H31 0.931 . S
C14 C12 1.365 . S
C14 C15 1.409 . S
C14 H32 0.929 . S
C15 C14 1.409 . S
C15 C16 1.380 . S
C15 H33 0.930 . S
C16 C15 1.380 . S
C16 C23 1.357 . S
C17 C8 1.511 . S
C17 C18 1.341 . S
C17 C19 1.371 . S
C18 C17 1.341 . S
C18 C22 1.394 . S
C18 H34 0.930 . S
C19 C17 1.371 . S
C19 C20 1.392 . S
C19 H35 0.931 . S
C20 C19 1.392 . S
C20 C21 1.331 . S
C20 H38 0.932 . S
C21 C20 1.331 . S
C21 C22 1.336 . S
C22 C18 1.394 . S
C22 C21 1.336 . S
C22 H37 0.929 . S
C23 C13 1.386 . S
C23 C16 1.357 . S
C23 H36 0.928 . S
H24 C0 0.931 . S
H25 C2 0.930 . S
H26 C4 0.929 . S
H27 C5 0.931 . S
H28 C7 0.930 . S
H29 C11 0.931 . S
H30 C9 0.931 . S
H31 C13 0.931 . S
H32 C14 0.929 . S
H33 C15 0.930 . S
H34 C18 0.930 . S
H35 C19 0.931 . S
H36 C23 0.928 . S
H37 C22 0.929 . S
H38 C20 0.932 . S
C39 C40 1.386 . S
C39 C41 1.397 . S
C39 H63 0.931 . S
C40 C39 1.386 . S
C40 C44 1.397 . S
C41 C39 1.397 . S
C41 C42 1.384 . S
C41 H64 0.930 . S
C42 C41 1.384 . S
C42 C43 1.377 . S
C42 C45 1.481 . S
C43 C42 1.377 . S
C43 C44 1.389 . S
C43 H65 0.929 . S
C44 C40 1.397 . S
C44 C43 1.389 . S
C44 H66 0.931 . S
C45 C42 1.481 . S
C45 C46 1.387 . S
C45 C50 1.390 . S
C46 C45 1.387 . S
C46 C47 1.401 . S
C46 H67 0.930 . S
C47 C46 1.401 . S
C47 C48 1.376 . S
C47 C56 1.511 . S
C48 C47 1.376 . S
C48 C49 1.392 . S
C48 H69 0.931 . S
C49 C48 1.392 . S
C49 C50 1.361 . S
C49 C51 1.500 . S
C50 C45 1.390 . S
C50 C49 1.361 . S
C50 H68 0.931 . S
C51 C49 1.500 . S
C51 C52 1.371 . S
C51 C53 1.365 . S
C52 C51 1.371 . S
C52 C62 1.386 . S
C52 H70 0.931 . S
C53 C51 1.365 . S
C53 C54 1.409 . S
C53 H71 0.929 . S
C54 C53 1.409 . S
C54 C55 1.380 . S
C54 H72 0.930 . S
C55 C54 1.380 . S
C55 C62 1.357 . S
C56 C47 1.511 . S
C56 C57 1.341 . S
C56 C58 1.371 . S
C57 C56 1.341 . S
C57 C61 1.394 . S
C57 H73 0.930 . S
C58 C56 1.371 . S
C58 C59 1.392 . S
C58 H74 0.931 . S
C59 C58 1.392 . S
C59 C60 1.331 . S
C59 H77 0.932 . S
C60 C59 1.331 . S
C60 C61 1.336 . S
C61 C57 1.394 . S
C61 C60 1.336 . S
C61 H76 0.929 . S
C62 C52 1.386 . S
C62 C55 1.357 . S
C62 H75 0.928 . S
H63 C39 0.931 . S
H64 C41 0.930 . S
H65 C43 0.929 . S
H66 C44 0.931 . S
H67 C46 0.930 . S
H68 C50 0.931 . S
H69 C48 0.931 . S
H70 C52 0.931 . S
H71 C53 0.929 . S
H72 C54 0.930 . S
H73 C57 0.930 . S
H74 C58 0.931 . S
H75 C62 0.928 . S
H76 C61 0.929 . S
H77 C59 0.932 . S
C78 C79 1.386 . S
C78 C80 1.397 . S
C78 H102 0.931 . S
C79 C78 1.386 . S
C79 C83 1.397 . S
C80 C78 1.397 . S
C80 C81 1.384 . S
C80 H103 0.930 . S
C81 C80 1.384 . S
C81 C82 1.377 . S
C81 C84 1.481 . S
C82 C81 1.377 . S
C82 C83 1.389 . S
C82 H104 0.929 . S
C83 C79 1.397 . S
C83 C82 1.389 . S
C83 H105 0.931 . S
C84 C81 1.481 . S
C84 C85 1.387 . S
C84 C89 1.390 . S
C85 C84 1.387 . S
C85 C86 1.401 . S
C85 H106 0.930 . S
C86 C85 1.401 . S
C86 C87 1.376 . S
C86 C95 1.511 . S
C87 C86 1.376 . S
C87 C88 1.392 . S
C87 H108 0.931 . S
C88 C87 1.392 . S
C88 C89 1.361 . S
C88 C90 1.500 . S
C89 C84 1.390 . S
C89 C88 1.361 . S
C89 H107 0.931 . S
C90 C88 1.500 . S
C90 C91 1.371 . S
C90 C92 1.365 . S
C91 C90 1.371 . S
C91 C101 1.386 . S
C91 H109 0.931 . S
C92 C90 1.365 . S
C92 C93 1.409 . S
C92 H110 0.929 . S
C93 C92 1.409 . S
C93 C94 1.380 . S
C93 H111 0.930 . S
C94 C93 1.380 . S
C94 C101 1.357 . S
C95 C86 1.511 . S
C95 C96 1.341 . S
C95 C97 1.371 . S
C96 C95 1.341 . S
C96 C100 1.394 . S
C96 H112 0.930 . S
C97 C95 1.371 . S
C97 C98 1.392 . S
C97 H113 0.931 . S
C98 C97 1.392 . S
C98 C99 1.331 . S
C98 H116 0.932 . S
C99 C98 1.331 . S
C99 C100 1.336 . S
C100 C96 1.394 . S
C100 C99 1.336 . S
C100 H115 0.929 . S
C101 C91 1.386 . S
C101 C94 1.357 . S
C101 H114 0.928 . S
H102 C78 0.931 . S
H103 C80 0.930 . S
H104 C82 0.929 . S
H105 C83 0.931 . S
H106 C85 0.930 . S
H107 C89 0.931 . S
H108 C87 0.931 . S
H109 C91 0.931 . S
H110 C92 0.929 . S
H111 C93 0.930 . S
H112 C96 0.930 . S
H113 C97 0.931 . S
H114 C101 0.928 . S
H115 C100 0.929 . S
H116 C98 0.932 . S
C117 C118 1.386 . S
C117 C119 1.397 . S
C117 H141 0.931 . S
C118 C117 1.386 . S
C118 C122 1.397 . S
C119 C117 1.397 . S
C119 C120 1.384 . S
C119 H142 0.930 . S
C120 C119 1.384 . S
C120 C121 1.377 . S
C120 C123 1.481 . S
C121 C120 1.377 . S
C121 C122 1.389 . S
C121 H143 0.929 . S
C122 C118 1.397 . S
C122 C121 1.389 . S
C122 H144 0.931 . S
C123 C120 1.481 . S
C123 C124 1.387 . S
C123 C128 1.390 . S
C124 C123 1.387 . S
C124 C125 1.401 . S
C124 H145 0.930 . S
C125 C124 1.401 . S
C125 C126 1.376 . S
C125 C134 1.511 . S
C126 C125 1.376 . S
C126 C127 1.392 . S
C126 H147 0.931 . S
C127 C126 1.392 . S
C127 C128 1.361 . S
C127 C129 1.500 . S
C128 C123 1.390 . S
C128 C127 1.361 . S
C128 H146 0.931 . S
C129 C127 1.500 . S
C129 C130 1.371 . S
C129 C131 1.365 . S
C130 C129 1.371 . S
C130 C140 1.386 . S
C130 H148 0.931 . S
C131 C129 1.365 . S
C131 C132 1.409 . S
C131 H149 0.929 . S
C132 C131 1.409 . S
C132 C133 1.380 . S
C132 H150 0.930 . S
C133 C132 1.380 . S
C133 C140 1.357 . S
C134 C125 1.511 . S
C134 C135 1.341 . S
C134 C136 1.371 . S
C135 C134 1.341 . S
C135 C139 1.394 . S
C135 H151 0.930 . S
C136 C134 1.371 . S
C136 C137 1.392 . S
C136 H152 0.931 . S
C137 C136 1.392 . S
C137 C138 1.331 . S
C137 H155 0.932 . S
C138 C137 1.331 . S
C138 C139 1.336 . S
C139 C135 1.394 . S
C139 C138 1.336 . S
C139 H154 0.929 . S
C140 C130 1.386 . S
C140 C133 1.357 . S
C140 H153 0.928 . S
H141 C117 0.931 . S
H142 C119 0.930 . S
H143 C121 0.929 . S
H144 C122 0.931 . S
H145 C124 0.930 . S
H146 C128 0.931 . S
H147 C126 0.931 . S
H148 C130 0.931 . S
H149 C131 0.929 . S
H150 C132 0.930 . S
H151 C135 0.930 . S
H152 C136 0.931 . S
H153 C140 0.928 . S
H154 C139 0.929 . S
H155 C137 0.932 . S
C156 C157 1.386 . S
C156 C158 1.397 . S
C156 H180 0.931 . S
C157 C156 1.386 . S
C157 C161 1.397 . S
C158 C156 1.397 . S
C158 C159 1.384 . S
C158 H181 0.930 . S
C159 C158 1.384 . S
C159 C160 1.377 . S
C159 C162 1.481 . S
C160 C159 1.377 . S
C160 C161 1.389 . S
C160 H182 0.929 . S
C161 C157 1.397 . S
C161 C160 1.389 . S
C161 H183 0.931 . S
C162 C159 1.481 . S
C162 C163 1.387 . S
C162 C167 1.390 . S
C163 C162 1.387 . S
C163 C164 1.401 . S
C163 H184 0.930 . S
C164 C163 1.401 . S
C164 C165 1.376 . S
C164 C173 1.511 . S
C165 C164 1.376 . S
C165 C166 1.392 . S
C165 H186 0.931 . S
C166 C165 1.392 . S
C166 C167 1.361 . S
C166 C168 1.500 . S
C167 C162 1.390 . S
C167 C166 1.361 . S
C167 H185 0.931 . S
C168 C166 1.500 . S
C168 C169 1.371 . S
C168 C170 1.365 . S
C169 C168 1.371 . S
C169 C179 1.386 . S
C169 H187 0.931 . S
C170 C168 1.365 . S
C170 C171 1.409 . S
C170 H188 0.929 . S
C171 C170 1.409 . S
C171 C172 1.380 . S
C171 H189 0.930 . S
C172 C171 1.380 . S
C172 C179 1.357 . S
C173 C164 1.511 . S
C173 C174 1.341 . S
C173 C175 1.371 . S
C174 C173 1.341 . S
C174 C178 1.394 . S
C174 H190 0.930 . S
C175 C173 1.371 . S
C175 C176 1.392 . S
C175 H191 0.931 . S
C176 C175 1.392 . S
C176 C177 1.331 . S
C176 H194 0.932 . S
C177 C176 1.331 . S
C177 C178 1.336 . S
C178 C174 1.394 . S
C178 C177 1.336 . S
C178 H193 0.929 . S
C179 C169 1.386 . S
C179 C172 1.357 . S
C179 H192 0.928 . S
H180 C156 0.931 . S
H181 C158 0.930 . S
H182 C160 0.929 . S
H183 C161 0.931 . S
H184 C163 0.930 . S
H185 C167 0.931 . S
H186 C165 0.931 . S
H187 C169 0.931 . S
H188 C170 0.929 . S
H189 C171 0.930 . S
H190 C174 0.930 . S
H191 C175 0.931 . S
H192 C179 0.928 . S
H193 C178 0.929 . S
H194 C176 0.932 . S
C195 C196 1.386 . S
C195 C197 1.397 . S
C195 H219 0.931 . S
C196 C195 1.386 . S
C196 C200 1.397 . S
C197 C195 1.397 . S
C197 C198 1.384 . S
C197 H220 0.930 . S
C198 C197 1.384 . S
C198 C199 1.377 . S
C198 C201 1.481 . S
C199 C198 1.377 . S
C199 C200 1.389 . S
C199 H221 0.929 . S
C200 C196 1.397 . S
C200 C199 1.389 . S
C200 H222 0.931 . S
C201 C198 1.481 . S
C201 C202 1.387 . S
C201 C206 1.390 . S
C202 C201 1.387 . S
C202 C203 1.401 . S
C202 H223 0.930 . S
C203 C202 1.401 . S
C203 C204 1.376 . S
C203 C212 1.511 . S
C204 C203 1.376 . S
C204 C205 1.392 . S
C204 H225 0.931 . S
C205 C204 1.392 . S
C205 C206 1.361 . S
C205 C207 1.500 . S
C206 C201 1.390 . S
C206 C205 1.361 . S
C206 H224 0.931 . S
C207 C205 1.500 . S
C207 C208 1.371 . S
C207 C209 1.365 . S
C208 C207 1.371 . S
C208 C218 1.386 . S
C208 H226 0.931 . S
C209 C207 1.365 . S
C209 C210 1.409 . S
C209 H227 0.929 . S
C210 C209 1.409 . S
C210 C211 1.380 . S
C210 H228 0.930 . S
C211 C210 1.380 . S
C211 C218 1.357 . S
C212 C203 1.511 . S
C212 C213 1.341 . S
C212 C214 1.371 . S
C213 C212 1.341 . S
C213 C217 1.394 . S
C213 H229 0.930 . S
C214 C212 1.371 . S
C214 C215 1.392 . S
C214 H230 0.931 . S
C215 C214 1.392 . S
C215 C216 1.331 . S
C215 H233 0.932 . S
C216 C215 1.331 . S
C216 C217 1.336 . S
C217 C213 1.394 . S
C217 C216 1.336 . S
C217 H232 0.929 . S
C218 C208 1.386 . S
C218 C211 1.357 . S
C218 H231 0.928 . S
H219 C195 0.931 . S
H220 C197 0.930 . S
H221 C199 0.929 . S
H222 C200 0.931 . S
H223 C202 0.930 . S
H224 C206 0.931 . S
H225 C204 0.931 . S
H226 C208 0.931 . S
H227 C209 0.929 . S
H228 C210 0.930 . S
H229 C213 0.930 . S
H230 C214 0.931 . S
H231 C218 0.928 . S
H232 C217 0.929 . S
H233 C215 0.932 . S
C234 C235 1.386 . S
C234 C236 1.397 . S
C234 H258 0.931 . S
C235 C234 1.386 . S
C235 C239 1.397 . S
C236 C234 1.397 . S
C236 C237 1.384 . S
C236 H259 0.930 . S
C237 C236 1.384 . S
C237 C238 1.377 . S
C237 C240 1.481 . S
C238 C237 1.377 . S
C238 C239 1.389 . S
C238 H260 0.929 . S
C239 C235 1.397 . S
C239 C238 1.389 . S
C239 H261 0.931 . S
C240 C237 1.481 . S
C240 C241 1.387 . S
C240 C245 1.390 . S
C241 C240 1.387 . S
C241 C242 1.401 . S
C241 H262 0.930 . S
C242 C241 1.401 . S
C242 C243 1.376 . S
C242 C251 1.511 . S
C243 C242 1.376 . S
C243 C244 1.392 . S
C243 H264 0.931 . S
C244 C243 1.392 . S
C244 C245 1.361 . S
C244 C246 1.500 . S
C245 C240 1.390 . S
C245 C244 1.361 . S
C245 H263 0.931 . S
C246 C244 1.500 . S
C246 C247 1.371 . S
C246 C248 1.365 . S
C247 C246 1.371 . S
C247 C257 1.386 . S
C247 H265 0.931 . S
C248 C246 1.365 . S
C248 C249 1.409 . S
C248 H266 0.929 . S
C249 C248 1.409 . S
C249 C250 1.380 . S
C249 H267 0.930 . S
C250 C249 1.380 . S
C250 C257 1.357 . S
C251 C242 1.511 . S
C251 C252 1.341 . S
C251 C253 1.371 . S
C252 C251 1.341 . S
C252 C256 1.394 . S
C252 H268 0.930 . S
C253 C251 1.371 . S
C253 C254 1.392 . S
C253 H269 0.931 . S
C254 C253 1.392 . S
C254 C255 1.331 . S
C254 H272 0.932 . S
C255 C254 1.331 . S
C255 C256 1.336 . S
C256 C252 1.394 . S
C256 C255 1.336 . S
C256 H271 0.929 . S
C257 C247 1.386 . S
C257 C250 1.357 . S
C257 H270 0.928 . S
H258 C234 0.931 . S
H259 C236 0.930 . S
H260 C238 0.929 . S
H261 C239 0.931 . S
H262 C241 0.930 . S
H263 C245 0.931 . S
H264 C243 0.931 . S
H265 C247 0.931 . S
H266 C248 0.929 . S
H267 C249 0.930 . S
H268 C252 0.930 . S
H269 C253 0.931 . S
H270 C257 0.928 . S
H271 C256 0.929 . S
H272 C254 0.932 . S
C273 C274 1.386 . S
C273 C275 1.397 . S
C273 H297 0.931 . S
C274 C273 1.386 . S
C274 C278 1.397 . S
C275 C273 1.397 . S
C275 C276 1.384 . S
C275 H298 0.930 . S
C276 C275 1.384 . S
C276 C277 1.377 . S
C276 C279 1.481 . S
C277 C276 1.377 . S
C277 C278 1.389 . S
C277 H299 0.929 . S
C278 C274 1.397 . S
C278 C277 1.389 . S
C278 H300 0.931 . S
C279 C276 1.481 . S
C279 C280 1.387 . S
C279 C284 1.390 . S
C280 C279 1.387 . S
C280 C281 1.401 . S
C280 H301 0.930 . S
C281 C280 1.401 . S
C281 C282 1.376 . S
C281 C290 1.511 . S
C282 C281 1.376 . S
C282 C283 1.392 . S
C282 H303 0.931 . S
C283 C282 1.392 . S
C283 C284 1.361 . S
C283 C285 1.500 . S
C284 C279 1.390 . S
C284 C283 1.361 . S
C284 H302 0.931 . S
C285 C283 1.500 . S
C285 C286 1.371 . S
C285 C287 1.365 . S
C286 C285 1.371 . S
C286 C296 1.386 . S
C286 H304 0.931 . S
C287 C285 1.365 . S
C287 C288 1.409 . S
C287 H305 0.929 . S
C288 C287 1.409 . S
C288 C289 1.380 . S
C288 H306 0.930 . S
C289 C288 1.380 . S
C289 C296 1.357 . S
C290 C281 1.511 . S
C290 C291 1.341 . S
C290 C292 1.371 . S
C291 C290 1.341 . S
C291 C295 1.394 . S
C291 H307 0.930 . S
C292 C290 1.371 . S
C292 C293 1.392 . S
C292 H308 0.931 . S
C293 C292 1.392 . S
C293 C294 1.331 . S
C293 H311 0.932 . S
C294 C293 1.331 . S
C294 C295 1.336 . S
C295 C291 1.394 . S
C295 C294 1.336 . S
C295 H310 0.929 . S
C296 C286 1.386 . S
C296 C289 1.357 . S
C296 H309 0.928 . S
H297 C273 0.931 . S
H298 C275 0.930 . S
H299 C277 0.929 . S
H300 C278 0.931 . S
H301 C280 0.930 . S
H302 C284 0.931 . S
H303 C282 0.931 . S
H304 C286 0.931 . S
H305 C287 0.929 . S
H306 C288 0.930 . S
H307 C291 0.930 . S
H308 C292 0.931 . S
H309 C296 0.928 . S
H310 C295 0.929 . S
H311 C293 0.932 . S
C312 C313 1.386 . S
C312 C314 1.397 . S
C312 H336 0.931 . S
C313 C312 1.386 . S
C313 C317 1.397 . S
C314 C312 1.397 . S
C314 C315 1.384 . S
C314 H337 0.930 . S
C315 C314 1.384 . S
C315 C316 1.377 . S
C315 C318 1.481 . S
C316 C315 1.377 . S
C316 C317 1.389 . S
C316 H338 0.929 . S
C317 C313 1.397 . S
C317 C316 1.389 . S
C317 H339 0.931 . S
C318 C315 1.481 . S
C318 C319 1.387 . S
C318 C323 1.390 . S
C319 C318 1.387 . S
C319 C320 1.401 . S
C319 H340 0.930 . S
C320 C319 1.401 . S
C320 C321 1.376 . S
C320 C329 1.511 . S
C321 C320 1.376 . S
C321 C322 1.392 . S
C321 H342 0.931 . S
C322 C321 1.392 . S
C322 C323 1.361 . S
C322 C324 1.500 . S
C323 C318 1.390 . S
C323 C322 1.361 . S
C323 H341 0.931 . S
C324 C322 1.500 . S
C324 C325 1.371 . S
C324 C326 1.365 . S
C325 C324 1.371 . S
C325 C335 1.386 . S
C325 H343 0.931 . S
C326 C324 1.365 . S
C326 C327 1.409 . S
C326 H344 0.929 . S
C327 C326 1.409 . S
C327 C328 1.380 . S
C327 H345 0.930 . S
C328 C327 1.380 . S
C328 C335 1.357 . S
C329 C320 1.511 . S
C329 C330 1.341 . S
C329 C331 1.371 . S
C330 C329 1.341 . S
C330 C334 1.394 . S
C330 H346 0.930 . S
C331 C329 1.371 . S
C331 C332 1.392 . S
C331 H347 0.931 . S
C332 C331 1.392 . S
C332 C333 1.331 . S
C332 H350 0.932 . S
C333 C332 1.331 . S
C333 C334 1.336 . S
C334 C330 1.394 . S
C334 C333 1.336 . S
C334 H349 0.929 . S
C335 C325 1.386 . S
C335 C328 1.357 . S
C335 H348 0.928 . S
H336 C312 0.931 . S
H337 C314 0.930 . S
H338 C316 0.929 . S
H339 C317 0.931 . S
H340 C319 0.930 . S
H341 C323 0.931 . S
H342 C321 0.931 . S
H343 C325 0.931 . S
H344 C326 0.929 . S
H345 C327 0.930 . S
H346 C330 0.930 . S
H347 C331 0.931 . S
H348 C335 0.928 . S
H349 C334 0.929 . S
H350 C332 0.932 . S
C351 C352 1.386 . S
C351 C353 1.397 . S
C351 H375 0.931 . S
C352 C351 1.386 . S
C352 C356 1.397 . S
C353 C351 1.397 . S
C353 C354 1.384 . S
C353 H376 0.930 . S
C354 C353 1.384 . S
C354 C355 1.377 . S
C354 C357 1.481 . S
C355 C354 1.377 . S
C355 C356 1.389 . S
C355 H377 0.929 . S
C356 C352 1.397 . S
C356 C355 1.389 . S
C356 H378 0.931 . S
C357 C354 1.481 . S
C357 C358 1.387 . S
C357 C362 1.390 . S
C358 C357 1.387 . S
C358 C359 1.401 . S
C358 H379 0.930 . S
C359 C358 1.401 . S
C359 C360 1.376 . S
C359 C368 1.511 . S
C360 C359 1.376 . S
C360 C361 1.392 . S
C360 H381 0.931 . S
C361 C360 1.392 . S
C361 C362 1.361 . S
C361 C363 1.500 . S
C362 C357 1.390 . S
C362 C361 1.361 . S
C362 H380 0.931 . S
C363 C361 1.500 . S
C363 C364 1.371 . S
C363 C365 1.365 . S
C364 C363 1.371 . S
C364 C374 1.386 . S
C364 H382 0.931 . S
C365 C363 1.365 . S
C365 C366 1.409 . S
C365 H383 0.929 . S
C366 C365 1.409 . S
C366 C367 1.380 . S
C366 H384 0.930 . S
C367 C366 1.380 . S
C367 C374 1.357 . S
C368 C359 1.511 . S
C368 C369 1.341 . S
C368 C370 1.371 . S
C369 C368 1.341 . S
C369 C373 1.394 . S
C369 H385 0.930 . S
C370 C368 1.371 . S
C370 C371 1.392 . S
C370 H386 0.931 . S
C371 C370 1.392 . S
C371 C372 1.331 . S
C371 H389 0.932 . S
C372 C371 1.331 . S
C372 C373 1.336 . S
C373 C369 1.394 . S
C373 C372 1.336 . S
C373 H388 0.929 . S
C374 C364 1.386 . S
C374 C367 1.357 . S
C374 H387 0.928 . S
H375 C351 0.931 . S
H376 C353 0.930 . S
H377 C355 0.929 . S
H378 C356 0.931 . S
H379 C358 0.930 . S
H380 C362 0.931 . S
H381 C360 0.931 . S
H382 C364 0.931 . S
H383 C365 0.929 . S
H384 C366 0.930 . S
H385 C369 0.930 . S
H386 C370 0.931 . S
H387 C374 0.928 . S
H388 C373 0.929 . S
H389 C371 0.932 . S
C390 C391 1.386 . S
C390 C392 1.397 . S
C390 H414 0.931 . S
C391 C390 1.386 . S
C391 C395 1.397 . S
C392 C390 1.397 . S
C392 C393 1.384 . S
C392 H415 0.930 . S
C393 C392 1.384 . S
C393 C394 1.377 . S
C393 C396 1.481 . S
C394 C393 1.377 . S
C394 C395 1.389 . S
C394 H416 0.929 . S
C395 C391 1.397 . S
C395 C394 1.389 . S
C395 H417 0.931 . S
C396 C393 1.481 . S
C396 C397 1.387 . S
C396 C401 1.390 . S
C397 C396 1.387 . S
C397 C398 1.401 . S
C397 H418 0.930 . S
C398 C397 1.401 . S
C398 C399 1.376 . S
C398 C407 1.511 . S
C399 C398 1.376 . S
C399 C400 1.392 . S
C399 H420 0.931 . S
C400 C399 1.392 . S
C400 C401 1.361 . S
C400 C402 1.500 . S
C401 C396 1.390 . S
C401 C400 1.361 . S
C401 H419 0.931 . S
C402 C400 1.500 . S
C402 C403 1.371 . S
C402 C404 1.365 . S
C403 C402 1.371 . S
C403 C413 1.386 . S
C403 H421 0.931 . S
C404 C402 1.365 . S
C404 C405 1.409 . S
C404 H422 0.929 . S
C405 C404 1.409 . S
C405 C406 1.380 . S
C405 H423 0.930 . S
C406 C405 1.380 . S
C406 C413 1.357 . S
C407 C398 1.511 . S
C407 C408 1.341 . S
C407 C409 1.371 . S
C408 C407 1.341 . S
C408 C412 1.394 . S
C408 H424 0.930 . S
C409 C407 1.371 . S
C409 C410 1.392 . S
C409 H425 0.931 . S
C410 C409 1.392 . S
C410 C411 1.331 . S
C410 H428 0.932 . S
C411 C410 1.331 . S
C411 C412 1.336 . S
C412 C408 1.394 . S
C412 C411 1.336 . S
C412 H427 0.929 . S
C413 C403 1.386 . S
C413 C406 1.357 . S
C413 H426 0.928 . S
H414 C390 0.931 . S
H415 C392 0.930 . S
H416 C394 0.929 . S
H417 C395 0.931 . S
H418 C397 0.930 . S
H419 C401 0.931 . S
H420 C399 0.931 . S
H421 C403 0.931 . S
H422 C404 0.929 . S
H423 C405 0.930 . S
H424 C408 0.930 . S
H425 C409 0.931 . S
H426 C413 0.928 . S
H427 C412 0.929 . S
H428 C410 0.932 . S
C429 C430 1.386 . S
C429 C431 1.397 . S
C429 H453 0.931 . S
C430 C429 1.386 . S
C430 C434 1.397 . S
C431 C429 1.397 . S
C431 C432 1.384 . S
C431 H454 0.930 . S
C432 C431 1.384 . S
C432 C433 1.377 . S
C432 C435 1.481 . S
C433 C432 1.377 . S
C433 C434 1.389 . S
C433 H455 0.929 . S
C434 C430 1.397 . S
C434 C433 1.389 . S
C434 H456 0.931 . S
C435 C432 1.481 . S
C435 C436 1.387 . S
C435 C440 1.390 . S
C436 C435 1.387 . S
C436 C437 1.401 . S
C436 H457 0.930 . S
C437 C436 1.401 . S
C437 C438 1.376 . S
C437 C446 1.511 . S
C438 C437 1.376 . S
C438 C439 1.392 . S
C438 H459 0.931 . S
C439 C438 1.392 . S
C439 C440 1.361 . S
C439 C441 1.500 . S
C440 C435 1.390 . S
C440 C439 1.361 . S
C440 H458 0.931 . S
C441 C439 1.500 . S
C441 C442 1.371 . S
C441 C443 1.365 . S
C442 C441 1.371 . S
C442 C452 1.386 . S
C442 H460 0.931 . S
C443 C441 1.365 . S
C443 C444 1.409 . S
C443 H461 0.929 . S
C444 C443 1.409 . S
C444 C445 1.380 . S
C444 H462 0.930 . S
C445 C444 1.380 . S
C445 C452 1.357 . S
C446 C437 1.511 . S
C446 C447 1.341 . S
C446 C448 1.371 . S
C447 C446 1.341 . S
C447 C451 1.394 . S
C447 H463 0.930 . S
C448 C446 1.371 . S
C448 C449 1.392 . S
C448 H464 0.931 . S
C449 C448 1.392 . S
C449 C450 1.331 . S
C449 H467 0.932 . S
C450 C449 1.331 . S
C450 C451 1.336 . S
C451 C447 1.394 . S
C451 C450 1.336 . S
C451 H466 0.929 . S
C452 C442 1.386 . S
C452 C445 1.357 . S
C452 H465 0.928 . S
H453 C429 0.931 . S
H454 C431 0.930 . S
H455 C433 0.929 . S
H456 C434 0.931 . S
H457 C436 0.930 . S
H458 C440 0.931 . S
H459 C438 0.931 . S
H460 C442 0.931 . S
H461 C443 0.929 . S
H462 C444 0.930 . S
H463 C447 0.930 . S
H464 C448 0.931 . S
H465 C452 0.928 . S
H466 C451 0.929 . S
H467 C449 0.932 . S
C468 C469 1.386 . S
C468 C470 1.397 . S
C468 H492 0.931 . S
C469 C468 1.386 . S
C469 C473 1.397 . S
C470 C468 1.397 . S
C470 C471 1.384 . S
C470 H493 0.930 . S
C471 C470 1.384 . S
C471 C472 1.377 . S
C471 C474 1.481 . S
C472 C471 1.377 . S
C472 C473 1.389 . S
C472 H494 0.929 . S
C473 C469 1.397 . S
C473 C472 1.389 . S
C473 H495 0.931 . S
C474 C471 1.481 . S
C474 C475 1.387 . S
C474 C479 1.390 . S
C475 C474 1.387 . S
C475 C476 1.401 . S
C475 H496 0.930 . S
C476 C475 1.401 . S
C476 C477 1.376 . S
C476 C485 1.511 . S
C477 C476 1.376 . S
C477 C478 1.392 . S
C477 H498 0.931 . S
C478 C477 1.392 . S
C478 C479 1.361 . S
C478 C480 1.500 . S
C479 C474 1.390 . S
C479 C478 1.361 . S
C479 H497 0.931 . S
C480 C478 1.500 . S
C480 C481 1.371 . S
C480 C482 1.365 . S
C481 C480 1.371 . S
C481 C491 1.386 . S
C481 H499 0.931 . S
C482 C480 1.365 . S
C482 C483 1.409 . S
C482 H500 0.929 . S
C483 C482 1.409 . S
C483 C484 1.380 . S
C483 H501 0.930 . S
C484 C483 1.380 . S
C484 C491 1.357 . S
C485 C476 1.511 . S
C485 C486 1.341 . S
C485 C487 1.371 . S
C486 C485 1.341 . S
C486 C490 1.394 . S
C486 H502 0.930 . S
C487 C485 1.371 . S
C487 C488 1.392 . S
C487 H503 0.931 . S
C488 C487 1.392 . S
C488 C489 1.331 . S
C488 H506 0.932 . S
C489 C488 1.331 . S
C489 C490 1.336 . S
C490 C486 1.394 . S
C490 C489 1.336 . S
C490 H505 0.929 . S
C491 C481 1.386 . S
C491 C484 1.357 . S
C491 H504 0.928 . S
H492 C468 0.931 . S
H493 C470 0.930 . S
H494 C472 0.929 . S
H495 C473 0.931 . S
H496 C475 0.930 . S
H497 C479 0.931 . S
H498 C477 0.931 . S
H499 C481 0.931 . S
H500 C482 0.929 . S
H501 C483 0.930 . S
H502 C486 0.930 . S
H503 C487 0.931 . S
H504 C491 0.928 . S
H505 C490 0.929 . S
H506 C488 0.932 . S
C507 C508 1.386 . S
C507 C509 1.397 . S
C507 H531 0.931 . S
C508 C507 1.386 . S
C508 C512 1.397 . S
C509 C507 1.397 . S
C509 C510 1.384 . S
C509 H532 0.930 . S
C510 C509 1.384 . S
C510 C511 1.377 . S
C510 C513 1.481 . S
C511 C510 1.377 . S
C511 C512 1.389 . S
C511 H533 0.929 . S
C512 C508 1.397 . S
C512 C511 1.389 . S
C512 H534 0.931 . S
C513 C510 1.481 . S
C513 C514 1.387 . S
C513 C518 1.390 . S
C514 C513 1.387 . S
C514 C515 1.401 . S
C514 H535 0.930 . S
C515 C514 1.401 . S
C515 C516 1.376 . S
C515 C524 1.511 . S
C516 C515 1.376 . S
C516 C517 1.392 . S
C516 H537 0.931 . S
C517 C516 1.392 . S
C517 C518 1.361 . S
C517 C519 1.500 . S
C518 C513 1.390 . S
C518 C517 1.361 . S
C518 H536 0.931 . S
C519 C517 1.500 . S
C519 C520 1.371 . S
C519 C521 1.365 . S
C520 C519 1.371 . S
C520 C530 1.386 . S
C520 H538 0.931 . S
C521 C519 1.365 . S
C521 C522 1.409 . S
C521 H539 0.929 . S
C522 C521 1.409 . S
C522 C523 1.380 . S
C522 H540 0.930 . S
C523 C522 1.380 . S
C523 C530 1.357 . S
C524 C515 1.511 . S
C524 C525 1.341 . S
C524 C526 1.371 . S
C525 C524 1.341 . S
C525 C529 1.394 . S
C525 H541 0.930 . S
C526 C524 1.371 . S
C526 C527 1.392 . S
C526 H542 0.931 . S
C527 C526 1.392 . S
C527 C528 1.331 . S
C527 H545 0.932 . S
C528 C527 1.331 . S
C528 C529 1.336 . S
C529 C525 1.394 . S
C529 C528 1.336 . S
C529 H544 0.929 . S
C530 C520 1.386 . S
C530 C523 1.357 . S
C530 H543 0.928 . S
H531 C507 0.931 . S
H532 C509 0.930 . S
H533 C511 0.929 . S
H534 C512 0.931 . S
H535 C514 0.930 . S
H536 C518 0.931 . S
H537 C516 0.931 . S
H538 C520 0.931 . S
H539 C521 0.929 . S
H540 C522 0.930 . S
H541 C525 0.930 . S
H542 C526 0.931 . S
H543 C530 0.928 . S
H544 C529 0.929 . S
H545 C527 0.932 . S
C546 C547 1.386 . S
C546 C548 1.397 . S
C546 H570 0.931 . S
C547 C546 1.386 . S
C547 C551 1.397 . S
C548 C546 1.397 . S
C548 C549 1.384 . S
C548 H571 0.930 . S
C549 C548 1.384 . S
C549 C550 1.377 . S
C549 C552 1.481 . S
C550 C549 1.377 . S
C550 C551 1.389 . S
C550 H572 0.929 . S
C551 C547 1.397 . S
C551 C550 1.389 . S
C551 H573 0.931 . S
C552 C549 1.481 . S
C552 C553 1.387 . S
C552 C557 1.390 . S
C553 C552 1.387 . S
C553 C554 1.401 . S
C553 H574 0.930 . S
C554 C553 1.401 . S
C554 C555 1.376 . S
C554 C563 1.511 . S
C555 C554 1.376 . S
C555 C556 1.392 . S
C555 H576 0.931 . S
C556 C555 1.392 . S
C556 C557 1.361 . S
C556 C558 1.500 . S
C557 C552 1.390 . S
C557 C556 1.361 . S
C557 H575 0.931 . S
C558 C556 1.500 . S
C558 C559 1.371 . S
C558 C560 1.365 . S
C559 C558 1.371 . S
C559 C569 1.386 . S
C559 H577 0.931 . S
C560 C558 1.365 . S
C560 C561 1.409 . S
C560 H578 0.929 . S
C561 C560 1.409 . S
C561 C562 1.380 . S
C561 H579 0.930 . S
C562 C561 1.380 . S
C562 C569 1.357 . S
C563 C554 1.511 . S
C563 C564 1.341 . S
C563 C565 1.371 . S
C564 C563 1.341 . S
C564 C568 1.394 . S
C564 H580 0.930 . S
C565 C563 1.371 . S
C565 C566 1.392 . S
C565 H581 0.931 . S
C566 C565 1.392 . S
C566 C567 1.331 . S
C566 H584 0.932 . S
C567 C566 1.331 . S
C567 C568 1.336 . S
C568 C564 1.394 . S
C568 C567 1.336 . S
C568 H583 0.929 . S
C569 C559 1.386 . S
C569 C562 1.357 . S
C569 H582 0.928 . S
H570 C546 0.931 . S
H571 C548 0.930 . S
H572 C550 0.929 . S
H573 C551 0.931 . S
H574 C553 0.930 . S
H575 C557 0.931 . S
H576 C555 0.931 . S
H577 C559 0.931 . S
H578 C560 0.929 . S
H579 C561 0.930 . S
H580 C564 0.930 . S
H581 C565 0.931 . S
H582 C569 0.928 . S
H583 C568 0.929 . S
H584 C566 0.932 . S
C585 C586 1.386 . S
C585 C587 1.397 . S
C585 H609 0.931 . S
C586 C585 1.386 . S
C586 C590 1.397 . S
C587 C585 1.397 . S
C587 C588 1.384 . S
C587 H610 0.930 . S
C588 C587 1.384 . S
C588 C589 1.377 . S
C588 C591 1.481 . S
C589 C588 1.377 . S
C589 C590 1.389 . S
C589 H611 0.929 . S
C590 C586 1.397 . S
C590 C589 1.389 . S
C590 H612 0.931 . S
C591 C588 1.481 . S
C591 C592 1.387 . S
C591 C596 1.390 . S
C592 C591 1.387 . S
C592 C593 1.401 . S
C592 H613 0.930 . S
C593 C592 1.401 . S
C593 C594 1.376 . S
C593 C602 1.511 . S
C594 C593 1.376 . S
C594 C595 1.392 . S
C594 H615 0.931 . S
C595 C594 1.392 . S
C595 C596 1.361 . S
C595 C597 1.500 . S
C596 C591 1.390 . S
C596 C595 1.361 . S
C596 H614 0.931 . S
C597 C595 1.500 . S
C597 C598 1.371 . S
C597 C599 1.365 . S
C598 C597 1.371 . S
C598 C608 1.386 . S
C598 H616 0.931 . S
C599 C597 1.365 . S
C599 C600 1.409 . S
C599 H617 0.929 . S
C600 C599 1.409 . S
C600 C601 1.380 . S
C600 H618 0.930 . S
C601 C600 1.380 . S
C601 C608 1.357 . S
C602 C593 1.511 . S
C602 C603 1.341 . S
C602 C604 1.371 . S
C603 C602 1.341 . S
C603 C607 1.394 . S
C603 H619 0.930 . S
C604 C602 1.371 . S
C604 C605 1.392 . S
C604 H620 0.931 . S
C605 C604 1.392 . S
C605 C606 1.331 . S
C605 H623 0.932 . S
C606 C605 1.331 . S
C606 C607 1.336 . S
C607 C603 1.394 . S
C607 C606 1.336 . S
C607 H622 0.929 . S
C608 C598 1.386 . S
C608 C601 1.357 . S
C608 H621 0.928 . S
H609 C585 0.931 . S
H610 C587 0.930 . S
H611 C589 0.929 . S
H612 C590 0.931 . S
H613 C592 0.930 . S
H614 C596 0.931 . S
H615 C594 0.931 . S
H616 C598 0.931 . S
H617 C599 0.929 . S
H618 C600 0.930 . S
H619 C603 0.930 . S
H620 C604 0.931 . S
H621 C608 0.928 . S
H622 C607 0.929 . S
H623 C605 0.932 . S
C624 C625 1.386 . S
C624 C626 1.397 . S
C624 H648 0.931 . S
C625 C624 1.386 . S
C625 C629 1.397 . S
C626 C624 1.397 . S
C626 C627 1.384 . S
C626 H649 0.930 . S
C627 C626 1.384 . S
C627 C628 1.377 . S
C627 C630 1.481 . S
C628 C627 1.377 . S
C628 C629 1.389 . S
C628 H650 0.929 . S
C629 C625 1.397 . S
C629 C628 1.389 . S
C629 H651 0.931 . S
C630 C627 1.481 . S
C630 C631 1.387 . S
C630 C635 1.390 . S
C631 C630 1.387 . S
C631 C632 1.401 . S
C631 H652 0.930 . S
C632 C631 1.401 . S
C632 C633 1.376 . S
C632 C641 1.511 . S
C633 C632 1.376 . S
C633 C634 1.392 . S
C633 H654 0.931 . S
C634 C633 1.392 . S
C634 C635 1.361 . S
C634 C636 1.500 . S
C635 C630 1.390 . S
C635 C634 1.361 . S
C635 H653 0.931 . S
C636 C634 1.500 . S
C636 C637 1.371 . S
C636 C638 1.365 . S
C637 C636 1.371 . S
C637 C647 1.386 . S
C637 H655 0.931 . S
C638 C636 1.365 . S
C638 C639 1.409 . S
C638 H656 0.929 . S
C639 C638 1.409 . S
C639 C640 1.380 . S
C639 H657 0.930 . S
C640 C639 1.380 . S
C640 C647 1.357 . S
C641 C632 1.511 . S
C641 C642 1.341 . S
C641 C643 1.371 . S
C642 C641 1.341 . S
C642 C646 1.394 . S
C642 H658 0.930 . S
C643 C641 1.371 . S
C643 C644 1.392 . S
C643 H659 0.931 . S
C644 C643 1.392 . S
C644 C645 1.331 . S
C644 H662 0.932 . S
C645 C644 1.331 . S
C645 C646 1.336 . S
C646 C642 1.394 . S
C646 C645 1.336 . S
C646 H661 0.929 . S
C647 C637 1.386 . S
C647 C640 1.357 . S
C647 H660 0.928 . S
H648 C624 0.931 . S
H649 C626 0.930 . S
H650 C628 0.929 . S
H651 C629 0.931 . S
H652 C631 0.930 . S
H653 C635 0.931 . S
H654 C633 0.931 . S
H655 C637 0.931 . S
H656 C638 0.929 . S
H657 C639 0.930 . S
H658 C642 0.930 . S
H659 C643 0.931 . S
H660 C647 0.928 . S
H661 C646 0.929 . S
H662 C644 0.932 . S
C663 C664 1.386 . S
C663 C665 1.397 . S
C663 H687 0.931 . S
C664 C663 1.386 . S
C664 C668 1.397 . S
C665 C663 1.397 . S
C665 C666 1.384 . S
C665 H688 0.930 . S
C666 C665 1.384 . S
C666 C667 1.377 . S
C666 C669 1.481 . S
C667 C666 1.377 . S
C667 C668 1.389 . S
C667 H689 0.929 . S
C668 C664 1.397 . S
C668 C667 1.389 . S
C668 H690 0.931 . S
C669 C666 1.481 . S
C669 C670 1.387 . S
C669 C674 1.390 . S
C670 C669 1.387 . S
C670 C671 1.401 . S
C670 H691 0.930 . S
C671 C670 1.401 . S
C671 C672 1.376 . S
C671 C680 1.511 . S
C672 C671 1.376 . S
C672 C673 1.392 . S
C672 H693 0.931 . S
C673 C672 1.392 . S
C673 C674 1.361 . S
C673 C675 1.500 . S
C674 C669 1.390 . S
C674 C673 1.361 . S
C674 H692 0.931 . S
C675 C673 1.500 . S
C675 C676 1.371 . S
C675 C677 1.365 . S
C676 C675 1.371 . S
C676 C686 1.386 . S
C676 H694 0.931 . S
C677 C675 1.365 . S
C677 C678 1.409 . S
C677 H695 0.929 . S
C678 C677 1.409 . S
C678 C679 1.380 . S
C678 H696 0.930 . S
C679 C678 1.380 . S
C679 C686 1.357 . S
C680 C671 1.511 . S
C680 C681 1.341 . S
C680 C682 1.371 . S
C681 C680 1.341 . S
C681 C685 1.394 . S
C681 H697 0.930 . S
C682 C680 1.371 . S
C682 C683 1.392 . S
C682 H698 0.931 . S
C683 C682 1.392 . S
C683 C684 1.331 . S
C683 H701 0.932 . S
C684 C683 1.331 . S
C684 C685 1.336 . S
C685 C681 1.394 . S
C685 C684 1.336 . S
C685 H700 0.929 . S
C686 C676 1.386 . S
C686 C679 1.357 . S
C686 H699 0.928 . S
H687 C663 0.931 . S
H688 C665 0.930 . S
H689 C667 0.929 . S
H690 C668 0.931 . S
H691 C670 0.930 . S
H692 C674 0.931 . S
H693 C672 0.931 . S
H694 C676 0.931 . S
H695 C677 0.929 . S
H696 C678 0.930 . S
H697 C681 0.930 . S
H698 C682 0.931 . S
H699 C686 0.928 . S
H700 C685 0.929 . S
H701 C683 0.932 . S
C702 C703 1.386 . S
C702 C704 1.397 . S
C702 H726 0.931 . S
C703 C702 1.386 . S
C703 C707 1.397 . S
C704 C702 1.397 . S
C704 C705 1.384 . S
C704 H727 0.930 . S
C705 C704 1.384 . S
C705 C706 1.377 . S
C705 C708 1.481 . S
C706 C705 1.377 . S
C706 C707 1.389 . S
C706 H728 0.929 . S
C707 C703 1.397 . S
C707 C706 1.389 . S
C707 H729 0.931 . S
C708 C705 1.481 . S
C708 C709 1.387 . S
C708 C713 1.390 . S
C709 C708 1.387 . S
C709 C710 1.401 . S
C709 H730 0.930 . S
C710 C709 1.401 . S
C710 C711 1.376 . S
C710 C719 1.511 . S
C711 C710 1.376 . S
C711 C712 1.392 . S
C711 H732 0.931 . S
C712 C711 1.392 . S
C712 C713 1.361 . S
C712 C714 1.500 . S
C713 C708 1.390 . S
C713 C712 1.361 . S
C713 H731 0.931 . S
C714 C712 1.500 . S
C714 C715 1.371 . S
C714 C716 1.365 . S
C715 C714 1.371 . S
C715 C725 1.386 . S
C715 H733 0.931 . S
C716 C714 1.365 . S
C716 C717 1.409 . S
C716 H734 0.929 . S
C717 C716 1.409 . S
C717 C718 1.380 . S
C717 H735 0.930 . S
C718 C717 1.380 . S
C718 C725 1.357 . S
C719 C710 1.511 . S
C719 C720 1.341 . S
C719 C721 1.371 . S
C720 C719 1.341 . S
C720 C724 1.394 . S
C720 H736 0.930 . S
C721 C719 1.371 . S
C721 C722 1.392 . S
C721 H737 0.931 . S
C722 C721 1.392 . S
C722 C723 1.331 . S
C722 H740 0.932 . S
C723 C722 1.331 . S
C723 C724 1.336 . S
C724 C720 1.394 . S
C724 C723 1.336 . S
C724 H739 0.929 . S
C725 C715 1.386 . S
C725 C718 1.357 . S
C725 H738 0.928 . S
H726 C702 0.931 . S
H727 C704 0.930 . S
H728 C706 0.929 . S
H729 C707 0.931 . S
H730 C709 0.930 . S
H731 C713 0.931 . S
H732 C711 0.931 . S
H733 C715 0.931 . S
H734 C716 0.929 . S
H735 C717 0.930 . S
H736 C720 0.930 . S
H737 C721 0.931 . S
H738 C725 0.928 . S
H739 C724 0.929 . S
H740 C722 0.932 . S
C741 C742 1.386 . S
C741 C743 1.397 . S
C741 H765 0.931 . S
C742 C741 1.386 . S
C742 C746 1.397 . S
C743 C741 1.397 . S
C743 C744 1.384 . S
C743 H766 0.930 . S
C744 C743 1.384 . S
C744 C745 1.377 . S
C744 C747 1.481 . S
C745 C744 1.377 . S
C745 C746 1.389 . S
C745 H767 0.929 . S
C746 C742 1.397 . S
C746 C745 1.389 . S
C746 H768 0.931 . S
C747 C744 1.481 . S
C747 C748 1.387 . S
C747 C752 1.390 . S
C748 C747 1.387 . S
C748 C749 1.401 . S
C748 H769 0.930 . S
C749 C748 1.401 . S
C749 C750 1.376 . S
C749 C758 1.511 . S
C750 C749 1.376 . S
C750 C751 1.392 . S
C750 H771 0.931 . S
C751 C750 1.392 . S
C751 C752 1.361 . S
C751 C753 1.500 . S
C752 C747 1.390 . S
C752 C751 1.361 . S
C752 H770 0.931 . S
C753 C751 1.500 . S
C753 C754 1.371 . S
C753 C755 1.365 . S
C754 C753 1.371 . S
C754 C764 1.386 . S
C754 H772 0.931 . S
C755 C753 1.365 . S
C755 C756 1.409 . S
C755 H773 0.929 . S
C756 C755 1.409 . S
C756 C757 1.380 . S
C756 H774 0.930 . S
C757 C756 1.380 . S
C757 C764 1.357 . S
C758 C749 1.511 . S
C758 C759 1.341 . S
C758 C760 1.371 . S
C759 C758 1.341 . S
C759 C763 1.394 . S
C759 H775 0.930 . S
C760 C758 1.371 . S
C760 C761 1.392 . S
C760 H776 0.931 . S
C761 C760 1.392 . S
C761 C762 1.331 . S
C761 H779 0.932 . S
C762 C761 1.331 . S
C762 C763 1.336 . S
C763 C759 1.394 . S
C763 C762 1.336 . S
C763 H778 0.929 . S
C764 C754 1.386 . S
C764 C757 1.357 . S
C764 H777 0.928 . S
H765 C741 0.931 . S
H766 C743 0.930 . S
H767 C745 0.929 . S
H768 C746 0.931 . S
H769 C748 0.930 . S
H770 C752 0.931 . S
H771 C750 0.931 . S
H772 C754 0.931 . S
H773 C755 0.929 . S
H774 C756 0.930 . S
H775 C759 0.930 . S
H776 C760 0.931 . S
H777 C764 0.928 . S
H778 C763 0.929 . S
H779 C761 0.932 . S
C780 C781 1.386 . S
C780 C782 1.397 . S
C780 H804 0.931 . S
C781 C780 1.386 . S
C781 C785 1.397 . S
C782 C780 1.397 . S
C782 C783 1.384 . S
C782 H805 0.930 . S
C783 C782 1.384 . S
C783 C784 1.377 . S
C783 C786 1.481 . S
C784 C783 1.377 . S
C784 C785 1.389 . S
C784 H806 0.929 . S
C785 C781 1.397 . S
C785 C784 1.389 . S
C785 H807 0.931 . S
C786 C783 1.481 . S
C786 C787 1.387 . S
C786 C791 1.390 . S
C787 C786 1.387 . S
C787 C788 1.401 . S
C787 H808 0.930 . S
C788 C787 1.401 . S
C788 C789 1.376 . S
C788 C797 1.511 . S
C789 C788 1.376 . S
C789 C790 1.392 . S
C789 H810 0.931 . S
C790 C789 1.392 . S
C790 C791 1.361 . S
C790 C792 1.500 . S
C791 C786 1.390 . S
C791 C790 1.361 . S
C791 H809 0.931 . S
C792 C790 1.500 . S
C792 C793 1.371 . S
C792 C794 1.365 . S
C793 C792 1.371 . S
C793 C803 1.386 . S
C793 H811 0.931 . S
C794 C792 1.365 . S
C794 C795 1.409 . S
C794 H812 0.929 . S
C795 C794 1.409 . S
C795 C796 1.380 . S
C795 H813 0.930 . S
C796 C795 1.380 . S
C796 C803 1.357 . S
C797 C788 1.511 . S
C797 C798 1.341 . S
C797 C799 1.371 . S
C798 C797 1.341 . S
C798 C802 1.394 . S
C798 H814 0.930 . S
C799 C797 1.371 . S
C799 C800 1.392 . S
C799 H815 0.931 . S
C800 C799 1.392 . S
C800 C801 1.331 . S
C800 H818 0.932 . S
C801 C800 1.331 . S
C801 C802 1.336 . S
C802 C798 1.394 . S
C802 C801 1.336 . S
C802 H817 0.929 . S
C803 C793 1.386 . S
C803 C796 1.357 . S
C803 H816 0.928 . S
H804 C780 0.931 . S
H805 C782 0.930 . S
H806 C784 0.929 . S
H807 C785 0.931 . S
H808 C787 0.930 . S
H809 C791 0.931 . S
H810 C789 0.931 . S
H811 C793 0.931 . S
H812 C794 0.929 . S
H813 C795 0.930 . S
H814 C798 0.930 . S
H815 C799 0.931 . S
H816 C803 0.928 . S
H817 C802 0.929 . S
H818 C800 0.932 . S
C819 C820 1.386 . S
C819 C821 1.397 . S
C819 H843 0.931 . S
C820 C819 1.386 . S
C820 C824 1.397 . S
C821 C819 1.397 . S
C821 C822 1.384 . S
C821 H844 0.930 . S
C822 C821 1.384 . S
C822 C823 1.377 . S
C822 C825 1.481 . S
C823 C822 1.377 . S
C823 C824 1.389 . S
C823 H845 0.929 . S
C824 C820 1.397 . S
C824 C823 1.389 . S
C824 H846 0.931 . S
C825 C822 1.481 . S
C825 C826 1.387 . S
C825 C830 1.390 . S
C826 C825 1.387 . S
C826 C827 1.401 . S
C826 H847 0.930 . S
C827 C826 1.401 . S
C827 C828 1.376 . S
C827 C836 1.511 . S
C828 C827 1.376 . S
C828 C829 1.392 . S
C828 H849 0.931 . S
C829 C828 1.392 . S
C829 C830 1.361 . S
C829 C831 1.500 . S
C830 C825 1.390 . S
C830 C829 1.361 . S
C830 H848 0.931 . S
C831 C829 1.500 . S
C831 C832 1.371 . S
C831 C833 1.365 . S
C832 C831 1.371 . S
C832 C842 1.386 . S
C832 H850 0.931 . S
C833 C831 1.365 . S
C833 C834 1.409 . S
C833 H851 0.929 . S
C834 C833 1.409 . S
C834 C835 1.380 . S
C834 H852 0.930 . S
C835 C834 1.380 . S
C835 C842 1.357 . S
C836 C827 1.511 . S
C836 C837 1.341 . S
C836 C838 1.371 . S
C837 C836 1.341 . S
C837 C841 1.394 . S
C837 H853 0.930 . S
C838 C836 1.371 . S
C838 C839 1.392 . S
C838 H854 0.931 . S
C839 C838 1.392 . S
C839 C840 1.331 . S
C839 H857 0.932 . S
C840 C839 1.331 . S
C840 C841 1.336 . S
C841 C837 1.394 . S
C841 C840 1.336 . S
C841 H856 0.929 . S
C842 C832 1.386 . S
C842 C835 1.357 . S
C842 H855 0.928 . S
H843 C819 0.931 . S
H844 C821 0.930 . S
H845 C823 0.929 . S
H846 C824 0.931 . S
H847 C826 0.930 . S
H848 C830 0.931 . S
H849 C828 0.931 . S
H850 C832 0.931 . S
H851 C833 0.929 . S
H852 C834 0.930 . S
H853 C837 0.930 . S
H854 C838 0.931 . S
H855 C842 0.928 . S
H856 C841 0.929 . S
H857 C839 0.932 . S
C858 C859 1.386 . S
C858 C860 1.397 . S
C858 H882 0.931 . S
C859 C858 1.386 . S
C859 C863 1.397 . S
C860 C858 1.397 . S
C860 C861 1.384 . S
C860 H883 0.930 . S
C861 C860 1.384 . S
C861 C862 1.377 . S
C861 C864 1.481 . S
C862 C861 1.377 . S
C862 C863 1.389 . S
C862 H884 0.929 . S
C863 C859 1.397 . S
C863 C862 1.389 . S
C863 H885 0.931 . S
C864 C861 1.481 . S
C864 C865 1.387 . S
C864 C869 1.390 . S
C865 C864 1.387 . S
C865 C866 1.401 . S
C865 H886 0.930 . S
C866 C865 1.401 . S
C866 C867 1.376 . S
C866 C875 1.511 . S
C867 C866 1.376 . S
C867 C868 1.392 . S
C867 H888 0.931 . S
C868 C867 1.392 . S
C868 C869 1.361 . S
C868 C870 1.500 . S
C869 C864 1.390 . S
C869 C868 1.361 . S
C869 H887 0.931 . S
C870 C868 1.500 . S
C870 C871 1.371 . S
C870 C872 1.365 . S
C871 C870 1.371 . S
C871 C881 1.386 . S
C871 H889 0.931 . S
C872 C870 1.365 . S
C872 C873 1.409 . S
C872 H890 0.929 . S
C873 C872 1.409 . S
C873 C874 1.380 . S
C873 H891 0.930 . S
C874 C873 1.380 . S
C874 C881 1.357 . S
C875 C866 1.511 . S
C875 C876 1.341 . S
C875 C877 1.371 . S
C876 C875 1.341 . S
C876 C880 1.394 . S
C876 H892 0.930 . S
C877 C875 1.371 . S
C877 C878 1.392 . S
C877 H893 0.931 . S
C878 C877 1.392 . S
C878 C879 1.331 . S
C878 H896 0.932 . S
C879 C878 1.331 . S
C879 C880 1.336 . S
C880 C876 1.394 . S
C880 C879 1.336 . S
C880 H895 0.929 . S
C881 C871 1.386 . S
C881 C874 1.357 . S
C881 H894 0.928 . S
H882 C858 0.931 . S
H883 C860 0.930 . S
H884 C862 0.929 . S
H885 C863 0.931 . S
H886 C865 0.930 . S
H887 C869 0.931 . S
H888 C867 0.931 . S
H889 C871 0.931 . S
H890 C872 0.929 . S
H891 C873 0.930 . S
H892 C876 0.930 . S
H893 C877 0.931 . S
H894 C881 0.928 . S
H895 C880 0.929 . S
H896 C878 0.932 . S
C897 C898 1.386 . S
C897 C899 1.397 . S
C897 H921 0.931 . S
C898 C897 1.386 . S
C898 C902 1.397 . S
C899 C897 1.397 . S
C899 C900 1.384 . S
C899 H922 0.930 . S
C900 C899 1.384 . S
C900 C901 1.377 . S
C900 C903 1.481 . S
C901 C900 1.377 . S
C901 C902 1.389 . S
C901 H923 0.929 . S
C902 C898 1.397 . S
C902 C901 1.389 . S
C902 H924 0.931 . S
C903 C900 1.481 . S
C903 C904 1.387 . S
C903 C908 1.390 . S
C904 C903 1.387 . S
C904 C905 1.401 . S
C904 H925 0.930 . S
C905 C904 1.401 . S
C905 C906 1.376 . S
C905 C914 1.511 . S
C906 C905 1.376 . S
C906 C907 1.392 . S
C906 H927 0.931 . S
C907 C906 1.392 . S
C907 C908 1.361 . S
C907 C909 1.500 . S
C908 C903 1.390 . S
C908 C907 1.361 . S
C908 H926 0.931 . S
C909 C907 1.500 . S
C909 C910 1.371 . S
C909 C911 1.365 . S
C910 C909 1.371 . S
C910 C920 1.386 . S
C910 H928 0.931 . S
C911 C909 1.365 . S
C911 C912 1.409 . S
C911 H929 0.929 . S
C912 C911 1.409 . S
C912 C913 1.380 . S
C912 H930 0.930 . S
C913 C912 1.380 . S
C913 C920 1.357 . S
C914 C905 1.511 . S
C914 C915 1.341 . S
C914 C916 1.371 . S
C915 C914 1.341 . S
C915 C919 1.394 . S
C915 H931 0.930 . S
C916 C914 1.371 . S
C916 C917 1.392 . S
C916 H932 0.931 . S
C917 C916 1.392 . S
C917 C918 1.331 . S
C917 H935 0.932 . S
C918 C917 1.331 . S
C918 C919 1.336 . S
C919 C915 1.394 . S
C919 C918 1.336 . S
C919 H934 0.929 . S
C920 C910 1.386 . S
C920 C913 1.357 . S
C920 H933 0.928 . S
H921 C897 0.931 . S
H922 C899 0.930 . S
H923 C901 0.929 . S
H924 C902 0.931 . S
H925 C904 0.930 . S
H926 C908 0.931 . S
H927 C906 0.931 . S
H928 C910 0.931 . S
H929 C911 0.929 . S
H930 C912 0.930 . S
H931 C915 0.930 . S
H932 C916 0.931 . S
H933 C920 0.928 . S
H934 C919 0.929 . S
H935 C917 0.932 . S
C936 C937 1.386 . S
C936 C938 1.397 . S
C936 H960 0.931 . S
C937 C936 1.386 . S
C937 C941 1.397 . S
C938 C936 1.397 . S
C938 C939 1.384 . S
C938 H961 0.930 . S
C939 C938 1.384 . S
C939 C940 1.377 . S
C939 C942 1.481 . S
C940 C939 1.377 . S
C940 C941 1.389 . S
C940 H962 0.929 . S
C941 C937 1.397 . S
C941 C940 1.389 . S
C941 H963 0.931 . S
C942 C939 1.481 . S
C942 C943 1.387 . S
C942 C947 1.390 . S
C943 C942 1.387 . S
C943 C944 1.401 . S
C943 H964 0.930 . S
C944 C943 1.401 . S
C944 C945 1.376 . S
C944 C953 1.511 . S
C945 C944 1.376 . S
C945 C946 1.392 . S
C945 H966 0.931 . S
C946 C945 1.392 . S
C946 C947 1.361 . S
C946 C948 1.500 . S
C947 C942 1.390 . S
C947 C946 1.361 . S
C947 H965 0.931 . S
C948 C946 1.500 . S
C948 C949 1.371 . S
C948 C950 1.365 . S
C949 C948 1.371 . S
C949 C959 1.386 . S
C949 H967 0.931 . S
C950 C948 1.365 . S
C950 C951 1.409 . S
C950 H968 0.929 . S
C951 C950 1.409 . S
C951 C952 1.380 . S
C951 H969 0.930 . S
C952 C951 1.380 . S
C952 C959 1.357 . S
C953 C944 1.511 . S
C953 C954 1.341 . S
C953 C955 1.371 . S
C954 C953 1.341 . S
C954 C958 1.394 . S
C954 H970 0.930 . S
C955 C953 1.371 . S
C955 C956 1.392 . S
C955 H971 0.931 . S
C956 C955 1.392 . S
C956 C957 1.331 . S
C956 H974 0.932 . S
C957 C956 1.331 . S
C957 C958 1.336 . S
C958 C954 1.394 . S
C958 C957 1.336 . S
C958 H973 0.929 . S
C959 C949 1.386 . S
C959 C952 1.357 . S
C959 H972 0.928 . S
H960 C936 0.931 . S
H961 C938 0.930 . S
H962 C940 0.929 . S
H963 C941 0.931 . S
H964 C943 0.930 . S
H965 C947 0.931 . S
H966 C945 0.931 . S
H967 C949 0.931 . S
H968 C950 0.929 . S
H969 C951 0.930 . S
H970 C954 0.930 . S
H971 C955 0.931 . S
H972 C959 0.928 . S
H973 C958 0.929 . S
H974 C956 0.932 . S
C975 C976 1.386 . S
C975 C977 1.397 . S
C975 H999 0.931 . S
C976 C975 1.386 . S
C976 C980 1.397 . S
C977 C975 1.397 . S
C977 C978 1.384 . S
C977 H1000 0.930 . S
C978 C977 1.384 . S
C978 C979 1.377 . S
C978 C981 1.481 . S
C979 C978 1.377 . S
C979 C980 1.389 . S
C979 H1001 0.929 . S
C980 C976 1.397 . S
C980 C979 1.389 . S
C980 H1002 0.931 . S
C981 C978 1.481 . S
C981 C982 1.387 . S
C981 C986 1.390 . S
C982 C981 1.387 . S
C982 C983 1.401 . S
C982 H1003 0.930 . S
C983 C982 1.401 . S
C983 C984 1.376 . S
C983 C992 1.511 . S
C984 C983 1.376 . S
C984 C985 1.392 . S
C984 H1005 0.931 . S
C985 C984 1.392 . S
C985 C986 1.361 . S
C985 C987 1.500 . S
C986 C981 1.390 . S
C986 C985 1.361 . S
C986 H1004 0.931 . S
C987 C985 1.500 . S
C987 C988 1.371 . S
C987 C989 1.365 . S
C988 C987 1.371 . S
C988 C998 1.386 . S
C988 H1006 0.931 . S
C989 C987 1.365 . S
C989 C990 1.409 . S
C989 H1007 0.929 . S
C990 C989 1.409 . S
C990 C991 1.380 . S
C990 H1008 0.930 . S
C991 C990 1.380 . S
C991 C998 1.357 . S
C992 C983 1.511 . S
C992 C993 1.341 . S
C992 C994 1.371 . S
C993 C992 1.341 . S
C993 C997 1.394 . S
C993 H1009 0.930 . S
C994 C992 1.371 . S
C994 C995 1.392 . S
C994 H1010 0.931 . S
C995 C994 1.392 . S
C995 C996 1.331 . S
C995 H1013 0.932 . S
C996 C995 1.331 . S
C996 C997 1.336 . S
C997 C993 1.394 . S
C997 C996 1.336 . S
C997 H1012 0.929 . S
C998 C988 1.386 . S
C998 C991 1.357 . S
C998 H1011 0.928 . S
H999 C975 0.931 . S
H1000 C977 0.930 . S
H1001 C979 0.929 . S
H1002 C980 0.931 . S
H1003 C982 0.930 . S
H1004 C986 0.931 . S
H1005 C984 0.931 . S
H1006 C988 0.931 . S
H1007 C989 0.929 . S
H1008 C990 0.930 . S
H1009 C993 0.930 . S
H1010 C994 0.931 . S
H1011 C998 0.928 . S
H1012 C997 0.929 . S
H1013 C995 0.932 . S
C1014 C1015 1.386 . S
C1014 C1016 1.397 . S
C1014 H1038 0.931 . S
C1015 C1014 1.386 . S
C1015 C1019 1.397 . S
C1016 C1014 1.397 . S
C1016 C1017 1.384 . S
C1016 H1039 0.930 . S
C1017 C1016 1.384 . S
C1017 C1018 1.377 . S
C1017 C1020 1.481 . S
C1018 C1017 1.377 . S
C1018 C1019 1.389 . S
C1018 H1040 0.929 . S
C1019 C1015 1.397 . S
C1019 C1018 1.389 . S
C1019 H1041 0.931 . S
C1020 C1017 1.481 . S
C1020 C1021 1.387 . S
C1020 C1025 1.390 . S
C1021 C1020 1.387 . S
C1021 C1022 1.401 . S
C1021 H1042 0.930 . S
C1022 C1021 1.401 . S
C1022 C1023 1.376 . S
C1022 C1031 1.511 . S
C1023 C1022 1.376 . S
C1023 C1024 1.392 . S
C1023 H1044 0.931 . S
C1024 C1023 1.392 . S
C1024 C1025 1.361 . S
C1024 C1026 1.500 . S
C1025 C1020 1.390 . S
C1025 C1024 1.361 . S
C1025 H1043 0.931 . S
C1026 C1024 1.500 . S
C1026 C1027 1.371 . S
C1026 C1028 1.365 . S
C1027 C1026 1.371 . S
C1027 C1037 1.386 . S
C1027 H1045 0.931 . S
C1028 C1026 1.365 . S
C1028 C1029 1.409 . S
C1028 H1046 0.929 . S
C1029 C1028 1.409 . S
C1029 C1030 1.380 . S
C1029 H1047 0.930 . S
C1030 C1029 1.380 . S
C1030 C1037 1.357 . S
C1031 C1022 1.511 . S
C1031 C1032 1.341 . S
C1031 C1033 1.371 . S
C1032 C1031 1.341 . S
C1032 C1036 1.394 . S
C1032 H1048 0.930 . S
C1033 C1031 1.371 . S
C1033 C1034 1.392 . S
C1033 H1049 0.931 . S
C1034 C1033 1.392 . S
C1034 C1035 1.331 . S
C1034 H1052 0.932 . S
C1035 C1034 1.331 . S
C1035 C1036 1.336 . S
C1036 C1032 1.394 . S
C1036 C1035 1.336 . S
C1036 H1051 0.929 . S
C1037 C1027 1.386 . S
C1037 C1030 1.357 . S
C1037 H1050 0.928 . S
H1038 C1014 0.931 . S
H1039 C1016 0.930 . S
H1040 C1018 0.929 . S
H1041 C1019 0.931 . S
H1042 C1021 0.930 . S
H1043 C1025 0.931 . S
H1044 C1023 0.931 . S
H1045 C1027 0.931 . S
H1046 C1028 0.929 . S
H1047 C1029 0.930 . S
H1048 C1032 0.930 . S
H1049 C1033 0.931 . S
H1050 C1037 0.928 . S
H1051 C1036 0.929 . S
H1052 C1034 0.932 . S
C1053 C1054 1.386 . S
C1053 C1055 1.397 . S
C1053 H1077 0.931 . S
C1054 C1053 1.386 . S
C1054 C1058 1.397 . S
C1055 C1053 1.397 . S
C1055 C1056 1.384 . S
C1055 H1078 0.930 . S
C1056 C1055 1.384 . S
C1056 C1057 1.377 . S
C1056 C1059 1.481 . S
C1057 C1056 1.377 . S
C1057 C1058 1.389 . S
C1057 H1079 0.929 . S
C1058 C1054 1.397 . S
C1058 C1057 1.389 . S
C1058 H1080 0.931 . S
C1059 C1056 1.481 . S
C1059 C1060 1.387 . S
C1059 C1064 1.390 . S
C1060 C1059 1.387 . S
C1060 C1061 1.401 . S
C1060 H1081 0.930 . S
C1061 C1060 1.401 . S
C1061 C1062 1.376 . S
C1061 C1070 1.511 . S
C1062 C1061 1.376 . S
C1062 C1063 1.392 . S
C1062 H1083 0.931 . S
C1063 C1062 1.392 . S
C1063 C1064 1.361 . S
C1063 C1065 1.500 . S
C1064 C1059 1.390 . S
C1064 C1063 1.361 . S
C1064 H1082 0.931 . S
C1065 C1063 1.500 . S
C1065 C1066 1.371 . S
C1065 C1067 1.365 . S
C1066 C1065 1.371 . S
C1066 C1076 1.386 . S
C1066 H1084 0.931 . S
C1067 C1065 1.365 . S
C1067 C1068 1.409 . S
C1067 H1085 0.929 . S
C1068 C1067 1.409 . S
C1068 C1069 1.380 . S
C1068 H1086 0.930 . S
C1069 C1068 1.380 . S
C1069 C1076 1.357 . S
C1070 C1061 1.511 . S
C1070 C1071 1.341 . S
C1070 C1072 1.371 . S
C1071 C1070 1.341 . S
C1071 C1075 1.394 . S
C1071 H1087 0.930 . S
C1072 C1070 1.371 . S
C1072 C1073 1.392 . S
C1072 H1088 0.931 . S
C1073 C1072 1.392 . S
C1073 C1074 1.331 . S
C1073 H1091 0.932 . S
C1074 C1073 1.331 . S
C1074 C1075 1.336 . S
C1075 C1071 1.394 . S
C1075 C1074 1.336 . S
C1075 H1090 0.929 . S
C1076 C1066 1.386 . S
C1076 C1069 1.357 . S
C1076 H1089 0.928 . S
H1077 C1053 0.931 . S
H1078 C1055 0.930 . S
H1079 C1057 0.929 . S
H1080 C1058 0.931 . S
H1081 C1060 0.930 . S
H1082 C1064 0.931 . S
H1083 C1062 0.931 . S
H1084 C1066 0.931 . S
H1085 C1067 0.929 . S
H1086 C1068 0.930 . S
H1087 C1071 0.930 . S
H1088 C1072 0.931 . S
H1089 C1076 0.928 . S
H1090 C1075 0.929 . S
H1091 C1073 0.932 . S
C1092 C1093 1.386 . S
C1092 C1094 1.397 . S
C1092 H1116 0.931 . S
C1093 C1092 1.386 . S
C1093 C1097 1.397 . S
C1094 C1092 1.397 . S
C1094 C1095 1.384 . S
C1094 H1117 0.930 . S
C1095 C1094 1.384 . S
C1095 C1096 1.377 . S
C1095 C1098 1.481 . S
C1096 C1095 1.377 . S
C1096 C1097 1.389 . S
C1096 H1118 0.929 . S
C1097 C1093 1.397 . S
C1097 C1096 1.389 . S
C1097 H1119 0.931 . S
C1098 C1095 1.481 . S
C1098 C1099 1.387 . S
C1098 C1103 1.390 . S
C1099 C1098 1.387 . S
C1099 C1100 1.401 . S
C1099 H1120 0.930 . S
C1100 C1099 1.401 . S
C1100 C1101 1.376 . S
C1100 C1109 1.511 . S
C1101 C1100 1.376 . S
C1101 C1102 1.392 . S
C1101 H1122 0.931 . S
C1102 C1101 1.392 . S
C1102 C1103 1.361 . S
C1102 C1104 1.500 . S
C1103 C1098 1.390 . S
C1103 C1102 1.361 . S
C1103 H1121 0.931 . S
C1104 C1102 1.500 . S
C1104 C1105 1.371 . S
C1104 C1106 1.365 . S
C1105 C1104 1.371 . S
C1105 C1115 1.386 . S
C1105 H1123 0.931 . S
C1106 C1104 1.365 . S
C1106 C1107 1.409 . S
C1106 H1124 0.929 . S
C1107 C1106 1.409 . S
C1107 C1108 1.380 . S
C1107 H1125 0.930 . S
C1108 C1107 1.380 . S
C1108 C1115 1.357 . S
C1109 C1100 1.511 . S
C1109 C1110 1.341 . S
C1109 C1111 1.371 . S
C1110 C1109 1.341 . S
C1110 C1114 1.394 . S
C1110 H1126 0.930 . S
C1111 C1109 1.371 . S
C1111 C1112 1.392 . S
C1111 H1127 0.931 . S
C1112 C1111 1.392 . S
C1112 C1113 1.331 . S
C1112 H1130 0.932 . S
C1113 C1112 1.331 . S
C1113 C1114 1.336 . S
C1114 C1110 1.394 . S
C1114 C1113 1.336 . S
C1114 H1129 0.929 . S
C1115 C1105 1.386 . S
C1115 C1108 1.357 . S
C1115 H1128 0.928 . S
H1116 C1092 0.931 . S
H1117 C1094 0.930 . S
H1118 C1096 0.929 . S
H1119 C1097 0.931 . S
H1120 C1099 0.930 . S
H1121 C1103 0.931 . S
H1122 C1101 0.931 . S
H1123 C1105 0.931 . S
H1124 C1106 0.929 . S
H1125 C1107 0.930 . S
H1126 C1110 0.930 . S
H1127 C1111 0.931 . S
H1128 C1115 0.928 . S
H1129 C1114 0.929 . S
H1130 C1112 0.932 . S
C1131 C1132 1.386 . S
C1131 C1133 1.397 . S
C1131 H1155 0.931 . S
C1132 C1131 1.386 . S
C1132 C1136 1.397 . S
C1133 C1131 1.397 . S
C1133 C1134 1.384 . S
C1133 H1156 0.930 . S
C1134 C1133 1.384 . S
C1134 C1135 1.377 . S
C1134 C1137 1.481 . S
C1135 C1134 1.377 . S
C1135 C1136 1.389 . S
C1135 H1157 0.929 . S
C1136 C1132 1.397 . S
C1136 C1135 1.389 . S
C1136 H1158 0.931 . S
C1137 C1134 1.481 . S
C1137 C1138 1.387 . S
C1137 C1142 1.390 . S
C1138 C1137 1.387 . S
C1138 C1139 1.401 . S
C1138 H1159 0.930 . S
C1139 C1138 1.401 . S
C1139 C1140 1.376 . S
C1139 C1148 1.511 . S
C1140 C1139 1.376 . S
C1140 C1141 1.392 . S
C1140 H1161 0.931 . S
C1141 C1140 1.392 . S
C1141 C1142 1.361 . S
C1141 C1143 1.500 . S
C1142 C1137 1.390 . S
C1142 C1141 1.361 . S
C1142 H1160 0.931 . S
C1143 C1141 1.500 . S
C1143 C1144 1.371 . S
C1143 C1145 1.365 . S
C1144 C1143 1.371 . S
C1144 C1154 1.386 . S
C1144 H1162 0.931 . S
C1145 C1143 1.365 . S
C1145 C1146 1.409 . S
C1145 H1163 0.929 . S
C1146 C1145 1.409 . S
C1146 C1147 1.380 . S
C1146 H1164 0.930 . S
C1147 C1146 1.380 . S
C1147 C1154 1.357 . S
C1148 C1139 1.511 . S
C1148 C1149 1.341 . S
C1148 C1150 1.371 . S
C1149 C1148 1.341 . S
C1149 C1153 1.394 . S
C1149 H1165 0.930 . S
C1150 C1148 1.371 . S
C1150 C1151 1.392 . S
C1150 H1166 0.931 . S
C1151 C1150 1.392 . S
C1151 C1152 1.331 . S
C1151 H1169 0.932 . S
C1152 C1151 1.331 . S
C1152 C1153 1.336 . S
C1153 C1149 1.394 . S
C1153 C1152 1.336 . S
C1153 H1168 0.929 . S
C1154 C1144 1.386 . S
C1154 C1147 1.357 . S
C1154 H1167 0.928 . S
H1155 C1131 0.931 . S
H1156 C1133 0.930 . S
H1157 C1135 0.929 . S
H1158 C1136 0.931 . S
H1159 C1138 0.930 . S
H1160 C1142 0.931 . S
H1161 C1140 0.931 . S
H1162 C1144 0.931 . S
H1163 C1145 0.929 . S
H1164 C1146 0.930 . S
H1165 C1149 0.930 . S
H1166 C1150 0.931 . S
H1167 C1154 0.928 . S
H1168 C1153 0.929 . S
H1169 C1151 0.932 . S
C1170 C1171 1.386 . S
C1170 C1172 1.397 . S
C1170 H1194 0.931 . S
C1171 C1170 1.386 . S
C1171 C1175 1.397 . S
C1172 C1170 1.397 . S
C1172 C1173 1.384 . S
C1172 H1195 0.930 . S
C1173 C1172 1.384 . S
C1173 C1174 1.377 . S
C1173 C1176 1.481 . S
C1174 C1173 1.377 . S
C1174 C1175 1.389 . S
C1174 H1196 0.929 . S
C1175 C1171 1.397 . S
C1175 C1174 1.389 . S
C1175 H1197 0.931 . S
C1176 C1173 1.481 . S
C1176 C1177 1.387 . S
C1176 C1181 1.390 . S
C1177 C1176 1.387 . S
C1177 C1178 1.401 . S
C1177 H1198 0.930 . S
C1178 C1177 1.401 . S
C1178 C1179 1.376 . S
C1178 C1187 1.511 . S
C1179 C1178 1.376 . S
C1179 C1180 1.392 . S
C1179 H1200 0.931 . S
C1180 C1179 1.392 . S
C1180 C1181 1.361 . S
C1180 C1182 1.500 . S
C1181 C1176 1.390 . S
C1181 C1180 1.361 . S
C1181 H1199 0.931 . S
C1182 C1180 1.500 . S
C1182 C1183 1.371 . S
C1182 C1184 1.365 . S
C1183 C1182 1.371 . S
C1183 C1193 1.386 . S
C1183 H1201 0.931 . S
C1184 C1182 1.365 . S
C1184 C1185 1.409 . S
C1184 H1202 0.929 . S
C1185 C1184 1.409 . S
C1185 C1186 1.380 . S
C1185 H1203 0.930 . S
C1186 C1185 1.380 . S
C1186 C1193 1.357 . S
C1187 C1178 1.511 . S
C1187 C1188 1.341 . S
C1187 C1189 1.371 . S
C1188 C1187 1.341 . S
C1188 C1192 1.394 . S
C1188 H1204 0.930 . S
C1189 C1187 1.371 . S
C1189 C1190 1.392 . S
C1189 H1205 0.931 . S
C1190 C1189 1.392 . S
C1190 C1191 1.331 . S
C1190 H1208 0.932 . S
C1191 C1190 1.331 . S
C1191 C1192 1.336 . S
C1192 C1188 1.394 . S
C1192 C1191 1.336 . S
C1192 H1207 0.929 . S
C1193 C1183 1.386 . S
C1193 C1186 1.357 . S
C1193 H1206 0.928 . S
H1194 C1170 0.931 . S
H1195 C1172 0.930 . S
H1196 C1174 0.929 . S
H1197 C1175 0.931 . S
H1198 C1177 0.930 . S
H1199 C1181 0.931 . S
H1200 C1179 0.931 . S
H1201 C1183 0.931 . S
H1202 C1184 0.929 . S
H1203 C1185 0.930 . S
H1204 C1188 0.930 . S
H1205 C1189 0.931 . S
H1206 C1193 0.928 . S
H1207 C1192 0.929 . S
H1208 C1190 0.932 . S
C1209 C1210 1.386 . S
C1209 C1211 1.397 . S
C1209 H1233 0.931 . S
C1210 C1209 1.386 . S
C1210 C1214 1.397 . S
C1211 C1209 1.397 . S
C1211 C1212 1.384 . S
C1211 H1234 0.930 . S
C1212 C1211 1.384 . S
C1212 C1213 1.377 . S
C1212 C1215 1.481 . S
C1213 C1212 1.377 . S
C1213 C1214 1.389 . S
C1213 H1235 0.929 . S
C1214 C1210 1.397 . S
C1214 C1213 1.389 . S
C1214 H1236 0.931 . S
C1215 C1212 1.481 . S
C1215 C1216 1.387 . S
C1215 C1220 1.390 . S
C1216 C1215 1.387 . S
C1216 C1217 1.401 . S
C1216 H1237 0.930 . S
C1217 C1216 1.401 . S
C1217 C1218 1.376 . S
C1217 C1226 1.511 . S
C1218 C1217 1.376 . S
C1218 C1219 1.392 . S
C1218 H1239 0.931 . S
C1219 C1218 1.392 . S
C1219 C1220 1.361 . S
C1219 C1221 1.500 . S
C1220 C1215 1.390 . S
C1220 C1219 1.361 . S
C1220 H1238 0.931 . S
C1221 C1219 1.500 . S
C1221 C1222 1.371 . S
C1221 C1223 1.365 . S
C1222 C1221 1.371 . S
C1222 C1232 1.386 . S
C1222 H1240 0.931 . S
C1223 C1221 1.365 . S
C1223 C1224 1.409 . S
C1223 H1241 0.929 . S
C1224 C1223 1.409 . S
C1224 C1225 1.380 . S
C1224 H1242 0.930 . S
C1225 C1224 1.380 . S
C1225 C1232 1.357 . S
C1226 C1217 1.511 . S
C1226 C1227 1.341 . S
C1226 C1228 1.371 . S
C1227 C1226 1.341 . S
C1227 C1231 1.394 . S
C1227 H1243 0.930 . S
C1228 C1226 1.371 . S
C1228 C1229 1.392 . S
C1228 H1244 0.931 . S
C1229 C1228 1.392 . S
C1229 C1230 1.331 . S
C1229 H1247 0.932 . S
C1230 C1229 1.331 . S
C1230 C1231 1.336 . S
C1231 C1227 1.394 . S
C1231 C1230 1.336 . S
C1231 H1246 0.929 . S
C1232 C1222 1.386 . S
C1232 C1225 1.357 . S
C1232 H1245 0.928 . S
H1233 C1209 0.931 . S
H1234 C1211 0.930 . S
H1235 C1213 0.929 . S
H1236 C1214 0.931 . S
H1237 C1216 0.930 . S
H1238 C1220 0.931 . S
H1239 C1218 0.931 . S
H1240 C1222 0.931 . S
H1241 C1223 0.929 . S
H1242 C1224 0.930 . S
H1243 C1227 0.930 . S
H1244 C1228 0.931 . S
H1245 C1232 0.928 . S
H1246 C1231 0.929 . S
H1247 C1229 0.932 . S
Cu1248 N1249 1.999 . S
Cu1248 O1254 1.974 1_554 S
Cu1248 N1259 1.985 . S
Cu1248 O1268 1.959 . S
N1249 Cu1248 1.999 . S
N1249 C1251 1.263 1_554 S
N1249 C1253 1.389 . S
N1250 C1251 1.358 . S
N1250 C1252 1.400 . S
C1251 N1249 1.263 1_556 S
C1251 N1250 1.358 . S
C1251 H1257 0.930 . S
C1252 N1250 1.400 . S
C1252 C1253 1.351 1_556 S
C1252 H1269 0.930 . S
C1253 N1249 1.389 . S
C1253 C1252 1.351 1_554 S
C1253 H1258 0.930 . S
O1254 Cu1248 1.974 1_556 S
O1254 C1264 1.282 . S
C1255 O1256 1.261 . S
C1255 O1268 1.251 . S
O1256 C1255 1.261 . S
H1257 C1251 0.930 . S
H1258 C1253 0.930 . S
N1259 Cu1248 1.985 . S
N1259 C1261 1.335 . S
N1259 C1262 1.390 . S
N1260 C1261 1.345 . S
N1260 C1263 1.336 . S
C1261 N1259 1.335 . S
C1261 N1260 1.345 . S
C1261 H1266 0.930 . S
C1262 N1259 1.390 . S
C1262 C1263 1.346 . S
C1262 H1267 0.930 . S
C1263 N1260 1.336 . S
C1263 C1262 1.346 . S
C1263 H1270 0.929 . S
C1264 O1254 1.282 . S
C1264 O1265 1.216 . S
O1265 C1264 1.216 . S
H1266 C1261 0.930 . S
H1267 C1262 0.930 . S
O1268 Cu1248 1.959 . S
O1268 C1255 1.251 . S
H1269 C1252 0.930 . S
H1270 C1263 0.929 . S
Cu1271 N1272 1.999 . S
Cu1271 O1277 1.974 . S
Cu1271 N1282 1.985 1_554 S
Cu1271 O1291 1.959 1_554 S
N1272 Cu1271 1.999 . S
N1272 C1274 1.263 . S
N1272 C1276 1.389 . S
N1273 C1274 1.358 . S
N1273 C1275 1.400 . S
C1274 N1272 1.263 . S
C1274 N1273 1.358 . S
C1274 H1280 0.930 . S
C1275 N1273 1.400 . S
C1275 C1276 1.351 . S
C1275 H1292 0.930 . S
C1276 N1272 1.389 . S
C1276 C1275 1.351 . S
C1276 H1281 0.930 . S
O1277 Cu1271 1.974 . S
O1277 C1287 1.282 . S
C1278 O1279 1.261 . S
C1278 O1291 1.251 . S
O1279 C1278 1.261 . S
H1280 C1274 0.930 . S
H1281 C1276 0.930 . S
N1282 Cu1271 1.985 1_556 S
N1282 C1284 1.335 . S
N1282 C1285 1.390 . S
N1283 C1284 1.345 . S
N1283 C1286 1.336 . S
C1284 N1282 1.335 . S
C1284 N1283 1.345 . S
C1284 H1289 0.930 . S
C1285 N1282 1.390 . S
C1285 C1286 1.346 . S
C1285 H1290 0.930 1_556 S
C1286 N1283 1.336 . S
C1286 C1285 1.346 . S
C1286 H1293 0.929 . S
C1287 O1277 1.282 . S
C1287 O1288 1.216 . S
O1288 C1287 1.216 . S
H1289 C1284 0.930 . S
H1290 C1285 0.930 1_554 S
O1291 Cu1271 1.959 1_556 S
O1291 C1278 1.251 . S
H1292 C1275 0.930 . S
H1293 C1286 0.929 . S
Cu1294 N1295 1.963 1_554 S
Cu1294 O1300 1.929 1_554 S
Cu1294 N1305 2.021 . S
Cu1294 O1314 2.004 . S
N1295 Cu1294 1.963 1_556 S
N1295 C1297 1.263 . S
N1295 C1299 1.389 . S
N1296 C1297 1.358 . S
N1296 C1298 1.400 . S
C1297 N1295 1.263 . S
C1297 N1296 1.358 . S
C1297 H1303 0.930 . S
C1298 N1296 1.400 . S
C1298 C1299 1.351 . S
C1298 H1315 0.930 . S
C1299 N1295 1.389 . S
C1299 C1298 1.351 . S
C1299 H1304 0.930 . S
O1300 Cu1294 1.929 1_556 S
O1300 C1310 1.282 . S
C1301 O1302 1.261 . S
C1301 O1314 1.251 . S
O1302 C1301 1.261 . S
H1303 C1297 0.930 . S
H1304 C1299 0.930 . S
N1305 Cu1294 2.021 . S
N1305 C1307 1.335 . S
N1305 C1308 1.390 . S
N1306 C1307 1.345 . S
N1306 C1309 1.336 . S
C1307 N1305 1.335 . S
C1307 N1306 1.345 . S
C1307 H1312 0.930 . S
C1308 N1305 1.390 . S
C1308 C1309 1.346 . S
C1308 H1313 0.951 . S
C1309 N1306 1.336 . S
C1309 C1308 1.346 . S
C1309 H1316 0.929 . S
C1310 O1300 1.282 . S
C1310 O1311 1.216 . S
O1311 C1310 1.216 . S
H1312 C1307 0.930 . S
H1313 C1308 0.951 . S
O1314 Cu1294 2.004 . S
O1314 C1301 1.251 . S
H1315 C1298 0.930 . S
H1316 C1309 0.929 . S
Cu1317 N1318 2.041 . S
Cu1317 O1323 2.023 . S
Cu1317 N1328 1.946 1_554 S
Cu1317 O1337 1.912 1_554 S
N1318 Cu1317 2.041 . S
N1318 C1320 1.263 . S
N1318 C1322 1.389 . S
N1319 C1320 1.358 . S
N1319 C1321 1.400 . S
C1320 N1318 1.263 . S
C1320 N1319 1.358 . S
C1320 H1326 0.930 . S
C1321 N1319 1.400 . S
C1321 C1322 1.351 . S
C1321 H1338 0.930 . S
C1322 N1318 1.389 . S
C1322 C1321 1.351 . S
C1322 H1327 0.930 . S
O1323 Cu1317 2.023 . S
O1323 C1333 1.282 . S
C1324 O1325 1.261 . S
C1324 O1337 1.251 . S
O1325 C1324 1.261 . S
H1326 C1320 0.930 . S
H1327 C1322 0.930 . S
N1328 Cu1317 1.946 1_556 S
N1328 C1330 1.335 . S
N1328 C1331 1.390 . S
N1329 C1330 1.345 . S
N1329 C1332 1.336 . S
C1330 N1328 1.335 . S
C1330 N1329 1.345 . S
C1330 H1335 0.930 . S
C1331 N1328 1.390 . S
C1331 C1332 1.346 . S
C1331 H1336 0.876 1_556 S
C1332 N1329 1.336 . S
C1332 C1331 1.346 . S
C1332 H1339 0.929 . S
C1333 O1323 1.282 . S
C1333 O1334 1.216 . S
O1334 C1333 1.216 . S
H1335 C1330 0.930 . S
H1336 C1331 0.876 1_554 S
O1337 Cu1317 1.912 1_556 S
O1337 C1324 1.251 . S
H1338 C1321 0.930 . S
H1339 C1332 0.929 . S
Cu1340 N1341 1.999 . S
Cu1340 O1346 1.974 . S
Cu1340 N1351 1.985 1_455 S
Cu1340 O1360 1.959 1_455 S
N1341 Cu1340 1.999 . S
N1341 C1343 1.263 . S
N1341 C1345 1.389 . S
N1342 C1343 1.358 . S
N1342 C1344 1.400 . S
C1343 N1341 1.263 . S
C1343 N1342 1.358 . S
C1343 H1349 0.930 . S
C1344 N1342 1.400 . S
C1344 C1345 1.351 . S
C1344 H1361 0.930 . S
C1345 N1341 1.389 . S
C1345 C1344 1.351 . S
C1345 H1350 0.930 . S
O1346 Cu1340 1.974 . S
O1346 C1356 1.282 . S
C1347 O1348 1.261 . S
C1347 O1360 1.251 . S
O1348 C1347 1.261 . S
H1349 C1343 0.930 . S
H1350 C1345 0.930 . S
N1351 Cu1340 1.985 1_655 S
N1351 C1353 1.335 . S
N1351 C1354 1.385 1_655 S
N1352 C1353 1.345 . S
N1352 C1355 1.336 . S
C1353 N1351 1.335 . S
C1353 N1352 1.345 . S
C1353 H1358 0.930 . S
C1354 N1351 1.385 1_455 S
C1354 C1355 1.324 1_455 S
C1354 H1359 0.953 . S
C1355 N1352 1.336 . S
C1355 C1354 1.324 1_655 S
C1355 H1362 0.929 . S
C1356 O1346 1.282 . S
C1356 O1357 1.216 . S
O1357 C1356 1.216 . S
H1358 C1353 0.930 . S
H1359 C1354 0.953 . S
O1360 Cu1340 1.959 1_655 S
O1360 C1347 1.251 . S
H1361 C1344 0.930 . S
H1362 C1355 0.929 . S
Cu1363 N1364 1.999 . S
Cu1363 O1369 1.974 . S
Cu1363 N1374 1.985 1_545 S
Cu1363 O1383 1.959 1_545 S
N1364 Cu1363 1.999 . S
N1364 C1366 1.263 . S
N1364 C1368 1.389 . S
N1365 C1366 1.358 . S
N1365 C1367 1.400 . S
C1366 N1364 1.263 . S
C1366 N1365 1.358 . S
C1366 H1372 0.930 . S
C1367 N1365 1.400 . S
C1367 C1368 1.351 . S
C1367 H1384 0.930 . S
C1368 N1364 1.389 . S
C1368 C1367 1.351 . S
C1368 H1373 0.930 . S
O1369 Cu1363 1.974 . S
O1369 C1379 1.282 . S
C1370 O1371 1.261 . S
C1370 O1383 1.251 . S
O1371 C1370 1.261 . S
H1372 C1366 0.930 . S
H1373 C1368 0.930 . S
N1374 Cu1363 1.985 1_565 S
N1374 C1376 1.335 . S
N1374 C1377 1.390 . S
N1375 C1376 1.345 . S
N1375 C1378 1.336 . S
C1376 N1374 1.335 . S
C1376 N1375 1.345 . S
C1376 H1381 0.930 . S
C1377 N1374 1.390 . S
C1377 C1378 1.346 . S
C1377 H1382 0.930 1_565 S
C1378 N1375 1.336 . S
C1378 C1377 1.346 . S
C1378 H1385 0.929 . S
C1379 O1369 1.282 . S
C1379 O1380 1.216 . S
O1380 C1379 1.216 . S
H1381 C1376 0.930 . S
H1382 C1377 0.930 1_545 S
O1383 Cu1363 1.959 1_565 S
O1383 C1370 1.251 . S
H1384 C1367 0.930 . S
H1385 C1378 0.929 . S
Cu1386 N1387 1.994 . S
Cu1386 O1392 1.968 . S
Cu1386 N1397 1.990 1_655 S
Cu1386 O1406 1.965 1_655 S
N1387 Cu1386 1.994 . S
N1387 C1389 1.263 . S
N1387 C1391 1.389 . S
N1388 C1389 1.358 . S
N1388 C1390 1.400 . S
C1389 N1387 1.263 . S
C1389 N1388 1.358 . S
C1389 H1395 0.930 . S
C1390 N1388 1.400 . S
C1390 C1391 1.351 . S
C1390 H1407 0.930 . S
C1391 N1387 1.389 . S
C1391 C1390 1.351 . S
C1391 H1396 0.930 . S
O1392 Cu1386 1.968 . S
O1392 C1402 1.282 . S
C1393 O1394 1.261 . S
C1393 O1406 1.251 . S
O1394 C1393 1.261 . S
H1395 C1389 0.930 . S
H1396 C1391 0.930 . S
N1397 Cu1386 1.990 1_455 S
N1397 C1399 1.335 . S
N1397 C1400 1.390 . S
N1398 C1399 1.345 . S
N1398 C1401 1.336 . S
C1399 N1397 1.335 . S
C1399 N1398 1.345 . S
C1399 H1404 0.930 . S
C1400 N1397 1.390 . S
C1400 C1401 1.346 . S
C1400 H1405 0.930 . S
C1401 N1398 1.336 . S
C1401 C1400 1.346 . S
C1401 H1408 0.929 . S
C1402 O1392 1.282 . S
C1402 O1403 1.216 . S
O1403 C1402 1.216 . S
H1404 C1399 0.930 . S
H1405 C1400 0.930 . S
O1406 Cu1386 1.965 1_455 S
O1406 C1393 1.251 . S
H1407 C1390 0.930 . S
H1408 C1401 0.929 . S
Cu1409 N1410 1.984 1_565 S
Cu1409 O1415 1.954 1_565 S
Cu1409 N1420 2.000 . S
Cu1409 O1429 1.978 . S
N1410 Cu1409 1.984 1_545 S
N1410 C1412 1.263 . S
N1410 C1414 1.389 . S
N1411 C1412 1.358 . S
N1411 C1413 1.400 . S
C1412 N1410 1.263 . S
C1412 N1411 1.358 . S
C1412 H1418 0.930 . S
C1413 N1411 1.400 . S
C1413 C1414 1.351 . S
C1413 H1430 0.930 . S
C1414 N1410 1.389 . S
C1414 C1413 1.351 . S
C1414 H1419 0.930 . S
O1415 Cu1409 1.954 1_545 S
O1415 C1425 1.282 . S
C1416 O1417 1.261 . S
C1416 O1429 1.251 . S
O1417 C1416 1.261 . S
H1418 C1412 0.930 . S
H1419 C1414 0.930 . S
N1420 Cu1409 2.000 . S
N1420 C1422 1.335 . S
N1420 C1423 1.390 . S
N1421 C1422 1.345 . S
N1421 C1424 1.336 . S
C1422 N1420 1.335 . S
C1422 N1421 1.345 . S
C1422 H1427 0.930 . S
C1423 N1420 1.390 . S
C1423 C1424 1.346 . S
C1423 H1428 0.930 . S
C1424 N1421 1.336 . S
C1424 C1423 1.346 . S
C1424 H1431 0.929 . S
C1425 O1415 1.282 . S
C1425 O1426 1.216 . S
O1426 C1425 1.216 . S
H1427 C1422 0.930 . S
H1428 C1423 0.930 . S
O1429 Cu1409 1.978 . S
O1429 C1416 1.251 . S
H1430 C1413 0.930 . S
H1431 C1424 0.929 . S
Cu1432 N1433 1.999 . S
Cu1432 O1438 1.974 . S
Cu1432 N1443 1.985 1_455 S
Cu1432 O1452 1.959 1_455 S
N1433 Cu1432 1.999 . S
N1433 C1435 1.263 . S
N1433 C1437 1.389 . S
N1434 C1435 1.358 . S
N1434 C1436 1.400 . S
C1435 N1433 1.263 . S
C1435 N1434 1.358 . S
C1435 H1441 0.930 . S
C1436 N1434 1.400 . S
C1436 C1437 1.351 . S
C1436 H1453 0.930 . S
C1437 N1433 1.389 . S
C1437 C1436 1.351 . S
C1437 H1442 0.930 . S
O1438 Cu1432 1.974 . S
O1438 C1448 1.282 . S
C1439 O1440 1.261 . S
C1439 O1452 1.251 . S
O1440 C1439 1.261 . S
H1441 C1435 0.930 . S
H1442 C1437 0.930 . S
N1443 Cu1432 1.985 1_655 S
N1443 C1445 1.335 . S
N1443 C1446 1.393 . S
N1444 C1445 1.345 . S
N1444 C1447 1.336 . S
C1445 N1443 1.335 . S
C1445 N1444 1.345 . S
C1445 H1450 0.930 . S
C1446 N1443 1.393 . S
C1446 C1447 1.359 . S
C1446 H1451 0.917 1_655 S
C1447 N1444 1.336 . S
C1447 C1446 1.359 . S
C1447 H1454 0.929 . S
C1448 O1438 1.282 . S
C1448 O1449 1.216 . S
O1449 C1448 1.216 . S
H1450 C1445 0.930 . S
H1451 C1446 0.917 1_455 S
O1452 Cu1432 1.959 1_655 S
O1452 C1439 1.251 . S
H1453 C1436 0.930 . S
H1454 C1447 0.929 . S
Cu1455 N1456 1.999 . S
Cu1455 O1461 1.974 . S
Cu1455 N1466 1.985 1_545 S
Cu1455 O1475 1.959 1_545 S
N1456 Cu1455 1.999 . S
N1456 C1458 1.263 . S
N1456 C1460 1.389 . S
N1457 C1458 1.358 . S
N1457 C1459 1.400 . S
C1458 N1456 1.263 . S
C1458 N1457 1.358 . S
C1458 H1464 0.930 . S
C1459 N1457 1.400 . S
C1459 C1460 1.351 . S
C1459 H1476 0.930 . S
C1460 N1456 1.389 . S
C1460 C1459 1.351 . S
C1460 H1465 0.930 . S
O1461 Cu1455 1.974 . S
O1461 C1471 1.282 . S
C1462 O1463 1.261 . S
C1462 O1475 1.251 . S
O1463 C1462 1.261 . S
H1464 C1458 0.930 . S
H1465 C1460 0.930 . S
N1466 Cu1455 1.985 1_565 S
N1466 C1468 1.335 . S
N1466 C1469 1.379 1_565 S
N1467 C1468 1.345 . S
N1467 C1470 1.336 . S
C1468 N1466 1.335 . S
C1468 N1467 1.345 . S
C1468 H1473 0.930 . S
C1469 N1466 1.379 1_545 S
C1469 C1470 1.284 1_545 S
C1469 H1474 0.995 . S
C1470 N1467 1.336 . S
C1470 C1469 1.284 1_565 S
C1470 H1477 0.929 . S
C1471 O1461 1.282 . S
C1471 O1472 1.216 . S
O1472 C1471 1.216 . S
H1473 C1468 0.930 . S
H1474 C1469 0.995 . S
O1475 Cu1455 1.959 1_565 S
O1475 C1462 1.251 . S
H1476 C1459 0.930 . S
H1477 C1470 0.929 . S
Cu1478 N1479 1.999 . S
Cu1478 O1484 1.974 . S
Cu1478 N1489 1.985 . S
Cu1478 O1498 1.959 . S
N1479 Cu1478 1.999 . S
N1479 C1481 1.263 1_455 S
N1479 C1483 1.389 . S
N1480 C1481 1.358 . S
N1480 C1482 1.400 . S
C1481 N1479 1.263 1_655 S
C1481 N1480 1.358 . S
C1481 H1487 0.930 . S
C1482 N1480 1.400 . S
C1482 C1483 1.351 1_655 S
C1482 H1499 0.930 . S
C1483 N1479 1.389 . S
C1483 C1482 1.351 1_455 S
C1483 H1488 0.930 . S
O1484 Cu1478 1.974 . S
O1484 C1494 1.282 1_455 S
C1485 O1486 1.261 . S
C1485 O1498 1.251 . S
O1486 C1485 1.261 . S
H1487 C1481 0.930 . S
H1488 C1483 0.930 . S
N1489 Cu1478 1.985 . S
N1489 C1491 1.335 . S
N1489 C1492 1.390 . S
N1490 C1491 1.345 . S
N1490 C1493 1.336 . S
C1491 N1489 1.335 . S
C1491 N1490 1.345 . S
C1491 H1496 0.930 . S
C1492 N1489 1.390 . S
C1492 C1493 1.346 . S
C1492 H1497 0.930 . S
C1493 N1490 1.336 . S
C1493 C1492 1.346 . S
C1493 H1500 0.929 . S
C1494 O1484 1.282 1_655 S
C1494 O1495 1.216 1_655 S
O1495 C1494 1.216 1_455 S
H1496 C1491 0.930 . S
H1497 C1492 0.930 . S
O1498 Cu1478 1.959 . S
O1498 C1485 1.251 . S
H1499 C1482 0.930 . S
H1500 C1493 0.929 . S
Cu1501 N1502 1.999 . S
Cu1501 O1507 1.974 . S
Cu1501 N1512 2.020 . S
Cu1501 O1521 1.959 1_545 S
N1502 Cu1501 1.999 . S
N1502 C1504 1.263 . S
N1502 C1506 1.389 . S
N1503 C1504 1.358 . S
N1503 C1505 1.400 . S
C1504 N1502 1.263 . S
C1504 N1503 1.358 . S
C1504 H1510 0.930 . S
C1505 N1503 1.400 . S
C1505 C1506 1.351 . S
C1505 H1522 0.930 . S
C1506 N1502 1.389 . S
C1506 C1505 1.351 . S
C1506 H1511 0.930 . S
O1507 Cu1501 1.974 . S
O1507 C1517 1.282 . S
C1508 O1509 1.239 1_565 S
C1508 O1521 1.251 . S
O1509 C1508 1.239 1_545 S
H1510 C1504 0.930 . S
H1511 C1506 0.930 . S
N1512 Cu1501 2.020 . S
N1512 C1514 1.280 1_545 S
N1512 C1515 1.404 . S
N1513 C1514 1.345 . S
N1513 C1516 1.336 . S
C1514 N1512 1.280 1_565 S
C1514 N1513 1.345 . S
C1514 H1519 0.930 . S
C1515 N1512 1.404 . S
C1515 C1516 1.346 1_545 S
C1515 H1520 0.930 . S
C1516 N1513 1.336 . S
C1516 C1515 1.346 1_565 S
C1516 H1523 0.929 . S
C1517 O1507 1.282 . S
C1517 O1518 1.216 . S
O1518 C1517 1.216 . S
H1519 C1514 0.930 . S
H1520 C1515 0.930 . S
O1521 Cu1501 1.959 1_565 S
O1521 C1508 1.251 . S
H1522 C1505 0.930 . S
H1523 C1516 0.929 . S
Cu1524 N1525 1.999 . S
Cu1524 O1530 1.974 . S
Cu1524 N1535 1.985 . S
Cu1524 O1544 1.959 . S
N1525 Cu1524 1.999 . S
N1525 C1527 1.263 . S
N1525 C1529 1.389 . S
N1526 C1527 1.358 . S
N1526 C1528 1.400 . S
C1527 N1525 1.263 . S
C1527 N1526 1.358 . S
C1527 H1533 0.930 . S
C1528 N1526 1.400 . S
C1528 C1529 1.351 . S
C1528 H1545 0.930 . S
C1529 N1525 1.389 . S
C1529 C1528 1.351 . S
C1529 H1534 0.930 . S
O1530 Cu1524 1.974 . S
O1530 C1540 1.282 . S
C1531 O1532 1.261 . S
C1531 O1544 1.251 . S
O1532 C1531 1.261 . S
H1533 C1527 0.930 . S
H1534 C1529 0.930 . S
N1535 Cu1524 1.985 . S
N1535 C1537 1.335 . S
N1535 C1538 1.390 . S
N1536 C1537 1.345 . S
N1536 C1539 1.336 . S
C1537 N1535 1.335 . S
C1537 N1536 1.345 . S
C1537 H1542 0.930 . S
C1538 N1535 1.390 . S
C1538 C1539 1.346 . S
C1538 H1543 0.930 . S
C1539 N1536 1.336 . S
C1539 C1538 1.346 . S
C1539 H1546 0.929 . S
C1540 O1530 1.282 . S
C1540 O1541 1.216 . S
O1541 C1540 1.216 . S
H1542 C1537 0.930 . S
H1543 C1538 0.930 . S
O1544 Cu1524 1.959 . S
O1544 C1531 1.251 . S
H1545 C1528 0.930 . S
H1546 C1539 0.929 . S
Cu1547 N1548 1.999 . S
Cu1547 O1553 1.974 . S
Cu1547 N1558 1.985 . S
Cu1547 O1567 1.959 . S
N1548 Cu1547 1.999 . S
N1548 C1550 1.263 . S
N1548 C1552 1.389 . S
N1549 C1550 1.358 . S
N1549 C1551 1.400 . S
C1550 N1548 1.263 . S
C1550 N1549 1.358 . S
C1550 H1556 0.930 . S
C1551 N1549 1.400 . S
C1551 C1552 1.351 . S
C1551 H1568 0.930 . S
C1552 N1548 1.389 . S
C1552 C1551 1.351 . S
C1552 H1557 0.930 . S
O1553 Cu1547 1.974 . S
O1553 C1563 1.282 . S
C1554 O1555 1.261 . S
C1554 O1567 1.251 . S
O1555 C1554 1.261 . S
H1556 C1550 0.930 . S
H1557 C1552 0.930 . S
N1558 Cu1547 1.985 . S
N1558 C1560 1.335 . S
N1558 C1561 1.390 . S
N1559 C1560 1.345 . S
N1559 C1562 1.336 . S
C1560 N1558 1.335 . S
C1560 N1559 1.345 . S
C1560 H1565 0.930 . S
C1561 N1558 1.390 . S
C1561 C1562 1.346 . S
C1561 H1566 0.930 . S
C1562 N1559 1.336 . S
C1562 C1561 1.346 . S
C1562 H1569 0.929 . S
C1563 O1553 1.282 . S
C1563 O1564 1.216 . S
O1564 C1563 1.216 . S
H1565 C1560 0.930 . S
H1566 C1561 0.930 . S
O1567 Cu1547 1.959 . S
O1567 C1554 1.251 . S
H1568 C1551 0.930 . S
H1569 C1562 0.929 . S
Cu1570 N1571 1.999 . S
Cu1570 O1576 1.974 . S
Cu1570 N1581 1.985 . S
Cu1570 O1590 1.959 . S
N1571 Cu1570 1.999 . S
N1571 C1573 1.263 . S
N1571 C1575 1.389 . S
N1572 C1573 1.358 . S
N1572 C1574 1.400 . S
C1573 N1571 1.263 . S
C1573 N1572 1.358 . S
C1573 H1579 0.930 . S
C1574 N1572 1.400 . S
C1574 C1575 1.351 . S
C1574 H1591 0.930 . S
C1575 N1571 1.389 . S
C1575 C1574 1.351 . S
C1575 H1580 0.930 . S
O1576 Cu1570 1.974 . S
O1576 C1586 1.282 . S
C1577 O1578 1.261 . S
C1577 O1590 1.251 . S
O1578 C1577 1.261 . S
H1579 C1573 0.930 . S
H1580 C1575 0.930 . S
N1581 Cu1570 1.985 . S
N1581 C1583 1.335 . S
N1581 C1584 1.390 . S
N1582 C1583 1.345 . S
N1582 C1585 1.336 . S
C1583 N1581 1.335 . S
C1583 N1582 1.345 . S
C1583 H1588 0.930 . S
C1584 N1581 1.390 . S
C1584 C1585 1.346 . S
C1584 H1589 0.930 . S
C1585 N1582 1.336 . S
C1585 C1584 1.346 . S
C1585 H1592 0.929 . S
C1586 O1576 1.282 . S
C1586 O1587 1.216 . S
O1587 C1586 1.216 . S
H1588 C1583 0.930 . S
H1589 C1584 0.930 . S
O1590 Cu1570 1.959 . S
O1590 C1577 1.251 . S
H1591 C1574 0.930 . S
H1592 C1585 0.929 . S
Cu1593 N1594 1.999 . S
Cu1593 O1599 1.974 . S
Cu1593 N1604 1.985 . S
Cu1593 O1613 1.959 . S
N1594 Cu1593 1.999 . S
N1594 C1596 1.263 . S
N1594 C1598 1.389 . S
N1595 C1596 1.358 . S
N1595 C1597 1.400 . S
C1596 N1594 1.263 . S
C1596 N1595 1.358 . S
C1596 H1602 0.930 . S
C1597 N1595 1.400 . S
C1597 C1598 1.351 . S
C1597 H1614 0.930 . S
C1598 N1594 1.389 . S
C1598 C1597 1.351 . S
C1598 H1603 0.930 . S
O1599 Cu1593 1.974 . S
O1599 C1609 1.282 . S
C1600 O1601 1.261 . S
C1600 O1613 1.251 . S
O1601 C1600 1.261 . S
H1602 C1596 0.930 . S
H1603 C1598 0.930 . S
N1604 Cu1593 1.985 . S
N1604 C1606 1.335 . S
N1604 C1607 1.390 . S
N1605 C1606 1.345 . S
N1605 C1608 1.336 . S
C1606 N1604 1.335 . S
C1606 N1605 1.345 . S
C1606 H1611 0.930 . S
C1607 N1604 1.390 . S
C1607 C1608 1.346 . S
C1607 H1612 0.930 . S
C1608 N1605 1.336 . S
C1608 C1607 1.346 . S
C1608 H1615 0.929 . S
C1609 O1599 1.282 . S
C1609 O1610 1.216 . S
O1610 C1609 1.216 . S
H1611 C1606 0.930 . S
H1612 C1607 0.930 . S
O1613 Cu1593 1.959 . S
O1613 C1600 1.251 . S
H1614 C1597 0.930 . S
H1615 C1608 0.929 . S
Cu1616 N1617 1.999 . S
Cu1616 O1622 1.974 . S
Cu1616 N1627 1.985 . S
Cu1616 O1636 1.959 . S
N1617 Cu1616 1.999 . S
N1617 C1619 1.263 . S
N1617 C1621 1.389 . S
N1618 C1619 1.358 . S
N1618 C1620 1.400 . S
C1619 N1617 1.263 . S
C1619 N1618 1.358 . S
C1619 H1625 0.930 . S
C1620 N1618 1.400 . S
C1620 C1621 1.351 . S
C1620 H1637 0.930 . S
C1621 N1617 1.389 . S
C1621 C1620 1.351 . S
C1621 H1626 0.930 . S
O1622 Cu1616 1.974 . S
O1622 C1632 1.282 . S
C1623 O1624 1.261 . S
C1623 O1636 1.251 . S
O1624 C1623 1.261 . S
H1625 C1619 0.930 . S
H1626 C1621 0.930 . S
N1627 Cu1616 1.985 . S
N1627 C1629 1.335 . S
N1627 C1630 1.390 . S
N1628 C1629 1.345 . S
N1628 C1631 1.336 . S
C1629 N1627 1.335 . S
C1629 N1628 1.345 . S
C1629 H1634 0.930 . S
C1630 N1627 1.390 . S
C1630 C1631 1.346 . S
C1630 H1635 0.930 . S
C1631 N1628 1.336 . S
C1631 C1630 1.346 . S
C1631 H1638 0.929 . S
C1632 O1622 1.282 . S
C1632 O1633 1.216 . S
O1633 C1632 1.216 . S
H1634 C1629 0.930 . S
H1635 C1630 0.930 . S
O1636 Cu1616 1.959 . S
O1636 C1623 1.251 . S
H1637 C1620 0.930 . S
H1638 C1631 0.929 . S
Cu1639 N1640 1.999 . S
Cu1639 O1645 1.974 . S
Cu1639 N1650 1.985 . S
Cu1639 O1659 1.959 . S
N1640 Cu1639 1.999 . S
N1640 C1642 1.263 . S
N1640 C1644 1.389 . S
N1641 C1642 1.358 . S
N1641 C1643 1.400 . S
C1642 N1640 1.263 . S
C1642 N1641 1.358 . S
C1642 H1648 0.930 . S
C1643 N1641 1.400 . S
C1643 C1644 1.351 . S
C1643 H1660 0.930 . S
C1644 N1640 1.389 . S
C1644 C1643 1.351 . S
C1644 H1649 0.930 . S
O1645 Cu1639 1.974 . S
O1645 C1655 1.282 . S
C1646 O1647 1.261 . S
C1646 O1659 1.251 . S
O1647 C1646 1.261 . S
H1648 C1642 0.930 . S
H1649 C1644 0.930 . S
N1650 Cu1639 1.985 . S
N1650 C1652 1.335 . S
N1650 C1653 1.390 . S
N1651 C1652 1.345 . S
N1651 C1654 1.336 . S
C1652 N1650 1.335 . S
C1652 N1651 1.345 . S
C1652 H1657 0.930 . S
C1653 N1650 1.390 . S
C1653 C1654 1.346 . S
C1653 H1658 0.930 . S
C1654 N1651 1.336 . S
C1654 C1653 1.346 . S
C1654 H1661 0.929 . S
C1655 O1645 1.282 . S
C1655 O1656 1.216 . S
O1656 C1655 1.216 . S
H1657 C1652 0.930 . S
H1658 C1653 0.930 . S
O1659 Cu1639 1.959 . S
O1659 C1646 1.251 . S
H1660 C1643 0.930 . S
H1661 C1654 0.929 . S
Cu1662 N1663 1.999 . S
Cu1662 O1668 1.974 . S
Cu1662 N1673 1.985 . S
Cu1662 O1682 1.959 . S
N1663 Cu1662 1.999 . S
N1663 C1665 1.263 . S
N1663 C1667 1.389 . S
N1664 C1665 1.358 . S
N1664 C1666 1.400 . S
C1665 N1663 1.263 . S
C1665 N1664 1.358 . S
C1665 H1671 0.930 . S
C1666 N1664 1.400 . S
C1666 C1667 1.351 . S
C1666 H1683 0.930 . S
C1667 N1663 1.389 . S
C1667 C1666 1.351 . S
C1667 H1672 0.930 . S
O1668 Cu1662 1.974 . S
O1668 C1678 1.282 . S
C1669 O1670 1.261 . S
C1669 O1682 1.251 . S
O1670 C1669 1.261 . S
H1671 C1665 0.930 . S
H1672 C1667 0.930 . S
N1673 Cu1662 1.985 . S
N1673 C1675 1.335 . S
N1673 C1676 1.390 . S
N1674 C1675 1.345 . S
N1674 C1677 1.336 . S
C1675 N1673 1.335 . S
C1675 N1674 1.345 . S
C1675 H1680 0.930 . S
C1676 N1673 1.390 . S
C1676 C1677 1.346 . S
C1676 H1681 0.930 . S
C1677 N1674 1.336 . S
C1677 C1676 1.346 . S
C1677 H1684 0.929 . S
C1678 O1668 1.282 . S
C1678 O1679 1.216 . S
O1679 C1678 1.216 . S
H1680 C1675 0.930 . S
H1681 C1676 0.930 . S
O1682 Cu1662 1.959 . S
O1682 C1669 1.251 . S
H1683 C1666 0.930 . S
H1684 C1677 0.929 . S
Cu1685 N1686 1.999 . S
Cu1685 O1691 1.974 . S
Cu1685 N1696 1.985 . S
Cu1685 O1705 1.959 . S
N1686 Cu1685 1.999 . S
N1686 C1688 1.263 . S
N1686 C1690 1.389 . S
N1687 C1688 1.358 . S
N1687 C1689 1.400 . S
C1688 N1686 1.263 . S
C1688 N1687 1.358 . S
C1688 H1694 0.930 . S
C1689 N1687 1.400 . S
C1689 C1690 1.351 . S
C1689 H1706 0.930 . S
C1690 N1686 1.389 . S
C1690 C1689 1.351 . S
C1690 H1695 0.930 . S
O1691 Cu1685 1.974 . S
O1691 C1701 1.282 . S
C1692 O1693 1.261 . S
C1692 O1705 1.251 . S
O1693 C1692 1.261 . S
H1694 C1688 0.930 . S
H1695 C1690 0.930 . S
N1696 Cu1685 1.985 . S
N1696 C1698 1.335 . S
N1696 C1699 1.390 . S
N1697 C1698 1.345 . S
N1697 C1700 1.336 . S
C1698 N1696 1.335 . S
C1698 N1697 1.345 . S
C1698 H1703 0.930 . S
C1699 N1696 1.390 . S
C1699 C1700 1.346 . S
C1699 H1704 0.930 . S
C1700 N1697 1.336 . S
C1700 C1699 1.346 . S
C1700 H1707 0.929 . S
C1701 O1691 1.282 . S
C1701 O1702 1.216 . S
O1702 C1701 1.216 . S
H1703 C1698 0.930 . S
H1704 C1699 0.930 . S
O1705 Cu1685 1.959 . S
O1705 C1692 1.251 . S
H1706 C1689 0.930 . S
H1707 C1700 0.929 . S
Cu1708 N1709 1.999 . S
Cu1708 O1714 1.974 . S
Cu1708 N1719 1.985 . S
Cu1708 O1728 1.959 . S
N1709 Cu1708 1.999 . S
N1709 C1711 1.263 . S
N1709 C1713 1.389 . S
N1710 C1711 1.358 . S
N1710 C1712 1.400 . S
C1711 N1709 1.263 . S
C1711 N1710 1.358 . S
C1711 H1717 0.930 . S
C1712 N1710 1.400 . S
C1712 C1713 1.351 . S
C1712 H1729 0.930 . S
C1713 N1709 1.389 . S
C1713 C1712 1.351 . S
C1713 H1718 0.930 . S
O1714 Cu1708 1.974 . S
O1714 C1724 1.282 . S
C1715 O1716 1.261 . S
C1715 O1728 1.251 . S
O1716 C1715 1.261 . S
H1717 C1711 0.930 . S
H1718 C1713 0.930 . S
N1719 Cu1708 1.985 . S
N1719 C1721 1.335 . S
N1719 C1722 1.390 . S
N1720 C1721 1.345 . S
N1720 C1723 1.336 . S
C1721 N1719 1.335 . S
C1721 N1720 1.345 . S
C1721 H1726 0.930 . S
C1722 N1719 1.390 . S
C1722 C1723 1.346 . S
C1722 H1727 0.930 . S
C1723 N1720 1.336 . S
C1723 C1722 1.346 . S
C1723 H1730 0.929 . S
C1724 O1714 1.282 . S
C1724 O1725 1.216 . S
O1725 C1724 1.216 . S
H1726 C1721 0.930 . S
H1727 C1722 0.930 . S
O1728 Cu1708 1.959 . S
O1728 C1715 1.251 . S
H1729 C1712 0.930 . S
H1730 C1723 0.929 . S
Cu1731 N1732 1.999 . S
Cu1731 O1737 1.974 . S
Cu1731 N1742 1.985 . S
Cu1731 O1751 1.959 . S
N1732 Cu1731 1.999 . S
N1732 C1734 1.263 . S
N1732 C1736 1.389 . S
N1733 C1734 1.358 . S
N1733 C1735 1.400 . S
C1734 N1732 1.263 . S
C1734 N1733 1.358 . S
C1734 H1740 0.930 . S
C1735 N1733 1.400 . S
C1735 C1736 1.351 . S
C1735 H1752 0.930 . S
C1736 N1732 1.389 . S
C1736 C1735 1.351 . S
C1736 H1741 0.930 . S
O1737 Cu1731 1.974 . S
O1737 C1747 1.282 . S
C1738 O1739 1.261 . S
C1738 O1751 1.251 . S
O1739 C1738 1.261 . S
H1740 C1734 0.930 . S
H1741 C1736 0.930 . S
N1742 Cu1731 1.985 . S
N1742 C1744 1.335 . S
N1742 C1745 1.390 . S
N1743 C1744 1.345 . S
N1743 C1746 1.336 . S
C1744 N1742 1.335 . S
C1744 N1743 1.345 . S
C1744 H1749 0.930 . S
C1745 N1742 1.390 . S
C1745 C1746 1.346 . S
C1745 H1750 0.930 . S
C1746 N1743 1.336 . S
C1746 C1745 1.346 . S
C1746 H1753 0.929 . S
C1747 O1737 1.282 . S
C1747 O1748 1.216 . S
O1748 C1747 1.216 . S
H1749 C1744 0.930 . S
H1750 C1745 0.930 . S
O1751 Cu1731 1.959 . S
O1751 C1738 1.251 . S
H1752 C1735 0.930 . S
H1753 C1746 0.929 . S
Cu1754 N1755 1.999 . S
Cu1754 O1760 1.974 . S
Cu1754 N1765 1.985 . S
Cu1754 O1774 1.959 . S
N1755 Cu1754 1.999 . S
N1755 C1757 1.263 . S
N1755 C1759 1.389 . S
N1756 C1757 1.358 . S
N1756 C1758 1.400 . S
C1757 N1755 1.263 . S
C1757 N1756 1.358 . S
C1757 H1763 0.930 . S
C1758 N1756 1.400 . S
C1758 C1759 1.351 . S
C1758 H1775 0.930 . S
C1759 N1755 1.389 . S
C1759 C1758 1.351 . S
C1759 H1764 0.930 . S
O1760 Cu1754 1.974 . S
O1760 C1770 1.282 . S
C1761 O1762 1.261 . S
C1761 O1774 1.251 . S
O1762 C1761 1.261 . S
H1763 C1757 0.930 . S
H1764 C1759 0.930 . S
N1765 Cu1754 1.985 . S
N1765 C1767 1.335 . S
N1765 C1768 1.390 . S
N1766 C1767 1.345 . S
N1766 C1769 1.336 . S
C1767 N1765 1.335 . S
C1767 N1766 1.345 . S
C1767 H1772 0.930 . S
C1768 N1765 1.390 . S
C1768 C1769 1.346 . S
C1768 H1773 0.930 . S
C1769 N1766 1.336 . S
C1769 C1768 1.346 . S
C1769 H1776 0.929 . S
C1770 O1760 1.282 . S
C1770 O1771 1.216 . S
O1771 C1770 1.216 . S
H1772 C1767 0.930 . S
H1773 C1768 0.930 . S
O1774 Cu1754 1.959 . S
O1774 C1761 1.251 . S
H1775 C1758 0.930 . S
H1776 C1769 0.929 . S
Cu1777 N1778 1.999 . S
Cu1777 O1783 1.974 . S
Cu1777 N1788 1.985 . S
Cu1777 O1797 1.959 . S
N1778 Cu1777 1.999 . S
N1778 C1780 1.263 . S
N1778 C1782 1.389 . S
N1779 C1780 1.358 . S
N1779 C1781 1.400 . S
C1780 N1778 1.263 . S
C1780 N1779 1.358 . S
C1780 H1786 0.930 . S
C1781 N1779 1.400 . S
C1781 C1782 1.351 . S
C1781 H1798 0.930 . S
C1782 N1778 1.389 . S
C1782 C1781 1.351 . S
C1782 H1787 0.930 . S
O1783 Cu1777 1.974 . S
O1783 C1793 1.282 . S
C1784 O1785 1.261 . S
C1784 O1797 1.251 . S
O1785 C1784 1.261 . S
H1786 C1780 0.930 . S
H1787 C1782 0.930 . S
N1788 Cu1777 1.985 . S
N1788 C1790 1.335 . S
N1788 C1791 1.390 . S
N1789 C1790 1.345 . S
N1789 C1792 1.336 . S
C1790 N1788 1.335 . S
C1790 N1789 1.345 . S
C1790 H1795 0.930 . S
C1791 N1788 1.390 . S
C1791 C1792 1.346 . S
C1791 H1796 0.930 . S
C1792 N1789 1.336 . S
C1792 C1791 1.346 . S
C1792 H1799 0.929 . S
C1793 O1783 1.282 . S
C1793 O1794 1.216 . S
O1794 C1793 1.216 . S
H1795 C1790 0.930 . S
H1796 C1791 0.930 . S
O1797 Cu1777 1.959 . S
O1797 C1784 1.251 . S
H1798 C1781 0.930 . S
H1799 C1792 0.929 . S
H1800 C1806 0.930 . S
H1801 C1809 0.930 . S
H1802 C1810 0.930 . S
H1803 C1811 0.930 . S
H1804 C1814 0.930 . S
H1805 C1815 0.930 . S
C1806 H1800 0.930 . S
C1806 C1807 1.355 . S
C1806 C1808 1.415 . S
C1807 C1806 1.355 . S
C1807 C1809 1.419 . S
C1808 C1806 1.415 . S
C1808 C1813 1.425 . S
C1808 C1815 1.409 . S
C1809 H1801 0.930 . S
C1809 C1807 1.419 . S
C1809 C1810 1.362 . S
C1810 H1802 0.930 . S
C1810 C1809 1.362 . S
C1810 C1813 1.409 . S
C1811 H1803 0.930 . S
C1811 C1812 1.355 . S
C1811 C1813 1.415 . S
C1812 C1811 1.355 . S
C1812 C1814 1.419 . S
C1813 C1808 1.425 . S
C1813 C1810 1.409 . S
C1813 C1811 1.415 . S
C1814 H1804 0.930 . S
C1814 C1812 1.419 . S
C1814 C1815 1.362 . S
C1815 H1805 0.930 . S
C1815 C1808 1.409 . S
C1815 C1814 1.362 . S
H1816 C1822 0.930 . S
H1817 C1825 0.930 . S
H1818 C1826 0.930 . S
H1819 C1827 0.930 . S
H1820 C1830 0.930 . S
H1821 C1831 0.930 . S
C1822 H1816 0.930 . S
C1822 C1823 1.355 . S
C1822 C1824 1.415 . S
C1823 C1822 1.355 . S
C1823 C1825 1.419 . S
C1824 C1822 1.415 . S
C1824 C1829 1.425 . S
C1824 C1831 1.409 . S
C1825 H1817 0.930 . S
C1825 C1823 1.419 . S
C1825 C1826 1.362 . S
C1826 H1818 0.930 . S
C1826 C1825 1.362 . S
C1826 C1829 1.409 . S
C1827 H1819 0.930 . S
C1827 C1828 1.355 . S
C1827 C1829 1.415 . S
C1828 C1827 1.355 . S
C1828 C1830 1.419 . S
C1829 C1824 1.425 . S
C1829 C1826 1.409 . S
C1829 C1827 1.415 . S
C1830 H1820 0.930 . S
C1830 C1828 1.419 . S
C1830 C1831 1.362 . S
C1831 H1821 0.930 . S
C1831 C1824 1.409 . S
C1831 C1830 1.362 . S
H1832 C1838 0.930 . S
H1833 C1841 0.930 . S
H1834 C1842 0.930 . S
H1835 C1843 0.930 . S
H1836 C1846 0.930 . S
H1837 C1847 0.930 . S
C1838 H1832 0.930 . S
C1838 C1839 1.355 . S
C1838 C1840 1.415 . S
C1839 C1838 1.355 . S
C1839 C1841 1.419 . S
C1840 C1838 1.415 . S
C1840 C1845 1.425 . S
C1840 C1847 1.409 . S
C1841 H1833 0.930 . S
C1841 C1839 1.419 . S
C1841 C1842 1.362 . S
C1842 H1834 0.930 . S
C1842 C1841 1.362 . S
C1842 C1845 1.409 . S
C1843 H1835 0.930 . S
C1843 C1844 1.355 . S
C1843 C1845 1.415 . S
C1844 C1843 1.355 . S
C1844 C1846 1.419 . S
C1845 C1840 1.425 . S
C1845 C1842 1.409 . S
C1845 C1843 1.415 . S
C1846 H1836 0.930 . S
C1846 C1844 1.419 . S
C1846 C1847 1.362 . S
C1847 H1837 0.930 . S
C1847 C1840 1.409 . S
C1847 C1846 1.362 . S
H1848 C1854 0.930 . S
H1849 C1857 0.930 . S
H1850 C1858 0.930 . S
H1851 C1859 0.930 . S
H1852 C1862 0.930 . S
H1853 C1863 0.930 . S
C1854 H1848 0.930 . S
C1854 C1855 1.355 . S
C1854 C1856 1.415 . S
C1855 C1854 1.355 . S
C1855 C1857 1.419 . S
C1856 C1854 1.415 . S
C1856 C1861 1.425 . S
C1856 C1863 1.409 . S
C1857 H1849 0.930 . S
C1857 C1855 1.419 . S
C1857 C1858 1.362 . S
C1858 H1850 0.930 . S
C1858 C1857 1.362 . S
C1858 C1861 1.409 . S
C1859 H1851 0.930 . S
C1859 C1860 1.355 . S
C1859 C1861 1.415 . S
C1860 C1859 1.355 . S
C1860 C1862 1.419 . S
C1861 C1856 1.425 . S
C1861 C1858 1.409 . S
C1861 C1859 1.415 . S
C1862 H1852 0.930 . S
C1862 C1860 1.419 . S
C1862 C1863 1.362 . S
C1863 H1853 0.930 . S
C1863 C1856 1.409 . S
C1863 C1862 1.362 . S
H1864 C1870 0.930 . S
H1865 C1873 0.930 . S
H1866 C1874 0.930 . S
H1867 C1875 0.930 . S
H1868 C1878 0.930 . S
H1869 C1879 0.930 . S
C1870 H1864 0.930 . S
C1870 C1871 1.355 . S
C1870 C1872 1.415 . S
C1871 C1870 1.355 . S
C1871 C1873 1.419 . S
C1872 C1870 1.415 . S
C1872 C1877 1.425 . S
C1872 C1879 1.409 . S
C1873 H1865 0.930 . S
C1873 C1871 1.419 . S
C1873 C1874 1.362 . S
C1874 H1866 0.930 . S
C1874 C1873 1.362 . S
C1874 C1877 1.409 . S
C1875 H1867 0.930 . S
C1875 C1876 1.355 . S
C1875 C1877 1.415 . S
C1876 C1875 1.355 . S
C1876 C1878 1.419 . S
C1877 C1872 1.425 . S
C1877 C1874 1.409 . S
C1877 C1875 1.415 . S
C1878 H1868 0.930 . S
C1878 C1876 1.419 . S
C1878 C1879 1.362 . S
C1879 H1869 0.930 . S
C1879 C1872 1.409 . S
C1879 C1878 1.362 . S
H1880 C1886 0.930 . S
H1881 C1889 0.930 . S
H1882 C1890 0.930 . S
H1883 C1891 0.930 . S
H1884 C1894 0.930 . S
H1885 C1895 0.930 . S
C1886 H1880 0.930 . S
C1886 C1887 1.355 . S
C1886 C1888 1.415 . S
C1887 C1886 1.355 . S
C1887 C1889 1.419 . S
C1888 C1886 1.415 . S
C1888 C1893 1.425 . S
C1888 C1895 1.409 . S
C1889 H1881 0.930 . S
C1889 C1887 1.419 . S
C1889 C1890 1.362 . S
C1890 H1882 0.930 . S
C1890 C1889 1.362 . S
C1890 C1893 1.409 . S
C1891 H1883 0.930 . S
C1891 C1892 1.355 . S
C1891 C1893 1.415 . S
C1892 C1891 1.355 . S
C1892 C1894 1.419 . S
C1893 C1888 1.425 . S
C1893 C1890 1.409 . S
C1893 C1891 1.415 . S
C1894 H1884 0.930 . S
C1894 C1892 1.419 . S
C1894 C1895 1.362 . S
C1895 H1885 0.930 . S
C1895 C1888 1.409 . S
C1895 C1894 1.362 . S
H1896 C1902 0.930 . S
H1897 C1905 0.930 . S
H1898 C1906 0.930 . S
H1899 C1907 0.930 . S
H1900 C1910 0.930 . S
H1901 C1911 0.930 . S
C1902 H1896 0.930 . S
C1902 C1903 1.355 . S
C1902 C1904 1.415 . S
C1903 C1902 1.355 . S
C1903 C1905 1.419 . S
C1904 C1902 1.415 . S
C1904 C1909 1.425 . S
C1904 C1911 1.409 . S
C1905 H1897 0.930 . S
C1905 C1903 1.419 . S
C1905 C1906 1.362 . S
C1906 H1898 0.930 . S
C1906 C1905 1.362 . S
C1906 C1909 1.409 . S
C1907 H1899 0.930 . S
C1907 C1908 1.355 . S
C1907 C1909 1.415 . S
C1908 C1907 1.355 . S
C1908 C1910 1.419 . S
C1909 C1904 1.425 . S
C1909 C1906 1.409 . S
C1909 C1907 1.415 . S
C1910 H1900 0.930 . S
C1910 C1908 1.419 . S
C1910 C1911 1.362 . S
C1911 H1901 0.930 . S
C1911 C1904 1.409 . S
C1911 C1910 1.362 . S
H1912 C1918 0.930 . S
H1913 C1921 0.930 . S
H1914 C1922 0.930 . S
H1915 C1923 0.930 . S
H1916 C1926 0.930 . S
H1917 C1927 0.930 . S
C1918 H1912 0.930 . S
C1918 C1919 1.355 . S
C1918 C1920 1.415 . S
C1919 C1918 1.355 . S
C1919 C1921 1.419 . S
C1920 C1918 1.415 . S
C1920 C1925 1.425 . S
C1920 C1927 1.409 . S
C1921 H1913 0.930 . S
C1921 C1919 1.419 . S
C1921 C1922 1.362 . S
C1922 H1914 0.930 . S
C1922 C1921 1.362 . S
C1922 C1925 1.409 . S
C1923 H1915 0.930 . S
C1923 C1924 1.355 . S
C1923 C1925 1.415 . S
C1924 C1923 1.355 . S
C1924 C1926 1.419 . S
C1925 C1920 1.425 . S
C1925 C1922 1.409 . S
C1925 C1923 1.415 . S
C1926 H1916 0.930 . S
C1926 C1924 1.419 . S
C1926 C1927 1.362 . S
C1927 H1917 0.930 . S
C1927 C1920 1.409 . S
C1927 C1926 1.362 . S
H1928 C1934 0.930 . S
H1929 C1937 0.930 . S
H1930 C1938 0.930 . S
H1931 C1939 0.930 . S
H1932 C1942 0.930 . S
H1933 C1943 0.930 . S
C1934 H1928 0.930 . S
C1934 C1935 1.355 . S
C1934 C1936 1.415 . S
C1935 C1934 1.355 . S
C1935 C1937 1.419 . S
C1936 C1934 1.415 . S
C1936 C1941 1.425 . S
C1936 C1943 1.409 . S
C1937 H1929 0.930 . S
C1937 C1935 1.419 . S
C1937 C1938 1.362 . S
C1938 H1930 0.930 . S
C1938 C1937 1.362 . S
C1938 C1941 1.409 . S
C1939 H1931 0.930 . S
C1939 C1940 1.355 . S
C1939 C1941 1.415 . S
C1940 C1939 1.355 . S
C1940 C1942 1.419 . S
C1941 C1936 1.425 . S
C1941 C1938 1.409 . S
C1941 C1939 1.415 . S
C1942 H1932 0.930 . S
C1942 C1940 1.419 . S
C1942 C1943 1.362 . S
C1943 H1933 0.930 . S
C1943 C1936 1.409 . S
C1943 C1942 1.362 . S
H1944 C1950 0.930 . S
H1945 C1953 0.930 . S
H1946 C1954 0.930 . S
H1947 C1955 0.930 . S
H1948 C1958 0.930 . S
H1949 C1959 0.930 . S
C1950 H1944 0.930 . S
C1950 C1951 1.355 . S
C1950 C1952 1.415 . S
C1951 C1950 1.355 . S
C1951 C1953 1.419 . S
C1952 C1950 1.415 . S
C1952 C1957 1.425 . S
C1952 C1959 1.409 . S
C1953 H1945 0.930 . S
C1953 C1951 1.419 . S
C1953 C1954 1.362 . S
C1954 H1946 0.930 . S
C1954 C1953 1.362 . S
C1954 C1957 1.409 . S
C1955 H1947 0.930 . S
C1955 C1956 1.355 . S
C1955 C1957 1.415 . S
C1956 C1955 1.355 . S
C1956 C1958 1.419 . S
C1957 C1952 1.425 . S
C1957 C1954 1.409 . S
C1957 C1955 1.415 . S
C1958 H1948 0.930 . S
C1958 C1956 1.419 . S
C1958 C1959 1.362 . S
C1959 H1949 0.930 . S
C1959 C1952 1.409 . S
C1959 C1958 1.362 . S
H1960 C1966 0.930 . S
H1961 C1969 0.930 . S
H1962 C1970 0.930 . S
H1963 C1971 0.930 . S
H1964 C1974 0.930 . S
H1965 C1975 0.930 . S
C1966 H1960 0.930 . S
C1966 C1967 1.355 . S
C1966 C1968 1.415 . S
C1967 C1966 1.355 . S
C1967 C1969 1.419 . S
C1968 C1966 1.415 . S
C1968 C1973 1.425 . S
C1968 C1975 1.409 . S
C1969 H1961 0.930 . S
C1969 C1967 1.419 . S
C1969 C1970 1.362 . S
C1970 H1962 0.930 . S
C1970 C1969 1.362 . S
C1970 C1973 1.409 . S
C1971 H1963 0.930 . S
C1971 C1972 1.355 . S
C1971 C1973 1.415 . S
C1972 C1971 1.355 . S
C1972 C1974 1.419 . S
C1973 C1968 1.425 . S
C1973 C1970 1.409 . S
C1973 C1971 1.415 . S
C1974 H1964 0.930 . S
C1974 C1972 1.419 . S
C1974 C1975 1.362 . S
C1975 H1965 0.930 . S
C1975 C1968 1.409 . S
C1975 C1974 1.362 . S
H1976 C1982 0.930 . S
H1977 C1985 0.930 . S
H1978 C1986 0.930 . S
H1979 C1987 0.930 . S
H1980 C1990 0.930 . S
H1981 C1991 0.930 . S
C1982 H1976 0.930 . S
C1982 C1983 1.355 . S
C1982 C1984 1.415 . S
C1983 C1982 1.355 . S
C1983 C1985 1.419 . S
C1984 C1982 1.415 . S
C1984 C1989 1.425 . S
C1984 C1991 1.409 . S
C1985 H1977 0.930 . S
C1985 C1983 1.419 . S
C1985 C1986 1.362 . S
C1986 H1978 0.930 . S
C1986 C1985 1.362 . S
C1986 C1989 1.409 . S
C1987 H1979 0.930 . S
C1987 C1988 1.355 . S
C1987 C1989 1.415 . S
C1988 C1987 1.355 . S
C1988 C1990 1.419 . S
C1989 C1984 1.425 . S
C1989 C1986 1.409 . S
C1989 C1987 1.415 . S
C1990 H1980 0.930 . S
C1990 C1988 1.419 . S
C1990 C1991 1.362 . S
C1991 H1981 0.930 . S
C1991 C1984 1.409 . S
C1991 C1990 1.362 . S
H1992 C1998 0.930 . S
H1993 C2001 0.930 . S
H1994 C2002 0.930 . S
H1995 C2003 0.930 . S
H1996 C2006 0.930 . S
H1997 C2007 0.930 . S
C1998 H1992 0.930 . S
C1998 C1999 1.355 . S
C1998 C2000 1.415 . S
C1999 C1998 1.355 . S
C1999 C2001 1.419 . S
C2000 C1998 1.415 . S
C2000 C2005 1.425 . S
C2000 C2007 1.409 . S
C2001 H1993 0.930 . S
C2001 C1999 1.419 . S
C2001 C2002 1.362 . S
C2002 H1994 0.930 . S
C2002 C2001 1.362 . S
C2002 C2005 1.409 . S
C2003 H1995 0.930 . S
C2003 C2004 1.355 . S
C2003 C2005 1.415 . S
C2004 C2003 1.355 . S
C2004 C2006 1.419 . S
C2005 C2000 1.425 . S
C2005 C2002 1.409 . S
C2005 C2003 1.415 . S
C2006 H1996 0.930 . S
C2006 C2004 1.419 . S
C2006 C2007 1.362 . S
C2007 H1997 0.930 . S
C2007 C2000 1.409 . S
C2007 C2006 1.362 . S
H2008 C2014 0.930 . S
H2009 C2017 0.930 . S
H2010 C2018 0.930 . S
H2011 C2019 0.930 . S
H2012 C2022 0.930 . S
H2013 C2023 0.930 . S
C2014 H2008 0.930 . S
C2014 C2015 1.355 . S
C2014 C2016 1.415 . S
C2015 C2014 1.355 . S
C2015 C2017 1.419 . S
C2016 C2014 1.415 . S
C2016 C2021 1.425 . S
C2016 C2023 1.409 . S
C2017 H2009 0.930 . S
C2017 C2015 1.419 . S
C2017 C2018 1.362 . S
C2018 H2010 0.930 . S
C2018 C2017 1.362 . S
C2018 C2021 1.409 . S
C2019 H2011 0.930 . S
C2019 C2020 1.355 . S
C2019 C2021 1.415 . S
C2020 C2019 1.355 . S
C2020 C2022 1.419 . S
C2021 C2016 1.425 . S
C2021 C2018 1.409 . S
C2021 C2019 1.415 . S
C2022 H2012 0.930 . S
C2022 C2020 1.419 . S
C2022 C2023 1.362 . S
C2023 H2013 0.930 . S
C2023 C2016 1.409 . S
C2023 C2022 1.362 . S
H2024 C2030 0.930 . S
H2025 C2033 0.930 . S
H2026 C2034 0.930 . S
H2027 C2035 0.930 . S
H2028 C2038 0.930 . S
H2029 C2039 0.930 . S
C2030 H2024 0.930 . S
C2030 C2031 1.355 . S
C2030 C2032 1.415 . S
C2031 C2030 1.355 . S
C2031 C2033 1.419 . S
C2032 C2030 1.415 . S
C2032 C2037 1.425 . S
C2032 C2039 1.409 . S
C2033 H2025 0.930 . S
C2033 C2031 1.419 . S
C2033 C2034 1.362 . S
C2034 H2026 0.930 . S
C2034 C2033 1.362 . S
C2034 C2037 1.409 . S
C2035 H2027 0.930 . S
C2035 C2036 1.355 . S
C2035 C2037 1.415 . S
C2036 C2035 1.355 . S
C2036 C2038 1.419 . S
C2037 C2032 1.425 . S
C2037 C2034 1.409 . S
C2037 C2035 1.415 . S
C2038 H2028 0.930 . S
C2038 C2036 1.419 . S
C2038 C2039 1.362 . S
C2039 H2029 0.930 . S
C2039 C2032 1.409 . S
C2039 C2038 1.362 . S
H2040 C2046 0.930 . S
H2041 C2049 0.930 . S
H2042 C2050 0.930 . S
H2043 C2051 0.930 . S
H2044 C2054 0.930 . S
H2045 C2055 0.930 . S
C2046 H2040 0.930 . S
C2046 C2047 1.355 . S
C2046 C2048 1.415 . S
C2047 C2046 1.355 . S
C2047 C2049 1.419 . S
C2048 C2046 1.415 . S
C2048 C2053 1.425 . S
C2048 C2055 1.409 . S
C2049 H2041 0.930 . S
C2049 C2047 1.419 . S
C2049 C2050 1.362 . S
C2050 H2042 0.930 . S
C2050 C2049 1.362 . S
C2050 C2053 1.409 . S
C2051 H2043 0.930 . S
C2051 C2052 1.355 . S
C2051 C2053 1.415 . S
C2052 C2051 1.355 . S
C2052 C2054 1.419 . S
C2053 C2048 1.425 . S
C2053 C2050 1.409 . S
C2053 C2051 1.415 . S
C2054 H2044 0.930 . S
C2054 C2052 1.419 . S
C2054 C2055 1.362 . S
C2055 H2045 0.930 . S
C2055 C2048 1.409 . S
C2055 C2054 1.362 . S
H2056 C2062 0.930 . S
H2057 C2065 0.930 . S
H2058 C2066 0.930 . S
H2059 C2067 0.930 . S
H2060 C2070 0.930 . S
H2061 C2071 0.930 . S
C2062 H2056 0.930 . S
C2062 C2063 1.355 . S
C2062 C2064 1.415 . S
C2063 C2062 1.355 . S
C2063 C2065 1.419 . S
C2064 C2062 1.415 . S
C2064 C2069 1.425 . S
C2064 C2071 1.409 . S
C2065 H2057 0.930 . S
C2065 C2063 1.419 . S
C2065 C2066 1.362 . S
C2066 H2058 0.930 . S
C2066 C2065 1.362 . S
C2066 C2069 1.409 . S
C2067 H2059 0.930 . S
C2067 C2068 1.355 . S
C2067 C2069 1.415 . S
C2068 C2067 1.355 . S
C2068 C2070 1.419 . S
C2069 C2064 1.425 . S
C2069 C2066 1.409 . S
C2069 C2067 1.415 . S
C2070 H2060 0.930 . S
C2070 C2068 1.419 . S
C2070 C2071 1.362 . S
C2071 H2061 0.930 . S
C2071 C2064 1.409 . S
C2071 C2070 1.362 . S
H2072 C2078 0.930 . S
H2073 C2081 0.930 . S
H2074 C2082 0.930 . S
H2075 C2083 0.930 . S
H2076 C2086 0.930 . S
H2077 C2087 0.930 . S
C2078 H2072 0.930 . S
C2078 C2079 1.355 . S
C2078 C2080 1.415 . S
C2079 C2078 1.355 . S
C2079 C2081 1.419 . S
C2080 C2078 1.415 . S
C2080 C2085 1.425 . S
C2080 C2087 1.409 . S
C2081 H2073 0.930 . S
C2081 C2079 1.419 . S
C2081 C2082 1.362 . S
C2082 H2074 0.930 . S
C2082 C2081 1.362 . S
C2082 C2085 1.409 . S
C2083 H2075 0.930 . S
C2083 C2084 1.355 . S
C2083 C2085 1.415 . S
C2084 C2083 1.355 . S
C2084 C2086 1.419 . S
C2085 C2080 1.425 . S
C2085 C2082 1.409 . S
C2085 C2083 1.415 . S
C2086 H2076 0.930 . S
C2086 C2084 1.419 . S
C2086 C2087 1.362 . S
C2087 H2077 0.930 . S
C2087 C2080 1.409 . S
C2087 C2086 1.362 . S
H2088 C2094 0.930 . S
H2089 C2097 0.930 . S
H2090 C2098 0.930 . S
H2091 C2099 0.930 . S
H2092 C2102 0.930 . S
H2093 C2103 0.930 . S
C2094 H2088 0.930 . S
C2094 C2095 1.355 . S
C2094 C2096 1.415 . S
C2095 C2094 1.355 . S
C2095 C2097 1.419 . S
C2096 C2094 1.415 . S
C2096 C2101 1.425 . S
C2096 C2103 1.409 . S
C2097 H2089 0.930 . S
C2097 C2095 1.419 . S
C2097 C2098 1.362 . S
C2098 H2090 0.930 . S
C2098 C2097 1.362 . S
C2098 C2101 1.409 . S
C2099 H2091 0.930 . S
C2099 C2100 1.355 . S
C2099 C2101 1.415 . S
C2100 C2099 1.355 . S
C2100 C2102 1.419 . S
C2101 C2096 1.425 . S
C2101 C2098 1.409 . S
C2101 C2099 1.415 . S
C2102 H2092 0.930 . S
C2102 C2100 1.419 . S
C2102 C2103 1.362 . S
C2103 H2093 0.930 . S
C2103 C2096 1.409 . S
C2103 C2102 1.362 . S
H2104 C2110 0.930 . S
H2105 C2113 0.930 . S
H2106 C2114 0.930 . S
H2107 C2115 0.930 . S
H2108 C2118 0.930 . S
H2109 C2119 0.930 . S
C2110 H2104 0.930 . S
C2110 C2111 1.355 . S
C2110 C2112 1.415 . S
C2111 C2110 1.355 . S
C2111 C2113 1.419 . S
C2112 C2110 1.415 . S
C2112 C2117 1.425 . S
C2112 C2119 1.409 . S
C2113 H2105 0.930 . S
C2113 C2111 1.419 . S
C2113 C2114 1.362 . S
C2114 H2106 0.930 . S
C2114 C2113 1.362 . S
C2114 C2117 1.409 . S
C2115 H2107 0.930 . S
C2115 C2116 1.355 . S
C2115 C2117 1.415 . S
C2116 C2115 1.355 . S
C2116 C2118 1.419 . S
C2117 C2112 1.425 . S
C2117 C2114 1.409 . S
C2117 C2115 1.415 . S
C2118 H2108 0.930 . S
C2118 C2116 1.419 . S
C2118 C2119 1.362 . S
C2119 H2109 0.930 . S
C2119 C2112 1.409 . S
C2119 C2118 1.362 . S
H2120 C2126 0.930 . S
H2121 C2129 0.930 . S
H2122 C2130 0.930 . S
H2123 C2131 0.930 . S
H2124 C2134 0.930 . S
H2125 C2135 0.930 . S
C2126 H2120 0.930 . S
C2126 C2127 1.355 . S
C2126 C2128 1.415 . S
C2127 C2126 1.355 . S
C2127 C2129 1.419 . S
C2128 C2126 1.415 . S
C2128 C2133 1.425 . S
C2128 C2135 1.409 . S
C2129 H2121 0.930 . S
C2129 C2127 1.419 . S
C2129 C2130 1.362 . S
C2130 H2122 0.930 . S
C2130 C2129 1.362 . S
C2130 C2133 1.409 . S
C2131 H2123 0.930 . S
C2131 C2132 1.355 . S
C2131 C2133 1.415 . S
C2132 C2131 1.355 . S
C2132 C2134 1.419 . S
C2133 C2128 1.425 . S
C2133 C2130 1.409 . S
C2133 C2131 1.415 . S
C2134 H2124 0.930 . S
C2134 C2132 1.419 . S
C2134 C2135 1.362 . S
C2135 H2125 0.930 . S
C2135 C2128 1.409 . S
C2135 C2134 1.362 . S
H2136 C2142 0.930 . S
H2137 C2145 0.930 . S
H2138 C2146 0.930 . S
H2139 C2147 0.930 . S
H2140 C2150 0.930 . S
H2141 C2151 0.930 . S
C2142 H2136 0.930 . S
C2142 C2143 1.355 . S
C2142 C2144 1.415 . S
C2143 C2142 1.355 . S
C2143 C2145 1.419 . S
C2144 C2142 1.415 . S
C2144 C2149 1.425 . S
C2144 C2151 1.409 . S
C2145 H2137 0.930 . S
C2145 C2143 1.419 . S
C2145 C2146 1.362 . S
C2146 H2138 0.930 . S
C2146 C2145 1.362 . S
C2146 C2149 1.409 . S
C2147 H2139 0.930 . S
C2147 C2148 1.355 . S
C2147 C2149 1.415 . S
C2148 C2147 1.355 . S
C2148 C2150 1.419 . S
C2149 C2144 1.425 . S
C2149 C2146 1.409 . S
C2149 C2147 1.415 . S
C2150 H2140 0.930 . S
C2150 C2148 1.419 . S
C2150 C2151 1.362 . S
C2151 H2141 0.930 . S
C2151 C2144 1.409 . S
C2151 C2150 1.362 . S
H2152 C2158 0.930 . S
H2153 C2161 0.930 . S
H2154 C2162 0.930 . S
H2155 C2163 0.930 . S
H2156 C2166 0.930 . S
H2157 C2167 0.930 . S
C2158 H2152 0.930 . S
C2158 C2159 1.355 . S
C2158 C2160 1.415 . S
C2159 C2158 1.355 . S
C2159 C2161 1.419 . S
C2160 C2158 1.415 . S
C2160 C2165 1.425 . S
C2160 C2167 1.409 . S
C2161 H2153 0.930 . S
C2161 C2159 1.419 . S
C2161 C2162 1.362 . S
C2162 H2154 0.930 . S
C2162 C2161 1.362 . S
C2162 C2165 1.409 . S
C2163 H2155 0.930 . S
C2163 C2164 1.355 . S
C2163 C2165 1.415 . S
C2164 C2163 1.355 . S
C2164 C2166 1.419 . S
C2165 C2160 1.425 . S
C2165 C2162 1.409 . S
C2165 C2163 1.415 . S
C2166 H2156 0.930 . S
C2166 C2164 1.419 . S
C2166 C2167 1.362 . S
C2167 H2157 0.930 . S
C2167 C2160 1.409 . S
C2167 C2166 1.362 . S
H2168 C2174 0.930 . S
H2169 C2177 0.930 . S
H2170 C2178 0.930 . S
H2171 C2179 0.930 . S
H2172 C2182 0.930 . S
H2173 C2183 0.930 . S
C2174 H2168 0.930 . S
C2174 C2175 1.355 . S
C2174 C2176 1.415 . S
C2175 C2174 1.355 . S
C2175 C2177 1.419 . S
C2176 C2174 1.415 . S
C2176 C2181 1.425 . S
C2176 C2183 1.409 . S
C2177 H2169 0.930 . S
C2177 C2175 1.419 . S
C2177 C2178 1.362 . S
C2178 H2170 0.930 . S
C2178 C2177 1.362 . S
C2178 C2181 1.409 . S
C2179 H2171 0.930 . S
C2179 C2180 1.355 . S
C2179 C2181 1.415 . S
C2180 C2179 1.355 . S
C2180 C2182 1.419 . S
C2181 C2176 1.425 . S
C2181 C2178 1.409 . S
C2181 C2179 1.415 . S
C2182 H2172 0.930 . S
C2182 C2180 1.419 . S
C2182 C2183 1.362 . S
C2183 H2173 0.930 . S
C2183 C2176 1.409 . S
C2183 C2182 1.362 . S
H2184 C2190 0.930 . S
H2185 C2193 0.930 . S
H2186 C2194 0.930 . S
H2187 C2195 0.930 . S
H2188 C2198 0.930 . S
H2189 C2199 0.930 . S
C2190 H2184 0.930 . S
C2190 C2191 1.355 . S
C2190 C2192 1.415 . S
C2191 C2190 1.355 . S
C2191 C2193 1.419 . S
C2192 C2190 1.415 . S
C2192 C2197 1.425 . S
C2192 C2199 1.409 . S
C2193 H2185 0.930 . S
C2193 C2191 1.419 . S
C2193 C2194 1.362 . S
C2194 H2186 0.930 . S
C2194 C2193 1.362 . S
C2194 C2197 1.409 . S
C2195 H2187 0.930 . S
C2195 C2196 1.355 . S
C2195 C2197 1.415 . S
C2196 C2195 1.355 . S
C2196 C2198 1.419 . S
C2197 C2192 1.425 . S
C2197 C2194 1.409 . S
C2197 C2195 1.415 . S
C2198 H2188 0.930 . S
C2198 C2196 1.419 . S
C2198 C2199 1.362 . S
C2199 H2189 0.930 . S
C2199 C2192 1.409 . S
C2199 C2198 1.362 . S
H2200 C2206 0.930 . S
H2201 C2209 0.930 . S
H2202 C2210 0.930 . S
H2203 C2211 0.930 . S
H2204 C2214 0.930 . S
H2205 C2215 0.930 . S
C2206 H2200 0.930 . S
C2206 C2207 1.355 . S
C2206 C2208 1.415 . S
C2207 C2206 1.355 . S
C2207 C2209 1.419 . S
C2208 C2206 1.415 . S
C2208 C2213 1.425 . S
C2208 C2215 1.409 . S
C2209 H2201 0.930 . S
C2209 C2207 1.419 . S
C2209 C2210 1.362 . S
C2210 H2202 0.930 . S
C2210 C2209 1.362 . S
C2210 C2213 1.409 . S
C2211 H2203 0.930 . S
C2211 C2212 1.355 . S
C2211 C2213 1.415 . S
C2212 C2211 1.355 . S
C2212 C2214 1.419 . S
C2213 C2208 1.425 . S
C2213 C2210 1.409 . S
C2213 C2211 1.415 . S
C2214 H2204 0.930 . S
C2214 C2212 1.419 . S
C2214 C2215 1.362 . S
C2215 H2205 0.930 . S
C2215 C2208 1.409 . S
C2215 C2214 1.362 . S
H2216 C2222 0.930 . S
H2217 C2225 0.930 . S
H2218 C2226 0.930 . S
H2219 C2227 0.930 . S
H2220 C2230 0.930 . S
H2221 C2231 0.930 . S
C2222 H2216 0.930 . S
C2222 C2223 1.355 . S
C2222 C2224 1.415 . S
C2223 C2222 1.355 . S
C2223 C2225 1.419 . S
C2224 C2222 1.415 . S
C2224 C2229 1.425 . S
C2224 C2231 1.409 . S
C2225 H2217 0.930 . S
C2225 C2223 1.419 . S
C2225 C2226 1.362 . S
C2226 H2218 0.930 . S
C2226 C2225 1.362 . S
C2226 C2229 1.409 . S
C2227 H2219 0.930 . S
C2227 C2228 1.355 . S
C2227 C2229 1.415 . S
C2228 C2227 1.355 . S
C2228 C2230 1.419 . S
C2229 C2224 1.425 . S
C2229 C2226 1.409 . S
C2229 C2227 1.415 . S
C2230 H2220 0.930 . S
C2230 C2228 1.419 . S
C2230 C2231 1.362 . S
C2231 H2221 0.930 . S
C2231 C2224 1.409 . S
C2231 C2230 1.362 . S
H2232 C2238 0.930 . S
H2233 C2241 0.930 . S
H2234 C2242 0.930 . S
H2235 C2243 0.930 . S
H2236 C2246 0.930 . S
H2237 C2247 0.930 . S
C2238 H2232 0.930 . S
C2238 C2239 1.355 . S
C2238 C2240 1.415 . S
C2239 C2238 1.355 . S
C2239 C2241 1.419 . S
C2240 C2238 1.415 . S
C2240 C2245 1.425 . S
C2240 C2247 1.409 . S
C2241 H2233 0.930 . S
C2241 C2239 1.419 . S
C2241 C2242 1.362 . S
C2242 H2234 0.930 . S
C2242 C2241 1.362 . S
C2242 C2245 1.409 . S
C2243 H2235 0.930 . S
C2243 C2244 1.355 . S
C2243 C2245 1.415 . S
C2244 C2243 1.355 . S
C2244 C2246 1.419 . S
C2245 C2240 1.425 . S
C2245 C2242 1.409 . S
C2245 C2243 1.415 . S
C2246 H2236 0.930 . S
C2246 C2244 1.419 . S
C2246 C2247 1.362 . S
C2247 H2237 0.930 . S
C2247 C2240 1.409 . S
C2247 C2246 1.362 . S
H2248 C2254 0.930 . S
H2249 C2257 0.930 . S
H2250 C2258 0.930 . S
H2251 C2259 0.930 . S
H2252 C2262 0.930 . S
H2253 C2263 0.930 . S
C2254 H2248 0.930 . S
C2254 C2255 1.355 . S
C2254 C2256 1.415 . S
C2255 C2254 1.355 . S
C2255 C2257 1.419 . S
C2256 C2254 1.415 . S
C2256 C2261 1.425 . S
C2256 C2263 1.409 . S
C2257 H2249 0.930 . S
C2257 C2255 1.419 . S
C2257 C2258 1.362 . S
C2258 H2250 0.930 . S
C2258 C2257 1.362 . S
C2258 C2261 1.409 . S
C2259 H2251 0.930 . S
C2259 C2260 1.355 . S
C2259 C2261 1.415 . S
C2260 C2259 1.355 . S
C2260 C2262 1.419 . S
C2261 C2256 1.425 . S
C2261 C2258 1.409 . S
C2261 C2259 1.415 . S
C2262 H2252 0.930 . S
C2262 C2260 1.419 . S
C2262 C2263 1.362 . S
C2263 H2253 0.930 . S
C2263 C2256 1.409 . S
C2263 C2262 1.362 . S
H2264 C2270 0.930 . S
H2265 C2273 0.930 . S
H2266 C2274 0.930 . S
H2267 C2275 0.930 . S
H2268 C2278 0.930 . S
H2269 C2279 0.930 . S
C2270 H2264 0.930 . S
C2270 C2271 1.355 . S
C2270 C2272 1.415 . S
C2271 C2270 1.355 . S
C2271 C2273 1.419 . S
C2272 C2270 1.415 . S
C2272 C2277 1.425 . S
C2272 C2279 1.409 . S
C2273 H2265 0.930 . S
C2273 C2271 1.419 . S
C2273 C2274 1.362 . S
C2274 H2266 0.930 . S
C2274 C2273 1.362 . S
C2274 C2277 1.409 . S
C2275 H2267 0.930 . S
C2275 C2276 1.355 . S
C2275 C2277 1.415 . S
C2276 C2275 1.355 . S
C2276 C2278 1.419 . S
C2277 C2272 1.425 . S
C2277 C2274 1.409 . S
C2277 C2275 1.415 . S
C2278 H2268 0.930 . S
C2278 C2276 1.419 . S
C2278 C2279 1.362 . S
C2279 H2269 0.930 . S
C2279 C2272 1.409 . S
C2279 C2278 1.362 . S
H2280 C2286 0.930 . S
H2281 C2289 0.930 . S
H2282 C2290 0.930 . S
H2283 C2291 0.930 . S
H2284 C2294 0.930 . S
H2285 C2295 0.930 . S
C2286 H2280 0.930 . S
C2286 C2287 1.355 . S
C2286 C2288 1.415 . S
C2287 C2286 1.355 . S
C2287 C2289 1.419 . S
C2288 C2286 1.415 . S
C2288 C2293 1.425 . S
C2288 C2295 1.409 . S
C2289 H2281 0.930 . S
C2289 C2287 1.419 . S
C2289 C2290 1.362 . S
C2290 H2282 0.930 . S
C2290 C2289 1.362 . S
C2290 C2293 1.409 . S
C2291 H2283 0.930 . S
C2291 C2292 1.355 . S
C2291 C2293 1.415 . S
C2292 C2291 1.355 . S
C2292 C2294 1.419 . S
C2293 C2288 1.425 . S
C2293 C2290 1.409 . S
C2293 C2291 1.415 . S
C2294 H2284 0.930 . S
C2294 C2292 1.419 . S
C2294 C2295 1.362 . S
C2295 H2285 0.930 . S
C2295 C2288 1.409 . S
C2295 C2294 1.362 . S
H2296 C2302 0.930 . S
H2297 C2305 0.930 . S
H2298 C2306 0.930 . S
H2299 C2307 0.930 . S
H2300 C2310 0.930 . S
H2301 C2311 0.930 . S
C2302 H2296 0.930 . S
C2302 C2303 1.355 . S
C2302 C2304 1.415 . S
C2303 C2302 1.355 . S
C2303 C2305 1.419 . S
C2304 C2302 1.415 . S
C2304 C2309 1.425 . S
C2304 C2311 1.409 . S
C2305 H2297 0.930 . S
C2305 C2303 1.419 . S
C2305 C2306 1.362 . S
C2306 H2298 0.930 . S
C2306 C2305 1.362 . S
C2306 C2309 1.409 . S
C2307 H2299 0.930 . S
C2307 C2308 1.355 . S
C2307 C2309 1.415 . S
C2308 C2307 1.355 . S
C2308 C2310 1.419 . S
C2309 C2304 1.425 . S
C2309 C2306 1.409 . S
C2309 C2307 1.415 . S
C2310 H2300 0.930 . S
C2310 C2308 1.419 . S
C2310 C2311 1.362 . S
C2311 H2301 0.930 . S
C2311 C2304 1.409 . S
C2311 C2310 1.362 . S
H2312 C2318 0.930 . S
H2313 C2321 0.930 . S
H2314 C2322 0.930 . S
H2315 C2323 0.930 . S
H2316 C2326 0.930 . S
H2317 C2327 0.930 . S
C2318 H2312 0.930 . S
C2318 C2319 1.355 . S
C2318 C2320 1.415 . S
C2319 C2318 1.355 . S
C2319 C2321 1.419 . S
C2320 C2318 1.415 . S
C2320 C2325 1.425 . S
C2320 C2327 1.409 . S
C2321 H2313 0.930 . S
C2321 C2319 1.419 . S
C2321 C2322 1.362 . S
C2322 H2314 0.930 . S
C2322 C2321 1.362 . S
C2322 C2325 1.409 . S
C2323 H2315 0.930 . S
C2323 C2324 1.355 . S
C2323 C2325 1.415 . S
C2324 C2323 1.355 . S
C2324 C2326 1.419 . S
C2325 C2320 1.425 . S
C2325 C2322 1.409 . S
C2325 C2323 1.415 . S
C2326 H2316 0.930 . S
C2326 C2324 1.419 . S
C2326 C2327 1.362 . S
C2327 H2317 0.930 . S
C2327 C2320 1.409 . S
C2327 C2326 1.362 . S
H2328 C2334 0.930 . S
H2329 C2337 0.930 . S
H2330 C2338 0.930 . S
H2331 C2339 0.930 . S
H2332 C2342 0.930 . S
H2333 C2343 0.930 . S
C2334 H2328 0.930 . S
C2334 C2335 1.355 . S
C2334 C2336 1.415 . S
C2335 C2334 1.355 . S
C2335 C2337 1.419 . S
C2336 C2334 1.415 . S
C2336 C2341 1.425 . S
C2336 C2343 1.409 . S
C2337 H2329 0.930 . S
C2337 C2335 1.419 . S
C2337 C2338 1.362 . S
C2338 H2330 0.930 . S
C2338 C2337 1.362 . S
C2338 C2341 1.409 . S
C2339 H2331 0.930 . S
C2339 C2340 1.355 . S
C2339 C2341 1.415 . S
C2340 C2339 1.355 . S
C2340 C2342 1.419 . S
C2341 C2336 1.425 . S
C2341 C2338 1.409 . S
C2341 C2339 1.415 . S
C2342 H2332 0.930 . S
C2342 C2340 1.419 . S
C2342 C2343 1.362 . S
C2343 H2333 0.930 . S
C2343 C2336 1.409 . S
C2343 C2342 1.362 . S
H2344 C2350 0.930 . S
H2345 C2353 0.930 . S
H2346 C2354 0.930 . S
H2347 C2355 0.930 . S
H2348 C2358 0.930 . S
H2349 C2359 0.930 . S
C2350 H2344 0.930 . S
C2350 C2351 1.355 . S
C2350 C2352 1.415 . S
C2351 C2350 1.355 . S
C2351 C2353 1.419 . S
C2352 C2350 1.415 . S
C2352 C2357 1.425 . S
C2352 C2359 1.409 . S
C2353 H2345 0.930 . S
C2353 C2351 1.419 . S
C2353 C2354 1.362 . S
C2354 H2346 0.930 . S
C2354 C2353 1.362 . S
C2354 C2357 1.409 . S
C2355 H2347 0.930 . S
C2355 C2356 1.355 . S
C2355 C2357 1.415 . S
C2356 C2355 1.355 . S
C2356 C2358 1.419 . S
C2357 C2352 1.425 . S
C2357 C2354 1.409 . S
C2357 C2355 1.415 . S
C2358 H2348 0.930 . S
C2358 C2356 1.419 . S
C2358 C2359 1.362 . S
C2359 H2349 0.930 . S
C2359 C2352 1.409 . S
C2359 C2358 1.362 . S
H2360 C2366 0.930 . S
H2361 C2369 0.930 . S
H2362 C2370 0.930 . S
H2363 C2371 0.930 . S
H2364 C2374 0.930 . S
H2365 C2375 0.930 . S
C2366 H2360 0.930 . S
C2366 C2367 1.355 . S
C2366 C2368 1.415 . S
C2367 C2366 1.355 . S
C2367 C2369 1.419 . S
C2368 C2366 1.415 . S
C2368 C2373 1.425 . S
C2368 C2375 1.409 . S
C2369 H2361 0.930 . S
C2369 C2367 1.419 . S
C2369 C2370 1.362 . S
C2370 H2362 0.930 . S
C2370 C2369 1.362 . S
C2370 C2373 1.409 . S
C2371 H2363 0.930 . S
C2371 C2372 1.355 . S
C2371 C2373 1.415 . S
C2372 C2371 1.355 . S
C2372 C2374 1.419 . S
C2373 C2368 1.425 . S
C2373 C2370 1.409 . S
C2373 C2371 1.415 . S
C2374 H2364 0.930 . S
C2374 C2372 1.419 . S
C2374 C2375 1.362 . S
C2375 H2365 0.930 . S
C2375 C2368 1.409 . S
C2375 C2374 1.362 . S
H2376 C2382 0.930 . S
H2377 C2385 0.930 . S
H2378 C2386 0.930 . S
H2379 C2387 0.930 . S
H2380 C2390 0.930 . S
H2381 C2391 0.930 . S
C2382 H2376 0.930 . S
C2382 C2383 1.355 . S
C2382 C2384 1.415 . S
C2383 C2382 1.355 . S
C2383 C2385 1.419 . S
C2384 C2382 1.415 . S
C2384 C2389 1.425 . S
C2384 C2391 1.409 . S
C2385 H2377 0.930 . S
C2385 C2383 1.419 . S
C2385 C2386 1.362 . S
C2386 H2378 0.930 . S
C2386 C2385 1.362 . S
C2386 C2389 1.409 . S
C2387 H2379 0.930 . S
C2387 C2388 1.355 . S
C2387 C2389 1.415 . S
C2388 C2387 1.355 . S
C2388 C2390 1.419 . S
C2389 C2384 1.425 . S
C2389 C2386 1.409 . S
C2389 C2387 1.415 . S
C2390 H2380 0.930 . S
C2390 C2388 1.419 . S
C2390 C2391 1.362 . S
C2391 H2381 0.930 . S
C2391 C2384 1.409 . S
C2391 C2390 1.362 . S
H2392 C2398 0.930 . S
H2393 C2401 0.930 . S
H2394 C2402 0.930 . S
H2395 C2403 0.930 . S
H2396 C2406 0.930 . S
H2397 C2407 0.930 . S
C2398 H2392 0.930 . S
C2398 C2399 1.355 . S
C2398 C2400 1.415 . S
C2399 C2398 1.355 . S
C2399 C2401 1.419 . S
C2400 C2398 1.415 . S
C2400 C2405 1.425 . S
C2400 C2407 1.409 . S
C2401 H2393 0.930 . S
C2401 C2399 1.419 . S
C2401 C2402 1.362 . S
C2402 H2394 0.930 . S
C2402 C2401 1.362 . S
C2402 C2405 1.409 . S
C2403 H2395 0.930 . S
C2403 C2404 1.355 . S
C2403 C2405 1.415 . S
C2404 C2403 1.355 . S
C2404 C2406 1.419 . S
C2405 C2400 1.425 . S
C2405 C2402 1.409 . S
C2405 C2403 1.415 . S
C2406 H2396 0.930 . S
C2406 C2404 1.419 . S
C2406 C2407 1.362 . S
C2407 H2397 0.930 . S
C2407 C2400 1.409 . S
C2407 C2406 1.362 . S
H2408 C2414 0.930 . S
H2409 C2417 0.930 . S
H2410 C2418 0.930 . S
H2411 C2419 0.930 . S
H2412 C2422 0.930 . S
H2413 C2423 0.930 . S
C2414 H2408 0.930 . S
C2414 C2415 1.355 . S
C2414 C2416 1.415 . S
C2415 C2414 1.355 . S
C2415 C2417 1.419 . S
C2416 C2414 1.415 . S
C2416 C2421 1.425 . S
C2416 C2423 1.409 . S
C2417 H2409 0.930 . S
C2417 C2415 1.419 . S
C2417 C2418 1.362 . S
C2418 H2410 0.930 . S
C2418 C2417 1.362 . S
C2418 C2421 1.409 . S
C2419 H2411 0.930 . S
C2419 C2420 1.355 . S
C2419 C2421 1.415 . S
C2420 C2419 1.355 . S
C2420 C2422 1.419 . S
C2421 C2416 1.425 . S
C2421 C2418 1.409 . S
C2421 C2419 1.415 . S
C2422 H2412 0.930 . S
C2422 C2420 1.419 . S
C2422 C2423 1.362 . S
C2423 H2413 0.930 . S
C2423 C2416 1.409 . S
C2423 C2422 1.362 . S
H2424 C2430 0.930 . S
H2425 C2433 0.930 . S
H2426 C2434 0.930 . S
H2427 C2435 0.930 . S
H2428 C2438 0.930 . S
H2429 C2439 0.930 . S
C2430 H2424 0.930 . S
C2430 C2431 1.355 . S
C2430 C2432 1.415 . S
C2431 C2430 1.355 . S
C2431 C2433 1.419 . S
C2432 C2430 1.415 . S
C2432 C2437 1.425 . S
C2432 C2439 1.409 . S
C2433 H2425 0.930 . S
C2433 C2431 1.419 . S
C2433 C2434 1.362 . S
C2434 H2426 0.930 . S
C2434 C2433 1.362 . S
C2434 C2437 1.409 . S
C2435 H2427 0.930 . S
C2435 C2436 1.355 . S
C2435 C2437 1.415 . S
C2436 C2435 1.355 . S
C2436 C2438 1.419 . S
C2437 C2432 1.425 . S
C2437 C2434 1.409 . S
C2437 C2435 1.415 . S
C2438 H2428 0.930 . S
C2438 C2436 1.419 . S
C2438 C2439 1.362 . S
C2439 H2429 0.930 . S
C2439 C2432 1.409 . S
C2439 C2438 1.362 . S
H2440 C2446 0.930 . S
H2441 C2449 0.930 . S
H2442 C2450 0.930 . S
H2443 C2451 0.930 . S
H2444 C2454 0.930 . S
H2445 C2455 0.930 . S
C2446 H2440 0.930 . S
C2446 C2447 1.355 . S
C2446 C2448 1.415 . S
C2447 C2446 1.355 . S
C2447 C2449 1.419 . S
C2448 C2446 1.415 . S
C2448 C2453 1.425 . S
C2448 C2455 1.409 . S
C2449 H2441 0.930 . S
C2449 C2447 1.419 . S
C2449 C2450 1.362 . S
C2450 H2442 0.930 . S
C2450 C2449 1.362 . S
C2450 C2453 1.409 . S
C2451 H2443 0.930 . S
C2451 C2452 1.355 . S
C2451 C2453 1.415 . S
C2452 C2451 1.355 . S
C2452 C2454 1.419 . S
C2453 C2448 1.425 . S
C2453 C2450 1.409 . S
C2453 C2451 1.415 . S
C2454 H2444 0.930 . S
C2454 C2452 1.419 . S
C2454 C2455 1.362 . S
C2455 H2445 0.930 . S
C2455 C2448 1.409 . S
C2455 C2454 1.362 . S
H2456 C2462 0.930 . S
H2457 C2465 0.930 . S
H2458 C2466 0.930 . S
H2459 C2467 0.930 . S
H2460 C2470 0.930 . S
H2461 C2471 0.930 . S
C2462 H2456 0.930 . S
C2462 C2463 1.355 . S
C2462 C2464 1.415 . S
C2463 C2462 1.355 . S
C2463 C2465 1.419 . S
C2464 C2462 1.415 . S
C2464 C2469 1.425 . S
C2464 C2471 1.409 . S
C2465 H2457 0.930 . S
C2465 C2463 1.419 . S
C2465 C2466 1.362 . S
C2466 H2458 0.930 . S
C2466 C2465 1.362 . S
C2466 C2469 1.409 . S
C2467 H2459 0.930 . S
C2467 C2468 1.355 . S
C2467 C2469 1.415 . S
C2468 C2467 1.355 . S
C2468 C2470 1.419 . S
C2469 C2464 1.425 . S
C2469 C2466 1.409 . S
C2469 C2467 1.415 . S
C2470 H2460 0.930 . S
C2470 C2468 1.419 . S
C2470 C2471 1.362 . S
C2471 H2461 0.930 . S
C2471 C2464 1.409 . S
C2471 C2470 1.362 . S
H2472 C2478 0.930 . S
H2473 C2481 0.930 . S
H2474 C2482 0.930 . S
H2475 C2483 0.930 . S
H2476 C2486 0.930 . S
H2477 C2487 0.930 . S
C2478 H2472 0.930 . S
C2478 C2479 1.355 . S
C2478 C2480 1.415 . S
C2479 C2478 1.355 . S
C2479 C2481 1.419 . S
C2480 C2478 1.415 . S
C2480 C2485 1.425 . S
C2480 C2487 1.409 . S
C2481 H2473 0.930 . S
C2481 C2479 1.419 . S
C2481 C2482 1.362 . S
C2482 H2474 0.930 . S
C2482 C2481 1.362 . S
C2482 C2485 1.409 . S
C2483 H2475 0.930 . S
C2483 C2484 1.355 . S
C2483 C2485 1.415 . S
C2484 C2483 1.355 . S
C2484 C2486 1.419 . S
C2485 C2480 1.425 . S
C2485 C2482 1.409 . S
C2485 C2483 1.415 . S
C2486 H2476 0.930 . S
C2486 C2484 1.419 . S
C2486 C2487 1.362 . S
C2487 H2477 0.930 . S
C2487 C2480 1.409 . S
C2487 C2486 1.362 . S
H2488 C2494 0.930 . S
H2489 C2497 0.930 . S
H2490 C2498 0.930 . S
H2491 C2499 0.930 . S
H2492 C2502 0.930 . S
H2493 C2503 0.930 . S
C2494 H2488 0.930 . S
C2494 C2495 1.355 . S
C2494 C2496 1.415 . S
C2495 C2494 1.355 . S
C2495 C2497 1.419 . S
C2496 C2494 1.415 . S
C2496 C2501 1.425 . S
C2496 C2503 1.409 . S
C2497 H2489 0.930 . S
C2497 C2495 1.419 . S
C2497 C2498 1.362 . S
C2498 H2490 0.930 . S
C2498 C2497 1.362 . S
C2498 C2501 1.409 . S
C2499 H2491 0.930 . S
C2499 C2500 1.355 . S
C2499 C2501 1.415 . S
C2500 C2499 1.355 . S
C2500 C2502 1.419 . S
C2501 C2496 1.425 . S
C2501 C2498 1.409 . S
C2501 C2499 1.415 . S
C2502 H2492 0.930 . S
C2502 C2500 1.419 . S
C2502 C2503 1.362 . S
C2503 H2493 0.930 . S
C2503 C2496 1.409 . S
C2503 C2502 1.362 . S
H2504 C2510 0.930 . S
H2505 C2513 0.930 . S
H2506 C2514 0.930 . S
H2507 C2515 0.930 . S
H2508 C2518 0.930 . S
H2509 C2519 0.930 . S
C2510 H2504 0.930 . S
C2510 C2511 1.355 . S
C2510 C2512 1.415 . S
C2511 C2510 1.355 . S
C2511 C2513 1.419 . S
C2512 C2510 1.415 . S
C2512 C2517 1.425 . S
C2512 C2519 1.409 . S
C2513 H2505 0.930 . S
C2513 C2511 1.419 . S
C2513 C2514 1.362 . S
C2514 H2506 0.930 . S
C2514 C2513 1.362 . S
C2514 C2517 1.409 . S
C2515 H2507 0.930 . S
C2515 C2516 1.355 . S
C2515 C2517 1.415 . S
C2516 C2515 1.355 . S
C2516 C2518 1.419 . S
C2517 C2512 1.425 . S
C2517 C2514 1.409 . S
C2517 C2515 1.415 . S
C2518 H2508 0.930 . S
C2518 C2516 1.419 . S
C2518 C2519 1.362 . S
C2519 H2509 0.930 . S
C2519 C2512 1.409 . S
C2519 C2518 1.362 . S
H2520 C2526 0.930 . S
H2521 C2529 0.930 . S
H2522 C2530 0.930 . S
H2523 C2531 0.930 . S
H2524 C2534 0.930 . S
H2525 C2535 0.930 . S
C2526 H2520 0.930 . S
C2526 C2527 1.355 . S
C2526 C2528 1.415 . S
C2527 C2526 1.355 . S
C2527 C2529 1.419 . S
C2528 C2526 1.415 . S
C2528 C2533 1.425 . S
C2528 C2535 1.409 . S
C2529 H2521 0.930 . S
C2529 C2527 1.419 . S
C2529 C2530 1.362 . S
C2530 H2522 0.930 . S
C2530 C2529 1.362 . S
C2530 C2533 1.409 . S
C2531 H2523 0.930 . S
C2531 C2532 1.355 . S
C2531 C2533 1.415 . S
C2532 C2531 1.355 . S
C2532 C2534 1.419 . S
C2533 C2528 1.425 . S
C2533 C2530 1.409 . S
C2533 C2531 1.415 . S
C2534 H2524 0.930 . S
C2534 C2532 1.419 . S
C2534 C2535 1.362 . S
C2535 H2525 0.930 . S
C2535 C2528 1.409 . S
C2535 C2534 1.362 . S
H2536 C2542 0.930 . S
H2537 C2545 0.930 . S
H2538 C2546 0.930 . S
H2539 C2547 0.930 . S
H2540 C2550 0.930 . S
H2541 C2551 0.930 . S
C2542 H2536 0.930 . S
C2542 C2543 1.355 . S
C2542 C2544 1.415 . S
C2543 C2542 1.355 . S
C2543 C2545 1.419 . S
C2544 C2542 1.415 . S
C2544 C2549 1.425 . S
C2544 C2551 1.409 . S
C2545 H2537 0.930 . S
C2545 C2543 1.419 . S
C2545 C2546 1.362 . S
C2546 H2538 0.930 . S
C2546 C2545 1.362 . S
C2546 C2549 1.409 . S
C2547 H2539 0.930 . S
C2547 C2548 1.355 . S
C2547 C2549 1.415 . S
C2548 C2547 1.355 . S
C2548 C2550 1.419 . S
C2549 C2544 1.425 . S
C2549 C2546 1.409 . S
C2549 C2547 1.415 . S
C2550 H2540 0.930 . S
C2550 C2548 1.419 . S
C2550 C2551 1.362 . S
C2551 H2541 0.930 . S
C2551 C2544 1.409 . S
C2551 C2550 1.362 . S
H2552 C2558 0.930 . S
H2553 C2561 0.930 . S
H2554 C2562 0.930 . S
H2555 C2563 0.930 . S
H2556 C2566 0.930 . S
H2557 C2567 0.930 . S
C2558 H2552 0.930 . S
C2558 C2559 1.355 . S
C2558 C2560 1.415 . S
C2559 C2558 1.355 . S
C2559 C2561 1.419 . S
C2560 C2558 1.415 . S
C2560 C2565 1.425 . S
C2560 C2567 1.409 . S
C2561 H2553 0.930 . S
C2561 C2559 1.419 . S
C2561 C2562 1.362 . S
C2562 H2554 0.930 . S
C2562 C2561 1.362 . S
C2562 C2565 1.409 . S
C2563 H2555 0.930 . S
C2563 C2564 1.355 . S
C2563 C2565 1.415 . S
C2564 C2563 1.355 . S
C2564 C2566 1.419 . S
C2565 C2560 1.425 . S
C2565 C2562 1.409 . S
C2565 C2563 1.415 . S
C2566 H2556 0.930 . S
C2566 C2564 1.419 . S
C2566 C2567 1.362 . S
C2567 H2557 0.930 . S
C2567 C2560 1.409 . S
C2567 C2566 1.362 . S
H2568 C2574 0.930 . S
H2569 C2577 0.930 . S
H2570 C2578 0.930 . S
H2571 C2579 0.930 . S
H2572 C2582 0.930 . S
H2573 C2583 0.930 . S
C2574 H2568 0.930 . S
C2574 C2575 1.355 . S
C2574 C2576 1.415 . S
C2575 C2574 1.355 . S
C2575 C2577 1.419 . S
C2576 C2574 1.415 . S
C2576 C2581 1.425 . S
C2576 C2583 1.409 . S
C2577 H2569 0.930 . S
C2577 C2575 1.419 . S
C2577 C2578 1.362 . S
C2578 H2570 0.930 . S
C2578 C2577 1.362 . S
C2578 C2581 1.409 . S
C2579 H2571 0.930 . S
C2579 C2580 1.355 . S
C2579 C2581 1.415 . S
C2580 C2579 1.355 . S
C2580 C2582 1.419 . S
C2581 C2576 1.425 . S
C2581 C2578 1.409 . S
C2581 C2579 1.415 . S
C2582 H2572 0.930 . S
C2582 C2580 1.419 . S
C2582 C2583 1.362 . S
C2583 H2573 0.930 . S
C2583 C2576 1.409 . S
C2583 C2582 1.362 . S
H2584 C2590 0.930 . S
H2585 C2593 0.930 . S
H2586 C2594 0.930 . S
H2587 C2595 0.930 . S
H2588 C2598 0.930 . S
H2589 C2599 0.930 . S
C2590 H2584 0.930 . S
C2590 C2591 1.355 . S
C2590 C2592 1.415 . S
C2591 C2590 1.355 . S
C2591 C2593 1.419 . S
C2592 C2590 1.415 . S
C2592 C2597 1.425 . S
C2592 C2599 1.409 . S
C2593 H2585 0.930 . S
C2593 C2591 1.419 . S
C2593 C2594 1.362 . S
C2594 H2586 0.930 . S
C2594 C2593 1.362 . S
C2594 C2597 1.409 . S
C2595 H2587 0.930 . S
C2595 C2596 1.355 . S
C2595 C2597 1.415 . S
C2596 C2595 1.355 . S
C2596 C2598 1.419 . S
C2597 C2592 1.425 . S
C2597 C2594 1.409 . S
C2597 C2595 1.415 . S
C2598 H2588 0.930 . S
C2598 C2596 1.419 . S
C2598 C2599 1.362 . S
C2599 H2589 0.930 . S
C2599 C2592 1.409 . S
C2599 C2598 1.362 . S
H2600 C2606 0.930 . S
H2601 C2609 0.930 . S
H2602 C2610 0.930 . S
H2603 C2611 0.930 . S
H2604 C2614 0.930 . S
H2605 C2615 0.930 . S
C2606 H2600 0.930 . S
C2606 C2607 1.355 . S
C2606 C2608 1.415 . S
C2607 C2606 1.355 . S
C2607 C2609 1.419 . S
C2608 C2606 1.415 . S
C2608 C2613 1.425 . S
C2608 C2615 1.409 . S
C2609 H2601 0.930 . S
C2609 C2607 1.419 . S
C2609 C2610 1.362 . S
C2610 H2602 0.930 . S
C2610 C2609 1.362 . S
C2610 C2613 1.409 . S
C2611 H2603 0.930 . S
C2611 C2612 1.355 . S
C2611 C2613 1.415 . S
C2612 C2611 1.355 . S
C2612 C2614 1.419 . S
C2613 C2608 1.425 . S
C2613 C2610 1.409 . S
C2613 C2611 1.415 . S
C2614 H2604 0.930 . S
C2614 C2612 1.419 . S
C2614 C2615 1.362 . S
C2615 H2605 0.930 . S
C2615 C2608 1.409 . S
C2615 C2614 1.362 . S
H2616 C2622 0.930 . S
H2617 C2625 0.930 . S
H2618 C2626 0.930 . S
H2619 C2627 0.930 . S
H2620 C2630 0.930 . S
H2621 C2631 0.930 . S
C2622 H2616 0.930 . S
C2622 C2623 1.355 . S
C2622 C2624 1.415 . S
C2623 C2622 1.355 . S
C2623 C2625 1.419 . S
C2624 C2622 1.415 . S
C2624 C2629 1.425 . S
C2624 C2631 1.409 . S
C2625 H2617 0.930 . S
C2625 C2623 1.419 . S
C2625 C2626 1.362 . S
C2626 H2618 0.930 . S
C2626 C2625 1.362 . S
C2626 C2629 1.409 . S
C2627 H2619 0.930 . S
C2627 C2628 1.355 . S
C2627 C2629 1.415 . S
C2628 C2627 1.355 . S
C2628 C2630 1.419 . S
C2629 C2624 1.425 . S
C2629 C2626 1.409 . S
C2629 C2627 1.415 . S
C2630 H2620 0.930 . S
C2630 C2628 1.419 . S
C2630 C2631 1.362 . S
C2631 H2621 0.930 . S
C2631 C2624 1.409 . S
C2631 C2630 1.362 . S
H2632 C2638 0.930 . S
H2633 C2641 0.930 . S
H2634 C2642 0.930 . S
H2635 C2643 0.930 . S
H2636 C2646 0.930 . S
H2637 C2647 0.930 . S
C2638 H2632 0.930 . S
C2638 C2639 1.355 . S
C2638 C2640 1.415 . S
C2639 C2638 1.355 . S
C2639 C2641 1.419 . S
C2640 C2638 1.415 . S
C2640 C2645 1.425 . S
C2640 C2647 1.409 . S
C2641 H2633 0.930 . S
C2641 C2639 1.419 . S
C2641 C2642 1.362 . S
C2642 H2634 0.930 . S
C2642 C2641 1.362 . S
C2642 C2645 1.409 . S
C2643 H2635 0.930 . S
C2643 C2644 1.355 . S
C2643 C2645 1.415 . S
C2644 C2643 1.355 . S
C2644 C2646 1.419 . S
C2645 C2640 1.425 . S
C2645 C2642 1.409 . S
C2645 C2643 1.415 . S
C2646 H2636 0.930 . S
C2646 C2644 1.419 . S
C2646 C2647 1.362 . S
C2647 H2637 0.930 . S
C2647 C2640 1.409 . S
C2647 C2646 1.362 . S
H2648 C2654 0.930 . S
H2649 C2657 0.930 . S
H2650 C2658 0.930 . S
H2651 C2659 0.930 . S
H2652 C2662 0.930 . S
H2653 C2663 0.930 . S
C2654 H2648 0.930 . S
C2654 C2655 1.355 . S
C2654 C2656 1.415 . S
C2655 C2654 1.355 . S
C2655 C2657 1.419 . S
C2656 C2654 1.415 . S
C2656 C2661 1.425 . S
C2656 C2663 1.409 . S
C2657 H2649 0.930 . S
C2657 C2655 1.419 . S
C2657 C2658 1.362 . S
C2658 H2650 0.930 . S
C2658 C2657 1.362 . S
C2658 C2661 1.409 . S
C2659 H2651 0.930 . S
C2659 C2660 1.355 . S
C2659 C2661 1.415 . S
C2660 C2659 1.355 . S
C2660 C2662 1.419 . S
C2661 C2656 1.425 . S
C2661 C2658 1.409 . S
C2661 C2659 1.415 . S
C2662 H2652 0.930 . S
C2662 C2660 1.419 . S
C2662 C2663 1.362 . S
C2663 H2653 0.930 . S
C2663 C2656 1.409 . S
C2663 C2662 1.362 . S
H2664 C2670 0.930 . S
H2665 C2673 0.930 . S
H2666 C2674 0.930 . S
H2667 C2675 0.930 . S
H2668 C2678 0.930 . S
H2669 C2679 0.930 . S
C2670 H2664 0.930 . S
C2670 C2671 1.355 . S
C2670 C2672 1.415 . S
C2671 C2670 1.355 . S
C2671 C2673 1.419 . S
C2672 C2670 1.415 . S
C2672 C2677 1.425 . S
C2672 C2679 1.409 . S
C2673 H2665 0.930 . S
C2673 C2671 1.419 . S
C2673 C2674 1.362 . S
C2674 H2666 0.930 . S
C2674 C2673 1.362 . S
C2674 C2677 1.409 . S
C2675 H2667 0.930 . S
C2675 C2676 1.355 . S
C2675 C2677 1.415 . S
C2676 C2675 1.355 . S
C2676 C2678 1.419 . S
C2677 C2672 1.425 . S
C2677 C2674 1.409 . S
C2677 C2675 1.415 . S
C2678 H2668 0.930 . S
C2678 C2676 1.419 . S
C2678 C2679 1.362 . S
C2679 H2669 0.930 . S
C2679 C2672 1.409 . S
C2679 C2678 1.362 . S
H2680 C2686 0.930 . S
H2681 C2689 0.930 . S
H2682 C2690 0.930 . S
H2683 C2691 0.930 . S
H2684 C2694 0.930 . S
H2685 C2695 0.930 . S
C2686 H2680 0.930 . S
C2686 C2687 1.355 . S
C2686 C2688 1.415 . S
C2687 C2686 1.355 . S
C2687 C2689 1.419 . S
C2688 C2686 1.415 . S
C2688 C2693 1.425 . S
C2688 C2695 1.409 . S
C2689 H2681 0.930 . S
C2689 C2687 1.419 . S
C2689 C2690 1.362 . S
C2690 H2682 0.930 . S
C2690 C2689 1.362 . S
C2690 C2693 1.409 . S
C2691 H2683 0.930 . S
C2691 C2692 1.355 . S
C2691 C2693 1.415 . S
C2692 C2691 1.355 . S
C2692 C2694 1.419 . S
C2693 C2688 1.425 . S
C2693 C2690 1.409 . S
C2693 C2691 1.415 . S
C2694 H2684 0.930 . S
C2694 C2692 1.419 . S
C2694 C2695 1.362 . S
C2695 H2685 0.930 . S
C2695 C2688 1.409 . S
C2695 C2694 1.362 . S
H2696 C2702 0.930 . S
H2697 C2705 0.930 . S
H2698 C2706 0.930 . S
H2699 C2707 0.930 . S
H2700 C2710 0.930 . S
H2701 C2711 0.930 . S
C2702 H2696 0.930 . S
C2702 C2703 1.355 . S
C2702 C2704 1.415 . S
C2703 C2702 1.355 . S
C2703 C2705 1.419 . S
C2704 C2702 1.415 . S
C2704 C2709 1.425 . S
C2704 C2711 1.409 . S
C2705 H2697 0.930 . S
C2705 C2703 1.419 . S
C2705 C2706 1.362 . S
C2706 H2698 0.930 . S
C2706 C2705 1.362 . S
C2706 C2709 1.409 . S
C2707 H2699 0.930 . S
C2707 C2708 1.355 . S
C2707 C2709 1.415 . S
C2708 C2707 1.355 . S
C2708 C2710 1.419 . S
C2709 C2704 1.425 . S
C2709 C2706 1.409 . S
C2709 C2707 1.415 . S
C2710 H2700 0.930 . S
C2710 C2708 1.419 . S
C2710 C2711 1.362 . S
C2711 H2701 0.930 . S
C2711 C2704 1.409 . S
C2711 C2710 1.362 . S
H2712 C2718 0.930 . S
H2713 C2721 0.930 . S
H2714 C2722 0.930 . S
H2715 C2723 0.930 . S
H2716 C2726 0.930 . S
H2717 C2727 0.930 . S
C2718 H2712 0.930 . S
C2718 C2719 1.355 . S
C2718 C2720 1.415 . S
C2719 C2718 1.355 . S
C2719 C2721 1.419 . S
C2720 C2718 1.415 . S
C2720 C2725 1.425 . S
C2720 C2727 1.409 . S
C2721 H2713 0.930 . S
C2721 C2719 1.419 . S
C2721 C2722 1.362 . S
C2722 H2714 0.930 . S
C2722 C2721 1.362 . S
C2722 C2725 1.409 . S
C2723 H2715 0.930 . S
C2723 C2724 1.355 . S
C2723 C2725 1.415 . S
C2724 C2723 1.355 . S
C2724 C2726 1.419 . S
C2725 C2720 1.425 . S
C2725 C2722 1.409 . S
C2725 C2723 1.415 . S
C2726 H2716 0.930 . S
C2726 C2724 1.419 . S
C2726 C2727 1.362 . S
C2727 H2717 0.930 . S
C2727 C2720 1.409 . S
C2727 C2726 1.362 . S
H2728 C2734 0.930 . S
H2729 C2737 0.930 . S
H2730 C2738 0.930 . S
H2731 C2739 0.930 . S
H2732 C2742 0.930 . S
H2733 C2743 0.930 . S
C2734 H2728 0.930 . S
C2734 C2735 1.355 . S
C2734 C2736 1.415 . S
C2735 C2734 1.355 . S
C2735 C2737 1.419 . S
C2736 C2734 1.415 . S
C2736 C2741 1.425 . S
C2736 C2743 1.409 . S
C2737 H2729 0.930 . S
C2737 C2735 1.419 . S
C2737 C2738 1.362 . S
C2738 H2730 0.930 . S
C2738 C2737 1.362 . S
C2738 C2741 1.409 . S
C2739 H2731 0.930 . S
C2739 C2740 1.355 . S
C2739 C2741 1.415 . S
C2740 C2739 1.355 . S
C2740 C2742 1.419 . S
C2741 C2736 1.425 . S
C2741 C2738 1.409 . S
C2741 C2739 1.415 . S
C2742 H2732 0.930 . S
C2742 C2740 1.419 . S
C2742 C2743 1.362 . S
C2743 H2733 0.930 . S
C2743 C2736 1.409 . S
C2743 C2742 1.362 . S
H2744 C2750 0.930 . S
H2745 C2753 0.930 . S
H2746 C2754 0.930 . S
H2747 C2755 0.930 . S
H2748 C2758 0.930 . S
H2749 C2759 0.930 . S
C2750 H2744 0.930 . S
C2750 C2751 1.355 . S
C2750 C2752 1.415 . S
C2751 C2750 1.355 . S
C2751 C2753 1.419 . S
C2752 C2750 1.415 . S
C2752 C2757 1.425 . S
C2752 C2759 1.409 . S
C2753 H2745 0.930 . S
C2753 C2751 1.419 . S
C2753 C2754 1.362 . S
C2754 H2746 0.930 . S
C2754 C2753 1.362 . S
C2754 C2757 1.409 . S
C2755 H2747 0.930 . S
C2755 C2756 1.355 . S
C2755 C2757 1.415 . S
C2756 C2755 1.355 . S
C2756 C2758 1.419 . S
C2757 C2752 1.425 . S
C2757 C2754 1.409 . S
C2757 C2755 1.415 . S
C2758 H2748 0.930 . S
C2758 C2756 1.419 . S
C2758 C2759 1.362 . S
C2759 H2749 0.930 . S
C2759 C2752 1.409 . S
C2759 C2758 1.362 . S
H2760 C2766 0.930 . S
H2761 C2769 0.930 . S
H2762 C2770 0.930 . S
H2763 C2771 0.930 . S
H2764 C2774 0.930 . S
H2765 C2775 0.930 . S
C2766 H2760 0.930 . S
C2766 C2767 1.355 . S
C2766 C2768 1.415 . S
C2767 C2766 1.355 . S
C2767 C2769 1.419 . S
C2768 C2766 1.415 . S
C2768 C2773 1.425 . S
C2768 C2775 1.409 . S
C2769 H2761 0.930 . S
C2769 C2767 1.419 . S
C2769 C2770 1.362 . S
C2770 H2762 0.930 . S
C2770 C2769 1.362 . S
C2770 C2773 1.409 . S
C2771 H2763 0.930 . S
C2771 C2772 1.355 . S
C2771 C2773 1.415 . S
C2772 C2771 1.355 . S
C2772 C2774 1.419 . S
C2773 C2768 1.425 . S
C2773 C2770 1.409 . S
C2773 C2771 1.415 . S
C2774 H2764 0.930 . S
C2774 C2772 1.419 . S
C2774 C2775 1.362 . S
C2775 H2765 0.930 . S
C2775 C2768 1.409 . S
C2775 C2774 1.362 . S
H2776 C2782 0.930 . S
H2777 C2785 0.930 . S
H2778 C2786 0.930 . S
H2779 C2787 0.930 . S
H2780 C2790 0.930 . S
H2781 C2791 0.930 . S
C2782 H2776 0.930 . S
C2782 C2783 1.355 . S
C2782 C2784 1.415 . S
C2783 C2782 1.355 . S
C2783 C2785 1.419 . S
C2784 C2782 1.415 . S
C2784 C2789 1.425 . S
C2784 C2791 1.409 . S
C2785 H2777 0.930 . S
C2785 C2783 1.419 . S
C2785 C2786 1.362 . S
C2786 H2778 0.930 . S
C2786 C2785 1.362 . S
C2786 C2789 1.409 . S
C2787 H2779 0.930 . S
C2787 C2788 1.355 . S
C2787 C2789 1.415 . S
C2788 C2787 1.355 . S
C2788 C2790 1.419 . S
C2789 C2784 1.425 . S
C2789 C2786 1.409 . S
C2789 C2787 1.415 . S
C2790 H2780 0.930 . S
C2790 C2788 1.419 . S
C2790 C2791 1.362 . S
C2791 H2781 0.930 . S
C2791 C2784 1.409 . S
C2791 C2790 1.362 . S
H2792 C2798 0.930 . S
H2793 C2801 0.930 . S
H2794 C2802 0.930 . S
H2795 C2803 0.930 . S
H2796 C2806 0.930 . S
H2797 C2807 0.930 . S
C2798 H2792 0.930 . S
C2798 C2799 1.355 . S
C2798 C2800 1.415 . S
C2799 C2798 1.355 . S
C2799 C2801 1.419 . S
C2800 C2798 1.415 . S
C2800 C2805 1.425 . S
C2800 C2807 1.409 . S
C2801 H2793 0.930 . S
C2801 C2799 1.419 . S
C2801 C2802 1.362 . S
C2802 H2794 0.930 . S
C2802 C2801 1.362 . S
C2802 C2805 1.409 . S
C2803 H2795 0.930 . S
C2803 C2804 1.355 . S
C2803 C2805 1.415 . S
C2804 C2803 1.355 . S
C2804 C2806 1.419 . S
C2805 C2800 1.425 . S
C2805 C2802 1.409 . S
C2805 C2803 1.415 . S
C2806 H2796 0.930 . S
C2806 C2804 1.419 . S
C2806 C2807 1.362 . S
C2807 H2797 0.930 . S
C2807 C2800 1.409 . S
C2807 C2806 1.362 . S
H2808 C2814 0.930 . S
H2809 C2817 0.930 . S
H2810 C2818 0.930 . S
H2811 C2819 0.930 . S
H2812 C2822 0.930 . S
H2813 C2823 0.930 . S
C2814 H2808 0.930 . S
C2814 C2815 1.355 . S
C2814 C2816 1.415 . S
C2815 C2814 1.355 . S
C2815 C2817 1.419 . S
C2816 C2814 1.415 . S
C2816 C2821 1.425 . S
C2816 C2823 1.409 . S
C2817 H2809 0.930 . S
C2817 C2815 1.419 . S
C2817 C2818 1.362 . S
C2818 H2810 0.930 . S
C2818 C2817 1.362 . S
C2818 C2821 1.409 . S
C2819 H2811 0.930 . S
C2819 C2820 1.355 . S
C2819 C2821 1.415 . S
C2820 C2819 1.355 . S
C2820 C2822 1.419 . S
C2821 C2816 1.425 . S
C2821 C2818 1.409 . S
C2821 C2819 1.415 . S
C2822 H2812 0.930 . S
C2822 C2820 1.419 . S
C2822 C2823 1.362 . S
C2823 H2813 0.930 . S
C2823 C2816 1.409 . S
C2823 C2822 1.362 . S
H2824 C2830 0.930 . S
H2825 C2833 0.930 . S
H2826 C2834 0.930 . S
H2827 C2835 0.930 . S
H2828 C2838 0.930 . S
H2829 C2839 0.930 . S
C2830 H2824 0.930 . S
C2830 C2831 1.355 . S
C2830 C2832 1.415 . S
C2831 C2830 1.355 . S
C2831 C2833 1.419 . S
C2832 C2830 1.415 . S
C2832 C2837 1.425 . S
C2832 C2839 1.409 . S
C2833 H2825 0.930 . S
C2833 C2831 1.419 . S
C2833 C2834 1.362 . S
C2834 H2826 0.930 . S
C2834 C2833 1.362 . S
C2834 C2837 1.409 . S
C2835 H2827 0.930 . S
C2835 C2836 1.355 . S
C2835 C2837 1.415 . S
C2836 C2835 1.355 . S
C2836 C2838 1.419 . S
C2837 C2832 1.425 . S
C2837 C2834 1.409 . S
C2837 C2835 1.415 . S
C2838 H2828 0.930 . S
C2838 C2836 1.419 . S
C2838 C2839 1.362 . S
C2839 H2829 0.930 . S
C2839 C2832 1.409 . S
C2839 C2838 1.362 . S
H2840 C2846 0.930 . S
H2841 C2849 0.930 . S
H2842 C2850 0.930 . S
H2843 C2851 0.930 . S
H2844 C2854 0.930 . S
H2845 C2855 0.930 . S
C2846 H2840 0.930 . S
C2846 C2847 1.355 . S
C2846 C2848 1.415 . S
C2847 C2846 1.355 . S
C2847 C2849 1.419 . S
C2848 C2846 1.415 . S
C2848 C2853 1.425 . S
C2848 C2855 1.409 . S
C2849 H2841 0.930 . S
C2849 C2847 1.419 . S
C2849 C2850 1.362 . S
C2850 H2842 0.930 . S
C2850 C2849 1.362 . S
C2850 C2853 1.409 . S
C2851 H2843 0.930 . S
C2851 C2852 1.355 . S
C2851 C2853 1.415 . S
C2852 C2851 1.355 . S
C2852 C2854 1.419 . S
C2853 C2848 1.425 . S
C2853 C2850 1.409 . S
C2853 C2851 1.415 . S
C2854 H2844 0.930 . S
C2854 C2852 1.419 . S
C2854 C2855 1.362 . S
C2855 H2845 0.930 . S
C2855 C2848 1.409 . S
C2855 C2854 1.362 . S
H2856 C2862 0.930 . S
H2857 C2865 0.930 . S
H2858 C2866 0.930 . S
H2859 C2867 0.930 . S
H2860 C2870 0.930 . S
H2861 C2871 0.930 . S
C2862 H2856 0.930 . S
C2862 C2863 1.355 . S
C2862 C2864 1.415 . S
C2863 C2862 1.355 . S
C2863 C2865 1.419 . S
C2864 C2862 1.415 . S
C2864 C2869 1.425 . S
C2864 C2871 1.409 . S
C2865 H2857 0.930 . S
C2865 C2863 1.419 . S
C2865 C2866 1.362 . S
C2866 H2858 0.930 . S
C2866 C2865 1.362 . S
C2866 C2869 1.409 . S
C2867 H2859 0.930 . S
C2867 C2868 1.355 . S
C2867 C2869 1.415 . S
C2868 C2867 1.355 . S
C2868 C2870 1.419 . S
C2869 C2864 1.425 . S
C2869 C2866 1.409 . S
C2869 C2867 1.415 . S
C2870 H2860 0.930 . S
C2870 C2868 1.419 . S
C2870 C2871 1.362 . S
C2871 H2861 0.930 . S
C2871 C2864 1.409 . S
C2871 C2870 1.362 . S
H2872 C2878 0.930 . S
H2873 C2881 0.930 . S
H2874 C2882 0.930 . S
H2875 C2883 0.930 . S
H2876 C2886 0.930 . S
H2877 C2887 0.930 . S
C2878 H2872 0.930 . S
C2878 C2879 1.355 . S
C2878 C2880 1.415 . S
C2879 C2878 1.355 . S
C2879 C2881 1.419 . S
C2880 C2878 1.415 . S
C2880 C2885 1.425 . S
C2880 C2887 1.409 . S
C2881 H2873 0.930 . S
C2881 C2879 1.419 . S
C2881 C2882 1.362 . S
C2882 H2874 0.930 . S
C2882 C2881 1.362 . S
C2882 C2885 1.409 . S
C2883 H2875 0.930 . S
C2883 C2884 1.355 . S
C2883 C2885 1.415 . S
C2884 C2883 1.355 . S
C2884 C2886 1.419 . S
C2885 C2880 1.425 . S
C2885 C2882 1.409 . S
C2885 C2883 1.415 . S
C2886 H2876 0.930 . S
C2886 C2884 1.419 . S
C2886 C2887 1.362 . S
C2887 H2877 0.930 . S
C2887 C2880 1.409 . S
C2887 C2886 1.362 . S
H2888 C2894 0.930 . S
H2889 C2897 0.930 . S
H2890 C2898 0.930 . S
H2891 C2899 0.930 . S
H2892 C2902 0.930 . S
H2893 C2903 0.930 . S
C2894 H2888 0.930 . S
C2894 C2895 1.355 . S
C2894 C2896 1.415 . S
C2895 C2894 1.355 . S
C2895 C2897 1.419 . S
C2896 C2894 1.415 . S
C2896 C2901 1.425 . S
C2896 C2903 1.409 . S
C2897 H2889 0.930 . S
C2897 C2895 1.419 . S
C2897 C2898 1.362 . S
C2898 H2890 0.930 . S
C2898 C2897 1.362 . S
C2898 C2901 1.409 . S
C2899 H2891 0.930 . S
C2899 C2900 1.355 . S
C2899 C2901 1.415 . S
C2900 C2899 1.355 . S
C2900 C2902 1.419 . S
C2901 C2896 1.425 . S
C2901 C2898 1.409 . S
C2901 C2899 1.415 . S
C2902 H2892 0.930 . S
C2902 C2900 1.419 . S
C2902 C2903 1.362 . S
C2903 H2893 0.930 . S
C2903 C2896 1.409 . S
C2903 C2902 1.362 . S
H2904 C2910 0.930 . S
H2905 C2913 0.930 . S
H2906 C2914 0.930 . S
H2907 C2915 0.930 . S
H2908 C2918 0.930 . S
H2909 C2919 0.930 . S
C2910 H2904 0.930 . S
C2910 C2911 1.355 . S
C2910 C2912 1.415 . S
C2911 C2910 1.355 . S
C2911 C2913 1.419 . S
C2912 C2910 1.415 . S
C2912 C2917 1.425 . S
C2912 C2919 1.409 . S
C2913 H2905 0.930 . S
C2913 C2911 1.419 . S
C2913 C2914 1.362 . S
C2914 H2906 0.930 . S
C2914 C2913 1.362 . S
C2914 C2917 1.409 . S
C2915 H2907 0.930 . S
C2915 C2916 1.355 . S
C2915 C2917 1.415 . S
C2916 C2915 1.355 . S
C2916 C2918 1.419 . S
C2917 C2912 1.425 . S
C2917 C2914 1.409 . S
C2917 C2915 1.415 . S
C2918 H2908 0.930 . S
C2918 C2916 1.419 . S
C2918 C2919 1.362 . S
C2919 H2909 0.930 . S
C2919 C2912 1.409 . S
C2919 C2918 1.362 . S
H2920 C2926 0.930 . S
H2921 C2929 0.930 . S
H2922 C2930 0.930 . S
H2923 C2931 0.930 . S
H2924 C2934 0.930 . S
H2925 C2935 0.930 . S
C2926 H2920 0.930 . S
C2926 C2927 1.355 . S
C2926 C2928 1.415 . S
C2927 C2926 1.355 . S
C2927 C2929 1.419 . S
C2928 C2926 1.415 . S
C2928 C2933 1.425 . S
C2928 C2935 1.409 . S
C2929 H2921 0.930 . S
C2929 C2927 1.419 . S
C2929 C2930 1.362 . S
C2930 H2922 0.930 . S
C2930 C2929 1.362 . S
C2930 C2933 1.409 . S
C2931 H2923 0.930 . S
C2931 C2932 1.355 . S
C2931 C2933 1.415 . S
C2932 C2931 1.355 . S
C2932 C2934 1.419 . S
C2933 C2928 1.425 . S
C2933 C2930 1.409 . S
C2933 C2931 1.415 . S
C2934 H2924 0.930 . S
C2934 C2932 1.419 . S
C2934 C2935 1.362 . S
C2935 H2925 0.930 . S
C2935 C2928 1.409 . S
C2935 C2934 1.362 . S
H2936 C2942 0.930 . S
H2937 C2945 0.930 . S
H2938 C2946 0.930 . S
H2939 C2947 0.930 . S
H2940 C2950 0.930 . S
H2941 C2951 0.930 . S
C2942 H2936 0.930 . S
C2942 C2943 1.355 . S
C2942 C2944 1.415 . S
C2943 C2942 1.355 . S
C2943 C2945 1.419 . S
C2944 C2942 1.415 . S
C2944 C2949 1.425 . S
C2944 C2951 1.409 . S
C2945 H2937 0.930 . S
C2945 C2943 1.419 . S
C2945 C2946 1.362 . S
C2946 H2938 0.930 . S
C2946 C2945 1.362 . S
C2946 C2949 1.409 . S
C2947 H2939 0.930 . S
C2947 C2948 1.355 . S
C2947 C2949 1.415 . S
C2948 C2947 1.355 . S
C2948 C2950 1.419 . S
C2949 C2944 1.425 . S
C2949 C2946 1.409 . S
C2949 C2947 1.415 . S
C2950 H2940 0.930 . S
C2950 C2948 1.419 . S
C2950 C2951 1.362 . S
C2951 H2941 0.930 . S
C2951 C2944 1.409 . S
C2951 C2950 1.362 . S
H2952 C2958 0.930 . S
H2953 C2961 0.930 . S
H2954 C2962 0.930 . S
H2955 C2963 0.930 . S
H2956 C2966 0.930 . S
H2957 C2967 0.930 . S
C2958 H2952 0.930 . S
C2958 C2959 1.355 . S
C2958 C2960 1.415 . S
C2959 C2958 1.355 . S
C2959 C2961 1.419 . S
C2960 C2958 1.415 . S
C2960 C2965 1.425 . S
C2960 C2967 1.409 . S
C2961 H2953 0.930 . S
C2961 C2959 1.419 . S
C2961 C2962 1.362 . S
C2962 H2954 0.930 . S
C2962 C2961 1.362 . S
C2962 C2965 1.409 . S
C2963 H2955 0.930 . S
C2963 C2964 1.355 . S
C2963 C2965 1.415 . S
C2964 C2963 1.355 . S
C2964 C2966 1.419 . S
C2965 C2960 1.425 . S
C2965 C2962 1.409 . S
C2965 C2963 1.415 . S
C2966 H2956 0.930 . S
C2966 C2964 1.419 . S
C2966 C2967 1.362 . S
C2967 H2957 0.930 . S
C2967 C2960 1.409 . S
C2967 C2966 1.362 . S
H2968 C2974 0.930 . S
H2969 C2977 0.930 . S
H2970 C2978 0.930 . S
H2971 C2979 0.930 . S
H2972 C2982 0.930 . S
H2973 C2983 0.930 . S
C2974 H2968 0.930 . S
C2974 C2975 1.355 . S
C2974 C2976 1.415 . S
C2975 C2974 1.355 . S
C2975 C2977 1.419 . S
C2976 C2974 1.415 . S
C2976 C2981 1.425 . S
C2976 C2983 1.409 . S
C2977 H2969 0.930 . S
C2977 C2975 1.419 . S
C2977 C2978 1.362 . S
C2978 H2970 0.930 . S
C2978 C2977 1.362 . S
C2978 C2981 1.409 . S
C2979 H2971 0.930 . S
C2979 C2980 1.355 . S
C2979 C2981 1.415 . S
C2980 C2979 1.355 . S
C2980 C2982 1.419 . S
C2981 C2976 1.425 . S
C2981 C2978 1.409 . S
C2981 C2979 1.415 . S
C2982 H2972 0.930 . S
C2982 C2980 1.419 . S
C2982 C2983 1.362 . S
C2983 H2973 0.930 . S
C2983 C2976 1.409 . S
C2983 C2982 1.362 . S
H2984 C2990 0.930 . S
H2985 C2993 0.930 . S
H2986 C2994 0.930 . S
H2987 C2995 0.930 . S
H2988 C2998 0.930 . S
H2989 C2999 0.930 . S
C2990 H2984 0.930 . S
C2990 C2991 1.355 . S
C2990 C2992 1.415 . S
C2991 C2990 1.355 . S
C2991 C2993 1.419 . S
C2992 C2990 1.415 . S
C2992 C2997 1.425 . S
C2992 C2999 1.409 . S
C2993 H2985 0.930 . S
C2993 C2991 1.419 . S
C2993 C2994 1.362 . S
C2994 H2986 0.930 . S
C2994 C2993 1.362 . S
C2994 C2997 1.409 . S
C2995 H2987 0.930 . S
C2995 C2996 1.355 . S
C2995 C2997 1.415 . S
C2996 C2995 1.355 . S
C2996 C2998 1.419 . S
C2997 C2992 1.425 . S
C2997 C2994 1.409 . S
C2997 C2995 1.415 . S
C2998 H2988 0.930 . S
C2998 C2996 1.419 . S
C2998 C2999 1.362 . S
C2999 H2989 0.930 . S
C2999 C2992 1.409 . S
C2999 C2998 1.362 . S
H3000 C3006 0.930 . S
H3001 C3009 0.930 . S
H3002 C3010 0.930 . S
H3003 C3011 0.930 . S
H3004 C3014 0.930 . S
H3005 C3015 0.930 . S
C3006 H3000 0.930 . S
C3006 C3007 1.355 . S
C3006 C3008 1.415 . S
C3007 C3006 1.355 . S
C3007 C3009 1.419 . S
C3008 C3006 1.415 . S
C3008 C3013 1.425 . S
C3008 C3015 1.409 . S
C3009 H3001 0.930 . S
C3009 C3007 1.419 . S
C3009 C3010 1.362 . S
C3010 H3002 0.930 . S
C3010 C3009 1.362 . S
C3010 C3013 1.409 . S
C3011 H3003 0.930 . S
C3011 C3012 1.355 . S
C3011 C3013 1.415 . S
C3012 C3011 1.355 . S
C3012 C3014 1.419 . S
C3013 C3008 1.425 . S
C3013 C3010 1.409 . S
C3013 C3011 1.415 . S
C3014 H3004 0.930 . S
C3014 C3012 1.419 . S
C3014 C3015 1.362 . S
C3015 H3005 0.930 . S
C3015 C3008 1.409 . S
C3015 C3014 1.362 . S
H3016 C3022 0.930 . S
H3017 C3025 0.930 . S
H3018 C3026 0.930 . S
H3019 C3027 0.930 . S
H3020 C3030 0.930 . S
H3021 C3031 0.930 . S
C3022 H3016 0.930 . S
C3022 C3023 1.355 . S
C3022 C3024 1.415 . S
C3023 C3022 1.355 . S
C3023 C3025 1.419 . S
C3024 C3022 1.415 . S
C3024 C3029 1.425 . S
C3024 C3031 1.409 . S
C3025 H3017 0.930 . S
C3025 C3023 1.419 . S
C3025 C3026 1.362 . S
C3026 H3018 0.930 . S
C3026 C3025 1.362 . S
C3026 C3029 1.409 . S
C3027 H3019 0.930 . S
C3027 C3028 1.355 . S
C3027 C3029 1.415 . S
C3028 C3027 1.355 . S
C3028 C3030 1.419 . S
C3029 C3024 1.425 . S
C3029 C3026 1.409 . S
C3029 C3027 1.415 . S
C3030 H3020 0.930 . S
C3030 C3028 1.419 . S
C3030 C3031 1.362 . S
C3031 H3021 0.930 . S
C3031 C3024 1.409 . S
C3031 C3030 1.362 . S
H3032 C3038 0.930 . S
H3033 C3041 0.930 . S
H3034 C3042 0.930 . S
H3035 C3043 0.930 . S
H3036 C3046 0.930 . S
H3037 C3047 0.930 . S
C3038 H3032 0.930 . S
C3038 C3039 1.355 . S
C3038 C3040 1.415 . S
C3039 C3038 1.355 . S
C3039 C3041 1.419 . S
C3040 C3038 1.415 . S
C3040 C3045 1.425 . S
C3040 C3047 1.409 . S
C3041 H3033 0.930 . S
C3041 C3039 1.419 . S
C3041 C3042 1.362 . S
C3042 H3034 0.930 . S
C3042 C3041 1.362 . S
C3042 C3045 1.409 . S
C3043 H3035 0.930 . S
C3043 C3044 1.355 . S
C3043 C3045 1.415 . S
C3044 C3043 1.355 . S
C3044 C3046 1.419 . S
C3045 C3040 1.425 . S
C3045 C3042 1.409 . S
C3045 C3043 1.415 . S
C3046 H3036 0.930 . S
C3046 C3044 1.419 . S
C3046 C3047 1.362 . S
C3047 H3037 0.930 . S
C3047 C3040 1.409 . S
C3047 C3046 1.362 . S
H3048 C3054 0.930 . S
H3049 C3057 0.930 . S
H3050 C3058 0.930 . S
H3051 C3059 0.930 . S
H3052 C3062 0.930 . S
H3053 C3063 0.930 . S
C3054 H3048 0.930 . S
C3054 C3055 1.355 . S
C3054 C3056 1.415 . S
C3055 C3054 1.355 . S
C3055 C3057 1.419 . S
C3056 C3054 1.415 . S
C3056 C3061 1.425 . S
C3056 C3063 1.409 . S
C3057 H3049 0.930 . S
C3057 C3055 1.419 . S
C3057 C3058 1.362 . S
C3058 H3050 0.930 . S
C3058 C3057 1.362 . S
C3058 C3061 1.409 . S
C3059 H3051 0.930 . S
C3059 C3060 1.355 . S
C3059 C3061 1.415 . S
C3060 C3059 1.355 . S
C3060 C3062 1.419 . S
C3061 C3056 1.425 . S
C3061 C3058 1.409 . S
C3061 C3059 1.415 . S
C3062 H3052 0.930 . S
C3062 C3060 1.419 . S
C3062 C3063 1.362 . S
C3063 H3053 0.930 . S
C3063 C3056 1.409 . S
C3063 C3062 1.362 . S
H3064 C3070 0.930 . S
H3065 C3073 0.930 . S
H3066 C3074 0.930 . S
H3067 C3075 0.930 . S
H3068 C3078 0.930 . S
H3069 C3079 0.930 . S
C3070 H3064 0.930 . S
C3070 C3071 1.355 . S
C3070 C3072 1.415 . S
C3071 C3070 1.355 . S
C3071 C3073 1.419 . S
C3072 C3070 1.415 . S
C3072 C3077 1.425 . S
C3072 C3079 1.409 . S
C3073 H3065 0.930 . S
C3073 C3071 1.419 . S
C3073 C3074 1.362 . S
C3074 H3066 0.930 . S
C3074 C3073 1.362 . S
C3074 C3077 1.409 . S
C3075 H3067 0.930 . S
C3075 C3076 1.355 . S
C3075 C3077 1.415 . S
C3076 C3075 1.355 . S
C3076 C3078 1.419 . S
C3077 C3072 1.425 . S
C3077 C3074 1.409 . S
C3077 C3075 1.415 . S
C3078 H3068 0.930 . S
C3078 C3076 1.419 . S
C3078 C3079 1.362 . S
C3079 H3069 0.930 . S
C3079 C3072 1.409 . S
C3079 C3078 1.362 . S
H3080 C3086 0.930 . S
H3081 C3089 0.930 . S
H3082 C3090 0.930 . S
H3083 C3091 0.930 . S
H3084 C3094 0.930 . S
H3085 C3095 0.930 . S
C3086 H3080 0.930 . S
C3086 C3087 1.355 . S
C3086 C3088 1.415 . S
C3087 C3086 1.355 . S
C3087 C3089 1.419 . S
C3088 C3086 1.415 . S
C3088 C3093 1.425 . S
C3088 C3095 1.409 . S
C3089 H3081 0.930 . S
C3089 C3087 1.419 . S
C3089 C3090 1.362 . S
C3090 H3082 0.930 . S
C3090 C3089 1.362 . S
C3090 C3093 1.409 . S
C3091 H3083 0.930 . S
C3091 C3092 1.355 . S
C3091 C3093 1.415 . S
C3092 C3091 1.355 . S
C3092 C3094 1.419 . S
C3093 C3088 1.425 . S
C3093 C3090 1.409 . S
C3093 C3091 1.415 . S
C3094 H3084 0.930 . S
C3094 C3092 1.419 . S
C3094 C3095 1.362 . S
C3095 H3085 0.930 . S
C3095 C3088 1.409 . S
C3095 C3094 1.362 . S
H3096 C3102 0.930 . S
H3097 C3105 0.930 . S
H3098 C3106 0.930 . S
H3099 C3107 0.930 . S
H3100 C3110 0.930 . S
H3101 C3111 0.930 . S
C3102 H3096 0.930 . S
C3102 C3103 1.355 . S
C3102 C3104 1.415 . S
C3103 C3102 1.355 . S
C3103 C3105 1.419 . S
C3104 C3102 1.415 . S
C3104 C3109 1.425 . S
C3104 C3111 1.409 . S
C3105 H3097 0.930 . S
C3105 C3103 1.419 . S
C3105 C3106 1.362 . S
C3106 H3098 0.930 . S
C3106 C3105 1.362 . S
C3106 C3109 1.409 . S
C3107 H3099 0.930 . S
C3107 C3108 1.355 . S
C3107 C3109 1.415 . S
C3108 C3107 1.355 . S
C3108 C3110 1.419 . S
C3109 C3104 1.425 . S
C3109 C3106 1.409 . S
C3109 C3107 1.415 . S
C3110 H3100 0.930 . S
C3110 C3108 1.419 . S
C3110 C3111 1.362 . S
C3111 H3101 0.930 . S
C3111 C3104 1.409 . S
C3111 C3110 1.362 . S
H3112 C3118 0.930 . S
H3113 C3121 0.930 . S
H3114 C3122 0.930 . S
H3115 C3123 0.930 . S
H3116 C3126 0.930 . S
H3117 C3127 0.930 . S
C3118 H3112 0.930 . S
C3118 C3119 1.355 . S
C3118 C3120 1.415 . S
C3119 C3118 1.355 . S
C3119 C3121 1.419 . S
C3120 C3118 1.415 . S
C3120 C3125 1.425 . S
C3120 C3127 1.409 . S
C3121 H3113 0.930 . S
C3121 C3119 1.419 . S
C3121 C3122 1.362 . S
C3122 H3114 0.930 . S
C3122 C3121 1.362 . S
C3122 C3125 1.409 . S
C3123 H3115 0.930 . S
C3123 C3124 1.355 . S
C3123 C3125 1.415 . S
C3124 C3123 1.355 . S
C3124 C3126 1.419 . S
C3125 C3120 1.425 . S
C3125 C3122 1.409 . S
C3125 C3123 1.415 . S
C3126 H3116 0.930 . S
C3126 C3124 1.419 . S
C3126 C3127 1.362 . S
C3127 H3117 0.930 . S
C3127 C3120 1.409 . S
C3127 C3126 1.362 . S
H3128 C3134 0.930 . S
H3129 C3137 0.930 . S
H3130 C3138 0.930 . S
H3131 C3139 0.930 . S
H3132 C3142 0.930 . S
H3133 C3143 0.930 . S
C3134 H3128 0.930 . S
C3134 C3135 1.355 . S
C3134 C3136 1.415 . S
C3135 C3134 1.355 . S
C3135 C3137 1.419 . S
C3136 C3134 1.415 . S
C3136 C3141 1.425 . S
C3136 C3143 1.409 . S
C3137 H3129 0.930 . S
C3137 C3135 1.419 . S
C3137 C3138 1.362 . S
C3138 H3130 0.930 . S
C3138 C3137 1.362 . S
C3138 C3141 1.409 . S
C3139 H3131 0.930 . S
C3139 C3140 1.355 . S
C3139 C3141 1.415 . S
C3140 C3139 1.355 . S
C3140 C3142 1.419 . S
C3141 C3136 1.425 . S
C3141 C3138 1.409 . S
C3141 C3139 1.415 . S
C3142 H3132 0.930 . S
C3142 C3140 1.419 . S
C3142 C3143 1.362 . S
C3143 H3133 0.930 . S
C3143 C3136 1.409 . S
C3143 C3142 1.362 . S
H3144 C3150 0.930 . S
H3145 C3153 0.930 . S
H3146 C3154 0.930 . S
H3147 C3155 0.930 . S
H3148 C3158 0.930 . S
H3149 C3159 0.930 . S
C3150 H3144 0.930 . S
C3150 C3151 1.355 . S
C3150 C3152 1.415 . S
C3151 C3150 1.355 . S
C3151 C3153 1.419 . S
C3152 C3150 1.415 . S
C3152 C3157 1.425 . S
C3152 C3159 1.409 . S
C3153 H3145 0.930 . S
C3153 C3151 1.419 . S
C3153 C3154 1.362 . S
C3154 H3146 0.930 . S
C3154 C3153 1.362 . S
C3154 C3157 1.409 . S
C3155 H3147 0.930 . S
C3155 C3156 1.355 . S
C3155 C3157 1.415 . S
C3156 C3155 1.355 . S
C3156 C3158 1.419 . S
C3157 C3152 1.425 . S
C3157 C3154 1.409 . S
C3157 C3155 1.415 . S
C3158 H3148 0.930 . S
C3158 C3156 1.419 . S
C3158 C3159 1.362 . S
C3159 H3149 0.930 . S
C3159 C3152 1.409 . S
C3159 C3158 1.362 . S
H3160 C3166 0.930 . S
H3161 C3169 0.930 . S
H3162 C3170 0.930 . S
H3163 C3171 0.930 . S
H3164 C3174 0.930 . S
H3165 C3175 0.930 . S
C3166 H3160 0.930 . S
C3166 C3167 1.355 . S
C3166 C3168 1.415 . S
C3167 C3166 1.355 . S
C3167 C3169 1.419 . S
C3168 C3166 1.415 . S
C3168 C3173 1.425 . S
C3168 C3175 1.409 . S
C3169 H3161 0.930 . S
C3169 C3167 1.419 . S
C3169 C3170 1.362 . S
C3170 H3162 0.930 . S
C3170 C3169 1.362 . S
C3170 C3173 1.409 . S
C3171 H3163 0.930 . S
C3171 C3172 1.355 . S
C3171 C3173 1.415 . S
C3172 C3171 1.355 . S
C3172 C3174 1.419 . S
C3173 C3168 1.425 . S
C3173 C3170 1.409 . S
C3173 C3171 1.415 . S
C3174 H3164 0.930 . S
C3174 C3172 1.419 . S
C3174 C3175 1.362 . S
C3175 H3165 0.930 . S
C3175 C3168 1.409 . S
C3175 C3174 1.362 . S
H3176 C3182 0.930 . S
H3177 C3185 0.930 . S
H3178 C3186 0.930 . S
H3179 C3187 0.930 . S
H3180 C3190 0.930 . S
H3181 C3191 0.930 . S
C3182 H3176 0.930 . S
C3182 C3183 1.355 . S
C3182 C3184 1.415 . S
C3183 C3182 1.355 . S
C3183 C3185 1.419 . S
C3184 C3182 1.415 . S
C3184 C3189 1.425 . S
C3184 C3191 1.409 . S
C3185 H3177 0.930 . S
C3185 C3183 1.419 . S
C3185 C3186 1.362 . S
C3186 H3178 0.930 . S
C3186 C3185 1.362 . S
C3186 C3189 1.409 . S
C3187 H3179 0.930 . S
C3187 C3188 1.355 . S
C3187 C3189 1.415 . S
C3188 C3187 1.355 . S
C3188 C3190 1.419 . S
C3189 C3184 1.425 . S
C3189 C3186 1.409 . S
C3189 C3187 1.415 . S
C3190 H3180 0.930 . S
C3190 C3188 1.419 . S
C3190 C3191 1.362 . S
C3191 H3181 0.930 . S
C3191 C3184 1.409 . S
C3191 C3190 1.362 . S
H3192 C3198 0.930 . S
H3193 C3201 0.930 . S
H3194 C3202 0.930 . S
H3195 C3203 0.930 . S
H3196 C3206 0.930 . S
H3197 C3207 0.930 . S
C3198 H3192 0.930 . S
C3198 C3199 1.355 . S
C3198 C3200 1.415 . S
C3199 C3198 1.355 . S
C3199 C3201 1.419 . S
C3200 C3198 1.415 . S
C3200 C3205 1.425 . S
C3200 C3207 1.409 . S
C3201 H3193 0.930 . S
C3201 C3199 1.419 . S
C3201 C3202 1.362 . S
C3202 H3194 0.930 . S
C3202 C3201 1.362 . S
C3202 C3205 1.409 . S
C3203 H3195 0.930 . S
C3203 C3204 1.355 . S
C3203 C3205 1.415 . S
C3204 C3203 1.355 . S
C3204 C3206 1.419 . S
C3205 C3200 1.425 . S
C3205 C3202 1.409 . S
C3205 C3203 1.415 . S
C3206 H3196 0.930 . S
C3206 C3204 1.419 . S
C3206 C3207 1.362 . S
C3207 H3197 0.930 . S
C3207 C3200 1.409 . S
C3207 C3206 1.362 . S
H3208 C3214 0.930 . S
H3209 C3217 0.930 . S
H3210 C3218 0.930 . S
H3211 C3219 0.930 . S
H3212 C3222 0.930 . S
H3213 C3223 0.930 . S
C3214 H3208 0.930 . S
C3214 C3215 1.355 . S
C3214 C3216 1.415 . S
C3215 C3214 1.355 . S
C3215 C3217 1.419 . S
C3216 C3214 1.415 . S
C3216 C3221 1.425 . S
C3216 C3223 1.409 . S
C3217 H3209 0.930 . S
C3217 C3215 1.419 . S
C3217 C3218 1.362 . S
C3218 H3210 0.930 . S
C3218 C3217 1.362 . S
C3218 C3221 1.409 . S
C3219 H3211 0.930 . S
C3219 C3220 1.355 . S
C3219 C3221 1.415 . S
C3220 C3219 1.355 . S
C3220 C3222 1.419 . S
C3221 C3216 1.425 . S
C3221 C3218 1.409 . S
C3221 C3219 1.415 . S
C3222 H3212 0.930 . S
C3222 C3220 1.419 . S
C3222 C3223 1.362 . S
C3223 H3213 0.930 . S
C3223 C3216 1.409 . S
C3223 C3222 1.362 . S
H3224 C3230 0.930 . S
H3225 C3233 0.930 . S
H3226 C3234 0.930 . S
H3227 C3235 0.930 . S
H3228 C3238 0.930 . S
H3229 C3239 0.930 . S
C3230 H3224 0.930 . S
C3230 C3231 1.355 . S
C3230 C3232 1.415 . S
C3231 C3230 1.355 . S
C3231 C3233 1.419 . S
C3232 C3230 1.415 . S
C3232 C3237 1.425 . S
C3232 C3239 1.409 . S
C3233 H3225 0.930 . S
C3233 C3231 1.419 . S
C3233 C3234 1.362 . S
C3234 H3226 0.930 . S
C3234 C3233 1.362 . S
C3234 C3237 1.409 . S
C3235 H3227 0.930 . S
C3235 C3236 1.355 . S
C3235 C3237 1.415 . S
C3236 C3235 1.355 . S
C3236 C3238 1.419 . S
C3237 C3232 1.425 . S
C3237 C3234 1.409 . S
C3237 C3235 1.415 . S
C3238 H3228 0.930 . S
C3238 C3236 1.419 . S
C3238 C3239 1.362 . S
C3239 H3229 0.930 . S
C3239 C3232 1.409 . S
C3239 C3238 1.362 . S
H3240 C3246 0.930 . S
H3241 C3249 0.930 . S
H3242 C3250 0.930 . S
H3243 C3251 0.930 . S
H3244 C3254 0.930 . S
H3245 C3255 0.930 . S
C3246 H3240 0.930 . S
C3246 C3247 1.355 . S
C3246 C3248 1.415 . S
C3247 C3246 1.355 . S
C3247 C3249 1.419 . S
C3248 C3246 1.415 . S
C3248 C3253 1.425 . S
C3248 C3255 1.409 . S
C3249 H3241 0.930 . S
C3249 C3247 1.419 . S
C3249 C3250 1.362 . S
C3250 H3242 0.930 . S
C3250 C3249 1.362 . S
C3250 C3253 1.409 . S
C3251 H3243 0.930 . S
C3251 C3252 1.355 . S
C3251 C3253 1.415 . S
C3252 C3251 1.355 . S
C3252 C3254 1.419 . S
C3253 C3248 1.425 . S
C3253 C3250 1.409 . S
C3253 C3251 1.415 . S
C3254 H3244 0.930 . S
C3254 C3252 1.419 . S
C3254 C3255 1.362 . S
C3255 H3245 0.930 . S
C3255 C3248 1.409 . S
C3255 C3254 1.362 . S
H3256 C3262 0.930 . S
H3257 C3265 0.930 . S
H3258 C3266 0.930 . S
H3259 C3267 0.930 . S
H3260 C3270 0.930 . S
H3261 C3271 0.930 . S
C3262 H3256 0.930 . S
C3262 C3263 1.355 . S
C3262 C3264 1.415 . S
C3263 C3262 1.355 . S
C3263 C3265 1.419 . S
C3264 C3262 1.415 . S
C3264 C3269 1.425 . S
C3264 C3271 1.409 . S
C3265 H3257 0.930 . S
C3265 C3263 1.419 . S
C3265 C3266 1.362 . S
C3266 H3258 0.930 . S
C3266 C3265 1.362 . S
C3266 C3269 1.409 . S
C3267 H3259 0.930 . S
C3267 C3268 1.355 . S
C3267 C3269 1.415 . S
C3268 C3267 1.355 . S
C3268 C3270 1.419 . S
C3269 C3264 1.425 . S
C3269 C3266 1.409 . S
C3269 C3267 1.415 . S
C3270 H3260 0.930 . S
C3270 C3268 1.419 . S
C3270 C3271 1.362 . S
C3271 H3261 0.930 . S
C3271 C3264 1.409 . S
C3271 C3270 1.362 . S
H3272 C3278 0.930 . S
H3273 C3281 0.930 . S
H3274 C3282 0.930 . S
H3275 C3283 0.930 . S
H3276 C3286 0.930 . S
H3277 C3287 0.930 . S
C3278 H3272 0.930 . S
C3278 C3279 1.355 . S
C3278 C3280 1.415 . S
C3279 C3278 1.355 . S
C3279 C3281 1.419 . S
C3280 C3278 1.415 . S
C3280 C3285 1.425 . S
C3280 C3287 1.409 . S
C3281 H3273 0.930 . S
C3281 C3279 1.419 . S
C3281 C3282 1.362 . S
C3282 H3274 0.930 . S
C3282 C3281 1.362 . S
C3282 C3285 1.409 . S
C3283 H3275 0.930 . S
C3283 C3284 1.355 . S
C3283 C3285 1.415 . S
C3284 C3283 1.355 . S
C3284 C3286 1.419 . S
C3285 C3280 1.425 . S
C3285 C3282 1.409 . S
C3285 C3283 1.415 . S
C3286 H3276 0.930 . S
C3286 C3284 1.419 . S
C3286 C3287 1.362 . S
C3287 H3277 0.930 . S
C3287 C3280 1.409 . S
C3287 C3286 1.362 . S
H3288 C3294 0.930 . S
H3289 C3297 0.930 . S
H3290 C3298 0.930 . S
H3291 C3299 0.930 . S
H3292 C3302 0.930 . S
H3293 C3303 0.930 . S
C3294 H3288 0.930 . S
C3294 C3295 1.355 . S
C3294 C3296 1.415 . S
C3295 C3294 1.355 . S
C3295 C3297 1.419 . S
C3296 C3294 1.415 . S
C3296 C3301 1.425 . S
C3296 C3303 1.409 . S
C3297 H3289 0.930 . S
C3297 C3295 1.419 . S
C3297 C3298 1.362 . S
C3298 H3290 0.930 . S
C3298 C3297 1.362 . S
C3298 C3301 1.409 . S
C3299 H3291 0.930 . S
C3299 C3300 1.355 . S
C3299 C3301 1.415 . S
C3300 C3299 1.355 . S
C3300 C3302 1.419 . S
C3301 C3296 1.425 . S
C3301 C3298 1.409 . S
C3301 C3299 1.415 . S
C3302 H3292 0.930 . S
C3302 C3300 1.419 . S
C3302 C3303 1.362 . S
C3303 H3293 0.930 . S
C3303 C3296 1.409 . S
C3303 C3302 1.362 . S
H3304 C3310 0.930 . S
H3305 C3313 0.930 . S
H3306 C3314 0.930 . S
H3307 C3315 0.930 . S
H3308 C3318 0.930 . S
H3309 C3319 0.930 . S
C3310 H3304 0.930 . S
C3310 C3311 1.355 . S
C3310 C3312 1.415 . S
C3311 C3310 1.355 . S
C3311 C3313 1.419 . S
C3312 C3310 1.415 . S
C3312 C3317 1.425 . S
C3312 C3319 1.409 . S
C3313 H3305 0.930 . S
C3313 C3311 1.419 . S
C3313 C3314 1.362 . S
C3314 H3306 0.930 . S
C3314 C3313 1.362 . S
C3314 C3317 1.409 . S
C3315 H3307 0.930 . S
C3315 C3316 1.355 . S
C3315 C3317 1.415 . S
C3316 C3315 1.355 . S
C3316 C3318 1.419 . S
C3317 C3312 1.425 . S
C3317 C3314 1.409 . S
C3317 C3315 1.415 . S
C3318 H3308 0.930 . S
C3318 C3316 1.419 . S
C3318 C3319 1.362 . S
C3319 H3309 0.930 . S
C3319 C3312 1.409 . S
C3319 C3318 1.362 . S
H3320 C3326 0.930 . S
H3321 C3329 0.930 . S
H3322 C3330 0.930 . S
H3323 C3331 0.930 . S
H3324 C3334 0.930 . S
H3325 C3335 0.930 . S
C3326 H3320 0.930 . S
C3326 C3327 1.355 . S
C3326 C3328 1.415 . S
C3327 C3326 1.355 . S
C3327 C3329 1.419 . S
C3328 C3326 1.415 . S
C3328 C3333 1.425 . S
C3328 C3335 1.409 . S
C3329 H3321 0.930 . S
C3329 C3327 1.419 . S
C3329 C3330 1.362 . S
C3330 H3322 0.930 . S
C3330 C3329 1.362 . S
C3330 C3333 1.409 . S
C3331 H3323 0.930 . S
C3331 C3332 1.355 . S
C3331 C3333 1.415 . S
C3332 C3331 1.355 . S
C3332 C3334 1.419 . S
C3333 C3328 1.425 . S
C3333 C3330 1.409 . S
C3333 C3331 1.415 . S
C3334 H3324 0.930 . S
C3334 C3332 1.419 . S
C3334 C3335 1.362 . S
C3335 H3325 0.930 . S
C3335 C3328 1.409 . S
C3335 C3334 1.362 . S
C1812 N1260 1.441 . S
C1807 C1 1.511 . S
C1828 C1287 1.599 . S
C1823 C60 1.596 . S
C1839 C79 1.502 . S
C1844 C1301 1.504 . S
C1860 N1319 1.401 . S
C1855 C118 1.460 . S
C1871 C177 1.578 . S
C1876 C1324 1.570 . S
C1887 C196 1.510 . S
C1892 C1264 1.493 . S
C1903 C250 1.411 . S
C1908 N1283 1.372 . S
C1924 N1296 1.459 . S
C1919 C274 1.516 . S
C1940 N1342 1.399 . S
C1935 C16 1.445 . S
C1951 C55 1.540 . S
C1956 N1365 1.506 . S
C1967 C99 1.563 . S
C1972 N1388 1.570 . S
C1988 N1421 1.380 . S
C1983 C133 1.438 . S
C1999 C157 1.562 . S
C2004 C1448 1.565 . S
C2020 C1471 1.561 . S
C2015 C211 1.566 . S
C2031 C255 1.456 . S
C2036 C1494 1.467 . S
C2052 C1508 1.434 . S
C2047 C294 1.433 . S
C2063 C21 1.451 . S
C2068 C1425 1.454 . S
C2079 C172 1.500 . S
C2084 N1467 1.451 . S
C2100 N1490 1.399 . S
C2095 C216 1.468 . S
C2111 C235 1.454 . S
C2116 N1503 1.437 . S
C2132 N1444 1.388 . S
C2127 C289 1.457 . S
C2148 C1370 1.660 . S
C2143 C94 1.661 . S
C2159 C138 1.480 . S
C2164 C1393 1.472 . S
C2180 C1347 1.597 . S
C2175 C40 1.603 . S
C2196 C1540 1.467 . S
C2191 C313 1.485 . S
C2207 C372 1.597 . S
C2212 C1554 1.601 . S
C2223 C391 1.493 . S
C2228 N1582 1.422 . S
C2244 N1595 1.405 . S
C2239 C430 1.449 . S
C2255 C489 1.581 . S
C2260 C1600 1.582 . S
C2271 C508 1.509 . S
C2276 N1536 1.486 . S
C2287 C562 1.505 . S
C2292 N1549 1.486 . S
C2303 C586 1.464 . S
C2308 C1586 1.447 . S
C2324 N1434 1.449 . S
C2319 C328 1.457 . S
C2335 C367 1.523 . S
C2340 N1618 1.486 . S
C2356 N1480 1.425 . S
C2351 C411 1.461 . S
C2367 C445 1.498 . S
C2372 C1655 1.491 . S
C2383 C469 1.597 . S
C2388 C1356 1.601 . S
C2404 C1669 1.593 . S
C2399 C523 1.593 . S
C2415 C567 1.501 . S
C2420 C1402 1.512 . S
C2436 N1687 1.423 . S
C2431 C606 1.444 . S
C2447 C333 1.465 . S
C2452 N1651 1.425 . S
C2468 N1664 1.523 . S
C2463 C484 1.540 . S
C2479 C528 1.474 . S
C2484 N1398 1.441 . S
C2500 C1692 1.407 . S
C2495 C547 1.407 . S
C2511 C601 1.443 . S
C2516 N1352 1.380 . S
C2527 C406 1.561 . S
C2532 C1623 1.561 . S
C2543 C450 1.511 . S
C2548 C1485 1.508 . S
C2559 C352 1.601 . S
C2564 C1439 1.600 . S
C2575 C625 1.541 . S
C2580 C1577 1.543 . S
C2596 C1609 1.528 . S
C2591 C684 1.542 . S
C2607 C703 1.475 . S
C2612 N1526 1.454 . S
C2623 C742 1.442 . S
C2628 N1559 1.429 . S
C2639 C801 1.594 . S
C2644 C1563 1.573 . S
C2655 C820 1.557 . S
C2660 N1572 1.499 . S
C2676 N1605 1.376 . S
C2671 C874 1.397 . S
C2687 C898 1.522 . S
C2692 C1531 1.520 . S
C2708 N1720 1.433 . S
C2703 C640 1.476 . S
C2719 C679 1.485 . S
C2724 N1457 1.474 . S
C2740 N1743 1.414 . S
C2735 C723 1.437 . S
C2751 C757 1.470 . S
C2756 N1513 1.452 . S
C2767 C781 1.571 . S
C2772 C1761 1.572 . S
C2783 C835 1.644 . S
C2788 C1379 1.645 . S
C2804 N1779 1.314 . S
C2799 C879 1.387 . S
C2815 C918 1.493 . S
C2820 C1416 1.501 . S
C2836 C1517 1.498 . S
C2831 C645 1.487 . S
C2852 N1375 1.465 . S
C2847 C796 1.541 . S
C2863 C840 1.565 . S
C2868 C1784 1.560 . S
C2879 C859 1.377 . S
C2884 N1411 1.300 . S
C2900 N1756 1.472 . S
C2895 C913 1.518 . S
C2916 C1462 1.564 . S
C2911 C718 1.562 . S
C2932 C1747 1.525 . S
C2927 C762 1.520 . S
C2948 C1724 1.575 . S
C2943 C664 1.585 . S
C2959 C937 1.426 . S
C2964 N1306 1.378 . S
C2975 C996 1.564 . S
C2980 C1333 1.547 . S
C2996 C1255 1.541 . S
C2991 C1015 1.538 . S
C3012 N1273 1.396 . S
C3007 C1054 1.399 . S
C3028 C1278 1.601 . S
C3023 C1113 1.599 . S
C3044 C1310 1.507 . S
C3039 C1132 1.521 . S
C3060 N1329 1.436 . S
C3055 C1186 1.498 . S
C3071 C1210 1.522 . S
C3076 N1250 1.502 . S
C3087 C952 1.389 . S
C3092 N1766 1.326 . S
C3108 N1674 1.491 . S
C3103 C991 1.509 . S
C3124 C1793 1.578 . S
C3119 C1035 1.571 . S
C3140 C1701 1.372 . S
C3135 C1069 1.363 . S
C3151 C1093 1.590 . S
C3156 C1715 1.581 . S
C3172 C1632 1.567 . S
C3167 C1147 1.573 . S
C3188 C1738 1.599 . S
C3183 C1191 1.598 . S
C3199 C1230 1.477 . S
C3204 N1641 1.444 . S
C3220 N1697 1.331 . S
C3215 C957 1.388 . S
C3236 N1628 1.496 . S
C3231 C1108 1.508 . S
C3252 N1733 1.398 . S
C3247 C1152 1.418 . S
C3263 C1171 1.483 . S
C3268 C1646 1.477 . S
C3279 C1225 1.455 . S
C3284 N1710 1.449 . S
C3295 C1030 1.661 . S
C3300 C1678 1.643 . S
C3311 C1074 1.404 . S
C3316 N1789 1.395 . S
C3332 C1770 1.548 . S
C3327 C976 1.564 . S
