# Generated by pormake.
# Topology sqc, (4,8)-cn, num edge types: 1
# Building blocks:
#     Node 0, Type 0, BuildingBlock: KUFVIS_clean_linker_0, # of connection points: 4
#     Node 1, Type 0, BuildingBlock: KUFVIS_clean_linker_0, # of connection points: 4
#     Node 2, Type 0, BuildingBlock: KUFVIS_clean_linker_0, # of connection points: 4
#     Node 3, Type 0, BuildingBlock: KUFVIS_clean_linker_0, # of connection points: 4
#     Node 4, Type 0, BuildingBlock: KUFVIS_clean_linker_0, # of connection points: 4
#     Node 5, Type 0, BuildingBlock: KUFVIS_clean_linker_0, # of connection points: 4
#     Node 6, Type 0, BuildingBlock: KUFVIS_clean_linker_0, # of connection points: 4
#     Node 7, Type 0, BuildingBlock: KUFVIS_clean_linker_0, # of connection points: 4
#     Node 8, Type 1, BuildingBlock: VETTIZ_charged_sbu_0, # of connection points: 8
#     Node 9, Type 1, BuildingBlock: VETTIZ_charged_sbu_0, # of connection points: 8
#     Node 10, Type 1, BuildingBlock: VETTIZ_charged_sbu_0, # of connection points: 8
#     Node 11, Type 1, BuildingBlock: VETTIZ_charged_sbu_0, # of connection points: 8
#     Edge 12, Type (0, 1), BuildingBlock: UVAHIK_clean_linker_0, # of connection points: 2
#     Edge 13, Type (0, 1), BuildingBlock: UVAHIK_clean_linker_0, # of connection points: 2
#     Edge 14, Type (0, 1), BuildingBlock: UVAHIK_clean_linker_0, # of connection points: 2
#     Edge 15, Type (0, 1), BuildingBlock: UVAHIK_clean_linker_0, # of connection points: 2
#     Edge 16, Type (0, 1), BuildingBlock: UVAHIK_clean_linker_0, # of connection points: 2
#     Edge 17, Type (0, 1), BuildingBlock: UVAHIK_clean_linker_0, # of connection points: 2
#     Edge 18, Type (0, 1), BuildingBlock: UVAHIK_clean_linker_0, # of connection points: 2
#     Edge 19, Type (0, 1), BuildingBlock: UVAHIK_clean_linker_0, # of connection points: 2
#     Edge 20, Type (0, 1), BuildingBlock: UVAHIK_clean_linker_0, # of connection points: 2
#     Edge 21, Type (0, 1), BuildingBlock: UVAHIK_clean_linker_0, # of connection points: 2
#     Edge 22, Type (0, 1), BuildingBlock: UVAHIK_clean_linker_0, # of connection points: 2
#     Edge 23, Type (0, 1), BuildingBlock: UVAHIK_clean_linker_0, # of connection points: 2
#     Edge 24, Type (0, 1), BuildingBlock: UVAHIK_clean_linker_0, # of connection points: 2
#     Edge 25, Type (0, 1), BuildingBlock: UVAHIK_clean_linker_0, # of connection points: 2
#     Edge 26, Type (0, 1), BuildingBlock: UVAHIK_clean_linker_0, # of connection points: 2
#     Edge 27, Type (0, 1), BuildingBlock: UVAHIK_clean_linker_0, # of connection points: 2
#     Edge 28, Type (0, 1), BuildingBlock: UVAHIK_clean_linker_0, # of connection points: 2
#     Edge 29, Type (0, 1), BuildingBlock: UVAHIK_clean_linker_0, # of connection points: 2
#     Edge 30, Type (0, 1), BuildingBlock: UVAHIK_clean_linker_0, # of connection points: 2
#     Edge 31, Type (0, 1), BuildingBlock: UVAHIK_clean_linker_0, # of connection points: 2
#     Edge 32, Type (0, 1), BuildingBlock: UVAHIK_clean_linker_0, # of connection points: 2
#     Edge 33, Type (0, 1), BuildingBlock: UVAHIK_clean_linker_0, # of connection points: 2
#     Edge 34, Type (0, 1), BuildingBlock: UVAHIK_clean_linker_0, # of connection points: 2
#     Edge 35, Type (0, 1), BuildingBlock: UVAHIK_clean_linker_0, # of connection points: 2
#     Edge 36, Type (0, 1), BuildingBlock: UVAHIK_clean_linker_0, # of connection points: 2
#     Edge 37, Type (0, 1), BuildingBlock: UVAHIK_clean_linker_0, # of connection points: 2
#     Edge 38, Type (0, 1), BuildingBlock: UVAHIK_clean_linker_0, # of connection points: 2
#     Edge 39, Type (0, 1), BuildingBlock: UVAHIK_clean_linker_0, # of connection points: 2
#     Edge 40, Type (0, 1), BuildingBlock: UVAHIK_clean_linker_0, # of connection points: 2
#     Edge 41, Type (0, 1), BuildingBlock: UVAHIK_clean_linker_0, # of connection points: 2
#     Edge 42, Type (0, 1), BuildingBlock: UVAHIK_clean_linker_0, # of connection points: 2
#     Edge 43, Type (0, 1), BuildingBlock: UVAHIK_clean_linker_0, # of connection points: 2
# Relax obj value: 0.164
# Max RMSD: 0.278
# Mean RMSD: 0.218
data_MOF--net-sqc--node1-VETTIZ_charged_sbu_0--node2-KUFVIS_clean_linker_0--edge1-UVAHIK_clean_linker_0
_symmetry_space_group_name_H-M    P1
_symmetry_Int_Tables_number       1
_symmetry_cell_setting            triclinic
loop_
_symmetry_equiv_pos_as_xyz
'x, y, z'
_cell_length_a     31.361412
_cell_length_b     31.339462
_cell_length_c     85.612074
_cell_angle_alpha  89.569666
_cell_angle_beta   89.651322
_cell_angle_gamma 90.101524
loop_
_atom_site_label
_atom_site_type_symbol
_atom_site_fract_x
_atom_site_fract_y
_atom_site_fract_z
_atom_type_partial_charge
H0 H 0.86124 0.04581 0.49658 0.0
H1 H 0.97138 0.03094 0.5252 0.0
H2 H 0.97753 1.0005 0.47596 0.0
H3 H 0.03174 0.95865 0.48417 0.0
H4 H 0.14759 0.97877 0.50965 0.0
H5 H 0.03765 0.05253 0.52099 0.0
C6 C 0.89478 0.03792 0.49765 0.0
C7 C 0.91703 0.02215 0.4847 0.0
C8 C 0.91445 0.04144 0.51217 0.0
C9 C 0.95716 0.0293 0.51373 0.0
C10 C 0.9813 0.0156 0.5007 0.0
C11 C 0.96038 0.01137 0.48618 0.0
C12 C 0.02793 1.00613 0.50253 0.0
C13 C 0.04892 0.97558 0.49314 0.0
C14 C 0.09223 0.9658 0.49556 0.0
C15 C 0.11418 0.98584 0.5077 0.0
C16 C 0.09429 0.01652 0.51695 0.0
C17 C 0.05185 0.02751 0.51404 0.0
H18 H 0.27006 0.91091 0.75887 0.0
H19 H 0.20824 0.79647 0.77456 0.0
H20 H 0.30614 0.79166 0.73856 0.0
H21 H 0.26588 0.73591 0.73063 0.0
H22 H 0.22833 0.61756 0.75197 0.0
H23 H 0.23282 0.73011 0.77991 0.0
C24 C 0.26663 0.87648 0.75829 0.0
C25 C 0.29133 0.85361 0.74761 0.0
C26 C 0.23702 0.85608 0.76804 0.0
C27 C 0.23226 0.81157 0.76725 0.0
C28 C 0.2568 0.78724 0.75658 0.0
C29 C 0.28638 0.80904 0.74673 0.0
C30 C 0.25039 0.73968 0.75544 0.0
C31 C 0.2563 0.71838 0.74102 0.0
C32 C 0.24821 0.67437 0.73972 0.0
C33 C 0.23398 0.65163 0.75286 0.0
C34 C 0.22774 0.67154 0.76724 0.0
C35 C 0.23687 0.7153 0.76862 0.0
H36 H 0.65479 0.05299 0.01449 0.0
H37 H 0.54403 0.98643 0.03087 0.0
H38 H 0.53685 0.07177 0.99071 0.0
H39 H 0.48075 0.03446 0.98454 0.0
H40 H 0.3647 0.99148 0.00595 0.0
H41 H 0.47651 1.00178 0.03395 0.0
C42 C 0.62086 0.04661 0.0136 0.0
C43 C 0.59795 0.06475 1.0013 0.0
C44 C 0.60143 0.01925 0.02446 0.0
C45 C 0.55801 0.00906 0.02273 0.0
C46 C 0.5332 0.02807 0.01069 0.0
C47 C 0.55417 0.05595 0.99996 0.0
C48 C 0.48595 0.01888 0.00939 0.0
C49 C 0.46413 0.02403 0.99499 0.0
C50 C 0.42039 0.01459 0.99378 0.0
C51 C 0.39845 0.99877 0.00684 0.0
C52 C 0.41875 0.99362 0.0212 0.0
C53 C 0.46199 1.00468 0.02257 0.0
H54 H 0.27456 0.40985 0.24797 0.0
H55 H 0.3094 0.29135 0.26929 0.0
H56 H 0.21812 0.29385 0.23156 0.0
H57 H 0.24441 0.22707 0.22767 0.0
H58 H 0.24681 0.11507 0.25682 0.0
H59 H 0.27102 0.23652 0.27716 0.0
C60 C 0.27226 0.37532 0.2484 0.0
C61 C 0.24536 0.3542 0.23796 0.0
C62 C 0.29422 0.3528 0.25998 0.0
C63 C 0.29053 0.30828 0.26072 0.0
C64 C 0.26314 0.286 0.25058 0.0
C65 C 0.2402 0.30967 0.23928 0.0
C66 C 0.25798 0.23851 0.25218 0.0
C67 C 0.24794 0.21287 0.23915 0.0
C68 C 0.24264 0.16848 0.24087 0.0
C69 C 0.24889 0.14949 0.25555 0.0
C70 C 0.26017 0.17391 0.26844 0.0
C71 C 0.26384 0.21824 0.26684 0.0
H72 H 0.76494 0.41576 0.25855 0.0
H73 H 0.70635 0.30078 0.27549 0.0
H74 H 0.8001 0.29654 0.23805 0.0
H75 H 0.76015 0.23923 0.23106 0.0
H76 H 0.73625 0.12025 0.25458 0.0
H77 H 0.73468 0.23573 0.28092 0.0
C78 C 0.7616 0.38132 0.25806 0.0
C79 C 0.78536 0.35846 0.2471 0.0
C80 C 0.7334 0.36075 0.26833 0.0
C81 C 0.72908 0.31615 0.26771 0.0
C82 C 0.7527 0.29195 0.25672 0.0
C83 C 0.78083 0.31388 0.24638 0.0
C84 C 0.74797 0.24419 0.25607 0.0
C85 C 0.75339 0.22202 0.24181 0.0
C86 C 0.74887 0.17737 0.24122 0.0
C87 C 0.73926 0.15474 0.25493 0.0
C88 C 0.73387 0.17564 0.26914 0.0
C89 C 0.73807 0.22022 0.26973 0.0
H90 H 0.72475 0.90379 0.75971 0.0
H91 H 0.80183 0.795 0.76975 0.0
H92 H 0.70922 0.79051 0.73242 0.0
H93 H 0.75246 0.73776 0.72394 0.0
H94 H 0.79416 0.6191 0.74409 0.0
H95 H 0.78112 0.72812 0.77323 0.0
C96 C 0.73316 0.87092 0.75729 0.0
C97 C 0.71422 0.84974 0.74475 0.0
C98 C 0.76426 0.851 0.76635 0.0
C99 C 0.77664 0.80925 0.76289 0.0
C100 C 0.75624 0.78596 0.75098 0.0
C101 C 0.72543 0.80711 0.74171 0.0
C102 C 0.76645 0.7396 0.74877 0.0
C103 C 0.76268 0.71968 0.73406 0.0
C104 C 0.77247 0.6761 0.73228 0.0
C105 C 0.78738 0.65286 0.7452 0.0
C106 C 0.79111 0.67176 0.75986 0.0
C107 C 0.77963 0.71459 0.76166 0.0
H108 H 0.65382 0.51079 0.00418 0.0
H109 H 0.53691 0.46027 0.98625 0.0
H110 H 0.53514 0.56669 0.01812 0.0
H111 H 0.47875 0.5301 0.02761 0.0
H112 H 0.35814 0.50891 0.00606 0.0
H113 H 0.4728 0.49287 0.97906 0.0
C114 C 0.61933 0.51208 0.00348 0.0
C115 C 0.59683 0.54188 0.0124 0.0
C116 C 0.59798 0.48326 0.99383 0.0
C117 C 0.55319 0.48375 0.99327 0.0
C118 C 0.52976 0.51303 1.0024 0.0
C119 C 0.55224 0.5427 0.01156 0.0
C120 C 0.48212 0.5116 0.00318 0.0
C121 C 0.46089 0.52185 0.01728 0.0
C122 C 0.41635 0.52108 0.01831 0.0
C123 C 0.3927 0.50867 0.00535 0.0
C124 C 0.41278 0.49805 0.99124 0.0
C125 C 0.45749 0.50012 0.99009 0.0
H126 H 0.15638 0.53155 0.50925 0.0
H127 H 0.04325 0.47064 0.52653 0.0
H128 H 0.03554 0.56757 0.49018 0.0
H129 H 0.97828 0.52791 0.48327 0.0
H130 H 0.86249 0.49001 0.50645 0.0
H131 H 0.978 0.49558 0.53264 0.0
C132 C 0.12194 0.52812 0.50905 0.0
C133 C 0.0982 0.55262 0.49855 0.0
C134 C 0.10229 0.49895 0.51919 0.0
C135 C 0.05775 0.49436 0.51893 0.0
C136 C 0.03255 0.51872 0.50845 0.0
C137 C 0.05357 0.5479 0.4982 0.0
C138 C 0.98487 0.51267 0.508 0.0
C139 C 0.96193 0.51847 0.49392 0.0
C140 C 0.91777 0.51041 0.4933 0.0
C141 C 0.89653 0.49617 0.50679 0.0
C142 C 0.91815 0.49046 0.52085 0.0
C143 C 0.96198 0.49949 0.52156 0.0
Fe144 Fe 1.0068 0.79218 0.16978 0.0
O145 O 0.00954 0.79726 0.14681 0.0
Fe146 Fe 0.95608 0.7755 0.13439 0.0
Fe147 Fe 0.05486 0.76974 0.13388 0.0
O148 O 1.00522 0.79722 0.14686 0.0
O149 O 1.00157 0.74786 0.12148 0.0
O150 O 1.00586 0.74801 0.1214 0.0
Fe151 Fe 1.00382 0.7514 0.09856 0.0
C152 C 0.09558 0.82397 0.16025 0.0
O153 O 0.04799 0.74074 0.17125 0.0
O154 O 0.05193 0.71498 0.14714 0.0
O155 O 0.95086 0.71252 0.10092 0.0
O156 O 0.9107 0.74796 0.11948 0.0
O157 O 0.95247 0.7207 0.14783 0.0
O158 O 0.95642 0.74989 0.17127 0.0
O159 O 0.09591 0.7367 0.11882 0.0
O160 O 0.05188 0.70629 0.10041 0.0
C161 C 0.94859 0.71813 0.16258 0.0
O162 O 0.95994 0.80028 0.09709 0.0
O163 O 0.95674 0.82962 0.12066 0.0
O164 O 0.0604 0.82981 0.168 0.0
O165 O 0.10057 0.7975 0.14869 0.0
C166 C 0.05531 0.71031 0.16183 0.0
C167 C 0.08831 0.71023 0.10749 0.0
C168 C 0.06913 0.82291 0.10558 0.0
O169 O 0.06082 0.82391 0.12015 0.0
O170 O 0.05328 0.79446 0.09679 0.0
C171 C 0.91498 0.72122 0.10794 0.0
O172 O 0.91536 0.8102 0.14959 0.0
O173 O 0.96175 0.83925 0.16756 0.0
C174 C 0.94784 0.82995 0.10618 0.0
C175 C 0.92614 0.83895 0.15987 0.0
Fe176 Fe 0.53539 0.76556 0.41989 0.0
O177 O 0.53786 0.764 0.39687 0.0
Fe178 Fe 0.50823 0.81356 0.3844 0.0
Fe179 Fe 0.51509 0.71485 0.38467 0.0
O180 O 0.53754 0.76825 0.39686 0.0
O181 O 0.48511 0.76457 0.37226 0.0
O182 O 0.48549 0.76031 0.37227 0.0
Fe183 Fe 0.48555 0.76283 0.34936 0.0
C184 C 0.58098 0.6847 0.40937 0.0
O185 O 0.49272 0.71548 0.42207 0.0
O186 O 0.46193 0.71091 0.3989 0.0
O187 O 0.44041 0.81045 0.35212 0.0
O188 O 0.4731 0.85473 0.3699 0.0
O189 O 0.4554 0.8104 0.39854 0.0
O190 O 0.48439 0.80697 0.42216 0.0
O191 O 0.48626 0.66953 0.37021 0.0
O192 O 0.44738 0.70911 0.35235 0.0
C193 C 0.45255 0.81333 0.41328 0.0
O194 O 0.52842 0.81274 0.34677 0.0
O195 O 0.56014 0.81944 0.36983 0.0
O196 O 0.58195 0.72029 0.41704 0.0
O197 O 0.55159 0.67404 0.39932 0.0
C198 C 0.46041 0.70732 0.41368 0.0
C199 C 0.45765 0.67341 0.35928 0.0
C200 C 0.56553 0.7073 0.35545 0.0
O201 O 0.56746 0.71561 0.36998 0.0
O202 O 0.53439 0.71954 0.34707 0.0
C203 C 0.44498 0.84695 0.35911 0.0
O204 O 0.53848 0.85905 0.39869 0.0
O205 O 0.57341 0.81876 0.41742 0.0
C206 C 0.55782 0.82795 0.35531 0.0
C207 C 0.56717 0.85366 0.40953 0.0
Fe208 Fe 0.50188 0.29397 0.6695 0.0
O209 O 0.50698 0.29547 0.64651 0.0
Fe210 Fe 0.45543 0.27055 0.63383 0.0
Fe211 Fe 0.55443 0.26737 0.6348 0.0
O212 O 0.50264 0.29546 0.64648 0.0
O213 O 0.50295 0.24175 0.62232 0.0
O214 O 0.50729 0.24192 0.62231 0.0
Fe215 Fe 0.50761 0.24086 0.59946 0.0
C216 C 0.59064 0.32728 0.6604 0.0
O217 O 0.54397 0.24405 0.67264 0.0
O218 O 0.55204 0.21476 0.64921 0.0
O219 O 0.45526 0.2011 0.60207 0.0
O220 O 0.41233 0.23906 0.61905 0.0
O221 O 0.45158 0.21806 0.64838 0.0
O222 O 0.45249 0.25036 0.6713 0.0
O223 O 0.59784 0.23335 0.62101 0.0
O224 O 0.5564 0.19737 0.60319 0.0
C225 C 0.44609 0.21734 0.66308 0.0
O226 O 0.46293 0.28823 0.59619 0.0
O227 O 0.45651 0.32216 0.61882 0.0
O228 O 0.55454 0.33282 0.6676 0.0
O229 O 0.59775 0.29925 0.64949 0.0
C230 C 0.55296 0.21237 0.66401 0.0
C231 C 0.59215 0.20416 0.61045 0.0
C232 C 0.57021 0.31555 0.60551 0.0
O233 O 0.56002 0.3192 0.61987 0.0
O234 O 0.55624 0.2849 0.59728 0.0
C235 C 0.41855 0.20973 0.60852 0.0
O236 O 0.4123 0.30692 0.64762 0.0
O237 O 0.45611 0.33939 0.66568 0.0
C238 C 0.44932 0.31946 0.60424 0.0
C239 C 0.42144 0.33726 0.65751 0.0
Fe240 Fe 0.03763 0.25973 0.91931 0.0
O241 O 0.03955 0.25856 0.89624 0.0
Fe242 Fe 0.01166 0.31034 0.88426 0.0
Fe243 Fe 0.01291 0.21132 0.88403 0.0
O244 O 0.03948 0.263 0.89626 0.0
O245 O 0.98572 0.26303 0.87203 0.0
O246 O 0.9855 0.25887 0.87208 0.0
Fe247 Fe 0.98393 0.26215 0.84923 0.0
C248 C 0.0765 0.17567 0.90894 0.0
O249 O 0.99216 0.21233 0.9216 0.0
O250 O 0.96041 0.2101 0.89857 0.0
O251 O 0.94162 0.31214 0.85263 0.0
O252 O 0.97812 0.35374 0.87024 0.0
O253 O 0.95897 0.30874 0.89864 0.0
O254 O 0.98968 0.30426 0.92188 0.0
O255 O 0.97999 0.16821 0.86973 0.0
O256 O 0.94288 0.21096 0.85239 0.0
C257 C 0.95734 0.31171 0.91341 0.0
O258 O 0.02939 0.30929 0.84658 0.0
O259 O 0.06336 0.3151 0.86926 0.0
O260 O 0.08085 0.21117 0.91649 0.0
O261 O 0.04758 0.16806 0.89834 0.0
C262 C 0.95934 0.20581 0.91331 0.0
C263 C 0.95074 0.17445 0.85917 0.0
C264 C 0.06104 0.202 0.85434 0.0
O265 O 0.06421 0.20946 0.8689 0.0
O266 O 0.03008 0.21614 0.84625 0.0
C267 C 0.94895 0.34809 0.85967 0.0
O268 O 0.04375 0.35386 0.89881 0.0
O269 O 0.07812 0.31098 0.9169 0.0
C270 C 0.06043 0.32309 0.85467 0.0
C271 C 0.07195 0.34708 0.90971 0.0
C272 C 0.11492 0.94226 0.46881 0.0
C273 C 0.11617 0.93663 0.48509 0.0
C274 C 0.14448 0.92145 0.45919 0.0
C275 C 0.23031 0.83831 0.45904 0.0
H276 H 0.2836 0.9146 0.42884 0.0
C277 C 0.40262 0.81644 0.43628 0.0
C278 C 0.41054 0.82376 0.4203 0.0
C279 C 0.36257 0.82514 0.44277 0.0
C280 C 0.26872 0.89262 0.43705 0.0
H281 H 0.14662 0.9019 0.50393 0.0
H282 H 0.19841 0.86636 0.48733 0.0
H283 H 0.2188 0.93666 0.44226 0.0
H284 H 0.38237 0.84581 0.3986 0.0
H285 H 0.31276 0.8617 0.41002 0.0
H286 H 0.28152 0.79502 0.4542 0.0
C287 C 0.17476 0.88657 0.48186 0.0
C288 C 0.23137 0.90517 0.44471 0.0
C289 C 0.14524 0.90724 0.49143 0.0
C290 C 0.37743 0.83994 0.41096 0.0
C291 C 0.33756 0.84913 0.4175 0.0
C292 C 0.26787 0.82589 0.45144 0.0
C293 C 0.17582 0.89459 0.46568 0.0
C294 C 0.21208 0.87854 0.45603 0.0
C295 C 0.32968 0.84186 0.43347 0.0
C296 C 0.2879 0.85326 0.44057 0.0
H297 H 0.09292 0.96476 0.46359 0.0
H298 H 0.14383 0.92771 0.44674 0.0
H299 H 0.21597 0.81666 0.46748 0.0
H300 H 0.42728 0.80366 0.44377 0.0
H301 H 0.3576 0.81959 0.45515 0.0
C302 C 0.31378 0.88025 0.72106 0.0
C303 C 0.32065 0.87826 0.73726 0.0
C304 C 0.3329 0.91267 0.71199 0.0
C305 C 0.36744 0.02297 0.71732 0.0
H306 H 0.41592 0.01583 0.67568 0.0
C307 C 0.43824 0.17175 0.68712 0.0
C308 C 0.43292 0.1769 0.67093 0.0
C309 C 0.42744 0.13333 0.69456 0.0
C310 C 0.40196 0.01849 0.68723 0.0
H311 H 0.35547 0.90606 0.75642 0.0
H312 H 0.3892 0.96197 0.74065 0.0
H313 H 0.39394 0.95052 0.68946 0.0
H314 H 0.41212 0.14534 0.64984 0.0
H315 H 0.39157 0.07882 0.66291 0.0
H316 H 0.37385 0.09053 0.71511 0.0
C317 C 0.36858 0.93918 0.73496 0.0
C318 C 0.38958 0.98098 0.69514 0.0
C319 C 0.34963 0.90692 0.74396 0.0
C320 C 0.41653 0.14251 0.66235 0.0
C321 C 0.40511 0.10417 0.66984 0.0
C322 C 0.3793 0.0603 0.7094 0.0
C323 C 0.35899 0.94362 0.71901 0.0
C324 C 0.37256 0.98282 0.71034 0.0
C325 C 0.41026 0.09906 0.68608 0.0
C326 C 0.39709 0.05873 0.69429 0.0
H327 H 0.29116 0.85887 0.71566 0.0
H328 H 0.32489 0.91525 0.69973 0.0
H329 H 0.35345 0.02564 0.72887 0.0
H330 H 0.45151 0.19722 0.69407 0.0
H331 H 0.43299 0.13045 0.70699 0.0
C332 C 0.36984 0.99036 0.97317 0.0
C333 C 0.39578 0.0227 0.97929 0.0
C334 C 0.33872 0.99992 0.96206 0.0
C335 C 0.29637 0.08582 0.9358 0.0
H336 H 0.18789 0.03168 0.94534 0.0
C337 C 0.14266 0.13452 0.90326 0.0
C338 C 0.1076 0.14236 0.91308 0.0
C339 C 0.17835 0.11249 0.90891 0.0
C340 C 0.21792 0.04707 0.94247 0.0
H341 H 0.41118 0.08992 0.97798 0.0
H342 H 0.35649 0.10698 0.95868 0.0
H343 H 0.25151 0.00936 0.95923 0.0
H344 H 0.08174 0.13297 0.93631 0.0
H345 H 0.14338 0.09413 0.94618 0.0
H346 H 0.26208 0.12509 0.91961 0.0
C347 C 0.36048 0.07402 0.96225 0.0
C348 C 0.25466 0.0339 0.95032 0.0
C349 C 0.39195 0.06432 0.9733 0.0
C350 C 0.10795 0.12624 0.9284 0.0
C351 C 0.1434 0.1041 0.93404 0.0
C352 C 0.25953 0.09903 0.92795 0.0
C353 C 0.33238 0.04218 0.95692 0.0
C354 C 0.29433 0.05355 0.94731 0.0
C355 C 0.17966 0.09809 0.92453 0.0
C356 C 0.21964 0.08039 0.9314 0.0
H357 H 0.37224 0.95796 0.97758 0.0
H358 H 0.3185 0.97436 0.95795 0.0
H359 H 0.32635 0.10141 0.93304 0.0
H360 H 0.1438 0.14803 0.89159 0.0
H361 H 0.20554 0.10818 0.90124 0.0
C362 C 0.25713 0.14102 0.21376 0.0
C363 C 0.23229 0.14047 0.22751 0.0
C364 C 0.25253 0.10859 0.20266 0.0
C365 C 0.2369 0.99849 0.20128 0.0
H366 H 0.17124 1.00041 0.16306 0.0
C367 C 0.13773 0.85898 0.18088 0.0
C368 C 0.13149 0.85136 0.16493 0.0
C369 C 0.16352 0.89253 0.18572 0.0
C370 C 0.19077 0.99947 0.17345 0.0
H371 H 0.18106 0.10784 0.23984 0.0
H372 H 0.17338 0.05137 0.22057 0.0
H373 H 0.18812 0.0676 0.17624 0.0
H374 H 0.14965 0.87067 0.14152 0.0
H375 H 0.19433 0.93072 0.14999 0.0
H376 H 0.23767 0.93053 0.19912 0.0
C377 C 0.19648 0.07654 0.21845 0.0
C378 C 0.20023 0.03789 0.18098 0.0
C379 C 0.2009 0.10879 0.22943 0.0
C380 C 0.15401 0.87602 0.15387 0.0
C381 C 0.17929 0.91042 0.15872 0.0
C382 C 0.22763 0.96026 0.19377 0.0
C383 C 0.22305 0.07548 0.20524 0.0
C384 C 0.22194 0.03737 0.19525 0.0
C385 C 0.18321 0.91974 0.17471 0.0
C386 C 0.20279 0.96015 0.18016 0.0
H387 H 0.28175 0.16492 0.21206 0.0
H388 H 0.27332 0.10816 0.19252 0.0
H389 H 0.25367 0.99752 0.21231 0.0
H390 H 0.12064 0.84041 0.18963 0.0
H391 H 0.16545 0.89898 0.19811 0.0
C392 C 0.13623 0.01124 0.54149 0.0
C393 C 0.11846 0.03672 0.52969 0.0
C394 C 0.16271 0.02923 0.55272 0.0
C395 C 0.20279 0.13301 0.5684 0.0
H396 H 0.30133 0.06404 0.57869 0.0
C397 C 0.33932 0.19572 0.60769 0.0
C398 C 0.38091 0.18634 0.60248 0.0
C399 C 0.30394 0.17585 0.60093 0.0
C400 C 0.27412 0.08386 0.57591 0.0
H401 H 0.1131 0.10092 0.5205 0.0
H402 H 0.16088 0.13244 0.53973 0.0
H403 H 0.24539 0.03418 0.56276 0.0
H404 H 0.41757 0.14781 0.58622 0.0
H405 H 0.35649 0.11425 0.5744 0.0
H406 H 0.23324 0.1836 0.58083 0.0
C407 C 0.15356 0.09874 0.54066 0.0
C408 C 0.24155 0.06647 0.56694 0.0
C409 C 0.12638 0.08077 0.52957 0.0
C410 C 0.38618 0.15592 0.59063 0.0
C411 C 0.35099 0.1363 0.58387 0.0
C412 C 0.23573 0.1506 0.57728 0.0
C413 C 0.17282 0.07301 0.55219 0.0
C414 C 0.20565 0.09092 0.56286 0.0
C415 C 0.30937 0.14617 0.58883 0.0
C416 C 0.27218 0.12645 0.58088 0.0
H417 H 0.13012 0.9772 0.54186 0.0
H418 H 0.17591 0.00854 0.56164 0.0
H419 H 0.17538 0.15263 0.56571 0.0
H420 H 0.33398 0.21893 0.61679 0.0
H421 H 0.27235 0.18385 0.60514 0.0
C422 C 0.18787 0.91722 0.77228 0.0
C423 C 0.21081 0.88283 0.77859 0.0
C424 C 0.16983 0.94792 0.78199 0.0
C425 C 0.18399 0.99627 0.82066 0.0
H426 H 0.07931 0.05441 0.80959 0.0
C427 C 0.10579 0.13567 0.85605 0.0
C428 C 0.08837 0.16901 0.84704 0.0
C429 C 0.12283 0.09941 0.84882 0.0
C430 C 0.10879 0.03871 0.81277 0.0
H431 H 0.23148 0.85245 0.8 0.0
H432 H 0.19923 0.90614 0.81719 0.0
H433 H 0.10021 0.99048 0.79555 0.0
H434 H 0.07784 0.19165 0.82339 0.0
H435 H 0.10771 0.12885 0.81085 0.0
H436 H 0.19229 0.04494 0.83794 0.0
C437 C 0.19561 0.90952 0.80467 0.0
C438 C 0.12074 1.00197 0.80474 0.0
C439 C 0.21358 0.87851 0.79488 0.0
C440 C 0.09081 0.16648 0.83068 0.0
C441 C 0.10759 0.13032 0.82349 0.0
C442 C 0.17182 0.03303 0.8288 0.0
C443 C 0.1743 0.94512 0.7983 0.0
C444 C 0.15899 0.98079 0.80831 0.0
C445 C 0.12242 0.09574 0.83246 0.0
C446 C 0.13458 0.0552 0.82467 0.0
H447 H 0.18552 0.92136 0.75973 0.0
H448 H 0.15419 0.97503 0.77661 0.0
H449 H 0.21385 0.98103 0.82364 0.0
H450 H 0.10354 0.1362 0.86866 0.0
H451 H 0.13396 0.07325 0.85605 0.0
C452 C 0.37274 0.93662 0.03264 0.0
C453 C 0.39364 0.97586 0.03447 0.0
C454 C 0.34308 0.92237 0.0437 0.0
C455 C 0.26699 0.96278 0.07272 0.0
H456 H 0.25075 0.84183 0.08061 0.0
C457 C 0.12404 0.882 0.10769 0.0
C458 C 0.10463 0.84925 0.09907 0.0
C459 C 0.16183 0.90147 0.10226 0.0
C460 C 0.25503 0.87576 0.07861 0.0
H461 H 0.40112 0.03047 0.04952 0.0
H462 H 0.34894 1.00536 0.06913 0.0
H463 H 0.31572 0.86659 0.06766 0.0
H464 H 0.10871 0.81325 0.07748 0.0
H465 H 0.17382 0.84677 0.06826 0.0
H466 H 0.20543 0.9714 0.08347 0.0
C467 C 0.35551 0.98572 0.05906 0.0
C468 C 0.29217 0.88996 0.07115 0.0
C469 C 0.38565 0.99987 0.04795 0.0
C470 C 0.1226 0.83812 0.08455 0.0
C471 C 0.16026 0.85708 0.07927 0.0
C472 C 0.2298 0.94849 0.08035 0.0
C473 C 0.33332 0.94709 0.0569 0.0
C474 C 0.29793 0.93344 0.06754 0.0
C475 C 0.18088 0.88811 0.08822 0.0
C476 C 0.22287 0.90467 0.08282 0.0
H477 H 0.37818 0.91768 0.02228 0.0
H478 H 0.32626 0.89285 0.04148 0.0
H479 H 0.27028 0.99647 0.07006 0.0
H480 H 0.11067 0.89175 0.11879 0.0
H481 H 0.17699 0.92566 0.10931 0.0
C482 C 0.31417 0.15242 0.28818 0.0
C483 C 0.27175 0.15183 0.28312 0.0
C484 C 0.32766 0.12429 0.2999 0.0
C485 C 0.29604 0.01966 0.3169 0.0
H486 H 0.39664 0.03795 0.34205 0.0
C487 C 0.39611 0.87969 0.33936 0.0
C488 C 0.41829 0.88299 0.35352 0.0
C489 C 0.37378 0.91448 0.3333 0.0
C490 C 0.36805 0.03236 0.33534 0.0
H491 H 0.20938 0.12405 0.28694 0.0
H492 H 0.23206 0.07667 0.30807 0.0
H493 H 0.36477 0.09783 0.32818 0.0
H494 H 0.43297 0.92533 0.3727 0.0
H495 H 0.39293 0.98583 0.36231 0.0
H496 H 0.29861 0.95454 0.32433 0.0
C497 C 0.25554 0.09744 0.30264 0.0
C498 C 0.35007 0.0667 0.32716 0.0
C499 C 0.2423 0.12493 0.29069 0.0
C500 C 0.41649 0.92172 0.3617 0.0
C501 C 0.39371 0.95652 0.35569 0.0
C502 C 0.31359 0.98557 0.32524 0.0
C503 C 0.29879 0.0954 0.30696 0.0
C504 C 0.31449 0.06059 0.31747 0.0
C505 C 0.37247 0.95351 0.3413 0.0
C506 C 0.35061 0.99111 0.33418 0.0
H507 H 0.3375 0.17258 0.28234 0.0
H508 H 0.36127 0.12354 0.30269 0.0
H509 H 0.26901 0.01321 0.30947 0.0
H510 H 0.39702 0.85059 0.33262 0.0
H511 H 0.3587 0.91102 0.32204 0.0
C512 C 0.88787 0.03467 0.5398 0.0
C513 C 0.88974 0.05764 0.52566 0.0
C514 C 0.86144 0.04845 0.55199 0.0
C515 C 0.77785 0.06937 0.56924 0.0
H516 H 0.76779 0.18948 0.57919 0.0
C517 C 0.62593 0.14617 0.59456 0.0
C518 C 0.63012 0.17996 0.60516 0.0
C519 C 0.66198 0.12731 0.58791 0.0
C520 C 0.7706 0.15573 0.57676 0.0
H521 H 0.86709 0.11372 0.51334 0.0
H522 H 0.82124 0.13794 0.53459 0.0
H523 H 0.8248 0.16572 0.56185 0.0
H524 H 0.67587 0.21864 0.61776 0.0
H525 H 0.73861 0.18569 0.60611 0.0
H526 H 0.72278 0.05961 0.5838 0.0
C527 C 0.84005 0.10935 0.53631 0.0
C528 C 0.80301 0.14221 0.56672 0.0
C529 C 0.866 0.09534 0.52411 0.0
C530 C 0.67131 0.19285 0.60958 0.0
C531 C 0.70734 0.17414 0.60285 0.0
C532 C 0.74518 0.08295 0.57921 0.0
C533 C 0.83699 0.08575 0.55029 0.0
C534 C 0.80638 0.09906 0.56258 0.0
C535 C 0.70303 0.14192 0.59166 0.0
C536 C 0.74069 0.12641 0.58281 0.0
H537 H 0.90575 1.00537 0.54124 0.0
H538 H 0.85978 0.02978 0.56268 0.0
H539 H 0.77954 0.03594 0.56618 0.0
H540 H 0.59476 0.13521 0.59094 0.0
H541 H 0.6576 0.10275 0.57922 0.0
C542 C 0.7522 0.11782 0.28801 0.0
C543 C 0.72348 0.1494 0.28309 0.0
C544 C 0.73915 0.08575 0.29841 0.0
C545 C 0.65089 0.04991 0.32493 0.0
H546 H 0.68876 0.93745 0.31234 0.0
C547 C 0.59657 0.89727 0.35788 0.0
C548 C 0.58509 0.86224 0.34866 0.0
C549 C 0.61764 0.93247 0.35128 0.0
C550 C 0.67772 0.96857 0.316 0.0
H551 H 0.65934 0.1736 0.28564 0.0
H552 H 0.63606 0.11726 0.30374 0.0
H553 H 0.71701 1.00031 0.29907 0.0
H554 H 0.5863 0.83674 0.32523 0.0
H555 H 0.62275 0.89827 0.31359 0.0
H556 H 0.61016 0.01786 0.34141 0.0
C557 C 0.66894 0.11754 0.29981 0.0
C558 C 0.69442 1.00478 0.30852 0.0
C559 C 0.6822 0.14992 0.28948 0.0
C560 C 0.5954 0.86299 0.33268 0.0
C561 C 0.61643 0.89822 0.32604 0.0
C562 C 0.63411 0.01362 0.3324 0.0
C563 C 0.69684 0.08415 0.30395 0.0
C564 C 0.681 0.04597 0.31279 0.0
C565 C 0.62734 0.93369 0.33522 0.0
C566 C 0.647 0.97243 0.32791 0.0
H567 H 0.78416 0.11673 0.28314 0.0
H568 H 0.76181 0.06122 0.30162 0.0
H569 H 0.64002 0.08106 0.3286 0.0
H570 H 0.58723 0.89848 0.37004 0.0
H571 H 0.62567 0.95905 0.35872 0.0
C572 C 0.63155 0.9575 0.03994 0.0
C573 C 0.6281 1.00168 0.03731 0.0
C574 C 0.66347 0.9413 0.04979 0.0
C575 C 0.77106 0.96985 0.06212 0.0
H576 H 0.76043 0.87746 0.09227 0.0
C577 C 0.91321 0.86925 0.08414 0.0
C578 C 0.91519 0.85998 0.10021 0.0
C579 C 0.87793 0.89035 0.07787 0.0
C580 C 0.76376 0.90354 0.08397 0.0
H581 H 0.65273 0.06357 0.04393 0.0
H582 H 0.7081 0.03546 0.06098 0.0
H583 H 0.69652 0.90516 0.07924 0.0
H584 H 0.88205 0.86661 0.12237 0.0
H585 H 0.82002 0.90317 0.11132 0.0
H586 H 0.83824 0.96761 0.06649 0.0
C587 C 0.68686 0.01325 0.05528 0.0
C588 C 0.72728 0.9191 0.07644 0.0
C589 C 0.65503 0.02933 0.04557 0.0
C590 C 0.88177 0.87378 0.10997 0.0
C591 C 0.84601 0.89419 0.10363 0.0
C592 C 0.80747 0.95389 0.06945 0.0
C593 C 0.69245 0.96907 0.05709 0.0
C594 C 0.73057 0.95248 0.06544 0.0
C595 C 0.84342 0.902 0.08747 0.0
C596 C 0.80429 0.92053 0.08043 0.0
H597 H 0.6114 0.93546 0.03367 0.0
H598 H 0.66703 0.90706 0.05097 0.0
H599 H 0.77474 0.99526 0.05357 0.0
H600 H 0.93831 0.85877 0.07632 0.0
H601 H 0.87678 0.8958 0.06537 0.0
C602 C 0.82724 0.88314 0.77974 0.0
C603 C 0.78339 0.87444 0.77948 0.0
C604 C 0.84413 0.90998 0.79115 0.0
C605 C 0.809 0.99624 0.81758 0.0
H606 H 0.92554 0.98945 0.83218 0.0
C607 C 0.89636 0.1419 0.84155 0.0
C608 C 0.92679 0.13684 0.85342 0.0
C609 C 0.8768 0.10652 0.83489 0.0
C610 C 0.89268 0.99149 0.82844 0.0
H611 H 0.72313 0.88423 0.79135 0.0
H612 H 0.75262 0.92949 0.81166 0.0
H613 H 0.89617 0.9314 0.81677 0.0
H614 H 0.95919 0.09019 0.86796 0.0
H615 H 0.92426 0.0283 0.85649 0.0
H616 H 0.80517 0.05586 0.82941 0.0
C617 C 0.77395 0.91713 0.8028 0.0
C618 C 0.87602 0.95845 0.8194 0.0
C619 C 0.75704 0.89097 0.79126 0.0
C620 C 0.93601 0.09536 0.85883 0.0
C621 C 0.91623 0.05983 0.85216 0.0
C622 C 0.82548 0.02895 0.82672 0.0
C623 C 0.81749 0.9281 0.80263 0.0
C624 C 0.83421 0.96082 0.81358 0.0
C625 C 0.8868 0.06499 0.83996 0.0
C626 C 0.86785 0.02756 0.83194 0.0
H627 H 0.84805 0.87083 0.77069 0.0
H628 H 0.87769 0.91801 0.7905 0.0
H629 H 0.77688 0.99966 0.81319 0.0
H630 H 0.88834 0.17323 0.83702 0.0
H631 H 0.85487 0.1118 0.82535 0.0
C632 C 0.88826 0.97278 0.46457 0.0
C633 C 0.8928 0.01445 0.47019 0.0
C634 C 0.85609 0.96315 0.45387 0.0
C635 C 0.78891 0.95075 0.42876 0.0
H636 H 0.68191 1.00404 0.44041 0.0
C637 C 0.63089 0.89575 0.40164 0.0
C638 C 0.59804 0.88796 0.41248 0.0
C639 C 0.66669 0.91966 0.40583 0.0
C640 C 0.7115 0.98893 0.43697 0.0
H641 H 0.87029 0.07946 0.46805 0.0
H642 H 0.81515 0.06311 0.44898 0.0
H643 H 0.74791 0.02818 0.45222 0.0
H644 H 0.57645 0.89881 0.43613 0.0
H645 H 0.63878 0.94063 0.44357 0.0
H646 H 0.75204 0.9098 0.41419 0.0
C647 C 0.8354 0.03752 0.45313 0.0
C648 C 0.74955 1.00314 0.44359 0.0
C649 C 0.86727 0.04702 0.4639 0.0
C650 C 0.60084 0.90556 0.42744 0.0
C651 C 0.63662 0.92945 0.43167 0.0
C652 C 0.7508 0.93648 0.42214 0.0
C653 C 0.82806 0.99514 0.44855 0.0
C654 C 0.78868 0.98364 0.43984 0.0
C655 C 0.67062 0.93567 0.42106 0.0
C656 C 0.71149 0.95476 0.42644 0.0
H657 H 0.90722 0.94705 0.46939 0.0
H658 H 0.85131 0.93012 0.4507 0.0
H659 H 0.81845 0.93529 0.42547 0.0
H660 H 0.63056 0.88055 0.39034 0.0
H661 H 0.69215 0.92395 0.39736 0.0
C662 C 0.79481 0.15476 0.21869 0.0
C663 C 0.75561 0.15281 0.22665 0.0
C664 C 0.80492 0.12434 0.20734 0.0
C665 C 0.77781 0.01288 0.19786 0.0
H666 H 0.85522 0.03233 0.16308 0.0
C667 C 0.85344 0.87271 0.16339 0.0
C668 C 0.89806 0.87615 0.16257 0.0
C669 C 0.82872 0.90814 0.16777 0.0
C670 C 0.83338 0.02639 0.17271 0.0
H671 H 0.69487 0.12002 0.22812 0.0
H672 H 0.71191 0.06774 0.20805 0.0
H673 H 0.82523 0.09317 0.17698 0.0
H674 H 0.95147 0.91982 0.16456 0.0
H675 H 0.90889 0.98086 0.17198 0.0
H676 H 0.78717 0.9461 0.19392 0.0
C677 C 0.73542 0.09184 0.21082 0.0
C678 C 0.81634 0.06127 0.18072 0.0
C679 C 0.72547 0.12201 0.22221 0.0
C680 C 0.91716 0.91599 0.1653 0.0
C681 C 0.89267 0.95122 0.16939 0.0
C682 C 0.79478 0.97801 0.18983 0.0
C683 C 0.77589 0.09153 0.20367 0.0
C684 C 0.78928 0.05497 0.19369 0.0
C685 C 0.84826 0.94766 0.17103 0.0
C686 C 0.82382 0.98433 0.17747 0.0
H687 H 0.81875 0.17788 0.22201 0.0
H688 H 0.83652 0.12499 0.20217 0.0
H689 H 0.75753 1.00664 0.2079 0.0
H690 H 0.83793 0.8424 0.1613 0.0
H691 H 0.79449 0.90449 0.16888 0.0
C692 C 0.62459 0.07938 0.97406 0.0
C693 C 0.62173 0.0915 0.9898 0.0
C694 C 0.65634 0.09693 0.9643 0.0
C695 C 0.76465 0.13619 0.96852 0.0
H696 H 0.75778 0.17427 0.92545 0.0
C697 C 0.91255 0.20315 0.93707 0.0
C698 C 0.91862 0.19409 0.92117 0.0
C699 C 0.87401 0.19336 0.94454 0.0
C700 C 0.76036 0.1632 0.93741 0.0
H701 H 0.64689 0.13411 0.00729 0.0
H702 H 0.70183 0.16487 0.99032 0.0
H703 H 0.69255 0.15404 0.93962 0.0
H704 H 0.88865 0.16792 0.90059 0.0
H705 H 0.82189 0.14901 0.91381 0.0
H706 H 0.83203 0.14354 0.9664 0.0
C707 C 0.68019 0.14141 0.98554 0.0
C708 C 0.72292 0.15185 0.94553 0.0
C709 C 0.64857 0.12408 0.99521 0.0
C710 C 0.88503 0.17518 0.91288 0.0
C711 C 0.84658 0.16469 0.92044 0.0
C712 C 0.80191 0.14692 0.96041 0.0
C713 C 0.68568 0.12668 0.9702 0.0
C714 C 0.72471 0.13873 0.96124 0.0
C715 C 0.84062 0.17342 0.93642 0.0
C716 C 0.8004 0.16106 0.94479 0.0
H717 H 0.60454 0.05404 0.96965 0.0
H718 H 0.65983 0.085 0.95252 0.0
H719 H 0.76719 0.12518 0.98051 0.0
H720 H 0.93741 0.21851 0.94373 0.0
H721 H 0.87039 0.20178 0.95672 0.0
C722 C 0.65202 0.89854 0.74161 0.0
C723 C 0.68435 0.87399 0.73469 0.0
C724 C 0.63092 0.92991 0.73299 0.0
C725 C 0.61172 0.97526 0.69361 0.0
H726 H 0.61495 0.08272 0.71575 0.0
C727 C 0.58481 0.1389 0.66297 0.0
C728 C 0.56426 0.17115 0.6715 0.0
C729 C 0.59552 0.1001 0.67014 0.0
C730 C 0.61297 0.05297 0.70944 0.0
H731 H 0.71754 0.86049 0.71305 0.0
H732 H 0.68037 0.91548 0.69785 0.0
H733 H 0.63764 0.01782 0.72884 0.0
H734 H 0.53726 0.18716 0.69409 0.0
H735 H 0.55468 0.11936 0.70642 0.0
H736 H 0.58698 0.01069 0.67417 0.0
C737 C 0.67136 0.91038 0.70996 0.0
C738 C 0.62608 0.01566 0.71697 0.0
C739 C 0.69254 0.87883 0.71863 0.0
C740 C 0.55375 0.16332 0.68724 0.0
C741 C 0.5639 0.12439 0.69433 0.0
C742 C 0.59817 0.01271 0.68608 0.0
C743 C 0.6417 0.93749 0.71726 0.0
C744 C 0.62568 0.97637 0.70917 0.0
C745 C 0.58547 0.09244 0.68596 0.0
C746 C 0.59874 0.0521 0.6939 0.0
H747 H 0.64481 0.89513 0.75395 0.0
H748 H 0.60753 0.94965 0.73885 0.0
H749 H 0.61099 0.94542 0.68731 0.0
H750 H 0.59332 0.14389 0.65081 0.0
H751 H 0.61255 0.07653 0.66335 0.0
C752 C 0.62453 0.45414 0.96838 0.0
C753 C 0.62376 0.45252 0.98477 0.0
C754 C 0.6563 0.4324 0.96003 0.0
C755 C 0.7665 0.39773 0.96619 0.0
H756 H 0.75583 0.34132 0.92626 0.0
C757 C 0.91129 0.31874 0.93725 0.0
C758 C 0.91664 0.32405 0.92104 0.0
C759 C 0.87313 0.33023 0.94456 0.0
C760 C 0.75935 0.35734 0.93735 0.0
H761 H 0.65288 0.42444 0.00525 0.0
H762 H 0.70752 0.38576 0.99076 0.0
H763 H 0.69183 0.3671 0.93976 0.0
H764 H 0.88553 0.34492 0.89975 0.0
H765 H 0.81927 0.36624 0.91261 0.0
H766 H 0.83369 0.38918 0.96377 0.0
C767 C 0.68448 0.40451 0.98431 0.0
C768 C 0.72268 0.37197 0.94508 0.0
C769 C 0.65303 0.42631 0.9926 0.0
C770 C 0.88254 0.34054 0.91228 0.0
C771 C 0.8444 0.35245 0.91963 0.0
C772 C 0.80297 0.38337 0.95847 0.0
C773 C 0.68765 0.40874 0.96798 0.0
C774 C 0.72588 0.39212 0.95965 0.0
C775 C 0.83939 0.34785 0.9359 0.0
C776 C 0.79998 0.36281 0.94398 0.0
H777 H 0.60246 0.47447 0.96211 0.0
H778 H 0.65791 0.43634 0.94746 0.0
H779 H 0.77028 0.41413 0.97719 0.0
H780 H 0.93656 0.30544 0.94434 0.0
H781 H 0.8701 0.32528 0.95705 0.0
C782 C 0.80615 0.38497 0.22036 0.0
C783 C 0.81409 0.38286 0.23648 0.0
C784 C 0.82567 0.4167 0.21109 0.0
C785 C 0.86522 0.52557 0.21609 0.0
H786 H 0.90958 0.51675 0.17389 0.0
C787 C 0.94298 0.67008 0.18595 0.0
C788 C 0.93514 0.67727 0.17001 0.0
C789 C 0.93082 0.63181 0.19316 0.0
C790 C 0.89683 0.51982 0.18561 0.0
H791 H 0.85102 0.40957 0.25532 0.0
H792 H 0.88562 0.46416 0.23919 0.0
H793 H 0.88555 0.45231 0.18783 0.0
H794 H 0.90916 0.64924 0.14903 0.0
H795 H 0.88658 0.58267 0.16177 0.0
H796 H 0.87515 0.59271 0.21395 0.0
C797 C 0.86378 0.44211 0.23371 0.0
C798 C 0.88324 0.48286 0.1936 0.0
C799 C 0.84434 0.41063 0.24292 0.0
C800 C 0.91544 0.6448 0.16136 0.0
C801 C 0.90279 0.6065 0.16865 0.0
C802 C 0.87839 0.56233 0.20812 0.0
C803 C 0.8533 0.44674 0.21785 0.0
C804 C 0.86776 0.48533 0.20901 0.0
C805 C 0.90994 0.5997 0.1847 0.0
C806 C 0.89485 0.56005 0.19284 0.0
H807 H 0.78258 0.3642 0.21518 0.0
H808 H 0.81694 0.41946 0.19891 0.0
H809 H 0.85236 0.52881 0.2278 0.0
H810 H 0.95899 0.69394 0.1929 0.0
H811 H 0.938 0.62739 0.20542 0.0
C812 C 0.86202 0.48713 0.4743 0.0
C813 C 0.89243 0.51755 0.47888 0.0
C814 C 0.83193 0.4969 0.46285 0.0
C815 C 0.8023 0.57602 0.43211 0.0
H816 H 0.68666 0.54847 0.44507 0.0
C817 C 0.6583 0.67532 0.4139 0.0
C818 C 0.61806 0.6564 0.41193 0.0
C819 C 0.69332 0.65107 0.41842 0.0
C820 C 0.7187 0.5556 0.44103 0.0
H821 H 0.9169 0.58106 0.4743 0.0
H822 H 0.86434 0.59833 0.45425 0.0
H823 H 0.74655 0.5199 0.45974 0.0
H824 H 0.58334 0.59668 0.41236 0.0
H825 H 0.64512 0.55363 0.42053 0.0
H826 H 0.77428 0.61296 0.41371 0.0
C827 C 0.86384 0.56675 0.45946 0.0
C828 C 0.75317 0.53928 0.44948 0.0
C829 C 0.89405 0.5569 0.47094 0.0
C830 C 0.61401 0.61203 0.41381 0.0
C831 C 0.64928 0.58756 0.41857 0.0
C832 C 0.76782 0.59225 0.42364 0.0
C833 C 0.8315 0.53736 0.45567 0.0
C834 C 0.79539 0.55022 0.44539 0.0
C835 C 0.68918 0.60706 0.42122 0.0
C836 C 0.72555 0.58331 0.42828 0.0
H837 H 0.86038 0.45628 0.48007 0.0
H838 H 0.80813 0.47319 0.45998 0.0
H839 H 0.83437 0.58446 0.42847 0.0
H840 H 0.66251 0.70944 0.41238 0.0
H841 H 0.72321 0.66738 0.4205 0.0
C842 C 0.72363 0.6571 0.71032 0.0
C843 C 0.76343 0.6528 0.71759 0.0
C844 C 0.71017 0.627 0.6994 0.0
C845 C 0.74244 0.52838 0.67758 0.0
H846 H 0.62933 0.49114 0.69011 0.0
C847 C 0.62735 0.37008 0.68043 0.0
C848 C 0.62471 0.35736 0.66479 0.0
C849 C 0.65002 0.40656 0.68445 0.0
C850 C 0.66101 0.50105 0.68647 0.0
H851 H 0.8225 0.61697 0.7176 0.0
H852 H 0.79868 0.56391 0.69899 0.0
H853 H 0.65676 0.55815 0.69969 0.0
H854 H 0.64708 0.3703 0.64126 0.0
H855 H 0.68674 0.43514 0.64829 0.0
H856 H 0.74676 0.46958 0.66484 0.0
C857 C 0.77771 0.59035 0.70161 0.0
C858 C 0.67653 0.53998 0.69176 0.0
C859 C 0.79126 0.62061 0.71242 0.0
C860 C 0.64856 0.3796 0.6534 0.0
C861 C 0.67111 0.41668 0.65741 0.0
C862 C 0.72672 0.48918 0.67221 0.0
C863 C 0.73611 0.59185 0.69562 0.0
C864 C 0.71781 0.55383 0.6877 0.0
C865 C 0.67021 0.43155 0.67289 0.0
C866 C 0.6863 0.47461 0.67702 0.0
H867 H 0.70148 0.68161 0.71398 0.0
H868 H 0.67832 0.62977 0.69469 0.0
H869 H 0.77425 0.53826 0.67411 0.0
H870 H 0.60969 0.35318 0.68948 0.0
H871 H 0.64985 0.41649 0.69654 0.0
C872 C 0.65891 0.58924 0.01846 0.0
C873 C 0.62018 0.57046 0.02316 0.0
C874 C 0.68352 0.61193 0.02908 0.0
C875 C 0.70337 0.61946 0.0713 0.0
H876 H 0.77745 0.71176 0.05757 0.0
C877 C 0.83561 0.70758 0.10811 0.0
C878 C 0.87588 0.70303 0.10093 0.0
C879 C 0.79855 0.69462 0.10036 0.0
C880 C 0.75657 0.68631 0.0616 0.0
H881 H 0.57603 0.56229 0.04256 0.0
H882 H 0.61861 0.60301 0.06105 0.0
H883 H 0.72111 0.68674 0.04038 0.0
H884 H 0.90851 0.67997 0.08014 0.0
H885 H 0.84418 0.65841 0.06675 0.0
H886 H 0.73973 0.61909 0.0925 0.0
C887 C 0.63026 0.59949 0.0492 0.0
C888 C 0.72455 0.67175 0.05174 0.0
C889 C 0.60564 0.5766 0.03855 0.0
C890 C 0.87825 0.68406 0.0861 0.0
C891 C 0.8414 0.67189 0.07834 0.0
C892 C 0.73517 0.63451 0.08126 0.0
C893 C 0.6699 0.61674 0.04466 0.0
C894 C 0.69861 0.63706 0.05621 0.0
C895 C 0.80129 0.67771 0.08526 0.0
C896 C 0.76286 0.66703 0.07624 0.0
H897 H 0.67074 0.58554 0.00664 0.0
H898 H 0.7141 0.62423 0.02518 0.0
H899 H 0.6842 0.5925 0.07509 0.0
H900 H 0.83264 0.72197 0.11953 0.0
H901 H 0.76777 0.69914 0.10591 0.0
C902 C 0.71367 0.38269 0.29564 0.0
C903 C 0.70868 0.38731 0.27942 0.0
C904 C 0.697 0.41345 0.30584 0.0
C905 C 0.62166 0.50537 0.30751 0.0
H906 H 0.69759 0.54915 0.33924 0.0
C907 C 0.59675 0.67125 0.33224 0.0
C908 C 0.59411 0.67466 0.34858 0.0
C909 C 0.61311 0.63456 0.32532 0.0
C910 C 0.67592 0.53696 0.33053 0.0
H911 H 0.68079 0.4262 0.26118 0.0
H912 H 0.65162 0.47937 0.27876 0.0
H913 H 0.71735 0.48498 0.32467 0.0
H914 H 0.60991 0.6434 0.37048 0.0
H915 H 0.63945 0.57919 0.35827 0.0
H916 H 0.58091 0.5579 0.31297 0.0
C917 C 0.66806 0.45221 0.28377 0.0
C918 C 0.68706 0.50009 0.32224 0.0
C919 C 0.68486 0.4218 0.27365 0.0
C920 C 0.61175 0.64194 0.35785 0.0
C921 C 0.62838 0.60503 0.35088 0.0
C922 C 0.61076 0.5422 0.31567 0.0
C923 C 0.67471 0.44908 0.29997 0.0
C924 C 0.6605 0.48446 0.31035 0.0
C925 C 0.62745 0.6003 0.33455 0.0
C926 C 0.6382 0.55906 0.32699 0.0
H927 H 0.73231 0.35657 0.30035 0.0
H928 H 0.70233 0.40984 0.31826 0.0
H929 H 0.59994 0.49374 0.29871 0.0
H930 H 0.5838 0.69599 0.32474 0.0
H931 H 0.61298 0.63227 0.3127 0.0
C932 C 0.88266 0.49883 0.54707 0.0
C933 C 0.89391 0.473 0.53437 0.0
C934 C 0.85239 0.48454 0.5581 0.0
C935 C 0.79358 0.38689 0.57156 0.0
H936 H 0.70183 0.46533 0.58137 0.0
C937 C 0.62561 0.32845 0.58492 0.0
C938 C 0.6057 0.34172 0.59884 0.0
C939 C 0.66292 0.34799 0.57956 0.0
C940 C 0.72756 0.44329 0.57895 0.0
H941 H 0.88381 0.41189 0.52343 0.0
H942 H 0.8317 0.38678 0.54254 0.0
H943 H 0.76619 0.49174 0.56803 0.0
H944 H 0.60831 0.38811 0.61746 0.0
H945 H 0.67385 0.42313 0.60779 0.0
H946 H 0.75403 0.33812 0.58167 0.0
C947 C 0.8462 0.41776 0.54426 0.0
C948 C 0.76451 0.45836 0.57135 0.0
C949 C 0.87605 0.43209 0.53326 0.0
C950 C 0.62304 0.37683 0.6068 0.0
C951 C 0.66043 0.39689 0.60127 0.0
C952 C 0.75665 0.37187 0.57897 0.0
C953 C 0.83315 0.44409 0.55665 0.0
C954 C 0.7974 0.43003 0.56711 0.0
C955 C 0.68129 0.38176 0.58782 0.0
C956 C 0.72273 0.39961 0.58232 0.0
H957 H 0.89561 0.53076 0.548 0.0
H958 H 0.84333 0.50551 0.56755 0.0
H959 H 0.8186 0.36432 0.56883 0.0
H960 H 0.61341 0.30166 0.57838 0.0
H961 H 0.67788 0.33615 0.56901 0.0
C962 C 0.78363 0.64448 0.78742 0.0
C963 C 0.80654 0.64604 0.77327 0.0
C964 C 0.79691 0.61762 0.79959 0.0
C965 C 0.81668 0.53396 0.81713 0.0
H966 H 0.93666 0.52246 0.82701 0.0
C967 C 0.89134 0.38199 0.84358 0.0
C968 C 0.9253 0.38622 0.85412 0.0
C969 C 0.873 0.418 0.83665 0.0
C970 C 0.90295 0.52567 0.8246 0.0
H971 H 0.86194 0.62216 0.76092 0.0
H972 H 0.88527 0.57556 0.78213 0.0
H973 H 0.91359 0.57911 0.80933 0.0
H974 H 0.96483 0.43207 0.8663 0.0
H975 H 0.93279 0.49474 0.85416 0.0
H976 H 0.80626 0.47968 0.83207 0.0
C977 C 0.85711 0.59497 0.78387 0.0
C978 C 0.88982 0.55787 0.81435 0.0
C979 C 0.8436 0.62135 0.77168 0.0
C980 C 0.93888 0.42748 0.85819 0.0
C981 C 0.9207 0.46346 0.85117 0.0
C982 C 0.82988 0.50149 0.8273 0.0
C983 C 0.83366 0.5924 0.79788 0.0
C984 C 0.84669 0.56178 0.81025 0.0
C985 C 0.88831 0.45905 0.84004 0.0
C986 C 0.87328 0.4965 0.83089 0.0
H987 H 0.75481 0.66305 0.7889 0.0
H988 H 0.77835 0.61637 0.8103 0.0
H989 H 0.78326 0.53608 0.81411 0.0
H990 H 0.87983 0.35078 0.84023 0.0
H991 H 0.84829 0.41351 0.82803 0.0
C992 C 0.36033 0.51207 0.03902 0.0
C993 C 0.39369 0.5363 0.03243 0.0
C994 C 0.33368 0.52968 0.05041 0.0
C995 C 0.28842 0.63168 0.05952 0.0
H996 H 0.24263 0.57597 0.09664 0.0
C997 C 0.12504 0.67304 0.08551 0.0
C998 C 0.12483 0.68575 0.10122 0.0
C999 C 0.16117 0.65417 0.07897 0.0
C1000 C 0.25544 0.59192 0.08637 0.0
H1001 H 0.42682 0.59694 0.03305 0.0
H1002 H 0.37966 0.62808 0.05281 0.0
H1003 H 0.30323 0.54395 0.08266 0.0
H1004 H 0.16171 0.6869 0.12257 0.0
H1005 H 0.22473 0.65254 0.11112 0.0
H1006 H 0.23958 0.67852 0.06276 0.0
C1007 C 0.3744 0.59541 0.04925 0.0
C1008 C 0.2899 0.57366 0.07838 0.0
C1009 C 0.40147 0.57755 0.03804 0.0
C1010 C 0.161 0.67758 0.11042 0.0
C1011 C 0.19694 0.65788 0.10392 0.0
C1012 C 0.2536 0.64943 0.06731 0.0
C1013 C 0.33954 0.57204 0.0552 0.0
C1014 C 0.30641 0.59321 0.06479 0.0
C1015 C 0.19757 0.6469 0.08805 0.0
C1016 C 0.23645 0.62943 0.08066 0.0
H1017 H 0.35378 0.48016 0.03487 0.0
H1018 H 0.30688 0.51108 0.05472 0.0
H1019 H 0.30016 0.64714 0.04898 0.0
H1020 H 0.09787 0.67909 0.07807 0.0
H1021 H 0.16086 0.64564 0.06673 0.0
C1022 C 0.17414 0.62032 0.77789 0.0
C1023 C 0.21078 0.64515 0.78038 0.0
C1024 C 0.16315 0.58741 0.78819 0.0
C1025 C 0.1704 0.53954 0.82642 0.0
H1026 H 0.16622 0.43302 0.80367 0.0
C1027 C 0.11953 0.37816 0.85578 0.0
C1028 C 0.08952 0.35486 0.84713 0.0
C1029 C 0.14141 0.41287 0.84897 0.0
C1030 C 0.16705 0.46242 0.81023 0.0
H1031 H 0.26278 0.65725 0.79627 0.0
H1032 H 0.24273 0.5996 0.81471 0.0
H1033 H 0.18759 0.49838 0.79021 0.0
H1034 H 0.06113 0.34851 0.82418 0.0
H1035 H 0.09869 0.40805 0.81249 0.0
H1036 H 0.14767 0.50376 0.8463 0.0
C1037 C 0.22292 0.60571 0.80462 0.0
C1038 C 0.17947 0.49982 0.80252 0.0
C1039 C 0.23423 0.63874 0.79415 0.0
C1040 C 0.08382 0.36558 0.8313 0.0
C1041 C 0.10566 0.39986 0.82452 0.0
C1042 C 0.15738 0.50195 0.83417 0.0
C1043 C 0.18827 0.57872 0.80134 0.0
C1044 C 0.18022 0.53892 0.8104 0.0
C1045 C 0.13419 0.42453 0.83329 0.0
C1046 C 0.15435 0.46314 0.82601 0.0
H1047 H 0.15537 0.62476 0.76741 0.0
H1048 H 0.13596 0.56743 0.78551 0.0
H1049 H 0.17079 0.56935 0.83274 0.0
H1050 H 0.12519 0.37032 0.86791 0.0
H1051 H 0.16361 0.4308 0.85601 0.0
C1052 C 0.16363 0.44987 0.5233 0.0
C1053 C 0.1297 0.47323 0.52969 0.0
C1054 C 0.19456 0.43178 0.53292 0.0
C1055 C 0.24519 0.44651 0.57109 0.0
H1056 H 0.29936 0.33925 0.56069 0.0
C1057 C 0.38542 0.36779 0.60604 0.0
C1058 C 0.41687 0.34753 0.59693 0.0
C1059 C 0.34911 0.38534 0.59896 0.0
C1060 C 0.28482 0.36947 0.56368 0.0
H1061 H 0.10049 0.4948 0.55118 0.0
H1062 H 0.15474 0.46269 0.56821 0.0
H1063 H 0.23539 0.36121 0.54687 0.0
H1064 H 0.43658 0.33326 0.57322 0.0
H1065 H 0.37403 0.36432 0.56098 0.0
H1066 H 0.29518 0.45467 0.58787 0.0
C1067 C 0.15748 0.45866 0.55569 0.0
C1068 C 0.24803 0.38198 0.55578 0.0
C1069 C 0.12619 0.47657 0.546 0.0
C1070 C 0.41279 0.34818 0.58059 0.0
C1071 C 0.37671 0.36563 0.57357 0.0
C1072 C 0.28208 0.43385 0.57906 0.0
C1073 C 0.19249 0.43675 0.54923 0.0
C1074 C 0.22826 0.42111 0.55912 0.0
C1075 C 0.34366 0.3829 0.58269 0.0
C1076 C 0.30288 0.39564 0.57516 0.0
H1077 H 0.16714 0.44705 0.51075 0.0
H1078 H 0.22123 0.41562 0.52749 0.0
H1079 H 0.23098 0.47702 0.57387 0.0
H1080 H 0.38742 0.36766 0.61866 0.0
H1081 H 0.32427 0.39859 0.6063 0.0
C1082 C 0.34618 0.4096 0.26773 0.0
C1083 C 0.31811 0.3765 0.27202 0.0
C1084 C 0.36434 0.43553 0.27912 0.0
C1085 C 0.41215 0.47339 0.30694 0.0
H1086 H 0.33035 0.52446 0.33537 0.0
C1087 C 0.46173 0.59524 0.35373 0.0
C1088 C 0.43892 0.63381 0.35298 0.0
C1089 C 0.44725 0.55924 0.3458 0.0
C1090 C 0.35355 0.51023 0.32757 0.0
H1091 H 0.28788 0.34378 0.29155 0.0
H1092 H 0.31936 0.38951 0.31148 0.0
H1093 H 0.30717 0.46865 0.31746 0.0
H1094 H 0.38195 0.6642 0.344 0.0
H1095 H 0.35623 0.601 0.33041 0.0
H1096 H 0.45835 0.5156 0.31683 0.0
C1097 C 0.32739 0.39519 0.29932 0.0
C1098 C 0.34041 0.47814 0.31742 0.0
C1099 C 0.30971 0.36887 0.28794 0.0
C1100 C 0.40025 0.63498 0.34478 0.0
C1101 C 0.38544 0.59878 0.33706 0.0
C1102 C 0.42544 0.50506 0.31725 0.0
C1103 C 0.35429 0.42922 0.29499 0.0
C1104 C 0.36941 0.45996 0.30681 0.0
C1105 C 0.40932 0.56089 0.33719 0.0
C1106 C 0.39608 0.52432 0.32746 0.0
H1107 H 0.35321 0.41606 0.25554 0.0
H1108 H 0.38476 0.46172 0.27546 0.0
H1109 H 0.43516 0.45978 0.29892 0.0
H1110 H 0.49184 0.59337 0.35984 0.0
H1111 H 0.46611 0.53033 0.34615 0.0
C1112 C 0.35268 0.45643 0.98023 0.0
C1113 C 0.3856 0.48625 0.97786 0.0
C1114 C 0.32066 0.45177 0.96919 0.0
C1115 C 0.28419 0.45558 0.93082 0.0
H1116 H 0.17604 0.48841 0.94943 0.0
C1117 C 0.12235 0.40749 0.9038 0.0
C1118 C 0.09971 0.38236 0.91469 0.0
C1119 C 0.15623 0.43333 0.90873 0.0
C1120 C 0.20599 0.47977 0.94394 0.0
H1121 H 0.41271 0.53228 0.96159 0.0
H1122 H 0.35635 0.52328 0.9419 0.0
H1123 H 0.24256 0.50499 0.96279 0.0
H1124 H 0.09162 0.36741 0.93926 0.0
H1125 H 0.1492 0.4132 0.9479 0.0
H1126 H 0.24734 0.42728 0.91257 0.0
C1127 C 0.35557 0.504 0.95245 0.0
C1128 C 0.24395 0.48928 0.95156 0.0
C1129 C 0.38777 0.5089 0.96362 0.0
C1130 C 0.10875 0.38637 0.93063 0.0
C1131 C 0.14166 0.41275 0.93557 0.0
C1132 C 0.24602 0.44585 0.92318 0.0
C1133 C 0.32106 0.47651 0.95549 0.0
C1134 C 0.28313 0.47568 0.9454 0.0
C1135 C 0.16681 0.43529 0.92466 0.0
C1136 C 0.20651 0.4561 0.93008 0.0
H1137 H 0.35051 0.43833 0.99104 0.0
H1138 H 0.29449 0.43006 0.97165 0.0
H1139 H 0.31416 0.44466 0.92594 0.0
H1140 H 0.11569 0.40509 0.89147 0.0
H1141 H 0.17502 0.45057 0.90009 0.0
C1142 C 0.22436 0.62113 0.71995 0.0
C1143 C 0.25525 0.6505 0.72498 0.0
C1144 C 0.2341 0.59122 0.70845 0.0
C1145 C 0.31344 0.56006 0.67824 0.0
H1146 H 0.28526 0.44487 0.6917 0.0
C1147 C 0.41138 0.41507 0.66017 0.0
C1148 C 0.39276 0.37439 0.65916 0.0
C1149 C 0.38719 0.45042 0.66435 0.0
C1150 C 0.29254 0.47675 0.68749 0.0
H1151 H 0.31952 0.67362 0.72109 0.0
H1152 H 0.33664 0.62146 0.70084 0.0
H1153 H 0.2571 0.50537 0.70607 0.0
H1154 H 0.33353 0.33914 0.6608 0.0
H1155 H 0.29048 0.40157 0.66821 0.0
H1156 H 0.34975 0.53136 0.65987 0.0
C1157 C 0.3048 0.62159 0.7058 0.0
C1158 C 0.27648 0.51157 0.69579 0.0
C1159 C 0.29502 0.65158 0.71736 0.0
C1160 C 0.34862 0.37018 0.6615 0.0
C1161 C 0.32418 0.40584 0.66586 0.0
C1162 C 0.32925 0.52523 0.66986 0.0
C1163 C 0.27495 0.59002 0.70165 0.0
C1164 C 0.28766 0.55362 0.69153 0.0
C1165 C 0.34351 0.44623 0.66772 0.0
C1166 C 0.32012 0.48305 0.67467 0.0
H1167 H 0.19323 0.6199 0.7255 0.0
H1168 H 0.21011 0.56797 0.7053 0.0
H1169 H 0.32209 0.59203 0.6745 0.0
H1170 H 0.44535 0.41931 0.6583 0.0
H1171 H 0.40348 0.48061 0.66582 0.0
C1172 C 0.1246 0.57365 0.47184 0.0
C1173 C 0.12199 0.58191 0.48793 0.0
C1174 C 0.15667 0.5929 0.46265 0.0
C1175 C 0.26574 0.63117 0.46801 0.0
H1176 H 0.2588 0.67455 0.4256 0.0
C1177 C 0.41364 0.70207 0.43747 0.0
C1178 C 0.41977 0.6945 0.42145 0.0
C1179 C 0.37512 0.69149 0.44483 0.0
C1180 C 0.2614 0.66205 0.43738 0.0
H1181 H 0.14837 0.61903 0.50677 0.0
H1182 H 0.20358 0.65312 0.49078 0.0
H1183 H 0.19364 0.6524 0.43941 0.0
H1184 H 0.38974 0.67014 0.40058 0.0
H1185 H 0.32301 0.64999 0.41358 0.0
H1186 H 0.33312 0.6392 0.46603 0.0
C1187 C 0.18154 0.63136 0.48526 0.0
C1188 C 0.22398 0.64956 0.4453 0.0
C1189 C 0.14965 0.61224 0.49438 0.0
C1190 C 0.38617 0.67624 0.41296 0.0
C1191 C 0.34771 0.66505 0.4204 0.0
C1192 C 0.30298 0.64315 0.4601 0.0
C1193 C 0.18667 0.6205 0.46946 0.0
C1194 C 0.22574 0.63434 0.46078 0.0
C1195 C 0.34172 0.67231 0.43648 0.0
C1196 C 0.30147 0.65911 0.4447 0.0
H1197 H 0.10404 0.54991 0.46665 0.0
H1198 H 0.15981 0.58385 0.45051 0.0
H1199 H 0.26841 0.61855 0.47978 0.0
H1200 H 0.43844 0.71688 0.44432 0.0
H1201 H 0.3715 0.69872 0.45712 0.0
C1202 C 0.17708 0.37708 0.22512 0.0
C1203 C 0.22165 0.37998 0.22628 0.0
C1204 C 0.15444 0.40663 0.21601 0.0
C1205 C 0.11644 0.49292 0.20675 0.0
H1206 H 0.16254 0.54095 0.16834 0.0
C1207 C 0.07152 0.66102 0.18432 0.0
C1208 C 0.06881 0.66818 0.16813 0.0
C1209 C 0.08526 0.62165 0.19021 0.0
C1210 C 0.14877 0.52762 0.17893 0.0
H1211 H 0.27768 0.41415 0.21812 0.0
H1212 H 0.23855 0.46553 0.20236 0.0
H1213 H 0.19495 0.47746 0.17968 0.0
H1214 H 0.07723 0.63877 0.14543 0.0
H1215 H 0.10078 0.57016 0.1557 0.0
H1216 H 0.07032 0.54322 0.20602 0.0
C1217 C 0.22082 0.44059 0.20836 0.0
C1218 C 0.16767 0.49141 0.18552 0.0
C1219 C 0.2433 0.41132 0.21748 0.0
C1220 C 0.07925 0.63461 0.15797 0.0
C1221 C 0.09295 0.59524 0.16386 0.0
C1222 C 0.09749 0.52916 0.20014 0.0
C1223 C 0.17604 0.43935 0.20781 0.0
C1224 C 0.15236 0.47415 0.1997 0.0
C1225 C 0.09657 0.58837 0.18005 0.0
C1226 C 0.11398 0.5475 0.18632 0.0
H1227 H 0.15959 0.35337 0.23185 0.0
H1228 H 0.11999 0.40449 0.21569 0.0
H1229 H 0.10399 0.48072 0.21774 0.0
H1230 H 0.0635 0.68601 0.19251 0.0
H1231 H 0.08812 0.61772 0.20273 0.0
loop_
_geom_bond_atom_site_label_1
_geom_bond_atom_site_label_2
_geom_bond_distance
_geom_bond_site_symmetry_2
_ccdc_geom_bond_type
H0 C6 0.930 . S
H1 C9 0.931 . S
H2 C11 0.931 . S
H3 C13 0.930 . S
H4 C15 0.930 . S
H5 C17 0.931 . S
C6 H0 0.930 . S
C6 C7 1.380 1_545 S
C6 C8 1.394 . S
C7 C6 1.380 1_565 S
C7 C11 1.382 . S
C8 C6 1.394 . S
C8 C9 1.400 . S
C9 H1 0.931 . S
C9 C8 1.400 . S
C9 C10 1.375 . S
C10 C9 1.375 . S
C10 C11 1.415 1_545 S
C10 C12 1.501 1_655 S
C11 H2 0.931 . S
C11 C7 1.382 . S
C11 C10 1.415 1_565 S
C12 C10 1.501 1_455 S
C12 C13 1.384 1_545 S
C12 C17 1.408 . S
C13 H3 0.930 . S
C13 C12 1.384 1_565 S
C13 C14 1.389 . S
C14 C13 1.389 . S
C14 C15 1.405 1_565 S
C15 H4 0.930 . S
C15 C14 1.405 1_545 S
C15 C16 1.364 . S
C16 C15 1.364 . S
C16 C17 1.400 . S
C17 H5 0.931 . S
C17 C12 1.408 . S
C17 C16 1.400 . S
H18 C24 0.930 . S
H19 C27 0.931 . S
H20 C29 0.931 . S
H21 C31 0.930 . S
H22 C33 0.930 . S
H23 C35 0.931 . S
C24 H18 0.930 . S
C24 C25 1.380 . S
C24 C26 1.394 . S
C25 C24 1.380 . S
C25 C29 1.382 . S
C26 C24 1.394 . S
C26 C27 1.400 . S
C27 H19 0.931 . S
C27 C26 1.400 . S
C27 C28 1.375 . S
C28 C27 1.375 . S
C28 C29 1.415 . S
C28 C30 1.501 . S
C29 H20 0.931 . S
C29 C25 1.382 . S
C29 C28 1.415 . S
C30 C28 1.501 . S
C30 C31 1.384 . S
C30 C35 1.408 . S
C31 H21 0.930 . S
C31 C30 1.384 . S
C31 C32 1.389 . S
C32 C31 1.389 . S
C32 C33 1.405 . S
C33 H22 0.930 . S
C33 C32 1.405 . S
C33 C34 1.364 . S
C34 C33 1.364 . S
C34 C35 1.400 . S
C35 H23 0.931 . S
C35 C30 1.408 . S
C35 C34 1.400 . S
H36 C42 0.929 1_565 S
H37 C45 0.931 . S
H38 C47 0.931 . S
H39 C49 0.930 . S
H40 C51 0.930 . S
H41 C53 0.931 . S
C42 H36 0.929 1_545 S
C42 C43 1.386 1_554 S
C42 C44 1.389 1_545 S
C43 C42 1.386 1_556 S
C43 C47 1.382 . S
C44 C42 1.389 1_565 S
C44 C45 1.400 . S
C45 H37 0.931 . S
C45 C44 1.400 . S
C45 C46 1.375 1_565 S
C46 C45 1.375 1_545 S
C46 C47 1.415 1_554 S
C46 C48 1.501 . S
C47 H38 0.931 . S
C47 C43 1.382 . S
C47 C46 1.415 1_556 S
C48 C46 1.501 . S
C48 C49 1.384 1_554 S
C48 C53 1.408 1_545 S
C49 H39 0.930 . S
C49 C48 1.384 1_556 S
C49 C50 1.389 . S
C50 C49 1.389 . S
C50 C51 1.405 1_556 S
C51 H40 0.930 . S
C51 C50 1.405 1_554 S
C51 C52 1.364 1_545 S
C52 C51 1.364 1_565 S
C52 C53 1.400 . S
C53 H41 0.931 . S
C53 C48 1.408 1_565 S
C53 C52 1.400 . S
H54 C60 0.930 . S
H55 C63 0.931 . S
H56 C65 0.931 . S
H57 C67 0.930 . S
H58 C69 0.930 . S
H59 C71 0.931 . S
C60 H54 0.930 . S
C60 C61 1.380 . S
C60 C62 1.394 . S
C61 C60 1.380 . S
C61 C65 1.382 . S
C62 C60 1.394 . S
C62 C63 1.400 . S
C63 H55 0.931 . S
C63 C62 1.400 . S
C63 C64 1.375 . S
C64 C63 1.375 . S
C64 C65 1.415 . S
C64 C66 1.501 . S
C65 H56 0.931 . S
C65 C61 1.382 . S
C65 C64 1.415 . S
C66 C64 1.501 . S
C66 C67 1.384 . S
C66 C71 1.408 . S
C67 H57 0.930 . S
C67 C66 1.384 . S
C67 C68 1.389 . S
C68 C67 1.389 . S
C68 C69 1.405 . S
C69 H58 0.930 . S
C69 C68 1.405 . S
C69 C70 1.364 . S
C70 C69 1.364 . S
C70 C71 1.400 . S
C71 H59 0.931 . S
C71 C66 1.408 . S
C71 C70 1.400 . S
H72 C78 0.930 . S
H73 C81 0.931 . S
H74 C83 0.931 . S
H75 C85 0.930 . S
H76 C87 0.930 . S
H77 C89 0.931 . S
C78 H72 0.930 . S
C78 C79 1.380 . S
C78 C80 1.394 . S
C79 C78 1.380 . S
C79 C83 1.382 . S
C80 C78 1.394 . S
C80 C81 1.400 . S
C81 H73 0.931 . S
C81 C80 1.400 . S
C81 C82 1.375 . S
C82 C81 1.375 . S
C82 C83 1.415 . S
C82 C84 1.501 . S
C83 H74 0.931 . S
C83 C79 1.382 . S
C83 C82 1.415 . S
C84 C82 1.501 . S
C84 C85 1.384 . S
C84 C89 1.408 . S
C85 H75 0.930 . S
C85 C84 1.384 . S
C85 C86 1.389 . S
C86 C85 1.389 . S
C86 C87 1.405 . S
C87 H76 0.930 . S
C87 C86 1.405 . S
C87 C88 1.364 . S
C88 C87 1.364 . S
C88 C89 1.400 . S
C89 H77 0.931 . S
C89 C84 1.408 . S
C89 C88 1.400 . S
H90 C96 0.930 . S
H91 C99 0.931 . S
H92 C101 0.931 . S
H93 C103 0.930 . S
H94 C105 0.930 . S
H95 C107 0.931 . S
C96 H90 0.930 . S
C96 C97 1.380 . S
C96 C98 1.394 . S
C97 C96 1.380 . S
C97 C101 1.382 . S
C98 C96 1.394 . S
C98 C99 1.400 . S
C99 H91 0.931 . S
C99 C98 1.400 . S
C99 C100 1.375 . S
C100 C99 1.375 . S
C100 C101 1.415 . S
C100 C102 1.501 . S
C101 H92 0.931 . S
C101 C97 1.382 . S
C101 C100 1.415 . S
C102 C100 1.501 . S
C102 C103 1.384 . S
C102 C107 1.408 . S
C103 H93 0.930 . S
C103 C102 1.384 . S
C103 C104 1.389 . S
C104 C103 1.389 . S
C104 C105 1.405 . S
C105 H94 0.930 . S
C105 C104 1.405 . S
C105 C106 1.364 . S
C106 C105 1.364 . S
C106 C107 1.400 . S
C107 H95 0.931 . S
C107 C102 1.408 . S
C107 C106 1.400 . S
H108 C114 0.930 . S
H109 C117 0.931 . S
H110 C119 0.931 . S
H111 C121 0.930 . S
H112 C123 0.930 . S
H113 C125 0.931 . S
C114 H108 0.930 . S
C114 C115 1.380 . S
C114 C116 1.394 1_554 S
C115 C114 1.380 . S
C115 C119 1.382 . S
C116 C114 1.394 1_556 S
C116 C117 1.400 . S
C117 H109 0.931 . S
C117 C116 1.400 . S
C117 C118 1.375 1_556 S
C118 C117 1.375 1_554 S
C118 C119 1.415 . S
C118 C120 1.501 . S
C119 H110 0.931 . S
C119 C115 1.382 . S
C119 C118 1.415 . S
C120 C118 1.501 . S
C120 C121 1.384 . S
C120 C125 1.408 1_554 S
C121 H111 0.930 . S
C121 C120 1.384 . S
C121 C122 1.389 . S
C122 C121 1.389 . S
C122 C123 1.405 . S
C123 H112 0.930 . S
C123 C122 1.405 . S
C123 C124 1.364 1_554 S
C124 C123 1.364 1_556 S
C124 C125 1.400 . S
C125 H113 0.931 . S
C125 C120 1.408 1_556 S
C125 C124 1.400 . S
H126 C132 0.930 . S
H127 C135 0.931 . S
H128 C137 0.931 . S
H129 C139 0.930 . S
H130 C141 0.930 . S
H131 C143 0.931 . S
C132 H126 0.930 . S
C132 C133 1.380 . S
C132 C134 1.394 . S
C133 C132 1.380 . S
C133 C137 1.382 . S
C134 C132 1.394 . S
C134 C135 1.400 . S
C135 H127 0.931 . S
C135 C134 1.400 . S
C135 C136 1.375 . S
C136 C135 1.375 . S
C136 C137 1.415 . S
C136 C138 1.501 1_455 S
C137 H128 0.931 . S
C137 C133 1.382 . S
C137 C136 1.415 . S
C138 C136 1.501 1_655 S
C138 C139 1.384 . S
C138 C143 1.408 . S
C139 H129 0.930 . S
C139 C138 1.384 . S
C139 C140 1.389 . S
C140 C139 1.389 . S
C140 C141 1.405 . S
C141 H130 0.930 . S
C141 C140 1.405 . S
C141 C142 1.364 . S
C142 C141 1.364 . S
C142 C143 1.400 . S
C143 H131 0.931 . S
C143 C138 1.408 . S
C143 C142 1.400 . S
Fe144 O145 1.886 . S
Fe144 O148 1.715 1_455 S
Fe144 O153 2.077 . S
Fe144 O158 1.935 1_455 S
Fe144 O164 2.077 . S
Fe144 O173 1.935 1_455 S
O145 Fe144 1.886 . S
O145 Fe147 1.715 . S
Fe146 O148 1.886 . S
Fe146 O149 1.715 . S
Fe146 O156 1.935 . S
Fe146 O157 2.077 . S
Fe146 O163 1.935 . S
Fe146 O172 2.077 . S
Fe147 O145 1.715 . S
Fe147 O150 1.886 . S
Fe147 O154 1.935 . S
Fe147 O159 2.077 . S
Fe147 O165 1.935 . S
Fe147 O169 2.077 . S
O148 Fe144 1.715 1_655 S
O148 Fe146 1.886 . S
O149 Fe146 1.715 . S
O149 Fe151 1.904 . S
O150 Fe147 1.886 . S
O150 Fe151 1.696 1_455 S
Fe151 O149 1.904 . S
Fe151 O150 1.696 1_655 S
Fe151 O155 2.094 . S
Fe151 O160 1.921 1_655 S
Fe151 O162 2.094 . S
Fe151 O170 1.921 1_655 S
C152 O164 1.381 . S
C152 O165 1.421 . S
O153 Fe144 2.077 . S
O153 C166 1.381 . S
O154 Fe147 1.935 . S
O154 C166 1.421 . S
O155 Fe151 2.094 . S
O155 C171 1.381 . S
O156 Fe146 1.935 . S
O156 C171 1.421 . S
O157 Fe146 2.077 . S
O157 C161 1.381 . S
O158 Fe144 1.935 1_655 S
O158 C161 1.421 . S
O159 Fe147 2.077 . S
O159 C167 1.381 . S
O160 Fe151 1.921 1_455 S
O160 C167 1.421 . S
C161 O157 1.381 . S
C161 O158 1.421 . S
O162 Fe151 2.094 . S
O162 C174 1.381 . S
O163 Fe146 1.935 . S
O163 C174 1.421 . S
O164 Fe144 2.077 . S
O164 C152 1.381 . S
O165 Fe147 1.935 . S
O165 C152 1.421 . S
C166 O153 1.381 . S
C166 O154 1.421 . S
C167 O159 1.381 . S
C167 O160 1.421 . S
C168 O169 1.381 . S
C168 O170 1.421 . S
O169 Fe147 2.077 . S
O169 C168 1.381 . S
O170 Fe151 1.921 1_455 S
O170 C168 1.421 . S
C171 O155 1.381 . S
C171 O156 1.421 . S
O172 Fe146 2.077 . S
O172 C175 1.381 . S
O173 Fe144 1.935 1_655 S
O173 C175 1.421 . S
C174 O162 1.381 . S
C174 O163 1.421 . S
C175 O172 1.381 . S
C175 O173 1.421 . S
Fe176 O177 1.886 . S
Fe176 O180 1.715 . S
Fe176 O185 2.077 . S
Fe176 O190 1.935 . S
Fe176 O196 2.077 . S
Fe176 O205 1.935 . S
O177 Fe176 1.886 . S
O177 Fe179 1.715 . S
Fe178 O180 1.886 . S
Fe178 O181 1.715 . S
Fe178 O188 1.935 . S
Fe178 O189 2.077 . S
Fe178 O195 1.935 . S
Fe178 O204 2.077 . S
Fe179 O177 1.715 . S
Fe179 O182 1.886 . S
Fe179 O186 1.935 . S
Fe179 O191 2.077 . S
Fe179 O197 1.935 . S
Fe179 O201 2.077 . S
O180 Fe176 1.715 . S
O180 Fe178 1.886 . S
O181 Fe178 1.715 . S
O181 Fe183 1.886 . S
O182 Fe179 1.886 . S
O182 Fe183 1.715 . S
Fe183 O181 1.886 . S
Fe183 O182 1.715 . S
Fe183 O187 2.077 . S
Fe183 O192 1.935 . S
Fe183 O194 2.077 . S
Fe183 O202 1.935 . S
C184 O196 1.381 . S
C184 O197 1.421 . S
O185 Fe176 2.077 . S
O185 C198 1.381 . S
O186 Fe179 1.935 . S
O186 C198 1.421 . S
O187 Fe183 2.077 . S
O187 C203 1.381 . S
O188 Fe178 1.935 . S
O188 C203 1.421 . S
O189 Fe178 2.077 . S
O189 C193 1.381 . S
O190 Fe176 1.935 . S
O190 C193 1.421 . S
O191 Fe179 2.077 . S
O191 C199 1.381 . S
O192 Fe183 1.935 . S
O192 C199 1.421 . S
C193 O189 1.381 . S
C193 O190 1.421 . S
O194 Fe183 2.077 . S
O194 C206 1.381 . S
O195 Fe178 1.935 . S
O195 C206 1.421 . S
O196 Fe176 2.077 . S
O196 C184 1.381 . S
O197 Fe179 1.935 . S
O197 C184 1.421 . S
C198 O185 1.381 . S
C198 O186 1.421 . S
C199 O191 1.381 . S
C199 O192 1.421 . S
C200 O201 1.381 . S
C200 O202 1.421 . S
O201 Fe179 2.077 . S
O201 C200 1.381 . S
O202 Fe183 1.935 . S
O202 C200 1.421 . S
C203 O187 1.381 . S
C203 O188 1.421 . S
O204 Fe178 2.077 . S
O204 C207 1.381 . S
O205 Fe176 1.935 . S
O205 C207 1.421 . S
C206 O194 1.381 . S
C206 O195 1.421 . S
C207 O204 1.381 . S
C207 O205 1.421 . S
Fe208 O209 1.886 . S
Fe208 O212 1.715 . S
Fe208 O217 2.077 . S
Fe208 O222 1.935 . S
Fe208 O228 2.077 . S
Fe208 O237 1.935 . S
O209 Fe208 1.886 . S
O209 Fe211 1.715 . S
Fe210 O212 1.886 . S
Fe210 O213 1.715 . S
Fe210 O220 1.935 . S
Fe210 O221 2.077 . S
Fe210 O227 1.935 . S
Fe210 O236 2.077 . S
Fe211 O209 1.715 . S
Fe211 O214 1.886 . S
Fe211 O218 1.935 . S
Fe211 O223 2.077 . S
Fe211 O229 1.935 . S
Fe211 O233 2.077 . S
O212 Fe208 1.715 . S
O212 Fe210 1.886 . S
O213 Fe210 1.715 . S
O213 Fe215 1.886 . S
O214 Fe211 1.886 . S
O214 Fe215 1.715 . S
Fe215 O213 1.886 . S
Fe215 O214 1.715 . S
Fe215 O219 2.077 . S
Fe215 O224 1.935 . S
Fe215 O226 2.077 . S
Fe215 O234 1.935 . S
C216 O228 1.381 . S
C216 O229 1.421 . S
O217 Fe208 2.077 . S
O217 C230 1.381 . S
O218 Fe211 1.935 . S
O218 C230 1.421 . S
O219 Fe215 2.077 . S
O219 C235 1.381 . S
O220 Fe210 1.935 . S
O220 C235 1.421 . S
O221 Fe210 2.077 . S
O221 C225 1.381 . S
O222 Fe208 1.935 . S
O222 C225 1.421 . S
O223 Fe211 2.077 . S
O223 C231 1.381 . S
O224 Fe215 1.935 . S
O224 C231 1.421 . S
C225 O221 1.381 . S
C225 O222 1.421 . S
O226 Fe215 2.077 . S
O226 C238 1.381 . S
O227 Fe210 1.935 . S
O227 C238 1.421 . S
O228 Fe208 2.077 . S
O228 C216 1.381 . S
O229 Fe211 1.935 . S
O229 C216 1.421 . S
C230 O217 1.381 . S
C230 O218 1.421 . S
C231 O223 1.381 . S
C231 O224 1.421 . S
C232 O233 1.381 . S
C232 O234 1.421 . S
O233 Fe211 2.077 . S
O233 C232 1.381 . S
O234 Fe215 1.935 . S
O234 C232 1.421 . S
C235 O219 1.381 . S
C235 O220 1.421 . S
O236 Fe210 2.077 . S
O236 C239 1.381 . S
O237 Fe208 1.935 . S
O237 C239 1.421 . S
C238 O226 1.381 . S
C238 O227 1.421 . S
C239 O236 1.381 . S
C239 O237 1.421 . S
Fe240 O241 1.886 . S
Fe240 O244 1.715 . S
Fe240 O249 2.077 1_455 S
Fe240 O254 1.935 1_455 S
Fe240 O260 2.077 . S
Fe240 O269 1.935 . S
O241 Fe240 1.886 . S
O241 Fe243 1.715 . S
Fe242 O244 1.886 . S
Fe242 O245 1.715 . S
Fe242 O252 1.935 1_455 S
Fe242 O253 2.077 1_455 S
Fe242 O259 1.936 . S
Fe242 O268 2.077 . S
Fe243 O241 1.715 . S
Fe243 O246 1.886 . S
Fe243 O250 1.936 1_455 S
Fe243 O255 2.077 1_455 S
Fe243 O261 1.935 . S
Fe243 O265 2.077 . S
O244 Fe240 1.715 . S
O244 Fe242 1.886 . S
O245 Fe242 1.715 . S
O245 Fe247 1.886 . S
O246 Fe243 1.886 . S
O246 Fe247 1.715 . S
Fe247 O245 1.886 . S
Fe247 O246 1.715 . S
Fe247 O251 2.077 1_455 S
Fe247 O256 1.935 1_455 S
Fe247 O258 2.077 . S
Fe247 O266 1.935 . S
C248 O260 1.381 . S
C248 O261 1.421 . S
O249 Fe240 2.077 1_655 S
O249 C262 1.381 . S
O250 Fe243 1.936 1_655 S
O250 C262 1.421 . S
O251 Fe247 2.077 1_655 S
O251 C267 1.381 . S
O252 Fe242 1.935 1_655 S
O252 C267 1.421 . S
O253 Fe242 2.077 1_655 S
O253 C257 1.381 . S
O254 Fe240 1.935 1_655 S
O254 C257 1.421 . S
O255 Fe243 2.077 1_655 S
O255 C263 1.381 . S
O256 Fe247 1.935 1_655 S
O256 C263 1.421 . S
C257 O253 1.381 . S
C257 O254 1.421 . S
O258 Fe247 2.077 . S
O258 C270 1.381 . S
O259 Fe242 1.936 . S
O259 C270 1.421 . S
O260 Fe240 2.077 . S
O260 C248 1.381 . S
O261 Fe243 1.935 . S
O261 C248 1.421 . S
C262 O249 1.381 . S
C262 O250 1.421 . S
C263 O255 1.381 . S
C263 O256 1.421 . S
C264 O265 1.381 . S
C264 O266 1.421 . S
O265 Fe243 2.077 . S
O265 C264 1.381 . S
O266 Fe247 1.935 . S
O266 C264 1.421 . S
C267 O251 1.381 . S
C267 O252 1.421 . S
O268 Fe242 2.077 . S
O268 C271 1.381 . S
O269 Fe240 1.935 . S
O269 C271 1.421 . S
C270 O258 1.381 . S
C270 O259 1.421 . S
C271 O268 1.381 . S
C271 O269 1.421 . S
C272 C273 1.349 . S
C272 C274 1.327 . S
C272 H297 0.950 1_565 S
C273 C272 1.349 . S
C273 C289 1.349 . S
C274 C272 1.327 . S
C274 C293 1.429 . S
C274 H298 0.936 1_565 S
C275 C292 1.574 . S
C275 C294 1.368 . S
C275 H299 0.949 . S
H276 C280 0.949 . S
C277 C278 1.349 . S
C277 C279 1.327 . S
C277 H300 0.950 . S
C278 C277 1.349 . S
C278 C290 1.349 . S
C279 C277 1.327 . S
C279 C295 1.429 . S
C279 H301 0.950 . S
C280 H276 0.949 . S
C280 C288 1.574 . S
C280 C296 1.368 . S
H281 C289 0.950 . S
H282 C287 0.950 . S
H283 C288 0.949 . S
H284 C290 0.950 . S
H285 C291 0.950 . S
H286 C292 0.949 . S
C287 H282 0.950 . S
C287 C289 1.327 . S
C287 C293 1.429 . S
C288 C280 1.574 . S
C288 H283 0.949 . S
C288 C294 1.368 . S
C289 C273 1.349 . S
C289 H281 0.950 . S
C289 C287 1.327 . S
C290 C278 1.349 . S
C290 H284 0.950 . S
C290 C291 1.327 . S
C291 H285 0.950 . S
C291 C290 1.327 . S
C291 C295 1.429 . S
C292 C275 1.574 . S
C292 H286 0.949 . S
C292 C296 1.368 . S
C293 C274 1.429 . S
C293 C287 1.429 . S
C293 C294 1.523 . S
C294 C275 1.368 . S
C294 C288 1.368 . S
C294 C293 1.523 . S
C295 C279 1.429 . S
C295 C291 1.429 . S
C295 C296 1.523 . S
C296 C280 1.368 . S
C296 C292 1.368 . S
C296 C295 1.523 . S
H297 C272 0.950 1_545 S
H298 C274 0.936 1_545 S
H299 C275 0.949 . S
H300 C277 0.950 . S
H301 C279 0.950 . S
C302 C303 1.349 . S
C302 C304 1.327 . S
C302 H327 0.950 . S
C303 C302 1.349 . S
C303 C319 1.349 . S
C304 C302 1.327 . S
C304 C323 1.429 . S
C304 H328 0.950 . S
C305 C322 1.574 . S
C305 C324 1.368 1_545 S
C305 H329 0.949 1_545 S
H306 C310 0.949 . S
C307 C308 1.349 . S
C307 C309 1.327 . S
C307 H330 0.950 . S
C308 C307 1.349 . S
C308 C320 1.349 . S
C309 C307 1.327 . S
C309 C325 1.429 . S
C309 H331 0.950 . S
C310 H306 0.949 . S
C310 C318 1.574 1_545 S
C310 C326 1.368 . S
H311 C319 0.950 . S
H312 C317 0.950 . S
H313 C318 0.949 . S
H314 C320 0.950 . S
H315 C321 0.950 . S
H316 C322 0.949 . S
C317 H312 0.950 . S
C317 C319 1.327 . S
C317 C323 1.429 . S
C318 C310 1.574 1_565 S
C318 H313 0.949 . S
C318 C324 1.368 . S
C319 C303 1.349 . S
C319 H311 0.950 . S
C319 C317 1.327 . S
C320 C308 1.349 . S
C320 H314 0.950 . S
C320 C321 1.327 . S
C321 H315 0.950 . S
C321 C320 1.327 . S
C321 C325 1.429 . S
C322 C305 1.574 . S
C322 H316 0.949 . S
C322 C326 1.368 . S
C323 C304 1.429 . S
C323 C317 1.429 . S
C323 C324 1.523 . S
C324 C305 1.368 1_565 S
C324 C318 1.368 . S
C324 C323 1.523 . S
C325 C309 1.429 . S
C325 C321 1.429 . S
C325 C326 1.523 . S
C326 C310 1.368 . S
C326 C322 1.368 . S
C326 C325 1.523 . S
H327 C302 0.950 . S
H328 C304 0.950 . S
H329 C305 0.949 1_565 S
H330 C307 0.950 . S
H331 C309 0.950 . S
C332 C333 1.349 . S
C332 C334 1.327 . S
C332 H357 0.950 1_545 S
C333 C332 1.349 . S
C333 C349 1.349 . S
C334 C332 1.327 . S
C334 C353 1.429 . S
C334 H358 0.950 . S
C335 C352 1.574 . S
C335 C354 1.368 . S
C335 H359 0.949 . S
H336 C340 0.949 . S
C337 C338 1.349 . S
C337 C339 1.327 . S
C337 H360 0.950 . S
C338 C337 1.349 . S
C338 C350 1.349 . S
C339 C337 1.327 . S
C339 C355 1.429 . S
C339 H361 0.950 . S
C340 H336 0.949 . S
C340 C348 1.574 . S
C340 C356 1.368 . S
H341 C349 0.950 . S
H342 C347 0.950 . S
H343 C348 0.949 . S
H344 C350 0.950 . S
H345 C351 0.950 . S
H346 C352 0.949 . S
C347 H342 0.950 . S
C347 C349 1.327 . S
C347 C353 1.429 . S
C348 C340 1.574 . S
C348 H343 0.949 . S
C348 C354 1.368 . S
C349 C333 1.349 . S
C349 H341 0.950 . S
C349 C347 1.327 . S
C350 C338 1.349 . S
C350 H344 0.950 . S
C350 C351 1.327 . S
C351 H345 0.950 . S
C351 C350 1.327 . S
C351 C355 1.429 . S
C352 C335 1.574 . S
C352 H346 0.949 . S
C352 C356 1.368 . S
C353 C334 1.429 . S
C353 C347 1.429 . S
C353 C354 1.523 . S
C354 C335 1.368 . S
C354 C348 1.368 . S
C354 C353 1.523 . S
C355 C339 1.429 . S
C355 C351 1.429 . S
C355 C356 1.523 . S
C356 C340 1.368 . S
C356 C352 1.368 . S
C356 C355 1.523 . S
H357 C332 0.950 1_565 S
H358 C334 0.950 . S
H359 C335 0.949 . S
H360 C337 0.950 . S
H361 C339 0.950 . S
C362 C363 1.349 . S
C362 C364 1.327 . S
C362 H387 0.950 . S
C363 C362 1.349 . S
C363 C379 1.349 . S
C364 C362 1.327 . S
C364 C383 1.429 . S
C364 H388 0.950 . S
C365 C382 1.574 . S
C365 C384 1.368 1_565 S
C365 H389 0.949 . S
H366 C370 0.949 . S
C367 C368 1.349 . S
C367 C369 1.327 . S
C367 H390 0.950 . S
C368 C367 1.349 . S
C368 C380 1.349 . S
C369 C367 1.327 . S
C369 C385 1.429 . S
C369 H391 0.950 . S
C370 H366 0.949 . S
C370 C378 1.574 1_565 S
C370 C386 1.368 . S
H371 C379 0.950 . S
H372 C377 0.950 . S
H373 C378 0.949 . S
H374 C380 0.950 . S
H375 C381 0.950 . S
H376 C382 0.949 . S
C377 H372 0.950 . S
C377 C379 1.327 . S
C377 C383 1.429 . S
C378 C370 1.574 1_545 S
C378 H373 0.949 . S
C378 C384 1.368 . S
C379 C363 1.349 . S
C379 H371 0.950 . S
C379 C377 1.327 . S
C380 C368 1.349 . S
C380 H374 0.950 . S
C380 C381 1.327 . S
C381 H375 0.950 . S
C381 C380 1.327 . S
C381 C385 1.429 . S
C382 C365 1.574 . S
C382 H376 0.949 . S
C382 C386 1.368 . S
C383 C364 1.429 . S
C383 C377 1.429 . S
C383 C384 1.523 . S
C384 C365 1.368 1_545 S
C384 C378 1.368 . S
C384 C383 1.523 . S
C385 C369 1.429 . S
C385 C381 1.429 . S
C385 C386 1.523 . S
C386 C370 1.368 . S
C386 C382 1.368 . S
C386 C385 1.523 . S
H387 C362 0.950 . S
H388 C364 0.950 . S
H389 C365 0.949 . S
H390 C367 0.950 . S
H391 C369 0.950 . S
C392 C393 1.349 . S
C392 C394 1.327 . S
C392 H417 0.950 . S
C393 C392 1.349 . S
C393 C409 1.349 . S
C394 C392 1.327 . S
C394 C413 1.429 . S
C394 H418 0.950 . S
C395 C412 1.574 . S
C395 C414 1.368 . S
C395 H419 0.949 . S
H396 C400 0.949 . S
C397 C398 1.349 . S
C397 C399 1.327 . S
C397 H420 0.950 . S
C398 C397 1.349 . S
C398 C410 1.349 . S
C399 C397 1.327 . S
C399 C415 1.429 . S
C399 H421 0.950 . S
C400 H396 0.949 . S
C400 C408 1.574 . S
C400 C416 1.368 . S
H401 C409 0.950 . S
H402 C407 0.950 . S
H403 C408 0.949 . S
H404 C410 0.950 . S
H405 C411 0.950 . S
H406 C412 0.949 . S
C407 H402 0.950 . S
C407 C409 1.327 . S
C407 C413 1.429 . S
C408 C400 1.574 . S
C408 H403 0.949 . S
C408 C414 1.368 . S
C409 C393 1.349 . S
C409 H401 0.950 . S
C409 C407 1.327 . S
C410 C398 1.349 . S
C410 H404 0.950 . S
C410 C411 1.327 . S
C411 H405 0.950 . S
C411 C410 1.327 . S
C411 C415 1.429 . S
C412 C395 1.574 . S
C412 H406 0.949 . S
C412 C416 1.368 . S
C413 C394 1.429 . S
C413 C407 1.429 . S
C413 C414 1.523 . S
C414 C395 1.368 . S
C414 C408 1.368 . S
C414 C413 1.523 . S
C415 C399 1.429 . S
C415 C411 1.429 . S
C415 C416 1.523 . S
C416 C400 1.368 . S
C416 C412 1.368 . S
C416 C415 1.523 . S
H417 C392 0.950 . S
H418 C394 0.950 . S
H419 C395 0.949 . S
H420 C397 0.950 . S
H421 C399 0.950 . S
C422 C423 1.349 . S
C422 C424 1.327 . S
C422 H447 0.950 . S
C423 C422 1.349 . S
C423 C439 1.349 . S
C424 C422 1.327 . S
C424 C443 1.429 . S
C424 H448 0.950 . S
C425 C442 1.574 1_565 S
C425 C444 1.368 . S
C425 H449 0.949 . S
H426 C430 0.949 . S
C427 C428 1.349 . S
C427 C429 1.327 . S
C427 H450 0.950 . S
C428 C427 1.349 . S
C428 C440 1.349 . S
C429 C427 1.327 . S
C429 C445 1.429 . S
C429 H451 0.950 . S
C430 H426 0.949 . S
C430 C438 1.574 . S
C430 C446 1.368 . S
H431 C439 0.950 . S
H432 C437 0.950 . S
H433 C438 0.946 1_565 S
H434 C440 0.950 . S
H435 C441 0.950 . S
H436 C442 0.949 . S
C437 H432 0.950 . S
C437 C439 1.327 . S
C437 C443 1.429 . S
C438 C430 1.574 . S
C438 H433 0.946 1_545 S
C438 C444 1.368 1_545 S
C439 C423 1.349 . S
C439 H431 0.950 . S
C439 C437 1.327 . S
C440 C428 1.349 . S
C440 H434 0.950 . S
C440 C441 1.327 . S
C441 H435 0.950 . S
C441 C440 1.327 . S
C441 C445 1.429 . S
C442 C425 1.574 1_545 S
C442 H436 0.949 . S
C442 C446 1.368 . S
C443 C424 1.429 . S
C443 C437 1.429 . S
C443 C444 1.523 . S
C444 C425 1.368 . S
C444 C438 1.368 1_565 S
C444 C443 1.523 . S
C445 C429 1.429 . S
C445 C441 1.429 . S
C445 C446 1.523 . S
C446 C430 1.368 . S
C446 C442 1.368 . S
C446 C445 1.523 . S
H447 C422 0.950 . S
H448 C424 0.950 . S
H449 C425 0.949 . S
H450 C427 0.950 . S
H451 C429 0.950 . S
C452 C453 1.349 . S
C452 C454 1.327 . S
C452 H477 0.950 . S
C453 C452 1.349 . S
C453 C469 1.349 . S
C454 C452 1.327 . S
C454 C473 1.429 . S
C454 H478 0.950 . S
C455 C472 1.574 . S
C455 C474 1.368 . S
C455 H479 0.949 . S
H456 C460 0.949 . S
C457 C458 1.349 . S
C457 C459 1.327 . S
C457 H480 0.950 . S
C458 C457 1.349 . S
C458 C470 1.349 . S
C459 C457 1.327 . S
C459 C475 1.429 . S
C459 H481 0.950 . S
C460 H456 0.949 . S
C460 C468 1.574 . S
C460 C476 1.368 . S
H461 C469 0.950 1_545 S
H462 C467 0.950 . S
H463 C468 0.949 . S
H464 C470 0.950 . S
H465 C471 0.950 . S
H466 C472 0.949 . S
C467 H462 0.950 . S
C467 C469 1.327 . S
C467 C473 1.429 . S
C468 C460 1.574 . S
C468 H463 0.949 . S
C468 C474 1.368 . S
C469 C453 1.349 . S
C469 H461 0.950 1_565 S
C469 C467 1.327 . S
C470 C458 1.349 . S
C470 H464 0.950 . S
C470 C471 1.327 . S
C471 H465 0.950 . S
C471 C470 1.327 . S
C471 C475 1.429 . S
C472 C455 1.574 . S
C472 H466 0.949 . S
C472 C476 1.368 . S
C473 C454 1.429 . S
C473 C467 1.429 . S
C473 C474 1.523 . S
C474 C455 1.368 . S
C474 C468 1.368 . S
C474 C473 1.523 . S
C475 C459 1.429 . S
C475 C471 1.429 . S
C475 C476 1.523 . S
C476 C460 1.368 . S
C476 C472 1.368 . S
C476 C475 1.523 . S
H477 C452 0.950 . S
H478 C454 0.950 . S
H479 C455 0.949 . S
H480 C457 0.950 . S
H481 C459 0.950 . S
C482 C483 1.349 . S
C482 C484 1.327 . S
C482 H507 0.950 . S
C483 C482 1.349 . S
C483 C499 1.349 . S
C484 C482 1.327 . S
C484 C503 1.429 . S
C484 H508 0.950 . S
C485 C502 1.574 . S
C485 C504 1.368 1_565 S
C485 H509 0.949 . S
H486 C490 0.949 . S
C487 C488 1.349 . S
C487 C489 1.327 . S
C487 H510 0.950 . S
C488 C487 1.349 . S
C488 C500 1.349 . S
C489 C487 1.327 . S
C489 C505 1.429 . S
C489 H511 0.950 . S
C490 H486 0.949 . S
C490 C498 1.574 . S
C490 C506 1.368 1_545 S
H491 C499 0.950 . S
H492 C497 0.950 . S
H493 C498 0.949 . S
H494 C500 0.950 . S
H495 C501 0.950 . S
H496 C502 0.949 . S
C497 H492 0.950 . S
C497 C499 1.327 . S
C497 C503 1.429 . S
C498 C490 1.574 . S
C498 H493 0.949 . S
C498 C504 1.368 . S
C499 C483 1.349 . S
C499 H491 0.950 . S
C499 C497 1.327 . S
C500 C488 1.349 . S
C500 H494 0.950 . S
C500 C501 1.327 . S
C501 H495 0.950 . S
C501 C500 1.327 . S
C501 C505 1.429 . S
C502 C485 1.574 . S
C502 H496 0.949 . S
C502 C506 1.368 . S
C503 C484 1.429 . S
C503 C497 1.429 . S
C503 C504 1.523 . S
C504 C485 1.368 1_545 S
C504 C498 1.368 . S
C504 C503 1.523 . S
C505 C489 1.429 . S
C505 C501 1.429 . S
C505 C506 1.523 . S
C506 C490 1.368 1_565 S
C506 C502 1.368 . S
C506 C505 1.523 . S
H507 C482 0.950 . S
H508 C484 0.950 . S
H509 C485 0.949 . S
H510 C487 0.950 . S
H511 C489 0.950 . S
C512 C513 1.349 . S
C512 C514 1.327 . S
C512 H537 0.950 . S
C513 C512 1.349 . S
C513 C529 1.349 . S
C514 C512 1.327 . S
C514 C533 1.429 . S
C514 H538 0.950 . S
C515 C532 1.574 . S
C515 C534 1.368 . S
C515 H539 0.949 . S
H516 C520 0.949 . S
C517 C518 1.349 . S
C517 C519 1.327 . S
C517 H540 0.950 . S
C518 C517 1.349 . S
C518 C530 1.349 . S
C519 C517 1.327 . S
C519 C535 1.429 . S
C519 H541 0.950 . S
C520 H516 0.949 . S
C520 C528 1.574 . S
C520 C536 1.368 . S
H521 C529 0.950 . S
H522 C527 0.950 . S
H523 C528 0.949 . S
H524 C530 0.950 . S
H525 C531 0.950 . S
H526 C532 0.949 . S
C527 H522 0.950 . S
C527 C529 1.327 . S
C527 C533 1.429 . S
C528 C520 1.574 . S
C528 H523 0.949 . S
C528 C534 1.368 . S
C529 C513 1.349 . S
C529 H521 0.950 . S
C529 C527 1.327 . S
C530 C518 1.349 . S
C530 H524 0.950 . S
C530 C531 1.327 . S
C531 H525 0.950 . S
C531 C530 1.327 . S
C531 C535 1.429 . S
C532 C515 1.574 . S
C532 H526 0.949 . S
C532 C536 1.368 . S
C533 C514 1.429 . S
C533 C527 1.429 . S
C533 C534 1.523 . S
C534 C515 1.368 . S
C534 C528 1.368 . S
C534 C533 1.523 . S
C535 C519 1.429 . S
C535 C531 1.429 . S
C535 C536 1.523 . S
C536 C520 1.368 . S
C536 C532 1.368 . S
C536 C535 1.523 . S
H537 C512 0.950 . S
H538 C514 0.950 . S
H539 C515 0.949 . S
H540 C517 0.950 . S
H541 C519 0.950 . S
C542 C543 1.349 . S
C542 C544 1.327 . S
C542 H567 0.950 . S
C543 C542 1.349 . S
C543 C559 1.349 . S
C544 C542 1.327 . S
C544 C563 1.429 . S
C544 H568 0.950 . S
C545 C562 1.574 . S
C545 C564 1.368 . S
C545 H569 0.949 . S
H546 C550 0.949 . S
C547 C548 1.349 . S
C547 C549 1.327 . S
C547 H570 0.950 . S
C548 C547 1.349 . S
C548 C560 1.349 . S
C549 C547 1.327 . S
C549 C565 1.429 . S
C549 H571 0.950 . S
C550 H546 0.949 . S
C550 C558 1.574 . S
C550 C566 1.368 . S
H551 C559 0.950 . S
H552 C557 0.950 . S
H553 C558 0.949 . S
H554 C560 0.950 . S
H555 C561 0.950 . S
H556 C562 0.949 . S
C557 H552 0.950 . S
C557 C559 1.327 . S
C557 C563 1.429 . S
C558 C550 1.574 . S
C558 H553 0.949 . S
C558 C564 1.368 1_565 S
C559 C543 1.349 . S
C559 H551 0.950 . S
C559 C557 1.327 . S
C560 C548 1.349 . S
C560 H554 0.950 . S
C560 C561 1.327 . S
C561 H555 0.950 . S
C561 C560 1.327 . S
C561 C565 1.429 . S
C562 C545 1.574 . S
C562 H556 0.949 . S
C562 C566 1.368 1_545 S
C563 C544 1.429 . S
C563 C557 1.429 . S
C563 C564 1.523 . S
C564 C545 1.368 . S
C564 C558 1.368 1_545 S
C564 C563 1.523 . S
C565 C549 1.429 . S
C565 C561 1.429 . S
C565 C566 1.523 . S
C566 C550 1.368 . S
C566 C562 1.368 1_565 S
C566 C565 1.523 . S
H567 C542 0.950 . S
H568 C544 0.950 . S
H569 C545 0.949 . S
H570 C547 0.950 . S
H571 C549 0.950 . S
C572 C573 1.349 . S
C572 C574 1.327 . S
C572 H597 0.950 . S
C573 C572 1.349 . S
C573 C589 1.349 . S
C574 C572 1.327 . S
C574 C593 1.429 . S
C574 H598 0.950 . S
C575 C592 1.574 . S
C575 C594 1.368 . S
C575 H599 0.949 . S
H576 C580 0.949 . S
C577 C578 1.349 . S
C577 C579 1.327 . S
C577 H600 0.950 . S
C578 C577 1.349 . S
C578 C590 1.349 . S
C579 C577 1.327 . S
C579 C595 1.429 . S
C579 H601 0.950 . S
C580 H576 0.949 . S
C580 C588 1.574 . S
C580 C596 1.368 . S
H581 C589 0.950 . S
H582 C587 0.950 . S
H583 C588 0.949 . S
H584 C590 0.950 . S
H585 C591 0.950 . S
H586 C592 0.949 . S
C587 H582 0.950 . S
C587 C589 1.327 . S
C587 C593 1.429 . S
C588 C580 1.574 . S
C588 H583 0.949 . S
C588 C594 1.368 . S
C589 C573 1.349 . S
C589 H581 0.950 . S
C589 C587 1.327 . S
C590 C578 1.349 . S
C590 H584 0.950 . S
C590 C591 1.327 . S
C591 H585 0.950 . S
C591 C590 1.327 . S
C591 C595 1.429 . S
C592 C575 1.574 . S
C592 H586 0.949 . S
C592 C596 1.368 . S
C593 C574 1.429 . S
C593 C587 1.429 . S
C593 C594 1.523 . S
C594 C575 1.368 . S
C594 C588 1.368 . S
C594 C593 1.523 . S
C595 C579 1.429 . S
C595 C591 1.429 . S
C595 C596 1.523 . S
C596 C580 1.368 . S
C596 C592 1.368 . S
C596 C595 1.523 . S
H597 C572 0.950 . S
H598 C574 0.950 . S
H599 C575 0.949 . S
H600 C577 0.950 . S
H601 C579 0.950 . S
C602 C603 1.349 . S
C602 C604 1.327 . S
C602 H627 0.950 . S
C603 C602 1.349 . S
C603 C619 1.349 . S
C604 C602 1.327 . S
C604 C623 1.429 . S
C604 H628 0.950 . S
C605 C622 1.574 . S
C605 C624 1.368 1_545 S
C605 H629 0.949 . S
H606 C610 0.949 . S
C607 C608 1.349 . S
C607 C609 1.327 . S
C607 H630 0.950 . S
C608 C607 1.349 . S
C608 C620 1.349 . S
C609 C607 1.327 . S
C609 C625 1.429 . S
C609 H631 0.950 . S
C610 H606 0.949 . S
C610 C618 1.574 1_545 S
C610 C626 1.368 . S
H611 C619 0.950 . S
H612 C617 0.950 . S
H613 C618 0.949 . S
H614 C620 0.950 . S
H615 C621 0.950 . S
H616 C622 0.949 . S
C617 H612 0.950 . S
C617 C619 1.327 . S
C617 C623 1.429 . S
C618 C610 1.574 1_565 S
C618 H613 0.949 . S
C618 C624 1.368 . S
C619 C603 1.349 . S
C619 H611 0.950 . S
C619 C617 1.327 . S
C620 C608 1.349 . S
C620 H614 0.950 . S
C620 C621 1.327 . S
C621 H615 0.950 . S
C621 C620 1.327 . S
C621 C625 1.429 . S
C622 C605 1.574 . S
C622 H616 0.949 . S
C622 C626 1.368 . S
C623 C604 1.429 . S
C623 C617 1.429 . S
C623 C624 1.523 . S
C624 C605 1.368 1_565 S
C624 C618 1.368 . S
C624 C623 1.523 . S
C625 C609 1.429 . S
C625 C621 1.429 . S
C625 C626 1.523 . S
C626 C610 1.368 . S
C626 C622 1.368 . S
C626 C625 1.523 . S
H627 C602 0.950 . S
H628 C604 0.950 . S
H629 C605 0.949 . S
H630 C607 0.950 . S
H631 C609 0.950 . S
C632 C633 1.349 . S
C632 C634 1.327 . S
C632 H657 0.950 . S
C633 C632 1.349 . S
C633 C649 1.349 . S
C634 C632 1.327 . S
C634 C653 1.429 . S
C634 H658 0.950 . S
C635 C652 1.574 . S
C635 C654 1.368 . S
C635 H659 0.949 . S
H636 C640 0.949 . S
C637 C638 1.349 . S
C637 C639 1.327 . S
C637 H660 0.950 . S
C638 C637 1.349 . S
C638 C650 1.349 . S
C639 C637 1.327 . S
C639 C655 1.429 . S
C639 H661 0.950 . S
C640 H636 0.949 . S
C640 C648 1.574 . S
C640 C656 1.368 . S
H641 C649 0.950 1_545 S
H642 C647 0.950 . S
H643 C648 0.949 . S
H644 C650 0.950 . S
H645 C651 0.950 . S
H646 C652 0.949 . S
C647 H642 0.950 . S
C647 C649 1.327 . S
C647 C653 1.429 . S
C648 C640 1.574 . S
C648 H643 0.949 . S
C648 C654 1.368 . S
C649 C633 1.349 . S
C649 H641 0.950 1_565 S
C649 C647 1.327 . S
C650 C638 1.349 . S
C650 H644 0.950 . S
C650 C651 1.327 . S
C651 H645 0.950 . S
C651 C650 1.327 . S
C651 C655 1.429 . S
C652 C635 1.574 . S
C652 H646 0.949 . S
C652 C656 1.368 . S
C653 C634 1.429 . S
C653 C647 1.429 . S
C653 C654 1.523 . S
C654 C635 1.368 . S
C654 C648 1.368 . S
C654 C653 1.523 . S
C655 C639 1.429 . S
C655 C651 1.429 . S
C655 C656 1.523 . S
C656 C640 1.368 . S
C656 C652 1.368 . S
C656 C655 1.523 . S
H657 C632 0.950 . S
H658 C634 0.950 . S
H659 C635 0.949 . S
H660 C637 0.950 . S
H661 C639 0.950 . S
C662 C663 1.349 . S
C662 C664 1.327 . S
C662 H687 0.950 . S
C663 C662 1.349 . S
C663 C679 1.349 . S
C664 C662 1.327 . S
C664 C683 1.429 . S
C664 H688 0.950 . S
C665 C682 1.574 . S
C665 C684 1.368 1_565 S
C665 H689 0.949 . S
H666 C670 0.949 . S
C667 C668 1.349 . S
C667 C669 1.327 . S
C667 H690 0.950 . S
C668 C667 1.349 . S
C668 C680 1.349 . S
C669 C667 1.327 . S
C669 C685 1.429 . S
C669 H691 0.950 . S
C670 H666 0.949 . S
C670 C678 1.574 1_565 S
C670 C686 1.368 . S
H671 C679 0.950 . S
H672 C677 0.950 . S
H673 C678 0.949 . S
H674 C680 0.950 . S
H675 C681 0.950 . S
H676 C682 0.949 . S
C677 H672 0.950 . S
C677 C679 1.327 . S
C677 C683 1.429 . S
C678 C670 1.574 1_545 S
C678 H673 0.949 . S
C678 C684 1.368 . S
C679 C663 1.349 . S
C679 H671 0.950 . S
C679 C677 1.327 . S
C680 C668 1.349 . S
C680 H674 0.950 . S
C680 C681 1.327 . S
C681 H675 0.950 . S
C681 C680 1.327 . S
C681 C685 1.429 . S
C682 C665 1.574 . S
C682 H676 0.949 . S
C682 C686 1.368 . S
C683 C664 1.429 . S
C683 C677 1.429 . S
C683 C684 1.523 . S
C684 C665 1.368 1_545 S
C684 C678 1.368 . S
C684 C683 1.523 . S
C685 C669 1.429 . S
C685 C681 1.429 . S
C685 C686 1.523 . S
C686 C670 1.368 . S
C686 C682 1.368 . S
C686 C685 1.523 . S
H687 C662 0.950 . S
H688 C664 0.950 . S
H689 C665 0.949 . S
H690 C667 0.950 . S
H691 C669 0.950 . S
C692 C693 1.349 . S
C692 C694 1.327 . S
C692 H717 0.950 . S
C693 C692 1.349 . S
C693 C709 1.349 . S
C694 C692 1.327 . S
C694 C713 1.429 . S
C694 H718 0.950 . S
C695 C712 1.574 . S
C695 C714 1.368 . S
C695 H719 0.949 . S
H696 C700 0.949 . S
C697 C698 1.349 . S
C697 C699 1.327 . S
C697 H720 0.950 . S
C698 C697 1.349 . S
C698 C710 1.349 . S
C699 C697 1.327 . S
C699 C715 1.429 . S
C699 H721 0.950 . S
C700 H696 0.949 . S
C700 C708 1.574 . S
C700 C716 1.368 . S
H701 C709 0.950 . S
H702 C707 0.950 . S
H703 C708 0.949 . S
H704 C710 0.950 . S
H705 C711 0.950 . S
H706 C712 0.949 . S
C707 H702 0.950 . S
C707 C709 1.327 . S
C707 C713 1.429 . S
C708 C700 1.574 . S
C708 H703 0.949 . S
C708 C714 1.368 . S
C709 C693 1.349 . S
C709 H701 0.950 . S
C709 C707 1.327 . S
C710 C698 1.349 . S
C710 H704 0.950 . S
C710 C711 1.327 . S
C711 H705 0.950 . S
C711 C710 1.327 . S
C711 C715 1.429 . S
C712 C695 1.574 . S
C712 H706 0.949 . S
C712 C716 1.368 . S
C713 C694 1.429 . S
C713 C707 1.429 . S
C713 C714 1.523 . S
C714 C695 1.368 . S
C714 C708 1.368 . S
C714 C713 1.523 . S
C715 C699 1.429 . S
C715 C711 1.429 . S
C715 C716 1.523 . S
C716 C700 1.368 . S
C716 C712 1.368 . S
C716 C715 1.523 . S
H717 C692 0.950 . S
H718 C694 0.950 . S
H719 C695 0.949 . S
H720 C697 0.950 . S
H721 C699 0.950 . S
C722 C723 1.349 . S
C722 C724 1.327 . S
C722 H747 0.950 . S
C723 C722 1.349 . S
C723 C739 1.349 . S
C724 C722 1.327 . S
C724 C743 1.429 . S
C724 H748 0.950 . S
C725 C742 1.574 1_565 S
C725 C744 1.368 . S
C725 H749 0.949 . S
H726 C730 0.949 . S
C727 C728 1.349 . S
C727 C729 1.327 . S
C727 H750 0.950 . S
C728 C727 1.349 . S
C728 C740 1.349 . S
C729 C727 1.327 . S
C729 C745 1.429 . S
C729 H751 0.950 . S
C730 H726 0.949 . S
C730 C738 1.574 . S
C730 C746 1.368 . S
H731 C739 0.950 . S
H732 C737 0.950 . S
H733 C738 0.949 . S
H734 C740 0.950 . S
H735 C741 0.950 . S
H736 C742 0.949 . S
C737 H732 0.950 . S
C737 C739 1.327 . S
C737 C743 1.429 . S
C738 C730 1.574 . S
C738 H733 0.949 . S
C738 C744 1.368 1_545 S
C739 C723 1.349 . S
C739 H731 0.950 . S
C739 C737 1.327 . S
C740 C728 1.349 . S
C740 H734 0.950 . S
C740 C741 1.327 . S
C741 H735 0.950 . S
C741 C740 1.327 . S
C741 C745 1.429 . S
C742 C725 1.574 1_545 S
C742 H736 0.949 . S
C742 C746 1.368 . S
C743 C724 1.429 . S
C743 C737 1.429 . S
C743 C744 1.523 . S
C744 C725 1.368 . S
C744 C738 1.368 1_565 S
C744 C743 1.523 . S
C745 C729 1.429 . S
C745 C741 1.429 . S
C745 C746 1.523 . S
C746 C730 1.368 . S
C746 C742 1.368 . S
C746 C745 1.523 . S
H747 C722 0.950 . S
H748 C724 0.950 . S
H749 C725 0.949 . S
H750 C727 0.950 . S
H751 C729 0.950 . S
C752 C753 1.349 . S
C752 C754 1.327 . S
C752 H777 0.950 . S
C753 C752 1.349 . S
C753 C769 1.349 . S
C754 C752 1.327 . S
C754 C773 1.429 . S
C754 H778 0.950 . S
C755 C772 1.574 . S
C755 C774 1.368 . S
C755 H779 0.949 . S
H756 C760 0.949 . S
C757 C758 1.349 . S
C757 C759 1.327 . S
C757 H780 0.950 . S
C758 C757 1.349 . S
C758 C770 1.349 . S
C759 C757 1.327 . S
C759 C775 1.429 . S
C759 H781 0.950 . S
C760 H756 0.949 . S
C760 C768 1.574 . S
C760 C776 1.368 . S
H761 C769 0.944 1_554 S
H762 C767 0.950 . S
H763 C768 0.949 . S
H764 C770 0.950 . S
H765 C771 0.950 . S
H766 C772 0.949 . S
C767 H762 0.950 . S
C767 C769 1.327 . S
C767 C773 1.429 . S
C768 C760 1.574 . S
C768 H763 0.949 . S
C768 C774 1.368 . S
C769 C753 1.349 . S
C769 H761 0.944 1_556 S
C769 C767 1.327 . S
C770 C758 1.349 . S
C770 H764 0.950 . S
C770 C771 1.327 . S
C771 H765 0.950 . S
C771 C770 1.327 . S
C771 C775 1.429 . S
C772 C755 1.574 . S
C772 H766 0.949 . S
C772 C776 1.368 . S
C773 C754 1.429 . S
C773 C767 1.429 . S
C773 C774 1.523 . S
C774 C755 1.368 . S
C774 C768 1.368 . S
C774 C773 1.523 . S
C775 C759 1.429 . S
C775 C771 1.429 . S
C775 C776 1.523 . S
C776 C760 1.368 . S
C776 C772 1.368 . S
C776 C775 1.523 . S
H777 C752 0.950 . S
H778 C754 0.950 . S
H779 C755 0.949 . S
H780 C757 0.950 . S
H781 C759 0.950 . S
C782 C783 1.349 . S
C782 C784 1.327 . S
C782 H807 0.950 . S
C783 C782 1.349 . S
C783 C799 1.349 . S
C784 C782 1.327 . S
C784 C803 1.429 . S
C784 H808 0.950 . S
C785 C802 1.574 . S
C785 C804 1.368 . S
C785 H809 0.949 . S
H786 C790 0.949 . S
C787 C788 1.349 . S
C787 C789 1.327 . S
C787 H810 0.950 . S
C788 C787 1.349 . S
C788 C800 1.349 . S
C789 C787 1.327 . S
C789 C805 1.429 . S
C789 H811 0.950 . S
C790 H786 0.949 . S
C790 C798 1.574 . S
C790 C806 1.368 . S
H791 C799 0.950 . S
H792 C797 0.950 . S
H793 C798 0.949 . S
H794 C800 0.950 . S
H795 C801 0.950 . S
H796 C802 0.949 . S
C797 H792 0.950 . S
C797 C799 1.327 . S
C797 C803 1.429 . S
C798 C790 1.574 . S
C798 H793 0.949 . S
C798 C804 1.368 . S
C799 C783 1.349 . S
C799 H791 0.950 . S
C799 C797 1.327 . S
C800 C788 1.349 . S
C800 H794 0.950 . S
C800 C801 1.327 . S
C801 H795 0.950 . S
C801 C800 1.327 . S
C801 C805 1.429 . S
C802 C785 1.574 . S
C802 H796 0.949 . S
C802 C806 1.368 . S
C803 C784 1.429 . S
C803 C797 1.429 . S
C803 C804 1.523 . S
C804 C785 1.368 . S
C804 C798 1.368 . S
C804 C803 1.523 . S
C805 C789 1.429 . S
C805 C801 1.429 . S
C805 C806 1.523 . S
C806 C790 1.368 . S
C806 C802 1.368 . S
C806 C805 1.523 . S
H807 C782 0.950 . S
H808 C784 0.950 . S
H809 C785 0.949 . S
H810 C787 0.950 . S
H811 C789 0.950 . S
C812 C813 1.349 . S
C812 C814 1.327 . S
C812 H837 0.950 . S
C813 C812 1.349 . S
C813 C829 1.349 . S
C814 C812 1.327 . S
C814 C833 1.429 . S
C814 H838 0.950 . S
C815 C832 1.574 . S
C815 C834 1.368 . S
C815 H839 0.949 . S
H816 C820 0.949 . S
C817 C818 1.349 . S
C817 C819 1.327 . S
C817 H840 0.950 . S
C818 C817 1.349 . S
C818 C830 1.349 . S
C819 C817 1.327 . S
C819 C835 1.429 . S
C819 H841 0.950 . S
C820 H816 0.949 . S
C820 C828 1.574 . S
C820 C836 1.368 . S
H821 C829 0.950 . S
H822 C827 0.950 . S
H823 C828 0.949 . S
H824 C830 0.950 . S
H825 C831 0.950 . S
H826 C832 0.949 . S
C827 H822 0.950 . S
C827 C829 1.327 . S
C827 C833 1.429 . S
C828 C820 1.574 . S
C828 H823 0.949 . S
C828 C834 1.368 . S
C829 C813 1.349 . S
C829 H821 0.950 . S
C829 C827 1.327 . S
C830 C818 1.349 . S
C830 H824 0.950 . S
C830 C831 1.327 . S
C831 H825 0.950 . S
C831 C830 1.327 . S
C831 C835 1.429 . S
C832 C815 1.574 . S
C832 H826 0.949 . S
C832 C836 1.368 . S
C833 C814 1.429 . S
C833 C827 1.429 . S
C833 C834 1.523 . S
C834 C815 1.368 . S
C834 C828 1.368 . S
C834 C833 1.523 . S
C835 C819 1.429 . S
C835 C831 1.429 . S
C835 C836 1.523 . S
C836 C820 1.368 . S
C836 C832 1.368 . S
C836 C835 1.523 . S
H837 C812 0.950 . S
H838 C814 0.950 . S
H839 C815 0.949 . S
H840 C817 0.950 . S
H841 C819 0.950 . S
C842 C843 1.349 . S
C842 C844 1.327 . S
C842 H867 0.950 . S
C843 C842 1.349 . S
C843 C859 1.349 . S
C844 C842 1.327 . S
C844 C863 1.429 . S
C844 H868 0.950 . S
C845 C862 1.574 . S
C845 C864 1.368 . S
C845 H869 0.949 . S
H846 C850 0.949 . S
C847 C848 1.349 . S
C847 C849 1.327 . S
C847 H870 0.950 . S
C848 C847 1.349 . S
C848 C860 1.349 . S
C849 C847 1.327 . S
C849 C865 1.429 . S
C849 H871 0.950 . S
C850 H846 0.949 . S
C850 C858 1.574 . S
C850 C866 1.368 . S
H851 C859 0.950 . S
H852 C857 0.950 . S
H853 C858 0.949 . S
H854 C860 0.950 . S
H855 C861 0.950 . S
H856 C862 0.949 . S
C857 H852 0.950 . S
C857 C859 1.327 . S
C857 C863 1.429 . S
C858 C850 1.574 . S
C858 H853 0.949 . S
C858 C864 1.368 . S
C859 C843 1.349 . S
C859 H851 0.950 . S
C859 C857 1.327 . S
C860 C848 1.349 . S
C860 H854 0.950 . S
C860 C861 1.327 . S
C861 H855 0.950 . S
C861 C860 1.327 . S
C861 C865 1.429 . S
C862 C845 1.574 . S
C862 H856 0.949 . S
C862 C866 1.368 . S
C863 C844 1.429 . S
C863 C857 1.429 . S
C863 C864 1.523 . S
C864 C845 1.368 . S
C864 C858 1.368 . S
C864 C863 1.523 . S
C865 C849 1.429 . S
C865 C861 1.429 . S
C865 C866 1.523 . S
C866 C850 1.368 . S
C866 C862 1.368 . S
C866 C865 1.523 . S
H867 C842 0.950 . S
H868 C844 0.950 . S
H869 C845 0.949 . S
H870 C847 0.950 . S
H871 C849 0.950 . S
C872 C873 1.349 . S
C872 C874 1.327 . S
C872 H897 0.950 . S
C873 C872 1.349 . S
C873 C889 1.349 . S
C874 C872 1.327 . S
C874 C893 1.429 . S
C874 H898 0.950 . S
C875 C892 1.574 . S
C875 C894 1.368 . S
C875 H899 0.949 . S
H876 C880 0.949 . S
C877 C878 1.349 . S
C877 C879 1.327 . S
C877 H900 0.950 . S
C878 C877 1.349 . S
C878 C890 1.349 . S
C879 C877 1.327 . S
C879 C895 1.429 . S
C879 H901 0.950 . S
C880 H876 0.949 . S
C880 C888 1.574 . S
C880 C896 1.368 . S
H881 C889 0.950 . S
H882 C887 0.950 . S
H883 C888 0.949 . S
H884 C890 0.950 . S
H885 C891 0.950 . S
H886 C892 0.949 . S
C887 H882 0.950 . S
C887 C889 1.327 . S
C887 C893 1.429 . S
C888 C880 1.574 . S
C888 H883 0.949 . S
C888 C894 1.368 . S
C889 C873 1.349 . S
C889 H881 0.950 . S
C889 C887 1.327 . S
C890 C878 1.349 . S
C890 H884 0.950 . S
C890 C891 1.327 . S
C891 H885 0.950 . S
C891 C890 1.327 . S
C891 C895 1.429 . S
C892 C875 1.574 . S
C892 H886 0.949 . S
C892 C896 1.368 . S
C893 C874 1.429 . S
C893 C887 1.429 . S
C893 C894 1.523 . S
C894 C875 1.368 . S
C894 C888 1.368 . S
C894 C893 1.523 . S
C895 C879 1.429 . S
C895 C891 1.429 . S
C895 C896 1.523 . S
C896 C880 1.368 . S
C896 C892 1.368 . S
C896 C895 1.523 . S
H897 C872 0.950 . S
H898 C874 0.950 . S
H899 C875 0.949 . S
H900 C877 0.950 . S
H901 C879 0.950 . S
C902 C903 1.349 . S
C902 C904 1.327 . S
C902 H927 0.950 . S
C903 C902 1.349 . S
C903 C919 1.349 . S
C904 C902 1.327 . S
C904 C923 1.429 . S
C904 H928 0.950 . S
C905 C922 1.574 . S
C905 C924 1.368 . S
C905 H929 0.949 . S
H906 C910 0.949 . S
C907 C908 1.349 . S
C907 C909 1.327 . S
C907 H930 0.950 . S
C908 C907 1.349 . S
C908 C920 1.349 . S
C909 C907 1.327 . S
C909 C925 1.429 . S
C909 H931 0.950 . S
C910 H906 0.949 . S
C910 C918 1.574 . S
C910 C926 1.368 . S
H911 C919 0.950 . S
H912 C917 0.950 . S
H913 C918 0.949 . S
H914 C920 0.950 . S
H915 C921 0.950 . S
H916 C922 0.949 . S
C917 H912 0.950 . S
C917 C919 1.327 . S
C917 C923 1.429 . S
C918 C910 1.574 . S
C918 H913 0.949 . S
C918 C924 1.368 . S
C919 C903 1.349 . S
C919 H911 0.950 . S
C919 C917 1.327 . S
C920 C908 1.349 . S
C920 H914 0.950 . S
C920 C921 1.327 . S
C921 H915 0.950 . S
C921 C920 1.327 . S
C921 C925 1.429 . S
C922 C905 1.574 . S
C922 H916 0.949 . S
C922 C926 1.368 . S
C923 C904 1.429 . S
C923 C917 1.429 . S
C923 C924 1.523 . S
C924 C905 1.368 . S
C924 C918 1.368 . S
C924 C923 1.523 . S
C925 C909 1.429 . S
C925 C921 1.429 . S
C925 C926 1.523 . S
C926 C910 1.368 . S
C926 C922 1.368 . S
C926 C925 1.523 . S
H927 C902 0.950 . S
H928 C904 0.950 . S
H929 C905 0.949 . S
H930 C907 0.950 . S
H931 C909 0.950 . S
C932 C933 1.349 . S
C932 C934 1.327 . S
C932 H957 0.950 . S
C933 C932 1.349 . S
C933 C949 1.349 . S
C934 C932 1.327 . S
C934 C953 1.429 . S
C934 H958 0.950 . S
C935 C952 1.574 . S
C935 C954 1.368 . S
C935 H959 0.949 . S
H936 C940 0.949 . S
C937 C938 1.349 . S
C937 C939 1.327 . S
C937 H960 0.950 . S
C938 C937 1.349 . S
C938 C950 1.349 . S
C939 C937 1.327 . S
C939 C955 1.429 . S
C939 H961 0.950 . S
C940 H936 0.949 . S
C940 C948 1.574 . S
C940 C956 1.368 . S
H941 C949 0.950 . S
H942 C947 0.950 . S
H943 C948 0.949 . S
H944 C950 0.950 . S
H945 C951 0.950 . S
H946 C952 0.949 . S
C947 H942 0.950 . S
C947 C949 1.327 . S
C947 C953 1.429 . S
C948 C940 1.574 . S
C948 H943 0.949 . S
C948 C954 1.368 . S
C949 C933 1.349 . S
C949 H941 0.950 . S
C949 C947 1.327 . S
C950 C938 1.349 . S
C950 H944 0.950 . S
C950 C951 1.327 . S
C951 H945 0.950 . S
C951 C950 1.327 . S
C951 C955 1.429 . S
C952 C935 1.574 . S
C952 H946 0.949 . S
C952 C956 1.368 . S
C953 C934 1.429 . S
C953 C947 1.429 . S
C953 C954 1.523 . S
C954 C935 1.368 . S
C954 C948 1.368 . S
C954 C953 1.523 . S
C955 C939 1.429 . S
C955 C951 1.429 . S
C955 C956 1.523 . S
C956 C940 1.368 . S
C956 C952 1.368 . S
C956 C955 1.523 . S
H957 C932 0.950 . S
H958 C934 0.950 . S
H959 C935 0.949 . S
H960 C937 0.950 . S
H961 C939 0.950 . S
C962 C963 1.349 . S
C962 C964 1.327 . S
C962 H987 0.950 . S
C963 C962 1.349 . S
C963 C979 1.349 . S
C964 C962 1.327 . S
C964 C983 1.429 . S
C964 H988 0.950 . S
C965 C982 1.574 . S
C965 C984 1.368 . S
C965 H989 0.949 . S
H966 C970 0.949 . S
C967 C968 1.349 . S
C967 C969 1.327 . S
C967 H990 0.950 . S
C968 C967 1.349 . S
C968 C980 1.349 . S
C969 C967 1.327 . S
C969 C985 1.429 . S
C969 H991 0.950 . S
C970 H966 0.949 . S
C970 C978 1.574 . S
C970 C986 1.368 . S
H971 C979 0.950 . S
H972 C977 0.950 . S
H973 C978 0.949 . S
H974 C980 0.950 . S
H975 C981 0.950 . S
H976 C982 0.949 . S
C977 H972 0.950 . S
C977 C979 1.327 . S
C977 C983 1.429 . S
C978 C970 1.574 . S
C978 H973 0.949 . S
C978 C984 1.368 . S
C979 C963 1.349 . S
C979 H971 0.950 . S
C979 C977 1.327 . S
C980 C968 1.349 . S
C980 H974 0.950 . S
C980 C981 1.327 . S
C981 H975 0.950 . S
C981 C980 1.327 . S
C981 C985 1.429 . S
C982 C965 1.574 . S
C982 H976 0.949 . S
C982 C986 1.368 . S
C983 C964 1.429 . S
C983 C977 1.429 . S
C983 C984 1.523 . S
C984 C965 1.368 . S
C984 C978 1.368 . S
C984 C983 1.523 . S
C985 C969 1.429 . S
C985 C981 1.429 . S
C985 C986 1.523 . S
C986 C970 1.368 . S
C986 C982 1.368 . S
C986 C985 1.523 . S
H987 C962 0.950 . S
H988 C964 0.950 . S
H989 C965 0.949 . S
H990 C967 0.950 . S
H991 C969 0.950 . S
C992 C993 1.349 . S
C992 C994 1.327 . S
C992 H1017 0.950 . S
C993 C992 1.349 . S
C993 C1009 1.349 . S
C994 C992 1.327 . S
C994 C1013 1.429 . S
C994 H1018 0.950 . S
C995 C1012 1.574 . S
C995 C1014 1.368 . S
C995 H1019 0.949 . S
H996 C1000 0.949 . S
C997 C998 1.349 . S
C997 C999 1.327 . S
C997 H1020 0.950 . S
C998 C997 1.349 . S
C998 C1010 1.349 . S
C999 C997 1.327 . S
C999 C1015 1.429 . S
C999 H1021 0.950 . S
C1000 H996 0.949 . S
C1000 C1008 1.574 . S
C1000 C1016 1.368 . S
H1001 C1009 0.950 . S
H1002 C1007 0.950 . S
H1003 C1008 0.949 . S
H1004 C1010 0.950 . S
H1005 C1011 0.950 . S
H1006 C1012 0.949 . S
C1007 H1002 0.950 . S
C1007 C1009 1.327 . S
C1007 C1013 1.429 . S
C1008 C1000 1.574 . S
C1008 H1003 0.949 . S
C1008 C1014 1.368 . S
C1009 C993 1.349 . S
C1009 H1001 0.950 . S
C1009 C1007 1.327 . S
C1010 C998 1.349 . S
C1010 H1004 0.950 . S
C1010 C1011 1.327 . S
C1011 H1005 0.950 . S
C1011 C1010 1.327 . S
C1011 C1015 1.429 . S
C1012 C995 1.574 . S
C1012 H1006 0.949 . S
C1012 C1016 1.368 . S
C1013 C994 1.429 . S
C1013 C1007 1.429 . S
C1013 C1014 1.523 . S
C1014 C995 1.368 . S
C1014 C1008 1.368 . S
C1014 C1013 1.523 . S
C1015 C999 1.429 . S
C1015 C1011 1.429 . S
C1015 C1016 1.523 . S
C1016 C1000 1.368 . S
C1016 C1012 1.368 . S
C1016 C1015 1.523 . S
H1017 C992 0.950 . S
H1018 C994 0.950 . S
H1019 C995 0.949 . S
H1020 C997 0.950 . S
H1021 C999 0.950 . S
C1022 C1023 1.349 . S
C1022 C1024 1.327 . S
C1022 H1047 0.950 . S
C1023 C1022 1.349 . S
C1023 C1039 1.349 . S
C1024 C1022 1.327 . S
C1024 C1043 1.429 . S
C1024 H1048 0.950 . S
C1025 C1042 1.574 . S
C1025 C1044 1.368 . S
C1025 H1049 0.949 . S
H1026 C1030 0.949 . S
C1027 C1028 1.349 . S
C1027 C1029 1.327 . S
C1027 H1050 0.950 . S
C1028 C1027 1.349 . S
C1028 C1040 1.349 . S
C1029 C1027 1.327 . S
C1029 C1045 1.429 . S
C1029 H1051 0.950 . S
C1030 H1026 0.949 . S
C1030 C1038 1.574 . S
C1030 C1046 1.368 . S
H1031 C1039 0.950 . S
H1032 C1037 0.950 . S
H1033 C1038 0.949 . S
H1034 C1040 0.950 . S
H1035 C1041 0.950 . S
H1036 C1042 0.949 . S
C1037 H1032 0.950 . S
C1037 C1039 1.327 . S
C1037 C1043 1.429 . S
C1038 C1030 1.574 . S
C1038 H1033 0.949 . S
C1038 C1044 1.368 . S
C1039 C1023 1.349 . S
C1039 H1031 0.950 . S
C1039 C1037 1.327 . S
C1040 C1028 1.349 . S
C1040 H1034 0.950 . S
C1040 C1041 1.327 . S
C1041 H1035 0.950 . S
C1041 C1040 1.327 . S
C1041 C1045 1.429 . S
C1042 C1025 1.574 . S
C1042 H1036 0.949 . S
C1042 C1046 1.368 . S
C1043 C1024 1.429 . S
C1043 C1037 1.429 . S
C1043 C1044 1.523 . S
C1044 C1025 1.368 . S
C1044 C1038 1.368 . S
C1044 C1043 1.523 . S
C1045 C1029 1.429 . S
C1045 C1041 1.429 . S
C1045 C1046 1.523 . S
C1046 C1030 1.368 . S
C1046 C1042 1.368 . S
C1046 C1045 1.523 . S
H1047 C1022 0.950 . S
H1048 C1024 0.950 . S
H1049 C1025 0.949 . S
H1050 C1027 0.950 . S
H1051 C1029 0.950 . S
C1052 C1053 1.349 . S
C1052 C1054 1.327 . S
C1052 H1077 0.950 . S
C1053 C1052 1.349 . S
C1053 C1069 1.349 . S
C1054 C1052 1.327 . S
C1054 C1073 1.429 . S
C1054 H1078 0.950 . S
C1055 C1072 1.574 . S
C1055 C1074 1.368 . S
C1055 H1079 0.949 . S
H1056 C1060 0.949 . S
C1057 C1058 1.349 . S
C1057 C1059 1.327 . S
C1057 H1080 0.950 . S
C1058 C1057 1.349 . S
C1058 C1070 1.349 . S
C1059 C1057 1.327 . S
C1059 C1075 1.429 . S
C1059 H1081 0.950 . S
C1060 H1056 0.949 . S
C1060 C1068 1.574 . S
C1060 C1076 1.368 . S
H1061 C1069 0.950 . S
H1062 C1067 0.950 . S
H1063 C1068 0.949 . S
H1064 C1070 0.950 . S
H1065 C1071 0.950 . S
H1066 C1072 0.949 . S
C1067 H1062 0.950 . S
C1067 C1069 1.327 . S
C1067 C1073 1.429 . S
C1068 C1060 1.574 . S
C1068 H1063 0.949 . S
C1068 C1074 1.368 . S
C1069 C1053 1.349 . S
C1069 H1061 0.950 . S
C1069 C1067 1.327 . S
C1070 C1058 1.349 . S
C1070 H1064 0.950 . S
C1070 C1071 1.327 . S
C1071 H1065 0.950 . S
C1071 C1070 1.327 . S
C1071 C1075 1.429 . S
C1072 C1055 1.574 . S
C1072 H1066 0.949 . S
C1072 C1076 1.368 . S
C1073 C1054 1.429 . S
C1073 C1067 1.429 . S
C1073 C1074 1.523 . S
C1074 C1055 1.368 . S
C1074 C1068 1.368 . S
C1074 C1073 1.523 . S
C1075 C1059 1.429 . S
C1075 C1071 1.429 . S
C1075 C1076 1.523 . S
C1076 C1060 1.368 . S
C1076 C1072 1.368 . S
C1076 C1075 1.523 . S
H1077 C1052 0.950 . S
H1078 C1054 0.950 . S
H1079 C1055 0.949 . S
H1080 C1057 0.950 . S
H1081 C1059 0.950 . S
C1082 C1083 1.349 . S
C1082 C1084 1.327 . S
C1082 H1107 0.950 . S
C1083 C1082 1.349 . S
C1083 C1099 1.349 . S
C1084 C1082 1.327 . S
C1084 C1103 1.429 . S
C1084 H1108 0.950 . S
C1085 C1102 1.574 . S
C1085 C1104 1.368 . S
C1085 H1109 0.949 . S
H1086 C1090 0.949 . S
C1087 C1088 1.349 . S
C1087 C1089 1.327 . S
C1087 H1110 0.950 . S
C1088 C1087 1.349 . S
C1088 C1100 1.349 . S
C1089 C1087 1.327 . S
C1089 C1105 1.429 . S
C1089 H1111 0.950 . S
C1090 H1086 0.949 . S
C1090 C1098 1.574 . S
C1090 C1106 1.368 . S
H1091 C1099 0.950 . S
H1092 C1097 0.950 . S
H1093 C1098 0.949 . S
H1094 C1100 0.950 . S
H1095 C1101 0.950 . S
H1096 C1102 0.949 . S
C1097 H1092 0.950 . S
C1097 C1099 1.327 . S
C1097 C1103 1.429 . S
C1098 C1090 1.574 . S
C1098 H1093 0.949 . S
C1098 C1104 1.368 . S
C1099 C1083 1.349 . S
C1099 H1091 0.950 . S
C1099 C1097 1.327 . S
C1100 C1088 1.349 . S
C1100 H1094 0.950 . S
C1100 C1101 1.327 . S
C1101 H1095 0.950 . S
C1101 C1100 1.327 . S
C1101 C1105 1.429 . S
C1102 C1085 1.574 . S
C1102 H1096 0.949 . S
C1102 C1106 1.368 . S
C1103 C1084 1.429 . S
C1103 C1097 1.429 . S
C1103 C1104 1.523 . S
C1104 C1085 1.368 . S
C1104 C1098 1.368 . S
C1104 C1103 1.523 . S
C1105 C1089 1.429 . S
C1105 C1101 1.429 . S
C1105 C1106 1.523 . S
C1106 C1090 1.368 . S
C1106 C1102 1.368 . S
C1106 C1105 1.523 . S
H1107 C1082 0.950 . S
H1108 C1084 0.950 . S
H1109 C1085 0.949 . S
H1110 C1087 0.950 . S
H1111 C1089 0.950 . S
C1112 C1113 1.349 . S
C1112 C1114 1.327 . S
C1112 H1137 1.019 . S
C1113 C1112 1.349 . S
C1113 C1129 1.349 . S
C1114 C1112 1.327 . S
C1114 C1133 1.429 . S
C1114 H1138 0.950 . S
C1115 C1132 1.574 . S
C1115 C1134 1.368 . S
C1115 H1139 0.949 . S
H1116 C1120 0.949 . S
C1117 C1118 1.349 . S
C1117 C1119 1.327 . S
C1117 H1140 0.950 . S
C1118 C1117 1.349 . S
C1118 C1130 1.349 . S
C1119 C1117 1.327 . S
C1119 C1135 1.429 . S
C1119 H1141 0.950 . S
C1120 H1116 0.949 . S
C1120 C1128 1.574 . S
C1120 C1136 1.368 . S
H1121 C1129 0.950 . S
H1122 C1127 0.950 . S
H1123 C1128 0.949 . S
H1124 C1130 0.950 . S
H1125 C1131 0.950 . S
H1126 C1132 0.949 . S
C1127 H1122 0.950 . S
C1127 C1129 1.327 . S
C1127 C1133 1.429 . S
C1128 C1120 1.574 . S
C1128 H1123 0.949 . S
C1128 C1134 1.368 . S
C1129 C1113 1.349 . S
C1129 H1121 0.950 . S
C1129 C1127 1.327 . S
C1130 C1118 1.349 . S
C1130 H1124 0.950 . S
C1130 C1131 1.327 . S
C1131 H1125 0.950 . S
C1131 C1130 1.327 . S
C1131 C1135 1.429 . S
C1132 C1115 1.574 . S
C1132 H1126 0.949 . S
C1132 C1136 1.368 . S
C1133 C1114 1.429 . S
C1133 C1127 1.429 . S
C1133 C1134 1.523 . S
C1134 C1115 1.368 . S
C1134 C1128 1.368 . S
C1134 C1133 1.523 . S
C1135 C1119 1.429 . S
C1135 C1131 1.429 . S
C1135 C1136 1.523 . S
C1136 C1120 1.368 . S
C1136 C1132 1.368 . S
C1136 C1135 1.523 . S
H1137 C1112 1.019 . S
H1138 C1114 0.950 . S
H1139 C1115 0.949 . S
H1140 C1117 0.950 . S
H1141 C1119 0.950 . S
C1142 C1143 1.349 . S
C1142 C1144 1.327 . S
C1142 H1167 0.950 . S
C1143 C1142 1.349 . S
C1143 C1159 1.349 . S
C1144 C1142 1.327 . S
C1144 C1163 1.429 . S
C1144 H1168 0.950 . S
C1145 C1162 1.574 . S
C1145 C1164 1.368 . S
C1145 H1169 0.949 . S
H1146 C1150 0.949 . S
C1147 C1148 1.349 . S
C1147 C1149 1.327 . S
C1147 H1170 0.950 . S
C1148 C1147 1.349 . S
C1148 C1160 1.349 . S
C1149 C1147 1.327 . S
C1149 C1165 1.429 . S
C1149 H1171 0.950 . S
C1150 H1146 0.949 . S
C1150 C1158 1.574 . S
C1150 C1166 1.368 . S
H1151 C1159 0.950 . S
H1152 C1157 0.950 . S
H1153 C1158 0.949 . S
H1154 C1160 0.950 . S
H1155 C1161 0.950 . S
H1156 C1162 0.949 . S
C1157 H1152 0.950 . S
C1157 C1159 1.327 . S
C1157 C1163 1.429 . S
C1158 C1150 1.574 . S
C1158 H1153 0.949 . S
C1158 C1164 1.368 . S
C1159 C1143 1.349 . S
C1159 H1151 0.950 . S
C1159 C1157 1.327 . S
C1160 C1148 1.349 . S
C1160 H1154 0.950 . S
C1160 C1161 1.327 . S
C1161 H1155 0.950 . S
C1161 C1160 1.327 . S
C1161 C1165 1.429 . S
C1162 C1145 1.574 . S
C1162 H1156 0.949 . S
C1162 C1166 1.368 . S
C1163 C1144 1.429 . S
C1163 C1157 1.429 . S
C1163 C1164 1.523 . S
C1164 C1145 1.368 . S
C1164 C1158 1.368 . S
C1164 C1163 1.523 . S
C1165 C1149 1.429 . S
C1165 C1161 1.429 . S
C1165 C1166 1.523 . S
C1166 C1150 1.368 . S
C1166 C1162 1.368 . S
C1166 C1165 1.523 . S
H1167 C1142 0.950 . S
H1168 C1144 0.950 . S
H1169 C1145 0.949 . S
H1170 C1147 0.950 . S
H1171 C1149 0.950 . S
C1172 C1173 1.349 . S
C1172 C1174 1.327 . S
C1172 H1197 0.950 . S
C1173 C1172 1.349 . S
C1173 C1189 1.349 . S
C1174 C1172 1.327 . S
C1174 C1193 1.429 . S
C1174 H1198 0.950 . S
C1175 C1192 1.574 . S
C1175 C1194 1.368 . S
C1175 H1199 0.949 . S
H1176 C1180 0.949 . S
C1177 C1178 1.349 . S
C1177 C1179 1.327 . S
C1177 H1200 0.950 . S
C1178 C1177 1.349 . S
C1178 C1190 1.349 . S
C1179 C1177 1.327 . S
C1179 C1195 1.429 . S
C1179 H1201 0.950 . S
C1180 H1176 0.949 . S
C1180 C1188 1.574 . S
C1180 C1196 1.368 . S
H1181 C1189 0.950 . S
H1182 C1187 0.950 . S
H1183 C1188 0.949 . S
H1184 C1190 0.950 . S
H1185 C1191 0.950 . S
H1186 C1192 0.949 . S
C1187 H1182 0.950 . S
C1187 C1189 1.327 . S
C1187 C1193 1.429 . S
C1188 C1180 1.574 . S
C1188 H1183 0.949 . S
C1188 C1194 1.368 . S
C1189 C1173 1.349 . S
C1189 H1181 0.950 . S
C1189 C1187 1.327 . S
C1190 C1178 1.349 . S
C1190 H1184 0.950 . S
C1190 C1191 1.327 . S
C1191 H1185 0.950 . S
C1191 C1190 1.327 . S
C1191 C1195 1.429 . S
C1192 C1175 1.574 . S
C1192 H1186 0.949 . S
C1192 C1196 1.368 . S
C1193 C1174 1.429 . S
C1193 C1187 1.429 . S
C1193 C1194 1.523 . S
C1194 C1175 1.368 . S
C1194 C1188 1.368 . S
C1194 C1193 1.523 . S
C1195 C1179 1.429 . S
C1195 C1191 1.429 . S
C1195 C1196 1.523 . S
C1196 C1180 1.368 . S
C1196 C1192 1.368 . S
C1196 C1195 1.523 . S
H1197 C1172 0.950 . S
H1198 C1174 0.950 . S
H1199 C1175 0.949 . S
H1200 C1177 0.950 . S
H1201 C1179 0.950 . S
C1202 C1203 1.349 . S
C1202 C1204 1.327 . S
C1202 H1227 0.950 . S
C1203 C1202 1.349 . S
C1203 C1219 1.349 . S
C1204 C1202 1.327 . S
C1204 C1223 1.429 . S
C1204 H1228 0.950 . S
C1205 C1222 1.574 . S
C1205 C1224 1.368 . S
C1205 H1229 0.949 . S
H1206 C1210 0.949 . S
C1207 C1208 1.349 . S
C1207 C1209 1.327 . S
C1207 H1230 0.950 . S
C1208 C1207 1.349 . S
C1208 C1220 1.349 . S
C1209 C1207 1.327 . S
C1209 C1225 1.429 . S
C1209 H1231 0.950 . S
C1210 H1206 0.949 . S
C1210 C1218 1.574 . S
C1210 C1226 1.368 . S
H1211 C1219 0.950 . S
H1212 C1217 0.950 . S
H1213 C1218 0.949 . S
H1214 C1220 0.950 . S
H1215 C1221 0.950 . S
H1216 C1222 0.949 . S
C1217 H1212 0.950 . S
C1217 C1219 1.327 . S
C1217 C1223 1.429 . S
C1218 C1210 1.574 . S
C1218 H1213 0.949 . S
C1218 C1224 1.368 . S
C1219 C1203 1.349 . S
C1219 H1211 0.950 . S
C1219 C1217 1.327 . S
C1220 C1208 1.349 . S
C1220 H1214 0.950 . S
C1220 C1221 1.327 . S
C1221 H1215 0.950 . S
C1221 C1220 1.327 . S
C1221 C1225 1.429 . S
C1222 C1205 1.574 . S
C1222 H1216 0.949 . S
C1222 C1226 1.368 . S
C1223 C1204 1.429 . S
C1223 C1217 1.429 . S
C1223 C1224 1.523 . S
C1224 C1205 1.368 . S
C1224 C1218 1.368 . S
C1224 C1223 1.523 . S
C1225 C1209 1.429 . S
C1225 C1221 1.429 . S
C1225 C1226 1.523 . S
C1226 C1210 1.368 . S
C1226 C1222 1.368 . S
C1226 C1225 1.523 . S
H1227 C1202 0.950 . S
H1228 C1204 0.950 . S
H1229 C1205 0.949 . S
H1230 C1207 0.950 . S
H1231 C1209 0.950 . S
C278 C193 1.532 . S
C273 C14 1.518 . S
C303 C25 1.513 . S
C308 C225 1.531 . S
C333 C50 1.519 . S
C338 C248 1.540 . S
C368 C152 1.542 . S
C363 C68 1.519 . S
C398 C235 1.378 . S
C393 C16 1.470 . S
C428 C264 1.388 . S
C423 C26 1.474 . S
C458 C168 1.391 . S
C453 C52 1.470 . S
C488 C203 1.377 . S
C483 C70 1.470 . S
C513 C8 1.463 . S
C518 C231 1.383 . S
C543 C88 1.465 . S
C548 C206 1.372 . S
C573 C44 1.463 . S
C578 C174 1.368 . S
C608 C263 1.383 . S
C603 C98 1.464 . S
C638 C207 1.532 . S
C633 C7 1.516 . S
C663 C86 1.517 . S
C668 C175 1.532 . S
C693 C43 1.513 . S
C698 C262 1.540 . S
C728 C230 1.538 . S
C723 C97 1.513 . S
C753 C116 1.512 . S
C758 C257 1.525 . S
C783 C79 1.513 . S
C788 C161 1.531 . S
C813 C140 1.519 . S
C818 C184 1.541 . S
C843 C104 1.520 . S
C848 C216 1.542 . S
C878 C171 1.380 . S
C873 C115 1.476 . S
C903 C80 1.474 . S
C908 C200 1.387 . S
C933 C142 1.471 . S
C938 C232 1.391 . S
C968 C267 1.377 . S
C963 C106 1.471 . S
C993 C122 1.469 . S
C998 C167 1.389 . S
C1023 C34 1.465 . S
C1028 C270 1.371 . S
C1053 C134 1.463 . S
C1058 C238 1.367 . S
C1088 C199 1.382 . S
C1083 C62 1.464 . S
C1118 C271 1.529 . S
C1113 C124 1.511 . S
C1148 C239 1.532 . S
C1143 C32 1.518 . S
C1178 C198 1.538 . S
C1173 C133 1.513 . S
C1208 C166 1.538 . S
C1203 C61 1.513 . S
