# Generated by pormake.
# Topology ptr, (4,4)-cn, num edge types: 1
# Building blocks:
#     Node 0, Type 0, BuildingBlock: QUQFOY_clean_sbu_1, # of connection points: 4
#     Node 1, Type 0, BuildingBlock: QUQFOY_clean_sbu_1, # of connection points: 4
#     Node 2, Type 0, BuildingBlock: QUQFOY_clean_sbu_1, # of connection points: 4
#     Node 3, Type 0, BuildingBlock: QUQFOY_clean_sbu_1, # of connection points: 4
#     Node 4, Type 0, BuildingBlock: QUQFOY_clean_sbu_1, # of connection points: 4
#     Node 5, Type 0, BuildingBlock: QUQFOY_clean_sbu_1, # of connection points: 4
#     Node 6, Type 0, BuildingBlock: QUQFOY_clean_sbu_1, # of connection points: 4
#     Node 7, Type 0, BuildingBlock: QUQFOY_clean_sbu_1, # of connection points: 4
#     Node 8, Type 0, BuildingBlock: QUQFOY_clean_sbu_1, # of connection points: 4
#     Node 9, Type 0, BuildingBlock: QUQFOY_clean_sbu_1, # of connection points: 4
#     Node 10, Type 0, BuildingBlock: QUQFOY_clean_sbu_1, # of connection points: 4
#     Node 11, Type 0, BuildingBlock: QUQFOY_clean_sbu_1, # of connection points: 4
#     Node 12, Type 0, BuildingBlock: QUQFOY_clean_sbu_1, # of connection points: 4
#     Node 13, Type 0, BuildingBlock: QUQFOY_clean_sbu_1, # of connection points: 4
#     Node 14, Type 0, BuildingBlock: QUQFOY_clean_sbu_1, # of connection points: 4
#     Node 15, Type 0, BuildingBlock: QUQFOY_clean_sbu_1, # of connection points: 4
#     Node 16, Type 0, BuildingBlock: QUQFOY_clean_sbu_1, # of connection points: 4
#     Node 17, Type 0, BuildingBlock: QUQFOY_clean_sbu_1, # of connection points: 4
#     Node 18, Type 1, BuildingBlock: GIZVER_clean_linker_0, # of connection points: 4
#     Node 19, Type 1, BuildingBlock: GIZVER_clean_linker_0, # of connection points: 4
#     Node 20, Type 1, BuildingBlock: GIZVER_clean_linker_0, # of connection points: 4
#     Node 21, Type 1, BuildingBlock: GIZVER_clean_linker_0, # of connection points: 4
#     Node 22, Type 1, BuildingBlock: GIZVER_clean_linker_0, # of connection points: 4
#     Node 23, Type 1, BuildingBlock: GIZVER_clean_linker_0, # of connection points: 4
#     Node 24, Type 1, BuildingBlock: GIZVER_clean_linker_0, # of connection points: 4
#     Node 25, Type 1, BuildingBlock: GIZVER_clean_linker_0, # of connection points: 4
#     Node 26, Type 1, BuildingBlock: GIZVER_clean_linker_0, # of connection points: 4
#     Node 27, Type 1, BuildingBlock: GIZVER_clean_linker_0, # of connection points: 4
#     Node 28, Type 1, BuildingBlock: GIZVER_clean_linker_0, # of connection points: 4
#     Node 29, Type 1, BuildingBlock: GIZVER_clean_linker_0, # of connection points: 4
#     Node 30, Type 1, BuildingBlock: GIZVER_clean_linker_0, # of connection points: 4
#     Node 31, Type 1, BuildingBlock: GIZVER_clean_linker_0, # of connection points: 4
#     Node 32, Type 1, BuildingBlock: GIZVER_clean_linker_0, # of connection points: 4
#     Node 33, Type 1, BuildingBlock: GIZVER_clean_linker_0, # of connection points: 4
#     Node 34, Type 1, BuildingBlock: GIZVER_clean_linker_0, # of connection points: 4
#     Node 35, Type 1, BuildingBlock: GIZVER_clean_linker_0, # of connection points: 4
#     Edge 36, Type (0, 1), None
#     Edge 37, Type (0, 1), None
#     Edge 38, Type (0, 1), None
#     Edge 39, Type (0, 1), None
#     Edge 40, Type (0, 1), None
#     Edge 41, Type (0, 1), None
#     Edge 42, Type (0, 1), None
#     Edge 43, Type (0, 1), None
#     Edge 44, Type (0, 1), None
#     Edge 45, Type (0, 1), None
#     Edge 46, Type (0, 1), None
#     Edge 47, Type (0, 1), None
#     Edge 48, Type (0, 1), None
#     Edge 49, Type (0, 1), None
#     Edge 50, Type (0, 1), None
#     Edge 51, Type (0, 1), None
#     Edge 52, Type (0, 1), None
#     Edge 53, Type (0, 1), None
#     Edge 54, Type (0, 1), None
#     Edge 55, Type (0, 1), None
#     Edge 56, Type (0, 1), None
#     Edge 57, Type (0, 1), None
#     Edge 58, Type (0, 1), None
#     Edge 59, Type (0, 1), None
#     Edge 60, Type (0, 1), None
#     Edge 61, Type (0, 1), None
#     Edge 62, Type (0, 1), None
#     Edge 63, Type (0, 1), None
#     Edge 64, Type (0, 1), None
#     Edge 65, Type (0, 1), None
#     Edge 66, Type (0, 1), None
#     Edge 67, Type (0, 1), None
#     Edge 68, Type (0, 1), None
#     Edge 69, Type (0, 1), None
#     Edge 70, Type (0, 1), None
#     Edge 71, Type (0, 1), None
#     Edge 72, Type (0, 1), None
#     Edge 73, Type (0, 1), None
#     Edge 74, Type (0, 1), None
#     Edge 75, Type (0, 1), None
#     Edge 76, Type (0, 1), None
#     Edge 77, Type (0, 1), None
#     Edge 78, Type (0, 1), None
#     Edge 79, Type (0, 1), None
#     Edge 80, Type (0, 1), None
#     Edge 81, Type (0, 1), None
#     Edge 82, Type (0, 1), None
#     Edge 83, Type (0, 1), None
#     Edge 84, Type (0, 1), None
#     Edge 85, Type (0, 1), None
#     Edge 86, Type (0, 1), None
#     Edge 87, Type (0, 1), None
#     Edge 88, Type (0, 1), None
#     Edge 89, Type (0, 1), None
#     Edge 90, Type (0, 1), None
#     Edge 91, Type (0, 1), None
#     Edge 92, Type (0, 1), None
#     Edge 93, Type (0, 1), None
#     Edge 94, Type (0, 1), None
#     Edge 95, Type (0, 1), None
#     Edge 96, Type (0, 1), None
#     Edge 97, Type (0, 1), None
#     Edge 98, Type (0, 1), None
#     Edge 99, Type (0, 1), None
#     Edge 100, Type (0, 1), None
#     Edge 101, Type (0, 1), None
#     Edge 102, Type (0, 1), None
#     Edge 103, Type (0, 1), None
#     Edge 104, Type (0, 1), None
#     Edge 105, Type (0, 1), None
#     Edge 106, Type (0, 1), None
#     Edge 107, Type (0, 1), None
# Relax obj value: 0.017
# Max RMSD: 0.073
# Mean RMSD: 0.058
data_MOF--net-ptr--node1-QUQFOY_clean_sbu_1--node2-GIZVER_clean_linker_0--edge1-none
_symmetry_space_group_name_H-M    P1
_symmetry_Int_Tables_number       1
_symmetry_cell_setting            triclinic
loop_
_symmetry_equiv_pos_as_xyz
'x, y, z'
_cell_length_a     39.251345
_cell_length_b     39.29772
_cell_length_c     23.141884
_cell_angle_alpha  90.409264
_cell_angle_beta   90.212641
_cell_angle_gamma 119.97348
loop_
_atom_site_label
_atom_site_type_symbol
_atom_site_fract_x
_atom_site_fract_y
_atom_site_fract_z
_atom_type_partial_charge
O0 O 0.04851 0.44185 0.07928 0.0
Cd1 Cd 0.05798 0.41032 0.01693 0.0
Cd2 Cd 0.97946 0.37156 0.01769 0.0
O3 O 0.99243 0.39018 0.1038 0.0
O4 O 0.10831 0.41105 0.03518 0.0
O5 O 0.04864 0.35936 0.04685 0.0
C6 C 0.08627 0.37575 0.05377 0.0
C7 C 0.94176 0.30705 0.98454 0.0
C8 C 0.02163 0.42381 0.11619 0.0
C9 C 0.02072 0.42282 0.91752 0.0
O10 O 0.9914 0.41122 0.95103 0.0
O11 O 0.04998 0.41918 0.93191 0.0
O12 O 0.92485 0.32578 0.00384 0.0
O13 O 0.97957 0.32382 0.98886 0.0
O14 O 0.57817 0.60522 0.08168 0.0
Cd15 Cd 0.60825 0.64588 0.01698 0.0
Cd16 Cd 0.64872 0.61049 0.02003 0.0
O17 O 0.63156 0.60316 0.10515 0.0
O18 O 0.60809 0.69618 0.03312 0.0
O19 O 0.65936 0.68784 0.04792 0.0
C20 C 0.64338 0.70953 0.05294 0.0
C21 C 0.71129 0.63455 0.98222 0.0
C22 C 0.59709 0.59615 0.1173 0.0
C23 C 0.59843 0.59449 0.92042 0.0
O24 O 0.60691 0.57724 0.95925 0.0
O25 O 0.60321 0.62844 0.9306 0.0
O26 O 0.69335 0.6007 0.00692 0.0
O27 O 0.69541 0.65647 0.98473 0.0
O28 O 0.441 0.02749 0.95447 0.0
Cd29 Cd 0.4112 0.03918 0.01873 0.0
Cd30 Cd 0.37106 0.96543 0.01583 0.0
O31 O 0.38682 0.97316 0.93027 0.0
O32 O 0.42063 0.0934 0.00631 0.0
O33 O 0.36434 0.0394 0.98492 0.0
C34 C 0.38612 0.07719 0.9825 0.0
C35 C 0.30872 0.93289 0.05488 0.0
C36 C 0.42151 0.99987 0.91827 0.0
C37 C 0.42073 0.99791 0.11529 0.0
O38 O 0.41249 0.97211 0.07614 0.0
O39 O 0.41565 0.02684 0.10513 0.0
O40 O 0.32371 0.91375 0.03041 0.0
O41 O 0.32757 0.97078 0.05147 0.0
O42 O 0.98772 0.57285 0.95314 0.0
Cd43 Cd 0.97599 0.60263 0.01759 0.0
Cd44 Cd 0.04918 0.64345 0.01679 0.0
O45 O 0.04131 0.62771 0.93093 0.0
O46 O 0.92215 0.59419 0.00367 0.0
O47 O 0.97684 0.64978 0.98402 0.0
C48 C 0.93898 0.62859 0.98051 0.0
C49 C 0.08112 0.7061 0.05586 0.0
C50 C 0.01506 0.59292 0.91766 0.0
C51 C 0.01807 0.59454 0.11533 0.0
O52 O 0.04397 0.60292 0.07687 0.0
O53 O 0.98868 0.59882 0.10425 0.0
O54 O 0.10049 0.69137 0.03146 0.0
O55 O 0.04316 0.68659 0.05271 0.0
O56 O 0.43843 0.41033 0.96053 0.0
Cd57 Cd 0.40468 0.369 0.02027 0.0
Cd58 Cd 0.36898 0.40906 0.0164 0.0
O59 O 0.38704 0.41361 0.9305 0.0
O60 O 0.41443 0.32425 0.00853 0.0
O61 O 0.35882 0.32209 0.98354 0.0
C62 C 0.38065 0.30609 0.98262 0.0
C63 C 0.30553 0.37299 0.05185 0.0
C64 C 0.42112 0.41849 0.92119 0.0
C65 C 0.41817 0.42088 0.11814 0.0
O66 O 0.40945 0.4398 0.08224 0.0
O67 O 0.41132 0.38647 0.10556 0.0
O68 O 0.31782 0.40779 0.03174 0.0
O69 O 0.32798 0.35786 0.04698 0.0
O70 O 0.57573 0.96759 0.07664 0.0
Cd71 Cd 0.60779 0.9588 0.01458 0.0
Cd72 Cd 0.64606 0.03711 0.01817 0.0
O73 O 0.6271 0.02372 0.10371 0.0
O74 O 0.60679 0.90833 0.03126 0.0
O75 O 0.6587 0.96771 0.04569 0.0
C76 C 0.64209 0.93007 0.05121 0.0
C77 C 0.71058 0.07559 0.98634 0.0
C78 C 0.59346 0.99435 0.11461 0.0
C79 C 0.59486 0.99609 0.91615 0.0
O80 O 0.60618 0.02516 0.95076 0.0
O81 O 0.59889 0.96702 0.9296 0.0
O82 O 0.69143 0.09196 0.00601 0.0
O83 O 0.69432 0.03786 0.98979 0.0
O84 O 0.71524 0.77522 0.41258 0.0
Cd85 Cd 0.72471 0.74368 0.35024 0.0
Cd86 Cd 0.64618 0.70493 0.35099 0.0
O87 O 0.65915 0.72354 0.4371 0.0
O88 O 0.77503 0.74439 0.3685 0.0
O89 O 0.71535 0.69271 0.38015 0.0
C90 C 0.75297 0.70909 0.38708 0.0
C91 C 0.60846 0.64042 0.31784 0.0
C92 C 0.68835 0.75717 0.44949 0.0
C93 C 0.68746 0.75619 0.25082 0.0
O94 O 0.65814 0.74459 0.28433 0.0
O95 O 0.71672 0.75254 0.26521 0.0
O96 O 0.59156 0.65917 0.33714 0.0
O97 O 0.64626 0.65717 0.32216 0.0
O98 O 0.24484 0.93857 0.41501 0.0
Cd99 Cd 0.27492 0.97923 0.35031 0.0
Cd100 Cd 0.31538 0.94382 0.35336 0.0
O101 O 0.29822 0.93649 0.43849 0.0
O102 O 0.27476 0.02953 0.36644 0.0
O103 O 0.32603 0.02118 0.38125 0.0
C104 C 0.31005 0.04287 0.38627 0.0
C105 C 0.37795 0.96788 0.31555 0.0
C106 C 0.26375 0.92949 0.45063 0.0
C107 C 0.26509 0.92782 0.25375 0.0
O108 O 0.27357 0.91057 0.29259 0.0
O109 O 0.26988 0.96178 0.26394 0.0
O110 O 0.36001 0.93404 0.34026 0.0
O111 O 0.36207 0.9898 0.31806 0.0
O112 O 0.10766 0.36082 0.28782 0.0
Cd113 Cd 0.07785 0.3725 0.35209 0.0
Cd114 Cd 0.03771 0.29875 0.34918 0.0
O115 O 0.05348 0.30649 0.26362 0.0
O116 O 0.08727 0.42672 0.33966 0.0
O117 O 0.03099 0.37271 0.31827 0.0
C118 C 0.05276 0.41049 0.31585 0.0
C119 C 0.97537 0.2662 0.38823 0.0
C120 C 0.08817 0.33319 0.25162 0.0
C121 C 0.08739 0.33124 0.44864 0.0
O122 O 0.07915 0.30544 0.40949 0.0
O123 O 0.08231 0.36017 0.43848 0.0
O124 O 0.99037 0.24707 0.36376 0.0
O125 O 0.99423 0.30409 0.38482 0.0
O126 O 0.65438 0.90617 0.28645 0.0
Cd127 Cd 0.64265 0.93595 0.35091 0.0
Cd128 Cd 0.71583 0.97677 0.35011 0.0
O129 O 0.70796 0.96104 0.26425 0.0
O130 O 0.5888 0.9275 0.33699 0.0
O131 O 0.64349 0.9831 0.31734 0.0
C132 C 0.60563 0.96191 0.31383 0.0
C133 C 0.74777 0.03943 0.38917 0.0
C134 C 0.68172 0.92624 0.25098 0.0
C135 C 0.68473 0.92786 0.44865 0.0
O136 O 0.71063 0.93624 0.41019 0.0
O137 O 0.65534 0.93214 0.43757 0.0
O138 O 0.76714 0.02469 0.36478 0.0
O139 O 0.70981 0.01991 0.38603 0.0
O140 O 0.1051 0.74365 0.29387 0.0
Cd141 Cd 0.07136 0.70232 0.35361 0.0
Cd142 Cd 0.03566 0.74239 0.34975 0.0
O143 O 0.05371 0.74694 0.26385 0.0
O144 O 0.0811 0.65757 0.34186 0.0
O145 O 0.02549 0.65541 0.31689 0.0
C146 C 0.04731 0.63941 0.31596 0.0
C147 C 0.97221 0.70632 0.38519 0.0
C148 C 0.08779 0.75181 0.25453 0.0
C149 C 0.08485 0.7542 0.45148 0.0
O150 O 0.07613 0.77313 0.41558 0.0
O151 O 0.078 0.7198 0.4389 0.0
O152 O 0.9845 0.74113 0.36509 0.0
O153 O 0.99466 0.69119 0.38032 0.0
O154 O 0.24241 0.30095 0.40999 0.0
Cd155 Cd 0.27447 0.29217 0.34792 0.0
Cd156 Cd 0.31275 0.37048 0.35152 0.0
O157 O 0.29379 0.35709 0.43706 0.0
O158 O 0.27346 0.24169 0.3646 0.0
O159 O 0.32537 0.30107 0.37904 0.0
C160 C 0.30876 0.26343 0.38455 0.0
C161 C 0.37728 0.40894 0.31969 0.0
C162 C 0.26014 0.32772 0.44796 0.0
C163 C 0.26154 0.32946 0.2495 0.0
O164 O 0.27288 0.35853 0.28411 0.0
O165 O 0.26557 0.30039 0.26294 0.0
O166 O 0.35813 0.42532 0.33936 0.0
O167 O 0.36101 0.37121 0.32314 0.0
O168 O 0.38191 0.10856 0.74592 0.0
Cd169 Cd 0.39137 0.07702 0.68357 0.0
Cd170 Cd 0.31285 0.03828 0.68432 0.0
O171 O 0.32581 0.05689 0.77043 0.0
O172 O 0.44169 0.07773 0.70183 0.0
O173 O 0.38201 0.02606 0.71349 0.0
C174 C 0.41963 0.04243 0.72041 0.0
C175 C 0.27512 0.97377 0.65117 0.0
C176 C 0.35502 0.09051 0.78282 0.0
C177 C 0.35413 0.08953 0.58415 0.0
O178 O 0.3248 0.07794 0.61766 0.0
O179 O 0.38338 0.08589 0.59854 0.0
O180 O 0.25822 0.99252 0.67047 0.0
O181 O 0.31292 0.99051 0.6555 0.0
O182 O 0.91149 0.27185 0.74837 0.0
Cd183 Cd 0.94156 0.31252 0.68367 0.0
Cd184 Cd 0.98205 0.27714 0.68671 0.0
O185 O 0.96489 0.2698 0.77184 0.0
O186 O 0.94137 0.3628 0.69981 0.0
O187 O 0.99266 0.35449 0.7146 0.0
C188 C 0.97667 0.37617 0.71963 0.0
C189 C 0.04462 0.30121 0.64891 0.0
C190 C 0.93042 0.26279 0.78399 0.0
C191 C 0.93175 0.26113 0.58711 0.0
O192 O 0.94024 0.24388 0.62594 0.0
O193 O 0.93653 0.29508 0.5973 0.0
O194 O 0.02669 0.26736 0.67361 0.0
O195 O 0.02873 0.32312 0.65142 0.0
O196 O 0.77434 0.69416 0.62114 0.0
Cd197 Cd 0.74454 0.70585 0.6854 0.0
Cd198 Cd 0.70439 0.6321 0.6825 0.0
O199 O 0.72016 0.63983 0.59694 0.0
O200 O 0.75397 0.76007 0.67297 0.0
O201 O 0.69768 0.70607 0.65158 0.0
C202 C 0.71946 0.74385 0.64917 0.0
C203 C 0.64205 0.59955 0.72154 0.0
C204 C 0.75485 0.66653 0.58494 0.0
C205 C 0.75407 0.66458 0.78195 0.0
O206 O 0.74583 0.63878 0.74281 0.0
O207 O 0.74899 0.69351 0.7718 0.0
O208 O 0.65705 0.58042 0.69708 0.0
O209 O 0.66091 0.63744 0.71813 0.0
O210 O 0.32105 0.23952 0.61979 0.0
Cd211 Cd 0.30933 0.2693 0.68425 0.0
Cd212 Cd 0.38251 0.31012 0.68345 0.0
O213 O 0.37464 0.29438 0.59759 0.0
O214 O 0.25548 0.26086 0.67033 0.0
O215 O 0.31017 0.31645 0.65068 0.0
C216 C 0.27231 0.29526 0.64717 0.0
C217 C 0.41445 0.37277 0.72251 0.0
C218 C 0.34839 0.25959 0.58432 0.0
C219 C 0.35141 0.26121 0.78199 0.0
O220 O 0.37731 0.26959 0.74353 0.0
O221 O 0.32201 0.26549 0.77091 0.0
O222 O 0.43382 0.35804 0.69812 0.0
O223 O 0.37649 0.35325 0.71937 0.0
O224 O 0.77174 0.07699 0.62719 0.0
Cd225 Cd 0.73801 0.03566 0.68693 0.0
Cd226 Cd 0.70229 0.0757 0.68306 0.0
O227 O 0.72035 0.08026 0.59716 0.0
O228 O 0.74776 0.9909 0.67518 0.0
O229 O 0.69214 0.98874 0.6502 0.0
C230 C 0.71398 0.97274 0.64928 0.0
C231 C 0.63884 0.03962 0.7185 0.0
C232 C 0.75443 0.08514 0.58784 0.0
C233 C 0.75148 0.08753 0.7848 0.0
O234 O 0.74275 0.10645 0.74889 0.0
O235 O 0.74464 0.05313 0.77221 0.0
O236 O 0.65112 0.07442 0.69839 0.0
O237 O 0.6613 0.0245 0.71364 0.0
O238 O 0.90909 0.63429 0.74333 0.0
Cd239 Cd 0.94114 0.6255 0.68126 0.0
Cd240 Cd 0.97943 0.7038 0.68486 0.0
O241 O 0.96046 0.69042 0.7704 0.0
O242 O 0.94013 0.57502 0.69794 0.0
O243 O 0.99205 0.63439 0.71238 0.0
C244 C 0.97543 0.59675 0.71789 0.0
C245 C 0.04396 0.74227 0.65303 0.0
C246 C 0.92682 0.66105 0.7813 0.0
C247 C 0.92822 0.66279 0.58284 0.0
O248 O 0.93956 0.69187 0.61745 0.0
O249 O 0.93225 0.63372 0.59628 0.0
O250 O 0.02481 0.75865 0.67271 0.0
O251 O 0.02769 0.70454 0.65648 0.0
H252 H 0.13304 0.30531 0.20552 0.0
H253 H 0.13576 0.34676 0.03203 0.0
H254 H 0.07087 0.36585 0.16515 0.0
H255 H 0.14444 0.27355 0.11307 0.0
H256 H 0.15818 0.30108 0.04812 0.0
H257 H 0.18877 0.30328 0.2042 0.0
H258 H 0.31076 0.36011 0.16212 0.0
H259 H 0.22673 0.34599 0.03109 0.0
C260 C 0.12596 0.32138 0.17462 0.0
C261 C 0.10227 0.33686 0.19213 0.0
C262 C 0.13878 0.32513 0.11685 0.0
C263 C 0.12706 0.3444 0.07688 0.0
C264 C 0.10201 0.35838 0.09419 0.0
C265 C 0.09006 0.35478 0.15173 0.0
C266 C 0.15993 0.30399 0.09606 0.0
C267 C 0.2025 0.3234 0.1157 0.0
C268 C 0.21178 0.31886 0.17307 0.0
C269 C 0.25089 0.33307 0.18996 0.0
C270 C 0.28069 0.35033 0.14922 0.0
C271 C 0.27231 0.35521 0.09211 0.0
C272 C 0.23329 0.34263 0.07552 0.0
H273 H 0.71486 0.82832 0.20449 0.0
H274 H 0.67052 0.78785 0.03124 0.0
H275 H 0.65558 0.70573 0.16389 0.0
H276 H 0.7434 0.87169 0.11351 0.0
H277 H 0.71548 0.85661 0.04805 0.0
H278 H 0.70992 0.88175 0.20557 0.0
H279 H 0.65018 0.94429 0.16339 0.0
H280 H 0.6716 0.88086 0.02979 0.0
C281 C 0.69853 0.80491 0.17357 0.0
C282 C 0.68372 0.76605 0.19103 0.0
C283 C 0.6934 0.81332 0.11603 0.0
C284 C 0.67392 0.78197 0.07594 0.0
C285 C 0.66104 0.74322 0.09309 0.0
C286 C 0.66577 0.73564 0.15057 0.0
C287 C 0.71286 0.8555 0.09594 0.0
C288 C 0.69182 0.87701 0.11568 0.0
C289 C 0.69437 0.88906 0.17392 0.0
C290 C 0.67854 0.91247 0.19113 0.0
C291 C 0.66144 0.92522 0.15008 0.0
C292 C 0.65891 0.91398 0.09207 0.0
C293 C 0.67322 0.88912 0.07492 0.0
H294 H 0.16369 0.79664 0.23057 0.0
H295 H 0.1571 0.76325 0.0523 0.0
H296 H 0.05177 0.71967 0.15314 0.0
H297 H 0.22006 0.79569 0.17512 0.0
H298 H 0.21882 0.79516 0.09827 0.0
H299 H 0.21884 0.85241 0.22929 0.0
H300 H 0.2965 0.96299 0.15265 0.0
H301 H 0.25196 0.85637 0.05203 0.0
C302 C 0.14644 0.78342 0.19188 0.0
C303 C 0.10544 0.76094 0.19652 0.0
C304 C 0.16528 0.7859 0.13932 0.0
C305 C 0.14254 0.76405 0.0916 0.0
C306 C 0.1017 0.73951 0.09647 0.0
C307 C 0.08298 0.73991 0.14806 0.0
C308 C 0.20957 0.80522 0.13715 0.0
C309 C 0.22961 0.84952 0.13866 0.0
C310 C 0.23218 0.86908 0.19077 0.0
C311 C 0.25519 0.90997 0.19556 0.0
C312 C 0.27606 0.93178 0.14735 0.0
C313 C 0.27595 0.91245 0.09579 0.0
C314 C 0.25141 0.8715 0.09108 0.0
H315 H 0.38594 0.2201 0.81114 0.0
H316 H 0.4036 0.25153 0.99119 0.0
H317 H 0.34206 0.29126 0.88126 0.0
H318 H 0.44069 0.22059 0.8762 0.0
H319 H 0.43393 0.21789 0.95236 0.0
H320 H 0.38495 0.16535 0.81249 0.0
H321 H 0.34734 0.05186 0.88159 0.0
H322 H 0.40719 0.15437 0.99115 0.0
C323 C 0.37925 0.2319 0.84885 0.0
C324 C 0.35936 0.25284 0.84106 0.0
C325 C 0.39307 0.22889 0.90368 0.0
C326 C 0.38969 0.25034 0.95009 0.0
C327 C 0.37193 0.27345 0.94211 0.0
C328 C 0.35451 0.27242 0.88842 0.0
C329 C 0.41783 0.20936 0.9103 0.0
C330 C 0.39435 0.16494 0.9044 0.0
C331 C 0.37978 0.14739 0.85005 0.0
C332 C 0.36165 0.10667 0.8421 0.0
C333 C 0.35849 0.08296 0.88905 0.0
C334 C 0.37614 0.10014 0.94249 0.0
C335 C 0.39282 0.14097 0.95046 0.0
H336 H 0.88072 0.19086 0.82775 0.0
H337 H 0.88565 0.22968 0.00469 0.0
H338 H 0.95355 0.31177 0.87294 0.0
H339 H 0.8691 0.1466 0.91962 0.0
H340 H 0.85686 0.16123 0.98542 0.0
H341 H 0.82375 0.13784 0.82781 0.0
H342 H 0.70371 0.06469 0.87425 0.0
H343 H 0.78878 0.13107 0.00644 0.0
C344 C 0.88983 0.21389 0.85986 0.0
C345 C 0.91628 0.25257 0.84355 0.0
C346 C 0.87766 0.205 0.91797 0.0
C347 C 0.89329 0.23588 0.95953 0.0
C348 C 0.92115 0.27426 0.94324 0.0
C349 C 0.93202 0.2822 0.8854 0.0
C350 C 0.85465 0.16249 0.93762 0.0
C351 C 0.81162 0.13984 0.91896 0.0
C352 C 0.80142 0.12843 0.86052 0.0
C353 C 0.76241 0.10208 0.84445 0.0
C354 C 0.73355 0.08611 0.88667 0.0
C355 C 0.74269 0.09646 0.94486 0.0
C356 C 0.78158 0.12393 0.9611 0.0
H357 H 0.85154 0.63118 0.80882 0.0
H358 H 0.86213 0.60845 0.98719 0.0
H359 H 0.96499 0.66778 0.88104 0.0
H360 H 0.79569 0.57578 0.8696 0.0
H361 H 0.79877 0.58102 0.94613 0.0
H362 H 0.79699 0.63171 0.80897 0.0
H363 H 0.7247 0.67327 0.88219 0.0
H364 H 0.76574 0.61119 0.98803 0.0
C365 C 0.86952 0.6361 0.84679 0.0
C366 C 0.91034 0.65408 0.84006 0.0
C367 C 0.85185 0.62156 0.90057 0.0
C368 C 0.87568 0.62284 0.94707 0.0
C369 C 0.91648 0.63911 0.94025 0.0
C370 C 0.93388 0.65684 0.88758 0.0
C371 C 0.80742 0.59794 0.90526 0.0
C372 C 0.78782 0.62272 0.90081 0.0
C373 C 0.78487 0.63752 0.84707 0.0
C374 C 0.76334 0.65691 0.84061 0.0
C375 C 0.74387 0.66107 0.88845 0.0
C376 C 0.74344 0.64337 0.94129 0.0
C377 C 0.76663 0.62554 0.94778 0.0
H378 H 0.79972 0.63864 0.53885 0.0
H379 H 0.80245 0.68008 0.36535 0.0
H380 H 0.73757 0.69919 0.49846 0.0
H381 H 0.81112 0.60687 0.44641 0.0
H382 H 0.82486 0.6344 0.38146 0.0
H383 H 0.85545 0.6366 0.53753 0.0
H384 H 0.97744 0.69346 0.49547 0.0
H385 H 0.89341 0.67931 0.36443 0.0
C386 C 0.79263 0.6547 0.50794 0.0
C387 C 0.76895 0.67019 0.52544 0.0
C388 C 0.80546 0.65845 0.45017 0.0
C389 C 0.79375 0.67773 0.4102 0.0
C390 C 0.7687 0.69171 0.42751 0.0
C391 C 0.75675 0.68811 0.48504 0.0
C392 C 0.82661 0.63731 0.4294 0.0
C393 C 0.86918 0.65672 0.44903 0.0
C394 C 0.87846 0.65218 0.50641 0.0
C395 C 0.91757 0.6664 0.5233 0.0
C396 C 0.94737 0.68367 0.48257 0.0
C397 C 0.93899 0.68854 0.42545 0.0
C398 C 0.89997 0.67596 0.40885 0.0
H399 H 0.38152 0.16166 0.53782 0.0
H400 H 0.33718 0.12119 0.36457 0.0
H401 H 0.32225 0.03907 0.49721 0.0
H402 H 0.41006 0.20503 0.44683 0.0
H403 H 0.38214 0.18995 0.38138 0.0
H404 H 0.37658 0.21509 0.5389 0.0
H405 H 0.31686 0.27765 0.49673 0.0
H406 H 0.33827 0.21421 0.36312 0.0
C407 C 0.36519 0.13825 0.5069 0.0
C408 C 0.35039 0.09939 0.52436 0.0
C409 C 0.36006 0.14666 0.44936 0.0
C410 C 0.34059 0.11531 0.40927 0.0
C411 C 0.3277 0.07656 0.42642 0.0
C412 C 0.33244 0.06898 0.4839 0.0
C413 C 0.37952 0.18884 0.42928 0.0
C414 C 0.35849 0.21036 0.44901 0.0
C415 C 0.36104 0.2224 0.50726 0.0
C416 C 0.34521 0.24582 0.52447 0.0
C417 C 0.32811 0.25857 0.48342 0.0
C418 C 0.32558 0.24733 0.42541 0.0
C419 C 0.33988 0.22247 0.40826 0.0
H420 H 0.83033 0.12996 0.5639 0.0
H421 H 0.82376 0.09657 0.38563 0.0
H422 H 0.71842 0.053 0.48645 0.0
H423 H 0.8867 0.12899 0.50846 0.0
H424 H 0.88547 0.12847 0.43161 0.0
H425 H 0.8855 0.18572 0.56264 0.0
H426 H 0.96316 0.2963 0.486 0.0
H427 H 0.91861 0.18968 0.38538 0.0
C428 C 0.81309 0.11675 0.52521 0.0
C429 C 0.77208 0.09427 0.52984 0.0
C430 C 0.83193 0.11922 0.47264 0.0
C431 C 0.80919 0.09737 0.42493 0.0
C432 C 0.76835 0.07283 0.42979 0.0
C433 C 0.74963 0.07323 0.48137 0.0
C434 C 0.87622 0.13853 0.47049 0.0
C435 C 0.89627 0.18283 0.472 0.0
C436 C 0.89884 0.20239 0.52412 0.0
C437 C 0.92185 0.24327 0.52891 0.0
C438 C 0.94272 0.26509 0.48071 0.0
C439 C 0.94261 0.24576 0.42914 0.0
C440 C 0.91807 0.20481 0.42442 0.0
H441 H 0.05259 0.55342 0.14448 0.0
H442 H 0.07025 0.58484 0.32453 0.0
H443 H 0.00873 0.62459 0.2146 0.0
H444 H 0.10733 0.55388 0.20954 0.0
H445 H 0.10057 0.55119 0.2857 0.0
H446 H 0.05155 0.49865 0.14585 0.0
H447 H 0.01396 0.38516 0.21495 0.0
H448 H 0.07384 0.48768 0.3245 0.0
C449 C 0.0459 0.56521 0.18219 0.0
C450 C 0.02601 0.58617 0.1744 0.0
C451 C 0.05971 0.56221 0.23702 0.0
C452 C 0.05634 0.58366 0.28343 0.0
C453 C 0.03858 0.60677 0.27545 0.0
C454 C 0.02117 0.60574 0.22176 0.0
C455 C 0.08446 0.54266 0.24364 0.0
C456 C 0.06098 0.49824 0.23775 0.0
C457 C 0.04639 0.48068 0.18341 0.0
C458 C 0.02827 0.43996 0.17546 0.0
C459 C 0.02511 0.41626 0.22241 0.0
C460 C 0.04277 0.43344 0.27585 0.0
C461 C 0.05945 0.47427 0.28381 0.0
H462 H 0.5474 0.52422 0.16107 0.0
H463 H 0.55235 0.56306 0.33801 0.0
H464 H 0.62022 0.64515 0.20624 0.0
H465 H 0.53579 0.47997 0.25295 0.0
H466 H 0.52355 0.49461 0.31875 0.0
H467 H 0.49043 0.4712 0.16114 0.0
H468 H 0.3704 0.39802 0.2076 0.0
H469 H 0.45547 0.46444 0.33978 0.0
C470 C 0.55651 0.54725 0.19318 0.0
C471 C 0.58295 0.58594 0.17686 0.0
C472 C 0.54434 0.53837 0.25129 0.0
C473 C 0.55998 0.56925 0.29285 0.0
C474 C 0.58784 0.60764 0.27655 0.0
C475 C 0.59869 0.61558 0.2187 0.0
C476 C 0.52134 0.49587 0.27095 0.0
C477 C 0.47831 0.4732 0.2523 0.0
C478 C 0.46811 0.46178 0.19386 0.0
C479 C 0.4291 0.43542 0.1778 0.0
C480 C 0.40025 0.41945 0.22002 0.0
C481 C 0.40938 0.42981 0.2782 0.0
C482 C 0.44827 0.45729 0.29443 0.0
H483 H 0.51818 0.96448 0.14214 0.0
H484 H 0.52878 0.94177 0.32052 0.0
H485 H 0.63164 1.00108 0.21436 0.0
H486 H 0.46233 0.9091 0.20294 0.0
H487 H 0.46542 0.91433 0.27946 0.0
H488 H 0.46364 0.96504 0.1423 0.0
H489 H 0.39137 0.0066 0.21553 0.0
H490 H 0.43239 0.94451 0.32136 0.0
C491 C 0.53616 0.96941 0.18011 0.0
C492 C 0.57698 0.98738 0.17338 0.0
C493 C 0.51849 0.95487 0.23389 0.0
C494 C 0.54233 0.95615 0.28039 0.0
C495 C 0.58312 0.97242 0.27357 0.0
C496 C 0.60053 0.99014 0.22089 0.0
C497 C 0.47406 0.93126 0.23859 0.0
C498 C 0.45447 0.95605 0.23414 0.0
C499 C 0.45153 0.97084 0.1804 0.0
C500 C 0.43 0.99024 0.17394 0.0
C501 C 0.41053 0.9944 0.22178 0.0
C502 C 0.41009 0.97669 0.27462 0.0
C503 C 0.43329 0.95886 0.28111 0.0
H504 H 0.46636 0.97196 0.87217 0.0
H505 H 0.46909 0.0134 0.69868 0.0
H506 H 0.40424 0.03254 0.8318 0.0
H507 H 0.47775 0.94018 0.77973 0.0
H508 H 0.49149 0.96771 0.71478 0.0
H509 H 0.52208 0.9699 0.87085 0.0
H510 H 0.64407 0.02673 0.82877 0.0
H511 H 0.56005 0.01262 0.69775 0.0
C512 C 0.45928 0.98803 0.84127 0.0
C513 C 0.43561 0.00353 0.85877 0.0
C514 C 0.4721 0.99178 0.7835 0.0
C515 C 0.4604 0.01105 0.74352 0.0
C516 C 0.43536 0.02505 0.76084 0.0
C517 C 0.42341 0.02146 0.81837 0.0
C518 C 0.49325 0.97062 0.76272 0.0
C519 C 0.53581 0.99002 0.78235 0.0
C520 C 0.54509 0.98548 0.83972 0.0
C521 C 0.5842 0.99968 0.85661 0.0
C522 C 0.614 0.01695 0.81587 0.0
C523 C 0.60563 0.02183 0.75876 0.0
C524 C 0.5666 0.00926 0.74217 0.0
H525 H 0.04813 0.49495 0.87119 0.0
H526 H 1.00382 0.45449 0.69793 0.0
H527 H 0.98883 0.37236 0.83059 0.0
H528 H 0.07669 0.53831 0.7802 0.0
H529 H 0.04878 0.52325 0.71474 0.0
H530 H 0.04323 0.5484 0.87226 0.0
H531 H 0.98354 0.61099 0.83007 0.0
H532 H 1.00492 0.54751 0.69648 0.0
C533 C 0.0318 0.47154 0.84027 0.0
C534 C 0.01698 0.43268 0.85773 0.0
C535 C 0.02668 0.47995 0.78273 0.0
C536 C 0.00721 0.44861 0.74263 0.0
C537 C 0.99431 0.40986 0.75978 0.0
C538 C 0.99903 0.40227 0.81727 0.0
C539 C 0.04615 0.52214 0.76263 0.0
C540 C 0.02513 0.54366 0.78237 0.0
C541 C 0.02769 0.55572 0.84061 0.0
C542 C 0.01188 0.57914 0.85781 0.0
C543 C 0.99478 0.59191 0.81677 0.0
C544 C 0.99225 0.58065 0.75875 0.0
C545 C 0.00654 0.55578 0.74161 0.0
H546 H 0.49702 0.46331 0.89723 0.0
H547 H 0.49043 0.42992 0.71897 0.0
H548 H 0.3851 0.38634 0.8198 0.0
H549 H 0.55338 0.46235 0.84178 0.0
H550 H 0.55215 0.46183 0.76494 0.0
H551 H 0.55217 0.51908 0.89595 0.0
H552 H 0.62984 0.62965 0.81931 0.0
H553 H 0.58529 0.52303 0.7187 0.0
C554 C 0.47977 0.45009 0.85854 0.0
C555 C 0.43877 0.42762 0.86318 0.0
C556 C 0.49861 0.45257 0.80598 0.0
C557 C 0.47587 0.43072 0.75826 0.0
C558 C 0.43503 0.40618 0.76313 0.0
C559 C 0.41631 0.40658 0.81471 0.0
C560 C 0.5429 0.47189 0.80381 0.0
C561 C 0.56295 0.51618 0.80532 0.0
C562 C 0.56551 0.53574 0.85744 0.0
C563 C 0.58852 0.57663 0.86223 0.0
C564 C 0.6094 0.59844 0.81402 0.0
C565 C 0.60929 0.57911 0.76246 0.0
C566 C 0.58475 0.53816 0.75774 0.0
H567 H 0.71927 0.88676 0.4778 0.0
H568 H 0.73693 0.91819 0.65785 0.0
H569 H 0.67539 0.95791 0.54792 0.0
H570 H 0.77402 0.88725 0.54286 0.0
H571 H 0.76726 0.88455 0.61902 0.0
H572 H 0.71828 0.83201 0.47916 0.0
H573 H 0.68067 0.71852 0.54825 0.0
H574 H 0.74053 0.82104 0.65782 0.0
C575 C 0.71258 0.89855 0.51551 0.0
C576 C 0.69268 0.9195 0.50772 0.0
C577 C 0.7264 0.89555 0.57034 0.0
C578 C 0.72302 0.917 0.61674 0.0
C579 C 0.70525 0.9401 0.60877 0.0
C580 C 0.68783 0.93907 0.55507 0.0
C581 C 0.75116 0.87602 0.57696 0.0
C582 C 0.72768 0.8316 0.57106 0.0
C583 C 0.71311 0.81405 0.51671 0.0
C584 C 0.69499 0.77333 0.50876 0.0
C585 C 0.69183 0.74962 0.55571 0.0
C586 C 0.70948 0.7668 0.60916 0.0
C587 C 0.72615 0.80763 0.61712 0.0
H588 H 0.21407 0.85757 0.49441 0.0
H589 H 0.21902 0.8964 0.67135 0.0
H590 H 0.28687 0.97849 0.53957 0.0
H591 H 0.20247 0.81332 0.58629 0.0
H592 H 0.19023 0.82795 0.65209 0.0
H593 H 0.15711 0.80453 0.49448 0.0
H594 H 0.03708 0.73133 0.54095 0.0
H595 H 0.12215 0.79777 0.67312 0.0
C596 C 0.22317 0.8806 0.52651 0.0
C597 C 0.24961 0.91928 0.51019 0.0
C598 C 0.21101 0.87171 0.58463 0.0
C599 C 0.22665 0.90259 0.62618 0.0
C600 C 0.2545 0.94098 0.60988 0.0
C601 C 0.26534 0.94892 0.55203 0.0
C602 C 0.18802 0.82921 0.60429 0.0
C603 C 0.14499 0.80653 0.58564 0.0
C604 C 0.13479 0.79511 0.5272 0.0
C605 C 0.09578 0.76874 0.51114 0.0
C606 C 0.06693 0.75277 0.55336 0.0
C607 C 0.07606 0.76313 0.61155 0.0
C608 C 0.11495 0.79062 0.62777 0.0
H609 H 0.18487 0.29784 0.47549 0.0
H610 H 0.19547 0.27512 0.65386 0.0
H611 H 0.29832 0.33444 0.5477 0.0
H612 H 0.12902 0.24245 0.53628 0.0
H613 H 0.1321 0.24768 0.61281 0.0
H614 H 0.13031 0.29838 0.47565 0.0
H615 H 0.05803 0.33993 0.54888 0.0
H616 H 0.09908 0.27785 0.65471 0.0
C617 C 0.20285 0.30277 0.51346 0.0
C618 C 0.24367 0.32074 0.50673 0.0
C619 C 0.18518 0.28823 0.56724 0.0
C620 C 0.20901 0.28951 0.61374 0.0
C621 C 0.24981 0.30578 0.60691 0.0
C622 C 0.26721 0.3235 0.55424 0.0
C623 C 0.14075 0.26461 0.57193 0.0
C624 C 0.12115 0.28939 0.56749 0.0
C625 C 0.1182 0.30418 0.51375 0.0
C626 C 0.09666 0.32357 0.50729 0.0
C627 C 0.07719 0.32773 0.55513 0.0
C628 C 0.07676 0.31003 0.60797 0.0
C629 C 0.09996 0.2922 0.61446 0.0
loop_
_geom_bond_atom_site_label_1
_geom_bond_atom_site_label_2
_geom_bond_distance
_geom_bond_site_symmetry_2
_ccdc_geom_bond_type
O0 Cd1 2.223 . S
O0 C8 1.315 . S
Cd1 O0 2.223 . S
Cd1 O4 2.297 . S
Cd1 O5 2.439 . S
Cd1 O11 2.240 1_554 S
Cd2 O3 2.240 . S
Cd2 O10 2.223 1_554 S
Cd2 O12 2.297 1_554 S
Cd2 O13 2.439 1_554 S
O3 Cd2 2.240 . S
O3 C8 1.279 1_655 S
O4 Cd1 2.297 . S
O4 C6 1.247 . S
O5 Cd1 2.439 . S
O5 C6 1.208 . S
C6 O4 1.247 . S
C6 O5 1.208 . S
C7 O12 1.247 . S
C7 O13 1.208 . S
C8 O0 1.315 . S
C8 O3 1.279 1_455 S
C9 O10 1.315 . S
C9 O11 1.279 1_655 S
O10 Cd2 2.223 1_556 S
O10 C9 1.315 . S
O11 Cd1 2.240 1_556 S
O11 C9 1.279 1_455 S
O12 Cd2 2.297 1_556 S
O12 C7 1.247 . S
O13 Cd2 2.439 1_556 S
O13 C7 1.208 . S
O14 Cd15 2.223 . S
O14 C22 1.315 . S
Cd15 O14 2.223 . S
Cd15 O18 2.297 . S
Cd15 O19 2.439 . S
Cd15 O25 2.240 1_554 S
Cd16 O17 2.240 . S
Cd16 O24 2.223 1_554 S
Cd16 O26 2.297 1_554 S
Cd16 O27 2.439 1_554 S
O17 Cd16 2.240 . S
O17 C22 1.279 . S
O18 Cd15 2.297 . S
O18 C20 1.247 . S
O19 Cd15 2.439 . S
O19 C20 1.208 . S
C20 O18 1.247 . S
C20 O19 1.208 . S
C21 O26 1.247 . S
C21 O27 1.208 . S
C22 O14 1.315 . S
C22 O17 1.279 . S
C23 O24 1.315 . S
C23 O25 1.279 . S
O24 Cd16 2.223 1_556 S
O24 C23 1.315 . S
O25 Cd15 2.240 1_556 S
O25 C23 1.279 . S
O26 Cd16 2.297 1_556 S
O26 C21 1.247 . S
O27 Cd16 2.439 1_556 S
O27 C21 1.208 . S
O28 Cd29 2.223 1_556 S
O28 C36 1.315 . S
Cd29 O28 2.223 1_554 S
Cd29 O32 2.297 1_554 S
Cd29 O33 2.439 1_554 S
Cd29 O39 2.240 . S
Cd30 O31 2.240 1_554 S
Cd30 O38 2.223 . S
Cd30 O40 2.297 . S
Cd30 O41 2.439 . S
O31 Cd30 2.240 1_556 S
O31 C36 1.279 1_565 S
O32 Cd29 2.297 1_556 S
O32 C34 1.247 . S
O33 Cd29 2.439 1_556 S
O33 C34 1.208 . S
C34 O32 1.247 . S
C34 O33 1.208 . S
C35 O40 1.247 . S
C35 O41 1.208 . S
C36 O28 1.315 . S
C36 O31 1.279 1_545 S
C37 O38 1.315 . S
C37 O39 1.279 1_565 S
O38 Cd30 2.223 . S
O38 C37 1.315 . S
O39 Cd29 2.240 . S
O39 C37 1.279 1_545 S
O40 Cd30 2.297 . S
O40 C35 1.247 . S
O41 Cd30 2.439 . S
O41 C35 1.208 . S
O42 Cd43 2.223 1_556 S
O42 C50 1.315 . S
Cd43 O42 2.223 1_554 S
Cd43 O46 2.297 1_554 S
Cd43 O47 2.439 1_554 S
Cd43 O53 2.240 . S
Cd44 O45 2.240 1_554 S
Cd44 O52 2.223 . S
Cd44 O54 2.297 . S
Cd44 O55 2.439 . S
O45 Cd44 2.240 1_556 S
O45 C50 1.279 1_455 S
O46 Cd43 2.297 1_556 S
O46 C48 1.247 . S
O47 Cd43 2.439 1_556 S
O47 C48 1.208 . S
C48 O46 1.247 . S
C48 O47 1.208 . S
C49 O54 1.247 . S
C49 O55 1.208 . S
C50 O42 1.315 . S
C50 O45 1.279 1_655 S
C51 O52 1.315 . S
C51 O53 1.279 1_455 S
O52 Cd44 2.223 . S
O52 C51 1.315 . S
O53 Cd43 2.240 . S
O53 C51 1.279 1_655 S
O54 Cd44 2.297 . S
O54 C49 1.247 . S
O55 Cd44 2.439 . S
O55 C49 1.208 . S
O56 Cd57 2.223 1_556 S
O56 C64 1.315 . S
Cd57 O56 2.223 1_554 S
Cd57 O60 2.297 1_554 S
Cd57 O61 2.439 1_554 S
Cd57 O67 2.240 . S
Cd58 O59 2.240 1_554 S
Cd58 O66 2.223 . S
Cd58 O68 2.297 . S
Cd58 O69 2.439 . S
O59 Cd58 2.240 1_556 S
O59 C64 1.279 . S
O60 Cd57 2.297 1_556 S
O60 C62 1.247 . S
O61 Cd57 2.439 1_556 S
O61 C62 1.208 . S
C62 O60 1.247 . S
C62 O61 1.208 . S
C63 O68 1.247 . S
C63 O69 1.208 . S
C64 O56 1.315 . S
C64 O59 1.279 . S
C65 O66 1.315 . S
C65 O67 1.279 . S
O66 Cd58 2.223 . S
O66 C65 1.315 . S
O67 Cd57 2.240 . S
O67 C65 1.279 . S
O68 Cd58 2.297 . S
O68 C63 1.247 . S
O69 Cd58 2.439 . S
O69 C63 1.208 . S
O70 Cd71 2.223 . S
O70 C78 1.315 . S
Cd71 O70 2.223 . S
Cd71 O74 2.297 . S
Cd71 O75 2.439 . S
Cd71 O81 2.240 1_554 S
Cd72 O73 2.240 . S
Cd72 O80 2.223 1_554 S
Cd72 O82 2.297 1_554 S
Cd72 O83 2.439 1_554 S
O73 Cd72 2.240 . S
O73 C78 1.279 1_545 S
O74 Cd71 2.297 . S
O74 C76 1.247 . S
O75 Cd71 2.439 . S
O75 C76 1.208 . S
C76 O74 1.247 . S
C76 O75 1.208 . S
C77 O82 1.247 . S
C77 O83 1.208 . S
C78 O70 1.315 . S
C78 O73 1.279 1_565 S
C79 O80 1.315 . S
C79 O81 1.279 1_545 S
O80 Cd72 2.223 1_556 S
O80 C79 1.315 . S
O81 Cd71 2.240 1_556 S
O81 C79 1.279 1_565 S
O82 Cd72 2.297 1_556 S
O82 C77 1.247 . S
O83 Cd72 2.439 1_556 S
O83 C77 1.208 . S
O84 Cd85 2.223 . S
O84 C92 1.315 . S
Cd85 O84 2.223 . S
Cd85 O88 2.297 . S
Cd85 O89 2.439 . S
Cd85 O95 2.240 . S
Cd86 O87 2.240 . S
Cd86 O94 2.223 . S
Cd86 O96 2.297 . S
Cd86 O97 2.439 . S
O87 Cd86 2.240 . S
O87 C92 1.279 . S
O88 Cd85 2.297 . S
O88 C90 1.247 . S
O89 Cd85 2.439 . S
O89 C90 1.208 . S
C90 O88 1.247 . S
C90 O89 1.208 . S
C91 O96 1.247 . S
C91 O97 1.208 . S
C92 O84 1.315 . S
C92 O87 1.279 . S
C93 O94 1.315 . S
C93 O95 1.279 . S
O94 Cd86 2.223 . S
O94 C93 1.315 . S
O95 Cd85 2.240 . S
O95 C93 1.279 . S
O96 Cd86 2.297 . S
O96 C91 1.247 . S
O97 Cd86 2.439 . S
O97 C91 1.208 . S
O98 Cd99 2.223 1_565 S
O98 C106 1.315 . S
Cd99 O98 2.223 1_545 S
Cd99 O102 2.297 . S
Cd99 O103 2.439 . S
Cd99 O109 2.240 1_545 S
Cd100 O101 2.240 . S
Cd100 O108 2.223 . S
Cd100 O110 2.297 . S
Cd100 O111 2.439 1_565 S
O101 Cd100 2.240 . S
O101 C106 1.279 . S
O102 Cd99 2.297 . S
O102 C104 1.247 . S
O103 Cd99 2.439 . S
O103 C104 1.208 . S
C104 O102 1.247 . S
C104 O103 1.208 . S
C105 O110 1.247 . S
C105 O111 1.208 1_565 S
C106 O98 1.315 . S
C106 O101 1.279 . S
C107 O108 1.315 . S
C107 O109 1.279 . S
O108 Cd100 2.223 . S
O108 C107 1.315 . S
O109 Cd99 2.240 1_565 S
O109 C107 1.279 . S
O110 Cd100 2.297 . S
O110 C105 1.247 . S
O111 Cd100 2.439 1_545 S
O111 C105 1.208 1_545 S
O112 Cd113 2.223 . S
O112 C120 1.315 . S
Cd113 O112 2.223 . S
Cd113 O116 2.297 . S
Cd113 O117 2.439 . S
Cd113 O123 2.240 . S
Cd114 O115 2.240 . S
Cd114 O122 2.223 . S
Cd114 O124 2.297 1_455 S
Cd114 O125 2.439 1_455 S
O115 Cd114 2.240 . S
O115 C120 1.279 . S
O116 Cd113 2.297 . S
O116 C118 1.247 . S
O117 Cd113 2.439 . S
O117 C118 1.208 . S
C118 O116 1.247 . S
C118 O117 1.208 . S
C119 O124 1.247 . S
C119 O125 1.208 . S
C120 O112 1.315 . S
C120 O115 1.279 . S
C121 O122 1.315 . S
C121 O123 1.279 . S
O122 Cd114 2.223 . S
O122 C121 1.315 . S
O123 Cd113 2.240 . S
O123 C121 1.279 . S
O124 Cd114 2.297 1_655 S
O124 C119 1.247 . S
O125 Cd114 2.439 1_655 S
O125 C119 1.208 . S
O126 Cd127 2.223 . S
O126 C134 1.315 . S
Cd127 O126 2.223 . S
Cd127 O130 2.297 . S
Cd127 O131 2.439 1_565 S
Cd127 O137 2.240 . S
Cd128 O129 2.240 1_545 S
Cd128 O136 2.223 1_545 S
Cd128 O138 2.297 . S
Cd128 O139 2.439 . S
O129 Cd128 2.240 1_565 S
O129 C134 1.279 . S
O130 Cd127 2.297 . S
O130 C132 1.247 . S
O131 Cd127 2.439 1_545 S
O131 C132 1.208 1_545 S
C132 O130 1.247 . S
C132 O131 1.208 1_565 S
C133 O138 1.247 . S
C133 O139 1.208 . S
C134 O126 1.315 . S
C134 O129 1.279 . S
C135 O136 1.315 . S
C135 O137 1.279 . S
O136 Cd128 2.223 1_565 S
O136 C135 1.315 . S
O137 Cd127 2.240 . S
O137 C135 1.279 . S
O138 Cd128 2.297 . S
O138 C133 1.247 . S
O139 Cd128 2.439 . S
O139 C133 1.208 . S
O140 Cd141 2.223 . S
O140 C148 1.315 . S
Cd141 O140 2.223 . S
Cd141 O144 2.297 . S
Cd141 O145 2.439 . S
Cd141 O151 2.240 . S
Cd142 O143 2.240 . S
Cd142 O150 2.223 . S
Cd142 O152 2.297 1_455 S
Cd142 O153 2.439 1_455 S
O143 Cd142 2.240 . S
O143 C148 1.279 . S
O144 Cd141 2.297 . S
O144 C146 1.247 . S
O145 Cd141 2.439 . S
O145 C146 1.208 . S
C146 O144 1.247 . S
C146 O145 1.208 . S
C147 O152 1.247 . S
C147 O153 1.208 . S
C148 O140 1.315 . S
C148 O143 1.279 . S
C149 O150 1.315 . S
C149 O151 1.279 . S
O150 Cd142 2.223 . S
O150 C149 1.315 . S
O151 Cd141 2.240 . S
O151 C149 1.279 . S
O152 Cd142 2.297 1_655 S
O152 C147 1.247 . S
O153 Cd142 2.439 1_655 S
O153 C147 1.208 . S
O154 Cd155 2.223 . S
O154 C162 1.315 . S
Cd155 O154 2.223 . S
Cd155 O158 2.297 . S
Cd155 O159 2.439 . S
Cd155 O165 2.240 . S
Cd156 O157 2.240 . S
Cd156 O164 2.223 . S
Cd156 O166 2.297 . S
Cd156 O167 2.439 . S
O157 Cd156 2.240 . S
O157 C162 1.279 . S
O158 Cd155 2.297 . S
O158 C160 1.247 . S
O159 Cd155 2.439 . S
O159 C160 1.208 . S
C160 O158 1.247 . S
C160 O159 1.208 . S
C161 O166 1.247 . S
C161 O167 1.208 . S
C162 O154 1.315 . S
C162 O157 1.279 . S
C163 O164 1.315 . S
C163 O165 1.279 . S
O164 Cd156 2.223 . S
O164 C163 1.315 . S
O165 Cd155 2.240 . S
O165 C163 1.279 . S
O166 Cd156 2.297 . S
O166 C161 1.247 . S
O167 Cd156 2.439 . S
O167 C161 1.208 . S
O168 Cd169 2.223 . S
O168 C176 1.315 . S
Cd169 O168 2.223 . S
Cd169 O172 2.297 . S
Cd169 O173 2.439 . S
Cd169 O179 2.240 . S
Cd170 O171 2.240 . S
Cd170 O178 2.223 . S
Cd170 O180 2.297 1_545 S
Cd170 O181 2.439 1_545 S
O171 Cd170 2.240 . S
O171 C176 1.279 . S
O172 Cd169 2.297 . S
O172 C174 1.247 . S
O173 Cd169 2.439 . S
O173 C174 1.208 . S
C174 O172 1.247 . S
C174 O173 1.208 . S
C175 O180 1.247 . S
C175 O181 1.208 . S
C176 O168 1.315 . S
C176 O171 1.279 . S
C177 O178 1.315 . S
C177 O179 1.279 . S
O178 Cd170 2.223 . S
O178 C177 1.315 . S
O179 Cd169 2.240 . S
O179 C177 1.279 . S
O180 Cd170 2.297 1_565 S
O180 C175 1.247 . S
O181 Cd170 2.439 1_565 S
O181 C175 1.208 . S
O182 Cd183 2.223 . S
O182 C190 1.315 . S
Cd183 O182 2.223 . S
Cd183 O186 2.297 . S
Cd183 O187 2.439 1_655 S
Cd183 O193 2.240 . S
Cd184 O185 2.240 1_455 S
Cd184 O192 2.223 1_455 S
Cd184 O194 2.297 . S
Cd184 O195 2.439 . S
O185 Cd184 2.240 1_655 S
O185 C190 1.279 . S
O186 Cd183 2.297 . S
O186 C188 1.247 . S
O187 Cd183 2.439 1_455 S
O187 C188 1.208 1_455 S
C188 O186 1.247 . S
C188 O187 1.208 1_655 S
C189 O194 1.247 . S
C189 O195 1.208 . S
C190 O182 1.315 . S
C190 O185 1.279 . S
C191 O192 1.315 . S
C191 O193 1.279 . S
O192 Cd184 2.223 1_655 S
O192 C191 1.315 . S
O193 Cd183 2.240 . S
O193 C191 1.279 . S
O194 Cd184 2.297 . S
O194 C189 1.247 . S
O195 Cd184 2.439 . S
O195 C189 1.208 . S
O196 Cd197 2.223 . S
O196 C204 1.315 . S
Cd197 O196 2.223 . S
Cd197 O200 2.297 . S
Cd197 O201 2.439 . S
Cd197 O207 2.240 . S
Cd198 O199 2.240 . S
Cd198 O206 2.223 . S
Cd198 O208 2.297 . S
Cd198 O209 2.439 . S
O199 Cd198 2.240 . S
O199 C204 1.279 . S
O200 Cd197 2.297 . S
O200 C202 1.247 . S
O201 Cd197 2.439 . S
O201 C202 1.208 . S
C202 O200 1.247 . S
C202 O201 1.208 . S
C203 O208 1.247 . S
C203 O209 1.208 . S
C204 O196 1.315 . S
C204 O199 1.279 . S
C205 O206 1.315 . S
C205 O207 1.279 . S
O206 Cd198 2.223 . S
O206 C205 1.315 . S
O207 Cd197 2.240 . S
O207 C205 1.279 . S
O208 Cd198 2.297 . S
O208 C203 1.247 . S
O209 Cd198 2.439 . S
O209 C203 1.208 . S
O210 Cd211 2.223 . S
O210 C218 1.315 . S
Cd211 O210 2.223 . S
Cd211 O214 2.297 . S
Cd211 O215 2.439 . S
Cd211 O221 2.240 . S
Cd212 O213 2.240 . S
Cd212 O220 2.223 . S
Cd212 O222 2.297 . S
Cd212 O223 2.439 . S
O213 Cd212 2.240 . S
O213 C218 1.279 . S
O214 Cd211 2.297 . S
O214 C216 1.247 . S
O215 Cd211 2.439 . S
O215 C216 1.208 . S
C216 O214 1.247 . S
C216 O215 1.208 . S
C217 O222 1.247 . S
C217 O223 1.208 . S
C218 O210 1.315 . S
C218 O213 1.279 . S
C219 O220 1.315 . S
C219 O221 1.279 . S
O220 Cd212 2.223 . S
O220 C219 1.315 . S
O221 Cd211 2.240 . S
O221 C219 1.279 . S
O222 Cd212 2.297 . S
O222 C217 1.247 . S
O223 Cd212 2.439 . S
O223 C217 1.208 . S
O224 Cd225 2.223 . S
O224 C232 1.315 . S
Cd225 O224 2.223 . S
Cd225 O228 2.297 1_545 S
Cd225 O229 2.439 1_545 S
Cd225 O235 2.240 . S
Cd226 O227 2.240 . S
Cd226 O234 2.223 . S
Cd226 O236 2.297 . S
Cd226 O237 2.439 . S
O227 Cd226 2.240 . S
O227 C232 1.279 . S
O228 Cd225 2.297 1_565 S
O228 C230 1.247 . S
O229 Cd225 2.439 1_565 S
O229 C230 1.208 . S
C230 O228 1.247 . S
C230 O229 1.208 . S
C231 O236 1.247 . S
C231 O237 1.208 . S
C232 O224 1.315 . S
C232 O227 1.279 . S
C233 O234 1.315 . S
C233 O235 1.279 . S
O234 Cd226 2.223 . S
O234 C233 1.315 . S
O235 Cd225 2.240 . S
O235 C233 1.279 . S
O236 Cd226 2.297 . S
O236 C231 1.247 . S
O237 Cd226 2.439 . S
O237 C231 1.208 . S
O238 Cd239 2.223 . S
O238 C246 1.315 . S
Cd239 O238 2.223 . S
Cd239 O242 2.297 . S
Cd239 O243 2.439 1_655 S
Cd239 O249 2.240 . S
Cd240 O241 2.240 1_455 S
Cd240 O248 2.223 1_455 S
Cd240 O250 2.297 . S
Cd240 O251 2.439 . S
O241 Cd240 2.240 1_655 S
O241 C246 1.279 . S
O242 Cd239 2.297 . S
O242 C244 1.247 . S
O243 Cd239 2.439 1_455 S
O243 C244 1.208 1_455 S
C244 O242 1.247 . S
C244 O243 1.208 1_655 S
C245 O250 1.247 . S
C245 O251 1.208 . S
C246 O238 1.315 . S
C246 O241 1.279 . S
C247 O248 1.315 . S
C247 O249 1.279 . S
O248 Cd240 2.223 1_655 S
O248 C247 1.315 . S
O249 Cd239 2.240 . S
O249 C247 1.279 . S
O250 Cd240 2.297 . S
O250 C245 1.247 . S
O251 Cd240 2.439 . S
O251 C245 1.208 . S
H252 C260 0.930 . S
H253 C263 0.930 . S
H254 C265 0.930 . S
H255 C266 0.970 . S
H256 C266 0.970 . S
H257 C268 0.930 . S
H258 C270 0.930 . S
H259 C272 0.930 . S
C260 H252 0.930 . S
C260 C261 1.382 . S
C260 C262 1.426 . S
C261 C260 1.382 . S
C261 C265 1.389 . S
C262 C260 1.426 . S
C262 C263 1.375 . S
C262 C266 1.532 . S
C263 H253 0.930 . S
C263 C262 1.375 . S
C263 C264 1.416 . S
C264 C263 1.416 . S
C264 C265 1.371 . S
C265 H254 0.930 . S
C265 C261 1.389 . S
C265 C264 1.371 . S
C266 H255 0.970 . S
C266 H256 0.970 . S
C266 C262 1.532 . S
C266 C267 1.499 . S
C267 C266 1.499 . S
C267 C268 1.370 . S
C267 C272 1.415 . S
C268 H257 0.930 . S
C268 C267 1.370 . S
C268 C269 1.407 . S
C269 C268 1.407 . S
C269 C270 1.365 . S
C270 H258 0.930 . S
C270 C269 1.365 . S
C270 C271 1.393 . S
C271 C270 1.393 . S
C271 C272 1.387 . S
C272 H259 0.930 . S
C272 C267 1.415 . S
C272 C271 1.387 . S
H273 C281 0.930 . S
H274 C284 0.930 . S
H275 C286 0.930 . S
H276 C287 0.970 . S
H277 C287 0.970 . S
H278 C289 0.930 . S
H279 C291 0.930 . S
H280 C293 0.930 . S
C281 H273 0.930 . S
C281 C282 1.382 . S
C281 C283 1.426 . S
C282 C281 1.382 . S
C282 C286 1.389 . S
C283 C281 1.426 . S
C283 C284 1.375 . S
C283 C287 1.532 . S
C284 H274 0.930 . S
C284 C283 1.375 . S
C284 C285 1.416 . S
C285 C284 1.416 . S
C285 C286 1.371 . S
C286 H275 0.930 . S
C286 C282 1.389 . S
C286 C285 1.371 . S
C287 H276 0.970 . S
C287 H277 0.970 . S
C287 C283 1.532 . S
C287 C288 1.499 . S
C288 C287 1.499 . S
C288 C289 1.370 . S
C288 C293 1.415 . S
C289 H278 0.930 . S
C289 C288 1.370 . S
C289 C290 1.407 . S
C290 C289 1.407 . S
C290 C291 1.365 . S
C291 H279 0.930 . S
C291 C290 1.365 . S
C291 C292 1.393 . S
C292 C291 1.393 . S
C292 C293 1.387 . S
C293 H280 0.930 . S
C293 C288 1.415 . S
C293 C292 1.387 . S
H294 C302 0.930 . S
H295 C305 0.930 . S
H296 C307 0.930 . S
H297 C308 0.970 . S
H298 C308 0.970 . S
H299 C310 0.930 . S
H300 C312 0.930 . S
H301 C314 0.930 . S
C302 H294 0.930 . S
C302 C303 1.382 . S
C302 C304 1.426 . S
C303 C302 1.382 . S
C303 C307 1.389 . S
C304 C302 1.426 . S
C304 C305 1.375 . S
C304 C308 1.532 . S
C305 H295 0.930 . S
C305 C304 1.375 . S
C305 C306 1.416 . S
C306 C305 1.416 . S
C306 C307 1.371 . S
C307 H296 0.930 . S
C307 C303 1.389 . S
C307 C306 1.371 . S
C308 H297 0.970 . S
C308 H298 0.970 . S
C308 C304 1.532 . S
C308 C309 1.499 . S
C309 C308 1.499 . S
C309 C310 1.370 . S
C309 C314 1.415 . S
C310 H299 0.930 . S
C310 C309 1.370 . S
C310 C311 1.407 . S
C311 C310 1.407 . S
C311 C312 1.365 . S
C312 H300 0.930 . S
C312 C311 1.365 . S
C312 C313 1.393 . S
C313 C312 1.393 . S
C313 C314 1.387 . S
C314 H301 0.930 . S
C314 C309 1.415 . S
C314 C313 1.387 . S
H315 C323 0.930 . S
H316 C326 0.930 . S
H317 C328 0.930 . S
H318 C329 0.970 . S
H319 C329 0.970 . S
H320 C331 0.930 . S
H321 C333 0.930 . S
H322 C335 0.930 . S
C323 H315 0.930 . S
C323 C324 1.382 . S
C323 C325 1.426 . S
C324 C323 1.382 . S
C324 C328 1.389 . S
C325 C323 1.426 . S
C325 C326 1.375 . S
C325 C329 1.532 . S
C326 H316 0.930 . S
C326 C325 1.375 . S
C326 C327 1.416 . S
C327 C326 1.416 . S
C327 C328 1.371 . S
C328 H317 0.930 . S
C328 C324 1.389 . S
C328 C327 1.371 . S
C329 H318 0.970 . S
C329 H319 0.970 . S
C329 C325 1.532 . S
C329 C330 1.499 . S
C330 C329 1.499 . S
C330 C331 1.370 . S
C330 C335 1.415 . S
C331 H320 0.930 . S
C331 C330 1.370 . S
C331 C332 1.407 . S
C332 C331 1.407 . S
C332 C333 1.365 . S
C333 H321 0.930 . S
C333 C332 1.365 . S
C333 C334 1.393 . S
C334 C333 1.393 . S
C334 C335 1.387 . S
C335 H322 0.930 . S
C335 C330 1.415 . S
C335 C334 1.387 . S
H336 C344 0.930 . S
H337 C347 0.930 . S
H338 C349 0.930 . S
H339 C350 0.970 . S
H340 C350 0.970 . S
H341 C352 0.930 . S
H342 C354 0.930 . S
H343 C356 0.930 . S
C344 H336 0.930 . S
C344 C345 1.382 . S
C344 C346 1.426 . S
C345 C344 1.382 . S
C345 C349 1.389 . S
C346 C344 1.426 . S
C346 C347 1.375 . S
C346 C350 1.532 . S
C347 H337 0.930 . S
C347 C346 1.375 . S
C347 C348 1.416 . S
C348 C347 1.416 . S
C348 C349 1.371 . S
C349 H338 0.930 . S
C349 C345 1.389 . S
C349 C348 1.371 . S
C350 H339 0.970 . S
C350 H340 0.970 . S
C350 C346 1.532 . S
C350 C351 1.499 . S
C351 C350 1.499 . S
C351 C352 1.370 . S
C351 C356 1.415 . S
C352 H341 0.930 . S
C352 C351 1.370 . S
C352 C353 1.407 . S
C353 C352 1.407 . S
C353 C354 1.365 . S
C354 H342 0.930 . S
C354 C353 1.365 . S
C354 C355 1.393 . S
C355 C354 1.393 . S
C355 C356 1.387 . S
C356 H343 0.930 . S
C356 C351 1.415 . S
C356 C355 1.387 . S
H357 C365 0.930 . S
H358 C368 0.930 . S
H359 C370 0.930 . S
H360 C371 0.970 . S
H361 C371 0.970 . S
H362 C373 0.930 . S
H363 C375 0.930 . S
H364 C377 0.930 . S
C365 H357 0.930 . S
C365 C366 1.382 . S
C365 C367 1.426 . S
C366 C365 1.382 . S
C366 C370 1.389 . S
C367 C365 1.426 . S
C367 C368 1.375 . S
C367 C371 1.532 . S
C368 H358 0.930 . S
C368 C367 1.375 . S
C368 C369 1.416 . S
C369 C368 1.416 . S
C369 C370 1.371 . S
C370 H359 0.930 . S
C370 C366 1.389 . S
C370 C369 1.371 . S
C371 H360 0.970 . S
C371 H361 0.970 . S
C371 C367 1.532 . S
C371 C372 1.499 . S
C372 C371 1.499 . S
C372 C373 1.370 . S
C372 C377 1.415 . S
C373 H362 0.930 . S
C373 C372 1.370 . S
C373 C374 1.407 . S
C374 C373 1.407 . S
C374 C375 1.365 . S
C375 H363 0.930 . S
C375 C374 1.365 . S
C375 C376 1.393 . S
C376 C375 1.393 . S
C376 C377 1.387 . S
C377 H364 0.930 . S
C377 C372 1.415 . S
C377 C376 1.387 . S
H378 C386 0.930 . S
H379 C389 0.930 . S
H380 C391 0.930 . S
H381 C392 0.970 . S
H382 C392 0.970 . S
H383 C394 0.930 . S
H384 C396 0.930 . S
H385 C398 0.930 . S
C386 H378 0.930 . S
C386 C387 1.382 . S
C386 C388 1.426 . S
C387 C386 1.382 . S
C387 C391 1.389 . S
C388 C386 1.426 . S
C388 C389 1.375 . S
C388 C392 1.532 . S
C389 H379 0.930 . S
C389 C388 1.375 . S
C389 C390 1.416 . S
C390 C389 1.416 . S
C390 C391 1.371 . S
C391 H380 0.930 . S
C391 C387 1.389 . S
C391 C390 1.371 . S
C392 H381 0.970 . S
C392 H382 0.970 . S
C392 C388 1.532 . S
C392 C393 1.499 . S
C393 C392 1.499 . S
C393 C394 1.370 . S
C393 C398 1.415 . S
C394 H383 0.930 . S
C394 C393 1.370 . S
C394 C395 1.407 . S
C395 C394 1.407 . S
C395 C396 1.365 . S
C396 H384 0.930 . S
C396 C395 1.365 . S
C396 C397 1.393 . S
C397 C396 1.393 . S
C397 C398 1.387 . S
C398 H385 0.930 . S
C398 C393 1.415 . S
C398 C397 1.387 . S
H399 C407 0.930 . S
H400 C410 0.930 . S
H401 C412 0.930 . S
H402 C413 0.970 . S
H403 C413 0.970 . S
H404 C415 0.930 . S
H405 C417 0.930 . S
H406 C419 0.930 . S
C407 H399 0.930 . S
C407 C408 1.382 . S
C407 C409 1.426 . S
C408 C407 1.382 . S
C408 C412 1.389 . S
C409 C407 1.426 . S
C409 C410 1.375 . S
C409 C413 1.532 . S
C410 H400 0.930 . S
C410 C409 1.375 . S
C410 C411 1.416 . S
C411 C410 1.416 . S
C411 C412 1.371 . S
C412 H401 0.930 . S
C412 C408 1.389 . S
C412 C411 1.371 . S
C413 H402 0.970 . S
C413 H403 0.970 . S
C413 C409 1.532 . S
C413 C414 1.499 . S
C414 C413 1.499 . S
C414 C415 1.370 . S
C414 C419 1.415 . S
C415 H404 0.930 . S
C415 C414 1.370 . S
C415 C416 1.407 . S
C416 C415 1.407 . S
C416 C417 1.365 . S
C417 H405 0.930 . S
C417 C416 1.365 . S
C417 C418 1.393 . S
C418 C417 1.393 . S
C418 C419 1.387 . S
C419 H406 0.930 . S
C419 C414 1.415 . S
C419 C418 1.387 . S
H420 C428 0.930 . S
H421 C431 0.930 . S
H422 C433 0.930 . S
H423 C434 0.970 . S
H424 C434 0.970 . S
H425 C436 0.930 . S
H426 C438 0.930 . S
H427 C440 0.930 . S
C428 H420 0.930 . S
C428 C429 1.382 . S
C428 C430 1.426 . S
C429 C428 1.382 . S
C429 C433 1.389 . S
C430 C428 1.426 . S
C430 C431 1.375 . S
C430 C434 1.532 . S
C431 H421 0.930 . S
C431 C430 1.375 . S
C431 C432 1.416 . S
C432 C431 1.416 . S
C432 C433 1.371 . S
C433 H422 0.930 . S
C433 C429 1.389 . S
C433 C432 1.371 . S
C434 H423 0.970 . S
C434 H424 0.970 . S
C434 C430 1.532 . S
C434 C435 1.499 . S
C435 C434 1.499 . S
C435 C436 1.370 . S
C435 C440 1.415 . S
C436 H425 0.930 . S
C436 C435 1.370 . S
C436 C437 1.407 . S
C437 C436 1.407 . S
C437 C438 1.365 . S
C438 H426 0.930 . S
C438 C437 1.365 . S
C438 C439 1.393 . S
C439 C438 1.393 . S
C439 C440 1.387 . S
C440 H427 0.930 . S
C440 C435 1.415 . S
C440 C439 1.387 . S
H441 C449 0.930 . S
H442 C452 0.930 . S
H443 C454 0.930 1_655 S
H444 C455 0.970 . S
H445 C455 0.970 . S
H446 C457 0.930 . S
H447 C459 0.930 1_655 S
H448 C461 0.930 . S
C449 H441 0.930 . S
C449 C450 1.382 . S
C449 C451 1.426 . S
C450 C449 1.382 . S
C450 C454 1.389 . S
C451 C449 1.426 . S
C451 C452 1.375 . S
C451 C455 1.532 . S
C452 H442 0.930 . S
C452 C451 1.375 . S
C452 C453 1.416 . S
C453 C452 1.416 . S
C453 C454 1.371 . S
C454 H443 0.930 1_455 S
C454 C450 1.389 . S
C454 C453 1.371 . S
C455 H444 0.970 . S
C455 H445 0.970 . S
C455 C451 1.532 . S
C455 C456 1.499 . S
C456 C455 1.499 . S
C456 C457 1.370 . S
C456 C461 1.415 . S
C457 H446 0.930 . S
C457 C456 1.370 . S
C457 C458 1.407 . S
C458 C457 1.407 . S
C458 C459 1.365 . S
C459 H447 0.930 1_455 S
C459 C458 1.365 . S
C459 C460 1.393 . S
C460 C459 1.393 . S
C460 C461 1.387 . S
C461 H448 0.930 . S
C461 C456 1.415 . S
C461 C460 1.387 . S
H462 C470 0.930 . S
H463 C473 0.930 . S
H464 C475 0.930 . S
H465 C476 0.970 . S
H466 C476 0.970 . S
H467 C478 0.930 . S
H468 C480 0.930 . S
H469 C482 0.930 . S
C470 H462 0.930 . S
C470 C471 1.382 . S
C470 C472 1.426 . S
C471 C470 1.382 . S
C471 C475 1.389 . S
C472 C470 1.426 . S
C472 C473 1.375 . S
C472 C476 1.532 . S
C473 H463 0.930 . S
C473 C472 1.375 . S
C473 C474 1.416 . S
C474 C473 1.416 . S
C474 C475 1.371 . S
C475 H464 0.930 . S
C475 C471 1.389 . S
C475 C474 1.371 . S
C476 H465 0.970 . S
C476 H466 0.970 . S
C476 C472 1.532 . S
C476 C477 1.499 . S
C477 C476 1.499 . S
C477 C478 1.370 . S
C477 C482 1.415 . S
C478 H467 0.930 . S
C478 C477 1.370 . S
C478 C479 1.407 . S
C479 C478 1.407 . S
C479 C480 1.365 . S
C480 H468 0.930 . S
C480 C479 1.365 . S
C480 C481 1.393 . S
C481 C480 1.393 . S
C481 C482 1.387 . S
C482 H469 0.930 . S
C482 C477 1.415 . S
C482 C481 1.387 . S
H483 C491 0.930 . S
H484 C494 0.930 . S
H485 C496 0.930 . S
H486 C497 0.970 . S
H487 C497 0.970 . S
H488 C499 0.930 . S
H489 C501 0.930 . S
H490 C503 0.930 . S
C491 H483 0.930 . S
C491 C492 1.382 . S
C491 C493 1.426 . S
C492 C491 1.382 . S
C492 C496 1.389 1_565 S
C493 C491 1.426 . S
C493 C494 1.375 . S
C493 C497 1.532 . S
C494 H484 0.930 . S
C494 C493 1.375 . S
C494 C495 1.416 . S
C495 C494 1.416 . S
C495 C496 1.371 1_565 S
C496 H485 0.930 . S
C496 C492 1.389 1_545 S
C496 C495 1.371 1_545 S
C497 H486 0.970 . S
C497 H487 0.970 . S
C497 C493 1.532 . S
C497 C498 1.499 . S
C498 C497 1.499 . S
C498 C499 1.370 . S
C498 C503 1.415 . S
C499 H488 0.930 . S
C499 C498 1.370 . S
C499 C500 1.411 . S
C500 C499 1.411 . S
C500 C501 1.363 1_565 S
C501 H489 0.930 . S
C501 C500 1.363 1_545 S
C501 C502 1.393 1_545 S
C502 C501 1.393 1_565 S
C502 C503 1.387 . S
C503 H490 0.930 . S
C503 C498 1.415 . S
C503 C502 1.387 . S
H504 C512 0.930 . S
H505 C515 0.930 . S
H506 C517 0.930 . S
H507 C518 0.970 . S
H508 C518 0.970 . S
H509 C520 0.930 . S
H510 C522 0.930 . S
H511 C524 0.930 . S
C512 H504 0.930 . S
C512 C513 1.382 . S
C512 C514 1.426 . S
C513 C512 1.382 . S
C513 C517 1.389 1_565 S
C514 C512 1.426 . S
C514 C515 1.375 . S
C514 C518 1.532 . S
C515 H505 0.930 . S
C515 C514 1.375 . S
C515 C516 1.416 1_565 S
C516 C515 1.416 1_545 S
C516 C517 1.371 . S
C517 H506 0.930 . S
C517 C513 1.389 1_545 S
C517 C516 1.371 . S
C518 H507 0.970 . S
C518 H508 0.970 . S
C518 C514 1.532 . S
C518 C519 1.499 . S
C519 C518 1.499 . S
C519 C520 1.370 . S
C519 C524 1.415 . S
C520 H509 0.930 . S
C520 C519 1.370 . S
C520 C521 1.405 1_565 S
C521 C520 1.405 1_545 S
C521 C522 1.367 . S
C522 H510 0.930 . S
C522 C521 1.367 . S
C522 C523 1.393 . S
C523 C522 1.393 . S
C523 C524 1.387 1_545 S
C524 H511 0.930 . S
C524 C519 1.415 . S
C524 C523 1.387 1_565 S
H525 C533 0.930 . S
H526 C536 0.930 . S
H527 C538 0.930 . S
H528 C539 0.970 . S
H529 C539 0.970 . S
H530 C541 0.930 . S
H531 C543 0.930 . S
H532 C545 0.930 . S
C533 H525 0.930 . S
C533 C534 1.382 . S
C533 C535 1.426 . S
C534 C533 1.382 . S
C534 C538 1.389 1_455 S
C535 C533 1.426 . S
C535 C536 1.375 . S
C535 C539 1.532 . S
C536 H526 0.930 . S
C536 C535 1.375 . S
C536 C537 1.416 . S
C537 C536 1.416 . S
C537 C538 1.371 1_455 S
C538 H527 0.930 . S
C538 C534 1.389 1_655 S
C538 C537 1.371 1_655 S
C539 H528 0.970 . S
C539 H529 0.970 . S
C539 C535 1.532 . S
C539 C540 1.499 . S
C540 C539 1.499 . S
C540 C541 1.370 . S
C540 C545 1.415 . S
C541 H530 0.930 . S
C541 C540 1.370 . S
C541 C542 1.407 . S
C542 C541 1.407 . S
C542 C543 1.365 1_455 S
C543 H531 0.930 . S
C543 C542 1.365 1_655 S
C543 C544 1.393 1_655 S
C544 C543 1.393 1_455 S
C544 C545 1.387 . S
C545 H532 0.930 . S
C545 C540 1.415 . S
C545 C544 1.387 . S
H546 C554 0.930 . S
H547 C557 0.930 . S
H548 C559 0.930 . S
H549 C560 0.970 . S
H550 C560 0.970 . S
H551 C562 0.930 . S
H552 C564 0.930 . S
H553 C566 0.930 . S
C554 H546 0.930 . S
C554 C555 1.382 . S
C554 C556 1.426 . S
C555 C554 1.382 . S
C555 C559 1.389 . S
C556 C554 1.426 . S
C556 C557 1.375 . S
C556 C560 1.532 . S
C557 H547 0.930 . S
C557 C556 1.375 . S
C557 C558 1.416 . S
C558 C557 1.416 . S
C558 C559 1.371 . S
C559 H548 0.930 . S
C559 C555 1.389 . S
C559 C558 1.371 . S
C560 H549 0.970 . S
C560 H550 0.970 . S
C560 C556 1.532 . S
C560 C561 1.499 . S
C561 C560 1.499 . S
C561 C562 1.370 . S
C561 C566 1.415 . S
C562 H551 0.930 . S
C562 C561 1.370 . S
C562 C563 1.407 . S
C563 C562 1.407 . S
C563 C564 1.365 . S
C564 H552 0.930 . S
C564 C563 1.365 . S
C564 C565 1.393 . S
C565 C564 1.393 . S
C565 C566 1.387 . S
C566 H553 0.930 . S
C566 C561 1.415 . S
C566 C565 1.387 . S
H567 C575 0.930 . S
H568 C578 0.930 . S
H569 C580 0.930 . S
H570 C581 0.970 . S
H571 C581 0.970 . S
H572 C583 0.930 . S
H573 C585 0.930 . S
H574 C587 0.930 . S
C575 H567 0.930 . S
C575 C576 1.382 . S
C575 C577 1.426 . S
C576 C575 1.382 . S
C576 C580 1.389 . S
C577 C575 1.426 . S
C577 C578 1.375 . S
C577 C581 1.532 . S
C578 H568 0.930 . S
C578 C577 1.375 . S
C578 C579 1.416 . S
C579 C578 1.416 . S
C579 C580 1.371 . S
C580 H569 0.930 . S
C580 C576 1.389 . S
C580 C579 1.371 . S
C581 H570 0.970 . S
C581 H571 0.970 . S
C581 C577 1.532 . S
C581 C582 1.499 . S
C582 C581 1.499 . S
C582 C583 1.370 . S
C582 C587 1.415 . S
C583 H572 0.930 . S
C583 C582 1.370 . S
C583 C584 1.407 . S
C584 C583 1.407 . S
C584 C585 1.365 . S
C585 H573 0.930 . S
C585 C584 1.365 . S
C585 C586 1.393 . S
C586 C585 1.393 . S
C586 C587 1.387 . S
C587 H574 0.930 . S
C587 C582 1.415 . S
C587 C586 1.387 . S
H588 C596 0.930 . S
H589 C599 0.930 . S
H590 C601 0.930 . S
H591 C602 0.970 . S
H592 C602 0.970 . S
H593 C604 0.930 . S
H594 C606 0.930 . S
H595 C608 0.930 . S
C596 H588 0.930 . S
C596 C597 1.382 . S
C596 C598 1.426 . S
C597 C596 1.382 . S
C597 C601 1.389 . S
C598 C596 1.426 . S
C598 C599 1.375 . S
C598 C602 1.532 . S
C599 H589 0.930 . S
C599 C598 1.375 . S
C599 C600 1.416 . S
C600 C599 1.416 . S
C600 C601 1.371 . S
C601 H590 0.930 . S
C601 C597 1.389 . S
C601 C600 1.371 . S
C602 H591 0.970 . S
C602 H592 0.970 . S
C602 C598 1.532 . S
C602 C603 1.499 . S
C603 C602 1.499 . S
C603 C604 1.370 . S
C603 C608 1.415 . S
C604 H593 0.930 . S
C604 C603 1.370 . S
C604 C605 1.407 . S
C605 C604 1.407 . S
C605 C606 1.365 . S
C606 H594 0.930 . S
C606 C605 1.365 . S
C606 C607 1.393 . S
C607 C606 1.393 . S
C607 C608 1.387 . S
C608 H595 0.930 . S
C608 C603 1.415 . S
C608 C607 1.387 . S
H609 C617 0.930 . S
H610 C620 0.930 . S
H611 C622 0.930 . S
H612 C623 0.970 . S
H613 C623 0.970 . S
H614 C625 0.930 . S
H615 C627 0.930 . S
H616 C629 0.930 . S
C617 H609 0.930 . S
C617 C618 1.382 . S
C617 C619 1.426 . S
C618 C617 1.382 . S
C618 C622 1.389 . S
C619 C617 1.426 . S
C619 C620 1.375 . S
C619 C623 1.532 . S
C620 H610 0.930 . S
C620 C619 1.375 . S
C620 C621 1.416 . S
C621 C620 1.416 . S
C621 C622 1.371 . S
C622 H611 0.930 . S
C622 C618 1.389 . S
C622 C621 1.371 . S
C623 H612 0.970 . S
C623 H613 0.970 . S
C623 C619 1.532 . S
C623 C624 1.499 . S
C624 C623 1.499 . S
C624 C625 1.370 . S
C624 C629 1.415 . S
C625 H614 0.930 . S
C625 C624 1.370 . S
C625 C626 1.407 . S
C626 C625 1.407 . S
C626 C627 1.365 . S
C627 H615 0.930 . S
C627 C626 1.365 . S
C627 C628 1.393 . S
C628 C627 1.393 . S
C628 C629 1.387 . S
C629 H616 0.930 . S
C629 C624 1.415 . S
C629 C628 1.387 . S
C8 C458 1.511 . S
C22 C471 1.680 . S
C500 C37 1.484 . S
C36 C513 1.664 1_545 S
C9 C534 1.695 1_655 S
C23 C563 1.499 . S
C50 C542 1.591 1_655 S
C555 C64 1.482 . S
C521 C79 1.561 . S
C78 C492 1.472 . S
C450 C51 1.495 . S
C65 C479 1.578 . S
C92 C584 1.511 . S
C106 C597 1.679 . S
C626 C121 1.484 . S
C120 C261 1.664 . S
C93 C282 1.696 . S
C107 C311 1.499 . S
C134 C290 1.593 . S
C148 C303 1.482 . S
C269 C163 1.562 . S
C618 C162 1.474 . S
C576 C135 1.495 . S
C605 C149 1.578 . S
C176 C332 1.511 . S
C190 C345 1.679 . S
C205 C374 1.484 . S
C204 C387 1.664 . S
C408 C177 1.696 . S
C437 C191 1.499 . S
C416 C218 1.593 . S
C429 C232 1.482 . S
C247 C395 1.562 . S
C366 C246 1.474 . S
C219 C324 1.495 . S
C353 C233 1.578 . S
C264 C6 1.384 . S
C20 C285 1.365 . S
C313 C35 1.339 . S
C334 C34 1.334 . S
C348 C7 1.372 . S
C376 C21 1.348 . S
C48 C369 1.306 . S
C62 C327 1.290 . S
C77 C355 1.457 . S
C76 C292 1.446 . S
C306 C49 1.299 . S
C63 C271 1.462 . S
C390 C90 1.383 . S
C104 C411 1.366 . S
C119 C439 1.339 . S
C460 C118 1.334 . S
C91 C474 1.372 . S
C105 C502 1.350 . S
C132 C495 1.304 . S
C146 C453 1.291 . S
C481 C161 1.457 . S
C160 C418 1.446 . S
C133 C432 1.299 . S
C397 C147 1.463 . S
C516 C174 1.383 . S
C188 C537 1.365 1_655 S
C203 C565 1.339 . S
C586 C202 1.334 . S
C600 C175 1.372 . S
C189 C628 1.349 . S
C216 C621 1.306 . S
C230 C579 1.290 . S
C607 C245 1.456 . S
C544 C244 1.443 1_455 S
C558 C217 1.299 . S
C231 C523 1.463 . S
