# Generated by pormake.
# Topology zzz, (3,6)-cn, num edge types: 1
# Building blocks:
#     Node 0, Type 0, BuildingBlock: PAMTOO_clean_linker_0, # of connection points: 3
#     Node 1, Type 0, BuildingBlock: PAMTOO_clean_linker_0, # of connection points: 3
#     Node 2, Type 0, BuildingBlock: PAMTOO_clean_linker_0, # of connection points: 3
#     Node 3, Type 0, BuildingBlock: PAMTOO_clean_linker_0, # of connection points: 3
#     Node 4, Type 0, BuildingBlock: PAMTOO_clean_linker_0, # of connection points: 3
#     Node 5, Type 0, BuildingBlock: PAMTOO_clean_linker_0, # of connection points: 3
#     Node 6, Type 0, BuildingBlock: PAMTOO_clean_linker_0, # of connection points: 3
#     Node 7, Type 0, BuildingBlock: PAMTOO_clean_linker_0, # of connection points: 3
#     Node 8, Type 1, BuildingBlock: BETFAJ_clean_sbu_0, # of connection points: 6
#     Node 9, Type 1, BuildingBlock: BETFAJ_clean_sbu_0, # of connection points: 6
#     Node 10, Type 1, BuildingBlock: BETFAJ_clean_sbu_0, # of connection points: 6
#     Node 11, Type 1, BuildingBlock: BETFAJ_clean_sbu_0, # of connection points: 6
#     Edge 12, Type (0, 1), BuildingBlock: AJUNOK_clean_linker_0, # of connection points: 2
#     Edge 13, Type (0, 1), BuildingBlock: AJUNOK_clean_linker_0, # of connection points: 2
#     Edge 14, Type (0, 1), BuildingBlock: AJUNOK_clean_linker_0, # of connection points: 2
#     Edge 15, Type (0, 1), BuildingBlock: AJUNOK_clean_linker_0, # of connection points: 2
#     Edge 16, Type (0, 1), BuildingBlock: AJUNOK_clean_linker_0, # of connection points: 2
#     Edge 17, Type (0, 1), BuildingBlock: AJUNOK_clean_linker_0, # of connection points: 2
#     Edge 18, Type (0, 1), BuildingBlock: AJUNOK_clean_linker_0, # of connection points: 2
#     Edge 19, Type (0, 1), BuildingBlock: AJUNOK_clean_linker_0, # of connection points: 2
#     Edge 20, Type (0, 1), BuildingBlock: AJUNOK_clean_linker_0, # of connection points: 2
#     Edge 21, Type (0, 1), BuildingBlock: AJUNOK_clean_linker_0, # of connection points: 2
#     Edge 22, Type (0, 1), BuildingBlock: AJUNOK_clean_linker_0, # of connection points: 2
#     Edge 23, Type (0, 1), BuildingBlock: AJUNOK_clean_linker_0, # of connection points: 2
#     Edge 24, Type (0, 1), BuildingBlock: AJUNOK_clean_linker_0, # of connection points: 2
#     Edge 25, Type (0, 1), BuildingBlock: AJUNOK_clean_linker_0, # of connection points: 2
#     Edge 26, Type (0, 1), BuildingBlock: AJUNOK_clean_linker_0, # of connection points: 2
#     Edge 27, Type (0, 1), BuildingBlock: AJUNOK_clean_linker_0, # of connection points: 2
#     Edge 28, Type (0, 1), BuildingBlock: AJUNOK_clean_linker_0, # of connection points: 2
#     Edge 29, Type (0, 1), BuildingBlock: AJUNOK_clean_linker_0, # of connection points: 2
#     Edge 30, Type (0, 1), BuildingBlock: AJUNOK_clean_linker_0, # of connection points: 2
#     Edge 31, Type (0, 1), BuildingBlock: AJUNOK_clean_linker_0, # of connection points: 2
#     Edge 32, Type (0, 1), BuildingBlock: AJUNOK_clean_linker_0, # of connection points: 2
#     Edge 33, Type (0, 1), BuildingBlock: AJUNOK_clean_linker_0, # of connection points: 2
#     Edge 34, Type (0, 1), BuildingBlock: AJUNOK_clean_linker_0, # of connection points: 2
#     Edge 35, Type (0, 1), BuildingBlock: AJUNOK_clean_linker_0, # of connection points: 2
# Relax obj value: 0.363
# Max RMSD: 0.212
# Mean RMSD: 0.161
data_MOF--net-zzz--node1-BETFAJ_clean_sbu_0--node2-PAMTOO_clean_linker_0--edge1-AJUNOK_clean_linker_0
_symmetry_space_group_name_H-M    P1
_symmetry_Int_Tables_number       1
_symmetry_cell_setting            triclinic
loop_
_symmetry_equiv_pos_as_xyz
'x, y, z'
_cell_length_a     37.815022
_cell_length_b     37.806616
_cell_length_c     10.047622
_cell_angle_alpha  89.765044
_cell_angle_beta   89.851272
_cell_angle_gamma 90.390305
loop_
_atom_site_label
_atom_site_type_symbol
_atom_site_fract_x
_atom_site_fract_y
_atom_site_fract_z
_atom_type_partial_charge
H0 H 0.84603 0.45662 0.47531 0.0
H1 H 0.74441 0.46149 0.28277 0.0
H2 H 0.78843 0.55374 0.47201 0.0
H3 H 0.69818 0.54766 0.45117 0.0
C4 C 0.70058 0.52721 0.37275 0.0
O5 O 0.73501 0.52831 0.32411 0.0
H6 H 0.69491 0.50111 0.42017 0.0
C7 C 0.82179 0.47055 0.45255 0.0
C8 C 0.81997 0.50616 0.48847 0.0
C9 C 0.79528 0.45399 0.37603 0.0
C10 C 0.7651 0.47347 0.3421 0.0
C11 C 0.76219 0.50927 0.37665 0.0
C12 C 0.78976 0.52575 0.45045 0.0
H13 H 0.1111 0.84431 0.47099 0.0
H14 H 0.10465 0.74073 0.29893 0.0
H15 H 1.0137 0.78548 0.49385 0.0
H16 H 0.03479 0.74234 0.16624 0.0
C17 C 1.02279 0.72422 0.24183 0.0
O18 O 0.03916 0.72851 0.36473 0.0
H19 H 0.99472 0.73231 0.25199 0.0
C20 C 0.09672 0.81966 0.45685 0.0
C21 C 0.06132 0.81802 0.49717 0.0
C22 C 0.11227 0.79245 0.38242 0.0
C23 C 0.09294 0.76147 0.35807 0.0
C24 C 0.05754 0.75839 0.39854 0.0
C25 C 0.04144 0.78701 0.46746 0.0
H26 H 0.72433 0.10392 0.45901 0.0
H27 H 0.81902 0.0886 0.22836 0.0
H28 H 0.77177 1.00126 0.44185 0.0
H29 H 0.86002 0.99297 0.38774 0.0
C30 C 0.8589 1.01823 0.33103 0.0
O31 O 0.8249 1.02174 0.28075 0.0
H32 H 0.86493 0.04001 0.40177 0.0
C33 C 0.74639 0.08746 0.42979 0.0
C34 C 0.7454 0.05168 0.46585 0.0
C35 C 0.77251 0.10111 0.34318 0.0
C36 C 0.79947 0.07878 0.29869 0.0
C37 C 0.79994 0.04303 0.33593 0.0
C38 C 0.77253 1.02925 0.41855 0.0
H39 H 0.46259 0.72416 0.49976 0.0
H40 H 0.47779 0.81719 0.25779 0.0
H41 H 0.56414 0.77519 0.48553 0.0
H42 H 0.57387 0.86285 0.41372 0.0
C43 C 0.54796 0.86048 0.36258 0.0
O44 O 0.54403 0.82607 0.31684 0.0
H45 H 0.52722 0.8665 0.43801 0.0
C46 C 0.47862 0.74684 0.47051 0.0
C47 C 0.51409 0.74746 0.50934 0.0
C48 C 0.4653 0.77124 0.37767 0.0
C49 C 0.48725 0.79896 0.33301 0.0
C50 C 0.52256 0.80131 0.37468 0.0
C51 C 0.53625 0.77506 0.4614 0.0
H52 H 0.21863 0.60601 0.18198 0.0
H53 H 0.32273 0.60013 0.35126 0.0
H54 H 0.28279 0.51462 0.10989 0.0
H55 H 0.34446 0.48888 0.32009 0.0
C56 C 0.34456 0.51656 0.35668 0.0
O57 O 0.33852 0.53902 0.24935 0.0
H58 H 0.32243 0.51805 0.42992 0.0
C59 C 0.2438 0.59255 0.19075 0.0
C60 C 0.24727 0.55909 0.13375 0.0
C61 C 0.27065 0.60755 0.26916 0.0
C62 C 0.30233 0.58922 0.28755 0.0
C63 C 0.30726 0.55601 0.22885 0.0
C64 C 0.27954 0.54073 0.15185 0.0
H65 H 0.96665 0.22282 0.15551 0.0
H66 H 0.97441 0.32821 0.31448 0.0
H67 H 0.06343 0.28156 0.11357 0.0
H68 H 0.08746 0.34615 0.32217 0.0
C69 C 0.05912 0.34517 0.35132 0.0
O70 O 0.03906 0.33961 0.23743 0.0
H71 H 0.05644 0.32223 0.42079 0.0
C72 C 0.98103 0.24754 0.16674 0.0
C73 C 1.01604 0.24882 0.12242 0.0
C74 C 0.96554 0.27583 0.23606 0.0
C75 C 0.98553 0.30663 0.25777 0.0
C76 C 1.02061 0.30917 0.21312 0.0
C77 C 0.03609 0.28005 0.14545 0.0
H78 H 0.34259 0.96851 0.28489 0.0
H79 H 0.2413 0.99791 0.43199 0.0
H80 H 0.29514 0.06453 0.14548 0.0
H81 H 0.20153 0.03615 0.19828 0.0
C82 C 0.20541 0.05815 0.27039 0.0
O83 O 0.24024 0.05901 0.31415 0.0
H84 H 0.20005 0.0831 0.21569 0.0
C85 C 0.31978 0.98531 0.27481 0.0
C86 C 0.32206 1.01539 0.19323 0.0
C87 C 0.29018 0.97767 0.3545 0.0
C88 C 0.26294 1.00223 0.36277 0.0
C89 C 0.26465 0.03365 0.28865 0.0
C90 C 0.29387 0.04005 0.20159 0.0
H91 H 0.60206 0.34277 0.14338 0.0
H92 H 0.59071 0.2498 0.38884 0.0
H93 H 0.50148 0.29034 0.17338 0.0
H94 H 0.53917 0.19975 0.21687 0.0
C95 C 0.51892 0.20595 0.29399 0.0
O96 O 0.5239 0.24017 0.34038 0.0
H97 H 0.49263 0.20425 0.24537 0.0
C98 C 0.58669 0.31993 0.17565 0.0
C99 C 0.55088 0.31866 0.14169 0.0
C100 C 0.60133 0.29585 0.26687 0.0
C101 C 0.58022 0.26786 0.31502 0.0
C102 C 0.5445 0.26504 0.27889 0.0
C103 C 0.52958 0.29095 0.19384 0.0
Sm104 Sm 0.05686 1.02406 0.91062 0.0
Sm105 Sm 1.01197 0.04283 0.70851 0.0
C106 C 0.09242 0.99447 0.10793 0.0
C107 C 0.11677 0.96477 0.12334 0.0
C108 C 0.12296 0.95127 0.25059 0.0
C109 C 0.14254 0.92056 0.26695 0.0
C110 C 0.15631 0.90254 0.15586 0.0
C111 C 0.15181 0.91742 0.02848 0.0
C112 C 0.13211 0.94838 1.01231 0.0
C113 C 0.09598 0.04724 0.69199 0.0
C114 C 0.03445 0.96092 0.70014 0.0
C115 C 0.97442 0.07466 0.52165 0.0
C116 C 0.95651 0.10909 0.5148 0.0
C117 C 0.97537 0.14036 0.53929 0.0
C118 C 0.9587 0.17289 0.53073 0.0
C119 C 0.9225 0.17521 0.49851 0.0
C120 C 0.90314 0.1437 0.48037 0.0
C121 C 0.92011 0.11089 0.48792 0.0
C122 C 0.97314 1.02019 0.9277 0.0
C123 C 0.03666 0.10567 0.91633 0.0
O124 O 0.05971 0.98621 0.07975 0.0
O125 O 0.10419 1.02149 0.03958 0.0
O126 O 0.06954 1.02646 0.68636 0.0
O127 O 0.10107 0.05726 0.81329 0.0
O128 O 0.04418 0.968 0.82337 0.0
O129 O 1.0242 0.9873 0.62343 0.0
O130 O 1.009 0.07504 0.52359 0.0
O131 O 0.9609 0.05186 0.60518 0.0
O132 O 0.99966 0.04089 0.93227 0.0
O133 O 0.96793 1.00955 0.80711 0.0
O134 O 1.02803 0.09856 0.79192 0.0
O135 O 0.04406 0.07906 0.99604 0.0
H136 H 0.11099 0.96334 0.33709 0.0
H137 H 0.14414 0.90941 0.36619 0.0
H138 H 0.16161 0.90394 0.94106 0.0
H139 H 0.12747 0.95857 0.91297 0.0
H140 H 1.00333 0.13987 0.562 0.0
H141 H 0.97496 0.19637 0.54244 0.0
H142 H 0.87525 0.1444 0.45657 0.0
H143 H 0.90495 0.08695 0.47094 0.0
Sm144 Sm 0.54338 0.05468 0.92514 0.0
Sm145 Sm 0.52448 1.00937 0.72362 0.0
C146 C 0.57415 0.09013 0.12024 0.0
C147 C 0.60401 0.11476 0.13369 0.0
C148 C 0.62002 0.11843 0.25789 0.0
C149 C 0.65048 0.13891 0.27123 0.0
C150 C 0.66593 0.15591 0.15983 0.0
C151 C 0.64846 0.15388 0.03655 0.0
C152 C 0.61769 0.13337 0.02353 0.0
C153 C 0.52124 0.09378 0.70648 0.0
C154 C 0.60583 1.03147 0.71085 0.0
C155 C 0.49336 0.97283 0.53217 0.0
C156 C 0.4619 0.94991 0.52834 0.0
C157 C 0.44174 0.94855 0.41204 0.0
C158 C 0.40849 0.93251 0.41362 0.0
C159 C 0.39438 0.91853 0.5327 0.0
C160 C 0.41613 0.9166 0.64529 0.0
C161 C 0.44969 0.93245 0.64359 0.0
C162 C 0.54638 0.97119 0.94519 0.0
C163 C 0.4619 1.03276 0.93723 0.0
O164 O 0.58207 0.05748 0.09114 0.0
O165 O 0.5469 0.1018 0.0546 0.0
O166 O 0.54142 0.06715 0.70098 0.0
O167 O 0.51111 0.09894 0.82769 0.0
O168 O 0.59897 0.04147 0.83414 0.0
O169 O 0.5793 1.02182 0.63454 0.0
O170 O 0.48715 1.00629 0.55368 0.0
O171 O 0.52024 0.96104 0.59981 0.0
O172 O 0.52571 0.9974 0.94746 0.0
O173 O 0.55758 0.96599 0.82513 0.0
O174 O 0.46885 1.02119 0.81606 0.0
O175 O 0.48803 0.04372 1.01285 0.0
H176 H 0.60989 0.10411 0.34368 0.0
H177 H 0.66352 0.13868 0.36705 0.0
H178 H 0.65989 0.16617 0.94874 0.0
H179 H 0.60551 0.13076 0.92653 0.0
H180 H 0.45077 0.96173 0.32209 0.0
H181 H 0.39256 0.93416 0.32459 0.0
H182 H 0.40608 0.90523 0.7368 0.0
H183 H 0.46508 0.93299 0.73437 0.0
Sm184 Sm 0.50715 0.54052 0.9242 0.0
Sm185 Sm 0.55483 0.52456 0.72455 0.0
C186 C 0.46776 0.56505 0.12175 0.0
C187 C 0.44319 0.59444 0.13947 0.0
C188 C 0.43663 0.607 0.2676 0.0
C189 C 0.41945 0.63917 0.2851 0.0
C190 C 0.40837 0.65931 0.17431 0.0
C191 C 0.41167 0.64451 0.04655 0.0
C192 C 0.4293 0.61245 0.02913 0.0
C193 C 0.47096 0.52307 0.69181 0.0
C194 C 0.53359 0.60625 0.7331 0.0
C195 C 0.5935 0.50015 0.52475 0.0
C196 C 0.61877 0.47151 0.50333 0.0
C197 C 0.62376 0.45874 0.37452 0.0
C198 C 0.64246 0.4276 0.35404 0.0
C199 C 0.65644 0.40848 0.46259 0.0
C200 C 0.65425 0.4234 0.5905 0.0
C201 C 0.6353 0.45459 0.6109 0.0
C202 C 0.59077 0.5413 0.95853 0.0
C203 C 0.52827 0.45882 0.91582 0.0
O204 O 0.50092 0.57393 0.10422 0.0
O205 O 0.45747 0.53999 0.04181 0.0
O206 O 0.49794 0.54308 0.69751 0.0
O207 O 0.46384 0.51083 0.80913 0.0
O208 O 0.52322 0.59768 0.85472 0.0
O209 O 0.54246 0.58078 0.65103 0.0
O210 O 0.56076 0.49036 0.5465 0.0
O211 O 0.60377 0.52567 0.60272 0.0
O212 O 0.56364 0.52164 0.95088 0.0
O213 O 0.59903 0.55299 0.84144 0.0
O214 O 0.53882 0.46748 0.79446 0.0
O215 O 0.5193 0.48423 0.99809 0.0
H216 H 0.44708 0.59327 0.35374 0.0
H217 H 0.4183 0.64972 0.38498 0.0
H218 H 0.40336 0.65917 0.95934 0.0
H219 H 0.43402 0.60289 0.92915 0.0
H220 H 0.61119 0.47157 0.29051 0.0
H221 H 0.64267 0.41686 0.25434 0.0
H222 H 0.66466 0.40944 0.67606 0.0
H223 H 0.63176 0.46429 0.71137 0.0
Sm224 Sm 1.0256 0.50788 0.91091 0.0
Sm225 Sm 0.0411 0.55544 0.71567 0.0
C226 C 0.99867 0.46691 0.10147 0.0
C227 C 0.96484 0.44775 0.11633 0.0
C228 C 0.93311 0.46521 0.09001 0.0
C229 C 0.90105 0.44743 0.10147 0.0
C230 C 0.89962 0.41147 0.13819 0.0
C231 C 0.93143 0.39372 0.16396 0.0
C232 C 0.96392 0.41174 0.15237 0.0
C233 C 0.04706 0.47213 0.68307 0.0
C234 C 0.96043 0.53196 0.71279 0.0
C235 C 0.06661 0.59668 0.5238 0.0
C236 C 0.09619 0.62169 0.51152 0.0
C237 C 0.11042 0.62837 0.38567 0.0
C238 C 0.14248 0.64639 0.37305 0.0
C239 C 0.16097 0.65825 0.48638 0.0
C240 C 0.1451 0.65387 0.61222 0.0
C241 C 0.11297 0.63552 0.62472 0.0
C242 C 1.02098 0.59042 0.94782 0.0
C243 C 0.10698 0.5313 0.90979 0.0
O244 O 0.99733 0.50147 0.10349 0.0
O245 O 1.01966 0.45522 1.00893 0.0
O246 O 1.02547 0.49768 0.68479 0.0
O247 O 0.05949 0.46704 0.80137 0.0
O248 O 0.96841 0.52265 0.83616 0.0
O249 O 0.98643 0.5409 0.6323 0.0
O250 O 0.07543 0.56355 0.53843 0.0
O251 O 0.04079 0.60594 0.60215 0.0
O252 O 0.04274 0.56521 0.9409 0.0
O253 O 1.00733 0.59572 0.83171 0.0
O254 O 0.09848 0.54236 0.78914 0.0
O255 O 0.08151 0.52028 0.98948 0.0
H256 H 0.93291 0.49294 0.06315 0.0
H257 H 0.87715 0.46256 0.08789 0.0
H258 H 0.93103 0.36632 0.19561 0.0
H259 H 0.98823 0.39776 0.17293 0.0
H260 H 0.09804 0.61741 0.29775 0.0
H261 H 0.15434 0.64779 0.27506 0.0
H262 H 0.15879 0.66223 0.7014 0.0
H263 H 0.10233 0.63027 0.72301 0.0
C264 C 0.14606 0.0376 0.36207 0.0
C265 C 0.17866 0.05473 0.3848 0.0
C266 C 0.11938 0.03547 0.46029 0.0
C267 C 0.12398 0.05086 0.58638 0.0
H268 H 0.14119 1.02594 0.26623 0.0
H269 H 0.09496 1.02176 0.437 0.0
S270 S 0.20335 0.1017 0.69495 0.0
N271 N 0.21298 0.08947 0.54158 0.0
N272 N 0.16352 0.08552 0.72643 0.0
C273 C 0.15619 0.06897 0.60975 0.0
C274 C 0.18329 0.07106 0.50927 0.0
C275 C 0.53594 0.1453 0.38173 0.0
C276 C 0.52026 0.17835 0.40573 0.0
C277 C 0.53596 0.11803 0.47792 0.0
C278 C 0.51969 0.12243 0.60279 0.0
H279 H 0.54807 0.14053 0.28652 0.0
H280 H 0.54876 0.09332 0.45396 0.0
S281 S 0.47216 0.20307 0.71339 0.0
N282 N 0.48615 0.21312 0.56199 0.0
N283 N 0.48594 0.16244 0.74302 0.0
C284 C 0.50303 0.15516 0.62729 0.0
C285 C 0.50322 0.18289 0.52899 0.0
C286 C 0.37975 0.54246 0.54965 0.0
C287 C 0.37961 0.52425 0.42748 0.0
C288 C 0.4101 0.54359 0.63088 0.0
C289 C 0.4419 0.52721 0.59251 0.0
H290 H 0.3556 0.55424 0.58635 0.0
H291 H 0.40825 0.55626 0.72718 0.0
S292 S 0.45663 0.47877 0.27797 0.0
N293 N 0.41495 0.49141 0.26884 0.0
N294 N 0.47198 0.49419 0.42038 0.0
C295 C 0.44287 0.51093 0.46714 0.0
C296 C 0.41181 0.50943 0.38481 0.0
C297 C 0.03569 0.37807 0.55357 0.0
C298 C 0.04992 0.37952 0.42381 0.0
C299 C 0.0335 0.40847 0.63381 0.0
C300 C 0.04488 0.44192 0.58756 0.0
H301 H 1.02774 0.35287 0.59615 0.0
H302 H 1.02377 0.40555 0.73481 0.0
S303 S 0.08254 0.46078 0.25385 0.0
N304 N 0.07436 0.41778 0.25149 0.0
N305 N 0.06946 0.47493 0.40133 0.0
C306 C 0.0574 0.44422 0.45591 0.0
C307 C 0.06005 0.41309 0.37438 0.0
C308 C 0.88117 1.02578 0.08831 0.0
C309 C 0.88779 1.01819 0.22361 0.0
C310 C 0.90879 1.02601 0.99303 0.0
C311 C 0.94425 1.01966 0.02952 0.0
H312 H 0.85458 1.0315 0.05531 0.0
H313 H 0.90241 1.03179 0.89021 0.0
S314 S 0.97528 0.99709 0.36709 0.0
N315 N 0.93235 1.00271 0.38618 0.0
N316 N 0.98402 1.00474 0.20865 0.0
C317 C 0.95113 1.01232 0.16358 0.0
C318 C 0.92304 1.01123 0.25979 0.0
C319 C 0.52397 0.91672 0.25669 0.0
C320 C 0.54686 0.88756 0.24916 0.0
C321 C 0.52432 0.94389 0.16011 0.0
C322 C 0.5476 0.94302 0.05053 0.0
H323 H 0.50578 0.91856 0.33904 0.0
H324 H 0.50599 0.96558 0.17099 0.0
S325 S 0.61357 0.87275 0.98457 0.0
N326 N 0.59401 0.85991 0.12399 0.0
N327 N 0.59452 0.91025 0.94119 0.0
C328 C 0.57069 0.91391 0.04149 0.0
C329 C 0.5704 0.88644 0.14076 0.0
C330 C 0.67498 0.51386 0.14212 0.0
C331 C 0.67316 0.53283 0.26257 0.0
C332 C 0.64825 0.51664 0.04452 0.0
C333 C 0.61808 0.53771 0.06478 0.0
H334 H 0.69715 0.49656 0.12351 0.0
H335 H 0.65104 0.50189 0.9529 0.0
S336 S 0.59992 0.59214 0.36194 0.0
N337 N 0.63827 0.57348 0.39489 0.0
N338 N 0.58795 0.57764 0.21385 0.0
C339 C 0.61566 0.55635 0.18474 0.0
C340 C 0.6431 0.55408 0.28297 0.0
C341 C 0.9941 0.66505 0.18109 0.0
C342 C 1.0249 0.68628 0.18864 0.0
C343 C 0.9935 0.63304 0.10901 0.0
C344 C 1.02388 0.62032 0.04423 0.0
H345 H 0.96967 0.67419 0.22524 0.0
H346 H 0.9687 0.61874 0.10006 0.0
S347 S 0.11135 0.66517 0.03295 0.0
N348 N 0.08664 0.69169 0.12401 0.0
N349 N 0.08579 0.63116 0.99411 0.0
C350 C 0.05523 0.64033 0.05593 0.0
C351 C 0.0557 0.67327 0.127 0.0
C352 C 0.9347 0.26926 0.45056 0.0
C353 C 0.93228 0.26865 0.31091 0.0
C354 C 0.92209 0.24043 0.52537 0.0
C355 C 0.90829 0.21043 0.46006 0.0
H356 H 0.95216 0.28796 0.49935 0.0
H357 H 0.93003 0.23853 0.62872 0.0
S358 S 0.8759 0.2088 0.11232 0.0
N359 N 0.8985 0.24621 0.12408 0.0
N360 N 0.87722 0.19042 0.26164 0.0
C361 C 0.89583 0.21532 0.32953 0.0
C362 C 0.90729 0.24544 0.25511 0.0
C363 C 0.30465 0.91551 0.39622 0.0
C364 C 0.29343 0.94797 0.44971 0.0
C365 C 0.33605 0.90011 0.44185 0.0
C366 C 0.35537 0.91619 0.54501 0.0
H367 H 0.2942 0.90676 0.30149 0.0
H368 H 0.34814 0.87968 0.38203 0.0
S369 S 0.32437 0.98916 0.76036 0.0
N370 N 0.29413 0.98586 0.64299 0.0
N371 N 0.35312 0.95753 0.72973 0.0
C372 C 0.33817 0.94197 0.62192 0.0
C373 C 0.30628 0.95737 0.57512 0.0
C374 C 0.6291 0.31546 0.47522 0.0
C375 C 0.63353 0.30748 0.33957 0.0
C376 C 0.64377 0.34646 0.52795 0.0
C377 C 0.66308 0.36996 0.44583 0.0
H378 H 0.60929 0.30166 0.53414 0.0
H379 H 0.63478 0.35463 0.62534 0.0
S380 S 0.69853 0.34947 0.11149 0.0
N381 N 0.67068 0.31668 0.14467 0.0
N382 N 0.69857 0.37504 0.24453 0.0
C383 C 0.67571 0.3568 0.32414 0.0
C384 C 0.66081 0.32521 0.27054 0.0
C385 C 0.25295 0.62986 0.48743 0.0
C386 C 0.26085 0.63782 0.35387 0.0
C387 C 0.22247 0.64359 0.54696 0.0
C388 C 0.19956 0.66538 0.47332 0.0
H389 H 0.26626 0.60823 0.53717 0.0
H390 H 0.21395 0.63213 0.64067 0.0
S391 S 0.21999 0.7082 0.15034 0.0
N392 N 0.252 0.67918 0.17186 0.0
N393 N 0.19506 0.70575 0.28546 0.0
C394 C 0.21295 0.68097 0.35622 0.0
C395 C 0.24377 0.66681 0.29529 0.0
C396 C 0.13524 0.80825 0.16305 0.0
C397 C 0.14299 0.80222 0.29808 0.0
C398 C 0.14642 0.83964 0.10108 0.0
C399 C 0.16624 0.86482 0.1726 0.0
H400 H 0.11483 0.79282 0.11422 0.0
H401 H 0.13419 0.84664 1.00731 0.0
S402 S 0.20995 0.85006 0.49681 0.0
N403 N 0.18345 0.81548 0.47841 0.0
N404 N 0.20583 0.87396 0.35968 0.0
C405 C 0.1826 0.85354 0.29072 0.0
C406 C 0.17074 0.82189 0.3544 0.0
C407 C 0.75729 0.13172 0.13548 0.0
C408 C 0.76473 0.13466 0.27218 0.0
C409 C 0.72704 0.14766 0.08287 0.0
C410 C 0.70391 0.16615 0.1672 0.0
H411 H 0.77032 0.11186 0.07575 0.0
H412 H 0.71851 0.13947 0.98491 0.0
S413 S 0.72537 0.19938 0.50307 0.0
N414 N 0.75717 0.17102 0.46877 0.0
N415 N 0.70006 0.20097 0.36931 0.0
C416 C 0.71774 0.17846 0.28828 0.0
C417 C 0.74855 0.16236 0.34179 0.0
C418 C 0.43992 0.7514 0.16568 0.0
C419 C 0.43388 0.76003 0.29982 0.0
C420 C 0.42505 0.72068 0.11163 0.0
C421 C 0.40374 0.69815 0.19061 0.0
H422 H 0.46091 0.76441 0.11008 0.0
H423 H 0.43515 0.71191 0.01652 0.0
S424 S 0.36487 0.72075 0.51761 0.0
N425 N 0.3942 0.75248 0.48838 0.0
N426 N 0.36562 0.69483 0.38556 0.0
C427 C 0.39009 0.71203 0.30961 0.0
C428 C 0.40532 0.74328 0.36471 0.0
C429 C 0.82813 0.39723 0.37255 0.0
C430 C 0.80437 0.42018 0.30764 0.0
C431 C 0.85888 0.38625 0.30649 0.0
C432 C 0.86455 0.39604 0.17296 0.0
H433 H 0.8273 0.39468 0.48 0.0
H434 H 0.88046 0.37616 0.366 0.0
S435 S 0.79752 0.43124 0.9416 0.0
N436 N 0.77972 0.4355 0.09092 0.0
N437 N 0.83586 0.41154 0.96523 0.0
C438 C 0.83494 0.40675 0.09935 0.0
C439 C 0.80465 0.41969 0.16749 0.0
C440 C 1.02335 0.20664 0.93044 0.0
C441 C 1.0304 0.21527 0.06416 0.0
C442 C 1.02669 0.17165 0.88267 0.0
C443 C 0.0366 0.14335 0.96688 0.0
H444 H 1.01337 0.22679 0.86369 0.0
H445 H 1.02009 0.16662 0.77974 0.0
S446 S 0.05832 0.15206 0.32631 0.0
N447 N 0.04821 0.19268 0.27962 0.0
N448 N 0.05457 0.1274 0.19172 0.0
C449 C 0.04474 0.15197 0.10021 0.0
C450 C 0.04153 0.18764 0.14822 0.0
C451 C 0.37277 0.05419 0.10412 0.0
C452 C 0.35568 1.02087 0.11185 0.0
C453 C 0.40694 0.05818 0.0469 0.0
C454 C 0.42532 1.02913 0.9934 0.0
H455 H 0.36038 0.07717 0.14757 0.0
H456 H 0.4192 0.08415 0.0457 0.0
S457 S 0.39429 0.93606 0.99337 0.0
N458 N 0.36093 0.9582 0.05716 0.0
N459 N 0.42488 0.96595 0.95772 0.0
C460 C 0.40865 0.99596 0.99908 0.0
C461 C 0.37402 0.99179 0.05583 0.0
C462 C 0.5246 0.37903 0.15222 0.0
C463 C 0.5364 0.35071 0.07377 0.0
C464 C 0.521 0.41334 0.09902 0.0
C465 C 0.52898 0.4211 0.96455 0.0
H466 H 0.52033 0.37512 0.25797 0.0
H467 H 0.51343 0.43427 0.16608 0.0
S468 S 0.55858 0.35538 0.7145 0.0
N469 N 0.55472 0.3322 0.85362 0.0
N470 N 0.54716 0.39624 0.75216 0.0
C471 C 0.53927 0.39252 0.88345 0.0
C472 C 0.5432 0.35756 0.93833 0.0
C473 C 0.18547 0.53501 0.15103 0.0
C474 C 0.21472 0.54376 0.06981 0.0
C475 C 0.15136 0.52986 0.09777 0.0
C476 C 0.14452 0.5336 0.96035 0.0
H477 H 0.18865 0.53395 0.25813 0.0
H478 H 0.12987 0.52445 0.16644 0.0
S479 S 0.21248 0.55416 0.70284 0.0
N480 N 0.23486 0.55449 0.8439 0.0
N481 N 0.17108 0.54469 0.7431 0.0
C482 C 0.17387 0.54108 0.87719 0.0
C483 C 0.20876 0.54618 0.93188 0.0
C484 C 0.04619 0.85947 0.68681 0.0
C485 C 0.04589 0.85184 0.54957 0.0
C486 C 0.04145 0.89439 0.73456 0.0
C487 C 0.03677 0.92349 0.64727 0.0
H488 H 0.05183 0.83859 0.75758 0.0
H489 H 0.04253 0.89871 0.84097 0.0
S490 S 0.03588 0.91755 0.27774 0.0
N491 N 0.04089 0.87625 0.32743 0.0
N492 N 0.0335 0.94134 0.41486 0.0
C493 C 0.03622 0.91588 0.50973 0.0
C494 C 0.04043 0.88036 0.46177 0.0
C495 C 0.68356 1.02672 0.46366 0.0
C496 C 0.71281 0.03886 0.53745 0.0
C497 C 0.64957 1.02346 0.52136 0.0
C498 C 0.64305 1.03245 0.65566 0.0
H499 H 0.68659 1.02146 0.35834 0.0
H500 H 0.62798 1.01493 0.4583 0.0
S501 S 0.71135 0.06398 0.89375 0.0
N502 N 0.7333 0.05889 0.75284 0.0
N503 N 0.67003 0.05242 0.86212 0.0
C504 C 0.6725 0.04346 0.73165 0.0
C505 C 0.70707 0.04682 0.67245 0.0
C506 C 0.53527 0.68535 0.49369 0.0
C507 C 0.52754 0.71456 0.57466 0.0
C508 C 0.53783 0.65096 0.54667 0.0
C509 C 0.53309 0.64392 0.68366 0.0
H510 H 0.53711 0.68878 0.38673 0.0
H511 H 0.54185 0.62947 0.47788 0.0
S512 S 0.51358 0.7117 0.93994 0.0
N513 N 0.51557 0.73447 0.79929 0.0
N514 N 0.52155 0.67013 0.90023 0.0
C515 C 0.52648 0.6732 0.76674 0.0
C516 C 0.52346 0.70833 0.71205 0.0
C517 C 0.8829 0.52677 0.46729 0.0
C518 C 0.85283 0.52187 0.54861 0.0
C519 C 0.917 0.53124 0.52162 0.0
C520 C 0.92299 0.53051 0.66039 0.0
H521 H 0.88031 0.52513 0.36009 0.0
H522 H 0.93909 0.53371 0.45328 0.0
S523 S 0.85253 0.52166 0.91741 0.0
N524 N 0.83095 0.51859 0.77513 0.0
N525 N 0.89463 0.52749 0.87786 0.0
C526 C 0.89281 0.52727 0.743 0.0
C527 C 0.85798 0.52279 0.68716 0.0
loop_
_geom_bond_atom_site_label_1
_geom_bond_atom_site_label_2
_geom_bond_distance
_geom_bond_site_symmetry_2
_ccdc_geom_bond_type
H0 C7 0.929 . S
H1 C10 0.930 . S
H2 C12 0.929 . S
H3 C4 0.969 . S
C4 H3 0.969 . S
C4 O5 1.550 . S
C4 H6 0.973 . S
O5 C4 1.550 . S
O5 C11 1.412 . S
H6 C4 0.973 . S
C7 H0 0.929 . S
C7 C8 1.400 . S
C7 C9 1.364 . S
C8 C7 1.400 . S
C8 C12 1.377 . S
C9 C7 1.364 . S
C9 C10 1.374 . S
C10 H1 0.930 . S
C10 C9 1.374 . S
C10 C11 1.383 . S
C11 O5 1.412 . S
C11 C10 1.383 . S
C11 C12 1.394 . S
C12 H2 0.929 . S
C12 C8 1.377 . S
C12 C11 1.394 . S
H13 C20 0.928 1_655 S
H14 C23 0.931 . S
H15 C25 0.928 1_655 S
H16 C17 0.969 . S
C17 H16 0.969 . S
C17 O18 1.550 1_455 S
C17 H19 0.973 1_455 S
O18 C17 1.550 1_655 S
O18 C24 1.404 1_655 S
H19 C17 0.973 1_655 S
C20 H13 0.928 1_455 S
C20 C21 1.399 . S
C20 C22 1.364 . S
C21 C20 1.399 . S
C21 C25 1.377 . S
C22 C20 1.364 . S
C22 C23 1.374 1_455 S
C23 H14 0.931 . S
C23 C22 1.374 1_655 S
C23 C24 1.382 1_655 S
C24 O18 1.404 1_455 S
C24 C23 1.382 1_455 S
C24 C25 1.394 . S
C25 H15 0.928 1_455 S
C25 C21 1.377 . S
C25 C24 1.394 . S
H26 C33 0.928 1_565 S
H27 C36 0.931 . S
H28 C38 0.929 1_565 S
H29 C30 0.969 . S
C30 H29 0.969 . S
C30 O31 1.550 1_545 S
C30 H32 0.973 1_545 S
O31 C30 1.550 1_565 S
O31 C37 1.404 1_565 S
H32 C30 0.973 1_565 S
C33 H26 0.928 1_545 S
C33 C34 1.399 . S
C33 C35 1.364 . S
C34 C33 1.399 . S
C34 C38 1.377 . S
C35 C33 1.364 . S
C35 C36 1.374 1_545 S
C36 H27 0.931 . S
C36 C35 1.374 1_565 S
C36 C37 1.382 1_565 S
C37 O31 1.404 1_545 S
C37 C36 1.382 1_545 S
C37 C38 1.394 . S
C38 H28 0.929 1_545 S
C38 C34 1.377 . S
C38 C37 1.394 . S
H39 C46 0.929 . S
H40 C49 0.930 . S
H41 C51 0.929 . S
H42 C43 0.969 . S
C43 H42 0.969 . S
C43 O44 1.550 . S
C43 H45 0.973 . S
O44 C43 1.550 . S
O44 C50 1.412 . S
H45 C43 0.973 . S
C46 H39 0.929 . S
C46 C47 1.400 . S
C46 C48 1.364 . S
C47 C46 1.400 . S
C47 C51 1.377 . S
C48 C46 1.364 . S
C48 C49 1.374 . S
C49 H40 0.930 . S
C49 C48 1.374 . S
C49 C50 1.383 . S
C50 O44 1.412 . S
C50 C49 1.383 . S
C50 C51 1.394 . S
C51 H41 0.929 . S
C51 C47 1.377 . S
C51 C50 1.394 . S
H52 C59 0.929 . S
H53 C62 0.930 . S
H54 C64 0.929 . S
H55 C56 0.969 . S
C56 H55 0.969 . S
C56 O57 1.550 . S
C56 H58 0.973 . S
O57 C56 1.550 . S
O57 C63 1.412 . S
H58 C56 0.973 . S
C59 H52 0.929 . S
C59 C60 1.400 1_554 S
C59 C61 1.364 . S
C60 C59 1.400 1_556 S
C60 C64 1.377 . S
C61 C59 1.364 . S
C61 C62 1.374 . S
C62 H53 0.930 . S
C62 C61 1.374 . S
C62 C63 1.383 . S
C63 O57 1.412 . S
C63 C62 1.383 . S
C63 C64 1.394 1_554 S
C64 H54 0.929 . S
C64 C60 1.377 . S
C64 C63 1.394 1_556 S
H65 C72 0.928 1_655 S
H66 C75 0.930 . S
H67 C77 0.928 1_655 S
H68 C69 0.969 . S
C69 H68 0.969 . S
C69 O70 1.550 1_455 S
C69 H71 0.973 1_455 S
O70 C69 1.550 1_655 S
O70 C76 1.412 1_655 S
H71 C69 0.973 1_655 S
C72 H65 0.928 1_455 S
C72 C73 1.400 1_554 S
C72 C74 1.364 . S
C73 C72 1.400 1_556 S
C73 C77 1.377 . S
C74 C72 1.364 . S
C74 C75 1.374 1_455 S
C75 H66 0.930 . S
C75 C74 1.374 1_655 S
C75 C76 1.383 1_655 S
C76 O70 1.412 1_455 S
C76 C75 1.383 1_455 S
C76 C77 1.395 1_554 S
C77 H67 0.928 1_455 S
C77 C73 1.377 . S
C77 C76 1.395 1_556 S
H78 C85 0.928 1_565 S
H79 C88 0.930 . S
H80 C90 0.928 1_565 S
H81 C82 0.969 . S
C82 H81 0.969 . S
C82 O83 1.550 1_545 S
C82 H84 0.973 1_545 S
O83 C82 1.550 1_565 S
O83 C89 1.412 1_565 S
H84 C82 0.973 1_565 S
C85 H78 0.928 1_545 S
C85 C86 1.400 1_554 S
C85 C87 1.364 . S
C86 C85 1.400 1_556 S
C86 C90 1.377 . S
C87 C85 1.364 . S
C87 C88 1.374 1_545 S
C88 H79 0.930 . S
C88 C87 1.374 1_565 S
C88 C89 1.383 1_565 S
C89 O83 1.412 1_545 S
C89 C88 1.383 1_545 S
C89 C90 1.395 1_554 S
C90 H80 0.928 1_545 S
C90 C86 1.377 . S
C90 C89 1.395 1_556 S
H91 C98 0.929 . S
H92 C101 0.930 . S
H93 C103 0.929 . S
H94 C95 0.969 . S
C95 H94 0.969 . S
C95 O96 1.550 . S
C95 H97 0.973 . S
O96 C95 1.550 . S
O96 C102 1.412 . S
H97 C95 0.973 . S
C98 H91 0.929 . S
C98 C99 1.400 1_554 S
C98 C100 1.364 . S
C99 C98 1.400 1_556 S
C99 C103 1.377 . S
C100 C98 1.364 . S
C100 C101 1.374 . S
C101 H92 0.930 . S
C101 C100 1.374 . S
C101 C102 1.383 . S
C102 O96 1.412 . S
C102 C101 1.383 . S
C102 C103 1.394 1_554 S
C103 H93 0.929 . S
C103 C99 1.377 . S
C103 C102 1.394 1_556 S
Sm104 C106 2.846 1_556 S
Sm104 O124 2.543 1_556 S
Sm104 O125 2.450 1_556 S
Sm104 O126 2.681 1_565 S
Sm104 O127 2.464 . S
Sm104 O128 2.396 . S
Sm104 O132 2.386 1_455 S
Sm104 O135 2.408 1_565 S
Sm105 C115 2.846 . S
Sm105 O126 2.386 1_655 S
Sm105 O129 2.408 1_545 S
Sm105 O130 2.543 . S
Sm105 O131 2.450 . S
Sm105 O132 2.681 1_545 S
Sm105 O133 2.464 . S
Sm105 O134 2.396 . S
C106 Sm104 2.846 1_554 S
C106 C107 1.506 . S
C106 O124 1.261 . S
C106 O125 1.242 . S
C107 C106 1.506 . S
C107 C108 1.358 . S
C107 C112 1.382 . S
C108 C107 1.358 . S
C108 C109 1.385 . S
C108 H136 0.930 1_455 S
C109 C108 1.385 . S
C109 C110 1.395 . S
C109 H137 0.954 . S
C110 C109 1.395 . S
C110 C111 1.335 . S
C111 C110 1.335 . S
C111 C112 1.398 . S
C111 H138 0.930 . S
C112 C107 1.382 . S
C112 C111 1.398 . S
C112 H139 0.929 . S
C113 O126 1.271 1_565 S
C113 O127 1.251 . S
C114 O128 1.252 1_655 S
C114 O129 1.272 . S
C115 Sm105 2.846 . S
C115 C116 1.506 . S
C115 O130 1.261 . S
C115 O131 1.242 . S
C116 C115 1.506 . S
C116 C117 1.358 . S
C116 C121 1.382 . S
C117 C116 1.358 . S
C117 C118 1.385 . S
C117 H140 0.930 1_655 S
C118 C117 1.385 . S
C118 C119 1.395 . S
C118 H141 0.947 . S
C119 C118 1.395 . S
C119 C120 1.335 . S
C120 C119 1.335 . S
C120 C121 1.398 . S
C120 H142 0.930 . S
C121 C116 1.382 . S
C121 C120 1.398 . S
C121 H143 0.929 . S
C122 O132 1.271 1_545 S
C122 O133 1.251 . S
C123 O134 1.252 1_455 S
C123 O135 1.272 . S
O124 Sm104 2.543 1_554 S
O124 C106 1.261 . S
O125 Sm104 2.450 1_554 S
O125 C106 1.242 . S
O126 Sm104 2.681 1_545 S
O126 Sm105 2.386 1_455 S
O126 C113 1.271 1_545 S
O127 Sm104 2.464 . S
O127 C113 1.251 . S
O128 Sm104 2.396 . S
O128 C114 1.252 1_455 S
O129 Sm105 2.408 1_565 S
O129 C114 1.272 . S
O130 Sm105 2.543 . S
O130 C115 1.261 . S
O131 Sm105 2.450 . S
O131 C115 1.242 . S
O132 Sm104 2.386 1_655 S
O132 Sm105 2.681 1_565 S
O132 C122 1.271 1_565 S
O133 Sm105 2.464 . S
O133 C122 1.251 . S
O134 Sm105 2.396 . S
O134 C123 1.252 1_655 S
O135 Sm104 2.408 1_545 S
O135 C123 1.272 . S
H136 C108 0.930 1_655 S
H137 C109 0.954 . S
H138 C111 0.930 . S
H139 C112 0.929 . S
H140 C117 0.930 1_455 S
H141 C118 0.947 . S
H142 C120 0.930 . S
H143 C121 0.929 . S
Sm144 C146 2.846 1_556 S
Sm144 O164 2.543 1_556 S
Sm144 O165 2.450 1_556 S
Sm144 O166 2.681 . S
Sm144 O167 2.464 . S
Sm144 O168 2.396 . S
Sm144 O172 2.386 1_545 S
Sm144 O175 2.408 . S
Sm145 C155 2.846 . S
Sm145 O166 2.386 1_565 S
Sm145 O169 2.408 . S
Sm145 O170 2.543 . S
Sm145 O171 2.450 . S
Sm145 O172 2.681 . S
Sm145 O173 2.464 . S
Sm145 O174 2.396 . S
C146 Sm144 2.846 1_554 S
C146 C147 1.506 . S
C146 O164 1.261 . S
C146 O165 1.242 . S
C147 C146 1.506 . S
C147 C148 1.358 . S
C147 C152 1.382 . S
C148 C147 1.358 . S
C148 C149 1.385 . S
C148 H176 0.930 1_545 S
C149 C148 1.385 . S
C149 C150 1.395 . S
C149 H177 0.929 1_545 S
C150 C149 1.395 . S
C150 C151 1.335 . S
C151 C150 1.335 . S
C151 C152 1.398 . S
C151 H178 0.930 . S
C152 C147 1.382 . S
C152 C151 1.398 . S
C152 H179 0.929 . S
C153 O166 1.271 . S
C153 O167 1.251 . S
C154 O168 1.252 1_565 S
C154 O169 1.272 . S
C155 Sm145 2.846 . S
C155 C156 1.506 . S
C155 O170 1.261 . S
C155 O171 1.242 . S
C156 C155 1.506 . S
C156 C157 1.358 . S
C156 C161 1.382 . S
C157 C156 1.358 . S
C157 C158 1.385 . S
C157 H180 0.930 1_565 S
C158 C157 1.385 . S
C158 C159 1.395 . S
C158 H181 0.929 1_565 S
C159 C158 1.395 . S
C159 C160 1.335 . S
C160 C159 1.335 . S
C160 C161 1.398 . S
C160 H182 0.930 . S
C161 C156 1.382 . S
C161 C160 1.398 . S
C161 H183 0.929 . S
C162 O172 1.271 . S
C162 O173 1.251 . S
C163 O174 1.252 1_545 S
C163 O175 1.272 . S
O164 Sm144 2.543 1_554 S
O164 C146 1.261 . S
O165 Sm144 2.450 1_554 S
O165 C146 1.242 . S
O166 Sm144 2.681 . S
O166 Sm145 2.386 1_545 S
O166 C153 1.271 . S
O167 Sm144 2.464 . S
O167 C153 1.251 . S
O168 Sm144 2.396 . S
O168 C154 1.252 1_545 S
O169 Sm145 2.408 . S
O169 C154 1.272 . S
O170 Sm145 2.543 . S
O170 C155 1.261 . S
O171 Sm145 2.450 . S
O171 C155 1.242 . S
O172 Sm144 2.386 1_565 S
O172 Sm145 2.681 . S
O172 C162 1.271 . S
O173 Sm145 2.464 . S
O173 C162 1.251 . S
O174 Sm145 2.396 . S
O174 C163 1.252 1_565 S
O175 Sm144 2.408 . S
O175 C163 1.272 . S
H176 C148 0.930 1_565 S
H177 C149 0.929 1_565 S
H178 C151 0.930 . S
H179 C152 0.929 . S
H180 C157 0.930 1_545 S
H181 C158 0.929 1_545 S
H182 C160 0.930 . S
H183 C161 0.929 . S
Sm184 C186 2.846 1_556 S
Sm184 O204 2.543 1_556 S
Sm184 O205 2.450 1_556 S
Sm184 O206 2.681 . S
Sm184 O207 2.464 . S
Sm184 O208 2.396 . S
Sm184 O212 2.386 . S
Sm184 O215 2.408 . S
Sm185 C195 2.846 . S
Sm185 O206 2.386 . S
Sm185 O209 2.408 . S
Sm185 O210 2.543 . S
Sm185 O211 2.450 . S
Sm185 O212 2.681 . S
Sm185 O213 2.464 . S
Sm185 O214 2.396 . S
C186 Sm184 2.846 1_554 S
C186 C187 1.506 . S
C186 O204 1.261 . S
C186 O205 1.242 . S
C187 C186 1.506 . S
C187 C188 1.358 . S
C187 C192 1.382 . S
C188 C187 1.358 . S
C188 C189 1.385 . S
C188 H216 0.930 . S
C189 C188 1.385 . S
C189 C190 1.395 . S
C189 H217 0.929 . S
C190 C189 1.395 . S
C190 C191 1.335 . S
C191 C190 1.335 . S
C191 C192 1.398 . S
C191 H218 0.930 . S
C192 C187 1.382 . S
C192 C191 1.398 . S
C192 H219 0.929 . S
C193 O206 1.271 . S
C193 O207 1.251 . S
C194 O208 1.252 . S
C194 O209 1.272 . S
C195 Sm185 2.846 . S
C195 C196 1.506 . S
C195 O210 1.261 . S
C195 O211 1.242 . S
C196 C195 1.506 . S
C196 C197 1.358 . S
C196 C201 1.382 . S
C197 C196 1.358 . S
C197 C198 1.385 . S
C197 H220 0.930 . S
C198 C197 1.385 . S
C198 C199 1.395 . S
C198 H221 0.929 . S
C199 C198 1.395 . S
C199 C200 1.335 . S
C200 C199 1.335 . S
C200 C201 1.398 . S
C200 H222 0.930 . S
C201 C196 1.382 . S
C201 C200 1.398 . S
C201 H223 0.929 . S
C202 O212 1.271 . S
C202 O213 1.251 . S
C203 O214 1.252 . S
C203 O215 1.272 . S
O204 Sm184 2.543 1_554 S
O204 C186 1.261 . S
O205 Sm184 2.450 1_554 S
O205 C186 1.242 . S
O206 Sm184 2.681 . S
O206 Sm185 2.386 . S
O206 C193 1.271 . S
O207 Sm184 2.464 . S
O207 C193 1.251 . S
O208 Sm184 2.396 . S
O208 C194 1.252 . S
O209 Sm185 2.408 . S
O209 C194 1.272 . S
O210 Sm185 2.543 . S
O210 C195 1.261 . S
O211 Sm185 2.450 . S
O211 C195 1.242 . S
O212 Sm184 2.386 . S
O212 Sm185 2.681 . S
O212 C202 1.271 . S
O213 Sm185 2.464 . S
O213 C202 1.251 . S
O214 Sm185 2.396 . S
O214 C203 1.252 . S
O215 Sm184 2.408 . S
O215 C203 1.272 . S
H216 C188 0.930 . S
H217 C189 0.929 . S
H218 C191 0.930 . S
H219 C192 0.929 . S
H220 C197 0.930 . S
H221 C198 0.929 . S
H222 C200 0.930 . S
H223 C201 0.929 . S
Sm224 C226 2.846 1_556 S
Sm224 O244 2.543 1_556 S
Sm224 O245 2.450 1_556 S
Sm224 O246 2.681 1_655 S
Sm224 O247 2.464 . S
Sm224 O248 2.396 . S
Sm224 O252 2.386 . S
Sm224 O255 2.408 1_655 S
Sm225 C235 2.846 . S
Sm225 O246 2.386 . S
Sm225 O249 2.408 1_455 S
Sm225 O250 2.543 . S
Sm225 O251 2.450 . S
Sm225 O252 2.681 1_455 S
Sm225 O253 2.464 . S
Sm225 O254 2.396 . S
C226 Sm224 2.846 1_554 S
C226 C227 1.506 . S
C226 O244 1.261 . S
C226 O245 1.242 . S
C227 C226 1.506 . S
C227 C228 1.358 . S
C227 C232 1.382 . S
C228 C227 1.358 . S
C228 C229 1.385 . S
C228 H256 0.930 . S
C229 C228 1.385 . S
C229 C230 1.395 . S
C229 H257 0.929 . S
C230 C229 1.395 . S
C230 C231 1.335 . S
C231 C230 1.335 . S
C231 C232 1.398 . S
C231 H258 0.930 . S
C232 C227 1.382 . S
C232 C231 1.398 . S
C232 H259 0.929 . S
C233 O246 1.265 1_655 S
C233 O247 1.261 . S
C234 O248 1.252 . S
C234 O249 1.272 . S
C235 Sm225 2.846 . S
C235 C236 1.506 . S
C235 O250 1.261 . S
C235 O251 1.242 . S
C236 C235 1.506 . S
C236 C237 1.358 . S
C236 C241 1.382 . S
C237 C236 1.358 . S
C237 C238 1.385 . S
C237 H260 0.930 . S
C238 C237 1.385 . S
C238 C239 1.395 . S
C238 H261 0.929 . S
C239 C238 1.395 . S
C239 C240 1.335 . S
C240 C239 1.335 . S
C240 C241 1.398 . S
C240 H262 0.930 . S
C241 C236 1.382 . S
C241 C240 1.398 . S
C241 H263 0.929 . S
C242 O252 1.263 1_455 S
C242 O253 1.264 . S
C243 O254 1.252 . S
C243 O255 1.272 . S
O244 Sm224 2.543 1_554 S
O244 C226 1.261 . S
O245 Sm224 2.450 1_554 S
O245 C226 1.242 . S
O246 Sm224 2.681 1_455 S
O246 Sm225 2.386 . S
O246 C233 1.265 1_455 S
O247 Sm224 2.464 . S
O247 C233 1.261 . S
O248 Sm224 2.396 . S
O248 C234 1.252 . S
O249 Sm225 2.408 1_655 S
O249 C234 1.272 . S
O250 Sm225 2.543 . S
O250 C235 1.261 . S
O251 Sm225 2.450 . S
O251 C235 1.242 . S
O252 Sm224 2.386 . S
O252 Sm225 2.681 1_655 S
O252 C242 1.263 1_655 S
O253 Sm225 2.464 . S
O253 C242 1.264 . S
O254 Sm225 2.396 . S
O254 C243 1.252 . S
O255 Sm224 2.408 1_455 S
O255 C243 1.272 . S
H256 C228 0.930 . S
H257 C229 0.929 . S
H258 C231 0.930 . S
H259 C232 0.929 . S
H260 C237 0.930 . S
H261 C238 0.929 . S
H262 C240 0.930 . S
H263 C241 0.929 . S
C264 C265 1.356 1_565 S
C264 C266 1.419 . S
C264 H268 0.930 . S
C265 C264 1.356 1_545 S
C265 C274 1.442 . S
C266 C264 1.419 . S
C266 C267 1.340 1_565 S
C266 H269 0.929 . S
C267 C266 1.340 1_545 S
C267 C273 1.452 . S
H268 C264 0.930 . S
H269 C266 0.929 . S
S270 N271 1.613 . S
S270 N272 1.610 . S
N271 S270 1.613 . S
N271 C274 1.350 . S
N272 S270 1.610 . S
N272 C273 1.351 . S
C273 C267 1.452 . S
C273 N272 1.351 . S
C273 C274 1.434 . S
C274 C265 1.442 . S
C274 N271 1.350 . S
C274 C273 1.434 . S
C275 C276 1.369 . S
C275 C277 1.419 . S
C275 H279 0.930 . S
C276 C275 1.369 . S
C276 C285 1.429 . S
C277 C275 1.419 . S
C277 C278 1.363 . S
C277 H280 0.929 . S
C278 C277 1.363 . S
C278 C284 1.428 . S
H279 C275 0.930 . S
H280 C277 0.929 . S
S281 N282 1.613 . S
S281 N283 1.610 . S
N282 S281 1.613 . S
N282 C285 1.350 . S
N283 S281 1.610 . S
N283 C284 1.351 . S
C284 C278 1.428 . S
C284 N283 1.351 . S
C284 C285 1.434 . S
C285 C276 1.429 . S
C285 N282 1.350 . S
C285 C284 1.434 . S
C286 C287 1.369 . S
C286 C288 1.419 . S
C286 H290 0.930 . S
C287 C286 1.369 . S
C287 C296 1.429 . S
C288 C286 1.419 . S
C288 C289 1.363 . S
C288 H291 0.929 . S
C289 C288 1.363 . S
C289 C295 1.428 . S
H290 C286 0.930 . S
H291 C288 0.929 . S
S292 N293 1.613 . S
S292 N294 1.610 . S
N293 S292 1.613 . S
N293 C296 1.350 . S
N294 S292 1.610 . S
N294 C295 1.351 . S
C295 C289 1.428 . S
C295 N294 1.351 . S
C295 C296 1.434 . S
C296 C287 1.429 . S
C296 N293 1.350 . S
C296 C295 1.434 . S
C297 C298 1.373 . S
C297 C299 1.419 . S
C297 H301 0.930 . S
C298 C297 1.373 . S
C298 C307 1.427 1_455 S
C299 C297 1.419 . S
C299 C300 1.363 . S
C299 H302 0.929 . S
C300 C299 1.363 . S
C300 C306 1.428 1_455 S
H301 C297 0.930 . S
H302 C299 0.929 . S
S303 N304 1.613 . S
S303 N305 1.610 . S
N304 S303 1.613 . S
N304 C307 1.350 . S
N305 S303 1.610 . S
N305 C306 1.351 . S
C306 C300 1.428 1_655 S
C306 N305 1.351 . S
C306 C307 1.434 . S
C307 C298 1.427 1_655 S
C307 N304 1.350 . S
C307 C306 1.434 . S
C308 C309 1.364 1_545 S
C308 C310 1.419 . S
C308 H312 0.930 . S
C309 C308 1.364 1_565 S
C309 C318 1.434 . S
C310 C308 1.419 . S
C310 C311 1.349 1_545 S
C310 H313 0.929 . S
C311 C310 1.349 1_565 S
C311 C317 1.442 . S
H312 C308 0.930 . S
H313 C310 0.929 . S
S314 N315 1.613 . S
S314 N316 1.610 . S
N315 S314 1.613 . S
N315 C318 1.350 . S
N316 S314 1.610 . S
N316 C317 1.351 . S
C317 C311 1.442 . S
C317 N316 1.351 . S
C317 C318 1.434 . S
C318 C309 1.434 . S
C318 N315 1.350 . S
C318 C317 1.434 . S
C319 C320 1.369 . S
C319 C321 1.419 . S
C319 H323 0.930 . S
C320 C319 1.369 . S
C320 C329 1.429 . S
C321 C319 1.419 . S
C321 C322 1.363 . S
C321 H324 0.929 . S
C322 C321 1.363 . S
C322 C328 1.428 . S
H323 C319 0.930 . S
H324 C321 0.929 . S
S325 N326 1.613 . S
S325 N327 1.610 . S
N326 S325 1.613 . S
N326 C329 1.350 . S
N327 S325 1.610 . S
N327 C328 1.351 . S
C328 C322 1.428 . S
C328 N327 1.351 . S
C328 C329 1.434 . S
C329 C320 1.429 . S
C329 N326 1.350 . S
C329 C328 1.434 . S
C330 C331 1.369 . S
C330 C332 1.419 . S
C330 H334 0.930 . S
C331 C330 1.369 . S
C331 C340 1.429 . S
C332 C330 1.419 . S
C332 C333 1.363 . S
C332 H335 0.929 . S
C333 C332 1.363 . S
C333 C339 1.428 . S
H334 C330 0.930 . S
H335 C332 0.929 . S
S336 N337 1.613 . S
S336 N338 1.610 . S
N337 S336 1.613 . S
N337 C340 1.350 . S
N338 S336 1.610 . S
N338 C339 1.351 . S
C339 C333 1.428 . S
C339 N338 1.351 . S
C339 C340 1.434 . S
C340 C331 1.429 . S
C340 N337 1.350 . S
C340 C339 1.434 . S
C341 C342 1.379 . S
C341 C343 1.419 . S
C341 H345 0.930 . S
C342 C341 1.379 . S
C342 C351 1.420 1_655 S
C343 C341 1.419 . S
C343 C344 1.363 . S
C343 H346 0.929 . S
C344 C343 1.363 . S
C344 C350 1.428 1_655 S
H345 C341 0.930 . S
H346 C343 0.929 . S
S347 N348 1.613 . S
S347 N349 1.610 . S
N348 S347 1.613 . S
N348 C351 1.350 . S
N349 S347 1.610 . S
N349 C350 1.351 . S
C350 C344 1.428 1_455 S
C350 N349 1.351 . S
C350 C351 1.434 . S
C351 C342 1.420 1_455 S
C351 N348 1.350 . S
C351 C350 1.434 . S
C352 C353 1.369 . S
C352 C354 1.419 . S
C352 H356 0.930 . S
C353 C352 1.369 . S
C353 C362 1.429 . S
C354 C352 1.419 . S
C354 C355 1.363 . S
C354 H357 0.929 . S
C355 C354 1.363 . S
C355 C361 1.428 . S
H356 C352 0.930 . S
H357 C354 0.929 . S
S358 N359 1.613 . S
S358 N360 1.610 1_455 S
N359 S358 1.613 . S
N359 C362 1.350 1_455 S
N360 S358 1.610 1_655 S
N360 C361 1.351 . S
C361 C355 1.428 . S
C361 N360 1.351 . S
C361 C362 1.434 . S
C362 C353 1.429 . S
C362 N359 1.350 1_655 S
C362 C361 1.434 . S
C363 C364 1.369 . S
C363 C365 1.419 . S
C363 H367 0.930 . S
C364 C363 1.369 . S
C364 C373 1.428 1_565 S
C365 C363 1.419 . S
C365 C366 1.363 . S
C365 H368 0.929 . S
C366 C365 1.363 . S
C366 C372 1.428 . S
H367 C363 0.930 . S
H368 C365 0.929 . S
S369 N370 1.613 . S
S369 N371 1.610 1_545 S
N370 S369 1.613 . S
N370 C373 1.359 . S
N371 S369 1.610 1_565 S
N371 C372 1.351 . S
C372 C366 1.428 . S
C372 N371 1.351 . S
C372 C373 1.425 1_565 S
C373 C364 1.428 1_545 S
C373 N370 1.359 . S
C373 C372 1.425 1_545 S
C374 C375 1.369 . S
C374 C376 1.419 . S
C374 H378 0.930 . S
C375 C374 1.369 . S
C375 C384 1.429 . S
C376 C374 1.419 . S
C376 C377 1.363 . S
C376 H379 0.929 . S
C377 C376 1.363 . S
C377 C383 1.428 . S
H378 C374 0.930 . S
H379 C376 0.929 . S
S380 N381 1.613 1_556 S
S380 N382 1.610 1_556 S
N381 S380 1.613 1_554 S
N381 C384 1.350 . S
N382 S380 1.610 1_554 S
N382 C383 1.351 . S
C383 C377 1.428 . S
C383 N382 1.351 . S
C383 C384 1.434 . S
C384 C375 1.429 . S
C384 N381 1.350 . S
C384 C383 1.434 . S
C385 C386 1.369 . S
C385 C387 1.419 . S
C385 H389 0.930 . S
C386 C385 1.369 . S
C386 C395 1.429 . S
C387 C385 1.419 . S
C387 C388 1.363 . S
C387 H390 0.929 . S
C388 C387 1.363 . S
C388 C394 1.428 . S
H389 C385 0.930 . S
H390 C387 0.929 . S
S391 N392 1.613 . S
S391 N393 1.610 . S
N392 S391 1.613 . S
N392 C395 1.350 . S
N393 S391 1.610 . S
N393 C394 1.351 . S
C394 C388 1.428 . S
C394 N393 1.351 . S
C394 C395 1.434 . S
C395 C386 1.429 . S
C395 N392 1.350 . S
C395 C394 1.434 . S
C396 C397 1.369 . S
C396 C398 1.419 . S
C396 H400 0.930 1_455 S
C397 C396 1.369 . S
C397 C406 1.429 . S
C398 C396 1.419 . S
C398 C399 1.363 . S
C398 H401 0.929 . S
C399 C398 1.363 . S
C399 C405 1.428 . S
H400 C396 0.930 1_655 S
H401 C398 0.929 . S
S402 N403 1.613 . S
S402 N404 1.610 . S
N403 S402 1.613 . S
N403 C406 1.350 . S
N404 S402 1.610 . S
N404 C405 1.351 . S
C405 C399 1.428 . S
C405 N404 1.351 . S
C405 C406 1.434 . S
C406 C397 1.429 . S
C406 N403 1.350 . S
C406 C405 1.434 . S
C407 C408 1.369 1_565 S
C407 C409 1.419 1_565 S
C407 H411 0.930 . S
C408 C407 1.369 1_545 S
C408 C417 1.429 . S
C409 C407 1.419 1_545 S
C409 C410 1.363 . S
C409 H412 0.929 . S
C410 C409 1.363 . S
C410 C416 1.428 . S
H411 C407 0.930 . S
H412 C409 0.929 . S
S413 N414 1.613 . S
S413 N415 1.610 . S
N414 S413 1.613 . S
N414 C417 1.350 . S
N415 S413 1.610 . S
N415 C416 1.351 . S
C416 C410 1.428 . S
C416 N415 1.351 . S
C416 C417 1.434 . S
C417 C408 1.429 . S
C417 N414 1.350 . S
C417 C416 1.434 . S
C418 C419 1.369 . S
C418 C420 1.419 . S
C418 H422 0.930 . S
C419 C418 1.369 . S
C419 C428 1.429 . S
C420 C418 1.419 . S
C420 C421 1.363 . S
C420 H423 0.929 . S
C421 C420 1.363 . S
C421 C427 1.428 . S
H422 C418 0.930 . S
H423 C420 0.929 . S
S424 N425 1.613 . S
S424 N426 1.610 . S
N425 S424 1.613 . S
N425 C428 1.350 . S
N426 S424 1.610 . S
N426 C427 1.351 . S
C427 C421 1.428 . S
C427 N426 1.351 . S
C427 C428 1.434 . S
C428 C419 1.429 . S
C428 N425 1.350 . S
C428 C427 1.434 . S
C429 C430 1.369 . S
C429 C431 1.419 . S
C429 H433 0.930 . S
C430 C429 1.369 . S
C430 C439 1.429 . S
C431 C429 1.419 . S
C431 C432 1.363 . S
C431 H434 0.929 . S
C432 C431 1.363 . S
C432 C438 1.428 . S
H433 C429 0.930 . S
H434 C431 0.929 . S
S435 N436 1.613 . S
S435 N437 1.610 . S
N436 S435 1.613 . S
N436 C439 1.350 . S
N437 S435 1.610 . S
N437 C438 1.351 . S
C438 C432 1.428 . S
C438 N437 1.351 . S
C438 C439 1.434 . S
C439 C430 1.429 . S
C439 N436 1.350 . S
C439 C438 1.434 . S
C440 C441 1.369 1_655 S
C440 C442 1.418 1_655 S
C440 H444 0.930 . S
C441 C440 1.369 1_455 S
C441 C450 1.429 . S
C442 C440 1.418 1_455 S
C442 C443 1.363 . S
C442 H445 0.930 . S
C443 C442 1.363 . S
C443 C449 1.428 . S
H444 C440 0.930 . S
H445 C442 0.930 . S
S446 N447 1.613 . S
S446 N448 1.610 . S
N447 S446 1.613 . S
N447 C450 1.350 1_554 S
N448 S446 1.610 . S
N448 C449 1.351 1_554 S
C449 C443 1.428 . S
C449 N448 1.351 1_556 S
C449 C450 1.434 . S
C450 C441 1.429 . S
C450 N447 1.350 1_556 S
C450 C449 1.434 . S
C451 C452 1.369 . S
C451 C453 1.419 . S
C451 H455 0.930 . S
C452 C451 1.369 . S
C452 C461 1.429 1_545 S
C453 C451 1.419 . S
C453 C454 1.363 . S
C453 H456 0.929 . S
C454 C453 1.363 . S
C454 C460 1.428 1_545 S
H455 C451 0.930 . S
H456 C453 0.929 . S
S457 N458 1.613 . S
S457 N459 1.610 . S
N458 S457 1.613 . S
N458 C461 1.350 . S
N459 S457 1.610 . S
N459 C460 1.351 . S
C460 C454 1.428 1_565 S
C460 N459 1.351 . S
C460 C461 1.434 . S
C461 C452 1.429 1_565 S
C461 N458 1.350 . S
C461 C460 1.434 . S
C462 C463 1.369 . S
C462 C464 1.419 . S
C462 H466 0.930 . S
C463 C462 1.369 . S
C463 C472 1.429 . S
C464 C462 1.419 . S
C464 C465 1.363 . S
C464 H467 0.929 . S
C465 C464 1.363 . S
C465 C471 1.428 . S
H466 C462 0.930 . S
H467 C464 0.929 . S
S468 N469 1.613 . S
S468 N470 1.610 . S
N469 S468 1.613 . S
N469 C472 1.350 . S
N470 S468 1.610 . S
N470 C471 1.351 . S
C471 C465 1.428 . S
C471 N470 1.351 . S
C471 C472 1.434 . S
C472 C463 1.429 . S
C472 N469 1.350 . S
C472 C471 1.434 . S
C473 C474 1.369 . S
C473 C475 1.419 . S
C473 H477 0.930 1_556 S
C474 C473 1.369 . S
C474 C483 1.429 . S
C475 C473 1.419 . S
C475 C476 1.363 . S
C475 H478 0.929 1_556 S
C476 C475 1.363 . S
C476 C482 1.428 . S
H477 C473 0.930 1_554 S
H478 C475 0.929 1_554 S
S479 N480 1.613 . S
S479 N481 1.610 . S
N480 S479 1.613 . S
N480 C483 1.350 . S
N481 S479 1.610 . S
N481 C482 1.351 . S
C482 C476 1.428 . S
C482 N481 1.351 . S
C482 C483 1.434 . S
C483 C474 1.429 . S
C483 N480 1.350 . S
C483 C482 1.434 . S
C484 C485 1.369 1_455 S
C484 C486 1.419 . S
C484 H488 0.930 . S
C485 C484 1.369 1_655 S
C485 C494 1.429 . S
C486 C484 1.419 . S
C486 C487 1.363 1_455 S
C486 H489 0.929 . S
C487 C486 1.363 1_655 S
C487 C493 1.428 . S
H488 C484 0.930 . S
H489 C486 0.929 . S
S490 N491 1.613 . S
S490 N492 1.610 . S
N491 S490 1.613 . S
N491 C494 1.350 . S
N492 S490 1.610 . S
N492 C493 1.351 . S
C493 C487 1.428 . S
C493 N492 1.351 . S
C493 C494 1.434 . S
C494 C485 1.429 . S
C494 N491 1.350 . S
C494 C493 1.434 . S
C495 C496 1.369 . S
C495 C497 1.419 . S
C495 H499 0.930 . S
C496 C495 1.369 . S
C496 C505 1.429 1_565 S
C497 C495 1.419 . S
C497 C498 1.363 . S
C497 H500 0.929 . S
C498 C497 1.363 . S
C498 C504 1.428 1_565 S
H499 C495 0.930 . S
H500 C497 0.929 . S
S501 N502 1.613 1_554 S
S501 N503 1.610 1_554 S
N502 S501 1.613 1_556 S
N502 C505 1.350 . S
N503 S501 1.610 1_556 S
N503 C504 1.351 . S
C504 C498 1.428 1_545 S
C504 N503 1.351 . S
C504 C505 1.434 . S
C505 C496 1.429 1_545 S
C505 N502 1.350 . S
C505 C504 1.434 . S
C506 C507 1.369 . S
C506 C508 1.419 . S
C506 H510 0.930 . S
C507 C506 1.369 . S
C507 C516 1.429 . S
C508 C506 1.419 . S
C508 C509 1.363 . S
C508 H511 0.929 . S
C509 C508 1.363 . S
C509 C515 1.428 . S
H510 C506 0.930 . S
H511 C508 0.929 . S
S512 N513 1.613 1_554 S
S512 N514 1.610 1_554 S
N513 S512 1.613 1_556 S
N513 C516 1.350 . S
N514 S512 1.610 1_556 S
N514 C515 1.351 . S
C515 C509 1.428 . S
C515 N514 1.351 . S
C515 C516 1.434 . S
C516 C507 1.429 . S
C516 N513 1.350 . S
C516 C515 1.434 . S
C517 C518 1.369 . S
C517 C519 1.419 . S
C517 H521 0.930 . S
C518 C517 1.369 . S
C518 C527 1.429 . S
C519 C517 1.419 . S
C519 C520 1.363 . S
C519 H522 0.929 . S
C520 C519 1.363 . S
C520 C526 1.428 . S
H521 C517 0.930 . S
H522 C519 0.929 . S
S523 N524 1.608 1_554 S
S523 N525 1.610 1_554 S
N524 S523 1.608 1_556 S
N524 C527 1.358 . S
N525 S523 1.610 1_556 S
N525 C526 1.351 . S
C526 C520 1.428 . S
C526 N525 1.351 . S
C526 C527 1.434 . S
C527 C518 1.429 . S
C527 N524 1.358 . S
C527 C526 1.434 . S
C265 C82 1.743 . S
C267 C113 2.174 1_545 S
C278 C153 2.194 . S
C276 C95 1.745 . S
C289 C193 2.204 . S
C287 C56 1.770 . S
C300 C233 2.186 1_455 S
C298 C69 1.769 . S
C311 C122 2.176 1_564 S
C309 C30 1.759 1_565 S
C320 C43 1.780 . S
C322 C162 2.196 1_554 S
C331 C4 1.802 . S
C333 C202 2.203 1_554 S
C342 C17 1.756 1_655 S
C344 C242 2.187 1_654 S
C355 C119 0.824 . S
C353 C74 0.826 1_655 S
C366 C159 0.822 . S
C364 C87 0.826 1_565 S
C377 C199 0.825 . S
C375 C100 0.811 . S
C386 C61 0.817 . S
C388 C239 0.811 . S
C397 C22 0.824 . S
C399 C110 0.832 . S
C410 C150 0.834 . S
C408 C35 0.818 . S
C421 C190 0.824 . S
C419 C48 0.815 . S
C430 C9 0.832 . S
C432 C230 0.812 . S
C441 C73 2.240 . S
C443 C123 2.556 . S
C452 C86 2.205 . S
C454 C163 2.517 . S
C465 C203 2.503 . S
C463 C99 2.191 . S
C476 C243 2.544 . S
C474 C60 2.231 . S
C485 C21 2.242 1_655 S
C487 C114 2.565 . S
C498 C154 2.518 . S
C496 C34 2.212 1_565 S
C509 C194 2.504 . S
C507 C47 2.203 . S
C518 C8 2.240 . S
C520 C234 2.550 . S
