# Generated by pormake.
# Topology zzz, (3,6)-cn, num edge types: 1
# Building blocks:
#     Node 0, Type 0, BuildingBlock: BELTOD_clean_linker_0, # of connection points: 3
#     Node 1, Type 0, BuildingBlock: BELTOD_clean_linker_0, # of connection points: 3
#     Node 2, Type 0, BuildingBlock: BELTOD_clean_linker_0, # of connection points: 3
#     Node 3, Type 0, BuildingBlock: BELTOD_clean_linker_0, # of connection points: 3
#     Node 4, Type 0, BuildingBlock: BELTOD_clean_linker_0, # of connection points: 3
#     Node 5, Type 0, BuildingBlock: BELTOD_clean_linker_0, # of connection points: 3
#     Node 6, Type 0, BuildingBlock: BELTOD_clean_linker_0, # of connection points: 3
#     Node 7, Type 0, BuildingBlock: BELTOD_clean_linker_0, # of connection points: 3
#     Node 8, Type 1, BuildingBlock: BETGAK_clean_sbu_0, # of connection points: 6
#     Node 9, Type 1, BuildingBlock: BETGAK_clean_sbu_0, # of connection points: 6
#     Node 10, Type 1, BuildingBlock: BETGAK_clean_sbu_0, # of connection points: 6
#     Node 11, Type 1, BuildingBlock: BETGAK_clean_sbu_0, # of connection points: 6
#     Edge 12, Type (0, 1), BuildingBlock: TEMPAE_clean_linker_10, # of connection points: 2
#     Edge 13, Type (0, 1), BuildingBlock: TEMPAE_clean_linker_10, # of connection points: 2
#     Edge 14, Type (0, 1), BuildingBlock: TEMPAE_clean_linker_10, # of connection points: 2
#     Edge 15, Type (0, 1), BuildingBlock: TEMPAE_clean_linker_10, # of connection points: 2
#     Edge 16, Type (0, 1), BuildingBlock: TEMPAE_clean_linker_10, # of connection points: 2
#     Edge 17, Type (0, 1), BuildingBlock: TEMPAE_clean_linker_10, # of connection points: 2
#     Edge 18, Type (0, 1), BuildingBlock: TEMPAE_clean_linker_10, # of connection points: 2
#     Edge 19, Type (0, 1), BuildingBlock: TEMPAE_clean_linker_10, # of connection points: 2
#     Edge 20, Type (0, 1), BuildingBlock: TEMPAE_clean_linker_10, # of connection points: 2
#     Edge 21, Type (0, 1), BuildingBlock: TEMPAE_clean_linker_10, # of connection points: 2
#     Edge 22, Type (0, 1), BuildingBlock: TEMPAE_clean_linker_10, # of connection points: 2
#     Edge 23, Type (0, 1), BuildingBlock: TEMPAE_clean_linker_10, # of connection points: 2
#     Edge 24, Type (0, 1), BuildingBlock: TEMPAE_clean_linker_10, # of connection points: 2
#     Edge 25, Type (0, 1), BuildingBlock: TEMPAE_clean_linker_10, # of connection points: 2
#     Edge 26, Type (0, 1), BuildingBlock: TEMPAE_clean_linker_10, # of connection points: 2
#     Edge 27, Type (0, 1), BuildingBlock: TEMPAE_clean_linker_10, # of connection points: 2
#     Edge 28, Type (0, 1), BuildingBlock: TEMPAE_clean_linker_10, # of connection points: 2
#     Edge 29, Type (0, 1), BuildingBlock: TEMPAE_clean_linker_10, # of connection points: 2
#     Edge 30, Type (0, 1), BuildingBlock: TEMPAE_clean_linker_10, # of connection points: 2
#     Edge 31, Type (0, 1), BuildingBlock: TEMPAE_clean_linker_10, # of connection points: 2
#     Edge 32, Type (0, 1), BuildingBlock: TEMPAE_clean_linker_10, # of connection points: 2
#     Edge 33, Type (0, 1), BuildingBlock: TEMPAE_clean_linker_10, # of connection points: 2
#     Edge 34, Type (0, 1), BuildingBlock: TEMPAE_clean_linker_10, # of connection points: 2
#     Edge 35, Type (0, 1), BuildingBlock: TEMPAE_clean_linker_10, # of connection points: 2
# Relax obj value: 0.439
# Max RMSD: 0.255
# Mean RMSD: 0.244
data_MOF--net-zzz--node1-BETGAK_clean_sbu_0--node2-BELTOD_clean_linker_0--edge1-TEMPAE_clean_linker_10
_symmetry_space_group_name_H-M    P1
_symmetry_Int_Tables_number       1
_symmetry_cell_setting            triclinic
loop_
_symmetry_equiv_pos_as_xyz
'x, y, z'
_cell_length_a     56.806927
_cell_length_b     56.8016
_cell_length_c     17.329857
_cell_angle_alpha  89.907431
_cell_angle_beta   89.899962
_cell_angle_gamma 90.037335
loop_
_atom_site_label
_atom_site_type_symbol
_atom_site_fract_x
_atom_site_fract_y
_atom_site_fract_z
_atom_type_partial_charge
P0 P 0.72124 0.47758 0.36548 0.0
H1 H 0.7363 0.49417 0.51833 0.0
H2 H 0.77518 0.5055 0.56551 0.0
H3 H 0.80037 0.51019 0.3309 0.0
H4 H 0.76131 0.49903 0.28389 0.0
H5 H 0.67148 0.46683 0.35776 0.0
H6 H 0.64052 0.47818 0.26943 0.0
H7 H 0.68713 0.52928 0.16441 0.0
H8 H 0.71863 0.51689 0.25243 0.0
H9 H 0.76027 0.44585 0.39187 0.0
H10 H 0.71187 0.46051 0.2063 0.0
O11 O 0.70993 0.46395 0.44249 0.0
H12 H 0.7858 0.425 0.30308 0.0
H13 H 0.7366 0.43837 0.11778 0.0
C14 C 0.74576 0.49563 0.3974 0.0
C15 C 0.74986 0.49854 0.47672 0.0
C16 C 0.77223 0.50491 0.50381 0.0
C17 C 0.79107 0.50828 0.45209 0.0
C18 C 0.78637 0.50733 0.37237 0.0
C19 C 0.76389 0.50129 0.34534 0.0
C20 C 0.6973 0.49137 0.31324 0.0
C21 C 0.67492 0.481 0.31741 0.0
C22 C 0.65707 0.48759 0.26639 0.0
C23 C 0.66104 0.5048 0.20927 0.0
C24 C 0.68335 0.5158 0.20692 0.0
C25 C 0.70135 0.50902 0.25805 0.0
C26 C 0.73458 0.4554 0.30548 0.0
C27 C 0.75467 0.44378 0.33253 0.0
C28 C 0.76921 0.43163 0.28143 0.0
C29 C 0.7636 0.43043 0.20239 0.0
C30 C 0.74186 0.4396 0.17766 0.0
C31 C 0.72758 0.45222 0.22862 0.0
P32 P 0.04458 0.72173 0.36364 0.0
H33 H 0.0432 0.74083 0.51961 0.0
H34 H 0.03227 0.77954 0.56778 0.0
H35 H 0.99943 0.79578 0.3501 0.0
H36 H 0.01097 0.75686 0.30067 0.0
H37 H 0.06384 0.67762 0.31467 0.0
H38 H 0.05163 0.64774 0.22265 0.0
H39 H 0.9858 0.68415 0.18896 0.0
H40 H 0.99835 0.71458 0.2822 0.0
H41 H 0.09132 0.74211 0.38907 0.0
H42 H 0.04138 0.73616 0.20307 0.0
O43 O 0.06004 0.7087 0.43356 0.0
H44 H 0.11461 0.76986 0.31241 0.0
H45 H 0.06375 0.76429 0.12777 0.0
C46 C 0.02763 0.7455 0.40655 0.0
C47 C 0.0329 0.75221 0.48262 0.0
C48 C 0.02688 0.77456 0.51013 0.0
C49 C 0.01522 0.79081 0.46256 0.0
C50 C 0.00833 0.78358 0.38825 0.0
C51 C 0.0147 0.76119 0.36021 0.0
C52 C 0.03191 0.69822 0.30647 0.0
C53 C 0.04652 0.67904 0.28901 0.0
C54 C 0.03963 0.66202 0.23571 0.0
C55 C 0.01784 0.66364 0.1981 0.0
C56 C 1.00267 0.6824 0.21741 0.0
C57 C 0.00978 0.69976 0.27072 0.0
C58 C 0.06479 0.7369 0.30133 0.0
C59 C 0.08576 0.74622 0.33087 0.0
C60 C 0.09896 0.76221 0.28717 0.0
C61 C 0.09107 0.76944 0.21391 0.0
C62 C 0.07075 0.75885 0.18307 0.0
C63 C 0.05775 0.74279 0.22645 0.0
P64 P 0.78925 0.0398 0.36673 0.0
H65 H 0.77063 0.03597 0.52329 0.0
H66 H 0.73163 0.02519 0.57023 0.0
H67 H 0.71449 0.99641 0.34735 0.0
H68 H 0.75358 0.00796 0.29909 0.0
H69 H 0.83461 0.05798 0.32433 0.0
H70 H 0.86432 0.04613 0.23091 0.0
H71 H 0.82542 0.98245 0.18462 0.0
H72 H 0.79525 0.99457 0.27936 0.0
H73 H 0.76239 0.08218 0.40104 0.0
H74 H 0.78108 0.04153 0.20002 0.0
O75 O 0.80199 0.0549 0.43793 0.0
H76 H 0.73399 0.10449 0.32403 0.0
H77 H 0.75284 0.06344 0.12355 0.0
C78 C 0.76544 0.02246 0.40768 0.0
C79 C 0.75898 0.02654 0.48483 0.0
C80 C 0.73651 0.02058 0.5117 0.0
C81 C 0.71998 0.01012 0.46236 0.0
C82 C 0.72696 1.00432 0.38679 0.0
C83 C 0.74944 0.01066 0.35944 0.0
C84 C 0.81282 0.02703 0.30999 0.0
C85 C 0.83263 0.04115 0.29574 0.0
C86 C 0.84955 0.03449 0.24161 0.0
C87 C 0.84714 0.01347 0.1999 0.0
C88 C 0.82778 0.99871 0.21623 0.0
C89 C 0.81057 0.00557 0.27045 0.0
C90 C 0.77408 0.06043 0.30609 0.0
C91 C 0.76103 0.07866 0.33979 0.0
C92 C 0.74475 0.0913 0.29589 0.0
C93 C 0.74118 0.08572 0.21777 0.0
C94 C 0.75547 0.0685 0.18316 0.0
C95 C 0.77163 0.05584 0.2271 0.0
P96 P 0.47137 0.79018 0.36417 0.0
H97 H 0.48703 0.77654 0.51949 0.0
H98 H 0.49948 0.73832 0.56957 0.0
H99 H 0.50839 0.71297 0.33678 0.0
H100 H 0.49633 0.75143 0.28683 0.0
H101 H 0.45162 0.83531 0.32549 0.0
H102 H 0.4619 0.86554 0.23133 0.0
H103 H 0.52569 0.82797 0.17575 0.0
H104 H 0.51507 0.79725 0.2707 0.0
H105 H 0.43262 0.75914 0.40584 0.0
H106 H 0.46532 0.7847 0.19689 0.0
O107 O 0.45718 0.80189 0.4393 0.0
H108 H 0.41348 0.72777 0.33234 0.0
H109 H 0.44616 0.75362 0.12379 0.0
C110 C 0.49059 0.767 0.39918 0.0
C111 C 0.49261 0.76316 0.47899 0.0
C112 C 0.49961 0.74115 0.50774 0.0
C113 C 0.50446 0.7224 0.4572 0.0
C114 C 0.5044 0.72692 0.37729 0.0
C115 C 0.49779 0.74906 0.34864 0.0
C116 C 0.48277 0.81422 0.30635 0.0
C117 C 0.46814 0.83377 0.29458 0.0
C118 C 0.4739 0.85097 0.2401 0.0
C119 C 0.49453 0.8491 0.19579 0.0
C120 C 0.50975 0.82995 0.20948 0.0
C121 C 0.50377 0.81245 0.26386 0.0
C122 C 0.45029 0.77435 0.30696 0.0
C123 C 0.43474 0.75876 0.34372 0.0
C124 C 0.42381 0.74084 0.30174 0.0
C125 C 0.42856 0.73826 0.2227 0.0
C126 C 0.44231 0.75527 0.18481 0.0
C127 C 0.45319 0.77314 0.22669 0.0
P128 P 0.28533 0.45859 0.07627 0.0
H129 H 0.27231 0.45612 0.91248 0.0
H130 H 0.23665 0.46824 0.84508 0.0
H131 H 0.21529 0.50833 0.04486 0.0
H132 H 0.25146 0.49687 0.1106 0.0
H133 H 0.32775 0.43457 0.12102 0.0
H134 H 0.36102 0.44622 0.20032 0.0
H135 H 0.33852 0.51861 0.18858 0.0
H136 H 0.3046 0.50672 0.10849 0.0
H137 H 0.25126 0.42188 0.1172 0.0
H138 H 0.28359 0.48188 0.22664 0.0
O139 O 0.29031 0.43314 0.03103 0.0
H140 H 0.22371 0.41849 0.22534 0.0
H141 H 0.25607 0.4793 0.33156 0.0
C142 C 0.2647 0.47532 0.01728 0.0
C143 C 0.26041 0.46819 0.94101 0.0
C144 C 0.23966 0.47484 0.90279 0.0
C145 C 0.22251 0.48876 0.93993 0.0
C146 C 0.22789 0.49758 0.01393 0.0
C147 C 0.24876 0.49104 0.05188 0.0
C148 C 0.31374 0.46977 0.10741 0.0
C149 C 0.33032 0.45313 0.13252 0.0
C150 C 0.34928 0.45975 0.17887 0.0
C151 C 0.35227 0.48326 0.20145 0.0
C152 C 0.33671 0.50035 0.17174 0.0
C153 C 0.31745 0.49362 0.12538 0.0
C154 C 0.26959 0.45204 0.16379 0.0
C155 C 0.25293 0.43386 0.16543 0.0
C156 C 0.23712 0.43204 0.2271 0.0
C157 C 0.23745 0.44876 0.28703 0.0
C158 C 0.25541 0.4658 0.2876 0.0
C159 C 0.27124 0.46743 0.22662 0.0
P160 P 0.05391 0.28391 0.09136 0.0
H161 H 0.06682 0.26709 0.93659 0.0
H162 H 0.05581 0.23161 0.86633 0.0
H163 H 1.00002 0.21874 0.03079 0.0
H164 H 0.01062 0.25487 0.09896 0.0
H165 H 0.07822 0.32883 0.1036 0.0
H166 H 0.0676 0.36449 0.17089 0.0
H167 H 0.99532 0.34097 0.18273 0.0
H168 H 0.00649 0.30448 0.1164 0.0
H169 H 0.06311 0.23584 0.14121 0.0
H170 H 0.04267 0.30111 0.2501 0.0
O171 O 0.08235 0.2853 0.0673 0.0
H172 H 0.05083 0.21436 0.25614 0.0
H173 H 0.02992 0.2796 0.36387 0.0
C174 C 0.03974 0.26375 0.0238 0.0
C175 C 0.05168 0.25714 0.9562 0.0
C176 C 0.04558 0.23646 0.91662 0.0
C177 C 0.02742 0.22165 0.94375 0.0
C178 C 0.01412 0.22948 0.00766 0.0
C179 C 0.02011 0.25034 0.0468 0.0
C180 C 0.04318 0.31383 0.10391 0.0
C181 C 0.05984 0.33163 0.11732 0.0
C182 C 0.05369 0.35223 0.15665 0.0
C183 C 0.0306 0.35573 0.18396 0.0
C184 C 0.01339 0.33881 0.16414 0.0
C185 C 0.01962 0.31808 0.12445 0.0
C186 C 0.05246 0.26989 0.18473 0.0
C187 C 0.05648 0.24564 0.19023 0.0
C188 C 0.04963 0.23339 0.25632 0.0
C189 C 0.03891 0.24535 0.31806 0.0
C190 C 0.03766 0.26998 0.31624 0.0
C191 C 0.04469 0.28222 0.25031 0.0
P192 P 0.22692 0.04732 0.09872 0.0
H193 H 0.24411 0.06503 0.94957 0.0
H194 H 0.27921 0.05537 0.87526 0.0
H195 H 0.28958 0.99341 0.01589 0.0
H196 H 0.25383 1.00285 0.08848 0.0
H197 H 0.17963 0.06762 0.09071 0.0
H198 H 0.14389 0.05711 0.15978 0.0
H199 H 0.17439 0.98989 0.2196 0.0
H200 H 0.20996 1.00027 0.14714 0.0
H201 H 0.27669 0.05209 0.13752 0.0
H202 H 0.21186 0.03995 0.26185 0.0
O203 O 0.22393 0.07599 0.07981 0.0
H204 H 0.29895 0.03898 0.24901 0.0
H205 H 0.23416 0.02635 0.37339 0.0
C206 C 0.24622 0.03479 0.0253 0.0
C207 C 0.25337 0.04889 0.96288 0.0
C208 C 0.27383 0.04352 0.92101 0.0
C209 C 0.28786 0.02396 0.9407 0.0
C210 C 0.27941 0.00864 0.99871 0.0
C211 C 0.25875 0.01394 0.04017 0.0
C212 C 0.19777 0.03488 0.11416 0.0
C213 C 0.17838 0.05019 0.11569 0.0
C214 C 0.15796 0.04428 0.15667 0.0
C215 C 0.15645 0.023 0.19815 0.0
C216 C 0.17482 0.00651 0.18895 0.0
C217 C 0.19521 0.01233 0.14669 0.0
C218 C 0.24261 0.04519 0.18893 0.0
C219 C 0.26719 0.04684 0.18898 0.0
C220 C 0.27993 0.03957 0.2533 0.0
C221 C 0.26822 0.03096 0.31912 0.0
C222 C 0.24358 0.03223 0.32247 0.0
C223 C 0.23085 0.03973 0.25813 0.0
P224 P 0.45891 0.23066 0.08959 0.0
H225 H 0.44489 0.24531 0.93348 0.0
H226 H 0.45565 0.27996 0.8581 0.0
H227 H 0.51351 0.29322 0.01369 0.0
H228 H 0.50332 0.2578 0.08612 0.0
H229 H 0.4318 0.18862 0.12343 0.0
H230 H 0.44205 0.15269 0.19017 0.0
H231 H 0.51585 0.16972 0.16641 0.0
H232 H 0.50518 0.20643 0.09975 0.0
H233 H 0.44819 0.2786 0.1339 0.0
H234 H 0.47899 0.21756 0.24311 0.0
O235 O 0.43006 0.23096 0.07143 0.0
H236 H 0.46406 0.30339 0.23571 0.0
H237 H 0.49493 0.24228 0.34432 0.0
C238 C 0.47307 0.24891 0.01634 0.0
C239 C 0.46048 0.25509 0.9497 0.0
C240 C 0.46642 0.27534 0.90731 0.0
C241 C 0.48501 0.29015 0.93087 0.0
C242 C 0.49904 0.28253 0.99326 0.0
C243 C 0.49327 0.26204 0.03491 0.0
C244 C 0.46767 0.20029 0.10543 0.0
C245 C 0.45027 0.18429 0.12923 0.0
C246 C 0.45621 0.16357 0.16813 0.0
C247 C 0.47983 0.15821 0.18493 0.0
C248 C 0.49745 0.17336 0.15559 0.0
C249 C 0.49142 0.19418 0.11596 0.0
C250 C 0.46315 0.24638 0.17871 0.0
C251 C 0.45771 0.2704 0.18091 0.0
C252 C 0.46675 0.28455 0.2394 0.0
C253 C 0.48118 0.27477 0.29699 0.0
C254 C 0.48433 0.2503 0.29951 0.0
C255 C 0.47527 0.23616 0.24094 0.0
La256 La 0.01859 0.99825 0.77958 0.0
La257 La 0.9873 0.01228 0.64154 0.0
C258 C 0.03036 0.98347 0.91034 0.0
C259 C 0.04496 0.96433 0.9401 0.0
C260 C 0.06002 0.95167 0.89107 0.0
C261 C 0.07201 0.93191 0.91881 0.0
C262 C 0.06878 0.92452 0.99546 0.0
C263 C 0.05437 0.93781 0.04492 0.0
C264 C 0.04256 0.9576 0.01737 0.0
C265 C 0.045 1.0034 0.65277 0.0
C266 C 1.00288 0.95965 0.65494 0.0
C267 C 0.96723 0.03172 0.52915 0.0
C268 C 0.96352 0.05661 0.5084 0.0
C269 C 0.94896 0.07132 0.55315 0.0
C270 C 0.94792 0.09546 0.53824 0.0
C271 C 0.96146 0.10535 0.47857 0.0
C272 C 0.97522 0.09039 0.43201 0.0
C273 C 0.97608 0.06629 0.44644 0.0
C274 C 0.96548 0.99715 0.76741 0.0
C275 C 0.00768 0.05231 0.75466 0.0
O276 O 0.04152 1.00039 0.87379 0.0
O277 O 0.01112 0.97677 0.8747 0.0
O278 O 0.05313 0.99753 0.71997 0.0
O279 O 0.02319 0.00607 0.66139 0.0
O280 O 0.00905 0.96406 0.72763 0.0
O281 O 0.99642 0.97662 0.60672 0.0
O282 O 0.95609 0.02413 0.59042 0.0
O283 O 0.98907 0.02435 0.52711 0.0
O284 O 0.95907 0.99228 0.69751 0.0
O285 O 0.98332 0.01035 0.76442 0.0
O286 O 0.99809 0.04704 0.68688 0.0
O287 O 0.01496 0.03579 0.80304 0.0
H288 H 0.06189 0.95663 0.83097 0.0
H289 H 0.08285 0.92178 0.87955 0.0
H290 H 0.05173 0.93246 0.10436 0.0
H291 H 0.03097 0.96722 0.05576 0.0
H292 H 0.9389 0.06436 0.60119 0.0
H293 H 0.93695 0.10643 0.57453 0.0
H294 H 0.98628 0.09739 0.38648 0.0
H295 H 0.98739 0.05535 0.41108 0.0
La296 La 0.50914 0.02031 0.75486 0.0
La297 La 0.49701 0.98846 0.63104 0.0
C298 C 0.52677 0.04101 0.8699 0.0
C299 C 0.5493 0.05211 0.88938 0.0
C300 C 0.55011 0.06882 0.94866 0.0
C301 C 0.57163 0.07851 0.97128 0.0
C302 C 0.59262 0.07149 0.93499 0.0
C303 C 0.5916 0.0554 0.87357 0.0
C304 C 0.57009 0.04583 0.85084 0.0
C305 C 0.49628 0.04177 0.62532 0.0
C306 C 0.54972 1.00142 0.64144 0.0
C307 C 0.47767 0.96797 0.51937 0.0
C308 C 0.45336 0.96002 0.50712 0.0
C309 C 0.44033 0.9494 0.56683 0.0
C310 C 0.41617 0.94553 0.55831 0.0
C311 C 0.40457 0.95261 0.49051 0.0
C312 C 0.41805 0.96227 0.42976 0.0
C313 C 0.44218 0.96577 0.4379 0.0
C314 C 0.51023 0.96688 0.75963 0.0
C315 C 0.45647 0.00737 0.74411 0.0
O316 O 0.51433 0.05162 0.81704 0.0
O317 O 0.52714 0.01818 0.86017 0.0
O318 O 0.49061 0.04865 0.69395 0.0
O319 O 0.50924 0.02389 0.6311 0.0
O320 O 0.54424 0.0097 0.71072 0.0
O321 O 0.53301 0.99472 0.59338 0.0
O322 O 0.48966 0.95697 0.57261 0.0
O323 O 0.48028 0.99081 0.52345 0.0
O324 O 0.51575 0.96022 0.69059 0.0
O325 O 0.49712 0.98475 0.75476 0.0
O326 O 0.46191 0.99961 0.67418 0.0
O327 O 0.47328 0.01338 0.79262 0.0
H328 H 0.53418 0.07394 0.97873 0.0
H329 H 0.57196 0.09069 0.01929 0.0
H330 H 0.60751 0.04984 0.84424 0.0
H331 H 0.56983 0.03314 0.80447 0.0
H332 H 0.44858 0.94496 0.62126 0.0
H333 H 0.4065 0.9378 0.6059 0.0
H334 H 0.40984 0.96856 0.37732 0.0
H335 H 0.45188 0.97422 0.39159 0.0
La336 La 0.48985 0.51442 0.77187 0.0
La337 La 0.51993 0.50063 0.64336 0.0
C338 C 0.47038 0.52125 0.90062 0.0
C339 C 0.45662 0.54008 0.93757 0.0
C340 C 0.43631 0.54948 0.90311 0.0
C341 C 0.42448 0.56833 0.93754 0.0
C342 C 0.43289 0.57826 0.00653 0.0
C343 C 0.45285 0.56827 0.04175 0.0
C344 C 0.46448 0.54931 0.00783 0.0
C345 C 0.46746 0.51223 0.63853 0.0
C346 C 0.50843 0.55541 0.669 0.0
C347 C 0.5393 0.49022 0.51776 0.0
C348 C 0.5421 0.46647 0.48605 0.0
C349 C 0.56361 0.45932 0.45356 0.0
C350 C 0.56758 0.43548 0.43733 0.0
C351 C 0.55023 0.41876 0.45532 0.0
C352 C 0.52854 0.42607 0.48523 0.0
C353 C 0.52446 0.44969 0.50011 0.0
C354 C 0.54185 0.50264 0.77754 0.0
C355 C 0.50085 0.46 0.7439 0.0
O356 O 0.46043 0.50994 0.84363 0.0
O357 O 0.49248 0.52618 0.88632 0.0
O358 O 0.46314 0.52743 0.69232 0.0
O359 O 0.48295 0.49794 0.66216 0.0
O360 O 0.49822 0.55019 0.73553 0.0
O361 O 0.51709 0.53878 0.62357 0.0
O362 O 0.551 0.49383 0.58142 0.0
O363 O 0.51763 0.49794 0.52273 0.0
O364 O 0.5455 0.48678 0.72553 0.0
O365 O 0.52688 0.51722 0.75271 0.0
O366 O 0.50697 0.46562 0.67277 0.0
O367 O 0.49658 0.47676 0.795 0.0
H368 H 0.42979 0.54262 0.84892 0.0
H369 H 0.40902 0.57539 0.90934 0.0
H370 H 0.46019 0.57569 0.09397 0.0
H371 H 0.48008 0.54229 0.03541 0.0
H372 H 0.57752 0.472 0.44329 0.0
H373 H 0.58429 0.43003 0.413 0.0
H374 H 0.51477 0.41339 0.49775 0.0
H375 H 0.50774 0.45462 0.52536 0.0
La376 La 1.00126 0.49151 0.7547 0.0
La377 La 0.01228 0.5262 0.63764 0.0
C378 C 0.98398 0.46831 0.86517 0.0
C379 C 0.96027 0.46053 0.88819 0.0
C380 C 0.95635 0.43672 0.90592 0.0
C381 C 0.93414 0.4291 0.93021 0.0
C382 C 0.91565 0.44529 0.93801 0.0
C383 C 0.91942 0.469 0.91861 0.0
C384 C 0.9415 0.47656 0.8934 0.0
C385 C 0.01593 0.47305 0.62268 0.0
C386 C 0.95958 0.51242 0.64972 0.0
C387 C 0.03031 0.54828 0.52642 0.0
C388 C 0.05481 0.54855 0.49883 0.0
C389 C 0.07321 0.55526 0.54846 0.0
C390 C 0.09624 0.54836 0.53258 0.0
C391 C 0.10099 0.53463 0.4675 0.0
C392 C 0.08321 0.53029 0.41346 0.0
C393 C 0.06021 0.53742 0.42875 0.0
C394 C 0.99748 0.54499 0.76871 0.0
C395 C 0.05374 0.50522 0.74357 0.0
O396 O 0.99256 0.45864 0.80289 0.0
O397 O 0.98821 0.49095 0.86784 0.0
O398 O 0.02185 0.46549 0.69045 0.0
O399 O 1.00198 0.49015 0.6307 0.0
O400 O 0.96567 0.50108 0.71359 0.0
O401 O 0.97563 0.5224 0.60536 0.0
O402 O 0.02636 0.55772 0.59398 0.0
O403 O 0.01974 0.52792 0.51935 0.0
O404 O 0.99193 0.55245 0.70046 0.0
O405 O 0.01137 0.52774 0.76159 0.0
O406 O 0.04785 0.51447 0.6758 0.0
O407 O 0.03727 0.49746 0.79088 0.0
H408 H 0.97058 0.42408 0.90189 0.0
H409 H 0.93159 0.41075 0.94522 0.0
H410 H 0.9053 0.48172 0.9236 0.0
H411 H 0.94392 0.49497 0.87903 0.0
H412 H 0.06966 0.56405 0.60266 0.0
H413 H 0.10991 0.55215 0.57413 0.0
H414 H 0.08674 0.5197 0.3628 0.0
H415 H 0.04634 0.53221 0.38946 0.0
C416 C 0.1274 0.99716 0.27123 0.0
C417 C 0.13733 0.01944 0.25719 0.0
C418 C 0.11074 0.99368 0.33084 0.0
C419 C 0.10385 0.01287 0.3781 0.0
C420 C 0.11337 0.03546 0.36295 0.0
C421 C 0.12993 0.03843 0.30327 0.0
C422 C 0.10102 0.96931 0.34464 0.0
C423 C 0.10673 0.05645 0.41177 0.0
C424 C 0.04934 0.00994 0.50883 0.0
C425 C 0.0594 0.00529 0.58104 0.0
C426 C 0.06343 0.012 0.44188 0.0
C427 C 0.08821 0.00919 0.44714 0.0
C428 C 0.09834 1.00403 0.51988 0.0
C429 C 0.08387 1.00218 0.58558 0.0
C430 C 0.05184 0.01751 0.36571 0.0
C431 C 0.12459 1.00086 0.52873 0.0
H432 H 0.13275 0.98237 0.23594 0.0
H433 H 0.13775 0.05564 0.29468 0.0
H434 H 0.10707 0.96271 0.40154 0.0
H435 H 0.0815 0.96981 0.34631 0.0
H436 H 0.10665 0.95664 0.29946 0.0
H437 H 0.11432 0.07313 0.38923 0.0
H438 H 0.0873 0.05829 0.41451 0.0
H439 H 0.11308 0.05379 0.47166 0.0
H440 H 0.03051 0.01201 0.50457 0.0
H441 H 0.09184 0.99843 0.64105 0.0
H442 H 0.05648 1.00388 0.32253 0.0
H443 H 0.05844 0.03461 0.34336 0.0
H444 H 0.03236 0.01847 0.37065 0.0
H445 H 0.13098 0.98697 0.48893 0.0
H446 H 0.12963 0.99598 0.58857 0.0
H447 H 0.13379 0.01743 0.51299 0.0
C448 C 0.47201 0.11758 0.2395 0.0
C449 C 0.48543 0.13841 0.23958 0.0
C450 C 0.47451 0.10048 0.2979 0.0
C451 C 0.49106 0.10398 0.35791 0.0
C452 C 0.50557 0.1243 0.35608 0.0
C453 C 0.50253 0.14125 0.29739 0.0
C454 C 0.45866 0.07914 0.29723 0.0
C455 C 0.52363 0.1287 0.41821 0.0
C456 C 0.47927 0.07643 0.55556 0.0
C457 C 0.49421 0.05679 0.55522 0.0
C458 C 0.47787 0.09164 0.49149 0.0
C459 C 0.49198 0.08735 0.42536 0.0
C460 C 0.50697 0.06738 0.42447 0.0
C461 C 0.50778 0.05226 0.48912 0.0
C462 C 0.4614 0.11247 0.4949 0.0
C463 C 0.52248 0.06223 0.35578 0.0
H464 H 0.45904 0.11488 0.19461 0.0
H465 H 0.51285 0.15729 0.29909 0.0
H466 H 0.46923 0.0628 0.30239 0.0
H467 H 0.44662 0.07975 0.34769 0.0
H468 H 0.44789 0.0781 0.2439 0.0
H469 H 0.53509 0.14401 0.40466 0.0
H470 H 0.51458 0.13209 0.47388 0.0
H471 H 0.53487 0.11292 0.42626 0.0
H472 H 0.46868 0.07999 0.60632 0.0
H473 H 0.51944 0.03716 0.48853 0.0
H474 H 0.44894 0.11188 0.44572 0.0
H475 H 0.47159 0.12906 0.4897 0.0
H476 H 0.45112 0.11299 0.54947 0.0
H477 H 0.5116 0.06039 0.30305 0.0
H478 H 0.53296 0.04589 0.36362 0.0
H479 H 0.53474 0.07715 0.34588 0.0
C480 C 0.36959 0.47656 0.33224 0.0
C481 C 0.36997 0.48901 0.26223 0.0
C482 C 0.38623 0.48091 0.39046 0.0
C483 C 0.40416 0.49788 0.3783 0.0
C484 C 0.40473 0.51049 0.30744 0.0
C485 C 0.38745 0.50611 0.25061 0.0
C486 C 0.38444 0.46746 0.4655 0.0
C487 C 0.42372 0.52844 0.29138 0.0
C488 C 0.43233 0.52343 0.55969 0.0
C489 C 0.45229 0.50916 0.5692 0.0
C490 C 0.41689 0.52031 0.49708 0.0
C491 C 0.42168 0.50277 0.44116 0.0
C492 C 0.44228 0.48882 0.44906 0.0
C493 C 0.45716 0.49199 0.5134 0.0
C494 C 0.39498 0.53528 0.49237 0.0
C495 C 0.44837 0.47021 0.39031 0.0
H496 H 0.35598 0.46347 0.34181 0.0
H497 H 0.3879 0.51568 0.19645 0.0
H498 H 0.40079 0.45726 0.47546 0.0
H499 H 0.38251 0.47993 0.51432 0.0
H500 H 0.36927 0.4551 0.46633 0.0
H501 H 0.42221 0.53621 0.23271 0.0
H502 H 0.4228 0.54284 0.33441 0.0
H503 H 0.4413 0.52012 0.29714 0.0
H504 H 0.4284 0.53678 0.60246 0.0
H505 H 0.47251 0.48089 0.52029 0.0
H506 H 0.37915 0.52389 0.497 0.0
H507 H 0.39412 0.54435 0.43575 0.0
H508 H 0.39421 0.54873 0.53877 0.0
H509 H 0.43512 0.45588 0.3925 0.0
H510 H 0.46606 0.46247 0.40047 0.0
H511 H 0.4479 0.4778 0.33129 0.0
C512 C 0.01052 0.37192 0.30316 0.0
C513 C 0.02547 0.3755 0.2394 0.0
C514 C 0.00796 0.38913 0.36119 0.0
C515 C 0.02083 0.41048 0.35652 0.0
C516 C 0.03526 0.41461 0.29107 0.0
C517 C 0.03725 0.39724 0.23333 0.0
C518 C 0.99214 0.38399 0.42928 0.0
C519 C 0.04939 0.43702 0.28348 0.0
C520 C 1.00305 0.46164 0.48866 0.0
C521 C 0.01827 0.45851 0.55159 0.0
C522 C 1.00378 0.44635 0.42449 0.0
C523 C 0.02039 0.4277 0.42242 0.0
C524 C 0.03632 0.42506 0.48479 0.0
C525 C 0.03493 0.44032 0.54862 0.0
C526 C 0.98631 0.44974 0.35994 0.0
C527 C 0.05462 0.4058 0.4848 0.0
H528 H 1.00154 0.35521 0.30975 0.0
H529 H 0.04851 0.40056 0.18399 0.0
H530 H 1.00295 0.382 0.48215 0.0
H531 H 0.97988 0.39889 0.43912 0.0
H532 H 0.98168 0.36766 0.42115 0.0
H533 H 0.05857 0.4383 0.22698 0.0
H534 H 0.03781 0.45259 0.29032 0.0
H535 H 0.06275 0.43779 0.33007 0.0
H536 H 0.99006 0.47559 0.49061 0.0
H537 H 0.04682 0.43787 0.59685 0.0
H538 H 0.97473 0.43405 0.3559 0.0
H539 H 0.99565 0.45144 0.30394 0.0
H540 H 0.97513 0.46556 0.36861 0.0
H541 H 0.04584 0.38834 0.4849 0.0
H542 H 0.06646 0.4068 0.53565 0.0
H543 H 0.06548 0.40687 0.43162 0.0
C544 C 0.86933 0.02557 0.08143 0.0
C545 C 0.86416 0.00818 0.13655 0.0
C546 C 0.88615 0.02178 0.02324 0.0
C547 C 0.89848 1.00013 0.02023 0.0
C548 C 0.89321 0.98237 0.07534 0.0
C549 C 0.87595 0.98652 0.13245 0.0
C550 C 0.89076 0.04107 0.96503 0.0
C551 C 0.90612 0.95917 0.0748 0.0
C552 C 0.92661 0.98624 0.82567 0.0
C553 C 0.94949 0.99512 0.8351 0.0
C554 C 0.91012 0.98688 0.88631 0.0
C555 C 0.9167 0.99632 0.9588 0.0
C556 C 0.94019 1.00414 0.9698 0.0
C557 C 0.95624 1.00362 0.90769 0.0
C558 C 0.88528 0.9786 0.87145 0.0
C559 C 0.94811 0.01397 0.04631 0.0
H560 H 0.86009 0.04225 0.08379 0.0
H561 H 0.87213 0.97309 0.1752 0.0
H562 H 0.90939 0.04683 0.96863 0.0
H563 H 0.88785 0.03433 0.90574 0.0
H564 H 0.87927 0.05664 0.97413 0.0
H565 H 0.89989 0.9471 0.12106 0.0
H566 H 0.90383 0.95034 0.01825 0.0
H567 H 0.92526 0.96227 0.08255 0.0
H568 H 0.92126 0.97961 0.76977 0.0
H569 H 0.9739 0.01044 0.91546 0.0
H570 H 0.8731 0.99384 0.87379 0.0
H571 H 0.87963 0.96599 0.91677 0.0
H572 H 0.88345 0.97 0.81423 0.0
H573 H 0.93929 0.0311 0.05682 0.0
H574 H 0.96746 0.01676 0.04831 0.0
H575 H 0.94298 1.00195 0.09398 0.0
C576 C 0.52052 0.87844 0.1266 0.0
C577 C 0.49901 0.86643 0.13264 0.0
C578 C 0.52413 0.8957 0.06908 0.0
C579 C 0.50598 0.90071 0.01533 0.0
C580 C 0.48441 0.88826 0.02053 0.0
C581 C 0.48115 0.87148 0.07928 0.0
C582 C 0.54724 0.90879 0.06636 0.0
C583 C 0.46474 0.89257 0.96372 0.0
C584 C 0.50266 0.95799 0.89975 0.0
C585 C 0.51128 0.95091 0.82756 0.0
C586 C 0.50183 0.94216 0.96247 0.0
C587 C 0.50946 0.91857 0.95249 0.0
C588 C 0.51879 0.91158 0.8802 0.0
C589 C 0.51976 0.92786 0.819 0.0
C590 C 0.49213 0.95049 0.03879 0.0
C591 C 0.52681 0.8866 0.86634 0.0
H592 H 0.53431 0.87472 0.16802 0.0
H593 H 0.46457 0.86207 0.08317 0.0
H594 H 0.55594 0.90597 0.00978 0.0
H595 H 0.54405 0.92798 0.07213 0.0
H596 H 0.55945 0.90311 0.11279 0.0
H597 H 0.44921 0.88116 0.97485 0.0
H598 H 0.45905 0.91123 0.96655 0.0
H599 H 0.47108 0.88929 0.90409 0.0
H600 H 0.49617 0.9758 0.90685 0.0
H601 H 0.52649 0.92224 0.76342 0.0
H602 H 0.5044 0.94587 0.08621 0.0
H603 H 0.47518 0.9415 0.05086 0.0
H604 H 0.4891 0.96981 0.03949 0.0
H605 H 0.53983 0.88126 0.91063 0.0
H606 H 0.53484 0.88429 0.80835 0.0
H607 H 0.51156 0.87447 0.8715 0.0
C608 C 0.61843 0.50829 0.16847 0.0
C609 C 0.6425 0.50964 0.14953 0.0
C610 C 0.60087 0.50936 0.1113 0.0
C611 C 0.60734 0.51237 0.03295 0.0
C612 C 0.63145 0.51527 0.01388 0.0
C613 C 0.64869 0.51367 0.07204 0.0
C614 C 0.57545 0.50599 0.13446 0.0
C615 C 0.63918 0.51891 0.93133 0.0
C616 C 0.56921 0.48577 0.87487 0.0
C617 C 0.55694 0.50537 0.84676 0.0
C618 C 0.58509 0.48777 0.93658 0.0
C619 C 0.58928 0.51008 0.97038 0.0
C620 C 0.57662 0.52995 0.94299 0.0
C621 C 0.56039 0.52731 0.88198 0.0
C622 C 0.59767 0.46598 0.96478 0.0
C623 C 0.5808 0.55409 0.97643 0.0
H624 H 0.61324 0.50579 0.2281 0.0
H625 H 0.6671 0.51455 0.05592 0.0
H626 H 0.56436 0.52016 0.1097 0.0
H627 H 0.5689 0.48904 0.11103 0.0
H628 H 0.57308 0.50582 0.19811 0.0
H629 H 0.65809 0.52375 0.927 0.0
H630 H 0.6363 0.50248 0.89813 0.0
H631 H 0.62853 0.53294 0.90368 0.0
H632 H 0.56648 0.46874 0.84811 0.0
H633 H 0.55102 0.54254 0.86011 0.0
H634 H 0.59497 0.46381 0.02783 0.0
H635 H 0.61688 0.46782 0.95477 0.0
H636 H 0.59148 0.44977 0.93528 0.0
H637 H 0.57832 0.55375 0.03991 0.0
H638 H 0.56884 0.56754 0.95137 0.0
H639 H 0.59927 0.55952 0.96529 0.0
C640 C 0.99101 0.63342 0.13711 0.0
C641 C 0.01206 0.64635 0.13609 0.0
C642 C 0.98658 0.61585 0.08138 0.0
C643 C 1.00338 0.61143 0.02241 0.0
C644 C 0.02438 0.62488 0.02038 0.0
C645 C 0.02851 0.64197 0.07733 0.0
C646 C 0.96411 0.60174 0.0863 0.0
C647 C 0.04259 0.62123 0.95793 0.0
C648 C 0.00686 0.55407 0.90762 0.0
C649 C 0.99642 0.56061 0.83753 0.0
C650 C 0.00815 0.57001 0.96987 0.0
C651 C 0.99906 0.59315 0.96156 0.0
C652 C 0.98768 0.59946 0.89185 0.0
C653 C 0.98635 0.5831 0.83115 0.0
C654 C 0.02006 0.56237 0.0435 0.0
C655 C 0.97798 0.62393 0.87973 0.0
H656 H 0.97834 0.6366 0.18273 0.0
H657 H 0.04472 0.65206 0.07583 0.0
H658 H 0.9539 0.6037 0.03218 0.0
H659 H 0.96834 0.58277 0.09275 0.0
H660 H 0.95286 0.60723 0.13557 0.0
H661 H 0.05779 0.63342 0.96364 0.0
H662 H 0.04924 0.60288 0.95994 0.0
H663 H 0.0345 0.62391 0.90035 0.0
H664 H 0.01458 0.5367 0.91315 0.0
H665 H 0.97815 0.58831 0.77733 0.0
H666 H 0.0089 0.56674 0.09409 0.0
H667 H 0.03692 0.57202 0.05017 0.0
H668 H 0.02383 0.54318 0.04417 0.0
H669 H 0.96611 0.62883 0.92796 0.0
H670 H 0.96813 0.62555 0.82466 0.0
H671 H 0.99267 0.63683 0.87908 0.0
C672 C 0.03471 0.21124 0.40737 0.0
C673 C 0.02528 0.23179 0.3755 0.0
C674 C 0.01999 0.19434 0.44101 0.0
C675 C 0.99533 0.19817 0.44198 0.0
C676 C 0.98614 0.22021 0.41911 0.0
C677 C 1.0013 0.23684 0.38587 0.0
C678 C 0.03057 0.17128 0.46718 0.0
C679 C 0.9601 0.22538 0.42123 0.0
C680 C 0.96636 0.14074 0.39472 0.0
C681 C 0.96332 0.13123 0.46872 0.0
C682 C 0.97479 0.16366 0.38484 0.0
C683 C 0.97961 0.17755 0.45067 0.0
C684 C 0.97315 0.1694 0.52469 0.0
C685 C 0.96534 0.14609 0.53321 0.0
C686 C 0.9807 0.17207 0.30433 0.0
C687 C 0.97628 0.18464 0.59513 0.0
H688 H 0.05333 0.20759 0.40052 0.0
H689 H 0.99392 0.25279 0.36142 0.0
H690 H 0.02348 0.16615 0.52444 0.0
H691 H 0.02581 0.1572 0.42565 0.0
H692 H 0.05008 0.17218 0.47099 0.0
H693 H 0.95691 0.24443 0.43109 0.0
H694 H 0.95223 0.22074 0.36469 0.0
H695 H 0.95089 0.21512 0.46668 0.0
H696 H 0.96372 0.1297 0.34451 0.0
H697 H 0.96254 0.13911 0.59072 0.0
H698 H 1.00011 0.17333 0.29774 0.0
H699 H 0.9733 0.18987 0.29423 0.0
H700 H 0.97386 0.16002 0.25919 0.0
H701 H 0.99517 0.18516 0.61117 0.0
H702 H 0.966 0.17787 0.64505 0.0
H703 H 0.97074 0.203 0.5831 0.0
C704 C 0.2744 0.99493 0.39906 0.0
C705 C 0.28169 0.01765 0.37763 0.0
C706 C 0.28997 0.9794 0.43582 0.0
C707 C 0.31332 0.98679 0.45006 0.0
C708 C 0.31982 0.01056 0.43643 0.0
C709 C 0.30381 0.02575 0.40082 0.0
C710 C 0.28182 0.95464 0.45259 0.0
C711 C 0.34441 0.01942 0.45266 0.0
C712 C 0.36476 0.95956 0.55023 0.0
C713 C 0.37841 0.95311 0.48579 0.0
C714 C 0.34146 0.96726 0.54094 0.0
C715 C 0.33223 0.96947 0.46576 0.0
C716 C 0.34455 0.95963 0.40256 0.0
C717 C 0.36735 0.95105 0.41379 0.0
C718 C 0.32737 0.97498 0.61022 0.0
C719 C 0.33486 0.96075 0.32154 0.0
H720 H 0.25721 0.98858 0.38165 0.0
H721 H 0.3092 0.04351 0.38595 0.0
H722 H 0.28259 0.94412 0.39876 0.0
H723 H 0.29278 0.94582 0.49693 0.0
H724 H 0.2632 0.95468 0.47237 0.0
H725 H 0.34628 0.03858 0.44132 0.0
H726 H 0.34909 0.01602 0.51371 0.0
H727 H 0.35729 0.00988 0.41598 0.0
H728 H 0.3727 0.96055 0.6069 0.0
H729 H 0.37726 0.94468 0.36457 0.0
H730 H 0.30965 0.96676 0.60883 0.0
H731 H 0.32472 0.99432 0.6085 0.0
H732 H 0.3361 0.97016 0.66527 0.0
H733 H 0.31655 0.95401 0.32026 0.0
H734 H 0.34562 0.9504 0.28014 0.0
H735 H 0.33449 0.97935 0.30172 0.0
C736 C 0.48596 0.31107 0.37592 0.0
C737 C 0.49568 0.29045 0.34554 0.0
C738 C 0.50045 0.32896 0.40437 0.0
C739 C 0.52523 0.32597 0.40273 0.0
C740 C 0.53499 0.30422 0.3797 0.0
C741 C 0.52006 0.28669 0.35081 0.0
C742 C 0.48929 0.3518 0.43006 0.0
C743 C 0.56122 0.30006 0.37905 0.0
C744 C 0.55135 0.38539 0.36504 0.0
C745 C 0.55345 0.39358 0.4406 0.0
C746 C 0.54473 0.36205 0.35106 0.0
C747 C 0.54039 0.34685 0.41448 0.0
C748 C 0.5459 0.35421 0.49015 0.0
C749 C 0.55212 0.37776 0.50256 0.0
C750 C 0.53939 0.35468 0.26927 0.0
C751 C 0.5427 0.33801 0.55842 0.0
H752 H 0.46708 0.31377 0.37318 0.0
H753 H 0.52771 0.27078 0.32714 0.0
H754 H 0.49581 0.35684 0.48799 0.0
H755 H 0.4942 0.36611 0.3894 0.0
H756 H 0.46977 0.35066 0.43244 0.0
H757 H 0.56533 0.28101 0.38471 0.0
H758 H 0.56861 0.30627 0.32332 0.0
H759 H 0.57018 0.30977 0.4261 0.0
H760 H 0.55233 0.39781 0.31752 0.0
H761 H 0.55386 0.3843 0.56105 0.0
H762 H 0.52003 0.35373 0.26128 0.0
H763 H 0.54669 0.33696 0.25734 0.0
H764 H 0.54667 0.36729 0.22633 0.0
H765 H 0.52365 0.33519 0.56921 0.0
H766 H 0.55078 0.34531 0.6116 0.0
H767 H 0.55059 0.32054 0.54625 0.0
C768 C 0.1941 0.45023 0.30824 0.0
C769 C 0.21687 0.45191 0.33898 0.0
C770 C 0.17494 0.46061 0.34575 0.0
C771 C 0.17877 0.47324 0.41485 0.0
C772 C 0.20099 0.47239 0.45124 0.0
C773 C 0.21981 0.46144 0.41313 0.0
C774 C 0.15119 0.46039 0.30662 0.0
C775 C 0.20557 0.48521 0.52596 0.0
C776 C 0.14135 0.52807 0.41703 0.0
C777 C 0.12268 0.52082 0.46357 0.0
C778 C 0.16065 0.51319 0.40508 0.0
C779 C 0.16088 0.49055 0.43997 0.0
C780 C 0.14254 0.48379 0.49056 0.0
C781 C 0.12348 0.49903 0.50129 0.0
C782 C 0.1801 0.52114 0.35152 0.0
C783 C 0.14215 0.45998 0.52931 0.0
H784 H 0.19145 0.44288 0.25125 0.0
H785 H 0.23722 0.4621 0.43852 0.0
H786 H 0.13696 0.45701 0.34912 0.0
H787 H 0.14786 0.47786 0.28007 0.0
H788 H 0.15022 0.44683 0.26059 0.0
H789 H 0.22175 0.47867 0.55483 0.0
H790 H 0.20791 0.50425 0.51369 0.0
H791 H 0.19049 0.48339 0.56627 0.0
H792 H 0.14042 0.54497 0.38799 0.0
H793 H 0.10876 0.49359 0.53707 0.0
H794 H 0.17969 0.51048 0.29793 0.0
H795 H 0.19753 0.51839 0.37892 0.0
H796 H 0.17842 0.54001 0.33546 0.0
H797 H 0.13571 0.44663 0.48771 0.0
H798 H 0.13025 0.45984 0.58029 0.0
H799 H 0.16002 0.45459 0.548 0.0
C800 C 0.10085 0.79263 0.09487 0.0
C801 C 0.101 0.7907 0.17563 0.0
C802 C 0.10198 0.81474 0.05895 0.0
C803 C 0.10376 0.83519 0.10506 0.0
C804 C 0.10775 0.83299 0.18527 0.0
C805 C 0.1061 0.81074 0.21986 0.0
C806 C 0.09805 0.81628 0.97299 0.0
C807 C 0.11053 0.85434 0.23616 0.0
C808 C 0.10219 0.89616 0.01352 0.0
C809 C 0.0783 0.90174 0.02199 0.0
C810 C 0.11098 0.87444 0.03978 0.0
C811 C 0.09535 0.85804 0.07409 0.0
C812 C 0.07111 0.86353 0.08103 0.0
C813 C 0.06295 0.88535 0.05527 0.0
C814 C 0.13696 0.86935 0.03265 0.0
C815 C 0.05369 0.84643 0.11617 0.0
H816 H 0.09775 0.7771 0.06007 0.0
H817 H 0.10644 0.80957 0.28225 0.0
H818 H 0.07929 0.82056 0.96188 0.0
H819 H 0.10891 0.83044 0.94686 0.0
H820 H 0.10217 0.79937 0.94383 0.0
H821 H 0.11867 0.84973 0.29243 0.0
H822 H 0.12146 0.86799 0.20746 0.0
H823 H 0.09294 0.8621 0.24764 0.0
H824 H 0.11402 0.90894 0.98777 0.0
H825 H 0.04439 0.88956 0.06047 0.0
H826 H 0.13997 0.85129 0.01047 0.0
H827 H 0.1452 0.87036 0.09054 0.0
H828 H 0.14598 0.88212 0.99401 0.0
H829 H 0.05436 0.82936 0.0852 0.0
H830 H 0.03533 0.85312 0.11419 0.0
H831 H 0.05833 0.843 0.17732 0.0
C832 C 0.69804 0.09292 0.21232 0.0
C833 C 0.7201 0.09429 0.17613 0.0
C834 C 0.67725 0.09445 0.16938 0.0
C835 C 0.67862 0.09751 0.08842 0.0
C836 C 0.70071 0.10152 0.0529 0.0
C837 C 0.72127 0.09975 0.09725 0.0
C838 C 0.65404 0.09012 0.20962 0.0
C839 C 0.70282 0.10539 0.96701 0.0
C840 C 0.63293 0.06212 0.98116 0.0
C841 C 0.61563 0.07906 0.96623 0.0
C842 C 0.65389 0.06819 0.01836 0.0
C843 C 0.65774 0.09186 0.04058 0.0
C844 C 0.64084 0.1093 0.02249 0.0
C845 C 0.61979 0.10263 0.98606 0.0
C846 C 0.67139 0.04898 0.03717 0.0
C847 C 0.64458 0.13475 0.04401 0.0
H848 H 0.69697 0.08854 0.27314 0.0
H849 H 0.73831 0.10118 0.06934 0.0
H850 H 0.64049 0.10272 0.18935 0.0
H851 H 0.64775 0.07211 0.19574 0.0
H852 H 0.65561 0.09163 0.27332 0.0
H853 H 0.72018 0.11304 0.95111 0.0
H854 H 0.7009 0.08828 0.93685 0.0
H855 H 0.68868 0.11721 0.94585 0.0
H856 H 0.62962 0.04384 0.96681 0.0
H857 H 0.60647 0.11577 0.97392 0.0
H858 H 0.67307 0.04718 0.1007 0.0
H859 H 0.68902 0.05361 0.01408 0.0
H860 H 0.66612 0.03165 0.01307 0.0
H861 H 0.64287 0.13679 0.10741 0.0
H862 H 0.63158 0.14654 0.01576 0.0
H863 H 0.66258 0.14055 0.02781 0.0
C864 C 0.401 0.70555 0.18578 0.0
C865 C 0.4235 0.71567 0.18407 0.0
C866 C 0.39711 0.683 0.1548 0.0
C867 C 0.41635 0.67024 0.1239 0.0
C868 C 0.43902 0.68059 0.1216 0.0
C869 C 0.44224 0.70322 0.15113 0.0
C870 C 0.37264 0.67269 0.15651 0.0
C871 C 0.46013 0.66747 0.09032 0.0
C872 C 0.42215 0.60426 0.11796 0.0
C873 C 0.42261 0.60033 0.03804 0.0
C874 C 0.41796 0.62679 0.14778 0.0
C875 C 0.41354 0.64567 0.09643 0.0
C876 C 0.41119 0.64123 0.01653 0.0
C877 C 0.41602 0.61865 0.98809 0.0
C878 C 0.42076 0.63077 0.23343 0.0
C879 C 0.40587 0.66079 0.96013 0.0
H880 H 0.38656 0.7152 0.21169 0.0
H881 H 0.45974 0.71086 0.15135 0.0
H882 H 0.36794 0.66554 0.09901 0.0
H883 H 0.37199 0.65785 0.19812 0.0
H884 H 0.35921 0.6859 0.17371 0.0
H885 H 0.47653 0.6781 0.09296 0.0
H886 H 0.46288 0.65103 0.1238 0.0
H887 H 0.45704 0.66239 0.02941 0.0
H888 H 0.42645 0.59001 0.15716 0.0
H889 H 0.41628 0.61591 0.92624 0.0
H890 H 0.40667 0.64242 0.25579 0.0
H891 H 0.43785 0.63962 0.24435 0.0
H892 H 0.42044 0.61398 0.26641 0.0
H893 H 0.39233 0.67289 0.9837 0.0
H894 H 0.39965 0.65382 0.90386 0.0
H895 H 0.42208 0.67123 0.94966 0.0
C896 C 0.79938 0.40703 0.16454 0.0
C897 C 0.78213 0.42376 0.14558 0.0
C898 C 0.82054 0.40574 0.12284 0.0
C899 C 0.82424 0.42122 0.05992 0.0
C900 C 0.80571 0.43589 0.03447 0.0
C901 C 0.78496 0.43715 0.07798 0.0
C902 C 0.8398 0.38966 0.15135 0.0
C903 C 0.80874 0.45227 0.96643 0.0
C904 C 0.88385 0.44976 0.035 0.0
C905 C 0.89281 0.43791 0.9707 0.0
C906 C 0.86193 0.44377 0.06612 0.0
C907 C 0.84846 0.4257 0.03116 0.0
C908 C 0.85764 0.4133 0.96702 0.0
C909 C 0.8799 0.41946 0.93775 0.0
C910 C 0.85297 0.4572 0.13544 0.0
C911 C 0.84366 0.39418 0.92774 0.0
H912 H 0.79708 0.39605 0.2152 0.0
H913 H 0.77193 0.45021 0.06233 0.0
H914 H 0.84927 0.38135 0.10248 0.0
H915 H 0.8528 0.40014 0.18449 0.0
H916 H 0.83279 0.37561 0.18973 0.0
H917 H 0.79157 0.45904 0.94526 0.0
H918 H 0.81971 0.46753 0.98387 0.0
H919 H 0.81789 0.44327 0.9182 0.0
H920 H 0.89408 0.4638 0.06095 0.0
H921 H 0.88693 0.41037 0.88783 0.0
H922 H 0.84791 0.4448 0.18215 0.0
H923 H 0.837 0.46733 0.11944 0.0
H924 H 0.86627 0.46969 0.15849 0.0
H925 H 0.83637 0.38166 0.97079 0.0
H926 H 0.85444 0.38424 0.88533 0.0
H927 H 0.82853 0.40217 0.89693 0.0
C928 C 0.043 0.18393 0.88466 0.0
C929 C 0.02367 0.1975 0.90938 0.0
C930 C 0.04016 0.16085 0.85614 0.0
C931 C 0.01741 0.15064 0.85237 0.0
C932 C 0.99776 0.16428 0.87605 0.0
C933 C 1.00109 0.18741 0.90407 0.0
C934 C 0.06167 0.14717 0.83153 0.0
C935 C 0.97317 0.15426 0.87294 0.0
C936 C 0.00807 0.096 0.72527 0.0
C937 C 0.00976 0.07754 0.77902 0.0
C938 C 0.01064 0.11974 0.74807 0.0
C939 C 0.0144 0.12542 0.82685 0.0
C940 C 0.0158 0.10684 0.8814 0.0
C941 C 0.01366 0.08327 0.85689 0.0
C942 C 0.00936 0.13879 0.68773 0.0
C943 C 0.01966 0.11186 0.96598 0.0
H944 H 0.06061 0.19108 0.88959 0.0
H945 H 0.98593 0.19761 0.92185 0.0
H946 H 0.06398 0.13164 0.86968 0.0
H947 H 0.05939 0.1405 0.77187 0.0
H948 H 0.07797 0.15797 0.83374 0.0
H949 H 0.95967 0.16712 0.89229 0.0
H950 H 0.96897 0.14871 0.81319 0.0
H951 H 0.97202 0.13837 0.91008 0.0
H952 H 0.0051 0.09189 0.66499 0.0
H953 H 0.01485 0.06928 0.89928 0.0
H954 H 0.02559 0.14966 0.68882 0.0
H955 H 0.99441 0.15058 0.70127 0.0
H956 H 0.00704 0.13162 0.62865 0.0
H957 H 0.03666 0.12116 0.97399 0.0
H958 H 0.01983 0.09555 1.00147 0.0
H959 H 0.00558 0.12362 0.9879 0.0
C960 C 0.32109 0.99832 0.8895 0.0
C961 C 0.31194 0.0208 0.90554 0.0
C962 C 0.34413 0.99538 0.86013 0.0
C963 C 0.35865 0.01532 0.84684 0.0
C964 C 0.34938 0.03803 0.86139 0.0
C965 C 0.32634 0.04048 0.89063 0.0
C966 C 0.35306 0.97086 0.84406 0.0
C967 C 0.36396 0.05982 0.84682 0.0
C968 C 0.4257 0.00877 0.84859 0.0
C969 C 0.43137 0.00862 0.76966 0.0
C970 C 0.40219 0.01045 0.87411 0.0
C971 C 0.38369 0.01247 0.81964 0.0
C972 C 0.38936 0.01239 0.73975 0.0
C973 C 0.41302 0.01019 0.71584 0.0
C974 C 0.39717 0.01041 0.95969 0.0
C975 C 0.37079 0.01568 0.6787 0.0
H976 H 0.31021 0.98295 0.89967 0.0
H977 H 0.31984 0.05795 0.90374 0.0
H978 H 0.36068 0.96993 0.78512 0.0
H979 H 0.36734 0.96649 0.88529 0.0
H980 H 0.33898 0.95738 0.84945 0.0
H981 H 0.35416 0.07626 0.85988 0.0
H982 H 0.38009 0.05935 0.88278 0.0
H983 H 0.36964 0.06032 0.78555 0.0
H984 H 0.43971 0.00745 0.89078 0.0
H985 H 0.41716 0.01037 0.65473 0.0
H986 H 0.3847 0.99602 0.97418 0.0
H987 H 0.38868 0.02723 0.97645 0.0
H988 H 0.41338 0.00811 0.99465 0.0
H989 H 0.35317 0.00995 0.69855 0.0
H990 H 0.37549 0.00594 0.62536 0.0
H991 H 0.36975 0.03464 0.66357 0.0
C992 C 0.46877 0.32758 0.87178 0.0
C993 C 0.48836 0.3142 0.89525 0.0
C994 C 0.47123 0.3507 0.84313 0.0
C995 C 0.49383 0.36117 0.83839 0.0
C996 C 0.51375 0.34773 0.86058 0.0
C997 C 0.51081 0.3245 0.88834 0.0
C998 C 0.44947 0.36417 0.8197 0.0
C999 C 0.5382 0.35807 0.85626 0.0
C1000 C 0.50129 0.41649 0.71305 0.0
C1001 C 0.49935 0.43467 0.76764 0.0
C1002 C 0.49981 0.39258 0.73506 0.0
C1003 C 0.4964 0.38651 0.81378 0.0
C1004 C 0.49474 0.40479 0.86918 0.0
C1005 C 0.49613 0.42852 0.84553 0.0
C1006 C 0.50144 0.37385 0.67366 0.0
C1007 C 0.49139 0.3993 0.95376 0.0
H1008 H 0.45125 0.32029 0.87796 0.0
H1009 H 0.52619 0.31445 0.90496 0.0
H1010 H 0.44705 0.37953 0.85833 0.0
H1011 H 0.45152 0.37105 0.76011 0.0
H1012 H 0.43333 0.35314 0.82228 0.0
H1013 H 0.55196 0.34527 0.87394 0.0
H1014 H 0.542 0.36405 0.79655 0.0
H1015 H 0.53936 0.37374 0.89423 0.0
H1016 H 0.50375 0.42091 0.65272 0.0
H1017 H 0.49477 0.4423 0.88848 0.0
H1018 H 0.48395 0.36549 0.66603 0.0
H1019 H 0.51389 0.35984 0.69139 0.0
H1020 H 0.50722 0.38113 0.61716 0.0
H1021 H 0.47456 0.38971 0.96245 0.0
H1022 H 0.49116 0.41541 0.98998 0.0
H1023 H 0.50574 0.38763 0.97426 0.0
C1024 C 0.18751 0.4742 0.86318 0.0
C1025 C 0.19857 0.49246 0.90438 0.0
C1026 C 0.16453 0.47669 0.83347 0.0
C1027 C 0.15195 0.49792 0.8452 0.0
C1028 C 0.16312 0.51661 0.88525 0.0
C1029 C 0.18616 0.51367 0.91426 0.0
C1030 C 0.15349 0.4563 0.79103 0.0
C1031 C 0.15059 0.53969 0.89821 0.0
C1032 C 0.09766 0.51012 0.71917 0.0
C1033 C 0.07903 0.50361 0.76835 0.0
C1034 C 0.1214 0.50859 0.74344 0.0
C1035 C 0.1268 0.50018 0.81851 0.0
C1036 C 0.10809 0.49355 0.86818 0.0
C1037 C 0.08461 0.49537 0.84272 0.0
C1038 C 0.14079 0.51565 0.68845 0.0
C1039 C 0.11287 0.48439 0.94849 0.0
H1040 H 0.19653 0.45755 0.85599 0.0
H1041 H 0.19446 0.52807 0.94482 0.0
H1042 H 0.13757 0.45021 0.82243 0.0
H1043 H 0.14778 0.46199 0.73275 0.0
H1044 H 0.16576 0.4412 0.78469 0.0
H1045 H 0.1619 0.55283 0.9277 0.0
H1046 H 0.14474 0.54713 0.84218 0.0
H1047 H 0.13459 0.53674 0.93377 0.0
H1048 H 0.09372 0.51631 0.66154 0.0
H1049 H 0.07056 0.49026 0.88164 0.0
H1050 H 0.15009 0.49967 0.66787 0.0
H1051 H 0.15395 0.52694 0.71779 0.0
H1052 H 0.13397 0.52527 0.63765 0.0
H1053 H 0.12397 0.46836 0.94535 0.0
H1054 H 0.09643 0.48001 0.98027 0.0
H1055 H 0.12278 0.49771 0.98207 0.0
C1056 C 0.0322 0.82849 0.51321 0.0
C1057 C 0.01242 0.81575 0.48848 0.0
C1058 C 0.03026 0.85192 0.53873 0.0
C1059 C 0.00788 0.86291 0.54151 0.0
C1060 C 0.98779 0.85009 0.5167 0.0
C1061 C 0.99035 0.82679 0.48952 0.0
C1062 C 0.05225 0.86496 0.56245 0.0
C1063 C 0.96355 0.86089 0.51998 0.0
C1064 C 1.00248 0.91576 0.67739 0.0
C1065 C 1.00357 0.93489 0.62605 0.0
C1066 C 1.00319 0.89233 0.65057 0.0
C1067 C 0.00563 0.88776 0.57048 0.0
C1068 C 0.00685 0.90702 0.51845 0.0
C1069 C 0.00554 0.93025 0.54668 0.0
C1070 C 1.00141 0.87243 0.70812 0.0
C1071 C 0.01007 0.90311 0.43293 0.0
H1072 H 0.04935 0.82013 0.51165 0.0
H1073 H 0.97501 0.817 0.47073 0.0
H1074 H 0.05402 0.88141 0.52827 0.0
H1075 H 0.05102 0.87009 0.62405 0.0
H1076 H 0.06841 0.85424 0.5543 0.0
H1077 H 0.94969 0.84856 0.49978 0.0
H1078 H 0.95944 0.86624 0.58007 0.0
H1079 H 0.96298 0.87701 0.48385 0.0
H1080 H 1.00082 0.9191 0.73873 0.0
H1081 H 0.0066 0.94485 0.50647 0.0
H1082 H 0.0179 0.86199 0.70763 0.0
H1083 H 0.98687 0.86038 0.6918 0.0
H1084 H 0.99826 0.87884 0.76779 0.0
H1085 H 0.02671 0.89342 0.42232 0.0
H1086 H 0.01058 0.9199 0.39997 0.0
H1087 H 0.99552 0.89211 0.41019 0.0
C1088 C 0.68372 0.98582 0.49003 0.0
C1089 C 0.69498 0.00777 0.48765 0.0
C1090 C 0.66025 0.98372 0.51614 0.0
C1091 C 0.64752 1.00415 0.53827 0.0
C1092 C 0.65879 0.02639 0.53438 0.0
C1093 C 0.6824 0.02787 0.51013 0.0
C1094 C 0.64914 0.95963 0.5209 0.0
C1095 C 0.64585 0.04871 0.55519 0.0
C1096 C 0.58023 1.00245 0.53639 0.0
C1097 C 0.57474 1.0013 0.61534 0.0
C1098 C 0.60375 1.00331 0.51061 0.0
C1099 C 0.62239 1.00242 0.56484 0.0
C1100 C 0.61693 1.00077 0.6446 0.0
C1101 C 0.59323 1.0005 0.66888 0.0
C1102 C 0.60863 0.00577 0.4253 0.0
C1103 C 0.63615 0.99935 0.70444 0.0
H1104 H 0.69344 0.97025 0.47294 0.0
H1105 H 0.69102 0.0449 0.50763 0.0
H1106 H 0.64304 0.95619 0.58074 0.0
H1107 H 0.63346 0.95882 0.48299 0.0
H1108 H 0.66153 0.94544 0.50368 0.0
H1109 H 0.65688 0.06468 0.54691 0.0
H1110 H 0.62979 0.05045 0.51923 0.0
H1111 H 0.64006 0.04799 0.6163 0.0
H1112 H 0.56608 1.00331 0.49459 0.0
H1113 H 0.58917 0.99942 0.72991 0.0
H1114 H 0.61965 0.9909 0.40501 0.0
H1115 H 0.61868 0.0222 0.41429 0.0
H1116 H 0.59222 0.00623 0.39054 0.0
H1117 H 0.64815 0.98449 0.69106 0.0
H1118 H 0.62905 0.99693 0.7637 0.0
H1119 H 0.64685 0.01569 0.70326 0.0
C1120 C 0.52136 0.69299 0.55161 0.0
C1121 C 0.50709 0.69786 0.48748 0.0
C1122 C 0.52276 0.6701 0.58296 0.0
C1123 C 0.50918 0.65163 0.55054 0.0
C1124 C 0.49478 0.65647 0.48569 0.0
C1125 C 0.49405 0.67939 0.45473 0.0
C1126 C 0.5387 0.66569 0.65102 0.0
C1127 C 0.47972 0.63752 0.44981 0.0
C1128 C 0.52528 0.58708 0.58361 0.0
C1129 C 0.50961 0.58041 0.64254 0.0
C1130 C 0.52578 0.61028 0.55478 0.0
C1131 C 0.50991 0.62728 0.58434 0.0
C1132 C 0.49421 0.62072 0.64442 0.0
C1133 C 0.49439 0.59748 0.67321 0.0
C1134 C 0.54311 0.61651 0.49181 0.0
C1135 C 0.47674 0.63811 0.67693 0.0
H1136 H 0.53154 0.70712 0.57713 0.0
H1137 H 0.48265 0.68305 0.40606 0.0
H1138 H 0.52816 0.65968 0.70126 0.0
H1139 H 0.55138 0.65145 0.63712 0.0
H1140 H 0.54872 0.68167 0.66792 0.0
H1141 H 0.4694 0.64411 0.39983 0.0
H1142 H 0.49093 0.62271 0.43011 0.0
H1143 H 0.46731 0.63036 0.4935 0.0
H1144 H 0.53722 0.57411 0.55971 0.0
H1145 H 0.4821 0.59252 0.71829 0.0
H1146 H 0.55374 0.632 0.50918 0.0
H1147 H 0.53349 0.6214 0.4385 0.0
H1148 H 0.55521 0.60172 0.47823 0.0
H1149 H 0.48605 0.65389 0.69892 0.0
H1150 H 0.46605 0.63046 0.72453 0.0
H1151 H 0.46468 0.6441 0.63058 0.0
C1152 C 0.82125 0.5252 0.5437 0.0
C1153 C 0.81578 0.51048 0.48123 0.0
C1154 C 0.84431 0.52639 0.5736 0.0
C1155 C 0.86234 0.5122 0.54128 0.0
C1156 C 0.85687 0.49727 0.47832 0.0
C1157 C 0.83379 0.49671 0.44887 0.0
C1158 C 0.84939 0.54286 0.63974 0.0
C1159 C 0.87536 0.4816 0.44258 0.0
C1160 C 0.9272 0.52833 0.56572 0.0
C1161 C 0.93439 0.51317 0.62532 0.0
C1162 C 0.90377 0.52861 0.53936 0.0
C1163 C 0.88699 0.5131 0.57242 0.0
C1164 C 0.89403 0.49795 0.63333 0.0
C1165 C 0.91755 0.49828 0.65936 0.0
C1166 C 0.89705 0.54533 0.47526 0.0
C1167 C 0.87687 0.48095 0.6698 0.0
H1168 H 0.80749 0.53594 0.56893 0.0
H1169 H 0.82968 0.48495 0.40156 0.0
H1170 H 0.85591 0.53274 0.69012 0.0
H1171 H 0.86347 0.55544 0.62305 0.0
H1172 H 0.83359 0.553 0.65766 0.0
H1173 H 0.86826 0.4708 0.39455 0.0
H1174 H 0.89013 0.49242 0.42012 0.0
H1175 H 0.88273 0.46963 0.48707 0.0
H1176 H 0.93995 0.54004 0.53925 0.0
H1177 H 0.92285 0.48645 0.70527 0.0
H1178 H 0.88183 0.55627 0.49325 0.0
H1179 H 0.89154 0.5352 0.42367 0.0
H1180 H 0.91178 0.55717 0.45856 0.0
H1181 H 0.86123 0.49054 0.69167 0.0
H1182 H 0.88482 0.47093 0.7183 0.0
H1183 H 0.87057 0.46827 0.62577 0.0
loop_
_geom_bond_atom_site_label_1
_geom_bond_atom_site_label_2
_geom_bond_distance
_geom_bond_site_symmetry_2
_ccdc_geom_bond_type
P0 O11 1.490 . S
P0 C14 1.812 . S
P0 C20 1.803 . S
P0 C26 1.819 . S
H1 C15 0.941 . S
H2 C16 0.939 . S
H3 C18 0.940 . S
H4 C19 0.940 . S
H5 C21 0.939 . S
H6 C22 0.942 . S
H7 C24 0.940 . S
H8 C25 0.939 . S
H9 C27 0.941 . S
H10 C31 0.939 . S
O11 P0 1.490 . S
H12 C28 0.939 . S
H13 C30 0.940 . S
C14 P0 1.812 . S
C14 C15 1.389 . S
C14 C19 1.391 . S
C15 H1 0.941 . S
C15 C14 1.389 . S
C15 C16 1.397 . S
C16 H2 0.939 . S
C16 C15 1.397 . S
C16 C17 1.378 . S
C17 C16 1.378 . S
C17 C18 1.378 . S
C18 H3 0.940 . S
C18 C17 1.378 . S
C18 C19 1.396 . S
C19 H4 0.940 . S
C19 C14 1.391 . S
C19 C18 1.396 . S
C20 P0 1.803 . S
C20 C21 1.378 . S
C20 C25 1.400 . S
C21 H5 0.939 . S
C21 C20 1.378 . S
C21 C22 1.361 . S
C22 H6 0.942 . S
C22 C21 1.361 . S
C22 C23 1.369 . S
C23 C22 1.369 . S
C23 C24 1.404 . S
C24 H7 0.940 . S
C24 C23 1.404 . S
C24 C25 1.389 . S
C25 H8 0.939 . S
C25 C20 1.400 . S
C25 C24 1.389 . S
C26 P0 1.819 . S
C26 C27 1.391 . S
C26 C31 1.391 . S
C27 H9 0.941 . S
C27 C26 1.391 . S
C27 C28 1.396 . S
C28 H12 0.939 . S
C28 C27 1.396 . S
C28 C29 1.397 . S
C29 C28 1.397 . S
C29 C30 1.385 . S
C30 H13 0.940 . S
C30 C29 1.385 . S
C30 C31 1.388 . S
C31 H10 0.939 . S
C31 C26 1.391 . S
C31 C30 1.388 . S
P32 O43 1.490 . S
P32 C46 1.812 . S
P32 C52 1.803 . S
P32 C58 1.819 . S
H33 C47 0.941 . S
H34 C48 0.939 . S
H35 C50 0.940 . S
H36 C51 0.950 . S
H37 C53 0.939 . S
H38 C54 0.942 . S
H39 C56 0.940 . S
H40 C57 0.959 . S
H41 C59 0.941 . S
H42 C63 0.929 1_655 S
O43 P32 1.490 . S
H44 C60 0.939 . S
H45 C62 0.940 . S
C46 P32 1.812 . S
C46 C47 1.389 . S
C46 C51 1.375 1_455 S
C47 H33 0.941 . S
C47 C46 1.389 . S
C47 C48 1.397 . S
C48 H34 0.939 . S
C48 C47 1.397 . S
C48 C49 1.378 . S
C49 C48 1.378 . S
C49 C50 1.378 1_455 S
C50 H35 0.940 . S
C50 C49 1.378 1_655 S
C50 C51 1.403 . S
C51 H36 0.950 . S
C51 C46 1.375 1_655 S
C51 C50 1.403 . S
C52 P32 1.803 . S
C52 C53 1.378 . S
C52 C57 1.368 1_455 S
C53 H37 0.939 . S
C53 C52 1.378 . S
C53 C54 1.361 . S
C54 H38 0.942 . S
C54 C53 1.361 . S
C54 C55 1.369 . S
C55 C54 1.369 . S
C55 C56 1.404 1_455 S
C56 H39 0.940 . S
C56 C55 1.404 1_655 S
C56 C57 1.402 . S
C57 H40 0.959 . S
C57 C52 1.368 1_655 S
C57 C56 1.402 . S
C58 P32 1.819 . S
C58 C59 1.391 . S
C58 C63 1.391 . S
C59 H41 0.941 . S
C59 C58 1.391 . S
C59 C60 1.396 . S
C60 H44 0.939 . S
C60 C59 1.396 . S
C60 C61 1.397 . S
C61 C60 1.397 . S
C61 C62 1.385 1_455 S
C62 H45 0.940 . S
C62 C61 1.385 1_655 S
C62 C63 1.388 1_655 S
C63 H42 0.929 1_455 S
C63 C58 1.391 . S
C63 C62 1.388 1_455 S
P64 O75 1.490 . S
P64 C78 1.812 . S
P64 C84 1.803 . S
P64 C90 1.819 . S
H65 C79 0.941 . S
H66 C80 0.939 . S
H67 C82 0.940 . S
H68 C83 0.950 . S
H69 C85 0.939 . S
H70 C86 0.942 . S
H71 C88 0.940 . S
H72 C89 0.959 . S
H73 C91 0.941 . S
H74 C95 0.929 1_565 S
O75 P64 1.490 . S
H76 C92 0.939 . S
H77 C94 0.940 . S
C78 P64 1.812 . S
C78 C79 1.389 . S
C78 C83 1.375 1_545 S
C79 H65 0.941 . S
C79 C78 1.389 . S
C79 C80 1.397 . S
C80 H66 0.939 . S
C80 C79 1.397 . S
C80 C81 1.378 . S
C81 C80 1.378 . S
C81 C82 1.378 1_545 S
C82 H67 0.940 . S
C82 C81 1.378 1_565 S
C82 C83 1.403 . S
C83 H68 0.950 . S
C83 C78 1.375 1_565 S
C83 C82 1.403 . S
C84 P64 1.803 . S
C84 C85 1.378 . S
C84 C89 1.368 1_545 S
C85 H69 0.939 . S
C85 C84 1.378 . S
C85 C86 1.361 . S
C86 H70 0.942 . S
C86 C85 1.361 . S
C86 C87 1.369 . S
C87 C86 1.369 . S
C87 C88 1.404 1_545 S
C88 H71 0.940 . S
C88 C87 1.404 1_565 S
C88 C89 1.402 . S
C89 H72 0.959 . S
C89 C84 1.368 1_565 S
C89 C88 1.402 . S
C90 P64 1.819 . S
C90 C91 1.391 . S
C90 C95 1.391 . S
C91 H73 0.941 . S
C91 C90 1.391 . S
C91 C92 1.396 . S
C92 H76 0.939 . S
C92 C91 1.396 . S
C92 C93 1.397 . S
C93 C92 1.397 . S
C93 C94 1.385 1_545 S
C94 H77 0.940 . S
C94 C93 1.385 1_565 S
C94 C95 1.388 1_565 S
C95 H74 0.929 1_545 S
C95 C90 1.391 . S
C95 C94 1.388 1_545 S
P96 O107 1.490 . S
P96 C110 1.812 . S
P96 C116 1.803 . S
P96 C122 1.819 . S
H97 C111 0.941 . S
H98 C112 0.939 . S
H99 C114 0.940 . S
H100 C115 0.940 . S
H101 C117 0.939 . S
H102 C118 0.942 . S
H103 C120 0.940 . S
H104 C121 0.939 . S
H105 C123 0.941 . S
H106 C127 0.939 . S
O107 P96 1.490 . S
H108 C124 0.939 . S
H109 C126 0.940 . S
C110 P96 1.812 . S
C110 C111 1.389 . S
C110 C115 1.391 . S
C111 H97 0.941 . S
C111 C110 1.389 . S
C111 C112 1.397 . S
C112 H98 0.939 . S
C112 C111 1.397 . S
C112 C113 1.378 . S
C113 C112 1.378 . S
C113 C114 1.378 . S
C114 H99 0.940 . S
C114 C113 1.378 . S
C114 C115 1.396 . S
C115 H100 0.940 . S
C115 C110 1.391 . S
C115 C114 1.396 . S
C116 P96 1.803 . S
C116 C117 1.378 . S
C116 C121 1.400 . S
C117 H101 0.939 . S
C117 C116 1.378 . S
C117 C118 1.361 . S
C118 H102 0.942 . S
C118 C117 1.361 . S
C118 C119 1.369 . S
C119 C118 1.369 . S
C119 C120 1.404 . S
C120 H103 0.940 . S
C120 C119 1.404 . S
C120 C121 1.389 . S
C121 H104 0.939 . S
C121 C116 1.400 . S
C121 C120 1.389 . S
C122 P96 1.819 . S
C122 C123 1.391 . S
C122 C127 1.391 . S
C123 H105 0.941 . S
C123 C122 1.391 . S
C123 C124 1.396 . S
C124 H108 0.939 . S
C124 C123 1.396 . S
C124 C125 1.397 . S
C125 C124 1.397 . S
C125 C126 1.385 . S
C126 H109 0.940 . S
C126 C125 1.385 . S
C126 C127 1.388 . S
C127 H106 0.939 . S
C127 C122 1.391 . S
C127 C126 1.388 . S
P128 O139 1.490 . S
P128 C142 1.812 1_554 S
P128 C148 1.803 . S
P128 C154 1.819 . S
H129 C143 0.941 . S
H130 C144 0.939 . S
H131 C146 0.940 . S
H132 C147 0.940 . S
H133 C149 0.939 . S
H134 C150 0.942 . S
H135 C152 0.940 . S
H136 C153 0.939 . S
H137 C155 0.941 . S
H138 C159 0.939 . S
O139 P128 1.490 . S
H140 C156 0.939 . S
H141 C158 0.940 . S
C142 P128 1.812 1_556 S
C142 C143 1.389 . S
C142 C147 1.391 . S
C143 H129 0.941 . S
C143 C142 1.389 . S
C143 C144 1.397 . S
C144 H130 0.939 . S
C144 C143 1.397 . S
C144 C145 1.378 . S
C145 C144 1.378 . S
C145 C146 1.378 . S
C146 H131 0.940 . S
C146 C145 1.378 . S
C146 C147 1.396 . S
C147 H132 0.940 . S
C147 C142 1.391 . S
C147 C146 1.396 . S
C148 P128 1.803 . S
C148 C149 1.378 . S
C148 C153 1.400 . S
C149 H133 0.939 . S
C149 C148 1.378 . S
C149 C150 1.361 . S
C150 H134 0.942 . S
C150 C149 1.361 . S
C150 C151 1.369 . S
C151 C150 1.369 . S
C151 C152 1.404 . S
C152 H135 0.940 . S
C152 C151 1.404 . S
C152 C153 1.389 . S
C153 H136 0.939 . S
C153 C148 1.400 . S
C153 C152 1.389 . S
C154 P128 1.819 . S
C154 C155 1.391 . S
C154 C159 1.391 . S
C155 H137 0.941 . S
C155 C154 1.391 . S
C155 C156 1.396 . S
C156 H140 0.939 . S
C156 C155 1.396 . S
C156 C157 1.397 . S
C157 C156 1.397 . S
C157 C158 1.385 . S
C158 H141 0.940 . S
C158 C157 1.385 . S
C158 C159 1.388 . S
C159 H138 0.939 . S
C159 C154 1.391 . S
C159 C158 1.388 . S
P160 O171 1.490 . S
P160 C174 1.812 1_554 S
P160 C180 1.803 . S
P160 C186 1.819 . S
H161 C175 0.941 . S
H162 C176 0.939 . S
H163 C178 0.940 . S
H164 C179 0.944 . S
H165 C181 0.939 . S
H166 C182 0.942 . S
H167 C184 0.940 . S
H168 C185 0.952 . S
H169 C187 0.941 . S
H170 C191 0.933 1_655 S
O171 P160 1.490 . S
H172 C188 0.939 . S
H173 C190 0.940 . S
C174 P160 1.812 1_556 S
C174 C175 1.389 . S
C174 C179 1.385 1_455 S
C175 H161 0.941 . S
C175 C174 1.389 . S
C175 C176 1.397 . S
C176 H162 0.939 . S
C176 C175 1.397 . S
C176 C177 1.378 . S
C177 C176 1.378 . S
C177 C178 1.378 1_455 S
C178 H163 0.940 . S
C178 C177 1.378 1_655 S
C178 C179 1.399 . S
C179 H164 0.944 . S
C179 C174 1.385 1_655 S
C179 C178 1.399 . S
C180 P160 1.803 . S
C180 C181 1.378 . S
C180 C185 1.379 1_455 S
C181 H165 0.939 . S
C181 C180 1.378 . S
C181 C182 1.361 . S
C182 H166 0.942 . S
C182 C181 1.361 . S
C182 C183 1.369 . S
C183 C182 1.369 . S
C183 C184 1.404 1_455 S
C184 H167 0.940 . S
C184 C183 1.404 1_655 S
C184 C185 1.398 . S
C185 H168 0.952 . S
C185 C180 1.379 1_655 S
C185 C184 1.398 . S
C186 P160 1.819 . S
C186 C187 1.391 . S
C186 C191 1.391 . S
C187 H169 0.941 . S
C187 C186 1.391 . S
C187 C188 1.396 . S
C188 H172 0.939 . S
C188 C187 1.396 . S
C188 C189 1.397 . S
C189 C188 1.397 . S
C189 C190 1.385 1_455 S
C190 H173 0.940 . S
C190 C189 1.385 1_655 S
C190 C191 1.388 1_655 S
C191 H170 0.933 1_455 S
C191 C186 1.391 . S
C191 C190 1.388 1_455 S
P192 O203 1.490 . S
P192 C206 1.812 1_554 S
P192 C212 1.803 . S
P192 C218 1.819 . S
H193 C207 0.941 . S
H194 C208 0.939 . S
H195 C210 0.940 . S
H196 C211 0.944 . S
H197 C213 0.939 . S
H198 C214 0.942 . S
H199 C216 0.940 . S
H200 C217 0.953 . S
H201 C219 0.941 . S
H202 C223 0.933 1_565 S
O203 P192 1.490 . S
H204 C220 0.939 . S
H205 C222 0.940 . S
C206 P192 1.812 1_556 S
C206 C207 1.389 . S
C206 C211 1.385 1_545 S
C207 H193 0.941 . S
C207 C206 1.389 . S
C207 C208 1.397 . S
C208 H194 0.939 . S
C208 C207 1.397 . S
C208 C209 1.378 . S
C209 C208 1.378 . S
C209 C210 1.378 1_545 S
C210 H195 0.940 . S
C210 C209 1.378 1_565 S
C210 C211 1.399 . S
C211 H196 0.944 . S
C211 C206 1.385 1_565 S
C211 C210 1.399 . S
C212 P192 1.803 . S
C212 C213 1.378 . S
C212 C217 1.379 1_545 S
C213 H197 0.939 . S
C213 C212 1.378 . S
C213 C214 1.361 . S
C214 H198 0.942 . S
C214 C213 1.361 . S
C214 C215 1.369 . S
C215 C214 1.369 . S
C215 C216 1.404 1_545 S
C216 H199 0.940 . S
C216 C215 1.404 1_565 S
C216 C217 1.397 . S
C217 H200 0.953 . S
C217 C212 1.379 1_565 S
C217 C216 1.397 . S
C218 P192 1.819 . S
C218 C219 1.391 . S
C218 C223 1.391 . S
C219 H201 0.941 . S
C219 C218 1.391 . S
C219 C220 1.396 . S
C220 H204 0.939 . S
C220 C219 1.396 . S
C220 C221 1.397 . S
C221 C220 1.397 . S
C221 C222 1.385 1_545 S
C222 H205 0.940 . S
C222 C221 1.385 1_565 S
C222 C223 1.388 1_565 S
C223 H202 0.933 1_545 S
C223 C218 1.391 . S
C223 C222 1.388 1_545 S
P224 O235 1.490 . S
P224 C238 1.812 1_554 S
P224 C244 1.803 . S
P224 C250 1.819 . S
H225 C239 0.941 . S
H226 C240 0.939 . S
H227 C242 0.940 . S
H228 C243 0.940 . S
H229 C245 0.939 . S
H230 C246 0.942 . S
H231 C248 0.940 . S
H232 C249 0.939 . S
H233 C251 0.941 . S
H234 C255 0.939 . S
O235 P224 1.490 . S
H236 C252 0.939 . S
H237 C254 0.940 . S
C238 P224 1.812 1_556 S
C238 C239 1.389 . S
C238 C243 1.391 . S
C239 H225 0.941 . S
C239 C238 1.389 . S
C239 C240 1.397 . S
C240 H226 0.939 . S
C240 C239 1.397 . S
C240 C241 1.378 . S
C241 C240 1.378 . S
C241 C242 1.378 . S
C242 H227 0.940 . S
C242 C241 1.378 . S
C242 C243 1.396 . S
C243 H228 0.940 . S
C243 C238 1.391 . S
C243 C242 1.396 . S
C244 P224 1.803 . S
C244 C245 1.378 . S
C244 C249 1.400 . S
C245 H229 0.939 . S
C245 C244 1.378 . S
C245 C246 1.361 . S
C246 H230 0.942 . S
C246 C245 1.361 . S
C246 C247 1.369 . S
C247 C246 1.369 . S
C247 C248 1.404 . S
C248 H231 0.940 . S
C248 C247 1.404 . S
C248 C249 1.389 . S
C249 H232 0.939 . S
C249 C244 1.400 . S
C249 C248 1.389 . S
C250 P224 1.819 . S
C250 C251 1.391 . S
C250 C255 1.391 . S
C251 H233 0.941 . S
C251 C250 1.391 . S
C251 C252 1.396 . S
C252 H236 0.939 . S
C252 C251 1.396 . S
C252 C253 1.397 . S
C253 C252 1.397 . S
C253 C254 1.385 . S
C254 H237 0.940 . S
C254 C253 1.385 . S
C254 C255 1.388 . S
C255 H234 0.939 . S
C255 C250 1.391 . S
C255 C254 1.388 . S
La256 C258 2.928 . S
La256 O276 2.521 . S
La256 O277 2.628 . S
La256 O278 2.554 . S
La256 O279 2.757 1_565 S
La256 O280 2.470 . S
La256 O285 2.482 1_455 S
La256 O287 2.503 1_565 S
La257 C267 2.928 . S
La257 O279 2.482 1_655 S
La257 O281 2.503 1_545 S
La257 O282 2.521 . S
La257 O283 2.628 . S
La257 O284 2.554 . S
La257 O285 2.757 1_545 S
La257 O286 2.470 . S
C258 La256 2.928 . S
C258 C259 1.503 . S
C258 O276 1.261 . S
C258 O277 1.243 . S
C259 C258 1.503 . S
C259 C260 1.394 . S
C259 C264 1.373 . S
C260 C259 1.394 . S
C260 C261 1.380 . S
C260 H288 0.930 . S
C261 C260 1.380 . S
C261 C262 1.376 . S
C261 H289 0.930 . S
C262 C261 1.376 . S
C262 C263 1.370 . S
C263 C262 1.370 . S
C263 C264 1.396 . S
C263 H290 0.946 . S
C264 C259 1.373 . S
C264 C263 1.396 . S
C264 H291 0.929 1_455 S
C265 O278 1.240 . S
C265 O279 1.289 1_565 S
C266 O280 1.258 1_655 S
C266 O281 1.256 . S
C267 La257 2.928 . S
C267 C268 1.503 . S
C267 O282 1.261 . S
C267 O283 1.243 . S
C268 C267 1.503 . S
C268 C269 1.394 . S
C268 C273 1.373 . S
C269 C268 1.394 . S
C269 C270 1.380 . S
C269 H292 0.930 . S
C270 C269 1.380 . S
C270 C271 1.376 . S
C270 H293 0.930 . S
C271 C270 1.376 . S
C271 C272 1.370 . S
C272 C271 1.370 . S
C272 C273 1.396 . S
C272 H294 0.937 . S
C273 C268 1.373 . S
C273 C272 1.396 . S
C273 H295 0.929 1_655 S
C274 O284 1.240 . S
C274 O285 1.289 1_545 S
C275 O286 1.258 1_455 S
C275 O287 1.256 . S
O276 La256 2.521 . S
O276 C258 1.261 . S
O277 La256 2.628 . S
O277 C258 1.243 . S
O278 La256 2.554 . S
O278 C265 1.240 . S
O279 La256 2.757 1_545 S
O279 La257 2.482 1_455 S
O279 C265 1.289 1_545 S
O280 La256 2.470 . S
O280 C266 1.258 1_455 S
O281 La257 2.503 1_565 S
O281 C266 1.256 . S
O282 La257 2.521 . S
O282 C267 1.261 . S
O283 La257 2.628 . S
O283 C267 1.243 . S
O284 La257 2.554 . S
O284 C274 1.240 . S
O285 La256 2.482 1_655 S
O285 La257 2.757 1_565 S
O285 C274 1.289 1_565 S
O286 La257 2.470 . S
O286 C275 1.258 1_655 S
O287 La256 2.503 1_545 S
O287 C275 1.256 . S
H288 C260 0.930 . S
H289 C261 0.930 . S
H290 C263 0.946 . S
H291 C264 0.929 1_655 S
H292 C269 0.930 . S
H293 C270 0.930 . S
H294 C272 0.937 . S
H295 C273 0.929 1_455 S
La296 C298 2.928 . S
La296 O316 2.521 . S
La296 O317 2.628 . S
La296 O318 2.554 . S
La296 O319 2.757 . S
La296 O320 2.470 . S
La296 O325 2.482 1_545 S
La296 O327 2.503 . S
La297 C307 2.928 . S
La297 O319 2.482 1_565 S
La297 O321 2.503 . S
La297 O322 2.521 . S
La297 O323 2.628 . S
La297 O324 2.554 . S
La297 O325 2.757 . S
La297 O326 2.470 . S
C298 La296 2.928 . S
C298 C299 1.503 . S
C298 O316 1.261 . S
C298 O317 1.243 . S
C299 C298 1.503 . S
C299 C300 1.394 . S
C299 C304 1.373 . S
C300 C299 1.394 . S
C300 C301 1.380 . S
C300 H328 0.930 . S
C301 C300 1.380 . S
C301 C302 1.376 . S
C301 H329 0.930 . S
C302 C301 1.376 . S
C302 C303 1.370 . S
C303 C302 1.370 . S
C303 C304 1.396 . S
C303 H330 0.928 1_545 S
C304 C299 1.373 . S
C304 C303 1.396 . S
C304 H331 0.929 1_545 S
C305 O318 1.240 . S
C305 O319 1.289 . S
C306 O320 1.258 1_565 S
C306 O321 1.256 . S
C307 La297 2.928 . S
C307 C308 1.503 . S
C307 O322 1.261 . S
C307 O323 1.243 . S
C308 C307 1.503 . S
C308 C309 1.394 . S
C308 C313 1.373 . S
C309 C308 1.394 . S
C309 C310 1.380 . S
C309 H332 0.930 . S
C310 C309 1.380 . S
C310 C311 1.376 . S
C310 H333 0.930 . S
C311 C310 1.376 . S
C311 C312 1.370 . S
C312 C311 1.370 . S
C312 C313 1.396 . S
C312 H334 0.919 1_565 S
C313 C308 1.373 . S
C313 C312 1.396 . S
C313 H335 0.929 1_565 S
C314 O324 1.240 . S
C314 O325 1.289 . S
C315 O326 1.258 1_545 S
C315 O327 1.256 . S
O316 La296 2.521 . S
O316 C298 1.261 . S
O317 La296 2.628 . S
O317 C298 1.243 . S
O318 La296 2.554 . S
O318 C305 1.240 . S
O319 La296 2.757 . S
O319 La297 2.482 1_545 S
O319 C305 1.289 . S
O320 La296 2.470 . S
O320 C306 1.258 1_545 S
O321 La297 2.503 . S
O321 C306 1.256 . S
O322 La297 2.521 . S
O322 C307 1.261 . S
O323 La297 2.628 . S
O323 C307 1.243 . S
O324 La297 2.554 . S
O324 C314 1.240 . S
O325 La296 2.482 1_565 S
O325 La297 2.757 . S
O325 C314 1.289 . S
O326 La297 2.470 . S
O326 C315 1.258 1_565 S
O327 La296 2.503 . S
O327 C315 1.256 . S
H328 C300 0.930 . S
H329 C301 0.930 . S
H330 C303 0.928 1_565 S
H331 C304 0.929 1_565 S
H332 C309 0.930 . S
H333 C310 0.930 . S
H334 C312 0.919 1_545 S
H335 C313 0.929 1_545 S
La336 C338 2.928 . S
La336 O356 2.521 . S
La336 O357 2.628 . S
La336 O358 2.554 . S
La336 O359 2.757 . S
La336 O360 2.470 . S
La336 O365 2.482 . S
La336 O367 2.503 . S
La337 C347 2.928 . S
La337 O359 2.482 . S
La337 O361 2.503 . S
La337 O362 2.521 . S
La337 O363 2.628 . S
La337 O364 2.554 . S
La337 O365 2.757 . S
La337 O366 2.470 . S
C338 La336 2.928 . S
C338 C339 1.503 . S
C338 O356 1.261 . S
C338 O357 1.243 . S
C339 C338 1.503 . S
C339 C340 1.394 . S
C339 C344 1.373 . S
C340 C339 1.394 . S
C340 C341 1.380 . S
C340 H368 0.930 . S
C341 C340 1.380 . S
C341 C342 1.376 . S
C341 H369 0.930 . S
C342 C341 1.376 . S
C342 C343 1.370 . S
C343 C342 1.370 . S
C343 C344 1.396 . S
C343 H370 0.929 . S
C344 C339 1.373 . S
C344 C343 1.396 . S
C344 H371 0.929 . S
C345 O358 1.240 . S
C345 O359 1.289 . S
C346 O360 1.258 . S
C346 O361 1.256 . S
C347 La337 2.928 . S
C347 C348 1.503 . S
C347 O362 1.261 . S
C347 O363 1.243 . S
C348 C347 1.503 . S
C348 C349 1.394 . S
C348 C353 1.373 . S
C349 C348 1.394 . S
C349 C350 1.380 . S
C349 H372 0.930 . S
C350 C349 1.380 . S
C350 C351 1.376 . S
C350 H373 0.930 . S
C351 C350 1.376 . S
C351 C352 1.370 . S
C352 C351 1.370 . S
C352 C353 1.396 . S
C352 H374 0.929 . S
C353 C348 1.373 . S
C353 C352 1.396 . S
C353 H375 0.929 . S
C354 O364 1.240 . S
C354 O365 1.289 . S
C355 O366 1.258 . S
C355 O367 1.256 . S
O356 La336 2.521 . S
O356 C338 1.261 . S
O357 La336 2.628 . S
O357 C338 1.243 . S
O358 La336 2.554 . S
O358 C345 1.240 . S
O359 La336 2.757 . S
O359 La337 2.482 . S
O359 C345 1.289 . S
O360 La336 2.470 . S
O360 C346 1.258 . S
O361 La337 2.503 . S
O361 C346 1.256 . S
O362 La337 2.521 . S
O362 C347 1.261 . S
O363 La337 2.628 . S
O363 C347 1.243 . S
O364 La337 2.554 . S
O364 C354 1.240 . S
O365 La336 2.482 . S
O365 La337 2.757 . S
O365 C354 1.289 . S
O366 La337 2.470 . S
O366 C355 1.258 . S
O367 La336 2.503 . S
O367 C355 1.256 . S
H368 C340 0.930 . S
H369 C341 0.930 . S
H370 C343 0.929 . S
H371 C344 0.929 . S
H372 C349 0.930 . S
H373 C350 0.930 . S
H374 C352 0.929 . S
H375 C353 0.929 . S
La376 C378 2.928 . S
La376 O396 2.521 . S
La376 O397 2.628 . S
La376 O398 2.554 . S
La376 O399 2.757 1_655 S
La376 O400 2.470 . S
La376 O405 2.482 . S
La376 O407 2.503 1_655 S
La377 C387 2.928 . S
La377 O399 2.482 . S
La377 O401 2.503 1_455 S
La377 O402 2.521 . S
La377 O403 2.628 . S
La377 O404 2.554 . S
La377 O405 2.757 1_455 S
La377 O406 2.470 . S
C378 La376 2.928 . S
C378 C379 1.503 . S
C378 O396 1.261 . S
C378 O397 1.243 . S
C379 C378 1.503 . S
C379 C380 1.394 . S
C379 C384 1.373 . S
C380 C379 1.394 . S
C380 C381 1.380 . S
C380 H408 0.930 . S
C381 C380 1.380 . S
C381 C382 1.376 . S
C381 H409 0.930 . S
C382 C381 1.376 . S
C382 C383 1.370 . S
C383 C382 1.370 . S
C383 C384 1.396 . S
C383 H410 0.929 . S
C384 C379 1.373 . S
C384 C383 1.396 . S
C384 H411 0.929 . S
C385 O398 1.255 . S
C385 O399 1.280 1_655 S
C386 O400 1.258 . S
C386 O401 1.256 . S
C387 La377 2.928 . S
C387 C388 1.503 . S
C387 O402 1.261 . S
C387 O403 1.243 . S
C388 C387 1.503 . S
C388 C389 1.394 . S
C388 C393 1.373 . S
C389 C388 1.394 . S
C389 C390 1.380 . S
C389 H412 0.930 . S
C390 C389 1.380 . S
C390 C391 1.376 . S
C390 H413 0.930 . S
C391 C390 1.376 . S
C391 C392 1.370 . S
C392 C391 1.370 . S
C392 C393 1.396 . S
C392 H414 0.929 . S
C393 C388 1.373 . S
C393 C392 1.396 . S
C393 H415 0.929 . S
C394 O404 1.261 . S
C394 O405 1.277 1_455 S
C395 O406 1.258 . S
C395 O407 1.256 . S
O396 La376 2.521 . S
O396 C378 1.261 . S
O397 La376 2.628 . S
O397 C378 1.243 . S
O398 La376 2.554 . S
O398 C385 1.255 . S
O399 La376 2.757 1_455 S
O399 La377 2.482 . S
O399 C385 1.280 1_455 S
O400 La376 2.470 . S
O400 C386 1.258 . S
O401 La377 2.503 1_655 S
O401 C386 1.256 . S
O402 La377 2.521 . S
O402 C387 1.261 . S
O403 La377 2.628 . S
O403 C387 1.243 . S
O404 La377 2.554 . S
O404 C394 1.261 . S
O405 La376 2.482 . S
O405 La377 2.757 1_655 S
O405 C394 1.277 1_655 S
O406 La377 2.470 . S
O406 C395 1.258 . S
O407 La376 2.503 1_455 S
O407 C395 1.256 . S
H408 C380 0.930 . S
H409 C381 0.930 . S
H410 C383 0.929 . S
H411 C384 0.929 . S
H412 C389 0.930 . S
H413 C390 0.930 . S
H414 C392 0.929 . S
H415 C393 0.929 . S
C416 C417 1.391 . S
C416 C418 1.394 . S
C416 H432 0.931 . S
C417 C416 1.391 . S
C417 C421 1.376 1_565 S
C418 C416 1.394 . S
C418 C419 1.369 . S
C418 C422 1.531 . S
C419 C418 1.369 . S
C419 C420 1.410 1_565 S
C419 C427 1.503 . S
C420 C419 1.410 1_545 S
C420 C421 1.392 . S
C420 C423 1.511 . S
C421 C417 1.376 1_545 S
C421 C420 1.392 . S
C421 H433 0.929 . S
C422 C418 1.531 . S
C422 H434 0.960 . S
C422 H435 0.962 . S
C422 H436 0.960 . S
C423 C420 1.511 . S
C423 H437 0.961 . S
C423 H438 0.961 . S
C423 H439 0.961 . S
C424 C425 1.390 . S
C424 C426 1.363 . S
C424 H440 0.931 . S
C425 C424 1.390 . S
C425 C429 1.386 1_545 S
C426 C424 1.363 . S
C426 C427 1.370 1_545 S
C426 C430 1.524 . S
C427 C419 1.503 . S
C427 C426 1.370 1_565 S
C427 C428 1.403 . S
C428 C427 1.403 . S
C428 C429 1.404 . S
C428 C431 1.539 . S
C429 C425 1.386 1_565 S
C429 C428 1.404 . S
C429 H441 0.930 . S
C430 C426 1.524 . S
C430 H442 0.956 . S
C430 H443 0.961 . S
C430 H444 0.961 . S
C431 C428 1.539 . S
C431 H445 0.958 . S
C431 H446 0.961 . S
C431 H447 0.960 . S
H432 C416 0.931 . S
H433 C421 0.929 . S
H434 C422 0.960 . S
H435 C422 0.962 . S
H436 C422 0.960 . S
H437 C423 0.961 . S
H438 C423 0.961 . S
H439 C423 0.961 . S
H440 C424 0.931 . S
H441 C429 0.930 . S
H442 C430 0.956 . S
H443 C430 0.961 . S
H444 C430 0.961 . S
H445 C431 0.958 . S
H446 C431 0.961 . S
H447 C431 0.960 . S
C448 C449 1.391 . S
C448 C450 1.394 . S
C448 H464 0.931 . S
C449 C448 1.391 . S
C449 C453 1.376 . S
C450 C448 1.394 . S
C450 C451 1.369 . S
C450 C454 1.531 . S
C451 C450 1.369 . S
C451 C452 1.410 . S
C451 C459 1.503 . S
C452 C451 1.410 . S
C452 C453 1.392 . S
C452 C455 1.511 . S
C453 C449 1.376 . S
C453 C452 1.392 . S
C453 H465 0.929 . S
C454 C450 1.531 . S
C454 H466 0.960 . S
C454 H467 0.962 . S
C454 H468 0.960 . S
C455 C452 1.511 . S
C455 H469 0.961 . S
C455 H470 0.961 . S
C455 H471 0.961 . S
C456 C457 1.370 . S
C456 C458 1.363 . S
C456 H472 0.931 . S
C457 C456 1.370 . S
C457 C461 1.408 . S
C458 C456 1.363 . S
C458 C459 1.370 . S
C458 C462 1.524 . S
C459 C451 1.503 . S
C459 C458 1.370 . S
C459 C460 1.403 . S
C460 C459 1.403 . S
C460 C461 1.404 . S
C460 C463 1.539 . S
C461 C457 1.408 . S
C461 C460 1.404 . S
C461 H473 0.930 . S
C462 C458 1.524 . S
C462 H474 0.956 . S
C462 H475 0.961 . S
C462 H476 0.961 . S
C463 C460 1.539 . S
C463 H477 0.958 . S
C463 H478 0.961 . S
C463 H479 0.960 . S
H464 C448 0.931 . S
H465 C453 0.929 . S
H466 C454 0.960 . S
H467 C454 0.962 . S
H468 C454 0.960 . S
H469 C455 0.961 . S
H470 C455 0.961 . S
H471 C455 0.961 . S
H472 C456 0.931 . S
H473 C461 0.930 . S
H474 C462 0.956 . S
H475 C462 0.961 . S
H476 C462 0.961 . S
H477 C463 0.958 . S
H478 C463 0.961 . S
H479 C463 0.960 . S
C480 C481 1.391 . S
C480 C482 1.394 . S
C480 H496 0.931 . S
C481 C480 1.391 . S
C481 C485 1.376 . S
C482 C480 1.394 . S
C482 C483 1.369 . S
C482 C486 1.531 . S
C483 C482 1.369 . S
C483 C484 1.410 . S
C483 C491 1.503 . S
C484 C483 1.410 . S
C484 C485 1.392 . S
C484 C487 1.511 . S
C485 C481 1.376 . S
C485 C484 1.392 . S
C485 H497 0.929 . S
C486 C482 1.531 . S
C486 H498 0.960 . S
C486 H499 0.962 . S
C486 H500 0.960 . S
C487 C484 1.511 . S
C487 H501 0.961 . S
C487 H502 0.961 . S
C487 H503 0.961 . S
C488 C489 1.370 . S
C488 C490 1.363 . S
C488 H504 0.931 . S
C489 C488 1.370 . S
C489 C493 1.408 . S
C490 C488 1.363 . S
C490 C491 1.370 . S
C490 C494 1.524 . S
C491 C483 1.503 . S
C491 C490 1.370 . S
C491 C492 1.403 . S
C492 C491 1.403 . S
C492 C493 1.404 . S
C492 C495 1.539 . S
C493 C489 1.408 . S
C493 C492 1.404 . S
C493 H505 0.930 . S
C494 C490 1.524 . S
C494 H506 0.956 . S
C494 H507 0.961 . S
C494 H508 0.961 . S
C495 C492 1.539 . S
C495 H509 0.958 . S
C495 H510 0.961 . S
C495 H511 0.960 . S
H496 C480 0.931 . S
H497 C485 0.929 . S
H498 C486 0.960 . S
H499 C486 0.962 . S
H500 C486 0.960 . S
H501 C487 0.961 . S
H502 C487 0.961 . S
H503 C487 0.961 . S
H504 C488 0.931 . S
H505 C493 0.930 . S
H506 C494 0.956 . S
H507 C494 0.961 . S
H508 C494 0.961 . S
H509 C495 0.958 . S
H510 C495 0.961 . S
H511 C495 0.960 . S
C512 C513 1.359 1_655 S
C512 C514 1.394 . S
C512 H528 0.931 . S
C513 C512 1.359 1_455 S
C513 C517 1.409 . S
C514 C512 1.394 . S
C514 C515 1.369 1_655 S
C514 C518 1.531 . S
C515 C514 1.369 1_455 S
C515 C516 1.410 . S
C515 C523 1.503 . S
C516 C515 1.410 . S
C516 C517 1.392 . S
C516 C519 1.511 . S
C517 C513 1.409 . S
C517 C516 1.392 . S
C517 H529 0.929 . S
C518 C514 1.531 . S
C518 H530 0.960 . S
C518 H531 0.962 . S
C518 H532 0.960 . S
C519 C516 1.511 . S
C519 H533 0.961 . S
C519 H534 0.961 . S
C519 H535 0.961 . S
C520 C521 1.370 1_655 S
C520 C522 1.363 . S
C520 H536 0.931 . S
C521 C520 1.370 1_455 S
C521 C525 1.408 . S
C522 C520 1.363 . S
C522 C523 1.370 1_655 S
C522 C526 1.524 . S
C523 C515 1.503 . S
C523 C522 1.370 1_455 S
C523 C524 1.403 . S
C524 C523 1.403 . S
C524 C525 1.404 . S
C524 C527 1.539 . S
C525 C521 1.408 . S
C525 C524 1.404 . S
C525 H537 0.930 . S
C526 C522 1.524 . S
C526 H538 0.956 . S
C526 H539 0.961 1_655 S
C526 H540 0.961 . S
C527 C524 1.539 . S
C527 H541 0.958 1_455 S
C527 H542 0.961 . S
C527 H543 0.960 . S
H528 C512 0.931 . S
H529 C517 0.929 . S
H530 C518 0.960 . S
H531 C518 0.962 . S
H532 C518 0.960 . S
H533 C519 0.961 . S
H534 C519 0.961 . S
H535 C519 0.961 . S
H536 C520 0.931 . S
H537 C525 0.930 . S
H538 C526 0.956 . S
H539 C526 0.961 1_455 S
H540 C526 0.961 . S
H541 C527 0.958 1_655 S
H542 C527 0.961 . S
H543 C527 0.960 . S
C544 C545 1.391 . S
C544 C546 1.394 . S
C544 H560 0.931 . S
C545 C544 1.391 . S
C545 C549 1.376 1_545 S
C546 C544 1.394 . S
C546 C547 1.369 . S
C546 C550 1.531 . S
C547 C546 1.369 . S
C547 C548 1.410 1_545 S
C547 C555 1.503 . S
C548 C547 1.410 1_565 S
C548 C549 1.392 . S
C548 C551 1.511 . S
C549 C545 1.376 1_565 S
C549 C548 1.392 . S
C549 H561 0.929 . S
C550 C546 1.531 . S
C550 H562 0.960 . S
C550 H563 0.962 . S
C550 H564 0.960 . S
C551 C548 1.511 . S
C551 H565 0.961 . S
C551 H566 0.961 . S
C551 H567 0.961 . S
C552 C553 1.384 . S
C552 C554 1.363 . S
C552 H568 0.931 . S
C553 C552 1.384 . S
C553 C557 1.392 1_565 S
C554 C552 1.363 . S
C554 C555 1.370 1_566 S
C554 C558 1.524 . S
C555 C547 1.503 . S
C555 C554 1.370 1_544 S
C555 C556 1.403 . S
C556 C555 1.403 . S
C556 C557 1.404 1_554 S
C556 C559 1.539 . S
C557 C553 1.392 1_545 S
C557 C556 1.404 1_556 S
C557 H569 0.930 . S
C558 C554 1.524 . S
C558 H570 0.956 . S
C558 H571 0.961 1_556 S
C558 H572 0.961 . S
C559 C556 1.539 . S
C559 H573 0.958 . S
C559 H574 0.961 . S
C559 H575 0.960 . S
H560 C544 0.931 . S
H561 C549 0.929 . S
H562 C550 0.960 . S
H563 C550 0.962 . S
H564 C550 0.960 . S
H565 C551 0.961 . S
H566 C551 0.961 . S
H567 C551 0.961 . S
H568 C552 0.931 . S
H569 C557 0.930 . S
H570 C558 0.956 . S
H571 C558 0.961 1_554 S
H572 C558 0.961 . S
H573 C559 0.958 . S
H574 C559 0.961 . S
H575 C559 0.960 . S
C576 C577 1.391 . S
C576 C578 1.394 . S
C576 H592 0.931 . S
C577 C576 1.391 . S
C577 C581 1.376 . S
C578 C576 1.394 . S
C578 C579 1.369 . S
C578 C582 1.531 . S
C579 C578 1.369 . S
C579 C580 1.410 . S
C579 C587 1.503 . S
C580 C579 1.410 . S
C580 C581 1.392 . S
C580 C583 1.511 . S
C581 C577 1.376 . S
C581 C580 1.392 . S
C581 H593 0.929 . S
C582 C578 1.531 . S
C582 H594 0.960 . S
C582 H595 0.962 . S
C582 H596 0.960 . S
C583 C580 1.511 . S
C583 H597 0.961 . S
C583 H598 0.961 . S
C583 H599 0.961 . S
C584 C585 1.370 . S
C584 C586 1.363 1_556 S
C584 H600 0.931 . S
C585 C584 1.370 . S
C585 C589 1.408 . S
C586 C584 1.363 1_554 S
C586 C587 1.370 . S
C586 C590 1.524 . S
C587 C579 1.503 . S
C587 C586 1.370 . S
C587 C588 1.403 1_554 S
C588 C587 1.403 1_556 S
C588 C589 1.404 . S
C588 C591 1.539 . S
C589 C585 1.408 . S
C589 C588 1.404 . S
C589 H601 0.930 . S
C590 C586 1.524 . S
C590 H602 0.956 . S
C590 H603 0.961 . S
C590 H604 0.961 . S
C591 C588 1.539 . S
C591 H605 0.958 . S
C591 H606 0.961 . S
C591 H607 0.960 . S
H592 C576 0.931 . S
H593 C581 0.929 . S
H594 C582 0.960 . S
H595 C582 0.962 . S
H596 C582 0.960 . S
H597 C583 0.961 . S
H598 C583 0.961 . S
H599 C583 0.961 . S
H600 C584 0.931 . S
H601 C589 0.930 . S
H602 C590 0.956 . S
H603 C590 0.961 . S
H604 C590 0.961 . S
H605 C591 0.958 . S
H606 C591 0.961 . S
H607 C591 0.960 . S
C608 C609 1.391 . S
C608 C610 1.394 . S
C608 H624 0.931 . S
C609 C608 1.391 . S
C609 C613 1.376 . S
C610 C608 1.394 . S
C610 C611 1.369 . S
C610 C614 1.531 . S
C611 C610 1.369 . S
C611 C612 1.410 . S
C611 C619 1.503 . S
C612 C611 1.410 . S
C612 C613 1.392 . S
C612 C615 1.511 . S
C613 C609 1.376 . S
C613 C612 1.392 . S
C613 H625 0.929 . S
C614 C610 1.531 . S
C614 H626 0.960 . S
C614 H627 0.962 . S
C614 H628 0.960 . S
C615 C612 1.511 . S
C615 H629 0.961 . S
C615 H630 0.961 1_554 S
C615 H631 0.961 . S
C616 C617 1.370 . S
C616 C618 1.363 . S
C616 H632 0.931 . S
C617 C616 1.370 . S
C617 C621 1.408 . S
C618 C616 1.363 . S
C618 C619 1.370 1_556 S
C618 C622 1.524 1_556 S
C619 C611 1.503 . S
C619 C618 1.370 1_554 S
C619 C620 1.399 1_554 S
C620 C619 1.399 1_556 S
C620 C621 1.414 . S
C620 C623 1.533 1_556 S
C621 C617 1.408 . S
C621 C620 1.414 . S
C621 H633 0.930 . S
C622 C618 1.524 1_554 S
C622 H634 0.956 . S
C622 H635 0.961 . S
C622 H636 0.961 1_554 S
C623 C620 1.533 1_554 S
C623 H637 0.958 . S
C623 H638 0.961 . S
C623 H639 0.960 . S
H624 C608 0.931 . S
H625 C613 0.929 . S
H626 C614 0.960 . S
H627 C614 0.962 . S
H628 C614 0.960 . S
H629 C615 0.961 . S
H630 C615 0.961 1_556 S
H631 C615 0.961 . S
H632 C616 0.931 . S
H633 C621 0.930 . S
H634 C622 0.956 . S
H635 C622 0.961 . S
H636 C622 0.961 1_556 S
H637 C623 0.958 . S
H638 C623 0.961 . S
H639 C623 0.960 . S
C640 C641 1.391 . S
C640 C642 1.394 . S
C640 H656 0.931 . S
C641 C640 1.391 . S
C641 C645 1.376 1_655 S
C642 C640 1.394 . S
C642 C643 1.369 . S
C642 C646 1.531 . S
C643 C642 1.369 . S
C643 C644 1.410 1_655 S
C643 C651 1.503 . S
C644 C643 1.410 1_455 S
C644 C645 1.392 . S
C644 C647 1.511 . S
C645 C641 1.376 1_455 S
C645 C644 1.392 . S
C645 H657 0.929 . S
C646 C642 1.531 . S
C646 H658 0.960 . S
C646 H659 0.962 . S
C646 H660 0.960 . S
C647 C644 1.511 . S
C647 H661 0.961 . S
C647 H662 0.961 . S
C647 H663 0.961 . S
C648 C649 1.370 1_455 S
C648 C650 1.363 1_556 S
C648 H664 0.931 . S
C649 C648 1.370 1_655 S
C649 C653 1.408 . S
C650 C648 1.363 1_554 S
C650 C651 1.370 1_455 S
C650 C654 1.524 . S
C651 C643 1.503 . S
C651 C650 1.370 1_655 S
C651 C652 1.403 1_554 S
C652 C651 1.403 1_556 S
C652 C653 1.404 . S
C652 C655 1.539 . S
C653 C649 1.408 . S
C653 C652 1.404 . S
C653 H665 0.930 . S
C654 C650 1.524 . S
C654 H666 0.956 . S
C654 H667 0.961 . S
C654 H668 0.961 . S
C655 C652 1.539 . S
C655 H669 0.958 . S
C655 H670 0.961 . S
C655 H671 0.960 . S
H656 C640 0.931 . S
H657 C645 0.929 . S
H658 C646 0.960 . S
H659 C646 0.962 . S
H660 C646 0.960 . S
H661 C647 0.961 . S
H662 C647 0.961 . S
H663 C647 0.961 . S
H664 C648 0.931 . S
H665 C653 0.930 . S
H666 C654 0.956 . S
H667 C654 0.961 . S
H668 C654 0.961 . S
H669 C655 0.958 . S
H670 C655 0.961 . S
H671 C655 0.960 . S
C672 C673 1.391 . S
C672 C674 1.394 . S
C672 H688 0.931 . S
C673 C672 1.391 . S
C673 C677 1.376 1_455 S
C674 C672 1.394 . S
C674 C675 1.369 1_455 S
C674 C678 1.531 . S
C675 C674 1.369 1_655 S
C675 C676 1.410 . S
C675 C683 1.503 . S
C676 C675 1.410 . S
C676 C677 1.392 . S
C676 C679 1.511 . S
C677 C673 1.376 1_655 S
C677 C676 1.392 . S
C677 H689 0.929 . S
C678 C674 1.531 . S
C678 H690 0.960 . S
C678 H691 0.962 . S
C678 H692 0.960 . S
C679 C676 1.511 . S
C679 H693 0.961 . S
C679 H694 0.961 . S
C679 H695 0.961 . S
C680 C681 1.370 . S
C680 C682 1.363 . S
C680 H696 0.931 . S
C681 C680 1.370 . S
C681 C685 1.408 . S
C682 C680 1.363 . S
C682 C683 1.370 . S
C682 C686 1.524 . S
C683 C675 1.503 . S
C683 C682 1.370 . S
C683 C684 1.403 . S
C684 C683 1.403 . S
C684 C685 1.404 . S
C684 C687 1.539 . S
C685 C681 1.408 . S
C685 C684 1.404 . S
C685 H697 0.930 . S
C686 C682 1.524 . S
C686 H698 0.956 1_655 S
C686 H699 0.961 . S
C686 H700 0.961 . S
C687 C684 1.539 . S
C687 H701 0.958 . S
C687 H702 0.961 . S
C687 H703 0.960 . S
H688 C672 0.931 . S
H689 C677 0.929 . S
H690 C678 0.960 . S
H691 C678 0.962 . S
H692 C678 0.960 . S
H693 C679 0.961 . S
H694 C679 0.961 . S
H695 C679 0.961 . S
H696 C680 0.931 . S
H697 C685 0.930 . S
H698 C686 0.956 1_455 S
H699 C686 0.961 . S
H700 C686 0.961 . S
H701 C687 0.958 . S
H702 C687 0.961 . S
H703 C687 0.960 . S
C704 C705 1.391 1_565 S
C704 C706 1.394 . S
C704 H720 0.931 . S
C705 C704 1.391 1_545 S
C705 C709 1.376 . S
C706 C704 1.394 . S
C706 C707 1.369 . S
C706 C710 1.531 . S
C707 C706 1.369 . S
C707 C708 1.410 1_565 S
C707 C715 1.503 . S
C708 C707 1.410 1_545 S
C708 C709 1.392 . S
C708 C711 1.511 . S
C709 C705 1.376 . S
C709 C708 1.392 . S
C709 H721 0.929 . S
C710 C706 1.531 . S
C710 H722 0.960 . S
C710 H723 0.962 . S
C710 H724 0.960 . S
C711 C708 1.511 . S
C711 H725 0.961 . S
C711 H726 0.961 . S
C711 H727 0.961 . S
C712 C713 1.370 . S
C712 C714 1.363 . S
C712 H728 0.931 . S
C713 C712 1.370 . S
C713 C717 1.408 . S
C714 C712 1.363 . S
C714 C715 1.370 . S
C714 C718 1.524 . S
C715 C707 1.503 . S
C715 C714 1.370 . S
C715 C716 1.403 . S
C716 C715 1.403 . S
C716 C717 1.404 . S
C716 C719 1.539 1_565 S
C717 C713 1.408 . S
C717 C716 1.404 . S
C717 H729 0.930 . S
C718 C714 1.524 . S
C718 H730 0.956 . S
C718 H731 0.961 . S
C718 H732 0.961 . S
C719 C716 1.539 1_545 S
C719 H733 0.979 . S
C719 H734 0.961 . S
C719 H735 0.960 . S
H720 C704 0.931 . S
H721 C709 0.929 . S
H722 C710 0.960 . S
H723 C710 0.962 . S
H724 C710 0.960 . S
H725 C711 0.961 . S
H726 C711 0.961 . S
H727 C711 0.961 . S
H728 C712 0.931 . S
H729 C717 0.930 . S
H730 C718 0.956 . S
H731 C718 0.961 . S
H732 C718 0.961 . S
H733 C719 0.979 . S
H734 C719 0.961 . S
H735 C719 0.960 . S
C736 C737 1.391 . S
C736 C738 1.394 . S
C736 H752 0.931 . S
C737 C736 1.391 . S
C737 C741 1.376 . S
C738 C736 1.394 . S
C738 C739 1.369 . S
C738 C742 1.531 . S
C739 C738 1.369 . S
C739 C740 1.410 . S
C739 C747 1.503 . S
C740 C739 1.410 . S
C740 C741 1.392 . S
C740 C743 1.511 . S
C741 C737 1.376 . S
C741 C740 1.392 . S
C741 H753 0.929 . S
C742 C738 1.531 . S
C742 H754 0.960 . S
C742 H755 0.962 . S
C742 H756 0.960 . S
C743 C740 1.511 . S
C743 H757 0.961 . S
C743 H758 0.961 . S
C743 H759 0.961 . S
C744 C745 1.370 . S
C744 C746 1.363 . S
C744 H760 0.931 . S
C745 C744 1.370 . S
C745 C749 1.408 . S
C746 C744 1.363 . S
C746 C747 1.370 . S
C746 C750 1.524 . S
C747 C739 1.503 . S
C747 C746 1.370 . S
C747 C748 1.403 . S
C748 C747 1.403 . S
C748 C749 1.404 . S
C748 C751 1.539 . S
C749 C745 1.408 . S
C749 C748 1.404 . S
C749 H761 0.930 . S
C750 C746 1.524 . S
C750 H762 0.956 . S
C750 H763 0.961 . S
C750 H764 0.961 . S
C751 C748 1.539 . S
C751 H765 0.958 . S
C751 H766 0.961 . S
C751 H767 0.960 . S
H752 C736 0.931 . S
H753 C741 0.929 . S
H754 C742 0.960 . S
H755 C742 0.962 . S
H756 C742 0.960 . S
H757 C743 0.961 . S
H758 C743 0.961 . S
H759 C743 0.961 . S
H760 C744 0.931 . S
H761 C749 0.930 . S
H762 C750 0.956 . S
H763 C750 0.961 . S
H764 C750 0.961 . S
H765 C751 0.958 . S
H766 C751 0.961 . S
H767 C751 0.960 . S
C768 C769 1.391 . S
C768 C770 1.394 . S
C768 H784 0.931 . S
C769 C768 1.391 . S
C769 C773 1.376 . S
C770 C768 1.394 . S
C770 C771 1.369 . S
C770 C774 1.531 . S
C771 C770 1.369 . S
C771 C772 1.410 . S
C771 C779 1.503 . S
C772 C771 1.410 . S
C772 C773 1.392 . S
C772 C775 1.511 . S
C773 C769 1.376 . S
C773 C772 1.392 . S
C773 H785 0.929 . S
C774 C770 1.531 . S
C774 H786 0.960 . S
C774 H787 0.962 . S
C774 H788 0.960 . S
C775 C772 1.511 . S
C775 H789 0.961 . S
C775 H790 0.961 . S
C775 H791 0.961 . S
C776 C777 1.370 . S
C776 C778 1.363 . S
C776 H792 0.931 . S
C777 C776 1.370 . S
C777 C781 1.408 . S
C778 C776 1.363 . S
C778 C779 1.370 . S
C778 C782 1.524 . S
C779 C771 1.503 . S
C779 C778 1.370 . S
C779 C780 1.403 . S
C780 C779 1.403 . S
C780 C781 1.404 . S
C780 C783 1.539 . S
C781 C777 1.408 . S
C781 C780 1.404 . S
C781 H793 0.930 . S
C782 C778 1.524 . S
C782 H794 0.956 . S
C782 H795 0.961 . S
C782 H796 0.961 . S
C783 C780 1.539 . S
C783 H797 0.958 . S
C783 H798 0.961 . S
C783 H799 0.960 . S
H784 C768 0.931 . S
H785 C773 0.929 . S
H786 C774 0.960 . S
H787 C774 0.962 . S
H788 C774 0.960 . S
H789 C775 0.961 . S
H790 C775 0.961 . S
H791 C775 0.961 . S
H792 C776 0.931 . S
H793 C781 0.930 . S
H794 C782 0.956 . S
H795 C782 0.961 . S
H796 C782 0.961 . S
H797 C783 0.958 . S
H798 C783 0.961 . S
H799 C783 0.960 . S
C800 C801 1.391 1_455 S
C800 C802 1.394 . S
C800 H816 0.931 . S
C801 C800 1.391 1_655 S
C801 C805 1.376 . S
C802 C800 1.394 . S
C802 C803 1.369 . S
C802 C806 1.531 1_554 S
C803 C802 1.369 . S
C803 C804 1.410 . S
C803 C811 1.503 . S
C804 C803 1.410 . S
C804 C805 1.392 1_455 S
C804 C807 1.511 . S
C805 C801 1.376 . S
C805 C804 1.392 1_655 S
C805 H817 0.929 . S
C806 C802 1.531 1_556 S
C806 H818 0.960 . S
C806 H819 0.962 . S
C806 H820 0.960 . S
C807 C804 1.511 . S
C807 H821 0.961 . S
C807 H822 0.961 . S
C807 H823 0.961 1_455 S
C808 C809 1.370 1_554 S
C808 C810 1.363 . S
C808 H824 0.931 . S
C809 C808 1.370 1_556 S
C809 C813 1.408 . S
C810 C808 1.363 . S
C810 C811 1.370 . S
C810 C814 1.524 . S
C811 C803 1.503 . S
C811 C810 1.370 . S
C811 C812 1.403 . S
C812 C811 1.403 . S
C812 C813 1.404 1_554 S
C812 C815 1.539 1_455 S
C813 C809 1.408 . S
C813 C812 1.404 1_556 S
C813 H825 0.930 . S
C814 C810 1.524 . S
C814 H826 0.956 . S
C814 H827 0.961 . S
C814 H828 0.961 . S
C815 C812 1.539 1_655 S
C815 H829 0.958 1_554 S
C815 H830 0.961 . S
C815 H831 0.960 . S
H816 C800 0.931 . S
H817 C805 0.929 . S
H818 C806 0.960 . S
H819 C806 0.962 . S
H820 C806 0.960 . S
H821 C807 0.961 . S
H822 C807 0.961 . S
H823 C807 0.961 1_655 S
H824 C808 0.931 . S
H825 C813 0.930 . S
H826 C814 0.956 . S
H827 C814 0.961 . S
H828 C814 0.961 . S
H829 C815 0.958 1_556 S
H830 C815 0.961 . S
H831 C815 0.960 . S
C832 C833 1.382 1_545 S
C832 C834 1.394 . S
C832 H848 0.931 . S
C833 C832 1.382 1_565 S
C833 C837 1.378 . S
C834 C832 1.394 . S
C834 C835 1.369 . S
C834 C838 1.531 . S
C835 C834 1.369 . S
C835 C836 1.410 . S
C835 C843 1.503 . S
C836 C835 1.410 . S
C836 C837 1.392 1_545 S
C836 C839 1.511 1_554 S
C837 C833 1.378 . S
C837 C836 1.392 1_565 S
C837 H849 0.929 . S
C838 C834 1.531 . S
C838 H850 0.960 . S
C838 H851 0.962 . S
C838 H852 0.960 . S
C839 C836 1.511 1_556 S
C839 H853 0.961 1_545 S
C839 H854 0.961 . S
C839 H855 0.961 . S
C840 C841 1.370 1_554 S
C840 C842 1.363 . S
C840 H856 0.931 . S
C841 C840 1.370 1_556 S
C841 C845 1.408 . S
C842 C840 1.363 . S
C842 C843 1.370 . S
C842 C846 1.524 1_545 S
C843 C835 1.503 . S
C843 C842 1.370 . S
C843 C844 1.403 . S
C844 C843 1.403 . S
C844 C845 1.404 1_554 S
C844 C847 1.539 . S
C845 C841 1.408 . S
C845 C844 1.404 1_556 S
C845 H857 0.930 . S
C846 C842 1.524 1_565 S
C846 H858 0.956 . S
C846 H859 0.961 . S
C846 H860 0.961 . S
C847 C844 1.539 . S
C847 H861 0.958 . S
C847 H862 0.961 1_554 S
C847 H863 0.960 . S
H848 C832 0.931 . S
H849 C837 0.929 . S
H850 C838 0.960 . S
H851 C838 0.962 . S
H852 C838 0.960 . S
H853 C839 0.961 1_565 S
H854 C839 0.961 . S
H855 C839 0.961 . S
H856 C840 0.931 . S
H857 C845 0.930 . S
H858 C846 0.956 . S
H859 C846 0.961 . S
H860 C846 0.961 . S
H861 C847 0.958 . S
H862 C847 0.961 1_556 S
H863 C847 0.960 . S
C864 C865 1.391 . S
C864 C866 1.394 . S
C864 H880 0.931 . S
C865 C864 1.391 . S
C865 C869 1.376 . S
C866 C864 1.394 . S
C866 C867 1.369 . S
C866 C870 1.531 . S
C867 C866 1.369 . S
C867 C868 1.410 . S
C867 C875 1.503 . S
C868 C867 1.410 . S
C868 C869 1.392 . S
C868 C871 1.511 . S
C869 C865 1.376 . S
C869 C868 1.392 . S
C869 H881 0.929 . S
C870 C866 1.531 . S
C870 H882 0.960 . S
C870 H883 0.962 . S
C870 H884 0.960 . S
C871 C868 1.511 . S
C871 H885 0.961 . S
C871 H886 0.961 . S
C871 H887 0.961 1_554 S
C872 C873 1.370 1_554 S
C872 C874 1.363 . S
C872 H888 0.931 . S
C873 C872 1.370 1_556 S
C873 C877 1.408 . S
C874 C872 1.363 . S
C874 C875 1.370 . S
C874 C878 1.524 . S
C875 C867 1.503 . S
C875 C874 1.370 . S
C875 C876 1.403 1_554 S
C876 C875 1.403 1_556 S
C876 C877 1.404 . S
C876 C879 1.539 . S
C877 C873 1.408 . S
C877 C876 1.404 . S
C877 H889 0.930 . S
C878 C874 1.524 . S
C878 H890 0.956 . S
C878 H891 0.961 . S
C878 H892 0.961 . S
C879 C876 1.539 . S
C879 H893 0.958 . S
C879 H894 0.961 . S
C879 H895 0.960 . S
H880 C864 0.931 . S
H881 C869 0.929 . S
H882 C870 0.960 . S
H883 C870 0.962 . S
H884 C870 0.960 . S
H885 C871 0.961 . S
H886 C871 0.961 . S
H887 C871 0.961 1_556 S
H888 C872 0.931 . S
H889 C877 0.930 . S
H890 C878 0.956 . S
H891 C878 0.961 . S
H892 C878 0.961 . S
H893 C879 0.958 . S
H894 C879 0.961 . S
H895 C879 0.960 . S
C896 C897 1.391 . S
C896 C898 1.394 . S
C896 H912 0.931 . S
C897 C896 1.391 . S
C897 C901 1.376 . S
C898 C896 1.394 . S
C898 C899 1.369 . S
C898 C902 1.531 . S
C899 C898 1.369 . S
C899 C900 1.410 . S
C899 C907 1.503 . S
C900 C899 1.410 . S
C900 C901 1.392 . S
C900 C903 1.511 1_554 S
C901 C897 1.376 . S
C901 C900 1.392 . S
C901 H913 0.929 . S
C902 C898 1.531 . S
C902 H914 0.960 . S
C902 H915 0.962 . S
C902 H916 0.960 . S
C903 C900 1.511 1_556 S
C903 H917 0.961 . S
C903 H918 0.961 . S
C903 H919 0.961 . S
C904 C905 1.370 1_554 S
C904 C906 1.363 . S
C904 H920 0.931 . S
C905 C904 1.370 1_556 S
C905 C909 1.408 . S
C906 C904 1.363 . S
C906 C907 1.370 . S
C906 C910 1.524 . S
C907 C899 1.503 . S
C907 C906 1.370 . S
C907 C908 1.403 . S
C908 C907 1.403 . S
C908 C909 1.404 1_554 S
C908 C911 1.539 1_554 S
C909 C905 1.408 . S
C909 C908 1.404 1_556 S
C909 H921 0.930 . S
C910 C906 1.524 . S
C910 H922 0.956 . S
C910 H923 0.961 . S
C910 H924 0.961 . S
C911 C908 1.539 1_556 S
C911 H925 0.958 1_556 S
C911 H926 0.961 . S
C911 H927 0.960 . S
H912 C896 0.931 . S
H913 C901 0.929 . S
H914 C902 0.960 . S
H915 C902 0.962 . S
H916 C902 0.960 . S
H917 C903 0.961 . S
H918 C903 0.961 . S
H919 C903 0.961 . S
H920 C904 0.931 . S
H921 C909 0.930 . S
H922 C910 0.956 . S
H923 C910 0.961 . S
H924 C910 0.961 . S
H925 C911 0.958 1_554 S
H926 C911 0.961 . S
H927 C911 0.960 . S
C928 C929 1.391 . S
C928 C930 1.394 . S
C928 H944 0.931 . S
C929 C928 1.391 . S
C929 C933 1.376 1_455 S
C930 C928 1.394 . S
C930 C931 1.369 . S
C930 C934 1.531 . S
C931 C930 1.369 . S
C931 C932 1.410 1_455 S
C931 C939 1.503 . S
C932 C931 1.410 1_655 S
C932 C933 1.392 . S
C932 C935 1.511 . S
C933 C929 1.376 1_655 S
C933 C932 1.392 . S
C933 H945 0.929 . S
C934 C930 1.531 . S
C934 H946 0.960 . S
C934 H947 0.962 . S
C934 H948 0.960 . S
C935 C932 1.511 . S
C935 H949 0.961 . S
C935 H950 0.961 . S
C935 H951 0.961 . S
C936 C937 1.370 . S
C936 C938 1.363 . S
C936 H952 0.931 . S
C937 C936 1.370 . S
C937 C941 1.408 . S
C938 C936 1.363 . S
C938 C939 1.370 . S
C938 C942 1.524 . S
C939 C931 1.503 . S
C939 C938 1.370 . S
C939 C940 1.403 . S
C940 C939 1.403 . S
C940 C941 1.404 . S
C940 C943 1.539 . S
C941 C937 1.408 . S
C941 C940 1.404 . S
C941 H953 0.930 . S
C942 C938 1.524 . S
C942 H954 0.956 . S
C942 H955 0.961 1_455 S
C942 H956 0.961 . S
C943 C940 1.539 . S
C943 H957 0.958 . S
C943 H958 0.961 1_455 S
C943 H959 0.960 1_455 S
H944 C928 0.931 . S
H945 C933 0.929 . S
H946 C934 0.960 . S
H947 C934 0.962 . S
H948 C934 0.960 . S
H949 C935 0.961 . S
H950 C935 0.961 . S
H951 C935 0.961 . S
H952 C936 0.931 . S
H953 C941 0.930 . S
H954 C942 0.956 . S
H955 C942 0.961 1_655 S
H956 C942 0.961 . S
H957 C943 0.958 . S
H958 C943 0.961 1_655 S
H959 C943 0.960 1_655 S
C960 C961 1.391 1_565 S
C960 C962 1.394 . S
C960 H976 0.931 . S
C961 C960 1.391 1_545 S
C961 C965 1.376 . S
C962 C960 1.394 . S
C962 C963 1.369 1_565 S
C962 C966 1.531 . S
C963 C962 1.369 1_545 S
C963 C964 1.410 . S
C963 C971 1.503 . S
C964 C963 1.410 . S
C964 C965 1.392 . S
C964 C967 1.511 . S
C965 C961 1.376 . S
C965 C964 1.392 . S
C965 H977 0.929 . S
C966 C962 1.531 . S
C966 H978 0.960 . S
C966 H979 0.962 . S
C966 H980 0.960 . S
C967 C964 1.511 . S
C967 H981 0.961 . S
C967 H982 0.961 . S
C967 H983 0.961 . S
C968 C969 1.370 1_565 S
C968 C970 1.363 . S
C968 H984 0.931 . S
C969 C968 1.370 1_545 S
C969 C973 1.408 . S
C970 C968 1.363 . S
C970 C971 1.370 1_565 S
C970 C974 1.524 . S
C971 C963 1.503 . S
C971 C970 1.370 1_545 S
C971 C972 1.403 . S
C972 C971 1.403 . S
C972 C973 1.404 . S
C972 C975 1.539 . S
C973 C969 1.408 . S
C973 C972 1.404 . S
C973 H985 0.930 . S
C974 C970 1.524 . S
C974 H986 0.956 . S
C974 H987 0.961 . S
C974 H988 0.961 . S
C975 C972 1.539 . S
C975 H989 0.958 . S
C975 H990 0.961 . S
C975 H991 0.960 . S
H976 C960 0.931 . S
H977 C965 0.929 . S
H978 C966 0.960 . S
H979 C966 0.962 . S
H980 C966 0.960 . S
H981 C967 0.961 . S
H982 C967 0.961 . S
H983 C967 0.961 . S
H984 C968 0.931 . S
H985 C973 0.930 . S
H986 C974 0.956 . S
H987 C974 0.961 . S
H988 C974 0.961 . S
H989 C975 0.958 . S
H990 C975 0.961 . S
H991 C975 0.960 . S
C992 C993 1.391 . S
C992 C994 1.394 . S
C992 H1008 0.931 . S
C993 C992 1.391 . S
C993 C997 1.376 . S
C994 C992 1.394 . S
C994 C995 1.369 . S
C994 C998 1.531 . S
C995 C994 1.369 . S
C995 C996 1.410 . S
C995 C1003 1.503 . S
C996 C995 1.410 . S
C996 C997 1.392 . S
C996 C999 1.511 . S
C997 C993 1.376 . S
C997 C996 1.392 . S
C997 H1009 0.929 . S
C998 C994 1.531 . S
C998 H1010 0.960 . S
C998 H1011 0.962 . S
C998 H1012 0.960 . S
C999 C996 1.511 . S
C999 H1013 0.961 . S
C999 H1014 0.961 . S
C999 H1015 0.961 . S
C1000 C1001 1.370 . S
C1000 C1002 1.363 . S
C1000 H1016 0.931 . S
C1001 C1000 1.370 . S
C1001 C1005 1.408 . S
C1002 C1000 1.363 . S
C1002 C1003 1.370 . S
C1002 C1006 1.524 . S
C1003 C995 1.503 . S
C1003 C1002 1.370 . S
C1003 C1004 1.403 . S
C1004 C1003 1.403 . S
C1004 C1005 1.404 . S
C1004 C1007 1.539 . S
C1005 C1001 1.408 . S
C1005 C1004 1.404 . S
C1005 H1017 0.930 . S
C1006 C1002 1.524 . S
C1006 H1018 0.956 . S
C1006 H1019 0.961 . S
C1006 H1020 0.961 . S
C1007 C1004 1.539 . S
C1007 H1021 0.958 . S
C1007 H1022 0.961 . S
C1007 H1023 0.960 . S
H1008 C992 0.931 . S
H1009 C997 0.929 . S
H1010 C998 0.960 . S
H1011 C998 0.962 . S
H1012 C998 0.960 . S
H1013 C999 0.961 . S
H1014 C999 0.961 . S
H1015 C999 0.961 . S
H1016 C1000 0.931 . S
H1017 C1005 0.930 . S
H1018 C1006 0.956 . S
H1019 C1006 0.961 . S
H1020 C1006 0.961 . S
H1021 C1007 0.958 . S
H1022 C1007 0.961 . S
H1023 C1007 0.960 . S
C1024 C1025 1.391 . S
C1024 C1026 1.394 . S
C1024 H1040 0.931 . S
C1025 C1024 1.391 . S
C1025 C1029 1.376 . S
C1026 C1024 1.394 . S
C1026 C1027 1.369 . S
C1026 C1030 1.531 . S
C1027 C1026 1.369 . S
C1027 C1028 1.410 . S
C1027 C1035 1.503 . S
C1028 C1027 1.410 . S
C1028 C1029 1.392 . S
C1028 C1031 1.511 . S
C1029 C1025 1.376 . S
C1029 C1028 1.392 . S
C1029 H1041 0.929 . S
C1030 C1026 1.531 . S
C1030 H1042 0.960 . S
C1030 H1043 0.962 . S
C1030 H1044 0.960 . S
C1031 C1028 1.511 . S
C1031 H1045 0.961 . S
C1031 H1046 0.961 . S
C1031 H1047 0.961 . S
C1032 C1033 1.370 . S
C1032 C1034 1.363 . S
C1032 H1048 0.931 . S
C1033 C1032 1.370 . S
C1033 C1037 1.408 . S
C1034 C1032 1.363 . S
C1034 C1035 1.370 . S
C1034 C1038 1.524 . S
C1035 C1027 1.503 . S
C1035 C1034 1.370 . S
C1035 C1036 1.403 . S
C1036 C1035 1.403 . S
C1036 C1037 1.404 . S
C1036 C1039 1.539 . S
C1037 C1033 1.408 . S
C1037 C1036 1.404 . S
C1037 H1049 0.930 . S
C1038 C1034 1.524 . S
C1038 H1050 0.956 . S
C1038 H1051 0.961 . S
C1038 H1052 0.961 . S
C1039 C1036 1.539 . S
C1039 H1053 0.958 . S
C1039 H1054 0.961 . S
C1039 H1055 0.960 . S
H1040 C1024 0.931 . S
H1041 C1029 0.929 . S
H1042 C1030 0.960 . S
H1043 C1030 0.962 . S
H1044 C1030 0.960 . S
H1045 C1031 0.961 . S
H1046 C1031 0.961 . S
H1047 C1031 0.961 . S
H1048 C1032 0.931 . S
H1049 C1037 0.930 . S
H1050 C1038 0.956 . S
H1051 C1038 0.961 . S
H1052 C1038 0.961 . S
H1053 C1039 0.958 . S
H1054 C1039 0.961 . S
H1055 C1039 0.960 . S
C1056 C1057 1.391 1_455 S
C1056 C1058 1.394 . S
C1056 H1072 0.931 . S
C1057 C1056 1.391 1_655 S
C1057 C1061 1.376 . S
C1058 C1056 1.394 . S
C1058 C1059 1.369 1_455 S
C1058 C1062 1.531 . S
C1059 C1058 1.369 1_655 S
C1059 C1060 1.410 . S
C1059 C1067 1.503 . S
C1060 C1059 1.410 . S
C1060 C1061 1.392 . S
C1060 C1063 1.511 . S
C1061 C1057 1.376 . S
C1061 C1060 1.392 . S
C1061 H1073 0.929 . S
C1062 C1058 1.531 . S
C1062 H1074 0.960 . S
C1062 H1075 0.962 . S
C1062 H1076 0.960 . S
C1063 C1060 1.511 . S
C1063 H1077 0.961 . S
C1063 H1078 0.961 . S
C1063 H1079 0.961 . S
C1064 C1065 1.383 . S
C1064 C1066 1.363 1_655 S
C1064 H1080 0.919 1_655 S
C1065 C1064 1.383 . S
C1065 C1069 1.408 . S
C1066 C1064 1.363 1_455 S
C1066 C1067 1.370 1_455 S
C1066 C1070 1.525 . S
C1067 C1059 1.503 . S
C1067 C1066 1.370 1_655 S
C1067 C1068 1.403 . S
C1068 C1067 1.403 . S
C1068 C1069 1.404 . S
C1068 C1071 1.539 . S
C1069 C1065 1.408 . S
C1069 C1068 1.404 . S
C1069 H1081 0.930 . S
C1070 C1066 1.525 . S
C1070 H1082 0.956 . S
C1070 H1083 0.988 . S
C1070 H1084 0.961 . S
C1071 C1068 1.539 . S
C1071 H1085 0.958 . S
C1071 H1086 0.961 . S
C1071 H1087 0.960 . S
H1072 C1056 0.931 . S
H1073 C1061 0.929 . S
H1074 C1062 0.960 . S
H1075 C1062 0.962 . S
H1076 C1062 0.960 . S
H1077 C1063 0.961 . S
H1078 C1063 0.961 . S
H1079 C1063 0.961 . S
H1080 C1064 0.919 1_455 S
H1081 C1069 0.930 . S
H1082 C1070 0.956 . S
H1083 C1070 0.988 . S
H1084 C1070 0.961 . S
H1085 C1071 0.958 . S
H1086 C1071 0.961 . S
H1087 C1071 0.960 . S
C1088 C1089 1.391 . S
C1088 C1090 1.394 . S
C1088 H1104 0.931 . S
C1089 C1088 1.391 . S
C1089 C1093 1.376 1_565 S
C1090 C1088 1.394 . S
C1090 C1091 1.369 . S
C1090 C1094 1.531 . S
C1091 C1090 1.369 . S
C1091 C1092 1.410 1_565 S
C1091 C1099 1.503 . S
C1092 C1091 1.410 1_545 S
C1092 C1093 1.392 . S
C1092 C1095 1.511 . S
C1093 C1089 1.376 1_545 S
C1093 C1092 1.392 . S
C1093 H1105 0.929 . S
C1094 C1090 1.531 . S
C1094 H1106 0.960 . S
C1094 H1107 0.962 . S
C1094 H1108 0.960 . S
C1095 C1092 1.511 . S
C1095 H1109 0.961 . S
C1095 H1110 0.961 . S
C1095 H1111 0.961 . S
C1096 C1097 1.370 . S
C1096 C1098 1.363 . S
C1096 H1112 0.931 . S
C1097 C1096 1.370 . S
C1097 C1101 1.408 1_565 S
C1098 C1096 1.363 . S
C1098 C1099 1.370 . S
C1098 C1102 1.524 . S
C1099 C1091 1.503 . S
C1099 C1098 1.370 . S
C1099 C1100 1.403 1_565 S
C1100 C1099 1.403 1_545 S
C1100 C1101 1.404 . S
C1100 C1103 1.539 . S
C1101 C1097 1.408 1_545 S
C1101 C1100 1.404 . S
C1101 H1113 0.930 . S
C1102 C1098 1.524 . S
C1102 H1114 0.956 . S
C1102 H1115 0.961 . S
C1102 H1116 0.961 . S
C1103 C1100 1.539 . S
C1103 H1117 0.958 . S
C1103 H1118 0.961 . S
C1103 H1119 0.960 . S
H1104 C1088 0.931 . S
H1105 C1093 0.929 . S
H1106 C1094 0.960 . S
H1107 C1094 0.962 . S
H1108 C1094 0.960 . S
H1109 C1095 0.961 . S
H1110 C1095 0.961 . S
H1111 C1095 0.961 . S
H1112 C1096 0.931 . S
H1113 C1101 0.930 . S
H1114 C1102 0.956 . S
H1115 C1102 0.961 . S
H1116 C1102 0.961 . S
H1117 C1103 0.958 . S
H1118 C1103 0.961 . S
H1119 C1103 0.960 . S
C1120 C1121 1.391 . S
C1120 C1122 1.394 . S
C1120 H1136 0.931 . S
C1121 C1120 1.391 . S
C1121 C1125 1.376 . S
C1122 C1120 1.394 . S
C1122 C1123 1.369 . S
C1122 C1126 1.531 . S
C1123 C1122 1.369 . S
C1123 C1124 1.410 . S
C1123 C1131 1.503 . S
C1124 C1123 1.410 . S
C1124 C1125 1.392 . S
C1124 C1127 1.511 . S
C1125 C1121 1.376 . S
C1125 C1124 1.392 . S
C1125 H1137 0.929 . S
C1126 C1122 1.531 . S
C1126 H1138 0.960 . S
C1126 H1139 0.962 . S
C1126 H1140 0.960 . S
C1127 C1124 1.511 . S
C1127 H1141 0.961 . S
C1127 H1142 0.961 . S
C1127 H1143 0.961 . S
C1128 C1129 1.370 . S
C1128 C1130 1.363 . S
C1128 H1144 0.931 . S
C1129 C1128 1.370 . S
C1129 C1133 1.408 . S
C1130 C1128 1.363 . S
C1130 C1131 1.370 . S
C1130 C1134 1.524 . S
C1131 C1123 1.503 . S
C1131 C1130 1.370 . S
C1131 C1132 1.403 . S
C1132 C1131 1.403 . S
C1132 C1133 1.404 . S
C1132 C1135 1.539 . S
C1133 C1129 1.408 . S
C1133 C1132 1.404 . S
C1133 H1145 0.930 . S
C1134 C1130 1.524 . S
C1134 H1146 0.956 . S
C1134 H1147 0.961 . S
C1134 H1148 0.961 . S
C1135 C1132 1.539 . S
C1135 H1149 0.958 . S
C1135 H1150 0.961 . S
C1135 H1151 0.960 . S
H1136 C1120 0.931 . S
H1137 C1125 0.929 . S
H1138 C1126 0.960 . S
H1139 C1126 0.962 . S
H1140 C1126 0.960 . S
H1141 C1127 0.961 . S
H1142 C1127 0.961 . S
H1143 C1127 0.961 . S
H1144 C1128 0.931 . S
H1145 C1133 0.930 . S
H1146 C1134 0.956 . S
H1147 C1134 0.961 . S
H1148 C1134 0.961 . S
H1149 C1135 0.958 . S
H1150 C1135 0.961 . S
H1151 C1135 0.960 . S
C1152 C1153 1.391 . S
C1152 C1154 1.394 . S
C1152 H1168 0.931 . S
C1153 C1152 1.391 . S
C1153 C1157 1.376 . S
C1154 C1152 1.394 . S
C1154 C1155 1.369 . S
C1154 C1158 1.531 . S
C1155 C1154 1.369 . S
C1155 C1156 1.410 . S
C1155 C1163 1.503 . S
C1156 C1155 1.410 . S
C1156 C1157 1.392 . S
C1156 C1159 1.511 . S
C1157 C1153 1.376 . S
C1157 C1156 1.392 . S
C1157 H1169 0.929 . S
C1158 C1154 1.531 . S
C1158 H1170 0.960 . S
C1158 H1171 0.962 . S
C1158 H1172 0.960 . S
C1159 C1156 1.511 . S
C1159 H1173 0.961 . S
C1159 H1174 0.961 . S
C1159 H1175 0.961 . S
C1160 C1161 1.370 . S
C1160 C1162 1.363 . S
C1160 H1176 0.931 . S
C1161 C1160 1.370 . S
C1161 C1165 1.408 . S
C1162 C1160 1.363 . S
C1162 C1163 1.370 . S
C1162 C1166 1.524 . S
C1163 C1155 1.503 . S
C1163 C1162 1.370 . S
C1163 C1164 1.403 . S
C1164 C1163 1.403 . S
C1164 C1165 1.404 . S
C1164 C1167 1.539 . S
C1165 C1161 1.408 . S
C1165 C1164 1.404 . S
C1165 H1177 0.930 . S
C1166 C1162 1.524 . S
C1166 H1178 0.956 . S
C1166 H1179 0.961 . S
C1166 H1180 0.961 . S
C1167 C1164 1.539 . S
C1167 H1181 0.958 . S
C1167 H1182 0.961 . S
C1167 H1183 0.960 . S
H1168 C1152 0.931 . S
H1169 C1157 0.929 . S
H1170 C1158 0.960 . S
H1171 C1158 0.962 . S
H1172 C1158 0.960 . S
H1173 C1159 0.961 . S
H1174 C1159 0.961 . S
H1175 C1159 0.961 . S
H1176 C1160 0.931 . S
H1177 C1165 0.930 . S
H1178 C1166 0.956 . S
H1179 C1166 0.961 . S
H1180 C1166 0.961 . S
H1181 C1167 0.958 . S
H1182 C1167 0.961 . S
H1183 C1167 0.960 . S
C417 C215 2.002 1_565 S
C425 C265 2.175 1_545 S
C457 C305 2.186 . S
C449 C247 2.022 . S
C489 C345 2.194 . S
C481 C151 2.023 . S
C521 C385 2.184 1_455 S
C513 C183 1.984 . S
C553 C274 2.177 1_565 S
C545 C87 2.024 . S
C577 C119 1.997 . S
C585 C314 2.192 . S
C609 C23 2.054 . S
C617 C354 2.196 . S
C641 C55 1.997 1_655 S
C649 C394 2.184 1_655 S
C681 C271 0.492 . S
C673 C189 0.432 . S
C713 C311 0.438 . S
C705 C221 0.358 . S
C745 C351 0.462 . S
C737 C253 0.434 . S
C769 C157 0.385 . S
C777 C391 0.422 . S
C801 C61 0.663 1_655 S
C809 C262 0.425 . S
C841 C302 0.503 . S
C833 C93 0.448 1_565 S
C873 C342 0.466 . S
C865 C125 0.558 . S
C897 C29 0.498 . S
C905 C382 0.490 . S
C929 C177 2.473 . S
C937 C275 2.806 . S
C961 C209 2.496 . S
C969 C315 2.797 . S
C1001 C355 2.781 . S
C993 C241 2.441 . S
C1033 C395 2.805 . S
C1025 C145 2.451 . S
C1057 C49 2.511 1_655 S
C1065 C266 2.823 . S
C1097 C306 2.788 . S
C1089 C81 2.525 1_565 S
C1129 C346 2.779 . S
C1121 C113 2.522 . S
C1153 C17 2.524 . S
C1161 C386 2.804 . S
