# Generated by pormake.
# Topology pth, (4,4)-cn, num edge types: 1
# Building blocks:
#     Node 0, Type 0, BuildingBlock: UXUYUI_clean_sbu_0, # of connection points: 4
#     Node 1, Type 0, BuildingBlock: UXUYUI_clean_sbu_0, # of connection points: 4
#     Node 2, Type 0, BuildingBlock: UXUYUI_clean_sbu_0, # of connection points: 4
#     Node 3, Type 1, BuildingBlock: NAWXER_clean_linker_0, # of connection points: 4
#     Node 4, Type 1, BuildingBlock: NAWXER_clean_linker_0, # of connection points: 4
#     Node 5, Type 1, BuildingBlock: NAWXER_clean_linker_0, # of connection points: 4
#     Edge 6, Type (0, 1), BuildingBlock: AJUNOK_clean_linker_0, # of connection points: 2
#     Edge 7, Type (0, 1), BuildingBlock: AJUNOK_clean_linker_0, # of connection points: 2
#     Edge 8, Type (0, 1), BuildingBlock: AJUNOK_clean_linker_0, # of connection points: 2
#     Edge 9, Type (0, 1), BuildingBlock: AJUNOK_clean_linker_0, # of connection points: 2
#     Edge 10, Type (0, 1), BuildingBlock: AJUNOK_clean_linker_0, # of connection points: 2
#     Edge 11, Type (0, 1), BuildingBlock: AJUNOK_clean_linker_0, # of connection points: 2
#     Edge 12, Type (0, 1), BuildingBlock: AJUNOK_clean_linker_0, # of connection points: 2
#     Edge 13, Type (0, 1), BuildingBlock: AJUNOK_clean_linker_0, # of connection points: 2
#     Edge 14, Type (0, 1), BuildingBlock: AJUNOK_clean_linker_0, # of connection points: 2
#     Edge 15, Type (0, 1), BuildingBlock: AJUNOK_clean_linker_0, # of connection points: 2
#     Edge 16, Type (0, 1), BuildingBlock: AJUNOK_clean_linker_0, # of connection points: 2
#     Edge 17, Type (0, 1), BuildingBlock: AJUNOK_clean_linker_0, # of connection points: 2
# Relax obj value: 0.074
# Max RMSD: 0.209
# Mean RMSD: 0.112
data_MOF--net-pth--node1-UXUYUI_clean_sbu_0--node2-NAWXER_clean_linker_0--edge1-AJUNOK_clean_linker_0
_symmetry_space_group_name_H-M    P1
_symmetry_Int_Tables_number       1
_symmetry_cell_setting            triclinic
loop_
_symmetry_equiv_pos_as_xyz
'x, y, z'
_cell_length_a     28.144033
_cell_length_b     28.152061
_cell_length_c     63.445207
_cell_angle_alpha  89.987156
_cell_angle_beta   89.947549
_cell_angle_gamma 119.99242
loop_
_atom_site_label
_atom_site_type_symbol
_atom_site_fract_x
_atom_site_fract_y
_atom_site_fract_z
_atom_type_partial_charge
Li0 Li 0.04885 0.03447 0.04314 0.0
Li1 Li 0.98237 0.03346 0.06987 0.0
Li2 Li 0.0088 0.95974 0.06836 0.0
Li3 Li 0.95299 0.96505 0.04157 0.0
C4 C 0.10808 0.08078 0.07784 0.0
N5 N 0.21432 0.1657 0.08346 0.0
C6 C 0.11788 0.13249 0.08415 0.0
C7 C 0.1523 0.0721 0.07467 0.0
C8 C 0.17189 0.17493 0.08684 0.0
C9 C 0.20571 0.11559 0.07751 0.0
C10 C 0.95526 0.04978 0.02349 0.0
C11 C 0.87623 0.0538 0.01136 0.0
N12 N 0.89115 0.05224 0.99108 0.0
C13 C 0.97004 0.0485 1.00256 0.0
C14 C 0.90814 0.05263 0.02799 0.0
C15 C 0.93699 0.04966 0.98638 0.0
C16 C 0.12982 0.06747 0.01072 0.0
N17 N 0.10924 0.08496 0.02638 0.0
C18 C 0.16599 0.17824 0.01569 0.0
C19 C 0.12629 0.13906 0.02902 0.0
C20 C 0.1874 0.16143 0.99918 0.0
C21 C 0.16941 0.10531 0.9969 0.0
H22 H 0.11424 0.0241 0.00851 0.0
H23 H 0.10764 0.15162 0.04105 0.0
C24 C 0.96082 0.06843 0.10862 0.0
N25 N 0.97054 0.08049 0.08775 0.0
C26 C 0.96025 0.10658 0.12256 0.0
C27 C 0.97893 0.1683 0.09319 0.0
C28 C 0.97863 0.12881 0.0798 0.0
C29 C 0.97078 0.15773 0.11491 0.0
H30 H 0.95538 0.02995 0.1145 0.0
H31 H 0.98717 0.13756 0.06318 0.0
C32 C 0.03384 0.91766 0.03656 0.0
N33 N 0.0667 0.84012 0.03572 0.0
C34 C 0.99512 0.86215 0.03395 0.0
C35 C 0.08932 0.93373 0.03854 0.0
C36 C 0.01253 0.82357 0.03362 0.0
C37 C 0.10511 0.89393 0.03814 0.0
C38 C 0.87881 0.92281 0.07318 0.0
C39 C 0.85087 0.86666 0.06871 0.0
C40 C 0.84907 0.94851 0.0788 0.0
C41 C 0.79364 0.83719 0.06988 0.0
C42 C 0.79187 0.91758 0.07983 0.0
N43 N 0.76557 0.86304 0.07538 0.0
C44 C 0.06107 0.93 0.10039 0.0
C45 C 0.98134 0.85665 0.08512 0.0
C46 C 0.0654 0.89382 0.11435 0.0
N47 N 0.01936 0.91087 0.08618 0.0
C48 C 0.98427 0.81914 0.09861 0.0
C49 C 0.02629 0.83765 0.11364 0.0
H50 H 0.09032 0.97339 0.10119 0.0
H51 H 0.9482 0.84248 0.07396 0.0
C52 C 0.9122 0.90226 0.00502 0.0
N53 N 0.89641 0.9229 0.02122 0.0
C54 C 0.87408 0.86738 0.99024 0.0
C55 C 0.80432 0.87818 0.00816 0.0
C56 C 0.84401 0.91321 0.02256 0.0
C57 C 0.81915 0.8542 0.99193 0.0
H58 H 0.95441 0.91204 0.00376 0.0
H59 H 0.83262 0.93182 0.03496 0.0
O60 O 0.05549 0.03887 0.07482 0.0
O61 O 0.98617 0.04706 0.03952 0.0
O62 O 0.01751 0.95602 0.03719 0.0
O63 O 0.93491 0.95235 0.0724 0.0
H64 H 0.08427 0.13998 0.08681 0.0
H65 H 0.14549 0.03223 0.07008 0.0
H66 H 0.18005 0.21523 0.09159 0.0
H67 H 0.24031 0.10949 0.075 0.0
H68 H 0.83946 0.05569 0.01458 0.0
H69 H 0.00631 0.04602 0.99888 0.0
H70 H 0.89605 0.05327 0.04414 0.0
H71 H 0.94769 0.04836 0.9701 0.0
H72 H 0.17836 0.22108 0.01778 0.0
H73 H 0.18525 0.09085 0.98442 0.0
H74 H 0.954 0.0972 0.13924 0.0
H75 H 0.98666 0.20715 0.08673 0.0
H76 H 0.95191 0.8488 0.03259 0.0
H77 H 0.11992 0.97647 0.04035 0.0
H78 H 0.98294 0.78045 0.03179 0.0
H79 H 0.1479 0.90582 0.03972 0.0
H80 H 0.87289 0.84616 0.06396 0.0
H81 H 0.86977 0.99189 0.0822 0.0
H82 H 0.77152 0.79382 0.06631 0.0
H83 H 0.76839 0.93699 0.08411 0.0
H84 H 0.09871 0.90957 0.12563 0.0
H85 H 0.95307 0.77623 0.09768 0.0
H86 H 0.88713 0.84946 0.97805 0.0
H87 H 0.76241 0.86949 0.0098 0.0
Li88 Li 0.99207 0.94974 0.37775 0.0
Li89 Li 0.04722 0.01253 0.40448 0.0
Li90 Li 0.95121 0.98517 0.40324 0.0
Li91 Li 0.01727 0.05031 0.37604 0.0
C92 C 0.95827 0.8831 0.41187 0.0
N93 N 0.9073 0.77096 0.41788 0.0
C94 C 0.9894 0.85816 0.41631 0.0
C95 C 0.90117 0.85105 0.41078 0.0
C96 C 0.96289 0.8014 0.41921 0.0
C97 C 0.87617 0.79442 0.4138 0.0
C98 C 0.1207 0.03951 0.37286 0.0
C99 C 0.21099 0.11653 0.36631 0.0
N100 N 0.23324 0.08457 0.3709 0.0
C101 C 0.14447 0.00739 0.37743 0.0
C102 C 0.15419 0.09453 0.36723 0.0
C103 C 0.20144 0.03096 0.3764 0.0
C104 C 0.95015 0.87601 0.34288 0.0
N105 N 0.98303 0.89065 0.36018 0.0
C106 C 0.01454 0.82895 0.35055 0.0
C107 C 0.01474 0.86784 0.36422 0.0
C108 C 0.98142 0.81339 0.33251 0.0
C109 C 0.9484 0.83689 0.32882 0.0
H110 H 0.92668 0.89598 0.33959 0.0
H111 H 0.04139 0.88086 0.37776 0.0
C112 C 0.08909 0.99058 0.44068 0.0
N113 N 0.10437 0.02718 0.42455 0.0
C114 C 0.12757 0.99405 0.45533 0.0
C115 C 0.1968 0.07463 0.43726 0.0
C116 C 0.15673 0.06985 0.42302 0.0
C117 C 0.18238 0.03597 0.45351 0.0
H118 H 0.04698 0.95803 0.44203 0.0
H119 H 0.16777 0.09976 0.41061 0.0
C120 C 0.89178 0.9643 0.36575 0.0
N121 N 0.78475 0.92902 0.35391 0.0
C122 C 0.87708 0.00185 0.35822 0.0
C123 C 0.85225 0.90868 0.36689 0.0
C124 C 0.8227 0.98325 0.35242 0.0
C125 C 0.79831 0.89168 0.36092 0.0
C126 C 0.04851 0.09838 0.42072 0.0
C127 C 0.03967 0.08752 0.4423 0.0
C128 C 0.09376 0.14715 0.41378 0.0
C129 C 0.07678 0.12565 0.45664 0.0
C130 C 0.12985 0.18428 0.42862 0.0
N131 N 0.12072 0.17281 0.44956 0.0
C132 C 0.88079 0.94761 0.43882 0.0
C133 C 0.86286 1.00062 0.41451 0.0
C134 C 0.84124 0.94577 0.45268 0.0
N135 N 0.8906 0.97455 0.42012 0.0
C136 C 0.82278 0.99952 0.4278 0.0
C137 C 0.81181 0.9722 0.44726 0.0
H138 H 0.90508 0.92926 0.44333 0.0
H139 H 0.87327 0.02406 0.40009 0.0
C140 C 0.04997 0.11393 0.3384 0.0
N141 N 0.0286 0.1088 0.35804 0.0
C142 C 0.0536 0.1546 0.32474 0.0
C143 C 0.01219 0.18299 0.35167 0.0
C144 C 0.01014 0.1424 0.3649 0.0
C145 C 0.03432 0.18967 0.33129 0.0
H146 H 0.06345 0.08593 0.33326 0.0
H147 H 0.99214 0.1364 0.38044 0.0
O148 O 0.98364 0.93867 0.40892 0.0
O149 O 0.06497 0.01716 0.37362 0.0
O150 O 0.94484 0.98185 0.37156 0.0
O151 O 0.01356 0.06096 0.40644 0.0
H152 H 0.03366 0.88234 0.41731 0.0
H153 H 0.87633 0.86967 0.40778 0.0
H154 H 0.98654 0.78156 0.4225 0.0
H155 H 0.83201 0.76914 0.41294 0.0
H156 H 0.2374 0.15908 0.36204 0.0
H157 H 0.11936 0.96502 0.38206 0.0
H158 H 0.13665 0.12017 0.3638 0.0
H159 H 0.22038 0.00666 0.38005 0.0
H160 H 0.0406 0.81173 0.35391 0.0
H161 H 0.92311 0.82664 0.31483 0.0
H162 H 0.11489 0.96319 0.46756 0.0
H163 H 0.23865 0.10789 0.43551 0.0
H164 H 0.90721 0.04496 0.35703 0.0
H165 H 0.86317 0.87884 0.37208 0.0
H166 H 0.81068 0.01194 0.34674 0.0
H167 H 0.76729 0.84877 0.36178 0.0
H168 H 0.00486 0.04977 0.44787 0.0
H169 H 0.10122 0.15593 0.3971 0.0
H170 H 0.07072 0.11769 0.47339 0.0
H171 H 0.16524 0.22208 0.42349 0.0
H172 H 0.83535 0.92574 0.46781 0.0
H173 H 0.80134 0.02079 0.42309 0.0
H174 H 0.07085 0.15826 0.30915 0.0
H175 H 0.99509 0.20771 0.35715 0.0
Li176 Li 0.03777 0.98866 0.71073 0.0
Li177 Li 0.03572 0.05032 0.73729 0.0
Li178 Li 0.96306 0.95047 0.7364 0.0
Li179 Li 0.96286 0.0129 0.70982 0.0
C180 C 0.08077 0.96838 0.74541 0.0
N181 N 0.15795 0.93657 0.75191 0.0
C182 C 0.1341 0.00694 0.75151 0.0
C183 C 0.06645 0.9135 0.74297 0.0
C184 C 0.17261 0.99011 0.75462 0.0
C185 C 0.10611 0.89825 0.74623 0.0
C186 C 0.0693 0.11481 0.69966 0.0
C187 C 0.0683 0.19868 0.69295 0.0
N188 N 0.12092 0.22243 0.6859 0.0
C189 C 0.12309 0.13982 0.69202 0.0
C190 C 0.04144 0.14427 0.69985 0.0
C191 C 0.1486 0.19434 0.68528 0.0
C192 C 0.07243 0.94479 0.67717 0.0
N193 N 0.08878 0.98034 0.69367 0.0
C194 C 0.18283 0.0181 0.68387 0.0
C195 C 0.14273 0.0162 0.69731 0.0
C196 C 0.16722 0.98322 0.66631 0.0
C197 C 0.11133 0.94526 0.66327 0.0
H198 H 0.02919 0.91755 0.67433 0.0
H199 H 0.15452 0.04492 0.71022 0.0
C200 C 0.06488 0.11201 0.77509 0.0
N201 N 0.08254 0.10925 0.75541 0.0
C202 C 0.10087 0.15082 0.78953 0.0
C203 C 0.17243 0.18312 0.76317 0.0
C204 C 0.1351 0.14382 0.74926 0.0
C205 C 0.15558 0.18666 0.78365 0.0
H206 H 0.02331 0.0829 0.77979 0.0
H207 H 0.14875 0.13936 0.73387 0.0
C208 C 0.92105 0.8867 0.70182 0.0
N209 N 0.84543 0.77718 0.69553 0.0
C210 C 0.86684 0.87064 0.69659 0.0
C211 C 0.93703 0.84717 0.70346 0.0
C212 C 0.82915 0.81504 0.69359 0.0
C213 C 0.89815 0.79198 0.70032 0.0
C214 C 0.92814 0.04299 0.74725 0.0
C215 C 0.87441 0.01362 0.75491 0.0
C216 C 0.95505 0.10026 0.74677 0.0
C217 C 0.84799 0.04197 0.76138 0.0
C218 C 0.92729 0.12714 0.75341 0.0
N219 N 0.87474 0.09768 0.76048 0.0
C220 C 0.93175 0.87156 0.76962 0.0
C221 C 0.85927 0.87091 0.7504 0.0
C222 C 0.89422 0.83176 0.78347 0.0
N223 N 0.91367 0.89037 0.75355 0.0
C224 C 0.82044 0.83119 0.7638 0.0
C225 C 0.83777 0.81177 0.7808 0.0
H226 H 0.97528 0.88855 0.77208 0.0
H227 H 0.84608 0.88775 0.7379 0.0
C228 C 0.93288 0.0439 0.67189 0.0
N229 N 0.91525 0.02365 0.6916 0.0
C230 C 0.89685 0.04652 0.65741 0.0
C231 C 0.82524 0.00725 0.68375 0.0
C232 C 0.86262 0.00546 0.6977 0.0
C233 C 0.84213 0.02767 0.66327 0.0
H234 H 0.97453 0.05657 0.66724 0.0
H235 H 0.849 0.9875 0.71312 0.0
O236 O 0.04262 0.9842 0.74211 0.0
O237 O 0.04356 0.06121 0.70614 0.0
O238 O 0.95844 0.94093 0.70499 0.0
O239 O 0.95472 0.01578 0.74099 0.0
H240 H 0.14579 0.04949 0.75368 0.0
H241 H 0.0251 0.88293 0.73874 0.0
H242 H 0.21414 0.01961 0.75918 0.0
H243 H 0.09561 0.85593 0.74431 0.0
H244 H 0.04719 0.22194 0.69309 0.0
H245 H 0.14511 0.11754 0.6914 0.0
H246 H 0.99925 0.12521 0.70499 0.0
H247 H 0.19036 0.21428 0.67951 0.0
H248 H 0.22558 0.0474 0.68691 0.0
H249 H 0.09777 0.91787 0.64984 0.0
H250 H 0.08663 0.1514 0.80534 0.0
H251 H 0.21435 0.20982 0.75809 0.0
H252 H 0.85385 0.90069 0.69505 0.0
H253 H 0.97906 0.85897 0.70697 0.0
H254 H 0.78695 0.802 0.68972 0.0
H255 H 0.90993 0.76094 0.70163 0.0
H256 H 0.85315 0.96935 0.75574 0.0
H257 H 0.99717 0.12386 0.7416 0.0
H258 H 0.80626 0.01968 0.76717 0.0
H259 H 0.94765 0.17145 0.75305 0.0
H260 H 0.90916 0.81733 0.79627 0.0
H261 H 0.77736 0.81728 0.76133 0.0
H262 H 0.91113 0.06132 0.6416 0.0
H263 H 0.78331 0.99203 0.68881 0.0
C264 C 0.97929 0.32943 0.26077 0.0
C265 C 0.02633 0.34666 0.27332 0.0
C266 C 0.97467 0.36645 0.24739 0.0
C267 C 0.01696 0.42133 0.24638 0.0
C268 C 0.06925 0.40131 0.27171 0.0
C269 C 0.06422 0.43842 0.25861 0.0
C270 C 0.01122 0.46207 0.23364 0.0
C271 C 0.03287 0.35332 0.18667 0.0
C272 C 0.98812 0.32572 0.17291 0.0
C273 C 0.03696 0.39532 0.19967 0.0
C274 C 0.99621 0.41022 0.19918 0.0
C275 C 0.94704 0.34013 0.17268 0.0
C276 C 0.95134 0.38237 0.18555 0.0
C277 C 0.00155 0.45694 0.21172 0.0
C278 C 0.05327 0.68432 0.18828 0.0
C279 C 0.01627 0.67244 0.17157 0.0
C280 C 0.04876 0.64245 0.20146 0.0
C281 C 0.00694 0.58792 0.19827 0.0
C282 C 0.9748 0.61781 0.16828 0.0
C283 C 0.97035 0.57596 0.18144 0.0
C284 C 0.00372 0.54285 0.2114 0.0
C285 C 0.96329 0.64176 0.25581 0.0
C286 C 0.99712 0.663 0.27363 0.0
C287 C 0.96766 0.60441 0.24258 0.0
C288 C 0.00696 0.58858 0.24657 0.0
C289 C 0.0364 0.64718 0.27759 0.0
C290 C 0.04112 0.61025 0.26426 0.0
C291 C 0.00946 0.54601 0.23358 0.0
H292 H 0.94546 0.28767 0.26169 0.0
H293 H 0.93753 0.35261 0.23826 0.0
H294 H 0.10674 0.41552 0.28062 0.0
H295 H 0.09739 0.48059 0.25797 0.0
H296 H 0.06488 0.34264 0.18724 0.0
H297 H 0.07256 0.41695 0.20973 0.0
H298 H 0.91231 0.31964 0.16213 0.0
H299 H 0.91967 0.3935 0.18481 0.0
H300 H 0.08651 0.72578 0.19086 0.0
H301 H 0.07874 0.65258 0.21386 0.0
H302 H 0.94568 0.60748 0.15553 0.0
H303 H 0.93819 0.53416 0.1785 0.0
H304 H 0.93323 0.65381 0.25212 0.0
H305 H 0.93941 0.58709 0.2295 0.0
H306 H 0.06281 0.66254 0.29128 0.0
H307 H 0.07127 0.59824 0.26787 0.0
N308 N 0.01417 0.50603 0.24374 0.0
N309 N 0.99877 0.49784 0.20142 0.0
C310 C 0.67719 0.02887 0.52024 0.0
C311 C 0.65843 0.98656 0.50522 0.0
C312 C 0.64005 0.03443 0.53322 0.0
C313 C 0.58347 0.99731 0.53161 0.0
C314 C 0.60174 0.9503 0.50332 0.0
C315 C 0.5647 0.95567 0.51638 0.0
C316 C 0.54302 0.0028 0.54483 0.0
C317 C 0.65104 0.97605 0.59067 0.0
C318 C 0.67852 0.01961 0.60496 0.0
C319 C 0.60865 0.97267 0.57807 0.0
C320 C 0.59326 0.01296 0.5795 0.0
C321 C 0.66251 0.0594 0.60654 0.0
C322 C 0.62021 0.05599 0.59398 0.0
C323 C 0.54733 0.00953 0.56696 0.0
C324 C 0.32176 0.96504 0.59062 0.0
C325 C 0.33494 0.0008 0.60785 0.0
C326 C 0.36304 0.96832 0.57738 0.0
C327 C 0.41829 0.00773 0.58103 0.0
C328 C 0.39026 0.03955 0.61168 0.0
C329 C 0.43151 0.04285 0.59844 0.0
C330 C 0.4627 0.00999 0.5677 0.0
C331 C 0.36731 0.05832 0.52499 0.0
C332 C 0.34242 0.02357 0.50766 0.0
C333 C 0.40523 0.05272 0.53739 0.0
C334 C 0.41844 0.01175 0.53289 0.0
C335 C 0.35646 0.98339 0.5029 0.0
C336 C 0.39419 0.97761 0.51537 0.0
C337 C 0.46016 0.00679 0.54546 0.0
H338 H 0.72063 0.05772 0.52192 0.0
H339 H 0.65557 0.06808 0.54434 0.0
H340 H 0.58587 0.91835 0.49147 0.0
H341 H 0.5212 0.92715 0.51457 0.0
H342 H 0.66229 0.94458 0.58928 0.0
H343 H 0.5875 0.93828 0.56742 0.0
H344 H 0.68194 0.09259 0.6178 0.0
H345 H 0.60845 0.08706 0.59559 0.0
H346 H 0.27949 0.93456 0.58739 0.0
H347 H 0.3518 0.93947 0.56449 0.0
H348 H 0.40174 0.06675 0.62514 0.0
H349 H 0.47385 0.07291 0.6018 0.0
H350 H 0.35825 0.09053 0.52868 0.0
H351 H 0.42492 0.0811 0.55028 0.0
H352 H 0.33791 0.95615 0.4896 0.0
H353 H 0.40426 0.94624 0.51139 0.0
N354 N 0.4998 0.00215 0.53497 0.0
N355 N 0.50676 0.01239 0.5775 0.0
C356 C 0.34697 0.32489 0.85626 0.0
C357 C 0.31982 0.3413 0.84193 0.0
C358 C 0.38974 0.3637 0.86875 0.0
C359 C 0.40588 0.41954 0.86717 0.0
C360 C 0.33649 0.39724 0.84024 0.0
C361 C 0.37921 0.43595 0.85269 0.0
C362 C 0.45227 0.46179 0.87958 0.0
C363 C 0.32208 0.35312 0.92659 0.0
C364 C 0.34068 0.32929 0.94155 0.0
C365 C 0.35937 0.39555 0.91354 0.0
C366 C 0.41585 0.41435 0.91505 0.0
C367 C 0.39721 0.34891 0.94332 0.0
C368 C 0.4344 0.39106 0.93022 0.0
C369 C 0.45648 0.45984 0.90174 0.0
C370 C 0.63484 0.69054 0.92057 0.0
C371 C 0.65911 0.68078 0.93813 0.0
C372 C 0.5965 0.64687 0.90836 0.0
C373 C 0.58222 0.59261 0.91329 0.0
C374 C 0.64404 0.6265 0.94332 0.0
C375 C 0.60588 0.58283 0.93103 0.0
C376 C 0.54013 0.54585 0.90088 0.0
C377 C 0.68023 0.63784 0.85617 0.0
C378 C 0.66858 0.66035 0.83851 0.0
C379 C 0.63796 0.60108 0.86935 0.0
C380 C 0.58324 0.58658 0.86526 0.0
C381 C 0.6138 0.64516 0.83423 0.0
C382 C 0.57153 0.6085 0.84745 0.0
C383 C 0.53788 0.5458 0.87863 0.0
H384 H 0.33519 0.28204 0.85773 0.0
H385 H 0.41064 0.35019 0.87942 0.0
H386 H 0.31728 0.41122 0.82895 0.0
H387 H 0.39153 0.47889 0.85099 0.0
H388 H 0.2788 0.3397 0.92528 0.0
H389 H 0.3441 0.4141 0.9025 0.0
H390 H 0.41262 0.33138 0.95477 0.0
H391 H 0.4778 0.40529 0.93184 0.0
H392 H 0.64468 0.73187 0.91655 0.0
H393 H 0.57733 0.65552 0.89526 0.0
H394 H 0.6621 0.6179 0.95681 0.0
H395 H 0.59501 0.54136 0.93534 0.0
H396 H 0.72192 0.64775 0.85953 0.0
H397 H 0.64801 0.5832 0.8825 0.0
H398 H 0.6037 0.66188 0.8207 0.0
H399 H 0.52963 0.59741 0.84381 0.0
N400 N 0.49341 0.50443 0.86891 0.0
N401 N 0.5 0.50227 0.9115 0.0
C402 C 0.93328 0.19023 0.14384 0.0
C403 C 0.97592 0.20086 0.12966 0.0
C404 C 0.93747 0.23083 0.1578 0.0
C405 C 0.98487 0.28304 0.15832 0.0
H406 H 0.89618 0.1505 0.14393 0.0
H407 H 0.90356 0.22123 0.16837 0.0
S408 S 0.10847 0.33085 0.12476 0.0
N409 N 0.06728 0.26691 0.11723 0.0
N410 N 0.0752 0.34309 0.14348 0.0
C411 C 0.02798 0.2939 0.14439 0.0
C412 C 0.02347 0.25286 0.13004 0.0
C413 C 0.77487 0.0248 0.46632 0.0
C414 C 0.77232 0.97441 0.46226 0.0
C415 C 0.7384 0.0284 0.4804 0.0
C416 C 0.69775 0.98171 0.49094 0.0
H417 H 0.80562 0.06197 0.45866 0.0
H418 H 0.74156 0.06798 0.4828 0.0
S419 S 0.67413 0.84012 0.48612 0.0
N420 N 0.72573 0.87673 0.46993 0.0
N421 N 0.65799 0.8837 0.4968 0.0
C422 C 0.69499 0.93111 0.48718 0.0
C423 C 0.73213 0.92744 0.47281 0.0
C424 C 0.74926 0.72579 0.78847 0.0
C425 C 0.79678 0.77229 0.79596 0.0
C426 C 0.70827 0.68965 0.80234 0.0
C427 C 0.71323 0.69864 0.82423 0.0
H428 H 0.74365 0.71731 0.77172 0.0
H429 H 0.67244 0.65429 0.79587 0.0
S430 S 0.82809 0.81591 0.85183 0.0
N431 N 0.84554 0.82636 0.82668 0.0
N432 N 0.7685 0.75829 0.85275 0.0
C433 C 0.76055 0.74488 0.83196 0.0
C434 C 0.80232 0.78172 0.81784 0.0
C435 C 0.02281 0.74878 0.12127 0.0
C436 C 0.02774 0.7981 0.12873 0.0
C437 C 0.01984 0.70879 0.13522 0.0
C438 C 0.02153 0.71649 0.15718 0.0
H439 H 0.02093 0.74092 0.10449 0.0
H440 H 0.01612 0.67147 0.12875 0.0
S441 S 0.03181 0.83748 0.18476 0.0
N442 N 0.03303 0.852 0.15948 0.0
N443 N 0.02719 0.77669 0.18574 0.0
C444 C 0.02686 0.76581 0.16486 0.0
C445 C 0.03003 0.80663 0.15063 0.0
C446 C 0.27113 0.03783 0.45927 0.0
C447 C 0.22462 0.03711 0.46779 0.0
C448 C 0.30921 0.03383 0.47229 0.0
C449 C 0.30248 0.0296 0.49431 0.0
H450 H 0.2773 0.03991 0.44236 0.0
H451 H 0.34411 0.03385 0.46506 0.0
S452 S 0.18884 0.02823 0.52447 0.0
N453 N 0.17489 0.03372 0.49961 0.0
N454 N 0.24638 0.026 0.5241 0.0
C455 C 0.25684 0.03014 0.50307 0.0
C456 C 0.21789 0.03384 0.4898 0.0
C457 C 0.24655 0.2276 0.80176 0.0
C458 C 0.19593 0.22557 0.79907 0.0
C459 C 0.28581 0.26426 0.81599 0.0
C460 C 0.27613 0.30063 0.82795 0.0
H461 H 0.25586 0.20046 0.79282 0.0
H462 H 0.32452 0.26494 0.81732 0.0
S463 S 0.14979 0.31095 0.82714 0.0
N464 N 0.138 0.26268 0.80972 0.0
N465 N 0.21163 0.3313 0.83666 0.0
C466 C 0.22545 0.29862 0.82561 0.0
C467 C 0.18535 0.26109 0.81117 0.0
C468 C 0.75105 0.97823 0.64517 0.0
C469 C 0.80189 0.02656 0.64786 0.0
C470 C 0.71194 0.97603 0.63094 0.0
C471 C 0.72199 0.0222 0.61897 0.0
H472 H 0.74146 0.9417 0.65411 0.0
H473 H 0.67307 0.93819 0.62961 0.0
S474 S 0.84898 0.15829 0.6198 0.0
N475 N 0.86036 0.12151 0.63722 0.0
N476 N 0.78707 0.11718 0.61026 0.0
C477 C 0.77288 0.0706 0.62131 0.0
C478 C 0.8128 0.07279 0.63576 0.0
C479 C 0.73021 0.76754 0.98626 0.0
C480 C 0.7771 0.8128 0.97767 0.0
C481 C 0.69214 0.72523 0.97334 0.0
C482 C 0.69925 0.7269 0.95135 0.0
H483 H 0.72368 0.76403 0.00315 0.0
H484 H 0.6569 0.69083 0.98062 0.0
S485 S 0.81403 0.8374 0.921 0.0
N486 N 0.82763 0.85772 0.94578 0.0
N487 N 0.75619 0.77795 0.9215 0.0
C488 C 0.74532 0.77248 0.94251 0.0
C489 C 0.78426 0.81543 0.95568 0.0
C490 C 0.03493 0.78493 0.30949 0.0
C491 C 0.98382 0.77495 0.31714 0.0
C492 C 0.03872 0.7489 0.29526 0.0
C493 C 0.99155 0.70132 0.28821 0.0
H494 H 0.07234 0.82113 0.31445 0.0
H495 H 0.07895 0.75855 0.28967 0.0
S496 S 0.84817 0.65503 0.30453 0.0
N497 N 0.8852 0.71356 0.31715 0.0
N498 N 0.89217 0.64515 0.29066 0.0
C499 C 0.94013 0.69077 0.29582 0.0
C500 C 0.93631 0.72774 0.31022 0.0
C501 C 0.21143 0.94143 0.64457 0.0
C502 C 0.20905 0.9881 0.65085 0.0
C503 C 0.25186 0.94573 0.63047 0.0
C504 C 0.29123 0.99684 0.62212 0.0
H505 H 0.18252 0.90148 0.65093 0.0
H506 H 0.253 0.90895 0.6264 0.0
S507 S 0.2986 0.13033 0.63168 0.0
N508 N 0.24674 0.08626 0.64639 0.0
N509 N 0.32254 0.0943 0.61988 0.0
C510 C 0.28822 0.04352 0.62781 0.0
C511 C 0.24719 0.03915 0.64216 0.0
C512 C 0.27356 0.24977 0.99162 0.0
C513 C 0.22691 0.20249 0.98409 0.0
C514 C 0.3104 0.29022 0.97774 0.0
C515 C 0.30156 0.28522 0.95582 0.0
H516 H 0.28165 0.25551 0.00839 0.0
H517 H 0.34561 0.32616 0.98423 0.0
S518 S 0.18566 0.16933 0.9281 0.0
N519 N 0.1738 0.15298 0.95332 0.0
N520 N 0.24328 0.22894 0.92721 0.0
C521 C 0.25521 0.23808 0.94808 0.0
C522 C 0.2179 0.19668 0.96221 0.0
C523 C 0.01712 0.21676 0.29565 0.0
C524 C 0.03488 0.23124 0.31661 0.0
C525 C 0.01478 0.25431 0.28176 0.0
C526 C 0.03014 0.30789 0.28826 0.0
H527 H 0.00387 0.1757 0.29 0.0
H528 H 1.00092 0.24126 0.26577 0.0
S529 S 0.0804 0.36666 0.34144 0.0
N530 N 0.0699 0.30359 0.34297 0.0
N531 N 0.0632 0.3733 0.31721 0.0
C532 C 0.04825 0.32301 0.30916 0.0
C533 C 0.05108 0.28492 0.32324 0.0
loop_
_geom_bond_atom_site_label_1
_geom_bond_atom_site_label_2
_geom_bond_distance
_geom_bond_site_symmetry_2
_ccdc_geom_bond_type
Li0 N17 1.990 . S
Li0 O60 1.956 . S
Li0 O61 1.970 1_455 S
Li0 O62 1.961 1_545 S
Li1 N25 1.990 . S
Li1 O60 1.970 1_655 S
Li1 O61 1.956 . S
Li1 O63 1.961 1_545 S
Li2 N47 1.990 . S
Li2 O60 1.961 1_565 S
Li2 O62 1.956 . S
Li2 O63 1.970 1_455 S
Li3 N53 1.990 . S
Li3 O61 1.961 1_565 S
Li3 O62 1.970 1_655 S
Li3 O63 1.956 . S
C4 C6 1.348 . S
C4 C7 1.356 . S
C4 O60 1.325 . S
N5 C8 1.314 . S
N5 C9 1.279 . S
C6 C4 1.348 . S
C6 C8 1.353 . S
C6 H64 0.929 . S
C7 C4 1.356 . S
C7 C9 1.358 . S
C7 H65 0.930 . S
C8 N5 1.314 . S
C8 C6 1.353 . S
C8 H66 0.930 . S
C9 N5 1.279 . S
C9 C7 1.358 . S
C9 H67 0.930 . S
C10 C13 1.348 1_655 S
C10 C14 1.356 . S
C10 O61 1.325 . S
C11 N12 1.279 . S
C11 C14 1.358 . S
C11 H68 0.930 . S
N12 C11 1.279 . S
N12 C15 1.314 . S
C13 C10 1.348 1_455 S
C13 C15 1.353 1_455 S
C13 H69 0.929 . S
C14 C10 1.356 . S
C14 C11 1.358 . S
C14 H70 0.930 . S
C15 N12 1.314 . S
C15 C13 1.353 1_655 S
C15 H71 0.930 1_654 S
C16 N17 1.314 . S
C16 C21 1.353 1_554 S
C16 H22 0.930 1_554 S
N17 Li0 1.990 . S
N17 C16 1.314 . S
N17 C19 1.279 . S
C18 C19 1.358 . S
C18 C20 1.356 1_554 S
C18 H72 0.930 . S
C19 N17 1.279 . S
C19 C18 1.358 . S
C19 H23 0.930 . S
C20 C18 1.356 1_556 S
C20 C21 1.348 . S
C21 C16 1.353 1_556 S
C21 C20 1.348 . S
C21 H73 0.929 . S
H22 C16 0.930 1_556 S
H23 C19 0.930 . S
C24 N25 1.314 . S
C24 C26 1.353 . S
C24 H30 0.930 . S
N25 Li1 1.990 . S
N25 C24 1.314 . S
N25 C28 1.279 . S
C26 C24 1.353 . S
C26 C29 1.348 . S
C26 H74 0.929 . S
C27 C28 1.358 . S
C27 C29 1.356 . S
C27 H75 0.930 . S
C28 N25 1.279 . S
C28 C27 1.358 . S
C28 H31 0.930 . S
C29 C26 1.348 . S
C29 C27 1.356 . S
H30 C24 0.930 . S
H31 C28 0.930 . S
C32 C34 1.348 1_455 S
C32 C35 1.356 . S
C32 O62 1.325 . S
N33 C36 1.314 . S
N33 C37 1.279 . S
C34 C32 1.348 1_655 S
C34 C36 1.353 1_655 S
C34 H76 0.929 . S
C35 C32 1.356 . S
C35 C37 1.358 . S
C35 H77 0.930 . S
C36 N33 1.314 . S
C36 C34 1.353 1_455 S
C36 H78 0.930 1_454 S
C37 N33 1.279 . S
C37 C35 1.358 . S
C37 H79 0.930 . S
C38 C39 1.348 . S
C38 C40 1.356 . S
C38 O63 1.325 . S
C39 C38 1.348 . S
C39 C41 1.353 . S
C39 H80 0.929 . S
C40 C38 1.356 . S
C40 C42 1.358 . S
C40 H81 0.930 . S
C41 C39 1.353 . S
C41 N43 1.314 . S
C41 H82 0.930 . S
C42 C40 1.358 . S
C42 N43 1.279 . S
C42 H83 0.930 . S
N43 C41 1.314 . S
N43 C42 1.279 . S
C44 C46 1.353 . S
C44 N47 1.314 . S
C44 H50 0.930 . S
C45 N47 1.279 . S
C45 C48 1.358 . S
C45 H51 0.930 . S
C46 C44 1.353 . S
C46 C49 1.348 . S
C46 H84 0.929 . S
N47 Li2 1.990 . S
N47 C44 1.314 . S
N47 C45 1.279 . S
C48 C45 1.358 . S
C48 C49 1.356 . S
C48 H85 0.930 . S
C49 C46 1.348 . S
C49 C48 1.356 . S
H50 C44 0.930 . S
H51 C45 0.930 . S
C52 N53 1.314 . S
C52 C54 1.353 1_554 S
C52 H58 0.930 1_554 S
N53 Li3 1.990 . S
N53 C52 1.314 . S
N53 C56 1.279 . S
C54 C52 1.353 1_556 S
C54 C57 1.348 . S
C54 H86 0.929 . S
C55 C56 1.358 . S
C55 C57 1.356 1_554 S
C55 H87 0.930 . S
C56 N53 1.279 . S
C56 C55 1.358 . S
C56 H59 0.930 . S
C57 C54 1.348 . S
C57 C55 1.356 1_556 S
H58 C52 0.930 1_556 S
H59 C56 0.930 . S
O60 Li0 1.956 . S
O60 Li1 1.970 1_455 S
O60 Li2 1.961 1_545 S
O60 C4 1.325 . S
O61 Li0 1.970 1_655 S
O61 Li1 1.956 . S
O61 Li3 1.961 1_545 S
O61 C10 1.325 . S
O62 Li0 1.961 1_565 S
O62 Li2 1.956 . S
O62 Li3 1.970 1_455 S
O62 C32 1.325 . S
O63 Li1 1.961 1_565 S
O63 Li2 1.970 1_655 S
O63 Li3 1.956 . S
O63 C38 1.325 . S
H64 C6 0.929 . S
H65 C7 0.930 . S
H66 C8 0.930 . S
H67 C9 0.930 . S
H68 C11 0.930 . S
H69 C13 0.929 . S
H70 C14 0.930 . S
H71 C15 0.930 1_456 S
H72 C18 0.930 . S
H73 C21 0.929 . S
H74 C26 0.929 . S
H75 C27 0.930 . S
H76 C34 0.929 . S
H77 C35 0.930 . S
H78 C36 0.930 1_656 S
H79 C37 0.930 . S
H80 C39 0.929 . S
H81 C40 0.930 . S
H82 C41 0.930 . S
H83 C42 0.930 . S
H84 C46 0.929 . S
H85 C48 0.930 . S
H86 C54 0.929 . S
H87 C55 0.930 . S
Li88 N105 1.990 . S
Li88 O148 1.956 . S
Li88 O149 1.970 1_665 S
Li88 O150 1.961 . S
Li89 N113 1.990 . S
Li89 O148 1.970 1_445 S
Li89 O149 1.956 . S
Li89 O151 1.961 . S
Li90 N135 1.990 . S
Li90 O148 1.961 . S
Li90 O150 1.956 . S
Li90 O151 1.970 1_665 S
Li91 N141 1.990 . S
Li91 O149 1.961 . S
Li91 O150 1.970 1_445 S
Li91 O151 1.956 . S
C92 C94 1.348 1_655 S
C92 C95 1.356 . S
C92 O148 1.325 . S
N93 C96 1.314 . S
N93 C97 1.279 . S
C94 C92 1.348 1_455 S
C94 C96 1.353 1_455 S
C94 H152 0.929 . S
C95 C92 1.356 . S
C95 C97 1.358 . S
C95 H153 0.930 . S
C96 N93 1.314 . S
C96 C94 1.353 1_655 S
C96 H154 0.930 1_655 S
C97 N93 1.279 . S
C97 C95 1.358 . S
C97 H155 0.930 . S
C98 C101 1.348 1_545 S
C98 C102 1.356 . S
C98 O149 1.325 . S
C99 N100 1.279 . S
C99 C102 1.358 . S
C99 H156 0.930 . S
N100 C99 1.279 . S
N100 C103 1.314 . S
C101 C98 1.348 1_565 S
C101 C103 1.353 1_565 S
C101 H157 0.929 . S
C102 C98 1.356 . S
C102 C99 1.358 . S
C102 H158 0.930 . S
C103 N100 1.314 . S
C103 C101 1.353 1_545 S
C103 H159 0.930 1_545 S
C104 N105 1.314 . S
C104 C109 1.353 . S
C104 H110 0.930 . S
N105 Li88 1.990 . S
N105 C104 1.314 . S
N105 C107 1.279 . S
C106 C107 1.358 . S
C106 C108 1.356 . S
C106 H160 0.930 . S
C107 N105 1.279 . S
C107 C106 1.358 . S
C107 H111 0.930 . S
C108 C106 1.356 . S
C108 C109 1.348 . S
C109 C104 1.353 . S
C109 C108 1.348 . S
C109 H161 0.929 . S
H110 C104 0.930 . S
H111 C107 0.930 . S
C112 N113 1.314 . S
C112 C114 1.353 . S
C112 H118 0.930 . S
N113 Li89 1.990 . S
N113 C112 1.314 . S
N113 C116 1.279 . S
C114 C112 1.353 . S
C114 C117 1.348 . S
C114 H162 0.929 . S
C115 C116 1.358 . S
C115 C117 1.356 . S
C115 H163 0.930 . S
C116 N113 1.279 . S
C116 C115 1.358 . S
C116 H119 0.930 . S
C117 C114 1.348 . S
C117 C115 1.356 . S
H118 C112 0.930 . S
H119 C116 0.930 . S
C120 C122 1.348 1_565 S
C120 C123 1.356 . S
C120 O150 1.325 . S
N121 C124 1.314 . S
N121 C125 1.279 . S
C122 C120 1.348 1_545 S
C122 C124 1.353 1_545 S
C122 H164 0.929 . S
C123 C120 1.356 . S
C123 C125 1.358 . S
C123 H165 0.930 . S
C124 N121 1.314 . S
C124 C122 1.353 1_565 S
C124 H166 0.930 1_565 S
C125 N121 1.279 . S
C125 C123 1.358 . S
C125 H167 0.930 . S
C126 C127 1.348 1_455 S
C126 C128 1.356 . S
C126 O151 1.325 . S
C127 C126 1.348 1_655 S
C127 C129 1.353 1_655 S
C127 H168 0.929 . S
C128 C126 1.356 . S
C128 C130 1.358 . S
C128 H169 0.930 . S
C129 C127 1.353 1_455 S
C129 N131 1.314 . S
C129 H170 0.930 1_455 S
C130 C128 1.358 . S
C130 N131 1.279 . S
C130 H171 0.930 . S
N131 C129 1.314 . S
N131 C130 1.279 . S
C132 C134 1.353 . S
C132 N135 1.314 . S
C132 H138 0.930 . S
C133 N135 1.279 . S
C133 C136 1.358 . S
C133 H139 0.930 . S
C134 C132 1.353 . S
C134 C137 1.348 . S
C134 H172 0.929 . S
N135 Li90 1.990 . S
N135 C132 1.314 . S
N135 C133 1.279 . S
C136 C133 1.358 . S
C136 C137 1.356 . S
C136 H173 0.930 . S
C137 C134 1.348 . S
C137 C136 1.356 . S
H138 C132 0.930 . S
H139 C133 0.930 . S
C140 N141 1.314 . S
C140 C142 1.353 . S
C140 H146 0.930 . S
N141 Li91 1.990 . S
N141 C140 1.314 . S
N141 C144 1.279 . S
C142 C140 1.353 . S
C142 C145 1.348 . S
C142 H174 0.929 . S
C143 C144 1.358 . S
C143 C145 1.356 . S
C143 H175 0.930 . S
C144 N141 1.279 . S
C144 C143 1.358 . S
C144 H147 0.930 . S
C145 C142 1.348 . S
C145 C143 1.356 . S
H146 C140 0.930 . S
H147 C144 0.930 . S
O148 Li88 1.956 . S
O148 Li89 1.970 1_665 S
O148 Li90 1.961 . S
O148 C92 1.325 . S
O149 Li88 1.970 1_445 S
O149 Li89 1.956 . S
O149 Li91 1.961 . S
O149 C98 1.325 . S
O150 Li88 1.961 . S
O150 Li90 1.956 . S
O150 Li91 1.970 1_665 S
O150 C120 1.325 . S
O151 Li89 1.961 . S
O151 Li90 1.970 1_445 S
O151 Li91 1.956 . S
O151 C126 1.325 . S
H152 C94 0.929 . S
H153 C95 0.930 . S
H154 C96 0.930 1_455 S
H155 C97 0.930 . S
H156 C99 0.930 . S
H157 C101 0.929 . S
H158 C102 0.930 . S
H159 C103 0.930 1_565 S
H160 C106 0.930 . S
H161 C109 0.929 . S
H162 C114 0.929 . S
H163 C115 0.930 . S
H164 C122 0.929 . S
H165 C123 0.930 . S
H166 C124 0.930 1_545 S
H167 C125 0.930 . S
H168 C127 0.929 . S
H169 C128 0.930 . S
H170 C129 0.930 1_655 S
H171 C130 0.930 . S
H172 C134 0.929 . S
H173 C136 0.930 . S
H174 C142 0.929 . S
H175 C143 0.930 . S
Li176 N193 1.990 . S
Li176 O236 1.956 . S
Li176 O237 1.970 1_565 S
Li176 O238 1.961 1_455 S
Li177 N201 1.990 . S
Li177 O236 1.970 1_545 S
Li177 O237 1.956 . S
Li177 O239 1.961 1_455 S
Li178 N223 1.990 . S
Li178 O236 1.961 1_655 S
Li178 O238 1.956 . S
Li178 O239 1.970 1_565 S
Li179 N229 1.990 . S
Li179 O237 1.961 1_655 S
Li179 O238 1.970 1_545 S
Li179 O239 1.956 . S
C180 C182 1.348 1_565 S
C180 C183 1.356 . S
C180 O236 1.325 . S
N181 C184 1.314 . S
N181 C185 1.279 . S
C182 C180 1.348 1_545 S
C182 C184 1.353 1_545 S
C182 H240 0.929 . S
C183 C180 1.356 . S
C183 C185 1.358 . S
C183 H241 0.930 . S
C184 N181 1.314 . S
C184 C182 1.353 1_565 S
C184 H242 0.930 1_565 S
C185 N181 1.279 . S
C185 C183 1.358 . S
C185 H243 0.930 . S
C186 C189 1.348 . S
C186 C190 1.356 . S
C186 O237 1.325 . S
C187 N188 1.279 . S
C187 C190 1.358 . S
C187 H244 0.930 . S
N188 C187 1.279 . S
N188 C191 1.314 . S
C189 C186 1.348 . S
C189 C191 1.353 . S
C189 H245 0.929 . S
C190 C186 1.356 . S
C190 C187 1.358 . S
C190 H246 0.930 . S
C191 N188 1.314 . S
C191 C189 1.353 . S
C191 H247 0.930 . S
C192 N193 1.314 . S
C192 C197 1.353 . S
C192 H198 0.930 . S
N193 Li176 1.990 . S
N193 C192 1.314 . S
N193 C195 1.279 . S
C194 C195 1.358 . S
C194 C196 1.356 . S
C194 H248 0.930 . S
C195 N193 1.279 . S
C195 C194 1.358 . S
C195 H199 0.930 . S
C196 C194 1.356 . S
C196 C197 1.348 . S
C197 C192 1.353 . S
C197 C196 1.348 . S
C197 H249 0.929 . S
H198 C192 0.930 . S
H199 C195 0.930 . S
C200 N201 1.314 . S
C200 C202 1.353 . S
C200 H206 0.930 . S
N201 Li177 1.990 . S
N201 C200 1.314 . S
N201 C204 1.279 . S
C202 C200 1.353 . S
C202 C205 1.348 . S
C202 H250 0.929 . S
C203 C204 1.358 . S
C203 C205 1.356 . S
C203 H251 0.930 . S
C204 N201 1.279 . S
C204 C203 1.358 . S
C204 H207 0.930 . S
C205 C202 1.348 . S
C205 C203 1.356 . S
H206 C200 0.930 . S
H207 C204 0.930 . S
C208 C210 1.348 . S
C208 C211 1.356 . S
C208 O238 1.325 . S
N209 C212 1.314 . S
N209 C213 1.279 . S
C210 C208 1.348 . S
C210 C212 1.353 . S
C210 H252 0.929 . S
C211 C208 1.356 . S
C211 C213 1.358 . S
C211 H253 0.930 . S
C212 N209 1.314 . S
C212 C210 1.353 . S
C212 H254 0.930 . S
C213 N209 1.279 . S
C213 C211 1.358 . S
C213 H255 0.930 . S
C214 C215 1.348 1_545 S
C214 C216 1.356 . S
C214 O239 1.325 . S
C215 C214 1.348 1_565 S
C215 C217 1.353 1_565 S
C215 H256 0.929 . S
C216 C214 1.356 . S
C216 C218 1.358 . S
C216 H257 0.930 . S
C217 C215 1.353 1_545 S
C217 N219 1.314 . S
C217 H258 0.930 1_545 S
C218 C216 1.358 . S
C218 N219 1.279 . S
C218 H259 0.930 . S
N219 C217 1.314 . S
N219 C218 1.279 . S
C220 C222 1.353 . S
C220 N223 1.314 . S
C220 H226 0.930 . S
C221 N223 1.279 . S
C221 C224 1.358 . S
C221 H227 0.930 . S
C222 C220 1.353 . S
C222 C225 1.348 . S
C222 H260 0.929 . S
N223 Li178 1.990 . S
N223 C220 1.314 . S
N223 C221 1.279 . S
C224 C221 1.358 . S
C224 C225 1.356 . S
C224 H261 0.930 . S
C225 C222 1.348 . S
C225 C224 1.356 . S
H226 C220 0.930 . S
H227 C221 0.930 . S
C228 N229 1.314 . S
C228 C230 1.353 . S
C228 H234 0.930 . S
N229 Li179 1.990 . S
N229 C228 1.314 . S
N229 C232 1.279 . S
C230 C228 1.353 . S
C230 C233 1.348 . S
C230 H262 0.929 . S
C231 C232 1.358 . S
C231 C233 1.356 . S
C231 H263 0.930 . S
C232 N229 1.279 . S
C232 C231 1.358 . S
C232 H235 0.930 . S
C233 C230 1.348 . S
C233 C231 1.356 . S
H234 C228 0.930 . S
H235 C232 0.930 . S
O236 Li176 1.956 . S
O236 Li177 1.970 1_565 S
O236 Li178 1.961 1_455 S
O236 C180 1.325 . S
O237 Li176 1.970 1_545 S
O237 Li177 1.956 . S
O237 Li179 1.961 1_455 S
O237 C186 1.325 . S
O238 Li176 1.961 1_655 S
O238 Li178 1.956 . S
O238 Li179 1.970 1_565 S
O238 C208 1.325 . S
O239 Li177 1.961 1_655 S
O239 Li178 1.970 1_545 S
O239 Li179 1.956 . S
O239 C214 1.325 . S
H240 C182 0.929 . S
H241 C183 0.930 . S
H242 C184 0.930 1_545 S
H243 C185 0.930 . S
H244 C187 0.930 . S
H245 C189 0.929 . S
H246 C190 0.930 . S
H247 C191 0.930 . S
H248 C194 0.930 . S
H249 C197 0.929 . S
H250 C202 0.929 . S
H251 C203 0.930 . S
H252 C210 0.929 . S
H253 C211 0.930 . S
H254 C212 0.930 . S
H255 C213 0.930 . S
H256 C215 0.929 . S
H257 C216 0.930 . S
H258 C217 0.930 1_565 S
H259 C218 0.930 . S
H260 C222 0.929 . S
H261 C224 0.930 . S
H262 C230 0.929 . S
H263 C231 0.930 . S
C264 C265 1.384 1_655 S
C264 C266 1.384 . S
C264 H292 0.931 . S
C265 C264 1.384 1_455 S
C265 C268 1.382 . S
C266 C264 1.384 . S
C266 C267 1.381 1_655 S
C266 H293 0.930 . S
C267 C266 1.381 1_455 S
C267 C269 1.381 . S
C267 C270 1.487 . S
C268 C265 1.382 . S
C268 C269 1.387 . S
C268 H294 0.930 . S
C269 C267 1.381 . S
C269 C268 1.387 . S
C269 H295 0.931 . S
C270 C267 1.487 . S
C270 C277 1.399 1_455 S
C270 N308 1.343 . S
C271 C272 1.384 1_455 S
C271 C273 1.384 . S
C271 H296 0.931 . S
C272 C271 1.384 1_655 S
C272 C275 1.382 . S
C273 C271 1.384 . S
C273 C274 1.381 1_455 S
C273 H297 0.930 . S
C274 C273 1.381 1_655 S
C274 C276 1.381 . S
C274 C277 1.487 . S
C275 C272 1.382 . S
C275 C276 1.387 . S
C275 H298 0.930 . S
C276 C274 1.381 . S
C276 C275 1.387 . S
C276 H299 0.931 . S
C277 C270 1.399 1_655 S
C277 C274 1.487 . S
C277 N309 1.343 . S
C278 C279 1.384 1_455 S
C278 C280 1.384 . S
C278 H300 0.931 . S
C279 C278 1.384 1_655 S
C279 C282 1.382 . S
C280 C278 1.384 . S
C280 C281 1.381 1_455 S
C280 H301 0.930 . S
C281 C280 1.381 1_655 S
C281 C283 1.381 . S
C281 C284 1.487 . S
C282 C279 1.382 . S
C282 C283 1.387 . S
C282 H302 0.930 . S
C283 C281 1.381 . S
C283 C282 1.387 . S
C283 H303 0.931 . S
C284 C281 1.487 . S
C284 C291 1.399 1_655 S
C284 N309 1.343 . S
C285 C286 1.384 1_655 S
C285 C287 1.384 . S
C285 H304 0.931 . S
C286 C285 1.384 1_455 S
C286 C289 1.382 . S
C287 C285 1.384 . S
C287 C288 1.381 1_655 S
C287 H305 0.930 . S
C288 C287 1.381 1_455 S
C288 C290 1.381 . S
C288 C291 1.487 . S
C289 C286 1.382 . S
C289 C290 1.387 . S
C289 H306 0.930 . S
C290 C288 1.381 . S
C290 C289 1.387 . S
C290 H307 0.931 . S
C291 C284 1.399 1_455 S
C291 C288 1.487 . S
C291 N308 1.343 . S
H292 C264 0.931 . S
H293 C266 0.930 . S
H294 C268 0.930 . S
H295 C269 0.931 . S
H296 C271 0.931 . S
H297 C273 0.930 . S
H298 C275 0.930 . S
H299 C276 0.931 . S
H300 C278 0.931 . S
H301 C280 0.930 . S
H302 C282 0.930 . S
H303 C283 0.931 . S
H304 C285 0.931 . S
H305 C287 0.930 . S
H306 C289 0.930 . S
H307 C290 0.931 . S
N308 C270 1.343 . S
N308 C291 1.343 . S
N309 C277 1.343 . S
N309 C284 1.343 . S
C310 C311 1.384 1_545 S
C310 C312 1.384 . S
C310 H338 0.931 . S
C311 C310 1.384 1_565 S
C311 C314 1.382 . S
C312 C310 1.384 . S
C312 C313 1.381 1_545 S
C312 H339 0.930 . S
C313 C312 1.381 1_565 S
C313 C315 1.381 . S
C313 C316 1.487 . S
C314 C311 1.382 . S
C314 C315 1.387 . S
C314 H340 0.930 . S
C315 C313 1.381 . S
C315 C314 1.387 . S
C315 H341 0.931 . S
C316 C313 1.487 . S
C316 C323 1.399 1_565 S
C316 N354 1.343 . S
C317 C318 1.384 1_565 S
C317 C319 1.384 . S
C317 H342 0.931 . S
C318 C317 1.384 1_545 S
C318 C321 1.382 . S
C319 C317 1.384 . S
C319 C320 1.381 1_565 S
C319 H343 0.930 . S
C320 C319 1.381 1_545 S
C320 C322 1.381 . S
C320 C323 1.487 . S
C321 C318 1.382 . S
C321 C322 1.387 . S
C321 H344 0.930 . S
C322 C320 1.381 . S
C322 C321 1.387 . S
C322 H345 0.931 . S
C323 C316 1.399 1_545 S
C323 C320 1.487 . S
C323 N355 1.343 . S
C324 C325 1.384 1_565 S
C324 C326 1.384 . S
C324 H346 0.931 . S
C325 C324 1.384 1_545 S
C325 C328 1.382 . S
C326 C324 1.384 . S
C326 C327 1.381 1_565 S
C326 H347 0.930 . S
C327 C326 1.381 1_545 S
C327 C329 1.381 . S
C327 C330 1.487 . S
C328 C325 1.382 . S
C328 C329 1.387 . S
C328 H348 0.930 . S
C329 C327 1.381 . S
C329 C328 1.387 . S
C329 H349 0.931 . S
C330 C327 1.487 . S
C330 C337 1.399 1_545 S
C330 N355 1.343 . S
C331 C332 1.384 1_545 S
C331 C333 1.384 . S
C331 H350 0.931 . S
C332 C331 1.384 1_565 S
C332 C335 1.382 . S
C333 C331 1.384 . S
C333 C334 1.381 1_545 S
C333 H351 0.930 . S
C334 C333 1.381 1_565 S
C334 C336 1.381 . S
C334 C337 1.487 . S
C335 C332 1.382 . S
C335 C336 1.387 . S
C335 H352 0.930 . S
C336 C334 1.381 . S
C336 C335 1.387 . S
C336 H353 0.931 . S
C337 C330 1.399 1_565 S
C337 C334 1.487 . S
C337 N354 1.343 . S
H338 C310 0.931 . S
H339 C312 0.930 . S
H340 C314 0.930 . S
H341 C315 0.931 . S
H342 C317 0.931 . S
H343 C319 0.930 . S
H344 C321 0.930 . S
H345 C322 0.931 . S
H346 C324 0.931 . S
H347 C326 0.930 . S
H348 C328 0.930 . S
H349 C329 0.931 . S
H350 C331 0.931 . S
H351 C333 0.930 . S
H352 C335 0.930 . S
H353 C336 0.931 . S
N354 C316 1.343 . S
N354 C337 1.343 . S
N355 C323 1.343 . S
N355 C330 1.343 . S
C356 C357 1.384 . S
C356 C358 1.384 . S
C356 H384 0.931 . S
C357 C356 1.384 . S
C357 C360 1.382 . S
C358 C356 1.384 . S
C358 C359 1.381 . S
C358 H385 0.930 . S
C359 C358 1.381 . S
C359 C361 1.381 . S
C359 C362 1.487 . S
C360 C357 1.382 . S
C360 C361 1.387 . S
C360 H386 0.930 . S
C361 C359 1.381 . S
C361 C360 1.387 . S
C361 H387 0.931 . S
C362 C359 1.487 . S
C362 C369 1.399 . S
C362 N400 1.343 . S
C363 C364 1.384 . S
C363 C365 1.384 . S
C363 H388 0.931 . S
C364 C363 1.384 . S
C364 C367 1.382 . S
C365 C363 1.384 . S
C365 C366 1.381 . S
C365 H389 0.930 . S
C366 C365 1.381 . S
C366 C368 1.381 . S
C366 C369 1.487 . S
C367 C364 1.382 . S
C367 C368 1.387 . S
C367 H390 0.930 . S
C368 C366 1.381 . S
C368 C367 1.387 . S
C368 H391 0.931 . S
C369 C362 1.399 . S
C369 C366 1.487 . S
C369 N401 1.343 . S
C370 C371 1.384 . S
C370 C372 1.384 . S
C370 H392 0.931 . S
C371 C370 1.384 . S
C371 C374 1.382 . S
C372 C370 1.384 . S
C372 C373 1.381 . S
C372 H393 0.930 . S
C373 C372 1.381 . S
C373 C375 1.381 . S
C373 C376 1.487 . S
C374 C371 1.382 . S
C374 C375 1.387 . S
C374 H394 0.930 . S
C375 C373 1.381 . S
C375 C374 1.387 . S
C375 H395 0.931 . S
C376 C373 1.487 . S
C376 C383 1.399 . S
C376 N401 1.343 . S
C377 C378 1.384 . S
C377 C379 1.384 . S
C377 H396 0.931 . S
C378 C377 1.384 . S
C378 C381 1.382 . S
C379 C377 1.384 . S
C379 C380 1.381 . S
C379 H397 0.930 . S
C380 C379 1.381 . S
C380 C382 1.381 . S
C380 C383 1.487 . S
C381 C378 1.382 . S
C381 C382 1.387 . S
C381 H398 0.930 . S
C382 C380 1.381 . S
C382 C381 1.387 . S
C382 H399 0.931 . S
C383 C376 1.399 . S
C383 C380 1.487 . S
C383 N400 1.343 . S
H384 C356 0.931 . S
H385 C358 0.930 . S
H386 C360 0.930 . S
H387 C361 0.931 . S
H388 C363 0.931 . S
H389 C365 0.930 . S
H390 C367 0.930 . S
H391 C368 0.931 . S
H392 C370 0.931 . S
H393 C372 0.930 . S
H394 C374 0.930 . S
H395 C375 0.931 . S
H396 C377 0.931 . S
H397 C379 0.930 . S
H398 C381 0.930 . S
H399 C382 0.931 . S
N400 C362 1.343 . S
N400 C383 1.343 . S
N401 C369 1.343 . S
N401 C376 1.343 . S
C402 C403 1.369 . S
C402 C404 1.419 . S
C402 H406 0.930 . S
C403 C402 1.369 . S
C403 C412 1.429 1_655 S
C404 C402 1.419 . S
C404 C405 1.363 . S
C404 H407 0.929 . S
C405 C404 1.363 . S
C405 C411 1.428 1_655 S
H406 C402 0.930 . S
H407 C404 0.929 . S
S408 N409 1.613 . S
S408 N410 1.610 . S
N409 S408 1.613 . S
N409 C412 1.350 . S
N410 S408 1.610 . S
N410 C411 1.351 . S
C411 C405 1.428 1_455 S
C411 N410 1.351 . S
C411 C412 1.434 . S
C412 C403 1.429 1_455 S
C412 N409 1.350 . S
C412 C411 1.434 . S
C413 C414 1.363 1_545 S
C413 C415 1.422 . S
C413 H417 0.932 . S
C414 C413 1.363 1_565 S
C414 C423 1.429 . S
C415 C413 1.422 . S
C415 C416 1.363 1_545 S
C415 H418 0.929 . S
C416 C415 1.363 1_565 S
C416 C422 1.428 . S
H417 C413 0.932 . S
H418 C415 0.929 . S
S419 N420 1.613 . S
S419 N421 1.610 . S
N420 S419 1.613 . S
N420 C423 1.350 . S
N421 S419 1.610 . S
N421 C422 1.351 . S
C422 C416 1.428 . S
C422 N421 1.351 . S
C422 C423 1.434 . S
C423 C414 1.429 . S
C423 N420 1.350 . S
C423 C422 1.434 . S
C424 C425 1.369 . S
C424 C426 1.419 . S
C424 H428 0.930 . S
C425 C424 1.369 . S
C425 C434 1.429 . S
C426 C424 1.419 . S
C426 C427 1.363 . S
C426 H429 0.929 . S
C427 C426 1.363 . S
C427 C433 1.428 . S
H428 C424 0.930 . S
H429 C426 0.929 . S
S430 N431 1.613 . S
S430 N432 1.610 . S
N431 S430 1.613 . S
N431 C434 1.350 . S
N432 S430 1.610 . S
N432 C433 1.351 . S
C433 C427 1.428 . S
C433 N432 1.351 . S
C433 C434 1.434 . S
C434 C425 1.429 . S
C434 N431 1.350 . S
C434 C433 1.434 . S
C435 C436 1.369 . S
C435 C437 1.419 . S
C435 H439 0.930 . S
C436 C435 1.369 . S
C436 C445 1.429 . S
C437 C435 1.419 . S
C437 C438 1.363 . S
C437 H440 0.929 . S
C438 C437 1.363 . S
C438 C444 1.428 . S
H439 C435 0.930 . S
H440 C437 0.929 . S
S441 N442 1.613 1_655 S
S441 N443 1.610 . S
N442 S441 1.613 1_455 S
N442 C445 1.350 . S
N443 S441 1.610 . S
N443 C444 1.351 1_655 S
C444 C438 1.428 . S
C444 N443 1.351 1_455 S
C444 C445 1.434 . S
C445 C436 1.429 . S
C445 N442 1.350 . S
C445 C444 1.434 . S
C446 C447 1.369 . S
C446 C448 1.419 . S
C446 H450 0.930 . S
C447 C446 1.369 . S
C447 C456 1.429 . S
C448 C446 1.419 . S
C448 C449 1.363 . S
C448 H451 0.928 1_545 S
C449 C448 1.363 . S
C449 C455 1.428 . S
H450 C446 0.930 . S
H451 C448 0.928 1_565 S
S452 N453 1.613 . S
S452 N454 1.610 . S
N453 S452 1.613 . S
N453 C456 1.350 . S
N454 S452 1.610 . S
N454 C455 1.351 . S
C455 C449 1.428 . S
C455 N454 1.351 . S
C455 C456 1.434 . S
C456 C447 1.429 . S
C456 N453 1.350 . S
C456 C455 1.434 . S
C457 C458 1.369 . S
C457 C459 1.419 . S
C457 H461 0.930 . S
C458 C457 1.369 . S
C458 C467 1.429 . S
C459 C457 1.419 . S
C459 C460 1.363 . S
C459 H462 0.929 . S
C460 C459 1.363 . S
C460 C466 1.428 . S
H461 C457 0.930 . S
H462 C459 0.929 . S
S463 N464 1.613 . S
S463 N465 1.610 . S
N464 S463 1.613 . S
N464 C467 1.350 . S
N465 S463 1.610 . S
N465 C466 1.351 . S
C466 C460 1.428 . S
C466 N465 1.351 . S
C466 C467 1.434 . S
C467 C458 1.429 . S
C467 N464 1.350 . S
C467 C466 1.434 . S
C468 C469 1.369 1_565 S
C468 C470 1.419 . S
C468 H472 0.930 . S
C469 C468 1.369 1_545 S
C469 C478 1.429 . S
C470 C468 1.419 . S
C470 C471 1.363 1_565 S
C470 H473 0.929 . S
C471 C470 1.363 1_545 S
C471 C477 1.428 . S
H472 C468 0.930 . S
H473 C470 0.929 . S
S474 N475 1.613 . S
S474 N476 1.610 . S
N475 S474 1.613 . S
N475 C478 1.350 . S
N476 S474 1.610 . S
N476 C477 1.351 . S
C477 C471 1.428 . S
C477 N476 1.351 . S
C477 C478 1.434 . S
C478 C469 1.429 . S
C478 N475 1.350 . S
C478 C477 1.434 . S
C479 C480 1.369 . S
C479 C481 1.419 . S
C479 H483 0.930 . S
C480 C479 1.369 . S
C480 C489 1.429 . S
C481 C479 1.419 . S
C481 C482 1.363 . S
C481 H484 0.929 . S
C482 C481 1.363 . S
C482 C488 1.428 . S
H483 C479 0.930 . S
H484 C481 0.929 . S
S485 N486 1.613 . S
S485 N487 1.610 . S
N486 S485 1.613 . S
N486 C489 1.350 . S
N487 S485 1.610 . S
N487 C488 1.351 . S
C488 C482 1.428 . S
C488 N487 1.351 . S
C488 C489 1.434 . S
C489 C480 1.429 . S
C489 N486 1.350 . S
C489 C488 1.434 . S
C490 C491 1.369 . S
C490 C492 1.419 1_655 S
C490 H494 0.930 1_655 S
C491 C490 1.369 . S
C491 C500 1.429 . S
C492 C490 1.419 1_455 S
C492 C493 1.363 1_455 S
C492 H495 0.929 . S
C493 C492 1.363 1_655 S
C493 C499 1.428 . S
H494 C490 0.930 1_455 S
H495 C492 0.929 . S
S496 N497 1.613 . S
S496 N498 1.610 . S
N497 S496 1.613 . S
N497 C500 1.350 . S
N498 S496 1.610 . S
N498 C499 1.351 . S
C499 C493 1.428 . S
C499 N498 1.351 . S
C499 C500 1.434 . S
C500 C491 1.429 . S
C500 N497 1.350 . S
C500 C499 1.434 . S
C501 C502 1.369 . S
C501 C503 1.419 . S
C501 H505 0.930 . S
C502 C501 1.369 . S
C502 C511 1.422 1_565 S
C503 C501 1.419 . S
C503 C504 1.363 . S
C503 H506 0.929 . S
C504 C503 1.363 . S
C504 C510 1.428 1_565 S
H505 C501 0.930 . S
H506 C503 0.929 . S
S507 N508 1.613 . S
S507 N509 1.610 . S
N508 S507 1.613 . S
N508 C511 1.358 . S
N509 S507 1.610 . S
N509 C510 1.351 . S
C510 C504 1.428 1_545 S
C510 N509 1.351 . S
C510 C511 1.433 . S
C511 C502 1.422 1_545 S
C511 N508 1.358 . S
C511 C510 1.433 . S
C512 C513 1.369 . S
C512 C514 1.419 . S
C512 H516 0.881 1_556 S
C513 C512 1.369 . S
C513 C522 1.429 . S
C514 C512 1.419 . S
C514 C515 1.363 . S
C514 H517 0.929 . S
C515 C514 1.363 . S
C515 C521 1.428 . S
H516 C512 0.881 1_554 S
H517 C514 0.929 . S
S518 N519 1.613 . S
S518 N520 1.610 . S
N519 S518 1.613 . S
N519 C522 1.350 . S
N520 S518 1.610 . S
N520 C521 1.351 . S
C521 C515 1.428 . S
C521 N520 1.351 . S
C521 C522 1.434 . S
C522 C513 1.429 . S
C522 N519 1.350 . S
C522 C521 1.434 . S
C523 C524 1.369 . S
C523 C525 1.419 1_455 S
C523 H527 0.930 1_455 S
C524 C523 1.369 . S
C524 C533 1.429 . S
C525 C523 1.419 1_655 S
C525 C526 1.363 1_655 S
C525 H528 0.929 . S
C526 C525 1.363 1_455 S
C526 C532 1.428 . S
H527 C523 0.930 1_655 S
H528 C525 0.929 . S
S529 N530 1.613 . S
S529 N531 1.610 . S
N530 S529 1.613 . S
N530 C533 1.350 . S
N531 S529 1.610 . S
N531 C532 1.351 . S
C532 C526 1.428 . S
C532 N531 1.351 . S
C532 C533 1.434 . S
C533 C524 1.429 . S
C533 N530 1.350 . S
C533 C532 1.434 . S
C405 C272 1.531 . S
C403 C29 1.499 . S
C414 C137 1.509 . S
C416 C311 1.528 . S
C425 C225 1.504 . S
C427 C378 1.543 . S
C436 C49 1.505 . S
C438 C279 1.543 1_455 S
C449 C332 1.540 1_545 S
C447 C117 1.505 . S
C458 C205 1.509 . S
C460 C357 1.524 . S
C471 C318 1.526 . S
C469 C233 1.511 . S
C480 C57 1.509 . S
C482 C371 1.541 . S
C493 C286 1.539 1_655 S
C491 C108 1.511 . S
C504 C325 1.543 1_565 S
C502 C196 1.499 . S
C515 C364 1.528 . S
C513 C20 1.504 . S
C524 C145 1.507 . S
C526 C265 1.525 . S
