# Generated by pormake.
# Topology tbo, (3,4)-cn, num edge types: 1
# Building blocks:
#     Node 0, Type 0, BuildingBlock: WUSLED_clean_sbu_0, # of connection points: 3
#     Node 1, Type 0, BuildingBlock: WUSLED_clean_sbu_0, # of connection points: 3
#     Node 2, Type 0, BuildingBlock: WUSLED_clean_sbu_0, # of connection points: 3
#     Node 3, Type 0, BuildingBlock: WUSLED_clean_sbu_0, # of connection points: 3
#     Node 4, Type 0, BuildingBlock: WUSLED_clean_sbu_0, # of connection points: 3
#     Node 5, Type 0, BuildingBlock: WUSLED_clean_sbu_0, # of connection points: 3
#     Node 6, Type 0, BuildingBlock: WUSLED_clean_sbu_0, # of connection points: 3
#     Node 7, Type 0, BuildingBlock: WUSLED_clean_sbu_0, # of connection points: 3
#     Node 8, Type 0, BuildingBlock: WUSLED_clean_sbu_0, # of connection points: 3
#     Node 9, Type 0, BuildingBlock: WUSLED_clean_sbu_0, # of connection points: 3
#     Node 10, Type 0, BuildingBlock: WUSLED_clean_sbu_0, # of connection points: 3
#     Node 11, Type 0, BuildingBlock: WUSLED_clean_sbu_0, # of connection points: 3
#     Node 12, Type 0, BuildingBlock: WUSLED_clean_sbu_0, # of connection points: 3
#     Node 13, Type 0, BuildingBlock: WUSLED_clean_sbu_0, # of connection points: 3
#     Node 14, Type 0, BuildingBlock: WUSLED_clean_sbu_0, # of connection points: 3
#     Node 15, Type 0, BuildingBlock: WUSLED_clean_sbu_0, # of connection points: 3
#     Node 16, Type 0, BuildingBlock: WUSLED_clean_sbu_0, # of connection points: 3
#     Node 17, Type 0, BuildingBlock: WUSLED_clean_sbu_0, # of connection points: 3
#     Node 18, Type 0, BuildingBlock: WUSLED_clean_sbu_0, # of connection points: 3
#     Node 19, Type 0, BuildingBlock: WUSLED_clean_sbu_0, # of connection points: 3
#     Node 20, Type 0, BuildingBlock: WUSLED_clean_sbu_0, # of connection points: 3
#     Node 21, Type 0, BuildingBlock: WUSLED_clean_sbu_0, # of connection points: 3
#     Node 22, Type 0, BuildingBlock: WUSLED_clean_sbu_0, # of connection points: 3
#     Node 23, Type 0, BuildingBlock: WUSLED_clean_sbu_0, # of connection points: 3
#     Node 24, Type 0, BuildingBlock: WUSLED_clean_sbu_0, # of connection points: 3
#     Node 25, Type 0, BuildingBlock: WUSLED_clean_sbu_0, # of connection points: 3
#     Node 26, Type 0, BuildingBlock: WUSLED_clean_sbu_0, # of connection points: 3
#     Node 27, Type 0, BuildingBlock: WUSLED_clean_sbu_0, # of connection points: 3
#     Node 28, Type 0, BuildingBlock: WUSLED_clean_sbu_0, # of connection points: 3
#     Node 29, Type 0, BuildingBlock: WUSLED_clean_sbu_0, # of connection points: 3
#     Node 30, Type 0, BuildingBlock: WUSLED_clean_sbu_0, # of connection points: 3
#     Node 31, Type 0, BuildingBlock: WUSLED_clean_sbu_0, # of connection points: 3
#     Node 32, Type 1, BuildingBlock: NAHDIM_clean_linker_0, # of connection points: 4
#     Node 33, Type 1, BuildingBlock: NAHDIM_clean_linker_0, # of connection points: 4
#     Node 34, Type 1, BuildingBlock: NAHDIM_clean_linker_0, # of connection points: 4
#     Node 35, Type 1, BuildingBlock: NAHDIM_clean_linker_0, # of connection points: 4
#     Node 36, Type 1, BuildingBlock: NAHDIM_clean_linker_0, # of connection points: 4
#     Node 37, Type 1, BuildingBlock: NAHDIM_clean_linker_0, # of connection points: 4
#     Node 38, Type 1, BuildingBlock: NAHDIM_clean_linker_0, # of connection points: 4
#     Node 39, Type 1, BuildingBlock: NAHDIM_clean_linker_0, # of connection points: 4
#     Node 40, Type 1, BuildingBlock: NAHDIM_clean_linker_0, # of connection points: 4
#     Node 41, Type 1, BuildingBlock: NAHDIM_clean_linker_0, # of connection points: 4
#     Node 42, Type 1, BuildingBlock: NAHDIM_clean_linker_0, # of connection points: 4
#     Node 43, Type 1, BuildingBlock: NAHDIM_clean_linker_0, # of connection points: 4
#     Node 44, Type 1, BuildingBlock: NAHDIM_clean_linker_0, # of connection points: 4
#     Node 45, Type 1, BuildingBlock: NAHDIM_clean_linker_0, # of connection points: 4
#     Node 46, Type 1, BuildingBlock: NAHDIM_clean_linker_0, # of connection points: 4
#     Node 47, Type 1, BuildingBlock: NAHDIM_clean_linker_0, # of connection points: 4
#     Node 48, Type 1, BuildingBlock: NAHDIM_clean_linker_0, # of connection points: 4
#     Node 49, Type 1, BuildingBlock: NAHDIM_clean_linker_0, # of connection points: 4
#     Node 50, Type 1, BuildingBlock: NAHDIM_clean_linker_0, # of connection points: 4
#     Node 51, Type 1, BuildingBlock: NAHDIM_clean_linker_0, # of connection points: 4
#     Node 52, Type 1, BuildingBlock: NAHDIM_clean_linker_0, # of connection points: 4
#     Node 53, Type 1, BuildingBlock: NAHDIM_clean_linker_0, # of connection points: 4
#     Node 54, Type 1, BuildingBlock: NAHDIM_clean_linker_0, # of connection points: 4
#     Node 55, Type 1, BuildingBlock: NAHDIM_clean_linker_0, # of connection points: 4
#     Edge 56, Type (0, 1), BuildingBlock: KIFKEQ_clean_linker_1, # of connection points: 2
#     Edge 57, Type (0, 1), BuildingBlock: KIFKEQ_clean_linker_1, # of connection points: 2
#     Edge 58, Type (0, 1), BuildingBlock: KIFKEQ_clean_linker_1, # of connection points: 2
#     Edge 59, Type (0, 1), BuildingBlock: KIFKEQ_clean_linker_1, # of connection points: 2
#     Edge 60, Type (0, 1), BuildingBlock: KIFKEQ_clean_linker_1, # of connection points: 2
#     Edge 61, Type (0, 1), BuildingBlock: KIFKEQ_clean_linker_1, # of connection points: 2
#     Edge 62, Type (0, 1), BuildingBlock: KIFKEQ_clean_linker_1, # of connection points: 2
#     Edge 63, Type (0, 1), BuildingBlock: KIFKEQ_clean_linker_1, # of connection points: 2
#     Edge 64, Type (0, 1), BuildingBlock: KIFKEQ_clean_linker_1, # of connection points: 2
#     Edge 65, Type (0, 1), BuildingBlock: KIFKEQ_clean_linker_1, # of connection points: 2
#     Edge 66, Type (0, 1), BuildingBlock: KIFKEQ_clean_linker_1, # of connection points: 2
#     Edge 67, Type (0, 1), BuildingBlock: KIFKEQ_clean_linker_1, # of connection points: 2
#     Edge 68, Type (0, 1), BuildingBlock: KIFKEQ_clean_linker_1, # of connection points: 2
#     Edge 69, Type (0, 1), BuildingBlock: KIFKEQ_clean_linker_1, # of connection points: 2
#     Edge 70, Type (0, 1), BuildingBlock: KIFKEQ_clean_linker_1, # of connection points: 2
#     Edge 71, Type (0, 1), BuildingBlock: KIFKEQ_clean_linker_1, # of connection points: 2
#     Edge 72, Type (0, 1), BuildingBlock: KIFKEQ_clean_linker_1, # of connection points: 2
#     Edge 73, Type (0, 1), BuildingBlock: KIFKEQ_clean_linker_1, # of connection points: 2
#     Edge 74, Type (0, 1), BuildingBlock: KIFKEQ_clean_linker_1, # of connection points: 2
#     Edge 75, Type (0, 1), BuildingBlock: KIFKEQ_clean_linker_1, # of connection points: 2
#     Edge 76, Type (0, 1), BuildingBlock: KIFKEQ_clean_linker_1, # of connection points: 2
#     Edge 77, Type (0, 1), BuildingBlock: KIFKEQ_clean_linker_1, # of connection points: 2
#     Edge 78, Type (0, 1), BuildingBlock: KIFKEQ_clean_linker_1, # of connection points: 2
#     Edge 79, Type (0, 1), BuildingBlock: KIFKEQ_clean_linker_1, # of connection points: 2
#     Edge 80, Type (0, 1), BuildingBlock: KIFKEQ_clean_linker_1, # of connection points: 2
#     Edge 81, Type (0, 1), BuildingBlock: KIFKEQ_clean_linker_1, # of connection points: 2
#     Edge 82, Type (0, 1), BuildingBlock: KIFKEQ_clean_linker_1, # of connection points: 2
#     Edge 83, Type (0, 1), BuildingBlock: KIFKEQ_clean_linker_1, # of connection points: 2
#     Edge 84, Type (0, 1), BuildingBlock: KIFKEQ_clean_linker_1, # of connection points: 2
#     Edge 85, Type (0, 1), BuildingBlock: KIFKEQ_clean_linker_1, # of connection points: 2
#     Edge 86, Type (0, 1), BuildingBlock: KIFKEQ_clean_linker_1, # of connection points: 2
#     Edge 87, Type (0, 1), BuildingBlock: KIFKEQ_clean_linker_1, # of connection points: 2
#     Edge 88, Type (0, 1), BuildingBlock: KIFKEQ_clean_linker_1, # of connection points: 2
#     Edge 89, Type (0, 1), BuildingBlock: KIFKEQ_clean_linker_1, # of connection points: 2
#     Edge 90, Type (0, 1), BuildingBlock: KIFKEQ_clean_linker_1, # of connection points: 2
#     Edge 91, Type (0, 1), BuildingBlock: KIFKEQ_clean_linker_1, # of connection points: 2
#     Edge 92, Type (0, 1), BuildingBlock: KIFKEQ_clean_linker_1, # of connection points: 2
#     Edge 93, Type (0, 1), BuildingBlock: KIFKEQ_clean_linker_1, # of connection points: 2
#     Edge 94, Type (0, 1), BuildingBlock: KIFKEQ_clean_linker_1, # of connection points: 2
#     Edge 95, Type (0, 1), BuildingBlock: KIFKEQ_clean_linker_1, # of connection points: 2
#     Edge 96, Type (0, 1), BuildingBlock: KIFKEQ_clean_linker_1, # of connection points: 2
#     Edge 97, Type (0, 1), BuildingBlock: KIFKEQ_clean_linker_1, # of connection points: 2
#     Edge 98, Type (0, 1), BuildingBlock: KIFKEQ_clean_linker_1, # of connection points: 2
#     Edge 99, Type (0, 1), BuildingBlock: KIFKEQ_clean_linker_1, # of connection points: 2
#     Edge 100, Type (0, 1), BuildingBlock: KIFKEQ_clean_linker_1, # of connection points: 2
#     Edge 101, Type (0, 1), BuildingBlock: KIFKEQ_clean_linker_1, # of connection points: 2
#     Edge 102, Type (0, 1), BuildingBlock: KIFKEQ_clean_linker_1, # of connection points: 2
#     Edge 103, Type (0, 1), BuildingBlock: KIFKEQ_clean_linker_1, # of connection points: 2
#     Edge 104, Type (0, 1), BuildingBlock: KIFKEQ_clean_linker_1, # of connection points: 2
#     Edge 105, Type (0, 1), BuildingBlock: KIFKEQ_clean_linker_1, # of connection points: 2
#     Edge 106, Type (0, 1), BuildingBlock: KIFKEQ_clean_linker_1, # of connection points: 2
#     Edge 107, Type (0, 1), BuildingBlock: KIFKEQ_clean_linker_1, # of connection points: 2
#     Edge 108, Type (0, 1), BuildingBlock: KIFKEQ_clean_linker_1, # of connection points: 2
#     Edge 109, Type (0, 1), BuildingBlock: KIFKEQ_clean_linker_1, # of connection points: 2
#     Edge 110, Type (0, 1), BuildingBlock: KIFKEQ_clean_linker_1, # of connection points: 2
#     Edge 111, Type (0, 1), BuildingBlock: KIFKEQ_clean_linker_1, # of connection points: 2
#     Edge 112, Type (0, 1), BuildingBlock: KIFKEQ_clean_linker_1, # of connection points: 2
#     Edge 113, Type (0, 1), BuildingBlock: KIFKEQ_clean_linker_1, # of connection points: 2
#     Edge 114, Type (0, 1), BuildingBlock: KIFKEQ_clean_linker_1, # of connection points: 2
#     Edge 115, Type (0, 1), BuildingBlock: KIFKEQ_clean_linker_1, # of connection points: 2
#     Edge 116, Type (0, 1), BuildingBlock: KIFKEQ_clean_linker_1, # of connection points: 2
#     Edge 117, Type (0, 1), BuildingBlock: KIFKEQ_clean_linker_1, # of connection points: 2
#     Edge 118, Type (0, 1), BuildingBlock: KIFKEQ_clean_linker_1, # of connection points: 2
#     Edge 119, Type (0, 1), BuildingBlock: KIFKEQ_clean_linker_1, # of connection points: 2
#     Edge 120, Type (0, 1), BuildingBlock: KIFKEQ_clean_linker_1, # of connection points: 2
#     Edge 121, Type (0, 1), BuildingBlock: KIFKEQ_clean_linker_1, # of connection points: 2
#     Edge 122, Type (0, 1), BuildingBlock: KIFKEQ_clean_linker_1, # of connection points: 2
#     Edge 123, Type (0, 1), BuildingBlock: KIFKEQ_clean_linker_1, # of connection points: 2
#     Edge 124, Type (0, 1), BuildingBlock: KIFKEQ_clean_linker_1, # of connection points: 2
#     Edge 125, Type (0, 1), BuildingBlock: KIFKEQ_clean_linker_1, # of connection points: 2
#     Edge 126, Type (0, 1), BuildingBlock: KIFKEQ_clean_linker_1, # of connection points: 2
#     Edge 127, Type (0, 1), BuildingBlock: KIFKEQ_clean_linker_1, # of connection points: 2
#     Edge 128, Type (0, 1), BuildingBlock: KIFKEQ_clean_linker_1, # of connection points: 2
#     Edge 129, Type (0, 1), BuildingBlock: KIFKEQ_clean_linker_1, # of connection points: 2
#     Edge 130, Type (0, 1), BuildingBlock: KIFKEQ_clean_linker_1, # of connection points: 2
#     Edge 131, Type (0, 1), BuildingBlock: KIFKEQ_clean_linker_1, # of connection points: 2
#     Edge 132, Type (0, 1), BuildingBlock: KIFKEQ_clean_linker_1, # of connection points: 2
#     Edge 133, Type (0, 1), BuildingBlock: KIFKEQ_clean_linker_1, # of connection points: 2
#     Edge 134, Type (0, 1), BuildingBlock: KIFKEQ_clean_linker_1, # of connection points: 2
#     Edge 135, Type (0, 1), BuildingBlock: KIFKEQ_clean_linker_1, # of connection points: 2
#     Edge 136, Type (0, 1), BuildingBlock: KIFKEQ_clean_linker_1, # of connection points: 2
#     Edge 137, Type (0, 1), BuildingBlock: KIFKEQ_clean_linker_1, # of connection points: 2
#     Edge 138, Type (0, 1), BuildingBlock: KIFKEQ_clean_linker_1, # of connection points: 2
#     Edge 139, Type (0, 1), BuildingBlock: KIFKEQ_clean_linker_1, # of connection points: 2
#     Edge 140, Type (0, 1), BuildingBlock: KIFKEQ_clean_linker_1, # of connection points: 2
#     Edge 141, Type (0, 1), BuildingBlock: KIFKEQ_clean_linker_1, # of connection points: 2
#     Edge 142, Type (0, 1), BuildingBlock: KIFKEQ_clean_linker_1, # of connection points: 2
#     Edge 143, Type (0, 1), BuildingBlock: KIFKEQ_clean_linker_1, # of connection points: 2
#     Edge 144, Type (0, 1), BuildingBlock: KIFKEQ_clean_linker_1, # of connection points: 2
#     Edge 145, Type (0, 1), BuildingBlock: KIFKEQ_clean_linker_1, # of connection points: 2
#     Edge 146, Type (0, 1), BuildingBlock: KIFKEQ_clean_linker_1, # of connection points: 2
#     Edge 147, Type (0, 1), BuildingBlock: KIFKEQ_clean_linker_1, # of connection points: 2
#     Edge 148, Type (0, 1), BuildingBlock: KIFKEQ_clean_linker_1, # of connection points: 2
#     Edge 149, Type (0, 1), BuildingBlock: KIFKEQ_clean_linker_1, # of connection points: 2
#     Edge 150, Type (0, 1), BuildingBlock: KIFKEQ_clean_linker_1, # of connection points: 2
#     Edge 151, Type (0, 1), BuildingBlock: KIFKEQ_clean_linker_1, # of connection points: 2
# Relax obj value: 0.002
# Max RMSD: 0.048
# Mean RMSD: 0.021
data_MOF--net-tbo--node1-WUSLED_clean_sbu_0--node2-NAHDIM_clean_linker_0--edge1-KIFKEQ_clean_linker_1
_symmetry_space_group_name_H-M    P1
_symmetry_Int_Tables_number       1
_symmetry_cell_setting            triclinic
loop_
_symmetry_equiv_pos_as_xyz
'x, y, z'
_cell_length_a     124.10086
_cell_length_b     124.48735
_cell_length_c     124.24963
_cell_angle_alpha  89.577949
_cell_angle_beta   90.051098
_cell_angle_gamma 91.166975
loop_
_atom_site_label
_atom_site_type_symbol
_atom_site_fract_x
_atom_site_fract_y
_atom_site_fract_z
_atom_type_partial_charge
C0 C 0.16209 0.13437 0.17974 0.0
C1 C 0.17042 0.13018 0.17352 0.0
C2 C 0.17359 0.11646 0.18723 0.0
C3 C 0.17611 0.12127 0.17722 0.0
C4 C 0.16514 0.12066 0.19334 0.0
C5 C 0.15945 0.12953 0.18963 0.0
U6 U 0.15801 0.15802 0.1604 0.0
O7 O 0.14306 0.16524 0.15448 0.0
O8 O 0.15453 0.17486 0.16402 0.0
C9 C 0.1449 0.1743 0.15962 0.0
C10 C 0.15632 0.14399 0.17624 0.0
C11 C 0.13598 0.17851 0.1662 0.0
C12 C 0.11747 0.1776 0.17276 0.0
C13 C 0.12581 0.1733 0.16666 0.0
C14 C 0.12927 0.19235 0.17806 0.0
C15 C 0.11913 0.18714 0.17857 0.0
C16 C 0.13756 0.18812 0.1719 0.0
C17 C 0.1767 0.16233 0.13628 0.0
C18 C 0.17416 0.17667 0.1232 0.0
C19 C 0.19042 0.16624 0.12281 0.0
C20 C 0.18667 0.16015 0.13159 0.0
C21 C 0.18423 0.1746 0.11853 0.0
C22 C 0.17044 0.17061 0.13202 0.0
C23 C 0.1731 0.15611 0.14577 0.0
O24 O 0.16184 0.15307 0.17697 0.0
O25 O 0.15089 0.14311 0.16719 0.0
O26 O 0.16354 0.15142 0.14503 0.0
O27 O 0.17473 0.16085 0.15506 0.0
H28 H 0.17261 0.13387 0.16588 0.0
H29 H 0.18265 0.11832 0.17237 0.0
H30 H 0.1629 0.11707 0.20101 0.0
H31 H 0.15303 0.13266 0.19452 0.0
H32 H 0.10976 0.17336 0.17306 0.0
H33 H 0.12427 0.16592 0.16232 0.0
H34 H 0.13075 0.1998 0.18232 0.0
H35 H 0.14525 0.1924 0.17157 0.0
H36 H 0.16926 0.18313 0.12018 0.0
H37 H 0.19815 0.16436 0.11933 0.0
H38 H 0.19161 0.15379 0.13478 0.0
H39 H 0.16274 0.17244 0.1356 0.0
C40 C 0.8278 0.16812 0.13418 0.0
C41 C 0.82911 0.17935 0.13423 0.0
C42 C 0.82017 0.1806 0.1168 0.0
C43 C 0.82529 0.18553 0.12565 0.0
C44 C 0.81919 0.16932 0.11666 0.0
C45 C 0.82293 0.16315 0.12528 0.0
U46 U 0.84658 0.16244 0.15784 0.0
O47 O 0.84286 0.15742 0.17441 0.0
O48 O 0.85247 0.14701 0.16412 0.0
C49 C 0.84731 0.14799 0.17328 0.0
C50 C 0.83114 0.16151 0.14343 0.0
C51 C 0.84072 0.13862 0.17675 0.0
C52 C 0.8233 0.13006 0.18035 0.0
C53 C 0.82941 0.13875 0.17632 0.0
C54 C 0.8397 0.1208 0.18484 0.0
C55 C 0.82838 0.12104 0.18476 0.0
C56 C 0.84581 0.12953 0.18091 0.0
C57 C 0.87031 0.18127 0.16396 0.0
C58 C 0.87866 0.18306 0.18157 0.0
C59 C 0.88789 0.19003 0.16574 0.0
C60 C 0.87929 0.18648 0.1593 0.0
C61 C 0.88759 0.18848 0.17695 0.0
C62 C 0.87012 0.17943 0.17512 0.0
C63 C 0.86111 0.17801 0.15714 0.0
O64 O 0.84029 0.1565 0.14233 0.0
O65 O 0.83001 0.16591 0.15294 0.0
O66 O 0.85155 0.17903 0.16151 0.0
O67 O 0.86216 0.16894 0.15193 0.0
H68 H 0.8329 0.18336 0.141 0.0
H69 H 0.82609 0.19419 0.12612 0.0
H70 H 0.81548 0.16523 0.10989 0.0
H71 H 0.82192 0.15449 0.12506 0.0
H72 H 0.81459 0.13041 0.18006 0.0
H73 H 0.82529 0.14563 0.17304 0.0
H74 H 0.84384 0.11399 0.18826 0.0
H75 H 0.85452 0.12928 0.18129 0.0
H76 H 0.87828 0.18164 0.19017 0.0
H77 H 0.89464 0.19424 0.16197 0.0
H78 H 0.87958 0.18795 0.1507 0.0
H79 H 0.86332 0.1753 0.17888 0.0
C80 C 0.83066 0.8415 0.13986 0.0
C81 C 0.83846 0.83656 0.13349 0.0
C82 C 0.82449 0.83021 0.12114 0.0
C83 C 0.8354 0.83102 0.12418 0.0
C84 C 0.81671 0.83503 0.12765 0.0
C85 C 0.81978 0.84065 0.1369 0.0
U86 U 0.84915 0.8465 0.16401 0.0
O87 O 0.85509 0.8616 0.17117 0.0
O88 O 0.84509 0.85039 0.18077 0.0
C89 C 0.8497 0.85998 0.18017 0.0
C90 C 0.8337 0.84751 0.14962 0.0
C91 C 0.84322 0.86898 0.18417 0.0
C92 C 0.83607 0.88699 0.18231 0.0
C93 C 0.84198 0.8785 0.17815 0.0
C94 C 0.83247 0.87659 0.19849 0.0
C95 C 0.83123 0.88612 0.19251 0.0
C96 C 0.83844 0.86815 0.19439 0.0
C97 C 0.87323 0.82826 0.16852 0.0
C98 C 0.88622 0.83097 0.18295 0.0
C99 C 0.88676 0.81488 0.17211 0.0
C100 C 0.87798 0.81846 0.16612 0.0
C101 C 0.89096 0.82106 0.18063 0.0
C102 C 0.8774 0.83452 0.17696 0.0
C103 C 0.86379 0.83167 0.16232 0.0
O104 O 0.83269 0.84216 0.15872 0.0
O105 O 0.84266 0.85331 0.14903 0.0
O106 O 0.86464 0.84113 0.15759 0.0
O107 O 0.85444 0.83 0.16707 0.0
H108 H 0.8469 0.83702 0.1357 0.0
H109 H 0.84157 0.82729 0.1194 0.0
H110 H 0.80826 0.83465 0.12546 0.0
H111 H 0.81365 0.84438 0.14173 0.0
H112 H 0.83517 0.89419 0.17747 0.0
H113 H 0.84557 0.87942 0.17025 0.0
H114 H 0.82895 0.87572 0.20643 0.0
H115 H 0.83937 0.86096 0.19924 0.0
H116 H 0.88919 0.83586 0.18953 0.0
H117 H 0.8903 0.80729 0.17004 0.0
H118 H 0.87486 0.81353 0.15962 0.0
H119 H 0.87377 0.84209 0.17896 0.0
C120 C 0.13842 0.8261 0.16098 0.0
C121 C 0.13497 0.83141 0.17025 0.0
C122 C 0.12051 0.81808 0.17271 0.0
C123 C 0.12608 0.82743 0.17607 0.0
C124 C 0.124 0.81286 0.16335 0.0
C125 C 0.13287 0.81685 0.15755 0.0
U126 U 0.16213 0.84566 0.15739 0.0
O127 O 0.17893 0.84271 0.15291 0.0
O128 O 0.16899 0.85303 0.14267 0.0
C129 C 0.17813 0.84796 0.14373 0.0
C130 C 0.14794 0.82995 0.15499 0.0
C131 C 0.18193 0.8424 0.13404 0.0
C132 C 0.18665 0.82613 0.12454 0.0
C133 C 0.18277 0.83116 0.13376 0.0
C134 C 0.18865 0.84345 0.11569 0.0
C135 C 0.18966 0.83221 0.11539 0.0
C136 C 0.18487 0.84847 0.12493 0.0
C137 C 0.16693 0.86819 0.17752 0.0
C138 C 0.18423 0.87692 0.18114 0.0
C139 C 0.16772 0.88549 0.18645 0.0
C140 C 0.16172 0.87686 0.18224 0.0
C141 C 0.17904 0.88553 0.18608 0.0
C142 C 0.17823 0.86836 0.17684 0.0
C143 C 0.1605 0.85898 0.17352 0.0
O144 O 0.14706 0.83938 0.15026 0.0
O145 O 0.15717 0.8288 0.16001 0.0
O146 O 0.16505 0.84957 0.17435 0.0
O147 O 0.15562 0.86047 0.16425 0.0
H148 H 0.13919 0.83859 0.173 0.0
H149 H 0.12355 0.83168 0.18318 0.0
H150 H 0.12001 0.80555 0.16063 0.0
H151 H 0.13548 0.81262 0.15045 0.0
H152 H 0.18742 0.81748 0.12467 0.0
H153 H 0.18052 0.82626 0.14067 0.0
H154 H 0.19068 0.84838 0.10874 0.0
H155 H 0.18422 0.85714 0.12495 0.0
H156 H 0.19294 0.87682 0.18062 0.0
H157 H 0.16352 0.89198 0.19027 0.0
H158 H 0.15301 0.87689 0.18281 0.0
H159 H 0.18243 0.86182 0.1731 0.0
C160 C 0.14074 0.82763 0.83805 0.0
C161 C 0.14027 0.83021 0.82705 0.0
C162 C 0.12294 0.82076 0.8255 0.0
C163 C 0.13149 0.82677 0.82082 0.0
C164 C 0.12337 0.81841 0.83659 0.0
C165 C 0.1322 0.82179 0.84279 0.0
U166 U 0.16417 0.84691 0.84378 0.0
O167 O 0.17041 0.85338 0.85901 0.0
O168 O 0.18083 0.84371 0.84879 0.0
C169 C 0.17964 0.84847 0.85811 0.0
C170 C 0.15007 0.83095 0.84464 0.0
C171 C 0.18312 0.84228 0.8676 0.0
C172 C 0.17912 0.83115 0.88331 0.0
C173 C 0.17565 0.83668 0.87414 0.0
C174 C 0.19758 0.83647 0.87931 0.0
C175 C 0.19014 0.83104 0.88606 0.0
C176 C 0.19409 0.84206 0.87019 0.0
C177 C 0.16858 0.87135 0.82547 0.0
C178 C 0.18451 0.883 0.82638 0.0
C179 C 0.16882 0.88866 0.81638 0.0
C180 C 0.16348 0.87903 0.81906 0.0
C181 C 0.17937 0.89078 0.82004 0.0
C182 C 0.17913 0.87337 0.82912 0.0
C183 C 0.16264 0.86145 0.82849 0.0
O184 O 0.15953 0.83025 0.83995 0.0
O185 O 0.14896 0.83989 0.85004 0.0
O186 O 0.15731 0.8619 0.8376 0.0
O187 O 0.16787 0.85244 0.82732 0.0
H188 H 0.14675 0.83479 0.82324 0.0
H189 H 0.13153 0.82862 0.81229 0.0
H190 H 0.11686 0.81398 0.84051 0.0
H191 H 0.13238 0.81981 0.8513 0.0
H192 H 0.17315 0.82717 0.88836 0.0
H193 H 0.16713 0.8367 0.87224 0.0
H194 H 0.20613 0.8364 0.88105 0.0
H195 H 0.19998 0.84625 0.86519 0.0
H196 H 0.19259 0.88445 0.82941 0.0
H197 H 0.16469 0.89444 0.81137 0.0
H198 H 0.15533 0.8776 0.81619 0.0
H199 H 0.18315 0.86755 0.83417 0.0
C200 C 0.13588 0.16556 0.82751 0.0
C201 C 0.13177 0.17367 0.83402 0.0
C202 C 0.11777 0.17719 0.82074 0.0
C203 C 0.12277 0.17942 0.83068 0.0
C204 C 0.12192 0.169 0.81429 0.0
C205 C 0.13089 0.16324 0.81766 0.0
U206 U 0.15995 0.16133 0.84614 0.0
O207 O 0.1669 0.14646 0.85246 0.0
O208 O 0.17665 0.15723 0.84213 0.0
C209 C 0.17596 0.14789 0.84711 0.0
C210 C 0.14551 0.15964 0.83074 0.0
C211 C 0.1798 0.13861 0.841 0.0
C212 C 0.17656 0.12198 0.83123 0.0
C213 C 0.17263 0.13097 0.83655 0.0
C214 C 0.19485 0.12832 0.83445 0.0
C215 C 0.18774 0.12048 0.83021 0.0
C216 C 0.19091 0.13726 0.83981 0.0
C217 C 0.16491 0.18016 0.86984 0.0
C218 C 0.17912 0.17726 0.88295 0.0
C219 C 0.1689 0.19363 0.8834 0.0
C220 C 0.16285 0.19009 0.87455 0.0
C221 C 0.17712 0.18726 0.8877 0.0
C222 C 0.17309 0.17375 0.87408 0.0
C223 C 0.15856 0.17666 0.86045 0.0
O224 O 0.1547 0.16495 0.82961 0.0
O225 O 0.14478 0.15433 0.83991 0.0
O226 O 0.15357 0.16729 0.86144 0.0
O227 O 0.16333 0.178 0.85108 0.0
H228 H 0.13558 0.1756 0.84164 0.0
H229 H 0.11986 0.18576 0.83577 0.0
H230 H 0.1182 0.167 0.80666 0.0
H231 H 0.13397 0.157 0.81253 0.0
H232 H 0.17084 0.11607 0.82816 0.0
H233 H 0.164 0.13187 0.83731 0.0
H234 H 0.20349 0.12757 0.83364 0.0
H235 H 0.19658 0.1431 0.84312 0.0
H236 H 0.18548 0.17222 0.88599 0.0
H237 H 0.16707 0.2013 0.88693 0.0
H238 H 0.15656 0.19514 0.87138 0.0
H239 H 0.17483 0.16607 0.87048 0.0
C240 C 0.82434 0.13535 0.84706 0.0
C241 C 0.8311 0.1267 0.84494 0.0
C242 C 0.81668 0.11756 0.83502 0.0
C243 C 0.8273 0.11788 0.83903 0.0
C244 C 0.80995 0.12626 0.83717 0.0
C245 C 0.81373 0.13502 0.84316 0.0
U246 U 0.84483 0.15808 0.85223 0.0
O247 O 0.8424 0.17509 0.85581 0.0
O248 O 0.85075 0.1649 0.86752 0.0
C249 C 0.84637 0.17425 0.86559 0.0
C250 C 0.82815 0.14483 0.85316 0.0
C251 C 0.83963 0.17847 0.87427 0.0
C252 C 0.82208 0.18273 0.88159 0.0
C253 C 0.82833 0.17818 0.87353 0.0
C254 C 0.8383 0.1875 0.89148 0.0
C255 C 0.827 0.18752 0.8906 0.0
C256 C 0.84455 0.18305 0.88335 0.0
C257 C 0.86952 0.16107 0.83406 0.0
C258 C 0.88206 0.17626 0.83531 0.0
C259 C 0.88428 0.16297 0.82137 0.0
C260 C 0.87524 0.15728 0.82522 0.0
C261 C 0.88776 0.17257 0.82632 0.0
C262 C 0.873 0.17055 0.83916 0.0
C263 C 0.85964 0.15533 0.8375 0.0
O264 O 0.83686 0.14365 0.85906 0.0
O265 O 0.82806 0.154 0.84786 0.0
O266 O 0.85068 0.16049 0.8357 0.0
O267 O 0.85995 0.15074 0.84705 0.0
H268 H 0.83934 0.12674 0.84782 0.0
H269 H 0.83267 0.11129 0.83768 0.0
H270 H 0.8018 0.12642 0.83406 0.0
H271 H 0.80838 0.14162 0.84466 0.0
H272 H 0.81339 0.18251 0.88077 0.0
H273 H 0.82434 0.17456 0.86665 0.0
H274 H 0.8423 0.1912 0.8983 0.0
H275 H 0.85326 0.18332 0.88409 0.0
H276 H 0.88458 0.18357 0.83935 0.0
H277 H 0.88835 0.15999 0.81433 0.0
H278 H 0.8726 0.15003 0.82115 0.0
H279 H 0.86863 0.17359 0.846 0.0
C280 C 0.84278 0.86717 0.82506 0.0
C281 C 0.83252 0.86868 0.82946 0.0
C282 C 0.83058 0.88508 0.81885 0.0
C283 C 0.82645 0.87753 0.82636 0.0
C284 C 0.84091 0.88355 0.81454 0.0
C285 C 0.84694 0.87466 0.8176 0.0
U286 U 0.84861 0.84394 0.84416 0.0
O287 O 0.85319 0.8273 0.84074 0.0
O288 O 0.86399 0.83781 0.85015 0.0
C289 C 0.86267 0.82849 0.84536 0.0
C290 C 0.84922 0.85786 0.82818 0.0
C291 C 0.87195 0.82461 0.83922 0.0
C292 C 0.88791 0.82772 0.82817 0.0
C293 C 0.8788 0.83164 0.83338 0.0
C294 C 0.88322 0.80971 0.83429 0.0
C295 C 0.89031 0.81672 0.82869 0.0
C296 C 0.87416 0.81363 0.83951 0.0
C297 C 0.83076 0.83968 0.86921 0.0
C298 C 0.82424 0.82368 0.87878 0.0
C299 C 0.82769 0.84015 0.88855 0.0
C300 C 0.83082 0.84529 0.87897 0.0
C301 C 0.82432 0.8293 0.88856 0.0
C302 C 0.82746 0.8288 0.86921 0.0
C303 C 0.83385 0.84545 0.85917 0.0
O304 O 0.85495 0.85903 0.83702 0.0
O305 O 0.8442 0.84847 0.82763 0.0
O306 O 0.83222 0.84035 0.85006 0.0
O307 O 0.84309 0.8508 0.85943 0.0
H308 H 0.82921 0.86301 0.8353 0.0
H309 H 0.81859 0.87855 0.82994 0.0
H310 H 0.84427 0.88916 0.80868 0.0
H311 H 0.85486 0.87363 0.81413 0.0
H312 H 0.89322 0.83335 0.82398 0.0
H313 H 0.8772 0.84016 0.83301 0.0
H314 H 0.88467 0.80117 0.83466 0.0
H315 H 0.86893 0.80807 0.8439 0.0
H316 H 0.82179 0.81528 0.87855 0.0
H317 H 0.82773 0.84474 0.89592 0.0
H318 H 0.83323 0.8537 0.87919 0.0
H319 H 0.82732 0.82424 0.86182 0.0
C320 C 0.16775 0.63456 0.68115 0.0
C321 C 0.17792 0.63196 0.6771 0.0
C322 C 0.17857 0.61643 0.68917 0.0
C323 C 0.1833 0.62298 0.6811 0.0
C324 C 0.16829 0.61901 0.69303 0.0
C325 C 0.16295 0.62798 0.68905 0.0
U326 U 0.16398 0.65848 0.6619 0.0
O327 O 0.14905 0.66561 0.65584 0.0
O328 O 0.16025 0.67523 0.66567 0.0
C329 C 0.1507 0.67464 0.66109 0.0
C330 C 0.16214 0.64424 0.67754 0.0
C331 C 0.14159 0.67873 0.6675 0.0
C332 C 0.12266 0.67822 0.67276 0.0
C333 C 0.13122 0.67396 0.66696 0.0
C334 C 0.13461 0.69211 0.67974 0.0
C335 C 0.12426 0.68734 0.67923 0.0
C336 C 0.14315 0.6879 0.6739 0.0
C337 C 0.18274 0.66322 0.63797 0.0
C338 C 0.17992 0.6776 0.62499 0.0
C339 C 0.19634 0.6674 0.62445 0.0
C340 C 0.19273 0.66123 0.63323 0.0
C341 C 0.18999 0.67569 0.62025 0.0
C342 C 0.17634 0.67144 0.63381 0.0
C343 C 0.17922 0.65685 0.64739 0.0
O344 O 0.16764 0.65333 0.67843 0.0
O345 O 0.15684 0.64343 0.66841 0.0
O346 O 0.16973 0.65204 0.64655 0.0
O347 O 0.18073 0.66153 0.65673 0.0
H348 H 0.18174 0.63695 0.67096 0.0
H349 H 0.19116 0.62117 0.67788 0.0
H350 H 0.16447 0.61427 0.69935 0.0
H351 H 0.15511 0.62989 0.69229 0.0
H352 H 0.11479 0.67432 0.67226 0.0
H353 H 0.1297 0.66694 0.66204 0.0
H354 H 0.13607 0.69924 0.68451 0.0
H355 H 0.15098 0.69188 0.67433 0.0
H356 H 0.1749 0.684 0.62203 0.0
H357 H 0.20407 0.66565 0.62092 0.0
H358 H 0.19777 0.65492 0.63636 0.0
H359 H 0.16862 0.67314 0.63743 0.0
C360 C 0.82848 0.6659 0.63666 0.0
C361 C 0.82882 0.67718 0.63621 0.0
C362 C 0.82126 0.67684 0.61808 0.0
C363 C 0.82519 0.68259 0.62703 0.0
C364 C 0.82102 0.66553 0.61859 0.0
C365 C 0.82456 0.66014 0.6278 0.0
U366 U 0.84815 0.66239 0.66001 0.0
O367 O 0.84535 0.65737 0.67678 0.0
O368 O 0.85555 0.6477 0.66634 0.0
C369 C 0.85047 0.64831 0.6756 0.0
C370 C 0.8323 0.66 0.64621 0.0
C371 C 0.84472 0.63839 0.67915 0.0
C372 C 0.82842 0.62881 0.68495 0.0
C373 C 0.83365 0.6383 0.68159 0.0
C374 C 0.84517 0.6193 0.68337 0.0
C375 C 0.83412 0.6192 0.68583 0.0
C376 C 0.85043 0.62881 0.68012 0.0
C377 C 0.87119 0.68272 0.66389 0.0
C378 C 0.8849 0.68049 0.67766 0.0
C379 C 0.88466 0.69678 0.66687 0.0
C380 C 0.87565 0.69284 0.66131 0.0
C381 C 0.88941 0.69066 0.67511 0.0
C382 C 0.87585 0.67656 0.6721 0.0
C383 C 0.86166 0.67877 0.65802 0.0
O384 O 0.84164 0.65534 0.64509 0.0
O385 O 0.83125 0.66484 0.65551 0.0
O386 O 0.8525 0.67927 0.66327 0.0
O387 O 0.86283 0.66965 0.65292 0.0
H388 H 0.83187 0.68181 0.64294 0.0
H389 H 0.82538 0.69129 0.627 0.0
H390 H 0.81826 0.66082 0.6118 0.0
H391 H 0.82432 0.65143 0.62796 0.0
H392 H 0.81987 0.62894 0.68668 0.0
H393 H 0.82901 0.64555 0.68086 0.0
H394 H 0.84978 0.61203 0.68408 0.0
H395 H 0.85897 0.62868 0.67833 0.0
H396 H 0.8884 0.67553 0.68389 0.0
H397 H 0.8878 0.70472 0.66482 0.0
H398 H 0.87211 0.69772 0.65503 0.0
H399 H 0.87249 0.66872 0.67419 0.0
C400 C 0.82697 0.34176 0.63838 0.0
C401 C 0.83053 0.33137 0.63619 0.0
C402 C 0.82089 0.33146 0.61907 0.0
C403 C 0.82748 0.32624 0.62662 0.0
C404 C 0.81738 0.34187 0.62135 0.0
C405 C 0.82039 0.34696 0.63091 0.0
U406 U 0.84466 0.34586 0.6635 0.0
O407 O 0.85097 0.3609 0.67048 0.0
O408 O 0.83989 0.35055 0.67986 0.0
C409 C 0.8451 0.35983 0.67924 0.0
C410 C 0.83 0.34739 0.64834 0.0
C411 C 0.83895 0.36931 0.68239 0.0
C412 C 0.82853 0.38506 0.67787 0.0
C413 C 0.83394 0.37584 0.67469 0.0
C414 C 0.83281 0.38112 0.69649 0.0
C415 C 0.82798 0.38788 0.68881 0.0
C416 C 0.83825 0.37196 0.69329 0.0
C417 C 0.86825 0.32751 0.66967 0.0
C418 C 0.88359 0.33216 0.68104 0.0
C419 C 0.88009 0.31359 0.67624 0.0
C420 C 0.87105 0.31668 0.67033 0.0
C421 C 0.88654 0.32131 0.68156 0.0
C422 C 0.8745 0.33523 0.6752 0.0
C423 C 0.85898 0.33064 0.66301 0.0
O424 O 0.82842 0.34202 0.65737 0.0
O425 O 0.83926 0.35269 0.64807 0.0
O426 O 0.86009 0.33978 0.65772 0.0
O427 O 0.84944 0.32934 0.66749 0.0
H428 H 0.83568 0.32725 0.64187 0.0
H429 H 0.8304 0.31826 0.62506 0.0
H430 H 0.81217 0.34607 0.61581 0.0
H431 H 0.81755 0.35497 0.63247 0.0
H432 H 0.82501 0.39011 0.67172 0.0
H433 H 0.83434 0.37391 0.66621 0.0
H434 H 0.83238 0.3829 0.70499 0.0
H435 H 0.842 0.36697 0.69936 0.0
H436 H 0.88832 0.33827 0.68516 0.0
H437 H 0.88219 0.30519 0.67641 0.0
H438 H 0.86632 0.31061 0.66613 0.0
H439 H 0.87243 0.34364 0.67489 0.0
C440 C 0.13803 0.3234 0.66728 0.0
C441 C 0.13458 0.32953 0.676 0.0
C442 C 0.12046 0.31622 0.68 0.0
C443 C 0.12587 0.32599 0.68229 0.0
C444 C 0.12395 0.31013 0.67121 0.0
C445 C 0.13267 0.3137 0.6649 0.0
U446 U 0.16095 0.34332 0.6625 0.0
O447 O 0.17764 0.34113 0.65721 0.0
O448 O 0.16681 0.35115 0.6476 0.0
C449 C 0.1762 0.34646 0.64815 0.0
C450 C 0.14723 0.32711 0.66071 0.0
C451 C 0.17972 0.34115 0.63822 0.0
C452 C 0.18406 0.32512 0.62815 0.0
C453 C 0.18055 0.32992 0.63763 0.0
C454 C 0.18573 0.34266 0.61966 0.0
C455 C 0.18667 0.33144 0.61906 0.0
C456 C 0.18233 0.34746 0.62917 0.0
C457 C 0.16476 0.36602 0.68297 0.0
C458 C 0.17498 0.38268 0.68018 0.0
C459 C 0.16952 0.37728 0.69818 0.0
C460 C 0.1646 0.368 0.69404 0.0
C461 C 0.17465 0.38481 0.69129 0.0
C462 C 0.17009 0.37335 0.67606 0.0
C463 C 0.15917 0.35635 0.67887 0.0
O464 O 0.14597 0.33639 0.65581 0.0
O465 O 0.1567 0.32629 0.66536 0.0
O466 O 0.16466 0.34745 0.67932 0.0
O467 O 0.15382 0.35753 0.66981 0.0
H468 H 0.13863 0.33707 0.67794 0.0
H469 H 0.1233 0.33096 0.68889 0.0
H470 H 0.12006 0.30251 0.6693 0.0
H471 H 0.13526 0.30886 0.65821 0.0
H472 H 0.18459 0.31645 0.62787 0.0
H473 H 0.1785 0.32485 0.64448 0.0
H474 H 0.18777 0.34774 0.61281 0.0
H475 H 0.18175 0.35613 0.62946 0.0
H476 H 0.1788 0.38834 0.67465 0.0
H477 H 0.16931 0.37852 0.70679 0.0
H478 H 0.16061 0.36239 0.69951 0.0
H479 H 0.17035 0.37192 0.66747 0.0
C480 C 0.13569 0.3286 0.34202 0.0
C481 C 0.13348 0.33288 0.33179 0.0
C482 C 0.1174 0.32138 0.33045 0.0
C483 C 0.12441 0.32929 0.32604 0.0
C484 C 0.11969 0.31717 0.34073 0.0
C485 C 0.12876 0.32075 0.34645 0.0
U486 U 0.15936 0.3481 0.34625 0.0
O487 O 0.16548 0.35554 0.36112 0.0
O488 O 0.17589 0.34512 0.35169 0.0
C489 C 0.1747 0.35057 0.36062 0.0
C490 C 0.14511 0.33234 0.34821 0.0
C491 C 0.17801 0.3451 0.37057 0.0
C492 C 0.17772 0.32955 0.38253 0.0
C493 C 0.17443 0.33459 0.37299 0.0
C494 C 0.18808 0.34553 0.38731 0.0
C495 C 0.18456 0.33499 0.38981 0.0
C496 C 0.18483 0.35052 0.37777 0.0
C497 C 0.16482 0.37102 0.32659 0.0
C498 C 0.17909 0.38418 0.33002 0.0
C499 C 0.16934 0.3846 0.31313 0.0
C500 C 0.16308 0.37572 0.31648 0.0
C501 C 0.17744 0.38893 0.31985 0.0
C502 C 0.17285 0.3753 0.33335 0.0
C503 C 0.15833 0.36159 0.32997 0.0
O504 O 0.15448 0.33128 0.34345 0.0
O505 O 0.14409 0.34169 0.3529 0.0
O506 O 0.15285 0.36274 0.33892 0.0
O507 O 0.16328 0.35237 0.32947 0.0
H508 H 0.13877 0.33898 0.32827 0.0
H509 H 0.12295 0.33263 0.31812 0.0
H510 H 0.11437 0.31122 0.34445 0.0
H511 H 0.13032 0.31742 0.35437 0.0
H512 H 0.17479 0.32147 0.38428 0.0
H513 H 0.16909 0.3303 0.36753 0.0
H514 H 0.19346 0.34988 0.39267 0.0
H515 H 0.18767 0.35863 0.37601 0.0
H516 H 0.18516 0.38739 0.33546 0.0
H517 H 0.16795 0.38795 0.30519 0.0
H518 H 0.15694 0.37248 0.31115 0.0
H519 H 0.17429 0.37175 0.3412 0.0
C520 C 0.13924 0.66558 0.32984 0.0
C521 C 0.13218 0.66964 0.33757 0.0
C522 C 0.12058 0.67652 0.32337 0.0
C523 C 0.1229 0.67501 0.33436 0.0
C524 C 0.12779 0.67261 0.31567 0.0
C525 C 0.13701 0.66717 0.31889 0.0
U526 U 0.1634 0.66065 0.34834 0.0
O527 O 0.17023 0.64552 0.3542 0.0
O528 O 0.18004 0.6565 0.34417 0.0
C529 C 0.1792 0.64694 0.3487 0.0
C530 C 0.14891 0.6596 0.33296 0.0
C531 C 0.18279 0.6378 0.34209 0.0
C532 C 0.18069 0.61939 0.33574 0.0
C533 C 0.17695 0.628 0.34178 0.0
C534 C 0.19615 0.6302 0.33015 0.0
C535 C 0.19035 0.62037 0.32985 0.0
C536 C 0.19244 0.63877 0.33624 0.0
C537 C 0.16845 0.6791 0.37246 0.0
C538 C 0.18266 0.67627 0.38559 0.0
C539 C 0.17251 0.69269 0.38587 0.0
C540 C 0.16643 0.68908 0.37708 0.0
C541 C 0.18073 0.68635 0.39021 0.0
C542 C 0.1766 0.67269 0.37676 0.0
C543 C 0.16215 0.67565 0.36302 0.0
O544 O 0.15813 0.66489 0.33194 0.0
O545 O 0.14822 0.65392 0.34192 0.0
O546 O 0.15719 0.66625 0.36386 0.0
O547 O 0.16692 0.67716 0.35368 0.0
H548 H 0.13379 0.6686 0.34608 0.0
H549 H 0.11756 0.67803 0.34048 0.0
H550 H 0.12617 0.67355 0.30715 0.0
H551 H 0.14237 0.66411 0.3128 0.0
H552 H 0.17608 0.61192 0.33584 0.0
H553 H 0.16952 0.62693 0.34626 0.0
H554 H 0.20352 0.63133 0.32559 0.0
H555 H 0.19716 0.64619 0.33638 0.0
H556 H 0.18901 0.67126 0.38867 0.0
H557 H 0.17072 0.70042 0.3893 0.0
H558 H 0.16017 0.69413 0.37386 0.0
H559 H 0.17831 0.66498 0.37324 0.0
C560 C 0.82373 0.63724 0.33997 0.0
C561 C 0.82103 0.63701 0.32897 0.0
C562 C 0.81713 0.61779 0.33017 0.0
C563 C 0.81772 0.62738 0.32414 0.0
C564 C 0.81982 0.61804 0.34116 0.0
C565 C 0.82303 0.62768 0.34601 0.0
U566 U 0.84287 0.66158 0.34294 0.0
O567 O 0.83952 0.67838 0.34691 0.0
O568 O 0.84975 0.66884 0.35757 0.0
C569 C 0.84458 0.67785 0.3562 0.0
C570 C 0.82721 0.6473 0.34534 0.0
C571 C 0.83841 0.68135 0.36557 0.0
C572 C 0.82299 0.67936 0.37748 0.0
C573 C 0.82867 0.67617 0.36838 0.0
C574 C 0.83674 0.69297 0.38106 0.0
C575 C 0.82698 0.68777 0.38398 0.0
C576 C 0.8424 0.68978 0.37194 0.0
C577 C 0.86685 0.66514 0.32382 0.0
C578 C 0.8768 0.68172 0.31981 0.0
C579 C 0.88535 0.66457 0.31751 0.0
C580 C 0.8759 0.65928 0.32089 0.0
C581 C 0.88594 0.67587 0.31691 0.0
C582 C 0.86737 0.67641 0.32329 0.0
C583 C 0.85708 0.65931 0.32755 0.0
O584 O 0.83635 0.64686 0.35066 0.0
O585 O 0.82616 0.65628 0.33983 0.0
O586 O 0.84786 0.66417 0.32614 0.0
O587 O 0.85788 0.6546 0.33701 0.0
H588 H 0.82151 0.64424 0.32408 0.0
H589 H 0.81579 0.6274 0.31563 0.0
H590 H 0.81933 0.6108 0.34603 0.0
H591 H 0.82499 0.62766 0.35451 0.0
H592 H 0.81543 0.67528 0.37939 0.0
H593 H 0.82548 0.66962 0.36354 0.0
H594 H 0.84012 0.69937 0.38595 0.0
H595 H 0.84995 0.69383 0.36991 0.0
H596 H 0.87689 0.69041 0.31933 0.0
H597 H 0.89227 0.65979 0.31555 0.0
H598 H 0.87569 0.65058 0.32132 0.0
H599 H 0.86051 0.68113 0.32556 0.0
C600 C 0.8409 0.36533 0.32185 0.0
C601 C 0.83031 0.36477 0.3178 0.0
C602 C 0.83003 0.38426 0.31595 0.0
C603 C 0.82495 0.37413 0.31486 0.0
C604 C 0.84062 0.38481 0.31997 0.0
C605 C 0.846 0.37545 0.32282 0.0
U606 U 0.84604 0.34098 0.34021 0.0
O607 O 0.85011 0.32438 0.33612 0.0
O608 O 0.86134 0.33422 0.34571 0.0
C609 C 0.85974 0.32517 0.34051 0.0
C610 C 0.84684 0.35551 0.32478 0.0
C611 C 0.8687 0.3218 0.33368 0.0
C612 C 0.88098 0.32497 0.3187 0.0
C613 C 0.87247 0.32833 0.32517 0.0
C614 C 0.88201 0.30851 0.32916 0.0
C615 C 0.88583 0.315 0.3206 0.0
C616 C 0.87353 0.3119 0.33564 0.0
C617 C 0.82827 0.33653 0.36529 0.0
C618 C 0.82413 0.31987 0.37494 0.0
C619 C 0.82231 0.33695 0.38391 0.0
C620 C 0.82566 0.34231 0.37453 0.0
C621 C 0.82142 0.32566 0.38423 0.0
C622 C 0.82756 0.32525 0.36558 0.0
C623 C 0.83151 0.34248 0.35545 0.0
O624 O 0.85279 0.3561 0.33352 0.0
O625 O 0.84157 0.34627 0.32391 0.0
O626 O 0.82965 0.33766 0.34623 0.0
O627 O 0.84096 0.34744 0.35583 0.0
H628 H 0.82613 0.35711 0.31688 0.0
H629 H 0.81676 0.37345 0.31188 0.0
H630 H 0.8448 0.39249 0.32076 0.0
H631 H 0.85421 0.37614 0.32578 0.0
H632 H 0.88363 0.33009 0.3121 0.0
H633 H 0.8688 0.33599 0.32352 0.0
H634 H 0.88564 0.30086 0.33093 0.0
H635 H 0.87073 0.30677 0.34219 0.0
H636 H 0.82344 0.31119 0.37484 0.0
H637 H 0.82053 0.34168 0.39094 0.0
H638 H 0.8262 0.35101 0.37449 0.0
H639 H 0.82956 0.32059 0.35856 0.0
C640 C 0.66559 0.13478 0.68173 0.0
C641 C 0.66598 0.12532 0.67562 0.0
C642 C 0.67721 0.11687 0.68928 0.0
C643 C 0.67172 0.11647 0.67937 0.0
C644 C 0.6768 0.12636 0.69535 0.0
C645 C 0.67102 0.13516 0.69164 0.0
U646 U 0.66059 0.15856 0.66256 0.0
O647 O 0.6455 0.16489 0.65605 0.0
O648 O 0.65579 0.17505 0.66636 0.0
C649 C 0.6465 0.17397 0.66135 0.0
C650 C 0.65938 0.14419 0.67811 0.0
C651 C 0.63696 0.17737 0.66741 0.0
C652 C 0.62029 0.17334 0.67705 0.0
C653 C 0.62954 0.16987 0.67177 0.0
C654 C 0.62594 0.19185 0.67399 0.0
C655 C 0.61835 0.18438 0.67815 0.0
C656 C 0.63513 0.18837 0.66865 0.0
C657 C 0.67954 0.16407 0.63888 0.0
C658 C 0.67626 0.17809 0.62564 0.0
C659 C 0.69305 0.1685 0.62535 0.0
C660 C 0.68963 0.16237 0.63423 0.0
C661 C 0.68642 0.17646 0.62094 0.0
C662 C 0.67287 0.17196 0.63455 0.0
C663 C 0.67618 0.15766 0.64833 0.0
O664 O 0.66426 0.1536 0.67918 0.0
O665 O 0.65402 0.14327 0.66901 0.0
O666 O 0.66697 0.15234 0.64737 0.0
O667 O 0.67724 0.16252 0.65764 0.0
H668 H 0.66183 0.12471 0.66798 0.0
H669 H 0.67171 0.10926 0.67454 0.0
H670 H 0.68106 0.12705 0.70293 0.0
H671 H 0.67081 0.14232 0.69655 0.0
H672 H 0.61465 0.1674 0.68028 0.0
H673 H 0.63082 0.16132 0.67101 0.0
H674 H 0.62464 0.2004 0.67461 0.0
H675 H 0.64076 0.19429 0.66534 0.0
H676 H 0.67089 0.18405 0.62239 0.0
H677 H 0.70098 0.16713 0.62206 0.0
H678 H 0.69491 0.15634 0.63751 0.0
H679 H 0.66504 0.17339 0.63806 0.0
C680 C 0.32853 0.16791 0.63498 0.0
C681 C 0.33411 0.17706 0.63112 0.0
C682 C 0.32068 0.17926 0.61698 0.0
C683 C 0.33021 0.18271 0.62219 0.0
C684 C 0.31517 0.17004 0.62091 0.0
C685 C 0.31907 0.16443 0.62982 0.0
U686 U 0.34837 0.1638 0.65813 0.0
O687 O 0.34531 0.1594 0.67501 0.0
O688 O 0.35468 0.1487 0.66481 0.0
C689 C 0.34977 0.14996 0.67407 0.0
C690 C 0.33232 0.16199 0.64446 0.0
C691 C 0.34326 0.14069 0.67795 0.0
C692 C 0.32591 0.13216 0.68194 0.0
C693 C 0.33195 0.14078 0.67767 0.0
C694 C 0.34239 0.12301 0.6864 0.0
C695 C 0.33107 0.12323 0.68643 0.0
C696 C 0.34843 0.1317 0.68223 0.0
C697 C 0.37211 0.18294 0.66255 0.0
C698 C 0.38445 0.18015 0.67745 0.0
C699 C 0.38572 0.19653 0.66682 0.0
C700 C 0.37713 0.1929 0.66042 0.0
C701 C 0.38943 0.19023 0.67546 0.0
C702 C 0.37584 0.17655 0.67106 0.0
C703 C 0.36269 0.17949 0.6562 0.0
O704 O 0.34148 0.15701 0.64329 0.0
O705 O 0.33162 0.1671 0.65364 0.0
O706 O 0.35339 0.18055 0.66107 0.0
O707 O 0.36354 0.17024 0.65127 0.0
H708 H 0.34144 0.17985 0.63503 0.0
H709 H 0.33467 0.18972 0.61931 0.0
H710 H 0.30772 0.16727 0.61723 0.0
H711 H 0.31464 0.15741 0.63275 0.0
H712 H 0.31719 0.13247 0.68173 0.0
H713 H 0.32776 0.14757 0.67429 0.0
H714 H 0.34658 0.11627 0.68987 0.0
H715 H 0.35715 0.13146 0.6825 0.0
H716 H 0.38701 0.17516 0.68412 0.0
H717 H 0.38946 0.20427 0.66501 0.0
H718 H 0.37433 0.19794 0.65389 0.0
H719 H 0.37198 0.16886 0.67287 0.0
C720 C 0.33191 0.8444 0.63895 0.0
C721 C 0.33425 0.83343 0.63847 0.0
C722 C 0.32572 0.83217 0.6208 0.0
C723 C 0.33115 0.82737 0.6295 0.0
C724 C 0.32356 0.84322 0.62129 0.0
C725 C 0.32661 0.84926 0.63029 0.0
U726 U 0.34958 0.84984 0.66358 0.0
O727 O 0.35588 0.8651 0.67012 0.0
O728 O 0.34513 0.8548 0.67991 0.0
C729 C 0.35027 0.8641 0.67906 0.0
C730 C 0.33485 0.85085 0.64845 0.0
C731 C 0.34403 0.8735 0.68215 0.0
C732 C 0.32981 0.88623 0.67872 0.0
C733 C 0.33586 0.87744 0.67548 0.0
C734 C 0.34009 0.88723 0.69528 0.0
C735 C 0.33182 0.89121 0.68869 0.0
C736 C 0.34612 0.87847 0.69203 0.0
C737 C 0.37276 0.83066 0.67011 0.0
C738 C 0.39162 0.83194 0.67557 0.0
C739 C 0.38017 0.81759 0.68264 0.0
C740 C 0.37151 0.82148 0.67666 0.0
C741 C 0.39037 0.82273 0.68212 0.0
C742 C 0.38293 0.83585 0.66963 0.0
C743 C 0.36361 0.83431 0.66342 0.0
O744 O 0.33318 0.84617 0.65783 0.0
O745 O 0.34415 0.85606 0.64787 0.0
O746 O 0.36498 0.84339 0.65806 0.0
O747 O 0.35397 0.83328 0.66775 0.0
H748 H 0.33838 0.82953 0.64507 0.0
H749 H 0.33284 0.81887 0.6295 0.0
H750 H 0.31958 0.84724 0.61468 0.0
H751 H 0.3248 0.85773 0.63049 0.0
H752 H 0.32361 0.88915 0.67338 0.0
H753 H 0.33413 0.87369 0.66782 0.0
H754 H 0.34175 0.89074 0.70307 0.0
H755 H 0.35237 0.87549 0.6973 0.0
H756 H 0.39938 0.83601 0.67484 0.0
H757 H 0.37884 0.81058 0.68771 0.0
H758 H 0.36381 0.81723 0.67713 0.0
H759 H 0.38425 0.84287 0.66456 0.0
C760 C 0.6369 0.82744 0.6605 0.0
C761 C 0.63689 0.8289 0.67169 0.0
C762 C 0.61954 0.81946 0.67311 0.0
C763 C 0.62833 0.8249 0.67794 0.0
C764 C 0.61949 0.81826 0.66184 0.0
C765 C 0.62811 0.82219 0.65561 0.0
U766 U 0.66051 0.8468 0.6561 0.0
O767 O 0.6771 0.84399 0.6509 0.0
O768 O 0.6668 0.85456 0.64133 0.0
C769 C 0.67602 0.84957 0.64195 0.0
C770 C 0.64606 0.8313 0.65391 0.0
C771 C 0.6795 0.84417 0.63211 0.0
C772 C 0.68001 0.82838 0.62073 0.0
C773 C 0.67604 0.83363 0.62979 0.0
C774 C 0.69065 0.84428 0.61607 0.0
C775 C 0.68744 0.83362 0.61382 0.0
C776 C 0.68673 0.84948 0.62514 0.0
C777 C 0.66573 0.86828 0.67754 0.0
C778 C 0.68015 0.88175 0.67641 0.0
C779 C 0.66955 0.87989 0.69272 0.0
C780 C 0.66347 0.87161 0.68802 0.0
C781 C 0.67801 0.88501 0.68701 0.0
C782 C 0.67407 0.87341 0.67172 0.0
C783 C 0.65946 0.85927 0.673 0.0
O784 O 0.64501 0.84086 0.64952 0.0
O785 O 0.65564 0.82985 0.65816 0.0
O786 O 0.6643 0.84998 0.67308 0.0
O787 O 0.65438 0.86124 0.66393 0.0
H788 H 0.64358 0.833 0.67563 0.0
H789 H 0.62874 0.82586 0.68658 0.0
H790 H 0.61279 0.8143 0.65782 0.0
H791 H 0.62794 0.82109 0.64697 0.0
H792 H 0.67729 0.82022 0.61915 0.0
H793 H 0.67042 0.82941 0.63507 0.0
H794 H 0.69647 0.84849 0.611 0.0
H795 H 0.6895 0.85761 0.62683 0.0
H796 H 0.68667 0.88548 0.67185 0.0
H797 H 0.66759 0.88232 0.70083 0.0
H798 H 0.65704 0.86775 0.69261 0.0
H799 H 0.67594 0.87088 0.66362 0.0
C800 C 0.63789 0.82935 0.33943 0.0
C801 C 0.63681 0.83321 0.32886 0.0
C802 C 0.61935 0.82404 0.32724 0.0
C803 C 0.62766 0.83054 0.3228 0.0
C804 C 0.62043 0.82031 0.33791 0.0
C805 C 0.62963 0.82293 0.34394 0.0
U806 U 0.6622 0.84747 0.34479 0.0
O807 O 0.66928 0.85332 0.35993 0.0
O808 O 0.67891 0.84358 0.34902 0.0
C809 C 0.67824 0.84802 0.35856 0.0
C810 C 0.64754 0.83202 0.34581 0.0
C811 C 0.68195 0.84139 0.36772 0.0
C812 C 0.67969 0.83411 0.38584 0.0
C813 C 0.67587 0.84024 0.37722 0.0
C814 C 0.69568 0.83009 0.37561 0.0
C815 C 0.68965 0.82895 0.38514 0.0
C816 C 0.69191 0.83629 0.36704 0.0
C817 C 0.66699 0.87205 0.32682 0.0
C818 C 0.68341 0.88299 0.32758 0.0
C819 C 0.66787 0.88939 0.31781 0.0
C820 C 0.66215 0.87998 0.32053 0.0
C821 C 0.67855 0.89103 0.32134 0.0
C822 C 0.67766 0.87359 0.33035 0.0
C823 C 0.66071 0.86237 0.32986 0.0
O824 O 0.65678 0.83108 0.34076 0.0
O825 O 0.647 0.84087 0.35148 0.0
O826 O 0.65577 0.86287 0.33919 0.0
O827 O 0.66546 0.85317 0.3283 0.0
H828 H 0.64309 0.83823 0.32526 0.0
H829 H 0.62719 0.83344 0.31458 0.0
H830 H 0.61413 0.81544 0.34166 0.0
H831 H 0.6303 0.81996 0.35212 0.0
H832 H 0.67489 0.83355 0.3931 0.0
H833 H 0.66818 0.84412 0.37804 0.0
H834 H 0.7033 0.8261 0.3747 0.0
H835 H 0.69678 0.83708 0.35983 0.0
H836 H 0.69158 0.88407 0.33051 0.0
H837 H 0.66394 0.89538 0.3129 0.0
H838 H 0.65392 0.87892 0.31776 0.0
H839 H 0.68149 0.86756 0.3353 0.0
C840 C 0.63519 0.16313 0.33003 0.0
C841 C 0.63454 0.17399 0.33285 0.0
C842 C 0.61706 0.17516 0.32395 0.0
C843 C 0.62559 0.17996 0.32981 0.0
C844 C 0.6177 0.1642 0.32133 0.0
C845 C 0.62669 0.15827 0.32432 0.0
U846 U 0.65992 0.15795 0.3475 0.0
O847 O 0.66665 0.14281 0.35343 0.0
O848 O 0.67629 0.15334 0.34275 0.0
C849 C 0.67549 0.14398 0.34766 0.0
C850 C 0.64474 0.15684 0.3328 0.0
C851 C 0.67873 0.13462 0.34129 0.0
C852 C 0.67463 0.1177 0.33232 0.0
C853 C 0.67121 0.12675 0.33791 0.0
C854 C 0.69306 0.12444 0.3331 0.0
C855 C 0.6856 0.11642 0.32992 0.0
C856 C 0.68965 0.13342 0.33876 0.0
C857 C 0.66641 0.17645 0.37116 0.0
C858 C 0.6807 0.17286 0.384 0.0
C859 C 0.6713 0.18971 0.38463 0.0
C860 C 0.66494 0.18648 0.3759 0.0
C861 C 0.67927 0.18295 0.38881 0.0
C862 C 0.67434 0.16965 0.37523 0.0
C863 C 0.65963 0.17321 0.36197 0.0
O864 O 0.6541 0.16176 0.33125 0.0
O865 O 0.64422 0.1515 0.34195 0.0
O866 O 0.65439 0.16399 0.36309 0.0
O867 O 0.66407 0.17447 0.35244 0.0
H868 H 0.64102 0.1779 0.33729 0.0
H869 H 0.62546 0.18839 0.33186 0.0
H870 H 0.61122 0.16018 0.317 0.0
H871 H 0.62702 0.14987 0.32213 0.0
H872 H 0.66868 0.11172 0.32987 0.0
H873 H 0.66272 0.12752 0.33968 0.0
H874 H 0.70157 0.12364 0.33148 0.0
H875 H 0.69558 0.13939 0.34129 0.0
H876 H 0.68666 0.16739 0.38707 0.0
H877 H 0.67008 0.19759 0.38801 0.0
H878 H 0.65888 0.19185 0.37282 0.0
H879 H 0.67559 0.16186 0.37166 0.0
C880 C 0.32182 0.13836 0.3437 0.0
C881 C 0.3288 0.13061 0.33969 0.0
C882 C 0.31355 0.12054 0.33216 0.0
C883 C 0.3247 0.12176 0.33403 0.0
C884 C 0.30662 0.12837 0.33619 0.0
C885 C 0.31072 0.13716 0.34193 0.0
U886 U 0.34284 0.16075 0.34766 0.0
O887 O 0.34086 0.17777 0.35165 0.0
O888 O 0.34999 0.16733 0.36248 0.0
C889 C 0.34577 0.17681 0.36097 0.0
C890 C 0.32596 0.14785 0.34955 0.0
C891 C 0.34007 0.18118 0.37027 0.0
C892 C 0.32426 0.18207 0.38172 0.0
C893 C 0.32956 0.17771 0.37287 0.0
C894 C 0.33999 0.19327 0.38548 0.0
C895 C 0.32942 0.18991 0.38813 0.0
C896 C 0.34526 0.18895 0.37663 0.0
C897 C 0.36709 0.16301 0.32878 0.0
C898 C 0.37753 0.17904 0.32379 0.0
C899 C 0.38584 0.1616 0.32339 0.0
C900 C 0.37615 0.15676 0.32679 0.0
C901 C 0.38662 0.17279 0.32183 0.0
C902 C 0.36787 0.17421 0.3273 0.0
C903 C 0.35697 0.15767 0.33237 0.0
O904 O 0.33492 0.14656 0.35503 0.0
O905 O 0.32579 0.15695 0.34414 0.0
O906 O 0.34808 0.16308 0.33091 0.0
O907 O 0.35737 0.15279 0.34177 0.0
H908 H 0.33743 0.1314 0.3409 0.0
H909 H 0.33029 0.11584 0.33119 0.0
H910 H 0.29802 0.12783 0.33474 0.0
H911 H 0.30521 0.1431 0.34489 0.0
H912 H 0.31616 0.17924 0.3836 0.0
H913 H 0.32547 0.17166 0.36806 0.0
H914 H 0.34414 0.19941 0.39014 0.0
H915 H 0.35337 0.19172 0.37472 0.0
H916 H 0.37795 0.18769 0.32278 0.0
H917 H 0.39268 0.15658 0.32185 0.0
H918 H 0.37572 0.14812 0.32786 0.0
H919 H 0.36104 0.17924 0.32886 0.0
C920 C 0.33897 0.86881 0.3286 0.0
C921 C 0.32846 0.86795 0.32439 0.0
C922 C 0.32785 0.88739 0.32209 0.0
C923 C 0.32297 0.87715 0.32115 0.0
C924 C 0.33834 0.88823 0.32633 0.0
C925 C 0.34384 0.87904 0.32949 0.0
U926 U 0.34447 0.84405 0.34648 0.0
O927 O 0.3498 0.82794 0.34207 0.0
O928 O 0.35997 0.83808 0.35249 0.0
C929 C 0.35919 0.82919 0.34686 0.0
C930 C 0.34518 0.85919 0.33164 0.0
C931 C 0.36883 0.82638 0.34057 0.0
C932 C 0.37756 0.82183 0.32371 0.0
C933 C 0.3684 0.82493 0.32937 0.0
C934 C 0.3878 0.8218 0.34031 0.0
C935 C 0.38738 0.82017 0.32911 0.0
C936 C 0.37862 0.82481 0.34596 0.0
C937 C 0.32614 0.83692 0.37029 0.0
C938 C 0.33087 0.82447 0.38462 0.0
C939 C 0.31231 0.82968 0.3823 0.0
C940 C 0.31535 0.83623 0.37358 0.0
C941 C 0.32003 0.82371 0.38795 0.0
C942 C 0.33389 0.83097 0.37585 0.0
C943 C 0.32913 0.8438 0.36102 0.0
O944 O 0.35057 0.8598 0.34074 0.0
O945 O 0.34046 0.84975 0.33019 0.0
O946 O 0.32803 0.83931 0.35153 0.0
O947 O 0.33814 0.84945 0.362 0.0
H948 H 0.32447 0.86018 0.32354 0.0
H949 H 0.31486 0.87625 0.318 0.0
H950 H 0.34237 0.89599 0.32703 0.0
H951 H 0.35198 0.87994 0.33257 0.0
H952 H 0.37688 0.82054 0.31513 0.0
H953 H 0.36097 0.82608 0.32497 0.0
H954 H 0.39524 0.82081 0.34472 0.0
H955 H 0.37916 0.8259 0.35459 0.0
H956 H 0.33706 0.8201 0.38884 0.0
H957 H 0.30387 0.82917 0.38449 0.0
H958 H 0.30924 0.84071 0.36934 0.0
H959 H 0.34227 0.83137 0.37342 0.0
C960 C 0.66523 0.63607 0.18251 0.0
C961 C 0.66355 0.62581 0.17804 0.0
C962 C 0.67731 0.61838 0.18979 0.0
C963 C 0.66952 0.61706 0.18165 0.0
C964 C 0.67886 0.62859 0.19436 0.0
C965 C 0.67285 0.6373 0.19082 0.0
U966 U 0.66033 0.65969 0.16319 0.0
O967 O 0.64527 0.66643 0.15692 0.0
O968 O 0.65622 0.67637 0.16674 0.0
C969 C 0.64672 0.67555 0.16209 0.0
C970 C 0.65893 0.64543 0.17883 0.0
C971 C 0.6375 0.67957 0.16839 0.0
C972 C 0.61847 0.67908 0.17327 0.0
C973 C 0.62712 0.6749 0.16752 0.0
C974 C 0.63039 0.69268 0.18083 0.0
C975 C 0.62003 0.68799 0.18002 0.0
C976 C 0.639 0.68856 0.17504 0.0
C977 C 0.68012 0.66513 0.13988 0.0
C978 C 0.67885 0.67125 0.12124 0.0
C979 C 0.69375 0.67736 0.13236 0.0
C980 C 0.68972 0.67121 0.14096 0.0
C981 C 0.68835 0.67748 0.12242 0.0
C982 C 0.67476 0.66515 0.12989 0.0
C983 C 0.67607 0.65865 0.14914 0.0
O984 O 0.66371 0.65489 0.17988 0.0
O985 O 0.65366 0.64444 0.16969 0.0
O986 O 0.66675 0.65354 0.14795 0.0
O987 O 0.67716 0.66314 0.15863 0.0
H988 H 0.65765 0.62453 0.17173 0.0
H989 H 0.66818 0.60931 0.17794 0.0
H990 H 0.68466 0.62982 0.20078 0.0
H991 H 0.6742 0.64503 0.19459 0.0
H992 H 0.61059 0.67526 0.17253 0.0
H993 H 0.62564 0.66804 0.16238 0.0
H994 H 0.63182 0.69966 0.18583 0.0
H995 H 0.64684 0.69247 0.17573 0.0
H996 H 0.67449 0.67123 0.11369 0.0
H997 H 0.70118 0.68195 0.13346 0.0
H998 H 0.69414 0.67121 0.14849 0.0
H999 H 0.66739 0.66049 0.12873 0.0
C1000 C 0.33022 0.66659 0.13199 0.0
C1001 C 0.33213 0.67774 0.13225 0.0
C1002 C 0.32279 0.67983 0.11516 0.0
C1003 C 0.32839 0.68431 0.12394 0.0
C1004 C 0.32119 0.66863 0.11476 0.0
C1005 C 0.32484 0.66206 0.12314 0.0
U1006 U 0.34883 0.66168 0.15557 0.0
O1007 O 0.34533 0.65641 0.17215 0.0
O1008 O 0.35604 0.64697 0.162 0.0
C1009 C 0.35095 0.64763 0.17124 0.0
C1010 C 0.33362 0.65972 0.14102 0.0
C1011 C 0.34569 0.63772 0.17528 0.0
C1012 C 0.33459 0.6216 0.17279 0.0
C1013 C 0.33931 0.63109 0.16864 0.0
C1014 C 0.34244 0.62547 0.19024 0.0
C1015 C 0.33618 0.61864 0.18363 0.0
C1016 C 0.34715 0.63488 0.18609 0.0
C1017 C 0.37099 0.68236 0.16168 0.0
C1018 C 0.37896 0.68548 0.17929 0.0
C1019 C 0.38841 0.69149 0.16321 0.0
C1020 C 0.37999 0.6874 0.15687 0.0
C1021 C 0.38792 0.69069 0.17449 0.0
C1022 C 0.37061 0.68129 0.17294 0.0
C1023 C 0.36205 0.67838 0.15489 0.0
O1024 O 0.34312 0.65535 0.13999 0.0
O1025 O 0.33202 0.66373 0.15063 0.0
O1026 O 0.3524 0.6786 0.15926 0.0
O1027 O 0.36384 0.66946 0.14966 0.0
H1028 H 0.33639 0.68139 0.13895 0.0
H1029 H 0.32987 0.6929 0.12439 0.0
H1030 H 0.31686 0.66497 0.10811 0.0
H1031 H 0.32334 0.65346 0.12279 0.0
H1032 H 0.32986 0.61651 0.16748 0.0
H1033 H 0.33805 0.6332 0.16026 0.0
H1034 H 0.34364 0.62358 0.19867 0.0
H1035 H 0.35197 0.63996 0.19135 0.0
H1036 H 0.37844 0.68463 0.18796 0.0
H1037 H 0.39518 0.69552 0.15931 0.0
H1038 H 0.38044 0.68826 0.14819 0.0
H1039 H 0.36381 0.6773 0.17685 0.0
C1040 C 0.32707 0.34146 0.13953 0.0
C1041 C 0.33219 0.33206 0.13631 0.0
C1042 C 0.3195 0.33001 0.12142 0.0
C1043 C 0.32844 0.32638 0.12731 0.0
C1044 C 0.31447 0.33947 0.1247 0.0
C1045 C 0.31822 0.34512 0.13367 0.0
U1046 U 0.34633 0.34644 0.16325 0.0
O1047 O 0.3529 0.36182 0.16937 0.0
O1048 O 0.34277 0.35146 0.17976 0.0
C1049 C 0.34765 0.36087 0.17852 0.0
C1050 C 0.33077 0.34757 0.14896 0.0
C1051 C 0.34149 0.37032 0.18182 0.0
C1052 C 0.3245 0.3791 0.18527 0.0
C1053 C 0.33017 0.37026 0.18154 0.0
C1054 C 0.34138 0.38833 0.18926 0.0
C1055 C 0.33003 0.38821 0.1893 0.0
C1056 C 0.34703 0.37946 0.1856 0.0
C1057 C 0.36965 0.32754 0.16874 0.0
C1058 C 0.3825 0.33042 0.18327 0.0
C1059 C 0.38301 0.3141 0.17279 0.0
C1060 C 0.37433 0.31764 0.16661 0.0
C1061 C 0.38717 0.32042 0.18123 0.0
C1062 C 0.37378 0.33394 0.17709 0.0
C1063 C 0.36032 0.33092 0.16235 0.0
O1064 O 0.32967 0.34264 0.1583 0.0
O1065 O 0.34009 0.35268 0.1479 0.0
O1066 O 0.36152 0.34007 0.15708 0.0
O1067 O 0.35095 0.32991 0.1672 0.0
H1068 H 0.33904 0.32911 0.14078 0.0
H1069 H 0.33245 0.31909 0.12504 0.0
H1070 H 0.30771 0.34262 0.12025 0.0
H1071 H 0.31422 0.3524 0.13602 0.0
H1072 H 0.31578 0.37865 0.18528 0.0
H1073 H 0.32569 0.36333 0.1786 0.0
H1074 H 0.34593 0.39526 0.19209 0.0
H1075 H 0.35576 0.3797 0.18582 0.0
H1076 H 0.38543 0.33543 0.18978 0.0
H1077 H 0.3865 0.30644 0.17091 0.0
H1078 H 0.37124 0.3126 0.16018 0.0
H1079 H 0.37021 0.34159 0.17889 0.0
C1080 C 0.63271 0.32715 0.16209 0.0
C1081 C 0.62831 0.33293 0.17062 0.0
C1082 C 0.61571 0.31813 0.17443 0.0
C1083 C 0.61984 0.32848 0.17673 0.0
C1084 C 0.62005 0.31248 0.16574 0.0
C1085 C 0.62848 0.31696 0.15963 0.0
U1086 U 0.65575 0.34751 0.15871 0.0
O1087 O 0.67274 0.34494 0.15459 0.0
O1088 O 0.66278 0.35511 0.14423 0.0
C1089 C 0.672 0.3502 0.14541 0.0
C1090 C 0.64208 0.33138 0.15608 0.0
C1091 C 0.67618 0.34454 0.13594 0.0
C1092 C 0.67364 0.336 0.11855 0.0
C1093 C 0.66947 0.34156 0.1273 0.0
C1094 C 0.69125 0.33625 0.12696 0.0
C1095 C 0.68458 0.3332 0.11829 0.0
C1096 C 0.6871 0.34189 0.13565 0.0
C1097 C 0.65958 0.36968 0.17944 0.0
C1098 C 0.67423 0.38287 0.17822 0.0
C1099 C 0.66305 0.38191 0.19419 0.0
C1100 C 0.657 0.37351 0.18966 0.0
C1101 C 0.6718 0.38662 0.18857 0.0
C1102 C 0.66818 0.37443 0.1737 0.0
C1103 C 0.65351 0.36043 0.17511 0.0
O1104 O 0.64091 0.34082 0.15144 0.0
O1105 O 0.65135 0.33048 0.1611 0.0
O1106 O 0.65847 0.35123 0.17577 0.0
O1107 O 0.64879 0.36197 0.16576 0.0
H1108 H 0.63156 0.3408 0.17268 0.0
H1109 H 0.61675 0.33299 0.18343 0.0
H1110 H 0.61695 0.30456 0.16368 0.0
H1111 H 0.6318 0.31238 0.15307 0.0
H1112 H 0.66828 0.33393 0.11196 0.0
H1113 H 0.66099 0.34347 0.12732 0.0
H1114 H 0.69965 0.33408 0.12718 0.0
H1115 H 0.69241 0.34407 0.14224 0.0
H1116 H 0.68098 0.38627 0.17373 0.0
H1117 H 0.66088 0.38472 0.20212 0.0
H1118 H 0.65038 0.36992 0.19419 0.0
H1119 H 0.67032 0.37149 0.16581 0.0
C1120 C 0.63432 0.32834 0.84176 0.0
C1121 C 0.625 0.33452 0.84085 0.0
C1122 C 0.61673 0.32116 0.82901 0.0
C1123 C 0.6163 0.33095 0.83457 0.0
C1124 C 0.62604 0.31497 0.83002 0.0
C1125 C 0.6347 0.31849 0.83637 0.0
U1126 U 0.65764 0.34813 0.84689 0.0
O1127 O 0.6641 0.35487 0.86195 0.0
O1128 O 0.67441 0.34524 0.8516 0.0
C1129 C 0.67342 0.35018 0.86085 0.0
C1130 C 0.64374 0.33202 0.84817 0.0
C1131 C 0.6772 0.34423 0.87032 0.0
C1132 C 0.67649 0.32861 0.88217 0.0
C1133 C 0.67269 0.33417 0.87315 0.0
C1134 C 0.68929 0.34314 0.88562 0.0
C1135 C 0.68488 0.33302 0.88849 0.0
C1136 C 0.68549 0.34868 0.87662 0.0
C1137 C 0.66207 0.37183 0.82777 0.0
C1138 C 0.67625 0.3852 0.83083 0.0
C1139 C 0.66613 0.38537 0.81414 0.0
C1140 C 0.66005 0.37646 0.81768 0.0
C1141 C 0.67434 0.38981 0.82065 0.0
C1142 C 0.67018 0.37626 0.83435 0.0
C1143 C 0.6559 0.36221 0.83119 0.0
O1144 O 0.65314 0.33132 0.84338 0.0
O1145 O 0.64271 0.34099 0.85357 0.0
O1146 O 0.65077 0.36299 0.8404 0.0
O1147 O 0.66097 0.35312 0.83018 0.0
H1148 H 0.62441 0.34214 0.84494 0.0
H1149 H 0.6092 0.33586 0.83414 0.0
H1150 H 0.62676 0.30747 0.82574 0.0
H1151 H 0.64177 0.31355 0.83696 0.0
H1152 H 0.67297 0.3208 0.8841 0.0
H1153 H 0.66626 0.33063 0.86835 0.0
H1154 H 0.69561 0.34687 0.89041 0.0
H1155 H 0.68902 0.35646 0.87457 0.0
H1156 H 0.6826 0.38835 0.83598 0.0
H1157 H 0.66439 0.38881 0.80631 0.0
H1158 H 0.65381 0.37312 0.81251 0.0
H1159 H 0.6719 0.37272 0.84214 0.0
C1160 C 0.63906 0.66476 0.82929 0.0
C1161 C 0.63635 0.67463 0.83385 0.0
C1162 C 0.62077 0.67578 0.82193 0.0
C1163 C 0.62727 0.68009 0.83021 0.0
C1164 C 0.62348 0.6658 0.81754 0.0
C1165 C 0.63254 0.66037 0.82118 0.0
U1166 U 0.6631 0.66025 0.84817 0.0
O1167 O 0.67005 0.64507 0.8538 0.0
O1168 O 0.67982 0.65637 0.8441 0.0
C1169 C 0.67905 0.64669 0.84838 0.0
C1170 C 0.64875 0.65902 0.83266 0.0
C1171 C 0.68273 0.63773 0.84156 0.0
C1172 C 0.68215 0.61883 0.83652 0.0
C1173 C 0.67845 0.62724 0.84285 0.0
C1174 C 0.69456 0.63115 0.82753 0.0
C1175 C 0.69022 0.6207 0.82875 0.0
C1176 C 0.69091 0.63954 0.83389 0.0
C1177 C 0.66814 0.67824 0.87248 0.0
C1178 C 0.68245 0.67494 0.88538 0.0
C1179 C 0.67245 0.69143 0.88622 0.0
C1180 C 0.66626 0.68811 0.87739 0.0
C1181 C 0.68065 0.6849 0.89032 0.0
C1182 C 0.67626 0.67165 0.87652 0.0
C1183 C 0.66172 0.67503 0.86304 0.0
O1184 O 0.65789 0.66446 0.83179 0.0
O1185 O 0.64792 0.65349 0.84168 0.0
O1186 O 0.65679 0.66561 0.86372 0.0
O1187 O 0.66643 0.67674 0.85369 0.0
H1188 H 0.64132 0.67813 0.84014 0.0
H1189 H 0.62545 0.68778 0.83372 0.0
H1190 H 0.61856 0.66213 0.81131 0.0
H1191 H 0.63449 0.65273 0.8176 0.0
H1192 H 0.67859 0.61087 0.8376 0.0
H1193 H 0.67223 0.62551 0.84876 0.0
H1194 H 0.70091 0.63282 0.82174 0.0
H1195 H 0.69454 0.64747 0.83282 0.0
H1196 H 0.68859 0.66964 0.88839 0.0
H1197 H 0.67094 0.69921 0.88969 0.0
H1198 H 0.66005 0.69332 0.87433 0.0
H1199 H 0.67784 0.664 0.87281 0.0
C1200 C 0.32637 0.63606 0.84235 0.0
C1201 C 0.33239 0.63163 0.83398 0.0
C1202 C 0.31755 0.61918 0.82992 0.0
C1203 C 0.32802 0.62322 0.82783 0.0
C1204 C 0.31164 0.62359 0.83842 0.0
C1205 C 0.31602 0.63196 0.84457 0.0
U1206 U 0.34743 0.65822 0.84729 0.0
O1207 O 0.34537 0.67508 0.85169 0.0
O1208 O 0.35406 0.66433 0.86261 0.0
C1209 C 0.34971 0.67379 0.86126 0.0
C1210 C 0.33062 0.64514 0.84863 0.0
C1211 C 0.34332 0.67772 0.87035 0.0
C1212 C 0.32602 0.68154 0.87848 0.0
C1213 C 0.33201 0.67711 0.87015 0.0
C1214 C 0.34257 0.6868 0.88757 0.0
C1215 C 0.33124 0.68654 0.88722 0.0
C1216 C 0.34856 0.68246 0.87917 0.0
C1217 C 0.37123 0.66213 0.82802 0.0
C1218 C 0.38886 0.67038 0.8313 0.0
C1219 C 0.38076 0.67159 0.81361 0.0
C1220 C 0.37181 0.66565 0.81729 0.0
C1221 C 0.38941 0.67405 0.82056 0.0
C1222 C 0.37984 0.66452 0.83501 0.0
C1223 C 0.36146 0.65621 0.83171 0.0
O1224 O 0.33971 0.64348 0.85377 0.0
O1225 O 0.33041 0.65451 0.8437 0.0
O1226 O 0.35241 0.66139 0.83057 0.0
O1227 O 0.36212 0.65098 0.84093 0.0
H1228 H 0.34039 0.63476 0.83214 0.0
H1229 H 0.33274 0.62006 0.82129 0.0
H1230 H 0.30362 0.62056 0.84033 0.0
H1231 H 0.31128 0.63528 0.85101 0.0
H1232 H 0.31731 0.68111 0.87807 0.0
H1233 H 0.32779 0.67338 0.86348 0.0
H1234 H 0.3468 0.69065 0.89417 0.0
H1235 H 0.35728 0.68298 0.87947 0.0
H1236 H 0.39542 0.67198 0.83686 0.0
H1237 H 0.38077 0.67443 0.80535 0.0
H1238 H 0.36525 0.66393 0.81176 0.0
H1239 H 0.37961 0.66193 0.84335 0.0
C1240 C 0.34235 0.37005 0.82409 0.0
C1241 C 0.33432 0.3749 0.83023 0.0
C1242 C 0.33018 0.38686 0.81521 0.0
C1243 C 0.3283 0.38328 0.82584 0.0
C1244 C 0.33831 0.382 0.80917 0.0
C1245 C 0.34432 0.37368 0.81357 0.0
U1246 U 0.34759 0.34742 0.84452 0.0
O1247 O 0.35306 0.33103 0.84159 0.0
O1248 O 0.36303 0.34206 0.85127 0.0
C1249 C 0.36233 0.3327 0.84647 0.0
C1250 C 0.34867 0.36111 0.82836 0.0
C1251 C 0.37191 0.32951 0.8404 0.0
C1252 C 0.38256 0.32952 0.82398 0.0
C1253 C 0.37368 0.33311 0.8298 0.0
C1254 C 0.38808 0.31892 0.83938 0.0
C1255 C 0.38983 0.32232 0.82868 0.0
C1256 C 0.3792 0.32248 0.84517 0.0
C1257 C 0.32822 0.34169 0.86803 0.0
C1258 C 0.33132 0.33451 0.88604 0.0
C1259 C 0.31427 0.33102 0.87711 0.0
C1260 C 0.31786 0.33697 0.86818 0.0
C1261 C 0.32093 0.32972 0.88619 0.0
C1262 C 0.33494 0.3404 0.87705 0.0
C1263 C 0.33173 0.34798 0.85845 0.0
O1264 O 0.3535 0.36277 0.83763 0.0
O1265 O 0.34406 0.35155 0.82765 0.0
O1266 O 0.33099 0.34293 0.84921 0.0
O1267 O 0.34063 0.35383 0.85937 0.0
H1268 H 0.33266 0.37216 0.83837 0.0
H1269 H 0.32205 0.38681 0.83067 0.0
H1270 H 0.34008 0.38467 0.80104 0.0
H1271 H 0.3505 0.37005 0.80873 0.0
H1272 H 0.38373 0.33237 0.8158 0.0
H1273 H 0.36814 0.33858 0.826 0.0
H1274 H 0.39342 0.31327 0.8432 0.0
H1275 H 0.37794 0.3196 0.85333 0.0
H1276 H 0.33663 0.33382 0.89291 0.0
H1277 H 0.30631 0.32731 0.87681 0.0
H1278 H 0.31253 0.33785 0.86133 0.0
H1279 H 0.34297 0.34395 0.8772 0.0
C1280 C 0.30107 0.30439 0.04242 0.0
C1281 C 0.29241 0.30063 0.05048 0.0
C1282 C 0.28538 0.28458 0.0414 0.0
C1283 C 0.27632 0.28898 0.03634 0.0
C1284 C 0.2714 0.28387 0.02752 0.0
C1285 C 0.27562 0.27417 0.02363 0.0
C1286 C 0.28448 0.2695 0.02895 0.0
C1287 C 0.28916 0.27471 0.03786 0.0
C1288 C 0.26176 0.28893 0.02226 0.0
C1289 C 0.28914 0.25913 0.02506 0.0
C1290 C 0.28371 0.2744 0.94065 0.0
C1291 C 0.29219 0.28146 0.94638 0.0
C1292 C 0.28389 0.28239 0.96436 0.0
C1293 C 0.28687 0.27215 0.96804 0.0
C1294 C 0.28285 0.26792 0.97779 0.0
C1295 C 0.27547 0.27392 0.98388 0.0
C1296 C 0.27252 0.28426 0.98024 0.0
C1297 C 0.27689 0.28839 0.97061 0.0
C1298 C 0.28648 0.25702 0.98157 0.0
C1299 C 0.26474 0.29095 0.98651 0.0
C1300 C 0.22481 0.22421 0.96503 0.0
C1301 C 0.2344 0.22032 0.96954 0.0
C1302 C 0.23851 0.22451 0.9792 0.0
C1303 C 0.23301 0.23282 0.98446 0.0
C1304 C 0.22329 0.23665 0.98004 0.0
C1305 C 0.2193 0.23224 0.97042 0.0
C1306 C 0.24881 0.2201 0.98378 0.0
C1307 C 0.2172 0.24548 0.98544 0.0
C1308 C 0.21874 0.2335 0.06651 0.0
C1309 C 0.21296 0.22468 0.06001 0.0
C1310 C 0.22399 0.22453 0.04349 0.0
C1311 C 0.23218 0.21915 0.03817 0.0
C1312 C 0.23677 0.22329 0.02863 0.0
C1313 C 0.233 0.23304 0.02426 0.0
C1314 C 0.2246 0.23847 0.02949 0.0
C1315 C 0.22021 0.2342 0.03907 0.0
C1316 C 0.2457 0.21728 0.02326 0.0
C1317 C 0.22027 0.2488 0.02496 0.0
C1318 C 0.2711 0.26929 0.01367 0.0
C1319 C 0.27508 0.27311 0.0038 0.0
C1320 C 0.27085 0.26939 0.99404 0.0
C1321 C 0.26239 0.26158 0.99409 0.0
C1322 C 0.25775 0.25784 0.98446 0.0
C1323 C 0.24959 0.25 0.98457 0.0
C1324 C 0.24568 0.24565 0.99433 0.0
C1325 C 0.23751 0.23756 0.9945 0.0
C1326 C 0.23361 0.23363 0.00436 0.0
C1327 C 0.2377 0.23749 0.01412 0.0
C1328 C 0.24604 0.24543 0.0141 0.0
C1329 C 0.25047 0.24939 0.02375 0.0
C1330 C 0.25865 0.25723 0.02364 0.0
C1331 C 0.26277 0.26135 0.01387 0.0
C1332 C 0.25842 0.25747 0.00404 0.0
C1333 C 0.25004 0.24951 0.00416 0.0
C1334 C 0.2345 0.21999 0.94212 0.0
C1335 C 0.2255 0.21386 0.94819 0.0
O1336 O 0.29066 0.28961 0.04962 0.0
O1337 O 0.22006 0.22012 0.05281 0.0
O1338 O 0.22063 0.22056 0.95555 0.0
O1339 O 0.2875 0.28677 0.95492 0.0
H1340 H 0.28491 0.30496 0.04861 0.0
H1341 H 0.29827 0.30284 0.03407 0.0
H1342 H 0.30869 0.30003 0.04376 0.0
H1343 H 0.30268 0.31316 0.04322 0.0
H1344 H 0.27295 0.29635 0.03926 0.0
H1345 H 0.29605 0.27128 0.04188 0.0
H1346 H 0.26389 0.2915 0.01394 0.0
H1347 H 0.25892 0.29602 0.02673 0.0
H1348 H 0.25503 0.28294 0.02167 0.0
H1349 H 0.296 0.25648 0.0301 0.0
H1350 H 0.29195 0.26014 0.01662 0.0
H1351 H 0.2828 0.25271 0.02511 0.0
H1352 H 0.2988 0.27636 0.9494 0.0
H1353 H 0.28739 0.27016 0.93377 0.0
H1354 H 0.27701 0.27939 0.93762 0.0
H1355 H 0.28033 0.26823 0.94626 0.0
H1356 H 0.29237 0.2674 0.96341 0.0
H1357 H 0.27468 0.29631 0.96778 0.0
H1358 H 0.2888 0.25729 0.9902 0.0
H1359 H 0.29343 0.25413 0.97683 0.0
H1360 H 0.27974 0.2511 0.98075 0.0
H1361 H 0.26212 0.29811 0.98188 0.0
H1362 H 0.26868 0.29374 0.99403 0.0
H1363 H 0.2575 0.28606 0.9888 0.0
H1364 H 0.22895 0.20686 0.95249 0.0
H1365 H 0.23877 0.21405 0.96559 0.0
H1366 H 0.21189 0.23518 0.96695 0.0
H1367 H 0.25521 0.22646 0.9836 0.0
H1368 H 0.25167 0.21307 0.97922 0.0
H1369 H 0.24758 0.21767 0.99232 0.0
H1370 H 0.21001 0.2479 0.98074 0.0
H1371 H 0.22258 0.25263 0.98653 0.0
H1372 H 0.21454 0.24275 0.99355 0.0
H1373 H 0.2061 0.22819 0.05552 0.0
H1374 H 0.21309 0.23709 0.07235 0.0
H1375 H 0.22179 0.24002 0.06113 0.0
H1376 H 0.22568 0.23015 0.07099 0.0
H1377 H 0.23504 0.21169 0.04158 0.0
H1378 H 0.21385 0.23849 0.04299 0.0
H1379 H 0.25286 0.22268 0.02215 0.0
H1380 H 0.24302 0.21464 0.01515 0.0
H1381 H 0.24812 0.2101 0.02797 0.0
H1382 H 0.21335 0.25178 0.02967 0.0
H1383 H 0.21765 0.24759 0.01649 0.0
H1384 H 0.22675 0.25508 0.02491 0.0
H1385 H 0.2815 0.27916 0.00371 0.0
H1386 H 0.26039 0.2609 0.9767 0.0
H1387 H 0.24638 0.2474 0.9769 0.0
H1388 H 0.2273 0.22746 0.00443 0.0
H1389 H 0.24766 0.24648 0.0315 0.0
H1390 H 0.26173 0.25999 0.03131 0.0
H1391 H 0.2383 0.21467 0.93614 0.0
H1392 H 0.24086 0.2228 0.94777 0.0
H1393 H 0.23122 0.2271 0.93787 0.0
C1394 C 0.70143 0.30377 0.96689 0.0
C1395 C 0.71076 0.3019 0.9591 0.0
C1396 C 0.7193 0.28632 0.96703 0.0
C1397 C 0.72895 0.29095 0.97086 0.0
C1398 C 0.73452 0.28627 0.97948 0.0
C1399 C 0.73036 0.27674 0.98432 0.0
C1400 C 0.72093 0.27175 0.98011 0.0
C1401 C 0.71557 0.27657 0.97141 0.0
C1402 C 0.74472 0.29164 0.98358 0.0
C1403 C 0.71635 0.26152 0.98501 0.0
C1404 C 0.72696 0.28009 0.06766 0.0
C1405 C 0.71761 0.2855 0.06181 0.0
C1406 C 0.72486 0.28644 0.04336 0.0
C1407 C 0.72237 0.27578 0.04045 0.0
C1408 C 0.72609 0.27156 0.03072 0.0
C1409 C 0.73274 0.27801 0.02391 0.0
C1410 C 0.73524 0.28875 0.02681 0.0
C1411 C 0.73112 0.29286 0.03643 0.0
C1412 C 0.72287 0.2602 0.02773 0.0
C1413 C 0.7423 0.2959 0.01978 0.0
C1414 C 0.78554 0.23268 0.04238 0.0
C1415 C 0.77549 0.22832 0.03932 0.0
C1416 C 0.77056 0.23155 0.02969 0.0
C1417 C 0.77575 0.23937 0.02305 0.0
C1418 C 0.78603 0.24354 0.02599 0.0
C1419 C 0.79085 0.24001 0.03558 0.0
C1420 C 0.75978 0.22663 0.02661 0.0
C1421 C 0.79183 0.25181 0.01908 0.0
C1422 C 0.77009 0.22593 0.94059 0.0
C1423 C 0.7816 0.22628 0.94505 0.0
C1424 C 0.77877 0.22662 0.96443 0.0
C1425 C 0.77177 0.2212 0.97148 0.0
C1426 C 0.76827 0.22607 0.98098 0.0
C1427 C 0.77215 0.2365 0.98359 0.0
C1428 C 0.7796 0.24185 0.97667 0.0
C1429 C 0.78279 0.23687 0.96712 0.0
C1430 C 0.76037 0.22009 0.98818 0.0
C1431 C 0.78423 0.2528 0.97941 0.0
C1432 C 0.73548 0.27247 0.99423 0.0
C1433 C 0.73212 0.27658 0.00408 0.0
C1434 C 0.73699 0.27353 0.01374 0.0
C1435 C 0.74556 0.2662 0.0136 0.0
C1436 C 0.75099 0.26332 0.0231 0.0
C1437 C 0.75918 0.25586 0.02294 0.0
C1438 C 0.76228 0.25101 0.01327 0.0
C1439 C 0.77041 0.2432 0.01308 0.0
C1440 C 0.77345 0.2387 0.00329 0.0
C1441 C 0.76854 0.24172 0.99363 0.0
C1442 C 0.7603 0.24942 0.99367 0.0
C1443 C 0.7551 0.25256 0.98412 0.0
C1444 C 0.74704 0.26018 0.98426 0.0
C1445 C 0.74373 0.2648 0.99397 0.0
C1446 C 0.74881 0.26169 0.00371 0.0
C1447 C 0.75715 0.25405 0.00355 0.0
C1448 C 0.78614 0.24074 0.06673 0.0
C1449 C 0.78546 0.22954 0.06174 0.0
O1450 O 0.71339 0.29111 0.9592 0.0
O1451 O 0.78171 0.22165 0.95524 0.0
O1452 O 0.7904 0.22978 0.05173 0.0
O1453 O 0.72142 0.29087 0.05271 0.0
H1454 H 0.71772 0.30694 0.96181 0.0
H1455 H 0.70393 0.30173 0.97523 0.0
H1456 H 0.6943 0.29867 0.96476 0.0
H1457 H 0.69912 0.31235 0.96669 0.0
H1458 H 0.73218 0.29822 0.96715 0.0
H1459 H 0.70821 0.27296 0.96827 0.0
H1460 H 0.74343 0.29445 0.99194 0.0
H1461 H 0.74727 0.29863 0.97852 0.0
H1462 H 0.75134 0.28578 0.98381 0.0
H1463 H 0.70916 0.25845 0.98059 0.0
H1464 H 0.71406 0.26297 0.99351 0.0
H1465 H 0.72258 0.25524 0.98505 0.0
H1466 H 0.71148 0.27931 0.05949 0.0
H1467 H 0.72401 0.27576 0.07497 0.0
H1468 H 0.73317 0.28618 0.07006 0.0
H1469 H 0.73079 0.27414 0.06234 0.0
H1470 H 0.71745 0.27068 0.04562 0.0
H1471 H 0.73296 0.30108 0.03869 0.0
H1472 H 0.72035 0.25981 0.01917 0.0
H1473 H 0.71619 0.25698 0.03283 0.0
H1474 H 0.72989 0.25491 0.02878 0.0
H1475 H 0.74473 0.30346 0.02389 0.0
H1476 H 0.73784 0.298 0.01234 0.0
H1477 H 0.74966 0.29161 0.01737 0.0
H1478 H 0.77679 0.22723 0.06097 0.0
H1479 H 0.77158 0.22227 0.04435 0.0
H1480 H 0.79869 0.24319 0.03794 0.0
H1481 H 0.75351 0.23284 0.02698 0.0
H1482 H 0.75736 0.21986 0.03202 0.0
H1483 H 0.76005 0.22366 0.01821 0.0
H1484 H 0.79944 0.25478 0.02284 0.0
H1485 H 0.78653 0.25875 0.01757 0.0
H1486 H 0.79376 0.24826 0.01116 0.0
H1487 H 0.78436 0.23483 0.94541 0.0
H1488 H 0.76986 0.22961 0.93242 0.0
H1489 H 0.7647 0.23053 0.9459 0.0
H1490 H 0.767 0.2175 0.94016 0.0
H1491 H 0.76886 0.21322 0.96939 0.0
H1492 H 0.78857 0.24091 0.96189 0.0
H1493 H 0.75337 0.22521 0.98993 0.0
H1494 H 0.76432 0.21818 0.99596 0.0
H1495 H 0.75738 0.21247 0.98453 0.0
H1496 H 0.79069 0.25543 0.97374 0.0
H1497 H 0.78757 0.25272 0.98771 0.0
H1498 H 0.77774 0.25879 0.97918 0.0
H1499 H 0.72564 0.28231 0.00422 0.0
H1500 H 0.74894 0.26677 0.03079 0.0
H1501 H 0.76303 0.25392 0.03051 0.0
H1502 H 0.77968 0.23272 0.00321 0.0
H1503 H 0.75722 0.24919 0.97642 0.0
H1504 H 0.74335 0.26234 0.97666 0.0
H1505 H 0.78223 0.24068 0.07477 0.0
H1506 H 0.78191 0.24657 0.0615 0.0
H1507 H 0.79468 0.24345 0.06759 0.0
C1508 C 0.81344 0.79059 0.04626 0.0
C1509 C 0.80283 0.79426 0.05119 0.0
C1510 C 0.78995 0.78146 0.04397 0.0
C1511 C 0.7819 0.78747 0.03902 0.0
C1512 C 0.77622 0.78341 0.03009 0.0
C1513 C 0.77881 0.77321 0.02595 0.0
C1514 C 0.78687 0.76708 0.03107 0.0
C1515 C 0.79219 0.77122 0.04017 0.0
C1516 C 0.76756 0.79011 0.02499 0.0
C1517 C 0.7901 0.75631 0.02675 0.0
C1518 C 0.80333 0.8047 0.96785 0.0
C1519 C 0.80176 0.79555 0.95976 0.0
C1520 C 0.78673 0.78597 0.96841 0.0
C1521 C 0.79216 0.77749 0.9734 0.0
C1522 C 0.78762 0.77201 0.98228 0.0
C1523 C 0.77749 0.77514 0.9863 0.0
C1524 C 0.77189 0.78351 0.9811 0.0
C1525 C 0.77652 0.78868 0.97208 0.0
C1526 C 0.79371 0.76295 0.98744 0.0
C1527 C 0.76115 0.78718 0.98523 0.0
C1528 C 0.72855 0.7235 0.96648 0.0
C1529 C 0.73815 0.7198 0.97111 0.0
C1530 C 0.74213 0.72415 0.98076 0.0
C1531 C 0.73648 0.73246 0.98585 0.0
C1532 C 0.72677 0.73615 0.98128 0.0
C1533 C 0.72291 0.73157 0.97168 0.0
C1534 C 0.75241 0.71989 0.98552 0.0
C1535 C 0.72053 0.74498 0.9865 0.0
C1536 C 0.72811 0.73172 0.06871 0.0
C1537 C 0.71921 0.72511 0.0631 0.0
C1538 C 0.72719 0.72394 0.04503 0.0
C1539 C 0.7344 0.718 0.03897 0.0
C1540 C 0.7389 0.72215 0.0294 0.0
C1541 C 0.73585 0.73242 0.02564 0.0
C1542 C 0.72822 0.73831 0.03151 0.0
C1543 C 0.72409 0.7341 0.04121 0.0
C1544 C 0.74699 0.71561 0.02337 0.0
C1545 C 0.72443 0.7491 0.02756 0.0
C1546 C 0.77359 0.76925 0.0159 0.0
C1547 C 0.77727 0.77359 0.00613 0.0
C1548 C 0.77308 0.77006 0.99629 0.0
C1549 C 0.76501 0.76187 0.99612 0.0
C1550 C 0.76083 0.75789 0.98638 0.0
C1551 C 0.75286 0.74986 0.98631 0.0
C1552 C 0.74878 0.74546 0.99598 0.0
C1553 C 0.74073 0.73724 0.99598 0.0
C1554 C 0.73671 0.73321 0.00574 0.0
C1555 C 0.74064 0.737 0.01559 0.0
C1556 C 0.74887 0.74504 0.01575 0.0
C1557 C 0.75322 0.74888 0.02549 0.0
C1558 C 0.76123 0.75687 0.02557 0.0
C1559 C 0.76532 0.76125 0.0159 0.0
C1560 C 0.76107 0.7575 0.00598 0.0
C1561 C 0.75289 0.74934 0.0059 0.0
C1562 C 0.73834 0.71877 0.94367 0.0
C1563 C 0.72939 0.71275 0.94991 0.0
O1564 O 0.79577 0.78553 0.05228 0.0
O1565 O 0.72349 0.71961 0.05447 0.0
O1566 O 0.72446 0.71963 0.95705 0.0
O1567 O 0.79117 0.79173 0.96012 0.0
H1568 H 0.79926 0.80035 0.04569 0.0
H1569 H 0.81195 0.78718 0.03814 0.0
H1570 H 0.81715 0.78433 0.05141 0.0
H1571 H 0.8192 0.79749 0.04538 0.0
H1572 H 0.78011 0.79534 0.04214 0.0
H1573 H 0.79843 0.76665 0.04411 0.0
H1574 H 0.77042 0.79316 0.01706 0.0
H1575 H 0.76546 0.79708 0.03004 0.0
H1576 H 0.76018 0.78512 0.02359 0.0
H1577 H 0.7973 0.75313 0.03093 0.0
H1578 H 0.79185 0.75695 0.018 0.0
H1579 H 0.78334 0.75042 0.0278 0.0
H1580 H 0.80735 0.78902 0.9619 0.0
H1581 H 0.81175 0.8079 0.96754 0.0
H1582 H 0.80175 0.8017 0.97615 0.0
H1583 H 0.79772 0.81132 0.96606 0.0
H1584 H 0.79989 0.77505 0.97036 0.0
H1585 H 0.77235 0.79517 0.9681 0.0
H1586 H 0.7966 0.76548 0.99552 0.0
H1587 H 0.80078 0.7606 0.98259 0.0
H1588 H 0.7883 0.75582 0.98858 0.0
H1589 H 0.75819 0.79429 0.98074 0.0
H1590 H 0.76181 0.78923 0.99389 0.0
H1591 H 0.75508 0.78056 0.98449 0.0
H1592 H 0.73291 0.70591 0.95443 0.0
H1593 H 0.74263 0.71352 0.96729 0.0
H1594 H 0.7155 0.73437 0.96811 0.0
H1595 H 0.75871 0.72635 0.98548 0.0
H1596 H 0.75548 0.71293 0.98099 0.0
H1597 H 0.75105 0.71741 0.99402 0.0
H1598 H 0.71339 0.7473 0.98168 0.0
H1599 H 0.72584 0.75217 0.98762 0.0
H1600 H 0.71776 0.74228 0.9946 0.0
H1601 H 0.71282 0.73056 0.06022 0.0
H1602 H 0.72477 0.73612 0.07567 0.0
H1603 H 0.73168 0.73775 0.06306 0.0
H1604 H 0.7346 0.7264 0.07161 0.0
H1605 H 0.73669 0.71015 0.04191 0.0
H1606 H 0.7184 0.73878 0.04567 0.0
H1607 H 0.75433 0.72057 0.0216 0.0
H1608 H 0.74348 0.71305 0.01556 0.0
H1609 H 0.74937 0.70833 0.02794 0.0
H1610 H 0.71728 0.75184 0.03207 0.0
H1611 H 0.72236 0.74874 0.01887 0.0
H1612 H 0.73101 0.75518 0.02854 0.0
H1613 H 0.78357 0.77977 0.00618 0.0
H1614 H 0.76369 0.76094 0.97869 0.0
H1615 H 0.74992 0.74714 0.97856 0.0
H1616 H 0.73046 0.72698 0.00568 0.0
H1617 H 0.75046 0.74575 0.03318 0.0
H1618 H 0.76419 0.75957 0.03331 0.0
H1619 H 0.73499 0.7257 0.93918 0.0
H1620 H 0.74221 0.7133 0.93787 0.0
H1621 H 0.74466 0.72183 0.94924 0.0
C1622 C 0.20048 0.79355 0.96244 0.0
C1623 C 0.2112 0.79609 0.95679 0.0
C1624 C 0.2235 0.78298 0.96378 0.0
C1625 C 0.23223 0.78912 0.96764 0.0
C1626 C 0.23849 0.78541 0.97627 0.0
C1627 C 0.23583 0.77539 0.98118 0.0
C1628 C 0.22718 0.76906 0.97707 0.0
C1629 C 0.22123 0.77287 0.96826 0.0
C1630 C 0.24777 0.79229 0.98029 0.0
C1631 C 0.22398 0.75844 0.9822 0.0
C1632 C 0.21385 0.80851 0.03732 0.0
C1633 C 0.21509 0.79943 0.04559 0.0
C1634 C 0.23015 0.79005 0.0378 0.0
C1635 C 0.22506 0.78071 0.03389 0.0
C1636 C 0.2295 0.77506 0.02529 0.0
C1637 C 0.23917 0.77889 0.02046 0.0
C1638 C 0.24452 0.78811 0.02465 0.0
C1639 C 0.24 0.79348 0.03341 0.0
C1640 C 0.22372 0.76511 0.02119 0.0
C1641 C 0.25479 0.79248 0.01965 0.0
C1642 C 0.2914 0.7325 0.04009 0.0
C1643 C 0.28124 0.72826 0.0373 0.0
C1644 C 0.27619 0.7314 0.0277 0.0
C1645 C 0.28136 0.73907 0.02087 0.0
C1646 C 0.29172 0.74319 0.0236 0.0
C1647 C 0.29668 0.73971 0.03313 0.0
C1648 C 0.26534 0.72651 0.02484 0.0
C1649 C 0.2975 0.75133 0.01651 0.0
C1650 C 0.27585 0.72502 0.93876 0.0
C1651 C 0.28746 0.72538 0.94296 0.0
C1652 C 0.28488 0.72575 0.96235 0.0
C1653 C 0.27784 0.72036 0.96939 0.0
C1654 C 0.27429 0.72527 0.97884 0.0
C1655 C 0.27816 0.73571 0.98142 0.0
C1656 C 0.28567 0.74102 0.97453 0.0
C1657 C 0.28889 0.73601 0.96501 0.0
C1658 C 0.26632 0.71934 0.986 0.0
C1659 C 0.2903 0.75198 0.97725 0.0
C1660 C 0.24155 0.77198 0.9911 0.0
C1661 C 0.2384 0.77658 0.0008 0.0
C1662 C 0.24322 0.77373 0.01055 0.0
C1663 C 0.25146 0.76606 0.0107 0.0
C1664 C 0.25645 0.76296 0.02036 0.0
C1665 C 0.26457 0.75541 0.02042 0.0
C1666 C 0.26789 0.75053 0.01083 0.0
C1667 C 0.276 0.7427 0.01082 0.0
C1668 C 0.27916 0.73809 0.00113 0.0
C1669 C 0.27441 0.74103 0.99137 0.0
C1670 C 0.26623 0.74879 0.99121 0.0
C1671 C 0.26121 0.75188 0.98154 0.0
C1672 C 0.25322 0.75956 0.98147 0.0
C1673 C 0.2498 0.76432 0.99107 0.0
C1674 C 0.25475 0.76133 0.00091 0.0
C1675 C 0.26298 0.75355 0.00098 0.0
C1676 C 0.29415 0.74157 0.064 0.0
C1677 C 0.29181 0.73035 0.05951 0.0
O1678 O 0.21705 0.78677 0.95587 0.0
O1679 O 0.28782 0.72078 0.95315 0.0
O1680 O 0.29637 0.72959 0.04936 0.0
O1681 O 0.22566 0.796 0.04568 0.0
H1682 H 0.21574 0.80208 0.96176 0.0
H1683 H 0.202 0.79031 0.97064 0.0
H1684 H 0.19572 0.78747 0.95785 0.0
H1685 H 0.19569 0.80095 0.96323 0.0
H1686 H 0.2341 0.79684 0.96394 0.0
H1687 H 0.21449 0.76818 0.96513 0.0
H1688 H 0.2457 0.7956 0.98828 0.0
H1689 H 0.24969 0.7991 0.97474 0.0
H1690 H 0.25507 0.78737 0.98132 0.0
H1691 H 0.21662 0.75483 0.97848 0.0
H1692 H 0.2225 0.75953 0.99093 0.0
H1693 H 0.23065 0.75271 0.98138 0.0
H1694 H 0.20954 0.79269 0.04332 0.0
H1695 H 0.20544 0.81139 0.03725 0.0
H1696 H 0.21575 0.80558 0.02913 0.0
H1697 H 0.21941 0.81535 0.03922 0.0
H1698 H 0.21764 0.7778 0.03756 0.0
H1699 H 0.24391 0.80064 0.03659 0.0
H1700 H 0.22947 0.75845 0.02036 0.0
H1701 H 0.22032 0.76679 0.0131 0.0
H1702 H 0.21704 0.76244 0.0266 0.0
H1703 H 0.25777 0.79992 0.02366 0.0
H1704 H 0.25344 0.79426 0.01099 0.0
H1705 H 0.26114 0.78635 0.02018 0.0
H1706 H 0.28291 0.72917 0.05905 0.0
H1707 H 0.27735 0.72238 0.04254 0.0
H1708 H 0.3046 0.74281 0.03533 0.0
H1709 H 0.2591 0.73276 0.02526 0.0
H1710 H 0.26297 0.71981 0.03035 0.0
H1711 H 0.26544 0.72347 0.01646 0.0
H1712 H 0.30506 0.75445 0.02024 0.0
H1713 H 0.29217 0.75819 0.01477 0.0
H1714 H 0.29952 0.74757 0.00871 0.0
H1715 H 0.29024 0.73392 0.94324 0.0
H1716 H 0.27543 0.72866 0.93059 0.0
H1717 H 0.27058 0.72964 0.94418 0.0
H1718 H 0.27275 0.71659 0.93842 0.0
H1719 H 0.27492 0.71238 0.96731 0.0
H1720 H 0.29469 0.74002 0.95977 0.0
H1721 H 0.2593 0.72448 0.98763 0.0
H1722 H 0.27018 0.71751 0.99385 0.0
H1723 H 0.26338 0.71169 0.98239 0.0
H1724 H 0.29688 0.75451 0.97167 0.0
H1725 H 0.29347 0.75199 0.98561 0.0
H1726 H 0.28385 0.758 0.97679 0.0
H1727 H 0.23204 0.78243 1.00077 0.0
H1728 H 0.25416 0.76637 0.028 0.0
H1729 H 0.26817 0.7534 0.02809 0.0
H1730 H 0.28539 0.7321 0.00119 0.0
H1731 H 0.26342 0.74841 0.97391 0.0
H1732 H 0.24969 0.76168 0.97378 0.0
H1733 H 0.30298 0.74312 0.06459 0.0
H1734 H 0.2905 0.74237 0.07211 0.0
H1735 H 0.29063 0.74774 0.05862 0.0
C1736 C 0.0391 0.30834 0.2984 0.0
C1737 C 0.04624 0.29854 0.29708 0.0
C1738 C 0.03865 0.28956 0.28142 0.0
C1739 C 0.03455 0.28001 0.28604 0.0
C1740 C 0.026 0.2743 0.28118 0.0
C1741 C 0.02151 0.27822 0.27148 0.0
C1742 C 0.02597 0.28758 0.26655 0.0
C1743 C 0.03459 0.29308 0.27155 0.0
C1744 C 0.02162 0.26419 0.28651 0.0
C1745 C 0.02143 0.29192 0.25616 0.0
C1746 C 0.93883 0.29876 0.28888 0.0
C1747 C 0.94835 0.29631 0.28207 0.0
C1748 C 0.96305 0.28356 0.28084 0.0
C1749 C 0.96693 0.28741 0.27086 0.0
C1750 C 0.97629 0.28325 0.26627 0.0
C1751 C 0.98187 0.27503 0.27171 0.0
C1752 C 0.97785 0.27096 0.28162 0.0
C1753 C 0.96848 0.27529 0.28605 0.0
C1754 C 0.98033 0.28774 0.25567 0.0
C1755 C 0.98355 0.26215 0.28761 0.0
C1756 C 0.96508 0.22098 0.22653 0.0
C1757 C 0.96802 0.23095 0.22201 0.0
C1758 C 0.97761 0.23625 0.22512 0.0
C1759 C 0.98425 0.23153 0.23307 0.0
C1760 C 0.98139 0.22132 0.23742 0.0
C1761 C 0.9719 0.21609 0.23395 0.0
C1762 C 0.9806 0.24692 0.21998 0.0
C1763 C 0.98827 0.21601 0.24586 0.0
C1764 C 0.06763 0.22871 0.23149 0.0
C1765 C 0.0617 0.21961 0.22552 0.0
C1766 C 0.04355 0.22719 0.22417 0.0
C1767 C 0.03707 0.23367 0.21773 0.0
C1768 C 0.0274 0.23781 0.22165 0.0
C1769 C 0.02397 0.23516 0.23222 0.0
C1770 C 0.03032 0.22835 0.23869 0.0
C1771 C 0.04011 0.22457 0.23468 0.0
C1772 C 0.02086 0.24505 0.21449 0.0
C1773 C 0.02676 0.22498 0.24986 0.0
C1774 C 0.01175 0.27288 0.2669 0.0
C1775 C 0.00173 0.27603 0.27077 0.0
C1776 C 0.99217 0.27106 0.26729 0.0
C1777 C 0.99256 0.26261 0.25976 0.0
C1778 C 0.98314 0.25722 0.2563 0.0
C1779 C 0.98361 0.2489 0.2489 0.0
C1780 C 0.99351 0.24573 0.24458 0.0
C1781 C 0.99405 0.23735 0.23697 0.0
C1782 C 0.00406 0.23424 0.23303 0.0
C1783 C 0.01363 0.23929 0.23642 0.0
C1784 C 0.01323 0.24782 0.24389 0.0
C1785 C 0.02266 0.25322 0.24736 0.0
C1786 C 0.02221 0.2614 0.25492 0.0
C1787 C 0.0123 0.26462 0.25917 0.0
C1788 C 0.00266 0.25943 0.25563 0.0
C1789 C 0.00313 0.251 0.248 0.0
C1790 C 0.94168 0.2182 0.23659 0.0
C1791 C 0.94564 0.22033 0.22508 0.0
O1792 O 0.04646 0.29555 0.28634 0.0
O1793 O 0.05296 0.22367 0.21992 0.0
O1794 O 0.95572 0.21591 0.22378 0.0
O1795 O 0.95422 0.28764 0.28572 0.0
H1796 H 0.04273 0.29195 0.30213 0.0
H1797 H 0.0307 0.30626 0.29598 0.0
H1798 H 0.04206 0.31514 0.29327 0.0
H1799 H 0.03903 0.31092 0.30694 0.0
H1800 H 0.03801 0.27697 0.29343 0.0
H1801 H 0.03794 0.30037 0.26796 0.0
H1802 H 0.0132 0.26547 0.28914 0.0
H1803 H 0.02647 0.2618 0.29362 0.0
H1804 H 0.02147 0.25749 0.28066 0.0
H1805 H 0.02594 0.29916 0.25323 0.0
H1806 H 0.01286 0.29402 0.25735 0.0
H1807 H 0.02166 0.28564 0.24987 0.0
H1808 H 0.95353 0.30344 0.27993 0.0
H1809 H 0.94063 0.30696 0.29228 0.0
H1810 H 0.93999 0.29441 0.29677 0.0
H1811 H 0.92575 0.29566 0.2787 0.0
H1812 H 0.96274 0.29371 0.26663 0.0
H1813 H 0.96542 0.27231 0.29369 0.0
H1814 H 0.98079 0.28119 0.24968 0.0
H1815 H 0.9886 0.29116 0.25671 0.0
H1816 H 0.97507 0.29411 0.25241 0.0
H1817 H 0.97904 0.25938 0.29486 0.0
H1818 H 0.99166 0.26511 0.29014 0.0
H1819 H 0.98472 0.25519 0.28222 0.0
H1820 H 0.94612 0.22919 0.22378 0.0
H1821 H 0.96285 0.23454 0.21601 0.0
H1822 H 0.96958 0.20831 0.23726 0.0
H1823 H 0.97973 0.25341 0.22597 0.0
H1824 H 0.97542 0.24876 0.21293 0.0
H1825 H 0.98915 0.24697 0.21734 0.0
H1826 H 0.98447 0.2085 0.24908 0.0
H1827 H 0.9898 0.22161 0.25263 0.0
H1828 H 0.9962 0.21403 0.24233 0.0
H1829 H 0.05886 0.21342 0.23141 0.0
H1830 H 0.07464 0.22555 0.23599 0.0
H1831 H 0.06217 0.23248 0.23738 0.0
H1832 H 0.07051 0.23499 0.22571 0.0
H1833 H 0.03972 0.23562 0.20962 0.0
H1834 H 0.04492 0.21951 0.2398 0.0
H1835 H 0.01876 0.25247 0.21887 0.0
H1836 H 0.01321 0.24087 0.21225 0.0
H1837 H 0.02523 0.24736 0.20699 0.0
H1838 H 0.03172 0.21841 0.25319 0.0
H1839 H 0.01818 0.22226 0.24979 0.0
H1840 H 0.02746 0.23196 0.25534 0.0
H1841 H 0.00138 0.28242 0.27665 0.0
H1842 H 0.97529 0.25935 0.25932 0.0
H1843 H 0.97608 0.245 0.24661 0.0
H1844 H 0.00441 0.22771 0.2273 0.0
H1845 H 0.03051 0.25114 0.24431 0.0
H1846 H 0.02973 0.26521 0.25737 0.0
H1847 H 0.94114 0.20942 0.23826 0.0
H1848 H 0.93362 0.22173 0.2378 0.0
H1849 H 0.94737 0.22195 0.24243 0.0
C1850 C 0.70261 0.04098 0.29461 0.0
C1851 C 0.71274 0.04786 0.29684 0.0
C1852 C 0.72505 0.04156 0.28338 0.0
C1853 C 0.73392 0.03788 0.2892 0.0
C1854 C 0.74007 0.02938 0.28535 0.0
C1855 C 0.73714 0.02438 0.27553 0.0
C1856 C 0.72836 0.02832 0.26949 0.0
C1857 C 0.72254 0.03703 0.27342 0.0
C1858 C 0.74949 0.02554 0.29192 0.0
C1859 C 0.72483 0.02308 0.25912 0.0
C1860 C 0.71766 0.9676 0.31528 0.0
C1861 C 0.71677 0.96183 0.30447 0.0
C1862 C 0.73138 0.96851 0.29326 0.0
C1863 C 0.72602 0.97186 0.28393 0.0
C1864 C 0.73031 0.98021 0.2775 0.0
C1865 C 0.74014 0.98531 0.28052 0.0
C1866 C 0.74579 0.98161 0.28969 0.0
C1867 C 0.74139 0.97312 0.29587 0.0
C1868 C 0.7242 0.98379 0.26765 0.0
C1869 C 0.75627 0.98688 0.29316 0.0
C1870 C 0.78771 0.96407 0.22973 0.0
C1871 C 0.77723 0.96715 0.22689 0.0
C1872 C 0.7731 0.97695 0.23037 0.0
C1873 C 0.77944 0.9837 0.2371 0.0
C1874 C 0.79003 0.98069 0.23987 0.0
C1875 C 0.79407 0.97099 0.236 0.0
C1876 C 0.76195 0.98009 0.22683 0.0
C1877 C 0.79704 0.98767 0.247 0.0
C1878 C 0.77324 0.06533 0.22146 0.0
C1879 C 0.78501 0.06191 0.22201 0.0
C1880 C 0.78357 0.04246 0.2225 0.0
C1881 C 0.7763 0.03526 0.21769 0.0
C1882 C 0.77311 0.0257 0.22295 0.0
C1883 C 0.77759 0.02319 0.23313 0.0
C1884 C 0.7854 0.0302 0.23776 0.0
C1885 C 0.78824 0.03983 0.23243 0.0
C1886 C 0.76481 0.0184 0.21774 0.0
C1887 C 0.79065 0.02759 0.24839 0.0
C1888 C 0.74259 0.0144 0.27217 0.0
C1889 C 0.7395 0.00484 0.27735 0.0
C1890 C 0.74403 0.99505 0.27461 0.0
C1891 C 0.75187 0.9947 0.26638 0.0
C1892 C 0.75651 0.98498 0.26334 0.0
C1893 C 0.76418 0.98472 0.25518 0.0
C1894 C 0.76742 0.99415 0.24966 0.0
C1895 C 0.77499 0.99392 0.24115 0.0
C1896 C 0.77818 0.00351 0.23601 0.0
C1897 C 0.77392 0.01335 0.23903 0.0
C1898 C 0.76617 0.01371 0.24737 0.0
C1899 C 0.76153 0.02344 0.25045 0.0
C1900 C 0.75391 0.02372 0.25865 0.0
C1901 C 0.7505 0.01425 0.26398 0.0
C1902 C 0.75511 0.00435 0.26104 0.0
C1903 C 0.76293 0.00407 0.25271 0.0
C1904 C 0.78158 0.94025 0.23465 0.0
C1905 C 0.78628 0.94515 0.22427 0.0
O1906 O 0.71863 0.04924 0.28742 0.0
O1907 O 0.78599 0.05186 0.21739 0.0
O1908 O 0.79197 0.95458 0.2266 0.0
O1909 O 0.72694 0.961 0.29996 0.0
H1910 H 0.71767 0.04361 0.30297 0.0
H1911 H 0.70491 0.03292 0.29172 0.0
H1912 H 0.69755 0.04485 0.28835 0.0
H1913 H 0.69779 0.03987 0.30208 0.0
H1914 H 0.73595 0.0416 0.29682 0.0
H1915 H 0.71568 0.04 0.26898 0.0
H1916 H 0.74735 0.01768 0.2957 0.0
H1917 H 0.75175 0.03128 0.29839 0.0
H1918 H 0.75659 0.02435 0.28666 0.0
H1919 H 0.71737 0.02662 0.25581 0.0
H1920 H 0.72338 0.01434 0.26045 0.0
H1921 H 0.73131 0.02401 0.25303 0.0
H1922 H 0.71149 0.96674 0.2992 0.0
H1923 H 0.70958 0.9682 0.31906 0.0
H1924 H 0.72098 0.97587 0.31401 0.0
H1925 H 0.7231 0.96326 0.32085 0.0
H1926 H 0.71843 0.96801 0.28175 0.0
H1927 H 0.74551 0.97035 0.30304 0.0
H1928 H 0.72099 0.99192 0.26901 0.0
H1929 H 0.71735 0.97824 0.26571 0.0
H1930 H 0.72969 0.98432 0.2606 0.0
H1931 H 0.7596 0.98313 0.30055 0.0
H1932 H 0.75502 0.99555 0.29469 0.0
H1933 H 0.76231 0.98632 0.28661 0.0
H1934 H 0.77962 0.94686 0.21859 0.0
H1935 H 0.77224 0.96207 0.22185 0.0
H1936 H 0.80217 0.96861 0.23809 0.0
H1937 H 0.75635 0.97946 0.23378 0.0
H1938 H 0.75876 0.97485 0.22032 0.0
H1939 H 0.76199 0.98856 0.22395 0.0
H1940 H 0.80465 0.98369 0.2493 0.0
H1941 H 0.7926 0.98974 0.25444 0.0
H1942 H 0.7991 0.9953 0.24273 0.0
H1943 H 0.78745 0.06161 0.23063 0.0
H1944 H 0.77232 0.07337 0.22513 0.0
H1945 H 0.76805 0.0595 0.22598 0.0
H1946 H 0.77043 0.06563 0.21296 0.0
H1947 H 0.77286 0.03734 0.20995 0.0
H1948 H 0.79417 0.04525 0.23595 0.0
H1949 H 0.75803 0.01677 0.22338 0.0
H1950 H 0.76849 0.01058 0.21586 0.0
H1951 H 0.76155 0.02188 0.21017 0.0
H1952 H 0.79751 0.03316 0.25024 0.0
H1953 H 0.79362 0.01923 0.24835 0.0
H1954 H 0.78462 0.02813 0.25494 0.0
H1955 H 0.73341 0.005 0.28362 0.0
H1956 H 0.75426 0.97746 0.26723 0.0
H1957 H 0.76751 0.97701 0.25321 0.0
H1958 H 0.78398 0.00328 0.22949 0.0
H1959 H 0.76374 0.03098 0.24656 0.0
H1960 H 0.75066 0.03144 0.26073 0.0
H1961 H 0.78812 0.93853 0.24049 0.0
H1962 H 0.77705 0.93267 0.23289 0.0
H1963 H 0.77591 0.9459 0.23841 0.0
C1964 C 0.04457 0.71228 0.30956 0.0
C1965 C 0.05059 0.7097 0.29916 0.0
C1966 C 0.04371 0.7232 0.28704 0.0
C1967 C 0.03862 0.71732 0.27885 0.0
C1968 C 0.02985 0.72156 0.2732 0.0
C1969 C 0.02601 0.73183 0.27595 0.0
C1970 C 0.03132 0.73786 0.28409 0.0
C1971 C 0.04027 0.73353 0.28938 0.0
C1972 C 0.02456 0.71499 0.26444 0.0
C1973 C 0.02736 0.74871 0.28745 0.0
C1974 C 0.96658 0.70073 0.30004 0.0
C1975 C 0.95859 0.70976 0.29802 0.0
C1976 C 0.96809 0.71924 0.28345 0.0
C1977 C 0.97337 0.72737 0.28933 0.0
C1978 C 0.9824 0.73289 0.28507 0.0
C1979 C 0.9863 0.73012 0.27478 0.0
C1980 C 0.98086 0.72205 0.26876 0.0
C1981 C 0.97169 0.71686 0.27311 0.0
C1982 C 0.98783 0.74162 0.29162 0.0
C1983 C 0.98489 0.71873 0.25784 0.0
C1984 C 0.96704 0.78233 0.22739 0.0
C1985 C 0.97182 0.78605 0.23698 0.0
C1986 C 0.98145 0.78168 0.24082 0.0
C1987 C 0.98637 0.77335 0.23502 0.0
C1988 C 0.98165 0.76966 0.22533 0.0
C1989 C 0.97208 0.77425 0.22162 0.0
C1990 C 0.98636 0.78592 0.2511 0.0
C1991 C 0.98668 0.7608 0.21894 0.0
C1992 C 0.0695 0.77139 0.22391 0.0
C1993 C 0.06325 0.77737 0.21515 0.0
C1994 C 0.0457 0.77963 0.22395 0.0
C1995 C 0.04054 0.78586 0.23163 0.0
C1996 C 0.0309 0.7823 0.23652 0.0
C1997 C 0.02614 0.77237 0.2334 0.0
C1998 C 0.03109 0.76621 0.22534 0.0
C1999 C 0.04087 0.76981 0.2208 0.0
C2000 C 0.02586 0.78907 0.2451 0.0
C2001 C 0.02604 0.75577 0.22151 0.0
C2002 C 0.016 0.73591 0.27089 0.0
C2003 C 0.00616 0.73161 0.27456 0.0
C2004 C 0.99636 0.73528 0.27057 0.0
C2005 C 0.99629 0.74363 0.26279 0.0
C2006 C 0.98659 0.74782 0.25889 0.0
C2007 C 0.98661 0.75596 0.25115 0.0
C2008 C 0.99634 0.76025 0.24702 0.0
C2009 C 0.99645 0.76851 0.23913 0.0
C2010 C 0.00627 0.77239 0.235 0.0
C2011 C 0.01606 0.76833 0.23862 0.0
C2012 C 0.01613 0.76029 0.24673 0.0
C2013 C 0.02584 0.75623 0.25076 0.0
C2014 C 0.02583 0.74821 0.25863 0.0
C2015 C 0.01611 0.74398 0.26282 0.0
C2016 C 0.00621 0.74792 0.25883 0.0
C2017 C 0.00623 0.75617 0.25086 0.0
C2018 C 0.94435 0.78699 0.23742 0.0
C2019 C 0.95057 0.79304 0.22851 0.0
O2020 O 0.05181 0.71895 0.29293 0.0
O2021 O 0.05523 0.7834 0.2198 0.0
O2022 O 0.95762 0.7862 0.22343 0.0
O2023 O 0.95956 0.71349 0.2875 0.0
H2024 H 0.04578 0.70355 0.29467 0.0
H2025 H 0.03641 0.71527 0.30763 0.0
H2026 H 0.04903 0.71856 0.31419 0.0
H2027 H 0.04359 0.70495 0.31465 0.0
H2028 H 0.0415 0.70941 0.27691 0.0
H2029 H 0.04433 0.738 0.2957 0.0
H2030 H 0.01658 0.71195 0.26728 0.0
H2031 H 0.02947 0.708 0.26215 0.0
H2032 H 0.0232 0.72005 0.25718 0.0
H2033 H 0.03167 0.75183 0.29466 0.0
H2034 H 0.01859 0.74823 0.28923 0.0
H2035 H 0.02855 0.75456 0.28076 0.0
H2036 H 0.96035 0.71638 0.30375 0.0
H2037 H 0.96579 0.69761 0.30841 0.0
H2038 H 0.97497 0.70381 0.29895 0.0
H2039 H 0.96511 0.69403 0.29433 0.0
H2040 H 0.97043 0.72955 0.29719 0.0
H2041 H 0.9675 0.71064 0.2686 0.0
H2042 H 0.99583 0.73885 0.29437 0.0
H2043 H 0.98303 0.74377 0.2988 0.0
H2044 H 0.98918 0.74893 0.28659 0.0
H2045 H 0.98033 0.71168 0.25463 0.0
H2046 H 0.99356 0.71674 0.25831 0.0
H2047 H 0.98411 0.72551 0.25206 0.0
H2048 H 0.95517 0.79991 0.23205 0.0
H2049 H 0.96813 0.79233 0.24155 0.0
H2050 H 0.96839 0.77144 0.21422 0.0
H2051 H 0.98625 0.77948 0.25732 0.0
H2052 H 0.98198 0.79292 0.25427 0.0
H2053 H 0.99491 0.78835 0.24971 0.0
H2054 H 0.98173 0.75845 0.21186 0.0
H2055 H 0.98777 0.75363 0.22416 0.0
H2056 H 0.99478 0.76348 0.2161 0.0
H2057 H 0.05967 0.77139 0.20955 0.0
H2058 H 0.07606 0.76668 0.22026 0.0
H2059 H 0.06401 0.76572 0.22829 0.0
H2060 H 0.07306 0.77715 0.22978 0.0
H2061 H 0.04425 0.79345 0.23397 0.0
H2062 H 0.04453 0.76492 0.21473 0.0
H2063 H 0.02449 0.78418 0.25251 0.0
H2064 H 0.01788 0.79185 0.24229 0.0
H2065 H 0.03094 0.79621 0.24716 0.0
H2066 H 0.03012 0.75264 0.21426 0.0
H2067 H 0.01739 0.75688 0.21961 0.0
H2068 H 0.02651 0.74964 0.22801 0.0
H2069 H 0.00613 0.72533 0.28067 0.0
H2070 H 0.97885 0.74484 0.26179 0.0
H2071 H 0.97889 0.75882 0.24842 0.0
H2072 H 0.00628 0.77859 0.22882 0.0
H2073 H 0.03358 0.75921 0.24788 0.0
H2074 H 0.03354 0.74535 0.26138 0.0
H2075 H 0.93862 0.79242 0.24141 0.0
H2076 H 0.94996 0.78396 0.24365 0.0
H2077 H 0.93979 0.78002 0.23404 0.0
C2078 C 0.30015 0.96498 0.30224 0.0
C2079 C 0.29156 0.95631 0.29979 0.0
C2080 C 0.28274 0.96501 0.2846 0.0
C2081 C 0.27367 0.96916 0.28974 0.0
C2082 C 0.2682 0.97791 0.28531 0.0
C2083 C 0.27193 0.98268 0.27559 0.0
C2084 C 0.28086 0.97828 0.27021 0.0
C2085 C 0.28605 0.96937 0.27472 0.0
C2086 C 0.25853 0.98218 0.29111 0.0
C2087 C 0.28509 0.98316 0.25986 0.0
C2088 C 0.27019 0.06529 0.2823 0.0
C2089 C 0.28111 0.06111 0.28608 0.0
C2090 C 0.27676 0.04183 0.28685 0.0
C2091 C 0.28034 0.03886 0.27659 0.0
C2092 C 0.27702 0.02905 0.27203 0.0
C2093 C 0.26977 0.02219 0.27775 0.0
C2094 C 0.26635 0.02506 0.28818 0.0
C2095 C 0.27004 0.03478 0.29266 0.0
C2096 C 0.28124 0.02605 0.26109 0.0
C2097 C 0.2587 0.01792 0.29457 0.0
C2098 C 0.22113 0.04124 0.22675 0.0
C2099 C 0.23115 0.03743 0.22329 0.0
C2100 C 0.23531 0.02788 0.22751 0.0
C2101 C 0.22941 0.02202 0.23542 0.0
C2102 C 0.21931 0.02577 0.23887 0.0
C2103 C 0.21529 0.0353 0.23444 0.0
C2104 C 0.24605 0.02404 0.22353 0.0
C2105 C 0.21281 0.01972 0.24728 0.0
C2106 C 0.235 0.94012 0.22218 0.0
C2107 C 0.22331 0.94375 0.22287 0.0
C2108 C 0.22508 0.96318 0.22311 0.0
C2109 C 0.23225 0.97034 0.21802 0.0
C2110 C 0.23556 0.97992 0.22303 0.0
C2111 C 0.23131 0.9825 0.23324 0.0
C2112 C 0.22363 0.97549 0.23819 0.0
C2113 C 0.22066 0.96584 0.2331 0.0
C2114 C 0.24371 0.98721 0.21747 0.0
C2115 C 0.2186 0.97818 0.24887 0.0
C2116 C 0.26688 0.99263 0.27144 0.0
C2117 C 0.27022 0.00241 0.27595 0.0
C2118 C 0.26566 0.01209 0.27273 0.0
C2119 C 0.25749 0.01209 0.26478 0.0
C2120 C 0.25256 0.02165 0.2615 0.0
C2121 C 0.24478 0.02162 0.25344 0.0
C2122 C 0.24153 0.01201 0.2484 0.0
C2123 C 0.23383 0.01195 0.24 0.0
C2124 C 0.23057 0.00221 0.23537 0.0
C2125 C 0.23495 0.99248 0.23875 0.0
C2126 C 0.24285 0.99242 0.24698 0.0
C2127 C 0.2476 0.98281 0.25043 0.0
C2128 C 0.25538 0.98284 0.25852 0.0
C2129 C 0.25884 0.99248 0.26335 0.0
C2130 C 0.25416 0.00226 0.26 0.0
C2131 C 0.24614 0.00222 0.25182 0.0
C2132 C 0.23015 0.06479 0.22274 0.0
C2133 C 0.22178 0.05821 0.21635 0.0
O2134 O 0.28855 0.95694 0.28904 0.0
O2135 O 0.22244 0.95383 0.21816 0.0
O2136 O 0.21684 0.05054 0.22297 0.0
O2137 O 0.27965 0.05136 0.29143 0.0
H2138 H 0.28448 0.95763 0.30504 0.0
H2139 H 0.29684 0.97309 0.30082 0.0
H2140 H 0.30731 0.96402 0.29699 0.0
H2141 H 0.30271 0.96447 0.3108 0.0
H2142 H 0.27078 0.96557 0.29717 0.0
H2143 H 0.29298 0.96604 0.27075 0.0
H2144 H 0.26057 0.99022 0.29443 0.0
H2145 H 0.25586 0.97684 0.29784 0.0
H2146 H 0.25171 0.98315 0.28541 0.0
H2147 H 0.29234 0.97903 0.25687 0.0
H2148 H 0.28716 0.99178 0.26108 0.0
H2149 H 0.27874 0.98271 0.25357 0.0
H2150 H 0.28639 0.06011 0.27897 0.0
H2151 H 0.27125 0.07314 0.27809 0.0
H2152 H 0.2647 0.06628 0.28927 0.0
H2153 H 0.26638 0.05954 0.27659 0.0
H2154 H 0.28586 0.04404 0.27214 0.0
H2155 H 0.26745 0.03707 0.30063 0.0
H2156 H 0.28395 0.0176 0.26114 0.0
H2157 H 0.28807 0.03136 0.25848 0.0
H2158 H 0.27469 0.0267 0.25505 0.0
H2159 H 0.25579 0.0219 0.30197 0.0
H2160 H 0.26287 0.01047 0.29696 0.0
H2161 H 0.25163 0.01556 0.28957 0.0
H2162 H 0.22581 0.05417 0.20954 0.0
H2163 H 0.23581 0.04183 0.21731 0.0
H2164 H 0.20757 0.03824 0.23706 0.0
H2165 H 0.25196 0.02417 0.23024 0.0
H2166 H 0.24931 0.0291 0.21684 0.0
H2167 H 0.24525 0.01561 0.22073 0.0
H2168 H 0.20533 0.02394 0.24948 0.0
H2169 H 0.21775 0.0186 0.25465 0.0
H2170 H 0.21057 0.01162 0.24424 0.0
H2171 H 0.221 0.94404 0.23151 0.0
H2172 H 0.23585 0.93205 0.22593 0.0
H2173 H 0.24037 0.94586 0.22655 0.0
H2174 H 0.23766 0.9398 0.21365 0.0
H2175 H 0.23547 0.96825 0.21023 0.0
H2176 H 0.2148 0.96046 0.23685 0.0
H2177 H 0.25048 0.98917 0.22302 0.0
H2178 H 0.23984 0.99487 0.21521 0.0
H2179 H 0.24701 0.98355 0.21007 0.0
H2180 H 0.21184 0.97258 0.25099 0.0
H2181 H 0.21557 0.98651 0.24868 0.0
H2182 H 0.22479 0.97775 0.2553 0.0
H2183 H 0.27647 0.00248 0.28207 0.0
H2184 H 0.25471 0.0293 0.26509 0.0
H2185 H 0.24134 0.02924 0.25119 0.0
H2186 H 0.22466 0.00221 0.22893 0.0
H2187 H 0.24537 0.97516 0.24692 0.0
H2188 H 0.25871 0.9752 0.26088 0.0
H2189 H 0.23403 0.071 0.21747 0.0
H2190 H 0.23657 0.05954 0.2259 0.0
H2191 H 0.22629 0.06881 0.22965 0.0
C2192 C 0.94927 0.76912 0.79378 0.0
C2193 C 0.95438 0.78027 0.79576 0.0
C2194 C 0.96814 0.78163 0.78149 0.0
C2195 C 0.97087 0.7865 0.77166 0.0
C2196 C 0.98032 0.78383 0.76616 0.0
C2197 C 0.9872 0.77602 0.77058 0.0
C2198 C 0.98457 0.77111 0.78056 0.0
C2199 C 0.97513 0.77399 0.78594 0.0
C2200 C 0.98295 0.78931 0.75559 0.0
C2201 C 0.99174 0.76276 0.78553 0.0
C2202 C 0.07026 0.79345 0.76366 0.0
C2203 C 0.06562 0.79127 0.77489 0.0
C2204 C 0.04614 0.79098 0.77303 0.0
C2205 C 0.04319 0.78092 0.77738 0.0
C2206 C 0.03347 0.7758 0.77439 0.0
C2207 C 0.02666 0.78081 0.76679 0.0
C2208 C 0.02949 0.7911 0.76264 0.0
C2209 C 0.03916 0.79612 0.76595 0.0
C2210 C 0.03051 0.76502 0.77932 0.0
C2211 C 0.0224 0.79672 0.7546 0.0
C2212 C 0.047 0.72834 0.72128 0.0
C2213 C 0.04347 0.72626 0.73187 0.0
C2214 C 0.03368 0.73028 0.73562 0.0
C2215 C 0.0274 0.7368 0.72877 0.0
C2216 C 0.03088 0.73887 0.7181 0.0
C2217 C 0.04057 0.73449 0.71447 0.0
C2218 C 0.03009 0.72754 0.74694 0.0
C2219 C 0.02443 0.74578 0.71055 0.0
C2220 C 0.94337 0.73043 0.72863 0.0
C2221 C 0.9486 0.72769 0.71786 0.0
C2222 C 0.96761 0.72605 0.72252 0.0
C2223 C 0.97354 0.72081 0.73047 0.0
C2224 C 0.98342 0.72512 0.73413 0.0
C2225 C 0.98752 0.73479 0.72953 0.0
C2226 C 0.98181 0.73983 0.72109 0.0
C2227 C 0.97192 0.73541 0.71766 0.0
C2228 C 0.98936 0.71949 0.74306 0.0
C2229 C 0.98613 0.74997 0.71576 0.0
C2230 C 0.99718 0.77296 0.76483 0.0
C2231 C 0.00687 0.77807 0.76775 0.0
C2232 C 0.01664 0.77522 0.76308 0.0
C2233 C 0.01681 0.76703 0.75524 0.0
C2234 C 0.02649 0.76397 0.75034 0.0
C2235 C 0.02662 0.75564 0.74294 0.0
C2236 C 0.01708 0.75009 0.74007 0.0
C2237 C 0.01718 0.74137 0.73281 0.0
C2238 C 0.00744 0.73647 0.72965 0.0
C2239 C 0.99759 0.73988 0.73372 0.0
C2240 C 0.9974 0.74816 0.74145 0.0
C2241 C 0.98769 0.75137 0.74617 0.0
C2242 C 0.98759 0.75946 0.75384 0.0
C2243 C 0.99718 0.76477 0.75698 0.0
C2244 C 0.00705 0.76175 0.75224 0.0
C2245 C 0.00718 0.75334 0.74456 0.0
C2246 C 0.07091 0.72994 0.72911 0.0
C2247 C 0.06506 0.72071 0.72326 0.0
O2248 O 0.95874 0.78446 0.7863 0.0
O2249 O 0.95783 0.72183 0.71966 0.0
O2250 O 0.05648 0.72465 0.71734 0.0
O2251 O 0.0556 0.79594 0.77568 0.0
H2252 H 0.96085 0.77952 0.80191 0.0
H2253 H 0.95542 0.76337 0.79113 0.0
H2254 H 0.94298 0.76953 0.78743 0.0
H2255 H 0.94556 0.76591 0.80131 0.0
H2256 H 0.9655 0.7924 0.76828 0.0
H2257 H 0.97329 0.77015 0.79357 0.0
H2258 H 0.99111 0.79312 0.75599 0.0
H2259 H 0.97703 0.79555 0.75344 0.0
H2260 H 0.98308 0.78325 0.74908 0.0
H2261 H 0.98835 0.75933 0.79311 0.0
H2262 H 0.99977 0.76642 0.7873 0.0
H2263 H 0.99296 0.75613 0.77976 0.0
H2264 H 0.06488 0.7824 0.77599 0.0
H2265 H 0.07828 0.78974 0.76285 0.0
H2266 H 0.0711 0.80224 0.76213 0.0
H2267 H 0.06481 0.78993 0.75747 0.0
H2268 H 0.04843 0.77713 0.78319 0.0
H2269 H 0.04146 0.80397 0.76279 0.0
H2270 H 0.02209 0.76503 0.78234 0.0
H2271 H 0.03595 0.76286 0.78606 0.0
H2272 H 0.03098 0.75871 0.77308 0.0
H2273 H 0.0261 0.80437 0.7516 0.0
H2274 H 0.01454 0.79849 0.75839 0.0
H2275 H 0.02075 0.79138 0.74764 0.0
H2276 H 0.06205 0.7147 0.72925 0.0
H2277 H 0.04822 0.72146 0.7373 0.0
H2278 H 0.04329 0.73604 0.7063 0.0
H2279 H 0.0311 0.73472 0.7521 0.0
H2280 H 0.03483 0.72094 0.75054 0.0
H2281 H 0.02142 0.72512 0.74705 0.0
H2282 H 0.02884 0.74767 0.70297 0.0
H2283 H 0.02236 0.75343 0.71453 0.0
H2284 H 0.01676 0.74154 0.70849 0.0
H2285 H 0.95061 0.73539 0.71369 0.0
H2286 H 0.93585 0.73495 0.72727 0.0
H2287 H 0.94897 0.73555 0.73345 0.0
H2288 H 0.94143 0.72301 0.73332 0.0
H2289 H 0.97024 0.71348 0.73404 0.0
H2290 H 0.96767 0.73923 0.71111 0.0
H2291 H 0.99049 0.72502 0.74996 0.0
H2292 H 0.99749 0.71726 0.74022 0.0
H2293 H 0.98501 0.71211 0.74591 0.0
H2294 H 0.98116 0.75246 0.70878 0.0
H2295 H 0.99453 0.74879 0.71299 0.0
H2296 H 0.98633 0.7566 0.7217 0.0
H2297 H 0.00683 0.78426 0.77385 0.0
H2298 H 0.03409 0.76793 0.75225 0.0
H2299 H 0.03432 0.75359 0.7395 0.0
H2300 H 0.00753 0.7299 0.72396 0.0
H2301 H 0.98005 0.74758 0.74407 0.0
H2302 H 0.97989 0.76151 0.75726 0.0
H2303 H 0.07395 0.73606 0.72323 0.0
H2304 H 0.07782 0.72686 0.73382 0.0
H2305 H 0.06537 0.73389 0.73478 0.0
C2306 C 0.20357 0.04388 0.79689 0.0
C2307 C 0.2138 0.05086 0.79813 0.0
C2308 C 0.22511 0.04404 0.78399 0.0
C2309 C 0.23392 0.03988 0.7896 0.0
C2310 C 0.23971 0.03128 0.78542 0.0
C2311 C 0.23653 0.02669 0.77549 0.0
C2312 C 0.22785 0.03113 0.76965 0.0
C2313 C 0.22237 0.0399 0.77392 0.0
C2314 C 0.24905 0.02692 0.79176 0.0
C2315 C 0.2241 0.02636 0.75913 0.0
C2316 C 0.21482 0.96908 0.81226 0.0
C2317 C 0.21435 0.96287 0.80167 0.0
C2318 C 0.22912 0.97016 0.79097 0.0
C2319 C 0.22379 0.97407 0.78184 0.0
C2320 C 0.22823 0.98262 0.77577 0.0
C2321 C 0.2382 0.98734 0.77894 0.0
C2322 C 0.24379 0.9831 0.7879 0.0
C2323 C 0.23923 0.97444 0.79372 0.0
C2324 C 0.22217 0.98677 0.76612 0.0
C2325 C 0.25442 0.98796 0.79152 0.0
C2326 C 0.28519 0.96672 0.72707 0.0
C2327 C 0.27533 0.97091 0.72353 0.0
C2328 C 0.2715 0.98058 0.72766 0.0
C2329 C 0.27756 0.98616 0.73558 0.0
C2330 C 0.2875 0.98202 0.73911 0.0
C2331 C 0.2912 0.97239 0.73476 0.0
C2332 C 0.26094 0.98484 0.72358 0.0
C2333 C 0.29416 0.98776 0.74754 0.0
C2334 C 0.27548 0.06844 0.72355 0.0
C2335 C 0.2871 0.06453 0.72372 0.0
C2336 C 0.28454 0.04516 0.72361 0.0
C2337 C 0.27711 0.03844 0.71838 0.0
C2338 C 0.27335 0.02886 0.72325 0.0
C2339 C 0.27742 0.02583 0.73345 0.0
C2340 C 0.28536 0.03237 0.73853 0.0
C2341 C 0.28877 0.04203 0.73359 0.0
C2342 C 0.26493 0.02208 0.71755 0.0
C2343 C 0.2902 0.02918 0.74921 0.0
C2344 C 0.24162 0.01666 0.77173 0.0
C2345 C 0.23817 0.007 0.77652 0.0
C2346 C 0.24235 0.99717 0.77337 0.0
C2347 C 0.25016 0.99689 0.76511 0.0
C2348 C 0.25438 0.98712 0.76158 0.0
C2349 C 0.26205 0.98693 0.75343 0.0
C2350 C 0.2658 0.99648 0.74847 0.0
C2351 C 0.2735 0.99635 0.74007 0.0
C2352 C 0.27719 0.00602 0.73547 0.0
C2353 C 0.27326 0.01589 0.73886 0.0
C2354 C 0.2654 0.01617 0.7471 0.0
C2355 C 0.26108 0.02593 0.75056 0.0
C2356 C 0.25337 0.02613 0.75868 0.0
C2357 C 0.24957 0.01657 0.76358 0.0
C2358 C 0.25382 0.00663 0.76023 0.0
C2359 C 0.2617 0.00643 0.75195 0.0
C2360 C 0.27543 0.94347 0.7232 0.0
C2361 C 0.28399 0.94986 0.71679 0.0
O2362 O 0.21901 0.05186 0.78828 0.0
O2363 O 0.28756 0.05457 0.71882 0.0
O2364 O 0.28917 0.9573 0.72337 0.0
O2365 O 0.22461 0.96236 0.79731 0.0
H2366 H 0.21914 0.04686 0.80407 0.0
H2367 H 0.20569 0.03571 0.7942 0.0
H2368 H 0.19807 0.04746 0.79084 0.0
H2369 H 0.19928 0.0431 0.80471 0.0
H2370 H 0.23622 0.04333 0.79726 0.0
H2371 H 0.2156 0.04325 0.76963 0.0
H2372 H 0.24673 0.01896 0.79521 0.0
H2373 H 0.2515 0.03231 0.79846 0.0
H2374 H 0.25609 0.02577 0.78641 0.0
H2375 H 0.21684 0.03036 0.75592 0.0
H2376 H 0.22223 0.01766 0.76022 0.0
H2377 H 0.23064 0.02714 0.75307 0.0
H2378 H 0.2089 0.96729 0.79615 0.0
H2379 H 0.20667 0.9694 0.81593 0.0
H2380 H 0.21773 0.97745 0.81073 0.0
H2381 H 0.2204 0.96523 0.81805 0.0
H2382 H 0.21614 0.97046 0.77946 0.0
H2383 H 0.24333 0.97124 0.80072 0.0
H2384 H 0.21925 0.99495 0.76782 0.0
H2385 H 0.21513 0.98153 0.76403 0.0
H2386 H 0.22762 0.98739 0.75905 0.0
H2387 H 0.25767 0.98384 0.79876 0.0
H2388 H 0.25341 0.99659 0.79338 0.0
H2389 H 0.26041 0.98747 0.78493 0.0
H2390 H 0.28008 0.95409 0.70996 0.0
H2391 H 0.27054 0.96672 0.71756 0.0
H2392 H 0.2988 0.96915 0.73744 0.0
H2393 H 0.25499 0.98485 0.73024 0.0
H2394 H 0.25755 0.97997 0.71688 0.0
H2395 H 0.26206 0.99327 0.72075 0.0
H2396 H 0.30146 0.98324 0.74982 0.0
H2397 H 0.28922 0.98902 0.75485 0.0
H2398 H 0.29673 0.9958 0.74444 0.0
H2399 H 0.28975 0.06392 0.73225 0.0
H2400 H 0.27498 0.07642 0.72744 0.0
H2401 H 0.27016 0.06271 0.72806 0.0
H2402 H 0.27248 0.06907 0.71514 0.0
H2403 H 0.27402 0.04088 0.7106 0.0
H2404 H 0.29483 0.04706 0.73745 0.0
H2405 H 0.25802 0.02035 0.72301 0.0
H2406 H 0.26843 0.01427 0.71531 0.0
H2407 H 0.2619 0.02604 0.71014 0.0
H2408 H 0.29724 0.03438 0.7514 0.0
H2409 H 0.29279 0.02069 0.74898 0.0
H2410 H 0.28403 0.0298 0.75562 0.0
H2411 H 0.23209 0.00713 0.78279 0.0
H2412 H 0.25176 0.97952 0.76509 0.0
H2413 H 0.26502 0.97917 0.75106 0.0
H2414 H 0.2831 0.00586 0.72905 0.0
H2415 H 0.26361 0.03354 0.74702 0.0
H2416 H 0.25038 0.03387 0.76106 0.0
H2417 H 0.27917 0.93926 0.73014 0.0
H2418 H 0.27136 0.93743 0.71796 0.0
H2419 H 0.2692 0.94889 0.72633 0.0
C2420 C 0.96148 0.3105 0.72129 0.0
C2421 C 0.9565 0.29993 0.71722 0.0
C2422 C 0.96377 0.28685 0.7295 0.0
C2423 C 0.96859 0.27909 0.72311 0.0
C2424 C 0.9775 0.27339 0.72691 0.0
C2425 C 0.98175 0.27567 0.73726 0.0
C2426 C 0.97677 0.28346 0.74376 0.0
C2427 C 0.96768 0.2888 0.73986 0.0
C2428 C 0.98245 0.26506 0.7198 0.0
C2429 C 0.98119 0.28634 0.75471 0.0
C2430 C 0.06481 0.28396 0.7371 0.0
C2431 C 0.05929 0.29099 0.72862 0.0
C2432 C 0.04146 0.28198 0.72754 0.0
C2433 C 0.03745 0.2858 0.73737 0.0
C2434 C 0.02751 0.28203 0.74144 0.0
C2435 C 0.0215 0.27421 0.73566 0.0
C2436 C 0.02539 0.27051 0.72568 0.0
C2437 C 0.03529 0.27452 0.72173 0.0
C2438 C 0.0235 0.2863 0.75202 0.0
C2439 C 0.01916 0.26221 0.71929 0.0
C2440 C 0.04044 0.22401 0.78468 0.0
C2441 C 0.03621 0.2336 0.78866 0.0
C2442 C 0.02652 0.23765 0.7846 0.0
C2443 C 0.02098 0.23208 0.77633 0.0
C2444 C 0.02512 0.22236 0.7724 0.0
C2445 C 0.03477 0.21843 0.77668 0.0
C2446 C 0.02224 0.24795 0.78911 0.0
C2447 C 0.01942 0.21619 0.76359 0.0
C2448 C 0.93723 0.22216 0.77678 0.0
C2449 C 0.94376 0.21387 0.78303 0.0
C2450 C 0.96154 0.22292 0.78439 0.0
C2451 C 0.9676 0.23018 0.79057 0.0
C2452 C 0.97727 0.2348 0.78667 0.0
C2453 C 0.98112 0.23184 0.77641 0.0
C2454 C 0.97522 0.22424 0.77024 0.0
C2455 C 0.96542 0.22 0.77419 0.0
C2456 C 0.98331 0.24293 0.79345 0.0
C2457 C 0.97926 0.22059 0.75943 0.0
C2458 C 0.99171 0.27033 0.74103 0.0
C2459 C 0.00158 0.27411 0.73692 0.0
C2460 C 0.01131 0.26967 0.74023 0.0
C2461 C 0.01126 0.26123 0.74793 0.0
C2462 C 0.0209 0.25661 0.75147 0.0
C2463 C 0.0208 0.24849 0.75923 0.0
C2464 C 0.01106 0.24463 0.76371 0.0
C2465 C 0.0109 0.2365 0.77173 0.0
C2466 C 0.00105 0.2326 0.77575 0.0
C2467 C 0.99128 0.23669 0.77209 0.0
C2468 C 0.99129 0.24504 0.76429 0.0
C2469 C 0.98164 0.24954 0.76061 0.0
C2470 C 0.98174 0.25772 0.75291 0.0
C2471 C 0.9915 0.26183 0.74868 0.0
C2472 C 0.00132 0.25735 0.75221 0.0
C2473 C 0.00123 0.24899 0.76007 0.0
C2474 C 0.06367 0.23371 0.78868 0.0
C2475 C 0.05751 0.22481 0.79486 0.0
O2476 O 0.95545 0.29268 0.7257 0.0
O2477 O 0.9521 0.21897 0.78858 0.0
O2478 O 0.04992 0.21988 0.78821 0.0
O2479 O 0.0512 0.28516 0.72343 0.0
H2480 H 0.96196 0.29663 0.71099 0.0
H2481 H 0.96962 0.30909 0.72468 0.0
H2482 H 0.95636 0.31395 0.72769 0.0
H2483 H 0.96234 0.31641 0.71459 0.0
H2484 H 0.96539 0.27753 0.71515 0.0
H2485 H 0.96383 0.29481 0.74472 0.0
H2486 H 0.99033 0.26816 0.71676 0.0
H2487 H 0.97725 0.26305 0.71278 0.0
H2488 H 0.98395 0.25759 0.72447 0.0
H2489 H 0.97723 0.29347 0.75814 0.0
H2490 H 0.99 0.28801 0.75422 0.0
H2491 H 0.97991 0.27947 0.76033 0.0
H2492 H 0.05579 0.29809 0.73258 0.0
H2493 H 0.07141 0.28858 0.74112 0.0
H2494 H 0.06822 0.27672 0.73331 0.0
H2495 H 0.05897 0.28129 0.74337 0.0
H2496 H 0.04201 0.29166 0.74197 0.0
H2497 H 0.03838 0.27166 0.71413 0.0
H2498 H 0.01508 0.28904 0.75114 0.0
H2499 H 0.02859 0.29309 0.75502 0.0
H2500 H 0.02348 0.27977 0.75815 0.0
H2501 H 0.02348 0.25985 0.71187 0.0
H2502 H 0.01121 0.26543 0.71697 0.0
H2503 H 0.01764 0.25492 0.72432 0.0
H2504 H 0.05341 0.22833 0.80192 0.0
H2505 H 0.04038 0.23803 0.7949 0.0
H2506 H 0.03803 0.21102 0.77368 0.0
H2507 H 0.02245 0.25429 0.78278 0.0
H2508 H 0.02699 0.25086 0.79613 0.0
H2509 H 0.01371 0.24676 0.79162 0.0
H2510 H 0.02393 0.20902 0.76107 0.0
H2511 H 0.01826 0.2215 0.75648 0.0
H2512 H 0.0113 0.21353 0.76643 0.0
H2513 H 0.94705 0.20801 0.77727 0.0
H2514 H 0.93044 0.21815 0.77246 0.0
H2515 H 0.94243 0.22635 0.77073 0.0
H2516 H 0.93397 0.22826 0.78232 0.0
H2517 H 0.96461 0.23239 0.79843 0.0
H2518 H 0.96098 0.21437 0.76923 0.0
H2519 H 0.98498 0.25036 0.78868 0.0
H2520 H 0.99119 0.23962 0.7959 0.0
H2521 H 0.97878 0.24507 0.80081 0.0
H2522 H 0.97453 0.21361 0.7563 0.0
H2523 H 0.98786 0.21834 0.76001 0.0
H2524 H 0.97872 0.22728 0.75352 0.0
H2525 H 0.00171 0.28067 0.73112 0.0
H2526 H 0.02865 0.25925 0.74832 0.0
H2527 H 0.02848 0.24529 0.76167 0.0
H2528 H 0.00098 0.22627 0.78181 0.0
H2529 H 0.97389 0.2468 0.76366 0.0
H2530 H 0.97406 0.26082 0.75034 0.0
H2531 H 0.06984 0.23757 0.79396 0.0
H2532 H 0.0581 0.24003 0.78592 0.0
H2533 H 0.06773 0.23036 0.78151 0.0
C2534 C 0.79082 0.95897 0.80994 0.0
C2535 C 0.78699 0.951 0.80131 0.0
C2536 C 0.78326 0.96362 0.78644 0.0
C2537 C 0.7737 0.96773 0.79072 0.0
C2538 C 0.76875 0.97663 0.78596 0.0
C2539 C 0.77342 0.98153 0.77672 0.0
C2540 C 0.78285 0.97724 0.77221 0.0
C2541 C 0.78761 0.96829 0.7771 0.0
C2542 C 0.75862 0.98092 0.7909 0.0
C2543 C 0.78801 0.98224 0.76234 0.0
C2544 C 0.77849 0.06468 0.77922 0.0
C2545 C 0.78737 0.05919 0.78571 0.0
C2546 C 0.77991 0.04071 0.78646 0.0
C2547 C 0.78311 0.03756 0.77611 0.0
C2548 C 0.77946 0.02778 0.77174 0.0
C2549 C 0.77218 0.02114 0.77768 0.0
C2550 C 0.76902 0.02424 0.78814 0.0
C2551 C 0.77305 0.03392 0.79243 0.0
C2552 C 0.78338 0.02457 0.76074 0.0
C2553 C 0.7613 0.01738 0.79475 0.0
C2554 C 0.72359 0.03994 0.72693 0.0
C2555 C 0.73395 0.03664 0.72401 0.0
C2556 C 0.73812 0.02699 0.72799 0.0
C2557 C 0.73191 0.02059 0.73524 0.0
C2558 C 0.72144 0.02383 0.73811 0.0
C2559 C 0.71738 0.03341 0.73382 0.0
C2560 C 0.7492 0.02365 0.72448 0.0
C2561 C 0.71457 0.01723 0.74581 0.0
C2562 C 0.73251 0.93707 0.72893 0.0
C2563 C 0.72169 0.94218 0.72629 0.0
C2564 C 0.72634 0.96127 0.72495 0.0
C2565 C 0.73434 0.96751 0.71986 0.0
C2566 C 0.73799 0.97727 0.7243 0.0
C2567 C 0.73333 0.98095 0.73395 0.0
C2568 C 0.72487 0.97491 0.73887 0.0
C2569 C 0.72147 0.96512 0.73432 0.0
C2570 C 0.74695 0.98356 0.71879 0.0
C2571 C 0.71948 0.97878 0.74897 0.0
C2572 C 0.76873 0.99147 0.77216 0.0
C2573 C 0.77221 0.0013 0.77645 0.0
C2574 C 0.76787 0.01099 0.77294 0.0
C2575 C 0.75976 0.01092 0.76492 0.0
C2576 C 0.75492 0.02047 0.76146 0.0
C2577 C 0.74721 0.02036 0.75332 0.0
C2578 C 0.744 0.0107 0.74834 0.0
C2579 C 0.73641 0.01056 0.73983 0.0
C2580 C 0.73316 0.00076 0.7353 0.0
C2581 C 0.73734 0.99106 0.73897 0.0
C2582 C 0.74513 0.99106 0.7473 0.0
C2583 C 0.74966 0.98147 0.75107 0.0
C2584 C 0.75733 0.98156 0.75925 0.0
C2585 C 0.76085 0.99127 0.76393 0.0
C2586 C 0.75637 0.00104 0.76028 0.0
C2587 C 0.74848 0.00093 0.75198 0.0
C2588 C 0.73175 0.06389 0.72664 0.0
C2589 C 0.72466 0.05789 0.71843 0.0
O2590 O 0.78863 0.95533 0.7911 0.0
O2591 O 0.72343 0.95167 0.72056 0.0
O2592 O 0.71927 0.04931 0.72337 0.0
O2593 O 0.78317 0.05017 0.79098 0.0
H2594 H 0.77827 0.9491 0.80247 0.0
H2595 H 0.78612 0.96645 0.80955 0.0
H2596 H 0.79948 0.96112 0.80879 0.0
H2597 H 0.78971 0.95541 0.8181 0.0
H2598 H 0.77009 0.96415 0.79783 0.0
H2599 H 0.79492 0.96504 0.77379 0.0
H2600 H 0.7602 0.9892 0.79385 0.0
H2601 H 0.75564 0.97587 0.79773 0.0
H2602 H 0.75217 0.98137 0.78471 0.0
H2603 H 0.79523 0.97784 0.75969 0.0
H2604 H 0.79042 0.9907 0.76404 0.0
H2605 H 0.78209 0.98237 0.75564 0.0
H2606 H 0.79395 0.05682 0.7802 0.0
H2607 H 0.78177 0.07193 0.775 0.0
H2608 H 0.77183 0.06708 0.78462 0.0
H2609 H 0.77515 0.05913 0.77305 0.0
H2610 H 0.78851 0.04261 0.77139 0.0
H2611 H 0.77068 0.03636 0.80043 0.0
H2612 H 0.78568 0.016 0.76074 0.0
H2613 H 0.79041 0.02956 0.75805 0.0
H2614 H 0.77679 0.02555 0.75479 0.0
H2615 H 0.75859 0.02156 0.80211 0.0
H2616 H 0.76533 0.00988 0.79722 0.0
H2617 H 0.75412 0.01508 0.78988 0.0
H2618 H 0.72978 0.05489 0.7118 0.0
H2619 H 0.73888 0.04149 0.71861 0.0
H2620 H 0.70938 0.03596 0.736 0.0
H2621 H 0.75489 0.02444 0.73134 0.0
H2622 H 0.75234 0.02866 0.71769 0.0
H2623 H 0.74903 0.0151 0.72199 0.0
H2624 H 0.70701 0.02132 0.74798 0.0
H2625 H 0.71917 0.01553 0.75328 0.0
H2626 H 0.71243 0.0094 0.74207 0.0
H2627 H 0.71758 0.94377 0.73403 0.0
H2628 H 0.7312 0.92936 0.73334 0.0
H2629 H 0.73739 0.94254 0.73412 0.0
H2630 H 0.73713 0.93554 0.72146 0.0
H2631 H 0.73793 0.96455 0.71254 0.0
H2632 H 0.71489 0.96063 0.73803 0.0
H2633 H 0.75376 0.98483 0.72447 0.0
H2634 H 0.74402 0.9916 0.71639 0.0
H2635 H 0.74996 0.97944 0.71152 0.0
H2636 H 0.71257 0.97351 0.75143 0.0
H2637 H 0.71657 0.98707 0.74772 0.0
H2638 H 0.72542 0.97904 0.75565 0.0
H2639 H 0.77838 0.00141 0.78265 0.0
H2640 H 0.75708 0.02815 0.76497 0.0
H2641 H 0.74381 0.02797 0.75096 0.0
H2642 H 0.7273 1.00069 0.72881 0.0
H2643 H 0.74733 0.97376 0.74771 0.0
H2644 H 0.76054 0.97394 0.76181 0.0
H2645 H 0.73602 0.07081 0.72274 0.0
H2646 H 0.73791 0.05849 0.73003 0.0
H2647 H 0.72675 0.06689 0.73336 0.0
C2648 C 0.29969 0.77297 0.56511 0.0
C2649 C 0.30172 0.78382 0.55943 0.0
C2650 C 0.28848 0.78326 0.54459 0.0
C2651 C 0.2788 0.78743 0.54082 0.0
C2652 C 0.27406 0.78378 0.5312 0.0
C2653 C 0.2791 0.77563 0.52527 0.0
C2654 C 0.28895 0.77142 0.52897 0.0
C2655 C 0.29358 0.77532 0.53853 0.0
C2656 C 0.26366 0.78859 0.52741 0.0
C2657 C 0.29457 0.76274 0.52283 0.0
C2658 C 0.30412 0.79289 0.4423 0.0
C2659 C 0.30137 0.78643 0.4521 0.0
C2660 C 0.28825 0.78553 0.46681 0.0
C2661 C 0.29189 0.77575 0.47109 0.0
C2662 C 0.2872 0.77123 0.48041 0.0
C2663 C 0.27861 0.77651 0.4855 0.0
C2664 C 0.27482 0.78626 0.48112 0.0
C2665 C 0.27971 0.79064 0.47184 0.0
C2666 C 0.29148 0.76085 0.48488 0.0
C2667 C 0.26563 0.79205 0.4863 0.0
C2668 C 0.22896 0.72536 0.46613 0.0
C2669 C 0.23856 0.72161 0.47073 0.0
C2670 C 0.24265 0.72603 0.48031 0.0
C2671 C 0.23708 0.7344 0.48539 0.0
C2672 C 0.22737 0.73813 0.48085 0.0
C2673 C 0.22343 0.73351 0.4713 0.0
C2674 C 0.25294 0.72175 0.48502 0.0
C2675 C 0.22122 0.74702 0.48606 0.0
C2676 C 0.22316 0.7348 0.56754 0.0
C2677 C 0.2173 0.72591 0.5612 0.0
C2678 C 0.22804 0.72575 0.54449 0.0
C2679 C 0.23621 0.72043 0.53907 0.0
C2680 C 0.24068 0.72462 0.5295 0.0
C2681 C 0.23678 0.73434 0.52518 0.0
C2682 C 0.22837 0.73968 0.53048 0.0
C2683 C 0.22412 0.73537 0.54009 0.0
C2684 C 0.24962 0.7187 0.52405 0.0
C2685 C 0.22391 0.74998 0.526 0.0
C2686 C 0.27411 0.7715 0.51518 0.0
C2687 C 0.2779 0.77569 0.50538 0.0
C2688 C 0.27381 0.77197 0.49556 0.0
C2689 C 0.26561 0.7639 0.49546 0.0
C2690 C 0.26125 0.76002 0.48575 0.0
C2691 C 0.25331 0.75196 0.48573 0.0
C2692 C 0.24938 0.74748 0.49542 0.0
C2693 C 0.24139 0.73919 0.49548 0.0
C2694 C 0.23751 0.7351 0.50528 0.0
C2695 C 0.24148 0.73893 0.51509 0.0
C2696 C 0.24965 0.74703 0.51519 0.0
C2697 C 0.25405 0.75086 0.5249 0.0
C2698 C 0.26208 0.75885 0.52492 0.0
C2699 C 0.26598 0.76336 0.51523 0.0
C2700 C 0.2617 0.75957 0.50534 0.0
C2701 C 0.25356 0.75137 0.50532 0.0
C2702 C 0.23859 0.7202 0.44334 0.0
C2703 C 0.22956 0.71441 0.44967 0.0
O2704 O 0.2925 0.78707 0.55409 0.0
O2705 O 0.22428 0.72135 0.55388 0.0
O2706 O 0.22478 0.72144 0.45675 0.0
O2707 O 0.29276 0.79029 0.45794 0.0
H2708 H 0.3084 0.78301 0.55355 0.0
H2709 H 0.29772 0.7666 0.55919 0.0
H2710 H 0.29285 0.77346 0.57084 0.0
H2711 H 0.30701 0.77054 0.56959 0.0
H2712 H 0.27492 0.79358 0.54548 0.0
H2713 H 0.30114 0.77205 0.54119 0.0
H2714 H 0.26452 0.79148 0.51897 0.0
H2715 H 0.26116 0.79539 0.53251 0.0
H2716 H 0.25716 0.78233 0.52753 0.0
H2717 H 0.30178 0.75976 0.52714 0.0
H2718 H 0.29715 0.76593 0.51485 0.0
H2719 H 0.28892 0.75587 0.52139 0.0
H2720 H 0.30842 0.78439 0.45726 0.0
H2721 H 0.31246 0.79626 0.44383 0.0
H2722 H 0.30004 0.80084 0.4432 0.0
H2723 H 0.30068 0.78234 0.42968 0.0
H2724 H 0.29842 0.77162 0.46726 0.0
H2725 H 0.27691 0.79815 0.46848 0.0
H2726 H 0.28499 0.75457 0.48481 0.0
H2727 H 0.29402 0.76197 0.49337 0.0
H2728 H 0.29844 0.75791 0.4802 0.0
H2729 H 0.26323 0.79924 0.48159 0.0
H2730 H 0.26803 0.79464 0.49451 0.0
H2731 H 0.25854 0.78652 0.48714 0.0
H2732 H 0.23295 0.70755 0.45424 0.0
H2733 H 0.24296 0.71527 0.46693 0.0
H2734 H 0.21602 0.73635 0.46775 0.0
H2735 H 0.25923 0.72823 0.48506 0.0
H2736 H 0.25602 0.71484 0.48043 0.0
H2737 H 0.25158 0.71919 0.4935 0.0
H2738 H 0.21404 0.74933 0.4813 0.0
H2739 H 0.22657 0.75421 0.48706 0.0
H2740 H 0.21853 0.74441 0.49421 0.0
H2741 H 0.21033 0.72935 0.55683 0.0
H2742 H 0.21761 0.73837 0.57348 0.0
H2743 H 0.22605 0.74132 0.56206 0.0
H2744 H 0.23022 0.73153 0.57187 0.0
H2745 H 0.23918 0.71301 0.54246 0.0
H2746 H 0.21775 0.7396 0.54408 0.0
H2747 H 0.25673 0.72415 0.52293 0.0
H2748 H 0.24692 0.71608 0.51594 0.0
H2749 H 0.25212 0.71152 0.52871 0.0
H2750 H 0.21691 0.7528 0.53069 0.0
H2751 H 0.22138 0.74881 0.5175 0.0
H2752 H 0.23029 0.75636 0.52607 0.0
H2753 H 0.28421 0.78184 0.50539 0.0
H2754 H 0.26396 0.76317 0.47804 0.0
H2755 H 0.25027 0.74928 0.47801 0.0
H2756 H 0.23133 0.72881 0.50526 0.0
H2757 H 0.25137 0.74771 0.53261 0.0
H2758 H 0.26517 0.76145 0.53264 0.0
H2759 H 0.24234 0.71461 0.43759 0.0
H2760 H 0.23536 0.72716 0.4388 0.0
H2761 H 0.24498 0.72321 0.44886 0.0
C2762 C 0.793 0.69932 0.46106 0.0
C2763 C 0.78799 0.70683 0.45266 0.0
C2764 C 0.78436 0.72241 0.46412 0.0
C2765 C 0.77529 0.71794 0.46943 0.0
C2766 C 0.77078 0.72305 0.47834 0.0
C2767 C 0.77544 0.7328 0.48207 0.0
C2768 C 0.78438 0.73746 0.47659 0.0
C2769 C 0.78865 0.73224 0.46761 0.0
C2770 C 0.76114 0.71793 0.48391 0.0
C2771 C 0.78958 0.74782 0.48038 0.0
C2772 C 0.80004 0.70288 0.53939 0.0
C2773 C 0.79935 0.71194 0.54765 0.0
C2774 C 0.78479 0.72198 0.53942 0.0
C2775 C 0.7907 0.73014 0.5341 0.0
C2776 C 0.78628 0.73565 0.5253 0.0
C2777 C 0.77578 0.73285 0.52169 0.0
C2778 C 0.76969 0.72482 0.52724 0.0
C2779 C 0.77423 0.71963 0.53618 0.0
C2780 C 0.79291 0.74434 0.51973 0.0
C2781 C 0.75854 0.72149 0.52354 0.0
C2782 C 0.73014 0.78601 0.54073 0.0
C2783 C 0.73982 0.78946 0.53579 0.0
C2784 C 0.7434 0.78469 0.52627 0.0
C2785 C 0.73727 0.7762 0.52165 0.0
C2786 C 0.72752 0.77272 0.52656 0.0
C2787 C 0.72407 0.77771 0.53602 0.0
C2788 C 0.75377 0.7887 0.52115 0.0
C2789 C 0.7208 0.76368 0.52185 0.0
C2790 C 0.72632 0.77354 0.43901 0.0
C2791 C 0.71846 0.78103 0.44459 0.0
C2792 C 0.72726 0.78267 0.46231 0.0
C2793 C 0.73492 0.78873 0.46799 0.0
C2794 C 0.7393 0.78494 0.47769 0.0
C2795 C 0.73568 0.77493 0.48194 0.0
C2796 C 0.7276 0.76893 0.47645 0.0
C2797 C 0.72357 0.77278 0.46662 0.0
C2798 C 0.74789 0.79158 0.48331 0.0
C2799 C 0.72326 0.75839 0.48092 0.0
C2800 C 0.77134 0.73774 0.49207 0.0
C2801 C 0.77508 0.73371 0.50188 0.0
C2802 C 0.7715 0.73777 0.51167 0.0
C2803 C 0.764 0.74617 0.51175 0.0
C2804 C 0.76036 0.75058 0.52144 0.0
C2805 C 0.75283 0.75871 0.52143 0.0
C2806 C 0.7487 0.7628 0.51171 0.0
C2807 C 0.74103 0.77106 0.51161 0.0
C2808 C 0.73696 0.7748 0.50181 0.0
C2809 C 0.74046 0.77065 0.49203 0.0
C2810 C 0.74828 0.76254 0.49195 0.0
C2811 C 0.75218 0.75834 0.48225 0.0
C2812 C 0.75971 0.75021 0.48226 0.0
C2813 C 0.76373 0.74604 0.49197 0.0
C2814 C 0.76004 0.75025 0.50185 0.0
C2815 C 0.75233 0.75853 0.50184 0.0
C2816 C 0.74032 0.79273 0.56317 0.0
C2817 C 0.7315 0.79798 0.55641 0.0
O2818 O 0.7893 0.71747 0.45576 0.0
O2819 O 0.72371 0.78665 0.45273 0.0
O2820 O 0.72636 0.79037 0.55 0.0
O2821 O 0.78907 0.71613 0.54759 0.0
H2822 H 0.77926 0.70484 0.45182 0.0
H2823 H 0.7889 0.70006 0.46894 0.0
H2824 H 0.80169 0.70134 0.46217 0.0
H2825 H 0.79215 0.69082 0.45847 0.0
H2826 H 0.77173 0.71042 0.46679 0.0
H2827 H 0.79559 0.73568 0.46344 0.0
H2828 H 0.76352 0.71519 0.49208 0.0
H2829 H 0.75781 0.71093 0.47942 0.0
H2830 H 0.75471 0.72392 0.48487 0.0
H2831 H 0.79663 0.7503 0.47537 0.0
H2832 H 0.79227 0.74691 0.48886 0.0
H2833 H 0.7836 0.75433 0.48015 0.0
H2834 H 0.80539 0.71831 0.54552 0.0
H2835 H 0.80821 0.69937 0.53948 0.0
H2836 H 0.79852 0.70606 0.53117 0.0
H2837 H 0.79396 0.69644 0.5412 0.0
H2838 H 0.79874 0.73229 0.5368 0.0
H2839 H 0.7697 0.71339 0.54043 0.0
H2840 H 0.79538 0.74149 0.51167 0.0
H2841 H 0.80028 0.74656 0.52435 0.0
H2842 H 0.78803 0.75163 0.51852 0.0
H2843 H 0.75519 0.71459 0.52826 0.0
H2844 H 0.75873 0.71925 0.5149 0.0
H2845 H 0.75303 0.72835 0.52433 0.0
H2846 H 0.73517 0.80441 0.55126 0.0
H2847 H 0.74468 0.79585 0.53925 0.0
H2848 H 0.71661 0.77509 0.53985 0.0
H2849 H 0.75976 0.7822 0.52127 0.0
H2850 H 0.75728 0.7958 0.52536 0.0
H2851 H 0.75232 0.7909 0.5126 0.0
H2852 H 0.71369 0.76155 0.52693 0.0
H2853 H 0.72579 0.75645 0.52091 0.0
H2854 H 0.71793 0.76604 0.51372 0.0
H2855 H 0.71161 0.77623 0.44801 0.0
H2856 H 0.72219 0.76907 0.43243 0.0
H2857 H 0.72947 0.76757 0.44483 0.0
H2858 H 0.73324 0.77823 0.43558 0.0
H2859 H 0.73766 0.79638 0.46465 0.0
H2860 H 0.71755 0.76801 0.46244 0.0
H2861 H 0.755 0.78659 0.48506 0.0
H2862 H 0.74472 0.79443 0.49111 0.0
H2863 H 0.75053 0.79868 0.47845 0.0
H2864 H 0.71588 0.75558 0.47664 0.0
H2865 H 0.72137 0.75916 0.48962 0.0
H2866 H 0.72947 0.75216 0.48013 0.0
H2867 H 0.78083 0.72726 0.50188 0.0
H2868 H 0.76327 0.74776 0.52916 0.0
H2869 H 0.75026 0.76174 0.52914 0.0
H2870 H 0.73102 0.78108 0.50181 0.0
H2871 H 0.74942 0.76127 0.47452 0.0
H2872 H 0.76234 0.74723 0.47455 0.0
H2873 H 0.74436 0.7988 0.5684 0.0
H2874 H 0.73684 0.78619 0.56831 0.0
H2875 H 0.74654 0.78924 0.5579 0.0
C2876 C 0.80412 0.30144 0.54071 0.0
C2877 C 0.79469 0.29974 0.54855 0.0
C2878 C 0.78614 0.28379 0.54081 0.0
C2879 C 0.77725 0.28835 0.53563 0.0
C2880 C 0.77219 0.28316 0.52693 0.0
C2881 C 0.77611 0.27322 0.52331 0.0
C2882 C 0.78482 0.26842 0.52878 0.0
C2883 C 0.78962 0.27371 0.53757 0.0
C2884 C 0.76275 0.28838 0.52147 0.0
C2885 C 0.78925 0.25786 0.52512 0.0
C2886 C 0.80312 0.30015 0.46395 0.0
C2887 C 0.80055 0.29126 0.45581 0.0
C2888 C 0.78545 0.28254 0.46533 0.0
C2889 C 0.79108 0.27468 0.47108 0.0
C2890 C 0.78649 0.26958 0.48014 0.0
C2891 C 0.7761 0.2725 0.48364 0.0
C2892 C 0.77032 0.28028 0.47774 0.0
C2893 C 0.77501 0.28504 0.46853 0.0
C2894 C 0.7928 0.26115 0.48607 0.0
C2895 C 0.75933 0.28377 0.48131 0.0
C2896 C 0.72741 0.22039 0.46536 0.0
C2897 C 0.73683 0.21649 0.4702 0.0
C2898 C 0.74084 0.22096 0.47979 0.0
C2899 C 0.73539 0.22955 0.48462 0.0
C2900 C 0.72583 0.23339 0.47987 0.0
C2901 C 0.72195 0.22872 0.47033 0.0
C2902 C 0.75097 0.21656 0.48474 0.0
C2903 C 0.71978 0.24251 0.48482 0.0
C2904 C 0.72017 0.23365 0.5664 0.0
C2905 C 0.71437 0.22449 0.56039 0.0
C2906 C 0.72538 0.22348 0.54391 0.0
C2907 C 0.73365 0.21791 0.53893 0.0
C2908 C 0.7383 0.22163 0.52926 0.0
C2909 C 0.73448 0.23112 0.52438 0.0
C2910 C 0.72596 0.2367 0.52923 0.0
C2911 C 0.72153 0.23287 0.53896 0.0
C2912 C 0.74736 0.21547 0.5243 0.0
C2913 C 0.72155 0.24675 0.52415 0.0
C2914 C 0.77156 0.26824 0.51341 0.0
C2915 C 0.7754 0.27209 0.5035 0.0
C2916 C 0.77159 0.26786 0.49379 0.0
C2917 C 0.76372 0.25947 0.49391 0.0
C2918 C 0.75985 0.25486 0.48432 0.0
C2919 C 0.75198 0.24673 0.48452 0.0
C2920 C 0.74775 0.24281 0.49432 0.0
C2921 C 0.73973 0.23456 0.4946 0.0
C2922 C 0.73565 0.23091 0.50449 0.0
C2923 C 0.73939 0.23524 0.51419 0.0
C2924 C 0.74747 0.24343 0.51408 0.0
C2925 C 0.7515 0.2479 0.52368 0.0
C2926 C 0.75937 0.25603 0.52349 0.0
C2927 C 0.76357 0.25997 0.51369 0.0
C2928 C 0.75965 0.25557 0.5039 0.0
C2929 C 0.75163 0.24725 0.5041 0.0
C2930 C 0.73743 0.21513 0.44283 0.0
C2931 C 0.72819 0.20942 0.44892 0.0
O2932 O 0.79158 0.28896 0.54882 0.0
O2933 O 0.72145 0.21954 0.55343 0.0
O2934 O 0.72334 0.21648 0.45594 0.0
O2935 O 0.78984 0.28795 0.45677 0.0
H2936 H 0.7879 0.3047 0.54569 0.0
H2937 H 0.80158 0.29921 0.53244 0.0
H2938 H 0.81103 0.2964 0.54308 0.0
H2939 H 0.80677 0.31002 0.54058 0.0
H2940 H 0.77418 0.29592 0.53837 0.0
H2941 H 0.7964 0.27019 0.5417 0.0
H2942 H 0.76511 0.29096 0.51322 0.0
H2943 H 0.75995 0.29552 0.52591 0.0
H2944 H 0.75593 0.28252 0.52072 0.0
H2945 H 0.79623 0.25531 0.53006 0.0
H2946 H 0.79182 0.25852 0.51658 0.0
H2947 H 0.78285 0.25151 0.52561 0.0
H2948 H 0.80591 0.28439 0.45738 0.0
H2949 H 0.81164 0.30294 0.46317 0.0
H2950 H 0.80192 0.29708 0.47229 0.0
H2951 H 0.79776 0.30709 0.46265 0.0
H2952 H 0.79903 0.2724 0.46851 0.0
H2953 H 0.77068 0.29105 0.464 0.0
H2954 H 0.79542 0.26435 0.49399 0.0
H2955 H 0.80007 0.25874 0.48155 0.0
H2956 H 0.78764 0.2539 0.48761 0.0
H2957 H 0.75632 0.29059 0.47641 0.0
H2958 H 0.75958 0.2862 0.48989 0.0
H2959 H 0.75349 0.27694 0.48063 0.0
H2960 H 0.7314 0.2025 0.45354 0.0
H2961 H 0.74115 0.21 0.46657 0.0
H2962 H 0.71467 0.23166 0.4666 0.0
H2963 H 0.75741 0.22288 0.48467 0.0
H2964 H 0.75392 0.20945 0.48037 0.0
H2965 H 0.74946 0.21426 0.49326 0.0
H2966 H 0.71268 0.24483 0.47994 0.0
H2967 H 0.72524 0.24963 0.48569 0.0
H2968 H 0.717 0.24014 0.49301 0.0
H2969 H 0.7075 0.22776 0.55573 0.0
H2970 H 0.71454 0.23753 0.57205 0.0
H2971 H 0.72319 0.23988 0.56066 0.0
H2972 H 0.72714 0.23055 0.57101 0.0
H2973 H 0.73656 0.21066 0.54275 0.0
H2974 H 0.7151 0.23729 0.5426 0.0
H2975 H 0.75449 0.22088 0.52306 0.0
H2976 H 0.74483 0.21246 0.51628 0.0
H2977 H 0.74978 0.20853 0.52936 0.0
H2978 H 0.71439 0.24972 0.52848 0.0
H2979 H 0.71929 0.24519 0.51564 0.0
H2980 H 0.72788 0.25318 0.52412 0.0
H2981 H 0.78146 0.2785 0.50335 0.0
H2982 H 0.76283 0.25753 0.47655 0.0
H2983 H 0.74925 0.24356 0.47688 0.0
H2984 H 0.72945 0.22464 0.50464 0.0
H2985 H 0.7486 0.24516 0.53147 0.0
H2986 H 0.76213 0.2592 0.53113 0.0
H2987 H 0.74122 0.20952 0.43711 0.0
H2988 H 0.74375 0.21801 0.44849 0.0
H2989 H 0.73439 0.22217 0.43827 0.0
C2990 C 0.20132 0.30309 0.46772 0.0
C2991 C 0.21089 0.30275 0.45995 0.0
C2992 C 0.22062 0.28745 0.46684 0.0
C2993 C 0.22988 0.29246 0.47114 0.0
C2994 C 0.23558 0.28766 0.4796 0.0
C2995 C 0.23192 0.27765 0.48384 0.0
C2996 C 0.22288 0.27236 0.47918 0.0
C2997 C 0.21742 0.27728 0.47062 0.0
C2998 C 0.24536 0.29339 0.48419 0.0
C2999 C 0.21876 0.26168 0.4835 0.0
C3000 C 0.21307 0.31029 0.54122 0.0
C3001 C 0.21195 0.30043 0.54863 0.0
C3002 C 0.22583 0.2893 0.54117 0.0
C3003 C 0.21987 0.28088 0.53648 0.0
C3004 C 0.22395 0.2753 0.52764 0.0
C3005 C 0.23415 0.27832 0.52337 0.0
C3006 C 0.24032 0.28662 0.52833 0.0
C3007 C 0.23613 0.29187 0.53732 0.0
C3008 C 0.21727 0.26634 0.52273 0.0
C3009 C 0.25114 0.29019 0.52391 0.0
C3010 C 0.28209 0.22782 0.54167 0.0
C3011 C 0.27227 0.22407 0.53727 0.0
C3012 C 0.26837 0.22829 0.52755 0.0
C3013 C 0.27429 0.23656 0.5222 0.0
C3014 C 0.28427 0.2402 0.52648 0.0
C3015 C 0.2881 0.23566 0.5361 0.0
C3016 C 0.25788 0.22393 0.52301 0.0
C3017 C 0.29079 0.249 0.52097 0.0
C3018 C 0.28803 0.24183 0.43977 0.0
C3019 C 0.29423 0.23341 0.44621 0.0
C3020 C 0.28342 0.23153 0.46277 0.0
C3021 C 0.27568 0.22516 0.4681 0.0
C3022 C 0.2711 0.22845 0.47784 0.0
C3023 C 0.27448 0.23832 0.48243 0.0
C3024 C 0.28247 0.24473 0.47722 0.0
C3025 C 0.28679 0.24133 0.46741 0.0
C3026 C 0.26258 0.22143 0.48318 0.0
C3027 C 0.28643 0.25521 0.48199 0.0
C3028 C 0.23702 0.27319 0.49367 0.0
C3029 C 0.23364 0.27713 0.50358 0.0
C3030 C 0.23798 0.27339 0.51325 0.0
C3031 C 0.24586 0.26535 0.51309 0.0
C3032 C 0.25021 0.26119 0.52267 0.0
C3033 C 0.25809 0.25341 0.52242 0.0
C3034 C 0.26189 0.24944 0.51258 0.0
C3035 C 0.2699 0.24151 0.51225 0.0
C3036 C 0.27371 0.23797 0.50233 0.0
C3037 C 0.26964 0.24203 0.49265 0.0
C3038 C 0.2614 0.24971 0.49282 0.0
C3039 C 0.25689 0.25372 0.48324 0.0
C3040 C 0.24889 0.2614 0.48349 0.0
C3041 C 0.24509 0.26535 0.49332 0.0
C3042 C 0.2495 0.26139 0.50308 0.0
C3043 C 0.25759 0.2535 0.50283 0.0
C3044 C 0.27488 0.22931 0.56583 0.0
C3045 C 0.2801 0.22006 0.55982 0.0
O3046 O 0.21454 0.29232 0.45921 0.0
O3047 O 0.28734 0.22794 0.45323 0.0
O3048 O 0.28606 0.22406 0.55118 0.0
O3049 O 0.22171 0.29522 0.54926 0.0
H3050 H 0.21736 0.30814 0.46317 0.0
H3051 H 0.20389 0.3006 0.47591 0.0
H3052 H 0.19471 0.29758 0.46503 0.0
H3053 H 0.19821 0.31139 0.4682 0.0
H3054 H 0.23266 0.30012 0.46791 0.0
H3055 H 0.21034 0.27342 0.46713 0.0
H3056 H 0.24354 0.29611 0.49247 0.0
H3057 H 0.24785 0.30051 0.47927 0.0
H3058 H 0.25221 0.28781 0.48473 0.0
H3059 H 0.2116 0.25863 0.47901 0.0
H3060 H 0.21658 0.26249 0.49212 0.0
H3061 H 0.22521 0.25566 0.48301 0.0
H3062 H 0.20566 0.29493 0.54523 0.0
H3063 H 0.20532 0.31459 0.54075 0.0
H3064 H 0.21525 0.30777 0.53296 0.0
H3065 H 0.21945 0.31589 0.54425 0.0
H3066 H 0.21202 0.27867 0.5397 0.0
H3067 H 0.24069 0.29834 0.54109 0.0
H3068 H 0.21416 0.269 0.51479 0.0
H3069 H 0.21029 0.26395 0.52788 0.0
H3070 H 0.2223 0.2592 0.52138 0.0
H3071 H 0.25451 0.29732 0.52818 0.0
H3072 H 0.25043 0.29218 0.51521 0.0
H3073 H 0.25692 0.28355 0.5247 0.0
H3074 H 0.27361 0.21452 0.55697 0.0
H3075 H 0.26763 0.21776 0.54121 0.0
H3076 H 0.29571 0.23843 0.53947 0.0
H3077 H 0.25167 0.2302 0.52345 0.0
H3078 H 0.25488 0.2167 0.52745 0.0
H3079 H 0.2589 0.22184 0.5144 0.0
H3080 H 0.29808 0.25137 0.52566 0.0
H3081 H 0.28576 0.25618 0.51975 0.0
H3082 H 0.29336 0.24624 0.51291 0.0
H3083 H 0.30079 0.23748 0.45083 0.0
H3084 H 0.29351 0.24612 0.43404 0.0
H3085 H 0.28457 0.24787 0.44523 0.0
H3086 H 0.28133 0.23796 0.43518 0.0
H3087 H 0.27313 0.21762 0.46451 0.0
H3088 H 0.29275 0.24643 0.46347 0.0
H3089 H 0.25524 0.22616 0.48466 0.0
H3090 H 0.26557 0.21861 0.49111 0.0
H3091 H 0.26035 0.21431 0.47825 0.0
H3092 H 0.29345 0.2587 0.47756 0.0
H3093 H 0.28875 0.254 0.49054 0.0
H3094 H 0.27984 0.2611 0.48179 0.0
H3095 H 0.22756 0.28328 0.50377 0.0
H3096 H 0.24757 0.26393 0.53047 0.0
H3097 H 0.26119 0.25057 0.53005 0.0
H3098 H 0.27995 0.232 0.50213 0.0
H3099 H 0.25949 0.25097 0.47544 0.0
H3100 H 0.24574 0.26423 0.47588 0.0
H3101 H 0.27026 0.22619 0.57288 0.0
H3102 H 0.2692 0.23354 0.56042 0.0
H3103 H 0.28111 0.23519 0.56863 0.0
C3104 C 0.80567 0.54048 0.70597 0.0
C3105 C 0.79719 0.54911 0.70763 0.0
C3106 C 0.78757 0.54086 0.72277 0.0
C3107 C 0.77876 0.53609 0.71741 0.0
C3108 C 0.77297 0.52745 0.72208 0.0
C3109 C 0.77613 0.52344 0.73227 0.0
C3110 C 0.78483 0.52843 0.73781 0.0
C3111 C 0.79031 0.53723 0.73306 0.0
C3112 C 0.76356 0.5225 0.71605 0.0
C3113 C 0.78855 0.52428 0.74861 0.0
C3114 C 0.79243 0.46443 0.69802 0.0
C3115 C 0.79457 0.4588 0.70879 0.0
C3116 C 0.78108 0.46611 0.72053 0.0
C3117 C 0.7871 0.47086 0.72884 0.0
C3118 C 0.78315 0.4797 0.73446 0.0
C3119 C 0.77302 0.48394 0.73161 0.0
C3120 C 0.76681 0.47894 0.72341 0.0
C3121 C 0.77085 0.46994 0.7181 0.0
C3122 C 0.78991 0.48466 0.74329 0.0
C3123 C 0.75607 0.48331 0.71998 0.0
C3124 C 0.72433 0.46599 0.78313 0.0
C3125 C 0.73396 0.47056 0.78718 0.0
C3126 C 0.73825 0.48017 0.78285 0.0
C3127 C 0.73288 0.48529 0.77424 0.0
C3128 C 0.72311 0.48082 0.77025 0.0
C3129 C 0.71894 0.47125 0.7748 0.0
C3130 C 0.74861 0.48482 0.78739 0.0
C3131 C 0.71717 0.48608 0.76109 0.0
C3132 C 0.72612 0.56818 0.77285 0.0
C3133 C 0.71808 0.56227 0.78027 0.0
C3134 C 0.72649 0.54453 0.78145 0.0
C3135 C 0.73372 0.53845 0.78745 0.0
C3136 C 0.73778 0.5288 0.78348 0.0
C3137 C 0.73431 0.525 0.77331 0.0
C3138 C 0.72673 0.53094 0.76731 0.0
C3139 C 0.72302 0.5407 0.77136 0.0
C3140 C 0.74584 0.5227 0.79012 0.0
C3141 C 0.72255 0.52699 0.7566 0.0
C3142 C 0.77077 0.51362 0.73678 0.0
C3143 C 0.77391 0.50371 0.73274 0.0
C3144 C 0.76935 0.49406 0.73658 0.0
C3145 C 0.76149 0.49426 0.74481 0.0
C3146 C 0.75694 0.48472 0.74909 0.0
C3147 C 0.7491 0.48501 0.75709 0.0
C3148 C 0.74555 0.49484 0.76116 0.0
C3149 C 0.7376 0.49521 0.7693 0.0
C3150 C 0.73413 0.50512 0.77304 0.0
C3151 C 0.7385 0.51478 0.769 0.0
C3152 C 0.74662 0.51457 0.761 0.0
C3153 C 0.75137 0.5241 0.75689 0.0
C3154 C 0.75923 0.52382 0.74892 0.0
C3155 C 0.76275 0.51399 0.74483 0.0
C3156 C 0.75811 0.50427 0.74888 0.0
C3157 C 0.75008 0.50456 0.75701 0.0
C3158 C 0.7336 0.44319 0.78831 0.0
C3159 C 0.72466 0.44932 0.79397 0.0
O3160 O 0.79364 0.54888 0.71822 0.0
O3161 O 0.72315 0.55397 0.78567 0.0
O3162 O 0.71999 0.45655 0.78689 0.0
O3163 O 0.78507 0.45796 0.71465 0.0
H3164 H 0.79033 0.5475 0.70208 0.0
H3165 H 0.80208 0.53238 0.70755 0.0
H3166 H 0.81259 0.54178 0.71153 0.0
H3167 H 0.80866 0.54068 0.69754 0.0
H3168 H 0.77633 0.53911 0.70961 0.0
H3169 H 0.79706 0.54104 0.73717 0.0
H3170 H 0.76573 0.51437 0.71327 0.0
H3171 H 0.76125 0.52739 0.70893 0.0
H3172 H 0.75648 0.52157 0.72146 0.0
H3173 H 0.79591 0.52858 0.75151 0.0
H3174 H 0.79025 0.51557 0.74809 0.0
H3175 H 0.78206 0.52523 0.75464 0.0
H3176 H 0.80065 0.46373 0.71327 0.0
H3177 H 0.79996 0.46511 0.69322 0.0
H3178 H 0.78947 0.47266 0.69944 0.0
H3179 H 0.78624 0.45989 0.69333 0.0
H3180 H 0.7949 0.46767 0.73089 0.0
H3181 H 0.76625 0.46614 0.71172 0.0
H3182 H 0.79316 0.49259 0.74053 0.0
H3183 H 0.79679 0.47955 0.74559 0.0
H3184 H 0.78489 0.48604 0.75053 0.0
H3185 H 0.75263 0.47899 0.71294 0.0
H3186 H 0.75696 0.49198 0.7179 0.0
H3187 H 0.75027 0.48259 0.72675 0.0
H3188 H 0.7281 0.45373 0.80097 0.0
H3189 H 0.73822 0.4667 0.79368 0.0
H3190 H 0.71151 0.46771 0.77174 0.0
H3191 H 0.75498 0.48474 0.78112 0.0
H3192 H 0.75147 0.48026 0.79452 0.0
H3193 H 0.74747 0.49331 0.78972 0.0
H3194 H 0.70978 0.48147 0.75875 0.0
H3195 H 0.72254 0.48686 0.75397 0.0
H3196 H 0.71485 0.49431 0.76344 0.0
H3197 H 0.71127 0.55897 0.77542 0.0
H3198 H 0.72213 0.57487 0.76854 0.0
H3199 H 0.7293 0.56263 0.76672 0.0
H3200 H 0.73301 0.5715 0.77758 0.0
H3201 H 0.73634 0.5414 0.79523 0.0
H3202 H 0.71736 0.5452 0.7666 0.0
H3203 H 0.75296 0.52076 0.78515 0.0
H3204 H 0.74211 0.51499 0.7929 0.0
H3205 H 0.74859 0.52729 0.79729 0.0
H3206 H 0.71562 0.53171 0.75367 0.0
H3207 H 0.72001 0.5184 0.75722 0.0
H3208 H 0.72908 0.52762 0.75052 0.0
H3209 H 0.77999 0.5035 0.72647 0.0
H3210 H 0.75937 0.47693 0.74628 0.0
H3211 H 0.74585 0.4774 0.76003 0.0
H3212 H 0.72797 0.50532 0.77922 0.0
H3213 H 0.74904 0.5319 0.75978 0.0
H3214 H 0.76253 0.53142 0.746 0.0
H3215 H 0.73723 0.4373 0.79393 0.0
H3216 H 0.7401 0.44879 0.78553 0.0
H3217 H 0.73033 0.43884 0.7812 0.0
C3218 C 0.21009 0.44434 0.73997 0.0
C3219 C 0.20715 0.44944 0.72909 0.0
C3220 C 0.22078 0.46399 0.7272 0.0
C3221 C 0.23013 0.46734 0.72175 0.0
C3222 C 0.2355 0.47702 0.72435 0.0
C3223 C 0.23145 0.48346 0.7327 0.0
C3224 C 0.22193 0.48021 0.73817 0.0
C3225 C 0.21666 0.47056 0.73533 0.0
C3226 C 0.24555 0.48033 0.71826 0.0
C3227 C 0.21735 0.48691 0.74709 0.0
C3228 C 0.2046 0.56372 0.7151 0.0
C3229 C 0.20856 0.55455 0.72168 0.0
C3230 C 0.2227 0.54118 0.72217 0.0
C3231 C 0.21984 0.53704 0.73237 0.0
C3232 C 0.22495 0.52802 0.73669 0.0
C3233 C 0.23318 0.52306 0.73075 0.0
C3234 C 0.23629 0.52736 0.72062 0.0
C3235 C 0.231 0.53637 0.71647 0.0
C3236 C 0.22144 0.52368 0.74754 0.0
C3237 C 0.24511 0.52233 0.71413 0.0
C3238 C 0.28398 0.5434 0.77847 0.0
C3239 C 0.27453 0.53865 0.78274 0.0
C3240 C 0.27056 0.52879 0.77885 0.0
C3241 C 0.27614 0.52357 0.77052 0.0
C3242 C 0.28587 0.52812 0.76649 0.0
C3243 C 0.28973 0.53795 0.77061 0.0
C3244 C 0.26035 0.52396 0.7836 0.0
C3245 C 0.29208 0.5227 0.7577 0.0
C3246 C 0.27822 0.4403 0.77393 0.0
C3247 C 0.28898 0.44557 0.77721 0.0
C3248 C 0.28373 0.46429 0.77912 0.0
C3249 C 0.27647 0.47019 0.78518 0.0
C3250 C 0.27228 0.47985 0.78122 0.0
C3251 C 0.27567 0.48382 0.77104 0.0
C3252 C 0.28338 0.47814 0.76508 0.0
C3253 C 0.2873 0.46842 0.76915 0.0
C3254 C 0.26412 0.48573 0.78782 0.0
C3255 C 0.28748 0.48234 0.75438 0.0
C3256 C 0.23722 0.49352 0.73589 0.0
C3257 C 0.23357 0.50324 0.7317 0.0
C3258 C 0.23812 0.51307 0.73494 0.0
C3259 C 0.24669 0.51324 0.74246 0.0
C3260 C 0.25148 0.52296 0.74589 0.0
C3261 C 0.2597 0.52304 0.75352 0.0
C3262 C 0.26348 0.51341 0.75801 0.0
C3263 C 0.27165 0.51343 0.76596 0.0
C3264 C 0.27542 0.5037 0.77003 0.0
C3265 C 0.27109 0.49386 0.76655 0.0
C3266 C 0.26266 0.4937 0.75886 0.0
C3267 C 0.25782 0.48398 0.75548 0.0
C3268 C 0.24951 0.48389 0.74795 0.0
C3269 C 0.24574 0.49352 0.74346 0.0
C3270 C 0.25049 0.50342 0.74676 0.0
C3271 C 0.25891 0.50351 0.75452 0.0
C3272 C 0.27902 0.56764 0.773 0.0
C3273 C 0.2816 0.56206 0.78369 0.0
O3274 O 0.21614 0.45437 0.72443 0.0
O3275 O 0.28714 0.45475 0.78316 0.0
O3276 O 0.28782 0.55312 0.78182 0.0
O3277 O 0.2176 0.54965 0.71755 0.0
H3278 H 0.20082 0.4555 0.73039 0.0
H3279 H 0.21286 0.45055 0.74574 0.0
H3280 H 0.21666 0.43849 0.739 0.0
H3281 H 0.20293 0.44012 0.7435 0.0
H3282 H 0.23325 0.46228 0.71546 0.0
H3283 H 0.20939 0.46824 0.7396 0.0
H3284 H 0.24473 0.48861 0.715 0.0
H3285 H 0.24726 0.47482 0.71151 0.0
H3286 H 0.25255 0.48042 0.72383 0.0
H3287 H 0.21029 0.48293 0.75105 0.0
H3288 H 0.21481 0.49476 0.74376 0.0
H3289 H 0.22362 0.48855 0.75327 0.0
H3290 H 0.20215 0.54866 0.72423 0.0
H3291 H 0.19639 0.56106 0.71218 0.0
H3292 H 0.20855 0.56311 0.70697 0.0
H3293 H 0.20693 0.57694 0.72517 0.0
H3294 H 0.21356 0.54076 0.737 0.0
H3295 H 0.23324 0.53963 0.70865 0.0
H3296 H 0.21877 0.51516 0.74678 0.0
H3297 H 0.21476 0.52831 0.75105 0.0
H3298 H 0.22836 0.52393 0.7532 0.0
H3299 H 0.24709 0.52704 0.70674 0.0
H3300 H 0.24255 0.51408 0.71177 0.0
H3301 H 0.2525 0.52164 0.71912 0.0
H3302 H 0.27382 0.55967 0.78751 0.0
H3303 H 0.27031 0.54251 0.78922 0.0
H3304 H 0.29711 0.54159 0.7675 0.0
H3305 H 0.25392 0.52379 0.77738 0.0
H3306 H 0.25744 0.52857 0.79061 0.0
H3307 H 0.26171 0.51554 0.78619 0.0
H3308 H 0.29934 0.52745 0.75519 0.0
H3309 H 0.2868 0.52145 0.75058 0.0
H3310 H 0.29464 0.51467 0.76054 0.0
H3311 H 0.29351 0.44765 0.76976 0.0
H3312 H 0.27962 0.43283 0.76932 0.0
H3313 H 0.27363 0.44587 0.76871 0.0
H3314 H 0.27327 0.43829 0.78114 0.0
H3315 H 0.27387 0.46704 0.79293 0.0
H3316 H 0.29327 0.46423 0.76456 0.0
H3317 H 0.25676 0.48713 0.78295 0.0
H3318 H 0.2675 0.49371 0.79014 0.0
H3319 H 0.2618 0.48124 0.79525 0.0
H3320 H 0.29424 0.47756 0.75124 0.0
H3321 H 0.29023 0.49084 0.75514 0.0
H3322 H 0.28083 0.4821 0.7484 0.0
H3323 H 0.2269 0.50317 0.72605 0.0
H3324 H 0.24889 0.53061 0.74273 0.0
H3325 H 0.26306 0.53077 0.75588 0.0
H3326 H 0.28177 0.50378 0.77605 0.0
H3327 H 0.26036 0.47632 0.75867 0.0
H3328 H 0.24608 0.47617 0.7457 0.0
H3329 H 0.27423 0.57494 0.77443 0.0
H3330 H 0.27422 0.56212 0.7678 0.0
H3331 H 0.28655 0.56999 0.76867 0.0
C3332 C 0.30298 0.5617 0.23651 0.0
C3333 C 0.30409 0.55617 0.22557 0.0
C3334 C 0.28933 0.54262 0.22587 0.0
C3335 C 0.27931 0.53975 0.22149 0.0
C3336 C 0.27371 0.53042 0.22491 0.0
C3337 C 0.2782 0.52387 0.23304 0.0
C3338 C 0.28837 0.52667 0.23748 0.0
C3339 C 0.29387 0.53594 0.23379 0.0
C3340 C 0.26298 0.52756 0.21985 0.0
C3341 C 0.29341 0.51986 0.24616 0.0
C3342 C 0.27401 0.44057 0.22533 0.0
C3343 C 0.28534 0.44562 0.22455 0.0
C3344 C 0.28168 0.46477 0.22332 0.0
C3345 C 0.28543 0.4684 0.23335 0.0
C3346 C 0.28192 0.47814 0.23761 0.0
C3347 C 0.2744 0.48432 0.23178 0.0
C3348 C 0.27079 0.48078 0.22157 0.0
C3349 C 0.2746 0.4711 0.21741 0.0
C3350 C 0.28628 0.48187 0.24833 0.0
C3351 C 0.26284 0.48717 0.21509 0.0
C3352 C 0.2255 0.46637 0.28254 0.0
C3353 C 0.23527 0.47092 0.2863 0.0
C3354 C 0.23938 0.48059 0.28194 0.0
C3355 C 0.23368 0.48582 0.27362 0.0
C3356 C 0.22376 0.4814 0.26996 0.0
C3357 C 0.21978 0.47175 0.27452 0.0
C3358 C 0.24991 0.48518 0.28615 0.0
C3359 C 0.21747 0.48679 0.26112 0.0
C3360 C 0.22691 0.56886 0.27358 0.0
C3361 C 0.2191 0.56256 0.28095 0.0
C3362 C 0.22784 0.54494 0.28167 0.0
C3363 C 0.23493 0.53866 0.28764 0.0
C3364 C 0.23896 0.52907 0.28352 0.0
C3365 C 0.23562 0.52554 0.27321 0.0
C3366 C 0.22825 0.53172 0.26721 0.0
C3367 C 0.22454 0.54141 0.27143 0.0
C3368 C 0.24682 0.52272 0.29016 0.0
C3369 C 0.22425 0.52808 0.25632 0.0
C3370 C 0.27233 0.51406 0.23692 0.0
C3371 C 0.27532 0.50416 0.23273 0.0
C3372 C 0.27045 0.49456 0.23629 0.0
C3373 C 0.26224 0.4948 0.24419 0.0
C3374 C 0.2571 0.48531 0.2479 0.0
C3375 C 0.24924 0.4856 0.25587 0.0
C3376 C 0.24613 0.49541 0.26036 0.0
C3377 C 0.23828 0.49576 0.2686 0.0
C3378 C 0.23505 0.50566 0.27257 0.0
C3379 C 0.23967 0.51531 0.26877 0.0
C3380 C 0.24788 0.51508 0.26087 0.0
C3381 C 0.2531 0.52456 0.25724 0.0
C3382 C 0.26113 0.52425 0.24942 0.0
C3383 C 0.26421 0.51446 0.24489 0.0
C3384 C 0.25914 0.50479 0.24851 0.0
C3385 C 0.25102 0.5051 0.25656 0.0
C3386 C 0.23517 0.44361 0.28694 0.0
C3387 C 0.22638 0.44954 0.29306 0.0
O3388 O 0.29423 0.55187 0.22228 0.0
O3389 O 0.22445 0.55429 0.2861 0.0
O3390 O 0.22137 0.45684 0.2863 0.0
O3391 O 0.28491 0.45534 0.21904 0.0
H3392 H 0.31003 0.54964 0.22634 0.0
H3393 H 0.30052 0.55583 0.24285 0.0
H3394 H 0.29681 0.56804 0.23614 0.0
H3395 H 0.31082 0.56541 0.23895 0.0
H3396 H 0.27587 0.54488 0.21536 0.0
H3397 H 0.30165 0.5379 0.23724 0.0
H3398 H 0.26302 0.51916 0.21689 0.0
H3399 H 0.26099 0.533 0.21304 0.0
H3400 H 0.25652 0.52804 0.226 0.0
H3401 H 0.30095 0.52357 0.2494 0.0
H3402 H 0.2953 0.51186 0.24286 0.0
H3403 H 0.28764 0.51857 0.2529 0.0
H3404 H 0.2884 0.44688 0.23287 0.0
H3405 H 0.27424 0.43275 0.22968 0.0
H3406 H 0.27057 0.43927 0.21717 0.0
H3407 H 0.26864 0.44596 0.22984 0.0
H3408 H 0.29129 0.46379 0.23776 0.0
H3409 H 0.27188 0.46831 0.20961 0.0
H3410 H 0.28937 0.49028 0.24766 0.0
H3411 H 0.29286 0.47672 0.25133 0.0
H3412 H 0.27969 0.48173 0.25437 0.0
H3413 H 0.26018 0.48291 0.20769 0.0
H3414 H 0.2666 0.495 0.21271 0.0
H3415 H 0.25566 0.48888 0.22006 0.0
H3416 H 0.23005 0.45386 0.3 0.0
H3417 H 0.23979 0.46699 0.29257 0.0
H3418 H 0.21224 0.46824 0.2717 0.0
H3419 H 0.25608 0.48505 0.27969 0.0
H3420 H 0.25296 0.48061 0.29319 0.0
H3421 H 0.24891 0.49369 0.28852 0.0
H3422 H 0.20998 0.48222 0.25903 0.0
H3423 H 0.22255 0.48764 0.2538 0.0
H3424 H 0.21528 0.49499 0.26367 0.0
H3425 H 0.21233 0.55919 0.2761 0.0
H3426 H 0.22268 0.57552 0.26947 0.0
H3427 H 0.23018 0.56355 0.2673 0.0
H3428 H 0.23375 0.57227 0.27832 0.0
H3429 H 0.23743 0.5414 0.29554 0.0
H3430 H 0.21903 0.54608 0.26666 0.0
H3431 H 0.25397 0.52074 0.28524 0.0
H3432 H 0.24293 0.51503 0.29277 0.0
H3433 H 0.24956 0.52715 0.29743 0.0
H3434 H 0.21753 0.53304 0.25329 0.0
H3435 H 0.22147 0.51955 0.25671 0.0
H3436 H 0.23096 0.52865 0.25042 0.0
H3437 H 0.28165 0.50392 0.22672 0.0
H3438 H 0.25913 0.47754 0.24472 0.0
H3439 H 0.24561 0.47803 0.25845 0.0
H3440 H 0.22892 0.50586 0.27878 0.0
H3441 H 0.25108 0.53233 0.26043 0.0
H3442 H 0.26487 0.53181 0.24696 0.0
H3443 H 0.23906 0.43765 0.29231 0.0
H3444 H 0.24152 0.44932 0.28404 0.0
H3445 H 0.23168 0.43937 0.27987 0.0
C3446 C 0.79991 0.46226 0.30105 0.0
C3447 C 0.79191 0.45332 0.29771 0.0
C3448 C 0.78343 0.46274 0.28267 0.0
C3449 C 0.7749 0.46746 0.28823 0.0
C3450 C 0.76953 0.47631 0.28387 0.0
C3451 C 0.77285 0.48064 0.27381 0.0
C3452 C 0.78125 0.47573 0.26806 0.0
C3453 C 0.7863 0.46671 0.2725 0.0
C3454 C 0.76043 0.48115 0.29011 0.0
C3455 C 0.78514 0.4802 0.2574 0.0
C3456 C 0.7967 0.53817 0.30649 0.0
C3457 C 0.7955 0.54633 0.29729 0.0
C3458 C 0.78076 0.53775 0.28741 0.0
C3459 C 0.78634 0.53332 0.27874 0.0
C3460 C 0.78195 0.52456 0.27305 0.0
C3461 C 0.77184 0.5201 0.27616 0.0
C3462 C 0.76608 0.52474 0.28473 0.0
C3463 C 0.77056 0.53365 0.29012 0.0
C3464 C 0.7882 0.51998 0.26379 0.0
C3465 C 0.75534 0.52012 0.28837 0.0
C3466 C 0.72342 0.54076 0.22549 0.0
C3467 C 0.73357 0.53717 0.22217 0.0
C3468 C 0.73763 0.52742 0.22601 0.0
C3469 C 0.73156 0.52122 0.23353 0.0
C3470 C 0.72131 0.52475 0.23682 0.0
C3471 C 0.71734 0.53441 0.23265 0.0
C3472 C 0.74844 0.52376 0.22204 0.0
C3473 C 0.71459 0.51835 0.2448 0.0
C3474 C 0.72856 0.43758 0.22873 0.0
C3475 C 0.71795 0.44308 0.22606 0.0
C3476 C 0.72337 0.46193 0.22407 0.0
C3477 C 0.73152 0.46769 0.21868 0.0
C3478 C 0.73566 0.47741 0.22279 0.0
C3479 C 0.73135 0.48153 0.23242 0.0
C3480 C 0.72274 0.476 0.23763 0.0
C3481 C 0.71883 0.46625 0.2334 0.0
C3482 C 0.74477 0.48317 0.21698 0.0
C3483 C 0.71773 0.48035 0.24772 0.0
C3484 C 0.76802 0.49072 0.26971 0.0
C3485 C 0.77167 0.50039 0.2742 0.0
C3486 C 0.76758 0.51024 0.27084 0.0
C3487 C 0.75967 0.51053 0.26265 0.0
C3488 C 0.75549 0.5203 0.25894 0.0
C3489 C 0.74765 0.52049 0.25092 0.0
C3490 C 0.74378 0.51093 0.2462 0.0
C3491 C 0.73593 0.51105 0.23792 0.0
C3492 C 0.73214 0.50136 0.23355 0.0
C3493 C 0.73598 0.4915 0.23719 0.0
C3494 C 0.74395 0.49123 0.24533 0.0
C3495 C 0.74809 0.48145 0.24909 0.0
C3496 C 0.75592 0.48125 0.25711 0.0
C3497 C 0.75997 0.49082 0.26164 0.0
C3498 C 0.75584 0.50077 0.25805 0.0
C3499 C 0.74786 0.50098 0.24985 0.0
C3500 C 0.73208 0.56449 0.22515 0.0
C3501 C 0.72469 0.55871 0.21705 0.0
O3502 O 0.78918 0.45453 0.28693 0.0
O3503 O 0.72001 0.45231 0.22002 0.0
O3504 O 0.71921 0.55022 0.22206 0.0
O3505 O 0.78503 0.54591 0.29335 0.0
H3506 H 0.78458 0.45379 0.30279 0.0
H3507 H 0.79617 0.47024 0.30011 0.0
H3508 H 0.80727 0.46209 0.29597 0.0
H3509 H 0.80225 0.46128 0.30963 0.0
H3510 H 0.77235 0.46427 0.29595 0.0
H3511 H 0.79282 0.46296 0.26823 0.0
H3512 H 0.76309 0.48909 0.29328 0.0
H3513 H 0.75781 0.47599 0.297 0.0
H3514 H 0.7534 0.48248 0.28476 0.0
H3515 H 0.79227 0.47593 0.25433 0.0
H3516 H 0.78727 0.48887 0.25821 0.0
H3517 H 0.77858 0.47951 0.25135 0.0
H3518 H 0.80129 0.54434 0.29082 0.0
H3519 H 0.80503 0.53852 0.30979 0.0
H3520 H 0.79512 0.52991 0.3035 0.0
H3521 H 0.79091 0.53983 0.31306 0.0
H3522 H 0.79406 0.53672 0.27632 0.0
H3523 H 0.76628 0.53721 0.29676 0.0
H3524 H 0.79103 0.51186 0.26603 0.0
H3525 H 0.79531 0.52508 0.26158 0.0
H3526 H 0.7829 0.51909 0.25663 0.0
H3527 H 0.75222 0.52424 0.2956 0.0
H3528 H 0.75609 0.51143 0.29025 0.0
H3529 H 0.74936 0.52088 0.28179 0.0
H3530 H 0.72959 0.55564 0.2103 0.0
H3531 H 0.7384 0.54188 0.21656 0.0
H3532 H 0.70951 0.53718 0.23513 0.0
H3533 H 0.75442 0.52435 0.22866 0.0
H3534 H 0.75147 0.52869 0.21515 0.0
H3535 H 0.74791 0.51522 0.21953 0.0
H3536 H 0.70729 0.52269 0.24733 0.0
H3537 H 0.71946 0.51647 0.25206 0.0
H3538 H 0.71201 0.51061 0.24114 0.0
H3539 H 0.71403 0.44508 0.2338 0.0
H3540 H 0.72698 0.43005 0.23337 0.0
H3541 H 0.73373 0.44298 0.23371 0.0
H3542 H 0.73301 0.43564 0.22126 0.0
H3543 H 0.73485 0.46438 0.21138 0.0
H3544 H 0.71214 0.46214 0.23733 0.0
H3545 H 0.75179 0.48413 0.22247 0.0
H3546 H 0.74222 0.49134 0.21456 0.0
H3547 H 0.74736 0.47882 0.20968 0.0
H3548 H 0.71063 0.47546 0.25042 0.0
H3549 H 0.71518 0.48875 0.24633 0.0
H3550 H 0.7238 0.48049 0.25429 0.0
H3551 H 0.7778 0.50025 0.28044 0.0
H3552 H 0.75822 0.52791 0.26222 0.0
H3553 H 0.74469 0.52825 0.24846 0.0
H3554 H 0.72608 0.5015 0.22725 0.0
H3555 H 0.74533 0.47382 0.24586 0.0
H3556 H 0.75878 0.47349 0.25971 0.0
H3557 H 0.7273 0.56755 0.232 0.0
H3558 H 0.73642 0.57134 0.2212 0.0
H3559 H 0.73819 0.55892 0.22837 0.0
C3560 C 0.54176 0.20029 0.71218 0.0
C3561 C 0.5481 0.21053 0.70904 0.0
C3562 C 0.54102 0.22326 0.72165 0.0
C3563 C 0.5363 0.23112 0.71516 0.0
C3564 C 0.52743 0.23688 0.71885 0.0
C3565 C 0.52313 0.23459 0.72919 0.0
C3566 C 0.52809 0.22682 0.73585 0.0
C3567 C 0.53713 0.22141 0.73205 0.0
C3568 C 0.52252 0.24523 0.71159 0.0
C3569 C 0.52363 0.22396 0.74683 0.0
C3570 C 0.44158 0.20832 0.70838 0.0
C3571 C 0.45102 0.2111 0.7153 0.0
C3572 C 0.46543 0.22472 0.71685 0.0
C3573 C 0.46919 0.22106 0.72689 0.0
C3574 C 0.4782 0.22597 0.73181 0.0
C3575 C 0.4835 0.23475 0.72664 0.0
C3576 C 0.47963 0.23856 0.71663 0.0
C3577 C 0.47063 0.23348 0.71187 0.0
C3578 C 0.48213 0.22171 0.74249 0.0
C3579 C 0.48507 0.24793 0.71093 0.0
C3580 C 0.46251 0.28261 0.77761 0.0
C3581 C 0.46717 0.27281 0.78063 0.0
C3582 C 0.47679 0.26945 0.7759 0.0
C3583 C 0.4818 0.27587 0.76782 0.0
C3584 C 0.47713 0.28569 0.76471 0.0
C3585 C 0.46758 0.28895 0.76969 0.0
C3586 C 0.48163 0.25901 0.7796 0.0
C3587 C 0.48222 0.29273 0.7561 0.0
C3588 C 0.56469 0.28738 0.76967 0.0
C3589 C 0.55876 0.29496 0.77722 0.0
C3590 C 0.54084 0.28606 0.7775 0.0
C3591 C 0.53456 0.27844 0.7831 0.0
C3592 C 0.52504 0.27412 0.77864 0.0
C3593 C 0.52159 0.27772 0.7684 0.0
C3594 C 0.52769 0.28573 0.76284 0.0
C3595 C 0.53731 0.28973 0.76739 0.0
C3596 C 0.51875 0.26561 0.78482 0.0
C3597 C 0.52408 0.28999 0.75204 0.0
C3598 C 0.51296 0.23967 0.73267 0.0
C3599 C 0.5033 0.23558 0.72842 0.0
C3600 C 0.49336 0.23965 0.73148 0.0
C3601 C 0.49296 0.24801 0.7391 0.0
C3602 C 0.48309 0.25219 0.74249 0.0
C3603 C 0.48277 0.26023 0.75021 0.0
C3604 C 0.49231 0.26445 0.75478 0.0
C3605 C 0.49205 0.27238 0.76287 0.0
C3606 C 0.5017 0.27664 0.76699 0.0
C3607 C 0.51168 0.27301 0.76345 0.0
C3608 C 0.51209 0.26483 0.75562 0.0
C3609 C 0.52197 0.26074 0.75211 0.0
C3610 C 0.52229 0.25261 0.74449 0.0
C3611 C 0.51274 0.24816 0.74017 0.0
C3612 C 0.50269 0.25227 0.74347 0.0
C3613 C 0.50237 0.26057 0.75125 0.0
C3614 C 0.43963 0.27233 0.78363 0.0
C3615 C 0.44658 0.28085 0.78939 0.0
O3616 O 0.54914 0.21719 0.7179 0.0
O3617 O 0.55019 0.28955 0.78215 0.0
O3618 O 0.45322 0.28623 0.78205 0.0
O3619 O 0.45691 0.22001 0.7117 0.0
H3620 H 0.54358 0.21471 0.70254 0.0
H3621 H 0.53354 0.20236 0.71492 0.0
H3622 H 0.5459 0.19599 0.71882 0.0
H3623 H 0.54092 0.19486 0.70516 0.0
H3624 H 0.53952 0.23269 0.70719 0.0
H3625 H 0.54091 0.21535 0.737 0.0
H3626 H 0.5147 0.24209 0.70845 0.0
H3627 H 0.5278 0.24731 0.70464 0.0
H3628 H 0.5209 0.25265 0.71616 0.0
H3629 H 0.52775 0.217 0.75052 0.0
H3630 H 0.51487 0.22203 0.74625 0.0
H3631 H 0.52462 0.23094 0.75226 0.0
H3632 H 0.45618 0.20419 0.7175 0.0
H3633 H 0.44339 0.20018 0.70501 0.0
H3634 H 0.44283 0.2127 0.7005 0.0
H3635 H 0.42837 0.21094 0.7184 0.0
H3636 H 0.4652 0.21435 0.73092 0.0
H3637 H 0.46766 0.23628 0.70416 0.0
H3638 H 0.49061 0.21914 0.74171 0.0
H3639 H 0.47715 0.2148 0.74547 0.0
H3640 H 0.48199 0.22819 0.74858 0.0
H3641 H 0.48074 0.25028 0.70347 0.0
H3642 H 0.49344 0.2458 0.70878 0.0
H3643 H 0.48556 0.25496 0.71637 0.0
H3644 H 0.45159 0.27685 0.7956 0.0
H3645 H 0.46343 0.26771 0.78668 0.0
H3646 H 0.46397 0.29648 0.76738 0.0
H3647 H 0.48126 0.25311 0.77295 0.0
H3648 H 0.47736 0.25547 0.78667 0.0
H3649 H 0.49025 0.26031 0.78173 0.0
H3650 H 0.47716 0.29969 0.75398 0.0
H3651 H 0.48363 0.28795 0.74874 0.0
H3652 H 0.49019 0.29578 0.75895 0.0
H3653 H 0.55573 0.30193 0.77254 0.0
H3654 H 0.57162 0.29164 0.76577 0.0
H3655 H 0.55922 0.28444 0.76322 0.0
H3656 H 0.56771 0.28033 0.77423 0.0
H3657 H 0.53729 0.2757 0.79092 0.0
H3658 H 0.54197 0.29572 0.76297 0.0
H3659 H 0.51722 0.25849 0.77966 0.0
H3660 H 0.5108 0.2688 0.78716 0.0
H3661 H 0.52301 0.263 0.79223 0.0
H3662 H 0.52896 0.2971 0.74938 0.0
H3663 H 0.51548 0.29224 0.75239 0.0
H3664 H 0.52481 0.28361 0.7459 0.0
H3665 H 0.50351 0.22904 0.72269 0.0
H3666 H 0.4755 0.24922 0.73927 0.0
H3667 H 0.47494 0.26309 0.75256 0.0
H3668 H 0.50145 0.28272 0.77319 0.0
H3669 H 0.52958 0.26375 0.75525 0.0
H3670 H 0.53012 0.2498 0.74208 0.0
H3671 H 0.43425 0.26809 0.78948 0.0
H3672 H 0.44479 0.26627 0.7798 0.0
H3673 H 0.43463 0.27611 0.77727 0.0
C3674 C 0.54288 0.70471 0.80424 0.0
C3675 C 0.55094 0.70712 0.79516 0.0
C3676 C 0.5432 0.72308 0.78705 0.0
C3677 C 0.53876 0.71872 0.77759 0.0
C3678 C 0.53015 0.72369 0.77234 0.0
C3679 C 0.5259 0.73322 0.77662 0.0
C3680 C 0.5307 0.7379 0.78584 0.0
C3681 C 0.53939 0.73282 0.79087 0.0
C3682 C 0.52543 0.71864 0.76234 0.0
C3683 C 0.52642 0.7481 0.79056 0.0
C3684 C 0.44261 0.73016 0.78203 0.0
C3685 C 0.44821 0.72385 0.79102 0.0
C3686 C 0.46656 0.72327 0.78353 0.0
C3687 C 0.46998 0.73366 0.78657 0.0
C3688 C 0.47978 0.7381 0.78282 0.0
C3689 C 0.48615 0.73218 0.77561 0.0
C3690 C 0.48277 0.72169 0.77261 0.0
C3691 C 0.4731 0.71733 0.77675 0.0
C3692 C 0.48329 0.74914 0.78657 0.0
C3693 C 0.48934 0.71508 0.76499 0.0
C3694 C 0.46719 0.78298 0.72714 0.0
C3695 C 0.47127 0.78596 0.73729 0.0
C3696 C 0.48096 0.78178 0.74118 0.0
C3697 C 0.48663 0.77431 0.73491 0.0
C3698 C 0.48262 0.77138 0.72466 0.0
C3699 C 0.473 0.77584 0.72088 0.0
C3700 C 0.48513 0.78533 0.75204 0.0
C3701 C 0.48843 0.76344 0.71775 0.0
C3702 C 0.57054 0.78507 0.73481 0.0
C3703 C 0.56499 0.78459 0.72382 0.0
C3704 C 0.54581 0.78485 0.72787 0.0
C3705 C 0.53963 0.79013 0.7355 0.0
C3706 C 0.53006 0.78544 0.73952 0.0
C3707 C 0.52646 0.77536 0.73556 0.0
C3708 C 0.53249 0.77017 0.72751 0.0
C3709 C 0.54214 0.77496 0.72379 0.0
C3710 C 0.52383 0.79123 0.74805 0.0
C3711 C 0.52869 0.75961 0.72281 0.0
C3712 C 0.51594 0.73775 0.77191 0.0
C3713 C 0.50607 0.73353 0.77555 0.0
C3714 C 0.49632 0.73696 0.77121 0.0
C3715 C 0.49637 0.74485 0.76296 0.0
C3716 C 0.48674 0.74827 0.75817 0.0
C3717 C 0.48683 0.7563 0.75032 0.0
C3718 C 0.49657 0.76117 0.74688 0.0
C3719 C 0.49671 0.76956 0.73914 0.0
C3720 C 0.50656 0.77394 0.73561 0.0
C3721 C 0.51633 0.7703 0.73972 0.0
C3722 C 0.51634 0.76213 0.74772 0.0
C3723 C 0.526 0.75847 0.75226 0.0
C3724 C 0.52591 0.75044 0.76013 0.0
C3725 C 0.51615 0.74584 0.76384 0.0
C3726 C 0.50631 0.74941 0.75937 0.0
C3727 C 0.50641 0.75755 0.75129 0.0
C3728 C 0.44371 0.78452 0.73624 0.0
C3729 C 0.44986 0.79221 0.72862 0.0
O3730 O 0.55104 0.71802 0.79269 0.0
O3731 O 0.55513 0.78961 0.72441 0.0
O3732 O 0.45775 0.78672 0.7231 0.0
O3733 O 0.45709 0.71867 0.78691 0.0
H3734 H 0.54837 0.70236 0.78805 0.0
H3735 H 0.53461 0.70673 0.80158 0.0
H3736 H 0.5449 0.70953 0.81149 0.0
H3737 H 0.54292 0.69604 0.80641 0.0
H3738 H 0.54199 0.71146 0.77427 0.0
H3739 H 0.54298 0.73621 0.79807 0.0
H3740 H 0.51709 0.71573 0.76403 0.0
H3741 H 0.53021 0.71176 0.7595 0.0
H3742 H 0.525 0.72472 0.75578 0.0
H3743 H 0.53119 0.75087 0.79762 0.0
H3744 H 0.51792 0.74676 0.79309 0.0
H3745 H 0.52652 0.75456 0.78436 0.0
H3746 H 0.4508 0.72945 0.7975 0.0
H3747 H 0.43546 0.73431 0.78524 0.0
H3748 H 0.43998 0.72467 0.77548 0.0
H3749 H 0.44819 0.73636 0.7786 0.0
H3750 H 0.46513 0.73836 0.79192 0.0
H3751 H 0.47045 0.7093 0.7745 0.0
H3752 H 0.49195 0.74924 0.78885 0.0
H3753 H 0.4785 0.75184 0.79356 0.0
H3754 H 0.48227 0.75502 0.77991 0.0
H3755 H 0.4849 0.70774 0.7623 0.0
H3756 H 0.49685 0.7126 0.76908 0.0
H3757 H 0.49169 0.71994 0.75779 0.0
H3758 H 0.45367 0.79883 0.73333 0.0
H3759 H 0.46698 0.79153 0.74226 0.0
H3760 H 0.46986 0.77361 0.71305 0.0
H3761 H 0.48444 0.77854 0.75784 0.0
H3762 H 0.48057 0.79218 0.75528 0.0
H3763 H 0.49378 0.78773 0.75148 0.0
H3764 H 0.48385 0.76138 0.71034 0.0
H3765 H 0.48988 0.75596 0.7224 0.0
H3766 H 0.49642 0.76688 0.71538 0.0
H3767 H 0.56384 0.77599 0.72165 0.0
H3768 H 0.57846 0.78107 0.73449 0.0
H3769 H 0.56547 0.78084 0.74094 0.0
H3770 H 0.57181 0.79354 0.73735 0.0
H3771 H 0.54247 0.79785 0.73847 0.0
H3772 H 0.54669 0.77106 0.71755 0.0
H3773 H 0.52223 0.78578 0.75501 0.0
H3774 H 0.51592 0.79364 0.74474 0.0
H3775 H 0.52818 0.79854 0.75095 0.0
H3776 H 0.53376 0.75711 0.71594 0.0
H3777 H 0.52021 0.7602 0.72004 0.0
H3778 H 0.52892 0.75325 0.72911 0.0
H3779 H 0.50597 0.72742 0.78184 0.0
H3780 H 0.479 0.74482 0.76049 0.0
H3781 H 0.47916 0.75865 0.74699 0.0
H3782 H 0.50661 0.78035 0.72964 0.0
H3783 H 0.53375 0.76178 0.74979 0.0
H3784 H 0.53358 0.74792 0.76332 0.0
H3785 H 0.43734 0.78887 0.7406 0.0
H3786 H 0.44925 0.78109 0.74231 0.0
H3787 H 0.43992 0.77781 0.73166 0.0
C3788 C 0.46559 0.8041 0.29925 0.0
C3789 C 0.45676 0.80076 0.29123 0.0
C3790 C 0.4659 0.78574 0.28287 0.0
C3791 C 0.4705 0.79109 0.27394 0.0
C3792 C 0.4793 0.78679 0.26849 0.0
C3793 C 0.4837 0.777 0.2721 0.0
C3794 C 0.47888 0.77142 0.28088 0.0
C3795 C 0.46991 0.77579 0.28604 0.0
C3796 C 0.48402 0.79282 0.25896 0.0
C3797 C 0.48338 0.761 0.285 0.0
C3798 C 0.56238 0.80302 0.26674 0.0
C3799 C 0.55722 0.80343 0.27796 0.0
C3800 C 0.54287 0.78944 0.27712 0.0
C3801 C 0.53964 0.7793 0.28096 0.0
C3802 C 0.52994 0.77441 0.27758 0.0
C3803 C 0.52339 0.77974 0.26997 0.0
C3804 C 0.52655 0.79005 0.26611 0.0
C3805 C 0.53619 0.79485 0.26981 0.0
C3806 C 0.52672 0.76352 0.28207 0.0
C3807 C 0.51976 0.796 0.25804 0.0
C3808 C 0.54301 0.72886 0.22251 0.0
C3809 C 0.53924 0.72634 0.23293 0.0
C3810 C 0.5295 0.73042 0.23671 0.0
C3811 C 0.52352 0.73744 0.2301 0.0
C3812 C 0.52724 0.73995 0.21959 0.0
C3813 C 0.53687 0.73551 0.2159 0.0
C3814 C 0.52562 0.7272 0.24782 0.0
C3815 C 0.5211 0.7474 0.21231 0.0
C3816 C 0.44058 0.72415 0.23339 0.0
C3817 C 0.44493 0.72536 0.22191 0.0
C3818 C 0.46434 0.72554 0.22424 0.0
C3819 C 0.47101 0.7203 0.23155 0.0
C3820 C 0.48061 0.72521 0.23518 0.0
C3821 C 0.48372 0.73546 0.23111 0.0
C3822 C 0.47721 0.74057 0.22332 0.0
C3823 C 0.46752 0.73558 0.22003 0.0
C3824 C 0.48736 0.71949 0.24346 0.0
C3825 C 0.48048 0.7513 0.21848 0.0
C3826 C 0.49373 0.773 0.2671 0.0
C3827 C 0.50354 0.77755 0.27051 0.0
C3828 C 0.51331 0.7745 0.26598 0.0
C3829 C 0.51336 0.76664 0.25781 0.0
C3830 C 0.52302 0.76352 0.25293 0.0
C3831 C 0.52304 0.75558 0.24512 0.0
C3832 C 0.51339 0.75045 0.24185 0.0
C3833 C 0.51337 0.74208 0.23421 0.0
C3834 C 0.50359 0.73747 0.23082 0.0
C3835 C 0.49377 0.74083 0.23502 0.0
C3836 C 0.49366 0.74894 0.24295 0.0
C3837 C 0.48396 0.75229 0.2476 0.0
C3838 C 0.48394 0.76024 0.25543 0.0
C3839 C 0.49363 0.76504 0.25902 0.0
C3840 C 0.5035 0.76182 0.2544 0.0
C3841 C 0.50351 0.75376 0.24636 0.0
C3842 C 0.56683 0.72968 0.23068 0.0
C3843 C 0.56088 0.7208 0.22442 0.0
O3844 O 0.45773 0.78997 0.28866 0.0
O3845 O 0.45494 0.72066 0.22126 0.0
O3846 O 0.55246 0.72513 0.21855 0.0
O3847 O 0.55249 0.79357 0.28062 0.0
H3848 H 0.45762 0.8058 0.28385 0.0
H3849 H 0.47367 0.80309 0.29561 0.0
H3850 H 0.46504 0.79908 0.30667 0.0
H3851 H 0.46481 0.81269 0.30145 0.0
H3852 H 0.46723 0.79859 0.27114 0.0
H3853 H 0.46624 0.77166 0.29286 0.0
H3854 H 0.49201 0.79629 0.26122 0.0
H3855 H 0.47881 0.79946 0.25623 0.0
H3856 H 0.48527 0.78727 0.25214 0.0
H3857 H 0.47898 0.75788 0.2922 0.0
H3858 H 0.49202 0.76216 0.28711 0.0
H3859 H 0.48288 0.75485 0.27859 0.0
H3860 H 0.55101 0.80975 0.278 0.0
H3861 H 0.56642 0.81084 0.2648 0.0
H3862 H 0.5562 0.80142 0.26048 0.0
H3863 H 0.56841 0.79657 0.26636 0.0
H3864 H 0.54479 0.7752 0.28665 0.0
H3865 H 0.53844 0.80276 0.26683 0.0
H3866 H 0.51826 0.76359 0.28499 0.0
H3867 H 0.53203 0.76101 0.2888 0.0
H3868 H 0.52715 0.75743 0.27562 0.0
H3869 H 0.52391 0.80336 0.25489 0.0
H3870 H 0.51213 0.79837 0.26192 0.0
H3871 H 0.51765 0.79071 0.25116 0.0
H3872 H 0.55766 0.71464 0.23015 0.0
H3873 H 0.54377 0.72115 0.23818 0.0
H3874 H 0.53978 0.73739 0.20787 0.0
H3875 H 0.52667 0.7341 0.25335 0.0
H3876 H 0.53016 0.72033 0.25118 0.0
H3877 H 0.51691 0.72496 0.24765 0.0
H3878 H 0.52562 0.74943 0.20482 0.0
H3879 H 0.5193 0.75495 0.2166 0.0
H3880 H 0.51329 0.74353 0.21005 0.0
H3881 H 0.44561 0.73409 0.21996 0.0
H3882 H 0.43256 0.7279 0.23407 0.0
H3883 H 0.44616 0.72822 0.23913 0.0
H3884 H 0.43982 0.71552 0.23569 0.0
H3885 H 0.46851 0.71247 0.23463 0.0
H3886 H 0.46252 0.73944 0.21406 0.0
H3887 H 0.48912 0.72489 0.25035 0.0
H3888 H 0.49518 0.71732 0.23983 0.0
H3889 H 0.48332 0.71204 0.24655 0.0
H3890 H 0.47521 0.7536 0.21164 0.0
H3891 H 0.48895 0.75111 0.21561 0.0
H3892 H 0.48004 0.75761 0.22472 0.0
H3893 H 0.50357 0.78362 0.27674 0.0
H3894 H 0.5307 0.76715 0.25515 0.0
H3895 H 0.53072 0.75347 0.2417 0.0
H3896 H 0.50362 0.73106 0.22495 0.0
H3897 H 0.47626 0.74878 0.24526 0.0
H3898 H 0.47624 0.76251 0.25869 0.0
H3899 H 0.57007 0.73595 0.22507 0.0
H3900 H 0.57361 0.72628 0.23537 0.0
H3901 H 0.56129 0.73353 0.23643 0.0
C3902 C 0.56269 0.23467 0.29852 0.0
C3903 C 0.55683 0.22375 0.29979 0.0
C3904 C 0.54244 0.22462 0.28611 0.0
C3905 C 0.5389 0.22065 0.27619 0.0
C3906 C 0.52933 0.22423 0.27142 0.0
C3907 C 0.52321 0.23208 0.27668 0.0
C3908 C 0.52673 0.23616 0.28671 0.0
C3909 C 0.53624 0.23235 0.29136 0.0
C3910 C 0.52577 0.21962 0.26077 0.0
C3911 C 0.5204 0.24456 0.29254 0.0
C3912 C 0.46569 0.19568 0.2972 0.0
C3913 C 0.45817 0.20527 0.29772 0.0
C3914 C 0.46595 0.21673 0.28373 0.0
C3915 C 0.47069 0.22505 0.28976 0.0
C3916 C 0.47941 0.23115 0.28564 0.0
C3917 C 0.48353 0.22878 0.27532 0.0
C3918 C 0.47854 0.22059 0.2691 0.0
C3919 C 0.46967 0.21479 0.27334 0.0
C3920 C 0.48434 0.23998 0.29241 0.0
C3921 C 0.48275 0.21777 0.25811 0.0
C3922 C 0.4626 0.28218 0.22948 0.0
C3923 C 0.46709 0.28581 0.23925 0.0
C3924 C 0.47675 0.28161 0.24319 0.0
C3925 C 0.48204 0.27358 0.23732 0.0
C3926 C 0.4776 0.26995 0.22747 0.0
C3927 C 0.46796 0.27434 0.22367 0.0
C3928 C 0.48134 0.28576 0.25366 0.0
C3929 C 0.48303 0.26141 0.22099 0.0
C3930 C 0.56613 0.27912 0.23322 0.0
C3931 C 0.56015 0.28141 0.22268 0.0
C3932 C 0.54146 0.28327 0.2283 0.0
C3933 C 0.53608 0.28858 0.23651 0.0
C3934 C 0.52638 0.2844 0.24078 0.0
C3935 C 0.52187 0.27479 0.23655 0.0
C3936 C 0.52702 0.26967 0.22788 0.0
C3937 C 0.53675 0.27396 0.22384 0.0
C3938 C 0.52105 0.29013 0.24995 0.0
C3939 C 0.52225 0.25959 0.22294 0.0
C3940 C 0.51301 0.23593 0.27182 0.0
C3941 C 0.50335 0.23099 0.27515 0.0
C3942 C 0.4934 0.23447 0.27131 0.0
C3943 C 0.49302 0.24316 0.26392 0.0
C3944 C 0.48316 0.24705 0.26008 0.0
C3945 C 0.48289 0.25554 0.25273 0.0
C3946 C 0.49246 0.26048 0.24894 0.0
C3947 C 0.49228 0.26908 0.24142 0.0
C3948 C 0.50197 0.27363 0.23765 0.0
C3949 C 0.5119 0.26995 0.24129 0.0
C3950 C 0.51225 0.26156 0.24903 0.0
C3951 C 0.5221 0.25789 0.25312 0.0
C3952 C 0.52237 0.24956 0.26063 0.0
C3953 C 0.51281 0.24449 0.26427 0.0
C3954 C 0.50277 0.24811 0.26031 0.0
C3955 C 0.50249 0.25673 0.25276 0.0
C3956 C 0.43961 0.2866 0.23908 0.0
C3957 C 0.44598 0.2927 0.23031 0.0
O3958 O 0.55185 0.22083 0.29021 0.0
O3959 O 0.55107 0.28738 0.22479 0.0
O3960 O 0.45318 0.28592 0.22538 0.0
O3961 O 0.45786 0.2104 0.28777 0.0
H3962 H 0.55068 0.22432 0.30626 0.0
H3963 H 0.55692 0.24108 0.29658 0.0
H3964 H 0.56874 0.23441 0.29194 0.0
H3965 H 0.56686 0.23686 0.30614 0.0
H3966 H 0.54368 0.21469 0.27218 0.0
H3967 H 0.53875 0.2355 0.29906 0.0
H3968 H 0.51747 0.21619 0.2615 0.0
H3969 H 0.5312 0.21326 0.25791 0.0
H3970 H 0.52556 0.22613 0.25462 0.0
H3971 H 0.52461 0.24751 0.29987 0.0
H3972 H 0.51244 0.24111 0.29492 0.0
H3973 H 0.51894 0.2515 0.2871 0.0
H3974 H 0.46129 0.21089 0.30396 0.0
H3975 H 0.46594 0.19144 0.3051 0.0
H3976 H 0.47401 0.19848 0.2952 0.0
H3977 H 0.46291 0.18993 0.29092 0.0
H3978 H 0.46756 0.22684 0.29766 0.0
H3979 H 0.46586 0.20841 0.26871 0.0
H3980 H 0.49232 0.23742 0.29541 0.0
H3981 H 0.47924 0.24191 0.29945 0.0
H3982 H 0.48564 0.24738 0.2875 0.0
H3983 H 0.4784 0.21074 0.2546 0.0
H3984 H 0.49147 0.21597 0.25861 0.0
H3985 H 0.48189 0.22474 0.25257 0.0
H3986 H 0.45046 0.29959 0.23397 0.0
H3987 H 0.46313 0.29191 0.24386 0.0
H3988 H 0.4645 0.27159 0.21614 0.0
H3989 H 0.4816 0.27911 0.25965 0.0
H3990 H 0.47653 0.29236 0.25705 0.0
H3991 H 0.48975 0.28874 0.25241 0.0
H3992 H 0.4783 0.25909 0.21375 0.0
H3993 H 0.48423 0.25415 0.22607 0.0
H3994 H 0.49111 0.26439 0.21838 0.0
H3995 H 0.55785 0.27354 0.21912 0.0
H3996 H 0.57353 0.27452 0.23161 0.0
H3997 H 0.56087 0.27424 0.23868 0.0
H3998 H 0.56839 0.28672 0.23735 0.0
H3999 H 0.53968 0.29586 0.23977 0.0
H4000 H 0.54056 0.27009 0.21711 0.0
H4001 H 0.5201 0.28458 0.25693 0.0
H4002 H 0.51286 0.29261 0.24747 0.0
H4003 H 0.52572 0.29737 0.25253 0.0
H4004 H 0.52678 0.25703 0.21573 0.0
H4005 H 0.51373 0.26091 0.22062 0.0
H4006 H 0.52229 0.25297 0.22897 0.0
H4007 H 0.50357 0.22439 0.2809 0.0
H4008 H 0.47554 0.24356 0.26272 0.0
H4009 H 0.47507 0.25815 0.25002 0.0
H4010 H 0.50177 0.28011 0.23177 0.0
H4011 H 0.52972 0.26144 0.25057 0.0
H4012 H 0.53018 0.24709 0.2635 0.0
H4013 H 0.43376 0.292 0.24295 0.0
H4014 H 0.44509 0.28358 0.24542 0.0
H4015 H 0.43514 0.27963 0.23558 0.0
H4016 H 0.17323 0.1816 0.10076 0.0
H4017 H 0.20466 0.18278 0.11569 0.0
H4018 H 0.18004 0.19284 0.08598 0.0
H4019 H 0.21144 0.19411 0.10104 0.0
H4020 H 0.22314 0.20717 0.06896 0.0
H4021 H 0.2161 0.19444 0.08238 0.0
H4022 H 0.18583 0.211 0.08249 0.0
H4023 H 0.19279 0.22347 0.06882 0.0
C4024 C 0.18158 0.18431 0.10091 0.0
C4025 C 0.1884 0.18129 0.1094 0.0
C4026 C 0.18549 0.19076 0.09245 0.0
C4027 C 0.1963 0.19441 0.09229 0.0
C4028 C 0.20312 0.19131 0.10077 0.0
C4029 C 0.19923 0.18482 0.10919 0.0
C4030 C 0.21491 0.20794 0.0717 0.0
C4031 C 0.20843 0.21617 0.06765 0.0
C4032 C 0.21091 0.20072 0.07949 0.0
C4033 C 0.20038 0.20167 0.08354 0.0
C4034 C 0.19389 0.20988 0.07943 0.0
C4035 C 0.19788 0.21706 0.07162 0.0
H4036 H 0.80127 0.17707 0.10583 0.0
H4037 H 0.82849 0.1992 0.10775 0.0
H4038 H 0.79337 0.18813 0.09182 0.0
H4039 H 0.82025 0.21061 0.09418 0.0
H4040 H 0.80703 0.22448 0.06304 0.0
H4041 H 0.81564 0.21213 0.07558 0.0
H4042 H 0.7847 0.20494 0.09019 0.0
H4043 H 0.77611 0.21697 0.07739 0.0
C4044 C 0.80562 0.18426 0.10323 0.0
C4045 C 0.81554 0.18723 0.10796 0.0
C4046 C 0.801 0.1907 0.09529 0.0
C4047 C 0.80611 0.20032 0.09191 0.0
C4048 C 0.81611 0.20321 0.0965 0.0
C4049 C 0.82078 0.19673 0.1044 0.0
C4050 C 0.80207 0.2201 0.06881 0.0
C4051 C 0.79085 0.22148 0.06906 0.0
C4052 C 0.80701 0.21311 0.07608 0.0
C4053 C 0.80087 0.20748 0.08388 0.0
C4054 C 0.78966 0.20894 0.08415 0.0
C4055 C 0.78472 0.21586 0.07685 0.0
H4056 H 0.8076 0.81601 0.11823 0.0
H4057 H 0.83401 0.83169 0.10135 0.0
H4058 H 0.80193 0.80723 0.10154 0.0
H4059 H 0.82844 0.82282 0.08473 0.0
H4060 H 0.80776 0.81531 0.05506 0.0
H4061 H 0.81289 0.8238 0.07202 0.0
H4062 H 0.80866 0.79336 0.08852 0.0
H4063 H 0.80359 0.78485 0.0715 0.0
C4064 C 0.81219 0.81758 0.11096 0.0
C4065 C 0.82124 0.82457 0.1111 0.0
C4066 C 0.80899 0.81249 0.10143 0.0
C4067 C 0.81471 0.81437 0.09182 0.0
C4068 C 0.8238 0.8213 0.09198 0.0
C4069 C 0.82706 0.8263 0.10152 0.0
C4070 C 0.80778 0.81048 0.06234 0.0
C4071 C 0.80503 0.79948 0.06198 0.0
C4072 C 0.81081 0.8153 0.07203 0.0
C4073 C 0.81117 0.80925 0.0816 0.0
C4074 C 0.80833 0.79826 0.08129 0.0
C4075 C 0.8054 0.79339 0.07156 0.0
H4076 H 0.18303 0.81298 0.10666 0.0
H4077 H 0.20576 0.83934 0.10184 0.0
H4078 H 0.18978 0.80436 0.09058 0.0
H4079 H 0.212 0.83108 0.08538 0.0
H4080 H 0.22767 0.80955 0.06107 0.0
H4081 H 0.22195 0.81672 0.07832 0.0
H4082 H 0.1892 0.8063 0.07161 0.0
H4083 H 0.19506 0.79872 0.05463 0.0
C4084 C 0.18949 0.81694 0.1022 0.0
C4085 C 0.19382 0.82689 0.10557 0.0
C4086 C 0.19327 0.81206 0.09287 0.0
C4087 C 0.20142 0.81703 0.08662 0.0
C4088 C 0.20582 0.82693 0.09004 0.0
C4089 C 0.2021 0.83177 0.09942 0.0
C4090 C 0.2193 0.8086 0.0634 0.0
C4091 C 0.21186 0.80332 0.05663 0.0
C4092 C 0.21598 0.81283 0.07323 0.0
C4093 C 0.2051 0.81208 0.07641 0.0
C4094 C 0.19767 0.80683 0.06958 0.0
C4095 C 0.20101 0.80252 0.05982 0.0
H4096 H 0.18272 0.8119 0.8947 0.0
H4097 H 0.20587 0.83771 0.90012 0.0
H4098 H 0.18821 0.80339 0.91149 0.0
H4099 H 0.21177 0.82889 0.91655 0.0
H4100 H 0.21012 0.81737 0.95153 0.0
H4101 H 0.20535 0.82552 0.93434 0.0
H4102 H 0.2025 0.79398 0.92017 0.0
H4103 H 0.20692 0.78584 0.93753 0.0
C4104 C 0.18901 0.81575 0.89944 0.0
C4105 C 0.19382 0.82553 0.89605 0.0
C4106 C 0.19226 0.81078 0.90901 0.0
C4107 C 0.20044 0.81545 0.9154 0.0
C4108 C 0.20536 0.82513 0.91191 0.0
C4109 C 0.20207 0.83012 0.90239 0.0
C4110 C 0.20861 0.8122 0.94469 0.0
C4111 C 0.20914 0.80099 0.94581 0.0
C4112 C 0.2059 0.81686 0.93483 0.0
C4113 C 0.20361 0.81042 0.92582 0.0
C4114 C 0.20414 0.79919 0.92694 0.0
C4115 C 0.20679 0.79452 0.93685 0.0
H4116 H 0.18546 0.20747 0.8911 0.0
H4117 H 0.18357 0.17576 0.90538 0.0
H4118 H 0.19641 0.21374 0.90616 0.0
H4119 H 0.19444 0.18204 0.92053 0.0
H4120 H 0.2246 0.19407 0.93879 0.0
H4121 H 0.2126 0.18763 0.92458 0.0
H4122 H 0.19604 0.21783 0.92499 0.0
H4123 H 0.2083 0.22435 0.93899 0.0
C4124 C 0.18727 0.20186 0.89753 0.0
C4125 C 0.18365 0.1911 0.89702 0.0
C4126 C 0.19354 0.20547 0.90619 0.0
C4127 C 0.19632 0.19841 0.9146 0.0
C4128 C 0.1926 0.18767 0.91413 0.0
C4129 C 0.18637 0.18405 0.90544 0.0
C4130 C 0.21828 0.19925 0.93595 0.0
C4131 C 0.21726 0.20962 0.94017 0.0
C4132 C 0.21138 0.19556 0.92782 0.0
C4133 C 0.20331 0.20218 0.92364 0.0
C4134 C 0.20222 0.21254 0.92793 0.0
C4135 C 0.20916 0.21625 0.93604 0.0
H4136 H 0.82849 0.18578 0.91253 0.0
H4137 H 0.81065 0.20142 0.88723 0.0
H4138 H 0.81781 0.19507 0.92604 0.0
H4139 H 0.79996 0.21062 0.90069 0.0
H4140 H 0.79245 0.23439 0.92763 0.0
H4141 H 0.80354 0.22491 0.91467 0.0
H4142 H 0.79814 0.19529 0.93233 0.0
H4143 H 0.78695 0.20475 0.94523 0.0
C4144 C 0.82229 0.1912 0.90987 0.0
C4145 C 0.82039 0.19288 0.89884 0.0
C4146 C 0.81615 0.19645 0.91759 0.0
C4147 C 0.8081 0.20359 0.9144 0.0
C4148 C 0.80619 0.20524 0.90337 0.0
C4149 C 0.81223 0.1999 0.89568 0.0
C4150 C 0.79374 0.22588 0.92879 0.0
C4151 C 0.78903 0.22038 0.93757 0.0
C4152 C 0.80001 0.22045 0.92135 0.0
C4153 C 0.80171 0.20938 0.92252 0.0
C4154 C 0.79707 0.20386 0.93132 0.0
C4155 C 0.79068 0.20928 0.93871 0.0
H4156 H 0.80672 0.81607 0.89196 0.0
H4157 H 0.83419 0.83036 0.9082 0.0
H4158 H 0.80104 0.80738 0.90882 0.0
H4159 H 0.82844 0.82181 0.92504 0.0
H4160 H 0.82147 0.79558 0.9501 0.0
H4161 H 0.82684 0.80331 0.93275 0.0
H4162 H 0.79407 0.81293 0.92706 0.0
H4163 H 0.78872 0.80522 0.94448 0.0
C4164 C 0.81157 0.81731 0.89911 0.0
C4165 C 0.82091 0.8239 0.89875 0.0
C4166 C 0.80826 0.81242 0.90878 0.0
C4167 C 0.8143 0.8139 0.91824 0.0
C4168 C 0.82368 0.82043 0.91785 0.0
C4169 C 0.82691 0.8254 0.90823 0.0
C4170 C 0.81539 0.79921 0.94506 0.0
C4171 C 0.80464 0.79957 0.94855 0.0
C4172 C 0.81847 0.80371 0.93518 0.0
C4173 C 0.81087 0.80871 0.92853 0.0
C4174 C 0.80008 0.809 0.93195 0.0
C4175 C 0.79701 0.80457 0.94191 0.0
H4176 H 0.0979 0.1896 0.17314 0.0
H4177 H 0.1206 0.19486 0.19902 0.0
H4178 H 0.08358 0.19717 0.18415 0.0
H4179 H 0.10636 0.20248 0.20995 0.0
H4180 H 0.07573 0.20377 0.23036 0.0
H4181 H 0.08929 0.1957 0.21889 0.0
H4182 H 0.07908 0.21549 0.19224 0.0
H4183 H 0.06558 0.22368 0.20377 0.0
C4184 C 0.09981 0.19233 0.18119 0.0
C4185 C 0.11037 0.19164 0.18522 0.0
C4186 C 0.09165 0.19674 0.18744 0.0
C4187 C 0.09385 0.20039 0.19791 0.0
C4188 C 0.1044 0.19964 0.20195 0.0
C4189 C 0.11257 0.19536 0.19566 0.0
C4190 C 0.07631 0.2063 0.22201 0.0
C4191 C 0.06944 0.2142 0.21793 0.0
C4192 C 0.08411 0.20174 0.21548 0.0
C4193 C 0.08523 0.20496 0.20467 0.0
C4194 C 0.07831 0.21277 0.20051 0.0
C4195 C 0.07057 0.21744 0.20711 0.0
H4196 H 0.83083 0.09938 0.18225 0.0
H4197 H 0.81141 0.12263 0.19852 0.0
H4198 H 0.82059 0.08479 0.19109 0.0
H4199 H 0.80115 0.10809 0.20726 0.0
H4200 H 0.79461 0.07986 0.23046 0.0
H4201 H 0.80508 0.09397 0.22122 0.0
H4202 H 0.80144 0.07693 0.19125 0.0
H4203 H 0.79088 0.06284 0.20049 0.0
C4204 C 0.82436 0.10136 0.18769 0.0
C4205 C 0.82192 0.11214 0.1897 0.0
C4206 C 0.81847 0.09302 0.19269 0.0
C4207 C 0.81012 0.09531 0.1999 0.0
C4208 C 0.80762 0.10609 0.20183 0.0
C4209 C 0.81342 0.11441 0.19675 0.0
C4210 C 0.79616 0.07907 0.22192 0.0
C4211 C 0.79214 0.07013 0.21626 0.0
C4212 C 0.80207 0.08718 0.21662 0.0
C4213 C 0.80408 0.08653 0.20552 0.0
C4214 C 0.80012 0.07756 0.19984 0.0
C4215 C 0.7941 0.0695 0.20513 0.0
H4216 H 0.9087 0.8324 0.18778 0.0
H4217 H 0.89389 0.80071 0.18834 0.0
H4218 H 0.92364 0.8258 0.1986 0.0
H4219 H 0.9087 0.79414 0.19925 0.0
H4220 H 0.94117 0.78302 0.21094 0.0
H4221 H 0.9274 0.78995 0.19886 0.0
H4222 H 0.92753 0.81974 0.21652 0.0
H4223 H 0.94156 0.8129 0.22833 0.0
C4224 C 0.9086 0.82404 0.19028 0.0
C4225 C 0.90011 0.81708 0.18718 0.0
C4226 C 0.91716 0.82025 0.19648 0.0
C4227 C 0.91741 0.80942 0.1998 0.0
C4228 C 0.90891 0.80247 0.19668 0.0
C4229 C 0.90038 0.80625 0.19044 0.0
C4230 C 0.9384 0.79112 0.21209 0.0
C4231 C 0.94263 0.79752 0.22043 0.0
C4232 C 0.93041 0.79506 0.20525 0.0
C4233 C 0.92633 0.80543 0.20669 0.0
C4234 C 0.93061 0.81181 0.21502 0.0
C4235 C 0.93863 0.80789 0.22182 0.0
H4236 H 0.17614 0.90721 0.18424 0.0
H4237 H 0.19633 0.88365 0.19943 0.0
H4238 H 0.18651 0.92162 0.19306 0.0
H4239 H 0.20669 0.89801 0.20817 0.0
H4240 H 0.21387 0.92569 0.2315 0.0
H4241 H 0.20304 0.91181 0.2225 0.0
H4242 H 0.2058 0.92944 0.19255 0.0
H4243 H 0.21675 0.94328 0.20152 0.0
C4244 C 0.18278 0.90513 0.18947 0.0
C4245 C 0.18544 0.89432 0.19115 0.0
C4246 C 0.18875 0.91336 0.19445 0.0
C4247 C 0.19736 0.91092 0.20133 0.0
C4248 C 0.20002 0.90012 0.20299 0.0
C4249 C 0.19416 0.89191 0.19791 0.0
C4250 C 0.21205 0.92665 0.22303 0.0
C4251 C 0.21595 0.93568 0.21729 0.0
C4252 C 0.20593 0.91868 0.21786 0.0
C4253 C 0.20356 0.91958 0.20684 0.0
C4254 C 0.20739 0.92863 0.20109 0.0
C4255 C 0.21363 0.93655 0.20623 0.0
H4256 H 0.1122 0.80134 0.82697 0.0
H4257 H 0.11292 0.83104 0.80872 0.0
H4258 H 0.0976 0.79455 0.81568 0.0
H4259 H 0.09877 0.82398 0.79702 0.0
H4260 H 0.06706 0.81189 0.783 0.0
H4261 H 0.08013 0.81912 0.79589 0.0
H4262 H 0.09506 0.78809 0.79788 0.0
H4263 H 0.08173 0.78083 0.78534 0.0
C4264 C 0.10921 0.80646 0.82059 0.0
C4265 C 0.11378 0.81675 0.81877 0.0
C4266 C 0.10093 0.8025 0.81401 0.0
C4267 C 0.09704 0.80867 0.80537 0.0
C4268 C 0.10148 0.81903 0.80365 0.0
C4269 C 0.10972 0.82302 0.81028 0.0
C4270 C 0.07301 0.80658 0.78637 0.0
C4271 C 0.07322 0.79572 0.78337 0.0
C4272 C 0.08059 0.81075 0.79366 0.0
C4273 C 0.08865 0.80419 0.79798 0.0
C4274 C 0.08884 0.79333 0.79493 0.0
C4275 C 0.08123 0.78916 0.78771 0.0
H4276 H 0.17991 0.10983 0.81242 0.0
H4277 H 0.20519 0.10877 0.83632 0.0
H4278 H 0.18653 0.09336 0.8045 0.0
H4279 H 0.21214 0.0927 0.82807 0.0
H4280 H 0.21355 0.05727 0.81908 0.0
H4281 H 0.20745 0.07415 0.82649 0.0
H4282 H 0.20101 0.08588 0.79433 0.0
H4283 H 0.20682 0.06877 0.78697 0.0
C4284 C 0.1869 0.10612 0.81597 0.0
C4285 C 0.19199 0.11065 0.82504 0.0
C4286 C 0.19079 0.09674 0.81133 0.0
C4287 C 0.19988 0.09167 0.81564 0.0
C4288 C 0.20504 0.09629 0.82461 0.0
C4289 C 0.20113 0.10562 0.82927 0.0
C4290 C 0.21097 0.06353 0.8136 0.0
C4291 C 0.21091 0.06179 0.80244 0.0
C4292 C 0.20749 0.07322 0.81783 0.0
C4293 C 0.20381 0.08144 0.81102 0.0
C4294 C 0.20373 0.0797 0.79983 0.0
C4295 C 0.20718 0.06996 0.79559 0.0
H4296 H 0.9068 0.16496 0.81869 0.0
H4297 H 0.88969 0.19441 0.82358 0.0
H4298 H 0.92111 0.175 0.80942 0.0
H4299 H 0.90406 0.20446 0.81433 0.0
H4300 H 0.93592 0.22014 0.80282 0.0
H4301 H 0.92326 0.21029 0.81462 0.0
H4302 H 0.92212 0.18413 0.79196 0.0
H4303 H 0.93478 0.19386 0.78035 0.0
C4304 C 0.90611 0.17359 0.81782 0.0
C4305 C 0.89703 0.17886 0.82177 0.0
C4306 C 0.91432 0.17934 0.81251 0.0
C4307 C 0.91367 0.19051 0.81103 0.0
C4308 C 0.90484 0.19587 0.81541 0.0
C4309 C 0.89661 0.19011 0.82072 0.0
C4310 C 0.93306 0.21221 0.80049 0.0
C4311 C 0.9365 0.20767 0.79077 0.0
C4312 C 0.92577 0.20661 0.80718 0.0
C4313 C 0.92177 0.19638 0.80428 0.0
C4314 C 0.92523 0.19188 0.79457 0.0
C4315 C 0.93246 0.19747 0.78789 0.0
H4316 H 0.83752 0.90595 0.81636 0.0
H4317 H 0.80909 0.88554 0.81393 0.0
H4318 H 0.82693 0.92149 0.81136 0.0
H4319 H 0.79849 0.90104 0.80878 0.0
H4320 H 0.781 0.93299 0.81271 0.0
H4321 H 0.79143 0.917 0.81646 0.0
H4322 H 0.81746 0.92987 0.79685 0.0
H4323 H 0.8071 0.94602 0.79341 0.0
C4324 C 0.82903 0.90476 0.81463 0.0
C4325 C 0.82414 0.89451 0.81558 0.0
C4326 C 0.82295 0.91367 0.81173 0.0
C4327 C 0.81184 0.91254 0.80965 0.0
C4328 C 0.80699 0.90225 0.81048 0.0
C4329 C 0.81306 0.89336 0.81344 0.0
C4330 C 0.78888 0.9323 0.80907 0.0
C4331 C 0.79313 0.94065 0.80258 0.0
C4332 C 0.79486 0.92314 0.81119 0.0
C4333 C 0.80529 0.9221 0.80693 0.0
C4334 C 0.8095 0.93043 0.80035 0.0
C4335 C 0.80353 0.93963 0.79826 0.0
H4336 H 0.18066 0.09895 0.17619 0.0
H4337 H 0.18092 0.11327 0.20775 0.0
H4338 H 0.19137 0.08416 0.18305 0.0
H4339 H 0.19169 0.09858 0.21458 0.0
H4340 H 0.20374 0.06643 0.22613 0.0
H4341 H 0.19139 0.07975 0.21896 0.0
H4342 H 0.20941 0.0809 0.18921 0.0
H4343 H 0.22152 0.06739 0.19629 0.0
C4344 C 0.18304 0.09896 0.18458 0.0
C4345 C 0.17993 0.1073 0.19142 0.0
C4346 C 0.18919 0.09048 0.18852 0.0
C4347 C 0.1924 0.09015 0.19938 0.0
C4348 C 0.1892 0.09845 0.20622 0.0
C4349 C 0.18303 0.1069 0.2023 0.0
C4350 C 0.20491 0.06938 0.21798 0.0
C4351 C 0.21346 0.06569 0.21168 0.0
C4352 C 0.19791 0.0771 0.2139 0.0
C4353 C 0.19939 0.08142 0.20349 0.0
C4354 C 0.20789 0.07763 0.19718 0.0
C4355 C 0.21486 0.06991 0.20124 0.0
H4356 H 0.17097 0.91084 0.82069 0.0
H4357 H 0.20024 0.89419 0.81341 0.0
H4358 H 0.17975 0.92788 0.81596 0.0
H4359 H 0.20904 0.91128 0.80851 0.0
H4360 H 0.22389 0.9456 0.81159 0.0
H4361 H 0.21574 0.92807 0.81603 0.0
H4362 H 0.18623 0.93751 0.80042 0.0
H4363 H 0.19428 0.95506 0.79632 0.0
C4364 C 0.17926 0.91082 0.81797 0.0
C4365 C 0.18489 0.90116 0.81735 0.0
C4366 C 0.1843 0.92058 0.81523 0.0
C4367 C 0.19508 0.92095 0.81175 0.0
C4368 C 0.20076 0.9113 0.81126 0.0
C4369 C 0.19572 0.90151 0.81405 0.0
C4370 C 0.2157 0.94385 0.80904 0.0
C4371 C 0.20974 0.95167 0.80356 0.0
C4372 C 0.21103 0.93381 0.81154 0.0
C4373 C 0.2003 0.93139 0.80864 0.0
C4374 C 0.19444 0.93915 0.80295 0.0
C4375 C 0.19909 0.94918 0.8005 0.0
H4376 H 0.11402 0.18518 0.80054 0.0
H4377 H 0.10036 0.18356 0.83247 0.0
H4378 H 0.09896 0.19589 0.79445 0.0
H4379 H 0.0852 0.19419 0.82637 0.0
H4380 H 0.06728 0.22414 0.81458 0.0
H4381 H 0.08137 0.21225 0.82086 0.0
H4382 H 0.08002 0.19538 0.7906 0.0
H4383 H 0.06613 0.20753 0.78423 0.0
C4384 C 0.10772 0.18699 0.80623 0.0
C4385 C 0.10841 0.18352 0.817 0.0
C4386 C 0.09906 0.19312 0.80273 0.0
C4387 C 0.09083 0.19592 0.80991 0.0
C4388 C 0.09146 0.19234 0.82066 0.0
C4389 C 0.10016 0.18623 0.82416 0.0
C4390 C 0.06989 0.21778 0.80935 0.0
C4391 C 0.06544 0.21663 0.79901 0.0
C4392 C 0.07795 0.21094 0.81295 0.0
C4393 C 0.08183 0.20281 0.80626 0.0
C4394 C 0.0773 0.2016 0.79593 0.0
C4395 C 0.06926 0.20848 0.79232 0.0
H4396 H 0.79645 0.10817 0.83493 0.0
H4397 H 0.82783 0.10599 0.82013 0.0
H4398 H 0.78964 0.09392 0.82335 0.0
H4399 H 0.82124 0.09121 0.80913 0.0
H4400 H 0.80301 0.07441 0.782 0.0
H4401 H 0.81016 0.08808 0.79412 0.0
H4402 H 0.78974 0.07544 0.81961 0.0
H4403 H 0.78219 0.06216 0.80725 0.0
C4404 C 0.80193 0.10463 0.82924 0.0
C4405 C 0.81269 0.10833 0.82843 0.0
C4406 C 0.79806 0.09631 0.8227 0.0
C4407 C 0.80486 0.09138 0.81525 0.0
C4408 C 0.81569 0.09491 0.81463 0.0
C4409 C 0.81954 0.1033 0.82109 0.0
C4410 C 0.80014 0.07452 0.79023 0.0
C4411 C 0.79221 0.06707 0.79371 0.0
C4412 C 0.80427 0.08231 0.79722 0.0
C4413 C 0.80062 0.08285 0.80791 0.0
C4414 C 0.79268 0.07537 0.81141 0.0
C4415 C 0.78844 0.06764 0.80436 0.0
H4416 H 0.89953 0.82232 0.80922 0.0
H4417 H 0.90379 0.80165 0.83691 0.0
H4418 H 0.91577 0.81509 0.80111 0.0
H4419 H 0.91959 0.79409 0.82864 0.0
H4420 H 0.95247 0.78794 0.8163 0.0
H4421 H 0.93778 0.79802 0.824 0.0
H4422 H 0.92207 0.79882 0.79296 0.0
H4423 H 0.93706 0.78908 0.78517 0.0
C4424 C 0.90393 0.81627 0.8136 0.0
C4425 C 0.90029 0.81253 0.8237 0.0
C4426 C 0.91318 0.81204 0.8089 0.0
C4427 C 0.91902 0.804 0.81421 0.0
C4428 C 0.91542 0.80038 0.82436 0.0
C4429 C 0.90623 0.8046 0.82905 0.0
C4430 C 0.94598 0.79045 0.81107 0.0
C4431 C 0.94592 0.78772 0.80012 0.0
C4432 C 0.93749 0.79614 0.81551 0.0
C4433 C 0.92864 0.79911 0.80915 0.0
C4434 C 0.92878 0.79675 0.79809 0.0
C4435 C 0.93734 0.79112 0.79362 0.0
H4436 H 0.83638 0.90764 0.1925 0.0
H4437 H 0.81166 0.88479 0.2025 0.0
H4438 H 0.82582 0.92228 0.19987 0.0
H4439 H 0.8012 0.89937 0.20993 0.0
H4440 H 0.78023 0.92915 0.2106 0.0
H4441 H 0.79119 0.91517 0.20272 0.0
H4442 H 0.81945 0.9286 0.2183 0.0
H4443 H 0.80844 0.94256 0.2263 0.0
C4444 C 0.82868 0.90575 0.19623 0.0
C4445 C 0.82485 0.89506 0.19691 0.0
C4446 C 0.82269 0.91412 0.20053 0.0
C4447 C 0.81268 0.91197 0.20546 0.0
C4448 C 0.80884 0.90128 0.2061 0.0
C4449 C 0.81487 0.89293 0.20192 0.0
C4450 C 0.78881 0.92919 0.21223 0.0
C4451 C 0.79349 0.93709 0.21888 0.0
C4452 C 0.79507 0.92114 0.2078 0.0
C4453 C 0.80618 0.9208 0.20988 0.0
C4454 C 0.81092 0.92875 0.21645 0.0
C4455 C 0.80462 0.93675 0.22101 0.0
H4456 H 0.1015 0.80962 0.16507 0.0
H4457 H 0.11863 0.81628 0.19464 0.0
H4458 H 0.08704 0.80083 0.17529 0.0
H4459 H 0.10413 0.80749 0.20487 0.0
H4460 H 0.07194 0.79729 0.22047 0.0
H4461 H 0.08505 0.80824 0.21023 0.0
H4462 H 0.08531 0.78408 0.18545 0.0
H4463 H 0.07217 0.77332 0.19555 0.0
C4464 C 0.10218 0.80921 0.17375 0.0
C4465 C 0.11128 0.81356 0.17902 0.0
C4466 C 0.09389 0.80418 0.17961 0.0
C4467 C 0.09448 0.80336 0.19089 0.0
C4468 C 0.10338 0.80806 0.1962 0.0
C4469 C 0.1117 0.8131 0.19033 0.0
C4470 C 0.07471 0.79444 0.21275 0.0
C4471 C 0.07087 0.78456 0.20869 0.0
C4472 C 0.08227 0.80065 0.20694 0.0
C4473 C 0.08616 0.79708 0.19698 0.0
C4474 C 0.08231 0.78719 0.19297 0.0
C4475 C 0.0748 0.781 0.19877 0.0
H4476 H 0.88558 0.19986 0.19546 0.0
H4477 H 0.90938 0.18703 0.17402 0.0
H4478 H 0.89992 0.20744 0.20672 0.0
H4479 H 0.92378 0.19469 0.18529 0.0
H4480 H 0.94494 0.19991 0.21627 0.0
H4481 H 0.93117 0.19215 0.20438 0.0
H4482 H 0.91416 0.22206 0.2047 0.0
H4483 H 0.92798 0.22985 0.21649 0.0
C4484 C 0.89388 0.19861 0.1932 0.0
C4485 C 0.89637 0.19285 0.18387 0.0
C4486 C 0.90209 0.20302 0.19959 0.0
C4487 C 0.91296 0.20169 0.19685 0.0
C4488 C 0.91546 0.1958 0.18761 0.0
C4489 C 0.90724 0.19149 0.18113 0.0
C4490 C 0.93837 0.20489 0.21363 0.0
C4491 C 0.93766 0.21558 0.21711 0.0
C4492 C 0.93049 0.20044 0.20685 0.0
C4493 C 0.92161 0.20651 0.20361 0.0
C4494 C 0.92089 0.21718 0.20712 0.0
C4495 C 0.92883 0.22166 0.21378 0.0
H4496 H 0.1787 0.6825 0.60259 0.0
H4497 H 0.21028 0.68416 0.61719 0.0
H4498 H 0.18518 0.69381 0.58774 0.0
H4499 H 0.21673 0.69557 0.60245 0.0
H4500 H 0.22784 0.70859 0.5701 0.0
H4501 H 0.22115 0.69586 0.5837 0.0
H4502 H 0.19068 0.71207 0.58418 0.0
H4503 H 0.19729 0.72454 0.57035 0.0
C4504 C 0.18701 0.68533 0.60266 0.0
C4505 C 0.19397 0.68243 0.61108 0.0
C4506 C 0.19073 0.69183 0.59415 0.0
C4507 C 0.20149 0.69562 0.59387 0.0
C4508 C 0.20845 0.69264 0.60227 0.0
C4509 C 0.20475 0.68612 0.61075 0.0
C4510 C 0.21964 0.70928 0.57297 0.0
C4511 C 0.21299 0.71741 0.56898 0.0
C4512 C 0.21584 0.70207 0.58085 0.0
C4513 C 0.20536 0.70291 0.58505 0.0
C4514 C 0.19872 0.71103 0.58101 0.0
C4515 C 0.2025 0.7182 0.5731 0.0
H4516 H 0.80428 0.67149 0.60486 0.0
H4517 H 0.82987 0.6952 0.60888 0.0
H4518 H 0.7989 0.68025 0.58822 0.0
H4519 H 0.82401 0.70439 0.59264 0.0
H4520 H 0.81928 0.7104 0.55668 0.0
H4521 H 0.82429 0.70227 0.5738 0.0
H4522 H 0.79067 0.69548 0.58065 0.0
H4523 H 0.78576 0.70316 0.56326 0.0
C4524 C 0.80875 0.67859 0.60223 0.0
C4525 C 0.81758 0.68257 0.60821 0.0
C4526 C 0.80554 0.68373 0.59275 0.0
C4527 C 0.81101 0.69305 0.58904 0.0
C4528 C 0.8197 0.69715 0.59514 0.0
C4529 C 0.82297 0.69195 0.60457 0.0
C4530 C 0.81297 0.70727 0.56192 0.0
C4531 C 0.80212 0.70765 0.55873 0.0
C4532 C 0.81582 0.70265 0.57176 0.0
C4533 C 0.80789 0.69827 0.57869 0.0
C4534 C 0.79701 0.69867 0.5755 0.0
C4535 C 0.79417 0.7032 0.56558 0.0
H4536 H 0.82016 0.34045 0.59897 0.0
H4537 H 0.8143 0.3105 0.61595 0.0
H4538 H 0.81378 0.33227 0.58236 0.0
H4539 H 0.80788 0.30227 0.59924 0.0
H4540 H 0.80699 0.28944 0.56394 0.0
H4541 H 0.81364 0.29663 0.58108 0.0
H4542 H 0.79667 0.32603 0.57501 0.0
H4543 H 0.79023 0.31892 0.55792 0.0
C4544 C 0.81745 0.33212 0.59917 0.0
C4545 C 0.81763 0.32617 0.60882 0.0
C4546 C 0.81378 0.32743 0.58964 0.0
C4547 C 0.81017 0.31665 0.58949 0.0
C4548 C 0.81065 0.31058 0.59906 0.0
C4549 C 0.81434 0.31529 0.60863 0.0
C4550 C 0.80457 0.29737 0.56638 0.0
C4551 C 0.79796 0.30356 0.55967 0.0
C4552 C 0.80837 0.30149 0.57618 0.0
C4553 C 0.80574 0.31193 0.57939 0.0
C4554 C 0.79899 0.31802 0.57272 0.0
C4555 C 0.7952 0.31391 0.56298 0.0
H4556 H 0.20165 0.31581 0.61675 0.0
H4557 H 0.17994 0.33568 0.59858 0.0
H4558 H 0.20779 0.30765 0.60002 0.0
H4559 H 0.18613 0.32761 0.5819 0.0
H4560 H 0.19134 0.30252 0.55579 0.0
H4561 H 0.18516 0.30955 0.57298 0.0
H4562 H 0.21819 0.31376 0.58332 0.0
H4563 H 0.22438 0.30681 0.56608 0.0
C4564 C 0.19816 0.31839 0.60919 0.0
C4565 C 0.19032 0.32638 0.60896 0.0
C4566 C 0.20173 0.31378 0.59962 0.0
C4567 C 0.19742 0.31699 0.58967 0.0
C4568 C 0.18952 0.32491 0.58946 0.0
C4569 C 0.18604 0.32959 0.599 0.0
C4570 C 0.19727 0.30481 0.56181 0.0
C4571 C 0.20833 0.30388 0.55969 0.0
C4572 C 0.19374 0.3089 0.5716 0.0
C4573 C 0.20119 0.31217 0.57949 0.0
C4574 C 0.21226 0.31116 0.57744 0.0
C4575 C 0.2158 0.30716 0.56759 0.0
H4576 H 0.19131 0.31433 0.39283 0.0
H4577 H 0.18565 0.34383 0.40982 0.0
H4578 H 0.19786 0.30613 0.40947 0.0
H4579 H 0.19211 0.33565 0.42641 0.0
H4580 H 0.21527 0.32251 0.45103 0.0
H4581 H 0.20894 0.32986 0.43399 0.0
H4582 H 0.1921 0.2999 0.42736 0.0
H4583 H 0.19868 0.29248 0.44438 0.0
C4584 C 0.19135 0.31902 0.40014 0.0
C4585 C 0.18805 0.32976 0.39999 0.0
C4586 C 0.19511 0.31433 0.40967 0.0
C4587 C 0.19562 0.32027 0.41925 0.0
C4588 C 0.19206 0.33092 0.41912 0.0
C4589 C 0.18835 0.33561 0.40962 0.0
C4590 C 0.21034 0.31745 0.44586 0.0
C4591 C 0.20759 0.30688 0.44897 0.0
C4592 C 0.20661 0.32169 0.43615 0.0
C4593 C 0.19995 0.3155 0.42933 0.0
C4594 C 0.19731 0.30485 0.43236 0.0
C4595 C 0.20106 0.3006 0.4421 0.0
H4596 H 0.18923 0.70657 0.39305 0.0
H4597 H 0.18729 0.67521 0.40808 0.0
H4598 H 0.20029 0.71315 0.40788 0.0
H4599 H 0.19826 0.68182 0.42304 0.0
H4600 H 0.22853 0.69431 0.44092 0.0
H4601 H 0.21643 0.68747 0.42697 0.0
H4602 H 0.19996 0.71774 0.42654 0.0
H4603 H 0.21233 0.72465 0.44025 0.0
C4604 C 0.19105 0.70111 0.3996 0.0
C4605 C 0.18737 0.69036 0.39938 0.0
C4606 C 0.19738 0.7049 0.40814 0.0
C4607 C 0.20016 0.69804 0.4167 0.0
C4608 C 0.19641 0.68729 0.41651 0.0
C4609 C 0.19011 0.68349 0.40794 0.0
C4610 C 0.22221 0.69943 0.43795 0.0
C4611 C 0.22125 0.70994 0.44184 0.0
C4612 C 0.21525 0.69551 0.42997 0.0
C4613 C 0.20718 0.70203 0.42563 0.0
C4614 C 0.20615 0.71252 0.42961 0.0
C4615 C 0.21315 0.71645 0.43756 0.0
H4616 H 0.81672 0.67468 0.39868 0.0
H4617 H 0.82395 0.70811 0.39168 0.0
H4618 H 0.80706 0.67984 0.41482 0.0
H4619 H 0.81437 0.71325 0.40796 0.0
H4620 H 0.80696 0.71583 0.44469 0.0
H4621 H 0.81618 0.71159 0.4279 0.0
H4622 H 0.79048 0.68914 0.41985 0.0
H4623 H 0.78132 0.69335 0.43663 0.0
C4624 C 0.81615 0.68314 0.40051 0.0
C4625 C 0.82108 0.69097 0.39384 0.0
C4626 C 0.81063 0.68609 0.40978 0.0
C4627 C 0.80991 0.69696 0.41265 0.0
C4628 C 0.81488 0.70481 0.40603 0.0
C4629 C 0.82037 0.70185 0.39671 0.0
C4630 C 0.8032 0.71015 0.43923 0.0
C4631 C 0.7933 0.70509 0.44186 0.0
C4632 C 0.80848 0.70771 0.42963 0.0
C4633 C 0.80406 0.70003 0.42255 0.0
C4634 C 0.79414 0.69502 0.42517 0.0
C4635 C 0.78884 0.6975 0.43472 0.0
H4636 H 0.82853 0.30659 0.39265 0.0
H4637 H 0.8059 0.33182 0.39854 0.0
H4638 H 0.82273 0.29754 0.40912 0.0
H4639 H 0.80063 0.32316 0.41536 0.0
H4640 H 0.78685 0.30104 0.44116 0.0
H4641 H 0.79133 0.3085 0.42347 0.0
H4642 H 0.82445 0.29929 0.4279 0.0
H4643 H 0.8198 0.2914 0.44531 0.0
C4644 C 0.82229 0.31021 0.39743 0.0
C4645 C 0.81774 0.31999 0.39424 0.0
C4646 C 0.81906 0.30508 0.40698 0.0
C4647 C 0.81125 0.30963 0.41367 0.0
C4648 C 0.80658 0.31932 0.4104 0.0
C4649 C 0.80974 0.3244 0.4008 0.0
C4650 C 0.79503 0.30042 0.43824 0.0
C4651 C 0.80292 0.29537 0.44451 0.0
C4652 C 0.79764 0.30482 0.42814 0.0
C4653 C 0.80827 0.30448 0.42418 0.0
C4654 C 0.81614 0.29949 0.43052 0.0
C4655 C 0.8135 0.29499 0.44053 0.0
H4656 H 0.1245 0.69421 0.70005 0.0
H4657 H 0.10357 0.6908 0.67245 0.0
H4658 H 0.10982 0.70199 0.71022 0.0
H4659 H 0.08879 0.69848 0.68271 0.0
H4660 H 0.07022 0.72485 0.70182 0.0
H4661 H 0.08414 0.71643 0.69097 0.0
H4662 H 0.09213 0.69592 0.71786 0.0
H4663 H 0.07822 0.70427 0.72865 0.0
C4664 C 0.11676 0.69514 0.69615 0.0
C4665 C 0.11521 0.69189 0.68544 0.0
C4666 C 0.10833 0.69951 0.702 0.0
C4667 C 0.09814 0.70082 0.69727 0.0
C4668 C 0.09657 0.69762 0.68655 0.0
C4669 C 0.105 0.69314 0.68071 0.0
C4670 C 0.07481 0.7184 0.70533 0.0
C4671 C 0.07296 0.71505 0.71603 0.0
C4672 C 0.08279 0.71359 0.69913 0.0
C4673 C 0.08923 0.70551 0.70357 0.0
C4674 C 0.08735 0.70217 0.71424 0.0
C4675 C 0.07933 0.70688 0.72038 0.0
H4676 H 0.83548 0.59945 0.67663 0.0
H4677 H 0.82015 0.61613 0.70264 0.0
H4678 H 0.82629 0.58275 0.68213 0.0
H4679 H 0.8109 0.59941 0.70812 0.0
H4680 H 0.80754 0.56393 0.72089 0.0
H4681 H 0.81617 0.58104 0.71572 0.0
H4682 H 0.80702 0.57564 0.68263 0.0
H4683 H 0.79827 0.55861 0.68782 0.0
C4684 C 0.83018 0.59952 0.68355 0.0
C4685 C 0.82853 0.60908 0.68921 0.0
C4686 C 0.82485 0.59 0.68664 0.0
C4687 C 0.81786 0.5898 0.69553 0.0
C4688 C 0.81628 0.59933 0.70126 0.0
C4689 C 0.82151 0.6089 0.69808 0.0
C4690 C 0.8072 0.56649 0.71255 0.0
C4691 C 0.802 0.56005 0.70479 0.0
C4692 C 0.81216 0.57627 0.70959 0.0
C4693 C 0.81224 0.57967 0.69878 0.0
C4694 C 0.80712 0.5732 0.69102 0.0
C4695 C 0.80205 0.56351 0.69399 0.0
H4696 H 0.88927 0.30418 0.69523 0.0
H4697 H 0.90639 0.33115 0.68074 0.0
H4698 H 0.90594 0.29855 0.70398 0.0
H4699 H 0.92296 0.3256 0.68957 0.0
H4700 H 0.95252 0.30522 0.69629 0.0
H4701 H 0.93551 0.31025 0.68794 0.0
H4702 H 0.91914 0.30508 0.71825 0.0
H4703 H 0.93622 0.30011 0.72663 0.0
C4704 C 0.89659 0.30891 0.69393 0.0
C4705 C 0.89652 0.3181 0.68728 0.0
C4706 C 0.9061 0.30573 0.699 0.0
C4707 C 0.91577 0.3116 0.69741 0.0
C4708 C 0.91567 0.32084 0.69085 0.0
C4709 C 0.90615 0.32408 0.68588 0.0
C4710 C 0.94525 0.30501 0.70112 0.0
C4711 C 0.94567 0.30203 0.71204 0.0
C4712 C 0.93554 0.30798 0.69637 0.0
C4713 C 0.92599 0.30806 0.70244 0.0
C4714 C 0.92635 0.30497 0.71334 0.0
C4715 C 0.93611 0.3021 0.71813 0.0
H4716 H 0.1936 0.39516 0.68552 0.0
H4717 H 0.16648 0.3974 0.70712 0.0
H4718 H 0.20144 0.41158 0.69316 0.0
H4719 H 0.17454 0.41335 0.71511 0.0
H4720 H 0.18626 0.44656 0.72227 0.0
H4721 H 0.17852 0.43178 0.71191 0.0
H4722 H 0.21 0.41778 0.70938 0.0
H4723 H 0.21779 0.43288 0.71938 0.0
C4724 C 0.18929 0.39916 0.69187 0.0
C4725 C 0.17943 0.39491 0.69574 0.0
C4726 C 0.19384 0.40851 0.69633 0.0
C4727 C 0.18864 0.41381 0.70476 0.0
C4728 C 0.17872 0.40961 0.70853 0.0
C4729 C 0.17417 0.40032 0.70405 0.0
C4730 C 0.19155 0.44042 0.71933 0.0
C4731 C 0.20263 0.44087 0.72164 0.0
C4732 C 0.1871 0.43188 0.71348 0.0
C4733 C 0.1936 0.42349 0.70992 0.0
C4734 C 0.20476 0.42414 0.7119 0.0
C4735 C 0.20923 0.43275 0.71768 0.0
H4736 H 0.10347 0.33342 0.31846 0.0
H4737 H 0.10922 0.30085 0.32891 0.0
H4738 H 0.08693 0.32739 0.30953 0.0
H4739 H 0.09264 0.29486 0.32006 0.0
H4740 H 0.05568 0.292 0.31588 0.0
H4741 H 0.07329 0.29717 0.3231 0.0
H4742 H 0.0798 0.3163 0.29461 0.0
H4743 H 0.06205 0.31117 0.28742 0.0
C4744 C 0.10129 0.32495 0.31873 0.0
C4745 C 0.10764 0.31764 0.32447 0.0
C4746 C 0.09181 0.3215 0.31361 0.0
C4747 C 0.08844 0.31066 0.31414 0.0
C4748 C 0.09493 0.3033 0.31965 0.0
C4749 C 0.10441 0.30674 0.32474 0.0
C4750 C 0.06094 0.29719 0.31109 0.0
C4751 C 0.05755 0.30109 0.30103 0.0
C4752 C 0.07104 0.30013 0.31521 0.0
C4753 C 0.07796 0.30712 0.30941 0.0
C4754 C 0.07461 0.31096 0.2993 0.0
C4755 C 0.06451 0.30797 0.29515 0.0
H4756 H 0.17855 0.60578 0.31796 0.0
H4757 H 0.21125 0.61415 0.32706 0.0
H4758 H 0.18513 0.59105 0.3072 0.0
H4759 H 0.21788 0.59987 0.31575 0.0
H4760 H 0.22664 0.56797 0.3013 0.0
H4761 H 0.21936 0.58109 0.31371 0.0
H4762 H 0.1942 0.5882 0.29079 0.0
H4763 H 0.20123 0.57475 0.27867 0.0
C4764 C 0.18714 0.60447 0.31771 0.0
C4765 C 0.19435 0.61122 0.32337 0.0
C4766 C 0.19094 0.59609 0.3114 0.0
C4767 C 0.20206 0.59427 0.31051 0.0
C4768 C 0.20926 0.60092 0.3163 0.0
C4769 C 0.20546 0.60925 0.32267 0.0
C4770 C 0.21942 0.57218 0.29903 0.0
C4771 C 0.21434 0.57013 0.28912 0.0
C4772 C 0.21531 0.57981 0.30608 0.0
C4773 C 0.20615 0.58572 0.3033 0.0
C4774 C 0.20111 0.58366 0.29335 0.0
C4775 C 0.20516 0.57598 0.28637 0.0
H4776 H 0.89476 0.69467 0.32469 0.0
H4777 H 0.90021 0.66982 0.30131 0.0
H4778 H 0.91156 0.70357 0.3194 0.0
H4779 H 0.91737 0.67832 0.29655 0.0
H4780 H 0.94388 0.70045 0.28386 0.0
H4781 H 0.92595 0.69311 0.28787 0.0
H4782 H 0.93029 0.70135 0.32136 0.0
H4783 H 0.94797 0.70914 0.3172 0.0
C4784 C 0.8995 0.69111 0.31838 0.0
C4785 C 0.8961 0.68148 0.31346 0.0
C4786 C 0.90925 0.69615 0.31546 0.0
C4787 C 0.91591 0.69164 0.3076 0.0
C4788 C 0.91243 0.68211 0.30255 0.0
C4789 C 0.90263 0.67713 0.30541 0.0
C4790 C 0.9409 0.70089 0.29203 0.0
C4791 C 0.94722 0.70564 0.30018 0.0
C4792 C 0.93066 0.69655 0.29437 0.0
C4793 C 0.9266 0.69666 0.30495 0.0
C4794 C 0.933 0.70134 0.31308 0.0
C4795 C 0.94316 0.70577 0.31072 0.0
H4796 H 0.82924 0.40297 0.32724 0.0
H4797 H 0.81788 0.38808 0.29795 0.0
H4798 H 0.81985 0.41936 0.32243 0.0
H4799 H 0.80836 0.40449 0.29319 0.0
H4800 H 0.80399 0.44081 0.28395 0.0
H4801 H 0.81296 0.42394 0.28814 0.0
H4802 H 0.80064 0.42496 0.32059 0.0
H4803 H 0.7916 0.44173 0.31638 0.0
C4804 C 0.82477 0.40321 0.31975 0.0
C4805 C 0.8243 0.39423 0.31297 0.0
C4806 C 0.81932 0.41257 0.31705 0.0
C4807 C 0.81334 0.41319 0.30745 0.0
C4808 C 0.81295 0.40426 0.30061 0.0
C4809 C 0.81832 0.39484 0.30337 0.0
C4810 C 0.80303 0.43732 0.29191 0.0
C4811 C 0.79687 0.44246 0.29978 0.0
C4812 C 0.80818 0.42768 0.29431 0.0
C4813 C 0.80749 0.42314 0.30469 0.0
C4814 C 0.80137 0.4283 0.31254 0.0
C4815 C 0.79613 0.43784 0.31011 0.0
H4816 H 0.17039 0.59655 0.69472 0.0
H4817 H 0.20001 0.61539 0.69446 0.0
H4818 H 0.17943 0.58225 0.70445 0.0
H4819 H 0.20904 0.60106 0.70419 0.0
H4820 H 0.22917 0.56948 0.72025 0.0
H4821 H 0.21923 0.58491 0.70598 0.0
H4822 H 0.18304 0.57776 0.72293 0.0
H4823 H 0.192 0.56207 0.7374 0.0
C4824 C 0.17884 0.59763 0.69671 0.0
C4825 C 0.18443 0.6072 0.69393 0.0
C4826 C 0.18402 0.58943 0.7023 0.0
C4827 C 0.19491 0.59057 0.70521 0.0
C4828 C 0.20067 0.59987 0.70197 0.0
C4829 C 0.19548 0.60811 0.69639 0.0
C4830 C 0.22073 0.57132 0.72098 0.0
C4831 C 0.21118 0.56271 0.72902 0.0
C4832 C 0.21434 0.58054 0.71181 0.0
C4833 C 0.19992 0.5825 0.71233 0.0
C4834 C 0.19151 0.57596 0.72242 0.0
C4835 C 0.19711 0.56662 0.73191 0.0
H4836 H 0.19914 0.39209 0.32275 0.0
H4837 H 0.17121 0.40682 0.30861 0.0
H4838 H 0.21037 0.40718 0.31662 0.0
H4839 H 0.1825 0.4219 0.30238 0.0
H4840 H 0.2092 0.43984 0.28253 0.0
H4841 H 0.19708 0.42558 0.28923 0.0
H4842 H 0.2134 0.42637 0.31995 0.0
H4843 H 0.22555 0.44053 0.3132 0.0
C4844 C 0.19537 0.3986 0.31844 0.0
C4845 C 0.18426 0.39823 0.31619 0.0
C4846 C 0.20181 0.40726 0.31491 0.0
C4847 C 0.19733 0.41575 0.30903 0.0
C4848 C 0.18622 0.41541 0.30678 0.0
C4849 C 0.17976 0.40676 0.31034 0.0
C4850 C 0.21005 0.43708 0.29077 0.0
C4851 C 0.21819 0.44144 0.29742 0.0
C4852 C 0.20312 0.42892 0.29461 0.0
C4853 C 0.20428 0.42484 0.30513 0.0
C4854 C 0.21236 0.42926 0.31178 0.0
C4855 C 0.21925 0.43744 0.30796 0.0
H4856 H 0.11823 0.69181 0.30761 0.0
H4857 H 0.10023 0.67328 0.33127 0.0
H4858 H 0.10155 0.70001 0.30144 0.0
H4859 H 0.0836 0.68157 0.3252 0.0
H4860 H 0.05524 0.68867 0.30274 0.0
H4861 H 0.07222 0.68093 0.30859 0.0
H4862 H 0.08726 0.71251 0.30825 0.0
H4863 H 0.07022 0.72027 0.30246 0.0
C4864 C 0.11071 0.6895 0.3115 0.0
C4865 C 0.11054 0.68188 0.31991 0.0
C4866 C 0.10118 0.69425 0.30802 0.0
C4867 C 0.09127 0.69139 0.3128 0.0
C4868 C 0.09111 0.68385 0.32128 0.0
C4869 C 0.10064 0.67918 0.32483 0.0
C4870 C 0.06222 0.69393 0.30378 0.0
C4871 C 0.06146 0.70503 0.30189 0.0
C4872 C 0.0719 0.68952 0.30722 0.0
C4873 C 0.08107 0.69611 0.30887 0.0
C4874 C 0.08036 0.70721 0.30692 0.0
C4875 C 0.07062 0.71165 0.30357 0.0
H4876 H 0.82663 0.5983 0.33222 0.0
H4877 H 0.80017 0.61408 0.3165 0.0
H4878 H 0.82116 0.58133 0.32391 0.0
H4879 H 0.79475 0.59708 0.30808 0.0
H4880 H 0.78219 0.56132 0.30656 0.0
H4881 H 0.78734 0.57879 0.31411 0.0
H4882 H 0.82047 0.57361 0.30531 0.0
H4883 H 0.81531 0.55621 0.29769 0.0
C4884 C 0.81963 0.59813 0.32701 0.0
C4885 C 0.81382 0.60751 0.32502 0.0
C4886 C 0.81655 0.58844 0.32218 0.0
C4887 C 0.80755 0.5879 0.31533 0.0
C4888 C 0.80169 0.59726 0.31337 0.0
C4889 C 0.80484 0.60699 0.31812 0.0
C4890 C 0.79053 0.56401 0.30606 0.0
C4891 C 0.79833 0.55751 0.3013 0.0
C4892 C 0.79348 0.57399 0.31039 0.0
C4893 C 0.8043 0.57756 0.31027 0.0
C4894 C 0.81208 0.57104 0.30556 0.0
C4895 C 0.80912 0.56114 0.30113 0.0
H4896 H 0.88878 0.29484 0.31258 0.0
H4897 H 0.90302 0.32679 0.31273 0.0
H4898 H 0.90295 0.28892 0.30061 0.0
H4899 H 0.91729 0.32083 0.30085 0.0
H4900 H 0.93867 0.31298 0.26747 0.0
H4901 H 0.9222 0.31894 0.28256 0.0
H4902 H 0.91964 0.28119 0.2971 0.0
H4903 H 0.93587 0.27425 0.28214 0.0
C4904 C 0.89503 0.30057 0.31018 0.0
C4905 C 0.89473 0.31131 0.31359 0.0
C4906 C 0.90321 0.29716 0.30333 0.0
C4907 C 0.91127 0.3044 0.29974 0.0
C4908 C 0.91108 0.31509 0.30328 0.0
C4909 C 0.9029 0.31851 0.31011 0.0
C4910 C 0.93479 0.30701 0.27262 0.0
C4911 C 0.94037 0.29339 0.27456 0.0
C4912 C 0.92497 0.31076 0.28248 0.0
C4913 C 0.91958 0.30096 0.29201 0.0
C4914 C 0.92324 0.28694 0.29155 0.0
C4915 C 0.93302 0.28241 0.28196 0.0
H4916 H 0.80946 0.39672 0.68082 0.0
H4917 H 0.83451 0.40193 0.70449 0.0
H4918 H 0.80127 0.41356 0.68598 0.0
H4919 H 0.82602 0.41841 0.71003 0.0
H4920 H 0.81576 0.45339 0.70806 0.0
H4921 H 0.82352 0.43621 0.70343 0.0
H4922 H 0.79152 0.42229 0.70006 0.0
H4923 H 0.78378 0.43965 0.70437 0.0
C4924 C 0.81321 0.40143 0.68714 0.0
C4925 C 0.82268 0.39795 0.69221 0.0
C4926 C 0.80842 0.41103 0.69021 0.0
C4927 C 0.81298 0.41738 0.69843 0.0
C4928 C 0.82236 0.41382 0.70358 0.0
C4929 C 0.82716 0.40426 0.70049 0.0
C4930 C 0.81039 0.44661 0.70647 0.0
C4931 C 0.79917 0.4478 0.70683 0.0
C4932 C 0.81483 0.43675 0.70384 0.0
C4933 C 0.80816 0.42781 0.70145 0.0
C4934 C 0.7969 0.42901 0.70178 0.0
C4935 C 0.79246 0.43891 0.70438 0.0
H4936 H 0.11865 0.31727 0.70191 0.0
H4937 H 0.10149 0.30647 0.67357 0.0
H4938 H 0.10355 0.31135 0.71311 0.0
H4939 H 0.08639 0.30044 0.68485 0.0
H4940 H 0.06733 0.28062 0.71082 0.0
H4941 H 0.08188 0.2867 0.69882 0.0
H4942 H 0.08486 0.31629 0.71661 0.0
H4943 H 0.07042 0.31017 0.72863 0.0
C4944 C 0.11162 0.31372 0.69805 0.0
C4945 C 0.11127 0.3124 0.68682 0.0
C4946 C 0.10296 0.31032 0.70448 0.0
C4947 C 0.09374 0.30548 0.69986 0.0
C4948 C 0.09342 0.30405 0.68866 0.0
C4949 C 0.10209 0.30748 0.6822 0.0
C4950 C 0.07099 0.28849 0.71203 0.0
C4951 C 0.0676 0.29502 0.72053 0.0
C4952 C 0.07931 0.29197 0.70517 0.0
C4953 C 0.08453 0.30197 0.70677 0.0
C4954 C 0.08108 0.3085 0.71523 0.0
C4955 C 0.07275 0.30505 0.72205 0.0
H4956 H 0.90684 0.7019 0.66705 0.0
H4957 H 0.89349 0.68928 0.69677 0.0
H4958 H 0.92178 0.71007 0.677 0.0
H4959 H 0.9085 0.69739 0.70671 0.0
H4960 H 0.94183 0.70656 0.72015 0.0
H4961 H 0.92822 0.69677 0.70956 0.0
H4962 H 0.92381 0.72499 0.68972 0.0
H4963 H 0.93742 0.73467 0.70022 0.0
C4964 C 0.90708 0.70088 0.67571 0.0
C4965 C 0.89891 0.69501 0.68112 0.0
C4966 C 0.91566 0.70554 0.68141 0.0
C4967 C 0.91629 0.70443 0.69265 0.0
C4968 C 0.90831 0.6983 0.69804 0.0
C4969 C 0.8997 0.69365 0.69234 0.0
C4970 C 0.93802 0.71059 0.71344 0.0
C4971 C 0.94076 0.72134 0.71093 0.0
C4972 C 0.93019 0.70503 0.70743 0.0
C4973 C 0.92496 0.71009 0.69878 0.0
C4974 C 0.92781 0.7208 0.69622 0.0
C4975 C 0.93558 0.72636 0.70225 0.0
H4976 H 0.68365 0.19801 0.61754 0.0
H4977 H 0.69777 0.17007 0.60321 0.0
H4978 H 0.69007 0.20901 0.60248 0.0
H4979 H 0.7043 0.18114 0.5882 0.0
H4980 H 0.72468 0.2077 0.57052 0.0
H4981 H 0.71767 0.19581 0.58475 0.0
H4982 H 0.68705 0.21163 0.58313 0.0
H4983 H 0.69409 0.22353 0.56898 0.0
C4984 C 0.68801 0.19418 0.61112 0.0
C4985 C 0.69018 0.18314 0.61161 0.0
C4986 C 0.69171 0.2005 0.60249 0.0
C4987 C 0.69769 0.19595 0.59413 0.0
C4988 C 0.69983 0.18491 0.59458 0.0
C4989 C 0.6961 0.17858 0.6032 0.0
C4990 C 0.71639 0.20849 0.57308 0.0
C4991 C 0.70986 0.2164 0.56848 0.0
C4992 C 0.71238 0.20169 0.58123 0.0
C4993 C 0.7018 0.20277 0.58507 0.0
C4994 C 0.69526 0.21064 0.58042 0.0
C4995 C 0.69925 0.21739 0.57225 0.0
H4996 H 0.31952 0.2011 0.61437 0.0
H4997 H 0.31184 0.17114 0.59851 0.0
H4998 H 0.31077 0.21092 0.59981 0.0
H4999 H 0.30308 0.18094 0.58401 0.0
H5000 H 0.27564 0.20077 0.56965 0.0
H5001 H 0.28645 0.19104 0.58269 0.0
H5002 H 0.31139 0.21568 0.58045 0.0
H5003 H 0.30042 0.22552 0.56741 0.0
C5004 C 0.31613 0.19662 0.60769 0.0
C5005 C 0.31627 0.18532 0.60767 0.0
C5006 C 0.31112 0.20225 0.59935 0.0
C5007 C 0.30613 0.1967 0.59082 0.0
C5008 C 0.30666 0.18544 0.59058 0.0
C5009 C 0.31167 0.17982 0.5989 0.0
C5010 C 0.28349 0.20404 0.57183 0.0
C5011 C 0.28726 0.21381 0.56737 0.0
C5012 C 0.28971 0.19845 0.57927 0.0
C5013 C 0.29982 0.20254 0.58254 0.0
C5014 C 0.30361 0.21234 0.57811 0.0
C5015 C 0.29738 0.21793 0.57061 0.0
H5016 H 0.33651 0.81587 0.61101 0.0
H5017 H 0.30704 0.83368 0.60907 0.0
H5018 H 0.33055 0.80482 0.59601 0.0
H5019 H 0.30136 0.82303 0.59364 0.0
H5020 H 0.28919 0.79348 0.57474 0.0
H5021 H 0.29498 0.80545 0.5892 0.0
H5022 H 0.32763 0.80495 0.57714 0.0
H5023 H 0.32186 0.79266 0.56297 0.0
C5024 C 0.32877 0.81746 0.60738 0.0
C5025 C 0.32225 0.82567 0.61132 0.0
C5026 C 0.32541 0.81121 0.59864 0.0
C5027 C 0.31547 0.81303 0.59355 0.0
C5028 C 0.309 0.82131 0.59742 0.0
C5029 C 0.31234 0.82752 0.60619 0.0
C5030 C 0.29758 0.79604 0.57514 0.0
C5031 C 0.30506 0.79218 0.56768 0.0
C5032 C 0.30091 0.80293 0.5834 0.0
C5033 C 0.3118 0.80616 0.5844 0.0
C5034 C 0.31922 0.8025 0.57676 0.0
C5035 C 0.3159 0.79554 0.56855 0.0
H5036 H 0.69466 0.81301 0.61332 0.0
H5037 H 0.69115 0.84132 0.59343 0.0
H5038 H 0.70407 0.80421 0.59871 0.0
H5039 H 0.7005 0.8325 0.57878 0.0
H5040 H 0.73058 0.8191 0.56219 0.0
H5041 H 0.71884 0.82734 0.57533 0.0
H5042 H 0.70269 0.7967 0.58077 0.0
H5043 H 0.71466 0.78841 0.56773 0.0
C5044 C 0.69571 0.81728 0.60575 0.0
C5045 C 0.69223 0.8279 0.60457 0.0
C5046 C 0.7011 0.81223 0.59737 0.0
C5047 C 0.70312 0.81767 0.58759 0.0
C5048 C 0.69927 0.82815 0.58627 0.0
C5049 C 0.6939 0.83321 0.59466 0.0
C5050 C 0.7244 0.81417 0.56607 0.0
C5051 C 0.72342 0.80315 0.56379 0.0
C5052 C 0.71764 0.81889 0.57357 0.0
C5053 C 0.70977 0.8127 0.57907 0.0
C5054 C 0.70871 0.80169 0.57673 0.0
C5055 C 0.71549 0.79696 0.5692 0.0
H5056 H 0.71048 0.82728 0.39229 0.0
H5057 H 0.67805 0.81568 0.39879 0.0
H5058 H 0.71724 0.81593 0.40666 0.0
H5059 H 0.68472 0.80491 0.41367 0.0
H5060 H 0.70142 0.77753 0.43113 0.0
H5061 H 0.69446 0.78919 0.41703 0.0
H5062 H 0.71821 0.81362 0.42545 0.0
H5063 H 0.7255 0.80169 0.43913 0.0
C5064 C 0.70477 0.82233 0.39679 0.0
C5065 C 0.69372 0.82236 0.39429 0.0
C5066 C 0.70864 0.81593 0.40518 0.0
C5067 C 0.70154 0.80947 0.41137 0.0
C5068 C 0.69046 0.80964 0.40899 0.0
C5069 C 0.68661 0.81596 0.40053 0.0
C5070 C 0.70507 0.78544 0.43001 0.0
C5071 C 0.71384 0.78876 0.4364 0.0
C5072 C 0.70106 0.79216 0.42196 0.0
C5073 C 0.7057 0.80241 0.42012 0.0
C5074 C 0.71449 0.80574 0.42654 0.0
C5075 C 0.71859 0.79896 0.4345 0.0
H5076 H 0.67317 0.19405 0.40675 0.0
H5077 H 0.70087 0.17984 0.39187 0.0
H5078 H 0.68447 0.20019 0.42165 0.0
H5079 H 0.71211 0.18587 0.40683 0.0
H5080 H 0.72699 0.18932 0.44019 0.0
H5081 H 0.71489 0.1826 0.42614 0.0
H5082 H 0.69935 0.21331 0.42493 0.0
H5083 H 0.71142 0.21999 0.43905 0.0
C5084 C 0.68167 0.19228 0.40662 0.0
C5085 C 0.6861 0.18645 0.39807 0.0
C5086 C 0.68815 0.19579 0.41517 0.0
C5087 C 0.69919 0.19352 0.41544 0.0
C5088 C 0.7036 0.18761 0.40696 0.0
C5089 C 0.69714 0.18414 0.39838 0.0
C5090 C 0.72087 0.19456 0.43703 0.0
C5091 C 0.72 0.2051 0.4409 0.0
C5092 C 0.71401 0.19076 0.42892 0.0
C5093 C 0.70615 0.19742 0.42442 0.0
C5094 C 0.70521 0.20793 0.42834 0.0
C5095 C 0.71211 0.21176 0.43643 0.0
H5096 H 0.33762 0.19435 0.40807 0.0
H5097 H 0.30853 0.19652 0.38914 0.0
H5098 H 0.32893 0.2037 0.42277 0.0
H5099 H 0.29983 0.20592 0.40384 0.0
H5100 H 0.2848 0.2162 0.43559 0.0
H5101 H 0.29301 0.2045 0.42226 0.0
H5102 H 0.32324 0.22196 0.42579 0.0
H5103 H 0.3151 0.23344 0.43918 0.0
C5104 C 0.32937 0.19683 0.40705 0.0
C5105 C 0.3238 0.19478 0.3974 0.0
C5106 C 0.32439 0.20219 0.41547 0.0
C5107 C 0.31372 0.20565 0.41445 0.0
C5108 C 0.30802 0.20327 0.40494 0.0
C5109 C 0.31301 0.19788 0.39651 0.0
C5110 C 0.29324 0.21739 0.43362 0.0
C5111 C 0.29937 0.2256 0.43857 0.0
C5112 C 0.29792 0.21076 0.42593 0.0
C5113 C 0.3088 0.21225 0.423 0.0
C5114 C 0.31491 0.22044 0.42801 0.0
C5115 C 0.31024 0.22705 0.43566 0.0
H5116 H 0.32763 0.80379 0.39313 0.0
H5117 H 0.30491 0.8274 0.40361 0.0
H5118 H 0.322 0.79196 0.40781 0.0
H5119 H 0.2992 0.81544 0.41826 0.0
H5120 H 0.27929 0.78626 0.43991 0.0
H5121 H 0.28687 0.80052 0.42288 0.0
H5122 H 0.32424 0.78603 0.42581 0.0
H5123 H 0.31762 0.77147 0.44282 0.0
C5124 C 0.32154 0.80654 0.39864 0.0
C5125 C 0.31675 0.81658 0.39714 0.0
C5126 C 0.31831 0.79974 0.4071 0.0
C5127 C 0.31017 0.80277 0.41423 0.0
C5128 C 0.30539 0.8128 0.4128 0.0
C5129 C 0.30866 0.81965 0.40438 0.0
C5130 C 0.28749 0.78597 0.437 0.0
C5131 C 0.29821 0.77872 0.44448 0.0
C5132 C 0.29244 0.79518 0.42679 0.0
C5133 C 0.30651 0.79538 0.42292 0.0
C5134 C 0.31596 0.78596 0.42853 0.0
C5135 C 0.31182 0.77646 0.43878 0.0
H5136 H 0.61609 0.20058 0.69275 0.0
H5137 H 0.59784 0.17669 0.67502 0.0
H5138 H 0.59937 0.20728 0.7004 0.0
H5139 H 0.58118 0.18327 0.68277 0.0
H5140 H 0.55341 0.20623 0.68825 0.0
H5141 H 0.57047 0.19994 0.68111 0.0
H5142 H 0.58436 0.20123 0.71296 0.0
H5143 H 0.56723 0.20748 0.72012 0.0
C5144 C 0.60851 0.19675 0.69051 0.0
C5145 C 0.60828 0.18812 0.68326 0.0
C5146 C 0.59896 0.20053 0.69495 0.0
C5147 C 0.58896 0.19584 0.69214 0.0
C5148 C 0.58875 0.18713 0.68499 0.0
C5149 C 0.5983 0.18329 0.68064 0.0
C5150 C 0.56016 0.20531 0.69369 0.0
C5151 C 0.55905 0.20759 0.70469 0.0
C5152 C 0.56988 0.20161 0.68963 0.0
C5153 C 0.57875 0.20008 0.69648 0.0
C5154 C 0.5777 0.20245 0.70747 0.0
C5155 C 0.56791 0.20605 0.71156 0.0
H5156 H 0.33343 0.10155 0.684 0.0
H5157 H 0.3143 0.12493 0.70042 0.0
H5158 H 0.32312 0.08702 0.69289 0.0
H5159 H 0.30399 0.11045 0.70922 0.0
H5160 H 0.29721 0.08214 0.73228 0.0
H5161 H 0.30792 0.09613 0.72312 0.0
H5162 H 0.30371 0.07949 0.693 0.0
H5163 H 0.29287 0.06555 0.70214 0.0
C5164 C 0.32703 0.10357 0.6895 0.0
C5165 C 0.32466 0.11437 0.69152 0.0
C5166 C 0.3211 0.09527 0.69452 0.0
C5167 C 0.31279 0.09761 0.70177 0.0
C5168 C 0.31042 0.10841 0.70375 0.0
C5169 C 0.31625 0.11669 0.69864 0.0
C5170 C 0.29869 0.08142 0.72373 0.0
C5171 C 0.2944 0.07263 0.71799 0.0
C5172 C 0.30474 0.08945 0.71847 0.0
C5173 C 0.30666 0.08887 0.70736 0.0
C5174 C 0.30246 0.08005 0.7016 0.0
C5175 C 0.29628 0.07207 0.70684 0.0
H5176 H 0.40634 0.83403 0.69269 0.0
H5177 H 0.39549 0.80165 0.6856 0.0
H5178 H 0.4214 0.82697 0.70291 0.0
H5179 H 0.41016 0.7946 0.69633 0.0
H5180 H 0.44274 0.78462 0.70887 0.0
H5181 H 0.42911 0.79226 0.69707 0.0
H5182 H 0.42481 0.81815 0.71956 0.0
H5183 H 0.43873 0.81071 0.73109 0.0
C5184 C 0.40717 0.82541 0.69328 0.0
C5185 C 0.39964 0.81843 0.68833 0.0
C5186 C 0.41575 0.82135 0.69927 0.0
C5187 C 0.41701 0.8102 0.70052 0.0
C5188 C 0.40955 0.80322 0.69546 0.0
C5189 C 0.40101 0.80728 0.68943 0.0
C5190 C 0.43903 0.79206 0.71116 0.0
C5191 C 0.442 0.79722 0.72079 0.0
C5192 C 0.43112 0.79638 0.70447 0.0
C5193 C 0.42584 0.80586 0.70733 0.0
C5194 C 0.42883 0.81098 0.71696 0.0
C5195 C 0.43679 0.80671 0.7236 0.0
H5196 H 0.68604 0.88497 0.70744 0.0
H5197 H 0.68512 0.90428 0.67844 0.0
H5198 H 0.69638 0.89909 0.71641 0.0
H5199 H 0.69545 0.91853 0.68749 0.0
H5200 H 0.72363 0.93655 0.70494 0.0
H5201 H 0.71321 0.92291 0.69506 0.0
H5202 H 0.6937 0.91682 0.72334 0.0
H5203 H 0.70427 0.9302 0.7332 0.0
C5204 C 0.68797 0.89228 0.703 0.0
C5205 C 0.68467 0.89354 0.69226 0.0
C5206 C 0.69389 0.90039 0.70816 0.0
C5207 C 0.69664 0.91001 0.70272 0.0
C5208 C 0.69353 0.9112 0.69189 0.0
C5209 C 0.68761 0.90304 0.68671 0.0
C5210 C 0.71703 0.93234 0.70897 0.0
C5211 C 0.71471 0.93448 0.71981 0.0
C5212 C 0.71105 0.92456 0.70332 0.0
C5213 C 0.70266 0.91872 0.70843 0.0
C5214 C 0.70023 0.92104 0.71921 0.0
C5215 C 0.70621 0.92877 0.72484 0.0
H5216 H 0.60846 0.83661 0.31282 0.0
H5217 H 0.60829 0.80473 0.32684 0.0
H5218 H 0.59329 0.83148 0.30145 0.0
H5219 H 0.59268 0.7998 0.31593 0.0
H5220 H 0.57364 0.7909 0.28548 0.0
H5221 H 0.58823 0.7959 0.29774 0.0
H5222 H 0.57453 0.82731 0.30146 0.0
H5223 H 0.56021 0.8224 0.28886 0.0
C5224 C 0.60517 0.82852 0.31351 0.0
C5225 C 0.60968 0.82108 0.32072 0.0
C5226 C 0.59635 0.82561 0.30709 0.0
C5227 C 0.59173 0.81522 0.30775 0.0
C5228 C 0.59611 0.80784 0.3151 0.0
C5229 C 0.60498 0.81072 0.32147 0.0
C5230 C 0.57373 0.79884 0.28899 0.0
C5231 C 0.56577 0.80625 0.28625 0.0
C5232 C 0.58205 0.8017 0.29607 0.0
C5233 C 0.58259 0.81202 0.30061 0.0
C5234 C 0.57449 0.81935 0.298 0.0
C5235 C 0.56621 0.81652 0.29085 0.0
H5236 H 0.70027 0.11498 0.31354 0.0
H5237 H 0.67948 0.0956 0.33406 0.0
H5238 H 0.70713 0.09868 0.30531 0.0
H5239 H 0.68619 0.07935 0.32573 0.0
H5240 H 0.71013 0.05305 0.31795 0.0
H5241 H 0.70353 0.06968 0.32559 0.0
H5242 H 0.70084 0.08329 0.29365 0.0
H5243 H 0.70744 0.06658 0.286 0.0
C5244 C 0.69715 0.10724 0.31627 0.0
C5245 C 0.68935 0.10657 0.32447 0.0
C5246 C 0.70101 0.09792 0.3115 0.0
C5247 C 0.69725 0.08773 0.31492 0.0
C5248 C 0.68935 0.08708 0.32302 0.0
C5249 C 0.68542 0.09639 0.32771 0.0
C5250 C 0.70827 0.05965 0.31258 0.0
C5251 C 0.70955 0.0586 0.3014 0.0
C5252 C 0.70439 0.06913 0.31694 0.0
C5253 C 0.70165 0.07779 0.31022 0.0
C5254 C 0.703 0.0768 0.29904 0.0
C5255 C 0.7068 0.06725 0.29466 0.0
H5256 H 0.38962 0.18807 0.30612 0.0
H5257 H 0.40687 0.16906 0.3294 0.0
H5258 H 0.40664 0.19646 0.30019 0.0
H5259 H 0.42385 0.17736 0.32342 0.0
H5260 H 0.45024 0.20309 0.3181 0.0
H5261 H 0.43283 0.19559 0.32391 0.0
H5262 H 0.42372 0.19072 0.29073 0.0
H5263 H 0.44119 0.19816 0.28492 0.0
C5264 C 0.39704 0.18573 0.30999 0.0
C5265 C 0.39692 0.17791 0.31822 0.0
C5266 C 0.40678 0.19046 0.30654 0.0
C5267 C 0.41656 0.18757 0.31135 0.0
C5268 C 0.41642 0.17981 0.31963 0.0
C5269 C 0.40672 0.175 0.32299 0.0
C5270 C 0.44445 0.20055 0.31206 0.0
C5271 C 0.44699 0.20144 0.30106 0.0
C5272 C 0.43453 0.19618 0.31538 0.0
C5273 C 0.42691 0.1926 0.30777 0.0
C5274 C 0.42939 0.19356 0.29676 0.0
C5275 C 0.43937 0.19783 0.29344 0.0
H5276 H 0.31605 0.89046 0.3037 0.0
H5277 H 0.32662 0.90649 0.33267 0.0
H5278 H 0.30674 0.90669 0.298 0.0
H5279 H 0.31747 0.92271 0.32691 0.0
H5280 H 0.29037 0.94562 0.31899 0.0
H5281 H 0.29869 0.92876 0.32422 0.0
H5282 H 0.31156 0.92568 0.29214 0.0
H5283 H 0.30324 0.94262 0.28691 0.0
C5284 C 0.31634 0.89743 0.30887 0.0
C5285 C 0.32207 0.89719 0.31864 0.0
C5286 C 0.31109 0.90674 0.30556 0.0
C5287 C 0.31135 0.91597 0.31202 0.0
C5288 C 0.31703 0.9157 0.32181 0.0
C5289 C 0.32235 0.90644 0.32507 0.0
C5290 C 0.29484 0.94125 0.31301 0.0
C5291 C 0.29595 0.94533 0.30248 0.0
C5292 C 0.29968 0.93165 0.31603 0.0
C5293 C 0.30578 0.92589 0.30859 0.0
C5294 C 0.30679 0.92987 0.29801 0.0
C5295 C 0.30202 0.93955 0.29501 0.0
H5296 H 0.67905 0.10945 0.71005 0.0
H5297 H 0.68942 0.10297 0.67759 0.0
H5298 H 0.69001 0.09488 0.71672 0.0
H5299 H 0.69982 0.08793 0.68417 0.0
H5300 H 0.72768 0.07101 0.70098 0.0
H5301 H 0.71587 0.08471 0.69381 0.0
H5302 H 0.69192 0.07606 0.71777 0.0
H5303 H 0.70401 0.06269 0.72522 0.0
C5304 C 0.68363 0.1049 0.70431 0.0
C5305 C 0.6834 0.10749 0.69327 0.0
C5306 C 0.68981 0.0964 0.70813 0.0
C5307 C 0.69585 0.09019 0.701 0.0
C5308 C 0.69541 0.09262 0.68993 0.0
C5309 C 0.68931 0.10118 0.68613 0.0
C5310 C 0.71983 0.07196 0.70461 0.0
C5311 C 0.7167 0.06561 0.71351 0.0
C5312 C 0.71302 0.07978 0.70048 0.0
C5313 C 0.70288 0.08148 0.70514 0.0
C5314 C 0.69971 0.07507 0.71402 0.0
C5315 C 0.70658 0.0673 0.71822 0.0
H5316 H 0.67106 0.91144 0.32223 0.0
H5317 H 0.69944 0.89356 0.31448 0.0
H5318 H 0.68059 0.92814 0.31771 0.0
H5319 H 0.70899 0.9103 0.30979 0.0
H5320 H 0.72548 0.9438 0.31378 0.0
H5321 H 0.7165 0.92654 0.31769 0.0
H5322 H 0.68751 0.93784 0.30242 0.0
H5323 H 0.69639 0.95513 0.29884 0.0
C5324 C 0.67931 0.91108 0.31945 0.0
C5325 C 0.68447 0.90118 0.31866 0.0
C5326 C 0.68477 0.92065 0.31682 0.0
C5327 C 0.69554 0.92057 0.31329 0.0
C5328 C 0.70074 0.91067 0.31259 0.0
C5329 C 0.69528 0.90107 0.31526 0.0
C5330 C 0.71722 0.94252 0.31119 0.0
C5331 C 0.71164 0.95079 0.30598 0.0
C5332 C 0.71208 0.93263 0.31339 0.0
C5333 C 0.70125 0.93082 0.31043 0.0
C5334 C 0.69579 0.93902 0.30498 0.0
C5335 C 0.7009 0.9489 0.30284 0.0
H5336 H 0.60595 0.17401 0.30485 0.0
H5337 H 0.60681 0.19092 0.3351 0.0
H5338 H 0.59073 0.18465 0.29908 0.0
H5339 H 0.59201 0.20198 0.32908 0.0
H5340 H 0.55942 0.21423 0.31962 0.0
H5341 H 0.57324 0.2018 0.32539 0.0
H5342 H 0.58668 0.20242 0.2933 0.0
H5343 H 0.57256 0.21454 0.28748 0.0
C5344 C 0.60288 0.17996 0.3103 0.0
C5345 C 0.60765 0.18159 0.32046 0.0
C5346 C 0.59422 0.18618 0.30692 0.0
C5347 C 0.59012 0.19422 0.31358 0.0
C5348 C 0.59484 0.19578 0.32377 0.0
C5349 C 0.60345 0.18953 0.32717 0.0
C5350 C 0.56523 0.21157 0.31377 0.0
C5351 C 0.56485 0.21529 0.30307 0.0
C5352 C 0.57323 0.20453 0.3171 0.0
C5353 C 0.58116 0.20114 0.30985 0.0
C5354 C 0.58065 0.20472 0.29909 0.0
C5355 C 0.57259 0.2117 0.29574 0.0
H5356 H 0.3225 0.11099 0.31454 0.0
H5357 H 0.29469 0.10906 0.33544 0.0
H5358 H 0.31528 0.09607 0.3041 0.0
H5359 H 0.28711 0.09463 0.32454 0.0
H5360 H 0.28019 0.06269 0.30835 0.0
H5361 H 0.28854 0.07639 0.31974 0.0
H5362 H 0.30158 0.09236 0.29145 0.0
H5363 H 0.29366 0.07836 0.28019 0.0
C5364 C 0.31486 0.10737 0.31695 0.0
C5365 C 0.30919 0.11128 0.32585 0.0
C5366 C 0.31063 0.0989 0.31085 0.0
C5367 C 0.30055 0.09416 0.3134 0.0
C5368 C 0.29494 0.09798 0.32238 0.0
C5369 C 0.29922 0.10639 0.32855 0.0
C5370 C 0.28501 0.06902 0.3046 0.0
C5371 C 0.28652 0.06929 0.29339 0.0
C5372 C 0.2897 0.07696 0.31112 0.0
C5373 C 0.29581 0.08549 0.30655 0.0
C5374 C 0.29717 0.0858 0.29531 0.0
C5375 C 0.29259 0.07781 0.28883 0.0
H5376 H 0.39403 0.82643 0.30888 0.0
H5377 H 0.40291 0.80615 0.33571 0.0
H5378 H 0.40998 0.82094 0.29918 0.0
H5379 H 0.41923 0.80123 0.32631 0.0
H5380 H 0.44351 0.78717 0.30344 0.0
H5381 H 0.42637 0.79131 0.31193 0.0
H5382 H 0.42881 0.82373 0.2993 0.0
H5383 H 0.44564 0.81938 0.29045 0.0
C5384 C 0.39936 0.82078 0.31272 0.0
C5385 C 0.39715 0.81677 0.32312 0.0
C5386 C 0.40861 0.81773 0.3072 0.0
C5387 C 0.41598 0.81068 0.31196 0.0
C5388 C 0.41371 0.80658 0.32232 0.0
C5389 C 0.40441 0.80955 0.3278 0.0
C5390 C 0.44025 0.7951 0.30231 0.0
C5391 C 0.44578 0.80288 0.29603 0.0
C5392 C 0.43049 0.79754 0.30729 0.0
C5393 C 0.42613 0.80786 0.30629 0.0
C5394 C 0.43174 0.81563 0.30006 0.0
C5395 C 0.44142 0.81316 0.29501 0.0
H5396 H 0.33853 0.9094 0.69936 0.0
H5397 H 0.31006 0.89371 0.68635 0.0
H5398 H 0.32754 0.92403 0.70585 0.0
H5399 H 0.29911 0.90838 0.69275 0.0
H5400 H 0.28404 0.94103 0.69669 0.0
H5401 H 0.29591 0.92743 0.68952 0.0
H5402 H 0.31353 0.92713 0.71952 0.0
H5403 H 0.30168 0.94084 0.72664 0.0
C5404 C 0.32993 0.90904 0.69792 0.0
C5405 C 0.32519 0.90035 0.69233 0.0
C5406 C 0.32363 0.91744 0.70164 0.0
C5407 C 0.31245 0.91739 0.69981 0.0
C5408 C 0.30773 0.90876 0.69414 0.0
C5409 C 0.31401 0.90035 0.69046 0.0
C5410 C 0.29056 0.93818 0.70168 0.0
C5411 C 0.29206 0.94216 0.71214 0.0
C5412 C 0.2973 0.93032 0.69762 0.0
C5413 C 0.30567 0.92618 0.70395 0.0
C5414 C 0.30726 0.93025 0.71438 0.0
C5415 C 0.30048 0.9381 0.71846 0.0
H5416 H 0.60848 0.80038 0.6703 0.0
H5417 H 0.61043 0.82792 0.69125 0.0
H5418 H 0.59446 0.79243 0.68165 0.0
H5419 H 0.59692 0.81964 0.70298 0.0
H5420 H 0.5662 0.80607 0.71784 0.0
H5421 H 0.57846 0.81468 0.70493 0.0
H5422 H 0.59284 0.78399 0.69874 0.0
H5423 H 0.58026 0.77538 0.7113 0.0
C5424 C 0.60589 0.80479 0.67729 0.0
C5425 C 0.61065 0.8148 0.67985 0.0
C5426 C 0.59794 0.80014 0.6839 0.0
C5427 C 0.5946 0.80533 0.69331 0.0
C5428 C 0.5992 0.81544 0.69576 0.0
C5429 C 0.60709 0.82013 0.6891 0.0
C5430 C 0.57184 0.80115 0.71355 0.0
C5431 C 0.57209 0.78999 0.71538 0.0
C5432 C 0.57897 0.8061 0.70624 0.0
C5433 C 0.58664 0.80004 0.70073 0.0
C5434 C 0.5869 0.78889 0.70263 0.0
C5435 C 0.57972 0.78394 0.70986 0.0
H5436 H 0.39222 0.21048 0.68351 0.0
H5437 H 0.40647 0.17912 0.6836 0.0
H5438 H 0.40602 0.2169 0.69596 0.0
H5439 H 0.42039 0.18558 0.69596 0.0
H5440 H 0.44108 0.19404 0.72974 0.0
H5441 H 0.42478 0.18754 0.7144 0.0
H5442 H 0.42262 0.22525 0.69993 0.0
H5443 H 0.43867 0.2327 0.71514 0.0
C5444 C 0.39841 0.205 0.68606 0.0
C5445 C 0.39821 0.19428 0.68259 0.0
C5446 C 0.40636 0.20869 0.69319 0.0
C5447 C 0.4143 0.20174 0.697 0.0
C5448 C 0.41425 0.19108 0.69337 0.0
C5449 C 0.40629 0.18738 0.68626 0.0
C5450 C 0.43729 0.19988 0.72457 0.0
C5451 C 0.44297 0.21371 0.72272 0.0
C5452 C 0.42757 0.19582 0.71456 0.0
C5453 C 0.42237 0.20546 0.70497 0.0
C5454 C 0.42609 0.21961 0.70553 0.0
C5455 C 0.43577 0.22445 0.71527 0.0
H5456 H 0.6956 0.69828 0.12318 0.0
H5457 H 0.6907 0.67185 0.10128 0.0
H5458 H 0.7028 0.70935 0.10847 0.0
H5459 H 0.69787 0.683 0.08649 0.0
H5460 H 0.72395 0.70373 0.06743 0.0
H5461 H 0.71611 0.692 0.08138 0.0
H5462 H 0.69549 0.71759 0.09135 0.0
H5463 H 0.70319 0.72926 0.07733 0.0
C5464 C 0.69609 0.69483 0.11522 0.0
C5465 C 0.69259 0.68419 0.11338 0.0
C5466 C 0.70013 0.7012 0.10678 0.0
C5467 C 0.70087 0.69705 0.09633 0.0
C5468 C 0.69744 0.68639 0.09448 0.0
C5469 C 0.69327 0.68004 0.10291 0.0
C5470 C 0.7176 0.70678 0.07246 0.0
C5471 C 0.71401 0.71737 0.07113 0.0
C5472 C 0.71313 0.70007 0.08045 0.0
C5473 C 0.70519 0.70389 0.08744 0.0
C5474 C 0.70163 0.71445 0.08612 0.0
C5475 C 0.70598 0.7211 0.07806 0.0
H5476 H 0.32405 0.67754 0.09329 0.0
H5477 H 0.31139 0.69806 0.11791 0.0
H5478 H 0.31649 0.68927 0.07938 0.0
H5479 H 0.3039 0.70976 0.10407 0.0
H5480 H 0.28187 0.72088 0.07679 0.0
H5481 H 0.28928 0.70835 0.08996 0.0
H5482 H 0.31945 0.70869 0.07268 0.0
H5483 H 0.31208 0.72132 0.05956 0.0
C5484 C 0.31963 0.68454 0.09571 0.0
C5485 C 0.31832 0.68691 0.10667 0.0
C5486 C 0.31537 0.69127 0.08777 0.0
C5487 C 0.30958 0.7004 0.09066 0.0
C5488 C 0.30824 0.70273 0.10162 0.0
C5489 C 0.3126 0.69609 0.10953 0.0
C5490 C 0.29003 0.71816 0.07574 0.0
C5491 C 0.2963 0.7219 0.06702 0.0
C5492 C 0.2943 0.71106 0.0833 0.0
C5493 C 0.30493 0.70753 0.08232 0.0
C5494 C 0.31119 0.71117 0.07355 0.0
C5495 C 0.30696 0.71838 0.06604 0.0
H5496 H 0.29853 0.32591 0.11573 0.0
H5497 H 0.33121 0.32069 0.10536 0.0
H5498 H 0.29175 0.31766 0.09928 0.0
H5499 H 0.3244 0.31238 0.08887 0.0
H5500 H 0.30774 0.29113 0.06342 0.0
H5501 H 0.31416 0.29699 0.08116 0.0
H5502 H 0.29162 0.32298 0.08037 0.0
H5503 H 0.28521 0.31708 0.06284 0.0
C5504 C 0.30428 0.32301 0.10993 0.0
C5505 C 0.31542 0.3241 0.11181 0.0
C5506 C 0.30039 0.31826 0.10051 0.0
C5507 C 0.30753 0.31446 0.0927 0.0
C5508 C 0.31867 0.31514 0.09476 0.0
C5509 C 0.32258 0.31991 0.10421 0.0
C5510 C 0.30407 0.29799 0.06715 0.0
C5511 C 0.29585 0.30354 0.06182 0.0
C5512 C 0.3078 0.3014 0.07725 0.0
C5513 C 0.30336 0.31042 0.08221 0.0
C5514 C 0.29508 0.31588 0.07689 0.0
C5515 C 0.29141 0.31252 0.06682 0.0
H5516 H 0.70456 0.33514 0.10891 0.0
H5517 H 0.6746 0.31693 0.10699 0.0
H5518 H 0.71222 0.32395 0.09506 0.0
H5519 H 0.68199 0.30627 0.09258 0.0
H5520 H 0.70246 0.2807 0.07701 0.0
H5521 H 0.69433 0.29248 0.09013 0.0
H5522 H 0.71235 0.3195 0.07673 0.0
H5523 H 0.72091 0.30756 0.06403 0.0
C5524 C 0.69957 0.32879 0.1055 0.0
C5525 C 0.68898 0.3269 0.10919 0.0
C5526 C 0.70393 0.32246 0.09741 0.0
C5527 C 0.69776 0.31414 0.09268 0.0
C5528 C 0.68706 0.31247 0.09614 0.0
C5529 C 0.68275 0.31872 0.10432 0.0
C5530 C 0.7046 0.28918 0.07683 0.0
C5531 C 0.71216 0.29321 0.06935 0.0
C5532 C 0.69989 0.29597 0.08431 0.0
C5533 C 0.70258 0.307 0.08447 0.0
C5534 C 0.71014 0.31104 0.07694 0.0
C5535 C 0.71497 0.30421 0.06955 0.0
H5536 H 0.67324 0.32168 0.9037 0.0
H5537 H 0.7058 0.33118 0.89509 0.0
H5538 H 0.67992 0.3132 0.9201 0.0
H5539 H 0.71245 0.32276 0.9115 0.0
H5540 H 0.71731 0.3201 0.94826 0.0
H5541 H 0.71134 0.32666 0.93077 0.0
H5542 H 0.69095 0.29837 0.92716 0.0
H5543 H 0.6969 0.29185 0.9448 0.0
C5544 C 0.68183 0.32183 0.90522 0.0
C5545 C 0.68897 0.32721 0.89812 0.0
C5546 C 0.68566 0.31696 0.91462 0.0
C5547 C 0.69671 0.31737 0.91714 0.0
C5548 C 0.70388 0.32247 0.90989 0.0
C5549 C 0.70006 0.32731 0.90049 0.0
C5550 C 0.71167 0.31521 0.94366 0.0
C5551 C 0.70767 0.3054 0.94783 0.0
C5552 C 0.70827 0.31895 0.93362 0.0
C5553 C 0.7007 0.31302 0.92755 0.0
C5554 C 0.69674 0.30316 0.93168 0.0
C5555 C 0.70019 0.29938 0.94172 0.0
H5556 H 0.6743 0.69565 0.90839 0.0
H5557 H 0.70238 0.68253 0.89317 0.0
H5558 H 0.68553 0.70212 0.92322 0.0
H5559 H 0.71354 0.68888 0.90805 0.0
H5560 H 0.72867 0.69264 0.94118 0.0
H5561 H 0.71659 0.68557 0.92731 0.0
H5562 H 0.70003 0.71574 0.92641 0.0
H5563 H 0.7121 0.72278 0.94036 0.0
C5564 C 0.68287 0.69418 0.90817 0.0
C5565 C 0.68742 0.68857 0.89956 0.0
C5566 C 0.6893 0.69788 0.91669 0.0
C5567 C 0.70043 0.696 0.91683 0.0
C5568 C 0.70496 0.69031 0.90827 0.0
C5569 C 0.69855 0.68665 0.89974 0.0
C5570 C 0.72233 0.69769 0.93813 0.0
C5571 C 0.72119 0.70818 0.94203 0.0
C5572 C 0.71548 0.69368 0.93012 0.0
C5573 C 0.70734 0.70009 0.92575 0.0
C5574 C 0.70611 0.71055 0.92972 0.0
C5575 C 0.71302 0.71458 0.93771 0.0
H5576 H 0.33369 0.68512 0.90909 0.0
H5577 H 0.31451 0.70009 0.88439 0.0
H5578 H 0.32343 0.69441 0.92293 0.0
H5579 H 0.30426 0.70931 0.89818 0.0
H5580 H 0.29762 0.73339 0.92509 0.0
H5581 H 0.30832 0.72387 0.91183 0.0
H5582 H 0.30392 0.69442 0.93 0.0
H5583 H 0.29309 0.7039 0.9432 0.0
C5584 C 0.32729 0.69039 0.90664 0.0
C5585 C 0.32489 0.69188 0.89567 0.0
C5586 C 0.32138 0.69564 0.91454 0.0
C5587 C 0.31309 0.7026 0.91161 0.0
C5588 C 0.31068 0.70407 0.90066 0.0
C5589 C 0.31648 0.69872 0.89278 0.0
C5590 C 0.29905 0.72491 0.9263 0.0
C5591 C 0.29472 0.71946 0.9353 0.0
C5592 C 0.3051 0.71945 0.91869 0.0
C5593 C 0.30697 0.70842 0.91991 0.0
C5594 C 0.30272 0.70296 0.92894 0.0
C5595 C 0.29654 0.70839 0.9365 0.0
H5596 H 0.30055 0.32867 0.89479 0.0
H5597 H 0.33253 0.31626 0.89923 0.0
H5598 H 0.29399 0.31744 0.90954 0.0
H5599 H 0.32614 0.30561 0.91449 0.0
H5600 H 0.30865 0.27819 0.93236 0.0
H5601 H 0.31574 0.2901 0.91832 0.0
H5602 H 0.29376 0.31465 0.92823 0.0
H5603 H 0.28632 0.30248 0.94189 0.0
C5604 C 0.30621 0.32358 0.89893 0.0
C5605 C 0.31707 0.32333 0.8957 0.0
C5606 C 0.30247 0.31724 0.90754 0.0
C5607 C 0.3095 0.31055 0.91326 0.0
C5608 C 0.32042 0.31051 0.9102 0.0
C5609 C 0.32414 0.31676 0.90151 0.0
C5610 C 0.30544 0.28619 0.9316 0.0
C5611 C 0.29708 0.28944 0.93838 0.0
C5612 C 0.30953 0.29305 0.92357 0.0
C5613 C 0.3054 0.30341 0.92213 0.0
C5614 C 0.29708 0.30671 0.929 0.0
C5615 C 0.29289 0.29977 0.93694 0.0
H5616 H 0.62004 0.69409 0.20106 0.0
H5617 H 0.59949 0.69191 0.17306 0.0
H5618 H 0.60533 0.70175 0.21128 0.0
H5619 H 0.58467 0.69947 0.18338 0.0
H5620 H 0.5664 0.72562 0.20321 0.0
H5621 H 0.58027 0.71729 0.19222 0.0
H5622 H 0.58743 0.69561 0.21843 0.0
H5623 H 0.57357 0.70387 0.22936 0.0
C5624 C 0.61238 0.69526 0.19709 0.0
C5625 C 0.61093 0.69241 0.18626 0.0
C5626 C 0.60393 0.69956 0.20297 0.0
C5627 C 0.59384 0.70118 0.19814 0.0
C5628 C 0.59237 0.69837 0.18729 0.0
C5629 C 0.60082 0.69396 0.18143 0.0
C5630 C 0.57079 0.71894 0.20654 0.0
C5631 C 0.56874 0.71524 0.21708 0.0
C5632 C 0.57873 0.71418 0.20025 0.0
C5633 C 0.58493 0.7058 0.20447 0.0
C5634 C 0.58284 0.7021 0.21499 0.0
C5635 C 0.57485 0.70676 0.22121 0.0
H5636 H 0.31606 0.60973 0.17995 0.0
H5637 H 0.34556 0.60456 0.19755 0.0
H5638 H 0.30806 0.59362 0.18829 0.0
H5639 H 0.33744 0.58892 0.20629 0.0
H5640 H 0.3239 0.55702 0.21575 0.0
H5641 H 0.33137 0.57102 0.20399 0.0
H5642 H 0.30129 0.58786 0.20547 0.0
H5643 H 0.29369 0.57354 0.21684 0.0
C5644 C 0.32086 0.60512 0.18554 0.0
C5645 C 0.33142 0.6085 0.18815 0.0
C5646 C 0.31624 0.59595 0.19041 0.0
C5647 C 0.32207 0.58996 0.19801 0.0
C5648 C 0.33272 0.59322 0.20038 0.0
C5649 C 0.33734 0.60231 0.19549 0.0
C5650 C 0.31883 0.56362 0.2134 0.0
C5651 C 0.30823 0.56421 0.21726 0.0
C5652 C 0.32314 0.5717 0.20673 0.0
C5653 C 0.317 0.58068 0.20389 0.0
C5654 C 0.30624 0.58104 0.2074 0.0
C5655 C 0.30189 0.57288 0.21397 0.0
H5656 H 0.40486 0.33178 0.18849 0.0
H5657 H 0.38991 0.30016 0.18927 0.0
H5658 H 0.41961 0.32528 0.19962 0.0
H5659 H 0.40455 0.29368 0.20047 0.0
H5660 H 0.43685 0.28258 0.21268 0.0
H5661 H 0.42327 0.28944 0.20033 0.0
H5662 H 0.42322 0.31939 0.2177 0.0
H5663 H 0.43704 0.31262 0.2298 0.0
C5664 C 0.40469 0.32346 0.1911 0.0
C5665 C 0.39621 0.31649 0.18797 0.0
C5666 C 0.41315 0.31972 0.19748 0.0
C5667 C 0.41331 0.30893 0.20094 0.0
C5668 C 0.40482 0.30198 0.19779 0.0
C5669 C 0.3964 0.3057 0.19138 0.0
C5670 C 0.43408 0.2907 0.21371 0.0
C5671 C 0.4382 0.29715 0.22206 0.0
C5672 C 0.42621 0.2946 0.20672 0.0
C5673 C 0.42213 0.30498 0.208 0.0
C5674 C 0.4263 0.31144 0.21633 0.0
C5675 C 0.4342 0.30756 0.22329 0.0
H5676 H 0.67969 0.40533 0.17947 0.0
H5677 H 0.67922 0.38717 0.20922 0.0
H5678 H 0.69052 0.41946 0.18812 0.0
H5679 H 0.69008 0.40115 0.21781 0.0
H5680 H 0.69989 0.43236 0.23341 0.0
H5681 H 0.68856 0.41925 0.22404 0.0
H5682 H 0.70835 0.42312 0.19561 0.0
H5683 H 0.71953 0.43652 0.20497 0.0
C5684 C 0.68197 0.40433 0.18783 0.0
C5685 C 0.67852 0.39518 0.19369 0.0
C5686 C 0.68817 0.41241 0.19278 0.0
C5687 C 0.69109 0.41148 0.20369 0.0
C5688 C 0.68776 0.40225 0.20947 0.0
C5689 C 0.68155 0.39422 0.20454 0.0
C5690 C 0.70174 0.4305 0.22512 0.0
C5691 C 0.71055 0.43551 0.2199 0.0
C5692 C 0.69531 0.42291 0.21977 0.0
C5693 C 0.69759 0.42006 0.20909 0.0
C5694 C 0.7063 0.42521 0.20379 0.0
C5695 C 0.71272 0.43284 0.20915 0.0
H5696 H 0.60889 0.3006 0.8261 0.0
H5697 H 0.60387 0.33343 0.81603 0.0
H5698 H 0.59477 0.29454 0.8139 0.0
H5699 H 0.58921 0.32744 0.80441 0.0
H5700 H 0.57266 0.31211 0.77533 0.0
H5701 H 0.58629 0.31849 0.78802 0.0
H5702 H 0.5761 0.29383 0.81073 0.0
H5703 H 0.56291 0.28713 0.79777 0.0
C5704 C 0.60475 0.30654 0.82132 0.0
C5705 C 0.60761 0.31751 0.82202 0.0
C5706 C 0.59651 0.30307 0.81443 0.0
C5707 C 0.59081 0.31048 0.80812 0.0
C5708 C 0.59351 0.32147 0.809 0.0
C5709 C 0.60184 0.32493 0.81581 0.0
C5710 C 0.57329 0.30814 0.78309 0.0
C5711 C 0.56656 0.29928 0.78562 0.0
C5712 C 0.58106 0.31182 0.7904 0.0
C5713 C 0.58229 0.30674 0.80047 0.0
C5714 C 0.5755 0.29788 0.80302 0.0
C5715 C 0.56782 0.29412 0.79564 0.0
H5716 H 0.69513 0.60017 0.83491 0.0
H5717 H 0.69406 0.62115 0.80711 0.0
H5718 H 0.70156 0.58564 0.82357 0.0
H5719 H 0.70062 0.60671 0.79584 0.0
H5720 H 0.70079 0.57512 0.77732 0.0
H5721 H 0.69385 0.58892 0.78918 0.0
H5722 H 0.71827 0.58146 0.8127 0.0
H5723 H 0.72528 0.56769 0.80077 0.0
C5724 C 0.69623 0.60166 0.82638 0.0
C5725 C 0.69408 0.61181 0.8219 0.0
C5726 C 0.7 0.59338 0.81991 0.0
C5727 C 0.70158 0.59503 0.80882 0.0
C5728 C 0.69938 0.60516 0.80435 0.0
C5729 C 0.69572 0.61346 0.81082 0.0
C5730 C 0.70458 0.57634 0.78509 0.0
C5731 C 0.71343 0.57016 0.78819 0.0
C5732 C 0.70067 0.58429 0.79184 0.0
C5733 C 0.7055 0.58626 0.80188 0.0
C5734 C 0.71429 0.58002 0.80506 0.0
C5735 C 0.7183 0.57213 0.79824 0.0
H5736 H 0.40109 0.68942 0.83155 0.0
H5737 H 0.39908 0.67368 0.8007 0.0
H5738 H 0.41602 0.70055 0.82499 0.0
H5739 H 0.41344 0.68538 0.79388 0.0
H5740 H 0.44518 0.70212 0.78651 0.0
H5741 H 0.4319 0.68965 0.79424 0.0
H5742 H 0.41929 0.71529 0.81354 0.0
H5743 H 0.433 0.72756 0.80625 0.0
C5744 C 0.40385 0.68828 0.82338 0.0
C5745 C 0.39881 0.68064 0.81666 0.0
C5746 C 0.41232 0.69481 0.81955 0.0
C5747 C 0.41592 0.69398 0.80885 0.0
C5748 C 0.41101 0.68621 0.80219 0.0
C5749 C 0.40262 0.67959 0.80606 0.0
C5750 C 0.43971 0.70504 0.79256 0.0
C5751 C 0.44031 0.71579 0.79597 0.0
C5752 C 0.43199 0.69791 0.79691 0.0
C5753 C 0.4245 0.70141 0.80457 0.0
C5754 C 0.42506 0.7122 0.80787 0.0
C5755 C 0.43288 0.71927 0.80365 0.0
H5756 H 0.32393 0.40582 0.8243 0.0
H5757 H 0.32161 0.38745 0.79501 0.0
H5758 H 0.31408 0.4204 0.81569 0.0
H5759 H 0.31179 0.40191 0.78646 0.0
H5760 H 0.30588 0.43371 0.77026 0.0
H5761 H 0.31567 0.41989 0.7799 0.0
H5762 H 0.29635 0.42524 0.8082 0.0
H5763 H 0.28664 0.4393 0.79852 0.0
C5764 C 0.32122 0.40485 0.81607 0.0
C5765 C 0.32367 0.39553 0.8103 0.0
C5766 C 0.31559 0.4132 0.81114 0.0
C5767 C 0.31228 0.41239 0.80033 0.0
C5768 C 0.31446 0.40293 0.7947 0.0
C5769 C 0.32008 0.39462 0.79961 0.0
C5770 C 0.30382 0.43204 0.77858 0.0
C5771 C 0.29559 0.43768 0.78367 0.0
C5772 C 0.30936 0.42405 0.78409 0.0
C5773 C 0.30674 0.42138 0.7948 0.0
C5774 C 0.29863 0.42715 0.79998 0.0
C5775 C 0.29307 0.43519 0.79445 0.0
H5776 H 0.67057 0.59773 0.1944 0.0
H5777 H 0.69898 0.61835 0.19344 0.0
H5778 H 0.68157 0.58277 0.20059 0.0
H5779 H 0.70989 0.60349 0.19973 0.0
H5780 H 0.72769 0.57184 0.19962 0.0
H5781 H 0.71599 0.58584 0.1927 0.0
H5782 H 0.69251 0.57793 0.21727 0.0
H5783 H 0.70427 0.56395 0.22427 0.0
C5784 C 0.67916 0.59905 0.19546 0.0
C5785 C 0.68391 0.60922 0.19344 0.0
C5786 C 0.68543 0.59052 0.19909 0.0
C5787 C 0.69659 0.59196 0.20062 0.0
C5788 C 0.70133 0.6021 0.19852 0.0
C5789 C 0.69507 0.61064 0.19501 0.0
C5790 C 0.71995 0.57299 0.20344 0.0
C5791 C 0.71682 0.56664 0.21234 0.0
C5792 C 0.7133 0.58105 0.19953 0.0
C5793 C 0.70333 0.58297 0.20444 0.0
C5794 C 0.70009 0.57653 0.21325 0.0
C5795 C 0.70682 0.56853 0.21725 0.0
H5796 H 0.68088 0.40768 0.83181 0.0
H5797 H 0.68302 0.3928 0.80062 0.0
H5798 H 0.69226 0.42263 0.82544 0.0
H5799 H 0.69449 0.40764 0.79428 0.0
H5800 H 0.70744 0.44008 0.78308 0.0
H5801 H 0.69465 0.42637 0.78959 0.0
H5802 H 0.71071 0.42627 0.82047 0.0
H5803 H 0.72325 0.44022 0.81403 0.0
C5804 C 0.68383 0.40758 0.82361 0.0
C5805 C 0.68105 0.39906 0.81672 0.0
C5806 C 0.69036 0.41614 0.81996 0.0
C5807 C 0.6943 0.41635 0.80934 0.0
C5808 C 0.69144 0.40785 0.80244 0.0
C5809 C 0.68488 0.39933 0.80608 0.0
C5810 C 0.70809 0.43726 0.79132 0.0
C5811 C 0.7162 0.4414 0.79813 0.0
C5812 C 0.70085 0.42932 0.79502 0.0
C5813 C 0.70163 0.42521 0.80556 0.0
C5814 C 0.70973 0.42938 0.81237 0.0
C5815 C 0.71694 0.43735 0.80869 0.0
H5816 H 0.61425 0.67804 0.80103 0.0
H5817 H 0.6057 0.68673 0.83347 0.0
H5818 H 0.59804 0.68649 0.79428 0.0
H5819 H 0.58945 0.69524 0.82668 0.0
H5820 H 0.56521 0.71684 0.80934 0.0
H5821 H 0.58261 0.71022 0.81563 0.0
H5822 H 0.57875 0.6825 0.79516 0.0
H5823 H 0.56152 0.68916 0.78885 0.0
C5824 C 0.60889 0.68173 0.80674 0.0
C5825 C 0.61122 0.68159 0.81781 0.0
C5826 C 0.5996 0.68659 0.80286 0.0
C5827 C 0.5924 0.69147 0.80995 0.0
C5828 C 0.59489 0.69165 0.82099 0.0
C5829 C 0.6042 0.68676 0.82489 0.0
C5830 C 0.56819 0.70942 0.8061 0.0
C5831 C 0.56209 0.7036 0.79848 0.0
C5832 C 0.57809 0.70558 0.80975 0.0
C5833 C 0.58209 0.69585 0.80586 0.0
C5834 C 0.57601 0.69011 0.79818 0.0
C5835 C 0.56612 0.69391 0.79458 0.0
H5836 H 0.29711 0.6181 0.82188 0.0
H5837 H 0.32696 0.60088 0.82256 0.0
H5838 H 0.28888 0.60399 0.81101 0.0
H5839 H 0.31867 0.58664 0.8117 0.0
H5840 H 0.3027 0.5694 0.78253 0.0
H5841 H 0.31168 0.583 0.79371 0.0
H5842 H 0.2827 0.58563 0.81268 0.0
H5843 H 0.27371 0.57231 0.80135 0.0
C5844 C 0.30188 0.61123 0.8198 0.0
C5845 C 0.31267 0.61058 0.82315 0.0
C5846 C 0.29716 0.60313 0.81357 0.0
C5847 C 0.30308 0.59412 0.81056 0.0
C5848 C 0.31392 0.59351 0.8138 0.0
C5849 C 0.31866 0.60166 0.82002 0.0
C5850 C 0.29832 0.57284 0.78916 0.0
C5851 C 0.28753 0.56976 0.79111 0.0
C5852 C 0.30346 0.58059 0.79558 0.0
C5853 C 0.29789 0.58545 0.80406 0.0
C5854 C 0.28717 0.58219 0.80611 0.0
C5855 C 0.28204 0.57448 0.79969 0.0
H5856 H 0.41056 0.31921 0.83543 0.0
H5857 H 0.38979 0.3156 0.80772 0.0
H5858 H 0.42505 0.3106 0.82571 0.0
H5859 H 0.40428 0.30695 0.79801 0.0
H5860 H 0.43509 0.29767 0.78076 0.0
H5861 H 0.42215 0.30909 0.78989 0.0
H5862 H 0.42839 0.29245 0.81983 0.0
H5863 H 0.44136 0.28124 0.81075 0.0
C5864 C 0.40909 0.31659 0.82725 0.0
C5865 C 0.39897 0.31801 0.8224 0.0
C5866 C 0.4174 0.31166 0.82168 0.0
C5867 C 0.41581 0.30799 0.81111 0.0
C5868 C 0.40583 0.30978 0.80609 0.0
C5869 C 0.39751 0.31473 0.81167 0.0
C5870 C 0.43382 0.29662 0.78933 0.0
C5871 C 0.43937 0.28869 0.79508 0.0
C5872 C 0.42635 0.30308 0.79454 0.0
C5873 C 0.42426 0.30172 0.80561 0.0
C5874 C 0.42994 0.29388 0.81135 0.0
C5875 C 0.43736 0.28742 0.80615 0.0
H5876 H 0.31106 0.39684 0.18213 0.0
H5877 H 0.33528 0.40037 0.20693 0.0
H5878 H 0.3007 0.41101 0.19036 0.0
H5879 H 0.32527 0.41494 0.21476 0.0
H5880 H 0.2983 0.43059 0.23367 0.0
H5881 H 0.30926 0.41725 0.22487 0.0
H5882 H 0.29994 0.42987 0.19379 0.0
H5883 H 0.28865 0.44299 0.20268 0.0
C5884 C 0.31422 0.40066 0.1893 0.0
C5885 C 0.32401 0.39738 0.19388 0.0
C5886 C 0.30834 0.40891 0.19395 0.0
C5887 C 0.31211 0.41413 0.20327 0.0
C5888 C 0.32202 0.41101 0.20769 0.0
C5889 C 0.32786 0.40273 0.20309 0.0
C5890 C 0.29871 0.43059 0.22496 0.0
C5891 C 0.29281 0.438 0.21888 0.0
C5892 C 0.30503 0.42297 0.2199 0.0
C5893 C 0.30559 0.42251 0.2086 0.0
C5894 C 0.29966 0.42992 0.2025 0.0
C5895 C 0.29328 0.43753 0.20759 0.0
H5896 H 0.59747 0.32729 0.18242 0.0
H5897 H 0.61476 0.29754 0.18207 0.0
H5898 H 0.5835 0.3188 0.19366 0.0
H5899 H 0.60095 0.28911 0.19335 0.0
H5900 H 0.56979 0.27372 0.20455 0.0
H5901 H 0.5826 0.28286 0.19261 0.0
H5902 H 0.5804 0.31165 0.21165 0.0
H5903 H 0.56728 0.30253 0.22343 0.0
C5904 C 0.59832 0.31896 0.1848 0.0
C5905 C 0.60718 0.31307 0.18129 0.0
C5906 C 0.59032 0.3141 0.19125 0.0
C5907 C 0.59105 0.30325 0.19435 0.0
C5908 C 0.59999 0.29741 0.19091 0.0
C5909 C 0.60793 0.30225 0.18445 0.0
C5910 C 0.57194 0.28205 0.2061 0.0
C5911 C 0.56749 0.28743 0.21488 0.0
C5912 C 0.57936 0.28726 0.19932 0.0
C5913 C 0.58261 0.29797 0.20121 0.0
C5914 C 0.578 0.30344 0.20988 0.0
C5915 C 0.57052 0.29822 0.21666 0.0
H5916 H 0.3855 0.70333 0.1921 0.0
H5917 H 0.40976 0.68909 0.17214 0.0
H5918 H 0.39961 0.71162 0.20317 0.0
H5919 H 0.42391 0.69745 0.18322 0.0
H5920 H 0.44423 0.7044 0.21446 0.0
H5921 H 0.43072 0.69601 0.20269 0.0
H5922 H 0.41405 0.72605 0.20054 0.0
H5923 H 0.42762 0.73447 0.2122 0.0
C5924 C 0.39386 0.70193 0.19012 0.0
C5925 C 0.39654 0.69556 0.18127 0.0
C5926 C 0.40192 0.70675 0.19639 0.0
C5927 C 0.41285 0.70521 0.19402 0.0
C5928 C 0.41555 0.69873 0.18525 0.0
C5929 C 0.40747 0.69402 0.17888 0.0
C5930 C 0.4378 0.70926 0.21131 0.0
C5931 C 0.43711 0.72018 0.21405 0.0
C5932 C 0.43006 0.70445 0.20459 0.0
C5933 C 0.42136 0.71039 0.2007 0.0
C5934 C 0.42065 0.72127 0.20347 0.0
C5935 C 0.42844 0.72611 0.21006 0.0
loop_
_geom_bond_atom_site_label_1
_geom_bond_atom_site_label_2
_geom_bond_distance
_geom_bond_site_symmetry_2
_ccdc_geom_bond_type
C0 C1 1.264 . S
C0 C5 1.479 . S
C0 C10 1.465 . S
C1 C0 1.264 . S
C1 C3 1.339 . S
C1 H28 0.931 . S
C2 C3 1.395 . S
C2 C4 1.320 . S
C3 C1 1.339 . S
C3 C2 1.395 . S
C3 H29 0.929 . S
C4 C2 1.320 . S
C4 C5 1.405 . S
C4 H30 0.930 . S
C5 C0 1.479 . S
C5 C4 1.405 . S
C5 H31 0.931 . S
U6 O7 2.454 . S
U6 O8 2.458 . S
U6 C9 2.984 . S
U6 C10 2.847 . S
U6 C23 2.882 . S
U6 O24 2.441 . S
U6 O25 2.420 . S
U6 O26 2.455 . S
U6 O27 2.449 . S
O7 U6 2.454 . S
O7 C9 1.353 . S
O8 U6 2.458 . S
O8 C9 1.286 . S
C9 U6 2.984 . S
C9 O7 1.353 . S
C9 O8 1.286 . S
C9 C11 1.363 . S
C10 C0 1.465 . S
C10 U6 2.847 . S
C10 O24 1.249 . S
C10 O25 1.202 . S
C11 C9 1.363 . S
C11 C13 1.408 . S
C11 C16 1.342 . S
C12 C13 1.310 . S
C12 C15 1.461 . S
C12 H32 0.932 . S
C13 C11 1.408 . S
C13 C12 1.310 . S
C13 H33 0.930 . S
C14 C15 1.474 . S
C14 C16 1.285 . S
C14 H34 0.929 . S
C15 C12 1.461 . S
C15 C14 1.474 . S
C16 C11 1.342 . S
C16 C14 1.285 . S
C16 H35 0.930 . S
C17 C20 1.424 . S
C17 C22 1.245 . S
C17 C23 1.428 . S
C18 C21 1.260 . S
C18 C22 1.477 . S
C18 H36 0.932 . S
C19 C20 1.384 . S
C19 C21 1.479 . S
C19 H37 0.929 . S
C20 C17 1.424 . S
C20 C19 1.384 . S
C20 H38 0.928 . S
C21 C18 1.260 . S
C21 C19 1.479 . S
C22 C17 1.245 . S
C22 C18 1.477 . S
C22 H39 0.932 . S
C23 U6 2.882 . S
C23 C17 1.428 . S
C23 O26 1.301 . S
C23 O27 1.282 . S
O24 U6 2.441 . S
O24 C10 1.249 . S
O25 U6 2.420 . S
O25 C10 1.202 . S
O26 U6 2.455 . S
O26 C23 1.301 . S
O27 U6 2.449 . S
O27 C23 1.282 . S
H28 C1 0.931 . S
H29 C3 0.929 . S
H30 C4 0.930 . S
H31 C5 0.931 . S
H32 C12 0.932 . S
H33 C13 0.930 . S
H34 C14 0.929 . S
H35 C16 0.930 . S
H36 C18 0.932 . S
H37 C19 0.929 . S
H38 C20 0.928 . S
H39 C22 0.932 . S
C40 C41 1.264 . S
C40 C45 1.479 . S
C40 C50 1.465 . S
C41 C40 1.264 . S
C41 C43 1.339 . S
C41 H68 0.931 . S
C42 C43 1.395 . S
C42 C44 1.320 . S
C43 C41 1.339 . S
C43 C42 1.395 . S
C43 H69 0.929 . S
C44 C42 1.320 . S
C44 C45 1.405 . S
C44 H70 0.930 . S
C45 C40 1.479 . S
C45 C44 1.405 . S
C45 H71 0.931 . S
U46 O47 2.454 . S
U46 O48 2.458 . S
U46 C49 2.984 . S
U46 C50 2.847 . S
U46 C63 2.882 . S
U46 O64 2.441 . S
U46 O65 2.420 . S
U46 O66 2.455 . S
U46 O67 2.449 . S
O47 U46 2.454 . S
O47 C49 1.353 . S
O48 U46 2.458 . S
O48 C49 1.286 . S
C49 U46 2.984 . S
C49 O47 1.353 . S
C49 O48 1.286 . S
C49 C51 1.363 . S
C50 C40 1.465 . S
C50 U46 2.847 . S
C50 O64 1.249 . S
C50 O65 1.202 . S
C51 C49 1.363 . S
C51 C53 1.408 . S
C51 C56 1.342 . S
C52 C53 1.310 . S
C52 C55 1.461 . S
C52 H72 0.932 . S
C53 C51 1.408 . S
C53 C52 1.310 . S
C53 H73 0.930 . S
C54 C55 1.474 . S
C54 C56 1.285 . S
C54 H74 0.929 . S
C55 C52 1.461 . S
C55 C54 1.474 . S
C56 C51 1.342 . S
C56 C54 1.285 . S
C56 H75 0.930 . S
C57 C60 1.424 . S
C57 C62 1.245 . S
C57 C63 1.428 . S
C58 C61 1.260 . S
C58 C62 1.477 . S
C58 H76 0.932 . S
C59 C60 1.384 . S
C59 C61 1.479 . S
C59 H77 0.929 . S
C60 C57 1.424 . S
C60 C59 1.384 . S
C60 H78 0.928 . S
C61 C58 1.260 . S
C61 C59 1.479 . S
C62 C57 1.245 . S
C62 C58 1.477 . S
C62 H79 0.932 . S
C63 U46 2.882 . S
C63 C57 1.428 . S
C63 O66 1.301 . S
C63 O67 1.282 . S
O64 U46 2.441 . S
O64 C50 1.249 . S
O65 U46 2.420 . S
O65 C50 1.202 . S
O66 U46 2.455 . S
O66 C63 1.301 . S
O67 U46 2.449 . S
O67 C63 1.282 . S
H68 C41 0.931 . S
H69 C43 0.929 . S
H70 C44 0.930 . S
H71 C45 0.931 . S
H72 C52 0.932 . S
H73 C53 0.930 . S
H74 C54 0.929 . S
H75 C56 0.930 . S
H76 C58 0.932 . S
H77 C59 0.929 . S
H78 C60 0.928 . S
H79 C62 0.932 . S
C80 C81 1.264 . S
C80 C85 1.479 . S
C80 C90 1.465 . S
C81 C80 1.264 . S
C81 C83 1.339 . S
C81 H108 0.931 . S
C82 C83 1.395 . S
C82 C84 1.320 . S
C83 C81 1.339 . S
C83 C82 1.395 . S
C83 H109 0.929 . S
C84 C82 1.320 . S
C84 C85 1.405 . S
C84 H110 0.930 . S
C85 C80 1.479 . S
C85 C84 1.405 . S
C85 H111 0.931 . S
U86 O87 2.454 . S
U86 O88 2.458 . S
U86 C89 2.984 . S
U86 C90 2.847 . S
U86 C103 2.882 . S
U86 O104 2.441 . S
U86 O105 2.420 . S
U86 O106 2.455 . S
U86 O107 2.449 . S
O87 U86 2.454 . S
O87 C89 1.353 . S
O88 U86 2.458 . S
O88 C89 1.286 . S
C89 U86 2.984 . S
C89 O87 1.353 . S
C89 O88 1.286 . S
C89 C91 1.363 . S
C90 C80 1.465 . S
C90 U86 2.847 . S
C90 O104 1.249 . S
C90 O105 1.202 . S
C91 C89 1.363 . S
C91 C93 1.408 . S
C91 C96 1.342 . S
C92 C93 1.310 . S
C92 C95 1.461 . S
C92 H112 0.932 . S
C93 C91 1.408 . S
C93 C92 1.310 . S
C93 H113 0.930 . S
C94 C95 1.474 . S
C94 C96 1.285 . S
C94 H114 0.929 . S
C95 C92 1.461 . S
C95 C94 1.474 . S
C96 C91 1.342 . S
C96 C94 1.285 . S
C96 H115 0.930 . S
C97 C100 1.424 . S
C97 C102 1.245 . S
C97 C103 1.428 . S
C98 C101 1.260 . S
C98 C102 1.477 . S
C98 H116 0.932 . S
C99 C100 1.384 . S
C99 C101 1.479 . S
C99 H117 0.929 . S
C100 C97 1.424 . S
C100 C99 1.384 . S
C100 H118 0.928 . S
C101 C98 1.260 . S
C101 C99 1.479 . S
C102 C97 1.245 . S
C102 C98 1.477 . S
C102 H119 0.932 . S
C103 U86 2.882 . S
C103 C97 1.428 . S
C103 O106 1.301 . S
C103 O107 1.282 . S
O104 U86 2.441 . S
O104 C90 1.249 . S
O105 U86 2.420 . S
O105 C90 1.202 . S
O106 U86 2.455 . S
O106 C103 1.301 . S
O107 U86 2.449 . S
O107 C103 1.282 . S
H108 C81 0.931 . S
H109 C83 0.929 . S
H110 C84 0.930 . S
H111 C85 0.931 . S
H112 C92 0.932 . S
H113 C93 0.930 . S
H114 C94 0.929 . S
H115 C96 0.930 . S
H116 C98 0.932 . S
H117 C99 0.929 . S
H118 C100 0.928 . S
H119 C102 0.932 . S
C120 C121 1.264 . S
C120 C125 1.479 . S
C120 C130 1.465 . S
C121 C120 1.264 . S
C121 C123 1.339 . S
C121 H148 0.931 . S
C122 C123 1.395 . S
C122 C124 1.320 . S
C123 C121 1.339 . S
C123 C122 1.395 . S
C123 H149 0.929 . S
C124 C122 1.320 . S
C124 C125 1.405 . S
C124 H150 0.930 . S
C125 C120 1.479 . S
C125 C124 1.405 . S
C125 H151 0.931 . S
U126 O127 2.454 . S
U126 O128 2.458 . S
U126 C129 2.984 . S
U126 C130 2.847 . S
U126 C143 2.882 . S
U126 O144 2.441 . S
U126 O145 2.420 . S
U126 O146 2.455 . S
U126 O147 2.449 . S
O127 U126 2.454 . S
O127 C129 1.353 . S
O128 U126 2.458 . S
O128 C129 1.286 . S
C129 U126 2.984 . S
C129 O127 1.353 . S
C129 O128 1.286 . S
C129 C131 1.363 . S
C130 C120 1.465 . S
C130 U126 2.847 . S
C130 O144 1.249 . S
C130 O145 1.202 . S
C131 C129 1.363 . S
C131 C133 1.408 . S
C131 C136 1.342 . S
C132 C133 1.310 . S
C132 C135 1.461 . S
C132 H152 0.932 . S
C133 C131 1.408 . S
C133 C132 1.310 . S
C133 H153 0.930 . S
C134 C135 1.474 . S
C134 C136 1.285 . S
C134 H154 0.929 . S
C135 C132 1.461 . S
C135 C134 1.474 . S
C136 C131 1.342 . S
C136 C134 1.285 . S
C136 H155 0.930 . S
C137 C140 1.424 . S
C137 C142 1.245 . S
C137 C143 1.428 . S
C138 C141 1.260 . S
C138 C142 1.477 . S
C138 H156 0.932 . S
C139 C140 1.384 . S
C139 C141 1.479 . S
C139 H157 0.929 . S
C140 C137 1.424 . S
C140 C139 1.384 . S
C140 H158 0.928 . S
C141 C138 1.260 . S
C141 C139 1.479 . S
C142 C137 1.245 . S
C142 C138 1.477 . S
C142 H159 0.932 . S
C143 U126 2.882 . S
C143 C137 1.428 . S
C143 O146 1.301 . S
C143 O147 1.282 . S
O144 U126 2.441 . S
O144 C130 1.249 . S
O145 U126 2.420 . S
O145 C130 1.202 . S
O146 U126 2.455 . S
O146 C143 1.301 . S
O147 U126 2.449 . S
O147 C143 1.282 . S
H148 C121 0.931 . S
H149 C123 0.929 . S
H150 C124 0.930 . S
H151 C125 0.931 . S
H152 C132 0.932 . S
H153 C133 0.930 . S
H154 C134 0.929 . S
H155 C136 0.930 . S
H156 C138 0.932 . S
H157 C139 0.929 . S
H158 C140 0.928 . S
H159 C142 0.932 . S
C160 C161 1.264 . S
C160 C165 1.479 . S
C160 C170 1.465 . S
C161 C160 1.264 . S
C161 C163 1.339 . S
C161 H188 0.931 . S
C162 C163 1.395 . S
C162 C164 1.320 . S
C163 C161 1.339 . S
C163 C162 1.395 . S
C163 H189 0.929 . S
C164 C162 1.320 . S
C164 C165 1.405 . S
C164 H190 0.930 . S
C165 C160 1.479 . S
C165 C164 1.405 . S
C165 H191 0.931 . S
U166 O167 2.454 . S
U166 O168 2.458 . S
U166 C169 2.984 . S
U166 C170 2.847 . S
U166 C183 2.882 . S
U166 O184 2.441 . S
U166 O185 2.420 . S
U166 O186 2.455 . S
U166 O187 2.449 . S
O167 U166 2.454 . S
O167 C169 1.353 . S
O168 U166 2.458 . S
O168 C169 1.286 . S
C169 U166 2.984 . S
C169 O167 1.353 . S
C169 O168 1.286 . S
C169 C171 1.363 . S
C170 C160 1.465 . S
C170 U166 2.847 . S
C170 O184 1.249 . S
C170 O185 1.202 . S
C171 C169 1.363 . S
C171 C173 1.408 . S
C171 C176 1.342 . S
C172 C173 1.310 . S
C172 C175 1.461 . S
C172 H192 0.932 . S
C173 C171 1.408 . S
C173 C172 1.310 . S
C173 H193 0.930 . S
C174 C175 1.474 . S
C174 C176 1.285 . S
C174 H194 0.929 . S
C175 C172 1.461 . S
C175 C174 1.474 . S
C176 C171 1.342 . S
C176 C174 1.285 . S
C176 H195 0.930 . S
C177 C180 1.424 . S
C177 C182 1.245 . S
C177 C183 1.428 . S
C178 C181 1.260 . S
C178 C182 1.477 . S
C178 H196 0.932 . S
C179 C180 1.384 . S
C179 C181 1.479 . S
C179 H197 0.929 . S
C180 C177 1.424 . S
C180 C179 1.384 . S
C180 H198 0.928 . S
C181 C178 1.260 . S
C181 C179 1.479 . S
C182 C177 1.245 . S
C182 C178 1.477 . S
C182 H199 0.932 . S
C183 U166 2.882 . S
C183 C177 1.428 . S
C183 O186 1.301 . S
C183 O187 1.282 . S
O184 U166 2.441 . S
O184 C170 1.249 . S
O185 U166 2.420 . S
O185 C170 1.202 . S
O186 U166 2.455 . S
O186 C183 1.301 . S
O187 U166 2.449 . S
O187 C183 1.282 . S
H188 C161 0.931 . S
H189 C163 0.929 . S
H190 C164 0.930 . S
H191 C165 0.931 . S
H192 C172 0.932 . S
H193 C173 0.930 . S
H194 C174 0.929 . S
H195 C176 0.930 . S
H196 C178 0.932 . S
H197 C179 0.929 . S
H198 C180 0.928 . S
H199 C182 0.932 . S
C200 C201 1.264 . S
C200 C205 1.479 . S
C200 C210 1.465 . S
C201 C200 1.264 . S
C201 C203 1.339 . S
C201 H228 0.931 . S
C202 C203 1.395 . S
C202 C204 1.320 . S
C203 C201 1.339 . S
C203 C202 1.395 . S
C203 H229 0.929 . S
C204 C202 1.320 . S
C204 C205 1.405 . S
C204 H230 0.930 . S
C205 C200 1.479 . S
C205 C204 1.405 . S
C205 H231 0.931 . S
U206 O207 2.454 . S
U206 O208 2.458 . S
U206 C209 2.984 . S
U206 C210 2.847 . S
U206 C223 2.882 . S
U206 O224 2.441 . S
U206 O225 2.420 . S
U206 O226 2.455 . S
U206 O227 2.449 . S
O207 U206 2.454 . S
O207 C209 1.353 . S
O208 U206 2.458 . S
O208 C209 1.286 . S
C209 U206 2.984 . S
C209 O207 1.353 . S
C209 O208 1.286 . S
C209 C211 1.363 . S
C210 C200 1.465 . S
C210 U206 2.847 . S
C210 O224 1.249 . S
C210 O225 1.202 . S
C211 C209 1.363 . S
C211 C213 1.408 . S
C211 C216 1.342 . S
C212 C213 1.310 . S
C212 C215 1.461 . S
C212 H232 0.932 . S
C213 C211 1.408 . S
C213 C212 1.310 . S
C213 H233 0.930 . S
C214 C215 1.474 . S
C214 C216 1.285 . S
C214 H234 0.929 . S
C215 C212 1.461 . S
C215 C214 1.474 . S
C216 C211 1.342 . S
C216 C214 1.285 . S
C216 H235 0.930 . S
C217 C220 1.424 . S
C217 C222 1.245 . S
C217 C223 1.428 . S
C218 C221 1.260 . S
C218 C222 1.477 . S
C218 H236 0.932 . S
C219 C220 1.384 . S
C219 C221 1.479 . S
C219 H237 0.929 . S
C220 C217 1.424 . S
C220 C219 1.384 . S
C220 H238 0.928 . S
C221 C218 1.260 . S
C221 C219 1.479 . S
C222 C217 1.245 . S
C222 C218 1.477 . S
C222 H239 0.932 . S
C223 U206 2.882 . S
C223 C217 1.428 . S
C223 O226 1.301 . S
C223 O227 1.282 . S
O224 U206 2.441 . S
O224 C210 1.249 . S
O225 U206 2.420 . S
O225 C210 1.202 . S
O226 U206 2.455 . S
O226 C223 1.301 . S
O227 U206 2.449 . S
O227 C223 1.282 . S
H228 C201 0.931 . S
H229 C203 0.929 . S
H230 C204 0.930 . S
H231 C205 0.931 . S
H232 C212 0.932 . S
H233 C213 0.930 . S
H234 C214 0.929 . S
H235 C216 0.930 . S
H236 C218 0.932 . S
H237 C219 0.929 . S
H238 C220 0.928 . S
H239 C222 0.932 . S
C240 C241 1.264 . S
C240 C245 1.479 . S
C240 C250 1.465 . S
C241 C240 1.264 . S
C241 C243 1.339 . S
C241 H268 0.931 . S
C242 C243 1.395 . S
C242 C244 1.320 . S
C243 C241 1.339 . S
C243 C242 1.395 . S
C243 H269 0.929 . S
C244 C242 1.320 . S
C244 C245 1.405 . S
C244 H270 0.930 . S
C245 C240 1.479 . S
C245 C244 1.405 . S
C245 H271 0.931 . S
U246 O247 2.454 . S
U246 O248 2.458 . S
U246 C249 2.984 . S
U246 C250 2.847 . S
U246 C263 2.882 . S
U246 O264 2.441 . S
U246 O265 2.420 . S
U246 O266 2.455 . S
U246 O267 2.449 . S
O247 U246 2.454 . S
O247 C249 1.353 . S
O248 U246 2.458 . S
O248 C249 1.286 . S
C249 U246 2.984 . S
C249 O247 1.353 . S
C249 O248 1.286 . S
C249 C251 1.363 . S
C250 C240 1.465 . S
C250 U246 2.847 . S
C250 O264 1.249 . S
C250 O265 1.202 . S
C251 C249 1.363 . S
C251 C253 1.408 . S
C251 C256 1.342 . S
C252 C253 1.310 . S
C252 C255 1.461 . S
C252 H272 0.932 . S
C253 C251 1.408 . S
C253 C252 1.310 . S
C253 H273 0.930 . S
C254 C255 1.474 . S
C254 C256 1.285 . S
C254 H274 0.929 . S
C255 C252 1.461 . S
C255 C254 1.474 . S
C256 C251 1.342 . S
C256 C254 1.285 . S
C256 H275 0.930 . S
C257 C260 1.424 . S
C257 C262 1.245 . S
C257 C263 1.428 . S
C258 C261 1.260 . S
C258 C262 1.477 . S
C258 H276 0.932 . S
C259 C260 1.384 . S
C259 C261 1.479 . S
C259 H277 0.929 . S
C260 C257 1.424 . S
C260 C259 1.384 . S
C260 H278 0.928 . S
C261 C258 1.260 . S
C261 C259 1.479 . S
C262 C257 1.245 . S
C262 C258 1.477 . S
C262 H279 0.932 . S
C263 U246 2.882 . S
C263 C257 1.428 . S
C263 O266 1.301 . S
C263 O267 1.282 . S
O264 U246 2.441 . S
O264 C250 1.249 . S
O265 U246 2.420 . S
O265 C250 1.202 . S
O266 U246 2.455 . S
O266 C263 1.301 . S
O267 U246 2.449 . S
O267 C263 1.282 . S
H268 C241 0.931 . S
H269 C243 0.929 . S
H270 C244 0.930 . S
H271 C245 0.931 . S
H272 C252 0.932 . S
H273 C253 0.930 . S
H274 C254 0.929 . S
H275 C256 0.930 . S
H276 C258 0.932 . S
H277 C259 0.929 . S
H278 C260 0.928 . S
H279 C262 0.932 . S
C280 C281 1.264 . S
C280 C285 1.479 . S
C280 C290 1.465 . S
C281 C280 1.264 . S
C281 C283 1.339 . S
C281 H308 0.931 . S
C282 C283 1.395 . S
C282 C284 1.320 . S
C283 C281 1.339 . S
C283 C282 1.395 . S
C283 H309 0.929 . S
C284 C282 1.320 . S
C284 C285 1.405 . S
C284 H310 0.930 . S
C285 C280 1.479 . S
C285 C284 1.405 . S
C285 H311 0.931 . S
U286 O287 2.454 . S
U286 O288 2.458 . S
U286 C289 2.984 . S
U286 C290 2.847 . S
U286 C303 2.882 . S
U286 O304 2.441 . S
U286 O305 2.420 . S
U286 O306 2.455 . S
U286 O307 2.449 . S
O287 U286 2.454 . S
O287 C289 1.353 . S
O288 U286 2.458 . S
O288 C289 1.286 . S
C289 U286 2.984 . S
C289 O287 1.353 . S
C289 O288 1.286 . S
C289 C291 1.363 . S
C290 C280 1.465 . S
C290 U286 2.847 . S
C290 O304 1.249 . S
C290 O305 1.202 . S
C291 C289 1.363 . S
C291 C293 1.408 . S
C291 C296 1.342 . S
C292 C293 1.310 . S
C292 C295 1.461 . S
C292 H312 0.932 . S
C293 C291 1.408 . S
C293 C292 1.310 . S
C293 H313 0.930 . S
C294 C295 1.474 . S
C294 C296 1.285 . S
C294 H314 0.929 . S
C295 C292 1.461 . S
C295 C294 1.474 . S
C296 C291 1.342 . S
C296 C294 1.285 . S
C296 H315 0.930 . S
C297 C300 1.424 . S
C297 C302 1.245 . S
C297 C303 1.428 . S
C298 C301 1.260 . S
C298 C302 1.477 . S
C298 H316 0.932 . S
C299 C300 1.384 . S
C299 C301 1.479 . S
C299 H317 0.929 . S
C300 C297 1.424 . S
C300 C299 1.384 . S
C300 H318 0.928 . S
C301 C298 1.260 . S
C301 C299 1.479 . S
C302 C297 1.245 . S
C302 C298 1.477 . S
C302 H319 0.932 . S
C303 U286 2.882 . S
C303 C297 1.428 . S
C303 O306 1.301 . S
C303 O307 1.282 . S
O304 U286 2.441 . S
O304 C290 1.249 . S
O305 U286 2.420 . S
O305 C290 1.202 . S
O306 U286 2.455 . S
O306 C303 1.301 . S
O307 U286 2.449 . S
O307 C303 1.282 . S
H308 C281 0.931 . S
H309 C283 0.929 . S
H310 C284 0.930 . S
H311 C285 0.931 . S
H312 C292 0.932 . S
H313 C293 0.930 . S
H314 C294 0.929 . S
H315 C296 0.930 . S
H316 C298 0.932 . S
H317 C299 0.929 . S
H318 C300 0.928 . S
H319 C302 0.932 . S
C320 C321 1.264 . S
C320 C325 1.479 . S
C320 C330 1.465 . S
C321 C320 1.264 . S
C321 C323 1.339 . S
C321 H348 0.931 . S
C322 C323 1.395 . S
C322 C324 1.320 . S
C323 C321 1.339 . S
C323 C322 1.395 . S
C323 H349 0.929 . S
C324 C322 1.320 . S
C324 C325 1.405 . S
C324 H350 0.930 . S
C325 C320 1.479 . S
C325 C324 1.405 . S
C325 H351 0.931 . S
U326 O327 2.454 . S
U326 O328 2.458 . S
U326 C329 2.984 . S
U326 C330 2.847 . S
U326 C343 2.882 . S
U326 O344 2.441 . S
U326 O345 2.420 . S
U326 O346 2.455 . S
U326 O347 2.449 . S
O327 U326 2.454 . S
O327 C329 1.353 . S
O328 U326 2.458 . S
O328 C329 1.286 . S
C329 U326 2.984 . S
C329 O327 1.353 . S
C329 O328 1.286 . S
C329 C331 1.363 . S
C330 C320 1.465 . S
C330 U326 2.847 . S
C330 O344 1.249 . S
C330 O345 1.202 . S
C331 C329 1.363 . S
C331 C333 1.408 . S
C331 C336 1.342 . S
C332 C333 1.310 . S
C332 C335 1.461 . S
C332 H352 0.932 . S
C333 C331 1.408 . S
C333 C332 1.310 . S
C333 H353 0.930 . S
C334 C335 1.474 . S
C334 C336 1.285 . S
C334 H354 0.929 . S
C335 C332 1.461 . S
C335 C334 1.474 . S
C336 C331 1.342 . S
C336 C334 1.285 . S
C336 H355 0.930 . S
C337 C340 1.424 . S
C337 C342 1.245 . S
C337 C343 1.428 . S
C338 C341 1.260 . S
C338 C342 1.477 . S
C338 H356 0.932 . S
C339 C340 1.384 . S
C339 C341 1.479 . S
C339 H357 0.929 . S
C340 C337 1.424 . S
C340 C339 1.384 . S
C340 H358 0.928 . S
C341 C338 1.260 . S
C341 C339 1.479 . S
C342 C337 1.245 . S
C342 C338 1.477 . S
C342 H359 0.932 . S
C343 U326 2.882 . S
C343 C337 1.428 . S
C343 O346 1.301 . S
C343 O347 1.282 . S
O344 U326 2.441 . S
O344 C330 1.249 . S
O345 U326 2.420 . S
O345 C330 1.202 . S
O346 U326 2.455 . S
O346 C343 1.301 . S
O347 U326 2.449 . S
O347 C343 1.282 . S
H348 C321 0.931 . S
H349 C323 0.929 . S
H350 C324 0.930 . S
H351 C325 0.931 . S
H352 C332 0.932 . S
H353 C333 0.930 . S
H354 C334 0.929 . S
H355 C336 0.930 . S
H356 C338 0.932 . S
H357 C339 0.929 . S
H358 C340 0.928 . S
H359 C342 0.932 . S
C360 C361 1.264 . S
C360 C365 1.479 . S
C360 C370 1.465 . S
C361 C360 1.264 . S
C361 C363 1.339 . S
C361 H388 0.931 . S
C362 C363 1.395 . S
C362 C364 1.320 . S
C363 C361 1.339 . S
C363 C362 1.395 . S
C363 H389 0.929 . S
C364 C362 1.320 . S
C364 C365 1.405 . S
C364 H390 0.930 . S
C365 C360 1.479 . S
C365 C364 1.405 . S
C365 H391 0.931 . S
U366 O367 2.454 . S
U366 O368 2.458 . S
U366 C369 2.984 . S
U366 C370 2.847 . S
U366 C383 2.882 . S
U366 O384 2.441 . S
U366 O385 2.420 . S
U366 O386 2.455 . S
U366 O387 2.449 . S
O367 U366 2.454 . S
O367 C369 1.353 . S
O368 U366 2.458 . S
O368 C369 1.286 . S
C369 U366 2.984 . S
C369 O367 1.353 . S
C369 O368 1.286 . S
C369 C371 1.363 . S
C370 C360 1.465 . S
C370 U366 2.847 . S
C370 O384 1.249 . S
C370 O385 1.202 . S
C371 C369 1.363 . S
C371 C373 1.408 . S
C371 C376 1.342 . S
C372 C373 1.310 . S
C372 C375 1.461 . S
C372 H392 0.932 . S
C373 C371 1.408 . S
C373 C372 1.310 . S
C373 H393 0.930 . S
C374 C375 1.474 . S
C374 C376 1.285 . S
C374 H394 0.929 . S
C375 C372 1.461 . S
C375 C374 1.474 . S
C376 C371 1.342 . S
C376 C374 1.285 . S
C376 H395 0.930 . S
C377 C380 1.424 . S
C377 C382 1.245 . S
C377 C383 1.428 . S
C378 C381 1.260 . S
C378 C382 1.477 . S
C378 H396 0.932 . S
C379 C380 1.384 . S
C379 C381 1.479 . S
C379 H397 0.929 . S
C380 C377 1.424 . S
C380 C379 1.384 . S
C380 H398 0.928 . S
C381 C378 1.260 . S
C381 C379 1.479 . S
C382 C377 1.245 . S
C382 C378 1.477 . S
C382 H399 0.932 . S
C383 U366 2.882 . S
C383 C377 1.428 . S
C383 O386 1.301 . S
C383 O387 1.282 . S
O384 U366 2.441 . S
O384 C370 1.249 . S
O385 U366 2.420 . S
O385 C370 1.202 . S
O386 U366 2.455 . S
O386 C383 1.301 . S
O387 U366 2.449 . S
O387 C383 1.282 . S
H388 C361 0.931 . S
H389 C363 0.929 . S
H390 C364 0.930 . S
H391 C365 0.931 . S
H392 C372 0.932 . S
H393 C373 0.930 . S
H394 C374 0.929 . S
H395 C376 0.930 . S
H396 C378 0.932 . S
H397 C379 0.929 . S
H398 C380 0.928 . S
H399 C382 0.932 . S
C400 C401 1.264 . S
C400 C405 1.479 . S
C400 C410 1.465 . S
C401 C400 1.264 . S
C401 C403 1.339 . S
C401 H428 0.931 . S
C402 C403 1.395 . S
C402 C404 1.320 . S
C403 C401 1.339 . S
C403 C402 1.395 . S
C403 H429 0.929 . S
C404 C402 1.320 . S
C404 C405 1.405 . S
C404 H430 0.930 . S
C405 C400 1.479 . S
C405 C404 1.405 . S
C405 H431 0.931 . S
U406 O407 2.454 . S
U406 O408 2.458 . S
U406 C409 2.984 . S
U406 C410 2.847 . S
U406 C423 2.882 . S
U406 O424 2.441 . S
U406 O425 2.420 . S
U406 O426 2.455 . S
U406 O427 2.449 . S
O407 U406 2.454 . S
O407 C409 1.353 . S
O408 U406 2.458 . S
O408 C409 1.286 . S
C409 U406 2.984 . S
C409 O407 1.353 . S
C409 O408 1.286 . S
C409 C411 1.363 . S
C410 C400 1.465 . S
C410 U406 2.847 . S
C410 O424 1.249 . S
C410 O425 1.202 . S
C411 C409 1.363 . S
C411 C413 1.408 . S
C411 C416 1.342 . S
C412 C413 1.310 . S
C412 C415 1.461 . S
C412 H432 0.932 . S
C413 C411 1.408 . S
C413 C412 1.310 . S
C413 H433 0.930 . S
C414 C415 1.474 . S
C414 C416 1.285 . S
C414 H434 0.929 . S
C415 C412 1.461 . S
C415 C414 1.474 . S
C416 C411 1.342 . S
C416 C414 1.285 . S
C416 H435 0.930 . S
C417 C420 1.424 . S
C417 C422 1.245 . S
C417 C423 1.428 . S
C418 C421 1.260 . S
C418 C422 1.477 . S
C418 H436 0.932 . S
C419 C420 1.384 . S
C419 C421 1.479 . S
C419 H437 0.929 . S
C420 C417 1.424 . S
C420 C419 1.384 . S
C420 H438 0.928 . S
C421 C418 1.260 . S
C421 C419 1.479 . S
C422 C417 1.245 . S
C422 C418 1.477 . S
C422 H439 0.932 . S
C423 U406 2.882 . S
C423 C417 1.428 . S
C423 O426 1.301 . S
C423 O427 1.282 . S
O424 U406 2.441 . S
O424 C410 1.249 . S
O425 U406 2.420 . S
O425 C410 1.202 . S
O426 U406 2.455 . S
O426 C423 1.301 . S
O427 U406 2.449 . S
O427 C423 1.282 . S
H428 C401 0.931 . S
H429 C403 0.929 . S
H430 C404 0.930 . S
H431 C405 0.931 . S
H432 C412 0.932 . S
H433 C413 0.930 . S
H434 C414 0.929 . S
H435 C416 0.930 . S
H436 C418 0.932 . S
H437 C419 0.929 . S
H438 C420 0.928 . S
H439 C422 0.932 . S
C440 C441 1.264 . S
C440 C445 1.479 . S
C440 C450 1.465 . S
C441 C440 1.264 . S
C441 C443 1.339 . S
C441 H468 0.931 . S
C442 C443 1.395 . S
C442 C444 1.320 . S
C443 C441 1.339 . S
C443 C442 1.395 . S
C443 H469 0.929 . S
C444 C442 1.320 . S
C444 C445 1.405 . S
C444 H470 0.930 . S
C445 C440 1.479 . S
C445 C444 1.405 . S
C445 H471 0.931 . S
U446 O447 2.454 . S
U446 O448 2.458 . S
U446 C449 2.984 . S
U446 C450 2.847 . S
U446 C463 2.882 . S
U446 O464 2.441 . S
U446 O465 2.420 . S
U446 O466 2.455 . S
U446 O467 2.449 . S
O447 U446 2.454 . S
O447 C449 1.353 . S
O448 U446 2.458 . S
O448 C449 1.286 . S
C449 U446 2.984 . S
C449 O447 1.353 . S
C449 O448 1.286 . S
C449 C451 1.363 . S
C450 C440 1.465 . S
C450 U446 2.847 . S
C450 O464 1.249 . S
C450 O465 1.202 . S
C451 C449 1.363 . S
C451 C453 1.408 . S
C451 C456 1.342 . S
C452 C453 1.310 . S
C452 C455 1.461 . S
C452 H472 0.932 . S
C453 C451 1.408 . S
C453 C452 1.310 . S
C453 H473 0.930 . S
C454 C455 1.474 . S
C454 C456 1.285 . S
C454 H474 0.929 . S
C455 C452 1.461 . S
C455 C454 1.474 . S
C456 C451 1.342 . S
C456 C454 1.285 . S
C456 H475 0.930 . S
C457 C460 1.424 . S
C457 C462 1.245 . S
C457 C463 1.428 . S
C458 C461 1.260 . S
C458 C462 1.477 . S
C458 H476 0.932 . S
C459 C460 1.384 . S
C459 C461 1.479 . S
C459 H477 0.929 . S
C460 C457 1.424 . S
C460 C459 1.384 . S
C460 H478 0.928 . S
C461 C458 1.260 . S
C461 C459 1.479 . S
C462 C457 1.245 . S
C462 C458 1.477 . S
C462 H479 0.932 . S
C463 U446 2.882 . S
C463 C457 1.428 . S
C463 O466 1.301 . S
C463 O467 1.282 . S
O464 U446 2.441 . S
O464 C450 1.249 . S
O465 U446 2.420 . S
O465 C450 1.202 . S
O466 U446 2.455 . S
O466 C463 1.301 . S
O467 U446 2.449 . S
O467 C463 1.282 . S
H468 C441 0.931 . S
H469 C443 0.929 . S
H470 C444 0.930 . S
H471 C445 0.931 . S
H472 C452 0.932 . S
H473 C453 0.930 . S
H474 C454 0.929 . S
H475 C456 0.930 . S
H476 C458 0.932 . S
H477 C459 0.929 . S
H478 C460 0.928 . S
H479 C462 0.932 . S
C480 C481 1.264 . S
C480 C485 1.479 . S
C480 C490 1.465 . S
C481 C480 1.264 . S
C481 C483 1.339 . S
C481 H508 0.931 . S
C482 C483 1.395 . S
C482 C484 1.320 . S
C483 C481 1.339 . S
C483 C482 1.395 . S
C483 H509 0.929 . S
C484 C482 1.320 . S
C484 C485 1.405 . S
C484 H510 0.930 . S
C485 C480 1.479 . S
C485 C484 1.405 . S
C485 H511 0.931 . S
U486 O487 2.454 . S
U486 O488 2.458 . S
U486 C489 2.984 . S
U486 C490 2.847 . S
U486 C503 2.882 . S
U486 O504 2.441 . S
U486 O505 2.420 . S
U486 O506 2.455 . S
U486 O507 2.449 . S
O487 U486 2.454 . S
O487 C489 1.353 . S
O488 U486 2.458 . S
O488 C489 1.286 . S
C489 U486 2.984 . S
C489 O487 1.353 . S
C489 O488 1.286 . S
C489 C491 1.363 . S
C490 C480 1.465 . S
C490 U486 2.847 . S
C490 O504 1.249 . S
C490 O505 1.202 . S
C491 C489 1.363 . S
C491 C493 1.408 . S
C491 C496 1.342 . S
C492 C493 1.310 . S
C492 C495 1.461 . S
C492 H512 0.932 . S
C493 C491 1.408 . S
C493 C492 1.310 . S
C493 H513 0.930 . S
C494 C495 1.474 . S
C494 C496 1.285 . S
C494 H514 0.929 . S
C495 C492 1.461 . S
C495 C494 1.474 . S
C496 C491 1.342 . S
C496 C494 1.285 . S
C496 H515 0.930 . S
C497 C500 1.424 . S
C497 C502 1.245 . S
C497 C503 1.428 . S
C498 C501 1.260 . S
C498 C502 1.477 . S
C498 H516 0.932 . S
C499 C500 1.384 . S
C499 C501 1.479 . S
C499 H517 0.929 . S
C500 C497 1.424 . S
C500 C499 1.384 . S
C500 H518 0.928 . S
C501 C498 1.260 . S
C501 C499 1.479 . S
C502 C497 1.245 . S
C502 C498 1.477 . S
C502 H519 0.932 . S
C503 U486 2.882 . S
C503 C497 1.428 . S
C503 O506 1.301 . S
C503 O507 1.282 . S
O504 U486 2.441 . S
O504 C490 1.249 . S
O505 U486 2.420 . S
O505 C490 1.202 . S
O506 U486 2.455 . S
O506 C503 1.301 . S
O507 U486 2.449 . S
O507 C503 1.282 . S
H508 C481 0.931 . S
H509 C483 0.929 . S
H510 C484 0.930 . S
H511 C485 0.931 . S
H512 C492 0.932 . S
H513 C493 0.930 . S
H514 C494 0.929 . S
H515 C496 0.930 . S
H516 C498 0.932 . S
H517 C499 0.929 . S
H518 C500 0.928 . S
H519 C502 0.932 . S
C520 C521 1.264 . S
C520 C525 1.479 . S
C520 C530 1.465 . S
C521 C520 1.264 . S
C521 C523 1.339 . S
C521 H548 0.931 . S
C522 C523 1.395 . S
C522 C524 1.320 . S
C523 C521 1.339 . S
C523 C522 1.395 . S
C523 H549 0.929 . S
C524 C522 1.320 . S
C524 C525 1.405 . S
C524 H550 0.930 . S
C525 C520 1.479 . S
C525 C524 1.405 . S
C525 H551 0.931 . S
U526 O527 2.454 . S
U526 O528 2.458 . S
U526 C529 2.984 . S
U526 C530 2.847 . S
U526 C543 2.882 . S
U526 O544 2.441 . S
U526 O545 2.420 . S
U526 O546 2.455 . S
U526 O547 2.449 . S
O527 U526 2.454 . S
O527 C529 1.353 . S
O528 U526 2.458 . S
O528 C529 1.286 . S
C529 U526 2.984 . S
C529 O527 1.353 . S
C529 O528 1.286 . S
C529 C531 1.363 . S
C530 C520 1.465 . S
C530 U526 2.847 . S
C530 O544 1.249 . S
C530 O545 1.202 . S
C531 C529 1.363 . S
C531 C533 1.408 . S
C531 C536 1.342 . S
C532 C533 1.310 . S
C532 C535 1.461 . S
C532 H552 0.932 . S
C533 C531 1.408 . S
C533 C532 1.310 . S
C533 H553 0.930 . S
C534 C535 1.474 . S
C534 C536 1.285 . S
C534 H554 0.929 . S
C535 C532 1.461 . S
C535 C534 1.474 . S
C536 C531 1.342 . S
C536 C534 1.285 . S
C536 H555 0.930 . S
C537 C540 1.424 . S
C537 C542 1.245 . S
C537 C543 1.428 . S
C538 C541 1.260 . S
C538 C542 1.477 . S
C538 H556 0.932 . S
C539 C540 1.384 . S
C539 C541 1.479 . S
C539 H557 0.929 . S
C540 C537 1.424 . S
C540 C539 1.384 . S
C540 H558 0.928 . S
C541 C538 1.260 . S
C541 C539 1.479 . S
C542 C537 1.245 . S
C542 C538 1.477 . S
C542 H559 0.932 . S
C543 U526 2.882 . S
C543 C537 1.428 . S
C543 O546 1.301 . S
C543 O547 1.282 . S
O544 U526 2.441 . S
O544 C530 1.249 . S
O545 U526 2.420 . S
O545 C530 1.202 . S
O546 U526 2.455 . S
O546 C543 1.301 . S
O547 U526 2.449 . S
O547 C543 1.282 . S
H548 C521 0.931 . S
H549 C523 0.929 . S
H550 C524 0.930 . S
H551 C525 0.931 . S
H552 C532 0.932 . S
H553 C533 0.930 . S
H554 C534 0.929 . S
H555 C536 0.930 . S
H556 C538 0.932 . S
H557 C539 0.929 . S
H558 C540 0.928 . S
H559 C542 0.932 . S
C560 C561 1.264 . S
C560 C565 1.479 . S
C560 C570 1.465 . S
C561 C560 1.264 . S
C561 C563 1.339 . S
C561 H588 0.931 . S
C562 C563 1.395 . S
C562 C564 1.320 . S
C563 C561 1.339 . S
C563 C562 1.395 . S
C563 H589 0.929 . S
C564 C562 1.320 . S
C564 C565 1.405 . S
C564 H590 0.930 . S
C565 C560 1.479 . S
C565 C564 1.405 . S
C565 H591 0.931 . S
U566 O567 2.454 . S
U566 O568 2.458 . S
U566 C569 2.984 . S
U566 C570 2.847 . S
U566 C583 2.882 . S
U566 O584 2.441 . S
U566 O585 2.420 . S
U566 O586 2.455 . S
U566 O587 2.449 . S
O567 U566 2.454 . S
O567 C569 1.353 . S
O568 U566 2.458 . S
O568 C569 1.286 . S
C569 U566 2.984 . S
C569 O567 1.353 . S
C569 O568 1.286 . S
C569 C571 1.363 . S
C570 C560 1.465 . S
C570 U566 2.847 . S
C570 O584 1.249 . S
C570 O585 1.202 . S
C571 C569 1.363 . S
C571 C573 1.408 . S
C571 C576 1.342 . S
C572 C573 1.310 . S
C572 C575 1.461 . S
C572 H592 0.932 . S
C573 C571 1.408 . S
C573 C572 1.310 . S
C573 H593 0.930 . S
C574 C575 1.474 . S
C574 C576 1.285 . S
C574 H594 0.929 . S
C575 C572 1.461 . S
C575 C574 1.474 . S
C576 C571 1.342 . S
C576 C574 1.285 . S
C576 H595 0.930 . S
C577 C580 1.424 . S
C577 C582 1.245 . S
C577 C583 1.428 . S
C578 C581 1.260 . S
C578 C582 1.477 . S
C578 H596 0.932 . S
C579 C580 1.384 . S
C579 C581 1.479 . S
C579 H597 0.929 . S
C580 C577 1.424 . S
C580 C579 1.384 . S
C580 H598 0.928 . S
C581 C578 1.260 . S
C581 C579 1.479 . S
C582 C577 1.245 . S
C582 C578 1.477 . S
C582 H599 0.932 . S
C583 U566 2.882 . S
C583 C577 1.428 . S
C583 O586 1.301 . S
C583 O587 1.282 . S
O584 U566 2.441 . S
O584 C570 1.249 . S
O585 U566 2.420 . S
O585 C570 1.202 . S
O586 U566 2.455 . S
O586 C583 1.301 . S
O587 U566 2.449 . S
O587 C583 1.282 . S
H588 C561 0.931 . S
H589 C563 0.929 . S
H590 C564 0.930 . S
H591 C565 0.931 . S
H592 C572 0.932 . S
H593 C573 0.930 . S
H594 C574 0.929 . S
H595 C576 0.930 . S
H596 C578 0.932 . S
H597 C579 0.929 . S
H598 C580 0.928 . S
H599 C582 0.932 . S
C600 C601 1.264 . S
C600 C605 1.479 . S
C600 C610 1.465 . S
C601 C600 1.264 . S
C601 C603 1.339 . S
C601 H628 0.931 . S
C602 C603 1.395 . S
C602 C604 1.320 . S
C603 C601 1.339 . S
C603 C602 1.395 . S
C603 H629 0.929 . S
C604 C602 1.320 . S
C604 C605 1.405 . S
C604 H630 0.930 . S
C605 C600 1.479 . S
C605 C604 1.405 . S
C605 H631 0.931 . S
U606 O607 2.454 . S
U606 O608 2.458 . S
U606 C609 2.984 . S
U606 C610 2.847 . S
U606 C623 2.882 . S
U606 O624 2.441 . S
U606 O625 2.420 . S
U606 O626 2.455 . S
U606 O627 2.449 . S
O607 U606 2.454 . S
O607 C609 1.353 . S
O608 U606 2.458 . S
O608 C609 1.286 . S
C609 U606 2.984 . S
C609 O607 1.353 . S
C609 O608 1.286 . S
C609 C611 1.363 . S
C610 C600 1.465 . S
C610 U606 2.847 . S
C610 O624 1.249 . S
C610 O625 1.202 . S
C611 C609 1.363 . S
C611 C613 1.408 . S
C611 C616 1.342 . S
C612 C613 1.310 . S
C612 C615 1.461 . S
C612 H632 0.932 . S
C613 C611 1.408 . S
C613 C612 1.310 . S
C613 H633 0.930 . S
C614 C615 1.474 . S
C614 C616 1.285 . S
C614 H634 0.929 . S
C615 C612 1.461 . S
C615 C614 1.474 . S
C616 C611 1.342 . S
C616 C614 1.285 . S
C616 H635 0.930 . S
C617 C620 1.424 . S
C617 C622 1.245 . S
C617 C623 1.428 . S
C618 C621 1.260 . S
C618 C622 1.477 . S
C618 H636 0.932 . S
C619 C620 1.384 . S
C619 C621 1.479 . S
C619 H637 0.929 . S
C620 C617 1.424 . S
C620 C619 1.384 . S
C620 H638 0.928 . S
C621 C618 1.260 . S
C621 C619 1.479 . S
C622 C617 1.245 . S
C622 C618 1.477 . S
C622 H639 0.932 . S
C623 U606 2.882 . S
C623 C617 1.428 . S
C623 O626 1.301 . S
C623 O627 1.282 . S
O624 U606 2.441 . S
O624 C610 1.249 . S
O625 U606 2.420 . S
O625 C610 1.202 . S
O626 U606 2.455 . S
O626 C623 1.301 . S
O627 U606 2.449 . S
O627 C623 1.282 . S
H628 C601 0.931 . S
H629 C603 0.929 . S
H630 C604 0.930 . S
H631 C605 0.931 . S
H632 C612 0.932 . S
H633 C613 0.930 . S
H634 C614 0.929 . S
H635 C616 0.930 . S
H636 C618 0.932 . S
H637 C619 0.929 . S
H638 C620 0.928 . S
H639 C622 0.932 . S
C640 C641 1.264 . S
C640 C645 1.479 . S
C640 C650 1.465 . S
C641 C640 1.264 . S
C641 C643 1.339 . S
C641 H668 0.931 . S
C642 C643 1.395 . S
C642 C644 1.320 . S
C643 C641 1.339 . S
C643 C642 1.395 . S
C643 H669 0.929 . S
C644 C642 1.320 . S
C644 C645 1.405 . S
C644 H670 0.930 . S
C645 C640 1.479 . S
C645 C644 1.405 . S
C645 H671 0.931 . S
U646 O647 2.454 . S
U646 O648 2.458 . S
U646 C649 2.984 . S
U646 C650 2.847 . S
U646 C663 2.882 . S
U646 O664 2.441 . S
U646 O665 2.420 . S
U646 O666 2.455 . S
U646 O667 2.449 . S
O647 U646 2.454 . S
O647 C649 1.353 . S
O648 U646 2.458 . S
O648 C649 1.286 . S
C649 U646 2.984 . S
C649 O647 1.353 . S
C649 O648 1.286 . S
C649 C651 1.363 . S
C650 C640 1.465 . S
C650 U646 2.847 . S
C650 O664 1.249 . S
C650 O665 1.202 . S
C651 C649 1.363 . S
C651 C653 1.408 . S
C651 C656 1.342 . S
C652 C653 1.310 . S
C652 C655 1.461 . S
C652 H672 0.932 . S
C653 C651 1.408 . S
C653 C652 1.310 . S
C653 H673 0.930 . S
C654 C655 1.474 . S
C654 C656 1.285 . S
C654 H674 0.929 . S
C655 C652 1.461 . S
C655 C654 1.474 . S
C656 C651 1.342 . S
C656 C654 1.285 . S
C656 H675 0.930 . S
C657 C660 1.424 . S
C657 C662 1.245 . S
C657 C663 1.428 . S
C658 C661 1.260 . S
C658 C662 1.477 . S
C658 H676 0.932 . S
C659 C660 1.384 . S
C659 C661 1.479 . S
C659 H677 0.929 . S
C660 C657 1.424 . S
C660 C659 1.384 . S
C660 H678 0.928 . S
C661 C658 1.260 . S
C661 C659 1.479 . S
C662 C657 1.245 . S
C662 C658 1.477 . S
C662 H679 0.932 . S
C663 U646 2.882 . S
C663 C657 1.428 . S
C663 O666 1.301 . S
C663 O667 1.282 . S
O664 U646 2.441 . S
O664 C650 1.249 . S
O665 U646 2.420 . S
O665 C650 1.202 . S
O666 U646 2.455 . S
O666 C663 1.301 . S
O667 U646 2.449 . S
O667 C663 1.282 . S
H668 C641 0.931 . S
H669 C643 0.929 . S
H670 C644 0.930 . S
H671 C645 0.931 . S
H672 C652 0.932 . S
H673 C653 0.930 . S
H674 C654 0.929 . S
H675 C656 0.930 . S
H676 C658 0.932 . S
H677 C659 0.929 . S
H678 C660 0.928 . S
H679 C662 0.932 . S
C680 C681 1.264 . S
C680 C685 1.479 . S
C680 C690 1.465 . S
C681 C680 1.264 . S
C681 C683 1.339 . S
C681 H708 0.931 . S
C682 C683 1.395 . S
C682 C684 1.320 . S
C683 C681 1.339 . S
C683 C682 1.395 . S
C683 H709 0.929 . S
C684 C682 1.320 . S
C684 C685 1.405 . S
C684 H710 0.930 . S
C685 C680 1.479 . S
C685 C684 1.405 . S
C685 H711 0.931 . S
U686 O687 2.454 . S
U686 O688 2.458 . S
U686 C689 2.984 . S
U686 C690 2.847 . S
U686 C703 2.882 . S
U686 O704 2.441 . S
U686 O705 2.420 . S
U686 O706 2.455 . S
U686 O707 2.449 . S
O687 U686 2.454 . S
O687 C689 1.353 . S
O688 U686 2.458 . S
O688 C689 1.286 . S
C689 U686 2.984 . S
C689 O687 1.353 . S
C689 O688 1.286 . S
C689 C691 1.363 . S
C690 C680 1.465 . S
C690 U686 2.847 . S
C690 O704 1.249 . S
C690 O705 1.202 . S
C691 C689 1.363 . S
C691 C693 1.408 . S
C691 C696 1.342 . S
C692 C693 1.310 . S
C692 C695 1.461 . S
C692 H712 0.932 . S
C693 C691 1.408 . S
C693 C692 1.310 . S
C693 H713 0.930 . S
C694 C695 1.474 . S
C694 C696 1.285 . S
C694 H714 0.929 . S
C695 C692 1.461 . S
C695 C694 1.474 . S
C696 C691 1.342 . S
C696 C694 1.285 . S
C696 H715 0.930 . S
C697 C700 1.424 . S
C697 C702 1.245 . S
C697 C703 1.428 . S
C698 C701 1.260 . S
C698 C702 1.477 . S
C698 H716 0.932 . S
C699 C700 1.384 . S
C699 C701 1.479 . S
C699 H717 0.929 . S
C700 C697 1.424 . S
C700 C699 1.384 . S
C700 H718 0.928 . S
C701 C698 1.260 . S
C701 C699 1.479 . S
C702 C697 1.245 . S
C702 C698 1.477 . S
C702 H719 0.932 . S
C703 U686 2.882 . S
C703 C697 1.428 . S
C703 O706 1.301 . S
C703 O707 1.282 . S
O704 U686 2.441 . S
O704 C690 1.249 . S
O705 U686 2.420 . S
O705 C690 1.202 . S
O706 U686 2.455 . S
O706 C703 1.301 . S
O707 U686 2.449 . S
O707 C703 1.282 . S
H708 C681 0.931 . S
H709 C683 0.929 . S
H710 C684 0.930 . S
H711 C685 0.931 . S
H712 C692 0.932 . S
H713 C693 0.930 . S
H714 C694 0.929 . S
H715 C696 0.930 . S
H716 C698 0.932 . S
H717 C699 0.929 . S
H718 C700 0.928 . S
H719 C702 0.932 . S
C720 C721 1.264 . S
C720 C725 1.479 . S
C720 C730 1.465 . S
C721 C720 1.264 . S
C721 C723 1.339 . S
C721 H748 0.931 . S
C722 C723 1.395 . S
C722 C724 1.320 . S
C723 C721 1.339 . S
C723 C722 1.395 . S
C723 H749 0.929 . S
C724 C722 1.320 . S
C724 C725 1.405 . S
C724 H750 0.930 . S
C725 C720 1.479 . S
C725 C724 1.405 . S
C725 H751 0.931 . S
U726 O727 2.454 . S
U726 O728 2.458 . S
U726 C729 2.984 . S
U726 C730 2.847 . S
U726 C743 2.882 . S
U726 O744 2.441 . S
U726 O745 2.420 . S
U726 O746 2.455 . S
U726 O747 2.449 . S
O727 U726 2.454 . S
O727 C729 1.353 . S
O728 U726 2.458 . S
O728 C729 1.286 . S
C729 U726 2.984 . S
C729 O727 1.353 . S
C729 O728 1.286 . S
C729 C731 1.363 . S
C730 C720 1.465 . S
C730 U726 2.847 . S
C730 O744 1.249 . S
C730 O745 1.202 . S
C731 C729 1.363 . S
C731 C733 1.408 . S
C731 C736 1.342 . S
C732 C733 1.310 . S
C732 C735 1.461 . S
C732 H752 0.932 . S
C733 C731 1.408 . S
C733 C732 1.310 . S
C733 H753 0.930 . S
C734 C735 1.474 . S
C734 C736 1.285 . S
C734 H754 0.929 . S
C735 C732 1.461 . S
C735 C734 1.474 . S
C736 C731 1.342 . S
C736 C734 1.285 . S
C736 H755 0.930 . S
C737 C740 1.424 . S
C737 C742 1.245 . S
C737 C743 1.428 . S
C738 C741 1.260 . S
C738 C742 1.477 . S
C738 H756 0.932 . S
C739 C740 1.384 . S
C739 C741 1.479 . S
C739 H757 0.929 . S
C740 C737 1.424 . S
C740 C739 1.384 . S
C740 H758 0.928 . S
C741 C738 1.260 . S
C741 C739 1.479 . S
C742 C737 1.245 . S
C742 C738 1.477 . S
C742 H759 0.932 . S
C743 U726 2.882 . S
C743 C737 1.428 . S
C743 O746 1.301 . S
C743 O747 1.282 . S
O744 U726 2.441 . S
O744 C730 1.249 . S
O745 U726 2.420 . S
O745 C730 1.202 . S
O746 U726 2.455 . S
O746 C743 1.301 . S
O747 U726 2.449 . S
O747 C743 1.282 . S
H748 C721 0.931 . S
H749 C723 0.929 . S
H750 C724 0.930 . S
H751 C725 0.931 . S
H752 C732 0.932 . S
H753 C733 0.930 . S
H754 C734 0.929 . S
H755 C736 0.930 . S
H756 C738 0.932 . S
H757 C739 0.929 . S
H758 C740 0.928 . S
H759 C742 0.932 . S
C760 C761 1.264 . S
C760 C765 1.479 . S
C760 C770 1.465 . S
C761 C760 1.264 . S
C761 C763 1.339 . S
C761 H788 0.931 . S
C762 C763 1.395 . S
C762 C764 1.320 . S
C763 C761 1.339 . S
C763 C762 1.395 . S
C763 H789 0.929 . S
C764 C762 1.320 . S
C764 C765 1.405 . S
C764 H790 0.930 . S
C765 C760 1.479 . S
C765 C764 1.405 . S
C765 H791 0.931 . S
U766 O767 2.454 . S
U766 O768 2.458 . S
U766 C769 2.984 . S
U766 C770 2.847 . S
U766 C783 2.882 . S
U766 O784 2.441 . S
U766 O785 2.420 . S
U766 O786 2.455 . S
U766 O787 2.449 . S
O767 U766 2.454 . S
O767 C769 1.353 . S
O768 U766 2.458 . S
O768 C769 1.286 . S
C769 U766 2.984 . S
C769 O767 1.353 . S
C769 O768 1.286 . S
C769 C771 1.363 . S
C770 C760 1.465 . S
C770 U766 2.847 . S
C770 O784 1.249 . S
C770 O785 1.202 . S
C771 C769 1.363 . S
C771 C773 1.408 . S
C771 C776 1.342 . S
C772 C773 1.310 . S
C772 C775 1.461 . S
C772 H792 0.932 . S
C773 C771 1.408 . S
C773 C772 1.310 . S
C773 H793 0.930 . S
C774 C775 1.474 . S
C774 C776 1.285 . S
C774 H794 0.929 . S
C775 C772 1.461 . S
C775 C774 1.474 . S
C776 C771 1.342 . S
C776 C774 1.285 . S
C776 H795 0.930 . S
C777 C780 1.424 . S
C777 C782 1.245 . S
C777 C783 1.428 . S
C778 C781 1.260 . S
C778 C782 1.477 . S
C778 H796 0.932 . S
C779 C780 1.384 . S
C779 C781 1.479 . S
C779 H797 0.929 . S
C780 C777 1.424 . S
C780 C779 1.384 . S
C780 H798 0.928 . S
C781 C778 1.260 . S
C781 C779 1.479 . S
C782 C777 1.245 . S
C782 C778 1.477 . S
C782 H799 0.932 . S
C783 U766 2.882 . S
C783 C777 1.428 . S
C783 O786 1.301 . S
C783 O787 1.282 . S
O784 U766 2.441 . S
O784 C770 1.249 . S
O785 U766 2.420 . S
O785 C770 1.202 . S
O786 U766 2.455 . S
O786 C783 1.301 . S
O787 U766 2.449 . S
O787 C783 1.282 . S
H788 C761 0.931 . S
H789 C763 0.929 . S
H790 C764 0.930 . S
H791 C765 0.931 . S
H792 C772 0.932 . S
H793 C773 0.930 . S
H794 C774 0.929 . S
H795 C776 0.930 . S
H796 C778 0.932 . S
H797 C779 0.929 . S
H798 C780 0.928 . S
H799 C782 0.932 . S
C800 C801 1.264 . S
C800 C805 1.479 . S
C800 C810 1.465 . S
C801 C800 1.264 . S
C801 C803 1.339 . S
C801 H828 0.931 . S
C802 C803 1.395 . S
C802 C804 1.320 . S
C803 C801 1.339 . S
C803 C802 1.395 . S
C803 H829 0.929 . S
C804 C802 1.320 . S
C804 C805 1.405 . S
C804 H830 0.930 . S
C805 C800 1.479 . S
C805 C804 1.405 . S
C805 H831 0.931 . S
U806 O807 2.454 . S
U806 O808 2.458 . S
U806 C809 2.984 . S
U806 C810 2.847 . S
U806 C823 2.882 . S
U806 O824 2.441 . S
U806 O825 2.420 . S
U806 O826 2.455 . S
U806 O827 2.449 . S
O807 U806 2.454 . S
O807 C809 1.353 . S
O808 U806 2.458 . S
O808 C809 1.286 . S
C809 U806 2.984 . S
C809 O807 1.353 . S
C809 O808 1.286 . S
C809 C811 1.363 . S
C810 C800 1.465 . S
C810 U806 2.847 . S
C810 O824 1.249 . S
C810 O825 1.202 . S
C811 C809 1.363 . S
C811 C813 1.408 . S
C811 C816 1.342 . S
C812 C813 1.310 . S
C812 C815 1.461 . S
C812 H832 0.932 . S
C813 C811 1.408 . S
C813 C812 1.310 . S
C813 H833 0.930 . S
C814 C815 1.474 . S
C814 C816 1.285 . S
C814 H834 0.929 . S
C815 C812 1.461 . S
C815 C814 1.474 . S
C816 C811 1.342 . S
C816 C814 1.285 . S
C816 H835 0.930 . S
C817 C820 1.424 . S
C817 C822 1.245 . S
C817 C823 1.428 . S
C818 C821 1.260 . S
C818 C822 1.477 . S
C818 H836 0.932 . S
C819 C820 1.384 . S
C819 C821 1.479 . S
C819 H837 0.929 . S
C820 C817 1.424 . S
C820 C819 1.384 . S
C820 H838 0.928 . S
C821 C818 1.260 . S
C821 C819 1.479 . S
C822 C817 1.245 . S
C822 C818 1.477 . S
C822 H839 0.932 . S
C823 U806 2.882 . S
C823 C817 1.428 . S
C823 O826 1.301 . S
C823 O827 1.282 . S
O824 U806 2.441 . S
O824 C810 1.249 . S
O825 U806 2.420 . S
O825 C810 1.202 . S
O826 U806 2.455 . S
O826 C823 1.301 . S
O827 U806 2.449 . S
O827 C823 1.282 . S
H828 C801 0.931 . S
H829 C803 0.929 . S
H830 C804 0.930 . S
H831 C805 0.931 . S
H832 C812 0.932 . S
H833 C813 0.930 . S
H834 C814 0.929 . S
H835 C816 0.930 . S
H836 C818 0.932 . S
H837 C819 0.929 . S
H838 C820 0.928 . S
H839 C822 0.932 . S
C840 C841 1.264 . S
C840 C845 1.479 . S
C840 C850 1.465 . S
C841 C840 1.264 . S
C841 C843 1.339 . S
C841 H868 0.931 . S
C842 C843 1.395 . S
C842 C844 1.320 . S
C843 C841 1.339 . S
C843 C842 1.395 . S
C843 H869 0.929 . S
C844 C842 1.320 . S
C844 C845 1.405 . S
C844 H870 0.930 . S
C845 C840 1.479 . S
C845 C844 1.405 . S
C845 H871 0.931 . S
U846 O847 2.454 . S
U846 O848 2.458 . S
U846 C849 2.984 . S
U846 C850 2.847 . S
U846 C863 2.882 . S
U846 O864 2.441 . S
U846 O865 2.420 . S
U846 O866 2.455 . S
U846 O867 2.449 . S
O847 U846 2.454 . S
O847 C849 1.353 . S
O848 U846 2.458 . S
O848 C849 1.286 . S
C849 U846 2.984 . S
C849 O847 1.353 . S
C849 O848 1.286 . S
C849 C851 1.363 . S
C850 C840 1.465 . S
C850 U846 2.847 . S
C850 O864 1.249 . S
C850 O865 1.202 . S
C851 C849 1.363 . S
C851 C853 1.408 . S
C851 C856 1.342 . S
C852 C853 1.310 . S
C852 C855 1.461 . S
C852 H872 0.932 . S
C853 C851 1.408 . S
C853 C852 1.310 . S
C853 H873 0.930 . S
C854 C855 1.474 . S
C854 C856 1.285 . S
C854 H874 0.929 . S
C855 C852 1.461 . S
C855 C854 1.474 . S
C856 C851 1.342 . S
C856 C854 1.285 . S
C856 H875 0.930 . S
C857 C860 1.424 . S
C857 C862 1.245 . S
C857 C863 1.428 . S
C858 C861 1.260 . S
C858 C862 1.477 . S
C858 H876 0.932 . S
C859 C860 1.384 . S
C859 C861 1.479 . S
C859 H877 0.929 . S
C860 C857 1.424 . S
C860 C859 1.384 . S
C860 H878 0.928 . S
C861 C858 1.260 . S
C861 C859 1.479 . S
C862 C857 1.245 . S
C862 C858 1.477 . S
C862 H879 0.932 . S
C863 U846 2.882 . S
C863 C857 1.428 . S
C863 O866 1.301 . S
C863 O867 1.282 . S
O864 U846 2.441 . S
O864 C850 1.249 . S
O865 U846 2.420 . S
O865 C850 1.202 . S
O866 U846 2.455 . S
O866 C863 1.301 . S
O867 U846 2.449 . S
O867 C863 1.282 . S
H868 C841 0.931 . S
H869 C843 0.929 . S
H870 C844 0.930 . S
H871 C845 0.931 . S
H872 C852 0.932 . S
H873 C853 0.930 . S
H874 C854 0.929 . S
H875 C856 0.930 . S
H876 C858 0.932 . S
H877 C859 0.929 . S
H878 C860 0.928 . S
H879 C862 0.932 . S
C880 C881 1.264 . S
C880 C885 1.479 . S
C880 C890 1.465 . S
C881 C880 1.264 . S
C881 C883 1.339 . S
C881 H908 0.931 . S
C882 C883 1.395 . S
C882 C884 1.320 . S
C883 C881 1.339 . S
C883 C882 1.395 . S
C883 H909 0.929 . S
C884 C882 1.320 . S
C884 C885 1.405 . S
C884 H910 0.930 . S
C885 C880 1.479 . S
C885 C884 1.405 . S
C885 H911 0.931 . S
U886 O887 2.454 . S
U886 O888 2.458 . S
U886 C889 2.984 . S
U886 C890 2.847 . S
U886 C903 2.882 . S
U886 O904 2.441 . S
U886 O905 2.420 . S
U886 O906 2.455 . S
U886 O907 2.449 . S
O887 U886 2.454 . S
O887 C889 1.353 . S
O888 U886 2.458 . S
O888 C889 1.286 . S
C889 U886 2.984 . S
C889 O887 1.353 . S
C889 O888 1.286 . S
C889 C891 1.363 . S
C890 C880 1.465 . S
C890 U886 2.847 . S
C890 O904 1.249 . S
C890 O905 1.202 . S
C891 C889 1.363 . S
C891 C893 1.408 . S
C891 C896 1.342 . S
C892 C893 1.310 . S
C892 C895 1.461 . S
C892 H912 0.932 . S
C893 C891 1.408 . S
C893 C892 1.310 . S
C893 H913 0.930 . S
C894 C895 1.474 . S
C894 C896 1.285 . S
C894 H914 0.929 . S
C895 C892 1.461 . S
C895 C894 1.474 . S
C896 C891 1.342 . S
C896 C894 1.285 . S
C896 H915 0.930 . S
C897 C900 1.424 . S
C897 C902 1.245 . S
C897 C903 1.428 . S
C898 C901 1.260 . S
C898 C902 1.477 . S
C898 H916 0.932 . S
C899 C900 1.384 . S
C899 C901 1.479 . S
C899 H917 0.929 . S
C900 C897 1.424 . S
C900 C899 1.384 . S
C900 H918 0.928 . S
C901 C898 1.260 . S
C901 C899 1.479 . S
C902 C897 1.245 . S
C902 C898 1.477 . S
C902 H919 0.932 . S
C903 U886 2.882 . S
C903 C897 1.428 . S
C903 O906 1.301 . S
C903 O907 1.282 . S
O904 U886 2.441 . S
O904 C890 1.249 . S
O905 U886 2.420 . S
O905 C890 1.202 . S
O906 U886 2.455 . S
O906 C903 1.301 . S
O907 U886 2.449 . S
O907 C903 1.282 . S
H908 C881 0.931 . S
H909 C883 0.929 . S
H910 C884 0.930 . S
H911 C885 0.931 . S
H912 C892 0.932 . S
H913 C893 0.930 . S
H914 C894 0.929 . S
H915 C896 0.930 . S
H916 C898 0.932 . S
H917 C899 0.929 . S
H918 C900 0.928 . S
H919 C902 0.932 . S
C920 C921 1.264 . S
C920 C925 1.479 . S
C920 C930 1.465 . S
C921 C920 1.264 . S
C921 C923 1.339 . S
C921 H948 0.931 . S
C922 C923 1.395 . S
C922 C924 1.320 . S
C923 C921 1.339 . S
C923 C922 1.395 . S
C923 H949 0.929 . S
C924 C922 1.320 . S
C924 C925 1.405 . S
C924 H950 0.930 . S
C925 C920 1.479 . S
C925 C924 1.405 . S
C925 H951 0.931 . S
U926 O927 2.454 . S
U926 O928 2.458 . S
U926 C929 2.984 . S
U926 C930 2.847 . S
U926 C943 2.882 . S
U926 O944 2.441 . S
U926 O945 2.420 . S
U926 O946 2.455 . S
U926 O947 2.449 . S
O927 U926 2.454 . S
O927 C929 1.353 . S
O928 U926 2.458 . S
O928 C929 1.286 . S
C929 U926 2.984 . S
C929 O927 1.353 . S
C929 O928 1.286 . S
C929 C931 1.363 . S
C930 C920 1.465 . S
C930 U926 2.847 . S
C930 O944 1.249 . S
C930 O945 1.202 . S
C931 C929 1.363 . S
C931 C933 1.408 . S
C931 C936 1.342 . S
C932 C933 1.310 . S
C932 C935 1.461 . S
C932 H952 0.932 . S
C933 C931 1.408 . S
C933 C932 1.310 . S
C933 H953 0.930 . S
C934 C935 1.474 . S
C934 C936 1.285 . S
C934 H954 0.929 . S
C935 C932 1.461 . S
C935 C934 1.474 . S
C936 C931 1.342 . S
C936 C934 1.285 . S
C936 H955 0.930 . S
C937 C940 1.424 . S
C937 C942 1.245 . S
C937 C943 1.428 . S
C938 C941 1.260 . S
C938 C942 1.477 . S
C938 H956 0.932 . S
C939 C940 1.384 . S
C939 C941 1.479 . S
C939 H957 0.929 . S
C940 C937 1.424 . S
C940 C939 1.384 . S
C940 H958 0.928 . S
C941 C938 1.260 . S
C941 C939 1.479 . S
C942 C937 1.245 . S
C942 C938 1.477 . S
C942 H959 0.932 . S
C943 U926 2.882 . S
C943 C937 1.428 . S
C943 O946 1.301 . S
C943 O947 1.282 . S
O944 U926 2.441 . S
O944 C930 1.249 . S
O945 U926 2.420 . S
O945 C930 1.202 . S
O946 U926 2.455 . S
O946 C943 1.301 . S
O947 U926 2.449 . S
O947 C943 1.282 . S
H948 C921 0.931 . S
H949 C923 0.929 . S
H950 C924 0.930 . S
H951 C925 0.931 . S
H952 C932 0.932 . S
H953 C933 0.930 . S
H954 C934 0.929 . S
H955 C936 0.930 . S
H956 C938 0.932 . S
H957 C939 0.929 . S
H958 C940 0.928 . S
H959 C942 0.932 . S
C960 C961 1.264 . S
C960 C965 1.479 . S
C960 C970 1.465 . S
C961 C960 1.264 . S
C961 C963 1.339 . S
C961 H988 0.931 . S
C962 C963 1.395 . S
C962 C964 1.320 . S
C963 C961 1.339 . S
C963 C962 1.395 . S
C963 H989 0.929 . S
C964 C962 1.320 . S
C964 C965 1.405 . S
C964 H990 0.930 . S
C965 C960 1.479 . S
C965 C964 1.405 . S
C965 H991 0.931 . S
U966 O967 2.454 . S
U966 O968 2.458 . S
U966 C969 2.984 . S
U966 C970 2.847 . S
U966 C983 2.882 . S
U966 O984 2.441 . S
U966 O985 2.420 . S
U966 O986 2.455 . S
U966 O987 2.449 . S
O967 U966 2.454 . S
O967 C969 1.353 . S
O968 U966 2.458 . S
O968 C969 1.286 . S
C969 U966 2.984 . S
C969 O967 1.353 . S
C969 O968 1.286 . S
C969 C971 1.363 . S
C970 C960 1.465 . S
C970 U966 2.847 . S
C970 O984 1.249 . S
C970 O985 1.202 . S
C971 C969 1.363 . S
C971 C973 1.408 . S
C971 C976 1.342 . S
C972 C973 1.310 . S
C972 C975 1.461 . S
C972 H992 0.932 . S
C973 C971 1.408 . S
C973 C972 1.310 . S
C973 H993 0.930 . S
C974 C975 1.474 . S
C974 C976 1.285 . S
C974 H994 0.929 . S
C975 C972 1.461 . S
C975 C974 1.474 . S
C976 C971 1.342 . S
C976 C974 1.285 . S
C976 H995 0.930 . S
C977 C980 1.424 . S
C977 C982 1.245 . S
C977 C983 1.428 . S
C978 C981 1.260 . S
C978 C982 1.477 . S
C978 H996 0.932 . S
C979 C980 1.384 . S
C979 C981 1.479 . S
C979 H997 0.929 . S
C980 C977 1.424 . S
C980 C979 1.384 . S
C980 H998 0.928 . S
C981 C978 1.260 . S
C981 C979 1.479 . S
C982 C977 1.245 . S
C982 C978 1.477 . S
C982 H999 0.932 . S
C983 U966 2.882 . S
C983 C977 1.428 . S
C983 O986 1.301 . S
C983 O987 1.282 . S
O984 U966 2.441 . S
O984 C970 1.249 . S
O985 U966 2.420 . S
O985 C970 1.202 . S
O986 U966 2.455 . S
O986 C983 1.301 . S
O987 U966 2.449 . S
O987 C983 1.282 . S
H988 C961 0.931 . S
H989 C963 0.929 . S
H990 C964 0.930 . S
H991 C965 0.931 . S
H992 C972 0.932 . S
H993 C973 0.930 . S
H994 C974 0.929 . S
H995 C976 0.930 . S
H996 C978 0.932 . S
H997 C979 0.929 . S
H998 C980 0.928 . S
H999 C982 0.932 . S
C1000 C1001 1.264 . S
C1000 C1005 1.479 . S
C1000 C1010 1.465 . S
C1001 C1000 1.264 . S
C1001 C1003 1.339 . S
C1001 H1028 0.931 . S
C1002 C1003 1.395 . S
C1002 C1004 1.320 . S
C1003 C1001 1.339 . S
C1003 C1002 1.395 . S
C1003 H1029 0.929 . S
C1004 C1002 1.320 . S
C1004 C1005 1.405 . S
C1004 H1030 0.930 . S
C1005 C1000 1.479 . S
C1005 C1004 1.405 . S
C1005 H1031 0.931 . S
U1006 O1007 2.454 . S
U1006 O1008 2.458 . S
U1006 C1009 2.984 . S
U1006 C1010 2.847 . S
U1006 C1023 2.882 . S
U1006 O1024 2.441 . S
U1006 O1025 2.420 . S
U1006 O1026 2.455 . S
U1006 O1027 2.449 . S
O1007 U1006 2.454 . S
O1007 C1009 1.353 . S
O1008 U1006 2.458 . S
O1008 C1009 1.286 . S
C1009 U1006 2.984 . S
C1009 O1007 1.353 . S
C1009 O1008 1.286 . S
C1009 C1011 1.363 . S
C1010 C1000 1.465 . S
C1010 U1006 2.847 . S
C1010 O1024 1.249 . S
C1010 O1025 1.202 . S
C1011 C1009 1.363 . S
C1011 C1013 1.408 . S
C1011 C1016 1.342 . S
C1012 C1013 1.310 . S
C1012 C1015 1.461 . S
C1012 H1032 0.932 . S
C1013 C1011 1.408 . S
C1013 C1012 1.310 . S
C1013 H1033 0.930 . S
C1014 C1015 1.474 . S
C1014 C1016 1.285 . S
C1014 H1034 0.929 . S
C1015 C1012 1.461 . S
C1015 C1014 1.474 . S
C1016 C1011 1.342 . S
C1016 C1014 1.285 . S
C1016 H1035 0.930 . S
C1017 C1020 1.424 . S
C1017 C1022 1.245 . S
C1017 C1023 1.428 . S
C1018 C1021 1.260 . S
C1018 C1022 1.477 . S
C1018 H1036 0.932 . S
C1019 C1020 1.384 . S
C1019 C1021 1.479 . S
C1019 H1037 0.929 . S
C1020 C1017 1.424 . S
C1020 C1019 1.384 . S
C1020 H1038 0.928 . S
C1021 C1018 1.260 . S
C1021 C1019 1.479 . S
C1022 C1017 1.245 . S
C1022 C1018 1.477 . S
C1022 H1039 0.932 . S
C1023 U1006 2.882 . S
C1023 C1017 1.428 . S
C1023 O1026 1.301 . S
C1023 O1027 1.282 . S
O1024 U1006 2.441 . S
O1024 C1010 1.249 . S
O1025 U1006 2.420 . S
O1025 C1010 1.202 . S
O1026 U1006 2.455 . S
O1026 C1023 1.301 . S
O1027 U1006 2.449 . S
O1027 C1023 1.282 . S
H1028 C1001 0.931 . S
H1029 C1003 0.929 . S
H1030 C1004 0.930 . S
H1031 C1005 0.931 . S
H1032 C1012 0.932 . S
H1033 C1013 0.930 . S
H1034 C1014 0.929 . S
H1035 C1016 0.930 . S
H1036 C1018 0.932 . S
H1037 C1019 0.929 . S
H1038 C1020 0.928 . S
H1039 C1022 0.932 . S
C1040 C1041 1.264 . S
C1040 C1045 1.479 . S
C1040 C1050 1.465 . S
C1041 C1040 1.264 . S
C1041 C1043 1.339 . S
C1041 H1068 0.931 . S
C1042 C1043 1.395 . S
C1042 C1044 1.320 . S
C1043 C1041 1.339 . S
C1043 C1042 1.395 . S
C1043 H1069 0.929 . S
C1044 C1042 1.320 . S
C1044 C1045 1.405 . S
C1044 H1070 0.930 . S
C1045 C1040 1.479 . S
C1045 C1044 1.405 . S
C1045 H1071 0.931 . S
U1046 O1047 2.454 . S
U1046 O1048 2.458 . S
U1046 C1049 2.984 . S
U1046 C1050 2.847 . S
U1046 C1063 2.882 . S
U1046 O1064 2.441 . S
U1046 O1065 2.420 . S
U1046 O1066 2.455 . S
U1046 O1067 2.449 . S
O1047 U1046 2.454 . S
O1047 C1049 1.353 . S
O1048 U1046 2.458 . S
O1048 C1049 1.286 . S
C1049 U1046 2.984 . S
C1049 O1047 1.353 . S
C1049 O1048 1.286 . S
C1049 C1051 1.363 . S
C1050 C1040 1.465 . S
C1050 U1046 2.847 . S
C1050 O1064 1.249 . S
C1050 O1065 1.202 . S
C1051 C1049 1.363 . S
C1051 C1053 1.408 . S
C1051 C1056 1.342 . S
C1052 C1053 1.310 . S
C1052 C1055 1.461 . S
C1052 H1072 0.932 . S
C1053 C1051 1.408 . S
C1053 C1052 1.310 . S
C1053 H1073 0.930 . S
C1054 C1055 1.474 . S
C1054 C1056 1.285 . S
C1054 H1074 0.929 . S
C1055 C1052 1.461 . S
C1055 C1054 1.474 . S
C1056 C1051 1.342 . S
C1056 C1054 1.285 . S
C1056 H1075 0.930 . S
C1057 C1060 1.424 . S
C1057 C1062 1.245 . S
C1057 C1063 1.428 . S
C1058 C1061 1.260 . S
C1058 C1062 1.477 . S
C1058 H1076 0.932 . S
C1059 C1060 1.384 . S
C1059 C1061 1.479 . S
C1059 H1077 0.929 . S
C1060 C1057 1.424 . S
C1060 C1059 1.384 . S
C1060 H1078 0.928 . S
C1061 C1058 1.260 . S
C1061 C1059 1.479 . S
C1062 C1057 1.245 . S
C1062 C1058 1.477 . S
C1062 H1079 0.932 . S
C1063 U1046 2.882 . S
C1063 C1057 1.428 . S
C1063 O1066 1.301 . S
C1063 O1067 1.282 . S
O1064 U1046 2.441 . S
O1064 C1050 1.249 . S
O1065 U1046 2.420 . S
O1065 C1050 1.202 . S
O1066 U1046 2.455 . S
O1066 C1063 1.301 . S
O1067 U1046 2.449 . S
O1067 C1063 1.282 . S
H1068 C1041 0.931 . S
H1069 C1043 0.929 . S
H1070 C1044 0.930 . S
H1071 C1045 0.931 . S
H1072 C1052 0.932 . S
H1073 C1053 0.930 . S
H1074 C1054 0.929 . S
H1075 C1056 0.930 . S
H1076 C1058 0.932 . S
H1077 C1059 0.929 . S
H1078 C1060 0.928 . S
H1079 C1062 0.932 . S
C1080 C1081 1.264 . S
C1080 C1085 1.479 . S
C1080 C1090 1.465 . S
C1081 C1080 1.264 . S
C1081 C1083 1.339 . S
C1081 H1108 0.931 . S
C1082 C1083 1.395 . S
C1082 C1084 1.320 . S
C1083 C1081 1.339 . S
C1083 C1082 1.395 . S
C1083 H1109 0.929 . S
C1084 C1082 1.320 . S
C1084 C1085 1.405 . S
C1084 H1110 0.930 . S
C1085 C1080 1.479 . S
C1085 C1084 1.405 . S
C1085 H1111 0.931 . S
U1086 O1087 2.454 . S
U1086 O1088 2.458 . S
U1086 C1089 2.984 . S
U1086 C1090 2.847 . S
U1086 C1103 2.882 . S
U1086 O1104 2.441 . S
U1086 O1105 2.420 . S
U1086 O1106 2.455 . S
U1086 O1107 2.449 . S
O1087 U1086 2.454 . S
O1087 C1089 1.353 . S
O1088 U1086 2.458 . S
O1088 C1089 1.286 . S
C1089 U1086 2.984 . S
C1089 O1087 1.353 . S
C1089 O1088 1.286 . S
C1089 C1091 1.363 . S
C1090 C1080 1.465 . S
C1090 U1086 2.847 . S
C1090 O1104 1.249 . S
C1090 O1105 1.202 . S
C1091 C1089 1.363 . S
C1091 C1093 1.408 . S
C1091 C1096 1.342 . S
C1092 C1093 1.310 . S
C1092 C1095 1.461 . S
C1092 H1112 0.932 . S
C1093 C1091 1.408 . S
C1093 C1092 1.310 . S
C1093 H1113 0.930 . S
C1094 C1095 1.474 . S
C1094 C1096 1.285 . S
C1094 H1114 0.929 . S
C1095 C1092 1.461 . S
C1095 C1094 1.474 . S
C1096 C1091 1.342 . S
C1096 C1094 1.285 . S
C1096 H1115 0.930 . S
C1097 C1100 1.424 . S
C1097 C1102 1.245 . S
C1097 C1103 1.428 . S
C1098 C1101 1.260 . S
C1098 C1102 1.477 . S
C1098 H1116 0.932 . S
C1099 C1100 1.384 . S
C1099 C1101 1.479 . S
C1099 H1117 0.929 . S
C1100 C1097 1.424 . S
C1100 C1099 1.384 . S
C1100 H1118 0.928 . S
C1101 C1098 1.260 . S
C1101 C1099 1.479 . S
C1102 C1097 1.245 . S
C1102 C1098 1.477 . S
C1102 H1119 0.932 . S
C1103 U1086 2.882 . S
C1103 C1097 1.428 . S
C1103 O1106 1.301 . S
C1103 O1107 1.282 . S
O1104 U1086 2.441 . S
O1104 C1090 1.249 . S
O1105 U1086 2.420 . S
O1105 C1090 1.202 . S
O1106 U1086 2.455 . S
O1106 C1103 1.301 . S
O1107 U1086 2.449 . S
O1107 C1103 1.282 . S
H1108 C1081 0.931 . S
H1109 C1083 0.929 . S
H1110 C1084 0.930 . S
H1111 C1085 0.931 . S
H1112 C1092 0.932 . S
H1113 C1093 0.930 . S
H1114 C1094 0.929 . S
H1115 C1096 0.930 . S
H1116 C1098 0.932 . S
H1117 C1099 0.929 . S
H1118 C1100 0.928 . S
H1119 C1102 0.932 . S
C1120 C1121 1.264 . S
C1120 C1125 1.479 . S
C1120 C1130 1.465 . S
C1121 C1120 1.264 . S
C1121 C1123 1.339 . S
C1121 H1148 0.931 . S
C1122 C1123 1.395 . S
C1122 C1124 1.320 . S
C1123 C1121 1.339 . S
C1123 C1122 1.395 . S
C1123 H1149 0.929 . S
C1124 C1122 1.320 . S
C1124 C1125 1.405 . S
C1124 H1150 0.930 . S
C1125 C1120 1.479 . S
C1125 C1124 1.405 . S
C1125 H1151 0.931 . S
U1126 O1127 2.454 . S
U1126 O1128 2.458 . S
U1126 C1129 2.984 . S
U1126 C1130 2.847 . S
U1126 C1143 2.882 . S
U1126 O1144 2.441 . S
U1126 O1145 2.420 . S
U1126 O1146 2.455 . S
U1126 O1147 2.449 . S
O1127 U1126 2.454 . S
O1127 C1129 1.353 . S
O1128 U1126 2.458 . S
O1128 C1129 1.286 . S
C1129 U1126 2.984 . S
C1129 O1127 1.353 . S
C1129 O1128 1.286 . S
C1129 C1131 1.363 . S
C1130 C1120 1.465 . S
C1130 U1126 2.847 . S
C1130 O1144 1.249 . S
C1130 O1145 1.202 . S
C1131 C1129 1.363 . S
C1131 C1133 1.408 . S
C1131 C1136 1.342 . S
C1132 C1133 1.310 . S
C1132 C1135 1.461 . S
C1132 H1152 0.932 . S
C1133 C1131 1.408 . S
C1133 C1132 1.310 . S
C1133 H1153 0.930 . S
C1134 C1135 1.474 . S
C1134 C1136 1.285 . S
C1134 H1154 0.929 . S
C1135 C1132 1.461 . S
C1135 C1134 1.474 . S
C1136 C1131 1.342 . S
C1136 C1134 1.285 . S
C1136 H1155 0.930 . S
C1137 C1140 1.424 . S
C1137 C1142 1.245 . S
C1137 C1143 1.428 . S
C1138 C1141 1.260 . S
C1138 C1142 1.477 . S
C1138 H1156 0.932 . S
C1139 C1140 1.384 . S
C1139 C1141 1.479 . S
C1139 H1157 0.929 . S
C1140 C1137 1.424 . S
C1140 C1139 1.384 . S
C1140 H1158 0.928 . S
C1141 C1138 1.260 . S
C1141 C1139 1.479 . S
C1142 C1137 1.245 . S
C1142 C1138 1.477 . S
C1142 H1159 0.932 . S
C1143 U1126 2.882 . S
C1143 C1137 1.428 . S
C1143 O1146 1.301 . S
C1143 O1147 1.282 . S
O1144 U1126 2.441 . S
O1144 C1130 1.249 . S
O1145 U1126 2.420 . S
O1145 C1130 1.202 . S
O1146 U1126 2.455 . S
O1146 C1143 1.301 . S
O1147 U1126 2.449 . S
O1147 C1143 1.282 . S
H1148 C1121 0.931 . S
H1149 C1123 0.929 . S
H1150 C1124 0.930 . S
H1151 C1125 0.931 . S
H1152 C1132 0.932 . S
H1153 C1133 0.930 . S
H1154 C1134 0.929 . S
H1155 C1136 0.930 . S
H1156 C1138 0.932 . S
H1157 C1139 0.929 . S
H1158 C1140 0.928 . S
H1159 C1142 0.932 . S
C1160 C1161 1.264 . S
C1160 C1165 1.479 . S
C1160 C1170 1.465 . S
C1161 C1160 1.264 . S
C1161 C1163 1.339 . S
C1161 H1188 0.931 . S
C1162 C1163 1.395 . S
C1162 C1164 1.320 . S
C1163 C1161 1.339 . S
C1163 C1162 1.395 . S
C1163 H1189 0.929 . S
C1164 C1162 1.320 . S
C1164 C1165 1.405 . S
C1164 H1190 0.930 . S
C1165 C1160 1.479 . S
C1165 C1164 1.405 . S
C1165 H1191 0.931 . S
U1166 O1167 2.454 . S
U1166 O1168 2.458 . S
U1166 C1169 2.984 . S
U1166 C1170 2.847 . S
U1166 C1183 2.882 . S
U1166 O1184 2.441 . S
U1166 O1185 2.420 . S
U1166 O1186 2.455 . S
U1166 O1187 2.449 . S
O1167 U1166 2.454 . S
O1167 C1169 1.353 . S
O1168 U1166 2.458 . S
O1168 C1169 1.286 . S
C1169 U1166 2.984 . S
C1169 O1167 1.353 . S
C1169 O1168 1.286 . S
C1169 C1171 1.363 . S
C1170 C1160 1.465 . S
C1170 U1166 2.847 . S
C1170 O1184 1.249 . S
C1170 O1185 1.202 . S
C1171 C1169 1.363 . S
C1171 C1173 1.408 . S
C1171 C1176 1.342 . S
C1172 C1173 1.310 . S
C1172 C1175 1.461 . S
C1172 H1192 0.932 . S
C1173 C1171 1.408 . S
C1173 C1172 1.310 . S
C1173 H1193 0.930 . S
C1174 C1175 1.474 . S
C1174 C1176 1.285 . S
C1174 H1194 0.929 . S
C1175 C1172 1.461 . S
C1175 C1174 1.474 . S
C1176 C1171 1.342 . S
C1176 C1174 1.285 . S
C1176 H1195 0.930 . S
C1177 C1180 1.424 . S
C1177 C1182 1.245 . S
C1177 C1183 1.428 . S
C1178 C1181 1.260 . S
C1178 C1182 1.477 . S
C1178 H1196 0.932 . S
C1179 C1180 1.384 . S
C1179 C1181 1.479 . S
C1179 H1197 0.929 . S
C1180 C1177 1.424 . S
C1180 C1179 1.384 . S
C1180 H1198 0.928 . S
C1181 C1178 1.260 . S
C1181 C1179 1.479 . S
C1182 C1177 1.245 . S
C1182 C1178 1.477 . S
C1182 H1199 0.932 . S
C1183 U1166 2.882 . S
C1183 C1177 1.428 . S
C1183 O1186 1.301 . S
C1183 O1187 1.282 . S
O1184 U1166 2.441 . S
O1184 C1170 1.249 . S
O1185 U1166 2.420 . S
O1185 C1170 1.202 . S
O1186 U1166 2.455 . S
O1186 C1183 1.301 . S
O1187 U1166 2.449 . S
O1187 C1183 1.282 . S
H1188 C1161 0.931 . S
H1189 C1163 0.929 . S
H1190 C1164 0.930 . S
H1191 C1165 0.931 . S
H1192 C1172 0.932 . S
H1193 C1173 0.930 . S
H1194 C1174 0.929 . S
H1195 C1176 0.930 . S
H1196 C1178 0.932 . S
H1197 C1179 0.929 . S
H1198 C1180 0.928 . S
H1199 C1182 0.932 . S
C1200 C1201 1.264 . S
C1200 C1205 1.479 . S
C1200 C1210 1.465 . S
C1201 C1200 1.264 . S
C1201 C1203 1.339 . S
C1201 H1228 0.931 . S
C1202 C1203 1.395 . S
C1202 C1204 1.320 . S
C1203 C1201 1.339 . S
C1203 C1202 1.395 . S
C1203 H1229 0.929 . S
C1204 C1202 1.320 . S
C1204 C1205 1.405 . S
C1204 H1230 0.930 . S
C1205 C1200 1.479 . S
C1205 C1204 1.405 . S
C1205 H1231 0.931 . S
U1206 O1207 2.454 . S
U1206 O1208 2.458 . S
U1206 C1209 2.984 . S
U1206 C1210 2.847 . S
U1206 C1223 2.882 . S
U1206 O1224 2.441 . S
U1206 O1225 2.420 . S
U1206 O1226 2.455 . S
U1206 O1227 2.449 . S
O1207 U1206 2.454 . S
O1207 C1209 1.353 . S
O1208 U1206 2.458 . S
O1208 C1209 1.286 . S
C1209 U1206 2.984 . S
C1209 O1207 1.353 . S
C1209 O1208 1.286 . S
C1209 C1211 1.363 . S
C1210 C1200 1.465 . S
C1210 U1206 2.847 . S
C1210 O1224 1.249 . S
C1210 O1225 1.202 . S
C1211 C1209 1.363 . S
C1211 C1213 1.408 . S
C1211 C1216 1.342 . S
C1212 C1213 1.310 . S
C1212 C1215 1.461 . S
C1212 H1232 0.932 . S
C1213 C1211 1.408 . S
C1213 C1212 1.310 . S
C1213 H1233 0.930 . S
C1214 C1215 1.474 . S
C1214 C1216 1.285 . S
C1214 H1234 0.929 . S
C1215 C1212 1.461 . S
C1215 C1214 1.474 . S
C1216 C1211 1.342 . S
C1216 C1214 1.285 . S
C1216 H1235 0.930 . S
C1217 C1220 1.424 . S
C1217 C1222 1.245 . S
C1217 C1223 1.428 . S
C1218 C1221 1.260 . S
C1218 C1222 1.477 . S
C1218 H1236 0.932 . S
C1219 C1220 1.384 . S
C1219 C1221 1.479 . S
C1219 H1237 0.929 . S
C1220 C1217 1.424 . S
C1220 C1219 1.384 . S
C1220 H1238 0.928 . S
C1221 C1218 1.260 . S
C1221 C1219 1.479 . S
C1222 C1217 1.245 . S
C1222 C1218 1.477 . S
C1222 H1239 0.932 . S
C1223 U1206 2.882 . S
C1223 C1217 1.428 . S
C1223 O1226 1.301 . S
C1223 O1227 1.282 . S
O1224 U1206 2.441 . S
O1224 C1210 1.249 . S
O1225 U1206 2.420 . S
O1225 C1210 1.202 . S
O1226 U1206 2.455 . S
O1226 C1223 1.301 . S
O1227 U1206 2.449 . S
O1227 C1223 1.282 . S
H1228 C1201 0.931 . S
H1229 C1203 0.929 . S
H1230 C1204 0.930 . S
H1231 C1205 0.931 . S
H1232 C1212 0.932 . S
H1233 C1213 0.930 . S
H1234 C1214 0.929 . S
H1235 C1216 0.930 . S
H1236 C1218 0.932 . S
H1237 C1219 0.929 . S
H1238 C1220 0.928 . S
H1239 C1222 0.932 . S
C1240 C1241 1.264 . S
C1240 C1245 1.479 . S
C1240 C1250 1.465 . S
C1241 C1240 1.264 . S
C1241 C1243 1.339 . S
C1241 H1268 0.931 . S
C1242 C1243 1.395 . S
C1242 C1244 1.320 . S
C1243 C1241 1.339 . S
C1243 C1242 1.395 . S
C1243 H1269 0.929 . S
C1244 C1242 1.320 . S
C1244 C1245 1.405 . S
C1244 H1270 0.930 . S
C1245 C1240 1.479 . S
C1245 C1244 1.405 . S
C1245 H1271 0.931 . S
U1246 O1247 2.454 . S
U1246 O1248 2.458 . S
U1246 C1249 2.984 . S
U1246 C1250 2.847 . S
U1246 C1263 2.882 . S
U1246 O1264 2.441 . S
U1246 O1265 2.420 . S
U1246 O1266 2.455 . S
U1246 O1267 2.449 . S
O1247 U1246 2.454 . S
O1247 C1249 1.353 . S
O1248 U1246 2.458 . S
O1248 C1249 1.286 . S
C1249 U1246 2.984 . S
C1249 O1247 1.353 . S
C1249 O1248 1.286 . S
C1249 C1251 1.363 . S
C1250 C1240 1.465 . S
C1250 U1246 2.847 . S
C1250 O1264 1.249 . S
C1250 O1265 1.202 . S
C1251 C1249 1.363 . S
C1251 C1253 1.408 . S
C1251 C1256 1.342 . S
C1252 C1253 1.310 . S
C1252 C1255 1.461 . S
C1252 H1272 0.932 . S
C1253 C1251 1.408 . S
C1253 C1252 1.310 . S
C1253 H1273 0.930 . S
C1254 C1255 1.474 . S
C1254 C1256 1.285 . S
C1254 H1274 0.929 . S
C1255 C1252 1.461 . S
C1255 C1254 1.474 . S
C1256 C1251 1.342 . S
C1256 C1254 1.285 . S
C1256 H1275 0.930 . S
C1257 C1260 1.424 . S
C1257 C1262 1.245 . S
C1257 C1263 1.428 . S
C1258 C1261 1.260 . S
C1258 C1262 1.477 . S
C1258 H1276 0.932 . S
C1259 C1260 1.384 . S
C1259 C1261 1.479 . S
C1259 H1277 0.929 . S
C1260 C1257 1.424 . S
C1260 C1259 1.384 . S
C1260 H1278 0.928 . S
C1261 C1258 1.260 . S
C1261 C1259 1.479 . S
C1262 C1257 1.245 . S
C1262 C1258 1.477 . S
C1262 H1279 0.932 . S
C1263 U1246 2.882 . S
C1263 C1257 1.428 . S
C1263 O1266 1.301 . S
C1263 O1267 1.282 . S
O1264 U1246 2.441 . S
O1264 C1250 1.249 . S
O1265 U1246 2.420 . S
O1265 C1250 1.202 . S
O1266 U1246 2.455 . S
O1266 C1263 1.301 . S
O1267 U1246 2.449 . S
O1267 C1263 1.282 . S
H1268 C1241 0.931 . S
H1269 C1243 0.929 . S
H1270 C1244 0.930 . S
H1271 C1245 0.931 . S
H1272 C1252 0.932 . S
H1273 C1253 0.930 . S
H1274 C1254 0.929 . S
H1275 C1256 0.930 . S
H1276 C1258 0.932 . S
H1277 C1259 0.929 . S
H1278 C1260 0.928 . S
H1279 C1262 0.932 . S
C1280 C1281 1.560 . S
C1280 H1341 0.959 . S
C1280 H1342 0.959 . S
C1280 H1343 0.960 . S
C1281 C1280 1.560 . S
C1281 O1336 1.426 . S
C1281 H1340 0.980 . S
C1282 C1283 1.407 . S
C1282 C1287 1.418 . S
C1282 O1336 1.334 . S
C1283 C1282 1.407 . S
C1283 C1284 1.360 . S
C1283 H1344 0.929 . S
C1284 C1283 1.360 . S
C1284 C1285 1.401 . S
C1284 C1288 1.527 . S
C1285 C1284 1.401 . S
C1285 C1286 1.405 . S
C1285 C1318 1.587 . S
C1286 C1285 1.405 . S
C1286 C1287 1.332 . S
C1286 C1289 1.496 . S
C1287 C1282 1.418 . S
C1287 C1286 1.332 . S
C1287 H1345 0.929 . S
C1288 C1284 1.527 . S
C1288 H1346 0.959 . S
C1288 H1347 0.961 . S
C1288 H1348 0.961 . S
C1289 C1286 1.496 . S
C1289 H1349 0.960 . S
C1289 H1350 0.960 . S
C1289 H1351 0.961 . S
C1290 C1291 1.517 . S
C1290 H1353 0.961 . S
C1290 H1354 0.960 . S
C1290 H1355 0.959 . S
C1291 C1290 1.517 . S
C1291 O1339 1.468 . S
C1291 H1352 0.980 . S
C1292 C1293 1.349 . S
C1292 C1297 1.367 . S
C1292 O1339 1.408 . S
C1293 C1292 1.349 . S
C1293 C1294 1.407 . S
C1293 H1356 0.930 . S
C1294 C1293 1.407 . S
C1294 C1295 1.449 . S
C1294 C1298 1.535 . S
C1295 C1294 1.449 . S
C1295 C1296 1.384 . S
C1295 C1320 1.553 . S
C1296 C1295 1.384 . S
C1296 C1297 1.364 . S
C1296 C1299 1.450 . S
C1297 C1292 1.367 . S
C1297 C1296 1.364 . S
C1297 H1357 0.931 . S
C1298 C1294 1.535 . S
C1298 H1358 0.959 . S
C1298 H1359 0.961 . S
C1298 H1360 0.959 . S
C1299 C1296 1.450 . S
C1299 H1361 0.960 . S
C1299 H1362 0.960 . S
C1299 H1363 0.960 . S
C1300 C1301 1.309 . S
C1300 C1305 1.304 . S
C1300 O1338 1.435 . S
C1301 C1300 1.309 . S
C1301 C1302 1.476 . S
C1301 H1365 0.930 . S
C1302 C1301 1.476 . S
C1302 C1303 1.400 . S
C1302 C1306 1.567 . S
C1303 C1302 1.400 . S
C1303 C1304 1.373 . S
C1303 C1325 1.432 . S
C1304 C1303 1.373 . S
C1304 C1305 1.339 . S
C1304 C1307 1.530 . S
C1305 C1300 1.304 . S
C1305 C1304 1.339 . S
C1305 H1366 0.930 . S
C1306 C1302 1.567 . S
C1306 H1367 0.961 . S
C1306 H1368 0.960 . S
C1306 H1369 0.958 . S
C1307 C1304 1.530 . S
C1307 H1370 0.961 . S
C1307 H1371 0.960 . S
C1307 H1372 0.960 . S
C1308 C1309 1.530 . S
C1308 H1374 0.961 . S
C1308 H1375 0.961 . S
C1308 H1376 0.959 . S
C1309 C1308 1.530 . S
C1309 O1337 1.412 . S
C1309 H1373 0.980 . S
C1310 C1311 1.288 . S
C1310 C1315 1.377 . S
C1310 O1337 1.393 . S
C1311 C1310 1.288 . S
C1311 C1312 1.369 . S
C1311 H1377 0.932 . S
C1312 C1311 1.369 . S
C1312 C1313 1.398 . S
C1312 C1316 1.527 . S
C1313 C1312 1.398 . S
C1313 C1314 1.380 . S
C1313 C1327 1.497 . S
C1314 C1313 1.380 . S
C1314 C1315 1.383 . S
C1314 C1317 1.603 . S
C1315 C1310 1.377 . S
C1315 C1314 1.383 . S
C1315 H1378 0.929 . S
C1316 C1312 1.527 . S
C1316 H1379 0.961 . S
C1316 H1380 0.959 . S
C1316 H1381 0.959 . S
C1317 C1314 1.603 . S
C1317 H1382 0.960 . S
C1317 H1383 0.962 . S
C1317 H1384 0.961 . S
C1318 C1285 1.587 . S
C1318 C1319 1.360 . S
C1318 C1331 1.412 . S
C1319 C1318 1.360 . S
C1319 C1320 1.365 1_554 S
C1319 H1385 0.929 . S
C1320 C1295 1.553 . S
C1320 C1319 1.365 1_556 S
C1320 C1321 1.404 . S
C1321 C1320 1.404 . S
C1321 C1322 1.395 . S
C1321 C1332 1.451 1_556 S
C1322 C1321 1.395 . S
C1322 C1323 1.322 . S
C1322 H1386 0.930 . S
C1323 C1322 1.322 . S
C1323 C1324 1.459 . S
C1323 H1387 0.929 . S
C1324 C1323 1.459 . S
C1324 C1325 1.445 . S
C1324 C1333 1.395 1_556 S
C1325 C1303 1.432 . S
C1325 C1324 1.445 . S
C1325 C1326 1.370 1_556 S
C1326 C1325 1.370 1_554 S
C1326 C1327 1.438 . S
C1326 H1388 0.930 . S
C1327 C1313 1.497 . S
C1327 C1326 1.438 . S
C1327 C1328 1.360 . S
C1328 C1327 1.360 . S
C1328 C1329 1.401 . S
C1328 C1333 1.446 . S
C1329 C1328 1.401 . S
C1329 C1330 1.347 . S
C1329 H1389 0.929 . S
C1330 C1329 1.347 . S
C1330 C1331 1.455 . S
C1330 H1390 0.930 . S
C1331 C1318 1.412 . S
C1331 C1330 1.455 . S
C1331 C1332 1.331 . S
C1332 C1321 1.451 1_554 S
C1332 C1331 1.331 . S
C1332 C1333 1.497 . S
C1333 C1324 1.395 1_554 S
C1333 C1328 1.446 . S
C1333 C1332 1.497 . S
C1334 C1335 1.582 . S
C1334 H1391 0.962 . S
C1334 H1392 0.959 . S
C1334 H1393 0.958 . S
C1335 C1334 1.582 . S
C1335 O1338 1.458 . S
C1335 H1364 0.980 . S
O1336 C1281 1.426 . S
O1336 C1282 1.334 . S
O1337 C1309 1.412 . S
O1337 C1310 1.393 . S
O1338 C1300 1.435 . S
O1338 C1335 1.458 . S
O1339 C1291 1.468 . S
O1339 C1292 1.408 . S
H1340 C1281 0.980 . S
H1341 C1280 0.959 . S
H1342 C1280 0.959 . S
H1343 C1280 0.960 . S
H1344 C1283 0.929 . S
H1345 C1287 0.929 . S
H1346 C1288 0.959 . S
H1347 C1288 0.961 . S
H1348 C1288 0.961 . S
H1349 C1289 0.960 . S
H1350 C1289 0.960 . S
H1351 C1289 0.961 . S
H1352 C1291 0.980 . S
H1353 C1290 0.961 . S
H1354 C1290 0.960 . S
H1355 C1290 0.959 . S
H1356 C1293 0.930 . S
H1357 C1297 0.931 . S
H1358 C1298 0.959 . S
H1359 C1298 0.961 . S
H1360 C1298 0.959 . S
H1361 C1299 0.960 . S
H1362 C1299 0.960 . S
H1363 C1299 0.960 . S
H1364 C1335 0.980 . S
H1365 C1301 0.930 . S
H1366 C1305 0.930 . S
H1367 C1306 0.961 . S
H1368 C1306 0.960 . S
H1369 C1306 0.958 . S
H1370 C1307 0.961 . S
H1371 C1307 0.960 . S
H1372 C1307 0.960 . S
H1373 C1309 0.980 . S
H1374 C1308 0.961 . S
H1375 C1308 0.961 . S
H1376 C1308 0.959 . S
H1377 C1311 0.932 . S
H1378 C1315 0.929 . S
H1379 C1316 0.961 . S
H1380 C1316 0.959 . S
H1381 C1316 0.959 . S
H1382 C1317 0.960 . S
H1383 C1317 0.962 . S
H1384 C1317 0.961 . S
H1385 C1319 0.929 . S
H1386 C1322 0.930 . S
H1387 C1323 0.929 . S
H1388 C1326 0.930 . S
H1389 C1329 0.929 . S
H1390 C1330 0.930 . S
H1391 C1334 0.962 . S
H1392 C1334 0.959 . S
H1393 C1334 0.958 . S
C1394 C1395 1.560 . S
C1394 H1455 0.959 . S
C1394 H1456 0.959 . S
C1394 H1457 0.960 . S
C1395 C1394 1.560 . S
C1395 O1450 1.426 . S
C1395 H1454 0.980 . S
C1396 C1397 1.407 . S
C1396 C1401 1.418 . S
C1396 O1450 1.334 . S
C1397 C1396 1.407 . S
C1397 C1398 1.360 . S
C1397 H1458 0.929 . S
C1398 C1397 1.360 . S
C1398 C1399 1.401 . S
C1398 C1402 1.527 . S
C1399 C1398 1.401 . S
C1399 C1400 1.405 . S
C1399 C1432 1.587 . S
C1400 C1399 1.405 . S
C1400 C1401 1.332 . S
C1400 C1403 1.496 . S
C1401 C1396 1.418 . S
C1401 C1400 1.332 . S
C1401 H1459 0.929 . S
C1402 C1398 1.527 . S
C1402 H1460 0.959 . S
C1402 H1461 0.961 . S
C1402 H1462 0.961 . S
C1403 C1400 1.496 . S
C1403 H1463 0.960 . S
C1403 H1464 0.960 . S
C1403 H1465 0.961 . S
C1404 C1405 1.517 . S
C1404 H1467 0.961 . S
C1404 H1468 0.960 . S
C1404 H1469 0.959 . S
C1405 C1404 1.517 . S
C1405 O1453 1.468 . S
C1405 H1466 0.980 . S
C1406 C1407 1.349 . S
C1406 C1411 1.367 . S
C1406 O1453 1.408 . S
C1407 C1406 1.349 . S
C1407 C1408 1.407 . S
C1407 H1470 0.930 . S
C1408 C1407 1.407 . S
C1408 C1409 1.449 . S
C1408 C1412 1.535 . S
C1409 C1408 1.449 . S
C1409 C1410 1.384 . S
C1409 C1434 1.553 . S
C1410 C1409 1.384 . S
C1410 C1411 1.364 . S
C1410 C1413 1.450 . S
C1411 C1406 1.367 . S
C1411 C1410 1.364 . S
C1411 H1471 0.931 . S
C1412 C1408 1.535 . S
C1412 H1472 0.959 . S
C1412 H1473 0.961 . S
C1412 H1474 0.959 . S
C1413 C1410 1.450 . S
C1413 H1475 0.960 . S
C1413 H1476 0.960 . S
C1413 H1477 0.960 . S
C1414 C1415 1.309 . S
C1414 C1419 1.304 . S
C1414 O1452 1.435 . S
C1415 C1414 1.309 . S
C1415 C1416 1.476 . S
C1415 H1479 0.930 . S
C1416 C1415 1.476 . S
C1416 C1417 1.400 . S
C1416 C1420 1.567 . S
C1417 C1416 1.400 . S
C1417 C1418 1.373 . S
C1417 C1439 1.432 . S
C1418 C1417 1.373 . S
C1418 C1419 1.339 . S
C1418 C1421 1.530 . S
C1419 C1414 1.304 . S
C1419 C1418 1.339 . S
C1419 H1480 0.930 . S
C1420 C1416 1.567 . S
C1420 H1481 0.961 . S
C1420 H1482 0.960 . S
C1420 H1483 0.958 . S
C1421 C1418 1.530 . S
C1421 H1484 0.961 . S
C1421 H1485 0.960 . S
C1421 H1486 0.960 . S
C1422 C1423 1.530 . S
C1422 H1488 0.961 . S
C1422 H1489 0.961 . S
C1422 H1490 0.959 . S
C1423 C1422 1.530 . S
C1423 O1451 1.412 . S
C1423 H1487 0.980 . S
C1424 C1425 1.288 . S
C1424 C1429 1.377 . S
C1424 O1451 1.393 . S
C1425 C1424 1.288 . S
C1425 C1426 1.369 . S
C1425 H1491 0.932 . S
C1426 C1425 1.369 . S
C1426 C1427 1.398 . S
C1426 C1430 1.527 . S
C1427 C1426 1.398 . S
C1427 C1428 1.380 . S
C1427 C1441 1.497 . S
C1428 C1427 1.380 . S
C1428 C1429 1.383 . S
C1428 C1431 1.603 . S
C1429 C1424 1.377 . S
C1429 C1428 1.383 . S
C1429 H1492 0.929 . S
C1430 C1426 1.527 . S
C1430 H1493 0.961 . S
C1430 H1494 0.959 . S
C1430 H1495 0.959 . S
C1431 C1428 1.603 . S
C1431 H1496 0.960 . S
C1431 H1497 0.962 . S
C1431 H1498 0.961 . S
C1432 C1399 1.587 . S
C1432 C1433 1.360 1_556 S
C1432 C1445 1.412 . S
C1433 C1432 1.360 1_554 S
C1433 C1434 1.365 . S
C1433 H1499 0.929 . S
C1434 C1409 1.553 . S
C1434 C1433 1.365 . S
C1434 C1435 1.404 . S
C1435 C1434 1.404 . S
C1435 C1436 1.395 . S
C1435 C1446 1.451 . S
C1436 C1435 1.395 . S
C1436 C1437 1.322 . S
C1436 H1500 0.930 . S
C1437 C1436 1.322 . S
C1437 C1438 1.459 . S
C1437 H1501 0.929 . S
C1438 C1437 1.459 . S
C1438 C1439 1.445 . S
C1438 C1447 1.395 . S
C1439 C1417 1.432 . S
C1439 C1438 1.445 . S
C1439 C1440 1.370 . S
C1440 C1439 1.370 . S
C1440 C1441 1.438 1_554 S
C1440 H1502 0.930 . S
C1441 C1427 1.497 . S
C1441 C1440 1.438 1_556 S
C1441 C1442 1.360 . S
C1442 C1441 1.360 . S
C1442 C1443 1.401 . S
C1442 C1447 1.446 1_556 S
C1443 C1442 1.401 . S
C1443 C1444 1.347 . S
C1443 H1503 0.929 . S
C1444 C1443 1.347 . S
C1444 C1445 1.455 . S
C1444 H1504 0.930 . S
C1445 C1432 1.412 . S
C1445 C1444 1.455 . S
C1445 C1446 1.331 1_556 S
C1446 C1435 1.451 . S
C1446 C1445 1.331 1_554 S
C1446 C1447 1.497 . S
C1447 C1438 1.395 . S
C1447 C1442 1.446 1_554 S
C1447 C1446 1.497 . S
C1448 C1449 1.582 . S
C1448 H1505 0.962 . S
C1448 H1506 0.959 . S
C1448 H1507 0.958 . S
C1449 C1448 1.582 . S
C1449 O1452 1.458 . S
C1449 H1478 0.980 . S
O1450 C1395 1.426 . S
O1450 C1396 1.334 . S
O1451 C1423 1.412 . S
O1451 C1424 1.393 . S
O1452 C1414 1.435 . S
O1452 C1449 1.458 . S
O1453 C1405 1.468 . S
O1453 C1406 1.408 . S
H1454 C1395 0.980 . S
H1455 C1394 0.959 . S
H1456 C1394 0.959 . S
H1457 C1394 0.960 . S
H1458 C1397 0.929 . S
H1459 C1401 0.929 . S
H1460 C1402 0.959 . S
H1461 C1402 0.961 . S
H1462 C1402 0.961 . S
H1463 C1403 0.960 . S
H1464 C1403 0.960 . S
H1465 C1403 0.961 . S
H1466 C1405 0.980 . S
H1467 C1404 0.961 . S
H1468 C1404 0.960 . S
H1469 C1404 0.959 . S
H1470 C1407 0.930 . S
H1471 C1411 0.931 . S
H1472 C1412 0.959 . S
H1473 C1412 0.961 . S
H1474 C1412 0.959 . S
H1475 C1413 0.960 . S
H1476 C1413 0.960 . S
H1477 C1413 0.960 . S
H1478 C1449 0.980 . S
H1479 C1415 0.930 . S
H1480 C1419 0.930 . S
H1481 C1420 0.961 . S
H1482 C1420 0.960 . S
H1483 C1420 0.958 . S
H1484 C1421 0.961 . S
H1485 C1421 0.960 . S
H1486 C1421 0.960 . S
H1487 C1423 0.980 . S
H1488 C1422 0.961 . S
H1489 C1422 0.961 . S
H1490 C1422 0.959 . S
H1491 C1425 0.932 . S
H1492 C1429 0.929 . S
H1493 C1430 0.961 . S
H1494 C1430 0.959 . S
H1495 C1430 0.959 . S
H1496 C1431 0.960 . S
H1497 C1431 0.962 . S
H1498 C1431 0.961 . S
H1499 C1433 0.929 . S
H1500 C1436 0.930 . S
H1501 C1437 0.929 . S
H1502 C1440 0.930 . S
H1503 C1443 0.929 . S
H1504 C1444 0.930 . S
H1505 C1448 0.962 . S
H1506 C1448 0.959 . S
H1507 C1448 0.958 . S
C1508 C1509 1.560 . S
C1508 H1569 0.959 . S
C1508 H1570 0.959 . S
C1508 H1571 0.960 . S
C1509 C1508 1.560 . S
C1509 O1564 1.426 . S
C1509 H1568 0.980 . S
C1510 C1511 1.407 . S
C1510 C1515 1.418 . S
C1510 O1564 1.334 . S
C1511 C1510 1.407 . S
C1511 C1512 1.360 . S
C1511 H1572 0.929 . S
C1512 C1511 1.360 . S
C1512 C1513 1.401 . S
C1512 C1516 1.527 . S
C1513 C1512 1.401 . S
C1513 C1514 1.405 . S
C1513 C1546 1.587 . S
C1514 C1513 1.405 . S
C1514 C1515 1.332 . S
C1514 C1517 1.496 . S
C1515 C1510 1.418 . S
C1515 C1514 1.332 . S
C1515 H1573 0.929 . S
C1516 C1512 1.527 . S
C1516 H1574 0.959 . S
C1516 H1575 0.961 . S
C1516 H1576 0.961 . S
C1517 C1514 1.496 . S
C1517 H1577 0.960 . S
C1517 H1578 0.960 . S
C1517 H1579 0.961 . S
C1518 C1519 1.517 . S
C1518 H1581 0.961 . S
C1518 H1582 0.960 . S
C1518 H1583 0.959 . S
C1519 C1518 1.517 . S
C1519 O1567 1.468 . S
C1519 H1580 0.980 . S
C1520 C1521 1.349 . S
C1520 C1525 1.367 . S
C1520 O1567 1.408 . S
C1521 C1520 1.349 . S
C1521 C1522 1.407 . S
C1521 H1584 0.930 . S
C1522 C1521 1.407 . S
C1522 C1523 1.449 . S
C1522 C1526 1.535 . S
C1523 C1522 1.449 . S
C1523 C1524 1.384 . S
C1523 C1548 1.553 . S
C1524 C1523 1.384 . S
C1524 C1525 1.364 . S
C1524 C1527 1.450 . S
C1525 C1520 1.367 . S
C1525 C1524 1.364 . S
C1525 H1585 0.931 . S
C1526 C1522 1.535 . S
C1526 H1586 0.959 . S
C1526 H1587 0.961 . S
C1526 H1588 0.959 . S
C1527 C1524 1.450 . S
C1527 H1589 0.960 . S
C1527 H1590 0.960 . S
C1527 H1591 0.960 . S
C1528 C1529 1.309 . S
C1528 C1533 1.304 . S
C1528 O1566 1.435 . S
C1529 C1528 1.309 . S
C1529 C1530 1.476 . S
C1529 H1593 0.930 . S
C1530 C1529 1.476 . S
C1530 C1531 1.400 . S
C1530 C1534 1.567 . S
C1531 C1530 1.400 . S
C1531 C1532 1.373 . S
C1531 C1553 1.432 . S
C1532 C1531 1.373 . S
C1532 C1533 1.339 . S
C1532 C1535 1.530 . S
C1533 C1528 1.304 . S
C1533 C1532 1.339 . S
C1533 H1594 0.930 . S
C1534 C1530 1.567 . S
C1534 H1595 0.961 . S
C1534 H1596 0.960 . S
C1534 H1597 0.958 . S
C1535 C1532 1.530 . S
C1535 H1598 0.961 . S
C1535 H1599 0.960 . S
C1535 H1600 0.960 . S
C1536 C1537 1.530 . S
C1536 H1602 0.961 . S
C1536 H1603 0.961 . S
C1536 H1604 0.959 . S
C1537 C1536 1.530 . S
C1537 O1565 1.412 . S
C1537 H1601 0.980 . S
C1538 C1539 1.288 . S
C1538 C1543 1.377 . S
C1538 O1565 1.393 . S
C1539 C1538 1.288 . S
C1539 C1540 1.369 . S
C1539 H1605 0.932 . S
C1540 C1539 1.369 . S
C1540 C1541 1.398 . S
C1540 C1544 1.527 . S
C1541 C1540 1.398 . S
C1541 C1542 1.380 . S
C1541 C1555 1.497 . S
C1542 C1541 1.380 . S
C1542 C1543 1.383 . S
C1542 C1545 1.603 . S
C1543 C1538 1.377 . S
C1543 C1542 1.383 . S
C1543 H1606 0.929 . S
C1544 C1540 1.527 . S
C1544 H1607 0.961 . S
C1544 H1608 0.959 . S
C1544 H1609 0.959 . S
C1545 C1542 1.603 . S
C1545 H1610 0.960 . S
C1545 H1611 0.962 . S
C1545 H1612 0.961 . S
C1546 C1513 1.587 . S
C1546 C1547 1.360 . S
C1546 C1559 1.412 . S
C1547 C1546 1.360 . S
C1547 C1548 1.365 1_554 S
C1547 H1613 0.929 . S
C1548 C1523 1.553 . S
C1548 C1547 1.365 1_556 S
C1548 C1549 1.404 . S
C1549 C1548 1.404 . S
C1549 C1550 1.395 . S
C1549 C1560 1.451 1_556 S
C1550 C1549 1.395 . S
C1550 C1551 1.322 . S
C1550 H1614 0.930 . S
C1551 C1550 1.322 . S
C1551 C1552 1.459 . S
C1551 H1615 0.929 . S
C1552 C1551 1.459 . S
C1552 C1553 1.445 . S
C1552 C1561 1.395 1_556 S
C1553 C1531 1.432 . S
C1553 C1552 1.445 . S
C1553 C1554 1.370 1_556 S
C1554 C1553 1.370 1_554 S
C1554 C1555 1.438 . S
C1554 H1616 0.930 . S
C1555 C1541 1.497 . S
C1555 C1554 1.438 . S
C1555 C1556 1.360 . S
C1556 C1555 1.360 . S
C1556 C1557 1.401 . S
C1556 C1561 1.446 . S
C1557 C1556 1.401 . S
C1557 C1558 1.347 . S
C1557 H1617 0.929 . S
C1558 C1557 1.347 . S
C1558 C1559 1.455 . S
C1558 H1618 0.930 . S
C1559 C1546 1.412 . S
C1559 C1558 1.455 . S
C1559 C1560 1.331 . S
C1560 C1549 1.451 1_554 S
C1560 C1559 1.331 . S
C1560 C1561 1.497 . S
C1561 C1552 1.395 1_554 S
C1561 C1556 1.446 . S
C1561 C1560 1.497 . S
C1562 C1563 1.582 . S
C1562 H1619 0.962 . S
C1562 H1620 0.959 . S
C1562 H1621 0.958 . S
C1563 C1562 1.582 . S
C1563 O1566 1.458 . S
C1563 H1592 0.980 . S
O1564 C1509 1.426 . S
O1564 C1510 1.334 . S
O1565 C1537 1.412 . S
O1565 C1538 1.393 . S
O1566 C1528 1.435 . S
O1566 C1563 1.458 . S
O1567 C1519 1.468 . S
O1567 C1520 1.408 . S
H1568 C1509 0.980 . S
H1569 C1508 0.959 . S
H1570 C1508 0.959 . S
H1571 C1508 0.960 . S
H1572 C1511 0.929 . S
H1573 C1515 0.929 . S
H1574 C1516 0.959 . S
H1575 C1516 0.961 . S
H1576 C1516 0.961 . S
H1577 C1517 0.960 . S
H1578 C1517 0.960 . S
H1579 C1517 0.961 . S
H1580 C1519 0.980 . S
H1581 C1518 0.961 . S
H1582 C1518 0.960 . S
H1583 C1518 0.959 . S
H1584 C1521 0.930 . S
H1585 C1525 0.931 . S
H1586 C1526 0.959 . S
H1587 C1526 0.961 . S
H1588 C1526 0.959 . S
H1589 C1527 0.960 . S
H1590 C1527 0.960 . S
H1591 C1527 0.960 . S
H1592 C1563 0.980 . S
H1593 C1529 0.930 . S
H1594 C1533 0.930 . S
H1595 C1534 0.961 . S
H1596 C1534 0.960 . S
H1597 C1534 0.958 . S
H1598 C1535 0.961 . S
H1599 C1535 0.960 . S
H1600 C1535 0.960 . S
H1601 C1537 0.980 . S
H1602 C1536 0.961 . S
H1603 C1536 0.961 . S
H1604 C1536 0.959 . S
H1605 C1539 0.932 . S
H1606 C1543 0.929 . S
H1607 C1544 0.961 . S
H1608 C1544 0.959 . S
H1609 C1544 0.959 . S
H1610 C1545 0.960 . S
H1611 C1545 0.962 . S
H1612 C1545 0.961 . S
H1613 C1547 0.929 . S
H1614 C1550 0.930 . S
H1615 C1551 0.929 . S
H1616 C1554 0.930 . S
H1617 C1557 0.929 . S
H1618 C1558 0.930 . S
H1619 C1562 0.962 . S
H1620 C1562 0.959 . S
H1621 C1562 0.958 . S
C1622 C1623 1.560 . S
C1622 H1683 0.959 . S
C1622 H1684 0.959 . S
C1622 H1685 0.960 . S
C1623 C1622 1.560 . S
C1623 O1678 1.426 . S
C1623 H1682 0.980 . S
C1624 C1625 1.407 . S
C1624 C1629 1.418 . S
C1624 O1678 1.334 . S
C1625 C1624 1.407 . S
C1625 C1626 1.360 . S
C1625 H1686 0.929 . S
C1626 C1625 1.360 . S
C1626 C1627 1.401 . S
C1626 C1630 1.527 . S
C1627 C1626 1.401 . S
C1627 C1628 1.405 . S
C1627 C1660 1.587 . S
C1628 C1627 1.405 . S
C1628 C1629 1.332 . S
C1628 C1631 1.496 . S
C1629 C1624 1.418 . S
C1629 C1628 1.332 . S
C1629 H1687 0.929 . S
C1630 C1626 1.527 . S
C1630 H1688 0.959 . S
C1630 H1689 0.961 . S
C1630 H1690 0.961 . S
C1631 C1628 1.496 . S
C1631 H1691 0.960 . S
C1631 H1692 0.960 . S
C1631 H1693 0.961 . S
C1632 C1633 1.517 . S
C1632 H1695 0.961 . S
C1632 H1696 0.960 . S
C1632 H1697 0.959 . S
C1633 C1632 1.517 . S
C1633 O1681 1.468 . S
C1633 H1694 0.980 . S
C1634 C1635 1.349 . S
C1634 C1639 1.367 . S
C1634 O1681 1.408 . S
C1635 C1634 1.349 . S
C1635 C1636 1.407 . S
C1635 H1698 0.930 . S
C1636 C1635 1.407 . S
C1636 C1637 1.449 . S
C1636 C1640 1.535 . S
C1637 C1636 1.449 . S
C1637 C1638 1.384 . S
C1637 C1662 1.553 . S
C1638 C1637 1.384 . S
C1638 C1639 1.364 . S
C1638 C1641 1.450 . S
C1639 C1634 1.367 . S
C1639 C1638 1.364 . S
C1639 H1699 0.931 . S
C1640 C1636 1.535 . S
C1640 H1700 0.959 . S
C1640 H1701 0.961 . S
C1640 H1702 0.959 . S
C1641 C1638 1.450 . S
C1641 H1703 0.960 . S
C1641 H1704 0.960 . S
C1641 H1705 0.960 . S
C1642 C1643 1.309 . S
C1642 C1647 1.304 . S
C1642 O1680 1.435 . S
C1643 C1642 1.309 . S
C1643 C1644 1.476 . S
C1643 H1707 0.930 . S
C1644 C1643 1.476 . S
C1644 C1645 1.400 . S
C1644 C1648 1.567 . S
C1645 C1644 1.400 . S
C1645 C1646 1.373 . S
C1645 C1667 1.432 . S
C1646 C1645 1.373 . S
C1646 C1647 1.339 . S
C1646 C1649 1.530 . S
C1647 C1642 1.304 . S
C1647 C1646 1.339 . S
C1647 H1708 0.930 . S
C1648 C1644 1.567 . S
C1648 H1709 0.961 . S
C1648 H1710 0.960 . S
C1648 H1711 0.958 . S
C1649 C1646 1.530 . S
C1649 H1712 0.961 . S
C1649 H1713 0.960 . S
C1649 H1714 0.960 . S
C1650 C1651 1.530 . S
C1650 H1716 0.961 . S
C1650 H1717 0.961 . S
C1650 H1718 0.959 . S
C1651 C1650 1.530 . S
C1651 O1679 1.412 . S
C1651 H1715 0.980 . S
C1652 C1653 1.288 . S
C1652 C1657 1.377 . S
C1652 O1679 1.393 . S
C1653 C1652 1.288 . S
C1653 C1654 1.369 . S
C1653 H1719 0.932 . S
C1654 C1653 1.369 . S
C1654 C1655 1.398 . S
C1654 C1658 1.527 . S
C1655 C1654 1.398 . S
C1655 C1656 1.380 . S
C1655 C1669 1.497 . S
C1656 C1655 1.380 . S
C1656 C1657 1.383 . S
C1656 C1659 1.603 . S
C1657 C1652 1.377 . S
C1657 C1656 1.383 . S
C1657 H1720 0.929 . S
C1658 C1654 1.527 . S
C1658 H1721 0.961 . S
C1658 H1722 0.959 . S
C1658 H1723 0.959 . S
C1659 C1656 1.603 . S
C1659 H1724 0.960 . S
C1659 H1725 0.962 . S
C1659 H1726 0.961 . S
C1660 C1627 1.587 . S
C1660 C1661 1.411 . S
C1660 C1673 1.412 . S
C1661 C1660 1.411 . S
C1661 C1662 1.314 1_556 S
C1661 H1727 0.929 . S
C1662 C1637 1.553 . S
C1662 C1661 1.314 1_554 S
C1662 C1663 1.404 . S
C1663 C1662 1.404 . S
C1663 C1664 1.395 . S
C1663 C1674 1.446 1_554 S
C1664 C1663 1.395 . S
C1664 C1665 1.322 . S
C1664 H1728 0.930 . S
C1665 C1664 1.322 . S
C1665 C1666 1.459 . S
C1665 H1729 0.929 . S
C1666 C1665 1.459 . S
C1666 C1667 1.445 . S
C1666 C1675 1.448 . S
C1667 C1645 1.432 . S
C1667 C1666 1.445 . S
C1667 C1668 1.370 . S
C1668 C1667 1.370 . S
C1668 C1669 1.438 1_554 S
C1668 H1730 0.930 . S
C1669 C1655 1.497 . S
C1669 C1668 1.438 1_556 S
C1669 C1670 1.360 . S
C1670 C1669 1.360 . S
C1670 C1671 1.401 . S
C1670 C1675 1.396 1_556 S
C1671 C1670 1.401 . S
C1671 C1672 1.347 . S
C1671 H1731 0.929 . S
C1672 C1671 1.347 . S
C1672 C1673 1.455 . S
C1672 H1732 0.930 . S
C1673 C1660 1.412 . S
C1673 C1672 1.455 . S
C1673 C1674 1.336 . S
C1674 C1663 1.446 1_556 S
C1674 C1673 1.336 . S
C1674 C1675 1.495 1_556 S
C1675 C1666 1.448 . S
C1675 C1670 1.396 1_554 S
C1675 C1674 1.495 1_554 S
C1676 C1677 1.582 . S
C1676 H1733 0.962 . S
C1676 H1734 0.959 . S
C1676 H1735 0.958 . S
C1677 C1676 1.582 . S
C1677 O1680 1.458 . S
C1677 H1706 0.980 . S
O1678 C1623 1.426 . S
O1678 C1624 1.334 . S
O1679 C1651 1.412 . S
O1679 C1652 1.393 . S
O1680 C1642 1.435 . S
O1680 C1677 1.458 . S
O1681 C1633 1.468 . S
O1681 C1634 1.408 . S
H1682 C1623 0.980 . S
H1683 C1622 0.959 . S
H1684 C1622 0.959 . S
H1685 C1622 0.960 . S
H1686 C1625 0.929 . S
H1687 C1629 0.929 . S
H1688 C1630 0.959 . S
H1689 C1630 0.961 . S
H1690 C1630 0.961 . S
H1691 C1631 0.960 . S
H1692 C1631 0.960 . S
H1693 C1631 0.961 . S
H1694 C1633 0.980 . S
H1695 C1632 0.961 . S
H1696 C1632 0.960 . S
H1697 C1632 0.959 . S
H1698 C1635 0.930 . S
H1699 C1639 0.931 . S
H1700 C1640 0.959 . S
H1701 C1640 0.961 . S
H1702 C1640 0.959 . S
H1703 C1641 0.960 . S
H1704 C1641 0.960 . S
H1705 C1641 0.960 . S
H1706 C1677 0.980 . S
H1707 C1643 0.930 . S
H1708 C1647 0.930 . S
H1709 C1648 0.961 . S
H1710 C1648 0.960 . S
H1711 C1648 0.958 . S
H1712 C1649 0.961 . S
H1713 C1649 0.960 . S
H1714 C1649 0.960 . S
H1715 C1651 0.980 . S
H1716 C1650 0.961 . S
H1717 C1650 0.961 . S
H1718 C1650 0.959 . S
H1719 C1653 0.932 . S
H1720 C1657 0.929 . S
H1721 C1658 0.961 . S
H1722 C1658 0.959 . S
H1723 C1658 0.959 . S
H1724 C1659 0.960 . S
H1725 C1659 0.962 . S
H1726 C1659 0.961 . S
H1727 C1661 0.929 . S
H1728 C1664 0.930 . S
H1729 C1665 0.929 . S
H1730 C1668 0.930 . S
H1731 C1671 0.929 . S
H1732 C1672 0.930 . S
H1733 C1676 0.962 . S
H1734 C1676 0.959 . S
H1735 C1676 0.958 . S
C1736 C1737 1.560 . S
C1736 H1797 0.959 . S
C1736 H1798 0.959 . S
C1736 H1799 0.960 . S
C1737 C1736 1.560 . S
C1737 O1792 1.426 . S
C1737 H1796 0.980 . S
C1738 C1739 1.407 . S
C1738 C1743 1.418 . S
C1738 O1792 1.334 . S
C1739 C1738 1.407 . S
C1739 C1740 1.360 . S
C1739 H1800 0.929 . S
C1740 C1739 1.360 . S
C1740 C1741 1.401 . S
C1740 C1744 1.527 . S
C1741 C1740 1.401 . S
C1741 C1742 1.405 . S
C1741 C1774 1.587 . S
C1742 C1741 1.405 . S
C1742 C1743 1.332 . S
C1742 C1745 1.496 . S
C1743 C1738 1.418 . S
C1743 C1742 1.332 . S
C1743 H1801 0.929 . S
C1744 C1740 1.527 . S
C1744 H1802 0.959 . S
C1744 H1803 0.961 . S
C1744 H1804 0.961 . S
C1745 C1742 1.496 . S
C1745 H1805 0.960 . S
C1745 H1806 0.960 . S
C1745 H1807 0.961 . S
C1746 C1747 1.517 . S
C1746 H1809 0.961 . S
C1746 H1810 0.960 . S
C1746 H1811 0.959 . S
C1747 C1746 1.517 . S
C1747 O1795 1.468 . S
C1747 H1808 0.980 . S
C1748 C1749 1.349 . S
C1748 C1753 1.367 . S
C1748 O1795 1.408 . S
C1749 C1748 1.349 . S
C1749 C1750 1.407 . S
C1749 H1812 0.930 . S
C1750 C1749 1.407 . S
C1750 C1751 1.449 . S
C1750 C1754 1.535 . S
C1751 C1750 1.449 . S
C1751 C1752 1.384 . S
C1751 C1776 1.553 . S
C1752 C1751 1.384 . S
C1752 C1753 1.364 . S
C1752 C1755 1.450 . S
C1753 C1748 1.367 . S
C1753 C1752 1.364 . S
C1753 H1813 0.931 . S
C1754 C1750 1.535 . S
C1754 H1814 0.959 . S
C1754 H1815 0.961 . S
C1754 H1816 0.959 . S
C1755 C1752 1.450 . S
C1755 H1817 0.960 . S
C1755 H1818 0.960 . S
C1755 H1819 0.960 . S
C1756 C1757 1.309 . S
C1756 C1761 1.304 . S
C1756 O1794 1.435 . S
C1757 C1756 1.309 . S
C1757 C1758 1.476 . S
C1757 H1821 0.930 . S
C1758 C1757 1.476 . S
C1758 C1759 1.400 . S
C1758 C1762 1.567 . S
C1759 C1758 1.400 . S
C1759 C1760 1.373 . S
C1759 C1781 1.432 . S
C1760 C1759 1.373 . S
C1760 C1761 1.339 . S
C1760 C1763 1.530 . S
C1761 C1756 1.304 . S
C1761 C1760 1.339 . S
C1761 H1822 0.930 . S
C1762 C1758 1.567 . S
C1762 H1823 0.961 . S
C1762 H1824 0.960 . S
C1762 H1825 0.958 . S
C1763 C1760 1.530 . S
C1763 H1826 0.961 . S
C1763 H1827 0.960 . S
C1763 H1828 0.960 . S
C1764 C1765 1.530 . S
C1764 H1830 0.961 . S
C1764 H1831 0.961 . S
C1764 H1832 0.959 . S
C1765 C1764 1.530 . S
C1765 O1793 1.412 . S
C1765 H1829 0.980 . S
C1766 C1767 1.288 . S
C1766 C1771 1.377 . S
C1766 O1793 1.393 . S
C1767 C1766 1.288 . S
C1767 C1768 1.369 . S
C1767 H1833 0.932 . S
C1768 C1767 1.369 . S
C1768 C1769 1.398 . S
C1768 C1772 1.527 . S
C1769 C1768 1.398 . S
C1769 C1770 1.380 . S
C1769 C1783 1.497 . S
C1770 C1769 1.380 . S
C1770 C1771 1.383 . S
C1770 C1773 1.603 . S
C1771 C1766 1.377 . S
C1771 C1770 1.383 . S
C1771 H1834 0.929 . S
C1772 C1768 1.527 . S
C1772 H1835 0.961 . S
C1772 H1836 0.959 . S
C1772 H1837 0.959 . S
C1773 C1770 1.603 . S
C1773 H1838 0.960 . S
C1773 H1839 0.962 . S
C1773 H1840 0.961 . S
C1774 C1741 1.587 . S
C1774 C1775 1.360 . S
C1774 C1787 1.412 . S
C1775 C1774 1.360 . S
C1775 C1776 1.365 1_455 S
C1775 H1841 0.929 . S
C1776 C1751 1.553 . S
C1776 C1775 1.365 1_655 S
C1776 C1777 1.404 . S
C1777 C1776 1.404 . S
C1777 C1778 1.395 . S
C1777 C1788 1.451 1_655 S
C1778 C1777 1.395 . S
C1778 C1779 1.322 . S
C1778 H1842 0.930 . S
C1779 C1778 1.322 . S
C1779 C1780 1.459 . S
C1779 H1843 0.929 . S
C1780 C1779 1.459 . S
C1780 C1781 1.445 . S
C1780 C1789 1.395 1_655 S
C1781 C1759 1.432 . S
C1781 C1780 1.445 . S
C1781 C1782 1.370 1_655 S
C1782 C1781 1.370 1_455 S
C1782 C1783 1.438 . S
C1782 H1844 0.930 . S
C1783 C1769 1.497 . S
C1783 C1782 1.438 . S
C1783 C1784 1.360 . S
C1784 C1783 1.360 . S
C1784 C1785 1.401 . S
C1784 C1789 1.446 . S
C1785 C1784 1.401 . S
C1785 C1786 1.347 . S
C1785 H1845 0.929 . S
C1786 C1785 1.347 . S
C1786 C1787 1.455 . S
C1786 H1846 0.930 . S
C1787 C1774 1.412 . S
C1787 C1786 1.455 . S
C1787 C1788 1.331 . S
C1788 C1777 1.451 1_455 S
C1788 C1787 1.331 . S
C1788 C1789 1.497 . S
C1789 C1780 1.395 1_455 S
C1789 C1784 1.446 . S
C1789 C1788 1.497 . S
C1790 C1791 1.582 . S
C1790 H1847 0.962 . S
C1790 H1848 0.959 . S
C1790 H1849 0.958 . S
C1791 C1790 1.582 . S
C1791 O1794 1.458 . S
C1791 H1820 0.980 . S
O1792 C1737 1.426 . S
O1792 C1738 1.334 . S
O1793 C1765 1.412 . S
O1793 C1766 1.393 . S
O1794 C1756 1.435 . S
O1794 C1791 1.458 . S
O1795 C1747 1.468 . S
O1795 C1748 1.408 . S
H1796 C1737 0.980 . S
H1797 C1736 0.959 . S
H1798 C1736 0.959 . S
H1799 C1736 0.960 . S
H1800 C1739 0.929 . S
H1801 C1743 0.929 . S
H1802 C1744 0.959 . S
H1803 C1744 0.961 . S
H1804 C1744 0.961 . S
H1805 C1745 0.960 . S
H1806 C1745 0.960 . S
H1807 C1745 0.961 . S
H1808 C1747 0.980 . S
H1809 C1746 0.961 . S
H1810 C1746 0.960 . S
H1811 C1746 0.959 . S
H1812 C1749 0.930 . S
H1813 C1753 0.931 . S
H1814 C1754 0.959 . S
H1815 C1754 0.961 . S
H1816 C1754 0.959 . S
H1817 C1755 0.960 . S
H1818 C1755 0.960 . S
H1819 C1755 0.960 . S
H1820 C1791 0.980 . S
H1821 C1757 0.930 . S
H1822 C1761 0.930 . S
H1823 C1762 0.961 . S
H1824 C1762 0.960 . S
H1825 C1762 0.958 . S
H1826 C1763 0.961 . S
H1827 C1763 0.960 . S
H1828 C1763 0.960 . S
H1829 C1765 0.980 . S
H1830 C1764 0.961 . S
H1831 C1764 0.961 . S
H1832 C1764 0.959 . S
H1833 C1767 0.932 . S
H1834 C1771 0.929 . S
H1835 C1772 0.961 . S
H1836 C1772 0.959 . S
H1837 C1772 0.959 . S
H1838 C1773 0.960 . S
H1839 C1773 0.962 . S
H1840 C1773 0.961 . S
H1841 C1775 0.929 . S
H1842 C1778 0.930 . S
H1843 C1779 0.929 . S
H1844 C1782 0.930 . S
H1845 C1785 0.929 . S
H1846 C1786 0.930 . S
H1847 C1790 0.962 . S
H1848 C1790 0.959 . S
H1849 C1790 0.958 . S
C1850 C1851 1.560 . S
C1850 H1911 0.959 . S
C1850 H1912 0.959 . S
C1850 H1913 0.960 . S
C1851 C1850 1.560 . S
C1851 O1906 1.426 . S
C1851 H1910 0.980 . S
C1852 C1853 1.407 . S
C1852 C1857 1.418 . S
C1852 O1906 1.334 . S
C1853 C1852 1.407 . S
C1853 C1854 1.360 . S
C1853 H1914 0.929 . S
C1854 C1853 1.360 . S
C1854 C1855 1.401 . S
C1854 C1858 1.527 . S
C1855 C1854 1.401 . S
C1855 C1856 1.405 . S
C1855 C1888 1.587 . S
C1856 C1855 1.405 . S
C1856 C1857 1.332 . S
C1856 C1859 1.496 . S
C1857 C1852 1.418 . S
C1857 C1856 1.332 . S
C1857 H1915 0.929 . S
C1858 C1854 1.527 . S
C1858 H1916 0.959 . S
C1858 H1917 0.961 . S
C1858 H1918 0.961 . S
C1859 C1856 1.496 . S
C1859 H1919 0.960 . S
C1859 H1920 0.960 . S
C1859 H1921 0.961 . S
C1860 C1861 1.517 . S
C1860 H1923 0.961 . S
C1860 H1924 0.960 . S
C1860 H1925 0.959 . S
C1861 C1860 1.517 . S
C1861 O1909 1.468 . S
C1861 H1922 0.980 . S
C1862 C1863 1.349 . S
C1862 C1867 1.367 . S
C1862 O1909 1.408 . S
C1863 C1862 1.349 . S
C1863 C1864 1.407 . S
C1863 H1926 0.930 . S
C1864 C1863 1.407 . S
C1864 C1865 1.449 . S
C1864 C1868 1.535 . S
C1865 C1864 1.449 . S
C1865 C1866 1.384 . S
C1865 C1890 1.553 . S
C1866 C1865 1.384 . S
C1866 C1867 1.364 . S
C1866 C1869 1.450 . S
C1867 C1862 1.367 . S
C1867 C1866 1.364 . S
C1867 H1927 0.931 . S
C1868 C1864 1.535 . S
C1868 H1928 0.959 . S
C1868 H1929 0.961 . S
C1868 H1930 0.959 . S
C1869 C1866 1.450 . S
C1869 H1931 0.960 . S
C1869 H1932 0.960 . S
C1869 H1933 0.960 . S
C1870 C1871 1.309 . S
C1870 C1875 1.304 . S
C1870 O1908 1.435 . S
C1871 C1870 1.309 . S
C1871 C1872 1.476 . S
C1871 H1935 0.930 . S
C1872 C1871 1.476 . S
C1872 C1873 1.400 . S
C1872 C1876 1.567 . S
C1873 C1872 1.400 . S
C1873 C1874 1.373 . S
C1873 C1895 1.432 . S
C1874 C1873 1.373 . S
C1874 C1875 1.339 . S
C1874 C1877 1.530 . S
C1875 C1870 1.304 . S
C1875 C1874 1.339 . S
C1875 H1936 0.930 . S
C1876 C1872 1.567 . S
C1876 H1937 0.961 . S
C1876 H1938 0.960 . S
C1876 H1939 0.958 . S
C1877 C1874 1.530 . S
C1877 H1940 0.961 . S
C1877 H1941 0.960 . S
C1877 H1942 0.960 . S
C1878 C1879 1.530 . S
C1878 H1944 0.961 . S
C1878 H1945 0.961 . S
C1878 H1946 0.959 . S
C1879 C1878 1.530 . S
C1879 O1907 1.412 . S
C1879 H1943 0.980 . S
C1880 C1881 1.288 . S
C1880 C1885 1.377 . S
C1880 O1907 1.393 . S
C1881 C1880 1.288 . S
C1881 C1882 1.369 . S
C1881 H1947 0.932 . S
C1882 C1881 1.369 . S
C1882 C1883 1.398 . S
C1882 C1886 1.527 . S
C1883 C1882 1.398 . S
C1883 C1884 1.380 . S
C1883 C1897 1.497 . S
C1884 C1883 1.380 . S
C1884 C1885 1.383 . S
C1884 C1887 1.603 . S
C1885 C1880 1.377 . S
C1885 C1884 1.383 . S
C1885 H1948 0.929 . S
C1886 C1882 1.527 . S
C1886 H1949 0.961 . S
C1886 H1950 0.959 . S
C1886 H1951 0.959 . S
C1887 C1884 1.603 . S
C1887 H1952 0.960 . S
C1887 H1953 0.962 . S
C1887 H1954 0.961 . S
C1888 C1855 1.587 . S
C1888 C1889 1.360 . S
C1888 C1901 1.412 . S
C1889 C1888 1.360 . S
C1889 C1890 1.365 1_545 S
C1889 H1955 0.929 . S
C1890 C1865 1.553 . S
C1890 C1889 1.365 1_565 S
C1890 C1891 1.404 . S
C1891 C1890 1.404 . S
C1891 C1892 1.395 . S
C1891 C1902 1.451 1_565 S
C1892 C1891 1.395 . S
C1892 C1893 1.322 . S
C1892 H1956 0.930 . S
C1893 C1892 1.322 . S
C1893 C1894 1.459 . S
C1893 H1957 0.929 . S
C1894 C1893 1.459 . S
C1894 C1895 1.445 . S
C1894 C1903 1.395 1_565 S
C1895 C1873 1.432 . S
C1895 C1894 1.445 . S
C1895 C1896 1.370 1_565 S
C1896 C1895 1.370 1_545 S
C1896 C1897 1.438 . S
C1896 H1958 0.930 . S
C1897 C1883 1.497 . S
C1897 C1896 1.438 . S
C1897 C1898 1.360 . S
C1898 C1897 1.360 . S
C1898 C1899 1.401 . S
C1898 C1903 1.446 . S
C1899 C1898 1.401 . S
C1899 C1900 1.347 . S
C1899 H1959 0.929 . S
C1900 C1899 1.347 . S
C1900 C1901 1.455 . S
C1900 H1960 0.930 . S
C1901 C1888 1.412 . S
C1901 C1900 1.455 . S
C1901 C1902 1.331 . S
C1902 C1891 1.451 1_545 S
C1902 C1901 1.331 . S
C1902 C1903 1.497 . S
C1903 C1894 1.395 1_545 S
C1903 C1898 1.446 . S
C1903 C1902 1.497 . S
C1904 C1905 1.582 . S
C1904 H1961 0.962 . S
C1904 H1962 0.959 . S
C1904 H1963 0.958 . S
C1905 C1904 1.582 . S
C1905 O1908 1.458 . S
C1905 H1934 0.980 . S
O1906 C1851 1.426 . S
O1906 C1852 1.334 . S
O1907 C1879 1.412 . S
O1907 C1880 1.393 . S
O1908 C1870 1.435 . S
O1908 C1905 1.458 . S
O1909 C1861 1.468 . S
O1909 C1862 1.408 . S
H1910 C1851 0.980 . S
H1911 C1850 0.959 . S
H1912 C1850 0.959 . S
H1913 C1850 0.960 . S
H1914 C1853 0.929 . S
H1915 C1857 0.929 . S
H1916 C1858 0.959 . S
H1917 C1858 0.961 . S
H1918 C1858 0.961 . S
H1919 C1859 0.960 . S
H1920 C1859 0.960 . S
H1921 C1859 0.961 . S
H1922 C1861 0.980 . S
H1923 C1860 0.961 . S
H1924 C1860 0.960 . S
H1925 C1860 0.959 . S
H1926 C1863 0.930 . S
H1927 C1867 0.931 . S
H1928 C1868 0.959 . S
H1929 C1868 0.961 . S
H1930 C1868 0.959 . S
H1931 C1869 0.960 . S
H1932 C1869 0.960 . S
H1933 C1869 0.960 . S
H1934 C1905 0.980 . S
H1935 C1871 0.930 . S
H1936 C1875 0.930 . S
H1937 C1876 0.961 . S
H1938 C1876 0.960 . S
H1939 C1876 0.958 . S
H1940 C1877 0.961 . S
H1941 C1877 0.960 . S
H1942 C1877 0.960 . S
H1943 C1879 0.980 . S
H1944 C1878 0.961 . S
H1945 C1878 0.961 . S
H1946 C1878 0.959 . S
H1947 C1881 0.932 . S
H1948 C1885 0.929 . S
H1949 C1886 0.961 . S
H1950 C1886 0.959 . S
H1951 C1886 0.959 . S
H1952 C1887 0.960 . S
H1953 C1887 0.962 . S
H1954 C1887 0.961 . S
H1955 C1889 0.929 . S
H1956 C1892 0.930 . S
H1957 C1893 0.929 . S
H1958 C1896 0.930 . S
H1959 C1899 0.929 . S
H1960 C1900 0.930 . S
H1961 C1904 0.962 . S
H1962 C1904 0.959 . S
H1963 C1904 0.958 . S
C1964 C1965 1.560 . S
C1964 H2025 0.959 . S
C1964 H2026 0.959 . S
C1964 H2027 0.960 . S
C1965 C1964 1.560 . S
C1965 O2020 1.426 . S
C1965 H2024 0.980 . S
C1966 C1967 1.407 . S
C1966 C1971 1.418 . S
C1966 O2020 1.334 . S
C1967 C1966 1.407 . S
C1967 C1968 1.360 . S
C1967 H2028 0.929 . S
C1968 C1967 1.360 . S
C1968 C1969 1.401 . S
C1968 C1972 1.527 . S
C1969 C1968 1.401 . S
C1969 C1970 1.405 . S
C1969 C2002 1.587 . S
C1970 C1969 1.405 . S
C1970 C1971 1.332 . S
C1970 C1973 1.496 . S
C1971 C1966 1.418 . S
C1971 C1970 1.332 . S
C1971 H2029 0.929 . S
C1972 C1968 1.527 . S
C1972 H2030 0.959 . S
C1972 H2031 0.961 . S
C1972 H2032 0.961 . S
C1973 C1970 1.496 . S
C1973 H2033 0.960 . S
C1973 H2034 0.960 . S
C1973 H2035 0.961 . S
C1974 C1975 1.517 . S
C1974 H2037 0.961 . S
C1974 H2038 0.960 . S
C1974 H2039 0.959 . S
C1975 C1974 1.517 . S
C1975 O2023 1.468 . S
C1975 H2036 0.980 . S
C1976 C1977 1.349 . S
C1976 C1981 1.367 . S
C1976 O2023 1.408 . S
C1977 C1976 1.349 . S
C1977 C1978 1.407 . S
C1977 H2040 0.930 . S
C1978 C1977 1.407 . S
C1978 C1979 1.449 . S
C1978 C1982 1.535 . S
C1979 C1978 1.449 . S
C1979 C1980 1.384 . S
C1979 C2004 1.553 . S
C1980 C1979 1.384 . S
C1980 C1981 1.364 . S
C1980 C1983 1.450 . S
C1981 C1976 1.367 . S
C1981 C1980 1.364 . S
C1981 H2041 0.931 . S
C1982 C1978 1.535 . S
C1982 H2042 0.959 . S
C1982 H2043 0.961 . S
C1982 H2044 0.959 . S
C1983 C1980 1.450 . S
C1983 H2045 0.960 . S
C1983 H2046 0.960 . S
C1983 H2047 0.960 . S
C1984 C1985 1.309 . S
C1984 C1989 1.304 . S
C1984 O2022 1.435 . S
C1985 C1984 1.309 . S
C1985 C1986 1.476 . S
C1985 H2049 0.930 . S
C1986 C1985 1.476 . S
C1986 C1987 1.400 . S
C1986 C1990 1.567 . S
C1987 C1986 1.400 . S
C1987 C1988 1.373 . S
C1987 C2009 1.432 . S
C1988 C1987 1.373 . S
C1988 C1989 1.339 . S
C1988 C1991 1.530 . S
C1989 C1984 1.304 . S
C1989 C1988 1.339 . S
C1989 H2050 0.930 . S
C1990 C1986 1.567 . S
C1990 H2051 0.961 . S
C1990 H2052 0.960 . S
C1990 H2053 0.958 . S
C1991 C1988 1.530 . S
C1991 H2054 0.961 . S
C1991 H2055 0.960 . S
C1991 H2056 0.960 . S
C1992 C1993 1.530 . S
C1992 H2058 0.961 . S
C1992 H2059 0.961 . S
C1992 H2060 0.959 . S
C1993 C1992 1.530 . S
C1993 O2021 1.412 . S
C1993 H2057 0.980 . S
C1994 C1995 1.288 . S
C1994 C1999 1.377 . S
C1994 O2021 1.393 . S
C1995 C1994 1.288 . S
C1995 C1996 1.369 . S
C1995 H2061 0.932 . S
C1996 C1995 1.369 . S
C1996 C1997 1.398 . S
C1996 C2000 1.527 . S
C1997 C1996 1.398 . S
C1997 C1998 1.380 . S
C1997 C2011 1.497 . S
C1998 C1997 1.380 . S
C1998 C1999 1.383 . S
C1998 C2001 1.603 . S
C1999 C1994 1.377 . S
C1999 C1998 1.383 . S
C1999 H2062 0.929 . S
C2000 C1996 1.527 . S
C2000 H2063 0.961 . S
C2000 H2064 0.959 . S
C2000 H2065 0.959 . S
C2001 C1998 1.603 . S
C2001 H2066 0.960 . S
C2001 H2067 0.962 . S
C2001 H2068 0.961 . S
C2002 C1969 1.587 . S
C2002 C2003 1.360 . S
C2002 C2015 1.412 . S
C2003 C2002 1.360 . S
C2003 C2004 1.365 1_455 S
C2003 H2069 0.929 . S
C2004 C1979 1.553 . S
C2004 C2003 1.365 1_655 S
C2004 C2005 1.404 . S
C2005 C2004 1.404 . S
C2005 C2006 1.395 . S
C2005 C2016 1.451 1_655 S
C2006 C2005 1.395 . S
C2006 C2007 1.322 . S
C2006 H2070 0.930 . S
C2007 C2006 1.322 . S
C2007 C2008 1.459 . S
C2007 H2071 0.929 . S
C2008 C2007 1.459 . S
C2008 C2009 1.445 . S
C2008 C2017 1.395 1_655 S
C2009 C1987 1.432 . S
C2009 C2008 1.445 . S
C2009 C2010 1.370 1_655 S
C2010 C2009 1.370 1_455 S
C2010 C2011 1.438 . S
C2010 H2072 0.930 . S
C2011 C1997 1.497 . S
C2011 C2010 1.438 . S
C2011 C2012 1.360 . S
C2012 C2011 1.360 . S
C2012 C2013 1.401 . S
C2012 C2017 1.446 . S
C2013 C2012 1.401 . S
C2013 C2014 1.347 . S
C2013 H2073 0.929 . S
C2014 C2013 1.347 . S
C2014 C2015 1.455 . S
C2014 H2074 0.930 . S
C2015 C2002 1.412 . S
C2015 C2014 1.455 . S
C2015 C2016 1.331 . S
C2016 C2005 1.451 1_455 S
C2016 C2015 1.331 . S
C2016 C2017 1.497 . S
C2017 C2008 1.395 1_455 S
C2017 C2012 1.446 . S
C2017 C2016 1.497 . S
C2018 C2019 1.582 . S
C2018 H2075 0.962 . S
C2018 H2076 0.959 . S
C2018 H2077 0.958 . S
C2019 C2018 1.582 . S
C2019 O2022 1.458 . S
C2019 H2048 0.980 . S
O2020 C1965 1.426 . S
O2020 C1966 1.334 . S
O2021 C1993 1.412 . S
O2021 C1994 1.393 . S
O2022 C1984 1.435 . S
O2022 C2019 1.458 . S
O2023 C1975 1.468 . S
O2023 C1976 1.408 . S
H2024 C1965 0.980 . S
H2025 C1964 0.959 . S
H2026 C1964 0.959 . S
H2027 C1964 0.960 . S
H2028 C1967 0.929 . S
H2029 C1971 0.929 . S
H2030 C1972 0.959 . S
H2031 C1972 0.961 . S
H2032 C1972 0.961 . S
H2033 C1973 0.960 . S
H2034 C1973 0.960 . S
H2035 C1973 0.961 . S
H2036 C1975 0.980 . S
H2037 C1974 0.961 . S
H2038 C1974 0.960 . S
H2039 C1974 0.959 . S
H2040 C1977 0.930 . S
H2041 C1981 0.931 . S
H2042 C1982 0.959 . S
H2043 C1982 0.961 . S
H2044 C1982 0.959 . S
H2045 C1983 0.960 . S
H2046 C1983 0.960 . S
H2047 C1983 0.960 . S
H2048 C2019 0.980 . S
H2049 C1985 0.930 . S
H2050 C1989 0.930 . S
H2051 C1990 0.961 . S
H2052 C1990 0.960 . S
H2053 C1990 0.958 . S
H2054 C1991 0.961 . S
H2055 C1991 0.960 . S
H2056 C1991 0.960 . S
H2057 C1993 0.980 . S
H2058 C1992 0.961 . S
H2059 C1992 0.961 . S
H2060 C1992 0.959 . S
H2061 C1995 0.932 . S
H2062 C1999 0.929 . S
H2063 C2000 0.961 . S
H2064 C2000 0.959 . S
H2065 C2000 0.959 . S
H2066 C2001 0.960 . S
H2067 C2001 0.962 . S
H2068 C2001 0.961 . S
H2069 C2003 0.929 . S
H2070 C2006 0.930 . S
H2071 C2007 0.929 . S
H2072 C2010 0.930 . S
H2073 C2013 0.929 . S
H2074 C2014 0.930 . S
H2075 C2018 0.962 . S
H2076 C2018 0.959 . S
H2077 C2018 0.958 . S
C2078 C2079 1.560 . S
C2078 H2139 0.959 . S
C2078 H2140 0.959 . S
C2078 H2141 0.960 . S
C2079 C2078 1.560 . S
C2079 O2134 1.426 . S
C2079 H2138 0.980 . S
C2080 C2081 1.407 . S
C2080 C2085 1.418 . S
C2080 O2134 1.334 . S
C2081 C2080 1.407 . S
C2081 C2082 1.360 . S
C2081 H2142 0.929 . S
C2082 C2081 1.360 . S
C2082 C2083 1.401 . S
C2082 C2086 1.527 . S
C2083 C2082 1.401 . S
C2083 C2084 1.405 . S
C2083 C2116 1.587 . S
C2084 C2083 1.405 . S
C2084 C2085 1.332 . S
C2084 C2087 1.496 . S
C2085 C2080 1.418 . S
C2085 C2084 1.332 . S
C2085 H2143 0.929 . S
C2086 C2082 1.527 . S
C2086 H2144 0.959 . S
C2086 H2145 0.961 . S
C2086 H2146 0.961 . S
C2087 C2084 1.496 . S
C2087 H2147 0.960 . S
C2087 H2148 0.960 . S
C2087 H2149 0.961 . S
C2088 C2089 1.517 . S
C2088 H2151 0.961 . S
C2088 H2152 0.960 . S
C2088 H2153 0.959 . S
C2089 C2088 1.517 . S
C2089 O2137 1.468 . S
C2089 H2150 0.980 . S
C2090 C2091 1.349 . S
C2090 C2095 1.367 . S
C2090 O2137 1.408 . S
C2091 C2090 1.349 . S
C2091 C2092 1.407 . S
C2091 H2154 0.930 . S
C2092 C2091 1.407 . S
C2092 C2093 1.449 . S
C2092 C2096 1.535 . S
C2093 C2092 1.449 . S
C2093 C2094 1.384 . S
C2093 C2118 1.553 . S
C2094 C2093 1.384 . S
C2094 C2095 1.364 . S
C2094 C2097 1.450 . S
C2095 C2090 1.367 . S
C2095 C2094 1.364 . S
C2095 H2155 0.931 . S
C2096 C2092 1.535 . S
C2096 H2156 0.959 . S
C2096 H2157 0.961 . S
C2096 H2158 0.959 . S
C2097 C2094 1.450 . S
C2097 H2159 0.960 . S
C2097 H2160 0.960 . S
C2097 H2161 0.960 . S
C2098 C2099 1.309 . S
C2098 C2103 1.304 . S
C2098 O2136 1.435 . S
C2099 C2098 1.309 . S
C2099 C2100 1.476 . S
C2099 H2163 0.930 . S
C2100 C2099 1.476 . S
C2100 C2101 1.400 . S
C2100 C2104 1.567 . S
C2101 C2100 1.400 . S
C2101 C2102 1.373 . S
C2101 C2123 1.432 . S
C2102 C2101 1.373 . S
C2102 C2103 1.339 . S
C2102 C2105 1.530 . S
C2103 C2098 1.304 . S
C2103 C2102 1.339 . S
C2103 H2164 0.930 . S
C2104 C2100 1.567 . S
C2104 H2165 0.961 . S
C2104 H2166 0.960 . S
C2104 H2167 0.958 . S
C2105 C2102 1.530 . S
C2105 H2168 0.961 . S
C2105 H2169 0.960 . S
C2105 H2170 0.960 . S
C2106 C2107 1.530 . S
C2106 H2172 0.961 . S
C2106 H2173 0.961 . S
C2106 H2174 0.959 . S
C2107 C2106 1.530 . S
C2107 O2135 1.412 . S
C2107 H2171 0.980 . S
C2108 C2109 1.288 . S
C2108 C2113 1.377 . S
C2108 O2135 1.393 . S
C2109 C2108 1.288 . S
C2109 C2110 1.369 . S
C2109 H2175 0.932 . S
C2110 C2109 1.369 . S
C2110 C2111 1.398 . S
C2110 C2114 1.527 . S
C2111 C2110 1.398 . S
C2111 C2112 1.380 . S
C2111 C2125 1.497 . S
C2112 C2111 1.380 . S
C2112 C2113 1.383 . S
C2112 C2115 1.603 . S
C2113 C2108 1.377 . S
C2113 C2112 1.383 . S
C2113 H2176 0.929 . S
C2114 C2110 1.527 . S
C2114 H2177 0.961 . S
C2114 H2178 0.959 . S
C2114 H2179 0.959 . S
C2115 C2112 1.603 . S
C2115 H2180 0.960 . S
C2115 H2181 0.962 . S
C2115 H2182 0.961 . S
C2116 C2083 1.587 . S
C2116 C2117 1.360 1_565 S
C2116 C2129 1.412 . S
C2117 C2116 1.360 1_545 S
C2117 C2118 1.365 . S
C2117 H2183 0.929 . S
C2118 C2093 1.553 . S
C2118 C2117 1.365 . S
C2118 C2119 1.404 . S
C2119 C2118 1.404 . S
C2119 C2120 1.395 . S
C2119 C2130 1.451 . S
C2120 C2119 1.395 . S
C2120 C2121 1.322 . S
C2120 H2184 0.930 . S
C2121 C2120 1.322 . S
C2121 C2122 1.459 . S
C2121 H2185 0.929 . S
C2122 C2121 1.459 . S
C2122 C2123 1.445 . S
C2122 C2131 1.395 . S
C2123 C2101 1.432 . S
C2123 C2122 1.445 . S
C2123 C2124 1.370 . S
C2124 C2123 1.370 . S
C2124 C2125 1.438 1_545 S
C2124 H2186 0.930 . S
C2125 C2111 1.497 . S
C2125 C2124 1.438 1_565 S
C2125 C2126 1.360 . S
C2126 C2125 1.360 . S
C2126 C2127 1.401 . S
C2126 C2131 1.446 1_565 S
C2127 C2126 1.401 . S
C2127 C2128 1.347 . S
C2127 H2187 0.929 . S
C2128 C2127 1.347 . S
C2128 C2129 1.455 . S
C2128 H2188 0.930 . S
C2129 C2116 1.412 . S
C2129 C2128 1.455 . S
C2129 C2130 1.331 1_565 S
C2130 C2119 1.451 . S
C2130 C2129 1.331 1_545 S
C2130 C2131 1.497 . S
C2131 C2122 1.395 . S
C2131 C2126 1.446 1_545 S
C2131 C2130 1.497 . S
C2132 C2133 1.582 . S
C2132 H2189 0.962 . S
C2132 H2190 0.959 . S
C2132 H2191 0.958 . S
C2133 C2132 1.582 . S
C2133 O2136 1.458 . S
C2133 H2162 0.980 . S
O2134 C2079 1.426 . S
O2134 C2080 1.334 . S
O2135 C2107 1.412 . S
O2135 C2108 1.393 . S
O2136 C2098 1.435 . S
O2136 C2133 1.458 . S
O2137 C2089 1.468 . S
O2137 C2090 1.408 . S
H2138 C2079 0.980 . S
H2139 C2078 0.959 . S
H2140 C2078 0.959 . S
H2141 C2078 0.960 . S
H2142 C2081 0.929 . S
H2143 C2085 0.929 . S
H2144 C2086 0.959 . S
H2145 C2086 0.961 . S
H2146 C2086 0.961 . S
H2147 C2087 0.960 . S
H2148 C2087 0.960 . S
H2149 C2087 0.961 . S
H2150 C2089 0.980 . S
H2151 C2088 0.961 . S
H2152 C2088 0.960 . S
H2153 C2088 0.959 . S
H2154 C2091 0.930 . S
H2155 C2095 0.931 . S
H2156 C2096 0.959 . S
H2157 C2096 0.961 . S
H2158 C2096 0.959 . S
H2159 C2097 0.960 . S
H2160 C2097 0.960 . S
H2161 C2097 0.960 . S
H2162 C2133 0.980 . S
H2163 C2099 0.930 . S
H2164 C2103 0.930 . S
H2165 C2104 0.961 . S
H2166 C2104 0.960 . S
H2167 C2104 0.958 . S
H2168 C2105 0.961 . S
H2169 C2105 0.960 . S
H2170 C2105 0.960 . S
H2171 C2107 0.980 . S
H2172 C2106 0.961 . S
H2173 C2106 0.961 . S
H2174 C2106 0.959 . S
H2175 C2109 0.932 . S
H2176 C2113 0.929 . S
H2177 C2114 0.961 . S
H2178 C2114 0.959 . S
H2179 C2114 0.959 . S
H2180 C2115 0.960 . S
H2181 C2115 0.962 . S
H2182 C2115 0.961 . S
H2183 C2117 0.929 . S
H2184 C2120 0.930 . S
H2185 C2121 0.929 . S
H2186 C2124 0.930 . S
H2187 C2127 0.929 . S
H2188 C2128 0.930 . S
H2189 C2132 0.962 . S
H2190 C2132 0.959 . S
H2191 C2132 0.958 . S
C2192 C2193 1.560 . S
C2192 H2253 0.959 . S
C2192 H2254 0.959 . S
C2192 H2255 0.960 . S
C2193 C2192 1.560 . S
C2193 O2248 1.426 . S
C2193 H2252 0.980 . S
C2194 C2195 1.407 . S
C2194 C2199 1.418 . S
C2194 O2248 1.334 . S
C2195 C2194 1.407 . S
C2195 C2196 1.360 . S
C2195 H2256 0.929 . S
C2196 C2195 1.360 . S
C2196 C2197 1.401 . S
C2196 C2200 1.527 . S
C2197 C2196 1.401 . S
C2197 C2198 1.405 . S
C2197 C2230 1.587 . S
C2198 C2197 1.405 . S
C2198 C2199 1.332 . S
C2198 C2201 1.496 . S
C2199 C2194 1.418 . S
C2199 C2198 1.332 . S
C2199 H2257 0.929 . S
C2200 C2196 1.527 . S
C2200 H2258 0.959 . S
C2200 H2259 0.961 . S
C2200 H2260 0.961 . S
C2201 C2198 1.496 . S
C2201 H2261 0.960 . S
C2201 H2262 0.960 . S
C2201 H2263 0.961 . S
C2202 C2203 1.517 . S
C2202 H2265 0.961 . S
C2202 H2266 0.960 . S
C2202 H2267 0.959 . S
C2203 C2202 1.517 . S
C2203 O2251 1.468 . S
C2203 H2264 0.980 . S
C2204 C2205 1.349 . S
C2204 C2209 1.367 . S
C2204 O2251 1.408 . S
C2205 C2204 1.349 . S
C2205 C2206 1.407 . S
C2205 H2268 0.930 . S
C2206 C2205 1.407 . S
C2206 C2207 1.449 . S
C2206 C2210 1.535 . S
C2207 C2206 1.449 . S
C2207 C2208 1.384 . S
C2207 C2232 1.553 . S
C2208 C2207 1.384 . S
C2208 C2209 1.364 . S
C2208 C2211 1.450 . S
C2209 C2204 1.367 . S
C2209 C2208 1.364 . S
C2209 H2269 0.931 . S
C2210 C2206 1.535 . S
C2210 H2270 0.959 . S
C2210 H2271 0.961 . S
C2210 H2272 0.959 . S
C2211 C2208 1.450 . S
C2211 H2273 0.960 . S
C2211 H2274 0.960 . S
C2211 H2275 0.960 . S
C2212 C2213 1.309 . S
C2212 C2217 1.304 . S
C2212 O2250 1.435 . S
C2213 C2212 1.309 . S
C2213 C2214 1.476 . S
C2213 H2277 0.930 . S
C2214 C2213 1.476 . S
C2214 C2215 1.400 . S
C2214 C2218 1.567 . S
C2215 C2214 1.400 . S
C2215 C2216 1.373 . S
C2215 C2237 1.432 . S
C2216 C2215 1.373 . S
C2216 C2217 1.339 . S
C2216 C2219 1.530 . S
C2217 C2212 1.304 . S
C2217 C2216 1.339 . S
C2217 H2278 0.930 . S
C2218 C2214 1.567 . S
C2218 H2279 0.961 . S
C2218 H2280 0.960 . S
C2218 H2281 0.958 . S
C2219 C2216 1.530 . S
C2219 H2282 0.961 . S
C2219 H2283 0.960 . S
C2219 H2284 0.960 . S
C2220 C2221 1.530 . S
C2220 H2286 0.961 . S
C2220 H2287 0.961 . S
C2220 H2288 0.959 . S
C2221 C2220 1.530 . S
C2221 O2249 1.412 . S
C2221 H2285 0.980 . S
C2222 C2223 1.288 . S
C2222 C2227 1.377 . S
C2222 O2249 1.393 . S
C2223 C2222 1.288 . S
C2223 C2224 1.369 . S
C2223 H2289 0.932 . S
C2224 C2223 1.369 . S
C2224 C2225 1.398 . S
C2224 C2228 1.527 . S
C2225 C2224 1.398 . S
C2225 C2226 1.380 . S
C2225 C2239 1.497 . S
C2226 C2225 1.380 . S
C2226 C2227 1.383 . S
C2226 C2229 1.603 . S
C2227 C2222 1.377 . S
C2227 C2226 1.383 . S
C2227 H2290 0.929 . S
C2228 C2224 1.527 . S
C2228 H2291 0.961 . S
C2228 H2292 0.959 . S
C2228 H2293 0.959 . S
C2229 C2226 1.603 . S
C2229 H2294 0.960 . S
C2229 H2295 0.962 . S
C2229 H2296 0.961 . S
C2230 C2197 1.587 . S
C2230 C2231 1.360 1_655 S
C2230 C2243 1.412 . S
C2231 C2230 1.360 1_455 S
C2231 C2232 1.365 . S
C2231 H2297 0.929 . S
C2232 C2207 1.553 . S
C2232 C2231 1.365 . S
C2232 C2233 1.404 . S
C2233 C2232 1.404 . S
C2233 C2234 1.395 . S
C2233 C2244 1.451 . S
C2234 C2233 1.395 . S
C2234 C2235 1.322 . S
C2234 H2298 0.930 . S
C2235 C2234 1.322 . S
C2235 C2236 1.459 . S
C2235 H2299 0.929 . S
C2236 C2235 1.459 . S
C2236 C2237 1.445 . S
C2236 C2245 1.395 . S
C2237 C2215 1.432 . S
C2237 C2236 1.445 . S
C2237 C2238 1.370 . S
C2238 C2237 1.370 . S
C2238 C2239 1.438 1_455 S
C2238 H2300 0.930 . S
C2239 C2225 1.497 . S
C2239 C2238 1.438 1_655 S
C2239 C2240 1.360 . S
C2240 C2239 1.360 . S
C2240 C2241 1.401 . S
C2240 C2245 1.446 1_655 S
C2241 C2240 1.401 . S
C2241 C2242 1.347 . S
C2241 H2301 0.929 . S
C2242 C2241 1.347 . S
C2242 C2243 1.455 . S
C2242 H2302 0.930 . S
C2243 C2230 1.412 . S
C2243 C2242 1.455 . S
C2243 C2244 1.331 1_655 S
C2244 C2233 1.451 . S
C2244 C2243 1.331 1_455 S
C2244 C2245 1.497 . S
C2245 C2236 1.395 . S
C2245 C2240 1.446 1_455 S
C2245 C2244 1.497 . S
C2246 C2247 1.582 . S
C2246 H2303 0.962 . S
C2246 H2304 0.959 . S
C2246 H2305 0.958 . S
C2247 C2246 1.582 . S
C2247 O2250 1.458 . S
C2247 H2276 0.980 . S
O2248 C2193 1.426 . S
O2248 C2194 1.334 . S
O2249 C2221 1.412 . S
O2249 C2222 1.393 . S
O2250 C2212 1.435 . S
O2250 C2247 1.458 . S
O2251 C2203 1.468 . S
O2251 C2204 1.408 . S
H2252 C2193 0.980 . S
H2253 C2192 0.959 . S
H2254 C2192 0.959 . S
H2255 C2192 0.960 . S
H2256 C2195 0.929 . S
H2257 C2199 0.929 . S
H2258 C2200 0.959 . S
H2259 C2200 0.961 . S
H2260 C2200 0.961 . S
H2261 C2201 0.960 . S
H2262 C2201 0.960 . S
H2263 C2201 0.961 . S
H2264 C2203 0.980 . S
H2265 C2202 0.961 . S
H2266 C2202 0.960 . S
H2267 C2202 0.959 . S
H2268 C2205 0.930 . S
H2269 C2209 0.931 . S
H2270 C2210 0.959 . S
H2271 C2210 0.961 . S
H2272 C2210 0.959 . S
H2273 C2211 0.960 . S
H2274 C2211 0.960 . S
H2275 C2211 0.960 . S
H2276 C2247 0.980 . S
H2277 C2213 0.930 . S
H2278 C2217 0.930 . S
H2279 C2218 0.961 . S
H2280 C2218 0.960 . S
H2281 C2218 0.958 . S
H2282 C2219 0.961 . S
H2283 C2219 0.960 . S
H2284 C2219 0.960 . S
H2285 C2221 0.980 . S
H2286 C2220 0.961 . S
H2287 C2220 0.961 . S
H2288 C2220 0.959 . S
H2289 C2223 0.932 . S
H2290 C2227 0.929 . S
H2291 C2228 0.961 . S
H2292 C2228 0.959 . S
H2293 C2228 0.959 . S
H2294 C2229 0.960 . S
H2295 C2229 0.962 . S
H2296 C2229 0.961 . S
H2297 C2231 0.929 . S
H2298 C2234 0.930 . S
H2299 C2235 0.929 . S
H2300 C2238 0.930 . S
H2301 C2241 0.929 . S
H2302 C2242 0.930 . S
H2303 C2246 0.962 . S
H2304 C2246 0.959 . S
H2305 C2246 0.958 . S
C2306 C2307 1.560 . S
C2306 H2367 0.959 . S
C2306 H2368 0.959 . S
C2306 H2369 0.960 . S
C2307 C2306 1.560 . S
C2307 O2362 1.426 . S
C2307 H2366 0.980 . S
C2308 C2309 1.407 . S
C2308 C2313 1.418 . S
C2308 O2362 1.334 . S
C2309 C2308 1.407 . S
C2309 C2310 1.360 . S
C2309 H2370 0.929 . S
C2310 C2309 1.360 . S
C2310 C2311 1.401 . S
C2310 C2314 1.527 . S
C2311 C2310 1.401 . S
C2311 C2312 1.405 . S
C2311 C2344 1.587 . S
C2312 C2311 1.405 . S
C2312 C2313 1.332 . S
C2312 C2315 1.496 . S
C2313 C2308 1.418 . S
C2313 C2312 1.332 . S
C2313 H2371 0.929 . S
C2314 C2310 1.527 . S
C2314 H2372 0.959 . S
C2314 H2373 0.961 . S
C2314 H2374 0.961 . S
C2315 C2312 1.496 . S
C2315 H2375 0.960 . S
C2315 H2376 0.960 . S
C2315 H2377 0.961 . S
C2316 C2317 1.517 . S
C2316 H2379 0.961 . S
C2316 H2380 0.960 . S
C2316 H2381 0.959 . S
C2317 C2316 1.517 . S
C2317 O2365 1.468 . S
C2317 H2378 0.980 . S
C2318 C2319 1.349 . S
C2318 C2323 1.367 . S
C2318 O2365 1.408 . S
C2319 C2318 1.349 . S
C2319 C2320 1.407 . S
C2319 H2382 0.930 . S
C2320 C2319 1.407 . S
C2320 C2321 1.449 . S
C2320 C2324 1.535 . S
C2321 C2320 1.449 . S
C2321 C2322 1.384 . S
C2321 C2346 1.553 . S
C2322 C2321 1.384 . S
C2322 C2323 1.364 . S
C2322 C2325 1.450 . S
C2323 C2318 1.367 . S
C2323 C2322 1.364 . S
C2323 H2383 0.931 . S
C2324 C2320 1.535 . S
C2324 H2384 0.959 . S
C2324 H2385 0.961 . S
C2324 H2386 0.959 . S
C2325 C2322 1.450 . S
C2325 H2387 0.960 . S
C2325 H2388 0.960 . S
C2325 H2389 0.960 . S
C2326 C2327 1.309 . S
C2326 C2331 1.304 . S
C2326 O2364 1.435 . S
C2327 C2326 1.309 . S
C2327 C2328 1.476 . S
C2327 H2391 0.930 . S
C2328 C2327 1.476 . S
C2328 C2329 1.400 . S
C2328 C2332 1.567 . S
C2329 C2328 1.400 . S
C2329 C2330 1.373 . S
C2329 C2351 1.432 . S
C2330 C2329 1.373 . S
C2330 C2331 1.339 . S
C2330 C2333 1.530 . S
C2331 C2326 1.304 . S
C2331 C2330 1.339 . S
C2331 H2392 0.930 . S
C2332 C2328 1.567 . S
C2332 H2393 0.961 . S
C2332 H2394 0.960 . S
C2332 H2395 0.958 . S
C2333 C2330 1.530 . S
C2333 H2396 0.961 . S
C2333 H2397 0.960 . S
C2333 H2398 0.960 . S
C2334 C2335 1.530 . S
C2334 H2400 0.961 . S
C2334 H2401 0.961 . S
C2334 H2402 0.959 . S
C2335 C2334 1.530 . S
C2335 O2363 1.412 . S
C2335 H2399 0.980 . S
C2336 C2337 1.288 . S
C2336 C2341 1.377 . S
C2336 O2363 1.393 . S
C2337 C2336 1.288 . S
C2337 C2338 1.369 . S
C2337 H2403 0.932 . S
C2338 C2337 1.369 . S
C2338 C2339 1.398 . S
C2338 C2342 1.527 . S
C2339 C2338 1.398 . S
C2339 C2340 1.380 . S
C2339 C2353 1.497 . S
C2340 C2339 1.380 . S
C2340 C2341 1.383 . S
C2340 C2343 1.603 . S
C2341 C2336 1.377 . S
C2341 C2340 1.383 . S
C2341 H2404 0.929 . S
C2342 C2338 1.527 . S
C2342 H2405 0.961 . S
C2342 H2406 0.959 . S
C2342 H2407 0.959 . S
C2343 C2340 1.603 . S
C2343 H2408 0.960 . S
C2343 H2409 0.962 . S
C2343 H2410 0.961 . S
C2344 C2311 1.587 . S
C2344 C2345 1.360 . S
C2344 C2357 1.412 . S
C2345 C2344 1.360 . S
C2345 C2346 1.365 1_545 S
C2345 H2411 0.929 . S
C2346 C2321 1.553 . S
C2346 C2345 1.365 1_565 S
C2346 C2347 1.404 . S
C2347 C2346 1.404 . S
C2347 C2348 1.395 . S
C2347 C2358 1.451 1_565 S
C2348 C2347 1.395 . S
C2348 C2349 1.322 . S
C2348 H2412 0.930 . S
C2349 C2348 1.322 . S
C2349 C2350 1.459 . S
C2349 H2413 0.929 . S
C2350 C2349 1.459 . S
C2350 C2351 1.445 . S
C2350 C2359 1.395 1_565 S
C2351 C2329 1.432 . S
C2351 C2350 1.445 . S
C2351 C2352 1.370 1_565 S
C2352 C2351 1.370 1_545 S
C2352 C2353 1.438 . S
C2352 H2414 0.930 . S
C2353 C2339 1.497 . S
C2353 C2352 1.438 . S
C2353 C2354 1.360 . S
C2354 C2353 1.360 . S
C2354 C2355 1.401 . S
C2354 C2359 1.446 . S
C2355 C2354 1.401 . S
C2355 C2356 1.347 . S
C2355 H2415 0.929 . S
C2356 C2355 1.347 . S
C2356 C2357 1.455 . S
C2356 H2416 0.930 . S
C2357 C2344 1.412 . S
C2357 C2356 1.455 . S
C2357 C2358 1.331 . S
C2358 C2347 1.451 1_545 S
C2358 C2357 1.331 . S
C2358 C2359 1.497 . S
C2359 C2350 1.395 1_545 S
C2359 C2354 1.446 . S
C2359 C2358 1.497 . S
C2360 C2361 1.582 . S
C2360 H2417 0.962 . S
C2360 H2418 0.959 . S
C2360 H2419 0.958 . S
C2361 C2360 1.582 . S
C2361 O2364 1.458 . S
C2361 H2390 0.980 . S
O2362 C2307 1.426 . S
O2362 C2308 1.334 . S
O2363 C2335 1.412 . S
O2363 C2336 1.393 . S
O2364 C2326 1.435 . S
O2364 C2361 1.458 . S
O2365 C2317 1.468 . S
O2365 C2318 1.408 . S
H2366 C2307 0.980 . S
H2367 C2306 0.959 . S
H2368 C2306 0.959 . S
H2369 C2306 0.960 . S
H2370 C2309 0.929 . S
H2371 C2313 0.929 . S
H2372 C2314 0.959 . S
H2373 C2314 0.961 . S
H2374 C2314 0.961 . S
H2375 C2315 0.960 . S
H2376 C2315 0.960 . S
H2377 C2315 0.961 . S
H2378 C2317 0.980 . S
H2379 C2316 0.961 . S
H2380 C2316 0.960 . S
H2381 C2316 0.959 . S
H2382 C2319 0.930 . S
H2383 C2323 0.931 . S
H2384 C2324 0.959 . S
H2385 C2324 0.961 . S
H2386 C2324 0.959 . S
H2387 C2325 0.960 . S
H2388 C2325 0.960 . S
H2389 C2325 0.960 . S
H2390 C2361 0.980 . S
H2391 C2327 0.930 . S
H2392 C2331 0.930 . S
H2393 C2332 0.961 . S
H2394 C2332 0.960 . S
H2395 C2332 0.958 . S
H2396 C2333 0.961 . S
H2397 C2333 0.960 . S
H2398 C2333 0.960 . S
H2399 C2335 0.980 . S
H2400 C2334 0.961 . S
H2401 C2334 0.961 . S
H2402 C2334 0.959 . S
H2403 C2337 0.932 . S
H2404 C2341 0.929 . S
H2405 C2342 0.961 . S
H2406 C2342 0.959 . S
H2407 C2342 0.959 . S
H2408 C2343 0.960 . S
H2409 C2343 0.962 . S
H2410 C2343 0.961 . S
H2411 C2345 0.929 . S
H2412 C2348 0.930 . S
H2413 C2349 0.929 . S
H2414 C2352 0.930 . S
H2415 C2355 0.929 . S
H2416 C2356 0.930 . S
H2417 C2360 0.962 . S
H2418 C2360 0.959 . S
H2419 C2360 0.958 . S
C2420 C2421 1.560 . S
C2420 H2481 0.959 . S
C2420 H2482 0.959 . S
C2420 H2483 0.960 . S
C2421 C2420 1.560 . S
C2421 O2476 1.426 . S
C2421 H2480 0.980 . S
C2422 C2423 1.407 . S
C2422 C2427 1.418 . S
C2422 O2476 1.334 . S
C2423 C2422 1.407 . S
C2423 C2424 1.360 . S
C2423 H2484 0.929 . S
C2424 C2423 1.360 . S
C2424 C2425 1.401 . S
C2424 C2428 1.527 . S
C2425 C2424 1.401 . S
C2425 C2426 1.405 . S
C2425 C2458 1.587 . S
C2426 C2425 1.405 . S
C2426 C2427 1.332 . S
C2426 C2429 1.496 . S
C2427 C2422 1.418 . S
C2427 C2426 1.332 . S
C2427 H2485 0.929 . S
C2428 C2424 1.527 . S
C2428 H2486 0.959 . S
C2428 H2487 0.961 . S
C2428 H2488 0.961 . S
C2429 C2426 1.496 . S
C2429 H2489 0.960 . S
C2429 H2490 0.960 . S
C2429 H2491 0.961 . S
C2430 C2431 1.517 . S
C2430 H2493 0.961 . S
C2430 H2494 0.960 . S
C2430 H2495 0.959 . S
C2431 C2430 1.517 . S
C2431 O2479 1.468 . S
C2431 H2492 0.980 . S
C2432 C2433 1.349 . S
C2432 C2437 1.367 . S
C2432 O2479 1.408 . S
C2433 C2432 1.349 . S
C2433 C2434 1.407 . S
C2433 H2496 0.930 . S
C2434 C2433 1.407 . S
C2434 C2435 1.449 . S
C2434 C2438 1.535 . S
C2435 C2434 1.449 . S
C2435 C2436 1.384 . S
C2435 C2460 1.553 . S
C2436 C2435 1.384 . S
C2436 C2437 1.364 . S
C2436 C2439 1.450 . S
C2437 C2432 1.367 . S
C2437 C2436 1.364 . S
C2437 H2497 0.931 . S
C2438 C2434 1.535 . S
C2438 H2498 0.959 . S
C2438 H2499 0.961 . S
C2438 H2500 0.959 . S
C2439 C2436 1.450 . S
C2439 H2501 0.960 . S
C2439 H2502 0.960 . S
C2439 H2503 0.960 . S
C2440 C2441 1.309 . S
C2440 C2445 1.304 . S
C2440 O2478 1.435 . S
C2441 C2440 1.309 . S
C2441 C2442 1.476 . S
C2441 H2505 0.930 . S
C2442 C2441 1.476 . S
C2442 C2443 1.400 . S
C2442 C2446 1.567 . S
C2443 C2442 1.400 . S
C2443 C2444 1.373 . S
C2443 C2465 1.432 . S
C2444 C2443 1.373 . S
C2444 C2445 1.339 . S
C2444 C2447 1.530 . S
C2445 C2440 1.304 . S
C2445 C2444 1.339 . S
C2445 H2506 0.930 . S
C2446 C2442 1.567 . S
C2446 H2507 0.961 . S
C2446 H2508 0.960 . S
C2446 H2509 0.958 . S
C2447 C2444 1.530 . S
C2447 H2510 0.961 . S
C2447 H2511 0.960 . S
C2447 H2512 0.960 . S
C2448 C2449 1.530 . S
C2448 H2514 0.961 . S
C2448 H2515 0.961 . S
C2448 H2516 0.959 . S
C2449 C2448 1.530 . S
C2449 O2477 1.412 . S
C2449 H2513 0.980 . S
C2450 C2451 1.288 . S
C2450 C2455 1.377 . S
C2450 O2477 1.393 . S
C2451 C2450 1.288 . S
C2451 C2452 1.369 . S
C2451 H2517 0.932 . S
C2452 C2451 1.369 . S
C2452 C2453 1.398 . S
C2452 C2456 1.527 . S
C2453 C2452 1.398 . S
C2453 C2454 1.380 . S
C2453 C2467 1.497 . S
C2454 C2453 1.380 . S
C2454 C2455 1.383 . S
C2454 C2457 1.603 . S
C2455 C2450 1.377 . S
C2455 C2454 1.383 . S
C2455 H2518 0.929 . S
C2456 C2452 1.527 . S
C2456 H2519 0.961 . S
C2456 H2520 0.959 . S
C2456 H2521 0.959 . S
C2457 C2454 1.603 . S
C2457 H2522 0.960 . S
C2457 H2523 0.962 . S
C2457 H2524 0.961 . S
C2458 C2425 1.587 . S
C2458 C2459 1.347 1_655 S
C2458 C2471 1.412 . S
C2459 C2458 1.347 1_455 S
C2459 C2460 1.378 . S
C2459 H2525 0.929 . S
C2460 C2435 1.553 . S
C2460 C2459 1.378 . S
C2460 C2461 1.404 . S
C2461 C2460 1.404 . S
C2461 C2462 1.395 . S
C2461 C2472 1.458 . S
C2462 C2461 1.395 . S
C2462 C2463 1.322 . S
C2462 H2526 0.930 . S
C2463 C2462 1.322 . S
C2463 C2464 1.459 . S
C2463 H2527 0.929 . S
C2464 C2463 1.459 . S
C2464 C2465 1.445 . S
C2464 C2473 1.452 . S
C2465 C2443 1.432 . S
C2465 C2464 1.445 . S
C2465 C2466 1.370 . S
C2466 C2465 1.370 . S
C2466 C2467 1.438 1_455 S
C2466 H2528 0.930 . S
C2467 C2453 1.497 . S
C2467 C2466 1.438 1_655 S
C2467 C2468 1.360 . S
C2468 C2467 1.360 . S
C2468 C2469 1.401 . S
C2468 C2473 1.392 1_655 S
C2469 C2468 1.401 . S
C2469 C2470 1.347 . S
C2469 H2529 0.929 . S
C2470 C2469 1.347 . S
C2470 C2471 1.455 . S
C2470 H2530 0.930 . S
C2471 C2458 1.412 . S
C2471 C2470 1.455 . S
C2471 C2472 1.324 1_655 S
C2472 C2461 1.458 . S
C2472 C2471 1.324 1_455 S
C2472 C2473 1.495 . S
C2473 C2464 1.452 . S
C2473 C2468 1.392 1_455 S
C2473 C2472 1.495 . S
C2474 C2475 1.582 . S
C2474 H2531 0.962 . S
C2474 H2532 0.959 . S
C2474 H2533 0.958 . S
C2475 C2474 1.582 . S
C2475 O2478 1.458 . S
C2475 H2504 0.980 . S
O2476 C2421 1.426 . S
O2476 C2422 1.334 . S
O2477 C2449 1.412 . S
O2477 C2450 1.393 . S
O2478 C2440 1.435 . S
O2478 C2475 1.458 . S
O2479 C2431 1.468 . S
O2479 C2432 1.408 . S
H2480 C2421 0.980 . S
H2481 C2420 0.959 . S
H2482 C2420 0.959 . S
H2483 C2420 0.960 . S
H2484 C2423 0.929 . S
H2485 C2427 0.929 . S
H2486 C2428 0.959 . S
H2487 C2428 0.961 . S
H2488 C2428 0.961 . S
H2489 C2429 0.960 . S
H2490 C2429 0.960 . S
H2491 C2429 0.961 . S
H2492 C2431 0.980 . S
H2493 C2430 0.961 . S
H2494 C2430 0.960 . S
H2495 C2430 0.959 . S
H2496 C2433 0.930 . S
H2497 C2437 0.931 . S
H2498 C2438 0.959 . S
H2499 C2438 0.961 . S
H2500 C2438 0.959 . S
H2501 C2439 0.960 . S
H2502 C2439 0.960 . S
H2503 C2439 0.960 . S
H2504 C2475 0.980 . S
H2505 C2441 0.930 . S
H2506 C2445 0.930 . S
H2507 C2446 0.961 . S
H2508 C2446 0.960 . S
H2509 C2446 0.958 . S
H2510 C2447 0.961 . S
H2511 C2447 0.960 . S
H2512 C2447 0.960 . S
H2513 C2449 0.980 . S
H2514 C2448 0.961 . S
H2515 C2448 0.961 . S
H2516 C2448 0.959 . S
H2517 C2451 0.932 . S
H2518 C2455 0.929 . S
H2519 C2456 0.961 . S
H2520 C2456 0.959 . S
H2521 C2456 0.959 . S
H2522 C2457 0.960 . S
H2523 C2457 0.962 . S
H2524 C2457 0.961 . S
H2525 C2459 0.929 . S
H2526 C2462 0.930 . S
H2527 C2463 0.929 . S
H2528 C2466 0.930 . S
H2529 C2469 0.929 . S
H2530 C2470 0.930 . S
H2531 C2474 0.962 . S
H2532 C2474 0.959 . S
H2533 C2474 0.958 . S
C2534 C2535 1.560 . S
C2534 H2595 0.959 . S
C2534 H2596 0.959 . S
C2534 H2597 0.960 . S
C2535 C2534 1.560 . S
C2535 O2590 1.426 . S
C2535 H2594 0.980 . S
C2536 C2537 1.407 . S
C2536 C2541 1.418 . S
C2536 O2590 1.334 . S
C2537 C2536 1.407 . S
C2537 C2538 1.360 . S
C2537 H2598 0.929 . S
C2538 C2537 1.360 . S
C2538 C2539 1.401 . S
C2538 C2542 1.527 . S
C2539 C2538 1.401 . S
C2539 C2540 1.405 . S
C2539 C2572 1.587 . S
C2540 C2539 1.405 . S
C2540 C2541 1.332 . S
C2540 C2543 1.496 . S
C2541 C2536 1.418 . S
C2541 C2540 1.332 . S
C2541 H2599 0.929 . S
C2542 C2538 1.527 . S
C2542 H2600 0.959 . S
C2542 H2601 0.961 . S
C2542 H2602 0.961 . S
C2543 C2540 1.496 . S
C2543 H2603 0.960 . S
C2543 H2604 0.960 . S
C2543 H2605 0.961 . S
C2544 C2545 1.517 . S
C2544 H2607 0.961 . S
C2544 H2608 0.960 . S
C2544 H2609 0.959 . S
C2545 C2544 1.517 . S
C2545 O2593 1.468 . S
C2545 H2606 0.980 . S
C2546 C2547 1.349 . S
C2546 C2551 1.367 . S
C2546 O2593 1.408 . S
C2547 C2546 1.349 . S
C2547 C2548 1.407 . S
C2547 H2610 0.930 . S
C2548 C2547 1.407 . S
C2548 C2549 1.449 . S
C2548 C2552 1.535 . S
C2549 C2548 1.449 . S
C2549 C2550 1.384 . S
C2549 C2574 1.553 . S
C2550 C2549 1.384 . S
C2550 C2551 1.364 . S
C2550 C2553 1.450 . S
C2551 C2546 1.367 . S
C2551 C2550 1.364 . S
C2551 H2611 0.931 . S
C2552 C2548 1.535 . S
C2552 H2612 0.959 . S
C2552 H2613 0.961 . S
C2552 H2614 0.959 . S
C2553 C2550 1.450 . S
C2553 H2615 0.960 . S
C2553 H2616 0.960 . S
C2553 H2617 0.960 . S
C2554 C2555 1.309 . S
C2554 C2559 1.304 . S
C2554 O2592 1.435 . S
C2555 C2554 1.309 . S
C2555 C2556 1.476 . S
C2555 H2619 0.930 . S
C2556 C2555 1.476 . S
C2556 C2557 1.400 . S
C2556 C2560 1.567 . S
C2557 C2556 1.400 . S
C2557 C2558 1.373 . S
C2557 C2579 1.432 . S
C2558 C2557 1.373 . S
C2558 C2559 1.339 . S
C2558 C2561 1.530 . S
C2559 C2554 1.304 . S
C2559 C2558 1.339 . S
C2559 H2620 0.930 . S
C2560 C2556 1.567 . S
C2560 H2621 0.961 . S
C2560 H2622 0.960 . S
C2560 H2623 0.958 . S
C2561 C2558 1.530 . S
C2561 H2624 0.961 . S
C2561 H2625 0.960 . S
C2561 H2626 0.960 . S
C2562 C2563 1.530 . S
C2562 H2628 0.961 . S
C2562 H2629 0.961 . S
C2562 H2630 0.959 . S
C2563 C2562 1.530 . S
C2563 O2591 1.412 . S
C2563 H2627 0.980 . S
C2564 C2565 1.288 . S
C2564 C2569 1.377 . S
C2564 O2591 1.393 . S
C2565 C2564 1.288 . S
C2565 C2566 1.369 . S
C2565 H2631 0.932 . S
C2566 C2565 1.369 . S
C2566 C2567 1.398 . S
C2566 C2570 1.527 . S
C2567 C2566 1.398 . S
C2567 C2568 1.380 . S
C2567 C2581 1.497 . S
C2568 C2567 1.380 . S
C2568 C2569 1.383 . S
C2568 C2571 1.603 . S
C2569 C2564 1.377 . S
C2569 C2568 1.383 . S
C2569 H2632 0.929 . S
C2570 C2566 1.527 . S
C2570 H2633 0.961 . S
C2570 H2634 0.959 . S
C2570 H2635 0.959 . S
C2571 C2568 1.603 . S
C2571 H2636 0.960 . S
C2571 H2637 0.962 . S
C2571 H2638 0.961 . S
C2572 C2539 1.587 . S
C2572 C2573 1.366 . S
C2572 C2585 1.412 . S
C2573 C2572 1.366 . S
C2573 C2574 1.359 1_565 S
C2573 H2639 0.929 . S
C2574 C2549 1.553 . S
C2574 C2573 1.359 1_545 S
C2574 C2575 1.404 . S
C2575 C2574 1.404 . S
C2575 C2576 1.395 . S
C2575 C2586 1.448 . S
C2576 C2575 1.395 . S
C2576 C2577 1.322 . S
C2576 H2640 0.930 . S
C2577 C2576 1.322 . S
C2577 C2578 1.459 . S
C2577 H2641 0.929 . S
C2578 C2577 1.459 . S
C2578 C2579 1.445 . S
C2578 C2587 1.459 . S
C2579 C2557 1.432 . S
C2579 C2578 1.445 . S
C2579 C2580 1.370 . S
C2580 C2579 1.370 . S
C2580 C2581 1.438 1_545 S
C2580 H2642 0.930 . S
C2581 C2567 1.497 . S
C2581 C2580 1.438 1_565 S
C2581 C2582 1.360 . S
C2582 C2581 1.360 . S
C2582 C2583 1.401 . S
C2582 C2587 1.386 1_565 S
C2583 C2582 1.401 . S
C2583 C2584 1.347 . S
C2583 H2643 0.929 . S
C2584 C2583 1.347 . S
C2584 C2585 1.455 . S
C2584 H2644 0.930 . S
C2585 C2572 1.412 . S
C2585 C2584 1.455 . S
C2585 C2586 1.334 1_565 S
C2586 C2575 1.448 . S
C2586 C2585 1.334 1_545 S
C2586 C2587 1.494 . S
C2587 C2578 1.459 . S
C2587 C2582 1.386 1_545 S
C2587 C2586 1.494 . S
C2588 C2589 1.582 . S
C2588 H2645 0.962 . S
C2588 H2646 0.959 . S
C2588 H2647 0.958 . S
C2589 C2588 1.582 . S
C2589 O2592 1.458 . S
C2589 H2618 0.980 . S
O2590 C2535 1.426 . S
O2590 C2536 1.334 . S
O2591 C2563 1.412 . S
O2591 C2564 1.393 . S
O2592 C2554 1.435 . S
O2592 C2589 1.458 . S
O2593 C2545 1.468 . S
O2593 C2546 1.408 . S
H2594 C2535 0.980 . S
H2595 C2534 0.959 . S
H2596 C2534 0.959 . S
H2597 C2534 0.960 . S
H2598 C2537 0.929 . S
H2599 C2541 0.929 . S
H2600 C2542 0.959 . S
H2601 C2542 0.961 . S
H2602 C2542 0.961 . S
H2603 C2543 0.960 . S
H2604 C2543 0.960 . S
H2605 C2543 0.961 . S
H2606 C2545 0.980 . S
H2607 C2544 0.961 . S
H2608 C2544 0.960 . S
H2609 C2544 0.959 . S
H2610 C2547 0.930 . S
H2611 C2551 0.931 . S
H2612 C2552 0.959 . S
H2613 C2552 0.961 . S
H2614 C2552 0.959 . S
H2615 C2553 0.960 . S
H2616 C2553 0.960 . S
H2617 C2553 0.960 . S
H2618 C2589 0.980 . S
H2619 C2555 0.930 . S
H2620 C2559 0.930 . S
H2621 C2560 0.961 . S
H2622 C2560 0.960 . S
H2623 C2560 0.958 . S
H2624 C2561 0.961 . S
H2625 C2561 0.960 . S
H2626 C2561 0.960 . S
H2627 C2563 0.980 . S
H2628 C2562 0.961 . S
H2629 C2562 0.961 . S
H2630 C2562 0.959 . S
H2631 C2565 0.932 . S
H2632 C2569 0.929 . S
H2633 C2570 0.961 . S
H2634 C2570 0.959 . S
H2635 C2570 0.959 . S
H2636 C2571 0.960 . S
H2637 C2571 0.962 . S
H2638 C2571 0.961 . S
H2639 C2573 0.929 . S
H2640 C2576 0.930 . S
H2641 C2577 0.929 . S
H2642 C2580 0.930 . S
H2643 C2583 0.929 . S
H2644 C2584 0.930 . S
H2645 C2588 0.962 . S
H2646 C2588 0.959 . S
H2647 C2588 0.958 . S
C2648 C2649 1.560 . S
C2648 H2709 0.959 . S
C2648 H2710 0.959 . S
C2648 H2711 0.960 . S
C2649 C2648 1.560 . S
C2649 O2704 1.426 . S
C2649 H2708 0.980 . S
C2650 C2651 1.407 . S
C2650 C2655 1.418 . S
C2650 O2704 1.334 . S
C2651 C2650 1.407 . S
C2651 C2652 1.360 . S
C2651 H2712 0.929 . S
C2652 C2651 1.360 . S
C2652 C2653 1.401 . S
C2652 C2656 1.527 . S
C2653 C2652 1.401 . S
C2653 C2654 1.405 . S
C2653 C2686 1.587 . S
C2654 C2653 1.405 . S
C2654 C2655 1.332 . S
C2654 C2657 1.496 . S
C2655 C2650 1.418 . S
C2655 C2654 1.332 . S
C2655 H2713 0.929 . S
C2656 C2652 1.527 . S
C2656 H2714 0.959 . S
C2656 H2715 0.961 . S
C2656 H2716 0.961 . S
C2657 C2654 1.496 . S
C2657 H2717 0.960 . S
C2657 H2718 0.960 . S
C2657 H2719 0.961 . S
C2658 C2659 1.517 . S
C2658 H2721 0.961 . S
C2658 H2722 0.960 . S
C2658 H2723 0.959 . S
C2659 C2658 1.517 . S
C2659 O2707 1.468 . S
C2659 H2720 0.980 . S
C2660 C2661 1.349 . S
C2660 C2665 1.367 . S
C2660 O2707 1.408 . S
C2661 C2660 1.349 . S
C2661 C2662 1.407 . S
C2661 H2724 0.930 . S
C2662 C2661 1.407 . S
C2662 C2663 1.449 . S
C2662 C2666 1.535 . S
C2663 C2662 1.449 . S
C2663 C2664 1.384 . S
C2663 C2688 1.553 . S
C2664 C2663 1.384 . S
C2664 C2665 1.364 . S
C2664 C2667 1.450 . S
C2665 C2660 1.367 . S
C2665 C2664 1.364 . S
C2665 H2725 0.931 . S
C2666 C2662 1.535 . S
C2666 H2726 0.959 . S
C2666 H2727 0.961 . S
C2666 H2728 0.959 . S
C2667 C2664 1.450 . S
C2667 H2729 0.960 . S
C2667 H2730 0.960 . S
C2667 H2731 0.960 . S
C2668 C2669 1.309 . S
C2668 C2673 1.304 . S
C2668 O2706 1.435 . S
C2669 C2668 1.309 . S
C2669 C2670 1.476 . S
C2669 H2733 0.930 . S
C2670 C2669 1.476 . S
C2670 C2671 1.400 . S
C2670 C2674 1.567 . S
C2671 C2670 1.400 . S
C2671 C2672 1.373 . S
C2671 C2693 1.432 . S
C2672 C2671 1.373 . S
C2672 C2673 1.339 . S
C2672 C2675 1.530 . S
C2673 C2668 1.304 . S
C2673 C2672 1.339 . S
C2673 H2734 0.930 . S
C2674 C2670 1.567 . S
C2674 H2735 0.961 . S
C2674 H2736 0.960 . S
C2674 H2737 0.958 . S
C2675 C2672 1.530 . S
C2675 H2738 0.961 . S
C2675 H2739 0.960 . S
C2675 H2740 0.960 . S
C2676 C2677 1.530 . S
C2676 H2742 0.961 . S
C2676 H2743 0.961 . S
C2676 H2744 0.959 . S
C2677 C2676 1.530 . S
C2677 O2705 1.412 . S
C2677 H2741 0.980 . S
C2678 C2679 1.288 . S
C2678 C2683 1.377 . S
C2678 O2705 1.393 . S
C2679 C2678 1.288 . S
C2679 C2680 1.369 . S
C2679 H2745 0.932 . S
C2680 C2679 1.369 . S
C2680 C2681 1.398 . S
C2680 C2684 1.527 . S
C2681 C2680 1.398 . S
C2681 C2682 1.380 . S
C2681 C2695 1.497 . S
C2682 C2681 1.380 . S
C2682 C2683 1.383 . S
C2682 C2685 1.603 . S
C2683 C2678 1.377 . S
C2683 C2682 1.383 . S
C2683 H2746 0.929 . S
C2684 C2680 1.527 . S
C2684 H2747 0.961 . S
C2684 H2748 0.959 . S
C2684 H2749 0.959 . S
C2685 C2682 1.603 . S
C2685 H2750 0.960 . S
C2685 H2751 0.962 . S
C2685 H2752 0.961 . S
C2686 C2653 1.587 . S
C2686 C2687 1.360 . S
C2686 C2699 1.412 . S
C2687 C2686 1.360 . S
C2687 C2688 1.365 . S
C2687 H2753 0.929 . S
C2688 C2663 1.553 . S
C2688 C2687 1.365 . S
C2688 C2689 1.404 . S
C2689 C2688 1.404 . S
C2689 C2690 1.395 . S
C2689 C2700 1.451 . S
C2690 C2689 1.395 . S
C2690 C2691 1.322 . S
C2690 H2754 0.930 . S
C2691 C2690 1.322 . S
C2691 C2692 1.459 . S
C2691 H2755 0.929 . S
C2692 C2691 1.459 . S
C2692 C2693 1.445 . S
C2692 C2701 1.395 . S
C2693 C2671 1.432 . S
C2693 C2692 1.445 . S
C2693 C2694 1.370 . S
C2694 C2693 1.370 . S
C2694 C2695 1.438 . S
C2694 H2756 0.930 . S
C2695 C2681 1.497 . S
C2695 C2694 1.438 . S
C2695 C2696 1.360 . S
C2696 C2695 1.360 . S
C2696 C2697 1.401 . S
C2696 C2701 1.446 . S
C2697 C2696 1.401 . S
C2697 C2698 1.347 . S
C2697 H2757 0.929 . S
C2698 C2697 1.347 . S
C2698 C2699 1.455 . S
C2698 H2758 0.930 . S
C2699 C2686 1.412 . S
C2699 C2698 1.455 . S
C2699 C2700 1.331 . S
C2700 C2689 1.451 . S
C2700 C2699 1.331 . S
C2700 C2701 1.497 . S
C2701 C2692 1.395 . S
C2701 C2696 1.446 . S
C2701 C2700 1.497 . S
C2702 C2703 1.582 . S
C2702 H2759 0.962 . S
C2702 H2760 0.959 . S
C2702 H2761 0.958 . S
C2703 C2702 1.582 . S
C2703 O2706 1.458 . S
C2703 H2732 0.980 . S
O2704 C2649 1.426 . S
O2704 C2650 1.334 . S
O2705 C2677 1.412 . S
O2705 C2678 1.393 . S
O2706 C2668 1.435 . S
O2706 C2703 1.458 . S
O2707 C2659 1.468 . S
O2707 C2660 1.408 . S
H2708 C2649 0.980 . S
H2709 C2648 0.959 . S
H2710 C2648 0.959 . S
H2711 C2648 0.960 . S
H2712 C2651 0.929 . S
H2713 C2655 0.929 . S
H2714 C2656 0.959 . S
H2715 C2656 0.961 . S
H2716 C2656 0.961 . S
H2717 C2657 0.960 . S
H2718 C2657 0.960 . S
H2719 C2657 0.961 . S
H2720 C2659 0.980 . S
H2721 C2658 0.961 . S
H2722 C2658 0.960 . S
H2723 C2658 0.959 . S
H2724 C2661 0.930 . S
H2725 C2665 0.931 . S
H2726 C2666 0.959 . S
H2727 C2666 0.961 . S
H2728 C2666 0.959 . S
H2729 C2667 0.960 . S
H2730 C2667 0.960 . S
H2731 C2667 0.960 . S
H2732 C2703 0.980 . S
H2733 C2669 0.930 . S
H2734 C2673 0.930 . S
H2735 C2674 0.961 . S
H2736 C2674 0.960 . S
H2737 C2674 0.958 . S
H2738 C2675 0.961 . S
H2739 C2675 0.960 . S
H2740 C2675 0.960 . S
H2741 C2677 0.980 . S
H2742 C2676 0.961 . S
H2743 C2676 0.961 . S
H2744 C2676 0.959 . S
H2745 C2679 0.932 . S
H2746 C2683 0.929 . S
H2747 C2684 0.961 . S
H2748 C2684 0.959 . S
H2749 C2684 0.959 . S
H2750 C2685 0.960 . S
H2751 C2685 0.962 . S
H2752 C2685 0.961 . S
H2753 C2687 0.929 . S
H2754 C2690 0.930 . S
H2755 C2691 0.929 . S
H2756 C2694 0.930 . S
H2757 C2697 0.929 . S
H2758 C2698 0.930 . S
H2759 C2702 0.962 . S
H2760 C2702 0.959 . S
H2761 C2702 0.958 . S
C2762 C2763 1.560 . S
C2762 H2823 0.959 . S
C2762 H2824 0.959 . S
C2762 H2825 0.960 . S
C2763 C2762 1.560 . S
C2763 O2818 1.426 . S
C2763 H2822 0.980 . S
C2764 C2765 1.407 . S
C2764 C2769 1.418 . S
C2764 O2818 1.334 . S
C2765 C2764 1.407 . S
C2765 C2766 1.360 . S
C2765 H2826 0.929 . S
C2766 C2765 1.360 . S
C2766 C2767 1.401 . S
C2766 C2770 1.527 . S
C2767 C2766 1.401 . S
C2767 C2768 1.405 . S
C2767 C2800 1.587 . S
C2768 C2767 1.405 . S
C2768 C2769 1.332 . S
C2768 C2771 1.496 . S
C2769 C2764 1.418 . S
C2769 C2768 1.332 . S
C2769 H2827 0.929 . S
C2770 C2766 1.527 . S
C2770 H2828 0.959 . S
C2770 H2829 0.961 . S
C2770 H2830 0.961 . S
C2771 C2768 1.496 . S
C2771 H2831 0.960 . S
C2771 H2832 0.960 . S
C2771 H2833 0.961 . S
C2772 C2773 1.517 . S
C2772 H2835 0.961 . S
C2772 H2836 0.960 . S
C2772 H2837 0.959 . S
C2773 C2772 1.517 . S
C2773 O2821 1.468 . S
C2773 H2834 0.980 . S
C2774 C2775 1.349 . S
C2774 C2779 1.367 . S
C2774 O2821 1.408 . S
C2775 C2774 1.349 . S
C2775 C2776 1.407 . S
C2775 H2838 0.930 . S
C2776 C2775 1.407 . S
C2776 C2777 1.449 . S
C2776 C2780 1.535 . S
C2777 C2776 1.449 . S
C2777 C2778 1.384 . S
C2777 C2802 1.553 . S
C2778 C2777 1.384 . S
C2778 C2779 1.364 . S
C2778 C2781 1.450 . S
C2779 C2774 1.367 . S
C2779 C2778 1.364 . S
C2779 H2839 0.931 . S
C2780 C2776 1.535 . S
C2780 H2840 0.959 . S
C2780 H2841 0.961 . S
C2780 H2842 0.959 . S
C2781 C2778 1.450 . S
C2781 H2843 0.960 . S
C2781 H2844 0.960 . S
C2781 H2845 0.960 . S
C2782 C2783 1.309 . S
C2782 C2787 1.304 . S
C2782 O2820 1.435 . S
C2783 C2782 1.309 . S
C2783 C2784 1.476 . S
C2783 H2847 0.930 . S
C2784 C2783 1.476 . S
C2784 C2785 1.400 . S
C2784 C2788 1.567 . S
C2785 C2784 1.400 . S
C2785 C2786 1.373 . S
C2785 C2807 1.432 . S
C2786 C2785 1.373 . S
C2786 C2787 1.339 . S
C2786 C2789 1.530 . S
C2787 C2782 1.304 . S
C2787 C2786 1.339 . S
C2787 H2848 0.930 . S
C2788 C2784 1.567 . S
C2788 H2849 0.961 . S
C2788 H2850 0.960 . S
C2788 H2851 0.958 . S
C2789 C2786 1.530 . S
C2789 H2852 0.961 . S
C2789 H2853 0.960 . S
C2789 H2854 0.960 . S
C2790 C2791 1.530 . S
C2790 H2856 0.961 . S
C2790 H2857 0.961 . S
C2790 H2858 0.959 . S
C2791 C2790 1.530 . S
C2791 O2819 1.412 . S
C2791 H2855 0.980 . S
C2792 C2793 1.288 . S
C2792 C2797 1.377 . S
C2792 O2819 1.393 . S
C2793 C2792 1.288 . S
C2793 C2794 1.369 . S
C2793 H2859 0.932 . S
C2794 C2793 1.369 . S
C2794 C2795 1.398 . S
C2794 C2798 1.527 . S
C2795 C2794 1.398 . S
C2795 C2796 1.380 . S
C2795 C2809 1.497 . S
C2796 C2795 1.380 . S
C2796 C2797 1.383 . S
C2796 C2799 1.603 . S
C2797 C2792 1.377 . S
C2797 C2796 1.383 . S
C2797 H2860 0.929 . S
C2798 C2794 1.527 . S
C2798 H2861 0.961 . S
C2798 H2862 0.959 . S
C2798 H2863 0.959 . S
C2799 C2796 1.603 . S
C2799 H2864 0.960 . S
C2799 H2865 0.962 . S
C2799 H2866 0.961 . S
C2800 C2767 1.587 . S
C2800 C2801 1.360 . S
C2800 C2813 1.412 . S
C2801 C2800 1.360 . S
C2801 C2802 1.365 . S
C2801 H2867 0.929 . S
C2802 C2777 1.553 . S
C2802 C2801 1.365 . S
C2802 C2803 1.404 . S
C2803 C2802 1.404 . S
C2803 C2804 1.395 . S
C2803 C2814 1.451 . S
C2804 C2803 1.395 . S
C2804 C2805 1.322 . S
C2804 H2868 0.930 . S
C2805 C2804 1.322 . S
C2805 C2806 1.459 . S
C2805 H2869 0.929 . S
C2806 C2805 1.459 . S
C2806 C2807 1.445 . S
C2806 C2815 1.395 . S
C2807 C2785 1.432 . S
C2807 C2806 1.445 . S
C2807 C2808 1.370 . S
C2808 C2807 1.370 . S
C2808 C2809 1.438 . S
C2808 H2870 0.930 . S
C2809 C2795 1.497 . S
C2809 C2808 1.438 . S
C2809 C2810 1.360 . S
C2810 C2809 1.360 . S
C2810 C2811 1.401 . S
C2810 C2815 1.446 . S
C2811 C2810 1.401 . S
C2811 C2812 1.347 . S
C2811 H2871 0.929 . S
C2812 C2811 1.347 . S
C2812 C2813 1.455 . S
C2812 H2872 0.930 . S
C2813 C2800 1.412 . S
C2813 C2812 1.455 . S
C2813 C2814 1.331 . S
C2814 C2803 1.451 . S
C2814 C2813 1.331 . S
C2814 C2815 1.497 . S
C2815 C2806 1.395 . S
C2815 C2810 1.446 . S
C2815 C2814 1.497 . S
C2816 C2817 1.582 . S
C2816 H2873 0.962 . S
C2816 H2874 0.959 . S
C2816 H2875 0.958 . S
C2817 C2816 1.582 . S
C2817 O2820 1.458 . S
C2817 H2846 0.980 . S
O2818 C2763 1.426 . S
O2818 C2764 1.334 . S
O2819 C2791 1.412 . S
O2819 C2792 1.393 . S
O2820 C2782 1.435 . S
O2820 C2817 1.458 . S
O2821 C2773 1.468 . S
O2821 C2774 1.408 . S
H2822 C2763 0.980 . S
H2823 C2762 0.959 . S
H2824 C2762 0.959 . S
H2825 C2762 0.960 . S
H2826 C2765 0.929 . S
H2827 C2769 0.929 . S
H2828 C2770 0.959 . S
H2829 C2770 0.961 . S
H2830 C2770 0.961 . S
H2831 C2771 0.960 . S
H2832 C2771 0.960 . S
H2833 C2771 0.961 . S
H2834 C2773 0.980 . S
H2835 C2772 0.961 . S
H2836 C2772 0.960 . S
H2837 C2772 0.959 . S
H2838 C2775 0.930 . S
H2839 C2779 0.931 . S
H2840 C2780 0.959 . S
H2841 C2780 0.961 . S
H2842 C2780 0.959 . S
H2843 C2781 0.960 . S
H2844 C2781 0.960 . S
H2845 C2781 0.960 . S
H2846 C2817 0.980 . S
H2847 C2783 0.930 . S
H2848 C2787 0.930 . S
H2849 C2788 0.961 . S
H2850 C2788 0.960 . S
H2851 C2788 0.958 . S
H2852 C2789 0.961 . S
H2853 C2789 0.960 . S
H2854 C2789 0.960 . S
H2855 C2791 0.980 . S
H2856 C2790 0.961 . S
H2857 C2790 0.961 . S
H2858 C2790 0.959 . S
H2859 C2793 0.932 . S
H2860 C2797 0.929 . S
H2861 C2798 0.961 . S
H2862 C2798 0.959 . S
H2863 C2798 0.959 . S
H2864 C2799 0.960 . S
H2865 C2799 0.962 . S
H2866 C2799 0.961 . S
H2867 C2801 0.929 . S
H2868 C2804 0.930 . S
H2869 C2805 0.929 . S
H2870 C2808 0.930 . S
H2871 C2811 0.929 . S
H2872 C2812 0.930 . S
H2873 C2816 0.962 . S
H2874 C2816 0.959 . S
H2875 C2816 0.958 . S
C2876 C2877 1.560 . S
C2876 H2937 0.959 . S
C2876 H2938 0.959 . S
C2876 H2939 0.960 . S
C2877 C2876 1.560 . S
C2877 O2932 1.426 . S
C2877 H2936 0.980 . S
C2878 C2879 1.407 . S
C2878 C2883 1.418 . S
C2878 O2932 1.334 . S
C2879 C2878 1.407 . S
C2879 C2880 1.360 . S
C2879 H2940 0.929 . S
C2880 C2879 1.360 . S
C2880 C2881 1.401 . S
C2880 C2884 1.527 . S
C2881 C2880 1.401 . S
C2881 C2882 1.405 . S
C2881 C2914 1.587 . S
C2882 C2881 1.405 . S
C2882 C2883 1.332 . S
C2882 C2885 1.496 . S
C2883 C2878 1.418 . S
C2883 C2882 1.332 . S
C2883 H2941 0.929 . S
C2884 C2880 1.527 . S
C2884 H2942 0.959 . S
C2884 H2943 0.961 . S
C2884 H2944 0.961 . S
C2885 C2882 1.496 . S
C2885 H2945 0.960 . S
C2885 H2946 0.960 . S
C2885 H2947 0.961 . S
C2886 C2887 1.517 . S
C2886 H2949 0.961 . S
C2886 H2950 0.960 . S
C2886 H2951 0.959 . S
C2887 C2886 1.517 . S
C2887 O2935 1.468 . S
C2887 H2948 0.980 . S
C2888 C2889 1.349 . S
C2888 C2893 1.367 . S
C2888 O2935 1.408 . S
C2889 C2888 1.349 . S
C2889 C2890 1.407 . S
C2889 H2952 0.930 . S
C2890 C2889 1.407 . S
C2890 C2891 1.449 . S
C2890 C2894 1.535 . S
C2891 C2890 1.449 . S
C2891 C2892 1.384 . S
C2891 C2916 1.553 . S
C2892 C2891 1.384 . S
C2892 C2893 1.364 . S
C2892 C2895 1.450 . S
C2893 C2888 1.367 . S
C2893 C2892 1.364 . S
C2893 H2953 0.931 . S
C2894 C2890 1.535 . S
C2894 H2954 0.959 . S
C2894 H2955 0.961 . S
C2894 H2956 0.959 . S
C2895 C2892 1.450 . S
C2895 H2957 0.960 . S
C2895 H2958 0.960 . S
C2895 H2959 0.960 . S
C2896 C2897 1.309 . S
C2896 C2901 1.304 . S
C2896 O2934 1.435 . S
C2897 C2896 1.309 . S
C2897 C2898 1.476 . S
C2897 H2961 0.930 . S
C2898 C2897 1.476 . S
C2898 C2899 1.400 . S
C2898 C2902 1.567 . S
C2899 C2898 1.400 . S
C2899 C2900 1.373 . S
C2899 C2921 1.432 . S
C2900 C2899 1.373 . S
C2900 C2901 1.339 . S
C2900 C2903 1.530 . S
C2901 C2896 1.304 . S
C2901 C2900 1.339 . S
C2901 H2962 0.930 . S
C2902 C2898 1.567 . S
C2902 H2963 0.961 . S
C2902 H2964 0.960 . S
C2902 H2965 0.958 . S
C2903 C2900 1.530 . S
C2903 H2966 0.961 . S
C2903 H2967 0.960 . S
C2903 H2968 0.960 . S
C2904 C2905 1.530 . S
C2904 H2970 0.961 . S
C2904 H2971 0.961 . S
C2904 H2972 0.959 . S
C2905 C2904 1.530 . S
C2905 O2933 1.412 . S
C2905 H2969 0.980 . S
C2906 C2907 1.288 . S
C2906 C2911 1.377 . S
C2906 O2933 1.393 . S
C2907 C2906 1.288 . S
C2907 C2908 1.369 . S
C2907 H2973 0.932 . S
C2908 C2907 1.369 . S
C2908 C2909 1.398 . S
C2908 C2912 1.527 . S
C2909 C2908 1.398 . S
C2909 C2910 1.380 . S
C2909 C2923 1.497 . S
C2910 C2909 1.380 . S
C2910 C2911 1.383 . S
C2910 C2913 1.603 . S
C2911 C2906 1.377 . S
C2911 C2910 1.383 . S
C2911 H2974 0.929 . S
C2912 C2908 1.527 . S
C2912 H2975 0.961 . S
C2912 H2976 0.959 . S
C2912 H2977 0.959 . S
C2913 C2910 1.603 . S
C2913 H2978 0.960 . S
C2913 H2979 0.962 . S
C2913 H2980 0.961 . S
C2914 C2881 1.587 . S
C2914 C2915 1.360 . S
C2914 C2927 1.412 . S
C2915 C2914 1.360 . S
C2915 C2916 1.365 . S
C2915 H2981 0.929 . S
C2916 C2891 1.553 . S
C2916 C2915 1.365 . S
C2916 C2917 1.404 . S
C2917 C2916 1.404 . S
C2917 C2918 1.395 . S
C2917 C2928 1.451 . S
C2918 C2917 1.395 . S
C2918 C2919 1.322 . S
C2918 H2982 0.930 . S
C2919 C2918 1.322 . S
C2919 C2920 1.459 . S
C2919 H2983 0.929 . S
C2920 C2919 1.459 . S
C2920 C2921 1.445 . S
C2920 C2929 1.395 . S
C2921 C2899 1.432 . S
C2921 C2920 1.445 . S
C2921 C2922 1.370 . S
C2922 C2921 1.370 . S
C2922 C2923 1.438 . S
C2922 H2984 0.930 . S
C2923 C2909 1.497 . S
C2923 C2922 1.438 . S
C2923 C2924 1.360 . S
C2924 C2923 1.360 . S
C2924 C2925 1.401 . S
C2924 C2929 1.446 . S
C2925 C2924 1.401 . S
C2925 C2926 1.347 . S
C2925 H2985 0.929 . S
C2926 C2925 1.347 . S
C2926 C2927 1.455 . S
C2926 H2986 0.930 . S
C2927 C2914 1.412 . S
C2927 C2926 1.455 . S
C2927 C2928 1.331 . S
C2928 C2917 1.451 . S
C2928 C2927 1.331 . S
C2928 C2929 1.497 . S
C2929 C2920 1.395 . S
C2929 C2924 1.446 . S
C2929 C2928 1.497 . S
C2930 C2931 1.582 . S
C2930 H2987 0.962 . S
C2930 H2988 0.959 . S
C2930 H2989 0.958 . S
C2931 C2930 1.582 . S
C2931 O2934 1.458 . S
C2931 H2960 0.980 . S
O2932 C2877 1.426 . S
O2932 C2878 1.334 . S
O2933 C2905 1.412 . S
O2933 C2906 1.393 . S
O2934 C2896 1.435 . S
O2934 C2931 1.458 . S
O2935 C2887 1.468 . S
O2935 C2888 1.408 . S
H2936 C2877 0.980 . S
H2937 C2876 0.959 . S
H2938 C2876 0.959 . S
H2939 C2876 0.960 . S
H2940 C2879 0.929 . S
H2941 C2883 0.929 . S
H2942 C2884 0.959 . S
H2943 C2884 0.961 . S
H2944 C2884 0.961 . S
H2945 C2885 0.960 . S
H2946 C2885 0.960 . S
H2947 C2885 0.961 . S
H2948 C2887 0.980 . S
H2949 C2886 0.961 . S
H2950 C2886 0.960 . S
H2951 C2886 0.959 . S
H2952 C2889 0.930 . S
H2953 C2893 0.931 . S
H2954 C2894 0.959 . S
H2955 C2894 0.961 . S
H2956 C2894 0.959 . S
H2957 C2895 0.960 . S
H2958 C2895 0.960 . S
H2959 C2895 0.960 . S
H2960 C2931 0.980 . S
H2961 C2897 0.930 . S
H2962 C2901 0.930 . S
H2963 C2902 0.961 . S
H2964 C2902 0.960 . S
H2965 C2902 0.958 . S
H2966 C2903 0.961 . S
H2967 C2903 0.960 . S
H2968 C2903 0.960 . S
H2969 C2905 0.980 . S
H2970 C2904 0.961 . S
H2971 C2904 0.961 . S
H2972 C2904 0.959 . S
H2973 C2907 0.932 . S
H2974 C2911 0.929 . S
H2975 C2912 0.961 . S
H2976 C2912 0.959 . S
H2977 C2912 0.959 . S
H2978 C2913 0.960 . S
H2979 C2913 0.962 . S
H2980 C2913 0.961 . S
H2981 C2915 0.929 . S
H2982 C2918 0.930 . S
H2983 C2919 0.929 . S
H2984 C2922 0.930 . S
H2985 C2925 0.929 . S
H2986 C2926 0.930 . S
H2987 C2930 0.962 . S
H2988 C2930 0.959 . S
H2989 C2930 0.958 . S
C2990 C2991 1.560 . S
C2990 H3051 0.959 . S
C2990 H3052 0.959 . S
C2990 H3053 0.960 . S
C2991 C2990 1.560 . S
C2991 O3046 1.426 . S
C2991 H3050 0.980 . S
C2992 C2993 1.407 . S
C2992 C2997 1.418 . S
C2992 O3046 1.334 . S
C2993 C2992 1.407 . S
C2993 C2994 1.360 . S
C2993 H3054 0.929 . S
C2994 C2993 1.360 . S
C2994 C2995 1.401 . S
C2994 C2998 1.527 . S
C2995 C2994 1.401 . S
C2995 C2996 1.405 . S
C2995 C3028 1.587 . S
C2996 C2995 1.405 . S
C2996 C2997 1.332 . S
C2996 C2999 1.496 . S
C2997 C2992 1.418 . S
C2997 C2996 1.332 . S
C2997 H3055 0.929 . S
C2998 C2994 1.527 . S
C2998 H3056 0.959 . S
C2998 H3057 0.961 . S
C2998 H3058 0.961 . S
C2999 C2996 1.496 . S
C2999 H3059 0.960 . S
C2999 H3060 0.960 . S
C2999 H3061 0.961 . S
C3000 C3001 1.517 . S
C3000 H3063 0.961 . S
C3000 H3064 0.960 . S
C3000 H3065 0.959 . S
C3001 C3000 1.517 . S
C3001 O3049 1.468 . S
C3001 H3062 0.980 . S
C3002 C3003 1.349 . S
C3002 C3007 1.367 . S
C3002 O3049 1.408 . S
C3003 C3002 1.349 . S
C3003 C3004 1.407 . S
C3003 H3066 0.930 . S
C3004 C3003 1.407 . S
C3004 C3005 1.449 . S
C3004 C3008 1.535 . S
C3005 C3004 1.449 . S
C3005 C3006 1.384 . S
C3005 C3030 1.553 . S
C3006 C3005 1.384 . S
C3006 C3007 1.364 . S
C3006 C3009 1.450 . S
C3007 C3002 1.367 . S
C3007 C3006 1.364 . S
C3007 H3067 0.931 . S
C3008 C3004 1.535 . S
C3008 H3068 0.959 . S
C3008 H3069 0.961 . S
C3008 H3070 0.959 . S
C3009 C3006 1.450 . S
C3009 H3071 0.960 . S
C3009 H3072 0.960 . S
C3009 H3073 0.960 . S
C3010 C3011 1.309 . S
C3010 C3015 1.304 . S
C3010 O3048 1.435 . S
C3011 C3010 1.309 . S
C3011 C3012 1.476 . S
C3011 H3075 0.930 . S
C3012 C3011 1.476 . S
C3012 C3013 1.400 . S
C3012 C3016 1.567 . S
C3013 C3012 1.400 . S
C3013 C3014 1.373 . S
C3013 C3035 1.432 . S
C3014 C3013 1.373 . S
C3014 C3015 1.339 . S
C3014 C3017 1.530 . S
C3015 C3010 1.304 . S
C3015 C3014 1.339 . S
C3015 H3076 0.930 . S
C3016 C3012 1.567 . S
C3016 H3077 0.961 . S
C3016 H3078 0.960 . S
C3016 H3079 0.958 . S
C3017 C3014 1.530 . S
C3017 H3080 0.961 . S
C3017 H3081 0.960 . S
C3017 H3082 0.960 . S
C3018 C3019 1.530 . S
C3018 H3084 0.961 . S
C3018 H3085 0.961 . S
C3018 H3086 0.959 . S
C3019 C3018 1.530 . S
C3019 O3047 1.412 . S
C3019 H3083 0.980 . S
C3020 C3021 1.288 . S
C3020 C3025 1.377 . S
C3020 O3047 1.393 . S
C3021 C3020 1.288 . S
C3021 C3022 1.369 . S
C3021 H3087 0.932 . S
C3022 C3021 1.369 . S
C3022 C3023 1.398 . S
C3022 C3026 1.527 . S
C3023 C3022 1.398 . S
C3023 C3024 1.380 . S
C3023 C3037 1.497 . S
C3024 C3023 1.380 . S
C3024 C3025 1.383 . S
C3024 C3027 1.603 . S
C3025 C3020 1.377 . S
C3025 C3024 1.383 . S
C3025 H3088 0.929 . S
C3026 C3022 1.527 . S
C3026 H3089 0.961 . S
C3026 H3090 0.959 . S
C3026 H3091 0.959 . S
C3027 C3024 1.603 . S
C3027 H3092 0.960 . S
C3027 H3093 0.962 . S
C3027 H3094 0.961 . S
C3028 C2995 1.587 . S
C3028 C3029 1.360 . S
C3028 C3041 1.412 . S
C3029 C3028 1.360 . S
C3029 C3030 1.365 . S
C3029 H3095 0.929 . S
C3030 C3005 1.553 . S
C3030 C3029 1.365 . S
C3030 C3031 1.404 . S
C3031 C3030 1.404 . S
C3031 C3032 1.395 . S
C3031 C3042 1.451 . S
C3032 C3031 1.395 . S
C3032 C3033 1.322 . S
C3032 H3096 0.930 . S
C3033 C3032 1.322 . S
C3033 C3034 1.459 . S
C3033 H3097 0.929 . S
C3034 C3033 1.459 . S
C3034 C3035 1.445 . S
C3034 C3043 1.395 . S
C3035 C3013 1.432 . S
C3035 C3034 1.445 . S
C3035 C3036 1.370 . S
C3036 C3035 1.370 . S
C3036 C3037 1.438 . S
C3036 H3098 0.930 . S
C3037 C3023 1.497 . S
C3037 C3036 1.438 . S
C3037 C3038 1.360 . S
C3038 C3037 1.360 . S
C3038 C3039 1.401 . S
C3038 C3043 1.446 . S
C3039 C3038 1.401 . S
C3039 C3040 1.347 . S
C3039 H3099 0.929 . S
C3040 C3039 1.347 . S
C3040 C3041 1.455 . S
C3040 H3100 0.930 . S
C3041 C3028 1.412 . S
C3041 C3040 1.455 . S
C3041 C3042 1.331 . S
C3042 C3031 1.451 . S
C3042 C3041 1.331 . S
C3042 C3043 1.497 . S
C3043 C3034 1.395 . S
C3043 C3038 1.446 . S
C3043 C3042 1.497 . S
C3044 C3045 1.582 . S
C3044 H3101 0.962 . S
C3044 H3102 0.959 . S
C3044 H3103 0.958 . S
C3045 C3044 1.582 . S
C3045 O3048 1.458 . S
C3045 H3074 0.980 . S
O3046 C2991 1.426 . S
O3046 C2992 1.334 . S
O3047 C3019 1.412 . S
O3047 C3020 1.393 . S
O3048 C3010 1.435 . S
O3048 C3045 1.458 . S
O3049 C3001 1.468 . S
O3049 C3002 1.408 . S
H3050 C2991 0.980 . S
H3051 C2990 0.959 . S
H3052 C2990 0.959 . S
H3053 C2990 0.960 . S
H3054 C2993 0.929 . S
H3055 C2997 0.929 . S
H3056 C2998 0.959 . S
H3057 C2998 0.961 . S
H3058 C2998 0.961 . S
H3059 C2999 0.960 . S
H3060 C2999 0.960 . S
H3061 C2999 0.961 . S
H3062 C3001 0.980 . S
H3063 C3000 0.961 . S
H3064 C3000 0.960 . S
H3065 C3000 0.959 . S
H3066 C3003 0.930 . S
H3067 C3007 0.931 . S
H3068 C3008 0.959 . S
H3069 C3008 0.961 . S
H3070 C3008 0.959 . S
H3071 C3009 0.960 . S
H3072 C3009 0.960 . S
H3073 C3009 0.960 . S
H3074 C3045 0.980 . S
H3075 C3011 0.930 . S
H3076 C3015 0.930 . S
H3077 C3016 0.961 . S
H3078 C3016 0.960 . S
H3079 C3016 0.958 . S
H3080 C3017 0.961 . S
H3081 C3017 0.960 . S
H3082 C3017 0.960 . S
H3083 C3019 0.980 . S
H3084 C3018 0.961 . S
H3085 C3018 0.961 . S
H3086 C3018 0.959 . S
H3087 C3021 0.932 . S
H3088 C3025 0.929 . S
H3089 C3026 0.961 . S
H3090 C3026 0.959 . S
H3091 C3026 0.959 . S
H3092 C3027 0.960 . S
H3093 C3027 0.962 . S
H3094 C3027 0.961 . S
H3095 C3029 0.929 . S
H3096 C3032 0.930 . S
H3097 C3033 0.929 . S
H3098 C3036 0.930 . S
H3099 C3039 0.929 . S
H3100 C3040 0.930 . S
H3101 C3044 0.962 . S
H3102 C3044 0.959 . S
H3103 C3044 0.958 . S
C3104 C3105 1.560 . S
C3104 H3165 0.959 . S
C3104 H3166 0.959 . S
C3104 H3167 0.960 . S
C3105 C3104 1.560 . S
C3105 O3160 1.426 . S
C3105 H3164 0.980 . S
C3106 C3107 1.407 . S
C3106 C3111 1.418 . S
C3106 O3160 1.334 . S
C3107 C3106 1.407 . S
C3107 C3108 1.360 . S
C3107 H3168 0.929 . S
C3108 C3107 1.360 . S
C3108 C3109 1.401 . S
C3108 C3112 1.527 . S
C3109 C3108 1.401 . S
C3109 C3110 1.405 . S
C3109 C3142 1.587 . S
C3110 C3109 1.405 . S
C3110 C3111 1.332 . S
C3110 C3113 1.496 . S
C3111 C3106 1.418 . S
C3111 C3110 1.332 . S
C3111 H3169 0.929 . S
C3112 C3108 1.527 . S
C3112 H3170 0.959 . S
C3112 H3171 0.961 . S
C3112 H3172 0.961 . S
C3113 C3110 1.496 . S
C3113 H3173 0.960 . S
C3113 H3174 0.960 . S
C3113 H3175 0.961 . S
C3114 C3115 1.517 . S
C3114 H3177 0.961 . S
C3114 H3178 0.960 . S
C3114 H3179 0.959 . S
C3115 C3114 1.517 . S
C3115 O3163 1.468 . S
C3115 H3176 0.980 . S
C3116 C3117 1.349 . S
C3116 C3121 1.367 . S
C3116 O3163 1.408 . S
C3117 C3116 1.349 . S
C3117 C3118 1.407 . S
C3117 H3180 0.930 . S
C3118 C3117 1.407 . S
C3118 C3119 1.449 . S
C3118 C3122 1.535 . S
C3119 C3118 1.449 . S
C3119 C3120 1.384 . S
C3119 C3144 1.553 . S
C3120 C3119 1.384 . S
C3120 C3121 1.364 . S
C3120 C3123 1.450 . S
C3121 C3116 1.367 . S
C3121 C3120 1.364 . S
C3121 H3181 0.931 . S
C3122 C3118 1.535 . S
C3122 H3182 0.959 . S
C3122 H3183 0.961 . S
C3122 H3184 0.959 . S
C3123 C3120 1.450 . S
C3123 H3185 0.960 . S
C3123 H3186 0.960 . S
C3123 H3187 0.960 . S
C3124 C3125 1.309 . S
C3124 C3129 1.304 . S
C3124 O3162 1.435 . S
C3125 C3124 1.309 . S
C3125 C3126 1.476 . S
C3125 H3189 0.930 . S
C3126 C3125 1.476 . S
C3126 C3127 1.400 . S
C3126 C3130 1.567 . S
C3127 C3126 1.400 . S
C3127 C3128 1.373 . S
C3127 C3149 1.432 . S
C3128 C3127 1.373 . S
C3128 C3129 1.339 . S
C3128 C3131 1.530 . S
C3129 C3124 1.304 . S
C3129 C3128 1.339 . S
C3129 H3190 0.930 . S
C3130 C3126 1.567 . S
C3130 H3191 0.961 . S
C3130 H3192 0.960 . S
C3130 H3193 0.958 . S
C3131 C3128 1.530 . S
C3131 H3194 0.961 . S
C3131 H3195 0.960 . S
C3131 H3196 0.960 . S
C3132 C3133 1.530 . S
C3132 H3198 0.961 . S
C3132 H3199 0.961 . S
C3132 H3200 0.959 . S
C3133 C3132 1.530 . S
C3133 O3161 1.412 . S
C3133 H3197 0.980 . S
C3134 C3135 1.288 . S
C3134 C3139 1.377 . S
C3134 O3161 1.393 . S
C3135 C3134 1.288 . S
C3135 C3136 1.369 . S
C3135 H3201 0.932 . S
C3136 C3135 1.369 . S
C3136 C3137 1.398 . S
C3136 C3140 1.527 . S
C3137 C3136 1.398 . S
C3137 C3138 1.380 . S
C3137 C3151 1.497 . S
C3138 C3137 1.380 . S
C3138 C3139 1.383 . S
C3138 C3141 1.603 . S
C3139 C3134 1.377 . S
C3139 C3138 1.383 . S
C3139 H3202 0.929 . S
C3140 C3136 1.527 . S
C3140 H3203 0.961 . S
C3140 H3204 0.959 . S
C3140 H3205 0.959 . S
C3141 C3138 1.603 . S
C3141 H3206 0.960 . S
C3141 H3207 0.962 . S
C3141 H3208 0.961 . S
C3142 C3109 1.587 . S
C3142 C3143 1.360 . S
C3142 C3155 1.412 . S
C3143 C3142 1.360 . S
C3143 C3144 1.365 . S
C3143 H3209 0.929 . S
C3144 C3119 1.553 . S
C3144 C3143 1.365 . S
C3144 C3145 1.404 . S
C3145 C3144 1.404 . S
C3145 C3146 1.395 . S
C3145 C3156 1.451 . S
C3146 C3145 1.395 . S
C3146 C3147 1.322 . S
C3146 H3210 0.930 . S
C3147 C3146 1.322 . S
C3147 C3148 1.459 . S
C3147 H3211 0.929 . S
C3148 C3147 1.459 . S
C3148 C3149 1.445 . S
C3148 C3157 1.395 . S
C3149 C3127 1.432 . S
C3149 C3148 1.445 . S
C3149 C3150 1.370 . S
C3150 C3149 1.370 . S
C3150 C3151 1.438 . S
C3150 H3212 0.930 . S
C3151 C3137 1.497 . S
C3151 C3150 1.438 . S
C3151 C3152 1.360 . S
C3152 C3151 1.360 . S
C3152 C3153 1.401 . S
C3152 C3157 1.446 . S
C3153 C3152 1.401 . S
C3153 C3154 1.347 . S
C3153 H3213 0.929 . S
C3154 C3153 1.347 . S
C3154 C3155 1.455 . S
C3154 H3214 0.930 . S
C3155 C3142 1.412 . S
C3155 C3154 1.455 . S
C3155 C3156 1.331 . S
C3156 C3145 1.451 . S
C3156 C3155 1.331 . S
C3156 C3157 1.497 . S
C3157 C3148 1.395 . S
C3157 C3152 1.446 . S
C3157 C3156 1.497 . S
C3158 C3159 1.582 . S
C3158 H3215 0.962 . S
C3158 H3216 0.959 . S
C3158 H3217 0.958 . S
C3159 C3158 1.582 . S
C3159 O3162 1.458 . S
C3159 H3188 0.980 . S
O3160 C3105 1.426 . S
O3160 C3106 1.334 . S
O3161 C3133 1.412 . S
O3161 C3134 1.393 . S
O3162 C3124 1.435 . S
O3162 C3159 1.458 . S
O3163 C3115 1.468 . S
O3163 C3116 1.408 . S
H3164 C3105 0.980 . S
H3165 C3104 0.959 . S
H3166 C3104 0.959 . S
H3167 C3104 0.960 . S
H3168 C3107 0.929 . S
H3169 C3111 0.929 . S
H3170 C3112 0.959 . S
H3171 C3112 0.961 . S
H3172 C3112 0.961 . S
H3173 C3113 0.960 . S
H3174 C3113 0.960 . S
H3175 C3113 0.961 . S
H3176 C3115 0.980 . S
H3177 C3114 0.961 . S
H3178 C3114 0.960 . S
H3179 C3114 0.959 . S
H3180 C3117 0.930 . S
H3181 C3121 0.931 . S
H3182 C3122 0.959 . S
H3183 C3122 0.961 . S
H3184 C3122 0.959 . S
H3185 C3123 0.960 . S
H3186 C3123 0.960 . S
H3187 C3123 0.960 . S
H3188 C3159 0.980 . S
H3189 C3125 0.930 . S
H3190 C3129 0.930 . S
H3191 C3130 0.961 . S
H3192 C3130 0.960 . S
H3193 C3130 0.958 . S
H3194 C3131 0.961 . S
H3195 C3131 0.960 . S
H3196 C3131 0.960 . S
H3197 C3133 0.980 . S
H3198 C3132 0.961 . S
H3199 C3132 0.961 . S
H3200 C3132 0.959 . S
H3201 C3135 0.932 . S
H3202 C3139 0.929 . S
H3203 C3140 0.961 . S
H3204 C3140 0.959 . S
H3205 C3140 0.959 . S
H3206 C3141 0.960 . S
H3207 C3141 0.962 . S
H3208 C3141 0.961 . S
H3209 C3143 0.929 . S
H3210 C3146 0.930 . S
H3211 C3147 0.929 . S
H3212 C3150 0.930 . S
H3213 C3153 0.929 . S
H3214 C3154 0.930 . S
H3215 C3158 0.962 . S
H3216 C3158 0.959 . S
H3217 C3158 0.958 . S
C3218 C3219 1.560 . S
C3218 H3279 0.959 . S
C3218 H3280 0.959 . S
C3218 H3281 0.960 . S
C3219 C3218 1.560 . S
C3219 O3274 1.426 . S
C3219 H3278 0.980 . S
C3220 C3221 1.407 . S
C3220 C3225 1.418 . S
C3220 O3274 1.334 . S
C3221 C3220 1.407 . S
C3221 C3222 1.360 . S
C3221 H3282 0.929 . S
C3222 C3221 1.360 . S
C3222 C3223 1.401 . S
C3222 C3226 1.527 . S
C3223 C3222 1.401 . S
C3223 C3224 1.405 . S
C3223 C3256 1.587 . S
C3224 C3223 1.405 . S
C3224 C3225 1.332 . S
C3224 C3227 1.496 . S
C3225 C3220 1.418 . S
C3225 C3224 1.332 . S
C3225 H3283 0.929 . S
C3226 C3222 1.527 . S
C3226 H3284 0.959 . S
C3226 H3285 0.961 . S
C3226 H3286 0.961 . S
C3227 C3224 1.496 . S
C3227 H3287 0.960 . S
C3227 H3288 0.960 . S
C3227 H3289 0.961 . S
C3228 C3229 1.517 . S
C3228 H3291 0.961 . S
C3228 H3292 0.960 . S
C3228 H3293 0.959 . S
C3229 C3228 1.517 . S
C3229 O3277 1.468 . S
C3229 H3290 0.980 . S
C3230 C3231 1.349 . S
C3230 C3235 1.367 . S
C3230 O3277 1.408 . S
C3231 C3230 1.349 . S
C3231 C3232 1.407 . S
C3231 H3294 0.930 . S
C3232 C3231 1.407 . S
C3232 C3233 1.449 . S
C3232 C3236 1.535 . S
C3233 C3232 1.449 . S
C3233 C3234 1.384 . S
C3233 C3258 1.553 . S
C3234 C3233 1.384 . S
C3234 C3235 1.364 . S
C3234 C3237 1.450 . S
C3235 C3230 1.367 . S
C3235 C3234 1.364 . S
C3235 H3295 0.931 . S
C3236 C3232 1.535 . S
C3236 H3296 0.959 . S
C3236 H3297 0.961 . S
C3236 H3298 0.959 . S
C3237 C3234 1.450 . S
C3237 H3299 0.960 . S
C3237 H3300 0.960 . S
C3237 H3301 0.960 . S
C3238 C3239 1.309 . S
C3238 C3243 1.304 . S
C3238 O3276 1.435 . S
C3239 C3238 1.309 . S
C3239 C3240 1.476 . S
C3239 H3303 0.930 . S
C3240 C3239 1.476 . S
C3240 C3241 1.400 . S
C3240 C3244 1.567 . S
C3241 C3240 1.400 . S
C3241 C3242 1.373 . S
C3241 C3263 1.432 . S
C3242 C3241 1.373 . S
C3242 C3243 1.339 . S
C3242 C3245 1.530 . S
C3243 C3238 1.304 . S
C3243 C3242 1.339 . S
C3243 H3304 0.930 . S
C3244 C3240 1.567 . S
C3244 H3305 0.961 . S
C3244 H3306 0.960 . S
C3244 H3307 0.958 . S
C3245 C3242 1.530 . S
C3245 H3308 0.961 . S
C3245 H3309 0.960 . S
C3245 H3310 0.960 . S
C3246 C3247 1.530 . S
C3246 H3312 0.961 . S
C3246 H3313 0.961 . S
C3246 H3314 0.959 . S
C3247 C3246 1.530 . S
C3247 O3275 1.412 . S
C3247 H3311 0.980 . S
C3248 C3249 1.288 . S
C3248 C3253 1.377 . S
C3248 O3275 1.393 . S
C3249 C3248 1.288 . S
C3249 C3250 1.369 . S
C3249 H3315 0.932 . S
C3250 C3249 1.369 . S
C3250 C3251 1.398 . S
C3250 C3254 1.527 . S
C3251 C3250 1.398 . S
C3251 C3252 1.380 . S
C3251 C3265 1.497 . S
C3252 C3251 1.380 . S
C3252 C3253 1.383 . S
C3252 C3255 1.603 . S
C3253 C3248 1.377 . S
C3253 C3252 1.383 . S
C3253 H3316 0.929 . S
C3254 C3250 1.527 . S
C3254 H3317 0.961 . S
C3254 H3318 0.959 . S
C3254 H3319 0.959 . S
C3255 C3252 1.603 . S
C3255 H3320 0.960 . S
C3255 H3321 0.962 . S
C3255 H3322 0.961 . S
C3256 C3223 1.587 . S
C3256 C3257 1.360 . S
C3256 C3269 1.412 . S
C3257 C3256 1.360 . S
C3257 C3258 1.365 . S
C3257 H3323 0.929 . S
C3258 C3233 1.553 . S
C3258 C3257 1.365 . S
C3258 C3259 1.404 . S
C3259 C3258 1.404 . S
C3259 C3260 1.395 . S
C3259 C3270 1.451 . S
C3260 C3259 1.395 . S
C3260 C3261 1.322 . S
C3260 H3324 0.930 . S
C3261 C3260 1.322 . S
C3261 C3262 1.459 . S
C3261 H3325 0.929 . S
C3262 C3261 1.459 . S
C3262 C3263 1.445 . S
C3262 C3271 1.395 . S
C3263 C3241 1.432 . S
C3263 C3262 1.445 . S
C3263 C3264 1.370 . S
C3264 C3263 1.370 . S
C3264 C3265 1.438 . S
C3264 H3326 0.930 . S
C3265 C3251 1.497 . S
C3265 C3264 1.438 . S
C3265 C3266 1.360 . S
C3266 C3265 1.360 . S
C3266 C3267 1.401 . S
C3266 C3271 1.446 . S
C3267 C3266 1.401 . S
C3267 C3268 1.347 . S
C3267 H3327 0.929 . S
C3268 C3267 1.347 . S
C3268 C3269 1.455 . S
C3268 H3328 0.930 . S
C3269 C3256 1.412 . S
C3269 C3268 1.455 . S
C3269 C3270 1.331 . S
C3270 C3259 1.451 . S
C3270 C3269 1.331 . S
C3270 C3271 1.497 . S
C3271 C3262 1.395 . S
C3271 C3266 1.446 . S
C3271 C3270 1.497 . S
C3272 C3273 1.582 . S
C3272 H3329 0.962 . S
C3272 H3330 0.959 . S
C3272 H3331 0.958 . S
C3273 C3272 1.582 . S
C3273 O3276 1.458 . S
C3273 H3302 0.980 . S
O3274 C3219 1.426 . S
O3274 C3220 1.334 . S
O3275 C3247 1.412 . S
O3275 C3248 1.393 . S
O3276 C3238 1.435 . S
O3276 C3273 1.458 . S
O3277 C3229 1.468 . S
O3277 C3230 1.408 . S
H3278 C3219 0.980 . S
H3279 C3218 0.959 . S
H3280 C3218 0.959 . S
H3281 C3218 0.960 . S
H3282 C3221 0.929 . S
H3283 C3225 0.929 . S
H3284 C3226 0.959 . S
H3285 C3226 0.961 . S
H3286 C3226 0.961 . S
H3287 C3227 0.960 . S
H3288 C3227 0.960 . S
H3289 C3227 0.961 . S
H3290 C3229 0.980 . S
H3291 C3228 0.961 . S
H3292 C3228 0.960 . S
H3293 C3228 0.959 . S
H3294 C3231 0.930 . S
H3295 C3235 0.931 . S
H3296 C3236 0.959 . S
H3297 C3236 0.961 . S
H3298 C3236 0.959 . S
H3299 C3237 0.960 . S
H3300 C3237 0.960 . S
H3301 C3237 0.960 . S
H3302 C3273 0.980 . S
H3303 C3239 0.930 . S
H3304 C3243 0.930 . S
H3305 C3244 0.961 . S
H3306 C3244 0.960 . S
H3307 C3244 0.958 . S
H3308 C3245 0.961 . S
H3309 C3245 0.960 . S
H3310 C3245 0.960 . S
H3311 C3247 0.980 . S
H3312 C3246 0.961 . S
H3313 C3246 0.961 . S
H3314 C3246 0.959 . S
H3315 C3249 0.932 . S
H3316 C3253 0.929 . S
H3317 C3254 0.961 . S
H3318 C3254 0.959 . S
H3319 C3254 0.959 . S
H3320 C3255 0.960 . S
H3321 C3255 0.962 . S
H3322 C3255 0.961 . S
H3323 C3257 0.929 . S
H3324 C3260 0.930 . S
H3325 C3261 0.929 . S
H3326 C3264 0.930 . S
H3327 C3267 0.929 . S
H3328 C3268 0.930 . S
H3329 C3272 0.962 . S
H3330 C3272 0.959 . S
H3331 C3272 0.958 . S
C3332 C3333 1.560 . S
C3332 H3393 0.959 . S
C3332 H3394 0.959 . S
C3332 H3395 0.960 . S
C3333 C3332 1.560 . S
C3333 O3388 1.426 . S
C3333 H3392 0.980 . S
C3334 C3335 1.407 . S
C3334 C3339 1.418 . S
C3334 O3388 1.334 . S
C3335 C3334 1.407 . S
C3335 C3336 1.360 . S
C3335 H3396 0.929 . S
C3336 C3335 1.360 . S
C3336 C3337 1.401 . S
C3336 C3340 1.527 . S
C3337 C3336 1.401 . S
C3337 C3338 1.405 . S
C3337 C3370 1.587 . S
C3338 C3337 1.405 . S
C3338 C3339 1.332 . S
C3338 C3341 1.496 . S
C3339 C3334 1.418 . S
C3339 C3338 1.332 . S
C3339 H3397 0.929 . S
C3340 C3336 1.527 . S
C3340 H3398 0.959 . S
C3340 H3399 0.961 . S
C3340 H3400 0.961 . S
C3341 C3338 1.496 . S
C3341 H3401 0.960 . S
C3341 H3402 0.960 . S
C3341 H3403 0.961 . S
C3342 C3343 1.517 . S
C3342 H3405 0.961 . S
C3342 H3406 0.960 . S
C3342 H3407 0.959 . S
C3343 C3342 1.517 . S
C3343 O3391 1.468 . S
C3343 H3404 0.980 . S
C3344 C3345 1.349 . S
C3344 C3349 1.367 . S
C3344 O3391 1.408 . S
C3345 C3344 1.349 . S
C3345 C3346 1.407 . S
C3345 H3408 0.930 . S
C3346 C3345 1.407 . S
C3346 C3347 1.449 . S
C3346 C3350 1.535 . S
C3347 C3346 1.449 . S
C3347 C3348 1.384 . S
C3347 C3372 1.553 . S
C3348 C3347 1.384 . S
C3348 C3349 1.364 . S
C3348 C3351 1.450 . S
C3349 C3344 1.367 . S
C3349 C3348 1.364 . S
C3349 H3409 0.931 . S
C3350 C3346 1.535 . S
C3350 H3410 0.959 . S
C3350 H3411 0.961 . S
C3350 H3412 0.959 . S
C3351 C3348 1.450 . S
C3351 H3413 0.960 . S
C3351 H3414 0.960 . S
C3351 H3415 0.960 . S
C3352 C3353 1.309 . S
C3352 C3357 1.304 . S
C3352 O3390 1.435 . S
C3353 C3352 1.309 . S
C3353 C3354 1.476 . S
C3353 H3417 0.930 . S
C3354 C3353 1.476 . S
C3354 C3355 1.400 . S
C3354 C3358 1.567 . S
C3355 C3354 1.400 . S
C3355 C3356 1.373 . S
C3355 C3377 1.432 . S
C3356 C3355 1.373 . S
C3356 C3357 1.339 . S
C3356 C3359 1.530 . S
C3357 C3352 1.304 . S
C3357 C3356 1.339 . S
C3357 H3418 0.930 . S
C3358 C3354 1.567 . S
C3358 H3419 0.961 . S
C3358 H3420 0.960 . S
C3358 H3421 0.958 . S
C3359 C3356 1.530 . S
C3359 H3422 0.961 . S
C3359 H3423 0.960 . S
C3359 H3424 0.960 . S
C3360 C3361 1.530 . S
C3360 H3426 0.961 . S
C3360 H3427 0.961 . S
C3360 H3428 0.959 . S
C3361 C3360 1.530 . S
C3361 O3389 1.412 . S
C3361 H3425 0.980 . S
C3362 C3363 1.288 . S
C3362 C3367 1.377 . S
C3362 O3389 1.393 . S
C3363 C3362 1.288 . S
C3363 C3364 1.369 . S
C3363 H3429 0.932 . S
C3364 C3363 1.369 . S
C3364 C3365 1.398 . S
C3364 C3368 1.527 . S
C3365 C3364 1.398 . S
C3365 C3366 1.380 . S
C3365 C3379 1.497 . S
C3366 C3365 1.380 . S
C3366 C3367 1.383 . S
C3366 C3369 1.603 . S
C3367 C3362 1.377 . S
C3367 C3366 1.383 . S
C3367 H3430 0.929 . S
C3368 C3364 1.527 . S
C3368 H3431 0.961 . S
C3368 H3432 0.959 . S
C3368 H3433 0.959 . S
C3369 C3366 1.603 . S
C3369 H3434 0.960 . S
C3369 H3435 0.962 . S
C3369 H3436 0.961 . S
C3370 C3337 1.587 . S
C3370 C3371 1.360 . S
C3370 C3383 1.412 . S
C3371 C3370 1.360 . S
C3371 C3372 1.365 . S
C3371 H3437 0.929 . S
C3372 C3347 1.553 . S
C3372 C3371 1.365 . S
C3372 C3373 1.404 . S
C3373 C3372 1.404 . S
C3373 C3374 1.395 . S
C3373 C3384 1.451 . S
C3374 C3373 1.395 . S
C3374 C3375 1.322 . S
C3374 H3438 0.930 . S
C3375 C3374 1.322 . S
C3375 C3376 1.459 . S
C3375 H3439 0.929 . S
C3376 C3375 1.459 . S
C3376 C3377 1.445 . S
C3376 C3385 1.395 . S
C3377 C3355 1.432 . S
C3377 C3376 1.445 . S
C3377 C3378 1.370 . S
C3378 C3377 1.370 . S
C3378 C3379 1.438 . S
C3378 H3440 0.930 . S
C3379 C3365 1.497 . S
C3379 C3378 1.438 . S
C3379 C3380 1.360 . S
C3380 C3379 1.360 . S
C3380 C3381 1.401 . S
C3380 C3385 1.446 . S
C3381 C3380 1.401 . S
C3381 C3382 1.347 . S
C3381 H3441 0.929 . S
C3382 C3381 1.347 . S
C3382 C3383 1.455 . S
C3382 H3442 0.930 . S
C3383 C3370 1.412 . S
C3383 C3382 1.455 . S
C3383 C3384 1.331 . S
C3384 C3373 1.451 . S
C3384 C3383 1.331 . S
C3384 C3385 1.497 . S
C3385 C3376 1.395 . S
C3385 C3380 1.446 . S
C3385 C3384 1.497 . S
C3386 C3387 1.582 . S
C3386 H3443 0.962 . S
C3386 H3444 0.959 . S
C3386 H3445 0.958 . S
C3387 C3386 1.582 . S
C3387 O3390 1.458 . S
C3387 H3416 0.980 . S
O3388 C3333 1.426 . S
O3388 C3334 1.334 . S
O3389 C3361 1.412 . S
O3389 C3362 1.393 . S
O3390 C3352 1.435 . S
O3390 C3387 1.458 . S
O3391 C3343 1.468 . S
O3391 C3344 1.408 . S
H3392 C3333 0.980 . S
H3393 C3332 0.959 . S
H3394 C3332 0.959 . S
H3395 C3332 0.960 . S
H3396 C3335 0.929 . S
H3397 C3339 0.929 . S
H3398 C3340 0.959 . S
H3399 C3340 0.961 . S
H3400 C3340 0.961 . S
H3401 C3341 0.960 . S
H3402 C3341 0.960 . S
H3403 C3341 0.961 . S
H3404 C3343 0.980 . S
H3405 C3342 0.961 . S
H3406 C3342 0.960 . S
H3407 C3342 0.959 . S
H3408 C3345 0.930 . S
H3409 C3349 0.931 . S
H3410 C3350 0.959 . S
H3411 C3350 0.961 . S
H3412 C3350 0.959 . S
H3413 C3351 0.960 . S
H3414 C3351 0.960 . S
H3415 C3351 0.960 . S
H3416 C3387 0.980 . S
H3417 C3353 0.930 . S
H3418 C3357 0.930 . S
H3419 C3358 0.961 . S
H3420 C3358 0.960 . S
H3421 C3358 0.958 . S
H3422 C3359 0.961 . S
H3423 C3359 0.960 . S
H3424 C3359 0.960 . S
H3425 C3361 0.980 . S
H3426 C3360 0.961 . S
H3427 C3360 0.961 . S
H3428 C3360 0.959 . S
H3429 C3363 0.932 . S
H3430 C3367 0.929 . S
H3431 C3368 0.961 . S
H3432 C3368 0.959 . S
H3433 C3368 0.959 . S
H3434 C3369 0.960 . S
H3435 C3369 0.962 . S
H3436 C3369 0.961 . S
H3437 C3371 0.929 . S
H3438 C3374 0.930 . S
H3439 C3375 0.929 . S
H3440 C3378 0.930 . S
H3441 C3381 0.929 . S
H3442 C3382 0.930 . S
H3443 C3386 0.962 . S
H3444 C3386 0.959 . S
H3445 C3386 0.958 . S
C3446 C3447 1.560 . S
C3446 H3507 0.959 . S
C3446 H3508 0.959 . S
C3446 H3509 0.960 . S
C3447 C3446 1.560 . S
C3447 O3502 1.426 . S
C3447 H3506 0.980 . S
C3448 C3449 1.407 . S
C3448 C3453 1.418 . S
C3448 O3502 1.334 . S
C3449 C3448 1.407 . S
C3449 C3450 1.360 . S
C3449 H3510 0.929 . S
C3450 C3449 1.360 . S
C3450 C3451 1.401 . S
C3450 C3454 1.527 . S
C3451 C3450 1.401 . S
C3451 C3452 1.405 . S
C3451 C3484 1.587 . S
C3452 C3451 1.405 . S
C3452 C3453 1.332 . S
C3452 C3455 1.496 . S
C3453 C3448 1.418 . S
C3453 C3452 1.332 . S
C3453 H3511 0.929 . S
C3454 C3450 1.527 . S
C3454 H3512 0.959 . S
C3454 H3513 0.961 . S
C3454 H3514 0.961 . S
C3455 C3452 1.496 . S
C3455 H3515 0.960 . S
C3455 H3516 0.960 . S
C3455 H3517 0.961 . S
C3456 C3457 1.517 . S
C3456 H3519 0.961 . S
C3456 H3520 0.960 . S
C3456 H3521 0.959 . S
C3457 C3456 1.517 . S
C3457 O3505 1.468 . S
C3457 H3518 0.980 . S
C3458 C3459 1.349 . S
C3458 C3463 1.367 . S
C3458 O3505 1.408 . S
C3459 C3458 1.349 . S
C3459 C3460 1.407 . S
C3459 H3522 0.930 . S
C3460 C3459 1.407 . S
C3460 C3461 1.449 . S
C3460 C3464 1.535 . S
C3461 C3460 1.449 . S
C3461 C3462 1.384 . S
C3461 C3486 1.553 . S
C3462 C3461 1.384 . S
C3462 C3463 1.364 . S
C3462 C3465 1.450 . S
C3463 C3458 1.367 . S
C3463 C3462 1.364 . S
C3463 H3523 0.931 . S
C3464 C3460 1.535 . S
C3464 H3524 0.959 . S
C3464 H3525 0.961 . S
C3464 H3526 0.959 . S
C3465 C3462 1.450 . S
C3465 H3527 0.960 . S
C3465 H3528 0.960 . S
C3465 H3529 0.960 . S
C3466 C3467 1.309 . S
C3466 C3471 1.304 . S
C3466 O3504 1.435 . S
C3467 C3466 1.309 . S
C3467 C3468 1.476 . S
C3467 H3531 0.930 . S
C3468 C3467 1.476 . S
C3468 C3469 1.400 . S
C3468 C3472 1.567 . S
C3469 C3468 1.400 . S
C3469 C3470 1.373 . S
C3469 C3491 1.432 . S
C3470 C3469 1.373 . S
C3470 C3471 1.339 . S
C3470 C3473 1.530 . S
C3471 C3466 1.304 . S
C3471 C3470 1.339 . S
C3471 H3532 0.930 . S
C3472 C3468 1.567 . S
C3472 H3533 0.961 . S
C3472 H3534 0.960 . S
C3472 H3535 0.958 . S
C3473 C3470 1.530 . S
C3473 H3536 0.961 . S
C3473 H3537 0.960 . S
C3473 H3538 0.960 . S
C3474 C3475 1.530 . S
C3474 H3540 0.961 . S
C3474 H3541 0.961 . S
C3474 H3542 0.959 . S
C3475 C3474 1.530 . S
C3475 O3503 1.412 . S
C3475 H3539 0.980 . S
C3476 C3477 1.288 . S
C3476 C3481 1.377 . S
C3476 O3503 1.393 . S
C3477 C3476 1.288 . S
C3477 C3478 1.369 . S
C3477 H3543 0.932 . S
C3478 C3477 1.369 . S
C3478 C3479 1.398 . S
C3478 C3482 1.527 . S
C3479 C3478 1.398 . S
C3479 C3480 1.380 . S
C3479 C3493 1.497 . S
C3480 C3479 1.380 . S
C3480 C3481 1.383 . S
C3480 C3483 1.603 . S
C3481 C3476 1.377 . S
C3481 C3480 1.383 . S
C3481 H3544 0.929 . S
C3482 C3478 1.527 . S
C3482 H3545 0.961 . S
C3482 H3546 0.959 . S
C3482 H3547 0.959 . S
C3483 C3480 1.603 . S
C3483 H3548 0.960 . S
C3483 H3549 0.962 . S
C3483 H3550 0.961 . S
C3484 C3451 1.587 . S
C3484 C3485 1.360 . S
C3484 C3497 1.412 . S
C3485 C3484 1.360 . S
C3485 C3486 1.365 . S
C3485 H3551 0.929 . S
C3486 C3461 1.553 . S
C3486 C3485 1.365 . S
C3486 C3487 1.404 . S
C3487 C3486 1.404 . S
C3487 C3488 1.395 . S
C3487 C3498 1.451 . S
C3488 C3487 1.395 . S
C3488 C3489 1.322 . S
C3488 H3552 0.930 . S
C3489 C3488 1.322 . S
C3489 C3490 1.459 . S
C3489 H3553 0.929 . S
C3490 C3489 1.459 . S
C3490 C3491 1.445 . S
C3490 C3499 1.395 . S
C3491 C3469 1.432 . S
C3491 C3490 1.445 . S
C3491 C3492 1.370 . S
C3492 C3491 1.370 . S
C3492 C3493 1.438 . S
C3492 H3554 0.930 . S
C3493 C3479 1.497 . S
C3493 C3492 1.438 . S
C3493 C3494 1.360 . S
C3494 C3493 1.360 . S
C3494 C3495 1.401 . S
C3494 C3499 1.446 . S
C3495 C3494 1.401 . S
C3495 C3496 1.347 . S
C3495 H3555 0.929 . S
C3496 C3495 1.347 . S
C3496 C3497 1.455 . S
C3496 H3556 0.930 . S
C3497 C3484 1.412 . S
C3497 C3496 1.455 . S
C3497 C3498 1.331 . S
C3498 C3487 1.451 . S
C3498 C3497 1.331 . S
C3498 C3499 1.497 . S
C3499 C3490 1.395 . S
C3499 C3494 1.446 . S
C3499 C3498 1.497 . S
C3500 C3501 1.582 . S
C3500 H3557 0.962 . S
C3500 H3558 0.959 . S
C3500 H3559 0.958 . S
C3501 C3500 1.582 . S
C3501 O3504 1.458 . S
C3501 H3530 0.980 . S
O3502 C3447 1.426 . S
O3502 C3448 1.334 . S
O3503 C3475 1.412 . S
O3503 C3476 1.393 . S
O3504 C3466 1.435 . S
O3504 C3501 1.458 . S
O3505 C3457 1.468 . S
O3505 C3458 1.408 . S
H3506 C3447 0.980 . S
H3507 C3446 0.959 . S
H3508 C3446 0.959 . S
H3509 C3446 0.960 . S
H3510 C3449 0.929 . S
H3511 C3453 0.929 . S
H3512 C3454 0.959 . S
H3513 C3454 0.961 . S
H3514 C3454 0.961 . S
H3515 C3455 0.960 . S
H3516 C3455 0.960 . S
H3517 C3455 0.961 . S
H3518 C3457 0.980 . S
H3519 C3456 0.961 . S
H3520 C3456 0.960 . S
H3521 C3456 0.959 . S
H3522 C3459 0.930 . S
H3523 C3463 0.931 . S
H3524 C3464 0.959 . S
H3525 C3464 0.961 . S
H3526 C3464 0.959 . S
H3527 C3465 0.960 . S
H3528 C3465 0.960 . S
H3529 C3465 0.960 . S
H3530 C3501 0.980 . S
H3531 C3467 0.930 . S
H3532 C3471 0.930 . S
H3533 C3472 0.961 . S
H3534 C3472 0.960 . S
H3535 C3472 0.958 . S
H3536 C3473 0.961 . S
H3537 C3473 0.960 . S
H3538 C3473 0.960 . S
H3539 C3475 0.980 . S
H3540 C3474 0.961 . S
H3541 C3474 0.961 . S
H3542 C3474 0.959 . S
H3543 C3477 0.932 . S
H3544 C3481 0.929 . S
H3545 C3482 0.961 . S
H3546 C3482 0.959 . S
H3547 C3482 0.959 . S
H3548 C3483 0.960 . S
H3549 C3483 0.962 . S
H3550 C3483 0.961 . S
H3551 C3485 0.929 . S
H3552 C3488 0.930 . S
H3553 C3489 0.929 . S
H3554 C3492 0.930 . S
H3555 C3495 0.929 . S
H3556 C3496 0.930 . S
H3557 C3500 0.962 . S
H3558 C3500 0.959 . S
H3559 C3500 0.958 . S
C3560 C3561 1.560 . S
C3560 H3621 0.959 . S
C3560 H3622 0.959 . S
C3560 H3623 0.960 . S
C3561 C3560 1.560 . S
C3561 O3616 1.426 . S
C3561 H3620 0.980 . S
C3562 C3563 1.407 . S
C3562 C3567 1.418 . S
C3562 O3616 1.334 . S
C3563 C3562 1.407 . S
C3563 C3564 1.360 . S
C3563 H3624 0.929 . S
C3564 C3563 1.360 . S
C3564 C3565 1.401 . S
C3564 C3568 1.527 . S
C3565 C3564 1.401 . S
C3565 C3566 1.405 . S
C3565 C3598 1.587 . S
C3566 C3565 1.405 . S
C3566 C3567 1.332 . S
C3566 C3569 1.496 . S
C3567 C3562 1.418 . S
C3567 C3566 1.332 . S
C3567 H3625 0.929 . S
C3568 C3564 1.527 . S
C3568 H3626 0.959 . S
C3568 H3627 0.961 . S
C3568 H3628 0.961 . S
C3569 C3566 1.496 . S
C3569 H3629 0.960 . S
C3569 H3630 0.960 . S
C3569 H3631 0.961 . S
C3570 C3571 1.517 . S
C3570 H3633 0.961 . S
C3570 H3634 0.960 . S
C3570 H3635 0.959 . S
C3571 C3570 1.517 . S
C3571 O3619 1.468 . S
C3571 H3632 0.980 . S
C3572 C3573 1.349 . S
C3572 C3577 1.367 . S
C3572 O3619 1.408 . S
C3573 C3572 1.349 . S
C3573 C3574 1.407 . S
C3573 H3636 0.930 . S
C3574 C3573 1.407 . S
C3574 C3575 1.449 . S
C3574 C3578 1.535 . S
C3575 C3574 1.449 . S
C3575 C3576 1.384 . S
C3575 C3600 1.553 . S
C3576 C3575 1.384 . S
C3576 C3577 1.364 . S
C3576 C3579 1.450 . S
C3577 C3572 1.367 . S
C3577 C3576 1.364 . S
C3577 H3637 0.931 . S
C3578 C3574 1.535 . S
C3578 H3638 0.959 . S
C3578 H3639 0.961 . S
C3578 H3640 0.959 . S
C3579 C3576 1.450 . S
C3579 H3641 0.960 . S
C3579 H3642 0.960 . S
C3579 H3643 0.960 . S
C3580 C3581 1.309 . S
C3580 C3585 1.304 . S
C3580 O3618 1.435 . S
C3581 C3580 1.309 . S
C3581 C3582 1.476 . S
C3581 H3645 0.930 . S
C3582 C3581 1.476 . S
C3582 C3583 1.400 . S
C3582 C3586 1.567 . S
C3583 C3582 1.400 . S
C3583 C3584 1.373 . S
C3583 C3605 1.432 . S
C3584 C3583 1.373 . S
C3584 C3585 1.339 . S
C3584 C3587 1.530 . S
C3585 C3580 1.304 . S
C3585 C3584 1.339 . S
C3585 H3646 0.930 . S
C3586 C3582 1.567 . S
C3586 H3647 0.961 . S
C3586 H3648 0.960 . S
C3586 H3649 0.958 . S
C3587 C3584 1.530 . S
C3587 H3650 0.961 . S
C3587 H3651 0.960 . S
C3587 H3652 0.960 . S
C3588 C3589 1.530 . S
C3588 H3654 0.961 . S
C3588 H3655 0.961 . S
C3588 H3656 0.959 . S
C3589 C3588 1.530 . S
C3589 O3617 1.412 . S
C3589 H3653 0.980 . S
C3590 C3591 1.288 . S
C3590 C3595 1.377 . S
C3590 O3617 1.393 . S
C3591 C3590 1.288 . S
C3591 C3592 1.369 . S
C3591 H3657 0.932 . S
C3592 C3591 1.369 . S
C3592 C3593 1.398 . S
C3592 C3596 1.527 . S
C3593 C3592 1.398 . S
C3593 C3594 1.380 . S
C3593 C3607 1.497 . S
C3594 C3593 1.380 . S
C3594 C3595 1.383 . S
C3594 C3597 1.603 . S
C3595 C3590 1.377 . S
C3595 C3594 1.383 . S
C3595 H3658 0.929 . S
C3596 C3592 1.527 . S
C3596 H3659 0.961 . S
C3596 H3660 0.959 . S
C3596 H3661 0.959 . S
C3597 C3594 1.603 . S
C3597 H3662 0.960 . S
C3597 H3663 0.962 . S
C3597 H3664 0.961 . S
C3598 C3565 1.587 . S
C3598 C3599 1.360 . S
C3598 C3611 1.412 . S
C3599 C3598 1.360 . S
C3599 C3600 1.365 . S
C3599 H3665 0.929 . S
C3600 C3575 1.553 . S
C3600 C3599 1.365 . S
C3600 C3601 1.404 . S
C3601 C3600 1.404 . S
C3601 C3602 1.395 . S
C3601 C3612 1.451 . S
C3602 C3601 1.395 . S
C3602 C3603 1.322 . S
C3602 H3666 0.930 . S
C3603 C3602 1.322 . S
C3603 C3604 1.459 . S
C3603 H3667 0.929 . S
C3604 C3603 1.459 . S
C3604 C3605 1.445 . S
C3604 C3613 1.395 . S
C3605 C3583 1.432 . S
C3605 C3604 1.445 . S
C3605 C3606 1.370 . S
C3606 C3605 1.370 . S
C3606 C3607 1.438 . S
C3606 H3668 0.930 . S
C3607 C3593 1.497 . S
C3607 C3606 1.438 . S
C3607 C3608 1.360 . S
C3608 C3607 1.360 . S
C3608 C3609 1.401 . S
C3608 C3613 1.446 . S
C3609 C3608 1.401 . S
C3609 C3610 1.347 . S
C3609 H3669 0.929 . S
C3610 C3609 1.347 . S
C3610 C3611 1.455 . S
C3610 H3670 0.930 . S
C3611 C3598 1.412 . S
C3611 C3610 1.455 . S
C3611 C3612 1.331 . S
C3612 C3601 1.451 . S
C3612 C3611 1.331 . S
C3612 C3613 1.497 . S
C3613 C3604 1.395 . S
C3613 C3608 1.446 . S
C3613 C3612 1.497 . S
C3614 C3615 1.582 . S
C3614 H3671 0.962 . S
C3614 H3672 0.959 . S
C3614 H3673 0.958 . S
C3615 C3614 1.582 . S
C3615 O3618 1.458 . S
C3615 H3644 0.980 . S
O3616 C3561 1.426 . S
O3616 C3562 1.334 . S
O3617 C3589 1.412 . S
O3617 C3590 1.393 . S
O3618 C3580 1.435 . S
O3618 C3615 1.458 . S
O3619 C3571 1.468 . S
O3619 C3572 1.408 . S
H3620 C3561 0.980 . S
H3621 C3560 0.959 . S
H3622 C3560 0.959 . S
H3623 C3560 0.960 . S
H3624 C3563 0.929 . S
H3625 C3567 0.929 . S
H3626 C3568 0.959 . S
H3627 C3568 0.961 . S
H3628 C3568 0.961 . S
H3629 C3569 0.960 . S
H3630 C3569 0.960 . S
H3631 C3569 0.961 . S
H3632 C3571 0.980 . S
H3633 C3570 0.961 . S
H3634 C3570 0.960 . S
H3635 C3570 0.959 . S
H3636 C3573 0.930 . S
H3637 C3577 0.931 . S
H3638 C3578 0.959 . S
H3639 C3578 0.961 . S
H3640 C3578 0.959 . S
H3641 C3579 0.960 . S
H3642 C3579 0.960 . S
H3643 C3579 0.960 . S
H3644 C3615 0.980 . S
H3645 C3581 0.930 . S
H3646 C3585 0.930 . S
H3647 C3586 0.961 . S
H3648 C3586 0.960 . S
H3649 C3586 0.958 . S
H3650 C3587 0.961 . S
H3651 C3587 0.960 . S
H3652 C3587 0.960 . S
H3653 C3589 0.980 . S
H3654 C3588 0.961 . S
H3655 C3588 0.961 . S
H3656 C3588 0.959 . S
H3657 C3591 0.932 . S
H3658 C3595 0.929 . S
H3659 C3596 0.961 . S
H3660 C3596 0.959 . S
H3661 C3596 0.959 . S
H3662 C3597 0.960 . S
H3663 C3597 0.962 . S
H3664 C3597 0.961 . S
H3665 C3599 0.929 . S
H3666 C3602 0.930 . S
H3667 C3603 0.929 . S
H3668 C3606 0.930 . S
H3669 C3609 0.929 . S
H3670 C3610 0.930 . S
H3671 C3614 0.962 . S
H3672 C3614 0.959 . S
H3673 C3614 0.958 . S
C3674 C3675 1.560 . S
C3674 H3735 0.959 . S
C3674 H3736 0.959 . S
C3674 H3737 0.960 . S
C3675 C3674 1.560 . S
C3675 O3730 1.426 . S
C3675 H3734 0.980 . S
C3676 C3677 1.407 . S
C3676 C3681 1.418 . S
C3676 O3730 1.334 . S
C3677 C3676 1.407 . S
C3677 C3678 1.360 . S
C3677 H3738 0.929 . S
C3678 C3677 1.360 . S
C3678 C3679 1.401 . S
C3678 C3682 1.527 . S
C3679 C3678 1.401 . S
C3679 C3680 1.405 . S
C3679 C3712 1.587 . S
C3680 C3679 1.405 . S
C3680 C3681 1.332 . S
C3680 C3683 1.496 . S
C3681 C3676 1.418 . S
C3681 C3680 1.332 . S
C3681 H3739 0.929 . S
C3682 C3678 1.527 . S
C3682 H3740 0.959 . S
C3682 H3741 0.961 . S
C3682 H3742 0.961 . S
C3683 C3680 1.496 . S
C3683 H3743 0.960 . S
C3683 H3744 0.960 . S
C3683 H3745 0.961 . S
C3684 C3685 1.517 . S
C3684 H3747 0.961 . S
C3684 H3748 0.960 . S
C3684 H3749 0.959 . S
C3685 C3684 1.517 . S
C3685 O3733 1.468 . S
C3685 H3746 0.980 . S
C3686 C3687 1.349 . S
C3686 C3691 1.367 . S
C3686 O3733 1.408 . S
C3687 C3686 1.349 . S
C3687 C3688 1.407 . S
C3687 H3750 0.930 . S
C3688 C3687 1.407 . S
C3688 C3689 1.449 . S
C3688 C3692 1.535 . S
C3689 C3688 1.449 . S
C3689 C3690 1.384 . S
C3689 C3714 1.553 . S
C3690 C3689 1.384 . S
C3690 C3691 1.364 . S
C3690 C3693 1.450 . S
C3691 C3686 1.367 . S
C3691 C3690 1.364 . S
C3691 H3751 0.931 . S
C3692 C3688 1.535 . S
C3692 H3752 0.959 . S
C3692 H3753 0.961 . S
C3692 H3754 0.959 . S
C3693 C3690 1.450 . S
C3693 H3755 0.960 . S
C3693 H3756 0.960 . S
C3693 H3757 0.960 . S
C3694 C3695 1.309 . S
C3694 C3699 1.304 . S
C3694 O3732 1.435 . S
C3695 C3694 1.309 . S
C3695 C3696 1.476 . S
C3695 H3759 0.930 . S
C3696 C3695 1.476 . S
C3696 C3697 1.400 . S
C3696 C3700 1.567 . S
C3697 C3696 1.400 . S
C3697 C3698 1.373 . S
C3697 C3719 1.432 . S
C3698 C3697 1.373 . S
C3698 C3699 1.339 . S
C3698 C3701 1.530 . S
C3699 C3694 1.304 . S
C3699 C3698 1.339 . S
C3699 H3760 0.930 . S
C3700 C3696 1.567 . S
C3700 H3761 0.961 . S
C3700 H3762 0.960 . S
C3700 H3763 0.958 . S
C3701 C3698 1.530 . S
C3701 H3764 0.961 . S
C3701 H3765 0.960 . S
C3701 H3766 0.960 . S
C3702 C3703 1.530 . S
C3702 H3768 0.961 . S
C3702 H3769 0.961 . S
C3702 H3770 0.959 . S
C3703 C3702 1.530 . S
C3703 O3731 1.412 . S
C3703 H3767 0.980 . S
C3704 C3705 1.288 . S
C3704 C3709 1.377 . S
C3704 O3731 1.393 . S
C3705 C3704 1.288 . S
C3705 C3706 1.369 . S
C3705 H3771 0.932 . S
C3706 C3705 1.369 . S
C3706 C3707 1.398 . S
C3706 C3710 1.527 . S
C3707 C3706 1.398 . S
C3707 C3708 1.380 . S
C3707 C3721 1.497 . S
C3708 C3707 1.380 . S
C3708 C3709 1.383 . S
C3708 C3711 1.603 . S
C3709 C3704 1.377 . S
C3709 C3708 1.383 . S
C3709 H3772 0.929 . S
C3710 C3706 1.527 . S
C3710 H3773 0.961 . S
C3710 H3774 0.959 . S
C3710 H3775 0.959 . S
C3711 C3708 1.603 . S
C3711 H3776 0.960 . S
C3711 H3777 0.962 . S
C3711 H3778 0.961 . S
C3712 C3679 1.587 . S
C3712 C3713 1.360 . S
C3712 C3725 1.412 . S
C3713 C3712 1.360 . S
C3713 C3714 1.365 . S
C3713 H3779 0.929 . S
C3714 C3689 1.553 . S
C3714 C3713 1.365 . S
C3714 C3715 1.404 . S
C3715 C3714 1.404 . S
C3715 C3716 1.395 . S
C3715 C3726 1.451 . S
C3716 C3715 1.395 . S
C3716 C3717 1.322 . S
C3716 H3780 0.930 . S
C3717 C3716 1.322 . S
C3717 C3718 1.459 . S
C3717 H3781 0.929 . S
C3718 C3717 1.459 . S
C3718 C3719 1.445 . S
C3718 C3727 1.395 . S
C3719 C3697 1.432 . S
C3719 C3718 1.445 . S
C3719 C3720 1.370 . S
C3720 C3719 1.370 . S
C3720 C3721 1.438 . S
C3720 H3782 0.930 . S
C3721 C3707 1.497 . S
C3721 C3720 1.438 . S
C3721 C3722 1.360 . S
C3722 C3721 1.360 . S
C3722 C3723 1.401 . S
C3722 C3727 1.446 . S
C3723 C3722 1.401 . S
C3723 C3724 1.347 . S
C3723 H3783 0.929 . S
C3724 C3723 1.347 . S
C3724 C3725 1.455 . S
C3724 H3784 0.930 . S
C3725 C3712 1.412 . S
C3725 C3724 1.455 . S
C3725 C3726 1.331 . S
C3726 C3715 1.451 . S
C3726 C3725 1.331 . S
C3726 C3727 1.497 . S
C3727 C3718 1.395 . S
C3727 C3722 1.446 . S
C3727 C3726 1.497 . S
C3728 C3729 1.582 . S
C3728 H3785 0.962 . S
C3728 H3786 0.959 . S
C3728 H3787 0.958 . S
C3729 C3728 1.582 . S
C3729 O3732 1.458 . S
C3729 H3758 0.980 . S
O3730 C3675 1.426 . S
O3730 C3676 1.334 . S
O3731 C3703 1.412 . S
O3731 C3704 1.393 . S
O3732 C3694 1.435 . S
O3732 C3729 1.458 . S
O3733 C3685 1.468 . S
O3733 C3686 1.408 . S
H3734 C3675 0.980 . S
H3735 C3674 0.959 . S
H3736 C3674 0.959 . S
H3737 C3674 0.960 . S
H3738 C3677 0.929 . S
H3739 C3681 0.929 . S
H3740 C3682 0.959 . S
H3741 C3682 0.961 . S
H3742 C3682 0.961 . S
H3743 C3683 0.960 . S
H3744 C3683 0.960 . S
H3745 C3683 0.961 . S
H3746 C3685 0.980 . S
H3747 C3684 0.961 . S
H3748 C3684 0.960 . S
H3749 C3684 0.959 . S
H3750 C3687 0.930 . S
H3751 C3691 0.931 . S
H3752 C3692 0.959 . S
H3753 C3692 0.961 . S
H3754 C3692 0.959 . S
H3755 C3693 0.960 . S
H3756 C3693 0.960 . S
H3757 C3693 0.960 . S
H3758 C3729 0.980 . S
H3759 C3695 0.930 . S
H3760 C3699 0.930 . S
H3761 C3700 0.961 . S
H3762 C3700 0.960 . S
H3763 C3700 0.958 . S
H3764 C3701 0.961 . S
H3765 C3701 0.960 . S
H3766 C3701 0.960 . S
H3767 C3703 0.980 . S
H3768 C3702 0.961 . S
H3769 C3702 0.961 . S
H3770 C3702 0.959 . S
H3771 C3705 0.932 . S
H3772 C3709 0.929 . S
H3773 C3710 0.961 . S
H3774 C3710 0.959 . S
H3775 C3710 0.959 . S
H3776 C3711 0.960 . S
H3777 C3711 0.962 . S
H3778 C3711 0.961 . S
H3779 C3713 0.929 . S
H3780 C3716 0.930 . S
H3781 C3717 0.929 . S
H3782 C3720 0.930 . S
H3783 C3723 0.929 . S
H3784 C3724 0.930 . S
H3785 C3728 0.962 . S
H3786 C3728 0.959 . S
H3787 C3728 0.958 . S
C3788 C3789 1.560 . S
C3788 H3849 0.959 . S
C3788 H3850 0.959 . S
C3788 H3851 0.960 . S
C3789 C3788 1.560 . S
C3789 O3844 1.426 . S
C3789 H3848 0.980 . S
C3790 C3791 1.407 . S
C3790 C3795 1.418 . S
C3790 O3844 1.334 . S
C3791 C3790 1.407 . S
C3791 C3792 1.360 . S
C3791 H3852 0.929 . S
C3792 C3791 1.360 . S
C3792 C3793 1.401 . S
C3792 C3796 1.527 . S
C3793 C3792 1.401 . S
C3793 C3794 1.405 . S
C3793 C3826 1.587 . S
C3794 C3793 1.405 . S
C3794 C3795 1.332 . S
C3794 C3797 1.496 . S
C3795 C3790 1.418 . S
C3795 C3794 1.332 . S
C3795 H3853 0.929 . S
C3796 C3792 1.527 . S
C3796 H3854 0.959 . S
C3796 H3855 0.961 . S
C3796 H3856 0.961 . S
C3797 C3794 1.496 . S
C3797 H3857 0.960 . S
C3797 H3858 0.960 . S
C3797 H3859 0.961 . S
C3798 C3799 1.517 . S
C3798 H3861 0.961 . S
C3798 H3862 0.960 . S
C3798 H3863 0.959 . S
C3799 C3798 1.517 . S
C3799 O3847 1.468 . S
C3799 H3860 0.980 . S
C3800 C3801 1.349 . S
C3800 C3805 1.367 . S
C3800 O3847 1.408 . S
C3801 C3800 1.349 . S
C3801 C3802 1.407 . S
C3801 H3864 0.930 . S
C3802 C3801 1.407 . S
C3802 C3803 1.449 . S
C3802 C3806 1.535 . S
C3803 C3802 1.449 . S
C3803 C3804 1.384 . S
C3803 C3828 1.553 . S
C3804 C3803 1.384 . S
C3804 C3805 1.364 . S
C3804 C3807 1.450 . S
C3805 C3800 1.367 . S
C3805 C3804 1.364 . S
C3805 H3865 0.931 . S
C3806 C3802 1.535 . S
C3806 H3866 0.959 . S
C3806 H3867 0.961 . S
C3806 H3868 0.959 . S
C3807 C3804 1.450 . S
C3807 H3869 0.960 . S
C3807 H3870 0.960 . S
C3807 H3871 0.960 . S
C3808 C3809 1.309 . S
C3808 C3813 1.304 . S
C3808 O3846 1.435 . S
C3809 C3808 1.309 . S
C3809 C3810 1.476 . S
C3809 H3873 0.930 . S
C3810 C3809 1.476 . S
C3810 C3811 1.400 . S
C3810 C3814 1.567 . S
C3811 C3810 1.400 . S
C3811 C3812 1.373 . S
C3811 C3833 1.432 . S
C3812 C3811 1.373 . S
C3812 C3813 1.339 . S
C3812 C3815 1.530 . S
C3813 C3808 1.304 . S
C3813 C3812 1.339 . S
C3813 H3874 0.930 . S
C3814 C3810 1.567 . S
C3814 H3875 0.961 . S
C3814 H3876 0.960 . S
C3814 H3877 0.958 . S
C3815 C3812 1.530 . S
C3815 H3878 0.961 . S
C3815 H3879 0.960 . S
C3815 H3880 0.960 . S
C3816 C3817 1.530 . S
C3816 H3882 0.961 . S
C3816 H3883 0.961 . S
C3816 H3884 0.959 . S
C3817 C3816 1.530 . S
C3817 O3845 1.412 . S
C3817 H3881 0.980 . S
C3818 C3819 1.288 . S
C3818 C3823 1.377 . S
C3818 O3845 1.393 . S
C3819 C3818 1.288 . S
C3819 C3820 1.369 . S
C3819 H3885 0.932 . S
C3820 C3819 1.369 . S
C3820 C3821 1.398 . S
C3820 C3824 1.527 . S
C3821 C3820 1.398 . S
C3821 C3822 1.380 . S
C3821 C3835 1.497 . S
C3822 C3821 1.380 . S
C3822 C3823 1.383 . S
C3822 C3825 1.603 . S
C3823 C3818 1.377 . S
C3823 C3822 1.383 . S
C3823 H3886 0.929 . S
C3824 C3820 1.527 . S
C3824 H3887 0.961 . S
C3824 H3888 0.959 . S
C3824 H3889 0.959 . S
C3825 C3822 1.603 . S
C3825 H3890 0.960 . S
C3825 H3891 0.962 . S
C3825 H3892 0.961 . S
C3826 C3793 1.587 . S
C3826 C3827 1.360 . S
C3826 C3839 1.412 . S
C3827 C3826 1.360 . S
C3827 C3828 1.365 . S
C3827 H3893 0.929 . S
C3828 C3803 1.553 . S
C3828 C3827 1.365 . S
C3828 C3829 1.404 . S
C3829 C3828 1.404 . S
C3829 C3830 1.395 . S
C3829 C3840 1.451 . S
C3830 C3829 1.395 . S
C3830 C3831 1.322 . S
C3830 H3894 0.930 . S
C3831 C3830 1.322 . S
C3831 C3832 1.459 . S
C3831 H3895 0.929 . S
C3832 C3831 1.459 . S
C3832 C3833 1.445 . S
C3832 C3841 1.395 . S
C3833 C3811 1.432 . S
C3833 C3832 1.445 . S
C3833 C3834 1.370 . S
C3834 C3833 1.370 . S
C3834 C3835 1.438 . S
C3834 H3896 0.930 . S
C3835 C3821 1.497 . S
C3835 C3834 1.438 . S
C3835 C3836 1.360 . S
C3836 C3835 1.360 . S
C3836 C3837 1.401 . S
C3836 C3841 1.446 . S
C3837 C3836 1.401 . S
C3837 C3838 1.347 . S
C3837 H3897 0.929 . S
C3838 C3837 1.347 . S
C3838 C3839 1.455 . S
C3838 H3898 0.930 . S
C3839 C3826 1.412 . S
C3839 C3838 1.455 . S
C3839 C3840 1.331 . S
C3840 C3829 1.451 . S
C3840 C3839 1.331 . S
C3840 C3841 1.497 . S
C3841 C3832 1.395 . S
C3841 C3836 1.446 . S
C3841 C3840 1.497 . S
C3842 C3843 1.582 . S
C3842 H3899 0.962 . S
C3842 H3900 0.959 . S
C3842 H3901 0.958 . S
C3843 C3842 1.582 . S
C3843 O3846 1.458 . S
C3843 H3872 0.980 . S
O3844 C3789 1.426 . S
O3844 C3790 1.334 . S
O3845 C3817 1.412 . S
O3845 C3818 1.393 . S
O3846 C3808 1.435 . S
O3846 C3843 1.458 . S
O3847 C3799 1.468 . S
O3847 C3800 1.408 . S
H3848 C3789 0.980 . S
H3849 C3788 0.959 . S
H3850 C3788 0.959 . S
H3851 C3788 0.960 . S
H3852 C3791 0.929 . S
H3853 C3795 0.929 . S
H3854 C3796 0.959 . S
H3855 C3796 0.961 . S
H3856 C3796 0.961 . S
H3857 C3797 0.960 . S
H3858 C3797 0.960 . S
H3859 C3797 0.961 . S
H3860 C3799 0.980 . S
H3861 C3798 0.961 . S
H3862 C3798 0.960 . S
H3863 C3798 0.959 . S
H3864 C3801 0.930 . S
H3865 C3805 0.931 . S
H3866 C3806 0.959 . S
H3867 C3806 0.961 . S
H3868 C3806 0.959 . S
H3869 C3807 0.960 . S
H3870 C3807 0.960 . S
H3871 C3807 0.960 . S
H3872 C3843 0.980 . S
H3873 C3809 0.930 . S
H3874 C3813 0.930 . S
H3875 C3814 0.961 . S
H3876 C3814 0.960 . S
H3877 C3814 0.958 . S
H3878 C3815 0.961 . S
H3879 C3815 0.960 . S
H3880 C3815 0.960 . S
H3881 C3817 0.980 . S
H3882 C3816 0.961 . S
H3883 C3816 0.961 . S
H3884 C3816 0.959 . S
H3885 C3819 0.932 . S
H3886 C3823 0.929 . S
H3887 C3824 0.961 . S
H3888 C3824 0.959 . S
H3889 C3824 0.959 . S
H3890 C3825 0.960 . S
H3891 C3825 0.962 . S
H3892 C3825 0.961 . S
H3893 C3827 0.929 . S
H3894 C3830 0.930 . S
H3895 C3831 0.929 . S
H3896 C3834 0.930 . S
H3897 C3837 0.929 . S
H3898 C3838 0.930 . S
H3899 C3842 0.962 . S
H3900 C3842 0.959 . S
H3901 C3842 0.958 . S
C3902 C3903 1.560 . S
C3902 H3963 0.959 . S
C3902 H3964 0.959 . S
C3902 H3965 0.960 . S
C3903 C3902 1.560 . S
C3903 O3958 1.426 . S
C3903 H3962 0.980 . S
C3904 C3905 1.407 . S
C3904 C3909 1.418 . S
C3904 O3958 1.334 . S
C3905 C3904 1.407 . S
C3905 C3906 1.360 . S
C3905 H3966 0.929 . S
C3906 C3905 1.360 . S
C3906 C3907 1.401 . S
C3906 C3910 1.527 . S
C3907 C3906 1.401 . S
C3907 C3908 1.405 . S
C3907 C3940 1.587 . S
C3908 C3907 1.405 . S
C3908 C3909 1.332 . S
C3908 C3911 1.496 . S
C3909 C3904 1.418 . S
C3909 C3908 1.332 . S
C3909 H3967 0.929 . S
C3910 C3906 1.527 . S
C3910 H3968 0.959 . S
C3910 H3969 0.961 . S
C3910 H3970 0.961 . S
C3911 C3908 1.496 . S
C3911 H3971 0.960 . S
C3911 H3972 0.960 . S
C3911 H3973 0.961 . S
C3912 C3913 1.517 . S
C3912 H3975 0.961 . S
C3912 H3976 0.960 . S
C3912 H3977 0.959 . S
C3913 C3912 1.517 . S
C3913 O3961 1.468 . S
C3913 H3974 0.980 . S
C3914 C3915 1.349 . S
C3914 C3919 1.367 . S
C3914 O3961 1.408 . S
C3915 C3914 1.349 . S
C3915 C3916 1.407 . S
C3915 H3978 0.930 . S
C3916 C3915 1.407 . S
C3916 C3917 1.449 . S
C3916 C3920 1.535 . S
C3917 C3916 1.449 . S
C3917 C3918 1.384 . S
C3917 C3942 1.553 . S
C3918 C3917 1.384 . S
C3918 C3919 1.364 . S
C3918 C3921 1.450 . S
C3919 C3914 1.367 . S
C3919 C3918 1.364 . S
C3919 H3979 0.931 . S
C3920 C3916 1.535 . S
C3920 H3980 0.959 . S
C3920 H3981 0.961 . S
C3920 H3982 0.959 . S
C3921 C3918 1.450 . S
C3921 H3983 0.960 . S
C3921 H3984 0.960 . S
C3921 H3985 0.960 . S
C3922 C3923 1.309 . S
C3922 C3927 1.304 . S
C3922 O3960 1.435 . S
C3923 C3922 1.309 . S
C3923 C3924 1.476 . S
C3923 H3987 0.930 . S
C3924 C3923 1.476 . S
C3924 C3925 1.400 . S
C3924 C3928 1.567 . S
C3925 C3924 1.400 . S
C3925 C3926 1.373 . S
C3925 C3947 1.432 . S
C3926 C3925 1.373 . S
C3926 C3927 1.339 . S
C3926 C3929 1.530 . S
C3927 C3922 1.304 . S
C3927 C3926 1.339 . S
C3927 H3988 0.930 . S
C3928 C3924 1.567 . S
C3928 H3989 0.961 . S
C3928 H3990 0.960 . S
C3928 H3991 0.958 . S
C3929 C3926 1.530 . S
C3929 H3992 0.961 . S
C3929 H3993 0.960 . S
C3929 H3994 0.960 . S
C3930 C3931 1.530 . S
C3930 H3996 0.961 . S
C3930 H3997 0.961 . S
C3930 H3998 0.959 . S
C3931 C3930 1.530 . S
C3931 O3959 1.412 . S
C3931 H3995 0.980 . S
C3932 C3933 1.288 . S
C3932 C3937 1.377 . S
C3932 O3959 1.393 . S
C3933 C3932 1.288 . S
C3933 C3934 1.369 . S
C3933 H3999 0.932 . S
C3934 C3933 1.369 . S
C3934 C3935 1.398 . S
C3934 C3938 1.527 . S
C3935 C3934 1.398 . S
C3935 C3936 1.380 . S
C3935 C3949 1.497 . S
C3936 C3935 1.380 . S
C3936 C3937 1.383 . S
C3936 C3939 1.603 . S
C3937 C3932 1.377 . S
C3937 C3936 1.383 . S
C3937 H4000 0.929 . S
C3938 C3934 1.527 . S
C3938 H4001 0.961 . S
C3938 H4002 0.959 . S
C3938 H4003 0.959 . S
C3939 C3936 1.603 . S
C3939 H4004 0.960 . S
C3939 H4005 0.962 . S
C3939 H4006 0.961 . S
C3940 C3907 1.587 . S
C3940 C3941 1.360 . S
C3940 C3953 1.412 . S
C3941 C3940 1.360 . S
C3941 C3942 1.365 . S
C3941 H4007 0.929 . S
C3942 C3917 1.553 . S
C3942 C3941 1.365 . S
C3942 C3943 1.404 . S
C3943 C3942 1.404 . S
C3943 C3944 1.395 . S
C3943 C3954 1.451 . S
C3944 C3943 1.395 . S
C3944 C3945 1.322 . S
C3944 H4008 0.930 . S
C3945 C3944 1.322 . S
C3945 C3946 1.459 . S
C3945 H4009 0.929 . S
C3946 C3945 1.459 . S
C3946 C3947 1.445 . S
C3946 C3955 1.395 . S
C3947 C3925 1.432 . S
C3947 C3946 1.445 . S
C3947 C3948 1.370 . S
C3948 C3947 1.370 . S
C3948 C3949 1.438 . S
C3948 H4010 0.930 . S
C3949 C3935 1.497 . S
C3949 C3948 1.438 . S
C3949 C3950 1.360 . S
C3950 C3949 1.360 . S
C3950 C3951 1.401 . S
C3950 C3955 1.446 . S
C3951 C3950 1.401 . S
C3951 C3952 1.347 . S
C3951 H4011 0.929 . S
C3952 C3951 1.347 . S
C3952 C3953 1.455 . S
C3952 H4012 0.930 . S
C3953 C3940 1.412 . S
C3953 C3952 1.455 . S
C3953 C3954 1.331 . S
C3954 C3943 1.451 . S
C3954 C3953 1.331 . S
C3954 C3955 1.497 . S
C3955 C3946 1.395 . S
C3955 C3950 1.446 . S
C3955 C3954 1.497 . S
C3956 C3957 1.582 . S
C3956 H4013 0.962 . S
C3956 H4014 0.959 . S
C3956 H4015 0.958 . S
C3957 C3956 1.582 . S
C3957 O3960 1.458 . S
C3957 H3986 0.980 . S
O3958 C3903 1.426 . S
O3958 C3904 1.334 . S
O3959 C3931 1.412 . S
O3959 C3932 1.393 . S
O3960 C3922 1.435 . S
O3960 C3957 1.458 . S
O3961 C3913 1.468 . S
O3961 C3914 1.408 . S
H3962 C3903 0.980 . S
H3963 C3902 0.959 . S
H3964 C3902 0.959 . S
H3965 C3902 0.960 . S
H3966 C3905 0.929 . S
H3967 C3909 0.929 . S
H3968 C3910 0.959 . S
H3969 C3910 0.961 . S
H3970 C3910 0.961 . S
H3971 C3911 0.960 . S
H3972 C3911 0.960 . S
H3973 C3911 0.961 . S
H3974 C3913 0.980 . S
H3975 C3912 0.961 . S
H3976 C3912 0.960 . S
H3977 C3912 0.959 . S
H3978 C3915 0.930 . S
H3979 C3919 0.931 . S
H3980 C3920 0.959 . S
H3981 C3920 0.961 . S
H3982 C3920 0.959 . S
H3983 C3921 0.960 . S
H3984 C3921 0.960 . S
H3985 C3921 0.960 . S
H3986 C3957 0.980 . S
H3987 C3923 0.930 . S
H3988 C3927 0.930 . S
H3989 C3928 0.961 . S
H3990 C3928 0.960 . S
H3991 C3928 0.958 . S
H3992 C3929 0.961 . S
H3993 C3929 0.960 . S
H3994 C3929 0.960 . S
H3995 C3931 0.980 . S
H3996 C3930 0.961 . S
H3997 C3930 0.961 . S
H3998 C3930 0.959 . S
H3999 C3933 0.932 . S
H4000 C3937 0.929 . S
H4001 C3938 0.961 . S
H4002 C3938 0.959 . S
H4003 C3938 0.959 . S
H4004 C3939 0.960 . S
H4005 C3939 0.962 . S
H4006 C3939 0.961 . S
H4007 C3941 0.929 . S
H4008 C3944 0.930 . S
H4009 C3945 0.929 . S
H4010 C3948 0.930 . S
H4011 C3951 0.929 . S
H4012 C3952 0.930 . S
H4013 C3956 0.962 . S
H4014 C3956 0.959 . S
H4015 C3956 0.958 . S
H4016 C4024 0.950 . S
H4017 C4029 0.950 . S
H4018 C4026 0.950 . S
H4019 C4028 0.950 . S
H4020 C4030 0.950 . S
H4021 C4032 0.950 . S
H4022 C4034 0.950 . S
H4023 C4035 0.950 . S
C4024 H4016 0.950 . S
C4024 C4025 1.386 . S
C4024 C4026 1.391 . S
C4025 C4024 1.386 . S
C4025 C4029 1.393 . S
C4026 H4018 0.950 . S
C4026 C4024 1.391 . S
C4026 C4027 1.400 . S
C4027 C4026 1.400 . S
C4027 C4028 1.398 . S
C4027 C4033 1.491 . S
C4028 H4019 0.950 . S
C4028 C4027 1.398 . S
C4028 C4029 1.391 . S
C4029 H4017 0.950 . S
C4029 C4025 1.393 . S
C4029 C4028 1.391 . S
C4030 H4020 0.950 . S
C4030 C4031 1.386 . S
C4030 C4032 1.391 . S
C4031 C4030 1.386 . S
C4031 C4035 1.393 . S
C4032 H4021 0.950 . S
C4032 C4030 1.391 . S
C4032 C4033 1.400 . S
C4033 C4027 1.491 . S
C4033 C4032 1.400 . S
C4033 C4034 1.398 . S
C4034 H4022 0.950 . S
C4034 C4033 1.398 . S
C4034 C4035 1.391 . S
C4035 H4023 0.950 . S
C4035 C4031 1.393 . S
C4035 C4034 1.391 . S
H4036 C4044 0.950 . S
H4037 C4049 0.950 . S
H4038 C4046 0.950 . S
H4039 C4048 0.950 . S
H4040 C4050 0.950 . S
H4041 C4052 0.950 . S
H4042 C4054 0.950 . S
H4043 C4055 0.950 . S
C4044 H4036 0.950 . S
C4044 C4045 1.386 . S
C4044 C4046 1.391 . S
C4045 C4044 1.386 . S
C4045 C4049 1.393 . S
C4046 H4038 0.950 . S
C4046 C4044 1.391 . S
C4046 C4047 1.400 . S
C4047 C4046 1.400 . S
C4047 C4048 1.398 . S
C4047 C4053 1.491 . S
C4048 H4039 0.950 . S
C4048 C4047 1.398 . S
C4048 C4049 1.391 . S
C4049 H4037 0.950 . S
C4049 C4045 1.393 . S
C4049 C4048 1.391 . S
C4050 H4040 0.950 . S
C4050 C4051 1.386 . S
C4050 C4052 1.391 . S
C4051 C4050 1.386 . S
C4051 C4055 1.393 . S
C4052 H4041 0.950 . S
C4052 C4050 1.391 . S
C4052 C4053 1.400 . S
C4053 C4047 1.491 . S
C4053 C4052 1.400 . S
C4053 C4054 1.398 . S
C4054 H4042 0.950 . S
C4054 C4053 1.398 . S
C4054 C4055 1.391 . S
C4055 H4043 0.950 . S
C4055 C4051 1.393 . S
C4055 C4054 1.391 . S
H4056 C4064 0.950 . S
H4057 C4069 0.950 . S
H4058 C4066 0.950 . S
H4059 C4068 0.950 . S
H4060 C4070 0.950 . S
H4061 C4072 0.950 . S
H4062 C4074 0.950 . S
H4063 C4075 0.950 . S
C4064 H4056 0.950 . S
C4064 C4065 1.386 . S
C4064 C4066 1.391 . S
C4065 C4064 1.386 . S
C4065 C4069 1.393 . S
C4066 H4058 0.950 . S
C4066 C4064 1.391 . S
C4066 C4067 1.400 . S
C4067 C4066 1.400 . S
C4067 C4068 1.398 . S
C4067 C4073 1.491 . S
C4068 H4059 0.950 . S
C4068 C4067 1.398 . S
C4068 C4069 1.391 . S
C4069 H4057 0.950 . S
C4069 C4065 1.393 . S
C4069 C4068 1.391 . S
C4070 H4060 0.950 . S
C4070 C4071 1.386 . S
C4070 C4072 1.391 . S
C4071 C4070 1.386 . S
C4071 C4075 1.393 . S
C4072 H4061 0.950 . S
C4072 C4070 1.391 . S
C4072 C4073 1.400 . S
C4073 C4067 1.491 . S
C4073 C4072 1.400 . S
C4073 C4074 1.398 . S
C4074 H4062 0.950 . S
C4074 C4073 1.398 . S
C4074 C4075 1.391 . S
C4075 H4063 0.950 . S
C4075 C4071 1.393 . S
C4075 C4074 1.391 . S
H4076 C4084 0.950 . S
H4077 C4089 0.950 . S
H4078 C4086 0.950 . S
H4079 C4088 0.950 . S
H4080 C4090 0.950 . S
H4081 C4092 0.950 . S
H4082 C4094 0.950 . S
H4083 C4095 0.950 . S
C4084 H4076 0.950 . S
C4084 C4085 1.386 . S
C4084 C4086 1.391 . S
C4085 C4084 1.386 . S
C4085 C4089 1.393 . S
C4086 H4078 0.950 . S
C4086 C4084 1.391 . S
C4086 C4087 1.400 . S
C4087 C4086 1.400 . S
C4087 C4088 1.398 . S
C4087 C4093 1.491 . S
C4088 H4079 0.950 . S
C4088 C4087 1.398 . S
C4088 C4089 1.391 . S
C4089 H4077 0.950 . S
C4089 C4085 1.393 . S
C4089 C4088 1.391 . S
C4090 H4080 0.950 . S
C4090 C4091 1.386 . S
C4090 C4092 1.391 . S
C4091 C4090 1.386 . S
C4091 C4095 1.393 . S
C4092 H4081 0.950 . S
C4092 C4090 1.391 . S
C4092 C4093 1.400 . S
C4093 C4087 1.491 . S
C4093 C4092 1.400 . S
C4093 C4094 1.398 . S
C4094 H4082 0.950 . S
C4094 C4093 1.398 . S
C4094 C4095 1.391 . S
C4095 H4083 0.950 . S
C4095 C4091 1.393 . S
C4095 C4094 1.391 . S
H4096 C4104 0.950 . S
H4097 C4109 0.950 . S
H4098 C4106 0.950 . S
H4099 C4108 0.950 . S
H4100 C4110 0.950 . S
H4101 C4112 0.950 . S
H4102 C4114 0.950 . S
H4103 C4115 0.950 . S
C4104 H4096 0.950 . S
C4104 C4105 1.386 . S
C4104 C4106 1.391 . S
C4105 C4104 1.386 . S
C4105 C4109 1.393 . S
C4106 H4098 0.950 . S
C4106 C4104 1.391 . S
C4106 C4107 1.400 . S
C4107 C4106 1.400 . S
C4107 C4108 1.398 . S
C4107 C4113 1.491 . S
C4108 H4099 0.950 . S
C4108 C4107 1.398 . S
C4108 C4109 1.391 . S
C4109 H4097 0.950 . S
C4109 C4105 1.393 . S
C4109 C4108 1.391 . S
C4110 H4100 0.950 . S
C4110 C4111 1.386 . S
C4110 C4112 1.391 . S
C4111 C4110 1.386 . S
C4111 C4115 1.393 . S
C4112 H4101 0.950 . S
C4112 C4110 1.391 . S
C4112 C4113 1.400 . S
C4113 C4107 1.491 . S
C4113 C4112 1.400 . S
C4113 C4114 1.398 . S
C4114 H4102 0.950 . S
C4114 C4113 1.398 . S
C4114 C4115 1.391 . S
C4115 H4103 0.950 . S
C4115 C4111 1.393 . S
C4115 C4114 1.391 . S
H4116 C4124 0.950 . S
H4117 C4129 0.950 . S
H4118 C4126 0.950 . S
H4119 C4128 0.950 . S
H4120 C4130 0.950 . S
H4121 C4132 0.950 . S
H4122 C4134 0.950 . S
H4123 C4135 0.950 . S
C4124 H4116 0.950 . S
C4124 C4125 1.386 . S
C4124 C4126 1.391 . S
C4125 C4124 1.386 . S
C4125 C4129 1.393 . S
C4126 H4118 0.950 . S
C4126 C4124 1.391 . S
C4126 C4127 1.400 . S
C4127 C4126 1.400 . S
C4127 C4128 1.398 . S
C4127 C4133 1.491 . S
C4128 H4119 0.950 . S
C4128 C4127 1.398 . S
C4128 C4129 1.391 . S
C4129 H4117 0.950 . S
C4129 C4125 1.393 . S
C4129 C4128 1.391 . S
C4130 H4120 0.950 . S
C4130 C4131 1.386 . S
C4130 C4132 1.391 . S
C4131 C4130 1.386 . S
C4131 C4135 1.393 . S
C4132 H4121 0.950 . S
C4132 C4130 1.391 . S
C4132 C4133 1.400 . S
C4133 C4127 1.491 . S
C4133 C4132 1.400 . S
C4133 C4134 1.398 . S
C4134 H4122 0.950 . S
C4134 C4133 1.398 . S
C4134 C4135 1.391 . S
C4135 H4123 0.950 . S
C4135 C4131 1.393 . S
C4135 C4134 1.391 . S
H4136 C4144 0.950 . S
H4137 C4149 0.950 . S
H4138 C4146 0.950 . S
H4139 C4148 0.950 . S
H4140 C4150 0.950 . S
H4141 C4152 0.950 . S
H4142 C4154 0.950 . S
H4143 C4155 0.950 . S
C4144 H4136 0.950 . S
C4144 C4145 1.386 . S
C4144 C4146 1.391 . S
C4145 C4144 1.386 . S
C4145 C4149 1.393 . S
C4146 H4138 0.950 . S
C4146 C4144 1.391 . S
C4146 C4147 1.400 . S
C4147 C4146 1.400 . S
C4147 C4148 1.398 . S
C4147 C4153 1.491 . S
C4148 H4139 0.950 . S
C4148 C4147 1.398 . S
C4148 C4149 1.391 . S
C4149 H4137 0.950 . S
C4149 C4145 1.393 . S
C4149 C4148 1.391 . S
C4150 H4140 0.950 . S
C4150 C4151 1.386 . S
C4150 C4152 1.391 . S
C4151 C4150 1.386 . S
C4151 C4155 1.393 . S
C4152 H4141 0.950 . S
C4152 C4150 1.391 . S
C4152 C4153 1.400 . S
C4153 C4147 1.491 . S
C4153 C4152 1.400 . S
C4153 C4154 1.398 . S
C4154 H4142 0.950 . S
C4154 C4153 1.398 . S
C4154 C4155 1.391 . S
C4155 H4143 0.950 . S
C4155 C4151 1.393 . S
C4155 C4154 1.391 . S
H4156 C4164 0.950 . S
H4157 C4169 0.950 . S
H4158 C4166 0.950 . S
H4159 C4168 0.950 . S
H4160 C4170 0.950 . S
H4161 C4172 0.950 . S
H4162 C4174 0.950 . S
H4163 C4175 0.950 . S
C4164 H4156 0.950 . S
C4164 C4165 1.386 . S
C4164 C4166 1.391 . S
C4165 C4164 1.386 . S
C4165 C4169 1.393 . S
C4166 H4158 0.950 . S
C4166 C4164 1.391 . S
C4166 C4167 1.400 . S
C4167 C4166 1.400 . S
C4167 C4168 1.398 . S
C4167 C4173 1.491 . S
C4168 H4159 0.950 . S
C4168 C4167 1.398 . S
C4168 C4169 1.391 . S
C4169 H4157 0.950 . S
C4169 C4165 1.393 . S
C4169 C4168 1.391 . S
C4170 H4160 0.950 . S
C4170 C4171 1.386 . S
C4170 C4172 1.391 . S
C4171 C4170 1.386 . S
C4171 C4175 1.393 . S
C4172 H4161 0.950 . S
C4172 C4170 1.391 . S
C4172 C4173 1.400 . S
C4173 C4167 1.491 . S
C4173 C4172 1.400 . S
C4173 C4174 1.398 . S
C4174 H4162 0.950 . S
C4174 C4173 1.398 . S
C4174 C4175 1.391 . S
C4175 H4163 0.950 . S
C4175 C4171 1.393 . S
C4175 C4174 1.391 . S
H4176 C4184 0.950 . S
H4177 C4189 0.950 . S
H4178 C4186 0.950 . S
H4179 C4188 0.950 . S
H4180 C4190 0.950 . S
H4181 C4192 0.950 . S
H4182 C4194 0.950 . S
H4183 C4195 0.950 . S
C4184 H4176 0.950 . S
C4184 C4185 1.386 . S
C4184 C4186 1.391 . S
C4185 C4184 1.386 . S
C4185 C4189 1.393 . S
C4186 H4178 0.950 . S
C4186 C4184 1.391 . S
C4186 C4187 1.400 . S
C4187 C4186 1.400 . S
C4187 C4188 1.398 . S
C4187 C4193 1.491 . S
C4188 H4179 0.950 . S
C4188 C4187 1.398 . S
C4188 C4189 1.391 . S
C4189 H4177 0.950 . S
C4189 C4185 1.393 . S
C4189 C4188 1.391 . S
C4190 H4180 0.950 . S
C4190 C4191 1.386 . S
C4190 C4192 1.391 . S
C4191 C4190 1.386 . S
C4191 C4195 1.393 . S
C4192 H4181 0.950 . S
C4192 C4190 1.391 . S
C4192 C4193 1.400 . S
C4193 C4187 1.491 . S
C4193 C4192 1.400 . S
C4193 C4194 1.398 . S
C4194 H4182 0.950 . S
C4194 C4193 1.398 . S
C4194 C4195 1.391 . S
C4195 H4183 0.950 . S
C4195 C4191 1.393 . S
C4195 C4194 1.391 . S
H4196 C4204 0.950 . S
H4197 C4209 0.950 . S
H4198 C4206 0.950 . S
H4199 C4208 0.950 . S
H4200 C4210 0.950 . S
H4201 C4212 0.950 . S
H4202 C4214 0.950 . S
H4203 C4215 0.950 . S
C4204 H4196 0.950 . S
C4204 C4205 1.386 . S
C4204 C4206 1.391 . S
C4205 C4204 1.386 . S
C4205 C4209 1.393 . S
C4206 H4198 0.950 . S
C4206 C4204 1.391 . S
C4206 C4207 1.400 . S
C4207 C4206 1.400 . S
C4207 C4208 1.398 . S
C4207 C4213 1.491 . S
C4208 H4199 0.950 . S
C4208 C4207 1.398 . S
C4208 C4209 1.391 . S
C4209 H4197 0.950 . S
C4209 C4205 1.393 . S
C4209 C4208 1.391 . S
C4210 H4200 0.950 . S
C4210 C4211 1.386 . S
C4210 C4212 1.391 . S
C4211 C4210 1.386 . S
C4211 C4215 1.393 . S
C4212 H4201 0.950 . S
C4212 C4210 1.391 . S
C4212 C4213 1.400 . S
C4213 C4207 1.491 . S
C4213 C4212 1.400 . S
C4213 C4214 1.398 . S
C4214 H4202 0.950 . S
C4214 C4213 1.398 . S
C4214 C4215 1.391 . S
C4215 H4203 0.950 . S
C4215 C4211 1.393 . S
C4215 C4214 1.391 . S
H4216 C4224 0.950 . S
H4217 C4229 0.950 . S
H4218 C4226 0.950 . S
H4219 C4228 0.950 . S
H4220 C4230 0.950 . S
H4221 C4232 0.950 . S
H4222 C4234 0.950 . S
H4223 C4235 0.950 . S
C4224 H4216 0.950 . S
C4224 C4225 1.386 . S
C4224 C4226 1.391 . S
C4225 C4224 1.386 . S
C4225 C4229 1.393 . S
C4226 H4218 0.950 . S
C4226 C4224 1.391 . S
C4226 C4227 1.400 . S
C4227 C4226 1.400 . S
C4227 C4228 1.398 . S
C4227 C4233 1.491 . S
C4228 H4219 0.950 . S
C4228 C4227 1.398 . S
C4228 C4229 1.391 . S
C4229 H4217 0.950 . S
C4229 C4225 1.393 . S
C4229 C4228 1.391 . S
C4230 H4220 0.950 . S
C4230 C4231 1.386 . S
C4230 C4232 1.391 . S
C4231 C4230 1.386 . S
C4231 C4235 1.393 . S
C4232 H4221 0.950 . S
C4232 C4230 1.391 . S
C4232 C4233 1.400 . S
C4233 C4227 1.491 . S
C4233 C4232 1.400 . S
C4233 C4234 1.398 . S
C4234 H4222 0.950 . S
C4234 C4233 1.398 . S
C4234 C4235 1.391 . S
C4235 H4223 0.950 . S
C4235 C4231 1.393 . S
C4235 C4234 1.391 . S
H4236 C4244 0.950 . S
H4237 C4249 0.950 . S
H4238 C4246 0.950 . S
H4239 C4248 0.950 . S
H4240 C4250 0.950 . S
H4241 C4252 0.950 . S
H4242 C4254 0.950 . S
H4243 C4255 0.950 . S
C4244 H4236 0.950 . S
C4244 C4245 1.386 . S
C4244 C4246 1.391 . S
C4245 C4244 1.386 . S
C4245 C4249 1.393 . S
C4246 H4238 0.950 . S
C4246 C4244 1.391 . S
C4246 C4247 1.400 . S
C4247 C4246 1.400 . S
C4247 C4248 1.398 . S
C4247 C4253 1.491 . S
C4248 H4239 0.950 . S
C4248 C4247 1.398 . S
C4248 C4249 1.391 . S
C4249 H4237 0.950 . S
C4249 C4245 1.393 . S
C4249 C4248 1.391 . S
C4250 H4240 0.950 . S
C4250 C4251 1.386 . S
C4250 C4252 1.391 . S
C4251 C4250 1.386 . S
C4251 C4255 1.393 . S
C4252 H4241 0.950 . S
C4252 C4250 1.391 . S
C4252 C4253 1.400 . S
C4253 C4247 1.491 . S
C4253 C4252 1.400 . S
C4253 C4254 1.398 . S
C4254 H4242 0.950 . S
C4254 C4253 1.398 . S
C4254 C4255 1.391 . S
C4255 H4243 0.950 . S
C4255 C4251 1.393 . S
C4255 C4254 1.391 . S
H4256 C4264 0.950 . S
H4257 C4269 0.950 . S
H4258 C4266 0.950 . S
H4259 C4268 0.950 . S
H4260 C4270 0.950 . S
H4261 C4272 0.950 . S
H4262 C4274 0.950 . S
H4263 C4275 0.950 . S
C4264 H4256 0.950 . S
C4264 C4265 1.386 . S
C4264 C4266 1.391 . S
C4265 C4264 1.386 . S
C4265 C4269 1.393 . S
C4266 H4258 0.950 . S
C4266 C4264 1.391 . S
C4266 C4267 1.400 . S
C4267 C4266 1.400 . S
C4267 C4268 1.398 . S
C4267 C4273 1.491 . S
C4268 H4259 0.950 . S
C4268 C4267 1.398 . S
C4268 C4269 1.391 . S
C4269 H4257 0.950 . S
C4269 C4265 1.393 . S
C4269 C4268 1.391 . S
C4270 H4260 0.950 . S
C4270 C4271 1.386 . S
C4270 C4272 1.391 . S
C4271 C4270 1.386 . S
C4271 C4275 1.393 . S
C4272 H4261 0.950 . S
C4272 C4270 1.391 . S
C4272 C4273 1.400 . S
C4273 C4267 1.491 . S
C4273 C4272 1.400 . S
C4273 C4274 1.398 . S
C4274 H4262 0.950 . S
C4274 C4273 1.398 . S
C4274 C4275 1.391 . S
C4275 H4263 0.950 . S
C4275 C4271 1.393 . S
C4275 C4274 1.391 . S
H4276 C4284 0.950 . S
H4277 C4289 0.950 . S
H4278 C4286 0.950 . S
H4279 C4288 0.950 . S
H4280 C4290 0.950 . S
H4281 C4292 0.950 . S
H4282 C4294 0.950 . S
H4283 C4295 0.950 . S
C4284 H4276 0.950 . S
C4284 C4285 1.386 . S
C4284 C4286 1.391 . S
C4285 C4284 1.386 . S
C4285 C4289 1.393 . S
C4286 H4278 0.950 . S
C4286 C4284 1.391 . S
C4286 C4287 1.400 . S
C4287 C4286 1.400 . S
C4287 C4288 1.398 . S
C4287 C4293 1.491 . S
C4288 H4279 0.950 . S
C4288 C4287 1.398 . S
C4288 C4289 1.391 . S
C4289 H4277 0.950 . S
C4289 C4285 1.393 . S
C4289 C4288 1.391 . S
C4290 H4280 0.950 . S
C4290 C4291 1.386 . S
C4290 C4292 1.391 . S
C4291 C4290 1.386 . S
C4291 C4295 1.393 . S
C4292 H4281 0.950 . S
C4292 C4290 1.391 . S
C4292 C4293 1.400 . S
C4293 C4287 1.491 . S
C4293 C4292 1.400 . S
C4293 C4294 1.398 . S
C4294 H4282 0.950 . S
C4294 C4293 1.398 . S
C4294 C4295 1.391 . S
C4295 H4283 0.950 . S
C4295 C4291 1.393 . S
C4295 C4294 1.391 . S
H4296 C4304 0.950 . S
H4297 C4309 0.950 . S
H4298 C4306 0.950 . S
H4299 C4308 0.950 . S
H4300 C4310 0.950 . S
H4301 C4312 0.950 . S
H4302 C4314 0.950 . S
H4303 C4315 0.950 . S
C4304 H4296 0.950 . S
C4304 C4305 1.386 . S
C4304 C4306 1.391 . S
C4305 C4304 1.386 . S
C4305 C4309 1.393 . S
C4306 H4298 0.950 . S
C4306 C4304 1.391 . S
C4306 C4307 1.400 . S
C4307 C4306 1.400 . S
C4307 C4308 1.398 . S
C4307 C4313 1.491 . S
C4308 H4299 0.950 . S
C4308 C4307 1.398 . S
C4308 C4309 1.391 . S
C4309 H4297 0.950 . S
C4309 C4305 1.393 . S
C4309 C4308 1.391 . S
C4310 H4300 0.950 . S
C4310 C4311 1.386 . S
C4310 C4312 1.391 . S
C4311 C4310 1.386 . S
C4311 C4315 1.393 . S
C4312 H4301 0.950 . S
C4312 C4310 1.391 . S
C4312 C4313 1.400 . S
C4313 C4307 1.491 . S
C4313 C4312 1.400 . S
C4313 C4314 1.398 . S
C4314 H4302 0.950 . S
C4314 C4313 1.398 . S
C4314 C4315 1.391 . S
C4315 H4303 0.950 . S
C4315 C4311 1.393 . S
C4315 C4314 1.391 . S
H4316 C4324 0.950 . S
H4317 C4329 0.950 . S
H4318 C4326 0.950 . S
H4319 C4328 0.950 . S
H4320 C4330 0.950 . S
H4321 C4332 0.950 . S
H4322 C4334 0.950 . S
H4323 C4335 0.950 . S
C4324 H4316 0.950 . S
C4324 C4325 1.386 . S
C4324 C4326 1.391 . S
C4325 C4324 1.386 . S
C4325 C4329 1.393 . S
C4326 H4318 0.950 . S
C4326 C4324 1.391 . S
C4326 C4327 1.400 . S
C4327 C4326 1.400 . S
C4327 C4328 1.398 . S
C4327 C4333 1.491 . S
C4328 H4319 0.950 . S
C4328 C4327 1.398 . S
C4328 C4329 1.391 . S
C4329 H4317 0.950 . S
C4329 C4325 1.393 . S
C4329 C4328 1.391 . S
C4330 H4320 0.950 . S
C4330 C4331 1.386 . S
C4330 C4332 1.391 . S
C4331 C4330 1.386 . S
C4331 C4335 1.393 . S
C4332 H4321 0.950 . S
C4332 C4330 1.391 . S
C4332 C4333 1.400 . S
C4333 C4327 1.491 . S
C4333 C4332 1.400 . S
C4333 C4334 1.398 . S
C4334 H4322 0.950 . S
C4334 C4333 1.398 . S
C4334 C4335 1.391 . S
C4335 H4323 0.950 . S
C4335 C4331 1.393 . S
C4335 C4334 1.391 . S
H4336 C4344 0.950 . S
H4337 C4349 0.950 . S
H4338 C4346 0.950 . S
H4339 C4348 0.950 . S
H4340 C4350 0.950 . S
H4341 C4352 0.950 . S
H4342 C4354 0.950 . S
H4343 C4355 0.950 . S
C4344 H4336 0.950 . S
C4344 C4345 1.386 . S
C4344 C4346 1.391 . S
C4345 C4344 1.386 . S
C4345 C4349 1.393 . S
C4346 H4338 0.950 . S
C4346 C4344 1.391 . S
C4346 C4347 1.400 . S
C4347 C4346 1.400 . S
C4347 C4348 1.398 . S
C4347 C4353 1.491 . S
C4348 H4339 0.950 . S
C4348 C4347 1.398 . S
C4348 C4349 1.391 . S
C4349 H4337 0.950 . S
C4349 C4345 1.393 . S
C4349 C4348 1.391 . S
C4350 H4340 0.950 . S
C4350 C4351 1.386 . S
C4350 C4352 1.391 . S
C4351 C4350 1.386 . S
C4351 C4355 1.393 . S
C4352 H4341 0.950 . S
C4352 C4350 1.391 . S
C4352 C4353 1.400 . S
C4353 C4347 1.491 . S
C4353 C4352 1.400 . S
C4353 C4354 1.398 . S
C4354 H4342 0.950 . S
C4354 C4353 1.398 . S
C4354 C4355 1.391 . S
C4355 H4343 0.950 . S
C4355 C4351 1.393 . S
C4355 C4354 1.391 . S
H4356 C4364 0.950 . S
H4357 C4369 0.950 . S
H4358 C4366 0.950 . S
H4359 C4368 0.950 . S
H4360 C4370 0.950 . S
H4361 C4372 0.950 . S
H4362 C4374 0.950 . S
H4363 C4375 0.950 . S
C4364 H4356 0.950 . S
C4364 C4365 1.386 . S
C4364 C4366 1.391 . S
C4365 C4364 1.386 . S
C4365 C4369 1.393 . S
C4366 H4358 0.950 . S
C4366 C4364 1.391 . S
C4366 C4367 1.400 . S
C4367 C4366 1.400 . S
C4367 C4368 1.398 . S
C4367 C4373 1.491 . S
C4368 H4359 0.950 . S
C4368 C4367 1.398 . S
C4368 C4369 1.391 . S
C4369 H4357 0.950 . S
C4369 C4365 1.393 . S
C4369 C4368 1.391 . S
C4370 H4360 0.950 . S
C4370 C4371 1.386 . S
C4370 C4372 1.391 . S
C4371 C4370 1.386 . S
C4371 C4375 1.393 . S
C4372 H4361 0.950 . S
C4372 C4370 1.391 . S
C4372 C4373 1.400 . S
C4373 C4367 1.491 . S
C4373 C4372 1.400 . S
C4373 C4374 1.398 . S
C4374 H4362 0.950 . S
C4374 C4373 1.398 . S
C4374 C4375 1.391 . S
C4375 H4363 0.950 . S
C4375 C4371 1.393 . S
C4375 C4374 1.391 . S
H4376 C4384 0.950 . S
H4377 C4389 0.950 . S
H4378 C4386 0.950 . S
H4379 C4388 0.950 . S
H4380 C4390 0.950 . S
H4381 C4392 0.950 . S
H4382 C4394 0.950 . S
H4383 C4395 0.950 . S
C4384 H4376 0.950 . S
C4384 C4385 1.386 . S
C4384 C4386 1.391 . S
C4385 C4384 1.386 . S
C4385 C4389 1.393 . S
C4386 H4378 0.950 . S
C4386 C4384 1.391 . S
C4386 C4387 1.400 . S
C4387 C4386 1.400 . S
C4387 C4388 1.398 . S
C4387 C4393 1.491 . S
C4388 H4379 0.950 . S
C4388 C4387 1.398 . S
C4388 C4389 1.391 . S
C4389 H4377 0.950 . S
C4389 C4385 1.393 . S
C4389 C4388 1.391 . S
C4390 H4380 0.950 . S
C4390 C4391 1.386 . S
C4390 C4392 1.391 . S
C4391 C4390 1.386 . S
C4391 C4395 1.393 . S
C4392 H4381 0.950 . S
C4392 C4390 1.391 . S
C4392 C4393 1.400 . S
C4393 C4387 1.491 . S
C4393 C4392 1.400 . S
C4393 C4394 1.398 . S
C4394 H4382 0.950 . S
C4394 C4393 1.398 . S
C4394 C4395 1.391 . S
C4395 H4383 0.950 . S
C4395 C4391 1.393 . S
C4395 C4394 1.391 . S
H4396 C4404 0.950 . S
H4397 C4409 0.950 . S
H4398 C4406 0.950 . S
H4399 C4408 0.950 . S
H4400 C4410 0.950 . S
H4401 C4412 0.950 . S
H4402 C4414 0.950 . S
H4403 C4415 0.950 . S
C4404 H4396 0.950 . S
C4404 C4405 1.386 . S
C4404 C4406 1.391 . S
C4405 C4404 1.386 . S
C4405 C4409 1.393 . S
C4406 H4398 0.950 . S
C4406 C4404 1.391 . S
C4406 C4407 1.400 . S
C4407 C4406 1.400 . S
C4407 C4408 1.398 . S
C4407 C4413 1.491 . S
C4408 H4399 0.950 . S
C4408 C4407 1.398 . S
C4408 C4409 1.391 . S
C4409 H4397 0.950 . S
C4409 C4405 1.393 . S
C4409 C4408 1.391 . S
C4410 H4400 0.950 . S
C4410 C4411 1.386 . S
C4410 C4412 1.391 . S
C4411 C4410 1.386 . S
C4411 C4415 1.393 . S
C4412 H4401 0.950 . S
C4412 C4410 1.391 . S
C4412 C4413 1.400 . S
C4413 C4407 1.491 . S
C4413 C4412 1.400 . S
C4413 C4414 1.398 . S
C4414 H4402 0.950 . S
C4414 C4413 1.398 . S
C4414 C4415 1.391 . S
C4415 H4403 0.950 . S
C4415 C4411 1.393 . S
C4415 C4414 1.391 . S
H4416 C4424 0.950 . S
H4417 C4429 0.950 . S
H4418 C4426 0.950 . S
H4419 C4428 0.950 . S
H4420 C4430 0.950 . S
H4421 C4432 0.950 . S
H4422 C4434 0.950 . S
H4423 C4435 0.950 . S
C4424 H4416 0.950 . S
C4424 C4425 1.386 . S
C4424 C4426 1.391 . S
C4425 C4424 1.386 . S
C4425 C4429 1.393 . S
C4426 H4418 0.950 . S
C4426 C4424 1.391 . S
C4426 C4427 1.400 . S
C4427 C4426 1.400 . S
C4427 C4428 1.398 . S
C4427 C4433 1.491 . S
C4428 H4419 0.950 . S
C4428 C4427 1.398 . S
C4428 C4429 1.391 . S
C4429 H4417 0.950 . S
C4429 C4425 1.393 . S
C4429 C4428 1.391 . S
C4430 H4420 0.950 . S
C4430 C4431 1.386 . S
C4430 C4432 1.391 . S
C4431 C4430 1.386 . S
C4431 C4435 1.393 . S
C4432 H4421 0.950 . S
C4432 C4430 1.391 . S
C4432 C4433 1.400 . S
C4433 C4427 1.491 . S
C4433 C4432 1.400 . S
C4433 C4434 1.398 . S
C4434 H4422 0.950 . S
C4434 C4433 1.398 . S
C4434 C4435 1.391 . S
C4435 H4423 0.950 . S
C4435 C4431 1.393 . S
C4435 C4434 1.391 . S
H4436 C4444 0.950 . S
H4437 C4449 0.950 . S
H4438 C4446 0.950 . S
H4439 C4448 0.950 . S
H4440 C4450 0.950 . S
H4441 C4452 0.950 . S
H4442 C4454 0.950 . S
H4443 C4455 0.950 . S
C4444 H4436 0.950 . S
C4444 C4445 1.386 . S
C4444 C4446 1.391 . S
C4445 C4444 1.386 . S
C4445 C4449 1.393 . S
C4446 H4438 0.950 . S
C4446 C4444 1.391 . S
C4446 C4447 1.400 . S
C4447 C4446 1.400 . S
C4447 C4448 1.398 . S
C4447 C4453 1.491 . S
C4448 H4439 0.950 . S
C4448 C4447 1.398 . S
C4448 C4449 1.391 . S
C4449 H4437 0.950 . S
C4449 C4445 1.393 . S
C4449 C4448 1.391 . S
C4450 H4440 0.950 . S
C4450 C4451 1.386 . S
C4450 C4452 1.391 . S
C4451 C4450 1.386 . S
C4451 C4455 1.393 . S
C4452 H4441 0.950 . S
C4452 C4450 1.391 . S
C4452 C4453 1.400 . S
C4453 C4447 1.491 . S
C4453 C4452 1.400 . S
C4453 C4454 1.398 . S
C4454 H4442 0.950 . S
C4454 C4453 1.398 . S
C4454 C4455 1.391 . S
C4455 H4443 0.950 . S
C4455 C4451 1.393 . S
C4455 C4454 1.391 . S
H4456 C4464 0.950 . S
H4457 C4469 0.950 . S
H4458 C4466 0.950 . S
H4459 C4468 0.950 . S
H4460 C4470 0.950 . S
H4461 C4472 0.950 . S
H4462 C4474 0.950 . S
H4463 C4475 0.950 . S
C4464 H4456 0.950 . S
C4464 C4465 1.386 . S
C4464 C4466 1.391 . S
C4465 C4464 1.386 . S
C4465 C4469 1.393 . S
C4466 H4458 0.950 . S
C4466 C4464 1.391 . S
C4466 C4467 1.400 . S
C4467 C4466 1.400 . S
C4467 C4468 1.398 . S
C4467 C4473 1.491 . S
C4468 H4459 0.950 . S
C4468 C4467 1.398 . S
C4468 C4469 1.391 . S
C4469 H4457 0.950 . S
C4469 C4465 1.393 . S
C4469 C4468 1.391 . S
C4470 H4460 0.950 . S
C4470 C4471 1.386 . S
C4470 C4472 1.391 . S
C4471 C4470 1.386 . S
C4471 C4475 1.393 . S
C4472 H4461 0.950 . S
C4472 C4470 1.391 . S
C4472 C4473 1.400 . S
C4473 C4467 1.491 . S
C4473 C4472 1.400 . S
C4473 C4474 1.398 . S
C4474 H4462 0.950 . S
C4474 C4473 1.398 . S
C4474 C4475 1.391 . S
C4475 H4463 0.950 . S
C4475 C4471 1.393 . S
C4475 C4474 1.391 . S
H4476 C4484 0.950 . S
H4477 C4489 0.950 . S
H4478 C4486 0.950 . S
H4479 C4488 0.950 . S
H4480 C4490 0.950 . S
H4481 C4492 0.950 . S
H4482 C4494 0.950 . S
H4483 C4495 0.950 . S
C4484 H4476 0.950 . S
C4484 C4485 1.386 . S
C4484 C4486 1.391 . S
C4485 C4484 1.386 . S
C4485 C4489 1.393 . S
C4486 H4478 0.950 . S
C4486 C4484 1.391 . S
C4486 C4487 1.400 . S
C4487 C4486 1.400 . S
C4487 C4488 1.398 . S
C4487 C4493 1.491 . S
C4488 H4479 0.950 . S
C4488 C4487 1.398 . S
C4488 C4489 1.391 . S
C4489 H4477 0.950 . S
C4489 C4485 1.393 . S
C4489 C4488 1.391 . S
C4490 H4480 0.950 . S
C4490 C4491 1.386 . S
C4490 C4492 1.391 . S
C4491 C4490 1.386 . S
C4491 C4495 1.393 . S
C4492 H4481 0.950 . S
C4492 C4490 1.391 . S
C4492 C4493 1.400 . S
C4493 C4487 1.491 . S
C4493 C4492 1.400 . S
C4493 C4494 1.398 . S
C4494 H4482 0.950 . S
C4494 C4493 1.398 . S
C4494 C4495 1.391 . S
C4495 H4483 0.950 . S
C4495 C4491 1.393 . S
C4495 C4494 1.391 . S
H4496 C4504 0.950 . S
H4497 C4509 0.950 . S
H4498 C4506 0.950 . S
H4499 C4508 0.950 . S
H4500 C4510 0.950 . S
H4501 C4512 0.950 . S
H4502 C4514 0.950 . S
H4503 C4515 0.950 . S
C4504 H4496 0.950 . S
C4504 C4505 1.386 . S
C4504 C4506 1.391 . S
C4505 C4504 1.386 . S
C4505 C4509 1.393 . S
C4506 H4498 0.950 . S
C4506 C4504 1.391 . S
C4506 C4507 1.400 . S
C4507 C4506 1.400 . S
C4507 C4508 1.398 . S
C4507 C4513 1.491 . S
C4508 H4499 0.950 . S
C4508 C4507 1.398 . S
C4508 C4509 1.391 . S
C4509 H4497 0.950 . S
C4509 C4505 1.393 . S
C4509 C4508 1.391 . S
C4510 H4500 0.950 . S
C4510 C4511 1.386 . S
C4510 C4512 1.391 . S
C4511 C4510 1.386 . S
C4511 C4515 1.393 . S
C4512 H4501 0.950 . S
C4512 C4510 1.391 . S
C4512 C4513 1.400 . S
C4513 C4507 1.491 . S
C4513 C4512 1.400 . S
C4513 C4514 1.398 . S
C4514 H4502 0.950 . S
C4514 C4513 1.398 . S
C4514 C4515 1.391 . S
C4515 H4503 0.950 . S
C4515 C4511 1.393 . S
C4515 C4514 1.391 . S
H4516 C4524 0.950 . S
H4517 C4529 0.950 . S
H4518 C4526 0.950 . S
H4519 C4528 0.950 . S
H4520 C4530 0.950 . S
H4521 C4532 0.950 . S
H4522 C4534 0.950 . S
H4523 C4535 0.950 . S
C4524 H4516 0.950 . S
C4524 C4525 1.386 . S
C4524 C4526 1.391 . S
C4525 C4524 1.386 . S
C4525 C4529 1.393 . S
C4526 H4518 0.950 . S
C4526 C4524 1.391 . S
C4526 C4527 1.400 . S
C4527 C4526 1.400 . S
C4527 C4528 1.398 . S
C4527 C4533 1.491 . S
C4528 H4519 0.950 . S
C4528 C4527 1.398 . S
C4528 C4529 1.391 . S
C4529 H4517 0.950 . S
C4529 C4525 1.393 . S
C4529 C4528 1.391 . S
C4530 H4520 0.950 . S
C4530 C4531 1.386 . S
C4530 C4532 1.391 . S
C4531 C4530 1.386 . S
C4531 C4535 1.393 . S
C4532 H4521 0.950 . S
C4532 C4530 1.391 . S
C4532 C4533 1.400 . S
C4533 C4527 1.491 . S
C4533 C4532 1.400 . S
C4533 C4534 1.398 . S
C4534 H4522 0.950 . S
C4534 C4533 1.398 . S
C4534 C4535 1.391 . S
C4535 H4523 0.950 . S
C4535 C4531 1.393 . S
C4535 C4534 1.391 . S
H4536 C4544 0.950 . S
H4537 C4549 0.950 . S
H4538 C4546 0.950 . S
H4539 C4548 0.950 . S
H4540 C4550 0.950 . S
H4541 C4552 0.950 . S
H4542 C4554 0.950 . S
H4543 C4555 0.950 . S
C4544 H4536 0.950 . S
C4544 C4545 1.386 . S
C4544 C4546 1.391 . S
C4545 C4544 1.386 . S
C4545 C4549 1.393 . S
C4546 H4538 0.950 . S
C4546 C4544 1.391 . S
C4546 C4547 1.400 . S
C4547 C4546 1.400 . S
C4547 C4548 1.398 . S
C4547 C4553 1.491 . S
C4548 H4539 0.950 . S
C4548 C4547 1.398 . S
C4548 C4549 1.391 . S
C4549 H4537 0.950 . S
C4549 C4545 1.393 . S
C4549 C4548 1.391 . S
C4550 H4540 0.950 . S
C4550 C4551 1.386 . S
C4550 C4552 1.391 . S
C4551 C4550 1.386 . S
C4551 C4555 1.393 . S
C4552 H4541 0.950 . S
C4552 C4550 1.391 . S
C4552 C4553 1.400 . S
C4553 C4547 1.491 . S
C4553 C4552 1.400 . S
C4553 C4554 1.398 . S
C4554 H4542 0.950 . S
C4554 C4553 1.398 . S
C4554 C4555 1.391 . S
C4555 H4543 0.950 . S
C4555 C4551 1.393 . S
C4555 C4554 1.391 . S
H4556 C4564 0.950 . S
H4557 C4569 0.950 . S
H4558 C4566 0.950 . S
H4559 C4568 0.950 . S
H4560 C4570 0.950 . S
H4561 C4572 0.950 . S
H4562 C4574 0.950 . S
H4563 C4575 0.950 . S
C4564 H4556 0.950 . S
C4564 C4565 1.386 . S
C4564 C4566 1.391 . S
C4565 C4564 1.386 . S
C4565 C4569 1.393 . S
C4566 H4558 0.950 . S
C4566 C4564 1.391 . S
C4566 C4567 1.400 . S
C4567 C4566 1.400 . S
C4567 C4568 1.398 . S
C4567 C4573 1.491 . S
C4568 H4559 0.950 . S
C4568 C4567 1.398 . S
C4568 C4569 1.391 . S
C4569 H4557 0.950 . S
C4569 C4565 1.393 . S
C4569 C4568 1.391 . S
C4570 H4560 0.950 . S
C4570 C4571 1.386 . S
C4570 C4572 1.391 . S
C4571 C4570 1.386 . S
C4571 C4575 1.393 . S
C4572 H4561 0.950 . S
C4572 C4570 1.391 . S
C4572 C4573 1.400 . S
C4573 C4567 1.491 . S
C4573 C4572 1.400 . S
C4573 C4574 1.398 . S
C4574 H4562 0.950 . S
C4574 C4573 1.398 . S
C4574 C4575 1.391 . S
C4575 H4563 0.950 . S
C4575 C4571 1.393 . S
C4575 C4574 1.391 . S
H4576 C4584 0.950 . S
H4577 C4589 0.950 . S
H4578 C4586 0.950 . S
H4579 C4588 0.950 . S
H4580 C4590 0.950 . S
H4581 C4592 0.950 . S
H4582 C4594 0.950 . S
H4583 C4595 0.950 . S
C4584 H4576 0.950 . S
C4584 C4585 1.386 . S
C4584 C4586 1.391 . S
C4585 C4584 1.386 . S
C4585 C4589 1.393 . S
C4586 H4578 0.950 . S
C4586 C4584 1.391 . S
C4586 C4587 1.400 . S
C4587 C4586 1.400 . S
C4587 C4588 1.398 . S
C4587 C4593 1.491 . S
C4588 H4579 0.950 . S
C4588 C4587 1.398 . S
C4588 C4589 1.391 . S
C4589 H4577 0.950 . S
C4589 C4585 1.393 . S
C4589 C4588 1.391 . S
C4590 H4580 0.950 . S
C4590 C4591 1.386 . S
C4590 C4592 1.391 . S
C4591 C4590 1.386 . S
C4591 C4595 1.393 . S
C4592 H4581 0.950 . S
C4592 C4590 1.391 . S
C4592 C4593 1.400 . S
C4593 C4587 1.491 . S
C4593 C4592 1.400 . S
C4593 C4594 1.398 . S
C4594 H4582 0.950 . S
C4594 C4593 1.398 . S
C4594 C4595 1.391 . S
C4595 H4583 0.950 . S
C4595 C4591 1.393 . S
C4595 C4594 1.391 . S
H4596 C4604 0.950 . S
H4597 C4609 0.950 . S
H4598 C4606 0.950 . S
H4599 C4608 0.950 . S
H4600 C4610 0.950 . S
H4601 C4612 0.950 . S
H4602 C4614 0.950 . S
H4603 C4615 0.950 . S
C4604 H4596 0.950 . S
C4604 C4605 1.386 . S
C4604 C4606 1.391 . S
C4605 C4604 1.386 . S
C4605 C4609 1.393 . S
C4606 H4598 0.950 . S
C4606 C4604 1.391 . S
C4606 C4607 1.400 . S
C4607 C4606 1.400 . S
C4607 C4608 1.398 . S
C4607 C4613 1.491 . S
C4608 H4599 0.950 . S
C4608 C4607 1.398 . S
C4608 C4609 1.391 . S
C4609 H4597 0.950 . S
C4609 C4605 1.393 . S
C4609 C4608 1.391 . S
C4610 H4600 0.950 . S
C4610 C4611 1.386 . S
C4610 C4612 1.391 . S
C4611 C4610 1.386 . S
C4611 C4615 1.393 . S
C4612 H4601 0.950 . S
C4612 C4610 1.391 . S
C4612 C4613 1.400 . S
C4613 C4607 1.491 . S
C4613 C4612 1.400 . S
C4613 C4614 1.398 . S
C4614 H4602 0.950 . S
C4614 C4613 1.398 . S
C4614 C4615 1.391 . S
C4615 H4603 0.950 . S
C4615 C4611 1.393 . S
C4615 C4614 1.391 . S
H4616 C4624 0.950 . S
H4617 C4629 0.950 . S
H4618 C4626 0.950 . S
H4619 C4628 0.950 . S
H4620 C4630 0.950 . S
H4621 C4632 0.950 . S
H4622 C4634 0.950 . S
H4623 C4635 0.950 . S
C4624 H4616 0.950 . S
C4624 C4625 1.386 . S
C4624 C4626 1.391 . S
C4625 C4624 1.386 . S
C4625 C4629 1.393 . S
C4626 H4618 0.950 . S
C4626 C4624 1.391 . S
C4626 C4627 1.400 . S
C4627 C4626 1.400 . S
C4627 C4628 1.398 . S
C4627 C4633 1.491 . S
C4628 H4619 0.950 . S
C4628 C4627 1.398 . S
C4628 C4629 1.391 . S
C4629 H4617 0.950 . S
C4629 C4625 1.393 . S
C4629 C4628 1.391 . S
C4630 H4620 0.950 . S
C4630 C4631 1.386 . S
C4630 C4632 1.391 . S
C4631 C4630 1.386 . S
C4631 C4635 1.393 . S
C4632 H4621 0.950 . S
C4632 C4630 1.391 . S
C4632 C4633 1.400 . S
C4633 C4627 1.491 . S
C4633 C4632 1.400 . S
C4633 C4634 1.398 . S
C4634 H4622 0.950 . S
C4634 C4633 1.398 . S
C4634 C4635 1.391 . S
C4635 H4623 0.950 . S
C4635 C4631 1.393 . S
C4635 C4634 1.391 . S
H4636 C4644 0.950 . S
H4637 C4649 0.950 . S
H4638 C4646 0.950 . S
H4639 C4648 0.950 . S
H4640 C4650 0.950 . S
H4641 C4652 0.950 . S
H4642 C4654 0.950 . S
H4643 C4655 0.950 . S
C4644 H4636 0.950 . S
C4644 C4645 1.386 . S
C4644 C4646 1.391 . S
C4645 C4644 1.386 . S
C4645 C4649 1.393 . S
C4646 H4638 0.950 . S
C4646 C4644 1.391 . S
C4646 C4647 1.400 . S
C4647 C4646 1.400 . S
C4647 C4648 1.398 . S
C4647 C4653 1.491 . S
C4648 H4639 0.950 . S
C4648 C4647 1.398 . S
C4648 C4649 1.391 . S
C4649 H4637 0.950 . S
C4649 C4645 1.393 . S
C4649 C4648 1.391 . S
C4650 H4640 0.950 . S
C4650 C4651 1.386 . S
C4650 C4652 1.391 . S
C4651 C4650 1.386 . S
C4651 C4655 1.393 . S
C4652 H4641 0.950 . S
C4652 C4650 1.391 . S
C4652 C4653 1.400 . S
C4653 C4647 1.491 . S
C4653 C4652 1.400 . S
C4653 C4654 1.398 . S
C4654 H4642 0.950 . S
C4654 C4653 1.398 . S
C4654 C4655 1.391 . S
C4655 H4643 0.950 . S
C4655 C4651 1.393 . S
C4655 C4654 1.391 . S
H4656 C4664 0.950 . S
H4657 C4669 0.950 . S
H4658 C4666 0.950 . S
H4659 C4668 0.950 . S
H4660 C4670 0.950 . S
H4661 C4672 0.950 . S
H4662 C4674 0.950 . S
H4663 C4675 0.950 . S
C4664 H4656 0.950 . S
C4664 C4665 1.386 . S
C4664 C4666 1.391 . S
C4665 C4664 1.386 . S
C4665 C4669 1.393 . S
C4666 H4658 0.950 . S
C4666 C4664 1.391 . S
C4666 C4667 1.400 . S
C4667 C4666 1.400 . S
C4667 C4668 1.398 . S
C4667 C4673 1.491 . S
C4668 H4659 0.950 . S
C4668 C4667 1.398 . S
C4668 C4669 1.391 . S
C4669 H4657 0.950 . S
C4669 C4665 1.393 . S
C4669 C4668 1.391 . S
C4670 H4660 0.950 . S
C4670 C4671 1.386 . S
C4670 C4672 1.391 . S
C4671 C4670 1.386 . S
C4671 C4675 1.393 . S
C4672 H4661 0.950 . S
C4672 C4670 1.391 . S
C4672 C4673 1.400 . S
C4673 C4667 1.491 . S
C4673 C4672 1.400 . S
C4673 C4674 1.398 . S
C4674 H4662 0.950 . S
C4674 C4673 1.398 . S
C4674 C4675 1.391 . S
C4675 H4663 0.950 . S
C4675 C4671 1.393 . S
C4675 C4674 1.391 . S
H4676 C4684 0.950 . S
H4677 C4689 0.950 . S
H4678 C4686 0.950 . S
H4679 C4688 0.950 . S
H4680 C4690 0.950 . S
H4681 C4692 0.950 . S
H4682 C4694 0.950 . S
H4683 C4695 0.950 . S
C4684 H4676 0.950 . S
C4684 C4685 1.386 . S
C4684 C4686 1.391 . S
C4685 C4684 1.386 . S
C4685 C4689 1.393 . S
C4686 H4678 0.950 . S
C4686 C4684 1.391 . S
C4686 C4687 1.400 . S
C4687 C4686 1.400 . S
C4687 C4688 1.398 . S
C4687 C4693 1.491 . S
C4688 H4679 0.950 . S
C4688 C4687 1.398 . S
C4688 C4689 1.391 . S
C4689 H4677 0.950 . S
C4689 C4685 1.393 . S
C4689 C4688 1.391 . S
C4690 H4680 0.950 . S
C4690 C4691 1.386 . S
C4690 C4692 1.391 . S
C4691 C4690 1.386 . S
C4691 C4695 1.393 . S
C4692 H4681 0.950 . S
C4692 C4690 1.391 . S
C4692 C4693 1.400 . S
C4693 C4687 1.491 . S
C4693 C4692 1.400 . S
C4693 C4694 1.398 . S
C4694 H4682 0.950 . S
C4694 C4693 1.398 . S
C4694 C4695 1.391 . S
C4695 H4683 0.950 . S
C4695 C4691 1.393 . S
C4695 C4694 1.391 . S
H4696 C4704 0.950 . S
H4697 C4709 0.950 . S
H4698 C4706 0.950 . S
H4699 C4708 0.950 . S
H4700 C4710 0.950 . S
H4701 C4712 0.950 . S
H4702 C4714 0.950 . S
H4703 C4715 0.950 . S
C4704 H4696 0.950 . S
C4704 C4705 1.386 . S
C4704 C4706 1.391 . S
C4705 C4704 1.386 . S
C4705 C4709 1.393 . S
C4706 H4698 0.950 . S
C4706 C4704 1.391 . S
C4706 C4707 1.400 . S
C4707 C4706 1.400 . S
C4707 C4708 1.398 . S
C4707 C4713 1.491 . S
C4708 H4699 0.950 . S
C4708 C4707 1.398 . S
C4708 C4709 1.391 . S
C4709 H4697 0.950 . S
C4709 C4705 1.393 . S
C4709 C4708 1.391 . S
C4710 H4700 0.950 . S
C4710 C4711 1.386 . S
C4710 C4712 1.391 . S
C4711 C4710 1.386 . S
C4711 C4715 1.393 . S
C4712 H4701 0.950 . S
C4712 C4710 1.391 . S
C4712 C4713 1.400 . S
C4713 C4707 1.491 . S
C4713 C4712 1.400 . S
C4713 C4714 1.398 . S
C4714 H4702 0.950 . S
C4714 C4713 1.398 . S
C4714 C4715 1.391 . S
C4715 H4703 0.950 . S
C4715 C4711 1.393 . S
C4715 C4714 1.391 . S
H4716 C4724 0.950 . S
H4717 C4729 0.950 . S
H4718 C4726 0.950 . S
H4719 C4728 0.950 . S
H4720 C4730 0.950 . S
H4721 C4732 0.950 . S
H4722 C4734 0.950 . S
H4723 C4735 0.950 . S
C4724 H4716 0.950 . S
C4724 C4725 1.386 . S
C4724 C4726 1.391 . S
C4725 C4724 1.386 . S
C4725 C4729 1.393 . S
C4726 H4718 0.950 . S
C4726 C4724 1.391 . S
C4726 C4727 1.400 . S
C4727 C4726 1.400 . S
C4727 C4728 1.398 . S
C4727 C4733 1.491 . S
C4728 H4719 0.950 . S
C4728 C4727 1.398 . S
C4728 C4729 1.391 . S
C4729 H4717 0.950 . S
C4729 C4725 1.393 . S
C4729 C4728 1.391 . S
C4730 H4720 0.950 . S
C4730 C4731 1.386 . S
C4730 C4732 1.391 . S
C4731 C4730 1.386 . S
C4731 C4735 1.393 . S
C4732 H4721 0.950 . S
C4732 C4730 1.391 . S
C4732 C4733 1.400 . S
C4733 C4727 1.491 . S
C4733 C4732 1.400 . S
C4733 C4734 1.398 . S
C4734 H4722 0.950 . S
C4734 C4733 1.398 . S
C4734 C4735 1.391 . S
C4735 H4723 0.950 . S
C4735 C4731 1.393 . S
C4735 C4734 1.391 . S
H4736 C4744 0.950 . S
H4737 C4749 0.950 . S
H4738 C4746 0.950 . S
H4739 C4748 0.950 . S
H4740 C4750 0.950 . S
H4741 C4752 0.950 . S
H4742 C4754 0.950 . S
H4743 C4755 0.950 . S
C4744 H4736 0.950 . S
C4744 C4745 1.386 . S
C4744 C4746 1.391 . S
C4745 C4744 1.386 . S
C4745 C4749 1.393 . S
C4746 H4738 0.950 . S
C4746 C4744 1.391 . S
C4746 C4747 1.400 . S
C4747 C4746 1.400 . S
C4747 C4748 1.398 . S
C4747 C4753 1.491 . S
C4748 H4739 0.950 . S
C4748 C4747 1.398 . S
C4748 C4749 1.391 . S
C4749 H4737 0.950 . S
C4749 C4745 1.393 . S
C4749 C4748 1.391 . S
C4750 H4740 0.950 . S
C4750 C4751 1.386 . S
C4750 C4752 1.391 . S
C4751 C4750 1.386 . S
C4751 C4755 1.393 . S
C4752 H4741 0.950 . S
C4752 C4750 1.391 . S
C4752 C4753 1.400 . S
C4753 C4747 1.491 . S
C4753 C4752 1.400 . S
C4753 C4754 1.398 . S
C4754 H4742 0.950 . S
C4754 C4753 1.398 . S
C4754 C4755 1.391 . S
C4755 H4743 0.950 . S
C4755 C4751 1.393 . S
C4755 C4754 1.391 . S
H4756 C4764 0.950 . S
H4757 C4769 0.950 . S
H4758 C4766 0.950 . S
H4759 C4768 0.950 . S
H4760 C4770 0.950 . S
H4761 C4772 0.950 . S
H4762 C4774 0.950 . S
H4763 C4775 0.950 . S
C4764 H4756 0.950 . S
C4764 C4765 1.386 . S
C4764 C4766 1.391 . S
C4765 C4764 1.386 . S
C4765 C4769 1.393 . S
C4766 H4758 0.950 . S
C4766 C4764 1.391 . S
C4766 C4767 1.400 . S
C4767 C4766 1.400 . S
C4767 C4768 1.398 . S
C4767 C4773 1.491 . S
C4768 H4759 0.950 . S
C4768 C4767 1.398 . S
C4768 C4769 1.391 . S
C4769 H4757 0.950 . S
C4769 C4765 1.393 . S
C4769 C4768 1.391 . S
C4770 H4760 0.950 . S
C4770 C4771 1.386 . S
C4770 C4772 1.391 . S
C4771 C4770 1.386 . S
C4771 C4775 1.393 . S
C4772 H4761 0.950 . S
C4772 C4770 1.391 . S
C4772 C4773 1.400 . S
C4773 C4767 1.491 . S
C4773 C4772 1.400 . S
C4773 C4774 1.398 . S
C4774 H4762 0.950 . S
C4774 C4773 1.398 . S
C4774 C4775 1.391 . S
C4775 H4763 0.950 . S
C4775 C4771 1.393 . S
C4775 C4774 1.391 . S
H4776 C4784 0.950 . S
H4777 C4789 0.950 . S
H4778 C4786 0.950 . S
H4779 C4788 0.950 . S
H4780 C4790 0.950 . S
H4781 C4792 0.950 . S
H4782 C4794 0.950 . S
H4783 C4795 0.950 . S
C4784 H4776 0.950 . S
C4784 C4785 1.386 . S
C4784 C4786 1.391 . S
C4785 C4784 1.386 . S
C4785 C4789 1.393 . S
C4786 H4778 0.950 . S
C4786 C4784 1.391 . S
C4786 C4787 1.400 . S
C4787 C4786 1.400 . S
C4787 C4788 1.398 . S
C4787 C4793 1.491 . S
C4788 H4779 0.950 . S
C4788 C4787 1.398 . S
C4788 C4789 1.391 . S
C4789 H4777 0.950 . S
C4789 C4785 1.393 . S
C4789 C4788 1.391 . S
C4790 H4780 0.950 . S
C4790 C4791 1.386 . S
C4790 C4792 1.391 . S
C4791 C4790 1.386 . S
C4791 C4795 1.393 . S
C4792 H4781 0.950 . S
C4792 C4790 1.391 . S
C4792 C4793 1.400 . S
C4793 C4787 1.491 . S
C4793 C4792 1.400 . S
C4793 C4794 1.398 . S
C4794 H4782 0.950 . S
C4794 C4793 1.398 . S
C4794 C4795 1.391 . S
C4795 H4783 0.950 . S
C4795 C4791 1.393 . S
C4795 C4794 1.391 . S
H4796 C4804 0.950 . S
H4797 C4809 0.950 . S
H4798 C4806 0.950 . S
H4799 C4808 0.950 . S
H4800 C4810 0.950 . S
H4801 C4812 0.950 . S
H4802 C4814 0.950 . S
H4803 C4815 0.950 . S
C4804 H4796 0.950 . S
C4804 C4805 1.386 . S
C4804 C4806 1.391 . S
C4805 C4804 1.386 . S
C4805 C4809 1.393 . S
C4806 H4798 0.950 . S
C4806 C4804 1.391 . S
C4806 C4807 1.400 . S
C4807 C4806 1.400 . S
C4807 C4808 1.398 . S
C4807 C4813 1.491 . S
C4808 H4799 0.950 . S
C4808 C4807 1.398 . S
C4808 C4809 1.391 . S
C4809 H4797 0.950 . S
C4809 C4805 1.393 . S
C4809 C4808 1.391 . S
C4810 H4800 0.950 . S
C4810 C4811 1.386 . S
C4810 C4812 1.391 . S
C4811 C4810 1.386 . S
C4811 C4815 1.393 . S
C4812 H4801 0.950 . S
C4812 C4810 1.391 . S
C4812 C4813 1.400 . S
C4813 C4807 1.491 . S
C4813 C4812 1.400 . S
C4813 C4814 1.398 . S
C4814 H4802 0.950 . S
C4814 C4813 1.398 . S
C4814 C4815 1.391 . S
C4815 H4803 0.950 . S
C4815 C4811 1.393 . S
C4815 C4814 1.391 . S
H4816 C4824 0.950 . S
H4817 C4829 0.950 . S
H4818 C4826 0.950 . S
H4819 C4828 0.950 . S
H4820 C4830 0.950 . S
H4821 C4832 0.950 . S
H4822 C4834 0.950 . S
H4823 C4835 0.950 . S
C4824 H4816 0.950 . S
C4824 C4825 1.386 . S
C4824 C4826 1.391 . S
C4825 C4824 1.386 . S
C4825 C4829 1.393 . S
C4826 H4818 0.950 . S
C4826 C4824 1.391 . S
C4826 C4827 1.400 . S
C4827 C4826 1.400 . S
C4827 C4828 1.398 . S
C4827 C4833 1.491 . S
C4828 H4819 0.950 . S
C4828 C4827 1.398 . S
C4828 C4829 1.391 . S
C4829 H4817 0.950 . S
C4829 C4825 1.393 . S
C4829 C4828 1.391 . S
C4830 H4820 0.950 . S
C4830 C4831 1.386 . S
C4830 C4832 1.391 . S
C4831 C4830 1.386 . S
C4831 C4835 1.393 . S
C4832 H4821 0.950 . S
C4832 C4830 1.391 . S
C4832 C4833 1.400 . S
C4833 C4827 1.491 . S
C4833 C4832 1.400 . S
C4833 C4834 1.398 . S
C4834 H4822 0.950 . S
C4834 C4833 1.398 . S
C4834 C4835 1.391 . S
C4835 H4823 0.950 . S
C4835 C4831 1.393 . S
C4835 C4834 1.391 . S
H4836 C4844 0.950 . S
H4837 C4849 0.950 . S
H4838 C4846 0.950 . S
H4839 C4848 0.950 . S
H4840 C4850 0.950 . S
H4841 C4852 0.950 . S
H4842 C4854 0.950 . S
H4843 C4855 0.950 . S
C4844 H4836 0.950 . S
C4844 C4845 1.386 . S
C4844 C4846 1.391 . S
C4845 C4844 1.386 . S
C4845 C4849 1.393 . S
C4846 H4838 0.950 . S
C4846 C4844 1.391 . S
C4846 C4847 1.400 . S
C4847 C4846 1.400 . S
C4847 C4848 1.398 . S
C4847 C4853 1.491 . S
C4848 H4839 0.950 . S
C4848 C4847 1.398 . S
C4848 C4849 1.391 . S
C4849 H4837 0.950 . S
C4849 C4845 1.393 . S
C4849 C4848 1.391 . S
C4850 H4840 0.950 . S
C4850 C4851 1.386 . S
C4850 C4852 1.391 . S
C4851 C4850 1.386 . S
C4851 C4855 1.393 . S
C4852 H4841 0.950 . S
C4852 C4850 1.391 . S
C4852 C4853 1.400 . S
C4853 C4847 1.491 . S
C4853 C4852 1.400 . S
C4853 C4854 1.398 . S
C4854 H4842 0.950 . S
C4854 C4853 1.398 . S
C4854 C4855 1.391 . S
C4855 H4843 0.950 . S
C4855 C4851 1.393 . S
C4855 C4854 1.391 . S
H4856 C4864 0.950 . S
H4857 C4869 0.950 . S
H4858 C4866 0.950 . S
H4859 C4868 0.950 . S
H4860 C4870 0.950 . S
H4861 C4872 0.950 . S
H4862 C4874 0.950 . S
H4863 C4875 0.950 . S
C4864 H4856 0.950 . S
C4864 C4865 1.386 . S
C4864 C4866 1.391 . S
C4865 C4864 1.386 . S
C4865 C4869 1.393 . S
C4866 H4858 0.950 . S
C4866 C4864 1.391 . S
C4866 C4867 1.400 . S
C4867 C4866 1.400 . S
C4867 C4868 1.398 . S
C4867 C4873 1.491 . S
C4868 H4859 0.950 . S
C4868 C4867 1.398 . S
C4868 C4869 1.391 . S
C4869 H4857 0.950 . S
C4869 C4865 1.393 . S
C4869 C4868 1.391 . S
C4870 H4860 0.950 . S
C4870 C4871 1.386 . S
C4870 C4872 1.391 . S
C4871 C4870 1.386 . S
C4871 C4875 1.393 . S
C4872 H4861 0.950 . S
C4872 C4870 1.391 . S
C4872 C4873 1.400 . S
C4873 C4867 1.491 . S
C4873 C4872 1.400 . S
C4873 C4874 1.398 . S
C4874 H4862 0.950 . S
C4874 C4873 1.398 . S
C4874 C4875 1.391 . S
C4875 H4863 0.950 . S
C4875 C4871 1.393 . S
C4875 C4874 1.391 . S
H4876 C4884 0.950 . S
H4877 C4889 0.950 . S
H4878 C4886 0.950 . S
H4879 C4888 0.950 . S
H4880 C4890 0.950 . S
H4881 C4892 0.950 . S
H4882 C4894 0.950 . S
H4883 C4895 0.950 . S
C4884 H4876 0.950 . S
C4884 C4885 1.386 . S
C4884 C4886 1.391 . S
C4885 C4884 1.386 . S
C4885 C4889 1.393 . S
C4886 H4878 0.950 . S
C4886 C4884 1.391 . S
C4886 C4887 1.400 . S
C4887 C4886 1.400 . S
C4887 C4888 1.398 . S
C4887 C4893 1.491 . S
C4888 H4879 0.950 . S
C4888 C4887 1.398 . S
C4888 C4889 1.391 . S
C4889 H4877 0.950 . S
C4889 C4885 1.393 . S
C4889 C4888 1.391 . S
C4890 H4880 0.950 . S
C4890 C4891 1.386 . S
C4890 C4892 1.391 . S
C4891 C4890 1.386 . S
C4891 C4895 1.393 . S
C4892 H4881 0.950 . S
C4892 C4890 1.391 . S
C4892 C4893 1.400 . S
C4893 C4887 1.491 . S
C4893 C4892 1.400 . S
C4893 C4894 1.398 . S
C4894 H4882 0.950 . S
C4894 C4893 1.398 . S
C4894 C4895 1.391 . S
C4895 H4883 0.950 . S
C4895 C4891 1.393 . S
C4895 C4894 1.391 . S
H4896 C4904 0.950 . S
H4897 C4909 0.950 . S
H4898 C4906 0.950 . S
H4899 C4908 0.950 . S
H4900 C4910 0.950 . S
H4901 C4912 0.950 . S
H4902 C4914 0.950 . S
H4903 C4915 0.950 . S
C4904 H4896 0.950 . S
C4904 C4905 1.386 . S
C4904 C4906 1.391 . S
C4905 C4904 1.386 . S
C4905 C4909 1.393 . S
C4906 H4898 0.950 . S
C4906 C4904 1.391 . S
C4906 C4907 1.400 . S
C4907 C4906 1.400 . S
C4907 C4908 1.398 . S
C4907 C4913 1.491 . S
C4908 H4899 0.950 . S
C4908 C4907 1.398 . S
C4908 C4909 1.391 . S
C4909 H4897 0.950 . S
C4909 C4905 1.393 . S
C4909 C4908 1.391 . S
C4910 H4900 0.950 . S
C4910 C4911 1.386 . S
C4910 C4912 1.391 . S
C4911 C4910 1.386 . S
C4911 C4915 1.393 . S
C4912 H4901 0.950 . S
C4912 C4910 1.391 . S
C4912 C4913 1.400 . S
C4913 C4907 1.491 . S
C4913 C4912 1.400 . S
C4913 C4914 1.398 . S
C4914 H4902 0.950 . S
C4914 C4913 1.398 . S
C4914 C4915 1.391 . S
C4915 H4903 0.950 . S
C4915 C4911 1.393 . S
C4915 C4914 1.391 . S
H4916 C4924 0.950 . S
H4917 C4929 0.950 . S
H4918 C4926 0.950 . S
H4919 C4928 0.950 . S
H4920 C4930 0.950 . S
H4921 C4932 0.950 . S
H4922 C4934 0.950 . S
H4923 C4935 0.950 . S
C4924 H4916 0.950 . S
C4924 C4925 1.386 . S
C4924 C4926 1.391 . S
C4925 C4924 1.386 . S
C4925 C4929 1.393 . S
C4926 H4918 0.950 . S
C4926 C4924 1.391 . S
C4926 C4927 1.400 . S
C4927 C4926 1.400 . S
C4927 C4928 1.398 . S
C4927 C4933 1.491 . S
C4928 H4919 0.950 . S
C4928 C4927 1.398 . S
C4928 C4929 1.391 . S
C4929 H4917 0.950 . S
C4929 C4925 1.393 . S
C4929 C4928 1.391 . S
C4930 H4920 0.950 . S
C4930 C4931 1.386 . S
C4930 C4932 1.391 . S
C4931 C4930 1.386 . S
C4931 C4935 1.393 . S
C4932 H4921 0.950 . S
C4932 C4930 1.391 . S
C4932 C4933 1.400 . S
C4933 C4927 1.491 . S
C4933 C4932 1.400 . S
C4933 C4934 1.398 . S
C4934 H4922 0.950 . S
C4934 C4933 1.398 . S
C4934 C4935 1.391 . S
C4935 H4923 0.950 . S
C4935 C4931 1.393 . S
C4935 C4934 1.391 . S
H4936 C4944 0.950 . S
H4937 C4949 0.950 . S
H4938 C4946 0.950 . S
H4939 C4948 0.950 . S
H4940 C4950 0.950 . S
H4941 C4952 0.950 . S
H4942 C4954 0.950 . S
H4943 C4955 0.950 . S
C4944 H4936 0.950 . S
C4944 C4945 1.386 . S
C4944 C4946 1.391 . S
C4945 C4944 1.386 . S
C4945 C4949 1.393 . S
C4946 H4938 0.950 . S
C4946 C4944 1.391 . S
C4946 C4947 1.400 . S
C4947 C4946 1.400 . S
C4947 C4948 1.398 . S
C4947 C4953 1.491 . S
C4948 H4939 0.950 . S
C4948 C4947 1.398 . S
C4948 C4949 1.391 . S
C4949 H4937 0.950 . S
C4949 C4945 1.393 . S
C4949 C4948 1.391 . S
C4950 H4940 0.950 . S
C4950 C4951 1.386 . S
C4950 C4952 1.391 . S
C4951 C4950 1.386 . S
C4951 C4955 1.393 . S
C4952 H4941 0.950 . S
C4952 C4950 1.391 . S
C4952 C4953 1.400 . S
C4953 C4947 1.491 . S
C4953 C4952 1.400 . S
C4953 C4954 1.398 . S
C4954 H4942 0.950 . S
C4954 C4953 1.398 . S
C4954 C4955 1.391 . S
C4955 H4943 0.950 . S
C4955 C4951 1.393 . S
C4955 C4954 1.391 . S
H4956 C4964 0.950 . S
H4957 C4969 0.950 . S
H4958 C4966 0.950 . S
H4959 C4968 0.950 . S
H4960 C4970 0.950 . S
H4961 C4972 0.950 . S
H4962 C4974 0.950 . S
H4963 C4975 0.950 . S
C4964 H4956 0.950 . S
C4964 C4965 1.386 . S
C4964 C4966 1.391 . S
C4965 C4964 1.386 . S
C4965 C4969 1.393 . S
C4966 H4958 0.950 . S
C4966 C4964 1.391 . S
C4966 C4967 1.400 . S
C4967 C4966 1.400 . S
C4967 C4968 1.398 . S
C4967 C4973 1.491 . S
C4968 H4959 0.950 . S
C4968 C4967 1.398 . S
C4968 C4969 1.391 . S
C4969 H4957 0.950 . S
C4969 C4965 1.393 . S
C4969 C4968 1.391 . S
C4970 H4960 0.950 . S
C4970 C4971 1.386 . S
C4970 C4972 1.391 . S
C4971 C4970 1.386 . S
C4971 C4975 1.393 . S
C4972 H4961 0.950 . S
C4972 C4970 1.391 . S
C4972 C4973 1.400 . S
C4973 C4967 1.491 . S
C4973 C4972 1.400 . S
C4973 C4974 1.398 . S
C4974 H4962 0.950 . S
C4974 C4973 1.398 . S
C4974 C4975 1.391 . S
C4975 H4963 0.950 . S
C4975 C4971 1.393 . S
C4975 C4974 1.391 . S
H4976 C4984 0.950 . S
H4977 C4989 0.950 . S
H4978 C4986 0.950 . S
H4979 C4988 0.950 . S
H4980 C4990 0.950 . S
H4981 C4992 0.950 . S
H4982 C4994 0.950 . S
H4983 C4995 0.950 . S
C4984 H4976 0.950 . S
C4984 C4985 1.386 . S
C4984 C4986 1.391 . S
C4985 C4984 1.386 . S
C4985 C4989 1.393 . S
C4986 H4978 0.950 . S
C4986 C4984 1.391 . S
C4986 C4987 1.400 . S
C4987 C4986 1.400 . S
C4987 C4988 1.398 . S
C4987 C4993 1.491 . S
C4988 H4979 0.950 . S
C4988 C4987 1.398 . S
C4988 C4989 1.391 . S
C4989 H4977 0.950 . S
C4989 C4985 1.393 . S
C4989 C4988 1.391 . S
C4990 H4980 0.950 . S
C4990 C4991 1.386 . S
C4990 C4992 1.391 . S
C4991 C4990 1.386 . S
C4991 C4995 1.393 . S
C4992 H4981 0.950 . S
C4992 C4990 1.391 . S
C4992 C4993 1.400 . S
C4993 C4987 1.491 . S
C4993 C4992 1.400 . S
C4993 C4994 1.398 . S
C4994 H4982 0.950 . S
C4994 C4993 1.398 . S
C4994 C4995 1.391 . S
C4995 H4983 0.950 . S
C4995 C4991 1.393 . S
C4995 C4994 1.391 . S
H4996 C5004 0.950 . S
H4997 C5009 0.950 . S
H4998 C5006 0.950 . S
H4999 C5008 0.950 . S
H5000 C5010 0.950 . S
H5001 C5012 0.950 . S
H5002 C5014 0.950 . S
H5003 C5015 0.950 . S
C5004 H4996 0.950 . S
C5004 C5005 1.386 . S
C5004 C5006 1.391 . S
C5005 C5004 1.386 . S
C5005 C5009 1.393 . S
C5006 H4998 0.950 . S
C5006 C5004 1.391 . S
C5006 C5007 1.400 . S
C5007 C5006 1.400 . S
C5007 C5008 1.398 . S
C5007 C5013 1.491 . S
C5008 H4999 0.950 . S
C5008 C5007 1.398 . S
C5008 C5009 1.391 . S
C5009 H4997 0.950 . S
C5009 C5005 1.393 . S
C5009 C5008 1.391 . S
C5010 H5000 0.950 . S
C5010 C5011 1.386 . S
C5010 C5012 1.391 . S
C5011 C5010 1.386 . S
C5011 C5015 1.393 . S
C5012 H5001 0.950 . S
C5012 C5010 1.391 . S
C5012 C5013 1.400 . S
C5013 C5007 1.491 . S
C5013 C5012 1.400 . S
C5013 C5014 1.398 . S
C5014 H5002 0.950 . S
C5014 C5013 1.398 . S
C5014 C5015 1.391 . S
C5015 H5003 0.950 . S
C5015 C5011 1.393 . S
C5015 C5014 1.391 . S
H5016 C5024 0.950 . S
H5017 C5029 0.950 . S
H5018 C5026 0.950 . S
H5019 C5028 0.950 . S
H5020 C5030 0.950 . S
H5021 C5032 0.950 . S
H5022 C5034 0.950 . S
H5023 C5035 0.950 . S
C5024 H5016 0.950 . S
C5024 C5025 1.386 . S
C5024 C5026 1.391 . S
C5025 C5024 1.386 . S
C5025 C5029 1.393 . S
C5026 H5018 0.950 . S
C5026 C5024 1.391 . S
C5026 C5027 1.400 . S
C5027 C5026 1.400 . S
C5027 C5028 1.398 . S
C5027 C5033 1.491 . S
C5028 H5019 0.950 . S
C5028 C5027 1.398 . S
C5028 C5029 1.391 . S
C5029 H5017 0.950 . S
C5029 C5025 1.393 . S
C5029 C5028 1.391 . S
C5030 H5020 0.950 . S
C5030 C5031 1.386 . S
C5030 C5032 1.391 . S
C5031 C5030 1.386 . S
C5031 C5035 1.393 . S
C5032 H5021 0.950 . S
C5032 C5030 1.391 . S
C5032 C5033 1.400 . S
C5033 C5027 1.491 . S
C5033 C5032 1.400 . S
C5033 C5034 1.398 . S
C5034 H5022 0.950 . S
C5034 C5033 1.398 . S
C5034 C5035 1.391 . S
C5035 H5023 0.950 . S
C5035 C5031 1.393 . S
C5035 C5034 1.391 . S
H5036 C5044 0.950 . S
H5037 C5049 0.950 . S
H5038 C5046 0.950 . S
H5039 C5048 0.950 . S
H5040 C5050 0.950 . S
H5041 C5052 0.950 . S
H5042 C5054 0.950 . S
H5043 C5055 0.950 . S
C5044 H5036 0.950 . S
C5044 C5045 1.386 . S
C5044 C5046 1.391 . S
C5045 C5044 1.386 . S
C5045 C5049 1.393 . S
C5046 H5038 0.950 . S
C5046 C5044 1.391 . S
C5046 C5047 1.400 . S
C5047 C5046 1.400 . S
C5047 C5048 1.398 . S
C5047 C5053 1.491 . S
C5048 H5039 0.950 . S
C5048 C5047 1.398 . S
C5048 C5049 1.391 . S
C5049 H5037 0.950 . S
C5049 C5045 1.393 . S
C5049 C5048 1.391 . S
C5050 H5040 0.950 . S
C5050 C5051 1.386 . S
C5050 C5052 1.391 . S
C5051 C5050 1.386 . S
C5051 C5055 1.393 . S
C5052 H5041 0.950 . S
C5052 C5050 1.391 . S
C5052 C5053 1.400 . S
C5053 C5047 1.491 . S
C5053 C5052 1.400 . S
C5053 C5054 1.398 . S
C5054 H5042 0.950 . S
C5054 C5053 1.398 . S
C5054 C5055 1.391 . S
C5055 H5043 0.950 . S
C5055 C5051 1.393 . S
C5055 C5054 1.391 . S
H5056 C5064 0.950 . S
H5057 C5069 0.950 . S
H5058 C5066 0.950 . S
H5059 C5068 0.950 . S
H5060 C5070 0.950 . S
H5061 C5072 0.950 . S
H5062 C5074 0.950 . S
H5063 C5075 0.950 . S
C5064 H5056 0.950 . S
C5064 C5065 1.386 . S
C5064 C5066 1.391 . S
C5065 C5064 1.386 . S
C5065 C5069 1.393 . S
C5066 H5058 0.950 . S
C5066 C5064 1.391 . S
C5066 C5067 1.400 . S
C5067 C5066 1.400 . S
C5067 C5068 1.398 . S
C5067 C5073 1.491 . S
C5068 H5059 0.950 . S
C5068 C5067 1.398 . S
C5068 C5069 1.391 . S
C5069 H5057 0.950 . S
C5069 C5065 1.393 . S
C5069 C5068 1.391 . S
C5070 H5060 0.950 . S
C5070 C5071 1.386 . S
C5070 C5072 1.391 . S
C5071 C5070 1.386 . S
C5071 C5075 1.393 . S
C5072 H5061 0.950 . S
C5072 C5070 1.391 . S
C5072 C5073 1.400 . S
C5073 C5067 1.491 . S
C5073 C5072 1.400 . S
C5073 C5074 1.398 . S
C5074 H5062 0.950 . S
C5074 C5073 1.398 . S
C5074 C5075 1.391 . S
C5075 H5063 0.950 . S
C5075 C5071 1.393 . S
C5075 C5074 1.391 . S
H5076 C5084 0.950 . S
H5077 C5089 0.950 . S
H5078 C5086 0.950 . S
H5079 C5088 0.950 . S
H5080 C5090 0.950 . S
H5081 C5092 0.950 . S
H5082 C5094 0.950 . S
H5083 C5095 0.950 . S
C5084 H5076 0.950 . S
C5084 C5085 1.386 . S
C5084 C5086 1.391 . S
C5085 C5084 1.386 . S
C5085 C5089 1.393 . S
C5086 H5078 0.950 . S
C5086 C5084 1.391 . S
C5086 C5087 1.400 . S
C5087 C5086 1.400 . S
C5087 C5088 1.398 . S
C5087 C5093 1.491 . S
C5088 H5079 0.950 . S
C5088 C5087 1.398 . S
C5088 C5089 1.391 . S
C5089 H5077 0.950 . S
C5089 C5085 1.393 . S
C5089 C5088 1.391 . S
C5090 H5080 0.950 . S
C5090 C5091 1.386 . S
C5090 C5092 1.391 . S
C5091 C5090 1.386 . S
C5091 C5095 1.393 . S
C5092 H5081 0.950 . S
C5092 C5090 1.391 . S
C5092 C5093 1.400 . S
C5093 C5087 1.491 . S
C5093 C5092 1.400 . S
C5093 C5094 1.398 . S
C5094 H5082 0.950 . S
C5094 C5093 1.398 . S
C5094 C5095 1.391 . S
C5095 H5083 0.950 . S
C5095 C5091 1.393 . S
C5095 C5094 1.391 . S
H5096 C5104 0.950 . S
H5097 C5109 0.950 . S
H5098 C5106 0.950 . S
H5099 C5108 0.950 . S
H5100 C5110 0.950 . S
H5101 C5112 0.950 . S
H5102 C5114 0.950 . S
H5103 C5115 0.950 . S
C5104 H5096 0.950 . S
C5104 C5105 1.386 . S
C5104 C5106 1.391 . S
C5105 C5104 1.386 . S
C5105 C5109 1.393 . S
C5106 H5098 0.950 . S
C5106 C5104 1.391 . S
C5106 C5107 1.400 . S
C5107 C5106 1.400 . S
C5107 C5108 1.398 . S
C5107 C5113 1.491 . S
C5108 H5099 0.950 . S
C5108 C5107 1.398 . S
C5108 C5109 1.391 . S
C5109 H5097 0.950 . S
C5109 C5105 1.393 . S
C5109 C5108 1.391 . S
C5110 H5100 0.950 . S
C5110 C5111 1.386 . S
C5110 C5112 1.391 . S
C5111 C5110 1.386 . S
C5111 C5115 1.393 . S
C5112 H5101 0.950 . S
C5112 C5110 1.391 . S
C5112 C5113 1.400 . S
C5113 C5107 1.491 . S
C5113 C5112 1.400 . S
C5113 C5114 1.398 . S
C5114 H5102 0.950 . S
C5114 C5113 1.398 . S
C5114 C5115 1.391 . S
C5115 H5103 0.950 . S
C5115 C5111 1.393 . S
C5115 C5114 1.391 . S
H5116 C5124 0.950 . S
H5117 C5129 0.950 . S
H5118 C5126 0.950 . S
H5119 C5128 0.950 . S
H5120 C5130 0.950 . S
H5121 C5132 0.950 . S
H5122 C5134 0.950 . S
H5123 C5135 0.950 . S
C5124 H5116 0.950 . S
C5124 C5125 1.386 . S
C5124 C5126 1.391 . S
C5125 C5124 1.386 . S
C5125 C5129 1.393 . S
C5126 H5118 0.950 . S
C5126 C5124 1.391 . S
C5126 C5127 1.400 . S
C5127 C5126 1.400 . S
C5127 C5128 1.398 . S
C5127 C5133 1.491 . S
C5128 H5119 0.950 . S
C5128 C5127 1.398 . S
C5128 C5129 1.391 . S
C5129 H5117 0.950 . S
C5129 C5125 1.393 . S
C5129 C5128 1.391 . S
C5130 H5120 0.950 . S
C5130 C5131 1.386 . S
C5130 C5132 1.391 . S
C5131 C5130 1.386 . S
C5131 C5135 1.393 . S
C5132 H5121 0.950 . S
C5132 C5130 1.391 . S
C5132 C5133 1.400 . S
C5133 C5127 1.491 . S
C5133 C5132 1.400 . S
C5133 C5134 1.398 . S
C5134 H5122 0.950 . S
C5134 C5133 1.398 . S
C5134 C5135 1.391 . S
C5135 H5123 0.950 . S
C5135 C5131 1.393 . S
C5135 C5134 1.391 . S
H5136 C5144 0.950 . S
H5137 C5149 0.950 . S
H5138 C5146 0.950 . S
H5139 C5148 0.950 . S
H5140 C5150 0.950 . S
H5141 C5152 0.950 . S
H5142 C5154 0.950 . S
H5143 C5155 0.950 . S
C5144 H5136 0.950 . S
C5144 C5145 1.386 . S
C5144 C5146 1.391 . S
C5145 C5144 1.386 . S
C5145 C5149 1.393 . S
C5146 H5138 0.950 . S
C5146 C5144 1.391 . S
C5146 C5147 1.400 . S
C5147 C5146 1.400 . S
C5147 C5148 1.398 . S
C5147 C5153 1.491 . S
C5148 H5139 0.950 . S
C5148 C5147 1.398 . S
C5148 C5149 1.391 . S
C5149 H5137 0.950 . S
C5149 C5145 1.393 . S
C5149 C5148 1.391 . S
C5150 H5140 0.950 . S
C5150 C5151 1.386 . S
C5150 C5152 1.391 . S
C5151 C5150 1.386 . S
C5151 C5155 1.393 . S
C5152 H5141 0.950 . S
C5152 C5150 1.391 . S
C5152 C5153 1.400 . S
C5153 C5147 1.491 . S
C5153 C5152 1.400 . S
C5153 C5154 1.398 . S
C5154 H5142 0.950 . S
C5154 C5153 1.398 . S
C5154 C5155 1.391 . S
C5155 H5143 0.950 . S
C5155 C5151 1.393 . S
C5155 C5154 1.391 . S
H5156 C5164 0.950 . S
H5157 C5169 0.950 . S
H5158 C5166 0.950 . S
H5159 C5168 0.950 . S
H5160 C5170 0.950 . S
H5161 C5172 0.950 . S
H5162 C5174 0.950 . S
H5163 C5175 0.950 . S
C5164 H5156 0.950 . S
C5164 C5165 1.386 . S
C5164 C5166 1.391 . S
C5165 C5164 1.386 . S
C5165 C5169 1.393 . S
C5166 H5158 0.950 . S
C5166 C5164 1.391 . S
C5166 C5167 1.400 . S
C5167 C5166 1.400 . S
C5167 C5168 1.398 . S
C5167 C5173 1.491 . S
C5168 H5159 0.950 . S
C5168 C5167 1.398 . S
C5168 C5169 1.391 . S
C5169 H5157 0.950 . S
C5169 C5165 1.393 . S
C5169 C5168 1.391 . S
C5170 H5160 0.950 . S
C5170 C5171 1.386 . S
C5170 C5172 1.391 . S
C5171 C5170 1.386 . S
C5171 C5175 1.393 . S
C5172 H5161 0.950 . S
C5172 C5170 1.391 . S
C5172 C5173 1.400 . S
C5173 C5167 1.491 . S
C5173 C5172 1.400 . S
C5173 C5174 1.398 . S
C5174 H5162 0.950 . S
C5174 C5173 1.398 . S
C5174 C5175 1.391 . S
C5175 H5163 0.950 . S
C5175 C5171 1.393 . S
C5175 C5174 1.391 . S
H5176 C5184 0.950 . S
H5177 C5189 0.950 . S
H5178 C5186 0.950 . S
H5179 C5188 0.950 . S
H5180 C5190 0.950 . S
H5181 C5192 0.950 . S
H5182 C5194 0.950 . S
H5183 C5195 0.950 . S
C5184 H5176 0.950 . S
C5184 C5185 1.386 . S
C5184 C5186 1.391 . S
C5185 C5184 1.386 . S
C5185 C5189 1.393 . S
C5186 H5178 0.950 . S
C5186 C5184 1.391 . S
C5186 C5187 1.400 . S
C5187 C5186 1.400 . S
C5187 C5188 1.398 . S
C5187 C5193 1.491 . S
C5188 H5179 0.950 . S
C5188 C5187 1.398 . S
C5188 C5189 1.391 . S
C5189 H5177 0.950 . S
C5189 C5185 1.393 . S
C5189 C5188 1.391 . S
C5190 H5180 0.950 . S
C5190 C5191 1.386 . S
C5190 C5192 1.391 . S
C5191 C5190 1.386 . S
C5191 C5195 1.393 . S
C5192 H5181 0.950 . S
C5192 C5190 1.391 . S
C5192 C5193 1.400 . S
C5193 C5187 1.491 . S
C5193 C5192 1.400 . S
C5193 C5194 1.398 . S
C5194 H5182 0.950 . S
C5194 C5193 1.398 . S
C5194 C5195 1.391 . S
C5195 H5183 0.950 . S
C5195 C5191 1.393 . S
C5195 C5194 1.391 . S
H5196 C5204 0.950 . S
H5197 C5209 0.950 . S
H5198 C5206 0.950 . S
H5199 C5208 0.950 . S
H5200 C5210 0.950 . S
H5201 C5212 0.950 . S
H5202 C5214 0.950 . S
H5203 C5215 0.950 . S
C5204 H5196 0.950 . S
C5204 C5205 1.386 . S
C5204 C5206 1.391 . S
C5205 C5204 1.386 . S
C5205 C5209 1.393 . S
C5206 H5198 0.950 . S
C5206 C5204 1.391 . S
C5206 C5207 1.400 . S
C5207 C5206 1.400 . S
C5207 C5208 1.398 . S
C5207 C5213 1.491 . S
C5208 H5199 0.950 . S
C5208 C5207 1.398 . S
C5208 C5209 1.391 . S
C5209 H5197 0.950 . S
C5209 C5205 1.393 . S
C5209 C5208 1.391 . S
C5210 H5200 0.950 . S
C5210 C5211 1.386 . S
C5210 C5212 1.391 . S
C5211 C5210 1.386 . S
C5211 C5215 1.393 . S
C5212 H5201 0.950 . S
C5212 C5210 1.391 . S
C5212 C5213 1.400 . S
C5213 C5207 1.491 . S
C5213 C5212 1.400 . S
C5213 C5214 1.398 . S
C5214 H5202 0.950 . S
C5214 C5213 1.398 . S
C5214 C5215 1.391 . S
C5215 H5203 0.950 . S
C5215 C5211 1.393 . S
C5215 C5214 1.391 . S
H5216 C5224 0.950 . S
H5217 C5229 0.950 . S
H5218 C5226 0.950 . S
H5219 C5228 0.950 . S
H5220 C5230 0.950 . S
H5221 C5232 0.950 . S
H5222 C5234 0.950 . S
H5223 C5235 0.950 . S
C5224 H5216 0.950 . S
C5224 C5225 1.386 . S
C5224 C5226 1.391 . S
C5225 C5224 1.386 . S
C5225 C5229 1.393 . S
C5226 H5218 0.950 . S
C5226 C5224 1.391 . S
C5226 C5227 1.400 . S
C5227 C5226 1.400 . S
C5227 C5228 1.398 . S
C5227 C5233 1.491 . S
C5228 H5219 0.950 . S
C5228 C5227 1.398 . S
C5228 C5229 1.391 . S
C5229 H5217 0.950 . S
C5229 C5225 1.393 . S
C5229 C5228 1.391 . S
C5230 H5220 0.950 . S
C5230 C5231 1.386 . S
C5230 C5232 1.391 . S
C5231 C5230 1.386 . S
C5231 C5235 1.393 . S
C5232 H5221 0.950 . S
C5232 C5230 1.391 . S
C5232 C5233 1.400 . S
C5233 C5227 1.491 . S
C5233 C5232 1.400 . S
C5233 C5234 1.398 . S
C5234 H5222 0.950 . S
C5234 C5233 1.398 . S
C5234 C5235 1.391 . S
C5235 H5223 0.950 . S
C5235 C5231 1.393 . S
C5235 C5234 1.391 . S
H5236 C5244 0.950 . S
H5237 C5249 0.950 . S
H5238 C5246 0.950 . S
H5239 C5248 0.950 . S
H5240 C5250 0.950 . S
H5241 C5252 0.950 . S
H5242 C5254 0.950 . S
H5243 C5255 0.950 . S
C5244 H5236 0.950 . S
C5244 C5245 1.386 . S
C5244 C5246 1.391 . S
C5245 C5244 1.386 . S
C5245 C5249 1.393 . S
C5246 H5238 0.950 . S
C5246 C5244 1.391 . S
C5246 C5247 1.400 . S
C5247 C5246 1.400 . S
C5247 C5248 1.398 . S
C5247 C5253 1.491 . S
C5248 H5239 0.950 . S
C5248 C5247 1.398 . S
C5248 C5249 1.391 . S
C5249 H5237 0.950 . S
C5249 C5245 1.393 . S
C5249 C5248 1.391 . S
C5250 H5240 0.950 . S
C5250 C5251 1.386 . S
C5250 C5252 1.391 . S
C5251 C5250 1.386 . S
C5251 C5255 1.393 . S
C5252 H5241 0.950 . S
C5252 C5250 1.391 . S
C5252 C5253 1.400 . S
C5253 C5247 1.491 . S
C5253 C5252 1.400 . S
C5253 C5254 1.398 . S
C5254 H5242 0.950 . S
C5254 C5253 1.398 . S
C5254 C5255 1.391 . S
C5255 H5243 0.950 . S
C5255 C5251 1.393 . S
C5255 C5254 1.391 . S
H5256 C5264 0.950 . S
H5257 C5269 0.950 . S
H5258 C5266 0.950 . S
H5259 C5268 0.950 . S
H5260 C5270 0.950 . S
H5261 C5272 0.950 . S
H5262 C5274 0.950 . S
H5263 C5275 0.950 . S
C5264 H5256 0.950 . S
C5264 C5265 1.386 . S
C5264 C5266 1.391 . S
C5265 C5264 1.386 . S
C5265 C5269 1.393 . S
C5266 H5258 0.950 . S
C5266 C5264 1.391 . S
C5266 C5267 1.400 . S
C5267 C5266 1.400 . S
C5267 C5268 1.398 . S
C5267 C5273 1.491 . S
C5268 H5259 0.950 . S
C5268 C5267 1.398 . S
C5268 C5269 1.391 . S
C5269 H5257 0.950 . S
C5269 C5265 1.393 . S
C5269 C5268 1.391 . S
C5270 H5260 0.950 . S
C5270 C5271 1.386 . S
C5270 C5272 1.391 . S
C5271 C5270 1.386 . S
C5271 C5275 1.393 . S
C5272 H5261 0.950 . S
C5272 C5270 1.391 . S
C5272 C5273 1.400 . S
C5273 C5267 1.491 . S
C5273 C5272 1.400 . S
C5273 C5274 1.398 . S
C5274 H5262 0.950 . S
C5274 C5273 1.398 . S
C5274 C5275 1.391 . S
C5275 H5263 0.950 . S
C5275 C5271 1.393 . S
C5275 C5274 1.391 . S
H5276 C5284 0.950 . S
H5277 C5289 0.950 . S
H5278 C5286 0.950 . S
H5279 C5288 0.950 . S
H5280 C5290 0.950 . S
H5281 C5292 0.950 . S
H5282 C5294 0.950 . S
H5283 C5295 0.950 . S
C5284 H5276 0.950 . S
C5284 C5285 1.386 . S
C5284 C5286 1.391 . S
C5285 C5284 1.386 . S
C5285 C5289 1.393 . S
C5286 H5278 0.950 . S
C5286 C5284 1.391 . S
C5286 C5287 1.400 . S
C5287 C5286 1.400 . S
C5287 C5288 1.398 . S
C5287 C5293 1.491 . S
C5288 H5279 0.950 . S
C5288 C5287 1.398 . S
C5288 C5289 1.391 . S
C5289 H5277 0.950 . S
C5289 C5285 1.393 . S
C5289 C5288 1.391 . S
C5290 H5280 0.950 . S
C5290 C5291 1.386 . S
C5290 C5292 1.391 . S
C5291 C5290 1.386 . S
C5291 C5295 1.393 . S
C5292 H5281 0.950 . S
C5292 C5290 1.391 . S
C5292 C5293 1.400 . S
C5293 C5287 1.491 . S
C5293 C5292 1.400 . S
C5293 C5294 1.398 . S
C5294 H5282 0.950 . S
C5294 C5293 1.398 . S
C5294 C5295 1.391 . S
C5295 H5283 0.950 . S
C5295 C5291 1.393 . S
C5295 C5294 1.391 . S
H5296 C5304 0.950 . S
H5297 C5309 0.950 . S
H5298 C5306 0.950 . S
H5299 C5308 0.950 . S
H5300 C5310 0.950 . S
H5301 C5312 0.950 . S
H5302 C5314 0.950 . S
H5303 C5315 0.950 . S
C5304 H5296 0.950 . S
C5304 C5305 1.386 . S
C5304 C5306 1.391 . S
C5305 C5304 1.386 . S
C5305 C5309 1.393 . S
C5306 H5298 0.950 . S
C5306 C5304 1.391 . S
C5306 C5307 1.400 . S
C5307 C5306 1.400 . S
C5307 C5308 1.398 . S
C5307 C5313 1.491 . S
C5308 H5299 0.950 . S
C5308 C5307 1.398 . S
C5308 C5309 1.391 . S
C5309 H5297 0.950 . S
C5309 C5305 1.393 . S
C5309 C5308 1.391 . S
C5310 H5300 0.950 . S
C5310 C5311 1.386 . S
C5310 C5312 1.391 . S
C5311 C5310 1.386 . S
C5311 C5315 1.393 . S
C5312 H5301 0.950 . S
C5312 C5310 1.391 . S
C5312 C5313 1.400 . S
C5313 C5307 1.491 . S
C5313 C5312 1.400 . S
C5313 C5314 1.398 . S
C5314 H5302 0.950 . S
C5314 C5313 1.398 . S
C5314 C5315 1.391 . S
C5315 H5303 0.950 . S
C5315 C5311 1.393 . S
C5315 C5314 1.391 . S
H5316 C5324 0.950 . S
H5317 C5329 0.950 . S
H5318 C5326 0.950 . S
H5319 C5328 0.950 . S
H5320 C5330 0.950 . S
H5321 C5332 0.950 . S
H5322 C5334 0.950 . S
H5323 C5335 0.950 . S
C5324 H5316 0.950 . S
C5324 C5325 1.386 . S
C5324 C5326 1.391 . S
C5325 C5324 1.386 . S
C5325 C5329 1.393 . S
C5326 H5318 0.950 . S
C5326 C5324 1.391 . S
C5326 C5327 1.400 . S
C5327 C5326 1.400 . S
C5327 C5328 1.398 . S
C5327 C5333 1.491 . S
C5328 H5319 0.950 . S
C5328 C5327 1.398 . S
C5328 C5329 1.391 . S
C5329 H5317 0.950 . S
C5329 C5325 1.393 . S
C5329 C5328 1.391 . S
C5330 H5320 0.950 . S
C5330 C5331 1.386 . S
C5330 C5332 1.391 . S
C5331 C5330 1.386 . S
C5331 C5335 1.393 . S
C5332 H5321 0.950 . S
C5332 C5330 1.391 . S
C5332 C5333 1.400 . S
C5333 C5327 1.491 . S
C5333 C5332 1.400 . S
C5333 C5334 1.398 . S
C5334 H5322 0.950 . S
C5334 C5333 1.398 . S
C5334 C5335 1.391 . S
C5335 H5323 0.950 . S
C5335 C5331 1.393 . S
C5335 C5334 1.391 . S
H5336 C5344 0.950 . S
H5337 C5349 0.950 . S
H5338 C5346 0.950 . S
H5339 C5348 0.950 . S
H5340 C5350 0.950 . S
H5341 C5352 0.950 . S
H5342 C5354 0.950 . S
H5343 C5355 0.950 . S
C5344 H5336 0.950 . S
C5344 C5345 1.386 . S
C5344 C5346 1.391 . S
C5345 C5344 1.386 . S
C5345 C5349 1.393 . S
C5346 H5338 0.950 . S
C5346 C5344 1.391 . S
C5346 C5347 1.400 . S
C5347 C5346 1.400 . S
C5347 C5348 1.398 . S
C5347 C5353 1.491 . S
C5348 H5339 0.950 . S
C5348 C5347 1.398 . S
C5348 C5349 1.391 . S
C5349 H5337 0.950 . S
C5349 C5345 1.393 . S
C5349 C5348 1.391 . S
C5350 H5340 0.950 . S
C5350 C5351 1.386 . S
C5350 C5352 1.391 . S
C5351 C5350 1.386 . S
C5351 C5355 1.393 . S
C5352 H5341 0.950 . S
C5352 C5350 1.391 . S
C5352 C5353 1.400 . S
C5353 C5347 1.491 . S
C5353 C5352 1.400 . S
C5353 C5354 1.398 . S
C5354 H5342 0.950 . S
C5354 C5353 1.398 . S
C5354 C5355 1.391 . S
C5355 H5343 0.950 . S
C5355 C5351 1.393 . S
C5355 C5354 1.391 . S
H5356 C5364 0.950 . S
H5357 C5369 0.950 . S
H5358 C5366 0.950 . S
H5359 C5368 0.950 . S
H5360 C5370 0.950 . S
H5361 C5372 0.950 . S
H5362 C5374 0.950 . S
H5363 C5375 0.950 . S
C5364 H5356 0.950 . S
C5364 C5365 1.386 . S
C5364 C5366 1.391 . S
C5365 C5364 1.386 . S
C5365 C5369 1.393 . S
C5366 H5358 0.950 . S
C5366 C5364 1.391 . S
C5366 C5367 1.400 . S
C5367 C5366 1.400 . S
C5367 C5368 1.398 . S
C5367 C5373 1.491 . S
C5368 H5359 0.950 . S
C5368 C5367 1.398 . S
C5368 C5369 1.391 . S
C5369 H5357 0.950 . S
C5369 C5365 1.393 . S
C5369 C5368 1.391 . S
C5370 H5360 0.950 . S
C5370 C5371 1.386 . S
C5370 C5372 1.391 . S
C5371 C5370 1.386 . S
C5371 C5375 1.393 . S
C5372 H5361 0.950 . S
C5372 C5370 1.391 . S
C5372 C5373 1.400 . S
C5373 C5367 1.491 . S
C5373 C5372 1.400 . S
C5373 C5374 1.398 . S
C5374 H5362 0.950 . S
C5374 C5373 1.398 . S
C5374 C5375 1.391 . S
C5375 H5363 0.950 . S
C5375 C5371 1.393 . S
C5375 C5374 1.391 . S
H5376 C5384 0.950 . S
H5377 C5389 0.950 . S
H5378 C5386 0.950 . S
H5379 C5388 0.950 . S
H5380 C5390 0.950 . S
H5381 C5392 0.950 . S
H5382 C5394 0.950 . S
H5383 C5395 0.950 . S
C5384 H5376 0.950 . S
C5384 C5385 1.386 . S
C5384 C5386 1.391 . S
C5385 C5384 1.386 . S
C5385 C5389 1.393 . S
C5386 H5378 0.950 . S
C5386 C5384 1.391 . S
C5386 C5387 1.400 . S
C5387 C5386 1.400 . S
C5387 C5388 1.398 . S
C5387 C5393 1.491 . S
C5388 H5379 0.950 . S
C5388 C5387 1.398 . S
C5388 C5389 1.391 . S
C5389 H5377 0.950 . S
C5389 C5385 1.393 . S
C5389 C5388 1.391 . S
C5390 H5380 0.950 . S
C5390 C5391 1.386 . S
C5390 C5392 1.391 . S
C5391 C5390 1.386 . S
C5391 C5395 1.393 . S
C5392 H5381 0.950 . S
C5392 C5390 1.391 . S
C5392 C5393 1.400 . S
C5393 C5387 1.491 . S
C5393 C5392 1.400 . S
C5393 C5394 1.398 . S
C5394 H5382 0.950 . S
C5394 C5393 1.398 . S
C5394 C5395 1.391 . S
C5395 H5383 0.950 . S
C5395 C5391 1.393 . S
C5395 C5394 1.391 . S
H5396 C5404 0.950 . S
H5397 C5409 0.950 . S
H5398 C5406 0.950 . S
H5399 C5408 0.950 . S
H5400 C5410 0.950 . S
H5401 C5412 0.950 . S
H5402 C5414 0.950 . S
H5403 C5415 0.950 . S
C5404 H5396 0.950 . S
C5404 C5405 1.386 . S
C5404 C5406 1.391 . S
C5405 C5404 1.386 . S
C5405 C5409 1.393 . S
C5406 H5398 0.950 . S
C5406 C5404 1.391 . S
C5406 C5407 1.400 . S
C5407 C5406 1.400 . S
C5407 C5408 1.398 . S
C5407 C5413 1.491 . S
C5408 H5399 0.950 . S
C5408 C5407 1.398 . S
C5408 C5409 1.391 . S
C5409 H5397 0.950 . S
C5409 C5405 1.393 . S
C5409 C5408 1.391 . S
C5410 H5400 0.950 . S
C5410 C5411 1.386 . S
C5410 C5412 1.391 . S
C5411 C5410 1.386 . S
C5411 C5415 1.393 . S
C5412 H5401 0.950 . S
C5412 C5410 1.391 . S
C5412 C5413 1.400 . S
C5413 C5407 1.491 . S
C5413 C5412 1.400 . S
C5413 C5414 1.398 . S
C5414 H5402 0.950 . S
C5414 C5413 1.398 . S
C5414 C5415 1.391 . S
C5415 H5403 0.950 . S
C5415 C5411 1.393 . S
C5415 C5414 1.391 . S
H5416 C5424 0.950 . S
H5417 C5429 0.950 . S
H5418 C5426 0.950 . S
H5419 C5428 0.950 . S
H5420 C5430 0.950 . S
H5421 C5432 0.950 . S
H5422 C5434 0.950 . S
H5423 C5435 0.950 . S
C5424 H5416 0.950 . S
C5424 C5425 1.386 . S
C5424 C5426 1.391 . S
C5425 C5424 1.386 . S
C5425 C5429 1.393 . S
C5426 H5418 0.950 . S
C5426 C5424 1.391 . S
C5426 C5427 1.400 . S
C5427 C5426 1.400 . S
C5427 C5428 1.398 . S
C5427 C5433 1.491 . S
C5428 H5419 0.950 . S
C5428 C5427 1.398 . S
C5428 C5429 1.391 . S
C5429 H5417 0.950 . S
C5429 C5425 1.393 . S
C5429 C5428 1.391 . S
C5430 H5420 0.950 . S
C5430 C5431 1.386 . S
C5430 C5432 1.391 . S
C5431 C5430 1.386 . S
C5431 C5435 1.393 . S
C5432 H5421 0.950 . S
C5432 C5430 1.391 . S
C5432 C5433 1.400 . S
C5433 C5427 1.491 . S
C5433 C5432 1.400 . S
C5433 C5434 1.398 . S
C5434 H5422 0.950 . S
C5434 C5433 1.398 . S
C5434 C5435 1.391 . S
C5435 H5423 0.950 . S
C5435 C5431 1.393 . S
C5435 C5434 1.391 . S
H5436 C5444 0.950 . S
H5437 C5449 0.950 . S
H5438 C5446 0.950 . S
H5439 C5448 0.950 . S
H5440 C5450 0.950 . S
H5441 C5452 0.950 . S
H5442 C5454 0.950 . S
H5443 C5455 0.950 . S
C5444 H5436 0.950 . S
C5444 C5445 1.386 . S
C5444 C5446 1.391 . S
C5445 C5444 1.386 . S
C5445 C5449 1.393 . S
C5446 H5438 0.950 . S
C5446 C5444 1.391 . S
C5446 C5447 1.400 . S
C5447 C5446 1.400 . S
C5447 C5448 1.398 . S
C5447 C5453 1.491 . S
C5448 H5439 0.950 . S
C5448 C5447 1.398 . S
C5448 C5449 1.391 . S
C5449 H5437 0.950 . S
C5449 C5445 1.393 . S
C5449 C5448 1.391 . S
C5450 H5440 0.950 . S
C5450 C5451 1.386 . S
C5450 C5452 1.391 . S
C5451 C5450 1.386 . S
C5451 C5455 1.393 . S
C5452 H5441 0.950 . S
C5452 C5450 1.391 . S
C5452 C5453 1.400 . S
C5453 C5447 1.491 . S
C5453 C5452 1.400 . S
C5453 C5454 1.398 . S
C5454 H5442 0.950 . S
C5454 C5453 1.398 . S
C5454 C5455 1.391 . S
C5455 H5443 0.950 . S
C5455 C5451 1.393 . S
C5455 C5454 1.391 . S
H5456 C5464 0.950 . S
H5457 C5469 0.950 . S
H5458 C5466 0.950 . S
H5459 C5468 0.950 . S
H5460 C5470 0.950 . S
H5461 C5472 0.950 . S
H5462 C5474 0.950 . S
H5463 C5475 0.950 . S
C5464 H5456 0.950 . S
C5464 C5465 1.386 . S
C5464 C5466 1.391 . S
C5465 C5464 1.386 . S
C5465 C5469 1.393 . S
C5466 H5458 0.950 . S
C5466 C5464 1.391 . S
C5466 C5467 1.400 . S
C5467 C5466 1.400 . S
C5467 C5468 1.398 . S
C5467 C5473 1.491 . S
C5468 H5459 0.950 . S
C5468 C5467 1.398 . S
C5468 C5469 1.391 . S
C5469 H5457 0.950 . S
C5469 C5465 1.393 . S
C5469 C5468 1.391 . S
C5470 H5460 0.950 . S
C5470 C5471 1.386 . S
C5470 C5472 1.391 . S
C5471 C5470 1.386 . S
C5471 C5475 1.393 . S
C5472 H5461 0.950 . S
C5472 C5470 1.391 . S
C5472 C5473 1.400 . S
C5473 C5467 1.491 . S
C5473 C5472 1.400 . S
C5473 C5474 1.398 . S
C5474 H5462 0.950 . S
C5474 C5473 1.398 . S
C5474 C5475 1.391 . S
C5475 H5463 0.950 . S
C5475 C5471 1.393 . S
C5475 C5474 1.391 . S
H5476 C5484 0.950 . S
H5477 C5489 0.950 . S
H5478 C5486 0.950 . S
H5479 C5488 0.950 . S
H5480 C5490 0.950 . S
H5481 C5492 0.950 . S
H5482 C5494 0.950 . S
H5483 C5495 0.950 . S
C5484 H5476 0.950 . S
C5484 C5485 1.386 . S
C5484 C5486 1.391 . S
C5485 C5484 1.386 . S
C5485 C5489 1.393 . S
C5486 H5478 0.950 . S
C5486 C5484 1.391 . S
C5486 C5487 1.400 . S
C5487 C5486 1.400 . S
C5487 C5488 1.398 . S
C5487 C5493 1.491 . S
C5488 H5479 0.950 . S
C5488 C5487 1.398 . S
C5488 C5489 1.391 . S
C5489 H5477 0.950 . S
C5489 C5485 1.393 . S
C5489 C5488 1.391 . S
C5490 H5480 0.950 . S
C5490 C5491 1.386 . S
C5490 C5492 1.391 . S
C5491 C5490 1.386 . S
C5491 C5495 1.393 . S
C5492 H5481 0.950 . S
C5492 C5490 1.391 . S
C5492 C5493 1.400 . S
C5493 C5487 1.491 . S
C5493 C5492 1.400 . S
C5493 C5494 1.398 . S
C5494 H5482 0.950 . S
C5494 C5493 1.398 . S
C5494 C5495 1.391 . S
C5495 H5483 0.950 . S
C5495 C5491 1.393 . S
C5495 C5494 1.391 . S
H5496 C5504 0.950 . S
H5497 C5509 0.950 . S
H5498 C5506 0.950 . S
H5499 C5508 0.950 . S
H5500 C5510 0.950 . S
H5501 C5512 0.950 . S
H5502 C5514 0.950 . S
H5503 C5515 0.950 . S
C5504 H5496 0.950 . S
C5504 C5505 1.386 . S
C5504 C5506 1.391 . S
C5505 C5504 1.386 . S
C5505 C5509 1.393 . S
C5506 H5498 0.950 . S
C5506 C5504 1.391 . S
C5506 C5507 1.400 . S
C5507 C5506 1.400 . S
C5507 C5508 1.398 . S
C5507 C5513 1.491 . S
C5508 H5499 0.950 . S
C5508 C5507 1.398 . S
C5508 C5509 1.391 . S
C5509 H5497 0.950 . S
C5509 C5505 1.393 . S
C5509 C5508 1.391 . S
C5510 H5500 0.950 . S
C5510 C5511 1.386 . S
C5510 C5512 1.391 . S
C5511 C5510 1.386 . S
C5511 C5515 1.393 . S
C5512 H5501 0.950 . S
C5512 C5510 1.391 . S
C5512 C5513 1.400 . S
C5513 C5507 1.491 . S
C5513 C5512 1.400 . S
C5513 C5514 1.398 . S
C5514 H5502 0.950 . S
C5514 C5513 1.398 . S
C5514 C5515 1.391 . S
C5515 H5503 0.950 . S
C5515 C5511 1.393 . S
C5515 C5514 1.391 . S
H5516 C5524 0.950 . S
H5517 C5529 0.950 . S
H5518 C5526 0.950 . S
H5519 C5528 0.950 . S
H5520 C5530 0.950 . S
H5521 C5532 0.950 . S
H5522 C5534 0.950 . S
H5523 C5535 0.950 . S
C5524 H5516 0.950 . S
C5524 C5525 1.386 . S
C5524 C5526 1.391 . S
C5525 C5524 1.386 . S
C5525 C5529 1.393 . S
C5526 H5518 0.950 . S
C5526 C5524 1.391 . S
C5526 C5527 1.400 . S
C5527 C5526 1.400 . S
C5527 C5528 1.398 . S
C5527 C5533 1.491 . S
C5528 H5519 0.950 . S
C5528 C5527 1.398 . S
C5528 C5529 1.391 . S
C5529 H5517 0.950 . S
C5529 C5525 1.393 . S
C5529 C5528 1.391 . S
C5530 H5520 0.950 . S
C5530 C5531 1.386 . S
C5530 C5532 1.391 . S
C5531 C5530 1.386 . S
C5531 C5535 1.393 . S
C5532 H5521 0.950 . S
C5532 C5530 1.391 . S
C5532 C5533 1.400 . S
C5533 C5527 1.491 . S
C5533 C5532 1.400 . S
C5533 C5534 1.398 . S
C5534 H5522 0.950 . S
C5534 C5533 1.398 . S
C5534 C5535 1.391 . S
C5535 H5523 0.950 . S
C5535 C5531 1.393 . S
C5535 C5534 1.391 . S
H5536 C5544 0.950 . S
H5537 C5549 0.950 . S
H5538 C5546 0.950 . S
H5539 C5548 0.950 . S
H5540 C5550 0.950 . S
H5541 C5552 0.950 . S
H5542 C5554 0.950 . S
H5543 C5555 0.950 . S
C5544 H5536 0.950 . S
C5544 C5545 1.386 . S
C5544 C5546 1.391 . S
C5545 C5544 1.386 . S
C5545 C5549 1.393 . S
C5546 H5538 0.950 . S
C5546 C5544 1.391 . S
C5546 C5547 1.400 . S
C5547 C5546 1.400 . S
C5547 C5548 1.398 . S
C5547 C5553 1.491 . S
C5548 H5539 0.950 . S
C5548 C5547 1.398 . S
C5548 C5549 1.391 . S
C5549 H5537 0.950 . S
C5549 C5545 1.393 . S
C5549 C5548 1.391 . S
C5550 H5540 0.950 . S
C5550 C5551 1.386 . S
C5550 C5552 1.391 . S
C5551 C5550 1.386 . S
C5551 C5555 1.393 . S
C5552 H5541 0.950 . S
C5552 C5550 1.391 . S
C5552 C5553 1.400 . S
C5553 C5547 1.491 . S
C5553 C5552 1.400 . S
C5553 C5554 1.398 . S
C5554 H5542 0.950 . S
C5554 C5553 1.398 . S
C5554 C5555 1.391 . S
C5555 H5543 0.950 . S
C5555 C5551 1.393 . S
C5555 C5554 1.391 . S
H5556 C5564 0.950 . S
H5557 C5569 0.950 . S
H5558 C5566 0.950 . S
H5559 C5568 0.950 . S
H5560 C5570 0.950 . S
H5561 C5572 0.950 . S
H5562 C5574 0.950 . S
H5563 C5575 0.950 . S
C5564 H5556 0.950 . S
C5564 C5565 1.386 . S
C5564 C5566 1.391 . S
C5565 C5564 1.386 . S
C5565 C5569 1.393 . S
C5566 H5558 0.950 . S
C5566 C5564 1.391 . S
C5566 C5567 1.400 . S
C5567 C5566 1.400 . S
C5567 C5568 1.398 . S
C5567 C5573 1.491 . S
C5568 H5559 0.950 . S
C5568 C5567 1.398 . S
C5568 C5569 1.391 . S
C5569 H5557 0.950 . S
C5569 C5565 1.393 . S
C5569 C5568 1.391 . S
C5570 H5560 0.950 . S
C5570 C5571 1.386 . S
C5570 C5572 1.391 . S
C5571 C5570 1.386 . S
C5571 C5575 1.393 . S
C5572 H5561 0.950 . S
C5572 C5570 1.391 . S
C5572 C5573 1.400 . S
C5573 C5567 1.491 . S
C5573 C5572 1.400 . S
C5573 C5574 1.398 . S
C5574 H5562 0.950 . S
C5574 C5573 1.398 . S
C5574 C5575 1.391 . S
C5575 H5563 0.950 . S
C5575 C5571 1.393 . S
C5575 C5574 1.391 . S
H5576 C5584 0.950 . S
H5577 C5589 0.950 . S
H5578 C5586 0.950 . S
H5579 C5588 0.950 . S
H5580 C5590 0.950 . S
H5581 C5592 0.950 . S
H5582 C5594 0.950 . S
H5583 C5595 0.950 . S
C5584 H5576 0.950 . S
C5584 C5585 1.386 . S
C5584 C5586 1.391 . S
C5585 C5584 1.386 . S
C5585 C5589 1.393 . S
C5586 H5578 0.950 . S
C5586 C5584 1.391 . S
C5586 C5587 1.400 . S
C5587 C5586 1.400 . S
C5587 C5588 1.398 . S
C5587 C5593 1.491 . S
C5588 H5579 0.950 . S
C5588 C5587 1.398 . S
C5588 C5589 1.391 . S
C5589 H5577 0.950 . S
C5589 C5585 1.393 . S
C5589 C5588 1.391 . S
C5590 H5580 0.950 . S
C5590 C5591 1.386 . S
C5590 C5592 1.391 . S
C5591 C5590 1.386 . S
C5591 C5595 1.393 . S
C5592 H5581 0.950 . S
C5592 C5590 1.391 . S
C5592 C5593 1.400 . S
C5593 C5587 1.491 . S
C5593 C5592 1.400 . S
C5593 C5594 1.398 . S
C5594 H5582 0.950 . S
C5594 C5593 1.398 . S
C5594 C5595 1.391 . S
C5595 H5583 0.950 . S
C5595 C5591 1.393 . S
C5595 C5594 1.391 . S
H5596 C5604 0.950 . S
H5597 C5609 0.950 . S
H5598 C5606 0.950 . S
H5599 C5608 0.950 . S
H5600 C5610 0.950 . S
H5601 C5612 0.950 . S
H5602 C5614 0.950 . S
H5603 C5615 0.950 . S
C5604 H5596 0.950 . S
C5604 C5605 1.386 . S
C5604 C5606 1.391 . S
C5605 C5604 1.386 . S
C5605 C5609 1.393 . S
C5606 H5598 0.950 . S
C5606 C5604 1.391 . S
C5606 C5607 1.400 . S
C5607 C5606 1.400 . S
C5607 C5608 1.398 . S
C5607 C5613 1.491 . S
C5608 H5599 0.950 . S
C5608 C5607 1.398 . S
C5608 C5609 1.391 . S
C5609 H5597 0.950 . S
C5609 C5605 1.393 . S
C5609 C5608 1.391 . S
C5610 H5600 0.950 . S
C5610 C5611 1.386 . S
C5610 C5612 1.391 . S
C5611 C5610 1.386 . S
C5611 C5615 1.393 . S
C5612 H5601 0.950 . S
C5612 C5610 1.391 . S
C5612 C5613 1.400 . S
C5613 C5607 1.491 . S
C5613 C5612 1.400 . S
C5613 C5614 1.398 . S
C5614 H5602 0.950 . S
C5614 C5613 1.398 . S
C5614 C5615 1.391 . S
C5615 H5603 0.950 . S
C5615 C5611 1.393 . S
C5615 C5614 1.391 . S
H5616 C5624 0.950 . S
H5617 C5629 0.950 . S
H5618 C5626 0.950 . S
H5619 C5628 0.950 . S
H5620 C5630 0.950 . S
H5621 C5632 0.950 . S
H5622 C5634 0.950 . S
H5623 C5635 0.950 . S
C5624 H5616 0.950 . S
C5624 C5625 1.386 . S
C5624 C5626 1.391 . S
C5625 C5624 1.386 . S
C5625 C5629 1.393 . S
C5626 H5618 0.950 . S
C5626 C5624 1.391 . S
C5626 C5627 1.400 . S
C5627 C5626 1.400 . S
C5627 C5628 1.398 . S
C5627 C5633 1.491 . S
C5628 H5619 0.950 . S
C5628 C5627 1.398 . S
C5628 C5629 1.391 . S
C5629 H5617 0.950 . S
C5629 C5625 1.393 . S
C5629 C5628 1.391 . S
C5630 H5620 0.950 . S
C5630 C5631 1.386 . S
C5630 C5632 1.391 . S
C5631 C5630 1.386 . S
C5631 C5635 1.393 . S
C5632 H5621 0.950 . S
C5632 C5630 1.391 . S
C5632 C5633 1.400 . S
C5633 C5627 1.491 . S
C5633 C5632 1.400 . S
C5633 C5634 1.398 . S
C5634 H5622 0.950 . S
C5634 C5633 1.398 . S
C5634 C5635 1.391 . S
C5635 H5623 0.950 . S
C5635 C5631 1.393 . S
C5635 C5634 1.391 . S
H5636 C5644 0.950 . S
H5637 C5649 0.950 . S
H5638 C5646 0.950 . S
H5639 C5648 0.950 . S
H5640 C5650 0.950 . S
H5641 C5652 0.950 . S
H5642 C5654 0.950 . S
H5643 C5655 0.950 . S
C5644 H5636 0.950 . S
C5644 C5645 1.386 . S
C5644 C5646 1.391 . S
C5645 C5644 1.386 . S
C5645 C5649 1.393 . S
C5646 H5638 0.950 . S
C5646 C5644 1.391 . S
C5646 C5647 1.400 . S
C5647 C5646 1.400 . S
C5647 C5648 1.398 . S
C5647 C5653 1.491 . S
C5648 H5639 0.950 . S
C5648 C5647 1.398 . S
C5648 C5649 1.391 . S
C5649 H5637 0.950 . S
C5649 C5645 1.393 . S
C5649 C5648 1.391 . S
C5650 H5640 0.950 . S
C5650 C5651 1.386 . S
C5650 C5652 1.391 . S
C5651 C5650 1.386 . S
C5651 C5655 1.393 . S
C5652 H5641 0.950 . S
C5652 C5650 1.391 . S
C5652 C5653 1.400 . S
C5653 C5647 1.491 . S
C5653 C5652 1.400 . S
C5653 C5654 1.398 . S
C5654 H5642 0.950 . S
C5654 C5653 1.398 . S
C5654 C5655 1.391 . S
C5655 H5643 0.950 . S
C5655 C5651 1.393 . S
C5655 C5654 1.391 . S
H5656 C5664 0.950 . S
H5657 C5669 0.950 . S
H5658 C5666 0.950 . S
H5659 C5668 0.950 . S
H5660 C5670 0.950 . S
H5661 C5672 0.950 . S
H5662 C5674 0.950 . S
H5663 C5675 0.950 . S
C5664 H5656 0.950 . S
C5664 C5665 1.386 . S
C5664 C5666 1.391 . S
C5665 C5664 1.386 . S
C5665 C5669 1.393 . S
C5666 H5658 0.950 . S
C5666 C5664 1.391 . S
C5666 C5667 1.400 . S
C5667 C5666 1.400 . S
C5667 C5668 1.398 . S
C5667 C5673 1.491 . S
C5668 H5659 0.950 . S
C5668 C5667 1.398 . S
C5668 C5669 1.391 . S
C5669 H5657 0.950 . S
C5669 C5665 1.393 . S
C5669 C5668 1.391 . S
C5670 H5660 0.950 . S
C5670 C5671 1.386 . S
C5670 C5672 1.391 . S
C5671 C5670 1.386 . S
C5671 C5675 1.393 . S
C5672 H5661 0.950 . S
C5672 C5670 1.391 . S
C5672 C5673 1.400 . S
C5673 C5667 1.491 . S
C5673 C5672 1.400 . S
C5673 C5674 1.398 . S
C5674 H5662 0.950 . S
C5674 C5673 1.398 . S
C5674 C5675 1.391 . S
C5675 H5663 0.950 . S
C5675 C5671 1.393 . S
C5675 C5674 1.391 . S
H5676 C5684 0.950 . S
H5677 C5689 0.950 . S
H5678 C5686 0.950 . S
H5679 C5688 0.950 . S
H5680 C5690 0.950 . S
H5681 C5692 0.950 . S
H5682 C5694 0.950 . S
H5683 C5695 0.950 . S
C5684 H5676 0.950 . S
C5684 C5685 1.386 . S
C5684 C5686 1.391 . S
C5685 C5684 1.386 . S
C5685 C5689 1.393 . S
C5686 H5678 0.950 . S
C5686 C5684 1.391 . S
C5686 C5687 1.400 . S
C5687 C5686 1.400 . S
C5687 C5688 1.398 . S
C5687 C5693 1.491 . S
C5688 H5679 0.950 . S
C5688 C5687 1.398 . S
C5688 C5689 1.391 . S
C5689 H5677 0.950 . S
C5689 C5685 1.393 . S
C5689 C5688 1.391 . S
C5690 H5680 0.950 . S
C5690 C5691 1.386 . S
C5690 C5692 1.391 . S
C5691 C5690 1.386 . S
C5691 C5695 1.393 . S
C5692 H5681 0.950 . S
C5692 C5690 1.391 . S
C5692 C5693 1.400 . S
C5693 C5687 1.491 . S
C5693 C5692 1.400 . S
C5693 C5694 1.398 . S
C5694 H5682 0.950 . S
C5694 C5693 1.398 . S
C5694 C5695 1.391 . S
C5695 H5683 0.950 . S
C5695 C5691 1.393 . S
C5695 C5694 1.391 . S
H5696 C5704 0.950 . S
H5697 C5709 0.950 . S
H5698 C5706 0.950 . S
H5699 C5708 0.950 . S
H5700 C5710 0.950 . S
H5701 C5712 0.950 . S
H5702 C5714 0.950 . S
H5703 C5715 0.950 . S
C5704 H5696 0.950 . S
C5704 C5705 1.386 . S
C5704 C5706 1.391 . S
C5705 C5704 1.386 . S
C5705 C5709 1.393 . S
C5706 H5698 0.950 . S
C5706 C5704 1.391 . S
C5706 C5707 1.400 . S
C5707 C5706 1.400 . S
C5707 C5708 1.398 . S
C5707 C5713 1.491 . S
C5708 H5699 0.950 . S
C5708 C5707 1.398 . S
C5708 C5709 1.391 . S
C5709 H5697 0.950 . S
C5709 C5705 1.393 . S
C5709 C5708 1.391 . S
C5710 H5700 0.950 . S
C5710 C5711 1.386 . S
C5710 C5712 1.391 . S
C5711 C5710 1.386 . S
C5711 C5715 1.393 . S
C5712 H5701 0.950 . S
C5712 C5710 1.391 . S
C5712 C5713 1.400 . S
C5713 C5707 1.491 . S
C5713 C5712 1.400 . S
C5713 C5714 1.398 . S
C5714 H5702 0.950 . S
C5714 C5713 1.398 . S
C5714 C5715 1.391 . S
C5715 H5703 0.950 . S
C5715 C5711 1.393 . S
C5715 C5714 1.391 . S
H5716 C5724 0.950 . S
H5717 C5729 0.950 . S
H5718 C5726 0.950 . S
H5719 C5728 0.950 . S
H5720 C5730 0.950 . S
H5721 C5732 0.950 . S
H5722 C5734 0.950 . S
H5723 C5735 0.950 . S
C5724 H5716 0.950 . S
C5724 C5725 1.386 . S
C5724 C5726 1.391 . S
C5725 C5724 1.386 . S
C5725 C5729 1.393 . S
C5726 H5718 0.950 . S
C5726 C5724 1.391 . S
C5726 C5727 1.400 . S
C5727 C5726 1.400 . S
C5727 C5728 1.398 . S
C5727 C5733 1.491 . S
C5728 H5719 0.950 . S
C5728 C5727 1.398 . S
C5728 C5729 1.391 . S
C5729 H5717 0.950 . S
C5729 C5725 1.393 . S
C5729 C5728 1.391 . S
C5730 H5720 0.950 . S
C5730 C5731 1.386 . S
C5730 C5732 1.391 . S
C5731 C5730 1.386 . S
C5731 C5735 1.393 . S
C5732 H5721 0.950 . S
C5732 C5730 1.391 . S
C5732 C5733 1.400 . S
C5733 C5727 1.491 . S
C5733 C5732 1.400 . S
C5733 C5734 1.398 . S
C5734 H5722 0.950 . S
C5734 C5733 1.398 . S
C5734 C5735 1.391 . S
C5735 H5723 0.950 . S
C5735 C5731 1.393 . S
C5735 C5734 1.391 . S
H5736 C5744 0.950 . S
H5737 C5749 0.950 . S
H5738 C5746 0.950 . S
H5739 C5748 0.950 . S
H5740 C5750 0.950 . S
H5741 C5752 0.950 . S
H5742 C5754 0.950 . S
H5743 C5755 0.950 . S
C5744 H5736 0.950 . S
C5744 C5745 1.386 . S
C5744 C5746 1.391 . S
C5745 C5744 1.386 . S
C5745 C5749 1.393 . S
C5746 H5738 0.950 . S
C5746 C5744 1.391 . S
C5746 C5747 1.400 . S
C5747 C5746 1.400 . S
C5747 C5748 1.398 . S
C5747 C5753 1.491 . S
C5748 H5739 0.950 . S
C5748 C5747 1.398 . S
C5748 C5749 1.391 . S
C5749 H5737 0.950 . S
C5749 C5745 1.393 . S
C5749 C5748 1.391 . S
C5750 H5740 0.950 . S
C5750 C5751 1.386 . S
C5750 C5752 1.391 . S
C5751 C5750 1.386 . S
C5751 C5755 1.393 . S
C5752 H5741 0.950 . S
C5752 C5750 1.391 . S
C5752 C5753 1.400 . S
C5753 C5747 1.491 . S
C5753 C5752 1.400 . S
C5753 C5754 1.398 . S
C5754 H5742 0.950 . S
C5754 C5753 1.398 . S
C5754 C5755 1.391 . S
C5755 H5743 0.950 . S
C5755 C5751 1.393 . S
C5755 C5754 1.391 . S
H5756 C5764 0.950 . S
H5757 C5769 0.950 . S
H5758 C5766 0.950 . S
H5759 C5768 0.950 . S
H5760 C5770 0.950 . S
H5761 C5772 0.950 . S
H5762 C5774 0.950 . S
H5763 C5775 0.950 . S
C5764 H5756 0.950 . S
C5764 C5765 1.386 . S
C5764 C5766 1.391 . S
C5765 C5764 1.386 . S
C5765 C5769 1.393 . S
C5766 H5758 0.950 . S
C5766 C5764 1.391 . S
C5766 C5767 1.400 . S
C5767 C5766 1.400 . S
C5767 C5768 1.398 . S
C5767 C5773 1.491 . S
C5768 H5759 0.950 . S
C5768 C5767 1.398 . S
C5768 C5769 1.391 . S
C5769 H5757 0.950 . S
C5769 C5765 1.393 . S
C5769 C5768 1.391 . S
C5770 H5760 0.950 . S
C5770 C5771 1.386 . S
C5770 C5772 1.391 . S
C5771 C5770 1.386 . S
C5771 C5775 1.393 . S
C5772 H5761 0.950 . S
C5772 C5770 1.391 . S
C5772 C5773 1.400 . S
C5773 C5767 1.491 . S
C5773 C5772 1.400 . S
C5773 C5774 1.398 . S
C5774 H5762 0.950 . S
C5774 C5773 1.398 . S
C5774 C5775 1.391 . S
C5775 H5763 0.950 . S
C5775 C5771 1.393 . S
C5775 C5774 1.391 . S
H5776 C5784 0.950 . S
H5777 C5789 0.950 . S
H5778 C5786 0.950 . S
H5779 C5788 0.950 . S
H5780 C5790 0.950 . S
H5781 C5792 0.950 . S
H5782 C5794 0.950 . S
H5783 C5795 0.950 . S
C5784 H5776 0.950 . S
C5784 C5785 1.386 . S
C5784 C5786 1.391 . S
C5785 C5784 1.386 . S
C5785 C5789 1.393 . S
C5786 H5778 0.950 . S
C5786 C5784 1.391 . S
C5786 C5787 1.400 . S
C5787 C5786 1.400 . S
C5787 C5788 1.398 . S
C5787 C5793 1.491 . S
C5788 H5779 0.950 . S
C5788 C5787 1.398 . S
C5788 C5789 1.391 . S
C5789 H5777 0.950 . S
C5789 C5785 1.393 . S
C5789 C5788 1.391 . S
C5790 H5780 0.950 . S
C5790 C5791 1.386 . S
C5790 C5792 1.391 . S
C5791 C5790 1.386 . S
C5791 C5795 1.393 . S
C5792 H5781 0.950 . S
C5792 C5790 1.391 . S
C5792 C5793 1.400 . S
C5793 C5787 1.491 . S
C5793 C5792 1.400 . S
C5793 C5794 1.398 . S
C5794 H5782 0.950 . S
C5794 C5793 1.398 . S
C5794 C5795 1.391 . S
C5795 H5783 0.950 . S
C5795 C5791 1.393 . S
C5795 C5794 1.391 . S
H5796 C5804 0.950 . S
H5797 C5809 0.950 . S
H5798 C5806 0.950 . S
H5799 C5808 0.950 . S
H5800 C5810 0.950 . S
H5801 C5812 0.950 . S
H5802 C5814 0.950 . S
H5803 C5815 0.950 . S
C5804 H5796 0.950 . S
C5804 C5805 1.386 . S
C5804 C5806 1.391 . S
C5805 C5804 1.386 . S
C5805 C5809 1.393 . S
C5806 H5798 0.950 . S
C5806 C5804 1.391 . S
C5806 C5807 1.400 . S
C5807 C5806 1.400 . S
C5807 C5808 1.398 . S
C5807 C5813 1.491 . S
C5808 H5799 0.950 . S
C5808 C5807 1.398 . S
C5808 C5809 1.391 . S
C5809 H5797 0.950 . S
C5809 C5805 1.393 . S
C5809 C5808 1.391 . S
C5810 H5800 0.950 . S
C5810 C5811 1.386 . S
C5810 C5812 1.391 . S
C5811 C5810 1.386 . S
C5811 C5815 1.393 . S
C5812 H5801 0.950 . S
C5812 C5810 1.391 . S
C5812 C5813 1.400 . S
C5813 C5807 1.491 . S
C5813 C5812 1.400 . S
C5813 C5814 1.398 . S
C5814 H5802 0.950 . S
C5814 C5813 1.398 . S
C5814 C5815 1.391 . S
C5815 H5803 0.950 . S
C5815 C5811 1.393 . S
C5815 C5814 1.391 . S
H5816 C5824 0.950 . S
H5817 C5829 0.950 . S
H5818 C5826 0.950 . S
H5819 C5828 0.950 . S
H5820 C5830 0.950 . S
H5821 C5832 0.950 . S
H5822 C5834 0.950 . S
H5823 C5835 0.950 . S
C5824 H5816 0.950 . S
C5824 C5825 1.386 . S
C5824 C5826 1.391 . S
C5825 C5824 1.386 . S
C5825 C5829 1.393 . S
C5826 H5818 0.950 . S
C5826 C5824 1.391 . S
C5826 C5827 1.400 . S
C5827 C5826 1.400 . S
C5827 C5828 1.398 . S
C5827 C5833 1.491 . S
C5828 H5819 0.950 . S
C5828 C5827 1.398 . S
C5828 C5829 1.391 . S
C5829 H5817 0.950 . S
C5829 C5825 1.393 . S
C5829 C5828 1.391 . S
C5830 H5820 0.950 . S
C5830 C5831 1.386 . S
C5830 C5832 1.391 . S
C5831 C5830 1.386 . S
C5831 C5835 1.393 . S
C5832 H5821 0.950 . S
C5832 C5830 1.391 . S
C5832 C5833 1.400 . S
C5833 C5827 1.491 . S
C5833 C5832 1.400 . S
C5833 C5834 1.398 . S
C5834 H5822 0.950 . S
C5834 C5833 1.398 . S
C5834 C5835 1.391 . S
C5835 H5823 0.950 . S
C5835 C5831 1.393 . S
C5835 C5834 1.391 . S
H5836 C5844 0.950 . S
H5837 C5849 0.950 . S
H5838 C5846 0.950 . S
H5839 C5848 0.950 . S
H5840 C5850 0.950 . S
H5841 C5852 0.950 . S
H5842 C5854 0.950 . S
H5843 C5855 0.950 . S
C5844 H5836 0.950 . S
C5844 C5845 1.386 . S
C5844 C5846 1.391 . S
C5845 C5844 1.386 . S
C5845 C5849 1.393 . S
C5846 H5838 0.950 . S
C5846 C5844 1.391 . S
C5846 C5847 1.400 . S
C5847 C5846 1.400 . S
C5847 C5848 1.398 . S
C5847 C5853 1.491 . S
C5848 H5839 0.950 . S
C5848 C5847 1.398 . S
C5848 C5849 1.391 . S
C5849 H5837 0.950 . S
C5849 C5845 1.393 . S
C5849 C5848 1.391 . S
C5850 H5840 0.950 . S
C5850 C5851 1.386 . S
C5850 C5852 1.391 . S
C5851 C5850 1.386 . S
C5851 C5855 1.393 . S
C5852 H5841 0.950 . S
C5852 C5850 1.391 . S
C5852 C5853 1.400 . S
C5853 C5847 1.491 . S
C5853 C5852 1.400 . S
C5853 C5854 1.398 . S
C5854 H5842 0.950 . S
C5854 C5853 1.398 . S
C5854 C5855 1.391 . S
C5855 H5843 0.950 . S
C5855 C5851 1.393 . S
C5855 C5854 1.391 . S
H5856 C5864 0.950 . S
H5857 C5869 0.950 . S
H5858 C5866 0.950 . S
H5859 C5868 0.950 . S
H5860 C5870 0.950 . S
H5861 C5872 0.950 . S
H5862 C5874 0.950 . S
H5863 C5875 0.950 . S
C5864 H5856 0.950 . S
C5864 C5865 1.386 . S
C5864 C5866 1.391 . S
C5865 C5864 1.386 . S
C5865 C5869 1.393 . S
C5866 H5858 0.950 . S
C5866 C5864 1.391 . S
C5866 C5867 1.400 . S
C5867 C5866 1.400 . S
C5867 C5868 1.398 . S
C5867 C5873 1.491 . S
C5868 H5859 0.950 . S
C5868 C5867 1.398 . S
C5868 C5869 1.391 . S
C5869 H5857 0.950 . S
C5869 C5865 1.393 . S
C5869 C5868 1.391 . S
C5870 H5860 0.950 . S
C5870 C5871 1.386 . S
C5870 C5872 1.391 . S
C5871 C5870 1.386 . S
C5871 C5875 1.393 . S
C5872 H5861 0.950 . S
C5872 C5870 1.391 . S
C5872 C5873 1.400 . S
C5873 C5867 1.491 . S
C5873 C5872 1.400 . S
C5873 C5874 1.398 . S
C5874 H5862 0.950 . S
C5874 C5873 1.398 . S
C5874 C5875 1.391 . S
C5875 H5863 0.950 . S
C5875 C5871 1.393 . S
C5875 C5874 1.391 . S
H5876 C5884 0.950 . S
H5877 C5889 0.950 . S
H5878 C5886 0.950 . S
H5879 C5888 0.950 . S
H5880 C5890 0.950 . S
H5881 C5892 0.950 . S
H5882 C5894 0.950 . S
H5883 C5895 0.950 . S
C5884 H5876 0.950 . S
C5884 C5885 1.386 . S
C5884 C5886 1.391 . S
C5885 C5884 1.386 . S
C5885 C5889 1.393 . S
C5886 H5878 0.950 . S
C5886 C5884 1.391 . S
C5886 C5887 1.400 . S
C5887 C5886 1.400 . S
C5887 C5888 1.398 . S
C5887 C5893 1.491 . S
C5888 H5879 0.950 . S
C5888 C5887 1.398 . S
C5888 C5889 1.391 . S
C5889 H5877 0.950 . S
C5889 C5885 1.393 . S
C5889 C5888 1.391 . S
C5890 H5880 0.950 . S
C5890 C5891 1.386 . S
C5890 C5892 1.391 . S
C5891 C5890 1.386 . S
C5891 C5895 1.393 . S
C5892 H5881 0.950 . S
C5892 C5890 1.391 . S
C5892 C5893 1.400 . S
C5893 C5887 1.491 . S
C5893 C5892 1.400 . S
C5893 C5894 1.398 . S
C5894 H5882 0.950 . S
C5894 C5893 1.398 . S
C5894 C5895 1.391 . S
C5895 H5883 0.950 . S
C5895 C5891 1.393 . S
C5895 C5894 1.391 . S
H5896 C5904 0.950 . S
H5897 C5909 0.950 . S
H5898 C5906 0.950 . S
H5899 C5908 0.950 . S
H5900 C5910 0.950 . S
H5901 C5912 0.950 . S
H5902 C5914 0.950 . S
H5903 C5915 0.950 . S
C5904 H5896 0.950 . S
C5904 C5905 1.386 . S
C5904 C5906 1.391 . S
C5905 C5904 1.386 . S
C5905 C5909 1.393 . S
C5906 H5898 0.950 . S
C5906 C5904 1.391 . S
C5906 C5907 1.400 . S
C5907 C5906 1.400 . S
C5907 C5908 1.398 . S
C5907 C5913 1.491 . S
C5908 H5899 0.950 . S
C5908 C5907 1.398 . S
C5908 C5909 1.391 . S
C5909 H5897 0.950 . S
C5909 C5905 1.393 . S
C5909 C5908 1.391 . S
C5910 H5900 0.950 . S
C5910 C5911 1.386 . S
C5910 C5912 1.391 . S
C5911 C5910 1.386 . S
C5911 C5915 1.393 . S
C5912 H5901 0.950 . S
C5912 C5910 1.391 . S
C5912 C5913 1.400 . S
C5913 C5907 1.491 . S
C5913 C5912 1.400 . S
C5913 C5914 1.398 . S
C5914 H5902 0.950 . S
C5914 C5913 1.398 . S
C5914 C5915 1.391 . S
C5915 H5903 0.950 . S
C5915 C5911 1.393 . S
C5915 C5914 1.391 . S
H5916 C5924 0.950 . S
H5917 C5929 0.950 . S
H5918 C5926 0.950 . S
H5919 C5928 0.950 . S
H5920 C5930 0.950 . S
H5921 C5932 0.950 . S
H5922 C5934 0.950 . S
H5923 C5935 0.950 . S
C5924 H5916 0.950 . S
C5924 C5925 1.386 . S
C5924 C5926 1.391 . S
C5925 C5924 1.386 . S
C5925 C5929 1.393 . S
C5926 H5918 0.950 . S
C5926 C5924 1.391 . S
C5926 C5927 1.400 . S
C5927 C5926 1.400 . S
C5927 C5928 1.398 . S
C5927 C5933 1.491 . S
C5928 H5919 0.950 . S
C5928 C5927 1.398 . S
C5928 C5929 1.391 . S
C5929 H5917 0.950 . S
C5929 C5925 1.393 . S
C5929 C5928 1.391 . S
C5930 H5920 0.950 . S
C5930 C5931 1.386 . S
C5930 C5932 1.391 . S
C5931 C5930 1.386 . S
C5931 C5935 1.393 . S
C5932 H5921 0.950 . S
C5932 C5930 1.391 . S
C5932 C5933 1.400 . S
C5933 C5927 1.491 . S
C5933 C5932 1.400 . S
C5933 C5934 1.398 . S
C5934 H5922 0.950 . S
C5934 C5933 1.398 . S
C5934 C5935 1.391 . S
C5935 H5923 0.950 . S
C5935 C5931 1.393 . S
C5935 C5934 1.391 . S
C4031 C1309 1.362 . S
C4025 C21 1.617 . S
C4051 C1449 1.248 . S
C4045 C42 1.561 . S
C4065 C82 1.530 . S
C4071 C1509 1.159 . S
C4091 C1633 1.031 . S
C4085 C135 1.680 . S
C4105 C175 1.362 . S
C4111 C1623 1.012 . S
C4125 C221 1.671 . S
C4131 C1335 1.235 . S
C4145 C255 1.543 . S
C4151 C1423 1.255 . S
C4171 C1519 0.922 . S
C4165 C301 1.594 . S
C4191 C1765 1.376 . S
C4185 C15 1.609 . S
C4205 C55 1.483 . S
C4211 C1879 1.205 . S
C4225 C101 1.677 . S
C4231 C2019 1.311 . S
C4251 C2107 1.268 . S
C4245 C141 1.511 . S
C4265 C162 1.524 . S
C4271 C2203 0.910 . S
C4291 C2307 1.122 . S
C4285 C215 1.512 . S
C4305 C261 1.518 . S
C4311 C2449 1.323 . S
C4331 C2535 1.109 . S
C4325 C282 1.441 . S
C4345 C2 1.730 . S
C4351 C2133 1.342 . S
C4365 C181 1.489 . S
C4371 C2317 0.931 . S
C4391 C2475 1.232 . S
C4385 C202 1.651 . S
C4405 C242 1.622 . S
C4411 C2545 0.978 . S
C4431 C2193 1.100 . S
C4425 C295 1.461 . S
C4451 C1905 1.242 . S
C4445 C95 1.647 . S
C4465 C122 1.495 . S
C4471 C1993 1.302 . S
C4491 C1791 1.160 . S
C4485 C61 1.532 . S
C4511 C2677 1.326 . S
C4505 C341 1.578 . S
C4525 C362 1.528 . S
C4531 C2773 0.865 . S
C4545 C402 1.511 . S
C4551 C2877 1.190 . S
C4571 C3001 0.928 . S
C4565 C455 1.573 . S
C4585 C495 1.390 . S
C4591 C2991 1.034 . S
C4605 C541 1.694 . S
C4611 C2703 1.267 . S
C4625 C575 1.438 . S
C4631 C2763 1.146 . S
C4645 C621 1.616 . S
C4651 C2887 1.017 . S
C4671 C2247 1.290 . S
C4665 C335 1.641 . S
C4685 C375 1.420 . S
C4691 C3105 1.106 . S
C4711 C2421 1.136 . S
C4705 C421 1.528 . S
C4725 C461 1.431 . S
C4731 C3219 1.134 . S
C4745 C482 1.491 . S
C4751 C1737 1.086 . S
C4771 C3361 1.319 . S
C4765 C535 1.542 . S
C4785 C581 1.557 . S
C4791 C1975 0.952 . S
C4811 C3447 1.167 . S
C4805 C602 1.460 . S
C4825 C322 1.694 . S
C4831 C3229 1.020 . S
C4851 C3387 1.187 . S
C4845 C501 1.554 . S
C4865 C522 1.573 . S
C4871 C1965 1.167 . S
C4891 C3457 1.010 . S
C4885 C562 1.581 . S
C4905 C615 1.556 . S
C4911 C1747 0.859 . S
C4925 C415 1.609 . S
C4931 C3115 0.909 . S
C4945 C442 1.522 . S
C4951 C2431 0.885 . S
C4965 C381 1.420 . S
C4971 C2221 1.234 . S
C4985 C661 1.548 . S
C4991 C2905 1.310 . S
C5011 C3045 1.158 . S
C5005 C682 1.529 . S
C5025 C722 1.528 . S
C5031 C2649 1.154 . S
C5045 C775 1.720 . S
C5051 C2817 1.302 . S
C5065 C815 1.400 . S
C5071 C2791 1.128 . S
C5085 C861 1.639 . S
C5091 C2931 1.198 . S
C5111 C3019 1.224 . S
C5105 C895 1.502 . S
C5125 C941 1.639 . S
C5131 C2659 0.991 . S
C5151 C3561 1.111 . S
C5145 C655 1.511 . S
C5165 C695 1.453 . S
C5171 C2335 1.180 . S
C5191 C3729 1.315 . S
C5185 C741 1.687 . S
C5205 C781 1.543 . S
C5211 C2563 1.341 . S
C5225 C802 1.556 . S
C5231 C3799 0.940 . S
C5245 C855 1.495 . S
C5251 C1851 1.107 . S
C5271 C3913 0.906 . S
C5265 C901 1.551 . S
C5285 C922 1.499 . S
C5291 C2079 1.148 . S
C5311 C2589 1.254 . S
C5305 C642 1.662 . S
C5331 C1861 0.939 . S
C5325 C821 1.516 . S
C5345 C842 1.570 . S
C5351 C3903 1.176 . S
C5365 C882 1.613 . S
C5371 C2089 0.978 . S
C5391 C3789 1.149 . S
C5385 C935 1.505 . S
C5411 C2361 1.201 . S
C5405 C735 1.641 . S
C5431 C3703 1.362 . S
C5425 C762 1.536 . S
C5451 C3571 0.891 . S
C5445 C701 1.539 . S
C5465 C981 1.558 . S
C5471 C1537 1.312 . S
C5485 C1002 1.551 . S
C5491 C1677 1.230 . S
C5511 C1281 1.195 . S
C5505 C1042 1.521 . S
C5531 C1405 0.967 . S
C5525 C1095 1.656 . S
C5551 C1395 1.053 . S
C5545 C1135 1.428 . S
C5571 C1563 1.247 . S
C5565 C1181 1.682 . S
C5591 C1651 1.218 . S
C5585 C1215 1.489 . S
C5605 C1261 1.692 . S
C5611 C1291 1.038 . S
C5625 C975 1.637 . S
C5631 C3843 1.298 . S
C5651 C3333 1.122 . S
C5645 C1015 1.462 . S
C5671 C3957 1.239 . S
C5665 C1061 1.619 . S
C5691 C3475 1.248 . S
C5685 C1101 1.511 . S
C5705 C1122 1.482 . S
C5711 C3589 1.204 . S
C5731 C3133 1.273 . S
C5725 C1175 1.542 . S
C5751 C3685 0.934 . S
C5745 C1221 1.595 . S
C5765 C1242 1.548 . S
C5771 C3247 1.276 . S
C5791 C3501 1.233 . S
C5785 C962 1.653 . S
C5811 C3159 1.185 . S
C5805 C1141 1.575 . S
C5831 C3675 1.197 . S
C5825 C1162 1.570 . S
C5845 C1202 1.611 . S
C5851 C3273 1.274 . S
C5865 C1255 1.679 . S
C5871 C3615 1.335 . S
C5885 C1055 1.597 . S
C5891 C3343 0.937 . S
C5905 C1082 1.535 . S
C5911 C3931 1.306 . S
C5931 C3817 1.248 . S
C5925 C1021 1.452 . S
