# Generated by pormake.
# Topology zzz, (3,6)-cn, num edge types: 1
# Building blocks:
#     Node 0, Type 0, BuildingBlock: BETDAH_clean_linker_0, # of connection points: 3
#     Node 1, Type 0, BuildingBlock: BETDAH_clean_linker_0, # of connection points: 3
#     Node 2, Type 0, BuildingBlock: BETDAH_clean_linker_0, # of connection points: 3
#     Node 3, Type 0, BuildingBlock: BETDAH_clean_linker_0, # of connection points: 3
#     Node 4, Type 0, BuildingBlock: BETDAH_clean_linker_0, # of connection points: 3
#     Node 5, Type 0, BuildingBlock: BETDAH_clean_linker_0, # of connection points: 3
#     Node 6, Type 0, BuildingBlock: BETDAH_clean_linker_0, # of connection points: 3
#     Node 7, Type 0, BuildingBlock: BETDAH_clean_linker_0, # of connection points: 3
#     Node 8, Type 1, BuildingBlock: KUMJIN_clean_sbu_1, # of connection points: 6
#     Node 9, Type 1, BuildingBlock: KUMJIN_clean_sbu_1, # of connection points: 6
#     Node 10, Type 1, BuildingBlock: KUMJIN_clean_sbu_1, # of connection points: 6
#     Node 11, Type 1, BuildingBlock: KUMJIN_clean_sbu_1, # of connection points: 6
#     Edge 12, Type (0, 1), BuildingBlock: MIFKUJ_clean_linker_0, # of connection points: 2
#     Edge 13, Type (0, 1), BuildingBlock: MIFKUJ_clean_linker_0, # of connection points: 2
#     Edge 14, Type (0, 1), BuildingBlock: MIFKUJ_clean_linker_0, # of connection points: 2
#     Edge 15, Type (0, 1), BuildingBlock: MIFKUJ_clean_linker_0, # of connection points: 2
#     Edge 16, Type (0, 1), BuildingBlock: MIFKUJ_clean_linker_0, # of connection points: 2
#     Edge 17, Type (0, 1), BuildingBlock: MIFKUJ_clean_linker_0, # of connection points: 2
#     Edge 18, Type (0, 1), BuildingBlock: MIFKUJ_clean_linker_0, # of connection points: 2
#     Edge 19, Type (0, 1), BuildingBlock: MIFKUJ_clean_linker_0, # of connection points: 2
#     Edge 20, Type (0, 1), BuildingBlock: MIFKUJ_clean_linker_0, # of connection points: 2
#     Edge 21, Type (0, 1), BuildingBlock: MIFKUJ_clean_linker_0, # of connection points: 2
#     Edge 22, Type (0, 1), BuildingBlock: MIFKUJ_clean_linker_0, # of connection points: 2
#     Edge 23, Type (0, 1), BuildingBlock: MIFKUJ_clean_linker_0, # of connection points: 2
#     Edge 24, Type (0, 1), BuildingBlock: MIFKUJ_clean_linker_0, # of connection points: 2
#     Edge 25, Type (0, 1), BuildingBlock: MIFKUJ_clean_linker_0, # of connection points: 2
#     Edge 26, Type (0, 1), BuildingBlock: MIFKUJ_clean_linker_0, # of connection points: 2
#     Edge 27, Type (0, 1), BuildingBlock: MIFKUJ_clean_linker_0, # of connection points: 2
#     Edge 28, Type (0, 1), BuildingBlock: MIFKUJ_clean_linker_0, # of connection points: 2
#     Edge 29, Type (0, 1), BuildingBlock: MIFKUJ_clean_linker_0, # of connection points: 2
#     Edge 30, Type (0, 1), BuildingBlock: MIFKUJ_clean_linker_0, # of connection points: 2
#     Edge 31, Type (0, 1), BuildingBlock: MIFKUJ_clean_linker_0, # of connection points: 2
#     Edge 32, Type (0, 1), BuildingBlock: MIFKUJ_clean_linker_0, # of connection points: 2
#     Edge 33, Type (0, 1), BuildingBlock: MIFKUJ_clean_linker_0, # of connection points: 2
#     Edge 34, Type (0, 1), BuildingBlock: MIFKUJ_clean_linker_0, # of connection points: 2
#     Edge 35, Type (0, 1), BuildingBlock: MIFKUJ_clean_linker_0, # of connection points: 2
# Relax obj value: 0.147
# Max RMSD: 0.090
# Mean RMSD: 0.076
data_MOF--net-zzz--node1-KUMJIN_clean_sbu_1--node2-BETDAH_clean_linker_0--edge1-MIFKUJ_clean_linker_0
_symmetry_space_group_name_H-M    P1
_symmetry_Int_Tables_number       1
_symmetry_cell_setting            triclinic
loop_
_symmetry_equiv_pos_as_xyz
'x, y, z'
_cell_length_a     65.374143
_cell_length_b     65.26139
_cell_length_c     20.516047
_cell_angle_alpha  89.827242
_cell_angle_beta   90.062145
_cell_angle_gamma 90.326148
loop_
_atom_site_label
_atom_site_type_symbol
_atom_site_fract_x
_atom_site_fract_y
_atom_site_fract_z
_atom_type_partial_charge
H0 H 0.81221 0.56531 0.15172 0.0
H1 H 0.75126 0.5524 0.0894 0.0
H2 H 0.77153 0.53039 0.27635 0.0
C3 C 0.79755 0.55832 0.16234 0.0
C4 C 0.79457 0.54712 0.2206 0.0
C5 C 0.7823 0.55955 0.11444 0.0
C6 C 0.76288 0.55142 0.12697 0.0
C7 C 0.75867 0.54153 0.18633 0.0
C8 C 0.77465 0.53908 0.23246 0.0
N9 N 0.73881 0.53319 0.1993 0.0
C10 C 0.72229 0.53421 0.15574 0.0
H11 H 0.96707 0.8096 0.20662 0.0
H12 H 0.97608 0.7487 0.13514 0.0
H13 H 1.00745 0.76892 0.30889 0.0
C14 C 0.97344 0.79444 0.2132 0.0
C15 C 0.98697 0.7911 0.26526 0.0
C16 C 0.96963 0.77939 0.16582 0.0
C17 C 0.97901 0.76024 0.17183 0.0
C18 C 0.99267 0.75624 0.22325 0.0
C19 C 0.99672 0.77182 0.26972 0.0
N20 N 1.0029 0.73699 0.22787 0.0
C21 C 1.00126 0.72129 0.18149 0.0
H22 H 0.71514 0.98831 0.16635 0.0
H23 H 0.77515 0.99377 0.08262 0.0
H24 H 0.76464 0.0123 0.2814 0.0
C25 C 0.73125 0.99198 0.17155 0.0
C26 C 0.73824 0.99999 0.23093 0.0
C27 C 0.74437 0.98978 0.11777 0.0
C28 C 0.76502 0.99551 0.12392 0.0
C29 C 0.77251 1.00357 0.18292 0.0
C30 C 0.75897 1.00596 0.23606 0.0
N31 N 0.79342 1.00958 0.19011 0.0
C32 C 0.80839 1.00819 0.14154 0.0
H33 H 0.56036 0.73461 0.20807 0.0
H34 H 0.55338 0.79563 0.13333 0.0
H35 H 0.52877 0.77938 0.322 0.0
C36 C 0.55575 0.75037 0.21524 0.0
C37 C 0.54515 0.75524 0.27235 0.0
C38 C 0.55856 0.76466 0.16462 0.0
C39 C 0.55128 0.78466 0.17247 0.0
C40 C 0.54057 0.79023 0.22911 0.0
C41 C 0.53734 0.77533 0.2788 0.0
N42 N 0.53242 0.81041 0.23605 0.0
C43 C 0.53362 0.82589 0.18842 0.0
H44 H 0.22197 0.48869 0.10382 0.0
H45 H 0.28326 0.49345 0.17755 0.0
H46 H 0.27106 0.50468 0.97371 0.0
C47 C 0.23816 0.4911 0.09494 0.0
C48 C 0.24471 0.4963 0.03194 0.0
C49 C 0.25189 0.49005 0.14744 0.0
C50 C 0.27271 0.49422 0.13688 0.0
C51 C 0.27982 0.49938 0.07414 0.0
C52 C 0.26568 0.50059 0.02197 0.0
N53 N 0.30096 0.5035 0.06209 0.0
C54 C 0.31648 0.50291 0.10917 0.0
H55 H 0.03966 0.22679 0.09939 0.0
H56 H 0.03609 0.28767 0.17639 0.0
H57 H 0.0288 0.27751 0.96983 0.0
C58 C 0.03819 0.24313 0.09112 0.0
C59 C 0.03474 0.25033 0.02756 0.0
C60 C 0.03871 0.25644 0.14473 0.0
C61 C 0.03571 0.27748 0.13488 0.0
C62 C 0.03221 0.28528 0.07188 0.0
C63 C 0.03156 0.27158 0.01839 0.0
N64 N 0.02923 0.30671 0.06102 0.0
C65 C 0.02954 0.32181 0.10954 0.0
H66 H 0.30728 0.03071 0.10828 0.0
H67 H 0.24455 0.03122 0.16859 0.0
H68 H 0.26063 0.04893 0.97207 0.0
C69 C 0.29139 0.03396 0.09718 0.0
C70 C 0.28603 0.04054 0.03433 0.0
C71 C 0.27656 0.03058 0.14534 0.0
C72 C 0.25589 0.03392 0.13102 0.0
C73 C 0.24999 0.04079 0.0687 0.0
C74 C 0.26513 0.04378 0.02022 0.0
N75 N 0.22907 0.0448 0.05358 0.0
C76 C 0.21298 0.04348 0.09844 0.0
H77 H 0.49761 0.31787 0.11253 0.0
H78 H 0.49828 0.25569 0.18248 0.0
H79 H 0.50906 0.26856 0.97937 0.0
C80 C 0.49879 0.30159 0.10319 0.0
C81 C 0.50267 0.29507 0.03918 0.0
C82 C 0.49729 0.2876 0.15539 0.0
C83 C 0.49981 0.2666 0.14295 0.0
C84 C 0.50435 0.25957 0.07996 0.0
C85 C 0.50578 0.27392 0.02815 0.0
N86 N 0.50759 0.23827 0.06767 0.0
C87 C 0.50729 0.22278 0.11537 0.0
Eu88 Eu 0.98954 0.036 0.56153 0.0
C89 C 0.07705 0.02733 0.708 0.0
N90 N 0.06518 0.01431 0.67297 0.0
C91 C 0.09486 1.00106 0.6194 0.0
C92 C 0.09838 0.02829 0.69845 0.0
C93 C 0.07377 1.00065 0.6309 0.0
C94 C 0.1072 0.01515 0.65265 0.0
C95 C 0.07977 0.05192 0.79579 0.0
C96 C 0.0679 0.03891 0.75592 0.0
C97 C 0.1009 0.05374 0.78448 0.0
C98 C 0.1102 0.04191 0.73595 0.0
Eu99 Eu 0.02946 0.01634 0.68945 0.0
N100 N 0.04755 0.03649 0.76609 0.0
C101 C 0.07011 0.06222 0.8469 0.0
C102 C 0.0383 0.04545 0.81824 0.0
C103 C 0.04934 0.05872 0.85878 0.0
H104 H 0.06422 0.9899 0.60472 0.0
H105 H 0.04182 0.06621 0.89912 0.0
H106 H 0.95258 1.00175 0.53558 0.0
H107 H 0.02304 0.09153 0.39166 0.0
H108 H 0.02226 0.04265 0.82777 0.0
H109 H 0.07866 0.07244 0.8785 0.0
H110 H 0.0148 0.07681 0.49934 0.0
H111 H 0.10157 0.9906 0.58476 0.0
H112 H 0.11026 0.06383 0.81411 0.0
H113 H 0.12659 0.04306 0.72887 0.0
H114 H 0.93504 0.98514 0.44226 0.0
H115 H 0.12353 0.01543 0.64372 0.0
H116 H 0.00957 0.07519 0.29154 0.0
N117 N 0.97126 0.02062 0.47554 0.0
C118 C 0.97566 0.02713 0.41432 0.0
C119 C 0.94652 0.99685 0.43369 0.0
C120 C 0.96598 0.01829 0.35971 0.0
C121 C 0.95647 1.00621 0.48628 0.0
C122 C 0.95147 1.00274 0.37003 0.0
N123 N 0.99713 0.05219 0.46082 0.0
C124 C 1.00874 0.06962 0.45615 0.0
C125 C 0.99324 0.05138 0.34409 0.0
C126 C 0.98902 0.04345 0.40669 0.0
C127 C 1.00592 0.06866 0.33876 0.0
C128 C 0.01351 0.07795 0.39512 0.0
H129 H 0.94369 0.99555 0.32938 0.0
H130 H 0.96352 0.01893 0.25432 0.0
H131 H 0.98746 0.0479 0.24063 0.0
O132 O 0.97444 0.05482 0.63478 0.0
O133 O 0.99164 1.00123 0.57005 0.0
O134 O 0.02555 0.99725 0.59634 0.0
O135 O 0.96067 0.05131 0.53955 0.0
O136 O 0.0213 0.03364 0.51621 0.0
O137 O 0.04509 0.02995 0.60008 0.0
O138 O 0.01608 0.98607 0.70604 0.0
O139 O 0.01349 0.04651 0.70752 0.0
O140 O 0.0124 0.05905 0.60463 0.0
O141 O 0.03916 0.99782 0.77237 0.0
O142 O 0.99785 0.02578 0.72295 0.0
O143 O 0.97947 0.01296 0.63874 0.0
C144 C 1.00853 0.99028 0.56948 0.0
C145 C 0.95501 0.08228 0.59483 0.0
C146 C 0.96596 0.11789 0.58006 0.0
C147 C 0.94534 0.12389 0.58648 0.0
C148 C 0.93474 0.08862 0.60176 0.0
C149 C 0.92997 0.10938 0.59797 0.0
C150 C 0.97056 0.09686 0.58529 0.0
C151 C 0.04025 0.03332 0.53854 0.0
C152 C 0.9597 0.06037 0.59599 0.0
C153 C 0.97067 0.02562 0.29697 0.0
C154 C 0.9843 0.04213 0.28918 0.0
C155 C 0.01494 0.0621 0.66738 0.0
C156 C 0.01213 0.97793 0.81665 0.0
C157 C 0.99001 0.95239 0.86811 0.0
C158 C 0.98616 0.96627 0.91903 0.0
C159 C 1.0082 0.99154 0.86792 0.0
C160 C 1.00273 0.95863 0.81641 0.0
C161 C 0.99513 0.98575 0.91855 0.0
C162 C 0.98103 0.01712 0.70113 0.0
C163 C 0.02537 0.98369 0.76173 0.0
H164 H 0.94078 0.13969 0.58063 0.0
H165 H 0.9226 0.0775 0.60939 0.0
H166 H 0.91423 0.11421 0.60253 0.0
H167 H 0.98612 0.09156 0.58119 0.0
H168 H 0.97671 0.96195 0.96017 0.0
H169 H 0.01506 1.00667 0.86865 0.0
H170 H 1.00545 0.94848 0.77563 0.0
H171 H 0.99212 0.9963 0.95796 0.0
Eu172 Eu 0.52583 0.0442 0.71511 0.0
C173 C 0.526 0.95805 0.63083 0.0
N174 N 0.53097 0.97488 0.5947 0.0
C175 C 0.56262 0.95912 0.56383 0.0
C176 C 0.53972 0.94155 0.63757 0.0
C177 C 0.54831 0.97485 0.55757 0.0
C178 C 0.55852 0.94261 0.60521 0.0
C179 C 0.50028 0.93882 0.69116 0.0
C180 C 0.50657 0.95666 0.65766 0.0
C181 C 0.51422 0.92279 0.70045 0.0
C182 C 0.53394 0.9242 0.67405 0.0
Eu183 Eu 0.50609 1.00142 0.59213 0.0
N184 N 0.49363 0.97268 0.64986 0.0
C185 C 0.4801 0.93758 0.71372 0.0
C186 C 0.4737 0.97127 0.66919 0.0
C187 C 0.46667 0.95376 0.70187 0.0
H188 H 0.551 0.98657 0.52155 0.0
H189 H 0.45094 0.95278 0.71801 0.0
H190 H 0.48413 0.07249 0.74055 0.0
H191 H 0.60348 0.07111 0.66209 0.0
H192 H 0.46333 0.98376 0.65964 0.0
H193 H 0.47466 0.92409 0.73949 0.0
H194 H 0.57728 0.04768 0.70728 0.0
H195 H 0.57658 0.95953 0.53554 0.0
H196 H 0.50978 0.90908 0.72694 0.0
H197 H 0.54437 0.91151 0.68031 0.0
H198 H 0.47205 0.10775 0.71893 0.0
H199 H 0.5695 0.93029 0.60923 0.0
H200 H 0.59318 0.1048 0.61766 0.0
N201 N 0.51317 0.0775 0.69678 0.0
C202 C 0.52638 0.09129 0.67021 0.0
C203 C 0.4873 0.10328 0.7045 0.0
C204 C 0.52019 0.11155 0.65695 0.0
C205 C 0.49413 0.08334 0.7165 0.0
C206 C 0.50028 0.11736 0.67362 0.0
N207 N 0.55232 0.06643 0.67946 0.0
C208 C 0.57257 0.06169 0.68393 0.0
C209 C 0.56096 0.09983 0.63695 0.0
C210 C 0.5465 0.08546 0.66027 0.0
C211 C 0.58159 0.0942 0.63506 0.0
C212 C 0.58746 0.07519 0.65998 0.0
H213 H 0.49495 0.13279 0.66433 0.0
H214 H 0.52967 0.14101 0.61803 0.0
H215 H 0.56542 0.13079 0.60084 0.0
O216 O 0.54059 0.06085 0.79429 0.0
O217 O 0.50615 0.05367 0.62763 0.0
O218 O 0.51519 0.03193 0.54546 0.0
O219 O 0.51689 0.03883 0.81645 0.0
O220 O 0.55047 0.02512 0.66487 0.0
O221 O 0.53638 0.017 0.5652 0.0
O222 O 0.47838 1.00179 0.53244 0.0
O223 O 0.5066 0.99692 0.7026 0.0
O224 O 0.53689 1.01145 0.7277 0.0
O225 O 0.50359 0.9826 0.50456 0.0
O226 O 0.48023 0.02056 0.6345 0.0
O227 O 0.49282 0.03395 0.73166 0.0
C228 C 0.51034 0.05039 0.56585 0.0
C229 C 0.54535 0.04013 0.88557 0.0
C230 C 0.57506 0.01844 0.90428 0.0
C231 C 0.57302 0.02192 0.97167 0.0
C232 C 0.5433 0.04312 0.95269 0.0
C233 C 0.55715 0.03403 0.99559 0.0
C234 C 0.56108 0.02769 0.86165 0.0
C235 C 0.55238 0.02132 0.60213 0.0
C236 C 0.53154 0.05025 0.83969 0.0
C237 C 0.53423 0.12548 0.62959 0.0
C238 C 0.55457 0.11964 0.61965 0.0
C239 C 0.52342 0.99687 0.7374 0.0
C240 C 0.47012 0.96892 0.49343 0.0
C241 C 0.43521 0.9561 0.48115 0.0
C242 C 0.44153 0.93671 0.50268 0.0
C243 C 0.47629 0.94925 0.51346 0.0
C244 C 0.4496 0.97212 0.4764 0.0
C245 C 0.46203 0.9333 0.51817 0.0
C246 C 0.47754 0.02831 0.69333 0.0
C247 C 0.48429 0.98661 0.4962 0.0
H248 H 0.58399 0.01573 1.00591 0.0
H249 H 0.5312 0.05267 0.97172 0.0
H250 H 0.55575 0.0366 0.04749 0.0
H251 H 0.56257 0.02548 0.80965 0.0
H252 H 0.43067 0.92417 0.50659 0.0
H253 H 0.49201 0.94626 0.52691 0.0
H254 H 0.44468 0.98726 0.46138 0.0
H255 H 0.46687 0.9183 0.53443 0.0
Eu256 Eu 0.5416 0.50763 0.55378 0.0
C257 C 0.4743 0.49477 0.74894 0.0
N258 N 0.47446 0.50753 0.69628 0.0
C259 C 0.44158 0.49462 0.66347 0.0
C260 C 0.4581 0.48073 0.75902 0.0
C261 C 0.4578 0.50849 0.65619 0.0
C262 C 0.44191 0.4804 0.71439 0.0
C263 C 0.48936 0.48452 0.85234 0.0
C264 C 0.48974 0.49658 0.79521 0.0
C265 C 0.47374 0.46993 0.861 0.0
C266 C 0.45817 0.46802 0.81443 0.0
Eu267 Eu 0.50358 0.52929 0.68701 0.0
N268 N 0.505 0.51044 0.78489 0.0
C269 C 0.50458 0.48769 0.89943 0.0
C270 C 0.51934 0.51428 0.8317 0.0
C271 C 0.51947 0.50283 0.88943 0.0
H272 H 0.45659 0.52024 0.61953 0.0
H273 H 0.53103 0.50569 0.92613 0.0
H274 H 0.58374 0.53412 0.58907 0.0
H275 H 0.50745 0.49334 0.31462 0.0
H276 H 0.53067 0.52614 0.82429 0.0
H277 H 0.50477 0.47878 0.94407 0.0
H278 H 0.51482 0.48644 0.43029 0.0
H279 H 0.42864 0.49518 0.63057 0.0
H280 H 0.47333 0.46033 0.90416 0.0
H281 H 0.44593 0.45705 0.82265 0.0
H282 H 0.60731 0.55894 0.53612 0.0
H283 H 0.42917 0.46987 0.72043 0.0
H284 H 0.5253 0.52173 0.25754 0.0
N285 N 0.56397 0.53207 0.50706 0.0
C286 C 0.56084 0.53707 0.44364 0.0
C287 C 0.59419 0.55306 0.50975 0.0
C288 C 0.57382 0.55113 0.41139 0.0
C289 C 0.58084 0.5391 0.53964 0.0
C290 C 0.59049 0.55936 0.44563 0.0
N291 N 0.53461 0.51216 0.44123 0.0
C292 C 0.52175 0.4996 0.40709 0.0
C293 C 0.54241 0.53101 0.34301 0.0
C294 C 0.54544 0.52703 0.40996 0.0
C295 C 0.52802 0.51921 0.30903 0.0
C296 C 0.51789 0.5032 0.34104 0.0
H297 H 0.60087 0.57015 0.42251 0.0
H298 H 0.5799 0.56682 0.32008 0.0
H299 H 0.55229 0.54927 0.26022 0.0
O300 O 0.55596 0.48369 0.49512 0.0
O301 O 0.53999 0.54261 0.56784 0.0
O302 O 0.50642 0.54772 0.59327 0.0
O303 O 0.56813 0.49112 0.59001 0.0
O304 O 0.50758 0.49991 0.53757 0.0
O305 O 0.4907 0.52715 0.58389 0.0
O306 O 0.5079 0.55933 0.73036 0.0
O307 O 0.52051 0.49906 0.7027 0.0
O308 O 0.51934 0.48534 0.60155 0.0
O309 O 0.47829 0.54453 0.73668 0.0
O310 O 0.53693 0.53828 0.70417 0.0
O311 O 0.55491 0.51217 0.65527 0.0
C312 C 0.52373 0.55445 0.56859 0.0
C313 C 0.57146 0.45713 0.55701 0.0
C314 C 0.55726 0.42286 0.57435 0.0
C315 C 0.57688 0.41607 0.59266 0.0
C316 C 0.59079 0.45006 0.57572 0.0
C317 C 0.59344 0.42964 0.5937 0.0
C318 C 0.55468 0.44362 0.55726 0.0
C319 C 0.49177 0.51239 0.54026 0.0
C320 C 0.56909 0.47888 0.54039 0.0
C321 C 0.57022 0.5559 0.34558 0.0
C322 C 0.55449 0.54591 0.31151 0.0
C323 C 0.5188 0.48294 0.66495 0.0
C324 C 0.48896 0.56574 0.8243 0.0
C325 C 0.49775 0.59132 0.90555 0.0
C326 C 0.49278 0.57732 0.95526 0.0
C327 C 0.48369 0.55187 0.87409 0.0
C328 C 0.49564 0.58544 0.84037 0.0
C329 C 0.48556 0.55773 0.93939 0.0
C330 C 0.55348 0.527 0.69836 0.0
C331 C 0.48965 0.55984 0.75549 0.0
H332 H 0.57966 0.40013 0.60424 0.0
H333 H 0.60383 0.46039 0.57656 0.0
H334 H 0.60845 0.42423 0.60762 0.0
H335 H 0.53972 0.44931 0.54386 0.0
H336 H 0.49441 0.58157 1.00601 0.0
H337 H 0.47854 0.5365 0.86273 0.0
H338 H 0.50006 0.59599 0.80179 0.0
H339 H 0.48168 0.54697 0.97775 0.0
Eu340 Eu 0.0327 0.54293 0.57494 0.0
C341 C 0.04172 0.47328 0.76014 0.0
N342 N 0.02892 0.47467 0.70798 0.0
C343 C 0.04081 0.44221 0.66897 0.0
C344 C 0.05526 0.45664 0.76704 0.0
C345 C 0.02746 0.45883 0.66485 0.0
C346 C 0.05502 0.44128 0.71966 0.0
C347 C 0.05284 0.4865 0.86501 0.0
C348 C 0.04052 0.48796 0.80874 0.0
C349 C 0.06688 0.4704 0.87079 0.0
C350 C 0.06807 0.4555 0.82196 0.0
Eu351 Eu 1.00777 0.50417 0.7044 0.0
N352 N 0.02712 0.5036 0.8013 0.0
C353 C 0.05055 0.5012 0.91401 0.0
C354 C 0.02424 0.51756 0.84977 0.0
C355 C 0.03604 0.51669 0.90659 0.0
H356 H 0.01567 0.45854 0.62817 0.0
H357 H 0.03402 0.52797 0.94449 0.0
H358 H 1.00308 0.58439 0.57903 0.0
H359 H 0.07158 0.51054 0.36402 0.0
H360 H 0.01299 0.52951 0.84412 0.0
H361 H 0.05973 0.50062 0.95797 0.0
H362 H 0.06608 0.51786 0.48094 0.0
H363 H 0.03983 0.42991 0.63378 0.0
H364 H 0.07663 0.46913 0.91334 0.0
H365 H 0.0786 0.44288 0.82797 0.0
H366 H 0.98263 0.60562 0.50282 0.0
H367 H 0.06514 0.42823 0.72321 0.0
H368 H 0.04903 0.5263 0.28107 0.0
N369 N 0.01282 0.56381 0.50544 0.0
C370 C 0.0138 0.55981 0.4407 0.0
C371 C 0.99116 0.59266 0.48478 0.0
C372 C 1.00256 0.57153 0.39539 0.0
C373 C 1.00267 0.58064 0.52771 0.0
C374 C 0.99077 0.58783 0.41844 0.0
N375 N 0.03962 0.53592 0.46419 0.0
C376 C 0.05572 0.52415 0.44505 0.0
C377 C 0.0304 0.54196 0.35215 0.0
C378 C 0.02757 0.54529 0.4194 0.0
C379 C 0.04615 0.52895 0.33231 0.0
C380 C 0.05899 0.52015 0.37896 0.0
H381 H 0.98195 0.59722 0.38521 0.0
H382 H 0.99553 0.5759 0.293 0.0
H383 H 0.01993 0.54994 0.25508 0.0
O384 O 0.05177 0.56214 0.63754 0.0
O385 O 0.9976 0.54293 0.57948 0.0
O386 O 0.98901 0.51031 0.61345 0.0
O387 O 0.05543 0.56375 0.53297 0.0
O388 O 0.03723 0.50856 0.55655 0.0
O389 O 1.00832 0.49326 0.59853 0.0
O390 O 0.98061 0.50799 0.76454 0.0
O391 O 0.03834 0.52093 0.71949 0.0
O392 O 0.0521 0.51808 0.61935 0.0
O393 O 0.99049 0.47756 0.7396 0.0
O394 O 0.99898 0.53698 0.72764 0.0
O395 O 0.02141 0.55763 0.66857 0.0
C396 C 0.98429 0.52778 0.58528 0.0
C397 C 0.08417 0.57166 0.59792 0.0
C398 C 0.11835 0.55659 0.59205 0.0
C399 C 0.12656 0.57607 0.60789 0.0
C400 C 0.09273 0.59058 0.61475 0.0
C401 C 0.11384 0.59272 0.61999 0.0
C402 C 0.09682 0.55468 0.58801 0.0
C403 C 0.02311 0.49408 0.55494 0.0
C404 C 0.06199 0.57014 0.58933 0.0
C405 C 1.00427 0.56728 0.32853 0.0
C406 C 0.01817 0.5525 0.30693 0.0
C407 C 0.05438 0.51762 0.68257 0.0
C408 C 0.95478 0.48416 0.7382 0.0
C409 C 0.91929 0.4951 0.72721 0.0
C410 C 0.91587 0.47966 0.68103 0.0
C411 C 0.95101 0.46849 0.69264 0.0
C412 C 0.93867 0.49708 0.75614 0.0
C413 C 0.93163 0.46627 0.66447 0.0
C414 C 1.00835 0.55458 0.71663 0.0
C415 C 0.97565 0.48865 0.76238 0.0
H416 H 0.14282 0.579 0.60907 0.0
H417 H 0.08308 0.60377 0.6229 0.0
H418 H 0.12043 0.60749 0.63196 0.0
H419 H 0.08953 0.54029 0.57623 0.0
H420 H 0.901 0.47786 0.65832 0.0
H421 H 0.96311 0.4583 0.67742 0.0
H422 H 0.94141 0.50928 0.79096 0.0
H423 H 0.92892 0.45434 0.62892 0.0
H424 H 0.21211 0.05501 0.22519 0.0
H425 H 0.18257 0.05405 0.29917 0.0
H426 H 0.14526 0.02873 0.14522 0.0
H427 H 0.17477 0.03005 0.07117 0.0
H428 H 0.12446 0.05741 0.20804 0.0
H429 H 0.16393 0.99891 0.27292 0.0
H430 H 0.19499 0.98082 0.30902 0.0
H431 H 0.19726 0.0176 0.48209 0.0
H432 H 0.16636 0.03611 0.44658 0.0
H433 H 0.04005 0.02664 0.40645 0.0
H434 H 0.069 0.02844 0.33127 0.0
H435 H 0.10818 0.04851 0.48837 0.0
H436 H 0.07949 0.04583 0.56405 0.0
H437 H 0.12806 0.02254 0.42277 0.0
H438 H 0.0881 0.08112 0.35773 0.0
H439 H 0.05687 0.09882 0.32093 0.0
H440 H 0.05534 0.06189 0.14813 0.0
H441 H 0.08639 0.04379 0.18424 0.0
C442 C 0.19759 0.0492 0.20744 0.0
C443 C 0.19566 0.0425 0.1428 0.0
C444 C 0.18071 0.04858 0.24973 0.0
C445 C 0.1616 0.0411 0.22828 0.0
C446 C 0.15975 0.03456 0.16321 0.0
C447 C 0.17662 0.03522 0.12097 0.0
C448 C 0.14357 0.04011 0.27338 0.0
C449 C 0.12519 0.04959 0.25472 0.0
C450 C 0.14449 0.03028 0.33502 0.0
C451 C 0.16295 0.01903 0.35676 0.0
C452 C 0.17114 1.00324 0.31846 0.0
C453 C 0.1887 0.9929 0.33884 0.0
C454 C 0.19812 0.9981 0.39772 0.0
C455 C 0.18996 0.01361 0.43645 0.0
C456 C 0.17242 0.02402 0.41624 0.0
C457 C 0.0548 0.0316 0.42487 0.0
C458 C 0.05741 0.03604 0.49144 0.0
C459 C 0.0714 0.03273 0.38164 0.0
C460 C 0.09093 0.03893 0.40342 0.0
C461 C 0.09341 0.04364 0.46985 0.0
C462 C 0.07692 0.04215 0.51325 0.0
C463 C 0.10889 0.04 0.35785 0.0
C464 C 0.12728 0.03048 0.37632 0.0
C465 C 0.10798 0.04984 0.2961 0.0
C466 C 0.0895 0.06099 0.27394 0.0
C467 C 0.08105 0.07671 0.31204 0.0
C468 C 0.06338 0.08681 0.2913 0.0
C469 C 0.05412 0.08144 0.2323 0.0
C470 C 0.06253 0.06602 0.19383 0.0
C471 C 0.08017 0.05585 0.21436 0.0
H472 H 0.04046 0.08924 0.21622 0.0
H473 H 0.21173 0.99008 0.41339 0.0
H474 H 0.48425 0.18822 0.11066 0.0
H475 H 0.48474 0.15915 0.18694 0.0
H476 H 0.53083 0.18994 0.30175 0.0
H477 H 0.53044 0.21893 0.22473 0.0
H478 H 0.54045 0.15066 0.29105 0.0
H479 H 0.48013 0.18698 0.35161 0.0
H480 H 0.44682 0.20372 0.33434 0.0
H481 H 0.42103 0.14681 0.26809 0.0
H482 H 0.45427 0.12979 0.28414 0.0
H483 H 0.48944 0.08655 0.57637 0.0
H484 H 0.49006 0.11603 0.50285 0.0
H485 H 0.5273 0.082 0.36806 0.0
H486 H 0.52817 0.0532 0.4447 0.0
H487 H 0.47665 0.1241 0.39183 0.0
H488 H 0.55518 0.11262 0.27017 0.0
H489 H 0.58893 0.09779 0.29533 0.0
H490 H 0.57945 0.10892 0.49903 0.0
H491 H 0.54566 0.12393 0.47516 0.0
C492 C 0.4944 0.18878 0.1524 0.0
C493 C 0.50722 0.20584 0.16207 0.0
C494 C 0.49466 0.17217 0.19618 0.0
C495 C 0.50769 0.17226 0.25094 0.0
C496 C 0.52063 0.18936 0.26016 0.0
C497 C 0.52035 0.20598 0.21632 0.0
C498 C 0.50785 0.15457 0.29825 0.0
C499 C 0.52647 0.14488 0.31302 0.0
C500 C 0.48975 0.14699 0.32811 0.0
C501 C 0.46974 0.15716 0.31848 0.0
C502 C 0.46739 0.17807 0.33289 0.0
C503 C 0.44852 0.18761 0.3234 0.0
C504 C 0.43184 0.17635 0.29997 0.0
C505 C 0.43398 0.15552 0.28614 0.0
C506 C 0.45283 0.14592 0.29548 0.0
C507 C 0.49826 0.08557 0.53204 0.0
C508 C 0.50933 0.06772 0.51791 0.0
C509 C 0.49833 0.10238 0.48915 0.0
C510 C 0.50911 0.10171 0.4298 0.0
C511 C 0.51939 0.08343 0.41413 0.0
C512 C 0.51966 0.06677 0.45781 0.0
C513 C 0.50925 0.11998 0.38449 0.0
C514 C 0.49067 0.12981 0.36993 0.0
C515 C 0.52745 0.12791 0.35585 0.0
C516 C 0.54783 0.11922 0.37089 0.0
C517 C 0.56033 0.11197 0.32034 0.0
C518 C 0.57944 0.10349 0.3344 0.0
C519 C 0.58627 0.10233 0.39884 0.0
C520 C 0.57405 0.10972 0.4493 0.0
C521 C 0.55492 0.11819 0.43554 0.0
H522 H 0.60106 0.09574 0.40966 0.0
H523 H 0.41724 0.18376 0.29267 0.0
H524 H 0.32292 0.47772 0.21293 0.0
H525 H 0.35283 0.47754 0.28591 0.0
H526 H 0.379 0.52818 0.17834 0.0
H527 H 0.34929 0.52807 0.10507 0.0
H528 H 0.4079 0.50123 0.20386 0.0
H529 H 0.35532 0.53427 0.32997 0.0
H530 H 0.32135 0.53668 0.38154 0.0
H531 H 0.33414 0.4833 0.49714 0.0
H532 H 0.36811 0.48043 0.44564 0.0
H533 H 0.46245 0.54068 0.51164 0.0
H534 H 0.4329 0.53728 0.43971 0.0
H535 H 0.45176 0.47631 0.38814 0.0
H536 H 0.48098 0.47915 0.46324 0.0
H537 H 0.40049 0.50727 0.44361 0.0
H538 H 0.44006 0.47407 0.21711 0.0
H539 H 0.47353 0.475 0.16149 0.0
H540 H 0.48635 0.53395 0.24504 0.0
H541 H 0.45298 0.53339 0.30083 0.0
C542 C 0.33508 0.48881 0.20521 0.0
C543 C 0.33383 0.50299 0.15377 0.0
C544 C 0.35215 0.48876 0.24697 0.0
C545 C 0.36825 0.50297 0.23828 0.0
C546 C 0.36692 0.51703 0.1863 0.0
C547 C 0.34989 0.51705 0.14462 0.0
C548 C 0.38642 0.50337 0.28312 0.0
C549 C 0.4062 0.50239 0.2563 0.0
C550 C 0.38444 0.50511 0.35175 0.0
C551 C 0.36417 0.50702 0.38349 0.0
C552 C 0.35084 0.52298 0.36612 0.0
C553 C 0.3316 0.52444 0.39537 0.0
C554 C 0.32557 0.51011 0.44245 0.0
C555 C 0.33882 0.49436 0.4606 0.0
C556 C 0.35807 0.49283 0.43145 0.0
C557 C 0.46036 0.52643 0.48546 0.0
C558 C 0.47431 0.51021 0.49337 0.0
C559 C 0.44337 0.52454 0.44422 0.0
C560 C 0.44003 0.50657 0.40836 0.0
C561 C 0.45405 0.4904 0.41504 0.0
C562 C 0.47089 0.49212 0.45759 0.0
C563 C 0.42185 0.50495 0.36422 0.0
C564 C 0.40211 0.50575 0.39123 0.0
C565 C 0.42385 0.5033 0.29577 0.0
C566 C 0.44415 0.50355 0.26373 0.0
C567 C 0.45006 0.4872 0.22369 0.0
C568 C 0.46901 0.48767 0.1921 0.0
C569 C 0.48207 0.50451 0.1998 0.0
C570 C 0.47626 0.52088 0.23928 0.0
C571 C 0.45737 0.52045 0.27114 0.0
H572 H 0.49671 0.50487 0.17521 0.0
H573 H 0.31065 0.51124 0.46496 0.0
H574 H 0.04279 0.32196 0.23558 0.0
H575 H 0.04274 0.35106 0.31155 0.0
H576 H 0.01583 0.38919 0.1626 0.0
H577 H 0.0162 0.36019 0.08671 0.0
H578 H 0.04445 0.41029 0.2226 0.0
H579 H 0.98749 0.36888 0.29304 0.0
H580 H 0.97038 0.33722 0.33073 0.0
H581 H 0.00939 0.33555 0.49917 0.0
H582 H 0.0269 0.36709 0.46205 0.0
H583 H 0.99222 0.4693 0.51124 0.0
H584 H 0.99422 0.44047 0.43582 0.0
H585 H 0.05912 0.45078 0.41495 0.0
H586 H 0.05707 0.47992 0.48966 0.0
H587 H 0.01192 0.40528 0.44035 0.0
H588 H 0.07612 0.43451 0.27339 0.0
H589 H 0.08995 0.46707 0.22994 0.0
H590 H 0.03056 0.49446 0.2452 0.0
H591 H 0.0165 0.46217 0.28937 0.0
C592 C 0.03685 0.33657 0.2193 0.0
C593 C 0.02942 0.33885 0.15545 0.0
C594 C 0.03675 0.35321 0.26279 0.0
C595 C 0.02911 0.37246 0.24339 0.0
C596 C 0.02185 0.37464 0.17912 0.0
C597 C 0.02197 0.35803 0.13576 0.0
C598 C 0.02858 0.39031 0.28957 0.0
C599 C 0.03739 0.40909 0.27031 0.0
C600 C 0.0192 0.3891 0.35182 0.0
C601 C 1.00863 0.37022 0.37442 0.0
C602 C 0.99251 0.36168 0.33788 0.0
C603 C 0.98272 0.34377 0.35918 0.0
C604 C 0.98883 0.33435 0.41722 0.0
C605 C 1.0047 0.34285 0.45418 0.0
C606 C 0.01454 0.36075 0.43307 0.0
C607 C 1.00692 0.46554 0.49027 0.0
C608 C 0.02446 0.47712 0.50627 0.0
C609 C 1.00807 0.44893 0.44718 0.0
C610 C 0.02679 0.44332 0.41878 0.0
C611 C 0.04436 0.45489 0.43477 0.0
C612 C 0.04319 0.47164 0.47761 0.0
C613 C 0.0278 0.42526 0.37338 0.0
C614 C 0.01911 0.40643 0.39286 0.0
C615 C 0.03696 0.4265 0.31087 0.0
C616 C 0.04533 0.44601 0.28505 0.0
C617 C 0.06606 0.44752 0.26752 0.0
C618 C 0.07395 0.46594 0.24301 0.0
C619 C 0.06119 0.48287 0.23516 0.0
C620 C 0.0405 0.48141 0.25182 0.0
C621 C 0.03257 0.46309 0.27685 0.0
H622 H 0.06732 0.4971 0.216 0.0
H623 H 0.98124 0.32048 0.43361 0.0
H624 H 0.84838 0.01274 0.16965 0.0
H625 H 0.87725 0.01292 0.09334 0.0
H626 H 0.83555 1.00285 0.93331 0.0
H627 H 0.80663 1.00246 0.01019 0.0
H628 H 0.86983 0.97975 0.91917 0.0
H629 H 0.85561 0.05047 0.96283 0.0
H630 H 0.8499 0.08084 0.03153 0.0
H631 H 0.91007 0.07471 0.11315 0.0
H632 H 0.91604 0.04412 0.04553 0.0
H633 H 0.94148 1.00651 0.66887 0.0
H634 H 0.9118 1.00416 0.74119 0.0
H635 H 0.95009 0.01973 0.90538 0.0
H636 H 0.97945 0.02324 0.83281 0.0
H637 H 0.91668 0.03978 0.9153 0.0
H638 H 0.93138 0.9692 0.86773 0.0
H639 H 0.93726 0.94011 0.79353 0.0
H640 H 0.87631 0.94587 0.71818 0.0
H641 H 0.8702 0.97535 0.7904 0.0
C642 C 0.84543 1.0105 0.11818 0.0
C643 C 0.82535 1.00765 0.09565 0.0
C644 C 0.86192 1.01067 0.07449 0.0
C645 C 0.85866 1.00815 1.00715 0.0
C646 C 0.83853 1.00485 0.98485 0.0
C647 C 0.82201 1.00469 0.0287 0.0
C648 C 0.87622 1.00942 0.96027 0.0
C649 C 0.87994 0.99297 0.91782 0.0
C650 C 0.88973 0.02648 0.95894 0.0
C651 C 0.88619 0.04489 0.99957 0.0
C652 C 0.86756 0.0555 0.99579 0.0
C653 C 0.86429 0.07277 0.03447 0.0
C654 C 0.87959 0.07967 0.0768 0.0
C655 C 0.89822 0.06934 0.08041 0.0
C656 C 0.90157 0.05204 0.04187 0.0
C657 C 0.9436 1.00935 0.72042 0.0
C658 C 0.96297 0.01484 0.745 0.0
C659 C 0.92658 1.00789 0.76197 0.0
C660 C 0.92859 1.01141 0.82941 0.0
C661 C 0.94798 0.01687 0.85381 0.0
C662 C 0.96487 0.01871 0.81218 0.0
C663 C 0.91054 1.01 0.87447 0.0
C664 C 0.90667 0.02647 0.91665 0.0
C665 C 0.89697 0.99292 0.87551 0.0
C666 C 0.9004 0.97464 0.83408 0.0
C667 C 0.91924 0.96431 0.83521 0.0
C668 C 0.92262 0.94777 0.7935 0.0
C669 C 0.90719 0.94121 0.75118 0.0
C670 C 0.88827 0.95103 0.75088 0.0
C671 C 0.88484 0.96767 0.79213 0.0
H672 H 0.90991 0.92856 0.71844 0.0
H673 H 0.87703 0.09304 0.1067 0.0
H674 H 0.50211 0.84003 0.1155 0.0
H675 H 0.50244 0.86899 0.03882 0.0
H676 H 0.56668 0.87856 0.07727 0.0
H677 H 0.56617 0.84972 0.1548 0.0
H678 H 0.54816 0.91423 0.07591 0.0
H679 H 0.5483 0.85708 0.93169 0.0
H680 H 0.53652 0.82431 0.88493 0.0
H681 H 0.47869 0.8513 0.83652 0.0
H682 H 0.49 0.88415 0.88395 0.0
H683 H 0.55922 0.98351 0.79564 0.0
H684 H 0.56315 0.95524 0.87458 0.0
H685 H 0.49786 0.94569 0.87387 0.0
H686 H 0.49384 0.97436 0.79842 0.0
H687 H 0.51965 0.90952 0.85248 0.0
H688 H 0.51885 0.96586 1.00095 0.0
H689 H 0.52923 0.99764 0.05676 0.0
H690 H 0.58804 0.97184 0.099 0.0
H691 H 0.57819 0.94001 0.04219 0.0
C692 C 0.51631 0.84826 0.10715 0.0
C693 C 0.53413 0.8426 0.14079 0.0
C694 C 0.51654 0.8648 0.06302 0.0
C695 C 0.53466 0.87601 0.05109 0.0
C696 C 0.55249 0.87027 0.0851 0.0
C697 C 0.55223 0.85372 0.12928 0.0
C698 C 0.53484 0.89399 1.00476 0.0
C699 C 0.54231 0.91304 0.02656 0.0
C700 C 0.5268 0.89278 0.94056 0.0
C701 C 0.51993 0.87303 0.91206 0.0
C702 C 0.533 0.85598 0.91162 0.0
C703 C 0.52642 0.8374 0.88489 0.0
C704 C 0.50685 0.83571 0.85794 0.0
C705 C 0.49383 0.85262 0.85752 0.0
C706 C 0.50033 0.87123 0.8843 0.0
C707 C 0.5457 0.9756 0.81323 0.0
C708 C 0.52622 0.981 0.78951 0.0
C709 C 0.54796 0.95936 0.8582 0.0
C710 C 0.53081 0.94807 0.87991 0.0
C711 C 0.51138 0.95391 0.8576 0.0
C712 C 0.50911 0.9703 0.81398 0.0
C713 C 0.53285 0.92973 0.92387 0.0
C714 C 0.52577 0.91061 0.90151 0.0
C715 C 0.5413 0.93088 0.98743 0.0
C716 C 0.54786 0.95062 0.01658 0.0
C717 C 0.53415 0.96708 0.02096 0.0
C718 C 0.53988 0.98506 0.05322 0.0
C719 C 0.55922 0.98668 0.08182 0.0
C720 C 0.57302 0.97049 0.0772 0.0
C721 C 0.56739 0.95251 0.04478 0.0
H722 H 0.56355 1.00052 0.1074 0.0
H723 H 0.50178 0.82131 0.83725 0.0
H724 H 0.69118 0.56156 0.15372 0.0
H725 H 0.66211 0.56249 0.07761 0.0
H726 H 0.68547 0.50899 0.98031 0.0
H727 H 0.71465 0.50834 0.0558 0.0
H728 H 0.67333 0.5358 0.89272 0.0
H729 H 0.64347 0.50795 0.08916 0.0
H730 H 0.63366 0.5073 0.20519 0.0
H731 H 0.59913 0.56249 0.17901 0.0
H732 H 0.60901 0.56365 0.06298 0.0
H733 H 0.58768 0.50329 0.71179 0.0
H734 H 0.61543 0.50669 0.79011 0.0
H735 H 0.58678 0.56016 0.87151 0.0
H736 H 0.55847 0.55659 0.79353 0.0
H737 H 0.60119 0.53648 0.96724 0.0
H738 H 0.62927 0.56383 0.77123 0.0
H739 H 0.63775 0.56429 0.65416 0.0
H740 H 0.67518 0.51099 0.67926 0.0
H741 H 0.66662 0.50997 0.79631 0.0
C742 C 0.69003 0.55002 0.11602 0.0
C743 C 0.70507 0.53485 0.11057 0.0
C744 C 0.67335 0.55047 0.0727 0.0
C745 C 0.67129 0.53565 0.02329 0.0
C746 C 0.68656 0.5206 0.01779 0.0
C747 C 0.70322 0.52018 0.06102 0.0
C748 C 0.65356 0.53591 0.9766 0.0
C749 C 0.65757 0.53571 0.90925 0.0
C750 C 0.63286 0.53654 0.9975 0.0
C751 C 0.6272 0.53602 0.06753 0.0
C752 C 0.63398 0.52007 0.10829 0.0
C753 C 0.62836 0.51959 0.17404 0.0
C754 C 0.61583 0.53488 0.19951 0.0
C755 C 0.60888 0.55068 0.15925 0.0
C756 C 0.61448 0.55126 0.0935 0.0
C757 C 0.5872 0.51589 0.74596 0.0
C758 C 0.57074 0.52973 0.74568 0.0
C759 C 0.60323 0.51785 0.79087 0.0
C760 C 0.60353 0.53389 0.83647 0.0
C761 C 0.58704 0.54768 0.83686 0.0
C762 C 0.57087 0.54566 0.79194 0.0
C763 C 0.62101 0.53599 0.8836 0.0
C764 C 0.61696 0.5367 0.95084 0.0
C765 C 0.64169 0.53597 0.86271 0.0
C766 C 0.64718 0.53673 0.79252 0.0
C767 C 0.63922 0.55213 0.75173 0.0
C768 C 0.64403 0.55249 0.68537 0.0
C769 C 0.65697 0.53766 0.65927 0.0
C770 C 0.66515 0.52246 0.69954 0.0
C771 C 0.66033 0.52199 0.76592 0.0
H772 H 0.66067 0.53796 0.60787 0.0
H773 H 0.61146 0.53445 0.25038 0.0
H774 H 0.03007 0.71113 0.09292 0.0
H775 H 0.02876 0.68306 0.01361 0.0
H776 H 0.96866 0.66616 0.08272 0.0
H777 H 0.97018 0.69415 0.16278 0.0
H778 H 0.99083 0.63252 0.06465 0.0
H779 H 0.97583 0.69157 0.93557 0.0
H780 H 0.98122 0.72643 0.89199 0.0
H781 H 0.03842 0.70798 0.80861 0.0
H782 H 0.03353 0.67307 0.85257 0.0
H783 H 0.97657 0.56062 0.80364 0.0
H784 H 0.97232 0.589 0.88046 0.0
H785 H 0.02915 0.61565 0.81393 0.0
H786 H 0.03286 0.58811 0.73533 0.0
H787 H 1.00501 0.64485 0.83044 0.0
H788 H 0.02127 0.58651 0.96889 0.0
H789 H 0.01598 0.55199 0.01555 0.0
H790 H 0.95614 0.56916 0.0809 0.0
H791 H 0.96109 0.6038 0.03481 0.0
C792 C 0.01657 0.70144 0.09092 0.0
C793 C 1.0002 0.70482 0.13366 0.0
C794 C 0.01577 0.68542 0.04538 0.0
C795 C 0.99848 0.67248 0.04118 0.0
C796 C 0.98217 0.67583 0.08458 0.0
C797 C 0.98299 0.69188 0.13018 0.0
C798 C 0.99758 0.65544 0.99201 0.0
C799 C 0.99366 0.63529 0.01327 0.0
C800 C 1.00148 0.6588 0.92484 0.0
C801 C 1.00439 0.67974 0.89785 0.0
C802 C 0.98963 0.69498 0.90832 0.0
C803 C 0.99258 0.71475 0.8835 0.0
C804 C 0.01017 0.71943 0.84767 0.0
C805 C 0.02481 0.70434 0.83643 0.0
C806 C 0.02195 0.68455 0.86124 0.0
C807 C 0.9881 0.57259 0.80518 0.0
C808 C 1.00503 0.57199 0.76282 0.0
C809 C 0.98576 0.5888 0.84975 0.0
C810 C 1.00059 0.60452 0.85454 0.0
C811 C 0.01738 0.60391 0.81176 0.0
C812 C 0.01951 0.58802 0.76651 0.0
C813 C 0.99886 0.62173 0.90316 0.0
C814 C 1.00217 0.64201 0.88175 0.0
C815 C 0.99442 0.61846 0.97019 0.0
C816 C 0.99147 0.59765 0.99781 0.0
C817 C 1.00695 0.58287 0.99289 0.0
C818 C 1.00402 0.5633 0.0193 0.0
C819 C 0.98571 0.55834 0.05086 0.0
C820 C 0.97032 0.573 0.05642 0.0
C821 C 0.9732 0.59262 0.03034 0.0
H822 H 0.98347 0.54317 0.07118 0.0
H823 H 0.01243 0.73474 0.8285 0.0
H824 H 0.01596 0.26501 0.25298 0.0
H825 H 0.01395 0.2444 0.35266 0.0
H826 H 0.06376 0.20705 0.28495 0.0
H827 H 0.06608 0.22777 0.18578 0.0
H828 H 0.02593 0.18691 0.29826 0.0
H829 H 0.06982 0.23097 0.42317 0.0
H830 H 0.08139 0.26404 0.46822 0.0
H831 H 0.02436 0.27042 0.56954 0.0
H832 H 0.01231 0.23752 0.52437 0.0
H833 H 1.00202 0.11167 0.51239 0.0
H834 H 0.02505 0.13711 0.46882 0.0
H835 H 0.98887 0.18503 0.55451 0.0
H836 H 0.9675 0.15943 0.60789 0.0
H837 H 0.02482 0.19961 0.53654 0.0
H838 H 0.97764 0.16291 0.39902 0.0
H839 H 0.96173 0.13213 0.35061 0.0
H840 H 0.01934 0.11534 0.26667 0.0
H841 H 0.03569 0.14579 0.31563 0.0
C842 C 0.02703 0.25295 0.26058 0.0
C843 C 0.04092 0.24771 0.21115 0.0
C844 C 0.02589 0.24121 0.31761 0.0
C845 C 0.03864 0.22416 0.32586 0.0
C846 C 0.05379 0.22015 0.27937 0.0
C847 C 0.05499 0.23189 0.22262 0.0
C848 C 0.03335 0.20827 0.37458 0.0
C849 C 0.0262 0.18949 0.35052 0.0
C850 C 0.03283 0.21209 0.44232 0.0
C851 C 0.0401 0.23182 0.46996 0.0
C852 C 0.05967 0.23949 0.45463 0.0
C853 C 0.06633 0.2582 0.4803 0.0
C854 C 0.0536 0.26934 0.52162 0.0
C855 C 0.0342 0.26177 0.53752 0.0
C856 C 0.02746 0.24307 0.51198 0.0
C857 C 0.9993 0.12742 0.52532 0.0
C858 C 0.98214 0.13325 0.5623 0.0
C859 C 0.01249 0.14212 0.49914 0.0
C860 C 1.00804 0.16302 0.50526 0.0
C861 C 0.99233 0.16897 0.54754 0.0
C862 C 0.97975 0.15421 0.57679 0.0
C863 C 0.01744 0.1782 0.46006 0.0
C864 C 0.02506 0.19686 0.48443 0.0
C865 C 0.01776 0.17468 0.39188 0.0
C866 C 1.00792 0.15651 0.36149 0.0
C867 C 0.98692 0.15259 0.37045 0.0
C868 C 0.97784 0.13519 0.343 0.0
C869 C 0.98954 0.12175 0.30571 0.0
C870 C 0.01033 0.12573 0.29566 0.0
C871 C 0.01951 0.14304 0.3233 0.0
H872 H 0.98249 0.10828 0.28451 0.0
H873 H 0.05879 0.28383 0.5414 0.0
H874 H 0.26336 0.99581 0.20668 0.0
H875 H 0.28047 0.9784 0.29777 0.0
H876 H 0.32216 0.02959 0.31636 0.0
H877 H 0.30509 0.0469 0.22618 0.0
H878 H 0.3188 0.96672 0.28319 0.0
H879 H 0.3431 0.03246 0.4626 0.0
H880 H 0.32701 0.06174 0.51759 0.0
H881 H 0.26801 0.03321 0.49758 0.0
H882 H 0.28375 1.00357 0.44341 0.0
H883 H 0.42096 0.97242 0.36847 0.0
H884 H 0.38541 0.97942 0.33903 0.0
H885 H 0.3653 0.95553 0.5246 0.0
H886 H 0.40106 0.94818 0.55407 0.0
H887 H 0.34856 0.99544 0.48608 0.0
H888 H 0.35331 0.92728 0.41005 0.0
H889 H 0.36927 0.89778 0.35568 0.0
H890 H 0.36833 0.93011 0.17313 0.0
H891 H 0.35266 0.95994 0.22656 0.0
C892 C 0.27567 1.00361 0.23209 0.0
C893 C 0.28309 0.02256 0.2094 0.0
C894 C 0.28545 0.99366 0.28388 0.0
C895 C 0.30256 1.0027 0.314 0.0
C896 C 0.3088 0.02243 0.29474 0.0
C897 C 0.29916 0.03226 0.24287 0.0
C898 C 0.31639 0.99041 0.35576 0.0
C899 C 0.32497 0.97275 0.32837 0.0
C900 C 0.32418 0.99802 0.41542 0.0
C901 C 0.31465 0.01575 0.44874 0.0
C902 C 0.32672 0.03232 0.47038 0.0
C903 C 0.31764 0.04902 0.50131 0.0
C904 C 0.2965 0.04934 0.51103 0.0
C905 C 0.28438 0.03296 0.4899 0.0
C906 C 0.29338 0.01621 0.45898 0.0
C907 C 0.40894 0.96861 0.40285 0.0
C908 C 0.41364 0.95976 0.46338 0.0
C909 C 0.38869 0.97252 0.38598 0.0
C910 C 0.37281 0.96785 0.42956 0.0
C911 C 0.3774 0.95913 0.49035 0.0
C912 C 0.39773 0.95488 0.5069 0.0
C913 C 0.35157 0.97277 0.41088 0.0
C914 C 0.34177 0.98903 0.44236 0.0
C915 C 0.34253 0.96383 0.35518 0.0
C916 C 0.35183 0.94588 0.32244 0.0
C917 C 0.35661 0.92815 0.35839 0.0
C918 C 0.3656 0.91136 0.32772 0.0
C919 C 0.36982 0.91207 0.261 0.0
C920 C 0.36503 0.92957 0.2248 0.0
C921 C 0.35605 0.94642 0.25525 0.0
H922 H 0.37678 0.89906 0.23735 0.0
H923 H 0.28951 0.06229 0.53494 0.0
H924 H 0.51333 0.2721 0.26942 0.0
H925 H 0.51221 0.28727 0.37733 0.0
H926 H 0.47521 0.33663 0.30234 0.0
H927 H 0.47441 0.32041 0.19622 0.0
H928 H 0.53003 0.3191 0.40507 0.0
H929 H 0.45271 0.36517 0.41193 0.0
H930 H 0.41615 0.35881 0.39034 0.0
H931 H 0.42511 0.29418 0.41632 0.0
H932 H 0.46168 0.30014 0.43916 0.0
H933 H 0.52687 0.42266 0.48214 0.0
H934 H 0.50481 0.39409 0.45353 0.0
H935 H 0.52699 0.35989 0.61887 0.0
H936 H 0.54871 0.38888 0.64999 0.0
H937 H 0.47627 0.36183 0.50654 0.0
H938 H 0.54845 0.31973 0.5494 0.0
H939 H 0.58485 0.32622 0.57524 0.0
H940 H 0.58432 0.37997 0.45394 0.0
H941 H 0.54805 0.37357 0.42672 0.0
C942 C 0.50418 0.2857 0.27624 0.0
C943 C 0.49426 0.29518 0.22328 0.0
C944 C 0.50371 0.29449 0.33823 0.0
C945 C 0.49367 0.31318 0.34856 0.0
C946 C 0.48276 0.32202 0.29665 0.0
C947 C 0.48276 0.31295 0.23513 0.0
C948 C 0.49757 0.3252 0.40897 0.0
C949 C 0.51801 0.32774 0.42867 0.0
C950 C 0.4821 0.33677 0.44028 0.0
C951 C 0.46003 0.33312 0.42705 0.0
C952 C 0.44689 0.34961 0.41357 0.0
C953 C 0.42615 0.34607 0.40096 0.0
C954 C 0.41832 0.32611 0.40186 0.0
C955 C 0.43121 0.30964 0.41546 0.0
C956 C 0.45196 0.31308 0.42814 0.0
C957 C 0.52647 0.40953 0.51449 0.0
C958 C 0.54021 0.40782 0.56706 0.0
C959 C 0.51366 0.39319 0.49814 0.0
C960 C 0.51458 0.3748 0.53338 0.0
C961 C 0.52624 0.37395 0.59074 0.0
C962 C 0.53897 0.39037 0.60754 0.0
C963 C 0.50845 0.35576 0.49973 0.0
C964 C 0.48783 0.35218 0.4847 0.0
C965 C 0.52359 0.34288 0.47328 0.0
C966 C 0.54562 0.34624 0.48649 0.0
C967 C 0.5562 0.33282 0.52794 0.0
C968 C 0.57677 0.3365 0.54285 0.0
C969 C 0.58688 0.35352 0.51634 0.0
C970 C 0.57648 0.3668 0.47444 0.0
C971 C 0.55595 0.36314 0.45918 0.0
H972 H 0.60277 0.3564 0.52821 0.0
H973 H 0.40226 0.3234 0.39205 0.0
H974 H 0.2599 0.51148 0.25893 0.0
H975 H 0.23952 0.51083 0.35892 0.0
H976 H 0.20443 0.45986 0.28439 0.0
H977 H 0.22489 0.46028 0.18473 0.0
H978 H 0.18215 0.49535 0.30495 0.0
H979 H 0.22998 0.45368 0.42316 0.0
H980 H 0.2644 0.44469 0.46292 0.0
H981 H 0.26811 0.50161 0.56681 0.0
H982 H 0.23382 0.51107 0.52706 0.0
H983 H 0.10933 0.52061 0.52315 0.0
H984 H 0.13302 0.49641 0.47894 0.0
H985 H 0.1833 0.52928 0.56674 0.0
H986 H 0.15951 0.55101 0.6232 0.0
H987 H 0.19703 0.49555 0.54206 0.0
H988 H 0.15856 0.5423 0.4043 0.0
H989 H 0.1268 0.55709 0.35963 0.0
H990 H 0.10903 0.49813 0.28569 0.0
H991 H 0.14064 0.48297 0.33038 0.0
C992 C 0.24842 0.4996 0.26505 0.0
C993 C 0.24371 0.48616 0.21371 0.0
C994 C 0.23679 0.49922 0.32223 0.0
C995 C 0.22041 0.48535 0.3288 0.0
C996 C 0.21699 0.47068 0.28015 0.0
C997 C 0.22862 0.47101 0.22321 0.0
C998 C 0.20457 0.48884 0.37897 0.0
C999 C 0.18522 0.49488 0.35695 0.0
C1000 C 0.20893 0.48903 0.44644 0.0
C1001 C 0.22933 0.48311 0.47186 0.0
C1002 C 0.23816 0.46432 0.45426 0.0
C1003 C 0.25765 0.45914 0.47684 0.0
C1004 C 0.26845 0.47258 0.51728 0.0
C1005 C 0.25973 0.4912 0.53551 0.0
C1006 C 0.24024 0.49646 0.51309 0.0
C1007 C 0.12521 0.52252 0.53621 0.0
C1008 C 0.13224 0.53916 0.57419 0.0
C1009 C 0.13894 0.50861 0.5094 0.0
C1010 C 0.16009 0.51196 0.5149 0.0
C1011 C 0.16708 0.52676 0.55917 0.0
C1012 C 0.15328 0.53978 0.58997 0.0
C1013 C 0.17463 0.50253 0.46795 0.0
C1014 C 0.19375 0.49552 0.49024 0.0
C1015 C 0.17049 0.5023 0.39997 0.0
C1016 C 0.15182 0.51149 0.3712 0.0
C1017 C 0.14787 0.53252 0.37845 0.0
C1018 C 0.12989 0.54094 0.35323 0.0
C1019 C 0.11588 0.52853 0.31999 0.0
C1020 C 0.11988 0.5077 0.31153 0.0
C1021 C 0.13783 0.49918 0.33672 0.0
H1022 H 0.10194 0.53506 0.3007 0.0
H1023 H 0.28356 0.46857 0.53454 0.0
H1024 H 0.98047 0.77024 0.0406 0.0
H1025 H 0.97376 0.79237 0.94779 0.0
H1026 H 0.92937 0.82564 0.06017 0.0
H1027 H 0.93505 0.80273 0.15237 0.0
H1028 H 0.92643 0.83263 0.91967 0.0
H1029 H 0.97678 0.83808 0.10167 0.0
H1030 H 1.00421 0.82409 0.17142 0.0
H1031 H 0.03837 0.80721 1.00145 0.0
H1032 H 0.01138 0.82166 0.93079 0.0
H1033 H 0.95308 0.93859 0.91683 0.0
H1034 H 0.94226 0.90307 0.93225 0.0
H1035 H 0.99726 0.88244 0.83727 0.0
H1036 H 1.00898 0.91757 0.82703 0.0
H1037 H 0.9943 0.86587 0.94876 0.0
H1038 H 0.9478 0.87359 0.77135 0.0
H1039 H 0.92065 0.89 0.70655 0.0
H1040 H 0.87864 0.88289 0.86585 0.0
H1041 H 0.90558 0.86651 0.93182 0.0
C1042 C 0.96824 0.7813 0.04447 0.0
C1043 C 0.95898 0.78543 0.10483 0.0
C1044 C 0.96442 0.794 0.99105 0.0
C1045 C 0.95175 0.81112 0.99833 0.0
C1046 C 0.93949 0.81269 0.05403 0.0
C1047 C 0.94297 0.79973 0.10705 0.0
C1048 C 0.9565 0.83003 0.96157 0.0
C1049 C 0.94128 0.83991 0.92511 0.0
C1050 C 0.97589 0.83946 0.96899 0.0
C1051 C 0.99206 0.83074 0.01116 0.0
C1052 C 0.99014 0.83134 0.07931 0.0
C1053 C 1.00559 0.82334 0.11895 0.0
C1054 C 0.02289 0.81455 0.09091 0.0
C1055 C 0.02492 0.81396 0.02312 0.0
C1056 C 0.00962 0.82216 0.98326 0.0
C1057 C 0.96286 0.92651 0.89908 0.0
C1058 C 0.98195 0.93105 0.87065 0.0
C1059 C 0.95643 0.90618 0.9067 0.0
C1060 C 0.96884 0.89006 0.8852 0.0
C1061 C 0.98736 0.89462 0.85385 0.0
C1062 C 0.99397 0.91482 0.84753 0.0
C1063 C 0.96439 0.86867 0.90511 0.0
C1064 C 0.97964 0.85844 0.94022 0.0
C1065 C 0.94506 0.85916 0.89616 0.0
C1066 C 0.92876 0.8689 0.85664 0.0
C1067 C 0.93281 0.87562 0.79272 0.0
C1068 C 0.91744 0.88487 0.75572 0.0
C1069 C 0.89793 0.88751 0.78209 0.0
C1070 C 0.89374 0.88082 0.84546 0.0
C1071 C 0.90904 0.87148 0.88261 0.0
H1072 H 0.88607 0.89473 0.75342 0.0
H1073 H 0.03479 0.8083 0.12172 0.0
H1074 H 0.7168 0.95902 0.0951 0.0
H1075 H 0.69496 0.95563 1.00017 0.0
H1076 H 0.73078 1.00162 0.89947 0.0
H1077 H 0.75196 1.00599 0.99662 0.0
H1078 H 0.69503 0.01415 0.90586 0.0
H1079 H 0.71964 0.95216 0.82866 0.0
H1080 H 0.73356 0.91716 0.82891 0.0
H1081 H 0.67777 0.89418 0.91251 0.0
H1082 H 0.66359 0.92905 0.91385 0.0
H1083 H 0.59781 0.02591 0.79375 0.0
H1084 H 0.6309 1.01123 0.76688 0.0
H1085 H 0.62579 0.97013 0.93115 0.0
H1086 H 0.59205 0.98371 0.95561 0.0
H1087 H 0.65244 0.95507 0.83574 0.0
H1088 H 0.64106 0.02023 0.95979 0.0
H1089 H 0.62669 0.05512 0.96351 0.0
H1090 H 0.659 0.07095 0.78807 0.0
H1091 H 0.67339 0.03604 0.7832 0.0
C1092 C 0.72034 0.96807 0.05217 0.0
C1093 C 0.73567 0.98324 0.05414 0.0
C1094 C 0.70803 0.96584 0.9971 0.0
C1095 C 0.71105 0.97845 0.94223 0.0
C1096 C 0.72803 0.99178 0.94122 0.0
C1097 C 0.7402 0.99423 0.99684 0.0
C1098 C 0.69388 0.98123 0.89535 0.0
C1099 C 0.68626 1.00118 0.88794 0.0
C1100 C 0.68217 0.96447 0.8717 0.0
C1101 C 0.69052 0.94333 0.87121 0.0
C1102 C 0.71035 0.93968 0.84745 0.0
C1103 C 0.71829 0.91984 0.84728 0.0
C1104 C 0.70655 0.90346 0.87066 0.0
C1105 C 0.68683 0.90688 0.89424 0.0
C1106 C 0.6788 0.9267 0.89453 0.0
C1107 C 0.60322 0.01311 0.8225 0.0
C1108 C 0.59262 1.00653 0.87865 0.0
C1109 C 0.62221 1.00472 0.80691 0.0
C1110 C 0.63109 0.99008 0.84828 0.0
C1111 C 0.61935 0.9816 0.89895 0.0
C1112 C 0.60023 0.98971 0.91383 0.0
C1113 C 0.65358 0.98762 0.85101 0.0
C1114 C 0.662 0.96789 0.85028 0.0
C1115 C 0.66623 1.00453 0.86696 0.0
C1116 C 0.65818 0.02562 0.87096 0.0
C1117 C 0.6451 0.03121 0.92217 0.0
C1118 C 0.63693 0.05094 0.92439 0.0
C1119 C 0.64192 0.06524 0.87601 0.0
C1120 C 0.65515 0.05985 0.82546 0.0
C1121 C 0.66332 0.04011 0.82294 0.0
H1122 H 0.63555 0.0805 0.87773 0.0
H1123 H 0.71273 0.88811 0.87051 0.0
H1124 H 0.54265 0.77418 0.04465 0.0
H1125 H 0.53977 0.74912 0.95796 0.0
H1126 H 0.58479 0.71143 0.05339 0.0
H1127 H 0.58921 0.73737 0.13706 0.0
H1128 H 0.57865 0.69778 0.93232 0.0
H1129 H 0.53568 0.71447 0.12029 0.0
H1130 H 0.51365 0.7366 0.18744 0.0
H1131 H 0.47465 0.74747 0.02267 0.0
H1132 H 0.49618 0.72499 0.95498 0.0
H1133 H 0.53012 0.60089 0.98378 0.0
H1134 H 0.54608 0.63478 0.9977 0.0
H1135 H 0.50045 0.6614 0.87166 0.0
H1136 H 0.48446 0.62767 0.85786 0.0
H1137 H 0.50633 0.68208 0.98811 0.0
H1138 H 0.54653 0.65586 0.81193 0.0
H1139 H 0.56782 0.62994 0.75749 0.0
H1140 H 0.61259 0.63477 0.91003 0.0
H1141 H 0.59145 0.66054 0.9658 0.0
C1142 C 0.5531 0.76136 0.04493 0.0
C1143 C 0.5652 0.75701 0.09994 0.0
C1144 C 0.55129 0.74688 0.99529 0.0
C1145 C 0.56102 0.72786 1.00196 0.0
C1146 C 0.57659 0.72573 0.04848 0.0
C1147 C 0.57897 0.74054 0.09676 0.0
C1148 C 0.55106 0.70909 0.97652 0.0
C1149 C 0.5628 0.69439 0.94388 0.0
C1150 C 0.53039 0.70455 0.99225 0.0
C1151 C 0.51759 0.71823 0.03258 0.0
C1152 C 0.52239 0.72158 0.0985 0.0
C1153 C 0.51002 0.73417 0.13662 0.0
C1154 C 0.49289 0.74358 0.10921 0.0
C1155 C 0.48797 0.74024 0.04377 0.0
C1156 C 0.50019 0.7275 1.00559 0.0
C1157 C 0.52342 0.61406 0.95983 0.0
C1158 C 0.50608 0.61182 0.92003 0.0
C1159 C 0.53268 0.63326 0.96694 0.0
C1160 C 0.52462 0.6504 0.93454 0.0
C1161 C 0.50699 0.64826 0.89628 0.0
C1162 C 0.49785 0.62909 0.88875 0.0
C1163 C 0.53384 0.67084 0.94374 0.0
C1164 C 0.52197 0.68571 0.97436 0.0
C1165 C 0.5544 0.67524 0.92722 0.0
C1166 C 0.56734 0.66004 0.89322 0.0
C1167 C 0.56086 0.6513 0.83404 0.0
C1168 C 0.5729 0.63666 0.80292 0.0
C1169 C 0.59152 0.63068 0.83036 0.0
C1170 C 0.59816 0.63941 0.88884 0.0
C1171 C 0.58618 0.65407 0.92015 0.0
H1172 H 0.6008 0.61931 0.80627 0.0
H1173 H 0.48337 0.75338 0.13877 0.0
H1174 H 0.80084 0.59519 0.07348 0.0
H1175 H 0.81878 0.60019 0.96979 0.0
H1176 H 0.79669 0.54106 0.90523 0.0
H1177 H 0.77786 0.53696 1.00567 0.0
H1178 H 0.84891 0.58201 0.94238 0.0
H1179 H 0.80297 0.52807 0.75798 0.0
H1180 H 0.76843 0.52687 0.71032 0.0
H1181 H 0.75886 0.58966 0.76324 0.0
H1182 H 0.79351 0.59145 0.8102 0.0
H1183 H 0.90594 0.50274 0.84909 0.0
H1184 H 0.88013 0.5272 0.88292 0.0
H1185 H 0.87025 0.5447 0.68217 0.0
H1186 H 0.89562 0.51928 0.64794 0.0
H1187 H 0.83559 0.54363 0.73843 0.0
H1188 H 0.89493 0.5784 0.78818 0.0
H1189 H 0.93041 0.58442 0.82453 0.0
H1190 H 0.91341 0.56962 0.02121 0.0
H1191 H 0.87792 0.56311 0.98608 0.0
C1192 C 0.79913 0.5838 0.03552 0.0
C1193 C 0.78811 0.56565 0.04745 0.0
C1194 C 0.80943 0.58659 0.97635 0.0
C1195 C 0.80935 0.57098 0.92907 0.0
C1196 C 0.79677 0.5537 0.93924 0.0
C1197 C 0.78606 0.55121 0.99739 0.0
C1198 C 0.82554 0.57011 0.87795 0.0
C1199 C 0.84585 0.57404 0.89714 0.0
C1200 C 0.82189 0.56099 0.81631 0.0
C1201 C 0.80097 0.55991 0.78772 0.0
C1202 C 0.79364 0.54173 0.75892 0.0
C1203 C 0.77398 0.54092 0.73215 0.0
C1204 C 0.76146 0.55817 0.73375 0.0
C1205 C 0.76857 0.57629 0.76212 0.0
C1206 C 0.78822 0.5772 0.78894 0.0
C1207 C 0.89826 0.5118 0.81223 0.0
C1208 C 0.90284 0.50929 0.7461 0.0
C1209 C 0.88366 0.52595 0.83152 0.0
C1210 C 0.87372 0.53834 0.78526 0.0
C1211 C 0.87791 0.53552 0.71877 0.0
C1212 C 0.89234 0.52099 0.69928 0.0
C1213 C 0.85831 0.55332 0.80789 0.0
C1214 C 0.8384 0.55229 0.78255 0.0
C1215 C 0.86235 0.56608 0.86205 0.0
C1216 C 0.88365 0.57032 0.88435 0.0
C1217 C 0.89874 0.57637 0.83919 0.0
C1218 C 0.91887 0.57985 0.85958 0.0
C1219 C 0.92413 0.57742 0.92512 0.0
C1220 C 0.90928 0.57155 0.97046 0.0
C1221 C 0.88912 0.56801 0.95034 0.0
H1222 H 0.93972 0.58007 0.94076 0.0
H1223 H 0.74623 0.5575 0.71303 0.0
H1224 H 1.00668 0.24673 0.92687 0.0
H1225 H 1.00289 0.21802 0.85034 0.0
H1226 H 0.05682 0.18991 0.93142 0.0
H1227 H 0.06107 0.21875 1.00537 0.0
H1228 H 0.05664 0.18181 0.80973 0.0
H1229 H 1.00581 0.17695 0.97933 0.0
H1230 H 0.97656 0.18856 0.0452 0.0
H1231 H 0.93932 0.192 0.87298 0.0
H1232 H 0.96846 0.18064 0.80598 0.0
H1233 H 1.00493 0.07471 0.7901 0.0
H1234 H 1.00772 0.10895 0.83657 0.0
H1235 H 0.02885 0.13243 0.65167 0.0
H1236 H 0.02683 0.09778 0.60544 0.0
H1237 H 0.99035 0.14451 0.81498 0.0
H1238 H 0.06281 0.17136 0.67942 0.0
H1239 H 0.09305 0.15628 0.62629 0.0
H1240 H 0.08901 0.10383 0.7527 0.0
H1241 H 0.05897 0.11873 0.80709 0.0
C1242 C 0.018 0.23468 0.92716 0.0
C1243 C 0.03404 0.235 0.97302 0.0
C1244 C 0.0157 0.21808 0.88385 0.0
C1245 C 0.02929 0.20136 0.88567 0.0
C1246 C 0.04599 0.20239 0.92873 0.0
C1247 C 0.04835 0.21892 0.97153 0.0
C1248 C 0.02573 0.18223 0.84624 0.0
C1249 C 0.04204 0.17384 0.81046 0.0
C1250 C 1.00686 0.17135 0.84749 0.0
C1251 C 0.98937 0.17822 0.8876 0.0
C1252 C 0.99143 0.18034 0.95548 0.0
C1253 C 0.97487 0.18685 0.99301 0.0
C1254 C 0.95612 0.19109 0.96326 0.0
C1255 C 0.95387 0.18877 0.89593 0.0
C1256 C 0.9704 0.18229 0.85815 0.0
C1257 C 0.0104 0.08707 0.75931 0.0
C1258 C 0.01595 0.08335 0.69415 0.0
C1259 C 0.01173 0.10679 0.78585 0.0
C1260 C 0.01866 0.12343 0.74812 0.0
C1261 C 0.02373 0.11989 0.68236 0.0
C1262 C 0.02247 0.10006 0.65578 0.0
C1263 C 0.02126 0.14415 0.77891 0.0
C1264 C 1.0048 0.15275 0.81316 0.0
C1265 C 0.04016 0.1549 0.77794 0.0
C1266 C 0.05856 0.14609 0.74683 0.0
C1267 C 0.06847 0.15667 0.69606 0.0
C1268 C 0.08555 0.14814 0.66571 0.0
C1269 C 0.09291 0.12909 0.68599 0.0
C1270 C 0.08327 0.11856 0.73691 0.0
C1271 C 0.06622 0.12704 0.7675 0.0
H1272 H 0.10611 0.1225 0.66231 0.0
H1273 H 0.94331 0.19611 0.9924 0.0
H1274 H 0.28744 0.02701 0.9069 0.0
H1275 H 0.31729 0.02696 0.83403 0.0
H1276 H 0.35246 0.05937 0.97925 0.0
H1277 H 0.3227 0.06007 0.05056 0.0
H1278 H 0.36326 0.07298 0.86555 0.0
H1279 H 0.35394 1.00543 0.95867 0.0
H1280 H 0.33519 0.9733 0.98147 0.0
H1281 H 0.33039 0.96141 0.77623 0.0
H1282 H 0.3489 0.99363 0.75223 0.0
H1283 H 0.46557 0.04469 0.81008 0.0
H1284 H 0.43107 0.04829 0.85299 0.0
H1285 H 0.40633 0.02066 0.67916 0.0
H1286 H 0.44103 0.01696 0.63537 0.0
H1287 H 0.3881 1.00532 0.79088 0.0
H1288 H 0.4024 0.07141 0.70085 0.0
H1289 H 0.42328 0.10249 0.68282 0.0
H1290 H 0.42002 0.11669 0.88674 0.0
H1291 H 0.39944 0.08547 0.90625 0.0
C1292 C 0.3014 0.03455 0.9225 0.0
C1293 C 0.3027 0.04334 0.98494 0.0
C1294 C 0.31857 0.0343 0.88113 0.0
C1295 C 0.33743 0.04276 0.90144 0.0
C1296 C 0.33828 0.05261 0.96218 0.0
C1297 C 0.3212 0.05291 1.00321 0.0
C1298 C 0.3566 0.04063 0.86184 0.0
C1299 C 0.36866 0.05815 0.84952 0.0
C1300 C 0.36368 0.02139 0.83931 0.0
C1301 C 0.35257 1.00205 0.85365 0.0
C1302 C 0.34875 0.99604 0.91841 0.0
C1303 C 0.33819 0.9778 0.93155 0.0
C1304 C 0.33154 0.96536 0.88032 0.0
C1305 C 0.3355 0.9711 0.81585 0.0
C1306 C 0.34603 0.98933 0.80245 0.0
C1307 C 0.45288 0.03944 0.78047 0.0
C1308 C 0.45625 0.03066 0.71878 0.0
C1309 C 0.43305 0.04156 0.80522 0.0
C1310 C 0.41597 0.03499 0.76914 0.0
C1311 C 0.41922 0.02593 0.70793 0.0
C1312 C 0.43911 0.0239 0.68284 0.0
C1313 C 0.39485 0.03758 0.79602 0.0
C1314 C 0.38249 0.02018 0.80597 0.0
C1315 C 0.38758 0.0569 0.81688 0.0
C1316 C 0.39947 0.07601 0.80507 0.0
C1317 C 0.40621 0.0811 0.74192 0.0
C1318 C 0.418 0.09874 0.73143 0.0
C1319 C 0.423 0.11153 0.78361 0.0
C1320 C 0.41615 0.10676 0.84636 0.0
C1321 C 0.4044 0.0891 0.85716 0.0
H1322 H 0.43216 0.12516 0.77541 0.0
H1323 H 0.32338 0.95124 0.89059 0.0
H1324 H 0.53187 0.30042 0.94272 0.0
H1325 H 0.5352 0.32938 0.86619 0.0
H1326 H 0.47917 0.35488 0.9401 0.0
H1327 H 0.47569 0.32603 0.01544 0.0
H1328 H 0.48088 0.36067 0.81125 0.0
H1329 H 0.52685 0.37137 0.99364 0.0
H1330 H 0.55546 0.36241 0.06668 0.0
H1331 H 0.59643 0.36112 0.90327 0.0
H1332 H 0.56798 0.36982 0.82914 0.0
H1333 H 0.52962 0.47126 0.78843 0.0
H1334 H 0.52644 0.43762 0.83927 0.0
H1335 H 0.50445 0.41272 0.65738 0.0
H1336 H 0.50622 0.4468 0.60804 0.0
H1337 H 0.5431 0.40404 0.82997 0.0
H1338 H 0.48075 0.36887 0.67384 0.0
H1339 H 0.45169 0.37919 0.60444 0.0
H1340 H 0.44175 0.43179 0.72531 0.0
H1341 H 0.47075 0.42175 0.79555 0.0
C1342 C 0.52007 0.31199 0.94168 0.0
C1343 C 0.50359 0.3109 0.98575 0.0
C1344 C 0.52207 0.32868 0.89824 0.0
C1345 C 0.50759 0.34464 0.89762 0.0
C1346 C 0.49062 0.34294 0.93929 0.0
C1347 C 0.48869 0.32641 0.98276 0.0
C1348 C 0.51043 0.36367 0.85678 0.0
C1349 C 0.49456 0.37008 0.81521 0.0
C1350 C 0.52818 0.37619 0.86137 0.0
C1351 C 0.54526 0.371 0.90583 0.0
C1352 C 0.54194 0.36902 0.97326 0.0
C1353 C 0.55812 0.36402 0.01485 0.0
C1354 C 0.57774 0.36113 0.9896 0.0
C1355 C 0.58122 0.36331 0.92273 0.0
C1356 C 0.56507 0.36828 0.88092 0.0
C1357 C 0.52372 0.45871 0.75954 0.0
C1358 C 0.5178 0.46195 0.69441 0.0
C1359 C 0.52218 0.43926 0.7885 0.0
C1360 C 0.51499 0.42223 0.753 0.0
C1361 C 0.50962 0.42538 0.68711 0.0
C1362 C 0.51085 0.44497 0.65842 0.0
C1363 C 0.51328 0.40147 0.78559 0.0
C1364 C 0.52945 0.39463 0.82545 0.0
C1365 C 0.49569 0.3887 0.78004 0.0
C1366 C 0.47788 0.39458 0.73972 0.0
C1367 C 0.47225 0.38255 0.68584 0.0
C1368 C 0.45586 0.3884 0.64626 0.0
C1369 C 0.4449 0.40616 0.66046 0.0
C1370 C 0.45029 0.41808 0.71437 0.0
C1371 C 0.46669 0.41233 0.75405 0.0
H1372 H 0.43223 0.41068 0.62973 0.0
H1373 H 0.59025 0.35727 0.02187 0.0
H1374 H 0.23891 0.52706 0.941 0.0
H1375 H 0.20937 0.53144 0.86801 0.0
H1376 H 0.18486 0.47341 0.93314 0.0
H1377 H 0.21445 0.46874 1.00391 0.0
H1378 H 0.17671 0.47739 0.80988 0.0
H1379 H 0.16971 0.52113 0.99889 0.0
H1380 H 0.18029 0.54876 0.07371 0.0
H1381 H 0.1798 0.5919 0.91526 0.0
H1382 H 0.16945 0.56445 0.83935 0.0
H1383 H 0.06703 0.52739 0.80639 0.0
H1384 H 0.10102 0.52341 0.85394 0.0
H1385 H 0.12395 0.50328 0.66775 0.0
H1386 H 0.08946 0.50485 0.6227 0.0
H1387 H 0.13493 0.53967 0.84281 0.0
H1388 H 0.16642 0.47792 0.67607 0.0
H1389 H 0.15439 0.44935 0.60715 0.0
H1390 H 0.10327 0.43962 0.73483 0.0
H1391 H 0.11499 0.46816 0.80466 0.0
C1392 C 0.22748 0.51503 0.93841 0.0
C1393 C 0.22899 0.49764 0.97886 0.0
C1394 C 0.21043 0.51764 0.89721 0.0
C1395 C 0.19451 0.50296 0.89581 0.0
C1396 C 0.19673 0.48505 0.93322 0.0
C1397 C 0.21369 0.48243 0.97405 0.0
C1398 C 0.17499 0.50647 0.85883 0.0
C1399 C 0.16764 0.49108 0.81695 0.0
C1400 C 0.1629 0.52421 0.86781 0.0
C1401 C 0.16904 0.54071 0.91338 0.0
C1402 C 0.172 0.53648 0.97997 0.0
C1403 C 0.17793 0.55211 0.02257 0.0
C1404 C 0.18078 0.57206 0.99922 0.0
C1405 C 0.17763 0.57644 0.93325 0.0
C1406 C 0.17173 0.56085 0.89043 0.0
C1407 C 0.07919 0.52154 0.77612 0.0
C1408 C 0.07533 0.51604 0.71108 0.0
C1409 C 0.09882 0.5196 0.80307 0.0
C1410 C 0.11535 0.51264 0.7652 0.0
C1411 C 0.1116 0.50797 0.69927 0.0
C1412 C 0.09181 0.5092 0.67306 0.0
C1413 C 0.13628 0.51032 0.79504 0.0
C1414 C 0.14398 0.52601 0.83533 0.0
C1415 C 0.14851 0.49265 0.78563 0.0
C1416 C 0.14155 0.47517 0.74533 0.0
C1417 C 0.15268 0.46958 0.68964 0.0
C1418 C 0.14587 0.45347 0.65033 0.0
C1419 C 0.12804 0.44272 0.6666 0.0
C1420 C 0.11701 0.44803 0.72229 0.0
C1421 C 0.12371 0.46418 0.76171 0.0
H1422 H 0.12278 0.43025 0.6361 0.0
H1423 H 0.18537 0.58414 0.03227 0.0
H1424 H 0.95953 0.81772 0.31855 0.0
H1425 H 0.96643 0.85034 0.37224 0.0
H1426 H 0.03102 0.8378 0.36933 0.0
H1427 H 0.02425 0.80514 0.31281 0.0
H1428 H 0.01275 0.85665 0.49479 0.0
H1429 H 0.02036 0.86946 0.26404 0.0
H1430 H 0.01042 0.86759 0.14822 0.0
H1431 H 0.9532 0.89644 0.19184 0.0
H1432 H 0.96295 0.89872 0.30794 0.0
H1433 H 0.03956 0.96174 0.56392 0.0
H1434 H 0.03841 0.92717 0.51746 0.0
H1435 H 0.97537 0.93605 0.46332 0.0
H1436 H 0.97632 0.97029 0.51036 0.0
H1437 H 0.99604 0.91852 0.36437 0.0
H1438 H 0.98765 0.9064 0.5922 0.0
H1439 H 0.99619 0.90858 0.70874 0.0
H1440 H 0.05289 0.87752 0.67406 0.0
H1441 H 0.04477 0.87546 0.5567 0.0
C1442 C 0.97525 0.82172 0.32969 0.0
C1443 C 0.99133 0.80874 0.31049 0.0
C1444 C 0.97915 0.84045 0.36056 0.0
C1445 C 0.99925 0.84674 0.37432 0.0
C1446 C 0.01536 0.83332 0.3592 0.0
C1447 C 0.01146 0.81455 0.32731 0.0
C1448 C 1.00308 0.86779 0.401 0.0
C1449 C 0.00955 0.8702 0.46587 0.0
C1450 C 0.99832 0.88554 0.36419 0.0
C1451 C 0.99231 0.8841 0.29466 0.0
C1452 C 1.0056 0.87528 0.24897 0.0
C1453 C 1.00003 0.8742 0.18327 0.0
C1454 C 0.98112 0.88174 0.16273 0.0
C1455 C 0.96782 0.89056 0.20783 0.0
C1456 C 0.97341 0.89185 0.27353 0.0
C1457 C 0.02543 0.95639 0.5421 0.0
C1458 C 1.00807 0.96913 0.54065 0.0
C1459 C 0.02478 0.93651 0.51563 0.0
C1460 C 1.00677 0.92879 0.48672 0.0
C1461 C 0.98951 0.94153 0.48484 0.0
C1462 C 0.9901 0.96127 0.51183 0.0
C1463 C 1.00578 0.90754 0.45848 0.0
C1464 C 0.99962 0.90506 0.39326 0.0
C1465 C 0.01072 0.88976 0.49522 0.0
C1466 C 0.01573 0.89101 0.56557 0.0
C1467 C 1.00204 0.90021 0.6093 0.0
C1468 C 1.00679 0.90139 0.67558 0.0
C1469 C 0.02512 0.89323 0.69891 0.0
C1470 C 0.03871 0.88386 0.65591 0.0
C1471 C 0.03405 0.88268 0.58948 0.0
H1472 H 0.02877 0.89412 0.75028 0.0
H1473 H 0.97681 0.88082 0.11184 0.0
H1474 H 0.71156 0.97144 0.27907 0.0
H1475 H 0.68291 0.97676 0.35357 0.0
H1476 H 0.70155 0.0397 0.37924 0.0
H1477 H 0.73033 0.0344 0.30403 0.0
H1478 H 0.67723 0.98832 0.47906 0.0
H1479 H 0.65707 0.06888 0.38434 0.0
H1480 H 0.66179 0.09034 0.28616 0.0
H1481 H 0.6661 0.03634 0.16795 0.0
H1482 H 0.6611 0.0146 0.26522 0.0
H1483 H 0.59005 0.0184 0.6627 0.0
H1484 H 0.6238 0.0185 0.61232 0.0
H1485 H 0.59564 0.01993 0.4219 0.0
H1486 H 0.56208 0.0226 0.47245 0.0
H1487 H 0.62686 0.0408 0.41145 0.0
H1488 H 0.61703 0.97335 0.51279 0.0
H1489 H 0.61028 0.95111 0.60807 0.0
H1490 H 0.66332 0.97559 0.70464 0.0
H1491 H 0.67026 0.99807 0.61025 0.0
C1492 C 0.70978 0.98634 0.30145 0.0
C1493 C 0.72321 1.00252 0.28533 0.0
C1494 C 0.69339 0.98935 0.34428 0.0
C1495 C 0.6898 1.00869 0.37169 0.0
C1496 C 0.70381 0.02466 0.35834 0.0
C1497 C 0.72038 0.02159 0.31575 0.0
C1498 C 0.67062 0.0123 0.41002 0.0
C1499 C 0.66626 0.99987 0.46444 0.0
C1500 C 0.6561 0.02722 0.39109 0.0
C1501 C 0.65901 0.04014 0.33221 0.0
C1502 C 0.659 0.06161 0.33736 0.0
C1503 C 0.66171 0.07381 0.28188 0.0
C1504 C 0.66434 0.06471 0.22091 0.0
C1505 C 0.66416 0.04338 0.21524 0.0
C1506 C 0.66141 0.03111 0.27055 0.0
C1507 C 0.59103 0.01944 0.61017 0.0
C1508 C 0.5732 0.02086 0.57191 0.0
C1509 C 0.61046 0.01895 0.58107 0.0
C1510 C 0.61259 0.01866 0.5127 0.0
C1511 C 0.59472 0.02012 0.4746 0.0
C1512 C 0.57539 0.02144 0.50369 0.0
C1513 C 0.63313 0.01657 0.4802 0.0
C1514 C 0.63782 0.02933 0.42672 0.0
C1515 C 0.64777 1.00168 0.49938 0.0
C1516 C 0.64409 0.98745 0.55465 0.0
C1517 C 0.62726 0.97394 0.55433 0.0
C1518 C 0.62337 0.96134 0.60824 0.0
C1519 C 0.63632 0.96199 0.66247 0.0
C1520 C 0.65328 0.97512 0.6627 0.0
C1521 C 0.65722 0.98776 0.60896 0.0
H1522 H 0.63324 0.9523 0.70428 0.0
H1523 H 0.66645 0.07419 0.17803 0.0
H1524 H 0.57335 0.72891 0.32239 0.0
H1525 H 0.56722 0.6962 0.37723 0.0
H1526 H 0.50274 0.70913 0.38523 0.0
H1527 H 0.50878 0.74198 0.32828 0.0
H1528 H 0.51998 0.68878 0.50356 0.0
H1529 H 0.51345 0.67763 0.2744 0.0
H1530 H 0.5227 0.68027 0.15822 0.0
H1531 H 0.58051 0.65191 0.19784 0.0
H1532 H 0.57141 0.64876 0.31431 0.0
H1533 H 0.49263 0.58254 0.55551 0.0
H1534 H 0.49449 0.61756 0.51236 0.0
H1535 H 0.55901 0.61033 0.47744 0.0
H1536 H 0.55735 0.57567 0.52258 0.0
H1537 H 0.53899 0.62822 0.37142 0.0
H1538 H 0.5427 0.63754 0.6039 0.0
H1539 H 0.53056 0.63347 0.71699 0.0
H1540 H 0.4755 0.6658 0.6694 0.0
H1541 H 0.48705 0.66961 0.55553 0.0
C1542 C 0.55787 0.72506 0.33695 0.0
C1543 C 0.54157 0.73818 0.32063 0.0
C1544 C 0.55438 0.70623 0.36813 0.0
C1545 C 0.53449 0.69993 0.38479 0.0
C1546 C 0.51825 0.71357 0.37289 0.0
C1547 C 0.52173 0.73247 0.34082 0.0
C1548 C 0.53092 0.67859 0.41034 0.0
C1549 C 0.52381 0.67553 0.47432 0.0
C1550 C 0.53612 0.66117 0.37281 0.0
C1551 C 0.54184 0.66316 0.30312 0.0
C1552 C 0.5282 0.67209 0.25841 0.0
C1553 C 0.53339 0.67364 0.19249 0.0
C1554 C 0.55227 0.66647 0.17071 0.0
C1555 C 0.56591 0.65753 0.2148 0.0
C1556 C 0.5607 0.65575 0.28073 0.0
C1557 C 0.50727 0.58835 0.5388 0.0
C1558 C 0.52484 0.57592 0.54188 0.0
C1559 C 0.5083 0.60849 0.5141 0.0
C1560 C 0.52691 0.61678 0.49141 0.0
C1561 C 0.54442 0.60438 0.49407 0.0
C1562 C 0.54343 0.58439 0.51962 0.0
C1563 C 0.52821 0.63831 0.46506 0.0
C1564 C 0.53502 0.64141 0.40077 0.0
C1565 C 0.52245 0.65569 0.50218 0.0
C1566 C 0.51564 0.65366 0.57091 0.0
C1567 C 0.52792 0.64363 0.61735 0.0
C1568 C 0.52117 0.6414 0.68164 0.0
C1569 C 0.50228 0.64936 0.70032 0.0
C1570 C 0.49012 0.65961 0.65481 0.0
C1571 C 0.49675 0.6618 0.59037 0.0
H1572 H 0.49707 0.64761 0.75004 0.0
H1573 H 0.55628 0.66775 0.11965 0.0
H1574 H 0.79535 0.53788 0.35439 0.0
H1575 H 0.82504 0.53137 0.4234 0.0
H1576 H 0.86489 0.54289 0.25963 0.0
H1577 H 0.83586 0.54583 0.18937 0.0
H1578 H 0.88215 0.51697 0.31595 0.0
H1579 H 0.85107 0.57818 0.40879 0.0
H1580 H 0.82411 0.59832 0.4626 0.0
H1581 H 0.82363 0.55609 0.62352 0.0
H1582 H 0.85042 0.53557 0.57029 0.0
H1583 H 0.9716 0.55334 0.4859 0.0
H1584 H 0.93795 0.55475 0.43371 0.0
H1585 H 0.91631 0.5068 0.56106 0.0
H1586 H 0.94994 0.50553 0.61381 0.0
H1587 H 0.8892 0.54763 0.53561 0.0
H1588 H 0.92263 0.48843 0.43953 0.0
H1589 H 0.95249 0.47211 0.38827 0.0
H1590 H 0.95033 0.51577 0.23143 0.0
H1591 H 0.92067 0.53258 0.28248 0.0
C1592 C 0.81038 0.53869 0.33249 0.0
C1593 C 0.81266 0.54315 0.26544 0.0
C1594 C 0.82758 0.53537 0.37284 0.0
C1595 C 0.84768 0.53724 0.34817 0.0
C1596 C 0.84985 0.54138 0.28128 0.0
C1597 C 0.83283 0.54372 0.24071 0.0
C1598 C 0.86662 0.53462 0.38992 0.0
C1599 C 0.88349 0.52405 0.36351 0.0
C1600 C 0.8688 0.54302 0.45364 0.0
C1601 C 0.85253 0.5552 0.48512 0.0
C1602 C 0.84509 0.57311 0.45539 0.0
C1603 C 0.82987 0.5846 0.48584 0.0
C1604 C 0.82212 0.57844 0.54632 0.0
C1605 C 0.82961 0.5608 0.5766 0.0
C1606 C 0.8448 0.54924 0.5463 0.0
C1607 C 0.95965 0.54343 0.50389 0.0
C1608 C 0.96356 0.52952 0.55482 0.0
C1609 C 0.94036 0.54417 0.47374 0.0
C1610 C 0.92444 0.53112 0.49425 0.0
C1611 C 0.92817 0.51736 0.54548 0.0
C1612 C 0.9475 0.51651 0.57515 0.0
C1613 C 0.90435 0.53107 0.45954 0.0
C1614 C 0.88747 0.54082 0.48771 0.0
C1615 C 0.90221 0.52239 0.39699 0.0
C1616 C 0.91956 0.51186 0.36509 0.0
C1617 C 0.92861 0.49463 0.39434 0.0
C1618 C 0.94548 0.48528 0.3653 0.0
C1619 C 0.95333 0.49292 0.30669 0.0
C1620 C 0.94425 0.50988 0.27685 0.0
C1621 C 0.92739 0.51931 0.30578 0.0
H1622 H 0.96641 0.48569 0.28434 0.0
H1623 H 0.81035 0.58737 0.56983 0.0
loop_
_geom_bond_atom_site_label_1
_geom_bond_atom_site_label_2
_geom_bond_distance
_geom_bond_site_symmetry_2
_ccdc_geom_bond_type
H0 C3 0.929 . S
H1 C6 0.929 . S
H2 C8 0.930 . S
C3 H0 0.929 . S
C3 C4 1.398 . S
C3 C5 1.396 . S
C4 C3 1.398 . S
C4 C8 1.407 . S
C5 C3 1.396 . S
C5 C6 1.394 . S
C6 H1 0.929 . S
C6 C5 1.394 . S
C6 C7 1.382 . S
C7 C6 1.382 . S
C7 C8 1.392 . S
C7 N9 1.420 . S
C8 H2 0.930 . S
C8 C4 1.407 . S
C8 C7 1.392 . S
N9 C7 1.420 . S
N9 C10 1.244 . S
C10 N9 1.244 . S
H11 C14 0.929 . S
H12 C17 0.929 . S
H13 C19 0.930 . S
C14 H11 0.929 . S
C14 C15 1.398 . S
C14 C16 1.396 . S
C15 C14 1.398 . S
C15 C19 1.407 . S
C16 C14 1.396 . S
C16 C17 1.394 . S
C17 H12 0.929 . S
C17 C16 1.394 . S
C17 C18 1.382 . S
C18 C17 1.382 . S
C18 C19 1.392 . S
C18 N20 1.420 . S
C19 H13 0.930 . S
C19 C15 1.407 . S
C19 C18 1.392 . S
N20 C18 1.420 . S
N20 C21 1.244 . S
C21 N20 1.244 . S
H22 C25 0.929 . S
H23 C28 0.929 . S
H24 C30 0.930 . S
C25 H22 0.929 . S
C25 C26 1.398 . S
C25 C27 1.396 . S
C26 C25 1.398 . S
C26 C30 1.407 . S
C27 C25 1.396 . S
C27 C28 1.394 . S
C28 H23 0.929 . S
C28 C27 1.394 . S
C28 C29 1.382 . S
C29 C28 1.382 . S
C29 C30 1.392 . S
C29 N31 1.420 . S
C30 H24 0.930 . S
C30 C26 1.407 . S
C30 C29 1.392 . S
N31 C29 1.420 . S
N31 C32 1.244 . S
C32 N31 1.244 . S
H33 C36 0.929 . S
H34 C39 0.929 . S
H35 C41 0.930 . S
C36 H33 0.929 . S
C36 C37 1.398 . S
C36 C38 1.396 . S
C37 C36 1.398 . S
C37 C41 1.407 . S
C38 C36 1.396 . S
C38 C39 1.394 . S
C39 H34 0.929 . S
C39 C38 1.394 . S
C39 C40 1.382 . S
C40 C39 1.382 . S
C40 C41 1.392 . S
C40 N42 1.420 . S
C41 H35 0.930 . S
C41 C37 1.407 . S
C41 C40 1.392 . S
N42 C40 1.420 . S
N42 C43 1.244 . S
C43 N42 1.244 . S
H44 C47 0.929 . S
H45 C50 0.929 . S
H46 C52 0.930 . S
C47 H44 0.929 . S
C47 C48 1.398 1_554 S
C47 C49 1.396 . S
C48 C47 1.398 1_556 S
C48 C52 1.407 . S
C49 C47 1.396 . S
C49 C50 1.394 . S
C50 H45 0.929 . S
C50 C49 1.394 . S
C50 C51 1.382 . S
C51 C50 1.382 . S
C51 C52 1.392 1_554 S
C51 N53 1.420 . S
C52 H46 0.930 . S
C52 C48 1.407 . S
C52 C51 1.392 1_556 S
N53 C51 1.420 . S
N53 C54 1.244 . S
C54 N53 1.244 . S
H55 C58 0.929 . S
H56 C61 0.929 . S
H57 C63 0.930 . S
C58 H55 0.929 . S
C58 C59 1.398 1_554 S
C58 C60 1.396 . S
C59 C58 1.398 1_556 S
C59 C63 1.407 . S
C60 C58 1.396 . S
C60 C61 1.394 . S
C61 H56 0.929 . S
C61 C60 1.394 . S
C61 C62 1.382 . S
C62 C61 1.382 . S
C62 C63 1.392 1_554 S
C62 N64 1.420 . S
C63 H57 0.930 . S
C63 C59 1.407 . S
C63 C62 1.392 1_556 S
N64 C62 1.420 . S
N64 C65 1.244 . S
C65 N64 1.244 . S
H66 C69 0.929 . S
H67 C72 0.929 . S
H68 C74 0.930 . S
C69 H66 0.929 . S
C69 C70 1.398 1_554 S
C69 C71 1.396 . S
C70 C69 1.398 1_556 S
C70 C74 1.407 . S
C71 C69 1.396 . S
C71 C72 1.394 . S
C72 H67 0.929 . S
C72 C71 1.394 . S
C72 C73 1.382 . S
C73 C72 1.382 . S
C73 C74 1.392 1_554 S
C73 N75 1.420 . S
C74 H68 0.930 . S
C74 C70 1.407 . S
C74 C73 1.392 1_556 S
N75 C73 1.420 . S
N75 C76 1.244 . S
C76 N75 1.244 . S
H77 C80 0.929 . S
H78 C83 0.929 . S
H79 C85 0.930 . S
C80 H77 0.929 . S
C80 C81 1.398 1_554 S
C80 C82 1.396 . S
C81 C80 1.398 1_556 S
C81 C85 1.407 . S
C82 C80 1.396 . S
C82 C83 1.394 . S
C83 H78 0.929 . S
C83 C82 1.394 . S
C83 C84 1.382 . S
C84 C83 1.382 . S
C84 C85 1.392 1_554 S
C84 N86 1.420 . S
C85 H79 0.930 . S
C85 C81 1.407 . S
C85 C84 1.392 1_556 S
N86 C84 1.420 . S
N86 C87 1.244 . S
C87 N86 1.244 . S
Eu88 N117 2.600 . S
Eu88 N123 2.562 . S
Eu88 O132 2.462 1_655 S
Eu88 O133 2.373 1_545 S
Eu88 O135 2.432 . S
Eu88 O136 2.291 1_655 S
Eu88 O140 2.335 1_655 S
Eu88 O143 2.372 . S
Eu88 C152 2.787 . S
C89 N90 1.365 . S
C89 C92 1.405 . S
C89 C96 1.448 . S
N90 C89 1.365 . S
N90 C93 1.322 . S
N90 Eu99 2.600 1_545 S
C91 C93 1.407 . S
C91 C94 1.367 . S
C91 H111 0.931 . S
C92 C89 1.405 . S
C92 C94 1.403 . S
C92 C98 1.439 . S
C93 N90 1.322 . S
C93 C91 1.407 . S
C93 H104 0.917 1_545 S
C94 C91 1.367 . S
C94 C92 1.403 . S
C94 H115 0.929 . S
C95 C96 1.430 . S
C95 C97 1.387 . S
C95 C101 1.404 . S
C96 C89 1.448 . S
C96 C95 1.430 . S
C96 N100 1.351 . S
C97 C95 1.387 . S
C97 C98 1.374 . S
C97 H112 0.931 . S
C98 C92 1.439 . S
C98 C97 1.374 . S
C98 H113 0.931 . S
Eu99 N90 2.600 1_565 S
Eu99 N100 2.562 1_565 S
Eu99 O134 2.335 . S
Eu99 O137 2.372 . S
Eu99 O138 2.462 . S
Eu99 O139 2.373 1_565 S
Eu99 O141 2.432 . S
Eu99 O142 2.291 1_465 S
Eu99 C163 2.787 . S
N100 C96 1.351 . S
N100 Eu99 2.562 1_545 S
N100 C102 1.325 . S
C101 C95 1.404 . S
C101 C103 1.366 . S
C101 H109 0.930 . S
C102 N100 1.325 . S
C102 C103 1.416 . S
C102 H108 0.929 1_455 S
C103 C101 1.366 . S
C103 C102 1.416 . S
C103 H105 0.930 1_455 S
H104 C93 0.917 1_565 S
H105 C103 0.930 1_655 S
H106 C121 0.930 . S
H107 C128 0.933 . S
H108 C102 0.929 1_655 S
H109 C101 0.930 . S
H110 C124 0.929 . S
H111 C91 0.931 . S
H112 C97 0.931 . S
H113 C98 0.931 . S
H114 C119 0.931 . S
H115 C94 0.929 . S
H116 C127 0.930 . S
N117 Eu88 2.600 . S
N117 C118 1.365 . S
N117 C121 1.319 . S
C118 N117 1.365 . S
C118 C120 1.405 1_545 S
C118 C126 1.448 . S
C119 H114 0.931 . S
C119 C121 1.397 . S
C119 C122 1.388 . S
C120 C118 1.405 1_565 S
C120 C122 1.399 1_565 S
C120 C153 1.439 . S
C121 H106 0.930 . S
C121 N117 1.319 . S
C121 C119 1.397 . S
C122 C119 1.388 . S
C122 C120 1.399 1_545 S
C122 H129 0.916 1_545 S
N123 Eu88 2.562 . S
N123 C124 1.325 1_655 S
N123 C126 1.351 . S
C124 H110 0.929 . S
C124 N123 1.325 1_455 S
C124 C128 1.402 1_545 S
C125 C126 1.430 1_565 S
C125 C127 1.404 . S
C125 C154 1.387 . S
C126 C118 1.448 . S
C126 N123 1.351 . S
C126 C125 1.430 1_545 S
C127 H116 0.930 . S
C127 C125 1.404 . S
C127 C128 1.377 1_655 S
C128 H107 0.933 . S
C128 C124 1.402 1_565 S
C128 C127 1.377 1_455 S
H129 C122 0.916 1_565 S
H130 C153 0.931 . S
H131 C154 0.931 . S
O132 Eu88 2.462 1_455 S
O132 C152 1.252 1_455 S
O133 Eu88 2.373 1_565 S
O133 C144 1.249 . S
O134 Eu99 2.335 . S
O134 C144 1.264 1_455 S
O135 Eu88 2.432 . S
O135 C152 1.268 . S
O136 Eu88 2.291 1_455 S
O136 C151 1.255 . S
O137 Eu99 2.372 . S
O137 C151 1.257 1_565 S
O138 Eu99 2.462 . S
O138 C163 1.252 . S
O139 Eu99 2.373 1_545 S
O139 C155 1.249 . S
O140 Eu88 2.335 1_455 S
O140 C155 1.264 . S
O141 Eu99 2.432 . S
O141 C163 1.268 . S
O142 Eu99 2.291 1_645 S
O142 C162 1.255 . S
O143 Eu88 2.372 . S
O143 C162 1.257 . S
C144 O133 1.249 . S
C144 O134 1.264 1_655 S
C145 C148 1.382 . S
C145 C150 1.390 1_655 S
C145 C152 1.506 . S
C146 C147 1.435 . S
C146 C150 1.388 1_655 S
C147 C146 1.435 . S
C147 C149 1.372 . S
C147 H164 0.931 . S
C148 C145 1.382 . S
C148 C149 1.390 . S
C148 H165 0.931 . S
C149 C147 1.372 . S
C149 C148 1.390 . S
C149 H166 0.929 . S
C150 C145 1.390 1_455 S
C150 C146 1.388 1_455 S
C150 H167 0.930 . S
C151 O136 1.255 . S
C151 O137 1.257 1_545 S
C152 Eu88 2.787 . S
C152 O132 1.252 1_655 S
C152 O135 1.268 . S
C152 C145 1.506 . S
C153 C120 1.439 . S
C153 H130 0.931 . S
C153 C154 1.374 . S
C154 C125 1.387 . S
C154 H131 0.931 . S
C154 C153 1.374 . S
C155 O139 1.249 . S
C155 O140 1.264 . S
C156 C159 1.382 . S
C156 C160 1.390 . S
C156 C163 1.506 . S
C157 C158 1.398 . S
C157 C160 1.392 . S
C158 C157 1.398 . S
C158 C161 1.372 . S
C158 H168 0.931 . S
C159 C156 1.382 . S
C159 C161 1.390 . S
C159 H169 0.931 . S
C160 C156 1.390 . S
C160 C157 1.392 . S
C160 H170 0.930 1_455 S
C161 C158 1.372 . S
C161 C159 1.390 . S
C161 H171 0.929 . S
C162 O142 1.255 . S
C162 O143 1.257 . S
C163 Eu99 2.787 . S
C163 O138 1.252 . S
C163 O141 1.268 . S
C163 C156 1.506 . S
H164 C147 0.931 . S
H165 C148 0.931 . S
H166 C149 0.929 . S
H167 C150 0.930 . S
H168 C158 0.931 . S
H169 C159 0.931 . S
H170 C160 0.930 1_655 S
H171 C161 0.929 . S
Eu172 N201 2.600 . S
Eu172 N207 2.562 . S
Eu172 O216 2.462 . S
Eu172 O217 2.373 . S
Eu172 O219 2.432 . S
Eu172 O220 2.291 . S
Eu172 O224 2.335 1_545 S
Eu172 O227 2.372 . S
Eu172 C236 2.787 . S
C173 N174 1.365 . S
C173 C176 1.405 . S
C173 C180 1.448 . S
N174 C173 1.365 . S
N174 C177 1.319 . S
N174 Eu183 2.600 . S
C175 C177 1.397 . S
C175 C178 1.367 . S
C175 H195 0.931 . S
C176 C173 1.405 . S
C176 C178 1.403 . S
C176 C182 1.439 . S
C177 N174 1.319 . S
C177 C175 1.397 . S
C177 H188 0.930 . S
C178 C175 1.367 . S
C178 C176 1.403 . S
C178 H199 0.929 . S
C179 C180 1.430 . S
C179 C181 1.387 . S
C179 C185 1.404 . S
C180 C173 1.448 . S
C180 C179 1.430 . S
C180 N184 1.351 . S
C181 C179 1.387 . S
C181 C182 1.374 . S
C181 H196 0.931 . S
C182 C176 1.439 . S
C182 C181 1.374 . S
C182 H197 0.931 . S
Eu183 N174 2.600 . S
Eu183 N184 2.562 . S
Eu183 O218 2.335 1_565 S
Eu183 O221 2.372 . S
Eu183 O222 2.467 . S
Eu183 O223 2.373 . S
Eu183 O225 2.432 . S
Eu183 O226 2.291 1_565 S
Eu183 C247 2.787 . S
N184 C180 1.351 . S
N184 Eu183 2.562 . S
N184 C186 1.325 . S
C185 C179 1.404 . S
C185 C187 1.366 . S
C185 H193 0.930 . S
C186 N184 1.325 . S
C186 C187 1.416 . S
C186 H192 0.929 . S
C187 C185 1.366 . S
C187 C186 1.416 . S
C187 H189 0.930 . S
H188 C177 0.930 . S
H189 C187 0.930 . S
H190 C205 0.930 . S
H191 C212 0.930 . S
H192 C186 0.929 . S
H193 C185 0.930 . S
H194 C208 0.929 . S
H195 C175 0.931 . S
H196 C181 0.931 . S
H197 C182 0.931 . S
H198 C203 0.931 . S
H199 C178 0.929 . S
H200 C211 0.930 . S
N201 Eu172 2.600 . S
N201 C202 1.365 . S
N201 C205 1.319 . S
C202 N201 1.365 . S
C202 C204 1.405 . S
C202 C210 1.448 . S
C203 H198 0.931 . S
C203 C205 1.397 . S
C203 C206 1.367 . S
C204 C202 1.405 . S
C204 C206 1.403 . S
C204 C237 1.439 . S
C205 H190 0.930 . S
C205 N201 1.319 . S
C205 C203 1.397 . S
C206 C203 1.367 . S
C206 C204 1.403 . S
C206 H213 0.929 . S
N207 Eu172 2.562 . S
N207 C208 1.325 . S
N207 C210 1.351 . S
C208 H194 0.929 . S
C208 N207 1.325 . S
C208 C212 1.416 . S
C209 C210 1.430 . S
C209 C211 1.404 . S
C209 C238 1.387 . S
C210 C202 1.448 . S
C210 N207 1.351 . S
C210 C209 1.430 . S
C211 H200 0.930 . S
C211 C209 1.404 . S
C211 C212 1.366 . S
C212 H191 0.930 . S
C212 C208 1.416 . S
C212 C211 1.366 . S
H213 C206 0.929 . S
H214 C237 0.931 . S
H215 C238 0.931 . S
O216 Eu172 2.462 . S
O216 C236 1.252 . S
O217 Eu172 2.373 . S
O217 C228 1.249 . S
O218 Eu183 2.335 1_545 S
O218 C228 1.264 . S
O219 Eu172 2.432 . S
O219 C236 1.268 . S
O220 Eu172 2.291 . S
O220 C235 1.255 . S
O221 Eu183 2.372 . S
O221 C235 1.257 1_565 S
O222 Eu183 2.467 . S
O222 C247 1.256 . S
O223 Eu183 2.373 . S
O223 C239 1.249 . S
O224 Eu172 2.335 1_565 S
O224 C239 1.264 . S
O225 Eu183 2.432 . S
O225 C247 1.268 . S
O226 Eu183 2.291 1_545 S
O226 C246 1.255 . S
O227 Eu172 2.372 . S
O227 C246 1.257 . S
C228 O217 1.249 . S
C228 O218 1.264 . S
C229 C232 1.382 . S
C229 C234 1.390 . S
C229 C236 1.506 . S
C230 C231 1.398 . S
C230 C234 1.392 . S
C231 C230 1.398 . S
C231 C233 1.372 . S
C231 H248 0.931 . S
C232 C229 1.382 . S
C232 C233 1.390 . S
C232 H249 0.931 . S
C233 C231 1.372 . S
C233 C232 1.390 . S
C233 H250 0.929 1_556 S
C234 C229 1.390 . S
C234 C230 1.392 . S
C234 H251 0.930 . S
C235 O220 1.255 . S
C235 O221 1.257 1_545 S
C236 Eu172 2.787 . S
C236 O216 1.252 . S
C236 O219 1.268 . S
C236 C229 1.506 . S
C237 C204 1.439 . S
C237 H214 0.931 . S
C237 C238 1.374 . S
C238 C209 1.387 . S
C238 H215 0.931 . S
C238 C237 1.374 . S
C239 O223 1.249 . S
C239 O224 1.264 . S
C240 C243 1.388 . S
C240 C244 1.381 1_565 S
C240 C247 1.510 . S
C241 C242 1.398 . S
C241 C244 1.392 . S
C242 C241 1.398 . S
C242 C245 1.372 1_545 S
C242 H252 0.931 . S
C243 C240 1.388 . S
C243 C245 1.390 . S
C243 H253 0.931 . S
C244 C240 1.381 1_545 S
C244 C241 1.392 . S
C244 H254 0.930 . S
C245 C242 1.372 1_565 S
C245 C243 1.390 . S
C245 H255 0.929 . S
C246 O226 1.255 . S
C246 O227 1.257 . S
C247 Eu183 2.787 . S
C247 O222 1.256 . S
C247 O225 1.268 . S
C247 C240 1.510 . S
H248 C231 0.931 . S
H249 C232 0.931 . S
H250 C233 0.929 1_554 S
H251 C234 0.930 . S
H252 C242 0.931 . S
H253 C243 0.931 . S
H254 C244 0.930 . S
H255 C245 0.929 . S
Eu256 N285 2.600 . S
Eu256 N291 2.562 . S
Eu256 O300 2.462 . S
Eu256 O301 2.373 . S
Eu256 O303 2.432 . S
Eu256 O304 2.291 . S
Eu256 O308 2.335 . S
Eu256 O311 2.372 . S
Eu256 C320 2.787 . S
C257 N258 1.365 . S
C257 C260 1.405 . S
C257 C264 1.448 . S
N258 C257 1.365 . S
N258 C261 1.319 . S
N258 Eu267 2.600 . S
C259 C261 1.397 . S
C259 C262 1.367 . S
C259 H279 0.931 . S
C260 C257 1.405 . S
C260 C262 1.403 . S
C260 C266 1.439 . S
C261 N258 1.319 . S
C261 C259 1.397 . S
C261 H272 0.930 . S
C262 C259 1.367 . S
C262 C260 1.403 . S
C262 H283 0.929 . S
C263 C264 1.430 . S
C263 C265 1.387 . S
C263 C269 1.404 . S
C264 C257 1.448 . S
C264 C263 1.430 . S
C264 N268 1.351 . S
C265 C263 1.387 . S
C265 C266 1.374 . S
C265 H280 0.931 . S
C266 C260 1.439 . S
C266 C265 1.374 . S
C266 H281 0.931 . S
Eu267 N258 2.600 . S
Eu267 N268 2.562 . S
Eu267 O302 2.335 . S
Eu267 O305 2.372 . S
Eu267 O306 2.462 . S
Eu267 O307 2.373 . S
Eu267 O309 2.432 . S
Eu267 O310 2.291 . S
Eu267 C331 2.787 . S
N268 C264 1.351 . S
N268 Eu267 2.562 . S
N268 C270 1.325 . S
C269 C263 1.404 . S
C269 C271 1.366 . S
C269 H277 0.930 . S
C270 N268 1.325 . S
C270 C271 1.416 . S
C270 H276 0.929 . S
C271 C269 1.366 . S
C271 C270 1.416 . S
C271 H273 0.930 . S
H272 C261 0.930 . S
H273 C271 0.930 . S
H274 C289 0.930 . S
H275 C296 0.930 . S
H276 C270 0.929 . S
H277 C269 0.930 . S
H278 C292 0.929 . S
H279 C259 0.931 . S
H280 C265 0.931 . S
H281 C266 0.931 . S
H282 C287 0.931 . S
H283 C262 0.929 . S
H284 C295 0.930 . S
N285 Eu256 2.600 . S
N285 C286 1.365 . S
N285 C289 1.319 . S
C286 N285 1.365 . S
C286 C288 1.405 . S
C286 C294 1.448 . S
C287 H282 0.931 . S
C287 C289 1.397 . S
C287 C290 1.367 . S
C288 C286 1.405 . S
C288 C290 1.403 . S
C288 C321 1.439 . S
C289 H274 0.930 . S
C289 N285 1.319 . S
C289 C287 1.397 . S
C290 C287 1.367 . S
C290 C288 1.403 . S
C290 H297 0.929 . S
N291 Eu256 2.562 . S
N291 C292 1.325 . S
N291 C294 1.351 . S
C292 H278 0.929 . S
C292 N291 1.325 . S
C292 C296 1.416 . S
C293 C294 1.430 . S
C293 C295 1.404 . S
C293 C322 1.387 . S
C294 C286 1.448 . S
C294 N291 1.351 . S
C294 C293 1.430 . S
C295 H284 0.930 . S
C295 C293 1.404 . S
C295 C296 1.366 . S
C296 H275 0.930 . S
C296 C292 1.416 . S
C296 C295 1.366 . S
H297 C290 0.929 . S
H298 C321 0.931 . S
H299 C322 0.931 . S
O300 Eu256 2.462 . S
O300 C320 1.252 . S
O301 Eu256 2.373 . S
O301 C312 1.249 . S
O302 Eu267 2.335 . S
O302 C312 1.264 . S
O303 Eu256 2.432 . S
O303 C320 1.268 . S
O304 Eu256 2.291 . S
O304 C319 1.255 . S
O305 Eu267 2.372 . S
O305 C319 1.257 . S
O306 Eu267 2.462 . S
O306 C331 1.252 . S
O307 Eu267 2.373 . S
O307 C323 1.249 . S
O308 Eu256 2.335 . S
O308 C323 1.264 . S
O309 Eu267 2.432 . S
O309 C331 1.268 . S
O310 Eu267 2.291 . S
O310 C330 1.255 . S
O311 Eu256 2.372 . S
O311 C330 1.257 . S
C312 O301 1.249 . S
C312 O302 1.264 . S
C313 C316 1.382 . S
C313 C318 1.390 . S
C313 C320 1.506 . S
C314 C315 1.398 . S
C314 C318 1.392 . S
C315 C314 1.398 . S
C315 C317 1.372 . S
C315 H332 0.931 . S
C316 C313 1.382 . S
C316 C317 1.390 . S
C316 H333 0.931 . S
C317 C315 1.372 . S
C317 C316 1.390 . S
C317 H334 0.929 . S
C318 C313 1.390 . S
C318 C314 1.392 . S
C318 H335 0.930 . S
C319 O304 1.255 . S
C319 O305 1.257 . S
C320 Eu256 2.787 . S
C320 O300 1.252 . S
C320 O303 1.268 . S
C320 C313 1.506 . S
C321 C288 1.439 . S
C321 H298 0.931 . S
C321 C322 1.374 . S
C322 C293 1.387 . S
C322 H299 0.931 . S
C322 C321 1.374 . S
C323 O307 1.249 . S
C323 O308 1.264 . S
C324 C327 1.382 . S
C324 C328 1.390 . S
C324 C331 1.506 . S
C325 C326 1.398 . S
C325 C328 1.392 . S
C326 C325 1.398 . S
C326 C329 1.372 . S
C326 H336 0.931 . S
C327 C324 1.382 . S
C327 C329 1.390 . S
C327 H337 0.931 . S
C328 C324 1.390 . S
C328 C325 1.392 . S
C328 H338 0.930 . S
C329 C326 1.372 . S
C329 C327 1.390 . S
C329 H339 0.929 . S
C330 O310 1.255 . S
C330 O311 1.257 . S
C331 Eu267 2.787 . S
C331 O306 1.252 . S
C331 O309 1.268 . S
C331 C324 1.506 . S
H332 C315 0.931 . S
H333 C316 0.931 . S
H334 C317 0.929 . S
H335 C318 0.930 . S
H336 C326 0.931 . S
H337 C327 0.931 . S
H338 C328 0.930 . S
H339 C329 0.929 . S
Eu340 N369 2.600 . S
Eu340 N375 2.562 . S
Eu340 O384 2.462 . S
Eu340 O385 2.373 1_455 S
Eu340 O387 2.432 . S
Eu340 O388 2.291 . S
Eu340 O392 2.335 . S
Eu340 O395 2.372 . S
Eu340 C404 2.787 . S
C341 N342 1.360 1_455 S
C341 C344 1.405 . S
C341 C348 1.448 . S
N342 C341 1.360 1_655 S
N342 C345 1.320 . S
N342 Eu351 2.603 . S
C343 C345 1.397 1_455 S
C343 C346 1.367 . S
C343 H363 0.931 . S
C344 C341 1.405 . S
C344 C346 1.403 . S
C344 C350 1.439 . S
C345 N342 1.320 . S
C345 C343 1.397 1_655 S
C345 H356 0.930 . S
C346 C343 1.367 . S
C346 C344 1.403 . S
C346 H367 0.929 . S
C347 C348 1.430 . S
C347 C349 1.387 . S
C347 C353 1.404 . S
C348 C341 1.448 . S
C348 C347 1.430 . S
C348 N352 1.351 . S
C349 C347 1.387 . S
C349 C350 1.374 . S
C349 H364 0.931 . S
C350 C344 1.439 . S
C350 C349 1.374 . S
C350 H365 0.931 . S
Eu351 N342 2.603 . S
Eu351 N352 2.562 1_655 S
Eu351 O386 2.335 . S
Eu351 O389 2.372 . S
Eu351 O390 2.462 . S
Eu351 O391 2.373 1_655 S
Eu351 O393 2.432 . S
Eu351 O394 2.291 1_655 S
Eu351 C415 2.787 . S
N352 C348 1.351 . S
N352 Eu351 2.562 1_455 S
N352 C354 1.325 . S
C353 C347 1.404 . S
C353 C355 1.366 . S
C353 H361 0.930 . S
C354 N352 1.325 . S
C354 C355 1.416 . S
C354 H360 0.950 . S
C355 C353 1.366 . S
C355 C354 1.416 . S
C355 H357 0.930 . S
H356 C345 0.930 . S
H357 C355 0.930 . S
H358 C373 0.930 . S
H359 C380 0.930 . S
H360 C354 0.950 . S
H361 C353 0.930 . S
H362 C376 0.929 . S
H363 C343 0.931 . S
H364 C349 0.931 . S
H365 C350 0.931 . S
H366 C371 0.931 . S
H367 C346 0.929 . S
H368 C379 0.930 . S
N369 Eu340 2.600 . S
N369 C370 1.365 . S
N369 C373 1.319 . S
C370 N369 1.365 . S
C370 C372 1.405 1_455 S
C370 C378 1.448 . S
C371 H366 0.931 . S
C371 C373 1.397 . S
C371 C374 1.357 1_455 S
C372 C370 1.405 1_655 S
C372 C374 1.406 . S
C372 C405 1.439 . S
C373 H358 0.930 . S
C373 N369 1.319 . S
C373 C371 1.397 . S
C374 C371 1.357 1_655 S
C374 C372 1.406 . S
C374 H381 0.937 . S
N375 Eu340 2.562 . S
N375 C376 1.325 . S
N375 C378 1.351 . S
C376 H362 0.929 . S
C376 N375 1.325 . S
C376 C380 1.416 1_455 S
C377 C378 1.430 1_655 S
C377 C379 1.404 . S
C377 C406 1.387 . S
C378 C370 1.448 . S
C378 N375 1.351 . S
C378 C377 1.430 1_455 S
C379 H368 0.930 . S
C379 C377 1.404 . S
C379 C380 1.366 . S
C380 H359 0.930 . S
C380 C376 1.416 1_655 S
C380 C379 1.366 . S
H381 C374 0.937 . S
H382 C405 0.931 . S
H383 C406 0.931 . S
O384 Eu340 2.462 . S
O384 C404 1.252 . S
O385 Eu340 2.373 1_655 S
O385 C396 1.249 . S
O386 Eu351 2.335 . S
O386 C396 1.264 . S
O387 Eu340 2.432 . S
O387 C404 1.268 . S
O388 Eu340 2.291 . S
O388 C403 1.255 . S
O389 Eu351 2.372 . S
O389 C403 1.257 1_655 S
O390 Eu351 2.462 . S
O390 C415 1.252 . S
O391 Eu351 2.373 1_455 S
O391 C407 1.249 . S
O392 Eu340 2.335 . S
O392 C407 1.264 . S
O393 Eu351 2.432 . S
O393 C415 1.268 . S
O394 Eu351 2.291 1_455 S
O394 C414 1.255 . S
O395 Eu340 2.372 . S
O395 C414 1.257 . S
C396 O385 1.249 . S
C396 O386 1.264 . S
C397 C400 1.382 . S
C397 C402 1.390 . S
C397 C404 1.506 . S
C398 C399 1.398 . S
C398 C402 1.392 . S
C399 C398 1.398 . S
C399 C401 1.372 . S
C399 H416 0.931 . S
C400 C397 1.382 . S
C400 C401 1.390 . S
C400 H417 0.931 . S
C401 C399 1.372 . S
C401 C400 1.390 . S
C401 H418 0.929 . S
C402 C397 1.390 . S
C402 C398 1.392 . S
C402 H419 0.930 . S
C403 O388 1.255 . S
C403 O389 1.257 1_455 S
C404 Eu340 2.787 . S
C404 O384 1.252 . S
C404 O387 1.268 . S
C404 C397 1.506 . S
C405 C372 1.439 . S
C405 H382 0.931 . S
C405 C406 1.374 . S
C406 C377 1.387 . S
C406 H383 0.931 . S
C406 C405 1.374 . S
C407 O391 1.249 . S
C407 O392 1.264 . S
C408 C411 1.382 . S
C408 C412 1.390 . S
C408 C415 1.506 . S
C409 C410 1.398 . S
C409 C412 1.392 . S
C410 C409 1.398 . S
C410 C413 1.372 . S
C410 H420 0.931 . S
C411 C408 1.382 . S
C411 C413 1.390 . S
C411 H421 0.931 . S
C412 C408 1.390 . S
C412 C409 1.392 . S
C412 H422 0.930 . S
C413 C410 1.372 . S
C413 C411 1.390 . S
C413 H423 0.929 . S
C414 O394 1.255 . S
C414 O395 1.257 . S
C415 Eu351 2.787 . S
C415 O390 1.252 . S
C415 O393 1.268 . S
C415 C408 1.506 . S
H416 C399 0.931 . S
H417 C400 0.931 . S
H418 C401 0.929 . S
H419 C402 0.930 . S
H420 C410 0.931 . S
H421 C411 0.931 . S
H422 C412 0.930 . S
H423 C413 0.929 . S
H424 C442 0.951 . S
H425 C444 0.951 . S
H426 C446 0.950 . S
H427 C447 0.950 . S
H428 C449 0.950 . S
H429 C452 0.950 . S
H430 C453 0.950 . S
H431 C455 0.950 . S
H432 C456 0.950 . S
H433 C457 0.951 . S
H434 C459 0.951 . S
H435 C461 0.950 . S
H436 C462 0.950 . S
H437 C464 0.950 . S
H438 C467 0.950 . S
H439 C468 0.950 . S
H440 C470 0.950 . S
H441 C471 0.950 . S
C442 H424 0.951 . S
C442 C443 1.366 . S
C442 C444 1.388 . S
C443 C442 1.366 . S
C443 C447 1.385 . S
C444 H425 0.951 . S
C444 C442 1.388 . S
C444 C445 1.366 . S
C445 C444 1.366 . S
C445 C446 1.414 . S
C445 C448 1.499 . S
C446 H426 0.950 . S
C446 C445 1.414 . S
C446 C447 1.374 . S
C447 H427 0.950 . S
C447 C443 1.385 . S
C447 C446 1.374 . S
C448 C445 1.499 . S
C448 C449 1.373 . S
C448 C450 1.389 . S
C449 H428 0.950 . S
C449 C448 1.373 . S
C449 C465 1.377 . S
C450 C448 1.389 . S
C450 C451 1.524 . S
C450 C464 1.377 . S
C451 C450 1.524 . S
C451 C452 1.397 1_545 S
C451 C456 1.363 . S
C452 H429 0.950 . S
C452 C451 1.397 1_565 S
C452 C453 1.334 . S
C453 H430 0.950 . S
C453 C452 1.334 . S
C453 C454 1.287 . S
C454 C453 1.287 . S
C454 C455 1.524 1_565 S
C454 H473 0.913 . S
C455 H431 0.950 . S
C455 C454 1.524 1_545 S
C455 C456 1.415 . S
C456 H432 0.950 . S
C456 C451 1.363 . S
C456 C455 1.415 . S
C457 H433 0.951 . S
C457 C458 1.366 . S
C457 C459 1.388 . S
C458 C457 1.366 . S
C458 C462 1.385 . S
C459 H434 0.951 . S
C459 C457 1.388 . S
C459 C460 1.366 . S
C460 C459 1.366 . S
C460 C461 1.414 . S
C460 C463 1.499 . S
C461 H435 0.950 . S
C461 C460 1.414 . S
C461 C462 1.374 . S
C462 H436 0.950 . S
C462 C458 1.385 . S
C462 C461 1.374 . S
C463 C460 1.499 . S
C463 C464 1.373 . S
C463 C465 1.389 . S
C464 H437 0.950 . S
C464 C450 1.377 . S
C464 C463 1.373 . S
C465 C449 1.377 . S
C465 C463 1.389 . S
C465 C466 1.524 . S
C466 C465 1.524 . S
C466 C467 1.397 . S
C466 C471 1.363 . S
C467 H438 0.950 . S
C467 C466 1.397 . S
C467 C468 1.334 . S
C468 H439 0.950 . S
C468 C467 1.334 . S
C468 C469 1.287 . S
C469 C468 1.287 . S
C469 C470 1.524 . S
C469 H472 0.999 . S
C470 H440 0.950 . S
C470 C469 1.524 . S
C470 C471 1.415 . S
C471 H441 0.950 . S
C471 C466 1.363 . S
C471 C470 1.415 . S
H472 C469 0.999 . S
H473 C454 0.913 . S
H474 C492 0.951 . S
H475 C494 0.951 . S
H476 C496 0.950 . S
H477 C497 0.950 . S
H478 C499 0.950 . S
H479 C502 0.950 . S
H480 C503 0.950 . S
H481 C505 0.950 . S
H482 C506 0.950 . S
H483 C507 0.951 . S
H484 C509 0.951 . S
H485 C511 0.950 . S
H486 C512 0.950 . S
H487 C514 0.950 . S
H488 C517 0.950 . S
H489 C518 0.950 . S
H490 C520 0.950 . S
H491 C521 0.950 . S
C492 H474 0.951 . S
C492 C493 1.366 . S
C492 C494 1.388 . S
C493 C492 1.366 . S
C493 C497 1.385 . S
C494 H475 0.951 . S
C494 C492 1.388 . S
C494 C495 1.366 . S
C495 C494 1.366 . S
C495 C496 1.414 . S
C495 C498 1.499 . S
C496 H476 0.950 . S
C496 C495 1.414 . S
C496 C497 1.374 . S
C497 H477 0.950 . S
C497 C493 1.385 . S
C497 C496 1.374 . S
C498 C495 1.499 . S
C498 C499 1.373 . S
C498 C500 1.389 . S
C499 H478 0.950 . S
C499 C498 1.373 . S
C499 C515 1.377 . S
C500 C498 1.389 . S
C500 C501 1.524 . S
C500 C514 1.377 . S
C501 C500 1.524 . S
C501 C502 1.397 . S
C501 C506 1.363 . S
C502 H479 0.950 . S
C502 C501 1.397 . S
C502 C503 1.334 . S
C503 H480 0.950 . S
C503 C502 1.334 . S
C503 C504 1.287 . S
C504 C503 1.287 . S
C504 C505 1.524 . S
C504 H523 0.913 . S
C505 H481 0.950 . S
C505 C504 1.524 . S
C505 C506 1.415 . S
C506 H482 0.950 . S
C506 C501 1.363 . S
C506 C505 1.415 . S
C507 H483 0.951 . S
C507 C508 1.366 . S
C507 C509 1.388 . S
C508 C507 1.366 . S
C508 C512 1.385 . S
C509 H484 0.951 . S
C509 C507 1.388 . S
C509 C510 1.366 . S
C510 C509 1.366 . S
C510 C511 1.414 . S
C510 C513 1.499 . S
C511 H485 0.950 . S
C511 C510 1.414 . S
C511 C512 1.374 . S
C512 H486 0.950 . S
C512 C508 1.385 . S
C512 C511 1.374 . S
C513 C510 1.499 . S
C513 C514 1.373 . S
C513 C515 1.389 . S
C514 H487 0.950 . S
C514 C500 1.377 . S
C514 C513 1.373 . S
C515 C499 1.377 . S
C515 C513 1.389 . S
C515 C516 1.524 . S
C516 C515 1.524 . S
C516 C517 1.397 . S
C516 C521 1.363 . S
C517 H488 0.950 . S
C517 C516 1.397 . S
C517 C518 1.334 . S
C518 H489 0.950 . S
C518 C517 1.334 . S
C518 C519 1.287 . S
C519 C518 1.287 . S
C519 C520 1.524 . S
C519 H522 0.999 . S
C520 H490 0.950 . S
C520 C519 1.524 . S
C520 C521 1.415 . S
C521 H491 0.950 . S
C521 C516 1.363 . S
C521 C520 1.415 . S
H522 C519 0.999 . S
H523 C504 0.913 . S
H524 C542 0.951 . S
H525 C544 0.951 . S
H526 C546 0.950 . S
H527 C547 0.950 . S
H528 C549 0.950 . S
H529 C552 0.950 . S
H530 C553 0.950 . S
H531 C555 0.950 . S
H532 C556 0.950 . S
H533 C557 0.951 . S
H534 C559 0.951 . S
H535 C561 0.950 . S
H536 C562 0.950 . S
H537 C564 0.950 . S
H538 C567 0.950 . S
H539 C568 0.950 . S
H540 C570 0.950 . S
H541 C571 0.950 . S
C542 H524 0.951 . S
C542 C543 1.366 . S
C542 C544 1.388 . S
C543 C542 1.366 . S
C543 C547 1.385 . S
C544 H525 0.951 . S
C544 C542 1.388 . S
C544 C545 1.366 . S
C545 C544 1.366 . S
C545 C546 1.414 . S
C545 C548 1.499 . S
C546 H526 0.950 . S
C546 C545 1.414 . S
C546 C547 1.374 . S
C547 H527 0.950 . S
C547 C543 1.385 . S
C547 C546 1.374 . S
C548 C545 1.499 . S
C548 C549 1.373 . S
C548 C550 1.389 . S
C549 H528 0.950 . S
C549 C548 1.373 . S
C549 C565 1.377 . S
C550 C548 1.389 . S
C550 C551 1.524 . S
C550 C564 1.377 . S
C551 C550 1.524 . S
C551 C552 1.397 . S
C551 C556 1.363 . S
C552 H529 0.950 . S
C552 C551 1.397 . S
C552 C553 1.334 . S
C553 H530 0.950 . S
C553 C552 1.334 . S
C553 C554 1.287 . S
C554 C553 1.287 . S
C554 C555 1.524 . S
C554 H573 0.913 . S
C555 H531 0.950 . S
C555 C554 1.524 . S
C555 C556 1.415 . S
C556 H532 0.950 . S
C556 C551 1.363 . S
C556 C555 1.415 . S
C557 H533 0.951 . S
C557 C558 1.366 . S
C557 C559 1.388 . S
C558 C557 1.366 . S
C558 C562 1.385 . S
C559 H534 0.951 . S
C559 C557 1.388 . S
C559 C560 1.366 . S
C560 C559 1.366 . S
C560 C561 1.414 . S
C560 C563 1.499 . S
C561 H535 0.950 . S
C561 C560 1.414 . S
C561 C562 1.374 . S
C562 H536 0.950 . S
C562 C558 1.385 . S
C562 C561 1.374 . S
C563 C560 1.499 . S
C563 C564 1.373 . S
C563 C565 1.389 . S
C564 H537 0.950 . S
C564 C550 1.377 . S
C564 C563 1.373 . S
C565 C549 1.377 . S
C565 C563 1.389 . S
C565 C566 1.524 . S
C566 C565 1.524 . S
C566 C567 1.397 . S
C566 C571 1.363 . S
C567 H538 0.950 . S
C567 C566 1.397 . S
C567 C568 1.334 . S
C568 H539 0.950 . S
C568 C567 1.334 . S
C568 C569 1.287 . S
C569 C568 1.287 . S
C569 C570 1.524 . S
C569 H572 0.999 . S
C570 H540 0.950 . S
C570 C569 1.524 . S
C570 C571 1.415 . S
C571 H541 0.950 . S
C571 C566 1.363 . S
C571 C570 1.415 . S
H572 C569 0.999 . S
H573 C554 0.913 . S
H574 C592 0.951 . S
H575 C594 0.951 . S
H576 C596 0.950 . S
H577 C597 0.950 . S
H578 C599 0.950 . S
H579 C602 0.950 . S
H580 C603 0.950 . S
H581 C605 0.950 . S
H582 C606 0.952 . S
H583 C607 0.951 . S
H584 C609 0.951 . S
H585 C611 0.950 . S
H586 C612 0.950 . S
H587 C614 0.950 . S
H588 C617 0.950 . S
H589 C618 0.950 . S
H590 C620 0.950 . S
H591 C621 0.950 . S
C592 H574 0.951 . S
C592 C593 1.366 . S
C592 C594 1.388 . S
C593 C592 1.366 . S
C593 C597 1.385 . S
C594 H575 0.951 . S
C594 C592 1.388 . S
C594 C595 1.366 . S
C595 C594 1.366 . S
C595 C596 1.414 . S
C595 C598 1.499 . S
C596 H576 0.950 . S
C596 C595 1.414 . S
C596 C597 1.374 . S
C597 H577 0.950 . S
C597 C593 1.385 . S
C597 C596 1.374 . S
C598 C595 1.499 . S
C598 C599 1.373 . S
C598 C600 1.389 . S
C599 H578 0.950 . S
C599 C598 1.373 . S
C599 C615 1.377 . S
C600 C598 1.389 . S
C600 C601 1.556 . S
C600 C614 1.377 . S
C601 C600 1.556 . S
C601 C602 1.365 1_455 S
C601 C606 1.362 . S
C602 H579 0.950 . S
C602 C601 1.365 1_655 S
C602 C603 1.334 . S
C603 H580 0.950 . S
C603 C602 1.334 . S
C603 C604 1.287 . S
C604 C603 1.287 . S
C604 C605 1.524 . S
C604 H623 0.913 . S
C605 H581 0.950 . S
C605 C604 1.524 . S
C605 C606 1.413 1_655 S
C606 H582 0.952 . S
C606 C601 1.362 . S
C606 C605 1.413 1_455 S
C607 H583 0.951 . S
C607 C608 1.366 . S
C607 C609 1.388 . S
C608 C607 1.366 . S
C608 C612 1.385 . S
C609 H584 0.951 . S
C609 C607 1.388 . S
C609 C610 1.366 . S
C610 C609 1.366 . S
C610 C611 1.414 . S
C610 C613 1.499 . S
C611 H585 0.950 . S
C611 C610 1.414 . S
C611 C612 1.374 . S
C612 H586 0.950 . S
C612 C608 1.385 . S
C612 C611 1.374 . S
C613 C610 1.499 . S
C613 C614 1.373 . S
C613 C615 1.389 . S
C614 H587 0.950 . S
C614 C600 1.377 . S
C614 C613 1.373 . S
C615 C599 1.377 . S
C615 C613 1.389 . S
C615 C616 1.524 . S
C616 C615 1.524 . S
C616 C617 1.397 . S
C616 C621 1.363 . S
C617 H588 0.950 . S
C617 C616 1.397 . S
C617 C618 1.334 . S
C618 H589 0.950 . S
C618 C617 1.334 . S
C618 C619 1.287 . S
C619 C618 1.287 . S
C619 C620 1.524 . S
C619 H622 0.999 . S
C620 H590 0.950 . S
C620 C619 1.524 . S
C620 C621 1.415 . S
C621 H591 0.950 . S
C621 C616 1.363 . S
C621 C620 1.415 . S
H622 C619 0.999 . S
H623 C604 0.913 . S
H624 C642 0.951 . S
H625 C644 0.951 . S
H626 C646 0.950 1_556 S
H627 C647 0.950 . S
H628 C649 0.950 . S
H629 C652 0.950 . S
H630 C653 0.950 . S
H631 C655 0.950 . S
H632 C656 0.950 . S
H633 C657 0.951 . S
H634 C659 0.944 1_545 S
H635 C661 0.950 . S
H636 C662 0.950 . S
H637 C664 0.952 1_545 S
H638 C667 0.950 . S
H639 C668 0.950 . S
H640 C670 0.950 . S
H641 C671 0.950 . S
C642 H624 0.951 . S
C642 C643 1.366 . S
C642 C644 1.388 . S
C643 C642 1.366 . S
C643 C647 1.385 . S
C644 H625 0.951 . S
C644 C642 1.388 . S
C644 C645 1.366 . S
C645 C644 1.366 . S
C645 C646 1.414 . S
C645 C648 1.499 1_554 S
C646 H626 0.950 1_554 S
C646 C645 1.414 . S
C646 C647 1.374 . S
C647 H627 0.950 . S
C647 C643 1.385 . S
C647 C646 1.374 . S
C648 C645 1.499 1_556 S
C648 C649 1.373 . S
C648 C650 1.389 1_556 S
C649 H628 0.950 . S
C649 C648 1.373 . S
C649 C665 1.377 . S
C650 C648 1.389 1_554 S
C650 C651 1.524 1_565 S
C650 C664 1.376 1_554 S
C651 C650 1.524 1_545 S
C651 C652 1.397 . S
C651 C656 1.363 . S
C652 H629 0.950 . S
C652 C651 1.397 . S
C652 C653 1.334 . S
C653 H630 0.950 . S
C653 C652 1.334 . S
C653 C654 1.287 . S
C654 C653 1.287 . S
C654 C655 1.524 . S
C654 H673 0.913 . S
C655 H631 0.950 . S
C655 C654 1.524 . S
C655 C656 1.415 . S
C656 H632 0.950 . S
C656 C651 1.363 . S
C656 C655 1.415 . S
C657 H633 0.951 . S
C657 C658 1.368 . S
C657 C659 1.381 1_545 S
C658 C657 1.368 . S
C658 C662 1.381 1_545 S
C659 H634 0.944 1_565 S
C659 C657 1.381 1_565 S
C659 C660 1.379 . S
C660 C659 1.379 . S
C660 C661 1.414 . S
C660 C663 1.499 . S
C661 H635 0.950 . S
C661 C660 1.414 . S
C661 C662 1.374 . S
C662 H636 0.950 . S
C662 C658 1.381 1_565 S
C662 C661 1.374 . S
C663 C660 1.499 . S
C663 C664 1.372 . S
C663 C665 1.389 . S
C664 H637 0.952 1_565 S
C664 C650 1.376 1_556 S
C664 C663 1.372 . S
C665 C649 1.377 . S
C665 C663 1.389 . S
C665 C666 1.524 . S
C666 C665 1.524 . S
C666 C667 1.397 . S
C666 C671 1.363 . S
C667 H638 0.950 . S
C667 C666 1.397 . S
C667 C668 1.334 . S
C668 H639 0.950 . S
C668 C667 1.334 . S
C668 C669 1.287 . S
C669 C668 1.287 . S
C669 C670 1.524 . S
C669 H672 0.999 . S
C670 H640 0.950 . S
C670 C669 1.524 . S
C670 C671 1.415 . S
C671 H641 0.950 . S
C671 C666 1.363 . S
C671 C670 1.415 . S
H672 C669 0.999 . S
H673 C654 0.913 . S
H674 C692 0.951 . S
H675 C694 0.951 . S
H676 C696 0.950 . S
H677 C697 0.950 . S
H678 C699 0.950 . S
H679 C702 0.950 . S
H680 C703 0.950 . S
H681 C705 0.950 . S
H682 C706 0.950 . S
H683 C707 0.951 . S
H684 C709 0.951 . S
H685 C711 0.950 . S
H686 C712 0.950 . S
H687 C714 0.950 . S
H688 C717 0.950 . S
H689 C718 0.950 . S
H690 C720 0.950 . S
H691 C721 0.950 . S
C692 H674 0.951 . S
C692 C693 1.366 . S
C692 C694 1.388 . S
C693 C692 1.366 . S
C693 C697 1.385 . S
C694 H675 0.951 . S
C694 C692 1.388 . S
C694 C695 1.366 . S
C695 C694 1.366 . S
C695 C696 1.414 . S
C695 C698 1.498 1_554 S
C696 H676 0.950 . S
C696 C695 1.414 . S
C696 C697 1.374 . S
C697 H677 0.950 . S
C697 C693 1.385 . S
C697 C696 1.374 . S
C698 C695 1.498 1_556 S
C698 C699 1.373 1_556 S
C698 C700 1.390 . S
C699 H678 0.950 . S
C699 C698 1.373 1_554 S
C699 C715 1.377 1_554 S
C700 C698 1.390 . S
C700 C701 1.524 . S
C700 C714 1.377 . S
C701 C700 1.524 . S
C701 C702 1.397 . S
C701 C706 1.363 . S
C702 H679 0.950 . S
C702 C701 1.397 . S
C702 C703 1.334 . S
C703 H680 0.950 . S
C703 C702 1.334 . S
C703 C704 1.287 . S
C704 C703 1.287 . S
C704 C705 1.524 . S
C704 H723 0.913 . S
C705 H681 0.950 . S
C705 C704 1.524 . S
C705 C706 1.415 . S
C706 H682 0.950 . S
C706 C701 1.363 . S
C706 C705 1.415 . S
C707 H683 0.951 . S
C707 C708 1.366 . S
C707 C709 1.388 . S
C708 C707 1.366 . S
C708 C712 1.385 . S
C709 H684 0.951 . S
C709 C707 1.388 . S
C709 C710 1.366 . S
C710 C709 1.366 . S
C710 C711 1.414 . S
C710 C713 1.499 . S
C711 H685 0.950 . S
C711 C710 1.414 . S
C711 C712 1.374 . S
C712 H686 0.950 . S
C712 C708 1.385 . S
C712 C711 1.374 . S
C713 C710 1.499 . S
C713 C714 1.373 . S
C713 C715 1.389 . S
C714 H687 0.950 . S
C714 C700 1.377 . S
C714 C713 1.373 . S
C715 C699 1.377 1_556 S
C715 C713 1.389 . S
C715 C716 1.524 . S
C716 C715 1.524 . S
C716 C717 1.397 . S
C716 C721 1.363 1_556 S
C717 H688 0.950 . S
C717 C716 1.397 . S
C717 C718 1.334 1_556 S
C718 H689 0.950 . S
C718 C717 1.334 1_554 S
C718 C719 1.287 . S
C719 C718 1.287 . S
C719 C720 1.524 . S
C719 H722 0.999 . S
C720 H690 0.950 . S
C720 C719 1.524 . S
C720 C721 1.415 . S
C721 H691 0.950 . S
C721 C716 1.363 1_554 S
C721 C720 1.415 . S
H722 C719 0.999 . S
H723 C704 0.913 . S
H724 C742 0.951 . S
H725 C744 0.951 . S
H726 C746 0.950 . S
H727 C747 0.950 . S
H728 C749 0.950 . S
H729 C752 0.950 . S
H730 C753 0.950 . S
H731 C755 0.950 . S
H732 C756 0.950 1_556 S
H733 C757 0.951 . S
H734 C759 0.951 . S
H735 C761 0.950 . S
H736 C762 0.950 . S
H737 C764 0.950 . S
H738 C767 0.950 . S
H739 C768 0.950 . S
H740 C770 0.950 . S
H741 C771 0.950 . S
C742 H724 0.951 . S
C742 C743 1.366 . S
C742 C744 1.388 . S
C743 C742 1.366 . S
C743 C747 1.385 . S
C744 H725 0.951 . S
C744 C742 1.388 . S
C744 C745 1.366 . S
C745 C744 1.366 . S
C745 C746 1.414 . S
C745 C748 1.499 . S
C746 H726 0.950 . S
C746 C745 1.414 . S
C746 C747 1.374 . S
C747 H727 0.950 . S
C747 C743 1.385 . S
C747 C746 1.374 . S
C748 C745 1.499 . S
C748 C749 1.373 1_554 S
C748 C750 1.388 1_554 S
C749 H728 0.950 . S
C749 C748 1.373 1_556 S
C749 C765 1.377 . S
C750 C748 1.388 1_556 S
C750 C751 1.514 1_556 S
C750 C764 1.388 . S
C751 C750 1.514 1_554 S
C751 C752 1.397 . S
C751 C756 1.363 . S
C752 H729 0.950 . S
C752 C751 1.397 . S
C752 C753 1.334 . S
C753 H730 0.950 . S
C753 C752 1.334 . S
C753 C754 1.287 . S
C754 C753 1.287 . S
C754 C755 1.524 . S
C754 H773 0.913 . S
C755 H731 0.950 . S
C755 C754 1.524 . S
C755 C756 1.415 . S
C756 H732 0.950 1_554 S
C756 C751 1.363 . S
C756 C755 1.415 . S
C757 H733 0.951 . S
C757 C758 1.366 . S
C757 C759 1.388 . S
C758 C757 1.366 . S
C758 C762 1.385 . S
C759 H734 0.951 . S
C759 C757 1.388 . S
C759 C760 1.366 . S
C760 C759 1.366 . S
C760 C761 1.414 . S
C760 C763 1.499 . S
C761 H735 0.950 . S
C761 C760 1.414 . S
C761 C762 1.374 . S
C762 H736 0.950 . S
C762 C758 1.385 . S
C762 C761 1.374 . S
C763 C760 1.499 . S
C763 C764 1.373 . S
C763 C765 1.389 . S
C764 H737 0.950 . S
C764 C750 1.388 . S
C764 C763 1.373 . S
C765 C749 1.377 . S
C765 C763 1.389 . S
C765 C766 1.524 . S
C766 C765 1.524 . S
C766 C767 1.397 . S
C766 C771 1.363 . S
C767 H738 0.950 . S
C767 C766 1.397 . S
C767 C768 1.334 . S
C768 H739 0.950 . S
C768 C767 1.334 . S
C768 C769 1.287 . S
C769 C768 1.287 . S
C769 C770 1.524 . S
C769 H772 0.999 . S
C770 H740 0.950 . S
C770 C769 1.524 . S
C770 C771 1.415 . S
C771 H741 0.950 . S
C771 C766 1.363 . S
C771 C770 1.415 . S
H772 C769 0.999 . S
H773 C754 0.913 . S
H774 C792 0.951 1_455 S
H775 C794 0.951 1_455 S
H776 C796 0.950 . S
H777 C797 0.950 . S
H778 C799 0.961 . S
H779 C802 0.950 . S
H780 C803 0.950 1_655 S
H781 C805 0.950 . S
H782 C806 0.950 . S
H783 C807 0.951 . S
H784 C809 0.951 . S
H785 C811 0.950 . S
H786 C812 0.950 . S
H787 C814 0.985 . S
H788 C817 0.950 . S
H789 C818 0.950 . S
H790 C820 0.950 1_554 S
H791 C821 0.950 . S
C792 H774 0.951 1_655 S
C792 C793 1.366 . S
C792 C794 1.388 . S
C793 C792 1.366 . S
C793 C797 1.385 . S
C794 H775 0.951 1_655 S
C794 C792 1.388 . S
C794 C795 1.366 . S
C795 C794 1.366 . S
C795 C796 1.414 . S
C795 C798 1.499 1_554 S
C796 H776 0.950 . S
C796 C795 1.414 . S
C796 C797 1.374 . S
C797 H777 0.950 . S
C797 C793 1.385 . S
C797 C796 1.374 . S
C798 C795 1.499 1_556 S
C798 C799 1.372 1_556 S
C798 C800 1.389 . S
C799 H778 0.961 . S
C799 C798 1.372 1_554 S
C799 C815 1.367 1_554 S
C800 C798 1.389 . S
C800 C801 1.524 1_655 S
C800 C814 1.369 1_655 S
C801 C800 1.524 1_455 S
C801 C802 1.397 1_455 S
C801 C806 1.363 . S
C802 H779 0.950 . S
C802 C801 1.397 1_655 S
C802 C803 1.334 1_655 S
C803 H780 0.950 1_455 S
C803 C802 1.334 1_455 S
C803 C804 1.287 . S
C804 C803 1.287 . S
C804 C805 1.524 . S
C804 H823 0.913 . S
C805 H781 0.950 . S
C805 C804 1.524 . S
C805 C806 1.415 . S
C806 H782 0.950 . S
C806 C801 1.363 . S
C806 C805 1.415 . S
C807 H783 0.951 . S
C807 C808 1.366 . S
C807 C809 1.388 . S
C808 C807 1.366 . S
C808 C812 1.385 1_655 S
C809 H784 0.951 . S
C809 C807 1.388 . S
C809 C810 1.366 . S
C810 C809 1.366 . S
C810 C811 1.414 1_655 S
C810 C813 1.499 . S
C811 H785 0.950 . S
C811 C810 1.414 1_455 S
C811 C812 1.374 . S
C812 H786 0.950 . S
C812 C808 1.385 1_455 S
C812 C811 1.374 . S
C813 C810 1.499 . S
C813 C814 1.349 1_655 S
C813 C815 1.389 . S
C814 H787 0.985 . S
C814 C800 1.369 1_455 S
C814 C813 1.349 1_455 S
C815 C799 1.367 1_556 S
C815 C813 1.389 . S
C815 C816 1.524 . S
C816 C815 1.524 . S
C816 C817 1.397 . S
C816 C821 1.363 . S
C817 H788 0.950 . S
C817 C816 1.397 . S
C817 C818 1.334 . S
C818 H789 0.950 . S
C818 C817 1.334 . S
C818 C819 1.287 1_556 S
C819 C818 1.287 1_554 S
C819 C820 1.524 1_554 S
C819 H822 0.999 . S
C820 H790 0.950 1_556 S
C820 C819 1.524 1_556 S
C820 C821 1.415 . S
C821 H791 0.950 . S
C821 C816 1.363 . S
C821 C820 1.415 . S
H822 C819 0.999 . S
H823 C804 0.913 . S
H824 C842 0.951 . S
H825 C844 0.951 . S
H826 C846 0.950 . S
H827 C847 0.950 . S
H828 C849 0.950 . S
H829 C852 0.950 . S
H830 C853 0.950 . S
H831 C855 0.950 . S
H832 C856 0.935 1_655 S
H833 C857 0.951 . S
H834 C859 0.951 . S
H835 C861 0.950 . S
H836 C862 0.950 . S
H837 C864 0.950 . S
H838 C867 0.950 1_655 S
H839 C868 0.950 . S
H840 C870 0.950 . S
H841 C871 0.950 . S
C842 H824 0.951 . S
C842 C843 1.366 . S
C842 C844 1.388 . S
C843 C842 1.366 . S
C843 C847 1.385 . S
C844 H825 0.951 . S
C844 C842 1.388 . S
C844 C845 1.366 . S
C845 C844 1.366 . S
C845 C846 1.414 . S
C845 C848 1.499 . S
C846 H826 0.950 . S
C846 C845 1.414 . S
C846 C847 1.374 . S
C847 H827 0.950 . S
C847 C843 1.385 . S
C847 C846 1.374 . S
C848 C845 1.499 . S
C848 C849 1.373 . S
C848 C850 1.389 . S
C849 H828 0.950 . S
C849 C848 1.373 . S
C849 C865 1.377 . S
C850 C848 1.389 . S
C850 C851 1.524 . S
C850 C864 1.377 . S
C851 C850 1.524 . S
C851 C852 1.397 . S
C851 C856 1.363 . S
C852 H829 0.950 . S
C852 C851 1.397 . S
C852 C853 1.334 . S
C853 H830 0.950 . S
C853 C852 1.334 . S
C853 C854 1.287 . S
C854 C853 1.287 . S
C854 C855 1.524 . S
C854 H873 0.913 . S
C855 H831 0.950 . S
C855 C854 1.524 . S
C855 C856 1.415 . S
C856 H832 0.935 1_455 S
C856 C851 1.363 . S
C856 C855 1.415 . S
C857 H833 0.951 . S
C857 C858 1.366 . S
C857 C859 1.388 . S
C858 C857 1.366 . S
C858 C862 1.385 1_455 S
C859 H834 0.951 . S
C859 C857 1.388 . S
C859 C860 1.366 . S
C860 C859 1.366 . S
C860 C861 1.414 1_455 S
C860 C863 1.499 . S
C861 H835 0.950 . S
C861 C860 1.414 1_655 S
C861 C862 1.374 . S
C862 H836 0.950 . S
C862 C858 1.385 1_655 S
C862 C861 1.374 . S
C863 C860 1.499 . S
C863 C864 1.373 . S
C863 C865 1.389 . S
C864 H837 0.950 . S
C864 C850 1.377 . S
C864 C863 1.373 . S
C865 C849 1.377 . S
C865 C863 1.389 . S
C865 C866 1.524 . S
C866 C865 1.524 . S
C866 C867 1.397 . S
C866 C871 1.363 . S
C867 H838 0.950 1_455 S
C867 C866 1.397 . S
C867 C868 1.334 1_455 S
C868 H839 0.950 . S
C868 C867 1.334 1_655 S
C868 C869 1.287 1_655 S
C869 C868 1.287 1_455 S
C869 C870 1.524 . S
C869 H872 0.999 . S
C870 H840 0.950 . S
C870 C869 1.524 . S
C870 C871 1.415 . S
C871 H841 0.950 . S
C871 C866 1.363 . S
C871 C870 1.415 . S
H872 C869 0.999 . S
H873 C854 0.913 . S
H874 C892 0.951 . S
H875 C894 0.951 . S
H876 C896 0.950 . S
H877 C897 0.950 . S
H878 C899 0.950 . S
H879 C902 0.950 . S
H880 C903 0.950 . S
H881 C905 0.950 . S
H882 C906 0.950 . S
H883 C907 0.951 . S
H884 C909 0.951 . S
H885 C911 0.950 . S
H886 C912 0.950 . S
H887 C914 0.950 . S
H888 C917 0.950 . S
H889 C918 0.950 . S
H890 C920 0.950 . S
H891 C921 0.987 . S
C892 H874 0.951 . S
C892 C893 1.366 . S
C892 C894 1.388 . S
C893 C892 1.366 . S
C893 C897 1.385 . S
C894 H875 0.951 . S
C894 C892 1.388 . S
C894 C895 1.366 . S
C895 C894 1.366 . S
C895 C896 1.414 . S
C895 C898 1.499 . S
C896 H876 0.950 . S
C896 C895 1.414 . S
C896 C897 1.374 . S
C897 H877 0.950 . S
C897 C893 1.385 . S
C897 C896 1.374 . S
C898 C895 1.499 . S
C898 C899 1.373 . S
C898 C900 1.389 . S
C899 H878 0.950 . S
C899 C898 1.373 . S
C899 C915 1.377 . S
C900 C898 1.389 . S
C900 C901 1.524 . S
C900 C914 1.377 . S
C901 C900 1.524 . S
C901 C902 1.397 . S
C901 C906 1.363 . S
C902 H879 0.950 . S
C902 C901 1.397 . S
C902 C903 1.334 . S
C903 H880 0.950 . S
C903 C902 1.334 . S
C903 C904 1.287 . S
C904 C903 1.287 . S
C904 C905 1.524 . S
C904 H923 0.913 . S
C905 H881 0.950 . S
C905 C904 1.524 . S
C905 C906 1.415 . S
C906 H882 0.950 . S
C906 C901 1.363 . S
C906 C905 1.415 . S
C907 H883 0.951 . S
C907 C908 1.366 . S
C907 C909 1.388 . S
C908 C907 1.366 . S
C908 C912 1.385 . S
C909 H884 0.951 . S
C909 C907 1.388 . S
C909 C910 1.366 . S
C910 C909 1.366 . S
C910 C911 1.414 . S
C910 C913 1.499 . S
C911 H885 0.950 . S
C911 C910 1.414 . S
C911 C912 1.374 . S
C912 H886 0.950 . S
C912 C908 1.385 . S
C912 C911 1.374 . S
C913 C910 1.499 . S
C913 C914 1.373 . S
C913 C915 1.389 . S
C914 H887 0.950 . S
C914 C900 1.377 . S
C914 C913 1.373 . S
C915 C899 1.377 . S
C915 C913 1.389 . S
C915 C916 1.524 1_545 S
C916 C915 1.524 1_565 S
C916 C917 1.397 . S
C916 C921 1.358 1_565 S
C917 H888 0.950 . S
C917 C916 1.397 . S
C917 C918 1.334 . S
C918 H889 0.950 . S
C918 C917 1.334 . S
C918 C919 1.287 . S
C919 C918 1.287 . S
C919 C920 1.524 . S
C919 H922 0.999 . S
C920 H890 0.950 . S
C920 C919 1.524 . S
C920 C921 1.385 1_565 S
C921 H891 0.987 . S
C921 C916 1.358 1_545 S
C921 C920 1.385 1_545 S
H922 C919 0.999 . S
H923 C904 0.913 . S
H924 C942 0.951 . S
H925 C944 0.951 . S
H926 C946 0.950 . S
H927 C947 0.950 . S
H928 C949 0.950 . S
H929 C952 0.950 . S
H930 C953 0.950 . S
H931 C955 0.950 . S
H932 C956 0.950 . S
H933 C957 0.951 . S
H934 C959 0.951 . S
H935 C961 0.950 . S
H936 C962 0.950 . S
H937 C964 0.950 . S
H938 C967 0.950 . S
H939 C968 0.950 . S
H940 C970 0.950 . S
H941 C971 0.950 . S
C942 H924 0.951 . S
C942 C943 1.366 . S
C942 C944 1.388 . S
C943 C942 1.366 . S
C943 C947 1.385 . S
C944 H925 0.951 . S
C944 C942 1.388 . S
C944 C945 1.366 . S
C945 C944 1.366 . S
C945 C946 1.414 . S
C945 C948 1.499 . S
C946 H926 0.950 . S
C946 C945 1.414 . S
C946 C947 1.374 . S
C947 H927 0.950 . S
C947 C943 1.385 . S
C947 C946 1.374 . S
C948 C945 1.499 . S
C948 C949 1.373 . S
C948 C950 1.389 . S
C949 H928 0.950 . S
C949 C948 1.373 . S
C949 C965 1.377 . S
C950 C948 1.389 . S
C950 C951 1.524 . S
C950 C964 1.377 . S
C951 C950 1.524 . S
C951 C952 1.397 . S
C951 C956 1.363 . S
C952 H929 0.950 . S
C952 C951 1.397 . S
C952 C953 1.334 . S
C953 H930 0.950 . S
C953 C952 1.334 . S
C953 C954 1.287 . S
C954 C953 1.287 . S
C954 C955 1.524 . S
C954 H973 0.913 . S
C955 H931 0.950 . S
C955 C954 1.524 . S
C955 C956 1.415 . S
C956 H932 0.950 . S
C956 C951 1.363 . S
C956 C955 1.415 . S
C957 H933 0.951 . S
C957 C958 1.366 . S
C957 C959 1.388 . S
C958 C957 1.366 . S
C958 C962 1.385 . S
C959 H934 0.951 . S
C959 C957 1.388 . S
C959 C960 1.366 . S
C960 C959 1.366 . S
C960 C961 1.414 . S
C960 C963 1.499 . S
C961 H935 0.950 . S
C961 C960 1.414 . S
C961 C962 1.374 . S
C962 H936 0.950 . S
C962 C958 1.385 . S
C962 C961 1.374 . S
C963 C960 1.499 . S
C963 C964 1.373 . S
C963 C965 1.389 . S
C964 H937 0.950 . S
C964 C950 1.377 . S
C964 C963 1.373 . S
C965 C949 1.377 . S
C965 C963 1.389 . S
C965 C966 1.524 . S
C966 C965 1.524 . S
C966 C967 1.397 . S
C966 C971 1.363 . S
C967 H938 0.950 . S
C967 C966 1.397 . S
C967 C968 1.334 . S
C968 H939 0.950 . S
C968 C967 1.334 . S
C968 C969 1.287 . S
C969 C968 1.287 . S
C969 C970 1.524 . S
C969 H972 0.999 . S
C970 H940 0.950 . S
C970 C969 1.524 . S
C970 C971 1.415 . S
C971 H941 0.950 . S
C971 C966 1.363 . S
C971 C970 1.415 . S
H972 C969 0.999 . S
H973 C954 0.913 . S
H974 C992 0.951 . S
H975 C994 0.951 . S
H976 C996 0.950 . S
H977 C997 0.950 . S
H978 C999 0.950 . S
H979 C1002 0.950 . S
H980 C1003 0.950 . S
H981 C1005 0.950 . S
H982 C1006 0.950 . S
H983 C1007 0.951 . S
H984 C1009 0.951 . S
H985 C1011 0.950 . S
H986 C1012 0.950 . S
H987 C1014 0.950 . S
H988 C1017 0.950 . S
H989 C1018 0.950 . S
H990 C1020 0.950 . S
H991 C1021 0.950 . S
C992 H974 0.951 . S
C992 C993 1.366 . S
C992 C994 1.388 . S
C993 C992 1.366 . S
C993 C997 1.385 . S
C994 H975 0.951 . S
C994 C992 1.388 . S
C994 C995 1.366 . S
C995 C994 1.366 . S
C995 C996 1.414 . S
C995 C998 1.499 . S
C996 H976 0.950 . S
C996 C995 1.414 . S
C996 C997 1.374 . S
C997 H977 0.950 . S
C997 C993 1.385 . S
C997 C996 1.374 . S
C998 C995 1.499 . S
C998 C999 1.373 . S
C998 C1000 1.389 . S
C999 H978 0.950 . S
C999 C998 1.373 . S
C999 C1015 1.377 . S
C1000 C998 1.389 . S
C1000 C1001 1.524 . S
C1000 C1014 1.377 . S
C1001 C1000 1.524 . S
C1001 C1002 1.397 . S
C1001 C1006 1.363 . S
C1002 H979 0.950 . S
C1002 C1001 1.397 . S
C1002 C1003 1.334 . S
C1003 H980 0.950 . S
C1003 C1002 1.334 . S
C1003 C1004 1.287 . S
C1004 C1003 1.287 . S
C1004 C1005 1.524 . S
C1004 H1023 0.913 . S
C1005 H981 0.950 . S
C1005 C1004 1.524 . S
C1005 C1006 1.415 . S
C1006 H982 0.950 . S
C1006 C1001 1.363 . S
C1006 C1005 1.415 . S
C1007 H983 0.951 . S
C1007 C1008 1.366 . S
C1007 C1009 1.388 . S
C1008 C1007 1.366 . S
C1008 C1012 1.385 . S
C1009 H984 0.951 . S
C1009 C1007 1.388 . S
C1009 C1010 1.366 . S
C1010 C1009 1.366 . S
C1010 C1011 1.414 . S
C1010 C1013 1.499 . S
C1011 H985 0.950 . S
C1011 C1010 1.414 . S
C1011 C1012 1.374 . S
C1012 H986 0.950 . S
C1012 C1008 1.385 . S
C1012 C1011 1.374 . S
C1013 C1010 1.499 . S
C1013 C1014 1.373 . S
C1013 C1015 1.389 . S
C1014 H987 0.950 . S
C1014 C1000 1.377 . S
C1014 C1013 1.373 . S
C1015 C999 1.377 . S
C1015 C1013 1.389 . S
C1015 C1016 1.524 . S
C1016 C1015 1.524 . S
C1016 C1017 1.397 . S
C1016 C1021 1.363 . S
C1017 H988 0.950 . S
C1017 C1016 1.397 . S
C1017 C1018 1.334 . S
C1018 H989 0.950 . S
C1018 C1017 1.334 . S
C1018 C1019 1.287 . S
C1019 C1018 1.287 . S
C1019 C1020 1.524 . S
C1019 H1022 0.999 . S
C1020 H990 0.950 . S
C1020 C1019 1.524 . S
C1020 C1021 1.415 . S
C1021 H991 0.950 . S
C1021 C1016 1.363 . S
C1021 C1020 1.415 . S
H1022 C1019 0.999 . S
H1023 C1004 0.913 . S
H1024 C1042 0.951 . S
H1025 C1044 0.951 1_455 S
H1026 C1046 0.950 . S
H1027 C1047 0.950 . S
H1028 C1049 0.950 . S
H1029 C1052 0.950 . S
H1030 C1053 0.950 . S
H1031 C1055 0.950 . S
H1032 C1056 0.950 . S
H1033 C1057 0.951 . S
H1034 C1059 0.951 . S
H1035 C1061 0.950 . S
H1036 C1062 0.950 . S
H1037 C1064 0.950 . S
H1038 C1067 0.950 . S
H1039 C1068 0.950 . S
H1040 C1070 0.950 . S
H1041 C1071 0.950 1_554 S
C1042 H1024 0.951 . S
C1042 C1043 1.366 . S
C1042 C1044 1.388 . S
C1043 C1042 1.366 . S
C1043 C1047 1.385 . S
C1044 H1025 0.951 1_655 S
C1044 C1042 1.388 . S
C1044 C1045 1.366 . S
C1045 C1044 1.366 . S
C1045 C1046 1.414 . S
C1045 C1048 1.499 . S
C1046 H1026 0.950 . S
C1046 C1045 1.414 . S
C1046 C1047 1.374 . S
C1047 H1027 0.950 . S
C1047 C1043 1.385 . S
C1047 C1046 1.374 . S
C1048 C1045 1.499 . S
C1048 C1049 1.373 . S
C1048 C1050 1.389 1_655 S
C1049 H1028 0.950 . S
C1049 C1048 1.373 . S
C1049 C1065 1.377 1_554 S
C1050 C1048 1.389 1_455 S
C1050 C1051 1.524 . S
C1050 C1064 1.377 . S
C1051 C1050 1.524 . S
C1051 C1052 1.397 . S
C1051 C1056 1.363 . S
C1052 H1029 0.950 . S
C1052 C1051 1.397 . S
C1052 C1053 1.334 . S
C1053 H1030 0.950 . S
C1053 C1052 1.334 . S
C1053 C1054 1.287 . S
C1054 C1053 1.287 . S
C1054 C1055 1.524 . S
C1054 H1073 0.913 . S
C1055 H1031 0.950 . S
C1055 C1054 1.524 . S
C1055 C1056 1.415 . S
C1056 H1032 0.950 . S
C1056 C1051 1.363 . S
C1056 C1055 1.415 . S
C1057 H1033 0.951 . S
C1057 C1058 1.366 1_655 S
C1057 C1059 1.388 . S
C1058 C1057 1.366 1_455 S
C1058 C1062 1.385 . S
C1059 H1034 0.951 . S
C1059 C1057 1.388 . S
C1059 C1060 1.366 . S
C1060 C1059 1.366 . S
C1060 C1061 1.414 1_655 S
C1060 C1063 1.499 . S
C1061 H1035 0.950 . S
C1061 C1060 1.414 1_455 S
C1061 C1062 1.374 . S
C1062 H1036 0.950 . S
C1062 C1058 1.385 . S
C1062 C1061 1.374 . S
C1063 C1060 1.499 . S
C1063 C1064 1.373 1_656 S
C1063 C1065 1.389 . S
C1064 H1037 0.950 . S
C1064 C1050 1.377 . S
C1064 C1063 1.373 1_454 S
C1065 C1049 1.377 1_556 S
C1065 C1063 1.389 . S
C1065 C1066 1.524 . S
C1066 C1065 1.524 . S
C1066 C1067 1.397 . S
C1066 C1071 1.363 . S
C1067 H1038 0.950 . S
C1067 C1066 1.397 . S
C1067 C1068 1.334 . S
C1068 H1039 0.950 . S
C1068 C1067 1.334 . S
C1068 C1069 1.287 . S
C1069 C1068 1.287 . S
C1069 C1070 1.524 . S
C1069 H1072 0.999 . S
C1070 H1040 0.950 . S
C1070 C1069 1.524 . S
C1070 C1071 1.415 . S
C1071 H1041 0.950 1_556 S
C1071 C1066 1.363 . S
C1071 C1070 1.415 . S
H1072 C1069 0.999 . S
H1073 C1054 0.913 . S
H1074 C1092 0.951 . S
H1075 C1094 0.951 . S
H1076 C1096 0.950 . S
H1077 C1097 0.950 . S
H1078 C1099 0.950 . S
H1079 C1102 0.950 . S
H1080 C1103 0.950 . S
H1081 C1105 0.950 . S
H1082 C1106 0.950 . S
H1083 C1107 0.951 . S
H1084 C1109 0.951 . S
H1085 C1111 0.950 1_554 S
H1086 C1112 0.946 1_565 S
H1087 C1114 0.950 . S
H1088 C1117 0.950 1_554 S
H1089 C1118 0.950 . S
H1090 C1120 0.950 . S
H1091 C1121 0.950 . S
C1092 H1074 0.951 . S
C1092 C1093 1.366 . S
C1092 C1094 1.388 . S
C1093 C1092 1.366 . S
C1093 C1097 1.385 . S
C1094 H1075 0.951 . S
C1094 C1092 1.388 . S
C1094 C1095 1.366 . S
C1095 C1094 1.366 . S
C1095 C1096 1.414 . S
C1095 C1098 1.499 . S
C1096 H1076 0.950 . S
C1096 C1095 1.414 . S
C1096 C1097 1.374 . S
C1097 H1077 0.950 . S
C1097 C1093 1.385 . S
C1097 C1096 1.374 . S
C1098 C1095 1.499 . S
C1098 C1099 1.373 1_565 S
C1098 C1100 1.389 . S
C1099 H1078 0.950 . S
C1099 C1098 1.373 1_545 S
C1099 C1115 1.377 1_554 S
C1100 C1098 1.389 . S
C1100 C1101 1.524 . S
C1100 C1114 1.377 . S
C1101 C1100 1.524 . S
C1101 C1102 1.397 . S
C1101 C1106 1.363 . S
C1102 H1079 0.950 . S
C1102 C1101 1.397 . S
C1102 C1103 1.334 . S
C1103 H1080 0.950 . S
C1103 C1102 1.334 . S
C1103 C1104 1.287 . S
C1104 C1103 1.287 . S
C1104 C1105 1.524 . S
C1104 H1123 0.913 . S
C1105 H1081 0.950 . S
C1105 C1104 1.524 . S
C1105 C1106 1.415 . S
C1106 H1082 0.950 . S
C1106 C1101 1.363 . S
C1106 C1105 1.415 . S
C1107 H1083 0.951 . S
C1107 C1108 1.366 . S
C1107 C1109 1.388 . S
C1108 C1107 1.366 . S
C1108 C1112 1.385 . S
C1109 H1084 0.951 . S
C1109 C1107 1.388 . S
C1109 C1110 1.366 . S
C1110 C1109 1.366 . S
C1110 C1111 1.414 1_545 S
C1110 C1113 1.498 1_545 S
C1111 H1085 0.950 1_556 S
C1111 C1110 1.414 1_565 S
C1111 C1112 1.374 1_565 S
C1112 H1086 0.946 1_545 S
C1112 C1108 1.385 . S
C1112 C1111 1.374 1_545 S
C1113 C1110 1.498 1_565 S
C1113 C1114 1.373 1_556 S
C1113 C1115 1.389 1_565 S
C1114 H1087 0.950 . S
C1114 C1100 1.377 . S
C1114 C1113 1.373 1_554 S
C1115 C1099 1.377 1_556 S
C1115 C1113 1.389 1_545 S
C1115 C1116 1.524 . S
C1116 C1115 1.524 . S
C1116 C1117 1.397 . S
C1116 C1121 1.363 . S
C1117 H1088 0.950 1_556 S
C1117 C1116 1.397 . S
C1117 C1118 1.334 . S
C1118 H1089 0.950 . S
C1118 C1117 1.334 . S
C1118 C1119 1.287 . S
C1119 C1118 1.287 . S
C1119 C1120 1.524 . S
C1119 H1122 0.999 . S
C1120 H1090 0.950 . S
C1120 C1119 1.524 . S
C1120 C1121 1.415 . S
C1121 H1091 0.950 . S
C1121 C1116 1.363 . S
C1121 C1120 1.415 . S
H1122 C1119 0.999 . S
H1123 C1104 0.913 . S
H1124 C1142 0.951 . S
H1125 C1144 0.951 . S
H1126 C1146 0.950 . S
H1127 C1147 0.950 . S
H1128 C1149 0.950 . S
H1129 C1152 0.950 . S
H1130 C1153 0.950 . S
H1131 C1155 0.950 . S
H1132 C1156 0.950 1_556 S
H1133 C1157 0.951 . S
H1134 C1159 0.951 . S
H1135 C1161 0.950 . S
H1136 C1162 0.950 . S
H1137 C1164 0.950 1_556 S
H1138 C1167 0.950 . S
H1139 C1168 0.950 . S
H1140 C1170 0.950 1_554 S
H1141 C1171 0.950 . S
C1142 H1124 0.951 . S
C1142 C1143 1.366 . S
C1142 C1144 1.388 . S
C1143 C1142 1.366 . S
C1143 C1147 1.385 . S
C1144 H1125 0.951 . S
C1144 C1142 1.388 . S
C1144 C1145 1.366 . S
C1145 C1144 1.366 . S
C1145 C1146 1.414 . S
C1145 C1148 1.499 . S
C1146 H1126 0.950 . S
C1146 C1145 1.414 . S
C1146 C1147 1.374 . S
C1147 H1127 0.950 . S
C1147 C1143 1.385 . S
C1147 C1146 1.374 . S
C1148 C1145 1.499 . S
C1148 C1149 1.373 . S
C1148 C1150 1.389 . S
C1149 H1128 0.950 . S
C1149 C1148 1.373 . S
C1149 C1165 1.376 . S
C1150 C1148 1.389 . S
C1150 C1151 1.524 . S
C1150 C1164 1.377 . S
C1151 C1150 1.524 . S
C1151 C1152 1.397 . S
C1151 C1156 1.363 . S
C1152 H1129 0.950 . S
C1152 C1151 1.397 . S
C1152 C1153 1.334 . S
C1153 H1130 0.950 . S
C1153 C1152 1.334 . S
C1153 C1154 1.287 . S
C1154 C1153 1.287 . S
C1154 C1155 1.524 . S
C1154 H1173 0.913 . S
C1155 H1131 0.950 . S
C1155 C1154 1.524 . S
C1155 C1156 1.415 . S
C1156 H1132 0.950 1_554 S
C1156 C1151 1.363 . S
C1156 C1155 1.415 . S
C1157 H1133 0.951 . S
C1157 C1158 1.366 . S
C1157 C1159 1.388 . S
C1158 C1157 1.366 . S
C1158 C1162 1.385 . S
C1159 H1134 0.951 . S
C1159 C1157 1.388 . S
C1159 C1160 1.366 . S
C1160 C1159 1.366 . S
C1160 C1161 1.414 . S
C1160 C1163 1.499 . S
C1161 H1135 0.950 . S
C1161 C1160 1.414 . S
C1161 C1162 1.374 . S
C1162 H1136 0.950 . S
C1162 C1158 1.385 . S
C1162 C1161 1.374 . S
C1163 C1160 1.499 . S
C1163 C1164 1.373 1_556 S
C1163 C1165 1.390 1_556 S
C1164 H1137 0.950 1_554 S
C1164 C1150 1.377 . S
C1164 C1163 1.373 1_554 S
C1165 C1149 1.376 . S
C1165 C1163 1.390 1_554 S
C1165 C1166 1.525 1_554 S
C1166 C1165 1.525 1_556 S
C1166 C1167 1.397 . S
C1166 C1171 1.363 1_556 S
C1167 H1138 0.950 . S
C1167 C1166 1.397 . S
C1167 C1168 1.334 . S
C1168 H1139 0.950 . S
C1168 C1167 1.334 . S
C1168 C1169 1.287 . S
C1169 C1168 1.287 . S
C1169 C1170 1.524 . S
C1169 H1172 0.999 . S
C1170 H1140 0.950 1_556 S
C1170 C1169 1.524 . S
C1170 C1171 1.415 1_556 S
C1171 H1141 0.950 . S
C1171 C1166 1.363 1_554 S
C1171 C1170 1.415 1_554 S
H1172 C1169 0.999 . S
H1173 C1154 0.913 . S
H1174 C1192 0.951 . S
H1175 C1194 0.951 . S
H1176 C1196 0.950 . S
H1177 C1197 0.950 . S
H1178 C1199 0.950 . S
H1179 C1202 0.950 . S
H1180 C1203 0.950 . S
H1181 C1205 0.950 . S
H1182 C1206 0.950 . S
H1183 C1207 0.951 . S
H1184 C1209 0.951 1_554 S
H1185 C1211 0.950 . S
H1186 C1212 0.950 . S
H1187 C1214 0.950 . S
H1188 C1217 0.950 1_556 S
H1189 C1218 0.950 1_556 S
H1190 C1220 0.950 . S
H1191 C1221 0.950 . S
C1192 H1174 0.951 . S
C1192 C1193 1.366 . S
C1192 C1194 1.388 . S
C1193 C1192 1.366 . S
C1193 C1197 1.385 . S
C1194 H1175 0.951 . S
C1194 C1192 1.388 . S
C1194 C1195 1.366 . S
C1195 C1194 1.366 . S
C1195 C1196 1.414 . S
C1195 C1198 1.499 . S
C1196 H1176 0.950 . S
C1196 C1195 1.414 . S
C1196 C1197 1.374 . S
C1197 H1177 0.950 . S
C1197 C1193 1.385 . S
C1197 C1196 1.374 . S
C1198 C1195 1.499 . S
C1198 C1199 1.373 . S
C1198 C1200 1.389 . S
C1199 H1178 0.950 . S
C1199 C1198 1.373 . S
C1199 C1215 1.377 . S
C1200 C1198 1.389 . S
C1200 C1201 1.524 1_554 S
C1200 C1214 1.377 1_554 S
C1201 C1200 1.524 1_556 S
C1201 C1202 1.397 1_556 S
C1201 C1206 1.363 . S
C1202 H1179 0.950 . S
C1202 C1201 1.397 1_554 S
C1202 C1203 1.334 . S
C1203 H1180 0.950 . S
C1203 C1202 1.334 . S
C1203 C1204 1.287 1_554 S
C1204 C1203 1.287 1_556 S
C1204 C1205 1.524 . S
C1204 H1223 0.913 . S
C1205 H1181 0.950 . S
C1205 C1204 1.524 . S
C1205 C1206 1.415 . S
C1206 H1182 0.950 . S
C1206 C1201 1.363 . S
C1206 C1205 1.415 . S
C1207 H1183 0.951 . S
C1207 C1208 1.366 . S
C1207 C1209 1.388 . S
C1208 C1207 1.366 . S
C1208 C1212 1.385 . S
C1209 H1184 0.951 1_556 S
C1209 C1207 1.388 . S
C1209 C1210 1.366 . S
C1210 C1209 1.366 . S
C1210 C1211 1.414 . S
C1210 C1213 1.499 . S
C1211 H1185 0.950 . S
C1211 C1210 1.414 . S
C1211 C1212 1.374 . S
C1212 H1186 0.950 . S
C1212 C1208 1.385 . S
C1212 C1211 1.374 . S
C1213 C1210 1.499 . S
C1213 C1214 1.373 . S
C1213 C1215 1.389 1_556 S
C1214 H1187 0.950 . S
C1214 C1200 1.377 1_556 S
C1214 C1213 1.373 . S
C1215 C1199 1.377 . S
C1215 C1213 1.389 1_554 S
C1215 C1216 1.524 . S
C1216 C1215 1.524 . S
C1216 C1217 1.397 . S
C1216 C1221 1.363 . S
C1217 H1188 0.950 1_554 S
C1217 C1216 1.397 . S
C1217 C1218 1.334 . S
C1218 H1189 0.950 1_554 S
C1218 C1217 1.334 . S
C1218 C1219 1.287 . S
C1219 C1218 1.287 . S
C1219 C1220 1.524 . S
C1219 H1222 0.999 . S
C1220 H1190 0.950 . S
C1220 C1219 1.524 . S
C1220 C1221 1.415 . S
C1221 H1191 0.950 . S
C1221 C1216 1.363 . S
C1221 C1220 1.415 . S
H1222 C1219 0.999 . S
H1223 C1204 0.913 . S
H1224 C1242 0.951 . S
H1225 C1244 0.951 . S
H1226 C1246 0.950 . S
H1227 C1247 0.950 . S
H1228 C1249 0.950 . S
H1229 C1252 0.950 . S
H1230 C1253 0.950 . S
H1231 C1255 0.950 . S
H1232 C1256 0.950 1_455 S
H1233 C1257 0.951 . S
H1234 C1259 0.951 . S
H1235 C1261 0.950 . S
H1236 C1262 0.950 . S
H1237 C1264 0.950 . S
H1238 C1267 0.950 . S
H1239 C1268 0.950 . S
H1240 C1270 0.950 . S
H1241 C1271 0.950 . S
C1242 H1224 0.951 . S
C1242 C1243 1.366 . S
C1242 C1244 1.388 . S
C1243 C1242 1.366 . S
C1243 C1247 1.385 . S
C1244 H1225 0.951 . S
C1244 C1242 1.388 . S
C1244 C1245 1.366 . S
C1245 C1244 1.366 . S
C1245 C1246 1.414 . S
C1245 C1248 1.499 . S
C1246 H1226 0.950 . S
C1246 C1245 1.414 . S
C1246 C1247 1.374 . S
C1247 H1227 0.950 . S
C1247 C1243 1.385 . S
C1247 C1246 1.374 . S
C1248 C1245 1.499 . S
C1248 C1249 1.373 . S
C1248 C1250 1.389 . S
C1249 H1228 0.950 . S
C1249 C1248 1.373 . S
C1249 C1265 1.377 . S
C1250 C1248 1.389 . S
C1250 C1251 1.524 1_455 S
C1250 C1264 1.377 . S
C1251 C1250 1.524 1_655 S
C1251 C1252 1.397 . S
C1251 C1256 1.363 . S
C1252 H1229 0.950 . S
C1252 C1251 1.397 . S
C1252 C1253 1.334 . S
C1253 H1230 0.950 . S
C1253 C1252 1.334 . S
C1253 C1254 1.287 . S
C1254 C1253 1.287 . S
C1254 C1255 1.524 . S
C1254 H1273 0.913 . S
C1255 H1231 0.950 . S
C1255 C1254 1.524 . S
C1255 C1256 1.415 . S
C1256 H1232 0.950 1_655 S
C1256 C1251 1.363 . S
C1256 C1255 1.415 . S
C1257 H1233 0.951 . S
C1257 C1258 1.366 . S
C1257 C1259 1.388 . S
C1258 C1257 1.366 . S
C1258 C1262 1.385 . S
C1259 H1234 0.951 . S
C1259 C1257 1.388 . S
C1259 C1260 1.366 . S
C1260 C1259 1.366 . S
C1260 C1261 1.414 . S
C1260 C1263 1.499 . S
C1261 H1235 0.950 . S
C1261 C1260 1.414 . S
C1261 C1262 1.374 . S
C1262 H1236 0.950 . S
C1262 C1258 1.385 . S
C1262 C1261 1.374 . S
C1263 C1260 1.499 . S
C1263 C1264 1.373 . S
C1263 C1265 1.389 . S
C1264 H1237 0.950 . S
C1264 C1250 1.377 . S
C1264 C1263 1.373 . S
C1265 C1249 1.377 . S
C1265 C1263 1.389 . S
C1265 C1266 1.524 . S
C1266 C1265 1.524 . S
C1266 C1267 1.397 . S
C1266 C1271 1.363 . S
C1267 H1238 0.950 . S
C1267 C1266 1.397 . S
C1267 C1268 1.334 . S
C1268 H1239 0.950 . S
C1268 C1267 1.334 . S
C1268 C1269 1.287 . S
C1269 C1268 1.287 . S
C1269 C1270 1.524 . S
C1269 H1272 0.999 . S
C1270 H1240 0.950 . S
C1270 C1269 1.524 . S
C1270 C1271 1.415 . S
C1271 H1241 0.950 . S
C1271 C1266 1.363 . S
C1271 C1270 1.415 . S
H1272 C1269 0.999 . S
H1273 C1254 0.913 . S
H1274 C1292 0.951 . S
H1275 C1294 0.951 . S
H1276 C1296 0.950 . S
H1277 C1297 0.950 . S
H1278 C1299 0.950 . S
H1279 C1302 0.950 . S
H1280 C1303 0.950 . S
H1281 C1305 0.950 . S
H1282 C1306 0.950 1_545 S
H1283 C1307 0.951 . S
H1284 C1309 0.951 . S
H1285 C1311 0.950 . S
H1286 C1312 0.950 . S
H1287 C1314 0.950 . S
H1288 C1317 0.950 . S
H1289 C1318 0.950 . S
H1290 C1320 0.950 . S
H1291 C1321 0.950 . S
C1292 H1274 0.951 . S
C1292 C1293 1.366 . S
C1292 C1294 1.388 . S
C1293 C1292 1.366 . S
C1293 C1297 1.385 . S
C1294 H1275 0.951 . S
C1294 C1292 1.388 . S
C1294 C1295 1.366 . S
C1295 C1294 1.366 . S
C1295 C1296 1.414 . S
C1295 C1298 1.499 . S
C1296 H1276 0.950 . S
C1296 C1295 1.414 . S
C1296 C1297 1.374 . S
C1297 H1277 0.950 . S
C1297 C1293 1.385 . S
C1297 C1296 1.374 . S
C1298 C1295 1.499 . S
C1298 C1299 1.373 . S
C1298 C1300 1.389 . S
C1299 H1278 0.950 . S
C1299 C1298 1.373 . S
C1299 C1315 1.377 . S
C1300 C1298 1.389 . S
C1300 C1301 1.524 . S
C1300 C1314 1.377 . S
C1301 C1300 1.524 . S
C1301 C1302 1.397 1_545 S
C1301 C1306 1.363 1_545 S
C1302 H1279 0.950 . S
C1302 C1301 1.397 1_565 S
C1302 C1303 1.334 . S
C1303 H1280 0.950 . S
C1303 C1302 1.334 . S
C1303 C1304 1.287 . S
C1304 C1303 1.287 . S
C1304 C1305 1.524 . S
C1304 H1323 0.913 . S
C1305 H1281 0.950 . S
C1305 C1304 1.524 . S
C1305 C1306 1.415 . S
C1306 H1282 0.950 1_565 S
C1306 C1301 1.363 1_565 S
C1306 C1305 1.415 . S
C1307 H1283 0.951 . S
C1307 C1308 1.366 . S
C1307 C1309 1.388 . S
C1308 C1307 1.366 . S
C1308 C1312 1.385 . S
C1309 H1284 0.951 . S
C1309 C1307 1.388 . S
C1309 C1310 1.366 . S
C1310 C1309 1.366 . S
C1310 C1311 1.414 . S
C1310 C1313 1.499 . S
C1311 H1285 0.950 . S
C1311 C1310 1.414 . S
C1311 C1312 1.374 . S
C1312 H1286 0.950 . S
C1312 C1308 1.385 . S
C1312 C1311 1.374 . S
C1313 C1310 1.499 . S
C1313 C1314 1.373 . S
C1313 C1315 1.389 . S
C1314 H1287 0.950 . S
C1314 C1300 1.377 . S
C1314 C1313 1.373 . S
C1315 C1299 1.377 . S
C1315 C1313 1.389 . S
C1315 C1316 1.524 . S
C1316 C1315 1.524 . S
C1316 C1317 1.397 . S
C1316 C1321 1.363 . S
C1317 H1288 0.950 . S
C1317 C1316 1.397 . S
C1317 C1318 1.334 . S
C1318 H1289 0.950 . S
C1318 C1317 1.334 . S
C1318 C1319 1.287 . S
C1319 C1318 1.287 . S
C1319 C1320 1.524 . S
C1319 H1322 0.999 . S
C1320 H1290 0.950 . S
C1320 C1319 1.524 . S
C1320 C1321 1.415 . S
C1321 H1291 0.950 . S
C1321 C1316 1.363 . S
C1321 C1320 1.415 . S
H1322 C1319 0.999 . S
H1323 C1304 0.913 . S
H1324 C1342 0.951 . S
H1325 C1344 0.951 . S
H1326 C1346 0.950 . S
H1327 C1347 0.950 . S
H1328 C1349 0.950 . S
H1329 C1352 0.950 . S
H1330 C1353 0.950 . S
H1331 C1355 0.950 . S
H1332 C1356 0.950 . S
H1333 C1357 0.951 . S
H1334 C1359 0.951 . S
H1335 C1361 0.950 . S
H1336 C1362 0.950 . S
H1337 C1364 0.950 . S
H1338 C1367 0.950 . S
H1339 C1368 0.950 . S
H1340 C1370 0.950 . S
H1341 C1371 0.950 . S
C1342 H1324 0.951 . S
C1342 C1343 1.366 . S
C1342 C1344 1.388 . S
C1343 C1342 1.366 . S
C1343 C1347 1.385 . S
C1344 H1325 0.951 . S
C1344 C1342 1.388 . S
C1344 C1345 1.366 . S
C1345 C1344 1.366 . S
C1345 C1346 1.414 . S
C1345 C1348 1.499 . S
C1346 H1326 0.950 . S
C1346 C1345 1.414 . S
C1346 C1347 1.374 . S
C1347 H1327 0.950 . S
C1347 C1343 1.385 . S
C1347 C1346 1.374 . S
C1348 C1345 1.499 . S
C1348 C1349 1.373 . S
C1348 C1350 1.389 . S
C1349 H1328 0.950 . S
C1349 C1348 1.373 . S
C1349 C1365 1.377 . S
C1350 C1348 1.389 . S
C1350 C1351 1.524 . S
C1350 C1364 1.377 . S
C1351 C1350 1.524 . S
C1351 C1352 1.397 . S
C1351 C1356 1.363 . S
C1352 H1329 0.950 . S
C1352 C1351 1.397 . S
C1352 C1353 1.334 . S
C1353 H1330 0.950 . S
C1353 C1352 1.334 . S
C1353 C1354 1.287 . S
C1354 C1353 1.287 . S
C1354 C1355 1.524 . S
C1354 H1373 0.913 . S
C1355 H1331 0.950 . S
C1355 C1354 1.524 . S
C1355 C1356 1.415 . S
C1356 H1332 0.950 . S
C1356 C1351 1.363 . S
C1356 C1355 1.415 . S
C1357 H1333 0.951 . S
C1357 C1358 1.366 . S
C1357 C1359 1.388 . S
C1358 C1357 1.366 . S
C1358 C1362 1.385 . S
C1359 H1334 0.951 . S
C1359 C1357 1.388 . S
C1359 C1360 1.366 . S
C1360 C1359 1.366 . S
C1360 C1361 1.414 . S
C1360 C1363 1.499 . S
C1361 H1335 0.950 . S
C1361 C1360 1.414 . S
C1361 C1362 1.374 . S
C1362 H1336 0.950 . S
C1362 C1358 1.385 . S
C1362 C1361 1.374 . S
C1363 C1360 1.499 . S
C1363 C1364 1.373 . S
C1363 C1365 1.389 . S
C1364 H1337 0.950 . S
C1364 C1350 1.377 . S
C1364 C1363 1.373 . S
C1365 C1349 1.377 . S
C1365 C1363 1.389 . S
C1365 C1366 1.524 . S
C1366 C1365 1.524 . S
C1366 C1367 1.397 . S
C1366 C1371 1.363 . S
C1367 H1338 0.950 . S
C1367 C1366 1.397 . S
C1367 C1368 1.334 . S
C1368 H1339 0.950 . S
C1368 C1367 1.334 . S
C1368 C1369 1.287 . S
C1369 C1368 1.287 . S
C1369 C1370 1.524 . S
C1369 H1372 0.999 . S
C1370 H1340 0.950 . S
C1370 C1369 1.524 . S
C1370 C1371 1.415 . S
C1371 H1341 0.950 . S
C1371 C1366 1.363 . S
C1371 C1370 1.415 . S
H1372 C1369 0.999 . S
H1373 C1354 0.913 . S
H1374 C1392 0.951 . S
H1375 C1394 0.951 . S
H1376 C1396 0.950 . S
H1377 C1397 0.950 . S
H1378 C1399 0.950 . S
H1379 C1402 0.950 . S
H1380 C1403 0.950 . S
H1381 C1405 0.950 . S
H1382 C1406 0.950 . S
H1383 C1407 0.951 . S
H1384 C1409 0.951 . S
H1385 C1411 0.950 . S
H1386 C1412 0.950 . S
H1387 C1414 0.950 . S
H1388 C1417 0.950 . S
H1389 C1418 0.950 . S
H1390 C1420 0.950 1_554 S
H1391 C1421 0.950 . S
C1392 H1374 0.951 . S
C1392 C1393 1.366 . S
C1392 C1394 1.388 . S
C1393 C1392 1.366 . S
C1393 C1397 1.385 . S
C1394 H1375 0.951 . S
C1394 C1392 1.388 . S
C1394 C1395 1.366 . S
C1395 C1394 1.366 . S
C1395 C1396 1.414 . S
C1395 C1398 1.499 . S
C1396 H1376 0.950 . S
C1396 C1395 1.414 . S
C1396 C1397 1.374 . S
C1397 H1377 0.950 . S
C1397 C1393 1.385 . S
C1397 C1396 1.374 . S
C1398 C1395 1.499 . S
C1398 C1399 1.373 . S
C1398 C1400 1.389 . S
C1399 H1378 0.950 . S
C1399 C1398 1.373 . S
C1399 C1415 1.377 . S
C1400 C1398 1.389 . S
C1400 C1401 1.524 . S
C1400 C1414 1.377 . S
C1401 C1400 1.524 . S
C1401 C1402 1.397 . S
C1401 C1406 1.363 . S
C1402 H1379 0.950 . S
C1402 C1401 1.397 . S
C1402 C1403 1.334 . S
C1403 H1380 0.950 . S
C1403 C1402 1.334 . S
C1403 C1404 1.287 . S
C1404 C1403 1.287 . S
C1404 C1405 1.524 . S
C1404 H1423 0.913 . S
C1405 H1381 0.950 . S
C1405 C1404 1.524 . S
C1405 C1406 1.415 . S
C1406 H1382 0.950 . S
C1406 C1401 1.363 . S
C1406 C1405 1.415 . S
C1407 H1383 0.951 . S
C1407 C1408 1.366 . S
C1407 C1409 1.388 . S
C1408 C1407 1.366 . S
C1408 C1412 1.385 . S
C1409 H1384 0.951 . S
C1409 C1407 1.388 . S
C1409 C1410 1.366 . S
C1410 C1409 1.366 . S
C1410 C1411 1.414 . S
C1410 C1413 1.499 . S
C1411 H1385 0.950 . S
C1411 C1410 1.414 . S
C1411 C1412 1.374 . S
C1412 H1386 0.950 . S
C1412 C1408 1.385 . S
C1412 C1411 1.374 . S
C1413 C1410 1.499 . S
C1413 C1414 1.373 . S
C1413 C1415 1.389 . S
C1414 H1387 0.950 . S
C1414 C1400 1.377 . S
C1414 C1413 1.373 . S
C1415 C1399 1.377 . S
C1415 C1413 1.389 . S
C1415 C1416 1.524 . S
C1416 C1415 1.524 . S
C1416 C1417 1.397 . S
C1416 C1421 1.363 . S
C1417 H1388 0.950 . S
C1417 C1416 1.397 . S
C1417 C1418 1.334 . S
C1418 H1389 0.950 . S
C1418 C1417 1.334 . S
C1418 C1419 1.287 . S
C1419 C1418 1.287 . S
C1419 C1420 1.524 . S
C1419 H1422 0.999 . S
C1420 H1390 0.950 1_556 S
C1420 C1419 1.524 . S
C1420 C1421 1.415 . S
C1421 H1391 0.950 . S
C1421 C1416 1.363 . S
C1421 C1420 1.415 . S
H1422 C1419 0.999 . S
H1423 C1404 0.913 . S
H1424 C1442 0.951 . S
H1425 C1444 0.951 . S
H1426 C1446 0.950 1_455 S
H1427 C1447 0.950 1_455 S
H1428 C1449 0.950 . S
H1429 C1452 0.963 . S
H1430 C1453 0.950 . S
H1431 C1455 0.950 . S
H1432 C1456 0.950 . S
H1433 C1457 0.951 . S
H1434 C1459 0.951 . S
H1435 C1461 0.950 . S
H1436 C1462 0.950 . S
H1437 C1464 0.950 . S
H1438 C1467 0.950 . S
H1439 C1468 0.950 . S
H1440 C1470 0.950 . S
H1441 C1471 0.950 . S
C1442 H1424 0.951 . S
C1442 C1443 1.366 . S
C1442 C1444 1.388 . S
C1443 C1442 1.366 . S
C1443 C1447 1.385 . S
C1444 H1425 0.951 . S
C1444 C1442 1.388 . S
C1444 C1445 1.366 . S
C1445 C1444 1.366 . S
C1445 C1446 1.414 . S
C1445 C1448 1.499 . S
C1446 H1426 0.950 1_655 S
C1446 C1445 1.414 . S
C1446 C1447 1.374 . S
C1447 H1427 0.950 1_655 S
C1447 C1443 1.385 . S
C1447 C1446 1.374 . S
C1448 C1445 1.499 . S
C1448 C1449 1.373 . S
C1448 C1450 1.389 . S
C1449 H1428 0.950 . S
C1449 C1448 1.373 . S
C1449 C1465 1.377 . S
C1450 C1448 1.389 . S
C1450 C1451 1.524 . S
C1450 C1464 1.377 . S
C1451 C1450 1.524 . S
C1451 C1452 1.397 . S
C1451 C1456 1.363 . S
C1452 H1429 0.963 . S
C1452 C1451 1.397 . S
C1452 C1453 1.334 . S
C1453 H1430 0.950 . S
C1453 C1452 1.334 . S
C1453 C1454 1.287 . S
C1454 C1453 1.287 . S
C1454 C1455 1.524 . S
C1454 H1473 0.913 . S
C1455 H1431 0.950 . S
C1455 C1454 1.524 . S
C1455 C1456 1.415 . S
C1456 H1432 0.950 . S
C1456 C1451 1.363 . S
C1456 C1455 1.415 . S
C1457 H1433 0.951 . S
C1457 C1458 1.366 1_455 S
C1457 C1459 1.388 . S
C1458 C1457 1.366 1_655 S
C1458 C1462 1.385 . S
C1459 H1434 0.951 . S
C1459 C1457 1.388 . S
C1459 C1460 1.366 1_455 S
C1460 C1459 1.366 1_655 S
C1460 C1461 1.414 . S
C1460 C1463 1.499 . S
C1461 H1435 0.950 . S
C1461 C1460 1.414 . S
C1461 C1462 1.374 . S
C1462 H1436 0.950 . S
C1462 C1458 1.385 . S
C1462 C1461 1.374 . S
C1463 C1460 1.499 . S
C1463 C1464 1.373 . S
C1463 C1465 1.389 . S
C1464 H1437 0.950 . S
C1464 C1450 1.377 . S
C1464 C1463 1.373 . S
C1465 C1449 1.377 . S
C1465 C1463 1.389 . S
C1465 C1466 1.524 . S
C1466 C1465 1.524 . S
C1466 C1467 1.397 . S
C1466 C1471 1.363 1_655 S
C1467 H1438 0.950 . S
C1467 C1466 1.397 . S
C1467 C1468 1.334 . S
C1468 H1439 0.950 . S
C1468 C1467 1.334 . S
C1468 C1469 1.316 . S
C1469 C1468 1.316 . S
C1469 C1470 1.497 1_655 S
C1469 H1472 0.992 1_655 S
C1470 H1440 0.950 . S
C1470 C1469 1.497 1_455 S
C1470 C1471 1.415 . S
C1471 H1441 0.950 . S
C1471 C1466 1.363 1_455 S
C1471 C1470 1.415 . S
H1472 C1469 0.992 1_455 S
H1473 C1454 0.913 . S
H1474 C1492 0.951 . S
H1475 C1494 0.951 . S
H1476 C1496 0.950 . S
H1477 C1497 0.950 . S
H1478 C1499 0.950 . S
H1479 C1502 0.950 . S
H1480 C1503 0.950 . S
H1481 C1505 0.950 . S
H1482 C1506 0.950 1_565 S
H1483 C1507 0.958 . S
H1484 C1509 0.951 1_545 S
H1485 C1511 0.950 . S
H1486 C1512 0.950 . S
H1487 C1514 0.950 1_545 S
H1488 C1517 0.950 . S
H1489 C1518 0.950 . S
H1490 C1520 0.950 . S
H1491 C1521 0.950 . S
C1492 H1474 0.951 . S
C1492 C1493 1.366 . S
C1492 C1494 1.388 . S
C1493 C1492 1.366 . S
C1493 C1497 1.385 . S
C1494 H1475 0.951 . S
C1494 C1492 1.388 . S
C1494 C1495 1.366 . S
C1495 C1494 1.366 . S
C1495 C1496 1.414 . S
C1495 C1498 1.499 . S
C1496 H1476 0.950 . S
C1496 C1495 1.414 . S
C1496 C1497 1.374 . S
C1497 H1477 0.950 . S
C1497 C1493 1.385 . S
C1497 C1496 1.374 . S
C1498 C1495 1.499 . S
C1498 C1499 1.373 . S
C1498 C1500 1.389 . S
C1499 H1478 0.950 . S
C1499 C1498 1.373 . S
C1499 C1515 1.377 . S
C1500 C1498 1.389 . S
C1500 C1501 1.524 1_565 S
C1500 C1514 1.377 . S
C1501 C1500 1.524 1_545 S
C1501 C1502 1.397 . S
C1501 C1506 1.363 . S
C1502 H1479 0.950 . S
C1502 C1501 1.397 . S
C1502 C1503 1.334 . S
C1503 H1480 0.950 . S
C1503 C1502 1.334 . S
C1503 C1504 1.287 . S
C1504 C1503 1.287 . S
C1504 C1505 1.524 . S
C1504 H1523 0.913 . S
C1505 H1481 0.950 . S
C1505 C1504 1.524 . S
C1505 C1506 1.415 . S
C1506 H1482 0.950 1_545 S
C1506 C1501 1.363 . S
C1506 C1505 1.415 . S
C1507 H1483 0.958 . S
C1507 C1508 1.363 1_545 S
C1507 C1509 1.385 1_545 S
C1508 C1507 1.363 1_565 S
C1508 C1512 1.385 . S
C1509 H1484 0.951 1_565 S
C1509 C1507 1.385 1_565 S
C1509 C1510 1.366 . S
C1510 C1509 1.366 . S
C1510 C1511 1.414 . S
C1510 C1513 1.499 . S
C1511 H1485 0.950 . S
C1511 C1510 1.414 . S
C1511 C1512 1.374 . S
C1512 H1486 0.950 . S
C1512 C1508 1.385 . S
C1512 C1511 1.374 . S
C1513 C1510 1.499 . S
C1513 C1514 1.373 . S
C1513 C1515 1.389 . S
C1514 H1487 0.950 1_565 S
C1514 C1500 1.377 . S
C1514 C1513 1.373 . S
C1515 C1499 1.377 . S
C1515 C1513 1.389 . S
C1515 C1516 1.524 . S
C1516 C1515 1.524 . S
C1516 C1517 1.397 . S
C1516 C1521 1.363 . S
C1517 H1488 0.950 . S
C1517 C1516 1.397 . S
C1517 C1518 1.334 . S
C1518 H1489 0.950 . S
C1518 C1517 1.334 . S
C1518 C1519 1.287 . S
C1519 C1518 1.287 . S
C1519 C1520 1.524 . S
C1519 H1522 0.999 . S
C1520 H1490 0.950 . S
C1520 C1519 1.524 . S
C1520 C1521 1.415 . S
C1521 H1491 0.950 . S
C1521 C1516 1.363 . S
C1521 C1520 1.415 . S
H1522 C1519 0.999 . S
H1523 C1504 0.913 . S
H1524 C1542 0.951 . S
H1525 C1544 0.951 . S
H1526 C1546 0.950 . S
H1527 C1547 0.950 . S
H1528 C1549 0.950 . S
H1529 C1552 0.950 . S
H1530 C1553 0.950 . S
H1531 C1555 0.950 . S
H1532 C1556 0.950 . S
H1533 C1557 0.951 . S
H1534 C1559 0.951 . S
H1535 C1561 0.950 . S
H1536 C1562 0.950 . S
H1537 C1564 0.950 . S
H1538 C1567 0.950 . S
H1539 C1568 0.950 . S
H1540 C1570 0.950 . S
H1541 C1571 0.950 . S
C1542 H1524 0.951 . S
C1542 C1543 1.366 . S
C1542 C1544 1.388 . S
C1543 C1542 1.366 . S
C1543 C1547 1.385 . S
C1544 H1525 0.951 . S
C1544 C1542 1.388 . S
C1544 C1545 1.366 . S
C1545 C1544 1.366 . S
C1545 C1546 1.414 . S
C1545 C1548 1.499 . S
C1546 H1526 0.950 . S
C1546 C1545 1.414 . S
C1546 C1547 1.374 . S
C1547 H1527 0.950 . S
C1547 C1543 1.385 . S
C1547 C1546 1.374 . S
C1548 C1545 1.499 . S
C1548 C1549 1.373 . S
C1548 C1550 1.389 . S
C1549 H1528 0.950 . S
C1549 C1548 1.373 . S
C1549 C1565 1.377 . S
C1550 C1548 1.389 . S
C1550 C1551 1.524 . S
C1550 C1564 1.377 . S
C1551 C1550 1.524 . S
C1551 C1552 1.397 . S
C1551 C1556 1.363 . S
C1552 H1529 0.950 . S
C1552 C1551 1.397 . S
C1552 C1553 1.334 . S
C1553 H1530 0.950 . S
C1553 C1552 1.334 . S
C1553 C1554 1.287 . S
C1554 C1553 1.287 . S
C1554 C1555 1.524 . S
C1554 H1573 0.913 . S
C1555 H1531 0.950 . S
C1555 C1554 1.524 . S
C1555 C1556 1.415 . S
C1556 H1532 0.950 . S
C1556 C1551 1.363 . S
C1556 C1555 1.415 . S
C1557 H1533 0.951 . S
C1557 C1558 1.366 . S
C1557 C1559 1.388 . S
C1558 C1557 1.366 . S
C1558 C1562 1.385 . S
C1559 H1534 0.951 . S
C1559 C1557 1.388 . S
C1559 C1560 1.366 . S
C1560 C1559 1.366 . S
C1560 C1561 1.414 . S
C1560 C1563 1.499 . S
C1561 H1535 0.950 . S
C1561 C1560 1.414 . S
C1561 C1562 1.374 . S
C1562 H1536 0.950 . S
C1562 C1558 1.385 . S
C1562 C1561 1.374 . S
C1563 C1560 1.499 . S
C1563 C1564 1.373 . S
C1563 C1565 1.389 . S
C1564 H1537 0.950 . S
C1564 C1550 1.377 . S
C1564 C1563 1.373 . S
C1565 C1549 1.377 . S
C1565 C1563 1.389 . S
C1565 C1566 1.524 . S
C1566 C1565 1.524 . S
C1566 C1567 1.397 . S
C1566 C1571 1.363 . S
C1567 H1538 0.950 . S
C1567 C1566 1.397 . S
C1567 C1568 1.334 . S
C1568 H1539 0.950 . S
C1568 C1567 1.334 . S
C1568 C1569 1.287 . S
C1569 C1568 1.287 . S
C1569 C1570 1.524 . S
C1569 H1572 0.999 . S
C1570 H1540 0.950 . S
C1570 C1569 1.524 . S
C1570 C1571 1.415 . S
C1571 H1541 0.950 . S
C1571 C1566 1.363 . S
C1571 C1570 1.415 . S
H1572 C1569 0.999 . S
H1573 C1554 0.913 . S
H1574 C1592 0.951 . S
H1575 C1594 0.951 . S
H1576 C1596 0.950 . S
H1577 C1597 0.950 . S
H1578 C1599 0.950 . S
H1579 C1602 0.950 . S
H1580 C1603 0.950 . S
H1581 C1605 0.950 . S
H1582 C1606 0.950 . S
H1583 C1607 0.951 . S
H1584 C1609 0.951 . S
H1585 C1611 0.950 . S
H1586 C1612 0.950 . S
H1587 C1614 0.950 . S
H1588 C1617 0.950 . S
H1589 C1618 0.950 . S
H1590 C1620 0.950 . S
H1591 C1621 0.950 . S
C1592 H1574 0.951 . S
C1592 C1593 1.366 . S
C1592 C1594 1.388 . S
C1593 C1592 1.366 . S
C1593 C1597 1.385 . S
C1594 H1575 0.951 . S
C1594 C1592 1.388 . S
C1594 C1595 1.366 . S
C1595 C1594 1.366 . S
C1595 C1596 1.414 . S
C1595 C1598 1.499 . S
C1596 H1576 0.950 . S
C1596 C1595 1.414 . S
C1596 C1597 1.374 . S
C1597 H1577 0.950 . S
C1597 C1593 1.385 . S
C1597 C1596 1.374 . S
C1598 C1595 1.499 . S
C1598 C1599 1.373 . S
C1598 C1600 1.389 . S
C1599 H1578 0.950 . S
C1599 C1598 1.373 . S
C1599 C1615 1.377 . S
C1600 C1598 1.389 . S
C1600 C1601 1.524 . S
C1600 C1614 1.377 . S
C1601 C1600 1.524 . S
C1601 C1602 1.397 . S
C1601 C1606 1.363 . S
C1602 H1579 0.950 . S
C1602 C1601 1.397 . S
C1602 C1603 1.334 . S
C1603 H1580 0.950 . S
C1603 C1602 1.334 . S
C1603 C1604 1.287 . S
C1604 C1603 1.287 . S
C1604 C1605 1.524 . S
C1604 H1623 0.913 . S
C1605 H1581 0.950 . S
C1605 C1604 1.524 . S
C1605 C1606 1.415 . S
C1606 H1582 0.950 . S
C1606 C1601 1.363 . S
C1606 C1605 1.415 . S
C1607 H1583 0.951 . S
C1607 C1608 1.366 . S
C1607 C1609 1.388 . S
C1608 C1607 1.366 . S
C1608 C1612 1.385 . S
C1609 H1584 0.951 . S
C1609 C1607 1.388 . S
C1609 C1610 1.366 . S
C1610 C1609 1.366 . S
C1610 C1611 1.414 . S
C1610 C1613 1.499 . S
C1611 H1585 0.950 . S
C1611 C1610 1.414 . S
C1611 C1612 1.374 . S
C1612 H1586 0.950 . S
C1612 C1608 1.385 . S
C1612 C1611 1.374 . S
C1613 C1610 1.499 . S
C1613 C1614 1.373 . S
C1613 C1615 1.389 . S
C1614 H1587 0.950 . S
C1614 C1600 1.377 . S
C1614 C1613 1.373 . S
C1615 C1599 1.377 . S
C1615 C1613 1.389 . S
C1615 C1616 1.524 . S
C1616 C1615 1.524 . S
C1616 C1617 1.397 . S
C1616 C1621 1.363 . S
C1617 H1588 0.950 . S
C1617 C1616 1.397 . S
C1617 C1618 1.334 . S
C1618 H1589 0.950 . S
C1618 C1617 1.334 . S
C1618 C1619 1.287 . S
C1619 C1618 1.287 . S
C1619 C1620 1.524 . S
C1619 H1622 0.999 . S
C1620 H1590 0.950 . S
C1620 C1619 1.524 . S
C1620 C1621 1.415 . S
C1621 H1591 0.950 . S
C1621 C1616 1.363 . S
C1621 C1620 1.415 . S
H1622 C1619 0.999 . S
H1623 C1604 0.913 . S
C443 C76 1.841 . S
C458 C151 1.931 . S
C508 C228 1.946 . S
C493 C87 1.842 . S
C558 C319 1.921 . S
C543 C54 1.832 . S
C608 C403 1.913 . S
C593 C65 1.825 . S
C658 C162 1.934 . S
C643 C32 1.846 . S
C693 C43 1.847 . S
C708 C239 1.946 . S
C743 C10 1.835 . S
C758 C330 1.921 . S
C793 C21 1.830 . S
C808 C414 1.914 1_655 S
C858 C146 0.514 1_455 S
C843 C60 0.472 . S
C908 C241 0.554 . S
C893 C71 0.449 . S
C958 C314 0.551 . S
C943 C82 0.473 . S
C993 C49 0.457 . S
C1008 C398 0.542 . S
C1043 C16 0.481 . S
C1058 C157 0.550 . S
C1108 C230 0.553 . S
C1093 C27 0.457 . S
C1158 C325 0.548 . S
C1143 C38 0.482 . S
C1193 C5 0.465 . S
C1208 C409 0.540 . S
C1243 C59 1.851 . S
C1258 C155 2.003 . S
C1293 C70 1.852 . S
C1308 C246 2.004 . S
C1358 C323 2.019 . S
C1343 C81 1.865 . S
C1408 C407 2.026 . S
C1393 C48 1.872 . S
C1443 C15 1.845 . S
C1458 C144 2.004 . S
C1508 C235 2.004 1_565 S
C1493 C26 1.846 . S
C1558 C312 2.019 . S
C1543 C37 1.858 . S
C1593 C4 1.865 . S
C1608 C396 2.026 . S
