# Generated by pormake.
# Topology pyr, (3,6)-cn, num edge types: 1
# Building blocks:
#     Node 0, Type 0, BuildingBlock: QEWDON_clean_linker_0, # of connection points: 3
#     Node 1, Type 0, BuildingBlock: QEWDON_clean_linker_0, # of connection points: 3
#     Node 2, Type 0, BuildingBlock: QEWDON_clean_linker_0, # of connection points: 3
#     Node 3, Type 0, BuildingBlock: QEWDON_clean_linker_0, # of connection points: 3
#     Node 4, Type 0, BuildingBlock: QEWDON_clean_linker_0, # of connection points: 3
#     Node 5, Type 0, BuildingBlock: QEWDON_clean_linker_0, # of connection points: 3
#     Node 6, Type 0, BuildingBlock: QEWDON_clean_linker_0, # of connection points: 3
#     Node 7, Type 0, BuildingBlock: QEWDON_clean_linker_0, # of connection points: 3
#     Node 8, Type 1, BuildingBlock: JUFBIX_clean_sbu_0, # of connection points: 6
#     Node 9, Type 1, BuildingBlock: JUFBIX_clean_sbu_0, # of connection points: 6
#     Node 10, Type 1, BuildingBlock: JUFBIX_clean_sbu_0, # of connection points: 6
#     Node 11, Type 1, BuildingBlock: JUFBIX_clean_sbu_0, # of connection points: 6
#     Edge 12, Type (0, 1), BuildingBlock: KIFKEQ_clean_linker_1, # of connection points: 2
#     Edge 13, Type (0, 1), BuildingBlock: KIFKEQ_clean_linker_1, # of connection points: 2
#     Edge 14, Type (0, 1), BuildingBlock: KIFKEQ_clean_linker_1, # of connection points: 2
#     Edge 15, Type (0, 1), BuildingBlock: KIFKEQ_clean_linker_1, # of connection points: 2
#     Edge 16, Type (0, 1), BuildingBlock: KIFKEQ_clean_linker_1, # of connection points: 2
#     Edge 17, Type (0, 1), BuildingBlock: KIFKEQ_clean_linker_1, # of connection points: 2
#     Edge 18, Type (0, 1), BuildingBlock: KIFKEQ_clean_linker_1, # of connection points: 2
#     Edge 19, Type (0, 1), BuildingBlock: KIFKEQ_clean_linker_1, # of connection points: 2
#     Edge 20, Type (0, 1), BuildingBlock: KIFKEQ_clean_linker_1, # of connection points: 2
#     Edge 21, Type (0, 1), BuildingBlock: KIFKEQ_clean_linker_1, # of connection points: 2
#     Edge 22, Type (0, 1), BuildingBlock: KIFKEQ_clean_linker_1, # of connection points: 2
#     Edge 23, Type (0, 1), BuildingBlock: KIFKEQ_clean_linker_1, # of connection points: 2
#     Edge 24, Type (0, 1), BuildingBlock: KIFKEQ_clean_linker_1, # of connection points: 2
#     Edge 25, Type (0, 1), BuildingBlock: KIFKEQ_clean_linker_1, # of connection points: 2
#     Edge 26, Type (0, 1), BuildingBlock: KIFKEQ_clean_linker_1, # of connection points: 2
#     Edge 27, Type (0, 1), BuildingBlock: KIFKEQ_clean_linker_1, # of connection points: 2
#     Edge 28, Type (0, 1), BuildingBlock: KIFKEQ_clean_linker_1, # of connection points: 2
#     Edge 29, Type (0, 1), BuildingBlock: KIFKEQ_clean_linker_1, # of connection points: 2
#     Edge 30, Type (0, 1), BuildingBlock: KIFKEQ_clean_linker_1, # of connection points: 2
#     Edge 31, Type (0, 1), BuildingBlock: KIFKEQ_clean_linker_1, # of connection points: 2
#     Edge 32, Type (0, 1), BuildingBlock: KIFKEQ_clean_linker_1, # of connection points: 2
#     Edge 33, Type (0, 1), BuildingBlock: KIFKEQ_clean_linker_1, # of connection points: 2
#     Edge 34, Type (0, 1), BuildingBlock: KIFKEQ_clean_linker_1, # of connection points: 2
#     Edge 35, Type (0, 1), BuildingBlock: KIFKEQ_clean_linker_1, # of connection points: 2
# Relax obj value: 0.180
# Max RMSD: 0.286
# Mean RMSD: 0.183
data_MOF--net-pyr--node1-JUFBIX_clean_sbu_0--node2-QEWDON_clean_linker_0--edge1-KIFKEQ_clean_linker_1
_symmetry_space_group_name_H-M    P1
_symmetry_Int_Tables_number       1
_symmetry_cell_setting            triclinic
loop_
_symmetry_equiv_pos_as_xyz
'x, y, z'
_cell_length_a     37.400159
_cell_length_b     35.806558
_cell_length_c     40.016253
_cell_angle_alpha  83.117823
_cell_angle_beta   87.16404
_cell_angle_gamma 98.532072
loop_
_atom_site_label
_atom_site_type_symbol
_atom_site_fract_x
_atom_site_fract_y
_atom_site_fract_z
_atom_type_partial_charge
H0 H 0.28837 0.27005 0.18641 0.0
C1 C 0.27035 0.25294 0.20639 0.0
C2 C 0.27563 0.21536 0.21707 0.0
C3 C 0.24278 0.26927 0.22174 0.0
H4 H 0.25641 0.16495 0.25196 0.0
C5 C 0.25232 0.1938 0.24357 0.0
C6 C 0.22489 0.20971 0.26013 0.0
C7 C 0.22013 0.24745 0.2484 0.0
C8 C 0.24251 0.31109 0.21397 0.0
H9 H 0.20055 0.26097 0.26148 0.0
C10 C 0.21188 0.32681 0.20257 0.0
C11 C 0.21344 0.36694 0.19615 0.0
C12 C 0.27421 0.3358 0.21864 0.0
H13 H 0.29791 0.3246 0.22749 0.0
C14 C 0.27571 0.37509 0.21243 0.0
H15 H 0.18726 0.30814 0.19876 0.0
C16 C 0.24571 0.39054 0.20135 0.0
H17 H 0.24793 0.42125 0.19634 0.0
H18 H 0.30034 0.39372 0.2162 0.0
H19 H 0.38985 0.89339 0.80348 0.0
C20 C 0.4068 0.87656 0.79081 0.0
C21 C 0.44464 0.88369 0.7922 0.0
C22 C 0.39054 0.84645 0.77476 0.0
H23 H 0.49558 0.8667 0.77687 0.0
C24 C 0.46636 0.86135 0.776 0.0
C25 C 0.45006 0.83163 0.75918 0.0
C26 C 0.41219 0.82408 0.75915 0.0
C27 C 0.35087 0.83828 0.77377 0.0
H28 H 0.39947 0.80122 0.74615 0.0
C29 C 0.33233 0.86501 0.75642 0.0
C30 C 0.29516 0.85583 0.75214 0.0
C31 C 0.33187 0.80266 0.78789 0.0
H32 H 0.34589 0.78164 0.80122 0.0
C33 C 0.29468 0.79386 0.78463 0.0
H34 H 0.34726 0.89209 0.74469 0.0
C35 C 0.2764 0.82014 0.76659 0.0
H36 H 0.24769 0.81252 0.76372 0.0
H37 H 0.28012 0.76637 0.79557 0.0
H38 H 0.7386 0.52001 0.93884 0.0
C39 C 0.72734 0.48998 0.94279 0.0
C40 C 0.74805 0.46326 0.95678 0.0
C41 C 0.69211 0.47841 0.93391 0.0
H42 H 0.74922 0.40393 0.97243 0.0
C43 C 0.73316 0.42446 0.9615 0.0
C44 C 0.69719 0.41238 0.95381 0.0
C45 C 0.67709 0.43976 0.93936 0.0
C46 C 0.67056 0.50733 0.92042 0.0
H47 H 0.64914 0.43154 0.93391 0.0
C48 C 0.66025 0.50874 0.88712 0.0
C49 C 0.64228 0.53822 0.87333 0.0
C50 C 0.6621 0.53498 0.94028 0.0
H51 H 0.67003 0.53434 0.966 0.0
C52 C 0.64342 0.5637 0.92702 0.0
H53 H 0.66766 0.48788 0.8716 0.0
C54 C 0.63368 0.56549 0.89371 0.0
H55 H 0.61941 0.58818 0.88387 0.0
H56 H 0.63681 0.58487 0.94249 0.0
H57 H 0.04402 0.69492 0.49105 0.0
C58 C 1.01573 0.68696 0.49991 0.0
C59 C 0.99759 0.71287 0.51499 0.0
C60 C 0.997 0.65128 0.49519 0.0
H61 H 0.9465 0.72375 0.53543 0.0
C62 C 0.96068 0.70283 0.52531 0.0
C63 C 0.9414 0.66743 0.52014 0.0
C64 C 0.96 0.64161 0.50525 0.0
C65 C 1.01504 0.62557 0.47651 0.0
H66 H 0.94566 0.61422 0.50086 0.0
C67 C 1.00881 0.62396 0.44244 0.0
C68 C 0.02533 0.59936 0.42392 0.0
C69 C 0.03813 0.60269 0.49237 0.0
H70 H 0.04319 0.60374 0.51869 0.0
C71 C 0.05454 0.578 0.47429 0.0
H72 H 0.99162 0.64261 0.43032 0.0
C73 C 0.04819 0.57622 0.44031 0.0
H74 H 0.06095 0.55654 0.42702 0.0
H75 H 0.07217 0.56011 0.48665 0.0
H76 H 0.86119 0.87724 0.92329 0.0
C77 C 0.87611 0.89227 0.90051 0.0
C78 C 0.91025 0.88307 0.8907 0.0
C79 C 0.85959 0.91811 0.87944 0.0
H80 H 0.95341 0.89278 0.85137 0.0
C81 C 0.92781 0.90067 0.85939 0.0
C82 C 0.9121 0.92715 0.83795 0.0
C83 C 0.87828 0.93606 0.84893 0.0
C84 C 0.81998 0.91954 0.88434 0.0
H85 H 0.86529 0.956 0.83309 0.0
C86 C 0.80383 0.93446 0.91174 0.0
C87 C 0.76579 0.93485 0.91415 0.0
C88 C 0.79785 0.90535 0.8599 0.0
H89 H 0.80943 0.89367 0.83883 0.0
C90 C 0.76075 0.90584 0.86218 0.0
H91 H 0.82052 0.94554 0.93077 0.0
C92 C 0.74487 0.92046 0.88889 0.0
H93 H 0.71594 0.92091 0.88955 0.0
H94 H 0.74416 0.89492 0.84303 0.0
H95 H 0.70309 0.22479 0.48975 0.0
C96 C 0.6944 0.21642 0.46591 0.0
C97 C 0.71758 0.20016 0.44509 0.0
C98 C 0.65937 0.22057 0.45671 0.0
H99 H 0.72253 0.17534 0.39882 0.0
C100 C 0.70522 0.18865 0.41472 0.0
C101 C 0.67011 0.19252 0.40536 0.0
C102 C 0.64742 0.20883 0.42644 0.0
C103 C 0.63341 0.23236 0.48062 0.0
H104 H 0.61984 0.21085 0.42011 0.0
C105 C 0.63117 0.27103 0.48171 0.0
C106 C 0.6042 0.28145 0.50291 0.0
C107 C 0.6093 0.20428 0.50129 0.0
H108 H 0.61071 0.17437 0.50058 0.0
C109 C 0.58294 0.21458 0.52273 0.0
H110 H 0.64953 0.29274 0.46544 0.0
C111 C 0.5802 0.2529 0.52342 0.0
H112 H 0.5594 0.26031 0.5401 0.0
H113 H 0.56437 0.1928 0.53862 0.0
H114 H 0.41932 0.73639 0.23136 0.0
C115 C 0.39285 0.73141 0.22137 0.0
C116 C 0.38136 0.76032 0.19959 0.0
C117 C 0.37146 0.6952 0.22808 0.0
H118 H 0.33908 0.77565 0.16846 0.0
C119 C 0.34767 0.75344 0.18566 0.0
C120 C 0.32581 0.71774 0.19244 0.0
C121 C 0.3379 0.68871 0.21364 0.0
C122 C 0.38537 0.66323 0.24773 0.0
H123 H 0.32121 0.66093 0.2188 0.0
C124 C 0.40124 0.66777 0.27847 0.0
C125 C 0.41521 0.63745 0.29636 0.0
C126 C 0.38347 0.62799 0.2352 0.0
H127 H 0.3718 0.62384 0.21143 0.0
C128 C 0.39729 0.59794 0.25286 0.0
H129 H 0.4028 0.6948 0.28839 0.0
C130 C 0.41314 0.60258 0.2832 0.0
H131 H 0.42335 0.57869 0.29663 0.0
H132 H 0.39577 0.57095 0.24296 0.0
H133 H 0.16081 0.43347 0.69647 0.0
C134 C 0.14477 0.4197 0.67829 0.0
C135 C 0.15386 0.4304 0.64358 0.0
C136 C 0.11738 0.38901 0.68992 0.0
H137 H 0.14138 0.41805 0.5936 0.0
C138 C 0.13448 0.41026 0.62039 0.0
C139 C 0.10786 0.37855 0.63157 0.0
C140 C 0.09889 0.36889 0.66638 0.0
C141 C 0.11057 0.37584 0.72666 0.0
H142 H 0.07887 0.3442 0.6754 0.0
C143 C 0.11052 0.40236 0.74985 0.0
C144 C 0.10572 0.39027 0.78474 0.0
C145 C 0.10546 0.33675 0.73888 0.0
H146 H 0.10612 0.31556 0.72179 0.0
C147 C 0.10035 0.32458 0.77347 0.0
H148 H 0.11466 0.43253 0.74072 0.0
C149 C 0.10056 0.3511 0.79634 0.0
H150 H 0.09641 0.34096 0.82306 0.0
H151 H 0.09649 0.29446 0.78261 0.0
Co152 Co 0.03179 0.05934 0.53188 0.0
C153 C 0.0573 0.99047 0.53007 0.0
Co154 Co 0.08535 0.05809 0.55234 0.0
C155 C 0.96744 0.08849 0.50768 0.0
C156 C 0.96107 0.02764 0.51488 0.0
N157 N 0.98564 0.05909 0.516 0.0
N158 N 0.93255 0.07647 0.50192 0.0
C159 C 0.92867 0.03819 0.50615 0.0
H160 H 0.97889 0.11808 0.50763 0.0
H161 H 0.96565 0.99866 0.52151 0.0
C162 C 0.06103 0.12695 0.55402 0.0
N163 N 0.13029 0.05691 0.56908 0.0
C164 C 0.13837 0.02913 0.59186 0.0
C165 C 0.16167 0.08092 0.56125 0.0
N166 N 0.17363 0.03434 0.59859 0.0
C167 C 0.18842 0.06711 0.57936 0.0
C168 C 0.08896 0.08385 0.48288 0.0
O169 O 0.03285 0.11016 0.54239 0.0
O170 O 0.08726 0.10893 0.56012 0.0
O171 O 0.10746 0.0752 0.50777 0.0
O172 O 0.05448 0.07926 0.48755 0.0
O173 O 0.08356 0.00675 0.5445 0.0
H174 H 0.16499 0.10641 0.54318 0.0
H175 H 0.11843 0.00543 0.60317 0.0
O176 O 0.03198 0.00882 0.52147 0.0
O177 O 1.00944 0.03924 0.57648 0.0
O178 O 0.06279 0.04148 0.59684 0.0
C179 C 0.02851 0.03405 0.60166 0.0
H180 H 0.90388 0.01903 0.50396 0.0
H181 H 0.21665 0.07985 0.57778 0.0
Co182 Co 0.52201 0.08171 0.05536 0.0
C183 C 0.5121 0.02119 0.10851 0.0
Co184 Co 0.55514 0.09024 0.09884 0.0
C185 C 0.50117 0.06185 0.99009 0.0
C186 C 0.45551 0.06093 1.02477 0.0
N187 N 0.49191 0.07057 1.02101 0.0
N188 N 0.47217 0.0463 0.97498 0.0
C189 C 0.44337 0.04587 0.99664 0.0
H190 H 0.52886 0.06348 0.98009 0.0
H191 H 0.43911 0.06168 0.04764 0.0
C192 C 0.56471 0.15092 0.04585 0.0
N193 N 0.58583 0.10095 0.13263 0.0
C194 C 0.57895 0.10153 0.16604 0.0
C195 C 0.62195 0.11196 0.12713 0.0
N196 N 0.60955 0.11207 0.18146 0.0
C197 C 0.63655 0.1186 0.15698 0.0
C198 C 0.58862 0.05609 0.04815 0.0
O199 O 0.54199 0.12981 0.03093 0.0
O200 O 0.57328 0.13884 0.07508 0.0
O201 O 0.59288 0.06845 0.0764 0.0
O202 O 0.55901 0.05871 0.03449 0.0
O203 O 0.53645 0.04138 0.12251 0.0
H204 H 0.63677 0.1158 0.10275 0.0
H205 H 0.55213 0.09451 0.17873 0.0
O206 O 0.50249 0.03398 0.07988 0.0
O207 O 0.48509 0.10458 0.07699 0.0
O208 O 0.51706 0.11172 0.12087 0.0
C209 C 0.488 0.11512 0.10616 0.0
H210 H 0.41587 0.03313 0.99333 0.0
H211 H 0.66476 0.12872 0.16021 0.0
Co212 Co 0.56821 0.61195 0.57055 0.0
C213 C 0.51458 0.61675 0.52489 0.0
Co214 Co 0.51457 0.58028 0.58957 0.0
C215 C 0.64531 0.62823 0.5558 0.0
C216 C 0.61927 0.67598 0.53954 0.0
N217 N 0.61252 0.63948 0.55414 0.0
N218 N 0.67233 0.65639 0.54312 0.0
C219 C 0.65607 0.68652 0.53285 0.0
H220 H 0.64936 0.60028 0.5671 0.0
H221 H 0.59878 0.69393 0.53459 0.0
C222 C 0.56821 0.57567 0.63519 0.0
N223 N 0.47036 0.55252 0.60656 0.0
C224 C 0.43661 0.56017 0.60146 0.0
C225 C 0.46547 0.51993 0.62817 0.0
N226 N 0.41107 0.5339 0.61945 0.0
C227 C 0.42908 0.50858 0.6363 0.0
C228 C 0.55744 0.53744 0.55635 0.0
O229 O 0.58847 0.59627 0.61153 0.0
O230 O 0.53504 0.56552 0.63062 0.0
O231 O 0.52703 0.5371 0.57205 0.0
O232 O 0.5803 0.56798 0.55215 0.0
O233 O 0.4946 0.59546 0.5484 0.0
H234 H 0.48701 0.50529 0.63745 0.0
H235 H 0.43086 0.58476 0.58532 0.0
O236 O 0.54771 0.62762 0.5295 0.0
O237 O 0.55579 0.65535 0.58968 0.0
O238 O 0.5023 0.62332 0.60737 0.0
C239 C 0.52508 0.65368 0.60542 0.0
H240 H 0.6698 0.71417 0.52136 0.0
H241 H 0.4167 0.4833 0.65282 0.0
Co242 Co 0.05737 0.61076 0.03246 0.0
C243 C 0.98674 0.57248 0.03811 0.0
Co244 Co 0.02702 0.61601 0.07965 0.0
C245 C 0.08216 0.57524 0.97746 0.0
C246 C 0.10411 0.6345 0.97194 0.0
N247 N 0.08251 0.60687 0.99263 0.0
N248 N 0.10253 0.5819 0.94799 0.0
C249 C 0.1164 0.61923 0.94436 0.0
H250 H 0.06633 0.54804 0.98749 0.0
H251 H 0.11017 0.66389 0.97646 0.0
C252 C 0.09776 0.65332 0.07483 0.0
N253 N 1.002 0.61957 0.11977 0.0
C254 C 1.01511 0.61689 0.15059 0.0
C255 C 0.96683 0.62299 0.12527 0.0
N256 N 0.98956 0.61821 0.17519 0.0
C257 C 0.95904 0.62196 0.15943 0.0
C258 C 0.06524 0.55364 0.08416 0.0
O259 O 0.09908 0.64031 0.04669 0.0
O260 O 0.06802 0.64724 0.09276 0.0
O261 O 0.04485 0.57145 0.10071 0.0
O262 O 0.07358 0.56564 0.05314 0.0
O263 O 0.98634 0.58467 0.06659 0.0
H264 H 0.94796 0.6254 0.10577 0.0
H265 H 0.04268 0.61279 0.155 0.0
O266 O 1.01542 0.5808 1.0186 0.0
O267 O 0.04116 0.65592 1.01182 0.0
O268 O 1.00927 0.66045 0.05814 0.0
C269 C 1.01931 0.673 0.02742 0.0
H270 H 0.13411 0.63442 0.92332 0.0
H271 H 0.93303 0.62382 0.1717 0.0
H272 H 0.24693 0.15949 0.30996 0.0
H273 H 0.15372 0.21135 0.28199 0.0
H274 H 0.2134 0.12701 0.36119 0.0
H275 H 0.12098 0.18098 0.33466 0.0
H276 H 0.05939 0.09778 0.4216 0.0
H277 H 0.09084 0.1254 0.36726 0.0
H278 H 0.19271 0.13677 0.41443 0.0
H279 H 0.16152 0.10786 0.46801 0.0
C280 C 0.21918 0.1639 0.31444 0.0
C281 C 0.20333 0.1883 0.29129 0.0
C282 C 0.19999 0.14566 0.34444 0.0
C283 C 0.16432 0.15144 0.35275 0.0
C284 C 0.14819 0.17532 0.32936 0.0
C285 C 0.16729 0.19331 0.29914 0.0
C286 C 0.08854 0.10599 0.42027 0.0
C287 C 0.10782 0.10031 0.44932 0.0
C288 C 0.10667 0.12216 0.38904 0.0
C289 C 0.14462 0.13347 0.38595 0.0
C290 C 0.16371 0.12782 0.4152 0.0
C291 C 0.14567 0.11137 0.44623 0.0
H292 H 0.48412 0.8715 0.84637 0.0
H293 H 0.43823 0.95896 0.787 0.0
H294 H 0.49673 0.91384 0.88962 0.0
H295 H 0.4517 1.00167 0.82989 0.0
H296 H 0.50915 0.06958 0.91449 0.0
H297 H 0.51058 0.03294 0.8661 0.0
H298 H 0.44004 0.93878 0.92426 0.0
H299 H 0.43783 0.97554 0.9718 0.0
C300 C 0.47805 0.90028 0.84202 0.0
C301 C 0.46028 0.91211 0.81348 0.0
C302 C 0.48506 0.92434 0.86676 0.0
C303 C 0.47507 0.96083 0.86295 0.0
C304 C 0.45987 0.97375 0.83318 0.0
C305 C 0.45218 0.9494 0.80876 0.0
C306 C 0.49397 0.0411 0.91665 0.0
C307 C 0.47303 0.02544 0.94652 0.0
C308 C 0.49483 0.02024 0.88919 0.0
C309 C 0.47568 0.98306 0.89177 0.0
C310 C 0.45529 0.96728 0.92185 0.0
C311 C 0.45371 0.98839 0.94884 0.0
H312 H 0.61307 0.4814 0.83817 0.0
H313 H 0.65242 0.60218 0.82743 0.0
H314 H 0.5984 0.48716 0.77905 0.0
H315 H 0.63706 0.60808 0.76874 0.0
H316 H 0.63473 0.60091 0.65675 0.0
H317 H 0.65519 0.58914 0.71353 0.0
H318 H 0.55339 0.51674 0.74565 0.0
H319 H 0.53304 0.52811 0.68897 0.0
C320 C 0.61872 0.50911 0.82313 0.0
C321 C 0.63365 0.54138 0.83744 0.0
C322 C 0.61014 0.51244 0.7894 0.0
C323 C 0.61662 0.54806 0.76929 0.0
C324 C 0.63212 0.58019 0.78349 0.0
C325 C 0.64048 0.5769 0.81721 0.0
C326 C 0.61691 0.58211 0.67582 0.0
C327 C 0.58218 0.56566 0.66844 0.0
C328 C 0.62855 0.57556 0.70836 0.0
C329 C 0.60578 0.55224 0.73406 0.0
C330 C 0.57165 0.5346 0.72631 0.0
C331 C 0.55993 0.5413 0.69387 0.0
H332 H 0.96243 0.60509 0.39257 0.0
H333 H 0.07432 0.59225 0.37261 0.0
H334 H 0.95379 0.60983 0.33258 0.0
H335 H 0.06492 0.59411 0.31279 0.0
H336 H 0.04916 0.64454 0.20572 0.0
H337 H 0.05733 0.63819 0.26602 0.0
H338 H 0.94845 0.57618 0.2856 0.0
H339 H 0.94013 0.5839 0.22521 0.0
C340 C 0.98518 0.60306 0.37542 0.0
C341 C 1.01921 0.59872 0.38751 0.0
C342 C 0.98005 0.6052 0.34096 0.0
C343 C 1.00868 0.60255 0.31768 0.0
C344 C 0.04241 0.59699 0.32987 0.0
C345 C 0.04766 0.5953 0.36432 0.0
C346 C 0.02707 0.62949 0.22299 0.0
C347 C 0.99401 0.61477 0.21086 0.0
C348 C 0.03177 0.62563 0.25756 0.0
C349 C 1.00363 0.60646 0.28081 0.0
C350 C 0.97053 0.59164 0.26855 0.0
C351 C 0.96571 0.59599 0.23396 0.0
H352 H 0.34633 0.25 0.2046 0.0
H353 H 0.27613 0.14533 0.19508 0.0
H354 H 0.39732 0.22565 0.1788 0.0
H355 H 0.32727 0.12089 0.16915 0.0
H356 H 0.41802 0.11154 0.08782 0.0
H357 H 0.36728 0.13449 0.11538 0.0
H358 H 0.43695 0.17532 0.19031 0.0
H359 H 0.48783 0.15196 0.16289 0.0
C360 C 0.34172 0.22179 0.1969 0.0
C361 C 0.30693 0.19976 0.2018 0.0
C362 C 0.3711 0.20768 0.18235 0.0
C363 C 0.36657 0.17127 0.17176 0.0
C364 C 0.33179 0.14917 0.17671 0.0
C365 C 0.30248 0.16307 0.19179 0.0
C366 C 0.42265 0.12543 0.11016 0.0
C367 C 0.45725 0.12993 0.12299 0.0
C368 C 0.39338 0.13838 0.12613 0.0
C369 C 0.39783 0.15677 0.15517 0.0
C370 C 0.43249 0.16155 0.16788 0.0
C371 C 0.4617 0.14804 0.1522 0.0
H372 H 0.25335 0.83964 0.70064 0.0
H373 H 0.29623 0.9319 0.75457 0.0
H374 H 0.22519 0.88345 0.66304 0.0
H375 H 0.26683 0.97587 0.71775 0.0
H376 H 0.2392 0.05063 0.62484 0.0
H377 H 0.26908 0.00771 0.66174 0.0
H378 H 0.17729 0.91879 0.66173 0.0
H379 H 0.14881 0.9603 0.62324 0.0
C380 C 0.25617 0.86927 0.70476 0.0
C381 C 0.27667 0.88241 0.7306 0.0
C382 C 0.24 0.89442 0.68327 0.0
C383 C 0.24352 0.93324 0.68743 0.0
C384 C 0.26398 0.94631 0.71348 0.0
C385 C 0.28059 0.92116 0.73472 0.0
C386 C 0.22556 0.02182 0.63233 0.0
C387 C 0.19141 0.00926 0.62088 0.0
C388 C 0.24252 0.9973 0.65391 0.0
C389 C 0.22563 0.95972 0.66477 0.0
C390 C 0.19144 0.94731 0.65353 0.0
C391 C 0.17473 0.97156 0.63171 0.0
H392 H 0.81156 0.43479 0.94726 0.0
H393 H 0.76561 0.52126 0.99381 0.0
H394 H 0.87068 0.45719 0.96788 0.0
H395 H 0.82432 0.54395 1.01365 0.0
H396 H 0.97608 0.54538 0.97746 0.0
H397 H 0.91889 0.51563 0.95817 0.0
H398 H 0.86521 0.52093 0.05516 0.0
H399 H 0.92185 0.55091 0.0743 0.0
C400 C 0.81412 0.4585 0.9619 0.0
C401 C 0.78408 0.47642 0.9688 0.0
C402 C 0.84792 0.47145 0.97347 0.0
C403 C 0.85204 0.50219 0.9925 0.0
C404 C 0.8219 0.51989 0.99943 0.0
C405 C 0.78836 0.50718 0.98773 0.0
C406 C 0.95213 0.53982 0.99475 0.0
C407 C 0.95341 0.55091 0.02727 0.0
C408 C 0.91946 0.52263 0.98375 0.0
C409 C 0.88754 0.51639 1.00504 0.0
C410 C 0.88925 0.52602 0.03799 0.0
C411 C 0.92178 0.54306 0.04898 0.0
H412 H 0.90169 0.68475 0.57404 0.0
H413 H 0.89043 0.63237 0.48243 0.0
H414 H 0.83589 0.67937 0.58174 0.0
H415 H 0.82472 0.62604 0.49085 0.0
H416 H 0.70545 0.59587 0.5338 0.0
H417 H 0.77075 0.594 0.53142 0.0
H418 H 0.79079 0.71209 0.5478 0.0
H419 H 0.72572 0.71386 0.55031 0.0
C420 C 0.88523 0.6718 0.55571 0.0
C421 C 0.90143 0.65932 0.52745 0.0
C422 C 0.84759 0.66867 0.56019 0.0
C423 C 0.82531 0.65255 0.53675 0.0
C424 C 0.84129 0.6383 0.50944 0.0
C425 C 0.87896 0.64181 0.50474 0.0
C426 C 0.72387 0.62127 0.53714 0.0
C427 C 0.7106 0.65505 0.54211 0.0
C428 C 0.76114 0.62026 0.5356 0.0
C429 C 0.78574 0.65285 0.53956 0.0
C430 C 0.7724 0.68644 0.54502 0.0
C431 C 0.73523 0.68758 0.54609 0.0
H432 H 0.1757 0.35551 0.13989 0.0
H433 H 0.18321 0.42248 0.22259 0.0
H434 H 0.13479 0.39607 0.11331 0.0
H435 H 0.14332 0.4633 0.1961 0.0
H436 H 0.05567 0.52234 0.1508 0.0
H437 H 0.08458 0.47164 0.17913 0.0
H438 H 0.13992 0.46013 0.08447 0.0
H439 H 0.1104 0.5102 0.05609 0.0
C440 C 0.16789 0.37827 0.15279 0.0
C441 C 0.1827 0.38571 0.18337 0.0
C442 C 0.14485 0.40194 0.13735 0.0
C443 C 0.13585 0.43344 0.15226 0.0
C444 C 0.14914 0.43932 0.18383 0.0
C445 C 0.1722 0.4159 0.19906 0.0
C446 C 0.07369 0.50873 0.13593 0.0
C447 C 0.08075 0.52067 0.10111 0.0
C448 C 0.0905 0.47969 0.15225 0.0
C449 C 0.11492 0.46165 0.13428 0.0
C450 C 0.12104 0.47282 0.09923 0.0
C451 C 0.10424 0.50187 0.08292 0.0
H452 H 0.64541 0.36917 0.92164 0.0
H453 H 0.70827 0.36404 1.0095 0.0
H454 H 0.61167 0.30644 0.94247 0.0
H455 H 0.67719 0.30051 0.02839 0.0
H456 H 0.5895 0.21072 0.078 0.0
H457 H 0.62083 0.27286 0.05369 0.0
H458 H 0.6113 0.23964 0.95368 0.0
H459 H 0.57787 0.17757 0.97842 0.0
C460 C 0.65238 0.35463 0.94516 0.0
C461 C 0.67951 0.37213 0.96392 0.0
C462 C 0.63331 0.31835 0.95688 0.0
C463 C 0.64121 0.29849 0.98744 0.0
C464 C 0.66955 0.31525 1.00524 0.0
C465 C 0.68806 0.35163 0.99391 0.0
C466 C 0.59391 0.21675 0.05079 0.0
C467 C 0.58151 0.18927 0.03009 0.0
C468 C 0.61223 0.25232 0.03679 0.0
C469 C 0.61946 0.26116 1.00167 0.0
C470 C 0.60614 0.23394 0.98081 0.0
C471 C 0.58708 0.19837 0.99491 0.0
H472 H 1.00445 0.74905 0.57085 0.0
H473 H 0.02966 0.76497 0.46321 0.0
H474 H 0.02551 0.81689 0.57267 0.0
H475 H 0.05005 0.83304 0.46488 0.0
H476 H 1.01671 0.95242 0.48639 0.0
H477 H 1.0096 0.88435 0.48142 0.0
H478 H 0.08493 0.86897 0.55833 0.0
H479 H 0.09275 0.93724 0.56291 0.0
C480 C 1.0152 0.76702 0.54775 0.0
C481 C 1.01564 0.75203 0.51693 0.0
C482 C 0.02727 0.80567 0.54878 0.0
C483 C 0.03923 0.83002 0.51888 0.0
C484 C 0.04086 0.81475 0.48822 0.0
C485 C 0.02947 0.77592 0.4873 0.0
C486 C 0.03212 0.9346 0.5019 0.0
C487 C 0.0552 0.95006 0.52508 0.0
C488 C 0.02821 0.89577 0.49891 0.0
C489 C 0.04678 0.87161 0.51948 0.0
C490 C 0.07036 0.88712 0.54222 0.0
C491 C 0.07485 0.92611 0.54474 0.0
H492 H 0.44712 0.75529 0.77083 0.0
H493 H 0.49931 0.85493 0.70532 0.0
H494 H 0.46946 0.71452 0.73257 0.0
H495 H 0.52141 0.81401 0.66636 0.0
H496 H 0.57138 0.71692 0.61796 0.0
H497 H 0.55948 0.76197 0.65723 0.0
H498 H 0.44905 0.70459 0.67589 0.0
H499 H 0.46076 0.6598 0.63728 0.0
C500 C 0.46421 0.76835 0.74858 0.0
C501 C 0.47146 0.80809 0.74084 0.0
C502 C 0.47667 0.74511 0.72651 0.0
C503 C 0.49639 0.76112 0.69606 0.0
C504 C 0.50618 0.80092 0.6896 0.0
C505 C 0.49374 0.8243 0.7119 0.0
C506 C 0.54444 0.71435 0.63011 0.0
C507 C 0.5171 0.68456 0.62474 0.0
C508 C 0.5377 0.74005 0.65263 0.0
C509 C 0.50361 0.73621 0.67021 0.0
C510 C 0.47591 0.70762 0.66345 0.0
C511 C 0.48255 0.68214 0.64104 0.0
H512 H 0.98519 0.94362 0.81649 0.0
H513 H 0.87902 0.94773 0.77951 0.0
H514 H 1.01261 0.96725 0.76033 0.0
H515 H 0.90646 0.97518 0.72457 0.0
H516 H 0.96056 0.99341 0.61892 0.0
H517 H 0.93352 0.96691 0.6749 0.0
H518 H 0.02993 0.01653 0.71884 0.0
H519 H 0.05757 0.04051 0.6626 0.0
C520 C 0.9675 0.9497 0.79662 0.0
C521 C 0.92956 0.94355 0.80332 0.0
C522 C 0.98343 0.96409 0.76415 0.0
C523 C 0.96213 0.97361 0.73715 0.0
C524 C 0.92423 0.96781 0.74401 0.0
C525 C 0.9083 0.95268 0.77622 0.0
C526 C 0.97594 0.99861 0.64059 0.0
C527 C 1.01128 0.01912 0.63613 0.0
C528 C 0.9603 0.9836 0.673 0.0
C529 C 0.97914 0.98935 0.7022 0.0
C530 C 1.01445 0.01043 0.69747 0.0
C531 C 0.03036 0.02465 0.66502 0.0
H532 H 0.67734 0.12407 0.38458 0.0
H533 H 0.63165 0.22646 0.35711 0.0
H534 H 0.65784 0.10017 0.33288 0.0
H535 H 0.6123 0.20265 0.30506 0.0
H536 H 0.56176 0.13713 0.2235 0.0
H537 H 0.57208 0.15338 0.28045 0.0
H538 H 0.67721 0.11737 0.27378 0.0
H539 H 0.66642 0.10038 0.21778 0.0
C540 C 0.66326 0.14155 0.36737 0.0
C541 C 0.65655 0.17742 0.37461 0.0
C542 C 0.65197 0.12781 0.33782 0.0
C543 C 0.63378 0.14964 0.31471 0.0
C544 C 0.62592 0.18496 0.3225 0.0
C545 C 0.63715 0.19869 0.3522 0.0
C546 C 0.58668 0.13204 0.23461 0.0
C547 C 0.61341 0.11776 0.21617 0.0
C548 C 0.59278 0.14169 0.267 0.0
C549 C 0.62554 0.13683 0.28158 0.0
C550 C 0.65154 0.12115 0.26351 0.0
C551 C 0.64554 0.11175 0.23125 0.0
H552 H 0.38756 0.66592 0.35082 0.0
H553 H 0.47941 0.61771 0.31554 0.0
H554 H 0.41208 0.66692 0.40645 0.0
H555 H 0.50374 0.61845 0.37097 0.0
H556 H 0.55218 0.65183 0.46644 0.0
H557 H 0.52897 0.66293 0.41076 0.0
H558 H 0.42097 0.61538 0.45278 0.0
H559 H 0.44405 0.60428 0.50852 0.0
C560 C 0.41323 0.65608 0.35485 0.0
C561 C 0.43153 0.64156 0.32899 0.0
C562 C 0.4271 0.65639 0.38669 0.0
C563 C 0.45977 0.64268 0.39305 0.0
C564 C 0.47868 0.62951 0.36675 0.0
C565 C 0.46463 0.62879 0.33512 0.0
C566 C 0.52341 0.64414 0.46391 0.0
C567 C 0.5 0.62688 0.49186 0.0
C568 C 0.51017 0.65038 0.43199 0.0
C569 C 0.4732 0.63985 0.4274 0.0
C570 C 0.44954 0.62407 0.45559 0.0
C571 C 0.46282 0.6175 0.48747 0.0
H572 H 0.07354 0.45419 0.78046 0.0
H573 H 0.13995 0.39044 0.84352 0.0
H574 H 0.07554 0.50129 0.81981 0.0
H575 H 0.14192 0.43759 0.88295 0.0
H576 H 0.09881 0.50565 0.9629 0.0
H577 H 0.10068 0.45942 0.92315 0.0
H578 H 0.11834 0.55082 0.84035 0.0
H579 H 0.11517 0.597 0.88011 0.0
C580 C 0.08882 0.45043 0.80259 0.0
C581 C 0.10657 0.41862 0.80892 0.0
C582 C 0.09003 0.47743 0.82509 0.0
C583 C 0.10899 0.4732 0.85441 0.0
C584 C 0.12674 0.44138 0.86076 0.0
C585 C 0.12554 0.41436 0.83824 0.0
C586 C 0.10295 0.51587 0.93621 0.0
C587 C 0.10651 0.55497 0.92463 0.0
C588 C 0.10443 0.48941 0.91347 0.0
C589 C 0.10949 0.50148 0.87862 0.0
C590 C 0.11395 0.54064 0.86705 0.0
C591 C 0.11255 0.56712 0.88984 0.0
H592 H 0.7817 0.00462 0.93774 0.0
H593 H 0.70476 0.9007 0.95216 0.0
H594 H 0.74105 0.03429 0.97312 0.0
H595 H 0.66428 0.93026 0.98663 0.0
H596 H 0.58185 0.01281 0.99637 0.0
H597 H 0.62799 0.98322 0.96889 0.0
H598 H 0.70728 0.03012 0.03344 0.0
H599 H 0.66067 0.05953 0.06157 0.0
C600 C 0.75668 0.98779 0.94919 0.0
C601 C 0.74639 0.95038 0.94181 0.0
C602 C 0.73326 0.00484 0.96927 0.0
C603 C 0.699 0.9849 0.98212 0.0
C604 C 0.69004 0.94673 0.97659 0.0
C605 C 0.7134 0.9297 0.95695 0.0
C606 C 0.60906 0.01687 1.00484 0.0
C607 C 0.61737 0.03848 0.03136 0.0
C608 C 0.63555 0.99972 0.98915 0.0
C609 C 0.67138 0.00405 0.99906 0.0
C610 C 0.68 0.02625 1.02515 0.0
C611 C 0.65323 0.04294 0.04135 0.0
H612 H 0.78215 0.20796 0.40732 0.0
H613 H 0.73307 0.1714 0.50821 0.0
H614 H 0.83678 0.18259 0.42348 0.0
H615 H 0.78813 0.14757 0.52467 0.0
H616 H 0.86162 0.0559 0.52193 0.0
H617 H 0.81277 0.09209 0.51034 0.0
H618 H 0.88959 0.18564 0.45851 0.0
H619 H 0.93885 0.14851 0.46946 0.0
C620 C 0.78327 0.19513 0.4331 0.0
C621 C 0.75304 0.19125 0.45633 0.0
C622 C 0.81473 0.18096 0.44245 0.0
C623 C 0.81661 0.1626 0.47524 0.0
C624 C 0.78728 0.16099 0.49904 0.0
C625 C 0.75585 0.17509 0.4897 0.0
C626 C 0.86819 0.08407 0.5079 0.0
C627 C 0.90409 0.09912 0.49623 0.0
C628 C 0.84019 0.10512 0.5017 0.0
C629 C 0.84727 0.14187 0.48365 0.0
C630 C 0.88327 0.15732 0.47237 0.0
C631 C 0.91146 0.13621 0.47879 0.0
H632 H 0.27224 0.76196 0.18632 0.0
H633 H 0.30264 0.65708 0.1596 0.0
H634 H 0.21746 0.75121 0.15553 0.0
H635 H 0.24781 0.64615 0.12917 0.0
H636 H 0.16753 0.65792 0.04903 0.0
H637 H 0.22284 0.67606 0.07695 0.0
H638 H 0.15935 0.70434 0.16073 0.0
H639 H 0.10395 0.68626 0.13291 0.0
C640 C 0.26713 0.7366 0.17392 0.0
C641 C 0.29161 0.71029 0.17542 0.0
C642 C 0.23578 0.7304 0.15643 0.0
C643 C 0.22855 0.69801 0.13975 0.0
C644 C 0.25295 0.67164 0.14141 0.0
C645 C 0.28407 0.67763 0.15917 0.0
C646 C 0.16537 0.66868 0.07311 0.0
C647 C 0.13132 0.67046 0.08882 0.0
C648 C 0.19703 0.67873 0.08921 0.0
C649 C 0.19533 0.69113 0.12119 0.0
C650 C 0.16148 0.69497 0.13605 0.0
C651 C 0.12976 0.68459 0.1201 0.0
H652 H 0.17927 0.49636 0.66942 0.0
H653 H 0.20471 0.42709 0.59273 0.0
H654 H 0.24046 0.53249 0.66004 0.0
H655 H 0.2649 0.46424 0.58259 0.0
H656 H 0.37099 0.54528 0.56594 0.0
H657 H 0.30456 0.53115 0.56626 0.0
H658 H 0.29828 0.50329 0.67464 0.0
H659 H 0.36429 0.51673 0.67404 0.0
C660 C 0.1975 0.48939 0.65004 0.0
C661 C 0.18715 0.4583 0.63229 0.0
C662 C 0.2324 0.51026 0.64456 0.0
C663 C 0.25738 0.50092 0.62078 0.0
C664 C 0.24603 0.47227 0.60085 0.0
C665 C 0.21137 0.45101 0.60667 0.0
C666 C 0.35515 0.53701 0.58978 0.0
C667 C 0.37244 0.53172 0.61995 0.0
C668 C 0.31735 0.52886 0.58998 0.0
C669 C 0.29639 0.51623 0.62048 0.0
C670 C 0.31372 0.51341 0.65082 0.0
C671 C 0.35141 0.52075 0.65051 0.0
H672 H 0.94228 0.82499 0.8695 0.0
H673 H 0.91421 0.87208 0.95978 0.0
H674 H 0.9683 0.77596 0.90304 0.0
H675 H 0.94114 0.82336 0.99361 0.0
H676 H 0.96246 0.70798 0.04772 0.0
H677 H 0.93609 0.75843 1.0157 0.0
H678 H 1.01733 0.76358 0.93395 0.0
H679 H 0.0426 0.71242 0.96539 0.0
C680 C 0.94212 0.82527 0.89654 0.0
C681 C 0.92635 0.85293 0.91176 0.0
C682 C 0.95722 0.79702 0.91594 0.0
C683 C 0.95739 0.79549 0.95131 0.0
C684 C 0.94133 0.82304 0.96659 0.0
C685 C 0.92592 0.8512 0.94714 0.0
C686 C 0.97479 0.72004 1.02297 0.0
C687 C 1.00464 0.70585 1.00919 0.0
C688 C 0.95972 0.74921 1.00455 0.0
C689 C 0.97418 0.76527 0.97184 0.0
C690 C 1.00466 0.7516 0.95857 0.0
C691 C 1.01947 0.72231 0.97683 0.0
H692 H 0.41337 0.81222 0.23849 0.0
H693 H 0.40379 0.78986 0.1355 0.0
H694 H 0.44745 0.87576 0.21841 0.0
H695 H 0.43844 0.85218 0.11545 0.0
H696 H 0.45235 0.97864 0.08942 0.0
H697 H 0.42392 0.91541 0.11354 0.0
H698 H 0.50352 0.91322 0.18814 0.0
H699 H 0.53184 0.97781 0.16423 0.0
C700 C 0.41914 0.82075 0.21164 0.0
C701 C 0.40553 0.79667 0.18845 0.0
C702 C 0.43867 0.85694 0.20014 0.0
C703 C 0.445 0.86929 0.16531 0.0
C704 C 0.43313 0.84403 0.1424 0.0
C705 C 0.41344 0.80829 0.15382 0.0
C706 C 0.46394 0.96484 0.11097 0.0
C707 C 0.49462 0.98313 0.12469 0.0
C708 C 0.44771 0.92839 0.12471 0.0
C709 C 0.46186 0.90894 0.15237 0.0
C710 C 0.49201 0.9275 0.16681 0.0
C711 C 0.50826 0.96436 0.15307 0.0
H712 H 0.14609 0.35734 0.57893 0.0
H713 H 0.03978 0.33666 0.63149 0.0
H714 H 0.13064 0.30072 0.55183 0.0
H715 H 0.02526 0.27831 0.60578 0.0
H716 H 1.00971 0.17463 0.54733 0.0
H717 H 1.01685 0.24183 0.55651 0.0
H718 H 0.12713 0.23684 0.58198 0.0
H719 H 0.12031 0.17081 0.57262 0.0
C720 C 0.11897 0.34153 0.58395 0.0
C721 C 0.09449 0.35116 0.60812 0.0
C722 C 0.11031 0.30866 0.5687 0.0
C723 C 0.07724 0.28443 0.57758 0.0
C724 C 0.05112 0.29624 0.59867 0.0
C725 C 0.05961 0.32948 0.61367 0.0
C726 C 0.03548 0.18809 0.55473 0.0
C727 C 0.0644 0.16738 0.55938 0.0
C728 C 0.03955 0.22648 0.55993 0.0
C729 C 0.0727 0.24476 0.56945 0.0
C730 C 0.10152 0.22394 0.5738 0.0
C731 C 0.09743 0.18583 0.56884 0.0
H732 H 0.54353 0.31305 0.49278 0.0
H733 H 0.65549 0.34047 0.51455 0.0
H734 H 0.53388 0.37739 0.50034 0.0
H735 H 0.64568 0.40482 0.52354 0.0
H736 H 0.6185 0.52652 0.51963 0.0
H737 H 0.63158 0.46682 0.5011 0.0
H738 H 0.52877 0.40886 0.54872 0.0
H739 H 0.5154 0.46792 0.5661 0.0
C740 C 0.56611 0.33306 0.49907 0.0
C741 C 0.60009 0.32182 0.50352 0.0
C742 C 0.5606 0.36984 0.50359 0.0
C743 C 0.5888 0.39609 0.51327 0.0
C744 C 0.6234 0.38541 0.51598 0.0
C745 C 0.62903 0.34859 0.51097 0.0
C746 C 0.59866 0.501 0.52583 0.0
C747 C 0.56585 0.50204 0.5442 0.0
C748 C 0.60621 0.4668 0.51538 0.0
C749 C 0.58109 0.43305 0.52312 0.0
C750 C 0.5484 0.43436 0.54152 0.0
C751 C 0.54083 0.46833 0.55176 0.0
loop_
_geom_bond_atom_site_label_1
_geom_bond_atom_site_label_2
_geom_bond_distance
_geom_bond_site_symmetry_2
_ccdc_geom_bond_type
H0 C1 0.949 . S
C1 H0 0.949 . S
C1 C2 1.395 . S
C1 C3 1.391 . S
C2 C1 1.395 . S
C2 C5 1.390 . S
C3 C1 1.391 . S
C3 C7 1.387 . S
C3 C8 1.491 . S
H4 C5 0.950 . S
C5 C2 1.390 . S
C5 H4 0.950 . S
C5 C6 1.378 . S
C6 C5 1.378 . S
C6 C7 1.409 . S
C7 C3 1.387 . S
C7 C6 1.409 . S
C7 H9 0.951 . S
C8 C3 1.491 . S
C8 C10 1.382 . S
C8 C12 1.404 . S
H9 C7 0.951 . S
C10 C8 1.382 . S
C10 C11 1.390 . S
C10 H15 0.949 . S
C11 C10 1.390 . S
C11 C16 1.399 . S
C12 C8 1.404 . S
C12 H13 0.950 . S
C12 C14 1.375 . S
H13 C12 0.950 . S
C14 C12 1.375 . S
C14 C16 1.382 . S
C14 H18 0.950 . S
H15 C10 0.949 . S
C16 C11 1.399 . S
C16 C14 1.382 . S
C16 H17 0.952 . S
H17 C16 0.952 . S
H18 C14 0.950 . S
H19 C20 0.949 . S
C20 H19 0.949 . S
C20 C21 1.395 . S
C20 C22 1.391 . S
C21 C20 1.395 . S
C21 C24 1.390 . S
C22 C20 1.391 . S
C22 C26 1.387 . S
C22 C27 1.491 . S
H23 C24 0.950 . S
C24 C21 1.390 . S
C24 H23 0.950 . S
C24 C25 1.378 . S
C25 C24 1.378 . S
C25 C26 1.409 . S
C26 C22 1.387 . S
C26 C25 1.409 . S
C26 H28 0.951 . S
C27 C22 1.491 . S
C27 C29 1.382 . S
C27 C31 1.404 . S
H28 C26 0.951 . S
C29 C27 1.382 . S
C29 C30 1.390 . S
C29 H34 0.949 . S
C30 C29 1.390 . S
C30 C35 1.399 . S
C31 C27 1.404 . S
C31 H32 0.950 . S
C31 C33 1.375 . S
H32 C31 0.950 . S
C33 C31 1.375 . S
C33 C35 1.382 . S
C33 H37 0.950 . S
H34 C29 0.949 . S
C35 C30 1.399 . S
C35 C33 1.382 . S
C35 H36 0.952 . S
H36 C35 0.952 . S
H37 C33 0.950 . S
H38 C39 0.949 . S
C39 H38 0.949 . S
C39 C40 1.395 . S
C39 C41 1.391 . S
C40 C39 1.395 . S
C40 C43 1.390 . S
C41 C39 1.391 . S
C41 C45 1.387 . S
C41 C46 1.491 . S
H42 C43 0.950 . S
C43 C40 1.390 . S
C43 H42 0.950 . S
C43 C44 1.378 . S
C44 C43 1.378 . S
C44 C45 1.409 . S
C45 C41 1.387 . S
C45 C44 1.409 . S
C45 H47 0.951 . S
C46 C41 1.491 . S
C46 C48 1.382 . S
C46 C50 1.404 . S
H47 C45 0.951 . S
C48 C46 1.382 . S
C48 C49 1.390 . S
C48 H53 0.949 . S
C49 C48 1.390 . S
C49 C54 1.399 . S
C50 C46 1.404 . S
C50 H51 0.950 . S
C50 C52 1.375 . S
H51 C50 0.950 . S
C52 C50 1.375 . S
C52 C54 1.382 . S
C52 H56 0.950 . S
H53 C48 0.949 . S
C54 C49 1.399 . S
C54 C52 1.382 . S
C54 H55 0.952 . S
H55 C54 0.952 . S
H56 C52 0.950 . S
H57 C58 0.949 . S
C58 H57 0.949 . S
C58 C59 1.395 . S
C58 C60 1.391 . S
C59 C58 1.395 . S
C59 C62 1.390 . S
C60 C58 1.391 . S
C60 C64 1.387 . S
C60 C65 1.491 . S
H61 C62 0.950 . S
C62 C59 1.390 . S
C62 H61 0.950 . S
C62 C63 1.378 . S
C63 C62 1.378 . S
C63 C64 1.409 . S
C64 C60 1.387 . S
C64 C63 1.409 . S
C64 H66 0.951 . S
C65 C60 1.491 . S
C65 C67 1.382 . S
C65 C69 1.404 . S
H66 C64 0.951 . S
C67 C65 1.382 . S
C67 C68 1.390 . S
C67 H72 0.949 . S
C68 C67 1.390 . S
C68 C73 1.399 . S
C69 C65 1.404 . S
C69 H70 0.950 . S
C69 C71 1.375 . S
H70 C69 0.950 . S
C71 C69 1.375 . S
C71 C73 1.382 . S
C71 H75 0.950 . S
H72 C67 0.949 . S
C73 C68 1.399 . S
C73 C71 1.382 . S
C73 H74 0.952 . S
H74 C73 0.952 . S
H75 C71 0.950 . S
H76 C77 0.949 . S
C77 H76 0.949 . S
C77 C78 1.395 . S
C77 C79 1.391 . S
C78 C77 1.395 . S
C78 C81 1.390 . S
C79 C77 1.391 . S
C79 C83 1.387 . S
C79 C84 1.491 . S
H80 C81 0.950 . S
C81 C78 1.390 . S
C81 H80 0.950 . S
C81 C82 1.378 . S
C82 C81 1.378 . S
C82 C83 1.409 . S
C83 C79 1.387 . S
C83 C82 1.409 . S
C83 H85 0.951 . S
C84 C79 1.491 . S
C84 C86 1.382 . S
C84 C88 1.404 . S
H85 C83 0.951 . S
C86 C84 1.382 . S
C86 C87 1.390 . S
C86 H91 0.949 . S
C87 C86 1.390 . S
C87 C92 1.399 . S
C88 C84 1.404 . S
C88 H89 0.950 . S
C88 C90 1.375 . S
H89 C88 0.950 . S
C90 C88 1.375 . S
C90 C92 1.382 . S
C90 H94 0.950 . S
H91 C86 0.949 . S
C92 C87 1.399 . S
C92 C90 1.382 . S
C92 H93 0.952 . S
H93 C92 0.952 . S
H94 C90 0.950 . S
H95 C96 0.949 . S
C96 H95 0.949 . S
C96 C97 1.395 . S
C96 C98 1.391 . S
C97 C96 1.395 . S
C97 C100 1.390 . S
C98 C96 1.391 . S
C98 C102 1.387 . S
C98 C103 1.491 . S
H99 C100 0.950 . S
C100 C97 1.390 . S
C100 H99 0.950 . S
C100 C101 1.378 . S
C101 C100 1.378 . S
C101 C102 1.409 . S
C102 C98 1.387 . S
C102 C101 1.409 . S
C102 H104 0.951 . S
C103 C98 1.491 . S
C103 C105 1.382 . S
C103 C107 1.404 . S
H104 C102 0.951 . S
C105 C103 1.382 . S
C105 C106 1.390 . S
C105 H110 0.949 . S
C106 C105 1.390 . S
C106 C111 1.399 . S
C107 C103 1.404 . S
C107 H108 0.950 . S
C107 C109 1.375 . S
H108 C107 0.950 . S
C109 C107 1.375 . S
C109 C111 1.382 . S
C109 H113 0.950 . S
H110 C105 0.949 . S
C111 C106 1.399 . S
C111 C109 1.382 . S
C111 H112 0.952 . S
H112 C111 0.952 . S
H113 C109 0.950 . S
H114 C115 0.949 . S
C115 H114 0.949 . S
C115 C116 1.395 . S
C115 C117 1.391 . S
C116 C115 1.395 . S
C116 C119 1.390 . S
C117 C115 1.391 . S
C117 C121 1.387 . S
C117 C122 1.491 . S
H118 C119 0.950 . S
C119 C116 1.390 . S
C119 H118 0.950 . S
C119 C120 1.378 . S
C120 C119 1.378 . S
C120 C121 1.409 . S
C121 C117 1.387 . S
C121 C120 1.409 . S
C121 H123 0.951 . S
C122 C117 1.491 . S
C122 C124 1.382 . S
C122 C126 1.404 . S
H123 C121 0.951 . S
C124 C122 1.382 . S
C124 C125 1.390 . S
C124 H129 0.949 . S
C125 C124 1.390 . S
C125 C130 1.399 . S
C126 C122 1.404 . S
C126 H127 0.950 . S
C126 C128 1.375 . S
H127 C126 0.950 . S
C128 C126 1.375 . S
C128 C130 1.382 . S
C128 H132 0.950 . S
H129 C124 0.949 . S
C130 C125 1.399 . S
C130 C128 1.382 . S
C130 H131 0.952 . S
H131 C130 0.952 . S
H132 C128 0.950 . S
H133 C134 0.949 . S
C134 H133 0.949 . S
C134 C135 1.395 . S
C134 C136 1.391 . S
C135 C134 1.395 . S
C135 C138 1.390 . S
C136 C134 1.391 . S
C136 C140 1.387 . S
C136 C141 1.491 . S
H137 C138 0.950 . S
C138 C135 1.390 . S
C138 H137 0.950 . S
C138 C139 1.378 . S
C139 C138 1.378 . S
C139 C140 1.409 . S
C140 C136 1.387 . S
C140 C139 1.409 . S
C140 H142 0.951 . S
C141 C136 1.491 . S
C141 C143 1.382 . S
C141 C145 1.404 . S
H142 C140 0.951 . S
C143 C141 1.382 . S
C143 C144 1.390 . S
C143 H148 0.949 . S
C144 C143 1.390 . S
C144 C149 1.399 . S
C145 C141 1.404 . S
C145 H146 0.950 . S
C145 C147 1.375 . S
H146 C145 0.950 . S
C147 C145 1.375 . S
C147 C149 1.382 . S
C147 H151 0.950 . S
H148 C143 0.949 . S
C149 C144 1.399 . S
C149 C147 1.382 . S
C149 H150 0.952 . S
H150 C149 0.952 . S
H151 C147 0.950 . S
Co152 N157 2.057 . S
Co152 O169 2.018 1_655 S
Co152 O172 2.062 1_655 S
Co152 O176 2.117 . S
Co152 O177 2.020 . S
C153 O173 1.259 1_655 S
C153 O176 1.258 1_565 S
Co154 N163 2.057 . S
Co154 O170 2.117 . S
Co154 O171 2.020 . S
Co154 O173 2.021 1_545 S
Co154 O178 2.062 . S
C155 N157 1.316 . S
C155 N158 1.347 . S
C155 H160 0.931 . S
C156 N157 1.375 . S
C156 C159 1.350 . S
C156 H161 0.930 . S
N157 Co152 2.057 . S
N157 C155 1.316 . S
N157 C156 1.375 . S
N158 C155 1.347 . S
N158 C159 1.373 . S
C159 C156 1.350 . S
C159 N158 1.373 . S
C159 H180 0.931 . S
H160 C155 0.931 . S
H161 C156 0.930 . S
C162 O169 1.276 . S
C162 O170 1.258 . S
N163 Co154 2.057 . S
N163 C164 1.316 . S
N163 C165 1.375 . S
C164 N163 1.316 . S
C164 N166 1.347 . S
C164 H175 0.931 1_545 S
C165 N163 1.375 . S
C165 C167 1.350 . S
C165 H174 0.930 . S
N166 C164 1.347 . S
N166 C167 1.373 . S
C167 C165 1.350 . S
C167 N166 1.373 . S
C167 H181 0.931 . S
C168 O171 1.256 . S
C168 O172 1.255 . S
O169 Co152 2.018 1_455 S
O169 C162 1.276 . S
O170 Co154 2.117 . S
O170 C162 1.258 . S
O171 Co154 2.020 . S
O171 C168 1.256 . S
O172 Co152 2.062 1_455 S
O172 C168 1.255 . S
O173 C153 1.259 1_455 S
O173 Co154 2.021 1_565 S
H174 C165 0.930 . S
H175 C164 0.931 1_565 S
O176 Co152 2.117 . S
O176 C153 1.258 1_545 S
O177 Co152 2.020 . S
O177 C179 1.256 . S
O178 Co154 2.062 . S
O178 C179 1.255 1_455 S
C179 O177 1.256 . S
C179 O178 1.255 1_655 S
H180 C159 0.931 . S
H181 C167 0.931 . S
Co182 N187 2.057 1_554 S
Co182 O199 2.021 . S
Co182 O202 2.062 . S
Co182 O206 2.117 1_545 S
Co182 O207 2.020 . S
C183 O203 1.262 . S
C183 O206 1.258 . S
Co184 N193 2.057 . S
Co184 O200 2.117 . S
Co184 O201 2.020 . S
Co184 O203 2.017 1_545 S
Co184 O208 2.062 . S
C185 N187 1.316 . S
C185 N188 1.347 1_545 S
C185 H190 0.931 . S
C186 N187 1.375 1_565 S
C186 C189 1.350 . S
C186 H191 0.930 1_556 S
N187 Co182 2.057 1_556 S
N187 C185 1.316 . S
N187 C186 1.375 1_545 S
N188 C185 1.347 1_565 S
N188 C189 1.373 . S
C189 C186 1.350 . S
C189 N188 1.373 . S
C189 H210 0.931 . S
H190 C185 0.931 . S
H191 C186 0.930 1_554 S
C192 O199 1.259 . S
C192 O200 1.258 . S
N193 Co184 2.057 . S
N193 C194 1.316 . S
N193 C195 1.375 . S
C194 N193 1.316 . S
C194 N196 1.347 . S
C194 H205 0.931 . S
C195 N193 1.375 . S
C195 C197 1.350 . S
C195 H204 0.930 . S
N196 C194 1.347 . S
N196 C197 1.373 . S
C197 C195 1.350 . S
C197 N196 1.373 . S
C197 H211 0.931 . S
C198 O201 1.256 . S
C198 O202 1.255 . S
O199 Co182 2.021 . S
O199 C192 1.259 . S
O200 Co184 2.117 . S
O200 C192 1.258 . S
O201 Co184 2.020 . S
O201 C198 1.256 . S
O202 Co182 2.062 . S
O202 C198 1.255 . S
O203 C183 1.262 . S
O203 Co184 2.017 1_565 S
H204 C195 0.930 . S
H205 C194 0.931 . S
O206 Co182 2.117 1_565 S
O206 C183 1.258 . S
O207 Co182 2.020 . S
O207 C209 1.256 . S
O208 Co184 2.062 . S
O208 C209 1.255 . S
C209 O207 1.256 . S
C209 O208 1.255 . S
H210 C189 0.931 . S
H211 C197 0.931 . S
Co212 N217 2.057 . S
Co212 O229 2.021 . S
Co212 O232 2.062 . S
Co212 O236 2.117 . S
Co212 O237 2.020 . S
C213 O233 1.259 . S
C213 O236 1.258 . S
Co214 N223 2.057 . S
Co214 O230 2.117 . S
Co214 O231 2.020 . S
Co214 O233 2.021 . S
Co214 O238 2.062 . S
C215 N217 1.316 . S
C215 N218 1.347 . S
C215 H220 0.931 . S
C216 N217 1.375 . S
C216 C219 1.350 . S
C216 H221 0.930 . S
N217 Co212 2.057 . S
N217 C215 1.316 . S
N217 C216 1.375 . S
N218 C215 1.347 . S
N218 C219 1.373 . S
C219 C216 1.350 . S
C219 N218 1.373 . S
C219 H240 0.931 . S
H220 C215 0.931 . S
H221 C216 0.930 . S
C222 O229 1.259 . S
C222 O230 1.258 . S
N223 Co214 2.057 . S
N223 C224 1.316 . S
N223 C225 1.375 . S
C224 N223 1.316 . S
C224 N226 1.347 . S
C224 H235 0.931 . S
C225 N223 1.375 . S
C225 C227 1.350 . S
C225 H234 0.930 . S
N226 C224 1.347 . S
N226 C227 1.373 . S
C227 C225 1.350 . S
C227 N226 1.373 . S
C227 H241 0.931 . S
C228 O231 1.256 . S
C228 O232 1.255 . S
O229 Co212 2.021 . S
O229 C222 1.259 . S
O230 Co214 2.117 . S
O230 C222 1.258 . S
O231 Co214 2.020 . S
O231 C228 1.256 . S
O232 Co212 2.062 . S
O232 C228 1.255 . S
O233 C213 1.259 . S
O233 Co214 2.021 . S
H234 C225 0.930 . S
H235 C224 0.931 . S
O236 Co212 2.117 . S
O236 C213 1.258 . S
O237 Co212 2.020 . S
O237 C239 1.256 . S
O238 Co214 2.062 . S
O238 C239 1.255 . S
C239 O237 1.256 . S
C239 O238 1.255 . S
H240 C219 0.931 . S
H241 C227 0.931 . S
Co242 N247 2.057 . S
Co242 O259 2.021 1_556 S
Co242 O262 2.062 1_556 S
Co242 O266 2.117 1_455 S
Co242 O267 2.020 . S
C243 O263 1.259 . S
C243 O266 1.258 1_554 S
Co244 N253 2.057 . S
Co244 O260 2.117 . S
Co244 O261 2.020 . S
Co244 O263 2.021 1_455 S
Co244 O268 2.062 . S
C245 N247 1.316 . S
C245 N248 1.347 . S
C245 H250 0.931 . S
C246 N247 1.375 . S
C246 C249 1.350 . S
C246 H251 0.930 1_455 S
N247 Co242 2.057 . S
N247 C245 1.316 . S
N247 C246 1.375 . S
N248 C245 1.347 . S
N248 C249 1.373 . S
C249 C246 1.350 . S
C249 N248 1.373 . S
C249 H270 0.931 . S
H250 C245 0.931 . S
H251 C246 0.930 1_655 S
C252 O259 1.259 . S
C252 O260 1.258 . S
N253 Co244 2.057 . S
N253 C254 1.316 1_455 S
N253 C255 1.375 . S
C254 N253 1.316 1_655 S
C254 N256 1.347 . S
C254 H265 0.931 . S
C255 N253 1.375 . S
C255 C257 1.350 . S
C255 H264 0.930 . S
N256 C254 1.347 . S
N256 C257 1.373 1_655 S
C257 C255 1.350 . S
C257 N256 1.373 1_455 S
C257 H271 0.931 . S
C258 O261 1.256 . S
C258 O262 1.255 . S
O259 Co242 2.021 1_554 S
O259 C252 1.259 . S
O260 Co244 2.117 . S
O260 C252 1.258 . S
O261 Co244 2.020 . S
O261 C258 1.256 . S
O262 Co242 2.062 1_554 S
O262 C258 1.255 . S
O263 C243 1.259 . S
O263 Co244 2.021 1_655 S
H264 C255 0.930 . S
H265 C254 0.931 . S
O266 Co242 2.117 1_655 S
O266 C243 1.258 1_556 S
O267 Co242 2.020 . S
O267 C269 1.256 1_556 S
O268 Co244 2.062 . S
O268 C269 1.255 . S
C269 O267 1.256 1_554 S
C269 O268 1.255 . S
H270 C249 0.931 . S
H271 C257 0.931 . S
H272 C280 0.950 . S
H273 C285 0.950 . S
H274 C282 0.950 . S
H275 C284 0.950 . S
H276 C286 0.950 . S
H277 C288 0.950 . S
H278 C290 0.950 . S
H279 C291 0.950 . S
C280 H272 0.950 . S
C280 C281 1.386 . S
C280 C282 1.391 . S
C281 C280 1.386 . S
C281 C285 1.393 . S
C282 H274 0.950 . S
C282 C280 1.391 . S
C282 C283 1.400 . S
C283 C282 1.400 . S
C283 C284 1.398 . S
C283 C289 1.491 . S
C284 H275 0.950 . S
C284 C283 1.398 . S
C284 C285 1.391 . S
C285 H273 0.950 . S
C285 C281 1.393 . S
C285 C284 1.391 . S
C286 H276 0.950 . S
C286 C287 1.386 . S
C286 C288 1.391 . S
C287 C286 1.386 . S
C287 C291 1.393 . S
C288 H277 0.950 . S
C288 C286 1.391 . S
C288 C289 1.400 . S
C289 C283 1.491 . S
C289 C288 1.400 . S
C289 C290 1.398 . S
C290 H278 0.950 . S
C290 C289 1.398 . S
C290 C291 1.391 . S
C291 H279 0.950 . S
C291 C287 1.393 . S
C291 C290 1.391 . S
H292 C300 0.950 . S
H293 C305 0.950 1_545 S
H294 C302 0.950 . S
H295 C304 0.950 . S
H296 C306 0.950 . S
H297 C308 0.950 . S
H298 C310 0.950 . S
H299 C311 0.950 . S
C300 H292 0.950 . S
C300 C301 1.386 . S
C300 C302 1.391 . S
C301 C300 1.386 . S
C301 C305 1.393 . S
C302 H294 0.950 . S
C302 C300 1.391 . S
C302 C303 1.400 . S
C303 C302 1.400 . S
C303 C304 1.398 1_565 S
C303 C309 1.491 . S
C304 H295 0.950 . S
C304 C303 1.398 1_545 S
C304 C305 1.391 1_545 S
C305 H293 0.950 1_565 S
C305 C301 1.393 . S
C305 C304 1.391 1_565 S
C306 H296 0.950 . S
C306 C307 1.386 1_545 S
C306 C308 1.391 . S
C307 C306 1.386 1_565 S
C307 C311 1.393 . S
C308 H297 0.950 . S
C308 C306 1.391 . S
C308 C309 1.400 1_545 S
C309 C303 1.491 . S
C309 C308 1.400 1_565 S
C309 C310 1.398 . S
C310 H298 0.950 . S
C310 C309 1.398 . S
C310 C311 1.391 . S
C311 H299 0.950 . S
C311 C307 1.393 . S
C311 C310 1.391 . S
H312 C320 0.950 . S
H313 C325 0.950 . S
H314 C322 0.950 . S
H315 C324 0.950 . S
H316 C326 0.950 . S
H317 C328 0.950 . S
H318 C330 0.950 . S
H319 C331 0.950 . S
C320 H312 0.950 . S
C320 C321 1.386 . S
C320 C322 1.391 . S
C321 C320 1.386 . S
C321 C325 1.393 . S
C322 H314 0.950 . S
C322 C320 1.391 . S
C322 C323 1.400 . S
C323 C322 1.400 . S
C323 C324 1.398 . S
C323 C329 1.491 . S
C324 H315 0.950 . S
C324 C323 1.398 . S
C324 C325 1.391 . S
C325 H313 0.950 . S
C325 C321 1.393 . S
C325 C324 1.391 . S
C326 H316 0.950 . S
C326 C327 1.386 . S
C326 C328 1.391 . S
C327 C326 1.386 . S
C327 C331 1.393 . S
C328 H317 0.950 . S
C328 C326 1.391 . S
C328 C329 1.400 . S
C329 C323 1.491 . S
C329 C328 1.400 . S
C329 C330 1.398 . S
C330 H318 0.950 . S
C330 C329 1.398 . S
C330 C331 1.391 . S
C331 H319 0.950 . S
C331 C327 1.393 . S
C331 C330 1.391 . S
H332 C340 0.950 . S
H333 C345 0.950 . S
H334 C342 0.950 . S
H335 C344 0.950 . S
H336 C346 0.950 . S
H337 C348 0.950 . S
H338 C350 0.950 . S
H339 C351 0.950 . S
C340 H332 0.950 . S
C340 C341 1.386 . S
C340 C342 1.391 . S
C341 C340 1.386 . S
C341 C345 1.393 1_655 S
C342 H334 0.950 . S
C342 C340 1.391 . S
C342 C343 1.400 . S
C343 C342 1.400 . S
C343 C344 1.398 1_655 S
C343 C349 1.491 . S
C344 H335 0.950 . S
C344 C343 1.398 1_455 S
C344 C345 1.391 . S
C345 H333 0.950 . S
C345 C341 1.393 1_455 S
C345 C344 1.391 . S
C346 H336 0.950 . S
C346 C347 1.386 1_455 S
C346 C348 1.391 . S
C347 C346 1.386 1_655 S
C347 C351 1.393 . S
C348 H337 0.950 . S
C348 C346 1.391 . S
C348 C349 1.400 1_455 S
C349 C343 1.491 . S
C349 C348 1.400 1_655 S
C349 C350 1.398 . S
C350 H338 0.950 . S
C350 C349 1.398 . S
C350 C351 1.391 . S
C351 H339 0.950 . S
C351 C347 1.393 . S
C351 C350 1.391 . S
H352 C360 0.950 . S
H353 C365 0.950 . S
H354 C362 0.950 . S
H355 C364 0.950 . S
H356 C366 0.950 . S
H357 C368 0.950 . S
H358 C370 0.950 . S
H359 C371 0.950 . S
C360 H352 0.950 . S
C360 C361 1.386 . S
C360 C362 1.391 . S
C361 C360 1.386 . S
C361 C365 1.393 . S
C362 H354 0.950 . S
C362 C360 1.391 . S
C362 C363 1.400 . S
C363 C362 1.400 . S
C363 C364 1.398 . S
C363 C369 1.491 . S
C364 H355 0.950 . S
C364 C363 1.398 . S
C364 C365 1.391 . S
C365 H353 0.950 . S
C365 C361 1.393 . S
C365 C364 1.391 . S
C366 H356 0.950 . S
C366 C367 1.386 . S
C366 C368 1.391 . S
C367 C366 1.386 . S
C367 C371 1.393 . S
C368 H357 0.950 . S
C368 C366 1.391 . S
C368 C369 1.400 . S
C369 C363 1.491 . S
C369 C368 1.400 . S
C369 C370 1.398 . S
C370 H358 0.950 . S
C370 C369 1.398 . S
C370 C371 1.391 . S
C371 H359 0.950 . S
C371 C367 1.393 . S
C371 C370 1.391 . S
H372 C380 0.950 . S
H373 C385 0.950 . S
H374 C382 0.950 . S
H375 C384 0.950 . S
H376 C386 0.950 . S
H377 C388 0.950 . S
H378 C390 0.950 . S
H379 C391 0.950 . S
C380 H372 0.950 . S
C380 C381 1.386 . S
C380 C382 1.391 . S
C381 C380 1.386 . S
C381 C385 1.393 1_565 S
C382 H374 0.950 . S
C382 C380 1.391 . S
C382 C383 1.400 . S
C383 C382 1.400 . S
C383 C384 1.398 1_565 S
C383 C389 1.491 1_565 S
C384 H375 0.950 . S
C384 C383 1.398 1_545 S
C384 C385 1.391 . S
C385 H373 0.950 . S
C385 C381 1.393 1_545 S
C385 C384 1.391 . S
C386 H376 0.950 . S
C386 C387 1.386 . S
C386 C388 1.391 . S
C387 C386 1.386 . S
C387 C391 1.393 1_545 S
C388 H377 0.950 . S
C388 C386 1.391 . S
C388 C389 1.400 . S
C389 C383 1.491 1_545 S
C389 C388 1.400 . S
C389 C390 1.398 1_545 S
C390 H378 0.950 . S
C390 C389 1.398 1_565 S
C390 C391 1.391 . S
C391 H379 0.950 . S
C391 C387 1.393 1_565 S
C391 C390 1.391 . S
H392 C400 0.950 . S
H393 C405 0.950 . S
H394 C402 0.950 . S
H395 C404 0.950 . S
H396 C406 0.950 . S
H397 C408 0.950 . S
H398 C410 0.950 . S
H399 C411 0.950 . S
C400 H392 0.950 . S
C400 C401 1.386 . S
C400 C402 1.391 . S
C401 C400 1.386 . S
C401 C405 1.393 . S
C402 H394 0.950 . S
C402 C400 1.391 . S
C402 C403 1.400 . S
C403 C402 1.400 . S
C403 C404 1.398 . S
C403 C409 1.491 . S
C404 H395 0.950 . S
C404 C403 1.398 . S
C404 C405 1.391 . S
C405 H393 0.950 . S
C405 C401 1.393 . S
C405 C404 1.391 . S
C406 H396 0.950 . S
C406 C407 1.382 1_556 S
C406 C408 1.391 . S
C407 C406 1.382 1_554 S
C407 C411 1.393 . S
C408 H397 0.950 . S
C408 C406 1.391 . S
C408 C409 1.400 . S
C409 C403 1.491 . S
C409 C408 1.400 . S
C409 C410 1.398 . S
C410 H398 0.950 . S
C410 C409 1.398 . S
C410 C411 1.391 1_556 S
C411 H399 0.950 . S
C411 C407 1.393 . S
C411 C410 1.391 1_554 S
H412 C420 0.950 . S
H413 C425 0.950 . S
H414 C422 0.950 . S
H415 C424 0.950 . S
H416 C426 0.950 . S
H417 C428 0.950 . S
H418 C430 0.950 . S
H419 C431 0.950 . S
C420 H412 0.950 . S
C420 C421 1.386 . S
C420 C422 1.391 . S
C421 C420 1.386 . S
C421 C425 1.393 . S
C422 H414 0.950 . S
C422 C420 1.391 . S
C422 C423 1.400 . S
C423 C422 1.400 . S
C423 C424 1.398 . S
C423 C429 1.491 . S
C424 H415 0.950 . S
C424 C423 1.398 . S
C424 C425 1.391 . S
C425 H413 0.950 . S
C425 C421 1.393 . S
C425 C424 1.391 . S
C426 H416 0.950 . S
C426 C427 1.386 . S
C426 C428 1.391 . S
C427 C426 1.386 . S
C427 C431 1.393 . S
C428 H417 0.950 . S
C428 C426 1.391 . S
C428 C429 1.400 . S
C429 C423 1.491 . S
C429 C428 1.400 . S
C429 C430 1.398 . S
C430 H418 0.950 . S
C430 C429 1.398 . S
C430 C431 1.391 . S
C431 H419 0.950 . S
C431 C427 1.393 . S
C431 C430 1.391 . S
H432 C440 0.950 . S
H433 C445 0.950 . S
H434 C442 0.950 . S
H435 C444 0.950 . S
H436 C446 0.950 . S
H437 C448 0.950 . S
H438 C450 0.950 . S
H439 C451 0.950 . S
C440 H432 0.950 . S
C440 C441 1.386 . S
C440 C442 1.391 . S
C441 C440 1.386 . S
C441 C445 1.393 . S
C442 H434 0.950 . S
C442 C440 1.391 . S
C442 C443 1.400 . S
C443 C442 1.400 . S
C443 C444 1.398 . S
C443 C449 1.491 . S
C444 H435 0.950 . S
C444 C443 1.398 . S
C444 C445 1.391 . S
C445 H433 0.950 . S
C445 C441 1.393 . S
C445 C444 1.391 . S
C446 H436 0.950 . S
C446 C447 1.386 . S
C446 C448 1.391 . S
C447 C446 1.386 . S
C447 C451 1.393 . S
C448 H437 0.950 . S
C448 C446 1.391 . S
C448 C449 1.400 . S
C449 C443 1.491 . S
C449 C448 1.400 . S
C449 C450 1.398 . S
C450 H438 0.950 . S
C450 C449 1.398 . S
C450 C451 1.391 . S
C451 H439 0.950 . S
C451 C447 1.393 . S
C451 C450 1.391 . S
H452 C460 0.950 . S
H453 C465 0.950 . S
H454 C462 0.950 . S
H455 C464 0.950 . S
H456 C466 0.950 . S
H457 C468 0.950 . S
H458 C470 0.947 1_556 S
H459 C471 0.940 1_556 S
C460 H452 0.950 . S
C460 C461 1.386 . S
C460 C462 1.391 . S
C461 C460 1.386 . S
C461 C465 1.393 1_556 S
C462 H454 0.950 . S
C462 C460 1.391 . S
C462 C463 1.400 1_556 S
C463 C462 1.400 1_554 S
C463 C464 1.398 . S
C463 C469 1.491 . S
C464 H455 0.950 . S
C464 C463 1.398 . S
C464 C465 1.391 . S
C465 H453 0.950 . S
C465 C461 1.393 1_554 S
C465 C464 1.391 . S
C466 H456 0.950 . S
C466 C467 1.386 . S
C466 C468 1.391 . S
C467 C466 1.386 . S
C467 C471 1.393 . S
C468 H457 0.950 . S
C468 C466 1.391 . S
C468 C469 1.400 . S
C469 C463 1.491 . S
C469 C468 1.400 . S
C469 C470 1.400 . S
C470 H458 0.947 1_554 S
C470 C469 1.400 . S
C470 C471 1.392 . S
C471 H459 0.940 1_554 S
C471 C467 1.393 . S
C471 C470 1.392 . S
H472 C480 0.950 . S
H473 C485 0.950 . S
H474 C482 0.950 . S
H475 C484 0.950 . S
H476 C486 0.950 . S
H477 C488 0.950 . S
H478 C490 0.950 . S
H479 C491 0.950 1_455 S
C480 H472 0.950 . S
C480 C481 1.386 . S
C480 C482 1.391 . S
C481 C480 1.386 . S
C481 C485 1.393 . S
C482 H474 0.950 . S
C482 C480 1.391 . S
C482 C483 1.400 . S
C483 C482 1.400 . S
C483 C484 1.398 . S
C483 C489 1.491 . S
C484 H475 0.950 . S
C484 C483 1.398 . S
C484 C485 1.391 . S
C485 H473 0.950 . S
C485 C481 1.393 . S
C485 C484 1.391 . S
C486 H476 0.950 . S
C486 C487 1.386 . S
C486 C488 1.391 . S
C487 C486 1.386 . S
C487 C491 1.393 . S
C488 H477 0.950 . S
C488 C486 1.391 . S
C488 C489 1.400 . S
C489 C483 1.491 . S
C489 C488 1.400 . S
C489 C490 1.398 . S
C490 H478 0.950 . S
C490 C489 1.398 . S
C490 C491 1.391 . S
C491 H479 0.950 1_655 S
C491 C487 1.393 . S
C491 C490 1.391 . S
H492 C500 0.950 . S
H493 C505 0.950 . S
H494 C502 0.950 . S
H495 C504 0.950 . S
H496 C506 0.950 . S
H497 C508 0.950 . S
H498 C510 0.950 . S
H499 C511 0.950 . S
C500 H492 0.950 . S
C500 C501 1.386 . S
C500 C502 1.391 . S
C501 C500 1.386 . S
C501 C505 1.393 . S
C502 H494 0.950 . S
C502 C500 1.391 . S
C502 C503 1.400 . S
C503 C502 1.400 . S
C503 C504 1.398 . S
C503 C509 1.491 . S
C504 H495 0.950 . S
C504 C503 1.398 . S
C504 C505 1.391 . S
C505 H493 0.950 . S
C505 C501 1.393 . S
C505 C504 1.391 . S
C506 H496 0.950 . S
C506 C507 1.386 . S
C506 C508 1.391 . S
C507 C506 1.386 . S
C507 C511 1.393 . S
C508 H497 0.950 . S
C508 C506 1.391 . S
C508 C509 1.400 . S
C509 C503 1.491 . S
C509 C508 1.400 . S
C509 C510 1.398 . S
C510 H498 0.950 . S
C510 C509 1.398 . S
C510 C511 1.391 . S
C511 H499 0.950 . S
C511 C507 1.393 . S
C511 C510 1.391 . S
H512 C520 0.950 1_455 S
H513 C525 0.950 . S
H514 C522 0.950 1_455 S
H515 C524 0.950 . S
H516 C526 0.950 . S
H517 C528 0.950 . S
H518 C530 0.950 . S
H519 C531 0.950 . S
C520 H512 0.950 1_655 S
C520 C521 1.386 . S
C520 C522 1.391 . S
C521 C520 1.386 . S
C521 C525 1.393 . S
C522 H514 0.950 1_655 S
C522 C520 1.391 . S
C522 C523 1.400 . S
C523 C522 1.400 . S
C523 C524 1.398 . S
C523 C529 1.491 . S
C524 H515 0.950 . S
C524 C523 1.398 . S
C524 C525 1.391 . S
C525 H513 0.950 . S
C525 C521 1.393 . S
C525 C524 1.391 . S
C526 H516 0.950 . S
C526 C527 1.386 . S
C526 C528 1.391 1_545 S
C527 C526 1.386 . S
C527 C531 1.393 1_655 S
C528 H517 0.950 . S
C528 C526 1.391 1_565 S
C528 C529 1.400 . S
C529 C523 1.491 . S
C529 C528 1.400 . S
C529 C530 1.398 1_665 S
C530 H518 0.950 . S
C530 C529 1.398 1_445 S
C530 C531 1.391 . S
C531 H519 0.950 . S
C531 C527 1.393 1_455 S
C531 C530 1.391 . S
H532 C540 0.950 . S
H533 C545 0.950 . S
H534 C542 0.950 . S
H535 C544 0.950 . S
H536 C546 0.950 . S
H537 C548 0.950 . S
H538 C550 0.950 . S
H539 C551 0.950 . S
C540 H532 0.950 . S
C540 C541 1.386 . S
C540 C542 1.391 . S
C541 C540 1.386 . S
C541 C545 1.393 . S
C542 H534 0.950 . S
C542 C540 1.391 . S
C542 C543 1.400 . S
C543 C542 1.400 . S
C543 C544 1.398 . S
C543 C549 1.491 . S
C544 H535 0.950 . S
C544 C543 1.398 . S
C544 C545 1.391 . S
C545 H533 0.950 . S
C545 C541 1.393 . S
C545 C544 1.391 . S
C546 H536 0.950 . S
C546 C547 1.386 . S
C546 C548 1.391 . S
C547 C546 1.386 . S
C547 C551 1.393 . S
C548 H537 0.950 . S
C548 C546 1.391 . S
C548 C549 1.400 . S
C549 C543 1.491 . S
C549 C548 1.400 . S
C549 C550 1.398 . S
C550 H538 0.950 . S
C550 C549 1.398 . S
C550 C551 1.391 . S
C551 H539 0.950 . S
C551 C547 1.393 . S
C551 C550 1.391 . S
H552 C560 0.950 . S
H553 C565 0.950 . S
H554 C562 0.950 . S
H555 C564 0.950 . S
H556 C566 0.950 . S
H557 C568 0.950 . S
H558 C570 0.950 . S
H559 C571 0.950 . S
C560 H552 0.950 . S
C560 C561 1.386 . S
C560 C562 1.391 . S
C561 C560 1.386 . S
C561 C565 1.393 . S
C562 H554 0.950 . S
C562 C560 1.391 . S
C562 C563 1.400 . S
C563 C562 1.400 . S
C563 C564 1.398 . S
C563 C569 1.491 . S
C564 H555 0.950 . S
C564 C563 1.398 . S
C564 C565 1.391 . S
C565 H553 0.950 . S
C565 C561 1.393 . S
C565 C564 1.391 . S
C566 H556 0.950 . S
C566 C567 1.386 . S
C566 C568 1.391 . S
C567 C566 1.386 . S
C567 C571 1.393 . S
C568 H557 0.950 . S
C568 C566 1.391 . S
C568 C569 1.400 . S
C569 C563 1.491 . S
C569 C568 1.400 . S
C569 C570 1.398 . S
C570 H558 0.950 . S
C570 C569 1.398 . S
C570 C571 1.391 . S
C571 H559 0.950 . S
C571 C567 1.393 . S
C571 C570 1.391 . S
H572 C580 0.950 . S
H573 C585 0.950 . S
H574 C582 0.950 . S
H575 C584 0.950 . S
H576 C586 0.950 . S
H577 C588 0.950 . S
H578 C590 0.950 . S
H579 C591 0.950 . S
C580 H572 0.950 . S
C580 C581 1.386 . S
C580 C582 1.391 . S
C581 C580 1.386 . S
C581 C585 1.393 . S
C582 H574 0.950 . S
C582 C580 1.391 . S
C582 C583 1.400 . S
C583 C582 1.400 . S
C583 C584 1.398 . S
C583 C589 1.491 . S
C584 H575 0.950 . S
C584 C583 1.398 . S
C584 C585 1.391 . S
C585 H573 0.950 . S
C585 C581 1.393 . S
C585 C584 1.391 . S
C586 H576 0.950 . S
C586 C587 1.386 . S
C586 C588 1.391 . S
C587 C586 1.386 . S
C587 C591 1.393 . S
C588 H577 0.950 . S
C588 C586 1.391 . S
C588 C589 1.400 . S
C589 C583 1.491 . S
C589 C588 1.400 . S
C589 C590 1.398 . S
C590 H578 0.950 . S
C590 C589 1.398 . S
C590 C591 1.391 . S
C591 H579 0.950 . S
C591 C587 1.393 . S
C591 C590 1.391 . S
H592 C600 0.950 . S
H593 C605 0.950 . S
H594 C602 0.950 . S
H595 C604 0.950 . S
H596 C606 0.950 . S
H597 C608 0.950 . S
H598 C610 0.950 . S
H599 C611 0.950 . S
C600 H592 0.950 . S
C600 C601 1.386 1_545 S
C600 C602 1.391 1_556 S
C601 C600 1.386 1_565 S
C601 C605 1.393 . S
C602 H594 0.950 . S
C602 C600 1.391 1_554 S
C602 C603 1.400 . S
C603 C602 1.400 . S
C603 C604 1.398 1_544 S
C603 C609 1.491 . S
C604 H595 0.950 . S
C604 C603 1.398 1_566 S
C604 C605 1.391 . S
C605 H593 0.950 . S
C605 C601 1.393 . S
C605 C604 1.391 . S
C606 H596 0.950 . S
C606 C607 1.386 1_565 S
C606 C608 1.391 . S
C607 C606 1.386 1_545 S
C607 C611 1.393 . S
C608 H597 0.950 . S
C608 C606 1.391 . S
C608 C609 1.400 1_565 S
C609 C603 1.491 . S
C609 C608 1.400 1_545 S
C609 C610 1.398 . S
C610 H598 0.950 . S
C610 C609 1.398 . S
C610 C611 1.391 . S
C611 H599 0.950 . S
C611 C607 1.393 . S
C611 C610 1.391 . S
H612 C620 0.950 . S
H613 C625 0.950 . S
H614 C622 0.950 . S
H615 C624 0.950 . S
H616 C626 0.950 . S
H617 C628 0.950 . S
H618 C630 0.950 . S
H619 C631 0.950 . S
C620 H612 0.950 . S
C620 C621 1.386 . S
C620 C622 1.391 . S
C621 C620 1.386 . S
C621 C625 1.393 . S
C622 H614 0.950 . S
C622 C620 1.391 . S
C622 C623 1.400 . S
C623 C622 1.400 . S
C623 C624 1.398 . S
C623 C629 1.491 . S
C624 H615 0.950 . S
C624 C623 1.398 . S
C624 C625 1.391 . S
C625 H613 0.950 . S
C625 C621 1.393 . S
C625 C624 1.391 . S
C626 H616 0.950 . S
C626 C627 1.386 . S
C626 C628 1.391 . S
C627 C626 1.386 . S
C627 C631 1.393 . S
C628 H617 0.950 . S
C628 C626 1.391 . S
C628 C629 1.400 . S
C629 C623 1.491 . S
C629 C628 1.400 . S
C629 C630 1.398 . S
C630 H618 0.950 . S
C630 C629 1.398 . S
C630 C631 1.391 . S
C631 H619 0.950 . S
C631 C627 1.393 . S
C631 C630 1.391 . S
H632 C640 0.950 . S
H633 C645 0.950 . S
H634 C642 0.950 . S
H635 C644 0.950 . S
H636 C646 0.950 . S
H637 C648 0.950 . S
H638 C650 0.950 . S
H639 C651 0.950 . S
C640 H632 0.950 . S
C640 C641 1.386 . S
C640 C642 1.391 . S
C641 C640 1.386 . S
C641 C645 1.393 . S
C642 H634 0.950 . S
C642 C640 1.391 . S
C642 C643 1.400 . S
C643 C642 1.400 . S
C643 C644 1.398 . S
C643 C649 1.491 . S
C644 H635 0.950 . S
C644 C643 1.398 . S
C644 C645 1.391 . S
C645 H633 0.950 . S
C645 C641 1.393 . S
C645 C644 1.391 . S
C646 H636 0.950 . S
C646 C647 1.386 . S
C646 C648 1.391 . S
C647 C646 1.386 . S
C647 C651 1.393 . S
C648 H637 0.950 . S
C648 C646 1.391 . S
C648 C649 1.400 . S
C649 C643 1.491 . S
C649 C648 1.400 . S
C649 C650 1.398 . S
C650 H638 0.950 . S
C650 C649 1.398 . S
C650 C651 1.391 . S
C651 H639 0.950 . S
C651 C647 1.393 . S
C651 C650 1.391 . S
H652 C660 0.950 . S
H653 C665 0.950 . S
H654 C662 0.950 . S
H655 C664 0.950 . S
H656 C666 0.950 . S
H657 C668 0.950 . S
H658 C670 0.950 . S
H659 C671 0.950 . S
C660 H652 0.950 . S
C660 C661 1.386 . S
C660 C662 1.391 . S
C661 C660 1.386 . S
C661 C665 1.393 . S
C662 H654 0.950 . S
C662 C660 1.391 . S
C662 C663 1.400 . S
C663 C662 1.400 . S
C663 C664 1.398 . S
C663 C669 1.491 . S
C664 H655 0.950 . S
C664 C663 1.398 . S
C664 C665 1.391 . S
C665 H653 0.950 . S
C665 C661 1.393 . S
C665 C664 1.391 . S
C666 H656 0.950 . S
C666 C667 1.386 . S
C666 C668 1.391 . S
C667 C666 1.386 . S
C667 C671 1.393 . S
C668 H657 0.950 . S
C668 C666 1.391 . S
C668 C669 1.400 . S
C669 C663 1.491 . S
C669 C668 1.400 . S
C669 C670 1.398 . S
C670 H658 0.950 . S
C670 C669 1.398 . S
C670 C671 1.391 . S
C671 H659 0.950 . S
C671 C667 1.393 . S
C671 C670 1.391 . S
H672 C680 0.950 . S
H673 C685 0.950 . S
H674 C682 0.950 . S
H675 C684 0.950 1_455 S
H676 C686 0.950 . S
H677 C688 0.950 . S
H678 C690 0.950 . S
H679 C691 0.950 . S
C680 H672 0.950 . S
C680 C681 1.386 . S
C680 C682 1.391 . S
C681 C680 1.386 . S
C681 C685 1.393 . S
C682 H674 0.950 . S
C682 C680 1.391 . S
C682 C683 1.400 . S
C683 C682 1.400 . S
C683 C684 1.398 . S
C683 C689 1.491 . S
C684 H675 0.950 1_655 S
C684 C683 1.398 . S
C684 C685 1.391 . S
C685 H673 0.950 . S
C685 C681 1.393 . S
C685 C684 1.391 . S
C686 H676 0.950 . S
C686 C687 1.386 1_554 S
C686 C688 1.391 1_554 S
C687 C686 1.386 1_556 S
C687 C691 1.393 1_455 S
C688 H677 0.950 . S
C688 C686 1.391 1_556 S
C688 C689 1.400 1_455 S
C689 C683 1.491 . S
C689 C688 1.400 1_655 S
C689 C690 1.398 . S
C690 H678 0.950 . S
C690 C689 1.398 . S
C690 C691 1.391 . S
C691 H679 0.950 . S
C691 C687 1.393 1_655 S
C691 C690 1.391 . S
H692 C700 0.950 . S
H693 C705 0.950 . S
H694 C702 0.950 . S
H695 C704 0.950 . S
H696 C706 0.950 . S
H697 C708 0.950 . S
H698 C710 0.950 . S
H699 C711 0.950 . S
C700 H692 0.950 . S
C700 C701 1.386 . S
C700 C702 1.391 . S
C701 C700 1.386 . S
C701 C705 1.393 . S
C702 H694 0.950 . S
C702 C700 1.391 . S
C702 C703 1.400 . S
C703 C702 1.400 . S
C703 C704 1.398 . S
C703 C709 1.491 . S
C704 H695 0.950 . S
C704 C703 1.398 . S
C704 C705 1.391 . S
C705 H693 0.950 . S
C705 C701 1.393 . S
C705 C704 1.391 . S
C706 H696 0.950 . S
C706 C707 1.386 . S
C706 C708 1.391 . S
C707 C706 1.386 . S
C707 C711 1.393 . S
C708 H697 0.950 . S
C708 C706 1.391 . S
C708 C709 1.400 . S
C709 C703 1.491 . S
C709 C708 1.400 . S
C709 C710 1.398 . S
C710 H698 0.950 . S
C710 C709 1.398 . S
C710 C711 1.391 . S
C711 H699 0.950 . S
C711 C707 1.393 . S
C711 C710 1.391 . S
H712 C720 0.950 . S
H713 C725 0.950 . S
H714 C722 0.950 . S
H715 C724 0.950 . S
H716 C726 0.950 . S
H717 C728 0.950 . S
H718 C730 0.950 . S
H719 C731 0.950 . S
C720 H712 0.950 . S
C720 C721 1.386 . S
C720 C722 1.391 . S
C721 C720 1.386 . S
C721 C725 1.393 . S
C722 H714 0.950 . S
C722 C720 1.391 . S
C722 C723 1.400 . S
C723 C722 1.400 . S
C723 C724 1.398 . S
C723 C729 1.491 . S
C724 H715 0.950 . S
C724 C723 1.398 . S
C724 C725 1.391 . S
C725 H713 0.950 . S
C725 C721 1.393 . S
C725 C724 1.391 . S
C726 H716 0.950 . S
C726 C727 1.386 . S
C726 C728 1.391 . S
C727 C726 1.386 . S
C727 C731 1.393 . S
C728 H717 0.950 . S
C728 C726 1.391 . S
C728 C729 1.400 . S
C729 C723 1.491 . S
C729 C728 1.400 . S
C729 C730 1.398 . S
C730 H718 0.950 . S
C730 C729 1.398 . S
C730 C731 1.391 . S
C731 H719 0.950 . S
C731 C727 1.393 . S
C731 C730 1.391 . S
H732 C740 0.950 . S
H733 C745 0.950 . S
H734 C742 0.950 . S
H735 C744 0.950 . S
H736 C746 0.950 . S
H737 C748 0.950 . S
H738 C750 0.950 . S
H739 C751 0.950 . S
C740 H732 0.950 . S
C740 C741 1.386 . S
C740 C742 1.391 . S
C741 C740 1.386 . S
C741 C745 1.393 . S
C742 H734 0.950 . S
C742 C740 1.391 . S
C742 C743 1.400 . S
C743 C742 1.400 . S
C743 C744 1.398 . S
C743 C749 1.491 . S
C744 H735 0.950 . S
C744 C743 1.398 . S
C744 C745 1.391 . S
C745 H733 0.950 . S
C745 C741 1.393 . S
C745 C744 1.391 . S
C746 H736 0.950 . S
C746 C747 1.386 . S
C746 C748 1.391 . S
C747 C746 1.386 . S
C747 C751 1.393 . S
C748 H737 0.950 . S
C748 C746 1.391 . S
C748 C749 1.400 . S
C749 C743 1.491 . S
C749 C748 1.400 . S
C749 C750 1.398 . S
C750 H738 0.950 . S
C750 C749 1.398 . S
C750 C751 1.391 . S
C751 H739 0.950 . S
C751 C747 1.393 . S
C751 C750 1.391 . S
C281 C6 2.420 . S
C287 C168 2.449 . S
C301 C21 1.616 . S
C307 N188 1.610 . S
C327 C222 1.388 . S
C321 C49 1.321 . S
C341 C68 0.989 . S
C347 N256 1.069 . S
C367 C209 3.061 . S
C361 C2 3.030 . S
C387 N166 0.891 . S
C381 C30 0.832 . S
C407 C243 1.729 . S
C401 C40 1.718 . S
C427 N218 0.921 . S
C421 C63 0.904 . S
C441 C11 1.610 . S
C447 C258 1.853 . S
C467 C192 1.824 . S
C461 C44 1.805 . S
C481 C59 1.005 . S
C487 C153 1.018 . S
C501 C25 1.721 . S
C507 C239 1.752 . S
C527 C179 2.634 . S
C521 C82 2.615 . S
C541 C101 1.332 . S
C547 N196 1.303 . S
C561 C125 1.737 . S
C567 C213 1.806 . S
C581 C144 0.830 . S
C587 N248 0.884 . S
C601 C87 1.837 . S
C607 C198 2.068 . S
C627 N158 1.760 . S
C621 C97 1.766 . S
C647 C252 1.741 . S
C641 C120 1.742 . S
C667 N226 0.975 . S
C661 C135 0.950 . S
C681 C78 2.151 . S
C687 C269 2.168 1_556 S
C707 C183 1.312 . S
C701 C116 1.303 . S
C727 C162 1.577 . S
C721 C139 1.551 . S
C741 C106 1.360 . S
C747 C228 1.458 . S
