# Generated by pormake.
# Topology dag, (6,3)-cn, num edge types: 1
# Building blocks:
#     Node 0, Type 0, BuildingBlock: MIDCAF_clean_sbu_0, # of connection points: 6
#     Node 1, Type 0, BuildingBlock: MIDCAF_clean_sbu_0, # of connection points: 6
#     Node 2, Type 0, BuildingBlock: MIDCAF_clean_sbu_0, # of connection points: 6
#     Node 3, Type 0, BuildingBlock: MIDCAF_clean_sbu_0, # of connection points: 6
#     Node 4, Type 1, BuildingBlock: CUQRIR_clean_linker_1, # of connection points: 3
#     Node 5, Type 1, BuildingBlock: CUQRIR_clean_linker_1, # of connection points: 3
#     Node 6, Type 1, BuildingBlock: CUQRIR_clean_linker_1, # of connection points: 3
#     Node 7, Type 1, BuildingBlock: CUQRIR_clean_linker_1, # of connection points: 3
#     Node 8, Type 1, BuildingBlock: CUQRIR_clean_linker_1, # of connection points: 3
#     Node 9, Type 1, BuildingBlock: CUQRIR_clean_linker_1, # of connection points: 3
#     Node 10, Type 1, BuildingBlock: CUQRIR_clean_linker_1, # of connection points: 3
#     Node 11, Type 1, BuildingBlock: CUQRIR_clean_linker_1, # of connection points: 3
#     Edge 12, Type (0, 1), BuildingBlock: XIVTED_clean_linker_0, # of connection points: 2
#     Edge 13, Type (0, 1), BuildingBlock: XIVTED_clean_linker_0, # of connection points: 2
#     Edge 14, Type (0, 1), BuildingBlock: XIVTED_clean_linker_0, # of connection points: 2
#     Edge 15, Type (0, 1), BuildingBlock: XIVTED_clean_linker_0, # of connection points: 2
#     Edge 16, Type (0, 1), BuildingBlock: XIVTED_clean_linker_0, # of connection points: 2
#     Edge 17, Type (0, 1), BuildingBlock: XIVTED_clean_linker_0, # of connection points: 2
#     Edge 18, Type (0, 1), BuildingBlock: XIVTED_clean_linker_0, # of connection points: 2
#     Edge 19, Type (0, 1), BuildingBlock: XIVTED_clean_linker_0, # of connection points: 2
#     Edge 20, Type (0, 1), BuildingBlock: XIVTED_clean_linker_0, # of connection points: 2
#     Edge 21, Type (0, 1), BuildingBlock: XIVTED_clean_linker_0, # of connection points: 2
#     Edge 22, Type (0, 1), BuildingBlock: XIVTED_clean_linker_0, # of connection points: 2
#     Edge 23, Type (0, 1), BuildingBlock: XIVTED_clean_linker_0, # of connection points: 2
#     Edge 24, Type (0, 1), BuildingBlock: XIVTED_clean_linker_0, # of connection points: 2
#     Edge 25, Type (0, 1), BuildingBlock: XIVTED_clean_linker_0, # of connection points: 2
#     Edge 26, Type (0, 1), BuildingBlock: XIVTED_clean_linker_0, # of connection points: 2
#     Edge 27, Type (0, 1), BuildingBlock: XIVTED_clean_linker_0, # of connection points: 2
#     Edge 28, Type (0, 1), BuildingBlock: XIVTED_clean_linker_0, # of connection points: 2
#     Edge 29, Type (0, 1), BuildingBlock: XIVTED_clean_linker_0, # of connection points: 2
#     Edge 30, Type (0, 1), BuildingBlock: XIVTED_clean_linker_0, # of connection points: 2
#     Edge 31, Type (0, 1), BuildingBlock: XIVTED_clean_linker_0, # of connection points: 2
#     Edge 32, Type (0, 1), BuildingBlock: XIVTED_clean_linker_0, # of connection points: 2
#     Edge 33, Type (0, 1), BuildingBlock: XIVTED_clean_linker_0, # of connection points: 2
#     Edge 34, Type (0, 1), BuildingBlock: XIVTED_clean_linker_0, # of connection points: 2
#     Edge 35, Type (0, 1), BuildingBlock: XIVTED_clean_linker_0, # of connection points: 2
# Relax obj value: 0.120
# Max RMSD: 0.123
# Mean RMSD: 0.093
data_MOF--net-dag--node1-MIDCAF_clean_sbu_0--node2-CUQRIR_clean_linker_1--edge1-XIVTED_clean_linker_0
_symmetry_space_group_name_H-M    P1
_symmetry_Int_Tables_number       1
_symmetry_cell_setting            triclinic
loop_
_symmetry_equiv_pos_as_xyz
'x, y, z'
_cell_length_a     38.765787
_cell_length_b     38.417715
_cell_length_c     29.698877
_cell_angle_alpha  90.117556
_cell_angle_beta   90.878875
_cell_angle_gamma 89.363144
loop_
_atom_site_label
_atom_site_type_symbol
_atom_site_fract_x
_atom_site_fract_y
_atom_site_fract_z
_atom_type_partial_charge
Zn0 Zn 0.10355 0.90156 0.06705 0.0
Zn1 Zn 0.11399 0.85546 0.92348 0.0
Zn2 Zn 0.11042 0.87409 1.00013 0.0
C3 C 0.09675 0.92725 0.9255 0.0
C4 C 0.06168 0.81625 0.96336 0.0
O5 O 0.09634 0.8301 0.04071 0.0
O6 O 0.1275 0.85651 0.09256 0.0
C7 C 0.15989 0.92576 0.03366 0.0
O8 O 0.0923 0.92008 0.96689 0.0
O9 O 0.108 0.9041 0.89902 0.0
O10 O 0.07449 0.8233 0.92565 0.0
O11 O 0.07331 0.83114 0.99948 0.0
O12 O 0.13118 0.94011 0.04156 0.0
O13 O 0.16059 0.89278 0.02628 0.0
O14 O 0.06267 0.85557 0.03868 0.0
O15 O 0.05252 0.90525 0.07356 0.0
C16 C 0.04245 0.87535 0.06208 0.0
O17 O 0.16548 0.85989 0.9981 0.0
O18 O 0.16095 0.8357 0.93081 0.0
C19 C 0.11667 0.82829 0.07542 0.0
C20 C 0.17868 0.84234 0.96573 0.0
Zn21 Zn 0.6015 0.6198 0.41279 0.0
Zn22 Zn 0.62048 0.60534 0.57868 0.0
Zn23 Zn 0.60607 0.60564 0.50315 0.0
C24 C 0.60529 0.53856 0.56847 0.0
C25 C 0.56389 0.65197 0.56002 0.0
O26 O 0.64387 0.64499 0.47733 0.0
O27 O 0.60986 0.67069 0.42688 0.0
C28 C 0.66249 0.58726 0.43629 0.0
O29 O 0.60665 0.55005 0.52784 0.0
O30 O 0.60703 0.55987 0.60067 0.0
O31 O 0.58759 0.64393 0.58784 0.0
O32 O 0.56304 0.63754 0.52108 0.0
O33 O 0.64041 0.58683 0.40468 0.0
O34 O 0.6563 0.60543 0.47167 0.0
O35 O 0.55164 0.61971 0.47544 0.0
O36 O 0.55533 0.60201 0.40477 0.0
C37 C 0.53703 0.61095 0.43754 0.0
O38 O 0.6567 0.63441 0.51862 0.0
O39 O 0.66913 0.61724 0.58783 0.0
C40 C 0.6367 0.67141 0.45143 0.0
C41 C 0.67717 0.6344 0.55356 0.0
Zn42 Zn 0.8662 0.13676 0.86937 0.0
Zn43 Zn 0.86506 0.1096 0.08218 0.0
Zn44 Zn 0.86932 0.11347 0.00509 0.0
C45 C 0.93345 0.10134 0.06427 0.0
C46 C 0.82115 0.06237 0.04907 0.0
O47 O 0.82039 0.10161 0.96999 0.0
O48 O 0.83203 0.14503 0.92407 0.0
C49 C 0.89143 0.17037 0.95566 0.0
O50 O 0.9192 0.09097 0.02742 0.0
O51 O 0.91502 0.11513 0.09415 0.0
O52 O 0.84332 0.06355 0.0806 0.0
O53 O 0.82233 0.08427 0.01673 0.0
O54 O 0.86711 0.15815 0.93177 0.0
O55 O 0.88784 0.16647 0.99789 0.0
O56 O 0.87301 0.08467 0.94073 0.0
O57 O 0.87586 0.08475 0.86629 0.0
C58 C 0.87516 0.068 0.90319 0.0
O59 O 0.8585 0.16746 0.02924 0.0
O60 O 0.83488 0.15043 0.09223 0.0
C61 C 0.81105 0.1218 0.93723 0.0
C62 C 0.84049 0.17418 0.06414 0.0
Zn63 Zn 0.34615 0.37014 0.61415 0.0
Zn64 Zn 0.36926 0.37175 0.43347 0.0
Zn65 Zn 0.37305 0.36857 0.51017 0.0
C66 C 0.43762 0.37648 0.44846 0.0
C67 C 0.32644 0.42349 0.46506 0.0
O68 O 0.33186 0.33068 0.53193 0.0
O69 O 0.30235 0.36654 0.57544 0.0
C70 C 0.38749 0.31605 0.58515 0.0
O71 O 0.42646 0.36357 0.48518 0.0
O72 O 0.41607 0.38895 0.42038 0.0
O73 O 0.3291 0.40411 0.43093 0.0
O74 O 0.34513 0.41727 0.5002 0.0
O75 O 0.37939 0.32939 0.6225 0.0
O76 O 0.36864 0.32417 0.55102 0.0
O77 O 0.36388 0.42203 0.54175 0.0
O78 O 0.36701 0.41712 0.6166 0.0
C79 C 0.36688 0.43575 0.58156 0.0
O80 O 0.34311 0.32176 0.48737 0.0
O81 O 0.36013 0.32285 0.4172 0.0
C82 C 0.3035 0.33876 0.55276 0.0
C83 C 0.34452 0.30742 0.44815 0.0
C84 C 0.15978 0.15217 0.26227 0.0
N85 N 0.15497 0.12757 0.22984 0.0
N86 N 0.19049 0.14722 0.28393 0.0
C87 C 0.13489 0.18114 0.27294 0.0
C88 C 0.20442 0.11911 0.26334 0.0
N89 N 0.18283 0.107 0.23091 0.0
C90 C 0.23998 0.10461 0.27361 0.0
H91 H 0.14011 0.20364 0.2508 0.0
H92 H 0.1382 0.18972 0.30844 0.0
H93 H 0.10788 0.17281 0.26701 0.0
H94 H 0.23824 0.08616 0.30215 0.0
H95 H 0.25805 0.12543 0.28384 0.0
H96 H 0.2508 0.09054 0.24433 0.0
C97 C 0.30709 0.6771 0.75264 0.0
N98 N 0.33091 0.66855 0.72138 0.0
N99 N 0.31321 0.7094 0.7696 0.0
C100 C 0.27829 0.65386 0.76651 0.0
C101 C 0.34157 0.71998 0.74786 0.0
N102 N 0.35212 0.69533 0.71871 0.0
C103 C 0.35945 0.75412 0.75633 0.0
H104 H 0.26018 0.65053 0.73757 0.0
H105 H 0.26389 0.66478 0.79534 0.0
H106 H 0.28883 0.62774 0.77532 0.0
H107 H 0.36044 0.75988 0.79296 0.0
H108 H 0.3445 0.77529 0.7395 0.0
H109 H 0.38597 0.75442 0.74303 0.0
C110 C 0.76901 0.85205 0.24671 0.0
N111 N 0.79161 0.86312 0.21583 0.0
N112 N 0.78112 0.82303 0.26737 0.0
C113 C 0.73492 0.86941 0.25651 0.0
C114 C 0.81204 0.81681 0.2479 0.0
N115 N 0.81876 0.84155 0.21674 0.0
C116 C 0.83559 0.78655 0.25925 0.0
H117 H 0.73835 0.88703 0.28586 0.0
H118 H 0.71534 0.84979 0.26525 0.0
H119 H 0.72537 0.8851 0.2275 0.0
H120 H 0.82107 0.76365 0.27069 0.0
H121 H 0.85327 0.79428 0.28713 0.0
H122 H 0.85122 0.77897 0.22976 0.0
C123 C 0.66196 0.29828 0.75234 0.0
N124 N 0.63898 0.31071 0.72129 0.0
N125 N 0.65225 0.26642 0.76713 0.0
C126 C 0.69508 0.31601 0.76492 0.0
C127 C 0.62247 0.26023 0.74418 0.0
N128 N 0.61452 0.287 0.71625 0.0
C129 C 0.5999 0.22923 0.75171 0.0
H130 H 0.71197 0.31635 0.7351 0.0
H131 H 0.70894 0.30269 0.79297 0.0
H132 H 0.68972 0.34346 0.7744 0.0
H133 H 0.60393 0.21856 0.78611 0.0
H134 H 0.60656 0.20864 0.72699 0.0
H135 H 0.57226 0.23631 0.74691 0.0
C136 C 0.67319 0.32064 0.26781 0.0
N137 N 0.66515 0.34538 0.29868 0.0
N138 N 0.70435 0.32708 0.24968 0.0
C139 C 0.65046 0.29079 0.25474 0.0
C140 C 0.71505 0.35637 0.27048 0.0
N141 N 0.69109 0.36776 0.29978 0.0
C142 C 0.74905 0.37374 0.26216 0.0
H143 H 0.65293 0.27026 0.28083 0.0
H144 H 0.65796 0.27955 0.22183 0.0
H145 H 0.62306 0.29945 0.25316 0.0
H146 H 0.74559 0.39278 0.23437 0.0
H147 H 0.76912 0.3547 0.25192 0.0
H148 H 0.7583 0.38775 0.29266 0.0
C149 C 0.12586 0.21272 0.76911 0.0
N150 N 0.11343 0.18725 0.79543 0.0
N151 N 0.15479 0.20156 0.74808 0.0
C152 C 0.10902 0.24783 0.76268 0.0
C153 C 0.15928 0.16833 0.76258 0.0
N154 N 0.13404 0.1597 0.79114 0.0
C155 C 0.18729 0.14386 0.74728 0.0
H156 H 0.08964 0.2461 0.73491 0.0
H157 H 0.12834 0.26765 0.75376 0.0
H158 H 0.09544 0.25618 0.79353 0.0
H159 H 0.2108 0.14825 0.7682 0.0
H160 H 0.19367 0.14883 0.71158 0.0
H161 H 0.17966 0.1163 0.75117 0.0
C162 C 0.25858 0.63084 0.25441 0.0
N163 N 0.28388 0.62009 0.28306 0.0
N164 N 0.26868 0.65904 0.23101 0.0
C165 C 0.22323 0.61499 0.25129 0.0
C166 C 0.30115 0.66512 0.2468 0.0
N167 N 0.31052 0.64117 0.27835 0.0
C168 C 0.32279 0.6953 0.23304 0.0
H169 H 0.22546 0.58831 0.23728 0.0
H170 H 0.20533 0.63006 0.22915 0.0
H171 H 0.21219 0.61292 0.28542 0.0
H172 H 0.3185 0.71711 0.25692 0.0
H173 H 0.31545 0.70428 0.19869 0.0
H174 H 0.35059 0.6881 0.23426 0.0
C175 C 0.81227 0.82175 0.75151 0.0
N176 N 0.83586 0.83022 0.78383 0.0
N177 N 0.81879 0.78936 0.73488 0.0
C178 C 0.78189 0.84418 0.73813 0.0
C179 C 0.84728 0.77866 0.75822 0.0
N180 N 0.85741 0.80325 0.78792 0.0
C181 C 0.86726 0.74558 0.7492 0.0
H182 H 0.75871 0.82788 0.73282 0.0
H183 H 0.78748 0.85744 0.70597 0.0
H184 H 0.77653 0.86424 0.76411 0.0
H185 H 0.86387 0.73716 0.71365 0.0
H186 H 0.85791 0.7247 0.77152 0.0
H187 H 0.89516 0.74921 0.75645 0.0
H188 H 0.17999 0.98663 0.99693 0.0
H189 H 0.19799 0.03999 0.24912 0.0
H190 H 0.20561 0.91366 0.10217 0.0
H191 H 0.18714 0.11368 0.14087 0.0
H192 H 0.21254 -0.0056 0.1945 0.0
H193 H 0.19858 0.034 0.0448 0.0
C194 C 0.19156 0.98025 0.02916 0.0
C195 C 0.19031 0.9462 0.04601 0.0
C196 C 0.20746 0.02059 0.18256 0.0
C197 C 0.21013 0.00062 0.10223 0.0
C198 C 0.19885 0.04636 0.21366 0.0
C199 C 0.19089 0.08011 0.19899 0.0
C200 C 0.20773 0.02867 0.13643 0.0
C201 C 0.19248 0.0876 0.15301 0.0
C202 C 0.20156 0.00759 0.05708 0.0
C203 C 0.20562 0.93967 0.08818 0.0
N204 N 0.20038 0.06196 0.1232 0.0
N205 N 0.21364 0.96683 0.11572 0.0
H206 H 0.55999 0.68171 0.64269 0.0
H207 H 0.35593 0.70098 0.6287 0.0
H208 H 0.50236 0.66973 0.51851 0.0
H209 H 0.41675 0.69193 0.75051 0.0
H210 H 0.40946 0.70283 0.58489 0.0
H211 H 0.50824 0.7013 0.67933 0.0
C212 C 0.53655 0.68409 0.62253 0.0
C213 C 0.53517 0.67308 0.5774 0.0
C214 C 0.41103 0.70075 0.62123 0.0
C215 C 0.47554 0.69553 0.61965 0.0
C216 C 0.38074 0.69947 0.64586 0.0
C217 C 0.38266 0.69626 0.69268 0.0
C218 C 0.44298 0.69864 0.64406 0.0
C219 C 0.41481 0.6945 0.71426 0.0
C220 C 0.50688 0.69522 0.64371 0.0
C221 C 0.50421 0.67737 0.55325 0.0
N222 N 0.44382 0.6956 0.68972 0.0
N223 N 0.47522 0.68772 0.57489 0.0
H224 H 0.81708 -1e-05 0.00659 0.0
H225 H 0.8035 0.93006 0.23602 0.0
H226 H 0.76795 0.06467 0.10576 0.0
H227 H 0.7648 0.86239 0.13191 0.0
H228 H 0.79231 0.98039 0.18652 0.0
H229 H 0.79589 0.94843 0.04477 0.0
C230 C 0.79978 0.00344 0.03449 0.0
C231 C 0.79409 0.0365 0.05305 0.0
C232 C 0.78603 0.9545 0.17464 0.0
C233 C 0.77222 0.978 0.09859 0.0
C234 C 0.79296 0.92604 0.20246 0.0
C235 C 0.78646 0.89244 0.18675 0.0
C236 C 0.77303 0.949 0.13079 0.0
C237 C 0.77146 0.8881 0.14392 0.0
C238 C 0.78823 0.97396 0.05685 0.0
C239 C 0.77277 0.03945 0.09057 0.0
N240 N 0.76607 0.91607 0.11666 0.0
N241 N 0.76379 0.01047 0.1134 0.0
H242 H 0.42042 0.25322 0.58852 0.0
H243 H 0.56907 0.34054 0.71603 0.0
H244 H 0.43745 0.36339 0.57681 0.0
H245 H 0.59055 0.24152 0.65364 0.0
H246 H 0.51834 0.34754 0.6671 0.0
H247 H 0.48137 0.24508 0.61081 0.0
C248 C 0.43747 0.27537 0.5885 0.0
C249 C 0.42436 0.30892 0.5804 0.0
C250 C 0.53441 0.32447 0.6636 0.0
C251 C 0.4928 0.30019 0.60772 0.0
C252 C 0.56332 0.32056 0.69142 0.0
C253 C 0.58416 0.29074 0.68814 0.0
C254 C 0.52558 0.2978 0.63336 0.0
C255 C 0.57486 0.26481 0.65706 0.0
C256 C 0.47203 0.27081 0.60154 0.0
C257 C 0.44696 0.33707 0.58213 0.0
N258 N 0.54583 0.26866 0.63111 0.0
N259 N 0.47996 0.33221 0.59668 0.0
H260 H 0.65855 0.53069 0.48837 0.0
H261 H 0.70237 0.43201 0.2685 0.0
H262 H 0.71762 0.57583 0.38273 0.0
H263 H 0.68326 0.37475 0.38987 0.0
H264 H 0.70968 0.48487 0.3129 0.0
H265 H 0.67147 0.47268 0.45902 0.0
C266 C 0.67609 0.52821 0.46074 0.0
C267 C 0.68663 0.55786 0.43753 0.0
C268 C 0.70434 0.46074 0.3301 0.0
C269 C 0.70128 0.49207 0.40335 0.0
C270 C 0.70001 0.43072 0.30472 0.0
C271 C 0.69274 0.39922 0.32583 0.0
C272 C 0.70046 0.45949 0.37696 0.0
C273 C 0.68883 0.39879 0.37264 0.0
C274 C 0.68311 0.49512 0.44359 0.0
C275 C 0.7089 0.55349 0.40138 0.0
N276 N 0.69246 0.42869 0.39683 0.0
N277 N 0.71487 0.52113 0.38464 0.0
H278 H 0.93975 0.22072 0.9721 0.0
H279 H 0.05666 0.15272 0.77112 0.0
H280 H 0.92236 0.12586 0.89816 0.0
H281 H 0.09789 0.2217 0.87213 0.0
H282 H 0.00361 0.14807 0.81391 0.0
H283 H -0.00425 0.22642 0.93426 0.0
C284 C 0.94776 0.20116 0.94798 0.0
C285 C 0.92603 0.17345 0.93678 0.0
C286 C 0.02416 0.16429 0.82693 0.0
C287 C -0.01084 0.1796 0.89399 0.0
C288 C 0.05427 0.16686 0.80249 0.0
C289 C 0.08131 0.18726 0.81866 0.0
C290 C 0.02092 0.18275 0.86756 0.0
C291 C 0.0772 0.20578 0.85894 0.0
C292 C 0.97952 0.20438 0.92652 0.0
C293 C 0.93755 0.14842 0.90607 0.0
N294 N 0.04736 0.20318 0.88223 0.0
N295 N 0.96814 0.15222 0.88551 0.0
H296 H 0.26338 0.43108 0.42633 0.0
H297 H 0.29313 0.63084 0.37207 0.0
H298 H 0.34675 0.48901 0.48663 0.0
H299 H 0.26716 0.55245 0.2738 0.0
H300 H 0.2924 0.58619 0.43141 0.0
H301 H 0.24218 0.48444 0.38996 0.0
C302 C 0.27617 0.45543 0.43367 0.0
C303 C 0.30672 0.45591 0.45948 0.0
C304 C 0.28614 0.5791 0.39695 0.0
C305 C 0.2831 0.51634 0.41779 0.0
C306 C 0.28691 0.60426 0.36327 0.0
C307 C 0.28057 0.59491 0.31829 0.0
C308 C 0.27818 0.54474 0.38534 0.0
C309 C 0.27184 0.56054 0.30822 0.0
C310 C 0.26424 0.48567 0.41273 0.0
C311 C 0.32272 0.48785 0.46768 0.0
N312 N 0.27105 0.53653 0.34157 0.0
N313 N 0.31105 0.5169 0.4461 0.0
H314 H 0.00353 0.84758 0.98828 0.0
H315 H 0.86149 0.75454 0.85281 0.0
H316 H 0.04257 0.75392 0.92706 0.0
H317 H 0.91483 0.84195 0.79745 0.0
H318 H 0.90809 0.74782 0.91008 0.0
H319 H 0.94745 0.83749 0.95345 0.0
C320 C -0.00051 0.82326 0.97091 0.0
C321 C 0.02733 0.80093 0.96199 0.0
C322 C 0.90916 0.76853 0.88548 0.0
C323 C 0.964 0.79039 0.91969 0.0
C324 C 0.8829 0.7724 0.85312 0.0
C325 C 0.88418 0.79942 0.82148 0.0
C326 C 0.93626 0.7922 0.88602 0.0
C327 C 0.91233 0.82179 0.82244 0.0
C328 C 0.96772 0.81805 0.9499 0.0
C329 C 0.02143 0.77134 0.93533 0.0
N330 N 0.93726 0.81787 0.85459 0.0
N331 N -0.00955 0.76732 0.91395 0.0
H332 H 0.82617 0.02406 0.93544 0.0
H333 H 0.87311 0.88242 0.7515 0.0
H334 H 0.91951 0.02568 0.85906 0.0
H335 H 0.81074 0.85364 0.86357 0.0
H336 H 0.88615 0.93781 0.78882 0.0
H337 H 0.81688 0.96327 0.91117 0.0
C338 C 0.84549 0.01103 0.91537 0.0
C339 C 0.87409 0.02953 0.90017 0.0
C340 C 0.86954 0.91953 0.80544 0.0
C341 C 0.8627 0.96114 0.87006 0.0
C342 C 0.86192 0.88817 0.78391 0.0
C343 C 0.84093 0.8638 0.80461 0.0
C344 C 0.8553 0.92712 0.84766 0.0
C345 C 0.82704 0.87206 0.84673 0.0
C346 C 0.83989 0.97663 0.90083 0.0
C347 C 0.89735 0.01221 0.87196 0.0
N348 N 0.83422 0.90325 0.86687 0.0
N349 N 0.89096 0.97929 0.85745 0.0
H350 H 0.48969 0.33118 0.47787 0.0
H351 H 0.61992 0.39829 0.28901 0.0
H352 H 0.46881 0.41593 0.38596 0.0
H353 H 0.63787 0.30279 0.36133 0.0
H354 H 0.56642 0.40738 0.33031 0.0
H355 H 0.54674 0.32308 0.44311 0.0
C356 C 0.49729 0.34844 0.45108 0.0
C357 C 0.47434 0.37423 0.43477 0.0
C358 C 0.58191 0.38436 0.3374 0.0
C359 C 0.53905 0.36485 0.39461 0.0
C360 C 0.61236 0.37927 0.31375 0.0
C361 C 0.63298 0.34982 0.32189 0.0
C362 C 0.57199 0.35991 0.36985 0.0
C363 C 0.62228 0.3257 0.3541 0.0
C364 C 0.52965 0.34358 0.43095 0.0
C365 C 0.48545 0.39561 0.39963 0.0
N366 N 0.59249 0.33128 0.37712 0.0
N367 N 0.51671 0.39034 0.38077 0.0
H368 H 0.04879 0.96444 0.87577 0.0
H369 H 0.15639 0.13959 0.87319 0.0
H370 H 0.14954 0.97008 0.93739 0.0
H371 H 0.09945 0.10542 0.75616 0.0
H372 H 0.14505 0.0833 0.90974 0.0
H373 H 0.05711 0.02296 0.84352 0.0
C374 C 0.0722 0.97853 0.88347 0.0
C375 C 0.09806 0.96357 0.91079 0.0
C376 C 0.135 0.08822 0.87608 0.0
C377 C 0.10794 0.02932 0.87396 0.0
C378 C 0.14155 0.12003 0.85542 0.0
C379 C 0.1288 0.12656 0.81196 0.0
C380 C 0.1149 0.06338 0.85328 0.0
C381 C 0.1095 0.10093 0.78987 0.0
C382 C 0.07708 0.01155 0.8649 0.0
C383 C 0.12846 0.98201 0.91869 0.0
N384 N 0.10281 0.07042 0.81093 0.0
N385 N 0.13262 0.01406 0.90058 0.0
H386 H 0.49333 0.66756 0.4457 0.0
H387 H 0.35149 0.58424 0.27973 0.0
H388 H 0.49749 0.56177 0.39826 0.0
H389 H 0.34283 0.68822 0.33253 0.0
H390 H 0.40402 0.57496 0.3254 0.0
H391 H 0.43591 0.67429 0.41107 0.0
C392 C 0.48132 0.6451 0.43056 0.0
C393 C 0.49941 0.61338 0.42767 0.0
C394 C 0.39082 0.5999 0.32706 0.0
C395 C 0.43521 0.62202 0.38306 0.0
C396 C 0.36102 0.60521 0.30075 0.0
C397 C 0.34325 0.63716 0.30196 0.0
C398 C 0.40302 0.62677 0.35516 0.0
C399 C 0.35629 0.6635 0.33001 0.0
C400 C 0.44898 0.6493 0.40919 0.0
C401 C 0.48393 0.5863 0.40287 0.0
N402 N 0.38536 0.65773 0.35554 0.0
N403 N 0.45306 0.59132 0.38128 0.0
H404 H 0.31323 0.48009 0.56205 0.0
H405 H 0.3855 0.62528 0.73185 0.0
H406 H 0.41414 0.47596 0.62432 0.0
H407 H 0.2889 0.63707 0.6601 0.0
H408 H 0.39685 0.57123 0.69051 0.0
H409 H 0.30477 0.53896 0.59274 0.0
C410 C 0.3342 0.49226 0.58048 0.0
C411 C 0.36498 0.47376 0.58914 0.0
C412 C 0.37313 0.58551 0.68359 0.0
C413 C 0.35469 0.54008 0.62701 0.0
C414 C 0.36668 0.61628 0.7073 0.0
C415 C 0.33622 0.63539 0.69936 0.0
C416 C 0.34884 0.57354 0.65165 0.0
C417 C 0.31246 0.62269 0.66746 0.0
C418 C 0.32912 0.52557 0.59881 0.0
C419 C 0.39042 0.48976 0.61583 0.0
N420 N 0.31922 0.59251 0.64476 0.0
N421 N 0.38466 0.52181 0.63399 0.0
H422 H 0.03065 0.82811 0.12862 0.0
H423 H 0.82625 0.84836 0.126 0.0
H424 H 0.97871 0.89831 0.03656 0.0
H425 H 0.884 0.8422 0.25081 0.0
H426 H 0.88043 0.85423 0.08539 0.0
H427 H 0.97526 0.81833 0.1663 0.0
C428 C 0.00738 0.84058 0.11556 0.0
C429 C 0.00892 0.8635 0.07897 0.0
C430 C 0.88114 0.85156 0.1217 0.0
C431 C 0.946 0.85269 0.12169 0.0
C432 C 0.85017 0.84886 0.14499 0.0
C433 C 0.85044 0.8455 0.19203 0.0
C434 C 0.91271 0.84965 0.14542 0.0
C435 C 0.88261 0.84444 0.21453 0.0
C436 C 0.97599 0.83535 0.1373 0.0
C437 C 0.97834 0.87999 0.0642 0.0
N438 N 0.91246 0.84618 0.19105 0.0
N439 N 0.94807 0.87407 0.08533 0.0
H440 H 0.63933 0.48239 0.52934 0.0
H441 H 0.63041 0.37467 0.75675 0.0
H442 H 0.57233 0.51004 0.6385 0.0
H443 H 0.64629 0.3205 0.63182 0.0
H444 H 0.61977 0.4288 0.71454 0.0
H445 H 0.65011 0.42539 0.56525 0.0
C446 C 0.62606 0.47616 0.55992 0.0
C447 C 0.60487 0.50109 0.58082 0.0
C448 C 0.62606 0.40518 0.69632 0.0
C449 C 0.61808 0.43676 0.62286 0.0
C450 C 0.63267 0.37457 0.72046 0.0
C451 C 0.63964 0.34347 0.6976 0.0
C452 C 0.62701 0.4048 0.64897 0.0
C453 C 0.64133 0.34424 0.6504 0.0
C454 C 0.63253 0.4438 0.58071 0.0
C455 C 0.58897 0.49172 0.62121 0.0
N456 N 0.63513 0.37447 0.6275 0.0
N457 N 0.59626 0.46068 0.64114 0.0
H458 H 0.97804 0.04688 0.08293 0.0
H459 H 0.12399 0.17673 0.17685 0.0
H460 H 0.97296 0.15831 0.06859 0.0
H461 H 0.11911 0.06861 0.2137 0.0
H462 H 0.07334 0.16908 0.12741 0.0
H463 H 0.03547 0.05243 0.11884 0.0
C464 C -0.01038 0.07234 0.08578 0.0
C465 C 0.97116 0.10211 0.072 0.0
C466 C 0.08337 0.14694 0.14615 0.0
C467 C 0.03593 0.10892 0.11462 0.0
C468 C 0.11208 0.15143 0.17468 0.0
C469 C 0.12542 0.12339 0.19988 0.0
C470 C 0.06797 0.11402 0.14237 0.0
C471 C 0.10961 0.09087 0.19479 0.0
C472 C 0.0221 0.07561 0.10694 0.0
C473 C -0.01327 0.13466 0.07798 0.0
N474 N 0.08171 0.08708 0.16679 0.0
N475 N 0.01798 0.13724 0.09909 0.0
H476 H 0.11005 0.80542 0.16088 0.0
H477 H 0.26646 0.66861 0.14053 0.0
H478 H 0.15274 0.77693 0.03297 0.0
H479 H 0.21895 0.69977 0.26432 0.0
H480 H 0.22303 0.70373 0.09826 0.0
H481 H 0.14453 0.75953 0.19695 0.0
C482 C 0.1263 0.78888 0.14034 0.0
C483 C 0.12897 0.79495 0.09419 0.0
C484 C 0.22213 0.70288 0.13467 0.0
C485 C 0.17019 0.74373 0.13535 0.0
C486 C 0.24706 0.68327 0.1586 0.0
C487 C 0.24629 0.68206 0.20573 0.0
C488 C 0.19635 0.72103 0.15836 0.0
C489 C 0.22048 0.7007 0.22799 0.0
C490 C 0.14633 0.76293 0.16089 0.0
C491 C 0.15034 0.77294 0.06884 0.0
N492 N 0.19659 0.71934 0.20418 0.0
N493 N 0.17084 0.7487 0.08988 0.0
H494 H 0.67843 0.70429 0.53581 0.0
H495 H 0.79745 0.72358 0.74495 0.0
H496 H 0.74085 0.6193 0.58688 0.0
H497 H 0.79564 0.80899 0.6512 0.0
H498 H 0.77033 0.68676 0.68795 0.0
H499 H 0.7174 0.74551 0.57387 0.0
C500 C 0.70133 0.69438 0.55297 0.0
C501 C 0.70649 0.65835 0.55833 0.0
C502 C 0.77598 0.71351 0.67963 0.0
C503 C 0.7498 0.70496 0.60344 0.0
C504 C 0.79135 0.73452 0.7122 0.0
C505 C 0.79925 0.76915 0.70255 0.0
C506 C 0.76737 0.72737 0.63721 0.0
C507 C 0.78977 0.78242 0.65997 0.0
C508 C 0.72322 0.71789 0.57524 0.0
C509 C 0.73591 0.64687 0.58216 0.0
N510 N 0.77402 0.76153 0.62875 0.0
N511 N 0.75596 0.67002 0.60471 0.0
H512 H 0.8672 0.21328 0.13025 0.0
H513 H 0.6953 0.32685 0.15932 0.0
H514 H 0.78645 0.2123 0.02914 0.0
H515 H 0.75796 0.28482 0.26727 0.0
H516 H 0.73391 0.29845 0.10435 0.0
H517 H 0.83488 0.25711 0.17224 0.0
C518 C 0.84333 0.22361 0.11589 0.0
C519 C 0.82936 0.20939 0.07633 0.0
C520 C 0.73902 0.29539 0.14009 0.0
C521 C 0.79154 0.25811 0.125 0.0
C522 C 0.7169 0.3111 0.17116 0.0
C523 C 0.7234 0.30722 0.21743 0.0
C524 C 0.76798 0.27651 0.15586 0.0
C525 C 0.75204 0.28762 0.23172 0.0
C526 C 0.82462 0.2481 0.14021 0.0
C527 C 0.79802 0.22289 0.05949 0.0
N528 N 0.77339 0.27309 0.20107 0.0
N529 N 0.77967 0.24619 0.08443 0.0
H530 H 0.321 0.27606 0.58876 0.0
H531 H 0.13154 0.23275 0.67165 0.0
H532 H 0.23341 0.34101 0.55332 0.0
H533 H 0.22359 0.21083 0.74999 0.0
H534 H 0.16678 0.26231 0.61543 0.0
H535 H 0.28333 0.23947 0.63362 0.0
C536 C 0.29359 0.28178 0.58902 0.0
C537 C 0.28009 0.31137 0.56727 0.0
C538 C 0.17918 0.25092 0.64491 0.0
C539 C 0.23717 0.2701 0.61869 0.0
C540 C 0.15915 0.23441 0.67701 0.0
C541 C 0.17485 0.21962 0.71538 0.0
C542 C 0.21512 0.25195 0.65101 0.0
C543 C 0.21073 0.22166 0.72054 0.0
C544 C 0.27225 0.26124 0.6151 0.0
C545 C 0.24457 0.31822 0.56954 0.0
N546 N 0.22974 0.23745 0.68862 0.0
N547 N 0.22423 0.29778 0.59506 0.0
H548 H 0.6922 0.65195 0.40476 0.0
H549 H 0.76095 0.84163 0.35089 0.0
H550 H 0.6423 0.74227 0.46161 0.0
H551 H 0.75928 0.75759 0.25493 0.0
H552 H 0.72862 0.80522 0.4039 0.0
H553 H 0.73036 0.68993 0.36309 0.0
C554 C 0.69017 0.67984 0.40965 0.0
C555 C 0.66444 0.69416 0.43674 0.0
C556 C 0.73564 0.79479 0.37136 0.0
C557 C 0.70764 0.73768 0.389 0.0
C558 C 0.754 0.81538 0.34138 0.0
C559 C 0.76333 0.80198 0.29927 0.0
C560 C 0.72707 0.76065 0.35895 0.0
C561 C 0.75341 0.76822 0.28774 0.0
C562 C 0.71162 0.70147 0.38549 0.0
C563 C 0.66209 0.73045 0.44107 0.0
N564 N 0.73604 0.74857 0.31755 0.0
N565 N 0.68352 0.75118 0.41731 0.0
H566 H 0.7738 0.09589 0.86711 0.0
H567 H 0.67052 0.27649 0.85477 0.0
H568 H 0.76851 0.16747 0.97831 0.0
H569 H 0.6738 0.20157 0.74703 0.0
H570 H 0.70002 0.23408 0.90468 0.0
H571 H 0.72788 0.1289 0.82844 0.0
C572 C 0.76167 0.11757 0.88435 0.0
C573 C 0.7746 0.1288 0.92611 0.0
C574 C 0.69412 0.2268 0.8702 0.0
C575 C 0.72385 0.16829 0.88089 0.0
C576 C 0.67768 0.25112 0.84174 0.0
C577 C 0.67039 0.24252 0.79674 0.0
C578 C 0.70321 0.19368 0.85338 0.0
C579 C 0.67933 0.20913 0.78149 0.0
C580 C 0.73598 0.13695 0.86188 0.0
C581 C 0.75881 0.15779 0.94637 0.0
N582 N 0.69543 0.18605 0.80959 0.0
N583 N 0.73487 0.17709 0.92315 0.0
H584 H 0.35973 0.26159 0.38208 0.0
H585 H 0.18718 0.15289 0.37484 0.0
H586 H 0.28346 0.28277 0.48294 0.0
H587 H 0.23651 0.19397 0.25797 0.0
H588 H 0.2261 0.1881 0.42341 0.0
H589 H 0.32048 0.2207 0.34605 0.0
C590 C 0.33501 0.25699 0.39741 0.0
C591 C 0.32474 0.276 0.43541 0.0
C592 C 0.22801 0.1896 0.38712 0.0
C593 C 0.27947 0.22932 0.39381 0.0
C594 C 0.20581 0.16986 0.35964 0.0
C595 C 0.20874 0.17112 0.31266 0.0
C596 C 0.25364 0.20968 0.36707 0.0
C597 C 0.23348 0.19279 0.2941 0.0
C598 C 0.31254 0.23385 0.37656 0.0
C599 C 0.29248 0.26862 0.45393 0.0
N600 N 0.25526 0.21087 0.32132 0.0
N601 N 0.27064 0.24607 0.43259 0.0
H602 H 0.20751 0.78318 1.00096 0.0
H603 H 0.28364 0.77242 0.76169 0.0
H604 H 0.23012 0.87399 0.92278 0.0
H605 H 0.30624 0.69075 0.85689 0.0
H606 H 0.26415 0.80976 0.82315 0.0
H607 H 0.24833 0.74937 0.95615 0.0
C608 C 0.22256 0.79652 0.97612 0.0
C609 C 0.2149 0.8312 0.96479 0.0
C610 C 0.27341 0.78372 0.83085 0.0
C611 C 0.26008 0.79253 0.91209 0.0
C612 C 0.28399 0.76234 0.79572 0.0
C613 C 0.29606 0.72856 0.80445 0.0
C614 C 0.27425 0.77098 0.87516 0.0
C615 C 0.29634 0.7165 0.84899 0.0
C616 C 0.24541 0.77702 0.94991 0.0
C617 C 0.23513 0.84717 0.93225 0.0
N618 N 0.28526 0.73764 0.88285 0.0
N619 N 0.25581 0.82742 0.90574 0.0
loop_
_geom_bond_atom_site_label_1
_geom_bond_atom_site_label_2
_geom_bond_distance
_geom_bond_site_symmetry_2
_ccdc_geom_bond_type
Zn0 O6 1.920 . S
Zn0 O12 1.898 . S
Zn0 O15 1.905 . S
Zn1 O9 1.905 . S
Zn1 O10 1.898 . S
Zn1 O18 1.920 . S
Zn2 O5 2.083 . S
Zn2 O8 2.111 1_554 S
Zn2 O11 2.117 1_554 S
Zn2 O13 2.123 . S
Zn2 O14 2.116 . S
Zn2 O17 2.078 1_554 S
C3 O8 1.166 . S
C3 O9 1.182 . S
C4 O10 1.167 . S
C4 O11 1.299 . S
O5 Zn2 2.083 . S
O5 C19 1.305 . S
O6 Zn0 1.920 . S
O6 C19 1.234 . S
C7 O12 1.167 . S
C7 O13 1.299 . S
O8 Zn2 2.111 1_556 S
O8 C3 1.166 . S
O9 Zn1 1.905 . S
O9 C3 1.182 . S
O10 Zn1 1.898 . S
O10 C4 1.167 . S
O11 Zn2 2.117 1_556 S
O11 C4 1.299 . S
O12 Zn0 1.898 . S
O12 C7 1.167 . S
O13 Zn2 2.123 . S
O13 C7 1.299 . S
O14 Zn2 2.116 . S
O14 C16 1.166 . S
O15 Zn0 1.905 . S
O15 C16 1.182 . S
C16 O14 1.166 . S
C16 O15 1.182 . S
O17 Zn2 2.078 1_556 S
O17 C20 1.305 . S
O18 Zn1 1.920 . S
O18 C20 1.234 . S
C19 O5 1.305 . S
C19 O6 1.234 . S
C20 O17 1.305 . S
C20 O18 1.234 . S
Zn21 O27 1.920 . S
Zn21 O33 1.898 . S
Zn21 O36 1.905 . S
Zn22 O30 1.905 . S
Zn22 O31 1.898 . S
Zn22 O39 1.920 . S
Zn23 O26 2.080 . S
Zn23 O29 2.114 . S
Zn23 O32 2.120 . S
Zn23 O34 2.120 . S
Zn23 O35 2.114 . S
Zn23 O38 2.080 . S
C24 O29 1.166 . S
C24 O30 1.182 . S
C25 O31 1.167 . S
C25 O32 1.299 . S
O26 Zn23 2.080 . S
O26 C40 1.305 . S
O27 Zn21 1.920 . S
O27 C40 1.234 . S
C28 O33 1.167 . S
C28 O34 1.299 . S
O29 Zn23 2.114 . S
O29 C24 1.166 . S
O30 Zn22 1.905 . S
O30 C24 1.182 . S
O31 Zn22 1.898 . S
O31 C25 1.167 . S
O32 Zn23 2.120 . S
O32 C25 1.299 . S
O33 Zn21 1.898 . S
O33 C28 1.167 . S
O34 Zn23 2.120 . S
O34 C28 1.299 . S
O35 Zn23 2.114 . S
O35 C37 1.166 . S
O36 Zn21 1.905 . S
O36 C37 1.182 . S
C37 O35 1.166 . S
C37 O36 1.182 . S
O38 Zn23 2.080 . S
O38 C41 1.305 . S
O39 Zn22 1.920 . S
O39 C41 1.234 . S
C40 O26 1.305 . S
C40 O27 1.234 . S
C41 O38 1.305 . S
C41 O39 1.234 . S
Zn42 O48 1.920 . S
Zn42 O54 1.898 . S
Zn42 O57 1.905 . S
Zn43 O51 1.905 . S
Zn43 O52 1.898 . S
Zn43 O60 1.920 . S
Zn44 O47 2.077 1_554 S
Zn44 O50 2.117 . S
Zn44 O53 2.123 . S
Zn44 O55 2.117 1_554 S
Zn44 O56 2.111 1_554 S
Zn44 O59 2.083 . S
C45 O50 1.166 . S
C45 O51 1.182 . S
C46 O52 1.167 . S
C46 O53 1.299 . S
O47 Zn44 2.077 1_556 S
O47 C61 1.305 . S
O48 Zn42 1.920 . S
O48 C61 1.234 . S
C49 O54 1.167 . S
C49 O55 1.299 . S
O50 Zn44 2.117 . S
O50 C45 1.166 . S
O51 Zn43 1.905 . S
O51 C45 1.182 . S
O52 Zn43 1.898 . S
O52 C46 1.167 . S
O53 Zn44 2.123 . S
O53 C46 1.299 . S
O54 Zn42 1.898 . S
O54 C49 1.167 . S
O55 Zn44 2.117 1_556 S
O55 C49 1.299 . S
O56 Zn44 2.111 1_556 S
O56 C58 1.166 . S
O57 Zn42 1.905 . S
O57 C58 1.182 . S
C58 O56 1.166 . S
C58 O57 1.182 . S
O59 Zn44 2.083 . S
O59 C62 1.305 . S
O60 Zn43 1.920 . S
O60 C62 1.234 . S
C61 O47 1.305 . S
C61 O48 1.234 . S
C62 O59 1.305 . S
C62 O60 1.234 . S
Zn63 O69 1.920 . S
Zn63 O75 1.898 . S
Zn63 O78 1.905 . S
Zn64 O72 1.905 . S
Zn64 O73 1.898 . S
Zn64 O81 1.920 . S
Zn65 O68 2.080 . S
Zn65 O71 2.114 . S
Zn65 O74 2.120 . S
Zn65 O76 2.120 . S
Zn65 O77 2.114 . S
Zn65 O80 2.080 . S
C66 O71 1.166 . S
C66 O72 1.182 . S
C67 O73 1.167 . S
C67 O74 1.299 . S
O68 Zn65 2.080 . S
O68 C82 1.305 . S
O69 Zn63 1.920 . S
O69 C82 1.234 . S
C70 O75 1.167 . S
C70 O76 1.299 . S
O71 Zn65 2.114 . S
O71 C66 1.166 . S
O72 Zn64 1.905 . S
O72 C66 1.182 . S
O73 Zn64 1.898 . S
O73 C67 1.167 . S
O74 Zn65 2.120 . S
O74 C67 1.299 . S
O75 Zn63 1.898 . S
O75 C70 1.167 . S
O76 Zn65 2.120 . S
O76 C70 1.299 . S
O77 Zn65 2.114 . S
O77 C79 1.166 . S
O78 Zn63 1.905 . S
O78 C79 1.182 . S
C79 O77 1.166 . S
C79 O78 1.182 . S
O80 Zn65 2.080 . S
O80 C83 1.305 . S
O81 Zn64 1.920 . S
O81 C83 1.234 . S
C82 O68 1.305 . S
C82 O69 1.234 . S
C83 O80 1.305 . S
C83 O81 1.234 . S
C84 N85 1.317 . S
C84 N86 1.348 . S
C84 C87 1.485 . S
N85 C84 1.317 . S
N85 N89 1.370 . S
N86 C84 1.348 . S
N86 C88 1.346 . S
C87 C84 1.485 . S
C87 H91 0.960 . S
C87 H92 0.961 . S
C87 H93 0.960 . S
C88 N86 1.346 . S
C88 N89 1.307 . S
C88 C90 1.486 . S
N89 N85 1.370 . S
N89 C88 1.307 . S
C90 C88 1.486 . S
C90 H94 0.960 . S
C90 H95 0.960 . S
C90 H96 0.959 . S
H91 C87 0.960 . S
H92 C87 0.961 . S
H93 C87 0.960 . S
H94 C90 0.960 . S
H95 C90 0.960 . S
H96 C90 0.959 . S
C97 N98 1.317 . S
C97 N99 1.348 . S
C97 C100 1.485 . S
N98 C97 1.317 . S
N98 N102 1.370 . S
N99 C97 1.348 . S
N99 C101 1.346 . S
C100 C97 1.485 . S
C100 H104 0.960 . S
C100 H105 0.961 . S
C100 H106 0.960 . S
C101 N99 1.346 . S
C101 N102 1.307 . S
C101 C103 1.486 . S
N102 N98 1.370 . S
N102 C101 1.307 . S
C103 C101 1.486 . S
C103 H107 0.960 . S
C103 H108 0.960 . S
C103 H109 0.959 . S
H104 C100 0.960 . S
H105 C100 0.961 . S
H106 C100 0.960 . S
H107 C103 0.960 . S
H108 C103 0.960 . S
H109 C103 0.959 . S
C110 N111 1.317 . S
C110 N112 1.348 . S
C110 C113 1.485 . S
N111 C110 1.317 . S
N111 N115 1.370 . S
N112 C110 1.348 . S
N112 C114 1.346 . S
C113 C110 1.485 . S
C113 H117 0.960 . S
C113 H118 0.961 . S
C113 H119 0.960 . S
C114 N112 1.346 . S
C114 N115 1.307 . S
C114 C116 1.486 . S
N115 N111 1.370 . S
N115 C114 1.307 . S
C116 C114 1.486 . S
C116 H120 0.960 . S
C116 H121 0.960 . S
C116 H122 0.959 . S
H117 C113 0.960 . S
H118 C113 0.961 . S
H119 C113 0.960 . S
H120 C116 0.960 . S
H121 C116 0.960 . S
H122 C116 0.959 . S
C123 N124 1.317 . S
C123 N125 1.348 . S
C123 C126 1.485 . S
N124 C123 1.317 . S
N124 N128 1.370 . S
N125 C123 1.348 . S
N125 C127 1.346 . S
C126 C123 1.485 . S
C126 H130 0.960 . S
C126 H131 0.961 . S
C126 H132 0.960 . S
C127 N125 1.346 . S
C127 N128 1.307 . S
C127 C129 1.486 . S
N128 N124 1.370 . S
N128 C127 1.307 . S
C129 C127 1.486 . S
C129 H133 0.960 . S
C129 H134 0.960 . S
C129 H135 0.959 . S
H130 C126 0.960 . S
H131 C126 0.961 . S
H132 C126 0.960 . S
H133 C129 0.960 . S
H134 C129 0.960 . S
H135 C129 0.959 . S
C136 N137 1.317 . S
C136 N138 1.348 . S
C136 C139 1.485 . S
N137 C136 1.317 . S
N137 N141 1.370 . S
N138 C136 1.348 . S
N138 C140 1.346 . S
C139 C136 1.485 . S
C139 H143 0.960 . S
C139 H144 0.961 . S
C139 H145 0.960 . S
C140 N138 1.346 . S
C140 N141 1.307 . S
C140 C142 1.486 . S
N141 N137 1.370 . S
N141 C140 1.307 . S
C142 C140 1.486 . S
C142 H146 0.960 . S
C142 H147 0.960 . S
C142 H148 0.959 . S
H143 C139 0.960 . S
H144 C139 0.961 . S
H145 C139 0.960 . S
H146 C142 0.960 . S
H147 C142 0.960 . S
H148 C142 0.959 . S
C149 N150 1.317 . S
C149 N151 1.348 . S
C149 C152 1.485 . S
N150 C149 1.317 . S
N150 N154 1.370 . S
N151 C149 1.348 . S
N151 C153 1.346 . S
C152 C149 1.485 . S
C152 H156 0.960 . S
C152 H157 0.961 . S
C152 H158 0.960 . S
C153 N151 1.346 . S
C153 N154 1.307 . S
C153 C155 1.486 . S
N154 N150 1.370 . S
N154 C153 1.307 . S
C155 C153 1.486 . S
C155 H159 0.960 . S
C155 H160 0.960 . S
C155 H161 0.959 . S
H156 C152 0.960 . S
H157 C152 0.961 . S
H158 C152 0.960 . S
H159 C155 0.960 . S
H160 C155 0.960 . S
H161 C155 0.959 . S
C162 N163 1.317 . S
C162 N164 1.348 . S
C162 C165 1.485 . S
N163 C162 1.317 . S
N163 N167 1.370 . S
N164 C162 1.348 . S
N164 C166 1.346 . S
C165 C162 1.485 . S
C165 H169 0.960 . S
C165 H170 0.961 . S
C165 H171 0.960 . S
C166 N164 1.346 . S
C166 N167 1.307 . S
C166 C168 1.486 . S
N167 N163 1.370 . S
N167 C166 1.307 . S
C168 C166 1.486 . S
C168 H172 0.960 . S
C168 H173 0.960 . S
C168 H174 0.959 . S
H169 C165 0.960 . S
H170 C165 0.961 . S
H171 C165 0.960 . S
H172 C168 0.960 . S
H173 C168 0.960 . S
H174 C168 0.959 . S
C175 N176 1.317 . S
C175 N177 1.348 . S
C175 C178 1.485 . S
N176 C175 1.317 . S
N176 N180 1.370 . S
N177 C175 1.348 . S
N177 C179 1.346 . S
C178 C175 1.485 . S
C178 H182 0.960 . S
C178 H183 0.961 . S
C178 H184 0.960 . S
C179 N177 1.346 . S
C179 N180 1.307 . S
C179 C181 1.486 . S
N180 N176 1.370 . S
N180 C179 1.307 . S
C181 C179 1.486 . S
C181 H185 0.960 . S
C181 H186 0.960 . S
C181 H187 0.959 . S
H182 C178 0.960 . S
H183 C178 0.961 . S
H184 C178 0.960 . S
H185 C181 0.960 . S
H186 C181 0.960 . S
H187 C181 0.959 . S
H188 C194 0.930 . S
H189 C198 0.930 . S
H190 C203 0.929 . S
H191 C201 0.929 . S
H192 C196 0.929 . S
H193 C202 0.929 . S
C194 H188 0.930 . S
C194 C195 1.367 . S
C194 C202 1.378 1_565 S
C195 C194 1.367 . S
C195 C203 1.433 . S
C196 H192 0.929 . S
C196 C198 1.378 . S
C196 C200 1.350 . S
C197 C200 1.463 . S
C197 C202 1.350 . S
C197 N205 1.427 1_545 S
C198 H189 0.930 . S
C198 C196 1.378 . S
C198 C199 1.367 . S
C199 C198 1.367 . S
C199 C201 1.433 . S
C200 C196 1.350 . S
C200 C197 1.463 . S
C200 N204 1.427 . S
C201 H191 0.929 . S
C201 C199 1.433 . S
C201 N204 1.384 . S
C202 H193 0.929 . S
C202 C194 1.378 1_545 S
C202 C197 1.350 . S
C203 H190 0.929 . S
C203 C195 1.433 . S
C203 N205 1.384 . S
N204 C200 1.427 . S
N204 C201 1.384 . S
N205 C197 1.427 1_565 S
N205 C203 1.384 . S
H206 C212 0.930 . S
H207 C216 0.930 . S
H208 C221 0.929 . S
H209 C219 0.929 . S
H210 C214 0.929 . S
H211 C220 0.929 . S
C212 H206 0.930 . S
C212 C213 1.367 . S
C212 C220 1.378 . S
C213 C212 1.367 . S
C213 C221 1.433 . S
C214 H210 0.929 . S
C214 C216 1.378 . S
C214 C218 1.350 . S
C215 C218 1.463 . S
C215 C220 1.350 . S
C215 N223 1.427 . S
C216 H207 0.930 . S
C216 C214 1.378 . S
C216 C217 1.367 . S
C217 C216 1.367 . S
C217 C219 1.433 . S
C218 C214 1.350 . S
C218 C215 1.463 . S
C218 N222 1.427 . S
C219 H209 0.929 . S
C219 C217 1.433 . S
C219 N222 1.384 . S
C220 H211 0.929 . S
C220 C212 1.378 . S
C220 C215 1.350 . S
C221 H208 0.929 . S
C221 C213 1.433 . S
C221 N223 1.384 . S
N222 C218 1.427 . S
N222 C219 1.384 . S
N223 C215 1.427 . S
N223 C221 1.384 . S
H224 C230 0.930 . S
H225 C234 0.930 . S
H226 C239 0.929 . S
H227 C237 0.929 . S
H228 C232 0.929 . S
H229 C238 0.929 . S
C230 H224 0.930 . S
C230 C231 1.367 . S
C230 C238 1.378 1_545 S
C231 C230 1.367 . S
C231 C239 1.433 . S
C232 H228 0.929 . S
C232 C234 1.378 . S
C232 C236 1.350 . S
C233 C236 1.463 . S
C233 C238 1.350 . S
C233 N241 1.427 1_565 S
C234 H225 0.930 . S
C234 C232 1.378 . S
C234 C235 1.367 . S
C235 C234 1.367 . S
C235 C237 1.433 . S
C236 C232 1.350 . S
C236 C233 1.463 . S
C236 N240 1.427 . S
C237 H227 0.929 . S
C237 C235 1.433 . S
C237 N240 1.384 . S
C238 H229 0.929 . S
C238 C230 1.378 1_565 S
C238 C233 1.350 . S
C239 H226 0.929 . S
C239 C231 1.433 . S
C239 N241 1.384 . S
N240 C236 1.427 . S
N240 C237 1.384 . S
N241 C233 1.427 1_545 S
N241 C239 1.384 . S
H242 C248 0.930 . S
H243 C252 0.930 . S
H244 C257 0.929 . S
H245 C255 0.929 . S
H246 C250 0.929 . S
H247 C256 0.929 . S
C248 H242 0.930 . S
C248 C249 1.367 . S
C248 C256 1.378 . S
C249 C248 1.367 . S
C249 C257 1.433 . S
C250 H246 0.929 . S
C250 C252 1.378 . S
C250 C254 1.350 . S
C251 C254 1.463 . S
C251 C256 1.350 . S
C251 N259 1.427 . S
C252 H243 0.930 . S
C252 C250 1.378 . S
C252 C253 1.367 . S
C253 C252 1.367 . S
C253 C255 1.433 . S
C254 C250 1.350 . S
C254 C251 1.463 . S
C254 N258 1.427 . S
C255 H245 0.929 . S
C255 C253 1.433 . S
C255 N258 1.384 . S
C256 H247 0.929 . S
C256 C248 1.378 . S
C256 C251 1.350 . S
C257 H244 0.929 . S
C257 C249 1.433 . S
C257 N259 1.384 . S
N258 C254 1.427 . S
N258 C255 1.384 . S
N259 C251 1.427 . S
N259 C257 1.384 . S
H260 C266 0.930 . S
H261 C270 0.930 . S
H262 C275 0.929 . S
H263 C273 0.929 . S
H264 C268 0.929 . S
H265 C274 0.929 . S
C266 H260 0.930 . S
C266 C267 1.367 . S
C266 C274 1.378 . S
C267 C266 1.367 . S
C267 C275 1.433 . S
C268 H264 0.929 . S
C268 C270 1.378 . S
C268 C272 1.350 . S
C269 C272 1.463 . S
C269 C274 1.350 . S
C269 N277 1.427 . S
C270 H261 0.930 . S
C270 C268 1.378 . S
C270 C271 1.367 . S
C271 C270 1.367 . S
C271 C273 1.433 . S
C272 C268 1.350 . S
C272 C269 1.463 . S
C272 N276 1.427 . S
C273 H263 0.929 . S
C273 C271 1.433 . S
C273 N276 1.384 . S
C274 H265 0.929 . S
C274 C266 1.378 . S
C274 C269 1.350 . S
C275 H262 0.929 . S
C275 C267 1.433 . S
C275 N277 1.384 . S
N276 C272 1.427 . S
N276 C273 1.384 . S
N277 C269 1.427 . S
N277 C275 1.384 . S
H278 C284 0.930 . S
H279 C288 0.930 . S
H280 C293 0.929 . S
H281 C291 0.929 . S
H282 C286 0.929 . S
H283 C292 0.929 1_455 S
C284 H278 0.930 . S
C284 C285 1.367 . S
C284 C292 1.378 . S
C285 C284 1.367 . S
C285 C293 1.433 . S
C286 H282 0.929 . S
C286 C288 1.378 . S
C286 C290 1.350 . S
C287 C290 1.463 . S
C287 C292 1.350 1_455 S
C287 N295 1.427 1_455 S
C288 H279 0.930 . S
C288 C286 1.378 . S
C288 C289 1.367 . S
C289 C288 1.367 . S
C289 C291 1.433 . S
C290 C286 1.350 . S
C290 C287 1.463 . S
C290 N294 1.427 . S
C291 H281 0.929 . S
C291 C289 1.433 . S
C291 N294 1.384 . S
C292 H283 0.929 1_655 S
C292 C284 1.378 . S
C292 C287 1.350 1_655 S
C293 H280 0.929 . S
C293 C285 1.433 . S
C293 N295 1.384 . S
N294 C290 1.427 . S
N294 C291 1.384 . S
N295 C287 1.427 1_655 S
N295 C293 1.384 . S
H296 C302 0.930 . S
H297 C306 0.930 . S
H298 C311 0.929 . S
H299 C309 0.929 . S
H300 C304 0.929 . S
H301 C310 0.929 . S
C302 H296 0.930 . S
C302 C303 1.367 . S
C302 C310 1.378 . S
C303 C302 1.367 . S
C303 C311 1.433 . S
C304 H300 0.929 . S
C304 C306 1.378 . S
C304 C308 1.350 . S
C305 C308 1.463 . S
C305 C310 1.350 . S
C305 N313 1.427 . S
C306 H297 0.930 . S
C306 C304 1.378 . S
C306 C307 1.367 . S
C307 C306 1.367 . S
C307 C309 1.433 . S
C308 C304 1.350 . S
C308 C305 1.463 . S
C308 N312 1.427 . S
C309 H299 0.929 . S
C309 C307 1.433 . S
C309 N312 1.384 . S
C310 H301 0.929 . S
C310 C302 1.378 . S
C310 C305 1.350 . S
C311 H298 0.929 . S
C311 C303 1.433 . S
C311 N313 1.384 . S
N312 C308 1.427 . S
N312 C309 1.384 . S
N313 C305 1.427 . S
N313 C311 1.384 . S
H314 C320 0.930 . S
H315 C324 0.930 . S
H316 C329 0.929 . S
H317 C327 0.929 . S
H318 C322 0.929 . S
H319 C328 0.927 1_655 S
C320 H314 0.930 . S
C320 C321 1.367 . S
C320 C328 1.378 . S
C321 C320 1.367 . S
C321 C329 1.433 . S
C322 H318 0.929 . S
C322 C324 1.378 . S
C322 C326 1.350 . S
C323 C326 1.489 . S
C323 C328 1.339 1_655 S
C323 N331 1.413 1_655 S
C324 H315 0.930 . S
C324 C322 1.378 . S
C324 C325 1.367 . S
C325 C324 1.367 . S
C325 C327 1.433 . S
C326 C322 1.350 . S
C326 C323 1.489 . S
C326 N330 1.427 . S
C327 H317 0.929 . S
C327 C325 1.433 . S
C327 N330 1.384 . S
C328 H319 0.927 1_455 S
C328 C320 1.378 . S
C328 C323 1.339 1_455 S
C329 H316 0.929 . S
C329 C321 1.433 . S
C329 N331 1.384 . S
N330 C326 1.427 . S
N330 C327 1.384 . S
N331 C323 1.413 1_455 S
N331 C329 1.384 . S
H332 C338 0.930 . S
H333 C342 0.930 . S
H334 C347 0.929 . S
H335 C345 0.929 . S
H336 C340 0.929 . S
H337 C346 0.929 . S
C338 H332 0.930 . S
C338 C339 1.367 . S
C338 C346 1.378 1_545 S
C339 C338 1.367 . S
C339 C347 1.433 . S
C340 H336 0.929 . S
C340 C342 1.378 . S
C340 C344 1.350 . S
C341 C344 1.463 . S
C341 C346 1.350 . S
C341 N349 1.427 . S
C342 H333 0.930 . S
C342 C340 1.378 . S
C342 C343 1.367 . S
C343 C342 1.367 . S
C343 C345 1.433 . S
C344 C340 1.350 . S
C344 C341 1.463 . S
C344 N348 1.427 . S
C345 H335 0.929 . S
C345 C343 1.433 . S
C345 N348 1.384 . S
C346 H337 0.929 . S
C346 C338 1.378 1_565 S
C346 C341 1.350 . S
C347 H334 0.929 . S
C347 C339 1.433 . S
C347 N349 1.384 1_545 S
N348 C344 1.427 . S
N348 C345 1.384 . S
N349 C341 1.427 . S
N349 C347 1.384 1_565 S
H350 C356 0.930 . S
H351 C360 0.930 . S
H352 C365 0.929 . S
H353 C363 0.929 . S
H354 C358 0.929 . S
H355 C364 0.929 . S
C356 H350 0.930 . S
C356 C357 1.367 . S
C356 C364 1.378 . S
C357 C356 1.367 . S
C357 C365 1.433 . S
C358 H354 0.929 . S
C358 C360 1.378 . S
C358 C362 1.350 . S
C359 C362 1.463 . S
C359 C364 1.350 . S
C359 N367 1.427 . S
C360 H351 0.930 . S
C360 C358 1.378 . S
C360 C361 1.367 . S
C361 C360 1.367 . S
C361 C363 1.433 . S
C362 C358 1.350 . S
C362 C359 1.463 . S
C362 N366 1.427 . S
C363 H353 0.929 . S
C363 C361 1.433 . S
C363 N366 1.384 . S
C364 H355 0.929 . S
C364 C356 1.378 . S
C364 C359 1.350 . S
C365 H352 0.929 . S
C365 C357 1.433 . S
C365 N367 1.384 . S
N366 C362 1.427 . S
N366 C363 1.384 . S
N367 C359 1.427 . S
N367 C365 1.384 . S
H368 C374 0.930 . S
H369 C378 0.930 . S
H370 C383 0.929 . S
H371 C381 0.929 . S
H372 C376 0.929 . S
H373 C382 0.929 . S
C374 H368 0.930 . S
C374 C375 1.367 . S
C374 C382 1.378 1_565 S
C375 C374 1.367 . S
C375 C383 1.433 1_565 S
C376 H372 0.929 . S
C376 C378 1.378 . S
C376 C380 1.350 . S
C377 C380 1.463 . S
C377 C382 1.350 . S
C377 N385 1.427 . S
C378 H369 0.930 . S
C378 C376 1.378 . S
C378 C379 1.367 . S
C379 C378 1.367 . S
C379 C381 1.433 . S
C380 C376 1.350 . S
C380 C377 1.463 . S
C380 N384 1.427 . S
C381 H371 0.929 . S
C381 C379 1.433 . S
C381 N384 1.384 . S
C382 H373 0.929 . S
C382 C374 1.378 1_545 S
C382 C377 1.350 . S
C383 H370 0.929 . S
C383 C375 1.433 1_545 S
C383 N385 1.384 . S
N384 C380 1.427 . S
N384 C381 1.384 . S
N385 C377 1.427 . S
N385 C383 1.384 . S
H386 C392 0.930 . S
H387 C396 0.930 . S
H388 C401 0.929 . S
H389 C399 0.929 . S
H390 C394 0.929 . S
H391 C400 0.929 . S
C392 H386 0.930 . S
C392 C393 1.367 . S
C392 C400 1.378 . S
C393 C392 1.367 . S
C393 C401 1.433 . S
C394 H390 0.929 . S
C394 C396 1.378 . S
C394 C398 1.350 . S
C395 C398 1.463 . S
C395 C400 1.350 . S
C395 N403 1.427 . S
C396 H387 0.930 . S
C396 C394 1.378 . S
C396 C397 1.367 . S
C397 C396 1.367 . S
C397 C399 1.433 . S
C398 C394 1.350 . S
C398 C395 1.463 . S
C398 N402 1.427 . S
C399 H389 0.929 . S
C399 C397 1.433 . S
C399 N402 1.384 . S
C400 H391 0.929 . S
C400 C392 1.378 . S
C400 C395 1.350 . S
C401 H388 0.929 . S
C401 C393 1.433 . S
C401 N403 1.384 . S
N402 C398 1.427 . S
N402 C399 1.384 . S
N403 C395 1.427 . S
N403 C401 1.384 . S
H404 C410 0.930 . S
H405 C414 0.930 . S
H406 C419 0.929 . S
H407 C417 0.929 . S
H408 C412 0.929 . S
H409 C418 0.929 . S
C410 H404 0.930 . S
C410 C411 1.367 . S
C410 C418 1.378 . S
C411 C410 1.367 . S
C411 C419 1.433 . S
C412 H408 0.929 . S
C412 C414 1.378 . S
C412 C416 1.350 . S
C413 C416 1.463 . S
C413 C418 1.350 . S
C413 N421 1.427 . S
C414 H405 0.930 . S
C414 C412 1.378 . S
C414 C415 1.367 . S
C415 C414 1.367 . S
C415 C417 1.433 . S
C416 C412 1.350 . S
C416 C413 1.463 . S
C416 N420 1.427 . S
C417 H407 0.929 . S
C417 C415 1.433 . S
C417 N420 1.384 . S
C418 H409 0.929 . S
C418 C410 1.378 . S
C418 C413 1.350 . S
C419 H406 0.929 . S
C419 C411 1.433 . S
C419 N421 1.384 . S
N420 C416 1.427 . S
N420 C417 1.384 . S
N421 C413 1.427 . S
N421 C419 1.384 . S
H422 C428 0.930 . S
H423 C432 0.930 . S
H424 C437 0.929 1_455 S
H425 C435 0.929 . S
H426 C430 0.929 . S
H427 C436 0.929 . S
C428 H422 0.930 . S
C428 C429 1.367 . S
C428 C436 1.378 1_455 S
C429 C428 1.367 . S
C429 C437 1.433 1_455 S
C430 H426 0.929 . S
C430 C432 1.378 . S
C430 C434 1.350 . S
C431 C434 1.463 . S
C431 C436 1.350 . S
C431 N439 1.427 . S
C432 H423 0.930 . S
C432 C430 1.378 . S
C432 C433 1.367 . S
C433 C432 1.367 . S
C433 C435 1.433 . S
C434 C430 1.350 . S
C434 C431 1.463 . S
C434 N438 1.427 . S
C435 H425 0.929 . S
C435 C433 1.433 . S
C435 N438 1.384 . S
C436 H427 0.929 . S
C436 C428 1.378 1_655 S
C436 C431 1.350 . S
C437 H424 0.929 1_655 S
C437 C429 1.433 1_655 S
C437 N439 1.384 . S
N438 C434 1.427 . S
N438 C435 1.384 . S
N439 C431 1.427 . S
N439 C437 1.384 . S
H440 C446 0.930 . S
H441 C450 0.930 . S
H442 C455 0.929 . S
H443 C453 0.929 . S
H444 C448 0.929 . S
H445 C454 0.929 . S
C446 H440 0.930 . S
C446 C447 1.367 . S
C446 C454 1.378 . S
C447 C446 1.367 . S
C447 C455 1.433 . S
C448 H444 0.929 . S
C448 C450 1.378 . S
C448 C452 1.350 . S
C449 C452 1.463 . S
C449 C454 1.350 . S
C449 N457 1.427 . S
C450 H441 0.930 . S
C450 C448 1.378 . S
C450 C451 1.367 . S
C451 C450 1.367 . S
C451 C453 1.433 . S
C452 C448 1.350 . S
C452 C449 1.463 . S
C452 N456 1.427 . S
C453 H443 0.929 . S
C453 C451 1.433 . S
C453 N456 1.384 . S
C454 H445 0.929 . S
C454 C446 1.378 . S
C454 C449 1.350 . S
C455 H442 0.929 . S
C455 C447 1.433 . S
C455 N457 1.384 . S
N456 C452 1.427 . S
N456 C453 1.384 . S
N457 C449 1.427 . S
N457 C455 1.384 . S
H458 C464 0.930 . S
H459 C468 0.930 . S
H460 C473 0.929 . S
H461 C471 0.929 . S
H462 C466 0.929 . S
H463 C472 0.929 . S
C464 H458 0.930 . S
C464 C465 1.367 . S
C464 C472 1.378 1_655 S
C465 C464 1.367 . S
C465 C473 1.433 . S
C466 H462 0.929 . S
C466 C468 1.378 . S
C466 C470 1.350 . S
C467 C470 1.463 . S
C467 C472 1.350 . S
C467 N475 1.427 . S
C468 H459 0.930 . S
C468 C466 1.378 . S
C468 C469 1.367 . S
C469 C468 1.367 . S
C469 C471 1.433 . S
C470 C466 1.350 . S
C470 C467 1.463 . S
C470 N474 1.427 . S
C471 H461 0.929 . S
C471 C469 1.433 . S
C471 N474 1.384 . S
C472 H463 0.929 . S
C472 C464 1.378 1_455 S
C472 C467 1.350 . S
C473 H460 0.929 . S
C473 C465 1.433 . S
C473 N475 1.384 1_655 S
N474 C470 1.427 . S
N474 C471 1.384 . S
N475 C467 1.427 . S
N475 C473 1.384 1_455 S
H476 C482 0.930 . S
H477 C486 0.930 . S
H478 C491 0.929 . S
H479 C489 0.929 . S
H480 C484 0.929 . S
H481 C490 0.929 . S
C482 H476 0.930 . S
C482 C483 1.367 . S
C482 C490 1.378 . S
C483 C482 1.367 . S
C483 C491 1.433 . S
C484 H480 0.929 . S
C484 C486 1.378 . S
C484 C488 1.350 . S
C485 C488 1.463 . S
C485 C490 1.350 . S
C485 N493 1.427 . S
C486 H477 0.930 . S
C486 C484 1.378 . S
C486 C487 1.367 . S
C487 C486 1.367 . S
C487 C489 1.433 . S
C488 C484 1.350 . S
C488 C485 1.463 . S
C488 N492 1.427 . S
C489 H479 0.929 . S
C489 C487 1.433 . S
C489 N492 1.384 . S
C490 H481 0.929 . S
C490 C482 1.378 . S
C490 C485 1.350 . S
C491 H478 0.929 . S
C491 C483 1.433 . S
C491 N493 1.384 . S
N492 C488 1.427 . S
N492 C489 1.384 . S
N493 C485 1.427 . S
N493 C491 1.384 . S
H494 C500 0.930 . S
H495 C504 0.930 . S
H496 C509 0.929 . S
H497 C507 0.929 . S
H498 C502 0.929 . S
H499 C508 0.929 . S
C500 H494 0.930 . S
C500 C501 1.367 . S
C500 C508 1.378 . S
C501 C500 1.367 . S
C501 C509 1.433 . S
C502 H498 0.929 . S
C502 C504 1.378 . S
C502 C506 1.350 . S
C503 C506 1.463 . S
C503 C508 1.350 . S
C503 N511 1.427 . S
C504 H495 0.930 . S
C504 C502 1.378 . S
C504 C505 1.367 . S
C505 C504 1.367 . S
C505 C507 1.433 . S
C506 C502 1.350 . S
C506 C503 1.463 . S
C506 N510 1.427 . S
C507 H497 0.929 . S
C507 C505 1.433 . S
C507 N510 1.384 . S
C508 H499 0.929 . S
C508 C500 1.378 . S
C508 C503 1.350 . S
C509 H496 0.929 . S
C509 C501 1.433 . S
C509 N511 1.384 . S
N510 C506 1.427 . S
N510 C507 1.384 . S
N511 C503 1.427 . S
N511 C509 1.384 . S
H512 C518 0.930 . S
H513 C522 0.930 . S
H514 C527 0.929 . S
H515 C525 0.929 . S
H516 C520 0.929 . S
H517 C526 0.929 . S
C518 H512 0.930 . S
C518 C519 1.367 . S
C518 C526 1.378 . S
C519 C518 1.367 . S
C519 C527 1.433 . S
C520 H516 0.929 . S
C520 C522 1.378 . S
C520 C524 1.350 . S
C521 C524 1.463 . S
C521 C526 1.350 . S
C521 N529 1.427 . S
C522 H513 0.930 . S
C522 C520 1.378 . S
C522 C523 1.367 . S
C523 C522 1.367 . S
C523 C525 1.433 . S
C524 C520 1.350 . S
C524 C521 1.463 . S
C524 N528 1.427 . S
C525 H515 0.929 . S
C525 C523 1.433 . S
C525 N528 1.384 . S
C526 H517 0.929 . S
C526 C518 1.378 . S
C526 C521 1.350 . S
C527 H514 0.929 . S
C527 C519 1.433 . S
C527 N529 1.384 . S
N528 C524 1.427 . S
N528 C525 1.384 . S
N529 C521 1.427 . S
N529 C527 1.384 . S
H530 C536 0.930 . S
H531 C540 0.930 . S
H532 C545 0.929 . S
H533 C543 0.929 . S
H534 C538 0.929 . S
H535 C544 0.929 . S
C536 H530 0.930 . S
C536 C537 1.367 . S
C536 C544 1.378 . S
C537 C536 1.367 . S
C537 C545 1.433 . S
C538 H534 0.929 . S
C538 C540 1.378 . S
C538 C542 1.350 . S
C539 C542 1.463 . S
C539 C544 1.350 . S
C539 N547 1.427 . S
C540 H531 0.930 . S
C540 C538 1.378 . S
C540 C541 1.367 . S
C541 C540 1.367 . S
C541 C543 1.433 . S
C542 C538 1.350 . S
C542 C539 1.463 . S
C542 N546 1.427 . S
C543 H533 0.929 . S
C543 C541 1.433 . S
C543 N546 1.384 . S
C544 H535 0.929 . S
C544 C536 1.378 . S
C544 C539 1.350 . S
C545 H532 0.929 . S
C545 C537 1.433 . S
C545 N547 1.384 . S
N546 C542 1.427 . S
N546 C543 1.384 . S
N547 C539 1.427 . S
N547 C545 1.384 . S
H548 C554 0.930 . S
H549 C558 0.930 . S
H550 C563 0.929 . S
H551 C561 0.929 . S
H552 C556 0.929 . S
H553 C562 0.929 . S
C554 H548 0.930 . S
C554 C555 1.367 . S
C554 C562 1.378 . S
C555 C554 1.367 . S
C555 C563 1.433 . S
C556 H552 0.929 . S
C556 C558 1.378 . S
C556 C560 1.350 . S
C557 C560 1.463 . S
C557 C562 1.350 . S
C557 N565 1.427 . S
C558 H549 0.930 . S
C558 C556 1.378 . S
C558 C559 1.367 . S
C559 C558 1.367 . S
C559 C561 1.433 . S
C560 C556 1.350 . S
C560 C557 1.463 . S
C560 N564 1.427 . S
C561 H551 0.929 . S
C561 C559 1.433 . S
C561 N564 1.384 . S
C562 H553 0.929 . S
C562 C554 1.378 . S
C562 C557 1.350 . S
C563 H550 0.929 . S
C563 C555 1.433 . S
C563 N565 1.384 . S
N564 C560 1.427 . S
N564 C561 1.384 . S
N565 C557 1.427 . S
N565 C563 1.384 . S
H566 C572 0.930 . S
H567 C576 0.930 . S
H568 C581 0.929 . S
H569 C579 0.929 . S
H570 C574 0.929 . S
H571 C580 0.929 . S
C572 H566 0.930 . S
C572 C573 1.367 . S
C572 C580 1.378 . S
C573 C572 1.367 . S
C573 C581 1.433 . S
C574 H570 0.929 . S
C574 C576 1.378 . S
C574 C578 1.350 . S
C575 C578 1.463 . S
C575 C580 1.350 . S
C575 N583 1.427 . S
C576 H567 0.930 . S
C576 C574 1.378 . S
C576 C577 1.367 . S
C577 C576 1.367 . S
C577 C579 1.433 . S
C578 C574 1.350 . S
C578 C575 1.463 . S
C578 N582 1.427 . S
C579 H569 0.929 . S
C579 C577 1.433 . S
C579 N582 1.384 . S
C580 H571 0.929 . S
C580 C572 1.378 . S
C580 C575 1.350 . S
C581 H568 0.929 . S
C581 C573 1.433 . S
C581 N583 1.384 . S
N582 C578 1.427 . S
N582 C579 1.384 . S
N583 C575 1.427 . S
N583 C581 1.384 . S
H584 C590 0.930 . S
H585 C594 0.930 . S
H586 C599 0.929 . S
H587 C597 0.929 . S
H588 C592 0.929 . S
H589 C598 0.929 . S
C590 H584 0.930 . S
C590 C591 1.367 . S
C590 C598 1.378 . S
C591 C590 1.367 . S
C591 C599 1.433 . S
C592 H588 0.929 . S
C592 C594 1.378 . S
C592 C596 1.350 . S
C593 C596 1.463 . S
C593 C598 1.350 . S
C593 N601 1.427 . S
C594 H585 0.930 . S
C594 C592 1.378 . S
C594 C595 1.367 . S
C595 C594 1.367 . S
C595 C597 1.433 . S
C596 C592 1.350 . S
C596 C593 1.463 . S
C596 N600 1.427 . S
C597 H587 0.929 . S
C597 C595 1.433 . S
C597 N600 1.384 . S
C598 H589 0.929 . S
C598 C590 1.378 . S
C598 C593 1.350 . S
C599 H586 0.929 . S
C599 C591 1.433 . S
C599 N601 1.384 . S
N600 C596 1.427 . S
N600 C597 1.384 . S
N601 C593 1.427 . S
N601 C599 1.384 . S
H602 C608 0.930 . S
H603 C612 0.930 . S
H604 C617 0.929 . S
H605 C615 0.929 . S
H606 C610 0.929 . S
H607 C616 0.929 . S
C608 H602 0.930 . S
C608 C609 1.367 . S
C608 C616 1.378 . S
C609 C608 1.367 . S
C609 C617 1.433 . S
C610 H606 0.929 . S
C610 C612 1.378 . S
C610 C614 1.350 . S
C611 C614 1.463 . S
C611 C616 1.350 . S
C611 N619 1.427 . S
C612 H603 0.930 . S
C612 C610 1.378 . S
C612 C613 1.367 . S
C613 C612 1.367 . S
C613 C615 1.433 . S
C614 C610 1.350 . S
C614 C611 1.463 . S
C614 N618 1.427 . S
C615 H605 0.929 . S
C615 C613 1.433 . S
C615 N618 1.384 . S
C616 H607 0.929 . S
C616 C608 1.378 . S
C616 C611 1.350 . S
C617 H604 0.929 . S
C617 C609 1.433 . S
C617 N619 1.384 . S
N618 C614 1.427 . S
N618 C615 1.384 . S
N619 C611 1.427 . S
N619 C617 1.384 . S
C195 C7 0.811 . S
C199 N89 0.825 . S
C213 C25 0.780 . S
C217 N102 0.823 . S
C231 C46 0.813 . S
C235 N111 0.824 . S
C253 N128 0.813 . S
C249 C70 0.803 . S
C271 N141 0.826 . S
C267 C28 0.800 . S
C285 C49 0.815 . S
C289 N150 0.818 . S
C303 C67 0.788 . S
C307 N163 0.816 . S
C321 C4 0.788 . S
C325 N180 0.825 . S
C339 C58 1.615 . S
C343 N176 1.722 . S
C361 N137 1.720 . S
C357 C66 1.617 . S
C379 N154 1.730 . S
C375 C3 1.606 . S
C393 C37 1.619 . S
C397 N167 1.730 . S
C415 N98 1.724 . S
C411 C79 1.619 . S
C429 C16 1.609 . S
C433 N115 1.731 . S
C451 N124 1.722 . S
C447 C24 1.618 . S
C469 N85 1.724 . S
C465 C45 1.612 . S
C487 N164 1.384 . S
C483 C19 1.232 . S
C505 N177 1.381 . S
C501 C41 1.247 . S
C519 C62 1.227 . S
C523 N138 1.376 . S
C541 N151 1.382 . S
C537 C82 1.228 . S
C559 N112 1.383 . S
C555 C40 1.229 . S
C573 C61 1.230 . S
C577 N125 1.374 . S
C595 N86 1.377 . S
C591 C83 1.229 . S
C613 N99 1.383 . S
C609 C20 1.255 . S
