# Generated by pormake.
# Topology zzz, (3,6)-cn, num edge types: 1
# Building blocks:
#     Node 0, Type 0, BuildingBlock: KAKCAD_clean_linker_0, # of connection points: 3
#     Node 1, Type 0, BuildingBlock: KAKCAD_clean_linker_0, # of connection points: 3
#     Node 2, Type 0, BuildingBlock: KAKCAD_clean_linker_0, # of connection points: 3
#     Node 3, Type 0, BuildingBlock: KAKCAD_clean_linker_0, # of connection points: 3
#     Node 4, Type 0, BuildingBlock: KAKCAD_clean_linker_0, # of connection points: 3
#     Node 5, Type 0, BuildingBlock: KAKCAD_clean_linker_0, # of connection points: 3
#     Node 6, Type 0, BuildingBlock: KAKCAD_clean_linker_0, # of connection points: 3
#     Node 7, Type 0, BuildingBlock: KAKCAD_clean_linker_0, # of connection points: 3
#     Node 8, Type 1, BuildingBlock: PAMTOO_clean_sbu_0, # of connection points: 6
#     Node 9, Type 1, BuildingBlock: PAMTOO_clean_sbu_0, # of connection points: 6
#     Node 10, Type 1, BuildingBlock: PAMTOO_clean_sbu_0, # of connection points: 6
#     Node 11, Type 1, BuildingBlock: PAMTOO_clean_sbu_0, # of connection points: 6
#     Edge 12, Type (0, 1), BuildingBlock: AJUNOK_clean_linker_0, # of connection points: 2
#     Edge 13, Type (0, 1), BuildingBlock: AJUNOK_clean_linker_0, # of connection points: 2
#     Edge 14, Type (0, 1), BuildingBlock: AJUNOK_clean_linker_0, # of connection points: 2
#     Edge 15, Type (0, 1), BuildingBlock: AJUNOK_clean_linker_0, # of connection points: 2
#     Edge 16, Type (0, 1), BuildingBlock: AJUNOK_clean_linker_0, # of connection points: 2
#     Edge 17, Type (0, 1), BuildingBlock: AJUNOK_clean_linker_0, # of connection points: 2
#     Edge 18, Type (0, 1), BuildingBlock: AJUNOK_clean_linker_0, # of connection points: 2
#     Edge 19, Type (0, 1), BuildingBlock: AJUNOK_clean_linker_0, # of connection points: 2
#     Edge 20, Type (0, 1), BuildingBlock: AJUNOK_clean_linker_0, # of connection points: 2
#     Edge 21, Type (0, 1), BuildingBlock: AJUNOK_clean_linker_0, # of connection points: 2
#     Edge 22, Type (0, 1), BuildingBlock: AJUNOK_clean_linker_0, # of connection points: 2
#     Edge 23, Type (0, 1), BuildingBlock: AJUNOK_clean_linker_0, # of connection points: 2
#     Edge 24, Type (0, 1), BuildingBlock: AJUNOK_clean_linker_0, # of connection points: 2
#     Edge 25, Type (0, 1), BuildingBlock: AJUNOK_clean_linker_0, # of connection points: 2
#     Edge 26, Type (0, 1), BuildingBlock: AJUNOK_clean_linker_0, # of connection points: 2
#     Edge 27, Type (0, 1), BuildingBlock: AJUNOK_clean_linker_0, # of connection points: 2
#     Edge 28, Type (0, 1), BuildingBlock: AJUNOK_clean_linker_0, # of connection points: 2
#     Edge 29, Type (0, 1), BuildingBlock: AJUNOK_clean_linker_0, # of connection points: 2
#     Edge 30, Type (0, 1), BuildingBlock: AJUNOK_clean_linker_0, # of connection points: 2
#     Edge 31, Type (0, 1), BuildingBlock: AJUNOK_clean_linker_0, # of connection points: 2
#     Edge 32, Type (0, 1), BuildingBlock: AJUNOK_clean_linker_0, # of connection points: 2
#     Edge 33, Type (0, 1), BuildingBlock: AJUNOK_clean_linker_0, # of connection points: 2
#     Edge 34, Type (0, 1), BuildingBlock: AJUNOK_clean_linker_0, # of connection points: 2
#     Edge 35, Type (0, 1), BuildingBlock: AJUNOK_clean_linker_0, # of connection points: 2
# Relax obj value: 0.383
# Max RMSD: 0.286
# Mean RMSD: 0.222
data_MOF--net-zzz--node1-PAMTOO_clean_sbu_0--node2-KAKCAD_clean_linker_0--edge1-AJUNOK_clean_linker_0
_symmetry_space_group_name_H-M    P1
_symmetry_Int_Tables_number       1
_symmetry_cell_setting            triclinic
loop_
_symmetry_equiv_pos_as_xyz
'x, y, z'
_cell_length_a     50.803693
_cell_length_b     43.360555
_cell_length_c     16.341506
_cell_angle_alpha  92.15568
_cell_angle_beta   79.932695
_cell_angle_gamma 84.759354
loop_
_atom_site_label
_atom_site_type_symbol
_atom_site_fract_x
_atom_site_fract_y
_atom_site_fract_z
_atom_type_partial_charge
C0 C 0.83858 0.39573 0.20582 0.0
C1 C 0.86226 0.40737 0.16737 0.0
C2 C 0.82307 0.41123 0.27746 0.0
C3 C 0.83149 0.43805 0.31203 0.0
C4 C 0.85511 0.44957 0.27308 0.0
C5 C 0.87027 0.43446 0.20136 0.0
C6 C 0.81582 0.45451 0.38823 0.0
C7 C 0.78882 0.4647 0.39201 0.0
C8 C 0.77443 0.48331 0.46013 0.0
C9 C 0.78738 0.49126 0.52709 0.0
C10 C 0.81458 0.47981 0.5254 0.0
C11 C 0.82849 0.462 0.45466 0.0
C12 C 0.82983 0.48612 0.59393 0.0
C13 C 0.83076 0.51634 0.62695 0.0
C14 C 0.84711 0.46203 0.61715 0.0
C15 C 0.86649 0.46822 0.66501 0.0
C16 C 0.86902 0.49871 0.69285 0.0
C17 C 0.74625 0.49429 0.45498 0.0
C18 C 0.74073 0.52285 0.42042 0.0
C19 C 0.72741 0.47239 0.45763 0.0
C20 C 0.70469 0.47781 0.42044 0.0
C21 C 0.70026 0.5053 0.37969 0.0
C22 C 0.71791 0.52835 0.38331 0.0
C23 C 0.85001 0.52252 0.67638 0.0
H24 H 0.8322 0.37474 0.18073 0.0
H25 H 0.80484 0.40202 0.30677 0.0
H26 H 0.86183 0.47038 0.2981 0.0
H27 H 0.88869 0.44361 0.17331 0.0
H28 H 0.77917 0.4592 0.33976 0.0
H29 H 0.8496 0.45415 0.45045 0.0
H30 H 0.77637 0.5056 0.57995 0.0
H31 H 0.8177 0.53542 0.61078 0.0
H32 H 0.84668 0.43835 0.59411 0.0
H33 H 0.88048 0.44914 0.67612 0.0
H34 H 0.75533 0.53971 0.41512 0.0
H35 H 0.73151 0.44988 0.48192 0.0
H36 H 0.85049 0.54615 0.69942 0.0
H37 H 0.71531 0.54959 0.35156 0.0
H38 H 0.69143 0.45967 0.4191 0.0
C39 C 0.11925 0.77006 0.15864 0.0
C40 C 0.13779 0.78846 0.18563 0.0
C41 C 0.10786 0.74786 0.20942 0.0
C42 C 0.11476 0.74375 0.28816 0.0
C43 C 0.13597 0.7591 0.3099 0.0
C44 C 0.14754 0.78118 0.25865 0.0
C45 C 0.0959 0.72972 0.35262 0.0
C46 C 0.08409 0.70306 0.33355 0.0
C47 C 0.06107 0.69453 0.38555 0.0
C48 C 0.04986 0.71324 0.45822 0.0
C49 C 0.06243 0.73933 0.47995 0.0
C50 C 0.08554 0.74693 0.42729 0.0
C51 C 0.05038 0.7619 0.55015 0.0
C52 C 0.02517 0.77828 0.55075 0.0
C53 C 0.06669 0.7724 0.60448 0.0
C54 C 0.05903 0.80005 0.65314 0.0
C55 C 0.0348 0.81784 0.64889 0.0
C56 C 0.04766 0.66823 0.35589 0.0
C57 C 1.02065 0.67249 0.34607 0.0
C58 C 0.06323 0.64069 0.32242 0.0
C59 C 0.05284 0.61927 0.27386 0.0
C60 C 0.02667 0.62487 0.25748 0.0
C61 C 1.01025 0.65099 0.29713 0.0
C62 C 1.0175 0.80605 0.59947 0.0
H63 H 0.11137 0.77505 0.10258 0.0
H64 H 0.09155 0.73648 0.19082 0.0
H65 H 0.14199 0.75596 0.3697 0.0
H66 H 0.16235 0.79449 0.27975 0.0
H67 H 0.09179 0.69012 0.27485 0.0
H68 H 0.09394 0.76828 0.44072 0.0
H69 H 0.03148 0.70777 0.49692 0.0
H70 H 1.0124 0.77101 0.50854 0.0
H71 H 0.08636 0.76041 0.60446 0.0
H72 H 0.07307 0.8086 0.68922 0.0
H73 H 1.00821 0.69355 0.37067 0.0
H74 H 0.0841 0.63674 0.32915 0.0
H75 H 0.99864 0.81916 0.59516 0.0
H76 H 0.98984 0.65566 0.2865 0.0
H77 H 0.06599 0.59951 0.24372 0.0
C78 C 0.72125 0.08016 0.12763 0.0
C79 C 0.70341 0.10518 0.16719 0.0
C80 C 0.7418 0.0672 0.16619 0.0
C81 C 0.74452 0.07888 0.24512 0.0
C82 C 0.72859 0.10585 0.28046 0.0
C83 C 0.70828 0.11904 0.24149 0.0
C84 C 0.75909 0.05921 0.29763 0.0
C85 C 0.78626 0.04881 0.27314 0.0
C86 C 0.79915 0.02777 0.32039 0.0
C87 C 0.78396 0.01625 0.39236 0.0
C88 C 0.7564 0.02714 0.41779 0.0
C89 C 0.74454 0.04859 0.36979 0.0
C90 C 0.73836 0.01703 0.49229 0.0
C91 C 0.72958 0.98721 0.49297 0.0
C92 C 0.72411 0.0399 0.55097 0.0
C93 C 0.70057 0.03397 0.60423 0.0
C94 C 0.69065 1.00472 0.60185 0.0
C95 C 0.82851 0.01911 0.29154 0.0
C96 C 0.83801 0.99037 0.24918 0.0
C97 C 0.84621 0.04232 0.28938 0.0
C98 C 0.87236 0.03748 0.24309 0.0
C99 C 0.88158 0.0093 0.19713 0.0
C100 C 0.86423 0.98553 0.20238 0.0
C101 C 0.70607 0.9811 0.54727 0.0
H102 H 0.71778 0.06861 0.07113 0.0
H103 H 0.75371 0.04621 0.13833 0.0
H104 H 0.73045 0.11521 0.34139 0.0
H105 H 0.69495 0.13847 0.27293 0.0
H106 H 0.79742 0.05707 0.21677 0.0
H107 H 0.72327 0.05626 0.38718 0.0
H108 H 0.79354 0.99974 0.42877 0.0
H109 H 0.7397 0.9693 0.44732 0.0
H110 H 0.72997 0.06332 0.5507 0.0
H111 H 0.68918 0.05316 0.64286 0.0
H112 H 0.82464 0.97234 0.24798 0.0
H113 H 0.83922 0.06497 0.31969 0.0
H114 H 0.69929 0.95821 0.54375 0.0
H115 H 0.87062 0.96353 0.16782 0.0
H116 H 0.88475 0.0566 0.23927 0.0
C117 C 0.51392 0.69421 0.55552 0.0
C118 C 0.53222 0.66767 0.53201 0.0
C119 C 0.51071 0.71719 0.49903 0.0
C120 C 0.52578 0.71408 0.41809 0.0
C121 C 0.54548 0.68881 0.3966 0.0
C122 C 0.54875 0.66586 0.45306 0.0
C123 C 0.51572 0.73099 0.35102 0.0
C124 C 0.52243 0.76085 0.32978 0.0
C125 C 0.51248 0.77513 0.26346 0.0
C126 C 0.49636 0.759 0.21818 0.0
C127 C 0.48984 0.72923 0.23896 0.0
C128 C 0.49932 0.71568 0.30593 0.0
C129 C 0.47605 0.7102 0.18585 0.0
C130 C 0.45499 0.69345 0.22205 0.0
C131 C 0.48712 0.70427 0.10128 0.0
C132 C 0.47931 0.67975 0.05616 0.0
C133 C 0.46018 0.6609 0.09476 0.0
C134 C 0.51954 0.80617 0.23695 0.0
C135 C 0.49905 0.82961 0.23102 0.0
C136 C 0.54633 0.81112 0.20618 0.0
C137 C 0.55231 0.83819 0.16525 0.0
C138 C 0.53163 0.86091 0.15553 0.0
C139 C 0.50506 0.85682 0.19143 0.0
C140 C 0.44692 0.66919 0.17657 0.0
H141 H 0.50093 0.69626 0.61597 0.0
H142 H 0.49494 0.73605 0.51628 0.0
H143 H 0.5568 0.6855 0.33373 0.0
H144 H 0.56267 0.64551 0.43239 0.0
H145 H 0.53526 0.77276 0.36411 0.0
H146 H 0.49481 0.69235 0.32117 0.0
H147 H 0.48944 0.76932 0.16533 0.0
H148 H 0.44597 0.69786 0.28706 0.0
H149 H 0.50348 0.71674 0.07209 0.0
H150 H 0.48993 0.67396 0.99323 0.0
H151 H 0.47823 0.82626 0.25398 0.0
H152 H 0.56244 0.79327 0.20927 0.0
H153 H 0.43158 0.65562 0.20717 0.0
H154 H 0.48872 0.87384 0.18444 0.0
H155 H 0.57298 0.84084 0.13835 0.0
C156 C 0.20323 0.52564 0.33269 0.0
C157 C 0.17761 0.51592 0.33432 0.0
C158 C 0.22525 0.51018 0.27956 0.0
C159 C 0.2218 0.48501 0.22693 0.0
C160 C 0.19683 0.47283 0.23712 0.0
C161 C 0.17479 0.48833 0.29037 0.0
C162 C 0.24133 0.47809 0.14892 0.0
C163 C 0.26878 0.47728 0.1493 0.0
C164 C 0.28694 0.48202 0.07691 0.0
C165 C 0.27716 0.48703 1.00153 0.0
C166 C 0.24941 0.48563 0.99992 0.0
C167 C 0.23208 0.48061 0.07361 0.0
C168 C 0.23586 0.49344 0.92836 0.0
C169 C 0.22393 0.52394 0.92654 0.0
C170 C 0.22568 0.46955 0.88623 0.0
C171 C 0.20272 0.47559 0.84982 0.0
C172 C 0.18918 0.50562 0.85569 0.0
C173 C 0.31489 0.4854 0.08915 0.0
C174 C 0.32173 0.51504 0.10986 0.0
C175 C 0.33018 0.45936 0.11143 0.0
C176 C 0.35004 0.46285 0.16002 0.0
C177 C 0.35495 0.49249 0.18821 0.0
C178 C 0.3416 0.51855 0.15861 0.0
C179 C 0.2008 0.52992 0.89119 0.0
H180 H 0.20584 0.54692 0.36591 0.0
H181 H 0.24421 0.52025 0.27276 0.0
H182 H 0.19379 0.45325 0.19788 0.0
H183 H 0.15517 0.48019 0.29216 0.0
H184 H 0.27581 0.47556 0.20817 0.0
H185 H 0.21063 0.48201 0.07355 0.0
H186 H 0.29068 0.49238 0.94615 0.0
H187 H 0.23066 0.54269 0.96076 0.0
H188 H 0.23376 0.44569 0.88908 0.0
H189 H 0.19417 0.45626 0.82406 0.0
H190 H 0.30989 0.53553 0.09552 0.0
H191 H 0.32488 0.43626 0.09845 0.0
H192 H 0.19087 0.5533 0.89689 0.0
H193 H 0.34533 0.54174 0.17741 0.0
H194 H 0.35993 0.44226 0.18135 0.0
C195 C 0.90554 0.2452 0.38948 0.0
C196 C 0.91607 0.238 0.46121 0.0
C197 C 0.91704 0.26662 0.33603 0.0
C198 C 0.93897 0.28142 0.35422 0.0
C199 C 0.94681 0.27753 0.43172 0.0
C200 C 0.93558 0.25584 0.48457 0.0
C201 C 0.95762 0.29425 0.287 0.0
C202 C 0.96974 0.32105 0.30177 0.0
C203 C 0.99232 0.32886 0.24661 0.0
C204 C 1.0027 0.30934 0.1745 0.0
C205 C 0.98963 0.28303 0.15682 0.0
C206 C 0.9672 0.27599 0.21366 0.0
C207 C 1.00006 0.25988 0.08598 0.0
C208 C 0.98182 0.24767 0.04078 0.0
C209 C 0.02617 0.24478 0.07621 0.0
C210 C 0.03295 0.21649 0.02894 0.0
C211 C 1.01364 0.20248 0.99159 0.0
C212 C 1.0059 0.35548 0.27331 0.0
C213 C 0.99069 0.38419 0.2969 0.0
C214 C 0.03134 0.35037 0.29573 0.0
C215 C 0.04016 0.37228 0.34768 0.0
C216 C 0.02363 0.3996 0.37851 0.0
C217 C 0.99946 0.406 0.34878 0.0
C218 C 0.98844 0.21931 0.99475 0.0
H219 H 0.89029 0.23203 0.37052 0.0
H220 H 0.91045 0.26935 0.27701 0.0
H221 H 0.96378 0.28845 0.44726 0.0
H222 H 0.94447 0.25063 0.53867 0.0
H223 H 0.96261 0.33482 0.35953 0.0
H224 H 0.95843 0.25455 0.20398 0.0
H225 H 1.02068 0.31448 0.13315 0.0
H226 H 0.96156 0.25885 0.04669 0.0
H227 H 0.04067 0.25352 0.1102 0.0
H228 H 0.05295 0.20488 0.02509 0.0
H229 H 0.97094 0.38865 0.2808 0.0
H230 H 0.04337 0.32837 0.27909 0.0
H231 H 0.97304 0.20959 0.9666 0.0
H232 H 0.98625 0.42679 0.37083 0.0
H233 H 0.05923 0.367 0.36759 0.0
C234 C 0.31579 0.99296 0.50767 0.0
C235 C 0.33813 0.01008 0.4988 0.0
C236 C 0.29381 1.00275 0.4713 0.0
C237 C 0.29424 0.02955 0.42563 0.0
C238 C 0.31463 0.04909 0.42871 0.0
C239 C 0.33653 0.03937 0.46533 0.0
C240 C 0.27936 0.03117 0.35612 0.0
C241 C 0.2518 0.02874 0.36866 0.0
C242 C 0.23885 0.02318 0.30119 0.0
C243 C 0.25432 0.01914 0.21919 0.0
C244 C 0.28241 0.02201 0.20652 0.0
C245 C 0.29421 0.02875 0.27533 0.0
C246 C 0.30166 0.0151 0.12621 0.0
C247 C 0.31821 0.98684 0.11628 0.0
C248 C 0.31041 0.03965 0.07778 0.0
C249 C 0.33575 0.03662 0.02499 0.0
C250 C 0.35318 0.00917 0.02078 0.0
C251 C 0.2095 0.02005 0.32271 0.0
C252 C 0.20078 0.99111 0.34453 0.0
C253 C 0.19163 0.04681 0.34764 0.0
C254 C 0.1663 0.04489 0.397 0.0
C255 C 0.15817 0.01611 0.42336 0.0
C256 C 0.17545 0.98916 0.39409 0.0
C257 C 0.34366 0.984 0.0649 0.0
H258 H 0.31662 0.9704 0.53396 0.0
H259 H 0.27828 0.9873 0.46959 0.0
H260 H 0.3152 0.06996 0.39424 0.0
H261 H 0.35346 0.05313 0.4595 0.0
H262 H 0.24052 0.03005 0.43177 0.0
H263 H 0.31583 0.02958 0.26628 0.0
H264 H 0.24484 0.01342 0.16695 0.0
H265 H 0.31258 0.96785 0.15478 0.0
H266 H 0.29871 0.06207 0.0863 0.0
H267 H 0.34255 0.05657 0.99265 0.0
H268 H 0.21441 0.97019 0.32878 0.0
H269 H 0.19815 0.0695 0.33455 0.0
H270 H 0.35657 0.96258 0.06329 0.0
H271 H 0.1699 0.9666 0.41284 0.0
H272 H 0.15393 0.06621 0.41945 0.0
C273 C 0.49232 0.34461 0.17704 0.0
C274 C 0.50427 0.33961 0.09274 0.0
C275 C 0.49642 0.32216 0.23416 0.0
C276 C 0.51239 0.29409 0.20831 0.0
C277 C 0.52218 0.28779 0.12298 0.0
C278 C 0.51808 0.31031 0.06565 0.0
C279 C 0.52444 0.2762 0.27086 0.0
C280 C 0.51963 0.24532 0.28798 0.0
C281 C 0.53187 0.23005 0.34879 0.0
C282 C 0.54894 0.24583 0.39105 0.0
C283 C 0.55314 0.27681 0.37648 0.0
C284 C 0.54101 0.29152 0.31558 0.0
C285 C 0.56661 0.29551 0.4323 0.0
C286 C 0.56162 0.29184 0.51867 0.0
C287 C 0.58045 0.32065 0.4022 0.0
C288 C 0.5852 0.34407 0.45729 0.0
C289 C 0.57664 0.34237 0.54323 0.0
C290 C 0.52551 0.19884 0.37647 0.0
C291 C 0.49932 0.19417 0.41507 0.0
C292 C 0.54651 0.17575 0.38018 0.0
C293 C 0.54177 0.14951 0.42583 0.0
C294 C 0.51595 0.14591 0.46981 0.0
C295 C 0.49459 0.16798 0.46148 0.0
C296 C 0.56695 0.31492 0.57359 0.0
H297 H 0.48157 0.36684 0.20008 0.0
H298 H 0.4889 0.32775 0.29976 0.0
H299 H 0.53482 0.26654 0.10149 0.0
H300 H 0.52707 0.30547 1.00077 0.0
H301 H 0.50625 0.23354 0.25551 0.0
H302 H 0.54355 0.31566 0.30461 0.0
H303 H 0.55797 0.23428 0.43853 0.0
H304 H 0.55118 0.27279 0.54466 0.0
H305 H 0.58556 0.32359 0.33598 0.0
H306 H 0.59308 0.36482 0.43225 0.0
H307 H 0.48282 0.21177 0.41412 0.0
H308 H 0.56693 0.17888 0.35156 0.0
H309 H 0.56081 0.31278 0.63989 0.0
H310 H 0.47438 0.16557 0.4934 0.0
H311 H 0.55865 0.13296 0.43082 0.0
Dy312 Dy 1.0014 0.01837 0.76119 0.0
Dy313 Dy 0.04383 1.00104 0.88411 0.0
C314 C 0.06427 0.01273 0.69144 0.0
O315 O 1.01553 0.96843 0.72747 0.0
O316 O 0.03124 0.95511 0.84603 0.0
O317 O 0.98972 0.02258 0.6407 0.0
O318 O 0.96004 0.03148 0.75349 0.0
O319 O 1.00347 0.01486 0.96498 0.0
O320 O 0.97987 0.99636 0.87208 0.0
O321 O 0.04239 0.0526 0.88203 0.0
O322 O 1.00373 0.06381 0.82928 0.0
O323 O 0.05217 0.98333 0.99913 0.0
O324 O 0.08409 1.00009 0.91148 0.0
C325 C 0.02361 0.94732 0.77579 0.0
O326 O 0.04134 0.02958 0.69188 0.0
O327 O 0.06713 0.99479 0.75315 0.0
C328 C 0.95344 0.06155 0.64058 0.0
C329 C 0.93168 0.11742 0.58567 0.0
C330 C 0.95693 0.10337 0.54597 0.0
C331 C 0.96775 0.0757 0.57317 0.0
C332 C 0.9278 0.07514 0.6786 0.0
C333 C 0.91706 0.10296 0.65167 0.0
C334 C 0.965 0.03304 0.67289 0.0
C335 C 0.98115 1.00499 0.94884 0.0
C336 C 0.02298 0.07249 0.86678 0.0
C337 C 0.09555 0.95838 0.99124 0.0
C338 C 0.12411 0.90471 0.03506 0.0
C339 C 0.10488 0.9024 0.98334 0.0
C340 C 0.09078 0.92905 0.96137 0.0
C341 C 0.11604 0.96095 0.03767 0.0
C342 C 0.1304 0.93428 0.05894 0.0
C343 C 0.07786 0.98599 0.9802 0.0
H344 H 0.96861 0.11422 0.49503 0.0
H345 H 0.98746 0.06574 0.54215 0.0
H346 H 0.91619 0.06446 0.73001 0.0
H347 H 0.89741 0.11321 0.68244 0.0
H348 H 0.09952 0.87997 0.96415 0.0
H349 H 0.07524 0.92674 0.92455 0.0
H350 H 0.12016 0.98349 0.06037 0.0
H351 H 0.14552 0.93674 0.09732 0.0
Dy352 Dy 0.52059 0.97651 0.74709 0.0
Dy353 Dy 0.52469 0.03149 0.8846 0.0
C354 C 0.51299 0.04727 0.70532 0.0
O355 O 0.56502 0.97525 0.74163 0.0
O356 O 0.56626 0.02278 0.80751 0.0
O357 O 0.53052 0.95477 0.62294 0.0
O358 O 0.50316 0.9348 0.7183 0.0
O359 O 0.53922 0.98897 0.94416 0.0
O360 O 0.52575 0.95161 0.86079 0.0
O361 O 0.48373 0.01595 0.92426 0.0
O362 O 0.47791 0.99727 0.79668 0.0
O363 O 0.52035 0.05239 1.009 0.0
O364 O 0.53268 0.07907 0.90217 0.0
C365 C 0.57836 0.99814 0.76182 0.0
O366 O 0.52446 0.0197 0.67758 0.0
O367 O 0.50481 0.05324 0.78551 0.0
C368 C 0.49095 0.93756 0.58758 0.0
C369 C 0.44222 0.95208 0.53278 0.0
C370 C 0.46344 0.97056 0.51246 0.0
C371 C 0.48763 0.96336 0.53948 0.0
C372 C 0.47063 0.9175 0.60129 0.0
C373 C 0.44629 0.92483 0.57451 0.0
C374 C 0.51208 0.93568 0.63872 0.0
C375 C 0.53506 0.9601 0.92728 0.0
C376 C 0.46797 1.00673 0.87448 0.0
C377 C 0.55303 0.08766 0.01824 0.0
C378 C 0.59998 0.10404 0.07095 0.0
C379 C 0.58866 0.07699 0.09767 0.0
C380 C 0.56546 0.06878 0.07137 0.0
C381 C 0.56382 0.11532 0.99396 0.0
C382 C 0.58722 0.1234 0.01977 0.0
C383 C 0.53023 0.07771 0.98261 0.0
H384 H 0.46066 0.99193 0.48136 0.0
H385 H 0.5028 0.97946 0.5283 0.0
H386 H 0.47273 0.89757 0.63853 0.0
H387 H 0.43017 0.9102 0.59037 0.0
H388 H 0.59828 0.06162 0.13681 0.0
H389 H 0.55775 0.04724 0.09093 0.0
H390 H 0.55454 0.13027 0.95313 0.0
H391 H 0.5955 0.14451 0.99913 0.0
Dy392 Dy 0.54151 0.51259 0.86736 0.0
Dy393 Dy 0.49238 0.49531 0.75878 0.0
C394 C 0.50993 0.45176 0.90541 0.0
O395 O 0.55773 0.4692 0.79106 0.0
O396 O 0.53355 0.4798 0.68869 0.0
O397 O 0.54969 0.53469 0.97949 0.0
O398 O 0.58279 0.51717 0.88161 0.0
O399 O 0.5034 0.54056 0.71129 0.0
O400 O 0.54186 0.54672 0.76625 0.0
O401 O 0.47581 0.53771 0.83949 0.0
O402 O 0.50078 0.52773 0.94091 0.0
O403 O 0.45116 0.49242 0.73989 0.0
O404 O 0.48473 0.47216 0.64746 0.0
C405 C 0.55193 0.46255 0.71795 0.0
O406 O 0.53093 0.46676 0.91213 0.0
O407 O 0.49166 0.46116 0.86073 0.0
C408 C 0.59209 0.52179 0.02154 0.0
C409 C 0.62528 0.51499 0.14446 0.0
C410 C 0.59764 0.5244 0.16732 0.0
C411 C 0.5813 0.52788 0.10672 0.0
C412 C 0.61959 0.51158 0.99893 0.0
C413 C 0.63592 0.50804 0.0596 0.0
C414 C 0.57573 0.53015 0.95671 0.0
C415 C 0.52435 0.55551 0.71862 0.0
C416 C 0.48102 0.54348 0.91403 0.0
C417 C 0.44402 0.48709 0.59786 0.0
C418 C 0.41581 0.49484 0.46263 0.0
C419 C 0.44371 0.49682 0.45138 0.0
C420 C 0.45764 0.49307 0.51811 0.0
C421 C 0.4161 0.48567 0.60935 0.0
C422 C 0.40219 0.48948 0.5428 0.0
C423 C 0.45872 0.4783 0.66634 0.0
H424 H 0.58865 0.52934 0.23215 0.0
H425 H 0.56029 0.53616 0.12666 0.0
H426 H 0.62872 0.50722 0.93401 0.0
H427 H 0.65713 0.50082 0.03978 0.0
H428 H 0.45484 0.50095 0.39061 0.0
H429 H 0.47919 0.49405 0.50657 0.0
H430 H 0.40512 0.4805 0.66945 0.0
H431 H 0.38085 0.48707 0.55359 0.0
Dy432 Dy 1.02222 0.54602 0.7672 0.0
Dy433 Dy 0.023 0.48246 0.86986 0.0
C434 C 0.03177 0.479 0.66902 0.0
O435 O 0.97954 0.53948 0.81995 0.0
O436 O 0.98394 0.48681 0.82239 0.0
O437 O 1.00311 0.57609 0.68769 0.0
O438 O 0.03712 0.59003 0.73756 0.0
O439 O 1.01046 0.52021 0.97058 0.0
O440 O 1.02147 0.56295 0.89775 0.0
O441 O 0.06164 0.50236 0.87683 0.0
O442 O 0.06587 0.52677 0.75413 0.0
O443 O 1.00849 0.45674 0.97563 0.0
O444 O 0.03991 0.43519 0.87828 0.0
C445 C 0.96933 0.51288 0.81561 0.0
O446 O 1.02259 0.50834 0.66926 0.0
O447 O 0.03804 0.46682 0.73635 0.0
C448 C 0.03564 0.60078 0.59976 0.0
C449 C 0.07997 0.59188 0.47169 0.0
C450 C 0.05824 0.57421 0.47043 0.0
C451 C 0.03612 0.5786 0.53447 0.0
C452 C 0.05467 0.62249 0.59127 0.0
C453 C 0.07687 0.61809 0.5269 0.0
C454 C 1.02144 0.59542 0.68339 0.0
C455 C 1.01419 0.5498 0.96798 0.0
C456 C 0.07654 0.51471 0.81524 0.0
C457 C 1.00655 0.40472 0.94181 0.0
C458 C 0.95978 0.37409 0.96352 0.0
C459 C 0.96998 0.38484 0.88525 0.0
C460 C 0.99309 0.40048 0.87476 0.0
C461 C 0.99903 0.38948 0.01493 0.0
C462 C 0.97579 0.37419 0.02583 0.0
C463 C 1.0226 0.431 0.94488 0.0
H464 H 0.05991 0.55425 0.42725 0.0
H465 H 1.02136 0.56194 0.53824 0.0
H466 H 0.05431 0.6402 0.64015 0.0
H467 H 0.09309 0.63266 0.52679 0.0
H468 H 0.95829 0.38473 0.83582 0.0
H469 H 0.99863 0.41212 0.81766 0.0
H470 H 1.00919 0.39256 0.06731 0.0
H471 H 0.96863 0.36641 0.08721 0.0
C472 C 0.13458 0.99677 0.55798 0.0
C473 C 0.13332 0.01452 0.488 0.0
C474 C 0.11227 0.9963 0.62247 0.0
C475 C 0.08745 0.01352 0.62041 0.0
H476 H 0.15325 0.98362 0.56417 0.0
H477 H 0.11472 0.98247 0.67494 0.0
S478 S 0.07282 0.06223 0.44812 0.0
N479 N 0.10465 0.04861 0.41866 0.0
N480 N 0.06286 0.04792 0.53936 0.0
C481 C 0.08574 0.03094 0.54987 0.0
C482 C 0.10856 0.03143 0.48412 0.0
C483 C 0.52296 0.0899 0.50361 0.0
C484 C 0.51213 0.1205 0.52888 0.0
C485 C 0.52219 0.06627 0.56036 0.0
C486 C 0.51082 0.07223 0.64531 0.0
H487 H 0.53253 0.08425 0.43954 0.0
H488 H 0.53129 0.0433 0.53751 0.0
S489 S 0.47919 0.14855 0.74299 0.0
N490 N 0.48919 0.15542 0.6443 0.0
N491 N 0.48765 0.11124 0.75083 0.0
C492 C 0.49925 0.10263 0.6709 0.0
C493 C 0.49992 0.12665 0.61285 0.0
C494 C 0.39656 0.47819 0.24989 0.0
C495 C 0.37152 0.49581 0.25515 0.0
C496 C 0.41113 0.47882 0.31579 0.0
C497 C 0.40114 0.49675 0.39046 0.0
H498 H 0.40481 0.46343 0.19471 0.0
H499 H 0.42998 0.46432 0.30923 0.0
S500 S 0.33701 0.54781 0.43545 0.0
N501 N 0.33769 0.53219 0.3413 0.0
N502 N 0.36512 0.53365 0.46386 0.0
C503 C 0.37645 0.515 0.39575 0.0
C504 C 0.36169 0.51451 0.32858 0.0
C505 C 0.02609 0.45212 0.4477 0.0
C506 C 0.02957 0.41953 0.44863 0.0
C507 C 0.02797 0.47117 0.51775 0.0
C508 C 0.03331 0.45848 0.59213 0.0
H509 H 1.02125 0.46303 0.3929 0.0
H510 H 0.02448 0.49606 0.51407 0.0
S511 S 0.04425 0.37433 0.62682 0.0
N512 N 0.03881 0.37542 0.5303 0.0
N513 N 0.04274 0.41086 0.66084 0.0
C514 C 0.0377 0.42587 0.59282 0.0
C515 C 0.03574 0.40653 0.52154 0.0
C516 C 0.90935 0.99461 0.05503 0.0
C517 C 0.908 1.006 0.13769 0.0
C518 C 0.93309 0.99391 0.99555 0.0
C519 C 0.95678 1.00446 0.01565 0.0
H520 H 0.89161 0.98705 0.03517 0.0
H521 H 0.93261 0.98546 0.93267 0.0
S522 S 0.96469 0.03422 0.22539 0.0
N523 N 0.93309 0.02634 0.23786 0.0
N524 N 0.97754 0.02522 0.12649 0.0
C525 C 0.95597 0.01507 0.09884 0.0
C526 C 0.93169 0.01583 0.15949 0.0
C527 C 0.52784 0.91782 0.12817 0.0
C528 C 0.53695 0.88693 0.09997 0.0
C529 C 0.52917 0.94203 0.07292 0.0
C530 C 0.53901 0.936 0.98727 0.0
H531 H 0.51887 0.92312 0.19291 0.0
H532 H 0.52094 0.96523 0.09655 0.0
S533 S 0.56658 0.85953 0.88284 0.0
N534 N 0.55748 0.85208 0.98157 0.0
N535 N 0.55942 0.89726 0.87789 0.0
C536 C 0.54911 0.90545 0.95906 0.0
C537 C 0.54822 0.881 0.01534 0.0
C538 C 0.67913 0.48379 0.2647 0.0
C539 C 0.67965 0.50793 0.32446 0.0
C540 C 0.6614 0.48618 0.20766 0.0
C541 C 0.64316 0.51268 0.20825 0.0
H542 H 0.69307 0.4631 0.26051 0.0
H543 H 0.66203 0.46706 0.1625 0.0
S544 S 0.63574 0.58215 0.35373 0.0
N545 N 0.65983 0.55896 0.38198 0.0
N546 N 0.62655 0.56357 0.27485 0.0
C547 C 0.64311 0.53682 0.26867 0.0
C548 C 0.66136 0.53446 0.32645 0.0
C549 C 1.02237 0.57315 0.1882 0.0
C550 C 1.0184 0.60578 0.19034 0.0
C551 C 1.01924 0.55496 0.11806 0.0
C552 C 1.01251 0.56876 0.04683 0.0
H553 H 0.02889 0.56166 0.24 0.0
H554 H 0.0236 0.53003 0.11798 0.0
S555 S 0.99805 0.65313 0.02311 0.0
N556 N 1.00584 0.65096 0.11677 0.0
N557 N 0.99997 0.61697 0.98553 0.0
C558 C 1.00721 0.60128 0.0499 0.0
C559 C 1.01013 0.61972 0.12146 0.0
C560 C 0.9167 0.18078 0.44422 0.0
C561 C 0.91241 0.20761 0.49806 0.0
C562 C 0.92117 0.15137 0.4741 0.0
C563 C 0.9214 0.14765 0.55889 0.0
H564 H 0.91877 0.18258 0.3775 0.0
H565 H 0.92592 0.13153 0.42989 0.0
S566 S 0.90727 0.20977 0.72735 0.0
N567 N 0.90536 0.22817 0.64155 0.0
N568 N 0.91423 0.17263 0.69779 0.0
C569 C 0.91495 0.17387 0.61447 0.0
C570 C 0.91037 0.20394 0.58399 0.0
C571 C 0.36866 0.98203 0.58192 0.0
C572 C 0.3645 0.99466 0.5069 0.0
C573 C 0.39368 0.96688 0.58871 0.0
C574 C 0.4151 0.96375 0.52048 0.0
H575 H 0.35269 0.98444 0.63586 0.0
H576 H 0.39655 0.95856 0.64852 0.0
S577 S 0.41291 0.98876 0.30729 0.0
N578 N 0.38272 1.00029 0.36089 0.0
N579 N 0.42972 0.97176 0.37387 0.0
C580 C 0.41072 0.97502 0.44421 0.0
C581 C 0.38539 0.99049 0.43737 0.0
C582 C 0.59181 0.3916 0.5984 0.0
C583 C 0.57174 0.37125 0.59734 0.0
C584 C 0.5858 0.42105 0.64033 0.0
C585 C 0.55947 0.43103 0.68034 0.0
H586 H 0.61204 0.38496 0.56516 0.0
H587 H 0.6015 0.43642 0.63891 0.0
S588 S 0.49994 0.38672 0.69686 0.0
N589 N 0.52463 0.36333 0.64153 0.0
N590 N 0.5136 0.41835 0.71907 0.0
C591 C 0.53953 0.4107 0.68129 0.0
C592 C 0.54559 0.38086 0.64002 0.0
C593 C 0.13452 0.54518 0.31978 0.0
C594 C 0.15369 0.53706 0.36983 0.0
C595 C 0.1115 0.56508 0.35106 0.0
C596 C 0.10696 0.57768 0.43322 0.0
H597 H 0.13721 0.5358 0.25613 0.0
H598 H 0.09665 0.56964 0.31186 0.0
S599 S 0.15146 0.56396 0.58886 0.0
N600 N 0.16722 0.54358 0.50422 0.0
N601 N 0.12369 0.58085 0.56404 0.0
C602 C 0.12648 0.57054 0.48307 0.0
C603 C 0.14992 0.55024 0.45109 0.0
C604 C 0.1464 0.82037 0.06067 0.0
C605 C 0.14178 0.81865 0.14775 0.0
C606 C 0.14275 0.84881 0.02392 0.0
C607 C 0.13433 0.8765 0.07298 0.0
H608 H 0.15129 0.79936 0.02079 0.0
H609 H 0.14509 0.84889 0.95675 0.0
S610 S 0.12108 0.88478 0.30382 0.0
N611 N 0.12985 0.84741 0.28194 0.0
N612 N 0.12299 0.90063 0.21304 0.0
C613 C 0.13148 0.87537 0.15997 0.0
C614 C 0.13522 0.84649 0.19732 0.0
C615 C 0.65352 0.11142 0.20167 0.0
C616 C 0.67699 0.11195 0.14156 0.0
C617 C 0.62837 0.11078 0.17849 0.0
C618 C 0.62571 0.11085 0.09446 0.0
H619 H 0.65473 0.10938 0.26681 0.0
H620 H 0.61102 0.10878 0.22638 0.0
S621 S 0.68027 0.11591 0.91381 0.0
N622 N 0.69558 0.11555 0.99509 0.0
N623 N 0.64809 0.11418 0.95135 0.0
C624 C 0.64864 0.11354 0.0341 0.0
C625 C 0.67435 0.11405 0.05769 0.0
C626 C 0.45665 0.62758 0.96892 0.0
C627 C 0.45786 0.63022 0.0543 0.0
C628 C 0.4614 0.59863 0.92477 0.0
C629 C 0.46779 0.57143 0.96447 0.0
H630 H 0.45366 0.64822 0.93496 0.0
H631 H 0.46231 0.59797 0.85797 0.0
S632 S 0.46945 0.56503 0.18915 0.0
N633 N 0.46294 0.60252 0.17845 0.0
N634 N 0.47148 0.54829 0.09557 0.0
C635 C 0.4666 0.5734 0.05105 0.0
C636 C 0.46172 0.60277 0.09602 0.0
C637 C 0.8888 0.40775 0.02533 0.0
C638 C 0.88032 0.39096 0.09525 0.0
C639 C 0.91337 0.39898 0.97298 0.0
C640 C 0.93034 0.37323 0.98948 0.0
H641 H 0.8779 0.42971 0.01662 0.0
H642 H 0.92046 0.41489 0.92643 0.0
S643 S 0.91276 0.31632 0.14832 0.0
N644 N 0.88728 0.34366 0.16675 0.0
N645 N 0.93354 0.3267 0.06693 0.0
C646 C 0.91983 0.35346 0.05054 0.0
C647 C 0.89475 0.3625 0.10409 0.0
C648 C 1.00876 0.16085 0.88372 0.0
C649 C 1.01846 0.16952 0.95628 0.0
C650 C 1.01046 0.12959 0.85468 0.0
C651 C 1.02229 0.10563 0.89619 0.0
H652 H 0.99945 0.17835 0.84941 0.0
H653 H 1.00242 0.12418 0.79923 0.0
S654 S 0.04957 0.11523 0.09115 0.0
N655 N 0.03926 0.15086 0.07081 0.0
N656 N 0.04332 0.09264 0.01473 0.0
C657 C 0.03239 0.11392 0.96805 0.0
C658 C 0.03031 0.14565 0.99832 0.0
C659 C 0.40247 1.00179 0.02773 0.0
C660 C 0.3822 0.00798 0.97999 0.0
C661 C 0.4299 1.00158 0.99301 0.0
C662 C 0.43851 1.00683 0.9083 0.0
H663 H 0.39704 0.99761 0.0932 0.0
H664 H 0.44455 0.99699 0.03303 0.0
S665 S 0.3936 0.02395 0.75575 0.0
N666 N 0.37273 0.01977 0.84338 0.0
N667 N 0.42421 0.01834 0.7774 0.0
C668 C 0.41847 0.01261 0.85941 0.0
C669 C 0.39042 0.01353 0.8954 0.0
C670 C 0.48196 0.3862 0.03339 0.0
C671 C 0.50525 0.36624 0.0369 0.0
C672 C 0.48326 0.41333 0.98832 0.0
C673 C 0.508 0.42187 0.94692 0.0
H674 H 0.46264 0.38105 0.06676 0.0
H675 H 0.46495 0.42824 0.98845 0.0
S676 S 0.57464 0.37709 0.93316 0.0
N677 N 0.55364 0.35668 0.99202 0.0
N678 N 0.55603 0.40727 0.90813 0.0
C679 C 0.53125 0.4017 0.94808 0.0
C680 C 0.5299 0.37402 0.99279 0.0
C681 C 0.14028 0.52381 0.90225 0.0
C682 C 0.16106 0.51064 0.83847 0.0
C683 C 0.1132 0.52583 0.89276 0.0
C684 C 0.10563 0.51554 0.81832 0.0
H685 H 0.14488 0.53148 0.96156 0.0
H686 H 0.09795 0.53512 0.94489 0.0
S687 S 0.15198 0.48003 0.63104 0.0
N688 N 0.17201 0.48745 0.69741 0.0
N689 N 0.12115 0.49225 0.67881 0.0
C690 C 0.12615 0.50331 0.75285 0.0
C691 C 0.1538 0.50054 0.76318 0.0
C692 C 1.02244 0.87468 0.63796 0.0
C693 C 0.02945 0.85022 0.68673 0.0
C694 C 1.02016 0.90573 0.66796 0.0
C695 C 0.02477 0.91386 0.74825 0.0
H696 H 1.01961 0.86989 0.5747 0.0
H697 H 1.01531 0.92352 0.62668 0.0
S698 S 0.04119 0.85826 0.90404 0.0
N699 N 0.03921 0.83603 0.82148 0.0
N700 N 0.03493 0.89429 0.8782 0.0
C701 C 0.03091 0.88951 0.79886 0.0
C702 C 0.03328 0.8578 0.76805 0.0
C703 C 0.64526 0.98397 0.61009 0.0
C704 C 0.66305 1.00016 0.64894 0.0
C705 C 0.61834 0.9824 0.64834 0.0
C706 C 0.60773 0.99731 0.72683 0.0
H707 H 0.65182 0.97339 0.54792 0.0
H708 H 0.60543 0.97046 0.61439 0.0
S709 S 0.64631 0.03908 0.86096 0.0
N710 N 0.66845 0.02833 0.77577 0.0
N711 N 0.61779 0.02645 0.84547 0.0
C712 C 0.62544 0.01253 0.76796 0.0
C713 C 0.653 0.01369 0.7297 0.0
C714 C 0.50622 0.62893 0.61231 0.0
C715 C 0.53117 0.64015 0.58417 0.0
C716 C 0.50439 0.60166 0.65546 0.0
C717 C 0.52741 0.58448 0.67326 0.0
H718 H 0.48791 0.64089 0.59893 0.0
H719 H 0.48466 0.59404 0.67518 0.0
S720 S 0.59759 0.60421 0.6151 0.0
N721 N 0.57946 0.63221 0.57829 0.0
N722 N 0.57604 0.58101 0.66027 0.0
C723 C 0.5525 0.59569 0.64689 0.0
C724 C 0.55438 0.6234 0.60194 0.0
C725 C 0.9024 0.48416 0.78716 0.0
C726 C 0.89267 0.50525 0.73285 0.0
C727 C 0.92668 0.48726 0.81581 0.0
C728 C 0.94209 0.51198 0.79313 0.0
H729 H 0.89149 0.46457 0.80633 0.0
H730 H 0.93363 0.46984 0.85509 0.0
S731 S 0.92606 0.57367 0.65274 0.0
N732 N 0.90107 0.55165 0.65708 0.0
N733 N 0.94568 0.55822 0.71398 0.0
C734 C 0.93217 0.5339 0.74162 0.0
C735 C 0.90775 0.53041 0.71097 0.0
loop_
_geom_bond_atom_site_label_1
_geom_bond_atom_site_label_2
_geom_bond_distance
_geom_bond_site_symmetry_2
_ccdc_geom_bond_type
C0 C1 1.386 . S
C0 C2 1.397 . S
C0 H24 0.931 . S
C1 C0 1.386 . S
C1 C5 1.397 . S
C2 C0 1.397 . S
C2 C3 1.384 . S
C2 H25 0.930 . S
C3 C2 1.384 . S
C3 C4 1.377 . S
C3 C6 1.481 . S
C4 C3 1.377 . S
C4 C5 1.389 . S
C4 H26 0.929 . S
C5 C1 1.397 . S
C5 C4 1.389 . S
C5 H27 0.931 . S
C6 C3 1.481 . S
C6 C7 1.387 . S
C6 C11 1.390 . S
C7 C6 1.387 . S
C7 C8 1.401 . S
C7 H28 0.930 . S
C8 C7 1.401 . S
C8 C9 1.376 . S
C8 C17 1.511 . S
C9 C8 1.376 . S
C9 C10 1.392 . S
C9 H30 0.931 . S
C10 C9 1.392 . S
C10 C11 1.361 . S
C10 C12 1.500 . S
C11 C6 1.390 . S
C11 C10 1.361 . S
C11 H29 0.931 . S
C12 C10 1.500 . S
C12 C13 1.371 . S
C12 C14 1.365 . S
C13 C12 1.371 . S
C13 C23 1.386 . S
C13 H31 0.931 . S
C14 C12 1.365 . S
C14 C15 1.409 . S
C14 H32 0.929 . S
C15 C14 1.409 . S
C15 C16 1.380 . S
C15 H33 0.930 . S
C16 C15 1.380 . S
C16 C23 1.357 . S
C17 C8 1.511 . S
C17 C18 1.341 . S
C17 C19 1.371 . S
C18 C17 1.341 . S
C18 C22 1.394 . S
C18 H34 0.930 . S
C19 C17 1.371 . S
C19 C20 1.392 . S
C19 H35 0.931 . S
C20 C19 1.392 . S
C20 C21 1.331 . S
C20 H38 0.932 . S
C21 C20 1.331 . S
C21 C22 1.336 . S
C22 C18 1.394 . S
C22 C21 1.336 . S
C22 H37 0.929 . S
C23 C13 1.386 . S
C23 C16 1.357 . S
C23 H36 0.928 . S
H24 C0 0.931 . S
H25 C2 0.930 . S
H26 C4 0.929 . S
H27 C5 0.931 . S
H28 C7 0.930 . S
H29 C11 0.931 . S
H30 C9 0.931 . S
H31 C13 0.931 . S
H32 C14 0.929 . S
H33 C15 0.930 . S
H34 C18 0.930 . S
H35 C19 0.931 . S
H36 C23 0.928 . S
H37 C22 0.929 . S
H38 C20 0.932 . S
C39 C40 1.396 . S
C39 C41 1.397 . S
C39 H63 0.931 . S
C40 C39 1.396 . S
C40 C44 1.387 1_655 S
C41 C39 1.397 . S
C41 C42 1.390 . S
C41 H64 0.930 . S
C42 C41 1.390 . S
C42 C43 1.372 1_655 S
C42 C45 1.482 . S
C43 C42 1.372 1_455 S
C43 C44 1.389 . S
C43 H65 0.929 . S
C44 C40 1.387 1_455 S
C44 C43 1.389 . S
C44 H66 0.931 . S
C45 C42 1.482 . S
C45 C46 1.393 . S
C45 C50 1.386 . S
C46 C45 1.393 . S
C46 C47 1.404 . S
C46 H67 0.930 . S
C47 C46 1.404 . S
C47 C48 1.370 . S
C47 C56 1.518 . S
C48 C47 1.370 . S
C48 C49 1.393 . S
C48 H69 0.931 . S
C49 C48 1.393 . S
C49 C50 1.361 . S
C49 C51 1.494 1_655 S
C50 C45 1.386 . S
C50 C49 1.361 . S
C50 H68 0.930 . S
C51 C49 1.494 1_455 S
C51 C52 1.363 1_455 S
C51 C53 1.378 . S
C52 C51 1.363 1_655 S
C52 C62 1.386 . S
C52 H70 0.931 . S
C53 C51 1.378 . S
C53 C54 1.409 . S
C53 H71 0.929 . S
C54 C53 1.409 . S
C54 C55 1.380 . S
C54 H72 0.930 . S
C55 C54 1.380 . S
C55 C62 1.358 1_455 S
C56 C47 1.518 . S
C56 C57 1.341 . S
C56 C58 1.371 1_655 S
C57 C56 1.341 . S
C57 C61 1.394 . S
C57 H73 0.930 . S
C58 C56 1.371 1_455 S
C58 C59 1.392 . S
C58 H74 0.931 . S
C59 C58 1.392 . S
C59 C60 1.317 1_455 S
C59 H77 0.932 . S
C60 C59 1.317 1_655 S
C60 C61 1.346 . S
C61 C57 1.394 . S
C61 C60 1.346 . S
C61 H76 0.929 . S
C62 C52 1.386 . S
C62 C55 1.358 1_655 S
C62 H75 0.928 . S
H63 C39 0.931 . S
H64 C41 0.930 . S
H65 C43 0.929 . S
H66 C44 0.931 . S
H67 C46 0.930 . S
H68 C50 0.930 . S
H69 C48 0.931 . S
H70 C52 0.931 . S
H71 C53 0.929 . S
H72 C54 0.930 . S
H73 C57 0.930 . S
H74 C58 0.931 . S
H75 C62 0.928 . S
H76 C61 0.929 . S
H77 C59 0.932 . S
C78 C79 1.393 . S
C78 C80 1.397 . S
C78 H102 0.931 . S
C79 C78 1.393 . S
C79 C83 1.389 1_565 S
C80 C78 1.397 . S
C80 C81 1.388 . S
C80 H103 0.930 . S
C81 C80 1.388 . S
C81 C82 1.373 1_565 S
C81 C84 1.481 . S
C82 C81 1.373 1_545 S
C82 C83 1.389 . S
C82 H104 0.929 . S
C83 C79 1.389 1_545 S
C83 C82 1.389 . S
C83 H105 0.931 . S
C84 C81 1.481 . S
C84 C85 1.384 . S
C84 C89 1.392 . S
C85 C84 1.384 . S
C85 C86 1.403 . S
C85 H106 0.930 . S
C86 C85 1.403 . S
C86 C87 1.380 . S
C86 C95 1.509 . S
C87 C86 1.380 . S
C87 C88 1.392 . S
C87 H108 0.931 . S
C88 C87 1.392 . S
C88 C89 1.361 . S
C88 C90 1.502 1_565 S
C89 C84 1.392 . S
C89 C88 1.361 . S
C89 H107 0.932 . S
C90 C88 1.502 1_545 S
C90 C91 1.361 1_545 S
C90 C92 1.373 . S
C91 C90 1.361 1_565 S
C91 C101 1.386 . S
C91 H109 0.931 . S
C92 C90 1.373 . S
C92 C93 1.409 . S
C92 H110 0.929 . S
C93 C92 1.409 . S
C93 C94 1.380 . S
C93 H111 0.930 . S
C94 C93 1.380 . S
C94 C101 1.357 1_545 S
C95 C86 1.509 . S
C95 C96 1.341 . S
C95 C97 1.371 1_565 S
C96 C95 1.341 . S
C96 C100 1.394 . S
C96 H112 0.930 . S
C97 C95 1.371 1_545 S
C97 C98 1.392 . S
C97 H113 0.931 . S
C98 C97 1.392 . S
C98 C99 1.325 1_545 S
C98 H116 0.932 . S
C99 C98 1.325 1_565 S
C99 C100 1.346 . S
C100 C96 1.394 . S
C100 C99 1.346 . S
C100 H115 0.929 . S
C101 C91 1.386 . S
C101 C94 1.357 1_565 S
C101 H114 0.928 . S
H102 C78 0.931 . S
H103 C80 0.930 . S
H104 C82 0.929 . S
H105 C83 0.931 . S
H106 C85 0.930 . S
H107 C89 0.932 . S
H108 C87 0.931 . S
H109 C91 0.931 . S
H110 C92 0.929 . S
H111 C93 0.930 . S
H112 C96 0.930 . S
H113 C97 0.931 . S
H114 C101 0.928 . S
H115 C100 0.929 . S
H116 C98 0.932 . S
C117 C118 1.386 . S
C117 C119 1.397 . S
C117 H141 0.931 . S
C118 C117 1.386 . S
C118 C122 1.397 . S
C119 C117 1.397 . S
C119 C120 1.384 . S
C119 H142 0.930 . S
C120 C119 1.384 . S
C120 C121 1.377 . S
C120 C123 1.481 . S
C121 C120 1.377 . S
C121 C122 1.389 . S
C121 H143 0.929 . S
C122 C118 1.397 . S
C122 C121 1.389 . S
C122 H144 0.931 . S
C123 C120 1.481 . S
C123 C124 1.387 . S
C123 C128 1.390 . S
C124 C123 1.387 . S
C124 C125 1.401 . S
C124 H145 0.930 . S
C125 C124 1.401 . S
C125 C126 1.376 . S
C125 C134 1.511 . S
C126 C125 1.376 . S
C126 C127 1.392 . S
C126 H147 0.931 . S
C127 C126 1.392 . S
C127 C128 1.361 . S
C127 C129 1.500 . S
C128 C123 1.390 . S
C128 C127 1.361 . S
C128 H146 0.931 . S
C129 C127 1.500 . S
C129 C130 1.371 1_554 S
C129 C131 1.365 . S
C130 C129 1.371 1_556 S
C130 C140 1.386 . S
C130 H148 0.931 . S
C131 C129 1.365 . S
C131 C132 1.409 . S
C131 H149 0.929 . S
C132 C131 1.409 . S
C132 C133 1.380 1_554 S
C132 H150 0.930 . S
C133 C132 1.380 1_556 S
C133 C140 1.357 . S
C134 C125 1.511 . S
C134 C135 1.341 . S
C134 C136 1.371 . S
C135 C134 1.341 . S
C135 C139 1.394 . S
C135 H151 0.930 . S
C136 C134 1.371 . S
C136 C137 1.392 . S
C136 H152 0.931 . S
C137 C136 1.392 . S
C137 C138 1.331 . S
C137 H155 0.937 . S
C138 C137 1.331 . S
C138 C139 1.336 . S
C139 C135 1.394 . S
C139 C138 1.336 . S
C139 H154 0.929 . S
C140 C130 1.386 . S
C140 C133 1.357 . S
C140 H153 0.928 . S
H141 C117 0.931 . S
H142 C119 0.930 . S
H143 C121 0.929 . S
H144 C122 0.931 . S
H145 C124 0.930 . S
H146 C128 0.931 . S
H147 C126 0.931 . S
H148 C130 0.931 . S
H149 C131 0.929 . S
H150 C132 0.930 . S
H151 C135 0.930 . S
H152 C136 0.931 . S
H153 C140 0.928 . S
H154 C139 0.929 . S
H155 C137 0.937 . S
C156 C157 1.386 . S
C156 C158 1.397 . S
C156 H180 0.931 . S
C157 C156 1.386 . S
C157 C161 1.397 . S
C158 C156 1.397 . S
C158 C159 1.384 . S
C158 H181 0.930 . S
C159 C158 1.384 . S
C159 C160 1.377 . S
C159 C162 1.481 . S
C160 C159 1.377 . S
C160 C161 1.389 . S
C160 H182 0.929 . S
C161 C157 1.397 . S
C161 C160 1.389 . S
C161 H183 0.931 . S
C162 C159 1.481 . S
C162 C163 1.387 . S
C162 C167 1.390 1_554 S
C163 C162 1.387 . S
C163 C164 1.401 . S
C163 H184 0.930 . S
C164 C163 1.401 . S
C164 C165 1.376 1_554 S
C164 C173 1.511 . S
C165 C164 1.376 1_556 S
C165 C166 1.392 . S
C165 H186 0.931 . S
C166 C165 1.392 . S
C166 C167 1.361 . S
C166 C168 1.500 . S
C167 C162 1.390 1_556 S
C167 C166 1.361 . S
C167 H185 0.931 . S
C168 C166 1.500 . S
C168 C169 1.371 . S
C168 C170 1.365 . S
C169 C168 1.371 . S
C169 C179 1.386 . S
C169 H187 0.931 . S
C170 C168 1.365 . S
C170 C171 1.409 . S
C170 H188 0.929 . S
C171 C170 1.409 . S
C171 C172 1.380 . S
C171 H189 0.930 . S
C172 C171 1.380 . S
C172 C179 1.357 . S
C173 C164 1.511 . S
C173 C174 1.341 . S
C173 C175 1.371 1_554 S
C174 C173 1.341 . S
C174 C178 1.394 . S
C174 H190 0.930 . S
C175 C173 1.371 1_556 S
C175 C176 1.392 . S
C175 H191 0.931 . S
C176 C175 1.392 . S
C176 C177 1.331 1_556 S
C176 H194 0.932 . S
C177 C176 1.331 1_554 S
C177 C178 1.336 . S
C178 C174 1.394 . S
C178 C177 1.336 . S
C178 H193 0.929 . S
C179 C169 1.386 . S
C179 C172 1.357 . S
C179 H192 0.928 . S
H180 C156 0.931 . S
H181 C158 0.930 . S
H182 C160 0.929 . S
H183 C161 0.931 . S
H184 C163 0.930 . S
H185 C167 0.931 . S
H186 C165 0.931 . S
H187 C169 0.931 . S
H188 C170 0.929 . S
H189 C171 0.930 . S
H190 C174 0.930 . S
H191 C175 0.931 . S
H192 C179 0.928 . S
H193 C178 0.929 . S
H194 C176 0.932 . S
C195 C196 1.388 . S
C195 C197 1.397 . S
C195 H219 0.931 . S
C196 C195 1.388 . S
C196 C200 1.396 1_655 S
C197 C195 1.397 . S
C197 C198 1.383 . S
C197 H220 0.930 . S
C198 C197 1.383 . S
C198 C199 1.378 1_655 S
C198 C201 1.479 . S
C199 C198 1.378 1_455 S
C199 C200 1.389 . S
C199 H221 0.929 . S
C200 C196 1.396 1_455 S
C200 C199 1.389 . S
C200 H222 0.931 . S
C201 C198 1.479 . S
C201 C202 1.385 . S
C201 C206 1.394 . S
C202 C201 1.385 . S
C202 C203 1.401 . S
C202 H223 0.930 . S
C203 C202 1.401 . S
C203 C204 1.373 . S
C203 C212 1.509 . S
C204 C203 1.373 . S
C204 C205 1.396 1_655 S
C204 H225 0.935 . S
C205 C204 1.396 1_455 S
C205 C206 1.361 1_455 S
C205 C207 1.506 1_554 S
C206 C201 1.394 . S
C206 C205 1.361 1_655 S
C206 H224 0.932 . S
C207 C205 1.506 1_556 S
C207 C208 1.355 1_455 S
C207 C209 1.376 . S
C208 C207 1.355 1_655 S
C208 C218 1.386 . S
C208 H226 0.931 . S
C209 C207 1.376 . S
C209 C210 1.409 . S
C209 H227 0.929 . S
C210 C209 1.409 . S
C210 C211 1.385 . S
C210 H228 0.930 . S
C211 C210 1.385 . S
C211 C218 1.354 1_455 S
C212 C203 1.509 . S
C212 C213 1.341 . S
C212 C214 1.371 1_655 S
C213 C212 1.341 . S
C213 C217 1.394 . S
C213 H229 0.930 . S
C214 C212 1.371 1_455 S
C214 C215 1.392 . S
C214 H230 0.931 . S
C215 C214 1.392 . S
C215 C216 1.329 1_455 S
C215 H233 0.932 . S
C216 C215 1.329 1_655 S
C216 C217 1.341 . S
C217 C213 1.394 . S
C217 C216 1.341 . S
C217 H232 0.929 . S
C218 C208 1.386 . S
C218 C211 1.354 1_655 S
C218 H231 0.928 . S
H219 C195 0.931 . S
H220 C197 0.930 . S
H221 C199 0.929 . S
H222 C200 0.931 . S
H223 C202 0.930 . S
H224 C206 0.932 . S
H225 C204 0.935 . S
H226 C208 0.931 . S
H227 C209 0.929 . S
H228 C210 0.930 . S
H229 C213 0.930 . S
H230 C214 0.931 . S
H231 C218 0.928 . S
H232 C217 0.929 . S
H233 C215 0.932 . S
C234 C235 1.390 . S
C234 C236 1.397 . S
C234 H258 0.931 . S
C235 C234 1.390 . S
C235 C239 1.394 1_565 S
C236 C234 1.397 . S
C236 C237 1.383 . S
C236 H259 0.930 . S
C237 C236 1.383 . S
C237 C238 1.378 1_565 S
C237 C240 1.479 . S
C238 C237 1.378 1_545 S
C238 C239 1.389 . S
C238 H260 0.929 . S
C239 C235 1.394 1_545 S
C239 C238 1.389 . S
C239 H261 0.931 . S
C240 C237 1.479 . S
C240 C241 1.391 . S
C240 C245 1.389 . S
C241 C240 1.391 . S
C241 C242 1.401 . S
C241 H262 0.930 . S
C242 C241 1.401 . S
C242 C243 1.377 . S
C242 C251 1.515 . S
C243 C242 1.377 . S
C243 C244 1.386 . S
C243 H264 0.935 . S
C244 C243 1.386 . S
C244 C245 1.361 . S
C244 C246 1.497 1_565 S
C245 C240 1.389 . S
C245 C244 1.361 . S
C245 H263 0.930 . S
C246 C244 1.497 1_545 S
C246 C247 1.356 1_544 S
C246 C248 1.384 . S
C247 C246 1.356 1_566 S
C247 C257 1.386 . S
C247 H265 0.931 1_556 S
C248 C246 1.384 . S
C248 C249 1.409 1_554 S
C248 H266 0.929 . S
C249 C248 1.409 1_556 S
C249 C250 1.384 . S
C249 H267 0.930 . S
C250 C249 1.384 . S
C250 C257 1.352 1_545 S
C251 C242 1.515 . S
C251 C252 1.341 . S
C251 C253 1.371 1_565 S
C252 C251 1.341 . S
C252 C256 1.394 . S
C252 H268 0.930 . S
C253 C251 1.371 1_545 S
C253 C254 1.392 . S
C253 H269 0.931 . S
C254 C253 1.392 . S
C254 C255 1.323 1_545 S
C254 H272 0.932 . S
C255 C254 1.323 1_565 S
C255 C256 1.342 . S
C256 C252 1.394 . S
C256 C255 1.342 . S
C256 H271 0.929 . S
C257 C247 1.386 . S
C257 C250 1.352 1_565 S
C257 H270 0.928 . S
H258 C234 0.931 . S
H259 C236 0.930 . S
H260 C238 0.929 . S
H261 C239 0.931 . S
H262 C241 0.930 . S
H263 C245 0.930 . S
H264 C243 0.935 . S
H265 C247 0.931 1_554 S
H266 C248 0.929 . S
H267 C249 0.930 . S
H268 C252 0.930 . S
H269 C253 0.931 . S
H270 C257 0.928 . S
H271 C256 0.929 . S
H272 C254 0.932 . S
C273 C274 1.386 . S
C273 C275 1.397 . S
C273 H297 0.931 . S
C274 C273 1.386 . S
C274 C278 1.397 . S
C275 C273 1.397 . S
C275 C276 1.384 . S
C275 H298 0.930 . S
C276 C275 1.384 . S
C276 C277 1.377 . S
C276 C279 1.481 . S
C277 C276 1.377 . S
C277 C278 1.389 . S
C277 H299 0.929 . S
C278 C274 1.397 . S
C278 C277 1.389 . S
C278 H300 0.931 . S
C279 C276 1.481 . S
C279 C280 1.387 . S
C279 C284 1.390 . S
C280 C279 1.387 . S
C280 C281 1.401 . S
C280 H301 0.930 . S
C281 C280 1.401 . S
C281 C282 1.376 . S
C281 C290 1.511 . S
C282 C281 1.376 . S
C282 C283 1.392 . S
C282 H303 0.931 . S
C283 C282 1.392 . S
C283 C284 1.361 . S
C283 C285 1.500 . S
C284 C279 1.390 . S
C284 C283 1.361 . S
C284 H302 0.931 . S
C285 C283 1.500 . S
C285 C286 1.371 . S
C285 C287 1.365 . S
C286 C285 1.371 . S
C286 C296 1.386 . S
C286 H304 0.931 . S
C287 C285 1.365 . S
C287 C288 1.409 . S
C287 H305 0.929 . S
C288 C287 1.409 . S
C288 C289 1.380 . S
C288 H306 0.930 . S
C289 C288 1.380 . S
C289 C296 1.357 . S
C290 C281 1.511 . S
C290 C291 1.341 . S
C290 C292 1.371 . S
C291 C290 1.341 . S
C291 C295 1.394 . S
C291 H307 0.930 . S
C292 C290 1.371 . S
C292 C293 1.392 . S
C292 H308 0.931 . S
C293 C292 1.392 . S
C293 C294 1.331 . S
C293 H311 0.932 . S
C294 C293 1.331 . S
C294 C295 1.336 . S
C295 C291 1.394 . S
C295 C294 1.336 . S
C295 H310 0.929 . S
C296 C286 1.386 . S
C296 C289 1.357 . S
C296 H309 0.928 . S
H297 C273 0.931 . S
H298 C275 0.930 . S
H299 C277 0.929 . S
H300 C278 0.931 . S
H301 C280 0.930 . S
H302 C284 0.931 . S
H303 C282 0.931 . S
H304 C286 0.931 . S
H305 C287 0.929 . S
H306 C288 0.930 . S
H307 C291 0.930 . S
H308 C292 0.931 . S
H309 C296 0.928 . S
H310 C295 0.929 . S
H311 C293 0.932 . S
Dy312 O315 2.307 1_545 S
Dy312 O317 2.395 1_655 S
Dy312 O318 2.379 . S
Dy312 O320 2.339 . S
Dy312 O322 2.298 . S
Dy312 O326 2.275 1_655 S
Dy312 C334 2.738 . S
Dy313 O316 2.298 . S
Dy313 O319 2.275 1_455 S
Dy313 O321 2.307 1_565 S
Dy313 O323 2.381 1_455 S
Dy313 O324 2.379 . S
Dy313 O327 2.339 . S
Dy313 C343 2.738 . S
C314 O326 1.254 1_565 S
C314 O327 1.257 . S
O315 Dy312 2.307 1_565 S
O315 C325 1.266 . S
O316 Dy313 2.298 . S
O316 C325 1.236 1_455 S
O317 Dy312 2.395 1_455 S
O317 C334 1.255 1_455 S
O318 Dy312 2.379 . S
O318 C334 1.249 . S
O319 Dy313 2.275 1_655 S
O319 C335 1.254 1_565 S
O320 Dy312 2.339 . S
O320 C335 1.257 . S
O321 Dy313 2.307 1_545 S
O321 C336 1.266 . S
O322 Dy312 2.298 . S
O322 C336 1.236 1_655 S
O323 Dy313 2.381 1_655 S
O323 C343 1.223 1_655 S
O324 Dy313 2.379 . S
O324 C343 1.249 . S
C325 O315 1.266 . S
C325 O316 1.236 1_655 S
O326 Dy312 2.275 1_455 S
O326 C314 1.254 1_545 S
O327 Dy313 2.339 . S
O327 C314 1.257 . S
C328 C331 1.344 . S
C328 C332 1.328 . S
C328 C334 1.516 . S
C329 C330 1.304 . S
C329 C333 1.323 . S
C330 C329 1.304 . S
C330 C331 1.371 . S
C330 H344 0.930 1_655 S
C331 C328 1.344 . S
C331 C330 1.371 . S
C331 H345 0.931 1_655 S
C332 C328 1.328 . S
C332 C333 1.433 . S
C332 H346 0.931 . S
C333 C329 1.323 . S
C333 C332 1.433 . S
C333 H347 0.933 . S
C334 Dy312 2.738 . S
C334 O317 1.255 1_655 S
C334 O318 1.249 . S
C334 C328 1.516 . S
C335 O319 1.254 1_545 S
C335 O320 1.257 . S
C336 O321 1.266 . S
C336 O322 1.236 1_455 S
C337 C340 1.344 1_556 S
C337 C341 1.328 1_556 S
C337 C343 1.516 . S
C338 C339 1.304 . S
C338 C342 1.323 . S
C339 C338 1.304 . S
C339 C340 1.371 . S
C339 H348 0.930 1_455 S
C340 C337 1.344 1_554 S
C340 C339 1.371 . S
C340 H349 0.931 1_455 S
C341 C337 1.328 1_554 S
C341 C342 1.433 . S
C341 H350 0.931 1_554 S
C342 C338 1.323 . S
C342 C341 1.433 . S
C342 H351 0.933 . S
C343 Dy313 2.738 . S
C343 O323 1.223 1_455 S
C343 O324 1.249 . S
C343 C337 1.516 . S
H344 C330 0.930 1_455 S
H345 C331 0.931 1_455 S
H346 C332 0.931 . S
H347 C333 0.933 . S
H348 C339 0.930 1_655 S
H349 C340 0.931 1_655 S
H350 C341 0.931 1_556 S
H351 C342 0.933 . S
Dy352 O355 2.307 . S
Dy352 O357 2.395 1_565 S
Dy352 O358 2.379 . S
Dy352 O360 2.339 . S
Dy352 O362 2.298 . S
Dy352 O366 2.275 1_565 S
Dy352 C374 2.738 . S
Dy353 O356 2.298 . S
Dy353 O359 2.275 1_545 S
Dy353 O361 2.307 . S
Dy353 O363 2.395 1_545 S
Dy353 O364 2.379 . S
Dy353 O367 2.339 . S
Dy353 C383 2.738 . S
C354 O366 1.254 . S
C354 O367 1.257 . S
O355 Dy352 2.307 . S
O355 C365 1.266 . S
O356 Dy353 2.298 . S
O356 C365 1.236 1_545 S
O357 Dy352 2.395 1_545 S
O357 C374 1.255 1_545 S
O358 Dy352 2.379 . S
O358 C374 1.249 . S
O359 Dy353 2.275 1_565 S
O359 C375 1.254 . S
O360 Dy352 2.339 . S
O360 C375 1.257 . S
O361 Dy353 2.307 . S
O361 C376 1.266 . S
O362 Dy352 2.298 . S
O362 C376 1.236 1_565 S
O363 Dy353 2.395 1_565 S
O363 C383 1.255 1_565 S
O364 Dy353 2.379 . S
O364 C383 1.249 . S
C365 O355 1.266 . S
C365 O356 1.236 1_565 S
O366 Dy352 2.275 1_545 S
O366 C354 1.254 . S
O367 Dy353 2.339 . S
O367 C354 1.257 . S
C368 C371 1.344 . S
C368 C372 1.328 . S
C368 C374 1.516 . S
C369 C370 1.304 . S
C369 C373 1.323 . S
C370 C369 1.304 . S
C370 C371 1.371 . S
C370 H384 0.930 1_565 S
C371 C368 1.344 . S
C371 C370 1.371 . S
C371 H385 0.931 1_565 S
C372 C368 1.328 . S
C372 C373 1.433 . S
C372 H386 0.931 . S
C373 C369 1.323 . S
C373 C372 1.433 . S
C373 H387 0.933 . S
C374 Dy352 2.738 . S
C374 O357 1.255 1_565 S
C374 O358 1.249 . S
C374 C368 1.516 . S
C375 O359 1.254 . S
C375 O360 1.257 . S
C376 O361 1.266 . S
C376 O362 1.236 1_545 S
C377 C380 1.344 . S
C377 C381 1.328 1_556 S
C377 C383 1.516 . S
C378 C379 1.304 . S
C378 C382 1.323 . S
C379 C378 1.304 . S
C379 C380 1.371 1_554 S
C379 H388 0.930 1_545 S
C380 C377 1.344 . S
C380 C379 1.371 1_556 S
C380 H389 0.931 1_545 S
C381 C377 1.328 1_554 S
C381 C382 1.433 . S
C381 H390 0.934 . S
C382 C378 1.323 . S
C382 C381 1.433 . S
C382 H391 0.933 . S
C383 Dy353 2.738 . S
C383 O363 1.255 1_545 S
C383 O364 1.249 . S
C383 C377 1.516 . S
H384 C370 0.930 1_545 S
H385 C371 0.931 1_545 S
H386 C372 0.931 . S
H387 C373 0.933 . S
H388 C379 0.930 1_565 S
H389 C380 0.931 1_565 S
H390 C381 0.934 . S
H391 C382 0.933 . S
Dy392 O395 2.307 . S
Dy392 O397 2.395 . S
Dy392 O398 2.379 . S
Dy392 O400 2.339 . S
Dy392 O402 2.298 . S
Dy392 O406 2.275 . S
Dy392 C414 2.738 . S
Dy393 O396 2.298 . S
Dy393 O399 2.275 . S
Dy393 O401 2.307 . S
Dy393 O403 2.395 . S
Dy393 O404 2.379 . S
Dy393 O407 2.339 . S
Dy393 C423 2.738 . S
C394 O406 1.254 . S
C394 O407 1.257 . S
O395 Dy392 2.307 . S
O395 C405 1.266 . S
O396 Dy393 2.298 . S
O396 C405 1.236 . S
O397 Dy392 2.395 . S
O397 C414 1.255 . S
O398 Dy392 2.379 . S
O398 C414 1.249 . S
O399 Dy393 2.275 . S
O399 C415 1.254 . S
O400 Dy392 2.339 . S
O400 C415 1.257 . S
O401 Dy393 2.307 . S
O401 C416 1.266 . S
O402 Dy392 2.298 . S
O402 C416 1.236 . S
O403 Dy393 2.395 . S
O403 C423 1.255 . S
O404 Dy393 2.379 . S
O404 C423 1.249 . S
C405 O395 1.266 . S
C405 O396 1.236 . S
O406 Dy392 2.275 . S
O406 C394 1.254 . S
O407 Dy393 2.339 . S
O407 C394 1.257 . S
C408 C411 1.344 1_556 S
C408 C412 1.328 . S
C408 C414 1.516 . S
C409 C410 1.304 . S
C409 C413 1.323 1_554 S
C410 C409 1.304 . S
C410 C411 1.371 . S
C410 H424 0.930 . S
C411 C408 1.344 1_554 S
C411 C410 1.371 . S
C411 H425 0.931 . S
C412 C408 1.328 . S
C412 C413 1.433 . S
C412 H426 0.931 . S
C413 C409 1.323 1_556 S
C413 C412 1.433 . S
C413 H427 0.933 . S
C414 Dy392 2.738 . S
C414 O397 1.255 . S
C414 O398 1.249 . S
C414 C408 1.516 . S
C415 O399 1.254 . S
C415 O400 1.257 . S
C416 O401 1.266 . S
C416 O402 1.236 . S
C417 C420 1.344 . S
C417 C421 1.328 . S
C417 C423 1.516 . S
C418 C419 1.304 . S
C418 C422 1.323 . S
C419 C418 1.304 . S
C419 C420 1.371 . S
C419 H428 0.930 . S
C420 C417 1.344 . S
C420 C419 1.371 . S
C420 H429 0.931 . S
C421 C417 1.328 . S
C421 C422 1.433 . S
C421 H430 0.931 . S
C422 C418 1.323 . S
C422 C421 1.433 . S
C422 H431 0.933 . S
C423 Dy393 2.738 . S
C423 O403 1.255 . S
C423 O404 1.249 . S
C423 C417 1.516 . S
H424 C410 0.930 . S
H425 C411 0.931 . S
H426 C412 0.931 . S
H427 C413 0.933 . S
H428 C419 0.930 . S
H429 C420 0.931 . S
H430 C421 0.931 . S
H431 C422 0.933 . S
Dy432 O435 2.307 1_455 S
Dy432 O437 2.395 . S
Dy432 O438 2.379 . S
Dy432 O440 2.339 . S
Dy432 O442 2.298 . S
Dy432 O446 2.275 . S
Dy432 C454 2.738 . S
Dy433 O436 2.298 . S
Dy433 O439 2.275 . S
Dy433 O441 2.307 1_655 S
Dy433 O443 2.395 . S
Dy433 O444 2.379 . S
Dy433 O447 2.339 . S
Dy433 C463 2.738 . S
C434 O446 1.254 1_655 S
C434 O447 1.257 . S
O435 Dy432 2.307 1_655 S
O435 C445 1.266 . S
O436 Dy433 2.298 . S
O436 C445 1.236 . S
O437 Dy432 2.395 . S
O437 C454 1.255 . S
O438 Dy432 2.379 . S
O438 C454 1.249 . S
O439 Dy433 2.275 . S
O439 C455 1.254 1_655 S
O440 Dy432 2.339 . S
O440 C455 1.257 . S
O441 Dy433 2.307 1_455 S
O441 C456 1.266 . S
O442 Dy432 2.298 . S
O442 C456 1.236 . S
O443 Dy433 2.395 . S
O443 C463 1.255 . S
O444 Dy433 2.379 . S
O444 C463 1.249 . S
C445 O435 1.266 . S
C445 O436 1.236 . S
O446 Dy432 2.275 . S
O446 C434 1.254 1_455 S
O447 Dy433 2.339 . S
O447 C434 1.257 . S
C448 C451 1.344 . S
C448 C452 1.328 . S
C448 C454 1.516 . S
C449 C450 1.304 . S
C449 C453 1.323 . S
C450 C449 1.304 . S
C450 C451 1.371 . S
C450 H464 0.930 . S
C451 C448 1.344 . S
C451 C450 1.371 . S
C451 H465 0.931 . S
C452 C448 1.328 . S
C452 C453 1.433 . S
C452 H466 0.931 . S
C453 C449 1.323 . S
C453 C452 1.433 . S
C453 H467 0.933 . S
C454 Dy432 2.738 . S
C454 O437 1.255 . S
C454 O438 1.249 . S
C454 C448 1.516 . S
C455 O439 1.254 1_455 S
C455 O440 1.257 . S
C456 O441 1.266 . S
C456 O442 1.236 . S
C457 C460 1.344 . S
C457 C461 1.328 . S
C457 C463 1.516 1_554 S
C458 C459 1.304 . S
C458 C462 1.323 . S
C459 C458 1.304 . S
C459 C460 1.371 . S
C459 H468 0.930 . S
C460 C457 1.344 . S
C460 C459 1.371 . S
C460 H469 0.931 . S
C461 C457 1.328 . S
C461 C462 1.433 . S
C461 H470 0.931 . S
C462 C458 1.323 . S
C462 C461 1.433 . S
C462 H471 0.933 . S
C463 Dy433 2.738 . S
C463 O443 1.255 . S
C463 O444 1.249 . S
C463 C457 1.516 1_556 S
H464 C450 0.930 . S
H465 C451 0.931 . S
H466 C452 0.931 . S
H467 C453 0.933 . S
H468 C459 0.930 . S
H469 C460 0.931 . S
H470 C461 0.931 . S
H471 C462 0.933 . S
C472 C473 1.370 . S
C472 C474 1.419 . S
C472 H476 0.930 . S
C473 C472 1.370 . S
C473 C482 1.425 1_545 S
C474 C472 1.419 . S
C474 C475 1.369 . S
C474 H477 0.929 . S
C475 C474 1.369 . S
C475 C481 1.427 1_545 S
H476 C472 0.930 . S
H477 C474 0.929 . S
S478 N479 1.613 1_545 S
S478 N480 1.610 . S
N479 S478 1.613 1_565 S
N479 C482 1.350 . S
N480 S478 1.610 . S
N480 C481 1.351 1_545 S
C481 C475 1.427 1_565 S
C481 N480 1.351 1_565 S
C481 C482 1.434 . S
C482 C473 1.425 1_565 S
C482 N479 1.350 . S
C482 C481 1.434 . S
C483 C484 1.369 . S
C483 C485 1.419 . S
C483 H487 0.930 . S
C484 C483 1.369 . S
C484 C493 1.429 . S
C485 C483 1.419 . S
C485 C486 1.363 . S
C485 H488 0.929 . S
C486 C485 1.363 . S
C486 C492 1.428 . S
H487 C483 0.930 . S
H488 C485 0.929 . S
S489 N490 1.613 . S
S489 N491 1.610 . S
N490 S489 1.613 . S
N490 C493 1.350 . S
N491 S489 1.610 . S
N491 C492 1.351 . S
C492 C486 1.428 . S
C492 N491 1.351 . S
C492 C493 1.434 . S
C493 C484 1.429 . S
C493 N490 1.350 . S
C493 C492 1.434 . S
C494 C495 1.369 . S
C494 C496 1.419 . S
C494 H498 0.930 . S
C495 C494 1.369 . S
C495 C504 1.429 . S
C496 C494 1.419 . S
C496 C497 1.363 . S
C496 H499 0.929 . S
C497 C496 1.363 . S
C497 C503 1.428 . S
H498 C494 0.930 . S
H499 C496 0.929 . S
S500 N501 1.613 . S
S500 N502 1.610 . S
N501 S500 1.613 . S
N501 C504 1.350 . S
N502 S500 1.610 . S
N502 C503 1.351 . S
C503 C497 1.428 . S
C503 N502 1.351 . S
C503 C504 1.434 . S
C504 C495 1.429 . S
C504 N501 1.350 . S
C504 C503 1.434 . S
C505 C506 1.359 1_655 S
C505 C507 1.419 . S
C505 H509 0.930 . S
C506 C505 1.359 1_455 S
C506 C515 1.447 . S
C507 C505 1.419 . S
C507 C508 1.363 1_655 S
C507 H510 0.929 . S
C508 C507 1.363 1_455 S
C508 C514 1.428 . S
H509 C505 0.930 . S
H510 C507 0.929 . S
S511 N512 1.613 . S
S511 N513 1.610 . S
N512 S511 1.613 . S
N512 C515 1.350 . S
N513 S511 1.610 . S
N513 C514 1.351 . S
C514 C508 1.428 . S
C514 N513 1.351 . S
C514 C515 1.434 . S
C515 C506 1.447 . S
C515 N512 1.350 . S
C515 C514 1.434 . S
C516 C517 1.366 1_565 S
C516 C518 1.419 . S
C516 H520 0.930 . S
C517 C516 1.366 1_545 S
C517 C526 1.432 . S
C518 C516 1.419 . S
C518 C519 1.370 1_554 S
C518 H521 0.929 1_554 S
C519 C518 1.370 1_556 S
C519 C525 1.422 1_566 S
H520 C516 0.930 . S
H521 C518 0.929 1_556 S
S522 N523 1.613 . S
S522 N524 1.610 . S
N523 S522 1.613 . S
N523 C526 1.350 . S
N524 S522 1.610 . S
N524 C525 1.351 . S
C525 C519 1.422 1_544 S
C525 N524 1.351 . S
C525 C526 1.434 . S
C526 C517 1.432 . S
C526 N523 1.350 . S
C526 C525 1.434 . S
C527 C528 1.369 . S
C527 C529 1.419 1_554 S
C527 H531 0.930 . S
C528 C527 1.369 . S
C528 C537 1.429 1_554 S
C529 C527 1.419 1_556 S
C529 C530 1.363 . S
C529 H532 0.929 1_556 S
C530 C529 1.363 . S
C530 C536 1.428 . S
H531 C527 0.930 . S
H532 C529 0.929 1_554 S
S533 N534 1.613 . S
S533 N535 1.610 . S
N534 S533 1.613 . S
N534 C537 1.350 . S
N535 S533 1.610 . S
N535 C536 1.351 . S
C536 C530 1.428 . S
C536 N535 1.351 . S
C536 C537 1.434 . S
C537 C528 1.429 1_556 S
C537 N534 1.350 . S
C537 C536 1.434 . S
C538 C539 1.369 . S
C538 C540 1.419 . S
C538 H542 0.930 . S
C539 C538 1.369 . S
C539 C548 1.429 . S
C540 C538 1.419 . S
C540 C541 1.363 . S
C540 H543 0.929 . S
C541 C540 1.363 . S
C541 C547 1.428 . S
H542 C538 0.930 . S
H543 C540 0.929 . S
S544 N545 1.613 . S
S544 N546 1.610 . S
N545 S544 1.613 . S
N545 C548 1.350 . S
N546 S544 1.610 . S
N546 C547 1.351 . S
C547 C541 1.428 . S
C547 N546 1.351 . S
C547 C548 1.434 . S
C548 C539 1.429 . S
C548 N545 1.350 . S
C548 C547 1.434 . S
C549 C550 1.385 . S
C549 C551 1.419 . S
C549 H553 0.930 . S
C550 C549 1.385 . S
C550 C559 1.416 1_655 S
C551 C549 1.419 . S
C551 C552 1.363 . S
C551 H554 0.929 . S
C552 C551 1.363 . S
C552 C558 1.428 1_655 S
H553 C549 0.930 . S
H554 C551 0.929 . S
S555 N556 1.613 . S
S555 N557 1.610 . S
N556 S555 1.613 . S
N556 C559 1.350 . S
N557 S555 1.610 . S
N557 C558 1.351 . S
C558 C552 1.428 1_455 S
C558 N557 1.351 . S
C558 C559 1.434 . S
C559 C550 1.416 1_455 S
C559 N556 1.350 . S
C559 C558 1.434 . S
C560 C561 1.369 1_655 S
C560 C562 1.419 . S
C560 H564 0.930 . S
C561 C560 1.369 1_455 S
C561 C570 1.429 . S
C562 C560 1.419 . S
C562 C563 1.363 . S
C562 H565 0.929 . S
C563 C562 1.363 . S
C563 C569 1.428 . S
H564 C560 0.930 . S
H565 C562 0.929 . S
S566 N567 1.613 . S
S566 N568 1.610 1_455 S
N567 S566 1.613 . S
N567 C570 1.350 . S
N568 S566 1.610 1_655 S
N568 C569 1.351 . S
C569 C563 1.428 . S
C569 N568 1.351 . S
C569 C570 1.434 1_655 S
C570 C561 1.429 . S
C570 N567 1.350 . S
C570 C569 1.434 1_455 S
C571 C572 1.369 . S
C571 C573 1.419 . S
C571 H575 0.930 . S
C572 C571 1.369 . S
C572 C581 1.429 . S
C573 C571 1.419 . S
C573 C574 1.363 . S
C573 H576 0.929 . S
C574 C573 1.363 . S
C574 C580 1.428 . S
H575 C571 0.930 . S
H576 C573 0.929 . S
S577 N578 1.613 . S
S577 N579 1.610 . S
N578 S577 1.613 . S
N578 C581 1.350 . S
N579 S577 1.610 . S
N579 C580 1.351 . S
C580 C574 1.428 . S
C580 N579 1.351 . S
C580 C581 1.434 . S
C581 C572 1.429 . S
C581 N578 1.350 . S
C581 C580 1.434 . S
C582 C583 1.369 . S
C582 C584 1.419 . S
C582 H586 0.930 . S
C583 C582 1.369 . S
C583 C592 1.429 . S
C584 C582 1.419 . S
C584 C585 1.363 . S
C584 H587 0.929 . S
C585 C584 1.363 . S
C585 C591 1.428 . S
H586 C582 0.930 . S
H587 C584 0.929 . S
S588 N589 1.613 . S
S588 N590 1.610 . S
N589 S588 1.613 . S
N589 C592 1.350 . S
N590 S588 1.610 . S
N590 C591 1.351 . S
C591 C585 1.428 . S
C591 N590 1.351 . S
C591 C592 1.434 . S
C592 C583 1.429 . S
C592 N589 1.350 . S
C592 C591 1.434 . S
C593 C594 1.369 . S
C593 C595 1.419 . S
C593 H597 0.930 . S
C594 C593 1.369 . S
C594 C603 1.429 . S
C595 C593 1.419 . S
C595 C596 1.363 . S
C595 H598 0.929 . S
C596 C595 1.363 . S
C596 C602 1.428 . S
H597 C593 0.930 . S
H598 C595 0.929 . S
S599 N600 1.613 . S
S599 N601 1.610 . S
N600 S599 1.613 . S
N600 C603 1.350 . S
N601 S599 1.610 . S
N601 C602 1.351 . S
C602 C596 1.428 . S
C602 N601 1.351 . S
C602 C603 1.434 . S
C603 C594 1.429 . S
C603 N600 1.350 . S
C603 C602 1.434 . S
C604 C605 1.369 . S
C604 C606 1.419 1_655 S
C604 H608 0.930 . S
C605 C604 1.369 . S
C605 C614 1.429 1_655 S
C606 C604 1.419 1_455 S
C606 C607 1.363 . S
C606 H609 0.929 . S
C607 C606 1.363 . S
C607 C613 1.428 . S
H608 C604 0.930 . S
H609 C606 0.929 . S
S610 N611 1.613 . S
S610 N612 1.610 . S
N611 S610 1.613 . S
N611 C614 1.350 . S
N612 S610 1.610 . S
N612 C613 1.351 . S
C613 C607 1.428 . S
C613 N612 1.351 . S
C613 C614 1.434 . S
C614 C605 1.429 1_455 S
C614 N611 1.350 . S
C614 C613 1.434 . S
C615 C616 1.369 1_565 S
C615 C617 1.419 1_565 S
C615 H619 0.930 . S
C616 C615 1.369 1_545 S
C616 C625 1.429 . S
C617 C615 1.419 1_545 S
C617 C618 1.363 . S
C617 H620 0.929 1_545 S
C618 C617 1.363 . S
C618 C624 1.428 . S
H619 C615 0.930 . S
H620 C617 0.929 1_565 S
S621 N622 1.613 . S
S621 N623 1.610 . S
N622 S621 1.613 . S
N622 C625 1.350 . S
N623 S621 1.610 . S
N623 C624 1.351 . S
C624 C618 1.428 . S
C624 N623 1.351 . S
C624 C625 1.434 . S
C625 C616 1.429 . S
C625 N622 1.350 . S
C625 C624 1.434 . S
C626 C627 1.369 . S
C626 C628 1.419 . S
C626 H630 0.930 . S
C627 C626 1.369 . S
C627 C636 1.429 . S
C628 C626 1.419 . S
C628 C629 1.363 . S
C628 H631 0.929 . S
C629 C628 1.363 . S
C629 C635 1.428 . S
H630 C626 0.930 . S
H631 C628 0.929 . S
S632 N633 1.613 . S
S632 N634 1.610 . S
N633 S632 1.613 . S
N633 C636 1.350 . S
N634 S632 1.610 . S
N634 C635 1.351 . S
C635 C629 1.428 . S
C635 N634 1.351 . S
C635 C636 1.434 . S
C636 C627 1.429 . S
C636 N633 1.350 . S
C636 C635 1.434 . S
C637 C638 1.369 . S
C637 C639 1.419 . S
C637 H641 0.930 . S
C638 C637 1.369 . S
C638 C647 1.429 . S
C639 C637 1.419 . S
C639 C640 1.363 . S
C639 H642 0.929 . S
C640 C639 1.363 . S
C640 C646 1.428 . S
H641 C637 0.930 . S
H642 C639 0.929 . S
S643 N644 1.613 . S
S643 N645 1.610 . S
N644 S643 1.613 . S
N644 C647 1.350 . S
N645 S643 1.610 . S
N645 C646 1.351 . S
C646 C640 1.428 . S
C646 N645 1.351 . S
C646 C647 1.434 . S
C647 C638 1.429 . S
C647 N644 1.350 . S
C647 C646 1.434 . S
C648 C649 1.369 1_655 S
C648 C650 1.419 . S
C648 H652 0.930 . S
C649 C648 1.369 1_455 S
C649 C658 1.429 . S
C650 C648 1.419 . S
C650 C651 1.363 1_655 S
C650 H653 0.929 . S
C651 C650 1.363 1_455 S
C651 C657 1.428 . S
H652 C648 0.930 . S
H653 C650 0.929 . S
S654 N655 1.613 . S
S654 N656 1.610 . S
N655 S654 1.613 . S
N655 C658 1.350 . S
N656 S654 1.610 . S
N656 C657 1.351 . S
C657 C651 1.428 . S
C657 N656 1.351 . S
C657 C658 1.434 . S
C658 C649 1.429 . S
C658 N655 1.350 . S
C658 C657 1.434 . S
C659 C660 1.369 1_565 S
C659 C661 1.419 . S
C659 H663 0.930 . S
C660 C659 1.369 1_545 S
C660 C669 1.429 . S
C661 C659 1.419 . S
C661 C662 1.363 1_565 S
C661 H664 0.929 . S
C662 C661 1.363 1_545 S
C662 C668 1.428 . S
H663 C659 0.930 . S
H664 C661 0.929 . S
S665 N666 1.613 . S
S665 N667 1.610 . S
N666 S665 1.613 . S
N666 C669 1.350 . S
N667 S665 1.610 . S
N667 C668 1.351 . S
C668 C662 1.428 . S
C668 N667 1.351 . S
C668 C669 1.434 . S
C669 C660 1.429 . S
C669 N666 1.350 . S
C669 C668 1.434 . S
C670 C671 1.369 1_556 S
C670 C672 1.419 . S
C670 H674 0.930 . S
C671 C670 1.369 1_554 S
C671 C680 1.429 . S
C672 C670 1.419 . S
C672 C673 1.363 . S
C672 H675 0.929 . S
C673 C672 1.363 . S
C673 C679 1.428 1_556 S
H674 C670 0.930 . S
H675 C672 0.929 . S
S676 N677 1.613 . S
S676 N678 1.610 . S
N677 S676 1.613 . S
N677 C680 1.350 . S
N678 S676 1.610 . S
N678 C679 1.351 . S
C679 C673 1.428 1_554 S
C679 N678 1.351 . S
C679 C680 1.434 . S
C680 C671 1.429 . S
C680 N677 1.350 . S
C680 C679 1.434 . S
C681 C682 1.369 . S
C681 C683 1.419 . S
C681 H685 0.930 . S
C682 C681 1.369 . S
C682 C691 1.429 . S
C683 C681 1.419 . S
C683 C684 1.363 . S
C683 H686 0.929 . S
C684 C683 1.363 . S
C684 C690 1.428 . S
H685 C681 0.930 . S
H686 C683 0.929 . S
S687 N688 1.613 . S
S687 N689 1.610 . S
N688 S687 1.613 . S
N688 C691 1.350 . S
N689 S687 1.610 . S
N689 C690 1.351 . S
C690 C684 1.428 . S
C690 N689 1.351 . S
C690 C691 1.434 . S
C691 C682 1.429 . S
C691 N688 1.350 . S
C691 C690 1.434 . S
C692 C693 1.369 1_455 S
C692 C694 1.419 . S
C692 H696 0.930 . S
C693 C692 1.369 1_655 S
C693 C702 1.429 . S
C694 C692 1.419 . S
C694 C695 1.361 1_455 S
C694 H697 0.933 . S
C695 C694 1.361 1_655 S
C695 C701 1.428 . S
H696 C692 0.930 . S
H697 C694 0.933 . S
S698 N699 1.613 . S
S698 N700 1.610 . S
N699 S698 1.613 . S
N699 C702 1.350 . S
N700 S698 1.610 . S
N700 C701 1.351 . S
C701 C695 1.428 . S
C701 N700 1.351 . S
C701 C702 1.434 . S
C702 C693 1.429 . S
C702 N699 1.350 . S
C702 C701 1.434 . S
C703 C704 1.369 . S
C703 C705 1.419 . S
C703 H707 0.930 . S
C704 C703 1.369 . S
C704 C713 1.429 1_565 S
C705 C703 1.419 . S
C705 C706 1.363 . S
C705 H708 0.929 . S
C706 C705 1.363 . S
C706 C712 1.428 1_565 S
H707 C703 0.930 . S
H708 C705 0.929 . S
S709 N710 1.613 . S
S709 N711 1.610 . S
N710 S709 1.613 . S
N710 C713 1.350 . S
N711 S709 1.610 . S
N711 C712 1.351 . S
C712 C706 1.428 1_545 S
C712 N711 1.351 . S
C712 C713 1.434 . S
C713 C704 1.429 1_545 S
C713 N710 1.350 . S
C713 C712 1.434 . S
C714 C715 1.369 . S
C714 C716 1.419 . S
C714 H718 0.930 . S
C715 C714 1.369 . S
C715 C724 1.429 . S
C716 C714 1.419 . S
C716 C717 1.363 . S
C716 H719 0.929 . S
C717 C716 1.363 . S
C717 C723 1.428 . S
H718 C714 0.930 . S
H719 C716 0.929 . S
S720 N721 1.613 . S
S720 N722 1.610 . S
N721 S720 1.613 . S
N721 C724 1.350 . S
N722 S720 1.610 . S
N722 C723 1.351 . S
C723 C717 1.428 . S
C723 N722 1.351 . S
C723 C724 1.434 . S
C724 C715 1.429 . S
C724 N721 1.350 . S
C724 C723 1.434 . S
C725 C726 1.369 . S
C725 C727 1.419 . S
C725 H729 0.930 . S
C726 C725 1.369 . S
C726 C735 1.429 . S
C727 C725 1.419 . S
C727 C728 1.363 . S
C727 H730 0.929 . S
C728 C727 1.363 . S
C728 C734 1.428 . S
H729 C725 0.930 . S
H730 C727 0.929 . S
S731 N732 1.613 . S
S731 N733 1.610 . S
N732 S731 1.613 . S
N732 C735 1.350 . S
N733 S731 1.610 . S
N733 C734 1.351 . S
C734 C728 1.428 . S
C734 N733 1.351 . S
C734 C735 1.434 . S
C735 C726 1.429 . S
C735 N732 1.350 . S
C735 C734 1.434 . S
C473 C255 2.335 1_545 S
C475 C314 2.483 1_545 S
C486 C354 2.294 . S
C484 C294 2.159 . S
C497 C418 2.881 . S
C495 C177 2.746 . S
C508 C434 2.763 1_455 S
C506 C216 2.406 1_455 S
C519 C335 2.488 1_565 S
C517 C99 2.327 1_545 S
C528 C138 2.152 . S
C530 C375 2.297 . S
C539 C21 2.769 . S
C541 C409 2.876 . S
C550 C60 2.422 . S
C552 C455 2.759 1_654 S
C563 C329 0.645 . S
C561 C196 0.633 1_455 S
C574 C369 0.849 . S
C572 C235 0.836 . S
C585 C405 0.845 . S
C583 C289 0.883 . S
C594 C157 1.083 . S
C596 C449 0.987 . S
C605 C40 0.608 . S
C607 C338 0.662 . S
C618 C378 0.850 . S
C616 C79 0.840 1_545 S
C629 C416 0.863 . S
C627 C133 0.863 . S
C638 C1 1.081 . S
C640 C458 1.006 . S
C649 C211 2.876 . S
C651 C336 3.344 . S
C660 C250 2.775 . S
C662 C376 3.175 . S
C673 C394 2.225 . S
C671 C274 2.140 . S
C684 C456 3.807 . S
C682 C172 3.282 . S
C693 C55 2.883 1_655 S
C695 C325 3.348 . S
C706 C365 3.175 . S
C704 C94 2.769 1_565 S
C717 C415 2.219 . S
C715 C118 2.144 . S
C726 C16 3.277 . S
C728 C445 3.812 . S
