# Generated by pormake.
# Topology eea, (3,6)-cn, num edge types: 1
# Building blocks:
#     Node 0, Type 0, BuildingBlock: VETTIZ_charged_linker_0, # of connection points: 3
#     Node 1, Type 0, BuildingBlock: VETTIZ_charged_linker_0, # of connection points: 3
#     Node 2, Type 0, BuildingBlock: VETTIZ_charged_linker_0, # of connection points: 3
#     Node 3, Type 0, BuildingBlock: VETTIZ_charged_linker_0, # of connection points: 3
#     Node 4, Type 0, BuildingBlock: VETTIZ_charged_linker_0, # of connection points: 3
#     Node 5, Type 0, BuildingBlock: VETTIZ_charged_linker_0, # of connection points: 3
#     Node 6, Type 0, BuildingBlock: VETTIZ_charged_linker_0, # of connection points: 3
#     Node 7, Type 0, BuildingBlock: VETTIZ_charged_linker_0, # of connection points: 3
#     Node 8, Type 0, BuildingBlock: VETTIZ_charged_linker_0, # of connection points: 3
#     Node 9, Type 0, BuildingBlock: VETTIZ_charged_linker_0, # of connection points: 3
#     Node 10, Type 0, BuildingBlock: VETTIZ_charged_linker_0, # of connection points: 3
#     Node 11, Type 0, BuildingBlock: VETTIZ_charged_linker_0, # of connection points: 3
#     Node 12, Type 0, BuildingBlock: VETTIZ_charged_linker_0, # of connection points: 3
#     Node 13, Type 0, BuildingBlock: VETTIZ_charged_linker_0, # of connection points: 3
#     Node 14, Type 0, BuildingBlock: VETTIZ_charged_linker_0, # of connection points: 3
#     Node 15, Type 0, BuildingBlock: VETTIZ_charged_linker_0, # of connection points: 3
#     Node 16, Type 0, BuildingBlock: VETTIZ_charged_linker_0, # of connection points: 3
#     Node 17, Type 0, BuildingBlock: VETTIZ_charged_linker_0, # of connection points: 3
#     Node 18, Type 1, BuildingBlock: CUWYAW_clean_sbu_0, # of connection points: 6
#     Node 19, Type 1, BuildingBlock: CUWYAW_clean_sbu_0, # of connection points: 6
#     Node 20, Type 1, BuildingBlock: CUWYAW_clean_sbu_0, # of connection points: 6
#     Node 21, Type 1, BuildingBlock: CUWYAW_clean_sbu_0, # of connection points: 6
#     Node 22, Type 1, BuildingBlock: CUWYAW_clean_sbu_0, # of connection points: 6
#     Node 23, Type 1, BuildingBlock: CUWYAW_clean_sbu_0, # of connection points: 6
#     Node 24, Type 1, BuildingBlock: CUWYAW_clean_sbu_0, # of connection points: 6
#     Node 25, Type 1, BuildingBlock: CUWYAW_clean_sbu_0, # of connection points: 6
#     Node 26, Type 1, BuildingBlock: CUWYAW_clean_sbu_0, # of connection points: 6
#     Edge 27, Type (0, 1), BuildingBlock: AJUNOK_clean_linker_0, # of connection points: 2
#     Edge 28, Type (0, 1), BuildingBlock: AJUNOK_clean_linker_0, # of connection points: 2
#     Edge 29, Type (0, 1), BuildingBlock: AJUNOK_clean_linker_0, # of connection points: 2
#     Edge 30, Type (0, 1), BuildingBlock: AJUNOK_clean_linker_0, # of connection points: 2
#     Edge 31, Type (0, 1), BuildingBlock: AJUNOK_clean_linker_0, # of connection points: 2
#     Edge 32, Type (0, 1), BuildingBlock: AJUNOK_clean_linker_0, # of connection points: 2
#     Edge 33, Type (0, 1), BuildingBlock: AJUNOK_clean_linker_0, # of connection points: 2
#     Edge 34, Type (0, 1), BuildingBlock: AJUNOK_clean_linker_0, # of connection points: 2
#     Edge 35, Type (0, 1), BuildingBlock: AJUNOK_clean_linker_0, # of connection points: 2
#     Edge 36, Type (0, 1), BuildingBlock: AJUNOK_clean_linker_0, # of connection points: 2
#     Edge 37, Type (0, 1), BuildingBlock: AJUNOK_clean_linker_0, # of connection points: 2
#     Edge 38, Type (0, 1), BuildingBlock: AJUNOK_clean_linker_0, # of connection points: 2
#     Edge 39, Type (0, 1), BuildingBlock: AJUNOK_clean_linker_0, # of connection points: 2
#     Edge 40, Type (0, 1), BuildingBlock: AJUNOK_clean_linker_0, # of connection points: 2
#     Edge 41, Type (0, 1), BuildingBlock: AJUNOK_clean_linker_0, # of connection points: 2
#     Edge 42, Type (0, 1), BuildingBlock: AJUNOK_clean_linker_0, # of connection points: 2
#     Edge 43, Type (0, 1), BuildingBlock: AJUNOK_clean_linker_0, # of connection points: 2
#     Edge 44, Type (0, 1), BuildingBlock: AJUNOK_clean_linker_0, # of connection points: 2
#     Edge 45, Type (0, 1), BuildingBlock: AJUNOK_clean_linker_0, # of connection points: 2
#     Edge 46, Type (0, 1), BuildingBlock: AJUNOK_clean_linker_0, # of connection points: 2
#     Edge 47, Type (0, 1), BuildingBlock: AJUNOK_clean_linker_0, # of connection points: 2
#     Edge 48, Type (0, 1), BuildingBlock: AJUNOK_clean_linker_0, # of connection points: 2
#     Edge 49, Type (0, 1), BuildingBlock: AJUNOK_clean_linker_0, # of connection points: 2
#     Edge 50, Type (0, 1), BuildingBlock: AJUNOK_clean_linker_0, # of connection points: 2
#     Edge 51, Type (0, 1), BuildingBlock: AJUNOK_clean_linker_0, # of connection points: 2
#     Edge 52, Type (0, 1), BuildingBlock: AJUNOK_clean_linker_0, # of connection points: 2
#     Edge 53, Type (0, 1), BuildingBlock: AJUNOK_clean_linker_0, # of connection points: 2
#     Edge 54, Type (0, 1), BuildingBlock: AJUNOK_clean_linker_0, # of connection points: 2
#     Edge 55, Type (0, 1), BuildingBlock: AJUNOK_clean_linker_0, # of connection points: 2
#     Edge 56, Type (0, 1), BuildingBlock: AJUNOK_clean_linker_0, # of connection points: 2
#     Edge 57, Type (0, 1), BuildingBlock: AJUNOK_clean_linker_0, # of connection points: 2
#     Edge 58, Type (0, 1), BuildingBlock: AJUNOK_clean_linker_0, # of connection points: 2
#     Edge 59, Type (0, 1), BuildingBlock: AJUNOK_clean_linker_0, # of connection points: 2
#     Edge 60, Type (0, 1), BuildingBlock: AJUNOK_clean_linker_0, # of connection points: 2
#     Edge 61, Type (0, 1), BuildingBlock: AJUNOK_clean_linker_0, # of connection points: 2
#     Edge 62, Type (0, 1), BuildingBlock: AJUNOK_clean_linker_0, # of connection points: 2
#     Edge 63, Type (0, 1), BuildingBlock: AJUNOK_clean_linker_0, # of connection points: 2
#     Edge 64, Type (0, 1), BuildingBlock: AJUNOK_clean_linker_0, # of connection points: 2
#     Edge 65, Type (0, 1), BuildingBlock: AJUNOK_clean_linker_0, # of connection points: 2
#     Edge 66, Type (0, 1), BuildingBlock: AJUNOK_clean_linker_0, # of connection points: 2
#     Edge 67, Type (0, 1), BuildingBlock: AJUNOK_clean_linker_0, # of connection points: 2
#     Edge 68, Type (0, 1), BuildingBlock: AJUNOK_clean_linker_0, # of connection points: 2
#     Edge 69, Type (0, 1), BuildingBlock: AJUNOK_clean_linker_0, # of connection points: 2
#     Edge 70, Type (0, 1), BuildingBlock: AJUNOK_clean_linker_0, # of connection points: 2
#     Edge 71, Type (0, 1), BuildingBlock: AJUNOK_clean_linker_0, # of connection points: 2
#     Edge 72, Type (0, 1), BuildingBlock: AJUNOK_clean_linker_0, # of connection points: 2
#     Edge 73, Type (0, 1), BuildingBlock: AJUNOK_clean_linker_0, # of connection points: 2
#     Edge 74, Type (0, 1), BuildingBlock: AJUNOK_clean_linker_0, # of connection points: 2
#     Edge 75, Type (0, 1), BuildingBlock: AJUNOK_clean_linker_0, # of connection points: 2
#     Edge 76, Type (0, 1), BuildingBlock: AJUNOK_clean_linker_0, # of connection points: 2
#     Edge 77, Type (0, 1), BuildingBlock: AJUNOK_clean_linker_0, # of connection points: 2
#     Edge 78, Type (0, 1), BuildingBlock: AJUNOK_clean_linker_0, # of connection points: 2
#     Edge 79, Type (0, 1), BuildingBlock: AJUNOK_clean_linker_0, # of connection points: 2
#     Edge 80, Type (0, 1), BuildingBlock: AJUNOK_clean_linker_0, # of connection points: 2
# Relax obj value: 0.035
# Max RMSD: 0.133
# Mean RMSD: 0.087
data_MOF--net-eea--node1-CUWYAW_clean_sbu_0--node2-VETTIZ_charged_linker_0--edge1-AJUNOK_clean_linker_0
_symmetry_space_group_name_H-M    P1
_symmetry_Int_Tables_number       1
_symmetry_cell_setting            triclinic
loop_
_symmetry_equiv_pos_as_xyz
'x, y, z'
_cell_length_a     48.25651
_cell_length_b     48.007352
_cell_length_c     74.027402
_cell_angle_alpha  93.279624
_cell_angle_beta   92.897053
_cell_angle_gamma 119.83363
loop_
_atom_site_label
_atom_site_type_symbol
_atom_site_fract_x
_atom_site_fract_y
_atom_site_fract_z
_atom_type_partial_charge
C0 C 0.2027 0.18529 0.37991 0.0
C1 C 0.20919 0.21549 0.38766 0.0
C2 C 0.22425 0.2264 0.40546 0.0
C3 C 0.22529 0.17662 0.40761 0.0
C4 C 0.21106 0.16646 0.39001 0.0
C5 C 0.20606 0.13398 0.3835 0.0
H6 H 0.21761 0.00306 0.39984 0.0
C7 C 0.23033 0.15086 0.41431 0.0
C8 C 0.21926 0.12598 0.40016 0.0
H9 H 0.18049 0.02161 0.35044 0.0
H10 H 0.19174 0.07324 0.3644 0.0
H11 H 0.27923 0.07517 0.40843 0.0
H12 H 0.18445 0.02791 0.42634 0.0
H13 H 0.21007 0.05305 0.44514 0.0
H14 H 0.21536 0.02085 0.43538 0.0
H15 H 0.26655 0.04468 0.424 0.0
H16 H 0.28322 0.08669 0.4318 0.0
C17 C 0.22635 0.13813 0.36721 0.0
C18 C 0.16951 0.11058 0.37914 0.0
C19 C 0.27593 0.16079 0.47949 0.0
C20 C 0.282 0.13989 0.48937 0.0
C21 C 0.27597 0.11034 0.48058 0.0
C22 C 0.26387 0.10151 0.46234 0.0
C23 C 0.25756 0.12236 0.45269 0.0
C24 C 0.26364 0.15149 0.4612 0.0
C25 C 0.25521 0.17035 0.44867 0.0
C26 C 0.24281 0.14753 0.43135 0.0
C27 C 0.24434 0.11952 0.43385 0.0
C28 C 0.28626 0.20225 0.44625 0.0
C29 C 0.2286 0.17495 0.4567 0.0
C30 C 0.21233 0.01851 0.39201 0.0
C31 C 0.19842 0.00853 0.37401 0.0
C32 C 0.19116 0.02888 0.36435 0.0
C33 C 0.19781 0.05887 0.37248 0.0
C34 C 0.2117 0.06858 0.39051 0.0
C35 C 0.21873 0.04853 0.39996 0.0
C36 C 0.23294 0.06264 0.41907 0.0
C37 C 0.23351 0.09459 0.41946 0.0
C38 C 0.22105 0.09787 0.40272 0.0
C39 C 0.26721 0.06744 0.42113 0.0
C40 C 0.20981 0.04002 0.43228 0.0
H41 H 0.2435 0.21645 0.42906 0.0
H42 H 0.1915 0.17656 0.36616 0.0
H43 H 0.15558 0.11617 0.38877 0.0
H44 H 0.1623 0.08517 0.38065 0.0
H45 H 0.16137 0.11245 0.36519 0.0
H46 H 0.24884 0.16199 0.3688 0.0
H47 H 0.21288 0.13661 0.35422 0.0
H48 H 0.23453 0.12038 0.36602 0.0
H49 H 0.28079 0.18387 0.4858 0.0
H50 H 0.28021 0.09375 0.48794 0.0
H51 H 0.25968 0.07863 0.45653 0.0
H52 H 0.30725 0.19852 0.4462 0.0
H53 H 0.29146 0.221 0.45749 0.0
H54 H 0.28538 0.21176 0.43314 0.0
H55 H 0.21069 0.15249 0.46225 0.0
H56 H 0.21471 0.18011 0.4465 0.0
H57 H 0.23883 0.19463 0.46795 0.0
H58 H 0.22933 0.24964 0.41166 0.0
C59 C 0.23229 0.20705 0.41552 0.0
C60 C 0.97375 0.19536 0.3874 0.0
C61 C 0.99955 0.22385 0.39616 0.0
C62 C 0.99855 0.23254 0.41455 0.0
C63 C 0.9471 0.1837 0.41532 0.0
C64 C 0.94811 0.17566 0.39721 0.0
C65 C 0.92013 0.14346 0.3901 0.0
H66 H 0.78642 0.00601 0.40484 0.0
C67 C 0.9177 0.157 0.42165 0.0
C68 C 0.90199 0.1334 0.40685 0.0
H69 H 0.83409 0.03094 0.35554 0.0
H70 H 0.87271 0.08368 0.3699 0.0
H71 H 0.84808 0.03321 0.43092 0.0
H72 H 0.79226 0.07631 0.41498 0.0
H73 H 0.80394 0.08787 0.43828 0.0
H74 H 0.77934 0.04563 0.43043 0.0
H75 H 0.81076 0.02297 0.44001 0.0
H76 H 0.84841 0.05597 0.45039 0.0
C77 C 0.9332 0.12091 0.3842 0.0
C78 C 0.90076 0.14886 0.37472 0.0
C79 C 0.89018 0.16047 0.48731 0.0
C80 C 0.86514 0.13785 0.49665 0.0
C81 C 0.84144 0.10859 0.48721 0.0
C82 C 0.84262 0.1016 0.46879 0.0
C83 C 0.86794 0.124 0.45962 0.0
C84 C 0.89124 0.1529 0.46879 0.0
C85 C 0.91675 0.17314 0.45668 0.0
C86 C 0.90451 0.15177 0.43877 0.0
C87 C 0.87591 0.12302 0.4407 0.0
C88 C 0.94913 0.1775 0.46459 0.0
C89 C 0.91672 0.20513 0.45527 0.0
C90 C 0.80502 0.02311 0.39717 0.0
C91 C 0.80756 0.0145 0.37915 0.0
C92 C 0.83205 0.03713 0.36953 0.0
C93 C 0.85442 0.0677 0.37791 0.0
C94 C 0.85244 0.07569 0.39617 0.0
C95 C 0.82784 0.05373 0.40543 0.0
C96 C 0.83006 0.06626 0.42486 0.0
C97 C 0.86025 0.09918 0.42574 0.0
C98 C 0.87316 0.10449 0.40892 0.0
C99 C 0.83432 0.04348 0.43731 0.0
C100 C 0.79982 0.06904 0.42746 0.0
H101 H 0.97304 0.22045 0.43814 0.0
H102 H 0.97409 0.18789 0.37336 0.0
H103 H 0.90052 0.17167 0.37792 0.0
H104 H 0.87522 0.12986 0.37289 0.0
H105 H 0.91144 0.15055 0.3616 0.0
H106 H 0.95581 0.12733 0.3925 0.0
H107 H 0.93845 0.12261 0.36974 0.0
H108 H 0.91678 0.09541 0.38631 0.0
H109 H 0.90872 0.18312 0.49433 0.0
H110 H 0.82182 0.09107 0.49416 0.0
H111 H 0.82382 0.07884 0.46247 0.0
H112 H 0.94559 0.15517 0.47036 0.0
H113 H 0.9606 0.19751 0.47565 0.0
H114 H 0.96615 0.18193 0.45423 0.0
H115 H 0.89172 0.20057 0.45356 0.0
H116 H 0.92824 0.21751 0.44338 0.0
H117 H 0.9289 0.22185 0.46774 0.0
H118 H 0.01818 0.25458 0.42151 0.0
C119 C 0.97239 0.2127 0.42416 0.0
C120 C 0.97044 0.77172 0.3901 0.0
C121 C 0.99864 0.77405 0.3982 0.0
C122 C 1.00091 0.7719 0.41716 0.0
C123 C 0.94795 0.76548 0.41929 0.0
C124 C 0.94599 0.76821 0.40084 0.0
C125 C 0.91647 0.76917 0.39444 0.0
H126 H 0.78989 0.7844 0.41507 0.0
C127 C 0.91904 0.76369 0.42659 0.0
C128 C 0.90091 0.76649 0.41204 0.0
H129 H 0.82092 0.7788 0.36179 0.0
H130 H 0.86232 0.77021 0.3751 0.0
H131 H 0.78869 0.72239 0.42478 0.0
H132 H 0.85768 0.82213 0.43885 0.0
H133 H 0.8522 0.80196 0.45869 0.0
H134 H 0.81841 0.80124 0.44675 0.0
H135 H 0.78642 0.74379 0.44472 0.0
H136 H 0.80865 0.72265 0.44531 0.0
C137 C 0.89562 0.73952 0.38052 0.0
C138 C 0.9274 0.80218 0.38685 0.0
C139 C 0.89504 0.74209 0.49266 0.0
C140 C 0.86956 0.7393 0.50249 0.0
C141 C 0.84604 0.74446 0.49384 0.0
C142 C 0.84769 0.75233 0.47592 0.0
C143 C 0.87288 0.75471 0.46621 0.0
C144 C 0.89626 0.7499 0.47453 0.0
C145 C 0.92146 0.75419 0.46183 0.0
C146 C 0.90794 0.76007 0.4443 0.0
C147 C 0.87969 0.7607 0.44717 0.0
C148 C 0.9227 0.72264 0.45975 0.0
C149 C 0.9537 0.78408 0.46949 0.0
C150 C 0.80506 0.78073 0.40612 0.0
C151 C 0.80201 0.7826 0.38728 0.0
C152 C 0.823 0.77822 0.37638 0.0
C153 C 0.847 0.77304 0.38412 0.0
C154 C 0.85002 0.77186 0.40299 0.0
C155 C 0.82856 0.77461 0.41354 0.0
C156 C 0.83318 0.76934 0.43302 0.0
C157 C 0.86234 0.76513 0.43264 0.0
C158 C 0.87242 0.76716 0.4151 0.0
C159 C 0.80273 0.73812 0.43732 0.0
C160 C 0.84059 0.80012 0.44509 0.0
H161 H 0.97883 0.76572 0.44195 0.0
H162 H 0.96756 0.77327 0.37565 0.0
H163 H 0.94843 0.82183 0.39545 0.0
H164 H 0.90905 0.80945 0.38679 0.0
H165 H 0.93459 0.80209 0.37283 0.0
H166 H 0.89826 0.71857 0.38378 0.0
H167 H 0.90266 0.74491 0.36653 0.0
H168 H 0.86968 0.73077 0.38067 0.0
H169 H 0.91348 0.73826 0.49895 0.0
H170 H 0.82574 0.74165 0.50084 0.0
H171 H 0.82903 0.75604 0.47029 0.0
H172 H 0.8981 0.70152 0.45671 0.0
H173 H 0.93344 0.71923 0.47246 0.0
H174 H 0.93657 0.72194 0.44851 0.0
H175 H 0.94974 0.80231 0.47707 0.0
H176 H 0.96879 0.79699 0.45869 0.0
H177 H 0.96747 0.77732 0.47898 0.0
H178 H 0.02261 0.77487 0.4241 0.0
C179 C 0.97563 0.76719 0.42765 0.0
C180 C 0.18604 0.22597 0.62399 0.0
C181 C 0.21033 0.22262 0.61614 0.0
C182 C 0.21397 0.22681 0.59752 0.0
C183 C 0.16916 0.23638 0.59491 0.0
C184 C 0.16539 0.23204 0.61309 0.0
C185 C 0.13653 0.23316 0.61894 0.0
H186 H 0.99598 0.22488 0.59539 0.0
C187 C 0.14313 0.2413 0.58732 0.0
C188 C 0.12357 0.23884 0.60121 0.0
H189 H 0.03844 0.2292 0.64928 0.0
H190 H 0.0866 0.23803 0.63681 0.0
H191 H 0.06361 0.29071 0.58774 0.0
H192 H 0.02562 0.18996 0.56996 0.0
H193 H 0.03794 0.21405 0.55144 0.0
H194 H 0.00608 0.21212 0.56384 0.0
H195 H 0.03206 0.27029 0.56971 0.0
H196 H 0.07378 0.28779 0.56556 0.0
C197 C 0.14804 0.26196 0.63365 0.0
C198 C 0.11324 0.19983 0.62537 0.0
C199 C 0.14423 0.27159 0.5229 0.0
C200 C 0.12455 0.27912 0.5121 0.0
C201 C 0.09541 0.274 0.51843 0.0
C202 C 0.08699 0.2632 0.53571 0.0
C203 C 0.10797 0.25753 0.54676 0.0
C204 C 0.13574 0.26119 0.54008 0.0
C205 C 0.15518 0.25382 0.55339 0.0
C206 C 0.13578 0.24734 0.56969 0.0
C207 C 0.10787 0.24913 0.56578 0.0
C208 C 0.18889 0.2842 0.55733 0.0
C209 C 0.1554 0.2233 0.54544 0.0
C210 C 0.01563 0.22809 0.60463 0.0
C211 C 0.01239 0.22494 0.62344 0.0
C212 C 0.03923 0.22979 0.6347 0.0
C213 C 0.06748 0.23517 0.62747 0.0
C214 C 0.06959 0.2364 0.6087 0.0
C215 C 0.04475 0.23469 0.59769 0.0
C216 C 0.05394 0.24184 0.57853 0.0
C217 C 0.08695 0.24475 0.57965 0.0
C218 C 0.09548 0.24081 0.59736 0.0
C219 C 0.0558 0.27419 0.57502 0.0
C220 C 0.02958 0.21308 0.56512 0.0
H221 H 0.19781 0.23676 0.57289 0.0
H222 H 0.18293 0.22378 0.63832 0.0
H223 H 0.11071 0.18007 0.61557 0.0
H224 H 0.08874 0.19547 0.62635 0.0
H225 H 0.12234 0.197 0.63882 0.0
H226 H 0.17345 0.28072 0.63265 0.0
H227 H 0.14631 0.254 0.64755 0.0
H228 H 0.13443 0.27479 0.63208 0.0
H229 H 0.16625 0.27431 0.51816 0.0
H230 H 0.07963 0.27923 0.51022 0.0
H231 H 0.06468 0.25994 0.53991 0.0
H232 H 0.18691 0.30626 0.5594 0.0
H233 H 0.20372 0.28715 0.54581 0.0
H234 H 0.20217 0.28386 0.56981 0.0
H235 H 0.13465 0.20838 0.53519 0.0
H236 H 0.15299 0.20684 0.55591 0.0
H237 H 0.17756 0.22981 0.53865 0.0
H238 H 0.2322 0.2241 0.59101 0.0
C239 C 0.19371 0.23384 0.58693 0.0
C240 C 0.81187 0.81926 0.62867 0.0
C241 C 0.80762 0.79014 0.62058 0.0
C242 C 0.79422 0.77987 0.60244 0.0
C243 C 0.79061 0.8284 0.60063 0.0
C244 C 0.80312 0.83779 0.61857 0.0
C245 C 0.80571 0.86903 0.62549 0.0
H246 H 0.78836 0.99714 0.61053 0.0
C247 C 0.78444 0.85361 0.5941 0.0
C248 C 0.79307 0.87728 0.60872 0.0
H249 H 0.82376 0.97729 0.66008 0.0
H250 H 0.81516 0.92708 0.64549 0.0
H251 H 0.82555 0.97775 0.58501 0.0
H252 H 0.72884 0.92271 0.59938 0.0
H253 H 0.72805 0.91477 0.57582 0.0
H254 H 0.74182 0.95544 0.58531 0.0
H255 H 0.79364 0.98201 0.57463 0.0
H256 H 0.80321 0.95246 0.56545 0.0
C257 C 0.84164 0.89376 0.63101 0.0
C258 C 0.78354 0.86233 0.6411 0.0
C259 C 0.74397 0.84677 0.52809 0.0
C260 C 0.73785 0.86779 0.51838 0.0
C261 C 0.74196 0.89628 0.52754 0.0
C262 C 0.75207 0.90391 0.54608 0.0
C263 C 0.7584 0.88296 0.55562 0.0
C264 C 0.75437 0.85492 0.54668 0.0
C265 C 0.76291 0.836 0.55914 0.0
C266 C 0.7729 0.8575 0.57691 0.0
C267 C 0.77001 0.88487 0.57471 0.0
C268 C 0.79122 0.83364 0.55181 0.0
C269 C 0.73242 0.80299 0.56039 0.0
C270 C 0.79373 0.98163 0.61824 0.0
C271 C 0.80652 0.99089 0.63647 0.0
C272 C 0.81392 0.97053 0.646 0.0
C273 C 0.80889 0.94141 0.6375 0.0
C274 C 0.79654 0.93259 0.61918 0.0
C275 C 0.78907 0.95249 0.60988 0.0
C276 C 0.77705 0.93955 0.59036 0.0
C277 C 0.77833 0.90849 0.58957 0.0
C278 C 0.78974 0.90462 0.60647 0.0
C279 C 0.80079 0.96413 0.57811 0.0
C280 C 0.74218 0.93288 0.58737 0.0
H281 H 0.77597 0.79015 0.57854 0.0
H282 H 0.82154 0.82731 0.64273 0.0
H283 H 0.76197 0.83782 0.63873 0.0
H284 H 0.7738 0.87882 0.64221 0.0
H285 H 0.79622 0.86376 0.65437 0.0
H286 H 0.85724 0.88991 0.62182 0.0
H287 H 0.84887 0.89147 0.64508 0.0
H288 H 0.84773 0.91897 0.62984 0.0
H289 H 0.74125 0.82483 0.52131 0.0
H290 H 0.73712 0.91264 0.52032 0.0
H291 H 0.75468 0.92596 0.55222 0.0
H292 H 0.80899 0.85696 0.54698 0.0
H293 H 0.78272 0.81476 0.5402 0.0
H294 H 0.80484 0.82858 0.56224 0.0
H295 H 0.71075 0.80558 0.56035 0.0
H296 H 0.73298 0.79235 0.57314 0.0
H297 H 0.72868 0.78559 0.54868 0.0
H298 H 0.79061 0.75729 0.59605 0.0
C299 C 0.78582 0.79898 0.59236 0.0
C300 C 0.03147 0.80684 0.62745 0.0
C301 C 0.00751 0.77657 0.61932 0.0
C302 C 0.00984 0.76694 0.60135 0.0
C303 C 0.05963 0.81734 0.60011 0.0
C304 C 0.05715 0.8266 0.61771 0.0
C305 C 0.08422 0.85955 0.62452 0.0
H306 H 0.22051 0.99476 0.61006 0.0
C307 C 0.0892 0.84388 0.59385 0.0
C308 C 0.10363 0.86856 0.6082 0.0
H309 H 0.16889 0.97402 0.6581 0.0
H310 H 0.12979 0.92127 0.64395 0.0
H311 H 0.21607 0.92721 0.60331 0.0
H312 H 0.15817 0.96438 0.58151 0.0
H313 H 0.16368 0.94295 0.56336 0.0
H314 H 0.19812 0.97724 0.5756 0.0
H315 H 0.22815 0.95303 0.58525 0.0
H316 H 0.20375 0.90971 0.58082 0.0
C317 C 0.10283 0.85609 0.64112 0.0
C318 C 0.06997 0.88173 0.62855 0.0
C319 C 0.12153 0.83606 0.52984 0.0
C320 C 0.14861 0.8569 0.52113 0.0
C321 C 0.17226 0.88624 0.53053 0.0
C322 C 0.16922 0.89487 0.54835 0.0
C323 C 0.14221 0.87396 0.55697 0.0
C324 C 0.119 0.84495 0.54786 0.0
C325 C 0.09264 0.8255 0.55968 0.0
C326 C 0.10375 0.84789 0.5772 0.0
C327 C 0.13269 0.87631 0.57536 0.0
C328 C 0.09259 0.79373 0.56234 0.0
C329 C 0.06071 0.82061 0.55067 0.0
C330 C 0.20097 0.97862 0.61757 0.0
C331 C 0.19777 0.98836 0.63523 0.0
C332 C 0.1717 0.96699 0.64445 0.0
C333 C 0.14908 0.93636 0.63621 0.0
C334 C 0.15241 0.92697 0.6185 0.0
C335 C 0.17807 0.94793 0.6095 0.0
C336 C 0.17749 0.93395 0.59069 0.0
C337 C 0.14713 0.90121 0.58986 0.0
C338 C 0.13262 0.89732 0.60616 0.0
C339 C 0.20795 0.93093 0.58979 0.0
C340 C 0.17443 0.9557 0.57696 0.0
H341 H 0.03621 0.7785 0.57809 0.0
H342 H 0.02995 0.81538 0.64103 0.0
H343 H 0.04828 0.87457 0.61915 0.0
H344 H 0.08653 0.90718 0.62639 0.0
H345 H 0.0628 0.88045 0.64263 0.0
H346 H 0.10366 0.83335 0.63924 0.0
H347 H 0.09118 0.85548 0.65377 0.0
H348 H 0.12822 0.87541 0.64316 0.0
H349 H 0.10309 0.8133 0.52288 0.0
H350 H 0.19308 0.90273 0.52396 0.0
H351 H 0.18807 0.9176 0.55467 0.0
H352 H 0.11751 0.79799 0.56364 0.0
H353 H 0.07925 0.77548 0.55058 0.0
H354 H 0.08238 0.78331 0.57494 0.0
H355 H 0.0644 0.8432 0.54518 0.0
H356 H 0.04226 0.8147 0.56029 0.0
H357 H 0.05096 0.80133 0.53921 0.0
H358 H 0.99156 0.74375 0.59476 0.0
C359 C 0.03579 0.78712 0.59171 0.0
C360 C 0.86485 0.51392 0.71342 0.0
C361 C 0.86949 0.54335 0.72132 0.0
C362 C 0.88401 0.55439 0.73922 0.0
C363 C 0.88731 0.50582 0.74136 0.0
C364 C 0.87396 0.49571 0.72359 0.0
C365 C 0.87051 0.46387 0.71707 0.0
H366 H 0.88479 0.33472 0.73432 0.0
C367 C 0.89315 0.48063 0.74818 0.0
C368 C 0.88354 0.45617 0.73392 0.0
H369 H 0.84904 0.35271 0.68425 0.0
H370 H 0.85934 0.4042 0.69792 0.0
H371 H 0.94576 0.40843 0.74388 0.0
H372 H 0.84959 0.35731 0.75958 0.0
H373 H 0.87315 0.38316 0.77871 0.0
H374 H 0.88105 0.35222 0.76984 0.0
H375 H 0.9326 0.37694 0.75883 0.0
H376 H 0.94771 0.4184 0.76731 0.0
C377 C 0.89186 0.46925 0.70117 0.0
C378 C 0.83432 0.43949 0.71211 0.0
C379 C 0.9344 0.48988 0.81422 0.0
C380 C 0.94015 0.46904 0.82432 0.0
C381 C 0.93556 0.44003 0.8156 0.0
C382 C 0.92523 0.43167 0.79711 0.0
C383 C 0.91916 0.45243 0.78719 0.0
C384 C 0.92382 0.48103 0.79569 0.0
C385 C 0.91551 0.49965 0.78292 0.0
C386 C 0.90491 0.47734 0.76544 0.0
C387 C 0.90722 0.4498 0.76809 0.0
C388 C 0.94629 0.53222 0.7812 0.0
C389 C 0.88764 0.50292 0.7902 0.0
C390 C 0.87969 0.35007 0.72628 0.0
C391 C 0.86634 0.33995 0.70819 0.0
C392 C 0.8593 0.36014 0.69823 0.0
C393 C 0.86534 0.39 0.7062 0.0
C394 C 0.87831 0.3997 0.72439 0.0
C395 C 0.88538 0.37992 0.73409 0.0
C396 C 0.89825 0.39382 0.75338 0.0
C397 C 0.89794 0.42532 0.75361 0.0
C398 C 0.88623 0.42857 0.73661 0.0
C399 C 0.93282 0.3996 0.75619 0.0
C400 C 0.87459 0.37051 0.76616 0.0
H401 H 0.90349 0.54511 0.76296 0.0
H402 H 0.85437 0.50527 0.69953 0.0
H403 H 0.81939 0.44406 0.72148 0.0
H404 H 0.82791 0.41425 0.71349 0.0
H405 H 0.8266 0.4414 0.69807 0.0
H406 H 0.91386 0.49349 0.70316 0.0
H407 H 0.87883 0.46766 0.688 0.0
H408 H 0.90087 0.45215 0.70012 0.0
H409 H 0.93749 0.5122 0.82066 0.0
H410 H 0.94012 0.42381 0.82314 0.0
H411 H 0.92219 0.40924 0.79131 0.0
H412 H 0.9678 0.52933 0.78171 0.0
H413 H 0.95016 0.55047 0.79245 0.0
H414 H 0.94602 0.54197 0.76808 0.0
H415 H 0.86983 0.48007 0.79547 0.0
H416 H 0.8739 0.50758 0.77965 0.0
H417 H 0.89662 0.52241 0.8015 0.0
H418 H 0.88797 0.57721 0.74545 0.0
C419 C 0.89287 0.5357 0.74932 0.0
C420 C 0.63917 0.52859 0.71964 0.0
C421 C 0.66643 0.55566 0.72866 0.0
C422 C 0.66746 0.56147 0.74771 0.0
C423 C 0.61474 0.51408 0.74808 0.0
C424 C 0.61424 0.50797 0.72956 0.0
C425 C 0.58575 0.47641 0.72206 0.0
H426 H 0.45088 0.33921 0.73566 0.0
C427 C 0.5852 0.48731 0.75422 0.0
C428 C 0.56851 0.46501 0.73899 0.0
H429 H 0.49843 0.36521 0.68636 0.0
H430 H 0.5381 0.41709 0.70134 0.0
H431 H 0.51422 0.36605 0.76242 0.0
H432 H 0.45626 0.40656 0.7462 0.0
H433 H 0.47136 0.42305 0.76866 0.0
H434 H 0.44586 0.37991 0.76383 0.0
H435 H 0.47482 0.35282 0.76941 0.0
H436 H 0.51004 0.38542 0.7821 0.0
C437 C 0.59803 0.45402 0.71453 0.0
C438 C 0.56583 0.4833 0.70782 0.0
C439 C 0.55553 0.49054 0.81942 0.0
C440 C 0.52831 0.46944 0.828 0.0
C441 C 0.50428 0.44078 0.81815 0.0
C442 C 0.50689 0.43324 0.80006 0.0
C443 C 0.53384 0.45454 0.79155 0.0
C444 C 0.55769 0.48266 0.80112 0.0
C445 C 0.58438 0.50226 0.78948 0.0
C446 C 0.57195 0.48163 0.77132 0.0
C447 C 0.54249 0.45357 0.7728 0.0
C448 C 0.61553 0.50424 0.79767 0.0
C449 C 0.58681 0.53545 0.78839 0.0
C450 C 0.46968 0.35633 0.7281 0.0
C451 C 0.47166 0.34834 0.70985 0.0
C452 C 0.49666 0.37093 0.70048 0.0
C453 C 0.51968 0.40096 0.70922 0.0
C454 C 0.51794 0.40837 0.72762 0.0
C455 C 0.4931 0.38634 0.73671 0.0
C456 C 0.49538 0.39825 0.75625 0.0
C457 C 0.52625 0.43063 0.75753 0.0
C458 C 0.53921 0.43641 0.74072 0.0
C459 C 0.49858 0.37444 0.76831 0.0
C460 C 0.46569 0.40201 0.75905 0.0
H461 H 0.64388 0.54677 0.77182 0.0
H462 H 0.63737 0.52302 0.7051 0.0
H463 H 0.56432 0.50483 0.71269 0.0
H464 H 0.54073 0.46346 0.7052 0.0
H465 H 0.57698 0.48815 0.69475 0.0
H466 H 0.62216 0.46102 0.72107 0.0
H467 H 0.59996 0.45493 0.69966 0.0
H468 H 0.58272 0.42865 0.7174 0.0
H469 H 0.57429 0.51283 0.82665 0.0
H470 H 0.48333 0.42403 0.82452 0.0
H471 H 0.48768 0.41104 0.79342 0.0
H472 H 0.61019 0.48168 0.80384 0.0
H473 H 0.6282 0.52458 0.80848 0.0
H474 H 0.63212 0.50668 0.78733 0.0
H475 H 0.56258 0.5324 0.78539 0.0
H476 H 0.60114 0.5488 0.77749 0.0
H477 H 0.59749 0.55073 0.80147 0.0
H478 H 0.68855 0.58124 0.75528 0.0
C479 C 0.64165 0.5411 0.7574 0.0
C480 C 0.63807 0.10759 0.72315 0.0
C481 C 0.66282 0.10298 0.73036 0.0
C482 C 0.66126 0.09284 0.74801 0.0
C483 C 0.61077 0.09185 0.75073 0.0
C484 C 0.61247 0.10184 0.73344 0.0
C485 C 0.58467 0.10611 0.72763 0.0
H486 H 0.44628 0.10056 0.74575 0.0
C487 C 0.58099 0.08841 0.75774 0.0
C488 C 0.56569 0.09669 0.74412 0.0
H489 H 0.49699 0.13019 0.69767 0.0
H490 H 0.53727 0.11892 0.71 0.0
H491 H 0.45317 0.04025 0.74977 0.0
H492 H 0.50949 0.13771 0.77405 0.0
H493 H 0.50511 0.11257 0.79129 0.0
H494 H 0.46995 0.11006 0.7799 0.0
H495 H 0.44128 0.0546 0.76909 0.0
H496 H 0.46678 0.03719 0.77157 0.0
C497 C 0.56603 0.08223 0.71062 0.0
C498 C 0.59789 0.14213 0.72464 0.0
C499 C 0.55082 0.05454 0.8216 0.0
C500 C 0.52385 0.04872 0.83093 0.0
C501 C 0.49925 0.05186 0.82191 0.0
C502 C 0.50149 0.06115 0.80427 0.0
C503 C 0.52859 0.06737 0.79525 0.0
C504 C 0.55254 0.0636 0.80372 0.0
C505 C 0.57884 0.07012 0.79143 0.0
C506 C 0.56687 0.07902 0.77445 0.0
C507 C 0.53752 0.07757 0.77698 0.0
C508 C 0.57984 0.03861 0.78772 0.0
C509 C 0.61058 0.09876 0.80058 0.0
C510 C 0.46626 0.10495 0.73797 0.0
C511 C 0.46868 0.11663 0.72081 0.0
C512 C 0.49459 0.12115 0.71092 0.0
C513 C 0.51804 0.11474 0.71815 0.0
C514 C 0.51562 0.10364 0.7355 0.0
C515 C 0.48997 0.09884 0.74505 0.0
C516 C 0.49138 0.08723 0.76331 0.0
C517 C 0.52229 0.0861 0.76323 0.0
C518 C 0.53632 0.09566 0.74692 0.0
C519 C 0.4616 0.05317 0.76364 0.0
C520 C 0.4939 0.11294 0.77802 0.0
H521 H 0.63563 0.07963 0.77154 0.0
H522 H 0.63891 0.11626 0.70988 0.0
H523 H 0.61953 0.15806 0.73413 0.0
H524 H 0.58081 0.15046 0.72749 0.0
H525 H 0.60483 0.14692 0.71059 0.0
H526 H 0.5656 0.05899 0.71169 0.0
H527 H 0.57741 0.09221 0.69807 0.0
H528 H 0.54054 0.07556 0.70893 0.0
H529 H 0.57028 0.05256 0.82809 0.0
H530 H 0.47794 0.0469 0.82852 0.0
H531 H 0.4819 0.06316 0.79837 0.0
H532 H 0.55514 0.01733 0.78592 0.0
H533 H 0.59315 0.03512 0.79923 0.0
H534 H 0.59062 0.03776 0.77506 0.0
H535 H 0.60648 0.11805 0.80659 0.0
H536 H 0.62882 0.11037 0.79094 0.0
H537 H 0.62078 0.09097 0.81167 0.0
H538 H 0.68009 0.08923 0.75393 0.0
C539 C 0.63539 0.08721 0.7582 0.0
C540 C 0.85548 0.56004 0.95767 0.0
C541 C 0.88071 0.55848 0.94976 0.0
C542 C 0.8833 0.56187 0.93099 0.0
C543 C 0.83748 0.56984 0.92871 0.0
C544 C 0.834 0.5652 0.94687 0.0
C545 C 0.80441 0.5648 0.95277 0.0
H546 H 0.66802 0.56798 0.9311 0.0
C547 C 0.81099 0.57419 0.92128 0.0
C548 C 0.79116 0.57067 0.93522 0.0
H549 H 0.70139 0.55186 0.9826 0.0
H550 H 0.75011 0.56048 0.97038 0.0
H551 H 0.73889 0.62897 0.92396 0.0
H552 H 0.69056 0.5277 0.90496 0.0
H553 H 0.70675 0.5509 0.8866 0.0
H554 H 0.67633 0.55404 0.89814 0.0
H555 H 0.70506 0.61112 0.90718 0.0
H556 H 0.74531 0.6253 0.90101 0.0
C557 C 0.81503 0.593 0.9677 0.0
C558 C 0.78168 0.53091 0.95883 0.0
C559 C 0.81086 0.60511 0.85687 0.0
C560 C 0.79038 0.6117 0.84608 0.0
C561 C 0.76226 0.60811 0.85316 0.0
C562 C 0.75515 0.59884 0.87081 0.0
C563 C 0.77631 0.59298 0.88154 0.0
C564 C 0.80346 0.59589 0.8744 0.0
C565 C 0.82302 0.58817 0.88745 0.0
C566 C 0.8039 0.58142 0.90391 0.0
C567 C 0.77641 0.58406 0.90042 0.0
C568 C 0.85677 0.61847 0.89134 0.0
C569 C 0.82307 0.55774 0.87917 0.0
C570 C 0.68586 0.56622 0.93966 0.0
C571 C 0.68073 0.55883 0.95779 0.0
C572 C 0.7048 0.55752 0.96864 0.0
C573 C 0.73298 0.56228 0.96146 0.0
C574 C 0.73733 0.56852 0.94319 0.0
C575 C 0.71433 0.57107 0.93268 0.0
C576 C 0.72384 0.57899 0.91371 0.0
C577 C 0.75554 0.57922 0.91437 0.0
C578 C 0.76318 0.57297 0.9317 0.0
C579 C 0.72836 0.61274 0.91114 0.0
C580 C 0.69803 0.55168 0.90001 0.0
H581 H 0.86571 0.5705 0.90642 0.0
H582 H 0.85228 0.55705 0.97194 0.0
H583 H 0.78456 0.51198 0.9512 0.0
H584 H 0.75604 0.52315 0.95598 0.0
H585 H 0.78671 0.52996 0.97352 0.0
H586 H 0.83736 0.6147 0.96452 0.0
H587 H 0.81997 0.58643 0.98114 0.0
H588 H 0.79728 0.60101 0.96883 0.0
H589 H 0.83262 0.60757 0.85189 0.0
H590 H 0.74561 0.61222 0.845 0.0
H591 H 0.73343 0.59652 0.87541 0.0
H592 H 0.85484 0.6405 0.89382 0.0
H593 H 0.87125 0.62174 0.87962 0.0
H594 H 0.87035 0.61779 0.90357 0.0
H595 H 0.8021 0.54295 0.86904 0.0
H596 H 0.8209 0.54111 0.8895 0.0
H597 H 0.84505 0.56435 0.87217 0.0
H598 H 0.90126 0.55915 0.92419 0.0
C599 C 0.86218 0.56792 0.92054 0.0
C600 C 0.47727 0.15202 0.96351 0.0
C601 C 0.47187 0.12239 0.95548 0.0
C602 C 0.45707 0.11171 0.93762 0.0
C603 C 0.45467 0.16092 0.93589 0.0
C604 C 0.46846 0.17069 0.95359 0.0
C605 C 0.47247 0.20259 0.96045 0.0
H606 H 0.45845 0.33272 0.94579 0.0
C607 C 0.4489 0.18646 0.92948 0.0
C608 C 0.45913 0.21074 0.94392 0.0
H609 H 0.49608 0.31327 0.99465 0.0
H610 H 0.48499 0.262 0.98027 0.0
H611 H 0.49234 0.30934 0.91892 0.0
H612 H 0.39741 0.26021 0.93652 0.0
H613 H 0.39365 0.24887 0.91315 0.0
H614 H 0.40954 0.29076 0.92101 0.0
H615 H 0.46118 0.31637 0.91027 0.0
H616 H 0.46695 0.2849 0.89987 0.0
C617 C 0.50883 0.22662 0.96511 0.0
C618 C 0.45169 0.19722 0.97664 0.0
C619 C 0.40406 0.17838 0.86425 0.0
C620 C 0.39703 0.19909 0.85481 0.0
C621 C 0.40207 0.22793 0.86405 0.0
C622 C 0.41401 0.23622 0.88231 0.0
C623 C 0.42114 0.21552 0.89157 0.0
C624 C 0.41609 0.18708 0.88261 0.0
C625 C 0.42492 0.16812 0.89487 0.0
C626 C 0.43645 0.19014 0.91251 0.0
C627 C 0.43411 0.21784 0.9104 0.0
C628 C 0.45223 0.16478 0.88685 0.0
C629 C 0.39428 0.13556 0.89678 0.0
C630 C 0.46398 0.31716 0.95336 0.0
C631 C 0.47833 0.32693 0.97128 0.0
C632 C 0.4854 0.30628 0.98073 0.0
C633 C 0.47885 0.2765 0.97236 0.0
C634 C 0.46516 0.26726 0.95429 0.0
C635 C 0.45781 0.28737 0.94512 0.0
C636 C 0.44395 0.27376 0.92589 0.0
C637 C 0.44411 0.24212 0.92509 0.0
C638 C 0.45652 0.23851 0.94174 0.0
C639 C 0.46699 0.29722 0.91295 0.0
C640 C 0.4094 0.26823 0.92384 0.0
H641 H 0.43765 0.12179 0.9141 0.0
H642 H 0.488 0.16043 0.97738 0.0
H643 H 0.42961 0.17302 0.97478 0.0
H644 H 0.44278 0.21438 0.97799 0.0
H645 H 0.46511 0.1987 0.98964 0.0
H646 H 0.52332 0.22178 0.95554 0.0
H647 H 0.51686 0.22462 0.97906 0.0
H648 H 0.5155 0.25195 0.96377 0.0
H649 H 0.39997 0.15581 0.85756 0.0
H650 H 0.39703 0.24434 0.85703 0.0
H651 H 0.41735 0.25855 0.88848 0.0
H652 H 0.47023 0.18796 0.88199 0.0
H653 H 0.44272 0.14604 0.87512 0.0
H654 H 0.46576 0.15892 0.89689 0.0
H655 H 0.37289 0.13861 0.89699 0.0
H656 H 0.39528 0.12544 0.90966 0.0
H657 H 0.38969 0.11754 0.88523 0.0
H658 H 0.45252 0.08874 0.93128 0.0
C659 C 0.44856 0.13093 0.92772 0.0
C660 C 0.70044 0.1399 0.96156 0.0
C661 C 0.67442 0.11167 0.95273 0.0
C662 C 0.6749 0.1034 0.93421 0.0
C663 C 0.72642 0.15206 0.93342 0.0
C664 C 0.72588 0.15981 0.95166 0.0
C665 C 0.75394 0.19208 0.95869 0.0
H666 H 0.88774 0.32901 0.94298 0.0
C667 C 0.7556 0.1788 0.92697 0.0
C668 C 0.77165 0.20232 0.94178 0.0
H669 H 0.84143 0.30548 0.99279 0.0
H670 H 0.80178 0.25281 0.97863 0.0
H671 H 0.88201 0.26005 0.93324 0.0
H672 H 0.82477 0.30155 0.91724 0.0
H673 H 0.82562 0.27962 0.89772 0.0
H674 H 0.86265 0.31276 0.9086 0.0
H675 H 0.89353 0.28882 0.91669 0.0
H676 H 0.86856 0.24603 0.91032 0.0
C677 C 0.77375 0.18673 0.97379 0.0
C678 C 0.74096 0.21452 0.96494 0.0
C679 C 0.78189 0.17516 0.86106 0.0
C680 C 0.80745 0.19717 0.85172 0.0
C681 C 0.83159 0.22618 0.86122 0.0
C682 C 0.83046 0.23338 0.87962 0.0
C683 C 0.80482 0.21146 0.88877 0.0
C684 C 0.78108 0.18283 0.8796 0.0
C685 C 0.75569 0.16274 0.89179 0.0
C686 C 0.76842 0.18398 0.90975 0.0
C687 C 0.79711 0.21252 0.90774 0.0
C688 C 0.75534 0.13051 0.89298 0.0
C689 C 0.72337 0.15886 0.88415 0.0
C690 C 0.86931 0.31225 0.95087 0.0
C691 C 0.86768 0.32116 0.96901 0.0
C692 C 0.843 0.29903 0.97876 0.0
C693 C 0.82004 0.2685 0.97051 0.0
C694 C 0.82154 0.26011 0.95222 0.0
C695 C 0.84601 0.28177 0.94278 0.0
C696 C 0.8434 0.26905 0.92337 0.0
C697 C 0.81309 0.23633 0.92266 0.0
C698 C 0.80046 0.23122 0.93958 0.0
C699 C 0.87343 0.26595 0.92057 0.0
C700 C 0.83911 0.29187 0.91096 0.0
H701 H 0.69977 0.11592 0.91044 0.0
H702 H 0.70032 0.14707 0.97569 0.0
H703 H 0.71796 0.20789 0.95702 0.0
H704 H 0.75711 0.23999 0.96264 0.0
H705 H 0.73646 0.213 0.97952 0.0
H706 H 0.77501 0.16462 0.97008 0.0
H707 H 0.76269 0.1837 0.98687 0.0
H708 H 0.79896 0.20645 0.97596 0.0
H709 H 0.76283 0.15278 0.85407 0.0
H710 H 0.85169 0.24329 0.8544 0.0
H711 H 0.84967 0.25589 0.88596 0.0
H712 H 0.78024 0.13473 0.89435 0.0
H713 H 0.74263 0.11383 0.88055 0.0
H714 H 0.74419 0.11821 0.90496 0.0
H715 H 0.72711 0.18127 0.8784 0.0
H716 H 0.70668 0.15477 0.89467 0.0
H717 H 0.71143 0.13881 0.87313 0.0
H718 H 0.65492 0.08169 0.92719 0.0
C719 C 0.70086 0.12333 0.92453 0.0
C720 C 0.53237 0.84783 0.04776 0.0
C721 C 0.53722 0.8769 0.05635 0.0
C722 C 0.55153 0.88669 0.07433 0.0
C723 C 0.55438 0.83762 0.07513 0.0
C724 C 0.54122 0.82878 0.05729 0.0
C725 C 0.53774 0.79732 0.04991 0.0
H726 H 0.5501 0.66586 0.06367 0.0
C727 C 0.56023 0.81193 0.08111 0.0
C728 C 0.55084 0.78849 0.06627 0.0
H729 H 0.51451 0.68695 0.01466 0.0
H730 H 0.52647 0.73854 0.0292 0.0
H731 H 0.61143 0.7358 0.07315 0.0
H732 H 0.51628 0.69049 0.09043 0.0
H733 H 0.54251 0.71217 0.10978 0.0
H734 H 0.54579 0.68028 0.0979 0.0
H735 H 0.59939 0.7077 0.09008 0.0
H736 H 0.61583 0.75039 0.096 0.0
C737 C 0.559 0.80377 0.03389 0.0
C738 C 0.50155 0.77316 0.04483 0.0
C739 C 0.59837 0.81448 0.14702 0.0
C740 C 0.60466 0.79303 0.15618 0.0
C741 C 0.60296 0.7663 0.14618 0.0
C742 C 0.59373 0.76007 0.12755 0.0
C743 C 0.58616 0.78082 0.1187 0.0
C744 C 0.58914 0.80789 0.12828 0.0
C745 C 0.58112 0.82768 0.11624 0.0
C746 C 0.57183 0.80735 0.09807 0.0
C747 C 0.5747 0.77988 0.09973 0.0
C748 C 0.61172 0.86096 0.11576 0.0
C749 C 0.55245 0.82943 0.12348 0.0
C750 C 0.54525 0.68183 0.05606 0.0
C751 C 0.53112 0.6724 0.03811 0.0
C752 C 0.52496 0.69364 0.02862 0.0
C753 C 0.532 0.72357 0.03708 0.0
C754 C 0.54521 0.73231 0.05526 0.0
C755 C 0.5519 0.71169 0.06437 0.0
C756 C 0.56526 0.72461 0.0837 0.0
C757 C 0.56545 0.75638 0.08472 0.0
C758 C 0.55365 0.76072 0.06807 0.0
C759 C 0.59968 0.72976 0.08603 0.0
C760 C 0.54154 0.70074 0.09623 0.0
H761 H 0.57047 0.87549 0.09757 0.0
H762 H 0.52195 0.84013 0.03381 0.0
H763 H 0.48668 0.77696 0.0546 0.0
H764 H 0.49515 0.74775 0.04546 0.0
H765 H 0.49374 0.77615 0.03106 0.0
H766 H 0.58114 0.82787 0.03629 0.0
H767 H 0.546 0.80326 0.02094 0.0
H768 H 0.56777 0.78656 0.03213 0.0
H769 H 0.60005 0.83555 0.15434 0.0
H770 H 0.60888 0.75013 0.15281 0.0
H771 H 0.5926 0.73912 0.12082 0.0
H772 H 0.63366 0.85883 0.11687 0.0
H773 H 0.614 0.87821 0.1272 0.0
H774 H 0.61252 0.87158 0.10281 0.0
H775 H 0.53387 0.80534 0.12703 0.0
H776 H 0.54015 0.83663 0.11343 0.0
H777 H 0.56029 0.84655 0.13592 0.0
H778 H 0.55561 0.9092 0.08109 0.0
C779 C 0.56003 0.86709 0.08382 0.0
C780 C 0.30732 0.86336 0.05349 0.0
C781 C 0.33371 0.89095 0.06256 0.0
C782 C 0.33334 0.89871 0.08118 0.0
C783 C 0.28077 0.85108 0.08143 0.0
C784 C 0.28148 0.84367 0.06317 0.0
C785 C 0.25307 0.81195 0.0558 0.0
H786 H 0.11835 0.67498 0.06993 0.0
C787 C 0.2508 0.82478 0.0875 0.0
C788 C 0.23474 0.80174 0.07248 0.0
H789 H 0.16683 0.69982 0.02088 0.0
H790 H 0.2052 0.75261 0.03529 0.0
H791 H 0.18147 0.70509 0.09755 0.0
H792 H 0.12135 0.74168 0.07869 0.0
H793 H 0.13636 0.76041 0.10081 0.0
H794 H 0.11164 0.717 0.09725 0.0
H795 H 0.14122 0.69057 0.10347 0.0
H796 H 0.17497 0.72418 0.11652 0.0
C797 C 0.2654 0.7889 0.04956 0.0
C798 C 0.23422 0.81834 0.0406 0.0
C799 C 0.22035 0.82955 0.15238 0.0
C800 C 0.19282 0.80895 0.16085 0.0
C801 C 0.16859 0.78037 0.15107 0.0
C802 C 0.17132 0.77241 0.13307 0.0
C803 C 0.19861 0.79322 0.12463 0.0
C804 C 0.22257 0.82136 0.13415 0.0
C805 C 0.24929 0.84075 0.12249 0.0
C806 C 0.23704 0.81974 0.10445 0.0
C807 C 0.20753 0.79176 0.10599 0.0
C808 C 0.28045 0.84304 0.13091 0.0
C809 C 0.25148 0.87379 0.12105 0.0
C810 C 0.13711 0.69203 0.06232 0.0
C811 C 0.14004 0.68326 0.0444 0.0
C812 C 0.16459 0.70598 0.03483 0.0
C813 C 0.18682 0.73659 0.04323 0.0
C814 C 0.18459 0.74459 0.06144 0.0
C815 C 0.15973 0.72271 0.07059 0.0
C816 C 0.16128 0.73549 0.08986 0.0
C817 C 0.19181 0.76818 0.09093 0.0
C818 C 0.20528 0.77329 0.07426 0.0
C819 C 0.16472 0.7127 0.10264 0.0
C820 C 0.13111 0.73869 0.09192 0.0
H821 H 0.30802 0.88603 0.10481 0.0
H822 H 0.30739 0.8565 0.03929 0.0
H823 H 0.23375 0.84088 0.04434 0.0
H824 H 0.20876 0.79924 0.03827 0.0
H825 H 0.2455 0.82115 0.02761 0.0
H826 H 0.28841 0.79522 0.05736 0.0
H827 H 0.26963 0.79005 0.03495 0.0
H828 H 0.24898 0.76357 0.05203 0.0
H829 H 0.23928 0.8517 0.15965 0.0
H830 H 0.14742 0.76405 0.15745 0.0
H831 H 0.15198 0.75029 0.12645 0.0
H832 H 0.27522 0.82014 0.1366 0.0
H833 H 0.29224 0.86276 0.14211 0.0
H834 H 0.29777 0.84672 0.12083 0.0
H835 H 0.2271 0.8707 0.11882 0.0
H836 H 0.26429 0.88613 0.10947 0.0
H837 H 0.2635 0.88998 0.13372 0.0
H838 H 0.35366 0.91988 0.08841 0.0
C839 C 0.30691 0.87902 0.09065 0.0
C840 C 0.30473 0.43663 0.05614 0.0
C841 C 0.33224 0.43768 0.06432 0.0
C842 C 0.33338 0.43355 0.08307 0.0
C843 C 0.28048 0.42748 0.08484 0.0
C844 C 0.27973 0.43224 0.06662 0.0
C845 C 0.2507 0.43406 0.06019 0.0
H846 H 0.1224 0.44677 0.08026 0.0
C847 C 0.2511 0.42492 0.09189 0.0
C848 C 0.23398 0.42943 0.07749 0.0
H849 H 0.15799 0.44774 0.02768 0.0
H850 H 0.19803 0.43721 0.04084 0.0
H851 H 0.12032 0.38362 0.0877 0.0
H852 H 0.18924 0.48168 0.1062 0.0
H853 H 0.18098 0.45835 0.12491 0.0
H854 H 0.14885 0.45993 0.1125 0.0
H855 H 0.11684 0.40225 0.10843 0.0
H856 H 0.13884 0.38088 0.10801 0.0
C857 C 0.23055 0.40588 0.04529 0.0
C858 C 0.26246 0.4681 0.05384 0.0
C859 C 0.22166 0.39357 0.15607 0.0
C860 C 0.19458 0.38785 0.16515 0.0
C861 C 0.17193 0.39464 0.15698 0.0
C862 C 0.17542 0.40598 0.13981 0.0
C863 C 0.20173 0.41037 0.1305 0.0
C864 C 0.2246 0.40459 0.13863 0.0
C865 C 0.25087 0.41082 0.12638 0.0
C866 C 0.23865 0.41903 0.10923 0.0
C867 C 0.2101 0.41916 0.11195 0.0
C868 C 0.25234 0.37953 0.12303 0.0
C869 C 0.28256 0.43993 0.13534 0.0
C870 C 0.13882 0.44479 0.07155 0.0
C871 C 0.13792 0.44984 0.05303 0.0
C872 C 0.1592 0.44591 0.04217 0.0
C873 C 0.18228 0.43937 0.0498 0.0
C874 C 0.18385 0.43601 0.06848 0.0
C875 C 0.16157 0.43748 0.07887 0.0
C876 C 0.16455 0.42953 0.09798 0.0
C877 C 0.1938 0.42539 0.09764 0.0
C878 C 0.20524 0.42968 0.08041 0.0
C879 C 0.1336 0.39758 0.10082 0.0
C880 C 0.17108 0.45874 0.11121 0.0
H881 H 0.30991 0.42514 0.10743 0.0
H882 H 0.30278 0.43973 0.04185 0.0
H883 H 0.283 0.4868 0.06315 0.0
H884 H 0.24421 0.4755 0.05391 0.0
H885 H 0.27065 0.46958 0.03999 0.0
H886 H 0.23316 0.38457 0.04765 0.0
H887 H 0.23821 0.41301 0.03159 0.0
H888 H 0.20452 0.39682 0.04523 0.0
H889 H 0.23948 0.38867 0.16216 0.0
H890 H 0.15119 0.39076 0.16389 0.0
H891 H 0.15727 0.41062 0.13438 0.0
H892 H 0.22787 0.35857 0.11924 0.0
H893 H 0.26245 0.37464 0.13547 0.0
H894 H 0.26682 0.38027 0.11182 0.0
H895 H 0.27795 0.4573 0.14334 0.0
H896 H 0.29874 0.45418 0.12525 0.0
H897 H 0.29543 0.43201 0.14472 0.0
H898 H 0.35457 0.43545 0.09006 0.0
C899 C 0.30757 0.4281 0.09328 0.0
C900 C 0.51895 0.89087 0.29098 0.0
C901 C 0.54586 0.89251 0.28353 0.0
C902 C 0.55263 0.90265 0.26601 0.0
C903 C 0.50509 0.90768 0.2632 0.0
C904 C 0.49881 0.8983 0.28054 0.0
C905 C 0.46815 0.89606 0.28591 0.0
H906 H 0.33506 0.90556 0.26476 0.0
C907 C 0.47876 0.91225 0.2557 0.0
C908 C 0.45698 0.90539 0.26889 0.0
H909 H 0.36436 0.88138 0.31484 0.0
H910 H 0.41247 0.88877 0.30261 0.0
H911 H 0.40733 0.96551 0.25867 0.0
H912 H 0.35761 0.86518 0.23726 0.0
H913 H 0.37537 0.88988 0.2197 0.0
H914 H 0.34438 0.89255 0.23091 0.0
H915 H 0.37252 0.94879 0.2426 0.0
H916 H 0.41199 0.96267 0.23531 0.0
C917 C 0.47664 0.92109 0.30246 0.0
C918 C 0.4448 0.86059 0.28941 0.0
C919 C 0.4821 0.94726 0.19217 0.0
C920 C 0.46169 0.95338 0.18103 0.0
C921 C 0.43288 0.94888 0.18756 0.0
C922 C 0.42483 0.93877 0.205 0.0
C923 C 0.4458 0.93309 0.21605 0.0
C924 C 0.47378 0.93722 0.20944 0.0
C925 C 0.49325 0.92988 0.22273 0.0
C926 C 0.47278 0.92117 0.23861 0.0
C927 C 0.4449 0.923 0.23475 0.0
C928 C 0.52614 0.96105 0.22759 0.0
C929 C 0.49526 0.90073 0.21418 0.0
C930 C 0.35196 0.9019 0.273 0.0
C931 C 0.34613 0.89332 0.29091 0.0
C932 C 0.36861 0.88869 0.3012 0.0
C933 C 0.39649 0.89277 0.29401 0.0
C934 C 0.40217 0.90148 0.2762 0.0
C935 C 0.38024 0.90608 0.26598 0.0
C936 C 0.39096 0.91582 0.24738 0.0
C937 C 0.42264 0.91593 0.24816 0.0
C938 C 0.42886 0.90736 0.26513 0.0
C939 C 0.39583 0.94991 0.24572 0.0
C940 C 0.36578 0.8897 0.23294 0.0
H941 H 0.53886 0.9176 0.24253 0.0
H942 H 0.51312 0.88292 0.30439 0.0
H943 H 0.44773 0.84354 0.27997 0.0
H944 H 0.4193 0.85356 0.28689 0.0
H945 H 0.44929 0.85601 0.3035 0.0
H946 H 0.5005 0.94289 0.30171 0.0
H947 H 0.47756 0.91086 0.31542 0.0
H948 H 0.45982 0.93038 0.30308 0.0
H949 H 0.50423 0.95016 0.1875 0.0
H950 H 0.41688 0.95377 0.17932 0.0
H951 H 0.40271 0.93595 0.20925 0.0
H952 H 0.52334 0.98273 0.22836 0.0
H953 H 0.54298 0.9641 0.21717 0.0
H954 H 0.53754 0.96184 0.24107 0.0
H955 H 0.47339 0.88425 0.20497 0.0
H956 H 0.49639 0.88531 0.22438 0.0
H957 H 0.51622 0.90878 0.20605 0.0
H958 H 0.57345 0.90434 0.26011 0.0
C959 C 0.53248 0.9103 0.25584 0.0
C960 C 0.1337 0.48389 0.29897 0.0
C961 C 0.12868 0.45445 0.29089 0.0
C962 C 0.11544 0.44447 0.27271 0.0
C963 C 0.11366 0.49394 0.2708 0.0
C964 C 0.12589 0.50302 0.28879 0.0
C965 C 0.12967 0.53484 0.29561 0.0
H966 H 0.12276 0.66825 0.2795 0.0
C967 C 0.1091 0.52001 0.2641 0.0
C968 C 0.11822 0.54382 0.27867 0.0
H969 H 0.15198 0.64477 0.32982 0.0
H970 H 0.14019 0.59325 0.31552 0.0
H971 H 0.15774 0.64361 0.25449 0.0
H972 H 0.06011 0.59628 0.26817 0.0
H973 H 0.05916 0.58634 0.24485 0.0
H974 H 0.07545 0.628 0.25336 0.0
H975 H 0.12861 0.65244 0.24458 0.0
H976 H 0.13402 0.62042 0.2347 0.0
C977 C 0.16578 0.55844 0.30138 0.0
C978 C 0.10724 0.52906 0.311 0.0
C979 C 0.07262 0.51517 0.1976 0.0
C980 C 0.06793 0.53683 0.18764 0.0
C981 C 0.07291 0.5658 0.19666 0.0
C982 C 0.08242 0.57323 0.21527 0.0
C983 C 0.08727 0.55157 0.22505 0.0
C984 C 0.08232 0.52305 0.21626 0.0
C985 C 0.08903 0.50323 0.22895 0.0
C986 C 0.09893 0.52467 0.24673 0.0
C987 C 0.09779 0.55292 0.2443 0.0
C988 C 0.11695 0.49952 0.22217 0.0
C989 C 0.05756 0.4709 0.22983 0.0
C990 C 0.12624 0.65174 0.28739 0.0
C991 C 0.13858 0.6605 0.30571 0.0
C992 C 0.14294 0.63858 0.31561 0.0
C993 C 0.136 0.60867 0.30727 0.0
C994 C 0.12465 0.60055 0.2888 0.0
C995 C 0.11961 0.62174 0.27921 0.0
C996 C 0.10783 0.60905 0.25964 0.0
C997 C 0.10668 0.57678 0.25911 0.0
C998 C 0.11665 0.57208 0.2762 0.0
C999 C 0.13306 0.63253 0.2476 0.0
C1000 C 0.07396 0.60482 0.25613 0.0
H1001 H 0.09822 0.45552 0.24873 0.0
H1002 H 0.14345 0.49184 0.31301 0.0
H1003 H 0.08549 0.50464 0.30881 0.0
H1004 H 0.09775 0.54581 0.31155 0.0
H1005 H 0.11961 0.53091 0.32445 0.0
H1006 H 0.18105 0.55417 0.29214 0.0
H1007 H 0.17245 0.55529 0.31539 0.0
H1008 H 0.17288 0.58399 0.30057 0.0
H1009 H 0.06927 0.49287 0.19096 0.0
H1010 H 0.06916 0.58267 0.18927 0.0
H1011 H 0.08575 0.59565 0.2213 0.0
H1012 H 0.13572 0.52257 0.21757 0.0
H1013 H 0.10833 0.48071 0.21051 0.0
H1014 H 0.12943 0.4936 0.23284 0.0
H1015 H 0.03648 0.47451 0.22917 0.0
H1016 H 0.05676 0.46012 0.24271 0.0
H1017 H 0.05382 0.45319 0.21829 0.0
H1018 H 0.11142 0.42174 0.2663 0.0
C1019 C 0.10795 0.46414 0.26258 0.0
C1020 C 0.36363 0.47609 0.29306 0.0
C1021 C 0.33808 0.44725 0.28443 0.0
C1022 C 0.33944 0.43807 0.26619 0.0
C1023 C 0.39054 0.48715 0.26522 0.0
C1024 C 0.38933 0.49567 0.28323 0.0
C1025 C 0.41721 0.52812 0.29013 0.0
H1026 H 0.55199 0.66408 0.2744 0.0
C1027 C 0.41979 0.51375 0.25875 0.0
C1028 C 0.43538 0.5378 0.27335 0.0
H1029 H 0.505 0.64153 0.32402 0.0
H1030 H 0.46497 0.58901 0.3099 0.0
H1031 H 0.54457 0.59332 0.26485 0.0
H1032 H 0.49063 0.63819 0.24865 0.0
H1033 H 0.48831 0.61387 0.2294 0.0
H1034 H 0.52694 0.64647 0.23892 0.0
H1035 H 0.5581 0.62415 0.24948 0.0
H1036 H 0.53315 0.58203 0.24151 0.0
C1037 C 0.43665 0.52332 0.30572 0.0
C1038 C 0.404 0.55068 0.29568 0.0
C1039 C 0.44708 0.50853 0.1932 0.0
C1040 C 0.47213 0.53083 0.1837 0.0
C1041 C 0.49559 0.56048 0.19289 0.0
C1042 C 0.49435 0.56803 0.21122 0.0
C1043 C 0.46921 0.5458 0.22056 0.0
C1044 C 0.44602 0.51663 0.21162 0.0
C1045 C 0.4207 0.49663 0.22388 0.0
C1046 C 0.43288 0.51852 0.2416 0.0
C1047 C 0.46132 0.54723 0.23946 0.0
C1048 C 0.42116 0.46492 0.22567 0.0
C1049 C 0.38814 0.49172 0.21587 0.0
C1050 C 0.53331 0.64756 0.28226 0.0
C1051 C 0.53162 0.65668 0.30034 0.0
C1052 C 0.50662 0.6349 0.31004 0.0
C1053 C 0.48346 0.60444 0.30181 0.0
C1054 C 0.48511 0.59576 0.28361 0.0
C1055 C 0.50984 0.61713 0.27419 0.0
C1056 C 0.50736 0.60411 0.25487 0.0
C1057 C 0.477 0.57144 0.25422 0.0
C1058 C 0.46413 0.56669 0.27107 0.0
C1059 C 0.53736 0.60084 0.25235 0.0
C1060 C 0.50332 0.62677 0.24219 0.0
H1061 H 0.36514 0.44966 0.24269 0.0
H1062 H 0.36304 0.48389 0.30699 0.0
H1063 H 0.38173 0.54433 0.28704 0.0
H1064 H 0.42063 0.5762 0.29372 0.0
H1065 H 0.39811 0.54885 0.31003 0.0
H1066 H 0.43731 0.50068 0.30273 0.0
H1067 H 0.42573 0.52162 0.31876 0.0
H1068 H 0.46207 0.5426 0.30761 0.0
H1069 H 0.42858 0.48566 0.18638 0.0
H1070 H 0.51518 0.57784 0.18586 0.0
H1071 H 0.51303 0.59101 0.21735 0.0
H1072 H 0.44626 0.46973 0.22718 0.0
H1073 H 0.40867 0.44764 0.21343 0.0
H1074 H 0.41023 0.45308 0.23781 0.0
H1075 H 0.3914 0.51374 0.20982 0.0
H1076 H 0.37114 0.48749 0.22622 0.0
H1077 H 0.37675 0.47138 0.205 0.0
H1078 H 0.32007 0.41573 0.25934 0.0
C1079 C 0.36558 0.45779 0.25656 0.0
C1080 C 0.54438 0.03196 0.05989 0.0
Eu1081 Eu 0.52271 0.01802 0.02568 0.0
C1082 C 0.53157 0.01989 0.07734 0.0
C1083 C 0.53406 0.04183 0.09159 0.0
C1084 C 0.52148 0.03107 0.10808 0.0
C1085 C 0.50602 0.99807 0.11066 0.0
C1086 C 0.50383 0.97612 0.09646 0.0
C1087 C 0.51635 0.98687 0.07993 0.0
C1088 C 0.50532 0.05232 1.00494 0.0
C1089 C 0.44545 0.96492 0.02326 0.0
C1090 C 0.46197 0.96865 0.95459 0.0
Eu1091 Eu 0.48451 0.98308 0.98868 0.0
C1092 C 0.47311 0.98158 0.93707 0.0
C1093 C 0.46677 0.96016 0.92168 0.0
C1094 C 0.4775 0.97178 0.90499 0.0
C1095 C 0.49513 0.00516 0.90337 0.0
C1096 C 0.50112 0.02655 0.91882 0.0
C1097 C 0.49033 0.01492 0.93551 0.0
C1098 C 0.50179 0.94875 0.00944 0.0
C1099 C 0.56188 0.03633 0.99125 0.0
O1100 O 0.54939 0.01303 0.04874 0.0
O1101 O 0.53169 0.04676 0.05148 0.0
O1102 O 0.53195 0.06508 0.01539 0.0
O1103 O 0.48827 0.02275 0.00694 0.0
O1104 O 0.47375 0.97983 0.03282 0.0
O1105 O 0.44237 0.96626 1.00552 0.0
O1106 O 0.45565 0.98611 0.96608 0.0
O1107 O 0.47716 0.9558 0.96254 0.0
O1108 O 0.47518 0.936 0.99899 0.0
O1109 O 0.51889 0.97829 0.00739 0.0
O1110 O 0.53353 0.0218 0.98169 0.0
O1111 O 0.56488 0.03451 0.00895 0.0
H1112 H 0.54566 0.06738 0.08993 0.0
H1113 H 0.52363 0.04855 0.11879 0.0
H1114 H 0.49288 0.95068 0.09826 0.0
H1115 H 0.51414 0.96934 0.06921 0.0
H1116 H 0.45332 0.93435 0.92254 0.0
H1117 H 0.47135 0.95453 0.89329 0.0
H1118 H 0.5142 0.05234 0.918 0.0
H1119 H 0.49544 0.03199 0.94716 0.0
C1120 C 0.98782 0.52016 0.05742 0.0
Eu1121 Eu 0.99345 0.5064 0.02373 0.0
C1122 C 1.0003 0.51914 0.07574 0.0
C1123 C 0.98039 0.51241 0.08993 0.0
C1124 C 0.99178 0.51204 0.10758 0.0
C1125 C 0.02332 0.51837 0.11133 0.0
C1126 C 0.04318 0.52475 0.09704 0.0
C1127 C 0.03169 0.52495 0.07934 0.0
C1128 C 0.9546 0.45015 1.00342 0.0
C1129 C 0.04608 0.4822 0.02105 0.0
C1130 C 0.0223 0.48595 0.95366 0.0
Eu1131 Eu 0.01673 0.49955 0.98735 0.0
C1132 C 0.01001 0.48794 0.93552 0.0
C1133 C 0.02944 0.49395 0.92115 0.0
C1134 C 0.01791 0.49482 0.90363 0.0
C1135 C 0.98673 0.48968 0.90024 0.0
C1136 C 0.96748 0.48427 0.91474 0.0
C1137 C 0.97911 0.48361 0.9323 0.0
C1138 C 0.05599 0.55531 0.00796 0.0
C1139 C 0.96491 0.52454 0.98975 0.0
O1140 O 0.00812 0.54135 0.04738 0.0
O1141 O 0.96861 0.49227 0.04828 0.0
O1142 O 0.94427 0.4657 0.01328 0.0
O1143 O 0.98482 0.46423 1.00525 0.0
O1144 O 0.03275 0.49477 0.03145 0.0
O1145 O 0.0406 0.47785 1.00322 0.0
O1146 O 1.00151 0.4649 0.96356 0.0
O1147 O 0.04218 0.51344 0.96298 0.0
O1148 O 0.06602 0.53982 0.99784 0.0
O1149 O 0.02578 0.5417 0.006 0.0
O1150 O 0.97851 0.51215 0.97951 0.0
O1151 O 0.96931 0.52798 0.00765 0.0
H1152 H 0.95611 0.50788 0.08739 0.0
H1153 H 0.97621 0.50773 0.11839 0.0
H1154 H 0.06761 0.52977 0.09962 0.0
H1155 H 0.04739 0.52997 0.06853 0.0
H1156 H 0.05335 0.4974 0.92342 0.0
H1157 H 0.03299 0.49841 0.89263 0.0
H1158 H 0.94334 0.4802 0.91242 0.0
H1159 H 0.96382 0.47921 0.94327 0.0
C1160 C 0.46067 0.4672 0.95463 0.0
Eu1161 Eu 0.48247 0.48783 0.98851 0.0
C1162 C 0.4745 0.47151 0.93686 0.0
C1163 C 0.47211 0.49264 0.92532 0.0
C1164 C 0.48429 0.49639 0.90833 0.0
C1165 C 0.49908 0.47904 0.90245 0.0
C1166 C 0.50161 0.458 0.91398 0.0
C1167 C 0.48948 0.45428 0.93101 0.0
C1168 C 0.49627 0.54546 1.00488 0.0
C1169 C 0.56148 0.52234 0.99102 0.0
C1170 C 0.54377 0.52786 0.05908 0.0
Eu1171 Eu 0.52157 0.50679 0.02534 0.0
C1172 C 0.52932 0.52462 0.07648 0.0
C1173 C 0.54406 0.52017 0.09199 0.0
C1174 C 0.53079 0.51708 0.10863 0.0
C1175 C 0.5025 0.51838 0.11005 0.0
C1176 C 0.48755 0.52246 0.09445 0.0
C1177 C 0.50072 0.52536 0.07778 0.0
C1178 C 0.50843 0.44965 0.00856 0.0
C1179 C 0.44277 0.47163 0.02298 0.0
O1180 O 0.46702 0.4506 0.96589 0.0
O1181 O 0.46155 0.49248 0.9629 0.0
O1182 O 0.46935 0.52591 0.99538 0.0
O1183 O 0.51529 0.53463 1.00448 0.0
O1184 O 0.53342 0.50397 0.98148 0.0
O1185 O 0.56341 0.53105 0.00852 0.0
O1186 O 0.5386 0.54484 0.04754 0.0
O1187 O 0.54134 0.50154 0.05124 0.0
O1188 O 0.53532 0.46928 0.0181 0.0
O1189 O 0.48912 0.4601 0.00923 0.0
O1190 O 0.47066 0.48965 0.03266 0.0
O1191 O 0.44051 0.4639 1.00533 0.0
H1192 H 0.46048 0.50606 0.92934 0.0
H1193 H 0.48182 0.51262 0.89967 0.0
H1194 H 0.51213 0.44368 0.90963 0.0
H1195 H 0.49152 0.43759 0.93947 0.0
H1196 H 0.56605 0.51941 0.09126 0.0
H1197 H 0.54317 0.51461 0.12051 0.0
H1198 H 0.46576 0.5236 0.0952 0.0
H1199 H 0.48868 0.52845 0.06597 0.0
C1200 C 0.2088 0.36449 0.39239 0.0
Eu1201 Eu 0.18729 0.35249 0.35819 0.0
C1202 C 0.19511 0.3518 0.40955 0.0
C1203 C 0.16449 0.34604 0.41331 0.0
C1204 C 0.15228 0.33447 0.42979 0.0
C1205 C 0.17039 0.32838 0.44279 0.0
C1206 C 0.20059 0.33326 0.43871 0.0
C1207 C 0.21284 0.34496 0.42231 0.0
C1208 C 0.16571 0.38484 0.33876 0.0
C1209 C 0.11049 0.29727 0.35597 0.0
C1210 C 0.12708 0.30413 0.2871 0.0
Eu1211 Eu 0.14902 0.31744 0.32127 0.0
C1212 C 0.1394 0.31666 0.2696 0.0
C1213 C 0.14278 0.29667 0.25635 0.0
C1214 C 0.15384 0.30769 0.23963 0.0
C1215 C 0.16155 0.33891 0.2357 0.0
C1216 C 0.15854 0.35909 0.24901 0.0
C1217 C 0.14758 0.34812 0.2658 0.0
C1218 C 0.1706 0.28521 0.34081 0.0
C1219 C 0.22584 0.3729 0.3236 0.0
O1220 O 0.21227 0.34472 0.38107 0.0
O1221 O 0.19814 0.38121 0.38416 0.0
O1222 O 0.19296 0.39887 0.34873 0.0
O1223 O 0.15051 0.35501 0.3404 0.0
O1224 O 0.13894 0.31319 0.36535 0.0
O1225 O 0.10693 0.29828 0.33822 0.0
O1226 O 0.12196 0.32261 0.29851 0.0
O1227 O 0.13995 0.28924 0.29523 0.0
O1228 O 0.14321 0.27115 0.331 0.0
O1229 O 0.18577 0.31497 0.33901 0.0
O1230 O 0.19732 0.35745 0.31422 0.0
O1231 O 0.22934 0.37136 0.34129 0.0
H1232 H 0.15002 0.35057 0.40358 0.0
H1233 H 0.12886 0.33073 0.43246 0.0
H1234 H 0.21477 0.32797 0.44821 0.0
H1235 H 0.23626 0.34872 0.4196 0.0
H1236 H 0.1367 0.27236 0.25891 0.0
H1237 H 0.15626 0.29173 0.22971 0.0
H1238 H 0.1641 0.38319 0.2463 0.0
H1239 H 0.14536 0.36424 0.2757 0.0
C1240 C 0.65412 0.85476 0.38958 0.0
Eu1241 Eu 0.65949 0.84061 0.35593 0.0
C1242 C 0.66679 0.85275 0.40765 0.0
C1243 C 0.64745 0.84605 0.42212 0.0
C1244 C 0.65922 0.84479 0.43951 0.0
C1245 C 0.69055 0.85023 0.44269 0.0
C1246 C 0.70974 0.85644 0.42811 0.0
C1247 C 0.69788 0.85749 0.41068 0.0
C1248 C 0.62019 0.78442 0.33569 0.0
C1249 C 0.71144 0.81536 0.35394 0.0
C1250 C 0.69198 0.82153 0.28651 0.0
Eu1251 Eu 0.68332 0.83314 0.31993 0.0
C1252 C 0.67721 0.81788 0.26806 0.0
C1253 C 0.6969 0.82865 0.25379 0.0
C1254 C 0.68353 0.82558 0.23612 0.0
C1255 C 0.65019 0.8117 0.23243 0.0
C1256 C 0.63054 0.80136 0.24684 0.0
C1257 C 0.64394 0.80431 0.26453 0.0
C1258 C 0.72268 0.88859 0.34088 0.0
C1259 C 0.62974 0.85572 0.32149 0.0
O1260 O 0.67471 0.87568 0.37955 0.0
O1261 O 0.63403 0.82726 0.38033 0.0
O1262 O 0.61013 0.80034 0.34546 0.0
O1263 O 0.6504 0.79802 0.3376 0.0
O1264 O 0.6977 0.82779 0.36408 0.0
O1265 O 0.70704 0.81166 0.33607 0.0
O1266 O 0.6758 0.79886 0.29703 0.0
O1267 O 0.7056 0.85049 0.29499 0.0
O1268 O 0.73263 0.87257 0.33119 0.0
O1269 O 0.69261 0.87557 0.33842 0.0
O1270 O 0.64149 0.84047 0.31195 0.0
O1271 O 0.63735 0.86338 0.33916 0.0
H1272 H 0.62338 0.84225 0.42002 0.0
H1273 H 0.64416 0.84057 0.45058 0.0
H1274 H 0.73399 0.86075 0.43024 0.0
H1275 H 0.71314 0.86242 0.39965 0.0
H1276 H 0.72265 0.83927 0.25631 0.0
H1277 H 0.69922 0.83353 0.22527 0.0
H1278 H 0.60484 0.79102 0.24444 0.0
H1279 H 0.62837 0.79593 0.27541 0.0
C1280 C 0.12822 0.80509 0.28824 0.0
Eu1281 Eu 0.14957 0.82526 0.32221 0.0
C1282 C 0.14201 0.8102 0.27041 0.0
C1283 C 0.14437 0.83531 0.26047 0.0
C1284 C 0.15589 0.83919 0.24329 0.0
C1285 C 0.16502 0.81788 0.23557 0.0
C1286 C 0.16346 0.7933 0.24567 0.0
C1287 C 0.15195 0.7894 0.26286 0.0
C1288 C 0.16548 0.88343 0.33882 0.0
C1289 C 0.22846 0.85952 0.32511 0.0
C1290 C 0.20963 0.86374 0.3931 0.0
Eu1291 Eu 0.18778 0.84251 0.35931 0.0
C1292 C 0.19664 0.85767 0.41111 0.0
C1293 C 0.1957 0.83279 0.42071 0.0
C1294 C 0.18476 0.82816 0.43804 0.0
C1295 C 0.17471 0.8484 0.44618 0.0
C1296 C 0.17493 0.87276 0.43643 0.0
C1297 C 0.18593 0.87746 0.41914 0.0
C1298 C 0.17299 0.78492 0.34246 0.0
C1299 C 0.10892 0.80802 0.35655 0.0
O1300 O 0.13557 0.78889 0.29927 0.0
O1301 O 0.12792 0.82957 0.29676 0.0
O1302 O 0.13848 0.86497 0.3291 0.0
O1303 O 0.18332 0.87126 0.33848 0.0
O1304 O 0.20066 0.84122 0.31529 0.0
O1305 O 0.22974 0.8674 0.34266 0.0
O1306 O 0.1995 0.87812 0.38228 0.0
O1307 O 0.2122 0.8407 0.38442 0.0
O1308 O 0.19963 0.80348 0.35249 0.0
O1309 O 0.15456 0.79646 0.34288 0.0
O1310 O 0.13669 0.82435 0.36658 0.0
O1311 O 0.10698 0.80198 0.33873 0.0
H1312 H 0.13691 0.85176 0.26583 0.0
H1313 H 0.15727 0.85863 0.23593 0.0
H1314 H 0.17013 0.77639 0.24 0.0
H1315 H 0.15031 0.76972 0.27009 0.0
H1316 H 0.20381 0.81712 0.41497 0.0
H1317 H 0.18451 0.80898 0.44519 0.0
H1318 H 0.16758 0.88889 0.44245 0.0
H1319 H 0.18653 0.89698 0.41218 0.0
C1320 C 0.87454 0.69497 0.72611 0.0
Eu1321 Eu 0.85374 0.68407 0.69184 0.0
C1322 C 0.86034 0.68243 0.74316 0.0
C1323 C 0.82945 0.67643 0.74643 0.0
C1324 C 0.81638 0.6643 0.76262 0.0
C1325 C 0.83388 0.65779 0.77581 0.0
C1326 C 0.86456 0.66338 0.77237 0.0
C1327 C 0.87766 0.67565 0.75624 0.0
C1328 C 0.83823 0.71935 0.67091 0.0
C1329 C 0.77569 0.63271 0.68825 0.0
C1330 C 0.79623 0.63909 0.61987 0.0
Eu1331 Eu 0.81664 0.65008 0.6542 0.0
C1332 C 0.80928 0.65559 0.60354 0.0
C1333 C 0.79974 0.63794 0.58643 0.0
C1334 C 0.81246 0.65315 0.57086 0.0
C1335 C 0.83508 0.68634 0.5721 0.0
C1336 C 0.84493 0.70388 0.58935 0.0
C1337 C 0.83198 0.68869 0.6049 0.0
C1338 C 0.83278 0.61499 0.67488 0.0
C1339 C 0.89454 0.70159 0.6579 0.0
O1340 O 0.87717 0.67465 0.71477 0.0
O1341 O 0.86496 0.71259 0.71791 0.0
O1342 O 0.86431 0.73179 0.68188 0.0
O1343 O 0.82072 0.68973 0.67262 0.0
O1344 O 0.80321 0.64911 0.69851 0.0
O1345 O 0.77365 0.6311 0.6703 0.0
O1346 O 0.78816 0.65429 0.63188 0.0
O1347 O 0.81151 0.6259 0.62734 0.0
O1348 O 0.80677 0.60237 0.66386 0.0
O1349 O 0.84993 0.64466 0.67325 0.0
O1350 O 0.86658 0.68786 0.64797 0.0
O1351 O 0.89649 0.70008 0.67567 0.0
H1352 H 0.81538 0.68104 0.73646 0.0
H1353 H 0.79247 0.6597 0.76474 0.0
H1354 H 0.8786 0.65864 0.7823 0.0
H1355 H 0.9014 0.67986 0.75397 0.0
H1356 H 0.78236 0.61236 0.58511 0.0
H1357 H 0.8042 0.639 0.55779 0.0
H1358 H 0.8628 0.72929 0.59087 0.0
H1359 H 0.83982 0.70278 0.61799 0.0
C1360 C 0.31978 0.18807 0.72435 0.0
Eu1361 Eu 0.32414 0.17318 0.69062 0.0
C1362 C 0.33147 0.1857 0.74271 0.0
C1363 C 0.30918 0.16688 0.75462 0.0
C1364 C 0.31937 0.1653 0.77233 0.0
C1365 C 0.3521 0.18261 0.77853 0.0
C1366 C 0.3745 0.20112 0.76654 0.0
C1367 C 0.36431 0.2026 0.74877 0.0
C1368 C 0.2851 0.1156 0.67162 0.0
C1369 C 0.37611 0.14818 0.6886 0.0
C1370 C 0.34971 0.14694 0.62079 0.0
Eu1371 Eu 0.34609 0.1634 0.65433 0.0
C1372 C 0.34027 0.15123 0.60233 0.0
C1373 C 0.36409 0.16876 0.59084 0.0
C1374 C 0.35572 0.17148 0.57296 0.0
C1375 C 0.32333 0.15657 0.56616 0.0
C1376 C 0.29947 0.13949 0.57776 0.0
C1377 C 0.30783 0.13694 0.59569 0.0
C1378 C 0.38508 0.22117 0.67324 0.0
C1379 C 0.29472 0.18923 0.65624 0.0
O1380 O 0.34078 0.20847 0.71428 0.0
O1381 O 0.29888 0.16088 0.7151 0.0
O1382 O 0.27484 0.13165 0.68106 0.0
O1383 O 0.31531 0.12984 0.67324 0.0
O1384 O 0.36474 0.16358 0.69836 0.0
O1385 O 0.36816 0.14071 0.67097 0.0
O1386 O 0.32671 0.12844 0.63054 0.0
O1387 O 0.37269 0.17267 0.63032 0.0
O1388 O 0.3954 0.20524 0.66369 0.0
O1389 O 0.35488 0.20674 0.67167 0.0
O1390 O 0.30794 0.17611 0.64621 0.0
O1391 O 0.29993 0.19411 0.67411 0.0
H1392 H 0.28374 0.15371 0.75029 0.0
H1393 H 0.3016 0.15086 0.78128 0.0
H1394 H 0.39981 0.21532 0.77107 0.0
H1395 H 0.3821 0.2174 0.73994 0.0
H1396 H 0.38925 0.17989 0.59561 0.0
H1397 H 0.3746 0.18477 0.56432 0.0
H1398 H 0.27432 0.12703 0.5728 0.0
H1399 H 0.28886 0.12315 0.60417 0.0
C1400 C 0.79415 0.13899 0.62167 0.0
Eu1401 Eu 0.81594 0.15693 0.65575 0.0
C1402 C 0.80873 0.14315 0.60426 0.0
C1403 C 0.79235 0.14463 0.58849 0.0
C1404 C 0.80539 0.14753 0.57177 0.0
C1405 C 0.83502 0.14891 0.57054 0.0
C1406 C 0.85188 0.14846 0.58646 0.0
C1407 C 0.83883 0.14556 0.60317 0.0
C1408 C 0.83199 0.21382 0.67399 0.0
C1409 C 0.89465 0.18833 0.65847 0.0
C1410 C 0.87623 0.18749 0.72658 0.0
Eu1411 Eu 0.85394 0.17062 0.69253 0.0
C1412 C 0.8626 0.18652 0.74408 0.0
C1413 C 0.8741 0.17768 0.75919 0.0
C1414 C 0.86132 0.1762 0.77587 0.0
C1415 C 0.83661 0.18336 0.77774 0.0
C1416 C 0.82501 0.19209 0.76254 0.0
C1417 C 0.83785 0.19361 0.74585 0.0
C1418 C 0.83801 0.11393 0.67393 0.0
C1419 C 0.77567 0.13997 0.6901 0.0
O1420 O 0.79876 0.1208 0.63252 0.0
O1421 O 0.79718 0.16502 0.63032 0.0
O1422 O 0.80489 0.19592 0.66421 0.0
O1423 O 0.84994 0.20175 0.67301 0.0
O1424 O 0.86685 0.17356 0.64841 0.0
O1425 O 0.89669 0.19315 0.67635 0.0
O1426 O 0.87571 0.20753 0.71546 0.0
O1427 O 0.86855 0.15952 0.71824 0.0
O1428 O 0.86514 0.13183 0.68364 0.0
O1429 O 0.82003 0.12589 0.67522 0.0
O1430 O 0.80382 0.15736 0.69968 0.0
O1431 O 0.77363 0.13262 0.6724 0.0
H1432 H 0.7692 0.14301 0.58906 0.0
H1433 H 0.79183 0.14769 0.5597 0.0
H1434 H 0.87498 0.14996 0.58595 0.0
H1435 H 0.85208 0.1447 0.61516 0.0
H1436 H 0.89319 0.17214 0.75811 0.0
H1437 H 0.87134 0.17021 0.78743 0.0
H1438 H 0.80605 0.19781 0.7636 0.0
H1439 H 0.8285 0.20041 0.73436 0.0
C1440 C 0.36001 0.92432 0.03707 0.0
C1441 C 0.36237 0.91019 0.05279 0.0
C1442 C 0.38684 0.94168 0.02734 0.0
C1443 C 0.41684 0.94535 0.03301 0.0
H1444 H 0.33732 0.9221 0.03234 0.0
H1445 H 0.38418 0.95268 0.01549 0.0
S1446 S 0.43395 0.90844 0.07164 0.0
N1447 N 0.39598 0.89821 0.07251 0.0
N1448 N 0.44629 0.9305 0.05432 0.0
C1449 C 0.41909 0.93034 0.04839 0.0
C1450 C 0.39188 0.91284 0.05826 0.0
C1451 C 0.08319 0.44468 0.05019 0.0
C1452 C 0.11484 0.45895 0.04504 0.0
C1453 C 0.06106 0.45272 0.04268 0.0
C1454 C 0.06958 0.47469 0.02945 0.0
H1455 H 0.07524 0.42677 0.05989 0.0
H1456 H 0.03695 0.44112 0.0469 0.0
S1457 S 0.14956 0.52128 0.01246 0.0
N1458 N 0.15399 0.49876 0.02707 0.0
N1459 N 0.11166 0.51191 0.01214 0.0
C1460 C 0.10097 0.48941 0.02431 0.0
C1461 C 0.12377 0.48201 0.03228 0.0
C1462 C 0.54442 0.62962 0.02925 0.0
C1463 C 0.52184 0.64 0.02954 0.0
C1464 C 0.53595 0.59891 0.02127 0.0
C1465 C 0.50457 0.57749 0.01347 0.0
H1466 H 0.56886 0.64549 0.03505 0.0
H1467 H 0.55419 0.59201 0.02114 0.0
S1468 S 0.43606 0.59238 0.01208 0.0
N1469 N 0.46653 0.62605 0.02223 0.0
N1470 N 0.4505 0.56831 0.00729 0.0
C1471 C 0.48166 0.58742 0.01399 0.0
C1472 C 0.49033 0.61871 0.02201 0.0
C1473 C 0.87894 0.37294 0.98553 0.0
C1474 C 0.89059 0.35402 0.97752 0.0
C1475 C 0.89994 0.40418 0.99362 0.0
C1476 C 0.93339 0.41756 0.99413 0.0
H1477 H 0.85334 0.36361 0.98541 0.0
H1478 H 0.88982 0.41786 0.99959 0.0
S1479 S 0.97597 0.37737 0.97551 0.0
N1480 N 0.93755 0.35052 0.97071 0.0
N1481 N 0.9772 0.40917 0.9862 0.0
C1482 C 0.94538 0.39885 0.98619 0.0
C1483 C 0.92393 0.36709 0.9778 0.0
C1484 C 0.64991 0.56584 0.9823 0.0
C1485 C 0.64993 0.55097 0.96535 0.0
C1486 C 0.62124 0.55686 0.99036 0.0
C1487 C 0.59142 0.53254 0.98183 0.0
H1488 H 0.6723 0.58443 0.98946 0.0
H1489 H 0.62256 0.56897 1.00345 0.0
S1490 S 0.5789 0.48482 0.93774 0.0
N1491 N 0.61793 0.5101 0.94058 0.0
N1492 N 0.5641 0.49308 0.95555 0.0
C1493 C 0.59119 0.51756 0.9648 0.0
C1494 C 0.6204 0.52681 0.95661 0.0
C1495 C 0.45843 0.07212 0.97031 0.0
C1496 C 0.48152 0.10297 0.96614 0.0
C1497 C 0.46641 0.05557 0.9827 0.0
C1498 C 0.49772 0.06932 0.99124 0.0
H1499 H 0.4338 0.06134 0.96455 0.0
H1500 H 0.44771 0.03229 0.986 0.0
S1501 S 0.56764 0.14782 0.98303 0.0
N1502 N 0.5374 0.14538 0.97017 0.0
N1503 N 0.55249 0.11439 0.99338 0.0
C1504 C 0.52129 0.09952 0.9865 0.0
C1505 C 0.51316 0.11629 0.97394 0.0
C1506 C 0.64792 0.07835 0.97825 0.0
C1507 C 0.64572 0.09238 0.96246 0.0
C1508 C 0.62081 0.06049 0.9877 0.0
C1509 C 0.59068 0.0562 0.98167 0.0
H1510 H 0.67068 0.08097 0.98322 0.0
H1511 H 0.62338 0.0496 0.99962 0.0
S1512 S 0.57385 0.09257 0.94265 0.0
N1513 N 0.61209 0.10358 0.94226 0.0
N1514 N 0.56128 0.0704 0.95991 0.0
C1515 C 0.5886 0.07115 0.96622 0.0
C1516 C 0.61609 0.08914 0.95665 0.0
C1517 C 0.89171 0.52933 0.97388 0.0
C1518 C 0.90326 0.55185 0.96078 0.0
C1519 C 0.91207 0.52142 0.98373 0.0
C1520 C 0.94451 0.5352 0.98058 0.0
H1521 H 0.86655 0.51698 0.97622 0.0
H1522 H 0.90211 0.50355 0.99341 0.0
S1523 S 0.98785 0.59753 0.94943 0.0
N1524 N 0.95054 0.59013 0.94675 0.0
N1525 N 0.98797 0.57343 0.96444 0.0
C1526 C 0.95663 0.55806 0.9679 0.0
C1527 C 0.93623 0.56683 0.95821 0.0
C1528 C 0.46292 0.36757 0.98152 0.0
C1529 C 0.48662 0.35887 0.98009 0.0
C1530 C 0.47017 0.39714 0.99068 0.0
C1531 C 0.50139 0.41901 0.99855 0.0
H1532 H 0.4385 0.35111 0.97587 0.0
H1533 H 0.45109 0.40269 0.99178 0.0
S1534 S 0.57256 0.40873 0.99687 0.0
N1535 N 0.54281 0.37513 0.98616 0.0
N1536 N 0.55658 0.43074 1.00326 0.0
C1537 C 0.52546 0.41093 0.99671 0.0
C1538 C 0.51803 0.38082 0.98749 0.0
C1539 C 0.08515 0.63633 0.03474 0.0
C1540 C 0.11867 0.65003 0.03589 0.0
C1541 C 0.06483 0.60537 0.02591 0.0
C1542 C 0.07743 0.58711 0.01809 0.0
H1543 H 0.07464 0.64993 0.04032 0.0
H1544 H 0.03916 0.59593 0.02494 0.0
S1545 S 0.1635 0.611 0.01931 0.0
N1546 N 0.16345 0.64224 0.0298 0.0
N1547 N 0.12549 0.58422 0.01324 0.0
C1548 C 0.11089 0.6002 0.01976 0.0
C1549 C 0.13146 0.63164 0.02865 0.0
C1550 C 0.36856 0.4675 0.04038 0.0
C1551 C 0.36004 0.44482 0.05341 0.0
C1552 C 0.39459 0.47507 0.03003 0.0
C1553 C 0.41348 0.46068 0.03248 0.0
H1554 H 0.35548 0.48016 0.03839 0.0
H1555 H 0.40061 0.49307 0.02046 0.0
S1556 S 0.40154 0.39917 0.06393 0.0
N1557 N 0.37229 0.40685 0.06722 0.0
N1558 N 0.42226 0.4227 0.04846 0.0
C1559 C 0.40553 0.43809 0.0453 0.0
C1560 C 0.3786 0.42978 0.0556 0.0
C1561 C 0.54997 0.92782 0.04246 0.0
C1562 C 0.52719 0.89659 0.04627 0.0
C1563 C 0.54147 0.94493 0.03077 0.0
C1564 C 0.50994 0.93134 0.0226 0.0
H1565 H 0.57473 0.93852 0.04797 0.0
H1566 H 0.55992 0.96852 0.0277 0.0
S1567 S 0.44069 0.852 0.03027 0.0
N1568 N 0.4714 0.85398 0.0424 0.0
N1569 N 0.4553 0.88604 0.02054 0.0
C1570 C 0.48668 0.90076 0.02704 0.0
C1571 C 0.49535 0.88341 0.03887 0.0
C1572 C 0.02471 0.25343 0.36925 0.0
C1573 C 0.0281 0.24324 0.38628 0.0
C1574 C 0.05133 0.27054 0.35935 0.0
C1575 C 0.08225 0.27792 0.3661 0.0
H1576 H 1.00131 0.24826 0.3636 0.0
H1577 H 0.04769 0.27837 0.34645 0.0
S1578 S 0.10304 0.25304 0.40901 0.0
N1579 N 0.06419 0.23958 0.4088 0.0
N1580 N 0.1141 0.27131 0.39029 0.0
C1581 C 0.08572 0.26709 0.38293 0.0
C1582 C 0.05869 0.24989 0.393 0.0
C1583 C 0.7863 0.81093 0.36499 0.0
C1584 C 0.77792 0.79014 0.37897 0.0
C1585 C 0.76446 0.81868 0.35689 0.0
C1586 C 0.73371 0.80668 0.36277 0.0
H1587 H 0.81009 0.82169 0.36036 0.0
H1588 H 0.77192 0.8347 0.34617 0.0
S1589 S 0.69872 0.75037 0.39804 0.0
N1590 N 0.73537 0.75614 0.39745 0.0
N1591 N 0.69531 0.77276 0.38294 0.0
C1592 C 0.72487 0.7862 0.37673 0.0
C1593 C 0.74674 0.77745 0.38467 0.0
C1594 C 0.15971 0.95547 0.35699 0.0
C1595 C 0.19072 0.97667 0.36533 0.0
C1596 C 0.1518 0.92528 0.34853 0.0
C1597 C 0.17467 0.91531 0.34801 0.0
H1598 H 0.14133 0.96217 0.35714 0.0
H1599 H 0.12756 0.90967 0.34237 0.0
S1600 S 0.25971 0.96266 0.36716 0.0
N1601 N 0.24466 0.98612 0.3722 0.0
N1602 N 0.22993 0.92945 0.35613 0.0
C1603 C 0.20586 0.93639 0.3562 0.0
C1604 C 0.21384 0.96706 0.36493 0.0
C1605 C 0.54382 0.70877 0.31687 0.0
C1606 C 0.55496 0.68936 0.3089 0.0
C1607 C 0.56524 0.73967 0.32523 0.0
C1608 C 0.59859 0.75221 0.32607 0.0
H1609 H 0.51831 0.70004 0.31654 0.0
H1610 H 0.5555 0.75375 0.33117 0.0
S1611 S 0.63988 0.71055 0.3076 0.0
N1612 N 0.60133 0.68454 0.30241 0.0
N1613 N 0.64175 0.74257 0.31842 0.0
C1614 C 0.61008 0.73305 0.31812 0.0
C1615 C 0.58821 0.70163 0.30945 0.0
C1616 C 0.28611 0.86638 0.2899 0.0
C1617 C 0.3164 0.88802 0.29895 0.0
C1618 C 0.25784 0.85793 0.2983 0.0
C1619 C 0.25873 0.87085 0.31609 0.0
H1620 H 0.28426 0.85492 0.2765 0.0
H1621 H 0.23518 0.84043 0.29093 0.0
S1622 S 0.33218 0.93191 0.3446 0.0
N1623 N 0.34563 0.92453 0.32591 0.0
N1624 N 0.29277 0.90878 0.34173 0.0
C1625 C 0.28893 0.89371 0.32491 0.0
C1626 C 0.31765 0.90225 0.31635 0.0
C1627 C 0.16947 0.44869 0.30968 0.0
C1628 C 0.13786 0.43485 0.30167 0.0
C1629 C 0.17825 0.43212 0.32153 0.0
C1630 C 0.15565 0.40123 0.32591 0.0
H1631 H 0.18747 0.47271 0.30692 0.0
H1632 H 0.20289 0.44375 0.32739 0.0
S1633 S 0.06949 0.35491 0.30891 0.0
N1634 N 0.08387 0.38868 0.2989 0.0
N1635 N 0.1001 0.35769 0.32158 0.0
C1636 C 0.12397 0.38702 0.3179 0.0
C1637 C 0.11514 0.40379 0.30564 0.0
C1638 C 0.31228 0.41804 0.31134 0.0
C1639 C 0.3093 0.42791 0.29415 0.0
C1640 C 0.28528 0.40053 0.3209 0.0
C1641 C 0.25435 0.39242 0.31366 0.0
H1642 H 0.33564 0.42369 0.31735 0.0
H1643 H 0.28866 0.39299 0.33395 0.0
S1644 S 0.23456 0.41617 0.27006 0.0
N1645 N 0.27361 0.43052 0.27091 0.0
N1646 N 0.22294 0.39794 0.28875 0.0
C1647 C 0.2513 0.40294 0.29665 0.0
C1648 C 0.27873 0.42058 0.28693 0.0
C1649 C 0.58137 0.89681 0.31082 0.0
C1650 C 0.56606 0.8821 0.29347 0.0
C1651 C 0.60167 0.88794 0.31993 0.0
C1652 C 0.60722 0.86395 0.31202 0.0
H1653 H 0.57814 0.91575 0.31722 0.0
H1654 H 0.61351 0.90038 0.33312 0.0
S1655 S 0.56904 0.8153 0.26776 0.0
N1656 N 0.55545 0.84072 0.26938 0.0
N1657 N 0.59309 0.82367 0.28641 0.0
C1658 C 0.59097 0.8483 0.29491 0.0
C1659 C 0.57052 0.85746 0.28567 0.0
C1660 C 0.12567 0.70348 0.31486 0.0
C1661 C 0.14798 0.69278 0.31446 0.0
C1662 C 0.13393 0.73344 0.32391 0.0
C1663 C 0.16486 0.75375 0.33269 0.0
H1664 H 0.10151 0.6883 0.30846 0.0
H1665 H 0.11587 0.74056 0.3242 0.0
S1666 S 0.23266 0.73776 0.3341 0.0
N1667 N 0.20262 0.70535 0.32261 0.0
N1668 N 0.21832 0.76169 0.33951 0.0
C1669 C 0.18758 0.7436 0.33193 0.0
C1670 C 0.17909 0.71309 0.32284 0.0
C1671 C 0.75249 0.96907 0.36838 0.0
C1672 C 0.78582 0.98152 0.3705 0.0
C1673 C 0.73196 0.93861 0.35904 0.0
C1674 C 0.74417 0.91966 0.35167 0.0
H1675 H 0.74238 0.98333 0.37354 0.0
H1676 H 0.7065 0.93018 0.35726 0.0
S1677 S 0.82937 0.94012 0.35559 0.0
N1678 N 0.82985 0.97182 0.36586 0.0
N1679 N 0.79146 0.91455 0.34848 0.0
C1680 C 0.77735 0.93141 0.35441 0.0
C1681 C 0.79815 0.96238 0.36378 0.0
C1682 C 0.03316 0.80165 0.37309 0.0
C1683 C 0.02603 0.78069 0.387 0.0
C1684 C 0.05912 0.80916 0.36267 0.0
C1685 C 0.07942 0.79658 0.36596 0.0
H1686 H 0.01914 0.81317 0.37049 0.0
H1687 H 0.06409 0.82594 0.35245 0.0
S1688 S 0.07091 0.73919 0.39957 0.0
N1689 N 0.04071 0.7456 0.40228 0.0
N1690 N 0.0906 0.76159 0.38346 0.0
C1691 C 0.07268 0.77548 0.37956 0.0
C1692 C 0.04577 0.7671 0.38989 0.0
C1693 C 0.16789 0.22124 0.36937 0.0
C1694 C 0.19974 0.235 0.37698 0.0
C1695 C 0.15871 0.23788 0.35782 0.0
C1696 C 0.1811 0.26879 0.35337 0.0
H1697 H 0.14999 0.19726 0.37225 0.0
H1698 H 0.1339 0.22632 0.35226 0.0
S1699 S 0.26771 0.315 0.36937 0.0
N1700 N 0.25375 0.28114 0.37926 0.0
N1701 N 0.23668 0.31233 0.3572 0.0
C1702 C 0.21302 0.28295 0.36098 0.0
C1703 C 0.22229 0.26608 0.3729 0.0
C1704 C 0.70248 0.56208 0.70387 0.0
C1705 C 0.694 0.57638 0.71816 0.0
C1706 C 0.72803 0.58067 0.69365 0.0
C1707 C 0.7466 0.61419 0.69758 0.0
H1708 H 0.68975 0.53616 0.70073 0.0
H1709 H 0.73405 0.56859 0.68305 0.0
S1710 S 0.73443 0.66417 0.73273 0.0
N1711 N 0.70572 0.62692 0.73479 0.0
N1712 N 0.75497 0.66137 0.71624 0.0
C1713 C 0.73868 0.62897 0.7117 0.0
C1714 C 0.71214 0.61021 0.72184 0.0
C1715 C 0.4307 0.1129 0.69521 0.0
C1716 C 0.44443 0.12425 0.71318 0.0
C1717 C 0.40832 0.12036 0.68753 0.0
C1718 C 0.39879 0.13957 0.6975 0.0
H1719 H 0.43723 0.09799 0.687 0.0
H1720 H 0.39857 0.11102 0.67361 0.0
S1721 S 0.42846 0.176 0.74511 0.0
N1722 N 0.44749 0.15615 0.74071 0.0
N1723 N 0.40524 0.17 0.72644 0.0
C1724 C 0.41224 0.15093 0.71559 0.0
C1725 C 0.43508 0.14332 0.72338 0.0
C1726 C 0.82714 0.28648 0.69189 0.0
C1727 C 0.85837 0.30781 0.69985 0.0
C1728 C 0.81886 0.256 0.68374 0.0
C1729 C 0.84159 0.24585 0.68314 0.0
H1730 H 0.80887 0.29333 0.69207 0.0
H1731 H 0.79446 0.24035 0.67783 0.0
S1732 S 0.92706 0.29338 0.70146 0.0
N1733 N 0.91231 0.31713 0.70643 0.0
N1734 N 0.89696 0.25994 0.69082 0.0
C1735 C 0.87299 0.26702 0.691 0.0
C1736 C 0.88133 0.29799 0.69945 0.0
C1737 C 0.2094 0.04045 0.65155 0.0
C1738 C 0.22085 0.02104 0.64394 0.0
C1739 C 0.2305 0.07116 0.66026 0.0
C1740 C 0.26384 0.08353 0.66177 0.0
H1741 H 0.18388 0.03187 0.65071 0.0
H1742 H 0.22054 0.08523 0.66592 0.0
S1743 S 0.30594 0.04195 0.64442 0.0
N1744 N 0.26756 0.01612 0.63856 0.0
N1745 N 0.30736 0.07388 0.65507 0.0
C1746 C 0.27567 0.06445 0.65414 0.0
C1747 C 0.25413 0.03319 0.64517 0.0
C1748 C 0.97304 0.19587 0.64618 0.0
C1749 C 0.98148 0.21572 0.63169 0.0
C1750 C 0.94539 0.18787 0.65501 0.0
C1751 C 0.92424 0.19833 0.64934 0.0
H1752 H 0.98781 0.18608 0.65079 0.0
H1753 H 0.94011 0.17269 0.6661 0.0
S1754 S 0.93373 0.25016 0.61225 0.0
N1755 N 0.96587 0.24624 0.61254 0.0
N1756 N 0.91257 0.22882 0.62831 0.0
C1757 C 0.93148 0.21731 0.63465 0.0
C1758 C 0.96031 0.22649 0.62599 0.0
C1759 C 0.79311 0.73995 0.63563 0.0
C1760 C 0.81666 0.77062 0.63152 0.0
C1761 C 0.80038 0.7233 0.64827 0.0
C1762 C 0.83145 0.7367 0.65709 0.0
H1763 H 0.76865 0.72942 0.62962 0.0
H1764 H 0.78131 0.70019 0.65153 0.0
S1765 S 0.90232 0.81475 0.64931 0.0
N1766 N 0.87263 0.81269 0.63608 0.0
N1767 N 0.8865 0.78128 0.65963 0.0
C1768 C 0.85548 0.76674 0.65245 0.0
C1769 C 0.84803 0.7837 0.63969 0.0
C1770 C 0.94823 0.74325 0.62076 0.0
C1771 C 0.97935 0.75603 0.62926 0.0
C1772 C 0.92121 0.72562 0.63015 0.0
C1773 C 0.92407 0.71996 0.64846 0.0
H1774 H 0.94467 0.74756 0.60685 0.0
H1775 H 0.8979 0.7168 0.62295 0.0
S1776 S 1.00051 0.74641 0.6765 0.0
N1777 N 0.01172 0.76046 0.6567 0.0
N1778 N 0.96092 0.72754 0.67445 0.0
C1779 C 0.95514 0.73213 0.65703 0.0
C1780 C 0.98274 0.75009 0.64742 0.0
C1781 C 0.26461 0.22939 0.62458 0.0
C1782 C 0.23164 0.21445 0.62712 0.0
C1783 C 0.28499 0.22128 0.63417 0.0
C1784 C 0.27335 0.19856 0.64698 0.0
H1785 H 0.27481 0.24753 0.61509 0.0
H1786 H 0.31007 0.23296 0.63163 0.0
S1787 S 0.18933 0.15094 0.65817 0.0
N1788 N 0.18826 0.17407 0.64279 0.0
N1789 N 0.22724 0.16044 0.66149 0.0
C1790 C 0.24078 0.1836 0.64986 0.0
C1791 C 0.21976 0.19119 0.63979 0.0
C1792 C 0.84482 0.04379 0.65359 0.0
C1793 C 0.81375 0.02239 0.64544 0.0
C1794 C 0.85236 0.07346 0.6626 0.0
C1795 C 0.82904 0.08271 0.66391 0.0
H1796 H 0.86351 0.03759 0.65294 0.0
H1797 H 0.87668 0.08919 0.66863 0.0
S1798 S 0.74375 0.03467 0.64533 0.0
N1799 N 0.75936 0.01209 0.63934 0.0
N1800 N 0.77332 0.06772 0.65663 0.0
C1801 C 0.7978 0.06149 0.65583 0.0
C1802 C 0.79022 0.03136 0.64648 0.0
C1803 C 0.46056 0.29725 0.69258 0.0
C1804 C 0.44882 0.31594 0.70078 0.0
C1805 C 0.43963 0.2665 0.68386 0.0
C1806 C 0.40621 0.25345 0.68288 0.0
H1807 H 0.48616 0.30637 0.69305 0.0
H1808 H 0.4498 0.25292 0.67781 0.0
S1809 S 0.36348 0.29338 0.70165 0.0
N1810 N 0.40184 0.31966 0.70721 0.0
N1811 N 0.36234 0.26199 0.69048 0.0
C1812 C 0.39413 0.27199 0.69095 0.0
C1813 C 0.4155 0.30322 0.70001 0.0
C1814 C 0.72222 0.1299 0.7283 0.0
C1815 C 0.69096 0.11045 0.71987 0.0
C1816 C 0.74915 0.13898 0.71856 0.0
C1817 C 0.74616 0.12903 0.6999 0.0
H1818 H 0.72597 0.13886 0.74251 0.0
H1819 H 0.77252 0.15427 0.7258 0.0
S1820 S 0.66941 0.07565 0.67172 0.0
N1821 N 0.65842 0.07988 0.69199 0.0
N1822 N 0.70898 0.09714 0.6736 0.0
C1823 C 0.71497 0.10895 0.69136 0.0
C1824 C 0.68745 0.09966 0.70134 0.0
C1825 C 0.88146 0.59394 0.70736 0.0
C1826 C 0.85916 0.56225 0.71068 0.0
C1827 C 0.87267 0.61101 0.69583 0.0
C1828 C 0.84125 0.59702 0.68742 0.0
H1829 H 0.90606 0.6052 0.71324 0.0
H1830 H 0.89079 0.63506 0.69321 0.0
S1831 S 0.77329 0.51581 0.69329 0.0
N1832 N 0.80399 0.51829 0.70569 0.0
N1833 N 0.78734 0.55041 0.68419 0.0
C1834 C 0.81852 0.56573 0.69114 0.0
C1835 C 0.82751 0.54834 0.70277 0.0
C1836 C 0.5026 0.99098 0.16152 0.0
C1837 C 0.47138 0.96527 0.16293 0.0
C1838 C 0.51333 0.00166 0.14464 0.0
C1839 C 0.4934 0.98689 0.12841 0.0
H1840 H 0.519 0.0029 0.17361 0.0
H1841 H 0.53769 0.02125 0.14426 0.0
S1842 S 0.40918 0.91937 0.12456 0.0
N1843 N 0.42039 0.92574 0.14657 0.0
N1844 N 0.4405 0.946 0.11483 0.0
C1845 C 0.46195 0.96149 0.1296 0.0
C1846 C 0.45092 0.95072 0.14684 0.0
C1847 C 0.07494 0.55328 0.15603 0.0
C1848 C 0.05793 0.5298 0.16788 0.0
C1849 C 0.0643 0.54873 0.13758 0.0
C1850 C 0.03607 0.52066 0.13033 0.0
H1851 H 0.09635 0.57565 0.16116 0.0
H1852 H 0.07759 0.56789 0.12907 0.0
S1853 S 0.98393 0.451 0.15536 0.0
N1854 N 0.01232 0.47684 0.17092 0.0
N1855 N 0.99236 0.46819 0.13614 0.0
C1856 C 0.01944 0.49649 0.14189 0.0
C1857 C 0.03041 0.50104 0.16067 0.0
C1858 C 0.47792 0.54656 0.15197 0.0
C1859 C 0.47464 0.52402 0.16425 0.0
C1860 C 0.48539 0.54361 0.13417 0.0
C1861 C 0.49025 0.51823 0.12807 0.0
H1862 H 0.4757 0.56723 0.15635 0.0
H1863 H 0.48886 0.5622 0.12541 0.0
S1864 S 0.48181 0.45142 0.15443 0.0
N1865 N 0.47476 0.47437 0.16876 0.0
N1866 N 0.48889 0.4688 0.13525 0.0
C1867 C 0.48564 0.49473 0.13995 0.0
C1868 C 0.47772 0.49758 0.15805 0.0
C1869 C 0.93373 0.45392 0.85613 0.0
C1870 C 0.9506 0.47683 0.84398 0.0
C1871 C 0.94487 0.45902 0.87451 0.0
C1872 C 0.97345 0.48707 0.88135 0.0
H1873 H 0.91211 0.43154 0.85128 0.0
H1874 H 0.93171 0.44027 0.88328 0.0
S1875 S 0.02533 0.55537 0.85541 0.0
N1876 N 0.99634 0.52928 0.84019 0.0
N1877 N 0.01736 0.53892 0.87486 0.0
C1878 C 0.98993 0.5107 0.8695 0.0
C1879 C 0.97843 0.5056 0.85078 0.0
C1880 C 0.49444 0.47412 0.851 0.0
C1881 C 0.52378 0.47666 0.84704 0.0
C1882 C 0.48726 0.47616 0.86894 0.0
C1883 C 0.50908 0.48065 0.88368 0.0
H1884 H 0.47645 0.46961 0.84009 0.0
H1885 H 0.46388 0.47288 0.87126 0.0
S1886 S 0.59046 0.49177 0.88071 0.0
N1887 N 0.57568 0.48597 0.85932 0.0
N1888 N 0.56231 0.49017 0.89315 0.0
C1889 C 0.53911 0.48468 0.87994 0.0
C1890 C 0.54649 0.48273 0.86161 0.0
C1891 C 0.50874 0.05354 0.86241 0.0
C1892 C 0.52044 0.03944 0.84997 0.0
C1893 C 0.50141 0.04284 0.87969 0.0
C1894 C 0.50567 0.01767 0.88543 0.0
H1895 H 0.50451 0.07267 0.85863 0.0
H1896 H 0.49132 0.05377 0.88838 0.0
S1897 S 0.5387 0.97468 0.85882 0.0
N1898 N 0.53754 0.99998 0.84502 0.0
N1899 N 0.52515 0.98082 0.8778 0.0
C1900 C 0.51883 0.00436 0.87348 0.0
C1901 C 0.52602 0.01509 0.85575 0.0
C1902 C 0.11553 0.27969 0.47829 0.0
C1903 C 0.13537 0.2933 0.49465 0.0
C1904 C 0.12671 0.29147 0.46158 0.0
C1905 C 0.15813 0.31727 0.46065 0.0
H1906 H 0.09156 0.25922 0.47833 0.0
H1907 H 0.11092 0.27975 0.44928 0.0
S1908 S 0.21777 0.36419 0.49996 0.0
N1909 N 0.1867 0.33596 0.50907 0.0
N1910 N 0.20757 0.35808 0.47786 0.0
C1911 C 0.1776 0.33192 0.47704 0.0
C1912 C 0.16626 0.31996 0.49397 0.0
C1913 C 0.74394 0.8843 0.48682 0.0
C1914 C 0.72735 0.86073 0.4987 0.0
C1915 C 0.73258 0.88 0.46851 0.0
C1916 C 0.704 0.85212 0.46147 0.0
H1917 H 0.76552 0.90659 0.49184 0.0
H1918 H 0.74557 0.89924 0.45999 0.0
S1919 S 0.65275 0.78231 0.48663 0.0
N1920 N 0.68184 0.80784 0.50196 0.0
N1921 N 0.66038 0.79972 0.46746 0.0
C1922 C 0.68778 0.82785 0.47303 0.0
C1923 C 0.69953 0.83212 0.49166 0.0
C1924 C 0.13097 0.84646 0.48787 0.0
C1925 C 0.15268 0.84908 0.50216 0.0
C1926 C 0.13765 0.84505 0.46968 0.0
C1927 C 0.16603 0.84579 0.46523 0.0
H1928 H 0.10954 0.84715 0.49078 0.0
H1929 H 0.12091 0.84423 0.45905 0.0
S1930 S 0.22939 0.85019 0.49782 0.0
N1931 N 0.20261 0.85049 0.51074 0.0
N1932 N 0.2152 0.84782 0.47667 0.0
C1933 C 0.18711 0.84683 0.47943 0.0
C1934 C 0.18043 0.84851 0.49788 0.0
C1935 C 0.63867 0.82839 0.18387 0.0
C1936 C 0.61357 0.79839 0.17604 0.0
C1937 C 0.64983 0.83275 0.20225 0.0
C1938 C 0.63616 0.80732 0.21346 0.0
H1939 H 0.65053 0.84828 0.17559 0.0
H1940 H 0.66965 0.85608 0.20767 0.0
S1941 S 0.56825 0.7247 0.19973 0.0
N1942 N 0.57384 0.74354 0.18112 0.0
N1943 N 0.59541 0.75141 0.21549 0.0
C1944 C 0.61028 0.77754 0.20592 0.0
C1945 C 0.59887 0.77316 0.18725 0.0
C1946 C 0.20905 0.81752 0.19431 0.0
C1947 C 0.18847 0.8165 0.17983 0.0
C1948 C 0.20187 0.81894 0.2124 0.0
C1949 C 0.17411 0.81978 0.21658 0.0
H1950 H 0.22997 0.8157 0.19159 0.0
H1951 H 0.21778 0.81868 0.22317 0.0
S1952 S 0.11365 0.81948 0.18341 0.0
N1953 N 0.14023 0.81801 0.17079 0.0
N1954 N 0.12665 0.8206 0.20465 0.0
C1955 C 0.15414 0.82013 0.20219 0.0
C1956 C 0.16134 0.81848 0.18385 0.0
C1957 C 0.2077 0.39131 0.19878 0.0
C1958 C 0.18846 0.37357 0.18278 0.0
C1959 C 0.19918 0.37979 0.21587 0.0
C1960 C 0.17138 0.34996 0.21749 0.0
H1961 H 0.22876 0.41473 0.19812 0.0
H1962 H 0.21424 0.39446 0.22791 0.0
S1963 S 0.1137 0.29413 0.17949 0.0
N1964 N 0.14102 0.32459 0.16951 0.0
N1965 N 0.12508 0.30286 0.20147 0.0
C1966 C 0.15256 0.33169 0.20148 0.0
C1967 C 0.16107 0.34352 0.18418 0.0
C1968 C 0.81022 0.60693 0.81595 0.0
C1969 C 0.79884 0.62249 0.8276 0.0
C1970 C 0.8209 0.61812 0.79913 0.0
C1971 C 0.82046 0.64523 0.79318 0.0
H1972 H 0.81116 0.58603 0.81992 0.0
H1973 H 0.82973 0.60553 0.79073 0.0
S1974 S 0.79367 0.69513 0.81859 0.0
N1975 N 0.78828 0.66683 0.832 0.0
N1976 N 0.8079 0.68752 0.80029 0.0
C1977 C 0.8086 0.66068 0.8045 0.0
C1978 C 0.79789 0.6494 0.8217 0.0
C1979 C 0.35744 0.19396 0.82993 0.0
C1980 C 0.38426 0.19122 0.83541 0.0
C1981 C 0.34672 0.19014 0.81156 0.0
C1982 C 0.36245 0.18354 0.7979 0.0
H1983 H 0.34498 0.19973 0.83993 0.0
H1984 H 0.32658 0.19348 0.808 0.0
S1985 S 0.43251 0.17188 0.8051 0.0
N1986 N 0.42554 0.18015 0.82578 0.0
N1987 N 0.40498 0.17241 0.79115 0.0
C1988 C 0.38863 0.17962 0.8032 0.0
C1989 C 0.39955 0.18347 0.82197 0.0
C1990 C 0.81658 0.2148 0.82038 0.0
C1991 C 0.8099 0.19065 0.83217 0.0
C1992 C 0.82377 0.21156 0.80255 0.0
C1993 C 0.82478 0.1841 0.79583 0.0
H1994 H 0.81718 0.23687 0.82516 0.0
H1995 H 0.82999 0.23136 0.79425 0.0
S1996 S 0.80616 0.11261 0.82061 0.0
N1997 N 0.8027 0.13744 0.83549 0.0
N1998 N 0.81581 0.1311 0.80185 0.0
C1999 C 0.81661 0.15907 0.80718 0.0
C2000 C 0.80917 0.16234 0.82535 0.0
C2001 C 0.31991 0.14386 0.51494 0.0
C2002 C 0.29432 0.14813 0.50883 0.0
C2003 C 0.32984 0.14785 0.53345 0.0
C2004 C 0.31455 0.15623 0.54661 0.0
H2005 H 0.33194 0.13667 0.50534 0.0
H2006 H 0.34887 0.1431 0.53752 0.0
S2007 S 0.24794 0.17267 0.53764 0.0
N2008 N 0.25482 0.1627 0.51732 0.0
N2009 N 0.27406 0.17099 0.55218 0.0
C2010 C 0.28979 0.16191 0.54065 0.0
C2011 C 0.27962 0.15778 0.52175 0.0
C2012 C 0.85647 0.16824 0.52225 0.0
C2013 C 0.86292 0.14394 0.51621 0.0
C2014 C 0.84846 0.17045 0.54007 0.0
C2015 C 0.84709 0.14868 0.55247 0.0
H2016 H 0.85607 0.18462 0.5129 0.0
H2017 H 0.84256 0.18881 0.54405 0.0
S2018 S 0.86392 0.08196 0.54342 0.0
N2019 N 0.86897 0.09876 0.5241 0.0
N2020 N 0.85412 0.10288 0.55754 0.0
C2021 C 0.85493 0.12522 0.54676 0.0
C2022 C 0.86278 0.12283 0.52863 0.0
C2023 C 0.86626 0.70108 0.52521 0.0
C2024 C 0.86574 0.72916 0.5213 0.0
C2025 C 0.85726 0.68794 0.54186 0.0
C2026 C 0.84756 0.70246 0.55531 0.0
H2027 H 0.8722 0.6883 0.515 0.0
H2028 H 0.85727 0.66584 0.54408 0.0
S2029 S 0.84451 0.77786 0.55233 0.0
N2030 N 0.85711 0.77247 0.53281 0.0
N2031 N 0.83937 0.74738 0.56379 0.0
C2032 C 0.84831 0.73135 0.55186 0.0
C2033 C 0.85757 0.74476 0.53496 0.0
loop_
_geom_bond_atom_site_label_1
_geom_bond_atom_site_label_2
_geom_bond_distance
_geom_bond_site_symmetry_2
_ccdc_geom_bond_type
C0 C1 1.391 . S
C0 C4 1.391 . S
C0 H42 0.948 . S
C1 C0 1.391 . S
C1 C2 1.391 . S
C2 C1 1.391 . S
C2 H58 0.947 . S
C2 C59 1.392 . S
C3 C4 1.391 . S
C3 C7 1.397 . S
C3 C59 1.419 . S
C4 C0 1.391 . S
C4 C3 1.391 . S
C4 C5 1.399 . S
C5 C4 1.399 . S
C5 C8 1.396 . S
C5 C17 1.453 . S
C5 C18 1.684 . S
H6 C30 0.948 . S
C7 C3 1.397 . S
C7 C8 1.394 . S
C7 C26 1.723 . S
C8 C5 1.396 . S
C8 C7 1.394 . S
C8 C38 1.723 . S
H9 C32 0.947 . S
H10 C33 0.948 . S
H11 C39 0.982 . S
H12 C40 0.979 . S
H13 C40 0.980 . S
H14 C40 0.983 . S
H15 C39 0.979 . S
H16 C39 0.977 . S
C17 C5 1.453 . S
C17 H46 0.982 . S
C17 H47 0.979 . S
C17 H48 0.977 . S
C18 C5 1.684 . S
C18 H43 0.979 . S
C18 H44 0.980 . S
C18 H45 0.983 . S
C19 C20 1.391 . S
C19 C24 1.391 . S
C19 H49 0.948 . S
C20 C19 1.391 . S
C20 C21 1.391 . S
C21 C20 1.391 . S
C21 C22 1.392 . S
C21 H50 0.947 . S
C22 C21 1.392 . S
C22 C23 1.419 . S
C22 H51 0.948 . S
C23 C22 1.419 . S
C23 C24 1.391 . S
C23 C27 1.397 . S
C24 C19 1.391 . S
C24 C23 1.391 . S
C24 C25 1.399 . S
C25 C24 1.399 . S
C25 C26 1.396 . S
C25 C28 1.453 . S
C25 C29 1.684 . S
C26 C7 1.723 . S
C26 C25 1.396 . S
C26 C27 1.394 . S
C27 C23 1.397 . S
C27 C26 1.394 . S
C27 C37 1.723 . S
C28 C25 1.453 . S
C28 H52 0.982 . S
C28 H53 0.979 . S
C28 H54 0.977 . S
C29 C25 1.684 . S
C29 H55 0.979 . S
C29 H56 0.980 . S
C29 H57 0.983 . S
C30 H6 0.948 . S
C30 C31 1.391 . S
C30 C35 1.391 . S
C31 C30 1.391 . S
C31 C32 1.391 . S
C32 H9 0.947 . S
C32 C31 1.391 . S
C32 C33 1.392 . S
C33 H10 0.948 . S
C33 C32 1.392 . S
C33 C34 1.419 . S
C34 C33 1.419 . S
C34 C35 1.391 . S
C34 C38 1.397 . S
C35 C30 1.391 . S
C35 C34 1.391 . S
C35 C36 1.399 . S
C36 C35 1.399 . S
C36 C37 1.396 . S
C36 C39 1.453 . S
C36 C40 1.684 . S
C37 C27 1.723 . S
C37 C36 1.396 . S
C37 C38 1.394 . S
C38 C8 1.723 . S
C38 C34 1.397 . S
C38 C37 1.394 . S
C39 H11 0.982 . S
C39 H15 0.979 . S
C39 H16 0.977 . S
C39 C36 1.453 . S
C40 H12 0.979 . S
C40 H13 0.980 . S
C40 H14 0.983 . S
C40 C36 1.684 . S
H41 C59 0.948 . S
H42 C0 0.948 . S
H43 C18 0.979 . S
H44 C18 0.980 . S
H45 C18 0.983 . S
H46 C17 0.982 . S
H47 C17 0.979 . S
H48 C17 0.977 . S
H49 C19 0.948 . S
H50 C21 0.947 . S
H51 C22 0.948 . S
H52 C28 0.982 . S
H53 C28 0.979 . S
H54 C28 0.977 . S
H55 C29 0.979 . S
H56 C29 0.980 . S
H57 C29 0.983 . S
H58 C2 0.947 . S
C59 C2 1.392 . S
C59 C3 1.419 . S
C59 H41 0.948 . S
C60 C61 1.391 . S
C60 C64 1.391 . S
C60 H102 0.948 . S
C61 C60 1.391 . S
C61 C62 1.391 . S
C62 C61 1.391 . S
C62 H118 0.947 . S
C62 C119 1.392 . S
C63 C64 1.391 . S
C63 C67 1.397 . S
C63 C119 1.419 . S
C64 C60 1.391 . S
C64 C63 1.391 . S
C64 C65 1.399 . S
C65 C64 1.399 . S
C65 C68 1.396 . S
C65 C77 1.453 . S
C65 C78 1.684 . S
H66 C90 0.948 . S
C67 C63 1.397 . S
C67 C68 1.394 . S
C67 C86 1.723 . S
C68 C65 1.396 . S
C68 C67 1.394 . S
C68 C98 1.723 . S
H69 C92 0.947 . S
H70 C93 0.948 . S
H71 C99 0.982 . S
H72 C100 0.979 . S
H73 C100 0.980 . S
H74 C100 0.983 . S
H75 C99 0.979 . S
H76 C99 0.977 . S
C77 C65 1.453 . S
C77 H106 0.982 . S
C77 H107 0.979 . S
C77 H108 0.977 . S
C78 C65 1.684 . S
C78 H103 0.979 . S
C78 H104 0.980 . S
C78 H105 0.983 . S
C79 C80 1.391 . S
C79 C84 1.391 . S
C79 H109 0.948 . S
C80 C79 1.391 . S
C80 C81 1.391 . S
C81 C80 1.391 . S
C81 C82 1.392 . S
C81 H110 0.947 . S
C82 C81 1.392 . S
C82 C83 1.419 . S
C82 H111 0.948 . S
C83 C82 1.419 . S
C83 C84 1.391 . S
C83 C87 1.397 . S
C84 C79 1.391 . S
C84 C83 1.391 . S
C84 C85 1.399 . S
C85 C84 1.399 . S
C85 C86 1.396 . S
C85 C88 1.453 . S
C85 C89 1.684 . S
C86 C67 1.723 . S
C86 C85 1.396 . S
C86 C87 1.394 . S
C87 C83 1.397 . S
C87 C86 1.394 . S
C87 C97 1.723 . S
C88 C85 1.453 . S
C88 H112 0.982 . S
C88 H113 0.979 . S
C88 H114 0.977 . S
C89 C85 1.684 . S
C89 H115 0.979 . S
C89 H116 0.980 . S
C89 H117 0.983 . S
C90 H66 0.948 . S
C90 C91 1.391 . S
C90 C95 1.391 . S
C91 C90 1.391 . S
C91 C92 1.391 . S
C92 H69 0.947 . S
C92 C91 1.391 . S
C92 C93 1.392 . S
C93 H70 0.948 . S
C93 C92 1.392 . S
C93 C94 1.419 . S
C94 C93 1.419 . S
C94 C95 1.391 . S
C94 C98 1.397 . S
C95 C90 1.391 . S
C95 C94 1.391 . S
C95 C96 1.399 . S
C96 C95 1.399 . S
C96 C97 1.396 . S
C96 C99 1.453 . S
C96 C100 1.684 . S
C97 C87 1.723 . S
C97 C96 1.396 . S
C97 C98 1.394 . S
C98 C68 1.723 . S
C98 C94 1.397 . S
C98 C97 1.394 . S
C99 H71 0.982 . S
C99 H75 0.979 . S
C99 H76 0.977 . S
C99 C96 1.453 . S
C100 H72 0.979 . S
C100 H73 0.980 . S
C100 H74 0.983 . S
C100 C96 1.684 . S
H101 C119 0.948 . S
H102 C60 0.948 . S
H103 C78 0.979 . S
H104 C78 0.980 . S
H105 C78 0.983 . S
H106 C77 0.982 . S
H107 C77 0.979 . S
H108 C77 0.977 . S
H109 C79 0.948 . S
H110 C81 0.947 . S
H111 C82 0.948 . S
H112 C88 0.982 . S
H113 C88 0.979 . S
H114 C88 0.977 . S
H115 C89 0.979 . S
H116 C89 0.980 . S
H117 C89 0.983 . S
H118 C62 0.947 . S
C119 C62 1.392 . S
C119 C63 1.419 . S
C119 H101 0.948 . S
C120 C121 1.391 . S
C120 C124 1.391 . S
C120 H162 0.948 . S
C121 C120 1.391 . S
C121 C122 1.391 . S
C122 C121 1.391 . S
C122 H178 0.947 1_655 S
C122 C179 1.392 . S
C123 C124 1.391 . S
C123 C127 1.397 . S
C123 C179 1.419 . S
C124 C120 1.391 . S
C124 C123 1.391 . S
C124 C125 1.399 . S
C125 C124 1.399 . S
C125 C128 1.396 . S
C125 C137 1.453 . S
C125 C138 1.684 . S
H126 C150 0.948 . S
C127 C123 1.397 . S
C127 C128 1.394 . S
C127 C146 1.723 . S
C128 C125 1.396 . S
C128 C127 1.394 . S
C128 C158 1.723 . S
H129 C152 0.947 . S
H130 C153 0.948 . S
H131 C159 0.982 . S
H132 C160 0.979 . S
H133 C160 0.980 . S
H134 C160 0.983 . S
H135 C159 0.979 . S
H136 C159 0.977 . S
C137 C125 1.453 . S
C137 H166 0.982 . S
C137 H167 0.979 . S
C137 H168 0.977 . S
C138 C125 1.684 . S
C138 H163 0.979 . S
C138 H164 0.980 . S
C138 H165 0.983 . S
C139 C140 1.391 . S
C139 C144 1.391 . S
C139 H169 0.948 . S
C140 C139 1.391 . S
C140 C141 1.391 . S
C141 C140 1.391 . S
C141 C142 1.392 . S
C141 H170 0.947 . S
C142 C141 1.392 . S
C142 C143 1.419 . S
C142 H171 0.948 . S
C143 C142 1.419 . S
C143 C144 1.391 . S
C143 C147 1.397 . S
C144 C139 1.391 . S
C144 C143 1.391 . S
C144 C145 1.399 . S
C145 C144 1.399 . S
C145 C146 1.396 . S
C145 C148 1.453 . S
C145 C149 1.684 . S
C146 C127 1.723 . S
C146 C145 1.396 . S
C146 C147 1.394 . S
C147 C143 1.397 . S
C147 C146 1.394 . S
C147 C157 1.723 . S
C148 C145 1.453 . S
C148 H172 0.982 . S
C148 H173 0.979 . S
C148 H174 0.977 . S
C149 C145 1.684 . S
C149 H175 0.979 . S
C149 H176 0.980 . S
C149 H177 0.983 . S
C150 H126 0.948 . S
C150 C151 1.391 . S
C150 C155 1.391 . S
C151 C150 1.391 . S
C151 C152 1.391 . S
C152 H129 0.947 . S
C152 C151 1.391 . S
C152 C153 1.392 . S
C153 H130 0.948 . S
C153 C152 1.392 . S
C153 C154 1.419 . S
C154 C153 1.419 . S
C154 C155 1.391 . S
C154 C158 1.397 . S
C155 C150 1.391 . S
C155 C154 1.391 . S
C155 C156 1.399 . S
C156 C155 1.399 . S
C156 C157 1.396 . S
C156 C159 1.453 . S
C156 C160 1.684 . S
C157 C147 1.723 . S
C157 C156 1.396 . S
C157 C158 1.394 . S
C158 C128 1.723 . S
C158 C154 1.397 . S
C158 C157 1.394 . S
C159 H131 0.982 . S
C159 H135 0.979 . S
C159 H136 0.977 . S
C159 C156 1.453 . S
C160 H132 0.979 . S
C160 H133 0.980 . S
C160 H134 0.983 . S
C160 C156 1.684 . S
H161 C179 0.948 . S
H162 C120 0.948 . S
H163 C138 0.979 . S
H164 C138 0.980 . S
H165 C138 0.983 . S
H166 C137 0.982 . S
H167 C137 0.979 . S
H168 C137 0.977 . S
H169 C139 0.948 . S
H170 C141 0.947 . S
H171 C142 0.948 . S
H172 C148 0.982 . S
H173 C148 0.979 . S
H174 C148 0.977 . S
H175 C149 0.979 . S
H176 C149 0.980 . S
H177 C149 0.983 . S
H178 C122 0.947 1_455 S
C179 C122 1.392 . S
C179 C123 1.419 . S
C179 H161 0.948 . S
C180 C181 1.391 . S
C180 C184 1.391 . S
C180 H222 0.948 . S
C181 C180 1.391 . S
C181 C182 1.391 . S
C182 C181 1.391 . S
C182 H238 0.947 . S
C182 C239 1.392 . S
C183 C184 1.391 . S
C183 C187 1.397 . S
C183 C239 1.419 . S
C184 C180 1.391 . S
C184 C183 1.391 . S
C184 C185 1.399 . S
C185 C184 1.399 . S
C185 C188 1.396 . S
C185 C197 1.453 . S
C185 C198 1.684 . S
H186 C210 0.948 . S
C187 C183 1.397 . S
C187 C188 1.394 . S
C187 C206 1.723 . S
C188 C185 1.396 . S
C188 C187 1.394 . S
C188 C218 1.723 . S
H189 C212 0.947 . S
H190 C213 0.948 . S
H191 C219 0.982 . S
H192 C220 0.979 . S
H193 C220 0.980 . S
H194 C220 0.983 . S
H195 C219 0.979 . S
H196 C219 0.977 . S
C197 C185 1.453 . S
C197 H226 0.982 . S
C197 H227 0.979 . S
C197 H228 0.977 . S
C198 C185 1.684 . S
C198 H223 0.979 . S
C198 H224 0.980 . S
C198 H225 0.983 . S
C199 C200 1.391 . S
C199 C204 1.391 . S
C199 H229 0.948 . S
C200 C199 1.391 . S
C200 C201 1.391 . S
C201 C200 1.391 . S
C201 C202 1.392 . S
C201 H230 0.947 . S
C202 C201 1.392 . S
C202 C203 1.419 . S
C202 H231 0.948 . S
C203 C202 1.419 . S
C203 C204 1.391 . S
C203 C207 1.397 . S
C204 C199 1.391 . S
C204 C203 1.391 . S
C204 C205 1.399 . S
C205 C204 1.399 . S
C205 C206 1.396 . S
C205 C208 1.453 . S
C205 C209 1.684 . S
C206 C187 1.723 . S
C206 C205 1.396 . S
C206 C207 1.394 . S
C207 C203 1.397 . S
C207 C206 1.394 . S
C207 C217 1.723 . S
C208 C205 1.453 . S
C208 H232 0.982 . S
C208 H233 0.979 . S
C208 H234 0.977 . S
C209 C205 1.684 . S
C209 H235 0.979 . S
C209 H236 0.980 . S
C209 H237 0.983 . S
C210 H186 0.948 . S
C210 C211 1.391 . S
C210 C215 1.391 . S
C211 C210 1.391 . S
C211 C212 1.391 . S
C212 H189 0.947 . S
C212 C211 1.391 . S
C212 C213 1.392 . S
C213 H190 0.948 . S
C213 C212 1.392 . S
C213 C214 1.419 . S
C214 C213 1.419 . S
C214 C215 1.391 . S
C214 C218 1.397 . S
C215 C210 1.391 . S
C215 C214 1.391 . S
C215 C216 1.399 . S
C216 C215 1.399 . S
C216 C217 1.396 . S
C216 C219 1.453 . S
C216 C220 1.684 . S
C217 C207 1.723 . S
C217 C216 1.396 . S
C217 C218 1.394 . S
C218 C188 1.723 . S
C218 C214 1.397 . S
C218 C217 1.394 . S
C219 H191 0.982 . S
C219 H195 0.979 . S
C219 H196 0.977 . S
C219 C216 1.453 . S
C220 H192 0.979 . S
C220 H193 0.980 . S
C220 H194 0.983 . S
C220 C216 1.684 . S
H221 C239 0.948 . S
H222 C180 0.948 . S
H223 C198 0.979 . S
H224 C198 0.980 . S
H225 C198 0.983 . S
H226 C197 0.982 . S
H227 C197 0.979 . S
H228 C197 0.977 . S
H229 C199 0.948 . S
H230 C201 0.947 . S
H231 C202 0.948 . S
H232 C208 0.982 . S
H233 C208 0.979 . S
H234 C208 0.977 . S
H235 C209 0.979 . S
H236 C209 0.980 . S
H237 C209 0.983 . S
H238 C182 0.947 . S
C239 C182 1.392 . S
C239 C183 1.419 . S
C239 H221 0.948 . S
C240 C241 1.391 . S
C240 C244 1.391 . S
C240 H282 0.948 . S
C241 C240 1.391 . S
C241 C242 1.391 . S
C242 C241 1.391 . S
C242 H298 0.947 . S
C242 C299 1.392 . S
C243 C244 1.391 . S
C243 C247 1.397 . S
C243 C299 1.419 . S
C244 C240 1.391 . S
C244 C243 1.391 . S
C244 C245 1.399 . S
C245 C244 1.399 . S
C245 C248 1.396 . S
C245 C257 1.453 . S
C245 C258 1.684 . S
H246 C270 0.948 . S
C247 C243 1.397 . S
C247 C248 1.394 . S
C247 C266 1.723 . S
C248 C245 1.396 . S
C248 C247 1.394 . S
C248 C278 1.723 . S
H249 C272 0.947 . S
H250 C273 0.948 . S
H251 C279 0.982 . S
H252 C280 0.979 . S
H253 C280 0.980 . S
H254 C280 0.983 . S
H255 C279 0.979 . S
H256 C279 0.977 . S
C257 C245 1.453 . S
C257 H286 0.982 . S
C257 H287 0.979 . S
C257 H288 0.977 . S
C258 C245 1.684 . S
C258 H283 0.979 . S
C258 H284 0.980 . S
C258 H285 0.983 . S
C259 C260 1.391 . S
C259 C264 1.391 . S
C259 H289 0.948 . S
C260 C259 1.391 . S
C260 C261 1.391 . S
C261 C260 1.391 . S
C261 C262 1.392 . S
C261 H290 0.947 . S
C262 C261 1.392 . S
C262 C263 1.419 . S
C262 H291 0.948 . S
C263 C262 1.419 . S
C263 C264 1.391 . S
C263 C267 1.397 . S
C264 C259 1.391 . S
C264 C263 1.391 . S
C264 C265 1.399 . S
C265 C264 1.399 . S
C265 C266 1.396 . S
C265 C268 1.453 . S
C265 C269 1.684 . S
C266 C247 1.723 . S
C266 C265 1.396 . S
C266 C267 1.394 . S
C267 C263 1.397 . S
C267 C266 1.394 . S
C267 C277 1.723 . S
C268 C265 1.453 . S
C268 H292 0.982 . S
C268 H293 0.979 . S
C268 H294 0.977 . S
C269 C265 1.684 . S
C269 H295 0.979 . S
C269 H296 0.980 . S
C269 H297 0.983 . S
C270 H246 0.948 . S
C270 C271 1.391 . S
C270 C275 1.391 . S
C271 C270 1.391 . S
C271 C272 1.391 . S
C272 H249 0.947 . S
C272 C271 1.391 . S
C272 C273 1.392 . S
C273 H250 0.948 . S
C273 C272 1.392 . S
C273 C274 1.419 . S
C274 C273 1.419 . S
C274 C275 1.391 . S
C274 C278 1.397 . S
C275 C270 1.391 . S
C275 C274 1.391 . S
C275 C276 1.399 . S
C276 C275 1.399 . S
C276 C277 1.396 . S
C276 C279 1.453 . S
C276 C280 1.684 . S
C277 C267 1.723 . S
C277 C276 1.396 . S
C277 C278 1.394 . S
C278 C248 1.723 . S
C278 C274 1.397 . S
C278 C277 1.394 . S
C279 H251 0.982 . S
C279 H255 0.979 . S
C279 H256 0.977 . S
C279 C276 1.453 . S
C280 H252 0.979 . S
C280 H253 0.980 . S
C280 H254 0.983 . S
C280 C276 1.684 . S
H281 C299 0.948 . S
H282 C240 0.948 . S
H283 C258 0.979 . S
H284 C258 0.980 . S
H285 C258 0.983 . S
H286 C257 0.982 . S
H287 C257 0.979 . S
H288 C257 0.977 . S
H289 C259 0.948 . S
H290 C261 0.947 . S
H291 C262 0.948 . S
H292 C268 0.982 . S
H293 C268 0.979 . S
H294 C268 0.977 . S
H295 C269 0.979 . S
H296 C269 0.980 . S
H297 C269 0.983 . S
H298 C242 0.947 . S
C299 C242 1.392 . S
C299 C243 1.419 . S
C299 H281 0.948 . S
C300 C301 1.391 . S
C300 C304 1.391 . S
C300 H342 0.948 . S
C301 C300 1.391 . S
C301 C302 1.391 . S
C302 C301 1.391 . S
C302 H358 0.947 . S
C302 C359 1.392 . S
C303 C304 1.391 . S
C303 C307 1.397 . S
C303 C359 1.419 . S
C304 C300 1.391 . S
C304 C303 1.391 . S
C304 C305 1.399 . S
C305 C304 1.399 . S
C305 C308 1.396 . S
C305 C317 1.453 . S
C305 C318 1.684 . S
H306 C330 0.948 . S
C307 C303 1.397 . S
C307 C308 1.394 . S
C307 C326 1.723 . S
C308 C305 1.396 . S
C308 C307 1.394 . S
C308 C338 1.723 . S
H309 C332 0.947 . S
H310 C333 0.948 . S
H311 C339 0.982 . S
H312 C340 0.979 . S
H313 C340 0.980 . S
H314 C340 0.983 . S
H315 C339 0.979 . S
H316 C339 0.977 . S
C317 C305 1.453 . S
C317 H346 0.982 . S
C317 H347 0.979 . S
C317 H348 0.977 . S
C318 C305 1.684 . S
C318 H343 0.979 . S
C318 H344 0.980 . S
C318 H345 0.983 . S
C319 C320 1.391 . S
C319 C324 1.391 . S
C319 H349 0.948 . S
C320 C319 1.391 . S
C320 C321 1.391 . S
C321 C320 1.391 . S
C321 C322 1.392 . S
C321 H350 0.947 . S
C322 C321 1.392 . S
C322 C323 1.419 . S
C322 H351 0.948 . S
C323 C322 1.419 . S
C323 C324 1.391 . S
C323 C327 1.397 . S
C324 C319 1.391 . S
C324 C323 1.391 . S
C324 C325 1.399 . S
C325 C324 1.399 . S
C325 C326 1.396 . S
C325 C328 1.453 . S
C325 C329 1.684 . S
C326 C307 1.723 . S
C326 C325 1.396 . S
C326 C327 1.394 . S
C327 C323 1.397 . S
C327 C326 1.394 . S
C327 C337 1.723 . S
C328 C325 1.453 . S
C328 H352 0.982 . S
C328 H353 0.979 . S
C328 H354 0.977 . S
C329 C325 1.684 . S
C329 H355 0.979 . S
C329 H356 0.980 . S
C329 H357 0.983 . S
C330 H306 0.948 . S
C330 C331 1.391 . S
C330 C335 1.391 . S
C331 C330 1.391 . S
C331 C332 1.391 . S
C332 H309 0.947 . S
C332 C331 1.391 . S
C332 C333 1.392 . S
C333 H310 0.948 . S
C333 C332 1.392 . S
C333 C334 1.419 . S
C334 C333 1.419 . S
C334 C335 1.391 . S
C334 C338 1.397 . S
C335 C330 1.391 . S
C335 C334 1.391 . S
C335 C336 1.399 . S
C336 C335 1.399 . S
C336 C337 1.396 . S
C336 C339 1.453 . S
C336 C340 1.684 . S
C337 C327 1.723 . S
C337 C336 1.396 . S
C337 C338 1.394 . S
C338 C308 1.723 . S
C338 C334 1.397 . S
C338 C337 1.394 . S
C339 H311 0.982 . S
C339 H315 0.979 . S
C339 H316 0.977 . S
C339 C336 1.453 . S
C340 H312 0.979 . S
C340 H313 0.980 . S
C340 H314 0.983 . S
C340 C336 1.684 . S
H341 C359 0.948 . S
H342 C300 0.948 . S
H343 C318 0.979 . S
H344 C318 0.980 . S
H345 C318 0.983 . S
H346 C317 0.982 . S
H347 C317 0.979 . S
H348 C317 0.977 . S
H349 C319 0.948 . S
H350 C321 0.947 . S
H351 C322 0.948 . S
H352 C328 0.982 . S
H353 C328 0.979 . S
H354 C328 0.977 . S
H355 C329 0.979 . S
H356 C329 0.980 . S
H357 C329 0.983 . S
H358 C302 0.947 . S
C359 C302 1.392 . S
C359 C303 1.419 . S
C359 H341 0.948 . S
C360 C361 1.391 . S
C360 C364 1.391 . S
C360 H402 0.948 . S
C361 C360 1.391 . S
C361 C362 1.391 . S
C362 C361 1.391 . S
C362 H418 0.947 . S
C362 C419 1.392 . S
C363 C364 1.391 . S
C363 C367 1.397 . S
C363 C419 1.419 . S
C364 C360 1.391 . S
C364 C363 1.391 . S
C364 C365 1.399 . S
C365 C364 1.399 . S
C365 C368 1.396 . S
C365 C377 1.453 . S
C365 C378 1.684 . S
H366 C390 0.948 . S
C367 C363 1.397 . S
C367 C368 1.394 . S
C367 C386 1.723 . S
C368 C365 1.396 . S
C368 C367 1.394 . S
C368 C398 1.723 . S
H369 C392 0.947 . S
H370 C393 0.948 . S
H371 C399 0.982 1_455 S
H372 C400 0.979 . S
H373 C400 0.980 . S
H374 C400 0.983 . S
H375 C399 0.979 . S
H376 C399 0.977 . S
C377 C365 1.453 . S
C377 H406 0.982 . S
C377 H407 0.979 . S
C377 H408 0.977 . S
C378 C365 1.684 . S
C378 H403 0.979 . S
C378 H404 0.980 . S
C378 H405 0.983 . S
C379 C380 1.391 . S
C379 C384 1.391 . S
C379 H409 0.948 . S
C380 C379 1.391 . S
C380 C381 1.391 . S
C381 C380 1.391 . S
C381 C382 1.392 . S
C381 H410 0.947 . S
C382 C381 1.392 . S
C382 C383 1.419 . S
C382 H411 0.948 . S
C383 C382 1.419 . S
C383 C384 1.391 . S
C383 C387 1.397 . S
C384 C379 1.391 . S
C384 C383 1.391 . S
C384 C385 1.399 . S
C385 C384 1.399 . S
C385 C386 1.396 . S
C385 C388 1.453 . S
C385 C389 1.684 . S
C386 C367 1.723 . S
C386 C385 1.396 . S
C386 C387 1.394 . S
C387 C383 1.397 . S
C387 C386 1.394 . S
C387 C397 1.723 . S
C388 C385 1.453 . S
C388 H412 0.982 1_655 S
C388 H413 0.979 1_655 S
C388 H414 0.977 . S
C389 C385 1.684 . S
C389 H415 0.979 . S
C389 H416 0.980 . S
C389 H417 0.983 . S
C390 H366 0.948 . S
C390 C391 1.391 . S
C390 C395 1.391 . S
C391 C390 1.391 . S
C391 C392 1.391 . S
C392 H369 0.947 . S
C392 C391 1.391 . S
C392 C393 1.392 . S
C393 H370 0.948 . S
C393 C392 1.392 . S
C393 C394 1.419 . S
C394 C393 1.419 . S
C394 C395 1.391 . S
C394 C398 1.397 . S
C395 C390 1.391 . S
C395 C394 1.391 . S
C395 C396 1.399 . S
C396 C395 1.399 . S
C396 C397 1.396 . S
C396 C399 1.453 . S
C396 C400 1.684 . S
C397 C387 1.723 . S
C397 C396 1.396 . S
C397 C398 1.394 . S
C398 C368 1.723 . S
C398 C394 1.397 . S
C398 C397 1.394 . S
C399 H371 0.982 1_655 S
C399 H375 0.979 . S
C399 H376 0.977 . S
C399 C396 1.453 . S
C400 H372 0.979 . S
C400 H373 0.980 . S
C400 H374 0.983 . S
C400 C396 1.684 . S
H401 C419 0.948 . S
H402 C360 0.948 . S
H403 C378 0.979 . S
H404 C378 0.980 . S
H405 C378 0.983 . S
H406 C377 0.982 . S
H407 C377 0.979 . S
H408 C377 0.977 . S
H409 C379 0.948 . S
H410 C381 0.947 . S
H411 C382 0.948 . S
H412 C388 0.982 1_455 S
H413 C388 0.979 1_455 S
H414 C388 0.977 . S
H415 C389 0.979 . S
H416 C389 0.980 . S
H417 C389 0.983 . S
H418 C362 0.947 . S
C419 C362 1.392 . S
C419 C363 1.419 . S
C419 H401 0.948 . S
C420 C421 1.391 . S
C420 C424 1.391 . S
C420 H462 0.948 . S
C421 C420 1.391 . S
C421 C422 1.391 . S
C422 C421 1.391 . S
C422 H478 0.947 . S
C422 C479 1.392 . S
C423 C424 1.391 . S
C423 C427 1.397 . S
C423 C479 1.419 . S
C424 C420 1.391 . S
C424 C423 1.391 . S
C424 C425 1.399 . S
C425 C424 1.399 . S
C425 C428 1.396 . S
C425 C437 1.453 . S
C425 C438 1.684 . S
H426 C450 0.948 . S
C427 C423 1.397 . S
C427 C428 1.394 . S
C427 C446 1.723 . S
C428 C425 1.396 . S
C428 C427 1.394 . S
C428 C458 1.723 . S
H429 C452 0.947 . S
H430 C453 0.948 . S
H431 C459 0.982 . S
H432 C460 0.979 . S
H433 C460 0.980 . S
H434 C460 0.983 . S
H435 C459 0.979 . S
H436 C459 0.977 . S
C437 C425 1.453 . S
C437 H466 0.982 . S
C437 H467 0.979 . S
C437 H468 0.977 . S
C438 C425 1.684 . S
C438 H463 0.979 . S
C438 H464 0.980 . S
C438 H465 0.983 . S
C439 C440 1.391 . S
C439 C444 1.391 . S
C439 H469 0.948 . S
C440 C439 1.391 . S
C440 C441 1.391 . S
C441 C440 1.391 . S
C441 C442 1.392 . S
C441 H470 0.947 . S
C442 C441 1.392 . S
C442 C443 1.419 . S
C442 H471 0.948 . S
C443 C442 1.419 . S
C443 C444 1.391 . S
C443 C447 1.397 . S
C444 C439 1.391 . S
C444 C443 1.391 . S
C444 C445 1.399 . S
C445 C444 1.399 . S
C445 C446 1.396 . S
C445 C448 1.453 . S
C445 C449 1.684 . S
C446 C427 1.723 . S
C446 C445 1.396 . S
C446 C447 1.394 . S
C447 C443 1.397 . S
C447 C446 1.394 . S
C447 C457 1.723 . S
C448 C445 1.453 . S
C448 H472 0.982 . S
C448 H473 0.979 . S
C448 H474 0.977 . S
C449 C445 1.684 . S
C449 H475 0.979 . S
C449 H476 0.980 . S
C449 H477 0.983 . S
C450 H426 0.948 . S
C450 C451 1.391 . S
C450 C455 1.391 . S
C451 C450 1.391 . S
C451 C452 1.391 . S
C452 H429 0.947 . S
C452 C451 1.391 . S
C452 C453 1.392 . S
C453 H430 0.948 . S
C453 C452 1.392 . S
C453 C454 1.419 . S
C454 C453 1.419 . S
C454 C455 1.391 . S
C454 C458 1.397 . S
C455 C450 1.391 . S
C455 C454 1.391 . S
C455 C456 1.399 . S
C456 C455 1.399 . S
C456 C457 1.396 . S
C456 C459 1.453 . S
C456 C460 1.684 . S
C457 C447 1.723 . S
C457 C456 1.396 . S
C457 C458 1.394 . S
C458 C428 1.723 . S
C458 C454 1.397 . S
C458 C457 1.394 . S
C459 H431 0.982 . S
C459 H435 0.979 . S
C459 H436 0.977 . S
C459 C456 1.453 . S
C460 H432 0.979 . S
C460 H433 0.980 . S
C460 H434 0.983 . S
C460 C456 1.684 . S
H461 C479 0.948 . S
H462 C420 0.948 . S
H463 C438 0.979 . S
H464 C438 0.980 . S
H465 C438 0.983 . S
H466 C437 0.982 . S
H467 C437 0.979 . S
H468 C437 0.977 . S
H469 C439 0.948 . S
H470 C441 0.947 . S
H471 C442 0.948 . S
H472 C448 0.982 . S
H473 C448 0.979 . S
H474 C448 0.977 . S
H475 C449 0.979 . S
H476 C449 0.980 . S
H477 C449 0.983 . S
H478 C422 0.947 . S
C479 C422 1.392 . S
C479 C423 1.419 . S
C479 H461 0.948 . S
C480 C481 1.391 . S
C480 C484 1.391 . S
C480 H522 0.948 . S
C481 C480 1.391 . S
C481 C482 1.391 . S
C482 C481 1.391 . S
C482 H538 0.947 . S
C482 C539 1.392 . S
C483 C484 1.391 . S
C483 C487 1.397 . S
C483 C539 1.419 . S
C484 C480 1.391 . S
C484 C483 1.391 . S
C484 C485 1.399 . S
C485 C484 1.399 . S
C485 C488 1.396 . S
C485 C497 1.453 . S
C485 C498 1.684 . S
H486 C510 0.948 . S
C487 C483 1.397 . S
C487 C488 1.394 . S
C487 C506 1.723 . S
C488 C485 1.396 . S
C488 C487 1.394 . S
C488 C518 1.723 . S
H489 C512 0.947 . S
H490 C513 0.948 . S
H491 C519 0.982 . S
H492 C520 0.979 . S
H493 C520 0.980 . S
H494 C520 0.983 . S
H495 C519 0.979 . S
H496 C519 0.977 . S
C497 C485 1.453 . S
C497 H526 0.982 . S
C497 H527 0.979 . S
C497 H528 0.977 . S
C498 C485 1.684 . S
C498 H523 0.979 . S
C498 H524 0.980 . S
C498 H525 0.983 . S
C499 C500 1.391 . S
C499 C504 1.391 . S
C499 H529 0.948 . S
C500 C499 1.391 . S
C500 C501 1.391 . S
C501 C500 1.391 . S
C501 C502 1.392 . S
C501 H530 0.947 . S
C502 C501 1.392 . S
C502 C503 1.419 . S
C502 H531 0.948 . S
C503 C502 1.419 . S
C503 C504 1.391 . S
C503 C507 1.397 . S
C504 C499 1.391 . S
C504 C503 1.391 . S
C504 C505 1.399 . S
C505 C504 1.399 . S
C505 C506 1.396 . S
C505 C508 1.453 . S
C505 C509 1.684 . S
C506 C487 1.723 . S
C506 C505 1.396 . S
C506 C507 1.394 . S
C507 C503 1.397 . S
C507 C506 1.394 . S
C507 C517 1.723 . S
C508 C505 1.453 . S
C508 H532 0.982 . S
C508 H533 0.979 . S
C508 H534 0.977 . S
C509 C505 1.684 . S
C509 H535 0.979 . S
C509 H536 0.980 . S
C509 H537 0.983 . S
C510 H486 0.948 . S
C510 C511 1.391 . S
C510 C515 1.391 . S
C511 C510 1.391 . S
C511 C512 1.391 . S
C512 H489 0.947 . S
C512 C511 1.391 . S
C512 C513 1.392 . S
C513 H490 0.948 . S
C513 C512 1.392 . S
C513 C514 1.419 . S
C514 C513 1.419 . S
C514 C515 1.391 . S
C514 C518 1.397 . S
C515 C510 1.391 . S
C515 C514 1.391 . S
C515 C516 1.399 . S
C516 C515 1.399 . S
C516 C517 1.396 . S
C516 C519 1.453 . S
C516 C520 1.684 . S
C517 C507 1.723 . S
C517 C516 1.396 . S
C517 C518 1.394 . S
C518 C488 1.723 . S
C518 C514 1.397 . S
C518 C517 1.394 . S
C519 H491 0.982 . S
C519 H495 0.979 . S
C519 H496 0.977 . S
C519 C516 1.453 . S
C520 H492 0.979 . S
C520 H493 0.980 . S
C520 H494 0.983 . S
C520 C516 1.684 . S
H521 C539 0.948 . S
H522 C480 0.948 . S
H523 C498 0.979 . S
H524 C498 0.980 . S
H525 C498 0.983 . S
H526 C497 0.982 . S
H527 C497 0.979 . S
H528 C497 0.977 . S
H529 C499 0.948 . S
H530 C501 0.947 . S
H531 C502 0.948 . S
H532 C508 0.982 . S
H533 C508 0.979 . S
H534 C508 0.977 . S
H535 C509 0.979 . S
H536 C509 0.980 . S
H537 C509 0.983 . S
H538 C482 0.947 . S
C539 C482 1.392 . S
C539 C483 1.419 . S
C539 H521 0.948 . S
C540 C541 1.391 . S
C540 C544 1.391 . S
C540 H582 0.948 . S
C541 C540 1.391 . S
C541 C542 1.391 . S
C542 C541 1.391 . S
C542 H598 0.947 . S
C542 C599 1.392 . S
C543 C544 1.391 . S
C543 C547 1.397 . S
C543 C599 1.419 . S
C544 C540 1.391 . S
C544 C543 1.391 . S
C544 C545 1.399 . S
C545 C544 1.399 . S
C545 C548 1.396 . S
C545 C557 1.453 . S
C545 C558 1.684 . S
H546 C570 0.948 . S
C547 C543 1.397 . S
C547 C548 1.394 . S
C547 C566 1.723 . S
C548 C545 1.396 . S
C548 C547 1.394 . S
C548 C578 1.723 . S
H549 C572 0.947 . S
H550 C573 0.948 . S
H551 C579 0.982 . S
H552 C580 0.979 . S
H553 C580 0.980 . S
H554 C580 0.983 . S
H555 C579 0.979 . S
H556 C579 0.977 . S
C557 C545 1.453 . S
C557 H586 0.982 . S
C557 H587 0.979 . S
C557 H588 0.977 . S
C558 C545 1.684 . S
C558 H583 0.979 . S
C558 H584 0.980 . S
C558 H585 0.983 . S
C559 C560 1.391 . S
C559 C564 1.391 . S
C559 H589 0.948 . S
C560 C559 1.391 . S
C560 C561 1.391 . S
C561 C560 1.391 . S
C561 C562 1.392 . S
C561 H590 0.947 . S
C562 C561 1.392 . S
C562 C563 1.419 . S
C562 H591 0.948 . S
C563 C562 1.419 . S
C563 C564 1.391 . S
C563 C567 1.397 . S
C564 C559 1.391 . S
C564 C563 1.391 . S
C564 C565 1.399 . S
C565 C564 1.399 . S
C565 C566 1.396 . S
C565 C568 1.453 . S
C565 C569 1.684 . S
C566 C547 1.723 . S
C566 C565 1.396 . S
C566 C567 1.394 . S
C567 C563 1.397 . S
C567 C566 1.394 . S
C567 C577 1.723 . S
C568 C565 1.453 . S
C568 H592 0.982 . S
C568 H593 0.979 . S
C568 H594 0.977 . S
C569 C565 1.684 . S
C569 H595 0.979 . S
C569 H596 0.980 . S
C569 H597 0.983 . S
C570 H546 0.948 . S
C570 C571 1.391 . S
C570 C575 1.391 . S
C571 C570 1.391 . S
C571 C572 1.391 . S
C572 H549 0.947 . S
C572 C571 1.391 . S
C572 C573 1.392 . S
C573 H550 0.948 . S
C573 C572 1.392 . S
C573 C574 1.419 . S
C574 C573 1.419 . S
C574 C575 1.391 . S
C574 C578 1.397 . S
C575 C570 1.391 . S
C575 C574 1.391 . S
C575 C576 1.399 . S
C576 C575 1.399 . S
C576 C577 1.396 . S
C576 C579 1.453 . S
C576 C580 1.684 . S
C577 C567 1.723 . S
C577 C576 1.396 . S
C577 C578 1.394 . S
C578 C548 1.723 . S
C578 C574 1.397 . S
C578 C577 1.394 . S
C579 H551 0.982 . S
C579 H555 0.979 . S
C579 H556 0.977 . S
C579 C576 1.453 . S
C580 H552 0.979 . S
C580 H553 0.980 . S
C580 H554 0.983 . S
C580 C576 1.684 . S
H581 C599 0.948 . S
H582 C540 0.948 . S
H583 C558 0.979 . S
H584 C558 0.980 . S
H585 C558 0.983 . S
H586 C557 0.982 . S
H587 C557 0.979 . S
H588 C557 0.977 . S
H589 C559 0.948 . S
H590 C561 0.947 . S
H591 C562 0.948 . S
H592 C568 0.982 . S
H593 C568 0.979 . S
H594 C568 0.977 . S
H595 C569 0.979 . S
H596 C569 0.980 . S
H597 C569 0.983 . S
H598 C542 0.947 . S
C599 C542 1.392 . S
C599 C543 1.419 . S
C599 H581 0.948 . S
C600 C601 1.391 . S
C600 C604 1.391 . S
C600 H642 0.948 . S
C601 C600 1.391 . S
C601 C602 1.391 . S
C602 C601 1.391 . S
C602 H658 0.947 . S
C602 C659 1.392 . S
C603 C604 1.391 . S
C603 C607 1.397 . S
C603 C659 1.419 . S
C604 C600 1.391 . S
C604 C603 1.391 . S
C604 C605 1.399 . S
C605 C604 1.399 . S
C605 C608 1.396 . S
C605 C617 1.453 . S
C605 C618 1.684 . S
H606 C630 0.948 . S
C607 C603 1.397 . S
C607 C608 1.394 . S
C607 C626 1.723 . S
C608 C605 1.396 . S
C608 C607 1.394 . S
C608 C638 1.723 . S
H609 C632 0.947 1_554 S
H610 C633 0.948 . S
H611 C639 0.982 . S
H612 C640 0.979 . S
H613 C640 0.980 . S
H614 C640 0.983 . S
H615 C639 0.979 . S
H616 C639 0.977 . S
C617 C605 1.453 . S
C617 H646 0.982 . S
C617 H647 0.979 . S
C617 H648 0.977 . S
C618 C605 1.684 . S
C618 H643 0.979 . S
C618 H644 0.980 . S
C618 H645 0.983 1_556 S
C619 C620 1.391 . S
C619 C624 1.391 . S
C619 H649 0.948 . S
C620 C619 1.391 . S
C620 C621 1.391 . S
C621 C620 1.391 . S
C621 C622 1.392 . S
C621 H650 0.947 . S
C622 C621 1.392 . S
C622 C623 1.419 . S
C622 H651 0.948 . S
C623 C622 1.419 . S
C623 C624 1.391 . S
C623 C627 1.397 . S
C624 C619 1.391 . S
C624 C623 1.391 . S
C624 C625 1.399 . S
C625 C624 1.399 . S
C625 C626 1.396 . S
C625 C628 1.453 . S
C625 C629 1.684 . S
C626 C607 1.723 . S
C626 C625 1.396 . S
C626 C627 1.394 . S
C627 C623 1.397 . S
C627 C626 1.394 . S
C627 C637 1.723 . S
C628 C625 1.453 . S
C628 H652 0.982 . S
C628 H653 0.979 . S
C628 H654 0.977 . S
C629 C625 1.684 . S
C629 H655 0.979 . S
C629 H656 0.980 . S
C629 H657 0.983 . S
C630 H606 0.948 . S
C630 C631 1.391 . S
C630 C635 1.391 . S
C631 C630 1.391 . S
C631 C632 1.391 . S
C632 H609 0.947 1_556 S
C632 C631 1.391 . S
C632 C633 1.392 . S
C633 H610 0.948 . S
C633 C632 1.392 . S
C633 C634 1.419 . S
C634 C633 1.419 . S
C634 C635 1.391 . S
C634 C638 1.397 . S
C635 C630 1.391 . S
C635 C634 1.391 . S
C635 C636 1.399 . S
C636 C635 1.399 . S
C636 C637 1.396 . S
C636 C639 1.453 . S
C636 C640 1.684 . S
C637 C627 1.723 . S
C637 C636 1.396 . S
C637 C638 1.394 . S
C638 C608 1.723 . S
C638 C634 1.397 . S
C638 C637 1.394 . S
C639 H611 0.982 . S
C639 H615 0.979 . S
C639 H616 0.977 . S
C639 C636 1.453 . S
C640 H612 0.979 . S
C640 H613 0.980 . S
C640 H614 0.983 . S
C640 C636 1.684 . S
H641 C659 0.948 . S
H642 C600 0.948 . S
H643 C618 0.979 . S
H644 C618 0.980 . S
H645 C618 0.983 1_554 S
H646 C617 0.982 . S
H647 C617 0.979 . S
H648 C617 0.977 . S
H649 C619 0.948 . S
H650 C621 0.947 . S
H651 C622 0.948 . S
H652 C628 0.982 . S
H653 C628 0.979 . S
H654 C628 0.977 . S
H655 C629 0.979 . S
H656 C629 0.980 . S
H657 C629 0.983 . S
H658 C602 0.947 . S
C659 C602 1.392 . S
C659 C603 1.419 . S
C659 H641 0.948 . S
C660 C661 1.391 . S
C660 C664 1.391 . S
C660 H702 0.948 . S
C661 C660 1.391 . S
C661 C662 1.391 . S
C662 C661 1.391 . S
C662 H718 0.947 . S
C662 C719 1.392 . S
C663 C664 1.391 . S
C663 C667 1.397 . S
C663 C719 1.419 . S
C664 C660 1.391 . S
C664 C663 1.391 . S
C664 C665 1.399 . S
C665 C664 1.399 . S
C665 C668 1.396 . S
C665 C677 1.453 . S
C665 C678 1.684 . S
H666 C690 0.948 . S
C667 C663 1.397 . S
C667 C668 1.394 . S
C667 C686 1.723 . S
C668 C665 1.396 . S
C668 C667 1.394 . S
C668 C698 1.723 . S
H669 C692 0.947 . S
H670 C693 0.948 . S
H671 C699 0.982 . S
H672 C700 0.979 . S
H673 C700 0.980 . S
H674 C700 0.983 . S
H675 C699 0.979 . S
H676 C699 0.977 . S
C677 C665 1.453 . S
C677 H706 0.982 . S
C677 H707 0.979 . S
C677 H708 0.977 . S
C678 C665 1.684 . S
C678 H703 0.979 . S
C678 H704 0.980 . S
C678 H705 0.983 . S
C679 C680 1.391 . S
C679 C684 1.391 . S
C679 H709 0.948 . S
C680 C679 1.391 . S
C680 C681 1.391 . S
C681 C680 1.391 . S
C681 C682 1.392 . S
C681 H710 0.947 . S
C682 C681 1.392 . S
C682 C683 1.419 . S
C682 H711 0.948 . S
C683 C682 1.419 . S
C683 C684 1.391 . S
C683 C687 1.397 . S
C684 C679 1.391 . S
C684 C683 1.391 . S
C684 C685 1.399 . S
C685 C684 1.399 . S
C685 C686 1.396 . S
C685 C688 1.453 . S
C685 C689 1.684 . S
C686 C667 1.723 . S
C686 C685 1.396 . S
C686 C687 1.394 . S
C687 C683 1.397 . S
C687 C686 1.394 . S
C687 C697 1.723 . S
C688 C685 1.453 . S
C688 H712 0.982 . S
C688 H713 0.979 . S
C688 H714 0.977 . S
C689 C685 1.684 . S
C689 H715 0.979 . S
C689 H716 0.980 . S
C689 H717 0.983 . S
C690 H666 0.948 . S
C690 C691 1.391 . S
C690 C695 1.391 . S
C691 C690 1.391 . S
C691 C692 1.391 . S
C692 H669 0.947 . S
C692 C691 1.391 . S
C692 C693 1.392 . S
C693 H670 0.948 . S
C693 C692 1.392 . S
C693 C694 1.419 . S
C694 C693 1.419 . S
C694 C695 1.391 . S
C694 C698 1.397 . S
C695 C690 1.391 . S
C695 C694 1.391 . S
C695 C696 1.399 . S
C696 C695 1.399 . S
C696 C697 1.396 . S
C696 C699 1.453 . S
C696 C700 1.684 . S
C697 C687 1.723 . S
C697 C696 1.396 . S
C697 C698 1.394 . S
C698 C668 1.723 . S
C698 C694 1.397 . S
C698 C697 1.394 . S
C699 H671 0.982 . S
C699 H675 0.979 . S
C699 H676 0.977 . S
C699 C696 1.453 . S
C700 H672 0.979 . S
C700 H673 0.980 . S
C700 H674 0.983 . S
C700 C696 1.684 . S
H701 C719 0.948 . S
H702 C660 0.948 . S
H703 C678 0.979 . S
H704 C678 0.980 . S
H705 C678 0.983 . S
H706 C677 0.982 . S
H707 C677 0.979 . S
H708 C677 0.977 . S
H709 C679 0.948 . S
H710 C681 0.947 . S
H711 C682 0.948 . S
H712 C688 0.982 . S
H713 C688 0.979 . S
H714 C688 0.977 . S
H715 C689 0.979 . S
H716 C689 0.980 . S
H717 C689 0.983 . S
H718 C662 0.947 . S
C719 C662 1.392 . S
C719 C663 1.419 . S
C719 H701 0.948 . S
C720 C721 1.391 . S
C720 C724 1.391 . S
C720 H762 0.948 . S
C721 C720 1.391 . S
C721 C722 1.391 . S
C722 C721 1.391 . S
C722 H778 0.947 . S
C722 C779 1.392 . S
C723 C724 1.391 . S
C723 C727 1.397 . S
C723 C779 1.419 . S
C724 C720 1.391 . S
C724 C723 1.391 . S
C724 C725 1.399 . S
C725 C724 1.399 . S
C725 C728 1.396 . S
C725 C737 1.453 . S
C725 C738 1.684 . S
H726 C750 0.948 . S
C727 C723 1.397 . S
C727 C728 1.394 . S
C727 C746 1.723 . S
C728 C725 1.396 . S
C728 C727 1.394 . S
C728 C758 1.723 . S
H729 C752 0.947 1_556 S
H730 C753 0.948 . S
H731 C759 0.982 . S
H732 C760 0.979 . S
H733 C760 0.980 . S
H734 C760 0.983 . S
H735 C759 0.979 . S
H736 C759 0.977 . S
C737 C725 1.453 . S
C737 H766 0.982 . S
C737 H767 0.968 1_554 S
C737 H768 0.977 . S
C738 C725 1.684 . S
C738 H763 0.979 . S
C738 H764 0.980 . S
C738 H765 0.958 1_554 S
C739 C740 1.391 . S
C739 C744 1.391 . S
C739 H769 0.948 . S
C740 C739 1.391 . S
C740 C741 1.391 . S
C741 C740 1.391 . S
C741 C742 1.392 . S
C741 H770 0.947 . S
C742 C741 1.392 . S
C742 C743 1.419 . S
C742 H771 0.948 . S
C743 C742 1.419 . S
C743 C744 1.391 . S
C743 C747 1.397 . S
C744 C739 1.391 . S
C744 C743 1.391 . S
C744 C745 1.399 . S
C745 C744 1.399 . S
C745 C746 1.396 . S
C745 C748 1.453 . S
C745 C749 1.684 . S
C746 C727 1.723 . S
C746 C745 1.396 . S
C746 C747 1.394 . S
C747 C743 1.397 . S
C747 C746 1.394 . S
C747 C757 1.723 . S
C748 C745 1.453 . S
C748 H772 0.982 . S
C748 H773 0.979 . S
C748 H774 0.977 . S
C749 C745 1.684 . S
C749 H775 0.979 . S
C749 H776 0.980 . S
C749 H777 0.983 . S
C750 H726 0.948 . S
C750 C751 1.391 . S
C750 C755 1.391 . S
C751 C750 1.391 . S
C751 C752 1.391 . S
C752 H729 0.947 1_554 S
C752 C751 1.391 . S
C752 C753 1.392 . S
C753 H730 0.948 . S
C753 C752 1.392 . S
C753 C754 1.419 . S
C754 C753 1.419 . S
C754 C755 1.391 . S
C754 C758 1.397 . S
C755 C750 1.391 . S
C755 C754 1.391 . S
C755 C756 1.399 . S
C756 C755 1.399 . S
C756 C757 1.396 . S
C756 C759 1.453 . S
C756 C760 1.684 . S
C757 C747 1.723 . S
C757 C756 1.396 . S
C757 C758 1.394 . S
C758 C728 1.723 . S
C758 C754 1.397 . S
C758 C757 1.394 . S
C759 H731 0.982 . S
C759 H735 0.979 . S
C759 H736 0.977 . S
C759 C756 1.453 . S
C760 H732 0.979 . S
C760 H733 0.980 . S
C760 H734 0.983 . S
C760 C756 1.684 . S
H761 C779 0.948 . S
H762 C720 0.948 . S
H763 C738 0.979 . S
H764 C738 0.980 . S
H765 C738 0.958 1_556 S
H766 C737 0.982 . S
H767 C737 0.968 1_556 S
H768 C737 0.977 . S
H769 C739 0.948 . S
H770 C741 0.947 . S
H771 C742 0.948 . S
H772 C748 0.982 . S
H773 C748 0.979 . S
H774 C748 0.977 . S
H775 C749 0.979 . S
H776 C749 0.980 . S
H777 C749 0.983 . S
H778 C722 0.947 . S
C779 C722 1.392 . S
C779 C723 1.419 . S
C779 H761 0.948 . S
C780 C781 1.391 . S
C780 C784 1.391 . S
C780 H822 0.948 . S
C781 C780 1.391 . S
C781 C782 1.391 . S
C782 C781 1.391 . S
C782 H838 0.947 . S
C782 C839 1.392 . S
C783 C784 1.391 . S
C783 C787 1.397 . S
C783 C839 1.419 . S
C784 C780 1.391 . S
C784 C783 1.391 . S
C784 C785 1.399 . S
C785 C784 1.399 . S
C785 C788 1.396 . S
C785 C797 1.453 . S
C785 C798 1.684 . S
H786 C810 0.948 . S
C787 C783 1.397 . S
C787 C788 1.394 . S
C787 C806 1.723 . S
C788 C785 1.396 . S
C788 C787 1.394 . S
C788 C818 1.723 . S
H789 C812 0.947 . S
H790 C813 0.948 . S
H791 C819 0.982 . S
H792 C820 0.979 . S
H793 C820 0.980 . S
H794 C820 0.983 . S
H795 C819 0.979 . S
H796 C819 0.977 . S
C797 C785 1.453 . S
C797 H826 0.982 . S
C797 H827 0.979 . S
C797 H828 0.977 . S
C798 C785 1.684 . S
C798 H823 0.979 . S
C798 H824 0.980 . S
C798 H825 0.983 . S
C799 C800 1.391 . S
C799 C804 1.391 . S
C799 H829 0.948 . S
C800 C799 1.391 . S
C800 C801 1.391 . S
C801 C800 1.391 . S
C801 C802 1.392 . S
C801 H830 0.947 . S
C802 C801 1.392 . S
C802 C803 1.419 . S
C802 H831 0.948 . S
C803 C802 1.419 . S
C803 C804 1.391 . S
C803 C807 1.397 . S
C804 C799 1.391 . S
C804 C803 1.391 . S
C804 C805 1.399 . S
C805 C804 1.399 . S
C805 C806 1.396 . S
C805 C808 1.453 . S
C805 C809 1.684 . S
C806 C787 1.723 . S
C806 C805 1.396 . S
C806 C807 1.394 . S
C807 C803 1.397 . S
C807 C806 1.394 . S
C807 C817 1.723 . S
C808 C805 1.453 . S
C808 H832 0.982 . S
C808 H833 0.979 . S
C808 H834 0.977 . S
C809 C805 1.684 . S
C809 H835 0.979 . S
C809 H836 0.980 . S
C809 H837 0.983 . S
C810 H786 0.948 . S
C810 C811 1.391 . S
C810 C815 1.391 . S
C811 C810 1.391 . S
C811 C812 1.391 . S
C812 H789 0.947 . S
C812 C811 1.391 . S
C812 C813 1.392 . S
C813 H790 0.948 . S
C813 C812 1.392 . S
C813 C814 1.419 . S
C814 C813 1.419 . S
C814 C815 1.391 . S
C814 C818 1.397 . S
C815 C810 1.391 . S
C815 C814 1.391 . S
C815 C816 1.399 . S
C816 C815 1.399 . S
C816 C817 1.396 . S
C816 C819 1.453 . S
C816 C820 1.684 . S
C817 C807 1.723 . S
C817 C816 1.396 . S
C817 C818 1.394 . S
C818 C788 1.723 . S
C818 C814 1.397 . S
C818 C817 1.394 . S
C819 H791 0.982 . S
C819 H795 0.979 . S
C819 H796 0.977 . S
C819 C816 1.453 . S
C820 H792 0.979 . S
C820 H793 0.980 . S
C820 H794 0.983 . S
C820 C816 1.684 . S
H821 C839 0.948 . S
H822 C780 0.948 . S
H823 C798 0.979 . S
H824 C798 0.980 . S
H825 C798 0.983 . S
H826 C797 0.982 . S
H827 C797 0.979 . S
H828 C797 0.977 . S
H829 C799 0.948 . S
H830 C801 0.947 . S
H831 C802 0.948 . S
H832 C808 0.982 . S
H833 C808 0.979 . S
H834 C808 0.977 . S
H835 C809 0.979 . S
H836 C809 0.980 . S
H837 C809 0.983 . S
H838 C782 0.947 . S
C839 C782 1.392 . S
C839 C783 1.419 . S
C839 H821 0.948 . S
C840 C841 1.391 . S
C840 C844 1.391 . S
C840 H882 0.948 . S
C841 C840 1.391 . S
C841 C842 1.391 . S
C842 C841 1.391 . S
C842 H898 0.947 . S
C842 C899 1.392 . S
C843 C844 1.391 . S
C843 C847 1.397 . S
C843 C899 1.419 . S
C844 C840 1.391 . S
C844 C843 1.391 . S
C844 C845 1.399 . S
C845 C844 1.399 . S
C845 C848 1.396 . S
C845 C857 1.453 . S
C845 C858 1.684 . S
H846 C870 0.948 . S
C847 C843 1.397 . S
C847 C848 1.394 . S
C847 C866 1.723 . S
C848 C845 1.396 . S
C848 C847 1.394 . S
C848 C878 1.723 . S
H849 C872 0.947 . S
H850 C873 0.948 . S
H851 C879 0.982 . S
H852 C880 0.979 . S
H853 C880 0.980 . S
H854 C880 0.983 . S
H855 C879 0.979 . S
H856 C879 0.977 . S
C857 C845 1.453 . S
C857 H886 0.982 . S
C857 H887 0.979 . S
C857 H888 0.977 . S
C858 C845 1.684 . S
C858 H883 0.979 . S
C858 H884 0.980 . S
C858 H885 0.983 . S
C859 C860 1.391 . S
C859 C864 1.391 . S
C859 H889 0.948 . S
C860 C859 1.391 . S
C860 C861 1.391 . S
C861 C860 1.391 . S
C861 C862 1.392 . S
C861 H890 0.947 . S
C862 C861 1.392 . S
C862 C863 1.419 . S
C862 H891 0.948 . S
C863 C862 1.419 . S
C863 C864 1.391 . S
C863 C867 1.397 . S
C864 C859 1.391 . S
C864 C863 1.391 . S
C864 C865 1.399 . S
C865 C864 1.399 . S
C865 C866 1.396 . S
C865 C868 1.453 . S
C865 C869 1.684 . S
C866 C847 1.723 . S
C866 C865 1.396 . S
C866 C867 1.394 . S
C867 C863 1.397 . S
C867 C866 1.394 . S
C867 C877 1.723 . S
C868 C865 1.453 . S
C868 H892 0.982 . S
C868 H893 0.979 . S
C868 H894 0.977 . S
C869 C865 1.684 . S
C869 H895 0.979 . S
C869 H896 0.980 . S
C869 H897 0.983 . S
C870 H846 0.948 . S
C870 C871 1.391 . S
C870 C875 1.391 . S
C871 C870 1.391 . S
C871 C872 1.391 . S
C872 H849 0.947 . S
C872 C871 1.391 . S
C872 C873 1.392 . S
C873 H850 0.948 . S
C873 C872 1.392 . S
C873 C874 1.419 . S
C874 C873 1.419 . S
C874 C875 1.391 . S
C874 C878 1.397 . S
C875 C870 1.391 . S
C875 C874 1.391 . S
C875 C876 1.399 . S
C876 C875 1.399 . S
C876 C877 1.396 . S
C876 C879 1.453 . S
C876 C880 1.684 . S
C877 C867 1.723 . S
C877 C876 1.396 . S
C877 C878 1.394 . S
C878 C848 1.723 . S
C878 C874 1.397 . S
C878 C877 1.394 . S
C879 H851 0.982 . S
C879 H855 0.979 . S
C879 H856 0.977 . S
C879 C876 1.453 . S
C880 H852 0.979 . S
C880 H853 0.980 . S
C880 H854 0.983 . S
C880 C876 1.684 . S
H881 C899 0.948 . S
H882 C840 0.948 . S
H883 C858 0.979 . S
H884 C858 0.980 . S
H885 C858 0.983 . S
H886 C857 0.982 . S
H887 C857 0.979 . S
H888 C857 0.977 . S
H889 C859 0.948 . S
H890 C861 0.947 . S
H891 C862 0.948 . S
H892 C868 0.982 . S
H893 C868 0.979 . S
H894 C868 0.977 . S
H895 C869 0.979 . S
H896 C869 0.980 . S
H897 C869 0.983 . S
H898 C842 0.947 . S
C899 C842 1.392 . S
C899 C843 1.419 . S
C899 H881 0.948 . S
C900 C901 1.391 . S
C900 C904 1.391 . S
C900 H942 0.948 . S
C901 C900 1.391 . S
C901 C902 1.391 . S
C902 C901 1.391 . S
C902 H958 0.947 . S
C902 C959 1.392 . S
C903 C904 1.391 . S
C903 C907 1.397 . S
C903 C959 1.419 . S
C904 C900 1.391 . S
C904 C903 1.391 . S
C904 C905 1.399 . S
C905 C904 1.399 . S
C905 C908 1.396 . S
C905 C917 1.453 . S
C905 C918 1.684 . S
H906 C930 0.948 . S
C907 C903 1.397 . S
C907 C908 1.394 . S
C907 C926 1.723 . S
C908 C905 1.396 . S
C908 C907 1.394 . S
C908 C938 1.723 . S
H909 C932 0.947 . S
H910 C933 0.948 . S
H911 C939 0.982 . S
H912 C940 0.979 . S
H913 C940 0.980 . S
H914 C940 0.983 . S
H915 C939 0.979 . S
H916 C939 0.977 . S
C917 C905 1.453 . S
C917 H946 0.982 . S
C917 H947 0.979 . S
C917 H948 0.977 . S
C918 C905 1.684 . S
C918 H943 0.979 . S
C918 H944 0.980 . S
C918 H945 0.983 . S
C919 C920 1.391 . S
C919 C924 1.391 . S
C919 H949 0.948 . S
C920 C919 1.391 . S
C920 C921 1.391 . S
C921 C920 1.391 . S
C921 C922 1.392 . S
C921 H950 0.947 . S
C922 C921 1.392 . S
C922 C923 1.419 . S
C922 H951 0.948 . S
C923 C922 1.419 . S
C923 C924 1.391 . S
C923 C927 1.397 . S
C924 C919 1.391 . S
C924 C923 1.391 . S
C924 C925 1.399 . S
C925 C924 1.399 . S
C925 C926 1.396 . S
C925 C928 1.453 . S
C925 C929 1.684 . S
C926 C907 1.723 . S
C926 C925 1.396 . S
C926 C927 1.394 . S
C927 C923 1.397 . S
C927 C926 1.394 . S
C927 C937 1.723 . S
C928 C925 1.453 . S
C928 H952 0.982 . S
C928 H953 0.979 . S
C928 H954 0.977 . S
C929 C925 1.684 . S
C929 H955 0.979 . S
C929 H956 0.980 . S
C929 H957 0.983 . S
C930 H906 0.948 . S
C930 C931 1.391 . S
C930 C935 1.391 . S
C931 C930 1.391 . S
C931 C932 1.391 . S
C932 H909 0.947 . S
C932 C931 1.391 . S
C932 C933 1.392 . S
C933 H910 0.948 . S
C933 C932 1.392 . S
C933 C934 1.419 . S
C934 C933 1.419 . S
C934 C935 1.391 . S
C934 C938 1.397 . S
C935 C930 1.391 . S
C935 C934 1.391 . S
C935 C936 1.399 . S
C936 C935 1.399 . S
C936 C937 1.396 . S
C936 C939 1.453 . S
C936 C940 1.684 . S
C937 C927 1.723 . S
C937 C936 1.396 . S
C937 C938 1.394 . S
C938 C908 1.723 . S
C938 C934 1.397 . S
C938 C937 1.394 . S
C939 H911 0.982 . S
C939 H915 0.979 . S
C939 H916 0.977 . S
C939 C936 1.453 . S
C940 H912 0.979 . S
C940 H913 0.980 . S
C940 H914 0.983 . S
C940 C936 1.684 . S
H941 C959 0.948 . S
H942 C900 0.948 . S
H943 C918 0.979 . S
H944 C918 0.980 . S
H945 C918 0.983 . S
H946 C917 0.982 . S
H947 C917 0.979 . S
H948 C917 0.977 . S
H949 C919 0.948 . S
H950 C921 0.947 . S
H951 C922 0.948 . S
H952 C928 0.982 . S
H953 C928 0.979 . S
H954 C928 0.977 . S
H955 C929 0.979 . S
H956 C929 0.980 . S
H957 C929 0.983 . S
H958 C902 0.947 . S
C959 C902 1.392 . S
C959 C903 1.419 . S
C959 H941 0.948 . S
C960 C961 1.391 . S
C960 C964 1.391 . S
C960 H1002 0.948 . S
C961 C960 1.391 . S
C961 C962 1.391 . S
C962 C961 1.391 . S
C962 H1018 0.947 . S
C962 C1019 1.392 . S
C963 C964 1.391 . S
C963 C967 1.397 . S
C963 C1019 1.419 . S
C964 C960 1.391 . S
C964 C963 1.391 . S
C964 C965 1.399 . S
C965 C964 1.399 . S
C965 C968 1.396 . S
C965 C977 1.453 . S
C965 C978 1.684 . S
H966 C990 0.948 . S
C967 C963 1.397 . S
C967 C968 1.394 . S
C967 C986 1.723 . S
C968 C965 1.396 . S
C968 C967 1.394 . S
C968 C998 1.723 . S
H969 C992 0.947 . S
H970 C993 0.948 . S
H971 C999 0.982 . S
H972 C1000 0.979 1_655 S
H973 C1000 0.980 . S
H974 C1000 0.983 . S
H975 C999 0.979 . S
H976 C999 0.977 . S
C977 C965 1.453 . S
C977 H1006 0.982 . S
C977 H1007 0.979 . S
C977 H1008 0.977 . S
C978 C965 1.684 . S
C978 H1003 0.979 . S
C978 H1004 0.980 . S
C978 H1005 0.983 . S
C979 C980 1.373 1_455 S
C979 C984 1.391 . S
C979 H1009 0.941 . S
C980 C979 1.373 1_655 S
C980 C981 1.407 1_655 S
C981 C980 1.407 1_455 S
C981 C982 1.392 . S
C981 H1010 0.952 . S
C982 C981 1.392 . S
C982 C983 1.419 . S
C982 H1011 0.948 . S
C983 C982 1.419 . S
C983 C984 1.391 . S
C983 C987 1.397 . S
C984 C979 1.391 . S
C984 C983 1.391 . S
C984 C985 1.399 . S
C985 C984 1.399 . S
C985 C986 1.396 . S
C985 C988 1.453 . S
C985 C989 1.684 1_455 S
C986 C967 1.723 . S
C986 C985 1.396 . S
C986 C987 1.394 . S
C987 C983 1.397 . S
C987 C986 1.394 . S
C987 C997 1.723 . S
C988 C985 1.453 . S
C988 H1012 0.982 . S
C988 H1013 0.979 . S
C988 H1014 0.977 . S
C989 C985 1.684 1_655 S
C989 H1015 0.979 . S
C989 H1016 0.980 1_655 S
C989 H1017 0.983 . S
C990 H966 0.948 . S
C990 C991 1.391 . S
C990 C995 1.391 . S
C991 C990 1.391 . S
C991 C992 1.391 . S
C992 H969 0.947 . S
C992 C991 1.391 . S
C992 C993 1.392 . S
C993 H970 0.948 . S
C993 C992 1.392 . S
C993 C994 1.419 . S
C994 C993 1.419 . S
C994 C995 1.391 . S
C994 C998 1.397 . S
C995 C990 1.391 . S
C995 C994 1.391 . S
C995 C996 1.399 . S
C996 C995 1.399 . S
C996 C997 1.396 . S
C996 C999 1.453 . S
C996 C1000 1.684 . S
C997 C987 1.723 . S
C997 C996 1.396 . S
C997 C998 1.394 . S
C998 C968 1.723 . S
C998 C994 1.397 . S
C998 C997 1.394 . S
C999 H971 0.982 . S
C999 H975 0.979 . S
C999 H976 0.977 . S
C999 C996 1.453 . S
C1000 H972 0.979 1_455 S
C1000 H973 0.980 . S
C1000 H974 0.983 . S
C1000 C996 1.684 . S
H1001 C1019 0.948 . S
H1002 C960 0.948 . S
H1003 C978 0.979 . S
H1004 C978 0.980 . S
H1005 C978 0.983 . S
H1006 C977 0.982 . S
H1007 C977 0.979 . S
H1008 C977 0.977 . S
H1009 C979 0.941 . S
H1010 C981 0.952 . S
H1011 C982 0.948 . S
H1012 C988 0.982 . S
H1013 C988 0.979 . S
H1014 C988 0.977 . S
H1015 C989 0.979 . S
H1016 C989 0.980 1_455 S
H1017 C989 0.983 . S
H1018 C962 0.947 . S
C1019 C962 1.392 . S
C1019 C963 1.419 . S
C1019 H1001 0.948 . S
C1020 C1021 1.391 . S
C1020 C1024 1.391 . S
C1020 H1062 0.948 . S
C1021 C1020 1.391 . S
C1021 C1022 1.391 . S
C1022 C1021 1.391 . S
C1022 H1078 0.947 . S
C1022 C1079 1.392 . S
C1023 C1024 1.391 . S
C1023 C1027 1.397 . S
C1023 C1079 1.419 . S
C1024 C1020 1.391 . S
C1024 C1023 1.391 . S
C1024 C1025 1.399 . S
C1025 C1024 1.399 . S
C1025 C1028 1.396 . S
C1025 C1037 1.453 . S
C1025 C1038 1.684 . S
H1026 C1050 0.948 . S
C1027 C1023 1.397 . S
C1027 C1028 1.394 . S
C1027 C1046 1.723 . S
C1028 C1025 1.396 . S
C1028 C1027 1.394 . S
C1028 C1058 1.723 . S
H1029 C1052 0.947 . S
H1030 C1053 0.948 . S
H1031 C1059 0.982 . S
H1032 C1060 0.979 . S
H1033 C1060 0.980 . S
H1034 C1060 0.983 . S
H1035 C1059 0.979 . S
H1036 C1059 0.977 . S
C1037 C1025 1.453 . S
C1037 H1066 0.982 . S
C1037 H1067 0.979 . S
C1037 H1068 0.977 . S
C1038 C1025 1.684 . S
C1038 H1063 0.979 . S
C1038 H1064 0.980 . S
C1038 H1065 0.983 . S
C1039 C1040 1.391 . S
C1039 C1044 1.391 . S
C1039 H1069 0.948 . S
C1040 C1039 1.391 . S
C1040 C1041 1.391 . S
C1041 C1040 1.391 . S
C1041 C1042 1.392 . S
C1041 H1070 0.947 . S
C1042 C1041 1.392 . S
C1042 C1043 1.419 . S
C1042 H1071 0.948 . S
C1043 C1042 1.419 . S
C1043 C1044 1.391 . S
C1043 C1047 1.397 . S
C1044 C1039 1.391 . S
C1044 C1043 1.391 . S
C1044 C1045 1.399 . S
C1045 C1044 1.399 . S
C1045 C1046 1.396 . S
C1045 C1048 1.453 . S
C1045 C1049 1.684 . S
C1046 C1027 1.723 . S
C1046 C1045 1.396 . S
C1046 C1047 1.394 . S
C1047 C1043 1.397 . S
C1047 C1046 1.394 . S
C1047 C1057 1.723 . S
C1048 C1045 1.453 . S
C1048 H1072 0.982 . S
C1048 H1073 0.979 . S
C1048 H1074 0.977 . S
C1049 C1045 1.684 . S
C1049 H1075 0.979 . S
C1049 H1076 0.980 . S
C1049 H1077 0.983 . S
C1050 H1026 0.948 . S
C1050 C1051 1.391 . S
C1050 C1055 1.391 . S
C1051 C1050 1.391 . S
C1051 C1052 1.391 . S
C1052 H1029 0.947 . S
C1052 C1051 1.391 . S
C1052 C1053 1.392 . S
C1053 H1030 0.948 . S
C1053 C1052 1.392 . S
C1053 C1054 1.419 . S
C1054 C1053 1.419 . S
C1054 C1055 1.391 . S
C1054 C1058 1.397 . S
C1055 C1050 1.391 . S
C1055 C1054 1.391 . S
C1055 C1056 1.399 . S
C1056 C1055 1.399 . S
C1056 C1057 1.396 . S
C1056 C1059 1.453 . S
C1056 C1060 1.684 . S
C1057 C1047 1.723 . S
C1057 C1056 1.396 . S
C1057 C1058 1.394 . S
C1058 C1028 1.723 . S
C1058 C1054 1.397 . S
C1058 C1057 1.394 . S
C1059 H1031 0.982 . S
C1059 H1035 0.979 . S
C1059 H1036 0.977 . S
C1059 C1056 1.453 . S
C1060 H1032 0.979 . S
C1060 H1033 0.980 . S
C1060 H1034 0.983 . S
C1060 C1056 1.684 . S
H1061 C1079 0.948 . S
H1062 C1020 0.948 . S
H1063 C1038 0.979 . S
H1064 C1038 0.980 . S
H1065 C1038 0.983 . S
H1066 C1037 0.982 . S
H1067 C1037 0.979 . S
H1068 C1037 0.977 . S
H1069 C1039 0.948 . S
H1070 C1041 0.947 . S
H1071 C1042 0.948 . S
H1072 C1048 0.982 . S
H1073 C1048 0.979 . S
H1074 C1048 0.977 . S
H1075 C1049 0.979 . S
H1076 C1049 0.980 . S
H1077 C1049 0.983 . S
H1078 C1022 0.947 . S
C1079 C1022 1.392 . S
C1079 C1023 1.419 . S
C1079 H1061 0.948 . S
C1080 Eu1081 2.835 . S
C1080 C1082 1.500 . S
C1080 O1100 1.257 1_545 S
C1080 O1101 1.260 . S
Eu1081 C1080 2.835 . S
Eu1081 O1100 2.473 1_545 S
Eu1081 O1101 2.480 . S
Eu1081 O1102 2.430 . S
Eu1081 O1103 2.670 1_554 S
Eu1081 O1104 2.394 1_545 S
Eu1081 O1109 2.355 1_545 S
Eu1081 O1111 2.374 . S
C1082 C1080 1.500 . S
C1082 C1083 1.377 . S
C1082 C1087 1.377 1_545 S
C1083 C1082 1.377 . S
C1083 C1084 1.395 . S
C1083 H1112 0.931 . S
C1084 C1083 1.395 . S
C1084 C1085 1.383 1_545 S
C1084 H1113 0.931 . S
C1085 C1084 1.383 1_565 S
C1085 C1086 1.394 . S
C1086 C1085 1.394 . S
C1086 C1087 1.378 . S
C1086 H1114 0.931 . S
C1087 C1082 1.377 1_565 S
C1087 C1086 1.378 . S
C1087 H1115 0.931 . S
C1088 O1102 1.259 1_556 S
C1088 O1103 1.270 . S
C1089 O1104 1.251 . S
C1089 O1105 1.251 1_554 S
C1090 Eu1091 2.835 . S
C1090 C1092 1.500 . S
C1090 O1106 1.257 1_565 S
C1090 O1107 1.260 . S
Eu1091 C1090 2.835 . S
Eu1091 O1103 2.355 1_565 S
Eu1091 O1105 2.374 . S
Eu1091 O1106 2.473 1_565 S
Eu1091 O1107 2.480 . S
Eu1091 O1108 2.430 . S
Eu1091 O1109 2.670 1_556 S
Eu1091 O1110 2.394 1_565 S
C1092 C1090 1.500 . S
C1092 C1093 1.377 . S
C1092 C1097 1.377 1_565 S
C1093 C1092 1.377 . S
C1093 C1094 1.395 . S
C1093 H1116 0.931 . S
C1094 C1093 1.395 . S
C1094 C1095 1.383 1_565 S
C1094 H1117 0.931 . S
C1095 C1094 1.383 1_545 S
C1095 C1096 1.394 . S
C1096 C1095 1.394 . S
C1096 C1097 1.378 . S
C1096 H1118 0.931 . S
C1097 C1092 1.377 1_545 S
C1097 C1096 1.378 . S
C1097 H1119 0.931 . S
C1098 O1108 1.259 1_554 S
C1098 O1109 1.270 . S
C1099 O1110 1.251 . S
C1099 O1111 1.251 1_556 S
O1100 C1080 1.257 1_565 S
O1100 Eu1081 2.473 1_565 S
O1101 C1080 1.260 . S
O1101 Eu1081 2.480 . S
O1102 Eu1081 2.430 . S
O1102 C1088 1.259 1_554 S
O1103 Eu1081 2.670 1_556 S
O1103 C1088 1.270 . S
O1103 Eu1091 2.355 1_545 S
O1104 Eu1081 2.394 1_565 S
O1104 C1089 1.251 . S
O1105 C1089 1.251 1_556 S
O1105 Eu1091 2.374 . S
O1106 C1090 1.257 1_545 S
O1106 Eu1091 2.473 1_545 S
O1107 C1090 1.260 . S
O1107 Eu1091 2.480 . S
O1108 Eu1091 2.430 . S
O1108 C1098 1.259 1_556 S
O1109 Eu1081 2.355 1_565 S
O1109 Eu1091 2.670 1_554 S
O1109 C1098 1.270 . S
O1110 Eu1091 2.394 1_545 S
O1110 C1099 1.251 . S
O1111 Eu1081 2.374 . S
O1111 C1099 1.251 1_554 S
H1112 C1083 0.931 . S
H1113 C1084 0.931 . S
H1114 C1086 0.931 . S
H1115 C1087 0.931 . S
H1116 C1093 0.931 . S
H1117 C1094 0.931 . S
H1118 C1096 0.931 . S
H1119 C1097 0.931 . S
C1120 Eu1121 2.835 . S
C1120 C1122 1.500 1_655 S
C1120 O1140 1.257 1_655 S
C1120 O1141 1.260 . S
Eu1121 C1120 2.835 . S
Eu1121 O1140 2.473 1_655 S
Eu1121 O1141 2.480 . S
Eu1121 O1142 2.430 . S
Eu1121 O1143 2.670 1_554 S
Eu1121 O1144 2.394 1_655 S
Eu1121 O1149 2.355 1_655 S
Eu1121 O1151 2.388 . S
C1122 C1120 1.500 1_455 S
C1122 C1123 1.377 1_455 S
C1122 C1127 1.377 . S
C1123 C1122 1.377 1_655 S
C1123 C1124 1.395 . S
C1123 H1152 0.931 . S
C1124 C1123 1.395 . S
C1124 C1125 1.383 1_655 S
C1124 H1153 0.931 . S
C1125 C1124 1.383 1_455 S
C1125 C1126 1.394 . S
C1126 C1125 1.394 . S
C1126 C1127 1.378 . S
C1126 H1154 0.931 . S
C1127 C1122 1.377 . S
C1127 C1126 1.378 . S
C1127 H1155 0.931 . S
C1128 O1142 1.259 1_556 S
C1128 O1143 1.270 . S
C1129 O1144 1.251 . S
C1129 O1145 1.287 . S
C1130 Eu1131 2.835 . S
C1130 C1132 1.500 1_455 S
C1130 O1146 1.257 1_455 S
C1130 O1147 1.260 . S
Eu1131 C1130 2.835 . S
Eu1131 O1143 2.355 1_455 S
Eu1131 O1145 2.348 1_556 S
Eu1131 O1146 2.473 1_455 S
Eu1131 O1147 2.480 . S
Eu1131 O1148 2.430 . S
Eu1131 O1149 2.670 1_556 S
Eu1131 O1150 2.394 1_455 S
C1132 C1130 1.500 1_655 S
C1132 C1133 1.377 1_655 S
C1132 C1137 1.377 . S
C1133 C1132 1.377 1_455 S
C1133 C1134 1.395 . S
C1133 H1156 0.931 . S
C1134 C1133 1.395 . S
C1134 C1135 1.383 1_455 S
C1134 H1157 0.931 . S
C1135 C1134 1.383 1_655 S
C1135 C1136 1.394 . S
C1136 C1135 1.394 . S
C1136 C1137 1.378 . S
C1136 H1158 0.931 . S
C1137 C1132 1.377 . S
C1137 C1136 1.378 . S
C1137 H1159 0.931 . S
C1138 O1148 1.259 1_554 S
C1138 O1149 1.270 . S
C1139 O1150 1.251 . S
C1139 O1151 1.232 1_556 S
O1140 C1120 1.257 1_455 S
O1140 Eu1121 2.473 1_455 S
O1141 C1120 1.260 . S
O1141 Eu1121 2.480 . S
O1142 Eu1121 2.430 . S
O1142 C1128 1.259 1_554 S
O1143 Eu1121 2.670 1_556 S
O1143 C1128 1.270 . S
O1143 Eu1131 2.355 1_655 S
O1144 Eu1121 2.394 1_455 S
O1144 C1129 1.251 . S
O1145 C1129 1.287 . S
O1145 Eu1131 2.348 1_554 S
O1146 C1130 1.257 1_655 S
O1146 Eu1131 2.473 1_655 S
O1147 C1130 1.260 . S
O1147 Eu1131 2.480 . S
O1148 Eu1131 2.430 . S
O1148 C1138 1.259 1_556 S
O1149 Eu1121 2.355 1_455 S
O1149 Eu1131 2.670 1_554 S
O1149 C1138 1.270 . S
O1150 Eu1131 2.394 1_655 S
O1150 C1139 1.251 . S
O1151 Eu1121 2.388 . S
O1151 C1139 1.232 1_554 S
H1152 C1123 0.931 . S
H1153 C1124 0.931 . S
H1154 C1126 0.931 . S
H1155 C1127 0.931 . S
H1156 C1133 0.931 . S
H1157 C1134 0.931 . S
H1158 C1136 0.931 . S
H1159 C1137 0.931 . S
C1160 Eu1161 2.835 . S
C1160 C1162 1.500 . S
C1160 O1180 1.257 . S
C1160 O1181 1.260 . S
Eu1161 C1160 2.835 . S
Eu1161 O1180 2.473 . S
Eu1161 O1181 2.480 . S
Eu1161 O1182 2.430 . S
Eu1161 O1183 2.670 1_556 S
Eu1161 O1184 2.394 . S
Eu1161 O1189 2.355 . S
Eu1161 O1191 2.374 . S
C1162 C1160 1.500 . S
C1162 C1163 1.377 . S
C1162 C1167 1.377 . S
C1163 C1162 1.377 . S
C1163 C1164 1.395 . S
C1163 H1192 0.931 . S
C1164 C1163 1.395 . S
C1164 C1165 1.383 . S
C1164 H1193 0.931 . S
C1165 C1164 1.383 . S
C1165 C1166 1.394 . S
C1166 C1165 1.394 . S
C1166 C1167 1.378 . S
C1166 H1194 0.931 . S
C1167 C1162 1.377 . S
C1167 C1166 1.378 . S
C1167 H1195 0.931 . S
C1168 O1182 1.259 1_554 S
C1168 O1183 1.270 . S
C1169 O1184 1.251 . S
C1169 O1185 1.251 1_556 S
C1170 Eu1171 2.835 . S
C1170 C1172 1.500 . S
C1170 O1186 1.257 . S
C1170 O1187 1.260 . S
Eu1171 C1170 2.835 . S
Eu1171 O1183 2.355 . S
Eu1171 O1185 2.374 . S
Eu1171 O1186 2.473 . S
Eu1171 O1187 2.480 . S
Eu1171 O1188 2.430 . S
Eu1171 O1189 2.670 1_554 S
Eu1171 O1190 2.394 . S
C1172 C1170 1.500 . S
C1172 C1173 1.377 . S
C1172 C1177 1.377 . S
C1173 C1172 1.377 . S
C1173 C1174 1.395 . S
C1173 H1196 0.931 . S
C1174 C1173 1.395 . S
C1174 C1175 1.383 . S
C1174 H1197 0.931 . S
C1175 C1174 1.383 . S
C1175 C1176 1.394 . S
C1176 C1175 1.394 . S
C1176 C1177 1.378 . S
C1176 H1198 0.931 . S
C1177 C1172 1.377 . S
C1177 C1176 1.378 . S
C1177 H1199 0.931 . S
C1178 O1188 1.259 1_556 S
C1178 O1189 1.270 . S
C1179 O1190 1.251 . S
C1179 O1191 1.251 1_554 S
O1180 C1160 1.257 . S
O1180 Eu1161 2.473 . S
O1181 C1160 1.260 . S
O1181 Eu1161 2.480 . S
O1182 Eu1161 2.430 . S
O1182 C1168 1.259 1_556 S
O1183 Eu1161 2.670 1_554 S
O1183 C1168 1.270 . S
O1183 Eu1171 2.355 . S
O1184 Eu1161 2.394 . S
O1184 C1169 1.251 . S
O1185 C1169 1.251 1_554 S
O1185 Eu1171 2.374 . S
O1186 C1170 1.257 . S
O1186 Eu1171 2.473 . S
O1187 C1170 1.260 . S
O1187 Eu1171 2.480 . S
O1188 Eu1171 2.430 . S
O1188 C1178 1.259 1_554 S
O1189 Eu1161 2.355 . S
O1189 Eu1171 2.670 1_556 S
O1189 C1178 1.270 . S
O1190 Eu1171 2.394 . S
O1190 C1179 1.251 . S
O1191 Eu1161 2.374 . S
O1191 C1179 1.251 1_556 S
H1192 C1163 0.931 . S
H1193 C1164 0.931 . S
H1194 C1166 0.931 . S
H1195 C1167 0.931 . S
H1196 C1173 0.931 . S
H1197 C1174 0.931 . S
H1198 C1176 0.931 . S
H1199 C1177 0.931 . S
C1200 Eu1201 2.835 . S
C1200 C1202 1.500 . S
C1200 O1220 1.257 . S
C1200 O1221 1.260 . S
Eu1201 C1200 2.835 . S
Eu1201 O1220 2.473 . S
Eu1201 O1221 2.480 . S
Eu1201 O1222 2.430 . S
Eu1201 O1223 2.670 . S
Eu1201 O1224 2.394 . S
Eu1201 O1229 2.355 . S
Eu1201 O1231 2.374 . S
C1202 C1200 1.500 . S
C1202 C1203 1.377 . S
C1202 C1207 1.377 . S
C1203 C1202 1.377 . S
C1203 C1204 1.395 . S
C1203 H1232 0.931 . S
C1204 C1203 1.395 . S
C1204 C1205 1.383 . S
C1204 H1233 0.931 . S
C1205 C1204 1.383 . S
C1205 C1206 1.394 . S
C1206 C1205 1.394 . S
C1206 C1207 1.378 . S
C1206 H1234 0.931 . S
C1207 C1202 1.377 . S
C1207 C1206 1.378 . S
C1207 H1235 0.931 . S
C1208 O1222 1.259 . S
C1208 O1223 1.270 . S
C1209 O1224 1.251 . S
C1209 O1225 1.251 . S
C1210 Eu1211 2.835 . S
C1210 C1212 1.500 . S
C1210 O1226 1.257 . S
C1210 O1227 1.260 . S
Eu1211 C1210 2.835 . S
Eu1211 O1223 2.355 . S
Eu1211 O1225 2.374 . S
Eu1211 O1226 2.473 . S
Eu1211 O1227 2.480 . S
Eu1211 O1228 2.430 . S
Eu1211 O1229 2.670 . S
Eu1211 O1230 2.394 . S
C1212 C1210 1.500 . S
C1212 C1213 1.377 . S
C1212 C1217 1.377 . S
C1213 C1212 1.377 . S
C1213 C1214 1.395 . S
C1213 H1236 0.931 . S
C1214 C1213 1.395 . S
C1214 C1215 1.383 . S
C1214 H1237 0.931 . S
C1215 C1214 1.383 . S
C1215 C1216 1.394 . S
C1216 C1215 1.394 . S
C1216 C1217 1.378 . S
C1216 H1238 0.931 . S
C1217 C1212 1.377 . S
C1217 C1216 1.378 . S
C1217 H1239 0.931 . S
C1218 O1228 1.259 . S
C1218 O1229 1.270 . S
C1219 O1230 1.251 . S
C1219 O1231 1.251 . S
O1220 C1200 1.257 . S
O1220 Eu1201 2.473 . S
O1221 C1200 1.260 . S
O1221 Eu1201 2.480 . S
O1222 Eu1201 2.430 . S
O1222 C1208 1.259 . S
O1223 Eu1201 2.670 . S
O1223 C1208 1.270 . S
O1223 Eu1211 2.355 . S
O1224 Eu1201 2.394 . S
O1224 C1209 1.251 . S
O1225 C1209 1.251 . S
O1225 Eu1211 2.374 . S
O1226 C1210 1.257 . S
O1226 Eu1211 2.473 . S
O1227 C1210 1.260 . S
O1227 Eu1211 2.480 . S
O1228 Eu1211 2.430 . S
O1228 C1218 1.259 . S
O1229 Eu1201 2.355 . S
O1229 Eu1211 2.670 . S
O1229 C1218 1.270 . S
O1230 Eu1211 2.394 . S
O1230 C1219 1.251 . S
O1231 Eu1201 2.374 . S
O1231 C1219 1.251 . S
H1232 C1203 0.931 . S
H1233 C1204 0.931 . S
H1234 C1206 0.931 . S
H1235 C1207 0.931 . S
H1236 C1213 0.931 . S
H1237 C1214 0.931 . S
H1238 C1216 0.931 . S
H1239 C1217 0.931 . S
C1240 Eu1241 2.835 . S
C1240 C1242 1.500 . S
C1240 O1260 1.257 . S
C1240 O1261 1.260 . S
Eu1241 C1240 2.835 . S
Eu1241 O1260 2.473 . S
Eu1241 O1261 2.480 . S
Eu1241 O1262 2.430 . S
Eu1241 O1263 2.670 . S
Eu1241 O1264 2.394 . S
Eu1241 O1269 2.355 . S
Eu1241 O1271 2.374 . S
C1242 C1240 1.500 . S
C1242 C1243 1.377 . S
C1242 C1247 1.377 . S
C1243 C1242 1.377 . S
C1243 C1244 1.395 . S
C1243 H1272 0.931 . S
C1244 C1243 1.395 . S
C1244 C1245 1.383 . S
C1244 H1273 0.931 . S
C1245 C1244 1.383 . S
C1245 C1246 1.394 . S
C1246 C1245 1.394 . S
C1246 C1247 1.378 . S
C1246 H1274 0.931 . S
C1247 C1242 1.377 . S
C1247 C1246 1.378 . S
C1247 H1275 0.931 . S
C1248 O1262 1.259 . S
C1248 O1263 1.270 . S
C1249 O1264 1.251 . S
C1249 O1265 1.251 . S
C1250 Eu1251 2.835 . S
C1250 C1252 1.500 . S
C1250 O1266 1.257 . S
C1250 O1267 1.260 . S
Eu1251 C1250 2.835 . S
Eu1251 O1263 2.355 . S
Eu1251 O1265 2.374 . S
Eu1251 O1266 2.473 . S
Eu1251 O1267 2.480 . S
Eu1251 O1268 2.430 . S
Eu1251 O1269 2.670 . S
Eu1251 O1270 2.394 . S
C1252 C1250 1.500 . S
C1252 C1253 1.377 . S
C1252 C1257 1.377 . S
C1253 C1252 1.377 . S
C1253 C1254 1.395 . S
C1253 H1276 0.931 . S
C1254 C1253 1.395 . S
C1254 C1255 1.383 . S
C1254 H1277 0.931 . S
C1255 C1254 1.383 . S
C1255 C1256 1.394 . S
C1256 C1255 1.394 . S
C1256 C1257 1.378 . S
C1256 H1278 0.931 . S
C1257 C1252 1.377 . S
C1257 C1256 1.378 . S
C1257 H1279 0.931 . S
C1258 O1268 1.259 . S
C1258 O1269 1.270 . S
C1259 O1270 1.251 . S
C1259 O1271 1.251 . S
O1260 C1240 1.257 . S
O1260 Eu1241 2.473 . S
O1261 C1240 1.260 . S
O1261 Eu1241 2.480 . S
O1262 Eu1241 2.430 . S
O1262 C1248 1.259 . S
O1263 Eu1241 2.670 . S
O1263 C1248 1.270 . S
O1263 Eu1251 2.355 . S
O1264 Eu1241 2.394 . S
O1264 C1249 1.251 . S
O1265 C1249 1.251 . S
O1265 Eu1251 2.374 . S
O1266 C1250 1.257 . S
O1266 Eu1251 2.473 . S
O1267 C1250 1.260 . S
O1267 Eu1251 2.480 . S
O1268 Eu1251 2.430 . S
O1268 C1258 1.259 . S
O1269 Eu1241 2.355 . S
O1269 Eu1251 2.670 . S
O1269 C1258 1.270 . S
O1270 Eu1251 2.394 . S
O1270 C1259 1.251 . S
O1271 Eu1241 2.374 . S
O1271 C1259 1.251 . S
H1272 C1243 0.931 . S
H1273 C1244 0.931 . S
H1274 C1246 0.931 . S
H1275 C1247 0.931 . S
H1276 C1253 0.931 . S
H1277 C1254 0.931 . S
H1278 C1256 0.931 . S
H1279 C1257 0.931 . S
C1280 Eu1281 2.835 . S
C1280 C1282 1.500 . S
C1280 O1300 1.257 . S
C1280 O1301 1.260 . S
Eu1281 C1280 2.835 . S
Eu1281 O1300 2.473 . S
Eu1281 O1301 2.480 . S
Eu1281 O1302 2.430 . S
Eu1281 O1303 2.670 . S
Eu1281 O1304 2.394 . S
Eu1281 O1309 2.355 . S
Eu1281 O1311 2.374 . S
C1282 C1280 1.500 . S
C1282 C1283 1.377 . S
C1282 C1287 1.377 . S
C1283 C1282 1.377 . S
C1283 C1284 1.395 . S
C1283 H1312 0.931 . S
C1284 C1283 1.395 . S
C1284 C1285 1.383 . S
C1284 H1313 0.931 . S
C1285 C1284 1.383 . S
C1285 C1286 1.394 . S
C1286 C1285 1.394 . S
C1286 C1287 1.378 . S
C1286 H1314 0.931 . S
C1287 C1282 1.377 . S
C1287 C1286 1.378 . S
C1287 H1315 0.931 . S
C1288 O1302 1.259 . S
C1288 O1303 1.270 . S
C1289 O1304 1.251 . S
C1289 O1305 1.251 . S
C1290 Eu1291 2.835 . S
C1290 C1292 1.500 . S
C1290 O1306 1.257 . S
C1290 O1307 1.260 . S
Eu1291 C1290 2.835 . S
Eu1291 O1303 2.355 . S
Eu1291 O1305 2.374 . S
Eu1291 O1306 2.473 . S
Eu1291 O1307 2.480 . S
Eu1291 O1308 2.430 . S
Eu1291 O1309 2.670 . S
Eu1291 O1310 2.394 . S
C1292 C1290 1.500 . S
C1292 C1293 1.377 . S
C1292 C1297 1.377 . S
C1293 C1292 1.377 . S
C1293 C1294 1.395 . S
C1293 H1316 0.931 . S
C1294 C1293 1.395 . S
C1294 C1295 1.383 . S
C1294 H1317 0.931 . S
C1295 C1294 1.383 . S
C1295 C1296 1.394 . S
C1296 C1295 1.394 . S
C1296 C1297 1.378 . S
C1296 H1318 0.931 . S
C1297 C1292 1.377 . S
C1297 C1296 1.378 . S
C1297 H1319 0.931 . S
C1298 O1308 1.259 . S
C1298 O1309 1.270 . S
C1299 O1310 1.251 . S
C1299 O1311 1.251 . S
O1300 C1280 1.257 . S
O1300 Eu1281 2.473 . S
O1301 C1280 1.260 . S
O1301 Eu1281 2.480 . S
O1302 Eu1281 2.430 . S
O1302 C1288 1.259 . S
O1303 Eu1281 2.670 . S
O1303 C1288 1.270 . S
O1303 Eu1291 2.355 . S
O1304 Eu1281 2.394 . S
O1304 C1289 1.251 . S
O1305 C1289 1.251 . S
O1305 Eu1291 2.374 . S
O1306 C1290 1.257 . S
O1306 Eu1291 2.473 . S
O1307 C1290 1.260 . S
O1307 Eu1291 2.480 . S
O1308 Eu1291 2.430 . S
O1308 C1298 1.259 . S
O1309 Eu1281 2.355 . S
O1309 Eu1291 2.670 . S
O1309 C1298 1.270 . S
O1310 Eu1291 2.394 . S
O1310 C1299 1.251 . S
O1311 Eu1281 2.374 . S
O1311 C1299 1.251 . S
H1312 C1283 0.931 . S
H1313 C1284 0.931 . S
H1314 C1286 0.931 . S
H1315 C1287 0.931 . S
H1316 C1293 0.931 . S
H1317 C1294 0.931 . S
H1318 C1296 0.931 . S
H1319 C1297 0.931 . S
C1320 Eu1321 2.835 . S
C1320 C1322 1.500 . S
C1320 O1340 1.257 . S
C1320 O1341 1.260 . S
Eu1321 C1320 2.835 . S
Eu1321 O1340 2.473 . S
Eu1321 O1341 2.480 . S
Eu1321 O1342 2.430 . S
Eu1321 O1343 2.670 . S
Eu1321 O1344 2.394 . S
Eu1321 O1349 2.355 . S
Eu1321 O1351 2.374 . S
C1322 C1320 1.500 . S
C1322 C1323 1.377 . S
C1322 C1327 1.377 . S
C1323 C1322 1.377 . S
C1323 C1324 1.395 . S
C1323 H1352 0.931 . S
C1324 C1323 1.395 . S
C1324 C1325 1.383 . S
C1324 H1353 0.931 . S
C1325 C1324 1.383 . S
C1325 C1326 1.394 . S
C1326 C1325 1.394 . S
C1326 C1327 1.378 . S
C1326 H1354 0.931 . S
C1327 C1322 1.377 . S
C1327 C1326 1.378 . S
C1327 H1355 0.931 . S
C1328 O1342 1.259 . S
C1328 O1343 1.270 . S
C1329 O1344 1.251 . S
C1329 O1345 1.251 . S
C1330 Eu1331 2.835 . S
C1330 C1332 1.500 . S
C1330 O1346 1.257 . S
C1330 O1347 1.260 . S
Eu1331 C1330 2.835 . S
Eu1331 O1343 2.355 . S
Eu1331 O1345 2.374 . S
Eu1331 O1346 2.473 . S
Eu1331 O1347 2.480 . S
Eu1331 O1348 2.430 . S
Eu1331 O1349 2.670 . S
Eu1331 O1350 2.394 . S
C1332 C1330 1.500 . S
C1332 C1333 1.377 . S
C1332 C1337 1.377 . S
C1333 C1332 1.377 . S
C1333 C1334 1.395 . S
C1333 H1356 0.931 . S
C1334 C1333 1.395 . S
C1334 C1335 1.383 . S
C1334 H1357 0.931 . S
C1335 C1334 1.383 . S
C1335 C1336 1.394 . S
C1336 C1335 1.394 . S
C1336 C1337 1.378 . S
C1336 H1358 0.931 . S
C1337 C1332 1.377 . S
C1337 C1336 1.378 . S
C1337 H1359 0.931 . S
C1338 O1348 1.259 . S
C1338 O1349 1.270 . S
C1339 O1350 1.251 . S
C1339 O1351 1.251 . S
O1340 C1320 1.257 . S
O1340 Eu1321 2.473 . S
O1341 C1320 1.260 . S
O1341 Eu1321 2.480 . S
O1342 Eu1321 2.430 . S
O1342 C1328 1.259 . S
O1343 Eu1321 2.670 . S
O1343 C1328 1.270 . S
O1343 Eu1331 2.355 . S
O1344 Eu1321 2.394 . S
O1344 C1329 1.251 . S
O1345 C1329 1.251 . S
O1345 Eu1331 2.374 . S
O1346 C1330 1.257 . S
O1346 Eu1331 2.473 . S
O1347 C1330 1.260 . S
O1347 Eu1331 2.480 . S
O1348 Eu1331 2.430 . S
O1348 C1338 1.259 . S
O1349 Eu1321 2.355 . S
O1349 Eu1331 2.670 . S
O1349 C1338 1.270 . S
O1350 Eu1331 2.394 . S
O1350 C1339 1.251 . S
O1351 Eu1321 2.374 . S
O1351 C1339 1.251 . S
H1352 C1323 0.931 . S
H1353 C1324 0.931 . S
H1354 C1326 0.931 . S
H1355 C1327 0.931 . S
H1356 C1333 0.931 . S
H1357 C1334 0.931 . S
H1358 C1336 0.931 . S
H1359 C1337 0.931 . S
C1360 Eu1361 2.835 . S
C1360 C1362 1.500 . S
C1360 O1380 1.257 . S
C1360 O1381 1.260 . S
Eu1361 C1360 2.835 . S
Eu1361 O1380 2.473 . S
Eu1361 O1381 2.480 . S
Eu1361 O1382 2.430 . S
Eu1361 O1383 2.670 . S
Eu1361 O1384 2.394 . S
Eu1361 O1389 2.355 . S
Eu1361 O1391 2.374 . S
C1362 C1360 1.500 . S
C1362 C1363 1.377 . S
C1362 C1367 1.377 . S
C1363 C1362 1.377 . S
C1363 C1364 1.395 . S
C1363 H1392 0.931 . S
C1364 C1363 1.395 . S
C1364 C1365 1.383 . S
C1364 H1393 0.931 . S
C1365 C1364 1.383 . S
C1365 C1366 1.394 . S
C1366 C1365 1.394 . S
C1366 C1367 1.378 . S
C1366 H1394 0.931 . S
C1367 C1362 1.377 . S
C1367 C1366 1.378 . S
C1367 H1395 0.931 . S
C1368 O1382 1.259 . S
C1368 O1383 1.270 . S
C1369 O1384 1.251 . S
C1369 O1385 1.251 . S
C1370 Eu1371 2.835 . S
C1370 C1372 1.500 . S
C1370 O1386 1.257 . S
C1370 O1387 1.260 . S
Eu1371 C1370 2.835 . S
Eu1371 O1383 2.355 . S
Eu1371 O1385 2.374 . S
Eu1371 O1386 2.473 . S
Eu1371 O1387 2.480 . S
Eu1371 O1388 2.430 . S
Eu1371 O1389 2.670 . S
Eu1371 O1390 2.394 . S
C1372 C1370 1.500 . S
C1372 C1373 1.377 . S
C1372 C1377 1.377 . S
C1373 C1372 1.377 . S
C1373 C1374 1.395 . S
C1373 H1396 0.931 . S
C1374 C1373 1.395 . S
C1374 C1375 1.383 . S
C1374 H1397 0.931 . S
C1375 C1374 1.383 . S
C1375 C1376 1.394 . S
C1376 C1375 1.394 . S
C1376 C1377 1.378 . S
C1376 H1398 0.931 . S
C1377 C1372 1.377 . S
C1377 C1376 1.378 . S
C1377 H1399 0.931 . S
C1378 O1388 1.259 . S
C1378 O1389 1.270 . S
C1379 O1390 1.251 . S
C1379 O1391 1.251 . S
O1380 C1360 1.257 . S
O1380 Eu1361 2.473 . S
O1381 C1360 1.260 . S
O1381 Eu1361 2.480 . S
O1382 Eu1361 2.430 . S
O1382 C1368 1.259 . S
O1383 Eu1361 2.670 . S
O1383 C1368 1.270 . S
O1383 Eu1371 2.355 . S
O1384 Eu1361 2.394 . S
O1384 C1369 1.251 . S
O1385 C1369 1.251 . S
O1385 Eu1371 2.374 . S
O1386 C1370 1.257 . S
O1386 Eu1371 2.473 . S
O1387 C1370 1.260 . S
O1387 Eu1371 2.480 . S
O1388 Eu1371 2.430 . S
O1388 C1378 1.259 . S
O1389 Eu1361 2.355 . S
O1389 Eu1371 2.670 . S
O1389 C1378 1.270 . S
O1390 Eu1371 2.394 . S
O1390 C1379 1.251 . S
O1391 Eu1361 2.374 . S
O1391 C1379 1.251 . S
H1392 C1363 0.931 . S
H1393 C1364 0.931 . S
H1394 C1366 0.931 . S
H1395 C1367 0.931 . S
H1396 C1373 0.931 . S
H1397 C1374 0.931 . S
H1398 C1376 0.931 . S
H1399 C1377 0.931 . S
C1400 Eu1401 2.835 . S
C1400 C1402 1.500 . S
C1400 O1420 1.257 . S
C1400 O1421 1.260 . S
Eu1401 C1400 2.835 . S
Eu1401 O1420 2.473 . S
Eu1401 O1421 2.480 . S
Eu1401 O1422 2.430 . S
Eu1401 O1423 2.670 . S
Eu1401 O1424 2.394 . S
Eu1401 O1429 2.355 . S
Eu1401 O1431 2.374 . S
C1402 C1400 1.500 . S
C1402 C1403 1.377 . S
C1402 C1407 1.377 . S
C1403 C1402 1.377 . S
C1403 C1404 1.395 . S
C1403 H1432 0.931 . S
C1404 C1403 1.395 . S
C1404 C1405 1.383 . S
C1404 H1433 0.931 . S
C1405 C1404 1.383 . S
C1405 C1406 1.394 . S
C1406 C1405 1.394 . S
C1406 C1407 1.378 . S
C1406 H1434 0.931 . S
C1407 C1402 1.377 . S
C1407 C1406 1.378 . S
C1407 H1435 0.931 . S
C1408 O1422 1.259 . S
C1408 O1423 1.270 . S
C1409 O1424 1.251 . S
C1409 O1425 1.251 . S
C1410 Eu1411 2.835 . S
C1410 C1412 1.500 . S
C1410 O1426 1.257 . S
C1410 O1427 1.260 . S
Eu1411 C1410 2.835 . S
Eu1411 O1423 2.355 . S
Eu1411 O1425 2.374 . S
Eu1411 O1426 2.473 . S
Eu1411 O1427 2.480 . S
Eu1411 O1428 2.430 . S
Eu1411 O1429 2.670 . S
Eu1411 O1430 2.394 . S
C1412 C1410 1.500 . S
C1412 C1413 1.377 . S
C1412 C1417 1.377 . S
C1413 C1412 1.377 . S
C1413 C1414 1.395 . S
C1413 H1436 0.931 . S
C1414 C1413 1.395 . S
C1414 C1415 1.383 . S
C1414 H1437 0.931 . S
C1415 C1414 1.383 . S
C1415 C1416 1.394 . S
C1416 C1415 1.394 . S
C1416 C1417 1.378 . S
C1416 H1438 0.931 . S
C1417 C1412 1.377 . S
C1417 C1416 1.378 . S
C1417 H1439 0.931 . S
C1418 O1428 1.259 . S
C1418 O1429 1.270 . S
C1419 O1430 1.251 . S
C1419 O1431 1.251 . S
O1420 C1400 1.257 . S
O1420 Eu1401 2.473 . S
O1421 C1400 1.260 . S
O1421 Eu1401 2.480 . S
O1422 Eu1401 2.430 . S
O1422 C1408 1.259 . S
O1423 Eu1401 2.670 . S
O1423 C1408 1.270 . S
O1423 Eu1411 2.355 . S
O1424 Eu1401 2.394 . S
O1424 C1409 1.251 . S
O1425 C1409 1.251 . S
O1425 Eu1411 2.374 . S
O1426 C1410 1.257 . S
O1426 Eu1411 2.473 . S
O1427 C1410 1.260 . S
O1427 Eu1411 2.480 . S
O1428 Eu1411 2.430 . S
O1428 C1418 1.259 . S
O1429 Eu1401 2.355 . S
O1429 Eu1411 2.670 . S
O1429 C1418 1.270 . S
O1430 Eu1411 2.394 . S
O1430 C1419 1.251 . S
O1431 Eu1401 2.374 . S
O1431 C1419 1.251 . S
H1432 C1403 0.931 . S
H1433 C1404 0.931 . S
H1434 C1406 0.931 . S
H1435 C1407 0.931 . S
H1436 C1413 0.931 . S
H1437 C1414 0.931 . S
H1438 C1416 0.931 . S
H1439 C1417 0.931 . S
C1440 C1441 1.369 . S
C1440 C1442 1.419 . S
C1440 H1444 0.930 . S
C1441 C1440 1.369 . S
C1441 C1450 1.429 . S
C1442 C1440 1.419 . S
C1442 C1443 1.363 . S
C1442 H1445 0.929 1_554 S
C1443 C1442 1.363 . S
C1443 C1449 1.428 . S
H1444 C1440 0.930 . S
H1445 C1442 0.929 1_556 S
S1446 N1447 1.613 . S
S1446 N1448 1.610 . S
N1447 S1446 1.613 . S
N1447 C1450 1.350 . S
N1448 S1446 1.610 . S
N1448 C1449 1.351 . S
C1449 C1443 1.428 . S
C1449 N1448 1.351 . S
C1449 C1450 1.434 . S
C1450 C1441 1.429 . S
C1450 N1447 1.350 . S
C1450 C1449 1.434 . S
C1451 C1452 1.369 . S
C1451 C1453 1.419 . S
C1451 H1455 0.930 . S
C1452 C1451 1.369 . S
C1452 C1461 1.429 . S
C1453 C1451 1.419 . S
C1453 C1454 1.363 . S
C1453 H1456 0.929 . S
C1454 C1453 1.363 . S
C1454 C1460 1.428 . S
H1455 C1451 0.930 . S
H1456 C1453 0.929 . S
S1457 N1458 1.613 . S
S1457 N1459 1.610 . S
N1458 S1457 1.613 . S
N1458 C1461 1.350 . S
N1459 S1457 1.610 . S
N1459 C1460 1.351 . S
C1460 C1454 1.428 . S
C1460 N1459 1.351 . S
C1460 C1461 1.434 . S
C1461 C1452 1.429 . S
C1461 N1458 1.350 . S
C1461 C1460 1.434 . S
C1462 C1463 1.369 . S
C1462 C1464 1.419 . S
C1462 H1466 0.930 . S
C1463 C1462 1.369 . S
C1463 C1472 1.429 . S
C1464 C1462 1.419 . S
C1464 C1465 1.363 . S
C1464 H1467 0.929 . S
C1465 C1464 1.363 . S
C1465 C1471 1.467 . S
H1466 C1462 0.930 . S
H1467 C1464 0.929 . S
S1468 N1469 1.613 . S
S1468 N1470 1.610 . S
N1469 S1468 1.613 . S
N1469 C1472 1.350 1_556 S
N1470 S1468 1.610 . S
N1470 C1471 1.316 1_556 S
C1471 C1465 1.467 . S
C1471 N1470 1.316 1_554 S
C1471 C1472 1.432 . S
C1472 C1463 1.429 . S
C1472 N1469 1.350 1_554 S
C1472 C1471 1.432 . S
C1473 C1474 1.369 . S
C1473 C1475 1.419 . S
C1473 H1477 0.930 1_556 S
C1474 C1473 1.369 . S
C1474 C1483 1.429 . S
C1475 C1473 1.419 . S
C1475 C1476 1.363 . S
C1475 H1478 0.929 1_556 S
C1476 C1475 1.363 . S
C1476 C1482 1.428 . S
H1477 C1473 0.930 1_554 S
H1478 C1475 0.929 1_554 S
S1479 N1480 1.613 . S
S1479 N1481 1.610 . S
N1480 S1479 1.613 . S
N1480 C1483 1.350 . S
N1481 S1479 1.610 . S
N1481 C1482 1.351 . S
C1482 C1476 1.428 . S
C1482 N1481 1.351 . S
C1482 C1483 1.434 . S
C1483 C1474 1.429 . S
C1483 N1480 1.350 . S
C1483 C1482 1.434 . S
C1484 C1485 1.369 . S
C1484 C1486 1.419 . S
C1484 H1488 0.930 . S
C1485 C1484 1.369 . S
C1485 C1494 1.429 . S
C1486 C1484 1.419 . S
C1486 C1487 1.363 . S
C1486 H1489 0.929 . S
C1487 C1486 1.363 . S
C1487 C1493 1.428 . S
H1488 C1484 0.930 . S
H1489 C1486 0.929 . S
S1490 N1491 1.613 . S
S1490 N1492 1.610 . S
N1491 S1490 1.613 . S
N1491 C1494 1.350 . S
N1492 S1490 1.610 . S
N1492 C1493 1.351 . S
C1493 C1487 1.428 . S
C1493 N1492 1.351 . S
C1493 C1494 1.434 . S
C1494 C1485 1.429 . S
C1494 N1491 1.350 . S
C1494 C1493 1.434 . S
C1495 C1496 1.369 . S
C1495 C1497 1.419 . S
C1495 H1499 0.930 . S
C1496 C1495 1.369 . S
C1496 C1505 1.429 . S
C1497 C1495 1.419 . S
C1497 C1498 1.363 . S
C1497 H1500 0.929 . S
C1498 C1497 1.363 . S
C1498 C1504 1.428 . S
H1499 C1495 0.930 . S
H1500 C1497 0.929 . S
S1501 N1502 1.613 . S
S1501 N1503 1.610 . S
N1502 S1501 1.613 . S
N1502 C1505 1.350 . S
N1503 S1501 1.610 . S
N1503 C1504 1.351 . S
C1504 C1498 1.428 . S
C1504 N1503 1.351 . S
C1504 C1505 1.434 . S
C1505 C1496 1.429 . S
C1505 N1502 1.350 . S
C1505 C1504 1.434 . S
C1506 C1507 1.369 . S
C1506 C1508 1.419 . S
C1506 H1510 0.930 . S
C1507 C1506 1.369 . S
C1507 C1516 1.429 . S
C1508 C1506 1.419 . S
C1508 C1509 1.363 . S
C1508 H1511 0.929 1_556 S
C1509 C1508 1.363 . S
C1509 C1515 1.428 . S
H1510 C1506 0.930 . S
H1511 C1508 0.929 1_554 S
S1512 N1513 1.613 . S
S1512 N1514 1.610 . S
N1513 S1512 1.613 . S
N1513 C1516 1.350 . S
N1514 S1512 1.610 . S
N1514 C1515 1.351 . S
C1515 C1509 1.428 . S
C1515 N1514 1.351 . S
C1515 C1516 1.434 . S
C1516 C1507 1.429 . S
C1516 N1513 1.350 . S
C1516 C1515 1.434 . S
C1517 C1518 1.369 . S
C1517 C1519 1.419 . S
C1517 H1521 0.930 . S
C1518 C1517 1.369 . S
C1518 C1527 1.429 . S
C1519 C1517 1.419 . S
C1519 C1520 1.363 . S
C1519 H1522 0.929 . S
C1520 C1519 1.363 . S
C1520 C1526 1.428 . S
H1521 C1517 0.930 . S
H1522 C1519 0.929 . S
S1523 N1524 1.613 . S
S1523 N1525 1.610 . S
N1524 S1523 1.613 . S
N1524 C1527 1.350 . S
N1525 S1523 1.610 . S
N1525 C1526 1.351 . S
C1526 C1520 1.428 . S
C1526 N1525 1.351 . S
C1526 C1527 1.434 . S
C1527 C1518 1.429 . S
C1527 N1524 1.350 . S
C1527 C1526 1.434 . S
C1528 C1529 1.369 . S
C1528 C1530 1.419 . S
C1528 H1532 0.930 . S
C1529 C1528 1.369 . S
C1529 C1538 1.429 1_556 S
C1530 C1528 1.419 . S
C1530 C1531 1.363 . S
C1530 H1533 0.929 . S
C1531 C1530 1.363 . S
C1531 C1537 1.428 1_556 S
H1532 C1528 0.930 . S
H1533 C1530 0.929 . S
S1534 N1535 1.613 . S
S1534 N1536 1.610 . S
N1535 S1534 1.613 . S
N1535 C1538 1.350 . S
N1536 S1534 1.610 . S
N1536 C1537 1.351 . S
C1537 C1531 1.428 1_554 S
C1537 N1536 1.351 . S
C1537 C1538 1.434 . S
C1538 C1529 1.429 1_554 S
C1538 N1535 1.350 . S
C1538 C1537 1.434 . S
C1539 C1540 1.369 . S
C1539 C1541 1.419 . S
C1539 H1543 0.930 . S
C1540 C1539 1.369 . S
C1540 C1549 1.429 . S
C1541 C1539 1.419 . S
C1541 C1542 1.363 . S
C1541 H1544 0.929 . S
C1542 C1541 1.363 . S
C1542 C1548 1.428 . S
H1543 C1539 0.930 . S
H1544 C1541 0.929 . S
S1545 N1546 1.613 . S
S1545 N1547 1.610 . S
N1546 S1545 1.613 . S
N1546 C1549 1.350 . S
N1547 S1545 1.610 . S
N1547 C1548 1.351 . S
C1548 C1542 1.428 . S
C1548 N1547 1.351 . S
C1548 C1549 1.434 . S
C1549 C1540 1.429 . S
C1549 N1546 1.350 . S
C1549 C1548 1.434 . S
C1550 C1551 1.369 . S
C1550 C1552 1.419 . S
C1550 H1554 0.930 . S
C1551 C1550 1.369 . S
C1551 C1560 1.429 . S
C1552 C1550 1.419 . S
C1552 C1553 1.363 . S
C1552 H1555 0.929 . S
C1553 C1552 1.363 . S
C1553 C1559 1.428 . S
H1554 C1550 0.930 . S
H1555 C1552 0.929 . S
S1556 N1557 1.613 . S
S1556 N1558 1.610 . S
N1557 S1556 1.613 . S
N1557 C1560 1.350 . S
N1558 S1556 1.610 . S
N1558 C1559 1.351 . S
C1559 C1553 1.428 . S
C1559 N1558 1.351 . S
C1559 C1560 1.434 . S
C1560 C1551 1.429 . S
C1560 N1557 1.350 . S
C1560 C1559 1.434 . S
C1561 C1562 1.369 . S
C1561 C1563 1.419 1_554 S
C1561 H1565 0.930 1_554 S
C1562 C1561 1.369 . S
C1562 C1571 1.429 . S
C1563 C1561 1.419 1_556 S
C1563 C1564 1.363 1_556 S
C1563 H1566 0.929 . S
C1564 C1563 1.363 1_554 S
C1564 C1570 1.428 . S
H1565 C1561 0.930 1_556 S
H1566 C1563 0.929 . S
S1567 N1568 1.613 . S
S1567 N1569 1.610 . S
N1568 S1567 1.613 . S
N1568 C1571 1.350 . S
N1569 S1567 1.610 . S
N1569 C1570 1.351 . S
C1570 C1564 1.428 . S
C1570 N1569 1.351 . S
C1570 C1571 1.434 . S
C1571 C1562 1.429 . S
C1571 N1568 1.350 . S
C1571 C1570 1.434 . S
C1572 C1573 1.369 . S
C1572 C1574 1.419 . S
C1572 H1576 0.930 . S
C1573 C1572 1.369 . S
C1573 C1582 1.429 . S
C1574 C1572 1.419 . S
C1574 C1575 1.363 . S
C1574 H1577 0.929 . S
C1575 C1574 1.363 . S
C1575 C1581 1.428 . S
H1576 C1572 0.930 . S
H1577 C1574 0.929 . S
S1578 N1579 1.613 . S
S1578 N1580 1.610 . S
N1579 S1578 1.613 . S
N1579 C1582 1.350 . S
N1580 S1578 1.610 . S
N1580 C1581 1.351 . S
C1581 C1575 1.428 . S
C1581 N1580 1.351 . S
C1581 C1582 1.434 . S
C1582 C1573 1.429 . S
C1582 N1579 1.350 . S
C1582 C1581 1.434 . S
C1583 C1584 1.369 . S
C1583 C1585 1.419 . S
C1583 H1587 0.930 . S
C1584 C1583 1.369 . S
C1584 C1593 1.429 . S
C1585 C1583 1.419 . S
C1585 C1586 1.363 . S
C1585 H1588 0.929 . S
C1586 C1585 1.363 . S
C1586 C1592 1.428 . S
H1587 C1583 0.930 . S
H1588 C1585 0.929 . S
S1589 N1590 1.613 . S
S1589 N1591 1.610 . S
N1590 S1589 1.613 . S
N1590 C1593 1.350 . S
N1591 S1589 1.610 . S
N1591 C1592 1.351 . S
C1592 C1586 1.428 . S
C1592 N1591 1.351 . S
C1592 C1593 1.434 . S
C1593 C1584 1.429 . S
C1593 N1590 1.350 . S
C1593 C1592 1.434 . S
C1594 C1595 1.369 1_565 S
C1594 C1596 1.419 . S
C1594 H1598 0.930 1_565 S
C1595 C1594 1.369 1_545 S
C1595 C1604 1.429 1_545 S
C1596 C1594 1.419 . S
C1596 C1597 1.363 . S
C1596 H1599 0.929 . S
C1597 C1596 1.363 . S
C1597 C1603 1.428 . S
H1598 C1594 0.930 1_545 S
H1599 C1596 0.929 . S
S1600 N1601 1.613 . S
S1600 N1602 1.610 . S
N1601 S1600 1.613 . S
N1601 C1604 1.350 . S
N1602 S1600 1.610 . S
N1602 C1603 1.351 . S
C1603 C1597 1.428 . S
C1603 N1602 1.351 . S
C1603 C1604 1.434 . S
C1604 C1595 1.429 1_565 S
C1604 N1601 1.350 . S
C1604 C1603 1.434 . S
C1605 C1606 1.369 . S
C1605 C1607 1.419 . S
C1605 H1609 0.930 . S
C1606 C1605 1.369 . S
C1606 C1615 1.429 . S
C1607 C1605 1.419 . S
C1607 C1608 1.363 . S
C1607 H1610 0.929 . S
C1608 C1607 1.363 . S
C1608 C1614 1.428 . S
H1609 C1605 0.930 . S
H1610 C1607 0.929 . S
S1611 N1612 1.613 . S
S1611 N1613 1.610 . S
N1612 S1611 1.613 . S
N1612 C1615 1.350 . S
N1613 S1611 1.610 . S
N1613 C1614 1.351 . S
C1614 C1608 1.428 . S
C1614 N1613 1.351 . S
C1614 C1615 1.434 . S
C1615 C1606 1.429 . S
C1615 N1612 1.350 . S
C1615 C1614 1.434 . S
C1616 C1617 1.369 . S
C1616 C1618 1.419 . S
C1616 H1620 0.930 . S
C1617 C1616 1.369 . S
C1617 C1626 1.429 . S
C1618 C1616 1.419 . S
C1618 C1619 1.363 . S
C1618 H1621 0.929 . S
C1619 C1618 1.363 . S
C1619 C1625 1.428 . S
H1620 C1616 0.930 . S
H1621 C1618 0.929 . S
S1622 N1623 1.613 . S
S1622 N1624 1.610 . S
N1623 S1622 1.613 . S
N1623 C1626 1.350 . S
N1624 S1622 1.610 . S
N1624 C1625 1.351 . S
C1625 C1619 1.428 . S
C1625 N1624 1.351 . S
C1625 C1626 1.434 . S
C1626 C1617 1.429 . S
C1626 N1623 1.350 . S
C1626 C1625 1.434 . S
C1627 C1628 1.369 . S
C1627 C1629 1.419 . S
C1627 H1631 0.930 . S
C1628 C1627 1.369 . S
C1628 C1637 1.429 . S
C1629 C1627 1.419 . S
C1629 C1630 1.363 . S
C1629 H1632 0.929 . S
C1630 C1629 1.363 . S
C1630 C1636 1.428 . S
H1631 C1627 0.930 . S
H1632 C1629 0.929 . S
S1633 N1634 1.613 . S
S1633 N1635 1.610 . S
N1634 S1633 1.613 . S
N1634 C1637 1.350 . S
N1635 S1633 1.610 . S
N1635 C1636 1.351 . S
C1636 C1630 1.428 . S
C1636 N1635 1.351 . S
C1636 C1637 1.434 . S
C1637 C1628 1.429 . S
C1637 N1634 1.350 . S
C1637 C1636 1.434 . S
C1638 C1639 1.369 . S
C1638 C1640 1.419 . S
C1638 H1642 0.930 . S
C1639 C1638 1.369 . S
C1639 C1648 1.429 . S
C1640 C1638 1.419 . S
C1640 C1641 1.363 . S
C1640 H1643 0.929 . S
C1641 C1640 1.363 . S
C1641 C1647 1.428 . S
H1642 C1638 0.930 . S
H1643 C1640 0.929 . S
S1644 N1645 1.613 . S
S1644 N1646 1.610 . S
N1645 S1644 1.613 . S
N1645 C1648 1.350 . S
N1646 S1644 1.610 . S
N1646 C1647 1.351 . S
C1647 C1641 1.428 . S
C1647 N1646 1.351 . S
C1647 C1648 1.434 . S
C1648 C1639 1.429 . S
C1648 N1645 1.350 . S
C1648 C1647 1.434 . S
C1649 C1650 1.369 . S
C1649 C1651 1.419 . S
C1649 H1653 0.930 . S
C1650 C1649 1.369 . S
C1650 C1659 1.429 . S
C1651 C1649 1.419 . S
C1651 C1652 1.363 . S
C1651 H1654 0.929 . S
C1652 C1651 1.363 . S
C1652 C1658 1.428 . S
H1653 C1649 0.930 . S
H1654 C1651 0.929 . S
S1655 N1656 1.613 . S
S1655 N1657 1.610 . S
N1656 S1655 1.613 . S
N1656 C1659 1.350 . S
N1657 S1655 1.610 . S
N1657 C1658 1.351 . S
C1658 C1652 1.428 . S
C1658 N1657 1.351 . S
C1658 C1659 1.434 . S
C1659 C1650 1.429 . S
C1659 N1656 1.350 . S
C1659 C1658 1.434 . S
C1660 C1661 1.369 . S
C1660 C1662 1.419 . S
C1660 H1664 0.930 . S
C1661 C1660 1.369 . S
C1661 C1670 1.429 . S
C1662 C1660 1.419 . S
C1662 C1663 1.363 . S
C1662 H1665 0.929 . S
C1663 C1662 1.363 . S
C1663 C1669 1.428 . S
H1664 C1660 0.930 . S
H1665 C1662 0.929 . S
S1666 N1667 1.613 . S
S1666 N1668 1.610 . S
N1667 S1666 1.613 . S
N1667 C1670 1.350 . S
N1668 S1666 1.610 . S
N1668 C1669 1.351 . S
C1669 C1663 1.428 . S
C1669 N1668 1.351 . S
C1669 C1670 1.434 . S
C1670 C1661 1.429 . S
C1670 N1667 1.350 . S
C1670 C1669 1.434 . S
C1671 C1672 1.353 1_565 S
C1671 C1673 1.419 . S
C1671 H1675 0.930 . S
C1672 C1671 1.353 1_545 S
C1672 C1681 1.416 1_545 S
C1673 C1671 1.419 . S
C1673 C1674 1.363 . S
C1673 H1676 0.929 . S
C1674 C1673 1.363 . S
C1674 C1680 1.428 . S
H1675 C1671 0.930 . S
H1676 C1673 0.929 . S
S1677 N1678 1.613 . S
S1677 N1679 1.610 . S
N1678 S1677 1.613 . S
N1678 C1681 1.350 . S
N1679 S1677 1.610 . S
N1679 C1680 1.351 . S
C1680 C1674 1.428 . S
C1680 N1679 1.351 . S
C1680 C1681 1.434 . S
C1681 C1672 1.416 1_565 S
C1681 N1678 1.350 . S
C1681 C1680 1.434 . S
C1682 C1683 1.369 . S
C1682 C1684 1.419 . S
C1682 H1686 0.930 . S
C1683 C1682 1.369 . S
C1683 C1692 1.429 . S
C1684 C1682 1.419 . S
C1684 C1685 1.363 . S
C1684 H1687 0.929 . S
C1685 C1684 1.363 . S
C1685 C1691 1.428 . S
H1686 C1682 0.930 . S
H1687 C1684 0.929 . S
S1688 N1689 1.613 . S
S1688 N1690 1.610 . S
N1689 S1688 1.613 . S
N1689 C1692 1.350 . S
N1690 S1688 1.610 . S
N1690 C1691 1.351 . S
C1691 C1685 1.428 . S
C1691 N1690 1.351 . S
C1691 C1692 1.434 . S
C1692 C1683 1.429 . S
C1692 N1689 1.350 . S
C1692 C1691 1.434 . S
C1693 C1694 1.369 . S
C1693 C1695 1.419 . S
C1693 H1697 0.930 . S
C1694 C1693 1.369 . S
C1694 C1703 1.429 . S
C1695 C1693 1.419 . S
C1695 C1696 1.363 . S
C1695 H1698 0.929 . S
C1696 C1695 1.363 . S
C1696 C1702 1.428 . S
H1697 C1693 0.930 . S
H1698 C1695 0.929 . S
S1699 N1700 1.613 . S
S1699 N1701 1.610 . S
N1700 S1699 1.613 . S
N1700 C1703 1.350 . S
N1701 S1699 1.610 . S
N1701 C1702 1.351 . S
C1702 C1696 1.428 . S
C1702 N1701 1.351 . S
C1702 C1703 1.434 . S
C1703 C1694 1.429 . S
C1703 N1700 1.350 . S
C1703 C1702 1.434 . S
C1704 C1705 1.369 . S
C1704 C1706 1.419 . S
C1704 H1708 0.930 . S
C1705 C1704 1.369 . S
C1705 C1714 1.429 . S
C1706 C1704 1.419 . S
C1706 C1707 1.363 . S
C1706 H1709 0.929 . S
C1707 C1706 1.363 . S
C1707 C1713 1.428 . S
H1708 C1704 0.930 . S
H1709 C1706 0.929 . S
S1710 N1711 1.613 . S
S1710 N1712 1.610 . S
N1711 S1710 1.613 . S
N1711 C1714 1.350 . S
N1712 S1710 1.610 . S
N1712 C1713 1.351 . S
C1713 C1707 1.428 . S
C1713 N1712 1.351 . S
C1713 C1714 1.434 . S
C1714 C1705 1.429 . S
C1714 N1711 1.350 . S
C1714 C1713 1.434 . S
C1715 C1716 1.369 . S
C1715 C1717 1.419 . S
C1715 H1719 0.930 . S
C1716 C1715 1.369 . S
C1716 C1725 1.429 . S
C1717 C1715 1.419 . S
C1717 C1718 1.363 . S
C1717 H1720 0.929 . S
C1718 C1717 1.363 . S
C1718 C1724 1.428 . S
H1719 C1715 0.930 . S
H1720 C1717 0.929 . S
S1721 N1722 1.613 . S
S1721 N1723 1.610 . S
N1722 S1721 1.613 . S
N1722 C1725 1.350 . S
N1723 S1721 1.610 . S
N1723 C1724 1.351 . S
C1724 C1718 1.428 . S
C1724 N1723 1.351 . S
C1724 C1725 1.434 . S
C1725 C1716 1.429 . S
C1725 N1722 1.350 . S
C1725 C1724 1.434 . S
C1726 C1727 1.369 . S
C1726 C1728 1.419 . S
C1726 H1730 0.930 . S
C1727 C1726 1.369 . S
C1727 C1736 1.429 . S
C1728 C1726 1.419 . S
C1728 C1729 1.363 . S
C1728 H1731 0.929 . S
C1729 C1728 1.363 . S
C1729 C1735 1.428 . S
H1730 C1726 0.930 . S
H1731 C1728 0.929 . S
S1732 N1733 1.613 . S
S1732 N1734 1.610 . S
N1733 S1732 1.613 . S
N1733 C1736 1.350 . S
N1734 S1732 1.610 . S
N1734 C1735 1.351 . S
C1735 C1729 1.428 . S
C1735 N1734 1.351 . S
C1735 C1736 1.434 . S
C1736 C1727 1.429 . S
C1736 N1733 1.350 . S
C1736 C1735 1.434 . S
C1737 C1738 1.348 1_545 S
C1737 C1739 1.419 . S
C1737 H1741 0.930 . S
C1738 C1737 1.348 1_565 S
C1738 C1747 1.425 1_565 S
C1739 C1737 1.419 . S
C1739 C1740 1.363 . S
C1739 H1742 0.929 . S
C1740 C1739 1.363 . S
C1740 C1746 1.428 . S
H1741 C1737 0.930 . S
H1742 C1739 0.929 . S
S1743 N1744 1.613 . S
S1743 N1745 1.610 . S
N1744 S1743 1.613 . S
N1744 C1747 1.350 . S
N1745 S1743 1.610 . S
N1745 C1746 1.351 . S
C1746 C1740 1.428 . S
C1746 N1745 1.351 . S
C1746 C1747 1.434 . S
C1747 C1738 1.425 1_545 S
C1747 N1744 1.350 . S
C1747 C1746 1.434 . S
C1748 C1749 1.369 . S
C1748 C1750 1.419 . S
C1748 H1752 0.930 . S
C1749 C1748 1.369 . S
C1749 C1758 1.429 . S
C1750 C1748 1.419 . S
C1750 C1751 1.363 . S
C1750 H1753 0.929 . S
C1751 C1750 1.363 . S
C1751 C1757 1.428 . S
H1752 C1748 0.930 . S
H1753 C1750 0.929 . S
S1754 N1755 1.613 . S
S1754 N1756 1.610 . S
N1755 S1754 1.613 . S
N1755 C1758 1.350 . S
N1756 S1754 1.610 . S
N1756 C1757 1.351 . S
C1757 C1751 1.428 . S
C1757 N1756 1.351 . S
C1757 C1758 1.434 . S
C1758 C1749 1.429 . S
C1758 N1755 1.350 . S
C1758 C1757 1.434 . S
C1759 C1760 1.369 . S
C1759 C1761 1.419 . S
C1759 H1763 0.930 . S
C1760 C1759 1.369 . S
C1760 C1769 1.429 . S
C1761 C1759 1.419 . S
C1761 C1762 1.363 . S
C1761 H1764 0.929 . S
C1762 C1761 1.363 . S
C1762 C1768 1.428 . S
H1763 C1759 0.930 . S
H1764 C1761 0.929 . S
S1765 N1766 1.613 . S
S1765 N1767 1.610 . S
N1766 S1765 1.613 . S
N1766 C1769 1.350 . S
N1767 S1765 1.610 . S
N1767 C1768 1.351 . S
C1768 C1762 1.428 . S
C1768 N1767 1.351 . S
C1768 C1769 1.434 . S
C1769 C1760 1.429 . S
C1769 N1766 1.350 . S
C1769 C1768 1.434 . S
C1770 C1771 1.369 . S
C1770 C1772 1.419 . S
C1770 H1774 0.930 . S
C1771 C1770 1.369 . S
C1771 C1780 1.429 . S
C1772 C1770 1.419 . S
C1772 C1773 1.363 . S
C1772 H1775 0.929 . S
C1773 C1772 1.363 . S
C1773 C1779 1.428 . S
H1774 C1770 0.930 . S
H1775 C1772 0.929 . S
S1776 N1777 1.613 1_655 S
S1776 N1778 1.610 . S
N1777 S1776 1.613 1_455 S
N1777 C1780 1.350 1_455 S
N1778 S1776 1.610 . S
N1778 C1779 1.351 . S
C1779 C1773 1.428 . S
C1779 N1778 1.351 . S
C1779 C1780 1.434 . S
C1780 C1771 1.429 . S
C1780 N1777 1.350 1_655 S
C1780 C1779 1.434 . S
C1781 C1782 1.369 . S
C1781 C1783 1.419 . S
C1781 H1785 0.930 . S
C1782 C1781 1.369 . S
C1782 C1791 1.429 . S
C1783 C1781 1.419 . S
C1783 C1784 1.363 . S
C1783 H1786 0.929 . S
C1784 C1783 1.363 . S
C1784 C1790 1.428 . S
H1785 C1781 0.930 . S
H1786 C1783 0.929 . S
S1787 N1788 1.613 . S
S1787 N1789 1.610 . S
N1788 S1787 1.613 . S
N1788 C1791 1.350 . S
N1789 S1787 1.610 . S
N1789 C1790 1.351 . S
C1790 C1784 1.428 . S
C1790 N1789 1.351 . S
C1790 C1791 1.434 . S
C1791 C1782 1.429 . S
C1791 N1788 1.350 . S
C1791 C1790 1.434 . S
C1792 C1793 1.369 1_545 S
C1792 C1794 1.419 . S
C1792 H1796 0.930 1_545 S
C1793 C1792 1.369 1_565 S
C1793 C1802 1.429 1_565 S
C1794 C1792 1.419 . S
C1794 C1795 1.363 . S
C1794 H1797 0.929 . S
C1795 C1794 1.363 . S
C1795 C1801 1.428 . S
H1796 C1792 0.930 1_565 S
H1797 C1794 0.929 . S
S1798 N1799 1.613 . S
S1798 N1800 1.610 . S
N1799 S1798 1.613 . S
N1799 C1802 1.350 . S
N1800 S1798 1.610 . S
N1800 C1801 1.351 . S
C1801 C1795 1.428 . S
C1801 N1800 1.351 . S
C1801 C1802 1.434 . S
C1802 C1793 1.429 1_545 S
C1802 N1799 1.350 . S
C1802 C1801 1.434 . S
C1803 C1804 1.369 . S
C1803 C1805 1.419 . S
C1803 H1807 0.930 . S
C1804 C1803 1.369 . S
C1804 C1813 1.429 . S
C1805 C1803 1.419 . S
C1805 C1806 1.363 . S
C1805 H1808 0.929 . S
C1806 C1805 1.363 . S
C1806 C1812 1.428 . S
H1807 C1803 0.930 . S
H1808 C1805 0.929 . S
S1809 N1810 1.613 . S
S1809 N1811 1.610 . S
N1810 S1809 1.613 . S
N1810 C1813 1.350 . S
N1811 S1809 1.610 . S
N1811 C1812 1.351 . S
C1812 C1806 1.428 . S
C1812 N1811 1.351 . S
C1812 C1813 1.434 . S
C1813 C1804 1.429 . S
C1813 N1810 1.350 . S
C1813 C1812 1.434 . S
C1814 C1815 1.369 . S
C1814 C1816 1.419 . S
C1814 H1818 0.930 . S
C1815 C1814 1.369 . S
C1815 C1824 1.429 . S
C1816 C1814 1.419 . S
C1816 C1817 1.363 . S
C1816 H1819 0.929 . S
C1817 C1816 1.363 . S
C1817 C1823 1.428 . S
H1818 C1814 0.930 . S
H1819 C1816 0.929 . S
S1820 N1821 1.613 . S
S1820 N1822 1.610 . S
N1821 S1820 1.613 . S
N1821 C1824 1.350 . S
N1822 S1820 1.610 . S
N1822 C1823 1.351 . S
C1823 C1817 1.428 . S
C1823 N1822 1.351 . S
C1823 C1824 1.434 . S
C1824 C1815 1.429 . S
C1824 N1821 1.350 . S
C1824 C1823 1.434 . S
C1825 C1826 1.369 . S
C1825 C1827 1.419 . S
C1825 H1829 0.930 . S
C1826 C1825 1.369 . S
C1826 C1835 1.429 . S
C1827 C1825 1.419 . S
C1827 C1828 1.363 . S
C1827 H1830 0.929 . S
C1828 C1827 1.363 . S
C1828 C1834 1.428 . S
H1829 C1825 0.930 . S
H1830 C1827 0.929 . S
S1831 N1832 1.613 . S
S1831 N1833 1.610 . S
N1832 S1831 1.613 . S
N1832 C1835 1.350 . S
N1833 S1831 1.610 . S
N1833 C1834 1.351 . S
C1834 C1828 1.428 . S
C1834 N1833 1.351 . S
C1834 C1835 1.434 . S
C1835 C1826 1.429 . S
C1835 N1832 1.350 . S
C1835 C1834 1.434 . S
C1836 C1837 1.369 . S
C1836 C1838 1.419 . S
C1836 H1840 0.930 . S
C1837 C1836 1.369 . S
C1837 C1846 1.429 . S
C1838 C1836 1.419 . S
C1838 C1839 1.363 . S
C1838 H1841 0.930 1_565 S
C1839 C1838 1.363 . S
C1839 C1845 1.428 . S
H1840 C1836 0.930 . S
H1841 C1838 0.930 1_545 S
S1842 N1843 1.613 . S
S1842 N1844 1.610 . S
N1843 S1842 1.613 . S
N1843 C1846 1.350 . S
N1844 S1842 1.610 . S
N1844 C1845 1.351 . S
C1845 C1839 1.428 . S
C1845 N1844 1.351 . S
C1845 C1846 1.434 . S
C1846 C1837 1.429 . S
C1846 N1843 1.350 . S
C1846 C1845 1.434 . S
C1847 C1848 1.369 . S
C1847 C1849 1.419 . S
C1847 H1851 0.930 . S
C1848 C1847 1.369 . S
C1848 C1857 1.429 . S
C1849 C1847 1.419 . S
C1849 C1850 1.363 . S
C1849 H1852 0.929 . S
C1850 C1849 1.363 . S
C1850 C1856 1.428 . S
H1851 C1847 0.930 . S
H1852 C1849 0.929 . S
S1853 N1854 1.613 . S
S1853 N1855 1.610 . S
N1854 S1853 1.613 . S
N1854 C1857 1.350 . S
N1855 S1853 1.610 . S
N1855 C1856 1.351 . S
C1856 C1850 1.428 . S
C1856 N1855 1.351 . S
C1856 C1857 1.434 . S
C1857 C1848 1.429 . S
C1857 N1854 1.350 . S
C1857 C1856 1.434 . S
C1858 C1859 1.369 . S
C1858 C1860 1.419 . S
C1858 H1862 0.930 . S
C1859 C1858 1.369 . S
C1859 C1868 1.429 . S
C1860 C1858 1.419 . S
C1860 C1861 1.363 . S
C1860 H1863 0.929 . S
C1861 C1860 1.363 . S
C1861 C1867 1.428 . S
H1862 C1858 0.930 . S
H1863 C1860 0.929 . S
S1864 N1865 1.613 . S
S1864 N1866 1.610 . S
N1865 S1864 1.613 . S
N1865 C1868 1.350 . S
N1866 S1864 1.610 . S
N1866 C1867 1.351 . S
C1867 C1861 1.428 . S
C1867 N1866 1.351 . S
C1867 C1868 1.434 . S
C1868 C1859 1.429 . S
C1868 N1865 1.350 . S
C1868 C1867 1.434 . S
C1869 C1870 1.369 . S
C1869 C1871 1.419 . S
C1869 H1873 0.930 . S
C1870 C1869 1.369 . S
C1870 C1879 1.429 1_655 S
C1871 C1869 1.419 . S
C1871 C1872 1.363 . S
C1871 H1874 0.929 . S
C1872 C1871 1.363 . S
C1872 C1878 1.428 1_655 S
H1873 C1869 0.930 . S
H1874 C1871 0.929 . S
S1875 N1876 1.613 . S
S1875 N1877 1.610 . S
N1876 S1875 1.613 . S
N1876 C1879 1.350 . S
N1877 S1875 1.610 . S
N1877 C1878 1.351 . S
C1878 C1872 1.428 1_455 S
C1878 N1877 1.351 . S
C1878 C1879 1.434 . S
C1879 C1870 1.429 1_455 S
C1879 N1876 1.350 . S
C1879 C1878 1.434 . S
C1880 C1881 1.369 . S
C1880 C1882 1.419 . S
C1880 H1884 0.930 . S
C1881 C1880 1.369 . S
C1881 C1890 1.429 . S
C1882 C1880 1.419 . S
C1882 C1883 1.363 . S
C1882 H1885 0.929 . S
C1883 C1882 1.363 . S
C1883 C1889 1.428 . S
H1884 C1880 0.930 . S
H1885 C1882 0.929 . S
S1886 N1887 1.613 . S
S1886 N1888 1.610 . S
N1887 S1886 1.613 . S
N1887 C1890 1.350 . S
N1888 S1886 1.610 . S
N1888 C1889 1.351 . S
C1889 C1883 1.428 . S
C1889 N1888 1.351 . S
C1889 C1890 1.434 . S
C1890 C1881 1.429 . S
C1890 N1887 1.350 . S
C1890 C1889 1.434 . S
C1891 C1892 1.369 . S
C1891 C1893 1.419 . S
C1891 H1895 0.930 . S
C1892 C1891 1.369 . S
C1892 C1901 1.429 . S
C1893 C1891 1.419 . S
C1893 C1894 1.363 . S
C1893 H1896 0.929 . S
C1894 C1893 1.363 . S
C1894 C1900 1.428 . S
H1895 C1891 0.930 . S
H1896 C1893 0.929 . S
S1897 N1898 1.613 1_565 S
S1897 N1899 1.610 . S
N1898 S1897 1.613 1_545 S
N1898 C1901 1.350 . S
N1899 S1897 1.610 . S
N1899 C1900 1.351 1_565 S
C1900 C1894 1.428 . S
C1900 N1899 1.351 1_545 S
C1900 C1901 1.434 . S
C1901 C1892 1.429 . S
C1901 N1898 1.350 . S
C1901 C1900 1.434 . S
C1902 C1903 1.369 . S
C1902 C1904 1.419 . S
C1902 H1906 0.930 . S
C1903 C1902 1.369 . S
C1903 C1912 1.429 . S
C1904 C1902 1.419 . S
C1904 C1905 1.363 . S
C1904 H1907 0.929 . S
C1905 C1904 1.363 . S
C1905 C1911 1.428 . S
H1906 C1902 0.930 . S
H1907 C1904 0.929 . S
S1908 N1909 1.613 . S
S1908 N1910 1.610 . S
N1909 S1908 1.613 . S
N1909 C1912 1.350 . S
N1910 S1908 1.610 . S
N1910 C1911 1.351 . S
C1911 C1905 1.428 . S
C1911 N1910 1.351 . S
C1911 C1912 1.434 . S
C1912 C1903 1.429 . S
C1912 N1909 1.350 . S
C1912 C1911 1.434 . S
C1913 C1914 1.369 . S
C1913 C1915 1.419 . S
C1913 H1917 0.930 . S
C1914 C1913 1.369 . S
C1914 C1923 1.429 . S
C1915 C1913 1.419 . S
C1915 C1916 1.363 . S
C1915 H1918 0.929 . S
C1916 C1915 1.363 . S
C1916 C1922 1.428 . S
H1917 C1913 0.930 . S
H1918 C1915 0.929 . S
S1919 N1920 1.613 . S
S1919 N1921 1.610 . S
N1920 S1919 1.613 . S
N1920 C1923 1.350 . S
N1921 S1919 1.610 . S
N1921 C1922 1.351 . S
C1922 C1916 1.428 . S
C1922 N1921 1.351 . S
C1922 C1923 1.434 . S
C1923 C1914 1.429 . S
C1923 N1920 1.350 . S
C1923 C1922 1.434 . S
C1924 C1925 1.369 . S
C1924 C1926 1.419 . S
C1924 H1928 0.930 . S
C1925 C1924 1.369 . S
C1925 C1934 1.429 . S
C1926 C1924 1.419 . S
C1926 C1927 1.363 . S
C1926 H1929 0.929 . S
C1927 C1926 1.363 . S
C1927 C1933 1.428 . S
H1928 C1924 0.930 . S
H1929 C1926 0.929 . S
S1930 N1931 1.613 . S
S1930 N1932 1.610 . S
N1931 S1930 1.613 . S
N1931 C1934 1.350 . S
N1932 S1930 1.610 . S
N1932 C1933 1.351 . S
C1933 C1927 1.428 . S
C1933 N1932 1.351 . S
C1933 C1934 1.434 . S
C1934 C1925 1.429 . S
C1934 N1931 1.350 . S
C1934 C1933 1.434 . S
C1935 C1936 1.369 . S
C1935 C1937 1.419 . S
C1935 H1939 0.930 . S
C1936 C1935 1.369 . S
C1936 C1945 1.429 . S
C1937 C1935 1.419 . S
C1937 C1938 1.363 . S
C1937 H1940 0.929 . S
C1938 C1937 1.363 . S
C1938 C1944 1.428 . S
H1939 C1935 0.930 . S
H1940 C1937 0.929 . S
S1941 N1942 1.613 . S
S1941 N1943 1.610 . S
N1942 S1941 1.613 . S
N1942 C1945 1.350 . S
N1943 S1941 1.610 . S
N1943 C1944 1.351 . S
C1944 C1938 1.428 . S
C1944 N1943 1.351 . S
C1944 C1945 1.434 . S
C1945 C1936 1.429 . S
C1945 N1942 1.350 . S
C1945 C1944 1.434 . S
C1946 C1947 1.369 . S
C1946 C1948 1.419 . S
C1946 H1950 0.930 . S
C1947 C1946 1.369 . S
C1947 C1956 1.429 . S
C1948 C1946 1.419 . S
C1948 C1949 1.363 . S
C1948 H1951 0.929 . S
C1949 C1948 1.363 . S
C1949 C1955 1.428 . S
H1950 C1946 0.930 . S
H1951 C1948 0.929 . S
S1952 N1953 1.613 . S
S1952 N1954 1.610 . S
N1953 S1952 1.613 . S
N1953 C1956 1.350 . S
N1954 S1952 1.610 . S
N1954 C1955 1.351 . S
C1955 C1949 1.428 . S
C1955 N1954 1.351 . S
C1955 C1956 1.434 . S
C1956 C1947 1.429 . S
C1956 N1953 1.350 . S
C1956 C1955 1.434 . S
C1957 C1958 1.369 . S
C1957 C1959 1.419 . S
C1957 H1961 0.930 . S
C1958 C1957 1.369 . S
C1958 C1967 1.429 . S
C1959 C1957 1.419 . S
C1959 C1960 1.363 . S
C1959 H1962 0.929 . S
C1960 C1959 1.363 . S
C1960 C1966 1.428 . S
H1961 C1957 0.930 . S
H1962 C1959 0.929 . S
S1963 N1964 1.613 . S
S1963 N1965 1.610 . S
N1964 S1963 1.613 . S
N1964 C1967 1.350 . S
N1965 S1963 1.610 . S
N1965 C1966 1.351 . S
C1966 C1960 1.428 . S
C1966 N1965 1.351 . S
C1966 C1967 1.434 . S
C1967 C1958 1.429 . S
C1967 N1964 1.350 . S
C1967 C1966 1.434 . S
C1968 C1969 1.369 . S
C1968 C1970 1.419 . S
C1968 H1972 0.930 . S
C1969 C1968 1.369 . S
C1969 C1978 1.429 . S
C1970 C1968 1.419 . S
C1970 C1971 1.363 . S
C1970 H1973 0.929 . S
C1971 C1970 1.363 . S
C1971 C1977 1.428 . S
H1972 C1968 0.930 . S
H1973 C1970 0.929 . S
S1974 N1975 1.613 . S
S1974 N1976 1.610 . S
N1975 S1974 1.613 . S
N1975 C1978 1.350 . S
N1976 S1974 1.610 . S
N1976 C1977 1.351 . S
C1977 C1971 1.428 . S
C1977 N1976 1.351 . S
C1977 C1978 1.434 . S
C1978 C1969 1.429 . S
C1978 N1975 1.350 . S
C1978 C1977 1.434 . S
C1979 C1980 1.369 . S
C1979 C1981 1.419 . S
C1979 H1983 0.930 . S
C1980 C1979 1.369 . S
C1980 C1989 1.429 . S
C1981 C1979 1.419 . S
C1981 C1982 1.363 . S
C1981 H1984 0.929 . S
C1982 C1981 1.363 . S
C1982 C1988 1.428 . S
H1983 C1979 0.930 . S
H1984 C1981 0.929 . S
S1985 N1986 1.613 . S
S1985 N1987 1.610 . S
N1986 S1985 1.613 . S
N1986 C1989 1.350 . S
N1987 S1985 1.610 . S
N1987 C1988 1.351 . S
C1988 C1982 1.428 . S
C1988 N1987 1.351 . S
C1988 C1989 1.434 . S
C1989 C1980 1.429 . S
C1989 N1986 1.350 . S
C1989 C1988 1.434 . S
C1990 C1991 1.369 . S
C1990 C1992 1.419 . S
C1990 H1994 0.930 . S
C1991 C1990 1.369 . S
C1991 C2000 1.429 . S
C1992 C1990 1.419 . S
C1992 C1993 1.363 . S
C1992 H1995 0.929 . S
C1993 C1992 1.363 . S
C1993 C1999 1.428 . S
H1994 C1990 0.930 . S
H1995 C1992 0.929 . S
S1996 N1997 1.613 . S
S1996 N1998 1.610 . S
N1997 S1996 1.613 . S
N1997 C2000 1.350 . S
N1998 S1996 1.610 . S
N1998 C1999 1.351 . S
C1999 C1993 1.428 . S
C1999 N1998 1.351 . S
C1999 C2000 1.434 . S
C2000 C1991 1.429 . S
C2000 N1997 1.350 . S
C2000 C1999 1.434 . S
C2001 C2002 1.369 . S
C2001 C2003 1.419 . S
C2001 H2005 0.930 . S
C2002 C2001 1.369 . S
C2002 C2011 1.429 . S
C2003 C2001 1.419 . S
C2003 C2004 1.363 . S
C2003 H2006 0.929 . S
C2004 C2003 1.363 . S
C2004 C2010 1.428 . S
H2005 C2001 0.930 . S
H2006 C2003 0.929 . S
S2007 N2008 1.613 . S
S2007 N2009 1.610 . S
N2008 S2007 1.613 . S
N2008 C2011 1.350 . S
N2009 S2007 1.610 . S
N2009 C2010 1.351 . S
C2010 C2004 1.428 . S
C2010 N2009 1.351 . S
C2010 C2011 1.434 . S
C2011 C2002 1.429 . S
C2011 N2008 1.350 . S
C2011 C2010 1.434 . S
C2012 C2013 1.369 . S
C2012 C2014 1.419 . S
C2012 H2016 0.930 . S
C2013 C2012 1.369 . S
C2013 C2022 1.429 . S
C2014 C2012 1.419 . S
C2014 C2015 1.363 . S
C2014 H2017 0.929 . S
C2015 C2014 1.363 . S
C2015 C2021 1.428 . S
H2016 C2012 0.930 . S
H2017 C2014 0.929 . S
S2018 N2019 1.613 . S
S2018 N2020 1.610 . S
N2019 S2018 1.613 . S
N2019 C2022 1.350 . S
N2020 S2018 1.610 . S
N2020 C2021 1.351 . S
C2021 C2015 1.428 . S
C2021 N2020 1.351 . S
C2021 C2022 1.434 . S
C2022 C2013 1.429 . S
C2022 N2019 1.350 . S
C2022 C2021 1.434 . S
C2023 C2024 1.369 . S
C2023 C2025 1.419 . S
C2023 H2027 0.930 . S
C2024 C2023 1.369 . S
C2024 C2033 1.429 . S
C2025 C2023 1.419 . S
C2025 C2026 1.363 . S
C2025 H2028 0.929 . S
C2026 C2025 1.363 . S
C2026 C2032 1.428 . S
H2027 C2023 0.930 . S
H2028 C2025 0.929 . S
S2029 N2030 1.613 . S
S2029 N2031 1.610 . S
N2030 S2029 1.613 . S
N2030 C2033 1.350 . S
N2031 S2029 1.610 . S
N2031 C2032 1.351 . S
C2032 C2026 1.428 . S
C2032 N2031 1.351 . S
C2032 C2033 1.434 . S
C2033 C2024 1.429 . S
C2033 N2030 1.350 . S
C2033 C2032 1.434 . S
C1441 C781 1.741 . S
C1443 C1089 1.689 . S
C1452 C871 1.719 . S
C1454 C1129 1.735 . S
C1463 C751 1.737 . S
C1465 C1168 1.816 . S
C1474 C691 1.588 . S
C1476 C1128 1.643 . S
C1487 C1169 1.500 . S
C1485 C571 1.443 . S
C1496 C601 1.552 . S
C1498 C1088 1.595 . S
C1509 C1099 1.692 . S
C1507 C661 1.641 . S
C1520 C1139 1.736 . S
C1518 C541 1.693 . S
C1529 C631 1.849 . S
C1531 C1178 1.815 . S
C1540 C811 1.669 . S
C1542 C1138 1.639 . S
C1551 C841 1.479 . S
C1553 C1179 1.497 . S
C1564 C1098 1.598 . S
C1562 C721 1.444 . S
C1575 C1209 1.690 . S
C1573 C61 1.741 1_455 S
C1584 C151 1.727 . S
C1586 C1249 1.735 . S
C1595 C31 1.744 . S
C1597 C1288 1.815 . S
C1606 C1051 1.585 . S
C1608 C1248 1.638 . S
C1617 C931 1.443 . S
C1619 C1289 1.495 . S
C1628 C961 1.560 . S
C1630 C1208 1.594 . S
C1639 C1021 1.643 . S
C1641 C1219 1.689 . S
C1650 C901 1.687 . S
C1652 C1259 1.738 . S
C1663 C1298 1.815 . S
C1661 C991 1.847 . S
C1672 C91 1.695 . S
C1674 C1258 1.644 . S
C1685 C1299 1.494 . S
C1683 C121 1.485 1_455 S
C1694 C1 1.452 . S
C1696 C1218 1.595 . S
C1707 C1329 1.687 . S
C1705 C421 1.744 . S
C1716 C511 1.723 . S
C1718 C1369 1.738 . S
C1729 C1408 1.820 . S
C1727 C391 1.744 . S
C1740 C1368 1.641 . S
C1738 C331 1.609 . S
C1751 C1409 1.494 . S
C1749 C211 1.451 1_655 S
C1760 C241 1.552 . S
C1762 C1328 1.598 . S
C1771 C301 1.652 1_655 S
C1773 C1339 1.686 . S
C1782 C181 1.694 . S
C1784 C1379 1.736 . S
C1795 C1418 1.821 . S
C1793 C271 1.848 . S
C1804 C451 1.672 . S
C1806 C1378 1.644 . S
C1815 C481 1.487 . S
C1817 C1419 1.493 . S
C1826 C361 1.447 . S
C1828 C1338 1.595 . S
C1837 C920 1.372 . S
C1839 C1085 1.398 . S
C1850 C1125 1.831 . S
C1848 C980 1.820 1_455 S
C1859 C1040 1.519 . S
C1861 C1175 1.584 . S
C1870 C380 1.761 . S
C1872 C1135 1.829 . S
C1881 C440 1.553 . S
C1883 C1165 1.585 . S
C1894 C1095 1.399 . S
C1892 C500 1.394 . S
C1903 C200 1.380 . S
C1905 C1205 1.396 . S
C1914 C260 1.828 . S
C1916 C1245 1.831 . S
C1925 C320 1.511 . S
C1927 C1295 1.585 . S
C1936 C740 1.753 . S
C1938 C1255 1.829 . S
C1949 C1285 1.584 . S
C1947 C800 1.556 . S
C1958 C860 1.394 . S
C1960 C1215 1.398 . S
C1969 C560 1.375 . S
C1971 C1325 1.399 . S
C1980 C620 1.824 . S
C1982 C1365 1.830 . S
C1993 C1415 1.584 . S
C1991 C680 1.519 . S
C2002 C20 1.754 . S
C2004 C1375 1.831 . S
C2013 C80 1.552 . S
C2015 C1405 1.585 . S
C2024 C140 1.390 . S
C2026 C1335 1.395 . S
