# Generated by pormake.
# Topology rtl, (3,6)-cn, num edge types: 1
# Building blocks:
#     Node 0, Type 0, BuildingBlock: MIDCAF_clean_linker_0, # of connection points: 3
#     Node 1, Type 0, BuildingBlock: MIDCAF_clean_linker_0, # of connection points: 3
#     Node 2, Type 0, BuildingBlock: MIDCAF_clean_linker_0, # of connection points: 3
#     Node 3, Type 0, BuildingBlock: MIDCAF_clean_linker_0, # of connection points: 3
#     Node 4, Type 1, BuildingBlock: CIFDUS_clean_sbu_1, # of connection points: 6
#     Node 5, Type 1, BuildingBlock: CIFDUS_clean_sbu_1, # of connection points: 6
#     Edge 6, Type (0, 1), BuildingBlock: TEMPAE_clean_linker_10, # of connection points: 2
#     Edge 7, Type (0, 1), BuildingBlock: TEMPAE_clean_linker_10, # of connection points: 2
#     Edge 8, Type (0, 1), BuildingBlock: TEMPAE_clean_linker_10, # of connection points: 2
#     Edge 9, Type (0, 1), BuildingBlock: TEMPAE_clean_linker_10, # of connection points: 2
#     Edge 10, Type (0, 1), BuildingBlock: TEMPAE_clean_linker_10, # of connection points: 2
#     Edge 11, Type (0, 1), BuildingBlock: TEMPAE_clean_linker_10, # of connection points: 2
#     Edge 12, Type (0, 1), BuildingBlock: TEMPAE_clean_linker_10, # of connection points: 2
#     Edge 13, Type (0, 1), BuildingBlock: TEMPAE_clean_linker_10, # of connection points: 2
#     Edge 14, Type (0, 1), BuildingBlock: TEMPAE_clean_linker_10, # of connection points: 2
#     Edge 15, Type (0, 1), BuildingBlock: TEMPAE_clean_linker_10, # of connection points: 2
#     Edge 16, Type (0, 1), BuildingBlock: TEMPAE_clean_linker_10, # of connection points: 2
#     Edge 17, Type (0, 1), BuildingBlock: TEMPAE_clean_linker_10, # of connection points: 2
# Relax obj value: 0.029
# Max RMSD: 0.064
# Mean RMSD: 0.049
data_MOF--net-rtl--node1-CIFDUS_clean_sbu_1--node2-MIDCAF_clean_linker_0--edge1-TEMPAE_clean_linker_10
_symmetry_space_group_name_H-M    P1
_symmetry_Int_Tables_number       1
_symmetry_cell_setting            triclinic
loop_
_symmetry_equiv_pos_as_xyz
'x, y, z'
_cell_length_a     37.442279
_cell_length_b     42.639153
_cell_length_c     29.675253
_cell_angle_alpha  90.178315
_cell_angle_beta   98.012796
_cell_angle_gamma 89.926729
loop_
_atom_site_label
_atom_site_type_symbol
_atom_site_fract_x
_atom_site_fract_y
_atom_site_fract_z
_atom_type_partial_charge
C0 C 0.22106 0.95564 0.2103 0.0
C1 C 0.23583 0.94642 0.25451 0.0
C2 C 0.26631 0.92669 0.2596 0.0
C3 C 0.2809 0.91576 0.22149 0.0
H4 H 0.34193 0.84066 0.18069 0.0
H5 H 0.37401 0.79041 0.18473 0.0
H6 H 0.36709 0.78913 0.03834 0.0
H7 H 0.33516 0.83871 0.03397 0.0
H8 H 0.26986 0.87381 0.97867 0.0
H9 H 0.23937 0.88766 0.90427 0.0
H10 H 0.21754 0.98025 0.95413 0.0
H11 H 0.24611 0.96527 0.02996 0.0
H12 H 0.22312 0.95213 0.13889 0.0
H13 H 0.19722 0.97028 0.20474 0.0
H14 H 0.27881 0.91945 0.29305 0.0
H15 H 0.30396 0.90019 0.22674 0.0
N16 N 0.30216 0.88614 0.14076 0.0
N17 N 0.29932 0.88355 0.06147 0.0
N18 N 0.26637 0.922 0.09429 0.0
C19 C 0.31253 0.87233 0.10325 0.0
C20 C 0.27644 0.90837 0.05659 0.0
C21 C 0.27912 0.91107 0.13657 0.0
C22 C 0.33538 0.84364 0.10697 0.0
C23 C 0.34751 0.82978 0.14939 0.0
C24 C 0.36599 0.80104 0.15178 0.0
C25 C 0.37246 0.78554 0.11181 0.0
C26 C 0.36179 0.80012 0.0697 0.0
C27 C 0.34357 0.82874 0.06729 0.0
C28 C 0.26027 0.91836 0.0104 0.0
C29 C 0.25872 0.89721 0.97381 0.0
C30 C 0.24136 0.90533 0.93074 0.0
C31 C 0.22575 0.93519 0.92255 0.0
C32 C 0.22838 0.95678 0.95901 0.0
C33 C 0.24506 0.94832 1.00253 0.0
C34 C 0.26558 0.92448 0.17731 0.0
C35 C 0.23584 0.94499 0.17231 0.0
C36 C 0.68572 0.59071 0.45418 0.0
C37 C 0.69992 0.59931 0.41452 0.0
C38 C 0.73128 0.61791 0.41901 0.0
C39 C 0.74727 0.62844 0.46186 0.0
H40 H 0.82237 0.69287 0.52772 0.0
H41 H 0.85865 0.74019 0.53077 0.0
H42 H 0.83076 0.76133 0.66417 0.0
H43 H 0.79595 0.71306 0.66194 0.0
H44 H 0.75717 0.65753 0.7137 0.0
H45 H 0.73191 0.63711 0.77938 0.0
H46 H 0.68277 0.56088 0.69693 0.0
H47 H 0.70823 0.58075 0.63183 0.0
H48 H 0.68964 0.59423 0.52645 0.0
H49 H 0.66131 0.5769 0.45224 0.0
H50 H 0.74341 0.62451 0.38938 0.0
H51 H 0.77103 0.64312 0.46398 0.0
N52 N 0.77065 0.65788 0.55019 0.0
N53 N 0.77086 0.65899 0.62943 0.0
N54 N 0.73664 0.62133 0.58477 0.0
C55 C 0.7824 0.671 0.59147 0.0
C56 C 0.74817 0.63391 0.62633 0.0
C57 C 0.74765 0.63308 0.54656 0.0
C58 C 0.80602 0.69916 0.59449 0.0
C59 C 0.82415 0.7075 0.55787 0.0
C60 C 0.8448 0.7349 0.5595 0.0
C61 C 0.84746 0.7551 0.5975 0.0
C62 C 0.82986 0.74636 0.63451 0.0
C63 C 0.80963 0.71866 0.63315 0.0
C64 C 0.73468 0.62093 0.66727 0.0
C65 C 0.74126 0.63625 0.70968 0.0
C66 C 0.72665 0.62464 0.7473 0.0
C67 C 0.70534 0.59733 0.74347 0.0
C68 C 0.69947 0.58169 0.70134 0.0
C69 C 0.71389 0.59332 0.6638 0.0
C70 C 0.73253 0.62032 0.5013 0.0
C71 C 0.70193 0.60087 0.49693 0.0
C72 C 0.81472 0.08148 0.88799 0.0
C73 C 0.81393 0.09941 0.84826 0.0
C74 C 0.79766 0.12919 0.84645 0.0
C75 C 0.78269 0.14089 0.8838 0.0
H76 H 0.70296 0.20267 0.92211 0.0
H77 H 0.66348 0.24841 0.91715 0.0
H78 H 0.67446 0.25266 0.06395 0.0
H79 H 0.71273 0.20656 0.06892 0.0
H80 H 0.76681 0.16282 0.12832 0.0
H81 H 0.79659 0.1457 0.20256 0.0
H82 H 0.8445 0.06804 0.13904 0.0
H83 H 0.81481 0.08492 0.06473 0.0
H84 H 0.80196 0.0791 0.95593 0.0
H85 H 0.82744 0.05859 0.89049 0.0
H86 H 0.79664 0.14346 0.81616 0.0
H87 H 0.77073 0.16408 0.88155 0.0
N88 N 0.74752 0.161 0.96149 0.0
N89 N 0.74941 0.16165 0.04088 0.0
N90 N 0.78339 0.12466 0.00666 0.0
C91 C 0.73638 0.17362 0.99938 0.0
C92 C 0.77287 0.13716 0.04483 0.0
C93 C 0.77094 0.1364 0.96491 0.0
C94 C 0.71128 0.20087 0.99592 0.0
C95 C 0.69676 0.21322 0.95335 0.0
C96 C 0.67421 0.23961 0.95049 0.0
C97 C 0.6657 0.25441 0.99011 0.0
C98 C 0.67981 0.2417 0.03261 0.0
C99 C 0.70214 0.21528 0.03547 0.0
C100 C 0.78857 0.12541 0.09037 0.0
C101 C 0.78342 0.14193 0.13008 0.0
C102 C 0.80061 0.13226 0.17263 0.0
C103 C 0.823 0.10567 0.1765 0.0
C104 C 0.82721 0.08852 0.13709 0.0
C105 C 0.81031 0.09833 0.09448 0.0
C106 C 0.7843 0.12327 0.92402 0.0
C107 C 0.80031 0.09335 0.92555 0.0
C108 C 0.30759 0.4442 0.62991 0.0
C109 C 0.29269 0.43475 0.66871 0.0
C110 C 0.26018 0.41772 0.66248 0.0
C111 C 0.24393 0.40917 0.61885 0.0
H112 H 0.18491 0.33699 0.55743 0.0
H113 H 0.15235 0.28773 0.5535 0.0
H114 H 0.15042 0.2853 0.40772 0.0
H115 H 0.18289 0.33522 0.41136 0.0
H116 H 0.23889 0.38247 0.36845 0.0
H117 H 0.26522 0.40341 0.30417 0.0
H118 H 0.30139 0.48528 0.38376 0.0
H119 H 0.27612 0.46398 0.44831 0.0
H120 H 0.30391 0.44304 0.55735 0.0
H121 H 0.33279 0.45699 0.63315 0.0
H122 H 0.24735 0.41069 0.69137 0.0
H123 H 0.21935 0.39548 0.61546 0.0
N124 N 0.22174 0.38124 0.52986 0.0
N125 N 0.22038 0.38208 0.45057 0.0
N126 N 0.25453 0.4193 0.49648 0.0
C127 C 0.20965 0.3689 0.48822 0.0
C128 C 0.24263 0.40751 0.45445 0.0
C129 C 0.24418 0.40637 0.53434 0.0
C130 C 0.18706 0.34006 0.48476 0.0
C131 C 0.17749 0.32622 0.52436 0.0
C132 C 0.15893 0.29777 0.52219 0.0
C133 C 0.14935 0.28226 0.48039 0.0
C134 C 0.15746 0.29664 0.44046 0.0
C135 C 0.17621 0.32521 0.44261 0.0
C136 C 0.25565 0.42135 0.4138 0.0
C137 C 0.25216 0.40507 0.37213 0.0
C138 C 0.26711 0.4172 0.33511 0.0
C139 C 0.28566 0.44601 0.33874 0.0
C140 C 0.28793 0.46277 0.37993 0.0
C141 C 0.27326 0.45056 0.41697 0.0
C142 C 0.25949 0.41783 0.58026 0.0
C143 C 0.29108 0.43604 0.58626 0.0
O144 O 0.98043 0.02978 0.49623 0.0
Mn145 Mn 0.01703 0.01107 0.54894 0.0
O146 O 0.97802 0.99358 0.44177 0.0
Mn147 Mn 0.99705 0.96109 0.47839 0.0
O148 O 0.05472 0.99213 0.60278 0.0
O149 O 0.03485 0.05729 0.558 0.0
Mn150 Mn 0.04259 0.05819 0.61847 0.0
O151 O 0.97763 0.01754 0.59255 0.0
O152 O 0.08027 0.03337 0.64043 0.0
O153 O 0.05641 0.00325 0.50383 0.0
O154 O 0.0446 0.95501 0.47462 0.0
O155 O 0.05446 0.09692 0.60507 0.0
O156 O 0.00101 0.05315 0.64381 0.0
C157 C 0.97017 0.94791 0.53409 0.0
C158 C 0.97096 0.02071 0.45526 0.0
C159 C 0.07914 0.0043 0.63261 0.0
C160 C 0.04613 0.08653 0.5638 0.0
C161 C 0.97594 0.03463 0.62792 0.0
C162 C 0.06483 0.97905 0.48073 0.0
O163 O 0.99862 0.9659 0.53836 0.0
O164 O 0.96218 0.93562 0.49404 0.0
O165 O 0.53645 0.53266 0.09185 0.0
Mn166 Mn 0.49967 0.51217 0.04091 0.0
O167 O 0.53868 0.49822 0.14787 0.0
Mn168 Mn 0.5201 0.4655 0.11104 0.0
O169 O 0.46296 0.49086 0.98825 0.0
O170 O 0.47921 0.5575 0.03174 0.0
Mn171 Mn 0.46635 0.55598 0.97185 0.0
O172 O 0.53704 0.52062 0.99538 0.0
O173 O 0.42867 0.52942 0.95662 0.0
O174 O 0.46039 0.50362 0.08623 0.0
O175 O 0.47371 0.45629 0.11579 0.0
O176 O 0.45405 0.5949 0.98451 0.0
O177 O 0.50596 0.55077 0.94194 0.0
C178 C 0.55048 0.45034 0.06146 0.0
C179 C 0.54653 0.5246 0.13298 0.0
C180 C 0.4347 0.50059 0.96243 0.0
C181 C 0.46621 0.58615 0.02564 0.0
C182 C 0.53427 0.53568 0.95752 0.0
C183 C 0.45191 0.47902 0.10813 0.0
O184 O 0.52129 0.4674 0.05089 0.0
O185 O 0.55594 0.4395 0.10262 0.0
C186 C 0.10269 0.24295 0.44657 0.0
C187 C 0.13216 0.25071 0.47932 0.0
C188 C 0.08505 0.21385 0.44781 0.0
C189 C 0.09701 0.19215 0.48277 0.0
C190 C 0.12771 0.19943 0.51469 0.0
C191 C 0.14494 0.22843 0.51236 0.0
C192 C 0.05275 0.20688 0.41286 0.0
C193 C 0.1414 0.17727 0.55288 0.0
C194 C 0.03356 0.13957 0.53561 0.0
C195 C 0.04724 0.10977 0.52737 0.0
C196 C 0.04785 0.16668 0.51867 0.0
C197 C 0.07513 0.16388 0.49037 0.0
C198 C 0.08514 0.13361 0.47634 0.0
C199 C 0.07159 0.1067 0.49585 0.0
C200 C 0.03716 0.19815 0.53625 0.0
C201 C 0.11257 0.12974 0.44407 0.0
H202 H 0.09263 0.26003 0.42091 0.0
H203 H 0.16824 0.23393 0.53708 0.0
H204 H 0.05414 0.18254 0.39984 0.0
H205 H 0.02775 0.20881 0.4288 0.0
H206 H 0.05063 0.2234 0.38375 0.0
H207 H 0.16622 0.18608 0.57401 0.0
H208 H 0.12031 0.17384 0.57524 0.0
H209 H 0.14737 0.15399 0.53895 0.0
H210 H 0.01483 0.14191 0.56023 0.0
H211 H 0.08251 0.08376 0.48971 0.0
H212 H 0.03102 0.21512 0.50804 0.0
H213 H 0.06 0.20781 0.56012 0.0
H214 H 0.01331 0.19645 0.55458 0.0
H215 H 0.10705 0.14647 0.41536 0.0
H216 H 0.11265 0.10549 0.43028 0.0
H217 H 0.13989 0.13499 0.46211 0.0
C218 C 0.41982 0.74627 0.1434 0.0
C219 C 0.38875 0.75365 0.11312 0.0
C220 C 0.43677 0.71685 0.14158 0.0
C221 C 0.42233 0.69444 0.10864 0.0
C222 C 0.38993 0.70133 0.07959 0.0
C223 C 0.37356 0.73071 0.08236 0.0
C224 C 0.47097 0.7103 0.17343 0.0
C225 C 0.37351 0.67838 0.04369 0.0
C226 C 0.48023 0.64001 0.04948 0.0
C227 C 0.46765 0.61057 0.06106 0.0
C228 C 0.46769 0.66765 0.06736 0.0
C229 C 0.44319 0.6658 0.0995 0.0
C230 C 0.43442 0.63599 0.11617 0.0
C231 C 0.44629 0.6085 0.09607 0.0
C232 C 0.47694 0.6986 0.04714 0.0
C233 C 0.40987 0.63317 0.15213 0.0
H234 H 0.43166 0.7639 0.16731 0.0
H235 H 0.34907 0.73603 0.05961 0.0
H236 H 0.47022 0.68643 0.18804 0.0
H237 H 0.49439 0.71121 0.15435 0.0
H238 H 0.47542 0.72767 0.20163 0.0
H239 H 0.34739 0.6868 0.02531 0.0
H240 H 0.39237 0.67444 0.01849 0.0
H241 H 0.36897 0.65541 0.05935 0.0
H242 H 0.49657 0.64156 0.0221 0.0
H243 H 0.43618 0.5858 0.10474 0.0
H244 H 0.48521 0.71612 0.07422 0.0
H245 H 0.45271 0.70797 0.02551 0.0
H246 H 0.49893 0.69623 0.02579 0.0
H247 H 0.41803 0.65005 0.18021 0.0
H248 H 0.41012 0.60908 0.16635 0.0
H249 H 0.38183 0.63901 0.13726 0.0
C250 C 0.86766 0.80257 0.55747 0.0
C251 C 0.86767 0.78545 0.59785 0.0
C252 C 0.88673 0.83087 0.55681 0.0
C253 C 0.90568 0.84309 0.59779 0.0
C254 C 0.90529 0.82637 0.63885 0.0
C255 C 0.88667 0.79766 0.63834 0.0
C256 C 0.88676 0.84756 0.51197 0.0
C257 C 0.9244 0.83893 0.68336 0.0
C258 C 0.98012 0.89935 0.57736 0.0
C259 C 0.96099 0.92767 0.57087 0.0
C260 C 0.96313 0.87174 0.58901 0.0
C261 C 0.92667 0.87287 0.59677 0.0
C262 C 0.909 0.90232 0.59665 0.0
C263 C 0.9261 0.9293 0.58265 0.0
C264 C 0.98278 0.84092 0.58703 0.0
C265 C 0.87071 0.90489 0.6067 0.0
H266 H 0.85243 0.79402 0.52613 0.0
H267 H 0.88736 0.78465 0.66973 0.0
H268 H 0.87405 0.87098 0.51335 0.0
H269 H 0.9149 0.85128 0.50534 0.0
H270 H 0.87199 0.83428 0.48292 0.0
H271 H 0.92143 0.82323 0.71242 0.0
H272 H 0.95354 0.842 0.68136 0.0
H273 H 0.91342 0.86237 0.69025 0.0
H274 H 0.00673 0.89782 0.56698 0.0
H275 H 0.91093 0.95093 0.57677 0.0
H276 H 0.97141 0.82805 0.55571 0.0
H277 H 0.97908 0.82592 0.61646 0.0
H278 H 0.01212 0.84428 0.58638 0.0
H279 H 0.85189 0.89759 0.57626 0.0
H280 H 0.86394 0.92933 0.61547 0.0
H281 H 0.86622 0.88922 0.63517 0.0
C282 C 0.6481 0.30711 0.95553 0.0
C283 C 0.64361 0.28376 0.98758 0.0
C284 C 0.63039 0.33621 0.95604 0.0
C285 C 0.60813 0.34243 0.98986 0.0
C286 C 0.60203 0.31839 0.02081 0.0
C287 C 0.61956 0.28935 0.01903 0.0
C288 C 0.63718 0.36091 0.92196 0.0
C289 C 0.57865 0.3239 0.05766 0.0
C290 C 0.60372 0.42343 0.0412 0.0
C291 C 0.5674 0.43145 0.02844 0.0
C292 C 0.61785 0.39527 0.02681 0.0
C293 C 0.59545 0.37505 0.99735 0.0
C294 C 0.56 0.38489 0.97982 0.0
C295 C 0.54617 0.41295 0.99597 0.0
C296 C 0.65547 0.38563 0.04733 0.0
C297 C 0.53572 0.36453 0.94709 0.0
H298 H 0.66672 0.30327 0.93121 0.0
H299 H 0.6151 0.27125 0.04318 0.0
H300 H 0.61166 0.37286 0.90816 0.0
H301 H 0.65569 0.37898 0.939 0.0
H302 H 0.64959 0.35084 0.89325 0.0
H303 H 0.57456 0.30218 0.07689 0.0
H304 H 0.59142 0.34179 0.08195 0.0
H305 H 0.5519 0.33311 0.04278 0.0
H306 H 0.62 0.4375 0.06681 0.0
H307 H 0.5179 0.41872 0.98659 0.0
H308 H 0.67128 0.37778 0.02045 0.0
H309 H 0.65384 0.36554 0.07068 0.0
H310 H 0.67031 0.40497 0.06688 0.0
H311 H 0.55056 0.35532 0.92 0.0
H312 H 0.51153 0.37752 0.93105 0.0
H313 H 0.5266 0.34409 0.9655 0.0
C314 C 0.2153 0.93468 0.32997 0.0
C315 C 0.21813 0.95596 0.29459 0.0
C316 C 0.19508 0.94195 0.36511 0.0
C317 C 0.17671 0.97104 0.36469 0.0
C318 C 0.18103 0.99328 0.33056 0.0
C319 C 0.20185 0.98558 0.29618 0.0
C320 C 0.19127 0.91752 0.40085 0.0
C321 C 0.16168 0.02443 0.32859 0.0
C322 C 0.0864 0.96731 0.40762 0.0
C323 C 0.09371 0.9805 0.45136 0.0
C324 C 0.11298 0.96478 0.37917 0.0
C325 C 0.14819 0.97573 0.39455 0.0
C326 C 0.15568 0.99015 0.43809 0.0
C327 C 0.12815 0.99256 0.46608 0.0
C328 C 0.1034 0.9496 0.33292 0.0
C329 C 0.19298 0.00191 0.45565 0.0
H330 H 0.22735 0.91161 0.32909 0.0
H331 H 0.20449 0.00254 0.26973 0.0
H332 H 0.19423 0.92836 0.43519 0.0
H333 H 0.16396 0.90697 0.39426 0.0
H334 H 0.21151 0.89845 0.40083 0.0
H335 H 0.17096 0.04051 0.30323 0.0
H336 H 0.13227 0.02057 0.31921 0.0
H337 H 0.16572 0.03601 0.36244 0.0
H338 H 0.05959 0.95848 0.39562 0.0
H339 H 0.13389 0.00272 0.49984 0.0
H340 H 0.11945 0.92786 0.33103 0.0
H341 H 0.11008 0.96557 0.30588 0.0
H342 H 0.07435 0.94344 0.32551 0.0
H343 H 0.21154 0.98165 0.46255 0.0
H344 H 0.19349 0.01576 0.48751 0.0
H345 H 0.2035 0.01665 0.4297 0.0
C346 C 0.67038 0.60709 0.80846 0.0
C347 C 0.68758 0.58592 0.78227 0.0
C348 C 0.64979 0.59645 0.84148 0.0
C349 C 0.64632 0.56381 0.84866 0.0
C350 C 0.66524 0.54239 0.8241 0.0
C351 C 0.68555 0.55368 0.79117 0.0
C352 C 0.62997 0.62012 0.86674 0.0
C353 C 0.66247 0.50746 0.83084 0.0
C354 C 0.60052 0.53971 0.95065 0.0
C355 C 0.56452 0.53718 0.93027 0.0
C356 C 0.62796 0.5473 0.92437 0.0
C357 C 0.61904 0.5522 0.87684 0.0
C358 C 0.58303 0.54784 0.85602 0.0
C359 C 0.55637 0.54042 0.88292 0.0
C360 C 0.66608 0.55159 0.94769 0.0
C361 C 0.57217 0.55258 0.80551 0.0
H362 H 0.67151 0.632 0.8016 0.0
H363 H 0.69925 0.53718 0.77162 0.0
H364 H 0.6005 0.61782 0.8559 0.0
H365 H 0.63508 0.61562 0.90387 0.0
H366 H 0.63802 0.6446 0.86037 0.0
H367 H 0.68208 0.49418 0.81331 0.0
H368 H 0.66711 0.50166 0.86761 0.0
H369 H 0.63487 0.49944 0.81725 0.0
H370 H 0.60691 0.53746 0.98726 0.0
H371 H 0.52862 0.53822 0.86692 0.0
H372 H 0.67365 0.5767 0.94676 0.0
H373 H 0.68519 0.53825 0.92951 0.0
H374 H 0.66936 0.54388 0.98376 0.0
H375 H 0.57615 0.57751 0.79679 0.0
H376 H 0.54352 0.54632 0.79425 0.0
H377 H 0.5894 0.53819 0.78596 0.0
C378 C 0.84401 0.06519 0.23528 0.0
C379 C 0.8431 0.09656 0.22121 0.0
C380 C 0.86436 0.05608 0.2765 0.0
C381 C 0.88465 0.07884 0.30401 0.0
C382 C 0.88348 0.1106 0.29021 0.0
C383 C 0.86253 0.11911 0.24908 0.0
C384 C 0.86475 0.02197 0.29014 0.0
C385 C 0.9054 0.13537 0.31802 0.0
C386 C 0.9181 0.05421 0.42583 0.0
C387 C 0.9519 0.04175 0.42084 0.0
C388 C 0.89624 0.06763 0.38837 0.0
C389 C 0.90893 0.06887 0.34553 0.0
C390 C 0.94415 0.05822 0.34148 0.0
C391 C 0.96503 0.04452 0.37909 0.0
C392 C 0.85874 0.07855 0.39384 0.0
C393 C 0.95905 0.05947 0.29676 0.0
H394 H 0.8288 0.04776 0.21395 0.0
H395 H 0.86227 0.14332 0.23797 0.0
H396 H 0.89232 0.01225 0.29084 0.0
H397 H 0.85743 0.01967 0.32494 0.0
H398 H 0.84581 0.00759 0.2664 0.0
H399 H 0.89983 0.1593 0.30406 0.0
H400 H 0.8997 0.13497 0.35371 0.0
H401 H 0.93457 0.13031 0.3188 0.0
H402 H 0.90783 0.05155 0.45801 0.0
H403 H 0.9912 0.03467 0.37539 0.0
H404 H 0.83865 0.06252 0.37482 0.0
H405 H 0.85368 0.10233 0.37927 0.0
H406 H 0.85428 0.07902 0.43007 0.0
H407 H 0.94481 0.04209 0.27281 0.0
H408 H 0.98838 0.05416 0.30087 0.0
H409 H 0.95453 0.08295 0.28098 0.0
C410 C 0.33078 0.46967 0.72481 0.0
C411 C 0.31178 0.44149 0.71537 0.0
C412 C 0.35036 0.47555 0.76792 0.0
C413 C 0.35065 0.4529 0.80283 0.0
C414 C 0.33097 0.42475 0.79392 0.0
C415 C 0.31205 0.41927 0.75031 0.0
C416 C 0.37089 0.50598 0.77601 0.0
C417 C 0.33005 0.40034 0.83046 0.0
C418 C 0.42806 0.46104 0.90003 0.0
C419 C 0.4121 0.47979 0.93053 0.0
C420 C 0.40788 0.45068 0.85908 0.0
C421 C 0.37097 0.45913 0.84888 0.0
C422 C 0.3542 0.47585 0.88146 0.0
C423 C 0.375 0.48603 0.92178 0.0
C424 C 0.42676 0.43296 0.82515 0.0
C425 C 0.31499 0.48534 0.87219 0.0
H426 H 0.33029 0.48729 0.6985 0.0
H427 H 0.29801 0.39721 0.74343 0.0
H428 H 0.36181 0.51894 0.80485 0.0
H429 H 0.40007 0.50101 0.78541 0.0
H430 H 0.36737 0.52139 0.74559 0.0
H431 H 0.31277 0.37999 0.81844 0.0
H432 H 0.35777 0.39176 0.84215 0.0
H433 H 0.31977 0.41089 0.86038 0.0
H434 H 0.45691 0.45689 0.90615 0.0
H435 H 0.3628 0.50099 0.94506 0.0
H436 H 0.42922 0.44827 0.79556 0.0
H437 H 0.4108 0.41211 0.81219 0.0
H438 H 0.4542 0.4252 0.84007 0.0
H439 H 0.31162 0.504 0.84595 0.0
H440 H 0.30491 0.49443 0.90322 0.0
H441 H 0.29797 0.46522 0.85873 0.0
C442 C 0.67854 0.61086 0.33198 0.0
C443 C 0.68102 0.58997 0.36881 0.0
C444 C 0.65863 0.60322 0.28968 0.0
C445 C 0.64027 0.57419 0.28415 0.0
C446 C 0.64328 0.55269 0.32077 0.0
C447 C 0.66384 0.56071 0.36243 0.0
C448 C 0.65645 0.62655 0.25125 0.0
C449 C 0.62421 0.5214 0.31627 0.0
C450 C 0.55704 0.56245 0.19678 0.0
C451 C 0.57094 0.54425 0.16401 0.0
C452 C 0.57974 0.57391 0.23496 0.0
C453 C 0.61702 0.56647 0.2406 0.0
C454 C 0.63135 0.54936 0.20626 0.0
C455 C 0.60804 0.53839 0.16833 0.0
C456 C 0.56338 0.59206 0.27076 0.0
C457 C 0.67084 0.5408 0.21103 0.0
H458 H 0.69126 0.63367 0.33649 0.0
H459 H 0.6662 0.54406 0.39019 0.0
H460 H 0.6638 0.61513 0.22017 0.0
H461 H 0.62832 0.63513 0.24295 0.0
H462 H 0.67447 0.64701 0.25986 0.0
H463 H 0.62964 0.50718 0.3478 0.0
H464 H 0.59467 0.52508 0.30826 0.0
H465 H 0.63283 0.50779 0.28774 0.0
H466 H 0.52815 0.56614 0.19387 0.0
H467 H 0.61845 0.52348 0.14347 0.0
H468 H 0.57907 0.61373 0.28014 0.0
H469 H 0.56439 0.57763 0.30197 0.0
H470 H 0.53486 0.5986 0.25916 0.0
H471 H 0.68781 0.56187 0.21954 0.0
H472 H 0.67827 0.53 0.1795 0.0
H473 H 0.67729 0.5239 0.23936 0.0
C474 C 0.85658 0.10629 0.79128 0.0
C475 C 0.8316 0.08754 0.80978 0.0
C476 C 0.87599 0.09449 0.75771 0.0
C477 C 0.86981 0.06334 0.74166 0.0
C478 C 0.8435 0.04476 0.75889 0.0
C479 C 0.82496 0.05698 0.7931 0.0
C480 C 0.90422 0.11495 0.74086 0.0
C481 C 0.83578 0.01167 0.74222 0.0
C482 C 0.91126 0.04525 0.63431 0.0
C483 C 0.94486 0.03329 0.65319 0.0
C484 C 0.88529 0.05339 0.66247 0.0
C485 C 0.89345 0.0495 0.71027 0.0
C486 C 0.92637 0.03518 0.72875 0.0
C487 C 0.95165 0.02736 0.69996 0.0
C488 C 0.85036 0.06829 0.64148 0.0
C489 C 0.93637 0.03062 0.77939 0.0
H490 H 0.862 0.12981 0.80443 0.0
H491 H 0.80542 0.04254 0.80713 0.0
H492 H 0.93124 0.10411 0.7497 0.0
H493 H 0.89897 0.1169 0.70326 0.0
H494 H 0.90495 0.13892 0.75574 0.0
H495 H 0.81224 0.00138 0.75583 0.0
H496 H 0.83054 0.01116 0.70448 0.0
H497 H 0.85968 0.99665 0.75276 0.0
H498 H 0.90635 0.05043 0.59823 0.0
H499 H 0.97791 0.01849 0.71447 0.0
H500 H 0.85096 0.09373 0.64953 0.0
H501 H 0.82724 0.058 0.6559 0.0
H502 H 0.84576 0.06544 0.6039 0.0
H503 H 0.94144 0.05381 0.79614 0.0
H504 H 0.96096 0.01598 0.78767 0.0
H505 H 0.91395 0.01941 0.79413 0.0
C506 C 0.28901 0.45381 0.25519 0.0
C507 C 0.30444 0.4576 0.30079 0.0
C508 C 0.30814 0.46184 0.21931 0.0
C509 C 0.34366 0.4738 0.22917 0.0
C510 C 0.3586 0.47925 0.27506 0.0
C511 C 0.33889 0.47107 0.31019 0.0
C512 C 0.29111 0.45581 0.17094 0.0
C513 C 0.39652 0.49158 0.28731 0.0
C514 C 0.41197 0.44953 0.15316 0.0
C515 C 0.41959 0.47785 0.13224 0.0
C516 C 0.3869 0.44797 0.1838 0.0
C517 C 0.36748 0.47517 0.19284 0.0
C518 C 0.37292 0.50343 0.16951 0.0
C519 C 0.39923 0.50457 0.13967 0.0
C520 C 0.38284 0.41747 0.2085 0.0
C521 C 0.35173 0.53259 0.17718 0.0
H522 H 0.26217 0.44398 0.24748 0.0
H523 H 0.35134 0.47379 0.3452 0.0
H524 H 0.29559 0.476 0.14892 0.0
H525 H 0.30387 0.43497 0.15735 0.0
H526 H 0.26167 0.45139 0.1685 0.0
H527 H 0.4026 0.49798 0.3239 0.0
H528 H 0.41607 0.47338 0.27973 0.0
H529 H 0.40081 0.5125 0.26661 0.0
H530 H 0.42699 0.4285 0.14732 0.0
H531 H 0.40473 0.5265 0.12362 0.0
H532 H 0.35426 0.40985 0.20342 0.0
H533 H 0.39099 0.42088 0.2456 0.0
H534 H 0.39953 0.3983 0.19687 0.0
H535 H 0.32244 0.52774 0.16881 0.0
H536 H 0.35878 0.5526 0.15621 0.0
H537 H 0.35674 0.53952 0.21357 0.0
C538 C 0.17575 0.96308 0.87219 0.0
C539 C 0.20593 0.94312 0.87659 0.0
C540 C 0.15637 0.96997 0.82933 0.0
C541 C 0.16645 0.95567 0.78982 0.0
C542 C 0.19659 0.93536 0.79388 0.0
C543 C 0.21635 0.92986 0.83693 0.0
C544 C 0.12514 0.99268 0.82643 0.0
C545 C 0.20809 0.9195 0.75265 0.0
C546 C 0.09379 0.95911 0.68608 0.0
C547 C 0.10496 0.98545 0.6637 0.0
C548 C 0.1147 0.94784 0.72601 0.0
C549 C 0.14691 0.9637 0.74402 0.0
C550 C 0.15931 0.98894 0.71965 0.0
C551 C 0.13852 0.99907 0.6795 0.0
C552 C 0.10118 0.92026 0.75047 0.0
C553 C 0.19275 0.00727 0.73802 0.0
H554 H 0.16682 0.97313 0.90227 0.0
H555 H 0.24012 0.91514 0.8393 0.0
H556 H 0.12818 0.01132 0.80123 0.0
H557 H 0.09958 0.98016 0.81468 0.0
H558 H 0.12286 0.00396 0.85971 0.0
H559 H 0.23051 0.90261 0.76189 0.0
H560 H 0.18489 0.90683 0.73347 0.0
H561 H 0.21697 0.93731 0.72944 0.0
H562 H 0.06767 0.94879 0.67443 0.0
H563 H 0.14718 0.01954 0.66228 0.0
H564 H 0.09087 0.92857 0.78169 0.0
H565 H 0.12348 0.90355 0.76114 0.0
H566 H 0.07908 0.90766 0.72892 0.0
H567 H 0.1877 0.02046 0.76882 0.0
H568 H 0.20056 0.02427 0.71283 0.0
H569 H 0.21583 0.99134 0.74829 0.0
loop_
_geom_bond_atom_site_label_1
_geom_bond_atom_site_label_2
_geom_bond_distance
_geom_bond_site_symmetry_2
_ccdc_geom_bond_type
C0 C1 1.384 . S
C0 H13 0.947 . S
C0 C35 1.382 . S
C1 C0 1.384 . S
C1 C2 1.378 . S
C2 C1 1.378 . S
C2 C3 1.378 . S
C2 H14 0.952 . S
C3 C2 1.378 . S
C3 H15 0.950 . S
C3 C34 1.383 . S
H4 C23 0.947 . S
H5 C24 0.946 . S
H6 C26 0.953 . S
H7 C27 0.945 . S
H8 C29 0.952 . S
H9 C30 0.949 . S
H10 C32 0.950 . S
H11 C33 0.948 . S
H12 C35 0.951 . S
H13 C0 0.947 . S
H14 C2 0.952 . S
H15 C3 0.950 . S
N16 C19 1.382 . S
N16 C21 1.363 . S
N17 C19 1.371 . S
N17 C20 1.372 . S
N18 C20 1.361 . S
N18 C21 1.377 . S
C19 N16 1.382 . S
C19 N17 1.371 . S
C19 C22 1.480 . S
C20 N17 1.372 . S
C20 N18 1.361 . S
C20 C28 1.457 . S
C21 N16 1.363 . S
C21 N18 1.377 . S
C21 C34 1.479 . S
C22 C19 1.480 . S
C22 C23 1.383 . S
C22 C27 1.385 . S
C23 H4 0.947 . S
C23 C22 1.383 . S
C23 C24 1.388 . S
C24 H5 0.946 . S
C24 C23 1.388 . S
C24 C25 1.384 . S
C25 C24 1.384 . S
C25 C26 1.377 . S
C26 H6 0.953 . S
C26 C25 1.377 . S
C26 C27 1.369 . S
C27 H7 0.945 . S
C27 C22 1.385 . S
C27 C26 1.369 . S
C28 C20 1.457 . S
C28 C29 1.372 1_554 S
C28 C33 1.364 . S
C29 H8 0.952 . S
C29 C28 1.372 1_556 S
C29 C30 1.389 . S
C30 H9 0.949 . S
C30 C29 1.389 . S
C30 C31 1.387 . S
C31 C30 1.387 . S
C31 C32 1.372 . S
C32 H10 0.950 . S
C32 C31 1.372 . S
C32 C33 1.379 1_556 S
C33 H11 0.948 . S
C33 C28 1.364 . S
C33 C32 1.379 1_554 S
C34 C3 1.383 . S
C34 C21 1.479 . S
C34 C35 1.398 . S
C35 C0 1.382 . S
C35 H12 0.951 . S
C35 C34 1.398 . S
C36 C37 1.384 . S
C36 H49 0.947 . S
C36 C71 1.382 . S
C37 C36 1.384 . S
C37 C38 1.378 . S
C38 C37 1.378 . S
C38 C39 1.378 . S
C38 H50 0.952 . S
C39 C38 1.378 . S
C39 H51 0.950 . S
C39 C70 1.383 . S
H40 C59 0.947 . S
H41 C60 0.946 . S
H42 C62 0.953 . S
H43 C63 0.945 . S
H44 C65 0.952 . S
H45 C66 0.949 . S
H46 C68 0.950 . S
H47 C69 0.948 . S
H48 C71 0.951 . S
H49 C36 0.947 . S
H50 C38 0.952 . S
H51 C39 0.950 . S
N52 C55 1.382 . S
N52 C57 1.363 . S
N53 C55 1.371 . S
N53 C56 1.372 . S
N54 C56 1.361 . S
N54 C57 1.377 . S
C55 N52 1.382 . S
C55 N53 1.371 . S
C55 C58 1.480 . S
C56 N53 1.372 . S
C56 N54 1.361 . S
C56 C64 1.457 . S
C57 N52 1.363 . S
C57 N54 1.377 . S
C57 C70 1.479 . S
C58 C55 1.480 . S
C58 C59 1.383 . S
C58 C63 1.385 . S
C59 H40 0.947 . S
C59 C58 1.383 . S
C59 C60 1.388 . S
C60 H41 0.946 . S
C60 C59 1.388 . S
C60 C61 1.384 . S
C61 C60 1.384 . S
C61 C62 1.377 . S
C62 H42 0.953 . S
C62 C61 1.377 . S
C62 C63 1.369 . S
C63 H43 0.945 . S
C63 C58 1.385 . S
C63 C62 1.369 . S
C64 C56 1.457 . S
C64 C65 1.372 . S
C64 C69 1.364 . S
C65 H44 0.952 . S
C65 C64 1.372 . S
C65 C66 1.389 . S
C66 H45 0.949 . S
C66 C65 1.389 . S
C66 C67 1.387 . S
C67 C66 1.387 . S
C67 C68 1.372 . S
C68 H46 0.950 . S
C68 C67 1.372 . S
C68 C69 1.379 . S
C69 H47 0.948 . S
C69 C64 1.364 . S
C69 C68 1.379 . S
C70 C39 1.383 . S
C70 C57 1.479 . S
C70 C71 1.398 . S
C71 C36 1.382 . S
C71 H48 0.951 . S
C71 C70 1.398 . S
C72 C73 1.384 . S
C72 H85 0.947 . S
C72 C107 1.382 . S
C73 C72 1.384 . S
C73 C74 1.378 . S
C74 C73 1.378 . S
C74 C75 1.378 . S
C74 H86 0.952 . S
C75 C74 1.378 . S
C75 H87 0.950 . S
C75 C106 1.383 . S
H76 C95 0.947 . S
H77 C96 0.946 . S
H78 C98 0.953 . S
H79 C99 0.945 . S
H80 C101 0.952 . S
H81 C102 0.949 . S
H82 C104 0.950 . S
H83 C105 0.948 . S
H84 C107 0.951 . S
H85 C72 0.947 . S
H86 C74 0.952 . S
H87 C75 0.950 . S
N88 C91 1.382 1_556 S
N88 C93 1.363 . S
N89 C91 1.371 . S
N89 C92 1.372 . S
N90 C92 1.361 . S
N90 C93 1.377 1_554 S
C91 N88 1.382 1_554 S
C91 N89 1.371 . S
C91 C94 1.480 . S
C92 N89 1.372 . S
C92 N90 1.361 . S
C92 C100 1.457 . S
C93 N88 1.363 . S
C93 N90 1.377 1_556 S
C93 C106 1.479 . S
C94 C91 1.480 . S
C94 C95 1.384 1_554 S
C94 C99 1.384 . S
C95 H76 0.947 . S
C95 C94 1.384 1_556 S
C95 C96 1.388 . S
C96 H77 0.946 . S
C96 C95 1.388 . S
C96 C97 1.384 . S
C97 C96 1.384 . S
C97 C98 1.377 1_556 S
C98 H78 0.953 . S
C98 C97 1.377 1_554 S
C98 C99 1.369 . S
C99 H79 0.945 . S
C99 C94 1.384 . S
C99 C98 1.369 . S
C100 C92 1.457 . S
C100 C101 1.372 . S
C100 C105 1.364 . S
C101 H80 0.952 . S
C101 C100 1.372 . S
C101 C102 1.389 . S
C102 H81 0.949 . S
C102 C101 1.389 . S
C102 C103 1.387 . S
C103 C102 1.387 . S
C103 C104 1.372 . S
C104 H82 0.950 . S
C104 C103 1.372 . S
C104 C105 1.379 . S
C105 H83 0.948 . S
C105 C100 1.364 . S
C105 C104 1.379 . S
C106 C75 1.383 . S
C106 C93 1.479 . S
C106 C107 1.398 . S
C107 C72 1.382 . S
C107 H84 0.951 . S
C107 C106 1.398 . S
C108 C109 1.384 . S
C108 H121 0.947 . S
C108 C143 1.382 . S
C109 C108 1.384 . S
C109 C110 1.378 . S
C110 C109 1.378 . S
C110 C111 1.378 . S
C110 H122 0.952 . S
C111 C110 1.378 . S
C111 H123 0.950 . S
C111 C142 1.383 . S
H112 C131 0.947 . S
H113 C132 0.946 . S
H114 C134 0.953 . S
H115 C135 0.945 . S
H116 C137 0.952 . S
H117 C138 0.949 . S
H118 C140 0.950 . S
H119 C141 0.948 . S
H120 C143 0.951 . S
H121 C108 0.947 . S
H122 C110 0.952 . S
H123 C111 0.950 . S
N124 C127 1.382 . S
N124 C129 1.363 . S
N125 C127 1.371 . S
N125 C128 1.372 . S
N126 C128 1.361 . S
N126 C129 1.377 . S
C127 N124 1.382 . S
C127 N125 1.371 . S
C127 C130 1.480 . S
C128 N125 1.372 . S
C128 N126 1.361 . S
C128 C136 1.457 . S
C129 N124 1.363 . S
C129 N126 1.377 . S
C129 C142 1.479 . S
C130 C127 1.480 . S
C130 C131 1.383 . S
C130 C135 1.385 . S
C131 H112 0.947 . S
C131 C130 1.383 . S
C131 C132 1.388 . S
C132 H113 0.946 . S
C132 C131 1.388 . S
C132 C133 1.384 . S
C133 C132 1.384 . S
C133 C134 1.377 . S
C134 H114 0.953 . S
C134 C133 1.377 . S
C134 C135 1.369 . S
C135 H115 0.945 . S
C135 C130 1.385 . S
C135 C134 1.369 . S
C136 C128 1.457 . S
C136 C137 1.372 . S
C136 C141 1.364 . S
C137 H116 0.952 . S
C137 C136 1.372 . S
C137 C138 1.389 . S
C138 H117 0.949 . S
C138 C137 1.389 . S
C138 C139 1.387 . S
C139 C138 1.387 . S
C139 C140 1.372 . S
C140 H118 0.950 . S
C140 C139 1.372 . S
C140 C141 1.379 . S
C141 H119 0.948 . S
C141 C136 1.364 . S
C141 C140 1.379 . S
C142 C111 1.383 . S
C142 C129 1.479 . S
C142 C143 1.398 . S
C143 C108 1.382 . S
C143 H120 0.951 . S
C143 C142 1.398 . S
O144 Mn145 2.163 1_655 S
O144 C158 1.244 . S
Mn145 O144 2.163 1_455 S
Mn145 O148 2.160 1_545 S
Mn145 O149 2.221 . S
Mn145 O151 2.163 1_455 S
Mn145 O153 2.160 1_545 S
Mn145 O163 2.221 1_445 S
O146 Mn147 2.087 1_545 S
O146 C158 1.256 . S
Mn147 O146 2.087 1_565 S
Mn147 O154 2.089 1_655 S
Mn147 O163 2.290 . S
Mn147 O164 2.251 . S
O148 Mn145 2.160 1_565 S
O148 C159 1.239 . S
O149 Mn145 2.221 . S
O149 Mn150 2.290 . S
O149 C160 1.278 . S
Mn150 O149 2.290 . S
Mn150 O152 2.089 . S
Mn150 O155 2.251 . S
Mn150 O156 2.087 1_455 S
O151 Mn145 2.163 1_655 S
O151 C161 1.244 . S
O152 Mn150 2.089 . S
O152 C159 1.256 1_545 S
O153 Mn145 2.160 1_565 S
O153 C162 1.239 . S
O154 Mn147 2.089 1_455 S
O154 C162 1.256 . S
O155 Mn150 2.251 . S
O155 C160 1.241 . S
O156 Mn150 2.087 1_655 S
O156 C161 1.256 . S
C157 O163 1.278 . S
C157 O164 1.241 . S
C158 O144 1.244 . S
C158 O146 1.256 . S
C159 O148 1.239 . S
C159 O152 1.256 1_565 S
C160 O149 1.278 . S
C160 O155 1.241 . S
C161 O151 1.244 . S
C161 O156 1.256 . S
C162 O153 1.239 . S
C162 O154 1.256 . S
O163 Mn145 2.221 1_665 S
O163 Mn147 2.290 . S
O163 C157 1.278 . S
O164 Mn147 2.251 . S
O164 C157 1.241 . S
O165 Mn166 2.163 . S
O165 C179 1.244 . S
Mn166 O165 2.163 . S
Mn166 O169 2.160 1_554 S
Mn166 O170 2.221 . S
Mn166 O172 2.163 1_554 S
Mn166 O174 2.160 . S
Mn166 O184 2.221 . S
O167 Mn168 2.087 . S
O167 C179 1.256 . S
Mn168 O167 2.087 . S
Mn168 O175 2.089 . S
Mn168 O184 2.290 . S
Mn168 O185 2.251 . S
O169 Mn166 2.160 1_556 S
O169 C180 1.239 . S
O170 Mn166 2.221 . S
O170 Mn171 2.290 1_554 S
O170 C181 1.278 . S
Mn171 O170 2.290 1_556 S
Mn171 O173 2.089 . S
Mn171 O176 2.251 1_556 S
Mn171 O177 2.087 . S
O172 Mn166 2.163 1_556 S
O172 C182 1.244 . S
O173 Mn171 2.089 . S
O173 C180 1.256 . S
O174 Mn166 2.160 . S
O174 C183 1.239 . S
O175 Mn168 2.089 . S
O175 C183 1.256 . S
O176 Mn171 2.251 1_554 S
O176 C181 1.241 . S
O177 Mn171 2.087 . S
O177 C182 1.256 . S
C178 O184 1.278 . S
C178 O185 1.241 . S
C179 O165 1.244 . S
C179 O167 1.256 . S
C180 O169 1.239 . S
C180 O173 1.256 . S
C181 O170 1.278 . S
C181 O176 1.241 . S
C182 O172 1.244 . S
C182 O177 1.256 . S
C183 O174 1.239 . S
C183 O175 1.256 . S
O184 Mn166 2.221 . S
O184 Mn168 2.290 . S
O184 C178 1.278 . S
O185 Mn168 2.251 . S
O185 C178 1.241 . S
C186 C187 1.391 . S
C186 C188 1.394 . S
C186 H202 0.931 . S
C187 C186 1.391 . S
C187 C191 1.376 . S
C188 C186 1.394 . S
C188 C189 1.369 . S
C188 C192 1.531 . S
C189 C188 1.369 . S
C189 C190 1.410 . S
C189 C197 1.503 . S
C190 C189 1.410 . S
C190 C191 1.392 . S
C190 C193 1.511 . S
C191 C187 1.376 . S
C191 C190 1.392 . S
C191 H203 0.929 . S
C192 C188 1.531 . S
C192 H204 0.960 . S
C192 H205 0.962 . S
C192 H206 0.960 . S
C193 C190 1.511 . S
C193 H207 0.961 . S
C193 H208 0.961 . S
C193 H209 0.961 . S
C194 C195 1.370 . S
C194 C196 1.363 . S
C194 H210 0.931 . S
C195 C194 1.370 . S
C195 C199 1.408 . S
C196 C194 1.363 . S
C196 C197 1.370 . S
C196 C200 1.524 . S
C197 C189 1.503 . S
C197 C196 1.370 . S
C197 C198 1.403 . S
C198 C197 1.403 . S
C198 C199 1.404 . S
C198 C201 1.539 . S
C199 C195 1.408 . S
C199 C198 1.404 . S
C199 H211 0.930 . S
C200 C196 1.524 . S
C200 H212 0.956 . S
C200 H213 0.961 . S
C200 H214 0.961 . S
C201 C198 1.539 . S
C201 H215 0.958 . S
C201 H216 0.961 . S
C201 H217 0.960 . S
H202 C186 0.931 . S
H203 C191 0.929 . S
H204 C192 0.960 . S
H205 C192 0.962 . S
H206 C192 0.960 . S
H207 C193 0.961 . S
H208 C193 0.961 . S
H209 C193 0.961 . S
H210 C194 0.931 . S
H211 C199 0.930 . S
H212 C200 0.956 . S
H213 C200 0.961 . S
H214 C200 0.961 . S
H215 C201 0.958 . S
H216 C201 0.961 . S
H217 C201 0.960 . S
C218 C219 1.391 . S
C218 C220 1.394 . S
C218 H234 0.931 . S
C219 C218 1.391 . S
C219 C223 1.376 . S
C220 C218 1.394 . S
C220 C221 1.369 . S
C220 C224 1.531 . S
C221 C220 1.369 . S
C221 C222 1.410 . S
C221 C229 1.503 . S
C222 C221 1.410 . S
C222 C223 1.392 . S
C222 C225 1.511 . S
C223 C219 1.376 . S
C223 C222 1.392 . S
C223 H235 0.929 . S
C224 C220 1.531 . S
C224 H236 0.960 . S
C224 H237 0.962 . S
C224 H238 0.960 . S
C225 C222 1.511 . S
C225 H239 0.961 . S
C225 H240 0.961 . S
C225 H241 0.961 . S
C226 C227 1.370 . S
C226 C228 1.363 . S
C226 H242 0.931 . S
C227 C226 1.370 . S
C227 C231 1.408 . S
C228 C226 1.363 . S
C228 C229 1.370 . S
C228 C232 1.524 . S
C229 C221 1.503 . S
C229 C228 1.370 . S
C229 C230 1.403 . S
C230 C229 1.403 . S
C230 C231 1.404 . S
C230 C233 1.539 . S
C231 C227 1.408 . S
C231 C230 1.404 . S
C231 H243 0.930 . S
C232 C228 1.524 . S
C232 H244 0.956 . S
C232 H245 0.961 1_554 S
C232 H246 0.961 1_554 S
C233 C230 1.539 . S
C233 H247 0.958 . S
C233 H248 0.961 . S
C233 H249 0.960 . S
H234 C218 0.931 . S
H235 C223 0.929 . S
H236 C224 0.960 . S
H237 C224 0.962 . S
H238 C224 0.960 . S
H239 C225 0.961 . S
H240 C225 0.961 . S
H241 C225 0.961 . S
H242 C226 0.931 . S
H243 C231 0.930 . S
H244 C232 0.956 . S
H245 C232 0.961 1_556 S
H246 C232 0.961 1_556 S
H247 C233 0.958 . S
H248 C233 0.961 . S
H249 C233 0.960 . S
C250 C251 1.391 . S
C250 C252 1.394 . S
C250 H266 0.931 . S
C251 C250 1.391 . S
C251 C255 1.376 . S
C252 C250 1.394 . S
C252 C253 1.369 . S
C252 C256 1.531 . S
C253 C252 1.369 . S
C253 C254 1.410 . S
C253 C261 1.503 . S
C254 C253 1.410 . S
C254 C255 1.392 . S
C254 C257 1.511 . S
C255 C251 1.376 . S
C255 C254 1.392 . S
C255 H267 0.929 . S
C256 C252 1.531 . S
C256 H268 0.960 . S
C256 H269 0.962 . S
C256 H270 0.960 . S
C257 C254 1.511 . S
C257 H271 0.961 . S
C257 H272 0.961 . S
C257 H273 0.961 . S
C258 C259 1.370 . S
C258 C260 1.363 . S
C258 H274 0.931 . S
C259 C258 1.370 . S
C259 C263 1.408 . S
C260 C258 1.363 . S
C260 C261 1.370 . S
C260 C264 1.524 . S
C261 C253 1.503 . S
C261 C260 1.370 . S
C261 C262 1.403 . S
C262 C261 1.403 . S
C262 C263 1.404 . S
C262 C265 1.539 . S
C263 C259 1.408 . S
C263 C262 1.404 . S
C263 H275 0.930 . S
C264 C260 1.524 . S
C264 H276 0.956 . S
C264 H277 0.961 . S
C264 H278 0.961 . S
C265 C262 1.539 . S
C265 H279 0.958 . S
C265 H280 0.961 . S
C265 H281 0.960 . S
H266 C250 0.931 . S
H267 C255 0.929 . S
H268 C256 0.960 . S
H269 C256 0.962 . S
H270 C256 0.960 . S
H271 C257 0.961 . S
H272 C257 0.961 . S
H273 C257 0.961 . S
H274 C258 0.931 . S
H275 C263 0.930 . S
H276 C264 0.956 . S
H277 C264 0.961 . S
H278 C264 0.961 . S
H279 C265 0.958 . S
H280 C265 0.961 . S
H281 C265 0.960 . S
C282 C283 1.391 . S
C282 C284 1.394 . S
C282 H298 0.931 . S
C283 C282 1.391 . S
C283 C287 1.376 1_556 S
C284 C282 1.394 . S
C284 C285 1.369 . S
C284 C288 1.531 . S
C285 C284 1.369 . S
C285 C286 1.410 1_556 S
C285 C293 1.503 1_556 S
C286 C285 1.410 1_554 S
C286 C287 1.392 . S
C286 C289 1.511 . S
C287 C283 1.376 1_554 S
C287 C286 1.392 . S
C287 H299 0.929 . S
C288 C284 1.531 . S
C288 H300 0.960 . S
C288 H301 0.962 . S
C288 H302 0.960 . S
C289 C286 1.511 . S
C289 H303 0.961 . S
C289 H304 0.961 . S
C289 H305 0.961 . S
C290 C291 1.370 . S
C290 C292 1.363 . S
C290 H306 0.931 . S
C291 C290 1.370 . S
C291 C295 1.408 1_554 S
C292 C290 1.363 . S
C292 C293 1.370 . S
C292 C296 1.524 . S
C293 C285 1.503 1_554 S
C293 C292 1.370 . S
C293 C294 1.403 1_554 S
C294 C293 1.403 1_556 S
C294 C295 1.404 . S
C294 C297 1.539 . S
C295 C291 1.408 1_556 S
C295 C294 1.404 . S
C295 H307 0.930 . S
C296 C292 1.524 . S
C296 H308 0.956 . S
C296 H309 0.961 . S
C296 H310 0.961 . S
C297 C294 1.539 . S
C297 H311 0.958 . S
C297 H312 0.961 . S
C297 H313 0.960 . S
H298 C282 0.931 . S
H299 C287 0.929 . S
H300 C288 0.960 . S
H301 C288 0.962 . S
H302 C288 0.960 . S
H303 C289 0.961 . S
H304 C289 0.961 . S
H305 C289 0.961 . S
H306 C290 0.931 . S
H307 C295 0.930 . S
H308 C296 0.956 . S
H309 C296 0.961 . S
H310 C296 0.961 . S
H311 C297 0.958 . S
H312 C297 0.961 . S
H313 C297 0.960 . S
C314 C315 1.391 . S
C314 C316 1.394 . S
C314 H330 0.931 . S
C315 C314 1.391 . S
C315 C319 1.376 . S
C316 C314 1.394 . S
C316 C317 1.369 . S
C316 C320 1.531 . S
C317 C316 1.369 . S
C317 C318 1.410 . S
C317 C325 1.503 . S
C318 C317 1.410 . S
C318 C319 1.392 . S
C318 C321 1.511 1_565 S
C319 C315 1.376 . S
C319 C318 1.392 . S
C319 H331 0.929 . S
C320 C316 1.531 . S
C320 H332 0.960 . S
C320 H333 0.962 . S
C320 H334 0.960 . S
C321 C318 1.511 1_545 S
C321 H335 0.961 . S
C321 H336 0.961 . S
C321 H337 0.961 . S
C322 C323 1.370 . S
C322 C324 1.363 . S
C322 H338 0.931 . S
C323 C322 1.370 . S
C323 C327 1.408 . S
C324 C322 1.363 . S
C324 C325 1.370 . S
C324 C328 1.524 . S
C325 C317 1.503 . S
C325 C324 1.370 . S
C325 C326 1.403 . S
C326 C325 1.403 . S
C326 C327 1.404 . S
C326 C329 1.539 . S
C327 C323 1.408 . S
C327 C326 1.404 . S
C327 H339 0.930 1_565 S
C328 C324 1.524 . S
C328 H340 0.956 . S
C328 H341 0.961 . S
C328 H342 0.961 . S
C329 C326 1.539 . S
C329 H343 0.958 . S
C329 H344 0.961 1_565 S
C329 H345 0.960 1_565 S
H330 C314 0.931 . S
H331 C319 0.929 . S
H332 C320 0.960 . S
H333 C320 0.962 . S
H334 C320 0.960 . S
H335 C321 0.961 . S
H336 C321 0.961 . S
H337 C321 0.961 . S
H338 C322 0.931 . S
H339 C327 0.930 1_545 S
H340 C328 0.956 . S
H341 C328 0.961 . S
H342 C328 0.961 . S
H343 C329 0.958 . S
H344 C329 0.961 1_545 S
H345 C329 0.960 1_545 S
C346 C347 1.391 . S
C346 C348 1.394 . S
C346 H362 0.931 . S
C347 C346 1.391 . S
C347 C351 1.376 . S
C348 C346 1.394 . S
C348 C349 1.369 . S
C348 C352 1.531 . S
C349 C348 1.369 . S
C349 C350 1.410 . S
C349 C357 1.503 . S
C350 C349 1.410 . S
C350 C351 1.392 . S
C350 C353 1.511 . S
C351 C347 1.376 . S
C351 C350 1.392 . S
C351 H363 0.929 . S
C352 C348 1.531 . S
C352 H364 0.960 . S
C352 H365 0.962 . S
C352 H366 0.960 . S
C353 C350 1.511 . S
C353 H367 0.961 . S
C353 H368 0.961 . S
C353 H369 0.961 . S
C354 C355 1.370 . S
C354 C356 1.363 . S
C354 H370 0.931 . S
C355 C354 1.370 . S
C355 C359 1.408 . S
C356 C354 1.363 . S
C356 C357 1.370 . S
C356 C360 1.524 . S
C357 C349 1.503 . S
C357 C356 1.370 . S
C357 C358 1.403 . S
C358 C357 1.403 . S
C358 C359 1.404 . S
C358 C361 1.539 . S
C359 C355 1.408 . S
C359 C358 1.404 . S
C359 H371 0.930 . S
C360 C356 1.524 . S
C360 H372 0.956 . S
C360 H373 0.961 . S
C360 H374 0.961 . S
C361 C358 1.539 . S
C361 H375 0.958 . S
C361 H376 0.961 . S
C361 H377 0.960 . S
H362 C346 0.931 . S
H363 C351 0.929 . S
H364 C352 0.960 . S
H365 C352 0.962 . S
H366 C352 0.960 . S
H367 C353 0.961 . S
H368 C353 0.961 . S
H369 C353 0.961 . S
H370 C354 0.931 . S
H371 C359 0.930 . S
H372 C360 0.956 . S
H373 C360 0.961 . S
H374 C360 0.961 . S
H375 C361 0.958 . S
H376 C361 0.961 . S
H377 C361 0.960 . S
C378 C379 1.391 . S
C378 C380 1.394 . S
C378 H394 0.931 . S
C379 C378 1.391 . S
C379 C383 1.376 . S
C380 C378 1.394 . S
C380 C381 1.369 . S
C380 C384 1.531 . S
C381 C380 1.369 . S
C381 C382 1.410 . S
C381 C389 1.503 . S
C382 C381 1.410 . S
C382 C383 1.392 . S
C382 C385 1.511 . S
C383 C379 1.376 . S
C383 C382 1.392 . S
C383 H395 0.929 . S
C384 C380 1.531 . S
C384 H396 0.960 . S
C384 H397 0.962 . S
C384 H398 0.960 1_545 S
C385 C382 1.511 . S
C385 H399 0.961 . S
C385 H400 0.961 . S
C385 H401 0.961 . S
C386 C387 1.370 . S
C386 C388 1.363 . S
C386 H402 0.931 . S
C387 C386 1.370 . S
C387 C391 1.408 . S
C388 C386 1.363 . S
C388 C389 1.370 . S
C388 C392 1.524 . S
C389 C381 1.503 . S
C389 C388 1.370 . S
C389 C390 1.403 . S
C390 C389 1.403 . S
C390 C391 1.404 . S
C390 C393 1.539 . S
C391 C387 1.408 . S
C391 C390 1.404 . S
C391 H403 0.930 . S
C392 C388 1.524 . S
C392 H404 0.956 . S
C392 H405 0.961 . S
C392 H406 0.961 . S
C393 C390 1.539 . S
C393 H407 0.958 . S
C393 H408 0.961 . S
C393 H409 0.960 . S
H394 C378 0.931 . S
H395 C383 0.929 . S
H396 C384 0.960 . S
H397 C384 0.962 . S
H398 C384 0.960 1_565 S
H399 C385 0.961 . S
H400 C385 0.961 . S
H401 C385 0.961 . S
H402 C386 0.931 . S
H403 C391 0.930 . S
H404 C392 0.956 . S
H405 C392 0.961 . S
H406 C392 0.961 . S
H407 C393 0.958 . S
H408 C393 0.961 . S
H409 C393 0.960 . S
C410 C411 1.391 . S
C410 C412 1.394 . S
C410 H426 0.931 . S
C411 C410 1.391 . S
C411 C415 1.376 . S
C412 C410 1.394 . S
C412 C413 1.369 . S
C412 C416 1.531 . S
C413 C412 1.369 . S
C413 C414 1.410 . S
C413 C421 1.503 . S
C414 C413 1.410 . S
C414 C415 1.392 . S
C414 C417 1.511 . S
C415 C411 1.376 . S
C415 C414 1.392 . S
C415 H427 0.929 . S
C416 C412 1.531 . S
C416 H428 0.960 . S
C416 H429 0.962 . S
C416 H430 0.960 . S
C417 C414 1.511 . S
C417 H431 0.961 . S
C417 H432 0.961 . S
C417 H433 0.961 . S
C418 C419 1.370 . S
C418 C420 1.363 . S
C418 H434 0.931 . S
C419 C418 1.370 . S
C419 C423 1.408 . S
C420 C418 1.363 . S
C420 C421 1.370 . S
C420 C424 1.524 . S
C421 C413 1.503 . S
C421 C420 1.370 . S
C421 C422 1.403 . S
C422 C421 1.403 . S
C422 C423 1.404 . S
C422 C425 1.539 . S
C423 C419 1.408 . S
C423 C422 1.404 . S
C423 H435 0.930 . S
C424 C420 1.524 . S
C424 H436 0.956 . S
C424 H437 0.961 . S
C424 H438 0.961 . S
C425 C422 1.539 . S
C425 H439 0.958 . S
C425 H440 0.961 . S
C425 H441 0.960 . S
H426 C410 0.931 . S
H427 C415 0.929 . S
H428 C416 0.960 . S
H429 C416 0.962 . S
H430 C416 0.960 . S
H431 C417 0.961 . S
H432 C417 0.961 . S
H433 C417 0.961 . S
H434 C418 0.931 . S
H435 C423 0.930 . S
H436 C424 0.956 . S
H437 C424 0.961 . S
H438 C424 0.961 . S
H439 C425 0.958 . S
H440 C425 0.961 . S
H441 C425 0.960 . S
C442 C443 1.391 . S
C442 C444 1.394 . S
C442 H458 0.931 . S
C443 C442 1.391 . S
C443 C447 1.376 . S
C444 C442 1.394 . S
C444 C445 1.369 . S
C444 C448 1.531 . S
C445 C444 1.369 . S
C445 C446 1.410 . S
C445 C453 1.503 . S
C446 C445 1.410 . S
C446 C447 1.392 . S
C446 C449 1.511 . S
C447 C443 1.376 . S
C447 C446 1.392 . S
C447 H459 0.929 . S
C448 C444 1.531 . S
C448 H460 0.960 . S
C448 H461 0.962 . S
C448 H462 0.960 . S
C449 C446 1.511 . S
C449 H463 0.961 . S
C449 H464 0.961 . S
C449 H465 0.961 . S
C450 C451 1.370 . S
C450 C452 1.363 . S
C450 H466 0.931 . S
C451 C450 1.370 . S
C451 C455 1.408 . S
C452 C450 1.363 . S
C452 C453 1.370 . S
C452 C456 1.524 . S
C453 C445 1.503 . S
C453 C452 1.370 . S
C453 C454 1.403 . S
C454 C453 1.403 . S
C454 C455 1.404 . S
C454 C457 1.539 . S
C455 C451 1.408 . S
C455 C454 1.404 . S
C455 H467 0.930 . S
C456 C452 1.524 . S
C456 H468 0.956 . S
C456 H469 0.961 . S
C456 H470 0.961 . S
C457 C454 1.539 . S
C457 H471 0.958 . S
C457 H472 0.961 . S
C457 H473 0.960 . S
H458 C442 0.931 . S
H459 C447 0.929 . S
H460 C448 0.960 . S
H461 C448 0.962 . S
H462 C448 0.960 . S
H463 C449 0.961 . S
H464 C449 0.961 . S
H465 C449 0.961 . S
H466 C450 0.931 . S
H467 C455 0.930 . S
H468 C456 0.956 . S
H469 C456 0.961 . S
H470 C456 0.961 . S
H471 C457 0.958 . S
H472 C457 0.961 . S
H473 C457 0.960 . S
C474 C475 1.391 . S
C474 C476 1.394 . S
C474 H490 0.931 . S
C475 C474 1.391 . S
C475 C479 1.376 . S
C476 C474 1.394 . S
C476 C477 1.369 . S
C476 C480 1.531 . S
C477 C476 1.369 . S
C477 C478 1.410 . S
C477 C485 1.503 . S
C478 C477 1.410 . S
C478 C479 1.392 . S
C478 C481 1.511 . S
C479 C475 1.376 . S
C479 C478 1.392 . S
C479 H491 0.929 . S
C480 C476 1.531 . S
C480 H492 0.960 . S
C480 H493 0.962 . S
C480 H494 0.960 . S
C481 C478 1.511 . S
C481 H495 0.961 . S
C481 H496 0.961 . S
C481 H497 0.962 . S
C482 C483 1.370 . S
C482 C484 1.363 . S
C482 H498 0.931 . S
C483 C482 1.370 . S
C483 C487 1.408 . S
C484 C482 1.363 . S
C484 C485 1.370 . S
C484 C488 1.524 . S
C485 C477 1.503 . S
C485 C484 1.370 . S
C485 C486 1.403 . S
C486 C485 1.403 . S
C486 C487 1.404 . S
C486 C489 1.539 . S
C487 C483 1.408 . S
C487 C486 1.404 . S
C487 H499 0.930 . S
C488 C484 1.524 . S
C488 H500 0.956 . S
C488 H501 0.961 . S
C488 H502 0.961 . S
C489 C486 1.539 . S
C489 H503 0.958 . S
C489 H504 0.961 . S
C489 H505 0.960 . S
H490 C474 0.931 . S
H491 C479 0.929 . S
H492 C480 0.960 . S
H493 C480 0.962 . S
H494 C480 0.960 . S
H495 C481 0.961 . S
H496 C481 0.961 . S
H497 C481 0.962 . S
H498 C482 0.931 . S
H499 C487 0.930 . S
H500 C488 0.956 . S
H501 C488 0.961 . S
H502 C488 0.961 . S
H503 C489 0.958 . S
H504 C489 0.961 . S
H505 C489 0.960 . S
C506 C507 1.391 . S
C506 C508 1.394 . S
C506 H522 0.931 . S
C507 C506 1.391 . S
C507 C511 1.376 . S
C508 C506 1.394 . S
C508 C509 1.369 . S
C508 C512 1.531 . S
C509 C508 1.369 . S
C509 C510 1.410 . S
C509 C517 1.503 . S
C510 C509 1.410 . S
C510 C511 1.392 . S
C510 C513 1.511 . S
C511 C507 1.376 . S
C511 C510 1.392 . S
C511 H523 0.929 . S
C512 C508 1.531 . S
C512 H524 0.960 . S
C512 H525 0.962 . S
C512 H526 0.960 . S
C513 C510 1.511 . S
C513 H527 0.961 . S
C513 H528 0.961 . S
C513 H529 0.961 . S
C514 C515 1.370 . S
C514 C516 1.363 . S
C514 H530 0.931 . S
C515 C514 1.370 . S
C515 C519 1.408 . S
C516 C514 1.363 . S
C516 C517 1.370 . S
C516 C520 1.524 . S
C517 C509 1.503 . S
C517 C516 1.370 . S
C517 C518 1.403 . S
C518 C517 1.403 . S
C518 C519 1.404 . S
C518 C521 1.539 . S
C519 C515 1.408 . S
C519 C518 1.404 . S
C519 H531 0.930 . S
C520 C516 1.524 . S
C520 H532 0.956 . S
C520 H533 0.961 . S
C520 H534 0.961 . S
C521 C518 1.539 . S
C521 H535 0.958 . S
C521 H536 0.961 . S
C521 H537 0.960 . S
H522 C506 0.931 . S
H523 C511 0.929 . S
H524 C512 0.960 . S
H525 C512 0.962 . S
H526 C512 0.960 . S
H527 C513 0.961 . S
H528 C513 0.961 . S
H529 C513 0.961 . S
H530 C514 0.931 . S
H531 C519 0.930 . S
H532 C520 0.956 . S
H533 C520 0.961 . S
H534 C520 0.961 . S
H535 C521 0.958 . S
H536 C521 0.961 . S
H537 C521 0.960 . S
C538 C539 1.391 . S
C538 C540 1.394 . S
C538 H554 0.931 . S
C539 C538 1.391 . S
C539 C543 1.376 . S
C540 C538 1.394 . S
C540 C541 1.369 . S
C540 C544 1.531 1_565 S
C541 C540 1.369 . S
C541 C542 1.410 . S
C541 C549 1.503 . S
C542 C541 1.410 . S
C542 C543 1.392 . S
C542 C545 1.511 . S
C543 C539 1.376 . S
C543 C542 1.392 . S
C543 H555 0.929 . S
C544 C540 1.531 1_545 S
C544 H556 0.960 . S
C544 H557 0.962 1_545 S
C544 H558 0.960 . S
C545 C542 1.511 . S
C545 H559 0.961 . S
C545 H560 0.961 . S
C545 H561 0.961 . S
C546 C547 1.370 . S
C546 C548 1.363 . S
C546 H562 0.931 . S
C547 C546 1.370 . S
C547 C551 1.408 1_565 S
C548 C546 1.363 . S
C548 C549 1.370 . S
C548 C552 1.524 . S
C549 C541 1.503 . S
C549 C548 1.370 . S
C549 C550 1.403 . S
C550 C549 1.403 . S
C550 C551 1.404 1_565 S
C550 C553 1.539 1_565 S
C551 C547 1.408 1_545 S
C551 C550 1.404 1_545 S
C551 H563 0.930 . S
C552 C548 1.524 . S
C552 H564 0.956 . S
C552 H565 0.961 . S
C552 H566 0.961 . S
C553 C550 1.539 1_545 S
C553 H567 0.958 . S
C553 H568 0.961 . S
C553 H569 0.960 . S
H554 C538 0.931 . S
H555 C543 0.929 . S
H556 C544 0.960 . S
H557 C544 0.962 1_565 S
H558 C544 0.960 . S
H559 C545 0.961 . S
H560 C545 0.961 . S
H561 C545 0.961 . S
H562 C546 0.931 . S
H563 C551 0.930 . S
H564 C552 0.956 . S
H565 C552 0.961 . S
H566 C552 0.961 . S
H567 C553 0.958 . S
H568 C553 0.961 . S
H569 C553 0.960 . S
C195 C160 1.375 . S
C187 C133 1.481 . S
C219 C25 1.531 . S
C227 C181 1.373 . S
C251 C61 1.683 . S
C259 C157 1.494 . S
C283 C97 1.668 . S
C291 C178 1.489 . S
C323 C162 1.647 . S
C315 C1 1.659 . S
C355 C182 1.576 . S
C347 C67 1.590 . S
C379 C103 1.537 . S
C387 C158 1.518 . S
C411 C109 1.618 . S
C419 C180 1.548 . S
C451 C179 1.506 . S
C443 C37 1.594 . S
C483 C161 1.579 . S
C475 C73 1.575 . S
C515 C183 1.647 . S
C507 C139 1.620 . S
C539 C31 1.644 . S
C547 C159 1.545 . S
