# Generated by pormake.
# Topology zzz, (3,6)-cn, num edge types: 1
# Building blocks:
#     Node 0, Type 0, BuildingBlock: VETTIZ_charged_linker_0, # of connection points: 3
#     Node 1, Type 0, BuildingBlock: VETTIZ_charged_linker_0, # of connection points: 3
#     Node 2, Type 0, BuildingBlock: VETTIZ_charged_linker_0, # of connection points: 3
#     Node 3, Type 0, BuildingBlock: VETTIZ_charged_linker_0, # of connection points: 3
#     Node 4, Type 0, BuildingBlock: VETTIZ_charged_linker_0, # of connection points: 3
#     Node 5, Type 0, BuildingBlock: VETTIZ_charged_linker_0, # of connection points: 3
#     Node 6, Type 0, BuildingBlock: VETTIZ_charged_linker_0, # of connection points: 3
#     Node 7, Type 0, BuildingBlock: VETTIZ_charged_linker_0, # of connection points: 3
#     Node 8, Type 1, BuildingBlock: KUMBUR_clean_sbu_1, # of connection points: 6
#     Node 9, Type 1, BuildingBlock: KUMBUR_clean_sbu_1, # of connection points: 6
#     Node 10, Type 1, BuildingBlock: KUMBUR_clean_sbu_1, # of connection points: 6
#     Node 11, Type 1, BuildingBlock: KUMBUR_clean_sbu_1, # of connection points: 6
#     Edge 12, Type (0, 1), BuildingBlock: TEMPAE_clean_linker_10, # of connection points: 2
#     Edge 13, Type (0, 1), BuildingBlock: TEMPAE_clean_linker_10, # of connection points: 2
#     Edge 14, Type (0, 1), BuildingBlock: TEMPAE_clean_linker_10, # of connection points: 2
#     Edge 15, Type (0, 1), BuildingBlock: TEMPAE_clean_linker_10, # of connection points: 2
#     Edge 16, Type (0, 1), BuildingBlock: TEMPAE_clean_linker_10, # of connection points: 2
#     Edge 17, Type (0, 1), BuildingBlock: TEMPAE_clean_linker_10, # of connection points: 2
#     Edge 18, Type (0, 1), BuildingBlock: TEMPAE_clean_linker_10, # of connection points: 2
#     Edge 19, Type (0, 1), BuildingBlock: TEMPAE_clean_linker_10, # of connection points: 2
#     Edge 20, Type (0, 1), BuildingBlock: TEMPAE_clean_linker_10, # of connection points: 2
#     Edge 21, Type (0, 1), BuildingBlock: TEMPAE_clean_linker_10, # of connection points: 2
#     Edge 22, Type (0, 1), BuildingBlock: TEMPAE_clean_linker_10, # of connection points: 2
#     Edge 23, Type (0, 1), BuildingBlock: TEMPAE_clean_linker_10, # of connection points: 2
#     Edge 24, Type (0, 1), BuildingBlock: TEMPAE_clean_linker_10, # of connection points: 2
#     Edge 25, Type (0, 1), BuildingBlock: TEMPAE_clean_linker_10, # of connection points: 2
#     Edge 26, Type (0, 1), BuildingBlock: TEMPAE_clean_linker_10, # of connection points: 2
#     Edge 27, Type (0, 1), BuildingBlock: TEMPAE_clean_linker_10, # of connection points: 2
#     Edge 28, Type (0, 1), BuildingBlock: TEMPAE_clean_linker_10, # of connection points: 2
#     Edge 29, Type (0, 1), BuildingBlock: TEMPAE_clean_linker_10, # of connection points: 2
#     Edge 30, Type (0, 1), BuildingBlock: TEMPAE_clean_linker_10, # of connection points: 2
#     Edge 31, Type (0, 1), BuildingBlock: TEMPAE_clean_linker_10, # of connection points: 2
#     Edge 32, Type (0, 1), BuildingBlock: TEMPAE_clean_linker_10, # of connection points: 2
#     Edge 33, Type (0, 1), BuildingBlock: TEMPAE_clean_linker_10, # of connection points: 2
#     Edge 34, Type (0, 1), BuildingBlock: TEMPAE_clean_linker_10, # of connection points: 2
#     Edge 35, Type (0, 1), BuildingBlock: TEMPAE_clean_linker_10, # of connection points: 2
# Relax obj value: 0.319
# Max RMSD: 0.211
# Mean RMSD: 0.184
data_MOF--net-zzz--node1-KUMBUR_clean_sbu_1--node2-VETTIZ_charged_linker_0--edge1-TEMPAE_clean_linker_10
_symmetry_space_group_name_H-M    P1
_symmetry_Int_Tables_number       1
_symmetry_cell_setting            triclinic
loop_
_symmetry_equiv_pos_as_xyz
'x, y, z'
_cell_length_a     56.420323
_cell_length_b     56.404505
_cell_length_c     21.07489
_cell_angle_alpha  90.044123
_cell_angle_beta   89.893306
_cell_angle_gamma 90.455902
loop_
_atom_site_label
_atom_site_type_symbol
_atom_site_fract_x
_atom_site_fract_y
_atom_site_fract_z
_atom_type_partial_charge
C0 C 0.80923 0.5345 0.31227 0.0
C1 C 0.82929 0.5457 0.34124 0.0
C2 C 0.8348 0.56927 0.32462 0.0
C3 C 0.80543 0.56819 0.2421 0.0
C4 C 0.79696 0.54669 0.26313 0.0
C5 C 0.77387 0.54052 0.228 0.0
H6 H 0.6987 0.57532 0.9839 0.0
C7 C 0.7916 0.57607 0.18814 0.0
C8 C 0.77165 0.56133 0.18074 0.0
H9 H 0.6882 0.51366 0.1019 0.0
H10 H 0.72397 0.52421 0.1626 0.0
H11 H 0.71776 0.61281 0.09051 0.0
H12 H 0.74091 0.56969 0.945 0.0
H13 H 0.76953 0.57841 0.9696 0.0
H14 H 0.74876 0.59986 0.93905 0.0
H15 H 0.7165 0.61587 1.00562 0.0
H16 H 0.74107 0.62774 0.0504 0.0
C17 C 0.75336 0.54013 0.2762 0.0
C18 C 0.77676 0.51666 0.19355 0.0
C19 C 0.83544 0.61089 1.00317 0.0
C20 C 0.82733 0.61891 0.94367 0.0
C21 C 0.80375 0.62695 0.9391 0.0
C22 C 0.78774 0.62314 0.9891 0.0
C23 C 0.79534 0.61077 0.04289 0.0
C24 C 0.81914 0.60714 0.05232 0.0
C25 C 0.82403 0.59652 0.11638 0.0
C26 C 0.79864 0.59193 0.13984 0.0
C27 C 0.7822 0.59837 0.09355 0.0
C28 C 0.83809 0.61494 0.15587 0.0
C29 C 0.83795 0.57318 0.1088 0.0
C30 C 0.70389 0.56382 0.02251 0.0
C31 C 0.69056 0.54344 0.03687 0.0
C32 C 0.69802 0.52953 0.0892 0.0
C33 C 0.7188 0.53559 0.12429 0.0
C34 C 0.73236 0.55571 0.10689 0.0
C35 C 0.72465 0.56916 0.05605 0.0
C36 C 0.74146 0.5887 0.03862 0.0
C37 C 0.76034 0.58578 0.08909 0.0
C38 C 0.75519 0.56653 0.13031 0.0
C39 C 0.72855 0.61263 0.04628 0.0
C40 C 0.75073 0.58409 0.96989 0.0
H41 H 0.82564 0.59929 0.26828 0.0
H42 H 0.80359 0.51694 0.32682 0.0
H43 H 0.79266 0.51715 0.16229 0.0
H44 H 0.76128 0.51246 0.16342 0.0
H45 H 0.77896 0.50203 0.22826 0.0
H46 H 0.75308 0.55693 0.30386 0.0
H47 H 0.7554 0.52519 0.31005 0.0
H48 H 0.73596 0.53831 0.25283 0.0
H49 H 0.85356 0.6053 1.0097 0.0
H50 H 0.79726 0.63454 0.89534 0.0
H51 H 0.76981 0.62891 0.98338 0.0
H52 H 0.85029 0.62561 0.12555 0.0
H53 H 0.84982 0.60628 0.19088 0.0
H54 H 0.82599 0.62745 0.18032 0.0
H55 H 0.82817 0.56052 0.07772 0.0
H56 H 0.84083 0.56452 0.15532 0.0
H57 H 0.85574 0.5765 0.08786 0.0
H58 H 0.84892 0.57877 0.34877 0.0
C59 C 0.82247 0.58074 0.27645 0.0
C60 C 0.90499 0.81228 0.96958 0.0
C61 C 0.89614 0.83463 0.98731 0.0
C62 C 0.89227 0.83885 0.05259 0.0
C63 C 0.91734 0.80567 0.07791 0.0
C64 C 0.91723 0.79902 1.01493 0.0
C65 C 0.93579 0.78077 1.00054 0.0
H66 H 0.99439 0.69003 0.11404 0.0
C67 C 0.93685 0.79307 0.10979 0.0
C68 C 0.9474 0.77805 0.06531 0.0
H69 H 0.9854 0.71125 0.9178 0.0
H70 H 0.97394 0.74969 0.95082 0.0
H71 H 0.02151 0.7541 0.15629 0.0
H72 H 0.95149 0.72404 0.19232 0.0
H73 H 0.96965 0.73544 0.25576 0.0
H74 H 0.97706 0.70771 0.21835 0.0
H75 H 0.02022 0.72318 0.17747 0.0
H76 H 0.01235 0.74476 0.23503 0.0
C77 C 0.95351 0.7912 0.95111 0.0
C78 C 0.92268 0.75813 0.97801 0.0
C79 C 0.96739 0.82825 0.31262 0.0
C80 C 0.99036 0.82924 0.3375 0.0
C81 C 1.00666 0.81166 0.31783 0.0
C82 C 1.00015 0.79415 0.2721 0.0
C83 C 0.97705 0.7939 0.24662 0.0
C84 C 0.96158 0.81162 0.2655 0.0
C85 C 0.94149 0.81468 0.21984 0.0
C86 C 0.94753 0.79633 0.16998 0.0
C87 C 0.96723 0.78264 0.18773 0.0
C88 C 0.9423 0.84054 0.19318 0.0
C89 C 0.9182 0.80812 0.25471 0.0
C90 C 0.98978 0.70295 0.07831 0.0
C91 C 0.98817 0.6963 1.01277 0.0
C92 C 0.98429 0.71457 0.96834 0.0
C93 C 0.97772 0.73715 0.9874 0.0
C94 C 0.97566 0.74228 0.05188 0.0
C95 C 0.9843 0.72676 0.09646 0.0
C96 C 0.9855 0.73919 0.16138 0.0
C97 C 0.97486 0.76378 0.1465 0.0
C98 C 0.96658 0.76346 0.08369 0.0
C99 C 1.01139 0.74057 0.18373 0.0
C100 C 0.97001 0.72577 0.2098 0.0
H101 H 0.90068 0.82914 0.14694 0.0
H102 H 0.90682 0.80765 0.91994 0.0
H103 H 0.91147 0.76209 0.93606 0.0
H104 H 0.91093 0.75117 0.01623 0.0
H105 H 0.93457 0.74375 0.96366 0.0
H106 H 0.95365 0.81089 0.95164 0.0
H107 H 0.94907 0.78529 0.90221 0.0
H108 H 0.97214 0.78674 0.96185 0.0
H109 H 0.95484 0.84204 0.32432 0.0
H110 H 0.02479 0.81247 0.33443 0.0
H111 H 0.01368 0.78276 0.25348 0.0
H112 H 0.95921 0.84993 0.20406 0.0
H113 H 0.92778 0.85149 0.21303 0.0
H114 H 0.94155 0.84122 0.1408 0.0
H115 H 0.9206 0.79205 0.28455 0.0
H116 H 0.90363 0.80366 0.22167 0.0
H117 H 0.91249 0.82277 0.28636 0.0
H118 H 0.88442 0.85521 0.06889 0.0
C119 C 0.90248 0.82405 0.09819 0.0
C120 C 0.8309 1.00447 0.06963 0.0
C121 C 0.84787 0.99153 0.03319 0.0
C122 C 0.84496 0.96675 0.02809 0.0
C123 C 0.80782 0.96844 0.08341 0.0
C124 C 0.81109 0.99212 0.09633 0.0
C125 C 0.79215 1.00028 0.14398 0.0
H126 H 0.69321 0.96381 0.31789 0.0
C127 C 0.78655 0.95982 0.11463 0.0
C128 C 0.77758 0.97731 0.15502 0.0
H129 H 0.72264 0.0346 0.31697 0.0
H130 H 0.75397 0.02162 0.24383 0.0
H131 H 0.68738 0.95209 0.20805 0.0
H132 H 0.74366 0.93419 0.31831 0.0
H133 H 0.73714 0.91044 0.266 0.0
H134 H 0.7136 0.92355 0.31165 0.0
H135 H 0.6954 0.9222 0.20196 0.0
H136 H 0.70459 0.9433 0.14186 0.0
C137 C 0.77715 0.01972 0.11287 0.0
C138 C 0.80442 1.00881 0.2051 0.0
C139 C 0.73243 0.90314 1.00311 0.0
C140 C 0.71142 0.89198 0.0247 0.0
C141 C 0.70966 0.88633 0.08992 0.0
C142 C 0.72517 0.89692 0.13362 0.0
C143 C 0.74229 0.91291 0.11112 0.0
C144 C 0.7478 0.91336 0.04759 0.0
C145 C 0.76918 0.92869 0.03461 0.0
C146 C 0.77356 0.93907 0.10098 0.0
C147 C 0.75567 0.93194 0.14283 0.0
C148 C 0.76306 0.94831 0.9863 0.0
C149 C 0.78912 0.91267 1.00929 0.0
C150 C 0.70652 0.97662 0.30319 0.0
C151 C 0.70545 1.00014 0.32455 0.0
C152 C 0.72292 0.01627 0.30172 0.0
C153 C 0.7411 1.00875 0.25943 0.0
C154 C 0.74161 0.98498 0.23854 0.0
C155 C 0.72407 0.96963 0.26011 0.0
C156 C 0.72551 0.94546 0.23109 0.0
C157 C 0.74716 0.94837 0.18872 0.0
C158 C 0.75707 0.97154 0.1932 0.0
C159 C 0.7022 0.94041 0.19363 0.0
C160 C 0.73012 0.92732 0.28452 0.0
H161 H 0.82526 0.93612 0.05613 0.0
H162 H 0.8333 0.02327 0.07799 0.0
H163 H 0.81659 0.99496 0.22318 0.0
H164 H 0.79153 1.0126 0.24318 0.0
H165 H 0.81498 0.02517 0.19598 0.0
H166 H 0.76999 0.01343 0.06664 0.0
H167 H 0.78807 0.03587 0.10402 0.0
H168 H 0.76189 0.02472 0.14273 0.0
H169 H 0.7353 0.90672 0.95329 0.0
H170 H 0.69468 0.87622 0.10778 0.0
H171 H 0.72248 0.89371 0.18335 0.0
H172 H 0.74768 0.95885 1.00303 0.0
H173 H 0.75869 0.94064 0.93917 0.0
H174 H 0.77833 0.96057 0.97939 0.0
H175 H 0.78201 0.8991 0.97592 0.0
H176 H 0.79804 0.90319 0.0487 0.0
H177 H 0.80227 0.92291 0.98114 0.0
H178 H 0.85789 0.95616 1.0033 0.0
C179 C 0.82555 0.95517 0.05493 0.0
C180 C 0.5331 0.72669 0.30332 0.0
C181 C 0.54604 0.70784 0.33225 0.0
C182 C 0.57079 0.70723 0.32371 0.0
C183 C 0.56864 0.73865 0.24697 0.0
C184 C 0.54526 0.74256 0.26136 0.0
C185 C 0.537 0.76516 0.22722 0.0
H186 H 0.5707 0.85244 1.00892 0.0
C187 C 0.57641 0.75485 0.1974 0.0
C188 C 0.55905 0.77212 0.18737 0.0
H189 H 0.50365 0.84979 0.10671 0.0
H190 H 0.51598 0.81344 0.16225 0.0
H191 H 0.60668 0.83472 0.11936 0.0
H192 H 0.5701 0.80948 0.9619 0.0
H193 H 0.58319 0.78234 0.98251 0.0
H194 H 0.60126 0.80762 0.95963 0.0
H195 H 0.61194 0.83889 0.03587 0.0
H196 H 0.62532 0.81474 0.07834 0.0
C197 C 0.5312 0.7841 0.2773 0.0
C198 C 0.51561 0.75915 0.18485 0.0
C199 C 0.62275 0.72046 0.01844 0.0
C200 C 0.62908 0.73074 0.9598 0.0
C201 C 0.63395 0.7553 0.95794 0.0
C202 C 0.62785 0.76974 1.00954 0.0
C203 C 0.61617 0.75946 0.0616 0.0
C204 C 0.61607 0.7352 0.0687 0.0
C205 C 0.60444 0.72761 0.12974 0.0
C206 C 0.59489 0.75147 0.15323 0.0
C207 C 0.6003 0.76954 0.11008 0.0
C208 C 0.62365 0.7167 0.17273 0.0
C209 C 0.58416 0.70967 0.11597 0.0
C210 C 0.55878 0.8445 0.04341 0.0
C211 C 0.53653 0.85446 0.05449 0.0
C212 C 0.52112 0.84271 0.09775 0.0
C213 C 0.52829 0.82175 0.13009 0.0
C214 C 0.55085 0.81208 0.11789 0.0
C215 C 0.56524 0.8234 0.07368 0.0
C216 C 0.58706 0.80972 0.05819 0.0
C217 C 0.58485 0.78924 0.10453 0.0
C218 C 0.56362 0.79034 0.14056 0.0
C219 C 0.60902 0.82533 0.07335 0.0
C220 C 0.5855 0.80182 0.98728 0.0
H221 H 0.60119 0.72334 0.28044 0.0
H222 H 0.5143 0.72859 0.31192 0.0
H223 H 0.52001 0.7444 0.15193 0.0
H224 H 0.51032 0.7745 0.15571 0.0
H225 H 0.50015 0.75359 0.21415 0.0
H226 H 0.5465 0.78681 0.30976 0.0
H227 H 0.51564 0.77853 0.30624 0.0
H228 H 0.52725 0.8014 0.25548 0.0
H229 H 0.61978 0.70156 0.02248 0.0
H230 H 0.64002 0.76358 0.91443 0.0
H231 H 0.63087 0.78847 1.00565 0.0
H232 H 0.63747 0.70752 0.14438 0.0
H233 H 0.61619 0.70275 0.2041 0.0
H234 H 0.63268 0.73055 0.20167 0.0
H235 H 0.57116 0.7173 0.08218 0.0
H236 H 0.57457 0.70465 0.15989 0.0
H237 H 0.59112 0.69297 0.0955 0.0
H238 H 0.58134 0.69417 0.34837 0.0
C239 C 0.58216 0.72301 0.28262 0.0
C240 C 0.33245 0.50212 0.22292 0.0
C241 C 0.33897 0.50773 0.28684 0.0
C242 C 0.32103 0.51575 0.32826 0.0
C243 C 0.29117 0.50414 0.25335 0.0
C244 C 0.30789 0.50144 0.20655 0.0
C245 C 0.29533 0.4956 0.14389 0.0
H246 H 0.1851 0.46435 0.01931 0.0
C247 C 0.26837 0.49508 0.23108 0.0
C248 C 0.26903 0.49403 0.16451 0.0
H249 H 0.22378 0.52538 0.95068 0.0
H250 H 0.25409 0.5194 0.03399 0.0
H251 H 0.23083 0.43008 0.06191 0.0
H252 H 0.18754 0.48114 0.16085 0.0
H253 H 0.18804 0.45382 0.2019 0.0
H254 H 0.176 0.45462 0.12437 0.0
H255 H 0.20189 0.42243 0.09121 0.0
H256 H 0.22787 0.42064 0.14106 0.0
C257 C 0.30401 0.47167 0.11788 0.0
C258 C 0.29974 0.51551 0.09556 0.0
C259 C 0.22567 0.44343 0.39222 0.0
C260 C 0.20801 0.42586 0.38644 0.0
C261 C 0.2025 0.41694 0.32567 0.0
C262 C 0.21274 0.42715 0.27131 0.0
C263 C 0.22788 0.4469 0.27808 0.0
C264 C 0.23526 0.45375 0.33771 0.0
C265 C 0.25171 0.47481 0.33625 0.0
C266 C 0.25339 0.47916 0.26495 0.0
C267 C 0.23861 0.46339 0.23178 0.0
C268 C 0.27553 0.46777 0.36749 0.0
C269 C 0.23943 0.49569 0.37042 0.0
C270 C 0.20043 0.47602 0.02041 0.0
C271 C 0.20201 0.49516 0.97796 0.0
C272 C 0.22228 0.51016 0.98175 0.0
C273 C 0.23994 0.50657 0.02885 0.0
C274 C 0.23766 0.48745 0.07131 0.0
C275 C 0.21776 0.47292 0.06738 0.0
C276 C 0.2151 0.4572 0.12466 0.0
C277 C 0.23531 0.46632 0.16571 0.0
C278 C 0.24991 0.4823 0.1323 0.0
C279 C 0.21894 0.43117 0.10398 0.0
C280 C 0.19042 0.46178 0.15479 0.0
H281 H 0.28407 0.5194 0.34556 0.0
H282 H 0.34578 0.49723 0.18843 0.0
H283 H 0.2912 0.53222 0.11125 0.0
H284 H 0.29273 0.51045 0.04829 0.0
H285 H 0.31907 0.51892 0.08998 0.0
H286 H 0.30126 0.45739 0.15356 0.0
H287 H 0.32318 0.47262 0.10595 0.0
H288 H 0.29411 0.46676 0.0742 0.0
H289 H 0.23006 0.45095 0.43808 0.0
H290 H 0.18894 0.40341 0.3201 0.0
H291 H 0.20721 0.42048 0.22598 0.0
H292 H 0.28822 0.4608 0.33176 0.0
H293 H 0.2731 0.45377 0.40406 0.0
H294 H 0.28382 0.48274 0.39335 0.0
H295 H 0.22033 0.49649 0.35761 0.0
H296 H 0.24707 0.51304 0.35681 0.0
H297 H 0.24069 0.49376 0.42278 0.0
H298 H 0.32538 0.52198 0.37552 0.0
C299 C 0.29721 0.51402 0.31168 0.0
C300 C 0.12128 0.24298 0.32112 0.0
C301 C 0.12447 0.21822 0.32079 0.0
C302 C 0.12619 0.20676 0.26124 0.0
C303 C 0.11124 0.2417 0.20964 0.0
C304 C 0.11375 0.25423 0.26541 0.0
C305 C 0.10373 0.2788 0.26039 0.0
H306 H 0.01317 0.34079 0.20062 0.0
C307 C 0.09596 0.25537 0.16662 0.0
C308 C 0.09242 0.27759 0.19413 0.0
H309 H 0.08038 0.36474 0.2779 0.0
H310 H 0.10015 0.33238 0.22247 0.0
H311 H 0.04847 0.32406 0.05276 0.0
H312 H 0.01652 0.27986 0.19975 0.0
H313 H 1.0082 0.27372 0.11921 0.0
H314 H 0.9986 0.30064 0.15654 0.0
H315 H 0.0172 0.32589 0.06893 0.0
H316 H 0.02904 0.30105 0.02652 0.0
C317 C 0.12447 0.29683 0.26571 0.0
C318 C 0.08497 0.28236 0.31328 0.0
C319 C 0.05479 0.20832 0.99508 0.0
C320 C 0.03526 0.2115 0.955 0.0
C321 C 0.02165 0.23237 0.96392 0.0
C322 C 0.02814 0.24976 1.01016 0.0
C323 C 0.04846 0.24638 0.04801 0.0
C324 C 0.06104 0.22561 0.03982 0.0
C325 C 0.0814 0.22344 0.08445 0.0
C326 C 0.08056 0.24719 0.11787 0.0
C327 C 0.06102 0.26091 0.09793 0.0
C328 C 0.10448 0.22102 0.04497 0.0
C329 C 0.07616 0.20211 0.12964 0.0
C330 C 0.03201 0.33856 0.20766 0.0
C331 C 0.04499 0.3543 0.24829 0.0
C332 C 0.06981 0.35206 0.25129 0.0
C333 C 0.08116 0.33306 0.22231 0.0
C334 C 0.06754 0.31551 0.19313 0.0
C335 C 0.04419 0.31929 0.17858 0.0
C336 C 0.03611 0.30077 0.1294 0.0
C337 C 0.05755 0.28388 0.12678 0.0
C338 C 0.07491 0.29263 0.16871 0.0
C339 C 0.03242 0.31355 0.06573 0.0
C340 C 0.01353 0.288 0.15243 0.0
H341 H 0.12062 0.20879 0.16209 0.0
H342 H 0.12181 0.2528 0.36519 0.0
H343 H 0.0708 0.26859 0.31001 0.0
H344 H 0.07652 0.29992 0.31054 0.0
H345 H 0.09313 0.28135 0.36107 0.0
H346 H 0.13984 0.28937 0.29171 0.0
H347 H 0.11937 0.31271 0.29347 0.0
H348 H 0.13095 0.30235 0.21809 0.0
H349 H 0.06513 0.19225 0.99267 0.0
H350 H 1.00622 0.23541 0.93468 0.0
H351 H 0.01717 0.26512 0.01545 0.0
H352 H 0.10413 0.23291 1.00287 0.0
H353 H 0.10672 0.20256 0.02763 0.0
H354 H 0.12047 0.22634 0.07187 0.0
H355 H 0.05849 0.19381 0.12121 0.0
H356 H 0.07573 0.20753 0.18022 0.0
H357 H 0.08926 0.1877 0.1235 0.0
H358 H 0.12959 0.18797 0.2575 0.0
C359 C 0.12007 0.21863 0.20551 0.0
C360 C 0.30848 0.05262 0.98469 0.0
C361 C 0.33089 0.06166 0.96369 0.0
C362 C 0.34215 0.07908 1.00092 0.0
C363 C 0.31005 0.07862 0.0772 0.0
C364 C 0.29818 0.0617 0.04174 0.0
C365 C 0.27433 0.05561 0.07301 0.0
H366 H 0.20007 0.07773 0.32962 0.0
C367 C 0.29587 0.08457 0.1339 0.0
C368 C 0.27437 0.07164 0.13231 0.0
H369 H 0.18548 0.0272 0.18082 0.0
H370 H 0.22272 0.03866 0.12751 0.0
H371 H 0.24806 0.06176 0.35188 0.0
H372 H 0.22154 0.12 0.2445 0.0
H373 H 0.24612 0.13089 0.28716 0.0
H374 H 0.22129 0.11821 0.32955 0.0
H375 H 0.24293 0.08991 0.38825 0.0
H376 H 0.27138 0.08228 0.35485 0.0
C377 C 0.27411 0.02916 0.09099 0.0
C378 C 0.25419 0.06205 0.02717 0.0
C379 C 0.33625 0.13063 0.30943 0.0
C380 C 0.32975 0.13394 0.3732 0.0
C381 C 0.30562 0.13253 0.38984 0.0
C382 C 0.28877 0.12472 0.34552 0.0
C383 C 0.29631 0.1176 0.28469 0.0
C384 C 0.31945 0.12184 0.26653 0.0
C385 C 0.32475 0.11208 0.20171 0.0
C386 C 0.30145 0.09963 0.18593 0.0
C387 C 0.28498 0.10292 0.23456 0.0
C388 C 0.34552 0.09427 0.2081 0.0
C389 C 0.32973 0.13346 0.15702 0.0
C390 C 0.20463 0.06892 0.28561 0.0
C391 C 0.18979 0.05127 0.26051 0.0
C392 C 0.19656 0.04083 0.20191 0.0
C393 C 0.21821 0.04739 0.17118 0.0
C394 C 0.23328 0.06457 0.19919 0.0
C395 C 0.22593 0.0749 0.25553 0.0
C396 C 0.24386 0.09146 0.28302 0.0
C397 C 0.2631 0.09047 0.23336 0.0
C398 C 0.2574 0.07471 0.18319 0.0
C399 C 0.25197 0.08107 0.34791 0.0
C400 C 0.23272 0.11648 0.28686 0.0
H401 H 0.34194 0.10069 0.0815 0.0
H402 H 0.29923 0.03924 0.95723 0.0
H403 H 0.2562 0.08071 1.0109 0.0
H404 H 0.23661 0.06044 0.0499 0.0
H405 H 0.25444 0.05035 0.98474 0.0
H406 H 0.29007 0.02478 0.11941 0.0
H407 H 0.2741 0.01787 0.04775 0.0
H408 H 0.25847 0.02436 0.1199 0.0
H409 H 0.35472 0.13144 0.29536 0.0
H410 H 0.30019 0.13515 0.43868 0.0
H411 H 0.27089 0.1228 0.36206 0.0
H412 H 0.34396 0.084 0.253 0.0
H413 H 0.36292 0.10362 0.20859 0.0
H414 H 0.34589 0.08065 0.1706 0.0
H415 H 0.32219 0.15023 0.17584 0.0
H416 H 0.32127 0.13119 0.10992 0.0
H417 H 0.34906 0.13648 0.15046 0.0
H418 H 0.35939 0.08609 0.9875 0.0
C419 C 0.33192 0.08761 0.05632 0.0
C420 C 0.5013 0.31184 0.99227 0.0
C421 C 0.49327 0.3349 0.97461 0.0
C422 C 0.47685 0.34619 1.01427 0.0
C423 C 0.47556 0.31251 0.08547 0.0
C424 C 0.49192 0.30079 0.04828 0.0
C425 C 0.49725 0.27638 0.07713 0.0
H426 H 0.46568 0.19536 0.31357 0.0
C427 C 0.46832 0.29712 0.13896 0.0
C428 C 0.48042 0.27537 0.13495 0.0
H429 H 0.52244 0.18554 0.17944 0.0
H430 H 0.5136 0.22429 0.13095 0.0
H431 H 0.48124 0.24247 0.35098 0.0
H432 H 0.42738 0.22027 0.221 0.0
H433 H 0.41533 0.24363 0.26575 0.0
H434 H 0.42546 0.21731 0.30566 0.0
H435 H 0.4517 0.23618 0.37744 0.0
H436 H 0.46091 0.26563 0.35406 0.0
C437 C 0.52341 0.27605 0.09765 0.0
C438 C 0.49138 0.25685 0.02857 0.0
C439 C 0.41786 0.33297 0.31179 0.0
C440 C 0.41067 0.32446 0.37174 0.0
C441 C 0.4101 0.29971 0.38146 0.0
C442 C 0.41985 0.28427 0.33631 0.0
C443 C 0.43036 0.29367 0.28101 0.0
C444 C 0.42792 0.31743 0.26796 0.0
C445 C 0.44001 0.32451 0.2073 0.0
C446 C 0.45196 0.30145 0.1888 0.0
C447 C 0.4464 0.28358 0.23225 0.0
C448 C 0.45845 0.3443 0.22284 0.0
C449 C 0.42039 0.33169 0.15943 0.0
C450 C 0.47607 0.2012 0.27307 0.0
C451 C 0.49442 0.18711 0.24995 0.0
C452 C 0.50803 0.19599 0.1983 0.0
C453 C 0.50294 0.21843 0.17031 0.0
C454 C 0.48447 0.23246 0.19524 0.0
C455 C 0.47175 0.22349 0.24647 0.0
C456 C 0.45458 0.24077 0.27311 0.0
C457 C 0.45813 0.26154 0.22891 0.0
C458 C 0.47546 0.2571 0.18168 0.0
C459 C 0.46224 0.24657 0.34246 0.0
C460 C 0.42931 0.23002 0.26667 0.0
H461 H 0.45583 0.34545 0.09579 0.0
H462 H 0.51408 0.30266 0.96304 0.0
H463 H 0.47278 0.25854 1.01194 0.0
H464 H 0.4933 0.23898 0.04929 0.0
H465 H 0.50329 0.25819 0.98666 0.0
H466 H 0.52754 0.29163 0.1282 0.0
H467 H 0.53529 0.27673 0.05556 0.0
H468 H 0.52767 0.26006 0.12534 0.0
H469 H 0.41847 0.35175 0.30151 0.0
H470 H 0.40391 0.29243 0.42608 0.0
H471 H 0.42018 0.2658 0.34821 0.0
H472 H 0.46724 0.34075 0.26904 0.0
H473 H 0.4499 0.36193 0.2261 0.0
H474 H 0.47316 0.34545 0.18838 0.0
H475 H 0.40267 0.32449 0.17296 0.0
H476 H 0.42362 0.32443 0.11131 0.0
H477 H 0.4187 0.35126 0.15639 0.0
H478 H 0.47068 0.36386 1.00308 0.0
C479 C 0.46806 0.33529 0.06859 0.0
Tb480 Tb 0.99429 0.03555 0.5753 0.0
C481 C 0.08274 0.04283 0.7304 0.0
N482 N 0.07724 0.02505 0.68948 0.0
C483 C 0.1157 0.02913 0.6412 0.0
C484 C 0.10427 0.05556 0.72576 0.0
C485 C 0.09433 0.01668 0.64924 0.0
C486 C 0.12039 0.04913 0.67836 0.0
C487 C 0.0747 0.06143 0.8316 0.0
C488 C 0.06827 0.0458 0.78233 0.0
C489 C 0.09491 0.07589 0.82442 0.0
C490 C 0.10969 0.073 0.77135 0.0
Tb491 Tb 0.03988 1.0087 0.70146 0.0
N492 N 0.04924 0.03123 0.7877 0.0
C493 C 0.06146 0.06089 0.8879 0.0
C494 C 0.0373 0.02928 0.84395 0.0
C495 C 0.0431 0.04425 0.89477 0.0
H496 H 0.09137 1.00064 0.62216 0.0
H497 H 0.03321 0.04318 0.93872 0.0
H498 H 0.94211 1.01115 0.60781 0.0
H499 H 0.04059 0.04189 0.34985 0.0
H500 H 0.02284 0.01672 0.84866 0.0
H501 H 0.06586 0.07253 0.92714 0.0
H502 H 0.02803 0.05603 0.45513 0.0
H503 H 0.12867 0.02304 0.60715 0.0
H504 H 0.09993 0.08843 0.86108 0.0
H505 H 0.12593 0.0833 0.76801 0.0
H506 H 0.91568 0.9808 0.56095 0.0
H507 H 0.13713 0.05846 0.67297 0.0
H508 H 0.02174 1.00617 0.30325 0.0
N509 N 0.96815 1.00841 0.53497 0.0
C510 C 0.97362 0.99921 0.47733 0.0
C511 C 0.93203 0.98567 0.53719 0.0
C512 C 0.95888 0.98212 0.44823 0.0
C513 C 0.94715 1.00272 0.56389 0.0
C514 C 0.93808 0.97507 0.4795 0.0
N515 N 1.00554 0.02626 0.47342 0.0
C516 C 0.02092 0.03948 0.43749 0.0
C517 C 0.99878 1.00019 0.38423 0.0
C518 C 0.99332 1.0081 0.44603 0.0
C519 C 0.01692 1.01174 0.35074 0.0
C520 C 0.02761 0.03188 0.37688 0.0
H521 H 0.9263 0.96193 0.45879 0.0
H522 H 0.95387 0.96008 0.36512 0.0
H523 H 0.98904 0.97566 0.30923 0.0
O524 O 0.97707 0.05582 0.50612 0.0
O525 O 0.99445 0.99712 0.59946 0.0
O526 O 0.0335 0.98895 0.61315 0.0
O527 O 0.97101 0.0625 0.60484 0.0
O528 O 0.03233 0.0448 0.56439 0.0
O529 O 0.05095 1.01165 0.60134 0.0
O530 O 0.03067 0.9738 0.72355 0.0
O531 O 0.021 0.04169 0.72504 0.0
O532 O 0.01809 0.0595 0.62852 0.0
O533 O 0.06282 0.98895 0.7603 0.0
O534 O 1.00266 1.00882 0.7357 0.0
O535 O 0.97628 0.02736 0.6655 0.0
C536 C 0.0126 0.98293 0.5907 0.0
C537 C 0.97383 0.09542 0.53685 0.0
C538 C 1.00226 0.1265 0.5089 0.0
C539 C 0.98401 0.14324 0.5124 0.0
C540 C 0.95588 0.11236 0.54089 0.0
C541 C 0.961 0.1362 0.5288 0.0
C542 C 0.99711 0.10259 0.52139 0.0
C543 C 0.05009 0.02981 0.56242 0.0
C544 C 0.96816 0.07028 0.54738 0.0
C545 C 0.96498 0.97322 0.38823 0.0
C546 C 0.985 0.98212 0.35643 0.0
C547 C 0.01823 0.06093 0.69083 0.0
C548 C 0.04127 0.9626 0.8266 0.0
C549 C 1.00967 0.94892 0.89743 0.0
C550 C 0.02707 0.93847 0.93631 0.0
C551 C 0.05822 0.95218 0.86582 0.0
C552 C 0.01733 0.96231 0.84504 0.0
C553 C 0.05114 0.94067 0.92136 0.0
C554 C 0.9813 0.01643 0.71929 0.0
C555 C 0.04802 0.97127 0.76326 0.0
H556 H 0.98763 0.1618 0.50288 0.0
H557 H 0.93791 0.10712 0.55291 0.0
H558 H 0.94707 0.14924 0.53176 0.0
H559 H 1.01112 0.0896 0.51839 0.0
H560 H 0.02229 0.92758 0.97663 0.0
H561 H 0.07679 0.95237 0.85262 0.0
H562 H 1.00449 0.97145 0.81618 0.0
H563 H 0.06425 0.93232 0.95119 0.0
Tb564 Tb 0.5276 0.04332 0.70805 0.0
C565 C 0.51245 0.94109 0.63369 0.0
N566 N 0.52248 0.95894 0.59929 0.0
C567 C 0.554 0.93312 0.56752 0.0
C568 C 0.5231 0.91857 0.63703 0.0
C569 C 0.54277 0.9551 0.56532 0.0
C570 C 0.54418 0.91479 0.60363 0.0
C571 C 0.48124 0.92769 0.70473 0.0
C572 C 0.4918 0.94567 0.66739 0.0
C573 C 0.49168 0.90521 0.70762 0.0
C574 C 0.51255 0.90066 0.67391 0.0
Tb575 Tb 0.50154 0.99343 0.59643 0.0
N576 N 0.48207 0.96765 0.66338 0.0
C577 C 0.46026 0.93268 0.73726 0.0
C578 C 0.46055 0.97181 0.69095 0.0
C579 C 0.44972 0.95476 0.72965 0.0
H580 H 0.55028 0.96867 0.53547 0.0
H581 H 0.43284 0.95841 0.75199 0.0
H582 H 0.50067 0.04687 0.84632 0.0
H583 H 0.56496 0.11189 0.55726 0.0
H584 H 0.45086 0.98754 0.68063 0.0
H585 H 0.45165 0.91939 0.76659 0.0
H586 H 0.56085 0.07128 0.59896 0.0
H587 H 0.57014 0.93026 0.54082 0.0
H588 H 0.48362 0.89114 0.73533 0.0
H589 H 0.52045 0.88325 0.67691 0.0
H590 H 0.47882 0.07731 0.90755 0.0
H591 H 0.55294 0.89777 0.60518 0.0
H592 H 0.54192 0.14454 0.60505 0.0
N593 N 0.50995 0.07053 0.77196 0.0
C594 C 0.51013 0.09322 0.75094 0.0
C595 C 0.48742 0.082 0.86331 0.0
C596 C 0.49838 0.11126 0.78446 0.0
C597 C 0.49957 0.06479 0.82844 0.0
C598 C 0.48655 0.1053 0.84079 0.0
N599 N 0.5351 0.08054 0.66872 0.0
C600 C 0.55078 0.0853 0.62062 0.0
C601 C 0.52527 0.122 0.67565 0.0
C602 C 0.52336 0.09848 0.69761 0.0
C603 C 0.54006 0.12673 0.62371 0.0
C604 C 0.55314 0.10834 0.5967 0.0
H605 H 0.47725 0.11862 0.86801 0.0
H606 H 0.49026 0.14877 0.78616 0.0
H607 H 0.51379 0.15817 0.69063 0.0
O608 O 0.55912 0.02566 0.72977 0.0
O609 O 0.51064 0.05788 0.62268 0.0
O610 O 0.50562 0.02787 0.54787 0.0
O611 O 0.54776 0.05675 0.78465 0.0
O612 O 0.5522 0.03094 0.63371 0.0
O613 O 0.53479 1.00692 0.55639 0.0
O614 O 0.46987 0.98075 0.55679 0.0
O615 O 0.52567 0.98569 0.67699 0.0
O616 O 0.51318 1.01114 0.75257 0.0
O617 O 0.50196 0.98022 0.50267 0.0
O618 O 0.47563 0.01916 0.63658 0.0
O619 O 0.49238 0.0293 0.73223 0.0
C620 C 0.50669 0.05046 0.56431 0.0
C621 C 0.58439 0.03757 0.8175 0.0
C622 C 0.6153 1.01234 0.86153 0.0
C623 C 0.6212 0.03071 0.90428 0.0
C624 C 0.59077 0.05567 0.85995 0.0
C625 C 0.60924 0.05227 0.90275 0.0
C626 C 0.59705 0.01622 0.81743 0.0
C627 C 0.55293 0.01895 0.57982 0.0
C628 C 0.56331 0.03999 0.77726 0.0
C629 C 0.49936 0.13464 0.76148 0.0
C630 C 0.51277 0.14 0.7071 0.0
C631 C 0.52033 0.98988 0.73676 0.0
C632 C 0.46657 0.98884 0.44912 0.0
C633 C 0.44481 0.02334 0.4104 0.0
C634 C 0.43697 1.00929 0.35869 0.0
C635 C 0.45895 0.97553 0.39703 0.0
C636 C 0.46021 1.01278 0.45442 0.0
C637 C 0.4444 0.98585 0.35161 0.0
C638 C 0.47372 0.02757 0.69503 0.0
C639 C 0.47915 0.9773 0.50126 0.0
H640 H 0.63464 0.02833 0.94023 0.0
H641 H 0.58123 0.07226 0.86086 0.0
H642 H 0.6139 0.06617 0.93599 0.0
H643 H 0.59225 1.00246 0.78388 0.0
H644 H 0.42441 0.01581 0.3244 0.0
H645 H 0.46372 0.95704 0.39243 0.0
H646 H 0.46672 0.02267 0.49451 0.0
H647 H 0.43813 0.97539 0.31186 0.0
Tb648 Tb 0.5403 0.50578 0.58621 0.0
C649 C 0.45465 0.50522 0.77261 0.0
N650 N 0.45869 0.51791 0.7189 0.0
C651 C 0.4187 0.51008 0.68522 0.0
C652 C 0.43283 0.49354 0.78349 0.0
C653 C 0.44045 0.52183 0.67765 0.0
C654 C 0.41503 0.49543 0.73773 0.0
C655 C 0.46758 0.49495 0.87856 0.0
C656 C 0.47172 0.50576 0.81928 0.0
C657 C 0.44644 0.48216 0.88851 0.0
C658 C 0.42912 0.48135 0.84088 0.0
Tb659 Tb 0.496 0.53434 0.70929 0.0
N660 N 0.49205 0.51792 0.80744 0.0
C661 C 0.48463 0.49777 0.92626 0.0
C662 C 0.50832 0.52158 0.8544 0.0
C663 C 0.50499 0.51134 0.91427 0.0
H664 H 0.44227 0.53443 0.63963 0.0
H665 H 0.51808 0.51397 0.95112 0.0
H666 H 0.59103 0.5268 0.6439 0.0
H667 H 0.50039 0.51397 0.3531 0.0
H668 H 0.52388 0.53235 0.84568 0.0
H669 H 0.48208 0.48986 0.97262 0.0
H670 H 0.50716 0.49512 0.45632 0.0
H671 H 0.40459 0.51278 0.65129 0.0
H672 H 0.44307 0.47335 0.93334 0.0
H673 H 0.41258 0.47203 0.84982 0.0
H674 H 0.6217 0.55575 0.6117 0.0
H675 H 0.39802 0.48669 0.74411 0.0
H676 H 0.52634 0.54705 0.31828 0.0
N677 N 0.56967 0.53234 0.56213 0.0
C678 C 0.56819 0.54268 0.50394 0.0
C679 C 0.60661 0.55241 0.58125 0.0
C680 C 0.58549 0.55911 0.48325 0.0
C681 C 0.58902 0.5362 0.59974 0.0
C682 C 0.60473 0.5641 0.52307 0.0
N683 N 0.53333 0.52008 0.48601 0.0
C684 C 0.51699 0.51091 0.44473 0.0
C685 C 0.54702 0.54711 0.40472 0.0
C686 C 0.54908 0.53682 0.46543 0.0
C687 C 0.52858 0.53953 0.36517 0.0
C688 C 0.51379 0.521 0.38481 0.0
H689 H 0.61837 0.57666 0.50896 0.0
H690 H 0.59607 0.58275 0.4071 0.0
H691 H 0.56263 0.57188 0.33788 0.0
O692 O 0.55444 0.48588 0.51131 0.0
O693 O 0.53913 0.54466 0.60553 0.0
O694 O 0.49996 0.55145 0.61682 0.0
O695 O 0.56565 0.47956 0.60669 0.0
O696 O 0.5026 0.49666 0.56841 0.0
O697 O 0.48243 0.52826 0.61198 0.0
O698 O 0.50923 0.56698 0.73943 0.0
O699 O 0.5101 0.49901 0.73356 0.0
O700 O 0.51589 0.48123 0.63679 0.0
O701 O 0.47143 0.55886 0.74857 0.0
O702 O 0.53441 0.53854 0.72974 0.0
O703 O 0.55439 0.50724 0.68319 0.0
C704 C 0.5206 0.55804 0.59425 0.0
C705 C 0.56038 0.44658 0.54002 0.0
C706 C 0.53147 0.41515 0.51982 0.0
C707 C 0.54983 0.39844 0.52276 0.0
C708 C 0.57843 0.42975 0.54333 0.0
C709 C 0.57313 0.40574 0.53464 0.0
C710 C 0.53692 0.43922 0.52826 0.0
C711 C 0.48387 0.51053 0.57106 0.0
C712 C 0.56585 0.47181 0.54863 0.0
C713 C 0.58307 0.56993 0.42366 0.0
C714 C 0.56391 0.5639 0.38447 0.0
C715 C 0.51296 0.47977 0.69891 0.0
C716 C 0.48528 0.59823 0.78312 0.0
C717 C 0.50236 0.63701 0.80758 0.0
C718 C 0.48017 0.64444 0.83021 0.0
C719 C 0.46319 0.60587 0.80553 0.0
C720 C 0.5047 0.61388 0.78432 0.0
C721 C 0.46071 0.62891 0.82902 0.0
C722 C 0.55229 0.52351 0.72779 0.0
C723 C 0.48838 0.57437 0.75636 0.0
H724 H 0.54607 0.3797 0.51703 0.0
H725 H 0.59657 0.43519 0.55252 0.0
H726 H 0.5871 0.39274 0.53731 0.0
H727 H 0.52291 0.45222 0.52564 0.0
H728 H 0.47786 0.66222 0.84851 0.0
H729 H 0.44792 0.59412 0.80473 0.0
H730 H 0.52189 0.60796 0.76789 0.0
H731 H 0.44365 0.63477 0.84631 0.0
Tb732 Tb 0.0274 0.54072 0.59605 0.0
C733 C 0.03519 0.46222 0.79383 0.0
N734 N 0.02598 0.46284 0.73436 0.0
C735 C 0.04642 0.42703 0.70783 0.0
C736 C 0.05127 0.44447 0.81189 0.0
C737 C 0.0306 0.44507 0.69213 0.0
C738 C 0.05698 0.42684 0.76777 0.0
C739 C 0.03772 0.47976 0.89845 0.0
C740 C 0.02845 0.47959 0.83634 0.0
C741 C 0.05451 0.46272 0.91606 0.0
C742 C 0.06119 0.44504 0.87295 0.0
Tb743 Tb 0.99985 0.49257 0.71396 0.0
N744 N 0.01187 0.4955 0.81779 0.0
C745 C 0.02921 0.49652 0.9416 0.0
C746 C 1.00193 0.51025 0.86167 0.0
C747 C 1.01087 0.51152 0.92345 0.0
H748 H 0.02211 0.44476 0.64635 0.0
H749 H 1.00322 0.52366 0.95744 0.0
H750 H 0.02667 0.5932 0.67052 0.0
H751 H 0.99707 0.51692 0.3618 0.0
H752 H 0.98651 0.52041 0.85017 0.0
H753 H 0.03589 0.4973 0.98973 0.0
H754 H 0.02059 0.51253 0.45981 0.0
H755 H 0.05037 0.41322 0.67381 0.0
H756 H 0.062 0.46272 0.96336 0.0
H757 H 0.07388 0.43179 0.88745 0.0
H758 H 1.00421 0.63028 0.66446 0.0
H759 H 0.06932 0.41292 0.77968 0.0
H760 H 0.97156 0.55204 0.34762 0.0
N761 N 1.00938 0.57711 0.59177 0.0
C762 C 0.99552 0.5811 0.54032 0.0
C763 C 1.00122 0.61641 0.62977 0.0
C764 C 0.98309 0.60252 0.53291 0.0
C765 C 0.01344 0.595 0.63427 0.0
C766 C 0.98564 0.62005 0.57941 0.0
N767 N 1.00739 0.544 0.50219 0.0
C768 C 1.00922 0.52766 0.45451 0.0
C769 C 0.98126 0.56756 0.43805 0.0
C770 C 0.99471 0.56406 0.49345 0.0
C771 C 0.98172 0.55009 0.39085 0.0
C772 C 0.99606 0.53021 0.39875 0.0
H773 H 0.97638 0.63674 0.57561 0.0
H774 H 0.95922 0.62217 0.47237 0.0
H775 H 0.95751 0.59143 0.38934 0.0
O776 O 0.05713 0.5322 0.54146 0.0
O777 O 0.9915 0.52693 0.57654 0.0
O778 O 0.97559 0.51918 0.67467 0.0
O779 O 0.05101 0.56819 0.56934 0.0
O780 O 0.034 0.50283 0.57487 0.0
O781 O 1.00112 0.48296 0.61304 0.0
O782 O 0.97557 0.47718 0.77798 0.0
O783 O 0.03882 0.49447 0.6975 0.0
O784 O 0.04635 0.53392 0.68493 0.0
O785 O 0.97695 0.46568 0.68105 0.0
O786 O 0.99256 0.5299 0.7412 0.0
O787 O 0.02316 0.55198 0.69628 0.0
C788 C 0.97312 0.52436 0.6142 0.0
C789 C 0.09036 0.55409 0.57608 0.0
C790 C 0.12589 0.53313 0.60934 0.0
C791 C 0.13506 0.55422 0.63509 0.0
C792 C 0.09961 0.57508 0.60262 0.0
C793 C 0.12184 0.57506 0.63204 0.0
C794 C 0.10372 0.53327 0.57968 0.0
C795 C 0.01847 0.48522 0.57162 0.0
C796 C 0.06642 0.55324 0.54758 0.0
C797 C 0.96908 0.60593 0.47865 0.0
C798 C 0.96814 0.58846 0.43131 0.0
C799 C 0.05261 0.51311 0.70676 0.0
C800 C 0.93948 0.46777 0.72763 0.0
C801 C 0.90476 0.49309 0.72895 0.0
C802 C 0.89059 0.47371 0.71076 0.0
C803 C 0.92522 0.44857 0.7087 0.0
C804 C 0.92918 0.49008 0.73714 0.0
C805 C 0.90085 0.45158 0.70029 0.0
C806 C 1.00646 0.54894 0.73986 0.0
C807 C 0.96519 0.46475 0.73397 0.0
H808 H 0.15235 0.55455 0.65727 0.0
H809 H 0.08966 0.5914 0.60095 0.0
H810 H 0.12888 0.59128 0.65234 0.0
H811 H 0.09706 0.51701 0.55851 0.0
H812 H 0.87165 0.47574 0.70482 0.0
H813 H 0.93295 0.43133 0.70021 0.0
H814 H 0.94004 0.50504 0.75184 0.0
H815 H 0.88989 0.4367 0.68581 0.0
C816 C 0.14568 0.04121 0.27108 0.0
C817 C 0.16822 0.04396 0.29856 0.0
C818 C 0.12516 0.03771 0.30918 0.0
C819 C 0.1271 0.03708 0.37647 0.0
C820 C 0.14991 0.03895 0.40399 0.0
C821 C 0.17 0.04203 0.36503 0.0
C822 C 0.1013 0.03537 0.27755 0.0
C823 C 0.15313 0.03832 0.47511 0.0
C824 C 0.07591 0.05387 0.48783 0.0
C825 C 0.06874 0.0318 0.51194 0.0
C826 C 0.09401 0.05571 0.44161 0.0
C827 C 0.10552 0.03506 0.41889 0.0
C828 C 0.09779 1.01267 0.44182 0.0
C829 C 0.07967 1.01133 0.48799 0.0
C830 C 0.10139 0.07995 0.41904 0.0
C831 C 0.10902 0.99005 0.41871 0.0
H832 H 0.14394 0.04269 0.22004 0.0
H833 H 0.18729 0.04352 0.38709 0.0
H834 H 0.09179 0.01941 0.2954 0.0
H835 H 0.09028 0.05095 0.28955 0.0
H836 H 0.10283 0.03413 0.2251 0.0
H837 H 0.17196 0.04057 0.48933 0.0
H838 H 0.1426 0.05257 0.49771 0.0
H839 H 0.14651 0.02117 0.49413 0.0
H840 H 0.06765 0.06979 0.50601 0.0
H841 H 0.0741 0.99413 0.50562 0.0
H842 H 0.10306 0.08033 0.36662 0.0
H843 H 0.11903 0.08443 0.43915 0.0
H844 H 0.0885 0.09369 0.43386 0.0
H845 H 0.10979 0.98982 0.3661 0.0
H846 H 0.09922 0.97403 0.4352 0.0
H847 H 0.12751 0.98908 0.4363 0.0
C848 C 0.52012 0.15969 0.31561 0.0
C849 C 0.49889 0.16385 0.28285 0.0
C850 C 0.52234 0.14025 0.35789 0.0
C851 C 0.50294 0.1244 0.3677 0.0
C852 C 0.48198 0.12787 0.33195 0.0
C853 C 0.48016 0.1475 0.2907 0.0
C854 C 0.54515 0.13723 0.39408 0.0
C855 C 0.46109 0.11125 0.33896 0.0
C856 C 0.51105 0.06397 0.45015 0.0
C857 C 0.5046 0.06894 0.51324 0.0
C858 C 0.51098 0.08176 0.40275 0.0
C859 C 0.50383 0.10518 0.41797 0.0
C860 C 0.49677 0.11011 0.48135 0.0
C861 C 0.49741 0.09211 0.52794 0.0
C862 C 0.51901 0.07555 0.33653 0.0
C863 C 0.48854 0.13451 0.50023 0.0
H864 H 0.53457 0.17234 0.3108 0.0
H865 H 0.46364 0.15057 0.26594 0.0
H866 H 0.54198 0.14053 0.4453 0.0
H867 H 0.55155 0.11876 0.3894 0.0
H868 H 0.55927 0.14956 0.37733 0.0
H869 H 0.44586 0.1166 0.30911 0.0
H870 H 0.46625 0.09302 0.3253 0.0
H871 H 0.45538 0.11055 0.3893 0.0
H872 H 0.51683 0.04625 0.43806 0.0
H873 H 0.49219 0.09622 0.5762 0.0
H874 H 0.53422 0.08703 0.3227 0.0
H875 H 0.50457 0.07888 0.30215 0.0
H876 H 0.52442 0.05672 0.33236 0.0
H877 H 0.50318 0.14751 0.49346 0.0
H878 H 0.48264 0.13527 0.55051 0.0
H879 H 0.47367 0.14006 0.46939 0.0
C880 C 0.3842 0.51273 0.28877 0.0
C881 C 0.36312 0.50377 0.31546 0.0
C882 C 0.40588 0.51217 0.32304 0.0
C883 C 0.40645 0.50289 0.38585 0.0
C884 C 0.38548 0.49263 0.41106 0.0
C885 C 0.36442 0.49287 0.37546 0.0
C886 C 0.42798 0.52227 0.29281 0.0
C887 C 0.38492 0.48236 0.47727 0.0
C888 C 0.4616 0.48783 0.48474 0.0
C889 C 0.46477 0.50846 0.52137 0.0
C890 C 0.44391 0.48638 0.43725 0.0
C891 C 0.428 0.50547 0.42801 0.0
C892 C 0.43118 0.5263 0.46484 0.0
C893 C 0.44976 0.52774 0.50938 0.0
C894 C 0.44256 0.46455 0.39615 0.0
C895 C 0.41443 0.54692 0.45885 0.0
H896 H 0.38358 0.52103 0.24246 0.0
H897 H 0.34846 0.48528 0.3961 0.0
H898 H 0.432 0.5399 0.31365 0.0
H899 H 0.4434 0.51068 0.30218 0.0
H900 H 0.42593 0.52442 0.24072 0.0
H901 H 0.36719 0.4751 0.49015 0.0
H902 H 0.39809 0.46795 0.48145 0.0
H903 H 0.38982 0.49627 0.51229 0.0
H904 H 0.47311 0.47283 0.49275 0.0
H905 H 0.45233 0.54413 0.53539 0.0
H906 H 0.44825 0.46923 0.34728 0.0
H907 H 0.42408 0.45785 0.39298 0.0
H908 H 0.45415 0.45018 0.41388 0.0
H909 H 0.41424 0.55346 0.40928 0.0
H910 H 0.4193 0.56189 0.49065 0.0
H911 H 0.39613 0.54101 0.47067 0.0
C912 C 0.02595 0.39414 0.26996 0.0
C913 C 0.03415 0.37221 0.29202 0.0
C914 C 0.02163 0.41316 0.31246 0.0
C915 C 0.02593 0.41039 0.37856 0.0
C916 C 0.03332 0.38794 0.40094 0.0
C917 C 0.03726 0.36929 0.35771 0.0
C918 C 0.01351 0.4366 0.28626 0.0
C919 C 0.03824 0.38388 0.47048 0.0
C920 C 0.04133 0.46377 0.48525 0.0
C921 C 0.02027 0.46696 0.5198 0.0
C922 C 0.04322 0.44594 0.43821 0.0
C923 C 0.02353 0.43091 0.42445 0.0
C924 C 1.00205 0.43454 0.45801 0.0
C925 C 1.00074 0.45228 0.50519 0.0
C926 C 0.06663 0.44273 0.40469 0.0
C927 C 0.98047 0.41934 0.44492 0.0
H928 H 0.02407 0.39679 0.2193 0.0
H929 H 0.04405 0.35257 0.37504 0.0
H930 H 0.99783 0.44297 0.31297 0.0
H931 H 0.02779 0.45006 0.29219 0.0
H932 H 1.00891 0.43542 0.23512 0.0
H933 H 0.04286 0.36517 0.4808 0.0
H934 H 0.05315 0.39545 0.48591 0.0
H935 H 0.02255 0.38871 0.49939 0.0
H936 H 0.05657 0.47488 0.49593 0.0
H937 H 0.98425 0.45462 0.53084 0.0
H938 H 0.06398 0.44157 0.35264 0.0
H939 H 0.07475 0.42585 0.42025 0.0
H940 H 0.07924 0.45746 0.41487 0.0
H941 H 0.97642 0.41935 0.39342 0.0
H942 H 0.9646 0.4255 0.47129 0.0
H943 H 0.98405 0.40073 0.45873 0.0
C944 C 0.89122 0.99111 1.00607 0.0
C945 C 0.8691 1.00226 1.00034 0.0
C946 C 0.90987 0.9956 0.96314 0.0
C947 C 0.90692 1.01228 0.91359 0.0
C948 C 0.88542 0.02527 0.91111 0.0
C949 C 0.86669 0.01995 0.95397 0.0
C950 C 0.93223 0.98129 0.96856 0.0
C951 C 0.88172 0.04403 0.86125 0.0
C952 C 0.96408 0.02908 0.82384 0.0
C953 C 0.96225 0.01535 0.76848 0.0
C954 C 0.94585 0.02915 0.86997 0.0
C955 C 0.92552 0.01445 0.86198 0.0
C956 C 0.92373 1.00046 0.806 0.0
C957 C 0.94189 1.00133 0.75968 0.0
C958 C 0.94835 0.04512 0.92707 0.0
C959 C 0.90274 0.98418 0.79559 0.0
H960 H 0.89342 0.97759 0.04209 0.0
H961 H 0.84974 0.02863 0.94869 0.0
H962 H 0.93585 0.9723 0.92287 0.0
H963 H 0.94754 0.99312 0.97859 0.0
H964 H 0.93109 0.96773 1.00666 0.0
H965 H 0.86636 0.05548 0.87266 0.0
H966 H 0.89781 0.05533 0.8562 0.0
H967 H 0.8784 0.03543 0.81473 0.0
H968 H 0.97966 0.04016 0.83053 0.0
H969 H 0.94039 0.99067 0.71704 0.0
H970 H 0.95171 0.0343 0.96996 0.0
H971 H 0.9317 0.05502 0.93532 0.0
H972 H 0.96319 0.05803 0.92158 0.0
H973 H 0.90134 0.97136 0.83539 0.0
H974 H 0.90401 0.97421 0.75026 0.0
H975 H 0.88614 0.99455 0.79511 0.0
C976 C 0.54536 0.89611 0.0174 0.0
C977 C 0.53001 0.87633 0.01763 0.0
C978 C 0.54228 0.91516 0.97477 0.0
C979 C 0.52359 0.91452 0.92981 0.0
C980 C 0.50744 0.89502 0.93156 0.0
C981 C 0.51081 0.87628 0.97536 0.0
C982 C 0.55947 0.9358 0.97685 0.0
C983 C 0.48734 0.89289 0.88485 0.0
C984 C 0.50829 0.9725 0.84288 0.0
C985 C 0.52129 0.97059 0.78609 0.0
C986 C 0.50856 0.9544 0.88936 0.0
C987 C 0.52203 0.93359 0.87928 0.0
C988 C 0.53493 0.93145 0.82166 0.0
C989 C 0.53479 0.95005 0.77664 0.0
C990 C 0.49419 0.95744 0.94917 0.0
C991 C 0.54855 0.90921 0.80706 0.0
H992 H 0.56029 0.89636 0.04971 0.0
H993 H 0.49909 0.86096 0.9741 0.0
H994 H 0.56807 0.9382 0.9299 0.0
H995 H 0.54974 0.95235 0.98742 0.0
H996 H 0.57343 0.93344 1.01333 0.0
H997 H 0.47195 0.88346 0.90638 0.0
H998 H 0.48138 0.91035 0.8671 0.0
H999 H 0.49343 0.88221 0.84383 0.0
H1000 H 0.49766 0.98815 0.85093 0.0
H1001 H 0.54527 0.94846 0.73379 0.0
H1002 H 0.50595 0.95653 0.99122 0.0
H1003 H 0.48107 0.94274 0.95334 0.0
H1004 H 0.4846 0.97456 0.9502 0.0
H1005 H 0.56095 0.90513 0.84626 0.0
H1006 H 0.55869 0.91059 0.76196 0.0
H1007 H 0.536 0.89402 0.80338 0.0
C1008 C 0.64801 0.52893 0.01892 0.0
C1009 C 0.66982 0.53708 0.99458 0.0
C1010 C 0.62803 0.52557 0.97895 0.0
C1011 C 0.6297 0.5306 0.91294 0.0
C1012 C 0.65185 0.53813 0.88806 0.0
C1013 C 0.67148 0.54096 0.92864 0.0
C1014 C 0.60497 0.51708 1.00757 0.0
C1015 C 0.65475 0.54374 0.81838 0.0
C1016 C 0.58624 0.50575 0.78915 0.0
C1017 C 0.57133 0.52513 0.77742 0.0
C1018 C 0.60452 0.50695 0.8348 0.0
C1019 C 0.60853 0.5282 0.86936 0.0
C1020 C 0.59335 0.54775 0.85828 0.0
C1021 C 0.57489 0.54591 0.81312 0.0
C1022 C 0.61985 0.4855 0.84519 0.0
C1023 C 0.59704 0.57093 0.89282 0.0
H1024 H 0.64633 0.52585 0.06948 0.0
H1025 H 0.68827 0.54661 0.90846 0.0
H1026 H 0.59136 0.53104 1.00264 0.0
H1027 H 0.59838 0.5012 0.98172 0.0
H1028 H 0.60678 0.51258 0.05863 0.0
H1029 H 0.67308 0.54956 0.80635 0.0
H1030 H 0.65028 0.52792 0.78937 0.0
H1031 H 0.64233 0.558 0.80463 0.0
H1032 H 0.58359 0.48948 0.76262 0.0
H1033 H 0.56358 0.56103 0.80468 0.0
H1034 H 0.62062 0.48112 0.89646 0.0
H1035 H 0.63823 0.48942 0.82937 0.0
H1036 H 0.61325 0.46971 0.81888 0.0
H1037 H 0.59702 0.56793 0.94483 0.0
H1038 H 0.58318 0.58411 0.88124 0.0
H1039 H 0.6146 0.57855 0.88004 0.0
C1040 C 1.00455 0.65373 1.01165 0.0
C1041 C 0.98947 0.67118 0.98702 0.0
C1042 C 1.00723 0.63146 0.98079 0.0
C1043 C 0.99534 0.62677 0.92237 0.0
C1044 C 0.9796 0.64406 0.89878 0.0
C1045 C 0.97614 0.66523 0.93255 0.0
C1046 C 0.02331 0.61342 1.01064 0.0
C1047 C 0.9671 0.64083 0.83584 0.0
C1048 C 0.02231 0.58474 0.79915 0.0
C1049 C 1.00428 0.56761 0.7909 0.0
C1050 C 0.01992 0.60373 0.84227 0.0
C1051 C 0.99991 0.6048 0.88296 0.0
C1052 C 0.98276 0.58628 0.87934 0.0
C1053 C 0.98454 0.56867 0.83169 0.0
C1054 C 0.03864 0.62299 0.8428 0.0
C1055 C 0.96284 0.58473 0.92701 0.0
H1056 H 0.01474 0.65759 0.05399 0.0
H1057 H 0.96331 0.67768 0.91434 0.0
H1058 H 0.01978 0.59517 0.9932 0.0
H1059 H 0.04201 0.6182 1.00002 0.0
H1060 H 0.02127 0.61363 0.06308 0.0
H1061 H 0.95768 0.65707 0.82063 0.0
H1062 H 0.98007 0.63605 0.79832 0.0
H1063 H 0.95395 0.62618 0.8391 0.0
H1064 H 0.03827 0.5837 0.77069 0.0
H1065 H 0.97035 0.55579 0.82647 0.0
H1066 H 0.04876 0.62213 0.88774 0.0
H1067 H 0.03031 0.64073 0.84017 0.0
H1068 H 0.05132 0.62125 0.80269 0.0
H1069 H 0.97047 0.58226 0.97505 0.0
H1070 H 0.95053 0.56973 0.917 0.0
H1071 H 0.95265 0.60142 0.9284 0.0
C1072 C 0.12503 0.17987 0.38187 0.0
C1073 C 0.11871 0.20388 0.3786 0.0
C1074 C 0.11095 0.16362 0.41581 0.0
C1075 C 0.09092 0.17182 0.4494 0.0
C1076 C 0.08782 0.19644 0.45772 0.0
C1077 C 0.10154 0.21224 0.42163 0.0
C1078 C 0.1158 0.13758 0.40915 0.0
C1079 C 0.06779 0.20604 0.49751 0.0
C1080 C 0.03019 0.14427 0.4309 0.0
C1081 C 0.02643 0.13422 0.49064 0.0
C1082 C 0.05204 0.15468 0.41522 0.0
C1083 C 0.07032 0.15579 0.46136 0.0
C1084 C 0.06705 0.14438 0.52057 0.0
C1085 C 0.04518 0.13341 0.53409 0.0
C1086 C 0.05497 0.16586 0.35048 0.0
C1087 C 0.08563 0.14516 0.57193 0.0
H1088 H 0.13936 0.17331 0.35262 0.0
H1089 H 0.09663 0.23074 0.4222 0.0
H1090 H 0.11359 0.12862 0.45559 0.0
H1091 H 0.10286 0.12975 0.37536 0.0
H1092 H 0.13396 0.13418 0.39099 0.0
H1093 H 0.07072 0.22499 0.50993 0.0
H1094 H 0.05096 0.20458 0.47051 0.0
H1095 H 0.06572 0.19566 0.54191 0.0
H1096 H 0.01574 0.14455 0.39702 0.0
H1097 H 0.04247 0.12542 0.58006 0.0
H1098 H 0.07211 0.16062 0.32892 0.0
H1099 H 0.05506 0.18546 0.3552 0.0
H1100 H 0.04043 0.16071 0.31763 0.0
H1101 H 0.10368 0.14864 0.55313 0.0
H1102 H 0.08571 0.12823 0.59886 0.0
H1103 H 0.08117 0.15949 0.60593 0.0
C1104 C 0.37028 0.14148 0.41692 0.0
C1105 C 0.34825 0.12993 0.42156 0.0
C1106 C 0.39097 0.13011 0.43732 0.0
C1107 C 0.38938 0.10638 0.45881 0.0
C1108 C 0.3669 0.09678 0.47496 0.0
C1109 C 0.34648 0.10899 0.45707 0.0
C1110 C 0.41452 0.14239 0.4283 0.0
C1111 C 0.36423 0.07206 0.5017 0.0
C1112 C 0.42488 0.06044 0.37112 0.0
C1113 C 0.43524 0.04786 0.42127 0.0
C1114 C 0.41092 0.08043 0.38235 0.0
C1115 C 0.40888 0.08955 0.44487 0.0
C1116 C 0.42226 0.07926 0.49413 0.0
C1117 C 0.4346 0.05818 0.48238 0.0
C1118 C 0.3969 0.09054 0.32764 0.0
C1119 C 0.4227 0.0894 0.56041 0.0
H1120 H 0.37166 0.1581 0.39132 0.0
H1121 H 0.3294 0.10023 0.46213 0.0
H1122 H 0.42858 0.13411 0.4574 0.0
H1123 H 0.41968 0.14169 0.37756 0.0
H1124 H 0.41312 0.1614 0.44144 0.0
H1125 H 0.34556 0.0677 0.51415 0.0
H1126 H 0.37051 0.05887 0.46644 0.0
H1127 H 0.37518 0.0702 0.54496 0.0
H1128 H 0.4266 0.05414 0.32288 0.0
H1129 H 0.44259 0.04952 0.52262 0.0
H1130 H 0.40169 0.10941 0.3202 0.0
H1131 H 0.37766 0.08966 0.3385 0.0
H1132 H 0.40002 0.0809 0.28244 0.0
H1133 H 0.44129 0.09041 0.57757 0.0
H1134 H 0.41301 0.07731 0.59313 0.0
H1135 H 0.41485 0.10735 0.56325 0.0
C1136 C 0.42352 0.33498 0.4813 0.0
C1137 C 0.41091 0.34129 0.42641 0.0
C1138 C 0.43668 0.35212 0.51445 0.0
C1139 C 0.43753 0.37553 0.49077 0.0
C1140 C 0.42019 0.38279 0.44677 0.0
C1141 C 0.40647 0.36545 0.41588 0.0
C1142 C 0.45302 0.34432 0.56683 0.0
C1143 C 0.41901 0.40804 0.42435 0.0
C1144 C 0.48807 0.41533 0.54741 0.0
C1145 C 0.50667 0.40732 0.50874 0.0
C1146 C 0.46511 0.40575 0.5418 0.0
C1147 C 0.46049 0.38857 0.49434 0.0
C1148 C 0.47887 0.38196 0.45181 0.0
C1149 C 0.50176 0.3911 0.46033 0.0
C1150 C 0.44627 0.41406 0.58741 0.0
C1151 C 0.47468 0.36455 0.39829 0.0
H1152 H 0.42621 0.31651 0.49297 0.0
H1153 H 0.39523 0.37065 0.3767 0.0
H1154 H 0.47068 0.34022 0.54642 0.0
H1155 H 0.45536 0.35862 0.60261 0.0
H1156 H 0.44613 0.32812 0.59073 0.0
H1157 H 0.40159 0.41198 0.40242 0.0
H1158 H 0.42214 0.42049 0.46429 0.0
H1159 H 0.43303 0.41103 0.38813 0.0
H1160 H 0.49155 0.42844 0.58375 0.0
H1161 H 0.51596 0.38544 0.42918 0.0
H1162 H 0.45391 0.41689 0.63541 0.0
H1163 H 0.43112 0.4015 0.59134 0.0
H1164 H 0.43948 0.4314 0.57085 0.0
H1165 H 0.47135 0.34659 0.41796 0.0
H1166 H 0.49007 0.3635 0.36549 0.0
H1167 H 0.45888 0.36968 0.37037 0.0
C1168 C 0.19975 0.42251 0.50238 0.0
C1169 C 0.1912 0.42319 0.43989 0.0
C1170 C 0.18722 0.43369 0.55142 0.0
C1171 C 0.16631 0.44607 0.53636 0.0
C1172 C 0.15536 0.44236 0.47668 0.0
C1173 C 0.16786 0.43044 0.42921 0.0
C1174 C 0.19802 0.43514 0.61665 0.0
C1175 C 0.13245 0.45442 0.45913 0.0
C1176 C 0.12928 0.48966 0.62687 0.0
C1177 C 0.13974 0.51109 0.6076 0.0
C1178 C 0.13947 0.46786 0.61125 0.0
C1179 C 0.15993 0.46765 0.57257 0.0
C1180 C 0.17161 0.48936 0.55728 0.0
C1181 C 0.16153 0.51085 0.57622 0.0
C1182 C 0.1277 0.44518 0.63342 0.0
C1183 C 0.19333 0.49013 0.51508 0.0
H1184 H 0.21752 0.41613 0.51125 0.0
H1185 H 0.16089 0.43045 0.38129 0.0
H1186 H 0.20955 0.45111 0.6199 0.0
H1187 H 0.18409 0.43651 0.65371 0.0
H1188 H 0.20913 0.41938 0.62639 0.0
H1189 H 0.12534 0.44795 0.41308 0.0
H1190 H 0.11879 0.45143 0.49617 0.0
H1191 H 0.13553 0.47384 0.45537 0.0
H1192 H 0.11236 0.48998 0.65069 0.0
H1193 H 0.16949 0.52748 0.56111 0.0
H1194 H 0.13893 0.43699 0.67046 0.0
H1195 H 0.12599 0.43213 0.59432 0.0
H1196 H 0.10985 0.44836 0.65391 0.0
H1197 H 0.20762 0.47917 0.53553 0.0
H1198 H 0.20032 0.50843 0.50852 0.0
H1199 H 0.18897 0.48273 0.46765 0.0
C1200 C 0.88969 0.8773 0.9552 0.0
C1201 C 0.90086 0.85541 0.94499 0.0
C1202 C 0.9009 0.89866 0.93741 0.0
C1203 C 0.92393 0.89795 0.91084 0.0
C1204 C 0.93358 0.87595 0.89216 0.0
C1205 C 0.92143 0.85509 0.90718 0.0
C1206 C 0.88888 0.92175 0.95239 0.0
C1207 C 0.95826 0.87399 0.86414 0.0
C1208 C 0.96884 0.94135 0.85209 0.0
C1209 C 0.98395 0.94283 0.90532 0.0
C1210 C 0.94668 0.93008 0.85596 0.0
C1211 C 0.94007 0.9188 0.91302 0.0
C1212 C 0.95361 0.92279 0.96862 0.0
C1213 C 0.9751 0.93534 0.96433 0.0
C1214 C 0.93147 0.92821 0.79732 0.0
C1215 C 0.9467 0.91181 0.03139 0.0
H1216 H 0.87317 0.87791 0.98145 0.0
H1217 H 0.93007 0.83858 0.89619 0.0
H1218 H 0.89009 0.92527 1.00408 0.0
H1219 H 0.89683 0.93695 0.92634 0.0
H1220 H 0.86975 0.92046 0.94035 0.0
H1221 H 0.96334 0.85535 0.8543 0.0
H1222 H 0.9595 0.88398 0.81907 0.0
H1223 H 0.97149 0.88169 0.89736 0.0
H1224 H 0.97472 0.94724 0.80582 0.0
H1225 H 0.98567 0.93776 1.00668 0.0
H1226 H 0.91237 0.92851 0.81001 0.0
H1227 H 0.93496 0.91127 0.7725 0.0
H1228 H 0.93542 0.94285 0.7636 0.0
H1229 H 0.92858 0.9174 0.04476 0.0
H1230 H 0.959 0.91694 0.07024 0.0
H1231 H 0.94656 0.89218 0.02726 0.0
C1232 C 0.66912 0.90337 0.01522 0.0
C1233 C 0.68954 0.89439 0.98568 0.0
C1234 C 0.65317 0.91739 0.98152 0.0
C1235 C 0.65759 0.92215 0.91669 0.0
C1236 C 0.67519 0.90919 0.88412 0.0
C1237 C 0.69099 0.89524 0.91913 0.0
C1238 C 0.63407 0.93019 0.01798 0.0
C1239 C 0.67945 0.9125 0.81403 0.0
C1240 C 0.6148 0.96762 0.85326 0.0
C1241 C 0.62726 0.98887 0.86558 0.0
C1242 C 0.62535 0.94547 0.86331 0.0
C1243 C 0.64834 0.94451 0.88948 0.0
C1244 C 0.66148 0.96576 0.89858 0.0
C1245 C 0.65096 0.98758 0.88518 0.0
C1246 C 0.61147 0.9232 0.84861 0.0
C1247 C 0.68622 0.9656 0.92616 0.0
H1248 H 0.66718 0.90247 0.06629 0.0
H1249 H 0.706 0.88733 0.89518 0.0
H1250 H 0.6399 0.94874 0.02693 0.0
H1251 H 0.6174 0.9308 0.99041 0.0
H1252 H 0.63032 0.92163 0.06443 0.0
H1253 H 0.6874 0.89637 0.79278 0.0
H1254 H 0.66281 0.91668 0.78859 0.0
H1255 H 0.69207 0.92744 0.80676 0.0
H1256 H 0.59647 0.9681 0.83816 0.0
H1257 H 0.66117 1.00371 0.8922 0.0
H1258 H 0.60277 0.91654 0.89238 0.0
H1259 H 0.6232 0.90898 0.83071 0.0
H1260 H 0.59757 0.92664 0.81264 0.0
H1261 H 0.68573 0.9581 0.97485 0.0
H1262 H 0.69424 0.98363 0.92862 0.0
H1263 H 0.69795 0.95421 0.89715 0.0
C1264 C 0.62453 0.69295 0.8986 0.0
C1265 C 0.62242 0.71771 0.90102 0.0
C1266 C 0.60799 0.67922 0.86479 0.0
C1267 C 0.58944 0.6907 0.83214 0.0
C1268 C 0.59035 0.71554 0.82383 0.0
C1269 C 0.60696 0.72884 0.85836 0.0
C1270 C 0.60826 0.65263 0.87229 0.0
C1271 C 0.57148 0.72842 0.78706 0.0
C1272 C 0.53971 0.65366 0.76007 0.0
C1273 C 0.52355 0.65265 0.81083 0.0
C1274 C 0.56115 0.66631 0.76533 0.0
C1275 C 0.56652 0.67806 0.82288 0.0
C1276 C 0.5499 0.67768 0.87355 0.0
C1277 C 0.52862 0.66501 0.86678 0.0
C1278 C 0.57823 0.66627 0.71013 0.0
C1279 C 0.55483 0.69017 0.93577 0.0
H1280 H 0.63706 0.68424 0.9296 0.0
H1281 H 0.60539 0.74798 0.85848 0.0
H1282 H 0.5953 0.64735 0.90949 0.0
H1283 H 0.603 0.6437 0.82751 0.0
H1284 H 0.62603 0.64623 0.88668 0.0
H1285 H 0.57758 0.74639 0.77259 0.0
H1286 H 0.56621 0.71831 0.74411 0.0
H1287 H 0.55552 0.7304 0.81744 0.0
H1288 H 0.53573 0.64426 0.71641 0.0
H1289 H 0.51632 0.66403 0.9063 0.0
H1290 H 0.59206 0.65278 0.71866 0.0
H1291 H 0.58727 0.6837 0.70479 0.0
H1292 H 0.56917 0.66178 0.66486 0.0
H1293 H 0.57092 0.68271 0.95814 0.0
H1294 H 0.53987 0.68844 0.96985 0.0
H1295 H 0.55825 0.70931 0.92736 0.0
C1296 C 0.8662 0.61206 0.88882 0.0
C1297 C 0.84139 0.61329 0.88566 0.0
C1298 C 0.87875 0.59683 0.84852 0.0
C1299 C 0.8662 0.58337 0.80275 0.0
C1300 C 0.84213 0.58842 0.79085 0.0
C1301 C 0.82985 0.60314 0.83302 0.0
C1302 C 0.9046 0.59258 0.86191 0.0
C1303 C 0.82847 0.57558 0.73962 0.0
C1304 C 0.89908 0.5363 0.70855 0.0
C1305 C 0.89398 0.51604 0.74454 0.0
C1306 C 0.88981 0.55845 0.72561 0.0
C1307 C 0.87585 0.56029 0.78125 0.0
C1308 C 0.87079 0.53972 0.81778 0.0
C1309 C 0.87968 0.51779 0.79838 0.0
C1310 C 0.89525 0.57977 0.68472 0.0
C1311 C 0.85623 0.54085 0.87803 0.0
H1312 H 0.87551 0.62084 0.92729 0.0
H1313 H 0.81077 0.60426 0.82857 0.0
H1314 H 0.90614 0.57726 0.89464 0.0
H1315 H 0.91457 0.58835 0.81807 0.0
H1316 H 0.91292 0.60826 0.88498 0.0
H1317 H 0.81231 0.58546 0.7259 0.0
H1318 H 0.83963 0.57284 0.69684 0.0
H1319 H 0.82287 0.55788 0.75744 0.0
H1320 H 0.91024 0.53479 0.66706 0.0
H1321 H 0.87604 0.50204 0.82635 0.0
H1322 H 0.90907 0.59083 0.70789 0.0
H1323 H 0.87929 0.5909 0.67861 0.0
H1324 H 0.90192 0.57454 0.63719 0.0
H1325 H 0.86415 0.5539 0.91143 0.0
H1326 H 0.85498 0.52342 0.90236 0.0
H1327 H 0.83801 0.54682 0.867 0.0
C1328 C 0.04856 0.18033 0.87617 0.0
C1329 C 0.02983 0.19255 0.90585 0.0
C1330 C 0.04461 0.16017 0.83787 0.0
C1331 C 0.02121 0.15201 0.82642 0.0
C1332 C 1.00205 0.16516 0.85231 0.0
C1333 C 1.00655 0.18506 0.89198 0.0
C1334 C 0.06568 0.14706 0.8114 0.0
C1335 C 0.97677 0.15781 0.8393 0.0
C1336 C 0.01633 0.1061 0.69135 0.0
C1337 C 0.01644 0.08452 0.72445 0.0
C1338 C 0.01654 0.12822 0.72343 0.0
C1339 C 0.0172 0.12897 0.79083 0.0
C1340 C 0.01598 0.10722 0.82442 0.0
C1341 C 0.01512 0.08554 0.791 0.0
C1342 C 0.01685 0.15068 0.68468 0.0
C1343 C 0.01667 0.10669 0.89601 0.0
H1344 H 0.06664 0.18622 0.88411 0.0
H1345 H 0.99183 0.1942 0.91389 0.0
H1346 H 0.06562 0.12855 0.8293 0.0
H1347 H 0.06451 0.1462 0.75891 0.0
H1348 H 0.0828 0.15559 0.82447 0.0
H1349 H 0.96388 0.17104 0.85712 0.0
H1350 H 0.97407 0.15537 0.78753 0.0
H1351 H 0.97295 0.14053 0.86242 0.0
H1352 H 0.01628 0.10569 0.64026 0.0
H1353 H 0.01363 0.06927 0.81749 0.0
H1354 H 0.03551 0.15611 0.67574 0.0
H1355 H 1.00785 0.16542 0.70961 0.0
H1356 H 1.00814 0.14792 0.63807 0.0
H1357 H 0.03453 0.11238 0.91232 0.0
H1358 H 0.01289 0.08873 0.91527 0.0
H1359 H 1.00367 0.11923 0.91632 0.0
C1360 C 0.35444 0.07134 0.86571 0.0
C1361 C 0.34393 0.0539 0.90475 0.0
C1362 C 0.37305 0.06601 0.82346 0.0
C1363 C 0.38105 0.04236 0.81752 0.0
C1364 C 0.36865 0.02423 0.85123 0.0
C1365 C 0.3505 0.03021 0.89505 0.0
C1366 C 0.38565 0.08614 0.78994 0.0
C1367 C 0.3756 0.99861 0.84408 0.0
C1368 C 0.42863 0.03154 0.68856 0.0
C1369 C 0.44962 0.0313 0.72456 0.0
C1370 C 0.4061 0.0341 0.71782 0.0
C1371 C 0.4044 0.03745 0.78464 0.0
C1372 C 0.42557 0.03738 0.82077 0.0
C1373 C 0.44754 0.03371 0.79074 0.0
C1374 C 0.38422 0.03336 0.67685 0.0
C1375 C 0.42517 0.04159 0.89159 0.0
H1376 H 0.34937 0.08969 0.87213 0.0
H1377 H 0.34264 0.01653 0.92464 0.0
H1378 H 0.40385 0.08811 0.8093 0.0
H1379 H 0.38734 0.08231 0.73857 0.0
H1380 H 0.37631 0.10327 0.7958 0.0
H1381 H 0.3616 0.98643 0.86229 0.0
H1382 H 0.37916 0.99435 0.79353 0.0
H1383 H 0.39211 0.99532 0.87103 0.0
H1384 H 0.42974 0.02942 0.63752 0.0
H1385 H 0.46318 0.03253 0.81992 0.0
H1386 H 0.36945 0.02396 0.70125 0.0
H1387 H 0.38769 0.0245 0.63069 0.0
H1388 H 0.37839 0.0517 0.6668 0.0
H1389 H 0.41623 0.05861 0.90222 0.0
H1390 H 0.44324 0.04221 0.91239 0.0
H1391 H 0.41493 0.0273 0.91548 0.0
C1392 C 0.48278 0.35683 0.87527 0.0
C1393 C 0.5006 0.34853 0.91616 0.0
C1394 C 0.48667 0.37611 0.83371 0.0
C1395 C 0.50916 0.38748 0.83149 0.0
C1396 C 0.52788 0.37778 0.86826 0.0
C1397 C 0.52334 0.35866 0.91056 0.0
C1398 C 0.46607 0.38549 0.79593 0.0
C1399 C 0.55234 0.38869 0.8663 0.0
C1400 C 0.51831 0.43467 0.70034 0.0
C1401 C 0.51315 0.45594 0.73228 0.0
C1402 C 0.51761 0.41238 0.73167 0.0
C1403 C 0.51197 0.41106 0.79732 0.0
C1404 C 0.50769 0.43253 0.83029 0.0
C1405 C 0.50857 0.45442 0.7978 0.0
C1406 C 0.52312 0.39023 0.69456 0.0
C1407 C 0.50137 0.43242 0.89994 0.0
H1408 H 0.46507 0.34937 0.87956 0.0
H1409 H 0.53717 0.35279 0.9424 0.0
H1410 H 0.46103 0.40318 0.8145 0.0
H1411 H 0.47114 0.38782 0.74541 0.0
H1412 H 0.45031 0.37359 0.79841 0.0
H1413 H 0.5657 0.37715 0.88917 0.0
H1414 H 0.55782 0.39214 0.81654 0.0
H1415 H 0.5522 0.40598 0.89145 0.0
H1416 H 0.5231 0.43543 0.65087 0.0
H1417 H 0.50562 0.47044 0.82431 0.0
H1418 H 0.54025 0.38294 0.71099 0.0
H1419 H 0.52439 0.39368 0.64291 0.0
H1420 H 0.50935 0.37642 0.7027 0.0
H1421 H 0.48339 0.42463 0.90617 0.0
H1422 H 0.5015 0.4505 0.92071 0.0
H1423 H 0.5139 0.42134 0.92717 0.0
C1424 C 0.15807 0.50002 0.96015 0.0
C1425 C 0.18122 0.50018 0.93511 0.0
C1426 C 0.13795 0.50278 0.9212 0.0
C1427 C 0.14067 0.50562 0.85472 0.0
C1428 C 0.16403 0.50621 0.82911 0.0
C1429 C 0.18395 0.50365 0.86949 0.0
C1430 C 0.11365 0.5023 0.95133 0.0
C1431 C 0.16806 0.50865 0.7587 0.0
C1432 C 0.08609 0.48901 0.75417 0.0
C1433 C 0.07564 0.51108 0.74243 0.0
C1434 C 0.10737 0.487 0.78912 0.0
C1435 C 0.11895 0.50761 0.81282 0.0
C1436 C 0.10889 0.53004 0.79934 0.0
C1437 C 0.08752 0.53149 0.76461 0.0
C1438 C 0.11757 0.46274 0.80042 0.0
C1439 C 0.12055 0.55259 0.82251 0.0
H1440 H 0.15565 0.49759 1.01078 0.0
H1441 H 0.20165 0.50357 0.84938 0.0
H1442 H 0.10385 0.51862 0.9388 0.0
H1443 H 0.1033 0.48701 0.93268 0.0
H1444 H 0.11445 0.50086 1.00384 0.0
H1445 H 0.18677 0.51323 0.74729 0.0
H1446 H 0.16363 0.49158 0.73519 0.0
H1447 H 0.15639 0.5224 0.73846 0.0
H1448 H 0.07807 0.47327 0.73406 0.0
H1449 H 0.07996 0.54876 0.75548 0.0
H1450 H 0.1183 0.4591 0.8521 0.0
H1451 H 0.13599 0.46207 0.78204 0.0
H1452 H 0.107 0.44848 0.77729 0.0
H1453 H 0.12125 0.55255 0.87513 0.0
H1454 H 0.11099 0.56867 0.80666 0.0
H1455 H 0.13908 0.55362 0.80493 0.0
C1456 C 1.00424 0.84994 0.43862 0.0
C1457 C 0.99743 0.85099 0.37465 0.0
C1458 C 1.0074 0.8709 0.47516 0.0
C1459 C 1.00392 0.89358 0.44718 0.0
C1460 C 0.998 0.89458 0.38184 0.0
C1461 C 0.99462 0.87346 0.34697 0.0
C1462 C 0.0138 0.86877 0.54433 0.0
C1463 C 0.99405 0.91789 0.34869 0.0
C1464 C 0.98834 0.94782 0.55056 0.0
C1465 C 1.01011 0.95995 0.55483 0.0
C1466 C 0.9861 0.92626 0.51641 0.0
C1467 C 1.00616 0.9162 0.48594 0.0
C1468 C 0.02822 0.92836 0.49054 0.0
C1469 C 0.02992 0.94985 0.5249 0.0
C1470 C 0.96211 0.91443 0.51216 0.0
C1471 C 0.05 0.91894 0.45776 0.0
H1472 H 1.0062 0.83273 0.46072 0.0
H1473 H 0.98923 0.87453 0.29767 0.0
H1474 H 0.03016 0.87913 0.55438 0.0
H1475 H 0.99943 0.87634 0.57395 0.0
H1476 H 0.01662 0.85007 0.55882 0.0
H1477 H 0.97564 0.92362 0.35816 0.0
H1478 H 1.0063 0.93192 0.36612 0.0
H1479 H 0.99625 0.91623 0.29648 0.0
H1480 H 0.973 0.95512 0.57429 0.0
H1481 H 0.04687 0.95896 0.52752 0.0
H1482 H 0.9633 0.8956 0.527 0.0
H1483 H 0.95597 0.91464 0.46217 0.0
H1484 H 0.94864 0.9234 0.54204 0.0
H1485 H 0.05354 0.90058 0.47379 0.0
H1486 H 0.06597 0.93006 0.46697 0.0
H1487 H 0.04693 0.91824 0.40578 0.0
C1488 C 0.67806 0.99138 0.41675 0.0
C1489 C 0.68546 1.00703 0.36846 0.0
C1490 C 0.65715 0.99515 0.45196 0.0
C1491 C 0.64308 0.01534 0.43987 0.0
C1492 C 0.65106 0.03195 0.39364 0.0
C1493 C 0.67205 0.0276 0.3585 0.0
C1494 C 0.64964 0.9769 0.50056 0.0
C1495 C 0.63693 0.05391 0.37959 0.0
C1496 C 0.57704 1.00901 0.48172 0.0
C1497 C 0.57569 0.01949 0.54222 0.0
C1498 C 0.59858 1.00813 0.4475 0.0
C1499 C 0.61955 0.01821 0.47352 0.0
C1500 C 0.61817 0.02953 0.53356 0.0
C1501 C 0.59643 0.02996 0.5671 0.0
C1502 C 0.599 0.99575 0.38399 0.0
C1503 C 0.63985 0.04075 0.56323 0.0
H1504 H 0.6884 0.97564 0.42601 0.0
H1505 H 0.67737 0.0398 0.32133 0.0
H1506 H 0.64678 0.98547 0.5473 0.0
H1507 H 0.63254 0.96868 0.48614 0.0
H1508 H 0.66294 0.96264 0.50627 0.0
H1509 H 0.64652 0.06622 0.34721 0.0
H1510 H 0.61985 0.0488 0.35723 0.0
H1511 H 0.6327 0.06344 0.42423 0.0
H1512 H 0.56126 1.00113 0.46111 0.0
H1513 H 0.59584 0.03823 0.6135 0.0
H1514 H 0.6108 0.98013 0.38644 0.0
H1515 H 0.60632 1.0078 0.34715 0.0
H1516 H 0.5811 0.98968 0.36887 0.0
H1517 H 0.65292 0.02683 0.57482 0.0
H1518 H 0.63555 0.05062 0.60738 0.0
H1519 H 0.64848 0.05312 0.52922 0.0
C1520 C 0.5294 0.68969 0.43335 0.0
C1521 C 0.5352 0.68758 0.36875 0.0
C1522 C 0.52543 0.66935 0.47174 0.0
C1523 C 0.52765 0.64621 0.44541 0.0
C1524 C 0.53258 0.64417 0.37958 0.0
C1525 C 0.53633 0.66471 0.34253 0.0
C1526 C 0.5199 0.6726 0.54123 0.0
C1527 C 0.53577 0.62029 0.34867 0.0
C1528 C 0.54413 0.59335 0.55226 0.0
C1529 C 0.52255 0.58094 0.55784 0.0
C1530 C 0.54601 0.61455 0.51656 0.0
C1531 C 0.52569 0.62418 0.48653 0.0
C1532 C 0.50372 0.61201 0.49351 0.0
C1533 C 0.50244 0.59069 0.52869 0.0
C1534 C 0.56992 0.62647 0.51015 0.0
C1535 C 0.48156 0.62129 0.46257 0.0
H1536 H 0.52916 0.70719 0.4546 0.0
H1537 H 0.5415 0.66283 0.2932 0.0
H1538 H 0.50402 0.66198 0.55454 0.0
H1539 H 0.5349 0.66608 0.5702 0.0
H1540 H 0.51674 0.69147 0.55353 0.0
H1541 H 0.53411 0.62132 0.29622 0.0
H1542 H 0.55378 0.61382 0.35995 0.0
H1543 H 0.52276 0.60707 0.36673 0.0
H1544 H 0.55962 0.58649 0.57604 0.0
H1545 H 0.48559 0.58143 0.53263 0.0
H1546 H 0.56897 0.64504 0.52724 0.0
H1547 H 0.57517 0.62705 0.4594 0.0
H1548 H 0.58391 0.61712 0.53717 0.0
H1549 H 0.47859 0.63996 0.47697 0.0
H1550 H 0.4656 0.6106 0.47511 0.0
H1551 H 0.48374 0.62108 0.41023 0.0
C1552 C 0.86797 0.5264 0.36412 0.0
C1553 C 0.84584 0.53394 0.38669 0.0
C1554 C 0.88718 0.52245 0.40555 0.0
C1555 C 0.88439 0.52602 0.47181 0.0
C1556 C 0.86162 0.53219 0.49533 0.0
C1557 C 0.84275 0.53635 0.45254 0.0
C1558 C 0.91099 0.51612 0.37774 0.0
C1559 C 0.8576 0.53612 0.56535 0.0
C1560 C 0.93546 0.50438 0.57742 0.0
C1561 C 0.94907 0.52512 0.58501 0.0
C1562 C 0.91392 0.5045 0.54309 0.0
C1563 C 0.90585 0.52581 0.51475 0.0
C1564 C 0.91933 0.5469 0.52402 0.0
C1565 C 0.94063 0.54626 0.55893 0.0
C1566 C 0.90004 0.48171 0.53603 0.0
C1567 C 0.91173 0.5701 0.4952 0.0
H1568 H 0.87074 0.5252 0.31329 0.0
H1569 H 0.826 0.5429 0.47033 0.0
H1570 H 0.92352 0.53121 0.38415 0.0
H1571 H 0.91853 0.50065 0.40286 0.0
H1572 H 0.90986 0.51193 0.32631 0.0
H1573 H 0.83843 0.53661 0.57737 0.0
H1574 H 0.86613 0.52199 0.59369 0.0
H1575 H 0.86574 0.55327 0.57962 0.0
H1576 H 0.94203 0.4879 0.59673 0.0
H1577 H 0.9508 0.56239 0.56556 0.0
H1578 H 0.89791 0.47728 0.48505 0.0
H1579 H 0.88202 0.48392 0.55625 0.0
H1580 H 0.90873 0.46661 0.56023 0.0
H1581 H 0.91426 0.56938 0.44301 0.0
H1582 H 0.92206 0.58537 0.51415 0.0
H1583 H 0.89266 0.5733 0.50437 0.0
loop_
_geom_bond_atom_site_label_1
_geom_bond_atom_site_label_2
_geom_bond_distance
_geom_bond_site_symmetry_2
_ccdc_geom_bond_type
C0 C1 1.391 . S
C0 C4 1.391 . S
C0 H42 0.948 . S
C1 C0 1.391 . S
C1 C2 1.391 . S
C2 C1 1.391 . S
C2 H58 0.947 . S
C2 C59 1.392 . S
C3 C4 1.391 . S
C3 C7 1.397 . S
C3 C59 1.419 . S
C4 C0 1.391 . S
C4 C3 1.391 . S
C4 C5 1.399 . S
C5 C4 1.399 . S
C5 C8 1.396 . S
C5 C17 1.453 . S
C5 C18 1.684 . S
H6 C30 0.948 . S
C7 C3 1.397 . S
C7 C8 1.394 . S
C7 C26 1.723 . S
C8 C5 1.396 . S
C8 C7 1.394 . S
C8 C38 1.723 . S
H9 C32 0.947 . S
H10 C33 0.948 . S
H11 C39 0.982 . S
H12 C40 0.979 . S
H13 C40 0.980 . S
H14 C40 0.983 . S
H15 C39 0.979 . S
H16 C39 0.977 . S
C17 C5 1.453 . S
C17 H46 0.982 . S
C17 H47 0.979 . S
C17 H48 0.977 . S
C18 C5 1.684 . S
C18 H43 0.979 . S
C18 H44 0.980 . S
C18 H45 0.983 . S
C19 C20 1.391 . S
C19 C24 1.391 . S
C19 H49 0.948 . S
C20 C19 1.391 . S
C20 C21 1.391 . S
C21 C20 1.391 . S
C21 C22 1.392 . S
C21 H50 0.947 1_554 S
C22 C21 1.392 . S
C22 C23 1.419 . S
C22 H51 0.948 . S
C23 C22 1.419 . S
C23 C24 1.391 . S
C23 C27 1.397 . S
C24 C19 1.391 . S
C24 C23 1.391 . S
C24 C25 1.399 . S
C25 C24 1.399 . S
C25 C26 1.396 . S
C25 C28 1.453 . S
C25 C29 1.684 . S
C26 C7 1.723 . S
C26 C25 1.396 . S
C26 C27 1.394 . S
C27 C23 1.397 . S
C27 C26 1.394 . S
C27 C37 1.723 . S
C28 C25 1.453 . S
C28 H52 0.982 . S
C28 H53 0.979 . S
C28 H54 0.977 . S
C29 C25 1.684 . S
C29 H55 0.979 . S
C29 H56 0.980 . S
C29 H57 0.983 . S
C30 H6 0.948 . S
C30 C31 1.391 . S
C30 C35 1.391 . S
C31 C30 1.391 . S
C31 C32 1.391 . S
C32 H9 0.947 . S
C32 C31 1.391 . S
C32 C33 1.392 . S
C33 H10 0.948 . S
C33 C32 1.392 . S
C33 C34 1.419 . S
C34 C33 1.419 . S
C34 C35 1.391 . S
C34 C38 1.397 . S
C35 C30 1.391 . S
C35 C34 1.391 . S
C35 C36 1.399 . S
C36 C35 1.399 . S
C36 C37 1.396 . S
C36 C39 1.453 . S
C36 C40 1.684 . S
C37 C27 1.723 . S
C37 C36 1.396 . S
C37 C38 1.394 . S
C38 C8 1.723 . S
C38 C34 1.397 . S
C38 C37 1.394 . S
C39 H11 0.982 . S
C39 H15 0.979 . S
C39 H16 0.977 . S
C39 C36 1.453 . S
C40 H12 0.979 . S
C40 H13 0.980 . S
C40 H14 0.983 . S
C40 C36 1.684 . S
H41 C59 0.948 . S
H42 C0 0.948 . S
H43 C18 0.979 . S
H44 C18 0.980 . S
H45 C18 0.983 . S
H46 C17 0.982 . S
H47 C17 0.979 . S
H48 C17 0.977 . S
H49 C19 0.948 . S
H50 C21 0.947 1_556 S
H51 C22 0.948 . S
H52 C28 0.982 . S
H53 C28 0.979 . S
H54 C28 0.977 . S
H55 C29 0.979 . S
H56 C29 0.980 . S
H57 C29 0.983 . S
H58 C2 0.947 . S
C59 C2 1.392 . S
C59 C3 1.419 . S
C59 H41 0.948 . S
C60 C61 1.391 . S
C60 C64 1.391 . S
C60 H102 0.948 . S
C61 C60 1.391 . S
C61 C62 1.391 . S
C62 C61 1.391 . S
C62 H118 0.947 . S
C62 C119 1.392 . S
C63 C64 1.391 . S
C63 C67 1.397 . S
C63 C119 1.419 . S
C64 C60 1.391 . S
C64 C63 1.391 . S
C64 C65 1.399 . S
C65 C64 1.399 . S
C65 C68 1.396 . S
C65 C77 1.453 . S
C65 C78 1.684 . S
H66 C90 0.948 . S
C67 C63 1.397 . S
C67 C68 1.394 . S
C67 C86 1.723 . S
C68 C65 1.396 . S
C68 C67 1.394 . S
C68 C98 1.723 . S
H69 C92 0.947 . S
H70 C93 0.948 . S
H71 C99 0.982 . S
H72 C100 0.979 . S
H73 C100 0.980 . S
H74 C100 0.983 . S
H75 C99 0.979 . S
H76 C99 0.977 . S
C77 C65 1.453 . S
C77 H106 0.982 . S
C77 H107 0.979 . S
C77 H108 0.977 . S
C78 C65 1.684 . S
C78 H103 0.979 . S
C78 H104 0.980 . S
C78 H105 0.983 . S
C79 C80 1.391 . S
C79 C84 1.391 . S
C79 H109 0.948 . S
C80 C79 1.391 . S
C80 C81 1.391 . S
C81 C80 1.391 . S
C81 C82 1.392 . S
C81 H110 0.947 . S
C82 C81 1.392 . S
C82 C83 1.419 . S
C82 H111 0.948 . S
C83 C82 1.419 . S
C83 C84 1.391 . S
C83 C87 1.397 . S
C84 C79 1.391 . S
C84 C83 1.391 . S
C84 C85 1.399 . S
C85 C84 1.399 . S
C85 C86 1.396 . S
C85 C88 1.453 . S
C85 C89 1.684 . S
C86 C67 1.723 . S
C86 C85 1.396 . S
C86 C87 1.394 . S
C87 C83 1.397 . S
C87 C86 1.394 . S
C87 C97 1.723 . S
C88 C85 1.453 . S
C88 H112 0.982 . S
C88 H113 0.979 . S
C88 H114 0.977 . S
C89 C85 1.684 . S
C89 H115 0.979 . S
C89 H116 0.980 . S
C89 H117 0.983 . S
C90 H66 0.948 . S
C90 C91 1.391 . S
C90 C95 1.391 . S
C91 C90 1.391 . S
C91 C92 1.391 . S
C92 H69 0.947 . S
C92 C91 1.391 . S
C92 C93 1.392 . S
C93 H70 0.948 . S
C93 C92 1.392 . S
C93 C94 1.419 . S
C94 C93 1.419 . S
C94 C95 1.391 . S
C94 C98 1.397 . S
C95 C90 1.391 . S
C95 C94 1.391 . S
C95 C96 1.399 . S
C96 C95 1.399 . S
C96 C97 1.396 . S
C96 C99 1.453 . S
C96 C100 1.684 . S
C97 C87 1.723 . S
C97 C96 1.396 . S
C97 C98 1.394 . S
C98 C68 1.723 . S
C98 C94 1.397 . S
C98 C97 1.394 . S
C99 H71 0.982 . S
C99 H75 0.979 . S
C99 H76 0.977 . S
C99 C96 1.453 . S
C100 H72 0.979 . S
C100 H73 0.980 . S
C100 H74 0.983 . S
C100 C96 1.684 . S
H101 C119 0.948 . S
H102 C60 0.948 . S
H103 C78 0.979 . S
H104 C78 0.980 . S
H105 C78 0.983 . S
H106 C77 0.982 . S
H107 C77 0.979 . S
H108 C77 0.977 . S
H109 C79 0.948 . S
H110 C81 0.947 . S
H111 C82 0.948 . S
H112 C88 0.982 . S
H113 C88 0.979 . S
H114 C88 0.977 . S
H115 C89 0.979 . S
H116 C89 0.980 . S
H117 C89 0.983 . S
H118 C62 0.947 . S
C119 C62 1.392 . S
C119 C63 1.419 . S
C119 H101 0.948 . S
C120 C121 1.391 . S
C120 C124 1.391 . S
C120 H162 0.948 . S
C121 C120 1.391 . S
C121 C122 1.391 . S
C122 C121 1.391 . S
C122 H178 0.947 . S
C122 C179 1.392 . S
C123 C124 1.391 . S
C123 C127 1.397 . S
C123 C179 1.419 . S
C124 C120 1.391 . S
C124 C123 1.391 . S
C124 C125 1.399 . S
C125 C124 1.399 . S
C125 C128 1.396 . S
C125 C137 1.453 . S
C125 C138 1.684 . S
H126 C150 0.948 . S
C127 C123 1.397 . S
C127 C128 1.394 . S
C127 C146 1.723 . S
C128 C125 1.396 . S
C128 C127 1.394 . S
C128 C158 1.723 . S
H129 C152 0.947 . S
H130 C153 0.948 . S
H131 C159 0.966 1_545 S
H132 C160 0.979 . S
H133 C160 0.980 . S
H134 C160 0.983 . S
H135 C159 0.979 . S
H136 C159 0.977 . S
C137 C125 1.453 . S
C137 H166 0.966 1_565 S
C137 H167 0.979 . S
C137 H168 0.977 . S
C138 C125 1.684 . S
C138 H163 0.979 . S
C138 H164 0.980 . S
C138 H165 0.983 . S
C139 C140 1.391 . S
C139 C144 1.391 . S
C139 H169 0.948 . S
C140 C139 1.391 . S
C140 C141 1.391 . S
C141 C140 1.391 . S
C141 C142 1.392 . S
C141 H170 0.947 . S
C142 C141 1.392 . S
C142 C143 1.419 . S
C142 H171 0.948 . S
C143 C142 1.419 . S
C143 C144 1.391 . S
C143 C147 1.397 . S
C144 C139 1.391 . S
C144 C143 1.391 . S
C144 C145 1.399 . S
C145 C144 1.399 . S
C145 C146 1.396 . S
C145 C148 1.453 . S
C145 C149 1.684 . S
C146 C127 1.723 . S
C146 C145 1.396 . S
C146 C147 1.394 . S
C147 C143 1.397 . S
C147 C146 1.394 . S
C147 C157 1.723 . S
C148 C145 1.453 . S
C148 H172 0.966 1_565 S
C148 H173 0.979 . S
C148 H174 0.977 . S
C149 C145 1.684 . S
C149 H175 0.979 . S
C149 H176 0.980 . S
C149 H177 0.983 . S
C150 H126 0.948 . S
C150 C151 1.391 . S
C150 C155 1.391 . S
C151 C150 1.391 . S
C151 C152 1.391 . S
C152 H129 0.947 . S
C152 C151 1.391 . S
C152 C153 1.392 . S
C153 H130 0.948 . S
C153 C152 1.392 . S
C153 C154 1.419 . S
C154 C153 1.419 . S
C154 C155 1.391 . S
C154 C158 1.397 . S
C155 C150 1.391 . S
C155 C154 1.391 . S
C155 C156 1.399 . S
C156 C155 1.399 . S
C156 C157 1.396 . S
C156 C159 1.453 . S
C156 C160 1.684 . S
C157 C147 1.723 . S
C157 C156 1.396 . S
C157 C158 1.394 . S
C158 C128 1.723 . S
C158 C154 1.397 . S
C158 C157 1.394 . S
C159 H131 0.966 1_565 S
C159 H135 0.979 . S
C159 H136 0.977 . S
C159 C156 1.453 . S
C160 H132 0.979 . S
C160 H133 0.980 . S
C160 H134 0.983 . S
C160 C156 1.684 . S
H161 C179 0.948 . S
H162 C120 0.948 . S
H163 C138 0.979 . S
H164 C138 0.980 . S
H165 C138 0.983 . S
H166 C137 0.966 1_545 S
H167 C137 0.979 . S
H168 C137 0.977 . S
H169 C139 0.948 . S
H170 C141 0.947 . S
H171 C142 0.948 . S
H172 C148 0.966 1_545 S
H173 C148 0.979 . S
H174 C148 0.977 . S
H175 C149 0.979 . S
H176 C149 0.980 . S
H177 C149 0.983 . S
H178 C122 0.947 . S
C179 C122 1.392 . S
C179 C123 1.419 . S
C179 H161 0.948 . S
C180 C181 1.391 . S
C180 C184 1.391 . S
C180 H222 0.948 . S
C181 C180 1.391 . S
C181 C182 1.391 . S
C182 C181 1.391 . S
C182 H238 0.947 . S
C182 C239 1.392 . S
C183 C184 1.391 . S
C183 C187 1.397 . S
C183 C239 1.419 . S
C184 C180 1.391 . S
C184 C183 1.391 . S
C184 C185 1.399 . S
C185 C184 1.399 . S
C185 C188 1.396 . S
C185 C197 1.453 . S
C185 C198 1.684 . S
H186 C210 0.948 . S
C187 C183 1.397 . S
C187 C188 1.394 . S
C187 C206 1.723 . S
C188 C185 1.396 . S
C188 C187 1.394 . S
C188 C218 1.723 . S
H189 C212 0.947 . S
H190 C213 0.948 . S
H191 C219 0.982 . S
H192 C220 0.979 . S
H193 C220 0.980 . S
H194 C220 0.983 . S
H195 C219 0.979 . S
H196 C219 0.977 . S
C197 C185 1.453 . S
C197 H226 0.982 . S
C197 H227 0.979 . S
C197 H228 0.977 . S
C198 C185 1.684 . S
C198 H223 0.979 . S
C198 H224 0.980 . S
C198 H225 0.983 . S
C199 C200 1.391 . S
C199 C204 1.391 . S
C199 H229 0.948 . S
C200 C199 1.391 . S
C200 C201 1.391 . S
C201 C200 1.391 . S
C201 C202 1.392 . S
C201 H230 0.947 1_554 S
C202 C201 1.392 . S
C202 C203 1.419 . S
C202 H231 0.948 . S
C203 C202 1.419 . S
C203 C204 1.391 . S
C203 C207 1.397 . S
C204 C199 1.391 . S
C204 C203 1.391 . S
C204 C205 1.399 . S
C205 C204 1.399 . S
C205 C206 1.396 . S
C205 C208 1.453 . S
C205 C209 1.684 . S
C206 C187 1.723 . S
C206 C205 1.396 . S
C206 C207 1.394 . S
C207 C203 1.397 . S
C207 C206 1.394 . S
C207 C217 1.723 . S
C208 C205 1.453 . S
C208 H232 0.982 . S
C208 H233 0.979 . S
C208 H234 0.977 . S
C209 C205 1.684 . S
C209 H235 0.979 . S
C209 H236 0.980 . S
C209 H237 0.983 . S
C210 H186 0.948 . S
C210 C211 1.391 . S
C210 C215 1.391 . S
C211 C210 1.391 . S
C211 C212 1.391 . S
C212 H189 0.947 . S
C212 C211 1.391 . S
C212 C213 1.392 . S
C213 H190 0.948 . S
C213 C212 1.392 . S
C213 C214 1.419 . S
C214 C213 1.419 . S
C214 C215 1.391 . S
C214 C218 1.397 . S
C215 C210 1.391 . S
C215 C214 1.391 . S
C215 C216 1.399 . S
C216 C215 1.399 . S
C216 C217 1.396 . S
C216 C219 1.453 . S
C216 C220 1.684 . S
C217 C207 1.723 . S
C217 C216 1.396 . S
C217 C218 1.394 . S
C218 C188 1.723 . S
C218 C214 1.397 . S
C218 C217 1.394 . S
C219 H191 0.982 . S
C219 H195 0.979 . S
C219 H196 0.977 . S
C219 C216 1.453 . S
C220 H192 0.979 . S
C220 H193 0.980 . S
C220 H194 0.983 . S
C220 C216 1.684 . S
H221 C239 0.948 . S
H222 C180 0.948 . S
H223 C198 0.979 . S
H224 C198 0.980 . S
H225 C198 0.983 . S
H226 C197 0.982 . S
H227 C197 0.979 . S
H228 C197 0.977 . S
H229 C199 0.948 . S
H230 C201 0.947 1_556 S
H231 C202 0.948 . S
H232 C208 0.982 . S
H233 C208 0.979 . S
H234 C208 0.977 . S
H235 C209 0.979 . S
H236 C209 0.980 . S
H237 C209 0.983 . S
H238 C182 0.947 . S
C239 C182 1.392 . S
C239 C183 1.419 . S
C239 H221 0.948 . S
C240 C241 1.391 . S
C240 C244 1.391 . S
C240 H282 0.948 . S
C241 C240 1.391 . S
C241 C242 1.391 . S
C242 C241 1.391 . S
C242 H298 0.947 . S
C242 C299 1.392 . S
C243 C244 1.391 . S
C243 C247 1.397 . S
C243 C299 1.419 . S
C244 C240 1.391 . S
C244 C243 1.391 . S
C244 C245 1.399 1_554 S
C245 C244 1.399 1_556 S
C245 C248 1.396 1_556 S
C245 C257 1.453 . S
C245 C258 1.684 . S
H246 C270 0.948 . S
C247 C243 1.397 . S
C247 C248 1.394 . S
C247 C266 1.723 . S
C248 C245 1.396 1_554 S
C248 C247 1.394 . S
C248 C278 1.723 1_554 S
H249 C272 0.947 . S
H250 C273 0.948 . S
H251 C279 0.982 . S
H252 C280 0.979 . S
H253 C280 0.980 1_554 S
H254 C280 0.983 . S
H255 C279 0.979 . S
H256 C279 0.977 1_554 S
C257 C245 1.453 . S
C257 H286 0.982 . S
C257 H287 0.979 . S
C257 H288 0.977 . S
C258 C245 1.684 . S
C258 H283 0.979 . S
C258 H284 0.980 . S
C258 H285 0.983 . S
C259 C260 1.391 . S
C259 C264 1.391 . S
C259 H289 0.948 . S
C260 C259 1.391 . S
C260 C261 1.391 . S
C261 C260 1.391 . S
C261 C262 1.392 . S
C261 H290 0.947 . S
C262 C261 1.392 . S
C262 C263 1.419 . S
C262 H291 0.948 . S
C263 C262 1.419 . S
C263 C264 1.391 . S
C263 C267 1.397 . S
C264 C259 1.391 . S
C264 C263 1.391 . S
C264 C265 1.399 . S
C265 C264 1.399 . S
C265 C266 1.396 . S
C265 C268 1.453 . S
C265 C269 1.684 . S
C266 C247 1.723 . S
C266 C265 1.396 . S
C266 C267 1.394 . S
C267 C263 1.397 . S
C267 C266 1.394 . S
C267 C277 1.723 . S
C268 C265 1.453 . S
C268 H292 0.982 . S
C268 H293 0.979 . S
C268 H294 0.977 . S
C269 C265 1.684 . S
C269 H295 0.979 . S
C269 H296 0.980 . S
C269 H297 0.983 . S
C270 H246 0.948 . S
C270 C271 1.391 . S
C270 C275 1.391 . S
C271 C270 1.391 . S
C271 C272 1.391 . S
C272 H249 0.947 . S
C272 C271 1.391 . S
C272 C273 1.392 . S
C273 H250 0.948 . S
C273 C272 1.392 . S
C273 C274 1.419 . S
C274 C273 1.419 . S
C274 C275 1.391 . S
C274 C278 1.397 . S
C275 C270 1.391 . S
C275 C274 1.391 . S
C275 C276 1.399 . S
C276 C275 1.399 . S
C276 C277 1.396 1_556 S
C276 C279 1.453 . S
C276 C280 1.684 . S
C277 C267 1.723 . S
C277 C276 1.396 1_554 S
C277 C278 1.394 1_554 S
C278 C248 1.723 1_556 S
C278 C274 1.397 . S
C278 C277 1.394 1_556 S
C279 H251 0.982 . S
C279 H255 0.979 . S
C279 H256 0.977 1_556 S
C279 C276 1.453 . S
C280 H252 0.979 . S
C280 H253 0.980 1_556 S
C280 H254 0.983 . S
C280 C276 1.684 . S
H281 C299 0.948 . S
H282 C240 0.948 . S
H283 C258 0.979 . S
H284 C258 0.980 . S
H285 C258 0.983 . S
H286 C257 0.982 . S
H287 C257 0.979 . S
H288 C257 0.977 . S
H289 C259 0.948 . S
H290 C261 0.947 . S
H291 C262 0.948 . S
H292 C268 0.982 . S
H293 C268 0.979 . S
H294 C268 0.977 . S
H295 C269 0.979 . S
H296 C269 0.980 . S
H297 C269 0.983 . S
H298 C242 0.947 . S
C299 C242 1.392 . S
C299 C243 1.419 . S
C299 H281 0.948 . S
C300 C301 1.391 . S
C300 C304 1.391 . S
C300 H342 0.948 . S
C301 C300 1.391 . S
C301 C302 1.391 . S
C302 C301 1.391 . S
C302 H358 0.947 . S
C302 C359 1.392 . S
C303 C304 1.391 . S
C303 C307 1.397 . S
C303 C359 1.419 . S
C304 C300 1.391 . S
C304 C303 1.391 . S
C304 C305 1.399 . S
C305 C304 1.399 . S
C305 C308 1.396 . S
C305 C317 1.453 . S
C305 C318 1.684 . S
H306 C330 0.948 . S
C307 C303 1.397 . S
C307 C308 1.394 . S
C307 C326 1.723 . S
C308 C305 1.396 . S
C308 C307 1.394 . S
C308 C338 1.723 . S
H309 C332 0.947 . S
H310 C333 0.948 . S
H311 C339 0.982 . S
H312 C340 0.979 . S
H313 C340 0.980 . S
H314 C340 0.983 . S
H315 C339 0.979 . S
H316 C339 0.977 . S
C317 C305 1.453 . S
C317 H346 0.982 . S
C317 H347 0.979 . S
C317 H348 0.977 . S
C318 C305 1.684 . S
C318 H343 0.979 . S
C318 H344 0.980 . S
C318 H345 0.983 . S
C319 C320 1.391 . S
C319 C324 1.391 . S
C319 H349 0.948 . S
C320 C319 1.391 . S
C320 C321 1.391 . S
C321 C320 1.391 . S
C321 C322 1.392 . S
C321 H350 0.947 . S
C322 C321 1.392 . S
C322 C323 1.419 . S
C322 H351 0.948 . S
C323 C322 1.419 . S
C323 C324 1.391 . S
C323 C327 1.397 . S
C324 C319 1.391 . S
C324 C323 1.391 . S
C324 C325 1.399 . S
C325 C324 1.399 . S
C325 C326 1.396 1_556 S
C325 C328 1.453 . S
C325 C329 1.684 . S
C326 C307 1.723 . S
C326 C325 1.396 1_554 S
C326 C327 1.394 1_554 S
C327 C323 1.397 . S
C327 C326 1.394 1_556 S
C327 C337 1.723 1_556 S
C328 C325 1.453 . S
C328 H352 0.982 . S
C328 H353 0.979 . S
C328 H354 0.977 1_556 S
C329 C325 1.684 . S
C329 H355 0.979 . S
C329 H356 0.980 1_556 S
C329 H357 0.983 . S
C330 H306 0.948 . S
C330 C331 1.391 . S
C330 C335 1.391 . S
C331 C330 1.391 . S
C331 C332 1.391 . S
C332 H309 0.947 . S
C332 C331 1.391 . S
C332 C333 1.392 . S
C333 H310 0.948 . S
C333 C332 1.392 . S
C333 C334 1.419 . S
C334 C333 1.419 . S
C334 C335 1.391 . S
C334 C338 1.397 . S
C335 C330 1.391 . S
C335 C334 1.391 . S
C335 C336 1.399 1_554 S
C336 C335 1.399 1_556 S
C336 C337 1.396 1_556 S
C336 C339 1.453 . S
C336 C340 1.684 . S
C337 C327 1.723 1_554 S
C337 C336 1.396 1_554 S
C337 C338 1.394 . S
C338 C308 1.723 . S
C338 C334 1.397 . S
C338 C337 1.394 . S
C339 H311 0.982 . S
C339 H315 0.979 . S
C339 H316 0.977 . S
C339 C336 1.453 . S
C340 H312 0.979 . S
C340 H313 0.980 . S
C340 H314 0.983 . S
C340 C336 1.684 . S
H341 C359 0.948 . S
H342 C300 0.948 . S
H343 C318 0.979 . S
H344 C318 0.980 . S
H345 C318 0.983 . S
H346 C317 0.982 . S
H347 C317 0.979 . S
H348 C317 0.977 . S
H349 C319 0.948 . S
H350 C321 0.947 . S
H351 C322 0.948 . S
H352 C328 0.982 . S
H353 C328 0.979 . S
H354 C328 0.977 1_554 S
H355 C329 0.979 . S
H356 C329 0.980 1_554 S
H357 C329 0.983 . S
H358 C302 0.947 . S
C359 C302 1.392 . S
C359 C303 1.419 . S
C359 H341 0.948 . S
C360 C361 1.391 . S
C360 C364 1.391 . S
C360 H402 0.948 . S
C361 C360 1.391 . S
C361 C362 1.391 . S
C362 C361 1.391 . S
C362 H418 0.947 . S
C362 C419 1.392 . S
C363 C364 1.391 . S
C363 C367 1.397 . S
C363 C419 1.419 . S
C364 C360 1.391 . S
C364 C363 1.391 . S
C364 C365 1.399 . S
C365 C364 1.399 . S
C365 C368 1.396 . S
C365 C377 1.453 . S
C365 C378 1.684 . S
H366 C390 0.948 . S
C367 C363 1.397 . S
C367 C368 1.394 . S
C367 C386 1.723 1_556 S
C368 C365 1.396 . S
C368 C367 1.394 . S
C368 C398 1.723 1_556 S
H369 C392 0.947 . S
H370 C393 0.948 1_556 S
H371 C399 0.982 . S
H372 C400 0.979 . S
H373 C400 0.980 . S
H374 C400 0.983 . S
H375 C399 0.979 . S
H376 C399 0.977 . S
C377 C365 1.453 . S
C377 H406 0.982 . S
C377 H407 0.979 . S
C377 H408 0.977 . S
C378 C365 1.684 . S
C378 H403 0.979 . S
C378 H404 0.980 . S
C378 H405 0.983 . S
C379 C380 1.391 . S
C379 C384 1.391 . S
C379 H409 0.948 . S
C380 C379 1.391 . S
C380 C381 1.391 . S
C381 C380 1.391 . S
C381 C382 1.392 . S
C381 H410 0.947 . S
C382 C381 1.392 . S
C382 C383 1.419 . S
C382 H411 0.948 . S
C383 C382 1.419 . S
C383 C384 1.391 . S
C383 C387 1.397 . S
C384 C379 1.391 . S
C384 C383 1.391 . S
C384 C385 1.399 . S
C385 C384 1.399 . S
C385 C386 1.396 . S
C385 C388 1.453 . S
C385 C389 1.684 . S
C386 C367 1.723 1_554 S
C386 C385 1.396 . S
C386 C387 1.394 . S
C387 C383 1.397 . S
C387 C386 1.394 . S
C387 C397 1.723 . S
C388 C385 1.453 . S
C388 H412 0.982 . S
C388 H413 0.979 . S
C388 H414 0.977 1_554 S
C389 C385 1.684 . S
C389 H415 0.979 . S
C389 H416 0.980 1_554 S
C389 H417 0.983 . S
C390 H366 0.948 . S
C390 C391 1.391 . S
C390 C395 1.391 . S
C391 C390 1.391 . S
C391 C392 1.391 . S
C392 H369 0.947 . S
C392 C391 1.391 . S
C392 C393 1.392 . S
C393 H370 0.948 1_554 S
C393 C392 1.392 . S
C393 C394 1.419 . S
C394 C393 1.419 . S
C394 C395 1.391 . S
C394 C398 1.397 . S
C395 C390 1.391 . S
C395 C394 1.391 . S
C395 C396 1.399 . S
C396 C395 1.399 . S
C396 C397 1.396 . S
C396 C399 1.453 . S
C396 C400 1.684 . S
C397 C387 1.723 . S
C397 C396 1.396 . S
C397 C398 1.394 . S
C398 C368 1.723 1_554 S
C398 C394 1.397 . S
C398 C397 1.394 . S
C399 H371 0.982 . S
C399 H375 0.979 . S
C399 H376 0.977 . S
C399 C396 1.453 . S
C400 H372 0.979 . S
C400 H373 0.980 . S
C400 H374 0.983 . S
C400 C396 1.684 . S
H401 C419 0.948 . S
H402 C360 0.948 . S
H403 C378 0.979 . S
H404 C378 0.980 . S
H405 C378 0.983 . S
H406 C377 0.982 . S
H407 C377 0.979 . S
H408 C377 0.977 . S
H409 C379 0.948 . S
H410 C381 0.947 . S
H411 C382 0.948 . S
H412 C388 0.982 . S
H413 C388 0.979 . S
H414 C388 0.977 1_556 S
H415 C389 0.979 . S
H416 C389 0.980 1_556 S
H417 C389 0.983 . S
H418 C362 0.947 . S
C419 C362 1.392 . S
C419 C363 1.419 . S
C419 H401 0.948 . S
C420 C421 1.391 . S
C420 C424 1.391 . S
C420 H462 0.948 . S
C421 C420 1.391 . S
C421 C422 1.391 . S
C422 C421 1.391 . S
C422 H478 0.947 . S
C422 C479 1.392 . S
C423 C424 1.391 . S
C423 C427 1.397 . S
C423 C479 1.419 . S
C424 C420 1.391 . S
C424 C423 1.391 . S
C424 C425 1.399 . S
C425 C424 1.399 . S
C425 C428 1.396 . S
C425 C437 1.453 . S
C425 C438 1.684 . S
H426 C450 0.948 . S
C427 C423 1.397 . S
C427 C428 1.394 . S
C427 C446 1.723 1_556 S
C428 C425 1.396 . S
C428 C427 1.394 . S
C428 C458 1.723 1_556 S
H429 C452 0.947 1_556 S
H430 C453 0.948 1_556 S
H431 C459 0.982 . S
H432 C460 0.979 . S
H433 C460 0.980 . S
H434 C460 0.983 . S
H435 C459 0.979 . S
H436 C459 0.977 . S
C437 C425 1.453 . S
C437 H466 0.982 . S
C437 H467 0.979 . S
C437 H468 0.977 . S
C438 C425 1.684 . S
C438 H463 0.979 . S
C438 H464 0.980 . S
C438 H465 0.983 . S
C439 C440 1.391 . S
C439 C444 1.391 . S
C439 H469 0.948 . S
C440 C439 1.391 . S
C440 C441 1.391 . S
C441 C440 1.391 . S
C441 C442 1.392 . S
C441 H470 0.947 . S
C442 C441 1.392 . S
C442 C443 1.419 . S
C442 H471 0.948 . S
C443 C442 1.419 . S
C443 C444 1.391 . S
C443 C447 1.397 . S
C444 C439 1.391 . S
C444 C443 1.391 . S
C444 C445 1.399 . S
C445 C444 1.399 . S
C445 C446 1.396 . S
C445 C448 1.453 . S
C445 C449 1.684 . S
C446 C427 1.723 1_554 S
C446 C445 1.396 . S
C446 C447 1.394 . S
C447 C443 1.397 . S
C447 C446 1.394 . S
C447 C457 1.723 . S
C448 C445 1.453 . S
C448 H472 0.982 . S
C448 H473 0.979 . S
C448 H474 0.977 1_554 S
C449 C445 1.684 . S
C449 H475 0.979 . S
C449 H476 0.980 1_554 S
C449 H477 0.983 . S
C450 H426 0.948 . S
C450 C451 1.391 . S
C450 C455 1.391 . S
C451 C450 1.391 . S
C451 C452 1.391 . S
C452 H429 0.947 1_554 S
C452 C451 1.391 . S
C452 C453 1.392 . S
C453 H430 0.948 1_554 S
C453 C452 1.392 . S
C453 C454 1.419 . S
C454 C453 1.419 . S
C454 C455 1.391 . S
C454 C458 1.397 . S
C455 C450 1.391 . S
C455 C454 1.391 . S
C455 C456 1.399 . S
C456 C455 1.399 . S
C456 C457 1.396 . S
C456 C459 1.453 . S
C456 C460 1.684 . S
C457 C447 1.723 . S
C457 C456 1.396 . S
C457 C458 1.394 . S
C458 C428 1.723 1_554 S
C458 C454 1.397 . S
C458 C457 1.394 . S
C459 H431 0.982 . S
C459 H435 0.979 . S
C459 H436 0.977 . S
C459 C456 1.453 . S
C460 H432 0.979 . S
C460 H433 0.980 . S
C460 H434 0.983 . S
C460 C456 1.684 . S
H461 C479 0.948 . S
H462 C420 0.948 . S
H463 C438 0.979 . S
H464 C438 0.980 . S
H465 C438 0.983 . S
H466 C437 0.982 . S
H467 C437 0.979 . S
H468 C437 0.977 . S
H469 C439 0.948 . S
H470 C441 0.947 . S
H471 C442 0.948 . S
H472 C448 0.982 . S
H473 C448 0.979 . S
H474 C448 0.977 1_556 S
H475 C449 0.979 . S
H476 C449 0.980 1_556 S
H477 C449 0.983 . S
H478 C422 0.947 . S
C479 C422 1.392 . S
C479 C423 1.419 . S
C479 H461 0.948 . S
Tb480 N509 2.617 . S
Tb480 N515 2.572 . S
Tb480 O524 2.465 . S
Tb480 O525 2.387 1_545 S
Tb480 O527 2.428 . S
Tb480 O528 2.308 1_655 S
Tb480 O532 2.349 1_655 S
Tb480 O535 2.393 . S
Tb480 C544 2.802 . S
C481 N482 1.379 . S
C481 C484 1.416 . S
C481 C488 1.424 . S
N482 C481 1.379 . S
N482 C485 1.334 1_545 S
N482 Tb491 2.617 1_545 S
C483 C485 1.387 1_545 S
C483 C486 1.339 . S
C483 H503 0.930 . S
C484 C481 1.416 . S
C484 C486 1.416 . S
C484 C490 1.448 . S
C485 N482 1.334 1_565 S
C485 C483 1.387 1_565 S
C485 H496 0.934 . S
C486 C483 1.339 . S
C486 C484 1.416 . S
C486 H507 0.930 . S
C487 C488 1.413 . S
C487 C489 1.427 . S
C487 C493 1.416 . S
C488 C481 1.424 . S
C488 C487 1.413 . S
C488 N492 1.361 . S
C489 C487 1.427 . S
C489 C490 1.328 . S
C489 H504 0.929 . S
C490 C484 1.448 . S
C490 C489 1.328 . S
C490 H505 0.930 . S
Tb491 N482 2.617 1_565 S
Tb491 N492 2.572 1_565 S
Tb491 O526 2.349 . S
Tb491 O529 2.393 . S
Tb491 O530 2.465 . S
Tb491 O531 2.387 1_565 S
Tb491 O533 2.428 . S
Tb491 O534 2.308 1_465 S
Tb491 C555 2.802 . S
N492 C488 1.361 . S
N492 Tb491 2.572 1_545 S
N492 C494 1.340 . S
C493 C487 1.416 . S
C493 C495 1.332 . S
C493 H501 0.931 . S
C494 N492 1.340 . S
C494 C495 1.407 . S
C494 H500 0.914 1_455 S
C495 C493 1.332 . S
C495 C494 1.407 . S
C495 H497 0.929 . S
H496 C485 0.934 . S
H497 C495 0.929 . S
H498 C513 0.930 . S
H499 C520 0.929 1_455 S
H500 C494 0.914 1_655 S
H501 C493 0.931 . S
H502 C516 0.930 1_455 S
H503 C483 0.930 . S
H504 C489 0.929 . S
H505 C490 0.930 . S
H506 C511 0.930 . S
H507 C486 0.930 . S
H508 C519 0.931 . S
N509 Tb480 2.617 . S
N509 C510 1.379 . S
N509 C513 1.334 . S
C510 N509 1.379 . S
C510 C512 1.416 1_545 S
C510 C518 1.424 . S
C511 H506 0.930 . S
C511 C513 1.390 . S
C511 C514 1.322 1_545 S
C512 C510 1.416 1_565 S
C512 C514 1.420 . S
C512 C545 1.448 . S
C513 H498 0.930 . S
C513 N509 1.334 . S
C513 C511 1.390 . S
C514 C511 1.322 1_565 S
C514 C512 1.420 . S
C514 H521 0.944 . S
N515 Tb480 2.572 . S
N515 C516 1.340 . S
N515 C518 1.361 . S
C516 H502 0.930 1_655 S
C516 N515 1.340 . S
C516 C520 1.407 1_545 S
C517 C518 1.413 1_565 S
C517 C519 1.416 . S
C517 C546 1.427 . S
C518 C510 1.424 . S
C518 N515 1.361 . S
C518 C517 1.413 1_545 S
C519 H508 0.931 . S
C519 C517 1.416 . S
C519 C520 1.332 . S
C520 H499 0.929 1_655 S
C520 C516 1.407 1_565 S
C520 C519 1.332 . S
H521 C514 0.944 . S
H522 C545 0.930 . S
H523 C546 0.929 . S
O524 Tb480 2.465 . S
O524 C544 1.264 . S
O525 Tb480 2.387 1_565 S
O525 C536 1.264 . S
O526 Tb491 2.349 . S
O526 C536 1.243 1_455 S
O527 Tb480 2.428 . S
O527 C544 1.256 . S
O528 Tb480 2.308 1_455 S
O528 C543 1.266 . S
O529 Tb491 2.393 . S
O529 C543 1.248 1_565 S
O530 Tb491 2.465 . S
O530 C555 1.264 . S
O531 Tb491 2.387 1_545 S
O531 C547 1.264 . S
O532 Tb480 2.349 1_455 S
O532 C547 1.243 . S
O533 Tb491 2.428 . S
O533 C555 1.256 . S
O534 Tb491 2.308 1_645 S
O534 C554 1.266 . S
O535 Tb480 2.393 . S
O535 C554 1.248 . S
C536 O525 1.264 . S
C536 O526 1.243 1_655 S
C537 C540 1.399 . S
C537 C542 1.383 . S
C537 C544 1.496 . S
C538 C539 1.399 . S
C538 C542 1.389 . S
C539 C538 1.399 . S
C539 C541 1.380 . S
C539 H556 0.929 . S
C540 C537 1.399 . S
C540 C541 1.392 . S
C540 H557 0.929 . S
C541 C539 1.380 . S
C541 C540 1.392 . S
C541 H558 0.929 . S
C542 C537 1.383 . S
C542 C538 1.389 . S
C542 H559 0.931 1_655 S
C543 O528 1.266 . S
C543 O529 1.248 1_545 S
C544 Tb480 2.802 . S
C544 O524 1.264 . S
C544 O527 1.256 . S
C544 C537 1.496 . S
C545 C512 1.448 . S
C545 H522 0.930 . S
C545 C546 1.328 . S
C546 C517 1.427 . S
C546 H523 0.929 . S
C546 C545 1.328 . S
C547 O531 1.264 . S
C547 O532 1.243 . S
C548 C551 1.399 . S
C548 C552 1.383 . S
C548 C555 1.496 . S
C549 C550 1.399 . S
C549 C552 1.389 . S
C550 C549 1.399 . S
C550 C553 1.380 . S
C550 H560 0.929 . S
C551 C548 1.399 . S
C551 C553 1.392 . S
C551 H561 0.929 . S
C552 C548 1.383 . S
C552 C549 1.389 . S
C552 H562 0.931 . S
C553 C550 1.380 . S
C553 C551 1.392 . S
C553 H563 0.929 . S
C554 O534 1.266 . S
C554 O535 1.248 . S
C555 Tb491 2.802 . S
C555 O530 1.264 . S
C555 O533 1.256 . S
C555 C548 1.496 . S
H556 C539 0.929 . S
H557 C540 0.929 . S
H558 C541 0.929 . S
H559 C542 0.931 1_455 S
H560 C550 0.929 . S
H561 C551 0.929 . S
H562 C552 0.931 . S
H563 C553 0.929 . S
Tb564 N593 2.617 . S
Tb564 N599 2.572 . S
Tb564 O608 2.465 . S
Tb564 O609 2.387 . S
Tb564 O611 2.428 . S
Tb564 O612 2.308 . S
Tb564 O616 2.349 1_545 S
Tb564 O619 2.393 . S
Tb564 C628 2.802 . S
C565 N566 1.379 . S
C565 C568 1.416 . S
C565 C572 1.424 . S
N566 C565 1.379 . S
N566 C569 1.334 . S
N566 Tb575 2.617 . S
C567 C569 1.390 . S
C567 C570 1.339 . S
C567 H587 0.930 . S
C568 C565 1.416 . S
C568 C570 1.416 . S
C568 C574 1.448 . S
C569 N566 1.334 . S
C569 C567 1.390 . S
C569 H580 0.930 . S
C570 C567 1.339 . S
C570 C568 1.416 . S
C570 H591 0.930 . S
C571 C572 1.413 . S
C571 C573 1.427 . S
C571 C577 1.416 . S
C572 C565 1.424 . S
C572 C571 1.413 . S
C572 N576 1.361 . S
C573 C571 1.427 . S
C573 C574 1.328 . S
C573 H588 0.929 . S
C574 C568 1.448 . S
C574 C573 1.328 . S
C574 H589 0.930 . S
Tb575 N566 2.617 . S
Tb575 N576 2.572 . S
Tb575 O610 2.349 1_565 S
Tb575 O613 2.393 . S
Tb575 O614 2.465 . S
Tb575 O615 2.387 . S
Tb575 O617 2.428 . S
Tb575 O618 2.308 1_565 S
Tb575 C639 2.802 . S
N576 C572 1.361 . S
N576 Tb575 2.572 . S
N576 C578 1.340 . S
C577 C571 1.416 . S
C577 C579 1.332 . S
C577 H585 0.931 . S
C578 N576 1.340 . S
C578 C579 1.407 . S
C578 H584 0.930 . S
C579 C577 1.332 . S
C579 C578 1.407 . S
C579 H581 0.929 . S
H580 C569 0.930 . S
H581 C579 0.929 . S
H582 C597 0.930 . S
H583 C604 0.929 . S
H584 C578 0.930 . S
H585 C577 0.931 . S
H586 C600 0.930 . S
H587 C567 0.930 . S
H588 C573 0.929 . S
H589 C574 0.930 . S
H590 C595 0.930 . S
H591 C570 0.930 . S
H592 C603 0.931 . S
N593 Tb564 2.617 . S
N593 C594 1.379 . S
N593 C597 1.334 . S
C594 N593 1.379 . S
C594 C596 1.416 . S
C594 C602 1.424 . S
C595 H590 0.930 . S
C595 C597 1.390 . S
C595 C598 1.339 . S
C596 C594 1.416 . S
C596 C598 1.416 . S
C596 C629 1.448 . S
C597 H582 0.930 . S
C597 N593 1.334 . S
C597 C595 1.390 . S
C598 C595 1.339 . S
C598 C596 1.416 . S
C598 H605 0.930 . S
N599 Tb564 2.572 . S
N599 C600 1.340 . S
N599 C602 1.361 . S
C600 H586 0.930 . S
C600 N599 1.340 . S
C600 C604 1.407 . S
C601 C602 1.413 . S
C601 C603 1.416 . S
C601 C630 1.427 . S
C602 C594 1.424 . S
C602 N599 1.361 . S
C602 C601 1.413 . S
C603 H592 0.931 . S
C603 C601 1.416 . S
C603 C604 1.332 . S
C604 H583 0.929 . S
C604 C600 1.407 . S
C604 C603 1.332 . S
H605 C598 0.930 . S
H606 C629 0.930 . S
H607 C630 0.929 . S
O608 Tb564 2.465 . S
O608 C628 1.264 . S
O609 Tb564 2.387 . S
O609 C620 1.264 . S
O610 Tb575 2.349 1_545 S
O610 C620 1.243 . S
O611 Tb564 2.428 . S
O611 C628 1.256 . S
O612 Tb564 2.308 . S
O612 C627 1.245 1_545 S
O613 Tb575 2.393 . S
O613 C627 1.262 . S
O614 Tb575 2.465 . S
O614 C639 1.264 . S
O615 Tb575 2.387 . S
O615 C631 1.264 . S
O616 Tb564 2.349 1_565 S
O616 C631 1.243 . S
O617 Tb575 2.428 . S
O617 C639 1.256 . S
O618 Tb575 2.308 1_545 S
O618 C638 1.266 . S
O619 Tb564 2.393 . S
O619 C638 1.248 . S
C620 O609 1.264 . S
C620 O610 1.243 . S
C621 C624 1.399 . S
C621 C626 1.383 . S
C621 C628 1.496 . S
C622 C623 1.399 . S
C622 C626 1.389 . S
C623 C622 1.399 . S
C623 C625 1.380 . S
C623 H640 0.929 . S
C624 C621 1.399 . S
C624 C625 1.392 . S
C624 H641 0.929 . S
C625 C623 1.380 . S
C625 C624 1.392 . S
C625 H642 0.929 . S
C626 C621 1.383 . S
C626 C622 1.389 . S
C626 H643 0.931 . S
C627 O612 1.245 1_565 S
C627 O613 1.262 . S
C628 Tb564 2.802 . S
C628 O608 1.264 . S
C628 O611 1.256 . S
C628 C621 1.496 . S
C629 C596 1.448 . S
C629 H606 0.930 . S
C629 C630 1.328 . S
C630 C601 1.427 . S
C630 H607 0.929 . S
C630 C629 1.328 . S
C631 O615 1.264 . S
C631 O616 1.243 . S
C632 C635 1.399 . S
C632 C636 1.370 1_565 S
C632 C639 1.496 . S
C633 C634 1.399 1_545 S
C633 C636 1.391 . S
C634 C633 1.399 1_565 S
C634 C637 1.380 . S
C634 H644 0.929 . S
C635 C632 1.399 . S
C635 C637 1.392 . S
C635 H645 0.929 . S
C636 C632 1.370 1_545 S
C636 C633 1.391 . S
C636 H646 0.945 . S
C637 C634 1.380 . S
C637 C635 1.392 . S
C637 H647 0.929 . S
C638 O618 1.266 . S
C638 O619 1.248 . S
C639 Tb575 2.802 . S
C639 O614 1.264 . S
C639 O617 1.256 . S
C639 C632 1.496 . S
H640 C623 0.929 . S
H641 C624 0.929 . S
H642 C625 0.929 . S
H643 C626 0.931 . S
H644 C634 0.929 . S
H645 C635 0.929 . S
H646 C636 0.945 . S
H647 C637 0.929 . S
Tb648 N677 2.617 . S
Tb648 N683 2.572 . S
Tb648 O692 2.465 . S
Tb648 O693 2.387 . S
Tb648 O695 2.428 . S
Tb648 O696 2.308 . S
Tb648 O700 2.349 . S
Tb648 O703 2.393 . S
Tb648 C712 2.802 . S
C649 N650 1.379 . S
C649 C652 1.416 . S
C649 C656 1.424 . S
N650 C649 1.379 . S
N650 C653 1.334 . S
N650 Tb659 2.617 . S
C651 C653 1.390 . S
C651 C654 1.339 . S
C651 H671 0.930 . S
C652 C649 1.416 . S
C652 C654 1.416 . S
C652 C658 1.448 . S
C653 N650 1.334 . S
C653 C651 1.390 . S
C653 H664 0.930 . S
C654 C651 1.339 . S
C654 C652 1.416 . S
C654 H675 0.930 . S
C655 C656 1.413 . S
C655 C657 1.427 . S
C655 C661 1.416 . S
C656 C649 1.424 . S
C656 C655 1.413 . S
C656 N660 1.361 . S
C657 C655 1.427 . S
C657 C658 1.328 . S
C657 H672 0.929 . S
C658 C652 1.448 . S
C658 C657 1.328 . S
C658 H673 0.930 . S
Tb659 N650 2.617 . S
Tb659 N660 2.572 . S
Tb659 O694 2.349 . S
Tb659 O697 2.393 . S
Tb659 O698 2.465 . S
Tb659 O699 2.387 . S
Tb659 O701 2.428 . S
Tb659 O702 2.308 . S
Tb659 C723 2.802 . S
N660 C656 1.361 . S
N660 Tb659 2.572 . S
N660 C662 1.340 . S
C661 C655 1.416 . S
C661 C663 1.332 . S
C661 H669 0.931 . S
C662 N660 1.340 . S
C662 C663 1.407 . S
C662 H668 0.930 . S
C663 C661 1.332 . S
C663 C662 1.407 . S
C663 H665 0.929 . S
H664 C653 0.930 . S
H665 C663 0.929 . S
H666 C681 0.930 . S
H667 C688 0.929 . S
H668 C662 0.930 . S
H669 C661 0.931 . S
H670 C684 0.930 . S
H671 C651 0.930 . S
H672 C657 0.929 . S
H673 C658 0.930 . S
H674 C679 0.930 . S
H675 C654 0.930 . S
H676 C687 0.931 . S
N677 Tb648 2.617 . S
N677 C678 1.379 . S
N677 C681 1.334 . S
C678 N677 1.379 . S
C678 C680 1.416 . S
C678 C686 1.424 . S
C679 H674 0.930 . S
C679 C681 1.390 . S
C679 C682 1.339 . S
C680 C678 1.416 . S
C680 C682 1.416 . S
C680 C713 1.448 . S
C681 H666 0.930 . S
C681 N677 1.334 . S
C681 C679 1.390 . S
C682 C679 1.339 . S
C682 C680 1.416 . S
C682 H689 0.930 . S
N683 Tb648 2.572 . S
N683 C684 1.340 . S
N683 C686 1.361 . S
C684 H670 0.930 . S
C684 N683 1.340 . S
C684 C688 1.407 . S
C685 C686 1.413 . S
C685 C687 1.416 . S
C685 C714 1.427 . S
C686 C678 1.424 . S
C686 N683 1.361 . S
C686 C685 1.413 . S
C687 H676 0.931 . S
C687 C685 1.416 . S
C687 C688 1.332 . S
C688 H667 0.929 . S
C688 C684 1.407 . S
C688 C687 1.332 . S
H689 C682 0.930 . S
H690 C713 0.930 . S
H691 C714 0.929 . S
O692 Tb648 2.465 . S
O692 C712 1.264 . S
O693 Tb648 2.387 . S
O693 C704 1.264 . S
O694 Tb659 2.349 . S
O694 C704 1.243 . S
O695 Tb648 2.428 . S
O695 C712 1.256 . S
O696 Tb648 2.308 . S
O696 C711 1.266 . S
O697 Tb659 2.393 . S
O697 C711 1.248 . S
O698 Tb659 2.465 . S
O698 C723 1.264 . S
O699 Tb659 2.387 . S
O699 C715 1.264 . S
O700 Tb648 2.349 . S
O700 C715 1.243 . S
O701 Tb659 2.428 . S
O701 C723 1.256 . S
O702 Tb659 2.308 . S
O702 C722 1.266 . S
O703 Tb648 2.393 . S
O703 C722 1.248 . S
C704 O693 1.264 . S
C704 O694 1.243 . S
C705 C708 1.399 . S
C705 C710 1.383 . S
C705 C712 1.496 . S
C706 C707 1.399 . S
C706 C710 1.389 . S
C707 C706 1.399 . S
C707 C709 1.380 . S
C707 H724 0.929 . S
C708 C705 1.399 . S
C708 C709 1.392 . S
C708 H725 0.929 . S
C709 C707 1.380 . S
C709 C708 1.392 . S
C709 H726 0.929 . S
C710 C705 1.383 . S
C710 C706 1.389 . S
C710 H727 0.931 . S
C711 O696 1.266 . S
C711 O697 1.248 . S
C712 Tb648 2.802 . S
C712 O692 1.264 . S
C712 O695 1.256 . S
C712 C705 1.496 . S
C713 C680 1.448 . S
C713 H690 0.930 . S
C713 C714 1.328 . S
C714 C685 1.427 . S
C714 H691 0.929 . S
C714 C713 1.328 . S
C715 O699 1.264 . S
C715 O700 1.243 . S
C716 C719 1.399 . S
C716 C720 1.383 . S
C716 C723 1.496 . S
C717 C718 1.399 . S
C717 C720 1.389 . S
C718 C717 1.399 . S
C718 C721 1.380 . S
C718 H728 0.929 . S
C719 C716 1.399 . S
C719 C721 1.392 . S
C719 H729 0.929 . S
C720 C716 1.383 . S
C720 C717 1.389 . S
C720 H730 0.931 . S
C721 C718 1.380 . S
C721 C719 1.392 . S
C721 H731 0.929 . S
C722 O702 1.266 . S
C722 O703 1.248 . S
C723 Tb659 2.802 . S
C723 O698 1.264 . S
C723 O701 1.256 . S
C723 C716 1.496 . S
H724 C707 0.929 . S
H725 C708 0.929 . S
H726 C709 0.929 . S
H727 C710 0.931 . S
H728 C718 0.929 . S
H729 C719 0.929 . S
H730 C720 0.931 . S
H731 C721 0.929 . S
Tb732 N761 2.617 . S
Tb732 N767 2.572 . S
Tb732 O776 2.465 . S
Tb732 O777 2.387 1_455 S
Tb732 O779 2.428 . S
Tb732 O780 2.308 . S
Tb732 O784 2.349 . S
Tb732 O787 2.393 . S
Tb732 C796 2.802 . S
C733 N734 1.379 1_455 S
C733 C736 1.416 . S
C733 C740 1.424 . S
N734 C733 1.379 1_655 S
N734 C737 1.334 . S
N734 Tb743 2.617 . S
C735 C737 1.390 1_455 S
C735 C738 1.339 . S
C735 H755 0.930 1_455 S
C736 C733 1.416 . S
C736 C738 1.416 . S
C736 C742 1.448 . S
C737 N734 1.334 . S
C737 C735 1.390 1_655 S
C737 H748 0.930 . S
C738 C735 1.339 . S
C738 C736 1.416 . S
C738 H759 0.930 . S
C739 C740 1.413 . S
C739 C741 1.427 . S
C739 C745 1.416 . S
C740 C733 1.424 . S
C740 C739 1.413 . S
C740 N744 1.361 . S
C741 C739 1.427 . S
C741 C742 1.328 . S
C741 H756 0.929 . S
C742 C736 1.448 . S
C742 C741 1.328 . S
C742 H757 0.930 . S
Tb743 N734 2.617 . S
Tb743 N744 2.572 1_655 S
Tb743 O778 2.349 . S
Tb743 O781 2.393 . S
Tb743 O782 2.465 . S
Tb743 O783 2.387 1_655 S
Tb743 O785 2.428 . S
Tb743 O786 2.322 . S
Tb743 C807 2.802 . S
N744 C740 1.361 . S
N744 Tb743 2.572 1_455 S
N744 C746 1.340 . S
C745 C739 1.416 . S
C745 C747 1.332 . S
C745 H753 0.931 . S
C746 N744 1.340 . S
C746 C747 1.407 . S
C746 H752 0.930 1_455 S
C747 C745 1.332 . S
C747 C746 1.407 . S
C747 H749 0.929 . S
H748 C737 0.930 . S
H749 C747 0.929 . S
H750 C765 0.930 . S
H751 C772 0.929 . S
H752 C746 0.930 1_655 S
H753 C745 0.931 . S
H754 C768 0.930 . S
H755 C735 0.930 1_655 S
H756 C741 0.929 . S
H757 C742 0.930 . S
H758 C763 0.930 . S
H759 C738 0.930 . S
H760 C771 0.931 . S
N761 Tb732 2.617 . S
N761 C762 1.379 . S
N761 C765 1.334 . S
C762 N761 1.379 . S
C762 C764 1.416 1_455 S
C762 C770 1.426 . S
C763 H758 0.930 . S
C763 C765 1.390 . S
C763 C766 1.339 1_455 S
C764 C762 1.416 1_655 S
C764 C766 1.416 . S
C764 C797 1.448 . S
C765 H750 0.930 . S
C765 N761 1.334 . S
C765 C763 1.390 . S
C766 C763 1.339 1_655 S
C766 C764 1.416 . S
C766 H773 0.930 . S
N767 Tb732 2.572 . S
N767 C768 1.340 . S
N767 C770 1.369 . S
C768 H754 0.930 . S
C768 N767 1.340 . S
C768 C772 1.407 1_455 S
C769 C770 1.403 1_655 S
C769 C771 1.416 . S
C769 C798 1.427 . S
C770 C762 1.426 . S
C770 N767 1.369 . S
C770 C769 1.403 1_455 S
C771 H760 0.931 . S
C771 C769 1.416 . S
C771 C772 1.332 . S
C772 H751 0.929 . S
C772 C768 1.407 1_655 S
C772 C771 1.332 . S
H773 C766 0.930 . S
H774 C797 0.930 . S
H775 C798 0.929 . S
O776 Tb732 2.465 . S
O776 C796 1.264 . S
O777 Tb732 2.387 1_655 S
O777 C788 1.264 . S
O778 Tb743 2.349 . S
O778 C788 1.243 . S
O779 Tb732 2.428 . S
O779 C796 1.256 . S
O780 Tb732 2.308 . S
O780 C795 1.266 . S
O781 Tb743 2.393 . S
O781 C795 1.248 1_655 S
O782 Tb743 2.465 . S
O782 C807 1.264 . S
O783 Tb743 2.387 1_455 S
O783 C799 1.264 . S
O784 Tb732 2.349 . S
O784 C799 1.243 . S
O785 Tb743 2.428 . S
O785 C807 1.256 . S
O786 Tb743 2.322 . S
O786 C806 1.256 1_655 S
O787 Tb732 2.393 . S
O787 C806 1.248 . S
C788 O777 1.264 . S
C788 O778 1.243 . S
C789 C792 1.399 . S
C789 C794 1.383 . S
C789 C796 1.496 . S
C790 C791 1.399 . S
C790 C794 1.389 . S
C791 C790 1.399 . S
C791 C793 1.380 . S
C791 H808 0.929 . S
C792 C789 1.399 . S
C792 C793 1.392 . S
C792 H809 0.929 . S
C793 C791 1.380 . S
C793 C792 1.392 . S
C793 H810 0.929 . S
C794 C789 1.383 . S
C794 C790 1.389 . S
C794 H811 0.931 . S
C795 O780 1.266 . S
C795 O781 1.248 1_455 S
C796 Tb732 2.802 . S
C796 O776 1.264 . S
C796 O779 1.256 . S
C796 C789 1.496 . S
C797 C764 1.448 . S
C797 H774 0.930 . S
C797 C798 1.328 . S
C798 C769 1.427 . S
C798 H775 0.929 . S
C798 C797 1.328 . S
C799 O783 1.264 . S
C799 O784 1.243 . S
C800 C803 1.399 . S
C800 C804 1.383 . S
C800 C807 1.496 . S
C801 C802 1.399 . S
C801 C804 1.389 . S
C802 C801 1.399 . S
C802 C805 1.380 . S
C802 H812 0.929 . S
C803 C800 1.399 . S
C803 C805 1.392 . S
C803 H813 0.929 . S
C804 C800 1.383 . S
C804 C801 1.389 . S
C804 H814 0.931 . S
C805 C802 1.380 . S
C805 C803 1.392 . S
C805 H815 0.929 . S
C806 O786 1.256 1_455 S
C806 O787 1.248 . S
C807 Tb743 2.802 . S
C807 O782 1.264 . S
C807 O785 1.256 . S
C807 C800 1.496 . S
H808 C791 0.929 . S
H809 C792 0.929 . S
H810 C793 0.929 . S
H811 C794 0.931 . S
H812 C802 0.929 . S
H813 C803 0.929 . S
H814 C804 0.931 . S
H815 C805 0.929 . S
C816 C817 1.391 . S
C816 C818 1.394 . S
C816 H832 0.931 . S
C817 C816 1.391 . S
C817 C821 1.376 . S
C818 C816 1.394 . S
C818 C819 1.369 . S
C818 C822 1.531 . S
C819 C818 1.369 . S
C819 C820 1.410 . S
C819 C827 1.503 . S
C820 C819 1.410 . S
C820 C821 1.392 . S
C820 C823 1.511 . S
C821 C817 1.376 . S
C821 C820 1.392 . S
C821 H833 0.929 . S
C822 C818 1.531 . S
C822 H834 0.960 . S
C822 H835 0.962 . S
C822 H836 0.960 . S
C823 C820 1.511 . S
C823 H837 0.961 . S
C823 H838 0.961 . S
C823 H839 0.961 . S
C824 C825 1.370 . S
C824 C826 1.363 . S
C824 H840 0.931 . S
C825 C824 1.370 . S
C825 C829 1.408 . S
C826 C824 1.363 . S
C826 C827 1.370 . S
C826 C830 1.524 . S
C827 C819 1.503 . S
C827 C826 1.370 . S
C827 C828 1.403 . S
C828 C827 1.403 . S
C828 C829 1.404 . S
C828 C831 1.539 1_545 S
C829 C825 1.408 . S
C829 C828 1.404 . S
C829 H841 0.930 1_545 S
C830 C826 1.524 . S
C830 H842 0.956 . S
C830 H843 0.961 . S
C830 H844 0.961 . S
C831 C828 1.539 1_565 S
C831 H845 0.958 . S
C831 H846 0.961 . S
C831 H847 0.960 . S
H832 C816 0.931 . S
H833 C821 0.929 . S
H834 C822 0.960 . S
H835 C822 0.962 . S
H836 C822 0.960 . S
H837 C823 0.961 . S
H838 C823 0.961 . S
H839 C823 0.961 . S
H840 C824 0.931 . S
H841 C829 0.930 1_565 S
H842 C830 0.956 . S
H843 C830 0.961 . S
H844 C830 0.961 . S
H845 C831 0.958 . S
H846 C831 0.961 . S
H847 C831 0.960 . S
C848 C849 1.391 . S
C848 C850 1.394 . S
C848 H864 0.931 . S
C849 C848 1.391 . S
C849 C853 1.376 . S
C850 C848 1.394 . S
C850 C851 1.369 . S
C850 C854 1.531 . S
C851 C850 1.369 . S
C851 C852 1.410 . S
C851 C859 1.503 . S
C852 C851 1.410 . S
C852 C853 1.392 . S
C852 C855 1.511 . S
C853 C849 1.376 . S
C853 C852 1.392 . S
C853 H865 0.929 . S
C854 C850 1.531 . S
C854 H866 0.960 . S
C854 H867 0.962 . S
C854 H868 0.960 . S
C855 C852 1.511 . S
C855 H869 0.961 . S
C855 H870 0.961 . S
C855 H871 0.961 . S
C856 C857 1.370 . S
C856 C858 1.363 . S
C856 H872 0.931 . S
C857 C856 1.370 . S
C857 C861 1.408 . S
C858 C856 1.363 . S
C858 C859 1.370 . S
C858 C862 1.524 . S
C859 C851 1.503 . S
C859 C858 1.370 . S
C859 C860 1.403 . S
C860 C859 1.403 . S
C860 C861 1.404 . S
C860 C863 1.539 . S
C861 C857 1.408 . S
C861 C860 1.404 . S
C861 H873 0.930 . S
C862 C858 1.524 . S
C862 H874 0.956 . S
C862 H875 0.961 . S
C862 H876 0.961 . S
C863 C860 1.539 . S
C863 H877 0.958 . S
C863 H878 0.961 . S
C863 H879 0.960 . S
H864 C848 0.931 . S
H865 C853 0.929 . S
H866 C854 0.960 . S
H867 C854 0.962 . S
H868 C854 0.960 . S
H869 C855 0.961 . S
H870 C855 0.961 . S
H871 C855 0.961 . S
H872 C856 0.931 . S
H873 C861 0.930 . S
H874 C862 0.956 . S
H875 C862 0.961 . S
H876 C862 0.961 . S
H877 C863 0.958 . S
H878 C863 0.961 . S
H879 C863 0.960 . S
C880 C881 1.391 . S
C880 C882 1.394 . S
C880 H896 0.931 . S
C881 C880 1.391 . S
C881 C885 1.376 . S
C882 C880 1.394 . S
C882 C883 1.369 . S
C882 C886 1.531 . S
C883 C882 1.369 . S
C883 C884 1.410 . S
C883 C891 1.503 . S
C884 C883 1.410 . S
C884 C885 1.392 . S
C884 C887 1.511 . S
C885 C881 1.376 . S
C885 C884 1.392 . S
C885 H897 0.929 . S
C886 C882 1.531 . S
C886 H898 0.960 . S
C886 H899 0.962 . S
C886 H900 0.960 . S
C887 C884 1.511 . S
C887 H901 0.961 . S
C887 H902 0.961 . S
C887 H903 0.961 . S
C888 C889 1.370 . S
C888 C890 1.363 . S
C888 H904 0.931 . S
C889 C888 1.370 . S
C889 C893 1.408 . S
C890 C888 1.363 . S
C890 C891 1.370 . S
C890 C894 1.524 . S
C891 C883 1.503 . S
C891 C890 1.370 . S
C891 C892 1.403 . S
C892 C891 1.403 . S
C892 C893 1.404 . S
C892 C895 1.539 . S
C893 C889 1.408 . S
C893 C892 1.404 . S
C893 H905 0.930 . S
C894 C890 1.524 . S
C894 H906 0.956 . S
C894 H907 0.961 . S
C894 H908 0.961 . S
C895 C892 1.539 . S
C895 H909 0.958 . S
C895 H910 0.961 . S
C895 H911 0.960 . S
H896 C880 0.931 . S
H897 C885 0.929 . S
H898 C886 0.960 . S
H899 C886 0.962 . S
H900 C886 0.960 . S
H901 C887 0.961 . S
H902 C887 0.961 . S
H903 C887 0.961 . S
H904 C888 0.931 . S
H905 C893 0.930 . S
H906 C894 0.956 . S
H907 C894 0.961 . S
H908 C894 0.961 . S
H909 C895 0.958 . S
H910 C895 0.961 . S
H911 C895 0.960 . S
C912 C913 1.391 . S
C912 C914 1.394 . S
C912 H928 0.931 . S
C913 C912 1.391 . S
C913 C917 1.376 . S
C914 C912 1.394 . S
C914 C915 1.369 . S
C914 C918 1.531 . S
C915 C914 1.369 . S
C915 C916 1.410 . S
C915 C923 1.503 . S
C916 C915 1.410 . S
C916 C917 1.392 . S
C916 C919 1.511 . S
C917 C913 1.376 . S
C917 C916 1.392 . S
C917 H929 0.929 . S
C918 C914 1.531 . S
C918 H930 0.960 . S
C918 H931 0.962 . S
C918 H932 0.960 . S
C919 C916 1.511 . S
C919 H933 0.961 . S
C919 H934 0.961 . S
C919 H935 0.961 1_455 S
C920 C921 1.370 . S
C920 C922 1.363 . S
C920 H936 0.931 . S
C921 C920 1.370 . S
C921 C925 1.408 1_455 S
C922 C920 1.363 . S
C922 C923 1.370 . S
C922 C926 1.524 . S
C923 C915 1.503 . S
C923 C922 1.370 . S
C923 C924 1.357 1_455 S
C924 C923 1.357 1_655 S
C924 C925 1.411 . S
C924 C927 1.581 . S
C925 C921 1.408 1_655 S
C925 C924 1.411 . S
C925 H937 0.930 . S
C926 C922 1.524 . S
C926 H938 0.956 . S
C926 H939 0.961 . S
C926 H940 0.961 . S
C927 C924 1.581 . S
C927 H941 0.958 . S
C927 H942 0.961 . S
C927 H943 0.960 . S
H928 C912 0.931 . S
H929 C917 0.929 . S
H930 C918 0.960 . S
H931 C918 0.962 . S
H932 C918 0.960 . S
H933 C919 0.961 . S
H934 C919 0.961 . S
H935 C919 0.961 1_655 S
H936 C920 0.931 . S
H937 C925 0.930 . S
H938 C926 0.956 . S
H939 C926 0.961 . S
H940 C926 0.961 . S
H941 C927 0.958 . S
H942 C927 0.961 . S
H943 C927 0.960 . S
C944 C945 1.391 . S
C944 C946 1.394 . S
C944 H960 0.931 . S
C945 C944 1.391 . S
C945 C949 1.376 . S
C946 C944 1.394 . S
C946 C947 1.369 1_554 S
C946 C950 1.531 1_554 S
C947 C946 1.369 1_556 S
C947 C948 1.410 . S
C947 C955 1.503 . S
C948 C947 1.410 . S
C948 C949 1.392 1_556 S
C948 C951 1.511 1_565 S
C949 C945 1.376 . S
C949 C948 1.392 1_554 S
C949 H961 0.929 1_565 S
C950 C946 1.531 1_556 S
C950 H962 0.960 . S
C950 H963 0.962 . S
C950 H964 0.960 1_556 S
C951 C948 1.511 1_545 S
C951 H965 0.961 . S
C951 H966 0.961 . S
C951 H967 0.961 . S
C952 C953 1.370 1_545 S
C952 C954 1.367 . S
C952 H968 0.931 . S
C953 C952 1.370 1_565 S
C953 C957 1.408 . S
C954 C952 1.367 . S
C954 C955 1.361 1_545 S
C954 C958 1.531 . S
C955 C947 1.503 . S
C955 C954 1.361 1_565 S
C955 C956 1.403 . S
C956 C955 1.403 . S
C956 C957 1.404 . S
C956 C959 1.539 . S
C957 C953 1.408 . S
C957 C956 1.404 . S
C957 H969 0.930 . S
C958 C954 1.531 . S
C958 H970 0.936 1_545 S
C958 H971 0.961 . S
C958 H972 0.961 . S
C959 C956 1.539 . S
C959 H973 0.958 . S
C959 H974 0.961 . S
C959 H975 0.960 . S
H960 C944 0.931 . S
H961 C949 0.929 1_545 S
H962 C950 0.960 . S
H963 C950 0.962 . S
H964 C950 0.960 1_554 S
H965 C951 0.961 . S
H966 C951 0.961 . S
H967 C951 0.961 . S
H968 C952 0.931 . S
H969 C957 0.930 . S
H970 C958 0.936 1_565 S
H971 C958 0.961 . S
H972 C958 0.961 . S
H973 C959 0.958 . S
H974 C959 0.961 . S
H975 C959 0.960 . S
C976 C977 1.391 . S
C976 C978 1.394 1_554 S
C976 H992 0.931 . S
C977 C976 1.391 . S
C977 C981 1.376 . S
C978 C976 1.394 1_556 S
C978 C979 1.369 . S
C978 C982 1.531 . S
C979 C978 1.369 . S
C979 C980 1.410 1_556 S
C979 C987 1.503 . S
C980 C979 1.410 1_554 S
C980 C981 1.392 . S
C980 C983 1.511 . S
C981 C977 1.376 . S
C981 C980 1.392 . S
C981 H993 0.929 . S
C982 C978 1.531 . S
C982 H994 0.960 . S
C982 H995 0.962 . S
C982 H996 0.960 . S
C983 C980 1.511 . S
C983 H997 0.961 . S
C983 H998 0.961 1_554 S
C983 H999 0.961 . S
C984 C985 1.370 . S
C984 C986 1.363 . S
C984 H1000 0.931 . S
C985 C984 1.370 . S
C985 C989 1.408 . S
C986 C984 1.363 . S
C986 C987 1.370 . S
C986 C990 1.524 . S
C987 C979 1.503 . S
C987 C986 1.370 . S
C987 C988 1.403 . S
C988 C987 1.403 . S
C988 C989 1.404 . S
C988 C991 1.539 . S
C989 C985 1.408 . S
C989 C988 1.404 . S
C989 H1001 0.930 . S
C990 C986 1.524 . S
C990 H1002 0.956 . S
C990 H1003 0.961 . S
C990 H1004 0.961 . S
C991 C988 1.539 . S
C991 H1005 0.958 . S
C991 H1006 0.961 . S
C991 H1007 0.960 . S
H992 C976 0.931 . S
H993 C981 0.929 . S
H994 C982 0.960 . S
H995 C982 0.962 . S
H996 C982 0.960 . S
H997 C983 0.961 . S
H998 C983 0.961 1_556 S
H999 C983 0.961 . S
H1000 C984 0.931 . S
H1001 C989 0.930 . S
H1002 C990 0.956 . S
H1003 C990 0.961 . S
H1004 C990 0.961 . S
H1005 C991 0.958 . S
H1006 C991 0.961 . S
H1007 C991 0.960 . S
C1008 C1009 1.391 . S
C1008 C1010 1.394 . S
C1008 H1024 0.931 . S
C1009 C1008 1.391 . S
C1009 C1013 1.376 . S
C1010 C1008 1.394 . S
C1010 C1011 1.369 1_554 S
C1010 C1014 1.531 . S
C1011 C1010 1.369 1_556 S
C1011 C1012 1.410 . S
C1011 C1019 1.503 . S
C1012 C1011 1.410 . S
C1012 C1013 1.392 1_556 S
C1012 C1015 1.511 . S
C1013 C1009 1.376 . S
C1013 C1012 1.392 1_554 S
C1013 H1025 0.929 . S
C1014 C1010 1.531 . S
C1014 H1026 0.960 1_554 S
C1014 H1027 0.962 . S
C1014 H1028 0.960 . S
C1015 C1012 1.511 . S
C1015 H1029 0.961 . S
C1015 H1030 0.961 . S
C1015 H1031 0.961 . S
C1016 C1017 1.370 . S
C1016 C1018 1.363 . S
C1016 H1032 0.931 . S
C1017 C1016 1.370 . S
C1017 C1021 1.408 . S
C1018 C1016 1.363 . S
C1018 C1019 1.370 . S
C1018 C1022 1.524 . S
C1019 C1011 1.503 . S
C1019 C1018 1.370 . S
C1019 C1020 1.403 . S
C1020 C1019 1.403 . S
C1020 C1021 1.404 . S
C1020 C1023 1.539 . S
C1021 C1017 1.408 . S
C1021 C1020 1.404 . S
C1021 H1033 0.930 . S
C1022 C1018 1.524 . S
C1022 H1034 0.956 . S
C1022 H1035 0.961 . S
C1022 H1036 0.961 . S
C1023 C1020 1.539 . S
C1023 H1037 0.958 . S
C1023 H1038 0.961 . S
C1023 H1039 0.960 . S
H1024 C1008 0.931 . S
H1025 C1013 0.929 . S
H1026 C1014 0.960 1_556 S
H1027 C1014 0.962 . S
H1028 C1014 0.960 . S
H1029 C1015 0.961 . S
H1030 C1015 0.961 . S
H1031 C1015 0.961 . S
H1032 C1016 0.931 . S
H1033 C1021 0.930 . S
H1034 C1022 0.956 . S
H1035 C1022 0.961 . S
H1036 C1022 0.961 . S
H1037 C1023 0.958 . S
H1038 C1023 0.961 . S
H1039 C1023 0.960 . S
C1040 C1041 1.391 . S
C1040 C1042 1.394 . S
C1040 H1056 0.931 1_655 S
C1041 C1040 1.391 . S
C1041 C1045 1.376 . S
C1042 C1040 1.394 . S
C1042 C1043 1.369 1_554 S
C1042 C1046 1.531 1_655 S
C1043 C1042 1.369 1_556 S
C1043 C1044 1.410 . S
C1043 C1051 1.503 . S
C1044 C1043 1.410 . S
C1044 C1045 1.392 1_556 S
C1044 C1047 1.511 . S
C1045 C1041 1.376 . S
C1045 C1044 1.392 1_554 S
C1045 H1057 0.929 . S
C1046 C1042 1.531 1_455 S
C1046 H1058 0.960 1_554 S
C1046 H1059 0.958 1_554 S
C1046 H1060 0.960 . S
C1047 C1044 1.511 . S
C1047 H1061 0.961 . S
C1047 H1062 0.961 . S
C1047 H1063 0.961 . S
C1048 C1049 1.370 . S
C1048 C1050 1.363 . S
C1048 H1064 0.931 1_655 S
C1049 C1048 1.370 . S
C1049 C1053 1.408 . S
C1050 C1048 1.363 . S
C1050 C1051 1.370 . S
C1050 C1054 1.534 . S
C1051 C1043 1.503 . S
C1051 C1050 1.370 . S
C1051 C1052 1.403 . S
C1052 C1051 1.403 . S
C1052 C1053 1.404 . S
C1052 C1055 1.539 . S
C1053 C1049 1.408 . S
C1053 C1052 1.404 . S
C1053 H1065 0.930 . S
C1054 C1050 1.534 . S
C1054 H1066 0.924 1_655 S
C1054 H1067 0.998 . S
C1054 H1068 0.949 1_655 S
C1055 C1052 1.539 . S
C1055 H1069 0.958 . S
C1055 H1070 0.961 . S
C1055 H1071 0.960 . S
H1056 C1040 0.931 1_455 S
H1057 C1045 0.929 . S
H1058 C1046 0.960 1_556 S
H1059 C1046 0.958 1_556 S
H1060 C1046 0.960 . S
H1061 C1047 0.961 . S
H1062 C1047 0.961 . S
H1063 C1047 0.961 . S
H1064 C1048 0.931 1_455 S
H1065 C1053 0.930 . S
H1066 C1054 0.924 1_455 S
H1067 C1054 0.998 . S
H1068 C1054 0.949 1_455 S
H1069 C1055 0.958 . S
H1070 C1055 0.961 . S
H1071 C1055 0.960 . S
C1072 C1073 1.391 . S
C1072 C1074 1.394 . S
C1072 H1088 0.931 . S
C1073 C1072 1.391 . S
C1073 C1077 1.376 . S
C1074 C1072 1.394 . S
C1074 C1075 1.369 . S
C1074 C1078 1.531 . S
C1075 C1074 1.369 . S
C1075 C1076 1.410 . S
C1075 C1083 1.503 . S
C1076 C1075 1.410 . S
C1076 C1077 1.392 . S
C1076 C1079 1.511 . S
C1077 C1073 1.376 . S
C1077 C1076 1.392 . S
C1077 H1089 0.929 . S
C1078 C1074 1.531 . S
C1078 H1090 0.960 . S
C1078 H1091 0.962 . S
C1078 H1092 0.960 . S
C1079 C1076 1.511 . S
C1079 H1093 0.961 . S
C1079 H1094 0.961 . S
C1079 H1095 0.961 . S
C1080 C1081 1.370 . S
C1080 C1082 1.363 . S
C1080 H1096 0.931 . S
C1081 C1080 1.370 . S
C1081 C1085 1.408 1_655 S
C1082 C1080 1.363 . S
C1082 C1083 1.370 1_655 S
C1082 C1086 1.524 . S
C1083 C1075 1.503 . S
C1083 C1082 1.370 1_455 S
C1083 C1084 1.403 . S
C1084 C1083 1.403 . S
C1084 C1085 1.404 . S
C1084 C1087 1.539 . S
C1085 C1081 1.408 1_455 S
C1085 C1084 1.404 . S
C1085 H1097 0.930 . S
C1086 C1082 1.524 . S
C1086 H1098 0.956 . S
C1086 H1099 0.961 . S
C1086 H1100 0.961 . S
C1087 C1084 1.539 . S
C1087 H1101 0.958 . S
C1087 H1102 0.961 . S
C1087 H1103 0.960 . S
H1088 C1072 0.931 . S
H1089 C1077 0.929 . S
H1090 C1078 0.960 . S
H1091 C1078 0.962 . S
H1092 C1078 0.960 . S
H1093 C1079 0.961 . S
H1094 C1079 0.961 . S
H1095 C1079 0.961 . S
H1096 C1080 0.931 . S
H1097 C1085 0.930 . S
H1098 C1086 0.956 . S
H1099 C1086 0.961 . S
H1100 C1086 0.961 . S
H1101 C1087 0.958 . S
H1102 C1087 0.961 . S
H1103 C1087 0.960 . S
C1104 C1105 1.391 . S
C1104 C1106 1.394 . S
C1104 H1120 0.931 . S
C1105 C1104 1.391 . S
C1105 C1109 1.376 . S
C1106 C1104 1.394 . S
C1106 C1107 1.369 . S
C1106 C1110 1.531 . S
C1107 C1106 1.369 . S
C1107 C1108 1.410 . S
C1107 C1115 1.503 . S
C1108 C1107 1.410 . S
C1108 C1109 1.392 . S
C1108 C1111 1.511 . S
C1109 C1105 1.376 . S
C1109 C1108 1.392 . S
C1109 H1121 0.929 . S
C1110 C1106 1.531 . S
C1110 H1122 0.960 . S
C1110 H1123 0.962 . S
C1110 H1124 0.960 . S
C1111 C1108 1.511 . S
C1111 H1125 0.961 . S
C1111 H1126 0.961 . S
C1111 H1127 0.961 1_545 S
C1112 C1113 1.370 . S
C1112 C1114 1.363 . S
C1112 H1128 0.931 . S
C1113 C1112 1.370 . S
C1113 C1117 1.408 1_545 S
C1114 C1112 1.363 . S
C1114 C1115 1.370 . S
C1114 C1118 1.524 . S
C1115 C1107 1.503 . S
C1115 C1114 1.370 . S
C1115 C1116 1.403 1_545 S
C1116 C1115 1.403 1_565 S
C1116 C1117 1.404 . S
C1116 C1119 1.539 . S
C1117 C1113 1.408 1_565 S
C1117 C1116 1.404 . S
C1117 H1129 0.930 . S
C1118 C1114 1.524 . S
C1118 H1130 0.956 . S
C1118 H1131 0.961 . S
C1118 H1132 0.961 . S
C1119 C1116 1.539 . S
C1119 H1133 0.958 . S
C1119 H1134 0.961 . S
C1119 H1135 0.960 . S
H1120 C1104 0.931 . S
H1121 C1109 0.929 . S
H1122 C1110 0.960 . S
H1123 C1110 0.962 . S
H1124 C1110 0.960 . S
H1125 C1111 0.961 . S
H1126 C1111 0.961 . S
H1127 C1111 0.961 1_565 S
H1128 C1112 0.931 . S
H1129 C1117 0.930 . S
H1130 C1118 0.956 . S
H1131 C1118 0.961 . S
H1132 C1118 0.961 . S
H1133 C1119 0.958 . S
H1134 C1119 0.961 . S
H1135 C1119 0.960 . S
C1136 C1137 1.391 . S
C1136 C1138 1.394 . S
C1136 H1152 0.931 . S
C1137 C1136 1.391 . S
C1137 C1141 1.376 . S
C1138 C1136 1.394 . S
C1138 C1139 1.369 . S
C1138 C1142 1.531 . S
C1139 C1138 1.369 . S
C1139 C1140 1.410 . S
C1139 C1147 1.503 . S
C1140 C1139 1.410 . S
C1140 C1141 1.392 . S
C1140 C1143 1.511 . S
C1141 C1137 1.376 . S
C1141 C1140 1.392 . S
C1141 H1153 0.929 . S
C1142 C1138 1.531 . S
C1142 H1154 0.960 . S
C1142 H1155 0.962 . S
C1142 H1156 0.960 . S
C1143 C1140 1.511 . S
C1143 H1157 0.961 . S
C1143 H1158 0.961 . S
C1143 H1159 0.961 . S
C1144 C1145 1.370 . S
C1144 C1146 1.363 . S
C1144 H1160 0.931 . S
C1145 C1144 1.370 . S
C1145 C1149 1.408 . S
C1146 C1144 1.363 . S
C1146 C1147 1.370 . S
C1146 C1150 1.524 . S
C1147 C1139 1.503 . S
C1147 C1146 1.370 . S
C1147 C1148 1.403 . S
C1148 C1147 1.403 . S
C1148 C1149 1.404 . S
C1148 C1151 1.539 . S
C1149 C1145 1.408 . S
C1149 C1148 1.404 . S
C1149 H1161 0.930 . S
C1150 C1146 1.524 . S
C1150 H1162 0.956 . S
C1150 H1163 0.961 . S
C1150 H1164 0.961 . S
C1151 C1148 1.539 . S
C1151 H1165 0.958 . S
C1151 H1166 0.961 . S
C1151 H1167 0.960 . S
H1152 C1136 0.931 . S
H1153 C1141 0.929 . S
H1154 C1142 0.960 . S
H1155 C1142 0.962 . S
H1156 C1142 0.960 . S
H1157 C1143 0.961 . S
H1158 C1143 0.961 . S
H1159 C1143 0.961 . S
H1160 C1144 0.931 . S
H1161 C1149 0.930 . S
H1162 C1150 0.956 . S
H1163 C1150 0.961 . S
H1164 C1150 0.961 . S
H1165 C1151 0.958 . S
H1166 C1151 0.961 . S
H1167 C1151 0.960 . S
C1168 C1169 1.391 . S
C1168 C1170 1.394 . S
C1168 H1184 0.931 . S
C1169 C1168 1.391 . S
C1169 C1173 1.376 . S
C1170 C1168 1.394 . S
C1170 C1171 1.369 . S
C1170 C1174 1.531 . S
C1171 C1170 1.369 . S
C1171 C1172 1.410 . S
C1171 C1179 1.503 . S
C1172 C1171 1.410 . S
C1172 C1173 1.392 . S
C1172 C1175 1.511 . S
C1173 C1169 1.376 . S
C1173 C1172 1.392 . S
C1173 H1185 0.929 . S
C1174 C1170 1.531 . S
C1174 H1186 0.960 . S
C1174 H1187 0.962 . S
C1174 H1188 0.960 . S
C1175 C1172 1.511 . S
C1175 H1189 0.961 . S
C1175 H1190 0.961 . S
C1175 H1191 0.961 . S
C1176 C1177 1.370 . S
C1176 C1178 1.363 . S
C1176 H1192 0.931 . S
C1177 C1176 1.370 . S
C1177 C1181 1.408 . S
C1178 C1176 1.363 . S
C1178 C1179 1.370 . S
C1178 C1182 1.524 . S
C1179 C1171 1.503 . S
C1179 C1178 1.370 . S
C1179 C1180 1.403 . S
C1180 C1179 1.403 . S
C1180 C1181 1.404 . S
C1180 C1183 1.539 . S
C1181 C1177 1.408 . S
C1181 C1180 1.404 . S
C1181 H1193 0.930 . S
C1182 C1178 1.524 . S
C1182 H1194 0.956 . S
C1182 H1195 0.961 . S
C1182 H1196 0.961 . S
C1183 C1180 1.539 . S
C1183 H1197 0.958 . S
C1183 H1198 0.961 . S
C1183 H1199 0.960 . S
H1184 C1168 0.931 . S
H1185 C1173 0.929 . S
H1186 C1174 0.960 . S
H1187 C1174 0.962 . S
H1188 C1174 0.960 . S
H1189 C1175 0.961 . S
H1190 C1175 0.961 . S
H1191 C1175 0.961 . S
H1192 C1176 0.931 . S
H1193 C1181 0.930 . S
H1194 C1182 0.956 . S
H1195 C1182 0.961 . S
H1196 C1182 0.961 . S
H1197 C1183 0.958 . S
H1198 C1183 0.961 . S
H1199 C1183 0.960 . S
C1200 C1201 1.391 . S
C1200 C1202 1.394 . S
C1200 H1216 0.931 . S
C1201 C1200 1.391 . S
C1201 C1205 1.376 . S
C1202 C1200 1.394 . S
C1202 C1203 1.369 1_554 S
C1202 C1206 1.531 . S
C1203 C1202 1.369 1_556 S
C1203 C1204 1.410 . S
C1203 C1211 1.503 . S
C1204 C1203 1.410 . S
C1204 C1205 1.392 1_556 S
C1204 C1207 1.511 1_655 S
C1205 C1201 1.376 . S
C1205 C1204 1.392 1_554 S
C1205 H1217 0.929 1_554 S
C1206 C1202 1.531 . S
C1206 H1218 0.960 . S
C1206 H1219 0.962 1_554 S
C1206 H1220 0.960 . S
C1207 C1204 1.511 1_455 S
C1207 H1221 0.961 . S
C1207 H1222 0.961 . S
C1207 H1223 0.961 . S
C1208 C1209 1.370 1_655 S
C1208 C1210 1.363 . S
C1208 H1224 0.931 . S
C1209 C1208 1.370 1_455 S
C1209 C1213 1.408 . S
C1210 C1208 1.363 . S
C1210 C1211 1.370 . S
C1210 C1214 1.524 . S
C1211 C1203 1.503 . S
C1211 C1210 1.370 . S
C1211 C1212 1.403 1_655 S
C1212 C1211 1.403 1_455 S
C1212 C1213 1.404 . S
C1212 C1215 1.539 1_556 S
C1213 C1209 1.408 . S
C1213 C1212 1.404 . S
C1213 H1225 0.930 . S
C1214 C1210 1.524 . S
C1214 H1226 0.956 . S
C1214 H1227 0.961 . S
C1214 H1228 0.961 . S
C1215 C1212 1.539 1_554 S
C1215 H1229 0.958 . S
C1215 H1230 0.961 . S
C1215 H1231 0.960 . S
H1216 C1200 0.931 . S
H1217 C1205 0.929 1_556 S
H1218 C1206 0.960 . S
H1219 C1206 0.962 1_556 S
H1220 C1206 0.960 . S
H1221 C1207 0.961 . S
H1222 C1207 0.961 . S
H1223 C1207 0.961 . S
H1224 C1208 0.931 . S
H1225 C1213 0.930 . S
H1226 C1214 0.956 . S
H1227 C1214 0.961 . S
H1228 C1214 0.961 . S
H1229 C1215 0.958 . S
H1230 C1215 0.961 . S
H1231 C1215 0.960 . S
C1232 C1233 1.391 . S
C1232 C1234 1.394 . S
C1232 H1248 0.931 . S
C1233 C1232 1.391 . S
C1233 C1237 1.376 1_554 S
C1234 C1232 1.394 . S
C1234 C1235 1.369 1_554 S
C1234 C1238 1.531 1_565 S
C1235 C1234 1.369 1_556 S
C1235 C1236 1.410 . S
C1235 C1243 1.507 . S
C1236 C1235 1.410 . S
C1236 C1237 1.392 . S
C1236 C1239 1.511 . S
C1237 C1233 1.376 1_556 S
C1237 C1236 1.392 . S
C1237 H1249 0.929 . S
C1238 C1234 1.531 1_545 S
C1238 H1250 0.960 . S
C1238 H1251 0.962 1_545 S
C1238 H1252 0.960 . S
C1239 C1236 1.511 . S
C1239 H1253 0.961 . S
C1239 H1254 0.961 . S
C1239 H1255 0.961 . S
C1240 C1241 1.370 1_565 S
C1240 C1242 1.363 . S
C1240 H1256 0.931 . S
C1241 C1240 1.370 1_545 S
C1241 C1245 1.408 . S
C1242 C1240 1.363 . S
C1242 C1243 1.377 . S
C1242 C1246 1.524 . S
C1243 C1235 1.507 . S
C1243 C1242 1.377 . S
C1243 C1244 1.392 1_565 S
C1244 C1243 1.392 1_545 S
C1244 C1245 1.404 . S
C1244 C1247 1.539 . S
C1245 C1241 1.408 . S
C1245 C1244 1.404 . S
C1245 H1257 0.930 . S
C1246 C1242 1.524 . S
C1246 H1258 0.970 . S
C1246 H1259 0.961 . S
C1246 H1260 0.961 . S
C1247 C1244 1.539 . S
C1247 H1261 0.958 . S
C1247 H1262 0.961 . S
C1247 H1263 0.960 . S
H1248 C1232 0.931 . S
H1249 C1237 0.929 . S
H1250 C1238 0.960 . S
H1251 C1238 0.962 1_565 S
H1252 C1238 0.960 . S
H1253 C1239 0.961 . S
H1254 C1239 0.961 . S
H1255 C1239 0.961 . S
H1256 C1240 0.931 . S
H1257 C1245 0.930 . S
H1258 C1246 0.970 . S
H1259 C1246 0.961 . S
H1260 C1246 0.961 . S
H1261 C1247 0.958 . S
H1262 C1247 0.961 . S
H1263 C1247 0.960 . S
C1264 C1265 1.391 . S
C1264 C1266 1.394 1_554 S
C1264 H1280 0.931 . S
C1265 C1264 1.391 . S
C1265 C1269 1.376 . S
C1266 C1264 1.394 1_556 S
C1266 C1267 1.369 . S
C1266 C1270 1.531 . S
C1267 C1266 1.369 . S
C1267 C1268 1.410 1_556 S
C1267 C1275 1.503 . S
C1268 C1267 1.410 1_554 S
C1268 C1269 1.392 . S
C1268 C1271 1.511 1_554 S
C1269 C1265 1.376 . S
C1269 C1268 1.392 . S
C1269 H1281 0.929 . S
C1270 C1266 1.531 . S
C1270 H1282 0.960 . S
C1270 H1283 0.962 . S
C1270 H1284 0.960 . S
C1271 C1268 1.511 1_556 S
C1271 H1285 0.961 . S
C1271 H1286 0.961 . S
C1271 H1287 0.961 1_556 S
C1272 C1273 1.370 . S
C1272 C1274 1.363 . S
C1272 H1288 0.931 . S
C1273 C1272 1.370 . S
C1273 C1277 1.408 . S
C1274 C1272 1.363 . S
C1274 C1275 1.370 . S
C1274 C1278 1.524 . S
C1275 C1267 1.503 . S
C1275 C1274 1.370 . S
C1275 C1276 1.403 . S
C1276 C1275 1.403 . S
C1276 C1277 1.404 . S
C1276 C1279 1.539 1_556 S
C1277 C1273 1.408 . S
C1277 C1276 1.404 . S
C1277 H1289 0.930 . S
C1278 C1274 1.524 . S
C1278 H1290 0.956 . S
C1278 H1291 0.961 . S
C1278 H1292 0.961 . S
C1279 C1276 1.539 1_554 S
C1279 H1293 0.958 . S
C1279 H1294 0.961 . S
C1279 H1295 0.960 . S
H1280 C1264 0.931 . S
H1281 C1269 0.929 . S
H1282 C1270 0.960 . S
H1283 C1270 0.962 . S
H1284 C1270 0.960 . S
H1285 C1271 0.961 . S
H1286 C1271 0.961 . S
H1287 C1271 0.961 1_554 S
H1288 C1272 0.931 . S
H1289 C1277 0.930 . S
H1290 C1278 0.956 . S
H1291 C1278 0.961 . S
H1292 C1278 0.961 . S
H1293 C1279 0.958 . S
H1294 C1279 0.961 . S
H1295 C1279 0.960 . S
C1296 C1297 1.391 . S
C1296 C1298 1.394 . S
C1296 H1312 0.931 . S
C1297 C1296 1.391 . S
C1297 C1301 1.376 1_554 S
C1298 C1296 1.394 . S
C1298 C1299 1.369 1_554 S
C1298 C1302 1.531 . S
C1299 C1298 1.369 1_556 S
C1299 C1300 1.410 . S
C1299 C1307 1.503 . S
C1300 C1299 1.410 . S
C1300 C1301 1.392 . S
C1300 C1303 1.511 . S
C1301 C1297 1.376 1_556 S
C1301 C1300 1.392 . S
C1301 H1313 0.929 . S
C1302 C1298 1.531 . S
C1302 H1314 0.960 . S
C1302 H1315 0.962 . S
C1302 H1316 0.960 . S
C1303 C1300 1.511 . S
C1303 H1317 0.961 . S
C1303 H1318 0.961 . S
C1303 H1319 0.961 . S
C1304 C1305 1.370 . S
C1304 C1306 1.363 . S
C1304 H1320 0.931 . S
C1305 C1304 1.370 . S
C1305 C1309 1.408 . S
C1306 C1304 1.363 . S
C1306 C1307 1.370 . S
C1306 C1310 1.524 . S
C1307 C1299 1.503 . S
C1307 C1306 1.370 . S
C1307 C1308 1.403 . S
C1308 C1307 1.403 . S
C1308 C1309 1.404 . S
C1308 C1311 1.539 1_556 S
C1309 C1305 1.408 . S
C1309 C1308 1.404 . S
C1309 H1321 0.930 . S
C1310 C1306 1.524 . S
C1310 H1322 0.956 . S
C1310 H1323 0.961 . S
C1310 H1324 0.961 . S
C1311 C1308 1.539 1_554 S
C1311 H1325 0.958 . S
C1311 H1326 0.961 1_554 S
C1311 H1327 0.960 . S
H1312 C1296 0.931 . S
H1313 C1301 0.929 . S
H1314 C1302 0.960 . S
H1315 C1302 0.962 . S
H1316 C1302 0.960 . S
H1317 C1303 0.961 . S
H1318 C1303 0.961 . S
H1319 C1303 0.961 . S
H1320 C1304 0.931 . S
H1321 C1309 0.930 . S
H1322 C1310 0.956 . S
H1323 C1310 0.961 . S
H1324 C1310 0.961 . S
H1325 C1311 0.958 . S
H1326 C1311 0.961 1_556 S
H1327 C1311 0.960 . S
C1328 C1329 1.391 . S
C1328 C1330 1.394 . S
C1328 H1344 0.931 . S
C1329 C1328 1.391 . S
C1329 C1333 1.376 . S
C1330 C1328 1.394 . S
C1330 C1331 1.369 . S
C1330 C1334 1.531 . S
C1331 C1330 1.369 . S
C1331 C1332 1.410 . S
C1331 C1339 1.503 . S
C1332 C1331 1.410 . S
C1332 C1333 1.392 . S
C1332 C1335 1.511 1_455 S
C1333 C1329 1.376 . S
C1333 C1332 1.392 . S
C1333 H1345 0.929 . S
C1334 C1330 1.531 . S
C1334 H1346 0.960 . S
C1334 H1347 0.962 . S
C1334 H1348 0.960 . S
C1335 C1332 1.511 1_655 S
C1335 H1349 0.961 . S
C1335 H1350 0.961 . S
C1335 H1351 0.961 . S
C1336 C1337 1.370 . S
C1336 C1338 1.363 . S
C1336 H1352 0.931 . S
C1337 C1336 1.370 . S
C1337 C1341 1.408 . S
C1338 C1336 1.363 . S
C1338 C1339 1.370 . S
C1338 C1342 1.524 . S
C1339 C1331 1.503 . S
C1339 C1338 1.370 . S
C1339 C1340 1.403 . S
C1340 C1339 1.403 . S
C1340 C1341 1.404 . S
C1340 C1343 1.539 . S
C1341 C1337 1.408 . S
C1341 C1340 1.404 . S
C1341 H1353 0.930 . S
C1342 C1338 1.524 . S
C1342 H1354 0.956 . S
C1342 H1355 0.961 . S
C1342 H1356 0.961 . S
C1343 C1340 1.539 . S
C1343 H1357 0.958 . S
C1343 H1358 0.961 . S
C1343 H1359 0.960 . S
H1344 C1328 0.931 . S
H1345 C1333 0.929 . S
H1346 C1334 0.960 . S
H1347 C1334 0.962 . S
H1348 C1334 0.960 . S
H1349 C1335 0.961 . S
H1350 C1335 0.961 . S
H1351 C1335 0.961 . S
H1352 C1336 0.931 . S
H1353 C1341 0.930 . S
H1354 C1342 0.956 . S
H1355 C1342 0.961 . S
H1356 C1342 0.961 . S
H1357 C1343 0.958 . S
H1358 C1343 0.961 . S
H1359 C1343 0.960 . S
C1360 C1361 1.391 . S
C1360 C1362 1.394 . S
C1360 H1376 0.931 . S
C1361 C1360 1.391 . S
C1361 C1365 1.376 . S
C1362 C1360 1.394 . S
C1362 C1363 1.369 . S
C1362 C1366 1.531 . S
C1363 C1362 1.369 . S
C1363 C1364 1.410 . S
C1363 C1371 1.503 . S
C1364 C1363 1.410 . S
C1364 C1365 1.392 . S
C1364 C1367 1.511 1_545 S
C1365 C1361 1.376 . S
C1365 C1364 1.392 . S
C1365 H1377 0.929 . S
C1366 C1362 1.531 . S
C1366 H1378 0.960 . S
C1366 H1379 0.962 . S
C1366 H1380 0.960 . S
C1367 C1364 1.511 1_565 S
C1367 H1381 0.961 . S
C1367 H1382 0.970 . S
C1367 H1383 0.961 . S
C1368 C1369 1.370 . S
C1368 C1370 1.363 . S
C1368 H1384 0.931 . S
C1369 C1368 1.370 . S
C1369 C1373 1.408 . S
C1370 C1368 1.363 . S
C1370 C1371 1.370 . S
C1370 C1374 1.524 . S
C1371 C1363 1.503 . S
C1371 C1370 1.370 . S
C1371 C1372 1.403 . S
C1372 C1371 1.403 . S
C1372 C1373 1.404 . S
C1372 C1375 1.539 . S
C1373 C1369 1.408 . S
C1373 C1372 1.404 . S
C1373 H1385 0.930 . S
C1374 C1370 1.524 . S
C1374 H1386 0.956 . S
C1374 H1387 0.961 . S
C1374 H1388 0.961 . S
C1375 C1372 1.539 . S
C1375 H1389 0.958 . S
C1375 H1390 0.961 1_545 S
C1375 H1391 0.960 . S
H1376 C1360 0.931 . S
H1377 C1365 0.929 . S
H1378 C1366 0.960 . S
H1379 C1366 0.962 . S
H1380 C1366 0.960 . S
H1381 C1367 0.961 . S
H1382 C1367 0.970 . S
H1383 C1367 0.961 . S
H1384 C1368 0.931 . S
H1385 C1373 0.930 . S
H1386 C1374 0.956 . S
H1387 C1374 0.961 . S
H1388 C1374 0.961 . S
H1389 C1375 0.958 . S
H1390 C1375 0.961 1_565 S
H1391 C1375 0.960 . S
C1392 C1393 1.391 . S
C1392 C1394 1.394 . S
C1392 H1408 0.931 . S
C1393 C1392 1.391 . S
C1393 C1397 1.376 . S
C1394 C1392 1.394 . S
C1394 C1395 1.369 . S
C1394 C1398 1.531 . S
C1395 C1394 1.369 . S
C1395 C1396 1.410 . S
C1395 C1403 1.503 . S
C1396 C1395 1.410 . S
C1396 C1397 1.392 . S
C1396 C1399 1.511 . S
C1397 C1393 1.376 . S
C1397 C1396 1.392 . S
C1397 H1409 0.929 . S
C1398 C1394 1.531 . S
C1398 H1410 0.960 . S
C1398 H1411 0.962 . S
C1398 H1412 0.960 . S
C1399 C1396 1.511 . S
C1399 H1413 0.961 . S
C1399 H1414 0.961 . S
C1399 H1415 0.961 . S
C1400 C1401 1.370 . S
C1400 C1402 1.363 . S
C1400 H1416 0.931 . S
C1401 C1400 1.370 . S
C1401 C1405 1.408 . S
C1402 C1400 1.363 . S
C1402 C1403 1.370 . S
C1402 C1406 1.524 . S
C1403 C1395 1.503 . S
C1403 C1402 1.370 . S
C1403 C1404 1.403 . S
C1404 C1403 1.403 . S
C1404 C1405 1.404 . S
C1404 C1407 1.539 . S
C1405 C1401 1.408 . S
C1405 C1404 1.404 . S
C1405 H1417 0.930 . S
C1406 C1402 1.524 . S
C1406 H1418 0.956 . S
C1406 H1419 0.961 . S
C1406 H1420 0.961 . S
C1407 C1404 1.539 . S
C1407 H1421 0.958 . S
C1407 H1422 0.961 . S
C1407 H1423 0.960 . S
H1408 C1392 0.931 . S
H1409 C1397 0.929 . S
H1410 C1398 0.960 . S
H1411 C1398 0.962 . S
H1412 C1398 0.960 . S
H1413 C1399 0.961 . S
H1414 C1399 0.961 . S
H1415 C1399 0.961 . S
H1416 C1400 0.931 . S
H1417 C1405 0.930 . S
H1418 C1406 0.956 . S
H1419 C1406 0.961 . S
H1420 C1406 0.961 . S
H1421 C1407 0.958 . S
H1422 C1407 0.961 . S
H1423 C1407 0.960 . S
C1424 C1425 1.391 . S
C1424 C1426 1.394 . S
C1424 H1440 0.931 . S
C1425 C1424 1.391 . S
C1425 C1429 1.376 . S
C1426 C1424 1.394 . S
C1426 C1427 1.369 . S
C1426 C1430 1.531 . S
C1427 C1426 1.369 . S
C1427 C1428 1.410 . S
C1427 C1435 1.503 . S
C1428 C1427 1.410 . S
C1428 C1429 1.392 . S
C1428 C1431 1.511 . S
C1429 C1425 1.376 . S
C1429 C1428 1.392 . S
C1429 H1441 0.929 . S
C1430 C1426 1.531 . S
C1430 H1442 0.960 . S
C1430 H1443 0.962 . S
C1430 H1444 0.960 . S
C1431 C1428 1.511 . S
C1431 H1445 0.961 . S
C1431 H1446 0.961 . S
C1431 H1447 0.961 . S
C1432 C1433 1.370 . S
C1432 C1434 1.363 . S
C1432 H1448 0.931 . S
C1433 C1432 1.370 . S
C1433 C1437 1.408 . S
C1434 C1432 1.363 . S
C1434 C1435 1.370 . S
C1434 C1438 1.524 . S
C1435 C1427 1.503 . S
C1435 C1434 1.370 . S
C1435 C1436 1.403 . S
C1436 C1435 1.403 . S
C1436 C1437 1.404 . S
C1436 C1439 1.539 . S
C1437 C1433 1.408 . S
C1437 C1436 1.404 . S
C1437 H1449 0.930 . S
C1438 C1434 1.524 . S
C1438 H1450 0.956 . S
C1438 H1451 0.961 . S
C1438 H1452 0.961 . S
C1439 C1436 1.539 . S
C1439 H1453 0.958 . S
C1439 H1454 0.961 . S
C1439 H1455 0.960 . S
H1440 C1424 0.931 . S
H1441 C1429 0.929 . S
H1442 C1430 0.960 . S
H1443 C1430 0.962 . S
H1444 C1430 0.960 . S
H1445 C1431 0.961 . S
H1446 C1431 0.961 . S
H1447 C1431 0.961 . S
H1448 C1432 0.931 . S
H1449 C1437 0.930 . S
H1450 C1438 0.956 . S
H1451 C1438 0.961 . S
H1452 C1438 0.961 . S
H1453 C1439 0.958 . S
H1454 C1439 0.961 . S
H1455 C1439 0.960 . S
C1456 C1457 1.391 . S
C1456 C1458 1.394 . S
C1456 H1472 0.931 1_655 S
C1457 C1456 1.391 . S
C1457 C1461 1.376 . S
C1458 C1456 1.394 . S
C1458 C1459 1.369 . S
C1458 C1462 1.531 1_655 S
C1459 C1458 1.369 . S
C1459 C1460 1.410 . S
C1459 C1467 1.503 . S
C1460 C1459 1.410 . S
C1460 C1461 1.392 . S
C1460 C1463 1.511 . S
C1461 C1457 1.376 . S
C1461 C1460 1.392 . S
C1461 H1473 0.929 . S
C1462 C1458 1.531 1_455 S
C1462 H1474 0.960 . S
C1462 H1475 0.962 . S
C1462 H1476 0.960 . S
C1463 C1460 1.511 . S
C1463 H1477 0.961 . S
C1463 H1478 0.961 . S
C1463 H1479 0.961 . S
C1464 C1465 1.370 . S
C1464 C1466 1.363 . S
C1464 H1480 0.931 . S
C1465 C1464 1.370 . S
C1465 C1469 1.427 . S
C1466 C1464 1.363 . S
C1466 C1467 1.370 . S
C1466 C1470 1.524 . S
C1467 C1459 1.503 . S
C1467 C1466 1.370 . S
C1467 C1468 1.403 . S
C1468 C1467 1.403 . S
C1468 C1469 1.407 . S
C1468 C1471 1.539 1_655 S
C1469 C1465 1.427 . S
C1469 C1468 1.407 . S
C1469 H1481 0.910 1_655 S
C1470 C1466 1.524 . S
C1470 H1482 0.956 . S
C1470 H1483 0.961 . S
C1470 H1484 0.961 . S
C1471 C1468 1.539 1_455 S
C1471 H1485 0.958 . S
C1471 H1486 0.961 . S
C1471 H1487 0.964 . S
H1472 C1456 0.931 1_455 S
H1473 C1461 0.929 . S
H1474 C1462 0.960 . S
H1475 C1462 0.962 . S
H1476 C1462 0.960 . S
H1477 C1463 0.961 . S
H1478 C1463 0.961 . S
H1479 C1463 0.961 . S
H1480 C1464 0.931 . S
H1481 C1469 0.910 1_455 S
H1482 C1470 0.956 . S
H1483 C1470 0.961 . S
H1484 C1470 0.961 . S
H1485 C1471 0.958 . S
H1486 C1471 0.961 . S
H1487 C1471 0.964 . S
C1488 C1489 1.391 . S
C1488 C1490 1.394 . S
C1488 H1504 0.931 . S
C1489 C1488 1.391 . S
C1489 C1493 1.376 . S
C1490 C1488 1.394 . S
C1490 C1491 1.369 . S
C1490 C1494 1.531 . S
C1491 C1490 1.369 . S
C1491 C1492 1.407 1_565 S
C1491 C1499 1.503 . S
C1492 C1491 1.407 1_545 S
C1492 C1493 1.392 1_545 S
C1492 C1495 1.515 . S
C1493 C1489 1.376 . S
C1493 C1492 1.392 1_565 S
C1493 H1505 0.929 1_565 S
C1494 C1490 1.531 . S
C1494 H1506 0.960 . S
C1494 H1507 0.962 . S
C1494 H1508 0.960 . S
C1495 C1492 1.515 . S
C1495 H1509 0.961 . S
C1495 H1510 0.961 . S
C1495 H1511 0.961 . S
C1496 C1497 1.370 . S
C1496 C1498 1.363 . S
C1496 H1512 0.931 . S
C1497 C1496 1.370 . S
C1497 C1501 1.401 1_565 S
C1498 C1496 1.363 . S
C1498 C1499 1.370 . S
C1498 C1502 1.524 . S
C1499 C1491 1.503 . S
C1499 C1498 1.370 . S
C1499 C1500 1.403 . S
C1500 C1499 1.403 . S
C1500 C1501 1.401 1_565 S
C1500 C1503 1.539 1_565 S
C1501 C1497 1.401 1_545 S
C1501 C1500 1.401 1_545 S
C1501 H1513 0.940 . S
C1502 C1498 1.524 . S
C1502 H1514 0.956 . S
C1502 H1515 0.961 . S
C1502 H1516 0.961 . S
C1503 C1500 1.539 1_545 S
C1503 H1517 0.958 1_545 S
C1503 H1518 0.961 . S
C1503 H1519 0.960 . S
H1504 C1488 0.931 . S
H1505 C1493 0.929 1_545 S
H1506 C1494 0.960 . S
H1507 C1494 0.962 . S
H1508 C1494 0.960 . S
H1509 C1495 0.961 . S
H1510 C1495 0.961 . S
H1511 C1495 0.961 . S
H1512 C1496 0.931 . S
H1513 C1501 0.940 . S
H1514 C1502 0.956 . S
H1515 C1502 0.961 . S
H1516 C1502 0.961 . S
H1517 C1503 0.958 1_565 S
H1518 C1503 0.961 . S
H1519 C1503 0.960 . S
C1520 C1521 1.391 . S
C1520 C1522 1.394 . S
C1520 H1536 0.931 . S
C1521 C1520 1.391 . S
C1521 C1525 1.376 . S
C1522 C1520 1.394 . S
C1522 C1523 1.369 . S
C1522 C1526 1.531 . S
C1523 C1522 1.369 . S
C1523 C1524 1.410 . S
C1523 C1531 1.503 . S
C1524 C1523 1.410 . S
C1524 C1525 1.392 . S
C1524 C1527 1.511 . S
C1525 C1521 1.376 . S
C1525 C1524 1.392 . S
C1525 H1537 0.929 . S
C1526 C1522 1.531 . S
C1526 H1538 0.960 . S
C1526 H1539 0.962 . S
C1526 H1540 0.960 . S
C1527 C1524 1.511 . S
C1527 H1541 0.961 . S
C1527 H1542 0.961 . S
C1527 H1543 0.961 . S
C1528 C1529 1.370 . S
C1528 C1530 1.363 . S
C1528 H1544 0.931 . S
C1529 C1528 1.370 . S
C1529 C1533 1.408 . S
C1530 C1528 1.363 . S
C1530 C1531 1.370 . S
C1530 C1534 1.524 . S
C1531 C1523 1.503 . S
C1531 C1530 1.370 . S
C1531 C1532 1.403 . S
C1532 C1531 1.403 . S
C1532 C1533 1.404 . S
C1532 C1535 1.539 . S
C1533 C1529 1.408 . S
C1533 C1532 1.404 . S
C1533 H1545 0.930 . S
C1534 C1530 1.524 . S
C1534 H1546 0.956 . S
C1534 H1547 0.961 . S
C1534 H1548 0.961 . S
C1535 C1532 1.539 . S
C1535 H1549 0.958 . S
C1535 H1550 0.961 . S
C1535 H1551 0.960 . S
H1536 C1520 0.931 . S
H1537 C1525 0.929 . S
H1538 C1526 0.960 . S
H1539 C1526 0.962 . S
H1540 C1526 0.960 . S
H1541 C1527 0.961 . S
H1542 C1527 0.961 . S
H1543 C1527 0.961 . S
H1544 C1528 0.931 . S
H1545 C1533 0.930 . S
H1546 C1534 0.956 . S
H1547 C1534 0.961 . S
H1548 C1534 0.961 . S
H1549 C1535 0.958 . S
H1550 C1535 0.961 . S
H1551 C1535 0.960 . S
C1552 C1553 1.391 . S
C1552 C1554 1.394 . S
C1552 H1568 0.931 . S
C1553 C1552 1.391 . S
C1553 C1557 1.376 . S
C1554 C1552 1.394 . S
C1554 C1555 1.369 . S
C1554 C1558 1.531 . S
C1555 C1554 1.369 . S
C1555 C1556 1.410 . S
C1555 C1563 1.503 . S
C1556 C1555 1.410 . S
C1556 C1557 1.392 . S
C1556 C1559 1.511 . S
C1557 C1553 1.376 . S
C1557 C1556 1.392 . S
C1557 H1569 0.929 . S
C1558 C1554 1.531 . S
C1558 H1570 0.960 . S
C1558 H1571 0.962 . S
C1558 H1572 0.960 . S
C1559 C1556 1.511 . S
C1559 H1573 0.961 . S
C1559 H1574 0.961 . S
C1559 H1575 0.961 . S
C1560 C1561 1.370 . S
C1560 C1562 1.363 . S
C1560 H1576 0.931 . S
C1561 C1560 1.370 . S
C1561 C1565 1.408 . S
C1562 C1560 1.363 . S
C1562 C1563 1.370 . S
C1562 C1566 1.524 . S
C1563 C1555 1.503 . S
C1563 C1562 1.370 . S
C1563 C1564 1.403 . S
C1564 C1563 1.403 . S
C1564 C1565 1.404 . S
C1564 C1567 1.539 . S
C1565 C1561 1.408 . S
C1565 C1564 1.404 . S
C1565 H1577 0.930 . S
C1566 C1562 1.524 . S
C1566 H1578 0.956 . S
C1566 H1579 0.961 . S
C1566 H1580 0.961 . S
C1567 C1564 1.539 . S
C1567 H1581 0.958 . S
C1567 H1582 0.961 . S
C1567 H1583 0.960 . S
H1568 C1552 0.931 . S
H1569 C1557 0.929 . S
H1570 C1558 0.960 . S
H1571 C1558 0.962 . S
H1572 C1558 0.960 . S
H1573 C1559 0.961 . S
H1574 C1559 0.961 . S
H1575 C1559 0.961 . S
H1576 C1560 0.931 . S
H1577 C1565 0.930 . S
H1578 C1566 0.956 . S
H1579 C1566 0.961 . S
H1580 C1566 0.961 . S
H1581 C1567 0.958 . S
H1582 C1567 0.961 . S
H1583 C1567 0.960 . S
C817 C391 2.382 . S
C825 C543 2.431 . S
C857 C620 2.443 . S
C849 C451 2.387 . S
C889 C711 2.429 . S
C881 C241 2.051 . S
C921 C795 2.407 . S
C913 C331 2.054 . S
C953 C554 2.439 1_565 S
C945 C121 2.080 . S
C977 C211 2.341 . S
C985 C631 2.449 . S
C1009 C31 2.353 . S
C1017 C722 2.437 . S
C1041 C91 2.127 . S
C1049 C806 2.408 1_655 S
C1081 C538 0.510 . S
C1073 C301 0.659 . S
C1113 C633 0.551 . S
C1105 C380 0.364 . S
C1145 C706 0.496 . S
C1137 C440 0.439 . S
C1169 C260 0.488 . S
C1177 C790 0.449 . S
C1201 C61 0.415 . S
C1209 C549 0.478 . S
C1241 C622 0.556 . S
C1233 C140 0.505 . S
C1273 C717 0.505 . S
C1265 C200 0.528 . S
C1297 C20 0.425 . S
C1305 C801 0.454 . S
C1329 C320 2.703 . S
C1337 C547 2.909 . S
C1361 C361 2.372 . S
C1369 C638 2.947 . S
C1401 C715 2.932 . S
C1393 C421 2.395 . S
C1433 C799 2.931 . S
C1425 C271 2.735 . S
C1457 C80 2.736 . S
C1465 C536 2.909 . S
C1497 C627 2.952 . S
C1489 C151 2.772 . S
C1529 C704 2.927 . S
C1521 C181 2.397 . S
C1553 C1 2.383 . S
C1561 C788 2.931 . S
