# Generated by pormake.
# Topology apo, (3,6)-cn, num edge types: 1
# Building blocks:
#     Node 0, Type 0, BuildingBlock: BETDIP_clean_linker_0, # of connection points: 3
#     Node 1, Type 0, BuildingBlock: BETDIP_clean_linker_0, # of connection points: 3
#     Node 2, Type 0, BuildingBlock: BETDIP_clean_linker_0, # of connection points: 3
#     Node 3, Type 0, BuildingBlock: BETDIP_clean_linker_0, # of connection points: 3
#     Node 4, Type 0, BuildingBlock: BETDIP_clean_linker_0, # of connection points: 3
#     Node 5, Type 0, BuildingBlock: BETDIP_clean_linker_0, # of connection points: 3
#     Node 6, Type 0, BuildingBlock: BETDIP_clean_linker_0, # of connection points: 3
#     Node 7, Type 0, BuildingBlock: BETDIP_clean_linker_0, # of connection points: 3
#     Node 8, Type 1, BuildingBlock: KUMBOL_clean_sbu_1, # of connection points: 6
#     Node 9, Type 1, BuildingBlock: KUMBOL_clean_sbu_1, # of connection points: 6
#     Node 10, Type 1, BuildingBlock: KUMBOL_clean_sbu_1, # of connection points: 6
#     Node 11, Type 1, BuildingBlock: KUMBOL_clean_sbu_1, # of connection points: 6
#     Edge 12, Type (0, 1), BuildingBlock: EZIPEK_clean_linker_0, # of connection points: 2
#     Edge 13, Type (0, 1), BuildingBlock: EZIPEK_clean_linker_0, # of connection points: 2
#     Edge 14, Type (0, 1), BuildingBlock: EZIPEK_clean_linker_0, # of connection points: 2
#     Edge 15, Type (0, 1), BuildingBlock: EZIPEK_clean_linker_0, # of connection points: 2
#     Edge 16, Type (0, 1), BuildingBlock: EZIPEK_clean_linker_0, # of connection points: 2
#     Edge 17, Type (0, 1), BuildingBlock: EZIPEK_clean_linker_0, # of connection points: 2
#     Edge 18, Type (0, 1), BuildingBlock: EZIPEK_clean_linker_0, # of connection points: 2
#     Edge 19, Type (0, 1), BuildingBlock: EZIPEK_clean_linker_0, # of connection points: 2
#     Edge 20, Type (0, 1), BuildingBlock: EZIPEK_clean_linker_0, # of connection points: 2
#     Edge 21, Type (0, 1), BuildingBlock: EZIPEK_clean_linker_0, # of connection points: 2
#     Edge 22, Type (0, 1), BuildingBlock: EZIPEK_clean_linker_0, # of connection points: 2
#     Edge 23, Type (0, 1), BuildingBlock: EZIPEK_clean_linker_0, # of connection points: 2
#     Edge 24, Type (0, 1), BuildingBlock: EZIPEK_clean_linker_0, # of connection points: 2
#     Edge 25, Type (0, 1), BuildingBlock: EZIPEK_clean_linker_0, # of connection points: 2
#     Edge 26, Type (0, 1), BuildingBlock: EZIPEK_clean_linker_0, # of connection points: 2
#     Edge 27, Type (0, 1), BuildingBlock: EZIPEK_clean_linker_0, # of connection points: 2
#     Edge 28, Type (0, 1), BuildingBlock: EZIPEK_clean_linker_0, # of connection points: 2
#     Edge 29, Type (0, 1), BuildingBlock: EZIPEK_clean_linker_0, # of connection points: 2
#     Edge 30, Type (0, 1), BuildingBlock: EZIPEK_clean_linker_0, # of connection points: 2
#     Edge 31, Type (0, 1), BuildingBlock: EZIPEK_clean_linker_0, # of connection points: 2
#     Edge 32, Type (0, 1), BuildingBlock: EZIPEK_clean_linker_0, # of connection points: 2
#     Edge 33, Type (0, 1), BuildingBlock: EZIPEK_clean_linker_0, # of connection points: 2
#     Edge 34, Type (0, 1), BuildingBlock: EZIPEK_clean_linker_0, # of connection points: 2
#     Edge 35, Type (0, 1), BuildingBlock: EZIPEK_clean_linker_0, # of connection points: 2
# Relax obj value: 0.037
# Max RMSD: 0.218
# Mean RMSD: 0.168
data_MOF--net-apo--node1-KUMBOL_clean_sbu_1--node2-BETDIP_clean_linker_0--edge1-EZIPEK_clean_linker_0
_symmetry_space_group_name_H-M    P1
_symmetry_Int_Tables_number       1
_symmetry_cell_setting            triclinic
loop_
_symmetry_equiv_pos_as_xyz
'x, y, z'
_cell_length_a     20.632045
_cell_length_b     30.359175
_cell_length_c     39.963305
_cell_angle_alpha  89.856702
_cell_angle_beta   89.811821
_cell_angle_gamma 90.390316
loop_
_atom_site_label
_atom_site_type_symbol
_atom_site_fract_x
_atom_site_fract_y
_atom_site_fract_z
_atom_type_partial_charge
H0 H 0.27763 0.31286 0.44775 0.0
H1 H 0.31618 0.35896 0.34782 0.0
H2 H 0.34511 0.44543 0.43152 0.0
H3 H 0.24062 0.31231 0.33266 0.0
C4 C 0.23406 0.28665 0.35131 0.0
C5 C 0.29279 0.33892 0.43081 0.0
C6 C 0.31405 0.37949 0.44373 0.0
C7 C 0.28828 0.33236 0.3962 0.0
C8 C 0.3129 0.36514 0.37438 0.0
C9 C 0.33378 0.40634 0.38674 0.0
C10 C 0.33091 0.41365 0.4215 0.0
N11 N 0.25718 0.29318 0.38449 0.0
H12 H 0.23501 0.18939 0.9451 0.0
H13 H 0.22897 0.13453 0.84587 0.0
H14 H 0.14352 0.06343 0.92794 0.0
H15 H 0.33885 0.16378 0.85015 0.0
C16 C 0.32558 0.19676 0.858 0.0
C17 C 0.22081 0.16311 0.92828 0.0
C18 C 0.18862 0.12547 0.94095 0.0
C19 C 0.23847 0.16553 0.89434 0.0
C20 C 0.21863 0.13195 0.87241 0.0
C21 C 0.18278 0.09587 0.88442 0.0
C22 C 0.16975 0.09208 0.91869 0.0
N23 N 0.27617 0.20181 0.8826 0.0
H24 H 0.75179 0.176 0.57806 0.0
H25 H 0.76352 0.12521 0.67854 0.0
H26 H 0.86142 0.05888 0.59851 0.0
H27 H 0.69645 0.17703 0.69235 0.0
C28 C 0.68727 0.19924 0.67169 0.0
C29 C 0.76863 0.15124 0.59553 0.0
C30 C 0.80836 0.11698 0.58408 0.0
C31 C 0.75074 0.15437 0.62927 0.0
C32 C 0.7744 0.12301 0.65215 0.0
C33 C 0.81481 0.08881 0.64118 0.0
C34 C 0.83032 0.08526 0.60701 0.0
N35 N 0.7114 0.19059 0.639 0.0
H36 H 0.7341 0.31979 0.07857 0.0
H37 H 0.7285 0.36554 0.18017 0.0
H38 H 0.61722 0.43167 0.10442 0.0
H39 H 0.85323 0.34206 0.16106 0.0
C40 C 0.83207 0.30933 0.15928 0.0
C41 C 0.71556 0.34257 0.09708 0.0
C42 C 0.67419 0.37674 0.08734 0.0
C43 C 0.73517 0.33849 0.13034 0.0
C44 C 0.71292 0.36846 0.15438 0.0
C45 C 0.66952 0.40169 0.14523 0.0
C46 C 0.64964 0.40541 0.11173 0.0
N47 N 0.77589 0.30321 0.13948 0.0
H48 H 0.75717 0.67995 0.57527 0.0
H49 H 0.73756 0.64003 0.67716 0.0
H50 H 0.6516 0.56202 0.59882 0.0
H51 H 0.7435 0.71443 0.68548 0.0
C52 C 0.78405 0.7223 0.66908 0.0
C53 C 0.73913 0.65664 0.59372 0.0
C54 C 0.70243 0.62013 0.58354 0.0
C55 C 0.75118 0.66384 0.6277 0.0
C56 C 0.72978 0.63236 0.65138 0.0
C57 C 0.69999 0.5922 0.64146 0.0
C58 C 0.68136 0.58918 0.60743 0.0
N59 N 0.78873 0.70137 0.6373 0.0
H60 H 0.73848 0.84093 0.07622 0.0
H61 H 0.77278 0.88133 0.178 0.0
H62 H 0.87757 0.94309 0.09765 0.0
H63 H 0.7233 0.82163 0.1925 0.0
C64 C 0.69655 0.80734 0.17189 0.0
C65 C 0.76438 0.86111 0.09416 0.0
C66 C 0.80894 0.89301 0.08281 0.0
C67 C 0.7524 0.85519 0.12844 0.0
C68 C 0.78373 0.88308 0.1516 0.0
C69 C 0.82971 0.91436 0.14076 0.0
C70 C 0.84298 0.91851 0.1063 0.0
N71 N 0.70854 0.82108 0.13838 0.0
H72 H 0.24242 0.81861 0.44508 0.0
H73 H 0.20709 0.8631 0.3451 0.0
H74 H 0.16455 0.94765 0.42904 0.0
H75 H 0.33028 0.838 0.34931 0.0
C76 C 0.31526 0.80515 0.35717 0.0
C77 C 0.22682 0.84436 0.42812 0.0
C78 C 0.20057 0.88334 0.44078 0.0
C79 C 0.23277 0.83843 0.39366 0.0
C80 C 0.2075 0.87003 0.37168 0.0
C81 C 0.1829 0.91008 0.38388 0.0
C82 C 0.18287 0.91714 0.41877 0.0
N83 N 0.26497 0.80078 0.38127 0.0
H84 H 0.25637 0.67686 0.94596 0.0
H85 H 0.27988 0.62552 0.84655 0.0
H86 H 0.38414 0.56756 0.92838 0.0
H87 H 0.27073 0.69967 0.83456 0.0
C88 C 0.23153 0.70994 0.85092 0.0
C89 C 0.27813 0.65335 0.92899 0.0
C90 C 0.32143 0.62172 0.94131 0.0
C91 C 0.26451 0.65592 0.89477 0.0
C92 C 0.29205 0.62511 0.87289 0.0
C93 C 0.33502 0.59319 0.88485 0.0
C94 C 0.35044 0.5919 0.91907 0.0
N95 N 0.22351 0.68992 0.88289 0.0
C96 C 0.78748 0.05746 0.26999 0.0
C97 C 0.78323 0.97967 0.28403 0.0
C98 C 0.81637 0.02052 0.28403 0.0
C99 C 0.72212 0.97619 0.26886 0.0
C100 C 0.72522 0.05428 0.25562 0.0
C101 C 0.69322 0.01337 0.25469 0.0
N102 N 0.81902 0.09684 0.27162 0.0
C103 C 0.78889 0.13462 0.26189 0.0
C104 C 0.69603 0.0926 0.2435 0.0
C105 C 0.72773 0.13304 0.24705 0.0
Gd106 Gd 0.0713 0.1091 0.22929 0.0
Gd107 Gd 0.92094 0.09632 0.29738 0.0
N108 N 0.87526 0.02494 0.29901 0.0
C109 C 0.81148 0.94376 0.30023 0.0
C110 C 0.90119 0.99046 0.31639 0.0
C111 C 0.87027 0.94936 0.31684 0.0
H112 H 0.94506 0.99431 0.33063 0.0
H113 H 0.89149 0.92213 0.33037 0.0
H114 H 0.03737 0.21056 0.20274 0.0
H115 H 0.81095 0.16625 0.26627 0.0
H116 H 0.08682 0.28492 0.20404 0.0
H117 H 0.7874 0.91194 0.3009 0.0
H118 H 0.69613 0.94506 0.26861 0.0
H119 H 0.19475 0.03903 0.24483 0.0
H120 H 0.64822 0.09153 0.23238 0.0
H121 H 0.7046 0.1631 0.23893 0.0
H122 H 0.2928 0.2628 0.25678 0.0
H123 H 0.64543 0.01034 0.24372 0.0
H124 H 0.35695 0.1144 0.2789 0.0
H125 H 0.3056 0.04218 0.26742 0.0
N126 N 0.1795 0.10799 0.24827 0.0
C127 C 0.20845 0.14803 0.25204 0.0
C128 C 0.21491 0.0704 0.25194 0.0
C129 C 0.30727 0.11303 0.27023 0.0
C130 C 0.27845 0.07221 0.26387 0.0
C131 C 0.27302 0.15162 0.26334 0.0
H132 H 0.35169 0.19673 0.27476 0.0
N133 N 0.11444 0.18068 0.22947 0.0
C134 C 0.17537 0.1854 0.24186 0.0
C135 C 0.1727 0.26338 0.22975 0.0
C136 C 0.20577 0.22708 0.2428 0.0
C137 C 0.08378 0.21532 0.21463 0.0
C138 C 0.11187 0.25733 0.21514 0.0
O139 O 0.91536 0.06909 0.24429 0.0
O140 O 0.01729 0.04414 0.23109 0.0
O141 O 0.04769 0.11216 0.17605 0.0
O142 O 0.14451 0.09612 0.19168 0.0
O143 O 0.00512 0.05365 0.30814 0.0
O144 O 0.08848 0.0554 0.26855 0.0
O145 O 0.05412 0.16102 0.26749 0.0
O146 O 0.01618 0.12803 0.31533 0.0
O147 O 0.89385 0.07992 0.34875 0.0
O148 O 0.86356 0.14149 0.32687 0.0
O149 O 0.97255 0.14058 0.21874 0.0
O150 O 0.93064 0.16024 0.27005 0.0
C151 C 0.95389 0.03966 0.23058 0.0
C152 C 0.06166 0.04099 0.29679 0.0
C153 C 0.11555 0.07517 0.13687 0.0
C154 C 0.13904 0.07155 0.07714 0.0
C155 C 0.1438 0.00542 0.11136 0.0
C156 C 0.1267 0.02976 0.13968 0.0
C157 C 0.1504 0.02622 0.08027 0.0
C158 C 0.12081 0.09582 0.10545 0.0
C159 C 0.10625 0.10285 0.16656 0.0
C160 C 0.26882 0.23099 0.25562 0.0
C161 C 0.30232 0.19335 0.26592 0.0
H162 H 0.19456 0.29593 0.22988 0.0
C163 C 0.05638 0.15542 0.29982 0.0
C164 C 0.93455 0.16553 0.23759 0.0
C165 C 0.88433 0.14092 0.38512 0.0
C166 C 0.87887 0.14664 0.44609 0.0
C167 C 0.93082 0.20451 0.41324 0.0
C168 C 0.91766 0.18145 0.38387 0.0
C169 C 0.91118 0.18746 0.44411 0.0
C170 C 0.86607 0.12319 0.41642 0.0
C171 C 0.86652 0.11774 0.354 0.0
H172 H 0.15314 0.9705 0.11362 0.0
H173 H 0.1237 0.01346 0.16378 0.0
H174 H 0.16484 0.00708 0.05868 0.0
H175 H 0.1133 0.13103 0.10321 0.0
H176 H 0.95601 0.23587 0.41205 0.0
H177 H 0.93302 0.19558 0.36018 0.0
H178 H 0.92145 0.20606 0.46661 0.0
H179 H 0.84104 0.09171 0.4177 0.0
C180 C 0.71901 0.44075 0.7953 0.0
C181 C 0.7182 0.51734 0.8125 0.0
C182 C 0.68524 0.4775 0.80582 0.0
C183 C 0.78532 0.5202 0.80688 0.0
C184 C 0.78702 0.44263 0.79191 0.0
C185 C 0.81973 0.48286 0.79675 0.0
N186 N 0.68602 0.40229 0.79111 0.0
C187 C 0.71852 0.3638 0.78634 0.0
C188 C 0.82039 0.40361 0.7853 0.0
C189 C 0.78612 0.36389 0.7833 0.0
Gd190 Gd 0.42548 0.40983 0.72733 0.0
Gd191 Gd 0.57314 0.40525 0.79808 0.0
N192 N 0.6205 0.47349 0.81133 0.0
C193 C 0.68309 0.55251 0.82585 0.0
C194 C 0.58726 0.50632 0.82686 0.0
C195 C 0.61755 0.54665 0.8337 0.0
H196 H 0.53769 0.50134 0.83436 0.0
H197 H 0.59047 0.57301 0.84525 0.0
H198 H 0.43606 0.3084 0.69429 0.0
H199 H 0.69223 0.33292 0.78489 0.0
H200 H 0.36798 0.24206 0.6887 0.0
H201 H 0.70658 0.58369 0.83131 0.0
H202 H 0.8114 0.55068 0.81146 0.0
H203 H 0.32734 0.48788 0.7597 0.0
H204 H 0.87271 0.40357 0.78286 0.0
H205 H 0.81167 0.33334 0.77925 0.0
H206 H 0.17079 0.27909 0.74549 0.0
H207 H 0.87187 0.48508 0.79378 0.0
H208 H 0.14839 0.4259 0.78717 0.0
H209 H 0.21873 0.49211 0.78498 0.0
N210 N 0.32195 0.41878 0.75094 0.0
C211 C 0.28276 0.38253 0.7502 0.0
C212 C 0.29864 0.4582 0.76192 0.0
C213 C 0.19682 0.42354 0.77678 0.0
C214 C 0.23642 0.46096 0.77567 0.0
C215 C 0.21925 0.38392 0.76335 0.0
H216 H 0.13083 0.34662 0.77211 0.0
N217 N 0.36679 0.34373 0.72263 0.0
C218 C 0.30553 0.34414 0.73536 0.0
C219 C 0.28818 0.26943 0.71639 0.0
C220 C 0.26503 0.30664 0.73308 0.0
C221 C 0.38867 0.30811 0.70538 0.0
C222 C 0.34995 0.27042 0.70208 0.0
O223 O 0.58862 0.45846 0.75909 0.0
O224 O 0.51649 0.44838 0.71459 0.0
O225 O 0.40856 0.39794 0.67403 0.0
O226 O 0.37286 0.4579 0.69807 0.0
O227 O 0.47452 0.43454 0.80764 0.0
O228 O 0.44225 0.46916 0.75974 0.0
O229 O 0.41089 0.37041 0.77525 0.0
O230 O 0.51354 0.346 0.78433 0.0
O231 O 0.55634 0.41133 0.85188 0.0
O232 O 0.61002 0.35618 0.83246 0.0
O233 O 0.5101 0.36669 0.71282 0.0
O234 O 0.59494 0.36439 0.75176 0.0
C235 C 0.56903 0.46574 0.72814 0.0
C236 C 0.44821 0.46828 0.79239 0.0
C237 C 0.34969 0.45013 0.63875 0.0
C238 C 0.32836 0.44048 0.57915 0.0
C239 C 0.2914 0.50616 0.60766 0.0
C240 C 0.31762 0.49081 0.63756 0.0
C241 C 0.29665 0.48118 0.57861 0.0
C242 C 0.35507 0.42489 0.60928 0.0
C243 C 0.37757 0.43491 0.67072 0.0
C244 C 0.20239 0.30768 0.74686 0.0
C245 C 0.17964 0.34615 0.76203 0.0
H246 H 0.25844 0.24006 0.71396 0.0
C247 C 0.45129 0.34345 0.78998 0.0
C248 C 0.56876 0.35468 0.7223 0.0
C249 C 0.64133 0.38323 0.88548 0.0
C250 C 0.67033 0.38687 0.94455 0.0
C251 C 0.7544 0.38935 0.90204 0.0
C252 C 0.70752 0.38606 0.8772 0.0
C253 C 0.73606 0.3895 0.93555 0.0
C254 C 0.62277 0.38427 0.9194 0.0
C255 C 0.59196 0.37739 0.85911 0.0
H256 H 0.26679 0.53752 0.60702 0.0
H257 H 0.31277 0.51091 0.65977 0.0
H258 H 0.27572 0.49351 0.55561 0.0
H259 H 0.37946 0.39338 0.60968 0.0
H260 H 0.8052 0.39135 0.89529 0.0
H261 H 0.72358 0.38505 0.85163 0.0
H262 H 0.77324 0.39164 0.95458 0.0
H263 H 0.57195 0.38224 0.92625 0.0
C264 C 0.79104 0.88481 0.78085 0.0
C265 C 0.77303 0.80828 0.79612 0.0
C266 C 0.8139 0.84564 0.79419 0.0
C267 C 0.71011 0.81024 0.78294 0.0
C268 C 0.72681 0.88745 0.76902 0.0
C269 C 0.68708 0.84972 0.76939 0.0
N270 N 0.83039 0.92088 0.78111 0.0
C271 C 0.8063 0.96138 0.77307 0.0
C272 C 0.70372 0.92827 0.75815 0.0
C273 C 0.74329 0.96553 0.76077 0.0
Gd274 Gd 0.08214 0.91788 0.72748 0.0
Gd275 Gd 0.93741 0.90894 0.7992 0.0
N276 N 0.8751 0.84464 0.80662 0.0
C277 C 0.79593 0.77046 0.81215 0.0
C278 C 0.89631 0.80872 0.82395 0.0
C279 C 0.85733 0.77101 0.82671 0.0
H280 H 0.94337 0.80876 0.83564 0.0
H281 H 0.87481 0.74233 0.83995 0.0
H282 H 0.05182 0.01727 0.69678 0.0
H283 H 0.83506 0.99088 0.77631 0.0
H284 H 0.10184 0.09183 0.69708 0.0
H285 H 0.76596 0.74113 0.81423 0.0
H286 H 0.67829 0.78172 0.78389 0.0
H287 H 0.2024 0.84663 0.75092 0.0
H288 H 0.65472 0.93164 0.74886 0.0
H289 H 0.72508 0.99756 0.75366 0.0
H290 H 0.30382 0.07119 0.75413 0.0
H291 H 0.63784 0.85104 0.76011 0.0
H292 H 0.36392 0.92405 0.78279 0.0
H293 H 0.31149 0.85148 0.7747 0.0
N294 N 0.18841 0.91639 0.74932 0.0
C295 C 0.21821 0.95654 0.7514 0.0
C296 C 0.22252 0.87883 0.75606 0.0
C297 C 0.3149 0.92233 0.77322 0.0
C298 C 0.28538 0.88131 0.76883 0.0
C299 C 0.28202 0.96051 0.76377 0.0
H300 H 0.36046 0.00582 0.77519 0.0
N301 N 0.12584 0.989 0.72639 0.0
C302 C 0.18641 0.9937 0.73937 0.0
C303 C 0.18551 0.07112 0.72509 0.0
C304 C 0.21732 0.03525 0.73964 0.0
C305 C 0.09715 0.02279 0.70958 0.0
C306 C 0.12568 0.06468 0.70946 0.0
O307 O 0.92008 0.87133 0.75128 0.0
O308 O 0.02004 0.85549 0.72616 0.0
O309 O 0.06597 0.92107 0.6734 0.0
O310 O 0.15941 0.90344 0.69292 0.0
O311 O 0.01572 0.8581 0.80618 0.0
O312 O 0.09353 0.86053 0.76327 0.0
O313 O 0.06758 0.97319 0.76476 0.0
O314 O 0.04 0.93017 0.8085 0.0
O315 O 0.93203 0.89686 0.85264 0.0
O316 O 0.90188 0.95968 0.83287 0.0
O317 O 0.98268 0.94171 0.71385 0.0
O318 O 0.94232 0.96789 0.7639 0.0
C319 C 0.95704 0.84876 0.73062 0.0
C320 C 0.06876 0.844 0.79118 0.0
C321 C 0.13426 0.87619 0.63989 0.0
C322 C 0.15878 0.86175 0.58143 0.0
C323 C 0.16798 0.80324 0.62265 0.0
C324 C 0.14846 0.83217 0.64777 0.0
C325 C 0.17365 0.818 0.58966 0.0
C326 C 0.13794 0.8906 0.60657 0.0
C327 C 0.12465 0.90882 0.66635 0.0
C328 C 0.27952 0.03945 0.75343 0.0
C329 C 0.31177 1.0022 0.76544 0.0
H330 H 0.20772 0.10357 0.72479 0.0
C331 C 0.06303 0.96718 0.79704 0.0
C332 C 0.94401 0.96749 0.73089 0.0
C333 C 0.8512 0.93352 0.88278 0.0
C334 C 0.81093 0.92329 0.93977 0.0
C335 C 0.73575 0.9365 0.8942 0.0
C336 C 0.78731 0.93868 0.87153 0.0
C337 C 0.74739 0.92886 0.92812 0.0
C338 C 0.86286 0.92588 0.91699 0.0
C339 C 0.90627 0.93471 0.85933 0.0
H340 H 0.17971 0.7695 0.62883 0.0
H341 H 0.14628 0.82057 0.67342 0.0
H342 H 0.18937 0.79529 0.57045 0.0
H343 H 0.12705 0.92454 0.60034 0.0
H344 H 0.68659 0.94071 0.88545 0.0
H345 H 0.77719 0.94432 0.84533 0.0
H346 H 0.70681 0.92742 0.94537 0.0
H347 H 0.91207 0.92188 0.92589 0.0
C348 C 0.72004 0.63065 0.27641 0.0
C349 C 0.73003 0.70918 0.28745 0.0
C350 C 0.69227 0.67032 0.28621 0.0
C351 C 0.79571 0.70789 0.27828 0.0
C352 C 0.78631 0.62932 0.26755 0.0
C353 C 0.82377 0.6681 0.26842 0.0
N354 N 0.68264 0.59348 0.27565 0.0
C355 C 0.70967 0.5537 0.268 0.0
C356 C 0.81316 0.58903 0.25807 0.0
C357 C 0.77474 0.55107 0.25847 0.0
Gd358 Gd 0.4292 0.5982 0.22555 0.0
Gd359 Gd 0.57627 0.60224 0.29577 0.0
N360 N 0.62857 0.67083 0.29505 0.0
C361 C 0.70102 0.74808 0.29861 0.0
C362 C 0.6014 0.70783 0.3084 0.0
C363 C 0.63661 0.74727 0.30947 0.0
H364 H 0.55231 0.70685 0.31779 0.0
H365 H 0.61438 0.77685 0.31912 0.0
H366 H 0.46361 0.50376 0.18391 0.0
H367 H 0.68228 0.52345 0.2703 0.0
H368 H 0.40605 0.43649 0.16704 0.0
H369 H 0.72842 0.77861 0.29979 0.0
H370 H 0.82541 0.73744 0.279 0.0
H371 H 0.32091 0.65813 0.26829 0.0
H372 H 0.86376 0.58674 0.25098 0.0
H373 H 0.79559 0.51954 0.25213 0.0
H374 H 0.18967 0.45604 0.20808 0.0
H375 H 0.87462 0.66764 0.26158 0.0
H376 H 0.14177 0.58715 0.26935 0.0
H377 H 0.20636 0.65288 0.28476 0.0
N378 N 0.32375 0.59418 0.24678 0.0
C379 C 0.2887 0.55847 0.23692 0.0
C380 C 0.29469 0.62822 0.26311 0.0
C381 C 0.19279 0.58872 0.2629 0.0
C382 C 0.22914 0.62577 0.27182 0.0
C383 C 0.22225 0.55466 0.245 0.0
H384 H 0.13591 0.51415 0.24039 0.0
N385 N 0.38317 0.53041 0.21047 0.0
C386 C 0.31904 0.5259 0.21814 0.0
C387 C 0.31562 0.45588 0.18944 0.0
C388 C 0.28357 0.48849 0.20768 0.0
C389 C 0.4141 0.49925 0.19181 0.0
C390 C 0.38114 0.46127 0.18155 0.0
O391 O 0.57001 0.65623 0.25644 0.0
O392 O 0.52643 0.62561 0.20877 0.0
O393 O 0.40572 0.59309 0.1725 0.0
O394 O 0.37607 0.65103 0.20121 0.0
O395 O 0.47954 0.63149 0.30895 0.0
O396 O 0.43988 0.6576 0.25871 0.0
O397 O 0.41061 0.56098 0.27478 0.0
O398 O 0.51111 0.5418 0.29689 0.0
O399 O 0.56602 0.61609 0.3494 0.0
O400 O 0.64634 0.57788 0.33132 0.0
O401 O 0.51972 0.56146 0.21251 0.0
O402 O 0.57305 0.54212 0.26179 0.0
C403 C 0.56367 0.65466 0.2238 0.0
C404 C 0.44472 0.65944 0.29153 0.0
C405 C 0.34552 0.64924 0.14232 0.0
C406 C 0.32774 0.64918 0.0819 0.0
C407 C 0.26539 0.69767 0.11772 0.0
C408 C 0.29791 0.68175 0.14575 0.0
C409 C 0.28003 0.68145 0.086 0.0
C410 C 0.36082 0.63319 0.11015 0.0
C411 C 0.37595 0.63068 0.17253 0.0
C412 C 0.21758 0.48452 0.21596 0.0
C413 C 0.187 0.51754 0.23447 0.0
H414 H 0.29015 0.42655 0.1812 0.0
C415 C 0.44726 0.53819 0.29573 0.0
C416 C 0.56117 0.53753 0.22945 0.0
C417 C 0.61996 0.56904 0.38851 0.0
C418 C 0.64061 0.5654 0.44872 0.0
C419 C 0.62207 0.49835 0.41699 0.0
C420 C 0.6151 0.52292 0.38766 0.0
C421 C 0.63412 0.51937 0.44736 0.0
C422 C 0.63338 0.5902 0.41912 0.0
C423 C 0.61856 0.59507 0.35731 0.0
H424 H 0.22845 0.72252 0.12062 0.0
H425 H 0.28494 0.69433 0.1702 0.0
H426 H 0.2543 0.69423 0.06451 0.0
H427 H 0.39769 0.60826 0.10703 0.0
H428 H 0.61855 0.46278 0.41615 0.0
H429 H 0.60629 0.5059 0.3643 0.0
H430 H 0.63997 0.49965 0.46976 0.0
H431 H 0.63982 0.62566 0.4198 0.0
C432 C 0.09612 0.96582 0.37043 0.0
C433 C 0.15308 0.94327 0.36071 0.0
C434 C 0.14233 0.97797 0.30567 0.0
C435 C 0.09605 0.00815 0.31849 0.0
N436 N 0.0501 0.03775 0.37025 0.0
N437 N 0.24113 0.9408 0.32016 0.0
C438 C 0.07938 0.00449 0.3531 0.0
C439 C 0.17986 0.95317 0.32864 0.0
N440 N 0.05594 0.94986 0.39485 0.0
N441 N 0.14754 0.96979 0.27229 0.0
H442 H 0.27301 0.9269 0.33733 0.0
H443 H 0.26214 0.94972 0.29731 0.0
H444 H 0.115 0.98222 0.25483 0.0
H445 H 0.17893 0.94596 0.2629 0.0
H446 H 0.01232 0.96521 0.40088 0.0
H447 H 0.06176 0.91876 0.40553 0.0
H448 H 0.04004 0.0353 0.39581 0.0
H449 H 0.04483 0.0694 0.36067 0.0
C450 C 0.40813 0.57558 0.83652 0.0
C451 C 0.36299 0.56092 0.861 0.0
C452 C 0.36761 0.48611 0.83813 0.0
C453 C 0.41207 0.50104 0.81311 0.0
N454 N 0.45694 0.56299 0.78242 0.0
N455 N 0.28929 0.50492 0.88119 0.0
C456 C 0.42668 0.54673 0.81031 0.0
C457 C 0.33991 0.51684 0.86081 0.0
N458 N 0.43506 0.61673 0.83895 0.0
N459 N 0.35039 0.44264 0.83965 0.0
H460 H 0.26763 0.52651 0.89804 0.0
H461 H 0.26514 0.47479 0.87976 0.0
H462 H 0.36067 0.42053 0.82054 0.0
H463 H 0.32665 0.42826 0.85998 0.0
H464 H 0.47365 0.62745 0.82409 0.0
H465 H 0.42311 0.63875 0.85797 0.0
H466 H 0.46323 0.59653 0.77783 0.0
H467 H 0.46915 0.54365 0.76198 0.0
C468 C 0.68104 0.5602 0.70082 0.0
C469 C 0.68402 0.55444 0.66573 0.0
C470 C 0.62842 0.48291 0.67347 0.0
C471 C 0.60984 0.49569 0.70655 0.0
N472 N 0.61422 0.55207 0.74942 0.0
N473 N 0.70065 0.49594 0.62636 0.0
C474 C 0.63499 0.53585 0.71957 0.0
C475 C 0.6687 0.51153 0.65385 0.0
N476 N 0.73021 0.58086 0.71729 0.0
N477 N 0.60834 0.44353 0.66059 0.0
H478 H 0.73765 0.51401 0.61474 0.0
H479 H 0.69699 0.46367 0.6178 0.0
H480 H 0.58761 0.41862 0.67496 0.0
H481 H 0.61083 0.43601 0.63521 0.0
H482 H 0.73166 0.58307 0.74334 0.0
H483 H 0.77437 0.58749 0.70542 0.0
H484 H 0.62899 0.58291 0.75817 0.0
H485 H 0.57776 0.53706 0.76336 0.0
C486 C 0.85337 0.99119 0.16039 0.0
C487 C 0.8607 0.94531 0.16516 0.0
C488 C 0.92719 0.96065 0.21499 0.0
C489 C 0.92533 0.00636 0.20742 0.0
N490 N 0.9059 0.06145 0.16528 0.0
N491 N 0.91386 0.88593 0.19437 0.0
C492 C 0.89394 0.02059 0.17794 0.0
C493 C 0.89999 0.92975 0.1919 0.0
N494 N 0.80575 0.00709 0.14015 0.0
N495 N 0.95467 0.94677 0.24416 0.0
H496 H 0.89685 0.86261 0.17736 0.0
H497 H 0.94681 0.87319 0.21146 0.0
H498 H 0.97832 0.96821 0.26049 0.0
H499 H 0.95046 0.91461 0.25309 0.0
H500 H 0.79608 0.04064 0.13784 0.0
H501 H 0.77086 0.98666 0.1294 0.0
H502 H 0.88958 0.07147 0.1418 0.0
H503 H 0.93801 0.08312 0.17663 0.0
C504 C 0.82294 0.0138 0.66796 0.0
C505 C 0.84437 0.05822 0.66597 0.0
C506 C 0.92063 0.04519 0.71196 0.0
C507 C 0.90492 0.99956 0.71126 0.0
N508 N 0.84224 0.93963 0.68814 0.0
N509 N 0.91959 0.11515 0.68268 0.0
C510 C 0.8563 0.98367 0.68909 0.0
C511 C 0.89433 0.07378 0.68732 0.0
N512 N 0.76938 1.00081 0.65039 0.0
N513 N 0.96149 0.06132 0.73584 0.0
H514 H 0.90255 0.13702 0.66462 0.0
H515 H 0.96116 0.12659 0.69465 0.0
H516 H 0.98679 0.0412 0.75221 0.0
H517 H 0.96782 0.09479 0.74056 0.0
H518 H 0.74691 0.97024 0.65328 0.0
H519 H 0.74396 0.022 0.63466 0.0
H520 H 0.81407 0.92491 0.66967 0.0
H521 H 0.86107 0.91719 0.70523 0.0
C522 C 0.66964 0.47871 0.16661 0.0
C523 C 0.64775 0.43478 0.1701 0.0
C524 C 0.57896 0.45683 0.21738 0.0
C525 C 0.59381 0.5018 0.21043 0.0
N526 N 0.64195 0.55497 0.17217 0.0
N527 N 0.5763 0.38183 0.19635 0.0
C528 C 0.63609 0.51264 0.18336 0.0
C529 C 0.60143 0.42359 0.19509 0.0
N530 N 0.72301 0.48805 0.14745 0.0
N531 N 0.54189 0.44585 0.24457 0.0
H532 H 0.59162 0.35671 0.18049 0.0
H533 H 0.53696 0.37285 0.21131 0.0
H534 H 0.52026 0.46908 0.26001 0.0
H535 H 0.53573 0.41362 0.25303 0.0
H536 H 0.74478 0.51912 0.14667 0.0
H537 H 0.74971 0.46369 0.13538 0.0
H538 H 0.66735 0.56361 0.15051 0.0
H539 H 0.61544 0.58079 0.18196 0.0
C540 C 0.33151 0.4507 0.33232 0.0
C541 C 0.36085 0.44128 0.36362 0.0
C542 C 0.43521 0.50295 0.35307 0.0
C543 C 0.41554 0.50558 0.31922 0.0
N544 N 0.36012 0.46649 0.27539 0.0
N545 N 0.45753 0.45145 0.39714 0.0
C546 C 0.36712 0.47555 0.30835 0.0
C547 C 0.41767 0.46542 0.37225 0.0
N548 N 0.27001 0.43696 0.32531 0.0
N549 N 0.46785 0.53681 0.36763 0.0
H550 H 0.45228 0.42071 0.40844 0.0
H551 H 0.50046 0.46783 0.40295 0.0
H552 H 0.47524 0.56648 0.35515 0.0
H553 H 0.47832 0.53719 0.39316 0.0
H554 H 0.24691 0.44564 0.30306 0.0
H555 H 0.24023 0.42179 0.34312 0.0
H556 H 0.32772 0.44256 0.26677 0.0
H557 H 0.39479 0.47721 0.25825 0.0
C558 C 0.09467 0.07297 0.84535 0.0
C559 C 0.15444 0.06325 0.86098 0.0
C560 C 0.15467 0.98994 0.83506 0.0
C561 C 0.0937 0.99935 0.82022 0.0
N562 N 0.99827 0.04461 0.81884 0.0
N563 N 0.24035 0.01259 0.87329 0.0
C564 C 0.06185 0.03956 0.82725 0.0
C565 C 0.18424 0.02166 0.85655 0.0
N566 N 0.06906 0.11431 0.84782 0.0
N567 N 0.18421 0.95074 0.82844 0.0
H568 H 0.26459 0.03588 0.88786 0.0
H569 H 0.26213 0.98183 0.87403 0.0
H570 H 0.16259 0.92608 0.81419 0.0
H571 H 0.23097 0.94279 0.83577 0.0
H572 H 0.03027 0.12505 0.8334 0.0
H573 H 0.0893 0.13919 0.86246 0.0
H574 H 0.96993 0.07098 0.82651 0.0
H575 H 0.97163 0.02 0.80718 0.0
C576 C 0.10951 0.11121 0.98791 0.0
C577 C 0.17432 0.11989 0.97744 0.0
C578 C 0.21047 0.11047 0.03548 0.0
C579 C 0.14855 0.09344 0.04413 0.0
N580 N 0.03888 0.07545 0.02845 0.0
N581 N 0.28863 0.12192 0.99114 0.0
C582 C 0.09777 0.09346 0.02035 0.0
C583 C 0.22541 0.11871 1.00127 0.0
N584 N 0.05915 0.12082 0.96705 0.0
N585 N 0.25527 0.11834 0.05988 0.0
H586 H 0.30271 0.12522 0.96622 0.0
H587 H 0.32762 0.11683 1.00715 0.0
H588 H 0.24642 0.11175 0.08512 0.0
H589 H 0.29855 0.1353 0.05543 0.0
H590 H 0.01069 0.11859 0.97427 0.0
H591 H 0.06599 0.1354 0.94361 0.0
H592 H 0.00264 0.06949 1.01092 0.0
H593 H 0.02771 0.0639 0.05242 0.0
C594 C 0.38207 0.39841 0.49392 0.0
C595 C 0.32057 0.38658 0.48058 0.0
C596 C 0.27349 0.39333 0.53668 0.0
C597 C 0.33082 0.4145 0.54773 0.0
N598 N 0.44008 0.43921 0.53655 0.0
N599 N 0.20525 0.37672 0.48929 0.0
C600 C 0.38562 0.41726 0.52637 0.0
C601 C 0.26563 0.38432 0.50206 0.0
N602 N 0.43709 0.39039 0.47593 0.0
N603 N 0.2264 0.38225 0.55933 0.0
H604 H 0.19647 0.37214 0.46388 0.0
H605 H 0.16304 0.37909 0.50353 0.0
H606 H 0.2313 0.38847 0.58488 0.0
H607 H 0.1862 0.36294 0.55326 0.0
H608 H 0.48359 0.39558 0.48527 0.0
H609 H 0.43607 0.37358 0.4532 0.0
H610 H 0.47849 0.44681 0.5205 0.0
H611 H 0.44505 0.45218 0.56056 0.0
C612 C 0.68134 0.42169 0.03416 0.0
C613 C 0.65959 0.38313 0.05118 0.0
C614 C 0.63289 0.3487 0.99749 0.0
C615 C 0.65351 0.38764 0.98073 0.0
N616 N 0.67664 0.46531 0.98341 0.0
N617 N 0.59735 0.31567 0.04978 0.0
C618 C 0.67024 0.42563 0.99931 0.0
C619 C 0.6294 0.34853 0.03302 0.0
N620 N 0.71708 0.45299 0.05047 0.0
N621 N 0.62043 0.31118 0.97977 0.0
H622 H 0.5931 0.31514 0.07581 0.0
H623 H 0.56967 0.29162 0.03783 0.0
H624 H 0.62211 0.3099 0.95373 0.0
H625 H 0.61284 0.28058 0.99102 0.0
H626 H 0.73971 0.47927 0.03821 0.0
H627 H 0.72976 0.45062 0.07558 0.0
H628 H 0.68329 0.49491 0.99613 0.0
H629 H 0.66837 0.46899 0.95779 0.0
C630 C 0.7785 0.11389 0.52311 0.0
C631 C 0.8275 0.11571 0.54797 0.0
C632 C 0.90951 0.12138 0.50359 0.0
C633 C 0.86011 0.12916 0.47976 0.0
N634 N 0.746 0.13647 0.46756 0.0
N635 N 0.94067 0.127 0.56162 0.0
C636 C 0.794 0.12581 0.48955 0.0
C637 C 0.89352 0.12038 0.53819 0.0
N638 N 0.71728 0.10042 0.53157 0.0
N639 N 0.9718 0.11501 0.49307 0.0
H640 H 0.9313 0.12869 0.5872 0.0
H641 H 0.98837 0.13512 0.55541 0.0
H642 H 0.98469 0.11486 0.46778 0.0
H643 H 0.00882 0.10525 0.50908 0.0
H644 H 0.68102 0.0947 0.51399 0.0
H645 H 0.70483 0.0905 0.55579 0.0
H646 H 0.69755 0.13938 0.47461 0.0
H647 H 0.75497 0.14594 0.44289 0.0
C648 C 0.84068 0.86829 0.02458 0.0
C649 C 0.81662 0.90162 0.04614 0.0
C650 C 0.80914 0.95193 0.99826 0.0
C651 C 0.82194 0.91663 0.97624 0.0
N652 N 0.84564 0.83971 0.96796 0.0
N653 N 0.7652 0.97253 0.05186 0.0
C654 C 0.83715 0.87437 0.98924 0.0
C655 C 0.79801 0.94296 0.03261 0.0
N656 N 0.86796 0.8313 0.03787 0.0
N657 N 0.80757 0.9941 0.9863 0.0
H658 H 0.75061 0.96563 0.07627 0.0
H659 H 0.7456 1.0015 0.04235 0.0
H660 H 0.81612 1.00175 0.96119 0.0
H661 H 0.80468 0.02153 1.00186 0.0
H662 H 0.89173 0.80777 0.02352 0.0
H663 H 0.87212 0.82617 0.06359 0.0
H664 H 0.84943 0.8072 0.97606 0.0
H665 H 0.84443 0.84305 0.94199 0.0
C666 C 0.63294 0.62767 0.53203 0.0
C667 C 0.69021 0.61177 0.54734 0.0
C668 C 0.72164 0.57643 0.49465 0.0
C669 C 0.65993 0.58633 0.48105 0.0
N670 N 0.55462 0.61943 0.48721 0.0
N671 N 0.78744 0.56829 0.54437 0.0
C672 C 0.61519 0.61199 0.49966 0.0
C673 C 0.73435 0.58561 0.52888 0.0
N674 N 0.59569 0.6578 0.54846 0.0
N675 N 0.76867 0.55913 0.47451 0.0
H676 H 0.79988 0.57549 0.56904 0.0
H677 H 0.81677 0.54443 0.53351 0.0
H678 H 0.7614 0.55291 0.44912 0.0
H679 H 0.81655 0.55506 0.48201 0.0
H680 H 0.55715 0.67425 0.5374 0.0
H681 H 0.60669 0.6691 0.57243 0.0
H682 H 0.51738 0.63363 0.50101 0.0
H683 H 0.53994 0.60868 0.46365 0.0
C684 C 0.30659 0.59053 0.99931 0.0
C685 C 0.3373 0.62146 0.97763 0.0
C686 C 0.37922 0.66246 0.02593 0.0
C687 C 0.34312 0.63411 0.04736 0.0
N688 N 0.28841 0.56487 0.05631 0.0
N689 N 0.41246 0.68141 0.96906 0.0
C690 C 0.31236 0.59583 0.03459 0.0
C691 C 0.37731 0.65554 0.99067 0.0
N692 N 0.2686 0.55785 0.98613 0.0
N693 N 0.41413 0.69634 0.03963 0.0
H694 H 0.41283 0.67622 0.94326 0.0
H695 H 0.44342 0.70677 0.97623 0.0
H696 H 0.41874 0.70038 0.06545 0.0
H697 H 0.43897 0.72032 0.02604 0.0
H698 H 0.23892 0.53715 1.00032 0.0
H699 H 0.2641 0.55255 0.96048 0.0
H700 H 0.27087 0.53418 0.04899 0.0
H701 H 0.29101 0.5684 0.08221 0.0
C702 C 0.22632 0.90741 0.49945 0.0
C703 C 0.1837 0.88604 0.47681 0.0
C704 C 0.11571 0.85989 0.52329 0.0
C705 C 0.16278 0.87607 0.54595 0.0
N706 N 0.25516 0.92264 0.55736 0.0
N707 N 0.08648 0.844 0.46582 0.0
C708 C 0.21554 0.90256 0.53456 0.0
C709 C 0.12737 0.86346 0.48837 0.0
N710 N 0.27861 0.93031 0.48718 0.0
N711 N 0.05919 0.8421 0.53544 0.0
H712 H 0.09114 0.84817 0.44 0.0
H713 H 0.0493 0.82228 0.4723 0.0
H714 H 0.04895 0.83979 0.56098 0.0
H715 H 0.02007 0.83286 0.52064 0.0
H716 H 0.31481 0.94433 0.50178 0.0
H717 H 0.2868 0.93485 0.46163 0.0
H718 H 0.29162 0.94509 0.55132 0.0
H719 H 0.25 0.91836 0.58311 0.0
C720 C 0.19882 0.20662 0.34694 0.0
C721 C 0.18448 0.25213 0.34381 0.0
C722 C 0.08294 0.23401 0.31531 0.0
C723 C 0.09572 0.18821 0.31907 0.0
N724 N 0.16185 0.13069 0.34227 0.0
N725 N 0.1056 0.30856 0.33332 0.0
C726 C 0.15204 0.1745 0.33655 0.0
C727 C 0.12431 0.26557 0.3305 0.0
N728 N 0.25879 0.19412 0.35768 0.0
N729 N 0.0323 0.2477 0.29616 0.0
H730 H 0.13393 0.33256 0.34502 0.0
H731 H 0.05935 0.31952 0.32727 0.0
H732 H 0.99819 0.22607 0.28653 0.0
H733 H 0.02659 0.28009 0.28807 0.0
H734 H 0.27544 0.16187 0.35684 0.0
H735 H 0.29416 0.21658 0.36533 0.0
H736 H 0.19773 0.11858 0.35798 0.0
H737 H 0.13132 0.1063 0.3329 0.0
C738 C 0.37289 0.23251 0.8068 0.0
C739 C 0.35831 0.23504 0.84149 0.0
C740 C 0.40623 0.30929 0.84293 0.0
C741 C 0.42438 0.30515 0.80879 0.0
N742 N 0.44567 0.2562 0.76279 0.0
N743 N 0.37888 0.27104 0.89437 0.0
C744 C 0.41407 0.26474 0.79207 0.0
C745 C 0.37952 0.27222 0.86018 0.0
N746 N 0.34551 0.20039 0.78743 0.0
N747 N 0.41573 0.34826 0.85916 0.0
H748 H 0.3648 0.24335 0.90807 0.0
H749 H 0.39951 0.29555 0.90918 0.0
H750 H 0.4402 0.37468 0.84822 0.0
H751 H 0.39643 0.355 0.8827 0.0
H752 H 0.3503 0.19981 0.76146 0.0
H753 H 0.31256 0.17716 0.79671 0.0
H754 H 0.44438 0.22543 0.75127 0.0
H755 H 0.47835 0.27837 0.75191 0.0
C756 C 0.60032 0.25676 0.66583 0.0
C757 C 0.66064 0.24333 0.6794 0.0
C758 C 0.67161 0.31508 0.70643 0.0
C759 C 0.60569 0.32347 0.70006 0.0
N760 N 0.53039 0.3186 0.65425 0.0
N761 N 0.75598 0.26088 0.7119 0.0
C762 C 0.57579 0.29914 0.67402 0.0
C763 C 0.69727 0.27296 0.69929 0.0
N764 N 0.56519 0.22857 0.64632 0.0
N765 N 0.71139 0.34927 0.71466 0.0
H766 H 0.77788 0.23089 0.70633 0.0
H767 H 0.78083 0.27987 0.72946 0.0
H768 H 0.69404 0.38142 0.7167 0.0
H769 H 0.76172 0.3465 0.71509 0.0
H770 H 0.51772 0.23491 0.63898 0.0
H771 H 0.58176 0.19745 0.63952 0.0
H772 H 0.51072 0.30362 0.63315 0.0
H773 H 0.51975 0.35201 0.65602 0.0
C774 C 0.86017 0.22956 0.16689 0.0
C775 C 0.85634 0.27263 0.18034 0.0
C776 C 0.88664 0.2438 0.23567 0.0
C777 C 0.89657 0.20154 0.22101 0.0
N778 N 0.85478 0.15212 0.17968 0.0
N779 N 0.86997 0.32194 0.22727 0.0
C780 C 0.87256 0.19377 0.18851 0.0
C781 C 0.87093 0.28012 0.21461 0.0
N782 N 0.8562 0.22284 0.13317 0.0
N783 N 0.88402 0.24876 0.26965 0.0
H784 H 0.8522 0.34907 0.21432 0.0
H785 H 0.89074 0.33039 0.25011 0.0
H786 H 0.88513 0.22292 0.28663 0.0
H787 H 0.87093 0.2779 0.28145 0.0
H788 H 0.86473 0.19229 0.12219 0.0
H789 H 0.85229 0.24848 0.11591 0.0
H790 H 0.83111 0.14477 0.15735 0.0
H791 H 0.85462 0.12654 0.19715 0.0
C792 C 0.86271 0.74272 0.7144 0.0
C793 C 0.83665 0.75162 0.68218 0.0
C794 C 0.90255 0.81951 0.67873 0.0
C795 C 0.92394 0.81249 0.712 0.0
N796 N 0.93862 0.76283 0.75812 0.0
N797 N 0.82605 0.80076 0.63494 0.0
C798 C 0.90791 0.77275 0.72889 0.0
C799 C 0.85608 0.79015 0.66431 0.0
N800 N 0.8425 0.70609 0.73165 0.0
N801 N 0.92737 0.85408 0.66077 0.0
H802 H 0.7904 0.78117 0.62398 0.0
H803 H 0.83225 0.83072 0.62261 0.0
H804 H 0.96013 0.87653 0.6709 0.0
H805 H 0.92006 0.85857 0.63525 0.0
H806 H 0.85143 0.70084 0.75695 0.0
H807 H 0.81423 0.68124 0.72101 0.0
H808 H 0.93606 0.73231 0.76995 0.0
H809 H 0.97103 0.78445 0.7695 0.0
C810 C 0.5938 0.76268 0.17614 0.0
C811 C 0.66216 0.76524 0.17876 0.0
C812 C 0.66467 0.68959 0.19997 0.0
C813 C 0.59632 0.68999 0.20362 0.0
N814 N 0.49451 0.72602 0.19345 0.0
N815 N 0.76408 0.73132 0.19219 0.0
C816 C 0.56038 0.72601 0.19063 0.0
C817 C 0.69801 0.72859 0.19015 0.0
N818 N 0.56097 0.7955 0.16014 0.0
N819 N 0.69754 0.65132 0.20456 0.0
H820 H 0.79067 0.75839 0.18347 0.0
H821 H 0.79247 0.7076 0.20379 0.0
H822 H 0.67491 0.62272 0.21302 0.0
H823 H 0.74587 0.64709 0.19778 0.0
H824 H 0.51194 0.79371 0.15422 0.0
H825 H 0.5839 0.82343 0.15037 0.0
H826 H 0.46545 0.75298 0.18807 0.0
H827 H 0.46898 0.69951 0.20338 0.0
C828 C 0.36426 0.76972 0.30693 0.0
C829 C 0.34605 0.76651 0.34103 0.0
C830 C 0.38399 0.69033 0.34162 0.0
C831 C 0.41205 0.69637 0.30935 0.0
N832 N 0.44667 0.74937 0.26744 0.0
N833 N 0.35769 0.72694 0.39339 0.0
C834 C 0.40715 0.73819 0.29358 0.0
C835 C 0.36125 0.72774 0.35929 0.0
N836 N 0.34022 0.80231 0.28697 0.0
N837 N 0.37605 0.64922 0.355 0.0
H838 H 0.34664 0.7546 0.40764 0.0
H839 H 0.37387 0.70027 0.40751 0.0
H840 H 0.38563 0.62048 0.34174 0.0
H841 H 0.35192 0.64372 0.37761 0.0
H842 H 0.34857 0.8032 0.26122 0.0
H843 H 0.30632 0.82517 0.29532 0.0
H844 H 0.44674 0.78064 0.25658 0.0
H845 H 0.48569 0.72994 0.26025 0.0
C846 C 0.15639 0.73483 0.80602 0.0
C847 C 0.1847 0.74263 0.8377 0.0
C848 C 0.13069 0.81449 0.84085 0.0
C849 C 0.10559 0.80791 0.80792 0.0
N850 N 0.10221 0.76396 0.75743 0.0
N851 N 0.19544 0.78734 0.88716 0.0
C852 C 0.12047 0.76865 0.79008 0.0
C853 C 0.17046 0.78159 0.85577 0.0
N854 N 0.16081 0.69389 0.79192 0.0
N855 N 0.12131 0.85382 0.85675 0.0
H856 H 0.23153 0.76754 0.89718 0.0
H857 H 0.17935 0.81084 0.90408 0.0
H858 H 0.09236 0.87879 0.8475 0.0
H859 H 0.14491 0.86355 0.87847 0.0
H860 H 0.13458 0.68413 0.77096 0.0
H861 H 0.18568 0.6679 0.80303 0.0
H862 H 0.11986 0.73943 0.74176 0.0
H863 H 0.0726 0.78605 0.74497 0.0
loop_
_geom_bond_atom_site_label_1
_geom_bond_atom_site_label_2
_geom_bond_distance
_geom_bond_site_symmetry_2
_ccdc_geom_bond_type
H0 C5 0.930 . S
H1 C8 0.930 . S
H2 C10 0.930 . S
H3 C4 1.016 . S
C4 H3 1.016 . S
C4 N11 1.286 . S
C5 H0 0.930 . S
C5 C6 1.397 . S
C5 C7 1.361 . S
C6 C5 1.397 . S
C6 C10 1.390 . S
C7 C5 1.361 . S
C7 C8 1.393 . S
C7 N11 1.413 . S
C8 H1 0.930 . S
C8 C7 1.393 . S
C8 C9 1.399 . S
C9 C8 1.399 . S
C9 C10 1.381 . S
C10 H2 0.930 . S
C10 C6 1.390 . S
C10 C9 1.381 . S
N11 C4 1.286 . S
N11 C7 1.413 . S
H12 C17 0.930 . S
H13 C20 0.930 . S
H14 C22 0.930 . S
H15 C16 1.016 . S
C16 H15 1.016 . S
C16 N23 1.286 . S
C17 H12 0.930 . S
C17 C18 1.397 . S
C17 C19 1.361 . S
C18 C17 1.397 . S
C18 C22 1.390 . S
C19 C17 1.361 . S
C19 C20 1.393 . S
C19 N23 1.413 . S
C20 H13 0.930 . S
C20 C19 1.393 . S
C20 C21 1.399 . S
C21 C20 1.399 . S
C21 C22 1.381 . S
C22 H14 0.930 . S
C22 C18 1.390 . S
C22 C21 1.381 . S
N23 C16 1.286 . S
N23 C19 1.413 . S
H24 C29 0.930 . S
H25 C32 0.930 . S
H26 C34 0.930 . S
H27 C28 1.016 . S
C28 H27 1.016 . S
C28 N35 1.286 . S
C29 H24 0.930 . S
C29 C30 1.397 . S
C29 C31 1.361 . S
C30 C29 1.397 . S
C30 C34 1.390 . S
C31 C29 1.361 . S
C31 C32 1.393 . S
C31 N35 1.413 . S
C32 H25 0.930 . S
C32 C31 1.393 . S
C32 C33 1.399 . S
C33 C32 1.399 . S
C33 C34 1.381 . S
C34 H26 0.930 . S
C34 C30 1.390 . S
C34 C33 1.381 . S
N35 C28 1.286 . S
N35 C31 1.413 . S
H36 C41 0.930 . S
H37 C44 0.930 . S
H38 C46 0.930 . S
H39 C40 1.016 . S
C40 H39 1.016 . S
C40 N47 1.286 . S
C41 H36 0.930 . S
C41 C42 1.397 . S
C41 C43 1.361 . S
C42 C41 1.397 . S
C42 C46 1.390 . S
C43 C41 1.361 . S
C43 C44 1.393 . S
C43 N47 1.413 . S
C44 H37 0.930 . S
C44 C43 1.393 . S
C44 C45 1.399 . S
C45 C44 1.399 . S
C45 C46 1.381 . S
C46 H38 0.930 . S
C46 C42 1.390 . S
C46 C45 1.381 . S
N47 C40 1.286 . S
N47 C43 1.413 . S
H48 C53 0.930 . S
H49 C56 0.930 . S
H50 C58 0.930 . S
H51 C52 1.016 . S
C52 H51 1.016 . S
C52 N59 1.286 . S
C53 H48 0.930 . S
C53 C54 1.397 . S
C53 C55 1.361 . S
C54 C53 1.397 . S
C54 C58 1.390 . S
C55 C53 1.361 . S
C55 C56 1.393 . S
C55 N59 1.413 . S
C56 H49 0.930 . S
C56 C55 1.393 . S
C56 C57 1.399 . S
C57 C56 1.399 . S
C57 C58 1.381 . S
C58 H50 0.930 . S
C58 C54 1.390 . S
C58 C57 1.381 . S
N59 C52 1.286 . S
N59 C55 1.413 . S
H60 C65 0.930 . S
H61 C68 0.930 . S
H62 C70 0.930 . S
H63 C64 1.016 . S
C64 H63 1.016 . S
C64 N71 1.286 . S
C65 H60 0.930 . S
C65 C66 1.397 . S
C65 C67 1.361 . S
C66 C65 1.397 . S
C66 C70 1.390 . S
C67 C65 1.361 . S
C67 C68 1.393 . S
C67 N71 1.413 . S
C68 H61 0.930 . S
C68 C67 1.393 . S
C68 C69 1.399 . S
C69 C68 1.399 . S
C69 C70 1.381 . S
C70 H62 0.930 . S
C70 C66 1.390 . S
C70 C69 1.381 . S
N71 C64 1.286 . S
N71 C67 1.413 . S
H72 C77 0.930 . S
H73 C80 0.930 . S
H74 C82 0.930 . S
H75 C76 1.016 . S
C76 H75 1.016 . S
C76 N83 1.286 . S
C77 H72 0.930 . S
C77 C78 1.397 . S
C77 C79 1.361 . S
C78 C77 1.397 . S
C78 C82 1.390 . S
C79 C77 1.361 . S
C79 C80 1.393 . S
C79 N83 1.413 . S
C80 H73 0.930 . S
C80 C79 1.393 . S
C80 C81 1.399 . S
C81 C80 1.399 . S
C81 C82 1.381 . S
C82 H74 0.930 . S
C82 C78 1.390 . S
C82 C81 1.381 . S
N83 C76 1.286 . S
N83 C79 1.413 . S
H84 C89 0.930 . S
H85 C92 0.930 . S
H86 C94 0.930 . S
H87 C88 1.016 . S
C88 H87 1.016 . S
C88 N95 1.286 . S
C89 H84 0.930 . S
C89 C90 1.397 . S
C89 C91 1.361 . S
C90 C89 1.397 . S
C90 C94 1.390 . S
C91 C89 1.361 . S
C91 C92 1.393 . S
C91 N95 1.413 . S
C92 H85 0.930 . S
C92 C91 1.393 . S
C92 C93 1.399 . S
C93 C92 1.399 . S
C93 C94 1.381 . S
C94 H86 0.930 . S
C94 C90 1.390 . S
C94 C93 1.381 . S
N95 C88 1.286 . S
N95 C91 1.413 . S
C96 C98 1.422 . S
C96 C100 1.415 . S
C96 N102 1.369 . S
C97 C98 1.421 1_565 S
C97 C99 1.417 . S
C97 C109 1.422 . S
C98 C96 1.422 . S
C98 C97 1.421 1_545 S
C98 N108 1.359 . S
C99 C97 1.417 . S
C99 C101 1.329 1_565 S
C99 H118 0.930 . S
C100 C96 1.415 . S
C100 C101 1.437 . S
C100 C104 1.413 . S
C101 C99 1.329 1_545 S
C101 C100 1.437 . S
C101 H123 0.929 . S
N102 C96 1.369 . S
N102 C103 1.338 . S
N102 Gd107 2.622 . S
C103 N102 1.338 . S
C103 C105 1.378 . S
C103 H115 0.929 . S
C104 C100 1.413 . S
C104 C105 1.348 . S
C104 H120 0.931 . S
C105 C103 1.378 . S
C105 C104 1.348 . S
C105 H121 0.930 . S
Gd106 N126 2.622 . S
Gd106 N133 2.570 . S
Gd106 O140 2.353 1_455 S
Gd106 O141 2.468 . S
Gd106 O142 2.427 . S
Gd106 O144 2.388 . S
Gd106 O145 2.386 . S
Gd106 O149 2.307 1_455 S
Gd106 C159 2.805 . S
Gd107 N102 2.622 . S
Gd107 N108 2.570 . S
Gd107 O139 2.386 . S
Gd107 O143 2.307 1_655 S
Gd107 O146 2.353 1_655 S
Gd107 O147 2.468 . S
Gd107 O148 2.427 . S
Gd107 O150 2.388 . S
Gd107 C171 2.805 . S
N108 C98 1.359 . S
N108 Gd107 2.570 . S
N108 C110 1.343 1_545 S
C109 C97 1.422 . S
C109 C111 1.321 . S
C109 H117 0.931 . S
C110 N108 1.343 1_565 S
C110 C111 1.390 . S
C110 H112 0.931 . S
C111 C109 1.321 . S
C111 C110 1.390 . S
C111 H113 0.930 . S
H112 C110 0.931 . S
H113 C111 0.930 . S
H114 C137 0.931 . S
H115 C103 0.929 . S
H116 C138 0.930 . S
H117 C109 0.931 . S
H118 C99 0.930 . S
H119 C128 0.929 . S
H120 C104 0.931 . S
H121 C105 0.930 . S
H122 C160 0.930 . S
H123 C101 0.929 . S
H124 C129 0.931 . S
H125 C130 0.930 . S
N126 Gd106 2.622 . S
N126 C127 1.369 . S
N126 C128 1.338 . S
C127 N126 1.369 . S
C127 C131 1.415 . S
C127 C134 1.422 . S
C128 H119 0.929 . S
C128 N126 1.338 . S
C128 C130 1.378 . S
C129 H124 0.931 . S
C129 C130 1.348 . S
C129 C131 1.413 . S
C130 H125 0.930 . S
C130 C128 1.378 . S
C130 C129 1.348 . S
C131 C127 1.415 . S
C131 C129 1.413 . S
C131 C161 1.437 . S
H132 C161 0.929 . S
N133 Gd106 2.570 . S
N133 C134 1.359 . S
N133 C137 1.343 . S
C134 C127 1.422 . S
C134 N133 1.359 . S
C134 C136 1.421 . S
C135 C136 1.422 . S
C135 C138 1.321 . S
C135 H162 0.931 . S
C136 C134 1.421 . S
C136 C135 1.422 . S
C136 C160 1.417 . S
C137 H114 0.931 . S
C137 N133 1.343 . S
C137 C138 1.390 . S
C138 H116 0.930 . S
C138 C135 1.321 . S
C138 C137 1.390 . S
O139 Gd107 2.386 . S
O139 C151 1.265 . S
O140 Gd106 2.353 1_655 S
O140 C151 1.242 . S
O141 Gd106 2.468 . S
O141 C159 1.263 . S
O142 Gd106 2.427 . S
O142 C159 1.252 . S
O143 Gd107 2.307 1_455 S
O143 C152 1.261 . S
O144 Gd106 2.388 . S
O144 C152 1.252 . S
O145 Gd106 2.386 . S
O145 C163 1.265 . S
O146 Gd107 2.353 1_455 S
O146 C163 1.242 . S
O147 Gd107 2.468 . S
O147 C171 1.263 . S
O148 Gd107 2.427 . S
O148 C171 1.252 . S
O149 Gd106 2.307 1_655 S
O149 C164 1.261 . S
O150 Gd107 2.388 . S
O150 C164 1.252 . S
C151 O139 1.265 . S
C151 O140 1.242 . S
C152 O143 1.261 . S
C152 O144 1.252 . S
C153 C156 1.394 . S
C153 C158 1.370 . S
C153 C159 1.500 . S
C154 C157 1.383 . S
C154 C158 1.395 . S
C155 C156 1.396 . S
C155 C157 1.365 . S
C155 H172 0.935 . S
C156 C153 1.394 . S
C156 C155 1.396 . S
C156 H173 0.930 . S
C157 C154 1.383 . S
C157 C155 1.365 . S
C157 H174 0.931 . S
C158 C153 1.370 . S
C158 C154 1.395 . S
C158 H175 0.930 . S
C159 Gd106 2.805 . S
C159 O141 1.263 . S
C159 O142 1.252 . S
C159 C153 1.500 . S
C160 H122 0.930 . S
C160 C136 1.417 . S
C160 C161 1.329 . S
C161 C131 1.437 . S
C161 H132 0.929 . S
C161 C160 1.329 . S
H162 C135 0.931 . S
C163 O145 1.265 . S
C163 O146 1.242 . S
C164 O149 1.261 . S
C164 O150 1.252 . S
C165 C168 1.394 . S
C165 C170 1.370 . S
C165 C171 1.500 . S
C166 C169 1.383 . S
C166 C170 1.395 . S
C167 C168 1.396 . S
C167 C169 1.365 . S
C167 H176 0.929 . S
C168 C165 1.394 . S
C168 C167 1.396 . S
C168 H177 0.930 . S
C169 C166 1.383 . S
C169 C167 1.365 . S
C169 H178 0.931 . S
C170 C165 1.370 . S
C170 C166 1.395 . S
C170 H179 0.930 . S
C171 Gd107 2.805 . S
C171 O147 1.263 . S
C171 O148 1.252 . S
C171 C165 1.500 . S
H172 C155 0.935 . S
H173 C156 0.930 . S
H174 C157 0.931 . S
H175 C158 0.930 . S
H176 C167 0.929 . S
H177 C168 0.930 . S
H178 C169 0.931 . S
H179 C170 0.930 . S
C180 C182 1.422 . S
C180 C184 1.415 . S
C180 N186 1.369 . S
C181 C182 1.421 . S
C181 C183 1.417 . S
C181 C193 1.422 . S
C182 C180 1.422 . S
C182 C181 1.421 . S
C182 N192 1.359 . S
C183 C181 1.417 . S
C183 C185 1.329 . S
C183 H202 0.930 . S
C184 C180 1.415 . S
C184 C185 1.437 . S
C184 C188 1.413 . S
C185 C183 1.329 . S
C185 C184 1.437 . S
C185 H207 0.929 . S
N186 C180 1.369 . S
N186 C187 1.338 . S
N186 Gd191 2.622 . S
C187 N186 1.338 . S
C187 C189 1.378 . S
C187 H199 0.929 . S
C188 C184 1.413 . S
C188 C189 1.348 . S
C188 H204 0.931 . S
C189 C187 1.378 . S
C189 C188 1.348 . S
C189 H205 0.930 . S
Gd190 N210 2.622 . S
Gd190 N217 2.570 . S
Gd190 O224 2.353 . S
Gd190 O225 2.468 . S
Gd190 O226 2.427 . S
Gd190 O228 2.388 . S
Gd190 O229 2.386 . S
Gd190 O233 2.307 . S
Gd190 C243 2.805 . S
Gd191 N186 2.622 . S
Gd191 N192 2.570 . S
Gd191 O223 2.386 . S
Gd191 O227 2.307 . S
Gd191 O230 2.353 . S
Gd191 O231 2.468 . S
Gd191 O232 2.427 . S
Gd191 O234 2.388 . S
Gd191 C255 2.805 . S
N192 C182 1.359 . S
N192 Gd191 2.570 . S
N192 C194 1.343 . S
C193 C181 1.422 . S
C193 C195 1.321 . S
C193 H201 0.931 . S
C194 N192 1.343 . S
C194 C195 1.390 . S
C194 H196 0.931 . S
C195 C193 1.321 . S
C195 C194 1.390 . S
C195 H197 0.930 . S
H196 C194 0.931 . S
H197 C195 0.930 . S
H198 C221 0.931 . S
H199 C187 0.929 . S
H200 C222 0.930 . S
H201 C193 0.931 . S
H202 C183 0.930 . S
H203 C212 0.929 . S
H204 C188 0.931 . S
H205 C189 0.930 . S
H206 C244 0.930 . S
H207 C185 0.929 . S
H208 C213 0.931 . S
H209 C214 0.930 . S
N210 Gd190 2.622 . S
N210 C211 1.369 . S
N210 C212 1.338 . S
C211 N210 1.369 . S
C211 C215 1.415 . S
C211 C218 1.422 . S
C212 H203 0.929 . S
C212 N210 1.338 . S
C212 C214 1.378 . S
C213 H208 0.931 . S
C213 C214 1.348 . S
C213 C215 1.413 . S
C214 H209 0.930 . S
C214 C212 1.378 . S
C214 C213 1.348 . S
C215 C211 1.415 . S
C215 C213 1.413 . S
C215 C245 1.437 . S
H216 C245 0.929 . S
N217 Gd190 2.570 . S
N217 C218 1.359 . S
N217 C221 1.343 . S
C218 C211 1.422 . S
C218 N217 1.359 . S
C218 C220 1.421 . S
C219 C220 1.422 . S
C219 C222 1.321 . S
C219 H246 0.931 . S
C220 C218 1.421 . S
C220 C219 1.422 . S
C220 C244 1.417 . S
C221 H198 0.931 . S
C221 N217 1.343 . S
C221 C222 1.390 . S
C222 H200 0.930 . S
C222 C219 1.321 . S
C222 C221 1.390 . S
O223 Gd191 2.386 . S
O223 C235 1.265 . S
O224 Gd190 2.353 . S
O224 C235 1.242 . S
O225 Gd190 2.468 . S
O225 C243 1.263 . S
O226 Gd190 2.427 . S
O226 C243 1.252 . S
O227 Gd191 2.307 . S
O227 C236 1.261 . S
O228 Gd190 2.388 . S
O228 C236 1.252 . S
O229 Gd190 2.386 . S
O229 C247 1.265 . S
O230 Gd191 2.353 . S
O230 C247 1.242 . S
O231 Gd191 2.468 . S
O231 C255 1.263 . S
O232 Gd191 2.427 . S
O232 C255 1.252 . S
O233 Gd190 2.307 . S
O233 C248 1.261 . S
O234 Gd191 2.388 . S
O234 C248 1.252 . S
C235 O223 1.265 . S
C235 O224 1.242 . S
C236 O227 1.261 . S
C236 O228 1.252 . S
C237 C240 1.394 . S
C237 C242 1.370 . S
C237 C243 1.500 . S
C238 C241 1.383 . S
C238 C242 1.395 . S
C239 C240 1.396 . S
C239 C241 1.365 . S
C239 H256 0.929 . S
C240 C237 1.394 . S
C240 C239 1.396 . S
C240 H257 0.930 . S
C241 C238 1.383 . S
C241 C239 1.365 . S
C241 H258 0.931 . S
C242 C237 1.370 . S
C242 C238 1.395 . S
C242 H259 0.930 . S
C243 Gd190 2.805 . S
C243 O225 1.263 . S
C243 O226 1.252 . S
C243 C237 1.500 . S
C244 H206 0.930 . S
C244 C220 1.417 . S
C244 C245 1.329 . S
C245 C215 1.437 . S
C245 H216 0.929 . S
C245 C244 1.329 . S
H246 C219 0.931 . S
C247 O229 1.265 . S
C247 O230 1.242 . S
C248 O233 1.261 . S
C248 O234 1.252 . S
C249 C252 1.394 . S
C249 C254 1.370 . S
C249 C255 1.500 . S
C250 C253 1.383 . S
C250 C254 1.395 . S
C251 C252 1.396 . S
C251 C253 1.365 . S
C251 H260 0.929 . S
C252 C249 1.394 . S
C252 C251 1.396 . S
C252 H261 0.930 . S
C253 C250 1.383 . S
C253 C251 1.365 . S
C253 H262 0.931 . S
C254 C249 1.370 . S
C254 C250 1.395 . S
C254 H263 0.930 . S
C255 Gd191 2.805 . S
C255 O231 1.263 . S
C255 O232 1.252 . S
C255 C249 1.500 . S
H256 C239 0.929 . S
H257 C240 0.930 . S
H258 C241 0.931 . S
H259 C242 0.930 . S
H260 C251 0.929 . S
H261 C252 0.930 . S
H262 C253 0.931 . S
H263 C254 0.930 . S
C264 C266 1.422 . S
C264 C268 1.415 . S
C264 N270 1.369 . S
C265 C266 1.421 . S
C265 C267 1.417 . S
C265 C277 1.422 . S
C266 C264 1.422 . S
C266 C265 1.421 . S
C266 N276 1.359 . S
C267 C265 1.417 . S
C267 C269 1.329 . S
C267 H286 0.930 . S
C268 C264 1.415 . S
C268 C269 1.437 . S
C268 C272 1.413 . S
C269 C267 1.329 . S
C269 C268 1.437 . S
C269 H291 0.929 . S
N270 C264 1.369 . S
N270 C271 1.338 . S
N270 Gd275 2.622 . S
C271 N270 1.338 . S
C271 C273 1.378 . S
C271 H283 0.929 . S
C272 C268 1.413 . S
C272 C273 1.348 . S
C272 H288 0.931 . S
C273 C271 1.378 . S
C273 C272 1.348 . S
C273 H289 0.930 . S
Gd274 N294 2.622 . S
Gd274 N301 2.570 . S
Gd274 O308 2.352 . S
Gd274 O309 2.468 . S
Gd274 O310 2.427 . S
Gd274 O312 2.388 . S
Gd274 O313 2.386 . S
Gd274 O317 2.298 1_455 S
Gd274 C327 2.805 . S
Gd275 N270 2.622 . S
Gd275 N276 2.570 . S
Gd275 O307 2.386 . S
Gd275 O311 2.307 1_655 S
Gd275 O314 2.353 1_655 S
Gd275 O315 2.468 . S
Gd275 O316 2.427 . S
Gd275 O318 2.388 . S
Gd275 C339 2.805 . S
N276 C266 1.359 . S
N276 Gd275 2.570 . S
N276 C278 1.343 . S
C277 C265 1.422 . S
C277 C279 1.321 . S
C277 H285 0.931 . S
C278 N276 1.343 . S
C278 C279 1.390 . S
C278 H280 0.931 . S
C279 C277 1.321 . S
C279 C278 1.390 . S
C279 H281 0.930 . S
H280 C278 0.931 . S
H281 C279 0.930 . S
H282 C305 0.931 . S
H283 C271 0.929 . S
H284 C306 0.930 . S
H285 C277 0.931 . S
H286 C267 0.930 . S
H287 C296 0.929 . S
H288 C272 0.931 . S
H289 C273 0.930 . S
H290 C328 0.930 . S
H291 C269 0.929 . S
H292 C297 0.931 . S
H293 C298 0.930 . S
N294 Gd274 2.622 . S
N294 C295 1.369 . S
N294 C296 1.338 . S
C295 N294 1.369 . S
C295 C299 1.415 . S
C295 C302 1.422 . S
C296 H287 0.929 . S
C296 N294 1.338 . S
C296 C298 1.378 . S
C297 H292 0.931 . S
C297 C298 1.348 . S
C297 C299 1.413 . S
C298 H293 0.930 . S
C298 C296 1.378 . S
C298 C297 1.348 . S
C299 C295 1.415 . S
C299 C297 1.413 . S
C299 C329 1.437 . S
H300 C329 0.929 . S
N301 Gd274 2.570 . S
N301 C302 1.359 . S
N301 C305 1.343 1_565 S
C302 C295 1.422 . S
C302 N301 1.359 . S
C302 C304 1.421 1_565 S
C303 C304 1.422 . S
C303 C306 1.321 . S
C303 H330 0.931 . S
C304 C302 1.421 1_545 S
C304 C303 1.422 . S
C304 C328 1.417 . S
C305 H282 0.931 . S
C305 N301 1.343 1_545 S
C305 C306 1.390 . S
C306 H284 0.930 . S
C306 C303 1.321 . S
C306 C305 1.390 . S
O307 Gd275 2.386 . S
O307 C319 1.265 . S
O308 Gd274 2.352 . S
O308 C319 1.243 1_455 S
O309 Gd274 2.468 . S
O309 C327 1.263 . S
O310 Gd274 2.427 . S
O310 C327 1.252 . S
O311 Gd275 2.307 1_455 S
O311 C320 1.261 . S
O312 Gd274 2.388 . S
O312 C320 1.252 . S
O313 Gd274 2.386 . S
O313 C331 1.265 . S
O314 Gd275 2.353 1_455 S
O314 C331 1.242 . S
O315 Gd275 2.468 . S
O315 C339 1.263 . S
O316 Gd275 2.427 . S
O316 C339 1.252 . S
O317 Gd274 2.298 1_655 S
O317 C332 1.271 . S
O318 Gd275 2.388 . S
O318 C332 1.252 . S
C319 O307 1.265 . S
C319 O308 1.243 1_655 S
C320 O311 1.261 . S
C320 O312 1.252 . S
C321 C324 1.394 . S
C321 C326 1.370 . S
C321 C327 1.500 . S
C322 C325 1.383 . S
C322 C326 1.395 . S
C323 C324 1.396 . S
C323 C325 1.365 . S
C323 H340 0.929 . S
C324 C321 1.394 . S
C324 C323 1.396 . S
C324 H341 0.930 . S
C325 C322 1.383 . S
C325 C323 1.365 . S
C325 H342 0.931 . S
C326 C321 1.370 . S
C326 C322 1.395 . S
C326 H343 0.930 . S
C327 Gd274 2.805 . S
C327 O309 1.263 . S
C327 O310 1.252 . S
C327 C321 1.500 . S
C328 H290 0.930 . S
C328 C304 1.417 . S
C328 C329 1.329 1_545 S
C329 C299 1.437 . S
C329 H300 0.929 . S
C329 C328 1.329 1_565 S
H330 C303 0.931 . S
C331 O313 1.265 . S
C331 O314 1.242 . S
C332 O317 1.271 . S
C332 O318 1.252 . S
C333 C336 1.394 . S
C333 C338 1.370 . S
C333 C339 1.500 . S
C334 C337 1.383 . S
C334 C338 1.395 . S
C335 C336 1.396 . S
C335 C337 1.365 . S
C335 H344 0.935 . S
C336 C333 1.394 . S
C336 C335 1.396 . S
C336 H345 0.930 . S
C337 C334 1.383 . S
C337 C335 1.365 . S
C337 H346 0.931 . S
C338 C333 1.370 . S
C338 C334 1.395 . S
C338 H347 0.930 . S
C339 Gd275 2.805 . S
C339 O315 1.263 . S
C339 O316 1.252 . S
C339 C333 1.500 . S
H340 C323 0.929 . S
H341 C324 0.930 . S
H342 C325 0.931 . S
H343 C326 0.930 . S
H344 C335 0.935 . S
H345 C336 0.930 . S
H346 C337 0.931 . S
H347 C338 0.930 . S
C348 C350 1.422 . S
C348 C352 1.415 . S
C348 N354 1.369 . S
C349 C350 1.421 . S
C349 C351 1.417 . S
C349 C361 1.422 . S
C350 C348 1.422 . S
C350 C349 1.421 . S
C350 N360 1.359 . S
C351 C349 1.417 . S
C351 C353 1.329 . S
C351 H370 0.930 . S
C352 C348 1.415 . S
C352 C353 1.437 . S
C352 C356 1.413 . S
C353 C351 1.329 . S
C353 C352 1.437 . S
C353 H375 0.929 . S
N354 C348 1.369 . S
N354 C355 1.338 . S
N354 Gd359 2.622 . S
C355 N354 1.338 . S
C355 C357 1.378 . S
C355 H367 0.929 . S
C356 C352 1.413 . S
C356 C357 1.348 . S
C356 H372 0.931 . S
C357 C355 1.378 . S
C357 C356 1.348 . S
C357 H373 0.930 . S
Gd358 N378 2.622 . S
Gd358 N385 2.570 . S
Gd358 O392 2.353 . S
Gd358 O393 2.468 . S
Gd358 O394 2.427 . S
Gd358 O396 2.388 . S
Gd358 O397 2.386 . S
Gd358 O401 2.307 . S
Gd358 C411 2.805 . S
Gd359 N354 2.622 . S
Gd359 N360 2.570 . S
Gd359 O391 2.386 . S
Gd359 O395 2.307 . S
Gd359 O398 2.353 . S
Gd359 O399 2.468 . S
Gd359 O400 2.427 . S
Gd359 O402 2.388 . S
Gd359 C423 2.805 . S
N360 C350 1.359 . S
N360 Gd359 2.570 . S
N360 C362 1.343 . S
C361 C349 1.422 . S
C361 C363 1.321 . S
C361 H369 0.931 . S
C362 N360 1.343 . S
C362 C363 1.390 . S
C362 H364 0.931 . S
C363 C361 1.321 . S
C363 C362 1.390 . S
C363 H365 0.930 . S
H364 C362 0.931 . S
H365 C363 0.930 . S
H366 C389 0.931 . S
H367 C355 0.929 . S
H368 C390 0.930 . S
H369 C361 0.931 . S
H370 C351 0.930 . S
H371 C380 0.929 . S
H372 C356 0.931 . S
H373 C357 0.930 . S
H374 C412 0.930 . S
H375 C353 0.929 . S
H376 C381 0.931 . S
H377 C382 0.930 . S
N378 Gd358 2.622 . S
N378 C379 1.369 . S
N378 C380 1.338 . S
C379 N378 1.369 . S
C379 C383 1.415 . S
C379 C386 1.422 . S
C380 H371 0.929 . S
C380 N378 1.338 . S
C380 C382 1.378 . S
C381 H376 0.931 . S
C381 C382 1.348 . S
C381 C383 1.413 . S
C382 H377 0.930 . S
C382 C380 1.378 . S
C382 C381 1.348 . S
C383 C379 1.415 . S
C383 C381 1.413 . S
C383 C413 1.437 . S
H384 C413 0.929 . S
N385 Gd358 2.570 . S
N385 C386 1.359 . S
N385 C389 1.343 . S
C386 C379 1.422 . S
C386 N385 1.359 . S
C386 C388 1.421 . S
C387 C388 1.422 . S
C387 C390 1.321 . S
C387 H414 0.931 . S
C388 C386 1.421 . S
C388 C387 1.422 . S
C388 C412 1.417 . S
C389 H366 0.931 . S
C389 N385 1.343 . S
C389 C390 1.390 . S
C390 H368 0.930 . S
C390 C387 1.321 . S
C390 C389 1.390 . S
O391 Gd359 2.386 . S
O391 C403 1.265 . S
O392 Gd358 2.353 . S
O392 C403 1.242 . S
O393 Gd358 2.468 . S
O393 C411 1.263 . S
O394 Gd358 2.427 . S
O394 C411 1.252 . S
O395 Gd359 2.307 . S
O395 C404 1.261 . S
O396 Gd358 2.388 . S
O396 C404 1.252 . S
O397 Gd358 2.386 . S
O397 C415 1.265 . S
O398 Gd359 2.353 . S
O398 C415 1.242 . S
O399 Gd359 2.468 . S
O399 C423 1.263 . S
O400 Gd359 2.427 . S
O400 C423 1.252 . S
O401 Gd358 2.307 . S
O401 C416 1.261 . S
O402 Gd359 2.388 . S
O402 C416 1.252 . S
C403 O391 1.265 . S
C403 O392 1.242 . S
C404 O395 1.261 . S
C404 O396 1.252 . S
C405 C408 1.394 . S
C405 C410 1.370 . S
C405 C411 1.500 . S
C406 C409 1.383 . S
C406 C410 1.395 . S
C407 C408 1.396 . S
C407 C409 1.365 . S
C407 H424 0.929 . S
C408 C405 1.394 . S
C408 C407 1.396 . S
C408 H425 0.930 . S
C409 C406 1.383 . S
C409 C407 1.365 . S
C409 H426 0.931 . S
C410 C405 1.370 . S
C410 C406 1.395 . S
C410 H427 0.930 . S
C411 Gd358 2.805 . S
C411 O393 1.263 . S
C411 O394 1.252 . S
C411 C405 1.500 . S
C412 H374 0.930 . S
C412 C388 1.417 . S
C412 C413 1.329 . S
C413 C383 1.437 . S
C413 H384 0.929 . S
C413 C412 1.329 . S
H414 C387 0.931 . S
C415 O397 1.265 . S
C415 O398 1.242 . S
C416 O401 1.261 . S
C416 O402 1.252 . S
C417 C420 1.394 . S
C417 C422 1.370 . S
C417 C423 1.500 . S
C418 C421 1.383 . S
C418 C422 1.395 . S
C419 C420 1.396 . S
C419 C421 1.365 . S
C419 H428 0.929 . S
C420 C417 1.394 . S
C420 C419 1.396 . S
C420 H429 0.930 . S
C421 C418 1.383 . S
C421 C419 1.365 . S
C421 H430 0.931 . S
C422 C417 1.370 . S
C422 C418 1.395 . S
C422 H431 0.930 . S
C423 Gd359 2.805 . S
C423 O399 1.263 . S
C423 O400 1.252 . S
C423 C417 1.500 . S
H424 C407 0.929 . S
H425 C408 0.930 . S
H426 C409 0.931 . S
H427 C410 0.930 . S
H428 C419 0.929 . S
H429 C420 0.930 . S
H430 C421 0.931 . S
H431 C422 0.930 . S
C432 C433 1.363 . S
C432 C438 1.379 . S
C432 N440 1.356 . S
C433 C432 1.363 . S
C433 C439 1.363 . S
C434 C435 1.363 . S
C434 C439 1.379 . S
C434 N441 1.356 . S
C435 C434 1.363 . S
C435 C438 1.363 . S
N436 C438 1.356 1_545 S
N436 H448 0.984 . S
N436 H449 0.985 . S
N437 C439 1.356 . S
N437 H442 0.984 . S
N437 H443 0.985 . S
C438 C432 1.379 . S
C438 C435 1.363 . S
C438 N436 1.356 1_565 S
C439 C433 1.363 . S
C439 C434 1.379 . S
C439 N437 1.356 . S
N440 C432 1.356 . S
N440 H446 0.984 . S
N440 H447 0.984 . S
N441 C434 1.356 . S
N441 H444 0.984 1_565 S
N441 H445 0.985 . S
H442 N437 0.984 . S
H443 N437 0.985 . S
H444 N441 0.984 1_545 S
H445 N441 0.985 . S
H446 N440 0.984 . S
H447 N440 0.984 . S
H448 N436 0.984 . S
H449 N436 0.985 . S
C450 C451 1.363 . S
C450 C456 1.379 . S
C450 N458 1.356 . S
C451 C450 1.363 . S
C451 C457 1.363 . S
C452 C453 1.363 . S
C452 C457 1.379 . S
C452 N459 1.356 . S
C453 C452 1.363 . S
C453 C456 1.363 . S
N454 C456 1.356 . S
N454 H466 0.984 . S
N454 H467 0.985 . S
N455 C457 1.356 . S
N455 H460 0.984 . S
N455 H461 0.985 . S
C456 C450 1.379 . S
C456 C453 1.363 . S
C456 N454 1.356 . S
C457 C451 1.363 . S
C457 C452 1.379 . S
C457 N455 1.356 . S
N458 C450 1.356 . S
N458 H464 0.984 . S
N458 H465 0.984 . S
N459 C452 1.356 . S
N459 H462 0.984 . S
N459 H463 0.985 . S
H460 N455 0.984 . S
H461 N455 0.985 . S
H462 N459 0.984 . S
H463 N459 0.985 . S
H464 N458 0.984 . S
H465 N458 0.984 . S
H466 N454 0.984 . S
H467 N454 0.985 . S
C468 C469 1.363 . S
C468 C474 1.379 . S
C468 N476 1.356 . S
C469 C468 1.363 . S
C469 C475 1.363 . S
C470 C471 1.363 . S
C470 C475 1.379 . S
C470 N477 1.356 . S
C471 C470 1.363 . S
C471 C474 1.363 . S
N472 C474 1.356 . S
N472 H484 0.984 . S
N472 H485 0.985 . S
N473 C475 1.356 . S
N473 H478 0.984 . S
N473 H479 0.985 . S
C474 C468 1.379 . S
C474 C471 1.363 . S
C474 N472 1.356 . S
C475 C469 1.363 . S
C475 C470 1.379 . S
C475 N473 1.356 . S
N476 C468 1.356 . S
N476 H482 0.984 . S
N476 H483 0.984 . S
N477 C470 1.356 . S
N477 H480 0.984 . S
N477 H481 0.985 . S
H478 N473 0.984 . S
H479 N473 0.985 . S
H480 N477 0.984 . S
H481 N477 0.985 . S
H482 N476 0.984 . S
H483 N476 0.984 . S
H484 N472 0.984 . S
H485 N472 0.985 . S
C486 C487 1.363 . S
C486 C492 1.379 1_565 S
C486 N494 1.356 . S
C487 C486 1.363 . S
C487 C493 1.363 . S
C488 C489 1.363 . S
C488 C493 1.379 . S
C488 N495 1.356 . S
C489 C488 1.363 . S
C489 C492 1.363 1_565 S
N490 C492 1.356 . S
N490 H502 0.984 . S
N490 H503 0.985 . S
N491 C493 1.356 . S
N491 H496 0.984 . S
N491 H497 0.985 . S
C492 C486 1.379 1_545 S
C492 C489 1.363 1_545 S
C492 N490 1.356 . S
C493 C487 1.363 . S
C493 C488 1.379 . S
C493 N491 1.356 . S
N494 C486 1.356 . S
N494 H500 0.984 . S
N494 H501 0.984 . S
N495 C488 1.356 . S
N495 H498 0.984 . S
N495 H499 0.985 . S
H496 N491 0.984 . S
H497 N491 0.985 . S
H498 N495 0.984 . S
H499 N495 0.985 . S
H500 N494 0.984 . S
H501 N494 0.984 . S
H502 N490 0.984 . S
H503 N490 0.985 . S
C504 C505 1.363 . S
C504 C510 1.379 1_545 S
C504 N512 1.356 . S
C505 C504 1.363 . S
C505 C511 1.363 . S
C506 C507 1.363 . S
C506 C511 1.379 . S
C506 N513 1.356 . S
C507 C506 1.363 . S
C507 C510 1.363 1_545 S
N508 C510 1.356 . S
N508 H520 0.984 . S
N508 H521 0.985 . S
N509 C511 1.356 . S
N509 H514 0.984 . S
N509 H515 0.985 . S
C510 C504 1.379 1_565 S
C510 C507 1.363 1_565 S
C510 N508 1.356 . S
C511 C505 1.363 . S
C511 C506 1.379 . S
C511 N509 1.356 . S
N512 C504 1.356 . S
N512 H518 0.984 1_545 S
N512 H519 0.984 . S
N513 C506 1.356 . S
N513 H516 0.984 . S
N513 H517 0.985 . S
H514 N509 0.984 . S
H515 N509 0.985 . S
H516 N513 0.984 . S
H517 N513 0.985 . S
H518 N512 0.984 1_565 S
H519 N512 0.984 . S
H520 N508 0.984 . S
H521 N508 0.985 . S
C522 C523 1.363 . S
C522 C528 1.379 . S
C522 N530 1.356 . S
C523 C522 1.363 . S
C523 C529 1.363 . S
C524 C525 1.363 . S
C524 C529 1.379 . S
C524 N531 1.356 . S
C525 C524 1.363 . S
C525 C528 1.363 . S
N526 C528 1.356 . S
N526 H538 0.984 . S
N526 H539 0.985 . S
N527 C529 1.356 . S
N527 H532 0.984 . S
N527 H533 0.985 . S
C528 C522 1.379 . S
C528 C525 1.363 . S
C528 N526 1.356 . S
C529 C523 1.363 . S
C529 C524 1.379 . S
C529 N527 1.356 . S
N530 C522 1.356 . S
N530 H536 0.984 . S
N530 H537 0.984 . S
N531 C524 1.356 . S
N531 H534 0.984 . S
N531 H535 0.985 . S
H532 N527 0.984 . S
H533 N527 0.985 . S
H534 N531 0.984 . S
H535 N531 0.985 . S
H536 N530 0.984 . S
H537 N530 0.984 . S
H538 N526 0.984 . S
H539 N526 0.985 . S
C540 C541 1.363 . S
C540 C546 1.379 . S
C540 N548 1.356 . S
C541 C540 1.363 . S
C541 C547 1.363 . S
C542 C543 1.363 . S
C542 C547 1.379 . S
C542 N549 1.356 . S
C543 C542 1.363 . S
C543 C546 1.363 . S
N544 C546 1.356 . S
N544 H556 0.984 . S
N544 H557 0.985 . S
N545 C547 1.356 . S
N545 H550 0.984 . S
N545 H551 0.985 . S
C546 C540 1.379 . S
C546 C543 1.363 . S
C546 N544 1.356 . S
C547 C541 1.363 . S
C547 C542 1.379 . S
C547 N545 1.356 . S
N548 C540 1.356 . S
N548 H554 0.984 . S
N548 H555 0.984 . S
N549 C542 1.356 . S
N549 H552 0.984 . S
N549 H553 0.985 . S
H550 N545 0.984 . S
H551 N545 0.985 . S
H552 N549 0.984 . S
H553 N549 0.985 . S
H554 N548 0.984 . S
H555 N548 0.984 . S
H556 N544 0.984 . S
H557 N544 0.985 . S
C558 C559 1.363 . S
C558 C564 1.379 . S
C558 N566 1.356 . S
C559 C558 1.363 . S
C559 C565 1.363 . S
C560 C561 1.363 1_565 S
C560 C565 1.379 1_565 S
C560 N567 1.356 . S
C561 C560 1.363 1_545 S
C561 C564 1.363 . S
N562 C564 1.356 . S
N562 H574 0.984 . S
N562 H575 0.985 . S
N563 C565 1.356 . S
N563 H568 0.984 . S
N563 H569 0.985 1_545 S
C564 C558 1.379 . S
C564 C561 1.363 . S
C564 N562 1.356 . S
C565 C559 1.363 . S
C565 C560 1.379 1_545 S
C565 N563 1.356 . S
N566 C558 1.356 . S
N566 H572 0.984 . S
N566 H573 0.984 . S
N567 C560 1.356 . S
N567 H570 0.984 . S
N567 H571 0.985 . S
H568 N563 0.984 . S
H569 N563 0.985 1_565 S
H570 N567 0.984 . S
H571 N567 0.985 . S
H572 N566 0.984 . S
H573 N566 0.984 . S
H574 N562 0.984 . S
H575 N562 0.985 . S
C576 C577 1.363 . S
C576 C582 1.379 1_556 S
C576 N584 1.356 . S
C577 C576 1.363 . S
C577 C583 1.363 . S
C578 C579 1.363 . S
C578 C583 1.379 1_554 S
C578 N585 1.356 . S
C579 C578 1.363 . S
C579 C582 1.363 . S
N580 C582 1.356 . S
N580 H592 0.984 1_554 S
N580 H593 0.985 . S
N581 C583 1.356 . S
N581 H586 0.984 . S
N581 H587 0.985 1_556 S
C582 C576 1.379 1_554 S
C582 C579 1.363 . S
C582 N580 1.356 . S
C583 C577 1.363 . S
C583 C578 1.379 1_556 S
C583 N581 1.356 . S
N584 C576 1.356 . S
N584 H590 0.984 . S
N584 H591 0.984 . S
N585 C578 1.356 . S
N585 H588 0.984 . S
N585 H589 0.985 . S
H586 N581 0.984 . S
H587 N581 0.985 1_554 S
H588 N585 0.984 . S
H589 N585 0.985 . S
H590 N584 0.984 . S
H591 N584 0.984 . S
H592 N580 0.984 1_556 S
H593 N580 0.985 . S
C594 C595 1.363 . S
C594 C600 1.379 . S
C594 N602 1.356 . S
C595 C594 1.363 . S
C595 C601 1.363 . S
C596 C597 1.363 . S
C596 C601 1.379 . S
C596 N603 1.356 . S
C597 C596 1.363 . S
C597 C600 1.363 . S
N598 C600 1.356 . S
N598 H610 0.984 . S
N598 H611 0.985 . S
N599 C601 1.356 . S
N599 H604 0.984 . S
N599 H605 0.985 . S
C600 C594 1.379 . S
C600 C597 1.363 . S
C600 N598 1.356 . S
C601 C595 1.363 . S
C601 C596 1.379 . S
C601 N599 1.356 . S
N602 C594 1.356 . S
N602 H608 0.984 . S
N602 H609 0.984 . S
N603 C596 1.356 . S
N603 H606 0.984 . S
N603 H607 0.985 . S
H604 N599 0.984 . S
H605 N599 0.985 . S
H606 N603 0.984 . S
H607 N603 0.985 . S
H608 N602 0.984 . S
H609 N602 0.984 . S
H610 N598 0.984 . S
H611 N598 0.985 . S
C612 C613 1.363 . S
C612 C618 1.379 1_554 S
C612 N620 1.356 . S
C613 C612 1.363 . S
C613 C619 1.363 . S
C614 C615 1.363 . S
C614 C619 1.379 1_556 S
C614 N621 1.356 . S
C615 C614 1.363 . S
C615 C618 1.363 . S
N616 C618 1.356 . S
N616 H628 0.984 . S
N616 H629 0.985 . S
N617 C619 1.356 . S
N617 H622 0.984 . S
N617 H623 0.985 . S
C618 C612 1.379 1_556 S
C618 C615 1.363 . S
C618 N616 1.356 . S
C619 C613 1.363 . S
C619 C614 1.379 1_554 S
C619 N617 1.356 . S
N620 C612 1.356 . S
N620 H626 0.984 . S
N620 H627 0.984 . S
N621 C614 1.356 . S
N621 H624 0.984 . S
N621 H625 0.985 . S
H622 N617 0.984 . S
H623 N617 0.985 . S
H624 N621 0.984 . S
H625 N621 0.985 . S
H626 N620 0.984 . S
H627 N620 0.984 . S
H628 N616 0.984 . S
H629 N616 0.985 . S
C630 C631 1.363 . S
C630 C636 1.379 . S
C630 N638 1.356 . S
C631 C630 1.363 . S
C631 C637 1.363 . S
C632 C633 1.363 . S
C632 C637 1.379 . S
C632 N639 1.356 . S
C633 C632 1.363 . S
C633 C636 1.363 . S
N634 C636 1.356 . S
N634 H646 0.984 . S
N634 H647 0.985 . S
N635 C637 1.356 . S
N635 H640 0.984 . S
N635 H641 0.985 . S
C636 C630 1.379 . S
C636 C633 1.363 . S
C636 N634 1.356 . S
C637 C631 1.363 . S
C637 C632 1.379 . S
C637 N635 1.356 . S
N638 C630 1.356 . S
N638 H644 0.984 . S
N638 H645 0.984 . S
N639 C632 1.356 . S
N639 H642 0.984 . S
N639 H643 0.985 . S
H640 N635 0.984 . S
H641 N635 0.985 . S
H642 N639 0.984 . S
H643 N639 0.985 . S
H644 N638 0.984 . S
H645 N638 0.984 . S
H646 N634 0.984 . S
H647 N634 0.985 . S
C648 C649 1.363 . S
C648 C654 1.379 1_554 S
C648 N656 1.356 . S
C649 C648 1.363 . S
C649 C655 1.363 . S
C650 C651 1.363 . S
C650 C655 1.379 1_556 S
C650 N657 1.356 . S
C651 C650 1.363 . S
C651 C654 1.363 . S
N652 C654 1.356 . S
N652 H664 0.984 . S
N652 H665 0.985 . S
N653 C655 1.356 . S
N653 H658 0.984 . S
N653 H659 0.985 . S
C654 C648 1.379 1_556 S
C654 C651 1.363 . S
C654 N652 1.356 . S
C655 C649 1.363 . S
C655 C650 1.379 1_554 S
C655 N653 1.356 . S
N656 C648 1.356 . S
N656 H662 0.984 . S
N656 H663 0.984 . S
N657 C650 1.356 . S
N657 H660 0.984 . S
N657 H661 0.985 . S
H658 N653 0.984 . S
H659 N653 0.985 . S
H660 N657 0.984 . S
H661 N657 0.985 . S
H662 N656 0.984 . S
H663 N656 0.984 . S
H664 N652 0.984 . S
H665 N652 0.985 . S
C666 C667 1.363 . S
C666 C672 1.379 . S
C666 N674 1.356 . S
C667 C666 1.363 . S
C667 C673 1.363 . S
C668 C669 1.363 . S
C668 C673 1.379 . S
C668 N675 1.356 . S
C669 C668 1.363 . S
C669 C672 1.363 . S
N670 C672 1.356 . S
N670 H682 0.984 . S
N670 H683 0.985 . S
N671 C673 1.356 . S
N671 H676 0.984 . S
N671 H677 0.985 . S
C672 C666 1.379 . S
C672 C669 1.363 . S
C672 N670 1.356 . S
C673 C667 1.363 . S
C673 C668 1.379 . S
C673 N671 1.356 . S
N674 C666 1.356 . S
N674 H680 0.984 . S
N674 H681 0.984 . S
N675 C668 1.356 . S
N675 H678 0.984 . S
N675 H679 0.985 . S
H676 N671 0.984 . S
H677 N671 0.985 . S
H678 N675 0.984 . S
H679 N675 0.985 . S
H680 N674 0.984 . S
H681 N674 0.984 . S
H682 N670 0.984 . S
H683 N670 0.985 . S
C684 C685 1.363 . S
C684 C690 1.379 1_556 S
C684 N692 1.356 . S
C685 C684 1.363 . S
C685 C691 1.363 . S
C686 C687 1.363 . S
C686 C691 1.379 1_554 S
C686 N693 1.356 . S
C687 C686 1.363 . S
C687 C690 1.363 . S
N688 C690 1.356 . S
N688 H700 0.984 . S
N688 H701 0.985 . S
N689 C691 1.356 . S
N689 H694 0.984 . S
N689 H695 0.985 . S
C690 C684 1.379 1_554 S
C690 C687 1.363 . S
C690 N688 1.356 . S
C691 C685 1.363 . S
C691 C686 1.379 1_556 S
C691 N689 1.356 . S
N692 C684 1.356 . S
N692 H698 0.984 . S
N692 H699 0.984 . S
N693 C686 1.356 . S
N693 H696 0.984 . S
N693 H697 0.985 . S
H694 N689 0.984 . S
H695 N689 0.985 . S
H696 N693 0.984 . S
H697 N693 0.985 . S
H698 N692 0.984 . S
H699 N692 0.984 . S
H700 N688 0.984 . S
H701 N688 0.985 . S
C702 C703 1.363 . S
C702 C708 1.379 . S
C702 N710 1.356 . S
C703 C702 1.363 . S
C703 C709 1.363 . S
C704 C705 1.363 . S
C704 C709 1.379 . S
C704 N711 1.356 . S
C705 C704 1.363 . S
C705 C708 1.363 . S
N706 C708 1.356 . S
N706 H718 0.984 . S
N706 H719 0.985 . S
N707 C709 1.356 . S
N707 H712 0.984 . S
N707 H713 0.985 . S
C708 C702 1.379 . S
C708 C705 1.363 . S
C708 N706 1.356 . S
C709 C703 1.363 . S
C709 C704 1.379 . S
C709 N707 1.356 . S
N710 C702 1.356 . S
N710 H716 0.984 . S
N710 H717 0.984 . S
N711 C704 1.356 . S
N711 H714 0.984 . S
N711 H715 0.985 . S
H712 N707 0.984 . S
H713 N707 0.985 . S
H714 N711 0.984 . S
H715 N711 0.985 . S
H716 N710 0.984 . S
H717 N710 0.984 . S
H718 N706 0.984 . S
H719 N706 0.985 . S
C720 C721 1.363 . S
C720 C726 1.379 . S
C720 N728 1.356 . S
C721 C720 1.363 . S
C721 C727 1.363 . S
C722 C723 1.363 . S
C722 C727 1.379 . S
C722 N729 1.356 . S
C723 C722 1.363 . S
C723 C726 1.363 . S
N724 C726 1.356 . S
N724 H736 0.984 . S
N724 H737 0.985 . S
N725 C727 1.356 . S
N725 H730 0.984 . S
N725 H731 0.985 . S
C726 C720 1.379 . S
C726 C723 1.363 . S
C726 N724 1.356 . S
C727 C721 1.363 . S
C727 C722 1.379 . S
C727 N725 1.356 . S
N728 C720 1.356 . S
N728 H734 0.984 . S
N728 H735 0.984 . S
N729 C722 1.356 . S
N729 H732 0.984 . S
N729 H733 0.985 1_455 S
H730 N725 0.984 . S
H731 N725 0.985 . S
H732 N729 0.984 . S
H733 N729 0.985 1_655 S
H734 N728 0.984 . S
H735 N728 0.984 . S
H736 N724 0.984 . S
H737 N724 0.985 . S
C738 C739 1.363 . S
C738 C744 1.379 . S
C738 N746 1.356 . S
C739 C738 1.363 . S
C739 C745 1.363 . S
C740 C741 1.363 . S
C740 C745 1.379 . S
C740 N747 1.356 . S
C741 C740 1.363 . S
C741 C744 1.363 . S
N742 C744 1.356 . S
N742 H754 0.984 . S
N742 H755 0.985 . S
N743 C745 1.356 . S
N743 H748 0.984 . S
N743 H749 0.985 . S
C744 C738 1.379 . S
C744 C741 1.363 . S
C744 N742 1.356 . S
C745 C739 1.363 . S
C745 C740 1.379 . S
C745 N743 1.356 . S
N746 C738 1.356 . S
N746 H752 0.984 . S
N746 H753 0.984 . S
N747 C740 1.356 . S
N747 H750 0.984 . S
N747 H751 0.985 . S
H748 N743 0.984 . S
H749 N743 0.985 . S
H750 N747 0.984 . S
H751 N747 0.985 . S
H752 N746 0.984 . S
H753 N746 0.984 . S
H754 N742 0.984 . S
H755 N742 0.985 . S
C756 C757 1.363 . S
C756 C762 1.379 . S
C756 N764 1.356 . S
C757 C756 1.363 . S
C757 C763 1.363 . S
C758 C759 1.363 . S
C758 C763 1.379 . S
C758 N765 1.356 . S
C759 C758 1.363 . S
C759 C762 1.363 . S
N760 C762 1.356 . S
N760 H772 0.984 . S
N760 H773 0.985 . S
N761 C763 1.356 . S
N761 H766 0.984 . S
N761 H767 0.985 . S
C762 C756 1.379 . S
C762 C759 1.363 . S
C762 N760 1.356 . S
C763 C757 1.363 . S
C763 C758 1.379 . S
C763 N761 1.356 . S
N764 C756 1.356 . S
N764 H770 0.984 . S
N764 H771 0.984 . S
N765 C758 1.356 . S
N765 H768 0.984 . S
N765 H769 0.985 . S
H766 N761 0.984 . S
H767 N761 0.985 . S
H768 N765 0.984 . S
H769 N765 0.985 . S
H770 N764 0.984 . S
H771 N764 0.984 . S
H772 N760 0.984 . S
H773 N760 0.985 . S
C774 C775 1.363 . S
C774 C780 1.379 . S
C774 N782 1.356 . S
C775 C774 1.363 . S
C775 C781 1.363 . S
C776 C777 1.363 . S
C776 C781 1.379 . S
C776 N783 1.356 . S
C777 C776 1.363 . S
C777 C780 1.363 . S
N778 C780 1.356 . S
N778 H790 0.984 . S
N778 H791 0.985 . S
N779 C781 1.356 . S
N779 H784 0.984 . S
N779 H785 0.985 . S
C780 C774 1.379 . S
C780 C777 1.363 . S
C780 N778 1.356 . S
C781 C775 1.363 . S
C781 C776 1.379 . S
C781 N779 1.356 . S
N782 C774 1.356 . S
N782 H788 0.984 . S
N782 H789 0.984 . S
N783 C776 1.356 . S
N783 H786 0.984 . S
N783 H787 0.985 . S
H784 N779 0.984 . S
H785 N779 0.985 . S
H786 N783 0.984 . S
H787 N783 0.985 . S
H788 N782 0.984 . S
H789 N782 0.984 . S
H790 N778 0.984 . S
H791 N778 0.985 . S
C792 C793 1.363 . S
C792 C798 1.379 . S
C792 N800 1.356 . S
C793 C792 1.363 . S
C793 C799 1.363 . S
C794 C795 1.363 . S
C794 C799 1.379 . S
C794 N801 1.356 . S
C795 C794 1.363 . S
C795 C798 1.363 . S
N796 C798 1.356 . S
N796 H808 0.984 . S
N796 H809 0.985 . S
N797 C799 1.356 . S
N797 H802 0.984 . S
N797 H803 0.985 . S
C798 C792 1.379 . S
C798 C795 1.363 . S
C798 N796 1.356 . S
C799 C793 1.363 . S
C799 C794 1.379 . S
C799 N797 1.356 . S
N800 C792 1.356 . S
N800 H806 0.984 . S
N800 H807 0.984 . S
N801 C794 1.356 . S
N801 H804 0.984 . S
N801 H805 0.985 . S
H802 N797 0.984 . S
H803 N797 0.985 . S
H804 N801 0.984 . S
H805 N801 0.985 . S
H806 N800 0.984 . S
H807 N800 0.984 . S
H808 N796 0.984 . S
H809 N796 0.985 . S
C810 C811 1.363 . S
C810 C816 1.379 . S
C810 N818 1.356 . S
C811 C810 1.363 . S
C811 C817 1.363 . S
C812 C813 1.363 . S
C812 C817 1.379 . S
C812 N819 1.356 . S
C813 C812 1.363 . S
C813 C816 1.363 . S
N814 C816 1.356 . S
N814 H826 0.984 . S
N814 H827 0.985 . S
N815 C817 1.356 . S
N815 H820 0.984 . S
N815 H821 0.985 . S
C816 C810 1.379 . S
C816 C813 1.363 . S
C816 N814 1.356 . S
C817 C811 1.363 . S
C817 C812 1.379 . S
C817 N815 1.356 . S
N818 C810 1.356 . S
N818 H824 0.984 . S
N818 H825 0.984 . S
N819 C812 1.356 . S
N819 H822 0.984 . S
N819 H823 0.985 . S
H820 N815 0.984 . S
H821 N815 0.985 . S
H822 N819 0.984 . S
H823 N819 0.985 . S
H824 N818 0.984 . S
H825 N818 0.984 . S
H826 N814 0.984 . S
H827 N814 0.985 . S
C828 C829 1.363 . S
C828 C834 1.379 . S
C828 N836 1.356 . S
C829 C828 1.363 . S
C829 C835 1.363 . S
C830 C831 1.363 . S
C830 C835 1.379 . S
C830 N837 1.356 . S
C831 C830 1.363 . S
C831 C834 1.363 . S
N832 C834 1.356 . S
N832 H844 0.984 . S
N832 H845 0.985 . S
N833 C835 1.356 . S
N833 H838 0.984 . S
N833 H839 0.985 . S
C834 C828 1.379 . S
C834 C831 1.363 . S
C834 N832 1.356 . S
C835 C829 1.363 . S
C835 C830 1.379 . S
C835 N833 1.356 . S
N836 C828 1.356 . S
N836 H842 0.984 . S
N836 H843 0.984 . S
N837 C830 1.356 . S
N837 H840 0.984 . S
N837 H841 0.985 . S
H838 N833 0.984 . S
H839 N833 0.985 . S
H840 N837 0.984 . S
H841 N837 0.985 . S
H842 N836 0.984 . S
H843 N836 0.984 . S
H844 N832 0.984 . S
H845 N832 0.985 . S
C846 C847 1.363 . S
C846 C852 1.379 . S
C846 N854 1.356 . S
C847 C846 1.363 . S
C847 C853 1.363 . S
C848 C849 1.363 . S
C848 C853 1.379 . S
C848 N855 1.356 . S
C849 C848 1.363 . S
C849 C852 1.363 . S
N850 C852 1.356 . S
N850 H862 0.984 . S
N850 H863 0.985 . S
N851 C853 1.356 . S
N851 H856 0.984 . S
N851 H857 0.985 . S
C852 C846 1.379 . S
C852 C849 1.363 . S
C852 N850 1.356 . S
C853 C847 1.363 . S
C853 C848 1.379 . S
C853 N851 1.356 . S
N854 C846 1.356 . S
N854 H860 0.984 . S
N854 H861 0.984 . S
N855 C848 1.356 . S
N855 H858 0.984 . S
N855 H859 0.985 . S
H856 N851 0.984 . S
H857 N851 0.985 . S
H858 N855 0.984 . S
H859 N855 0.985 . S
H860 N854 0.984 . S
H861 N854 0.984 . S
H862 N850 0.984 . S
H863 N850 0.985 . S
C433 C81 1.677 . S
C435 C152 1.665 1_565 S
C453 C236 1.665 . S
C451 C93 1.677 . S
C471 C235 1.665 . S
C469 C57 1.675 . S
C487 C69 1.675 . S
C489 C151 1.665 1_565 S
C507 C332 1.665 1_545 S
C505 C33 1.671 . S
C525 C416 1.665 . S
C523 C45 1.671 . S
C541 C9 1.668 . S
C543 C415 1.665 . S
C559 C21 1.668 . S
C561 C331 1.665 1_545 S
C579 C154 1.443 . S
C577 C18 1.604 . S
C597 C238 1.443 . S
C595 C6 1.604 . S
C615 C250 1.364 . S
C613 C42 1.603 . S
C633 C166 1.364 . S
C631 C30 1.603 . S
C651 C334 1.443 . S
C649 C66 1.612 . S
C667 C54 1.612 . S
C669 C418 1.443 . S
C687 C406 1.364 . S
C685 C90 1.609 . S
C703 C78 1.609 . S
C705 C322 1.364 . S
C723 C163 1.523 . S
C721 C4 1.505 . S
C741 C247 1.523 . S
C739 C16 1.505 . S
C757 C28 1.500 . S
C759 C248 1.490 . S
C777 C164 1.490 . S
C775 C40 1.500 . S
C795 C319 1.523 . S
C793 C52 1.498 . S
C811 C64 1.498 . S
C813 C403 1.523 . S
C829 C76 1.494 . S
C831 C404 1.490 . S
C847 C88 1.494 . S
C849 C320 1.490 . S
