# Generated by pormake.
# Topology zzz, (3,6)-cn, num edge types: 1
# Building blocks:
#     Node 0, Type 0, BuildingBlock: BETDAH_clean_linker_0, # of connection points: 3
#     Node 1, Type 0, BuildingBlock: BETDAH_clean_linker_0, # of connection points: 3
#     Node 2, Type 0, BuildingBlock: BETDAH_clean_linker_0, # of connection points: 3
#     Node 3, Type 0, BuildingBlock: BETDAH_clean_linker_0, # of connection points: 3
#     Node 4, Type 0, BuildingBlock: BETDAH_clean_linker_0, # of connection points: 3
#     Node 5, Type 0, BuildingBlock: BETDAH_clean_linker_0, # of connection points: 3
#     Node 6, Type 0, BuildingBlock: BETDAH_clean_linker_0, # of connection points: 3
#     Node 7, Type 0, BuildingBlock: BETDAH_clean_linker_0, # of connection points: 3
#     Node 8, Type 1, BuildingBlock: KUMBOL_clean_sbu_0, # of connection points: 6
#     Node 9, Type 1, BuildingBlock: KUMBOL_clean_sbu_0, # of connection points: 6
#     Node 10, Type 1, BuildingBlock: KUMBOL_clean_sbu_0, # of connection points: 6
#     Node 11, Type 1, BuildingBlock: KUMBOL_clean_sbu_0, # of connection points: 6
#     Edge 12, Type (0, 1), BuildingBlock: UVAHIK_clean_linker_0, # of connection points: 2
#     Edge 13, Type (0, 1), BuildingBlock: UVAHIK_clean_linker_0, # of connection points: 2
#     Edge 14, Type (0, 1), BuildingBlock: UVAHIK_clean_linker_0, # of connection points: 2
#     Edge 15, Type (0, 1), BuildingBlock: UVAHIK_clean_linker_0, # of connection points: 2
#     Edge 16, Type (0, 1), BuildingBlock: UVAHIK_clean_linker_0, # of connection points: 2
#     Edge 17, Type (0, 1), BuildingBlock: UVAHIK_clean_linker_0, # of connection points: 2
#     Edge 18, Type (0, 1), BuildingBlock: UVAHIK_clean_linker_0, # of connection points: 2
#     Edge 19, Type (0, 1), BuildingBlock: UVAHIK_clean_linker_0, # of connection points: 2
#     Edge 20, Type (0, 1), BuildingBlock: UVAHIK_clean_linker_0, # of connection points: 2
#     Edge 21, Type (0, 1), BuildingBlock: UVAHIK_clean_linker_0, # of connection points: 2
#     Edge 22, Type (0, 1), BuildingBlock: UVAHIK_clean_linker_0, # of connection points: 2
#     Edge 23, Type (0, 1), BuildingBlock: UVAHIK_clean_linker_0, # of connection points: 2
#     Edge 24, Type (0, 1), BuildingBlock: UVAHIK_clean_linker_0, # of connection points: 2
#     Edge 25, Type (0, 1), BuildingBlock: UVAHIK_clean_linker_0, # of connection points: 2
#     Edge 26, Type (0, 1), BuildingBlock: UVAHIK_clean_linker_0, # of connection points: 2
#     Edge 27, Type (0, 1), BuildingBlock: UVAHIK_clean_linker_0, # of connection points: 2
#     Edge 28, Type (0, 1), BuildingBlock: UVAHIK_clean_linker_0, # of connection points: 2
#     Edge 29, Type (0, 1), BuildingBlock: UVAHIK_clean_linker_0, # of connection points: 2
#     Edge 30, Type (0, 1), BuildingBlock: UVAHIK_clean_linker_0, # of connection points: 2
#     Edge 31, Type (0, 1), BuildingBlock: UVAHIK_clean_linker_0, # of connection points: 2
#     Edge 32, Type (0, 1), BuildingBlock: UVAHIK_clean_linker_0, # of connection points: 2
#     Edge 33, Type (0, 1), BuildingBlock: UVAHIK_clean_linker_0, # of connection points: 2
#     Edge 34, Type (0, 1), BuildingBlock: UVAHIK_clean_linker_0, # of connection points: 2
#     Edge 35, Type (0, 1), BuildingBlock: UVAHIK_clean_linker_0, # of connection points: 2
# Relax obj value: 0.147
# Max RMSD: 0.152
# Mean RMSD: 0.113
data_MOF--net-zzz--node1-KUMBOL_clean_sbu_0--node2-BETDAH_clean_linker_0--edge1-UVAHIK_clean_linker_0
_symmetry_space_group_name_H-M    P1
_symmetry_Int_Tables_number       1
_symmetry_cell_setting            triclinic
loop_
_symmetry_equiv_pos_as_xyz
'x, y, z'
_cell_length_a     65.52527
_cell_length_b     65.518124
_cell_length_c     19.071881
_cell_angle_alpha  90.761577
_cell_angle_beta   90.06819
_cell_angle_gamma 89.993934
loop_
_atom_site_label
_atom_site_type_symbol
_atom_site_fract_x
_atom_site_fract_y
_atom_site_fract_z
_atom_type_partial_charge
H0 H 0.80374 0.54738 0.1486 0.0
H1 H 0.74249 0.53749 0.07536 0.0
H2 H 0.75767 0.52703 0.29201 0.0
C3 C 0.78796 0.54356 0.15943 0.0
C4 C 0.7825 0.53766 0.22735 0.0
C5 C 0.77369 0.54336 0.10436 0.0
C6 C 0.75347 0.53758 0.11785 0.0
C7 C 0.74751 0.53182 0.18564 0.0
C8 C 0.76217 0.53168 0.23996 0.0
N9 N 0.72703 0.52592 0.20048 0.0
C10 C 0.71127 0.5252 0.15101 0.0
H11 H 0.97721 0.81521 0.14775 0.0
H12 H 0.98844 0.75547 0.06077 0.0
H13 H 0.00934 0.77072 0.26958 0.0
C14 C 0.98293 0.79981 0.15403 0.0
C15 C 0.99308 0.79475 0.21627 0.0
C16 C 0.98141 0.78583 0.09773 0.0
C17 C 0.98957 0.76615 0.10443 0.0
C18 C 0.99944 0.76043 0.16669 0.0
C19 C 1.00141 0.77493 0.22204 0.0
N20 N 1.0078 0.74045 0.17473 0.0
C21 C 1.00706 0.72463 0.1245 0.0
H22 H 0.71477 0.98256 0.1781 0.0
H23 H 0.77665 0.98057 0.10277 0.0
H24 H 0.76404 0.99793 0.31719 0.0
C25 C 0.73104 0.98383 0.18746 0.0
C26 C 0.73774 0.98996 0.2542 0.0
C27 C 0.74489 0.98062 0.13209 0.0
C28 C 0.76588 0.98324 0.14489 0.0
C29 C 0.77294 0.98945 0.21162 0.0
C30 C 0.75873 0.9929 0.26597 0.0
N31 N 0.7941 0.99267 0.22537 0.0
C32 C 0.80957 0.99103 0.17523 0.0
H33 H 0.54966 0.72734 0.19317 0.0
H34 H 0.54194 0.78874 0.12176 0.0
H35 H 0.53511 0.77515 0.34122 0.0
C36 C 0.54695 0.74338 0.20457 0.0
C37 C 0.54276 0.74953 0.27373 0.0
C38 C 0.54646 0.75738 0.14949 0.0
C39 C 0.54228 0.77799 0.16435 0.0
C40 C 0.53845 0.7846 0.23368 0.0
C41 C 0.53838 0.7702 0.28797 0.0
N42 N 0.53447 0.80549 0.25018 0.0
C43 C 0.53481 0.82113 0.20119 0.0
H44 H 0.22742 0.48163 0.06448 0.0
H45 H 0.28755 0.49369 0.14335 0.0
H46 H 0.27314 0.50611 0.92713 0.0
C47 C 0.243 0.48641 0.05481 0.0
C48 C 0.24846 0.4936 0.98844 0.0
C49 C 0.257 0.48659 0.11042 0.0
C50 C 0.27696 0.49346 0.09968 0.0
C51 C 0.28305 0.50019 0.03313 0.0
C52 C 0.26862 0.50053 0.97802 0.0
N53 N 0.30338 0.50696 0.02042 0.0
C54 C 0.31897 0.50723 0.07055 0.0
H55 H 0.05116 0.2247 0.0749 0.0
H56 H 0.03965 0.28533 0.15261 0.0
H57 H 0.01728 0.26686 0.94858 0.0
C58 C 0.04523 0.23992 0.0662 0.0
C59 C 0.03441 0.24391 1.00436 0.0
C60 C 0.0469 0.25471 0.11981 0.0
C61 C 0.03847 0.27413 0.11051 0.0
C62 C 0.02808 0.27885 0.04831 0.0
C63 C 0.02578 0.26352 0.9958 0.0
N64 N 0.01935 0.29858 0.03816 0.0
C65 C 0.02028 0.31484 0.08665 0.0
H66 H 0.31718 0.05754 0.06305 0.0
H67 H 0.25828 0.04844 0.15691 0.0
H68 H 0.26998 0.0269 0.94608 0.0
C69 C 0.30147 0.05242 0.05885 0.0
C70 C 0.2951 0.04238 0.99734 0.0
C71 C 0.2884 0.05443 0.11691 0.0
C72 C 0.26832 0.04697 0.11205 0.0
C73 C 0.26144 0.03733 0.04991 0.0
C74 C 0.27504 0.0348 0.99327 0.0
N75 N 0.24119 0.02961 0.04307 0.0
C76 C 0.22604 0.0312 0.09429 0.0
H77 H 0.46921 0.30521 0.04217 0.0
H78 H 0.47934 0.24495 0.11996 0.0
H79 H 0.49096 0.25793 0.90239 0.0
C80 C 0.47325 0.28937 0.03214 0.0
C81 C 0.47985 0.28332 0.96512 0.0
C82 C 0.47321 0.27564 0.08783 0.0
C83 C 0.4792 0.25535 0.07633 0.0
C84 C 0.48522 0.24872 0.00891 0.0
C85 C 0.48584 0.26288 0.9539 0.0
N86 N 0.49106 0.22812 0.99494 0.0
C87 C 0.49067 0.21254 0.04411 0.0
Gd88 Gd 0.99995 0.01869 0.56006 0.0
Gd89 Gd 0.03368 0.01172 0.71248 0.0
C90 C 0.03556 0.0685 0.85806 0.0
C91 C 0.06989 0.08114 0.83955 0.0
C92 C 0.05827 0.05016 0.77958 0.0
C93 C 0.0394 0.05207 0.81093 0.0
C94 C 0.07393 0.06436 0.79523 0.0
C95 C 0.05074 0.08319 0.87097 0.0
C96 C 0.01662 0.0697 0.89115 0.0
C97 C 1.00218 0.05457 0.87818 0.0
N98 N 0.02489 0.03781 0.79617 0.0
C99 C 1.00659 0.03868 0.83099 0.0
H100 H 0.99483 0.0276 0.82268 0.0
C101 C 0.08131 0.02935 0.71671 0.0
N102 N 0.06172 0.03377 0.73709 0.0
C103 C 0.09725 0.04303 0.72995 0.0
C104 C 0.09344 0.06089 0.76807 0.0
H105 H 0.08472 0.01512 0.69018 0.0
H106 H 0.0479 0.09603 0.90606 0.0
H107 H 0.03309 0.99085 0.45067 0.0
H108 H 0.01307 0.0821 0.92729 0.0
H109 H 0.98751 0.0552 0.90413 0.0
H110 H 0.08164 0.09231 0.85132 0.0
H111 H 0.95117 0.0307 0.58839 0.0
H112 H 0.99832 0.94623 0.34129 0.0
H113 H 0.03119 0.96289 0.36778 0.0
H114 H 0.92965 0.95942 0.41095 0.0
H115 H 0.11251 0.03962 0.71159 0.0
H116 H 0.10584 0.07141 0.77891 0.0
H117 H 0.96071 0.94478 0.35876 0.0
H118 H 0.91685 0.01766 0.55876 0.0
N119 N 1.00098 0.99142 0.47501 0.0
C120 C 0.99884 0.95893 0.37823 0.0
C121 C 0.01738 0.96834 0.3929 0.0
C122 C 0.98114 0.96622 0.41047 0.0
C123 C 0.98263 0.98277 0.45868 0.0
C124 C 0.01821 0.98465 0.44074 0.0
N125 N 0.96682 1.00716 0.5323 0.0
C126 C 0.9651 0.99082 0.48846 0.0
C127 C 0.93027 0.00987 0.53896 0.0
C128 C 0.92826 0.99238 0.49711 0.0
C129 C 0.94972 0.0172 0.55556 0.0
C130 C 0.94574 0.98281 0.4704 0.0
H131 H 0.91316 0.9867 0.4843 0.0
O132 O 0.98193 0.03757 0.49022 0.0
O133 O 0.01704 0.03428 0.64727 0.0
O134 O 1.0014 1.00251 0.74263 0.0
O135 O 0.97974 1.00617 0.64608 0.0
O136 O 0.98669 0.0422 0.63453 0.0
O137 O 0.014 0.04353 0.50296 0.0
O138 O 0.05815 0.99486 0.76171 0.0
O139 O 0.01575 0.99627 0.62753 0.0
O140 O 0.03252 0.01833 0.52136 0.0
O141 O 0.05375 0.01959 0.61992 0.0
O142 O 0.04426 0.98442 0.64763 0.0
O143 O 0.02749 0.99299 0.80311 0.0
C144 C 1.00329 0.04654 0.66782 0.0
C145 C 0.94436 0.9659 0.42477 0.0
C146 C 0.96202 0.9576 0.39496 0.0
C147 C 0.99657 0.05066 0.48196 0.0
C148 C 0.99231 0.0721 0.50202 0.0
C149 C 0.97422 0.07759 0.53725 0.0
C150 C 1.00735 0.08698 0.49153 0.0
C151 C 1.00459 0.10709 0.51651 0.0
C152 C 0.97151 0.09745 0.56289 0.0
C153 C 0.98662 0.11213 0.55297 0.0
C154 C 0.98314 1.00153 0.71255 0.0
C155 C 0.02787 0.98198 0.61099 0.0
C156 C 0.04591 0.98547 0.80397 0.0
C157 C 0.04791 0.96315 0.80351 0.0
C158 C 0.06572 0.95445 0.83063 0.0
C159 C 0.03281 0.95051 0.77333 0.0
C160 C 0.03519 0.92915 0.77228 0.0
C161 C 0.06841 0.93336 0.82845 0.0
C162 C 0.05327 0.92078 0.80004 0.0
C163 C 0.05068 0.02006 0.55134 0.0
H164 H 0.96234 0.06647 0.54655 0.0
H165 H 0.02138 0.0828 0.46493 0.0
H166 H 0.95766 0.10148 0.59063 0.0
H167 H 0.98401 0.12753 0.57223 0.0
H168 H 0.07759 0.964 0.8532 0.0
H169 H 0.01924 0.95731 0.75102 0.0
H170 H 0.08216 0.92671 0.84988 0.0
H171 H 0.05551 0.90443 0.80223 0.0
Gd172 Gd 0.51477 0.99441 0.5473 0.0
Gd173 Gd 0.51418 0.03517 0.68206 0.0
C174 C 0.45762 0.05851 0.79974 0.0
C175 C 0.45489 0.09322 0.75773 0.0
C176 C 0.48236 0.0711 0.71661 0.0
C177 C 0.47505 0.05535 0.75729 0.0
C178 C 0.47259 0.09032 0.71749 0.0
C179 C 0.44744 0.07736 0.79883 0.0
C180 C 0.45103 0.04274 0.84273 0.0
C181 C 0.4618 0.02445 0.84331 0.0
N182 N 0.4852 0.0372 0.75692 0.0
C183 C 0.47895 0.02199 0.80055 0.0
H184 H 0.48645 1.00752 0.80205 0.0
C185 C 0.50868 0.08385 0.64458 0.0
N186 N 0.49958 0.06798 0.67866 0.0
C187 C 0.49949 0.10308 0.64358 0.0
C188 C 0.4812 0.10627 0.67943 0.0
H189 H 0.52285 0.08149 0.61672 0.0
H190 H 0.43397 0.07994 0.83066 0.0
H191 H 0.54081 0.02144 0.42515 0.0
H192 H 0.43776 0.04458 0.87607 0.0
H193 H 0.45684 0.01214 0.87649 0.0
H194 H 0.44711 0.10781 0.75862 0.0
H195 H 0.50732 0.94824 0.6152 0.0
H196 H 0.59303 0.98712 0.36249 0.0
H197 H 0.57168 0.01807 0.35439 0.0
H198 H 0.58578 0.92437 0.4856 0.0
H199 H 0.50651 0.11542 0.61514 0.0
H200 H 0.47413 0.12122 0.67881 0.0
H201 H 0.59834 0.95236 0.41253 0.0
H202 H 0.525 0.91496 0.62136 0.0
N203 N 0.54424 0.99277 0.47562 0.0
C204 C 0.57931 0.98844 0.39388 0.0
C205 C 0.56729 1.00591 0.38912 0.0
C206 C 0.57328 0.97272 0.43814 0.0
C207 C 0.55535 0.97528 0.47839 0.0
C208 C 0.54961 1.00772 0.42975 0.0
N209 N 0.5307 0.96225 0.5553 0.0
C210 C 0.54841 0.95959 0.51977 0.0
C211 C 0.53182 0.9274 0.5929 0.0
C212 C 0.55066 0.9248 0.55993 0.0
C213 C 0.52185 0.94622 0.58922 0.0
C214 C 0.55903 0.94086 0.52179 0.0
H215 H 0.55835 0.91019 0.56273 0.0
O216 O 0.49657 0.97042 0.49983 0.0
O217 O 0.49564 0.0141 0.6166 0.0
O218 O 0.51422 1.00377 0.732 0.0
O219 O 0.52952 0.98305 0.64699 0.0
O220 O 0.48682 0.98409 0.60822 0.0
O221 O 0.49997 0.99929 0.44676 0.0
O222 O 0.52877 0.05859 0.74617 0.0
O223 O 0.53325 0.01638 0.60978 0.0
O224 O 0.51216 0.02553 0.49571 0.0
O225 O 0.49989 0.04752 0.58311 0.0
O226 O 0.54015 0.04699 0.61511 0.0
O227 O 0.53685 0.02705 0.76046 0.0
C228 C 0.48216 1.00161 0.63492 0.0
C229 C 0.5773 0.93856 0.48413 0.0
C230 C 0.58443 0.95447 0.44244 0.0
C231 C 0.49046 0.9818 0.44863 0.0
C232 C 0.46831 0.98181 0.43752 0.0
C233 C 0.45932 0.96442 0.40716 0.0
C234 C 0.45592 0.99803 0.46136 0.0
C235 C 0.43456 0.99687 0.45427 0.0
C236 C 0.4382 0.96312 0.40041 0.0
C237 C 0.42589 0.97919 0.42359 0.0
C238 C 0.52385 0.98678 0.71256 0.0
C239 C 0.54564 0.02966 0.58876 0.0
C240 C 0.54206 0.04598 0.77167 0.0
C241 C 0.56376 0.0514 0.76082 0.0
C242 C 0.56942 0.07201 0.75552 0.0
C243 C 0.57876 0.03618 0.75174 0.0
C244 C 0.5992 0.04145 0.73789 0.0
C245 C 0.58952 0.07732 0.74054 0.0
C246 C 0.60432 0.06222 0.73185 0.0
C247 C 0.50368 0.04299 0.51651 0.0
H248 H 0.46866 0.95172 0.38939 0.0
H249 H 0.46285 0.01138 0.48566 0.0
H250 H 0.43135 0.94967 0.37671 0.0
H251 H 0.40957 0.97796 0.4155 0.0
H252 H 0.55823 0.08406 0.76214 0.0
H253 H 0.57455 0.02024 0.75508 0.0
H254 H 0.5937 0.09324 0.73642 0.0
H255 H 0.61993 0.06691 0.7228 0.0
Gd256 Gd 0.49096 0.52168 0.6771 0.0
Gd257 Gd 0.53519 0.51077 0.56245 0.0
C258 C 0.60206 0.51132 0.63298 0.0
C259 C 0.61555 0.54045 0.5706 0.0
C260 C 0.58007 0.53036 0.55569 0.0
C261 C 0.58275 0.51469 0.6023 0.0
C262 C 0.59652 0.54319 0.53807 0.0
C263 C 0.61831 0.52454 0.61804 0.0
C264 C 0.60456 0.49453 0.67663 0.0
C265 C 0.58822 0.48129 0.68703 0.0
N266 N 0.56669 0.50226 0.61554 0.0
C267 C 0.56939 0.48526 0.65534 0.0
H268 H 0.55703 0.47488 0.66486 0.0
C269 C 0.55875 0.54631 0.47285 0.0
N270 N 0.56155 0.53248 0.52512 0.0
C271 C 0.57455 0.55943 0.45365 0.0
C272 C 0.59347 0.55805 0.48705 0.0
H273 H 0.54408 0.54762 0.4474 0.0
H274 H 0.63317 0.52232 0.64171 0.0
H275 H 0.46886 0.55669 0.5734 0.0
H276 H 0.6191 0.49145 0.70148 0.0
H277 H 0.59005 0.46807 0.71991 0.0
H278 H 0.62832 0.55027 0.55829 0.0
H279 H 0.48239 0.48538 0.7946 0.0
H280 H 0.40761 0.53791 0.53085 0.0
H281 H 0.43593 0.56237 0.51512 0.0
H282 H 0.39922 0.47926 0.67558 0.0
H283 H 0.5721 0.57067 0.41341 0.0
H284 H 0.6057 0.56822 0.47209 0.0
H285 H 0.39413 0.50665 0.59016 0.0
H286 H 0.45473 0.46177 0.82817 0.0
N287 N 0.45972 0.52891 0.62097 0.0
C288 C 0.42207 0.53534 0.5569 0.0
C289 C 0.438 0.5492 0.54803 0.0
C290 C 0.42483 0.51865 0.60092 0.0
C291 C 0.44401 0.51596 0.63319 0.0
C292 C 0.45672 0.54588 0.58136 0.0
N293 N 0.46517 0.4992 0.71341 0.0
C294 C 0.44684 0.50058 0.68096 0.0
C295 C 0.45232 0.47256 0.78648 0.0
C296 C 0.43369 0.47306 0.7509 0.0
C297 C 0.46792 0.48598 0.76754 0.0
C298 C 0.43063 0.4874 0.69814 0.0
H299 H 0.42163 0.46266 0.76565 0.0
O300 O 0.48704 0.528 0.78791 0.0
O301 O 0.52463 0.51975 0.66827 0.0
O302 O 0.52442 0.48262 0.62149 0.0
O303 O 0.49004 0.48823 0.64633 0.0
O304 O 0.51236 0.50887 0.75966 0.0
O305 O 0.48295 0.55223 0.71267 0.0
O306 O 0.53907 0.50471 0.45131 0.0
O307 O 0.50151 0.51309 0.57078 0.0
O308 O 0.50209 0.55026 0.62095 0.0
O309 O 0.53629 0.54412 0.59422 0.0
O310 O 0.51427 0.52514 0.482 0.0
O311 O 0.53938 0.47964 0.52425 0.0
C312 C 0.52913 0.5123 0.7268 0.0
C313 C 0.41179 0.48937 0.66369 0.0
C314 C 0.4089 0.50497 0.61508 0.0
C315 C 0.48559 0.54763 0.77849 0.0
C316 C 0.49993 0.56049 0.81952 0.0
C317 C 0.50733 0.5536 0.88424 0.0
C318 C 0.50677 0.57937 0.79395 0.0
C319 C 0.52083 0.59126 0.83253 0.0
C320 C 0.5214 0.56518 0.92234 0.0
C321 C 0.52808 0.58388 0.89699 0.0
C322 C 0.50587 0.47588 0.63721 0.0
C323 C 0.49732 0.5213 0.51318 0.0
C324 C 0.53698 0.48507 0.45912 0.0
C325 C 0.51986 0.47538 0.42035 0.0
C326 C 0.50926 0.48628 0.3686 0.0
C327 C 0.51277 0.45592 0.43909 0.0
C328 C 0.49509 0.44764 0.40783 0.0
C329 C 0.49165 0.47823 0.338 0.0
C330 C 0.48453 0.4591 0.35755 0.0
C331 C 0.52068 0.5567 0.60423 0.0
H332 H 0.5023 0.53918 0.90537 0.0
H333 H 0.50123 0.58479 0.74402 0.0
H334 H 0.52699 0.55976 0.97217 0.0
H335 H 0.53848 0.5928 0.92916 0.0
H336 H 0.51425 0.50129 0.35279 0.0
H337 H 0.52076 0.44735 0.47886 0.0
H338 H 0.48346 0.48687 0.29898 0.0
H339 H 0.47105 0.45304 0.33177 0.0
Gd340 Gd 0.00948 0.49703 0.67371 0.0
Gd341 Gd 0.0206 0.53904 0.55339 0.0
C342 C 0.01822 0.60706 0.61244 0.0
C343 C 0.98981 0.61895 0.54191 0.0
C344 C 1.00057 0.58345 0.53504 0.0
C345 C 0.01551 0.58719 0.58439 0.0
C346 C 0.98783 0.59936 0.51187 0.0
C347 C 1.00498 0.62279 0.59221 0.0
C348 C 0.03445 0.61063 0.65861 0.0
C349 C 0.04784 0.59476 0.6739 0.0
N350 N 0.028 0.57161 0.60256 0.0
C351 C 0.04454 0.57535 0.64461 0.0
H352 H 0.05502 0.5634 0.65788 0.0
C353 C 0.98631 0.56053 0.45189 0.0
N354 N 0.99919 0.56442 0.50696 0.0
C355 C 0.97333 0.57578 0.42709 0.0
C356 C 0.97388 0.59523 0.4579 0.0
H357 H 0.98561 0.54546 0.42838 0.0
H358 H 1.00667 0.63808 0.61384 0.0
H359 H 0.97576 0.47203 0.56975 0.0
H360 H 0.03701 0.62564 0.68155 0.0
H361 H 0.06067 0.59742 0.70865 0.0
H362 H 0.98003 0.63133 0.52538 0.0
H363 H 0.04493 0.49161 0.79811 0.0
H364 H 0.99603 0.4105 0.54246 0.0
H365 H 0.97119 0.43788 0.51755 0.0
H366 H 0.05356 0.40636 0.69698 0.0
H367 H 0.96283 0.57249 0.38457 0.0
H368 H 0.96383 0.60703 0.43862 0.0
H369 H 0.02702 0.39896 0.60875 0.0
H370 H 0.06871 0.46521 0.84061 0.0
N371 N 1.00332 0.46454 0.62299 0.0
C372 C 0.99812 0.42552 0.56584 0.0
C373 C 0.98405 0.44092 0.5518 0.0
C374 C 0.01438 0.42954 0.61154 0.0
C375 C 0.01645 0.4494 0.64023 0.0
C376 C 0.98673 0.46035 0.58173 0.0
N377 N 0.03212 0.47251 0.71846 0.0
C378 C 0.03135 0.45352 0.68957 0.0
C379 C 0.05834 0.46173 0.7979 0.0
C380 C 0.05848 0.44241 0.76607 0.0
C381 C 0.04482 0.47662 0.77388 0.0
C382 C 0.04466 0.43799 0.71194 0.0
H383 H 0.06896 0.4309 0.78477 0.0
O384 O 1.00237 0.49519 0.78425 0.0
O385 O 0.01056 0.53071 0.6599 0.0
O386 O 0.04838 0.52994 0.619 0.0
O387 O 0.04317 0.49595 0.64786 0.0
O388 O 0.02149 0.52006 0.75376 0.0
O389 O 0.97891 0.48884 0.70654 0.0
O390 O 0.028 0.54085 0.44291 0.0
O391 O 0.01885 0.5054 0.56653 0.0
O392 O 0.9812 0.50623 0.61108 0.0
O393 O 0.98667 0.53981 0.57653 0.0
O394 O 1.00723 0.51656 0.47442 0.0
O395 O 0.05207 0.5432 0.52048 0.0
C396 C 0.01772 0.53625 0.71858 0.0
C397 C 0.04333 0.41845 0.68109 0.0
C398 C 0.02822 0.41423 0.63088 0.0
C399 C 0.9829 0.49286 0.77239 0.0
C400 C 0.96932 0.50746 0.80917 0.0
C401 C 0.97462 0.51463 0.8765 0.0
C402 C 0.95134 0.51469 0.77738 0.0
C403 C 0.93864 0.52877 0.81268 0.0
C404 C 0.96231 0.5288 0.91133 0.0
C405 C 0.94443 0.53576 0.88005 0.0
C406 C 0.05533 0.51185 0.63881 0.0
C407 C 0.01105 0.50017 0.50845 0.0
C408 C 0.04753 0.53938 0.45494 0.0
C409 C 0.05806 0.52175 0.42171 0.0
C410 C 0.04796 0.50959 0.37106 0.0
C411 C 0.07757 0.51584 0.4448 0.0
C412 C 0.08675 0.49788 0.41869 0.0
C413 C 0.05689 0.49168 0.34563 0.0
C414 C 0.0761 0.48579 0.36927 0.0
C415 C 0.97444 0.52405 0.5879 0.0
H416 H 0.98834 0.5093 0.90222 0.0
H417 H 0.94722 0.50936 0.72531 0.0
H418 H 0.96649 0.53419 0.96329 0.0
H419 H 0.93484 0.54613 0.90991 0.0
H420 H 0.03293 0.51363 0.35207 0.0
H421 H 0.08548 0.52504 0.48389 0.0
H422 H 0.04888 0.48232 0.30733 0.0
H423 H 0.08287 0.47207 0.34721 0.0
C424 C 0.19006 0.03937 0.1211 0.0
C425 C 0.20903 0.03184 0.14287 0.0
C426 C 0.17317 0.03886 0.16611 0.0
C427 C 0.15351 0.01222 0.32293 0.0
H428 H 0.1141 0.05636 0.32804 0.0
C429 C 0.08803 0.01487 0.52633 0.0
C430 C 0.06879 0.0219 0.50473 0.0
C431 C 0.10509 0.01648 0.4826 0.0
C432 C 0.12481 0.04377 0.32672 0.0
H433 H 0.22555 0.01812 0.22832 0.0
H434 H 0.19615 0.01738 0.30774 0.0
H435 H 0.14402 0.0588 0.2526 0.0
H436 H 0.05237 0.03576 0.41889 0.0
H437 H 0.08208 0.03837 0.34204 0.0
H438 H 0.13429 0.99713 0.3967 0.0
C439 C 0.19412 0.02348 0.2557 0.0
C440 C 0.14203 0.04519 0.28342 0.0
C441 C 0.21101 0.02402 0.21057 0.0
C442 C 0.06699 0.03032 0.43752 0.0
C443 C 0.08409 0.03196 0.39363 0.0
C444 C 0.1363 0.0108 0.36615 0.0
C445 C 0.1749 0.03074 0.23391 0.0
C446 C 0.15665 0.02943 0.2809 0.0
C447 C 0.10341 0.02505 0.41557 0.0
C448 C 0.12169 0.02656 0.36881 0.0
H449 H 0.18819 0.04533 0.06876 0.0
H450 H 0.15863 0.04435 0.14701 0.0
H451 H 0.16417 0.99959 0.32151 0.0
H452 H 0.08991 1.00765 0.57646 0.0
H453 H 0.11967 0.01108 0.50169 0.0
C454 C 0.50119 0.17739 0.07123 0.0
C455 C 0.49092 0.19531 0.091 0.0
C456 C 0.50154 0.16059 0.11582 0.0
C457 C 0.47506 0.13774 0.26833 0.0
H458 H 0.52519 0.10674 0.28493 0.0
C459 C 0.48751 0.07615 0.48094 0.0
C460 C 0.49939 0.05892 0.46346 0.0
C461 C 0.48531 0.09224 0.43389 0.0
C462 C 0.51095 0.11501 0.28026 0.0
H463 H 0.47284 0.20995 0.17204 0.0
H464 H 0.47359 0.18067 0.25084 0.0
H465 H 0.52393 0.13595 0.20759 0.0
H466 H 0.51693 0.04457 0.37999 0.0
H467 H 0.51287 0.07238 0.29781 0.0
H468 H 0.46213 0.11679 0.3414 0.0
C469 C 0.48122 0.17941 0.20062 0.0
C470 C 0.51023 0.13184 0.23583 0.0
C471 C 0.48089 0.19624 0.15585 0.0
C472 C 0.50801 0.05771 0.39606 0.0
C473 C 0.50579 0.07378 0.34893 0.0
C474 C 0.47577 0.12087 0.31282 0.0
C475 C 0.49161 0.16135 0.18129 0.0
C476 C 0.49228 0.14345 0.22913 0.0
C477 C 0.49477 0.09147 0.3677 0.0
C478 C 0.49373 0.10925 0.31937 0.0
H479 H 0.50893 0.17635 0.02112 0.0
H480 H 0.50942 0.14689 0.09855 0.0
H481 H 0.46088 0.14611 0.26385 0.0
H482 H 0.48013 0.07739 0.53155 0.0
H483 H 0.4767 0.10557 0.45038 0.0
C484 C 0.33911 0.49263 0.16827 0.0
C485 C 0.33592 0.50819 0.11965 0.0
C486 C 0.35582 0.49349 0.21445 0.0
C487 C 0.39396 0.52979 0.29102 0.0
H488 H 0.4249 0.48084 0.331 0.0
C489 C 0.47336 0.53347 0.42131 0.0
C490 C 0.47794 0.51932 0.47359 0.0
C491 C 0.45553 0.53156 0.38131 0.0
C492 C 0.41628 0.49461 0.32113 0.0
H493 H 0.34745 0.53674 0.08038 0.0
H494 H 0.37667 0.53829 0.16017 0.0
H495 H 0.39468 0.47866 0.25596 0.0
H496 H 0.46828 0.49115 0.52152 0.0
H497 H 0.43693 0.4878 0.45185 0.0
H498 H 0.41561 0.54576 0.35561 0.0
C499 C 0.36624 0.52553 0.1639 0.0
C500 C 0.39891 0.49338 0.27804 0.0
C501 C 0.34957 0.52462 0.11784 0.0
C502 C 0.46477 0.50265 0.48307 0.0
C503 C 0.44696 0.50061 0.44251 0.0
C504 C 0.41129 0.53102 0.33393 0.0
C505 C 0.36965 0.50998 0.21295 0.0
C506 C 0.38763 0.511 0.26165 0.0
C507 C 0.44198 0.5152 0.39158 0.0
C508 C 0.42286 0.51351 0.34892 0.0
H509 H 0.32872 0.47979 0.17049 0.0
H510 H 0.35778 0.48134 0.25181 0.0
H511 H 0.38546 0.54363 0.28107 0.0
H512 H 0.48352 0.54618 0.41182 0.0
H513 H 0.45248 0.54282 0.34159 0.0
C514 C 1.00525 0.34788 0.1241 0.0
C515 C 0.02012 0.33274 0.13294 0.0
C516 C 1.00515 0.36548 0.16684 0.0
C517 C 0.02485 0.38742 0.336 0.0
H518 H 0.01038 0.43867 0.24982 0.0
C519 C 0.0289 0.46649 0.48435 0.0
C520 C 0.0127 0.48005 0.47182 0.0
C521 C 0.03076 0.44824 0.44493 0.0
C522 C 0.01425 0.42449 0.27515 0.0
H523 H 0.04653 0.32395 0.19355 0.0
H524 H 0.04654 0.35479 0.26833 0.0
H525 H 0.01168 0.40764 0.17866 0.0
H526 H 0.98626 0.48551 0.40678 0.0
H527 H 0.98922 0.45384 0.3391 0.0
H528 H 0.02737 0.40449 0.43277 0.0
C529 C 0.03476 0.35305 0.22885 0.0
C530 C 0.01498 0.40659 0.23413 0.0
C531 C 0.03484 0.33541 0.18583 0.0
C532 C 0.99874 0.47522 0.41825 0.0
C533 C 1.00057 0.4571 0.37903 0.0
C534 C 0.02412 0.40541 0.37721 0.0
C535 C 0.01999 0.36847 0.21967 0.0
C536 C 0.02005 0.38769 0.26388 0.0
C537 C 0.01664 0.44333 0.39136 0.0
C538 C 0.01856 0.42419 0.3475 0.0
H539 H 0.99368 0.34614 0.08381 0.0
H540 H 0.99329 0.37671 0.15868 0.0
H541 H 0.02866 0.3732 0.36117 0.0
H542 H 0.04027 0.47011 0.52384 0.0
H543 H 0.04349 0.4382 0.45546 0.0
C544 C 0.84649 0.98728 0.1523 0.0
C545 C 0.82661 0.9899 0.12677 0.0
C546 C 0.86315 0.98679 0.10622 0.0
C547 C 0.87861 1.00204 0.92648 0.0
H548 H 0.92479 0.96653 0.96098 0.0
C549 C 0.94542 0.99536 0.72967 0.0
C550 C 0.9653 0.99607 0.75752 0.0
C551 C 0.92842 0.99291 0.77325 0.0
C552 C 0.9121 0.97666 0.95083 0.0
H553 H 0.80829 0.99392 0.03365 0.0
H554 H 0.83727 0.99278 0.95258 0.0
H555 H 0.8953 0.96565 0.03894 0.0
H556 H 0.98275 0.99302 0.85372 0.0
H557 H 0.95319 0.98879 0.9295 0.0
H558 H 0.89541 0.01306 0.83848 0.0
C559 C 0.84019 0.99137 0.0082 0.0
C560 C 0.89515 0.97619 0.99569 0.0
C561 C 0.82354 0.99188 0.05444 0.0
C562 C 0.96773 0.99292 0.83002 0.0
C563 C 0.95072 0.99037 0.87369 0.0
C564 C 0.89551 1.00245 0.88153 0.0
C565 C 0.86028 0.98891 0.03342 0.0
C566 C 0.87817 0.98895 0.98441 0.0
C567 C 0.93079 0.99082 0.84611 0.0
C568 C 0.91254 0.98983 0.89317 0.0
H569 H 0.8492 0.98583 0.20808 0.0
H570 H 0.87833 0.98519 0.12796 0.0
H571 H 0.86607 0.01238 0.91661 0.0
H572 H 0.94285 0.99702 0.67426 0.0
H573 H 0.91337 0.99279 0.74976 0.0
C574 C 0.54674 0.83668 0.09095 0.0
C575 C 0.53497 0.83783 0.15217 0.0
C576 C 0.54694 0.85297 0.04394 0.0
C577 C 0.53552 0.90846 0.03247 0.0
H578 H 0.53407 0.89767 0.83218 0.0
C579 C 0.51787 0.97142 0.83125 0.0
C580 C 0.52784 0.97084 0.76599 0.0
C581 C 0.52026 0.95556 0.87904 0.0
C582 C 0.53478 0.90099 0.8879 0.0
H583 H 0.51418 0.85655 0.213 0.0
H584 H 0.51429 0.88496 0.13095 0.0
H585 H 0.53504 0.86923 0.91336 0.0
H586 H 0.54962 0.95378 0.70288 0.0
H587 H 0.55363 0.92603 0.78577 0.0
H588 H 0.53512 0.94021 0.00709 0.0
C589 C 0.52361 0.8717 0.11919 0.0
C590 C 0.53532 0.88464 0.93456 0.0
C591 C 0.5234 0.85541 0.16599 0.0
C592 C 0.54108 0.95442 0.7514 0.0
C593 C 0.54343 0.93849 0.79912 0.0
C594 C 0.53499 0.9248 0.98585 0.0
C595 C 0.5354 0.87074 0.05748 0.0
C596 C 0.53552 0.88815 0.00754 0.0
C597 C 0.53283 0.93871 0.86326 0.0
C598 C 0.53444 0.9213 0.9129 0.0
H599 H 0.55587 0.82325 0.07954 0.0
H600 H 0.55638 0.85174 0.99749 0.0
H601 H 0.53608 0.91179 0.08821 0.0
H602 H 0.50782 0.98387 0.84524 0.0
H603 H 0.51175 0.95626 0.92766 0.0
C604 C 0.6801 0.50787 0.10794 0.0
C605 C 0.69415 0.52391 0.10273 0.0
C606 C 0.6632 0.50675 0.06289 0.0
C607 C 0.63079 0.53836 0.94635 0.0
H608 H 0.61178 0.48569 0.87824 0.0
C609 C 0.5628 0.52959 0.75053 0.0
C610 C 0.54909 0.51357 0.76319 0.0
C611 C 0.58116 0.53114 0.7883 0.0
C612 C 0.61675 0.50052 0.89728 0.0
H613 H 0.70184 0.55131 0.0467 0.0
H614 H 0.67239 0.54938 0.96721 0.0
H615 H 0.64253 0.48772 0.94998 0.0
H616 H 0.54327 0.48727 0.82749 0.0
H617 H 0.57522 0.48982 0.89319 0.0
H618 H 0.60487 0.55112 0.89385 0.0
C619 C 0.67421 0.53773 0.00646 0.0
C620 C 0.63443 0.5017 0.93856 0.0
C621 C 0.69114 0.5388 0.0516 0.0
C622 C 0.55379 0.49951 0.81565 0.0
C623 C 0.57216 0.50094 0.85301 0.0
C624 C 0.61308 0.53718 0.90497 0.0
C625 C 0.65994 0.52169 0.01153 0.0
C626 C 0.64161 0.52061 0.96446 0.0
C627 C 0.58615 0.51673 0.83982 0.0
C628 C 0.60566 0.51821 0.88057 0.0
H629 H 0.68209 0.49627 0.14734 0.0
H630 H 0.65247 0.49436 0.06933 0.0
H631 H 0.63566 0.55318 0.96583 0.0
H632 H 0.5593 0.54099 0.71175 0.0
H633 H 0.59155 0.54347 0.77648 0.0
C634 C 0.02265 0.69168 0.08927 0.0
C635 C 1.00776 0.70669 0.07838 0.0
C636 C 0.02316 0.6739 0.04748 0.0
C637 C 1.00477 0.65082 0.87824 0.0
H638 H 0.01839 0.60019 0.97005 0.0
C639 C 1.00073 0.57066 0.737 0.0
C640 C 0.01639 0.55676 0.75279 0.0
C641 C 0.99908 0.58934 0.77406 0.0
C642 C 0.01479 0.61418 0.9431 0.0
H643 H 0.9818 0.71508 0.01489 0.0
H644 H 0.98253 0.68391 0.94164 0.0
H645 H 0.01672 0.63171 0.03835 0.0
H646 H 0.04217 0.55129 0.82091 0.0
H647 H 0.03957 0.5837 0.88451 0.0
H648 H 1.00286 0.63307 0.78275 0.0
C649 C 0.994 0.6859 0.98208 0.0
C650 C 0.01384 0.63237 0.98251 0.0
C651 C 0.99349 0.70373 0.0242 0.0
C652 C 0.03008 0.56178 0.80704 0.0
C653 C 0.02846 0.58034 0.8439 0.0
C654 C 1.00574 0.63253 0.83863 0.0
C655 C 0.00874 0.67057 0.99353 0.0
C656 C 0.00903 0.65106 0.95079 0.0
C657 C 0.01287 0.59441 0.8285 0.0
C658 C 0.01097 0.61394 0.87039 0.0
H659 H 0.03387 0.69362 0.13061 0.0
H660 H 0.03499 0.66276 0.05738 0.0
H661 H 1.00117 0.66486 0.85158 0.0
H662 H 0.98962 0.56698 0.6967 0.0
H663 H 0.98674 0.59961 0.76104 0.0
C664 C 0.04114 0.24911 0.24645 0.0
C665 C 0.05449 0.24849 0.18919 0.0
C666 C 0.04559 0.23818 0.30677 0.0
C667 C 0.07421 0.1913 0.34646 0.0
H668 H 0.03918 0.19538 0.50939 0.0
C669 C 0.02818 0.1242 0.43335 0.0
C670 C 0.01991 0.12302 0.50092 0.0
C671 C 0.04082 0.14038 0.41548 0.0
C672 C 0.04955 0.19395 0.46548 0.0
H673 H 0.08406 0.23834 0.15255 0.0
H674 H 0.09262 0.22029 0.25983 0.0
H675 H 0.04811 0.22596 0.44652 0.0
H676 H 0.0193 0.13717 0.60405 0.0
H677 H 0.04195 0.16535 0.57361 0.0
H678 H 0.07604 0.15938 0.36643 0.0
C679 C 0.07819 0.22827 0.2573 0.0
C680 C 0.0544 0.21155 0.4284 0.0
C681 C 0.07344 0.23877 0.19605 0.0
C682 C 0.02538 0.13784 0.55143 0.0
C683 C 0.03831 0.15398 0.53383 0.0
C684 C 0.06991 0.17384 0.3848 0.0
C685 C 0.06371 0.22664 0.3116 0.0
C686 C 0.06528 0.21018 0.36486 0.0
C687 C 0.04575 0.15577 0.46495 0.0
C688 C 0.05609 0.17469 0.44105 0.0
H689 H 0.02637 0.25644 0.24214 0.0
H690 H 0.03384 0.23738 0.3464 0.0
H691 H 0.08294 0.18935 0.29874 0.0
H692 H 0.02399 0.1132 0.39292 0.0
H693 H 0.04568 0.14136 0.36142 0.0
C694 C 0.30971 0.07921 0.18631 0.0
C695 C 0.29694 0.06198 0.18449 0.0
C696 C 0.32226 0.08306 0.24428 0.0
C697 C 0.3599 0.07151 0.32422 0.0
H698 H 0.35203 0.05208 0.51325 0.0
C699 C 0.42653 0.03431 0.45157 0.0
C700 C 0.42116 0.0145 0.47208 0.0
C701 C 0.41161 0.04952 0.44721 0.0
C702 C 0.35454 0.05769 0.46081 0.0
H703 H 0.28567 0.03655 0.2446 0.0
H704 H 0.30776 0.04296 0.34503 0.0
H705 H 0.3225 0.06209 0.44335 0.0
H706 H 0.39706 0.99625 0.51723 0.0
H707 H 0.37095 0.0221 0.50607 0.0
H708 H 0.39149 0.06558 0.33819 0.0
C709 C 0.308 0.05372 0.30242 0.0
C710 C 0.33759 0.06347 0.42084 0.0
C711 C 0.29533 0.04997 0.24463 0.0
C712 C 0.40143 0.01114 0.49831 0.0
C713 C 0.38647 0.02619 0.49287 0.0
C714 C 0.37675 0.0656 0.36374 0.0
C715 C 0.32245 0.06961 0.30118 0.0
C716 C 0.34002 0.06938 0.35072 0.0
C717 C 0.39103 0.04505 0.46202 0.0
C718 C 0.37422 0.05745 0.43109 0.0
H719 H 0.31099 0.08891 0.14095 0.0
H720 H 0.33288 0.0957 0.24232 0.0
H721 H 0.36245 0.07584 0.27033 0.0
H722 H 0.44172 0.03758 0.43246 0.0
H723 H 0.41589 0.06417 0.42613 0.0
C724 C 0.44969 0.29157 0.17521 0.0
C725 C 0.46898 0.28358 0.15895 0.0
C726 C 0.44709 0.30404 0.23453 0.0
C727 C 0.47551 0.32859 0.38582 0.0
H728 H 0.4465 0.37642 0.32192 0.0
C729 C 0.50258 0.41055 0.42449 0.0
C730 C 0.48833 0.42657 0.42334 0.0
C731 C 0.49601 0.39027 0.42301 0.0
C732 C 0.45424 0.36311 0.34211 0.0
H733 H 0.50028 0.28093 0.19333 0.0
H734 H 0.49615 0.30336 0.29494 0.0
H735 H 0.44191 0.34436 0.26083 0.0
H736 H 0.45613 0.43398 0.42935 0.0
H737 H 0.44464 0.39851 0.42626 0.0
H738 H 0.48912 0.34822 0.46377 0.0
C739 C 0.48277 0.29966 0.264 0.0
C740 C 0.45158 0.34454 0.30689 0.0
C741 C 0.48523 0.28683 0.20552 0.0
C742 C 0.46744 0.42192 0.42826 0.0
C743 C 0.46087 0.40163 0.42682 0.0
C744 C 0.47835 0.34732 0.42073 0.0
C745 C 0.4639 0.30928 0.27725 0.0
C746 C 0.46287 0.32722 0.32614 0.0
C747 C 0.47507 0.38563 0.42037 0.0
C748 C 0.46839 0.36496 0.3972 0.0
H749 H 0.43696 0.28918 0.13973 0.0
H750 H 0.4322 0.31067 0.24412 0.0
H751 H 0.48408 0.31547 0.40331 0.0
H752 H 0.51878 0.41363 0.42075 0.0
H753 H 0.50737 0.37834 0.41767 0.0
C754 C 0.24564 0.49749 0.22899 0.0
C755 C 0.24967 0.48162 0.18108 0.0
C756 C 0.2336 0.49394 0.28793 0.0
C757 C 0.19161 0.45937 0.33103 0.0
H758 H 0.18606 0.49733 0.4875 0.0
C759 C 0.1136 0.47188 0.44675 0.0
C760 C 0.10797 0.49241 0.43827 0.0
C761 C 0.13418 0.46632 0.44855 0.0
C762 C 0.18753 0.48639 0.44472 0.0
H763 H 0.24632 0.44933 0.15966 0.0
H764 H 0.22623 0.44271 0.26485 0.0
H765 H 0.21886 0.49408 0.42753 0.0
H766 H 0.11946 0.5234 0.43322 0.0
H767 H 0.15521 0.51374 0.43611 0.0
H768 H 0.16019 0.45233 0.34589 0.0
C769 C 0.23162 0.45809 0.25601 0.0
C770 C 0.20627 0.4846 0.41001 0.0
C771 C 0.24328 0.46176 0.19618 0.0
C772 C 0.12326 0.50745 0.43964 0.0
C773 C 0.14382 0.50189 0.44161 0.0
C774 C 0.17305 0.46097 0.36618 0.0
C775 C 0.22556 0.47437 0.30035 0.0
C776 C 0.20819 0.47194 0.35006 0.0
C777 C 0.14948 0.4812 0.44206 0.0
C778 C 0.17047 0.4753 0.42084 0.0
H779 H 0.25034 0.51296 0.21773 0.0
H780 H 0.22922 0.50696 0.32001 0.0
H781 H 0.19222 0.44958 0.28493 0.0
H782 H 0.10212 0.45999 0.44789 0.0
H783 H 0.1381 0.45027 0.4502 0.0
C784 C 0.98564 0.79127 0.96936 0.0
C785 C 0.97345 0.79299 0.0296 0.0
C786 C 0.98121 0.80286 0.91028 0.0
C787 C 0.97085 0.83085 0.79043 0.0
H788 H 0.96512 0.885 0.87156 0.0
C789 C 0.02232 0.89585 0.72234 0.0
C790 C 0.01817 0.91539 0.75021 0.0
C791 C 1.00748 0.88058 0.72383 0.0
C792 C 0.96612 0.87017 0.84622 0.0
H793 H 0.94561 0.80584 0.0723 0.0
H794 H 0.93753 0.82574 0.96848 0.0
H795 H 0.95521 0.85602 0.93849 0.0
H796 H 0.99383 0.93526 0.78766 0.0
H797 H 0.96773 0.90909 0.78564 0.0
H798 H 0.98301 0.84525 0.69939 0.0
C799 C 0.95085 0.81595 0.96741 0.0
C800 C 0.96038 0.85331 0.88527 0.0
C801 C 0.95543 0.80455 0.0268 0.0
C802 C 0.99786 0.92028 0.76744 0.0
C803 C 0.98286 0.90512 0.76714 0.0
C804 C 0.97649 0.84781 0.75089 0.0
C805 C 0.96443 0.81628 0.9103 0.0
C806 C 0.96393 0.83341 0.85979 0.0
C807 C 0.988 0.88468 0.75176 0.0
C808 C 0.97552 0.86762 0.78033 0.0
H809 H 0.99965 0.78249 0.97017 0.0
H810 H 0.9921 0.80274 0.8676 0.0
H811 H 0.97328 0.8157 0.76854 0.0
H812 H 0.03756 0.89182 0.70509 0.0
H813 H 0.0121 0.8652 0.70996 0.0
C814 C 0.74545 0.98627 1.00184 0.0
C815 C 0.73698 0.97642 0.06007 0.0
C816 C 0.73534 0.98592 0.93719 0.0
C817 C 0.68779 0.96631 0.84659 0.0
H818 H 0.68536 0.02216 0.78275 0.0
C819 C 0.63277 0.02786 0.6931 0.0
C820 C 0.61554 0.02567 0.73639 0.0
C821 C 0.65013 0.01587 0.70361 0.0
C822 C 0.68612 1.00632 0.79817 0.0
H823 H 0.7127 0.95625 0.0933 0.0
H824 H 0.6945 0.9567 0.98299 0.0
H825 H 0.71315 0.01176 0.85732 0.0
H826 H 0.60235 1.00755 0.8194 0.0
H827 H 0.63231 0.98652 0.83651 0.0
H828 H 0.65942 0.96173 0.79233 0.0
C829 C 0.70902 0.96453 0.98608 0.0
C830 C 0.70219 1.00026 0.84116 0.0
C831 C 0.71931 0.96457 0.05018 0.0
C832 C 0.61526 0.00969 0.78487 0.0
C833 C 0.6325 0.99755 0.7947 0.0
C834 C 0.6715 0.97251 0.80439 0.0
C835 C 0.71636 0.97604 0.92965 0.0
C836 C 0.7027 0.98047 0.86903 0.0
C837 C 0.65045 1.00124 0.75676 0.0
C838 C 0.67004 0.99285 0.78262 0.0
H839 H 0.75912 0.99545 0.00716 0.0
H840 H 0.74183 0.99444 0.89437 0.0
H841 H 0.68798 0.95077 0.86511 0.0
H842 H 0.63325 0.03957 0.65359 0.0
H843 H 0.66369 0.01881 0.67288 0.0
C844 C 0.53405 0.75486 0.02541 0.0
C845 C 0.54869 0.74985 0.07625 0.0
C846 C 0.53342 0.74423 0.96135 0.0
C847 C 0.5597 0.7041 0.85309 0.0
H848 H 0.50576 0.67995 0.84776 0.0
C849 C 0.51236 0.62526 0.77989 0.0
C850 C 0.52685 0.612 0.80919 0.0
C851 C 0.51661 0.64608 0.77392 0.0
C852 C 0.5208 0.68676 0.84599 0.0
H853 H 0.57549 0.73156 0.09718 0.0
H854 H 0.57428 0.71285 0.98621 0.0
H855 H 0.51101 0.71163 0.91082 0.0
H856 H 0.55824 0.60966 0.8443 0.0
H857 H 0.56522 0.64583 0.83823 0.0
H858 H 0.56965 0.67846 0.79131 0.0
C859 C 0.56329 0.72496 0.99521 0.0
C860 C 0.52382 0.70507 0.88262 0.0
C861 C 0.56386 0.73549 0.05924 0.0
C862 C 0.54645 0.61959 0.82419 0.0
C863 C 0.55058 0.64041 0.81934 0.0
C864 C 0.55663 0.68582 0.81577 0.0
C865 C 0.54747 0.7285 0.94699 0.0
C866 C 0.54352 0.71327 0.89021 0.0
C867 C 0.53529 0.6541 0.79825 0.0
C868 C 0.53739 0.67625 0.8157 0.0
H869 H 0.52217 0.76588 0.03712 0.0
H870 H 0.52117 0.74744 0.92492 0.0
H871 H 0.57498 0.71031 0.85685 0.0
H872 H 0.49716 0.61996 0.76673 0.0
H873 H 0.50469 0.65609 0.75523 0.0
C874 C 0.79427 0.5636 0.01938 0.0
C875 C 0.78064 0.54753 0.03194 0.0
C876 C 0.8045 0.56479 0.95542 0.0
C877 C 0.82535 0.52818 0.83344 0.0
H878 H 0.85123 0.57641 0.75874 0.0
C879 C 0.90626 0.52055 0.74681 0.0
C880 C 0.91852 0.53486 0.78297 0.0
C881 C 0.88557 0.52452 0.7353 0.0
C882 C 0.84409 0.56274 0.77847 0.0
H883 H 0.76539 0.52135 0.98495 0.0
H884 H 0.78321 0.5235 0.8729 0.0
H885 H 0.81892 0.57961 0.82163 0.0
H886 H 0.91947 0.56591 0.82371 0.0
H887 H 0.88343 0.57224 0.80866 0.0
H888 H 0.8511 0.51148 0.79701 0.0
C889 C 0.78615 0.53505 0.9128 0.0
C890 C 0.82553 0.56459 0.81427 0.0
C891 C 0.77588 0.53388 0.97685 0.0
C892 C 0.91026 0.55417 0.79871 0.0
C893 C 0.88953 0.55797 0.7886 0.0
C894 C 0.84393 0.52636 0.79841 0.0
C895 C 0.80134 0.54989 0.90276 0.0
C896 C 0.81665 0.54748 0.84584 0.0
C897 C 0.87663 0.54264 0.76118 0.0
C898 C 0.85423 0.5438 0.77457 0.0
H899 H 0.79797 0.57453 0.06059 0.0
H900 H 0.81616 0.57637 0.9498 0.0
H901 H 0.81902 0.51466 0.85717 0.0
H902 H 0.91208 0.5056 0.73258 0.0
H903 H 0.87627 0.51266 0.71146 0.0
C904 C 0.01133 0.22043 0.9341 0.0
C905 C 0.03113 0.22672 0.95291 0.0
C906 C 1.00818 0.20204 0.89659 0.0
C907 C 0.03346 0.16247 0.78457 0.0
H908 H 0.99288 0.12618 0.86153 0.0
C909 C 0.02554 0.07781 0.68631 0.0
C910 C 1.00681 0.06772 0.69516 0.0
C911 C 0.02849 0.09773 0.71304 0.0
C912 C 1.00398 0.13613 0.83771 0.0
H913 H 0.06317 0.21904 0.94415 0.0
H914 H 0.05775 0.18739 0.87718 0.0
H915 H 0.9974 0.16002 0.9123 0.0
H916 H 0.97579 0.07153 0.73138 0.0
H917 H 0.98039 0.10625 0.77465 0.0
H918 H 0.04008 0.13882 0.70972 0.0
C919 C 0.04461 0.19653 0.89174 0.0
C920 C 1.00663 0.15566 0.86748 0.0
C921 C 0.04773 0.21469 0.93019 0.0
C922 C 0.99065 0.07859 0.72622 0.0
C923 C 0.99343 0.09857 0.75178 0.0
C924 C 0.03064 0.143 0.75406 0.0
C925 C 0.02477 0.18964 0.8759 0.0
C926 C 0.02143 0.16914 0.84153 0.0
C927 C 0.01256 0.1084 0.74756 0.0
C928 C 0.01576 0.12941 0.77983 0.0
H929 H 0.99821 0.22918 0.95149 0.0
H930 H 0.99269 0.19734 0.8848 0.0
H931 H 0.04499 0.17243 0.76299 0.0
H932 H 0.03807 0.07014 0.66001 0.0
H933 H 0.04349 0.10442 0.70811 0.0
C934 C 0.31629 0.01881 0.92244 0.0
C935 C 0.31023 0.03875 0.94044 0.0
C936 C 0.33306 0.01543 0.87808 0.0
C937 C 0.37945 0.04252 0.81098 0.0
H938 H 0.38623 0.99241 0.70326 0.0
C939 C 0.45232 0.02565 0.64665 0.0
C940 C 0.46131 1.00661 0.6599 0.0
C941 C 0.43257 0.03009 0.67081 0.0
C942 C 0.38455 1.00649 0.73312 0.0
H943 H 0.31622 0.07075 0.92355 0.0
H944 H 0.34457 0.06502 0.84293 0.0
H945 H 0.3538 0.99941 0.76141 0.0
H946 H 0.45615 0.97675 0.70359 0.0
H947 H 0.42172 0.98442 0.74583 0.0
H948 H 0.41006 0.04974 0.78085 0.0
C949 C 0.33708 0.05186 0.86495 0.0
C950 C 0.36596 0.01049 0.76702 0.0
C951 C 0.3206 0.05522 0.91045 0.0
C952 C 0.44973 0.9917 0.69395 0.0
C953 C 0.42996 0.99605 0.71764 0.0
C954 C 0.39786 0.03869 0.7759 0.0
C955 C 0.34402 0.03192 0.84961 0.0
C956 C 0.36321 0.02839 0.80786 0.0
C957 C 0.42124 0.01541 0.70739 0.0
C958 C 0.40084 0.02042 0.73794 0.0
H959 H 0.30875 1.00585 0.94575 0.0
H960 H 0.33792 0.99984 0.86891 0.0
H961 H 0.37834 0.05632 0.84254 0.0
H962 H 0.46061 0.03719 0.61821 0.0
H963 H 0.42618 0.04504 0.6611 0.0
C964 C 0.46556 0.31278 0.89788 0.0
C965 C 0.48164 0.299 0.90954 0.0
C966 C 0.46822 0.32958 0.85419 0.0
C967 C 0.50844 0.36403 0.79516 0.0
H968 H 0.46679 0.38477 0.67033 0.0
C969 C 0.52 0.4405 0.65382 0.0
C970 C 0.50309 0.45369 0.65061 0.0
C971 C 0.51763 0.42011 0.67351 0.0
C972 C 0.47853 0.37934 0.70547 0.0
H973 H 0.51289 0.29166 0.88247 0.0
H974 H 0.51761 0.32112 0.80621 0.0
H975 H 0.46205 0.35173 0.72591 0.0
H976 H 0.47012 0.45499 0.65888 0.0
H977 H 0.46605 0.41992 0.69647 0.0
H978 H 0.52456 0.39184 0.77764 0.0
C979 C 0.50293 0.3189 0.83099 0.0
C980 C 0.47583 0.36031 0.73707 0.0
C981 C 0.50017 0.30192 0.87407 0.0
C982 C 0.48359 0.44555 0.66331 0.0
C983 C 0.48123 0.42522 0.68377 0.0
C984 C 0.51105 0.38312 0.76423 0.0
C985 C 0.48711 0.33318 0.82169 0.0
C986 C 0.49066 0.35252 0.78292 0.0
C987 C 0.49828 0.4123 0.6908 0.0
C988 C 0.49604 0.39121 0.71949 0.0
H989 H 0.45109 0.31092 0.92446 0.0
H990 H 0.45576 0.34031 0.84865 0.0
H991 H 0.52003 0.35867 0.83103 0.0
H992 H 0.53521 0.44598 0.64266 0.0
H993 H 0.53108 0.41056 0.67604 0.0
C994 C 0.22856 0.51313 0.89781 0.0
C995 C 0.23242 0.49477 0.93279 0.0
C996 C 0.21132 0.51512 0.85448 0.0
C997 C 0.17085 0.48577 0.75898 0.0
H998 H 0.13794 0.53404 0.79258 0.0
C999 C 0.08585 0.49066 0.67331 0.0
C1000 C 0.07742 0.50978 0.65711 0.0
C1001 C 0.106 0.48901 0.6976 0.0
C1002 C 0.14703 0.5206 0.78121 0.0
H1003 H 0.2218 0.46377 0.94652 0.0
H1004 H 0.19201 0.46711 0.87058 0.0
H1005 H 0.17105 0.53094 0.84934 0.0
H1006 H 0.08449 0.54197 0.64797 0.0
H1007 H 0.11958 0.53908 0.68823 0.0
H1008 H 0.14685 0.47538 0.69091 0.0
C1009 C 0.20218 0.48004 0.87661 0.0
C1010 C 0.1661 0.51883 0.81406 0.0
C1011 C 0.21924 0.47814 0.92045 0.0
C1012 C 0.09017 0.52703 0.66148 0.0
C1013 C 0.11037 0.52538 0.68517 0.0
C1014 C 0.15184 0.48761 0.72558 0.0
C1015 C 0.19768 0.4987 0.84435 0.0
C1016 C 0.17818 0.50127 0.80424 0.0
C1017 C 0.11848 0.50641 0.70533 0.0
C1018 C 0.13947 0.50494 0.73693 0.0
H1019 H 0.23831 0.52627 0.90663 0.0
H1020 H 0.20846 0.52965 0.82991 0.0
H1021 H 0.17983 0.47213 0.74944 0.0
H1022 H 0.07678 0.47691 0.66845 0.0
H1023 H 0.11151 0.4741 0.71245 0.0
C1024 C 0.97877 0.82292 0.29307 0.0
C1025 C 0.99556 0.81091 0.27218 0.0
C1026 C 0.9813 0.84002 0.33736 0.0
C1027 C 0.01925 0.86728 0.45478 0.0
H1028 H 0.98443 0.91389 0.41917 0.0
C1029 C 0.03855 0.9495 0.55136 0.0
C1030 C 0.02272 0.96194 0.57741 0.0
C1031 C 0.03442 0.93035 0.52093 0.0
C1032 C 0.99415 0.90096 0.43046 0.0
H1033 H 0.02822 0.80737 0.2832 0.0
H1034 H 0.03283 0.83738 0.35915 0.0
H1035 H 0.97917 0.88217 0.35363 0.0
H1036 H 0.99021 0.96325 0.59676 0.0
H1037 H 0.9828 0.92992 0.54145 0.0
H1038 H 0.03465 0.88654 0.52998 0.0
C1039 C 0.01751 0.83341 0.34265 0.0
C1040 C 0.9911 0.8826 0.3929 0.0
C1041 C 0.01491 0.8161 0.29892 0.0
C1042 C 1.00266 0.95434 0.57494 0.0
C1043 C 0.99846 0.9352 0.54362 0.0
C1044 C 0.02244 0.88573 0.49171 0.0
C1045 C 1.00078 0.84594 0.36163 0.0
C1046 C 1.00366 0.86541 0.404 0.0
C1047 C 0.0143 0.92298 0.51576 0.0
C1048 C 0.01004 0.9029 0.47972 0.0
H1049 H 0.96361 0.81929 0.27389 0.0
H1050 H 0.96788 0.84872 0.35187 0.0
H1051 H 0.02903 0.85445 0.46642 0.0
H1052 H 0.05422 0.95474 0.55366 0.0
H1053 H 0.047 0.92148 0.49991 0.0
C1054 C 0.71013 0.97847 0.33543 0.0
C1055 C 0.72218 0.99434 0.30899 0.0
C1056 C 0.69291 0.98277 0.37672 0.0
C1057 C 0.65344 0.02126 0.39476 0.0
H1058 H 0.63869 0.99453 0.56752 0.0
C1059 C 0.57764 0.04144 0.53136 0.0
C1060 C 0.5669 0.02592 0.56527 0.0
C1061 C 0.59769 0.03828 0.50842 0.0
C1062 C 0.64236 1.002 0.51888 0.0
H1063 H 0.72591 0.0271 0.30548 0.0
H1064 H 0.69558 0.03472 0.37669 0.0
H1065 H 0.67179 0.98752 0.51344 0.0
H1066 H 0.56948 0.99569 0.60872 0.0
H1067 H 0.60399 0.98956 0.56534 0.0
H1068 H 0.62389 0.03486 0.39697 0.0
C1069 C 0.69962 0.01893 0.36639 0.0
C1070 C 0.66146 0.99804 0.48817 0.0
C1071 C 0.71706 0.0146 0.32624 0.0
C1072 C 0.57711 1.00762 0.58 0.0
C1073 C 0.59711 1.00429 0.55612 0.0
C1074 C 0.63425 0.02492 0.42457 0.0
C1075 C 0.68712 1.00308 0.39095 0.0
C1076 C 0.66724 1.0077 0.42585 0.0
C1077 C 0.6076 0.01942 0.51839 0.0
C1078 C 0.62836 0.01547 0.48743 0.0
H1079 H 0.7136 0.96274 0.32182 0.0
H1080 H 0.68352 0.97024 0.39431 0.0
H1081 H 0.65726 0.02862 0.34596 0.0
H1082 H 0.5704 0.056 0.52162 0.0
H1083 H 0.60535 0.05072 0.48257 0.0
C1084 C 0.52424 0.72943 0.36538 0.0
C1085 C 0.54234 0.73378 0.32915 0.0
C1086 C 0.52287 0.71206 0.40751 0.0
C1087 C 0.548 0.66139 0.42685 0.0
H1088 H 0.51264 0.65658 0.58863 0.0
C1089 C 0.54366 0.58651 0.57988 0.0
C1090 C 0.52389 0.57882 0.59087 0.0
C1091 C 0.54661 0.60666 0.55867 0.0
C1092 C 0.52254 0.6577 0.54339 0.0
H1093 H 0.57354 0.72423 0.31195 0.0
H1094 H 0.5716 0.69462 0.38767 0.0
H1095 H 0.51687 0.68977 0.53287 0.0
H1096 H 0.49182 0.58706 0.59408 0.0
H1097 H 0.49703 0.62229 0.55777 0.0
H1098 H 0.55367 0.62941 0.43719 0.0
C1099 C 0.55813 0.70403 0.38192 0.0
C1100 C 0.52494 0.67672 0.51121 0.0
C1101 C 0.55938 0.72116 0.33912 0.0
C1102 C 0.50725 0.59231 0.58511 0.0
C1103 C 0.51023 0.61258 0.5646 0.0
C1104 C 0.54576 0.64251 0.4593 0.0
C1105 C 0.53966 0.69876 0.41482 0.0
C1106 C 0.53764 0.67883 0.45211 0.0
C1107 C 0.52991 0.6198 0.54899 0.0
C1108 C 0.53292 0.64035 0.51767 0.0
H1109 H 0.51081 0.7388 0.3579 0.0
H1110 H 0.50833 0.70854 0.43137 0.0
H1111 H 0.55749 0.66209 0.38051 0.0
H1112 H 0.55691 0.57683 0.58613 0.0
H1113 H 0.56201 0.61186 0.54864 0.0
C1114 C 0.81213 0.55361 0.29177 0.0
C1115 C 0.79861 0.53708 0.28292 0.0
C1116 C 0.829 0.55225 0.33668 0.0
C1117 C 0.86414 0.51435 0.41055 0.0
H1118 H 0.88325 0.55985 0.52485 0.0
C1119 C 0.93958 0.50863 0.56768 0.0
C1120 C 0.95239 0.52588 0.56862 0.0
C1121 C 0.91942 0.50991 0.54323 0.0
C1122 C 0.8783 0.54703 0.49271 0.0
H1123 H 0.792 0.50632 0.31609 0.0
H1124 H 0.82159 0.50386 0.39456 0.0
H1125 H 0.85062 0.56228 0.46364 0.0
H1126 H 0.95322 0.55841 0.54972 0.0
H1127 H 0.91861 0.56051 0.50421 0.0
H1128 H 0.89203 0.49933 0.43714 0.0
C1129 C 0.8191 0.5179 0.3665 0.0
C1130 C 0.85949 0.54841 0.45777 0.0
C1131 C 0.80202 0.51937 0.32212 0.0
C1132 C 0.94409 0.54466 0.54781 0.0
C1133 C 0.92401 0.54591 0.52265 0.0
C1134 C 0.88303 0.51302 0.44492 0.0
C1135 C 0.83301 0.53422 0.37353 0.0
C1136 C 0.85223 0.53218 0.41555 0.0
C1137 C 0.91144 0.52847 0.51859 0.0
C1138 C 0.89056 0.52943 0.48595 0.0
H1139 H 0.80992 0.56749 0.26243 0.0
H1140 H 0.83941 0.56507 0.3402 0.0
H1141 H 0.85922 0.50164 0.37778 0.0
H1142 H 0.94518 0.49395 0.58455 0.0
H1143 H 0.91015 0.49623 0.54303 0.0
loop_
_geom_bond_atom_site_label_1
_geom_bond_atom_site_label_2
_geom_bond_distance
_geom_bond_site_symmetry_2
_ccdc_geom_bond_type
H0 C3 0.929 . S
H1 C6 0.929 . S
H2 C8 0.930 . S
C3 H0 0.929 . S
C3 C4 1.398 . S
C3 C5 1.396 . S
C4 C3 1.398 . S
C4 C8 1.407 . S
C5 C3 1.396 . S
C5 C6 1.394 . S
C6 H1 0.929 . S
C6 C5 1.394 . S
C6 C7 1.382 . S
C7 C6 1.382 . S
C7 C8 1.392 . S
C7 N9 1.420 . S
C8 H2 0.930 . S
C8 C4 1.407 . S
C8 C7 1.392 . S
N9 C7 1.420 . S
N9 C10 1.244 . S
C10 N9 1.244 . S
H11 C14 0.929 . S
H12 C17 0.929 . S
H13 C19 0.930 . S
C14 H11 0.929 . S
C14 C15 1.398 . S
C14 C16 1.396 . S
C15 C14 1.398 . S
C15 C19 1.407 . S
C16 C14 1.396 . S
C16 C17 1.394 . S
C17 H12 0.929 . S
C17 C16 1.394 . S
C17 C18 1.382 . S
C18 C17 1.382 . S
C18 C19 1.392 . S
C18 N20 1.420 . S
C19 H13 0.930 . S
C19 C15 1.407 . S
C19 C18 1.392 . S
N20 C18 1.420 . S
N20 C21 1.244 . S
C21 N20 1.244 . S
H22 C25 0.929 . S
H23 C28 0.929 . S
H24 C30 0.930 . S
C25 H22 0.929 . S
C25 C26 1.398 . S
C25 C27 1.396 . S
C26 C25 1.398 . S
C26 C30 1.407 . S
C27 C25 1.396 . S
C27 C28 1.394 . S
C28 H23 0.929 . S
C28 C27 1.394 . S
C28 C29 1.382 . S
C29 C28 1.382 . S
C29 C30 1.392 . S
C29 N31 1.420 . S
C30 H24 0.930 . S
C30 C26 1.407 . S
C30 C29 1.392 . S
N31 C29 1.420 . S
N31 C32 1.244 . S
C32 N31 1.244 . S
H33 C36 0.929 . S
H34 C39 0.929 . S
H35 C41 0.930 . S
C36 H33 0.929 . S
C36 C37 1.398 . S
C36 C38 1.396 . S
C37 C36 1.398 . S
C37 C41 1.407 . S
C38 C36 1.396 . S
C38 C39 1.394 . S
C39 H34 0.929 . S
C39 C38 1.394 . S
C39 C40 1.382 . S
C40 C39 1.382 . S
C40 C41 1.392 . S
C40 N42 1.420 . S
C41 H35 0.930 . S
C41 C37 1.407 . S
C41 C40 1.392 . S
N42 C40 1.420 . S
N42 C43 1.244 . S
C43 N42 1.244 . S
H44 C47 0.929 . S
H45 C50 0.929 . S
H46 C52 0.930 . S
C47 H44 0.929 . S
C47 C48 1.398 . S
C47 C49 1.396 1_556 S
C48 C47 1.398 . S
C48 C52 1.407 . S
C49 C47 1.396 1_554 S
C49 C50 1.394 . S
C50 H45 0.929 . S
C50 C49 1.394 . S
C50 C51 1.382 . S
C51 C50 1.382 . S
C51 C52 1.392 1_554 S
C51 N53 1.420 . S
C52 H46 0.930 . S
C52 C48 1.407 . S
C52 C51 1.392 1_556 S
N53 C51 1.420 . S
N53 C54 1.244 . S
C54 N53 1.244 . S
H55 C58 0.929 . S
H56 C61 0.929 . S
H57 C63 0.930 . S
C58 H55 0.929 . S
C58 C59 1.398 . S
C58 C60 1.396 1_556 S
C59 C58 1.398 . S
C59 C63 1.407 . S
C60 C58 1.396 1_554 S
C60 C61 1.394 . S
C61 H56 0.929 . S
C61 C60 1.394 . S
C61 C62 1.382 . S
C62 C61 1.382 . S
C62 C63 1.392 1_554 S
C62 N64 1.420 . S
C63 H57 0.930 . S
C63 C59 1.407 . S
C63 C62 1.392 1_556 S
N64 C62 1.420 . S
N64 C65 1.244 . S
C65 N64 1.244 . S
H66 C69 0.929 . S
H67 C72 0.929 . S
H68 C74 0.930 . S
C69 H66 0.929 . S
C69 C70 1.398 . S
C69 C71 1.396 1_556 S
C70 C69 1.398 . S
C70 C74 1.407 . S
C71 C69 1.396 1_554 S
C71 C72 1.394 . S
C72 H67 0.929 . S
C72 C71 1.394 . S
C72 C73 1.382 . S
C73 C72 1.382 . S
C73 C74 1.392 1_554 S
C73 N75 1.420 . S
C74 H68 0.930 . S
C74 C70 1.407 . S
C74 C73 1.392 1_556 S
N75 C73 1.420 . S
N75 C76 1.244 . S
C76 N75 1.244 . S
H77 C80 0.929 . S
H78 C83 0.929 . S
H79 C85 0.930 . S
C80 H77 0.929 . S
C80 C81 1.398 . S
C80 C82 1.396 1_556 S
C81 C80 1.398 . S
C81 C85 1.407 . S
C82 C80 1.396 1_554 S
C82 C83 1.394 . S
C83 H78 0.929 . S
C83 C82 1.394 . S
C83 C84 1.382 . S
C84 C83 1.382 . S
C84 C85 1.392 1_554 S
C84 N86 1.420 . S
C85 H79 0.930 . S
C85 C81 1.407 . S
C85 C84 1.392 1_556 S
N86 C84 1.420 . S
N86 C87 1.244 . S
C87 N86 1.244 . S
Gd88 N119 2.661 . S
Gd88 N125 2.601 . S
Gd88 O132 2.545 . S
Gd88 O133 2.606 1_655 S
Gd88 O135 2.429 . S
Gd88 O136 2.545 1_655 S
Gd88 O137 2.413 1_655 S
Gd88 O139 2.362 1_545 S
Gd88 O140 2.324 1_655 S
Gd88 C147 2.828 . S
Gd89 N98 2.661 1_565 S
Gd89 N102 2.598 1_565 S
Gd89 O133 2.362 1_565 S
Gd89 O134 2.324 1_455 S
Gd89 O138 2.545 . S
Gd89 O139 2.606 1_455 S
Gd89 O141 2.429 . S
Gd89 O142 2.545 . S
Gd89 O143 2.412 . S
Gd89 C156 2.828 . S
C90 C93 1.417 . S
C90 C95 1.431 . S
C90 C96 1.412 . S
C91 C94 1.437 . S
C91 C95 1.317 . S
C91 H110 0.929 . S
C92 C93 1.426 . S
C92 C94 1.413 . S
C92 N102 1.368 . S
C93 C90 1.417 . S
C93 C92 1.426 . S
C93 N98 1.350 . S
C94 C91 1.437 . S
C94 C92 1.413 . S
C94 C104 1.391 . S
C95 C90 1.431 . S
C95 C91 1.317 . S
C95 H106 0.930 . S
C96 C90 1.412 . S
C96 C97 1.355 . S
C96 H108 0.930 . S
C97 C96 1.355 . S
C97 C99 1.402 . S
C97 H109 0.930 1_455 S
N98 Gd89 2.661 1_545 S
N98 C93 1.350 . S
N98 C99 1.307 . S
C99 C97 1.402 . S
C99 N98 1.307 . S
C99 H100 0.930 1_455 S
H100 C99 0.930 1_655 S
C101 N102 1.328 1_565 S
C101 C103 1.394 . S
C101 H105 0.930 . S
N102 Gd89 2.598 1_545 S
N102 C92 1.368 . S
N102 C101 1.328 1_545 S
C103 C101 1.394 . S
C103 C104 1.359 1_565 S
C103 H115 0.930 . S
C104 C94 1.391 . S
C104 C103 1.359 1_545 S
C104 H116 0.929 . S
H105 C101 0.930 . S
H106 C95 0.930 . S
H107 C124 0.930 . S
H108 C96 0.930 . S
H109 C97 0.930 1_655 S
H110 C91 0.929 . S
H111 C129 0.930 . S
H112 C120 0.930 . S
H113 C121 0.930 . S
H114 C145 0.929 . S
H115 C103 0.930 . S
H116 C104 0.929 . S
H117 C146 0.930 . S
H118 C127 0.930 . S
N119 Gd88 2.661 . S
N119 C123 1.341 1_545 S
N119 C124 1.307 1_645 S
C120 H112 0.930 . S
C120 C121 1.355 1_655 S
C120 C122 1.412 . S
C121 H113 0.930 . S
C121 C120 1.355 1_455 S
C121 C124 1.402 . S
C122 C120 1.412 . S
C122 C123 1.449 . S
C122 C146 1.431 . S
C123 N119 1.341 1_565 S
C123 C122 1.449 . S
C123 C126 1.406 1_565 S
C124 H107 0.930 . S
C124 N119 1.307 1_465 S
C124 C121 1.402 . S
N125 Gd88 2.601 . S
N125 C126 1.359 . S
N125 C129 1.334 . S
C126 C123 1.406 1_545 S
C126 N125 1.359 . S
C126 C130 1.413 . S
C127 H118 0.930 . S
C127 C128 1.359 . S
C127 C129 1.394 . S
C128 C127 1.359 . S
C128 C130 1.391 . S
C128 H131 0.929 . S
C129 H111 0.930 . S
C129 N125 1.334 . S
C129 C127 1.394 . S
C130 C126 1.413 . S
C130 C128 1.391 . S
C130 C145 1.437 1_545 S
H131 C128 0.929 . S
O132 Gd88 2.545 . S
O132 C147 1.258 . S
O133 Gd88 2.606 1_455 S
O133 Gd89 2.362 1_545 S
O133 C144 1.284 . S
O134 Gd89 2.324 1_655 S
O134 C154 1.254 1_565 S
O135 Gd88 2.429 . S
O135 C154 1.268 . S
O136 Gd88 2.545 1_455 S
O136 C144 1.250 . S
O137 Gd88 2.413 1_455 S
O137 C147 1.255 1_455 S
O138 Gd89 2.545 . S
O138 C156 1.258 . S
O139 Gd88 2.362 1_565 S
O139 Gd89 2.606 1_655 S
O139 C155 1.284 . S
O140 Gd88 2.324 1_455 S
O140 C163 1.254 . S
O141 Gd89 2.429 . S
O141 C163 1.268 1_565 S
O142 Gd89 2.545 . S
O142 C155 1.250 1_455 S
O143 Gd89 2.412 . S
O143 C156 1.252 . S
C144 O133 1.284 . S
C144 O136 1.250 . S
C145 H114 0.929 . S
C145 C130 1.437 1_565 S
C145 C146 1.317 . S
C146 H117 0.930 . S
C146 C122 1.431 . S
C146 C145 1.317 . S
C147 Gd88 2.828 . S
C147 O132 1.258 . S
C147 O137 1.255 1_655 S
C147 C148 1.497 . S
C148 C147 1.497 . S
C148 C149 1.395 . S
C148 C150 1.344 1_655 S
C149 C148 1.395 . S
C149 C152 1.398 . S
C149 H164 0.930 . S
C150 C148 1.344 1_455 S
C150 C151 1.389 1_455 S
C150 H165 0.969 . S
C151 C150 1.389 1_655 S
C151 C153 1.403 . S
C152 C149 1.398 . S
C152 C153 1.380 . S
C152 H166 0.930 . S
C153 C151 1.403 . S
C153 C152 1.380 . S
C153 H167 0.930 . S
C154 O134 1.254 1_545 S
C154 O135 1.268 . S
C155 O139 1.284 . S
C155 O142 1.250 1_655 S
C156 Gd89 2.828 . S
C156 O138 1.258 . S
C156 O143 1.252 . S
C156 C157 1.497 . S
C157 C156 1.497 . S
C157 C158 1.395 . S
C157 C159 1.380 . S
C158 C157 1.395 . S
C158 C161 1.398 . S
C158 H168 0.930 . S
C159 C157 1.380 . S
C159 C160 1.391 . S
C159 H169 0.930 1_455 S
C160 C159 1.391 . S
C160 C162 1.387 . S
C161 C158 1.398 . S
C161 C162 1.380 . S
C161 H170 0.930 . S
C162 C160 1.387 . S
C162 C161 1.380 . S
C162 H171 0.930 . S
C163 O140 1.254 . S
C163 O141 1.268 1_545 S
H164 C149 0.930 . S
H165 C150 0.969 . S
H166 C152 0.930 . S
H167 C153 0.930 . S
H168 C158 0.930 . S
H169 C159 0.930 1_655 S
H170 C161 0.930 . S
H171 C162 0.930 . S
Gd172 N203 2.661 . S
Gd172 N209 2.601 . S
Gd172 O216 2.545 . S
Gd172 O217 2.606 1_565 S
Gd172 O219 2.429 . S
Gd172 O220 2.545 1_565 S
Gd172 O221 2.412 1_565 S
Gd172 O223 2.362 . S
Gd172 O224 2.324 1_565 S
Gd172 C231 2.828 . S
Gd173 N182 2.661 . S
Gd173 N186 2.601 . S
Gd173 O217 2.362 . S
Gd173 O218 2.324 1_545 S
Gd173 O222 2.545 . S
Gd173 O223 2.607 1_545 S
Gd173 O225 2.429 . S
Gd173 O226 2.545 . S
Gd173 O227 2.412 . S
Gd173 C240 2.828 . S
C174 C177 1.417 . S
C174 C179 1.431 . S
C174 C180 1.412 . S
C175 C178 1.437 . S
C175 C179 1.317 . S
C175 H194 0.929 . S
C176 C177 1.426 . S
C176 C178 1.413 . S
C176 N186 1.359 . S
C177 C174 1.417 . S
C177 C176 1.426 . S
C177 N182 1.350 . S
C178 C175 1.437 . S
C178 C176 1.413 . S
C178 C188 1.391 . S
C179 C174 1.431 . S
C179 C175 1.317 . S
C179 H190 0.930 . S
C180 C174 1.412 . S
C180 C181 1.355 . S
C180 H192 0.930 . S
C181 C180 1.355 . S
C181 C183 1.402 . S
C181 H193 0.930 1_545 S
N182 Gd173 2.661 . S
N182 C177 1.350 . S
N182 C183 1.307 . S
C183 C181 1.402 . S
C183 N182 1.307 . S
C183 H184 0.930 1_545 S
H184 C183 0.930 1_565 S
C185 N186 1.334 . S
C185 C187 1.394 . S
C185 H189 0.930 . S
N186 Gd173 2.601 . S
N186 C176 1.359 . S
N186 C185 1.334 . S
C187 C185 1.394 . S
C187 C188 1.359 . S
C187 H199 0.930 . S
C188 C178 1.391 . S
C188 C187 1.359 . S
C188 H200 0.929 . S
H189 C185 0.930 . S
H190 C179 0.930 . S
H191 C208 0.930 . S
H192 C180 0.930 . S
H193 C181 0.930 1_565 S
H194 C175 0.929 . S
H195 C213 0.930 . S
H196 C204 0.930 . S
H197 C205 0.930 . S
H198 C229 0.929 . S
H199 C187 0.930 . S
H200 C188 0.929 . S
H201 C230 0.930 . S
H202 C211 0.930 . S
N203 Gd172 2.661 . S
N203 C207 1.350 . S
N203 C208 1.307 1_565 S
C204 H196 0.930 . S
C204 C205 1.355 1_565 S
C204 C206 1.412 . S
C205 H197 0.930 . S
C205 C204 1.355 1_545 S
C205 C208 1.402 . S
C206 C204 1.412 . S
C206 C207 1.417 . S
C206 C230 1.431 . S
C207 N203 1.350 . S
C207 C206 1.417 . S
C207 C210 1.426 . S
C208 H191 0.930 . S
C208 N203 1.307 1_545 S
C208 C205 1.402 . S
N209 Gd172 2.601 . S
N209 C210 1.359 . S
N209 C213 1.334 . S
C210 C207 1.426 . S
C210 N209 1.359 . S
C210 C214 1.413 . S
C211 H202 0.930 . S
C211 C212 1.359 . S
C211 C213 1.394 . S
C212 C211 1.359 . S
C212 C214 1.391 . S
C212 H215 0.929 . S
C213 H195 0.930 . S
C213 N209 1.334 . S
C213 C211 1.394 . S
C214 C210 1.413 . S
C214 C212 1.391 . S
C214 C229 1.437 . S
H215 C212 0.929 . S
O216 Gd172 2.545 . S
O216 C231 1.258 . S
O217 Gd172 2.606 1_545 S
O217 Gd173 2.362 . S
O217 C228 1.284 . S
O218 Gd173 2.324 1_565 S
O218 C238 1.254 . S
O219 Gd172 2.429 . S
O219 C238 1.268 . S
O220 Gd172 2.545 1_545 S
O220 C228 1.250 . S
O221 Gd172 2.412 1_545 S
O221 C231 1.252 1_545 S
O222 Gd173 2.545 . S
O222 C240 1.258 . S
O223 Gd172 2.362 . S
O223 Gd173 2.607 1_565 S
O223 C239 1.284 1_565 S
O224 Gd172 2.324 1_545 S
O224 C247 1.254 . S
O225 Gd173 2.429 . S
O225 C247 1.268 . S
O226 Gd173 2.545 . S
O226 C239 1.257 . S
O227 Gd173 2.412 . S
O227 C240 1.252 . S
C228 O217 1.284 . S
C228 O220 1.250 . S
C229 H198 0.929 . S
C229 C214 1.437 . S
C229 C230 1.317 . S
C230 H201 0.930 . S
C230 C206 1.431 . S
C230 C229 1.317 . S
C231 Gd172 2.828 . S
C231 O216 1.258 . S
C231 O221 1.252 1_565 S
C231 C232 1.497 . S
C232 C231 1.497 . S
C232 C233 1.395 . S
C232 C234 1.380 1_565 S
C233 C232 1.395 . S
C233 C236 1.398 . S
C233 H248 0.930 . S
C234 C232 1.380 1_545 S
C234 C235 1.391 . S
C234 H249 0.930 . S
C235 C234 1.391 . S
C235 C237 1.387 1_545 S
C236 C233 1.398 . S
C236 C237 1.380 . S
C236 H250 0.930 . S
C237 C235 1.387 1_565 S
C237 C236 1.380 . S
C237 H251 0.930 . S
C238 O218 1.254 . S
C238 O219 1.268 . S
C239 O223 1.284 1_545 S
C239 O226 1.257 . S
C240 Gd173 2.828 . S
C240 O222 1.258 . S
C240 O227 1.252 . S
C240 C241 1.497 . S
C241 C240 1.497 . S
C241 C242 1.395 . S
C241 C243 1.380 . S
C242 C241 1.395 . S
C242 C245 1.398 . S
C242 H252 0.930 . S
C243 C241 1.380 . S
C243 C244 1.391 . S
C243 H253 0.930 . S
C244 C243 1.391 . S
C244 C246 1.387 . S
C245 C242 1.398 . S
C245 C246 1.380 . S
C245 H254 0.930 . S
C246 C244 1.387 . S
C246 C245 1.380 . S
C246 H255 0.930 . S
C247 O224 1.254 . S
C247 O225 1.268 . S
H248 C233 0.930 . S
H249 C234 0.930 . S
H250 C236 0.930 . S
H251 C237 0.930 . S
H252 C242 0.930 . S
H253 C243 0.930 . S
H254 C245 0.930 . S
H255 C246 0.930 . S
Gd256 N287 2.661 . S
Gd256 N293 2.601 . S
Gd256 O300 2.545 . S
Gd256 O301 2.606 . S
Gd256 O303 2.429 . S
Gd256 O304 2.545 . S
Gd256 O305 2.412 . S
Gd256 O307 2.362 . S
Gd256 O308 2.324 . S
Gd256 C315 2.828 . S
Gd257 N266 2.661 . S
Gd257 N270 2.601 . S
Gd257 O301 2.362 . S
Gd257 O302 2.324 . S
Gd257 O306 2.545 . S
Gd257 O307 2.606 . S
Gd257 O309 2.429 . S
Gd257 O310 2.545 . S
Gd257 O311 2.412 . S
Gd257 C324 2.828 . S
C258 C261 1.417 . S
C258 C263 1.431 . S
C258 C264 1.412 . S
C259 C262 1.437 . S
C259 C263 1.317 . S
C259 H278 0.929 . S
C260 C261 1.426 . S
C260 C262 1.413 . S
C260 N270 1.359 . S
C261 C258 1.417 . S
C261 C260 1.426 . S
C261 N266 1.350 . S
C262 C259 1.437 . S
C262 C260 1.413 . S
C262 C272 1.391 . S
C263 C258 1.431 . S
C263 C259 1.317 . S
C263 H274 0.930 . S
C264 C258 1.412 . S
C264 C265 1.355 . S
C264 H276 0.930 . S
C265 C264 1.355 . S
C265 C267 1.402 . S
C265 H277 0.930 . S
N266 Gd257 2.661 . S
N266 C261 1.350 . S
N266 C267 1.307 . S
C267 C265 1.402 . S
C267 N266 1.307 . S
C267 H268 0.930 . S
H268 C267 0.930 . S
C269 N270 1.334 . S
C269 C271 1.394 . S
C269 H273 0.930 . S
N270 Gd257 2.601 . S
N270 C260 1.359 . S
N270 C269 1.334 . S
C271 C269 1.394 . S
C271 C272 1.359 . S
C271 H283 0.930 . S
C272 C262 1.391 . S
C272 C271 1.359 . S
C272 H284 0.929 . S
H273 C269 0.930 . S
H274 C263 0.930 . S
H275 C292 0.930 . S
H276 C264 0.930 . S
H277 C265 0.930 . S
H278 C259 0.929 . S
H279 C297 0.930 . S
H280 C288 0.930 . S
H281 C289 0.930 . S
H282 C313 0.929 . S
H283 C271 0.930 . S
H284 C272 0.929 . S
H285 C314 0.930 . S
H286 C295 0.930 . S
N287 Gd256 2.661 . S
N287 C291 1.350 . S
N287 C292 1.307 . S
C288 H280 0.930 . S
C288 C289 1.355 . S
C288 C290 1.412 . S
C289 H281 0.930 . S
C289 C288 1.355 . S
C289 C292 1.402 . S
C290 C288 1.412 . S
C290 C291 1.417 . S
C290 C314 1.431 . S
C291 N287 1.350 . S
C291 C290 1.417 . S
C291 C294 1.426 . S
C292 H275 0.930 . S
C292 N287 1.307 . S
C292 C289 1.402 . S
N293 Gd256 2.601 . S
N293 C294 1.359 . S
N293 C297 1.334 . S
C294 C291 1.426 . S
C294 N293 1.359 . S
C294 C298 1.413 . S
C295 H286 0.930 . S
C295 C296 1.359 . S
C295 C297 1.394 . S
C296 C295 1.359 . S
C296 C298 1.391 . S
C296 H299 0.929 . S
C297 H279 0.930 . S
C297 N293 1.334 . S
C297 C295 1.394 . S
C298 C294 1.413 . S
C298 C296 1.391 . S
C298 C313 1.437 . S
H299 C296 0.929 . S
O300 Gd256 2.545 . S
O300 C315 1.258 . S
O301 Gd256 2.606 . S
O301 Gd257 2.362 . S
O301 C312 1.284 . S
O302 Gd257 2.324 . S
O302 C322 1.254 . S
O303 Gd256 2.429 . S
O303 C322 1.268 . S
O304 Gd256 2.545 . S
O304 C312 1.250 . S
O305 Gd256 2.412 . S
O305 C315 1.252 . S
O306 Gd257 2.545 . S
O306 C324 1.258 . S
O307 Gd256 2.362 . S
O307 Gd257 2.606 . S
O307 C323 1.284 . S
O308 Gd256 2.324 . S
O308 C331 1.254 . S
O309 Gd257 2.429 . S
O309 C331 1.268 . S
O310 Gd257 2.545 . S
O310 C323 1.250 . S
O311 Gd257 2.412 . S
O311 C324 1.252 . S
C312 O301 1.284 . S
C312 O304 1.250 . S
C313 H282 0.929 . S
C313 C298 1.437 . S
C313 C314 1.317 . S
C314 H285 0.930 . S
C314 C290 1.431 . S
C314 C313 1.317 . S
C315 Gd256 2.828 . S
C315 O300 1.258 . S
C315 O305 1.252 . S
C315 C316 1.497 . S
C316 C315 1.497 . S
C316 C317 1.395 . S
C316 C318 1.380 . S
C317 C316 1.395 . S
C317 C320 1.398 . S
C317 H332 0.930 . S
C318 C316 1.380 . S
C318 C319 1.391 . S
C318 H333 0.930 . S
C319 C318 1.391 . S
C319 C321 1.387 . S
C320 C317 1.398 . S
C320 C321 1.380 . S
C320 H334 0.930 1_556 S
C321 C319 1.387 . S
C321 C320 1.380 . S
C321 H335 0.930 . S
C322 O302 1.254 . S
C322 O303 1.268 . S
C323 O307 1.284 . S
C323 O310 1.250 . S
C324 Gd257 2.828 . S
C324 O306 1.258 . S
C324 O311 1.252 . S
C324 C325 1.497 . S
C325 C324 1.497 . S
C325 C326 1.395 . S
C325 C327 1.380 . S
C326 C325 1.395 . S
C326 C329 1.398 . S
C326 H336 0.930 . S
C327 C325 1.380 . S
C327 C328 1.391 . S
C327 H337 0.930 . S
C328 C327 1.391 . S
C328 C330 1.387 . S
C329 C326 1.398 . S
C329 C330 1.380 . S
C329 H338 0.930 . S
C330 C328 1.387 . S
C330 C329 1.380 . S
C330 H339 0.930 . S
C331 O308 1.254 . S
C331 O309 1.268 . S
H332 C317 0.930 . S
H333 C318 0.930 . S
H334 C320 0.930 1_554 S
H335 C321 0.930 . S
H336 C326 0.930 . S
H337 C327 0.930 . S
H338 C329 0.930 . S
H339 C330 0.930 . S
Gd340 N371 2.661 . S
Gd340 N377 2.601 . S
Gd340 O384 2.545 . S
Gd340 O385 2.606 1_655 S
Gd340 O387 2.429 1_655 S
Gd340 O388 2.545 . S
Gd340 O389 2.412 . S
Gd340 O391 2.362 1_655 S
Gd340 O392 2.324 . S
Gd340 C399 2.828 . S
Gd341 N350 2.661 . S
Gd341 N354 2.601 . S
Gd341 O385 2.362 . S
Gd341 O386 2.324 . S
Gd341 O390 2.545 . S
Gd341 O391 2.606 . S
Gd341 O393 2.429 1_455 S
Gd341 O394 2.545 . S
Gd341 O395 2.412 . S
Gd341 C408 2.828 . S
C342 C345 1.417 . S
C342 C347 1.431 . S
C342 C348 1.412 . S
C343 C346 1.437 . S
C343 C347 1.317 . S
C343 H362 0.929 . S
C344 C345 1.426 . S
C344 C346 1.413 . S
C344 N354 1.359 . S
C345 C342 1.417 . S
C345 C344 1.426 . S
C345 N350 1.350 . S
C346 C343 1.437 . S
C346 C344 1.413 . S
C346 C356 1.391 . S
C347 C342 1.431 . S
C347 C343 1.317 . S
C347 H358 0.930 . S
C348 C342 1.412 . S
C348 C349 1.355 . S
C348 H360 0.930 . S
C349 C348 1.355 . S
C349 C351 1.402 . S
C349 H361 0.930 . S
N350 Gd341 2.661 . S
N350 C345 1.350 . S
N350 C351 1.307 . S
C351 C349 1.402 . S
C351 N350 1.307 . S
C351 H352 0.930 . S
H352 C351 0.930 . S
C353 N354 1.334 . S
C353 C355 1.394 . S
C353 H357 0.930 1_455 S
N354 Gd341 2.601 . S
N354 C344 1.359 . S
N354 C353 1.334 . S
C355 C353 1.394 . S
C355 C356 1.359 . S
C355 H367 0.930 1_455 S
C356 C346 1.391 . S
C356 C355 1.359 . S
C356 H368 0.929 . S
H357 C353 0.930 1_655 S
H358 C347 0.930 . S
H359 C376 0.930 . S
H360 C348 0.930 . S
H361 C349 0.930 . S
H362 C343 0.929 . S
H363 C381 0.930 . S
H364 C372 0.930 . S
H365 C373 0.930 . S
H366 C397 0.929 . S
H367 C355 0.930 1_655 S
H368 C356 0.929 . S
H369 C398 0.930 . S
H370 C379 0.930 . S
N371 Gd340 2.661 . S
N371 C375 1.350 . S
N371 C376 1.307 . S
C372 H364 0.930 . S
C372 C373 1.355 . S
C372 C374 1.412 . S
C373 H365 0.930 . S
C373 C372 1.355 . S
C373 C376 1.402 . S
C374 C372 1.412 . S
C374 C375 1.417 . S
C374 C398 1.431 . S
C375 N371 1.350 . S
C375 C374 1.417 . S
C375 C378 1.426 . S
C376 H359 0.930 . S
C376 N371 1.307 . S
C376 C373 1.402 . S
N377 Gd340 2.601 . S
N377 C378 1.359 . S
N377 C381 1.334 1_655 S
C378 C375 1.426 . S
C378 N377 1.359 . S
C378 C382 1.413 . S
C379 H370 0.930 . S
C379 C380 1.359 . S
C379 C381 1.394 . S
C380 C379 1.359 . S
C380 C382 1.391 1_455 S
C380 H383 0.929 . S
C381 H363 0.930 . S
C381 N377 1.334 1_455 S
C381 C379 1.394 . S
C382 C378 1.413 . S
C382 C380 1.391 1_655 S
C382 C397 1.437 . S
H383 C380 0.929 . S
O384 Gd340 2.545 . S
O384 C399 1.258 . S
O385 Gd340 2.606 1_455 S
O385 Gd341 2.362 . S
O385 C396 1.284 1_455 S
O386 Gd341 2.324 . S
O386 C406 1.254 . S
O387 Gd340 2.429 1_455 S
O387 C406 1.268 . S
O388 Gd340 2.545 . S
O388 C396 1.250 . S
O389 Gd340 2.412 . S
O389 C399 1.252 . S
O390 Gd341 2.545 . S
O390 C408 1.258 . S
O391 Gd340 2.362 1_455 S
O391 Gd341 2.606 . S
O391 C407 1.284 . S
O392 Gd340 2.324 . S
O392 C415 1.254 . S
O393 Gd341 2.429 1_655 S
O393 C415 1.268 . S
O394 Gd341 2.545 . S
O394 C407 1.250 . S
O395 Gd341 2.412 . S
O395 C408 1.252 . S
C396 O385 1.284 1_655 S
C396 O388 1.250 . S
C397 H366 0.929 . S
C397 C382 1.437 . S
C397 C398 1.317 . S
C398 H369 0.930 . S
C398 C374 1.431 . S
C398 C397 1.317 . S
C399 Gd340 2.828 . S
C399 O384 1.258 . S
C399 O389 1.252 . S
C399 C400 1.497 . S
C400 C399 1.497 . S
C400 C401 1.395 . S
C400 C402 1.380 . S
C401 C400 1.395 . S
C401 C404 1.398 . S
C401 H416 0.930 . S
C402 C400 1.380 . S
C402 C403 1.391 . S
C402 H417 0.930 . S
C403 C402 1.391 . S
C403 C405 1.387 . S
C404 C401 1.398 . S
C404 C405 1.380 . S
C404 H418 0.930 1_556 S
C405 C403 1.387 . S
C405 C404 1.380 . S
C405 H419 0.930 . S
C406 O386 1.254 . S
C406 O387 1.268 . S
C407 O391 1.284 . S
C407 O394 1.250 . S
C408 Gd341 2.828 . S
C408 O390 1.258 . S
C408 O395 1.252 . S
C408 C409 1.497 . S
C409 C408 1.497 . S
C409 C410 1.395 . S
C409 C411 1.380 . S
C410 C409 1.395 . S
C410 C413 1.398 . S
C410 H420 0.930 . S
C411 C409 1.380 . S
C411 C412 1.391 . S
C411 H421 0.930 . S
C412 C411 1.391 . S
C412 C414 1.387 . S
C413 C410 1.398 . S
C413 C414 1.380 . S
C413 H422 0.930 . S
C414 C412 1.387 . S
C414 C413 1.380 . S
C414 H423 0.930 . S
C415 O392 1.254 . S
C415 O393 1.268 . S
H416 C401 0.930 . S
H417 C402 0.930 . S
H418 C404 0.930 1_554 S
H419 C405 0.930 . S
H420 C410 0.930 . S
H421 C411 0.930 . S
H422 C413 0.930 . S
H423 C414 0.930 . S
C424 C425 1.349 . S
C424 C426 1.327 . S
C424 H449 0.950 . S
C425 C424 1.349 . S
C425 C441 1.349 . S
C426 C424 1.327 . S
C426 C445 1.429 . S
C426 H450 0.950 . S
C427 C444 1.574 . S
C427 C446 1.368 . S
C427 H451 0.949 . S
H428 C432 0.949 . S
C429 C430 1.349 . S
C429 C431 1.327 . S
C429 H452 0.950 1_545 S
C430 C429 1.349 . S
C430 C442 1.349 . S
C431 C429 1.327 . S
C431 C447 1.429 . S
C431 H453 0.950 . S
C432 H428 0.949 . S
C432 C440 1.574 . S
C432 C448 1.368 . S
H433 C441 0.950 . S
H434 C439 0.950 . S
H435 C440 0.949 . S
H436 C442 0.950 . S
H437 C443 0.950 . S
H438 C444 0.949 . S
C439 H434 0.950 . S
C439 C441 1.327 . S
C439 C445 1.429 . S
C440 C432 1.574 . S
C440 H435 0.949 . S
C440 C446 1.368 . S
C441 C425 1.349 . S
C441 H433 0.950 . S
C441 C439 1.327 . S
C442 C430 1.349 . S
C442 H436 0.950 . S
C442 C443 1.327 . S
C443 H437 0.950 . S
C443 C442 1.327 . S
C443 C447 1.429 . S
C444 C427 1.574 . S
C444 H438 0.949 . S
C444 C448 1.368 . S
C445 C426 1.429 . S
C445 C439 1.429 . S
C445 C446 1.523 . S
C446 C427 1.368 . S
C446 C440 1.368 . S
C446 C445 1.523 . S
C447 C431 1.429 . S
C447 C443 1.429 . S
C447 C448 1.523 . S
C448 C432 1.368 . S
C448 C444 1.368 . S
C448 C447 1.523 . S
H449 C424 0.950 . S
H450 C426 0.950 . S
H451 C427 0.949 . S
H452 C429 0.950 1_565 S
H453 C431 0.950 . S
C454 C455 1.349 . S
C454 C456 1.327 . S
C454 H479 0.950 . S
C455 C454 1.349 . S
C455 C471 1.349 . S
C456 C454 1.327 . S
C456 C475 1.429 . S
C456 H480 0.950 . S
C457 C474 1.574 . S
C457 C476 1.368 . S
C457 H481 0.949 . S
H458 C462 0.949 . S
C459 C460 1.349 . S
C459 C461 1.327 . S
C459 H482 0.950 . S
C460 C459 1.349 . S
C460 C472 1.349 . S
C461 C459 1.327 . S
C461 C477 1.429 . S
C461 H483 0.950 . S
C462 H458 0.949 . S
C462 C470 1.574 . S
C462 C478 1.368 . S
H463 C471 0.950 . S
H464 C469 0.950 . S
H465 C470 0.949 . S
H466 C472 0.950 . S
H467 C473 0.950 . S
H468 C474 0.949 . S
C469 H464 0.950 . S
C469 C471 1.327 . S
C469 C475 1.429 . S
C470 C462 1.574 . S
C470 H465 0.949 . S
C470 C476 1.368 . S
C471 C455 1.349 . S
C471 H463 0.950 . S
C471 C469 1.327 . S
C472 C460 1.349 . S
C472 H466 0.950 . S
C472 C473 1.327 . S
C473 H467 0.950 . S
C473 C472 1.327 . S
C473 C477 1.429 . S
C474 C457 1.574 . S
C474 H468 0.949 . S
C474 C478 1.368 . S
C475 C456 1.429 . S
C475 C469 1.429 . S
C475 C476 1.523 . S
C476 C457 1.368 . S
C476 C470 1.368 . S
C476 C475 1.523 . S
C477 C461 1.429 . S
C477 C473 1.429 . S
C477 C478 1.523 . S
C478 C462 1.368 . S
C478 C474 1.368 . S
C478 C477 1.523 . S
H479 C454 0.950 . S
H480 C456 0.950 . S
H481 C457 0.949 . S
H482 C459 0.950 . S
H483 C461 0.950 . S
C484 C485 1.349 . S
C484 C486 1.327 . S
C484 H509 0.950 . S
C485 C484 1.349 . S
C485 C501 1.349 . S
C486 C484 1.327 . S
C486 C505 1.429 . S
C486 H510 0.950 . S
C487 C504 1.574 . S
C487 C506 1.368 . S
C487 H511 0.949 . S
H488 C492 0.949 . S
C489 C490 1.349 . S
C489 C491 1.327 . S
C489 H512 0.950 . S
C490 C489 1.349 . S
C490 C502 1.349 . S
C491 C489 1.327 . S
C491 C507 1.429 . S
C491 H513 0.950 . S
C492 H488 0.949 . S
C492 C500 1.574 . S
C492 C508 1.368 . S
H493 C501 0.950 . S
H494 C499 0.950 . S
H495 C500 0.949 . S
H496 C502 0.950 . S
H497 C503 0.950 . S
H498 C504 0.949 . S
C499 H494 0.950 . S
C499 C501 1.327 . S
C499 C505 1.429 . S
C500 C492 1.574 . S
C500 H495 0.949 . S
C500 C506 1.368 . S
C501 C485 1.349 . S
C501 H493 0.950 . S
C501 C499 1.327 . S
C502 C490 1.349 . S
C502 H496 0.950 . S
C502 C503 1.327 . S
C503 H497 0.950 . S
C503 C502 1.327 . S
C503 C507 1.429 . S
C504 C487 1.574 . S
C504 H498 0.949 . S
C504 C508 1.368 . S
C505 C486 1.429 . S
C505 C499 1.429 . S
C505 C506 1.523 . S
C506 C487 1.368 . S
C506 C500 1.368 . S
C506 C505 1.523 . S
C507 C491 1.429 . S
C507 C503 1.429 . S
C507 C508 1.523 . S
C508 C492 1.368 . S
C508 C504 1.368 . S
C508 C507 1.523 . S
H509 C484 0.950 . S
H510 C486 0.950 . S
H511 C487 0.949 . S
H512 C489 0.950 . S
H513 C491 0.950 . S
C514 C515 1.349 . S
C514 C516 1.327 . S
C514 H539 0.950 . S
C515 C514 1.349 . S
C515 C531 1.349 . S
C516 C514 1.327 . S
C516 C535 1.429 . S
C516 H540 0.950 . S
C517 C534 1.574 . S
C517 C536 1.368 . S
C517 H541 0.949 . S
H518 C522 0.949 . S
C519 C520 1.349 . S
C519 C521 1.327 . S
C519 H542 0.950 . S
C520 C519 1.349 . S
C520 C532 1.349 . S
C521 C519 1.327 . S
C521 C537 1.429 . S
C521 H543 0.950 . S
C522 H518 0.949 . S
C522 C530 1.574 . S
C522 C538 1.368 . S
H523 C531 0.950 . S
H524 C529 0.950 . S
H525 C530 0.949 . S
H526 C532 0.935 1_655 S
H527 C533 0.950 . S
H528 C534 0.949 . S
C529 H524 0.950 . S
C529 C531 1.327 . S
C529 C535 1.429 . S
C530 C522 1.574 . S
C530 H525 0.949 . S
C530 C536 1.368 . S
C531 C515 1.349 . S
C531 H523 0.950 . S
C531 C529 1.327 . S
C532 C520 1.349 . S
C532 H526 0.935 1_455 S
C532 C533 1.327 . S
C533 H527 0.950 . S
C533 C532 1.327 . S
C533 C537 1.429 . S
C534 C517 1.574 . S
C534 H528 0.949 . S
C534 C538 1.368 . S
C535 C516 1.429 . S
C535 C529 1.429 . S
C535 C536 1.523 . S
C536 C517 1.368 . S
C536 C530 1.368 . S
C536 C535 1.523 . S
C537 C521 1.429 . S
C537 C533 1.429 . S
C537 C538 1.523 . S
C538 C522 1.368 . S
C538 C534 1.368 . S
C538 C537 1.523 . S
H539 C514 0.950 . S
H540 C516 0.950 . S
H541 C517 0.949 . S
H542 C519 0.950 . S
H543 C521 0.950 . S
C544 C545 1.349 . S
C544 C546 1.327 . S
C544 H569 0.950 . S
C545 C544 1.349 . S
C545 C561 1.349 . S
C546 C544 1.327 . S
C546 C565 1.429 . S
C546 H570 0.950 1_554 S
C547 C564 1.574 . S
C547 C566 1.368 . S
C547 H571 0.949 1_556 S
H548 C552 0.949 . S
C549 C550 1.349 1_545 S
C549 C551 1.327 . S
C549 H572 0.950 . S
C550 C549 1.349 1_565 S
C550 C562 1.349 . S
C551 C549 1.327 . S
C551 C567 1.429 1_545 S
C551 H573 0.950 . S
C552 H548 0.949 . S
C552 C560 1.574 . S
C552 C568 1.368 . S
H553 C561 0.950 . S
H554 C559 0.950 . S
H555 C560 0.949 . S
H556 C562 0.950 . S
H557 C563 0.950 . S
H558 C564 0.949 1_545 S
C559 H554 0.950 . S
C559 C561 1.327 . S
C559 C565 1.429 . S
C560 C552 1.574 . S
C560 H555 0.949 . S
C560 C566 1.368 . S
C561 C545 1.349 . S
C561 H553 0.950 . S
C561 C559 1.327 . S
C562 C550 1.349 . S
C562 H556 0.950 . S
C562 C563 1.327 . S
C563 H557 0.950 . S
C563 C562 1.327 . S
C563 C567 1.429 . S
C564 C547 1.574 . S
C564 H558 0.949 1_565 S
C564 C568 1.368 . S
C565 C546 1.429 . S
C565 C559 1.429 . S
C565 C566 1.523 1_554 S
C566 C547 1.368 . S
C566 C560 1.368 . S
C566 C565 1.523 1_556 S
C567 C551 1.429 1_565 S
C567 C563 1.429 . S
C567 C568 1.523 . S
C568 C552 1.368 . S
C568 C564 1.368 . S
C568 C567 1.523 . S
H569 C544 0.950 . S
H570 C546 0.950 1_556 S
H571 C547 0.949 1_554 S
H572 C549 0.950 . S
H573 C551 0.950 . S
C574 C575 1.349 . S
C574 C576 1.327 . S
C574 H599 0.950 . S
C575 C574 1.349 . S
C575 C591 1.349 . S
C576 C574 1.327 . S
C576 C595 1.429 . S
C576 H600 0.950 1_554 S
C577 C594 1.574 . S
C577 C596 1.368 . S
C577 H601 0.949 1_556 S
H578 C582 0.949 . S
C579 C580 1.349 . S
C579 C581 1.327 . S
C579 H602 0.950 . S
C580 C579 1.349 . S
C580 C592 1.349 . S
C581 C579 1.327 . S
C581 C597 1.429 . S
C581 H603 0.950 . S
C582 H578 0.949 . S
C582 C590 1.574 . S
C582 C598 1.368 . S
H583 C591 0.950 . S
H584 C589 0.950 . S
H585 C590 0.949 . S
H586 C592 0.950 . S
H587 C593 0.950 . S
H588 C594 0.949 . S
C589 H584 0.950 . S
C589 C591 1.327 . S
C589 C595 1.429 . S
C590 C582 1.574 . S
C590 H585 0.949 . S
C590 C596 1.368 . S
C591 C575 1.349 . S
C591 H583 0.950 . S
C591 C589 1.327 . S
C592 C580 1.349 . S
C592 H586 0.950 . S
C592 C593 1.327 . S
C593 H587 0.950 . S
C593 C592 1.327 . S
C593 C597 1.429 . S
C594 C577 1.574 . S
C594 H588 0.949 . S
C594 C598 1.368 . S
C595 C576 1.429 . S
C595 C589 1.429 . S
C595 C596 1.523 1_554 S
C596 C577 1.368 . S
C596 C590 1.368 . S
C596 C595 1.523 1_556 S
C597 C581 1.429 . S
C597 C593 1.429 . S
C597 C598 1.523 . S
C598 C582 1.368 . S
C598 C594 1.368 . S
C598 C597 1.523 . S
H599 C574 0.950 . S
H600 C576 0.950 1_556 S
H601 C577 0.949 1_554 S
H602 C579 0.950 . S
H603 C581 0.950 . S
C604 C605 1.349 . S
C604 C606 1.327 . S
C604 H629 0.950 . S
C605 C604 1.349 . S
C605 C621 1.349 . S
C606 C604 1.327 . S
C606 C625 1.429 . S
C606 H630 0.950 . S
C607 C624 1.574 . S
C607 C626 1.368 . S
C607 H631 0.949 . S
H608 C612 0.949 . S
C609 C610 1.349 . S
C609 C611 1.327 . S
C609 H632 0.950 . S
C610 C609 1.349 . S
C610 C622 1.349 . S
C611 C609 1.327 . S
C611 C627 1.429 . S
C611 H633 0.950 . S
C612 H608 0.949 . S
C612 C620 1.574 . S
C612 C628 1.368 . S
H613 C621 0.950 . S
H614 C619 0.950 . S
H615 C620 0.949 . S
H616 C622 0.950 . S
H617 C623 0.950 . S
H618 C624 0.949 . S
C619 H614 0.950 . S
C619 C621 1.327 . S
C619 C625 1.429 . S
C620 C612 1.574 . S
C620 H615 0.949 . S
C620 C626 1.368 . S
C621 C605 1.349 . S
C621 H613 0.950 . S
C621 C619 1.327 . S
C622 C610 1.349 . S
C622 H616 0.950 . S
C622 C623 1.327 . S
C623 H617 0.950 . S
C623 C622 1.327 . S
C623 C627 1.429 . S
C624 C607 1.574 . S
C624 H618 0.949 . S
C624 C628 1.368 . S
C625 C606 1.429 . S
C625 C619 1.429 . S
C625 C626 1.523 1_554 S
C626 C607 1.368 . S
C626 C620 1.368 . S
C626 C625 1.523 1_556 S
C627 C611 1.429 . S
C627 C623 1.429 . S
C627 C628 1.523 . S
C628 C612 1.368 . S
C628 C624 1.368 . S
C628 C627 1.523 . S
H629 C604 0.950 . S
H630 C606 0.950 . S
H631 C607 0.949 . S
H632 C609 0.950 . S
H633 C611 0.950 . S
C634 C635 1.349 . S
C634 C636 1.327 . S
C634 H659 0.950 . S
C635 C634 1.349 . S
C635 C651 1.349 . S
C636 C634 1.327 . S
C636 C655 1.429 . S
C636 H660 0.950 . S
C637 C654 1.574 . S
C637 C656 1.368 . S
C637 H661 0.949 . S
H638 C642 0.949 . S
C639 C640 1.349 1_455 S
C639 C641 1.327 1_455 S
C639 H662 0.950 . S
C640 C639 1.349 1_655 S
C640 C652 1.349 . S
C641 C639 1.327 1_655 S
C641 C657 1.429 . S
C641 H663 0.950 1_655 S
C642 H638 0.949 . S
C642 C650 1.574 . S
C642 C658 1.368 . S
H643 C651 0.950 . S
H644 C649 0.942 1_556 S
H645 C650 0.949 1_554 S
H646 C652 0.950 . S
H647 C653 0.950 . S
H648 C654 0.988 . S
C649 H644 0.942 1_554 S
C649 C651 1.327 . S
C649 C655 1.429 . S
C650 C642 1.574 . S
C650 H645 0.949 1_556 S
C650 C656 1.368 . S
C651 C635 1.349 . S
C651 H643 0.950 . S
C651 C649 1.327 . S
C652 C640 1.349 . S
C652 H646 0.950 . S
C652 C653 1.327 . S
C653 H647 0.950 . S
C653 C652 1.327 . S
C653 C657 1.429 . S
C654 C637 1.574 . S
C654 H648 0.988 . S
C654 C658 1.368 . S
C655 C636 1.429 . S
C655 C649 1.429 . S
C655 C656 1.523 1_554 S
C656 C637 1.368 . S
C656 C650 1.368 . S
C656 C655 1.523 1_556 S
C657 C641 1.429 . S
C657 C653 1.429 . S
C657 C658 1.523 . S
C658 C642 1.368 . S
C658 C654 1.368 . S
C658 C657 1.523 . S
H659 C634 0.950 . S
H660 C636 0.950 . S
H661 C637 0.949 . S
H662 C639 0.950 . S
H663 C641 0.950 1_455 S
C664 C665 1.349 . S
C664 C666 1.327 . S
C664 H689 0.950 . S
C665 C664 1.349 . S
C665 C681 1.349 . S
C666 C664 1.327 . S
C666 C685 1.429 . S
C666 H690 0.950 . S
C667 C684 1.574 . S
C667 C686 1.368 . S
C667 H691 0.949 . S
H668 C672 0.949 . S
C669 C670 1.349 . S
C669 C671 1.327 . S
C669 H692 0.950 . S
C670 C669 1.349 . S
C670 C682 1.349 . S
C671 C669 1.327 . S
C671 C687 1.429 . S
C671 H693 0.950 . S
C672 H668 0.949 . S
C672 C680 1.574 . S
C672 C688 1.368 . S
H673 C681 0.950 1_556 S
H674 C679 0.950 . S
H675 C680 0.949 . S
H676 C682 0.950 . S
H677 C683 0.950 . S
H678 C684 0.949 . S
C679 H674 0.950 . S
C679 C681 1.327 . S
C679 C685 1.429 . S
C680 C672 1.574 . S
C680 H675 0.949 . S
C680 C686 1.368 . S
C681 C665 1.349 . S
C681 H673 0.950 1_554 S
C681 C679 1.327 . S
C682 C670 1.349 . S
C682 H676 0.950 . S
C682 C683 1.327 . S
C683 H677 0.950 . S
C683 C682 1.327 . S
C683 C687 1.429 . S
C684 C667 1.574 . S
C684 H678 0.949 . S
C684 C688 1.368 . S
C685 C666 1.429 . S
C685 C679 1.429 . S
C685 C686 1.523 . S
C686 C667 1.368 . S
C686 C680 1.368 . S
C686 C685 1.523 . S
C687 C671 1.429 . S
C687 C683 1.429 . S
C687 C688 1.523 . S
C688 C672 1.368 . S
C688 C684 1.368 . S
C688 C687 1.523 . S
H689 C664 0.950 . S
H690 C666 0.950 . S
H691 C667 0.949 . S
H692 C669 0.950 . S
H693 C671 0.950 . S
C694 C695 1.349 . S
C694 C696 1.327 . S
C694 H719 0.950 . S
C695 C694 1.349 . S
C695 C711 1.349 . S
C696 C694 1.327 . S
C696 C715 1.429 . S
C696 H720 0.950 . S
C697 C714 1.574 . S
C697 C716 1.368 . S
C697 H721 0.949 . S
H698 C702 0.949 . S
C699 C700 1.349 . S
C699 C701 1.327 . S
C699 H722 0.967 . S
C700 C699 1.349 . S
C700 C712 1.349 . S
C701 C699 1.327 . S
C701 C717 1.429 . S
C701 H723 0.950 . S
C702 H698 0.949 . S
C702 C710 1.574 . S
C702 C718 1.368 . S
H703 C711 0.950 1_556 S
H704 C709 0.950 . S
H705 C710 0.949 . S
H706 C712 0.950 . S
H707 C713 0.950 . S
H708 C714 0.949 . S
C709 H704 0.950 . S
C709 C711 1.327 . S
C709 C715 1.429 . S
C710 C702 1.574 . S
C710 H705 0.949 . S
C710 C716 1.368 . S
C711 C695 1.349 . S
C711 H703 0.950 1_554 S
C711 C709 1.327 . S
C712 C700 1.349 . S
C712 H706 0.950 . S
C712 C713 1.327 . S
C713 H707 0.950 . S
C713 C712 1.327 . S
C713 C717 1.429 . S
C714 C697 1.574 . S
C714 H708 0.949 . S
C714 C718 1.368 . S
C715 C696 1.429 . S
C715 C709 1.429 . S
C715 C716 1.523 . S
C716 C697 1.368 . S
C716 C710 1.368 . S
C716 C715 1.523 . S
C717 C701 1.429 . S
C717 C713 1.429 . S
C717 C718 1.523 . S
C718 C702 1.368 . S
C718 C714 1.368 . S
C718 C717 1.523 . S
H719 C694 0.950 . S
H720 C696 0.950 . S
H721 C697 0.949 . S
H722 C699 0.967 . S
H723 C701 0.950 . S
C724 C725 1.349 . S
C724 C726 1.327 . S
C724 H749 0.937 1_554 S
C725 C724 1.349 . S
C725 C741 1.349 . S
C726 C724 1.327 . S
C726 C745 1.429 . S
C726 H750 0.950 . S
C727 C744 1.574 . S
C727 C746 1.368 . S
C727 H751 0.949 . S
H728 C732 0.949 . S
C729 C730 1.349 . S
C729 C731 1.327 . S
C729 H752 0.950 . S
C730 C729 1.349 . S
C730 C742 1.349 . S
C731 C729 1.327 . S
C731 C747 1.429 . S
C731 H753 0.950 . S
C732 H728 0.949 . S
C732 C740 1.574 . S
C732 C748 1.368 . S
H733 C741 0.950 . S
H734 C739 0.950 . S
H735 C740 0.949 . S
H736 C742 0.950 . S
H737 C743 0.950 . S
H738 C744 0.949 . S
C739 H734 0.950 . S
C739 C741 1.327 . S
C739 C745 1.429 . S
C740 C732 1.574 . S
C740 H735 0.949 . S
C740 C746 1.368 . S
C741 C725 1.349 . S
C741 H733 0.950 . S
C741 C739 1.327 . S
C742 C730 1.349 . S
C742 H736 0.950 . S
C742 C743 1.327 . S
C743 H737 0.950 . S
C743 C742 1.327 . S
C743 C747 1.429 . S
C744 C727 1.574 . S
C744 H738 0.949 . S
C744 C748 1.368 . S
C745 C726 1.429 . S
C745 C739 1.429 . S
C745 C746 1.523 . S
C746 C727 1.368 . S
C746 C740 1.368 . S
C746 C745 1.523 . S
C747 C731 1.429 . S
C747 C743 1.429 . S
C747 C748 1.523 . S
C748 C732 1.368 . S
C748 C744 1.368 . S
C748 C747 1.523 . S
H749 C724 0.937 1_556 S
H750 C726 0.950 . S
H751 C727 0.949 . S
H752 C729 0.950 . S
H753 C731 0.950 . S
C754 C755 1.349 . S
C754 C756 1.327 . S
C754 H779 0.950 . S
C755 C754 1.349 . S
C755 C771 1.349 . S
C756 C754 1.327 . S
C756 C775 1.429 . S
C756 H780 0.950 . S
C757 C774 1.574 . S
C757 C776 1.368 . S
C757 H781 0.949 . S
H758 C762 0.949 . S
C759 C760 1.349 . S
C759 C761 1.327 . S
C759 H782 0.950 . S
C760 C759 1.349 . S
C760 C772 1.349 . S
C761 C759 1.327 . S
C761 C777 1.429 . S
C761 H783 0.950 . S
C762 H758 0.949 . S
C762 C770 1.574 . S
C762 C778 1.368 . S
H763 C771 0.950 . S
H764 C769 0.950 . S
H765 C770 0.949 . S
H766 C772 0.950 . S
H767 C773 0.950 . S
H768 C774 0.949 . S
C769 H764 0.950 . S
C769 C771 1.327 . S
C769 C775 1.429 . S
C770 C762 1.574 . S
C770 H765 0.949 . S
C770 C776 1.368 . S
C771 C755 1.349 . S
C771 H763 0.950 . S
C771 C769 1.327 . S
C772 C760 1.349 . S
C772 H766 0.950 . S
C772 C773 1.327 . S
C773 H767 0.950 . S
C773 C772 1.327 . S
C773 C777 1.429 . S
C774 C757 1.574 . S
C774 H768 0.949 . S
C774 C778 1.368 . S
C775 C756 1.429 . S
C775 C769 1.429 . S
C775 C776 1.523 . S
C776 C757 1.368 . S
C776 C770 1.368 . S
C776 C775 1.523 . S
C777 C761 1.429 . S
C777 C773 1.429 . S
C777 C778 1.523 . S
C778 C762 1.368 . S
C778 C774 1.368 . S
C778 C777 1.523 . S
H779 C754 0.950 . S
H780 C756 0.950 . S
H781 C757 0.949 . S
H782 C759 0.950 . S
H783 C761 0.950 . S
C784 C785 1.349 . S
C784 C786 1.327 . S
C784 H809 0.950 . S
C785 C784 1.349 . S
C785 C801 1.349 . S
C786 C784 1.327 . S
C786 C805 1.429 . S
C786 H810 0.950 . S
C787 C804 1.574 . S
C787 C806 1.368 1_556 S
C787 H811 0.949 . S
H788 C792 0.949 . S
C789 C790 1.349 1_655 S
C789 C791 1.327 . S
C789 H812 0.950 . S
C790 C789 1.349 1_455 S
C790 C802 1.349 . S
C791 C789 1.327 . S
C791 C807 1.429 . S
C791 H813 0.950 . S
C792 H788 0.949 . S
C792 C800 1.574 . S
C792 C808 1.368 1_554 S
H793 C801 0.950 . S
H794 C799 0.950 1_556 S
H795 C800 0.949 . S
H796 C802 0.950 . S
H797 C803 0.949 1_454 S
H798 C804 0.949 . S
C799 H794 0.950 1_554 S
C799 C801 1.327 . S
C799 C805 1.429 . S
C800 C792 1.574 . S
C800 H795 0.949 . S
C800 C806 1.368 . S
C801 C785 1.349 . S
C801 H793 0.950 . S
C801 C799 1.327 . S
C802 C790 1.349 . S
C802 H796 0.950 . S
C802 C803 1.324 1_455 S
C803 H797 0.949 1_656 S
C803 C802 1.324 1_655 S
C803 C807 1.433 . S
C804 C787 1.574 . S
C804 H798 0.949 . S
C804 C808 1.368 . S
C805 C786 1.429 . S
C805 C799 1.429 . S
C805 C806 1.523 . S
C806 C787 1.368 1_554 S
C806 C800 1.368 . S
C806 C805 1.523 . S
C807 C791 1.429 . S
C807 C803 1.433 . S
C807 C808 1.523 . S
C808 C792 1.368 1_556 S
C808 C804 1.368 . S
C808 C807 1.523 . S
H809 C784 0.950 . S
H810 C786 0.950 . S
H811 C787 0.949 . S
H812 C789 0.950 . S
H813 C791 0.950 . S
C814 C815 1.349 . S
C814 C816 1.327 . S
C814 H839 0.950 . S
C815 C814 1.349 . S
C815 C831 1.349 . S
C816 C814 1.327 . S
C816 C835 1.429 . S
C816 H840 0.950 . S
C817 C834 1.574 1_554 S
C817 C836 1.368 . S
C817 H841 0.949 . S
H818 C822 0.949 . S
C819 C820 1.349 1_565 S
C819 C821 1.327 . S
C819 H842 0.950 . S
C820 C819 1.349 1_545 S
C820 C832 1.349 . S
C821 C819 1.327 . S
C821 C837 1.429 . S
C821 H843 0.950 . S
C822 H818 0.949 . S
C822 C830 1.574 1_545 S
C822 C838 1.368 1_544 S
H823 C831 0.950 . S
H824 C829 0.950 . S
H825 C830 0.949 1_545 S
H826 C832 0.950 . S
H827 C833 0.950 . S
H828 C834 0.949 . S
C829 H824 0.950 . S
C829 C831 1.327 . S
C829 C835 1.429 . S
C830 C822 1.574 1_565 S
C830 H825 0.949 1_565 S
C830 C836 1.368 . S
C831 C815 1.349 . S
C831 H823 0.950 . S
C831 C829 1.327 . S
C832 C820 1.349 . S
C832 H826 0.950 . S
C832 C833 1.327 . S
C833 H827 0.950 . S
C833 C832 1.327 . S
C833 C837 1.429 1_545 S
C834 C817 1.574 1_556 S
C834 H828 0.949 . S
C834 C838 1.368 . S
C835 C816 1.429 . S
C835 C829 1.429 . S
C835 C836 1.523 . S
C836 C817 1.368 . S
C836 C830 1.368 . S
C836 C835 1.523 . S
C837 C821 1.429 . S
C837 C833 1.429 1_565 S
C837 C838 1.523 . S
C838 C822 1.368 1_566 S
C838 C834 1.368 . S
C838 C837 1.523 . S
H839 C814 0.950 . S
H840 C816 0.950 . S
H841 C817 0.949 . S
H842 C819 0.950 . S
H843 C821 0.950 . S
C844 C845 1.349 . S
C844 C846 1.327 . S
C844 H869 0.950 . S
C845 C844 1.349 . S
C845 C861 1.349 . S
C846 C844 1.327 . S
C846 C865 1.429 . S
C846 H870 0.950 . S
C847 C864 1.574 . S
C847 C866 1.368 1_556 S
C847 H871 0.949 . S
H848 C852 0.949 . S
C849 C850 1.349 . S
C849 C851 1.327 . S
C849 H872 0.950 . S
C850 C849 1.349 . S
C850 C862 1.349 . S
C851 C849 1.327 . S
C851 C867 1.429 . S
C851 H873 0.950 . S
C852 H848 0.949 . S
C852 C860 1.574 . S
C852 C868 1.368 1_554 S
H853 C861 0.950 . S
H854 C859 0.950 1_556 S
H855 C860 0.949 . S
H856 C862 0.950 . S
H857 C863 0.950 1_554 S
H858 C864 0.949 . S
C859 H854 0.950 1_554 S
C859 C861 1.327 . S
C859 C865 1.429 . S
C860 C852 1.574 . S
C860 H855 0.949 . S
C860 C866 1.368 . S
C861 C845 1.349 . S
C861 H853 0.950 . S
C861 C859 1.327 . S
C862 C850 1.349 . S
C862 H856 0.950 . S
C862 C863 1.327 . S
C863 H857 0.950 1_556 S
C863 C862 1.327 . S
C863 C867 1.429 . S
C864 C847 1.574 . S
C864 H858 0.949 . S
C864 C868 1.368 . S
C865 C846 1.429 . S
C865 C859 1.429 . S
C865 C866 1.523 . S
C866 C847 1.368 1_554 S
C866 C860 1.368 . S
C866 C865 1.523 . S
C867 C851 1.429 . S
C867 C863 1.429 . S
C867 C868 1.523 . S
C868 C852 1.368 1_556 S
C868 C864 1.368 . S
C868 C867 1.523 . S
H869 C844 0.950 . S
H870 C846 0.950 . S
H871 C847 0.949 . S
H872 C849 0.950 . S
H873 C851 0.950 . S
C874 C875 1.349 . S
C874 C876 1.327 . S
C874 H899 0.950 . S
C875 C874 1.349 . S
C875 C891 1.349 . S
C876 C874 1.327 . S
C876 C895 1.429 . S
C876 H900 0.950 . S
C877 C894 1.574 . S
C877 C896 1.368 . S
C877 H901 0.949 . S
H878 C882 0.949 . S
C879 C880 1.349 . S
C879 C881 1.327 . S
C879 H902 0.950 . S
C880 C879 1.349 . S
C880 C892 1.349 . S
C881 C879 1.327 . S
C881 C897 1.429 . S
C881 H903 0.938 1_556 S
C882 H878 0.949 . S
C882 C890 1.574 . S
C882 C898 1.368 . S
H883 C891 0.950 . S
H884 C889 0.950 . S
H885 C890 0.949 . S
H886 C892 0.950 . S
H887 C893 0.950 . S
H888 C894 0.949 . S
C889 H884 0.950 . S
C889 C891 1.327 . S
C889 C895 1.429 . S
C890 C882 1.574 . S
C890 H885 0.949 . S
C890 C896 1.368 1_556 S
C891 C875 1.349 . S
C891 H883 0.950 . S
C891 C889 1.327 . S
C892 C880 1.349 . S
C892 H886 0.950 . S
C892 C893 1.327 . S
C893 H887 0.950 . S
C893 C892 1.327 . S
C893 C897 1.429 . S
C894 C877 1.574 . S
C894 H888 0.949 . S
C894 C898 1.368 1_554 S
C895 C876 1.429 . S
C895 C889 1.429 . S
C895 C896 1.523 . S
C896 C877 1.368 . S
C896 C890 1.368 1_554 S
C896 C895 1.523 . S
C897 C881 1.429 . S
C897 C893 1.429 . S
C897 C898 1.523 . S
C898 C882 1.368 . S
C898 C894 1.368 1_556 S
C898 C897 1.523 . S
H899 C874 0.950 . S
H900 C876 0.950 . S
H901 C877 0.949 . S
H902 C879 0.950 . S
H903 C881 0.938 1_554 S
C904 C905 1.349 . S
C904 C906 1.327 . S
C904 H929 0.950 . S
C905 C904 1.349 . S
C905 C921 1.349 . S
C906 C904 1.327 . S
C906 C925 1.429 . S
C906 H930 0.950 . S
C907 C924 1.574 . S
C907 C926 1.368 . S
C907 H931 0.949 . S
H908 C912 0.949 . S
C909 C910 1.349 . S
C909 C911 1.327 . S
C909 H932 0.950 . S
C910 C909 1.349 . S
C910 C922 1.349 . S
C911 C909 1.327 . S
C911 C927 1.429 . S
C911 H933 0.950 . S
C912 H908 0.949 . S
C912 C920 1.574 . S
C912 C928 1.368 . S
H913 C921 0.950 . S
H914 C919 0.950 . S
H915 C920 0.949 . S
H916 C922 0.954 1_655 S
H917 C923 0.950 . S
H918 C924 0.949 . S
C919 H914 0.950 . S
C919 C921 1.327 . S
C919 C925 1.429 . S
C920 C912 1.574 . S
C920 H915 0.949 . S
C920 C926 1.368 . S
C921 C905 1.349 . S
C921 H913 0.950 . S
C921 C919 1.327 . S
C922 C910 1.349 . S
C922 H916 0.954 1_455 S
C922 C923 1.327 . S
C923 H917 0.950 . S
C923 C922 1.327 . S
C923 C927 1.429 . S
C924 C907 1.574 . S
C924 H918 0.949 . S
C924 C928 1.368 . S
C925 C906 1.429 . S
C925 C919 1.429 . S
C925 C926 1.523 . S
C926 C907 1.368 . S
C926 C920 1.368 . S
C926 C925 1.523 . S
C927 C911 1.429 . S
C927 C923 1.429 . S
C927 C928 1.523 . S
C928 C912 1.368 . S
C928 C924 1.368 . S
C928 C927 1.523 . S
H929 C904 0.950 . S
H930 C906 0.950 . S
H931 C907 0.949 . S
H932 C909 0.950 . S
H933 C911 0.950 . S
C934 C935 1.349 . S
C934 C936 1.327 . S
C934 H959 0.950 . S
C935 C934 1.349 . S
C935 C951 1.349 . S
C936 C934 1.327 . S
C936 C955 1.429 . S
C936 H960 0.950 . S
C937 C954 1.574 . S
C937 C956 1.368 . S
C937 H961 0.949 . S
H938 C942 0.949 . S
C939 C940 1.349 . S
C939 C941 1.327 . S
C939 H962 0.950 . S
C940 C939 1.349 . S
C940 C952 1.349 . S
C941 C939 1.327 . S
C941 C957 1.429 . S
C941 H963 0.950 . S
C942 H938 0.949 . S
C942 C950 1.574 . S
C942 C958 1.368 . S
H943 C951 0.950 . S
H944 C949 0.950 . S
H945 C950 0.949 . S
H946 C952 0.950 1_565 S
H947 C953 0.950 . S
H948 C954 0.949 . S
C949 H944 0.950 . S
C949 C951 1.327 . S
C949 C955 1.429 . S
C950 C942 1.574 . S
C950 H945 0.949 . S
C950 C956 1.368 . S
C951 C935 1.349 . S
C951 H943 0.950 . S
C951 C949 1.327 . S
C952 C940 1.349 . S
C952 H946 0.950 1_545 S
C952 C953 1.327 . S
C953 H947 0.950 . S
C953 C952 1.327 . S
C953 C957 1.429 . S
C954 C937 1.574 . S
C954 H948 0.949 . S
C954 C958 1.368 . S
C955 C936 1.429 . S
C955 C949 1.429 . S
C955 C956 1.523 . S
C956 C937 1.368 . S
C956 C950 1.368 . S
C956 C955 1.523 . S
C957 C941 1.429 . S
C957 C953 1.429 . S
C957 C958 1.523 . S
C958 C942 1.368 . S
C958 C954 1.368 . S
C958 C957 1.523 . S
H959 C934 0.950 . S
H960 C936 0.950 . S
H961 C937 0.949 . S
H962 C939 0.950 . S
H963 C941 0.950 . S
C964 C965 1.349 . S
C964 C966 1.327 . S
C964 H989 0.950 . S
C965 C964 1.349 . S
C965 C981 1.349 . S
C966 C964 1.327 . S
C966 C985 1.429 . S
C966 H990 0.950 . S
C967 C984 1.574 . S
C967 C986 1.368 . S
C967 H991 0.949 . S
H968 C972 0.949 . S
C969 C970 1.349 . S
C969 C971 1.327 . S
C969 H992 0.950 . S
C970 C969 1.349 . S
C970 C982 1.349 . S
C971 C969 1.327 . S
C971 C987 1.429 . S
C971 H993 0.950 . S
C972 H968 0.949 . S
C972 C980 1.574 . S
C972 C988 1.368 . S
H973 C981 0.950 . S
H974 C979 0.950 . S
H975 C980 0.949 . S
H976 C982 0.950 . S
H977 C983 0.950 . S
H978 C984 0.949 . S
C979 H974 0.950 . S
C979 C981 1.327 . S
C979 C985 1.429 . S
C980 C972 1.574 . S
C980 H975 0.949 . S
C980 C986 1.368 . S
C981 C965 1.349 . S
C981 H973 0.950 . S
C981 C979 1.327 . S
C982 C970 1.349 . S
C982 H976 0.950 . S
C982 C983 1.327 . S
C983 H977 0.950 . S
C983 C982 1.327 . S
C983 C987 1.429 . S
C984 C967 1.574 . S
C984 H978 0.949 . S
C984 C988 1.368 . S
C985 C966 1.429 . S
C985 C979 1.429 . S
C985 C986 1.523 . S
C986 C967 1.368 . S
C986 C980 1.368 . S
C986 C985 1.523 . S
C987 C971 1.429 . S
C987 C983 1.429 . S
C987 C988 1.523 . S
C988 C972 1.368 . S
C988 C984 1.368 . S
C988 C987 1.523 . S
H989 C964 0.950 . S
H990 C966 0.950 . S
H991 C967 0.949 . S
H992 C969 0.950 . S
H993 C971 0.950 . S
C994 C995 1.349 . S
C994 C996 1.327 . S
C994 H1019 0.950 . S
C995 C994 1.349 . S
C995 C1011 1.349 . S
C996 C994 1.327 . S
C996 C1015 1.429 . S
C996 H1020 0.950 . S
C997 C1014 1.574 . S
C997 C1016 1.368 . S
C997 H1021 0.949 . S
H998 C1002 0.949 . S
C999 C1000 1.349 . S
C999 C1001 1.327 . S
C999 H1022 0.950 . S
C1000 C999 1.349 . S
C1000 C1012 1.349 . S
C1001 C999 1.327 . S
C1001 C1017 1.429 . S
C1001 H1023 0.950 . S
C1002 H998 0.949 . S
C1002 C1010 1.574 . S
C1002 C1018 1.368 . S
H1003 C1011 0.950 . S
H1004 C1009 0.950 . S
H1005 C1010 0.949 . S
H1006 C1012 0.950 . S
H1007 C1013 0.950 . S
H1008 C1014 0.949 . S
C1009 H1004 0.950 . S
C1009 C1011 1.327 . S
C1009 C1015 1.429 . S
C1010 C1002 1.574 . S
C1010 H1005 0.949 . S
C1010 C1016 1.368 . S
C1011 C995 1.349 . S
C1011 H1003 0.950 . S
C1011 C1009 1.327 . S
C1012 C1000 1.349 . S
C1012 H1006 0.950 . S
C1012 C1013 1.327 . S
C1013 H1007 0.950 . S
C1013 C1012 1.327 . S
C1013 C1017 1.429 . S
C1014 C997 1.574 . S
C1014 H1008 0.949 . S
C1014 C1018 1.368 . S
C1015 C996 1.429 . S
C1015 C1009 1.429 . S
C1015 C1016 1.523 . S
C1016 C997 1.368 . S
C1016 C1010 1.368 . S
C1016 C1015 1.523 . S
C1017 C1001 1.429 . S
C1017 C1013 1.429 . S
C1017 C1018 1.523 . S
C1018 C1002 1.368 . S
C1018 C1014 1.368 . S
C1018 C1017 1.523 . S
H1019 C994 0.950 . S
H1020 C996 0.950 . S
H1021 C997 0.949 . S
H1022 C999 0.950 . S
H1023 C1001 0.950 . S
C1024 C1025 1.349 . S
C1024 C1026 1.327 . S
C1024 H1049 0.950 . S
C1025 C1024 1.349 . S
C1025 C1041 1.349 . S
C1026 C1024 1.327 . S
C1026 C1045 1.429 . S
C1026 H1050 0.950 . S
C1027 C1044 1.574 . S
C1027 C1046 1.368 . S
C1027 H1051 0.949 . S
H1028 C1032 0.949 . S
C1029 C1030 1.371 . S
C1029 C1031 1.333 . S
C1029 H1052 0.921 1_655 S
C1030 C1029 1.371 . S
C1030 C1042 1.349 . S
C1031 C1029 1.333 . S
C1031 C1047 1.429 . S
C1031 H1053 0.950 1_655 S
C1032 H1028 0.949 . S
C1032 C1040 1.574 . S
C1032 C1048 1.368 . S
H1033 C1041 0.950 . S
H1034 C1039 0.950 . S
H1035 C1040 0.949 . S
H1036 C1042 0.950 . S
H1037 C1043 0.950 . S
H1038 C1044 0.938 1_455 S
C1039 H1034 0.950 . S
C1039 C1041 1.327 . S
C1039 C1045 1.429 . S
C1040 C1032 1.574 . S
C1040 H1035 0.949 . S
C1040 C1046 1.368 . S
C1041 C1025 1.349 . S
C1041 H1033 0.950 . S
C1041 C1039 1.327 . S
C1042 C1030 1.349 . S
C1042 H1036 0.950 . S
C1042 C1043 1.327 . S
C1043 H1037 0.950 . S
C1043 C1042 1.327 . S
C1043 C1047 1.429 . S
C1044 C1027 1.574 . S
C1044 H1038 0.938 1_655 S
C1044 C1048 1.368 . S
C1045 C1026 1.429 . S
C1045 C1039 1.429 . S
C1045 C1046 1.523 . S
C1046 C1027 1.368 . S
C1046 C1040 1.368 . S
C1046 C1045 1.523 . S
C1047 C1031 1.429 . S
C1047 C1043 1.429 . S
C1047 C1048 1.523 . S
C1048 C1032 1.368 . S
C1048 C1044 1.368 . S
C1048 C1047 1.523 . S
H1049 C1024 0.950 . S
H1050 C1026 0.950 . S
H1051 C1027 0.949 . S
H1052 C1029 0.921 1_455 S
H1053 C1031 0.950 1_455 S
C1054 C1055 1.349 . S
C1054 C1056 1.327 . S
C1054 H1079 0.950 . S
C1055 C1054 1.349 . S
C1055 C1071 1.349 . S
C1056 C1054 1.327 . S
C1056 C1075 1.429 . S
C1056 H1080 0.950 . S
C1057 C1074 1.574 . S
C1057 C1076 1.368 . S
C1057 H1081 0.949 . S
H1058 C1062 0.949 . S
C1059 C1060 1.349 . S
C1059 C1061 1.327 . S
C1059 H1082 0.950 1_565 S
C1060 C1059 1.349 . S
C1060 C1072 1.349 . S
C1061 C1059 1.327 . S
C1061 C1077 1.429 . S
C1061 H1083 0.950 . S
C1062 H1058 0.949 . S
C1062 C1070 1.574 . S
C1062 C1078 1.368 . S
H1063 C1071 0.950 . S
H1064 C1069 0.950 . S
H1065 C1070 0.949 . S
H1066 C1072 0.950 . S
H1067 C1073 0.950 . S
H1068 C1074 0.949 . S
C1069 H1064 0.950 . S
C1069 C1071 1.327 . S
C1069 C1075 1.429 . S
C1070 C1062 1.574 . S
C1070 H1065 0.949 . S
C1070 C1076 1.368 . S
C1071 C1055 1.349 . S
C1071 H1063 0.950 . S
C1071 C1069 1.327 . S
C1072 C1060 1.349 . S
C1072 H1066 0.950 . S
C1072 C1073 1.327 . S
C1073 H1067 0.950 . S
C1073 C1072 1.327 . S
C1073 C1077 1.429 . S
C1074 C1057 1.574 . S
C1074 H1068 0.949 . S
C1074 C1078 1.368 . S
C1075 C1056 1.429 . S
C1075 C1069 1.429 . S
C1075 C1076 1.523 . S
C1076 C1057 1.368 . S
C1076 C1070 1.368 . S
C1076 C1075 1.523 . S
C1077 C1061 1.429 . S
C1077 C1073 1.429 . S
C1077 C1078 1.523 . S
C1078 C1062 1.368 . S
C1078 C1074 1.368 . S
C1078 C1077 1.523 . S
H1079 C1054 0.950 . S
H1080 C1056 0.950 . S
H1081 C1057 0.949 . S
H1082 C1059 0.950 1_545 S
H1083 C1061 0.950 . S
C1084 C1085 1.349 . S
C1084 C1086 1.327 . S
C1084 H1109 0.950 . S
C1085 C1084 1.349 . S
C1085 C1101 1.349 . S
C1086 C1084 1.327 . S
C1086 C1105 1.429 . S
C1086 H1110 0.950 . S
C1087 C1104 1.574 . S
C1087 C1106 1.368 . S
C1087 H1111 0.949 . S
H1088 C1092 0.949 . S
C1089 C1090 1.349 . S
C1089 C1091 1.327 . S
C1089 H1112 0.950 . S
C1090 C1089 1.349 . S
C1090 C1102 1.349 . S
C1091 C1089 1.327 . S
C1091 C1107 1.429 . S
C1091 H1113 0.950 . S
C1092 H1088 0.949 . S
C1092 C1100 1.574 . S
C1092 C1108 1.368 . S
H1093 C1101 0.950 . S
H1094 C1099 0.950 . S
H1095 C1100 0.949 . S
H1096 C1102 0.950 . S
H1097 C1103 0.950 . S
H1098 C1104 0.949 . S
C1099 H1094 0.950 . S
C1099 C1101 1.327 . S
C1099 C1105 1.429 . S
C1100 C1092 1.574 . S
C1100 H1095 0.949 . S
C1100 C1106 1.368 . S
C1101 C1085 1.349 . S
C1101 H1093 0.950 . S
C1101 C1099 1.327 . S
C1102 C1090 1.349 . S
C1102 H1096 0.950 . S
C1102 C1103 1.327 . S
C1103 H1097 0.950 . S
C1103 C1102 1.327 . S
C1103 C1107 1.429 . S
C1104 C1087 1.574 . S
C1104 H1098 0.949 . S
C1104 C1108 1.368 . S
C1105 C1086 1.429 . S
C1105 C1099 1.429 . S
C1105 C1106 1.523 . S
C1106 C1087 1.368 . S
C1106 C1100 1.368 . S
C1106 C1105 1.523 . S
C1107 C1091 1.429 . S
C1107 C1103 1.429 . S
C1107 C1108 1.523 . S
C1108 C1092 1.368 . S
C1108 C1104 1.368 . S
C1108 C1107 1.523 . S
H1109 C1084 0.950 . S
H1110 C1086 0.950 . S
H1111 C1087 0.949 . S
H1112 C1089 0.950 . S
H1113 C1091 0.950 . S
C1114 C1115 1.349 . S
C1114 C1116 1.327 . S
C1114 H1139 0.950 . S
C1115 C1114 1.349 . S
C1115 C1131 1.349 . S
C1116 C1114 1.327 . S
C1116 C1135 1.429 . S
C1116 H1140 0.950 . S
C1117 C1134 1.574 . S
C1117 C1136 1.368 . S
C1117 H1141 0.949 . S
H1118 C1122 0.949 . S
C1119 C1120 1.349 . S
C1119 C1121 1.327 . S
C1119 H1142 0.950 . S
C1120 C1119 1.349 . S
C1120 C1132 1.349 . S
C1121 C1119 1.327 . S
C1121 C1137 1.429 . S
C1121 H1143 0.950 . S
C1122 H1118 0.949 . S
C1122 C1130 1.574 . S
C1122 C1138 1.368 . S
H1123 C1131 0.950 . S
H1124 C1129 0.950 . S
H1125 C1130 0.949 . S
H1126 C1132 0.950 . S
H1127 C1133 0.950 . S
H1128 C1134 0.949 . S
C1129 H1124 0.950 . S
C1129 C1131 1.327 . S
C1129 C1135 1.429 . S
C1130 C1122 1.574 . S
C1130 H1125 0.949 . S
C1130 C1136 1.368 . S
C1131 C1115 1.349 . S
C1131 H1123 0.950 . S
C1131 C1129 1.327 . S
C1132 C1120 1.349 . S
C1132 H1126 0.950 . S
C1132 C1133 1.327 . S
C1133 H1127 0.950 . S
C1133 C1132 1.327 . S
C1133 C1137 1.429 . S
C1134 C1117 1.574 . S
C1134 H1128 0.949 . S
C1134 C1138 1.368 . S
C1135 C1116 1.429 . S
C1135 C1129 1.429 . S
C1135 C1136 1.523 . S
C1136 C1117 1.368 . S
C1136 C1130 1.368 . S
C1136 C1135 1.523 . S
C1137 C1121 1.429 . S
C1137 C1133 1.429 . S
C1137 C1138 1.523 . S
C1138 C1122 1.368 . S
C1138 C1134 1.368 . S
C1138 C1137 1.523 . S
H1139 C1114 0.950 . S
H1140 C1116 0.950 . S
H1141 C1117 0.949 . S
H1142 C1119 0.950 . S
H1143 C1121 0.950 . S
C425 C76 1.802 . S
C430 C163 1.851 . S
C460 C247 1.881 . S
C455 C87 1.830 . S
C490 C323 1.892 . S
C485 C54 1.942 . S
C520 C407 1.867 . S
C515 C65 1.917 . S
C550 C154 1.851 1_565 S
C545 C32 1.810 . S
C575 C43 1.839 . S
C580 C238 1.881 . S
C605 C10 1.951 . S
C610 C312 1.892 . S
C635 C21 1.926 . S
C640 C396 1.867 . S
C670 C151 0.514 1_455 S
C665 C60 0.494 . S
C700 C235 0.515 . S
C695 C71 0.465 . S
C730 C328 0.506 . S
C725 C82 0.445 . S
C755 C49 0.471 . S
C760 C412 0.518 . S
C785 C16 0.506 . S
C790 C160 0.531 . S
C820 C244 0.515 . S
C815 C27 0.478 . S
C850 C319 0.506 . S
C845 C38 0.460 . S
C875 C5 0.484 . S
C880 C403 0.518 . S
C905 C59 1.950 . S
C910 C144 1.992 . S
C935 C70 1.914 . S
C940 C228 1.956 . S
C970 C322 1.944 . S
C965 C81 1.812 . S
C1000 C406 1.976 . S
C995 C48 1.843 . S
C1025 C15 1.938 . S
C1030 C155 1.992 . S
C1060 C239 1.952 1_565 S
C1055 C26 1.903 . S
C1090 C331 1.944 . S
C1085 C37 1.800 . S
C1115 C4 1.831 . S
C1120 C415 1.977 . S
