# Generated by pormake.
# Topology pth, (4,4)-cn, num edge types: 1
# Building blocks:
#     Node 0, Type 0, BuildingBlock: GALJAG_clean_sbu_0, # of connection points: 4
#     Node 1, Type 0, BuildingBlock: GALJAG_clean_sbu_0, # of connection points: 4
#     Node 2, Type 0, BuildingBlock: GALJAG_clean_sbu_0, # of connection points: 4
#     Node 3, Type 1, BuildingBlock: MUDLON_clean_linker_0, # of connection points: 4
#     Node 4, Type 1, BuildingBlock: MUDLON_clean_linker_0, # of connection points: 4
#     Node 5, Type 1, BuildingBlock: MUDLON_clean_linker_0, # of connection points: 4
#     Edge 6, Type (0, 1), BuildingBlock: ZUJKAS_clean_linker_0, # of connection points: 2
#     Edge 7, Type (0, 1), BuildingBlock: ZUJKAS_clean_linker_0, # of connection points: 2
#     Edge 8, Type (0, 1), BuildingBlock: ZUJKAS_clean_linker_0, # of connection points: 2
#     Edge 9, Type (0, 1), BuildingBlock: ZUJKAS_clean_linker_0, # of connection points: 2
#     Edge 10, Type (0, 1), BuildingBlock: ZUJKAS_clean_linker_0, # of connection points: 2
#     Edge 11, Type (0, 1), BuildingBlock: ZUJKAS_clean_linker_0, # of connection points: 2
#     Edge 12, Type (0, 1), BuildingBlock: ZUJKAS_clean_linker_0, # of connection points: 2
#     Edge 13, Type (0, 1), BuildingBlock: ZUJKAS_clean_linker_0, # of connection points: 2
#     Edge 14, Type (0, 1), BuildingBlock: ZUJKAS_clean_linker_0, # of connection points: 2
#     Edge 15, Type (0, 1), BuildingBlock: ZUJKAS_clean_linker_0, # of connection points: 2
#     Edge 16, Type (0, 1), BuildingBlock: ZUJKAS_clean_linker_0, # of connection points: 2
#     Edge 17, Type (0, 1), BuildingBlock: ZUJKAS_clean_linker_0, # of connection points: 2
# Relax obj value: 0.013
# Max RMSD: 0.066
# Mean RMSD: 0.062
data_MOF--net-pth--node1-GALJAG_clean_sbu_0--node2-MUDLON_clean_linker_0--edge1-ZUJKAS_clean_linker_0
_symmetry_space_group_name_H-M    P1
_symmetry_Int_Tables_number       1
_symmetry_cell_setting            triclinic
loop_
_symmetry_equiv_pos_as_xyz
'x, y, z'
_cell_length_a     41.881812
_cell_length_b     41.868473
_cell_length_c     80.803896
_cell_angle_alpha  90.186564
_cell_angle_beta   90.118026
_cell_angle_gamma 120.00163
loop_
_atom_site_label
_atom_site_type_symbol
_atom_site_fract_x
_atom_site_fract_y
_atom_site_fract_z
_atom_type_partial_charge
In0 In 0.01307 0.00528 0.03367 0.0
O1 O 0.98624 0.04085 0.03745 0.0
O2 O 0.0231 0.04249 0.05596 0.0
C3 C 0.95565 0.95324 0.01606 0.0
C4 C 0.06858 0.05447 0.01451 0.0
C5 C 0.02474 0.95947 0.05296 0.0
O6 O 0.95132 0.96914 0.02844 0.0
O7 O 0.9888 0.96384 0.01254 0.0
O8 O 0.04306 0.97364 0.03998 0.0
O9 O 0.00105 0.96873 0.05621 0.0
C10 C 0.00225 0.05423 0.05108 0.0
O11 O 0.07378 0.04746 0.02911 0.0
O12 O 0.03567 0.03622 0.00952 0.0
In13 In 0.00488 0.00726 0.36779 0.0
O14 O 0.03373 0.06745 0.35952 0.0
O15 O 0.98664 0.02863 0.34593 0.0
C16 C 0.05992 0.01429 0.38773 0.0
C17 C 0.94948 0.00199 0.38682 0.0
C18 C 0.99787 0.95083 0.34878 0.0
O19 O 0.06537 0.03558 0.37572 0.0
O20 O 0.02671 0.98978 0.38978 0.0
O21 O 0.9769 0.94623 0.36082 0.0
O22 O 0.02214 0.98393 0.34621 0.0
C23 C 0.01171 0.06179 0.34772 0.0
O24 O 0.9443 0.9797 0.3752 0.0
O25 O 0.98265 0.0267 0.38897 0.0
In26 In 0.00219 0.99691 0.70275 0.0
O27 O 0.97171 0.93536 0.70898 0.0
O28 O 0.96159 0.97111 0.72394 0.0
C29 C 0.05358 0.99235 0.68438 0.0
C30 C 0.95156 0.00173 0.68392 0.0
C31 C 0.04867 0.05604 0.72126 0.0
O32 O 0.04428 0.97814 0.69855 0.0
O33 O 0.03652 0.00822 0.67938 0.0
O34 O 0.03486 0.05899 0.70786 0.0
O35 O 0.03864 0.02335 0.72539 0.0
C36 C 0.95434 0.93857 0.72101 0.0
O37 O 0.96577 0.02151 0.69663 0.0
O38 O 0.96329 0.97993 0.6806 0.0
H39 H 0.90443 0.59734 0.21808 0.0
N40 N 0.95682 0.59947 0.19898 0.0
H41 H 0.91227 0.63697 0.24186 0.0
H42 H 0.02234 0.64706 0.21407 0.0
H43 H 0.03055 0.68588 0.23807 0.0
H44 H 0.02532 0.63793 0.18515 0.0
H45 H 0.04318 0.68319 0.16287 0.0
H46 H 0.91218 0.61095 0.17991 0.0
H47 H 0.92935 0.65501 0.15723 0.0
H48 H 0.90205 0.53321 0.1912 0.0
H49 H 0.01607 0.59088 0.20628 0.0
H50 H 0.90221 0.47496 0.19114 0.0
H51 H 0.01626 0.53263 0.20698 0.0
H52 H 0.90845 0.29612 0.21544 0.0
H53 H 0.92475 0.26979 0.23865 0.0
H54 H 0.03353 0.36639 0.24021 0.0
H55 H 0.01692 0.39218 0.21673 0.0
H56 H 0.01904 0.37203 0.1883 0.0
H57 H 0.03027 0.34404 0.16413 0.0
H58 H 0.91372 0.28682 0.15273 0.0
H59 H 0.90296 0.3158 0.17679 0.0
H60 H 0.90056 0.37295 0.20973 0.0
H61 H 0.90329 0.43259 0.21014 0.0
H62 H 0.01364 0.48399 0.19017 0.0
N63 N 0.95166 0.35808 0.19957 0.0
H64 H 0.01111 0.42445 0.19053 0.0
C65 C 0.96262 0.61908 0.21435 0.0
C66 C 0.93196 0.61614 0.22264 0.0
C67 C 0.93655 0.63874 0.23624 0.0
C68 C 0.97209 0.6648 0.24183 0.0
C69 C 0.00282 0.66649 0.23394 0.0
C70 C 0.99815 0.64395 0.22028 0.0
C71 C 0.96742 0.62153 0.18427 0.0
C72 C 0.00424 0.64129 0.17899 0.0
C73 C 0.01435 0.66697 0.16618 0.0
C74 C 0.98776 0.67313 0.15846 0.0
C75 C 0.95063 0.65155 0.16317 0.0
C76 C 0.94068 0.62615 0.17598 0.0
C77 C 0.95875 0.56617 0.19889 0.0
C78 C 0.92705 0.53314 0.19459 0.0
C79 C 0.92718 0.49991 0.19471 0.0
C80 C 0.95912 0.49895 0.19928 0.0
C81 C 0.99123 0.53234 0.20331 0.0
C82 C 0.99111 0.56572 0.20305 0.0
C83 C 0.96132 0.34591 0.21441 0.0
C84 C 0.93557 0.31178 0.221 0.0
C85 C 0.94495 0.29693 0.23431 0.0
C86 C 0.98047 0.31602 0.24133 0.0
C87 C 0.00606 0.35085 0.23498 0.0
C88 C 0.99656 0.36573 0.22163 0.0
C89 C 0.96001 0.34593 0.18433 0.0
C90 C 0.99601 0.35412 0.18043 0.0
C91 C 0.00236 0.33781 0.16666 0.0
C92 C 0.97286 0.31293 0.15656 0.0
C93 C 0.93713 0.30614 0.16011 0.0
C94 C 0.93086 0.32253 0.17387 0.0
C95 C 0.95525 0.39409 0.19992 0.0
C96 C 0.92534 0.39719 0.20552 0.0
C97 C 0.92691 0.43126 0.20561 0.0
C98 C 0.9585 0.46311 0.19994 0.0
C99 C 0.98894 0.46012 0.19469 0.0
C100 C 0.98742 0.42594 0.19475 0.0
H101 H 0.66464 0.03493 0.5432 0.0
N102 N 0.60172 0.97006 0.53564 0.0
H103 H 0.70696 0.04543 0.56603 0.0
H104 H 0.59221 0.92434 0.56037 0.0
H105 H 0.63467 0.93461 0.58337 0.0
H106 H 0.6095 0.91738 0.52118 0.0
H107 H 0.64828 0.9234 0.49745 0.0
H108 H 0.63811 0.03103 0.51602 0.0
H109 H 0.67698 0.03738 0.49221 0.0
H110 H 0.60214 0.02609 0.55448 0.0
H111 H 0.54263 0.94535 0.51621 0.0
H112 H 0.55604 0.04447 0.55423 0.0
H113 H 0.49729 0.96558 0.51516 0.0
H114 H 0.40703 0.09858 0.55649 0.0
H115 H 0.3672 0.08709 0.58054 0.0
H116 H 0.33076 0.97086 0.57722 0.0
H117 H 0.37054 0.98245 0.55342 0.0
H118 H 0.3493 0.98699 0.52662 0.0
H119 H 0.30985 0.98362 0.50383 0.0
H120 H 0.38518 0.09818 0.49264 0.0
H121 H 0.42436 0.10151 0.51592 0.0
H122 H 0.48352 0.09233 0.54177 0.0
H123 H 0.53153 0.07552 0.54006 0.0
H124 H 0.44805 0.96257 0.52962 0.0
N125 N 0.41157 0.04905 0.53764 0.0
H126 H 0.40108 0.9803 0.53016 0.0
C127 C 0.62527 0.97857 0.55 0.0
C128 C 0.65775 0.0129 0.55191 0.0
C129 C 0.68197 0.01889 0.56498 0.0
C130 C 0.67431 0.99075 0.57642 0.0
C131 C 0.64119 0.95694 0.57484 0.0
C132 C 0.61697 0.95096 0.56172 0.0
C133 C 0.62103 0.97363 0.52038 0.0
C134 C 0.62366 0.94341 0.51469 0.0
C135 C 0.64572 0.94692 0.50112 0.0
C136 C 0.66581 0.98093 0.49299 0.0
C137 C 0.66215 0.01095 0.49834 0.0
C138 C 0.63986 0.00733 0.51188 0.0
C139 C 0.57621 0.98397 0.53527 0.0
C140 C 0.57964 0.01252 0.54577 0.0
C141 C 0.55309 0.02341 0.54554 0.0
C142 C 0.52271 0.00661 0.53468 0.0
C143 C 0.51979 0.97873 0.52395 0.0
C144 C 0.54596 0.96736 0.52439 0.0
C145 C 0.3918 0.04159 0.55305 0.0
C146 C 0.391 0.07077 0.56119 0.0
C147 C 0.36833 0.06415 0.57492 0.0
C148 C 0.34571 0.02802 0.58067 0.0
C149 C 0.34761 0.99893 0.57293 0.0
C150 C 0.37055 0.00562 0.5593 0.0
C151 C 0.38991 0.04472 0.52305 0.0
C152 C 0.3578 0.01129 0.51918 0.0
C153 C 0.3352 0.00934 0.50603 0.0
C154 C 0.34421 0.04069 0.49644 0.0
C155 C 0.37714 0.07367 0.49993 0.0
C156 C 0.39969 0.07558 0.51312 0.0
C157 C 0.43874 0.03768 0.53635 0.0
C158 C 0.4758 0.06402 0.53902 0.0
C159 C 0.50312 0.05422 0.53817 0.0
C160 C 0.49382 0.01752 0.53485 0.0
C161 C 0.4565 0.99118 0.532 0.0
C162 C 0.42932 0.00121 0.53256 0.0
H163 H 0.63367 0.65863 0.87697 0.0
N164 N 0.63743 0.59618 0.87067 0.0
H165 H 0.66448 0.70265 0.89947 0.0
H166 H 0.67422 0.58946 0.89603 0.0
H167 H 0.70509 0.63342 0.91874 0.0
H168 H 0.69802 0.60095 0.85782 0.0
H169 H 0.73314 0.6375 0.83397 0.0
H170 H 0.61677 0.63371 0.84954 0.0
H171 H 0.65159 0.67023 0.82567 0.0
H172 H 0.58273 0.59293 0.89142 0.0
H173 H 0.60099 0.54299 0.84819 0.0
H174 H 0.51753 0.54986 0.8896 0.0
H175 H 0.53491 0.50067 0.84596 0.0
H176 H 0.30856 0.4091 0.88502 0.0
H177 H 0.27919 0.36791 0.90854 0.0
H178 H 0.36256 0.33603 0.90713 0.0
H179 H 0.39162 0.37697 0.88379 0.0
H180 H 0.36127 0.35203 0.85728 0.0
H181 H 0.32569 0.31356 0.83415 0.0
H182 H 0.29541 0.39465 0.82045 0.0
H183 H 0.33054 0.43282 0.84418 0.0
H184 H 0.39727 0.48791 0.87459 0.0
H185 H 0.46311 0.53348 0.87445 0.0
H186 H 0.4869 0.4486 0.85895 0.0
N187 N 0.36527 0.41669 0.86737 0.0
H188 H 0.42134 0.40409 0.85832 0.0
C189 C 0.65201 0.62082 0.88474 0.0
C190 C 0.64915 0.65286 0.88601 0.0
C191 C 0.66674 0.678 0.8989 0.0
C192 C 0.68739 0.6716 0.91081 0.0
C193 C 0.68909 0.63894 0.90984 0.0
C194 C 0.67163 0.61389 0.89688 0.0
C195 C 0.65502 0.61473 0.8555 0.0
C196 C 0.68753 0.61559 0.85067 0.0
C197 C 0.70742 0.63635 0.83703 0.0
C198 C 0.6952 0.65688 0.82799 0.0
C199 C 0.66193 0.65507 0.83252 0.0
C200 C 0.64196 0.63415 0.84613 0.0
C201 C 0.59763 0.57239 0.86958 0.0
C202 C 0.57312 0.57353 0.88124 0.0
C203 C 0.53527 0.54865 0.8802 0.0
C204 C 0.52072 0.52188 0.86756 0.0
C205 C 0.54506 0.52064 0.85597 0.0
C206 C 0.58293 0.54521 0.85711 0.0
C207 C 0.35213 0.39618 0.88255 0.0
C208 C 0.32086 0.39376 0.89003 0.0
C209 C 0.30422 0.37033 0.90346 0.0
C210 C 0.31849 0.3486 0.90958 0.0
C211 C 0.35075 0.35216 0.90254 0.0
C212 C 0.36751 0.3758 0.8892 0.0
C213 C 0.34841 0.39542 0.85257 0.0
C214 C 0.3475 0.36197 0.84925 0.0
C215 C 0.3272 0.33994 0.83587 0.0
C216 C 0.30748 0.35087 0.82545 0.0
C217 C 0.30978 0.38512 0.82838 0.0
C218 C 0.33004 0.40709 0.84182 0.0
C219 C 0.40426 0.44264 0.86658 0.0
C220 C 0.41681 0.47937 0.87104 0.0
C221 C 0.45446 0.50524 0.87108 0.0
C222 C 0.48049 0.49475 0.86679 0.0
C223 C 0.46775 0.45789 0.86211 0.0
C224 C 0.43005 0.43216 0.86189 0.0
H225 H 0.0334 0.08543 0.08072 0.0
H226 H 0.02774 0.13286 0.09595 0.0
H227 H 0.95672 0.1346 0.05767 0.0
H228 H 0.96187 0.08666 0.0424 0.0
H229 H 0.04701 0.20424 0.08514 0.0
H230 H 0.89784 0.12088 0.10033 0.0
H231 H 0.92427 0.10021 0.09324 0.0
H232 H 0.90934 0.12263 0.0788 0.0
C233 C 0.01639 0.09573 0.07558 0.0
C234 C 0.99792 0.08222 0.06041 0.0
C235 C 0.01327 0.12289 0.08428 0.0
C236 C 0.99154 0.13696 0.07802 0.0
C237 C 0.97313 0.12364 0.06284 0.0
H238 H 0.94149 0.29532 0.12556 0.0
H239 H 0.94738 0.25586 0.10475 0.0
C240 C 0.9762 0.09637 0.05412 0.0
C241 C 0.98883 0.16597 0.08738 0.0
H242 H 0.92911 0.1828 0.10926 0.0
C243 C 0.02121 0.19966 0.09034 0.0
C244 C 0.95507 0.15996 0.09404 0.0
C245 C 0.91963 0.1239 0.09159 0.0
C246 C 0.02087 0.22735 0.10003 0.0
C247 C 0.98736 0.22087 0.10716 0.0
C248 C 0.95475 0.18766 0.10376 0.0
C249 C 0.98589 0.247 0.11911 0.0
C250 C 0.05641 0.26325 0.10258 0.0
C251 C 0.00555 0.25502 0.13406 0.0
C252 C 0.00215 0.27735 0.14597 0.0
C253 C 0.97879 0.29195 0.14322 0.0
C254 C 0.9595 0.28429 0.12811 0.0
C255 C 0.96293 0.2619 0.11619 0.0
H256 H 0.07635 0.26829 0.09249 0.0
H257 H 0.05142 0.28689 0.10323 0.0
H258 H 0.0693 0.26207 0.11441 0.0
H259 H 0.02268 0.24304 0.13676 0.0
H260 H 0.01676 0.28198 0.1576 0.0
H261 H 0.95388 0.0485 0.41161 0.0
H262 H 0.90327 0.04489 0.42818 0.0
H263 H 0.82585 0.94736 0.40125 0.0
H264 H 0.8763 0.95061 0.3847 0.0
H265 H 0.83808 0.04478 0.41665 0.0
H266 H 0.80599 0.91678 0.45052 0.0
H267 H 0.84882 0.94401 0.43963 0.0
H268 H 0.80738 0.91399 0.42836 0.0
C269 C 0.92609 0.0262 0.40926 0.0
C270 C 0.91905 0.9997 0.39693 0.0
C271 C 0.89724 0.02425 0.4187 0.0
C272 C 0.86095 0.99565 0.41604 0.0
C273 C 0.85377 0.96932 0.40365 0.0
H274 H 0.6557 0.93373 0.46737 0.0
H275 H 0.70172 0.9385 0.44737 0.0
C276 C 0.88259 0.97129 0.39418 0.0
C277 C 0.83058 0.99353 0.42619 0.0
H278 H 0.76645 0.9409 0.45503 0.0
C279 C 0.82237 0.02211 0.42505 0.0
C280 C 0.81012 0.96382 0.43706 0.0
C281 C 0.81858 0.93299 0.43913 0.0
C282 C 0.79396 0.02162 0.43445 0.0
C283 C 0.77382 0.99214 0.4455 0.0
C284 C 0.78185 0.96341 0.4465 0.0
C285 C 0.74514 0.99101 0.45661 0.0
C286 C 0.78546 0.05238 0.43227 0.0
C287 C 0.75422 0.01905 0.46837 0.0
C288 C 0.728 0.01642 0.47978 0.0
C289 C 0.69229 0.98547 0.47976 0.0
C290 C 0.68306 0.95777 0.46777 0.0
C291 C 0.70926 0.9605 0.45631 0.0
H292 H 0.79525 0.06622 0.42013 0.0
H293 H 0.75541 0.042 0.43325 0.0
H294 H 0.79976 0.0734 0.44211 0.0
H295 H 0.78198 0.04238 0.4691 0.0
H296 H 0.73617 0.03788 0.48905 0.0
H297 H 0.93629 0.86628 0.7182 0.0
H298 H 0.88952 0.81366 0.73398 0.0
H299 H 0.86371 0.88658 0.76119 0.0
H300 H 0.91021 0.93914 0.74555 0.0
H301 H 0.88583 0.80544 0.76974 0.0
H302 H 0.76257 0.80364 0.74323 0.0
H303 H 0.80707 0.82655 0.73327 0.0
H304 H 0.79793 0.84806 0.75047 0.0
C305 C 0.9206 0.87104 0.72754 0.0
C306 C 0.92682 0.90678 0.73063 0.0
C307 C 0.89393 0.84101 0.73651 0.0
C308 C 0.87285 0.84625 0.74854 0.0
C309 C 0.87926 0.88192 0.75174 0.0
H310 H 0.71132 0.72761 0.82239 0.0
H311 H 0.75329 0.77057 0.80178 0.0
C312 C 0.90599 0.91193 0.74287 0.0
C313 C 0.84488 0.81475 0.7582 0.0
H314 H 0.75321 0.76798 0.76753 0.0
C315 C 0.85675 0.79684 0.76914 0.0
C316 C 0.80705 0.80377 0.75735 0.0
C317 C 0.79272 0.82124 0.74535 0.0
C318 C 0.83193 0.76924 0.77983 0.0
C319 C 0.79415 0.75881 0.77925 0.0
C320 C 0.78218 0.77605 0.76796 0.0
C321 C 0.76701 0.73165 0.79094 0.0
C322 C 0.84666 0.75272 0.79215 0.0
C323 C 0.76012 0.69523 0.7914 0.0
C324 C 0.73614 0.67059 0.8032 0.0
C325 C 0.71833 0.68186 0.8146 0.0
C326 C 0.7243 0.71797 0.81368 0.0
C327 C 0.7484 0.7426 0.80195 0.0
H328 H 0.87708 0.76965 0.79357 0.0
H329 H 0.83383 0.74983 0.80448 0.0
H330 H 0.83995 0.72486 0.78782 0.0
H331 H 0.77354 0.68597 0.78275 0.0
H332 H 0.73165 0.64278 0.80346 0.0
H333 H 0.99089 0.92947 0.0821 0.0
H334 H 0.99656 0.88419 0.09887 0.0
H335 H 0.07481 0.8844 0.0642 0.0
H336 H 0.06916 0.92991 0.0472 0.0
H337 H 0.01656 0.81298 0.07307 0.0
H338 H 0.08322 0.89931 0.12844 0.0
H339 H 0.04328 0.90123 0.12181 0.0
H340 H 0.08291 0.91872 0.10854 0.0
C341 C 0.00957 0.92018 0.07809 0.0
C342 C 0.02968 0.93331 0.06337 0.0
C343 C 0.01294 0.89445 0.08774 0.0
C344 C 0.03654 0.88142 0.0829 0.0
C345 C 0.0567 0.89441 0.0682 0.0
H346 H 0.03844 0.69447 0.13323 0.0
H347 H 0.05654 0.74604 0.11401 0.0
C348 C 0.05347 0.92038 0.05854 0.0
C349 C 0.03829 0.85277 0.0929 0.0
H350 H 0.05169 0.83361 0.13245 0.0
C351 C 0.02497 0.81756 0.08596 0.0
C352 C 0.0495 0.859 0.10967 0.0
C353 C 0.06589 0.89672 0.11753 0.0
C354 C 0.02005 0.78771 0.09571 0.0
C355 C 0.02917 0.79353 0.11274 0.0
C356 C 0.04452 0.82921 0.11941 0.0
C357 C 0.01921 0.76251 0.12423 0.0
C358 C 0.00307 0.74979 0.08801 0.0
C359 C 0.99279 0.7552 0.13646 0.0
C360 C 0.98264 0.72614 0.14745 0.0
C361 C 0.99871 0.70367 0.14647 0.0
C362 C 0.02556 0.71127 0.1343 0.0
C363 C 0.03573 0.7405 0.12324 0.0
H364 H 0.99282 0.74913 0.07524 0.0
H365 H 0.02403 0.741 0.08745 0.0
H366 H 0.9798 0.72946 0.09566 0.0
H367 H 0.97987 0.772 0.13748 0.0
H368 H 0.9625 0.72162 0.15689 0.0
H369 H 0.13303 0.06624 0.38637 0.0
H370 H 0.18286 0.07088 0.40397 0.0
H371 H 0.10484 0.97368 0.43046 0.0
H372 H 0.0548 0.96926 0.41312 0.0
H373 H 0.15151 0.0299 0.45111 0.0
H374 H 0.23065 0.00667 0.40223 0.0
H375 H 0.22195 0.04365 0.39783 0.0
H376 H 0.18401 0.99716 0.39909 0.0
C377 C 0.12653 0.04583 0.39593 0.0
C378 C 0.09005 0.01734 0.39836 0.0
C379 C 0.15505 0.04836 0.40588 0.0
C380 C 0.14763 0.02225 0.41832 0.0
C381 C 0.11117 0.99398 0.42086 0.0
H382 H 0.30353 0.98528 0.47416 0.0
H383 H 0.25621 0.98118 0.45502 0.0
C384 C 0.08264 0.9915 0.41095 0.0
C385 C 0.17761 0.02502 0.42908 0.0
H386 H 0.2596 0.0259 0.4286 0.0
C387 C 0.1751 0.02895 0.4462 0.0
C388 C 0.20811 0.02327 0.42265 0.0
C389 C 0.21129 0.0171 0.40446 0.0
C390 C 0.20253 0.03169 0.45707 0.0
C391 C 0.23365 0.03122 0.45059 0.0
C392 C 0.23591 0.02671 0.4335 0.0
C393 C 0.26378 0.03474 0.46145 0.0
C394 C 0.19758 0.03437 0.47542 0.0
C395 C 0.28431 0.0666 0.47108 0.0
C396 C 0.3111 0.0689 0.48211 0.0
C397 C 0.3181 0.03948 0.48363 0.0
C398 C 0.29842 0.00817 0.47348 0.0
C399 C 0.27156 0.00588 0.46246 0.0
H400 H 0.16837 0.02478 0.4786 0.0
H401 H 0.20689 0.01783 0.48253 0.0
H402 H 0.21437 0.06358 0.47943 0.0
H403 H 0.27917 0.08946 0.47026 0.0
H404 H 0.32547 0.09328 0.48983 0.0
H405 H 0.07202 0.12883 0.7157 0.0
H406 H 0.11658 0.18199 0.73207 0.0
H407 H 0.13019 0.10908 0.76523 0.0
H408 H 0.08519 0.05587 0.74916 0.0
H409 H 0.12114 0.16087 0.78168 0.0
H410 H 0.22812 0.22685 0.7332 0.0
H411 H 0.18334 0.21859 0.72713 0.0
H412 H 0.1901 0.18023 0.73132 0.0
C413 C 0.08456 0.12418 0.72648 0.0
C414 C 0.0752 0.08823 0.73115 0.0
C415 C 0.1102 0.15457 0.73574 0.0
C416 C 0.12715 0.14951 0.74971 0.0
C417 C 0.11755 0.1136 0.75445 0.0
H418 H 0.31977 0.30607 0.80472 0.0
H419 H 0.27567 0.25867 0.78584 0.0
C420 C 0.09184 0.08324 0.74526 0.0
C421 C 0.15416 0.18143 0.75971 0.0
H422 H 0.23773 0.2607 0.75812 0.0
C423 C 0.14662 0.18273 0.77653 0.0
C424 C 0.18758 0.20964 0.75299 0.0
C425 C 0.19805 0.20873 0.73521 0.0
C426 C 0.17155 0.21148 0.78684 0.0
C427 C 0.20454 0.2402 0.78004 0.0
C428 C 0.21219 0.23887 0.76323 0.0
C429 C 0.23207 0.27101 0.7904 0.0
C430 C 0.16276 0.21023 0.80502 0.0
C431 C 0.22255 0.29437 0.79883 0.0
C432 C 0.24749 0.32116 0.8098 0.0
C433 C 0.28263 0.32535 0.8124 0.0
C434 C 0.29271 0.30312 0.80325 0.0
C435 C 0.26765 0.2762 0.79236 0.0
H436 H 0.14151 0.18211 0.80895 0.0
H437 H 0.18784 0.21925 0.81274 0.0
H438 H 0.15192 0.22912 0.8075 0.0
H439 H 0.19546 0.29129 0.79724 0.0
H440 H 0.23865 0.33756 0.8167 0.0
H441 H 0.91712 0.04121 0.69035 0.0
H442 H 0.86736 0.04129 0.67438 0.0
H443 H 0.87168 0.96619 0.63898 0.0
H444 H 0.92075 0.96535 0.65505 0.0
H445 H 0.86565 0.06185 0.64259 0.0
H446 H 0.7631 0.91401 0.65062 0.0
H447 H 0.8049 0.9372 0.66276 0.0
H448 H 0.80568 0.92087 0.64221 0.0
C449 C 0.9074 0.02468 0.67917 0.0
C450 C 0.92262 0.00307 0.67399 0.0
C451 C 0.87899 0.02475 0.67007 0.0
C452 C 0.86532 0.00316 0.65568 0.0
C453 C 0.88113 0.98228 0.65029 0.0
H454 H 0.74863 0.02167 0.57278 0.0
H455 H 0.7937 0.02722 0.59344 0.0
C456 C 0.90936 0.98204 0.65941 0.0
C457 C 0.83507 0.003 0.64606 0.0
H458 H 0.75041 0.94557 0.62919 0.0
C459 C 0.84027 0.03649 0.6398 0.0
C460 C 0.80165 0.97001 0.64273 0.0
C461 C 0.79327 0.93355 0.65008 0.0
C462 C 0.8136 0.03765 0.62966 0.0
C463 C 0.78129 0.00432 0.62542 0.0
C464 C 0.77539 0.97106 0.63229 0.0
C465 C 0.75409 0.00299 0.61326 0.0
C466 C 0.82034 0.07457 0.62363 0.0
C467 C 0.71665 0.9868 0.61743 0.0
C468 C 0.6907 0.98332 0.60557 0.0
C469 C 0.70177 0.99595 0.58934 0.0
C470 C 0.73933 0.01238 0.58526 0.0
C471 C 0.76516 0.01566 0.59708 0.0
H472 H 0.8392 0.09723 0.63208 0.0
H473 H 0.83354 0.08014 0.61127 0.0
H474 H 0.79415 0.07504 0.62249 0.0
H475 H 0.70748 0.97661 0.62983 0.0
H476 H 0.66199 0.97072 0.60909 0.0
H477 H 0.88193 0.92131 0.02271 0.0
H478 H 0.83077 0.87109 0.00735 0.0
H479 H 0.90798 0.86967 0.97252 0.0
H480 H 0.9591 0.91914 0.98794 0.0
H481 H 0.80805 0.86712 0.97518 0.0
H482 H 0.84927 0.76236 0.98626 0.0
H483 H 0.869 0.80525 0.99765 0.0
H484 H 0.88582 0.80367 0.97735 0.0
C485 C 0.88795 0.9102 0.01179 0.0
C486 C 0.92451 0.92392 0.00659 0.0
C487 C 0.85873 0.88155 0.00304 0.0
C488 C 0.86565 0.86615 0.989 0.0
C489 C 0.90209 0.88048 0.98358 0.0
H490 H 0.7302 0.74584 0.90658 0.0
H491 H 0.76918 0.79202 0.92706 0.0
C492 C 0.93125 0.90893 0.99234 0.0
C493 C 0.83491 0.83554 0.97976 0.0
H494 H 0.80579 0.74931 0.96431 0.0
C495 C 0.80727 0.84117 0.97295 0.0
C496 C 0.83346 0.8014 0.97717 0.0
C497 C 0.86076 0.7926 0.98515 0.0
C498 C 0.77919 0.81421 0.96295 0.0
C499 C 0.7793 0.78113 0.9594 0.0
C500 C 0.80594 0.77485 0.96686 0.0
C501 C 0.7533 0.75345 0.94736 0.0
C502 C 0.74975 0.8215 0.9563 0.0
C503 C 0.73188 0.71621 0.95185 0.0
C504 C 0.70983 0.68964 0.94009 0.0
C505 C 0.7088 0.69985 0.92362 0.0
C506 C 0.72985 0.73722 0.91923 0.0
C507 C 0.75207 0.76369 0.93095 0.0
H508 H 0.74622 0.84101 0.96439 0.0
H509 H 0.75803 0.83422 0.94388 0.0
H510 H 0.72281 0.79561 0.95512 0.0
H511 H 0.73258 0.70766 0.96442 0.0
H512 H 0.69373 0.66109 0.94385 0.0
H513 H 0.04001 0.95435 0.32238 0.0
H514 H 0.03498 0.90298 0.3058 0.0
H515 H 0.94419 0.82614 0.33595 0.0
H516 H 0.94874 0.87741 0.35247 0.0
H517 H 0.04084 0.84208 0.31637 0.0
H518 H 0.9033 0.79819 0.28867 0.0
H519 H 0.93048 0.84224 0.29883 0.0
H520 H 0.90512 0.80109 0.31087 0.0
C521 C 0.01886 0.92653 0.32543 0.0
C522 C 0.99463 0.91989 0.33866 0.0
C523 C 0.01608 0.89723 0.31597 0.0
C524 C 0.98894 0.86083 0.31953 0.0
C525 C 0.9649 0.85409 0.33282 0.0
H526 H 0.93182 0.65286 0.27026 0.0
H527 H 0.93675 0.69903 0.29038 0.0
C528 C 0.96763 0.88338 0.34228 0.0
C529 C 0.98622 0.82997 0.30943 0.0
H530 H 0.92962 0.76093 0.28291 0.0
C531 C 0.01653 0.8243 0.30906 0.0
C532 C 0.9544 0.80677 0.29997 0.0
C533 C 0.92155 0.81244 0.29944 0.0
C534 C 0.01587 0.79598 0.29945 0.0
C535 C 0.98428 0.77315 0.2898 0.0
C536 C 0.95374 0.77843 0.29039 0.0
C537 C 0.98297 0.74484 0.27834 0.0
C538 C 0.04887 0.79056 0.2998 0.0
C539 C 0.00731 0.75536 0.26493 0.0
C540 C 0.00443 0.72917 0.25338 0.0
C541 C 0.97701 0.69189 0.25496 0.0
C542 C 0.95302 0.68136 0.26859 0.0
C543 C 0.95589 0.70764 0.28013 0.0
H544 H 0.06602 0.80303 0.31106 0.0
H545 H 0.04024 0.7608 0.29935 0.0
H546 H 0.06632 0.80408 0.28884 0.0
H547 H 0.02785 0.78406 0.26311 0.0
H548 H 0.02283 0.73842 0.24286 0.0
H549 H 0.10239 0.97118 0.69467 0.0
H550 H 0.15479 0.97566 0.67924 0.0
H551 H 0.12382 0.01668 0.63686 0.0
H552 H 0.07216 0.01332 0.65234 0.0
H553 H 0.16 0.94423 0.6509 0.0
H554 H 0.23003 0.09564 0.64328 0.0
H555 H 0.19157 0.07109 0.65708 0.0
H556 H 0.18386 0.0732 0.63527 0.0
C557 C 0.10675 0.98107 0.68204 0.0
C558 C 0.08345 0.99226 0.67474 0.0
C559 C 0.13668 0.98362 0.67326 0.0
C560 C 0.14372 0.99732 0.65704 0.0
C561 C 0.11956 0.00707 0.64952 0.0
H562 H 0.27314 0.97519 0.58056 0.0
H563 H 0.22619 0.9663 0.60076 0.0
C564 C 0.08989 0.00487 0.65834 0.0
C565 C 0.17628 0.00149 0.64793 0.0
H566 H 0.25143 0.06359 0.62613 0.0
C567 C 0.18022 0.97039 0.64561 0.0
C568 C 0.20315 0.03583 0.64137 0.0
C569 C 0.20221 0.07091 0.64453 0.0
C570 C 0.20949 0.97239 0.63633 0.0
C571 C 0.2349 0.00619 0.62883 0.0
C572 C 0.23174 0.03757 0.63171 0.0
C573 C 0.26404 0.00948 0.61737 0.0
C574 C 0.21292 0.93831 0.63477 0.0
C575 C 0.30093 0.03716 0.61978 0.0
C576 C 0.32776 0.04266 0.60809 0.0
C577 C 0.3182 0.02045 0.59381 0.0
C578 C 0.28144 0.99225 0.5916 0.0
C579 C 0.25459 0.98704 0.60319 0.0
H580 H 0.20016 0.91963 0.64548 0.0
H581 H 0.19822 0.92291 0.62343 0.0
H582 H 0.24221 0.94544 0.63388 0.0
H583 H 0.30884 0.05494 0.63058 0.0
H584 H 0.35591 0.06451 0.61012 0.0
H585 H 0.06609 0.06666 0.9816 0.0
H586 H 0.11314 0.11686 0.96508 0.0
H587 H 0.18381 0.15866 0.00805 0.0
H588 H 0.13725 0.10769 0.02453 0.0
H589 H 0.13873 0.18871 0.9692 0.0
H590 H 0.2551 0.16145 0.97396 0.0
H591 H 0.20882 0.12813 0.98012 0.0
H592 H 0.23796 0.16584 0.99367 0.0
C593 C 0.09188 0.08625 0.98747 0.0
C594 C 0.0981 0.08324 0.00433 0.0
C595 C 0.11871 0.11495 0.97803 0.0
C596 C 0.15218 0.14133 0.98527 0.0
C597 C 0.1586 0.13817 0.00209 0.0
H598 H 0.28814 0.35595 0.93833 0.0
H599 H 0.25004 0.30728 0.95803 0.0
C600 C 0.1319 0.10916 0.01151 0.0
C601 C 0.17918 0.1732 0.97538 0.0
H602 H 0.26826 0.21843 0.96187 0.0
C603 C 0.16705 0.19517 0.96758 0.0
C604 C 0.21604 0.18144 0.97319 0.0
C605 C 0.23022 0.15779 0.98054 0.0
C606 C 0.19061 0.22496 0.95754 0.0
C607 C 0.22771 0.23375 0.95566 0.0
C608 C 0.23993 0.2119 0.96351 0.0
C609 C 0.25355 0.26412 0.94476 0.0
C610 C 0.17509 0.24588 0.94862 0.0
C611 C 0.26952 0.25635 0.93123 0.0
C612 C 0.29162 0.28414 0.92012 0.0
C613 C 0.29811 0.32023 0.92233 0.0
C614 C 0.28317 0.32827 0.93622 0.0
C615 C 0.26134 0.3005 0.94743 0.0
H616 H 0.1445 0.22985 0.94796 0.0
H617 H 0.18311 0.27193 0.95539 0.0
H618 H 0.18603 0.25291 0.93583 0.0
H619 H 0.26392 0.2285 0.92895 0.0
H620 H 0.30246 0.27703 0.90945 0.0
H621 H 0.06387 0.13506 0.34877 0.0
H622 H 0.06659 0.18461 0.33166 0.0
H623 H 0.96773 0.10561 0.306 0.0
H624 H 0.96521 0.05598 0.3228 0.0
H625 H 0.02221 0.15406 0.28495 0.0
H626 H 0.99942 0.22902 0.33631 0.0
H627 H 0.03772 0.22147 0.33906 0.0
H628 H 0.99159 0.18278 0.33857 0.0
C629 C 0.04278 0.12829 0.33945 0.0
C630 C 0.01424 0.09168 0.33715 0.0
C631 C 0.04424 0.15664 0.32977 0.0
C632 C 0.01704 0.14885 0.31774 0.0
C633 C 0.98892 0.11223 0.31526 0.0
H634 H 0.93937 0.27586 0.26776 0.0
H635 H 0.95311 0.23909 0.2868 0.0
C636 C 0.9875 0.08391 0.32487 0.0
C637 C 0.01762 0.17857 0.30761 0.0
H638 H 0.00859 0.25517 0.3097 0.0
C639 C 0.01951 0.17635 0.29034 0.0
C640 C 0.0138 0.2074 0.31472 0.0
C641 C 0.0102 0.21032 0.33317 0.0
C642 C 0.01691 0.20172 0.27994 0.0
C643 C 0.01309 0.23058 0.28704 0.0
C644 C 0.01189 0.23323 0.30433 0.0
C645 C 0.00707 0.25624 0.27667 0.0
C646 C 0.01664 0.1964 0.26144 0.0
C647 C 0.03338 0.27906 0.26502 0.0
C648 C 0.02541 0.2998 0.25397 0.0
C649 C 0.99108 0.29825 0.25446 0.0
C650 C 0.96575 0.27708 0.26683 0.0
C651 C 0.97367 0.25627 0.2778 0.0
H652 H 0.01169 0.16851 0.25811 0.0
H653 H 0.99508 0.20046 0.25542 0.0
H654 H 0.04377 0.21702 0.25632 0.0
H655 H 0.05962 0.27998 0.26416 0.0
H656 H 0.04549 0.31569 0.24457 0.0
loop_
_geom_bond_atom_site_label_1
_geom_bond_atom_site_label_2
_geom_bond_distance
_geom_bond_site_symmetry_2
_ccdc_geom_bond_type
In0 O1 2.294 1_455 S
In0 O2 2.326 . S
In0 O6 2.266 1_445 S
In0 O7 2.326 1_445 S
In0 O8 2.266 1_545 S
In0 O9 2.326 1_445 S
In0 O11 2.294 . S
In0 O12 2.326 . S
O1 In0 2.294 1_655 S
O1 C10 1.240 1_655 S
O2 In0 2.326 . S
O2 C10 1.252 . S
C3 O6 1.252 . S
C3 O7 1.260 . S
C4 O11 1.240 . S
C4 O12 1.252 . S
C5 O8 1.248 1_655 S
C5 O9 1.266 . S
O6 In0 2.266 1_665 S
O6 C3 1.252 . S
O7 In0 2.326 1_665 S
O7 C3 1.260 . S
O8 In0 2.266 1_565 S
O8 C5 1.248 1_455 S
O9 In0 2.326 1_665 S
O9 C5 1.266 . S
C10 O1 1.240 1_455 S
C10 O2 1.252 . S
O11 In0 2.294 . S
O11 C4 1.240 . S
O12 In0 2.326 . S
O12 C4 1.252 . S
In13 O14 2.291 . S
In13 O15 2.305 1_455 S
In13 O19 2.292 . S
In13 O20 2.343 1_545 S
In13 O21 2.269 1_445 S
In13 O22 2.347 1_545 S
In13 O24 2.269 1_445 S
In13 O25 2.308 1_455 S
O14 In13 2.291 . S
O14 C23 1.240 1_455 S
O15 In13 2.305 1_655 S
O15 C23 1.252 . S
C16 O19 1.251 1_565 S
C16 O20 1.261 . S
C17 O24 1.240 1_545 S
C17 O25 1.252 . S
C18 O21 1.252 1_455 S
C18 O22 1.260 . S
O19 In13 2.292 . S
O19 C16 1.251 1_545 S
O20 In13 2.343 1_565 S
O20 C16 1.261 . S
O21 In13 2.269 1_665 S
O21 C18 1.252 1_655 S
O22 In13 2.347 1_565 S
O22 C18 1.260 . S
C23 O14 1.240 1_655 S
C23 O15 1.252 . S
O24 In13 2.269 1_665 S
O24 C17 1.240 1_565 S
O25 In13 2.308 1_655 S
O25 C17 1.252 . S
In26 O27 2.273 1_445 S
In26 O28 2.306 1_445 S
In26 O32 2.275 1_545 S
In26 O33 2.347 . S
In26 O34 2.288 . S
In26 O35 2.345 . S
In26 O37 2.286 1_455 S
In26 O38 2.304 1_445 S
O27 In26 2.273 1_665 S
O27 C36 1.240 . S
O28 In26 2.306 1_665 S
O28 C36 1.252 . S
C29 O32 1.252 1_545 S
C29 O33 1.260 . S
C30 O37 1.240 1_565 S
C30 O38 1.252 . S
C31 O34 1.252 . S
C31 O35 1.260 . S
O32 In26 2.275 1_565 S
O32 C29 1.252 1_565 S
O33 In26 2.347 . S
O33 C29 1.260 . S
O34 In26 2.288 . S
O34 C31 1.252 . S
O35 In26 2.345 . S
O35 C31 1.260 . S
C36 O27 1.240 . S
C36 O28 1.252 . S
O37 In26 2.286 1_655 S
O37 C30 1.240 1_545 S
O38 In26 2.304 1_665 S
O38 C30 1.252 . S
H39 C66 0.929 . S
N40 C65 1.433 . S
N40 C71 1.435 . S
N40 C77 1.423 . S
H41 C67 0.930 . S
H42 C70 0.931 . S
H43 C69 0.929 . S
H44 C72 0.930 . S
H45 C73 0.932 . S
H46 C76 0.929 . S
H47 C75 0.931 . S
H48 C78 0.929 . S
H49 C82 0.933 1_455 S
H50 C79 0.931 . S
H51 C81 0.929 1_455 S
H52 C84 0.929 . S
H53 C85 0.930 . S
H54 C87 0.929 . S
H55 C88 0.931 . S
H56 C90 0.930 . S
H57 C91 0.932 . S
H58 C93 0.931 . S
H59 C94 0.929 . S
H60 C96 0.929 . S
H61 C97 0.931 . S
H62 C99 0.929 1_455 S
N63 C83 1.433 . S
N63 C89 1.435 . S
N63 C95 1.423 . S
H64 C100 0.935 1_455 S
C65 N40 1.433 . S
C65 C66 1.363 . S
C65 C70 1.370 1_655 S
C66 H39 0.929 . S
C66 C65 1.363 . S
C66 C67 1.385 . S
C67 H41 0.930 . S
C67 C66 1.385 . S
C67 C68 1.357 . S
C68 C67 1.357 . S
C68 C69 1.406 1_655 S
C69 H43 0.929 . S
C69 C68 1.406 1_455 S
C69 C70 1.391 . S
C70 H42 0.931 . S
C70 C65 1.370 1_455 S
C70 C69 1.391 . S
C71 N40 1.435 . S
C71 C72 1.358 1_655 S
C71 C76 1.371 . S
C72 H44 0.930 . S
C72 C71 1.358 1_455 S
C72 C73 1.405 . S
C73 H45 0.932 . S
C73 C72 1.405 . S
C73 C74 1.396 . S
C74 C73 1.396 . S
C74 C75 1.386 1_455 S
C75 H47 0.931 . S
C75 C74 1.386 1_655 S
C75 C76 1.382 . S
C76 H46 0.929 . S
C76 C71 1.371 . S
C76 C75 1.382 . S
C77 N40 1.423 . S
C77 C78 1.362 . S
C77 C82 1.385 . S
C78 H48 0.929 . S
C78 C77 1.362 . S
C78 C79 1.376 . S
C79 H50 0.931 . S
C79 C78 1.376 . S
C79 C80 1.396 . S
C80 C79 1.396 . S
C80 C81 1.348 . S
C80 C98 1.472 . S
C81 H51 0.929 1_655 S
C81 C80 1.348 . S
C81 C82 1.444 . S
C82 H49 0.933 1_655 S
C82 C77 1.385 . S
C82 C81 1.444 . S
C83 N63 1.433 . S
C83 C84 1.363 . S
C83 C88 1.370 1_655 S
C84 H52 0.929 . S
C84 C83 1.363 . S
C84 C85 1.385 . S
C85 H53 0.930 . S
C85 C84 1.385 . S
C85 C86 1.357 . S
C86 C85 1.357 . S
C86 C87 1.406 1_655 S
C87 H54 0.929 . S
C87 C86 1.406 1_455 S
C87 C88 1.391 . S
C88 H55 0.931 . S
C88 C83 1.370 1_455 S
C88 C87 1.391 . S
C89 N63 1.435 . S
C89 C90 1.358 1_655 S
C89 C94 1.371 . S
C90 H56 0.930 . S
C90 C89 1.358 1_455 S
C90 C91 1.405 . S
C91 H57 0.932 . S
C91 C90 1.405 . S
C91 C92 1.399 . S
C92 C91 1.399 . S
C92 C93 1.364 1_455 S
C93 H58 0.931 . S
C93 C92 1.364 1_655 S
C93 C94 1.382 . S
C94 H59 0.929 . S
C94 C89 1.371 . S
C94 C93 1.382 . S
C95 N63 1.423 . S
C95 C96 1.362 . S
C95 C100 1.387 . S
C96 H60 0.929 . S
C96 C95 1.362 . S
C96 C97 1.376 . S
C97 H61 0.931 . S
C97 C96 1.376 . S
C97 C98 1.396 . S
C98 C80 1.472 . S
C98 C97 1.396 . S
C98 C99 1.348 . S
C99 H62 0.929 1_655 S
C99 C98 1.348 . S
C99 C100 1.440 . S
C100 H64 0.935 1_655 S
C100 C95 1.387 . S
C100 C99 1.440 . S
H101 C128 0.929 . S
N102 C127 1.433 . S
N102 C133 1.435 . S
N102 C139 1.423 . S
H103 C129 0.930 . S
H104 C132 0.931 . S
H105 C131 0.929 . S
H106 C134 0.930 . S
H107 C135 0.932 . S
H108 C138 0.929 . S
H109 C137 0.931 . S
H110 C140 0.929 . S
H111 C144 0.932 1_565 S
H112 C141 0.931 . S
H113 C143 0.929 1_565 S
H114 C146 0.929 . S
H115 C147 0.930 . S
H116 C149 0.929 . S
H117 C150 0.931 . S
H118 C152 0.930 . S
H119 C153 0.932 . S
H120 C155 0.931 . S
H121 C156 0.929 . S
H122 C158 0.929 . S
H123 C159 0.931 . S
H124 C161 0.929 1_565 S
N125 C145 1.433 . S
N125 C151 1.435 . S
N125 C157 1.423 . S
H126 C162 0.932 1_565 S
C127 N102 1.433 . S
C127 C128 1.363 . S
C127 C132 1.370 1_545 S
C128 H101 0.929 . S
C128 C127 1.363 . S
C128 C129 1.385 . S
C129 H103 0.930 . S
C129 C128 1.385 . S
C129 C130 1.357 . S
C130 C129 1.357 . S
C130 C131 1.406 1_545 S
C131 H105 0.929 . S
C131 C130 1.406 1_565 S
C131 C132 1.391 . S
C132 H104 0.931 . S
C132 C127 1.370 1_565 S
C132 C131 1.391 . S
C133 N102 1.435 . S
C133 C134 1.358 1_545 S
C133 C138 1.371 . S
C134 H106 0.930 . S
C134 C133 1.358 1_565 S
C134 C135 1.405 . S
C135 H107 0.932 . S
C135 C134 1.405 . S
C135 C136 1.383 1_565 S
C136 C135 1.383 1_545 S
C136 C137 1.393 . S
C137 H109 0.931 . S
C137 C136 1.393 . S
C137 C138 1.382 . S
C138 H108 0.929 . S
C138 C133 1.371 . S
C138 C137 1.382 . S
C139 N102 1.423 . S
C139 C140 1.362 . S
C139 C144 1.388 . S
C140 H110 0.929 . S
C140 C139 1.362 . S
C140 C141 1.376 . S
C141 H112 0.931 . S
C141 C140 1.376 . S
C141 C142 1.396 . S
C142 C141 1.396 . S
C142 C143 1.348 . S
C142 C160 1.472 . S
C143 H113 0.929 1_545 S
C143 C142 1.348 . S
C143 C144 1.443 . S
C144 H111 0.932 1_545 S
C144 C139 1.388 . S
C144 C143 1.443 . S
C145 N125 1.433 . S
C145 C146 1.363 . S
C145 C150 1.370 1_545 S
C146 H114 0.929 . S
C146 C145 1.363 . S
C146 C147 1.385 . S
C147 H115 0.930 . S
C147 C146 1.385 . S
C147 C148 1.357 . S
C148 C147 1.357 . S
C148 C149 1.406 1_545 S
C149 H116 0.929 . S
C149 C148 1.406 1_565 S
C149 C150 1.391 . S
C150 H117 0.931 . S
C150 C145 1.370 1_565 S
C150 C149 1.391 . S
C151 N125 1.435 . S
C151 C152 1.358 1_545 S
C151 C156 1.371 . S
C152 H118 0.930 . S
C152 C151 1.358 1_565 S
C152 C153 1.405 . S
C153 H119 0.932 . S
C153 C152 1.405 . S
C153 C154 1.383 1_565 S
C154 C153 1.383 1_545 S
C154 C155 1.393 . S
C155 H120 0.931 . S
C155 C154 1.393 . S
C155 C156 1.382 . S
C156 H121 0.929 . S
C156 C151 1.371 . S
C156 C155 1.382 . S
C157 N125 1.423 . S
C157 C158 1.362 . S
C157 C162 1.388 . S
C158 H122 0.929 . S
C158 C157 1.362 . S
C158 C159 1.376 . S
C159 H123 0.931 . S
C159 C158 1.376 . S
C159 C160 1.396 . S
C160 C142 1.472 . S
C160 C159 1.396 . S
C160 C161 1.348 . S
C161 H124 0.929 1_545 S
C161 C160 1.348 . S
C161 C162 1.443 . S
C162 H126 0.932 1_545 S
C162 C157 1.388 . S
C162 C161 1.443 . S
H163 C190 0.929 . S
N164 C189 1.433 . S
N164 C195 1.435 . S
N164 C201 1.423 . S
H165 C191 0.930 . S
H166 C194 0.931 . S
H167 C193 0.929 . S
H168 C196 0.930 . S
H169 C197 0.932 . S
H170 C200 0.929 . S
H171 C199 0.931 . S
H172 C202 0.929 . S
H173 C206 0.932 . S
H174 C203 0.931 . S
H175 C205 0.929 . S
H176 C208 0.929 . S
H177 C209 0.930 . S
H178 C211 0.929 . S
H179 C212 0.931 . S
H180 C214 0.930 . S
H181 C215 0.932 . S
H182 C217 0.931 . S
H183 C218 0.929 . S
H184 C220 0.929 . S
H185 C221 0.931 . S
H186 C223 0.929 . S
N187 C207 1.433 . S
N187 C213 1.435 . S
N187 C219 1.423 . S
H188 C224 0.932 . S
C189 N164 1.433 . S
C189 C190 1.363 . S
C189 C194 1.370 . S
C190 H163 0.929 . S
C190 C189 1.363 . S
C190 C191 1.385 . S
C191 H165 0.930 . S
C191 C190 1.385 . S
C191 C192 1.357 . S
C192 C191 1.357 . S
C192 C193 1.406 . S
C193 H167 0.929 . S
C193 C192 1.406 . S
C193 C194 1.391 . S
C194 H166 0.931 . S
C194 C189 1.370 . S
C194 C193 1.391 . S
C195 N164 1.435 . S
C195 C196 1.358 . S
C195 C200 1.371 . S
C196 H168 0.930 . S
C196 C195 1.358 . S
C196 C197 1.405 . S
C197 H169 0.932 . S
C197 C196 1.405 . S
C197 C198 1.383 . S
C198 C197 1.383 . S
C198 C199 1.393 . S
C199 H171 0.931 . S
C199 C198 1.393 . S
C199 C200 1.382 . S
C200 H170 0.929 . S
C200 C195 1.371 . S
C200 C199 1.382 . S
C201 N164 1.423 . S
C201 C202 1.362 . S
C201 C206 1.388 . S
C202 H172 0.929 . S
C202 C201 1.362 . S
C202 C203 1.376 . S
C203 H174 0.931 . S
C203 C202 1.376 . S
C203 C204 1.396 . S
C204 C203 1.396 . S
C204 C205 1.348 . S
C204 C222 1.472 . S
C205 H175 0.929 . S
C205 C204 1.348 . S
C205 C206 1.443 . S
C206 H173 0.932 . S
C206 C201 1.388 . S
C206 C205 1.443 . S
C207 N187 1.433 . S
C207 C208 1.363 . S
C207 C212 1.370 . S
C208 H176 0.929 . S
C208 C207 1.363 . S
C208 C209 1.385 . S
C209 H177 0.930 . S
C209 C208 1.385 . S
C209 C210 1.357 . S
C210 C209 1.357 . S
C210 C211 1.406 . S
C211 H178 0.929 . S
C211 C210 1.406 . S
C211 C212 1.391 . S
C212 H179 0.931 . S
C212 C207 1.370 . S
C212 C211 1.391 . S
C213 N187 1.435 . S
C213 C214 1.358 . S
C213 C218 1.371 . S
C214 H180 0.930 . S
C214 C213 1.358 . S
C214 C215 1.405 . S
C215 H181 0.932 . S
C215 C214 1.405 . S
C215 C216 1.383 . S
C216 C215 1.383 . S
C216 C217 1.393 . S
C217 H182 0.931 . S
C217 C216 1.393 . S
C217 C218 1.382 . S
C218 H183 0.929 . S
C218 C213 1.371 . S
C218 C217 1.382 . S
C219 N187 1.423 . S
C219 C220 1.362 . S
C219 C224 1.388 . S
C220 H184 0.929 . S
C220 C219 1.362 . S
C220 C221 1.376 . S
C221 H185 0.931 . S
C221 C220 1.376 . S
C221 C222 1.396 . S
C222 C204 1.472 . S
C222 C221 1.396 . S
C222 C223 1.348 . S
C223 H186 0.929 . S
C223 C222 1.348 . S
C223 C224 1.443 . S
C224 H188 0.932 . S
C224 C219 1.388 . S
C224 C223 1.443 . S
H225 C233 0.929 . S
H226 C235 0.930 . S
H227 C237 0.930 . S
H228 C240 0.929 . S
H229 C243 0.930 . S
H230 C245 0.960 . S
H231 C245 0.960 . S
H232 C245 0.960 . S
C233 H225 0.929 . S
C233 C234 1.377 1_655 S
C233 C235 1.384 . S
C234 C233 1.377 1_455 S
C234 C240 1.390 . S
C235 H226 0.930 . S
C235 C233 1.384 . S
C235 C236 1.372 1_655 S
C236 C235 1.372 1_455 S
C236 C237 1.400 . S
C236 C241 1.490 . S
C237 H227 0.930 . S
C237 C236 1.400 . S
C237 C240 1.386 . S
H238 C254 0.930 . S
H239 C255 0.931 . S
C240 H228 0.929 . S
C240 C234 1.390 . S
C240 C237 1.386 . S
C241 C236 1.490 . S
C241 C243 1.395 . S
C241 C244 1.403 1_455 S
H242 C248 0.930 . S
C243 H229 0.930 . S
C243 C241 1.395 . S
C243 C246 1.403 . S
C244 C241 1.403 1_655 S
C244 C245 1.524 . S
C244 C248 1.400 . S
C245 H230 0.960 . S
C245 H231 0.960 . S
C245 H232 0.960 . S
C245 C244 1.524 . S
C246 C243 1.403 . S
C246 C247 1.392 . S
C246 C250 1.495 . S
C247 C246 1.392 . S
C247 C248 1.385 1_455 S
C247 C249 1.478 . S
C248 H242 0.930 . S
C248 C244 1.400 . S
C248 C247 1.385 1_655 S
C249 C247 1.478 . S
C249 C251 1.381 1_455 S
C249 C255 1.383 . S
C250 C246 1.495 . S
C250 H256 0.959 . S
C250 H257 0.961 . S
C250 H258 0.960 . S
C251 C249 1.381 1_655 S
C251 C252 1.394 . S
C251 H259 0.930 . S
C252 C251 1.394 . S
C252 C253 1.383 1_655 S
C252 H260 0.929 . S
C253 C252 1.383 1_455 S
C253 C254 1.377 . S
C254 H238 0.930 . S
C254 C253 1.377 . S
C254 C255 1.379 . S
C255 H239 0.931 . S
C255 C249 1.383 . S
C255 C254 1.379 . S
H256 C250 0.959 . S
H257 C250 0.961 . S
H258 C250 0.960 . S
H259 C251 0.930 . S
H260 C252 0.929 . S
H261 C269 0.929 . S
H262 C271 0.930 . S
H263 C273 0.930 . S
H264 C276 0.929 . S
H265 C279 0.930 . S
H266 C281 0.960 . S
H267 C281 0.960 . S
H268 C281 0.960 . S
C269 H261 0.929 . S
C269 C270 1.377 . S
C269 C271 1.384 . S
C270 C269 1.377 . S
C270 C276 1.390 1_545 S
C271 H262 0.930 . S
C271 C269 1.384 . S
C271 C272 1.372 . S
C272 C271 1.372 . S
C272 C273 1.400 1_545 S
C272 C277 1.490 . S
C273 H263 0.930 . S
C273 C272 1.400 1_565 S
C273 C276 1.386 . S
H274 C290 0.930 . S
H275 C291 0.938 . S
C276 H264 0.929 . S
C276 C270 1.390 1_565 S
C276 C273 1.386 . S
C277 C272 1.490 . S
C277 C279 1.395 . S
C277 C280 1.403 1_545 S
H278 C284 0.930 . S
C279 H265 0.930 . S
C279 C277 1.395 . S
C279 C282 1.403 . S
C280 C277 1.403 1_565 S
C280 C281 1.524 . S
C280 C284 1.400 . S
C281 H266 0.960 . S
C281 H267 0.960 . S
C281 H268 0.960 . S
C281 C280 1.524 . S
C282 C279 1.403 . S
C282 C283 1.392 . S
C282 C286 1.495 . S
C283 C282 1.392 . S
C283 C284 1.385 1_545 S
C283 C285 1.478 . S
C284 H278 0.930 . S
C284 C280 1.400 . S
C284 C283 1.385 1_565 S
C285 C283 1.478 . S
C285 C287 1.381 . S
C285 C291 1.389 1_545 S
C286 C282 1.495 . S
C286 H292 0.959 . S
C286 H293 0.961 . S
C286 H294 0.960 . S
C287 C285 1.381 . S
C287 C288 1.394 . S
C287 H295 0.930 . S
C288 C287 1.394 . S
C288 C289 1.383 . S
C288 H296 0.929 . S
C289 C288 1.383 . S
C289 C290 1.377 1_545 S
C290 H274 0.930 . S
C290 C289 1.377 1_565 S
C290 C291 1.368 . S
C291 H275 0.938 . S
C291 C285 1.389 1_565 S
C291 C290 1.368 . S
H292 C286 0.959 . S
H293 C286 0.961 . S
H294 C286 0.960 . S
H295 C287 0.930 . S
H296 C288 0.929 . S
H297 C305 0.929 . S
H298 C307 0.930 . S
H299 C309 0.930 . S
H300 C312 0.929 . S
H301 C315 0.930 . S
H302 C317 0.960 . S
H303 C317 0.960 . S
H304 C317 0.960 . S
C305 H297 0.929 . S
C305 C306 1.377 . S
C305 C307 1.384 . S
C306 C305 1.377 . S
C306 C312 1.390 . S
C307 H298 0.930 . S
C307 C305 1.384 . S
C307 C308 1.372 . S
C308 C307 1.372 . S
C308 C309 1.400 . S
C308 C313 1.490 . S
C309 H299 0.930 . S
C309 C308 1.400 . S
C309 C312 1.386 . S
H310 C326 0.930 . S
H311 C327 0.931 . S
C312 H300 0.929 . S
C312 C306 1.390 . S
C312 C309 1.386 . S
C313 C308 1.490 . S
C313 C315 1.395 . S
C313 C316 1.403 . S
H314 C320 0.930 . S
C315 H301 0.930 . S
C315 C313 1.395 . S
C315 C318 1.403 . S
C316 C313 1.403 . S
C316 C317 1.524 . S
C316 C320 1.400 . S
C317 H302 0.960 . S
C317 H303 0.960 . S
C317 H304 0.960 . S
C317 C316 1.524 . S
C318 C315 1.403 . S
C318 C319 1.392 . S
C318 C322 1.495 . S
C319 C318 1.392 . S
C319 C320 1.385 . S
C319 C321 1.478 . S
C320 H314 0.930 . S
C320 C316 1.400 . S
C320 C319 1.385 . S
C321 C319 1.478 . S
C321 C323 1.381 . S
C321 C327 1.383 . S
C322 C318 1.495 . S
C322 H328 0.959 . S
C322 H329 0.961 . S
C322 H330 0.960 . S
C323 C321 1.381 . S
C323 C324 1.394 . S
C323 H331 0.930 . S
C324 C323 1.394 . S
C324 C325 1.383 . S
C324 H332 0.929 . S
C325 C324 1.383 . S
C325 C326 1.377 . S
C326 H310 0.930 . S
C326 C325 1.377 . S
C326 C327 1.379 . S
C327 H311 0.931 . S
C327 C321 1.383 . S
C327 C326 1.379 . S
H328 C322 0.959 . S
H329 C322 0.961 . S
H330 C322 0.960 . S
H331 C323 0.930 . S
H332 C324 0.929 . S
H333 C341 0.929 . S
H334 C343 0.930 . S
H335 C345 0.930 . S
H336 C348 0.929 . S
H337 C351 0.930 . S
H338 C353 0.960 . S
H339 C353 0.960 . S
H340 C353 0.960 1_455 S
C341 H333 0.929 . S
C341 C342 1.383 . S
C341 C343 1.384 . S
C342 C341 1.383 . S
C342 C348 1.377 1_655 S
C343 H334 0.930 . S
C343 C341 1.384 . S
C343 C344 1.372 . S
C344 C343 1.372 . S
C344 C345 1.400 1_655 S
C344 C349 1.503 . S
C345 H335 0.930 . S
C345 C344 1.400 1_455 S
C345 C348 1.386 . S
H346 C362 0.930 . S
H347 C363 0.931 . S
C348 H336 0.929 . S
C348 C342 1.377 1_455 S
C348 C345 1.386 . S
C349 C344 1.503 . S
C349 C351 1.379 1_655 S
C349 C352 1.406 . S
H350 C356 0.930 . S
C351 H337 0.930 . S
C351 C349 1.379 1_455 S
C351 C354 1.403 . S
C352 C349 1.406 . S
C352 C353 1.524 . S
C352 C356 1.400 . S
C353 H338 0.960 . S
C353 H339 0.960 . S
C353 H340 0.960 1_655 S
C353 C352 1.524 . S
C354 C351 1.403 . S
C354 C355 1.395 . S
C354 C358 1.495 . S
C355 C354 1.395 . S
C355 C356 1.367 1_455 S
C355 C357 1.494 . S
C356 H350 0.930 . S
C356 C352 1.400 . S
C356 C355 1.367 1_655 S
C357 C355 1.494 . S
C357 C359 1.381 1_455 S
C357 C363 1.383 . S
C358 C354 1.495 . S
C358 H364 0.959 . S
C358 H365 0.961 . S
C358 H366 0.960 1_455 S
C359 C357 1.381 1_655 S
C359 C360 1.394 . S
C359 H367 0.930 . S
C360 C359 1.394 . S
C360 C361 1.383 1_655 S
C360 H368 0.929 . S
C361 C360 1.383 1_455 S
C361 C362 1.377 . S
C362 H346 0.930 . S
C362 C361 1.377 . S
C362 C363 1.379 . S
C363 H347 0.931 . S
C363 C357 1.383 . S
C363 C362 1.379 . S
H364 C358 0.959 . S
H365 C358 0.961 . S
H366 C358 0.960 1_655 S
H367 C359 0.930 . S
H368 C360 0.929 . S
H369 C377 0.929 . S
H370 C379 0.930 . S
H371 C381 0.930 . S
H372 C384 0.929 . S
H373 C387 0.930 . S
H374 C389 0.975 . S
H375 C389 0.960 . S
H376 C389 0.960 1_565 S
C377 H369 0.929 . S
C377 C378 1.390 . S
C377 C379 1.384 . S
C378 C377 1.390 . S
C378 C384 1.368 1_545 S
C379 H370 0.930 . S
C379 C377 1.384 . S
C379 C380 1.372 . S
C380 C379 1.372 . S
C380 C381 1.400 1_545 S
C380 C385 1.490 . S
C381 H371 0.930 . S
C381 C380 1.400 1_565 S
C381 C384 1.386 . S
H382 C398 0.930 . S
H383 C399 0.931 . S
C384 H372 0.929 . S
C384 C378 1.368 1_565 S
C384 C381 1.386 . S
C385 C380 1.490 . S
C385 C387 1.395 . S
C385 C388 1.403 . S
H386 C392 0.932 . S
C387 H373 0.930 . S
C387 C385 1.395 . S
C387 C390 1.403 . S
C388 C385 1.403 . S
C388 C389 1.524 . S
C388 C392 1.400 . S
C389 H374 0.975 . S
C389 H375 0.960 . S
C389 H376 0.960 1_545 S
C389 C388 1.524 . S
C390 C387 1.403 . S
C390 C391 1.392 . S
C390 C394 1.495 . S
C391 C390 1.392 . S
C391 C392 1.385 . S
C391 C393 1.478 . S
C392 H386 0.932 . S
C392 C388 1.400 . S
C392 C391 1.385 . S
C393 C391 1.478 . S
C393 C395 1.381 . S
C393 C399 1.383 1_545 S
C394 C390 1.495 . S
C394 H400 0.959 . S
C394 H401 0.961 1_545 S
C394 H402 0.960 . S
C395 C393 1.381 . S
C395 C396 1.394 . S
C395 H403 0.930 . S
C396 C395 1.394 . S
C396 C397 1.383 . S
C396 H404 0.929 . S
C397 C396 1.383 . S
C397 C398 1.377 1_545 S
C398 H382 0.930 . S
C398 C397 1.377 1_565 S
C398 C399 1.379 . S
C399 H383 0.931 . S
C399 C393 1.383 1_565 S
C399 C398 1.379 . S
H400 C394 0.959 . S
H401 C394 0.961 1_565 S
H402 C394 0.960 . S
H403 C395 0.930 . S
H404 C396 0.929 . S
H405 C413 0.929 . S
H406 C415 0.930 . S
H407 C417 0.930 . S
H408 C420 0.929 . S
H409 C423 0.930 . S
H410 C425 0.960 . S
H411 C425 0.960 . S
H412 C425 0.960 . S
C413 H405 0.929 . S
C413 C414 1.377 . S
C413 C415 1.384 . S
C414 C413 1.377 . S
C414 C420 1.390 . S
C415 H406 0.930 . S
C415 C413 1.384 . S
C415 C416 1.372 . S
C416 C415 1.372 . S
C416 C417 1.400 . S
C416 C421 1.490 . S
C417 H407 0.930 . S
C417 C416 1.400 . S
C417 C420 1.386 . S
H418 C434 0.930 . S
H419 C435 0.931 . S
C420 H408 0.929 . S
C420 C414 1.390 . S
C420 C417 1.386 . S
C421 C416 1.490 . S
C421 C423 1.395 . S
C421 C424 1.403 . S
H422 C428 0.930 . S
C423 H409 0.930 . S
C423 C421 1.395 . S
C423 C426 1.403 . S
C424 C421 1.403 . S
C424 C425 1.524 . S
C424 C428 1.400 . S
C425 H410 0.960 . S
C425 H411 0.960 . S
C425 H412 0.960 . S
C425 C424 1.524 . S
C426 C423 1.403 . S
C426 C427 1.392 . S
C426 C430 1.495 . S
C427 C426 1.392 . S
C427 C428 1.385 . S
C427 C429 1.478 . S
C428 H422 0.930 . S
C428 C424 1.400 . S
C428 C427 1.385 . S
C429 C427 1.478 . S
C429 C431 1.381 . S
C429 C435 1.383 . S
C430 C426 1.495 . S
C430 H436 0.959 . S
C430 H437 0.961 . S
C430 H438 0.960 . S
C431 C429 1.381 . S
C431 C432 1.394 . S
C431 H439 0.930 . S
C432 C431 1.394 . S
C432 C433 1.383 . S
C432 H440 0.929 . S
C433 C432 1.383 . S
C433 C434 1.377 . S
C434 H418 0.930 . S
C434 C433 1.377 . S
C434 C435 1.379 . S
C435 H419 0.931 . S
C435 C429 1.383 . S
C435 C434 1.379 . S
H436 C430 0.959 . S
H437 C430 0.961 . S
H438 C430 0.960 . S
H439 C431 0.930 . S
H440 C432 0.929 . S
H441 C449 0.929 . S
H442 C451 0.930 . S
H443 C453 0.930 . S
H444 C456 0.929 . S
H445 C459 0.930 . S
H446 C461 0.960 . S
H447 C461 0.960 . S
H448 C461 0.960 . S
C449 H441 0.929 . S
C449 C450 1.377 . S
C449 C451 1.384 . S
C450 C449 1.377 . S
C450 C456 1.390 1_565 S
C451 H442 0.930 . S
C451 C449 1.384 . S
C451 C452 1.372 . S
C452 C451 1.372 . S
C452 C453 1.400 1_565 S
C452 C457 1.490 . S
C453 H443 0.930 . S
C453 C452 1.400 1_545 S
C453 C456 1.386 . S
H454 C470 0.930 . S
H455 C471 0.931 . S
C456 H444 0.929 . S
C456 C450 1.390 1_545 S
C456 C453 1.386 . S
C457 C452 1.490 . S
C457 C459 1.395 1_565 S
C457 C460 1.403 . S
H458 C464 0.930 . S
C459 H445 0.930 . S
C459 C457 1.395 1_545 S
C459 C462 1.403 . S
C460 C457 1.403 . S
C460 C461 1.524 . S
C460 C464 1.400 . S
C461 H446 0.960 . S
C461 H447 0.960 . S
C461 H448 0.960 . S
C461 C460 1.524 . S
C462 C459 1.403 . S
C462 C463 1.392 . S
C462 C466 1.495 . S
C463 C462 1.392 . S
C463 C464 1.385 1_545 S
C463 C465 1.478 . S
C464 H458 0.930 . S
C464 C460 1.400 . S
C464 C463 1.385 1_565 S
C465 C463 1.478 . S
C465 C467 1.381 1_545 S
C465 C471 1.383 . S
C466 C462 1.495 . S
C466 H472 0.959 . S
C466 H473 0.961 . S
C466 H474 0.960 . S
C467 C465 1.381 1_565 S
C467 C468 1.394 . S
C467 H475 0.930 . S
C468 C467 1.394 . S
C468 C469 1.383 1_565 S
C468 H476 0.929 . S
C469 C468 1.383 1_545 S
C469 C470 1.377 . S
C470 H454 0.930 . S
C470 C469 1.377 . S
C470 C471 1.379 . S
C471 H455 0.931 . S
C471 C465 1.383 . S
C471 C470 1.379 . S
H472 C466 0.959 . S
H473 C466 0.961 . S
H474 C466 0.960 . S
H475 C467 0.930 . S
H476 C468 0.929 . S
H477 C485 0.929 . S
H478 C487 0.930 . S
H479 C489 0.930 . S
H480 C492 0.929 . S
H481 C495 0.930 . S
H482 C497 0.960 . S
H483 C497 0.960 . S
H484 C497 0.960 . S
C485 H477 0.929 . S
C485 C486 1.377 . S
C485 C487 1.384 . S
C486 C485 1.377 . S
C486 C492 1.390 1_554 S
C487 H478 0.930 . S
C487 C485 1.384 . S
C487 C488 1.372 1_554 S
C488 C487 1.372 1_556 S
C488 C489 1.400 . S
C488 C493 1.490 . S
C489 H479 0.930 . S
C489 C488 1.400 . S
C489 C492 1.386 . S
H490 C506 0.930 . S
H491 C507 0.931 . S
C492 H480 0.929 . S
C492 C486 1.390 1_556 S
C492 C489 1.386 . S
C493 C488 1.490 . S
C493 C495 1.395 . S
C493 C496 1.403 . S
H494 C500 0.930 . S
C495 H481 0.930 . S
C495 C493 1.395 . S
C495 C498 1.403 . S
C496 C493 1.403 . S
C496 C497 1.524 . S
C496 C500 1.400 . S
C497 H482 0.960 . S
C497 H483 0.960 . S
C497 H484 0.960 . S
C497 C496 1.524 . S
C498 C495 1.403 . S
C498 C499 1.392 . S
C498 C502 1.495 . S
C499 C498 1.392 . S
C499 C500 1.385 . S
C499 C501 1.478 . S
C500 H494 0.930 . S
C500 C496 1.400 . S
C500 C499 1.385 . S
C501 C499 1.478 . S
C501 C503 1.381 . S
C501 C507 1.383 . S
C502 C498 1.495 . S
C502 H508 0.959 . S
C502 H509 0.961 . S
C502 H510 0.960 . S
C503 C501 1.381 . S
C503 C504 1.394 . S
C503 H511 0.930 . S
C504 C503 1.394 . S
C504 C505 1.383 . S
C504 H512 0.929 . S
C505 C504 1.383 . S
C505 C506 1.377 . S
C506 H490 0.930 . S
C506 C505 1.377 . S
C506 C507 1.379 . S
C507 H491 0.931 . S
C507 C501 1.383 . S
C507 C506 1.379 . S
H508 C502 0.959 . S
H509 C502 0.961 . S
H510 C502 0.960 . S
H511 C503 0.930 . S
H512 C504 0.929 . S
H513 C521 0.929 . S
H514 C523 0.930 . S
H515 C525 0.930 . S
H516 C528 0.929 . S
H517 C531 0.930 . S
H518 C533 0.960 . S
H519 C533 0.960 . S
H520 C533 0.960 . S
C521 H513 0.929 . S
C521 C522 1.377 . S
C521 C523 1.384 . S
C522 C521 1.377 . S
C522 C528 1.390 1_455 S
C523 H514 0.930 . S
C523 C521 1.384 . S
C523 C524 1.372 . S
C524 C523 1.372 . S
C524 C525 1.400 1_455 S
C524 C529 1.490 . S
C525 H515 0.930 . S
C525 C524 1.400 1_655 S
C525 C528 1.386 . S
H526 C542 0.930 . S
H527 C543 0.931 . S
C528 H516 0.929 . S
C528 C522 1.390 1_655 S
C528 C525 1.386 . S
C529 C524 1.490 . S
C529 C531 1.395 . S
C529 C532 1.403 1_455 S
H530 C536 0.930 . S
C531 H517 0.930 . S
C531 C529 1.395 . S
C531 C534 1.403 . S
C532 C529 1.403 1_655 S
C532 C533 1.524 . S
C532 C536 1.400 . S
C533 H518 0.960 . S
C533 H519 0.960 . S
C533 H520 0.960 . S
C533 C532 1.524 . S
C534 C531 1.403 . S
C534 C535 1.392 . S
C534 C538 1.495 . S
C535 C534 1.392 . S
C535 C536 1.385 1_455 S
C535 C537 1.478 . S
C536 H530 0.930 . S
C536 C532 1.400 . S
C536 C535 1.385 1_655 S
C537 C535 1.478 . S
C537 C539 1.381 . S
C537 C543 1.383 1_455 S
C538 C534 1.495 . S
C538 H544 0.959 . S
C538 H545 0.961 . S
C538 H546 0.960 . S
C539 C537 1.381 . S
C539 C540 1.394 . S
C539 H547 0.930 . S
C540 C539 1.394 . S
C540 C541 1.383 . S
C540 H548 0.929 . S
C541 C540 1.383 . S
C541 C542 1.377 1_455 S
C542 H526 0.930 . S
C542 C541 1.377 1_655 S
C542 C543 1.379 . S
C543 H527 0.931 . S
C543 C537 1.383 1_655 S
C543 C542 1.379 . S
H544 C538 0.959 . S
H545 C538 0.961 . S
H546 C538 0.960 . S
H547 C539 0.930 . S
H548 C540 0.929 . S
H549 C557 0.929 . S
H550 C559 0.930 . S
H551 C561 0.930 . S
H552 C564 0.929 . S
H553 C567 0.930 . S
H554 C569 0.960 . S
H555 C569 0.960 . S
H556 C569 0.960 . S
C557 H549 0.929 . S
C557 C558 1.377 . S
C557 C559 1.384 . S
C558 C557 1.377 . S
C558 C564 1.390 1_545 S
C559 H550 0.930 . S
C559 C557 1.384 . S
C559 C560 1.372 . S
C560 C559 1.372 . S
C560 C561 1.400 1_545 S
C560 C565 1.490 . S
C561 H551 0.930 . S
C561 C560 1.400 1_565 S
C561 C564 1.386 . S
H562 C578 0.930 . S
H563 C579 0.931 . S
C564 H552 0.929 . S
C564 C558 1.390 1_565 S
C564 C561 1.386 . S
C565 C560 1.490 . S
C565 C567 1.395 1_545 S
C565 C568 1.403 . S
H566 C572 0.930 . S
C567 H553 0.930 . S
C567 C565 1.395 1_565 S
C567 C570 1.403 . S
C568 C565 1.403 . S
C568 C569 1.524 . S
C568 C572 1.400 . S
C569 H554 0.960 . S
C569 H555 0.960 . S
C569 H556 0.960 . S
C569 C568 1.524 . S
C570 C567 1.403 . S
C570 C571 1.392 . S
C570 C574 1.495 . S
C571 C570 1.392 . S
C571 C572 1.385 1_565 S
C571 C573 1.478 . S
C572 H566 0.930 . S
C572 C568 1.400 . S
C572 C571 1.385 1_545 S
C573 C571 1.478 . S
C573 C575 1.381 1_565 S
C573 C579 1.383 . S
C574 C570 1.495 . S
C574 H580 0.959 . S
C574 H581 0.961 . S
C574 H582 0.960 . S
C575 C573 1.381 1_545 S
C575 C576 1.394 . S
C575 H583 0.930 . S
C576 C575 1.394 . S
C576 C577 1.382 1_545 S
C576 H584 0.929 . S
C577 C576 1.382 1_565 S
C577 C578 1.376 . S
C578 H562 0.930 . S
C578 C577 1.376 . S
C578 C579 1.379 . S
C579 H563 0.931 . S
C579 C573 1.383 . S
C579 C578 1.379 . S
H580 C574 0.959 . S
H581 C574 0.961 . S
H582 C574 0.960 . S
H583 C575 0.930 . S
H584 C576 0.929 . S
H585 C593 0.929 . S
H586 C595 0.930 . S
H587 C597 0.930 . S
H588 C600 0.929 . S
H589 C603 0.930 . S
H590 C605 0.960 . S
H591 C605 0.960 . S
H592 C605 0.960 1_554 S
C593 H585 0.929 . S
C593 C594 1.377 1_556 S
C593 C595 1.384 . S
C594 C593 1.377 1_554 S
C594 C600 1.390 . S
C595 H586 0.930 . S
C595 C593 1.384 . S
C595 C596 1.372 . S
C596 C595 1.372 . S
C596 C597 1.400 1_556 S
C596 C601 1.490 . S
C597 H587 0.930 . S
C597 C596 1.400 1_554 S
C597 C600 1.386 . S
H598 C614 0.930 . S
H599 C615 0.931 . S
C600 H588 0.929 . S
C600 C594 1.390 . S
C600 C597 1.386 . S
C601 C596 1.490 . S
C601 C603 1.395 . S
C601 C604 1.403 . S
H602 C608 0.930 . S
C603 H589 0.930 . S
C603 C601 1.395 . S
C603 C606 1.403 . S
C604 C601 1.403 . S
C604 C605 1.524 . S
C604 C608 1.400 . S
C605 H590 0.960 . S
C605 H591 0.960 . S
C605 H592 0.960 1_556 S
C605 C604 1.524 . S
C606 C603 1.403 . S
C606 C607 1.392 . S
C606 C610 1.495 . S
C607 C606 1.392 . S
C607 C608 1.385 . S
C607 C609 1.478 . S
C608 H602 0.930 . S
C608 C604 1.400 . S
C608 C607 1.385 . S
C609 C607 1.478 . S
C609 C611 1.381 . S
C609 C615 1.383 . S
C610 C606 1.495 . S
C610 H616 0.959 . S
C610 H617 0.961 . S
C610 H618 0.960 . S
C611 C609 1.381 . S
C611 C612 1.394 . S
C611 H619 0.930 . S
C612 C611 1.394 . S
C612 C613 1.383 . S
C612 H620 0.929 . S
C613 C612 1.383 . S
C613 C614 1.377 . S
C614 H598 0.930 . S
C614 C613 1.377 . S
C614 C615 1.379 . S
C615 H599 0.931 . S
C615 C609 1.383 . S
C615 C614 1.379 . S
H616 C610 0.959 . S
H617 C610 0.961 . S
H618 C610 0.960 . S
H619 C611 0.930 . S
H620 C612 0.929 . S
H621 C629 0.929 . S
H622 C631 0.930 . S
H623 C633 0.930 . S
H624 C636 0.929 . S
H625 C639 0.930 . S
H626 C641 0.960 . S
H627 C641 0.960 1_455 S
H628 C641 0.960 . S
C629 H621 0.929 . S
C629 C630 1.377 1_455 S
C629 C631 1.384 . S
C630 C629 1.377 1_655 S
C630 C636 1.390 . S
C631 H622 0.930 . S
C631 C629 1.384 . S
C631 C632 1.407 . S
C632 C631 1.407 . S
C632 C633 1.380 1_455 S
C632 C637 1.476 . S
C633 H623 0.930 . S
C633 C632 1.380 1_655 S
C633 C636 1.386 . S
H634 C650 0.930 . S
H635 C651 0.931 . S
C636 H624 0.929 . S
C636 C630 1.390 . S
C636 C633 1.386 . S
C637 C632 1.476 . S
C637 C639 1.395 . S
C637 C640 1.403 1_455 S
H638 C644 0.930 . S
C639 H625 0.930 . S
C639 C637 1.395 . S
C639 C642 1.403 . S
C640 C637 1.403 1_655 S
C640 C641 1.524 . S
C640 C644 1.400 . S
C641 H626 0.960 . S
C641 H627 0.960 1_655 S
C641 H628 0.960 . S
C641 C640 1.524 . S
C642 C639 1.403 . S
C642 C643 1.392 . S
C642 C646 1.495 . S
C643 C642 1.392 . S
C643 C644 1.385 1_455 S
C643 C645 1.478 . S
C644 H638 0.930 . S
C644 C640 1.400 . S
C644 C643 1.385 1_655 S
C645 C643 1.478 . S
C645 C647 1.381 . S
C645 C651 1.383 1_455 S
C646 C642 1.495 . S
C646 H652 0.959 . S
C646 H653 0.961 . S
C646 H654 0.960 . S
C647 C645 1.381 . S
C647 C648 1.394 . S
C647 H655 0.930 . S
C648 C647 1.394 . S
C648 C649 1.383 . S
C648 H656 0.929 . S
C649 C648 1.383 . S
C649 C650 1.377 1_455 S
C650 H634 0.930 . S
C650 C649 1.377 1_655 S
C650 C651 1.379 . S
C651 H635 0.931 . S
C651 C645 1.383 1_655 S
C651 C650 1.379 . S
H652 C646 0.959 . S
H653 C646 0.961 . S
H654 C646 0.960 . S
H655 C647 0.930 . S
H656 C648 0.929 . S
C253 C92 1.382 . S
C234 C10 1.396 . S
C270 C17 1.396 . S
C289 C136 1.370 . S
C306 C36 1.397 . S
C325 C198 1.375 . S
C342 C5 1.402 . S
C361 C74 1.385 . S
C397 C154 1.359 . S
C378 C16 1.406 1_545 S
C414 C31 1.395 . S
C433 C216 1.360 . S
C469 C130 1.674 . S
C450 C30 1.774 . S
C486 C3 1.775 . S
C505 C192 1.657 . S
C541 C68 1.677 1_455 S
C522 C18 1.777 . S
C577 C148 1.682 1_565 S
C558 C29 1.776 . S
C613 C210 1.633 . S
C594 C4 1.776 . S
C630 C23 1.774 . S
C649 C86 1.628 1_455 S
