# Generated by pormake.
# Topology apo, (3,6)-cn, num edge types: 1
# Building blocks:
#     Node 0, Type 0, BuildingBlock: KAKCAD_clean_linker_0, # of connection points: 3
#     Node 1, Type 0, BuildingBlock: KAKCAD_clean_linker_0, # of connection points: 3
#     Node 2, Type 0, BuildingBlock: KAKCAD_clean_linker_0, # of connection points: 3
#     Node 3, Type 0, BuildingBlock: KAKCAD_clean_linker_0, # of connection points: 3
#     Node 4, Type 0, BuildingBlock: KAKCAD_clean_linker_0, # of connection points: 3
#     Node 5, Type 0, BuildingBlock: KAKCAD_clean_linker_0, # of connection points: 3
#     Node 6, Type 0, BuildingBlock: KAKCAD_clean_linker_0, # of connection points: 3
#     Node 7, Type 0, BuildingBlock: KAKCAD_clean_linker_0, # of connection points: 3
#     Node 8, Type 1, BuildingBlock: KUMBUR_clean_sbu_1, # of connection points: 6
#     Node 9, Type 1, BuildingBlock: KUMBUR_clean_sbu_1, # of connection points: 6
#     Node 10, Type 1, BuildingBlock: KUMBUR_clean_sbu_1, # of connection points: 6
#     Node 11, Type 1, BuildingBlock: KUMBUR_clean_sbu_1, # of connection points: 6
#     Edge 12, Type (0, 1), BuildingBlock: XUDNAN_clean_linker_2, # of connection points: 2
#     Edge 13, Type (0, 1), BuildingBlock: XUDNAN_clean_linker_2, # of connection points: 2
#     Edge 14, Type (0, 1), BuildingBlock: XUDNAN_clean_linker_2, # of connection points: 2
#     Edge 15, Type (0, 1), BuildingBlock: XUDNAN_clean_linker_2, # of connection points: 2
#     Edge 16, Type (0, 1), BuildingBlock: XUDNAN_clean_linker_2, # of connection points: 2
#     Edge 17, Type (0, 1), BuildingBlock: XUDNAN_clean_linker_2, # of connection points: 2
#     Edge 18, Type (0, 1), BuildingBlock: XUDNAN_clean_linker_2, # of connection points: 2
#     Edge 19, Type (0, 1), BuildingBlock: XUDNAN_clean_linker_2, # of connection points: 2
#     Edge 20, Type (0, 1), BuildingBlock: XUDNAN_clean_linker_2, # of connection points: 2
#     Edge 21, Type (0, 1), BuildingBlock: XUDNAN_clean_linker_2, # of connection points: 2
#     Edge 22, Type (0, 1), BuildingBlock: XUDNAN_clean_linker_2, # of connection points: 2
#     Edge 23, Type (0, 1), BuildingBlock: XUDNAN_clean_linker_2, # of connection points: 2
#     Edge 24, Type (0, 1), BuildingBlock: XUDNAN_clean_linker_2, # of connection points: 2
#     Edge 25, Type (0, 1), BuildingBlock: XUDNAN_clean_linker_2, # of connection points: 2
#     Edge 26, Type (0, 1), BuildingBlock: XUDNAN_clean_linker_2, # of connection points: 2
#     Edge 27, Type (0, 1), BuildingBlock: XUDNAN_clean_linker_2, # of connection points: 2
#     Edge 28, Type (0, 1), BuildingBlock: XUDNAN_clean_linker_2, # of connection points: 2
#     Edge 29, Type (0, 1), BuildingBlock: XUDNAN_clean_linker_2, # of connection points: 2
#     Edge 30, Type (0, 1), BuildingBlock: XUDNAN_clean_linker_2, # of connection points: 2
#     Edge 31, Type (0, 1), BuildingBlock: XUDNAN_clean_linker_2, # of connection points: 2
#     Edge 32, Type (0, 1), BuildingBlock: XUDNAN_clean_linker_2, # of connection points: 2
#     Edge 33, Type (0, 1), BuildingBlock: XUDNAN_clean_linker_2, # of connection points: 2
#     Edge 34, Type (0, 1), BuildingBlock: XUDNAN_clean_linker_2, # of connection points: 2
#     Edge 35, Type (0, 1), BuildingBlock: XUDNAN_clean_linker_2, # of connection points: 2
# Relax obj value: 0.009
# Max RMSD: 0.098
# Mean RMSD: 0.076
data_MOF--net-apo--node1-KUMBUR_clean_sbu_1--node2-KAKCAD_clean_linker_0--edge1-XUDNAN_clean_linker_2
_symmetry_space_group_name_H-M    P1
_symmetry_Int_Tables_number       1
_symmetry_cell_setting            triclinic
loop_
_symmetry_equiv_pos_as_xyz
'x, y, z'
_cell_length_a     29.4106
_cell_length_b     52.0555
_cell_length_c     63.716406
_cell_angle_alpha  89.929064
_cell_angle_beta   90.069506
_cell_angle_gamma 90.365204
loop_
_atom_site_label
_atom_site_type_symbol
_atom_site_fract_x
_atom_site_fract_y
_atom_site_fract_z
_atom_type_partial_charge
C0 C 0.30445 0.46135 0.36456 0.0
C1 C 0.3513 0.46642 0.36605 0.0
C2 C 0.28428 0.44255 0.37728 0.0
C3 C 0.31051 0.42886 0.39191 0.0
C4 C 0.35703 0.43461 0.39387 0.0
C5 C 0.37727 0.4531 0.38098 0.0
C6 C 0.29001 0.40794 0.4046 0.0
C7 C 0.26393 0.38866 0.39492 0.0
C8 C 0.24657 0.36784 0.40657 0.0
C9 C 0.25501 0.36683 0.42835 0.0
C10 C 0.2813 0.38598 0.43824 0.0
C11 C 0.29856 0.40645 0.42621 0.0
C12 C 0.29179 0.38469 0.46103 0.0
C13 C 0.25753 0.3796 0.47585 0.0
C14 C 0.33618 0.38973 0.46815 0.0
C15 C 0.34585 0.39056 0.48958 0.0
C16 C 0.31131 0.38659 0.50451 0.0
C17 C 0.22194 0.3466 0.39566 0.0
C18 C 0.19169 0.3518 0.37907 0.0
C19 C 0.23017 0.32086 0.40108 0.0
C20 C 0.209 0.30086 0.39011 0.0
C21 C 0.17906 0.30604 0.37342 0.0
C22 C 0.17061 0.33176 0.36804 0.0
C23 C 0.26715 0.38062 0.49738 0.0
H24 H 0.28378 0.4713 0.3531 0.0
H25 H 0.24826 0.43856 0.37558 0.0
H26 H 0.37807 0.42425 0.40494 0.0
H27 H 0.41342 0.4568 0.38251 0.0
H28 H 0.25899 0.38931 0.37807 0.0
H29 H 0.31843 0.42147 0.43372 0.0
H30 H 0.24182 0.35095 0.43757 0.0
H31 H 0.22296 0.37577 0.47081 0.0
H32 H 0.36351 0.39321 0.4571 0.0
H33 H 0.38049 0.39451 0.49444 0.0
H34 H 0.18411 0.37141 0.37464 0.0
H35 H 0.25391 0.3161 0.41347 0.0
H36 H 0.23964 0.37762 0.50841 0.0
H37 H 0.14722 0.33644 0.35548 0.0
H38 H 0.21681 0.28126 0.39447 0.0
C39 C 0.18857 0.05273 0.8679 0.0
C40 C 0.14566 0.04273 0.87324 0.0
C41 C 0.20556 0.07465 0.87796 0.0
C42 C 0.17981 0.08722 0.89343 0.0
C43 C 0.13655 0.07737 0.89849 0.0
C44 C 0.11976 0.05535 0.88856 0.0
C45 C 0.1981 0.11041 0.90432 0.0
C46 C 0.22382 0.1287 0.89327 0.0
C47 C 0.24282 0.15018 0.90343 0.0
C48 C 0.23409 0.15387 0.92495 0.0
C49 C 0.20779 0.1359 0.93635 0.0
C50 C 0.19058 0.1141 0.92587 0.0
C51 C 0.19901 0.13917 0.95928 0.0
C52 C 0.23294 0.14872 0.97283 0.0
C53 C 0.15689 0.13175 0.96796 0.0
C54 C 0.14937 0.13312 0.98958 0.0
C55 C 0.18355 0.14222 1.00314 0.0
C56 C 0.27303 0.16795 0.89141 0.0
C57 C 0.30463 0.15784 0.87716 0.0
C58 C 0.27009 0.19479 0.89353 0.0
C59 C 0.29779 0.21109 0.8814 0.0
C60 C 0.32917 0.20085 0.86703 0.0
C61 C 0.33204 0.17401 0.86508 0.0
C62 C 0.22524 0.1503 0.99449 0.0
H63 H 0.20954 0.04322 0.85634 0.0
H64 H 0.23932 0.0814 0.87389 0.0
H65 H 0.11542 0.08679 0.91002 0.0
H66 H 0.08628 0.04828 0.89279 0.0
H67 H 0.22885 0.12633 0.87654 0.0
H68 H 0.17229 0.09952 0.93466 0.0
H69 H 0.24821 0.17054 0.93283 0.0
H70 H 0.26599 0.15429 0.96682 0.0
H71 H 0.12956 0.12482 0.95802 0.0
H72 H 0.11661 0.12715 0.99569 0.0
H73 H 0.3083 0.13727 0.87531 0.0
H74 H 0.24591 0.20319 0.90429 0.0
H75 H 0.25246 0.15714 1.00453 0.0
H76 H 0.35522 0.16537 0.85398 0.0
H77 H 0.29494 0.23167 0.88342 0.0
C78 C 0.79641 0.05257 0.65861 0.0
C79 C 0.84013 0.04194 0.65761 0.0
C80 C 0.78357 0.07195 0.64473 0.0
C81 C 0.81418 0.0812 0.62954 0.0
C82 C 0.85702 0.06957 0.62773 0.0
C83 C 0.86988 0.05009 0.64164 0.0
C84 C 0.80275 0.1043 0.61697 0.0
C85 C 0.78259 0.12546 0.62687 0.0
C86 C 0.77327 0.14801 0.61569 0.0
C87 C 0.78441 0.14932 0.59431 0.0
C88 C 0.80416 0.12829 0.58396 0.0
C89 C 0.81329 0.1058 0.59549 0.0
C90 C 0.81577 0.1302 0.56125 0.0
C91 C 0.78779 0.14417 0.54745 0.0
C92 C 0.85565 0.11895 0.5533 0.0
C93 C 0.86768 0.12216 0.53222 0.0
C94 C 0.84043 0.13694 0.51887 0.0
C95 C 0.75274 0.17037 0.62649 0.0
C96 C 0.71656 0.1669 0.64064 0.0
C97 C 0.76936 0.19533 0.62282 0.0
C98 C 0.75014 0.21636 0.633 0.0
C99 C 0.7137 0.21296 0.64703 0.0
C100 C 0.69723 0.18796 0.6508 0.0
C101 C 0.80028 0.14773 0.52653 0.0
H102 H 0.77238 0.04627 0.67044 0.0
H103 H 0.74997 0.08015 0.64621 0.0
H104 H 0.88143 0.07639 0.61625 0.0
H105 H 0.90386 0.04232 0.64053 0.0
H106 H 0.77561 0.12474 0.64356 0.0
H107 H 0.82793 0.0893 0.58775 0.0
H108 H 0.77783 0.16691 0.58576 0.0
H109 H 0.75626 0.15254 0.5528 0.0
H110 H 0.87831 0.10832 0.56345 0.0
H111 H 0.89887 0.11374 0.52647 0.0
H112 H 0.70268 0.14792 0.64361 0.0
H113 H 0.79771 0.19859 0.6123 0.0
H114 H 0.77868 0.159 0.51631 0.0
H115 H 0.6688 0.1847 0.66127 0.0
H116 H 0.7642 0.23529 0.63002 0.0
C117 C 0.7167 0.46199 0.15555 0.0
C118 C 0.67361 0.47328 0.15378 0.0
C119 C 0.72935 0.44203 0.14227 0.0
C120 C 0.69926 0.43278 0.12685 0.0
C121 C 0.65702 0.44495 0.12428 0.0
C122 C 0.6443 0.46505 0.13764 0.0
C123 C 0.71176 0.40986 0.11426 0.0
C124 C 0.73253 0.3888 0.12418 0.0
C125 C 0.74736 0.36744 0.11262 0.0
C126 C 0.74066 0.36739 0.09078 0.0
C127 C 0.71844 0.38778 0.0807 0.0
C128 C 0.70387 0.40894 0.09252 0.0
C129 C 0.71096 0.38672 0.05774 0.0
C130 C 0.74699 0.38037 0.04431 0.0
C131 C 0.66753 0.39076 0.04919 0.0
C132 C 0.6601 0.38792 0.02762 0.0
C133 C 0.69616 0.38139 0.01422 0.0
C134 C 0.76906 0.3451 0.12337 0.0
C135 C 0.79601 0.34862 0.14143 0.0
C136 C 0.76237 0.31994 0.11589 0.0
C137 C 0.78175 0.29898 0.12618 0.0
C138 C 0.80737 0.30238 0.14466 0.0
C139 C 0.8144 0.32758 0.15206 0.0
C140 C 0.73971 0.37783 0.02278 0.0
H141 H 0.74047 0.46831 0.16751 0.0
H142 H 0.76262 0.43355 0.14428 0.0
H143 H 0.63311 0.43826 0.11252 0.0
H144 H 0.61083 0.47336 0.13593 0.0
H145 H 0.73626 0.38893 0.14109 0.0
H146 H 0.68784 0.42501 0.08467 0.0
H147 H 0.75248 0.35137 0.08147 0.0
H148 H 0.78083 0.37725 0.05051 0.0
H149 H 0.63914 0.39549 0.05927 0.0
H150 H 0.62625 0.39092 0.02139 0.0
H151 H 0.80294 0.36766 0.14749 0.0
H152 H 0.74143 0.3162 0.10223 0.0
H153 H 0.76803 0.37256 0.01286 0.0
H154 H 0.83337 0.3312 0.16632 0.0
H155 H 0.77636 0.28007 0.11955 0.0
C156 C 0.65149 0.57376 0.65964 0.0
C157 C 0.66365 0.54784 0.65711 0.0
C158 C 0.66899 0.59267 0.64637 0.0
C159 C 0.69847 0.58617 0.62997 0.0
C160 C 0.70887 0.56019 0.62659 0.0
C161 C 0.6918 0.54117 0.64013 0.0
C162 C 0.71923 0.60683 0.61709 0.0
C163 C 0.74036 0.62778 0.62704 0.0
C164 C 0.75746 0.64857 0.61539 0.0
C165 C 0.75296 0.64837 0.59343 0.0
C166 C 0.73161 0.62755 0.58321 0.0
C167 C 0.7156 0.60661 0.59515 0.0
C168 C 0.72311 0.62837 0.56028 0.0
C169 C 0.7028 0.64999 0.55111 0.0
C170 C 0.73321 0.60714 0.54759 0.0
C171 C 0.72313 0.6075 0.52614 0.0
C172 C 0.70185 0.62892 0.51692 0.0
C173 C 0.77774 0.67097 0.62646 0.0
C174 C 0.75476 0.68195 0.64351 0.0
C175 C 0.82017 0.6812 0.62048 0.0
C176 C 0.83938 0.7019 0.63152 0.0
C177 C 0.81603 0.71299 0.64844 0.0
C178 C 0.77357 0.70277 0.6543 0.0
C179 C 0.69196 0.65019 0.52974 0.0
H180 H 0.62869 0.57959 0.67206 0.0
H181 H 0.65967 0.61251 0.64903 0.0
H182 H 0.73148 0.55474 0.61397 0.0
H183 H 0.70194 0.52144 0.63771 0.0
H184 H 0.74347 0.62787 0.64401 0.0
H185 H 0.69813 0.5908 0.58747 0.0
H186 H 0.76509 0.66464 0.58435 0.0
H187 H 0.69401 0.66646 0.56061 0.0
H188 H 0.74913 0.59029 0.55427 0.0
H189 H 0.7323 0.59097 0.5168 0.0
H190 H 0.7219 0.67457 0.64839 0.0
H191 H 0.83867 0.67297 0.60745 0.0
H192 H 0.6748 0.66685 0.52345 0.0
H193 H 0.75491 0.71086 0.66735 0.0
H194 H 0.87203 0.70953 0.62661 0.0
C195 C 0.77843 0.88358 0.02427 0.0
C196 C 0.82253 0.88968 0.01716 0.0
C197 C 0.76929 0.88146 0.04576 0.0
C198 C 0.80391 0.8857 0.06057 0.0
C199 C 0.84807 0.89127 0.05352 0.0
C200 C 0.85736 0.89305 0.03209 0.0
C201 C 0.79397 0.88527 0.08336 0.0
C202 C 0.76917 0.8649 0.09238 0.0
C203 C 0.76089 0.86432 0.1141 0.0
C204 C 0.77696 0.88464 0.12664 0.0
C205 C 0.80077 0.9055 0.1178 0.0
C206 C 0.80944 0.9055 0.09615 0.0
C207 C 0.81595 0.92735 0.13121 0.0
C208 C 0.78806 0.93612 0.14758 0.0
C209 C 0.85852 0.9393 0.12809 0.0
C210 C 0.87337 0.95896 0.14148 0.0
C211 C 0.84613 0.96684 0.15834 0.0
C212 C 0.73461 0.84294 0.12385 0.0
C213 C 0.6938 0.83421 0.11477 0.0
C214 C 0.74883 0.83212 0.14299 0.0
C215 C 0.72204 0.81369 0.1532 0.0
C216 C 0.68029 0.80574 0.14456 0.0
C217 C 0.66686 0.81588 0.12504 0.0
C218 C 0.80307 0.95553 0.16103 0.0
H219 H 0.7506 0.88114 0.0133 0.0
H220 H 0.73486 0.87731 0.05081 0.0
H221 H 0.87554 0.89424 0.06462 0.0
H222 H 0.89196 0.89708 0.02727 0.0
H223 H 0.75736 0.84921 0.08258 0.0
H224 H 0.82717 0.92163 0.08906 0.0
H225 H 0.77048 0.88428 0.14337 0.0
H226 H 0.75458 0.92792 0.1501 0.0
H227 H 0.881 0.93294 0.11573 0.0
H228 H 0.90683 0.96729 0.13915 0.0
H229 H 0.68184 0.84224 0.10009 0.0
H230 H 0.78042 0.83822 0.15025 0.0
H231 H 0.78106 0.96156 0.1737 0.0
H232 H 0.63513 0.80991 0.11785 0.0
H233 H 0.73325 0.80638 0.16825 0.0
C234 C 0.14706 0.95174 0.36338 0.0
C235 C 0.16041 0.97589 0.37123 0.0
C236 C 0.16042 0.92916 0.37351 0.0
C237 C 0.18703 0.93019 0.39183 0.0
C238 C 0.20061 0.95422 0.39966 0.0
C239 C 0.1878 0.97679 0.38938 0.0
C240 C 0.20073 0.9062 0.40264 0.0
C241 C 0.21867 0.88578 0.39106 0.0
C242 C 0.23088 0.86268 0.40089 0.0
C243 C 0.22458 0.85999 0.42264 0.0
C244 C 0.20602 0.8802 0.4345 0.0
C245 C 0.19487 0.90338 0.4244 0.0
C246 C 0.1949 0.87658 0.45707 0.0
C247 C 0.17125 0.85448 0.46365 0.0
C248 C 0.20496 0.89582 0.4719 0.0
C249 C 0.19072 0.89323 0.49278 0.0
C250 C 0.16552 0.87156 0.4991 0.0
C251 C 0.24955 0.8415 0.38802 0.0
C252 C 0.22754 0.83433 0.36936 0.0
C253 C 0.29089 0.82973 0.39331 0.0
C254 C 0.31111 0.81221 0.37951 0.0
C255 C 0.29011 0.80604 0.36027 0.0
C256 C 0.24739 0.81672 0.35574 0.0
C257 C 0.15654 0.85206 0.4844 0.0
H258 H 0.12536 0.95021 0.3497 0.0
H259 H 0.14913 0.91086 0.36724 0.0
H260 H 0.22164 0.95554 0.41359 0.0
H261 H 0.19961 0.99496 0.39567 0.0
H262 H 0.22384 0.88804 0.3743 0.0
H263 H 0.17964 0.91883 0.4333 0.0
H264 H 0.2333 0.84204 0.43024 0.0
H265 H 0.16261 0.83945 0.45257 0.0
H266 H 0.22331 0.91302 0.46726 0.0
H267 H 0.19797 0.90857 0.50378 0.0
H268 H 0.19523 0.84278 0.36509 0.0
H269 H 0.30858 0.83499 0.40761 0.0
H270 H 0.13749 0.83505 0.48891 0.0
H271 H 0.22952 0.81185 0.3414 0.0
H272 H 0.34405 0.8044 0.38351 0.0
C273 C 0.2758 0.63972 0.99175 0.0
C274 C 0.31652 0.63083 1.0005 0.0
C275 C 0.26849 0.63819 0.97009 0.0
C276 C 0.30165 0.62748 0.95689 0.0
C277 C 0.3427 0.61891 0.96578 0.0
C278 C 0.3501 0.62065 0.98741 0.0
C279 C 0.293 0.62455 0.93401 0.0
C280 C 0.27296 0.64446 0.92238 0.0
C281 C 0.26438 0.64165 0.90074 0.0
C282 C 0.2767 0.61857 0.89085 0.0
C283 C 0.29731 0.59856 0.90213 0.0
C284 C 0.30475 0.60167 0.92378 0.0
C285 C 0.31185 0.57466 0.89125 0.0
C286 C 0.2862 0.56434 0.87453 0.0
C287 C 0.35212 0.56217 0.89728 0.0
C288 C 0.36606 0.53988 0.88706 0.0
C289 C 0.34053 0.52979 0.87034 0.0
C290 C 0.24319 0.66284 0.88837 0.0
C291 C 0.2103 0.67889 0.89748 0.0
C292 C 0.25569 0.66726 0.8673 0.0
C293 C 0.23591 0.68709 0.85573 0.0
C294 C 0.20403 0.70334 0.86507 0.0
C295 C 0.19133 0.69908 0.88602 0.0
C296 C 0.30067 0.54227 0.86405 0.0
H297 H 0.24951 0.64759 1.0017 0.0
H298 H 0.23641 0.64476 0.96375 0.0
H299 H 0.3691 0.61083 0.95602 0.0
H300 H 0.38169 0.61365 0.99398 0.0
H301 H 0.26518 0.6624 0.93014 0.0
H302 H 0.31898 0.58602 0.93283 0.0
H303 H 0.27052 0.61622 0.87422 0.0
H304 H 0.25458 0.57307 0.86967 0.0
H305 H 0.37336 0.56978 0.90973 0.0
H306 H 0.39721 0.53068 0.89205 0.0
H307 H 0.19901 0.67587 0.91346 0.0
H308 H 0.28158 0.65581 0.8598 0.0
H309 H 0.2802 0.53464 0.85133 0.0
H310 H 0.16665 0.7114 0.89352 0.0
H311 H 0.2467 0.6903 0.83968 0.0
Tb312 Tb 0.05437 0.14182 0.2386 0.0
C313 C 0.85467 0.12955 0.26524 0.0
N314 N 0.87959 0.15156 0.2636 0.0
C315 C 0.81739 0.17181 0.24571 0.0
C316 C 0.81094 0.12742 0.25631 0.0
C317 C 0.86033 0.17306 0.25515 0.0
C318 C 0.79297 0.14873 0.24588 0.0
C319 C 0.8454 0.08762 0.28138 0.0
C320 C 0.87137 0.10996 0.27762 0.0
C321 C 0.80291 0.08475 0.27156 0.0
C322 C 0.78572 0.10462 0.25902 0.0
Tb323 Tb 0.94942 0.15119 0.27975 0.0
N324 N 0.91259 0.11346 0.2868 0.0
C325 C 0.86239 0.06926 0.29539 0.0
C326 C 0.92818 0.09639 0.3014 0.0
C327 C 0.90367 0.07386 0.30568 0.0
H328 H 0.87757 0.19141 0.25588 0.0
H329 H 0.91655 0.06011 0.31693 0.0
H330 H 0.12813 0.10253 0.26113 0.0
H331 H 0.07033 0.23981 0.21046 0.0
H332 H 0.9597 0.10008 0.30959 0.0
H333 H 0.84342 0.05183 0.29876 0.0
H334 H 0.03368 0.19746 0.21343 0.0
H335 H 0.80288 0.18878 0.23858 0.0
H336 H 0.78254 0.0676 0.27405 0.0
H337 H 0.75222 0.10253 0.25211 0.0
H338 H 0.20541 0.10551 0.27593 0.0
H339 H 0.75946 0.14792 0.23882 0.0
H340 H 0.14605 0.24733 0.22633 0.0
N341 N 0.12577 0.14196 0.25233 0.0
C342 C 0.14931 0.16438 0.25041 0.0
C343 C 0.18984 0.12229 0.26901 0.0
C344 C 0.19364 0.16695 0.25858 0.0
C345 C 0.14576 0.12076 0.26083 0.0
C346 C 0.21374 0.14556 0.26808 0.0
N347 N 0.08551 0.18159 0.23271 0.0
C348 C 0.06543 0.20067 0.22137 0.0
C349 C 0.15134 0.20866 0.23857 0.0
C350 C 0.12837 0.18493 0.24047 0.0
C351 C 0.12962 0.22876 0.22807 0.0
C352 C 0.08675 0.22463 0.21921 0.0
H353 H 0.24783 0.1467 0.27449 0.0
H354 H 0.25037 0.19309 0.26326 0.0
H355 H 0.2133 0.22963 0.24584 0.0
O356 O 0.08129 0.14384 0.20789 0.0
O357 O 0.06501 0.16286 0.26818 0.0
O358 O 0.99681 0.18266 0.27289 0.0
O359 O 0.07825 0.10751 0.22507 0.0
O360 O 0.99274 0.16019 0.22612 0.0
O361 O 0.95661 0.17982 0.2544 0.0
O362 O 0.95866 0.15425 0.31253 0.0
O363 O 0.95691 0.11491 0.26271 0.0
O364 O 0.98636 0.12725 0.23109 0.0
O365 O 0.90419 0.17378 0.29716 0.0
O366 O 0.0127 0.13406 0.29111 0.0
O367 O 0.04668 0.11225 0.26331 0.0
C368 C 0.04072 0.18153 0.27609 0.0
C369 C 0.10963 0.10596 0.18956 0.0
C370 C 0.13141 0.10478 0.15243 0.0
C371 C 0.14465 0.07905 0.15508 0.0
C372 C 0.12297 0.08024 0.19164 0.0
C373 C 0.14047 0.06696 0.17452 0.0
C374 C 0.11419 0.11825 0.1699 0.0
C375 C 0.96292 0.17632 0.2341 0.0
C376 C 0.08916 0.11928 0.2077 0.0
C377 C 0.21637 0.19067 0.25696 0.0
C378 C 0.19524 0.21149 0.24704 0.0
C379 C 0.96323 0.111 0.24262 0.0
C380 C 0.88858 0.15598 0.33042 0.0
C381 C 0.86769 0.14619 0.36666 0.0
C382 C 0.82743 0.13447 0.35939 0.0
C383 C 0.84773 0.14452 0.32362 0.0
C384 C 0.89838 0.15681 0.352 0.0
C385 C 0.81766 0.13364 0.33801 0.0
C386 C 0.03822 0.11541 0.28357 0.0
C387 C 0.92109 0.16681 0.31509 0.0
H388 H 0.15883 0.06828 0.14213 0.0
H389 H 0.11974 0.07031 0.20652 0.0
H390 H 0.1508 0.04716 0.17631 0.0
H391 H 0.10334 0.13799 0.16804 0.0
H392 H 0.80279 0.12652 0.37027 0.0
H393 H 0.83869 0.1441 0.3072 0.0
H394 H 0.92981 0.16565 0.35732 0.0
H395 H 0.78634 0.12484 0.33259 0.0
Tb396 Tb 0.45753 0.36615 0.73742 0.0
C397 C 0.65366 0.38995 0.76273 0.0
N398 N 0.63223 0.36676 0.76331 0.0
C399 C 0.69667 0.34733 0.74664 0.0
C400 C 0.69657 0.39299 0.75317 0.0
C401 C 0.65467 0.34526 0.7568 0.0
C402 C 0.71731 0.3714 0.74441 0.0
C403 C 0.65731 0.43386 0.77529 0.0
C404 C 0.63439 0.41014 0.7735 0.0
C405 C 0.69877 0.43751 0.76475 0.0
C406 C 0.7183 0.41712 0.75363 0.0
Tb407 Tb 0.56205 0.36632 0.7791 0.0
N408 N 0.59396 0.406 0.78318 0.0
C409 C 0.63856 0.4528 0.78821 0.0
C410 C 0.57702 0.42365 0.79694 0.0
C411 C 0.59871 0.44747 0.79941 0.0
H412 H 0.6406 0.32635 0.75958 0.0
H413 H 0.58459 0.46172 0.80986 0.0
H414 H 0.37466 0.39589 0.76303 0.0
H415 H 0.47102 0.26983 0.70588 0.0
H416 H 0.54616 0.41947 0.80553 0.0
H417 H 0.65521 0.47128 0.79008 0.0
H418 H 0.49567 0.31436 0.71138 0.0
H419 H 0.71351 0.33028 0.74093 0.0
H420 H 0.71667 0.45573 0.76564 0.0
H421 H 0.75105 0.41992 0.74617 0.0
H422 H 0.29889 0.38487 0.77678 0.0
H423 H 0.75024 0.3729 0.73689 0.0
H424 H 0.39679 0.25495 0.71963 0.0
N425 N 0.38753 0.3583 0.75135 0.0
C426 C 0.37022 0.33442 0.74777 0.0
C427 C 0.31879 0.37043 0.76883 0.0
C428 C 0.32666 0.32743 0.75507 0.0
C429 C 0.36219 0.37649 0.7613 0.0
C430 C 0.30101 0.34577 0.76581 0.0
N431 N 0.43885 0.3243 0.73033 0.0
C432 C 0.46465 0.30798 0.71862 0.0
C433 C 0.38054 0.29165 0.73359 0.0
C434 C 0.39689 0.31679 0.73712 0.0
C435 C 0.40807 0.27446 0.72264 0.0
C436 C 0.45011 0.28275 0.71496 0.0
H437 H 0.26736 0.34114 0.77166 0.0
H438 H 0.27681 0.2967 0.75698 0.0
H439 H 0.32407 0.26531 0.73834 0.0
O440 O 0.44044 0.36258 0.70565 0.0
O441 O 0.45264 0.34282 0.76641 0.0
O442 O 0.52602 0.33014 0.77333 0.0
O443 O 0.41725 0.39506 0.72348 0.0
O444 O 0.52462 0.35442 0.72615 0.0
O445 O 0.56214 0.33655 0.75458 0.0
O446 O 0.54823 0.36596 0.81142 0.0
O447 O 0.54562 0.40125 0.7615 0.0
O448 O 0.51971 0.38757 0.72949 0.0
O449 O 0.61197 0.35204 0.79978 0.0
O450 O 0.49344 0.37681 0.78893 0.0
O451 O 0.45723 0.39692 0.7611 0.0
C452 C 0.48179 0.3266 0.7747 0.0
C453 C 0.3742 0.38224 0.69328 0.0
C454 C 0.33722 0.38343 0.65887 0.0
C455 C 0.29544 0.3778 0.66862 0.0
C456 C 0.33226 0.37668 0.70272 0.0
C457 C 0.29309 0.37448 0.69039 0.0
C458 C 0.37647 0.38551 0.67143 0.0
C459 C 0.55665 0.33987 0.73423 0.0
C460 C 0.41685 0.38354 0.70532 0.0
C461 C 0.31022 0.30244 0.75149 0.0
C462 C 0.33718 0.28455 0.7409 0.0
C463 C 0.54178 0.40418 0.74117 0.0
C464 C 0.58966 0.33884 0.83392 0.0
C465 C 0.60925 0.33195 0.87068 0.0
C466 C 0.59261 0.30662 0.86912 0.0
C467 C 0.5736 0.31356 0.83245 0.0
C468 C 0.60721 0.34793 0.85295 0.0
C469 C 0.57495 0.29752 0.85007 0.0
C470 C 0.46567 0.3943 0.78138 0.0
C471 C 0.58778 0.35684 0.81631 0.0
H472 H 0.26445 0.37634 0.65949 0.0
H473 H 0.3297 0.37394 0.71947 0.0
H474 H 0.26075 0.37021 0.69773 0.0
H475 H 0.40919 0.38927 0.66417 0.0
H476 H 0.59391 0.29375 0.88247 0.0
H477 H 0.56009 0.30637 0.81781 0.0
H478 H 0.6188 0.36772 0.85398 0.0
H479 H 0.56244 0.27797 0.84895 0.0
Tb480 Tb 0.0619 0.8715 0.74035 0.0
C481 C 0.87108 0.83664 0.76781 0.0
N482 N 0.88895 0.86071 0.76846 0.0
C483 C 0.82111 0.87767 0.753 0.0
C484 C 0.82784 0.83197 0.75904 0.0
C485 C 0.86437 0.88129 0.76171 0.0
C486 C 0.80289 0.85287 0.7515 0.0
C487 C 0.87946 0.79139 0.77548 0.0
C488 C 0.89668 0.81672 0.77585 0.0
C489 C 0.83683 0.78643 0.76629 0.0
C490 C 0.81103 0.80668 0.75811 0.0
Tb491 Tb 0.95928 0.86476 0.78302 0.0
N492 N 0.93768 0.82235 0.78466 0.0
C493 C 0.90511 0.77194 0.78482 0.0
C494 C 0.96105 0.8037 0.79519 0.0
C495 C 0.94574 0.7782 0.79499 0.0
H496 H 0.87788 0.90051 0.76319 0.0
H497 H 0.96492 0.76347 0.80302 0.0
H498 H 0.13344 0.82282 0.75133 0.0
H499 H 0.09958 0.97142 0.72711 0.0
H500 H 0.99087 0.80827 0.80431 0.0
H501 H 0.89313 0.75221 0.78487 0.0
H502 H 0.05388 0.93142 0.72458 0.0
H503 H 0.80182 0.89399 0.74751 0.0
H504 H 0.82318 0.76706 0.76574 0.0
H505 H 0.77801 0.80262 0.75129 0.0
H506 H 0.20716 0.8179 0.76902 0.0
H507 H 0.76946 0.8501 0.74467 0.0
H508 H 0.17333 0.97118 0.74586 0.0
N509 N 0.13193 0.86361 0.75488 0.0
C510 C 0.15762 0.88491 0.75884 0.0
C511 C 0.19326 0.83688 0.76661 0.0
C512 C 0.20124 0.88302 0.76789 0.0
C513 C 0.15076 0.83978 0.75706 0.0
C514 C 0.2182 0.85861 0.77251 0.0
N515 N 0.10033 0.90943 0.7427 0.0
C516 C 0.08571 0.93135 0.73306 0.0
C517 C 0.16908 0.93075 0.7538 0.0
C518 C 0.14187 0.90851 0.75198 0.0
C519 C 0.15327 0.95369 0.74496 0.0
C520 C 0.11161 0.95392 0.73436 0.0
H521 H 0.25149 0.85631 0.77955 0.0
H522 H 0.26081 0.90434 0.77815 0.0
H523 H 0.23268 0.94613 0.76572 0.0
O524 O 0.04597 0.87562 0.70813 0.0
O525 O 0.0554 0.90102 0.76518 0.0
O526 O 0.02814 0.87597 0.79137 0.0
O527 O 0.11257 0.8646 0.71798 0.0
O528 O 0.99969 0.89365 0.73447 0.0
O529 O 0.9633 0.90178 0.76648 0.0
O530 O 0.93737 0.85625 0.81356 0.0
O531 O 0.94895 0.85671 0.74968 0.0
O532 O 0.01534 0.83832 0.73853 0.0
O533 O 0.93199 0.89465 0.8014 0.0
O534 O 0.02423 0.84591 0.7893 0.0
O535 O 0.05688 0.83457 0.7576 0.0
C536 C 0.04738 0.89725 0.78518 0.0
C537 C 0.08933 0.85021 0.68481 0.0
C538 C 0.09846 0.84168 0.64746 0.0
C539 C 0.10116 0.81531 0.65183 0.0
C540 C 0.09177 0.82375 0.68893 0.0
C541 C 0.09788 0.80643 0.67247 0.0
C542 C 0.09266 0.85914 0.66401 0.0
C543 C 0.97234 0.90725 0.7466 0.0
C544 C 0.08627 0.86883 0.70206 0.0
C545 C 0.22743 0.90539 0.771 0.0
C546 C 0.21148 0.92919 0.76386 0.0
C547 C 0.97072 0.84005 0.73805 0.0
C548 C 0.88196 0.88231 0.82902 0.0
C549 C 0.8447 0.88781 0.86293 0.0
C550 C 0.80228 0.88458 0.85304 0.0
C551 C 0.83945 0.87903 0.81941 0.0
C552 C 0.8844 0.88674 0.8507 0.0
C553 C 0.79978 0.88031 0.8314 0.0
C554 C 0.05113 0.83126 0.77796 0.0
C555 C 0.92467 0.87959 0.81738 0.0
H556 H 0.1054 0.80159 0.63921 0.0
H557 H 0.0895 0.81656 0.70486 0.0
H558 H 0.10001 0.78605 0.67571 0.0
H559 H 0.09056 0.87954 0.66071 0.0
H560 H 0.77107 0.88555 0.862 0.0
H561 H 0.83686 0.87519 0.80281 0.0
H562 H 0.91745 0.88865 0.85814 0.0
H563 H 0.76698 0.8778 0.82394 0.0
Tb564 Tb 0.44648 0.63603 0.23934 0.0
C565 C 0.64682 0.67179 0.26737 0.0
N566 N 0.62559 0.64885 0.27036 0.0
C567 C 0.69535 0.62678 0.26336 0.0
C568 C 0.69345 0.67316 0.26238 0.0
C569 C 0.6492 0.62644 0.26863 0.0
C570 C 0.7176 0.65024 0.2602 0.0
C571 C 0.64252 0.71826 0.2672 0.0
C572 C 0.62168 0.69399 0.26958 0.0
C573 C 0.68909 0.71979 0.26248 0.0
C574 C 0.71446 0.69729 0.25996 0.0
Tb575 Tb 0.55037 0.65063 0.27912 0.0
N576 N 0.57679 0.69169 0.27442 0.0
C577 C 0.61607 0.74022 0.26998 0.0
C578 C 0.55153 0.71307 0.27823 0.0
C579 C 0.57045 0.73759 0.27568 0.0
H580 H 0.63287 0.60831 0.27195 0.0
H581 H 0.55001 0.75446 0.27846 0.0
H582 H 0.36187 0.66889 0.26084 0.0
H583 H 0.46867 0.53452 0.2243 0.0
H584 H 0.51715 0.71147 0.28363 0.0
H585 H 0.63074 0.75924 0.26821 0.0
H586 H 0.4868 0.58034 0.22096 0.0
H587 H 0.71387 0.60895 0.26203 0.0
H588 H 0.70577 0.73827 0.26064 0.0
H589 H 0.75029 0.69876 0.2562 0.0
H590 H 0.28851 0.65915 0.27781 0.0
H591 H 0.75346 0.65046 0.25632 0.0
H592 H 0.39872 0.52087 0.24285 0.0
N593 N 0.37829 0.62967 0.25557 0.0
C594 C 0.36402 0.60482 0.25684 0.0
C595 C 0.30957 0.64368 0.2721 0.0
C596 C 0.3219 0.59842 0.26602 0.0
C597 C 0.35153 0.64913 0.26275 0.0
C598 C 0.29471 0.61822 0.27379 0.0
N599 N 0.43303 0.5927 0.24063 0.0
C600 C 0.4588 0.57475 0.23069 0.0
C601 C 0.37901 0.55973 0.25054 0.0
C602 C 0.39246 0.58574 0.24931 0.0
C603 C 0.40774 0.54106 0.24217 0.0
C604 C 0.44745 0.54867 0.23187 0.0
H605 H 0.26213 0.61408 0.28101 0.0
H606 H 0.27598 0.56726 0.27408 0.0
H607 H 0.32611 0.53337 0.26071 0.0
O608 O 0.44474 0.62738 0.20698 0.0
O609 O 0.44352 0.62369 0.27247 0.0
O610 O 0.51671 0.6133 0.28062 0.0
O611 O 0.39018 0.64776 0.22161 0.0
O612 O 0.51505 0.62294 0.23022 0.0
O613 O 0.55213 0.61466 0.26152 0.0
O614 O 0.53744 0.66203 0.31029 0.0
O615 O 0.55652 0.66741 0.24744 0.0
O616 O 0.48322 0.67221 0.23433 0.0
O617 O 0.59289 0.63691 0.30311 0.0
O618 O 0.48241 0.66645 0.28592 0.0
O619 O 0.44521 0.67363 0.25432 0.0
C620 C 0.47293 0.60884 0.2819 0.0
C621 C 0.40444 0.65712 0.18609 0.0
C622 C 0.38808 0.66407 0.14883 0.0
C623 C 0.39306 0.69073 0.15212 0.0
C624 C 0.40948 0.68369 0.18889 0.0
C625 C 0.40415 0.70035 0.17193 0.0
C626 C 0.39454 0.64739 0.16605 0.0
C627 C 0.54701 0.61128 0.24116 0.0
C628 C 0.40662 0.63938 0.20405 0.0
C629 C 0.30838 0.57256 0.26719 0.0
C630 C 0.33699 0.55325 0.25962 0.0
C631 C 0.52694 0.67796 0.23456 0.0
C632 C 0.60161 0.66305 0.33286 0.0
C633 C 0.63655 0.6646 0.36776 0.0
C634 C 0.66251 0.68598 0.36115 0.0
C635 C 0.6271 0.68464 0.32688 0.0
C636 C 0.60593 0.6533 0.35334 0.0
C637 C 0.6574 0.696 0.34096 0.0
C638 C 0.45275 0.67895 0.27425 0.0
C639 C 0.57217 0.64955 0.31775 0.0
H640 H 0.38732 0.70433 0.13955 0.0
H641 H 0.41653 0.69154 0.20427 0.0
H642 H 0.40764 0.72087 0.17425 0.0
H643 H 0.39152 0.62678 0.16404 0.0
H644 H 0.68742 0.69483 0.3714 0.0
H645 H 0.624 0.69259 0.31135 0.0
H646 H 0.5853 0.63692 0.35791 0.0
H647 H 0.67746 0.71248 0.33613 0.0
H648 H 0.14736 0.98578 0.32885 0.0
H649 H 0.13594 0.02071 0.39055 0.0
H650 H 0.10844 0.06047 0.37428 0.0
H651 H 0.18172 0.04325 0.30036 0.0
H652 H 0.14803 0.03573 0.27751 0.0
H653 H 0.17001 0.01022 0.29367 0.0
H654 H 0.08847 0.99198 0.29853 0.0
H655 H 0.06634 0.01737 0.28232 0.0
H656 H 0.04445 0.0126 0.30846 0.0
H657 H 0.07922 0.09549 0.3522 0.0
H658 H 0.04819 0.12419 0.32539 0.0
H659 H 0.0752 0.06711 0.27735 0.0
C660 C 0.13903 1.00174 0.33898 0.0
C661 C 0.14449 1.00005 0.36106 0.0
C662 C 0.13333 0.02157 0.37362 0.0
C663 C 0.11731 0.04425 0.36453 0.0
C664 C 0.11229 0.0452 0.34283 0.0
C665 C 0.1226 0.02457 0.33016 0.0
C666 C 0.11212 0.03051 0.3073 0.0
C667 C 0.15557 0.02989 0.29393 0.0
C668 C 0.07568 0.01202 0.29865 0.0
C669 C 0.09396 0.05763 0.30923 0.0
C670 C 0.0947 0.06563 0.3299 0.0
C671 C 0.07867 0.08954 0.33594 0.0
C672 C 0.06102 0.10572 0.3205 0.0
C673 C 0.05941 0.09805 0.29916 0.0
C674 C 0.07647 0.07368 0.29346 0.0
H675 H 0.35303 0.52153 0.82819 0.0
H676 H 0.3618 0.48457 0.8891 0.0
H677 H 0.38932 0.44493 0.87223 0.0
H678 H 0.31787 0.46459 0.79809 0.0
H679 H 0.35222 0.47294 0.77565 0.0
H680 H 0.3297 0.49785 0.79221 0.0
H681 H 0.41108 0.51594 0.798 0.0
H682 H 0.43377 0.49112 0.78146 0.0
H683 H 0.45482 0.49501 0.80785 0.0
H684 H 0.41865 0.41056 0.8496 0.0
H685 H 0.45179 0.38307 0.82245 0.0
H686 H 0.42636 0.44191 0.77553 0.0
C687 C 0.36011 0.5049 0.83785 0.0
C688 C 0.35516 0.50591 0.8599 0.0
C689 C 0.36555 0.48407 0.87219 0.0
C690 C 0.38092 0.4615 0.86275 0.0
C691 C 0.38587 0.46116 0.84102 0.0
C692 C 0.37602 0.48223 0.82867 0.0
C693 C 0.38722 0.47711 0.80581 0.0
C694 C 0.34418 0.47818 0.79213 0.0
C695 C 0.4239 0.49591 0.79782 0.0
C696 C 0.40532 0.44995 0.80732 0.0
C697 C 0.40375 0.44117 0.8278 0.0
C698 C 0.41989 0.41713 0.83349 0.0
C699 C 0.43883 0.40171 0.81792 0.0
C700 C 0.44172 0.41037 0.79686 0.0
C701 C 0.42411 0.43469 0.79144 0.0
H702 H 0.63727 0.4971 0.65055 0.0
H703 H 0.65644 0.55426 0.69951 0.0
H704 H 0.6267 0.52383 0.72561 0.0
H705 H 0.53485 0.4694 0.67003 0.0
H706 H 0.54942 0.43669 0.66388 0.0
H707 H 0.57275 0.46268 0.64852 0.0
H708 H 0.65438 0.44681 0.6564 0.0
H709 H 0.63123 0.42063 0.67163 0.0
H710 H 0.67201 0.44235 0.68327 0.0
H711 H 0.58961 0.4893 0.74595 0.0
H712 H 0.55451 0.45018 0.76039 0.0
H713 H 0.56634 0.41276 0.6999 0.0
C714 C 0.63574 0.50312 0.66679 0.0
C715 C 0.64833 0.52839 0.67281 0.0
C716 C 0.64569 0.53539 0.69429 0.0
C717 C 0.62918 0.51815 0.70933 0.0
C718 C 0.61611 0.49373 0.70281 0.0
C719 C 0.61982 0.48595 0.68217 0.0
C720 C 0.60364 0.45834 0.67963 0.0
C721 C 0.56274 0.4567 0.66462 0.0
C722 C 0.64265 0.44101 0.6723 0.0
C723 C 0.58974 0.45211 0.70201 0.0
C724 C 0.59706 0.47295 0.71501 0.0
C725 C 0.58486 0.4726 0.73608 0.0
C726 C 0.56543 0.45016 0.74422 0.0
C727 C 0.55953 0.42808 0.73157 0.0
C728 C 0.57116 0.42923 0.71005 0.0
H729 H 0.8868 0.014 0.15119 0.0
H730 H 0.84422 0.96187 0.20073 0.0
H731 H 0.87121 0.99276 0.22733 0.0
H732 H 0.9888 0.03815 0.17725 0.0
H733 H 0.98169 0.07065 0.1681 0.0
H734 H 0.96048 0.04419 0.15264 0.0
H735 H 0.88002 0.06428 0.15272 0.0
H736 H 0.90102 0.09078 0.16816 0.0
H737 H 0.85344 0.07195 0.17739 0.0
H738 H 0.90324 0.0283 0.24846 0.0
H739 H 0.93561 0.06785 0.26331 0.0
H740 H 0.95417 0.09888 0.20064 0.0
C741 C 0.88356 0.00909 0.16765 0.0
C742 C 0.86332 0.9856 0.17396 0.0
C743 C 0.85917 0.97988 0.19561 0.0
C744 C 0.87462 0.99722 0.21081 0.0
C745 C 0.89404 0.02025 0.20413 0.0
C746 C 0.89848 0.02636 0.18311 0.0
C747 C 0.91943 0.05289 0.18038 0.0
C748 C 0.96532 0.05137 0.16891 0.0
C749 C 0.8865 0.07104 0.16899 0.0
C750 C 0.92583 0.06066 0.20313 0.0
C751 C 0.91126 0.04138 0.21649 0.0
C752 C 0.91423 0.04368 0.23818 0.0
C753 C 0.9322 0.0664 0.24649 0.0
C754 C 0.94612 0.08683 0.23323 0.0
C755 C 0.94338 0.08372 0.21121 0.0
H756 H 0.88914 0.99739 0.65272 0.0
H757 H 0.82654 0.04585 0.69981 0.0
H758 H 0.8528 0.0165 0.72762 0.0
H759 H 0.86295 0.93678 0.67805 0.0
H760 H 0.91595 0.92211 0.67074 0.0
H761 H 0.89161 0.94669 0.65436 0.0
H762 H 0.96634 0.97321 0.65702 0.0
H763 H 0.99082 0.9487 0.67341 0.0
H764 H 0.98865 0.98143 0.68253 0.0
H765 H 0.88673 0.98245 0.75041 0.0
H766 H 0.92571 0.94555 0.76661 0.0
H767 H 0.96653 0.91932 0.70476 0.0
C768 C 0.88107 1.00182 0.66889 0.0
C769 C 0.85549 0.0238 0.67409 0.0
C770 C 0.84538 0.02887 0.69543 0.0
C771 C 0.86038 0.01242 0.71136 0.0
C772 C 0.88544 0.99093 0.70571 0.0
C773 C 0.89566 0.98553 0.68502 0.0
C774 C 0.9231 0.9611 0.68326 0.0
C775 C 0.89682 0.94045 0.67087 0.0
C776 C 0.97001 0.96645 0.67348 0.0
C777 C 0.92718 0.95389 0.70621 0.0
C778 C 0.90508 0.97128 0.71889 0.0
C779 C 0.90411 0.96865 0.74065 0.0
C780 C 0.92632 0.94761 0.7497 0.0
C781 C 0.94922 0.92952 0.73699 0.0
C782 C 0.94955 0.93284 0.71496 0.0
H783 H 0.62829 0.5192 0.14772 0.0
H784 H 0.68442 0.46976 0.19605 0.0
H785 H 0.66108 0.50062 0.22314 0.0
H786 H 0.6606 0.57958 0.17187 0.0
H787 H 0.60921 0.59596 0.16444 0.0
H788 H 0.63041 0.57016 0.14844 0.0
H789 H 0.55307 0.54628 0.15178 0.0
H790 H 0.53166 0.57211 0.16766 0.0
H791 H 0.53033 0.53965 0.17751 0.0
H792 H 0.62942 0.53521 0.24508 0.0
H793 H 0.59142 0.57219 0.26095 0.0
H794 H 0.5582 0.60127 0.19889 0.0
C795 C 0.63552 0.51491 0.16401 0.0
C796 C 0.65863 0.49218 0.16976 0.0
C797 C 0.66756 0.48724 0.19125 0.0
C798 C 0.65424 0.50459 0.20677 0.0
C799 C 0.63204 0.52688 0.20061 0.0
C800 C 0.62266 0.53218 0.17981 0.0
C801 C 0.59801 0.55761 0.17767 0.0
C802 C 0.62626 0.57697 0.16484 0.0
C803 C 0.55045 0.55366 0.16809 0.0
C804 C 0.595 0.5656 0.20051 0.0
C805 C 0.61473 0.54748 0.21342 0.0
C806 C 0.61448 0.54978 0.23515 0.0
C807 C 0.59311 0.57108 0.24401 0.0
C808 C 0.57264 0.59007 0.2312 0.0
C809 C 0.57412 0.58733 0.20911 0.0
H810 H 0.32697 0.51603 0.35638 0.0
H811 H 0.42636 0.45721 0.34255 0.0
H812 H 0.46513 0.48671 0.31797 0.0
H813 H 0.31901 0.54268 0.30487 0.0
H814 H 0.31617 0.57588 0.31306 0.0
H815 H 0.29485 0.55075 0.3299 0.0
H816 H 0.34686 0.56516 0.36012 0.0
H817 H 0.36762 0.59119 0.34407 0.0
H818 H 0.40706 0.5689 0.35564 0.0
H819 H 0.49499 0.52244 0.29642 0.0
H820 H 0.51576 0.56322 0.27918 0.0
H821 H 0.39671 0.59949 0.30585 0.0
C822 C 0.35668 0.50939 0.34801 0.0
C823 C 0.37378 0.48438 0.35129 0.0
C824 C 0.41303 0.47637 0.34033 0.0
C825 C 0.43507 0.49292 0.32628 0.0
C826 C 0.41754 0.51746 0.32343 0.0
C827 C 0.3795 0.52581 0.33406 0.0
C828 C 0.36909 0.55358 0.32872 0.0
C829 C 0.32199 0.55587 0.31849 0.0
C830 C 0.3729 0.57071 0.3483 0.0
C831 C 0.40701 0.55938 0.31325 0.0
C832 C 0.4346 0.53822 0.31058 0.0
C833 C 0.47356 0.5391 0.29824 0.0
C834 C 0.48521 0.56236 0.28863 0.0
C835 C 0.45786 0.58437 0.29127 0.0
C836 C 0.41783 0.58278 0.30344 0.0
H837 H 0.14757 0.02932 0.83143 0.0
H838 H 0.10518 1.00195 0.89279 0.0
H839 H 0.07627 0.96195 0.87674 0.0
H840 H 0.05269 1.00381 0.80233 0.0
H841 H 0.08619 0.99495 0.77983 0.0
H842 H 0.10387 0.02147 0.79611 0.0
H843 H 0.18235 0.99998 0.80206 0.0
H844 H 0.16467 0.97383 0.78552 0.0
H845 H 0.18439 0.96742 0.81173 0.0
H846 H 0.05238 0.92525 0.85451 0.0
H847 H 0.03309 0.89376 0.82725 0.0
H848 H 0.08922 0.94468 0.77969 0.0
C849 C 0.13238 0.01483 0.84147 0.0
C850 C 0.12843 0.01876 0.86336 0.0
C851 C 0.108 0.99947 0.87596 0.0
C852 C 0.09173 0.97665 0.86701 0.0
C853 C 0.09602 0.97341 0.84542 0.0
C854 C 0.11564 0.99194 0.83276 0.0
C855 C 0.11574 0.98355 0.80997 0.0
C856 C 0.08796 1.00205 0.79626 0.0
C857 C 0.16471 0.98104 0.80186 0.0
C858 C 0.09258 0.95752 0.8118 0.0
C859 C 0.0819 0.95207 0.83245 0.0
C860 C 0.06055 0.92927 0.83828 0.0
C861 C 0.0497 0.9115 0.8226 0.0
C862 C 0.0599 0.9166 0.80124 0.0
C863 C 0.0815 0.94003 0.79582 0.0
H864 H 0.14382 0.10489 0.02755 0.0
H865 H 0.20679 0.18035 0.03102 0.0
H866 H 0.19558 0.18052 0.06951 0.0
H867 H 0.0587 0.115 0.06829 0.0
H868 H 0.06326 0.08268 0.07822 0.0
H869 H 0.07407 0.0892 0.05089 0.0
H870 H 0.15363 0.06846 0.05422 0.0
H871 H 0.14308 0.06184 0.08151 0.0
H872 H 0.19268 0.08009 0.07392 0.0
H873 H 0.17921 0.17163 0.10806 0.0
H874 H 0.16362 0.15329 0.14323 0.0
H875 H 0.11074 0.08401 0.11404 0.0
C876 C 0.15459 0.12165 0.03634 0.0
C877 C 0.17597 0.14269 0.02624 0.0
C878 C 0.19058 0.16396 0.03843 0.0
C879 C 0.18405 0.1643 0.06027 0.0
C880 C 0.16287 0.14322 0.06972 0.0
C881 C 0.14851 0.12226 0.05812 0.0
C882 C 0.12873 0.10148 0.07209 0.0
C883 C 0.07819 0.09683 0.06707 0.0
C884 C 0.15618 0.0765 0.07033 0.0
C885 C 0.13475 0.11383 0.09341 0.0
C886 C 0.15404 0.13801 0.09177 0.0
C887 C 0.16388 0.15275 0.1095 0.0
C888 C 0.15468 0.14225 0.12942 0.0
C889 C 0.1362 0.11716 0.13143 0.0
C890 C 0.12535 0.10312 0.11308 0.0
H891 H 0.27788 0.35809 0.53782 0.0
H892 H 0.36672 0.42256 0.52295 0.0
H893 H 0.38429 0.42787 0.56047 0.0
H894 H 0.2314 0.38553 0.585 0.0
H895 H 0.22875 0.35534 0.59884 0.0
H896 H 0.22405 0.35596 0.57066 0.0
H897 H 0.29143 0.32434 0.56778 0.0
H898 H 0.29641 0.32363 0.59595 0.0
H899 H 0.34488 0.33231 0.58011 0.0
H900 H 0.39186 0.42669 0.59951 0.0
H901 H 0.38743 0.41967 0.63773 0.0
H902 H 0.29305 0.35636 0.62762 0.0
C903 C 0.30081 0.37343 0.54244 0.0
C904 C 0.32126 0.38971 0.5273 0.0
C905 C 0.35136 0.40943 0.5341 0.0
C906 C 0.36136 0.41274 0.55543 0.0
C907 C 0.34082 0.39631 0.56987 0.0
C908 C 0.31106 0.3771 0.56372 0.0
C909 C 0.29317 0.36233 0.58253 0.0
C910 C 0.24126 0.36496 0.58436 0.0
C911 C 0.30733 0.33397 0.58153 0.0
C912 C 0.3174 0.37634 0.60019 0.0
C913 C 0.34485 0.3958 0.59251 0.0
C914 C 0.37057 0.41146 0.60573 0.0
C915 C 0.36802 0.40721 0.62743 0.0
C916 C 0.33993 0.38744 0.63575 0.0
C917 C 0.31443 0.37181 0.62182 0.0
H918 H 0.62788 0.35419 0.99473 0.0
H919 H 0.74802 0.40056 0.9823 0.0
H920 H 0.73839 0.39315 0.94428 0.0
H921 H 0.64871 0.30708 0.9553 0.0
H922 H 0.58978 0.30299 0.94819 0.0
H923 H 0.60477 0.31268 0.97444 0.0
H924 H 0.55385 0.35291 0.97088 0.0
H925 H 0.53846 0.34326 0.94466 0.0
H926 H 0.56268 0.37466 0.9492 0.0
H927 H 0.7171 0.37998 0.90795 0.0
H928 H 0.68522 0.36206 0.87528 0.0
H929 H 0.57821 0.32443 0.91104 0.0
C930 C 0.65174 0.36307 0.98395 0.0
C931 C 0.68868 0.37799 0.9914 0.0
C932 C 0.7197 0.38892 0.97689 0.0
C933 C 0.71442 0.38489 0.9553 0.0
C934 C 0.678 0.36984 0.94848 0.0
C935 C 0.64713 0.3591 0.96233 0.0
C936 C 0.61171 0.34314 0.95086 0.0
C937 C 0.6139 0.3148 0.9576 0.0
C938 C 0.56384 0.35416 0.95409 0.0
C939 C 0.62755 0.34661 0.92841 0.0
C940 C 0.6658 0.36211 0.92743 0.0
C941 C 0.687 0.36793 0.90849 0.0
C942 C 0.66849 0.35774 0.89001 0.0
C943 C 0.62907 0.34191 0.89056 0.0
C944 C 0.60857 0.33625 0.9101 0.0
H945 H 0.83586 0.10392 0.4858 0.0
H946 H 0.87419 0.18149 0.50316 0.0
H947 H 0.89336 0.19115 0.46609 0.0
H948 H 0.92071 0.09472 0.44404 0.0
H949 H 0.88144 0.07742 0.42745 0.0
H950 H 0.8756 0.07584 0.45558 0.0
H951 H 0.79232 0.09143 0.4525 0.0
H952 H 0.79788 0.09303 0.42442 0.0
H953 H 0.78055 0.12104 0.43888 0.0
H954 H 0.90353 0.19303 0.42702 0.0
H955 H 0.89926 0.188 0.38851 0.0
H956 H 0.85344 0.10919 0.39663 0.0
C957 C 0.84918 0.12272 0.48173 0.0
C958 C 0.85436 0.14194 0.4971 0.0
C959 C 0.87062 0.16657 0.49142 0.0
C960 C 0.88164 0.17215 0.4705 0.0
C961 C 0.87591 0.15286 0.45556 0.0
C962 C 0.85985 0.12867 0.46089 0.0
C963 C 0.85315 0.11208 0.44164 0.0
C964 C 0.88462 0.08863 0.44222 0.0
C965 C 0.803 0.10393 0.43922 0.0
C966 C 0.86729 0.13082 0.42465 0.0
C967 C 0.88085 0.15412 0.433 0.0
C968 C 0.89346 0.17478 0.42029 0.0
C969 C 0.89118 0.1717 0.39844 0.0
C970 C 0.87604 0.14821 0.38957 0.0
C971 C 0.86494 0.12742 0.40294 0.0
H972 H 0.78582 0.86297 0.98367 0.0
H973 H 0.88055 0.92464 0.99883 0.0
H974 H 0.89758 0.93013 0.96129 0.0
H975 H 0.84787 0.83613 0.94084 0.0
H976 H 0.79805 0.82947 0.92522 0.0
H977 H 0.79408 0.82977 0.95342 0.0
H978 H 0.73022 0.86376 0.95133 0.0
H979 H 0.73389 0.86355 0.92311 0.0
H980 H 0.7403 0.89331 0.93726 0.0
H981 H 0.90474 0.92895 0.92212 0.0
H982 H 0.89913 0.92219 0.88383 0.0
H983 H 0.79753 0.86264 0.89403 0.0
C984 C 0.80984 0.87781 0.97916 0.0
C985 C 0.83215 0.89316 0.99438 0.0
C986 C 0.86375 0.91216 0.98763 0.0
C987 C 0.87343 0.9156 0.96629 0.0
C988 C 0.85093 0.90011 0.95178 0.0
C989 C 0.81957 0.88172 0.95789 0.0
C990 C 0.79947 0.86795 0.93908 0.0
C991 C 0.81055 0.83913 0.93968 0.0
C992 C 0.74791 0.87242 0.93761 0.0
C993 C 0.82455 0.88146 0.92145 0.0
C994 C 0.85423 0.89986 0.92913 0.0
C995 C 0.88153 0.91464 0.9159 0.0
C996 C 0.87825 0.91059 0.89419 0.0
C997 C 0.84775 0.89198 0.88594 0.0
C998 C 0.82065 0.87726 0.89984 0.0
H999 H 0.70087 0.67005 0.48944 0.0
H1000 H 0.67402 0.58792 0.49256 0.0
H1001 H 0.65467 0.58793 0.45495 0.0
H1002 H 0.60631 0.6843 0.45497 0.0
H1003 H 0.63694 0.70916 0.44112 0.0
H1004 H 0.65015 0.70248 0.46818 0.0
H1005 H 0.73455 0.69529 0.4582 0.0
H1006 H 0.72156 0.7018 0.43109 0.0
H1007 H 0.74839 0.67202 0.4383 0.0
H1008 H 0.64038 0.59678 0.41648 0.0
H1009 H 0.62961 0.61399 0.38081 0.0
H1010 H 0.65702 0.691 0.40417 0.0
C1011 C 0.69035 0.65205 0.48242 0.0
C1012 C 0.68949 0.62894 0.49416 0.0
C1013 C 0.67618 0.60583 0.48397 0.0
C1014 C 0.66465 0.60565 0.4626 0.0
C1015 C 0.66588 0.62877 0.4516 0.0
C1016 C 0.67796 0.65158 0.46123 0.0
C1017 C 0.67579 0.67389 0.446 0.0
C1018 C 0.64017 0.69361 0.45298 0.0
C1019 C 0.72287 0.68648 0.44324 0.0
C1020 C 0.66093 0.66003 0.42626 0.0
C1021 C 0.65567 0.63401 0.42975 0.0
C1022 C 0.64381 0.6172 0.41363 0.0
C1023 C 0.63734 0.62726 0.39339 0.0
C1024 C 0.64216 0.654 0.38943 0.0
C1025 C 0.65367 0.67046 0.40633 0.0
H1026 H 0.36542 0.66555 0.02347 0.0
H1027 H 0.28241 0.59683 0.02868 0.0
H1028 H 0.29332 0.59691 0.06729 0.0
H1029 H 0.44667 0.65026 0.06387 0.0
H1030 H 0.4508 0.68273 0.07354 0.0
H1031 H 0.43694 0.67697 0.04641 0.0
H1032 H 0.36362 0.7039 0.05043 0.0
H1033 H 0.37725 0.70971 0.07759 0.0
H1034 H 0.32324 0.69556 0.07062 0.0
H1035 H 0.31142 0.60543 0.10523 0.0
H1036 H 0.33498 0.62148 0.13987 0.0
H1037 H 0.4096 0.68373 0.10969 0.0
C1038 C 0.34978 0.65055 0.03284 0.0
C1039 C 0.32317 0.63114 0.02339 0.0
C1040 C 0.30281 0.61182 0.03588 0.0
C1041 C 0.30889 0.61172 0.05772 0.0
C1042 C 0.33525 0.63118 0.06669 0.0
C1043 C 0.35529 0.65027 0.05467 0.0
C1044 C 0.38105 0.66927 0.06827 0.0
C1045 C 0.43189 0.66982 0.06268 0.0
C1046 C 0.36003 0.6962 0.06663 0.0
C1047 C 0.37299 0.65765 0.08975 0.0
C1048 C 0.34622 0.63583 0.08852 0.0
C1049 C 0.33283 0.62236 0.10638 0.0
C1050 C 0.34688 0.63155 0.12605 0.0
C1051 C 0.37464 0.65388 0.12777 0.0
C1052 C 0.38803 0.66683 0.10919 0.0
H1053 H 0.2095 0.87852 0.53697 0.0
H1054 H 0.07816 0.86019 0.50957 0.0
H1055 H 0.04556 0.855 0.54497 0.0
H1056 H 0.20423 0.83276 0.57759 0.0
H1057 H 0.23175 0.85251 0.59712 0.0
H1058 H 0.24385 0.85753 0.56974 0.0
H1059 H 0.22092 0.90526 0.57323 0.0
H1060 H 0.20866 0.90038 0.60067 0.0
H1061 H 0.16568 0.91322 0.58348 0.0
H1062 H 0.02807 0.84885 0.58258 0.0
H1063 H 0.02757 0.83997 0.62072 0.0
H1064 H 0.16983 0.86158 0.62462 0.0
C1065 C 0.17372 0.87385 0.53851 0.0
C1066 C 0.14626 0.86974 0.52056 0.0
C1067 C 0.0998 0.86322 0.52312 0.0
C1068 C 0.08091 0.86043 0.54316 0.0
C1069 C 0.1089 0.86424 0.56053 0.0
C1070 C 0.15433 0.87075 0.55849 0.0
C1071 C 0.17744 0.8719 0.5798 0.0
C1072 C 0.21662 0.85251 0.58114 0.0
C1073 C 0.19415 0.89932 0.58458 0.0
C1074 C 0.13816 0.86427 0.59402 0.0
C1075 C 0.09881 0.8604 0.58252 0.0
C1076 C 0.05846 0.8521 0.59182 0.0
C1077 C 0.05842 0.84712 0.61342 0.0
C1078 C 0.09841 0.85039 0.62542 0.0
C1079 C 0.13866 0.85941 0.61571 0.0
H1080 H 0.16445 0.30141 0.33072 0.0
H1081 H 0.14211 0.26227 0.39009 0.0
H1082 H 0.10585 0.22617 0.37137 0.0
H1083 H 0.05807 0.28252 0.30676 0.0
H1084 H 0.08197 0.27836 0.28096 0.0
H1085 H 0.10706 0.30115 0.29888 0.0
H1086 H 0.18506 0.27865 0.29498 0.0
H1087 H 0.15995 0.25591 0.27702 0.0
H1088 H 0.18918 0.24467 0.30011 0.0
H1089 H 0.07265 0.19432 0.3467 0.0
H1090 H 0.04225 0.16887 0.31724 0.0
H1091 H 0.08329 0.22838 0.27352 0.0
C1092 C 0.15164 0.28532 0.33978 0.0
C1093 C 0.15643 0.28462 0.36191 0.0
C1094 C 0.13957 0.26308 0.37315 0.0
C1095 C 0.11871 0.24253 0.36266 0.0
C1096 C 0.11485 0.24374 0.3409 0.0
C1097 C 0.13069 0.26455 0.32954 0.0
C1098 C 0.12184 0.26093 0.30622 0.0
C1099 C 0.09035 0.28199 0.29771 0.0
C1100 C 0.16669 0.25998 0.29386 0.0
C1101 C 0.09828 0.23492 0.30635 0.0
C1102 C 0.0949 0.22537 0.32656 0.0
C1103 C 0.07491 0.20164 0.33082 0.0
C1104 C 0.05762 0.18731 0.31402 0.0
C1105 C 0.06013 0.19681 0.29329 0.0
C1106 C 0.0809 0.22084 0.28934 0.0
H1107 H 0.3083 0.24682 0.84732 0.0
H1108 H 0.41872 0.19319 0.85761 0.0
H1109 H 0.46776 0.21874 0.83421 0.0
H1110 H 0.33103 0.26067 0.7928 0.0
H1111 H 0.31705 0.29419 0.79548 0.0
H1112 H 0.29104 0.27081 0.81253 0.0
H1113 H 0.32047 0.29762 0.84435 0.0
H1114 H 0.34753 0.3201 0.82676 0.0
H1115 H 0.38052 0.30422 0.84673 0.0
H1116 H 0.50438 0.24875 0.80912 0.0
H1117 H 0.52879 0.28376 0.7856 0.0
H1118 H 0.39674 0.31969 0.79235 0.0
C1119 C 0.34294 0.24061 0.84485 0.0
C1120 C 0.35933 0.2177 0.85412 0.0
C1121 C 0.4049 0.21027 0.85034 0.0
C1122 C 0.43318 0.22473 0.83714 0.0
C1123 C 0.41571 0.24679 0.82791 0.0
C1124 C 0.3719 0.25496 0.83174 0.0
C1125 C 0.36214 0.27975 0.81999 0.0
C1126 C 0.32301 0.27609 0.80425 0.0
C1127 C 0.35209 0.30172 0.83538 0.0
C1128 C 0.40718 0.28397 0.80884 0.0
C1129 C 0.43743 0.26464 0.81365 0.0
C1130 C 0.48113 0.26411 0.80532 0.0
C1131 C 0.49469 0.28412 0.792 0.0
C1132 C 0.46493 0.30461 0.7873 0.0
C1133 C 0.42028 0.30428 0.7956 0.0
H1134 H 0.68345 0.21715 0.68786 0.0
H1135 H 0.69526 0.25969 0.6294 0.0
H1136 H 0.66058 0.29734 0.64623 0.0
H1137 H 0.57412 0.24193 0.70223 0.0
H1138 H 0.58679 0.24318 0.72989 0.0
H1139 H 0.61432 0.21982 0.7135 0.0
H1140 H 0.69302 0.2368 0.72586 0.0
H1141 H 0.6656 0.26036 0.74214 0.0
H1142 H 0.7067 0.27041 0.7228 0.0
H1143 H 0.62279 0.32976 0.66862 0.0
H1144 H 0.58197 0.35498 0.69527 0.0
H1145 H 0.59307 0.29166 0.73931 0.0
C1146 C 0.6786 0.23435 0.67857 0.0
C1147 C 0.69251 0.23551 0.65732 0.0
C1148 C 0.68578 0.25847 0.64579 0.0
C1149 C 0.6659 0.27993 0.65517 0.0
C1150 C 0.65284 0.27818 0.67611 0.0
C1151 C 0.6587 0.256 0.68769 0.0
C1152 C 0.64046 0.25909 0.7098 0.0
C1153 C 0.60162 0.23986 0.71409 0.0
C1154 C 0.67874 0.25651 0.72611 0.0
C1155 C 0.6231 0.28641 0.70873 0.0
C1156 C 0.63083 0.29703 0.68915 0.0
C1157 C 0.61673 0.32173 0.68404 0.0
C1158 C 0.59355 0.33586 0.69925 0.0
C1159 C 0.58475 0.32529 0.71933 0.0
C1160 C 0.60013 0.30034 0.72419 0.0
H1161 H 0.8858 0.2993 0.16883 0.0
H1162 H 0.76965 0.25389 0.14787 0.0
H1163 H 0.79941 0.21654 0.16684 0.0
H1164 H 0.96911 0.24847 0.16867 0.0
H1165 H 0.99647 0.25933 0.1924 0.0
H1166 H 0.96876 0.28209 0.17541 0.0
H1167 H 0.91932 0.29753 0.20653 0.0
H1168 H 0.94697 0.27485 0.22358 0.0
H1169 H 0.88589 0.27445 0.22106 0.0
H1170 H 0.84315 0.18341 0.18698 0.0
H1171 H 0.89265 0.15856 0.21097 0.0
H1172 H 0.97206 0.22715 0.2238 0.0
C1173 C 0.86618 0.28166 0.16828 0.0
C1174 C 0.82554 0.27973 0.15638 0.0
C1175 C 0.80162 0.25594 0.15614 0.0
C1176 C 0.81804 0.23454 0.16705 0.0
C1177 C 0.85803 0.23721 0.17854 0.0
C1178 C 0.88143 0.26025 0.17953 0.0
C1179 C 0.9221 0.25836 0.19409 0.0
C1180 C 0.96674 0.2623 0.18191 0.0
C1181 C 0.91831 0.27742 0.21241 0.0
C1182 C 0.91719 0.23081 0.20147 0.0
C1183 C 0.88084 0.21873 0.19177 0.0
C1184 C 0.87128 0.19275 0.19491 0.0
C1185 C 0.89945 0.17882 0.20847 0.0
C1186 C 0.93529 0.19118 0.21933 0.0
C1187 C 0.94431 0.21746 0.21583 0.0
H1188 H 0.90171 0.71976 0.66549 0.0
H1189 H 0.77167 0.75731 0.657 0.0
H1190 H 0.79932 0.79449 0.67739 0.0
H1191 H 0.91834 0.73965 0.71843 0.0
H1192 H 0.97887 0.74454 0.71621 0.0
H1193 H 0.95059 0.72146 0.69961 0.0
H1194 H 0.98293 0.74442 0.66665 0.0
H1195 H 0.01133 0.76752 0.68323 0.0
H1196 H 0.97295 0.77828 0.66304 0.0
H1197 H 0.83899 0.82677 0.69906 0.0
H1198 H 0.8881 0.85245 0.72217 0.0
H1199 H 0.99273 0.79415 0.71863 0.0
C1200 C 0.87947 0.73604 0.66768 0.0
C1201 C 0.83455 0.73575 0.65964 0.0
C1202 C 0.80606 0.75713 0.66311 0.0
C1203 C 0.82153 0.77836 0.67458 0.0
C1204 C 0.86562 0.77795 0.68253 0.0
C1205 C 0.89433 0.75743 0.67931 0.0
C1206 C 0.93935 0.76158 0.69063 0.0
C1207 C 0.94723 0.74056 0.7072 0.0
C1208 C 0.97898 0.76303 0.67494 0.0
C1209 C 0.93111 0.78749 0.70081 0.0
C1210 C 0.88844 0.79656 0.6957 0.0
C1211 C 0.87244 0.81986 0.70322 0.0
C1212 C 0.90054 0.83422 0.71651 0.0
C1213 C 0.94394 0.82512 0.72255 0.0
C1214 C 0.95973 0.80159 0.71429 0.0
H1215 H 0.70268 0.76186 0.16651 0.0
H1216 H 0.58858 0.81034 0.14987 0.0
H1217 H 0.53754 0.78276 0.17089 0.0
H1218 H 0.63924 0.70148 0.16526 0.0
H1219 H 0.6696 0.68785 0.18715 0.0
H1220 H 0.6973 0.71095 0.17032 0.0
H1221 H 0.71526 0.74036 0.20246 0.0
H1222 H 0.68952 0.71607 0.21868 0.0
H1223 H 0.66966 0.74878 0.22002 0.0
H1224 H 0.49943 0.7513 0.1946 0.0
H1225 H 0.47561 0.71672 0.21861 0.0
H1226 H 0.61374 0.68783 0.21998 0.0
C1227 C 0.66695 0.76665 0.16731 0.0
C1228 C 0.64959 0.78823 0.15647 0.0
C1229 C 0.60255 0.79372 0.15776 0.0
C1230 C 0.57333 0.77827 0.16978 0.0
C1231 C 0.59158 0.75731 0.18038 0.0
C1232 C 0.63717 0.75132 0.17916 0.0
C1233 C 0.64783 0.72755 0.19202 0.0
C1234 C 0.66447 0.70566 0.17783 0.0
C1235 C 0.6826 0.73362 0.20934 0.0
C1236 C 0.60128 0.72152 0.20108 0.0
C1237 C 0.56936 0.73888 0.194 0.0
C1238 C 0.52401 0.73743 0.20009 0.0
C1239 C 0.51072 0.71756 0.2136 0.0
C1240 C 0.54252 0.69923 0.22083 0.0
C1241 C 0.58858 0.70149 0.21466 0.0
H1242 H 0.34222 0.76243 0.36655 0.0
H1243 H 0.29163 0.81323 0.31779 0.0
H1244 H 0.32745 0.78627 0.29093 0.0
H1245 H 0.45168 0.75034 0.34168 0.0
H1246 H 0.45355 0.71723 0.34989 0.0
H1247 H 0.42391 0.74049 0.36561 0.0
H1248 H 0.35069 0.71261 0.36361 0.0
H1249 H 0.38008 0.68934 0.34783 0.0
H1250 H 0.32829 0.70357 0.3383 0.0
H1251 H 0.36644 0.75359 0.26914 0.0
H1252 H 0.4093 0.71774 0.25374 0.0
H1253 H 0.43786 0.68855 0.31624 0.0
C1254 C 0.339 0.76801 0.35025 0.0
C1255 C 0.31336 0.7898 0.34434 0.0
C1256 C 0.30996 0.7963 0.32277 0.0
C1257 C 0.33054 0.78122 0.30735 0.0
C1258 C 0.35493 0.75975 0.31366 0.0
C1259 C 0.35965 0.75319 0.33457 0.0
C1260 C 0.3879 0.72905 0.33695 0.0
C1261 C 0.43187 0.73462 0.34926 0.0
C1262 C 0.36007 0.70736 0.34728 0.0
C1263 C 0.39794 0.72307 0.31413 0.0
C1264 C 0.37845 0.74103 0.301 0.0
C1265 C 0.38205 0.73943 0.27925 0.0
C1266 C 0.40632 0.71893 0.27066 0.0
C1267 C 0.42688 0.7003 0.28377 0.0
C1268 C 0.4227 0.70254 0.30581 0.0
H1269 H 0.15885 0.70396 0.82722 0.0
H1270 H 0.20958 0.75313 0.87703 0.0
H1271 H 0.18204 0.7913 0.8579 0.0
H1272 H 0.18245 0.74712 0.78333 0.0
H1273 H 0.13052 0.73944 0.76959 0.0
H1274 H 0.15664 0.71583 0.78636 0.0
H1275 H 0.0817 0.71123 0.80747 0.0
H1276 H 0.05533 0.73463 0.79063 0.0
H1277 H 0.05608 0.73946 0.81863 0.0
H1278 H 0.14849 0.82357 0.83448 0.0
H1279 H 0.10316 0.84876 0.80945 0.0
H1280 H 0.07074 0.77952 0.77458 0.0
C1281 C 0.16435 0.72284 0.83392 0.0
C1282 C 0.18649 0.7258 0.85349 0.0
C1283 C 0.19258 0.75062 0.86207 0.0
C1284 C 0.17737 0.77234 0.85126 0.0
C1285 C 0.15581 0.76887 0.83199 0.0
C1286 C 0.14863 0.7448 0.82346 0.0
C1287 C 0.1216 0.74656 0.80316 0.0
C1288 C 0.14948 0.73665 0.78451 0.0
C1289 C 0.07598 0.73211 0.8051 0.0
C1290 C 0.11459 0.77537 0.80172 0.0
C1291 C 0.13522 0.78775 0.81845 0.0
C1292 C 0.13235 0.81415 0.82127 0.0
C1293 C 0.10655 0.82827 0.80699 0.0
C1294 C 0.08389 0.81601 0.79011 0.0
C1295 C 0.08863 0.7893 0.78713 0.0
loop_
_geom_bond_atom_site_label_1
_geom_bond_atom_site_label_2
_geom_bond_distance
_geom_bond_site_symmetry_2
_ccdc_geom_bond_type
C0 C1 1.386 . S
C0 C2 1.397 . S
C0 H24 0.931 . S
C1 C0 1.386 . S
C1 C5 1.397 . S
C2 C0 1.397 . S
C2 C3 1.384 . S
C2 H25 0.930 . S
C3 C2 1.384 . S
C3 C4 1.377 . S
C3 C6 1.481 . S
C4 C3 1.377 . S
C4 C5 1.389 . S
C4 H26 0.929 . S
C5 C1 1.397 . S
C5 C4 1.389 . S
C5 H27 0.931 . S
C6 C3 1.481 . S
C6 C7 1.387 . S
C6 C11 1.390 . S
C7 C6 1.387 . S
C7 C8 1.401 . S
C7 H28 0.930 . S
C8 C7 1.401 . S
C8 C9 1.376 . S
C8 C17 1.511 . S
C9 C8 1.376 . S
C9 C10 1.392 . S
C9 H30 0.931 . S
C10 C9 1.392 . S
C10 C11 1.361 . S
C10 C12 1.500 . S
C11 C6 1.390 . S
C11 C10 1.361 . S
C11 H29 0.931 . S
C12 C10 1.500 . S
C12 C13 1.371 . S
C12 C14 1.365 . S
C13 C12 1.371 . S
C13 C23 1.386 . S
C13 H31 0.931 . S
C14 C12 1.365 . S
C14 C15 1.409 . S
C14 H32 0.929 . S
C15 C14 1.409 . S
C15 C16 1.380 . S
C15 H33 0.930 . S
C16 C15 1.380 . S
C16 C23 1.357 . S
C17 C8 1.511 . S
C17 C18 1.341 . S
C17 C19 1.371 . S
C18 C17 1.341 . S
C18 C22 1.394 . S
C18 H34 0.930 . S
C19 C17 1.371 . S
C19 C20 1.392 . S
C19 H35 0.931 . S
C20 C19 1.392 . S
C20 C21 1.331 . S
C20 H38 0.932 . S
C21 C20 1.331 . S
C21 C22 1.336 . S
C22 C18 1.394 . S
C22 C21 1.336 . S
C22 H37 0.929 . S
C23 C13 1.386 . S
C23 C16 1.357 . S
C23 H36 0.928 . S
H24 C0 0.931 . S
H25 C2 0.930 . S
H26 C4 0.929 . S
H27 C5 0.931 . S
H28 C7 0.930 . S
H29 C11 0.931 . S
H30 C9 0.931 . S
H31 C13 0.931 . S
H32 C14 0.929 . S
H33 C15 0.930 . S
H34 C18 0.930 . S
H35 C19 0.931 . S
H36 C23 0.928 . S
H37 C22 0.929 . S
H38 C20 0.932 . S
C39 C40 1.386 . S
C39 C41 1.397 . S
C39 H63 0.931 . S
C40 C39 1.386 . S
C40 C44 1.397 . S
C41 C39 1.397 . S
C41 C42 1.384 . S
C41 H64 0.930 . S
C42 C41 1.384 . S
C42 C43 1.377 . S
C42 C45 1.481 . S
C43 C42 1.377 . S
C43 C44 1.389 . S
C43 H65 0.929 . S
C44 C40 1.397 . S
C44 C43 1.389 . S
C44 H66 0.931 . S
C45 C42 1.481 . S
C45 C46 1.387 . S
C45 C50 1.390 . S
C46 C45 1.387 . S
C46 C47 1.401 . S
C46 H67 0.930 . S
C47 C46 1.401 . S
C47 C48 1.376 . S
C47 C56 1.511 . S
C48 C47 1.376 . S
C48 C49 1.392 . S
C48 H69 0.931 . S
C49 C48 1.392 . S
C49 C50 1.361 . S
C49 C51 1.500 . S
C50 C45 1.390 . S
C50 C49 1.361 . S
C50 H68 0.931 . S
C51 C49 1.500 . S
C51 C52 1.371 . S
C51 C53 1.365 . S
C52 C51 1.371 . S
C52 C62 1.386 . S
C52 H70 0.931 . S
C53 C51 1.365 . S
C53 C54 1.409 . S
C53 H71 0.929 . S
C54 C53 1.409 . S
C54 C55 1.380 . S
C54 H72 0.930 . S
C55 C54 1.380 . S
C55 C62 1.357 . S
C56 C47 1.511 . S
C56 C57 1.341 . S
C56 C58 1.371 . S
C57 C56 1.341 . S
C57 C61 1.394 . S
C57 H73 0.930 . S
C58 C56 1.371 . S
C58 C59 1.392 . S
C58 H74 0.931 . S
C59 C58 1.392 . S
C59 C60 1.331 . S
C59 H77 0.932 . S
C60 C59 1.331 . S
C60 C61 1.336 . S
C61 C57 1.394 . S
C61 C60 1.336 . S
C61 H76 0.929 . S
C62 C52 1.386 . S
C62 C55 1.357 . S
C62 H75 0.928 . S
H63 C39 0.931 . S
H64 C41 0.930 . S
H65 C43 0.929 . S
H66 C44 0.931 . S
H67 C46 0.930 . S
H68 C50 0.931 . S
H69 C48 0.931 . S
H70 C52 0.931 . S
H71 C53 0.929 . S
H72 C54 0.930 . S
H73 C57 0.930 . S
H74 C58 0.931 . S
H75 C62 0.928 . S
H76 C61 0.929 . S
H77 C59 0.932 . S
C78 C79 1.386 . S
C78 C80 1.397 . S
C78 H102 0.931 . S
C79 C78 1.386 . S
C79 C83 1.397 . S
C80 C78 1.397 . S
C80 C81 1.384 . S
C80 H103 0.930 . S
C81 C80 1.384 . S
C81 C82 1.377 . S
C81 C84 1.481 . S
C82 C81 1.377 . S
C82 C83 1.389 . S
C82 H104 0.929 . S
C83 C79 1.397 . S
C83 C82 1.389 . S
C83 H105 0.931 . S
C84 C81 1.481 . S
C84 C85 1.387 . S
C84 C89 1.390 . S
C85 C84 1.387 . S
C85 C86 1.401 . S
C85 H106 0.930 . S
C86 C85 1.401 . S
C86 C87 1.376 . S
C86 C95 1.511 . S
C87 C86 1.376 . S
C87 C88 1.392 . S
C87 H108 0.931 . S
C88 C87 1.392 . S
C88 C89 1.361 . S
C88 C90 1.500 . S
C89 C84 1.390 . S
C89 C88 1.361 . S
C89 H107 0.931 . S
C90 C88 1.500 . S
C90 C91 1.371 . S
C90 C92 1.365 . S
C91 C90 1.371 . S
C91 C101 1.386 . S
C91 H109 0.931 . S
C92 C90 1.365 . S
C92 C93 1.409 . S
C92 H110 0.929 . S
C93 C92 1.409 . S
C93 C94 1.380 . S
C93 H111 0.930 . S
C94 C93 1.380 . S
C94 C101 1.357 . S
C95 C86 1.511 . S
C95 C96 1.341 . S
C95 C97 1.371 . S
C96 C95 1.341 . S
C96 C100 1.394 . S
C96 H112 0.930 . S
C97 C95 1.371 . S
C97 C98 1.392 . S
C97 H113 0.931 . S
C98 C97 1.392 . S
C98 C99 1.331 . S
C98 H116 0.932 . S
C99 C98 1.331 . S
C99 C100 1.336 . S
C100 C96 1.394 . S
C100 C99 1.336 . S
C100 H115 0.929 . S
C101 C91 1.386 . S
C101 C94 1.357 . S
C101 H114 0.928 . S
H102 C78 0.931 . S
H103 C80 0.930 . S
H104 C82 0.929 . S
H105 C83 0.931 . S
H106 C85 0.930 . S
H107 C89 0.931 . S
H108 C87 0.931 . S
H109 C91 0.931 . S
H110 C92 0.929 . S
H111 C93 0.930 . S
H112 C96 0.930 . S
H113 C97 0.931 . S
H114 C101 0.928 . S
H115 C100 0.929 . S
H116 C98 0.932 . S
C117 C118 1.386 . S
C117 C119 1.397 . S
C117 H141 0.931 . S
C118 C117 1.386 . S
C118 C122 1.397 . S
C119 C117 1.397 . S
C119 C120 1.384 . S
C119 H142 0.930 . S
C120 C119 1.384 . S
C120 C121 1.377 . S
C120 C123 1.481 . S
C121 C120 1.377 . S
C121 C122 1.389 . S
C121 H143 0.929 . S
C122 C118 1.397 . S
C122 C121 1.389 . S
C122 H144 0.931 . S
C123 C120 1.481 . S
C123 C124 1.387 . S
C123 C128 1.390 . S
C124 C123 1.387 . S
C124 C125 1.401 . S
C124 H145 0.930 . S
C125 C124 1.401 . S
C125 C126 1.376 . S
C125 C134 1.511 . S
C126 C125 1.376 . S
C126 C127 1.392 . S
C126 H147 0.931 . S
C127 C126 1.392 . S
C127 C128 1.361 . S
C127 C129 1.500 . S
C128 C123 1.390 . S
C128 C127 1.361 . S
C128 H146 0.931 . S
C129 C127 1.500 . S
C129 C130 1.371 . S
C129 C131 1.365 . S
C130 C129 1.371 . S
C130 C140 1.386 . S
C130 H148 0.931 . S
C131 C129 1.365 . S
C131 C132 1.409 . S
C131 H149 0.929 . S
C132 C131 1.409 . S
C132 C133 1.380 . S
C132 H150 0.930 . S
C133 C132 1.380 . S
C133 C140 1.357 . S
C134 C125 1.511 . S
C134 C135 1.341 . S
C134 C136 1.371 . S
C135 C134 1.341 . S
C135 C139 1.394 . S
C135 H151 0.930 . S
C136 C134 1.371 . S
C136 C137 1.392 . S
C136 H152 0.931 . S
C137 C136 1.392 . S
C137 C138 1.331 . S
C137 H155 0.932 . S
C138 C137 1.331 . S
C138 C139 1.336 . S
C139 C135 1.394 . S
C139 C138 1.336 . S
C139 H154 0.929 . S
C140 C130 1.386 . S
C140 C133 1.357 . S
C140 H153 0.928 . S
H141 C117 0.931 . S
H142 C119 0.930 . S
H143 C121 0.929 . S
H144 C122 0.931 . S
H145 C124 0.930 . S
H146 C128 0.931 . S
H147 C126 0.931 . S
H148 C130 0.931 . S
H149 C131 0.929 . S
H150 C132 0.930 . S
H151 C135 0.930 . S
H152 C136 0.931 . S
H153 C140 0.928 . S
H154 C139 0.929 . S
H155 C137 0.932 . S
C156 C157 1.386 . S
C156 C158 1.397 . S
C156 H180 0.931 . S
C157 C156 1.386 . S
C157 C161 1.397 . S
C158 C156 1.397 . S
C158 C159 1.384 . S
C158 H181 0.930 . S
C159 C158 1.384 . S
C159 C160 1.377 . S
C159 C162 1.481 . S
C160 C159 1.377 . S
C160 C161 1.389 . S
C160 H182 0.929 . S
C161 C157 1.397 . S
C161 C160 1.389 . S
C161 H183 0.931 . S
C162 C159 1.481 . S
C162 C163 1.387 . S
C162 C167 1.390 . S
C163 C162 1.387 . S
C163 C164 1.401 . S
C163 H184 0.930 . S
C164 C163 1.401 . S
C164 C165 1.376 . S
C164 C173 1.511 . S
C165 C164 1.376 . S
C165 C166 1.392 . S
C165 H186 0.931 . S
C166 C165 1.392 . S
C166 C167 1.361 . S
C166 C168 1.500 . S
C167 C162 1.390 . S
C167 C166 1.361 . S
C167 H185 0.931 . S
C168 C166 1.500 . S
C168 C169 1.371 . S
C168 C170 1.365 . S
C169 C168 1.371 . S
C169 C179 1.386 . S
C169 H187 0.931 . S
C170 C168 1.365 . S
C170 C171 1.409 . S
C170 H188 0.929 . S
C171 C170 1.409 . S
C171 C172 1.380 . S
C171 H189 0.930 . S
C172 C171 1.380 . S
C172 C179 1.357 . S
C173 C164 1.511 . S
C173 C174 1.341 . S
C173 C175 1.371 . S
C174 C173 1.341 . S
C174 C178 1.394 . S
C174 H190 0.930 . S
C175 C173 1.371 . S
C175 C176 1.392 . S
C175 H191 0.931 . S
C176 C175 1.392 . S
C176 C177 1.331 . S
C176 H194 0.932 . S
C177 C176 1.331 . S
C177 C178 1.336 . S
C178 C174 1.394 . S
C178 C177 1.336 . S
C178 H193 0.929 . S
C179 C169 1.386 . S
C179 C172 1.357 . S
C179 H192 0.928 . S
H180 C156 0.931 . S
H181 C158 0.930 . S
H182 C160 0.929 . S
H183 C161 0.931 . S
H184 C163 0.930 . S
H185 C167 0.931 . S
H186 C165 0.931 . S
H187 C169 0.931 . S
H188 C170 0.929 . S
H189 C171 0.930 . S
H190 C174 0.930 . S
H191 C175 0.931 . S
H192 C179 0.928 . S
H193 C178 0.929 . S
H194 C176 0.932 . S
C195 C196 1.386 . S
C195 C197 1.397 . S
C195 H219 0.931 . S
C196 C195 1.386 . S
C196 C200 1.397 . S
C197 C195 1.397 . S
C197 C198 1.384 . S
C197 H220 0.930 . S
C198 C197 1.384 . S
C198 C199 1.377 . S
C198 C201 1.481 . S
C199 C198 1.377 . S
C199 C200 1.389 . S
C199 H221 0.929 . S
C200 C196 1.397 . S
C200 C199 1.389 . S
C200 H222 0.931 . S
C201 C198 1.481 . S
C201 C202 1.387 . S
C201 C206 1.390 . S
C202 C201 1.387 . S
C202 C203 1.401 . S
C202 H223 0.930 . S
C203 C202 1.401 . S
C203 C204 1.376 . S
C203 C212 1.511 . S
C204 C203 1.376 . S
C204 C205 1.392 . S
C204 H225 0.931 . S
C205 C204 1.392 . S
C205 C206 1.361 . S
C205 C207 1.500 . S
C206 C201 1.390 . S
C206 C205 1.361 . S
C206 H224 0.931 . S
C207 C205 1.500 . S
C207 C208 1.371 . S
C207 C209 1.365 . S
C208 C207 1.371 . S
C208 C218 1.386 . S
C208 H226 0.931 . S
C209 C207 1.365 . S
C209 C210 1.409 . S
C209 H227 0.929 . S
C210 C209 1.409 . S
C210 C211 1.380 . S
C210 H228 0.930 . S
C211 C210 1.380 . S
C211 C218 1.357 . S
C212 C203 1.511 . S
C212 C213 1.341 . S
C212 C214 1.371 . S
C213 C212 1.341 . S
C213 C217 1.394 . S
C213 H229 0.930 . S
C214 C212 1.371 . S
C214 C215 1.392 . S
C214 H230 0.931 . S
C215 C214 1.392 . S
C215 C216 1.331 . S
C215 H233 0.932 . S
C216 C215 1.331 . S
C216 C217 1.336 . S
C217 C213 1.394 . S
C217 C216 1.336 . S
C217 H232 0.929 . S
C218 C208 1.386 . S
C218 C211 1.357 . S
C218 H231 0.928 . S
H219 C195 0.931 . S
H220 C197 0.930 . S
H221 C199 0.929 . S
H222 C200 0.931 . S
H223 C202 0.930 . S
H224 C206 0.931 . S
H225 C204 0.931 . S
H226 C208 0.931 . S
H227 C209 0.929 . S
H228 C210 0.930 . S
H229 C213 0.930 . S
H230 C214 0.931 . S
H231 C218 0.928 . S
H232 C217 0.929 . S
H233 C215 0.932 . S
C234 C235 1.386 . S
C234 C236 1.397 . S
C234 H258 0.931 . S
C235 C234 1.386 . S
C235 C239 1.397 . S
C236 C234 1.397 . S
C236 C237 1.384 . S
C236 H259 0.930 . S
C237 C236 1.384 . S
C237 C238 1.377 . S
C237 C240 1.481 . S
C238 C237 1.377 . S
C238 C239 1.389 . S
C238 H260 0.929 . S
C239 C235 1.397 . S
C239 C238 1.389 . S
C239 H261 0.931 . S
C240 C237 1.481 . S
C240 C241 1.387 . S
C240 C245 1.390 . S
C241 C240 1.387 . S
C241 C242 1.401 . S
C241 H262 0.930 . S
C242 C241 1.401 . S
C242 C243 1.376 . S
C242 C251 1.511 . S
C243 C242 1.376 . S
C243 C244 1.392 . S
C243 H264 0.931 . S
C244 C243 1.392 . S
C244 C245 1.361 . S
C244 C246 1.500 . S
C245 C240 1.390 . S
C245 C244 1.361 . S
C245 H263 0.931 . S
C246 C244 1.500 . S
C246 C247 1.371 . S
C246 C248 1.365 . S
C247 C246 1.371 . S
C247 C257 1.386 . S
C247 H265 0.931 . S
C248 C246 1.365 . S
C248 C249 1.409 . S
C248 H266 0.929 . S
C249 C248 1.409 . S
C249 C250 1.380 . S
C249 H267 0.930 . S
C250 C249 1.380 . S
C250 C257 1.357 . S
C251 C242 1.511 . S
C251 C252 1.341 . S
C251 C253 1.371 . S
C252 C251 1.341 . S
C252 C256 1.394 . S
C252 H268 0.930 . S
C253 C251 1.371 . S
C253 C254 1.392 . S
C253 H269 0.931 . S
C254 C253 1.392 . S
C254 C255 1.331 . S
C254 H272 0.932 . S
C255 C254 1.331 . S
C255 C256 1.336 . S
C256 C252 1.394 . S
C256 C255 1.336 . S
C256 H271 0.929 . S
C257 C247 1.386 . S
C257 C250 1.357 . S
C257 H270 0.928 . S
H258 C234 0.931 . S
H259 C236 0.930 . S
H260 C238 0.929 . S
H261 C239 0.931 . S
H262 C241 0.930 . S
H263 C245 0.931 . S
H264 C243 0.931 . S
H265 C247 0.931 . S
H266 C248 0.929 . S
H267 C249 0.930 . S
H268 C252 0.930 . S
H269 C253 0.931 . S
H270 C257 0.928 . S
H271 C256 0.929 . S
H272 C254 0.932 . S
C273 C274 1.386 . S
C273 C275 1.397 . S
C273 H297 0.931 . S
C274 C273 1.386 . S
C274 C278 1.397 . S
C275 C273 1.397 . S
C275 C276 1.384 . S
C275 H298 0.930 . S
C276 C275 1.384 . S
C276 C277 1.377 . S
C276 C279 1.481 . S
C277 C276 1.377 . S
C277 C278 1.389 . S
C277 H299 0.929 . S
C278 C274 1.397 . S
C278 C277 1.389 . S
C278 H300 0.931 . S
C279 C276 1.481 . S
C279 C280 1.387 . S
C279 C284 1.390 . S
C280 C279 1.387 . S
C280 C281 1.401 . S
C280 H301 0.930 . S
C281 C280 1.401 . S
C281 C282 1.376 . S
C281 C290 1.511 . S
C282 C281 1.376 . S
C282 C283 1.392 . S
C282 H303 0.931 . S
C283 C282 1.392 . S
C283 C284 1.361 . S
C283 C285 1.500 . S
C284 C279 1.390 . S
C284 C283 1.361 . S
C284 H302 0.931 . S
C285 C283 1.500 . S
C285 C286 1.371 . S
C285 C287 1.365 . S
C286 C285 1.371 . S
C286 C296 1.386 . S
C286 H304 0.931 . S
C287 C285 1.365 . S
C287 C288 1.409 . S
C287 H305 0.929 . S
C288 C287 1.409 . S
C288 C289 1.380 . S
C288 H306 0.930 . S
C289 C288 1.380 . S
C289 C296 1.357 . S
C290 C281 1.511 . S
C290 C291 1.341 . S
C290 C292 1.371 . S
C291 C290 1.341 . S
C291 C295 1.394 . S
C291 H307 0.930 . S
C292 C290 1.371 . S
C292 C293 1.392 . S
C292 H308 0.931 . S
C293 C292 1.392 . S
C293 C294 1.331 . S
C293 H311 0.932 . S
C294 C293 1.331 . S
C294 C295 1.336 . S
C295 C291 1.394 . S
C295 C294 1.336 . S
C295 H310 0.929 . S
C296 C286 1.386 . S
C296 C289 1.357 . S
C296 H309 0.928 . S
H297 C273 0.931 . S
H298 C275 0.930 . S
H299 C277 0.929 . S
H300 C278 0.931 . S
H301 C280 0.930 . S
H302 C284 0.931 . S
H303 C282 0.931 . S
H304 C286 0.931 . S
H305 C287 0.929 . S
H306 C288 0.930 . S
H307 C291 0.930 . S
H308 C292 0.931 . S
H309 C296 0.928 . S
H310 C295 0.929 . S
H311 C293 0.932 . S
Tb312 N341 2.617 . S
Tb312 N347 2.572 . S
Tb312 O356 2.465 . S
Tb312 O357 2.387 . S
Tb312 O359 2.428 . S
Tb312 O360 2.308 . S
Tb312 O364 2.349 . S
Tb312 O367 2.393 . S
Tb312 C376 2.802 . S
C313 N314 1.379 . S
C313 C316 1.416 . S
C313 C320 1.424 . S
N314 C313 1.379 . S
N314 C317 1.334 . S
N314 Tb323 2.617 . S
C315 C317 1.390 . S
C315 C318 1.339 . S
C315 H335 0.930 . S
C316 C313 1.416 . S
C316 C318 1.416 . S
C316 C322 1.448 . S
C317 N314 1.334 . S
C317 C315 1.390 . S
C317 H328 0.930 . S
C318 C315 1.339 . S
C318 C316 1.416 . S
C318 H339 0.930 . S
C319 C320 1.413 . S
C319 C321 1.427 . S
C319 C325 1.416 . S
C320 C313 1.424 . S
C320 C319 1.413 . S
C320 N324 1.361 . S
C321 C319 1.427 . S
C321 C322 1.328 . S
C321 H336 0.929 . S
C322 C316 1.448 . S
C322 C321 1.328 . S
C322 H337 0.930 . S
Tb323 N314 2.617 . S
Tb323 N324 2.572 . S
Tb323 O358 2.349 1_655 S
Tb323 O361 2.393 . S
Tb323 O362 2.465 . S
Tb323 O363 2.387 . S
Tb323 O365 2.428 . S
Tb323 O366 2.308 1_655 S
Tb323 C387 2.802 . S
N324 C320 1.361 . S
N324 Tb323 2.572 . S
N324 C326 1.340 . S
C325 C319 1.416 . S
C325 C327 1.332 . S
C325 H333 0.931 . S
C326 N324 1.340 . S
C326 C327 1.407 . S
C326 H332 0.930 . S
C327 C325 1.332 . S
C327 C326 1.407 . S
C327 H329 0.929 . S
H328 C317 0.930 . S
H329 C327 0.929 . S
H330 C345 0.930 . S
H331 C352 0.929 . S
H332 C326 0.930 . S
H333 C325 0.931 . S
H334 C348 0.930 . S
H335 C315 0.930 . S
H336 C321 0.929 . S
H337 C322 0.930 . S
H338 C343 0.930 . S
H339 C318 0.930 . S
H340 C351 0.931 . S
N341 Tb312 2.617 . S
N341 C342 1.379 . S
N341 C345 1.334 . S
C342 N341 1.379 . S
C342 C344 1.416 . S
C342 C350 1.424 . S
C343 H338 0.930 . S
C343 C345 1.390 . S
C343 C346 1.339 . S
C344 C342 1.416 . S
C344 C346 1.416 . S
C344 C377 1.448 . S
C345 H330 0.930 . S
C345 N341 1.334 . S
C345 C343 1.390 . S
C346 C343 1.339 . S
C346 C344 1.416 . S
C346 H353 0.930 . S
N347 Tb312 2.572 . S
N347 C348 1.340 . S
N347 C350 1.361 . S
C348 H334 0.930 . S
C348 N347 1.340 . S
C348 C352 1.407 . S
C349 C350 1.413 . S
C349 C351 1.416 . S
C349 C378 1.427 . S
C350 C342 1.424 . S
C350 N347 1.361 . S
C350 C349 1.413 . S
C351 H340 0.931 . S
C351 C349 1.416 . S
C351 C352 1.332 . S
C352 H331 0.929 . S
C352 C348 1.407 . S
C352 C351 1.332 . S
H353 C346 0.930 . S
H354 C377 0.930 . S
H355 C378 0.929 . S
O356 Tb312 2.465 . S
O356 C376 1.264 . S
O357 Tb312 2.387 . S
O357 C368 1.264 . S
O358 Tb323 2.349 1_455 S
O358 C368 1.243 . S
O359 Tb312 2.428 . S
O359 C376 1.256 . S
O360 Tb312 2.308 . S
O360 C375 1.266 1_455 S
O361 Tb323 2.393 . S
O361 C375 1.248 . S
O362 Tb323 2.465 . S
O362 C387 1.264 . S
O363 Tb323 2.387 . S
O363 C379 1.264 . S
O364 Tb312 2.349 . S
O364 C379 1.243 1_455 S
O365 Tb323 2.428 . S
O365 C387 1.256 . S
O366 Tb323 2.308 1_455 S
O366 C386 1.266 . S
O367 Tb312 2.393 . S
O367 C386 1.248 . S
C368 O357 1.264 . S
C368 O358 1.243 . S
C369 C372 1.399 . S
C369 C374 1.383 . S
C369 C376 1.496 . S
C370 C371 1.399 . S
C370 C374 1.389 . S
C371 C370 1.399 . S
C371 C373 1.380 . S
C371 H388 0.929 . S
C372 C369 1.399 . S
C372 C373 1.392 . S
C372 H389 0.929 . S
C373 C371 1.380 . S
C373 C372 1.392 . S
C373 H390 0.929 . S
C374 C369 1.383 . S
C374 C370 1.389 . S
C374 H391 0.931 . S
C375 O360 1.266 1_655 S
C375 O361 1.248 . S
C376 Tb312 2.802 . S
C376 O356 1.264 . S
C376 O359 1.256 . S
C376 C369 1.496 . S
C377 C344 1.448 . S
C377 H354 0.930 . S
C377 C378 1.328 . S
C378 C349 1.427 . S
C378 H355 0.929 . S
C378 C377 1.328 . S
C379 O363 1.264 . S
C379 O364 1.243 1_655 S
C380 C383 1.399 . S
C380 C384 1.383 . S
C380 C387 1.496 . S
C381 C382 1.399 . S
C381 C384 1.389 . S
C382 C381 1.399 . S
C382 C385 1.380 . S
C382 H392 0.929 . S
C383 C380 1.399 . S
C383 C385 1.392 . S
C383 H393 0.929 . S
C384 C380 1.383 . S
C384 C381 1.389 . S
C384 H394 0.931 . S
C385 C382 1.380 . S
C385 C383 1.392 . S
C385 H395 0.929 . S
C386 O366 1.266 . S
C386 O367 1.248 . S
C387 Tb323 2.802 . S
C387 O362 1.264 . S
C387 O365 1.256 . S
C387 C380 1.496 . S
H388 C371 0.929 . S
H389 C372 0.929 . S
H390 C373 0.929 . S
H391 C374 0.931 . S
H392 C382 0.929 . S
H393 C383 0.929 . S
H394 C384 0.931 . S
H395 C385 0.929 . S
Tb396 N425 2.617 . S
Tb396 N431 2.572 . S
Tb396 O440 2.465 . S
Tb396 O441 2.387 . S
Tb396 O443 2.428 . S
Tb396 O444 2.308 . S
Tb396 O448 2.349 . S
Tb396 O451 2.393 . S
Tb396 C460 2.802 . S
C397 N398 1.379 . S
C397 C400 1.416 . S
C397 C404 1.424 . S
N398 C397 1.379 . S
N398 C401 1.334 . S
N398 Tb407 2.617 . S
C399 C401 1.390 . S
C399 C402 1.339 . S
C399 H419 0.930 . S
C400 C397 1.416 . S
C400 C402 1.416 . S
C400 C406 1.448 . S
C401 N398 1.334 . S
C401 C399 1.390 . S
C401 H412 0.930 . S
C402 C399 1.339 . S
C402 C400 1.416 . S
C402 H423 0.930 . S
C403 C404 1.413 . S
C403 C405 1.427 . S
C403 C409 1.416 . S
C404 C397 1.424 . S
C404 C403 1.413 . S
C404 N408 1.361 . S
C405 C403 1.427 . S
C405 C406 1.328 . S
C405 H420 0.929 . S
C406 C400 1.448 . S
C406 C405 1.328 . S
C406 H421 0.930 . S
Tb407 N398 2.617 . S
Tb407 N408 2.572 . S
Tb407 O442 2.349 . S
Tb407 O445 2.393 . S
Tb407 O446 2.465 . S
Tb407 O447 2.387 . S
Tb407 O449 2.428 . S
Tb407 O450 2.308 . S
Tb407 C471 2.802 . S
N408 C404 1.361 . S
N408 Tb407 2.572 . S
N408 C410 1.340 . S
C409 C403 1.416 . S
C409 C411 1.332 . S
C409 H417 0.931 . S
C410 N408 1.340 . S
C410 C411 1.407 . S
C410 H416 0.930 . S
C411 C409 1.332 . S
C411 C410 1.407 . S
C411 H413 0.929 . S
H412 C401 0.930 . S
H413 C411 0.929 . S
H414 C429 0.930 . S
H415 C436 0.929 . S
H416 C410 0.930 . S
H417 C409 0.931 . S
H418 C432 0.930 . S
H419 C399 0.930 . S
H420 C405 0.929 . S
H421 C406 0.930 . S
H422 C427 0.930 . S
H423 C402 0.930 . S
H424 C435 0.931 . S
N425 Tb396 2.617 . S
N425 C426 1.379 . S
N425 C429 1.334 . S
C426 N425 1.379 . S
C426 C428 1.416 . S
C426 C434 1.424 . S
C427 H422 0.930 . S
C427 C429 1.390 . S
C427 C430 1.339 . S
C428 C426 1.416 . S
C428 C430 1.416 . S
C428 C461 1.448 . S
C429 H414 0.930 . S
C429 N425 1.334 . S
C429 C427 1.390 . S
C430 C427 1.339 . S
C430 C428 1.416 . S
C430 H437 0.930 . S
N431 Tb396 2.572 . S
N431 C432 1.340 . S
N431 C434 1.361 . S
C432 H418 0.930 . S
C432 N431 1.340 . S
C432 C436 1.407 . S
C433 C434 1.413 . S
C433 C435 1.416 . S
C433 C462 1.427 . S
C434 C426 1.424 . S
C434 N431 1.361 . S
C434 C433 1.413 . S
C435 H424 0.931 . S
C435 C433 1.416 . S
C435 C436 1.332 . S
C436 H415 0.929 . S
C436 C432 1.407 . S
C436 C435 1.332 . S
H437 C430 0.930 . S
H438 C461 0.930 . S
H439 C462 0.929 . S
O440 Tb396 2.465 . S
O440 C460 1.264 . S
O441 Tb396 2.387 . S
O441 C452 1.264 . S
O442 Tb407 2.349 . S
O442 C452 1.243 . S
O443 Tb396 2.428 . S
O443 C460 1.256 . S
O444 Tb396 2.308 . S
O444 C459 1.266 . S
O445 Tb407 2.393 . S
O445 C459 1.248 . S
O446 Tb407 2.465 . S
O446 C471 1.264 . S
O447 Tb407 2.387 . S
O447 C463 1.264 . S
O448 Tb396 2.349 . S
O448 C463 1.243 . S
O449 Tb407 2.428 . S
O449 C471 1.256 . S
O450 Tb407 2.308 . S
O450 C470 1.266 . S
O451 Tb396 2.393 . S
O451 C470 1.248 . S
C452 O441 1.264 . S
C452 O442 1.243 . S
C453 C456 1.399 . S
C453 C458 1.383 . S
C453 C460 1.496 . S
C454 C455 1.399 . S
C454 C458 1.389 . S
C455 C454 1.399 . S
C455 C457 1.380 . S
C455 H472 0.929 . S
C456 C453 1.399 . S
C456 C457 1.392 . S
C456 H473 0.929 . S
C457 C455 1.380 . S
C457 C456 1.392 . S
C457 H474 0.929 . S
C458 C453 1.383 . S
C458 C454 1.389 . S
C458 H475 0.931 . S
C459 O444 1.266 . S
C459 O445 1.248 . S
C460 Tb396 2.802 . S
C460 O440 1.264 . S
C460 O443 1.256 . S
C460 C453 1.496 . S
C461 C428 1.448 . S
C461 H438 0.930 . S
C461 C462 1.328 . S
C462 C433 1.427 . S
C462 H439 0.929 . S
C462 C461 1.328 . S
C463 O447 1.264 . S
C463 O448 1.243 . S
C464 C467 1.399 . S
C464 C468 1.383 . S
C464 C471 1.496 . S
C465 C466 1.399 . S
C465 C468 1.389 . S
C466 C465 1.399 . S
C466 C469 1.380 . S
C466 H476 0.929 . S
C467 C464 1.399 . S
C467 C469 1.392 . S
C467 H477 0.929 . S
C468 C464 1.383 . S
C468 C465 1.389 . S
C468 H478 0.931 . S
C469 C466 1.380 . S
C469 C467 1.392 . S
C469 H479 0.929 . S
C470 O450 1.266 . S
C470 O451 1.248 . S
C471 Tb407 2.802 . S
C471 O446 1.264 . S
C471 O449 1.256 . S
C471 C464 1.496 . S
H472 C455 0.929 . S
H473 C456 0.929 . S
H474 C457 0.929 . S
H475 C458 0.931 . S
H476 C466 0.929 . S
H477 C467 0.929 . S
H478 C468 0.931 . S
H479 C469 0.929 . S
Tb480 N509 2.617 . S
Tb480 N515 2.572 . S
Tb480 O524 2.465 . S
Tb480 O525 2.387 . S
Tb480 O527 2.428 . S
Tb480 O528 2.308 . S
Tb480 O532 2.349 . S
Tb480 O535 2.393 . S
Tb480 C544 2.802 . S
C481 N482 1.379 . S
C481 C484 1.416 . S
C481 C488 1.424 . S
N482 C481 1.379 . S
N482 C485 1.334 . S
N482 Tb491 2.617 . S
C483 C485 1.390 . S
C483 C486 1.339 . S
C483 H503 0.930 . S
C484 C481 1.416 . S
C484 C486 1.416 . S
C484 C490 1.448 . S
C485 N482 1.334 . S
C485 C483 1.390 . S
C485 H496 0.930 . S
C486 C483 1.339 . S
C486 C484 1.416 . S
C486 H507 0.930 . S
C487 C488 1.413 . S
C487 C489 1.427 . S
C487 C493 1.416 . S
C488 C481 1.424 . S
C488 C487 1.413 . S
C488 N492 1.361 . S
C489 C487 1.427 . S
C489 C490 1.328 . S
C489 H504 0.929 . S
C490 C484 1.448 . S
C490 C489 1.328 . S
C490 H505 0.930 . S
Tb491 N482 2.617 . S
Tb491 N492 2.572 . S
Tb491 O526 2.349 1_655 S
Tb491 O529 2.393 . S
Tb491 O530 2.465 . S
Tb491 O531 2.387 . S
Tb491 O533 2.428 . S
Tb491 O534 2.308 1_655 S
Tb491 C555 2.802 . S
N492 C488 1.361 . S
N492 Tb491 2.572 . S
N492 C494 1.340 . S
C493 C487 1.416 . S
C493 C495 1.332 . S
C493 H501 0.931 . S
C494 N492 1.340 . S
C494 C495 1.407 . S
C494 H500 0.930 . S
C495 C493 1.332 . S
C495 C494 1.407 . S
C495 H497 0.929 . S
H496 C485 0.930 . S
H497 C495 0.929 . S
H498 C513 0.930 . S
H499 C520 0.929 . S
H500 C494 0.930 . S
H501 C493 0.931 . S
H502 C516 0.930 . S
H503 C483 0.930 . S
H504 C489 0.929 . S
H505 C490 0.930 . S
H506 C511 0.930 . S
H507 C486 0.930 . S
H508 C519 0.931 . S
N509 Tb480 2.617 . S
N509 C510 1.379 . S
N509 C513 1.334 . S
C510 N509 1.379 . S
C510 C512 1.416 . S
C510 C518 1.424 . S
C511 H506 0.930 . S
C511 C513 1.390 . S
C511 C514 1.339 . S
C512 C510 1.416 . S
C512 C514 1.416 . S
C512 C545 1.448 . S
C513 H498 0.930 . S
C513 N509 1.334 . S
C513 C511 1.390 . S
C514 C511 1.339 . S
C514 C512 1.416 . S
C514 H521 0.930 . S
N515 Tb480 2.572 . S
N515 C516 1.340 . S
N515 C518 1.361 . S
C516 H502 0.930 . S
C516 N515 1.340 . S
C516 C520 1.407 . S
C517 C518 1.413 . S
C517 C519 1.416 . S
C517 C546 1.427 . S
C518 C510 1.424 . S
C518 N515 1.361 . S
C518 C517 1.413 . S
C519 H508 0.931 . S
C519 C517 1.416 . S
C519 C520 1.332 . S
C520 H499 0.929 . S
C520 C516 1.407 . S
C520 C519 1.332 . S
H521 C514 0.930 . S
H522 C545 0.930 . S
H523 C546 0.929 . S
O524 Tb480 2.465 . S
O524 C544 1.264 . S
O525 Tb480 2.387 . S
O525 C536 1.264 . S
O526 Tb491 2.349 1_455 S
O526 C536 1.243 . S
O527 Tb480 2.428 . S
O527 C544 1.256 . S
O528 Tb480 2.308 . S
O528 C543 1.266 1_455 S
O529 Tb491 2.393 . S
O529 C543 1.248 . S
O530 Tb491 2.465 . S
O530 C555 1.264 . S
O531 Tb491 2.387 . S
O531 C547 1.264 . S
O532 Tb480 2.349 . S
O532 C547 1.243 1_455 S
O533 Tb491 2.428 . S
O533 C555 1.256 . S
O534 Tb491 2.308 1_455 S
O534 C554 1.266 . S
O535 Tb480 2.393 . S
O535 C554 1.248 . S
C536 O525 1.264 . S
C536 O526 1.243 . S
C537 C540 1.399 . S
C537 C542 1.383 . S
C537 C544 1.496 . S
C538 C539 1.399 . S
C538 C542 1.389 . S
C539 C538 1.399 . S
C539 C541 1.380 . S
C539 H556 0.929 . S
C540 C537 1.399 . S
C540 C541 1.392 . S
C540 H557 0.929 . S
C541 C539 1.380 . S
C541 C540 1.392 . S
C541 H558 0.929 . S
C542 C537 1.383 . S
C542 C538 1.389 . S
C542 H559 0.931 . S
C543 O528 1.266 1_655 S
C543 O529 1.248 . S
C544 Tb480 2.802 . S
C544 O524 1.264 . S
C544 O527 1.256 . S
C544 C537 1.496 . S
C545 C512 1.448 . S
C545 H522 0.930 . S
C545 C546 1.328 . S
C546 C517 1.427 . S
C546 H523 0.929 . S
C546 C545 1.328 . S
C547 O531 1.264 . S
C547 O532 1.243 1_655 S
C548 C551 1.399 . S
C548 C552 1.383 . S
C548 C555 1.496 . S
C549 C550 1.399 . S
C549 C552 1.389 . S
C550 C549 1.399 . S
C550 C553 1.380 . S
C550 H560 0.929 . S
C551 C548 1.399 . S
C551 C553 1.392 . S
C551 H561 0.929 . S
C552 C548 1.383 . S
C552 C549 1.389 . S
C552 H562 0.931 . S
C553 C550 1.380 . S
C553 C551 1.392 . S
C553 H563 0.929 . S
C554 O534 1.266 . S
C554 O535 1.248 . S
C555 Tb491 2.802 . S
C555 O530 1.264 . S
C555 O533 1.256 . S
C555 C548 1.496 . S
H556 C539 0.929 . S
H557 C540 0.929 . S
H558 C541 0.929 . S
H559 C542 0.931 . S
H560 C550 0.929 . S
H561 C551 0.929 . S
H562 C552 0.931 . S
H563 C553 0.929 . S
Tb564 N593 2.617 . S
Tb564 N599 2.572 . S
Tb564 O608 2.465 . S
Tb564 O609 2.387 . S
Tb564 O611 2.428 . S
Tb564 O612 2.308 . S
Tb564 O616 2.349 . S
Tb564 O619 2.393 . S
Tb564 C628 2.802 . S
C565 N566 1.379 . S
C565 C568 1.416 . S
C565 C572 1.424 . S
N566 C565 1.379 . S
N566 C569 1.334 . S
N566 Tb575 2.617 . S
C567 C569 1.390 . S
C567 C570 1.339 . S
C567 H587 0.930 . S
C568 C565 1.416 . S
C568 C570 1.416 . S
C568 C574 1.448 . S
C569 N566 1.334 . S
C569 C567 1.390 . S
C569 H580 0.930 . S
C570 C567 1.339 . S
C570 C568 1.416 . S
C570 H591 0.930 . S
C571 C572 1.413 . S
C571 C573 1.427 . S
C571 C577 1.416 . S
C572 C565 1.424 . S
C572 C571 1.413 . S
C572 N576 1.361 . S
C573 C571 1.427 . S
C573 C574 1.328 . S
C573 H588 0.929 . S
C574 C568 1.448 . S
C574 C573 1.328 . S
C574 H589 0.930 . S
Tb575 N566 2.617 . S
Tb575 N576 2.572 . S
Tb575 O610 2.349 . S
Tb575 O613 2.393 . S
Tb575 O614 2.465 . S
Tb575 O615 2.387 . S
Tb575 O617 2.428 . S
Tb575 O618 2.308 . S
Tb575 C639 2.802 . S
N576 C572 1.361 . S
N576 Tb575 2.572 . S
N576 C578 1.340 . S
C577 C571 1.416 . S
C577 C579 1.332 . S
C577 H585 0.931 . S
C578 N576 1.340 . S
C578 C579 1.407 . S
C578 H584 0.930 . S
C579 C577 1.332 . S
C579 C578 1.407 . S
C579 H581 0.929 . S
H580 C569 0.930 . S
H581 C579 0.929 . S
H582 C597 0.930 . S
H583 C604 0.929 . S
H584 C578 0.930 . S
H585 C577 0.931 . S
H586 C600 0.930 . S
H587 C567 0.930 . S
H588 C573 0.929 . S
H589 C574 0.930 . S
H590 C595 0.930 . S
H591 C570 0.930 . S
H592 C603 0.931 . S
N593 Tb564 2.617 . S
N593 C594 1.379 . S
N593 C597 1.334 . S
C594 N593 1.379 . S
C594 C596 1.416 . S
C594 C602 1.424 . S
C595 H590 0.930 . S
C595 C597 1.390 . S
C595 C598 1.339 . S
C596 C594 1.416 . S
C596 C598 1.416 . S
C596 C629 1.448 . S
C597 H582 0.930 . S
C597 N593 1.334 . S
C597 C595 1.390 . S
C598 C595 1.339 . S
C598 C596 1.416 . S
C598 H605 0.930 . S
N599 Tb564 2.572 . S
N599 C600 1.340 . S
N599 C602 1.361 . S
C600 H586 0.930 . S
C600 N599 1.340 . S
C600 C604 1.407 . S
C601 C602 1.413 . S
C601 C603 1.416 . S
C601 C630 1.427 . S
C602 C594 1.424 . S
C602 N599 1.361 . S
C602 C601 1.413 . S
C603 H592 0.931 . S
C603 C601 1.416 . S
C603 C604 1.332 . S
C604 H583 0.929 . S
C604 C600 1.407 . S
C604 C603 1.332 . S
H605 C598 0.930 . S
H606 C629 0.930 . S
H607 C630 0.929 . S
O608 Tb564 2.465 . S
O608 C628 1.264 . S
O609 Tb564 2.387 . S
O609 C620 1.264 . S
O610 Tb575 2.349 . S
O610 C620 1.243 . S
O611 Tb564 2.428 . S
O611 C628 1.256 . S
O612 Tb564 2.308 . S
O612 C627 1.266 . S
O613 Tb575 2.393 . S
O613 C627 1.248 . S
O614 Tb575 2.465 . S
O614 C639 1.264 . S
O615 Tb575 2.387 . S
O615 C631 1.264 . S
O616 Tb564 2.349 . S
O616 C631 1.243 . S
O617 Tb575 2.428 . S
O617 C639 1.256 . S
O618 Tb575 2.308 . S
O618 C638 1.266 . S
O619 Tb564 2.393 . S
O619 C638 1.248 . S
C620 O609 1.264 . S
C620 O610 1.243 . S
C621 C624 1.399 . S
C621 C626 1.383 . S
C621 C628 1.496 . S
C622 C623 1.399 . S
C622 C626 1.389 . S
C623 C622 1.399 . S
C623 C625 1.380 . S
C623 H640 0.929 . S
C624 C621 1.399 . S
C624 C625 1.392 . S
C624 H641 0.929 . S
C625 C623 1.380 . S
C625 C624 1.392 . S
C625 H642 0.929 . S
C626 C621 1.383 . S
C626 C622 1.389 . S
C626 H643 0.931 . S
C627 O612 1.266 . S
C627 O613 1.248 . S
C628 Tb564 2.802 . S
C628 O608 1.264 . S
C628 O611 1.256 . S
C628 C621 1.496 . S
C629 C596 1.448 . S
C629 H606 0.930 . S
C629 C630 1.328 . S
C630 C601 1.427 . S
C630 H607 0.929 . S
C630 C629 1.328 . S
C631 O615 1.264 . S
C631 O616 1.243 . S
C632 C635 1.399 . S
C632 C636 1.383 . S
C632 C639 1.496 . S
C633 C634 1.399 . S
C633 C636 1.389 . S
C634 C633 1.399 . S
C634 C637 1.380 . S
C634 H644 0.929 . S
C635 C632 1.399 . S
C635 C637 1.392 . S
C635 H645 0.929 . S
C636 C632 1.383 . S
C636 C633 1.389 . S
C636 H646 0.931 . S
C637 C634 1.380 . S
C637 C635 1.392 . S
C637 H647 0.929 . S
C638 O618 1.266 . S
C638 O619 1.248 . S
C639 Tb575 2.802 . S
C639 O614 1.264 . S
C639 O617 1.256 . S
C639 C632 1.496 . S
H640 C623 0.929 . S
H641 C624 0.929 . S
H642 C625 0.929 . S
H643 C626 0.931 . S
H644 C634 0.929 . S
H645 C635 0.929 . S
H646 C636 0.931 . S
H647 C637 0.929 . S
H648 C660 0.930 . S
H649 C662 0.930 . S
H650 C663 0.930 . S
H651 C667 0.959 . S
H652 C667 0.959 . S
H653 C667 0.961 1_565 S
H654 C668 0.957 1_565 S
H655 C668 0.961 . S
H656 C668 0.960 . S
H657 C671 0.929 . S
H658 C672 0.931 . S
H659 C674 0.930 . S
C660 H648 0.930 . S
C660 C661 1.399 . S
C660 C665 1.399 1_565 S
C661 C660 1.399 . S
C661 C662 1.376 1_565 S
C662 H649 0.930 . S
C662 C661 1.376 1_545 S
C662 C663 1.388 . S
C663 H650 0.930 . S
C663 C662 1.388 . S
C663 C664 1.390 . S
C664 C663 1.390 . S
C664 C665 1.394 . S
C664 C670 1.465 . S
C665 C660 1.399 1_545 S
C665 C664 1.394 . S
C665 C666 1.516 . S
C666 C665 1.516 . S
C666 C667 1.502 . S
C666 C668 1.563 . S
C666 C669 1.526 . S
C667 H651 0.959 . S
C667 H652 0.959 . S
C667 H653 0.961 1_545 S
C667 C666 1.502 . S
C668 H654 0.957 1_545 S
C668 H655 0.961 . S
C668 H656 0.960 . S
C668 C666 1.563 . S
C669 C666 1.526 . S
C669 C670 1.396 . S
C669 C674 1.390 . S
C670 C664 1.465 . S
C670 C669 1.396 . S
C670 C671 1.399 . S
C671 H657 0.929 . S
C671 C670 1.399 . S
C671 C672 1.385 . S
C672 H658 0.931 . S
C672 C671 1.385 . S
C672 C673 1.389 . S
C673 C672 1.389 . S
C673 C674 1.387 . S
C674 H659 0.930 . S
C674 C669 1.390 . S
C674 C673 1.387 . S
H675 C687 0.930 . S
H676 C689 0.930 . S
H677 C690 0.930 . S
H678 C694 0.959 . S
H679 C694 0.959 . S
H680 C694 0.961 . S
H681 C695 0.960 . S
H682 C695 0.961 . S
H683 C695 0.959 . S
H684 C698 0.929 . S
H685 C699 0.931 . S
H686 C701 0.930 . S
C687 H675 0.930 . S
C687 C688 1.399 . S
C687 C692 1.399 . S
C688 C687 1.399 . S
C688 C689 1.376 . S
C689 H676 0.930 . S
C689 C688 1.376 . S
C689 C690 1.388 . S
C690 H677 0.930 . S
C690 C689 1.388 . S
C690 C691 1.390 . S
C691 C690 1.390 . S
C691 C692 1.394 . S
C691 C697 1.465 . S
C692 C687 1.399 . S
C692 C691 1.394 . S
C692 C693 1.516 . S
C693 C692 1.516 . S
C693 C694 1.502 . S
C693 C695 1.561 . S
C693 C696 1.526 . S
C694 H678 0.959 . S
C694 H679 0.959 . S
C694 H680 0.961 . S
C694 C693 1.502 . S
C695 H681 0.960 . S
C695 H682 0.961 . S
C695 H683 0.959 . S
C695 C693 1.561 . S
C696 C693 1.526 . S
C696 C697 1.396 . S
C696 C701 1.390 . S
C697 C691 1.465 . S
C697 C696 1.396 . S
C697 C698 1.399 . S
C698 H684 0.929 . S
C698 C697 1.399 . S
C698 C699 1.385 . S
C699 H685 0.931 . S
C699 C698 1.385 . S
C699 C700 1.389 . S
C700 C699 1.389 . S
C700 C701 1.387 . S
C701 H686 0.930 . S
C701 C696 1.390 . S
C701 C700 1.387 . S
H702 C714 0.930 . S
H703 C716 0.930 . S
H704 C717 0.930 . S
H705 C721 0.959 . S
H706 C721 0.959 . S
H707 C721 0.961 . S
H708 C722 0.960 . S
H709 C722 0.961 . S
H710 C722 0.959 . S
H711 C725 0.929 . S
H712 C726 0.931 . S
H713 C728 0.930 . S
C714 H702 0.930 . S
C714 C715 1.399 . S
C714 C719 1.399 . S
C715 C714 1.399 . S
C715 C716 1.376 . S
C716 H703 0.930 . S
C716 C715 1.376 . S
C716 C717 1.388 . S
C717 H704 0.930 . S
C717 C716 1.388 . S
C717 C718 1.390 . S
C718 C717 1.390 . S
C718 C719 1.394 . S
C718 C724 1.465 . S
C719 C714 1.399 . S
C719 C718 1.394 . S
C719 C720 1.516 . S
C720 C719 1.516 . S
C720 C721 1.502 . S
C720 C722 1.561 . S
C720 C723 1.526 . S
C721 H705 0.959 . S
C721 H706 0.959 . S
C721 H707 0.961 . S
C721 C720 1.502 . S
C722 H708 0.960 . S
C722 H709 0.961 . S
C722 H710 0.959 . S
C722 C720 1.561 . S
C723 C720 1.526 . S
C723 C724 1.396 . S
C723 C728 1.390 . S
C724 C718 1.465 . S
C724 C723 1.396 . S
C724 C725 1.399 . S
C725 H711 0.929 . S
C725 C724 1.399 . S
C725 C726 1.385 . S
C726 H712 0.931 . S
C726 C725 1.385 . S
C726 C727 1.389 . S
C727 C726 1.389 . S
C727 C728 1.387 . S
C728 H713 0.930 . S
C728 C723 1.390 . S
C728 C727 1.387 . S
H729 C741 0.930 . S
H730 C743 0.930 . S
H731 C744 0.930 . S
H732 C748 0.959 . S
H733 C748 0.959 . S
H734 C748 0.961 . S
H735 C749 0.960 . S
H736 C749 0.961 . S
H737 C749 0.959 . S
H738 C752 0.929 . S
H739 C753 0.931 . S
H740 C755 0.930 . S
C741 H729 0.930 . S
C741 C742 1.399 1_545 S
C741 C746 1.399 . S
C742 C741 1.399 1_565 S
C742 C743 1.376 . S
C743 H730 0.930 . S
C743 C742 1.376 . S
C743 C744 1.388 1_565 S
C744 H731 0.930 . S
C744 C743 1.388 1_545 S
C744 C745 1.390 . S
C745 C744 1.390 . S
C745 C746 1.394 . S
C745 C751 1.465 . S
C746 C741 1.399 . S
C746 C745 1.394 . S
C746 C747 1.516 . S
C747 C746 1.516 . S
C747 C748 1.502 . S
C747 C749 1.561 . S
C747 C750 1.526 . S
C748 H732 0.959 . S
C748 H733 0.959 . S
C748 H734 0.961 . S
C748 C747 1.502 . S
C749 H735 0.960 . S
C749 H736 0.961 . S
C749 H737 0.959 . S
C749 C747 1.561 . S
C750 C747 1.526 . S
C750 C751 1.396 . S
C750 C755 1.390 . S
C751 C745 1.465 . S
C751 C750 1.396 . S
C751 C752 1.399 . S
C752 H738 0.929 . S
C752 C751 1.399 . S
C752 C753 1.385 . S
C753 H739 0.931 . S
C753 C752 1.385 . S
C753 C754 1.389 . S
C754 C753 1.389 . S
C754 C755 1.387 . S
C755 H740 0.930 . S
C755 C750 1.390 . S
C755 C754 1.387 . S
H756 C768 0.930 . S
H757 C770 0.930 . S
H758 C771 0.930 . S
H759 C775 0.959 . S
H760 C775 0.959 . S
H761 C775 0.961 . S
H762 C776 0.960 . S
H763 C776 0.961 . S
H764 C776 0.959 . S
H765 C779 0.929 . S
H766 C780 0.931 . S
H767 C782 0.930 . S
C768 H756 0.930 . S
C768 C769 1.399 1_565 S
C768 C773 1.399 . S
C769 C768 1.399 1_545 S
C769 C770 1.376 . S
C770 H757 0.930 . S
C770 C769 1.376 . S
C770 C771 1.388 . S
C771 H758 0.930 . S
C771 C770 1.388 . S
C771 C772 1.390 1_545 S
C772 C771 1.390 1_565 S
C772 C773 1.394 . S
C772 C778 1.465 . S
C773 C768 1.399 . S
C773 C772 1.394 . S
C773 C774 1.516 . S
C774 C773 1.516 . S
C774 C775 1.502 . S
C774 C776 1.561 . S
C774 C777 1.526 . S
C775 H759 0.959 . S
C775 H760 0.959 . S
C775 H761 0.961 . S
C775 C774 1.502 . S
C776 H762 0.960 . S
C776 H763 0.961 . S
C776 H764 0.959 . S
C776 C774 1.561 . S
C777 C774 1.526 . S
C777 C778 1.396 . S
C777 C782 1.390 . S
C778 C772 1.465 . S
C778 C777 1.396 . S
C778 C779 1.399 . S
C779 H765 0.929 . S
C779 C778 1.399 . S
C779 C780 1.385 . S
C780 H766 0.931 . S
C780 C779 1.385 . S
C780 C781 1.389 . S
C781 C780 1.389 . S
C781 C782 1.387 . S
C782 H767 0.930 . S
C782 C777 1.390 . S
C782 C781 1.387 . S
H783 C795 0.930 . S
H784 C797 0.930 . S
H785 C798 0.930 . S
H786 C802 0.959 . S
H787 C802 0.959 . S
H788 C802 0.961 . S
H789 C803 0.960 . S
H790 C803 0.961 . S
H791 C803 0.959 . S
H792 C806 0.929 . S
H793 C807 0.931 . S
H794 C809 0.930 . S
C795 H783 0.930 . S
C795 C796 1.399 . S
C795 C800 1.399 . S
C796 C795 1.399 . S
C796 C797 1.376 . S
C797 H784 0.930 . S
C797 C796 1.376 . S
C797 C798 1.388 . S
C798 H785 0.930 . S
C798 C797 1.388 . S
C798 C799 1.390 . S
C799 C798 1.390 . S
C799 C800 1.394 . S
C799 C805 1.465 . S
C800 C795 1.399 . S
C800 C799 1.394 . S
C800 C801 1.516 . S
C801 C800 1.516 . S
C801 C802 1.502 . S
C801 C803 1.561 . S
C801 C804 1.526 . S
C802 H786 0.959 . S
C802 H787 0.959 . S
C802 H788 0.961 . S
C802 C801 1.502 . S
C803 H789 0.960 . S
C803 H790 0.961 . S
C803 H791 0.959 . S
C803 C801 1.561 . S
C804 C801 1.526 . S
C804 C805 1.396 . S
C804 C809 1.390 . S
C805 C799 1.465 . S
C805 C804 1.396 . S
C805 C806 1.399 . S
C806 H792 0.929 . S
C806 C805 1.399 . S
C806 C807 1.385 . S
C807 H793 0.931 . S
C807 C806 1.385 . S
C807 C808 1.389 . S
C808 C807 1.389 . S
C808 C809 1.387 . S
C809 H794 0.930 . S
C809 C804 1.390 . S
C809 C808 1.387 . S
H810 C822 0.930 . S
H811 C824 0.930 . S
H812 C825 0.930 . S
H813 C829 0.959 . S
H814 C829 0.959 . S
H815 C829 0.961 . S
H816 C830 0.960 . S
H817 C830 0.961 . S
H818 C830 0.959 . S
H819 C833 0.929 . S
H820 C834 0.931 . S
H821 C836 0.930 . S
C822 H810 0.930 . S
C822 C823 1.399 . S
C822 C827 1.399 . S
C823 C822 1.399 . S
C823 C824 1.376 . S
C824 H811 0.930 . S
C824 C823 1.376 . S
C824 C825 1.388 . S
C825 H812 0.930 . S
C825 C824 1.388 . S
C825 C826 1.390 . S
C826 C825 1.390 . S
C826 C827 1.394 . S
C826 C832 1.465 . S
C827 C822 1.399 . S
C827 C826 1.394 . S
C827 C828 1.516 . S
C828 C827 1.516 . S
C828 C829 1.502 . S
C828 C830 1.561 . S
C828 C831 1.526 . S
C829 H813 0.959 . S
C829 H814 0.959 . S
C829 H815 0.961 . S
C829 C828 1.502 . S
C830 H816 0.960 . S
C830 H817 0.961 . S
C830 H818 0.959 . S
C830 C828 1.561 . S
C831 C828 1.526 . S
C831 C832 1.396 . S
C831 C836 1.390 . S
C832 C826 1.465 . S
C832 C831 1.396 . S
C832 C833 1.399 . S
C833 H819 0.929 . S
C833 C832 1.399 . S
C833 C834 1.385 . S
C834 H820 0.931 . S
C834 C833 1.385 . S
C834 C835 1.389 . S
C835 C834 1.389 . S
C835 C836 1.387 . S
C836 H821 0.930 . S
C836 C831 1.390 . S
C836 C835 1.387 . S
H837 C849 0.944 . S
H838 C851 0.930 . S
H839 C852 0.930 . S
H840 C856 0.959 . S
H841 C856 0.959 . S
H842 C856 0.961 1_545 S
H843 C857 0.960 . S
H844 C857 0.961 . S
H845 C857 0.959 . S
H846 C860 0.929 . S
H847 C861 0.931 . S
H848 C863 0.930 . S
C849 H837 0.944 . S
C849 C850 1.405 . S
C849 C854 1.379 1_545 S
C850 C849 1.405 . S
C850 C851 1.376 1_545 S
C851 H838 0.930 . S
C851 C850 1.376 1_565 S
C851 C852 1.388 . S
C852 H839 0.930 . S
C852 C851 1.388 . S
C852 C853 1.390 . S
C853 C852 1.390 . S
C853 C854 1.394 . S
C853 C859 1.465 . S
C854 C849 1.379 1_565 S
C854 C853 1.394 . S
C854 C855 1.516 . S
C855 C854 1.516 . S
C855 C856 1.502 . S
C855 C857 1.561 . S
C855 C858 1.526 . S
C856 H840 0.959 . S
C856 H841 0.959 . S
C856 H842 0.961 1_565 S
C856 C855 1.502 . S
C857 H843 0.960 . S
C857 H844 0.961 . S
C857 H845 0.959 . S
C857 C855 1.561 . S
C858 C855 1.526 . S
C858 C859 1.396 . S
C858 C863 1.390 . S
C859 C853 1.465 . S
C859 C858 1.396 . S
C859 C860 1.399 . S
C860 H846 0.929 . S
C860 C859 1.399 . S
C860 C861 1.385 . S
C861 H847 0.931 . S
C861 C860 1.385 . S
C861 C862 1.389 . S
C862 C861 1.389 . S
C862 C863 1.387 . S
C863 H848 0.930 . S
C863 C858 1.390 . S
C863 C862 1.387 . S
H864 C876 0.930 . S
H865 C878 0.930 . S
H866 C879 0.930 . S
H867 C883 0.959 . S
H868 C883 0.959 . S
H869 C883 0.961 . S
H870 C884 0.960 . S
H871 C884 0.961 . S
H872 C884 0.959 . S
H873 C887 0.929 . S
H874 C888 0.931 . S
H875 C890 0.930 . S
C876 H864 0.930 . S
C876 C877 1.399 . S
C876 C881 1.399 . S
C877 C876 1.399 . S
C877 C878 1.376 . S
C878 H865 0.930 . S
C878 C877 1.376 . S
C878 C879 1.388 . S
C879 H866 0.930 . S
C879 C878 1.388 . S
C879 C880 1.390 . S
C880 C879 1.390 . S
C880 C881 1.394 . S
C880 C886 1.465 . S
C881 C876 1.399 . S
C881 C880 1.394 . S
C881 C882 1.516 . S
C882 C881 1.516 . S
C882 C883 1.502 . S
C882 C884 1.561 . S
C882 C885 1.526 . S
C883 H867 0.959 . S
C883 H868 0.959 . S
C883 H869 0.961 . S
C883 C882 1.502 . S
C884 H870 0.960 . S
C884 H871 0.961 . S
C884 H872 0.959 . S
C884 C882 1.561 . S
C885 C882 1.526 . S
C885 C886 1.396 . S
C885 C890 1.390 . S
C886 C880 1.465 . S
C886 C885 1.396 . S
C886 C887 1.399 . S
C887 H873 0.929 . S
C887 C886 1.399 . S
C887 C888 1.385 . S
C888 H874 0.931 . S
C888 C887 1.385 . S
C888 C889 1.389 . S
C889 C888 1.389 . S
C889 C890 1.387 . S
C890 H875 0.930 . S
C890 C885 1.390 . S
C890 C889 1.387 . S
H891 C903 0.930 . S
H892 C905 0.930 . S
H893 C906 0.930 . S
H894 C910 0.959 . S
H895 C910 0.959 . S
H896 C910 0.961 . S
H897 C911 0.960 . S
H898 C911 0.961 . S
H899 C911 0.959 . S
H900 C914 0.929 . S
H901 C915 0.931 . S
H902 C917 0.930 . S
C903 H891 0.930 . S
C903 C904 1.399 . S
C903 C908 1.399 . S
C904 C903 1.399 . S
C904 C905 1.376 . S
C905 H892 0.930 . S
C905 C904 1.376 . S
C905 C906 1.388 . S
C906 H893 0.930 . S
C906 C905 1.388 . S
C906 C907 1.390 . S
C907 C906 1.390 . S
C907 C908 1.394 . S
C907 C913 1.465 . S
C908 C903 1.399 . S
C908 C907 1.394 . S
C908 C909 1.516 . S
C909 C908 1.516 . S
C909 C910 1.502 . S
C909 C911 1.561 . S
C909 C912 1.526 . S
C910 H894 0.959 . S
C910 H895 0.959 . S
C910 H896 0.961 . S
C910 C909 1.502 . S
C911 H897 0.960 . S
C911 H898 0.961 . S
C911 H899 0.959 . S
C911 C909 1.561 . S
C912 C909 1.526 . S
C912 C913 1.396 . S
C912 C917 1.390 . S
C913 C907 1.465 . S
C913 C912 1.396 . S
C913 C914 1.399 . S
C914 H900 0.929 . S
C914 C913 1.399 . S
C914 C915 1.385 . S
C915 H901 0.931 . S
C915 C914 1.385 . S
C915 C916 1.389 . S
C916 C915 1.389 . S
C916 C917 1.387 . S
C917 H902 0.930 . S
C917 C912 1.390 . S
C917 C916 1.387 . S
H918 C930 0.930 . S
H919 C932 0.930 . S
H920 C933 0.930 . S
H921 C937 0.959 . S
H922 C937 0.959 . S
H923 C937 0.961 . S
H924 C938 0.960 . S
H925 C938 0.961 . S
H926 C938 0.959 . S
H927 C941 0.929 . S
H928 C942 0.931 . S
H929 C944 0.930 . S
C930 H918 0.930 . S
C930 C931 1.399 . S
C930 C935 1.399 . S
C931 C930 1.399 . S
C931 C932 1.376 . S
C932 H919 0.930 . S
C932 C931 1.376 . S
C932 C933 1.388 . S
C933 H920 0.930 . S
C933 C932 1.388 . S
C933 C934 1.390 . S
C934 C933 1.390 . S
C934 C935 1.394 . S
C934 C940 1.465 . S
C935 C930 1.399 . S
C935 C934 1.394 . S
C935 C936 1.516 . S
C936 C935 1.516 . S
C936 C937 1.502 . S
C936 C938 1.561 . S
C936 C939 1.526 . S
C937 H921 0.959 . S
C937 H922 0.959 . S
C937 H923 0.961 . S
C937 C936 1.502 . S
C938 H924 0.960 . S
C938 H925 0.961 . S
C938 H926 0.959 . S
C938 C936 1.561 . S
C939 C936 1.526 . S
C939 C940 1.396 . S
C939 C944 1.390 . S
C940 C934 1.465 . S
C940 C939 1.396 . S
C940 C941 1.399 . S
C941 H927 0.929 . S
C941 C940 1.399 . S
C941 C942 1.385 . S
C942 H928 0.931 . S
C942 C941 1.385 . S
C942 C943 1.389 . S
C943 C942 1.389 . S
C943 C944 1.387 . S
C944 H929 0.930 . S
C944 C939 1.390 . S
C944 C943 1.387 . S
H945 C957 0.930 . S
H946 C959 0.930 . S
H947 C960 0.930 . S
H948 C964 0.959 . S
H949 C964 0.959 . S
H950 C964 0.961 . S
H951 C965 0.960 . S
H952 C965 0.961 . S
H953 C965 0.959 . S
H954 C968 0.929 . S
H955 C969 0.931 . S
H956 C971 0.930 . S
C957 H945 0.930 . S
C957 C958 1.399 . S
C957 C962 1.399 . S
C958 C957 1.399 . S
C958 C959 1.376 . S
C959 H946 0.930 . S
C959 C958 1.376 . S
C959 C960 1.388 . S
C960 H947 0.930 . S
C960 C959 1.388 . S
C960 C961 1.390 . S
C961 C960 1.390 . S
C961 C962 1.394 . S
C961 C967 1.465 . S
C962 C957 1.399 . S
C962 C961 1.394 . S
C962 C963 1.516 . S
C963 C962 1.516 . S
C963 C964 1.502 . S
C963 C965 1.561 . S
C963 C966 1.526 . S
C964 H948 0.959 . S
C964 H949 0.959 . S
C964 H950 0.961 . S
C964 C963 1.502 . S
C965 H951 0.960 . S
C965 H952 0.961 . S
C965 H953 0.959 . S
C965 C963 1.561 . S
C966 C963 1.526 . S
C966 C967 1.396 . S
C966 C971 1.390 . S
C967 C961 1.465 . S
C967 C966 1.396 . S
C967 C968 1.399 . S
C968 H954 0.929 . S
C968 C967 1.399 . S
C968 C969 1.385 . S
C969 H955 0.931 . S
C969 C968 1.385 . S
C969 C970 1.389 . S
C970 C969 1.389 . S
C970 C971 1.387 . S
C971 H956 0.930 . S
C971 C966 1.390 . S
C971 C970 1.387 . S
H972 C984 0.930 . S
H973 C986 0.930 . S
H974 C987 0.930 . S
H975 C991 0.959 . S
H976 C991 0.959 . S
H977 C991 0.961 . S
H978 C992 0.960 . S
H979 C992 0.961 . S
H980 C992 0.959 . S
H981 C995 0.929 . S
H982 C996 0.931 . S
H983 C998 0.930 . S
C984 H972 0.930 . S
C984 C985 1.399 . S
C984 C989 1.399 . S
C985 C984 1.399 . S
C985 C986 1.376 . S
C986 H973 0.930 . S
C986 C985 1.376 . S
C986 C987 1.388 . S
C987 H974 0.930 . S
C987 C986 1.388 . S
C987 C988 1.390 . S
C988 C987 1.390 . S
C988 C989 1.394 . S
C988 C994 1.465 . S
C989 C984 1.399 . S
C989 C988 1.394 . S
C989 C990 1.516 . S
C990 C989 1.516 . S
C990 C991 1.502 . S
C990 C992 1.561 . S
C990 C993 1.526 . S
C991 H975 0.959 . S
C991 H976 0.959 . S
C991 H977 0.961 . S
C991 C990 1.502 . S
C992 H978 0.960 . S
C992 H979 0.961 . S
C992 H980 0.959 . S
C992 C990 1.561 . S
C993 C990 1.526 . S
C993 C994 1.396 . S
C993 C998 1.390 . S
C994 C988 1.465 . S
C994 C993 1.396 . S
C994 C995 1.399 . S
C995 H981 0.929 . S
C995 C994 1.399 . S
C995 C996 1.385 . S
C996 H982 0.931 . S
C996 C995 1.385 . S
C996 C997 1.389 . S
C997 C996 1.389 . S
C997 C998 1.387 . S
C998 H983 0.930 . S
C998 C993 1.390 . S
C998 C997 1.387 . S
H999 C1011 0.930 . S
H1000 C1013 0.930 . S
H1001 C1014 0.930 . S
H1002 C1018 0.959 . S
H1003 C1018 0.959 . S
H1004 C1018 0.961 . S
H1005 C1019 0.960 . S
H1006 C1019 0.961 . S
H1007 C1019 0.959 . S
H1008 C1022 0.929 . S
H1009 C1023 0.931 . S
H1010 C1025 0.930 . S
C1011 H999 0.930 . S
C1011 C1012 1.399 . S
C1011 C1016 1.399 . S
C1012 C1011 1.399 . S
C1012 C1013 1.376 . S
C1013 H1000 0.930 . S
C1013 C1012 1.376 . S
C1013 C1014 1.388 . S
C1014 H1001 0.930 . S
C1014 C1013 1.388 . S
C1014 C1015 1.390 . S
C1015 C1014 1.390 . S
C1015 C1016 1.394 . S
C1015 C1021 1.465 . S
C1016 C1011 1.399 . S
C1016 C1015 1.394 . S
C1016 C1017 1.516 . S
C1017 C1016 1.516 . S
C1017 C1018 1.502 . S
C1017 C1019 1.561 . S
C1017 C1020 1.526 . S
C1018 H1002 0.959 . S
C1018 H1003 0.959 . S
C1018 H1004 0.961 . S
C1018 C1017 1.502 . S
C1019 H1005 0.960 . S
C1019 H1006 0.961 . S
C1019 H1007 0.959 . S
C1019 C1017 1.561 . S
C1020 C1017 1.526 . S
C1020 C1021 1.396 . S
C1020 C1025 1.390 . S
C1021 C1015 1.465 . S
C1021 C1020 1.396 . S
C1021 C1022 1.399 . S
C1022 H1008 0.929 . S
C1022 C1021 1.399 . S
C1022 C1023 1.385 . S
C1023 H1009 0.931 . S
C1023 C1022 1.385 . S
C1023 C1024 1.389 . S
C1024 C1023 1.389 . S
C1024 C1025 1.387 . S
C1025 H1010 0.930 . S
C1025 C1020 1.390 . S
C1025 C1024 1.387 . S
H1026 C1038 0.930 . S
H1027 C1040 0.930 . S
H1028 C1041 0.930 . S
H1029 C1045 0.959 . S
H1030 C1045 0.959 . S
H1031 C1045 0.961 . S
H1032 C1046 0.960 . S
H1033 C1046 0.961 . S
H1034 C1046 0.959 . S
H1035 C1049 0.929 . S
H1036 C1050 0.931 . S
H1037 C1052 0.930 . S
C1038 H1026 0.930 . S
C1038 C1039 1.399 . S
C1038 C1043 1.399 . S
C1039 C1038 1.399 . S
C1039 C1040 1.376 . S
C1040 H1027 0.930 . S
C1040 C1039 1.376 . S
C1040 C1041 1.388 . S
C1041 H1028 0.930 . S
C1041 C1040 1.388 . S
C1041 C1042 1.390 . S
C1042 C1041 1.390 . S
C1042 C1043 1.394 . S
C1042 C1048 1.465 . S
C1043 C1038 1.399 . S
C1043 C1042 1.394 . S
C1043 C1044 1.516 . S
C1044 C1043 1.516 . S
C1044 C1045 1.502 . S
C1044 C1046 1.561 . S
C1044 C1047 1.526 . S
C1045 H1029 0.959 . S
C1045 H1030 0.959 . S
C1045 H1031 0.961 . S
C1045 C1044 1.502 . S
C1046 H1032 0.960 . S
C1046 H1033 0.961 . S
C1046 H1034 0.959 . S
C1046 C1044 1.561 . S
C1047 C1044 1.526 . S
C1047 C1048 1.396 . S
C1047 C1052 1.390 . S
C1048 C1042 1.465 . S
C1048 C1047 1.396 . S
C1048 C1049 1.399 . S
C1049 H1035 0.929 . S
C1049 C1048 1.399 . S
C1049 C1050 1.385 . S
C1050 H1036 0.931 . S
C1050 C1049 1.385 . S
C1050 C1051 1.389 . S
C1051 C1050 1.389 . S
C1051 C1052 1.387 . S
C1052 H1037 0.930 . S
C1052 C1047 1.390 . S
C1052 C1051 1.387 . S
H1053 C1065 0.930 . S
H1054 C1067 0.930 . S
H1055 C1068 0.930 . S
H1056 C1072 0.959 . S
H1057 C1072 0.959 . S
H1058 C1072 0.961 . S
H1059 C1073 0.960 . S
H1060 C1073 0.961 . S
H1061 C1073 0.959 . S
H1062 C1076 0.929 . S
H1063 C1077 0.931 . S
H1064 C1079 0.930 . S
C1065 H1053 0.930 . S
C1065 C1066 1.399 . S
C1065 C1070 1.399 . S
C1066 C1065 1.399 . S
C1066 C1067 1.376 . S
C1067 H1054 0.930 . S
C1067 C1066 1.376 . S
C1067 C1068 1.388 . S
C1068 H1055 0.930 . S
C1068 C1067 1.388 . S
C1068 C1069 1.390 . S
C1069 C1068 1.390 . S
C1069 C1070 1.394 . S
C1069 C1075 1.465 . S
C1070 C1065 1.399 . S
C1070 C1069 1.394 . S
C1070 C1071 1.516 . S
C1071 C1070 1.516 . S
C1071 C1072 1.502 . S
C1071 C1073 1.561 . S
C1071 C1074 1.526 . S
C1072 H1056 0.959 . S
C1072 H1057 0.959 . S
C1072 H1058 0.961 . S
C1072 C1071 1.502 . S
C1073 H1059 0.960 . S
C1073 H1060 0.961 . S
C1073 H1061 0.959 . S
C1073 C1071 1.561 . S
C1074 C1071 1.526 . S
C1074 C1075 1.396 . S
C1074 C1079 1.390 . S
C1075 C1069 1.465 . S
C1075 C1074 1.396 . S
C1075 C1076 1.399 . S
C1076 H1062 0.929 . S
C1076 C1075 1.399 . S
C1076 C1077 1.385 . S
C1077 H1063 0.931 . S
C1077 C1076 1.385 . S
C1077 C1078 1.389 . S
C1078 C1077 1.389 . S
C1078 C1079 1.387 . S
C1079 H1064 0.930 . S
C1079 C1074 1.390 . S
C1079 C1078 1.387 . S
H1080 C1092 0.930 . S
H1081 C1094 0.930 . S
H1082 C1095 0.930 . S
H1083 C1099 0.959 . S
H1084 C1099 0.959 . S
H1085 C1099 0.961 . S
H1086 C1100 0.960 . S
H1087 C1100 0.961 . S
H1088 C1100 0.959 . S
H1089 C1103 0.929 . S
H1090 C1104 0.931 . S
H1091 C1106 0.930 . S
C1092 H1080 0.930 . S
C1092 C1093 1.399 . S
C1092 C1097 1.399 . S
C1093 C1092 1.399 . S
C1093 C1094 1.376 . S
C1094 H1081 0.930 . S
C1094 C1093 1.376 . S
C1094 C1095 1.388 . S
C1095 H1082 0.930 . S
C1095 C1094 1.388 . S
C1095 C1096 1.390 . S
C1096 C1095 1.390 . S
C1096 C1097 1.394 . S
C1096 C1102 1.465 . S
C1097 C1092 1.399 . S
C1097 C1096 1.394 . S
C1097 C1098 1.516 . S
C1098 C1097 1.516 . S
C1098 C1099 1.502 . S
C1098 C1100 1.561 . S
C1098 C1101 1.526 . S
C1099 H1083 0.959 . S
C1099 H1084 0.959 . S
C1099 H1085 0.961 . S
C1099 C1098 1.502 . S
C1100 H1086 0.960 . S
C1100 H1087 0.961 . S
C1100 H1088 0.959 . S
C1100 C1098 1.561 . S
C1101 C1098 1.526 . S
C1101 C1102 1.396 . S
C1101 C1106 1.390 . S
C1102 C1096 1.465 . S
C1102 C1101 1.396 . S
C1102 C1103 1.399 . S
C1103 H1089 0.929 . S
C1103 C1102 1.399 . S
C1103 C1104 1.385 . S
C1104 H1090 0.931 . S
C1104 C1103 1.385 . S
C1104 C1105 1.389 . S
C1105 C1104 1.389 . S
C1105 C1106 1.387 . S
C1106 H1091 0.930 . S
C1106 C1101 1.390 . S
C1106 C1105 1.387 . S
H1107 C1119 0.930 . S
H1108 C1121 0.930 . S
H1109 C1122 0.930 . S
H1110 C1126 0.959 . S
H1111 C1126 0.959 . S
H1112 C1126 0.961 . S
H1113 C1127 0.960 . S
H1114 C1127 0.961 . S
H1115 C1127 0.959 . S
H1116 C1130 0.929 . S
H1117 C1131 0.931 . S
H1118 C1133 0.930 . S
C1119 H1107 0.930 . S
C1119 C1120 1.399 . S
C1119 C1124 1.399 . S
C1120 C1119 1.399 . S
C1120 C1121 1.376 . S
C1121 H1108 0.930 . S
C1121 C1120 1.376 . S
C1121 C1122 1.388 . S
C1122 H1109 0.930 . S
C1122 C1121 1.388 . S
C1122 C1123 1.390 . S
C1123 C1122 1.390 . S
C1123 C1124 1.394 . S
C1123 C1129 1.465 . S
C1124 C1119 1.399 . S
C1124 C1123 1.394 . S
C1124 C1125 1.516 . S
C1125 C1124 1.516 . S
C1125 C1126 1.502 . S
C1125 C1127 1.561 . S
C1125 C1128 1.526 . S
C1126 H1110 0.959 . S
C1126 H1111 0.959 . S
C1126 H1112 0.961 . S
C1126 C1125 1.502 . S
C1127 H1113 0.960 . S
C1127 H1114 0.961 . S
C1127 H1115 0.959 . S
C1127 C1125 1.561 . S
C1128 C1125 1.526 . S
C1128 C1129 1.396 . S
C1128 C1133 1.390 . S
C1129 C1123 1.465 . S
C1129 C1128 1.396 . S
C1129 C1130 1.399 . S
C1130 H1116 0.929 . S
C1130 C1129 1.399 . S
C1130 C1131 1.385 . S
C1131 H1117 0.931 . S
C1131 C1130 1.385 . S
C1131 C1132 1.389 . S
C1132 C1131 1.389 . S
C1132 C1133 1.387 . S
C1133 H1118 0.930 . S
C1133 C1128 1.390 . S
C1133 C1132 1.387 . S
H1134 C1146 0.930 . S
H1135 C1148 0.930 . S
H1136 C1149 0.930 . S
H1137 C1153 0.959 . S
H1138 C1153 0.959 . S
H1139 C1153 0.961 . S
H1140 C1154 0.960 . S
H1141 C1154 0.961 . S
H1142 C1154 0.959 . S
H1143 C1157 0.929 . S
H1144 C1158 0.931 . S
H1145 C1160 0.930 . S
C1146 H1134 0.930 . S
C1146 C1147 1.399 . S
C1146 C1151 1.399 . S
C1147 C1146 1.399 . S
C1147 C1148 1.376 . S
C1148 H1135 0.930 . S
C1148 C1147 1.376 . S
C1148 C1149 1.388 . S
C1149 H1136 0.930 . S
C1149 C1148 1.388 . S
C1149 C1150 1.390 . S
C1150 C1149 1.390 . S
C1150 C1151 1.394 . S
C1150 C1156 1.465 . S
C1151 C1146 1.399 . S
C1151 C1150 1.394 . S
C1151 C1152 1.516 . S
C1152 C1151 1.516 . S
C1152 C1153 1.502 . S
C1152 C1154 1.561 . S
C1152 C1155 1.526 . S
C1153 H1137 0.959 . S
C1153 H1138 0.959 . S
C1153 H1139 0.961 . S
C1153 C1152 1.502 . S
C1154 H1140 0.960 . S
C1154 H1141 0.961 . S
C1154 H1142 0.959 . S
C1154 C1152 1.561 . S
C1155 C1152 1.526 . S
C1155 C1156 1.396 . S
C1155 C1160 1.390 . S
C1156 C1150 1.465 . S
C1156 C1155 1.396 . S
C1156 C1157 1.399 . S
C1157 H1143 0.929 . S
C1157 C1156 1.399 . S
C1157 C1158 1.385 . S
C1158 H1144 0.931 . S
C1158 C1157 1.385 . S
C1158 C1159 1.389 . S
C1159 C1158 1.389 . S
C1159 C1160 1.387 . S
C1160 H1145 0.930 . S
C1160 C1155 1.390 . S
C1160 C1159 1.387 . S
H1161 C1173 0.930 . S
H1162 C1175 0.930 . S
H1163 C1176 0.930 . S
H1164 C1180 0.959 . S
H1165 C1180 0.959 . S
H1166 C1180 0.961 . S
H1167 C1181 0.960 . S
H1168 C1181 0.961 1_455 S
H1169 C1181 0.959 . S
H1170 C1184 0.929 . S
H1171 C1185 0.931 . S
H1172 C1187 0.930 . S
C1173 H1161 0.930 . S
C1173 C1174 1.399 . S
C1173 C1178 1.399 . S
C1174 C1173 1.399 . S
C1174 C1175 1.376 . S
C1175 H1162 0.930 . S
C1175 C1174 1.376 . S
C1175 C1176 1.388 . S
C1176 H1163 0.930 . S
C1176 C1175 1.388 . S
C1176 C1177 1.390 . S
C1177 C1176 1.390 . S
C1177 C1178 1.394 . S
C1177 C1183 1.465 . S
C1178 C1173 1.399 . S
C1178 C1177 1.394 . S
C1178 C1179 1.516 . S
C1179 C1178 1.516 . S
C1179 C1180 1.502 . S
C1179 C1181 1.561 . S
C1179 C1182 1.526 . S
C1180 H1164 0.959 . S
C1180 H1165 0.959 . S
C1180 H1166 0.961 . S
C1180 C1179 1.502 . S
C1181 H1167 0.960 . S
C1181 H1168 0.961 1_655 S
C1181 H1169 0.959 . S
C1181 C1179 1.561 . S
C1182 C1179 1.526 . S
C1182 C1183 1.396 . S
C1182 C1187 1.390 . S
C1183 C1177 1.465 . S
C1183 C1182 1.396 . S
C1183 C1184 1.399 . S
C1184 H1170 0.929 . S
C1184 C1183 1.399 . S
C1184 C1185 1.385 . S
C1185 H1171 0.931 . S
C1185 C1184 1.385 . S
C1185 C1186 1.389 . S
C1186 C1185 1.389 . S
C1186 C1187 1.387 . S
C1187 H1172 0.930 . S
C1187 C1182 1.390 . S
C1187 C1186 1.387 . S
H1188 C1200 0.930 . S
H1189 C1202 0.930 . S
H1190 C1203 0.930 . S
H1191 C1207 0.959 . S
H1192 C1207 0.959 1_455 S
H1193 C1207 0.961 . S
H1194 C1208 0.960 . S
H1195 C1208 0.961 . S
H1196 C1208 0.959 . S
H1197 C1211 0.929 . S
H1198 C1212 0.931 . S
H1199 C1214 0.930 . S
C1200 H1188 0.930 . S
C1200 C1201 1.399 . S
C1200 C1205 1.399 . S
C1201 C1200 1.399 . S
C1201 C1202 1.376 . S
C1202 H1189 0.930 . S
C1202 C1201 1.376 . S
C1202 C1203 1.388 . S
C1203 H1190 0.930 . S
C1203 C1202 1.388 . S
C1203 C1204 1.390 . S
C1204 C1203 1.390 . S
C1204 C1205 1.394 . S
C1204 C1210 1.465 . S
C1205 C1200 1.399 . S
C1205 C1204 1.394 . S
C1205 C1206 1.516 . S
C1206 C1205 1.516 . S
C1206 C1207 1.502 . S
C1206 C1208 1.561 . S
C1206 C1209 1.526 . S
C1207 H1191 0.959 . S
C1207 H1192 0.959 1_655 S
C1207 H1193 0.961 . S
C1207 C1206 1.502 . S
C1208 H1194 0.960 . S
C1208 H1195 0.961 . S
C1208 H1196 0.959 . S
C1208 C1206 1.561 . S
C1209 C1206 1.526 . S
C1209 C1210 1.396 . S
C1209 C1214 1.390 . S
C1210 C1204 1.465 . S
C1210 C1209 1.396 . S
C1210 C1211 1.399 . S
C1211 H1197 0.929 . S
C1211 C1210 1.399 . S
C1211 C1212 1.385 . S
C1212 H1198 0.931 . S
C1212 C1211 1.385 . S
C1212 C1213 1.389 . S
C1213 C1212 1.389 . S
C1213 C1214 1.387 . S
C1214 H1199 0.930 . S
C1214 C1209 1.390 . S
C1214 C1213 1.387 . S
H1215 C1227 0.930 . S
H1216 C1229 0.930 . S
H1217 C1230 0.930 . S
H1218 C1234 0.959 . S
H1219 C1234 0.959 . S
H1220 C1234 0.961 . S
H1221 C1235 0.960 . S
H1222 C1235 0.961 . S
H1223 C1235 0.959 . S
H1224 C1238 0.929 . S
H1225 C1239 0.931 . S
H1226 C1241 0.930 . S
C1227 H1215 0.930 . S
C1227 C1228 1.399 . S
C1227 C1232 1.399 . S
C1228 C1227 1.399 . S
C1228 C1229 1.376 . S
C1229 H1216 0.930 . S
C1229 C1228 1.376 . S
C1229 C1230 1.388 . S
C1230 H1217 0.930 . S
C1230 C1229 1.388 . S
C1230 C1231 1.390 . S
C1231 C1230 1.390 . S
C1231 C1232 1.394 . S
C1231 C1237 1.465 . S
C1232 C1227 1.399 . S
C1232 C1231 1.394 . S
C1232 C1233 1.516 . S
C1233 C1232 1.516 . S
C1233 C1234 1.502 . S
C1233 C1235 1.561 . S
C1233 C1236 1.526 . S
C1234 H1218 0.959 . S
C1234 H1219 0.959 . S
C1234 H1220 0.961 . S
C1234 C1233 1.502 . S
C1235 H1221 0.960 . S
C1235 H1222 0.961 . S
C1235 H1223 0.959 . S
C1235 C1233 1.561 . S
C1236 C1233 1.526 . S
C1236 C1237 1.396 . S
C1236 C1241 1.390 . S
C1237 C1231 1.465 . S
C1237 C1236 1.396 . S
C1237 C1238 1.399 . S
C1238 H1224 0.929 . S
C1238 C1237 1.399 . S
C1238 C1239 1.385 . S
C1239 H1225 0.931 . S
C1239 C1238 1.385 . S
C1239 C1240 1.389 . S
C1240 C1239 1.389 . S
C1240 C1241 1.387 . S
C1241 H1226 0.930 . S
C1241 C1236 1.390 . S
C1241 C1240 1.387 . S
H1242 C1254 0.930 . S
H1243 C1256 0.930 . S
H1244 C1257 0.930 . S
H1245 C1261 0.959 . S
H1246 C1261 0.959 . S
H1247 C1261 0.961 . S
H1248 C1262 0.960 . S
H1249 C1262 0.961 . S
H1250 C1262 0.959 . S
H1251 C1265 0.929 . S
H1252 C1266 0.931 . S
H1253 C1268 0.930 . S
C1254 H1242 0.930 . S
C1254 C1255 1.399 . S
C1254 C1259 1.399 . S
C1255 C1254 1.399 . S
C1255 C1256 1.376 . S
C1256 H1243 0.930 . S
C1256 C1255 1.376 . S
C1256 C1257 1.388 . S
C1257 H1244 0.930 . S
C1257 C1256 1.388 . S
C1257 C1258 1.390 . S
C1258 C1257 1.390 . S
C1258 C1259 1.394 . S
C1258 C1264 1.465 . S
C1259 C1254 1.399 . S
C1259 C1258 1.394 . S
C1259 C1260 1.516 . S
C1260 C1259 1.516 . S
C1260 C1261 1.502 . S
C1260 C1262 1.561 . S
C1260 C1263 1.526 . S
C1261 H1245 0.959 . S
C1261 H1246 0.959 . S
C1261 H1247 0.961 . S
C1261 C1260 1.502 . S
C1262 H1248 0.960 . S
C1262 H1249 0.961 . S
C1262 H1250 0.959 . S
C1262 C1260 1.561 . S
C1263 C1260 1.526 . S
C1263 C1264 1.396 . S
C1263 C1268 1.390 . S
C1264 C1258 1.465 . S
C1264 C1263 1.396 . S
C1264 C1265 1.399 . S
C1265 H1251 0.929 . S
C1265 C1264 1.399 . S
C1265 C1266 1.385 . S
C1266 H1252 0.931 . S
C1266 C1265 1.385 . S
C1266 C1267 1.389 . S
C1267 C1266 1.389 . S
C1267 C1268 1.387 . S
C1268 H1253 0.930 . S
C1268 C1263 1.390 . S
C1268 C1267 1.387 . S
H1269 C1281 0.930 . S
H1270 C1283 0.930 . S
H1271 C1284 0.930 . S
H1272 C1288 0.959 . S
H1273 C1288 0.959 . S
H1274 C1288 0.961 . S
H1275 C1289 0.960 . S
H1276 C1289 0.961 1_655 S
H1277 C1289 0.959 . S
H1278 C1292 0.929 . S
H1279 C1293 0.931 . S
H1280 C1295 0.930 . S
C1281 H1269 0.930 . S
C1281 C1282 1.399 . S
C1281 C1286 1.399 . S
C1282 C1281 1.399 . S
C1282 C1283 1.376 . S
C1283 H1270 0.930 . S
C1283 C1282 1.376 . S
C1283 C1284 1.388 . S
C1284 H1271 0.930 . S
C1284 C1283 1.388 . S
C1284 C1285 1.390 . S
C1285 C1284 1.390 . S
C1285 C1286 1.394 . S
C1285 C1291 1.465 . S
C1286 C1281 1.399 . S
C1286 C1285 1.394 . S
C1286 C1287 1.516 . S
C1287 C1286 1.516 . S
C1287 C1288 1.502 . S
C1287 C1289 1.561 . S
C1287 C1290 1.526 . S
C1288 H1272 0.959 . S
C1288 H1273 0.959 . S
C1288 H1274 0.961 . S
C1288 C1287 1.502 . S
C1289 H1275 0.960 . S
C1289 H1276 0.961 1_455 S
C1289 H1277 0.959 . S
C1289 C1287 1.561 . S
C1290 C1287 1.526 . S
C1290 C1291 1.396 . S
C1290 C1295 1.390 . S
C1291 C1285 1.465 . S
C1291 C1290 1.396 . S
C1291 C1292 1.399 . S
C1292 H1278 0.929 . S
C1292 C1291 1.399 . S
C1292 C1293 1.385 . S
C1293 H1279 0.931 . S
C1293 C1292 1.385 . S
C1293 C1294 1.389 . S
C1294 C1293 1.389 . S
C1294 C1295 1.387 . S
C1295 H1280 0.930 . S
C1295 C1290 1.390 . S
C1295 C1294 1.387 . S
C661 C235 1.480 . S
C673 C386 1.481 . S
C700 C470 1.478 . S
C688 C289 1.478 . S
C727 C463 1.469 . S
C715 C157 1.470 . S
C742 C211 1.466 . S
C754 C379 1.469 . S
C781 C543 1.442 . S
C769 C79 1.465 . S
C808 C627 1.441 . S
C796 C118 1.467 . S
C823 C1 1.459 . S
C835 C620 1.475 . S
C850 C40 1.478 . S
C862 C536 1.462 . S
C889 C370 1.355 . S
C877 C55 1.513 1_554 S
C916 C454 1.317 . S
C904 C16 1.502 . S
C943 C465 1.396 . S
C931 C133 1.535 1_556 S
C970 C381 1.354 . S
C958 C94 1.531 . S
C997 C549 1.325 . S
C985 C196 1.515 1_556 S
C1012 C172 1.523 . S
C1024 C633 1.271 . S
C1051 C622 1.414 . S
C1039 C274 1.542 1_554 S
C1066 C250 1.525 . S
C1078 C538 1.401 . S
C1105 C368 1.561 . S
C1093 C21 1.577 . S
C1132 C452 1.568 . S
C1120 C60 1.586 . S
C1147 C99 1.564 . S
C1159 C459 1.568 . S
C1186 C375 1.540 . S
C1174 C138 1.550 . S
C1213 C547 1.585 . S
C1201 C177 1.555 . S
C1228 C216 1.572 . S
C1240 C631 1.581 . S
C1255 C255 1.546 . S
C1267 C638 1.538 . S
C1282 C294 1.569 . S
C1294 C554 1.569 . S
