# Generated by pormake.
# Topology anh, (6,3)-cn, num edge types: 1
# Building blocks:
#     Node 0, Type 0, BuildingBlock: BETDAH_clean_sbu_0, # of connection points: 6
#     Node 1, Type 0, BuildingBlock: BETDAH_clean_sbu_0, # of connection points: 6
#     Node 2, Type 0, BuildingBlock: BETDAH_clean_sbu_0, # of connection points: 6
#     Node 3, Type 1, BuildingBlock: VETTIZ_charged_linker_0, # of connection points: 3
#     Node 4, Type 1, BuildingBlock: VETTIZ_charged_linker_0, # of connection points: 3
#     Node 5, Type 1, BuildingBlock: VETTIZ_charged_linker_0, # of connection points: 3
#     Node 6, Type 1, BuildingBlock: VETTIZ_charged_linker_0, # of connection points: 3
#     Node 7, Type 1, BuildingBlock: VETTIZ_charged_linker_0, # of connection points: 3
#     Node 8, Type 1, BuildingBlock: VETTIZ_charged_linker_0, # of connection points: 3
#     Edge 9, Type (0, 1), None
#     Edge 10, Type (0, 1), None
#     Edge 11, Type (0, 1), None
#     Edge 12, Type (0, 1), None
#     Edge 13, Type (0, 1), None
#     Edge 14, Type (0, 1), None
#     Edge 15, Type (0, 1), None
#     Edge 16, Type (0, 1), None
#     Edge 17, Type (0, 1), None
#     Edge 18, Type (0, 1), None
#     Edge 19, Type (0, 1), None
#     Edge 20, Type (0, 1), None
#     Edge 21, Type (0, 1), None
#     Edge 22, Type (0, 1), None
#     Edge 23, Type (0, 1), None
#     Edge 24, Type (0, 1), None
#     Edge 25, Type (0, 1), None
#     Edge 26, Type (0, 1), None
# Relax obj value: 0.293
# Max RMSD: 0.266
# Mean RMSD: 0.186
data_MOF--net-anh--node1-BETDAH_clean_sbu_0--node2-VETTIZ_charged_linker_0--edge1-none
_symmetry_space_group_name_H-M    P1
_symmetry_Int_Tables_number       1
_symmetry_cell_setting            triclinic
loop_
_symmetry_equiv_pos_as_xyz
'x, y, z'
_cell_length_a     20.421412
_cell_length_b     26.302782
_cell_length_c     37.702599
_cell_angle_alpha  91.890673
_cell_angle_beta   89.420264
_cell_angle_gamma 134.55873
loop_
_atom_site_label
_atom_site_type_symbol
_atom_site_fract_x
_atom_site_fract_y
_atom_site_fract_z
_atom_type_partial_charge
Ho0 Ho 0.28849 0.61678 0.1442 0.0
Ho1 Ho 0.16417 0.63107 0.14126 0.0
C2 C 0.38034 0.77939 0.14209 0.0
C3 C 0.39545 0.59741 0.14267 0.0
C4 C 0.36764 0.53118 0.15286 0.0
C5 C 0.42233 0.51876 0.14467 0.0
C6 C 0.38346 0.44901 0.14411 0.0
C7 C 0.2886 0.39116 0.14983 0.0
C8 C 0.23718 0.40457 0.16226 0.0
C9 C 0.27753 0.47464 0.16467 0.0
C10 C 0.22606 0.61432 0.20861 0.0
C11 C 1.07601 0.47211 0.14915 0.0
C12 C 1.04124 0.6322 0.14524 0.0
C13 C 0.94579 0.56731 0.13411 0.0
C14 C 0.89047 0.50825 0.15627 0.0
C15 C 0.81306 0.44034 0.14258 0.0
C16 C 0.78888 0.43002 0.10654 0.0
C17 C 0.84125 0.48954 0.08485 0.0
C18 C 0.9185 0.55735 0.09848 0.0
C19 C 0.17546 0.58464 0.07771 0.0
O20 O 0.39608 0.73822 0.14128 0.0
O21 O 0.29482 0.7502 0.14308 0.0
O22 O 0.35239 0.58997 0.11437 0.0
O23 O 0.3984 0.63345 0.16838 0.0
O24 O 0.22939 0.56944 0.19751 0.0
O25 O 0.25386 0.6575 0.18486 0.0
O26 O 1.07088 0.51726 0.16066 0.0
O27 O 0.15386 0.49951 0.13471 0.0
O28 O 1.10145 0.66418 0.11972 0.0
O29 O 1.07135 0.62556 0.17346 0.0
O30 O 1.10081 0.55771 0.09313 0.0
O31 O 0.24242 0.63467 0.09765 0.0
H32 H 0.49206 0.56157 0.13577 0.0
H33 H 0.42414 0.4394 0.13422 0.0
H34 H 0.16413 0.36095 0.16663 0.0
H35 H 0.23525 0.48346 0.17242 0.0
H36 H 0.90939 0.51362 0.18386 0.0
H37 H 0.77267 0.39576 0.16009 0.0
H38 H 0.82199 0.48394 0.05727 0.0
H39 H 0.95939 0.60137 0.08063 0.0
Ho40 Ho 0.80844 0.1206 0.48002 0.0
Ho41 Ho 0.67798 0.13492 0.46742 0.0
C42 C 0.58766 0.97582 0.47106 0.0
C43 C 0.89372 0.08772 0.50251 0.0
C44 C 0.8656 1.02296 0.51587 0.0
C45 C 0.78615 0.97526 0.53609 0.0
C46 C 0.76044 0.91414 0.54868 0.0
C47 C 0.81277 0.89895 0.54074 0.0
C48 C 0.89089 0.94571 0.5197 0.0
C49 C 0.91739 1.00754 0.50753 0.0
C50 C 0.7819 0.12838 0.41115 0.0
C51 C 0.90155 0.28075 0.47144 0.0
C52 C 0.59439 0.1682 0.44315 0.0
C53 C 0.60305 0.22854 0.44858 0.0
C54 C 0.68915 0.29989 0.44899 0.0
C55 C 0.69641 0.3555 0.45894 0.0
C56 C 0.61797 0.3404 0.46895 0.0
C57 C 0.53156 0.2695 0.46655 0.0
C58 C 0.52417 0.21414 0.4563 0.0
C59 C 0.69969 0.12395 0.53622 0.0
O60 O 0.66643 1.00519 0.4866 0.0
O61 O 0.58142 1.017 0.45587 0.0
O62 O 0.8747 0.08436 0.46906 0.0
O63 O 0.87615 0.11831 0.52269 0.0
O64 O 0.86125 0.16014 0.42487 0.0
O65 O 0.72076 0.09296 0.43425 0.0
O66 O 0.81674 0.24973 0.4637 0.0
O67 O 0.9173 0.2421 0.48124 0.0
O68 O 0.56648 0.12845 0.47057 0.0
O69 O 0.66099 0.18091 0.42654 0.0
O70 O 0.62433 0.10024 0.52249 0.0
O71 O 0.76297 0.15982 0.51389 0.0
H72 H 0.74384 0.98507 0.54213 0.0
H73 H 0.69918 0.87839 0.56445 0.0
H74 H 0.93244 0.93523 0.51334 0.0
H75 H 0.9784 0.04342 0.49164 0.0
H76 H 0.75122 0.31253 0.44318 0.0
H77 H 0.76387 0.40963 0.46109 0.0
H78 H 0.4702 0.25663 0.47432 0.0
H79 H 0.45718 0.15962 0.45604 0.0
Ho80 Ho 0.68143 0.58497 0.8269 0.0
Ho81 Ho 0.54994 0.42571 0.83046 0.0
C82 C 0.45852 0.49551 0.8344 0.0
C83 C 0.79687 0.71613 0.80732 0.0
C84 C 0.79174 0.76751 0.79818 0.0
C85 C 0.85674 0.82233 0.77522 0.0
C86 C 0.8484 0.86731 0.76307 0.0
C87 C 0.77459 0.85845 0.77355 0.0
C88 C 0.71076 0.80458 0.79741 0.0
C89 C 0.71893 0.75921 0.80944 0.0
C90 C 0.62451 0.53059 0.89168 0.0
C91 C 0.77544 0.51636 0.82865 0.0
C92 C 0.46503 0.29568 0.84345 0.0
C93 C 0.49432 0.25829 0.84729 0.0
C94 C 0.58654 0.29637 0.85495 0.0
C95 C 0.61921 0.26465 0.84832 0.0
C96 C 0.55974 0.19417 0.8345 0.0
C97 C 0.46607 0.15436 0.82984 0.0
C98 C 0.43364 0.1862 0.83618 0.0
C99 C 0.55593 0.47258 0.76703 0.0
O100 O 0.54076 0.55419 0.8218 0.0
O101 O 0.45199 0.44293 0.84469 0.0
O102 O 0.78516 0.69856 0.84052 0.0
O103 O 0.75327 0.66109 0.78526 0.0
O104 O 0.63025 0.58035 0.8816 0.0
O105 O 0.6489 0.5139 0.86726 0.0
O106 O 0.68751 0.45307 0.82468 0.0
O107 O 0.78945 0.57509 0.83202 0.0
O108 O 0.47607 0.31862 0.81164 0.0
O109 O 0.48965 0.34254 0.86838 0.0
O110 O 0.48183 0.41436 0.78043 0.0
O111 O 0.62369 0.50008 0.78696 0.0
H112 H 0.91302 0.82936 0.76598 0.0
H113 H 0.89945 0.90869 0.74509 0.0
H114 H 0.65263 0.79579 0.80574 0.0
H115 H 0.6672 0.71658 0.8268 0.0
H116 H 0.63461 0.35192 0.86375 0.0
H117 H 0.69204 0.29673 0.85148 0.0
H118 H 0.41945 0.10042 0.81853 0.0
H119 H 0.36255 0.15605 0.82976 0.0
C120 C 0.93413 0.33267 0.1473 0.0
C121 C 1.0131 0.39873 0.16456 0.0
C122 C 1.03453 0.39605 0.19921 0.0
C123 C 0.89732 0.26918 0.20161 0.0
C124 C 0.87753 0.26767 0.16643 0.0
C125 C 0.79358 0.18998 0.15387 0.0
H126 H 0.44202 0.83708 0.20753 0.0
C127 C 0.82434 0.197 0.21601 0.0
C128 C 0.76205 0.14823 0.18833 0.0
H129 H 0.49525 0.90005 0.09899 0.0
H130 H 0.62279 1.02645 0.1188 0.0
H131 H 0.64671 0.93327 0.2333 0.0
H132 H 0.46021 0.95786 0.23643 0.0
H133 H 0.53085 1.00587 0.27425 0.0
H134 H 0.45977 0.91078 0.26984 0.0
H135 H 0.54521 0.88132 0.2597 0.0
H136 H 0.65334 0.96455 0.27635 0.0
C137 C 0.82611 0.16724 0.12647 0.0
C138 C 0.71884 0.18396 0.13851 0.0
C139 C 0.82815 0.17339 0.34952 0.0
C140 C 0.76258 0.11899 0.37263 0.0
C141 C 0.67834 0.05465 0.35854 0.0
C142 C 0.66059 0.04389 0.32186 0.0
C143 C 0.72694 0.09872 0.29886 0.0
C144 C 0.8077 0.16282 0.313 0.0
C145 C 0.86524 0.21778 0.28524 0.0
C146 C 0.80753 0.17507 0.25169 0.0
C147 C 0.72802 0.10504 0.25981 0.0
C148 C 0.9594 0.24126 0.28439 0.0
C149 C 0.8708 0.2786 0.29482 0.0
C150 C 0.48109 0.87759 0.1878 0.0
C151 C 0.45862 0.85785 0.1518 0.0
C152 C 0.51132 0.91326 0.12707 0.0
C153 C 0.58567 0.98643 0.13852 0.0
C154 C 0.60832 1.00473 0.17508 0.0
C155 C 0.55452 0.94957 0.19868 0.0
C156 C 0.58359 0.97515 0.23645 0.0
C157 C 0.66749 0.05406 0.23227 0.0
C158 C 0.68325 0.07375 0.19633 0.0
C159 C 0.60819 0.93662 0.25261 0.0
C160 C 0.50476 0.9615 0.25548 0.0
H161 H 1.00003 0.33675 0.24403 0.0
H162 H 0.91708 0.33179 0.12006 0.0
H163 H 0.70025 0.20418 0.15833 0.0
H164 H 0.65571 0.12782 0.13133 0.0
H165 H 0.74339 0.21578 0.11434 0.0
H166 H 0.8848 0.17727 0.13746 0.0
H167 H 0.84917 0.19801 0.10198 0.0
H168 H 0.77141 0.10988 0.11906 0.0
H169 H 0.89331 0.22362 0.35959 0.0
H170 H 0.62698 1.01189 0.37586 0.0
H171 H 0.59609 0.99291 0.3129 0.0
H172 H 0.95433 0.19932 0.29447 0.0
H173 H 1.01195 0.2906 0.30101 0.0
H174 H 0.9853 0.24983 0.25708 0.0
H175 H 0.80342 0.25641 0.30433 0.0
H176 H 0.88668 0.311 0.27221 0.0
H177 H 0.92241 0.31439 0.3164 0.0
H178 H 1.09581 0.44362 0.21256 0.0
C179 C 0.97814 0.33289 0.21759 0.0
C180 C 0.77943 0.7871 0.53356 0.0
C181 C 0.78679 0.83546 0.55541 0.0
C182 C 0.76705 0.82222 0.59172 0.0
C183 C 0.72894 0.71229 0.58385 0.0
C184 C 0.74946 0.72544 0.54827 0.0
C185 C 0.73324 0.6661 0.52893 0.0
H186 H 0.56212 0.33242 0.53483 0.0
C187 C 0.69447 0.6422 0.59061 0.0
C188 C 0.69525 0.61392 0.55847 0.0
H189 H 0.69943 0.47305 0.44685 0.0
H190 H 0.72019 0.56384 0.48126 0.0
H191 H 0.7089 0.4486 0.58987 0.0
H192 H 0.44552 0.36531 0.56024 0.0
H193 H 0.45524 0.38057 0.60641 0.0
H194 H 0.45788 0.31793 0.58766 0.0
H195 H 0.6029 0.36326 0.60332 0.0
H196 H 0.65978 0.44385 0.62952 0.0
C197 C 0.82683 0.69655 0.51592 0.0
C198 C 0.6615 0.63457 0.49883 0.0
C199 C 0.60663 0.54903 0.71557 0.0
C200 C 0.56501 0.4831 0.72889 0.0
C201 C 0.5351 0.42725 0.70554 0.0
C202 C 0.55005 0.43783 0.66917 0.0
C203 C 0.59484 0.50486 0.65609 0.0
C204 C 0.61984 0.55845 0.67896 0.0
C205 C 0.66001 0.62406 0.65969 0.0
C206 C 0.66041 0.60231 0.62183 0.0
C207 C 0.62313 0.53295 0.62015 0.0
C208 C 0.75865 0.68766 0.67448 0.0
C209 C 0.59418 0.63444 0.66391 0.0
C210 C 0.59502 0.38223 0.52269 0.0
C211 C 0.62743 0.39536 0.48802 0.0
C212 C 0.67314 0.46182 0.47352 0.0
C213 C 0.6853 0.51426 0.49355 0.0
C214 C 0.65306 0.50032 0.52857 0.0
C215 C 0.60965 0.43523 0.54248 0.0
C216 C 0.58709 0.43087 0.58082 0.0
C217 C 0.62292 0.50378 0.58787 0.0
C218 C 0.66031 0.54427 0.55721 0.0
C219 C 0.64158 0.42063 0.60223 0.0
C220 C 0.48111 0.37033 0.58429 0.0
H221 H 0.72487 0.75435 0.63386 0.0
H222 H 0.7941 0.79608 0.50553 0.0
H223 H 0.6022 0.62487 0.50883 0.0
H224 H 0.63264 0.5827 0.488 0.0
H225 H 0.692 0.67188 0.47668 0.0
H226 H 0.88308 0.73769 0.53518 0.0
H227 H 0.84439 0.72201 0.48996 0.0
H228 H 0.82873 0.65564 0.51365 0.0
H229 H 0.62763 0.5919 0.73314 0.0
H230 H 0.50253 0.37599 0.71561 0.0
H231 H 0.52741 0.39368 0.65278 0.0
H232 H 0.79625 0.67162 0.67733 0.0
H233 H 0.75713 0.70636 0.70105 0.0
H234 H 0.80065 0.73342 0.65686 0.0
H235 H 0.52396 0.5845 0.67157 0.0
H236 H 0.58355 0.64856 0.63872 0.0
H237 H 0.61984 0.6761 0.68468 0.0
H238 H 0.77366 0.85934 0.60909 0.0
C239 C 0.73865 0.76119 0.60605 0.0
C240 C 0.33627 0.51213 0.82319 0.0
C241 C 0.37762 0.49253 0.84378 0.0
C242 C 0.33665 0.46556 0.87718 0.0
C243 C 0.24064 0.49126 0.87292 0.0
C244 C 0.26368 0.5075 0.838 0.0
C245 C 0.2001 0.51758 0.82294 0.0
H246 H 0.90803 0.57561 0.88335 0.0
C247 C 0.1793 0.50204 0.88468 0.0
C248 C 0.14434 0.51127 0.8555 0.0
H249 H 0.83405 0.45974 0.78451 0.0
H250 H 0.95756 0.46239 0.79425 0.0
H251 H 0.89138 0.47212 0.91964 0.0
H252 H 1.13047 0.67851 0.88426 0.0
H253 H 0.1637 0.67301 0.92548 0.0
H254 H 1.06854 0.66529 0.92283 0.0
H255 H 0.94158 0.5524 0.94402 0.0
H256 H 0.9725 0.50447 0.95274 0.0
C257 C 1.13284 0.45885 0.79467 0.0
C258 C 0.2609 0.59153 0.8071 0.0
C259 C 0.2017 0.55618 0.01795 0.0
C260 C 0.17756 0.58627 0.03859 0.0
C261 C 0.14218 0.60971 0.02155 0.0
C262 C 1.12739 0.60084 0.98478 0.0
C263 C 0.14659 0.56689 0.96434 0.0
C264 C 0.18663 0.5479 0.98083 0.0
C265 C 0.20466 0.51435 0.95489 0.0
C266 C 0.17102 0.51824 0.91981 0.0
C267 C 1.13232 0.54542 0.92587 0.0
C268 C 0.1431 0.43562 0.96517 0.0
C269 C 0.30961 0.55958 0.95583 0.0
C270 C 0.91843 0.55253 0.86259 0.0
C271 C 0.85846 0.52021 0.83232 0.0
C272 C 0.87709 0.48762 0.80812 0.0
C273 C 0.95052 0.48953 0.8136 0.0
C274 C 1.00967 0.52275 0.84451 0.0
C275 C 0.98687 0.55025 0.86848 0.0
C276 C 1.03366 0.56812 0.90343 0.0
C277 C 1.08509 0.54562 0.89818 0.0
C278 C 1.08221 0.52391 0.86251 0.0
C279 C 0.95681 0.52281 0.93162 0.0
C280 C 1.1022 0.65029 0.90971 0.0
H281 H 0.24738 0.4441 0.91713 0.0
H282 H 0.35839 0.52923 0.7963 0.0
H283 H 0.3098 0.63395 0.82761 0.0
H284 H 0.21814 0.59995 0.79716 0.0
H285 H 0.30116 0.59708 0.78471 0.0
H286 H 1.08881 0.40535 0.80622 0.0
H287 H 0.17081 0.46173 0.77216 0.0
H288 H 1.0876 0.46456 0.78429 0.0
H289 H 0.22822 0.53702 0.03048 0.0
H290 H 1.12274 0.63279 0.037 0.0
H291 H 1.09785 0.61833 0.97412 0.0
H292 H 1.07605 0.41273 0.97557 0.0
H293 H 0.17679 0.43131 -0.01391 0.0
H294 H 1.12452 0.40018 0.94214 0.0
H295 H 0.34752 0.60255 0.97696 0.0
H296 H 0.34291 0.58721 0.93064 0.0
H297 H 0.32367 0.52679 0.9614 0.0
H298 H 0.35596 0.44455 0.89337 0.0
C299 C 0.2722 0.46569 0.89145 0.0
C300 C 1.04832 0.41965 0.47325 0.0
C301 C 0.97719 0.35186 0.45519 0.0
C302 C 0.97143 0.3501 0.41816 0.0
C303 C 1.09958 0.47839 0.41648 0.0
C304 C 1.10949 0.48313 0.45299 0.0
C305 C 0.1906 0.56192 0.46511 0.0
H306 H 0.4995 0.91408 0.4093 0.0
C307 C 0.16663 0.5507 0.40214 0.0
C308 C 0.22146 0.60201 0.43011 0.0
H309 H 0.50194 0.85663 0.51457 0.0
H310 H 0.37185 0.72855 0.49727 0.0
H311 H 0.50155 0.8128 0.37405 0.0
H312 H 0.28534 0.80169 0.39464 0.0
H313 H 0.26453 0.76593 0.35131 0.0
H314 H 0.37118 0.85668 0.36174 0.0
H315 H 0.47999 0.85338 0.34586 0.0
H316 H 0.42648 0.76296 0.3377 0.0
C317 C 0.26668 0.57011 0.48112 0.0
C318 C 0.15749 0.58512 0.49172 0.0
C319 C 0.17005 0.56885 0.2688 0.0
C320 C 0.22196 0.62667 0.24638 0.0
C321 C 0.27705 0.69625 0.26101 0.0
C322 C 0.28591 0.70822 0.29794 0.0
C323 C 0.23873 0.6498 0.32028 0.0
C324 C 0.17925 0.5816 0.30545 0.0
C325 C 1.13098 0.52575 0.33278 0.0
C326 C 0.17764 0.57177 0.36669 0.0
C327 C 0.24018 0.64397 0.35918 0.0
C328 C 0.15157 0.47951 0.32556 0.0
C329 C 1.02771 0.48464 0.33066 0.0
C330 C 0.47267 0.87481 0.4291 0.0
C331 C 0.5112 0.89641 0.46329 0.0
C332 C 0.47409 0.84199 0.48776 0.0
C333 C 0.3988 0.76791 0.47778 0.0
C334 C 0.36209 0.74792 0.44272 0.0
C335 C 0.40181 0.80241 0.41933 0.0
C336 C 0.36586 0.77606 0.38234 0.0
C337 C 0.29585 0.69648 0.3866 0.0
C338 C 0.28982 0.67748 0.42212 0.0
C339 C 0.44708 0.8027 0.35852 0.0
C340 C 0.31975 0.80157 0.3716 0.0
H341 H 1.02101 0.404 0.37092 0.0
H342 H 1.05468 0.42315 0.50189 0.0
H343 H 1.1003 0.57618 0.4799 0.0
H344 H 0.21365 0.64253 0.49935 0.0
H345 H 1.13239 0.55404 0.5162 0.0
H346 H 0.28554 0.54909 0.46208 0.0
H347 H 0.24306 0.54 0.50589 0.0
H348 H 0.32965 0.62656 0.48743 0.0
H349 H 1.1251 0.5147 0.25821 0.0
H350 H 0.31682 0.74156 0.24403 0.0
H351 H 0.33142 0.76266 0.30751 0.0
H352 H 0.22 0.51119 0.31332 0.0
H353 H 1.09945 0.43337 0.30715 0.0
H354 H 0.15583 0.45985 0.35003 0.0
H355 H 1.01865 0.51922 0.3215 0.0
H356 H 0.99409 0.46687 0.35675 0.0
H357 H 0.98891 0.43804 0.31171 0.0
H358 H 0.91807 0.29999 0.40367 0.0
C359 C 1.03146 0.41166 0.399 0.0
C360 C 0.73601 0.93148 0.77889 0.0
C361 C 0.76219 0.90283 0.75797 0.0
C362 C 0.77649 0.91664 0.72142 0.0
C363 C 0.73975 0.98643 0.72713 0.0
C364 C 0.7258 0.9734 0.76301 0.0
C365 C 0.69965 1.009 0.78119 0.0
H366 H 0.60838 0.21225 0.76679 0.0
C367 C 0.72364 0.03155 0.71867 0.0
C368 C 0.70071 0.04559 0.75038 0.0
H369 H 0.59258 0.11697 0.86153 0.0
H370 H 0.64404 0.06894 0.82871 0.0
H371 H 0.79857 0.26602 0.73704 0.0
H372 H 0.51051 0.08299 0.71909 0.0
H373 H 0.56028 0.09484 0.6782 0.0
H374 H 0.57066 0.16444 0.69679 0.0
H375 H 0.72465 0.26792 0.71327 0.0
H376 H 0.78267 0.24727 0.69102 0.0
C377 C 0.77429 0.06357 0.80956 0.0
C378 C 0.60223 0.95021 0.79629 0.0
C379 C 0.7343 0.09312 0.59026 0.0
C380 C 0.71419 0.12881 0.57474 0.0
C381 C 0.69621 0.162 0.59657 0.0
C382 C 0.69642 0.15871 0.6335 0.0
C383 C 0.71259 0.12025 0.64885 0.0
C384 C 0.73235 0.08895 0.6274 0.0
C385 C 0.74429 0.04813 0.64858 0.0
C386 C 0.7266 0.0591 0.68613 0.0
C387 C 0.70824 0.1014 0.6859 0.0
C388 C 0.84447 0.08387 0.64426 0.0
C389 C 0.67016 0.96869 0.63571 0.0
C390 C 0.6173 0.18184 0.78054 0.0
C391 C 0.59748 0.16865 0.81659 0.0
C392 C 0.60822 0.12796 0.83366 0.0
C393 C 0.6376 0.10001 0.81452 0.0
C394 C 0.6554 0.11251 0.77795 0.0
C395 C 0.64537 0.15329 0.76185 0.0
C396 C 0.66255 0.15924 0.72282 0.0
C397 C 0.68579 0.11608 0.71778 0.0
C398 C 0.68184 0.08855 0.74999 0.0
C399 C 0.74597 0.23917 0.71531 0.0
C400 C 0.572 0.12418 0.70297 0.0
H401 H 0.77725 0.96614 0.67806 0.0
H402 H 0.72502 0.92236 0.80707 0.0
H403 H 0.55704 0.90356 0.77726 0.0
H404 H 0.56724 0.96794 0.80072 0.0
H405 H 0.60458 0.93103 0.8216 0.0
H406 H 0.84404 0.09377 0.79907 0.0
H407 H 0.76595 0.0363 0.83362 0.0
H408 H 0.77418 0.10425 0.81748 0.0
H409 H 0.74641 0.06599 0.57386 0.0
H410 H 0.67992 0.18925 0.58494 0.0
H411 H 0.68136 0.18466 0.64856 0.0
H412 H 0.89253 0.1426 0.64179 0.0
H413 H 0.85116 0.06258 0.62007 0.0
H414 H 0.87053 0.07771 0.66755 0.0
H415 H 0.60385 0.95198 0.62996 0.0
H416 H 0.65384 0.93173 0.65576 0.0
H417 H 0.69134 0.95966 0.61099 0.0
H418 H 0.79508 0.89445 0.70449 0.0
C419 C 0.76558 0.9581 0.706 0.0
C420 C 0.62021 0.32927 0.11017 0.0
C421 C 0.70134 0.36071 0.0924 0.0
C422 C 0.69496 0.33875 0.05691 0.0
C423 C 0.54195 0.28917 0.05347 0.0
C424 C 0.54043 0.2944 0.08988 0.0
C425 C 0.45705 0.27813 0.10194 0.0
H426 H 0.23005 0.36101 0.08318 0.0
C427 C 0.47373 0.28663 0.03832 0.0
C428 C 0.41793 0.27372 0.06624 0.0
H429 H 0.25099 0.27338 0.17166 0.0
H430 H 0.27785 0.21601 0.13073 0.0
H431 H 0.44603 0.44845 0.02748 0.0
H432 H 0.17998 0.23991 0.01151 0.0
H433 H 0.25847 0.30527 0.98037 0.0
H434 H 0.20143 0.31877 0.00998 0.0
H435 H 0.39582 0.43952 0.06702 0.0
H436 H 0.347 0.43589 0.02675 0.0
C437 C 0.48971 0.3417 0.12616 0.0
C438 C 0.3922 0.20579 0.12072 0.0
C439 C 0.5899 0.44496 0.93357 0.0
C440 C 0.57213 0.4842 0.92161 0.0
C441 C 0.49927 0.47281 0.936 0.0
C442 C 0.44287 0.42092 0.96146 0.0
C443 C 0.46434 0.38436 0.97455 0.0
C444 C 0.53728 0.39711 0.96066 0.0
C445 C 0.55518 0.35805 0.9791 0.0
C446 C 0.48158 0.32056 0.00754 0.0
C447 C 0.42816 0.33572 0.00425 0.0
C448 C 0.65563 0.41421 -0.00565 0.0
C449 C 0.53722 0.30366 0.95215 0.0
C450 C 0.23604 0.32636 0.09349 0.0
C451 C 0.24272 0.32389 0.13029 0.0
C452 C 0.24878 0.27789 0.14334 0.0
C453 C 0.26817 0.24748 0.11994 0.0
C454 C 0.29156 0.27092 0.085 0.0
C455 C 0.26908 0.30517 0.07133 0.0
C456 C 0.31204 0.336 0.03583 0.0
C457 C 0.36402 0.31457 0.03076 0.0
C458 C 0.35458 0.27914 0.06042 0.0
C459 C 0.37796 0.41883 0.03905 0.0
C460 C 0.23418 0.29851 0.00776 0.0
H461 H 0.61136 0.28861 0.00976 0.0
H462 H 0.62291 0.34239 0.13794 0.0
H463 H 0.41991 0.18148 0.12131 0.0
H464 H 0.32421 0.16566 0.10691 0.0
H465 H 0.38139 0.21213 0.14882 0.0
H466 H 0.54612 0.39335 0.11345 0.0
H467 H 0.51511 0.34253 0.15229 0.0
H468 H 0.43603 0.34061 0.13194 0.0
H469 H 0.64537 0.45253 0.9225 0.0
H470 H 0.48509 0.50296 0.92705 0.0
H471 H 0.38633 0.41272 0.97068 0.0
H472 H 0.69936 0.46716 0.98228 0.0
H473 H 0.6924 0.39798 -0.011 0.0
H474 H 0.65746 0.4247 0.02328 0.0
H475 H 0.47375 0.27578 0.93606 0.0
H476 H 0.52627 0.26134 0.96531 0.0
H477 H 0.5955 0.33089 0.93368 0.0
H478 H 0.75572 0.35868 0.0432 0.0
C479 C 0.61327 0.30071 0.03742 0.0
loop_
_geom_bond_atom_site_label_1
_geom_bond_atom_site_label_2
_geom_bond_distance
_geom_bond_site_symmetry_2
_ccdc_geom_bond_type
Ho0 C3 2.811 . S
Ho0 O20 2.322 . S
Ho0 O22 2.378 . S
Ho0 O23 2.524 . S
Ho0 O24 2.381 . S
Ho0 O25 2.669 . S
Ho0 O27 2.346 1_455 S
Ho0 O31 2.305 . S
Ho1 C12 2.811 . S
Ho1 O21 2.346 1_655 S
Ho1 O25 2.305 1_655 S
Ho1 O26 2.322 . S
Ho1 O28 2.378 . S
Ho1 O29 2.524 . S
Ho1 O30 2.381 . S
Ho1 O31 2.669 1_655 S
C2 O20 1.259 . S
C2 O21 1.268 . S
C3 Ho0 2.811 . S
C3 C4 1.488 . S
C3 O22 1.215 . S
C3 O23 1.289 . S
C4 C3 1.488 . S
C4 C5 1.348 . S
C4 C9 1.413 . S
C5 C4 1.348 . S
C5 C6 1.442 . S
C5 H32 0.930 . S
C6 C5 1.442 . S
C6 C7 1.381 . S
C6 H33 0.931 . S
C7 C6 1.381 . S
C7 C8 1.321 . S
C8 C7 1.321 . S
C8 C9 1.403 . S
C8 H34 0.934 . S
C9 C4 1.413 . S
C9 C8 1.403 . S
C9 H35 0.930 . S
C10 O24 1.275 . S
C10 O25 1.256 . S
C11 O26 1.259 . S
C11 O27 1.268 . S
C12 Ho1 2.811 . S
C12 C13 1.488 . S
C12 O28 1.215 . S
C12 O29 1.289 . S
C13 C12 1.488 . S
C13 C14 1.348 . S
C13 C18 1.413 . S
C14 C13 1.348 . S
C14 C15 1.442 . S
C14 H36 0.930 . S
C15 C14 1.442 . S
C15 C16 1.381 . S
C15 H37 0.931 . S
C16 C15 1.381 . S
C16 C17 1.321 . S
C17 C16 1.321 . S
C17 C18 1.403 . S
C17 H38 0.934 . S
C18 C13 1.413 . S
C18 C17 1.403 . S
C18 H39 0.930 . S
C19 O30 1.275 1_455 S
C19 O31 1.256 . S
O20 Ho0 2.322 . S
O20 C2 1.259 . S
O21 Ho1 2.346 1_455 S
O21 C2 1.268 . S
O22 Ho0 2.378 . S
O22 C3 1.215 . S
O23 Ho0 2.524 . S
O23 C3 1.289 . S
O24 Ho0 2.381 . S
O24 C10 1.275 . S
O25 Ho0 2.669 . S
O25 Ho1 2.305 1_455 S
O25 C10 1.256 . S
O26 Ho1 2.322 . S
O26 C11 1.259 . S
O27 Ho0 2.346 1_655 S
O27 C11 1.268 . S
O28 Ho1 2.378 . S
O28 C12 1.215 . S
O29 Ho1 2.524 . S
O29 C12 1.289 . S
O30 Ho1 2.381 . S
O30 C19 1.275 1_655 S
O31 Ho0 2.305 . S
O31 Ho1 2.669 1_455 S
O31 C19 1.256 . S
H32 C5 0.930 . S
H33 C6 0.931 . S
H34 C8 0.934 . S
H35 C9 0.930 . S
H36 C14 0.930 . S
H37 C15 0.931 . S
H38 C17 0.934 . S
H39 C18 0.930 . S
Ho40 C43 2.811 . S
Ho40 O60 2.322 . S
Ho40 O62 2.378 . S
Ho40 O63 2.524 . S
Ho40 O64 2.381 . S
Ho40 O65 2.669 1_565 S
Ho40 O67 2.346 1_565 S
Ho40 O71 2.305 . S
Ho41 C52 2.811 . S
Ho41 O61 2.346 1_545 S
Ho41 O65 2.305 . S
Ho41 O66 2.322 . S
Ho41 O68 2.378 . S
Ho41 O69 2.524 . S
Ho41 O70 2.381 . S
Ho41 O71 2.669 1_545 S
C42 O60 1.259 . S
C42 O61 1.268 . S
C43 Ho40 2.811 . S
C43 C44 1.488 . S
C43 O62 1.215 . S
C43 O63 1.289 . S
C44 C43 1.488 . S
C44 C45 1.348 . S
C44 C49 1.413 . S
C45 C44 1.348 . S
C45 C46 1.442 . S
C45 H72 0.930 . S
C46 C45 1.442 . S
C46 C47 1.381 . S
C46 H73 0.931 . S
C47 C46 1.381 . S
C47 C48 1.321 . S
C48 C47 1.321 . S
C48 C49 1.403 . S
C48 H74 0.934 . S
C49 C44 1.413 . S
C49 C48 1.403 . S
C49 H75 0.930 . S
C50 O64 1.275 1_545 S
C50 O65 1.256 . S
C51 O66 1.259 . S
C51 O67 1.268 . S
C52 Ho41 2.811 . S
C52 C53 1.488 . S
C52 O68 1.215 . S
C52 O69 1.289 . S
C53 C52 1.488 . S
C53 C54 1.348 . S
C53 C58 1.413 . S
C54 C53 1.348 . S
C54 C55 1.442 . S
C54 H76 0.930 . S
C55 C54 1.442 . S
C55 C56 1.381 . S
C55 H77 0.931 . S
C56 C55 1.381 . S
C56 C57 1.321 . S
C57 C56 1.321 . S
C57 C58 1.403 . S
C57 H78 0.934 . S
C58 C53 1.413 . S
C58 C57 1.403 . S
C58 H79 0.930 . S
C59 O70 1.275 . S
C59 O71 1.256 1_545 S
O60 Ho40 2.322 . S
O60 C42 1.259 . S
O61 Ho41 2.346 1_565 S
O61 C42 1.268 . S
O62 Ho40 2.378 . S
O62 C43 1.215 . S
O63 Ho40 2.524 . S
O63 C43 1.289 . S
O64 Ho40 2.381 . S
O64 C50 1.275 1_565 S
O65 Ho40 2.669 1_545 S
O65 Ho41 2.305 . S
O65 C50 1.256 . S
O66 Ho41 2.322 . S
O66 C51 1.259 . S
O67 Ho40 2.346 1_545 S
O67 C51 1.268 . S
O68 Ho41 2.378 . S
O68 C52 1.215 . S
O69 Ho41 2.524 . S
O69 C52 1.289 . S
O70 Ho41 2.381 . S
O70 C59 1.275 . S
O71 Ho40 2.305 . S
O71 Ho41 2.669 1_565 S
O71 C59 1.256 1_565 S
H72 C45 0.930 . S
H73 C46 0.931 . S
H74 C48 0.934 . S
H75 C49 0.930 . S
H76 C54 0.930 . S
H77 C55 0.931 . S
H78 C57 0.934 . S
H79 C58 0.930 . S
Ho80 C83 2.811 . S
Ho80 O100 2.322 . S
Ho80 O102 2.378 . S
Ho80 O103 2.524 . S
Ho80 O104 2.381 . S
Ho80 O105 2.669 . S
Ho80 O107 2.346 . S
Ho80 O111 2.305 . S
Ho81 C92 2.811 . S
Ho81 O101 2.346 . S
Ho81 O105 2.305 . S
Ho81 O106 2.322 . S
Ho81 O108 2.378 . S
Ho81 O109 2.524 . S
Ho81 O110 2.381 . S
Ho81 O111 2.669 . S
C82 O100 1.259 . S
C82 O101 1.268 . S
C83 Ho80 2.811 . S
C83 C84 1.488 . S
C83 O102 1.215 . S
C83 O103 1.289 . S
C84 C83 1.488 . S
C84 C85 1.348 . S
C84 C89 1.413 . S
C85 C84 1.348 . S
C85 C86 1.442 . S
C85 H112 0.930 . S
C86 C85 1.442 . S
C86 C87 1.381 . S
C86 H113 0.931 . S
C87 C86 1.381 . S
C87 C88 1.321 . S
C88 C87 1.321 . S
C88 C89 1.403 . S
C88 H114 0.934 . S
C89 C84 1.413 . S
C89 C88 1.403 . S
C89 H115 0.930 . S
C90 O104 1.275 . S
C90 O105 1.256 . S
C91 O106 1.259 . S
C91 O107 1.268 . S
C92 Ho81 2.811 . S
C92 C93 1.488 . S
C92 O108 1.215 . S
C92 O109 1.289 . S
C93 C92 1.488 . S
C93 C94 1.348 . S
C93 C98 1.413 . S
C94 C93 1.348 . S
C94 C95 1.442 . S
C94 H116 0.930 . S
C95 C94 1.442 . S
C95 C96 1.381 . S
C95 H117 0.931 . S
C96 C95 1.381 . S
C96 C97 1.321 . S
C97 C96 1.321 . S
C97 C98 1.403 . S
C97 H118 0.934 . S
C98 C93 1.413 . S
C98 C97 1.403 . S
C98 H119 0.930 . S
C99 O110 1.275 . S
C99 O111 1.256 . S
O100 Ho80 2.322 . S
O100 C82 1.259 . S
O101 Ho81 2.346 . S
O101 C82 1.268 . S
O102 Ho80 2.378 . S
O102 C83 1.215 . S
O103 Ho80 2.524 . S
O103 C83 1.289 . S
O104 Ho80 2.381 . S
O104 C90 1.275 . S
O105 Ho80 2.669 . S
O105 Ho81 2.305 . S
O105 C90 1.256 . S
O106 Ho81 2.322 . S
O106 C91 1.259 . S
O107 Ho80 2.346 . S
O107 C91 1.268 . S
O108 Ho81 2.378 . S
O108 C92 1.215 . S
O109 Ho81 2.524 . S
O109 C92 1.289 . S
O110 Ho81 2.381 . S
O110 C99 1.275 . S
O111 Ho80 2.305 . S
O111 Ho81 2.669 . S
O111 C99 1.256 . S
H112 C85 0.930 . S
H113 C86 0.931 . S
H114 C88 0.934 . S
H115 C89 0.930 . S
H116 C94 0.930 . S
H117 C95 0.931 . S
H118 C97 0.934 . S
H119 C98 0.930 . S
C120 C121 1.391 . S
C120 C124 1.391 . S
C120 H162 0.948 . S
C121 C120 1.391 . S
C121 C122 1.391 . S
C122 C121 1.391 . S
C122 H178 0.947 . S
C122 C179 1.392 . S
C123 C124 1.391 . S
C123 C127 1.397 . S
C123 C179 1.419 . S
C124 C120 1.391 . S
C124 C123 1.391 . S
C124 C125 1.399 . S
C125 C124 1.399 . S
C125 C128 1.396 . S
C125 C137 1.453 . S
C125 C138 1.684 . S
H126 C150 0.948 . S
C127 C123 1.397 . S
C127 C128 1.394 . S
C127 C146 1.723 . S
C128 C125 1.396 . S
C128 C127 1.394 . S
C128 C158 1.723 1_545 S
H129 C152 0.947 . S
H130 C153 0.948 . S
H131 C159 0.982 . S
H132 C160 0.979 . S
H133 C160 0.980 . S
H134 C160 0.983 . S
H135 C159 0.979 . S
H136 C159 0.977 . S
C137 C125 1.453 . S
C137 H166 0.982 . S
C137 H167 0.979 . S
C137 H168 0.977 . S
C138 C125 1.684 . S
C138 H163 0.979 . S
C138 H164 0.980 . S
C138 H165 0.983 . S
C139 C140 1.391 . S
C139 C144 1.391 . S
C139 H169 0.948 . S
C140 C139 1.391 . S
C140 C141 1.391 1_545 S
C141 C140 1.391 1_565 S
C141 C142 1.392 . S
C141 H170 0.947 . S
C142 C141 1.392 . S
C142 C143 1.419 1_565 S
C142 H171 0.948 . S
C143 C142 1.419 1_545 S
C143 C144 1.391 . S
C143 C147 1.397 . S
C144 C139 1.391 . S
C144 C143 1.391 . S
C144 C145 1.399 . S
C145 C144 1.399 . S
C145 C146 1.396 . S
C145 C148 1.453 . S
C145 C149 1.684 . S
C146 C127 1.723 . S
C146 C145 1.396 . S
C146 C147 1.394 . S
C147 C143 1.397 . S
C147 C146 1.394 . S
C147 C157 1.723 1_545 S
C148 C145 1.453 . S
C148 H172 0.982 . S
C148 H173 0.979 . S
C148 H174 0.977 . S
C149 C145 1.684 . S
C149 H175 0.979 . S
C149 H176 0.980 . S
C149 H177 0.983 . S
C150 H126 0.948 . S
C150 C151 1.391 . S
C150 C155 1.391 . S
C151 C150 1.391 . S
C151 C152 1.391 . S
C152 H129 0.947 . S
C152 C151 1.391 . S
C152 C153 1.392 . S
C153 H130 0.948 . S
C153 C152 1.392 . S
C153 C154 1.419 . S
C154 C153 1.419 . S
C154 C155 1.391 . S
C154 C158 1.397 . S
C155 C150 1.391 . S
C155 C154 1.391 . S
C155 C156 1.399 . S
C156 C155 1.399 . S
C156 C157 1.396 . S
C156 C159 1.453 . S
C156 C160 1.684 . S
C157 C147 1.723 1_565 S
C157 C156 1.396 . S
C157 C158 1.394 . S
C158 C128 1.723 1_565 S
C158 C154 1.397 . S
C158 C157 1.394 . S
C159 H131 0.982 . S
C159 H135 0.979 . S
C159 H136 0.977 . S
C159 C156 1.453 . S
C160 H132 0.979 . S
C160 H133 0.980 . S
C160 H134 0.983 . S
C160 C156 1.684 . S
H161 C179 0.948 . S
H162 C120 0.948 . S
H163 C138 0.979 . S
H164 C138 0.980 . S
H165 C138 0.983 . S
H166 C137 0.982 . S
H167 C137 0.979 . S
H168 C137 0.977 . S
H169 C139 0.948 . S
H170 C141 0.947 . S
H171 C142 0.948 . S
H172 C148 0.982 . S
H173 C148 0.979 . S
H174 C148 0.977 . S
H175 C149 0.979 . S
H176 C149 0.980 . S
H177 C149 0.983 . S
H178 C122 0.947 . S
C179 C122 1.392 . S
C179 C123 1.419 . S
C179 H161 0.948 . S
C180 C181 1.391 . S
C180 C184 1.391 . S
C180 H222 0.948 . S
C181 C180 1.391 . S
C181 C182 1.391 . S
C182 C181 1.391 . S
C182 H238 0.947 . S
C182 C239 1.392 . S
C183 C184 1.391 . S
C183 C187 1.397 . S
C183 C239 1.419 . S
C184 C180 1.391 . S
C184 C183 1.391 . S
C184 C185 1.399 . S
C185 C184 1.399 . S
C185 C188 1.396 . S
C185 C197 1.453 . S
C185 C198 1.684 . S
H186 C210 0.948 . S
C187 C183 1.397 . S
C187 C188 1.394 . S
C187 C206 1.723 . S
C188 C185 1.396 . S
C188 C187 1.394 . S
C188 C218 1.723 . S
H189 C212 0.947 . S
H190 C213 0.948 . S
H191 C219 0.982 . S
H192 C220 0.979 . S
H193 C220 0.980 . S
H194 C220 0.983 . S
H195 C219 0.979 . S
H196 C219 0.977 . S
C197 C185 1.453 . S
C197 H226 0.982 . S
C197 H227 0.979 . S
C197 H228 0.977 . S
C198 C185 1.684 . S
C198 H223 0.979 . S
C198 H224 0.980 . S
C198 H225 0.983 . S
C199 C200 1.391 . S
C199 C204 1.391 . S
C199 H229 0.948 . S
C200 C199 1.391 . S
C200 C201 1.391 . S
C201 C200 1.391 . S
C201 C202 1.392 . S
C201 H230 0.947 . S
C202 C201 1.392 . S
C202 C203 1.419 . S
C202 H231 0.948 . S
C203 C202 1.419 . S
C203 C204 1.391 . S
C203 C207 1.397 . S
C204 C199 1.391 . S
C204 C203 1.391 . S
C204 C205 1.399 . S
C205 C204 1.399 . S
C205 C206 1.396 . S
C205 C208 1.453 . S
C205 C209 1.684 . S
C206 C187 1.723 . S
C206 C205 1.396 . S
C206 C207 1.394 . S
C207 C203 1.397 . S
C207 C206 1.394 . S
C207 C217 1.723 . S
C208 C205 1.453 . S
C208 H232 0.982 . S
C208 H233 0.979 . S
C208 H234 0.977 . S
C209 C205 1.684 . S
C209 H235 0.979 . S
C209 H236 0.980 . S
C209 H237 0.983 . S
C210 H186 0.948 . S
C210 C211 1.391 . S
C210 C215 1.391 . S
C211 C210 1.391 . S
C211 C212 1.391 . S
C212 H189 0.947 . S
C212 C211 1.391 . S
C212 C213 1.392 . S
C213 H190 0.948 . S
C213 C212 1.392 . S
C213 C214 1.419 . S
C214 C213 1.419 . S
C214 C215 1.391 . S
C214 C218 1.397 . S
C215 C210 1.391 . S
C215 C214 1.391 . S
C215 C216 1.399 . S
C216 C215 1.399 . S
C216 C217 1.396 . S
C216 C219 1.453 . S
C216 C220 1.684 . S
C217 C207 1.723 . S
C217 C216 1.396 . S
C217 C218 1.394 . S
C218 C188 1.723 . S
C218 C214 1.397 . S
C218 C217 1.394 . S
C219 H191 0.982 . S
C219 H195 0.979 . S
C219 H196 0.977 . S
C219 C216 1.453 . S
C220 H192 0.979 . S
C220 H193 0.980 . S
C220 H194 0.983 . S
C220 C216 1.684 . S
H221 C239 0.948 . S
H222 C180 0.948 . S
H223 C198 0.979 . S
H224 C198 0.980 . S
H225 C198 0.983 . S
H226 C197 0.982 . S
H227 C197 0.979 . S
H228 C197 0.977 . S
H229 C199 0.948 . S
H230 C201 0.947 . S
H231 C202 0.948 . S
H232 C208 0.982 . S
H233 C208 0.979 . S
H234 C208 0.977 . S
H235 C209 0.979 . S
H236 C209 0.980 . S
H237 C209 0.983 . S
H238 C182 0.947 . S
C239 C182 1.392 . S
C239 C183 1.419 . S
C239 H221 0.948 . S
C240 C241 1.391 . S
C240 C244 1.391 . S
C240 H282 0.948 . S
C241 C240 1.391 . S
C241 C242 1.391 . S
C242 C241 1.391 . S
C242 H298 0.947 . S
C242 C299 1.392 . S
C243 C244 1.391 . S
C243 C247 1.397 . S
C243 C299 1.419 . S
C244 C240 1.391 . S
C244 C243 1.391 . S
C244 C245 1.399 . S
C245 C244 1.399 . S
C245 C248 1.396 . S
C245 C257 1.453 . S
C245 C258 1.684 . S
H246 C270 0.948 . S
C247 C243 1.397 . S
C247 C248 1.394 . S
C247 C266 1.723 . S
C248 C245 1.396 . S
C248 C247 1.394 . S
C248 C278 1.723 . S
H249 C272 0.947 . S
H250 C273 0.948 1_455 S
H251 C279 0.982 . S
H252 C280 0.979 1_455 S
H253 C280 0.980 . S
H254 C280 0.983 . S
H255 C279 0.979 . S
H256 C279 0.977 . S
C257 C245 1.453 . S
C257 H286 0.982 . S
C257 H287 0.979 . S
C257 H288 0.977 . S
C258 C245 1.684 . S
C258 H283 0.979 . S
C258 H284 0.980 . S
C258 H285 0.983 . S
C259 C260 1.391 . S
C259 C264 1.404 . S
C259 H289 0.948 . S
C260 C259 1.391 . S
C260 C261 1.391 . S
C261 C260 1.391 . S
C261 C262 1.392 . S
C261 H290 0.947 1_455 S
C262 C261 1.392 . S
C262 C263 1.419 1_554 S
C262 H291 0.948 1_454 S
C263 C262 1.419 1_556 S
C263 C264 1.386 1_556 S
C263 C267 1.397 . S
C264 C259 1.404 . S
C264 C263 1.386 1_554 S
C264 C265 1.390 1_554 S
C265 C264 1.390 1_556 S
C265 C266 1.396 . S
C265 C268 1.453 . S
C265 C269 1.684 . S
C266 C247 1.723 . S
C266 C265 1.396 . S
C266 C267 1.394 . S
C267 C263 1.397 . S
C267 C266 1.394 . S
C267 C277 1.723 . S
C268 C265 1.453 . S
C268 H292 0.982 . S
C268 H293 0.979 . S
C268 H294 0.977 . S
C269 C265 1.684 . S
C269 H295 0.979 . S
C269 H296 0.980 . S
C269 H297 0.983 1_556 S
C270 H246 0.948 . S
C270 C271 1.391 . S
C270 C275 1.391 . S
C271 C270 1.391 . S
C271 C272 1.391 . S
C272 H249 0.947 . S
C272 C271 1.391 . S
C272 C273 1.392 . S
C273 H250 0.948 1_655 S
C273 C272 1.392 . S
C273 C274 1.419 . S
C274 C273 1.419 . S
C274 C275 1.391 . S
C274 C278 1.397 1_655 S
C275 C270 1.391 . S
C275 C274 1.391 . S
C275 C276 1.399 . S
C276 C275 1.399 . S
C276 C277 1.396 1_655 S
C276 C279 1.453 . S
C276 C280 1.684 . S
C277 C267 1.723 . S
C277 C276 1.396 1_455 S
C277 C278 1.394 . S
C278 C248 1.723 . S
C278 C274 1.397 1_455 S
C278 C277 1.394 . S
C279 H251 0.982 . S
C279 H255 0.979 . S
C279 H256 0.977 . S
C279 C276 1.453 . S
C280 H252 0.979 1_655 S
C280 H253 0.980 . S
C280 H254 0.983 . S
C280 C276 1.684 . S
H281 C299 0.948 . S
H282 C240 0.948 . S
H283 C258 0.979 . S
H284 C258 0.980 . S
H285 C258 0.983 . S
H286 C257 0.982 . S
H287 C257 0.979 . S
H288 C257 0.977 . S
H289 C259 0.948 . S
H290 C261 0.947 1_655 S
H291 C262 0.948 1_656 S
H292 C268 0.982 . S
H293 C268 0.979 . S
H294 C268 0.977 . S
H295 C269 0.979 . S
H296 C269 0.980 . S
H297 C269 0.983 1_554 S
H298 C242 0.947 . S
C299 C242 1.392 . S
C299 C243 1.419 . S
C299 H281 0.948 . S
C300 C301 1.391 . S
C300 C304 1.391 . S
C300 H342 0.948 . S
C301 C300 1.391 . S
C301 C302 1.391 . S
C302 C301 1.391 . S
C302 H358 0.947 . S
C302 C359 1.392 . S
C303 C304 1.391 . S
C303 C307 1.397 . S
C303 C359 1.419 . S
C304 C300 1.391 . S
C304 C303 1.391 . S
C304 C305 1.399 . S
C305 C304 1.399 . S
C305 C308 1.396 . S
C305 C317 1.453 . S
C305 C318 1.684 . S
H306 C330 0.948 . S
C307 C303 1.397 . S
C307 C308 1.394 . S
C307 C326 1.723 . S
C308 C305 1.396 . S
C308 C307 1.394 . S
C308 C338 1.723 1_655 S
H309 C332 0.947 . S
H310 C333 0.948 . S
H311 C339 0.982 . S
H312 C340 0.979 . S
H313 C340 0.980 . S
H314 C340 0.983 . S
H315 C339 0.979 . S
H316 C339 0.977 . S
C317 C305 1.453 . S
C317 H346 0.982 1_655 S
C317 H347 0.979 . S
C317 H348 0.977 1_655 S
C318 C305 1.684 . S
C318 H343 0.979 . S
C318 H344 0.980 . S
C318 H345 0.983 . S
C319 C320 1.391 1_655 S
C319 C324 1.391 . S
C319 H349 0.948 . S
C320 C319 1.391 1_455 S
C320 C321 1.391 . S
C321 C320 1.391 . S
C321 C322 1.392 . S
C321 H350 0.947 . S
C322 C321 1.392 . S
C322 C323 1.419 . S
C322 H351 0.948 . S
C323 C322 1.419 . S
C323 C324 1.391 1_455 S
C323 C327 1.397 . S
C324 C319 1.391 . S
C324 C323 1.391 1_655 S
C324 C325 1.399 . S
C325 C324 1.399 . S
C325 C326 1.396 . S
C325 C328 1.453 . S
C325 C329 1.684 . S
C326 C307 1.723 . S
C326 C325 1.396 . S
C326 C327 1.394 1_655 S
C327 C323 1.397 . S
C327 C326 1.394 1_455 S
C327 C337 1.723 . S
C328 C325 1.453 . S
C328 H352 0.982 . S
C328 H353 0.979 . S
C328 H354 0.977 . S
C329 C325 1.684 . S
C329 H355 0.979 . S
C329 H356 0.980 . S
C329 H357 0.983 . S
C330 H306 0.948 . S
C330 C331 1.391 . S
C330 C335 1.391 . S
C331 C330 1.391 . S
C331 C332 1.391 . S
C332 H309 0.947 . S
C332 C331 1.391 . S
C332 C333 1.392 . S
C333 H310 0.948 . S
C333 C332 1.392 . S
C333 C334 1.419 . S
C334 C333 1.419 . S
C334 C335 1.391 . S
C334 C338 1.397 . S
C335 C330 1.391 . S
C335 C334 1.391 . S
C335 C336 1.399 . S
C336 C335 1.399 . S
C336 C337 1.396 . S
C336 C339 1.453 . S
C336 C340 1.684 . S
C337 C327 1.723 . S
C337 C336 1.396 . S
C337 C338 1.394 . S
C338 C308 1.723 1_455 S
C338 C334 1.397 . S
C338 C337 1.394 . S
C339 H311 0.982 . S
C339 H315 0.979 . S
C339 H316 0.977 . S
C339 C336 1.453 . S
C340 H312 0.979 . S
C340 H313 0.980 . S
C340 H314 0.983 . S
C340 C336 1.684 . S
H341 C359 0.948 . S
H342 C300 0.948 . S
H343 C318 0.979 . S
H344 C318 0.980 . S
H345 C318 0.983 . S
H346 C317 0.982 1_455 S
H347 C317 0.979 . S
H348 C317 0.977 1_455 S
H349 C319 0.948 . S
H350 C321 0.947 . S
H351 C322 0.948 . S
H352 C328 0.982 . S
H353 C328 0.979 . S
H354 C328 0.977 . S
H355 C329 0.979 . S
H356 C329 0.980 . S
H357 C329 0.983 . S
H358 C302 0.947 . S
C359 C302 1.392 . S
C359 C303 1.419 . S
C359 H341 0.948 . S
C360 C361 1.391 . S
C360 C364 1.391 . S
C360 H402 0.948 . S
C361 C360 1.391 . S
C361 C362 1.391 . S
C362 C361 1.391 . S
C362 H418 0.947 . S
C362 C419 1.392 . S
C363 C364 1.391 . S
C363 C367 1.397 . S
C363 C419 1.419 . S
C364 C360 1.391 . S
C364 C363 1.391 . S
C364 C365 1.399 . S
C365 C364 1.399 . S
C365 C368 1.396 . S
C365 C377 1.453 1_565 S
C365 C378 1.684 . S
H366 C390 0.948 . S
C367 C363 1.397 . S
C367 C368 1.394 . S
C367 C386 1.723 . S
C368 C365 1.396 . S
C368 C367 1.394 . S
C368 C398 1.723 1_565 S
H369 C392 0.947 . S
H370 C393 0.948 . S
H371 C399 0.982 . S
H372 C400 0.979 . S
H373 C400 0.980 . S
H374 C400 0.983 . S
H375 C399 0.979 . S
H376 C399 0.977 . S
C377 C365 1.453 1_545 S
C377 H406 0.982 . S
C377 H407 0.979 . S
C377 H408 0.977 . S
C378 C365 1.684 . S
C378 H403 0.979 . S
C378 H404 0.980 . S
C378 H405 0.983 . S
C379 C380 1.391 . S
C379 C384 1.391 . S
C379 H409 0.948 . S
C380 C379 1.391 . S
C380 C381 1.391 1_565 S
C381 C380 1.391 1_545 S
C381 C382 1.392 . S
C381 H410 0.947 . S
C382 C381 1.392 . S
C382 C383 1.419 . S
C382 H411 0.948 . S
C383 C382 1.419 . S
C383 C384 1.391 1_545 S
C383 C387 1.397 . S
C384 C379 1.391 . S
C384 C383 1.391 1_565 S
C384 C385 1.399 . S
C385 C384 1.399 . S
C385 C386 1.396 . S
C385 C388 1.453 . S
C385 C389 1.684 . S
C386 C367 1.723 . S
C386 C385 1.396 . S
C386 C387 1.394 1_565 S
C387 C383 1.397 . S
C387 C386 1.394 1_545 S
C387 C397 1.723 . S
C388 C385 1.453 . S
C388 H412 0.982 . S
C388 H413 0.979 . S
C388 H414 0.977 . S
C389 C385 1.684 . S
C389 H415 0.979 . S
C389 H416 0.980 . S
C389 H417 0.983 . S
C390 H366 0.948 . S
C390 C391 1.391 . S
C390 C395 1.391 . S
C391 C390 1.391 . S
C391 C392 1.391 . S
C392 H369 0.947 . S
C392 C391 1.391 . S
C392 C393 1.392 . S
C393 H370 0.948 . S
C393 C392 1.392 . S
C393 C394 1.419 . S
C394 C393 1.419 . S
C394 C395 1.391 . S
C394 C398 1.397 . S
C395 C390 1.391 . S
C395 C394 1.391 . S
C395 C396 1.399 . S
C396 C395 1.399 . S
C396 C397 1.396 . S
C396 C399 1.453 . S
C396 C400 1.684 . S
C397 C387 1.723 . S
C397 C396 1.396 . S
C397 C398 1.394 . S
C398 C368 1.723 1_545 S
C398 C394 1.397 . S
C398 C397 1.394 . S
C399 H371 0.982 . S
C399 H375 0.979 . S
C399 H376 0.977 . S
C399 C396 1.453 . S
C400 H372 0.979 . S
C400 H373 0.980 . S
C400 H374 0.983 . S
C400 C396 1.684 . S
H401 C419 0.948 . S
H402 C360 0.948 . S
H403 C378 0.979 . S
H404 C378 0.980 . S
H405 C378 0.983 . S
H406 C377 0.982 . S
H407 C377 0.979 . S
H408 C377 0.977 . S
H409 C379 0.948 . S
H410 C381 0.947 . S
H411 C382 0.948 . S
H412 C388 0.982 . S
H413 C388 0.979 . S
H414 C388 0.977 . S
H415 C389 0.979 . S
H416 C389 0.980 . S
H417 C389 0.983 . S
H418 C362 0.947 . S
C419 C362 1.392 . S
C419 C363 1.419 . S
C419 H401 0.948 . S
C420 C421 1.391 . S
C420 C424 1.391 . S
C420 H462 0.948 . S
C421 C420 1.391 . S
C421 C422 1.391 . S
C422 C421 1.391 . S
C422 H478 0.947 . S
C422 C479 1.392 . S
C423 C424 1.391 . S
C423 C427 1.397 . S
C423 C479 1.419 . S
C424 C420 1.391 . S
C424 C423 1.391 . S
C424 C425 1.399 . S
C425 C424 1.399 . S
C425 C428 1.396 . S
C425 C437 1.453 . S
C425 C438 1.684 . S
H426 C450 0.948 . S
C427 C423 1.397 . S
C427 C428 1.394 . S
C427 C446 1.723 . S
C428 C425 1.396 . S
C428 C427 1.394 . S
C428 C458 1.723 . S
H429 C452 0.947 . S
H430 C453 0.948 . S
H431 C459 0.982 . S
H432 C460 0.979 . S
H433 C460 0.980 . S
H434 C460 0.983 . S
H435 C459 0.979 . S
H436 C459 0.977 . S
C437 C425 1.453 . S
C437 H466 0.982 . S
C437 H467 0.979 . S
C437 H468 0.977 . S
C438 C425 1.684 . S
C438 H463 0.979 . S
C438 H464 0.980 . S
C438 H465 0.983 . S
C439 C440 1.391 . S
C439 C444 1.391 . S
C439 H469 0.948 . S
C440 C439 1.391 . S
C440 C441 1.391 . S
C441 C440 1.391 . S
C441 C442 1.392 . S
C441 H470 0.947 . S
C442 C441 1.392 . S
C442 C443 1.419 . S
C442 H471 0.948 . S
C443 C442 1.419 . S
C443 C444 1.391 . S
C443 C447 1.397 1_556 S
C444 C439 1.391 . S
C444 C443 1.391 . S
C444 C445 1.399 1_556 S
C445 C444 1.399 1_554 S
C445 C446 1.396 . S
C445 C448 1.453 . S
C445 C449 1.684 1_554 S
C446 C427 1.723 . S
C446 C445 1.396 . S
C446 C447 1.394 . S
C447 C443 1.397 1_554 S
C447 C446 1.394 . S
C447 C457 1.723 . S
C448 C445 1.453 . S
C448 H472 0.982 . S
C448 H473 0.979 1_554 S
C448 H474 0.977 . S
C449 C445 1.684 1_556 S
C449 H475 0.979 . S
C449 H476 0.980 1_556 S
C449 H477 0.983 . S
C450 H426 0.948 . S
C450 C451 1.391 . S
C450 C455 1.391 . S
C451 C450 1.391 . S
C451 C452 1.391 . S
C452 H429 0.947 . S
C452 C451 1.391 . S
C452 C453 1.392 . S
C453 H430 0.948 . S
C453 C452 1.392 . S
C453 C454 1.419 . S
C454 C453 1.419 . S
C454 C455 1.391 . S
C454 C458 1.397 . S
C455 C450 1.391 . S
C455 C454 1.391 . S
C455 C456 1.399 . S
C456 C455 1.399 . S
C456 C457 1.396 . S
C456 C459 1.453 . S
C456 C460 1.684 . S
C457 C447 1.723 . S
C457 C456 1.396 . S
C457 C458 1.394 . S
C458 C428 1.723 . S
C458 C454 1.397 . S
C458 C457 1.394 . S
C459 H431 0.982 . S
C459 H435 0.979 . S
C459 H436 0.977 . S
C459 C456 1.453 . S
C460 H432 0.979 . S
C460 H433 0.980 . S
C460 H434 0.983 . S
C460 C456 1.684 . S
H461 C479 0.948 . S
H462 C420 0.948 . S
H463 C438 0.979 . S
H464 C438 0.980 . S
H465 C438 0.983 . S
H466 C437 0.982 . S
H467 C437 0.979 . S
H468 C437 0.977 . S
H469 C439 0.948 . S
H470 C441 0.947 . S
H471 C442 0.948 . S
H472 C448 0.982 . S
H473 C448 0.979 1_556 S
H474 C448 0.977 . S
H475 C449 0.979 . S
H476 C449 0.980 1_554 S
H477 C449 0.983 . S
H478 C422 0.947 . S
C479 C422 1.392 . S
C479 C423 1.419 . S
C479 H461 0.948 . S
C7 C451 3.431 . S
C51 C301 2.621 . S
C87 C361 2.707 . S
C16 C421 2.026 . S
C331 C42 3.415 . S
C391 C96 1.511 . S
C47 C181 1.802 . S
C91 C271 5.116 . S
C2 C151 3.576 . S
C211 C56 1.674 . S
C241 C82 4.777 . S
C11 C121 2.647 . S
C260 C19 1.992 . S
C50 C140 1.156 . S
C99 C200 1.342 . S
C380 C59 1.405 1_565 S
C440 C90 1.823 . S
C10 C320 1.161 . S
