# Generated by pormake.
# Topology zzz, (3,6)-cn, num edge types: 1
# Building blocks:
#     Node 0, Type 0, BuildingBlock: PAMTOO_clean_linker_0, # of connection points: 3
#     Node 1, Type 0, BuildingBlock: PAMTOO_clean_linker_0, # of connection points: 3
#     Node 2, Type 0, BuildingBlock: PAMTOO_clean_linker_0, # of connection points: 3
#     Node 3, Type 0, BuildingBlock: PAMTOO_clean_linker_0, # of connection points: 3
#     Node 4, Type 0, BuildingBlock: PAMTOO_clean_linker_0, # of connection points: 3
#     Node 5, Type 0, BuildingBlock: PAMTOO_clean_linker_0, # of connection points: 3
#     Node 6, Type 0, BuildingBlock: PAMTOO_clean_linker_0, # of connection points: 3
#     Node 7, Type 0, BuildingBlock: PAMTOO_clean_linker_0, # of connection points: 3
#     Node 8, Type 1, BuildingBlock: HISSIN_clean_sbu_0, # of connection points: 6
#     Node 9, Type 1, BuildingBlock: HISSIN_clean_sbu_0, # of connection points: 6
#     Node 10, Type 1, BuildingBlock: HISSIN_clean_sbu_0, # of connection points: 6
#     Node 11, Type 1, BuildingBlock: HISSIN_clean_sbu_0, # of connection points: 6
#     Edge 12, Type (0, 1), BuildingBlock: CIFDUS_clean_linker_0, # of connection points: 2
#     Edge 13, Type (0, 1), BuildingBlock: CIFDUS_clean_linker_0, # of connection points: 2
#     Edge 14, Type (0, 1), BuildingBlock: CIFDUS_clean_linker_0, # of connection points: 2
#     Edge 15, Type (0, 1), BuildingBlock: CIFDUS_clean_linker_0, # of connection points: 2
#     Edge 16, Type (0, 1), BuildingBlock: CIFDUS_clean_linker_0, # of connection points: 2
#     Edge 17, Type (0, 1), BuildingBlock: CIFDUS_clean_linker_0, # of connection points: 2
#     Edge 18, Type (0, 1), BuildingBlock: CIFDUS_clean_linker_0, # of connection points: 2
#     Edge 19, Type (0, 1), BuildingBlock: CIFDUS_clean_linker_0, # of connection points: 2
#     Edge 20, Type (0, 1), BuildingBlock: CIFDUS_clean_linker_0, # of connection points: 2
#     Edge 21, Type (0, 1), BuildingBlock: CIFDUS_clean_linker_0, # of connection points: 2
#     Edge 22, Type (0, 1), BuildingBlock: CIFDUS_clean_linker_0, # of connection points: 2
#     Edge 23, Type (0, 1), BuildingBlock: CIFDUS_clean_linker_0, # of connection points: 2
#     Edge 24, Type (0, 1), BuildingBlock: CIFDUS_clean_linker_0, # of connection points: 2
#     Edge 25, Type (0, 1), BuildingBlock: CIFDUS_clean_linker_0, # of connection points: 2
#     Edge 26, Type (0, 1), BuildingBlock: CIFDUS_clean_linker_0, # of connection points: 2
#     Edge 27, Type (0, 1), BuildingBlock: CIFDUS_clean_linker_0, # of connection points: 2
#     Edge 28, Type (0, 1), BuildingBlock: CIFDUS_clean_linker_0, # of connection points: 2
#     Edge 29, Type (0, 1), BuildingBlock: CIFDUS_clean_linker_0, # of connection points: 2
#     Edge 30, Type (0, 1), BuildingBlock: CIFDUS_clean_linker_0, # of connection points: 2
#     Edge 31, Type (0, 1), BuildingBlock: CIFDUS_clean_linker_0, # of connection points: 2
#     Edge 32, Type (0, 1), BuildingBlock: CIFDUS_clean_linker_0, # of connection points: 2
#     Edge 33, Type (0, 1), BuildingBlock: CIFDUS_clean_linker_0, # of connection points: 2
#     Edge 34, Type (0, 1), BuildingBlock: CIFDUS_clean_linker_0, # of connection points: 2
#     Edge 35, Type (0, 1), BuildingBlock: CIFDUS_clean_linker_0, # of connection points: 2
# Relax obj value: 0.298
# Max RMSD: 0.194
# Mean RMSD: 0.096
data_MOF--net-zzz--node1-HISSIN_clean_sbu_0--node2-PAMTOO_clean_linker_0--edge1-CIFDUS_clean_linker_0
_symmetry_space_group_name_H-M    P1
_symmetry_Int_Tables_number       1
_symmetry_cell_setting            triclinic
loop_
_symmetry_equiv_pos_as_xyz
'x, y, z'
_cell_length_a     43.311318
_cell_length_b     43.487322
_cell_length_c     14.265696
_cell_angle_alpha  90.243394
_cell_angle_beta   92.15791
_cell_angle_gamma 90.345403
loop_
_atom_site_label
_atom_site_type_symbol
_atom_site_fract_x
_atom_site_fract_y
_atom_site_fract_z
_atom_type_partial_charge
H0 H 0.85837 0.5606 0.25375 0.0
H1 H 0.76435 0.5662 0.15243 0.0
H2 H 0.78481 0.55937 0.44939 0.0
H3 H 0.70608 0.53418 0.36045 0.0
C4 C 0.72087 0.53685 0.29902 0.0
O5 O 0.73963 0.56267 0.31402 0.0
H6 H 0.73503 0.51558 0.29676 0.0
C7 C 0.83409 0.56277 0.26862 0.0
C8 C 0.82493 0.56184 0.36202 0.0
C9 C 0.81231 0.56329 0.19358 0.0
C10 C 0.78096 0.56509 0.21084 0.0
C11 C 0.77068 0.56296 0.30201 0.0
C12 C 0.7927 0.56105 0.37846 0.0
H13 H 0.97694 0.83347 0.34137 0.0
H14 H 0.98808 0.74622 0.20479 0.0
H15 H 0.05267 0.77543 0.42386 0.0
H16 H 1.00811 0.69969 0.32224 0.0
C17 C 0.03218 0.70207 0.29824 0.0
O18 O 0.03971 0.73314 0.28748 0.0
H19 H 0.04765 0.69235 0.35426 0.0
C20 C 0.98794 0.81132 0.33829 0.0
C21 C 1.01413 0.80671 0.39756 0.0
C22 C 0.97819 0.79019 0.26762 0.0
C23 C 0.99472 0.76278 0.25883 0.0
C24 C 1.02162 0.75727 0.31325 0.0
C25 C 0.03139 0.77924 0.38347 0.0
H26 H 0.73284 0.0858 0.37367 0.0
H27 H 0.81248 0.08031 0.20219 0.0
H28 H 0.78957 1.00513 0.3831 0.0
H29 H 0.86819 1.01752 0.32258 0.0
C30 C 0.85938 0.03153 0.26244 0.0
O31 O 0.82784 0.02515 0.2476 0.0
H32 H 0.86282 0.05599 0.28397 0.0
C33 C 0.75344 0.07399 0.35257 0.0
C34 C 0.75901 0.04473 0.38957 0.0
C35 C 0.77238 0.08733 0.28547 0.0
C36 C 0.79785 0.07071 0.25471 0.0
C37 C 0.80457 0.04122 0.28871 0.0
C38 C 0.78509 0.02813 0.35752 0.0
H39 H 0.49212 0.71627 0.32827 0.0
H40 H 0.50063 0.80208 0.18104 0.0
H41 H 0.55886 0.78387 0.4251 0.0
H42 H 0.54269 0.86144 0.36409 0.0
C43 C 0.53412 0.85248 0.29476 0.0
O44 O 0.54638 0.82325 0.28187 0.0
H45 H 0.50848 0.85126 0.29784 0.0
C46 C 0.50211 0.73905 0.3224 0.0
C47 C 0.52556 0.74776 0.38772 0.0
C48 C 0.49258 0.75834 0.2478 0.0
C49 C 0.5073 0.78694 0.23826 0.0
C50 C 0.53107 0.79649 0.30099 0.0
C51 C 0.54012 0.77693 0.37709 0.0
H52 H 0.2376 0.52842 0.2064 0.0
H53 H 0.33247 0.53231 0.30009 0.0
H54 H 0.30916 0.50905 1.01193 0.0
H55 H 0.38618 0.48484 0.10849 0.0
C56 C 0.37468 0.49427 0.1706 0.0
O57 O 0.35556 0.51821 0.14043 0.0
H58 H 0.36084 0.4752 0.2001 0.0
C59 C 0.2617 0.52505 0.19114 0.0
C60 C 0.26994 0.51746 0.09955 0.0
C61 C 0.28414 0.5304 0.26262 0.0
C62 C 0.31535 0.52779 0.24444 0.0
C63 C 0.32468 0.51942 0.15527 0.0
C64 C 0.30195 0.51457 0.08185 0.0
H65 H 1.00369 0.22773 0.14117 0.0
H66 H 1.0116 0.31758 0.26614 0.0
H67 H 0.06838 0.2936 0.03512 0.0
H68 H 0.09589 0.35782 0.18109 0.0
C69 C 0.07675 0.34821 0.22182 0.0
O70 O 0.05331 0.33851 0.15845 0.0
H71 H 0.08678 0.3282 0.26054 0.0
C72 C 1.01413 0.25049 0.14265 0.0
C73 C 0.03703 0.25746 0.07908 0.0
C74 C 1.00492 0.27196 0.20964 0.0
C75 C 1.01869 0.30107 0.21417 0.0
C76 C 0.04169 0.3092 0.15274 0.0
C77 C 0.05083 0.28738 0.08381 0.0
H78 H 0.34935 0.97777 0.13468 0.0
H79 H 0.26875 0.98191 0.30182 0.0
H80 H 0.2988 0.06215 0.15338 0.0
H81 H 0.22107 1.00988 0.22565 0.0
C82 C 0.22524 0.03442 0.24494 0.0
O83 O 0.25634 0.03895 0.27166 0.0
H84 H 0.2204 0.04797 0.1802 0.0
C85 C 0.32933 0.99006 0.15809 0.0
C86 C 0.32637 1.02101 0.13273 0.0
C87 C 0.30909 0.97562 0.21934 0.0
C88 C 0.28449 0.99256 0.25427 0.0
C89 C 0.28001 0.02349 0.23052 0.0
C90 C 0.30135 0.03801 0.16991 0.0
H91 H 0.58784 0.3288 0.11968 0.0
H92 H 0.57743 0.2425 0.26032 0.0
H93 H 0.50574 0.27408 0.06652 0.0
H94 H 0.48266 0.22221 0.23919 0.0
C95 C 0.50757 0.22242 0.26065 0.0
O96 O 0.52463 0.22771 0.18126 0.0
H97 H 0.51086 0.24177 0.31158 0.0
C98 C 0.57482 0.30771 0.12914 0.0
C99 C 0.54599 0.3042 0.08213 0.0
C100 C 0.58605 0.28599 0.19407 0.0
C101 C 0.56888 0.25929 0.20992 0.0
C102 C 0.54003 0.25458 0.16449 0.0
C103 C 0.52816 0.27742 0.10128 0.0
Eu104 Eu 1.01779 0.04698 0.65785 0.0
Eu105 Eu 0.0561 1.01639 0.82224 0.0
C106 C 0.04878 0.09222 0.82025 0.0
C107 C 0.9597 0.09097 0.50218 0.0
C108 C 0.95232 0.11169 0.57336 0.0
C109 C 0.93255 0.12259 0.38784 0.0
C110 C 0.9363 0.13863 0.55084 0.0
C111 C 0.94828 0.09565 0.41058 0.0
C112 C 0.92819 0.14539 0.45663 0.0
C113 C 0.98181 0.06627 0.51992 0.0
O114 O 1.00437 1.01021 0.85046 0.0
O115 O 0.98949 0.05501 0.78658 0.0
C116 C 0.98491 0.03329 0.84795 0.0
O117 O 1.00862 0.99492 0.64675 0.0
O118 O 0.06111 1.01326 0.97503 0.0
O119 O 0.08536 0.98116 0.88871 0.0
O120 O 0.05356 0.97817 0.71272 0.0
C121 C 0.02895 0.97278 0.6593 0.0
O122 O 0.06589 0.04071 0.59718 0.0
O123 O 0.09562 0.03009 0.72984 0.0
O124 O 0.0612 0.06734 0.85851 0.0
O125 O 1.01065 0.07479 0.5324 0.0
O126 O 0.97372 0.0453 0.57932 0.0
O127 O 0.03165 0.09035 0.74174 0.0
C128 C 0.05135 0.96142 0.99848 0.0
C129 C 0.03357 0.94592 0.92836 0.0
C130 C 1.01785 0.94026 0.115 0.0
C131 C 1.00801 0.92842 0.95055 0.0
C132 C 0.04319 0.95862 0.09218 0.0
C133 C 0.99992 0.92506 0.04406 0.0
C134 C 0.07261 0.98574 0.96908 0.0
C135 C 0.09326 0.03612 0.63911 0.0
H136 H 0.96065 0.108 0.64499 0.0
H137 H 0.92687 0.12674 0.31445 0.0
H138 H 0.9327 0.15534 0.60583 0.0
H139 H 0.9535 0.07956 0.35521 0.0
H140 H 0.03857 0.94825 0.85517 0.0
H141 H 1.01259 0.93768 0.18816 0.0
H142 H 0.99458 0.91747 0.89402 0.0
H143 H 0.05589 0.97114 0.14711 0.0
Eu144 Eu 0.55365 0.0482 0.82391 0.0
Eu145 Eu 0.52347 1.00449 0.65758 0.0
C146 C 0.53994 0.97654 0.86967 0.0
C147 C 0.60299 0.10955 0.94045 0.0
C148 C 0.62795 0.10293 0.88441 0.0
C149 C 0.63055 0.15453 1.00144 0.0
C150 C 0.6549 0.12044 0.89239 0.0
C151 C 0.60369 0.13641 0.99492 0.0
C152 C 0.65752 0.14531 0.95636 0.0
C153 C 0.57732 0.08746 0.94558 0.0
O154 O 0.48102 1.01994 0.73442 0.0
O155 O 0.50329 0.04164 0.86798 0.0
C156 C 0.47859 0.0315 0.81963 0.0
O157 O 0.54202 0.08088 0.70441 0.0
O158 O 0.52543 0.95852 0.59569 0.0
O159 O 0.4931 0.99205 0.53838 0.0
O160 O 0.5241 0.05066 0.58154 0.0
C161 C 0.53203 0.0778 0.61655 0.0
O162 O 0.59574 0.03985 0.7323 0.0
O163 O 0.57407 1.00705 0.62167 0.0
O164 O 0.52369 0.97524 0.78986 0.0
O165 O 0.5529 0.09326 0.89273 0.0
O166 O 0.58506 0.05851 0.94248 0.0
O167 O 0.55678 1.00095 0.89191 0.0
C168 C 0.47646 0.94067 0.54318 0.0
C169 C 0.45256 0.9455 0.60461 0.0
C170 C 0.44799 0.89745 0.47452 0.0
C171 C 0.42547 0.92821 0.59568 0.0
C172 C 0.47492 0.91542 0.48204 0.0
C173 C 0.42171 0.9054 0.52513 0.0
C174 C 0.50164 0.96327 0.53901 0.0
C175 C 0.59802 0.02279 0.65593 0.0
H176 H 0.62752 0.08283 0.83926 0.0
H177 H 0.63065 0.17442 0.04717 0.0
H178 H 0.67436 0.11219 0.85453 0.0
H179 H 0.58409 0.14253 0.03603 0.0
H180 H 0.45391 0.96424 0.65486 0.0
H181 H 0.4472 0.87891 0.42374 0.0
H182 H 0.40671 0.93528 0.63851 0.0
H183 H 0.49381 0.9106 0.43658 0.0
Eu184 Eu 0.51947 0.53454 0.78641 0.0
Eu185 Eu 0.57895 0.51551 0.66788 0.0
C186 C 0.58867 0.53848 0.88195 0.0
C187 C 0.45151 0.57764 0.88149 0.0
C188 C 0.46337 0.60564 0.85062 0.0
C189 C 0.40992 0.60484 0.95424 0.0
C190 C 0.45015 0.63316 0.87801 0.0
C191 C 0.42378 0.57719 0.92874 0.0
C192 C 0.42438 0.63327 0.93596 0.0
C193 C 0.47059 0.55001 0.87737 0.0
O194 O 0.57087 0.47361 0.75679 0.0
O195 O 0.52147 0.48188 0.80309 0.0
C196 C 0.54565 0.46372 0.79586 0.0
O197 O 0.50309 0.53314 0.63427 0.0
O198 O 0.62847 0.50738 0.66314 0.0
O199 O 0.59993 0.50252 0.53649 0.0
O200 O 0.53635 0.49647 0.58743 0.0
C201 C 0.51042 0.5118 0.57426 0.0
O202 O 0.53547 0.58106 0.72685 0.0
O203 O 0.56756 0.56312 0.6145 0.0
O204 O 0.59943 0.53962 0.79724 0.0
O205 O 0.46919 0.53433 0.79927 0.0
O206 O 0.49892 0.55369 0.90992 0.0
O207 O 0.55931 0.53256 0.89425 0.0
C208 C 0.64018 0.467 0.5597 0.0
C209 C 0.64401 0.44554 0.63263 0.0
C210 C 0.6519 0.42728 0.44729 0.0
C211 C 0.65072 0.4149 0.61252 0.0
C212 C 0.64559 0.45796 0.46759 0.0
C213 C 0.65313 0.40506 0.51907 0.0
C214 C 0.62693 0.4975 0.57685 0.0
C215 C 0.55206 0.58574 0.65193 0.0
H216 H 0.48457 0.60635 0.8127 0.0
H217 H 0.38929 0.6037 0.99454 0.0
H218 H 0.46243 0.65399 0.86111 0.0
H219 H 0.41398 0.5556 0.95143 0.0
H220 H 0.64013 0.45195 0.70467 0.0
H221 H 0.65317 0.42073 0.37425 0.0
H222 H 0.65203 0.39858 0.66964 0.0
H223 H 0.64284 0.47418 0.41045 0.0
Eu224 Eu 0.06313 0.56007 0.67493 0.0
Eu225 Eu 0.03048 0.50527 0.78679 0.0
C226 C 0.10449 0.51864 0.82129 0.0
C227 C 0.12263 0.61716 0.60491 0.0
C228 C 0.14133 0.60684 0.68075 0.0
C229 C 0.16801 0.63554 0.5286 0.0
C230 C 0.17343 0.60889 0.67717 0.0
C231 C 0.13592 0.63331 0.53199 0.0
C232 C 0.18697 0.62109 0.59735 0.0
C233 C 0.09124 0.60495 0.59145 0.0
O234 O 1.01901 0.54916 0.86719 0.0
O235 O 0.06008 0.57813 0.82435 0.0
C236 C 0.03726 0.57332 0.88069 0.0
O237 O 1.01206 0.56827 0.64395 0.0
O238 O 1.00966 0.48538 0.91018 0.0
O239 O 1.01389 0.45783 0.78517 0.0
O240 O 0.99189 0.52182 0.68693 0.0
C241 C 0.98878 0.54867 0.64566 0.0
O242 O 0.05509 0.52145 0.56664 0.0
O243 O 0.05474 0.48146 0.66881 0.0
O244 O 0.07865 0.50787 0.85509 0.0
O245 O 0.09 0.57681 0.55968 0.0
O246 O 0.07277 0.60918 0.66023 0.0
O247 O 0.10414 0.53538 0.74452 0.0
C248 C 0.96732 0.45468 0.86306 0.0
C249 C 0.94908 0.46364 0.78425 0.0
C250 C 0.92113 0.44955 0.95194 0.0
C251 C 0.91736 0.46754 0.79138 0.0
C252 C 0.95298 0.44599 0.94522 0.0
C253 C 0.90357 0.46223 0.87694 0.0
C254 C 1.00073 0.46051 0.86526 0.0
C255 C 0.05643 0.49164 0.58274 0.0
H256 H 0.13133 0.59438 0.73793 0.0
H257 H 0.17774 0.64497 0.46597 0.0
H258 H 0.18754 0.59774 0.7312 0.0
H259 H 0.12174 0.6414 0.47303 0.0
H260 H 0.95961 0.47026 0.71967 0.0
H261 H 0.9109 0.44574 0.01911 0.0
H262 H 0.90414 0.47746 0.73322 0.0
H263 H 0.96668 0.43912 1.00666 0.0
H264 H 0.21979 1.01251 0.42898 0.0
H265 H 0.17577 0.07313 0.2274 0.0
H266 H 0.13197 0.07915 0.32821 0.0
H267 H 0.10368 0.06474 0.46972 0.0
H268 H 0.14818 1.00635 0.67658 0.0
H269 H 0.19341 1.00215 0.57946 0.0
C270 C 0.20103 0.02772 0.40832 0.0
C271 C 0.20179 0.04273 0.32025 0.0
C272 C 0.17536 0.03118 0.46763 0.0
C273 C 0.17653 0.06166 0.29469 0.0
C274 C 0.1511 0.06493 0.35232 0.0
C275 C 0.12333 0.05126 0.49417 0.0
C276 C 0.12199 0.03576 0.58116 0.0
C277 C 0.14986 0.04938 0.43826 0.0
C278 C 0.14815 1.01867 0.61076 0.0
C279 C 0.17421 1.01617 0.55474 0.0
H280 H 0.52847 0.21265 0.44251 0.0
H281 H 0.50224 0.16308 0.18994 0.0
H282 H 0.50734 0.11408 0.27455 0.0
H283 H 0.51705 0.08508 0.42468 0.0
H284 H 0.54274 0.13672 0.6754 0.0
H285 H 0.53993 0.18432 0.58801 0.0
C286 C 0.52434 0.19112 0.40535 0.0
C287 C 0.51531 0.19176 0.30921 0.0
C288 C 0.52685 0.16305 0.45502 0.0
C289 C 0.50965 0.16343 0.26329 0.0
C290 C 0.51233 0.13534 0.31213 0.0
C291 C 0.52205 0.10671 0.46026 0.0
C292 C 0.52996 0.10671 0.55776 0.0
C293 C 0.5205 0.13477 0.40873 0.0
C294 C 0.53649 0.13536 0.60127 0.0
C295 C 0.53495 0.16293 0.55105 0.0
H296 H 0.42326 0.46061 0.23856 0.0
H297 H 0.38251 0.5502 0.26848 0.0
H298 H 0.42017 0.56277 0.39455 0.0
H299 H 0.46421 0.54807 0.50002 0.0
H300 H 0.50724 0.45981 0.46417 0.0
H301 H 0.4697 0.44727 0.33681 0.0
C302 C 0.42277 0.48299 0.27231 0.0
C303 C 0.39954 0.5041 0.24431 0.0
C304 C 0.44507 0.49038 0.34407 0.0
C305 C 0.39947 0.53308 0.28878 0.0
C306 C 0.42124 0.54041 0.36103 0.0
C307 C 0.46548 0.52608 0.46432 0.0
C308 C 0.48857 0.50482 0.49275 0.0
C309 C 0.44397 0.51915 0.38999 0.0
C310 C 0.48989 0.47665 0.44433 0.0
C311 C 0.4683 0.46942 0.37144 0.0
H312 H 0.08117 0.41199 0.21443 0.0
H313 H 0.05014 0.33893 0.3915 0.0
H314 H 0.04107 0.37609 0.51692 0.0
H315 H 0.04491 0.42916 0.581 0.0
H316 H 0.07497 0.50263 0.4033 0.0
H317 H 0.08158 0.46586 0.27516 0.0
C318 C 0.07191 0.40427 0.2799 0.0
C319 C 0.06633 0.37244 0.29288 0.0
C320 C 0.06704 0.42595 0.35279 0.0
C321 C 0.05446 0.36309 0.37878 0.0
C322 C 0.04954 0.3844 0.45109 0.0
C323 C 0.05291 0.43724 0.5143 0.0
C324 C 0.05973 0.46893 0.50314 0.0
C325 C 0.05629 0.41585 0.4398 0.0
C326 C 0.06962 0.47862 0.41502 0.0
C327 C 0.0734 0.45748 0.34127 0.0
H328 H 0.87788 0.07162 0.12349 0.0
H329 H 0.88713 0.97729 0.20976 0.0
H330 H 0.92589 0.96892 0.09117 0.0
H331 H 0.96058 0.98942 0.96903 0.0
H332 H 0.94961 0.08368 0.88127 0.0
H333 H 0.90913 0.09084 0.99331 0.0
C334 C 0.88794 0.04904 0.11533 0.0
C335 C 0.87925 0.02514 0.17644 0.0
C336 C 0.91071 0.04443 0.04712 0.0
C337 C 0.89298 0.99615 0.1642 0.0
C338 C 0.91552 0.99141 0.09668 0.0
C339 C 0.94923 1.01149 0.9738 0.0
C340 C 0.95871 0.03598 0.9156 0.0
C341 C 0.92517 1.01553 0.03872 0.0
C342 C 0.94323 0.06427 0.92391 0.0
C343 C 0.91987 0.06848 0.98858 0.0
H344 H 0.50652 0.85971 0.11812 0.0
H345 H 0.57974 0.89701 0.29757 0.0
H346 H 0.58857 0.93801 0.18411 0.0
H347 H 0.57352 0.96543 0.03642 0.0
H348 H 0.50047 0.9272 0.85677 0.0
H349 H 0.49372 0.88513 0.96635 0.0
C350 C 0.52473 0.87654 0.13166 0.0
C351 C 0.54238 0.87512 0.21692 0.0
C352 C 0.52955 0.90039 0.06592 0.0
C353 C 0.56581 0.89734 0.23293 0.0
C354 C 0.57075 0.921 0.16803 0.0
C355 C 0.55622 0.94785 0.02081 0.0
C356 C 0.53751 0.95001 0.93743 0.0
C357 C 0.55243 0.92316 0.08473 0.0
C358 C 0.51534 0.9266 0.91949 0.0
C359 C 0.51137 0.90231 0.98257 0.0
H360 H 0.66008 0.55527 0.27785 0.0
H361 H 0.7354 0.52136 0.1188 0.0
H362 H 0.70254 0.52166 0.97557 0.0
H363 H 0.65125 0.52855 0.89605 0.0
H364 H 0.57445 0.55716 0.05853 0.0
H365 H 0.60855 0.56159 0.19863 0.0
C366 C 0.66937 0.5483 0.21156 0.0
C367 C 0.70056 0.53909 0.2091 0.0
C368 C 0.6498 0.54719 0.12973 0.0
C369 C 0.71191 0.52951 0.12266 0.0
C370 C 0.69294 0.5293 0.04068 0.0
C371 C 0.64202 0.5361 0.96185 0.0
C372 C 0.61019 0.54272 0.96598 0.0
C373 C 0.66172 0.53778 0.04332 0.0
C374 C 0.59872 0.55192 0.05271 0.0
C375 C 0.61828 0.55447 0.13315 0.0
H376 H 0.99813 0.6517 0.23748 0.0
H377 H 0.07568 0.70728 0.16011 0.0
H378 H 0.08395 0.67318 0.02587 0.0
H379 H 0.06991 0.62641 0.93143 0.0
H380 H 0.99259 0.57067 1.01211 0.0
H381 H 0.98363 0.60568 0.1424 0.0
C382 C 1.01656 0.6567 0.19037 0.0
C383 C 0.03569 0.68279 0.20824 0.0
C384 C 1.02143 0.63662 0.11361 0.0
C385 C 0.06004 0.68806 0.1475 0.0
C386 C 0.06491 0.66833 0.07077 0.0
C387 C 0.05102 0.62186 0.97725 0.0
C388 C 0.03202 0.59549 0.96073 0.0
C389 C 0.04588 0.64235 0.05317 0.0
C390 C 1.00773 0.59043 0.02192 0.0
C391 C 1.00253 0.61059 0.09696 0.0
H392 H 0.94761 0.24761 0.18049 0.0
H393 H 1.01433 0.27399 0.39831 0.0
H394 H 0.98781 0.24216 0.51089 0.0
H395 H 0.95645 0.19634 0.53055 0.0
H396 H 0.89086 0.16772 0.31153 0.0
H397 H 0.90533 0.21183 0.21716 0.0
C398 C 0.95554 0.24718 0.25354 0.0
C399 C 0.98323 0.2622 0.28105 0.0
C400 C 0.9407 0.22813 0.317 0.0
C401 C 0.99319 0.26222 0.37577 0.0
C402 C 0.97816 0.24386 0.4399 0.0
C403 C 0.94404 0.20037 0.4644 0.0
C404 C 0.92387 0.17775 0.42578 0.0
C405 C 0.95334 0.22504 0.40926 0.0
C406 C 0.90754 0.18409 0.34097 0.0
C407 C 0.91596 0.2092 0.28664 0.0
H408 H 0.30128 0.95379 0.39764 0.0
H409 H 0.3352 0.92656 0.12889 0.0
H410 H 0.37085 0.89093 0.20635 0.0
H411 H 0.40263 0.88337 0.34896 0.0
H412 H 0.36578 0.90566 0.61797 0.0
H413 H 0.31953 0.92609 0.53972 0.0
C414 C 0.3152 0.9391 0.35481 0.0
C415 C 0.31745 0.9448 0.25808 0.0
C416 C 0.33554 0.91838 0.39961 0.0
C417 C 0.33467 0.92426 0.20439 0.0
C418 C 0.35501 0.90371 0.24856 0.0
C419 C 0.38434 0.89148 0.39214 0.0
C420 C 0.3897 0.89693 0.4891 0.0
C421 C 0.35762 0.90301 0.34666 0.0
C422 C 0.36395 0.90457 0.54218 0.0
C423 C 0.33723 0.91611 0.49755 0.0
H424 H 0.58744 0.2876 0.38233 0.0
H425 H 0.64333 0.30552 0.14489 0.0
H426 H 0.67689 0.33949 0.24089 0.0
H427 H 0.68044 0.37428 0.37669 0.0
H428 H 0.61871 0.36095 0.60414 0.0
H429 H 0.59877 0.31421 0.53081 0.0
C430 C 0.60785 0.29779 0.35295 0.0
C431 C 0.61265 0.29473 0.25663 0.0
C432 C 0.62577 0.31869 0.40692 0.0
C433 C 0.63908 0.30799 0.21891 0.0
C434 C 0.65805 0.32762 0.27355 0.0
C435 C 0.66313 0.36074 0.41123 0.0
C436 C 0.65034 0.37189 0.49392 0.0
C437 C 0.6501 0.33491 0.36538 0.0
C438 C 0.6289 0.35335 0.53995 0.0
C439 C 0.61707 0.32666 0.49732 0.0
H440 H 0.28985 0.58791 0.33035 0.0
H441 H 0.25595 0.49753 0.39584 0.0
H442 H 0.22933 0.51829 0.53041 0.0
H443 H 0.20683 0.56293 0.60361 0.0
H444 H 0.23438 0.65426 0.52332 0.0
H445 H 0.27341 0.63257 0.42271 0.0
C446 C 0.27738 0.57282 0.37629 0.0
C447 C 0.2745 0.54144 0.35424 0.0
C448 C 0.26096 0.58521 0.45021 0.0
C449 C 0.2582 0.5218 0.41243 0.0
C450 C 0.24299 0.53369 0.48882 0.0
C451 C 0.22231 0.57818 0.56751 0.0
C452 C 0.2176 0.61014 0.56991 0.0
C453 C 0.24294 0.56552 0.50517 0.0
C454 C 0.23757 0.62958 0.52194 0.0
C455 C 0.25956 0.61716 0.46363 0.0
H456 H 0.92925 0.83113 0.27287 0.0
H457 H 0.97563 0.77342 0.07757 0.0
H458 H 0.977 0.81505 0.96672 0.0
H459 H 0.98866 0.86974 0.96259 0.0
H460 H 0.95657 0.92973 0.17982 0.0
H461 H 0.92862 0.88679 0.2478 0.0
C462 C 0.93916 0.82758 0.20496 0.0
C463 C 0.95667 0.80092 0.18975 0.0
C464 C 0.9447 0.85318 0.14851 0.0
C465 C 0.96492 0.79482 0.09683 0.0
C466 C 0.96634 0.81899 0.03322 0.0
C467 C 0.97444 0.87393 0.02222 0.0
C468 C 0.97553 0.90266 0.06796 0.0
C469 C 0.96027 0.84889 0.06421 0.0
C470 C 0.95689 0.90754 0.14518 0.0
C471 C 0.94077 0.88301 0.18375 0.0
H472 H 0.77922 0.10434 0.10151 0.0
H473 H 0.74295 0.13721 0.36139 0.0
H474 H 0.70589 0.16886 0.27396 0.0
H475 H 0.67452 0.17141 0.12856 0.0
H476 H 0.71401 0.14422 0.86745 0.0
H477 H 0.76058 0.12749 0.95256 0.0
C478 C 0.76442 0.11941 0.14012 0.0
C479 C 0.76206 0.11625 0.23794 0.0
C480 C 0.74341 0.13803 0.08958 0.0
C481 C 0.74359 0.13733 0.28558 0.0
C482 C 0.72248 0.15568 0.23569 0.0
C483 C 0.69346 0.16309 0.08837 0.0
C484 C 0.68902 0.15531 0.9926 0.0
C485 C 0.72038 0.15377 0.13767 0.0
C486 C 0.71536 0.14725 0.94282 0.0
C487 C 0.74222 0.1378 0.99135 0.0
H488 H 0.44263 0.7207 0.2712 0.0
H489 H 0.49068 0.77005 0.05769 0.0
H490 H 0.46214 0.74143 0.93642 0.0
H491 H 0.43436 0.69431 0.89284 0.0
H492 H 0.39931 0.63666 0.11175 0.0
H493 H 0.40985 0.67689 0.22553 0.0
C494 C 0.44692 0.7253 0.19818 0.0
C495 C 0.46979 0.74679 0.17464 0.0
C496 C 0.43251 0.70686 0.12846 0.0
C497 C 0.47354 0.75359 0.0792 0.0
C498 C 0.45738 0.73692 1.00916 0.0
C499 C 0.42906 0.6903 0.96541 0.0
C500 C 0.41798 0.66131 0.99331 0.0
C501 C 0.43853 0.71211 0.03331 0.0
C502 C 0.40864 0.65806 0.08655 0.0
C503 C 0.41517 0.68105 0.153 0.0
H504 H 0.79693 0.51107 0.10584 0.0
H505 H 0.85096 0.5938 0.07844 0.0
H506 H 0.87891 0.5703 0.95044 0.0
H507 H 0.89593 0.52275 0.87728 0.0
H508 H 0.84891 0.43741 0.93089 0.0
H509 H 0.80944 0.46519 1.01566 0.0
C510 C 0.81399 0.52426 0.06891 0.0
C511 C 0.82205 0.55397 0.10029 0.0
C512 C 0.83138 0.50978 1.00117 0.0
C513 C 0.84451 0.57091 0.05433 0.0
C514 C 0.86056 0.55737 0.98204 0.0
C515 C 0.87625 0.51051 0.9043 0.0
C516 C 0.87495 0.47828 0.89821 0.0
C517 C 0.8554 0.52628 0.95906 0.0
C518 C 0.84999 0.46228 0.93476 0.0
C519 C 0.82773 0.47813 0.98383 0.0
H520 H 0.06362 0.202 0.1174 0.0
H521 H 1.02532 0.25505 0.88789 0.0
H522 H 0.02589 0.20938 0.78554 0.0
H523 H 0.03316 0.15237 0.76517 0.0
H524 H 0.07289 0.10093 0.99779 0.0
H525 H 0.07582 0.14731 0.09303 0.0
C526 C 0.05629 0.20384 0.04411 0.0
C527 C 0.04502 0.23236 1.01042 0.0
C528 C 0.05638 0.17728 0.98592 0.0
C529 C 0.03488 0.23385 0.9156 0.0
C530 C 0.0348 0.20746 0.85725 0.0
C531 C 0.04279 0.15132 0.83629 0.0
C532 C 0.05263 0.1225 0.87318 0.0
C533 C 0.04484 0.17872 0.89206 0.0
C534 C 0.06508 0.12222 0.96604 0.0
C535 C 0.06677 0.14897 0.02137 0.0
H536 H 0.34219 1.00368 0.95628 0.0
H537 H 0.37065 0.06474 0.18166 0.0
H538 H 0.42006 0.07399 0.10662 0.0
H539 H 0.45771 0.0608 0.98213 0.0
H540 H 0.42694 1.00038 0.75607 0.0
H541 H 0.37689 0.99492 0.82552 0.0
C542 C 0.35874 1.01987 0.98757 0.0
C543 C 0.35199 0.03398 0.07419 0.0
C544 C 0.38744 0.02469 0.94442 0.0
C545 C 0.37443 0.05419 0.11419 0.0
C546 C 0.40308 0.05907 0.0717 0.0
C547 C 0.44002 0.04664 0.94746 0.0
C548 C 0.44693 0.03085 0.86315 0.0
C549 C 0.4103 0.04384 0.9877 0.0
C550 C 0.42308 1.01285 0.82032 0.0
C551 C 0.39409 1.00966 0.86029 0.0
H552 H 0.57669 0.32845 0.93688 0.0
H553 H 0.49359 0.34024 0.08872 0.0
H554 H 0.48469 0.39009 1.01137 0.0
H555 H 0.50386 0.43328 0.91088 0.0
H556 H 0.58812 0.41952 0.76363 0.0
H557 H 0.59304 0.36834 0.82842 0.0
C558 C 0.55615 0.34154 0.95145 0.0
C559 C 0.53573 0.3302 0.01834 0.0
C560 C 0.55168 0.37052 0.90849 0.0
C561 C 0.50945 0.34786 0.03659 0.0
C562 C 0.50463 0.37671 0.99313 0.0
C563 C 0.52311 0.41899 0.89218 0.0
C564 C 0.54576 0.43106 0.83256 0.0
C565 C 0.52607 0.38879 0.93059 0.0
C566 C 0.57042 0.41167 0.80974 0.0
C567 C 0.57331 0.38204 0.84676 0.0
H568 H 0.21497 0.48687 0.1094 0.0
H569 H 0.26645 0.54359 0.92305 0.0
H570 H 0.22053 0.548 0.81743 0.0
H571 H 0.16384 0.53957 0.78573 0.0
H572 H 0.11339 0.48356 0.97796 0.0
H573 H 0.16037 0.47554 0.07295 0.0
C574 C 0.21636 0.49994 0.04508 0.0
C575 C 0.24436 0.51499 0.02498 0.0
C576 C 0.18965 0.50298 0.98601 0.0
C577 C 0.24552 0.53149 0.94044 0.0
C578 C 0.21903 0.53432 0.88045 0.0
C579 C 0.16313 0.52539 0.84793 0.0
C580 C 0.13458 0.51244 0.87425 0.0
C581 C 0.19065 0.5208 0.90364 0.0
C582 C 0.13457 0.49408 0.95538 0.0
C583 C 0.1616 0.48939 1.01018 0.0
H584 H 0.97674 0.8455 0.49578 0.0
H585 H 0.07306 0.82925 0.44846 0.0
H586 H 0.08651 0.87777 0.52965 0.0
H587 H 0.07028 0.92786 0.60251 0.0
H588 H 0.97297 0.94536 0.6268 0.0
H589 H 0.96072 0.89435 0.5634 0.0
C590 C 1.00082 0.8524 0.50205 0.0
C591 C 1.02369 0.83325 0.4635 0.0
C592 C 1.00821 0.8813 0.54359 0.0
C593 C 0.05472 0.84282 0.47694 0.0
C594 C 0.06242 0.87101 0.52252 0.0
C595 C 0.04639 0.92047 0.59412 0.0
C596 C 1.02256 0.94091 0.61977 0.0
C597 C 0.0393 0.89093 0.5542 0.0
C598 C 0.99181 0.93065 0.60744 0.0
C599 C 0.98477 0.90124 0.5714 0.0
H600 H 0.70303 1.01662 0.35135 0.0
H601 H 0.76021 0.05166 0.58082 0.0
H602 H 0.71638 0.04857 0.68487 0.0
H603 H 0.65955 0.03988 0.7081 0.0
H604 H 0.6037 1.00386 0.47525 0.0
H605 H 0.64838 1.00347 0.37768 0.0
C606 C 0.70629 0.02238 0.42511 0.0
C607 C 0.73562 0.03326 0.45824 0.0
C608 C 0.68057 0.0211 0.48451 0.0
C609 C 0.73855 0.04203 0.55348 0.0
C610 C 0.71314 0.04078 0.61292 0.0
C611 C 0.65714 0.03171 0.63631 0.0
C612 C 0.62753 0.02198 0.6005 0.0
C613 C 0.68366 0.03102 0.57896 0.0
C614 C 0.62561 1.01145 0.50657 0.0
C615 C 0.65142 1.01119 0.44979 0.0
H616 H 0.56411 0.69893 0.37209 0.0
H617 H 0.50357 0.74193 0.56463 0.0
H618 H 0.50652 0.69647 0.66643 0.0
H619 H 0.52291 0.64172 0.69371 0.0
H620 H 0.5836 0.60015 0.49632 0.0
H621 H 0.58392 0.64704 0.4057 0.0
C622 C 0.55248 0.69882 0.43811 0.0
C623 C 0.53443 0.72443 0.46175 0.0
C624 C 0.55375 0.6722 0.4953 0.0
C625 C 0.51847 0.72314 0.5459 0.0
C626 C 0.51981 0.69681 0.60358 0.0
C627 C 0.53648 0.64298 0.63151 0.0
C628 C 0.55302 0.61666 0.60286 0.0
C629 C 0.53682 0.67073 0.57808 0.0
C630 C 0.5704 0.61937 0.52137 0.0
C631 C 0.5707 0.64647 0.4687 0.0
H632 H 0.8772 0.59666 0.38462 0.0
H633 H 0.83002 0.52012 0.50723 0.0
H634 H 0.87591 0.50963 0.6083 0.0
H635 H 0.93162 0.51961 0.65174 0.0
H636 H 0.97765 0.59663 0.52639 0.0
H637 H 0.93051 0.60916 0.43677 0.0
C638 C 0.87674 0.57792 0.4345 0.0
C639 C 0.84999 0.55919 0.43776 0.0
C640 C 0.90342 0.57172 0.49113 0.0
C641 C 0.84996 0.53516 0.50349 0.0
C642 C 0.87645 0.52892 0.56061 0.0
C643 C 0.93131 0.53921 0.60526 0.0
C644 C 0.95866 0.55687 0.59589 0.0
C645 C 0.90368 0.54658 0.55343 0.0
C646 C 0.95737 0.58243 0.53558 0.0
C647 C 0.93026 0.58969 0.48389 0.0
loop_
_geom_bond_atom_site_label_1
_geom_bond_atom_site_label_2
_geom_bond_distance
_geom_bond_site_symmetry_2
_ccdc_geom_bond_type
H0 C7 0.929 . S
H1 C10 0.930 . S
H2 C12 0.929 . S
H3 C4 0.969 . S
C4 H3 0.969 . S
C4 O5 1.550 . S
C4 H6 0.973 . S
O5 C4 1.550 . S
O5 C11 1.412 . S
H6 C4 0.973 . S
C7 H0 0.929 . S
C7 C8 1.400 . S
C7 C9 1.364 . S
C8 C7 1.400 . S
C8 C12 1.377 . S
C9 C7 1.364 . S
C9 C10 1.374 . S
C10 H1 0.930 . S
C10 C9 1.374 . S
C10 C11 1.383 . S
C11 O5 1.412 . S
C11 C10 1.383 . S
C11 C12 1.394 . S
C12 H2 0.929 . S
C12 C8 1.377 . S
C12 C11 1.394 . S
H13 C20 0.929 . S
H14 C23 0.930 . S
H15 C25 0.929 . S
H16 C17 0.969 . S
C17 H16 0.969 . S
C17 O18 1.550 . S
C17 H19 0.973 . S
O18 C17 1.550 . S
O18 C24 1.412 . S
H19 C17 0.973 . S
C20 H13 0.929 . S
C20 C21 1.400 . S
C20 C22 1.364 . S
C21 C20 1.400 . S
C21 C25 1.377 . S
C22 C20 1.364 . S
C22 C23 1.374 . S
C23 H14 0.930 . S
C23 C22 1.374 . S
C23 C24 1.383 . S
C24 O18 1.412 . S
C24 C23 1.383 . S
C24 C25 1.394 . S
C25 H15 0.929 . S
C25 C21 1.377 . S
C25 C24 1.394 . S
H26 C33 0.929 . S
H27 C36 0.930 . S
H28 C38 0.929 . S
H29 C30 0.969 1_545 S
C30 H29 0.969 1_565 S
C30 O31 1.550 . S
C30 H32 0.973 . S
O31 C30 1.550 . S
O31 C37 1.412 . S
H32 C30 0.973 . S
C33 H26 0.929 . S
C33 C34 1.400 . S
C33 C35 1.364 . S
C34 C33 1.400 . S
C34 C38 1.377 . S
C35 C33 1.364 . S
C35 C36 1.374 . S
C36 H27 0.930 . S
C36 C35 1.374 . S
C36 C37 1.383 . S
C37 O31 1.412 . S
C37 C36 1.383 . S
C37 C38 1.394 . S
C38 H28 0.929 . S
C38 C34 1.377 . S
C38 C37 1.394 . S
H39 C46 0.929 . S
H40 C49 0.930 . S
H41 C51 0.929 . S
H42 C43 0.969 . S
C43 H42 0.969 . S
C43 O44 1.550 . S
C43 H45 0.973 . S
O44 C43 1.550 . S
O44 C50 1.412 . S
H45 C43 0.973 . S
C46 H39 0.929 . S
C46 C47 1.400 . S
C46 C48 1.364 . S
C47 C46 1.400 . S
C47 C51 1.377 . S
C48 C46 1.364 . S
C48 C49 1.374 . S
C49 H40 0.930 . S
C49 C48 1.374 . S
C49 C50 1.383 . S
C50 O44 1.412 . S
C50 C49 1.383 . S
C50 C51 1.394 . S
C51 H41 0.929 . S
C51 C47 1.377 . S
C51 C50 1.394 . S
H52 C59 0.929 . S
H53 C62 0.930 . S
H54 C64 0.929 . S
H55 C56 0.969 . S
C56 H55 0.969 . S
C56 O57 1.550 . S
C56 H58 0.973 . S
O57 C56 1.550 . S
O57 C63 1.412 . S
H58 C56 0.973 . S
C59 H52 0.929 . S
C59 C60 1.400 1_554 S
C59 C61 1.364 . S
C60 C59 1.400 1_556 S
C60 C64 1.377 . S
C61 C59 1.364 . S
C61 C62 1.374 . S
C62 H53 0.930 . S
C62 C61 1.374 . S
C62 C63 1.383 . S
C63 O57 1.412 . S
C63 C62 1.383 . S
C63 C64 1.394 1_554 S
C64 H54 0.929 . S
C64 C60 1.377 . S
C64 C63 1.394 1_556 S
H65 C72 0.929 . S
H66 C75 0.930 . S
H67 C77 0.929 . S
H68 C69 0.969 . S
C69 H68 0.969 . S
C69 O70 1.550 . S
C69 H71 0.973 . S
O70 C69 1.550 . S
O70 C76 1.412 . S
H71 C69 0.973 . S
C72 H65 0.929 . S
C72 C73 1.400 1_554 S
C72 C74 1.364 . S
C73 C72 1.400 1_556 S
C73 C77 1.377 . S
C74 C72 1.364 . S
C74 C75 1.374 . S
C75 H66 0.930 . S
C75 C74 1.374 . S
C75 C76 1.383 . S
C76 O70 1.412 . S
C76 C75 1.383 . S
C76 C77 1.394 1_554 S
C77 H67 0.929 . S
C77 C73 1.377 . S
C77 C76 1.394 1_556 S
H78 C85 0.929 1_556 S
H79 C88 0.930 . S
H80 C90 0.929 . S
H81 C82 0.969 . S
C82 H81 0.969 . S
C82 O83 1.550 . S
C82 H84 0.973 . S
O83 C82 1.550 . S
O83 C89 1.412 . S
H84 C82 0.973 . S
C85 H78 0.929 1_554 S
C85 C86 1.400 1_554 S
C85 C87 1.364 . S
C86 C85 1.400 1_556 S
C86 C90 1.377 . S
C87 C85 1.364 . S
C87 C88 1.374 . S
C88 H79 0.930 . S
C88 C87 1.374 . S
C88 C89 1.383 . S
C89 O83 1.412 . S
C89 C88 1.383 . S
C89 C90 1.394 1_554 S
C90 H80 0.929 . S
C90 C86 1.377 . S
C90 C89 1.394 1_556 S
H91 C98 0.929 . S
H92 C101 0.930 . S
H93 C103 0.929 . S
H94 C95 0.969 . S
C95 H94 0.969 . S
C95 O96 1.550 . S
C95 H97 0.973 . S
O96 C95 1.550 . S
O96 C102 1.412 . S
H97 C95 0.973 . S
C98 H91 0.929 . S
C98 C99 1.400 1_554 S
C98 C100 1.364 . S
C99 C98 1.400 1_556 S
C99 C103 1.377 . S
C100 C98 1.364 . S
C100 C101 1.374 . S
C101 H92 0.930 . S
C101 C100 1.374 . S
C101 C102 1.383 . S
C102 O96 1.412 . S
C102 C101 1.383 . S
C102 C103 1.394 1_554 S
C103 H93 0.929 . S
C103 C99 1.377 . S
C103 C102 1.394 1_556 S
Eu104 C113 2.828 . S
Eu104 O115 2.392 . S
Eu104 O117 2.418 1_545 S
Eu104 O122 2.373 1_655 S
Eu104 O125 2.488 . S
Eu104 O126 2.471 . S
Eu104 O127 2.349 1_655 S
Eu105 O114 2.373 1_455 S
Eu105 O118 2.488 . S
Eu105 O119 2.471 . S
Eu105 O120 2.349 . S
Eu105 O123 2.392 1_565 S
Eu105 O124 2.418 1_565 S
Eu105 C134 2.828 . S
C106 O124 1.244 . S
C106 O127 1.265 . S
C107 C108 1.379 1_655 S
C107 C111 1.373 . S
C107 C113 1.505 . S
C108 C107 1.379 1_455 S
C108 C110 1.369 . S
C108 H136 0.930 . S
C109 C111 1.383 . S
C109 C112 1.382 1_655 S
C109 H137 0.930 . S
C110 C108 1.369 . S
C110 C112 1.392 . S
C110 H138 0.930 . S
C111 C107 1.373 . S
C111 C109 1.383 . S
C111 H139 0.931 . S
C112 C109 1.382 1_455 S
C112 C110 1.392 . S
C113 Eu104 2.828 . S
C113 C107 1.505 . S
C113 O125 1.249 . S
C113 O126 1.244 . S
O114 Eu105 2.373 1_655 S
O114 C116 1.258 1_565 S
O115 Eu104 2.392 . S
O115 C116 1.242 . S
C116 O114 1.258 1_545 S
C116 O115 1.242 . S
O117 Eu104 2.418 1_565 S
O117 C121 1.244 . S
O118 Eu105 2.488 . S
O118 C134 1.249 . S
O119 Eu105 2.471 . S
O119 C134 1.244 . S
O120 Eu105 2.349 . S
O120 C121 1.265 1_455 S
C121 O117 1.244 . S
C121 O120 1.265 1_655 S
O122 Eu104 2.373 1_455 S
O122 C135 1.258 . S
O123 Eu105 2.392 1_545 S
O123 C135 1.242 . S
O124 Eu105 2.418 1_545 S
O124 C106 1.244 . S
O125 Eu104 2.488 . S
O125 C113 1.249 . S
O126 Eu104 2.471 . S
O126 C113 1.244 . S
O127 Eu104 2.349 1_455 S
O127 C106 1.265 . S
C128 C129 1.379 . S
C128 C132 1.373 . S
C128 C134 1.505 1_554 S
C129 C128 1.379 . S
C129 C131 1.369 . S
C129 H140 0.930 1_454 S
C130 C132 1.383 . S
C130 C133 1.382 . S
C130 H141 0.930 . S
C131 C129 1.369 . S
C131 C133 1.392 . S
C131 H142 0.930 1_455 S
C132 C128 1.373 . S
C132 C130 1.383 . S
C132 H143 0.931 . S
C133 C130 1.382 . S
C133 C131 1.392 . S
C134 Eu105 2.828 . S
C134 O118 1.249 . S
C134 O119 1.244 . S
C134 C128 1.505 1_556 S
C135 O122 1.258 . S
C135 O123 1.242 . S
H136 C108 0.930 . S
H137 C109 0.930 . S
H138 C110 0.930 . S
H139 C111 0.931 . S
H140 C129 0.930 1_656 S
H141 C130 0.930 . S
H142 C131 0.930 1_655 S
H143 C132 0.931 . S
Eu144 C153 2.828 . S
Eu144 O155 2.392 . S
Eu144 O157 2.418 . S
Eu144 O162 2.373 . S
Eu144 O165 2.488 . S
Eu144 O166 2.471 . S
Eu144 O167 2.349 1_545 S
Eu145 O154 2.373 1_565 S
Eu145 O158 2.488 . S
Eu145 O159 2.471 1_565 S
Eu145 O160 2.349 1_565 S
Eu145 O163 2.392 . S
Eu145 O164 2.418 . S
Eu145 C174 2.828 . S
C146 O164 1.244 . S
C146 O167 1.265 . S
C147 C148 1.376 1_556 S
C147 C151 1.373 . S
C147 C153 1.505 . S
C148 C147 1.376 1_554 S
C148 C150 1.373 . S
C148 H176 0.929 1_544 S
C149 C151 1.383 1_554 S
C149 C152 1.382 . S
C149 H177 0.930 . S
C150 C148 1.373 . S
C150 C152 1.392 . S
C150 H178 0.930 1_545 S
C151 C147 1.373 . S
C151 C149 1.383 1_556 S
C151 H179 0.931 . S
C152 C149 1.382 . S
C152 C150 1.392 . S
C153 Eu144 2.828 . S
C153 C147 1.505 . S
C153 O165 1.249 . S
C153 O166 1.244 . S
O154 Eu145 2.373 1_545 S
O154 C156 1.258 . S
O155 Eu144 2.392 . S
O155 C156 1.242 . S
C156 O154 1.258 . S
C156 O155 1.242 . S
O157 Eu144 2.418 . S
O157 C161 1.244 . S
O158 Eu145 2.488 . S
O158 C174 1.249 . S
O159 Eu145 2.471 1_545 S
O159 C174 1.244 1_545 S
O160 Eu145 2.349 1_545 S
O160 C161 1.265 . S
C161 O157 1.244 . S
C161 O160 1.265 . S
O162 Eu144 2.373 . S
O162 C175 1.258 1_545 S
O163 Eu145 2.392 . S
O163 C175 1.242 . S
O164 Eu145 2.418 . S
O164 C146 1.244 . S
O165 Eu144 2.488 . S
O165 C153 1.249 . S
O166 Eu144 2.471 . S
O166 C153 1.244 . S
O167 Eu144 2.349 1_565 S
O167 C146 1.265 . S
C168 C169 1.379 1_565 S
C168 C172 1.373 . S
C168 C174 1.505 . S
C169 C168 1.379 1_545 S
C169 C171 1.369 . S
C169 H180 0.930 . S
C170 C172 1.383 . S
C170 C173 1.382 . S
C170 H181 0.930 . S
C171 C169 1.369 . S
C171 C173 1.392 1_545 S
C171 H182 0.930 . S
C172 C168 1.373 . S
C172 C170 1.383 . S
C172 H183 0.931 . S
C173 C170 1.382 . S
C173 C171 1.392 1_565 S
C174 Eu145 2.828 . S
C174 O158 1.249 . S
C174 O159 1.244 1_565 S
C174 C168 1.505 . S
C175 O162 1.258 1_565 S
C175 O163 1.242 . S
H176 C148 0.929 1_566 S
H177 C149 0.930 . S
H178 C150 0.930 1_565 S
H179 C151 0.931 . S
H180 C169 0.930 . S
H181 C170 0.930 . S
H182 C171 0.930 . S
H183 C172 0.931 . S
Eu184 C193 2.828 . S
Eu184 O195 2.392 . S
Eu184 O197 2.418 . S
Eu184 O202 2.373 . S
Eu184 O205 2.488 . S
Eu184 O206 2.471 . S
Eu184 O207 2.349 . S
Eu185 O194 2.373 . S
Eu185 O198 2.488 . S
Eu185 O199 2.471 . S
Eu185 O200 2.349 . S
Eu185 O203 2.392 . S
Eu185 O204 2.418 . S
Eu185 C214 2.828 . S
C186 O204 1.244 . S
C186 O207 1.265 . S
C187 C188 1.379 . S
C187 C191 1.373 . S
C187 C193 1.505 . S
C188 C187 1.379 . S
C188 C190 1.369 1_556 S
C188 H216 0.930 . S
C189 C191 1.383 1_554 S
C189 C192 1.382 . S
C189 H217 0.930 . S
C190 C188 1.369 1_554 S
C190 C192 1.392 . S
C190 H218 0.930 . S
C191 C187 1.373 . S
C191 C189 1.383 1_556 S
C191 H219 0.931 . S
C192 C189 1.382 . S
C192 C190 1.392 . S
C193 Eu184 2.828 . S
C193 C187 1.505 . S
C193 O205 1.249 . S
C193 O206 1.244 . S
O194 Eu185 2.373 . S
O194 C196 1.258 . S
O195 Eu184 2.392 . S
O195 C196 1.242 . S
C196 O194 1.258 . S
C196 O195 1.242 . S
O197 Eu184 2.418 . S
O197 C201 1.244 . S
O198 Eu185 2.488 . S
O198 C214 1.249 . S
O199 Eu185 2.471 . S
O199 C214 1.244 . S
O200 Eu185 2.349 . S
O200 C201 1.265 . S
C201 O197 1.244 . S
C201 O200 1.265 . S
O202 Eu184 2.373 . S
O202 C215 1.258 . S
O203 Eu185 2.392 . S
O203 C215 1.242 . S
O204 Eu185 2.418 . S
O204 C186 1.244 . S
O205 Eu184 2.488 . S
O205 C193 1.249 . S
O206 Eu184 2.471 . S
O206 C193 1.244 . S
O207 Eu184 2.349 . S
O207 C186 1.265 . S
C208 C209 1.379 . S
C208 C212 1.373 . S
C208 C214 1.505 . S
C209 C208 1.379 . S
C209 C211 1.369 . S
C209 H220 0.930 . S
C210 C212 1.383 . S
C210 C213 1.382 . S
C210 H221 0.930 . S
C211 C209 1.369 . S
C211 C213 1.392 . S
C211 H222 0.930 . S
C212 C208 1.373 . S
C212 C210 1.383 . S
C212 H223 0.931 . S
C213 C210 1.382 . S
C213 C211 1.392 . S
C214 Eu185 2.828 . S
C214 O198 1.249 . S
C214 O199 1.244 . S
C214 C208 1.505 . S
C215 O202 1.258 . S
C215 O203 1.242 . S
H216 C188 0.930 . S
H217 C189 0.930 . S
H218 C190 0.930 . S
H219 C191 0.931 . S
H220 C209 0.930 . S
H221 C210 0.930 . S
H222 C211 0.930 . S
H223 C212 0.931 . S
Eu224 C233 2.828 . S
Eu224 O235 2.392 . S
Eu224 O237 2.418 1_455 S
Eu224 O242 2.373 . S
Eu224 O245 2.488 . S
Eu224 O246 2.471 . S
Eu224 O247 2.349 . S
Eu225 O234 2.373 . S
Eu225 O238 2.488 . S
Eu225 O239 2.471 . S
Eu225 O240 2.349 . S
Eu225 O243 2.392 1_655 S
Eu225 O244 2.418 1_655 S
Eu225 C254 2.828 . S
C226 O244 1.244 . S
C226 O247 1.265 . S
C227 C228 1.379 . S
C227 C231 1.373 . S
C227 C233 1.505 . S
C228 C227 1.379 . S
C228 C230 1.369 . S
C228 H256 0.930 . S
C229 C231 1.383 . S
C229 C232 1.382 . S
C229 H257 0.930 . S
C230 C228 1.369 . S
C230 C232 1.392 . S
C230 H258 0.930 . S
C231 C227 1.373 . S
C231 C229 1.383 . S
C231 H259 0.931 . S
C232 C229 1.382 . S
C232 C230 1.392 . S
C233 Eu224 2.828 . S
C233 C227 1.505 . S
C233 O245 1.249 . S
C233 O246 1.244 . S
O234 Eu225 2.373 . S
O234 C236 1.262 . S
O235 Eu224 2.392 . S
O235 C236 1.231 1_455 S
C236 O234 1.262 . S
C236 O235 1.231 1_655 S
O237 Eu224 2.418 1_655 S
O237 C241 1.244 . S
O238 Eu225 2.488 . S
O238 C254 1.249 . S
O239 Eu225 2.471 . S
O239 C254 1.244 . S
O240 Eu225 2.349 . S
O240 C241 1.265 . S
C241 O237 1.244 . S
C241 O240 1.265 . S
O242 Eu224 2.373 . S
O242 C255 1.258 . S
O243 Eu225 2.392 1_455 S
O243 C255 1.242 . S
O244 Eu225 2.418 1_455 S
O244 C226 1.244 . S
O245 Eu224 2.488 . S
O245 C233 1.249 . S
O246 Eu224 2.471 . S
O246 C233 1.244 . S
O247 Eu224 2.349 . S
O247 C226 1.265 . S
C248 C249 1.379 . S
C248 C252 1.373 . S
C248 C254 1.505 1_554 S
C249 C248 1.379 . S
C249 C251 1.371 . S
C249 H260 0.927 1_554 S
C250 C252 1.383 . S
C250 C253 1.382 . S
C250 H261 0.930 . S
C251 C249 1.371 . S
C251 C253 1.392 . S
C251 H262 0.930 . S
C252 C248 1.373 . S
C252 C250 1.383 . S
C252 H263 0.931 . S
C253 C250 1.382 . S
C253 C251 1.392 . S
C254 Eu225 2.828 . S
C254 O238 1.249 . S
C254 O239 1.244 . S
C254 C248 1.505 1_556 S
C255 O242 1.258 . S
C255 O243 1.242 . S
H256 C228 0.930 . S
H257 C229 0.930 . S
H258 C230 0.930 . S
H259 C231 0.931 . S
H260 C249 0.927 1_556 S
H261 C250 0.930 . S
H262 C251 0.930 . S
H263 C252 0.931 . S
H264 C270 0.930 1_565 S
H265 C273 0.930 . S
H266 C274 0.930 . S
H267 C275 0.930 . S
H268 C278 0.930 . S
H269 C279 0.930 . S
C270 H264 0.930 1_545 S
C270 C271 1.355 . S
C270 C272 1.415 . S
C271 C270 1.355 . S
C271 C273 1.419 . S
C272 C270 1.415 . S
C272 C277 1.425 . S
C272 C279 1.409 1_545 S
C273 H265 0.930 . S
C273 C271 1.419 . S
C273 C274 1.362 . S
C274 H266 0.930 . S
C274 C273 1.362 . S
C274 C277 1.409 . S
C275 H267 0.930 . S
C275 C276 1.355 . S
C275 C277 1.415 . S
C276 C275 1.355 . S
C276 C278 1.419 1_545 S
C277 C272 1.425 . S
C277 C274 1.409 . S
C277 C275 1.415 . S
C278 H268 0.930 . S
C278 C276 1.419 1_565 S
C278 C279 1.362 . S
C279 H269 0.930 . S
C279 C272 1.409 1_565 S
C279 C278 1.362 . S
H280 C286 0.930 . S
H281 C289 0.930 . S
H282 C290 0.930 . S
H283 C291 0.930 . S
H284 C294 0.930 . S
H285 C295 0.930 . S
C286 H280 0.930 . S
C286 C287 1.355 . S
C286 C288 1.415 . S
C287 C286 1.355 . S
C287 C289 1.419 . S
C288 C286 1.415 . S
C288 C293 1.425 . S
C288 C295 1.409 . S
C289 H281 0.930 . S
C289 C287 1.419 . S
C289 C290 1.362 . S
C290 H282 0.930 . S
C290 C289 1.362 . S
C290 C293 1.409 . S
C291 H283 0.930 . S
C291 C292 1.355 . S
C291 C293 1.415 . S
C292 C291 1.355 . S
C292 C294 1.419 . S
C293 C288 1.425 . S
C293 C290 1.409 . S
C293 C291 1.415 . S
C294 H284 0.930 . S
C294 C292 1.419 . S
C294 C295 1.362 . S
C295 H285 0.930 . S
C295 C288 1.409 . S
C295 C294 1.362 . S
H296 C302 0.930 . S
H297 C305 0.930 . S
H298 C306 0.930 . S
H299 C307 0.930 . S
H300 C310 0.930 . S
H301 C311 0.930 . S
C302 H296 0.930 . S
C302 C303 1.355 . S
C302 C304 1.415 . S
C303 C302 1.355 . S
C303 C305 1.419 . S
C304 C302 1.415 . S
C304 C309 1.425 . S
C304 C311 1.409 . S
C305 H297 0.930 . S
C305 C303 1.419 . S
C305 C306 1.362 . S
C306 H298 0.930 . S
C306 C305 1.362 . S
C306 C309 1.409 . S
C307 H299 0.930 . S
C307 C308 1.355 . S
C307 C309 1.415 . S
C308 C307 1.355 . S
C308 C310 1.419 . S
C309 C304 1.425 . S
C309 C306 1.409 . S
C309 C307 1.415 . S
C310 H300 0.930 . S
C310 C308 1.419 . S
C310 C311 1.362 . S
C311 H301 0.930 . S
C311 C304 1.409 . S
C311 C310 1.362 . S
H312 C318 0.930 . S
H313 C321 0.930 1_655 S
H314 C322 0.930 1_655 S
H315 C323 0.930 1_655 S
H316 C326 0.930 . S
H317 C327 0.930 . S
C318 H312 0.930 . S
C318 C319 1.355 . S
C318 C320 1.415 . S
C319 C318 1.355 . S
C319 C321 1.419 . S
C320 C318 1.415 . S
C320 C325 1.425 . S
C320 C327 1.409 . S
C321 H313 0.930 1_455 S
C321 C319 1.419 . S
C321 C322 1.362 . S
C322 H314 0.930 1_455 S
C322 C321 1.362 . S
C322 C325 1.409 . S
C323 H315 0.930 1_455 S
C323 C324 1.355 . S
C323 C325 1.415 . S
C324 C323 1.355 . S
C324 C326 1.419 . S
C325 C320 1.425 . S
C325 C322 1.409 . S
C325 C323 1.415 . S
C326 H316 0.930 . S
C326 C324 1.419 . S
C326 C327 1.362 . S
C327 H317 0.930 . S
C327 C320 1.409 . S
C327 C326 1.362 . S
H328 C334 0.930 1_545 S
H329 C337 0.930 . S
H330 C338 0.930 . S
H331 C339 0.930 . S
H332 C342 0.930 . S
H333 C343 0.930 . S
C334 H328 0.930 1_565 S
C334 C335 1.355 . S
C334 C336 1.415 . S
C335 C334 1.355 . S
C335 C337 1.419 . S
C336 C334 1.415 . S
C336 C341 1.425 . S
C336 C343 1.409 1_565 S
C337 H329 0.930 . S
C337 C335 1.419 . S
C337 C338 1.362 . S
C338 H330 0.930 . S
C338 C337 1.362 . S
C338 C341 1.409 . S
C339 H331 0.930 . S
C339 C340 1.355 1_554 S
C339 C341 1.415 . S
C340 C339 1.355 1_556 S
C340 C342 1.419 1_565 S
C341 C336 1.425 . S
C341 C338 1.409 . S
C341 C339 1.415 . S
C342 H332 0.930 . S
C342 C340 1.419 1_545 S
C342 C343 1.362 1_556 S
C343 H333 0.930 . S
C343 C336 1.409 1_545 S
C343 C342 1.362 1_554 S
H344 C350 0.930 . S
H345 C353 0.930 . S
H346 C354 0.930 . S
H347 C355 0.929 1_554 S
H348 C358 0.930 . S
H349 C359 0.930 . S
C350 H344 0.930 . S
C350 C351 1.355 . S
C350 C352 1.415 . S
C351 C350 1.355 . S
C351 C353 1.419 . S
C352 C350 1.415 . S
C352 C357 1.425 . S
C352 C359 1.409 1_554 S
C353 H345 0.930 . S
C353 C351 1.419 . S
C353 C354 1.362 . S
C354 H346 0.930 . S
C354 C353 1.362 . S
C354 C357 1.409 . S
C355 H347 0.929 1_556 S
C355 C356 1.355 . S
C355 C357 1.415 1_556 S
C356 C355 1.355 . S
C356 C358 1.419 . S
C357 C352 1.425 . S
C357 C354 1.409 . S
C357 C355 1.415 1_554 S
C358 H348 0.930 . S
C358 C356 1.419 . S
C358 C359 1.362 . S
C359 H349 0.930 . S
C359 C352 1.409 1_556 S
C359 C358 1.362 . S
H360 C366 0.930 . S
H361 C369 0.930 . S
H362 C370 0.930 1_556 S
H363 C371 0.930 . S
H364 C374 0.930 . S
H365 C375 0.930 . S
C366 H360 0.930 . S
C366 C367 1.355 . S
C366 C368 1.415 . S
C367 C366 1.355 . S
C367 C369 1.419 . S
C368 C366 1.415 . S
C368 C373 1.425 . S
C368 C375 1.409 . S
C369 H361 0.930 . S
C369 C367 1.419 . S
C369 C370 1.362 . S
C370 H362 0.930 1_554 S
C370 C369 1.362 . S
C370 C373 1.409 . S
C371 H363 0.930 . S
C371 C372 1.355 . S
C371 C373 1.415 1_556 S
C372 C371 1.355 . S
C372 C374 1.419 . S
C373 C368 1.425 . S
C373 C370 1.409 . S
C373 C371 1.415 1_554 S
C374 H364 0.930 . S
C374 C372 1.419 . S
C374 C375 1.362 1_556 S
C375 H365 0.930 . S
C375 C368 1.409 . S
C375 C374 1.362 1_554 S
H376 C382 0.930 . S
H377 C385 0.930 . S
H378 C386 0.930 . S
H379 C387 0.930 1_556 S
H380 C390 0.930 . S
H381 C391 0.930 . S
C382 H376 0.930 . S
C382 C383 1.355 . S
C382 C384 1.415 . S
C383 C382 1.355 . S
C383 C385 1.419 1_655 S
C384 C382 1.415 . S
C384 C389 1.425 . S
C384 C391 1.409 . S
C385 H377 0.930 . S
C385 C383 1.419 1_455 S
C385 C386 1.362 . S
C386 H378 0.930 . S
C386 C385 1.362 . S
C386 C389 1.409 1_455 S
C387 H379 0.930 1_554 S
C387 C388 1.355 1_454 S
C387 C389 1.415 1_455 S
C388 C387 1.355 1_656 S
C388 C390 1.419 . S
C389 C384 1.425 . S
C389 C386 1.409 1_655 S
C389 C387 1.415 1_655 S
C390 H380 0.930 . S
C390 C388 1.419 . S
C390 C391 1.362 1_556 S
C391 H381 0.930 . S
C391 C384 1.409 . S
C391 C390 1.362 1_554 S
H392 C398 0.930 . S
H393 C401 0.930 . S
H394 C402 0.930 . S
H395 C403 0.930 . S
H396 C406 0.930 . S
H397 C407 0.930 . S
C398 H392 0.930 . S
C398 C399 1.355 . S
C398 C400 1.415 . S
C399 C398 1.355 . S
C399 C401 1.419 . S
C400 C398 1.415 . S
C400 C405 1.425 . S
C400 C407 1.409 1_455 S
C401 H393 0.930 . S
C401 C399 1.419 . S
C401 C402 1.362 . S
C402 H394 0.930 . S
C402 C401 1.362 . S
C402 C405 1.409 . S
C403 H395 0.930 . S
C403 C404 1.355 . S
C403 C405 1.415 . S
C404 C403 1.355 . S
C404 C406 1.419 1_455 S
C405 C400 1.425 . S
C405 C402 1.409 . S
C405 C403 1.415 . S
C406 H396 0.930 . S
C406 C404 1.419 1_655 S
C406 C407 1.362 . S
C407 H397 0.930 . S
C407 C400 1.409 1_655 S
C407 C406 1.362 . S
H408 C414 0.930 . S
H409 C417 0.930 . S
H410 C418 0.930 . S
H411 C419 0.930 . S
H412 C422 0.930 . S
H413 C423 0.930 . S
C414 H408 0.930 . S
C414 C415 1.355 . S
C414 C416 1.415 . S
C415 C414 1.355 . S
C415 C417 1.419 . S
C416 C414 1.415 . S
C416 C421 1.423 . S
C416 C423 1.409 . S
C417 H409 0.930 . S
C417 C415 1.419 . S
C417 C418 1.362 1_545 S
C418 H410 0.930 . S
C418 C417 1.362 1_565 S
C418 C421 1.410 1_565 S
C419 H411 0.930 . S
C419 C420 1.355 . S
C419 C421 1.417 1_565 S
C420 C419 1.355 . S
C420 C422 1.419 1_565 S
C421 C416 1.423 . S
C421 C418 1.410 1_545 S
C421 C419 1.417 1_545 S
C422 H412 0.930 . S
C422 C420 1.419 1_545 S
C422 C423 1.362 . S
C423 H413 0.930 . S
C423 C416 1.409 . S
C423 C422 1.362 . S
H424 C430 0.930 . S
H425 C433 0.930 . S
H426 C434 0.930 . S
H427 C435 0.930 . S
H428 C438 0.930 . S
H429 C439 0.930 . S
C430 H424 0.930 . S
C430 C431 1.355 . S
C430 C432 1.415 . S
C431 C430 1.355 . S
C431 C433 1.419 . S
C432 C430 1.415 . S
C432 C437 1.425 . S
C432 C439 1.409 . S
C433 H425 0.930 . S
C433 C431 1.419 . S
C433 C434 1.362 . S
C434 H426 0.930 . S
C434 C433 1.362 . S
C434 C437 1.409 . S
C435 H427 0.930 . S
C435 C436 1.355 . S
C435 C437 1.415 . S
C436 C435 1.355 . S
C436 C438 1.419 . S
C437 C432 1.425 . S
C437 C434 1.409 . S
C437 C435 1.415 . S
C438 H428 0.930 . S
C438 C436 1.419 . S
C438 C439 1.362 . S
C439 H429 0.930 . S
C439 C432 1.409 . S
C439 C438 1.362 . S
H440 C446 0.930 . S
H441 C449 0.930 . S
H442 C450 0.930 . S
H443 C451 0.930 . S
H444 C454 0.930 . S
H445 C455 0.930 . S
C446 H440 0.930 . S
C446 C447 1.355 . S
C446 C448 1.415 . S
C447 C446 1.355 . S
C447 C449 1.419 . S
C448 C446 1.415 . S
C448 C453 1.425 . S
C448 C455 1.409 . S
C449 H441 0.930 . S
C449 C447 1.419 . S
C449 C450 1.362 . S
C450 H442 0.930 . S
C450 C449 1.362 . S
C450 C453 1.409 . S
C451 H443 0.930 . S
C451 C452 1.355 . S
C451 C453 1.415 . S
C452 C451 1.355 . S
C452 C454 1.419 . S
C453 C448 1.425 . S
C453 C450 1.409 . S
C453 C451 1.415 . S
C454 H444 0.930 . S
C454 C452 1.419 . S
C454 C455 1.362 . S
C455 H445 0.930 . S
C455 C448 1.409 . S
C455 C454 1.362 . S
H456 C462 0.930 . S
H457 C465 0.945 . S
H458 C466 0.930 . S
H459 C467 0.930 . S
H460 C470 0.930 . S
H461 C471 0.930 . S
C462 H456 0.930 . S
C462 C463 1.355 . S
C462 C464 1.415 . S
C463 C462 1.355 . S
C463 C465 1.383 1_655 S
C464 C462 1.415 . S
C464 C469 1.425 1_655 S
C464 C471 1.409 . S
C465 H457 0.945 . S
C465 C463 1.383 1_455 S
C465 C466 1.385 . S
C466 H458 0.930 . S
C466 C465 1.385 . S
C466 C469 1.409 . S
C467 H459 0.930 . S
C467 C468 1.355 . S
C467 C469 1.415 . S
C468 C467 1.355 . S
C468 C470 1.419 1_455 S
C469 C464 1.425 1_455 S
C469 C466 1.409 . S
C469 C467 1.415 . S
C470 H460 0.930 . S
C470 C468 1.419 1_655 S
C470 C471 1.362 . S
C471 H461 0.930 . S
C471 C464 1.409 . S
C471 C470 1.362 . S
H472 C478 0.930 . S
H473 C481 0.930 . S
H474 C482 0.930 . S
H475 C483 0.930 . S
H476 C486 0.930 1_556 S
H477 C487 0.930 . S
C478 H472 0.930 . S
C478 C479 1.355 . S
C478 C480 1.415 . S
C479 C478 1.355 . S
C479 C481 1.419 1_565 S
C480 C478 1.415 . S
C480 C485 1.425 1_565 S
C480 C487 1.409 . S
C481 H473 0.930 . S
C481 C479 1.419 1_545 S
C481 C482 1.362 . S
C482 H474 0.930 . S
C482 C481 1.362 . S
C482 C485 1.409 . S
C483 H475 0.930 . S
C483 C484 1.355 . S
C483 C485 1.415 . S
C484 C483 1.355 . S
C484 C486 1.419 . S
C485 C480 1.425 1_545 S
C485 C482 1.409 . S
C485 C483 1.415 . S
C486 H476 0.930 1_554 S
C486 C484 1.419 . S
C486 C487 1.362 1_545 S
C487 H477 0.930 . S
C487 C480 1.409 . S
C487 C486 1.362 1_565 S
H488 C494 0.930 . S
H489 C497 0.930 . S
H490 C498 0.930 . S
H491 C499 0.930 1_556 S
H492 C502 0.930 . S
H493 C503 0.930 . S
C494 H488 0.930 . S
C494 C495 1.355 . S
C494 C496 1.415 . S
C495 C494 1.355 . S
C495 C497 1.419 . S
C496 C494 1.415 . S
C496 C501 1.425 . S
C496 C503 1.409 . S
C497 H489 0.930 . S
C497 C495 1.419 . S
C497 C498 1.362 . S
C498 H490 0.930 . S
C498 C497 1.362 . S
C498 C501 1.409 . S
C499 H491 0.930 1_554 S
C499 C500 1.355 . S
C499 C501 1.415 . S
C500 C499 1.355 . S
C500 C502 1.419 . S
C501 C496 1.425 . S
C501 C498 1.409 . S
C501 C499 1.415 . S
C502 H492 0.930 . S
C502 C500 1.419 . S
C502 C503 1.362 . S
C503 H493 0.930 . S
C503 C496 1.409 . S
C503 C502 1.362 . S
H504 C510 0.930 . S
H505 C513 0.930 . S
H506 C514 0.930 . S
H507 C515 0.930 . S
H508 C518 0.930 . S
H509 C519 0.930 . S
C510 H504 0.930 . S
C510 C511 1.355 . S
C510 C512 1.415 . S
C511 C510 1.355 . S
C511 C513 1.419 . S
C512 C510 1.415 . S
C512 C517 1.425 . S
C512 C519 1.409 . S
C513 H505 0.930 . S
C513 C511 1.419 . S
C513 C514 1.362 . S
C514 H506 0.930 . S
C514 C513 1.362 . S
C514 C517 1.409 . S
C515 H507 0.930 . S
C515 C516 1.355 . S
C515 C517 1.415 . S
C516 C515 1.355 . S
C516 C518 1.419 . S
C517 C512 1.425 . S
C517 C514 1.409 . S
C517 C515 1.415 . S
C518 H508 0.930 . S
C518 C516 1.419 . S
C518 C519 1.362 . S
C519 H509 0.930 . S
C519 C512 1.409 . S
C519 C518 1.362 . S
H520 C526 0.930 . S
H521 C529 0.930 . S
H522 C530 0.930 1_655 S
H523 C531 0.930 1_655 S
H524 C534 0.930 . S
H525 C535 0.930 . S
C526 H520 0.930 . S
C526 C527 1.355 . S
C526 C528 1.415 . S
C527 C526 1.355 . S
C527 C529 1.419 . S
C528 C526 1.415 . S
C528 C533 1.425 . S
C528 C535 1.409 . S
C529 H521 0.930 . S
C529 C527 1.419 . S
C529 C530 1.362 . S
C530 H522 0.930 1_455 S
C530 C529 1.362 . S
C530 C533 1.409 . S
C531 H523 0.930 1_455 S
C531 C532 1.355 . S
C531 C533 1.415 . S
C532 C531 1.355 . S
C532 C534 1.419 . S
C533 C528 1.425 . S
C533 C530 1.409 . S
C533 C531 1.415 . S
C534 H524 0.930 . S
C534 C532 1.419 . S
C534 C535 1.362 . S
C535 H525 0.930 . S
C535 C528 1.409 . S
C535 C534 1.362 . S
H536 C542 0.930 . S
H537 C545 0.930 . S
H538 C546 0.930 . S
H539 C547 0.930 . S
H540 C550 0.930 . S
H541 C551 0.945 . S
C542 H536 0.930 . S
C542 C543 1.355 . S
C542 C544 1.415 . S
C543 C542 1.355 . S
C543 C545 1.419 . S
C544 C542 1.415 . S
C544 C549 1.425 . S
C544 C551 1.409 . S
C545 H537 0.930 . S
C545 C543 1.419 . S
C545 C546 1.362 . S
C546 H538 0.930 . S
C546 C545 1.362 . S
C546 C549 1.409 . S
C547 H539 0.930 . S
C547 C548 1.355 . S
C547 C549 1.415 . S
C548 C547 1.355 . S
C548 C550 1.419 . S
C549 C544 1.425 . S
C549 C546 1.409 . S
C549 C547 1.415 . S
C550 H540 0.930 . S
C550 C548 1.419 . S
C550 C551 1.362 . S
C551 H541 0.945 . S
C551 C544 1.409 . S
C551 C550 1.362 . S
H552 C558 0.930 . S
H553 C561 0.930 . S
H554 C562 0.930 . S
H555 C563 0.930 . S
H556 C566 0.930 . S
H557 C567 0.930 . S
C558 H552 0.930 . S
C558 C559 1.355 . S
C558 C560 1.415 . S
C559 C558 1.355 . S
C559 C561 1.419 . S
C560 C558 1.415 . S
C560 C565 1.425 . S
C560 C567 1.409 . S
C561 H553 0.930 . S
C561 C559 1.419 . S
C561 C562 1.362 . S
C562 H554 0.930 . S
C562 C561 1.362 . S
C562 C565 1.409 . S
C563 H555 0.930 . S
C563 C564 1.355 . S
C563 C565 1.415 . S
C564 C563 1.355 . S
C564 C566 1.419 . S
C565 C560 1.425 . S
C565 C562 1.409 . S
C565 C563 1.415 . S
C566 H556 0.930 . S
C566 C564 1.419 . S
C566 C567 1.362 . S
C567 H557 0.930 . S
C567 C560 1.409 . S
C567 C566 1.362 . S
H568 C574 0.930 . S
H569 C577 0.930 . S
H570 C578 0.930 . S
H571 C579 0.930 . S
H572 C582 0.930 . S
H573 C583 0.930 . S
C574 H568 0.930 . S
C574 C575 1.355 . S
C574 C576 1.415 . S
C575 C574 1.355 . S
C575 C577 1.419 . S
C576 C574 1.415 . S
C576 C581 1.425 . S
C576 C583 1.409 . S
C577 H569 0.930 . S
C577 C575 1.419 . S
C577 C578 1.362 . S
C578 H570 0.930 . S
C578 C577 1.362 . S
C578 C581 1.409 . S
C579 H571 0.930 . S
C579 C580 1.355 . S
C579 C581 1.415 . S
C580 C579 1.355 . S
C580 C582 1.419 . S
C581 C576 1.425 . S
C581 C578 1.409 . S
C581 C579 1.415 . S
C582 H572 0.930 . S
C582 C580 1.419 . S
C582 C583 1.362 . S
C583 H573 0.930 . S
C583 C576 1.409 . S
C583 C582 1.362 . S
H584 C590 0.930 . S
H585 C593 0.930 . S
H586 C594 0.930 . S
H587 C595 0.930 . S
H588 C598 0.930 . S
H589 C599 0.930 . S
C590 H584 0.930 . S
C590 C591 1.355 . S
C590 C592 1.415 . S
C591 C590 1.355 . S
C591 C593 1.419 1_655 S
C592 C590 1.415 . S
C592 C597 1.425 . S
C592 C599 1.409 . S
C593 H585 0.930 . S
C593 C591 1.419 1_455 S
C593 C594 1.362 . S
C594 H586 0.930 . S
C594 C593 1.362 . S
C594 C597 1.409 1_455 S
C595 H587 0.930 . S
C595 C596 1.355 1_455 S
C595 C597 1.415 1_455 S
C596 C595 1.355 1_655 S
C596 C598 1.419 . S
C597 C592 1.425 . S
C597 C594 1.409 1_655 S
C597 C595 1.415 1_655 S
C598 H588 0.930 . S
C598 C596 1.419 . S
C598 C599 1.362 . S
C599 H589 0.930 . S
C599 C592 1.409 . S
C599 C598 1.362 . S
H600 C606 0.916 1_545 S
H601 C609 0.930 . S
H602 C610 0.930 . S
H603 C611 0.930 . S
H604 C614 0.919 1_545 S
H605 C615 0.935 . S
C606 H600 0.916 1_565 S
C606 C607 1.355 . S
C606 C608 1.415 . S
C607 C606 1.355 . S
C607 C609 1.419 . S
C608 C606 1.415 . S
C608 C613 1.425 . S
C608 C615 1.405 1_565 S
C609 H601 0.930 . S
C609 C607 1.419 . S
C609 C610 1.362 . S
C610 H602 0.930 . S
C610 C609 1.362 . S
C610 C613 1.409 . S
C611 H603 0.930 . S
C611 C612 1.355 . S
C611 C613 1.415 . S
C612 C611 1.355 . S
C612 C614 1.432 . S
C613 C608 1.425 . S
C613 C610 1.409 . S
C613 C611 1.415 . S
C614 H604 0.919 1_565 S
C614 C612 1.432 . S
C614 C615 1.362 1_565 S
C615 H605 0.935 . S
C615 C608 1.405 1_545 S
C615 C614 1.362 1_545 S
H616 C622 0.930 . S
H617 C625 0.930 . S
H618 C626 0.930 . S
H619 C627 0.930 . S
H620 C630 0.930 . S
H621 C631 0.930 . S
C622 H616 0.930 . S
C622 C623 1.355 . S
C622 C624 1.415 . S
C623 C622 1.355 . S
C623 C625 1.419 . S
C624 C622 1.415 . S
C624 C629 1.425 . S
C624 C631 1.409 . S
C625 H617 0.930 . S
C625 C623 1.419 . S
C625 C626 1.362 . S
C626 H618 0.930 . S
C626 C625 1.362 . S
C626 C629 1.409 . S
C627 H619 0.930 . S
C627 C628 1.355 . S
C627 C629 1.415 . S
C628 C627 1.355 . S
C628 C630 1.419 . S
C629 C624 1.425 . S
C629 C626 1.409 . S
C629 C627 1.415 . S
C630 H620 0.930 . S
C630 C628 1.419 . S
C630 C631 1.362 . S
C631 H621 0.930 . S
C631 C624 1.409 . S
C631 C630 1.362 . S
H632 C638 0.930 . S
H633 C641 0.930 . S
H634 C642 0.930 . S
H635 C643 0.930 . S
H636 C646 0.930 . S
H637 C647 0.930 . S
C638 H632 0.930 . S
C638 C639 1.355 . S
C638 C640 1.415 . S
C639 C638 1.355 . S
C639 C641 1.419 . S
C640 C638 1.415 . S
C640 C645 1.425 . S
C640 C647 1.409 . S
C641 H633 0.930 . S
C641 C639 1.419 . S
C641 C642 1.362 . S
C642 H634 0.930 . S
C642 C641 1.362 . S
C642 C645 1.409 . S
C643 H635 0.930 . S
C643 C644 1.355 . S
C643 C645 1.415 . S
C644 C643 1.355 . S
C644 C646 1.419 . S
C645 C640 1.425 . S
C645 C642 1.409 . S
C645 C643 1.415 . S
C646 H636 0.930 . S
C646 C644 1.419 . S
C646 C647 1.362 . S
C647 H637 0.930 . S
C647 C640 1.409 . S
C647 C646 1.362 . S
C271 C82 1.998 . S
C276 C135 2.362 . S
C292 C161 1.991 . S
C287 C95 1.641 . S
C308 C201 2.028 . S
C303 C56 1.665 . S
C324 C255 2.384 . S
C319 C69 2.067 . S
C340 C116 2.371 1_565 S
C335 C30 2.013 . S
C351 C43 1.704 . S
C356 C146 1.999 . S
C367 C4 1.630 . S
C372 C186 2.030 . S
C383 C17 2.005 . S
C388 C236 2.395 . S
C404 C112 0.748 . S
C399 C74 0.773 . S
C420 C173 0.778 . S
C415 C87 0.724 . S
C436 C213 0.583 . S
C431 C100 0.609 . S
C447 C61 0.680 . S
C452 C232 0.633 . S
C463 C22 0.629 . S
C468 C133 0.642 . S
C484 C152 0.753 . S
C479 C35 0.708 . S
C500 C192 0.617 . S
C495 C48 0.677 . S
C511 C9 0.501 . S
C516 C253 0.481 . S
C527 C73 1.992 . S
C532 C106 2.219 . S
C543 C86 2.355 . S
C548 C156 2.621 . S
C564 C196 2.423 . S
C559 C99 2.210 . S
C580 C226 2.000 . S
C575 C60 1.813 . S
C591 C21 1.952 . S
C596 C121 2.215 . S
C612 C175 2.628 . S
C607 C34 2.423 . S
C628 C215 2.428 . S
C623 C47 2.182 . S
C639 C8 1.807 . S
C644 C241 2.000 . S
