# Generated by pormake.
# Topology pyr, (3,6)-cn, num edge types: 1
# Building blocks:
#     Node 0, Type 0, BuildingBlock: KAKCAD_clean_linker_0, # of connection points: 3
#     Node 1, Type 0, BuildingBlock: KAKCAD_clean_linker_0, # of connection points: 3
#     Node 2, Type 0, BuildingBlock: KAKCAD_clean_linker_0, # of connection points: 3
#     Node 3, Type 0, BuildingBlock: KAKCAD_clean_linker_0, # of connection points: 3
#     Node 4, Type 0, BuildingBlock: KAKCAD_clean_linker_0, # of connection points: 3
#     Node 5, Type 0, BuildingBlock: KAKCAD_clean_linker_0, # of connection points: 3
#     Node 6, Type 0, BuildingBlock: KAKCAD_clean_linker_0, # of connection points: 3
#     Node 7, Type 0, BuildingBlock: KAKCAD_clean_linker_0, # of connection points: 3
#     Node 8, Type 1, BuildingBlock: LEVNOQ01_clean_sbu_1, # of connection points: 6
#     Node 9, Type 1, BuildingBlock: LEVNOQ01_clean_sbu_1, # of connection points: 6
#     Node 10, Type 1, BuildingBlock: LEVNOQ01_clean_sbu_1, # of connection points: 6
#     Node 11, Type 1, BuildingBlock: LEVNOQ01_clean_sbu_1, # of connection points: 6
#     Edge 12, Type (0, 1), BuildingBlock: UVAHIK_clean_linker_0, # of connection points: 2
#     Edge 13, Type (0, 1), BuildingBlock: UVAHIK_clean_linker_0, # of connection points: 2
#     Edge 14, Type (0, 1), BuildingBlock: UVAHIK_clean_linker_0, # of connection points: 2
#     Edge 15, Type (0, 1), BuildingBlock: UVAHIK_clean_linker_0, # of connection points: 2
#     Edge 16, Type (0, 1), BuildingBlock: UVAHIK_clean_linker_0, # of connection points: 2
#     Edge 17, Type (0, 1), BuildingBlock: UVAHIK_clean_linker_0, # of connection points: 2
#     Edge 18, Type (0, 1), BuildingBlock: UVAHIK_clean_linker_0, # of connection points: 2
#     Edge 19, Type (0, 1), BuildingBlock: UVAHIK_clean_linker_0, # of connection points: 2
#     Edge 20, Type (0, 1), BuildingBlock: UVAHIK_clean_linker_0, # of connection points: 2
#     Edge 21, Type (0, 1), BuildingBlock: UVAHIK_clean_linker_0, # of connection points: 2
#     Edge 22, Type (0, 1), BuildingBlock: UVAHIK_clean_linker_0, # of connection points: 2
#     Edge 23, Type (0, 1), BuildingBlock: UVAHIK_clean_linker_0, # of connection points: 2
#     Edge 24, Type (0, 1), BuildingBlock: UVAHIK_clean_linker_0, # of connection points: 2
#     Edge 25, Type (0, 1), BuildingBlock: UVAHIK_clean_linker_0, # of connection points: 2
#     Edge 26, Type (0, 1), BuildingBlock: UVAHIK_clean_linker_0, # of connection points: 2
#     Edge 27, Type (0, 1), BuildingBlock: UVAHIK_clean_linker_0, # of connection points: 2
#     Edge 28, Type (0, 1), BuildingBlock: UVAHIK_clean_linker_0, # of connection points: 2
#     Edge 29, Type (0, 1), BuildingBlock: UVAHIK_clean_linker_0, # of connection points: 2
#     Edge 30, Type (0, 1), BuildingBlock: UVAHIK_clean_linker_0, # of connection points: 2
#     Edge 31, Type (0, 1), BuildingBlock: UVAHIK_clean_linker_0, # of connection points: 2
#     Edge 32, Type (0, 1), BuildingBlock: UVAHIK_clean_linker_0, # of connection points: 2
#     Edge 33, Type (0, 1), BuildingBlock: UVAHIK_clean_linker_0, # of connection points: 2
#     Edge 34, Type (0, 1), BuildingBlock: UVAHIK_clean_linker_0, # of connection points: 2
#     Edge 35, Type (0, 1), BuildingBlock: UVAHIK_clean_linker_0, # of connection points: 2
# Relax obj value: 0.034
# Max RMSD: 0.110
# Mean RMSD: 0.045
data_MOF--net-pry--node1-LEVNOQ01_clean_sbu_1--node2-KAKCAD_clean_linker_0--edge1-UVAHIK_clean_linker_0
_symmetry_space_group_name_H-M    P1
_symmetry_Int_Tables_number       1
_symmetry_cell_setting            triclinic
loop_
_symmetry_equiv_pos_as_xyz
'x, y, z'
_cell_length_a     57.040526
_cell_length_b     55.054165
_cell_length_c     55.036284
_cell_angle_alpha  92.484179
_cell_angle_beta   91.101676
_cell_angle_gamma 94.188257
loop_
_atom_site_label
_atom_site_type_symbol
_atom_site_fract_x
_atom_site_fract_y
_atom_site_fract_z
_atom_type_partial_charge
C0 C 0.08592 0.10321 0.19345 0.0
C1 C 0.10071 0.10064 0.21375 0.0
C2 C 0.0952 0.11192 0.17177 0.0
C3 C 0.11953 0.11767 0.16981 0.0
C4 C 0.13431 0.11458 0.19001 0.0
C5 C 0.12498 0.1064 0.21181 0.0
C6 C 0.12955 0.12728 0.14698 0.0
C7 C 0.12004 0.14707 0.13604 0.0
C8 C 0.12999 0.15709 0.11506 0.0
C9 C 0.14994 0.14678 0.10525 0.0
C10 C 0.15996 0.12703 0.11605 0.0
C11 C 0.1493 0.11731 0.13677 0.0
C12 C 0.18194 0.11701 0.10631 0.0
C13 C 0.18686 0.11688 0.08127 0.0
C14 C 0.1985 0.10774 0.12217 0.0
C15 C 0.21905 0.09846 0.11332 0.0
C16 C 0.22397 0.09872 0.08846 0.0
C17 C 0.12 0.17879 0.10405 0.0
C18 C 0.09579 0.18233 0.10535 0.0
C19 C 0.13457 0.19655 0.09268 0.0
C20 C 0.12529 0.21717 0.08321 0.0
C21 C 0.1013 0.2209 0.08527 0.0
C22 C 0.08666 0.2032 0.09636 0.0
C23 C 0.20775 0.10811 0.07252 0.0
H24 H 0.06714 0.09893 0.19454 0.0
H25 H 0.0834 0.11403 0.15647 0.0
H26 H 0.15309 0.11898 0.18912 0.0
H27 H 0.13674 0.10451 0.22719 0.0
H28 H 0.10539 0.15521 0.14458 0.0
H29 H 0.15618 0.10172 0.14502 0.0
H30 H 0.15788 0.15437 0.08931 0.0
H31 H 0.17452 0.12335 0.06829 0.0
H32 H 0.19591 0.10802 0.1416 0.0
H33 H 0.23142 0.0916 0.12604 0.0
H34 H 0.08374 0.16896 0.11331 0.0
H35 H 0.15332 0.19501 0.09162 0.0
H36 H 0.21111 0.10838 0.05322 0.0
H37 H 0.06803 0.20545 0.09798 0.0
H38 H 0.13706 0.23062 0.07497 0.0
C39 C 0.38312 0.91388 0.70062 0.0
C40 C 0.40763 0.91666 0.70397 0.0
C41 C 0.37324 0.90466 0.67848 0.0
C42 C 0.38773 0.89812 0.6593 0.0
C43 C 0.41228 0.90076 0.66272 0.0
C44 C 0.42215 0.9099 0.68491 0.0
C45 C 0.37721 0.88768 0.63611 0.0
C46 C 0.35748 0.89735 0.62572 0.0
C47 C 0.34628 0.88619 0.60473 0.0
C48 C 0.3556 0.86558 0.59378 0.0
C49 C 0.37564 0.85614 0.60374 0.0
C50 C 0.38624 0.86718 0.62496 0.0
C51 C 0.3848 0.83381 0.59309 0.0
C52 C 0.36934 0.81356 0.58627 0.0
C53 C 0.40915 0.83209 0.59117 0.0
C54 C 0.41793 0.81024 0.58328 0.0
C55 C 0.40249 0.7898 0.57714 0.0
C56 C 0.32421 0.8952 0.59502 0.0
C57 C 0.30748 0.90394 0.61101 0.0
C58 C 0.31922 0.89423 0.56983 0.0
C59 C 0.29772 0.90113 0.56094 0.0
C60 C 0.28107 0.90961 0.57702 0.0
C61 C 0.28622 0.91129 0.60206 0.0
C62 C 0.37812 0.79174 0.57832 0.0
H63 H 0.37157 0.91857 0.71523 0.0
H64 H 0.35427 0.90224 0.67652 0.0
H65 H 0.42385 0.89597 0.64818 0.0
H66 H 0.44112 0.91206 0.68704 0.0
H67 H 0.35086 0.91359 0.63408 0.0
H68 H 0.40097 0.85913 0.6334 0.0
H69 H 0.34702 0.8565 0.5778 0.0
H70 H 0.35051 0.81432 0.58781 0.0
H71 H 0.42141 0.84755 0.59615 0.0
H72 H 0.4368 0.80915 0.58263 0.0
H73 H 0.31043 0.90447 0.63052 0.0
H74 H 0.33186 0.88805 0.55695 0.0
H75 H 0.36585 0.7763 0.57332 0.0
H76 H 0.27347 0.91757 0.61478 0.0
H77 H 0.2941 0.8999 0.54151 0.0
C78 C 0.69854 0.43978 0.88899 0.0
C79 C 0.71579 0.42382 0.89454 0.0
C80 C 0.67576 0.43064 0.88237 0.0
C81 C 0.66987 0.40538 0.88119 0.0
C82 C 0.68721 0.38945 0.88657 0.0
C83 C 0.7099 0.39858 0.89327 0.0
C84 C 0.64584 0.39552 0.87396 0.0
C85 C 0.63398 0.40501 0.85438 0.0
C86 C 0.61185 0.39458 0.84624 0.0
C87 C 0.60175 0.37429 0.85795 0.0
C88 C 0.61385 0.36415 0.87697 0.0
C89 C 0.63546 0.37535 0.8854 0.0
C90 C 0.60552 0.34021 0.88591 0.0
C91 C 0.58167 0.33466 0.89067 0.0
C92 C 0.6215 0.32214 0.88827 0.0
C93 C 0.61377 0.29889 0.8949 0.0
C94 C 0.58996 0.2933 0.89939 0.0
C95 C 0.60071 0.40316 0.82388 0.0
C96 C 0.6031 0.42793 0.8183 0.0
C97 C 0.58915 0.38627 0.80698 0.0
C98 C 0.58111 0.39374 0.78471 0.0
C99 C 0.58484 0.41816 0.77855 0.0
C100 C 0.59532 0.43535 0.79576 0.0
C101 C 0.57395 0.31135 0.89755 0.0
H102 H 0.70266 0.45933 0.88979 0.0
H103 H 0.66269 0.44332 0.87845 0.0
H104 H 0.68333 0.36988 0.88544 0.0
H105 H 0.72271 0.38585 0.8979 0.0
H106 H 0.64266 0.41967 0.84463 0.0
H107 H 0.64453 0.36786 0.90054 0.0
H108 H 0.58499 0.36562 0.85153 0.0
H109 H 0.56902 0.34828 0.88897 0.0
H110 H 0.63992 0.32576 0.8843 0.0
H111 H 0.62638 0.2852 0.8964 0.0
H112 H 0.61157 0.4415 0.83104 0.0
H113 H 0.58726 0.367 0.81033 0.0
H114 H 0.55546 0.30724 0.90088 0.0
H115 H 0.59849 0.4543 0.79142 0.0
H116 H 0.57274 0.38018 0.77186 0.0
C117 C 0.88126 0.55873 0.30839 0.0
C118 C 0.90446 0.56276 0.30072 0.0
C119 C 0.87501 0.56662 0.33156 0.0
C120 C 0.89188 0.57842 0.34792 0.0
C121 C 0.91535 0.58162 0.34055 0.0
C122 C 0.92158 0.57387 0.31714 0.0
C123 C 0.88436 0.58855 0.37183 0.0
C124 C 0.86549 0.57676 0.38375 0.0
C125 C 0.85478 0.58826 0.40342 0.0
C126 C 0.86466 0.61098 0.41269 0.0
C127 C 0.88457 0.62233 0.40212 0.0
C128 C 0.89414 0.61118 0.38151 0.0
C129 C 0.89442 0.64663 0.41159 0.0
C130 C 0.87946 0.66529 0.41663 0.0
C131 C 0.91881 0.65143 0.4153 0.0
C132 C 0.92807 0.67453 0.42383 0.0
C133 C 0.91308 0.69322 0.42833 0.0
C134 C 0.83207 0.57761 0.41256 0.0
C135 C 0.81525 0.56581 0.39616 0.0
C136 C 0.82638 0.58027 0.43725 0.0
C137 C 0.80417 0.57203 0.44515 0.0
C138 C 0.78725 0.56087 0.42855 0.0
C139 C 0.79321 0.55739 0.4041 0.0
C140 C 0.88873 0.68841 0.42479 0.0
H141 H 0.86777 0.54992 0.29622 0.0
H142 H 0.85666 0.56419 0.33622 0.0
H143 H 0.92887 0.59038 0.3527 0.0
H144 H 0.9396 0.57731 0.31163 0.0
H145 H 0.85856 0.5588 0.37715 0.0
H146 H 0.90837 0.62085 0.37232 0.0
H147 H 0.85655 0.62021 0.42777 0.0
H148 H 0.86062 0.66218 0.41372 0.0
H149 H 0.93069 0.6373 0.41164 0.0
H150 H 0.94692 0.67798 0.42632 0.0
H151 H 0.81871 0.56376 0.37694 0.0
H152 H 0.83896 0.589 0.45044 0.0
H153 H 0.87689 0.70265 0.42819 0.0
H154 H 0.78064 0.54856 0.39093 0.0
H155 H 0.79999 0.57511 0.4641 0.0
C156 C 0.90103 0.88067 0.79149 0.0
C157 C 0.90375 0.90559 0.78695 0.0
C158 C 0.89241 0.8729 0.81363 0.0
C159 C 0.88612 0.88984 0.83179 0.0
C160 C 0.88905 0.91486 0.82735 0.0
C161 C 0.89796 0.92267 0.80519 0.0
C162 C 0.87603 0.88111 0.85491 0.0
C163 C 0.8854 0.86148 0.86623 0.0
C164 C 0.87476 0.85112 0.88656 0.0
C165 C 0.85484 0.86143 0.8962 0.0
C166 C 0.84523 0.88139 0.88536 0.0
C167 C 0.85607 0.89108 0.86472 0.0
C168 C 0.82318 0.89132 0.89464 0.0
C169 C 0.80462 0.87564 0.90268 0.0
C170 C 0.82016 0.91649 0.89483 0.0
C171 C 0.79916 0.92566 0.90268 0.0
C172 C 0.78051 0.90994 0.91057 0.0
C173 C 0.88386 0.82872 0.8966 0.0
C174 C 0.89126 0.8102 0.88073 0.0
C175 C 0.88525 0.82551 0.92181 0.0
C176 C 0.89407 0.80442 0.93085 0.0
C177 C 0.90172 0.78606 0.9149 0.0
C178 C 0.90007 0.78925 0.88972 0.0
C179 C 0.78362 0.88479 0.9105 0.0
H180 H 0.90552 0.86714 0.77781 0.0
H181 H 0.89014 0.8535 0.8163 0.0
H182 H 0.8845 0.92837 0.84101 0.0
H183 H 0.8998 0.94201 0.80207 0.0
H184 H 0.90107 0.85409 0.85901 0.0
H185 H 0.84831 0.90564 0.85552 0.0
H186 H 0.84651 0.85356 0.91185 0.0
H187 H 0.80602 0.85612 0.90236 0.0
H188 H 0.83413 0.92921 0.88908 0.0
H189 H 0.79769 0.94516 0.90281 0.0
H190 H 0.88996 0.8117 0.8612 0.0
H191 H 0.8799 0.83946 0.93457 0.0
H192 H 0.76961 0.87199 0.91597 0.0
H193 H 0.90527 0.77532 0.87684 0.0
H194 H 0.89526 0.8027 0.95035 0.0
C195 C 0.60544 0.07981 0.31197 0.0
C196 C 0.59941 0.09598 0.29419 0.0
C197 C 0.61552 0.08876 0.33428 0.0
C198 C 0.61946 0.114 0.33918 0.0
C199 C 0.61337 0.13007 0.32134 0.0
C200 C 0.60342 0.12118 0.29914 0.0
C201 C 0.6295 0.12394 0.36288 0.0
C202 C 0.64957 0.11487 0.37326 0.0
C203 C 0.66009 0.12591 0.39478 0.0
C204 C 0.65008 0.14619 0.40579 0.0
C205 C 0.63019 0.15553 0.39533 0.0
C206 C 0.61973 0.14389 0.37432 0.0
C207 C 0.62094 0.17832 0.40516 0.0
C208 C 0.61808 0.18252 0.43025 0.0
C209 C 0.61448 0.19597 0.38908 0.0
C210 C 0.6047 0.21698 0.39777 0.0
C211 C 0.60131 0.22096 0.42276 0.0
C212 C 0.6823 0.11726 0.4048 0.0
C213 C 0.68617 0.09227 0.40392 0.0
C214 C 0.70019 0.13402 0.41465 0.0
C215 C 0.72139 0.12604 0.4232 0.0
C216 C 0.72536 0.10118 0.42176 0.0
C217 C 0.70755 0.08435 0.41213 0.0
C218 C 0.60836 0.20373 0.439 0.0
H219 H 0.60271 0.06029 0.30849 0.0
H220 H 0.61997 0.076 0.34777 0.0
H221 H 0.61646 0.14962 0.32448 0.0
H222 H 0.59878 0.13406 0.28585 0.0
H223 H 0.65761 0.09998 0.36391 0.0
H224 H 0.60398 0.15067 0.36656 0.0
H225 H 0.65807 0.15512 0.42214 0.0
H226 H 0.62283 0.16919 0.44302 0.0
H227 H 0.61702 0.19354 0.36969 0.0
H228 H 0.59989 0.23022 0.38491 0.0
H229 H 0.67269 0.07881 0.39684 0.0
H230 H 0.69813 0.15343 0.41516 0.0
H231 H 0.60584 0.20638 0.45836 0.0
H232 H 0.71016 0.06504 0.41101 0.0
H233 H 0.73499 0.13939 0.43026 0.0
C234 C 0.28064 0.60535 0.13069 0.0
C235 C 0.27764 0.60062 0.10558 0.0
C236 C 0.30221 0.61533 0.14023 0.0
C237 C 0.3209 0.62102 0.1247 0.0
C238 C 0.31785 0.61606 0.09955 0.0
C239 C 0.29635 0.60577 0.09005 0.0
C240 C 0.3434 0.63246 0.13478 0.0
C241 C 0.35386 0.62299 0.15513 0.0
C242 C 0.37469 0.63426 0.16568 0.0
C243 C 0.38534 0.65495 0.15516 0.0
C244 C 0.37516 0.66452 0.13451 0.0
C245 C 0.35409 0.65318 0.12452 0.0
C246 C 0.38612 0.68669 0.12373 0.0
C247 C 0.39634 0.70606 0.13877 0.0
C248 C 0.38599 0.6889 0.09834 0.0
C249 C 0.39545 0.7102 0.08827 0.0
C250 C 0.40556 0.72944 0.10339 0.0
C251 C 0.38486 0.62449 0.1879 0.0
C252 C 0.3699 0.61531 0.20587 0.0
C253 C 0.40934 0.62389 0.19126 0.0
C254 C 0.41857 0.614 0.21204 0.0
C255 C 0.40343 0.60424 0.22949 0.0
C256 C 0.37907 0.6051 0.22631 0.0
C257 C 0.4061 0.72715 0.12868 0.0
H258 H 0.2662 0.60163 0.14282 0.0
H259 H 0.3041 0.61919 0.15967 0.0
H260 H 0.33208 0.62016 0.08727 0.0
H261 H 0.29411 0.6024 0.07057 0.0
H262 H 0.34581 0.60657 0.16259 0.0
H263 H 0.34555 0.66089 0.10919 0.0
H264 H 0.40145 0.66371 0.16317 0.0
H265 H 0.39628 0.70523 0.15839 0.0
H266 H 0.37858 0.67418 0.08622 0.0
H267 H 0.39489 0.71165 0.0687 0.0
H268 H 0.35102 0.61614 0.20427 0.0
H269 H 0.42134 0.63065 0.17768 0.0
H270 H 0.41342 0.74202 0.1407 0.0
H271 H 0.36711 0.59821 0.23989 0.0
H272 H 0.43744 0.6136 0.2143 0.0
C273 C 0.0983 0.30597 0.58214 0.0
C274 C 0.07391 0.30064 0.57935 0.0
C275 C 0.10732 0.32891 0.59107 0.0
C276 C 0.09217 0.34703 0.59748 0.0
C277 C 0.06778 0.3417 0.59491 0.0
C278 C 0.05873 0.31875 0.58586 0.0
C279 C 0.102 0.37123 0.60719 0.0
C280 C 0.12168 0.38273 0.59649 0.0
C281 C 0.13295 0.40433 0.60695 0.0
C282 C 0.12321 0.41517 0.6277 0.0
C283 C 0.103 0.40424 0.63833 0.0
C284 C 0.09268 0.38212 0.62798 0.0
C285 C 0.09351 0.4149 0.6611 0.0
C286 C 0.10881 0.42601 0.67935 0.0
C287 C 0.06916 0.41294 0.66536 0.0
C288 C 0.06049 0.42098 0.68764 0.0
C289 C 0.07593 0.43166 0.70583 0.0
C290 C 0.15557 0.41451 0.59695 0.0
C291 C 0.17151 0.3987 0.58683 0.0
C292 C 0.16179 0.43981 0.59782 0.0
C293 C 0.18342 0.4489 0.589 0.0
C294 C 0.19891 0.43293 0.57871 0.0
C295 C 0.19278 0.40785 0.57757 0.0
C296 C 0.10007 0.4345 0.70137 0.0
H297 H 0.11046 0.29229 0.57777 0.0
H298 H 0.1262 0.33233 0.59333 0.0
H299 H 0.05571 0.3554 0.59959 0.0
H300 H 0.03985 0.3153 0.58365 0.0
H301 H 0.12831 0.37457 0.57998 0.0
H302 H 0.078 0.37272 0.63672 0.0
H303 H 0.13165 0.43184 0.63593 0.0
H304 H 0.12765 0.42738 0.67708 0.0
H305 H 0.05679 0.4049 0.65159 0.0
H306 H 0.04178 0.41868 0.69076 0.0
H307 H 0.1679 0.37911 0.58648 0.0
H308 H 0.14997 0.45262 0.60519 0.0
H309 H 0.11232 0.44236 0.71536 0.0
H310 H 0.20475 0.39525 0.57003 0.0
H311 H 0.18802 0.46837 0.59013 0.0
O312 O 0.00017 0.00925 0.56807 0.0
Mg313 Mg 0.02649 0.02498 0.54687 0.0
O314 O 0.98615 0.98486 0.53721 0.0
Mg315 Mg 0.00115 -0.00024 0.50006 0.0
O316 O 0.01258 0.03787 0.51629 0.0
O317 O 0.03017 0.06186 0.54613 0.0
O318 O 0.0178 0.01693 0.46214 0.0
O319 O 0.96442 0.01604 0.49659 0.0
Mg320 Mg 0.98537 0.98626 0.46237 0.0
O321 O 0.98706 0.95891 0.48637 0.0
O322 O 0.0115 0.98512 0.43741 0.0
O323 O 0.96123 0.01298 0.45722 0.0
O324 O 0.96408 0.95695 0.45283 0.0
C325 C 0.05602 0.98947 0.52099 0.0
C326 C 0.98653 0.99157 0.5598 0.0
C327 C 0.01904 0.05943 0.52544 0.0
C328 C 0.02128 0.00608 0.44147 0.0
C329 C 0.95393 0.02108 0.47714 0.0
C330 C 0.97281 0.94647 0.47092 0.0
O331 O 0.0551 0.00541 0.53816 0.0
O332 O 0.03857 0.98417 0.5062 0.0
O333 O 0.46785 0.03763 0.03602 0.0
Mg334 Mg 0.49966 0.04036 0.01756 0.0
O335 O 0.46038 0.01163 0.00574 0.0
Mg336 Mg 0.50083 0.00462 -0.00153 0.0
O337 O 0.51095 0.04403 0.98287 0.0
O338 O 0.49372 0.07267 0.00443 0.0
O339 O 0.54025 -0.00398 0.98915 0.0
O340 O 0.48925 -0.00235 0.95781 0.0
Mg341 Mg 0.50314 0.95048 0.97971 0.0
O342 O 0.49082 0.96628 0.01041 0.0
O343 O 0.53959 0.95701 0.97662 0.0
O344 O 0.48324 0.95797 0.94935 0.0
O345 O 0.48988 0.92594 0.00325 0.0
C346 C 0.52706 0.02758 0.05086 0.0
C347 C 0.45296 0.02464 0.02326 0.0
C348 C 0.50567 0.0664 0.98605 0.0
C349 C 0.55072 0.97747 0.98126 0.0
C350 C 0.48258 0.97979 0.94323 0.0
C351 C 0.48518 0.94443 0.01707 0.0
O352 O 0.5285 0.04745 0.04045 0.0
O353 O 0.51454 0.00958 0.04075 0.0
O354 O 0.48475 0.55331 0.54566 0.0
Mg355 Mg 0.479 0.51739 0.5552 0.0
O356 O 0.48309 0.54213 0.5065 0.0
Mg357 Mg 0.49208 0.50189 0.50094 0.0
O358 O 0.50358 0.49766 0.54001 0.0
O359 O 0.50089 0.50396 0.58012 0.0
O360 O 0.50112 0.46171 0.49396 0.0
O361 O 0.53192 0.51443 0.49606 0.0
Mg362 Mg 0.5112 0.49721 0.44912 0.0
O363 O 0.48002 0.50657 0.46165 0.0
O364 O 0.51709 0.4613 0.45736 0.0
O365 O 0.5367 0.52541 0.4585 0.0
O366 O 0.48786 0.50258 0.42204 0.0
C367 C 0.43913 0.48901 0.52616 0.0
C368 C 0.48265 0.5584 0.52359 0.0
C369 C 0.51118 0.49439 0.56177 0.0
C370 C 0.51107 0.45074 0.47651 0.0
C371 C 0.5447 0.5243 0.47993 0.0
C372 C 0.47398 0.50875 0.43911 0.0
O373 O 0.44613 0.49917 0.54642 0.0
O374 O 0.45255 0.48842 0.50777 0.0
O375 O 0.02937 0.46818 0.04253 0.0
Mg376 Mg 0.01782 0.50356 0.04329 0.0
O377 O 0.00641 0.4611 0.01033 0.0
Mg378 Mg -0.00378 0.50121 0.00231 0.0
O379 O 0.98363 0.51198 0.04234 0.0
O380 O 0.00524 0.50768 0.0764 0.0
O381 O 0.98569 0.54217 0.99359 0.0
O382 O 0.95776 0.4845 0.00176 0.0
Mg383 Mg 0.97692 0.50629 0.95667 0.0
O384 O 0.00648 0.48836 0.96286 0.0
O385 O 0.98345 0.5433 0.95369 0.0
O386 O 0.94327 0.49399 0.96645 0.0
O387 O 0.98632 0.48753 0.92708 0.0
C388 C 0.04799 0.53173 0.01829 0.0
C389 C 0.02018 0.45343 0.02634 0.0
C390 C 0.98616 0.5133 0.06593 0.0
C391 C 0.98383 0.55427 0.97427 0.0
C392 C 0.94057 0.48497 0.98691 0.0
C393 C 0.00443 0.48244 0.93972 0.0
O394 O 0.04117 0.53341 0.03977 0.0
O395 O 0.03609 0.51778 0.00277 0.0
C396 C 0.09378 0.10793 0.25816 0.0
C397 C 0.09098 0.09255 0.23716 0.0
C398 C 0.08534 0.10022 0.2805 0.0
C399 C 0.04731 0.05058 0.30877 0.0
H400 H 0.08164 0.07472 0.3675 0.0
C401 C 0.03673 0.00357 0.39946 0.0
C402 C 0.03284 0.01804 0.42058 0.0
C403 C 0.04346 0.01409 0.37785 0.0
C404 C 0.07172 0.06802 0.3513 0.0
H405 H 0.07721 0.05705 0.22291 0.0
H406 H 0.06357 0.0429 0.26201 0.0
H407 H 0.09375 0.0895 0.32829 0.0
H408 H 0.03422 0.05516 0.43556 0.0
H409 H 0.04695 0.07373 0.39757 0.0
H410 H 0.02603 0.0282 0.33196 0.0
C411 C 0.07148 0.06132 0.26134 0.0
C412 C 0.07856 0.07657 0.32867 0.0
C413 C 0.07945 0.0693 0.23886 0.0
C414 C 0.0372 0.04347 0.41975 0.0
C415 C 0.04433 0.05408 0.39796 0.0
C416 C 0.04076 0.04173 0.33135 0.0
C417 C 0.07438 0.07662 0.28264 0.0
C418 C 0.06656 0.06792 0.30695 0.0
C419 C 0.04691 0.03946 0.37661 0.0
C420 C 0.05298 0.05022 0.35288 0.0
H421 H 0.10241 0.12605 0.25724 0.0
H422 H 0.08742 0.11293 0.29608 0.0
H423 H 0.03714 0.04378 0.29278 0.0
H424 H 0.03378 0.98389 0.39931 0.0
H425 H 0.04578 0.00227 0.36195 0.0
C426 C 0.40928 0.94766 0.7384 0.0
C427 C 0.41799 0.92685 0.72725 0.0
C428 C 0.41876 0.95716 0.76061 0.0
C429 C 0.45028 0.93863 0.81419 0.0
H430 H 0.46101 0.00825 0.82905 0.0
C431 C 0.49488 0.97117 0.90175 0.0
C432 C 0.48011 0.9835 0.91729 0.0
C433 C 0.49033 0.96959 0.87692 0.0
C434 C 0.45799 0.98882 0.82501 0.0
H435 H 0.44339 0.89964 0.7303 0.0
H436 H 0.46023 0.91645 0.76907 0.0
H437 H 0.44711 0.9935 0.78814 0.0
H438 H 0.4507 0.00614 0.91947 0.0
H439 H 0.44226 0.00298 0.87523 0.0
H440 H 0.46121 0.93387 0.85083 0.0
C441 C 0.44598 0.92532 0.76071 0.0
C442 C 0.45004 0.98038 0.80178 0.0
C443 C 0.43651 0.91582 0.73849 0.0
C444 C 0.46209 -0.00361 0.9076 0.0
C445 C 0.45739 0.99467 0.88248 0.0
C446 C 0.45835 0.94703 0.83719 0.0
C447 C 0.43708 0.94599 0.77203 0.0
C448 C 0.44613 0.95519 0.79622 0.0
C449 C 0.47081 0.98016 0.8673 0.0
C450 C 0.46232 0.97213 0.84273 0.0
H451 H 0.39515 0.9566 0.72992 0.0
H452 H 0.41138 0.97292 0.76908 0.0
H453 H 0.4469 0.91917 0.81062 0.0
H454 H 0.50916 0.9615 0.90901 0.0
H455 H 0.50103 0.95859 0.86543 0.0
C456 C 0.58687 0.40995 0.73399 0.0
C457 C 0.57993 0.42493 0.7534 0.0
C458 C 0.58289 0.416 0.71012 0.0
C459 C 0.5694 0.46725 0.67222 0.0
H460 H 0.55588 0.41443 0.62391 0.0
C461 C 0.55133 0.49161 0.57621 0.0
C462 C 0.5305 0.47951 0.56673 0.0
C463 C 0.56356 0.48156 0.59502 0.0
C464 C 0.55954 0.42947 0.63707 0.0
H465 H 0.56354 0.45816 0.7632 0.0
H466 H 0.55584 0.46855 0.72114 0.0
H467 H 0.56001 0.40536 0.66625 0.0
H468 H 0.5083 0.44602 0.56565 0.0
H469 H 0.52893 0.42857 0.59856 0.0
H470 H 0.56664 0.49154 0.64344 0.0
C471 C 0.56475 0.45226 0.72443 0.0
C472 C 0.56222 0.42424 0.66144 0.0
C473 C 0.56903 0.4463 0.74849 0.0
C474 C 0.52444 0.45554 0.57284 0.0
C475 C 0.53626 0.44568 0.592 0.0
C476 C 0.56603 0.47255 0.64791 0.0
C477 C 0.57161 0.43708 0.70497 0.0
C478 C 0.56744 0.44301 0.67929 0.0
C479 C 0.55465 0.45961 0.60472 0.0
C480 C 0.56111 0.45371 0.62996 0.0
H481 H 0.59588 0.3937 0.73723 0.0
H482 H 0.5891 0.40427 0.6957 0.0
H483 H 0.57361 0.48218 0.68541 0.0
H484 H 0.55624 0.51021 0.57159 0.0
H485 H 0.57838 0.49226 0.60359 0.0
C486 C 0.89521 0.56288 0.25623 0.0
C487 C 0.91021 0.55671 0.27515 0.0
C488 C 0.90061 0.55791 0.23203 0.0
C489 C 0.95096 0.54242 0.19347 0.0
H490 H 0.90207 0.53422 0.14312 0.0
C491 C 0.97678 0.54469 0.09589 0.0
C492 C 0.96892 0.52396 0.08156 0.0
C493 C 0.96568 0.55036 0.1174 0.0
C494 C 0.91584 0.53635 0.15704 0.0
H495 H 0.94233 0.53991 0.28368 0.0
H496 H 0.95135 0.53008 0.24153 0.0
H497 H 0.89126 0.53757 0.18572 0.0
H498 H 0.9421 0.49419 0.07671 0.0
H499 H 0.92215 0.50433 0.11465 0.0
H500 H 0.97544 0.53991 0.16484 0.0
C501 C 0.93577 0.53961 0.24516 0.0
C502 C 0.90974 0.53858 0.1815 0.0
C503 C 0.93058 0.54507 0.26941 0.0
C504 C 0.9482 0.51044 0.08749 0.0
C505 C 0.93697 0.51615 0.10922 0.0
C506 C 0.95698 0.53981 0.16917 0.0
C507 C 0.92099 0.54623 0.22605 0.0
C508 C 0.92725 0.54204 0.20007 0.0
C509 C 0.94663 0.53522 0.12504 0.0
C510 C 0.93953 0.53728 0.15069 0.0
H511 H 0.87953 0.57221 0.26011 0.0
H512 H 0.88903 0.56393 0.21808 0.0
H513 H 0.96509 0.54534 0.20691 0.0
H514 H 0.9929 0.55518 0.09163 0.0
H515 H 0.97316 0.56547 0.12901 0.0
C516 C 0.26245 0.1051 0.06743 0.0
C517 C 0.24628 0.08963 0.07945 0.0
C518 C 0.28415 0.09704 0.06033 0.0
C519 C 0.31553 0.04186 0.04633 0.0
H520 H 0.37136 0.08447 0.06173 0.0
C521 C 0.41055 0.0113 0.03117 0.0
C522 C 0.42796 0.02948 0.02577 0.0
C523 C 0.38775 0.01761 0.03696 0.0
C524 C 0.35602 0.07241 0.05679 0.0
H525 H 0.23977 0.05347 0.09294 0.0
H526 H 0.27747 0.03911 0.07998 0.0
H527 H 0.33304 0.09764 0.0724 0.0
H528 H 0.43515 0.06808 0.02099 0.0
H529 H 0.39561 0.07889 0.02954 0.0
H530 H 0.33843 0.01682 0.03021 0.0
C531 C 0.27348 0.05753 0.0762 0.0
C532 C 0.33396 0.08 0.06308 0.0
C533 C 0.25197 0.06576 0.08372 0.0
C534 C 0.42202 0.05373 0.02522 0.0
C535 C 0.39934 0.05995 0.03049 0.0
C536 C 0.33762 0.03437 0.03969 0.0
C537 C 0.28998 0.07317 0.0647 0.0
C538 C 0.31342 0.06489 0.05788 0.0
C539 C 0.38194 0.04216 0.03713 0.0
C540 C 0.35824 0.04961 0.04467 0.0
H541 H 0.25853 0.12364 0.06406 0.0
H542 H 0.29638 0.1095 0.05137 0.0
H543 H 0.30002 0.02981 0.04197 0.0
H544 H 0.41482 0.9925 0.03199 0.0
H545 H 0.37498 0.00335 0.04212 0.0
C546 C 0.24976 0.93866 0.57427 0.0
C547 C 0.25795 0.91592 0.56791 0.0
C548 C 0.22726 0.94408 0.56697 0.0
C549 C 0.17766 0.92466 0.52421 0.0
H550 H 0.14344 0.96333 0.57001 0.0
C551 C 0.07964 0.95283 0.51426 0.0
C552 C 0.07849 0.97803 0.51874 0.0
C553 C 0.10101 0.94214 0.51797 0.0
C554 C 0.15277 0.95239 0.5571 0.0
H555 H 0.24948 0.88102 0.54895 0.0
H556 H 0.20974 0.89017 0.5367 0.0
H557 H 0.18196 0.95089 0.58165 0.0
H558 H 0.09885 0.01201 0.5285 0.0
H559 H 0.13563 0.99351 0.53485 0.0
H560 H 0.14806 0.92638 0.49971 0.0
C561 C 0.22082 0.90406 0.54681 0.0
C562 C 0.17492 0.94547 0.56365 0.0
C563 C 0.2435 0.89878 0.55383 0.0
C564 C 0.09918 0.99249 0.52518 0.0
C565 C 0.12021 0.98193 0.52893 0.0
C566 C 0.15527 0.93145 0.51772 0.0
C567 C 0.21235 0.92668 0.55354 0.0
C568 C 0.18795 0.93212 0.54706 0.0
C569 C 0.12118 0.95663 0.52625 0.0
C570 C 0.14299 0.94594 0.53391 0.0
H571 H 0.26077 0.95221 0.58492 0.0
H572 H 0.22155 0.96193 0.57193 0.0
H573 H 0.18725 0.91441 0.51099 0.0
H574 H 0.06388 0.94131 0.50946 0.0
H575 H 0.10148 0.92254 0.51571 0.0
C576 C 0.74239 0.45275 0.92038 0.0
C577 C 0.73956 0.43327 0.90298 0.0
C578 C 0.76439 0.4593 0.9311 0.0
C579 C 0.81573 0.43059 0.94948 0.0
H580 H 0.84492 0.49604 0.96009 0.0
C581 C 0.91043 0.45112 0.98345 0.0
C582 C 0.91726 0.47469 0.99257 0.0
C583 C 0.88685 0.44462 0.97781 0.0
C584 C 0.8367 0.4777 0.95795 0.0
H585 H 0.75774 0.40676 0.88159 0.0
H586 H 0.79622 0.41796 0.90083 0.0
H587 H 0.80891 0.48946 0.93559 0.0
H588 H 0.90535 0.50901 0.00615 0.0
H589 H 0.8638 0.4972 -0.00207 0.0
H590 H 0.84288 0.41871 0.97231 0.0
C591 C 0.78132 0.4279 0.90626 0.0
C592 C 0.81629 0.47397 0.94355 0.0
C593 C 0.75937 0.42149 0.89537 0.0
C594 C 0.90022 0.49061 -0.00076 0.0
C595 C 0.87655 0.48399 0.99403 0.0
C596 C 0.83584 0.43434 0.9643 0.0
C597 C 0.78378 0.44632 0.92472 0.0
C598 C 0.80583 0.45037 0.93904 0.0
C599 C 0.86988 0.46168 0.98144 0.0
C600 C 0.84675 0.45791 0.96853 0.0
H601 H 0.7274 0.46203 0.92672 0.0
H602 H 0.76595 0.47351 0.9454 0.0
H603 H 0.80764 0.41224 0.94653 0.0
H604 H 0.92352 0.43877 0.97799 0.0
H605 H 0.88252 0.42724 0.96824 0.0
C606 C 0.74381 0.55972 0.42164 0.0
C607 C 0.76298 0.55423 0.43628 0.0
C608 C 0.72087 0.55427 0.42895 0.0
C609 C 0.68547 0.54019 0.48304 0.0
H610 H 0.63798 0.52132 0.43318 0.0
C611 C 0.58433 0.54102 0.49654 0.0
C612 C 0.57024 0.52384 0.48221 0.0
C613 C 0.60888 0.54202 0.49444 0.0
C614 C 0.65101 0.52617 0.44748 0.0
H615 H 0.77316 0.53842 0.46993 0.0
H616 H 0.73289 0.52838 0.48258 0.0
H617 H 0.67865 0.52701 0.42202 0.0
H618 H 0.57008 0.49282 0.45664 0.0
H619 H 0.61243 0.49401 0.45352 0.0
H620 H 0.6575 0.53851 0.50859 0.0
C621 C 0.73565 0.53737 0.46565 0.0
C622 C 0.67438 0.52986 0.44097 0.0
C623 C 0.7587 0.54303 0.45838 0.0
C624 C 0.58076 0.5065 0.46751 0.0
C625 C 0.60499 0.5073 0.46562 0.0
C626 C 0.66197 0.53616 0.48964 0.0
C627 C 0.71647 0.54297 0.45101 0.0
C628 C 0.69188 0.53732 0.45856 0.0
C629 C 0.6193 0.52576 0.47809 0.0
C630 C 0.64448 0.52925 0.47187 0.0
H631 H 0.74652 0.56879 0.40474 0.0
H632 H 0.7066 0.5594 0.41746 0.0
H633 H 0.69848 0.54612 0.49704 0.0
H634 H 0.57641 0.55435 0.50821 0.0
H635 H 0.6195 0.55633 0.50446 0.0
C636 C 0.09644 0.25187 0.05338 0.0
C637 C 0.09173 0.24362 0.07676 0.0
C638 C 0.08771 0.27355 0.04573 0.0
C639 C 0.06813 0.33176 0.07054 0.0
H640 H 0.03901 0.33764 0.00699 0.0
C641 C 0.02106 0.41674 0.05062 0.0
C642 C 0.02413 0.4273 0.02808 0.0
C643 C 0.02799 0.39341 0.0544 0.0
C644 C 0.04733 0.33639 0.02469 0.0
H645 H 0.07429 0.25171 0.11044 0.0
H646 H 0.05935 0.28958 0.09731 0.0
H647 H 0.05409 0.29881 0.01781 0.0
H648 H 0.03623 0.42151 0.9914 0.0
H649 H 0.0491 0.38052 -0.00187 0.0
H650 H 0.06189 0.36914 0.07751 0.0
C651 C 0.06968 0.27929 0.08479 0.0
C652 C 0.05595 0.31412 0.03091 0.0
C653 C 0.07809 0.25749 0.09227 0.0
C654 C 0.03348 0.41363 0.00891 0.0
C655 C 0.04085 0.3902 0.01282 0.0
C656 C 0.05972 0.35392 0.06432 0.0
C657 C 0.07445 0.28769 0.06146 0.0
C658 C 0.06613 0.31146 0.05408 0.0
C659 C 0.03879 0.3801 0.0359 0.0
C660 C 0.0488 0.35651 0.0415 0.0
H661 H 0.10681 0.24148 0.04098 0.0
H662 H 0.09181 0.27954 0.02771 0.0
H663 H 0.07637 0.33058 0.0883 0.0
H664 H 0.01372 0.42686 0.06563 0.0
H665 H 0.02535 0.38603 0.07214 0.0
C666 C 0.58743 0.24856 0.8904 0.0
C667 C 0.58196 0.26843 0.90553 0.0
C668 C 0.58034 0.22487 0.89637 0.0
C669 C 0.53738 0.19122 0.93344 0.0
H670 H 0.57848 0.13829 0.92573 0.0
C671 C 0.52325 0.10817 0.98595 0.0
C672 C 0.5175 0.08606 0.97282 0.0
C673 C 0.53353 0.12795 0.97463 0.0
C674 C 0.56676 0.15287 0.92741 0.0
H675 H 0.5654 0.27953 0.93885 0.0
H676 H 0.55345 0.238 0.94979 0.0
H677 H 0.5917 0.17919 0.91308 0.0
H678 H 0.51975 0.06646 0.93802 0.0
H679 H 0.53748 0.10231 0.91746 0.0
H680 H 0.51294 0.1653 0.94874 0.0
C681 C 0.56265 0.24068 0.93296 0.0
C682 C 0.57427 0.17621 0.92035 0.0
C683 C 0.56947 0.26439 0.9268 0.0
C684 C 0.52363 0.08356 0.94828 0.0
C685 C 0.53385 0.10382 0.93669 0.0
C686 C 0.52999 0.16809 0.94051 0.0
C687 C 0.56786 0.2207 0.91769 0.0
C688 C 0.55977 0.19567 0.92378 0.0
C689 C 0.53809 0.12624 0.94981 0.0
C690 C 0.54477 0.14893 0.93798 0.0
H691 H 0.59697 0.25142 0.8738 0.0
H692 H 0.5843 0.20987 0.88411 0.0
H693 H 0.52562 0.20568 0.93584 0.0
H694 H 0.51956 0.11037 0.00514 0.0
H695 H 0.53714 0.14499 0.98512 0.0
C696 C 0.93574 0.72307 0.45723 0.0
C697 C 0.92264 0.71814 0.43549 0.0
C698 C 0.94276 0.74718 0.46479 0.0
C699 C 0.92485 0.80899 0.4559 0.0
H700 H 0.98653 0.83199 0.48206 0.0
C701 C 0.95807 0.90701 0.45114 0.0
C702 C 0.96808 0.91983 0.47189 0.0
C703 C 0.95355 0.88195 0.45081 0.0
C704 C 0.96912 0.82566 0.47524 0.0
H705 H 0.90788 0.73387 0.40381 0.0
H706 H 0.92063 0.77577 0.4165 0.0
H707 H 0.97744 0.78821 0.47257 0.0
H708 H 0.98163 0.91625 0.50854 0.0
H709 H 0.97323 0.87158 0.50804 0.0
H710 H 0.91666 0.8462 0.45772 0.0
C711 C 0.92484 0.76129 0.4282 0.0
C712 C 0.96394 0.80071 0.46972 0.0
C713 C 0.91764 0.73737 0.42085 0.0
C714 C 0.9738 0.90682 0.49236 0.0
C715 C 0.96912 0.88138 0.49204 0.0
C716 C 0.92998 0.83369 0.46136 0.0
C717 C 0.93685 0.76655 0.45058 0.0
C718 C 0.94198 0.7923 0.45921 0.0
C719 C 0.95866 0.86889 0.47129 0.0
C720 C 0.95237 0.84237 0.47031 0.0
H721 H 0.93976 0.70839 0.46875 0.0
H722 H 0.95199 0.75071 0.48211 0.0
H723 H 0.90755 0.80301 0.44849 0.0
H724 H 0.95384 0.91627 0.43482 0.0
H725 H 0.94601 0.87271 0.43438 0.0
C726 C 0.40178 0.74471 0.57953 0.0
C727 C 0.41169 0.7663 0.57007 0.0
C728 C 0.40988 0.72236 0.57233 0.0
C729 C 0.44008 0.69248 0.52254 0.0
H730 H 0.44691 0.64274 0.56939 0.0
C731 C 0.48427 0.60058 0.50867 0.0
C732 C 0.47194 0.58093 0.51916 0.0
C733 C 0.47565 0.6237 0.51077 0.0
C734 C 0.44489 0.65646 0.55612 0.0
H735 H 0.43815 0.78165 0.5462 0.0
H736 H 0.4527 0.74245 0.53395 0.0
H737 H 0.43597 0.68282 0.58329 0.0
H738 H 0.44033 0.56866 0.53762 0.0
H739 H 0.42534 0.60885 0.54128 0.0
H740 H 0.44935 0.66586 0.49544 0.0
C741 C 0.43839 0.74285 0.54658 0.0
C742 C 0.43864 0.67932 0.56405 0.0
C743 C 0.43025 0.76524 0.55376 0.0
C744 C 0.45006 0.58385 0.52959 0.0
C745 C 0.44156 0.60672 0.53174 0.0
C746 C 0.44653 0.66956 0.51461 0.0
C747 C 0.4281 0.72123 0.55562 0.0
C748 C 0.43594 0.69745 0.54731 0.0
C749 C 0.45487 0.62696 0.52348 0.0
C750 C 0.44866 0.65138 0.53134 0.0
H751 H 0.38774 0.74511 0.59249 0.0
H752 H 0.40154 0.70594 0.57947 0.0
H753 H 0.43783 0.7061 0.50925 0.0
H754 H 0.5012 0.59843 0.50057 0.0
H755 H 0.48604 0.63922 0.5042 0.0
C756 C 0.93049 0.93122 0.76087 0.0
C757 C 0.91179 0.91344 0.76284 0.0
C758 C 0.93834 0.93789 0.73795 0.0
C759 C 0.9326 0.91875 0.67134 0.0
H760 H 0.95729 0.98531 0.66393 0.0
C761 C 0.97275 0.95429 0.58151 0.0
C762 C 0.9713 0.97911 0.5774 0.0
C763 C 0.96376 0.94451 0.60288 0.0
C764 C 0.95004 0.96672 0.66549 0.0
H765 H 0.88623 0.88916 0.74254 0.0
H766 H 0.89889 0.90157 0.70277 0.0
H767 H 0.94579 0.97245 0.70363 0.0
H768 H 0.95754 0.01261 0.59083 0.0
H769 H 0.94068 -0.00456 0.62707 0.0
H770 H 0.9358 0.91356 0.63276 0.0
C771 C 0.90835 0.90973 0.71867 0.0
C772 C 0.94389 0.95914 0.68854 0.0
C773 C 0.90088 0.90273 0.74152 0.0
C774 C 0.95894 0.99341 0.5937 0.0
C775 C 0.94964 0.98363 0.61468 0.0
C776 C 0.93838 0.92649 0.64813 0.0
C777 C 0.92728 0.92734 0.71645 0.0
C778 C 0.93489 0.93508 0.69187 0.0
C779 C 0.95302 0.95942 0.62027 0.0
C780 C 0.94694 0.95068 0.64485 0.0
H781 H 0.93935 0.93959 0.77705 0.0
H782 H 0.95325 0.95115 0.73721 0.0
H783 H 0.92632 0.89989 0.67307 0.0
H784 H 0.98243 0.943 0.56927 0.0
H785 H 0.96662 0.92576 0.60645 0.0
C786 C 0.59838 0.09717 0.24898 0.0
C787 C 0.58962 0.08685 0.27015 0.0
C788 C 0.58914 0.0891 0.22623 0.0
C789 C 0.55784 0.03684 0.19355 0.0
H790 H 0.55108 0.08417 0.14419 0.0
C791 C 0.52406 0.01425 0.09353 0.0
C792 C 0.53627 0.0275 0.07592 0.0
C793 C 0.52934 0.0193 0.11826 0.0
C794 C 0.55301 0.07073 0.15776 0.0
H795 H 0.56423 0.0601 0.28422 0.0
H796 H 0.54792 0.04587 0.24413 0.0
H797 H 0.56076 0.09818 0.18594 0.0
H798 H 0.5647 0.05479 0.06993 0.0
H799 H 0.57426 0.06309 0.11286 0.0
H800 H 0.55025 0.00938 0.16505 0.0
C801 C 0.56211 0.06009 0.24525 0.0
C802 C 0.5585 0.07874 0.18165 0.0
C803 C 0.57145 0.06817 0.26813 0.0
C804 C 0.55495 0.04441 0.08321 0.0
C805 C 0.56025 0.04935 0.10775 0.0
C806 C 0.55223 0.02878 0.16955 0.0
C807 C 0.57086 0.07055 0.22409 0.0
C808 C 0.5617 0.0619 0.19965 0.0
C809 C 0.54687 0.03759 0.12552 0.0
C810 C 0.55049 0.04568 0.15135 0.0
H811 H 0.61266 0.11131 0.24997 0.0
H812 H 0.59665 0.09713 0.21024 0.0
H813 H 0.56023 0.02344 0.20705 0.0
H814 H 0.5094 0.00133 0.0883 0.0
H815 H 0.51882 0.00995 0.13165 0.0
C816 C 0.40319 0.5711 0.25874 0.0
C817 C 0.41259 0.5939 0.25165 0.0
C818 C 0.40831 0.56318 0.28178 0.0
C819 C 0.44674 0.57524 0.33644 0.0
H820 H 0.39222 0.54662 0.36888 0.0
C821 C 0.45743 0.54741 0.43249 0.0
C822 C 0.45392 0.52194 0.43222 0.0
C823 C 0.44701 0.56018 0.41434 0.0
C824 C 0.40747 0.55484 0.36009 0.0
H825 H 0.43589 0.62559 0.26207 0.0
H826 H 0.44469 0.61193 0.30268 0.0
H827 H 0.3883 0.55883 0.32699 0.0
H828 H 0.43421 0.49016 0.41599 0.0
H829 H 0.41503 0.51248 0.38499 0.0
H830 H 0.46596 0.57089 0.36946 0.0
C831 C 0.43349 0.60008 0.29042 0.0
C832 C 0.40537 0.5615 0.33605 0.0
C833 C 0.42851 0.60791 0.26722 0.0
C834 C 0.43685 0.50987 0.41655 0.0
C835 C 0.42608 0.52267 0.39869 0.0
C836 C 0.44879 0.56874 0.36054 0.0
C837 C 0.42271 0.57807 0.29823 0.0
C838 C 0.42506 0.57141 0.32386 0.0
C839 C 0.43269 0.54751 0.39624 0.0
C840 C 0.42923 0.55822 0.37247 0.0
H841 H 0.39114 0.55986 0.24677 0.0
H842 H 0.40036 0.54577 0.28702 0.0
H843 H 0.46226 0.58259 0.32746 0.0
H844 H 0.47084 0.55694 0.44431 0.0
H845 H 0.4521 0.57941 0.41294 0.0
C846 C 0.05581 0.42014 0.74383 0.0
C847 C 0.06745 0.4381 0.73022 0.0
C848 C 0.05134 0.42493 0.76835 0.0
C849 C 0.04753 0.47381 0.81547 0.0
H850 H 0.06552 0.42463 0.8593 0.0
C851 C 0.03979 0.4913 0.91658 0.0
C852 C 0.02406 0.47368 0.92622 0.0
C853 C 0.05097 0.48614 0.89487 0.0
C854 C 0.06053 0.43852 0.84726 0.0
H855 H 0.08216 0.47549 0.73073 0.0
H856 H 0.07395 0.48411 0.77358 0.0
H857 H 0.06954 0.41784 0.81541 0.0
H858 H 0.00963 0.43627 0.92288 0.0
H859 H 0.02993 0.42678 0.88537 0.0
H860 H 0.03809 0.4943 0.84719 0.0
C861 C 0.06852 0.46627 0.76544 0.0
C862 C 0.06261 0.43457 0.82219 0.0
C863 C 0.07326 0.46137 0.74101 0.0
C864 C 0.02203 0.44993 0.91585 0.0
C865 C 0.03351 0.44463 0.8943 0.0
C866 C 0.04548 0.47777 0.84051 0.0
C867 C 0.05822 0.44784 0.77953 0.0
C868 C 0.05592 0.45208 0.80606 0.0
C869 C 0.04666 0.46322 0.88275 0.0
C870 C 0.05182 0.46009 0.85664 0.0
H871 H 0.05127 0.40203 0.73585 0.0
H872 H 0.04301 0.41054 0.77872 0.0
H873 H 0.04203 0.4875 0.80345 0.0
H874 H 0.04117 0.50987 0.92416 0.0
H875 H 0.06128 0.50069 0.88647 0.0
C876 C 0.74523 0.90907 0.93769 0.0
C877 C 0.7579 0.91963 0.91867 0.0
C878 C 0.72375 0.91759 0.94483 0.0
C879 C 0.67776 0.96037 0.92585 0.0
H880 H 0.65299 0.94388 0.98848 0.0
C881 C 0.58193 0.97652 0.9507 0.0
C882 C 0.57583 0.97935 0.97517 0.0
C883 C 0.6049 0.97205 0.94436 0.0
C884 C 0.65972 0.94922 0.9711 0.0
H885 H 0.75759 0.94781 0.89237 0.0
H886 H 0.72159 0.96389 0.90583 0.0
H887 H 0.69115 0.9318 0.97749 0.0
H888 H 0.58886 0.9799 0.0123 0.0
H889 H 0.62938 0.9733 0.00148 0.0
H890 H 0.64701 0.97957 0.92049 0.0
C891 C 0.7274 0.94829 0.91486 0.0
C892 C 0.68169 0.94162 0.96436 0.0
C893 C 0.7486 0.93933 0.90733 0.0
C894 C 0.59332 0.97845 0.99327 0.0
C895 C 0.61644 0.97412 0.98697 0.0
C896 C 0.65616 0.96868 0.93296 0.0
C897 C 0.71433 0.93748 0.93366 0.0
C898 C 0.69109 0.94665 0.94139 0.0
C899 C 0.62251 0.9702 0.96239 0.0
C900 C 0.64653 0.96292 0.95555 0.0
H901 H 0.75191 0.89412 0.94721 0.0
H902 H 0.71454 0.90805 0.95895 0.0
H903 H 0.68356 0.96455 0.90784 0.0
H904 H 0.56856 0.97652 0.93643 0.0
H905 H 0.60838 0.96877 0.92529 0.0
C906 C 0.75844 0.10016 0.45225 0.0
C907 C 0.74843 0.09301 0.42933 0.0
C908 C 0.78048 0.09277 0.4591 0.0
C909 C 0.82489 0.04885 0.44018 0.0
H910 H 0.86486 0.08852 0.48644 0.0
C911 C 0.91101 0.01382 0.47322 0.0
C912 C 0.93053 0.03042 0.47755 0.0
C913 C 0.88872 0.02201 0.46978 0.0
C914 C 0.8541 0.07734 0.47325 0.0
H915 H 0.75367 0.07313 0.39535 0.0
H916 H 0.79249 0.06141 0.40646 0.0
H917 H 0.82701 0.10215 0.47433 0.0
H918 H 0.94247 0.06853 0.48242 0.0
H919 H 0.90342 0.08325 0.47555 0.0
H920 H 0.85258 0.02511 0.43745 0.0
C921 C 0.78317 0.07172 0.41983 0.0
C922 C 0.83205 0.08495 0.46659 0.0
C923 C 0.7609 0.07858 0.41328 0.0
C924 C 0.92748 0.05546 0.47921 0.0
C925 C 0.90508 0.06379 0.47534 0.0
C926 C 0.8471 0.04165 0.44627 0.0
C927 C 0.79331 0.07854 0.44293 0.0
C928 C 0.817 0.07072 0.45004 0.0
C929 C 0.88547 0.04713 0.4699 0.0
C930 C 0.86196 0.05554 0.46317 0.0
H931 H 0.74906 0.11122 0.46499 0.0
H932 H 0.78724 0.09803 0.47722 0.0
H933 H 0.81391 0.03696 0.42779 0.0
H934 H 0.91312 0.9944 0.47184 0.0
H935 H 0.87412 0.0085 0.46655 0.0
C936 C 0.23701 0.60875 0.09401 0.0
C937 C 0.25442 0.59221 0.09541 0.0
C938 C 0.21502 0.60128 0.08377 0.0
C939 C 0.18481 0.55465 0.0422 0.0
H940 H 0.12914 0.57965 0.07039 0.0
C941 C 0.08908 0.52311 0.01186 0.0
C942 C 0.07231 0.54039 0.01434 0.0
C943 C 0.11248 0.52939 0.01881 0.0
C944 C 0.14456 0.57284 0.06204 0.0
H945 H 0.26301 0.55506 0.08784 0.0
H946 H 0.22406 0.54158 0.07033 0.0
H947 H 0.16716 0.58926 0.09048 0.0
H948 H 0.06672 0.57802 0.0238 0.0
H949 H 0.10787 0.58954 0.03436 0.0
H950 H 0.16204 0.53814 0.01378 0.0
C951 C 0.22752 0.56043 0.07668 0.0
C952 C 0.16632 0.57824 0.07365 0.0
C953 C 0.24966 0.56802 0.08674 0.0
C954 C 0.07954 0.56457 0.02137 0.0
C955 C 0.10296 0.57097 0.0279 0.0
C956 C 0.16296 0.54923 0.03056 0.0
C957 C 0.21002 0.57705 0.075 0.0
C958 C 0.18674 0.56955 0.06365 0.0
C959 C 0.11937 0.55312 0.02804 0.0
C960 C 0.14267 0.55863 0.04014 0.0
H961 H 0.24059 0.62755 0.10048 0.0
H962 H 0.20209 0.61464 0.08231 0.0
H963 H 0.20027 0.54779 0.034 0.0
H964 H 0.08365 0.50418 0.00719 0.0
H965 H 0.12466 0.51519 0.01886 0.0
C966 C 0.2404 0.44828 0.58711 0.0
C967 C 0.22211 0.44196 0.5702 0.0
C968 C 0.2632 0.45387 0.57922 0.0
C969 C 0.3011 0.44611 0.52528 0.0
H970 H 0.34387 0.49029 0.56456 0.0
C971 C 0.39962 0.48046 0.50487 0.0
C972 C 0.41474 0.47798 0.52495 0.0
C973 C 0.37529 0.4748 0.50682 0.0
C974 C 0.33207 0.47797 0.55336 0.0
H975 H 0.21271 0.43692 0.53199 0.0
H976 H 0.25237 0.44796 0.51794 0.0
H977 H 0.30271 0.48544 0.5751 0.0
H978 H 0.41681 0.46557 0.56173 0.0
H979 H 0.37482 0.45576 0.56499 0.0
H980 H 0.33093 0.43918 0.50335 0.0
C981 C 0.24944 0.44795 0.53731 0.0
C982 C 0.30848 0.47499 0.55951 0.0
C983 C 0.22669 0.44193 0.54527 0.0
C984 C 0.40551 0.46796 0.54609 0.0
C985 C 0.38149 0.4624 0.54801 0.0
C986 C 0.32475 0.44945 0.51888 0.0
C987 C 0.26812 0.45364 0.55419 0.0
C988 C 0.29274 0.45855 0.54598 0.0
C989 C 0.36605 0.46669 0.52883 0.0
C990 C 0.34051 0.46496 0.53326 0.0
H991 H 0.23721 0.44796 0.60645 0.0
H992 H 0.27707 0.45756 0.59287 0.0
H993 H 0.28963 0.43311 0.51452 0.0
H994 H 0.40631 0.48827 0.48842 0.0
H995 H 0.36362 0.47816 0.49176 0.0
C996 C 0.90099 0.75157 0.94386 0.0
C997 C 0.91127 0.76355 0.92418 0.0
C998 C 0.90926 0.72969 0.95154 0.0
C999 C 0.94204 0.67796 0.92895 0.0
H1000 H 0.94944 0.66415 -0.00294 0.0
C1001 C 0.98917 0.59475 0.95618 0.0
C1002 C 0.97973 0.58056 0.97475 0.0
C1003 C 0.98144 0.61775 0.95222 0.0
C1004 C 0.94724 0.66758 0.97796 0.0
H1005 H 0.93914 0.76236 0.89798 0.0
H1006 H 0.95341 0.72439 0.91122 0.0
H1007 H 0.93439 0.70273 0.98578 0.0
H1008 H 0.95526 0.57971 0.00429 0.0
H1009 H 0.94145 0.62013 -0.00268 0.0
H1010 H 0.95452 0.64293 0.92095 0.0
C1011 C 0.93862 0.73158 0.92044 0.0
C1012 C 0.93861 0.68973 0.97149 0.0
C1013 C 0.93041 0.7534 0.91282 0.0
C1014 C 0.96317 0.59045 0.99015 0.0
C1015 C 0.95517 0.61354 0.98601 0.0
C1016 C 0.95052 0.65588 0.93538 0.0
C1017 C 0.92799 0.71924 0.93969 0.0
C1018 C 0.93622 0.69534 0.94688 0.0
C1019 C 0.96371 0.62717 0.96647 0.0
C1020 C 0.95363 0.65048 0.95998 0.0
H1021 H 0.88609 0.7587 0.95291 0.0
H1022 H 0.90054 0.7206 0.9663 0.0
H1023 H 0.93987 0.68134 0.90983 0.0
H1024 H 0.00194 0.58758 0.94399 0.0
H1025 H 0.98897 0.62789 0.93747 0.0
C1026 C 0.43647 0.76346 0.10031 0.0
C1027 C 0.41425 0.75261 0.09322 0.0
C1028 C 0.44321 0.78712 0.09387 0.0
C1029 C 0.42749 0.83686 0.05485 0.0
H1030 H 0.45722 0.87797 0.1075 0.0
C1031 C 0.44863 0.93487 0.03782 0.0
C1032 C 0.47308 0.93954 0.03953 0.0
C1033 C 0.43779 0.91616 0.05084 0.0
C1034 C 0.44876 0.86674 0.09274 0.0
H1035 H 0.38213 0.7571 0.07281 0.0
H1036 H 0.39365 0.79869 0.06192 0.0
H1037 H 0.44811 0.83465 0.11326 0.0
H1038 H 0.50479 0.93225 0.05913 0.0
H1039 H 0.48602 0.89991 0.08217 0.0
H1040 H 0.42851 0.86878 0.03417 0.0
C1041 C 0.40603 0.78892 0.07216 0.0
C1042 C 0.44382 0.84189 0.09588 0.0
C1043 C 0.39941 0.76514 0.07839 0.0
C1044 C 0.48584 0.92887 0.0577 0.0
C1045 C 0.47506 0.91016 0.07073 0.0
C1046 C 0.43234 0.86169 0.05175 0.0
C1047 C 0.42769 0.80042 0.08054 0.0
C1048 C 0.4333 0.82667 0.0769 0.0
C1049 C 0.45145 0.90219 0.06561 0.0
C1050 C 0.44313 0.87687 0.07062 0.0
H1051 H 0.44831 0.7539 0.11146 0.0
H1052 H 0.4603 0.79526 0.09995 0.0
H1053 H 0.41968 0.82557 0.03978 0.0
H1054 H 0.43854 0.94297 0.02381 0.0
H1055 H 0.41939 0.91075 0.04711 0.0
C1056 C 0.07558 0.26427 0.55055 0.0
C1057 C 0.06442 0.27625 0.5697 0.0
C1058 C 0.06683 0.24121 0.54161 0.0
C1059 C 0.02878 0.18766 0.55819 0.0
H1060 H 0.02977 0.17088 0.489 0.0
C1061 C 0.99452 0.09375 0.52531 0.0
C1062 C 0.01253 0.08153 0.51434 0.0
C1063 C 0.99559 0.11914 0.52623 0.0
C1064 C 0.02924 0.17543 0.50832 0.0
H1065 H 0.03547 0.27326 0.59464 0.0
H1066 H 0.01976 0.23337 0.57854 0.0
H1067 H 0.04367 0.21193 0.50411 0.0
H1068 H 0.04373 0.08534 0.49282 0.0
H1069 H 0.04542 0.12977 0.49381 0.0
H1070 H 0.01478 0.15113 0.56249 0.0
C1071 C 0.03546 0.24166 0.57063 0.0
C1072 C 0.03738 0.19881 0.51702 0.0
C1073 C 0.04429 0.26467 0.57966 0.0
C1074 C 0.02952 0.09455 0.50107 0.0
C1075 C 0.03057 0.11999 0.50186 0.0
C1076 C 0.02051 0.16442 0.54948 0.0
C1077 C 0.04663 0.22968 0.5515 0.0
C1078 C 0.03738 0.20512 0.54208 0.0
C1079 C 0.01467 0.13243 0.5161 0.0
C1080 C 0.02075 0.15803 0.52448 0.0
H1081 H 0.091 0.27279 0.54231 0.0
H1082 H 0.07607 0.23232 0.52713 0.0
H1083 H 0.02903 0.19171 0.57763 0.0
H1084 H 0.98143 0.08392 0.53591 0.0
H1085 H 0.98288 0.12833 0.53695 0.0
C1086 C 0.57019 0.25032 0.41951 0.0
C1087 C 0.59026 0.24305 0.43158 0.0
C1088 C 0.56049 0.27191 0.42672 0.0
C1089 C 0.55824 0.31771 0.47715 0.0
H1090 H 0.541 0.35927 0.42563 0.0
C1091 C 0.5325 0.41732 0.49338 0.0
C1092 C 0.51534 0.425 0.47747 0.0
C1093 C 0.54064 0.39406 0.48993 0.0
C1094 C 0.54537 0.34773 0.44025 0.0
H1095 H 0.61569 0.25234 0.46086 0.0
H1096 H 0.59873 0.29034 0.47346 0.0
H1097 H 0.55722 0.32069 0.41534 0.0
H1098 H 0.49241 0.41478 0.44641 0.0
H1099 H 0.50559 0.37386 0.44107 0.0
H1100 H 0.54627 0.34489 0.50207 0.0
C1101 C 0.59039 0.27915 0.4586 0.0
C1102 C 0.55472 0.32564 0.43433 0.0
C1103 C 0.60009 0.25746 0.45141 0.0
C1104 C 0.50549 0.40894 0.45901 0.0
C1105 C 0.51331 0.38572 0.45577 0.0
C1106 C 0.54874 0.33984 0.4831 0.0
C1107 C 0.57067 0.28671 0.44611 0.0
C1108 C 0.5611 0.31032 0.45269 0.0
C1109 C 0.53157 0.37832 0.47059 0.0
C1110 C 0.542 0.35497 0.46468 0.0
H1111 H 0.56204 0.23932 0.40441 0.0
H1112 H 0.54502 0.27706 0.41705 0.0
H1113 H 0.56291 0.30616 0.49165 0.0
H1114 H 0.54066 0.42979 0.50737 0.0
H1115 H 0.55486 0.38896 0.50152 0.0
loop_
_geom_bond_atom_site_label_1
_geom_bond_atom_site_label_2
_geom_bond_distance
_geom_bond_site_symmetry_2
_ccdc_geom_bond_type
C0 C1 1.386 . S
C0 C2 1.397 . S
C0 H24 0.931 . S
C1 C0 1.386 . S
C1 C5 1.397 . S
C2 C0 1.397 . S
C2 C3 1.384 . S
C2 H25 0.930 . S
C3 C2 1.384 . S
C3 C4 1.377 . S
C3 C6 1.481 . S
C4 C3 1.377 . S
C4 C5 1.389 . S
C4 H26 0.929 . S
C5 C1 1.397 . S
C5 C4 1.389 . S
C5 H27 0.931 . S
C6 C3 1.481 . S
C6 C7 1.387 . S
C6 C11 1.390 . S
C7 C6 1.387 . S
C7 C8 1.401 . S
C7 H28 0.930 . S
C8 C7 1.401 . S
C8 C9 1.376 . S
C8 C17 1.511 . S
C9 C8 1.376 . S
C9 C10 1.392 . S
C9 H30 0.931 . S
C10 C9 1.392 . S
C10 C11 1.361 . S
C10 C12 1.500 . S
C11 C6 1.390 . S
C11 C10 1.361 . S
C11 H29 0.931 . S
C12 C10 1.500 . S
C12 C13 1.371 . S
C12 C14 1.365 . S
C13 C12 1.371 . S
C13 C23 1.386 . S
C13 H31 0.931 . S
C14 C12 1.365 . S
C14 C15 1.409 . S
C14 H32 0.929 . S
C15 C14 1.409 . S
C15 C16 1.380 . S
C15 H33 0.930 . S
C16 C15 1.380 . S
C16 C23 1.357 . S
C17 C8 1.511 . S
C17 C18 1.341 . S
C17 C19 1.371 . S
C18 C17 1.341 . S
C18 C22 1.394 . S
C18 H34 0.930 . S
C19 C17 1.371 . S
C19 C20 1.392 . S
C19 H35 0.931 . S
C20 C19 1.392 . S
C20 C21 1.331 . S
C20 H38 0.932 . S
C21 C20 1.331 . S
C21 C22 1.336 . S
C22 C18 1.394 . S
C22 C21 1.336 . S
C22 H37 0.929 . S
C23 C13 1.386 . S
C23 C16 1.357 . S
C23 H36 0.928 . S
H24 C0 0.931 . S
H25 C2 0.930 . S
H26 C4 0.929 . S
H27 C5 0.931 . S
H28 C7 0.930 . S
H29 C11 0.931 . S
H30 C9 0.931 . S
H31 C13 0.931 . S
H32 C14 0.929 . S
H33 C15 0.930 . S
H34 C18 0.930 . S
H35 C19 0.931 . S
H36 C23 0.928 . S
H37 C22 0.929 . S
H38 C20 0.932 . S
C39 C40 1.386 . S
C39 C41 1.397 . S
C39 H63 0.931 . S
C40 C39 1.386 . S
C40 C44 1.397 . S
C41 C39 1.397 . S
C41 C42 1.384 . S
C41 H64 0.930 . S
C42 C41 1.384 . S
C42 C43 1.377 . S
C42 C45 1.481 . S
C43 C42 1.377 . S
C43 C44 1.389 . S
C43 H65 0.929 . S
C44 C40 1.397 . S
C44 C43 1.389 . S
C44 H66 0.931 . S
C45 C42 1.481 . S
C45 C46 1.387 . S
C45 C50 1.390 . S
C46 C45 1.387 . S
C46 C47 1.401 . S
C46 H67 0.930 . S
C47 C46 1.401 . S
C47 C48 1.376 . S
C47 C56 1.511 . S
C48 C47 1.376 . S
C48 C49 1.392 . S
C48 H69 0.931 . S
C49 C48 1.392 . S
C49 C50 1.361 . S
C49 C51 1.500 . S
C50 C45 1.390 . S
C50 C49 1.361 . S
C50 H68 0.931 . S
C51 C49 1.500 . S
C51 C52 1.371 . S
C51 C53 1.365 . S
C52 C51 1.371 . S
C52 C62 1.386 . S
C52 H70 0.931 . S
C53 C51 1.365 . S
C53 C54 1.409 . S
C53 H71 0.929 . S
C54 C53 1.409 . S
C54 C55 1.380 . S
C54 H72 0.930 . S
C55 C54 1.380 . S
C55 C62 1.357 . S
C56 C47 1.511 . S
C56 C57 1.341 . S
C56 C58 1.371 . S
C57 C56 1.341 . S
C57 C61 1.394 . S
C57 H73 0.930 . S
C58 C56 1.371 . S
C58 C59 1.392 . S
C58 H74 0.931 . S
C59 C58 1.392 . S
C59 C60 1.331 . S
C59 H77 0.932 . S
C60 C59 1.331 . S
C60 C61 1.336 . S
C61 C57 1.394 . S
C61 C60 1.336 . S
C61 H76 0.929 . S
C62 C52 1.386 . S
C62 C55 1.357 . S
C62 H75 0.928 . S
H63 C39 0.931 . S
H64 C41 0.930 . S
H65 C43 0.929 . S
H66 C44 0.931 . S
H67 C46 0.930 . S
H68 C50 0.931 . S
H69 C48 0.931 . S
H70 C52 0.931 . S
H71 C53 0.929 . S
H72 C54 0.930 . S
H73 C57 0.930 . S
H74 C58 0.931 . S
H75 C62 0.928 . S
H76 C61 0.929 . S
H77 C59 0.932 . S
C78 C79 1.386 . S
C78 C80 1.397 . S
C78 H102 0.931 . S
C79 C78 1.386 . S
C79 C83 1.397 . S
C80 C78 1.397 . S
C80 C81 1.384 . S
C80 H103 0.930 . S
C81 C80 1.384 . S
C81 C82 1.377 . S
C81 C84 1.481 . S
C82 C81 1.377 . S
C82 C83 1.389 . S
C82 H104 0.929 . S
C83 C79 1.397 . S
C83 C82 1.389 . S
C83 H105 0.931 . S
C84 C81 1.481 . S
C84 C85 1.387 . S
C84 C89 1.390 . S
C85 C84 1.387 . S
C85 C86 1.401 . S
C85 H106 0.930 . S
C86 C85 1.401 . S
C86 C87 1.376 . S
C86 C95 1.511 . S
C87 C86 1.376 . S
C87 C88 1.392 . S
C87 H108 0.931 . S
C88 C87 1.392 . S
C88 C89 1.361 . S
C88 C90 1.500 . S
C89 C84 1.390 . S
C89 C88 1.361 . S
C89 H107 0.931 . S
C90 C88 1.500 . S
C90 C91 1.371 . S
C90 C92 1.365 . S
C91 C90 1.371 . S
C91 C101 1.386 . S
C91 H109 0.931 . S
C92 C90 1.365 . S
C92 C93 1.409 . S
C92 H110 0.929 . S
C93 C92 1.409 . S
C93 C94 1.380 . S
C93 H111 0.930 . S
C94 C93 1.380 . S
C94 C101 1.357 . S
C95 C86 1.511 . S
C95 C96 1.341 . S
C95 C97 1.371 . S
C96 C95 1.341 . S
C96 C100 1.394 . S
C96 H112 0.930 . S
C97 C95 1.371 . S
C97 C98 1.392 . S
C97 H113 0.931 . S
C98 C97 1.392 . S
C98 C99 1.331 . S
C98 H116 0.932 . S
C99 C98 1.331 . S
C99 C100 1.336 . S
C100 C96 1.394 . S
C100 C99 1.336 . S
C100 H115 0.929 . S
C101 C91 1.386 . S
C101 C94 1.357 . S
C101 H114 0.928 . S
H102 C78 0.931 . S
H103 C80 0.930 . S
H104 C82 0.929 . S
H105 C83 0.931 . S
H106 C85 0.930 . S
H107 C89 0.931 . S
H108 C87 0.931 . S
H109 C91 0.931 . S
H110 C92 0.929 . S
H111 C93 0.930 . S
H112 C96 0.930 . S
H113 C97 0.931 . S
H114 C101 0.928 . S
H115 C100 0.929 . S
H116 C98 0.932 . S
C117 C118 1.386 . S
C117 C119 1.397 . S
C117 H141 0.931 . S
C118 C117 1.386 . S
C118 C122 1.397 . S
C119 C117 1.397 . S
C119 C120 1.384 . S
C119 H142 0.930 . S
C120 C119 1.384 . S
C120 C121 1.377 . S
C120 C123 1.481 . S
C121 C120 1.377 . S
C121 C122 1.389 . S
C121 H143 0.929 . S
C122 C118 1.397 . S
C122 C121 1.389 . S
C122 H144 0.931 . S
C123 C120 1.481 . S
C123 C124 1.387 . S
C123 C128 1.390 . S
C124 C123 1.387 . S
C124 C125 1.401 . S
C124 H145 0.930 . S
C125 C124 1.401 . S
C125 C126 1.376 . S
C125 C134 1.511 . S
C126 C125 1.376 . S
C126 C127 1.392 . S
C126 H147 0.931 . S
C127 C126 1.392 . S
C127 C128 1.361 . S
C127 C129 1.500 . S
C128 C123 1.390 . S
C128 C127 1.361 . S
C128 H146 0.931 . S
C129 C127 1.500 . S
C129 C130 1.371 . S
C129 C131 1.365 . S
C130 C129 1.371 . S
C130 C140 1.386 . S
C130 H148 0.931 . S
C131 C129 1.365 . S
C131 C132 1.409 . S
C131 H149 0.929 . S
C132 C131 1.409 . S
C132 C133 1.380 . S
C132 H150 0.930 . S
C133 C132 1.380 . S
C133 C140 1.357 . S
C134 C125 1.511 . S
C134 C135 1.341 . S
C134 C136 1.371 . S
C135 C134 1.341 . S
C135 C139 1.394 . S
C135 H151 0.930 . S
C136 C134 1.371 . S
C136 C137 1.392 . S
C136 H152 0.931 . S
C137 C136 1.392 . S
C137 C138 1.331 . S
C137 H155 0.932 . S
C138 C137 1.331 . S
C138 C139 1.336 . S
C139 C135 1.394 . S
C139 C138 1.336 . S
C139 H154 0.929 . S
C140 C130 1.386 . S
C140 C133 1.357 . S
C140 H153 0.928 . S
H141 C117 0.931 . S
H142 C119 0.930 . S
H143 C121 0.929 . S
H144 C122 0.931 . S
H145 C124 0.930 . S
H146 C128 0.931 . S
H147 C126 0.931 . S
H148 C130 0.931 . S
H149 C131 0.929 . S
H150 C132 0.930 . S
H151 C135 0.930 . S
H152 C136 0.931 . S
H153 C140 0.928 . S
H154 C139 0.929 . S
H155 C137 0.932 . S
C156 C157 1.386 . S
C156 C158 1.397 . S
C156 H180 0.931 . S
C157 C156 1.386 . S
C157 C161 1.397 . S
C158 C156 1.397 . S
C158 C159 1.384 . S
C158 H181 0.930 . S
C159 C158 1.384 . S
C159 C160 1.377 . S
C159 C162 1.481 . S
C160 C159 1.377 . S
C160 C161 1.389 . S
C160 H182 0.929 . S
C161 C157 1.397 . S
C161 C160 1.389 . S
C161 H183 0.931 . S
C162 C159 1.481 . S
C162 C163 1.387 . S
C162 C167 1.390 . S
C163 C162 1.387 . S
C163 C164 1.401 . S
C163 H184 0.930 . S
C164 C163 1.401 . S
C164 C165 1.376 . S
C164 C173 1.511 . S
C165 C164 1.376 . S
C165 C166 1.392 . S
C165 H186 0.931 . S
C166 C165 1.392 . S
C166 C167 1.361 . S
C166 C168 1.500 . S
C167 C162 1.390 . S
C167 C166 1.361 . S
C167 H185 0.931 . S
C168 C166 1.500 . S
C168 C169 1.371 . S
C168 C170 1.365 . S
C169 C168 1.371 . S
C169 C179 1.386 . S
C169 H187 0.931 . S
C170 C168 1.365 . S
C170 C171 1.409 . S
C170 H188 0.929 . S
C171 C170 1.409 . S
C171 C172 1.380 . S
C171 H189 0.930 . S
C172 C171 1.380 . S
C172 C179 1.357 . S
C173 C164 1.511 . S
C173 C174 1.341 . S
C173 C175 1.371 . S
C174 C173 1.341 . S
C174 C178 1.394 . S
C174 H190 0.930 . S
C175 C173 1.371 . S
C175 C176 1.392 . S
C175 H191 0.931 . S
C176 C175 1.392 . S
C176 C177 1.331 . S
C176 H194 0.932 . S
C177 C176 1.331 . S
C177 C178 1.336 . S
C178 C174 1.394 . S
C178 C177 1.336 . S
C178 H193 0.929 . S
C179 C169 1.386 . S
C179 C172 1.357 . S
C179 H192 0.928 . S
H180 C156 0.931 . S
H181 C158 0.930 . S
H182 C160 0.929 . S
H183 C161 0.931 . S
H184 C163 0.930 . S
H185 C167 0.931 . S
H186 C165 0.931 . S
H187 C169 0.931 . S
H188 C170 0.929 . S
H189 C171 0.930 . S
H190 C174 0.930 . S
H191 C175 0.931 . S
H192 C179 0.928 . S
H193 C178 0.929 . S
H194 C176 0.932 . S
C195 C196 1.386 . S
C195 C197 1.397 . S
C195 H219 0.931 . S
C196 C195 1.386 . S
C196 C200 1.397 . S
C197 C195 1.397 . S
C197 C198 1.384 . S
C197 H220 0.930 . S
C198 C197 1.384 . S
C198 C199 1.377 . S
C198 C201 1.481 . S
C199 C198 1.377 . S
C199 C200 1.389 . S
C199 H221 0.929 . S
C200 C196 1.397 . S
C200 C199 1.389 . S
C200 H222 0.931 . S
C201 C198 1.481 . S
C201 C202 1.387 . S
C201 C206 1.390 . S
C202 C201 1.387 . S
C202 C203 1.401 . S
C202 H223 0.930 . S
C203 C202 1.401 . S
C203 C204 1.376 . S
C203 C212 1.511 . S
C204 C203 1.376 . S
C204 C205 1.392 . S
C204 H225 0.931 . S
C205 C204 1.392 . S
C205 C206 1.361 . S
C205 C207 1.500 . S
C206 C201 1.390 . S
C206 C205 1.361 . S
C206 H224 0.931 . S
C207 C205 1.500 . S
C207 C208 1.371 . S
C207 C209 1.365 . S
C208 C207 1.371 . S
C208 C218 1.386 . S
C208 H226 0.931 . S
C209 C207 1.365 . S
C209 C210 1.409 . S
C209 H227 0.929 . S
C210 C209 1.409 . S
C210 C211 1.380 . S
C210 H228 0.930 . S
C211 C210 1.380 . S
C211 C218 1.357 . S
C212 C203 1.511 . S
C212 C213 1.341 . S
C212 C214 1.371 . S
C213 C212 1.341 . S
C213 C217 1.394 . S
C213 H229 0.930 . S
C214 C212 1.371 . S
C214 C215 1.392 . S
C214 H230 0.931 . S
C215 C214 1.392 . S
C215 C216 1.331 . S
C215 H233 0.932 . S
C216 C215 1.331 . S
C216 C217 1.336 . S
C217 C213 1.394 . S
C217 C216 1.336 . S
C217 H232 0.929 . S
C218 C208 1.386 . S
C218 C211 1.357 . S
C218 H231 0.928 . S
H219 C195 0.931 . S
H220 C197 0.930 . S
H221 C199 0.929 . S
H222 C200 0.931 . S
H223 C202 0.930 . S
H224 C206 0.931 . S
H225 C204 0.931 . S
H226 C208 0.931 . S
H227 C209 0.929 . S
H228 C210 0.930 . S
H229 C213 0.930 . S
H230 C214 0.931 . S
H231 C218 0.928 . S
H232 C217 0.929 . S
H233 C215 0.932 . S
C234 C235 1.386 . S
C234 C236 1.397 . S
C234 H258 0.931 . S
C235 C234 1.386 . S
C235 C239 1.397 . S
C236 C234 1.397 . S
C236 C237 1.384 . S
C236 H259 0.930 . S
C237 C236 1.384 . S
C237 C238 1.377 . S
C237 C240 1.481 . S
C238 C237 1.377 . S
C238 C239 1.389 . S
C238 H260 0.929 . S
C239 C235 1.397 . S
C239 C238 1.389 . S
C239 H261 0.931 . S
C240 C237 1.481 . S
C240 C241 1.387 . S
C240 C245 1.390 . S
C241 C240 1.387 . S
C241 C242 1.401 . S
C241 H262 0.930 . S
C242 C241 1.401 . S
C242 C243 1.376 . S
C242 C251 1.511 . S
C243 C242 1.376 . S
C243 C244 1.392 . S
C243 H264 0.931 . S
C244 C243 1.392 . S
C244 C245 1.361 . S
C244 C246 1.500 . S
C245 C240 1.390 . S
C245 C244 1.361 . S
C245 H263 0.931 . S
C246 C244 1.500 . S
C246 C247 1.371 . S
C246 C248 1.365 . S
C247 C246 1.371 . S
C247 C257 1.386 . S
C247 H265 0.931 . S
C248 C246 1.365 . S
C248 C249 1.409 . S
C248 H266 0.929 . S
C249 C248 1.409 . S
C249 C250 1.380 . S
C249 H267 0.930 . S
C250 C249 1.380 . S
C250 C257 1.357 . S
C251 C242 1.511 . S
C251 C252 1.341 . S
C251 C253 1.371 . S
C252 C251 1.341 . S
C252 C256 1.394 . S
C252 H268 0.930 . S
C253 C251 1.371 . S
C253 C254 1.392 . S
C253 H269 0.931 . S
C254 C253 1.392 . S
C254 C255 1.331 . S
C254 H272 0.932 . S
C255 C254 1.331 . S
C255 C256 1.336 . S
C256 C252 1.394 . S
C256 C255 1.336 . S
C256 H271 0.929 . S
C257 C247 1.386 . S
C257 C250 1.357 . S
C257 H270 0.928 . S
H258 C234 0.931 . S
H259 C236 0.930 . S
H260 C238 0.929 . S
H261 C239 0.931 . S
H262 C241 0.930 . S
H263 C245 0.931 . S
H264 C243 0.931 . S
H265 C247 0.931 . S
H266 C248 0.929 . S
H267 C249 0.930 . S
H268 C252 0.930 . S
H269 C253 0.931 . S
H270 C257 0.928 . S
H271 C256 0.929 . S
H272 C254 0.932 . S
C273 C274 1.386 . S
C273 C275 1.397 . S
C273 H297 0.931 . S
C274 C273 1.386 . S
C274 C278 1.397 . S
C275 C273 1.397 . S
C275 C276 1.384 . S
C275 H298 0.930 . S
C276 C275 1.384 . S
C276 C277 1.377 . S
C276 C279 1.481 . S
C277 C276 1.377 . S
C277 C278 1.389 . S
C277 H299 0.929 . S
C278 C274 1.397 . S
C278 C277 1.389 . S
C278 H300 0.931 . S
C279 C276 1.481 . S
C279 C280 1.387 . S
C279 C284 1.390 . S
C280 C279 1.387 . S
C280 C281 1.401 . S
C280 H301 0.930 . S
C281 C280 1.401 . S
C281 C282 1.376 . S
C281 C290 1.511 . S
C282 C281 1.376 . S
C282 C283 1.392 . S
C282 H303 0.931 . S
C283 C282 1.392 . S
C283 C284 1.361 . S
C283 C285 1.500 . S
C284 C279 1.390 . S
C284 C283 1.361 . S
C284 H302 0.931 . S
C285 C283 1.500 . S
C285 C286 1.371 . S
C285 C287 1.365 . S
C286 C285 1.371 . S
C286 C296 1.386 . S
C286 H304 0.931 . S
C287 C285 1.365 . S
C287 C288 1.409 . S
C287 H305 0.929 . S
C288 C287 1.409 . S
C288 C289 1.380 . S
C288 H306 0.930 . S
C289 C288 1.380 . S
C289 C296 1.357 . S
C290 C281 1.511 . S
C290 C291 1.341 . S
C290 C292 1.371 . S
C291 C290 1.341 . S
C291 C295 1.394 . S
C291 H307 0.930 . S
C292 C290 1.371 . S
C292 C293 1.392 . S
C292 H308 0.931 . S
C293 C292 1.392 . S
C293 C294 1.331 . S
C293 H311 0.932 . S
C294 C293 1.331 . S
C294 C295 1.336 . S
C295 C291 1.394 . S
C295 C294 1.336 . S
C295 H310 0.929 . S
C296 C286 1.386 . S
C296 C289 1.357 . S
C296 H309 0.928 . S
H297 C273 0.931 . S
H298 C275 0.930 . S
H299 C277 0.929 . S
H300 C278 0.931 . S
H301 C280 0.930 . S
H302 C284 0.931 . S
H303 C282 0.931 . S
H304 C286 0.931 . S
H305 C287 0.929 . S
H306 C288 0.930 . S
H307 C291 0.930 . S
H308 C292 0.931 . S
H309 C296 0.928 . S
H310 C295 0.929 . S
H311 C293 0.932 . S
O312 Mg313 1.990 . S
O312 C326 1.253 1_445 S
Mg313 O312 1.990 . S
Mg313 O316 2.180 . S
Mg313 O317 2.117 . S
Mg313 O331 2.030 1_545 S
O314 Mg315 2.072 1_665 S
O314 C326 1.260 . S
Mg315 O314 2.072 1_445 S
Mg315 O316 2.099 . S
Mg315 O318 2.079 . S
Mg315 O319 2.072 1_455 S
Mg315 O321 2.099 1_445 S
Mg315 O332 2.079 1_545 S
O316 Mg313 2.180 . S
O316 Mg315 2.099 . S
O316 C327 1.279 . S
O317 Mg313 2.117 . S
O317 C327 1.250 . S
O318 Mg315 2.079 . S
O318 C328 1.264 . S
O319 Mg315 2.072 1_655 S
O319 C329 1.260 . S
Mg320 O321 2.180 . S
Mg320 O322 2.030 1_565 S
Mg320 O323 1.990 1_565 S
Mg320 O324 2.117 . S
O321 Mg315 2.099 1_665 S
O321 Mg320 2.180 . S
O321 C330 1.279 . S
O322 Mg320 2.030 1_545 S
O322 C328 1.248 1_655 S
O323 Mg320 1.990 1_545 S
O323 C329 1.253 . S
O324 Mg320 2.117 . S
O324 C330 1.250 . S
C325 O331 1.248 . S
C325 O332 1.264 . S
C326 O312 1.253 1_665 S
C326 O314 1.260 . S
C327 O316 1.279 . S
C327 O317 1.250 . S
C328 O318 1.264 . S
C328 O322 1.248 1_455 S
C329 O319 1.260 . S
C329 O323 1.253 . S
C330 O321 1.279 . S
C330 O324 1.250 . S
O331 Mg313 2.030 1_565 S
O331 C325 1.248 . S
O332 Mg315 2.079 1_565 S
O332 C325 1.264 . S
O333 Mg334 1.990 . S
O333 C347 1.253 . S
Mg334 O333 1.990 . S
Mg334 O337 2.179 . S
Mg334 O338 2.117 1_554 S
Mg334 O352 2.030 . S
O335 Mg336 2.072 . S
O335 C347 1.260 . S
Mg336 O335 2.072 . S
Mg336 O337 2.099 . S
Mg336 O339 2.079 1_554 S
Mg336 O340 2.072 1_554 S
Mg336 O342 2.099 1_545 S
Mg336 O353 2.079 . S
O337 Mg334 2.179 . S
O337 Mg336 2.099 . S
O337 C348 1.280 1_554 S
O338 Mg334 2.117 1_556 S
O338 C348 1.250 . S
O339 Mg336 2.079 1_556 S
O339 C349 1.264 1_545 S
O340 Mg336 2.072 1_556 S
O340 C350 1.260 1_545 S
Mg341 O342 2.180 1_556 S
Mg341 O343 2.030 . S
Mg341 O344 1.990 . S
Mg341 O345 2.117 1_556 S
O342 Mg336 2.099 1_565 S
O342 Mg341 2.180 1_554 S
O342 C351 1.279 . S
O343 Mg341 2.030 . S
O343 C349 1.248 . S
O344 Mg341 1.990 . S
O344 C350 1.253 . S
O345 Mg341 2.117 1_554 S
O345 C351 1.250 . S
C346 O352 1.248 . S
C346 O353 1.264 . S
C347 O333 1.253 . S
C347 O335 1.260 . S
C348 O337 1.280 1_556 S
C348 O338 1.250 . S
C349 O339 1.264 1_565 S
C349 O343 1.248 . S
C350 O340 1.260 1_565 S
C350 O344 1.253 . S
C351 O342 1.279 . S
C351 O345 1.250 . S
O352 Mg334 2.030 . S
O352 C346 1.248 . S
O353 Mg336 2.079 . S
O353 C346 1.264 . S
O354 Mg355 1.990 . S
O354 C368 1.253 . S
Mg355 O354 1.990 . S
Mg355 O358 2.180 . S
Mg355 O359 2.117 . S
Mg355 O373 2.030 . S
O356 Mg357 2.072 . S
O356 C368 1.260 . S
Mg357 O356 2.072 . S
Mg357 O358 2.099 . S
Mg357 O360 2.079 . S
Mg357 O361 2.072 . S
Mg357 O363 2.099 . S
Mg357 O374 2.079 . S
O358 Mg355 2.180 . S
O358 Mg357 2.099 . S
O358 C369 1.279 . S
O359 Mg355 2.117 . S
O359 C369 1.250 . S
O360 Mg357 2.079 . S
O360 C370 1.264 . S
O361 Mg357 2.072 . S
O361 C371 1.260 . S
Mg362 O363 2.180 . S
Mg362 O364 2.030 . S
Mg362 O365 1.990 . S
Mg362 O366 2.117 . S
O363 Mg357 2.099 . S
O363 Mg362 2.180 . S
O363 C372 1.279 . S
O364 Mg362 2.030 . S
O364 C370 1.248 . S
O365 Mg362 1.990 . S
O365 C371 1.253 . S
O366 Mg362 2.117 . S
O366 C372 1.250 . S
C367 O373 1.248 . S
C367 O374 1.264 . S
C368 O354 1.253 . S
C368 O356 1.260 . S
C369 O358 1.279 . S
C369 O359 1.250 . S
C370 O360 1.264 . S
C370 O364 1.248 . S
C371 O361 1.260 . S
C371 O365 1.253 . S
C372 O363 1.279 . S
C372 O366 1.250 . S
O373 Mg355 2.030 . S
O373 C367 1.248 . S
O374 Mg357 2.079 . S
O374 C367 1.264 . S
O375 Mg376 1.990 . S
O375 C389 1.253 . S
Mg376 O375 1.990 . S
Mg376 O379 2.180 1_455 S
Mg376 O380 2.117 1_455 S
Mg376 O394 2.030 . S
O377 Mg378 2.072 . S
O377 C389 1.260 . S
Mg378 O377 2.072 . S
Mg378 O379 2.099 1_455 S
Mg378 O381 2.079 1_454 S
Mg378 O382 2.072 1_455 S
Mg378 O384 2.099 1_554 S
Mg378 O395 2.079 . S
O379 Mg376 2.180 1_655 S
O379 Mg378 2.099 1_655 S
O379 C390 1.279 . S
O380 Mg376 2.117 1_655 S
O380 C390 1.250 . S
O381 Mg378 2.079 1_656 S
O381 C391 1.264 . S
O382 Mg378 2.072 1_655 S
O382 C392 1.260 1_554 S
Mg383 O384 2.180 1_655 S
Mg383 O385 2.030 . S
Mg383 O386 1.990 . S
Mg383 O387 2.140 . S
O384 Mg378 2.099 1_556 S
O384 Mg383 2.180 1_455 S
O384 C393 1.279 . S
O385 Mg383 2.030 . S
O385 C391 1.248 . S
O386 Mg383 1.990 . S
O386 C392 1.253 . S
O387 Mg383 2.140 . S
O387 C393 1.229 1_655 S
C388 O394 1.248 . S
C388 O395 1.264 . S
C389 O375 1.253 . S
C389 O377 1.260 . S
C390 O379 1.279 . S
C390 O380 1.250 . S
C391 O381 1.264 . S
C391 O385 1.248 . S
C392 O382 1.260 1_556 S
C392 O386 1.253 . S
C393 O384 1.279 . S
C393 O387 1.229 1_455 S
O394 Mg376 2.030 . S
O394 C388 1.248 . S
O395 Mg378 2.079 . S
O395 C388 1.264 . S
C396 C397 1.349 . S
C396 C398 1.327 . S
C396 H421 0.950 . S
C397 C396 1.349 . S
C397 C413 1.349 . S
C398 C396 1.327 . S
C398 C417 1.429 . S
C398 H422 0.950 . S
C399 C416 1.574 . S
C399 C418 1.368 . S
C399 H423 0.949 . S
H400 C404 0.949 . S
C401 C402 1.349 . S
C401 C403 1.327 . S
C401 H424 0.992 . S
C402 C401 1.349 . S
C402 C414 1.349 . S
C403 C401 1.327 . S
C403 C419 1.429 . S
C403 H425 0.950 . S
C404 H400 0.949 . S
C404 C412 1.574 . S
C404 C420 1.368 . S
H405 C413 0.950 . S
H406 C411 0.950 . S
H407 C412 0.949 . S
H408 C414 0.950 . S
H409 C415 0.950 . S
H410 C416 0.949 . S
C411 H406 0.950 . S
C411 C413 1.327 . S
C411 C417 1.429 . S
C412 C404 1.574 . S
C412 H407 0.949 . S
C412 C418 1.368 . S
C413 C397 1.349 . S
C413 H405 0.950 . S
C413 C411 1.327 . S
C414 C402 1.349 . S
C414 H408 0.950 . S
C414 C415 1.327 . S
C415 H409 0.950 . S
C415 C414 1.327 . S
C415 C419 1.429 . S
C416 C399 1.574 . S
C416 H410 0.949 . S
C416 C420 1.368 . S
C417 C398 1.429 . S
C417 C411 1.429 . S
C417 C418 1.523 . S
C418 C399 1.368 . S
C418 C412 1.368 . S
C418 C417 1.523 . S
C419 C403 1.429 . S
C419 C415 1.429 . S
C419 C420 1.523 . S
C420 C404 1.368 . S
C420 C416 1.368 . S
C420 C419 1.523 . S
H421 C396 0.950 . S
H422 C398 0.950 . S
H423 C399 0.949 . S
H424 C401 0.992 . S
H425 C403 0.950 . S
C426 C427 1.349 . S
C426 C428 1.327 . S
C426 H451 0.950 . S
C427 C426 1.349 . S
C427 C443 1.349 . S
C428 C426 1.327 . S
C428 C447 1.429 . S
C428 H452 0.950 . S
C429 C446 1.574 . S
C429 C448 1.368 . S
C429 H453 0.949 . S
H430 C434 0.911 1_545 S
C431 C432 1.349 . S
C431 C433 1.327 . S
C431 H454 0.950 . S
C432 C431 1.349 . S
C432 C444 1.349 1_565 S
C433 C431 1.327 . S
C433 C449 1.429 . S
C433 H455 0.950 . S
C434 H430 0.911 1_565 S
C434 C442 1.574 . S
C434 C450 1.368 . S
H435 C443 0.950 . S
H436 C441 0.950 . S
H437 C442 0.949 . S
H438 C444 0.950 . S
H439 C445 0.936 1_545 S
H440 C446 0.949 . S
C441 H436 0.950 . S
C441 C443 1.327 . S
C441 C447 1.429 . S
C442 C434 1.574 . S
C442 H437 0.949 . S
C442 C448 1.368 . S
C443 C427 1.349 . S
C443 H435 0.950 . S
C443 C441 1.327 . S
C444 C432 1.349 1_545 S
C444 H438 0.950 . S
C444 C445 1.323 1_545 S
C445 H439 0.936 1_565 S
C445 C444 1.323 1_565 S
C445 C449 1.446 . S
C446 C429 1.574 . S
C446 H440 0.949 . S
C446 C450 1.368 . S
C447 C428 1.429 . S
C447 C441 1.429 . S
C447 C448 1.523 . S
C448 C429 1.368 . S
C448 C442 1.368 . S
C448 C447 1.523 . S
C449 C433 1.429 . S
C449 C445 1.446 . S
C449 C450 1.523 . S
C450 C434 1.368 . S
C450 C446 1.368 . S
C450 C449 1.523 . S
H451 C426 0.950 . S
H452 C428 0.950 . S
H453 C429 0.949 . S
H454 C431 0.950 . S
H455 C433 0.950 . S
C456 C457 1.349 . S
C456 C458 1.327 . S
C456 H481 0.950 . S
C457 C456 1.349 . S
C457 C473 1.349 . S
C458 C456 1.327 . S
C458 C477 1.429 . S
C458 H482 0.950 . S
C459 C476 1.574 . S
C459 C478 1.368 . S
C459 H483 0.949 . S
H460 C464 0.949 . S
C461 C462 1.349 . S
C461 C463 1.327 . S
C461 H484 0.950 . S
C462 C461 1.349 . S
C462 C474 1.349 . S
C463 C461 1.327 . S
C463 C479 1.429 . S
C463 H485 0.950 . S
C464 H460 0.949 . S
C464 C472 1.574 . S
C464 C480 1.368 . S
H465 C473 0.950 . S
H466 C471 0.950 . S
H467 C472 0.949 . S
H468 C474 0.950 . S
H469 C475 0.950 . S
H470 C476 0.949 . S
C471 H466 0.950 . S
C471 C473 1.327 . S
C471 C477 1.429 . S
C472 C464 1.574 . S
C472 H467 0.949 . S
C472 C478 1.368 . S
C473 C457 1.349 . S
C473 H465 0.950 . S
C473 C471 1.327 . S
C474 C462 1.349 . S
C474 H468 0.950 . S
C474 C475 1.327 . S
C475 H469 0.950 . S
C475 C474 1.327 . S
C475 C479 1.429 . S
C476 C459 1.574 . S
C476 H470 0.949 . S
C476 C480 1.368 . S
C477 C458 1.429 . S
C477 C471 1.429 . S
C477 C478 1.523 . S
C478 C459 1.368 . S
C478 C472 1.368 . S
C478 C477 1.523 . S
C479 C463 1.429 . S
C479 C475 1.429 . S
C479 C480 1.523 . S
C480 C464 1.368 . S
C480 C476 1.368 . S
C480 C479 1.523 . S
H481 C456 0.950 . S
H482 C458 0.950 . S
H483 C459 0.949 . S
H484 C461 0.950 . S
H485 C463 0.950 . S
C486 C487 1.349 . S
C486 C488 1.327 . S
C486 H511 0.950 . S
C487 C486 1.349 . S
C487 C503 1.349 . S
C488 C486 1.327 . S
C488 C507 1.429 . S
C488 H512 0.950 . S
C489 C506 1.574 . S
C489 C508 1.368 . S
C489 H513 0.949 . S
H490 C494 0.949 . S
C491 C492 1.349 . S
C491 C493 1.327 . S
C491 H514 0.919 1_655 S
C492 C491 1.349 . S
C492 C504 1.349 . S
C493 C491 1.327 . S
C493 C509 1.429 . S
C493 H515 0.950 . S
C494 H490 0.949 . S
C494 C502 1.574 . S
C494 C510 1.368 . S
H495 C503 0.950 . S
H496 C501 0.950 . S
H497 C502 0.949 . S
H498 C504 0.950 . S
H499 C505 0.950 . S
H500 C506 0.949 . S
C501 H496 0.950 . S
C501 C503 1.327 . S
C501 C507 1.429 . S
C502 C494 1.574 . S
C502 H497 0.949 . S
C502 C508 1.368 . S
C503 C487 1.349 . S
C503 H495 0.950 . S
C503 C501 1.327 . S
C504 C492 1.349 . S
C504 H498 0.950 . S
C504 C505 1.327 . S
C505 H499 0.950 . S
C505 C504 1.327 . S
C505 C509 1.429 . S
C506 C489 1.574 . S
C506 H500 0.949 . S
C506 C510 1.368 . S
C507 C488 1.429 . S
C507 C501 1.429 . S
C507 C508 1.523 . S
C508 C489 1.368 . S
C508 C502 1.368 . S
C508 C507 1.523 . S
C509 C493 1.429 . S
C509 C505 1.429 . S
C509 C510 1.523 . S
C510 C494 1.368 . S
C510 C506 1.368 . S
C510 C509 1.523 . S
H511 C486 0.950 . S
H512 C488 0.950 . S
H513 C489 0.949 . S
H514 C491 0.919 1_455 S
H515 C493 0.950 . S
C516 C517 1.349 . S
C516 C518 1.327 . S
C516 H541 0.950 . S
C517 C516 1.349 . S
C517 C533 1.349 . S
C518 C516 1.327 . S
C518 C537 1.429 . S
C518 H542 0.950 . S
C519 C536 1.574 . S
C519 C538 1.368 . S
C519 H543 0.949 . S
H520 C524 0.949 . S
C521 C522 1.349 . S
C521 C523 1.327 . S
C521 H544 0.950 . S
C522 C521 1.349 . S
C522 C534 1.349 . S
C523 C521 1.327 . S
C523 C539 1.429 . S
C523 H545 0.950 . S
C524 H520 0.949 . S
C524 C532 1.574 . S
C524 C540 1.368 . S
H525 C533 0.950 . S
H526 C531 0.950 . S
H527 C532 0.949 . S
H528 C534 0.950 . S
H529 C535 0.950 . S
H530 C536 0.949 . S
C531 H526 0.950 . S
C531 C533 1.327 . S
C531 C537 1.429 . S
C532 C524 1.574 . S
C532 H527 0.949 . S
C532 C538 1.368 . S
C533 C517 1.349 . S
C533 H525 0.950 . S
C533 C531 1.327 . S
C534 C522 1.349 . S
C534 H528 0.950 . S
C534 C535 1.327 . S
C535 H529 0.950 . S
C535 C534 1.327 . S
C535 C539 1.429 . S
C536 C519 1.574 . S
C536 H530 0.949 . S
C536 C540 1.368 . S
C537 C518 1.429 . S
C537 C531 1.429 . S
C537 C538 1.523 . S
C538 C519 1.368 . S
C538 C532 1.368 . S
C538 C537 1.523 . S
C539 C523 1.429 . S
C539 C535 1.429 . S
C539 C540 1.523 . S
C540 C524 1.368 . S
C540 C536 1.368 . S
C540 C539 1.523 . S
H541 C516 0.950 . S
H542 C518 0.950 . S
H543 C519 0.949 . S
H544 C521 0.950 . S
H545 C523 0.950 . S
C546 C547 1.349 . S
C546 C548 1.327 . S
C546 H571 0.950 . S
C547 C546 1.349 . S
C547 C563 1.349 . S
C548 C546 1.327 . S
C548 C567 1.429 . S
C548 H572 0.950 . S
C549 C566 1.574 . S
C549 C568 1.368 . S
C549 H573 0.949 . S
H550 C554 0.949 . S
C551 C552 1.349 . S
C551 C553 1.327 . S
C551 H574 0.950 . S
C552 C551 1.349 . S
C552 C564 1.349 . S
C553 C551 1.327 . S
C553 C569 1.429 . S
C553 H575 0.950 . S
C554 H550 0.949 . S
C554 C562 1.574 . S
C554 C570 1.368 . S
H555 C563 0.950 . S
H556 C561 0.950 . S
H557 C562 0.949 . S
H558 C564 0.950 1_545 S
H559 C565 0.950 . S
H560 C566 0.949 . S
C561 H556 0.950 . S
C561 C563 1.327 . S
C561 C567 1.429 . S
C562 C554 1.574 . S
C562 H557 0.949 . S
C562 C568 1.368 . S
C563 C547 1.349 . S
C563 H555 0.950 . S
C563 C561 1.327 . S
C564 C552 1.349 . S
C564 H558 0.950 1_565 S
C564 C565 1.327 . S
C565 H559 0.950 . S
C565 C564 1.327 . S
C565 C569 1.429 . S
C566 C549 1.574 . S
C566 H560 0.949 . S
C566 C570 1.368 . S
C567 C548 1.429 . S
C567 C561 1.429 . S
C567 C568 1.523 . S
C568 C549 1.368 . S
C568 C562 1.368 . S
C568 C567 1.523 . S
C569 C553 1.429 . S
C569 C565 1.429 . S
C569 C570 1.523 . S
C570 C554 1.368 . S
C570 C566 1.368 . S
C570 C569 1.523 . S
H571 C546 0.950 . S
H572 C548 0.950 . S
H573 C549 0.949 . S
H574 C551 0.950 . S
H575 C553 0.950 . S
C576 C577 1.349 . S
C576 C578 1.327 . S
C576 H601 0.950 . S
C577 C576 1.349 . S
C577 C593 1.349 . S
C578 C576 1.327 . S
C578 C597 1.429 . S
C578 H602 0.950 . S
C579 C596 1.574 . S
C579 C598 1.368 . S
C579 H603 0.949 . S
H580 C584 0.949 . S
C581 C582 1.349 . S
C581 C583 1.327 . S
C581 H604 0.950 . S
C582 C581 1.349 . S
C582 C594 1.349 . S
C583 C581 1.327 . S
C583 C599 1.429 . S
C583 H605 0.950 . S
C584 H580 0.949 . S
C584 C592 1.574 . S
C584 C600 1.368 . S
H585 C593 0.950 . S
H586 C591 0.950 . S
H587 C592 0.949 . S
H588 C594 0.950 . S
H589 C595 0.950 . S
H590 C596 0.949 . S
C591 H586 0.950 . S
C591 C593 1.327 . S
C591 C597 1.429 . S
C592 C584 1.574 . S
C592 H587 0.949 . S
C592 C598 1.368 . S
C593 C577 1.349 . S
C593 H585 0.950 . S
C593 C591 1.327 . S
C594 C582 1.349 . S
C594 H588 0.950 . S
C594 C595 1.327 . S
C595 H589 0.950 . S
C595 C594 1.327 . S
C595 C599 1.429 . S
C596 C579 1.574 . S
C596 H590 0.949 . S
C596 C600 1.368 . S
C597 C578 1.429 . S
C597 C591 1.429 . S
C597 C598 1.523 . S
C598 C579 1.368 . S
C598 C592 1.368 . S
C598 C597 1.523 . S
C599 C583 1.429 . S
C599 C595 1.429 . S
C599 C600 1.523 . S
C600 C584 1.368 . S
C600 C596 1.368 . S
C600 C599 1.523 . S
H601 C576 0.950 . S
H602 C578 0.950 . S
H603 C579 0.949 . S
H604 C581 0.950 . S
H605 C583 0.950 . S
C606 C607 1.349 . S
C606 C608 1.327 . S
C606 H631 0.950 . S
C607 C606 1.349 . S
C607 C623 1.349 . S
C608 C606 1.327 . S
C608 C627 1.429 . S
C608 H632 0.950 . S
C609 C626 1.574 . S
C609 C628 1.368 . S
C609 H633 0.949 . S
H610 C614 0.949 . S
C611 C612 1.349 . S
C611 C613 1.327 . S
C611 H634 0.950 . S
C612 C611 1.349 . S
C612 C624 1.349 . S
C613 C611 1.327 . S
C613 C629 1.429 . S
C613 H635 0.950 . S
C614 H610 0.949 . S
C614 C622 1.574 . S
C614 C630 1.368 . S
H615 C623 0.950 . S
H616 C621 0.950 . S
H617 C622 0.949 . S
H618 C624 0.950 . S
H619 C625 0.950 . S
H620 C626 0.949 . S
C621 H616 0.950 . S
C621 C623 1.327 . S
C621 C627 1.429 . S
C622 C614 1.574 . S
C622 H617 0.949 . S
C622 C628 1.368 . S
C623 C607 1.349 . S
C623 H615 0.950 . S
C623 C621 1.327 . S
C624 C612 1.349 . S
C624 H618 0.950 . S
C624 C625 1.327 . S
C625 H619 0.950 . S
C625 C624 1.327 . S
C625 C629 1.429 . S
C626 C609 1.574 . S
C626 H620 0.949 . S
C626 C630 1.368 . S
C627 C608 1.429 . S
C627 C621 1.429 . S
C627 C628 1.523 . S
C628 C609 1.368 . S
C628 C622 1.368 . S
C628 C627 1.523 . S
C629 C613 1.429 . S
C629 C625 1.429 . S
C629 C630 1.523 . S
C630 C614 1.368 . S
C630 C626 1.368 . S
C630 C629 1.523 . S
H631 C606 0.950 . S
H632 C608 0.950 . S
H633 C609 0.949 . S
H634 C611 0.950 . S
H635 C613 0.950 . S
C636 C637 1.349 . S
C636 C638 1.327 . S
C636 H661 0.950 . S
C637 C636 1.349 . S
C637 C653 1.349 . S
C638 C636 1.327 . S
C638 C657 1.429 . S
C638 H662 0.950 . S
C639 C656 1.574 . S
C639 C658 1.368 . S
C639 H663 0.949 . S
H640 C644 0.949 . S
C641 C642 1.349 . S
C641 C643 1.327 . S
C641 H664 0.950 . S
C642 C641 1.349 . S
C642 C654 1.349 . S
C643 C641 1.327 . S
C643 C659 1.429 . S
C643 H665 0.950 . S
C644 H640 0.949 . S
C644 C652 1.574 . S
C644 C660 1.368 . S
H645 C653 0.950 . S
H646 C651 0.950 . S
H647 C652 0.949 . S
H648 C654 0.950 1_556 S
H649 C655 0.950 . S
H650 C656 0.949 . S
C651 H646 0.950 . S
C651 C653 1.327 . S
C651 C657 1.429 . S
C652 C644 1.574 . S
C652 H647 0.949 . S
C652 C658 1.368 . S
C653 C637 1.349 . S
C653 H645 0.950 . S
C653 C651 1.327 . S
C654 C642 1.349 . S
C654 H648 0.950 1_554 S
C654 C655 1.327 . S
C655 H649 0.950 . S
C655 C654 1.327 . S
C655 C659 1.429 . S
C656 C639 1.574 . S
C656 H650 0.949 . S
C656 C660 1.368 . S
C657 C638 1.429 . S
C657 C651 1.429 . S
C657 C658 1.523 . S
C658 C639 1.368 . S
C658 C652 1.368 . S
C658 C657 1.523 . S
C659 C643 1.429 . S
C659 C655 1.429 . S
C659 C660 1.523 . S
C660 C644 1.368 . S
C660 C656 1.368 . S
C660 C659 1.523 . S
H661 C636 0.950 . S
H662 C638 0.950 . S
H663 C639 0.949 . S
H664 C641 0.950 . S
H665 C643 0.950 . S
C666 C667 1.349 . S
C666 C668 1.327 . S
C666 H691 0.950 . S
C667 C666 1.349 . S
C667 C683 1.349 . S
C668 C666 1.327 . S
C668 C687 1.429 . S
C668 H692 0.950 . S
C669 C686 1.574 . S
C669 C688 1.368 . S
C669 H693 0.949 . S
H670 C674 0.949 . S
C671 C672 1.349 . S
C671 C673 1.327 . S
C671 H694 0.950 . S
C672 C671 1.349 . S
C672 C684 1.349 . S
C673 C671 1.327 . S
C673 C689 1.429 . S
C673 H695 0.950 . S
C674 H670 0.949 . S
C674 C682 1.574 . S
C674 C690 1.368 . S
H675 C683 0.950 . S
H676 C681 0.950 . S
H677 C682 0.949 . S
H678 C684 0.950 . S
H679 C685 0.950 . S
H680 C686 0.949 . S
C681 H676 0.950 . S
C681 C683 1.327 . S
C681 C687 1.429 . S
C682 C674 1.574 . S
C682 H677 0.949 . S
C682 C688 1.368 . S
C683 C667 1.349 . S
C683 H675 0.950 . S
C683 C681 1.327 . S
C684 C672 1.349 . S
C684 H678 0.950 . S
C684 C685 1.327 . S
C685 H679 0.950 . S
C685 C684 1.327 . S
C685 C689 1.429 . S
C686 C669 1.574 . S
C686 H680 0.949 . S
C686 C690 1.368 . S
C687 C668 1.429 . S
C687 C681 1.429 . S
C687 C688 1.523 . S
C688 C669 1.368 . S
C688 C682 1.368 . S
C688 C687 1.523 . S
C689 C673 1.429 . S
C689 C685 1.429 . S
C689 C690 1.523 . S
C690 C674 1.368 . S
C690 C686 1.368 . S
C690 C689 1.523 . S
H691 C666 0.950 . S
H692 C668 0.950 . S
H693 C669 0.949 . S
H694 C671 0.950 . S
H695 C673 0.950 . S
C696 C697 1.349 . S
C696 C698 1.327 . S
C696 H721 0.950 . S
C697 C696 1.349 . S
C697 C713 1.349 . S
C698 C696 1.327 . S
C698 C717 1.429 . S
C698 H722 0.950 . S
C699 C716 1.574 . S
C699 C718 1.368 . S
C699 H723 0.949 . S
H700 C704 0.949 . S
C701 C702 1.349 . S
C701 C703 1.327 . S
C701 H724 0.950 . S
C702 C701 1.349 . S
C702 C714 1.349 . S
C703 C701 1.327 . S
C703 C719 1.429 . S
C703 H725 0.950 . S
C704 H700 0.949 . S
C704 C712 1.574 . S
C704 C720 1.368 . S
H705 C713 0.950 . S
H706 C711 0.950 . S
H707 C712 0.949 . S
H708 C714 0.950 . S
H709 C715 0.950 . S
H710 C716 0.949 . S
C711 H706 0.950 . S
C711 C713 1.327 . S
C711 C717 1.429 . S
C712 C704 1.574 . S
C712 H707 0.949 . S
C712 C718 1.368 . S
C713 C697 1.349 . S
C713 H705 0.950 . S
C713 C711 1.327 . S
C714 C702 1.349 . S
C714 H708 0.950 . S
C714 C715 1.327 . S
C715 H709 0.950 . S
C715 C714 1.327 . S
C715 C719 1.429 . S
C716 C699 1.574 . S
C716 H710 0.949 . S
C716 C720 1.368 . S
C717 C698 1.429 . S
C717 C711 1.429 . S
C717 C718 1.523 . S
C718 C699 1.368 . S
C718 C712 1.368 . S
C718 C717 1.523 . S
C719 C703 1.429 . S
C719 C715 1.429 . S
C719 C720 1.523 . S
C720 C704 1.368 . S
C720 C716 1.368 . S
C720 C719 1.523 . S
H721 C696 0.950 . S
H722 C698 0.950 . S
H723 C699 0.949 . S
H724 C701 0.950 . S
H725 C703 0.950 . S
C726 C727 1.349 . S
C726 C728 1.327 . S
C726 H751 0.950 . S
C727 C726 1.349 . S
C727 C743 1.349 . S
C728 C726 1.327 . S
C728 C747 1.429 . S
C728 H752 0.950 . S
C729 C746 1.574 . S
C729 C748 1.368 . S
C729 H753 0.949 . S
H730 C734 0.949 . S
C731 C732 1.349 . S
C731 C733 1.327 . S
C731 H754 0.950 . S
C732 C731 1.349 . S
C732 C744 1.349 . S
C733 C731 1.327 . S
C733 C749 1.429 . S
C733 H755 0.950 . S
C734 H730 0.949 . S
C734 C742 1.574 . S
C734 C750 1.368 . S
H735 C743 0.950 . S
H736 C741 0.950 . S
H737 C742 0.949 . S
H738 C744 0.950 . S
H739 C745 0.950 . S
H740 C746 0.949 . S
C741 H736 0.950 . S
C741 C743 1.327 . S
C741 C747 1.429 . S
C742 C734 1.574 . S
C742 H737 0.949 . S
C742 C748 1.368 . S
C743 C727 1.349 . S
C743 H735 0.950 . S
C743 C741 1.327 . S
C744 C732 1.349 . S
C744 H738 0.950 . S
C744 C745 1.327 . S
C745 H739 0.950 . S
C745 C744 1.327 . S
C745 C749 1.429 . S
C746 C729 1.574 . S
C746 H740 0.949 . S
C746 C750 1.368 . S
C747 C728 1.429 . S
C747 C741 1.429 . S
C747 C748 1.523 . S
C748 C729 1.368 . S
C748 C742 1.368 . S
C748 C747 1.523 . S
C749 C733 1.429 . S
C749 C745 1.429 . S
C749 C750 1.523 . S
C750 C734 1.368 . S
C750 C746 1.368 . S
C750 C749 1.523 . S
H751 C726 0.950 . S
H752 C728 0.950 . S
H753 C729 0.949 . S
H754 C731 0.950 . S
H755 C733 0.950 . S
C756 C757 1.349 . S
C756 C758 1.327 . S
C756 H781 0.950 . S
C757 C756 1.349 . S
C757 C773 1.349 . S
C758 C756 1.327 . S
C758 C777 1.429 . S
C758 H782 0.950 . S
C759 C776 1.574 . S
C759 C778 1.368 . S
C759 H783 0.949 . S
H760 C764 0.949 . S
C761 C762 1.349 . S
C761 C763 1.327 . S
C761 H784 0.950 . S
C762 C761 1.349 . S
C762 C774 1.349 . S
C763 C761 1.327 . S
C763 C779 1.429 . S
C763 H785 0.950 . S
C764 H760 0.949 . S
C764 C772 1.574 . S
C764 C780 1.368 . S
H765 C773 0.950 . S
H766 C771 0.950 . S
H767 C772 0.949 . S
H768 C774 0.950 1_545 S
H769 C775 0.948 . S
H770 C776 0.949 . S
C771 H766 0.950 . S
C771 C773 1.327 . S
C771 C777 1.429 . S
C772 C764 1.574 . S
C772 H767 0.949 . S
C772 C778 1.368 . S
C773 C757 1.349 . S
C773 H765 0.950 . S
C773 C771 1.327 . S
C774 C762 1.349 . S
C774 H768 0.950 1_565 S
C774 C775 1.327 . S
C775 H769 0.948 . S
C775 C774 1.327 . S
C775 C779 1.429 . S
C776 C759 1.574 . S
C776 H770 0.949 . S
C776 C780 1.368 . S
C777 C758 1.429 . S
C777 C771 1.429 . S
C777 C778 1.523 . S
C778 C759 1.368 . S
C778 C772 1.368 . S
C778 C777 1.523 . S
C779 C763 1.429 . S
C779 C775 1.429 . S
C779 C780 1.523 . S
C780 C764 1.368 . S
C780 C776 1.368 . S
C780 C779 1.523 . S
H781 C756 0.950 . S
H782 C758 0.950 . S
H783 C759 0.949 . S
H784 C761 0.950 . S
H785 C763 0.950 . S
C786 C787 1.349 . S
C786 C788 1.327 . S
C786 H811 0.950 . S
C787 C786 1.349 . S
C787 C803 1.349 . S
C788 C786 1.327 . S
C788 C807 1.429 . S
C788 H812 0.950 . S
C789 C806 1.574 . S
C789 C808 1.368 . S
C789 H813 0.949 . S
H790 C794 0.949 . S
C791 C792 1.349 . S
C791 C793 1.327 . S
C791 H814 0.950 . S
C792 C791 1.349 . S
C792 C804 1.349 . S
C793 C791 1.327 . S
C793 C809 1.429 . S
C793 H815 0.950 . S
C794 H790 0.949 . S
C794 C802 1.574 . S
C794 C810 1.368 . S
H795 C803 0.950 . S
H796 C801 0.950 . S
H797 C802 0.949 . S
H798 C804 0.950 . S
H799 C805 0.950 . S
H800 C806 0.949 . S
C801 H796 0.950 . S
C801 C803 1.327 . S
C801 C807 1.429 . S
C802 C794 1.574 . S
C802 H797 0.949 . S
C802 C808 1.368 . S
C803 C787 1.349 . S
C803 H795 0.950 . S
C803 C801 1.327 . S
C804 C792 1.349 . S
C804 H798 0.950 . S
C804 C805 1.327 . S
C805 H799 0.950 . S
C805 C804 1.327 . S
C805 C809 1.429 . S
C806 C789 1.574 . S
C806 H800 0.949 . S
C806 C810 1.368 . S
C807 C788 1.429 . S
C807 C801 1.429 . S
C807 C808 1.523 . S
C808 C789 1.368 . S
C808 C802 1.368 . S
C808 C807 1.523 . S
C809 C793 1.429 . S
C809 C805 1.429 . S
C809 C810 1.523 . S
C810 C794 1.368 . S
C810 C806 1.368 . S
C810 C809 1.523 . S
H811 C786 0.950 . S
H812 C788 0.950 . S
H813 C789 0.949 . S
H814 C791 0.950 . S
H815 C793 0.950 . S
C816 C817 1.349 . S
C816 C818 1.327 . S
C816 H841 0.950 . S
C817 C816 1.349 . S
C817 C833 1.349 . S
C818 C816 1.327 . S
C818 C837 1.429 . S
C818 H842 0.950 . S
C819 C836 1.574 . S
C819 C838 1.368 . S
C819 H843 0.949 . S
H820 C824 0.949 . S
C821 C822 1.349 . S
C821 C823 1.327 . S
C821 H844 0.950 . S
C822 C821 1.349 . S
C822 C834 1.349 . S
C823 C821 1.327 . S
C823 C839 1.429 . S
C823 H845 0.950 . S
C824 H820 0.949 . S
C824 C832 1.574 . S
C824 C840 1.368 . S
H825 C833 0.950 . S
H826 C831 0.950 . S
H827 C832 0.949 . S
H828 C834 0.950 . S
H829 C835 0.950 . S
H830 C836 0.949 . S
C831 H826 0.950 . S
C831 C833 1.327 . S
C831 C837 1.429 . S
C832 C824 1.574 . S
C832 H827 0.949 . S
C832 C838 1.368 . S
C833 C817 1.349 . S
C833 H825 0.950 . S
C833 C831 1.327 . S
C834 C822 1.349 . S
C834 H828 0.950 . S
C834 C835 1.327 . S
C835 H829 0.950 . S
C835 C834 1.327 . S
C835 C839 1.429 . S
C836 C819 1.574 . S
C836 H830 0.949 . S
C836 C840 1.368 . S
C837 C818 1.429 . S
C837 C831 1.429 . S
C837 C838 1.523 . S
C838 C819 1.368 . S
C838 C832 1.368 . S
C838 C837 1.523 . S
C839 C823 1.429 . S
C839 C835 1.429 . S
C839 C840 1.523 . S
C840 C824 1.368 . S
C840 C836 1.368 . S
C840 C839 1.523 . S
H841 C816 0.950 . S
H842 C818 0.950 . S
H843 C819 0.949 . S
H844 C821 0.950 . S
H845 C823 0.950 . S
C846 C847 1.349 . S
C846 C848 1.327 . S
C846 H871 0.950 . S
C847 C846 1.349 . S
C847 C863 1.349 . S
C848 C846 1.327 . S
C848 C867 1.429 . S
C848 H872 0.950 . S
C849 C866 1.574 . S
C849 C868 1.368 . S
C849 H873 0.949 . S
H850 C854 0.949 . S
C851 C852 1.349 . S
C851 C853 1.327 . S
C851 H874 0.950 . S
C852 C851 1.349 . S
C852 C864 1.349 . S
C853 C851 1.327 . S
C853 C869 1.429 . S
C853 H875 0.950 . S
C854 H850 0.949 . S
C854 C862 1.574 . S
C854 C870 1.368 . S
H855 C863 0.950 . S
H856 C861 0.950 . S
H857 C862 0.949 . S
H858 C864 0.950 . S
H859 C865 0.950 . S
H860 C866 0.949 . S
C861 H856 0.950 . S
C861 C863 1.327 . S
C861 C867 1.429 . S
C862 C854 1.574 . S
C862 H857 0.949 . S
C862 C868 1.368 . S
C863 C847 1.349 . S
C863 H855 0.950 . S
C863 C861 1.327 . S
C864 C852 1.349 . S
C864 H858 0.950 . S
C864 C865 1.327 . S
C865 H859 0.950 . S
C865 C864 1.327 . S
C865 C869 1.429 . S
C866 C849 1.574 . S
C866 H860 0.949 . S
C866 C870 1.368 . S
C867 C848 1.429 . S
C867 C861 1.429 . S
C867 C868 1.523 . S
C868 C849 1.368 . S
C868 C862 1.368 . S
C868 C867 1.523 . S
C869 C853 1.429 . S
C869 C865 1.429 . S
C869 C870 1.523 . S
C870 C854 1.368 . S
C870 C866 1.368 . S
C870 C869 1.523 . S
H871 C846 0.950 . S
H872 C848 0.950 . S
H873 C849 0.949 . S
H874 C851 0.950 . S
H875 C853 0.950 . S
C876 C877 1.349 . S
C876 C878 1.327 . S
C876 H901 0.950 . S
C877 C876 1.349 . S
C877 C893 1.349 . S
C878 C876 1.327 . S
C878 C897 1.429 . S
C878 H902 0.950 . S
C879 C896 1.574 . S
C879 C898 1.368 . S
C879 H903 0.949 . S
H880 C884 0.949 . S
C881 C882 1.349 . S
C881 C883 1.327 . S
C881 H904 0.950 . S
C882 C881 1.349 . S
C882 C894 1.349 . S
C883 C881 1.327 . S
C883 C899 1.429 . S
C883 H905 0.950 . S
C884 H880 0.949 . S
C884 C892 1.574 . S
C884 C900 1.368 . S
H885 C893 0.950 . S
H886 C891 0.950 . S
H887 C892 0.949 . S
H888 C894 0.950 1_554 S
H889 C895 0.950 . S
H890 C896 0.949 . S
C891 H886 0.950 . S
C891 C893 1.327 . S
C891 C897 1.429 . S
C892 C884 1.574 . S
C892 H887 0.949 . S
C892 C898 1.368 . S
C893 C877 1.349 . S
C893 H885 0.950 . S
C893 C891 1.327 . S
C894 C882 1.349 . S
C894 H888 0.950 1_556 S
C894 C895 1.327 . S
C895 H889 0.950 . S
C895 C894 1.327 . S
C895 C899 1.429 . S
C896 C879 1.574 . S
C896 H890 0.949 . S
C896 C900 1.368 . S
C897 C878 1.429 . S
C897 C891 1.429 . S
C897 C898 1.523 . S
C898 C879 1.368 . S
C898 C892 1.368 . S
C898 C897 1.523 . S
C899 C883 1.429 . S
C899 C895 1.429 . S
C899 C900 1.523 . S
C900 C884 1.368 . S
C900 C896 1.368 . S
C900 C899 1.523 . S
H901 C876 0.950 . S
H902 C878 0.950 . S
H903 C879 0.949 . S
H904 C881 0.950 . S
H905 C883 0.950 . S
C906 C907 1.349 . S
C906 C908 1.327 . S
C906 H931 0.950 . S
C907 C906 1.349 . S
C907 C923 1.349 . S
C908 C906 1.327 . S
C908 C927 1.429 . S
C908 H932 0.950 . S
C909 C926 1.574 . S
C909 C928 1.368 . S
C909 H933 0.949 . S
H910 C914 0.949 . S
C911 C912 1.349 . S
C911 C913 1.327 . S
C911 H934 0.950 . S
C912 C911 1.349 . S
C912 C924 1.349 . S
C913 C911 1.327 . S
C913 C929 1.429 . S
C913 H935 0.950 . S
C914 H910 0.949 . S
C914 C922 1.574 . S
C914 C930 1.368 . S
H915 C923 0.950 . S
H916 C921 0.950 . S
H917 C922 0.949 . S
H918 C924 0.950 . S
H919 C925 0.950 . S
H920 C926 0.949 . S
C921 H916 0.950 . S
C921 C923 1.327 . S
C921 C927 1.429 . S
C922 C914 1.574 . S
C922 H917 0.949 . S
C922 C928 1.368 . S
C923 C907 1.349 . S
C923 H915 0.950 . S
C923 C921 1.327 . S
C924 C912 1.349 . S
C924 H918 0.950 . S
C924 C925 1.327 . S
C925 H919 0.950 . S
C925 C924 1.327 . S
C925 C929 1.429 . S
C926 C909 1.574 . S
C926 H920 0.949 . S
C926 C930 1.368 . S
C927 C908 1.429 . S
C927 C921 1.429 . S
C927 C928 1.523 . S
C928 C909 1.368 . S
C928 C922 1.368 . S
C928 C927 1.523 . S
C929 C913 1.429 . S
C929 C925 1.429 . S
C929 C930 1.523 . S
C930 C914 1.368 . S
C930 C926 1.368 . S
C930 C929 1.523 . S
H931 C906 0.950 . S
H932 C908 0.950 . S
H933 C909 0.949 . S
H934 C911 0.950 . S
H935 C913 0.950 . S
C936 C937 1.349 . S
C936 C938 1.327 . S
C936 H961 0.950 . S
C937 C936 1.349 . S
C937 C953 1.349 . S
C938 C936 1.327 . S
C938 C957 1.429 . S
C938 H962 0.950 . S
C939 C956 1.574 . S
C939 C958 1.368 . S
C939 H963 0.949 . S
H940 C944 0.949 . S
C941 C942 1.349 . S
C941 C943 1.327 . S
C941 H964 0.950 . S
C942 C941 1.349 . S
C942 C954 1.349 . S
C943 C941 1.327 . S
C943 C959 1.429 . S
C943 H965 0.950 . S
C944 H940 0.949 . S
C944 C952 1.574 . S
C944 C960 1.368 . S
H945 C953 0.950 . S
H946 C951 0.950 . S
H947 C952 0.949 . S
H948 C954 0.950 . S
H949 C955 0.950 . S
H950 C956 0.949 . S
C951 H946 0.950 . S
C951 C953 1.327 . S
C951 C957 1.429 . S
C952 C944 1.574 . S
C952 H947 0.949 . S
C952 C958 1.368 . S
C953 C937 1.349 . S
C953 H945 0.950 . S
C953 C951 1.327 . S
C954 C942 1.349 . S
C954 H948 0.950 . S
C954 C955 1.327 . S
C955 H949 0.950 . S
C955 C954 1.327 . S
C955 C959 1.429 . S
C956 C939 1.574 . S
C956 H950 0.949 . S
C956 C960 1.368 . S
C957 C938 1.429 . S
C957 C951 1.429 . S
C957 C958 1.523 . S
C958 C939 1.368 . S
C958 C952 1.368 . S
C958 C957 1.523 . S
C959 C943 1.429 . S
C959 C955 1.429 . S
C959 C960 1.523 . S
C960 C944 1.368 . S
C960 C956 1.368 . S
C960 C959 1.523 . S
H961 C936 0.950 . S
H962 C938 0.950 . S
H963 C939 0.949 . S
H964 C941 0.950 . S
H965 C943 0.950 . S
C966 C967 1.349 . S
C966 C968 1.327 . S
C966 H991 0.950 . S
C967 C966 1.349 . S
C967 C983 1.349 . S
C968 C966 1.327 . S
C968 C987 1.429 . S
C968 H992 0.950 . S
C969 C986 1.574 . S
C969 C988 1.368 . S
C969 H993 0.949 . S
H970 C974 0.949 . S
C971 C972 1.349 . S
C971 C973 1.327 . S
C971 H994 0.950 . S
C972 C971 1.349 . S
C972 C984 1.349 . S
C973 C971 1.327 . S
C973 C989 1.429 . S
C973 H995 0.950 . S
C974 H970 0.949 . S
C974 C982 1.574 . S
C974 C990 1.368 . S
H975 C983 0.950 . S
H976 C981 0.950 . S
H977 C982 0.949 . S
H978 C984 0.950 . S
H979 C985 0.950 . S
H980 C986 0.949 . S
C981 H976 0.950 . S
C981 C983 1.327 . S
C981 C987 1.429 . S
C982 C974 1.574 . S
C982 H977 0.949 . S
C982 C988 1.368 . S
C983 C967 1.349 . S
C983 H975 0.950 . S
C983 C981 1.327 . S
C984 C972 1.349 . S
C984 H978 0.950 . S
C984 C985 1.327 . S
C985 H979 0.950 . S
C985 C984 1.327 . S
C985 C989 1.429 . S
C986 C969 1.574 . S
C986 H980 0.949 . S
C986 C990 1.368 . S
C987 C968 1.429 . S
C987 C981 1.429 . S
C987 C988 1.523 . S
C988 C969 1.368 . S
C988 C982 1.368 . S
C988 C987 1.523 . S
C989 C973 1.429 . S
C989 C985 1.429 . S
C989 C990 1.523 . S
C990 C974 1.368 . S
C990 C986 1.368 . S
C990 C989 1.523 . S
H991 C966 0.950 . S
H992 C968 0.950 . S
H993 C969 0.949 . S
H994 C971 0.950 . S
H995 C973 0.950 . S
C996 C997 1.349 . S
C996 C998 1.327 . S
C996 H1021 0.950 . S
C997 C996 1.349 . S
C997 C1013 1.349 . S
C998 C996 1.327 . S
C998 C1017 1.429 . S
C998 H1022 0.950 . S
C999 C1016 1.574 . S
C999 C1018 1.368 . S
C999 H1023 0.949 . S
H1000 C1004 0.949 . S
C1001 C1002 1.349 . S
C1001 C1003 1.327 . S
C1001 H1024 0.950 . S
C1002 C1001 1.349 . S
C1002 C1014 1.349 . S
C1003 C1001 1.327 . S
C1003 C1019 1.429 . S
C1003 H1025 0.950 . S
C1004 H1000 0.949 . S
C1004 C1012 1.574 . S
C1004 C1020 1.368 . S
H1005 C1013 0.950 . S
H1006 C1011 0.950 . S
H1007 C1012 0.949 . S
H1008 C1014 0.950 1_554 S
H1009 C1015 0.950 1_554 S
H1010 C1016 0.949 . S
C1011 H1006 0.950 . S
C1011 C1013 1.327 . S
C1011 C1017 1.429 . S
C1012 C1004 1.574 . S
C1012 H1007 0.949 . S
C1012 C1018 1.368 . S
C1013 C997 1.349 . S
C1013 H1005 0.950 . S
C1013 C1011 1.327 . S
C1014 C1002 1.349 . S
C1014 H1008 0.950 1_556 S
C1014 C1015 1.327 . S
C1015 H1009 0.950 1_556 S
C1015 C1014 1.327 . S
C1015 C1019 1.429 . S
C1016 C999 1.574 . S
C1016 H1010 0.949 . S
C1016 C1020 1.368 . S
C1017 C998 1.429 . S
C1017 C1011 1.429 . S
C1017 C1018 1.523 . S
C1018 C999 1.368 . S
C1018 C1012 1.368 . S
C1018 C1017 1.523 . S
C1019 C1003 1.429 . S
C1019 C1015 1.429 . S
C1019 C1020 1.523 . S
C1020 C1004 1.368 . S
C1020 C1016 1.368 . S
C1020 C1019 1.523 . S
H1021 C996 0.950 . S
H1022 C998 0.950 . S
H1023 C999 0.949 . S
H1024 C1001 0.950 . S
H1025 C1003 0.950 . S
C1026 C1027 1.349 . S
C1026 C1028 1.327 . S
C1026 H1051 0.950 . S
C1027 C1026 1.349 . S
C1027 C1043 1.349 . S
C1028 C1026 1.327 . S
C1028 C1047 1.429 . S
C1028 H1052 0.950 . S
C1029 C1046 1.574 . S
C1029 C1048 1.368 . S
C1029 H1053 0.949 . S
H1030 C1034 0.949 . S
C1031 C1032 1.349 . S
C1031 C1033 1.327 . S
C1031 H1054 0.950 . S
C1032 C1031 1.349 . S
C1032 C1044 1.349 . S
C1033 C1031 1.327 . S
C1033 C1049 1.429 . S
C1033 H1055 0.950 . S
C1034 H1030 0.949 . S
C1034 C1042 1.574 . S
C1034 C1050 1.368 . S
H1035 C1043 0.950 . S
H1036 C1041 0.950 . S
H1037 C1042 0.949 . S
H1038 C1044 0.950 . S
H1039 C1045 0.950 . S
H1040 C1046 0.949 . S
C1041 H1036 0.950 . S
C1041 C1043 1.327 . S
C1041 C1047 1.429 . S
C1042 C1034 1.574 . S
C1042 H1037 0.949 . S
C1042 C1048 1.368 . S
C1043 C1027 1.349 . S
C1043 H1035 0.950 . S
C1043 C1041 1.327 . S
C1044 C1032 1.349 . S
C1044 H1038 0.950 . S
C1044 C1045 1.327 . S
C1045 H1039 0.950 . S
C1045 C1044 1.327 . S
C1045 C1049 1.429 . S
C1046 C1029 1.574 . S
C1046 H1040 0.949 . S
C1046 C1050 1.368 . S
C1047 C1028 1.429 . S
C1047 C1041 1.429 . S
C1047 C1048 1.523 . S
C1048 C1029 1.368 . S
C1048 C1042 1.368 . S
C1048 C1047 1.523 . S
C1049 C1033 1.429 . S
C1049 C1045 1.429 . S
C1049 C1050 1.523 . S
C1050 C1034 1.368 . S
C1050 C1046 1.368 . S
C1050 C1049 1.523 . S
H1051 C1026 0.950 . S
H1052 C1028 0.950 . S
H1053 C1029 0.949 . S
H1054 C1031 0.950 . S
H1055 C1033 0.950 . S
C1056 C1057 1.349 . S
C1056 C1058 1.327 . S
C1056 H1081 0.950 . S
C1057 C1056 1.349 . S
C1057 C1073 1.349 . S
C1058 C1056 1.327 . S
C1058 C1077 1.429 . S
C1058 H1082 0.950 . S
C1059 C1076 1.574 . S
C1059 C1078 1.368 . S
C1059 H1083 0.949 . S
H1060 C1064 0.949 . S
C1061 C1062 1.349 . S
C1061 C1063 1.327 . S
C1061 H1084 0.950 1_455 S
C1062 C1061 1.349 . S
C1062 C1074 1.349 . S
C1063 C1061 1.327 . S
C1063 C1079 1.429 . S
C1063 H1085 0.950 . S
C1064 H1060 0.949 . S
C1064 C1072 1.574 . S
C1064 C1080 1.368 . S
H1065 C1073 0.950 . S
H1066 C1071 0.950 . S
H1067 C1072 0.949 . S
H1068 C1074 0.950 . S
H1069 C1075 0.950 . S
H1070 C1076 0.949 . S
C1071 H1066 0.950 . S
C1071 C1073 1.327 . S
C1071 C1077 1.429 . S
C1072 C1064 1.574 . S
C1072 H1067 0.949 . S
C1072 C1078 1.368 . S
C1073 C1057 1.349 . S
C1073 H1065 0.950 . S
C1073 C1071 1.327 . S
C1074 C1062 1.349 . S
C1074 H1068 0.950 . S
C1074 C1075 1.327 . S
C1075 H1069 0.950 . S
C1075 C1074 1.327 . S
C1075 C1079 1.429 . S
C1076 C1059 1.574 . S
C1076 H1070 0.949 . S
C1076 C1080 1.368 . S
C1077 C1058 1.429 . S
C1077 C1071 1.429 . S
C1077 C1078 1.523 . S
C1078 C1059 1.368 . S
C1078 C1072 1.368 . S
C1078 C1077 1.523 . S
C1079 C1063 1.429 . S
C1079 C1075 1.429 . S
C1079 C1080 1.523 . S
C1080 C1064 1.368 . S
C1080 C1076 1.368 . S
C1080 C1079 1.523 . S
H1081 C1056 0.950 . S
H1082 C1058 0.950 . S
H1083 C1059 0.949 . S
H1084 C1061 0.950 1_655 S
H1085 C1063 0.950 . S
C1086 C1087 1.349 . S
C1086 C1088 1.327 . S
C1086 H1111 0.950 . S
C1087 C1086 1.349 . S
C1087 C1103 1.349 . S
C1088 C1086 1.327 . S
C1088 C1107 1.429 . S
C1088 H1112 0.950 . S
C1089 C1106 1.574 . S
C1089 C1108 1.368 . S
C1089 H1113 0.949 . S
H1090 C1094 0.949 . S
C1091 C1092 1.349 . S
C1091 C1093 1.327 . S
C1091 H1114 0.950 . S
C1092 C1091 1.349 . S
C1092 C1104 1.349 . S
C1093 C1091 1.327 . S
C1093 C1109 1.429 . S
C1093 H1115 0.950 . S
C1094 H1090 0.949 . S
C1094 C1102 1.574 . S
C1094 C1110 1.368 . S
H1095 C1103 0.950 . S
H1096 C1101 0.950 . S
H1097 C1102 0.949 . S
H1098 C1104 0.950 . S
H1099 C1105 0.950 . S
H1100 C1106 0.949 . S
C1101 H1096 0.950 . S
C1101 C1103 1.327 . S
C1101 C1107 1.429 . S
C1102 C1094 1.574 . S
C1102 H1097 0.949 . S
C1102 C1108 1.368 . S
C1103 C1087 1.349 . S
C1103 H1095 0.950 . S
C1103 C1101 1.327 . S
C1104 C1092 1.349 . S
C1104 H1098 0.950 . S
C1104 C1105 1.327 . S
C1105 H1099 0.950 . S
C1105 C1104 1.327 . S
C1105 C1109 1.429 . S
C1106 C1089 1.574 . S
C1106 H1100 0.949 . S
C1106 C1110 1.368 . S
C1107 C1088 1.429 . S
C1107 C1101 1.429 . S
C1107 C1108 1.523 . S
C1108 C1089 1.368 . S
C1108 C1102 1.368 . S
C1108 C1107 1.523 . S
C1109 C1093 1.429 . S
C1109 C1105 1.429 . S
C1109 C1110 1.523 . S
C1110 C1094 1.368 . S
C1110 C1106 1.368 . S
C1110 C1109 1.523 . S
H1111 C1086 0.950 . S
H1112 C1088 0.950 . S
H1113 C1089 0.949 . S
H1114 C1091 0.950 . S
H1115 C1093 0.950 . S
C397 C1 1.656 . S
C402 C328 1.610 . S
C427 C40 1.488 . S
C432 C350 1.435 . S
C462 C369 1.188 . S
C457 C99 1.420 . S
C487 C118 1.850 . S
C492 C390 1.530 . S
C522 C347 1.830 . S
C517 C16 1.884 . S
C552 C325 1.699 . S
C547 C60 1.743 . S
C582 C392 1.263 . S
C577 C79 1.325 . S
C612 C371 1.395 . S
C607 C138 1.432 . S
C637 C21 1.808 . S
C642 C389 1.750 . S
C672 C348 1.337 . S
C667 C94 1.620 . S
C697 C133 1.672 . S
C702 C330 1.497 . S
C727 C55 1.514 . S
C732 C368 1.489 . S
C762 C326 1.613 . S
C757 C157 1.677 . S
C787 C196 1.285 . S
C792 C346 1.247 . S
C817 C255 1.493 . S
C822 C372 1.265 . S
C847 C289 1.744 . S
C852 C393 1.426 . S
C877 C172 1.819 . S
C882 C349 1.781 . S
C912 C329 1.772 . S
C907 C216 1.844 . S
C942 C388 1.155 . S
C937 C235 1.202 . S
C972 C367 1.496 . S
C967 C294 1.539 . S
C997 C177 1.578 . S
C1002 C391 1.541 . S
C1032 C351 1.265 . S
C1027 C250 1.510 . S
C1062 C327 1.294 . S
C1057 C274 1.450 . S
C1087 C211 1.430 . S
C1092 C370 1.406 . S
