# Generated by pormake.
# Topology anh, (6,3)-cn, num edge types: 1
# Building blocks:
#     Node 0, Type 0, BuildingBlock: BETDEL_clean_sbu_0, # of connection points: 6
#     Node 1, Type 0, BuildingBlock: BETDEL_clean_sbu_0, # of connection points: 6
#     Node 2, Type 0, BuildingBlock: BETDEL_clean_sbu_0, # of connection points: 6
#     Node 3, Type 1, BuildingBlock: BETDIP_clean_linker_0, # of connection points: 3
#     Node 4, Type 1, BuildingBlock: BETDIP_clean_linker_0, # of connection points: 3
#     Node 5, Type 1, BuildingBlock: BETDIP_clean_linker_0, # of connection points: 3
#     Node 6, Type 1, BuildingBlock: BETDIP_clean_linker_0, # of connection points: 3
#     Node 7, Type 1, BuildingBlock: BETDIP_clean_linker_0, # of connection points: 3
#     Node 8, Type 1, BuildingBlock: BETDIP_clean_linker_0, # of connection points: 3
#     Edge 9, Type (0, 1), BuildingBlock: OJICUG_clean_linker_0, # of connection points: 2
#     Edge 10, Type (0, 1), BuildingBlock: OJICUG_clean_linker_0, # of connection points: 2
#     Edge 11, Type (0, 1), BuildingBlock: OJICUG_clean_linker_0, # of connection points: 2
#     Edge 12, Type (0, 1), BuildingBlock: OJICUG_clean_linker_0, # of connection points: 2
#     Edge 13, Type (0, 1), BuildingBlock: OJICUG_clean_linker_0, # of connection points: 2
#     Edge 14, Type (0, 1), BuildingBlock: OJICUG_clean_linker_0, # of connection points: 2
#     Edge 15, Type (0, 1), BuildingBlock: OJICUG_clean_linker_0, # of connection points: 2
#     Edge 16, Type (0, 1), BuildingBlock: OJICUG_clean_linker_0, # of connection points: 2
#     Edge 17, Type (0, 1), BuildingBlock: OJICUG_clean_linker_0, # of connection points: 2
#     Edge 18, Type (0, 1), BuildingBlock: OJICUG_clean_linker_0, # of connection points: 2
#     Edge 19, Type (0, 1), BuildingBlock: OJICUG_clean_linker_0, # of connection points: 2
#     Edge 20, Type (0, 1), BuildingBlock: OJICUG_clean_linker_0, # of connection points: 2
#     Edge 21, Type (0, 1), BuildingBlock: OJICUG_clean_linker_0, # of connection points: 2
#     Edge 22, Type (0, 1), BuildingBlock: OJICUG_clean_linker_0, # of connection points: 2
#     Edge 23, Type (0, 1), BuildingBlock: OJICUG_clean_linker_0, # of connection points: 2
#     Edge 24, Type (0, 1), BuildingBlock: OJICUG_clean_linker_0, # of connection points: 2
#     Edge 25, Type (0, 1), BuildingBlock: OJICUG_clean_linker_0, # of connection points: 2
#     Edge 26, Type (0, 1), BuildingBlock: OJICUG_clean_linker_0, # of connection points: 2
# Relax obj value: 0.124
# Max RMSD: 0.167
# Mean RMSD: 0.118
data_MOF--net-anh--node1-BETDEL_clean_sbu_0--node2-BETDIP_clean_linker_0--edge1-OJICUG_clean_linker_0
_symmetry_space_group_name_H-M    P1
_symmetry_Int_Tables_number       1
_symmetry_cell_setting            triclinic
loop_
_symmetry_equiv_pos_as_xyz
'x, y, z'
_cell_length_a     21.716987
_cell_length_b     21.684445
_cell_length_c     34.220387
_cell_angle_alpha  88.152441
_cell_angle_beta   91.638527
_cell_angle_gamma 120.01175
loop_
_atom_site_label
_atom_site_type_symbol
_atom_site_fract_x
_atom_site_fract_y
_atom_site_fract_z
_atom_type_partial_charge
Dy0 Dy 0.0821 0.50819 0.15821 0.0
C1 C 0.91048 0.62703 0.19533 0.0
C2 C 0.17479 0.46837 0.13306 0.0
Dy3 Dy 1.00414 0.58905 0.16925 0.0
O4 O 0.14899 0.45665 0.16797 0.0
O5 O 0.14823 0.50004 0.11156 0.0
O6 O 0.0502 0.45712 0.2175 0.0
O7 O 0.0679 0.56095 0.20739 0.0
C8 C 0.04599 0.5097 0.23174 0.0
C9 C 1.03704 0.58398 0.0949 0.0
O10 O 0.11289 0.67614 0.18626 0.0
O11 O 0.17189 0.62443 0.15878 0.0
O12 O 0.95391 0.6581 0.16653 0.0
O13 O 0.91955 0.57639 0.21025 0.0
O14 O 1.03313 0.63696 0.10872 0.0
O15 O 1.01653 0.53443 0.12018 0.0
O16 O 0.97115 0.41545 0.14808 0.0
O17 O 0.91504 0.47493 0.16974 0.0
C18 C 0.17248 0.68032 0.17431 0.0
C19 C 0.91269 0.41575 0.15845 0.0
Dy20 Dy 0.49357 0.04667 0.48812 0.0
C21 C 0.78749 0.20959 0.52306 0.0
C22 C 0.35601 0.9548 0.467 0.0
Dy23 Dy 0.65249 0.11894 0.49716 0.0
O24 O 0.37817 0.97553 0.50233 0.0
O25 O 0.40877 0.98658 0.4431 0.0
O26 O 0.48828 0.08514 0.54723 0.0
O27 O 0.56523 0.05603 0.53635 0.0
C28 C 0.54259 0.08133 0.56111 0.0
C29 C 0.60597 0.08201 0.42392 0.0
O30 O 0.63052 1.00808 0.51109 0.0
O31 O 0.51553 0.95518 0.48597 0.0
O32 O 0.77123 0.17271 0.49142 0.0
O33 O 0.7299 0.19521 0.54104 0.0
O34 O 0.66348 0.08509 0.43818 0.0
O35 O 0.58071 0.10646 0.4479 0.0
O36 O 0.51279 0.15725 0.47786 0.0
O37 O 0.63139 0.21116 0.4972 0.0
C38 C 0.57134 0.95087 0.49934 0.0
C39 C 0.57362 0.21475 0.48733 0.0
Dy40 Dy 0.62087 0.58647 0.82381 0.0
C41 C 0.49841 0.29234 0.85429 0.0
C42 C 0.67462 0.72825 0.80837 0.0
Dy43 Dy 0.53818 0.42994 0.83304 0.0
O44 O 0.65154 0.69649 0.84182 0.0
O45 O 0.66826 0.68241 0.78271 0.0
O46 O 0.67169 0.59281 0.88221 0.0
O47 O 0.56492 0.51499 0.87333 0.0
C48 C 0.61605 0.53914 0.89759 0.0
C49 C 0.5425 0.47467 0.75884 0.0
O50 O 0.45113 0.45218 0.84796 0.0
O51 O 0.50732 0.56284 0.81719 0.0
O52 O 0.46952 0.31161 0.82633 0.0
O53 O 0.54587 0.34878 0.87211 0.0
O54 O 0.48887 0.41848 0.77384 0.0
O55 O 0.59375 0.50088 0.78311 0.0
O56 O 0.71323 0.56988 0.81562 0.0
O57 O 0.65165 0.4513 0.83496 0.0
C58 C 0.45001 0.50918 0.83352 0.0
C59 C 0.7119 0.5097 0.82545 0.0
H60 H 0.4863 0.97112 0.15157 0.0
H61 H 0.6193 0.10129 0.24529 0.0
H62 H 0.4174 0.91768 0.27143 0.0
H63 H 0.59036 0.17779 0.18029 0.0
C64 C 0.62973 0.16546 0.16979 0.0
C65 C 0.49553 0.98157 0.18255 0.0
C66 C 0.44285 0.93664 0.20983 0.0
C67 C 0.55858 0.04238 0.19537 0.0
C68 C 0.57025 0.05556 0.23541 0.0
C69 C 0.52002 1.01066 0.26283 0.0
C70 C 0.45601 0.9523 0.24998 0.0
N71 N 0.61005 0.09211 0.16862 0.0
H72 H 0.59193 0.53858 0.47865 0.0
H73 H 0.57663 0.62105 0.58873 0.0
H74 H 0.56874 0.41939 0.58574 0.0
H75 H 0.48642 0.62948 0.53439 0.0
C76 C 0.53617 0.66844 0.52092 0.0
C77 C 0.5869 0.53348 0.51015 0.0
C78 C 0.58068 0.47243 0.52982 0.0
C79 C 0.58419 0.58687 0.53136 0.0
C80 C 0.57809 0.57994 0.57226 0.0
C81 C 0.57263 0.51981 0.59192 0.0
C82 C 0.5734 0.46621 0.57054 0.0
N83 N 0.58615 0.64685 0.51181 0.0
H84 H 1.01591 0.48919 0.81996 0.0
H85 H 0.13487 0.53006 0.92845 0.0
H86 H 0.94306 0.54156 0.92283 0.0
H87 H 0.22465 0.60225 0.87105 0.0
C88 C 0.20956 0.5502 0.85968 0.0
C89 C 1.02249 0.50248 0.85061 0.0
C90 C 0.97236 0.51494 0.86897 0.0
C91 C 0.08255 0.5097 0.8718 0.0
C92 C 0.08991 0.52608 0.91173 0.0
C93 C 1.03977 0.53749 0.93019 0.0
C94 C 0.98191 0.53276 0.90855 0.0
N95 N 0.1358 0.50121 0.85314 0.0
H96 H 0.14797 0.63893 0.49876 0.0
H97 H 1.03256 0.46649 0.42077 0.0
H98 H 0.11148 0.68224 0.37932 0.0
H99 H 1.03532 0.52345 0.53899 0.0
C100 C 1.03893 0.48103 0.52506 0.0
C101 C 0.12365 0.62082 0.47024 0.0
C102 C 0.13311 0.67004 0.43986 0.0
C103 C 0.0872 0.54771 0.46302 0.0
C104 C 0.05973 0.52327 0.4257 0.0
C105 C 0.06824 0.57128 0.39499 0.0
C106 C 0.10336 0.64442 0.40279 0.0
N107 N 0.08261 0.49776 0.492 0.0
H108 H 0.63586 0.08598 0.83953 0.0
H109 H 0.67967 0.05451 0.72265 0.0
H110 H 0.52834 0.12214 0.74159 0.0
H111 H 0.7683 0.04352 0.74959 0.0
C112 C 0.74481 1.0176 0.77725 0.0
C113 C 0.6265 0.08707 0.80831 0.0
C114 C 0.5781 0.10752 0.79369 0.0
C115 C 0.66284 0.06733 0.78297 0.0
C116 C 0.6509 0.0684 0.74242 0.0
C117 C 0.60202 0.08763 0.72707 0.0
C118 C 0.56564 0.10662 0.75307 0.0
N119 N 0.70761 0.04259 0.79938 0.0
H120 H 0.4853 0.56023 0.15933 0.0
H121 H 0.65268 0.59341 0.08358 0.0
H122 H 0.43444 0.47228 0.04416 0.0
H123 H 0.59504 0.5558 0.2021 0.0
C124 C 0.63862 0.60203 0.18791 0.0
C125 C 0.50157 0.54954 0.13191 0.0
C126 C 0.45078 0.51038 0.10289 0.0
C127 C 0.57404 0.57984 0.12439 0.0
C128 C 0.59617 0.56966 0.08846 0.0
C129 C 0.54648 0.53045 0.05906 0.0
C130 C 0.47365 0.50057 0.0668 0.0
N131 N 0.62618 0.62608 0.1512 0.0
C132 C 0.27402 0.44642 0.15153 0.0
C133 C 0.23797 0.46449 0.12279 0.0
H134 H 0.37009 0.44634 0.16762 0.0
C135 C 0.26864 0.4894 0.086 0.0
H136 H 0.25137 0.42708 0.18018 0.0
C137 C 0.33652 0.50083 0.07893 0.0
C138 C 0.37486 0.48744 0.10854 0.0
H139 H 0.24196 0.50394 0.06341 0.0
H140 H 0.36053 0.52422 0.05103 0.0
C141 C 0.34208 0.458 0.14449 0.0
C142 C 0.86426 0.32434 0.55656 0.0
C143 C 0.8577 0.27195 0.53093 0.0
H144 H 0.92789 0.43259 0.57467 0.0
C145 C 0.91586 0.28518 0.50816 0.0
H146 H 0.82005 0.31536 0.57445 0.0
C147 C 0.97749 0.35185 0.5085 0.0
C148 C 0.98155 0.40661 0.53134 0.0
H149 H 0.91219 0.24548 0.48833 0.0
H150 H 1.02005 0.36156 0.48906 0.0
C151 C 0.92578 0.39139 0.55664 0.0
C152 C 0.69488 0.84464 0.83072 0.0
C153 C 0.69947 0.80419 0.80091 0.0
H154 H 0.70623 0.94428 0.84672 0.0
C155 C 0.72492 0.83625 0.76417 0.0
H156 H 0.67579 0.82126 0.85941 0.0
C157 C 0.74319 0.90729 0.75703 0.0
C158 C 0.73529 0.94652 0.78638 0.0
H159 H 0.72919 0.8061 0.74081 0.0
H160 H 0.7607 0.93062 0.72815 0.0
C161 C 0.71231 0.91506 0.82348 0.0
C162 C 0.83678 0.68311 0.18006 0.0
C163 C 0.84759 0.63376 0.20221 0.0
H164 H 0.76167 0.71291 0.15884 0.0
C165 C 0.79244 0.58279 0.22569 0.0
H166 H 0.87868 0.7233 0.16198 0.0
C167 C 0.7251 0.57639 0.2237 0.0
C168 C 0.71237 0.62092 0.19826 0.0
H169 H 0.79965 0.54431 0.24322 0.0
H170 H 0.68187 0.53321 0.23967 0.0
C171 C 0.76966 0.67689 0.17817 0.0
C172 C 0.28115 0.8591 0.42103 0.0
C173 C 0.2894 0.88938 0.45769 0.0
H174 H 0.22771 0.76583 0.38715 0.0
C175 C 0.24034 0.85038 0.48716 0.0
H176 H 0.31861 0.88784 0.3979 0.0
C177 C 0.18672 0.78011 0.48083 0.0
C178 C 0.18184 0.74768 0.44505 0.0
H179 H 0.24574 0.87276 0.51575 0.0
H180 H 0.1509 0.7504 0.50442 0.0
C181 C 0.22851 0.78887 0.41488 0.0
C182 C 0.45719 0.17293 0.82712 0.0
C183 C 0.50368 0.22748 0.85202 0.0
H184 H 0.44309 0.08909 0.79013 0.0
C185 C 0.56639 0.2294 0.86533 0.0
H186 H 0.40808 0.16979 0.8168 0.0
C187 C 0.58776 0.18502 0.84903 0.0
C188 C 0.54595 0.1371 0.81977 0.0
H189 H 0.60317 0.27079 0.88471 0.0
H190 H 0.64025 0.19367 0.8565 0.0
C191 C 0.47788 0.12753 0.8114 0.0
C192 C 0.49627 0.8183 0.50548 0.0
C193 C 0.56431 0.87905 0.50321 0.0
H194 H 0.43495 0.70499 0.51317 0.0
C195 C 0.62412 0.86983 0.50503 0.0
H196 H 0.44899 0.8232 0.50436 0.0
C197 C 0.61577 0.80124 0.50916 0.0
C198 C 0.54753 0.741 0.51241 0.0
H199 H 0.67723 0.91553 0.50323 0.0
H200 H 0.66258 0.79558 0.51099 0.0
C201 C 0.48812 0.75042 0.51049 0.0
C202 C 0.78004 0.44521 0.83995 0.0
C203 C 0.7801 0.50857 0.82919 0.0
H204 H 0.84166 0.39748 0.86014 0.0
C205 C 0.8461 0.57192 0.82583 0.0
H206 H 0.73046 0.39532 0.84284 0.0
C207 C 0.90976 0.57274 0.83554 0.0
C208 C 0.90905 0.51017 0.84831 0.0
H209 H 0.8485 0.62176 0.81774 0.0
H210 H 0.95925 0.62311 0.83527 0.0
C211 C 0.84379 0.4461 0.84951 0.0
C212 C 0.30575 0.75928 0.16472 0.0
C213 C 0.24171 0.74771 0.18094 0.0
H214 H 0.41919 0.82829 0.16042 0.0
C215 C 0.24455 0.80098 0.20465 0.0
H216 H 0.30583 0.71974 0.14621 0.0
C217 C 0.30933 0.8626 0.21294 0.0
C218 C 0.37353 0.87367 0.19745 0.0
H219 H 0.19674 0.79452 0.21766 0.0
H220 H 0.30929 0.90159 0.23193 0.0
C221 C 0.37076 0.82176 0.17263 0.0
C222 C 0.64184 0.34661 0.49916 0.0
C223 C 0.57681 0.28485 0.49037 0.0
H224 H 0.69392 0.45513 0.51778 0.0
C225 C 0.51451 0.28976 0.48876 0.0
H226 H 0.69101 0.34521 0.50064 0.0
C227 C 0.51663 0.35331 0.49835 0.0
C228 C 0.58108 0.41341 0.50929 0.0
H229 H 0.46349 0.24346 0.48227 0.0
H230 H 0.46729 0.35422 0.49952 0.0
C231 C 0.64384 0.40998 0.50865 0.0
C232 C 0.31773 0.45787 0.8444 0.0
C233 C 0.38601 0.51692 0.8379 0.0
H234 H 0.2072 0.42136 0.85531 0.0
C235 C 0.39375 0.58534 0.83662 0.0
H236 H 0.30986 0.40444 0.84551 0.0
C237 C 0.33574 0.59488 0.84287 0.0
C238 C 0.26775 0.53635 0.84959 0.0
H239 H 0.44533 0.63216 0.83194 0.0
H240 H 0.3443 0.64859 0.84283 0.0
C241 C 0.25888 0.46746 0.84973 0.0
C242 C 0.78003 0.35575 0.16173 0.0
C243 C 0.84102 0.34955 0.15761 0.0
H244 H 0.66737 0.3032 0.16829 0.0
C245 C 0.83162 0.28053 0.15475 0.0
H246 H 0.78423 0.40748 0.1637 0.0
C247 C 0.76303 0.21956 0.15738 0.0
C248 C 0.70282 0.22677 0.16275 0.0
H249 H 0.87723 0.27357 0.1516 0.0
H250 H 0.75745 0.16716 0.15627 0.0
C251 C 0.71245 0.29562 0.16425 0.0
C252 C 0.04471 0.51449 0.04008 0.0
C253 C 1.04382 0.57493 0.05294 0.0
H254 H 0.04575 0.45615 0.99081 0.0
C255 C 0.04603 0.62512 0.02518 0.0
H256 H 1.04236 0.47463 0.06082 0.0
C257 C 0.0464 0.61373 0.98523 0.0
C258 C 0.04613 0.55276 0.97239 0.0
H259 H 0.04535 0.67217 0.03425 0.0
H260 H 0.04599 0.6521 0.96429 0.0
C261 C 0.04667 0.50389 0.00012 0.0
C262 C 0.5194 0.06053 0.36817 0.0
C263 C 0.58062 0.0612 0.38331 0.0
H264 H 0.45092 0.04219 0.31786 0.0
C265 C 0.61906 0.04189 0.35905 0.0
H266 H 0.48913 0.07573 0.38614 0.0
C267 C 0.59802 1.02402 0.32026 0.0
C268 C 0.53741 1.02391 0.30494 0.0
H269 H 0.6663 0.04161 0.36986 0.0
H270 H 0.62957 1.0108 0.30199 0.0
C271 C 0.49751 0.04131 0.32928 0.0
C272 C 0.60783 0.55081 0.70071 0.0
C273 C 0.54934 0.48943 0.71634 0.0
H274 H 0.66048 0.60923 0.64851 0.0
C275 C 0.49748 0.44006 0.69083 0.0
H276 H 0.64844 0.58966 0.71978 0.0
C277 C 0.50499 0.45054 0.65045 0.0
C278 C 0.56375 0.5113 0.63475 0.0
H279 H 0.45171 0.3923 0.70202 0.0
H280 H 0.46494 0.41099 0.6314 0.0
C281 C 0.61462 0.56204 0.66012 0.0
C282 C 0.57987 0.03761 0.61998 0.0
C283 C 0.56081 0.08539 0.6029 0.0
H284 H 0.60372 0.99791 0.67253 0.0
C285 C 0.5567 0.135 0.62624 0.0
H286 H 0.58254 0.99828 0.60246 0.0
C287 C 0.57184 0.13707 0.66629 0.0
C288 C 0.58891 0.08777 0.68401 0.0
H289 H 0.54256 0.17268 0.61342 0.0
H290 H 0.57035 0.17761 0.6832 0.0
C291 C 0.59257 0.03793 0.66018 0.0
C292 C 0.64951 0.58705 0.96457 0.0
C293 C 0.60505 0.53089 0.94002 0.0
H294 H 0.66471 0.63251 0.02059 0.0
C295 C 0.54566 0.47076 0.95574 0.0
H296 H 0.69555 0.63425 0.95312 0.0
C297 C 0.52898 0.46845 0.9951 0.0
C298 C 0.57034 0.52714 0.01916 0.0
H299 H 0.51098 0.42651 0.93731 0.0
H300 H 0.48239 0.42154 0.00626 0.0
C301 C 0.6319 0.58567 0.00354 0.0
C302 C 1.02761 0.57116 0.28653 0.0
C303 C 1.04006 0.51773 0.27366 0.0
H304 H 1.02136 0.62667 0.33523 0.0
C305 C 0.05256 0.47583 0.30118 0.0
H306 H 1.01747 0.60391 0.26579 0.0
C307 C 0.05813 0.49083 0.34088 0.0
C308 C 0.04937 0.5469 0.35393 0.0
H309 H 0.06241 0.43427 0.29191 0.0
H310 H 0.07348 0.461 0.36085 0.0
C311 C 1.03077 0.58466 0.32633 0.0
loop_
_geom_bond_atom_site_label_1
_geom_bond_atom_site_label_2
_geom_bond_distance
_geom_bond_site_symmetry_2
_ccdc_geom_bond_type
Dy0 O4 2.398 . S
Dy0 O5 2.491 . S
Dy0 O6 2.403 . S
Dy0 O7 2.664 . S
Dy0 O11 2.326 . S
Dy0 O15 2.310 . S
Dy0 O16 2.351 1_455 S
C1 O12 1.185 . S
C1 O13 1.355 . S
C2 O4 1.185 . S
C2 O5 1.355 . S
Dy3 O7 2.310 . S
Dy3 O10 2.351 . S
Dy3 O12 2.398 1_455 S
Dy3 O13 2.491 1_455 S
Dy3 O14 2.403 . S
Dy3 O15 2.664 . S
Dy3 O17 2.326 1_455 S
O4 Dy0 2.398 . S
O4 C2 1.185 . S
O5 Dy0 2.491 . S
O5 C2 1.355 . S
O6 Dy0 2.403 . S
O6 C8 1.254 . S
O7 Dy0 2.664 . S
O7 Dy3 2.310 . S
O7 C8 1.268 . S
C8 O6 1.254 . S
C8 O7 1.268 . S
C9 O14 1.254 . S
C9 O15 1.268 . S
O10 Dy3 2.351 . S
O10 C18 1.249 . S
O11 Dy0 2.326 . S
O11 C18 1.267 . S
O12 C1 1.185 . S
O12 Dy3 2.398 1_655 S
O13 C1 1.355 . S
O13 Dy3 2.491 1_655 S
O14 Dy3 2.403 . S
O14 C9 1.254 . S
O15 Dy0 2.310 . S
O15 Dy3 2.664 . S
O15 C9 1.268 . S
O16 Dy0 2.351 1_655 S
O16 C19 1.249 . S
O17 Dy3 2.326 1_655 S
O17 C19 1.267 . S
C18 O10 1.249 . S
C18 O11 1.267 . S
C19 O16 1.249 . S
C19 O17 1.267 . S
Dy20 O24 2.398 . S
Dy20 O25 2.491 . S
Dy20 O26 2.403 . S
Dy20 O27 2.664 1_565 S
Dy20 O31 2.326 . S
Dy20 O35 2.310 . S
Dy20 O36 2.351 1_565 S
C21 O32 1.185 . S
C21 O33 1.355 . S
C22 O24 1.185 . S
C22 O25 1.355 . S
Dy23 O27 2.310 . S
Dy23 O30 2.351 1_545 S
Dy23 O32 2.398 . S
Dy23 O33 2.491 . S
Dy23 O34 2.403 . S
Dy23 O35 2.664 1_545 S
Dy23 O37 2.326 . S
O24 Dy20 2.398 . S
O24 C22 1.185 . S
O25 Dy20 2.491 . S
O25 C22 1.355 . S
O26 Dy20 2.403 . S
O26 C28 1.254 1_565 S
O27 Dy20 2.664 1_545 S
O27 Dy23 2.310 . S
O27 C28 1.268 . S
C28 O26 1.254 1_545 S
C28 O27 1.268 . S
C29 O34 1.254 . S
C29 O35 1.268 1_545 S
O30 Dy23 2.351 1_565 S
O30 C38 1.249 . S
O31 Dy20 2.326 . S
O31 C38 1.267 . S
O32 C21 1.185 . S
O32 Dy23 2.398 . S
O33 C21 1.355 . S
O33 Dy23 2.491 . S
O34 Dy23 2.403 . S
O34 C29 1.254 . S
O35 Dy20 2.310 . S
O35 Dy23 2.664 1_565 S
O35 C29 1.268 1_565 S
O36 Dy20 2.351 1_545 S
O36 C39 1.249 . S
O37 Dy23 2.326 . S
O37 C39 1.267 . S
C38 O30 1.249 . S
C38 O31 1.267 . S
C39 O36 1.249 . S
C39 O37 1.267 . S
Dy40 O44 2.398 . S
Dy40 O45 2.491 . S
Dy40 O46 2.403 . S
Dy40 O47 2.664 . S
Dy40 O51 2.326 . S
Dy40 O55 2.310 . S
Dy40 O56 2.351 . S
C41 O52 1.185 . S
C41 O53 1.355 . S
C42 O44 1.185 . S
C42 O45 1.355 . S
Dy43 O47 2.310 . S
Dy43 O50 2.351 . S
Dy43 O52 2.398 . S
Dy43 O53 2.491 . S
Dy43 O54 2.403 . S
Dy43 O55 2.664 . S
Dy43 O57 2.326 . S
O44 Dy40 2.398 . S
O44 C42 1.185 . S
O45 Dy40 2.491 . S
O45 C42 1.355 . S
O46 Dy40 2.403 . S
O46 C48 1.254 . S
O47 Dy40 2.664 . S
O47 Dy43 2.310 . S
O47 C48 1.268 . S
C48 O46 1.254 . S
C48 O47 1.268 . S
C49 O54 1.254 . S
C49 O55 1.268 . S
O50 Dy43 2.351 . S
O50 C58 1.249 . S
O51 Dy40 2.326 . S
O51 C58 1.267 . S
O52 C41 1.185 . S
O52 Dy43 2.398 . S
O53 C41 1.355 . S
O53 Dy43 2.491 . S
O54 Dy43 2.403 . S
O54 C49 1.254 . S
O55 Dy40 2.310 . S
O55 Dy43 2.664 . S
O55 C49 1.268 . S
O56 Dy40 2.351 . S
O56 C59 1.249 . S
O57 Dy43 2.326 . S
O57 C59 1.267 . S
C58 O50 1.249 . S
C58 O51 1.267 . S
C59 O56 1.249 . S
C59 O57 1.267 . S
H60 C65 0.930 . S
H61 C68 0.930 . S
H62 C70 0.930 . S
H63 C64 1.016 . S
C64 H63 1.016 . S
C64 N71 1.286 . S
C65 H60 0.930 . S
C65 C66 1.397 . S
C65 C67 1.361 1_565 S
C66 C65 1.397 . S
C66 C70 1.390 . S
C67 C65 1.361 1_545 S
C67 C68 1.393 . S
C67 N71 1.413 . S
C68 H61 0.930 . S
C68 C67 1.393 . S
C68 C69 1.399 1_545 S
C69 C68 1.399 1_565 S
C69 C70 1.381 . S
C70 H62 0.930 . S
C70 C66 1.390 . S
C70 C69 1.381 . S
N71 C64 1.286 . S
N71 C67 1.413 . S
H72 C77 0.930 . S
H73 C80 0.930 . S
H74 C82 0.930 . S
H75 C76 1.016 . S
C76 H75 1.016 . S
C76 N83 1.286 . S
C77 H72 0.930 . S
C77 C78 1.397 . S
C77 C79 1.361 . S
C78 C77 1.397 . S
C78 C82 1.390 . S
C79 C77 1.361 . S
C79 C80 1.393 . S
C79 N83 1.413 . S
C80 H73 0.930 . S
C80 C79 1.393 . S
C80 C81 1.399 . S
C81 C80 1.399 . S
C81 C82 1.381 . S
C82 H74 0.930 . S
C82 C78 1.390 . S
C82 C81 1.381 . S
N83 C76 1.286 . S
N83 C79 1.413 . S
H84 C89 0.930 1_655 S
H85 C92 0.930 . S
H86 C94 0.930 . S
H87 C88 1.016 . S
C88 H87 1.016 . S
C88 N95 1.286 . S
C89 H84 0.930 1_455 S
C89 C90 1.396 1_455 S
C89 C91 1.362 . S
C90 C89 1.396 1_655 S
C90 C94 1.390 . S
C91 C89 1.362 . S
C91 C92 1.393 . S
C91 N95 1.413 . S
C92 H85 0.930 . S
C92 C91 1.393 . S
C92 C93 1.399 . S
C93 C92 1.399 . S
C93 C94 1.381 1_455 S
C94 H86 0.930 . S
C94 C90 1.390 . S
C94 C93 1.381 1_655 S
N95 C88 1.286 . S
N95 C91 1.413 . S
H96 C101 0.930 . S
H97 C104 0.930 . S
H98 C106 0.930 . S
H99 C100 1.016 . S
C100 H99 1.016 . S
C100 N107 1.286 . S
C101 H96 0.930 . S
C101 C102 1.397 . S
C101 C103 1.361 1_455 S
C102 C101 1.397 . S
C102 C106 1.390 . S
C103 C101 1.361 1_655 S
C103 C104 1.393 . S
C103 N107 1.413 . S
C104 H97 0.930 . S
C104 C103 1.393 . S
C104 C105 1.399 1_655 S
C105 C104 1.399 1_455 S
C105 C106 1.381 . S
C106 H98 0.930 . S
C106 C102 1.390 . S
C106 C105 1.381 . S
N107 C100 1.286 . S
N107 C103 1.413 . S
H108 C113 0.930 . S
H109 C116 0.930 1_565 S
H110 C118 0.930 . S
H111 C112 1.016 . S
C112 H111 1.016 . S
C112 N119 1.286 . S
C113 H108 0.930 . S
C113 C114 1.397 . S
C113 C115 1.361 . S
C114 C113 1.397 . S
C114 C118 1.390 . S
C115 C113 1.361 . S
C115 C116 1.393 . S
C115 N119 1.413 1_545 S
C116 H109 0.930 1_545 S
C116 C115 1.393 . S
C116 C117 1.399 . S
C117 C116 1.399 . S
C117 C118 1.381 . S
C118 H110 0.930 . S
C118 C114 1.390 . S
C118 C117 1.381 . S
N119 C112 1.286 . S
N119 C115 1.413 1_565 S
H120 C125 0.930 . S
H121 C128 0.930 . S
H122 C130 0.930 . S
H123 C124 1.016 . S
C124 H123 1.016 . S
C124 N131 1.286 . S
C125 H120 0.930 . S
C125 C126 1.397 . S
C125 C127 1.361 . S
C126 C125 1.397 . S
C126 C130 1.390 . S
C127 C125 1.361 . S
C127 C128 1.393 . S
C127 N131 1.413 . S
C128 H121 0.930 . S
C128 C127 1.393 . S
C128 C129 1.399 . S
C129 C128 1.399 . S
C129 C130 1.381 . S
C130 H122 0.930 . S
C130 C126 1.390 . S
C130 C129 1.381 . S
N131 C124 1.286 . S
N131 C127 1.413 . S
C132 C133 1.387 . S
C132 H136 0.950 . S
C132 C141 1.390 . S
C133 C132 1.387 . S
C133 C135 1.387 . S
H134 C141 0.950 . S
C135 C133 1.387 . S
C135 C137 1.390 . S
C135 H139 0.950 . S
H136 C132 0.950 . S
C137 C135 1.390 . S
C137 C138 1.387 . S
C137 H140 0.950 . S
C138 C137 1.387 . S
C138 C141 1.387 . S
H139 C135 0.950 . S
H140 C137 0.950 . S
C141 C132 1.390 . S
C141 H134 0.950 . S
C141 C138 1.387 . S
C142 C143 1.387 . S
C142 H146 0.950 . S
C142 C151 1.390 . S
C143 C142 1.387 . S
C143 C145 1.387 . S
H144 C151 0.950 . S
C145 C143 1.387 . S
C145 C147 1.390 . S
C145 H149 0.950 . S
H146 C142 0.950 . S
C147 C145 1.390 . S
C147 C148 1.387 . S
C147 H150 0.950 . S
C148 C147 1.387 . S
C148 C151 1.387 . S
H149 C145 0.950 . S
H150 C147 0.950 . S
C151 C142 1.390 . S
C151 H144 0.950 . S
C151 C148 1.387 . S
C152 C153 1.387 . S
C152 H156 0.950 . S
C152 C161 1.390 . S
C153 C152 1.387 . S
C153 C155 1.387 . S
H154 C161 0.950 . S
C155 C153 1.387 . S
C155 C157 1.390 . S
C155 H159 0.950 . S
H156 C152 0.950 . S
C157 C155 1.390 . S
C157 C158 1.387 . S
C157 H160 0.950 . S
C158 C157 1.387 . S
C158 C161 1.387 . S
H159 C155 0.950 . S
H160 C157 0.950 . S
C161 C152 1.390 . S
C161 H154 0.950 . S
C161 C158 1.387 . S
C162 C163 1.387 . S
C162 H166 0.950 . S
C162 C171 1.390 . S
C163 C162 1.387 . S
C163 C165 1.387 . S
H164 C171 0.950 . S
C165 C163 1.387 . S
C165 C167 1.390 . S
C165 H169 0.950 . S
H166 C162 0.950 . S
C167 C165 1.390 . S
C167 C168 1.387 . S
C167 H170 0.950 . S
C168 C167 1.387 . S
C168 C171 1.387 . S
H169 C165 0.950 . S
H170 C167 0.950 . S
C171 C162 1.390 . S
C171 H164 0.950 . S
C171 C168 1.387 . S
C172 C173 1.387 . S
C172 H176 0.950 . S
C172 C181 1.390 . S
C173 C172 1.387 . S
C173 C175 1.387 . S
H174 C181 0.950 . S
C175 C173 1.387 . S
C175 C177 1.390 . S
C175 H179 0.950 . S
H176 C172 0.950 . S
C177 C175 1.390 . S
C177 C178 1.387 . S
C177 H180 0.950 . S
C178 C177 1.387 . S
C178 C181 1.387 . S
H179 C175 0.950 . S
H180 C177 0.950 . S
C181 C172 1.390 . S
C181 H174 0.950 . S
C181 C178 1.387 . S
C182 C183 1.387 . S
C182 H186 0.950 . S
C182 C191 1.390 . S
C183 C182 1.387 . S
C183 C185 1.387 . S
H184 C191 0.950 . S
C185 C183 1.387 . S
C185 C187 1.390 . S
C185 H189 0.950 . S
H186 C182 0.950 . S
C187 C185 1.390 . S
C187 C188 1.387 . S
C187 H190 0.950 . S
C188 C187 1.387 . S
C188 C191 1.387 . S
H189 C185 0.950 . S
H190 C187 0.950 . S
C191 C182 1.390 . S
C191 H184 0.950 . S
C191 C188 1.387 . S
C192 C193 1.387 . S
C192 H196 0.950 . S
C192 C201 1.390 . S
C193 C192 1.387 . S
C193 C195 1.387 . S
H194 C201 0.950 . S
C195 C193 1.387 . S
C195 C197 1.390 . S
C195 H199 0.950 . S
H196 C192 0.950 . S
C197 C195 1.390 . S
C197 C198 1.387 . S
C197 H200 0.950 . S
C198 C197 1.387 . S
C198 C201 1.387 . S
H199 C195 0.950 . S
H200 C197 0.950 . S
C201 C192 1.390 . S
C201 H194 0.950 . S
C201 C198 1.387 . S
C202 C203 1.387 . S
C202 H206 0.950 . S
C202 C211 1.390 . S
C203 C202 1.387 . S
C203 C205 1.387 . S
H204 C211 0.950 . S
C205 C203 1.387 . S
C205 C207 1.390 . S
C205 H209 0.950 . S
H206 C202 0.950 . S
C207 C205 1.390 . S
C207 C208 1.387 . S
C207 H210 0.950 . S
C208 C207 1.387 . S
C208 C211 1.387 . S
H209 C205 0.950 . S
H210 C207 0.950 . S
C211 C202 1.390 . S
C211 H204 0.950 . S
C211 C208 1.387 . S
C212 C213 1.387 . S
C212 H216 0.950 . S
C212 C221 1.390 . S
C213 C212 1.387 . S
C213 C215 1.387 . S
H214 C221 0.950 . S
C215 C213 1.387 . S
C215 C217 1.390 . S
C215 H219 0.950 . S
H216 C212 0.950 . S
C217 C215 1.390 . S
C217 C218 1.387 . S
C217 H220 0.950 . S
C218 C217 1.387 . S
C218 C221 1.387 . S
H219 C215 0.950 . S
H220 C217 0.950 . S
C221 C212 1.390 . S
C221 H214 0.950 . S
C221 C218 1.387 . S
C222 C223 1.387 . S
C222 H226 0.950 . S
C222 C231 1.390 . S
C223 C222 1.387 . S
C223 C225 1.387 . S
H224 C231 0.950 . S
C225 C223 1.387 . S
C225 C227 1.390 . S
C225 H229 0.950 . S
H226 C222 0.950 . S
C227 C225 1.390 . S
C227 C228 1.387 . S
C227 H230 0.950 . S
C228 C227 1.387 . S
C228 C231 1.387 . S
H229 C225 0.950 . S
H230 C227 0.950 . S
C231 C222 1.390 . S
C231 H224 0.950 . S
C231 C228 1.387 . S
C232 C233 1.387 . S
C232 H236 0.950 . S
C232 C241 1.390 . S
C233 C232 1.387 . S
C233 C235 1.387 . S
H234 C241 0.950 . S
C235 C233 1.387 . S
C235 C237 1.390 . S
C235 H239 0.950 . S
H236 C232 0.950 . S
C237 C235 1.390 . S
C237 C238 1.387 . S
C237 H240 0.950 . S
C238 C237 1.387 . S
C238 C241 1.387 . S
H239 C235 0.950 . S
H240 C237 0.950 . S
C241 C232 1.390 . S
C241 H234 0.950 . S
C241 C238 1.387 . S
C242 C243 1.387 . S
C242 H246 0.950 . S
C242 C251 1.390 . S
C243 C242 1.387 . S
C243 C245 1.387 . S
H244 C251 0.950 . S
C245 C243 1.387 . S
C245 C247 1.390 . S
C245 H249 0.950 . S
H246 C242 0.950 . S
C247 C245 1.390 . S
C247 C248 1.387 . S
C247 H250 0.950 . S
C248 C247 1.387 . S
C248 C251 1.387 . S
H249 C245 0.950 . S
H250 C247 0.950 . S
C251 C242 1.390 . S
C251 H244 0.950 . S
C251 C248 1.387 . S
C252 C253 1.387 . S
C252 H256 0.950 1_455 S
C252 C261 1.390 1_554 S
C253 C252 1.387 . S
C253 C255 1.387 . S
H254 C261 0.950 1_655 S
C255 C253 1.387 . S
C255 C257 1.390 1_554 S
C255 H259 0.950 . S
H256 C252 0.950 1_655 S
C257 C255 1.390 1_556 S
C257 C258 1.387 . S
C257 H260 0.950 . S
C258 C257 1.387 . S
C258 C261 1.387 . S
H259 C255 0.950 . S
H260 C257 0.950 . S
C261 C252 1.390 1_556 S
C261 H254 0.950 1_455 S
C261 C258 1.387 . S
C262 C263 1.387 . S
C262 H266 0.950 . S
C262 C271 1.390 . S
C263 C262 1.387 . S
C263 C265 1.387 1_545 S
H264 C271 0.950 . S
C265 C263 1.387 1_565 S
C265 C267 1.390 . S
C265 H269 0.950 . S
H266 C262 0.950 . S
C267 C265 1.390 . S
C267 C268 1.387 1_565 S
C267 H270 0.950 . S
C268 C267 1.387 1_545 S
C268 C271 1.387 . S
H269 C265 0.950 . S
H270 C267 0.950 . S
C271 C262 1.390 . S
C271 H264 0.950 . S
C271 C268 1.387 . S
C272 C273 1.387 . S
C272 H276 0.950 . S
C272 C281 1.390 . S
C273 C272 1.387 . S
C273 C275 1.387 . S
H274 C281 0.950 . S
C275 C273 1.387 . S
C275 C277 1.390 . S
C275 H279 0.950 . S
H276 C272 0.950 . S
C277 C275 1.390 . S
C277 C278 1.387 . S
C277 H280 0.950 . S
C278 C277 1.387 . S
C278 C281 1.387 . S
H279 C275 0.950 . S
H280 C277 0.950 . S
C281 C272 1.390 . S
C281 H274 0.950 . S
C281 C278 1.387 . S
C282 C283 1.387 1_565 S
C282 H286 0.950 . S
C282 C291 1.390 . S
C283 C282 1.387 1_545 S
C283 C285 1.387 . S
H284 C291 0.950 . S
C285 C283 1.387 . S
C285 C287 1.390 . S
C285 H289 0.950 . S
H286 C282 0.950 . S
C287 C285 1.390 . S
C287 C288 1.387 . S
C287 H290 0.950 . S
C288 C287 1.387 . S
C288 C291 1.387 1_545 S
H289 C285 0.950 . S
H290 C287 0.950 . S
C291 C282 1.390 . S
C291 H284 0.950 . S
C291 C288 1.387 1_565 S
C292 C293 1.387 . S
C292 H296 0.950 . S
C292 C301 1.390 1_556 S
C293 C292 1.387 . S
C293 C295 1.387 . S
H294 C301 0.950 . S
C295 C293 1.387 . S
C295 C297 1.390 1_556 S
C295 H299 0.950 . S
H296 C292 0.950 . S
C297 C295 1.390 1_554 S
C297 C298 1.387 . S
C297 H300 0.950 . S
C298 C297 1.387 . S
C298 C301 1.387 . S
H299 C295 0.950 . S
H300 C297 0.950 . S
C301 C292 1.390 1_554 S
C301 H294 0.950 . S
C301 C298 1.387 . S
C302 C303 1.387 . S
C302 H306 0.950 . S
C302 C311 1.390 . S
C303 C302 1.387 . S
C303 C305 1.387 . S
H304 C311 0.950 . S
C305 C303 1.387 . S
C305 C307 1.390 . S
C305 H309 0.950 . S
H306 C302 0.950 . S
C307 C305 1.390 . S
C307 C308 1.387 . S
C307 H310 0.950 1_455 S
C308 C307 1.387 . S
C308 C311 1.387 . S
H309 C305 0.950 . S
H310 C307 0.950 1_655 S
C311 C302 1.390 . S
C311 H304 0.950 . S
C311 C308 1.387 . S
C133 C2 1.249 . S
C138 C126 1.269 . S
C143 C21 1.100 . S
C148 C100 1.100 . S
C153 C42 1.156 . S
C158 C112 1.137 . S
C163 C1 0.930 . S
C168 C124 0.902 . S
C178 C102 1.015 . S
C173 C22 1.022 . S
C188 C114 0.975 . S
C183 C41 0.977 . S
C193 C38 1.961 . S
C198 C76 1.898 . S
C203 C59 2.142 . S
C208 C90 2.123 . S
C213 C18 1.843 . S
C218 C66 1.819 . S
C228 C78 1.865 . S
C223 C39 1.899 . S
C238 C88 1.674 . S
C233 C58 1.788 . S
C243 C19 2.017 . S
C248 C64 1.936 . S
C258 C93 1.627 . S
C253 C9 1.538 . S
C263 C29 1.526 . S
C268 C69 1.628 1_545 S
C273 C49 1.540 . S
C278 C81 1.576 . S
C288 C117 1.496 . S
C283 C28 1.486 . S
C298 C129 1.480 . S
C293 C48 1.439 . S
C303 C8 1.404 . S
C308 C105 1.440 . S
