# Generated by pormake.
# Topology the, (3,8)-cn, num edge types: 1
# Building blocks:
#     Node 0, Type 0, BuildingBlock: ESEHIV_clean_linker_0, # of connection points: 3
#     Node 1, Type 0, BuildingBlock: ESEHIV_clean_linker_0, # of connection points: 3
#     Node 2, Type 0, BuildingBlock: ESEHIV_clean_linker_0, # of connection points: 3
#     Node 3, Type 0, BuildingBlock: ESEHIV_clean_linker_0, # of connection points: 3
#     Node 4, Type 0, BuildingBlock: ESEHIV_clean_linker_0, # of connection points: 3
#     Node 5, Type 0, BuildingBlock: ESEHIV_clean_linker_0, # of connection points: 3
#     Node 6, Type 0, BuildingBlock: ESEHIV_clean_linker_0, # of connection points: 3
#     Node 7, Type 0, BuildingBlock: ESEHIV_clean_linker_0, # of connection points: 3
#     Node 8, Type 1, BuildingBlock: GIZVER_clean_sbu_0, # of connection points: 8
#     Node 9, Type 1, BuildingBlock: GIZVER_clean_sbu_0, # of connection points: 8
#     Node 10, Type 1, BuildingBlock: GIZVER_clean_sbu_0, # of connection points: 8
#     Edge 11, Type (0, 1), BuildingBlock: MIFKUJ_clean_linker_0, # of connection points: 2
#     Edge 12, Type (0, 1), BuildingBlock: MIFKUJ_clean_linker_0, # of connection points: 2
#     Edge 13, Type (0, 1), BuildingBlock: MIFKUJ_clean_linker_0, # of connection points: 2
#     Edge 14, Type (0, 1), BuildingBlock: MIFKUJ_clean_linker_0, # of connection points: 2
#     Edge 15, Type (0, 1), BuildingBlock: MIFKUJ_clean_linker_0, # of connection points: 2
#     Edge 16, Type (0, 1), BuildingBlock: MIFKUJ_clean_linker_0, # of connection points: 2
#     Edge 17, Type (0, 1), BuildingBlock: MIFKUJ_clean_linker_0, # of connection points: 2
#     Edge 18, Type (0, 1), BuildingBlock: MIFKUJ_clean_linker_0, # of connection points: 2
#     Edge 19, Type (0, 1), BuildingBlock: MIFKUJ_clean_linker_0, # of connection points: 2
#     Edge 20, Type (0, 1), BuildingBlock: MIFKUJ_clean_linker_0, # of connection points: 2
#     Edge 21, Type (0, 1), BuildingBlock: MIFKUJ_clean_linker_0, # of connection points: 2
#     Edge 22, Type (0, 1), BuildingBlock: MIFKUJ_clean_linker_0, # of connection points: 2
#     Edge 23, Type (0, 1), BuildingBlock: MIFKUJ_clean_linker_0, # of connection points: 2
#     Edge 24, Type (0, 1), BuildingBlock: MIFKUJ_clean_linker_0, # of connection points: 2
#     Edge 25, Type (0, 1), BuildingBlock: MIFKUJ_clean_linker_0, # of connection points: 2
#     Edge 26, Type (0, 1), BuildingBlock: MIFKUJ_clean_linker_0, # of connection points: 2
#     Edge 27, Type (0, 1), BuildingBlock: MIFKUJ_clean_linker_0, # of connection points: 2
#     Edge 28, Type (0, 1), BuildingBlock: MIFKUJ_clean_linker_0, # of connection points: 2
#     Edge 29, Type (0, 1), BuildingBlock: MIFKUJ_clean_linker_0, # of connection points: 2
#     Edge 30, Type (0, 1), BuildingBlock: MIFKUJ_clean_linker_0, # of connection points: 2
#     Edge 31, Type (0, 1), BuildingBlock: MIFKUJ_clean_linker_0, # of connection points: 2
#     Edge 32, Type (0, 1), BuildingBlock: MIFKUJ_clean_linker_0, # of connection points: 2
#     Edge 33, Type (0, 1), BuildingBlock: MIFKUJ_clean_linker_0, # of connection points: 2
#     Edge 34, Type (0, 1), BuildingBlock: MIFKUJ_clean_linker_0, # of connection points: 2
# Relax obj value: 0.045
# Max RMSD: 0.138
# Mean RMSD: 0.066
data_MOF--net-the--node1-GIZVER_clean_sbu_0--node2-ESEHIV_clean_linker_0--edge1-MIFKUJ_clean_linker_0
_symmetry_space_group_name_H-M    P1
_symmetry_Int_Tables_number       1
_symmetry_cell_setting            triclinic
loop_
_symmetry_equiv_pos_as_xyz
'x, y, z'
_cell_length_a     50.813482
_cell_length_b     48.062026
_cell_length_c     44.720936
_cell_angle_alpha  86.607098
_cell_angle_beta   94.07443
_cell_angle_gamma 101.47457
loop_
_atom_site_label
_atom_site_type_symbol
_atom_site_fract_x
_atom_site_fract_y
_atom_site_fract_z
_atom_type_partial_charge
H0 H 0.28784 0.36568 0.34418 0.0
H1 H 0.33442 0.30097 0.33825 0.0
H2 H 0.27565 0.29173 0.40455 0.0
C3 C 0.29274 0.34545 0.35209 0.0
C4 C 0.27931 0.32992 0.37593 0.0
C5 C 0.31269 0.33516 0.33855 0.0
C6 C 0.3189 0.30894 0.34861 0.0
C7 C 0.30539 0.29312 0.37223 0.0
C8 C 0.28573 0.30374 0.38592 0.0
H9 H 0.71477 0.30988 0.35468 0.0
H10 H 0.71619 0.37759 0.28747 0.0
H11 H 0.64658 0.31 0.29205 0.0
C12 C 0.70475 0.31976 0.33598 0.0
C13 C 0.67921 0.30615 0.32449 0.0
C14 C 0.71796 0.34579 0.32315 0.0
C15 C 0.7057 0.35791 0.29772 0.0
C16 C 0.67996 0.34498 0.28583 0.0
C17 C 0.66686 0.31939 0.29988 0.0
H18 H 0.66205 0.73543 0.30111 0.0
H19 H 0.71118 0.672 0.3104 0.0
H20 H 0.71604 0.73192 0.37914 0.0
C21 C 0.67673 0.72545 0.31409 0.0
C22 C 0.68802 0.73675 0.34154 0.0
C23 C 0.68437 0.70162 0.30296 0.0
C24 C 0.70484 0.69001 0.31901 0.0
C25 C 0.71698 0.70121 0.34621 0.0
C26 C 0.70799 0.72424 0.35744 0.0
H27 H 0.29298 0.71329 0.36957 0.0
H28 H 0.35745 0.71551 0.31179 0.0
H29 H 0.28749 0.64817 0.30612 0.0
C30 C 0.30158 0.70393 0.35207 0.0
C31 C 0.28707 0.67903 0.33909 0.0
C32 C 0.32678 0.71742 0.34205 0.0
C33 C 0.33768 0.70556 0.31889 0.0
C34 C 0.32385 0.68032 0.3059 0.0
C35 C 0.29843 0.66745 0.31604 0.0
H36 H 0.29932 0.71935 0.66964 0.0
H37 H 0.30257 0.6476 0.73077 0.0
H38 H 0.37184 0.71524 0.72399 0.0
C39 C 0.31048 0.70848 0.68651 0.0
C40 C 0.33701 0.72106 0.6958 0.0
C41 C 0.29823 0.68167 0.69843 0.0
C42 C 0.31242 0.66778 0.72091 0.0
C43 C 0.33881 0.68019 0.73118 0.0
C44 C 0.35101 0.70641 0.71774 0.0
H45 H 0.30163 0.34565 0.72073 0.0
H46 H 0.3582 0.28947 0.72169 0.0
H47 H 0.29 0.27985 0.65759 0.0
C48 C 0.30839 0.32796 0.71184 0.0
C49 C 0.29319 0.31372 0.68789 0.0
C50 C 0.33183 0.31936 0.72457 0.0
C51 C 0.33981 0.2959 0.71283 0.0
C52 C 0.32497 0.28166 0.68848 0.0
C53 C 0.30152 0.29058 0.67638 0.0
H54 H 0.66495 0.3071 0.71136 0.0
H55 H 0.7312 0.30937 0.65582 0.0
H56 H 0.73319 0.37606 0.71624 0.0
C57 C 0.6843 0.31764 0.70363 0.0
C58 C 0.69754 0.34311 0.71651 0.0
C59 C 0.69603 0.30533 0.68139 0.0
C60 C 0.72185 0.3186 0.67276 0.0
C61 C 0.73571 0.3438 0.68572 0.0
C62 C 0.72318 0.35598 0.70725 0.0
H63 H 0.68127 0.71279 0.66684 0.0
H64 H 0.71624 0.64345 0.64376 0.0
H65 H 0.73219 0.7229 0.59232 0.0
C66 C 0.69403 0.7045 0.65263 0.0
C67 C 0.70619 0.72144 0.62877 0.0
C68 C 0.69758 0.67645 0.65796 0.0
C69 C 0.71308 0.66497 0.63909 0.0
C70 C 0.72577 0.68173 0.6154 0.0
C71 C 0.72225 0.70991 0.61044 0.0
Co72 Co 0.06261 0.47798 0.53165 0.0
Co73 Co 0.0375 0.46856 0.47844 0.0
Co74 Co 0.0095 0.50965 0.51301 0.0
O75 O 0.02632 0.47533 0.51573 0.0
H76 H 0.01446 0.45858 0.52344 0.0
O77 O 0.99156 0.54337 0.51102 0.0
Co78 Co 0.95321 0.53809 0.49988 0.0
Co79 Co 0.98341 0.54847 0.55086 0.0
H80 H 1.0022 0.56032 0.50206 0.0
O81 O 0.04632 0.43351 0.47054 0.0
O82 O 0.07314 0.47061 0.49204 0.0
O83 O 0.03878 0.49905 0.44803 0.0
O84 O 0.03322 0.53042 0.48063 0.0
O85 O 0.9821 0.4903 0.48193 0.0
O86 O 0.91877 0.5362 0.48874 0.0
O87 O 0.95155 0.57532 0.49039 0.0
O88 O 0.94928 0.49879 0.50704 0.0
O89 O 0.9864 0.48881 0.54539 0.0
O90 O 0.98789 0.51885 0.58135 0.0
O91 O 0.94654 0.54237 0.54193 0.0
O92 O 0.97202 0.58111 0.56198 0.0
C93 C 0.08522 0.45067 0.55266 0.0
C94 C 0.06228 0.53228 0.54001 0.0
C95 C 0.04167 0.52451 0.45587 0.0
C96 C 0.06986 0.44559 0.48149 0.0
C97 C 0.92642 0.56344 0.484 0.0
C98 C 0.95711 0.48545 0.48686 0.0
C99 C 0.98211 0.49379 0.57214 0.0
C100 C 0.94849 0.56665 0.55388 0.0
O101 O 0.09544 0.47736 0.54718 0.0
O102 O 0.06008 0.44082 0.54424 0.0
O103 O 0.03714 0.52934 0.54381 0.0
O104 O 0.06984 0.51682 0.52166 0.0
Co105 Co 0.54218 0.95951 0.49986 0.0
Co106 Co 0.55033 0.98228 0.55197 0.0
Co107 Co 0.50997 0.0129 0.51179 0.0
O108 O 0.54346 0.99693 0.51361 0.0
H109 H 0.55888 0.0106 0.50715 0.0
O110 O 0.47625 0.02868 0.5101 0.0
Co111 Co 0.47624 0.0662 0.52309 0.0
Co112 Co 0.46978 0.0425 0.4713 0.0
H113 H 0.46087 0.01483 0.51634 0.0
O114 O 0.58479 0.9796 0.56485 0.0
O115 O 0.55368 0.9467 0.5409 0.0
O116 O 0.52202 0.97574 0.57955 0.0
O117 O 0.49194 0.98588 0.54419 0.0
O118 O 0.52802 0.0412 0.54174 0.0
O119 O 0.47398 0.09952 0.5357 0.0
O120 O 0.44077 0.06106 0.53266 0.0
O121 O 0.51329 0.0769 0.51706 0.0
O122 O 0.52813 0.0403 0.4796 0.0
O123 O 0.49782 0.04794 0.44355 0.0
O124 O 0.46646 0.0784 0.48118 0.0
O125 O 0.43579 0.04495 0.45717 0.0
C126 C 0.56754 0.93867 0.48013 0.0
C127 C 0.48928 0.95774 0.48854 0.0
C128 C 0.49781 0.97446 0.5697 0.0
C129 C 0.57738 0.95432 0.5546 0.0
C130 C 0.44937 0.08737 0.54037 0.0
C131 C 0.5295 0.06788 0.53651 0.0
C132 C 0.52206 0.05071 0.45366 0.0
C133 C 0.44335 0.07067 0.46626 0.0
O134 O 0.5432 0.92618 0.48576 0.0
O135 O 0.57677 0.9646 0.48858 0.0
O136 O 0.4919 0.98436 0.48175 0.0
O137 O 0.50559 0.94911 0.50813 0.0
Co138 Co 0.48406 0.52984 0.07082 0.0
Co139 Co 0.47197 0.47902 0.05002 0.0
Co140 Co 0.51278 0.51658 0.00764 0.0
O141 O 0.48054 0.51473 0.03139 0.0
H142 H 0.46523 0.51916 0.01933 0.0
O143 O 0.54503 0.51879 0.98384 0.0
Co144 Co 0.54103 0.50284 0.94504 0.0
Co145 Co 0.55371 0.55422 0.96422 0.0
H146 H 0.56036 0.51444 0.99591 0.0
O147 O 0.43782 0.46546 0.06201 0.0
O148 O 0.4729 0.49089 0.0888 0.0
O149 O 0.49765 0.45413 0.05087 0.0
O150 O 0.52988 0.48955 0.03606 0.0
O151 O 0.492 0.48429 0.98344 0.0
O152 O 0.54001 0.48706 0.91009 0.0
O153 O 0.57498 0.49614 0.94427 0.0
O154 O 0.50478 0.50659 0.94087 0.0
O155 O 0.49574 0.5436 0.9793 0.0
O156 O 0.52773 0.57855 0.96295 0.0
O157 O 0.55196 0.54111 0.92573 0.0
O158 O 0.5875 0.56785 0.95016 0.0
C159 C 0.46026 0.54659 0.09774 0.0
C160 C 0.53638 0.54583 0.0603 0.0
C161 C 0.52237 0.46511 0.04915 0.0
C162 C 0.44856 0.47578 0.08724 0.0
C163 C 0.5646 0.48533 0.9189 0.0
C164 C 0.48845 0.48785 0.95499 0.0
C165 C 0.50307 0.56762 0.96532 0.0
C166 C 0.57616 0.55638 0.92572 0.0
O167 O 0.48478 0.54452 0.10641 0.0
O168 O 0.44994 0.53642 0.07202 0.0
O169 O 0.53335 0.54872 0.03177 0.0
O170 O 0.52043 0.52669 0.0745 0.0
H171 H 0.23005 0.30135 0.39186 0.0
H172 H 0.19607 0.32035 0.41594 0.0
H173 H 0.24827 0.403 0.41663 0.0
H174 H 0.28265 0.38394 0.39333 0.0
H175 H 0.22479 0.38833 0.46975 0.0
H176 H 0.19773 0.39047 0.36472 0.0
H177 H 0.1859 0.37042 0.31493 0.0
H178 H 0.11995 0.31065 0.35076 0.0
H179 H 0.13163 0.33008 0.40089 0.0
H180 H 0.12257 0.47131 0.48392 0.0
H181 H 0.16062 0.4504 0.47411 0.0
H182 H 0.10855 0.36798 0.46874 0.0
H183 H 0.06989 0.38921 0.47685 0.0
H184 H 0.13371 0.38272 0.41984 0.0
H185 H 0.18627 0.36776 0.52595 0.0
H186 H 0.20527 0.38553 0.57515 0.0
H187 H 0.22424 0.47035 0.53626 0.0
H188 H 0.2064 0.4528 0.48664 0.0
C189 C 0.23434 0.32349 0.39742 0.0
C190 C 0.25886 0.34125 0.39064 0.0
C191 C 0.2149 0.33434 0.41094 0.0
C192 C 0.21966 0.36309 0.4177 0.0
C193 C 0.24428 0.38075 0.41145 0.0
C194 C 0.26374 0.36993 0.39793 0.0
C195 C 0.19879 0.37487 0.431 0.0
C196 C 0.20488 0.38734 0.4588 0.0
C197 C 0.17286 0.37318 0.41678 0.0
C198 C 0.16572 0.36155 0.38661 0.0
C199 C 0.18084 0.3729 0.36203 0.0
C200 C 0.17413 0.36167 0.33374 0.0
C201 C 0.15223 0.33922 0.3297 0.0
C202 C 0.13693 0.32801 0.35393 0.0
C203 C 0.14358 0.33913 0.38228 0.0
C204 C 0.11932 0.44857 0.48143 0.0
C205 C 0.09324 0.43191 0.4806 0.0
C206 C 0.14133 0.43649 0.47651 0.0
C207 C 0.13777 0.40738 0.47172 0.0
C208 C 0.11188 0.3904 0.47299 0.0
C209 C 0.08976 0.40257 0.47723 0.0
C210 C 0.15936 0.39589 0.45914 0.0
C211 C 0.15347 0.38354 0.43111 0.0
C212 C 0.18554 0.39794 0.47306 0.0
C213 C 0.19343 0.40926 0.50307 0.0
C214 C 0.19378 0.39032 0.52815 0.0
C215 C 0.20473 0.40025 0.556 0.0
C216 C 0.21551 0.42911 0.55897 0.0
C217 C 0.21553 0.44806 0.53404 0.0
C218 C 0.20497 0.43812 0.50605 0.0
H219 H 0.22399 0.43674 0.58056 0.0
H220 H 0.14707 0.33056 0.30778 0.0
H221 H 0.64618 0.26173 0.29593 0.0
H222 H 0.62236 0.21701 0.31812 0.0
H223 H 0.65804 0.24079 0.40546 0.0
H224 H 0.68079 0.28647 0.38392 0.0
H225 H 0.65835 0.18081 0.38699 0.0
H226 H 0.59998 0.24726 0.39745 0.0
H227 H 0.57454 0.28412 0.37896 0.0
H228 H 0.52882 0.22711 0.31538 0.0
H229 H 0.55432 0.19003 0.33321 0.0
H230 H 0.57147 0.07762 0.4765 0.0
H231 H 0.60126 0.11844 0.45402 0.0
H232 H 0.54951 0.11253 0.37294 0.0
H233 H 0.51924 0.07211 0.3956 0.0
H234 H 0.55895 0.16417 0.38892 0.0
H235 H 0.61419 0.09635 0.37924 0.0
H236 H 0.63963 0.05896 0.39559 0.0
H237 H 0.69179 0.11655 0.45387 0.0
H238 H 0.66657 0.15423 0.43809 0.0
C239 C 0.64876 0.25784 0.31995 0.0
C240 C 0.6654 0.27816 0.33803 0.0
C241 C 0.63532 0.23201 0.33253 0.0
C242 C 0.63847 0.22556 0.36341 0.0
C243 C 0.6555 0.24527 0.38151 0.0
C244 C 0.66861 0.2714 0.36905 0.0
C245 C 0.62302 0.19871 0.3768 0.0
C246 C 0.63664 0.17717 0.38785 0.0
C247 C 0.59468 0.1938 0.3771 0.0
C248 C 0.57926 0.216 0.36643 0.0
C249 C 0.58469 0.24268 0.37932 0.0
C250 C 0.57022 0.26359 0.36901 0.0
C251 C 0.55013 0.25799 0.34595 0.0
C252 C 0.54442 0.23143 0.33321 0.0
C253 C 0.55886 0.21046 0.34342 0.0
C254 C 0.56674 0.08452 0.45359 0.0
C255 C 0.54288 0.07149 0.43787 0.0
C256 C 0.58385 0.10802 0.44074 0.0
C257 C 0.57774 0.11878 0.4117 0.0
C258 C 0.55465 0.10485 0.39544 0.0
C259 C 0.5374 0.08156 0.40837 0.0
C260 C 0.59411 0.1457 0.39906 0.0
C261 C 0.58065 0.16747 0.38816 0.0
C262 C 0.62258 0.15057 0.39861 0.0
C263 C 0.63806 0.128 0.40793 0.0
C264 C 0.63089 0.10098 0.3958 0.0
C265 C 0.64535 0.07974 0.40489 0.0
C266 C 0.66721 0.08532 0.42589 0.0
C267 C 0.67477 0.11221 0.43771 0.0
C268 C 0.66038 0.13353 0.42869 0.0
H269 H 0.67838 0.06884 0.43291 0.0
H270 H 0.53894 0.2742 0.338 0.0
H271 H 0.76121 0.72866 0.37971 0.0
H272 H 0.79628 0.70821 0.40734 0.0
H273 H 0.75893 0.62528 0.37685 0.0
H274 H 0.72252 0.64511 0.35137 0.0
H275 H 0.77442 0.61792 0.42973 0.0
H276 H 0.82039 0.67204 0.34781 0.0
H277 H 0.83612 0.71505 0.31603 0.0
H278 H 0.87778 0.75698 0.39288 0.0
H279 H 0.86204 0.71429 0.42517 0.0
H280 H 0.88146 0.54467 0.44905 0.0
H281 H 0.84653 0.57027 0.43017 0.0
H282 H 0.88879 0.64504 0.47452 0.0
H283 H 0.92482 0.61954 0.49243 0.0
H284 H 0.87106 0.6599 0.42119 0.0
H285 H 0.8285 0.59871 0.50006 0.0
H286 H 0.81131 0.55427 0.52893 0.0
H287 H 0.76335 0.52144 0.45125 0.0
H288 H 0.77987 0.56597 0.42224 0.0
C289 C 0.76009 0.70596 0.37925 0.0
C290 C 0.73881 0.68869 0.36303 0.0
C291 C 0.78056 0.6943 0.3948 0.0
C292 C 0.78076 0.66514 0.39401 0.0
C293 C 0.75948 0.64785 0.37794 0.0
C294 C 0.73874 0.65937 0.3629 0.0
C295 C 0.80271 0.65232 0.41009 0.0
C296 C 0.79555 0.62693 0.4274 0.0
C297 C 0.83042 0.66445 0.40824 0.0
C298 C 0.83985 0.69011 0.38891 0.0
C299 C 0.83277 0.69051 0.35794 0.0
C300 C 0.8417 0.71481 0.33984 0.0
C301 C 0.85788 0.73875 0.35244 0.0
C302 C 0.86522 0.73843 0.38316 0.0
C303 C 0.85632 0.71419 0.40137 0.0
C304 C 0.8834 0.56659 0.45481 0.0
C305 C 0.90597 0.58011 0.47218 0.0
C306 C 0.86317 0.58117 0.44423 0.0
C307 C 0.86447 0.60947 0.45147 0.0
C308 C 0.88716 0.62318 0.4687 0.0
C309 C 0.9078 0.60866 0.47885 0.0
C310 C 0.84273 0.62486 0.43974 0.0
C311 C 0.84993 0.6509 0.42353 0.0
C312 C 0.815 0.61286 0.44188 0.0
C313 C 0.80547 0.58577 0.45911 0.0
C314 C 0.8143 0.58205 0.48927 0.0
C315 C 0.80468 0.55684 0.50562 0.0
C316 C 0.78638 0.53497 0.49191 0.0
C317 C 0.77755 0.53838 0.46186 0.0
C318 C 0.78692 0.56369 0.44553 0.0
H319 H 0.77901 0.51543 0.50459 0.0
H320 H 0.86478 0.75754 0.33839 0.0
H321 H 0.34917 0.76797 0.31421 0.0
H322 H 0.37355 0.81126 0.3375 0.0
H323 H 0.36378 0.76901 0.42506 0.0
H324 H 0.33825 0.72624 0.40178 0.0
H325 H 0.35739 0.81927 0.42986 0.0
H326 H 0.42524 0.78153 0.38593 0.0
H327 H 0.4472 0.76342 0.34578 0.0
H328 H 0.45208 0.84321 0.29586 0.0
H329 H 0.42981 0.86167 0.33556 0.0
H330 H 0.46733 0.90487 0.51026 0.0
H331 H 0.43675 0.86715 0.4839 0.0
H332 H 0.43405 0.92338 0.40544 0.0
H333 H 0.46463 0.96161 0.43202 0.0
H334 H 0.44542 0.86911 0.39412 0.0
H335 H 0.38117 0.90717 0.44453 0.0
H336 H 0.36253 0.92337 0.4883 0.0
H337 H 0.35398 0.83965 0.53021 0.0
H338 H 0.37341 0.82309 0.48711 0.0
C339 C 0.35229 0.76798 0.33842 0.0
C340 C 0.3419 0.74369 0.35616 0.0
C341 C 0.36636 0.79271 0.35177 0.0
C342 C 0.37109 0.79348 0.38316 0.0
C343 C 0.36049 0.76919 0.40086 0.0
C344 C 0.34594 0.74467 0.38754 0.0
C345 C 0.38703 0.81943 0.39761 0.0
C346 C 0.37677 0.8299 0.42216 0.0
C347 C 0.41219 0.83389 0.38745 0.0
C348 C 0.42559 0.82286 0.36355 0.0
C349 C 0.43082 0.79513 0.36628 0.0
C350 C 0.44334 0.78482 0.34362 0.0
C351 C 0.45095 0.80212 0.31824 0.0
C352 C 0.44612 0.82981 0.31551 0.0
C353 C 0.43356 0.84022 0.33808 0.0
C354 C 0.46002 0.90937 0.48749 0.0
C355 C 0.46845 0.93624 0.47319 0.0
C356 C 0.44247 0.88776 0.47247 0.0
C357 C 0.43306 0.89239 0.44269 0.0
C358 C 0.44106 0.91935 0.42843 0.0
C359 C 0.45837 0.94121 0.44367 0.0
C360 C 0.41582 0.86859 0.42631 0.0
C361 C 0.42591 0.85852 0.40152 0.0
C362 C 0.39085 0.85412 0.43671 0.0
C363 C 0.37899 0.86395 0.46263 0.0
C364 C 0.37561 0.89226 0.46321 0.0
C365 C 0.36493 0.90152 0.48793 0.0
C366 C 0.35724 0.88258 0.5121 0.0
C367 C 0.36014 0.85432 0.51156 0.0
C368 C 0.37099 0.84499 0.48698 0.0
H369 H 0.34894 0.88978 0.5312 0.0
H370 H 0.46066 0.7941 0.30073 0.0
H371 H 0.25258 0.70433 0.69101 0.0
H372 H 0.20868 0.68267 0.6673 0.0
H373 H 0.23882 0.60694 0.65383 0.0
H374 H 0.28246 0.62815 0.6781 0.0
H375 H 0.21166 0.64432 0.59974 0.0
H376 H 0.20224 0.59038 0.69705 0.0
H377 H 0.20143 0.58818 0.75223 0.0
H378 H 0.13879 0.63686 0.746 0.0
H379 H 0.13956 0.6397 0.69075 0.0
H380 H 0.11624 0.53595 0.53987 0.0
H381 H 0.1518 0.56536 0.56898 0.0
H382 H 0.09341 0.60265 0.60972 0.0
H383 H 0.05684 0.5718 0.58101 0.0
H384 H 0.13128 0.59317 0.65088 0.0
H385 H 0.13286 0.63758 0.55383 0.0
H386 H 0.13335 0.64237 0.49869 0.0
H387 H 0.21059 0.61839 0.50293 0.0
H388 H 0.20999 0.61203 0.55782 0.0
C389 C 0.24969 0.68292 0.68331 0.0
C390 C 0.27093 0.66789 0.68646 0.0
C391 C 0.22463 0.67059 0.66986 0.0
C392 C 0.22051 0.64319 0.65896 0.0
C393 C 0.24156 0.62804 0.66233 0.0
C394 C 0.26643 0.64012 0.67627 0.0
C395 C 0.19495 0.63095 0.64218 0.0
C396 C 0.19409 0.63292 0.61077 0.0
C397 C 0.17171 0.61739 0.65674 0.0
C398 C 0.17124 0.61561 0.68985 0.0
C399 C 0.18854 0.60091 0.70747 0.0
C400 C 0.18803 0.59947 0.73875 0.0
C401 C 0.17015 0.61248 0.75262 0.0
C402 C 0.15268 0.62687 0.73523 0.0
C403 C 0.15314 0.62839 0.70395 0.0
C404 C 0.11065 0.55033 0.55494 0.0
C405 C 0.08347 0.55148 0.55791 0.0
C406 C 0.13123 0.5674 0.57152 0.0
C407 C 0.12552 0.58683 0.59111 0.0
C408 C 0.0984 0.58799 0.59455 0.0
C409 C 0.07751 0.57044 0.57808 0.0
C410 C 0.14823 0.60523 0.60802 0.0
C411 C 0.1486 0.60474 0.63953 0.0
C412 C 0.171 0.62057 0.59342 0.0
C413 C 0.17127 0.62411 0.56012 0.0
C414 C 0.14978 0.6329 0.54301 0.0
C415 C 0.15004 0.63581 0.51171 0.0
C416 C 0.17187 0.63045 0.49724 0.0
C417 C 0.19351 0.62222 0.51405 0.0
C418 C 0.1932 0.6189 0.54528 0.0
H419 H 0.17207 0.63279 0.47302 0.0
H420 H 0.16977 0.61133 0.77684 0.0
H421 H 0.33955 0.23387 0.71579 0.0
H422 H 0.35568 0.19615 0.6921 0.0
H423 H 0.34979 0.24074 0.60593 0.0
H424 H 0.33247 0.27749 0.62937 0.0
H425 H 0.33447 0.18901 0.59689 0.0
H426 H 0.41159 0.24123 0.65175 0.0
H427 H 0.438 0.26172 0.69641 0.0
H428 H 0.43168 0.17836 0.7389 0.0
H429 H 0.40494 0.15742 0.6946 0.0
H430 H 0.46436 0.14158 0.55788 0.0
H431 H 0.43875 0.16994 0.58247 0.0
H432 H 0.36941 0.1017 0.57863 0.0
H433 H 0.39538 0.07253 0.55351 0.0
H434 H 0.41904 0.15974 0.636 0.0
H435 H 0.31391 0.13359 0.57509 0.0
H436 H 0.29104 0.12814 0.52455 0.0
H437 H 0.36199 0.17583 0.48548 0.0
H438 H 0.3854 0.18087 0.53558 0.0
C439 C 0.34166 0.23547 0.69178 0.0
C440 C 0.33475 0.2586 0.67442 0.0
C441 C 0.35099 0.21397 0.67823 0.0
C442 C 0.35437 0.21558 0.64714 0.0
C443 C 0.34727 0.23869 0.62986 0.0
C444 C 0.33743 0.25981 0.64329 0.0
C445 C 0.36575 0.19377 0.63242 0.0
C446 C 0.35283 0.18241 0.60572 0.0
C447 C 0.38996 0.18529 0.64341 0.0
C448 C 0.40599 0.19781 0.67004 0.0
C449 C 0.41567 0.22731 0.67072 0.0
C450 C 0.43072 0.239 0.69594 0.0
C451 C 0.43644 0.22136 0.72052 0.0
C452 C 0.42718 0.192 0.71988 0.0
C453 C 0.41208 0.1802 0.69472 0.0
C454 C 0.44364 0.13234 0.56203 0.0
C455 C 0.43211 0.10444 0.55393 0.0
C456 C 0.42897 0.14875 0.57622 0.0
C457 C 0.40219 0.13801 0.58273 0.0
C458 C 0.39008 0.11051 0.57385 0.0
C459 C 0.40495 0.09379 0.55961 0.0
C460 C 0.38802 0.15552 0.60017 0.0
C461 C 0.40034 0.16585 0.62758 0.0
C462 C 0.36393 0.16403 0.58918 0.0
C463 C 0.35147 0.15723 0.55896 0.0
C464 C 0.32476 0.14236 0.5556 0.0
C465 C 0.31169 0.13942 0.52705 0.0
C466 C 0.32503 0.15167 0.50181 0.0
C467 C 0.35172 0.16616 0.50497 0.0
C468 C 0.36499 0.16882 0.53341 0.0
H469 H 0.31463 0.14997 0.47984 0.0
H470 H 0.4481 0.23045 0.74002 0.0
H471 H 0.75514 0.34971 0.62936 0.0
H472 H 0.80035 0.37183 0.61507 0.0
H473 H 0.82367 0.39206 0.70703 0.0
H474 H 0.7787 0.36936 0.72172 0.0
H475 H 0.84073 0.43741 0.66699 0.0
H476 H 0.84427 0.33827 0.67924 0.0
H477 H 0.82875 0.28719 0.67098 0.0
H478 H 0.83883 0.30282 0.57655 0.0
H479 H 0.85405 0.35407 0.58419 0.0
H480 H 0.97503 0.48915 0.63277 0.0
H481 H 0.93792 0.45848 0.65806 0.0
H482 H 0.90798 0.42069 0.57402 0.0
H483 H 0.9459 0.44939 0.54941 0.0
H484 H 0.89619 0.38277 0.61584 0.0
H485 H 0.8866 0.48196 0.60217 0.0
H486 H 0.90613 0.53255 0.60948 0.0
H487 H 0.90767 0.517 0.705 0.0
H488 H 0.88857 0.46619 0.6983 0.0
C489 C 0.76992 0.35852 0.64666 0.0
C490 C 0.7632 0.35757 0.67675 0.0
C491 C 0.79576 0.37131 0.63841 0.0
C492 C 0.81546 0.38342 0.66003 0.0
C493 C 0.80877 0.38291 0.68997 0.0
C494 C 0.78299 0.36999 0.69829 0.0
C495 C 0.84306 0.39647 0.65132 0.0
C496 C 0.85299 0.42537 0.65617 0.0
C497 C 0.859 0.38089 0.63689 0.0
C498 C 0.8501 0.35004 0.63227 0.0
C499 C 0.843 0.33084 0.65669 0.0
C500 C 0.83428 0.30186 0.65212 0.0
C501 C 0.83275 0.29177 0.62325 0.0
C502 C 0.84 0.31066 0.5989 0.0
C503 C 0.84871 0.33967 0.60334 0.0
C504 C 0.96093 0.47371 0.61995 0.0
C505 C 0.96327 0.47198 0.58904 0.0
C506 C 0.93955 0.45637 0.63433 0.0
C507 C 0.91947 0.43796 0.61775 0.0
C508 C 0.92295 0.43481 0.58737 0.0
C509 C 0.94474 0.45139 0.57325 0.0
C510 C 0.89371 0.42388 0.6309 0.0
C511 C 0.88403 0.39479 0.62685 0.0
C512 C 0.87785 0.43935 0.64574 0.0
C513 C 0.88643 0.47029 0.64975 0.0
C514 C 0.89096 0.48939 0.62472 0.0
C515 C 0.90214 0.51803 0.62874 0.0
C516 C 0.90848 0.52787 0.65764 0.0
C517 C 0.90302 0.50925 0.68262 0.0
C518 C 0.89197 0.48055 0.67875 0.0
H519 H 0.91731 0.55002 0.66068 0.0
H520 H 0.82599 0.26932 0.61976 0.0
H521 H 0.70142 0.76082 0.6692 0.0
H522 H 0.68629 0.80575 0.65831 0.0
H523 H 0.68621 0.79404 0.56347 0.0
H524 H 0.69964 0.74852 0.57392 0.0
H525 H 0.70444 0.85269 0.58166 0.0
H526 H 0.6308 0.77101 0.5908 0.0
H527 H 0.60686 0.72803 0.61752 0.0
H528 H 0.59918 0.7775 0.69216 0.0
H529 H 0.62348 0.82071 0.66601 0.0
H530 H 0.5672 0.89856 0.54039 0.0
H531 H 0.59502 0.86344 0.55415 0.0
H532 H 0.65513 0.9275 0.59703 0.0
H533 H 0.62745 0.96291 0.58325 0.0
H534 H 0.61004 0.84518 0.60838 0.0
H535 H 0.71788 0.90816 0.59367 0.0
H536 H 0.74153 0.94936 0.5641 0.0
H537 H 0.67882 0.93553 0.49404 0.0
H538 H 0.65499 0.89376 0.52286 0.0
C539 C 0.6982 0.76778 0.646 0.0
C540 C 0.70124 0.75071 0.62244 0.0
C541 C 0.68994 0.79364 0.63987 0.0
C542 C 0.68499 0.80302 0.61012 0.0
C543 C 0.68999 0.78718 0.58658 0.0
C544 C 0.69777 0.76112 0.59265 0.0
C545 C 0.67099 0.82694 0.60347 0.0
C546 C 0.68392 0.85134 0.58773 0.0
C547 C 0.64413 0.82477 0.6111 0.0
C548 C 0.62919 0.79896 0.62664 0.0
C549 C 0.62418 0.77265 0.61301 0.0
C550 C 0.61053 0.74827 0.62803 0.0
C551 C 0.60157 0.75002 0.65656 0.0
C552 C 0.60618 0.77617 0.67009 0.0
C553 C 0.61988 0.80061 0.65518 0.0
C554 C 0.58645 0.90528 0.55246 0.0
C555 C 0.59505 0.93349 0.56084 0.0
C556 C 0.60236 0.88517 0.5603 0.0
C557 C 0.62725 0.8929 0.57639 0.0
C558 C 0.63615 0.92116 0.58429 0.0
C559 C 0.62023 0.94132 0.57648 0.0
C560 C 0.64322 0.87099 0.58591 0.0
C561 C 0.63072 0.84698 0.60262 0.0
C562 C 0.67027 0.87338 0.57857 0.0
C563 C 0.68451 0.89803 0.56061 0.0
C564 C 0.70918 0.9138 0.57187 0.0
C565 C 0.72262 0.93722 0.55524 0.0
C566 C 0.71161 0.94504 0.52723 0.0
C567 C 0.68723 0.92937 0.51574 0.0
C568 C 0.67375 0.90584 0.53222 0.0
H569 H 0.722 0.96323 0.51442 0.0
H570 H 0.59097 0.73113 0.66813 0.0
H571 H 0.31932 0.27816 0.42978 0.0
H572 H 0.33715 0.23593 0.44752 0.0
H573 H 0.32593 0.20536 0.35786 0.0
H574 H 0.30838 0.24778 0.33987 0.0
H575 H 0.31309 0.16225 0.41271 0.0
H576 H 0.38148 0.23763 0.36848 0.0
H577 H 0.40533 0.28756 0.36435 0.0
H578 H 0.42912 0.28452 0.45839 0.0
H579 H 0.40495 0.23468 0.46314 0.0
H580 H 0.40373 0.06733 0.42164 0.0
H581 H 0.37654 0.10267 0.40618 0.0
H582 H 0.41631 0.15583 0.47713 0.0
H583 H 0.44566 0.12219 0.49019 0.0
H584 H 0.41216 0.18709 0.43212 0.0
H585 H 0.35103 0.11062 0.47703 0.0
H586 H 0.32487 0.06231 0.48556 0.0
H587 H 0.28529 0.06644 0.39781 0.0
H588 H 0.3114 0.11481 0.38855 0.0
C589 C 0.32011 0.26209 0.41405 0.0
C590 C 0.31278 0.26614 0.38348 0.0
C591 C 0.33017 0.23806 0.42418 0.0
C592 C 0.33272 0.21774 0.40391 0.0
C593 C 0.32385 0.22084 0.37374 0.0
C594 C 0.31414 0.24509 0.3635 0.0
C595 C 0.34818 0.19563 0.41326 0.0
C596 C 0.33478 0.16734 0.41672 0.0
C597 C 0.37626 0.20285 0.41923 0.0
C598 C 0.39122 0.23258 0.41621 0.0
C599 C 0.39162 0.24769 0.3883 0.0
C600 C 0.40521 0.27596 0.38585 0.0
C601 C 0.41868 0.28923 0.41111 0.0
C602 C 0.41865 0.27423 0.43886 0.0
C603 C 0.40502 0.24598 0.44144 0.0
C604 C 0.40666 0.08656 0.43395 0.0
C605 C 0.42641 0.09168 0.45765 0.0
C606 C 0.39093 0.10664 0.42524 0.0
C607 C 0.39387 0.1316 0.44096 0.0
C608 C 0.41357 0.13667 0.4647 0.0
C609 C 0.4301 0.11719 0.47251 0.0
C610 C 0.37724 0.15304 0.43198 0.0
C611 C 0.39046 0.18149 0.42833 0.0
C612 C 0.34889 0.14582 0.42653 0.0
C613 C 0.33333 0.11648 0.43202 0.0
C614 C 0.33686 0.10128 0.45944 0.0
C615 C 0.32201 0.07384 0.46443 0.0
C616 C 0.30345 0.06129 0.44223 0.0
C617 C 0.29968 0.0762 0.415 0.0
C618 C 0.31448 0.10367 0.40988 0.0
H619 H 0.29197 0.04003 0.44614 0.0
H620 H 0.42919 0.31111 0.40917 0.0
H621 H 0.73106 0.35537 0.38237 0.0
H622 H 0.77398 0.37931 0.40565 0.0
H623 H 0.80754 0.39343 0.31891 0.0
H624 H 0.76438 0.36949 0.29536 0.0
H625 H 0.84215 0.37307 0.36449 0.0
H626 H 0.7919 0.44719 0.34832 0.0
H627 H 0.75353 0.47121 0.35036 0.0
H628 H 0.76027 0.46481 0.44666 0.0
H629 H 0.79838 0.44028 0.44522 0.0
H630 H 0.95882 0.47033 0.42833 0.0
H631 H 0.92072 0.44607 0.39624 0.0
H632 H 0.87022 0.43494 0.47134 0.0
H633 H 0.90764 0.45929 0.50293 0.0
H634 H 0.84607 0.45713 0.42501 0.0
H635 H 0.89292 0.37905 0.44169 0.0
H636 H 0.93156 0.35523 0.44061 0.0
H637 H 0.93138 0.36903 0.34486 0.0
H638 H 0.89294 0.39329 0.34542 0.0
C639 C 0.74759 0.36347 0.36823 0.0
C640 C 0.74429 0.36051 0.337 0.0
C641 C 0.77209 0.37728 0.38155 0.0
C642 C 0.79399 0.38832 0.36404 0.0
C643 C 0.79093 0.38512 0.33287 0.0
C644 C 0.76622 0.3716 0.31943 0.0
C645 C 0.8199 0.40323 0.37856 0.0
C646 C 0.84316 0.39174 0.37734 0.0
C647 C 0.82117 0.42736 0.39569 0.0
C648 C 0.79785 0.4416 0.39663 0.0
C649 C 0.78501 0.45058 0.36993 0.0
C650 C 0.76333 0.46436 0.37099 0.0
C651 C 0.75443 0.46948 0.39862 0.0
C652 C 0.76716 0.4608 0.42527 0.0
C653 C 0.7888 0.44695 0.42434 0.0
C654 C 0.93971 0.46218 0.43803 0.0
C655 C 0.93622 0.46691 0.46811 0.0
C656 C 0.91791 0.44836 0.41968 0.0
C657 C 0.89242 0.43878 0.43126 0.0
C658 C 0.88948 0.44237 0.46168 0.0
C659 C 0.91101 0.45624 0.47979 0.0
C660 C 0.8682 0.42646 0.41187 0.0
C661 C 0.8452 0.43856 0.41204 0.0
C662 C 0.86719 0.40284 0.39401 0.0
C663 C 0.89028 0.38829 0.39365 0.0
C664 C 0.90128 0.37723 0.42044 0.0
C665 C 0.92311 0.3636 0.41991 0.0
C666 C 0.93398 0.3607 0.39269 0.0
C667 C 0.92298 0.37135 0.36593 0.0
C668 C 0.90117 0.38503 0.36634 0.0
H669 H 0.95087 0.35014 0.39233 0.0
H670 H 0.73771 0.48024 0.39939 0.0
H671 H 0.63691 0.7486 0.33666 0.0
H672 H 0.62131 0.78784 0.35735 0.0
H673 H 0.70075 0.81848 0.39708 0.0
H674 H 0.71719 0.78036 0.37491 0.0
H675 H 0.65342 0.80868 0.43677 0.0
H676 H 0.68548 0.85669 0.34449 0.0
H677 H 0.68844 0.86147 0.28957 0.0
H678 H 0.60327 0.8581 0.27797 0.0
H679 H 0.59973 0.85286 0.33283 0.0
H680 H 0.62083 0.93478 0.49103 0.0
H681 H 0.64497 0.90361 0.46616 0.0
H682 H 0.57448 0.87578 0.40808 0.0
H683 H 0.55024 0.906 0.43306 0.0
H684 H 0.62118 0.887 0.37714 0.0
H685 H 0.58513 0.83406 0.46204 0.0
H686 H 0.57496 0.81866 0.51418 0.0
H687 H 0.65893 0.8226 0.53741 0.0
H688 H 0.66977 0.83884 0.48573 0.0
C689 C 0.65137 0.76397 0.34913 0.0
C690 C 0.67846 0.76108 0.35392 0.0
C691 C 0.64228 0.78633 0.36114 0.0
C692 C 0.65989 0.80609 0.37864 0.0
C693 C 0.68684 0.8034 0.38363 0.0
C694 C 0.69612 0.78137 0.37112 0.0
C695 C 0.64969 0.82869 0.39285 0.0
C696 C 0.64705 0.8263 0.42392 0.0
C697 C 0.6402 0.85078 0.37574 0.0
C698 C 0.64232 0.85414 0.34277 0.0
C699 C 0.66734 0.85672 0.33022 0.0
C700 C 0.66913 0.85956 0.2991 0.0
C701 C 0.64605 0.86003 0.28029 0.0
C702 C 0.62113 0.85772 0.29257 0.0
C703 C 0.61923 0.85485 0.32368 0.0
C704 C 0.61074 0.92233 0.47265 0.0
C705 C 0.58375 0.92287 0.46381 0.0
C706 C 0.62443 0.90446 0.45865 0.0
C707 C 0.61152 0.88741 0.43532 0.0
C708 C 0.58489 0.8888 0.42591 0.0
C709 C 0.57107 0.90603 0.44025 0.0
C710 C 0.62523 0.86727 0.42132 0.0
C711 C 0.62826 0.86991 0.39022 0.0
C712 C 0.63434 0.84484 0.43825 0.0
C713 C 0.62831 0.83811 0.47009 0.0
C714 C 0.60152 0.83235 0.47846 0.0
C715 C 0.59562 0.82327 0.50792 0.0
C716 C 0.61631 0.81963 0.52915 0.0
C717 C 0.64296 0.82552 0.52107 0.0
C718 C 0.64901 0.83474 0.49171 0.0
H719 H 0.61165 0.81213 0.5518 0.0
H720 H 0.64747 0.86223 0.2562 0.0
H721 H 0.27155 0.67073 0.39704 0.0
H722 H 0.22774 0.64738 0.41454 0.0
H723 H 0.198 0.63146 0.32316 0.0
H724 H 0.24157 0.65556 0.30542 0.0
H725 H 0.16064 0.64797 0.35286 0.0
H726 H 0.2171 0.58057 0.36958 0.0
H727 H 0.25657 0.5606 0.38814 0.0
H728 H 0.23808 0.56854 0.47908 0.0
H729 H 0.19864 0.58885 0.46099 0.0
H730 H 0.05515 0.52632 0.39733 0.0
H731 H 0.09435 0.55668 0.37519 0.0
H732 H 0.11345 0.60098 0.45731 0.0
H733 H 0.07396 0.57152 0.47927 0.0
H734 H 0.15493 0.56954 0.43084 0.0
H735 H 0.09861 0.63987 0.41049 0.0
H736 H 0.05793 0.65621 0.38912 0.0
H737 H 0.07498 0.63643 0.301 0.0
H738 H 0.11557 0.61955 0.32195 0.0
C739 C 0.25563 0.66254 0.3806 0.0
C740 C 0.2602 0.66497 0.34979 0.0
C741 C 0.23061 0.64895 0.39068 0.0
C742 C 0.20956 0.63732 0.37023 0.0
C743 C 0.21389 0.64016 0.33942 0.0
C744 C 0.23893 0.65372 0.32932 0.0
C745 C 0.18322 0.62192 0.38105 0.0
C746 C 0.15946 0.63065 0.36971 0.0
C747 C 0.18148 0.59924 0.40307 0.0
C748 C 0.20525 0.58696 0.41394 0.0
C749 C 0.22165 0.57847 0.39354 0.0
C750 C 0.24397 0.56695 0.40396 0.0
C751 C 0.24995 0.56349 0.43477 0.0
C752 C 0.23354 0.5714 0.45521 0.0
C753 C 0.21122 0.58295 0.44488 0.0
C754 C 0.0672 0.54313 0.41033 0.0
C755 C 0.06128 0.54655 0.44001 0.0
C756 C 0.08964 0.56037 0.39769 0.0
C757 C 0.1068 0.58097 0.41467 0.0
C758 C 0.10037 0.58526 0.44381 0.0
C759 C 0.07763 0.56851 0.45622 0.0
C760 C 0.13277 0.59607 0.40313 0.0
C761 C 0.15634 0.58702 0.41415 0.0
C762 C 0.13427 0.61796 0.38044 0.0
C763 C 0.10993 0.62812 0.36784 0.0
C764 C 0.09351 0.6387 0.38661 0.0
C765 C 0.07052 0.64814 0.37456 0.0
C766 C 0.06382 0.64727 0.34373 0.0
C767 C 0.08016 0.63704 0.32488 0.0
C768 C 0.10317 0.62756 0.33683 0.0
H769 H 0.04601 0.6546 0.33444 0.0
H770 H 0.26722 0.55454 0.4428 0.0
H771 H 0.33131 0.74321 0.63777 0.0
H772 H 0.35365 0.78901 0.61659 0.0
H773 H 0.39687 0.80807 0.70182 0.0
H774 H 0.37292 0.76355 0.72384 0.0
H775 H 0.3842 0.85354 0.67988 0.0
H776 H 0.42353 0.78249 0.63835 0.0
H777 H 0.42458 0.73996 0.61055 0.0
H778 H 0.39254 0.77849 0.53062 0.0
H779 H 0.39102 0.82109 0.55808 0.0
H780 H 0.4993 0.95179 0.62747 0.0
H781 H 0.4672 0.91202 0.6489 0.0
H782 H 0.41642 0.91024 0.56731 0.0
H783 H 0.4481 0.95016 0.54586 0.0
H784 H 0.43025 0.85775 0.58514 0.0
H785 H 0.39435 0.93039 0.62779 0.0
H786 H 0.39642 0.97324 0.65626 0.0
H787 H 0.42638 0.93149 0.73525 0.0
H788 H 0.42486 0.8885 0.70714 0.0
C789 C 0.34516 0.7573 0.65225 0.0
C790 C 0.35035 0.7493 0.68259 0.0
C791 C 0.35831 0.78342 0.63991 0.0
C792 C 0.37752 0.80191 0.65733 0.0
C793 C 0.38232 0.79423 0.68773 0.0
C794 C 0.36882 0.76843 0.70023 0.0
C795 C 0.39279 0.82913 0.64409 0.0
C796 C 0.39448 0.85428 0.65933 0.0
C797 C 0.40584 0.83051 0.61686 0.0
C798 C 0.40669 0.80479 0.60041 0.0
C799 C 0.41644 0.78178 0.61493 0.0
C800 C 0.41719 0.75767 0.59922 0.0
C801 C 0.4085 0.75645 0.56888 0.0
C802 C 0.39915 0.77939 0.55416 0.0
C803 C 0.39832 0.80351 0.56979 0.0
C804 C 0.48099 0.94341 0.61436 0.0
C805 C 0.47631 0.95427 0.58497 0.0
C806 C 0.46266 0.92066 0.62664 0.0
C807 C 0.43944 0.90814 0.60968 0.0
C808 C 0.4342 0.91959 0.58079 0.0
C809 C 0.45228 0.9426 0.56867 0.0
C810 C 0.42183 0.88176 0.62117 0.0
C811 C 0.41976 0.85685 0.6056 0.0
C812 C 0.40886 0.88051 0.64828 0.0
C813 C 0.40971 0.9063 0.66527 0.0
C814 C 0.4016 0.93042 0.65116 0.0
C815 C 0.40263 0.95472 0.66725 0.0
C816 C 0.41158 0.95511 0.69752 0.0
C817 C 0.41947 0.93117 0.71179 0.0
C818 C 0.4185 0.90681 0.6958 0.0
H819 H 0.41236 0.97395 0.70994 0.0
H820 H 0.40912 0.73778 0.55675 0.0
H821 H 0.29178 0.36505 0.65992 0.0
H822 H 0.25241 0.38309 0.63868 0.0
H823 H 0.20098 0.30401 0.66523 0.0
H824 H 0.24082 0.28536 0.68492 0.0
H825 H 0.18164 0.32135 0.6145 0.0
H826 H 0.20857 0.36663 0.70619 0.0
H827 H 0.23963 0.39319 0.74418 0.0
H828 H 0.25613 0.46511 0.68193 0.0
H829 H 0.22547 0.43883 0.6434 0.0
H830 H 0.07093 0.3968 0.57916 0.0
H831 H 0.10127 0.36822 0.60574 0.0
H832 H 0.16928 0.43437 0.58536 0.0
H833 H 0.13959 0.46261 0.55942 0.0
H834 H 0.17399 0.41805 0.64078 0.0
H835 H 0.14333 0.36842 0.54853 0.0
H836 H 0.11125 0.33874 0.5141 0.0
H837 H 0.09714 0.27218 0.58269 0.0
H838 H 0.12925 0.30142 0.61769 0.0
C839 C 0.27205 0.35153 0.66104 0.0
C840 C 0.26922 0.32397 0.67423 0.0
C841 C 0.24951 0.36188 0.64911 0.0
C842 C 0.22348 0.34528 0.65109 0.0
C843 C 0.22073 0.31736 0.66358 0.0
C844 C 0.24344 0.30673 0.67489 0.0
C845 C 0.19938 0.35744 0.64048 0.0
C846 C 0.1797 0.34232 0.62061 0.0
C847 C 0.19654 0.38467 0.64865 0.0
C848 C 0.21482 0.40068 0.67186 0.0
C849 C 0.21892 0.38806 0.70055 0.0
C850 C 0.23646 0.40307 0.72218 0.0
C851 C 0.24987 0.43081 0.71546 0.0
C852 C 0.24573 0.44362 0.68711 0.0
C853 C 0.22825 0.42869 0.66537 0.0
C854 C 0.09241 0.40501 0.58021 0.0
C855 C 0.10282 0.43204 0.56733 0.0
C856 C 0.10973 0.38866 0.59534 0.0
C857 C 0.13773 0.39892 0.59731 0.0
C858 C 0.14791 0.42575 0.58406 0.0
C859 C 0.13078 0.44202 0.56925 0.0
C860 C 0.15699 0.38268 0.61347 0.0
C861 C 0.17569 0.39695 0.63482 0.0
C862 C 0.15843 0.35446 0.60706 0.0
C863 C 0.13878 0.33725 0.58586 0.0
C864 C 0.1335 0.3475 0.55637 0.0
C865 C 0.11523 0.33074 0.53671 0.0
C866 C 0.10213 0.30364 0.54618 0.0
C867 C 0.10729 0.29319 0.57536 0.0
C868 C 0.12556 0.30985 0.59511 0.0
H869 H 0.08799 0.29072 0.5309 0.0
H870 H 0.26345 0.44238 0.73223 0.0
H871 H 0.64172 0.28995 0.66717 0.0
H872 H 0.61728 0.24655 0.64464 0.0
H873 H 0.69169 0.21778 0.63851 0.0
H874 H 0.71639 0.26055 0.66245 0.0
H875 H 0.6549 0.21249 0.58404 0.0
H876 H 0.65596 0.18743 0.68992 0.0
H877 H 0.64955 0.19449 0.74288 0.0
H878 H 0.56568 0.19361 0.72142 0.0
H879 H 0.57168 0.18697 0.66822 0.0
H880 H 0.58365 0.07044 0.5484 0.0
H881 H 0.61576 0.10832 0.5741 0.0
H882 H 0.55055 0.14989 0.58979 0.0
H883 H 0.51894 0.11292 0.56371 0.0
H884 H 0.58697 0.14547 0.641 0.0
H885 H 0.58448 0.17671 0.53767 0.0
H886 H 0.58785 0.1738 0.48327 0.0
H887 H 0.67066 0.16655 0.49805 0.0
H888 H 0.66766 0.1689 0.55272 0.0
C889 C 0.65299 0.2743 0.66155 0.0
C890 C 0.68115 0.2789 0.66698 0.0
C891 C 0.63894 0.24956 0.64838 0.0
C892 C 0.65266 0.22891 0.63998 0.0
C893 C 0.68074 0.23352 0.64472 0.0
C894 C 0.69483 0.25812 0.65831 0.0
C895 C 0.63739 0.20235 0.62676 0.0
C896 C 0.64051 0.19745 0.59667 0.0
C897 C 0.61805 0.18319 0.64301 0.0
C898 C 0.61433 0.18693 0.67504 0.0
C899 C 0.6362 0.18896 0.69645 0.0
C900 C 0.63263 0.19285 0.72652 0.0
C901 C 0.60724 0.19456 0.7355 0.0
C902 C 0.58534 0.1923 0.71443 0.0
C903 C 0.58881 0.18845 0.68432 0.0
C904 C 0.57628 0.08759 0.55761 0.0
C905 C 0.54885 0.08886 0.55399 0.0
C906 C 0.59457 0.10921 0.57213 0.0
C907 C 0.58549 0.13193 0.58379 0.0
C908 C 0.55798 0.13258 0.58099 0.0
C909 C 0.53993 0.11149 0.56593 0.0
C910 C 0.60444 0.15561 0.59829 0.0
C911 C 0.60185 0.16009 0.62857 0.0
C912 C 0.6239 0.17462 0.58206 0.0
C913 C 0.62573 0.17255 0.54933 0.0
C914 C 0.60331 0.17407 0.52939 0.0
C915 C 0.60517 0.17265 0.49851 0.0
C916 C 0.62944 0.17001 0.48725 0.0
C917 C 0.65187 0.1686 0.50685 0.0
C918 C 0.6501 0.16996 0.53779 0.0
H919 H 0.63084 0.16922 0.46331 0.0
H920 H 0.60452 0.19757 0.75879 0.0
H921 H 0.77552 0.70839 0.59908 0.0
H922 H 0.80875 0.68746 0.57652 0.0
H923 H 0.75138 0.60851 0.56856 0.0
H924 H 0.7179 0.62947 0.59132 0.0
H925 H 0.79378 0.59981 0.59943 0.0
H926 H 0.7802 0.64354 0.50476 0.0
H927 H 0.77345 0.67995 0.46531 0.0
H928 H 0.85129 0.7294 0.48959 0.0
H929 H 0.85837 0.69354 0.52949 0.0
H930 H 0.89673 0.53824 0.54663 0.0
H931 H 0.85594 0.55666 0.55046 0.0
H932 H 0.90349 0.63853 0.57226 0.0
H933 H 0.94474 0.6202 0.56838 0.0
H934 H 0.86296 0.64186 0.52824 0.0
H935 H 0.8665 0.60032 0.63209 0.0
H936 H 0.86996 0.56234 0.67094 0.0
H937 H 0.80894 0.50456 0.62202 0.0
H938 H 0.80425 0.54269 0.58365 0.0
C939 C 0.76966 0.68686 0.59164 0.0
C940 C 0.74423 0.67042 0.5973 0.0
C941 C 0.78867 0.67495 0.57855 0.0
C942 C 0.78255 0.64642 0.57074 0.0
C943 C 0.75653 0.63056 0.57445 0.0
C944 C 0.73752 0.64245 0.58766 0.0
C945 C 0.80462 0.63207 0.56436 0.0
C946 C 0.8084 0.60855 0.58311 0.0
C947 C 0.82413 0.64378 0.54367 0.0
C948 C 0.81963 0.66602 0.52048 0.0
C949 C 0.79571 0.66239 0.50202 0.0
C950 C 0.79187 0.68289 0.47948 0.0
C951 C 0.81186 0.70706 0.4751 0.0
C952 C 0.83579 0.71072 0.49311 0.0
C953 C 0.83972 0.69031 0.51568 0.0
C954 C 0.89858 0.56017 0.55231 0.0
C955 C 0.92394 0.57781 0.55724 0.0
C956 C 0.8752 0.57061 0.55464 0.0
C957 C 0.87673 0.59885 0.56189 0.0
C958 C 0.90198 0.6166 0.56676 0.0
C959 C 0.92547 0.6061 0.56463 0.0
C960 C 0.85191 0.61008 0.56345 0.0
C961 C 0.84792 0.63308 0.54408 0.0
C962 C 0.83174 0.59741 0.58283 0.0
C963 C 0.83533 0.57413 0.6049 0.0
C964 C 0.85397 0.57945 0.62959 0.0
C965 C 0.85596 0.55799 0.65163 0.0
C966 C 0.83986 0.53096 0.64882 0.0
C967 C 0.82146 0.52546 0.62413 0.0
C968 C 0.81894 0.54706 0.60238 0.0
H969 H 0.84159 0.51431 0.6658 0.0
H970 H 0.80885 0.72299 0.45778 0.0
H971 H 0.29104 0.35749 0.28761 0.0
H972 H 0.31516 0.38502 0.24656 0.0
H973 H 0.39095 0.37877 0.29376 0.0
H974 H 0.36688 0.35087 0.33478 0.0
H975 H 0.38526 0.43592 0.26675 0.0
H976 H 0.37547 0.33737 0.24346 0.0
H977 H 0.34989 0.28872 0.23632 0.0
H978 H 0.2996 0.32012 0.16634 0.0
H979 H 0.32464 0.36905 0.17342 0.0
H980 H 0.4701 0.47508 0.1448 0.0
H981 H 0.44714 0.45429 0.18936 0.0
H982 H 0.37169 0.43741 0.13647 0.0
H983 H 0.39479 0.45702 0.09161 0.0
H984 H 0.37781 0.39214 0.16796 0.0
H985 H 0.38752 0.48997 0.18869 0.0
H986 H 0.41288 0.53867 0.1938 0.0
H987 H 0.46133 0.51075 0.26779 0.0
H988 H 0.43666 0.46141 0.26247 0.0
C989 C 0.31283 0.36216 0.28922 0.0
C990 C 0.3272 0.35204 0.3141 0.0
C991 C 0.32652 0.37782 0.26589 0.0
C992 C 0.35473 0.38382 0.26733 0.0
C993 C 0.36915 0.37434 0.29246 0.0
C994 C 0.35546 0.35829 0.31562 0.0
C995 C 0.36903 0.39878 0.24177 0.0
C996 C 0.38398 0.42636 0.24519 0.0
C997 C 0.36669 0.38633 0.21366 0.0
C998 C 0.35174 0.3569 0.2092 0.0
C999 C 0.3588 0.33394 0.22675 0.0
C1000 C 0.34443 0.3063 0.22267 0.0
C1001 C 0.32308 0.30134 0.20095 0.0
C1002 C 0.31611 0.324 0.18319 0.0
C1003 C 0.3304 0.35168 0.18721 0.0
C1004 C 0.44855 0.46731 0.14279 0.0
C1005 C 0.43422 0.46738 0.11477 0.0
C1006 C 0.43543 0.4555 0.16828 0.0
C1007 C 0.40767 0.44434 0.16625 0.0
C1008 C 0.39316 0.44569 0.13849 0.0
C1009 C 0.40634 0.45699 0.11292 0.0
C1010 C 0.39397 0.42967 0.19258 0.0
C1011 C 0.37914 0.40195 0.1894 0.0
C1012 C 0.39625 0.44217 0.22078 0.0
C1013 C 0.4104 0.47193 0.22497 0.0
C1014 C 0.40366 0.49415 0.20598 0.0
C1015 C 0.41796 0.52192 0.2089 0.0
C1016 C 0.43878 0.52792 0.23112 0.0
C1017 C 0.44522 0.50609 0.25056 0.0
C1018 C 0.4311 0.47818 0.24757 0.0
H1019 H 0.44992 0.54945 0.23328 0.0
H1020 H 0.31199 0.27993 0.19782 0.0
H1021 H 0.33711 0.62278 0.74449 0.0
H1022 H 0.36203 0.60098 0.78539 0.0
H1023 H 0.40037 0.68397 0.81427 0.0
H1024 H 0.37453 0.706 0.77502 0.0
H1025 H 0.43266 0.63025 0.80071 0.0
H1026 H 0.36681 0.66731 0.85836 0.0
H1027 H 0.31984 0.66964 0.86678 0.0
H1028 H 0.29944 0.5785 0.87448 0.0
H1029 H 0.34626 0.5757 0.86566 0.0
H1030 H 0.51004 0.61926 0.93438 0.0
H1031 H 0.47944 0.63543 0.89569 0.0
H1032 H 0.4199 0.55963 0.91243 0.0
H1033 H 0.45023 0.54347 0.95162 0.0
H1034 H 0.39571 0.60356 0.90053 0.0
H1035 H 0.459 0.56369 0.85418 0.0
H1036 H 0.50366 0.55518 0.84378 0.0
H1037 H 0.52654 0.64161 0.81033 0.0
H1038 H 0.48216 0.65084 0.82112 0.0
C1039 C 0.35048 0.63648 0.75976 0.0
C1040 C 0.35377 0.66631 0.75606 0.0
C1041 C 0.36491 0.62392 0.78298 0.0
C1042 C 0.3831 0.6409 0.80271 0.0
C1043 C 0.38654 0.67051 0.79912 0.0
C1044 C 0.37184 0.68306 0.77639 0.0
C1045 C 0.3986 0.62802 0.82731 0.0
C1046 C 0.42476 0.62461 0.82263 0.0
C1047 C 0.38781 0.61954 0.85542 0.0
C1048 C 0.35986 0.6213 0.86098 0.0
C1049 C 0.35222 0.64779 0.86154 0.0
C1050 C 0.32566 0.64919 0.86646 0.0
C1051 C 0.30664 0.62423 0.87106 0.0
C1052 C 0.31417 0.59781 0.87085 0.0
C1053 C 0.34071 0.59631 0.8659 0.0
C1054 C 0.49026 0.60623 0.93029 0.0
C1055 C 0.48274 0.57996 0.94609 0.0
C1056 C 0.47283 0.61541 0.90794 0.0
C1057 C 0.44757 0.59845 0.9006 0.0
C1058 C 0.43932 0.57304 0.91753 0.0
C1059 C 0.45671 0.56387 0.94005 0.0
C1060 C 0.43042 0.60682 0.87448 0.0
C1061 C 0.40381 0.60913 0.8787 0.0
C1062 C 0.44061 0.61351 0.84564 0.0
C1063 C 0.46729 0.60805 0.83873 0.0
C1064 C 0.47361 0.58097 0.84482 0.0
C1065 C 0.49887 0.57599 0.83883 0.0
C1066 C 0.51794 0.59785 0.82645 0.0
C1067 C 0.51175 0.62471 0.81996 0.0
C1068 C 0.48653 0.62983 0.826 0.0
H1069 H 0.5375 0.59397 0.82185 0.0
H1070 H 0.28609 0.62535 0.87487 0.0
H1071 H 0.3583 0.29852 0.77434 0.0
H1072 H 0.38432 0.32529 0.81516 0.0
H1073 H 0.36761 0.40333 0.77263 0.0
H1074 H 0.3428 0.37701 0.73119 0.0
H1075 H 0.41762 0.41173 0.79272 0.0
H1076 H 0.33376 0.36883 0.8347 0.0
H1077 H 0.29728 0.3293 0.84907 0.0
H1078 H 0.35352 0.29134 0.90585 0.0
H1079 H 0.39042 0.33048 0.89151 0.0
H1080 H 0.45592 0.50395 0.90965 0.0
H1081 H 0.42737 0.47372 0.8733 0.0
H1082 H 0.44701 0.3993 0.92146 0.0
H1083 H 0.47447 0.42971 0.95901 0.0
H1084 H 0.39717 0.38729 0.89902 0.0
H1085 H 0.4812 0.43313 0.85725 0.0
H1086 H 0.51605 0.47451 0.84297 0.0
H1087 H 0.45779 0.50859 0.78558 0.0
H1088 H 0.4225 0.46769 0.79964 0.0
C1089 C 0.3604 0.32141 0.77348 0.0
C1090 C 0.34815 0.33548 0.74947 0.0
C1091 C 0.37506 0.3367 0.79707 0.0
C1092 C 0.37763 0.36638 0.79735 0.0
C1093 C 0.36586 0.38047 0.77314 0.0
C1094 C 0.35137 0.36528 0.74953 0.0
C1095 C 0.39264 0.38295 0.82264 0.0
C1096 C 0.41294 0.4065 0.81593 0.0
C1097 C 0.38704 0.37592 0.85308 0.0
C1098 C 0.36489 0.35242 0.86178 0.0
C1099 C 0.33838 0.35194 0.85007 0.0
C1100 C 0.31762 0.32962 0.85824 0.0
C1101 C 0.32309 0.30778 0.87829 0.0
C1102 C 0.34933 0.30825 0.89028 0.0
C1103 C 0.37016 0.3305 0.88216 0.0
C1104 C 0.45356 0.48108 0.91288 0.0
C1105 C 0.46733 0.46911 0.9371 0.0
C1106 C 0.43752 0.4638 0.89187 0.0
C1107 C 0.43575 0.4342 0.8939 0.0
C1108 C 0.44824 0.42207 0.91915 0.0
C1109 C 0.46381 0.43941 0.9407 0.0
C1110 C 0.42193 0.41624 0.86905 0.0
C1111 C 0.40196 0.3924 0.87583 0.0
C1112 C 0.42771 0.42312 0.83859 0.0
C1113 C 0.44916 0.44738 0.82963 0.0
C1114 C 0.4758 0.44947 0.84164 0.0
C1115 C 0.49563 0.47282 0.8336 0.0
C1116 C 0.48914 0.4941 0.81343 0.0
C1117 C 0.4628 0.49207 0.80118 0.0
C1118 C 0.44289 0.46879 0.80912 0.0
H1119 H 0.50452 0.51215 0.80729 0.0
H1120 H 0.30699 0.29052 0.88458 0.0
H1121 H 0.72117 0.37109 0.76648 0.0
H1122 H 0.70018 0.39553 0.80165 0.0
H1123 H 0.62307 0.36923 0.75425 0.0
H1124 H 0.64419 0.34621 0.71788 0.0
H1125 H 0.62872 0.4221 0.7663 0.0
H1126 H 0.6415 0.33835 0.82449 0.0
H1127 H 0.66682 0.30307 0.84773 0.0
H1128 H 0.71797 0.36803 0.89855 0.0
H1129 H 0.69317 0.40379 0.87529 0.0
H1130 H 0.54468 0.45012 0.87401 0.0
H1131 H 0.56907 0.42718 0.84116 0.0
H1132 H 0.64401 0.46394 0.88773 0.0
H1133 H 0.61945 0.48756 0.92084 0.0
H1134 H 0.64124 0.4077 0.8768 0.0
H1135 H 0.63083 0.49124 0.81488 0.0
H1136 H 0.60518 0.52666 0.79211 0.0
H1137 H 0.54826 0.46012 0.74976 0.0
H1138 H 0.57386 0.42455 0.77204 0.0
C1139 C 0.69977 0.37066 0.76331 0.0
C1140 C 0.68445 0.35664 0.73916 0.0
C1141 C 0.6877 0.38436 0.78377 0.0
C1142 C 0.65991 0.38398 0.78095 0.0
C1143 C 0.64452 0.36981 0.75703 0.0
C1144 C 0.65662 0.35634 0.73638 0.0
C1145 C 0.64701 0.39913 0.80224 0.0
C1146 C 0.63124 0.41856 0.79043 0.0
C1147 C 0.65073 0.39527 0.83385 0.0
C1148 C 0.66565 0.3738 0.84791 0.0
C1149 C 0.65828 0.34516 0.84044 0.0
C1150 C 0.67252 0.32507 0.85365 0.0
C1151 C 0.69404 0.33332 0.87454 0.0
C1152 C 0.70132 0.36167 0.88233 0.0
C1153 C 0.68717 0.38186 0.86916 0.0
C1154 C 0.56639 0.45383 0.87704 0.0
C1155 C 0.58014 0.47116 0.89971 0.0
C1156 C 0.58034 0.44058 0.85822 0.0
C1157 C 0.60846 0.44434 0.86146 0.0
C1158 C 0.62233 0.46103 0.88458 0.0
C1159 C 0.60829 0.47445 0.90351 0.0
C1160 C 0.62298 0.43038 0.84075 0.0
C1161 C 0.63894 0.41119 0.85265 0.0
C1162 C 0.61933 0.43424 0.80922 0.0
C1163 C 0.60406 0.4554 0.79534 0.0
C1164 C 0.61275 0.48432 0.80085 0.0
C1165 C 0.59827 0.50436 0.78801 0.0
C1166 C 0.57496 0.49562 0.76973 0.0
C1167 C 0.56628 0.46686 0.76398 0.0
C1168 C 0.58085 0.44678 0.77657 0.0
H1169 H 0.56371 0.51114 0.75992 0.0
H1170 H 0.70503 0.31773 0.88475 0.0
H1171 H 0.66034 0.62704 0.65823 0.0
H1172 H 0.63927 0.60086 0.70222 0.0
H1173 H 0.68814 0.66199 0.76021 0.0
H1174 H 0.70858 0.68853 0.71636 0.0
H1175 H 0.68492 0.60149 0.77872 0.0
H1176 H 0.63068 0.67112 0.74739 0.0
H1177 H 0.60292 0.69535 0.71119 0.0
H1178 H 0.5468 0.61674 0.69895 0.0
H1179 H 0.57455 0.59191 0.73475 0.0
H1180 H 0.62482 0.5908 0.91686 0.0
H1181 H 0.64518 0.60531 0.86931 0.0
H1182 H 0.57832 0.55215 0.82244 0.0
H1183 H 0.55749 0.53791 0.86996 0.0
H1184 H 0.58947 0.60233 0.79479 0.0
H1185 H 0.6405 0.53551 0.83598 0.0
H1186 H 0.66903 0.51238 0.87216 0.0
H1187 H 0.73205 0.58638 0.86769 0.0
H1188 H 0.70381 0.61008 0.83156 0.0
C1189 C 0.66658 0.63465 0.68045 0.0
C1190 C 0.6859 0.65969 0.68416 0.0
C1191 C 0.6546 0.6198 0.70542 0.0
C1192 C 0.66224 0.62958 0.73432 0.0
C1193 C 0.68211 0.65413 0.73805 0.0
C1194 C 0.69364 0.66928 0.7131 0.0
C1195 C 0.64889 0.61495 0.76077 0.0
C1196 C 0.66411 0.60171 0.78249 0.0
C1197 C 0.62157 0.61475 0.76496 0.0
C1198 C 0.60492 0.62957 0.74335 0.0
C1199 C 0.61261 0.65892 0.73668 0.0
C1200 C 0.59684 0.67278 0.7163 0.0
C1201 C 0.57317 0.65757 0.70266 0.0
C1202 C 0.56519 0.62847 0.70945 0.0
C1203 C 0.58094 0.61449 0.72978 0.0
C1204 C 0.61456 0.58192 0.8965 0.0
C1205 C 0.58956 0.56316 0.89722 0.0
C1206 C 0.62629 0.59016 0.86931 0.0
C1207 C 0.61351 0.57947 0.84234 0.0
C1208 C 0.58867 0.56048 0.84299 0.0
C1209 C 0.57683 0.55231 0.8702 0.0
C1210 C 0.62564 0.58919 0.81343 0.0
C1211 C 0.61018 0.60155 0.79108 0.0
C1212 C 0.65287 0.58868 0.80882 0.0
C1213 C 0.66993 0.57455 0.83085 0.0
C1214 C 0.66042 0.54686 0.84262 0.0
C1215 C 0.67655 0.53366 0.8632 0.0
C1216 C 0.70235 0.54788 0.87221 0.0
C1217 C 0.71206 0.57536 0.86065 0.0
C1218 C 0.696 0.58866 0.84005 0.0
H1219 H 0.71481 0.53761 0.88816 0.0
H1220 H 0.56097 0.66835 0.68691 0.0
H1221 H 0.70553 0.67623 0.25882 0.0
H1222 H 0.68172 0.65209 0.21551 0.0
H1223 H 0.60788 0.67417 0.23923 0.0
H1224 H 0.63102 0.69627 0.28391 0.0
H1225 H 0.59657 0.62344 0.22346 0.0
H1226 H 0.64699 0.70818 0.17851 0.0
H1227 H 0.68717 0.74444 0.16738 0.0
H1228 H 0.72263 0.68136 0.12999 0.0
H1229 H 0.68279 0.64461 0.14126 0.0
H1230 H 0.52239 0.58921 0.08702 0.0
H1231 H 0.54922 0.61903 0.12519 0.0
H1232 H 0.61699 0.58012 0.11286 0.0
H1233 H 0.58994 0.5501 0.07462 0.0
H1234 H 0.63129 0.63962 0.12166 0.0
H1235 H 0.57773 0.55519 0.16741 0.0
H1236 H 0.53502 0.52185 0.1759 0.0
H1237 H 0.50268 0.58886 0.20995 0.0
H1238 H 0.54506 0.62275 0.20114 0.0
C1239 C 0.68416 0.67572 0.25513 0.0
C1240 C 0.67034 0.68835 0.27514 0.0
C1241 C 0.67059 0.66224 0.22993 0.0
C1242 C 0.64297 0.6616 0.22361 0.0
C1243 C 0.62918 0.67436 0.2434 0.0
C1244 C 0.64261 0.6874 0.26886 0.0
C1245 C 0.62823 0.64695 0.19698 0.0
C1246 C 0.60407 0.62738 0.20118 0.0
C1247 C 0.63801 0.65157 0.16779 0.0
C1248 C 0.66202 0.67359 0.16102 0.0
C1249 C 0.66345 0.70199 0.16813 0.0
C1250 C 0.68614 0.72264 0.16176 0.0
C1251 C 0.70747 0.71519 0.14806 0.0
C1252 C 0.70611 0.68709 0.14064 0.0
C1253 C 0.68347 0.66634 0.14699 0.0
C1254 C 0.54321 0.58755 0.09202 0.0
C1255 C 0.55427 0.56763 0.07791 0.0
C1256 C 0.55847 0.60447 0.11387 0.0
C1257 C 0.585 0.60153 0.12216 0.0
C1258 C 0.59657 0.58273 0.10679 0.0
C1259 C 0.58122 0.56571 0.08492 0.0
C1260 C 0.59983 0.61645 0.14833 0.0
C1261 C 0.62394 0.63589 0.14402 0.0
C1262 C 0.58976 0.61214 0.17732 0.0
C1263 C 0.56452 0.59157 0.18339 0.0
C1264 C 0.56147 0.56286 0.17656 0.0
C1265 C 0.53732 0.54386 0.18144 0.0
C1266 C 0.51614 0.55324 0.19344 0.0
C1267 C 0.51911 0.58162 0.20068 0.0
C1268 C 0.5432 0.60074 0.19575 0.0
H1269 H 0.49743 0.53852 0.19711 0.0
H1270 H 0.72502 0.73121 0.14314 0.0
H1271 H 0.32256 0.62352 0.29937 0.0
H1272 H 0.34366 0.60168 0.26199 0.0
H1273 H 0.37546 0.68454 0.22258 0.0
H1274 H 0.35343 0.70656 0.2592 0.0
H1275 H 0.35876 0.64807 0.17935 0.0
H1276 H 0.41357 0.6483 0.27144 0.0
H1277 H 0.42387 0.63777 0.32514 0.0
H1278 H 0.40075 0.5483 0.31151 0.0
H1279 H 0.38986 0.5583 0.25783 0.0
H1280 H 0.48012 0.5782 0.14563 0.0
H1281 H 0.45625 0.60212 0.17812 0.0
H1282 H 0.38167 0.57109 0.12762 0.0
H1283 H 0.40584 0.54739 0.09431 0.0
H1284 H 0.42096 0.58425 0.21535 0.0
H1285 H 0.33808 0.61697 0.13223 0.0
H1286 H 0.33182 0.63088 0.07858 0.0
H1287 H 0.41717 0.65903 0.07404 0.0
H1288 H 0.4239 0.64566 0.12771 0.0
C1289 C 0.33365 0.63717 0.28249 0.0
C1290 C 0.33628 0.66691 0.28248 0.0
C1291 C 0.34596 0.6246 0.26124 0.0
C1292 C 0.3615 0.64142 0.2396 0.0
C1293 C 0.36367 0.67106 0.23905 0.0
C1294 C 0.35127 0.68366 0.26026 0.0
C1295 C 0.37617 0.62819 0.21824 0.0
C1296 C 0.37215 0.63384 0.1872 0.0
C1297 C 0.39415 0.61008 0.22833 0.0
C1298 C 0.40054 0.60408 0.26068 0.0
C1299 C 0.4104 0.62639 0.27995 0.0
C1300 C 0.4164 0.62051 0.31038 0.0
C1301 C 0.41286 0.59239 0.32176 0.0
C1302 C 0.4034 0.57008 0.3027 0.0
C1303 C 0.3973 0.57584 0.27228 0.0
C1304 C 0.45861 0.57636 0.14134 0.0
C1305 C 0.44491 0.56076 0.11731 0.0
C1306 C 0.44495 0.59018 0.15999 0.0
C1307 C 0.41711 0.5888 0.15531 0.0
C1308 C 0.40323 0.57305 0.13143 0.0
C1309 C 0.41703 0.55933 0.11248 0.0
C1310 C 0.40279 0.60299 0.17626 0.0
C1311 C 0.40707 0.5978 0.2073 0.0
C1312 C 0.38535 0.62169 0.16614 0.0
C1313 C 0.38149 0.62999 0.1339 0.0
C1314 C 0.3555 0.6262 0.11979 0.0
C1315 C 0.35187 0.63398 0.08937 0.0
C1316 C 0.37409 0.64573 0.07288 0.0
C1317 C 0.39998 0.64981 0.0868 0.0
C1318 C 0.40372 0.6421 0.1172 0.0
H1319 H 0.37124 0.65172 0.04934 0.0
H1320 H 0.41755 0.58789 0.34532 0.0
H1321 H 0.68334 0.40199 0.26915 0.0
H1322 H 0.66073 0.42279 0.22617 0.0
H1323 H 0.62139 0.33902 0.19993 0.0
H1324 H 0.64585 0.31798 0.24106 0.0
H1325 H 0.63241 0.36756 0.15244 0.0
H1326 H 0.59034 0.38758 0.23909 0.0
H1327 H 0.58767 0.4061 0.28882 0.0
H1328 H 0.62053 0.49056 0.2554 0.0
H1329 H 0.62373 0.47247 0.20555 0.0
H1330 H 0.51794 0.40954 0.06983 0.0
H1331 H 0.54823 0.38986 0.1067 0.0
H1332 H 0.60166 0.47155 0.10942 0.0
H1333 H 0.57186 0.49125 0.07212 0.0
H1334 H 0.58485 0.44588 0.16725 0.0
H1335 H 0.62293 0.4231 0.07836 0.0
H1336 H 0.62136 0.40227 0.02903 0.0
H1337 H 0.59034 0.3195 0.06811 0.0
H1338 H 0.59135 0.33991 0.11761 0.0
C1339 C 0.67032 0.38784 0.254 0.0
C1340 C 0.66642 0.35812 0.25913 0.0
C1341 C 0.65693 0.39989 0.22955 0.0
C1342 C 0.63864 0.38263 0.20997 0.0
C1343 C 0.63515 0.35299 0.21466 0.0
C1344 C 0.64896 0.34092 0.23866 0.0
C1345 C 0.62307 0.39526 0.18471 0.0
C1346 C 0.6218 0.38446 0.15593 0.0
C1347 C 0.60937 0.41769 0.18872 0.0
C1348 C 0.60757 0.42861 0.21869 0.0
C1349 C 0.5972 0.41006 0.24241 0.0
C1350 C 0.59556 0.42049 0.27061 0.0
C1351 C 0.60401 0.44948 0.27529 0.0
C1352 C 0.61405 0.46811 0.25176 0.0
C1353 C 0.61577 0.45778 0.22353 0.0
C1354 C 0.53641 0.42317 0.07779 0.0
C1355 C 0.5425 0.45194 0.06783 0.0
C1356 C 0.55369 0.4119 0.09892 0.0
C1357 C 0.57719 0.42925 0.11089 0.0
C1358 C 0.58365 0.45778 0.1005 0.0
C1359 C 0.56667 0.46893 0.07896 0.0
C1360 C 0.5942 0.41801 0.13541 0.0
C1361 C 0.59563 0.42906 0.16396 0.0
C1362 C 0.60748 0.39542 0.13136 0.0
C1363 C 0.60698 0.38309 0.10164 0.0
C1364 C 0.61555 0.4005 0.07639 0.0
C1365 C 0.61481 0.38876 0.04841 0.0
C1366 C 0.6057 0.35959 0.04542 0.0
C1367 C 0.59737 0.34209 0.07045 0.0
C1368 C 0.59805 0.35374 0.09848 0.0
H1369 H 0.60514 0.35054 0.02374 0.0
H1370 H 0.60272 0.45751 0.29713 0.0
loop_
_geom_bond_atom_site_label_1
_geom_bond_atom_site_label_2
_geom_bond_distance
_geom_bond_site_symmetry_2
_ccdc_geom_bond_type
H0 C3 0.931 . S
H1 C6 0.928 . S
H2 C8 0.930 . S
C3 H0 0.931 . S
C3 C4 1.413 . S
C3 C5 1.360 . S
C4 C3 1.413 . S
C4 C8 1.429 . S
C5 C3 1.360 . S
C5 C6 1.372 . S
C6 H1 0.928 . S
C6 C5 1.372 . S
C6 C7 1.404 . S
C7 C6 1.404 . S
C7 C8 1.391 . S
C8 H2 0.930 . S
C8 C4 1.429 . S
C8 C7 1.391 . S
H9 C12 0.931 . S
H10 C15 0.928 . S
H11 C17 0.930 . S
C12 H9 0.931 . S
C12 C13 1.413 . S
C12 C14 1.360 . S
C13 C12 1.413 . S
C13 C17 1.429 . S
C14 C12 1.360 . S
C14 C15 1.372 . S
C15 H10 0.928 . S
C15 C14 1.372 . S
C15 C16 1.404 . S
C16 C15 1.404 . S
C16 C17 1.391 . S
C17 H11 0.930 . S
C17 C13 1.429 . S
C17 C16 1.391 . S
H18 C21 0.931 . S
H19 C24 0.928 . S
H20 C26 0.930 . S
C21 H18 0.931 . S
C21 C22 1.413 . S
C21 C23 1.360 . S
C22 C21 1.413 . S
C22 C26 1.429 . S
C23 C21 1.360 . S
C23 C24 1.372 . S
C24 H19 0.928 . S
C24 C23 1.372 . S
C24 C25 1.404 . S
C25 C24 1.404 . S
C25 C26 1.391 . S
C26 H20 0.930 . S
C26 C22 1.429 . S
C26 C25 1.391 . S
H27 C30 0.931 . S
H28 C33 0.928 . S
H29 C35 0.930 . S
C30 H27 0.931 . S
C30 C31 1.413 . S
C30 C32 1.360 . S
C31 C30 1.413 . S
C31 C35 1.429 . S
C32 C30 1.360 . S
C32 C33 1.372 . S
C33 H28 0.928 . S
C33 C32 1.372 . S
C33 C34 1.404 . S
C34 C33 1.404 . S
C34 C35 1.391 . S
C35 H29 0.930 . S
C35 C31 1.429 . S
C35 C34 1.391 . S
H36 C39 0.931 . S
H37 C42 0.928 . S
H38 C44 0.930 . S
C39 H36 0.931 . S
C39 C40 1.413 . S
C39 C41 1.360 . S
C40 C39 1.413 . S
C40 C44 1.429 . S
C41 C39 1.360 . S
C41 C42 1.372 . S
C42 H37 0.928 . S
C42 C41 1.372 . S
C42 C43 1.404 . S
C43 C42 1.404 . S
C43 C44 1.391 . S
C44 H38 0.930 . S
C44 C40 1.429 . S
C44 C43 1.391 . S
H45 C48 0.931 . S
H46 C51 0.928 . S
H47 C53 0.930 . S
C48 H45 0.931 . S
C48 C49 1.413 . S
C48 C50 1.360 . S
C49 C48 1.413 . S
C49 C53 1.429 . S
C50 C48 1.360 . S
C50 C51 1.372 . S
C51 H46 0.928 . S
C51 C50 1.372 . S
C51 C52 1.404 . S
C52 C51 1.404 . S
C52 C53 1.391 . S
C53 H47 0.930 . S
C53 C49 1.429 . S
C53 C52 1.391 . S
H54 C57 0.931 . S
H55 C60 0.928 . S
H56 C62 0.930 . S
C57 H54 0.931 . S
C57 C58 1.413 . S
C57 C59 1.360 . S
C58 C57 1.413 . S
C58 C62 1.429 . S
C59 C57 1.360 . S
C59 C60 1.372 . S
C60 H55 0.928 . S
C60 C59 1.372 . S
C60 C61 1.404 . S
C61 C60 1.404 . S
C61 C62 1.391 . S
C62 H56 0.930 . S
C62 C58 1.429 . S
C62 C61 1.391 . S
H63 C66 0.931 . S
H64 C69 0.928 . S
H65 C71 0.930 . S
C66 H63 0.931 . S
C66 C67 1.413 . S
C66 C68 1.360 . S
C67 C66 1.413 . S
C67 C71 1.429 . S
C68 C66 1.360 . S
C68 C69 1.372 . S
C69 H64 0.928 . S
C69 C68 1.372 . S
C69 C70 1.404 . S
C70 C69 1.404 . S
C70 C71 1.391 . S
C71 H65 0.930 . S
C71 C67 1.429 . S
C71 C70 1.391 . S
Co72 O75 2.042 . S
Co72 O82 2.264 . S
Co72 O101 2.286 . S
Co72 O102 2.069 . S
Co72 O104 2.015 . S
Co73 O75 2.122 . S
Co73 O81 2.073 . S
Co73 O82 2.327 . S
Co73 O83 1.976 . S
Co74 O75 2.087 . S
Co74 O77 2.087 1_455 S
Co74 O84 2.111 . S
Co74 O85 2.143 1_455 S
Co74 O89 2.111 1_455 S
Co74 O103 2.143 . S
O75 Co72 2.042 . S
O75 Co73 2.122 . S
O75 Co74 2.087 . S
O75 H76 0.980 . S
H76 O75 0.980 . S
O77 Co74 2.087 1_655 S
O77 Co78 2.042 . S
O77 Co79 2.122 . S
O77 H80 0.980 . S
Co78 O77 2.042 . S
Co78 O86 2.286 . S
Co78 O87 2.069 . S
Co78 O88 2.015 . S
Co78 O91 2.264 . S
Co79 O77 2.122 . S
Co79 O90 1.976 . S
Co79 O91 2.327 . S
Co79 O92 2.073 . S
H80 O77 0.980 . S
O81 Co73 2.073 . S
O81 C96 1.245 . S
O82 Co72 2.264 . S
O82 Co73 2.327 . S
O82 C96 1.257 . S
O83 Co73 1.976 . S
O83 C95 1.251 . S
O84 Co74 2.111 . S
O84 C95 1.274 . S
O85 Co74 2.143 1_655 S
O85 C98 1.246 . S
O86 Co78 2.286 . S
O86 C97 1.259 . S
O87 Co78 2.069 . S
O87 C97 1.289 . S
O88 Co78 2.015 . S
O88 C98 1.257 . S
O89 Co74 2.111 1_655 S
O89 C99 1.274 . S
O90 Co79 1.976 . S
O90 C99 1.251 . S
O91 Co78 2.264 . S
O91 Co79 2.327 . S
O91 C100 1.257 . S
O92 Co79 2.073 . S
O92 C100 1.245 . S
C93 O101 1.259 . S
C93 O102 1.289 . S
C94 O103 1.246 . S
C94 O104 1.257 . S
C95 O83 1.251 . S
C95 O84 1.274 . S
C96 O81 1.245 . S
C96 O82 1.257 . S
C97 O86 1.259 . S
C97 O87 1.289 . S
C98 O85 1.246 . S
C98 O88 1.257 . S
C99 O89 1.274 . S
C99 O90 1.251 . S
C100 O91 1.257 . S
C100 O92 1.245 . S
O101 Co72 2.286 . S
O101 C93 1.259 . S
O102 Co72 2.069 . S
O102 C93 1.289 . S
O103 Co74 2.143 . S
O103 C94 1.246 . S
O104 Co72 2.015 . S
O104 C94 1.257 . S
Co105 O108 2.042 . S
Co105 O115 2.264 . S
Co105 O134 2.286 . S
Co105 O135 2.069 . S
Co105 O137 2.015 . S
Co106 O108 2.122 . S
Co106 O114 2.073 . S
Co106 O115 2.327 . S
Co106 O116 1.976 . S
Co107 O108 2.087 1_545 S
Co107 O110 2.087 . S
Co107 O117 2.111 1_545 S
Co107 O118 2.143 . S
Co107 O122 2.111 . S
Co107 O136 2.143 1_545 S
O108 Co105 2.042 . S
O108 Co106 2.122 . S
O108 Co107 2.087 1_565 S
O108 H109 0.980 . S
H109 O108 0.980 . S
O110 Co107 2.087 . S
O110 Co111 2.042 . S
O110 Co112 2.122 . S
O110 H113 0.980 . S
Co111 O110 2.042 . S
Co111 O119 2.286 . S
Co111 O120 2.069 . S
Co111 O121 2.015 . S
Co111 O124 2.264 . S
Co112 O110 2.122 . S
Co112 O123 1.976 . S
Co112 O124 2.327 . S
Co112 O125 2.073 . S
H113 O110 0.980 . S
O114 Co106 2.073 . S
O114 C129 1.245 . S
O115 Co105 2.264 . S
O115 Co106 2.327 . S
O115 C129 1.257 . S
O116 Co106 1.976 . S
O116 C128 1.251 . S
O117 Co107 2.111 1_565 S
O117 C128 1.274 . S
O118 Co107 2.143 . S
O118 C131 1.246 . S
O119 Co111 2.286 . S
O119 C130 1.259 . S
O120 Co111 2.069 . S
O120 C130 1.289 . S
O121 Co111 2.015 . S
O121 C131 1.257 . S
O122 Co107 2.111 . S
O122 C132 1.274 . S
O123 Co112 1.976 . S
O123 C132 1.251 . S
O124 Co111 2.264 . S
O124 Co112 2.327 . S
O124 C133 1.257 . S
O125 Co112 2.073 . S
O125 C133 1.245 . S
C126 O134 1.259 . S
C126 O135 1.289 . S
C127 O136 1.246 . S
C127 O137 1.257 . S
C128 O116 1.251 . S
C128 O117 1.274 . S
C129 O114 1.245 . S
C129 O115 1.257 . S
C130 O119 1.259 . S
C130 O120 1.289 . S
C131 O118 1.246 . S
C131 O121 1.257 . S
C132 O122 1.274 . S
C132 O123 1.251 . S
C133 O124 1.257 . S
C133 O125 1.245 . S
O134 Co105 2.286 . S
O134 C126 1.259 . S
O135 Co105 2.069 . S
O135 C126 1.289 . S
O136 Co107 2.143 1_565 S
O136 C127 1.246 . S
O137 Co105 2.015 . S
O137 C127 1.257 . S
Co138 O141 2.042 . S
Co138 O148 2.264 . S
Co138 O167 2.286 . S
Co138 O168 2.069 . S
Co138 O170 2.015 . S
Co139 O141 2.122 . S
Co139 O147 2.073 . S
Co139 O148 2.327 . S
Co139 O149 1.976 . S
Co140 O141 2.087 . S
Co140 O143 2.087 1_554 S
Co140 O150 2.111 . S
Co140 O151 2.143 1_554 S
Co140 O155 2.111 1_554 S
Co140 O169 2.143 . S
O141 Co138 2.042 . S
O141 Co139 2.122 . S
O141 Co140 2.087 . S
O141 H142 0.980 . S
H142 O141 0.980 . S
O143 Co140 2.087 1_556 S
O143 Co144 2.042 . S
O143 Co145 2.122 . S
O143 H146 0.980 . S
Co144 O143 2.042 . S
Co144 O152 2.286 . S
Co144 O153 2.069 . S
Co144 O154 2.015 . S
Co144 O157 2.264 . S
Co145 O143 2.122 . S
Co145 O156 1.976 . S
Co145 O157 2.327 . S
Co145 O158 2.073 . S
H146 O143 0.980 . S
O147 Co139 2.073 . S
O147 C162 1.245 . S
O148 Co138 2.264 . S
O148 Co139 2.327 . S
O148 C162 1.257 . S
O149 Co139 1.976 . S
O149 C161 1.251 . S
O150 Co140 2.111 . S
O150 C161 1.274 . S
O151 Co140 2.143 1_556 S
O151 C164 1.246 . S
O152 Co144 2.286 . S
O152 C163 1.259 . S
O153 Co144 2.069 . S
O153 C163 1.289 . S
O154 Co144 2.015 . S
O154 C164 1.257 . S
O155 Co140 2.111 1_556 S
O155 C165 1.274 . S
O156 Co145 1.976 . S
O156 C165 1.251 . S
O157 Co144 2.264 . S
O157 Co145 2.327 . S
O157 C166 1.257 . S
O158 Co145 2.073 . S
O158 C166 1.245 . S
C159 O167 1.259 . S
C159 O168 1.289 . S
C160 O169 1.246 . S
C160 O170 1.257 . S
C161 O149 1.251 . S
C161 O150 1.274 . S
C162 O147 1.245 . S
C162 O148 1.257 . S
C163 O152 1.259 . S
C163 O153 1.289 . S
C164 O151 1.246 . S
C164 O154 1.257 . S
C165 O155 1.274 . S
C165 O156 1.251 . S
C166 O157 1.257 . S
C166 O158 1.245 . S
O167 Co138 2.286 . S
O167 C159 1.259 . S
O168 Co138 2.069 . S
O168 C159 1.289 . S
O169 Co140 2.143 . S
O169 C160 1.246 . S
O170 Co138 2.015 . S
O170 C160 1.257 . S
H171 C189 0.951 . S
H172 C191 0.951 . S
H173 C193 0.950 . S
H174 C194 0.950 . S
H175 C196 0.950 . S
H176 C199 0.950 . S
H177 C200 0.950 . S
H178 C202 0.950 . S
H179 C203 0.950 . S
H180 C204 0.951 . S
H181 C206 0.951 . S
H182 C208 0.950 . S
H183 C209 0.950 . S
H184 C211 0.950 . S
H185 C214 0.950 . S
H186 C215 0.950 . S
H187 C217 0.950 . S
H188 C218 0.950 . S
C189 H171 0.951 . S
C189 C190 1.366 . S
C189 C191 1.388 . S
C190 C189 1.366 . S
C190 C194 1.385 . S
C191 H172 0.951 . S
C191 C189 1.388 . S
C191 C192 1.366 . S
C192 C191 1.366 . S
C192 C193 1.414 . S
C192 C195 1.499 . S
C193 H173 0.950 . S
C193 C192 1.414 . S
C193 C194 1.374 . S
C194 H174 0.950 . S
C194 C190 1.385 . S
C194 C193 1.374 . S
C195 C192 1.499 . S
C195 C196 1.373 . S
C195 C197 1.389 . S
C196 H175 0.950 . S
C196 C195 1.373 . S
C196 C212 1.377 . S
C197 C195 1.389 . S
C197 C198 1.524 . S
C197 C211 1.377 . S
C198 C197 1.524 . S
C198 C199 1.397 . S
C198 C203 1.363 . S
C199 H176 0.950 . S
C199 C198 1.397 . S
C199 C200 1.334 . S
C200 H177 0.950 . S
C200 C199 1.334 . S
C200 C201 1.287 . S
C201 C200 1.287 . S
C201 C202 1.524 . S
C201 H220 0.913 . S
C202 H178 0.950 . S
C202 C201 1.524 . S
C202 C203 1.415 . S
C203 H179 0.950 . S
C203 C198 1.363 . S
C203 C202 1.415 . S
C204 H180 0.951 . S
C204 C205 1.366 . S
C204 C206 1.388 . S
C205 C204 1.366 . S
C205 C209 1.385 . S
C206 H181 0.951 . S
C206 C204 1.388 . S
C206 C207 1.366 . S
C207 C206 1.366 . S
C207 C208 1.414 . S
C207 C210 1.499 . S
C208 H182 0.950 . S
C208 C207 1.414 . S
C208 C209 1.374 . S
C209 H183 0.950 . S
C209 C205 1.385 . S
C209 C208 1.374 . S
C210 C207 1.499 . S
C210 C211 1.373 . S
C210 C212 1.389 . S
C211 H184 0.950 . S
C211 C197 1.377 . S
C211 C210 1.373 . S
C212 C196 1.377 . S
C212 C210 1.389 . S
C212 C213 1.524 . S
C213 C212 1.524 . S
C213 C214 1.397 . S
C213 C218 1.363 . S
C214 H185 0.950 . S
C214 C213 1.397 . S
C214 C215 1.334 . S
C215 H186 0.950 . S
C215 C214 1.334 . S
C215 C216 1.287 . S
C216 C215 1.287 . S
C216 C217 1.524 . S
C216 H219 0.999 . S
C217 H187 0.950 . S
C217 C216 1.524 . S
C217 C218 1.415 . S
C218 H188 0.950 . S
C218 C213 1.363 . S
C218 C217 1.415 . S
H219 C216 0.999 . S
H220 C201 0.913 . S
H221 C239 0.951 . S
H222 C241 0.951 . S
H223 C243 0.950 . S
H224 C244 0.950 . S
H225 C246 0.950 . S
H226 C249 0.950 . S
H227 C250 0.950 . S
H228 C252 0.950 . S
H229 C253 0.950 . S
H230 C254 0.951 . S
H231 C256 0.951 . S
H232 C258 0.950 . S
H233 C259 0.950 . S
H234 C261 0.950 . S
H235 C264 0.950 . S
H236 C265 0.950 . S
H237 C267 0.950 . S
H238 C268 0.950 . S
C239 H221 0.951 . S
C239 C240 1.366 . S
C239 C241 1.388 . S
C240 C239 1.366 . S
C240 C244 1.385 . S
C241 H222 0.951 . S
C241 C239 1.388 . S
C241 C242 1.366 . S
C242 C241 1.366 . S
C242 C243 1.414 . S
C242 C245 1.499 . S
C243 H223 0.950 . S
C243 C242 1.414 . S
C243 C244 1.374 . S
C244 H224 0.950 . S
C244 C240 1.385 . S
C244 C243 1.374 . S
C245 C242 1.499 . S
C245 C246 1.373 . S
C245 C247 1.389 . S
C246 H225 0.950 . S
C246 C245 1.373 . S
C246 C262 1.377 . S
C247 C245 1.389 . S
C247 C248 1.524 . S
C247 C261 1.377 . S
C248 C247 1.524 . S
C248 C249 1.397 . S
C248 C253 1.363 . S
C249 H226 0.950 . S
C249 C248 1.397 . S
C249 C250 1.334 . S
C250 H227 0.950 . S
C250 C249 1.334 . S
C250 C251 1.287 . S
C251 C250 1.287 . S
C251 C252 1.524 . S
C251 H270 0.913 . S
C252 H228 0.950 . S
C252 C251 1.524 . S
C252 C253 1.415 . S
C253 H229 0.950 . S
C253 C248 1.363 . S
C253 C252 1.415 . S
C254 H230 0.951 . S
C254 C255 1.366 . S
C254 C256 1.388 . S
C255 C254 1.366 . S
C255 C259 1.385 . S
C256 H231 0.951 . S
C256 C254 1.388 . S
C256 C257 1.366 . S
C257 C256 1.366 . S
C257 C258 1.414 . S
C257 C260 1.499 . S
C258 H232 0.950 . S
C258 C257 1.414 . S
C258 C259 1.374 . S
C259 H233 0.950 . S
C259 C255 1.385 . S
C259 C258 1.374 . S
C260 C257 1.499 . S
C260 C261 1.373 . S
C260 C262 1.389 . S
C261 H234 0.950 . S
C261 C247 1.377 . S
C261 C260 1.373 . S
C262 C246 1.377 . S
C262 C260 1.389 . S
C262 C263 1.524 . S
C263 C262 1.524 . S
C263 C264 1.397 . S
C263 C268 1.363 . S
C264 H235 0.950 . S
C264 C263 1.397 . S
C264 C265 1.334 . S
C265 H236 0.950 . S
C265 C264 1.334 . S
C265 C266 1.287 . S
C266 C265 1.287 . S
C266 C267 1.524 . S
C266 H269 0.999 . S
C267 H237 0.950 . S
C267 C266 1.524 . S
C267 C268 1.415 . S
C268 H238 0.950 . S
C268 C263 1.363 . S
C268 C267 1.415 . S
H269 C266 0.999 . S
H270 C251 0.913 . S
H271 C289 0.951 . S
H272 C291 0.951 . S
H273 C293 0.950 . S
H274 C294 0.950 . S
H275 C296 0.950 . S
H276 C299 0.950 . S
H277 C300 0.950 . S
H278 C302 0.950 . S
H279 C303 0.950 . S
H280 C304 0.951 . S
H281 C306 0.951 . S
H282 C308 0.950 . S
H283 C309 0.950 . S
H284 C311 0.950 . S
H285 C314 0.950 . S
H286 C315 0.950 . S
H287 C317 0.950 . S
H288 C318 0.950 . S
C289 H271 0.951 . S
C289 C290 1.366 . S
C289 C291 1.388 . S
C290 C289 1.366 . S
C290 C294 1.385 . S
C291 H272 0.951 . S
C291 C289 1.388 . S
C291 C292 1.366 . S
C292 C291 1.366 . S
C292 C293 1.414 . S
C292 C295 1.499 . S
C293 H273 0.950 . S
C293 C292 1.414 . S
C293 C294 1.374 . S
C294 H274 0.950 . S
C294 C290 1.385 . S
C294 C293 1.374 . S
C295 C292 1.499 . S
C295 C296 1.373 . S
C295 C297 1.389 . S
C296 H275 0.950 . S
C296 C295 1.373 . S
C296 C312 1.377 . S
C297 C295 1.389 . S
C297 C298 1.524 . S
C297 C311 1.377 . S
C298 C297 1.524 . S
C298 C299 1.397 . S
C298 C303 1.363 . S
C299 H276 0.950 . S
C299 C298 1.397 . S
C299 C300 1.334 . S
C300 H277 0.950 . S
C300 C299 1.334 . S
C300 C301 1.287 . S
C301 C300 1.287 . S
C301 C302 1.524 . S
C301 H320 0.913 . S
C302 H278 0.950 . S
C302 C301 1.524 . S
C302 C303 1.415 . S
C303 H279 0.950 . S
C303 C298 1.363 . S
C303 C302 1.415 . S
C304 H280 0.951 . S
C304 C305 1.366 . S
C304 C306 1.388 . S
C305 C304 1.366 . S
C305 C309 1.385 . S
C306 H281 0.951 . S
C306 C304 1.388 . S
C306 C307 1.366 . S
C307 C306 1.366 . S
C307 C308 1.414 . S
C307 C310 1.499 . S
C308 H282 0.950 . S
C308 C307 1.414 . S
C308 C309 1.374 . S
C309 H283 0.950 . S
C309 C305 1.385 . S
C309 C308 1.374 . S
C310 C307 1.499 . S
C310 C311 1.373 . S
C310 C312 1.389 . S
C311 H284 0.950 . S
C311 C297 1.377 . S
C311 C310 1.373 . S
C312 C296 1.377 . S
C312 C310 1.389 . S
C312 C313 1.524 . S
C313 C312 1.524 . S
C313 C314 1.397 . S
C313 C318 1.363 . S
C314 H285 0.950 . S
C314 C313 1.397 . S
C314 C315 1.334 . S
C315 H286 0.950 . S
C315 C314 1.334 . S
C315 C316 1.287 . S
C316 C315 1.287 . S
C316 C317 1.524 . S
C316 H319 0.999 . S
C317 H287 0.950 . S
C317 C316 1.524 . S
C317 C318 1.415 . S
C318 H288 0.950 . S
C318 C313 1.363 . S
C318 C317 1.415 . S
H319 C316 0.999 . S
H320 C301 0.913 . S
H321 C339 0.951 . S
H322 C341 0.951 . S
H323 C343 0.950 . S
H324 C344 0.950 . S
H325 C346 0.950 . S
H326 C349 0.950 . S
H327 C350 0.950 . S
H328 C352 0.950 . S
H329 C353 0.950 . S
H330 C354 0.951 . S
H331 C356 0.951 . S
H332 C358 0.950 . S
H333 C359 0.950 . S
H334 C361 0.950 . S
H335 C364 0.950 . S
H336 C365 0.950 . S
H337 C367 0.950 . S
H338 C368 0.950 . S
C339 H321 0.951 . S
C339 C340 1.366 . S
C339 C341 1.388 . S
C340 C339 1.366 . S
C340 C344 1.385 . S
C341 H322 0.951 . S
C341 C339 1.388 . S
C341 C342 1.366 . S
C342 C341 1.366 . S
C342 C343 1.414 . S
C342 C345 1.499 . S
C343 H323 0.950 . S
C343 C342 1.414 . S
C343 C344 1.374 . S
C344 H324 0.950 . S
C344 C340 1.385 . S
C344 C343 1.374 . S
C345 C342 1.499 . S
C345 C346 1.373 . S
C345 C347 1.389 . S
C346 H325 0.950 . S
C346 C345 1.373 . S
C346 C362 1.377 . S
C347 C345 1.389 . S
C347 C348 1.524 . S
C347 C361 1.377 . S
C348 C347 1.524 . S
C348 C349 1.397 . S
C348 C353 1.363 . S
C349 H326 0.950 . S
C349 C348 1.397 . S
C349 C350 1.334 . S
C350 H327 0.950 . S
C350 C349 1.334 . S
C350 C351 1.287 . S
C351 C350 1.287 . S
C351 C352 1.524 . S
C351 H370 0.913 . S
C352 H328 0.950 . S
C352 C351 1.524 . S
C352 C353 1.415 . S
C353 H329 0.950 . S
C353 C348 1.363 . S
C353 C352 1.415 . S
C354 H330 0.951 . S
C354 C355 1.366 . S
C354 C356 1.388 . S
C355 C354 1.366 . S
C355 C359 1.385 . S
C356 H331 0.951 . S
C356 C354 1.388 . S
C356 C357 1.366 . S
C357 C356 1.366 . S
C357 C358 1.414 . S
C357 C360 1.499 . S
C358 H332 0.950 . S
C358 C357 1.414 . S
C358 C359 1.374 . S
C359 H333 0.950 . S
C359 C355 1.385 . S
C359 C358 1.374 . S
C360 C357 1.499 . S
C360 C361 1.373 . S
C360 C362 1.389 . S
C361 H334 0.950 . S
C361 C347 1.377 . S
C361 C360 1.373 . S
C362 C346 1.377 . S
C362 C360 1.389 . S
C362 C363 1.524 . S
C363 C362 1.524 . S
C363 C364 1.397 . S
C363 C368 1.363 . S
C364 H335 0.950 . S
C364 C363 1.397 . S
C364 C365 1.334 . S
C365 H336 0.950 . S
C365 C364 1.334 . S
C365 C366 1.287 . S
C366 C365 1.287 . S
C366 C367 1.524 . S
C366 H369 0.999 . S
C367 H337 0.950 . S
C367 C366 1.524 . S
C367 C368 1.415 . S
C368 H338 0.950 . S
C368 C363 1.363 . S
C368 C367 1.415 . S
H369 C366 0.999 . S
H370 C351 0.913 . S
H371 C389 0.951 . S
H372 C391 0.951 . S
H373 C393 0.950 . S
H374 C394 0.950 . S
H375 C396 0.950 . S
H376 C399 0.950 . S
H377 C400 0.950 . S
H378 C402 0.950 . S
H379 C403 0.950 . S
H380 C404 0.951 . S
H381 C406 0.951 . S
H382 C408 0.950 . S
H383 C409 0.950 . S
H384 C411 0.950 . S
H385 C414 0.950 . S
H386 C415 0.950 . S
H387 C417 0.950 . S
H388 C418 0.950 . S
C389 H371 0.951 . S
C389 C390 1.366 . S
C389 C391 1.388 . S
C390 C389 1.366 . S
C390 C394 1.385 . S
C391 H372 0.951 . S
C391 C389 1.388 . S
C391 C392 1.366 . S
C392 C391 1.366 . S
C392 C393 1.414 . S
C392 C395 1.499 . S
C393 H373 0.950 . S
C393 C392 1.414 . S
C393 C394 1.374 . S
C394 H374 0.950 . S
C394 C390 1.385 . S
C394 C393 1.374 . S
C395 C392 1.499 . S
C395 C396 1.373 . S
C395 C397 1.389 . S
C396 H375 0.950 . S
C396 C395 1.373 . S
C396 C412 1.377 . S
C397 C395 1.389 . S
C397 C398 1.524 . S
C397 C411 1.377 . S
C398 C397 1.524 . S
C398 C399 1.397 . S
C398 C403 1.363 . S
C399 H376 0.950 . S
C399 C398 1.397 . S
C399 C400 1.334 . S
C400 H377 0.950 . S
C400 C399 1.334 . S
C400 C401 1.287 . S
C401 C400 1.287 . S
C401 C402 1.524 . S
C401 H420 0.913 . S
C402 H378 0.950 . S
C402 C401 1.524 . S
C402 C403 1.415 . S
C403 H379 0.950 . S
C403 C398 1.363 . S
C403 C402 1.415 . S
C404 H380 0.951 . S
C404 C405 1.366 . S
C404 C406 1.388 . S
C405 C404 1.366 . S
C405 C409 1.385 . S
C406 H381 0.951 . S
C406 C404 1.388 . S
C406 C407 1.366 . S
C407 C406 1.366 . S
C407 C408 1.414 . S
C407 C410 1.499 . S
C408 H382 0.950 . S
C408 C407 1.414 . S
C408 C409 1.374 . S
C409 H383 0.950 . S
C409 C405 1.385 . S
C409 C408 1.374 . S
C410 C407 1.499 . S
C410 C411 1.373 . S
C410 C412 1.389 . S
C411 H384 0.950 . S
C411 C397 1.377 . S
C411 C410 1.373 . S
C412 C396 1.377 . S
C412 C410 1.389 . S
C412 C413 1.524 . S
C413 C412 1.524 . S
C413 C414 1.397 . S
C413 C418 1.363 . S
C414 H385 0.950 . S
C414 C413 1.397 . S
C414 C415 1.334 . S
C415 H386 0.950 . S
C415 C414 1.334 . S
C415 C416 1.287 . S
C416 C415 1.287 . S
C416 C417 1.524 . S
C416 H419 0.999 . S
C417 H387 0.950 . S
C417 C416 1.524 . S
C417 C418 1.415 . S
C418 H388 0.950 . S
C418 C413 1.363 . S
C418 C417 1.415 . S
H419 C416 0.999 . S
H420 C401 0.913 . S
H421 C439 0.951 . S
H422 C441 0.951 . S
H423 C443 0.950 . S
H424 C444 0.950 . S
H425 C446 0.950 . S
H426 C449 0.950 . S
H427 C450 0.950 . S
H428 C452 0.950 . S
H429 C453 0.950 . S
H430 C454 0.951 . S
H431 C456 0.951 . S
H432 C458 0.950 . S
H433 C459 0.950 . S
H434 C461 0.950 . S
H435 C464 0.950 . S
H436 C465 0.950 . S
H437 C467 0.950 . S
H438 C468 0.950 . S
C439 H421 0.951 . S
C439 C440 1.366 . S
C439 C441 1.388 . S
C440 C439 1.366 . S
C440 C444 1.385 . S
C441 H422 0.951 . S
C441 C439 1.388 . S
C441 C442 1.366 . S
C442 C441 1.366 . S
C442 C443 1.414 . S
C442 C445 1.499 . S
C443 H423 0.950 . S
C443 C442 1.414 . S
C443 C444 1.374 . S
C444 H424 0.950 . S
C444 C440 1.385 . S
C444 C443 1.374 . S
C445 C442 1.499 . S
C445 C446 1.373 . S
C445 C447 1.389 . S
C446 H425 0.950 . S
C446 C445 1.373 . S
C446 C462 1.377 . S
C447 C445 1.389 . S
C447 C448 1.524 . S
C447 C461 1.377 . S
C448 C447 1.524 . S
C448 C449 1.397 . S
C448 C453 1.363 . S
C449 H426 0.950 . S
C449 C448 1.397 . S
C449 C450 1.334 . S
C450 H427 0.950 . S
C450 C449 1.334 . S
C450 C451 1.287 . S
C451 C450 1.287 . S
C451 C452 1.524 . S
C451 H470 0.913 . S
C452 H428 0.950 . S
C452 C451 1.524 . S
C452 C453 1.415 . S
C453 H429 0.950 . S
C453 C448 1.363 . S
C453 C452 1.415 . S
C454 H430 0.951 . S
C454 C455 1.366 . S
C454 C456 1.388 . S
C455 C454 1.366 . S
C455 C459 1.385 . S
C456 H431 0.951 . S
C456 C454 1.388 . S
C456 C457 1.366 . S
C457 C456 1.366 . S
C457 C458 1.414 . S
C457 C460 1.499 . S
C458 H432 0.950 . S
C458 C457 1.414 . S
C458 C459 1.374 . S
C459 H433 0.950 . S
C459 C455 1.385 . S
C459 C458 1.374 . S
C460 C457 1.499 . S
C460 C461 1.373 . S
C460 C462 1.389 . S
C461 H434 0.950 . S
C461 C447 1.377 . S
C461 C460 1.373 . S
C462 C446 1.377 . S
C462 C460 1.389 . S
C462 C463 1.524 . S
C463 C462 1.524 . S
C463 C464 1.397 . S
C463 C468 1.363 . S
C464 H435 0.950 . S
C464 C463 1.397 . S
C464 C465 1.334 . S
C465 H436 0.950 . S
C465 C464 1.334 . S
C465 C466 1.287 . S
C466 C465 1.287 . S
C466 C467 1.524 . S
C466 H469 0.999 . S
C467 H437 0.950 . S
C467 C466 1.524 . S
C467 C468 1.415 . S
C468 H438 0.950 . S
C468 C463 1.363 . S
C468 C467 1.415 . S
H469 C466 0.999 . S
H470 C451 0.913 . S
H471 C489 0.951 . S
H472 C491 0.951 . S
H473 C493 0.950 . S
H474 C494 0.950 . S
H475 C496 0.950 . S
H476 C499 0.950 . S
H477 C500 0.950 . S
H478 C502 0.950 . S
H479 C503 0.950 . S
H480 C504 0.951 . S
H481 C506 0.951 . S
H482 C508 0.950 . S
H483 C509 0.950 . S
H484 C511 0.950 . S
H485 C514 0.950 . S
H486 C515 0.950 . S
H487 C517 0.950 . S
H488 C518 0.950 . S
C489 H471 0.951 . S
C489 C490 1.366 . S
C489 C491 1.388 . S
C490 C489 1.366 . S
C490 C494 1.385 . S
C491 H472 0.951 . S
C491 C489 1.388 . S
C491 C492 1.366 . S
C492 C491 1.366 . S
C492 C493 1.414 . S
C492 C495 1.499 . S
C493 H473 0.950 . S
C493 C492 1.414 . S
C493 C494 1.374 . S
C494 H474 0.950 . S
C494 C490 1.385 . S
C494 C493 1.374 . S
C495 C492 1.499 . S
C495 C496 1.373 . S
C495 C497 1.389 . S
C496 H475 0.950 . S
C496 C495 1.373 . S
C496 C512 1.377 . S
C497 C495 1.389 . S
C497 C498 1.524 . S
C497 C511 1.377 . S
C498 C497 1.524 . S
C498 C499 1.397 . S
C498 C503 1.363 . S
C499 H476 0.950 . S
C499 C498 1.397 . S
C499 C500 1.334 . S
C500 H477 0.950 . S
C500 C499 1.334 . S
C500 C501 1.287 . S
C501 C500 1.287 . S
C501 C502 1.524 . S
C501 H520 0.913 . S
C502 H478 0.950 . S
C502 C501 1.524 . S
C502 C503 1.415 . S
C503 H479 0.950 . S
C503 C498 1.363 . S
C503 C502 1.415 . S
C504 H480 0.951 . S
C504 C505 1.366 . S
C504 C506 1.388 . S
C505 C504 1.366 . S
C505 C509 1.385 . S
C506 H481 0.951 . S
C506 C504 1.388 . S
C506 C507 1.366 . S
C507 C506 1.366 . S
C507 C508 1.414 . S
C507 C510 1.499 . S
C508 H482 0.950 . S
C508 C507 1.414 . S
C508 C509 1.374 . S
C509 H483 0.950 . S
C509 C505 1.385 . S
C509 C508 1.374 . S
C510 C507 1.499 . S
C510 C511 1.373 . S
C510 C512 1.389 . S
C511 H484 0.950 . S
C511 C497 1.377 . S
C511 C510 1.373 . S
C512 C496 1.377 . S
C512 C510 1.389 . S
C512 C513 1.524 . S
C513 C512 1.524 . S
C513 C514 1.397 . S
C513 C518 1.363 . S
C514 H485 0.950 . S
C514 C513 1.397 . S
C514 C515 1.334 . S
C515 H486 0.950 . S
C515 C514 1.334 . S
C515 C516 1.287 . S
C516 C515 1.287 . S
C516 C517 1.524 . S
C516 H519 0.999 . S
C517 H487 0.950 . S
C517 C516 1.524 . S
C517 C518 1.415 . S
C518 H488 0.950 . S
C518 C513 1.363 . S
C518 C517 1.415 . S
H519 C516 0.999 . S
H520 C501 0.913 . S
H521 C539 0.951 . S
H522 C541 0.951 . S
H523 C543 0.950 . S
H524 C544 0.950 . S
H525 C546 0.950 . S
H526 C549 0.950 . S
H527 C550 0.950 . S
H528 C552 0.950 . S
H529 C553 0.950 . S
H530 C554 0.951 . S
H531 C556 0.951 . S
H532 C558 0.950 . S
H533 C559 0.950 . S
H534 C561 0.950 . S
H535 C564 0.950 . S
H536 C565 0.950 . S
H537 C567 0.950 . S
H538 C568 0.950 . S
C539 H521 0.951 . S
C539 C540 1.366 . S
C539 C541 1.388 . S
C540 C539 1.366 . S
C540 C544 1.385 . S
C541 H522 0.951 . S
C541 C539 1.388 . S
C541 C542 1.366 . S
C542 C541 1.366 . S
C542 C543 1.414 . S
C542 C545 1.499 . S
C543 H523 0.950 . S
C543 C542 1.414 . S
C543 C544 1.374 . S
C544 H524 0.950 . S
C544 C540 1.385 . S
C544 C543 1.374 . S
C545 C542 1.499 . S
C545 C546 1.373 . S
C545 C547 1.389 . S
C546 H525 0.950 . S
C546 C545 1.373 . S
C546 C562 1.377 . S
C547 C545 1.389 . S
C547 C548 1.524 . S
C547 C561 1.377 . S
C548 C547 1.524 . S
C548 C549 1.397 . S
C548 C553 1.363 . S
C549 H526 0.950 . S
C549 C548 1.397 . S
C549 C550 1.334 . S
C550 H527 0.950 . S
C550 C549 1.334 . S
C550 C551 1.287 . S
C551 C550 1.287 . S
C551 C552 1.524 . S
C551 H570 0.913 . S
C552 H528 0.950 . S
C552 C551 1.524 . S
C552 C553 1.415 . S
C553 H529 0.950 . S
C553 C548 1.363 . S
C553 C552 1.415 . S
C554 H530 0.951 . S
C554 C555 1.366 . S
C554 C556 1.388 . S
C555 C554 1.366 . S
C555 C559 1.385 . S
C556 H531 0.951 . S
C556 C554 1.388 . S
C556 C557 1.366 . S
C557 C556 1.366 . S
C557 C558 1.414 . S
C557 C560 1.499 . S
C558 H532 0.950 . S
C558 C557 1.414 . S
C558 C559 1.374 . S
C559 H533 0.950 . S
C559 C555 1.385 . S
C559 C558 1.374 . S
C560 C557 1.499 . S
C560 C561 1.373 . S
C560 C562 1.389 . S
C561 H534 0.950 . S
C561 C547 1.377 . S
C561 C560 1.373 . S
C562 C546 1.377 . S
C562 C560 1.389 . S
C562 C563 1.524 . S
C563 C562 1.524 . S
C563 C564 1.397 . S
C563 C568 1.363 . S
C564 H535 0.950 . S
C564 C563 1.397 . S
C564 C565 1.334 . S
C565 H536 0.950 . S
C565 C564 1.334 . S
C565 C566 1.287 . S
C566 C565 1.287 . S
C566 C567 1.524 . S
C566 H569 0.999 . S
C567 H537 0.950 . S
C567 C566 1.524 . S
C567 C568 1.415 . S
C568 H538 0.950 . S
C568 C563 1.363 . S
C568 C567 1.415 . S
H569 C566 0.999 . S
H570 C551 0.913 . S
H571 C589 0.951 . S
H572 C591 0.951 . S
H573 C593 0.950 . S
H574 C594 0.950 . S
H575 C596 0.950 . S
H576 C599 0.950 . S
H577 C600 0.950 . S
H578 C602 0.950 . S
H579 C603 0.950 . S
H580 C604 0.951 . S
H581 C606 0.951 . S
H582 C608 0.950 . S
H583 C609 0.950 . S
H584 C611 0.950 . S
H585 C614 0.950 . S
H586 C615 0.950 . S
H587 C617 0.950 . S
H588 C618 0.950 . S
C589 H571 0.951 . S
C589 C590 1.366 . S
C589 C591 1.388 . S
C590 C589 1.366 . S
C590 C594 1.385 . S
C591 H572 0.951 . S
C591 C589 1.388 . S
C591 C592 1.366 . S
C592 C591 1.366 . S
C592 C593 1.414 . S
C592 C595 1.499 . S
C593 H573 0.950 . S
C593 C592 1.414 . S
C593 C594 1.374 . S
C594 H574 0.950 . S
C594 C590 1.385 . S
C594 C593 1.374 . S
C595 C592 1.499 . S
C595 C596 1.373 . S
C595 C597 1.389 . S
C596 H575 0.950 . S
C596 C595 1.373 . S
C596 C612 1.377 . S
C597 C595 1.389 . S
C597 C598 1.524 . S
C597 C611 1.377 . S
C598 C597 1.524 . S
C598 C599 1.397 . S
C598 C603 1.363 . S
C599 H576 0.950 . S
C599 C598 1.397 . S
C599 C600 1.334 . S
C600 H577 0.950 . S
C600 C599 1.334 . S
C600 C601 1.287 . S
C601 C600 1.287 . S
C601 C602 1.524 . S
C601 H620 0.913 . S
C602 H578 0.950 . S
C602 C601 1.524 . S
C602 C603 1.415 . S
C603 H579 0.950 . S
C603 C598 1.363 . S
C603 C602 1.415 . S
C604 H580 0.951 . S
C604 C605 1.366 . S
C604 C606 1.388 . S
C605 C604 1.366 . S
C605 C609 1.385 . S
C606 H581 0.951 . S
C606 C604 1.388 . S
C606 C607 1.366 . S
C607 C606 1.366 . S
C607 C608 1.414 . S
C607 C610 1.499 . S
C608 H582 0.950 . S
C608 C607 1.414 . S
C608 C609 1.374 . S
C609 H583 0.950 . S
C609 C605 1.385 . S
C609 C608 1.374 . S
C610 C607 1.499 . S
C610 C611 1.373 . S
C610 C612 1.389 . S
C611 H584 0.950 . S
C611 C597 1.377 . S
C611 C610 1.373 . S
C612 C596 1.377 . S
C612 C610 1.389 . S
C612 C613 1.524 . S
C613 C612 1.524 . S
C613 C614 1.397 . S
C613 C618 1.363 . S
C614 H585 0.950 . S
C614 C613 1.397 . S
C614 C615 1.334 . S
C615 H586 0.950 . S
C615 C614 1.334 . S
C615 C616 1.287 . S
C616 C615 1.287 . S
C616 C617 1.524 . S
C616 H619 0.999 . S
C617 H587 0.950 . S
C617 C616 1.524 . S
C617 C618 1.415 . S
C618 H588 0.950 . S
C618 C613 1.363 . S
C618 C617 1.415 . S
H619 C616 0.999 . S
H620 C601 0.913 . S
H621 C639 0.951 . S
H622 C641 0.951 . S
H623 C643 0.950 . S
H624 C644 0.950 . S
H625 C646 0.950 . S
H626 C649 0.950 . S
H627 C650 0.950 . S
H628 C652 0.950 . S
H629 C653 0.950 . S
H630 C654 0.951 . S
H631 C656 0.951 . S
H632 C658 0.950 . S
H633 C659 0.950 . S
H634 C661 0.950 . S
H635 C664 0.950 . S
H636 C665 0.950 . S
H637 C667 0.950 . S
H638 C668 0.950 . S
C639 H621 0.951 . S
C639 C640 1.366 . S
C639 C641 1.388 . S
C640 C639 1.366 . S
C640 C644 1.385 . S
C641 H622 0.951 . S
C641 C639 1.388 . S
C641 C642 1.366 . S
C642 C641 1.366 . S
C642 C643 1.414 . S
C642 C645 1.499 . S
C643 H623 0.950 . S
C643 C642 1.414 . S
C643 C644 1.374 . S
C644 H624 0.950 . S
C644 C640 1.385 . S
C644 C643 1.374 . S
C645 C642 1.499 . S
C645 C646 1.373 . S
C645 C647 1.389 . S
C646 H625 0.950 . S
C646 C645 1.373 . S
C646 C662 1.377 . S
C647 C645 1.389 . S
C647 C648 1.524 . S
C647 C661 1.377 . S
C648 C647 1.524 . S
C648 C649 1.397 . S
C648 C653 1.363 . S
C649 H626 0.950 . S
C649 C648 1.397 . S
C649 C650 1.334 . S
C650 H627 0.950 . S
C650 C649 1.334 . S
C650 C651 1.287 . S
C651 C650 1.287 . S
C651 C652 1.524 . S
C651 H670 0.913 . S
C652 H628 0.950 . S
C652 C651 1.524 . S
C652 C653 1.415 . S
C653 H629 0.950 . S
C653 C648 1.363 . S
C653 C652 1.415 . S
C654 H630 0.951 . S
C654 C655 1.366 . S
C654 C656 1.388 . S
C655 C654 1.366 . S
C655 C659 1.385 . S
C656 H631 0.951 . S
C656 C654 1.388 . S
C656 C657 1.366 . S
C657 C656 1.366 . S
C657 C658 1.414 . S
C657 C660 1.499 . S
C658 H632 0.950 . S
C658 C657 1.414 . S
C658 C659 1.374 . S
C659 H633 0.950 . S
C659 C655 1.385 . S
C659 C658 1.374 . S
C660 C657 1.499 . S
C660 C661 1.373 . S
C660 C662 1.389 . S
C661 H634 0.950 . S
C661 C647 1.377 . S
C661 C660 1.373 . S
C662 C646 1.377 . S
C662 C660 1.389 . S
C662 C663 1.524 . S
C663 C662 1.524 . S
C663 C664 1.397 . S
C663 C668 1.363 . S
C664 H635 0.950 . S
C664 C663 1.397 . S
C664 C665 1.334 . S
C665 H636 0.950 . S
C665 C664 1.334 . S
C665 C666 1.287 . S
C666 C665 1.287 . S
C666 C667 1.524 . S
C666 H669 0.999 . S
C667 H637 0.950 . S
C667 C666 1.524 . S
C667 C668 1.415 . S
C668 H638 0.950 . S
C668 C663 1.363 . S
C668 C667 1.415 . S
H669 C666 0.999 . S
H670 C651 0.913 . S
H671 C689 0.951 . S
H672 C691 0.951 . S
H673 C693 0.950 . S
H674 C694 0.950 . S
H675 C696 0.950 . S
H676 C699 0.950 . S
H677 C700 0.950 . S
H678 C702 0.950 . S
H679 C703 0.950 . S
H680 C704 0.951 . S
H681 C706 0.951 . S
H682 C708 0.950 . S
H683 C709 0.950 . S
H684 C711 0.950 . S
H685 C714 0.950 . S
H686 C715 0.950 . S
H687 C717 0.950 . S
H688 C718 0.950 . S
C689 H671 0.951 . S
C689 C690 1.366 . S
C689 C691 1.388 . S
C690 C689 1.366 . S
C690 C694 1.385 . S
C691 H672 0.951 . S
C691 C689 1.388 . S
C691 C692 1.366 . S
C692 C691 1.366 . S
C692 C693 1.414 . S
C692 C695 1.499 . S
C693 H673 0.950 . S
C693 C692 1.414 . S
C693 C694 1.374 . S
C694 H674 0.950 . S
C694 C690 1.385 . S
C694 C693 1.374 . S
C695 C692 1.499 . S
C695 C696 1.373 . S
C695 C697 1.389 . S
C696 H675 0.950 . S
C696 C695 1.373 . S
C696 C712 1.377 . S
C697 C695 1.389 . S
C697 C698 1.524 . S
C697 C711 1.377 . S
C698 C697 1.524 . S
C698 C699 1.397 . S
C698 C703 1.363 . S
C699 H676 0.950 . S
C699 C698 1.397 . S
C699 C700 1.334 . S
C700 H677 0.950 . S
C700 C699 1.334 . S
C700 C701 1.287 . S
C701 C700 1.287 . S
C701 C702 1.524 . S
C701 H720 0.913 . S
C702 H678 0.950 . S
C702 C701 1.524 . S
C702 C703 1.415 . S
C703 H679 0.950 . S
C703 C698 1.363 . S
C703 C702 1.415 . S
C704 H680 0.951 . S
C704 C705 1.366 . S
C704 C706 1.388 . S
C705 C704 1.366 . S
C705 C709 1.385 . S
C706 H681 0.951 . S
C706 C704 1.388 . S
C706 C707 1.366 . S
C707 C706 1.366 . S
C707 C708 1.414 . S
C707 C710 1.499 . S
C708 H682 0.950 . S
C708 C707 1.414 . S
C708 C709 1.374 . S
C709 H683 0.950 . S
C709 C705 1.385 . S
C709 C708 1.374 . S
C710 C707 1.499 . S
C710 C711 1.373 . S
C710 C712 1.389 . S
C711 H684 0.950 . S
C711 C697 1.377 . S
C711 C710 1.373 . S
C712 C696 1.377 . S
C712 C710 1.389 . S
C712 C713 1.524 . S
C713 C712 1.524 . S
C713 C714 1.397 . S
C713 C718 1.363 . S
C714 H685 0.950 . S
C714 C713 1.397 . S
C714 C715 1.334 . S
C715 H686 0.950 . S
C715 C714 1.334 . S
C715 C716 1.287 . S
C716 C715 1.287 . S
C716 C717 1.524 . S
C716 H719 0.999 . S
C717 H687 0.950 . S
C717 C716 1.524 . S
C717 C718 1.415 . S
C718 H688 0.950 . S
C718 C713 1.363 . S
C718 C717 1.415 . S
H719 C716 0.999 . S
H720 C701 0.913 . S
H721 C739 0.951 . S
H722 C741 0.951 . S
H723 C743 0.950 . S
H724 C744 0.950 . S
H725 C746 0.950 . S
H726 C749 0.950 . S
H727 C750 0.950 . S
H728 C752 0.950 . S
H729 C753 0.950 . S
H730 C754 0.951 . S
H731 C756 0.951 . S
H732 C758 0.950 . S
H733 C759 0.950 . S
H734 C761 0.950 . S
H735 C764 0.950 . S
H736 C765 0.950 . S
H737 C767 0.950 . S
H738 C768 0.950 . S
C739 H721 0.951 . S
C739 C740 1.366 . S
C739 C741 1.388 . S
C740 C739 1.366 . S
C740 C744 1.385 . S
C741 H722 0.951 . S
C741 C739 1.388 . S
C741 C742 1.366 . S
C742 C741 1.366 . S
C742 C743 1.414 . S
C742 C745 1.499 . S
C743 H723 0.950 . S
C743 C742 1.414 . S
C743 C744 1.374 . S
C744 H724 0.950 . S
C744 C740 1.385 . S
C744 C743 1.374 . S
C745 C742 1.499 . S
C745 C746 1.373 . S
C745 C747 1.389 . S
C746 H725 0.950 . S
C746 C745 1.373 . S
C746 C762 1.377 . S
C747 C745 1.389 . S
C747 C748 1.524 . S
C747 C761 1.377 . S
C748 C747 1.524 . S
C748 C749 1.397 . S
C748 C753 1.363 . S
C749 H726 0.950 . S
C749 C748 1.397 . S
C749 C750 1.334 . S
C750 H727 0.950 . S
C750 C749 1.334 . S
C750 C751 1.287 . S
C751 C750 1.287 . S
C751 C752 1.524 . S
C751 H770 0.913 . S
C752 H728 0.950 . S
C752 C751 1.524 . S
C752 C753 1.415 . S
C753 H729 0.950 . S
C753 C748 1.363 . S
C753 C752 1.415 . S
C754 H730 0.951 . S
C754 C755 1.366 . S
C754 C756 1.388 . S
C755 C754 1.366 . S
C755 C759 1.385 . S
C756 H731 0.951 . S
C756 C754 1.388 . S
C756 C757 1.366 . S
C757 C756 1.366 . S
C757 C758 1.414 . S
C757 C760 1.499 . S
C758 H732 0.950 . S
C758 C757 1.414 . S
C758 C759 1.374 . S
C759 H733 0.950 . S
C759 C755 1.385 . S
C759 C758 1.374 . S
C760 C757 1.499 . S
C760 C761 1.373 . S
C760 C762 1.389 . S
C761 H734 0.950 . S
C761 C747 1.377 . S
C761 C760 1.373 . S
C762 C746 1.377 . S
C762 C760 1.389 . S
C762 C763 1.524 . S
C763 C762 1.524 . S
C763 C764 1.397 . S
C763 C768 1.363 . S
C764 H735 0.950 . S
C764 C763 1.397 . S
C764 C765 1.334 . S
C765 H736 0.950 . S
C765 C764 1.334 . S
C765 C766 1.287 . S
C766 C765 1.287 . S
C766 C767 1.524 . S
C766 H769 0.999 . S
C767 H737 0.950 . S
C767 C766 1.524 . S
C767 C768 1.415 . S
C768 H738 0.950 . S
C768 C763 1.363 . S
C768 C767 1.415 . S
H769 C766 0.999 . S
H770 C751 0.913 . S
H771 C789 0.951 . S
H772 C791 0.951 . S
H773 C793 0.950 . S
H774 C794 0.950 . S
H775 C796 0.950 . S
H776 C799 0.950 . S
H777 C800 0.950 . S
H778 C802 0.950 . S
H779 C803 0.950 . S
H780 C804 0.951 . S
H781 C806 0.951 . S
H782 C808 0.950 . S
H783 C809 0.950 . S
H784 C811 0.950 . S
H785 C814 0.950 . S
H786 C815 0.950 . S
H787 C817 0.950 . S
H788 C818 0.950 . S
C789 H771 0.951 . S
C789 C790 1.366 . S
C789 C791 1.388 . S
C790 C789 1.366 . S
C790 C794 1.385 . S
C791 H772 0.951 . S
C791 C789 1.388 . S
C791 C792 1.366 . S
C792 C791 1.366 . S
C792 C793 1.414 . S
C792 C795 1.499 . S
C793 H773 0.950 . S
C793 C792 1.414 . S
C793 C794 1.374 . S
C794 H774 0.950 . S
C794 C790 1.385 . S
C794 C793 1.374 . S
C795 C792 1.499 . S
C795 C796 1.373 . S
C795 C797 1.389 . S
C796 H775 0.950 . S
C796 C795 1.373 . S
C796 C812 1.377 . S
C797 C795 1.389 . S
C797 C798 1.524 . S
C797 C811 1.377 . S
C798 C797 1.524 . S
C798 C799 1.397 . S
C798 C803 1.363 . S
C799 H776 0.950 . S
C799 C798 1.397 . S
C799 C800 1.334 . S
C800 H777 0.950 . S
C800 C799 1.334 . S
C800 C801 1.287 . S
C801 C800 1.287 . S
C801 C802 1.524 . S
C801 H820 0.913 . S
C802 H778 0.950 . S
C802 C801 1.524 . S
C802 C803 1.415 . S
C803 H779 0.950 . S
C803 C798 1.363 . S
C803 C802 1.415 . S
C804 H780 0.951 . S
C804 C805 1.366 . S
C804 C806 1.388 . S
C805 C804 1.366 . S
C805 C809 1.385 . S
C806 H781 0.951 . S
C806 C804 1.388 . S
C806 C807 1.366 . S
C807 C806 1.366 . S
C807 C808 1.414 . S
C807 C810 1.499 . S
C808 H782 0.950 . S
C808 C807 1.414 . S
C808 C809 1.374 . S
C809 H783 0.950 . S
C809 C805 1.385 . S
C809 C808 1.374 . S
C810 C807 1.499 . S
C810 C811 1.373 . S
C810 C812 1.389 . S
C811 H784 0.950 . S
C811 C797 1.377 . S
C811 C810 1.373 . S
C812 C796 1.377 . S
C812 C810 1.389 . S
C812 C813 1.524 . S
C813 C812 1.524 . S
C813 C814 1.397 . S
C813 C818 1.363 . S
C814 H785 0.950 . S
C814 C813 1.397 . S
C814 C815 1.334 . S
C815 H786 0.950 . S
C815 C814 1.334 . S
C815 C816 1.287 . S
C816 C815 1.287 . S
C816 C817 1.524 . S
C816 H819 0.999 . S
C817 H787 0.950 . S
C817 C816 1.524 . S
C817 C818 1.415 . S
C818 H788 0.950 . S
C818 C813 1.363 . S
C818 C817 1.415 . S
H819 C816 0.999 . S
H820 C801 0.913 . S
H821 C839 0.951 . S
H822 C841 0.951 . S
H823 C843 0.950 . S
H824 C844 0.950 . S
H825 C846 0.950 . S
H826 C849 0.950 . S
H827 C850 0.950 . S
H828 C852 0.950 . S
H829 C853 0.950 . S
H830 C854 0.951 . S
H831 C856 0.951 . S
H832 C858 0.950 . S
H833 C859 0.950 . S
H834 C861 0.950 . S
H835 C864 0.950 . S
H836 C865 0.950 . S
H837 C867 0.950 . S
H838 C868 0.950 . S
C839 H821 0.951 . S
C839 C840 1.366 . S
C839 C841 1.388 . S
C840 C839 1.366 . S
C840 C844 1.385 . S
C841 H822 0.951 . S
C841 C839 1.388 . S
C841 C842 1.366 . S
C842 C841 1.366 . S
C842 C843 1.414 . S
C842 C845 1.499 . S
C843 H823 0.950 . S
C843 C842 1.414 . S
C843 C844 1.374 . S
C844 H824 0.950 . S
C844 C840 1.385 . S
C844 C843 1.374 . S
C845 C842 1.499 . S
C845 C846 1.373 . S
C845 C847 1.389 . S
C846 H825 0.950 . S
C846 C845 1.373 . S
C846 C862 1.377 . S
C847 C845 1.389 . S
C847 C848 1.524 . S
C847 C861 1.377 . S
C848 C847 1.524 . S
C848 C849 1.397 . S
C848 C853 1.363 . S
C849 H826 0.950 . S
C849 C848 1.397 . S
C849 C850 1.334 . S
C850 H827 0.950 . S
C850 C849 1.334 . S
C850 C851 1.287 . S
C851 C850 1.287 . S
C851 C852 1.524 . S
C851 H870 0.913 . S
C852 H828 0.950 . S
C852 C851 1.524 . S
C852 C853 1.415 . S
C853 H829 0.950 . S
C853 C848 1.363 . S
C853 C852 1.415 . S
C854 H830 0.951 . S
C854 C855 1.366 . S
C854 C856 1.388 . S
C855 C854 1.366 . S
C855 C859 1.385 . S
C856 H831 0.951 . S
C856 C854 1.388 . S
C856 C857 1.366 . S
C857 C856 1.366 . S
C857 C858 1.414 . S
C857 C860 1.499 . S
C858 H832 0.950 . S
C858 C857 1.414 . S
C858 C859 1.374 . S
C859 H833 0.950 . S
C859 C855 1.385 . S
C859 C858 1.374 . S
C860 C857 1.499 . S
C860 C861 1.373 . S
C860 C862 1.389 . S
C861 H834 0.950 . S
C861 C847 1.377 . S
C861 C860 1.373 . S
C862 C846 1.377 . S
C862 C860 1.389 . S
C862 C863 1.524 . S
C863 C862 1.524 . S
C863 C864 1.397 . S
C863 C868 1.363 . S
C864 H835 0.950 . S
C864 C863 1.397 . S
C864 C865 1.334 . S
C865 H836 0.950 . S
C865 C864 1.334 . S
C865 C866 1.287 . S
C866 C865 1.287 . S
C866 C867 1.524 . S
C866 H869 0.999 . S
C867 H837 0.950 . S
C867 C866 1.524 . S
C867 C868 1.415 . S
C868 H838 0.950 . S
C868 C863 1.363 . S
C868 C867 1.415 . S
H869 C866 0.999 . S
H870 C851 0.913 . S
H871 C889 0.951 . S
H872 C891 0.951 . S
H873 C893 0.950 . S
H874 C894 0.950 . S
H875 C896 0.950 . S
H876 C899 0.950 . S
H877 C900 0.950 . S
H878 C902 0.950 . S
H879 C903 0.950 . S
H880 C904 0.951 . S
H881 C906 0.951 . S
H882 C908 0.950 . S
H883 C909 0.950 . S
H884 C911 0.950 . S
H885 C914 0.950 . S
H886 C915 0.950 . S
H887 C917 0.950 . S
H888 C918 0.950 . S
C889 H871 0.951 . S
C889 C890 1.366 . S
C889 C891 1.388 . S
C890 C889 1.366 . S
C890 C894 1.385 . S
C891 H872 0.951 . S
C891 C889 1.388 . S
C891 C892 1.366 . S
C892 C891 1.366 . S
C892 C893 1.414 . S
C892 C895 1.499 . S
C893 H873 0.950 . S
C893 C892 1.414 . S
C893 C894 1.374 . S
C894 H874 0.950 . S
C894 C890 1.385 . S
C894 C893 1.374 . S
C895 C892 1.499 . S
C895 C896 1.373 . S
C895 C897 1.389 . S
C896 H875 0.950 . S
C896 C895 1.373 . S
C896 C912 1.377 . S
C897 C895 1.389 . S
C897 C898 1.524 . S
C897 C911 1.377 . S
C898 C897 1.524 . S
C898 C899 1.397 . S
C898 C903 1.363 . S
C899 H876 0.950 . S
C899 C898 1.397 . S
C899 C900 1.334 . S
C900 H877 0.950 . S
C900 C899 1.334 . S
C900 C901 1.287 . S
C901 C900 1.287 . S
C901 C902 1.524 . S
C901 H920 0.913 . S
C902 H878 0.950 . S
C902 C901 1.524 . S
C902 C903 1.415 . S
C903 H879 0.950 . S
C903 C898 1.363 . S
C903 C902 1.415 . S
C904 H880 0.951 . S
C904 C905 1.366 . S
C904 C906 1.388 . S
C905 C904 1.366 . S
C905 C909 1.385 . S
C906 H881 0.951 . S
C906 C904 1.388 . S
C906 C907 1.366 . S
C907 C906 1.366 . S
C907 C908 1.414 . S
C907 C910 1.499 . S
C908 H882 0.950 . S
C908 C907 1.414 . S
C908 C909 1.374 . S
C909 H883 0.950 . S
C909 C905 1.385 . S
C909 C908 1.374 . S
C910 C907 1.499 . S
C910 C911 1.373 . S
C910 C912 1.389 . S
C911 H884 0.950 . S
C911 C897 1.377 . S
C911 C910 1.373 . S
C912 C896 1.377 . S
C912 C910 1.389 . S
C912 C913 1.524 . S
C913 C912 1.524 . S
C913 C914 1.397 . S
C913 C918 1.363 . S
C914 H885 0.950 . S
C914 C913 1.397 . S
C914 C915 1.334 . S
C915 H886 0.950 . S
C915 C914 1.334 . S
C915 C916 1.287 . S
C916 C915 1.287 . S
C916 C917 1.524 . S
C916 H919 0.999 . S
C917 H887 0.950 . S
C917 C916 1.524 . S
C917 C918 1.415 . S
C918 H888 0.950 . S
C918 C913 1.363 . S
C918 C917 1.415 . S
H919 C916 0.999 . S
H920 C901 0.913 . S
H921 C939 0.951 . S
H922 C941 0.951 . S
H923 C943 0.950 . S
H924 C944 0.950 . S
H925 C946 0.950 . S
H926 C949 0.950 . S
H927 C950 0.950 . S
H928 C952 0.950 . S
H929 C953 0.950 . S
H930 C954 0.951 . S
H931 C956 0.951 . S
H932 C958 0.950 . S
H933 C959 0.950 . S
H934 C961 0.950 . S
H935 C964 0.950 . S
H936 C965 0.950 . S
H937 C967 0.950 . S
H938 C968 0.950 . S
C939 H921 0.951 . S
C939 C940 1.366 . S
C939 C941 1.388 . S
C940 C939 1.366 . S
C940 C944 1.385 . S
C941 H922 0.951 . S
C941 C939 1.388 . S
C941 C942 1.366 . S
C942 C941 1.366 . S
C942 C943 1.414 . S
C942 C945 1.499 . S
C943 H923 0.950 . S
C943 C942 1.414 . S
C943 C944 1.374 . S
C944 H924 0.950 . S
C944 C940 1.385 . S
C944 C943 1.374 . S
C945 C942 1.499 . S
C945 C946 1.373 . S
C945 C947 1.389 . S
C946 H925 0.950 . S
C946 C945 1.373 . S
C946 C962 1.377 . S
C947 C945 1.389 . S
C947 C948 1.524 . S
C947 C961 1.377 . S
C948 C947 1.524 . S
C948 C949 1.397 . S
C948 C953 1.363 . S
C949 H926 0.950 . S
C949 C948 1.397 . S
C949 C950 1.334 . S
C950 H927 0.950 . S
C950 C949 1.334 . S
C950 C951 1.287 . S
C951 C950 1.287 . S
C951 C952 1.524 . S
C951 H970 0.913 . S
C952 H928 0.950 . S
C952 C951 1.524 . S
C952 C953 1.415 . S
C953 H929 0.950 . S
C953 C948 1.363 . S
C953 C952 1.415 . S
C954 H930 0.951 . S
C954 C955 1.366 . S
C954 C956 1.388 . S
C955 C954 1.366 . S
C955 C959 1.385 . S
C956 H931 0.951 . S
C956 C954 1.388 . S
C956 C957 1.366 . S
C957 C956 1.366 . S
C957 C958 1.414 . S
C957 C960 1.499 . S
C958 H932 0.950 . S
C958 C957 1.414 . S
C958 C959 1.374 . S
C959 H933 0.950 . S
C959 C955 1.385 . S
C959 C958 1.374 . S
C960 C957 1.499 . S
C960 C961 1.373 . S
C960 C962 1.389 . S
C961 H934 0.950 . S
C961 C947 1.377 . S
C961 C960 1.373 . S
C962 C946 1.377 . S
C962 C960 1.389 . S
C962 C963 1.524 . S
C963 C962 1.524 . S
C963 C964 1.397 . S
C963 C968 1.363 . S
C964 H935 0.950 . S
C964 C963 1.397 . S
C964 C965 1.334 . S
C965 H936 0.950 . S
C965 C964 1.334 . S
C965 C966 1.287 . S
C966 C965 1.287 . S
C966 C967 1.524 . S
C966 H969 0.999 . S
C967 H937 0.950 . S
C967 C966 1.524 . S
C967 C968 1.415 . S
C968 H938 0.950 . S
C968 C963 1.363 . S
C968 C967 1.415 . S
H969 C966 0.999 . S
H970 C951 0.913 . S
H971 C989 0.951 . S
H972 C991 0.951 . S
H973 C993 0.950 . S
H974 C994 0.950 . S
H975 C996 0.950 . S
H976 C999 0.950 . S
H977 C1000 0.950 . S
H978 C1002 0.950 . S
H979 C1003 0.950 . S
H980 C1004 0.951 . S
H981 C1006 0.951 . S
H982 C1008 0.950 . S
H983 C1009 0.950 . S
H984 C1011 0.950 . S
H985 C1014 0.950 . S
H986 C1015 0.950 . S
H987 C1017 0.950 . S
H988 C1018 0.950 . S
C989 H971 0.951 . S
C989 C990 1.366 . S
C989 C991 1.388 . S
C990 C989 1.366 . S
C990 C994 1.385 . S
C991 H972 0.951 . S
C991 C989 1.388 . S
C991 C992 1.366 . S
C992 C991 1.366 . S
C992 C993 1.414 . S
C992 C995 1.499 . S
C993 H973 0.950 . S
C993 C992 1.414 . S
C993 C994 1.374 . S
C994 H974 0.950 . S
C994 C990 1.385 . S
C994 C993 1.374 . S
C995 C992 1.499 . S
C995 C996 1.373 . S
C995 C997 1.389 . S
C996 H975 0.950 . S
C996 C995 1.373 . S
C996 C1012 1.377 . S
C997 C995 1.389 . S
C997 C998 1.524 . S
C997 C1011 1.377 . S
C998 C997 1.524 . S
C998 C999 1.397 . S
C998 C1003 1.363 . S
C999 H976 0.950 . S
C999 C998 1.397 . S
C999 C1000 1.334 . S
C1000 H977 0.950 . S
C1000 C999 1.334 . S
C1000 C1001 1.287 . S
C1001 C1000 1.287 . S
C1001 C1002 1.524 . S
C1001 H1020 0.913 . S
C1002 H978 0.950 . S
C1002 C1001 1.524 . S
C1002 C1003 1.415 . S
C1003 H979 0.950 . S
C1003 C998 1.363 . S
C1003 C1002 1.415 . S
C1004 H980 0.951 . S
C1004 C1005 1.366 . S
C1004 C1006 1.388 . S
C1005 C1004 1.366 . S
C1005 C1009 1.385 . S
C1006 H981 0.951 . S
C1006 C1004 1.388 . S
C1006 C1007 1.366 . S
C1007 C1006 1.366 . S
C1007 C1008 1.414 . S
C1007 C1010 1.499 . S
C1008 H982 0.950 . S
C1008 C1007 1.414 . S
C1008 C1009 1.374 . S
C1009 H983 0.950 . S
C1009 C1005 1.385 . S
C1009 C1008 1.374 . S
C1010 C1007 1.499 . S
C1010 C1011 1.373 . S
C1010 C1012 1.389 . S
C1011 H984 0.950 . S
C1011 C997 1.377 . S
C1011 C1010 1.373 . S
C1012 C996 1.377 . S
C1012 C1010 1.389 . S
C1012 C1013 1.524 . S
C1013 C1012 1.524 . S
C1013 C1014 1.397 . S
C1013 C1018 1.363 . S
C1014 H985 0.950 . S
C1014 C1013 1.397 . S
C1014 C1015 1.334 . S
C1015 H986 0.950 . S
C1015 C1014 1.334 . S
C1015 C1016 1.287 . S
C1016 C1015 1.287 . S
C1016 C1017 1.524 . S
C1016 H1019 0.999 . S
C1017 H987 0.950 . S
C1017 C1016 1.524 . S
C1017 C1018 1.415 . S
C1018 H988 0.950 . S
C1018 C1013 1.363 . S
C1018 C1017 1.415 . S
H1019 C1016 0.999 . S
H1020 C1001 0.913 . S
H1021 C1039 0.951 . S
H1022 C1041 0.951 . S
H1023 C1043 0.950 . S
H1024 C1044 0.950 . S
H1025 C1046 0.950 . S
H1026 C1049 0.950 . S
H1027 C1050 0.950 . S
H1028 C1052 0.950 . S
H1029 C1053 0.950 . S
H1030 C1054 0.951 . S
H1031 C1056 0.951 . S
H1032 C1058 0.950 . S
H1033 C1059 0.950 . S
H1034 C1061 0.950 . S
H1035 C1064 0.950 . S
H1036 C1065 0.950 . S
H1037 C1067 0.950 . S
H1038 C1068 0.950 . S
C1039 H1021 0.951 . S
C1039 C1040 1.366 . S
C1039 C1041 1.388 . S
C1040 C1039 1.366 . S
C1040 C1044 1.385 . S
C1041 H1022 0.951 . S
C1041 C1039 1.388 . S
C1041 C1042 1.366 . S
C1042 C1041 1.366 . S
C1042 C1043 1.414 . S
C1042 C1045 1.499 . S
C1043 H1023 0.950 . S
C1043 C1042 1.414 . S
C1043 C1044 1.374 . S
C1044 H1024 0.950 . S
C1044 C1040 1.385 . S
C1044 C1043 1.374 . S
C1045 C1042 1.499 . S
C1045 C1046 1.373 . S
C1045 C1047 1.389 . S
C1046 H1025 0.950 . S
C1046 C1045 1.373 . S
C1046 C1062 1.377 . S
C1047 C1045 1.389 . S
C1047 C1048 1.524 . S
C1047 C1061 1.377 . S
C1048 C1047 1.524 . S
C1048 C1049 1.397 . S
C1048 C1053 1.363 . S
C1049 H1026 0.950 . S
C1049 C1048 1.397 . S
C1049 C1050 1.334 . S
C1050 H1027 0.950 . S
C1050 C1049 1.334 . S
C1050 C1051 1.287 . S
C1051 C1050 1.287 . S
C1051 C1052 1.524 . S
C1051 H1070 0.913 . S
C1052 H1028 0.950 . S
C1052 C1051 1.524 . S
C1052 C1053 1.415 . S
C1053 H1029 0.950 . S
C1053 C1048 1.363 . S
C1053 C1052 1.415 . S
C1054 H1030 0.951 . S
C1054 C1055 1.366 . S
C1054 C1056 1.388 . S
C1055 C1054 1.366 . S
C1055 C1059 1.385 . S
C1056 H1031 0.951 . S
C1056 C1054 1.388 . S
C1056 C1057 1.366 . S
C1057 C1056 1.366 . S
C1057 C1058 1.414 . S
C1057 C1060 1.499 . S
C1058 H1032 0.950 . S
C1058 C1057 1.414 . S
C1058 C1059 1.374 . S
C1059 H1033 0.950 . S
C1059 C1055 1.385 . S
C1059 C1058 1.374 . S
C1060 C1057 1.499 . S
C1060 C1061 1.373 . S
C1060 C1062 1.389 . S
C1061 H1034 0.950 . S
C1061 C1047 1.377 . S
C1061 C1060 1.373 . S
C1062 C1046 1.377 . S
C1062 C1060 1.389 . S
C1062 C1063 1.524 . S
C1063 C1062 1.524 . S
C1063 C1064 1.397 . S
C1063 C1068 1.363 . S
C1064 H1035 0.950 . S
C1064 C1063 1.397 . S
C1064 C1065 1.334 . S
C1065 H1036 0.950 . S
C1065 C1064 1.334 . S
C1065 C1066 1.287 . S
C1066 C1065 1.287 . S
C1066 C1067 1.524 . S
C1066 H1069 0.999 . S
C1067 H1037 0.950 . S
C1067 C1066 1.524 . S
C1067 C1068 1.415 . S
C1068 H1038 0.950 . S
C1068 C1063 1.363 . S
C1068 C1067 1.415 . S
H1069 C1066 0.999 . S
H1070 C1051 0.913 . S
H1071 C1089 0.951 . S
H1072 C1091 0.951 . S
H1073 C1093 0.950 . S
H1074 C1094 0.950 . S
H1075 C1096 0.950 . S
H1076 C1099 0.950 . S
H1077 C1100 0.950 . S
H1078 C1102 0.950 . S
H1079 C1103 0.950 . S
H1080 C1104 0.951 . S
H1081 C1106 0.951 . S
H1082 C1108 0.950 . S
H1083 C1109 0.950 . S
H1084 C1111 0.950 . S
H1085 C1114 0.950 . S
H1086 C1115 0.950 . S
H1087 C1117 0.950 . S
H1088 C1118 0.950 . S
C1089 H1071 0.951 . S
C1089 C1090 1.366 . S
C1089 C1091 1.388 . S
C1090 C1089 1.366 . S
C1090 C1094 1.385 . S
C1091 H1072 0.951 . S
C1091 C1089 1.388 . S
C1091 C1092 1.366 . S
C1092 C1091 1.366 . S
C1092 C1093 1.414 . S
C1092 C1095 1.499 . S
C1093 H1073 0.950 . S
C1093 C1092 1.414 . S
C1093 C1094 1.374 . S
C1094 H1074 0.950 . S
C1094 C1090 1.385 . S
C1094 C1093 1.374 . S
C1095 C1092 1.499 . S
C1095 C1096 1.373 . S
C1095 C1097 1.389 . S
C1096 H1075 0.950 . S
C1096 C1095 1.373 . S
C1096 C1112 1.377 . S
C1097 C1095 1.389 . S
C1097 C1098 1.524 . S
C1097 C1111 1.377 . S
C1098 C1097 1.524 . S
C1098 C1099 1.397 . S
C1098 C1103 1.363 . S
C1099 H1076 0.950 . S
C1099 C1098 1.397 . S
C1099 C1100 1.334 . S
C1100 H1077 0.950 . S
C1100 C1099 1.334 . S
C1100 C1101 1.287 . S
C1101 C1100 1.287 . S
C1101 C1102 1.524 . S
C1101 H1120 0.913 . S
C1102 H1078 0.950 . S
C1102 C1101 1.524 . S
C1102 C1103 1.415 . S
C1103 H1079 0.950 . S
C1103 C1098 1.363 . S
C1103 C1102 1.415 . S
C1104 H1080 0.951 . S
C1104 C1105 1.366 . S
C1104 C1106 1.388 . S
C1105 C1104 1.366 . S
C1105 C1109 1.385 . S
C1106 H1081 0.951 . S
C1106 C1104 1.388 . S
C1106 C1107 1.366 . S
C1107 C1106 1.366 . S
C1107 C1108 1.414 . S
C1107 C1110 1.499 . S
C1108 H1082 0.950 . S
C1108 C1107 1.414 . S
C1108 C1109 1.374 . S
C1109 H1083 0.950 . S
C1109 C1105 1.385 . S
C1109 C1108 1.374 . S
C1110 C1107 1.499 . S
C1110 C1111 1.373 . S
C1110 C1112 1.389 . S
C1111 H1084 0.950 . S
C1111 C1097 1.377 . S
C1111 C1110 1.373 . S
C1112 C1096 1.377 . S
C1112 C1110 1.389 . S
C1112 C1113 1.524 . S
C1113 C1112 1.524 . S
C1113 C1114 1.397 . S
C1113 C1118 1.363 . S
C1114 H1085 0.950 . S
C1114 C1113 1.397 . S
C1114 C1115 1.334 . S
C1115 H1086 0.950 . S
C1115 C1114 1.334 . S
C1115 C1116 1.287 . S
C1116 C1115 1.287 . S
C1116 C1117 1.524 . S
C1116 H1119 0.999 . S
C1117 H1087 0.950 . S
C1117 C1116 1.524 . S
C1117 C1118 1.415 . S
C1118 H1088 0.950 . S
C1118 C1113 1.363 . S
C1118 C1117 1.415 . S
H1119 C1116 0.999 . S
H1120 C1101 0.913 . S
H1121 C1139 0.951 . S
H1122 C1141 0.951 . S
H1123 C1143 0.950 . S
H1124 C1144 0.950 . S
H1125 C1146 0.950 . S
H1126 C1149 0.950 . S
H1127 C1150 0.950 . S
H1128 C1152 0.950 . S
H1129 C1153 0.950 . S
H1130 C1154 0.951 . S
H1131 C1156 0.951 . S
H1132 C1158 0.950 . S
H1133 C1159 0.950 . S
H1134 C1161 0.950 . S
H1135 C1164 0.950 . S
H1136 C1165 0.950 . S
H1137 C1167 0.950 . S
H1138 C1168 0.950 . S
C1139 H1121 0.951 . S
C1139 C1140 1.366 . S
C1139 C1141 1.388 . S
C1140 C1139 1.366 . S
C1140 C1144 1.385 . S
C1141 H1122 0.951 . S
C1141 C1139 1.388 . S
C1141 C1142 1.366 . S
C1142 C1141 1.366 . S
C1142 C1143 1.414 . S
C1142 C1145 1.499 . S
C1143 H1123 0.950 . S
C1143 C1142 1.414 . S
C1143 C1144 1.374 . S
C1144 H1124 0.950 . S
C1144 C1140 1.385 . S
C1144 C1143 1.374 . S
C1145 C1142 1.499 . S
C1145 C1146 1.373 . S
C1145 C1147 1.389 . S
C1146 H1125 0.950 . S
C1146 C1145 1.373 . S
C1146 C1162 1.377 . S
C1147 C1145 1.389 . S
C1147 C1148 1.524 . S
C1147 C1161 1.377 . S
C1148 C1147 1.524 . S
C1148 C1149 1.397 . S
C1148 C1153 1.363 . S
C1149 H1126 0.950 . S
C1149 C1148 1.397 . S
C1149 C1150 1.334 . S
C1150 H1127 0.950 . S
C1150 C1149 1.334 . S
C1150 C1151 1.287 . S
C1151 C1150 1.287 . S
C1151 C1152 1.524 . S
C1151 H1170 0.913 . S
C1152 H1128 0.950 . S
C1152 C1151 1.524 . S
C1152 C1153 1.415 . S
C1153 H1129 0.950 . S
C1153 C1148 1.363 . S
C1153 C1152 1.415 . S
C1154 H1130 0.951 . S
C1154 C1155 1.366 . S
C1154 C1156 1.388 . S
C1155 C1154 1.366 . S
C1155 C1159 1.385 . S
C1156 H1131 0.951 . S
C1156 C1154 1.388 . S
C1156 C1157 1.366 . S
C1157 C1156 1.366 . S
C1157 C1158 1.414 . S
C1157 C1160 1.499 . S
C1158 H1132 0.950 . S
C1158 C1157 1.414 . S
C1158 C1159 1.374 . S
C1159 H1133 0.950 . S
C1159 C1155 1.385 . S
C1159 C1158 1.374 . S
C1160 C1157 1.499 . S
C1160 C1161 1.373 . S
C1160 C1162 1.389 . S
C1161 H1134 0.950 . S
C1161 C1147 1.377 . S
C1161 C1160 1.373 . S
C1162 C1146 1.377 . S
C1162 C1160 1.389 . S
C1162 C1163 1.524 . S
C1163 C1162 1.524 . S
C1163 C1164 1.397 . S
C1163 C1168 1.363 . S
C1164 H1135 0.950 . S
C1164 C1163 1.397 . S
C1164 C1165 1.334 . S
C1165 H1136 0.950 . S
C1165 C1164 1.334 . S
C1165 C1166 1.287 . S
C1166 C1165 1.287 . S
C1166 C1167 1.524 . S
C1166 H1169 0.999 . S
C1167 H1137 0.950 . S
C1167 C1166 1.524 . S
C1167 C1168 1.415 . S
C1168 H1138 0.950 . S
C1168 C1163 1.363 . S
C1168 C1167 1.415 . S
H1169 C1166 0.999 . S
H1170 C1151 0.913 . S
H1171 C1189 0.951 . S
H1172 C1191 0.951 . S
H1173 C1193 0.950 . S
H1174 C1194 0.950 . S
H1175 C1196 0.950 . S
H1176 C1199 0.950 . S
H1177 C1200 0.950 . S
H1178 C1202 0.950 . S
H1179 C1203 0.950 . S
H1180 C1204 0.951 . S
H1181 C1206 0.951 . S
H1182 C1208 0.950 . S
H1183 C1209 0.950 . S
H1184 C1211 0.950 . S
H1185 C1214 0.950 . S
H1186 C1215 0.950 . S
H1187 C1217 0.950 . S
H1188 C1218 0.950 . S
C1189 H1171 0.951 . S
C1189 C1190 1.366 . S
C1189 C1191 1.388 . S
C1190 C1189 1.366 . S
C1190 C1194 1.385 . S
C1191 H1172 0.951 . S
C1191 C1189 1.388 . S
C1191 C1192 1.366 . S
C1192 C1191 1.366 . S
C1192 C1193 1.414 . S
C1192 C1195 1.499 . S
C1193 H1173 0.950 . S
C1193 C1192 1.414 . S
C1193 C1194 1.374 . S
C1194 H1174 0.950 . S
C1194 C1190 1.385 . S
C1194 C1193 1.374 . S
C1195 C1192 1.499 . S
C1195 C1196 1.373 . S
C1195 C1197 1.389 . S
C1196 H1175 0.950 . S
C1196 C1195 1.373 . S
C1196 C1212 1.377 . S
C1197 C1195 1.389 . S
C1197 C1198 1.524 . S
C1197 C1211 1.377 . S
C1198 C1197 1.524 . S
C1198 C1199 1.397 . S
C1198 C1203 1.363 . S
C1199 H1176 0.950 . S
C1199 C1198 1.397 . S
C1199 C1200 1.334 . S
C1200 H1177 0.950 . S
C1200 C1199 1.334 . S
C1200 C1201 1.287 . S
C1201 C1200 1.287 . S
C1201 C1202 1.524 . S
C1201 H1220 0.913 . S
C1202 H1178 0.950 . S
C1202 C1201 1.524 . S
C1202 C1203 1.415 . S
C1203 H1179 0.950 . S
C1203 C1198 1.363 . S
C1203 C1202 1.415 . S
C1204 H1180 0.951 . S
C1204 C1205 1.366 . S
C1204 C1206 1.388 . S
C1205 C1204 1.366 . S
C1205 C1209 1.385 . S
C1206 H1181 0.951 . S
C1206 C1204 1.388 . S
C1206 C1207 1.366 . S
C1207 C1206 1.366 . S
C1207 C1208 1.414 . S
C1207 C1210 1.499 . S
C1208 H1182 0.950 . S
C1208 C1207 1.414 . S
C1208 C1209 1.374 . S
C1209 H1183 0.950 . S
C1209 C1205 1.385 . S
C1209 C1208 1.374 . S
C1210 C1207 1.499 . S
C1210 C1211 1.373 . S
C1210 C1212 1.389 . S
C1211 H1184 0.950 . S
C1211 C1197 1.377 . S
C1211 C1210 1.373 . S
C1212 C1196 1.377 . S
C1212 C1210 1.389 . S
C1212 C1213 1.524 . S
C1213 C1212 1.524 . S
C1213 C1214 1.397 . S
C1213 C1218 1.363 . S
C1214 H1185 0.950 . S
C1214 C1213 1.397 . S
C1214 C1215 1.334 . S
C1215 H1186 0.950 . S
C1215 C1214 1.334 . S
C1215 C1216 1.287 . S
C1216 C1215 1.287 . S
C1216 C1217 1.524 . S
C1216 H1219 0.999 . S
C1217 H1187 0.950 . S
C1217 C1216 1.524 . S
C1217 C1218 1.415 . S
C1218 H1188 0.950 . S
C1218 C1213 1.363 . S
C1218 C1217 1.415 . S
H1219 C1216 0.999 . S
H1220 C1201 0.913 . S
H1221 C1239 0.951 . S
H1222 C1241 0.951 . S
H1223 C1243 0.950 . S
H1224 C1244 0.950 . S
H1225 C1246 0.950 . S
H1226 C1249 0.950 . S
H1227 C1250 0.950 . S
H1228 C1252 0.950 . S
H1229 C1253 0.950 . S
H1230 C1254 0.951 . S
H1231 C1256 0.951 . S
H1232 C1258 0.950 . S
H1233 C1259 0.950 . S
H1234 C1261 0.950 . S
H1235 C1264 0.950 . S
H1236 C1265 0.950 . S
H1237 C1267 0.950 . S
H1238 C1268 0.950 . S
C1239 H1221 0.951 . S
C1239 C1240 1.366 . S
C1239 C1241 1.388 . S
C1240 C1239 1.366 . S
C1240 C1244 1.385 . S
C1241 H1222 0.951 . S
C1241 C1239 1.388 . S
C1241 C1242 1.366 . S
C1242 C1241 1.366 . S
C1242 C1243 1.414 . S
C1242 C1245 1.499 . S
C1243 H1223 0.950 . S
C1243 C1242 1.414 . S
C1243 C1244 1.374 . S
C1244 H1224 0.950 . S
C1244 C1240 1.385 . S
C1244 C1243 1.374 . S
C1245 C1242 1.499 . S
C1245 C1246 1.373 . S
C1245 C1247 1.389 . S
C1246 H1225 0.950 . S
C1246 C1245 1.373 . S
C1246 C1262 1.377 . S
C1247 C1245 1.389 . S
C1247 C1248 1.524 . S
C1247 C1261 1.377 . S
C1248 C1247 1.524 . S
C1248 C1249 1.397 . S
C1248 C1253 1.363 . S
C1249 H1226 0.950 . S
C1249 C1248 1.397 . S
C1249 C1250 1.334 . S
C1250 H1227 0.950 . S
C1250 C1249 1.334 . S
C1250 C1251 1.287 . S
C1251 C1250 1.287 . S
C1251 C1252 1.524 . S
C1251 H1270 0.913 . S
C1252 H1228 0.950 . S
C1252 C1251 1.524 . S
C1252 C1253 1.415 . S
C1253 H1229 0.950 . S
C1253 C1248 1.363 . S
C1253 C1252 1.415 . S
C1254 H1230 0.951 . S
C1254 C1255 1.366 . S
C1254 C1256 1.388 . S
C1255 C1254 1.366 . S
C1255 C1259 1.385 . S
C1256 H1231 0.951 . S
C1256 C1254 1.388 . S
C1256 C1257 1.366 . S
C1257 C1256 1.366 . S
C1257 C1258 1.414 . S
C1257 C1260 1.499 . S
C1258 H1232 0.950 . S
C1258 C1257 1.414 . S
C1258 C1259 1.374 . S
C1259 H1233 0.950 . S
C1259 C1255 1.385 . S
C1259 C1258 1.374 . S
C1260 C1257 1.499 . S
C1260 C1261 1.373 . S
C1260 C1262 1.389 . S
C1261 H1234 0.950 . S
C1261 C1247 1.377 . S
C1261 C1260 1.373 . S
C1262 C1246 1.377 . S
C1262 C1260 1.389 . S
C1262 C1263 1.524 . S
C1263 C1262 1.524 . S
C1263 C1264 1.397 . S
C1263 C1268 1.363 . S
C1264 H1235 0.950 . S
C1264 C1263 1.397 . S
C1264 C1265 1.334 . S
C1265 H1236 0.950 . S
C1265 C1264 1.334 . S
C1265 C1266 1.287 . S
C1266 C1265 1.287 . S
C1266 C1267 1.524 . S
C1266 H1269 0.999 . S
C1267 H1237 0.950 . S
C1267 C1266 1.524 . S
C1267 C1268 1.415 . S
C1268 H1238 0.950 . S
C1268 C1263 1.363 . S
C1268 C1267 1.415 . S
H1269 C1266 0.999 . S
H1270 C1251 0.913 . S
H1271 C1289 0.951 . S
H1272 C1291 0.951 . S
H1273 C1293 0.950 . S
H1274 C1294 0.950 . S
H1275 C1296 0.950 . S
H1276 C1299 0.950 . S
H1277 C1300 0.950 . S
H1278 C1302 0.950 . S
H1279 C1303 0.950 . S
H1280 C1304 0.951 . S
H1281 C1306 0.951 . S
H1282 C1308 0.950 . S
H1283 C1309 0.950 . S
H1284 C1311 0.950 . S
H1285 C1314 0.950 . S
H1286 C1315 0.950 . S
H1287 C1317 0.950 . S
H1288 C1318 0.950 . S
C1289 H1271 0.951 . S
C1289 C1290 1.366 . S
C1289 C1291 1.388 . S
C1290 C1289 1.366 . S
C1290 C1294 1.385 . S
C1291 H1272 0.951 . S
C1291 C1289 1.388 . S
C1291 C1292 1.366 . S
C1292 C1291 1.366 . S
C1292 C1293 1.414 . S
C1292 C1295 1.499 . S
C1293 H1273 0.950 . S
C1293 C1292 1.414 . S
C1293 C1294 1.374 . S
C1294 H1274 0.950 . S
C1294 C1290 1.385 . S
C1294 C1293 1.374 . S
C1295 C1292 1.499 . S
C1295 C1296 1.373 . S
C1295 C1297 1.389 . S
C1296 H1275 0.950 . S
C1296 C1295 1.373 . S
C1296 C1312 1.377 . S
C1297 C1295 1.389 . S
C1297 C1298 1.524 . S
C1297 C1311 1.377 . S
C1298 C1297 1.524 . S
C1298 C1299 1.397 . S
C1298 C1303 1.363 . S
C1299 H1276 0.950 . S
C1299 C1298 1.397 . S
C1299 C1300 1.334 . S
C1300 H1277 0.950 . S
C1300 C1299 1.334 . S
C1300 C1301 1.287 . S
C1301 C1300 1.287 . S
C1301 C1302 1.524 . S
C1301 H1320 0.913 . S
C1302 H1278 0.950 . S
C1302 C1301 1.524 . S
C1302 C1303 1.415 . S
C1303 H1279 0.950 . S
C1303 C1298 1.363 . S
C1303 C1302 1.415 . S
C1304 H1280 0.951 . S
C1304 C1305 1.366 . S
C1304 C1306 1.388 . S
C1305 C1304 1.366 . S
C1305 C1309 1.385 . S
C1306 H1281 0.951 . S
C1306 C1304 1.388 . S
C1306 C1307 1.366 . S
C1307 C1306 1.366 . S
C1307 C1308 1.414 . S
C1307 C1310 1.499 . S
C1308 H1282 0.950 . S
C1308 C1307 1.414 . S
C1308 C1309 1.374 . S
C1309 H1283 0.950 . S
C1309 C1305 1.385 . S
C1309 C1308 1.374 . S
C1310 C1307 1.499 . S
C1310 C1311 1.373 . S
C1310 C1312 1.389 . S
C1311 H1284 0.950 . S
C1311 C1297 1.377 . S
C1311 C1310 1.373 . S
C1312 C1296 1.377 . S
C1312 C1310 1.389 . S
C1312 C1313 1.524 . S
C1313 C1312 1.524 . S
C1313 C1314 1.397 . S
C1313 C1318 1.363 . S
C1314 H1285 0.950 . S
C1314 C1313 1.397 . S
C1314 C1315 1.334 . S
C1315 H1286 0.950 . S
C1315 C1314 1.334 . S
C1315 C1316 1.287 . S
C1316 C1315 1.287 . S
C1316 C1317 1.524 . S
C1316 H1319 0.999 . S
C1317 H1287 0.950 . S
C1317 C1316 1.524 . S
C1317 C1318 1.415 . S
C1318 H1288 0.950 . S
C1318 C1313 1.363 . S
C1318 C1317 1.415 . S
H1319 C1316 0.999 . S
H1320 C1301 0.913 . S
H1321 C1339 0.951 . S
H1322 C1341 0.951 . S
H1323 C1343 0.950 . S
H1324 C1344 0.950 . S
H1325 C1346 0.950 . S
H1326 C1349 0.950 . S
H1327 C1350 0.950 . S
H1328 C1352 0.950 . S
H1329 C1353 0.950 . S
H1330 C1354 0.951 . S
H1331 C1356 0.951 . S
H1332 C1358 0.950 . S
H1333 C1359 0.950 . S
H1334 C1361 0.950 . S
H1335 C1364 0.950 . S
H1336 C1365 0.950 . S
H1337 C1367 0.950 . S
H1338 C1368 0.950 . S
C1339 H1321 0.951 . S
C1339 C1340 1.366 . S
C1339 C1341 1.388 . S
C1340 C1339 1.366 . S
C1340 C1344 1.385 . S
C1341 H1322 0.951 . S
C1341 C1339 1.388 . S
C1341 C1342 1.366 . S
C1342 C1341 1.366 . S
C1342 C1343 1.414 . S
C1342 C1345 1.499 . S
C1343 H1323 0.950 . S
C1343 C1342 1.414 . S
C1343 C1344 1.374 . S
C1344 H1324 0.950 . S
C1344 C1340 1.385 . S
C1344 C1343 1.374 . S
C1345 C1342 1.499 . S
C1345 C1346 1.373 . S
C1345 C1347 1.389 . S
C1346 H1325 0.950 . S
C1346 C1345 1.373 . S
C1346 C1362 1.377 . S
C1347 C1345 1.389 . S
C1347 C1348 1.524 . S
C1347 C1361 1.377 . S
C1348 C1347 1.524 . S
C1348 C1349 1.397 . S
C1348 C1353 1.363 . S
C1349 H1326 0.950 . S
C1349 C1348 1.397 . S
C1349 C1350 1.334 . S
C1350 H1327 0.950 . S
C1350 C1349 1.334 . S
C1350 C1351 1.287 . S
C1351 C1350 1.287 . S
C1351 C1352 1.524 . S
C1351 H1370 0.913 . S
C1352 H1328 0.950 . S
C1352 C1351 1.524 . S
C1352 C1353 1.415 . S
C1353 H1329 0.950 . S
C1353 C1348 1.363 . S
C1353 C1352 1.415 . S
C1354 H1330 0.951 . S
C1354 C1355 1.366 . S
C1354 C1356 1.388 . S
C1355 C1354 1.366 . S
C1355 C1359 1.385 . S
C1356 H1331 0.951 . S
C1356 C1354 1.388 . S
C1356 C1357 1.366 . S
C1357 C1356 1.366 . S
C1357 C1358 1.414 . S
C1357 C1360 1.499 . S
C1358 H1332 0.950 . S
C1358 C1357 1.414 . S
C1358 C1359 1.374 . S
C1359 H1333 0.950 . S
C1359 C1355 1.385 . S
C1359 C1358 1.374 . S
C1360 C1357 1.499 . S
C1360 C1361 1.373 . S
C1360 C1362 1.389 . S
C1361 H1334 0.950 . S
C1361 C1347 1.377 . S
C1361 C1360 1.373 . S
C1362 C1346 1.377 . S
C1362 C1360 1.389 . S
C1362 C1363 1.524 . S
C1363 C1362 1.524 . S
C1363 C1364 1.397 . S
C1363 C1368 1.363 . S
C1364 H1335 0.950 . S
C1364 C1363 1.397 . S
C1364 C1365 1.334 . S
C1365 H1336 0.950 . S
C1365 C1364 1.334 . S
C1365 C1366 1.287 . S
C1366 C1365 1.287 . S
C1366 C1367 1.524 . S
C1366 H1369 0.999 . S
C1367 H1337 0.950 . S
C1367 C1366 1.524 . S
C1367 C1368 1.415 . S
C1368 H1338 0.950 . S
C1368 C1363 1.363 . S
C1368 C1367 1.415 . S
H1369 C1366 0.999 . S
H1370 C1351 0.913 . S
C205 C96 1.051 . S
C190 C4 1.105 . S
C255 C132 1.603 . S
C240 C13 1.714 . S
C305 C97 1.325 . S
C290 C25 1.340 . S
C355 C127 1.452 . S
C340 C32 1.513 . S
C405 C94 1.391 . S
C390 C41 1.461 . S
C440 C52 1.606 . S
C455 C130 1.604 . S
C490 C61 1.155 . S
C505 C99 1.062 . S
C555 C129 1.340 . S
C540 C67 1.391 . S
C605 C133 1.333 . S
C590 C7 1.380 . S
C655 C98 1.411 . S
C640 C14 1.479 . S
C705 C126 1.623 . S
C690 C22 1.627 . S
C755 C95 1.056 . S
C740 C31 1.150 . S
C805 C128 1.583 . S
C790 C40 1.694 . S
C840 C49 1.350 . S
C855 C93 1.334 . S
C890 C59 1.524 . S
C905 C131 1.461 . S
C955 C100 1.045 . S
C940 C70 1.096 . S
C1005 C162 1.662 . S
C990 C5 1.770 . S
C1040 C43 1.940 . S
C1055 C165 1.805 . S
C1105 C164 1.590 . S
C1090 C50 1.657 . S
C1140 C58 2.033 . S
C1155 C163 2.015 . S
C1205 C166 1.659 . S
C1190 C68 1.767 . S
C1240 C23 1.666 . S
C1255 C160 1.600 . S
C1305 C159 1.986 . S
C1290 C34 2.005 . S
C1340 C16 1.961 . S
C1355 C161 1.828 . S
