# Generated by pormake.
# Topology pth, (4,4)-cn, num edge types: 1
# Building blocks:
#     Node 0, Type 0, BuildingBlock: QUQFOY_clean_sbu_1, # of connection points: 4
#     Node 1, Type 0, BuildingBlock: QUQFOY_clean_sbu_1, # of connection points: 4
#     Node 2, Type 0, BuildingBlock: QUQFOY_clean_sbu_1, # of connection points: 4
#     Node 3, Type 1, BuildingBlock: MIFKUJ_clean_linker_1, # of connection points: 4
#     Node 4, Type 1, BuildingBlock: MIFKUJ_clean_linker_1, # of connection points: 4
#     Node 5, Type 1, BuildingBlock: MIFKUJ_clean_linker_1, # of connection points: 4
#     Edge 6, Type (0, 1), BuildingBlock: EZIPEK_clean_linker_0, # of connection points: 2
#     Edge 7, Type (0, 1), BuildingBlock: EZIPEK_clean_linker_0, # of connection points: 2
#     Edge 8, Type (0, 1), BuildingBlock: EZIPEK_clean_linker_0, # of connection points: 2
#     Edge 9, Type (0, 1), BuildingBlock: EZIPEK_clean_linker_0, # of connection points: 2
#     Edge 10, Type (0, 1), BuildingBlock: EZIPEK_clean_linker_0, # of connection points: 2
#     Edge 11, Type (0, 1), BuildingBlock: EZIPEK_clean_linker_0, # of connection points: 2
#     Edge 12, Type (0, 1), BuildingBlock: EZIPEK_clean_linker_0, # of connection points: 2
#     Edge 13, Type (0, 1), BuildingBlock: EZIPEK_clean_linker_0, # of connection points: 2
#     Edge 14, Type (0, 1), BuildingBlock: EZIPEK_clean_linker_0, # of connection points: 2
#     Edge 15, Type (0, 1), BuildingBlock: EZIPEK_clean_linker_0, # of connection points: 2
#     Edge 16, Type (0, 1), BuildingBlock: EZIPEK_clean_linker_0, # of connection points: 2
#     Edge 17, Type (0, 1), BuildingBlock: EZIPEK_clean_linker_0, # of connection points: 2
# Relax obj value: 0.029
# Max RMSD: 0.131
# Mean RMSD: 0.086
data_MOF--net-pth--node1-QUQFOY_clean_sbu_1--node2-MIFKUJ_clean_linker_1--edge1-EZIPEK_clean_linker_0
_symmetry_space_group_name_H-M    P1
_symmetry_Int_Tables_number       1
_symmetry_cell_setting            triclinic
loop_
_symmetry_equiv_pos_as_xyz
'x, y, z'
_cell_length_a     22.369813
_cell_length_b     24.024751
_cell_length_c     50.769288
_cell_angle_alpha  89.949483
_cell_angle_beta   89.965055
_cell_angle_gamma 120.30353
loop_
_atom_site_label
_atom_site_type_symbol
_atom_site_fract_x
_atom_site_fract_y
_atom_site_fract_z
_atom_type_partial_charge
O0 O 0.05528 0.10151 0.01414 0.0
Cd1 Cd 0.97462 0.05023 0.03973 0.0
Cd2 Cd 0.03027 0.9748 0.03979 0.0
O3 O 0.11484 0.05313 0.02275 0.0
O4 O 0.94927 0.1143 0.05173 0.0
O5 O 0.99224 0.06986 0.07838 0.0
C6 C 0.97165 0.11079 0.07471 0.0
C7 C 0.03779 0.91374 0.07368 0.0
C8 C 0.10956 0.09778 0.01154 0.0
C9 C 0.89208 0.92578 0.01353 0.0
O10 O 0.94605 0.92147 0.01592 0.0
O11 O 0.88825 0.97177 0.02413 0.0
O12 O 0.05793 0.91117 0.05015 0.0
O13 O 0.01765 0.95452 0.07855 0.0
O14 O 0.92204 0.03424 0.40004 0.0
Cd15 Cd 0.01292 0.07675 0.37971 0.0
Cd16 Cd 0.97729 0.95336 0.36922 0.0
O17 O 0.88769 0.93313 0.38959 0.0
O18 O 0.03085 0.16374 0.36962 0.0
O19 O 0.01102 0.0872 0.34054 0.0
C20 C 0.02165 0.14431 0.34547 0.0
C21 C 0.97299 0.8881 0.33436 0.0
C22 C 0.87793 0.97458 0.4014 0.0
C23 C 0.10419 0.03592 0.40351 0.0
O24 O 0.06539 0.9835 0.39145 0.0
O25 O 0.09426 0.08326 0.40107 0.0
O26 O 0.9602 0.86706 0.35819 0.0
O27 O 0.98448 0.94555 0.32978 0.0
O28 O 0.90461 0.96532 0.68431 0.0
Cd29 Cd 0.9704 0.954 0.70893 0.0
Cd30 Cd 0.03733 0.08085 0.7073 0.0
O31 O 0.94854 0.06994 0.6898 0.0
O32 O 0.91269 0.86425 0.72224 0.0
O33 O 0.95268 0.95042 0.74792 0.0
C34 C 0.91493 0.88872 0.74508 0.0
C35 C 0.09655 0.14692 0.74271 0.0
C36 C 0.90315 0.01659 0.67983 0.0
C37 C 0.10267 0.01565 0.67955 0.0
O38 O 0.10125 0.06743 0.68248 0.0
O39 O 0.05817 0.96378 0.69086 0.0
O40 O 0.09403 0.17087 0.72025 0.0
O41 O 0.06008 0.08513 0.74577 0.0
H42 H 0.09503 0.41649 0.19313 0.0
H43 H 0.0894 0.3276 0.16707 0.0
H44 H 0.89697 0.29171 0.1327 0.0
H45 H 0.90215 0.38008 0.15875 0.0
H46 H 0.00333 0.50905 0.15732 0.0
H47 H 0.10211 0.4788 0.25643 0.0
H48 H 0.10554 0.39719 0.2845 0.0
H49 H 0.91558 0.24979 0.24952 0.0
H50 H 0.91137 0.33151 0.22162 0.0
H51 H 0.9045 0.54958 0.25425 0.0
H52 H 0.89937 0.63445 0.2793 0.0
H53 H 0.08981 0.77793 0.243 0.0
H54 H 0.09581 0.693 0.2182 0.0
H55 H 0.00368 0.51418 0.25499 0.0
H56 H 0.91118 0.60424 0.19011 0.0
H57 H 0.91851 0.69324 0.16357 0.0
H58 H 0.11175 0.72771 0.13039 0.0
H59 H 0.10492 0.6392 0.15699 0.0
C60 C 0.99888 0.40475 0.1779 0.0
C61 C 0.05124 0.38902 0.18023 0.0
C62 C 0.04805 0.33844 0.16545 0.0
C63 C 0.99256 0.30315 0.14816 0.0
C64 C 0.93987 0.31826 0.14609 0.0
C65 C 0.94311 0.36882 0.16079 0.0
C66 C 0.00229 0.45932 0.19284 0.0
C67 C 0.0034 0.51012 0.17869 0.0
C68 C 0.00412 0.46156 0.22069 0.0
C69 C 0.00664 0.41125 0.23686 0.0
C70 C 0.06126 0.42892 0.25472 0.0
C71 C 0.06352 0.38247 0.27058 0.0
C72 C 0.01103 0.31767 0.26892 0.0
C73 C 0.95675 0.29961 0.25088 0.0
C74 C 0.95443 0.34615 0.23502 0.0
C75 C 1.00041 0.61495 0.23431 0.0
C76 C 0.94519 0.59927 0.25166 0.0
C77 C 0.94191 0.64756 0.26576 0.0
C78 C 0.99393 0.71223 0.2628 0.0
C79 C 0.04896 0.72823 0.24532 0.0
C80 C 0.05236 0.67985 0.23126 0.0
C81 C 0.00305 0.56302 0.21947 0.0
C82 C 0.00364 0.51303 0.23362 0.0
C83 C 0.00452 0.56227 0.19163 0.0
C84 C 0.00766 0.61529 0.17556 0.0
C85 C 0.95535 0.63123 0.17727 0.0
C86 C 0.95954 0.68191 0.16224 0.0
C87 C 0.01593 0.71706 0.14527 0.0
C88 C 0.06819 0.70128 0.14356 0.0
C89 C 0.06398 0.65062 0.15854 0.0
H90 H 0.63371 0.07461 0.48776 0.0
H91 H 0.70829 0.05522 0.45836 0.0
H92 H 0.64233 0.87294 0.49666 0.0
H93 H 0.56766 0.89239 0.52632 0.0
H94 H 0.49644 1.00367 0.49093 0.0
H95 H 0.68583 0.0745 0.54976 0.0
H96 H 0.77448 0.08124 0.58026 0.0
H97 H 0.61802 0.91712 0.62315 0.0
H98 H 0.5294 0.90937 0.59248 0.0
H99 H 0.34979 0.91029 0.5842 0.0
H100 H 0.26737 0.9142 0.6149 0.0
H101 H 0.34148 0.11199 0.59294 0.0
H102 H 0.42393 0.10792 0.56183 0.0
H103 H 0.49472 0.9966 0.58836 0.0
H104 H 0.30432 0.95761 0.53236 0.0
H105 H 0.22615 0.97557 0.50533 0.0
H106 H 0.39501 0.09689 0.45329 0.0
H107 H 0.47589 0.08922 0.48303 0.0
C108 C 0.59562 0.98518 0.50934 0.0
C109 C 0.63566 0.0307 0.49 0.0
C110 C 0.67792 0.01961 0.47321 0.0
C111 C 0.68043 0.96266 0.47538 0.0
C112 C 0.64088 0.91716 0.49479 0.0
C113 C 0.5989 0.92851 0.51177 0.0
C114 C 0.54633 0.99479 0.52541 0.0
C115 C 0.49671 1.00389 0.51229 0.0
C116 C 0.54621 0.99305 0.55317 0.0
C117 C 0.60108 0.99106 0.56871 0.0
C118 C 0.67079 0.03891 0.56528 0.0
C119 C 0.72112 0.04331 0.58281 0.0
C120 C 0.70218 1.00016 0.60401 0.0
C121 C 0.63312 0.95108 0.60698 0.0
C122 C 0.58289 0.94652 0.58943 0.0
C123 C 0.39232 1.00869 0.57068 0.0
C124 C 0.34793 0.95436 0.58585 0.0
C125 C 0.30127 0.95658 0.60336 0.0
C126 C 0.29901 0.01345 0.60621 0.0
C127 C 0.34299 0.06783 0.59096 0.0
C128 C 0.38947 0.06543 0.5732 0.0
C129 C 0.44488 1.00632 0.55394 0.0
C130 C 0.49483 0.99779 0.56697 0.0
C131 C 0.44652 0.01133 0.52607 0.0
C132 C 0.39727 0.02308 0.51043 0.0
C133 C 0.32603 0.99141 0.51622 0.0
C134 C 0.28069 1.00047 0.50032 0.0
C135 C 0.3044 0.03713 0.47706 0.0
C136 C 0.3753 0.06862 0.47115 0.0
C137 C 0.42136 0.06327 0.48803 0.0
H138 H 0.46312 0.36565 0.83881 0.0
H139 H 0.37077 0.28518 0.8105 0.0
H140 H 0.23547 0.35459 0.83528 0.0
H141 H 0.32677 0.43302 0.86444 0.0
H142 H 0.51744 0.50578 0.83483 0.0
H143 H 0.42758 0.33475 0.89508 0.0
H144 H 0.34568 0.2431 0.92222 0.0
H145 H 0.28326 0.36479 0.96143 0.0
H146 H 0.36434 0.4565 0.93403 0.0
H147 H 0.52374 0.63576 0.92985 0.0
H148 H 0.60147 0.72585 0.95843 0.0
H149 H 0.77584 0.71423 0.92922 0.0
H150 H 0.69808 0.62296 0.90101 0.0
H151 H 0.49907 0.51499 0.93189 0.0
H152 H 0.59804 0.68872 0.86631 0.0
H153 H 0.68872 0.77352 0.83871 0.0
H154 H 0.74767 0.63852 0.81084 0.0
H155 H 0.65762 0.55381 0.83853 0.0
C156 C 0.40158 0.40509 0.85363 0.0
C157 C 0.41321 0.36277 0.83843 0.0
C158 C 0.3606 0.31691 0.8224 0.0
C159 C 0.29635 0.31407 0.82077 0.0
C160 C 0.28446 0.35575 0.83636 0.0
C161 C 0.33649 0.40049 0.85288 0.0
C162 C 0.45814 0.45656 0.86932 0.0
C163 C 0.51414 0.50755 0.85611 0.0
C164 C 0.45379 0.45841 0.89699 0.0
C165 C 0.40137 0.40229 0.91228 0.0
C166 C 0.39542 0.34155 0.90915 0.0
C167 C 0.34933 0.28949 0.92474 0.0
C168 C 0.30887 0.29759 0.94373 0.0
C169 C 0.31436 0.35799 0.94684 0.0
C170 C 0.36041 0.41006 0.93123 0.0
C171 C 0.60518 0.62295 0.91315 0.0
C172 C 0.57873 0.6527 0.92949 0.0
C173 C 0.62283 0.70402 0.94571 0.0
C174 C 0.694 0.72637 0.94575 0.0
C175 C 0.7209 0.69753 0.92922 0.0
C176 C 0.67669 0.64584 0.9131 0.0
C177 C 0.5569 0.56592 0.89736 0.0
C178 C 0.50253 0.51347 0.91061 0.0
C179 C 0.56405 0.56222 0.86981 0.0
C180 C 0.62125 0.61497 0.85455 0.0
C181 C 0.63124 0.67762 0.85464 0.0
C182 C 0.68284 0.72592 0.83895 0.0
C183 C 0.72488 0.7121 0.82293 0.0
C184 C 0.71596 0.65001 0.82325 0.0
C185 C 0.66441 0.60176 0.83889 0.0
C186 C 0.94139 0.13928 0.11858 0.0
C187 C 0.9814 0.15859 0.09514 0.0
C188 C 0.02979 0.27231 0.10681 0.0
C189 C 0.99168 0.25321 0.1307 0.0
N190 N 0.92092 0.16992 0.16182 0.0
N191 N 0.07577 0.24175 0.06994 0.0
C192 C 0.95048 0.18697 0.13738 0.0
C193 C 0.02922 0.22466 0.09015 0.0
N194 N 0.89277 0.07584 0.12232 0.0
N195 N 0.06461 0.33587 0.09958 0.0
H196 H 0.07784 0.20814 0.05753 0.0
H197 H 0.11666 0.28853 0.067 0.0
H198 H 0.06762 0.3726 0.11146 0.0
H199 H 0.08619 0.35181 0.08097 0.0
H200 H 0.85661 0.05938 0.13753 0.0
H201 H 0.8855 0.03973 0.1091 0.0
H202 H 0.896 0.12286 0.16896 0.0
H203 H 0.92601 0.20375 0.17586 0.0
C204 C 0.75533 0.944 0.41125 0.0
C205 C 0.82006 0.95418 0.42008 0.0
C206 C 0.78942 0.96061 0.46582 0.0
C207 C 0.72492 0.95151 0.45702 0.0
N208 N 0.63896 0.91883 0.42285 0.0
N209 N 0.89206 0.95486 0.45544 0.0
C210 C 0.70537 0.93791 0.43014 0.0
C211 C 0.83463 0.95643 0.44734 0.0
N212 N 0.74303 0.94307 0.38485 0.0
N213 N 0.80926 0.97709 0.49144 0.0
H214 H 0.92619 0.95196 0.44224 0.0
H215 H 0.90238 0.9503 0.47506 0.0
H216 H 0.77756 0.98042 0.50567 0.0
H217 H 0.85893 0.99189 0.49829 0.0
H218 H 0.70033 0.94359 0.377 0.0
H219 H 0.77773 0.9449 0.37064 0.0
H220 H 0.61958 0.90281 0.40401 0.0
H221 H 0.60127 0.91372 0.43633 0.0
C222 C 0.8934 0.83643 0.78988 0.0
C223 C 0.86739 0.84758 0.7662 0.0
C224 C 0.74858 0.76987 0.77973 0.0
C225 C 0.77408 0.76081 0.80395 0.0
N226 N 0.86857 0.79222 0.83426 0.0
N227 N 0.77038 0.83731 0.74134 0.0
C228 C 0.84598 0.79626 0.80971 0.0
C229 C 0.79497 0.81786 0.76193 0.0
N230 N 0.96316 0.86217 0.79293 0.0
N231 N 0.68032 0.73107 0.77329 0.0
H232 H 0.80259 0.87326 0.72808 0.0
H233 H 0.71824 0.8225 0.73887 0.0
H234 H 0.64416 0.69588 0.78591 0.0
H235 H 0.66054 0.73016 0.75463 0.0
H236 H 0.98524 0.85038 0.80841 0.0
H237 H 0.99913 0.89226 0.77891 0.0
H238 H 0.91929 0.82156 0.84066 0.0
H239 H 0.83517 0.76269 0.84905 0.0
C240 C 0.0696 0.88265 0.11665 0.0
C241 C 0.02917 0.86468 0.09335 0.0
C242 C 0.98053 0.7503 0.1041 0.0
C243 C 0.01849 0.76809 0.12798 0.0
N244 N 0.08998 0.84983 0.15944 0.0
N245 N 0.93448 0.78278 0.0679 0.0
C246 C 0.06027 0.83399 0.13503 0.0
C247 C 0.98122 0.79884 0.08795 0.0
N248 N 0.11875 0.94578 0.12066 0.0
N249 N 0.94558 0.68713 0.0964 0.0
H250 H 0.93253 0.81693 0.0558 0.0
H251 H 0.89337 0.73621 0.06481 0.0
H252 H 0.94263 0.64979 0.10788 0.0
H253 H 0.92398 0.67218 0.07776 0.0
H254 H 0.15512 0.96127 0.13575 0.0
H255 H 0.12637 0.98254 0.10771 0.0
H256 H 0.11522 0.89658 0.16686 0.0
H257 H 0.08478 0.81533 0.17318 0.0
C258 C 0.22051 0.0959 0.42697 0.0
C259 C 0.15632 0.03832 0.42249 0.0
C260 C 0.1959 0.97963 0.44986 0.0
C261 C 0.25424 0.03836 0.45801 0.0
N262 N 0.31155 0.15489 0.45869 0.0
N263 N 0.0756 0.93067 0.43881 0.0
C264 C 0.26362 0.09746 0.44788 0.0
C265 C 0.14165 0.98155 0.43657 0.0
N266 N 0.24223 0.14807 0.4108 0.0
N267 N 0.19265 0.92197 0.45395 0.0
H268 H 0.03228 0.9324 0.43245 0.0
H269 H 0.06342 0.89048 0.45045 0.0
H270 H 0.23368 0.9184 0.46178 0.0
H271 H 0.1525 0.87873 0.44649 0.0
H272 H 0.29129 0.18894 0.41232 0.0
H273 H 0.2152 0.14761 0.39402 0.0
H274 H 0.31589 0.19864 0.45324 0.0
H275 H 0.34129 0.15801 0.47503 0.0
C276 C 0.12639 0.18457 0.78999 0.0
C277 C 0.14651 0.18894 0.76317 0.0
C278 C 0.26063 0.2805 0.77396 0.0
C279 C 0.24381 0.2711 0.80113 0.0
N280 N 0.16438 0.20602 0.83548 0.0
N281 N 0.2405 0.22918 0.73157 0.0
C282 C 0.17764 0.22074 0.80934 0.0
C283 C 0.2158 0.23359 0.75566 0.0
N284 N 0.05824 0.14806 0.79691 0.0
N285 N 0.31838 0.33517 0.7654 0.0
H286 H 0.21149 0.19255 0.71813 0.0
H287 H 0.29252 0.25713 0.72632 0.0
H288 H 0.35153 0.37218 0.77803 0.0
H289 H 0.32899 0.34676 0.7455 0.0
H290 H 0.03999 0.1482 0.81578 0.0
H291 H 0.01898 0.12258 0.78324 0.0
H292 H 0.11949 0.16571 0.84235 0.0
H293 H 0.201 0.23059 0.85016 0.0
C294 C 0.85109 0.99023 0.63468 0.0
C295 C 0.85275 0.01462 0.66038 0.0
C296 C 0.76092 0.03671 0.64786 0.0
C297 C 0.75477 1.00624 0.62326 0.0
N298 N 0.78609 0.94524 0.5945 0.0
N299 N 0.80264 0.05226 0.69286 0.0
C300 C 0.79762 0.98049 0.61702 0.0
C301 C 0.80609 0.03585 0.66736 0.0
N302 N 0.90242 0.97899 0.62666 0.0
N303 N 0.72449 0.06746 0.65236 0.0
H304 H 0.83417 0.05128 0.70776 0.0
H305 H 0.76465 0.06148 0.69977 0.0
H306 H 0.69018 0.06824 0.63866 0.0
H307 H 0.73232 0.09647 0.66872 0.0
H308 H 0.90837 0.96854 0.60726 0.0
H309 H 0.94313 0.98596 0.63876 0.0
H310 H 0.81015 0.91869 0.59048 0.0
H311 H 0.74824 0.93809 0.58074 0.0
C312 C 0.82474 0.89267 0.97148 0.0
C313 C 0.83449 0.87708 0.99749 0.0
C314 C 0.75137 0.76289 0.98973 0.0
C315 C 0.74025 0.77864 0.96393 0.0
N316 N 0.75585 0.85826 0.93153 0.0
N317 N 0.7989 0.80124 0.03332 0.0
C318 C 0.7736 0.8436 0.95523 0.0
C319 C 0.79519 0.81323 1.00721 0.0
N320 N 0.86672 0.9536 0.96191 0.0
N321 N 0.72162 0.69967 0.99719 0.0
H322 H 0.83019 0.83742 0.04663 0.0
H323 H 0.76694 0.75697 0.04233 0.0
H324 H 0.68753 0.66151 0.9852 0.0
H325 H 0.73394 0.68455 0.01452 0.0
H326 H 0.86806 0.96616 0.9422 0.0
H327 H 0.90382 0.99118 0.97338 0.0
H328 H 0.77264 0.90516 0.92527 0.0
H329 H 0.71999 0.82327 0.9188 0.0
C330 C 0.03572 0.83426 0.31762 0.0
C331 C 0.98289 0.84971 0.31384 0.0
C332 C 0.94645 0.78482 0.27348 0.0
C333 C 0.99283 0.7625 0.27944 0.0
N334 N 0.07595 0.75961 0.30887 0.0
N335 N 0.88446 0.83699 0.28942 0.0
C336 C 0.03626 0.78576 0.3019 0.0
C337 C 0.93763 0.82482 0.29193 0.0
N338 N 0.08671 0.86744 0.33578 0.0
N339 N 0.91176 0.76847 0.25003 0.0
H340 H 0.87708 0.86662 0.3024 0.0
H341 H 0.84504 0.81447 0.27558 0.0
H342 H 0.91692 0.73902 0.23622 0.0
H343 H 0.88243 0.78815 0.24331 0.0
H344 H 0.1305 0.86299 0.33755 0.0
H345 H 0.08899 0.90439 0.34732 0.0
H346 H 0.10218 0.76917 0.32674 0.0
H347 H 0.07835 0.72421 0.29783 0.0
C348 C 0.14549 0.0215 0.63351 0.0
C349 C 0.15322 0.01511 0.66095 0.0
C350 C 0.26105 0.01507 0.6526 0.0
C351 C 0.2496 0.01534 0.6251 0.0
N352 N 0.17506 1.00694 0.58915 0.0
N353 N 0.21365 0.99907 0.69679 0.0
C354 C 0.19026 0.01542 0.61546 0.0
C355 C 0.20949 1.00955 0.67055 0.0
N356 N 0.09589 0.03417 0.62462 0.0
N357 N 0.32239 0.02258 0.66151 0.0
H358 H 0.17884 0.99813 0.71071 0.0
H359 H 0.24883 0.9872 0.70458 0.0
H360 H 0.3616 0.0274 0.64891 0.0
H361 H 0.33701 0.02948 0.68123 0.0
H362 H 0.09322 0.04687 0.60522 0.0
H363 H 0.06053 0.03715 0.63698 0.0
H364 H 0.12837 0.99901 0.58134 0.0
H365 H 0.20644 1.00207 0.57524 0.0
C366 C 0.22889 0.19223 1.00421 0.0
C367 C 0.16462 0.14402 0.99379 0.0
C368 C 0.19536 0.19571 0.95038 0.0
C369 C 0.26057 0.24273 0.96056 0.0
N370 N 0.34561 0.27935 0.99525 0.0
N371 N 0.09226 0.09099 0.9562 0.0
C372 C 0.2793 0.23893 0.98692 0.0
C373 C 0.1496 0.14307 0.96659 0.0
N374 N 0.24038 0.19524 0.03076 0.0
N375 N 0.17617 0.20268 0.92557 0.0
H376 H 0.05796 0.05122 0.9675 0.0
H377 H 0.08201 0.08432 0.93609 0.0
H378 H 0.20867 0.24013 0.91293 0.0
H379 H 0.12634 0.1742 0.91815 0.0
H380 H 0.28272 0.23361 0.03993 0.0
H381 H 0.20499 0.16139 0.04399 0.0
H382 H 0.36451 0.27466 0.01334 0.0
H383 H 0.38367 0.3145 0.98314 0.0
C384 C 0.06348 0.20723 0.30302 0.0
C385 C 0.01634 0.18454 0.32448 0.0
C386 C 0.96644 0.24952 0.30961 0.0
C387 C 0.01091 0.26957 0.28737 0.0
N388 N 0.09288 0.25914 0.26009 0.0
N389 N 0.91195 0.17107 0.34454 0.0
C390 C 0.05677 0.24578 0.2832 0.0
C391 C 0.96459 0.20192 0.32671 0.0
N392 N 0.11641 0.19437 0.30218 0.0
N393 N 0.92772 0.27763 0.31497 0.0
H394 H 0.90757 0.13461 0.35698 0.0
H395 H 0.86885 0.17685 0.34515 0.0
H396 H 0.92707 0.31243 0.30287 0.0
H397 H 0.90068 0.27044 0.33254 0.0
H398 H 0.15687 0.21534 0.28864 0.0
H399 H 0.12287 0.16634 0.31633 0.0
H400 H 0.12172 0.23793 0.25465 0.0
H401 H 0.08939 0.28753 0.24529 0.0
loop_
_geom_bond_atom_site_label_1
_geom_bond_atom_site_label_2
_geom_bond_distance
_geom_bond_site_symmetry_2
_ccdc_geom_bond_type
O0 Cd1 2.223 1_456 S
O0 C8 1.318 . S
Cd1 O0 2.223 1_654 S
Cd1 O4 2.297 . S
Cd1 O5 2.439 . S
Cd1 O11 2.240 1_545 S
Cd2 O3 2.240 1_565 S
Cd2 O10 2.223 1_454 S
Cd2 O12 2.297 . S
Cd2 O13 2.439 . S
O3 Cd2 2.240 1_545 S
O3 C8 1.268 1_554 S
O4 Cd1 2.297 . S
O4 C6 1.247 . S
O5 Cd1 2.439 . S
O5 C6 1.208 . S
C6 O4 1.247 . S
C6 O5 1.208 . S
C7 O12 1.247 . S
C7 O13 1.208 . S
C8 O0 1.318 . S
C8 O3 1.268 1_556 S
C9 O10 1.318 . S
C9 O11 1.267 1_556 S
O10 Cd2 2.223 1_656 S
O10 C9 1.318 . S
O11 Cd1 2.240 1_565 S
O11 C9 1.267 1_554 S
O12 Cd2 2.297 . S
O12 C7 1.247 . S
O13 Cd2 2.439 . S
O13 C7 1.208 . S
O14 Cd15 2.223 1_655 S
O14 C22 1.315 . S
Cd15 O14 2.223 1_455 S
Cd15 O18 2.297 . S
Cd15 O19 2.439 . S
Cd15 O25 2.240 . S
Cd16 O17 2.240 . S
Cd16 O24 2.223 1_655 S
Cd16 O26 2.297 . S
Cd16 O27 2.439 . S
O17 Cd16 2.240 . S
O17 C22 1.279 1_565 S
O18 Cd15 2.297 . S
O18 C20 1.247 . S
O19 Cd15 2.439 . S
O19 C20 1.208 . S
C20 O18 1.247 . S
C20 O19 1.208 . S
C21 O26 1.247 . S
C21 O27 1.208 . S
C22 O14 1.315 . S
C22 O17 1.279 1_545 S
C23 O24 1.315 . S
C23 O25 1.279 1_565 S
O24 Cd16 2.223 1_455 S
O24 C23 1.315 . S
O25 Cd15 2.240 . S
O25 C23 1.279 1_545 S
O26 Cd16 2.297 . S
O26 C21 1.247 . S
O27 Cd16 2.439 . S
O27 C21 1.208 . S
O28 Cd29 2.223 . S
O28 C36 1.315 . S
Cd29 O28 2.223 . S
Cd29 O32 2.297 . S
Cd29 O33 2.439 . S
Cd29 O39 2.240 1_655 S
Cd30 O31 2.240 1_455 S
Cd30 O38 2.223 . S
Cd30 O40 2.297 . S
Cd30 O41 2.439 . S
O31 Cd30 2.240 1_655 S
O31 C36 1.279 1_545 S
O32 Cd29 2.297 . S
O32 C34 1.247 . S
O33 Cd29 2.439 . S
O33 C34 1.208 . S
C34 O32 1.247 . S
C34 O33 1.208 . S
C35 O40 1.247 . S
C35 O41 1.208 . S
C36 O28 1.315 . S
C36 O31 1.279 1_565 S
C37 O38 1.315 . S
C37 O39 1.279 1_545 S
O38 Cd30 2.223 . S
O38 C37 1.315 . S
O39 Cd29 2.240 1_455 S
O39 C37 1.279 1_565 S
O40 Cd30 2.297 . S
O40 C35 1.247 . S
O41 Cd30 2.439 . S
O41 C35 1.208 . S
H42 C61 0.949 . S
H43 C62 0.950 . S
H44 C64 0.950 . S
H45 C65 0.950 . S
H46 C67 0.950 . S
H47 C70 0.950 . S
H48 C71 0.950 . S
H49 C73 0.951 . S
H50 C74 0.949 . S
H51 C76 0.949 . S
H52 C77 0.950 . S
H53 C79 0.950 . S
H54 C80 0.950 . S
H55 C82 0.950 . S
H56 C85 0.950 . S
H57 C86 0.950 . S
H58 C88 0.951 . S
H59 C89 0.949 . S
C60 C61 1.376 . S
C60 C65 1.386 1_455 S
C60 C66 1.483 . S
C61 H42 0.949 . S
C61 C60 1.376 . S
C61 C62 1.397 . S
C62 H43 0.950 . S
C62 C61 1.397 . S
C62 C63 1.391 . S
C63 C62 1.391 . S
C63 C64 1.405 1_455 S
C64 H44 0.950 . S
C64 C63 1.405 1_655 S
C64 C65 1.367 . S
C65 H45 0.950 . S
C65 C60 1.386 1_655 S
C65 C64 1.367 . S
C66 C60 1.483 . S
C66 C67 1.382 . S
C66 C68 1.403 1_455 S
C67 H46 0.950 . S
C67 C66 1.382 . S
C67 C83 1.411 . S
C68 C66 1.403 1_655 S
C68 C69 1.489 . S
C68 C82 1.411 . S
C69 C68 1.489 . S
C69 C70 1.383 1_655 S
C69 C74 1.382 . S
C70 H47 0.950 . S
C70 C69 1.383 1_455 S
C70 C71 1.395 . S
C71 H48 0.950 . S
C71 C70 1.395 . S
C71 C72 1.288 1_455 S
C72 C71 1.288 1_655 S
C72 C73 1.392 . S
C73 H49 0.951 . S
C73 C72 1.392 . S
C73 C74 1.392 . S
C74 H50 0.949 . S
C74 C69 1.382 . S
C74 C73 1.392 . S
C75 C76 1.376 . S
C75 C80 1.386 1_655 S
C75 C81 1.483 . S
C76 H51 0.949 . S
C76 C75 1.376 . S
C76 C77 1.397 . S
C77 H52 0.950 . S
C77 C76 1.397 . S
C77 C78 1.391 . S
C78 C77 1.391 . S
C78 C79 1.405 1_655 S
C79 H53 0.950 . S
C79 C78 1.405 1_455 S
C79 C80 1.367 . S
C80 H54 0.950 . S
C80 C75 1.386 1_455 S
C80 C79 1.367 . S
C81 C75 1.483 . S
C81 C82 1.382 . S
C81 C83 1.403 1_655 S
C82 H55 0.950 . S
C82 C68 1.411 . S
C82 C81 1.382 . S
C83 C67 1.411 . S
C83 C81 1.403 1_455 S
C83 C84 1.489 . S
C84 C83 1.489 . S
C84 C85 1.383 1_455 S
C84 C89 1.382 . S
C85 H56 0.950 . S
C85 C84 1.383 1_655 S
C85 C86 1.395 . S
C86 H57 0.950 . S
C86 C85 1.395 . S
C86 C87 1.288 1_655 S
C87 C86 1.288 1_455 S
C87 C88 1.392 . S
C88 H58 0.951 . S
C88 C87 1.392 . S
C88 C89 1.392 . S
C89 H59 0.949 . S
C89 C84 1.382 . S
C89 C88 1.392 . S
H90 C109 0.949 . S
H91 C110 0.950 . S
H92 C112 0.950 . S
H93 C113 0.950 . S
H94 C115 0.950 . S
H95 C118 0.950 . S
H96 C119 0.950 . S
H97 C121 0.951 . S
H98 C122 0.949 . S
H99 C124 0.949 . S
H100 C125 0.950 . S
H101 C127 0.950 . S
H102 C128 0.950 . S
H103 C130 0.950 . S
H104 C133 0.950 . S
H105 C134 0.950 . S
H106 C136 0.951 . S
H107 C137 0.949 . S
C108 C109 1.376 . S
C108 C113 1.386 1_545 S
C108 C114 1.483 . S
C109 H90 0.949 . S
C109 C108 1.376 . S
C109 C110 1.397 . S
C110 H91 0.950 . S
C110 C109 1.397 . S
C110 C111 1.391 . S
C111 C110 1.391 . S
C111 C112 1.405 1_545 S
C112 H92 0.950 . S
C112 C111 1.405 1_565 S
C112 C113 1.367 . S
C113 H93 0.950 . S
C113 C108 1.386 1_565 S
C113 C112 1.367 . S
C114 C108 1.483 . S
C114 C115 1.382 . S
C114 C116 1.403 1_545 S
C115 H94 0.950 . S
C115 C114 1.382 . S
C115 C131 1.411 . S
C116 C114 1.403 1_565 S
C116 C117 1.489 . S
C116 C130 1.411 . S
C117 C116 1.489 . S
C117 C118 1.383 1_565 S
C117 C122 1.382 . S
C118 H95 0.950 . S
C118 C117 1.383 1_545 S
C118 C119 1.395 . S
C119 H96 0.950 . S
C119 C118 1.395 . S
C119 C120 1.288 1_545 S
C120 C119 1.288 1_565 S
C120 C121 1.392 . S
C121 H97 0.951 . S
C121 C120 1.392 . S
C121 C122 1.392 . S
C122 H98 0.949 . S
C122 C117 1.382 . S
C122 C121 1.392 . S
C123 C124 1.376 . S
C123 C128 1.386 1_565 S
C123 C129 1.483 . S
C124 H99 0.949 . S
C124 C123 1.376 . S
C124 C125 1.397 . S
C125 H100 0.950 . S
C125 C124 1.397 . S
C125 C126 1.391 . S
C126 C125 1.391 . S
C126 C127 1.405 1_565 S
C127 H101 0.950 . S
C127 C126 1.405 1_545 S
C127 C128 1.367 . S
C128 H102 0.950 . S
C128 C123 1.386 1_545 S
C128 C127 1.367 . S
C129 C123 1.483 . S
C129 C130 1.382 . S
C129 C131 1.403 1_565 S
C130 H103 0.950 . S
C130 C116 1.411 . S
C130 C129 1.382 . S
C131 C115 1.411 . S
C131 C129 1.403 1_545 S
C131 C132 1.489 . S
C132 C131 1.489 . S
C132 C133 1.383 1_545 S
C132 C137 1.382 . S
C133 H104 0.950 . S
C133 C132 1.383 1_565 S
C133 C134 1.395 . S
C134 H105 0.950 . S
C134 C133 1.395 . S
C134 C135 1.288 1_565 S
C135 C134 1.288 1_545 S
C135 C136 1.392 . S
C136 H106 0.951 . S
C136 C135 1.392 . S
C136 C137 1.392 . S
C137 H107 0.949 . S
C137 C132 1.382 . S
C137 C136 1.392 . S
H138 C157 0.949 . S
H139 C158 0.950 . S
H140 C160 0.950 . S
H141 C161 0.950 . S
H142 C163 0.950 . S
H143 C166 0.950 . S
H144 C167 0.950 . S
H145 C169 0.951 . S
H146 C170 0.949 . S
H147 C172 0.949 . S
H148 C173 0.950 . S
H149 C175 0.950 . S
H150 C176 0.950 . S
H151 C178 0.950 . S
H152 C181 0.950 . S
H153 C182 0.950 . S
H154 C184 0.951 . S
H155 C185 0.949 . S
C156 C157 1.376 . S
C156 C161 1.386 . S
C156 C162 1.483 . S
C157 H138 0.949 . S
C157 C156 1.376 . S
C157 C158 1.397 . S
C158 H139 0.950 . S
C158 C157 1.397 . S
C158 C159 1.391 . S
C159 C158 1.391 . S
C159 C160 1.405 . S
C160 H140 0.950 . S
C160 C159 1.405 . S
C160 C161 1.367 . S
C161 H141 0.950 . S
C161 C156 1.386 . S
C161 C160 1.367 . S
C162 C156 1.483 . S
C162 C163 1.382 . S
C162 C164 1.403 . S
C163 H142 0.950 . S
C163 C162 1.382 . S
C163 C179 1.411 . S
C164 C162 1.403 . S
C164 C165 1.489 . S
C164 C178 1.411 . S
C165 C164 1.489 . S
C165 C166 1.383 . S
C165 C170 1.382 . S
C166 H143 0.950 . S
C166 C165 1.383 . S
C166 C167 1.395 . S
C167 H144 0.950 . S
C167 C166 1.395 . S
C167 C168 1.288 . S
C168 C167 1.288 . S
C168 C169 1.392 . S
C169 H145 0.951 . S
C169 C168 1.392 . S
C169 C170 1.392 . S
C170 H146 0.949 . S
C170 C165 1.382 . S
C170 C169 1.392 . S
C171 C172 1.376 . S
C171 C176 1.386 . S
C171 C177 1.483 . S
C172 H147 0.949 . S
C172 C171 1.376 . S
C172 C173 1.397 . S
C173 H148 0.950 . S
C173 C172 1.397 . S
C173 C174 1.391 . S
C174 C173 1.391 . S
C174 C175 1.405 . S
C175 H149 0.950 . S
C175 C174 1.405 . S
C175 C176 1.367 . S
C176 H150 0.950 . S
C176 C171 1.386 . S
C176 C175 1.367 . S
C177 C171 1.483 . S
C177 C178 1.382 . S
C177 C179 1.403 . S
C178 H151 0.950 . S
C178 C164 1.411 . S
C178 C177 1.382 . S
C179 C163 1.411 . S
C179 C177 1.403 . S
C179 C180 1.489 . S
C180 C179 1.489 . S
C180 C181 1.383 . S
C180 C185 1.382 . S
C181 H152 0.950 . S
C181 C180 1.383 . S
C181 C182 1.395 . S
C182 H153 0.950 . S
C182 C181 1.395 . S
C182 C183 1.288 . S
C183 C182 1.288 . S
C183 C184 1.392 . S
C184 H154 0.951 . S
C184 C183 1.392 . S
C184 C185 1.392 . S
C185 H155 0.949 . S
C185 C180 1.382 . S
C185 C184 1.392 . S
C186 C187 1.359 1_655 S
C186 C192 1.379 . S
C186 N194 1.356 . S
C187 C186 1.359 1_455 S
C187 C193 1.361 . S
C188 C189 1.366 . S
C188 C193 1.379 . S
C188 N195 1.356 . S
C189 C188 1.366 . S
C189 C192 1.365 1_455 S
N190 C192 1.356 . S
N190 H202 0.984 . S
N190 H203 0.985 . S
N191 C193 1.356 . S
N191 H196 0.984 . S
N191 H197 0.985 . S
C192 C186 1.379 . S
C192 C189 1.365 1_655 S
C192 N190 1.356 . S
C193 C187 1.361 . S
C193 C188 1.379 . S
C193 N191 1.356 . S
N194 C186 1.356 . S
N194 H200 0.984 . S
N194 H201 0.984 . S
N195 C188 1.356 . S
N195 H198 0.984 . S
N195 H199 0.985 . S
H196 N191 0.984 . S
H197 N191 0.985 . S
H198 N195 0.984 . S
H199 N195 0.985 . S
H200 N194 0.984 . S
H201 N194 0.984 . S
H202 N190 0.984 . S
H203 N190 0.985 . S
C204 C205 1.363 1_565 S
C204 C210 1.379 . S
C204 N212 1.356 . S
C205 C204 1.363 1_545 S
C205 C211 1.363 . S
C206 C207 1.363 . S
C206 C211 1.379 . S
C206 N213 1.356 . S
C207 C206 1.363 . S
C207 C210 1.363 1_545 S
N208 C210 1.356 . S
N208 H220 0.984 . S
N208 H221 0.985 . S
N209 C211 1.356 . S
N209 H214 0.984 . S
N209 H215 0.985 . S
C210 C204 1.379 . S
C210 C207 1.363 1_565 S
C210 N208 1.356 . S
C211 C205 1.363 . S
C211 C206 1.379 . S
C211 N209 1.356 . S
N212 C204 1.356 . S
N212 H218 0.984 . S
N212 H219 0.984 . S
N213 C206 1.356 . S
N213 H216 0.984 . S
N213 H217 0.985 . S
H214 N209 0.984 . S
H215 N209 0.985 . S
H216 N213 0.984 . S
H217 N213 0.985 . S
H218 N212 0.984 . S
H219 N212 0.984 . S
H220 N208 0.984 . S
H221 N208 0.985 . S
C222 C223 1.363 . S
C222 C228 1.379 . S
C222 N230 1.356 . S
C223 C222 1.363 . S
C223 C229 1.363 . S
C224 C225 1.363 . S
C224 C229 1.379 . S
C224 N231 1.356 . S
C225 C224 1.363 . S
C225 C228 1.363 . S
N226 C228 1.356 . S
N226 H238 0.984 . S
N226 H239 0.985 . S
N227 C229 1.356 . S
N227 H232 0.984 . S
N227 H233 0.985 . S
C228 C222 1.379 . S
C228 C225 1.363 . S
C228 N226 1.356 . S
C229 C223 1.363 . S
C229 C224 1.379 . S
C229 N227 1.356 . S
N230 C222 1.356 . S
N230 H236 0.984 . S
N230 H237 0.984 . S
N231 C224 1.356 . S
N231 H234 0.984 . S
N231 H235 0.985 . S
H232 N227 0.984 . S
H233 N227 0.985 . S
H234 N231 0.984 . S
H235 N231 0.985 . S
H236 N230 0.984 . S
H237 N230 0.984 . S
H238 N226 0.984 . S
H239 N226 0.985 . S
C240 C241 1.370 . S
C240 C246 1.379 . S
C240 N248 1.356 . S
C241 C240 1.370 . S
C241 C247 1.360 1_455 S
C242 C243 1.356 1_655 S
C242 C247 1.379 . S
C242 N249 1.356 . S
C243 C242 1.356 1_455 S
C243 C246 1.366 . S
N244 C246 1.356 . S
N244 H256 0.984 . S
N244 H257 0.985 . S
N245 C247 1.356 . S
N245 H250 0.984 . S
N245 H251 0.985 . S
C246 C240 1.379 . S
C246 C243 1.366 . S
C246 N244 1.356 . S
C247 C241 1.360 1_655 S
C247 C242 1.379 . S
C247 N245 1.356 . S
N248 C240 1.356 . S
N248 H254 0.984 . S
N248 H255 0.984 . S
N249 C242 1.356 . S
N249 H252 0.984 . S
N249 H253 0.985 . S
H250 N245 0.984 . S
H251 N245 0.985 . S
H252 N249 0.984 . S
H253 N249 0.985 . S
H254 N248 0.984 . S
H255 N248 0.984 . S
H256 N244 0.984 . S
H257 N244 0.985 . S
C258 C259 1.363 1_545 S
C258 C264 1.379 . S
C258 N266 1.356 . S
C259 C258 1.363 1_565 S
C259 C265 1.363 . S
C260 C261 1.365 . S
C260 C265 1.379 . S
C260 N267 1.356 . S
C261 C260 1.365 . S
C261 C264 1.359 1_565 S
N262 C264 1.356 . S
N262 H274 0.984 . S
N262 H275 0.985 . S
N263 C265 1.356 . S
N263 H268 0.984 . S
N263 H269 0.985 . S
C264 C258 1.379 . S
C264 C261 1.359 1_545 S
C264 N262 1.356 . S
C265 C259 1.363 . S
C265 C260 1.379 . S
C265 N263 1.356 . S
N266 C258 1.356 . S
N266 H272 0.984 . S
N266 H273 0.984 . S
N267 C260 1.356 . S
N267 H270 0.984 . S
N267 H271 0.985 . S
H268 N263 0.984 . S
H269 N263 0.985 . S
H270 N267 0.984 . S
H271 N267 0.985 . S
H272 N266 0.984 . S
H273 N266 0.984 . S
H274 N262 0.984 . S
H275 N262 0.985 . S
C276 C277 1.363 . S
C276 C282 1.379 . S
C276 N284 1.356 . S
C277 C276 1.363 . S
C277 C283 1.363 . S
C278 C279 1.363 . S
C278 C283 1.379 . S
C278 N285 1.356 . S
C279 C278 1.363 . S
C279 C282 1.363 . S
N280 C282 1.356 . S
N280 H292 0.984 . S
N280 H293 0.985 . S
N281 C283 1.356 . S
N281 H286 0.984 . S
N281 H287 0.985 . S
C282 C276 1.379 . S
C282 C279 1.363 . S
C282 N280 1.356 . S
C283 C277 1.363 . S
C283 C278 1.379 . S
C283 N281 1.356 . S
N284 C276 1.356 . S
N284 H290 0.984 . S
N284 H291 0.984 . S
N285 C278 1.356 . S
N285 H288 0.984 . S
N285 H289 0.985 . S
H286 N281 0.984 . S
H287 N281 0.985 . S
H288 N285 0.984 . S
H289 N285 0.985 . S
H290 N284 0.984 . S
H291 N284 0.984 . S
H292 N280 0.984 . S
H293 N280 0.985 . S
C294 C295 1.363 . S
C294 C300 1.379 . S
C294 N302 1.356 . S
C295 C294 1.363 . S
C295 C301 1.363 1_565 S
C296 C297 1.363 1_545 S
C296 C301 1.379 . S
C296 N303 1.356 . S
C297 C296 1.363 1_565 S
C297 C300 1.363 . S
N298 C300 1.356 . S
N298 H310 0.984 . S
N298 H311 0.985 . S
N299 C301 1.356 . S
N299 H304 0.984 . S
N299 H305 0.985 . S
C300 C294 1.379 . S
C300 C297 1.363 . S
C300 N298 1.356 . S
C301 C295 1.363 1_545 S
C301 C296 1.379 . S
C301 N299 1.356 . S
N302 C294 1.356 . S
N302 H308 0.984 . S
N302 H309 0.984 . S
N303 C296 1.356 . S
N303 H306 0.984 . S
N303 H307 0.985 . S
H304 N299 0.984 . S
H305 N299 0.985 . S
H306 N303 0.984 . S
H307 N303 0.985 . S
H308 N302 0.984 . S
H309 N302 0.984 . S
H310 N298 0.984 . S
H311 N298 0.985 . S
C312 C313 1.363 . S
C312 C318 1.379 . S
C312 N320 1.356 . S
C313 C312 1.363 . S
C313 C319 1.363 . S
C314 C315 1.363 . S
C314 C319 1.379 . S
C314 N321 1.356 . S
C315 C314 1.363 . S
C315 C318 1.363 . S
N316 C318 1.356 . S
N316 H328 0.984 . S
N316 H329 0.985 . S
N317 C319 1.356 . S
N317 H322 0.984 1_556 S
N317 H323 0.985 1_556 S
C318 C312 1.379 . S
C318 C315 1.363 . S
C318 N316 1.356 . S
C319 C313 1.363 . S
C319 C314 1.379 . S
C319 N317 1.356 . S
N320 C312 1.356 . S
N320 H326 0.984 . S
N320 H327 0.984 . S
N321 C314 1.356 . S
N321 H324 0.984 . S
N321 H325 0.985 . S
H322 N317 0.984 1_554 S
H323 N317 0.985 1_554 S
H324 N321 0.984 . S
H325 N321 0.985 . S
H326 N320 0.984 . S
H327 N320 0.984 . S
H328 N316 0.984 . S
H329 N316 0.985 . S
C330 C331 1.363 . S
C330 C336 1.379 . S
C330 N338 1.356 . S
C331 C330 1.363 . S
C331 C337 1.363 1_455 S
C332 C333 1.363 1_655 S
C332 C337 1.379 . S
C332 N339 1.356 . S
C333 C332 1.363 1_455 S
C333 C336 1.363 . S
N334 C336 1.356 . S
N334 H346 0.984 . S
N334 H347 0.985 . S
N335 C337 1.356 . S
N335 H340 0.984 . S
N335 H341 0.985 . S
C336 C330 1.379 . S
C336 C333 1.363 . S
C336 N334 1.356 . S
C337 C331 1.363 1_655 S
C337 C332 1.379 . S
C337 N335 1.356 . S
N338 C330 1.356 . S
N338 H344 0.984 . S
N338 H345 0.984 . S
N339 C332 1.356 . S
N339 H342 0.984 . S
N339 H343 0.985 . S
H340 N335 0.984 . S
H341 N335 0.985 . S
H342 N339 0.984 . S
H343 N339 0.985 . S
H344 N338 0.984 . S
H345 N338 0.984 . S
H346 N334 0.984 . S
H347 N334 0.985 . S
C348 C349 1.363 . S
C348 C354 1.379 . S
C348 N356 1.356 . S
C349 C348 1.363 . S
C349 C355 1.363 1_545 S
C350 C351 1.363 1_565 S
C350 C355 1.379 . S
C350 N357 1.356 . S
C351 C350 1.363 1_545 S
C351 C354 1.363 . S
N352 C354 1.356 . S
N352 H364 0.984 . S
N352 H365 0.985 . S
N353 C355 1.356 . S
N353 H358 0.984 . S
N353 H359 0.985 . S
C354 C348 1.379 . S
C354 C351 1.363 . S
C354 N352 1.356 . S
C355 C349 1.363 1_565 S
C355 C350 1.379 . S
C355 N353 1.356 . S
N356 C348 1.356 . S
N356 H362 0.984 . S
N356 H363 0.984 . S
N357 C350 1.356 . S
N357 H360 0.984 . S
N357 H361 0.985 . S
H358 N353 0.984 . S
H359 N353 0.985 . S
H360 N357 0.984 . S
H361 N357 0.985 . S
H362 N356 0.984 . S
H363 N356 0.984 . S
H364 N352 0.984 . S
H365 N352 0.985 . S
C366 C367 1.363 . S
C366 C372 1.379 . S
C366 N374 1.356 . S
C367 C366 1.363 . S
C367 C373 1.363 . S
C368 C369 1.363 . S
C368 C373 1.379 . S
C368 N375 1.356 . S
C369 C368 1.363 . S
C369 C372 1.363 . S
N370 C372 1.356 . S
N370 H382 0.984 . S
N370 H383 0.985 . S
N371 C373 1.356 . S
N371 H376 0.984 . S
N371 H377 0.985 . S
C372 C366 1.379 . S
C372 C369 1.363 . S
C372 N370 1.356 . S
C373 C367 1.363 . S
C373 C368 1.379 . S
C373 N371 1.356 . S
N374 C366 1.356 . S
N374 H380 0.984 . S
N374 H381 0.984 1_556 S
N375 C368 1.356 . S
N375 H378 0.984 . S
N375 H379 0.985 . S
H376 N371 0.984 . S
H377 N371 0.985 . S
H378 N375 0.984 . S
H379 N375 0.985 . S
H380 N374 0.984 . S
H381 N374 0.984 1_554 S
H382 N370 0.984 . S
H383 N370 0.985 . S
C384 C385 1.363 . S
C384 C390 1.379 . S
C384 N392 1.356 . S
C385 C384 1.363 . S
C385 C391 1.363 1_655 S
C386 C387 1.362 1_455 S
C386 C391 1.379 . S
C386 N393 1.356 . S
C387 C386 1.362 1_655 S
C387 C390 1.360 . S
N388 C390 1.356 . S
N388 H400 0.984 . S
N388 H401 0.985 . S
N389 C391 1.356 . S
N389 H394 0.984 . S
N389 H395 0.985 . S
C390 C384 1.379 . S
C390 C387 1.360 . S
C390 N388 1.356 . S
C391 C385 1.363 1_455 S
C391 C386 1.379 . S
C391 N389 1.356 . S
N392 C384 1.356 . S
N392 H398 0.984 . S
N392 H399 0.984 . S
N393 C386 1.356 . S
N393 H396 0.984 . S
N393 H397 0.985 . S
H394 N389 0.984 . S
H395 N389 0.985 . S
H396 N393 0.984 . S
H397 N393 0.985 . S
H398 N392 0.984 . S
H399 N392 0.984 . S
H400 N388 0.984 . S
H401 N388 0.985 . S
C189 C63 1.491 . S
C187 C6 1.479 1_455 S
C205 C22 1.588 . S
C207 C111 1.611 . S
C223 C34 1.301 . S
C225 C183 1.316 . S
C241 C7 1.472 . S
C243 C87 1.494 . S
C261 C135 1.607 1_565 S
C259 C23 1.588 . S
C277 C35 1.301 . S
C279 C159 1.320 . S
C297 C120 1.601 . S
C295 C36 1.595 . S
C313 C9 1.780 . S
C315 C174 1.810 . S
C333 C78 1.493 1_455 S
C331 C21 1.466 1_455 S
C351 C126 1.612 1_545 S
C349 C37 1.595 . S
C369 C168 1.806 . S
C367 C8 1.779 . S
C385 C20 1.466 1_655 S
C387 C72 1.489 . S
