# Generated by pormake.
# Topology tsx, (6,3)-cn, num edge types: 1
# Building blocks:
#     Node 0, Type 0, BuildingBlock: MIDCAF_clean_sbu_0, # of connection points: 6
#     Node 1, Type 0, BuildingBlock: MIDCAF_clean_sbu_0, # of connection points: 6
#     Node 2, Type 1, BuildingBlock: VETTIZ_charged_linker_0, # of connection points: 3
#     Node 3, Type 1, BuildingBlock: VETTIZ_charged_linker_0, # of connection points: 3
#     Node 4, Type 1, BuildingBlock: VETTIZ_charged_linker_0, # of connection points: 3
#     Node 5, Type 1, BuildingBlock: VETTIZ_charged_linker_0, # of connection points: 3
#     Edge 6, Type (0, 1), BuildingBlock: EYOCIG_clean_linker_4, # of connection points: 2
#     Edge 7, Type (0, 1), BuildingBlock: EYOCIG_clean_linker_4, # of connection points: 2
#     Edge 8, Type (0, 1), BuildingBlock: EYOCIG_clean_linker_4, # of connection points: 2
#     Edge 9, Type (0, 1), BuildingBlock: EYOCIG_clean_linker_4, # of connection points: 2
#     Edge 10, Type (0, 1), BuildingBlock: EYOCIG_clean_linker_4, # of connection points: 2
#     Edge 11, Type (0, 1), BuildingBlock: EYOCIG_clean_linker_4, # of connection points: 2
#     Edge 12, Type (0, 1), BuildingBlock: EYOCIG_clean_linker_4, # of connection points: 2
#     Edge 13, Type (0, 1), BuildingBlock: EYOCIG_clean_linker_4, # of connection points: 2
#     Edge 14, Type (0, 1), BuildingBlock: EYOCIG_clean_linker_4, # of connection points: 2
#     Edge 15, Type (0, 1), BuildingBlock: EYOCIG_clean_linker_4, # of connection points: 2
#     Edge 16, Type (0, 1), BuildingBlock: EYOCIG_clean_linker_4, # of connection points: 2
#     Edge 17, Type (0, 1), BuildingBlock: EYOCIG_clean_linker_4, # of connection points: 2
# Relax obj value: 0.121
# Max RMSD: 0.183
# Mean RMSD: 0.115
data_MOF--net-tsx--node1-MIDCAF_clean_sbu_0--node2-VETTIZ_charged_linker_0--edge1-EYOCIG_clean_linker_4
_symmetry_space_group_name_H-M    P1
_symmetry_Int_Tables_number       1
_symmetry_cell_setting            triclinic
loop_
_symmetry_equiv_pos_as_xyz
'x, y, z'
_cell_length_a     19.207615
_cell_length_b     20.474868
_cell_length_c     40.390914
_cell_angle_alpha  90.612851
_cell_angle_beta   95.533562
_cell_angle_gamma 90.272251
loop_
_atom_site_label
_atom_site_type_symbol
_atom_site_fract_x
_atom_site_fract_y
_atom_site_fract_z
_atom_type_partial_charge
Zn0 Zn 0.92335 0.0004 0.95672 0.0
Zn1 Zn 0.16178 0.0031 0.03329 0.0
Zn2 Zn 0.04277 0.00127 -0.00533 0.0
C3 C 0.13705 0.13034 0.01196 0.0
C4 C 0.18087 0.91863 -0.0189 0.0
O5 O 0.9641 0.94203 0.01879 0.0
O6 O 0.87592 0.93015 -0.02049 0.0
C7 C 0.94809 0.12854 -0.02155 0.0
O8 O 0.07745 0.10465 0.00153 0.0
O9 O 0.18599 0.09557 0.02509 0.0
O10 O 0.20886 0.93319 0.00975 0.0
O11 O 0.12142 0.94306 0.97011 0.0
O12 O 0.89898 0.09272 0.96553 0.0
O13 O 1.00799 0.10396 -0.01155 0.0
O14 O 0.06521 0.95776 0.94686 0.0
O15 O 0.96727 0.97973 0.91543 0.0
C16 C 0.02933 0.95922 0.91829 0.0
O17 O 0.02044 0.95774 0.04204 0.0
O18 O 0.11739 0.982 0.07422 0.0
C19 C 0.90457 0.91647 0.00796 0.0
C20 C 0.05566 0.95998 0.07079 0.0
Zn21 Zn 0.66455 0.50398 0.53361 0.0
Zn22 Zn 0.4254 0.50132 0.45701 0.0
Zn23 Zn 0.54494 0.50256 0.49498 0.0
C24 C 0.53125 0.46015 0.41862 0.0
C25 C 0.45064 0.62961 0.47877 0.0
O26 O 0.52278 0.45958 0.54241 0.0
O27 O 0.61974 0.48373 0.57461 0.0
C28 C 0.6814 0.41781 0.48162 0.0
O29 O 0.56698 0.45868 0.44722 0.0
O30 O 0.46923 0.48075 0.41568 0.0
O31 O 0.40146 0.59366 0.46604 0.0
O32 O 0.5107 0.60522 0.48862 0.0
O33 O 0.71 0.43277 0.51012 0.0
O34 O 0.6224 0.44301 0.47058 0.0
O35 O 0.58037 0.60577 0.50146 0.0
O36 O 0.68906 0.59623 0.52478 0.0
C37 C 0.64026 0.63116 0.51163 0.0
O38 O 0.46623 0.44413 0.5193 0.0
O39 O 0.37831 0.43106 0.47998 0.0
C40 C 0.55797 0.46182 0.57115 0.0
C41 C 0.4069 0.41816 0.50855 0.0
C42 C 0.23021 0.92525 0.44919 0.0
C43 C 0.27902 0.8819 0.43745 0.0
C44 C 0.27995 0.87128 0.40313 0.0
C45 C 0.18211 0.94437 0.39224 0.0
C46 C 0.18212 0.9562 0.42601 0.0
C47 C 0.1255 0.0036 0.43343 0.0
H48 H 0.86406 0.207 0.37222 0.0
C49 C 0.12532 0.98244 0.3747 0.0
C50 C 0.09255 0.01876 0.39849 0.0
H51 H 0.93425 0.17495 0.47525 0.0
H52 H 0.01968 0.09615 0.45935 0.0
H53 H 0.02016 0.20385 0.34348 0.0
H54 H 0.85349 0.06716 0.35236 0.0
H55 H 0.89402 0.03875 0.31797 0.0
H56 H 0.85413 0.1185 0.31676 0.0
H57 H 0.93552 0.20737 0.32043 0.0
H58 H 1.00538 0.16032 0.30553 0.0
C59 C 0.1609 0.06408 0.45118 0.0
C60 C 0.07387 0.96739 0.45401 0.0
C61 C 0.06899 0.94985 0.25001 0.0
C62 C 0.01868 0.97776 0.22706 0.0
C63 C 0.97473 0.02695 0.23744 0.0
C64 C 0.97999 0.04765 0.27074 0.0
C65 C 0.02954 0.01849 0.29383 0.0
C66 C 0.07355 0.97101 0.28326 0.0
C67 C 0.12393 0.9467 0.31117 0.0
C68 C 0.10079 0.98548 0.34047 0.0
C69 C 0.0457 0.02728 0.33009 0.0
C70 C 0.19926 0.96524 0.30365 0.0
C71 C 0.11105 0.87242 0.31465 0.0
C72 C 0.89843 0.18328 0.39124 0.0
C73 C 0.89378 0.19704 0.42488 0.0
C74 C 0.93814 0.16491 0.44914 0.0
C75 C 0.98752 0.1194 0.4398 0.0
C76 C 0.99219 0.10614 0.40581 0.0
C77 C 0.94741 0.13766 0.38229 0.0
C78 C 0.95597 0.11532 0.3475 0.0
C79 C 0.01393 0.06583 0.35372 0.0
C80 C 0.03618 0.06107 0.38784 0.0
C81 C 0.98011 0.17464 0.32792 0.0
C82 C 0.886 0.0836 0.33262 0.0
H83 H 0.23523 0.89183 0.35463 0.0
H84 H 0.22865 0.93378 0.47563 0.0
H85 H 0.06045 0.91849 0.44283 0.0
H86 H 0.02364 0.99285 0.45479 0.0
H87 H 0.09741 0.95978 0.47986 0.0
H88 H 0.20769 0.07906 0.43883 0.0
H89 H 0.17846 0.05322 0.47755 0.0
H90 H 0.12691 0.10731 0.4504 0.0
H91 H 0.10423 0.91276 0.24222 0.0
H92 H 0.93658 0.04965 0.21971 0.0
H93 H 0.94526 0.08555 0.27717 0.0
H94 H 0.19947 0.00738 0.28648 0.0
H95 H 0.22518 0.92387 0.29185 0.0
H96 H 0.2324 0.98156 0.32621 0.0
H97 H 0.05401 0.86134 0.31233 0.0
H98 H 0.13138 0.85314 0.33905 0.0
H99 H 0.13465 0.84436 0.2949 0.0
H100 H 0.31726 0.83781 0.39381 0.0
C101 C 0.23208 0.90248 0.38046 0.0
C102 C 0.14975 0.1736 0.56264 0.0
C103 C 0.20268 0.20961 0.58129 0.0
C104 C 0.21177 0.20344 0.61598 0.0
C105 C 0.11722 0.12432 0.61343 0.0
C106 C 0.10728 0.13135 0.57931 0.0
C107 C 0.04797 0.08896 0.56389 0.0
H108 H 0.79928 0.85891 0.58606 0.0
C109 C 0.06655 0.07542 0.62314 0.0
C110 C 0.02529 0.05441 0.59431 0.0
H111 H 0.84456 0.94397 0.49323 0.0
H112 H 0.93559 0.01194 0.52242 0.0
H113 H 0.94838 0.83523 0.61244 0.0
H114 H 0.81366 -0.00438 0.63104 0.0
H115 H 0.8568 0.97192 0.66945 0.0
H116 H 0.80146 0.91402 0.64536 0.0
H117 H 0.88621 0.83 0.6427 0.0
H118 H 0.97397 0.86047 0.65341 0.0
C119 C 0.07741 0.04093 0.53904 0.0
C120 C 0.99038 0.13434 0.54799 0.0
C121 C 0.0782 0.00493 0.74376 0.0
C122 C 0.04112 0.9579 0.76 0.0
C123 C 0.98682 0.92235 0.7422 0.0
C124 C 0.96987 0.93307 0.70818 0.0
C125 C 1.00785 0.97982 0.6919 0.0
C126 C 0.06073 0.01504 0.70974 0.0
C127 C 0.09576 0.06219 0.6883 0.0
C128 C 0.05657 0.0481 0.65448 0.0
C129 C 1.00471 0.00054 0.65684 0.0
C130 C 0.17432 0.04399 0.68949 0.0
C131 C 0.08148 0.13237 0.70068 0.0
C132 C 0.8281 0.8931 0.57217 0.0
C133 C 0.81488 0.89712 0.53763 0.0
C134 C 0.85384 0.94102 0.52006 0.0
C135 C 0.90654 0.98021 0.53707 0.0
C136 C 0.91991 0.97519 0.5719 0.0
C137 C 0.88051 0.93215 0.58872 0.0
C138 C 0.90287 0.93052 0.62529 0.0
C139 C 0.96194 0.98003 0.628 0.0
C140 C 0.97192 0.00657 0.59678 0.0
C141 C 0.92885 0.86056 0.63421 0.0
C142 C 0.84062 0.95377 0.64403 0.0
H143 H 0.17918 0.15832 0.65869 0.0
H144 H 0.14182 0.17806 0.53583 0.0
H145 H 0.97994 0.17463 0.56551 0.0
H146 H 0.93983 0.10931 0.54181 0.0
H147 H 1.0071 0.15671 0.52511 0.0
H148 H 0.13048 0.02402 0.54857 0.0
H149 H 0.08166 0.06474 0.51476 0.0
H150 H 0.04566 -0.00398 0.53495 0.0
H151 H 0.11974 0.03329 0.75723 0.0
H152 H 0.95724 0.8865 0.75468 0.0
H153 H 0.92793 0.90447 0.6959 0.0
H154 H 0.18215 0.99072 0.69342 0.0
H155 H 0.20564 0.07018 0.7101 0.0
H156 H 0.19706 0.05368 0.66591 0.0
H157 H 0.02803 0.13598 0.70899 0.0
H158 H 0.08265 0.1693 0.68099 0.0
H159 H 0.11935 0.14668 0.72208 0.0
H160 H 0.25216 0.23127 0.6306 0.0
C161 C 0.16931 0.16109 0.63218 0.0
C162 C 0.73371 0.42936 0.94882 0.0
C163 C 0.78044 0.38375 0.93721 0.0
C164 C 0.78012 0.37167 0.90295 0.0
C165 C 0.68495 0.44767 0.89189 0.0
C166 C 0.68621 0.46091 0.92559 0.0
C167 C 0.63181 0.51079 0.93283 0.0
H168 H 0.3656 0.70911 0.87168 0.0
C169 C 0.62897 0.48662 0.87429 0.0
C170 C 0.59825 0.52518 0.89791 0.0
H171 H 0.44942 0.69193 0.97398 0.0
H172 H 0.53412 0.6119 0.95825 0.0
H173 H 0.51786 0.70835 0.84067 0.0
H174 H 0.35954 0.56563 0.85485 0.0
H175 H 0.39554 0.54016 0.81869 0.0
H176 H 0.35269 0.61837 0.81958 0.0
H177 H 0.43319 0.70634 0.81757 0.0
H178 H 0.50559 0.66077 0.80402 0.0
C179 C 0.66986 0.57101 0.94961 0.0
C180 C 0.57955 0.47767 0.95421 0.0
C181 C 0.56865 0.44967 0.75012 0.0
C182 C 0.51807 0.47721 0.72719 0.0
C183 C 0.4738 0.52614 0.73754 0.0
C184 C 0.4794 0.54736 0.77076 0.0
C185 C 0.52977 0.51907 0.79378 0.0
C186 C 0.57361 0.47139 0.78328 0.0
C187 C 0.62449 0.44765 0.81113 0.0
C188 C 0.60278 0.48793 0.84022 0.0
C189 C 0.54742 0.52944 0.82986 0.0
C190 C 0.69965 0.46498 0.80289 0.0
C191 C 0.61077 0.37368 0.81539 0.0
C192 C 0.40259 0.68823 0.89057 0.0
C193 C 0.40137 0.70576 0.924 0.0
C194 C 0.44983 0.67799 0.94808 0.0
C195 C 0.49881 0.63192 0.93883 0.0
C196 C 0.49923 0.61408 0.90508 0.0
C197 C 0.45165 0.64263 0.88169 0.0
C198 C 0.45807 0.61788 0.84711 0.0
C199 C 0.51725 0.56969 0.85332 0.0
C200 C 0.54198 0.56761 0.88725 0.0
C201 C 0.47931 0.67613 0.82595 0.0
C202 C 0.388 0.58406 0.83408 0.0
H203 H 0.73522 0.39182 0.85445 0.0
H204 H 0.73331 0.43923 0.97521 0.0
H205 H 0.56003 0.43093 0.94237 0.0
H206 H 0.53295 0.5075 0.95723 0.0
H207 H 0.6052 0.46616 -0.02074 0.0
H208 H 0.71982 0.58062 0.93865 0.0
H209 H 0.68254 0.5632 0.97669 0.0
H210 H 0.63966 0.61644 0.94588 0.0
H211 H 0.604 0.41264 0.74237 0.0
H212 H 0.4353 0.54843 0.71983 0.0
H213 H 0.44434 0.58502 0.77716 0.0
H214 H 0.69984 0.5077 0.78609 0.0
H215 H 0.72387 0.4235 0.79036 0.0
H216 H 0.73426 0.47999 0.82521 0.0
H217 H 0.55363 0.363 0.81279 0.0
H218 H 0.62994 0.3554 0.84017 0.0
H219 H 0.63476 0.34441 0.7962 0.0
H220 H 0.81587 0.33654 0.89373 0.0
C221 C 0.73301 0.40361 0.88022 0.0
C222 C 0.64586 0.67132 0.06169 0.0
C223 C 0.69745 0.70943 0.08007 0.0
C224 C 0.70502 0.70618 0.1149 0.0
C225 C 0.6125 0.62511 0.11309 0.0
C226 C 0.60362 0.62956 0.07879 0.0
C227 C 0.54573 0.58503 0.06377 0.0
H228 H 0.29999 0.35433 0.08714 0.0
C229 C 0.56267 0.57599 0.12335 0.0
C230 C 0.5221 0.55325 0.09471 0.0
H231 H 0.33862 0.44518 -0.00528 0.0
H232 H 0.42982 0.51351 0.02392 0.0
H233 H 0.45206 0.33348 0.11303 0.0
H234 H 0.31211 0.48925 0.13248 0.0
H235 H 0.35693 0.46675 0.1707 0.0
H236 H 0.30314 0.40727 0.1469 0.0
H237 H 0.39 0.32563 0.1432 0.0
H238 H 0.47668 0.3585 0.15414 0.0
C239 C 0.57799 0.53441 0.0412 0.0
C240 C 0.48738 0.62663 0.04528 0.0
C241 C 0.57828 0.50606 0.24416 0.0
C242 C 0.54302 0.45792 0.26055 0.0
C243 C 0.48972 0.42083 0.24294 0.0
C244 C 0.4719 0.43118 0.20896 0.0
C245 C 0.50793 0.47916 0.19256 0.0
C246 C 0.55994 0.5158 0.21017 0.0
C247 C 0.59317 0.56385 0.18852 0.0
C248 C 0.55376 0.54883 0.15486 0.0
C249 C 0.50346 0.49984 0.15749 0.0
C250 C 0.67209 0.54741 0.18944 0.0
C251 C 0.57738 0.63371 0.20088 0.0
C252 C 0.32775 0.38941 0.07329 0.0
C253 C 0.31256 0.39513 0.0389 0.0
C254 C 0.34973 0.44062 0.0214 0.0
C255 C 0.40261 0.47974 0.0383 0.0
C256 C 0.4181 0.47273 0.07289 0.0
C257 C 0.38027 0.42849 0.08974 0.0
C258 C 0.40335 0.42697 0.12627 0.0
C259 C 0.4609 0.47808 0.12883 0.0
C260 C 0.46978 0.50472 0.09757 0.0
C261 C 0.43164 0.35767 0.1349 0.0
C262 C 0.34082 0.4482 0.14534 0.0
H263 H 0.67131 0.66395 0.15814 0.0
H264 H 0.63881 0.67375 0.03479 0.0
H265 H 0.43438 0.60992 0.05011 0.0
H266 H 0.49121 0.62535 0.01808 0.0
H267 H 0.49044 0.67867 0.0535 0.0
H268 H 0.62498 0.51167 0.05455 0.0
H269 H 0.59439 0.55829 0.01863 0.0
H270 H 0.54162 0.49408 0.03329 0.0
H271 H 0.61903 0.53556 0.2575 0.0
H272 H 0.46158 0.38409 0.25554 0.0
H273 H 0.43081 0.40138 0.19682 0.0
H274 H 0.68071 0.49386 0.19161 0.0
H275 H 0.70245 0.57146 0.21103 0.0
H276 H 0.69527 0.56081 0.16648 0.0
H277 H 0.52496 0.63577 0.21042 0.0
H278 H 0.57498 0.67018 0.18083 0.0
H279 H 0.6166 0.64976 0.22139 0.0
H280 H 0.74421 0.73575 0.1293 0.0
C281 C 0.66269 0.66445 0.13153 0.0
C282 C 0.17605 0.25294 0.00896 0.0
C283 C 0.15056 0.19891 0.00856 0.0
C284 C 0.21839 0.30958 0.01372 0.0
C285 C 0.26154 0.35105 0.0222 0.0
C286 C 0.25559 0.83485 0.94994 0.0
C287 C 0.21683 0.87318 0.96155 0.0
C288 C 0.30572 0.78987 0.94034 0.0
C289 C 0.34962 0.75149 0.93332 0.0
C290 C 0.83197 0.83307 0.04032 0.0
C291 C 0.86908 0.87133 0.02765 0.0
C292 C 0.78441 0.7888 0.05281 0.0
C293 C 0.7435 0.75192 0.06391 0.0
C294 C 0.90964 0.25107 -0.02036 0.0
C295 C 0.93518 0.19734 -0.01898 0.0
C296 C 0.86782 0.30645 0.97192 0.0
C297 C 0.82629 0.34521 0.95949 0.0
C298 C 0.6797 0.75362 0.50807 0.0
C299 C 0.65418 0.69962 0.50798 0.0
C300 C 0.72179 0.81049 0.51254 0.0
C301 C 0.76463 0.85232 0.52091 0.0
C302 C 0.75246 0.33038 0.45087 0.0
C303 C 0.71557 0.37043 0.46244 0.0
C304 C 0.80047 0.2834 0.44125 0.0
C305 C 0.84324 0.24394 0.43419 0.0
C306 C 0.33532 0.33495 0.54148 0.0
C307 C 0.3718 0.3732 0.52846 0.0
C308 C 0.28862 0.29036 0.55432 0.0
C309 C 0.24829 0.25305 0.56548 0.0
C310 C 0.41129 0.75175 0.47992 0.0
C311 C 0.43751 0.69834 0.48135 0.0
C312 C 0.36828 0.80628 0.47212 0.0
C313 C 0.32571 0.84402 0.45964 0.0
C314 C 0.01153 0.93831 0.12879 0.0
C315 C 0.0236 0.94496 0.10034 0.0
C316 C 1.00939 0.9445 0.16343 0.0
C317 C 0.01449 0.95893 0.19254 0.0
C318 C 0.07032 0.93663 0.85957 0.0
C319 C 0.06031 0.94388 0.88834 0.0
C320 C 0.06759 0.93936 0.82462 0.0
C321 C 0.05613 0.94835 0.79518 0.0
C322 C 0.51298 0.43924 0.62892 0.0
C323 C 0.5258 0.44652 0.60063 0.0
C324 C 0.50986 0.44465 0.66352 0.0
C325 C 0.51445 0.45878 0.69265 0.0
C326 C 0.57287 0.4373 0.36007 0.0
C327 C 0.56246 0.4447 0.38876 0.0
C328 C 0.57037 0.43993 0.32514 0.0
C329 C 0.55861 0.44879 0.29571 0.0
loop_
_geom_bond_atom_site_label_1
_geom_bond_atom_site_label_2
_geom_bond_distance
_geom_bond_site_symmetry_2
_ccdc_geom_bond_type
Zn0 O6 1.920 1_545 S
Zn0 O12 1.898 . S
Zn0 O15 1.905 1_545 S
Zn1 O9 1.905 . S
Zn1 O10 1.898 1_545 S
Zn1 O18 1.920 1_545 S
Zn2 O5 2.080 1_445 S
Zn2 O8 2.114 . S
Zn2 O11 2.120 1_545 S
Zn2 O13 2.120 1_455 S
Zn2 O14 2.114 1_554 S
Zn2 O17 2.080 . S
C3 O8 1.166 . S
C3 O9 1.182 . S
C4 O10 1.167 . S
C4 O11 1.299 . S
O5 Zn2 2.080 1_665 S
O5 C19 1.305 . S
O6 Zn0 1.920 1_565 S
O6 C19 1.234 1_556 S
C7 O12 1.167 . S
C7 O13 1.299 1_556 S
O8 Zn2 2.114 . S
O8 C3 1.166 . S
O9 Zn1 1.905 . S
O9 C3 1.182 . S
O10 Zn1 1.898 1_565 S
O10 C4 1.167 . S
O11 Zn2 2.120 1_565 S
O11 C4 1.299 . S
O12 Zn0 1.898 . S
O12 C7 1.167 . S
O13 Zn2 2.120 1_655 S
O13 C7 1.299 1_554 S
O14 Zn2 2.114 1_556 S
O14 C16 1.161 1_445 S
O15 Zn0 1.905 1_565 S
O15 C16 1.195 . S
C16 O14 1.161 1_665 S
C16 O15 1.195 . S
O17 Zn2 2.080 . S
O17 C20 1.305 1_545 S
O18 Zn1 1.920 1_565 S
O18 C20 1.234 . S
C19 O5 1.305 . S
C19 O6 1.234 1_554 S
C20 O17 1.305 1_565 S
C20 O18 1.234 . S
Zn21 O27 1.920 . S
Zn21 O33 1.898 . S
Zn21 O36 1.905 . S
Zn22 O30 1.905 . S
Zn22 O31 1.898 . S
Zn22 O39 1.920 . S
Zn23 O26 2.080 . S
Zn23 O29 2.114 . S
Zn23 O32 2.120 . S
Zn23 O34 2.120 . S
Zn23 O35 2.114 . S
Zn23 O38 2.080 . S
C24 O29 1.166 . S
C24 O30 1.182 . S
C25 O31 1.167 . S
C25 O32 1.299 . S
O26 Zn23 2.080 . S
O26 C40 1.305 . S
O27 Zn21 1.920 . S
O27 C40 1.234 . S
C28 O33 1.167 . S
C28 O34 1.299 . S
O29 Zn23 2.114 . S
O29 C24 1.166 . S
O30 Zn22 1.905 . S
O30 C24 1.182 . S
O31 Zn22 1.898 . S
O31 C25 1.167 . S
O32 Zn23 2.120 . S
O32 C25 1.299 . S
O33 Zn21 1.898 . S
O33 C28 1.167 . S
O34 Zn23 2.120 . S
O34 C28 1.299 . S
O35 Zn23 2.114 . S
O35 C37 1.166 . S
O36 Zn21 1.905 . S
O36 C37 1.182 . S
C37 O35 1.166 . S
C37 O36 1.182 . S
O38 Zn23 2.080 . S
O38 C41 1.305 . S
O39 Zn22 1.920 . S
O39 C41 1.234 . S
C40 O26 1.305 . S
C40 O27 1.234 . S
C41 O38 1.305 . S
C41 O39 1.234 . S
C42 C43 1.391 . S
C42 C46 1.391 . S
C42 H84 0.948 . S
C43 C42 1.391 . S
C43 C44 1.391 . S
C44 C43 1.391 . S
C44 H100 0.947 . S
C44 C101 1.392 . S
C45 C46 1.391 . S
C45 C49 1.397 . S
C45 C101 1.419 . S
C46 C42 1.391 . S
C46 C45 1.391 . S
C46 C47 1.399 . S
C47 C46 1.399 . S
C47 C50 1.396 1_565 S
C47 C59 1.453 1_565 S
C47 C60 1.684 . S
H48 C72 0.948 . S
C49 C45 1.397 . S
C49 C50 1.394 1_565 S
C49 C68 1.723 . S
C50 C47 1.396 1_545 S
C50 C49 1.394 1_545 S
C50 C80 1.723 . S
H51 C74 0.947 . S
H52 C75 0.948 1_455 S
H53 C81 0.982 1_455 S
H54 C82 0.979 . S
H55 C82 0.980 . S
H56 C82 0.983 . S
H57 C81 0.979 . S
H58 C81 0.977 . S
C59 C47 1.453 1_545 S
C59 H88 0.982 . S
C59 H89 0.979 . S
C59 H90 0.977 . S
C60 C47 1.684 . S
C60 H85 0.979 . S
C60 H86 0.980 1_565 S
C60 H87 0.983 . S
C61 C62 1.391 1_565 S
C61 C66 1.392 . S
C61 H91 0.948 . S
C62 C61 1.391 1_545 S
C62 C63 1.391 . S
C63 C62 1.391 . S
C63 C64 1.392 . S
C63 H92 0.947 1_455 S
C64 C63 1.392 . S
C64 C65 1.419 . S
C64 H93 0.948 1_455 S
C65 C64 1.419 . S
C65 C66 1.382 1_545 S
C65 C69 1.397 . S
C66 C61 1.392 . S
C66 C65 1.382 1_565 S
C66 C67 1.406 . S
C67 C66 1.406 . S
C67 C68 1.396 . S
C67 C70 1.453 . S
C67 C71 1.684 . S
C68 C49 1.723 . S
C68 C67 1.396 . S
C68 C69 1.394 1_565 S
C69 C65 1.397 . S
C69 C68 1.394 1_545 S
C69 C79 1.723 . S
C70 C67 1.453 . S
C70 H94 0.982 1_565 S
C70 H95 0.979 . S
C70 H96 0.977 . S
C71 C67 1.684 . S
C71 H97 0.979 . S
C71 H98 0.980 . S
C71 H99 0.983 . S
C72 H48 0.948 . S
C72 C73 1.391 . S
C72 C77 1.391 . S
C73 C72 1.391 . S
C73 C74 1.391 . S
C74 H51 0.947 . S
C74 C73 1.391 . S
C74 C75 1.392 . S
C75 H52 0.948 1_655 S
C75 C74 1.392 . S
C75 C76 1.419 . S
C76 C75 1.419 . S
C76 C77 1.391 . S
C76 C80 1.397 1_655 S
C77 C72 1.391 . S
C77 C76 1.391 . S
C77 C78 1.399 . S
C78 C77 1.399 . S
C78 C79 1.396 1_655 S
C78 C81 1.453 . S
C78 C82 1.684 . S
C79 C69 1.723 . S
C79 C78 1.396 1_455 S
C79 C80 1.394 . S
C80 C50 1.723 . S
C80 C76 1.397 1_455 S
C80 C79 1.394 . S
C81 H53 0.982 1_655 S
C81 H57 0.979 . S
C81 H58 0.977 . S
C81 C78 1.453 . S
C82 H54 0.979 . S
C82 H55 0.980 . S
C82 H56 0.983 . S
C82 C78 1.684 . S
H83 C101 0.948 . S
H84 C42 0.948 . S
H85 C60 0.979 . S
H86 C60 0.980 1_545 S
H87 C60 0.983 . S
H88 C59 0.982 . S
H89 C59 0.979 . S
H90 C59 0.977 . S
H91 C61 0.948 . S
H92 C63 0.947 1_655 S
H93 C64 0.948 1_655 S
H94 C70 0.982 1_545 S
H95 C70 0.979 . S
H96 C70 0.977 . S
H97 C71 0.979 . S
H98 C71 0.980 . S
H99 C71 0.983 . S
H100 C44 0.947 . S
C101 C44 1.392 . S
C101 C45 1.419 . S
C101 H83 0.948 . S
C102 C103 1.391 . S
C102 C106 1.391 . S
C102 H144 0.948 . S
C103 C102 1.391 . S
C103 C104 1.391 . S
C104 C103 1.391 . S
C104 H160 0.947 . S
C104 C161 1.392 . S
C105 C106 1.391 . S
C105 C109 1.397 . S
C105 C161 1.419 . S
C106 C102 1.391 . S
C106 C105 1.391 . S
C106 C107 1.399 . S
C107 C106 1.399 . S
C107 C110 1.396 . S
C107 C119 1.453 . S
C107 C120 1.684 1_455 S
H108 C132 0.948 . S
C109 C105 1.397 . S
C109 C110 1.394 . S
C109 C128 1.723 . S
C110 C107 1.396 . S
C110 C109 1.394 . S
C110 C140 1.723 1_445 S
H111 C134 0.947 . S
H112 C135 0.948 . S
H113 C141 0.982 . S
H114 C142 0.979 . S
H115 C142 0.980 . S
H116 C142 0.983 . S
H117 C141 0.979 . S
H118 C141 0.977 . S
C119 C107 1.453 . S
C119 H148 0.982 1_545 S
C119 H149 0.979 . S
C119 H150 0.977 1_545 S
C120 C107 1.684 1_655 S
C120 H145 0.979 . S
C120 H146 0.980 . S
C120 H147 0.983 1_655 S
C121 C122 1.391 1_455 S
C121 C126 1.391 . S
C121 H151 0.948 . S
C122 C121 1.391 1_655 S
C122 C123 1.391 1_545 S
C123 C122 1.391 1_565 S
C123 C124 1.392 . S
C123 H152 0.947 . S
C124 C123 1.392 . S
C124 C125 1.419 1_565 S
C124 H153 0.948 . S
C125 C124 1.419 1_545 S
C125 C126 1.391 1_655 S
C125 C129 1.397 . S
C126 C121 1.391 . S
C126 C125 1.391 1_455 S
C126 C127 1.399 . S
C127 C126 1.399 . S
C127 C128 1.396 . S
C127 C130 1.453 . S
C127 C131 1.684 . S
C128 C109 1.723 . S
C128 C127 1.396 . S
C128 C129 1.394 1_455 S
C129 C125 1.397 . S
C129 C128 1.394 1_655 S
C129 C139 1.723 1_545 S
C130 C127 1.453 . S
C130 H154 0.982 . S
C130 H155 0.979 . S
C130 H156 0.977 . S
C131 C127 1.684 . S
C131 H157 0.979 . S
C131 H158 0.980 . S
C131 H159 0.983 . S
C132 H108 0.948 . S
C132 C133 1.391 . S
C132 C137 1.391 . S
C133 C132 1.391 . S
C133 C134 1.391 . S
C134 H111 0.947 . S
C134 C133 1.391 . S
C134 C135 1.392 . S
C135 H112 0.948 . S
C135 C134 1.392 . S
C135 C136 1.419 . S
C136 C135 1.419 . S
C136 C137 1.391 . S
C136 C140 1.397 . S
C137 C132 1.391 . S
C137 C136 1.391 . S
C137 C138 1.399 . S
C138 C137 1.399 . S
C138 C139 1.396 . S
C138 C141 1.453 . S
C138 C142 1.684 . S
C139 C129 1.723 1_565 S
C139 C138 1.396 . S
C139 C140 1.394 . S
C140 C110 1.723 1_665 S
C140 C136 1.397 . S
C140 C139 1.394 . S
C141 H113 0.982 . S
C141 H117 0.979 . S
C141 H118 0.977 . S
C141 C138 1.453 . S
C142 H114 0.979 . S
C142 H115 0.980 . S
C142 H116 0.983 . S
C142 C138 1.684 . S
H143 C161 0.948 . S
H144 C102 0.948 . S
H145 C120 0.979 . S
H146 C120 0.980 . S
H147 C120 0.983 1_455 S
H148 C119 0.982 1_565 S
H149 C119 0.979 . S
H150 C119 0.977 1_565 S
H151 C121 0.948 . S
H152 C123 0.947 . S
H153 C124 0.948 . S
H154 C130 0.982 . S
H155 C130 0.979 . S
H156 C130 0.977 . S
H157 C131 0.979 . S
H158 C131 0.980 . S
H159 C131 0.983 . S
H160 C104 0.947 . S
C161 C104 1.392 . S
C161 C105 1.419 . S
C161 H143 0.948 . S
C162 C163 1.391 . S
C162 C166 1.391 . S
C162 H204 0.948 1_556 S
C163 C162 1.391 . S
C163 C164 1.391 . S
C164 C163 1.391 . S
C164 H220 0.947 . S
C164 C221 1.392 . S
C165 C166 1.391 . S
C165 C169 1.397 . S
C165 C221 1.419 . S
C166 C162 1.391 . S
C166 C165 1.391 . S
C166 C167 1.399 . S
C167 C166 1.399 . S
C167 C170 1.396 . S
C167 C179 1.455 1_556 S
C167 C180 1.684 1_556 S
H168 C192 0.948 . S
C169 C165 1.397 . S
C169 C170 1.394 . S
C169 C188 1.723 . S
C170 C167 1.396 . S
C170 C169 1.394 . S
C170 C200 1.723 . S
H171 C194 0.947 . S
H172 C195 0.931 1_554 S
H173 C201 0.982 . S
H174 C202 0.979 . S
H175 C202 0.980 . S
H176 C202 0.983 . S
H177 C201 0.979 . S
H178 C201 0.977 . S
C179 C167 1.455 1_554 S
C179 H208 0.984 1_554 S
C179 H209 0.976 . S
C179 H210 0.976 . S
C180 C167 1.684 1_554 S
C180 H205 0.972 1_554 S
C180 H206 0.980 . S
C180 H207 0.983 . S
C181 C182 1.391 . S
C181 C186 1.391 . S
C181 H211 0.948 . S
C182 C181 1.391 . S
C182 C183 1.391 . S
C183 C182 1.391 . S
C183 C184 1.392 . S
C183 H212 0.947 . S
C184 C183 1.392 . S
C184 C185 1.419 . S
C184 H213 0.948 . S
C185 C184 1.419 . S
C185 C186 1.391 . S
C185 C189 1.397 . S
C186 C181 1.391 . S
C186 C185 1.391 . S
C186 C187 1.399 . S
C187 C186 1.399 . S
C187 C188 1.396 . S
C187 C190 1.453 . S
C187 C191 1.684 . S
C188 C169 1.723 . S
C188 C187 1.396 . S
C188 C189 1.394 . S
C189 C185 1.397 . S
C189 C188 1.394 . S
C189 C199 1.723 . S
C190 C187 1.453 . S
C190 H214 0.982 . S
C190 H215 0.979 . S
C190 H216 0.977 . S
C191 C187 1.684 . S
C191 H217 0.979 . S
C191 H218 0.980 . S
C191 H219 0.983 . S
C192 H168 0.948 . S
C192 C193 1.391 . S
C192 C197 1.391 . S
C193 C192 1.391 . S
C193 C194 1.391 1_556 S
C194 H171 0.947 . S
C194 C193 1.391 1_554 S
C194 C195 1.392 1_554 S
C195 H172 0.931 1_556 S
C195 C194 1.392 1_556 S
C195 C196 1.419 . S
C196 C195 1.419 . S
C196 C197 1.391 . S
C196 C200 1.397 . S
C197 C192 1.391 . S
C197 C196 1.391 . S
C197 C198 1.399 . S
C198 C197 1.399 . S
C198 C199 1.396 . S
C198 C201 1.453 . S
C198 C202 1.684 . S
C199 C189 1.723 . S
C199 C198 1.396 . S
C199 C200 1.394 . S
C200 C170 1.723 . S
C200 C196 1.397 . S
C200 C199 1.394 . S
C201 H173 0.982 . S
C201 H177 0.979 . S
C201 H178 0.977 . S
C201 C198 1.453 . S
C202 H174 0.979 . S
C202 H175 0.980 . S
C202 H176 0.983 . S
C202 C198 1.684 . S
H203 C221 0.948 . S
H204 C162 0.948 1_554 S
H205 C180 0.972 1_556 S
H206 C180 0.980 . S
H207 C180 0.983 . S
H208 C179 0.984 1_556 S
H209 C179 0.976 . S
H210 C179 0.976 . S
H211 C181 0.948 . S
H212 C183 0.947 . S
H213 C184 0.948 . S
H214 C190 0.982 . S
H215 C190 0.979 . S
H216 C190 0.977 . S
H217 C191 0.979 . S
H218 C191 0.980 . S
H219 C191 0.983 . S
H220 C164 0.947 . S
C221 C164 1.392 . S
C221 C165 1.419 . S
C221 H203 0.948 . S
C222 C223 1.391 . S
C222 C226 1.391 . S
C222 H264 0.948 . S
C223 C222 1.391 . S
C223 C224 1.391 . S
C224 C223 1.391 . S
C224 H280 0.947 . S
C224 C281 1.392 . S
C225 C226 1.391 . S
C225 C229 1.397 . S
C225 C281 1.419 . S
C226 C222 1.391 . S
C226 C225 1.391 . S
C226 C227 1.399 . S
C227 C226 1.399 . S
C227 C230 1.396 . S
C227 C239 1.453 . S
C227 C240 1.684 . S
H228 C252 0.948 . S
C229 C225 1.397 . S
C229 C230 1.394 . S
C229 C248 1.723 . S
C230 C227 1.396 . S
C230 C229 1.394 . S
C230 C260 1.723 . S
H231 C254 0.947 . S
H232 C255 0.948 . S
H233 C261 0.982 . S
H234 C262 0.979 . S
H235 C262 0.980 . S
H236 C262 0.983 . S
H237 C261 0.979 . S
H238 C261 0.977 . S
C239 C227 1.453 . S
C239 H268 0.982 . S
C239 H269 0.979 . S
C239 H270 0.977 . S
C240 C227 1.684 . S
C240 H265 0.979 . S
C240 H266 0.980 . S
C240 H267 0.983 . S
C241 C242 1.391 . S
C241 C246 1.391 . S
C241 H271 0.948 . S
C242 C241 1.391 . S
C242 C243 1.391 . S
C243 C242 1.391 . S
C243 C244 1.392 . S
C243 H272 0.947 . S
C244 C243 1.392 . S
C244 C245 1.419 . S
C244 H273 0.948 . S
C245 C244 1.419 . S
C245 C246 1.391 . S
C245 C249 1.397 . S
C246 C241 1.391 . S
C246 C245 1.391 . S
C246 C247 1.399 . S
C247 C246 1.399 . S
C247 C248 1.396 . S
C247 C250 1.453 . S
C247 C251 1.684 . S
C248 C229 1.723 . S
C248 C247 1.396 . S
C248 C249 1.394 . S
C249 C245 1.397 . S
C249 C248 1.394 . S
C249 C259 1.723 . S
C250 C247 1.453 . S
C250 H274 0.982 . S
C250 H275 0.979 . S
C250 H276 0.977 . S
C251 C247 1.684 . S
C251 H277 0.979 . S
C251 H278 0.980 . S
C251 H279 0.983 . S
C252 H228 0.948 . S
C252 C253 1.391 . S
C252 C257 1.391 . S
C253 C252 1.391 . S
C253 C254 1.391 . S
C254 H231 0.947 . S
C254 C253 1.391 . S
C254 C255 1.392 . S
C255 H232 0.948 . S
C255 C254 1.392 . S
C255 C256 1.419 . S
C256 C255 1.419 . S
C256 C257 1.391 . S
C256 C260 1.397 . S
C257 C252 1.391 . S
C257 C256 1.391 . S
C257 C258 1.399 . S
C258 C257 1.399 . S
C258 C259 1.396 . S
C258 C261 1.453 . S
C258 C262 1.684 . S
C259 C249 1.723 . S
C259 C258 1.396 . S
C259 C260 1.394 . S
C260 C230 1.723 . S
C260 C256 1.397 . S
C260 C259 1.394 . S
C261 H233 0.982 . S
C261 H237 0.979 . S
C261 H238 0.977 . S
C261 C258 1.453 . S
C262 H234 0.979 . S
C262 H235 0.980 . S
C262 H236 0.983 . S
C262 C258 1.684 . S
H263 C281 0.948 . S
H264 C222 0.948 . S
H265 C240 0.979 . S
H266 C240 0.980 . S
H267 C240 0.983 . S
H268 C239 0.982 . S
H269 C239 0.979 . S
H270 C239 0.977 . S
H271 C241 0.948 . S
H272 C243 0.947 . S
H273 C244 0.948 . S
H274 C250 0.982 . S
H275 C250 0.979 . S
H276 C250 0.977 . S
H277 C251 0.979 . S
H278 C251 0.980 . S
H279 C251 0.983 . S
H280 C224 0.947 . S
C281 C224 1.392 . S
C281 C225 1.419 . S
C281 H263 0.948 . S
C282 C283 1.170 . S
C282 C284 1.380 . S
C283 C282 1.170 . S
C284 C282 1.380 . S
C284 C285 1.170 . S
C285 C284 1.170 . S
C286 C287 1.171 . S
C286 C288 1.380 . S
C287 C286 1.171 . S
C288 C286 1.380 . S
C288 C289 1.170 . S
C289 C288 1.170 . S
C290 C291 1.170 . S
C290 C292 1.380 . S
C291 C290 1.170 . S
C292 C290 1.380 . S
C292 C293 1.170 . S
C293 C292 1.170 . S
C294 C295 1.170 . S
C294 C296 1.380 1_554 S
C295 C294 1.170 . S
C296 C294 1.380 1_556 S
C296 C297 1.170 . S
C297 C296 1.170 . S
C298 C299 1.170 . S
C298 C300 1.380 . S
C299 C298 1.170 . S
C300 C298 1.380 . S
C300 C301 1.170 . S
C301 C300 1.170 . S
C302 C303 1.170 . S
C302 C304 1.380 . S
C303 C302 1.170 . S
C304 C302 1.380 . S
C304 C305 1.170 . S
C305 C304 1.170 . S
C306 C307 1.170 . S
C306 C308 1.380 . S
C307 C306 1.170 . S
C308 C306 1.380 . S
C308 C309 1.170 . S
C309 C308 1.170 . S
C310 C311 1.170 . S
C310 C312 1.380 . S
C311 C310 1.170 . S
C312 C310 1.380 . S
C312 C313 1.170 . S
C313 C312 1.170 . S
C314 C315 1.170 . S
C314 C316 1.380 1_565 S
C315 C314 1.170 . S
C316 C314 1.380 1_545 S
C316 C317 1.170 . S
C317 C316 1.170 . S
C318 C319 1.170 . S
C318 C320 1.380 1_565 S
C319 C318 1.170 . S
C320 C318 1.380 1_545 S
C320 C321 1.170 . S
C321 C320 1.170 . S
C322 C323 1.170 . S
C322 C324 1.380 . S
C323 C322 1.170 . S
C324 C322 1.380 . S
C324 C325 1.170 . S
C325 C324 1.170 . S
C326 C327 1.170 . S
C326 C328 1.380 . S
C327 C326 1.170 . S
C328 C326 1.380 . S
C328 C329 1.170 . S
C329 C328 1.170 . S
C285 C253 1.333 . S
C283 C3 1.179 . S
C287 C4 1.476 1_556 S
C289 C193 1.631 . S
C291 C19 1.543 . S
C293 C223 1.544 . S
C295 C7 1.244 1_554 S
C297 C163 1.274 . S
C299 C37 1.185 . S
C301 C133 1.325 . S
C303 C28 1.522 . S
C305 C73 1.618 . S
C309 C103 1.572 . S
C307 C41 1.495 . S
C313 C43 1.213 . S
C311 C25 1.176 . S
C315 C20 1.344 . S
C317 C62 1.450 . S
C319 C16 1.320 1_455 S
C321 C122 1.493 1_455 S
C325 C182 1.484 . S
C323 C40 1.281 . S
C327 C24 1.334 . S
C329 C242 1.506 . S
