# Generated by pormake.
# Topology zzz, (3,6)-cn, num edge types: 1
# Building blocks:
#     Node 0, Type 0, BuildingBlock: QEWDON_clean_linker_0, # of connection points: 3
#     Node 1, Type 0, BuildingBlock: QEWDON_clean_linker_0, # of connection points: 3
#     Node 2, Type 0, BuildingBlock: QEWDON_clean_linker_0, # of connection points: 3
#     Node 3, Type 0, BuildingBlock: QEWDON_clean_linker_0, # of connection points: 3
#     Node 4, Type 0, BuildingBlock: QEWDON_clean_linker_0, # of connection points: 3
#     Node 5, Type 0, BuildingBlock: QEWDON_clean_linker_0, # of connection points: 3
#     Node 6, Type 0, BuildingBlock: QEWDON_clean_linker_0, # of connection points: 3
#     Node 7, Type 0, BuildingBlock: QEWDON_clean_linker_0, # of connection points: 3
#     Node 8, Type 1, BuildingBlock: BETDEL_clean_sbu_0, # of connection points: 6
#     Node 9, Type 1, BuildingBlock: BETDEL_clean_sbu_0, # of connection points: 6
#     Node 10, Type 1, BuildingBlock: BETDEL_clean_sbu_0, # of connection points: 6
#     Node 11, Type 1, BuildingBlock: BETDEL_clean_sbu_0, # of connection points: 6
#     Edge 12, Type (0, 1), BuildingBlock: MIFKUJ_clean_linker_0, # of connection points: 2
#     Edge 13, Type (0, 1), BuildingBlock: MIFKUJ_clean_linker_0, # of connection points: 2
#     Edge 14, Type (0, 1), BuildingBlock: MIFKUJ_clean_linker_0, # of connection points: 2
#     Edge 15, Type (0, 1), BuildingBlock: MIFKUJ_clean_linker_0, # of connection points: 2
#     Edge 16, Type (0, 1), BuildingBlock: MIFKUJ_clean_linker_0, # of connection points: 2
#     Edge 17, Type (0, 1), BuildingBlock: MIFKUJ_clean_linker_0, # of connection points: 2
#     Edge 18, Type (0, 1), BuildingBlock: MIFKUJ_clean_linker_0, # of connection points: 2
#     Edge 19, Type (0, 1), BuildingBlock: MIFKUJ_clean_linker_0, # of connection points: 2
#     Edge 20, Type (0, 1), BuildingBlock: MIFKUJ_clean_linker_0, # of connection points: 2
#     Edge 21, Type (0, 1), BuildingBlock: MIFKUJ_clean_linker_0, # of connection points: 2
#     Edge 22, Type (0, 1), BuildingBlock: MIFKUJ_clean_linker_0, # of connection points: 2
#     Edge 23, Type (0, 1), BuildingBlock: MIFKUJ_clean_linker_0, # of connection points: 2
#     Edge 24, Type (0, 1), BuildingBlock: MIFKUJ_clean_linker_0, # of connection points: 2
#     Edge 25, Type (0, 1), BuildingBlock: MIFKUJ_clean_linker_0, # of connection points: 2
#     Edge 26, Type (0, 1), BuildingBlock: MIFKUJ_clean_linker_0, # of connection points: 2
#     Edge 27, Type (0, 1), BuildingBlock: MIFKUJ_clean_linker_0, # of connection points: 2
#     Edge 28, Type (0, 1), BuildingBlock: MIFKUJ_clean_linker_0, # of connection points: 2
#     Edge 29, Type (0, 1), BuildingBlock: MIFKUJ_clean_linker_0, # of connection points: 2
#     Edge 30, Type (0, 1), BuildingBlock: MIFKUJ_clean_linker_0, # of connection points: 2
#     Edge 31, Type (0, 1), BuildingBlock: MIFKUJ_clean_linker_0, # of connection points: 2
#     Edge 32, Type (0, 1), BuildingBlock: MIFKUJ_clean_linker_0, # of connection points: 2
#     Edge 33, Type (0, 1), BuildingBlock: MIFKUJ_clean_linker_0, # of connection points: 2
#     Edge 34, Type (0, 1), BuildingBlock: MIFKUJ_clean_linker_0, # of connection points: 2
#     Edge 35, Type (0, 1), BuildingBlock: MIFKUJ_clean_linker_0, # of connection points: 2
# Relax obj value: 0.088
# Max RMSD: 0.190
# Mean RMSD: 0.067
data_MOF--net-zzz--node1-BETDEL_clean_sbu_0--node2-QEWDON_clean_linker_0--edge1-MIFKUJ_clean_linker_0
_symmetry_space_group_name_H-M    P1
_symmetry_Int_Tables_number       1
_symmetry_cell_setting            triclinic
loop_
_symmetry_equiv_pos_as_xyz
'x, y, z'
_cell_length_a     69.030188
_cell_length_b     70.148387
_cell_length_c     18.712955
_cell_angle_alpha  91.723925
_cell_angle_beta   88.22213
_cell_angle_gamma 94.571553
loop_
_atom_site_label
_atom_site_type_symbol
_atom_site_fract_x
_atom_site_fract_y
_atom_site_fract_z
_atom_type_partial_charge
H0 H 0.75367 0.51986 0.9905 0.0
C1 C 0.76342 0.51799 0.03348 0.0
C2 C 0.78336 0.51808 0.01719 0.0
C3 C 0.75645 0.51652 0.10526 0.0
H4 H 0.81189 0.51748 0.05889 0.0
C5 C 0.79644 0.51688 0.07183 0.0
C6 C 0.79019 0.5152 0.14282 0.0
C7 C 0.77014 0.51456 0.15966 0.0
C8 C 0.73533 0.51862 0.12366 0.0
H9 H 0.76543 0.51308 0.21504 0.0
C10 C 0.72045 0.51345 0.07427 0.0
C11 C 0.70085 0.51692 0.09049 0.0
C12 C 0.72999 0.52704 0.18995 0.0
H13 H 0.74075 0.53191 0.22858 0.0
C14 C 0.71066 0.53006 0.20681 0.0
H15 H 0.72398 0.50665 0.02338 0.0
C16 C 0.69624 0.52518 0.15764 0.0
H17 H 0.68151 0.52844 0.17167 0.0
H18 H 0.70688 0.53669 0.25781 0.0
H19 H 0.98496 0.75889 0.94884 0.0
C20 C 0.98765 0.76978 0.99028 0.0
C21 C 0.98548 0.78885 0.97428 0.0
C22 C 0.99303 0.76501 0.05955 0.0
H23 H 0.98636 0.81783 0.0139 0.0
C24 C 0.98837 0.80317 0.0271 0.0
C25 C 0.99463 0.79917 0.09488 0.0
C26 C 0.99689 0.78003 0.11101 0.0
C27 C 0.99467 0.74456 0.0784 0.0
H28 H 1.00218 0.77701 0.16298 0.0
C29 C 0.99945 0.73055 0.02611 0.0
C30 C 1.00069 0.71137 0.04464 0.0
C31 C 0.99108 0.73877 0.14944 0.0
H32 H 0.98663 0.7487 0.19097 0.0
C33 C 0.99275 0.71988 0.16808 0.0
H34 H 1.0025 0.73442 0.97112 0.0
C35 C 0.99757 0.70626 0.11623 0.0
H36 H 0.99831 0.69159 0.13174 0.0
H37 H 0.98998 0.71571 0.2229 0.0
H38 H 0.75154 0.99082 0.98754 0.0
C39 C 0.74245 0.99169 0.03556 0.0
C40 C 0.72345 0.99709 0.02974 0.0
C41 C 0.74924 0.98658 0.10231 0.0
H42 H 0.69635 1.00154 0.08536 0.0
C43 C 0.71112 0.99754 0.09031 0.0
C44 C 0.7174 0.99262 0.15691 0.0
C45 C 0.73646 0.9873 0.16318 0.0
C46 C 0.76913 0.97959 0.10775 0.0
H47 H 0.74117 0.98376 0.21546 0.0
C48 C 0.78489 0.98615 0.062 0.0
C49 C 0.8034 0.97912 0.06727 0.0
C50 C 0.77237 0.96571 0.15805 0.0
H51 H 0.76068 0.9597 0.19235 0.0
C52 C 0.79067 0.95894 0.16388 0.0
H53 H 0.78298 0.99693 0.02318 0.0
C54 C 0.80608 0.96557 0.1191 0.0
H55 H 0.82003 0.95975 0.12395 0.0
H56 H 0.79287 0.94826 0.20278 0.0
H57 H 0.51523 0.74989 0.98738 0.0
C58 C 0.51365 0.74184 0.03597 0.0
C59 C 0.50509 0.72301 0.0325 0.0
C60 C 0.52085 0.74984 0.10105 0.0
H61 H 0.49828 0.69711 0.08976 0.0
C62 C 0.50394 0.71198 0.09375 0.0
C63 C 0.51163 0.7191 0.15816 0.0
C64 C 0.51984 0.73812 0.16209 0.0
C65 C 0.53064 0.7698 0.10388 0.0
H66 H 0.52543 0.74359 0.21271 0.0
C67 C 0.52519 0.78446 0.05932 0.0
C68 C 0.53525 0.80288 0.06086 0.0
C69 C 0.5462 0.77415 0.15012 0.0
H70 H 0.55142 0.76338 0.18322 0.0
C71 C 0.55568 0.79241 0.15346 0.0
H72 H 0.51336 0.78155 0.02296 0.0
C73 C 0.55028 0.80664 0.10961 0.0
H74 H 0.55795 0.82068 0.11404 0.0
H75 H 0.56749 0.79551 0.18984 0.0
H76 H 0.25994 0.50951 0.16165 0.0
C77 C 0.24946 0.50597 0.12049 0.0
C78 C 0.22969 0.50461 0.13957 0.0
C79 C 0.2555 0.5035 0.04824 0.0
H80 H 0.20059 0.50089 0.10341 0.0
C81 C 0.21583 0.501 0.08718 0.0
C82 C 0.22111 0.49802 0.01517 0.0
C83 C 0.24112 0.49935 0.99581 0.0
C84 C 0.27667 0.50648 0.02765 0.0
H85 H 0.24544 0.49701 0.94033 0.0
C86 C 0.29135 0.50157 0.07367 0.0
C87 C 0.3113 0.50597 0.05653 0.0
C88 C 0.28237 0.51547 0.96333 0.0
H89 H 0.27168 0.51989 0.92741 0.0
C90 C 0.30197 0.51961 0.94559 0.0
H91 H 0.28726 0.49421 0.12254 0.0
C92 C 0.31629 0.51509 0.99177 0.0
H93 H 0.3313 0.51922 0.97716 0.0
H94 H 0.3061 0.52677 0.89633 0.0
H95 H 1.00316 0.25523 0.18023 0.0
C96 C 0.00858 0.2474 0.13398 0.0
C97 C 0.01577 0.22954 0.14319 0.0
C98 C 0.0074 0.25459 0.06476 0.0
H99 H 0.02676 0.20476 0.09095 0.0
C100 C 0.02201 0.21895 0.08363 0.0
C101 C 0.02015 0.22535 0.01446 0.0
C102 C 0.01291 0.24322 0.00492 0.0
C103 C 0.99907 0.27326 0.05497 0.0
H104 H 0.01139 0.24807 0.95111 0.0
C105 C 1.0039 0.28916 0.10088 0.0
C106 C 0.99561 0.3067 0.09256 0.0
C107 C 0.98586 0.27513 0.00044 0.0
H108 H 0.98155 0.26312 0.96515 0.0
C109 C 0.97761 0.29239 0.99193 0.0
H110 H 0.01435 0.28796 0.14217 0.0
C111 C 0.98236 0.30803 0.03759 0.0
H112 H 0.97534 0.32108 0.03049 0.0
H113 H 0.9673 0.2936 0.95019 0.0
H114 H 0.26136 1.00039 0.1707 0.0
C115 C 0.27176 1.00436 0.12816 0.0
C116 C 0.29163 1.00511 0.14197 0.0
C117 C 0.26549 0.00795 0.05897 0.0
H118 H 0.32064 0.00901 0.09786 0.0
C119 C 0.30531 0.00902 0.08696 0.0
C120 C 0.29965 0.01201 0.01754 0.0
C121 C 0.27973 0.01201 0.00381 0.0
C122 C 0.24425 0.00585 0.04342 0.0
H123 H 0.27545 0.01459 0.94999 0.0
C124 C 0.22995 0.01063 0.09552 0.0
C125 C 0.2099 0.00736 0.08192 0.0
C126 C 0.23805 0.998 0.9771 0.0
H127 H 0.2484 0.99361 0.93644 0.0
C128 C 0.21833 0.995 0.96299 0.0
H129 H 0.2344 0.01703 0.14638 0.0
C130 C 0.20438 0.9995 0.01483 0.0
H131 H 0.18921 0.99633 0.0027 0.0
H132 H 0.21382 0.98876 0.91197 0.0
H133 H 0.52441 0.26238 0.15116 0.0
C134 C 0.51679 0.27141 0.11752 0.0
C135 C 0.51854 0.29125 0.13065 0.0
C136 C 0.5059 0.26352 0.05936 0.0
H137 H 0.51159 0.31871 0.09585 0.0
C138 C 0.50961 0.30334 0.08626 0.0
C139 C 0.49922 0.29618 0.02743 0.0
C140 C 0.49719 0.27626 0.01428 0.0
C141 C 0.5045 0.24229 0.04323 0.0
H142 H 0.48876 0.2709 0.96914 0.0
C143 C 0.50519 0.22861 0.09762 0.0
C144 C 0.50422 0.2087 0.08058 0.0
C145 C 0.50289 0.23552 0.97186 0.0
H146 H 0.50313 0.24524 0.92802 0.0
C147 C 0.50125 0.21601 0.95516 0.0
H148 H 0.50663 0.23336 0.15285 0.0
C149 C 0.50175 0.20275 0.0087 0.0
H150 H 0.50017 0.18771 0.99338 0.0
H151 H 0.49972 0.21112 0.90005 0.0
Dy152 Dy 0.0132 0.99744 0.65267 0.0
C153 C 0.00864 0.04955 0.4293 0.0
C154 C 0.00808 0.96872 0.74823 0.0
Dy155 Dy 1.00529 0.02079 0.52513 0.0
O156 O 0.02482 0.97651 0.72602 0.0
O157 O 0.99426 0.97746 0.7213 0.0
O158 O 0.04526 0.00545 0.64036 0.0
O159 O 0.02809 1.00257 0.5493 0.0
C160 C 0.04487 0.00755 0.57157 0.0
C161 C 0.97379 0.01054 0.60704 0.0
O162 O 1.00521 0.99241 0.46695 0.0
O163 O 1.00128 0.97555 0.57153 0.0
O164 O 0.9925 0.03981 0.44697 0.0
O165 O 0.02296 0.04285 0.46121 0.0
O166 O 0.97334 0.01215 0.53814 0.0
O167 O 0.99054 0.01586 0.62865 0.0
O168 O 0.01493 0.0258 0.71075 0.0
O169 O 0.01799 0.04251 0.6054 0.0
C170 C 1.00136 0.97612 0.50078 0.0
C171 C 0.01891 0.04189 0.67597 0.0
Dy172 Dy 0.49406 1.00015 0.55279 0.0
C173 C 0.56224 0.03331 0.68907 0.0
C174 C 0.45805 0.98619 0.51167 0.0
Dy175 Dy 0.52642 0.01864 0.64833 0.0
O176 O 0.47389 0.98542 0.47248 0.0
O177 O 0.46199 0.99436 0.57313 0.0
O178 O 0.51535 0.99778 0.45975 0.0
O179 O 0.52481 0.99656 0.56492 0.0
C180 C 0.53035 0.99759 0.50022 0.0
C181 C 0.49007 0.02126 0.69988 0.0
O182 O 0.52282 0.04262 0.57247 0.0
O183 O 0.49584 0.02981 0.51001 0.0
O184 O 0.54797 0.0279 0.73287 0.0
O185 O 0.55667 0.03122 0.62355 0.0
O186 O 0.50488 0.02068 0.74103 0.0
O187 O 0.49587 0.02246 0.63561 0.0
O188 O 0.49672 0.97686 0.63236 0.0
O189 O 0.52635 0.98791 0.6799 0.0
C190 C 0.50943 0.04384 0.52346 0.0
C191 C 0.51165 0.97457 0.67365 0.0
Dy192 Dy 0.49672 0.51457 0.62621 0.0
C193 C 0.52575 0.46881 0.40435 0.0
C194 C 0.48525 0.54349 0.7151 0.0
Dy195 Dy 0.51596 0.49483 0.50856 0.0
O196 O 0.47635 0.53666 0.65902 0.0
O197 O 0.49998 0.53357 0.72577 0.0
O198 O 0.46844 0.49884 0.59901 0.0
O199 O 0.48804 0.50739 0.5156 0.0
C200 C 0.47164 0.49874 0.53025 0.0
C201 C 0.54121 0.50999 0.60562 0.0
O202 O 0.51434 0.52297 0.45548 0.0
O203 O 0.51262 0.53836 0.56495 0.0
O204 O 0.53787 0.48079 0.43746 0.0
O205 O 0.50815 0.47148 0.42655 0.0
O206 O 0.54472 0.50963 0.53706 0.0
O207 O 0.5246 0.50171 0.61906 0.0
O208 O 0.49607 0.48705 0.68338 0.0
O209 O 0.50535 0.47048 0.5807 0.0
C210 C 0.51518 0.53899 0.49486 0.0
C211 C 0.49931 0.47077 0.64888 0.0
Dy212 Dy 0.99542 0.5035 0.63934 0.0
C213 C 0.04652 0.5119 0.3996 0.0
C214 C 0.96646 0.50299 0.74239 0.0
Dy215 Dy 0.0184 0.51392 0.50446 0.0
O216 O 0.9729 0.48803 0.7101 0.0
O217 O 0.9768 0.51821 0.72158 0.0
O218 O 1.00377 0.47329 0.6265 0.0
O219 O 0.99958 0.48922 0.53557 0.0
C220 C 1.00491 0.47363 0.55704 0.0
C221 C 0.00973 0.54416 0.58647 0.0
O222 O 0.98909 0.51166 0.45524 0.0
O223 O 0.97284 0.51265 0.56522 0.0
O224 O 0.03939 0.52758 0.42307 0.0
O225 O 0.03744 0.49738 0.43074 0.0
O226 O 0.01111 0.54437 0.51697 0.0
O227 O 0.01445 0.52834 0.60835 0.0
O228 O 0.02463 0.50491 0.68938 0.0
O229 O 0.04127 0.50601 0.57972 0.0
C230 C 0.97288 0.51311 0.49437 0.0
C231 C 0.041 0.50443 0.65031 0.0
H232 H 0.17432 0.02127 0.06333 0.0
H233 H 0.14778 0.02371 0.15083 0.0
H234 H 0.18409 0.0058 0.31583 0.0
H235 H 0.21043 1.00211 0.22724 0.0
H236 H 0.15077 0.98718 0.32836 0.0
H237 H 0.16991 0.05342 0.30235 0.0
H238 H 0.17825 0.08361 0.24027 0.0
H239 H 0.121 0.08093 0.15525 0.0
H240 H 0.11241 0.05055 0.21582 0.0
H241 H 0.08283 0.00878 0.60958 0.0
H242 H 0.11188 0.01126 0.53063 0.0
H243 H 0.07583 0.0152 0.34843 0.0
H244 H 0.04667 0.01232 0.427 0.0
H245 H 0.10978 0.04213 0.35102 0.0
H246 H 0.09208 0.97457 0.37286 0.0
H247 H 0.08393 0.94505 0.43939 0.0
H248 H 0.1395 0.95163 0.53806 0.0
H249 H 0.14787 0.98136 0.47282 0.0
C250 C 0.17673 0.01778 0.11816 0.0
C251 C 0.19458 0.01129 0.13772 0.0
C252 C 0.16154 0.01947 0.16862 0.0
C253 C 0.16386 0.01516 0.24054 0.0
C254 C 0.18186 0.00925 0.2608 0.0
C255 C 0.19703 0.00735 0.21008 0.0
C256 C 0.14715 0.01566 0.29327 0.0
C257 C 0.1421 0.9994 0.33409 0.0
C258 C 0.13541 0.03138 0.30018 0.0
C259 C 0.14058 0.04959 0.26313 0.0
C260 C 0.15915 0.05917 0.26987 0.0
C261 C 0.16391 0.07634 0.23502 0.0
C262 C 0.15018 0.08416 0.19367 0.0
C263 C 0.13164 0.07484 0.18718 0.0
C264 C 0.12681 0.05765 0.2218 0.0
C265 C 0.08109 0.01028 0.55275 0.0
C266 C 0.06247 0.0103 0.52443 0.0
C267 C 0.0977 0.01167 0.50771 0.0
C268 C 0.09602 0.01333 0.43359 0.0
C269 C 0.07746 0.01396 0.40545 0.0
C270 C 0.06082 0.01228 0.45036 0.0
C271 C 0.11357 0.01372 0.38521 0.0
C272 C 0.11868 0.03008 0.34534 0.0
C273 C 0.12548 0.99821 0.37959 0.0
C274 C 0.12051 0.9803 0.41858 0.0
C275 C 0.10249 0.96981 0.40923 0.0
C276 C 0.09785 0.95302 0.4466 0.0
C277 C 0.11117 0.9465 0.49309 0.0
C278 C 0.12918 0.95672 0.50213 0.0
C279 C 0.13389 0.97353 0.46493 0.0
H280 H 0.10755 0.93349 0.52197 0.0
H281 H 0.15389 0.09746 0.16681 0.0
H282 H 0.52223 0.17523 0.06609 0.0
H283 H 0.52195 0.14926 0.14967 0.0
H284 H 0.4911 0.18234 0.30665 0.0
H285 H 0.49025 0.20825 0.22143 0.0
H286 H 0.52992 0.15911 0.34229 0.0
H287 H 0.46343 0.15456 0.25492 0.0
H288 H 0.43976 0.15322 0.15851 0.0
H289 H 0.46468 0.10386 0.0644 0.0
H290 H 0.48875 0.10516 0.15954 0.0
H291 H 0.51362 0.08066 0.57624 0.0
H292 H 0.51179 0.11016 0.51088 0.0
H293 H 0.50435 0.07685 0.31425 0.0
H294 H 0.5044 0.04744 0.38106 0.0
H295 H 0.48324 0.10249 0.30443 0.0
H296 H 0.54974 0.10564 0.37339 0.0
H297 H 0.57696 0.10566 0.45576 0.0
H298 H 0.55729 0.15521 0.56756 0.0
H299 H 0.52982 0.15534 0.48633 0.0
C300 C 0.51512 0.17705 0.11794 0.0
C301 C 0.50586 0.19385 0.13593 0.0
C302 C 0.51517 0.16217 0.16599 0.0
C303 C 0.50637 0.16377 0.23409 0.0
C304 C 0.49795 0.1808 0.25416 0.0
C305 C 0.49758 0.19566 0.20541 0.0
C306 C 0.50555 0.14723 0.2825 0.0
C307 C 0.5195 0.14683 0.33524 0.0
C308 C 0.49254 0.13089 0.27094 0.0
C309 C 0.47804 0.13011 0.21388 0.0
C310 C 0.46402 0.14357 0.2132 0.0
C311 C 0.4505 0.14279 0.15887 0.0
C312 C 0.45076 0.1285 0.10523 0.0
C313 C 0.46452 0.11494 0.10589 0.0
C314 C 0.4781 0.1157 0.16001 0.0
C315 C 0.51161 0.07973 0.51902 0.0
C316 C 0.50921 0.06179 0.48363 0.0
C317 C 0.51074 0.09663 0.48133 0.0
C318 C 0.50836 0.09604 0.40668 0.0
C319 C 0.50612 0.07797 0.37157 0.0
C320 C 0.50625 0.06109 0.4097 0.0
C321 C 0.5078 0.11403 0.36509 0.0
C322 C 0.49363 0.11471 0.31284 0.0
C323 C 0.52108 0.13038 0.37555 0.0
C324 C 0.53761 0.13037 0.42429 0.0
C325 C 0.55116 0.11646 0.41583 0.0
C326 C 0.56664 0.11646 0.46227 0.0
C327 C 0.56882 0.13039 0.51699 0.0
C328 C 0.55556 0.1444 0.52523 0.0
C329 C 0.54004 0.14446 0.47898 0.0
H330 H 0.58081 0.13036 0.5529 0.0
H331 H 0.44026 0.1279 0.06327 0.0
H332 H 0.3481 0.49531 0.02239 0.0
H333 H 0.37475 0.4923 0.10193 0.0
H334 H 0.33693 0.50283 0.28428 0.0
H335 H 0.31047 0.50743 0.20435 0.0
H336 H 0.36903 0.52198 0.30525 0.0
H337 H 0.35413 0.45673 0.23456 0.0
H338 H 0.34779 0.42906 0.15186 0.0
H339 H 0.40517 0.43877 0.05818 0.0
H340 H 0.41177 0.46666 0.13973 0.0
H341 H 0.43301 0.49161 0.56197 0.0
H342 H 0.40591 0.49067 0.48055 0.0
H343 H 0.44629 0.49894 0.30177 0.0
H344 H 0.47365 0.5003 0.38359 0.0
H345 H 0.41316 0.46954 0.28103 0.0
H346 H 0.4268 0.53565 0.35612 0.0
H347 H 0.43234 0.56184 0.44579 0.0
H348 H 0.37551 0.54823 0.53931 0.0
H349 H 0.36976 0.52174 0.45083 0.0
C350 C 0.34537 0.49717 0.07935 0.0
C351 C 0.32699 0.50183 0.10639 0.0
C352 C 0.36067 0.49509 0.12515 0.0
C353 C 0.35797 0.49705 0.19968 0.0
C354 C 0.33951 0.50121 0.22711 0.0
C355 C 0.32424 0.50361 0.18116 0.0
C356 C 0.37461 0.49567 0.24847 0.0
C357 C 0.37842 0.5103 0.3004 0.0
C358 C 0.38728 0.48067 0.24198 0.0
C359 C 0.38337 0.4639 0.19284 0.0
C360 C 0.36534 0.45306 0.19597 0.0
C361 C 0.36171 0.43731 0.14936 0.0
C362 C 0.37605 0.43219 0.09968 0.0
C363 C 0.39407 0.44277 0.09664 0.0
C364 C 0.39777 0.45853 0.1431 0.0
C365 C 0.43619 0.49306 0.50526 0.0
C366 C 0.4555 0.49615 0.47927 0.0
C367 C 0.42065 0.49255 0.4588 0.0
C368 C 0.42405 0.49487 0.38514 0.0
C369 C 0.44334 0.49713 0.35845 0.0
C370 C 0.45894 0.49793 0.40519 0.0
C371 C 0.40738 0.49578 0.33696 0.0
C372 C 0.40363 0.48112 0.28547 0.0
C373 C 0.39457 0.51054 0.34455 0.0
C374 C 0.39793 0.52659 0.3973 0.0
C375 C 0.41555 0.53813 0.39618 0.0
C376 C 0.41872 0.55305 0.44673 0.0
C377 C 0.40431 0.55666 0.49834 0.0
C378 C 0.38667 0.5454 0.49936 0.0
C379 C 0.38345 0.53044 0.449 0.0
H380 H 0.40679 0.56822 0.53743 0.0
H381 H 0.37321 0.42 0.06364 0.0
H382 H 1.00138 0.30708 0.23753 0.0
H383 H 0.00702 0.33492 0.31804 0.0
H384 H 1.00516 0.3723 0.13992 0.0
H385 H 1.00067 0.34459 0.05867 0.0
H386 H 0.03196 0.38629 0.22566 0.0
H387 H 0.96519 0.36226 0.25705 0.0
H388 H 0.93819 0.33803 0.28271 0.0
H389 H 0.95994 0.331 0.49204 0.0
H390 H 0.98723 0.35502 0.46723 0.0
H391 H 1.00424 0.47116 0.41108 0.0
H392 H 0.00696 0.44256 0.33417 0.0
H393 H 0.01465 0.40927 0.51985 0.0
H394 H 0.01202 0.43785 0.59693 0.0
H395 H 0.98675 0.3926 0.4347 0.0
H396 H 0.0525 0.41951 0.40283 0.0
H397 H 0.07899 0.44393 0.37291 0.0
H398 H 0.05784 0.44666 0.16046 0.0
H399 H 0.03109 0.42239 0.18924 0.0
C400 C 1.00254 0.3212 0.21518 0.0
C401 C 1.00033 0.32353 0.1415 0.0
C402 C 1.00554 0.33715 0.26151 0.0
C403 C 0.00611 0.35578 0.23542 0.0
C404 C 1.00465 0.35812 0.1616 0.0
C405 C 1.00184 0.34221 0.11522 0.0
C406 C 0.00759 0.37287 0.28487 0.0
C407 C 0.02195 0.38774 0.27099 0.0
C408 C 0.99477 0.37469 0.34489 0.0
C409 C 0.97837 0.36027 0.35998 0.0
C410 C 0.96429 0.35544 0.30835 0.0
C411 C 0.94893 0.34176 0.32277 0.0
C412 C 0.94738 0.33294 0.38889 0.0
C413 C 0.96117 0.33782 0.4408 0.0
C414 C 0.97659 0.35147 0.42661 0.0
C415 C 0.00677 0.45779 0.43538 0.0
C416 C 0.00788 0.45672 0.51002 0.0
C417 C 0.0084 0.44147 0.39135 0.0
C418 C 0.01113 0.42376 0.42116 0.0
C419 C 0.01257 0.42277 0.49564 0.0
C420 C 0.01108 0.4391 0.53962 0.0
C421 C 0.01106 0.40606 0.3753 0.0
C422 C 0.99688 0.39109 0.38975 0.0
C423 C 0.02387 0.4043 0.31531 0.0
C424 C 0.03968 0.41924 0.29845 0.0
C425 C 0.05337 0.42545 0.34996 0.0
C426 C 0.06848 0.4392 0.3331 0.0
C427 C 0.07006 0.44683 0.26485 0.0
C428 C 0.05657 0.44073 0.2133 0.0
C429 C 0.04145 0.42696 0.22982 0.0
H430 H 0.08174 0.45748 0.25189 0.0
H431 H 0.93547 0.32235 0.39996 0.0
H432 H 0.84074 0.99049 0.10248 0.0
H433 H 0.8689 0.9969 0.02178 0.0
H434 H 0.83207 0.98755 0.84008 0.0
H435 H 0.80372 0.98104 0.92101 0.0
H436 H 0.86541 0.96751 0.8275 0.0
H437 H 0.84974 0.03178 0.88214 0.0
H438 H 0.84226 0.05931 0.96035 0.0
H439 H 0.8978 0.05883 0.05712 0.0
H440 H 0.90551 0.03111 0.98016 0.0
H441 H 0.93666 1.00054 0.567 0.0
H442 H 0.90744 0.99595 0.64398 0.0
H443 H 0.94206 0.00808 0.83033 0.0
H444 H 0.97136 0.01284 0.75329 0.0
H445 H 0.90931 0.02701 0.83842 0.0
H446 H 0.92506 0.9628 0.78908 0.0
H447 H 0.93336 0.93518 0.71288 0.0
H448 H 0.87862 0.93497 0.60976 0.0
H449 H 0.87011 0.9628 0.68473 0.0
C450 C 0.8386 0.98998 0.04533 0.0
C451 C 0.82 0.98526 0.01812 0.0
C452 C 0.85471 0.9937 0.99924 0.0
C453 C 0.85264 0.99274 0.92477 0.0
C454 C 0.83402 0.98837 0.89733 0.0
C455 C 0.81782 0.98482 0.94358 0.0
C456 C 0.87006 0.99567 0.87603 0.0
C457 C 0.87483 0.98064 0.829 0.0
C458 C 0.88271 0.01257 0.87947 0.0
C459 C 0.87812 0.02925 0.92582 0.0
C460 C 0.86029 0.03744 0.92052 0.0
C461 C 0.85602 0.0531 0.96455 0.0
C462 C 0.86953 0.06078 0.0138 0.0
C463 C 0.88735 0.05285 0.01901 0.0
C464 C 0.89168 0.03717 0.97514 0.0
C465 C 0.93806 1.00215 0.6244 0.0
C466 C 0.95629 0.00704 0.65413 0.0
C467 C 0.92134 0.99947 0.6684 0.0
C468 C 0.92252 1.00154 0.74311 0.0
C469 C 0.94076 0.00642 0.7729 0.0
C470 C 0.9575 0.00905 0.72886 0.0
C471 C 0.90468 0.99886 0.78991 0.0
C472 C 0.89986 0.0139 0.83668 0.0
C473 C 0.89208 0.98191 0.78666 0.0
C474 C 0.89703 0.96502 0.74206 0.0
C475 C 0.91485 0.95696 0.74981 0.0
C476 C 0.91958 0.94125 0.70689 0.0
C477 C 0.90655 0.93336 0.65635 0.0
C478 C 0.88872 0.94112 0.64886 0.0
C479 C 0.88392 0.95685 0.69161 0.0
H480 H 0.91025 0.9212 0.62311 0.0
H481 H 0.8662 0.07291 0.04783 0.0
H482 H 0.56093 0.82793 0.99019 0.0
H483 H 0.55412 0.85575 0.92318 0.0
H484 H 0.4926 0.84099 0.95056 0.0
H485 H 0.49931 0.81311 0.02001 0.0
H486 H 0.50507 0.85416 0.80817 0.0
H487 H 0.51075 0.87432 0.05471 0.0
H488 H 0.52637 0.8771 0.17168 0.0
H489 H 0.57693 0.90684 0.07566 0.0
H490 H 0.56173 0.90397 0.95784 0.0
H491 H 0.48217 0.94654 0.69748 0.0
H492 H 0.48367 0.91662 0.76039 0.0
H493 H 0.54469 0.93068 0.79543 0.0
H494 H 0.54309 0.96084 0.73503 0.0
H495 H 0.52936 0.91727 0.91096 0.0
H496 H 0.52581 0.8958 0.66501 0.0
H497 H 0.51184 0.89231 0.54516 0.0
H498 H 0.45931 0.86471 0.63521 0.0
H499 H 0.47288 0.86825 0.75578 0.0
C500 C 0.5459 0.83054 0.98237 0.0
C501 C 0.53067 0.81839 0.01202 0.0
C502 C 0.54204 0.84646 0.94356 0.0
C503 C 0.52285 0.85068 0.93267 0.0
C504 C 0.50754 0.83806 0.95851 0.0
C505 C 0.5114 0.82209 0.99804 0.0
C506 C 0.51912 0.86882 0.8974 0.0
C507 C 0.51006 0.868 0.83112 0.0
C508 C 0.52604 0.88688 0.92641 0.0
C509 C 0.53515 0.88879 0.99734 0.0
C510 C 0.52526 0.88133 0.05843 0.0
C511 C 0.53403 0.88294 0.12491 0.0
C512 C 0.55265 0.89211 0.13108 0.0
C513 C 0.56252 0.89973 0.0708 0.0
C514 C 0.55382 0.89813 0.00417 0.0
C515 C 0.49592 0.94324 0.71845 0.0
C516 C 0.5125 0.95617 0.71101 0.0
C517 C 0.4968 0.92602 0.75418 0.0
C518 C 0.51438 0.92109 0.78216 0.0
C519 C 0.53092 0.93403 0.77469 0.0
C520 C 0.52999 0.95133 0.73988 0.0
C521 C 0.5156 0.90275 0.82054 0.0
C522 C 0.52421 0.90351 0.88779 0.0
C523 C 0.50845 0.88465 0.79189 0.0
C524 C 0.50028 0.88248 0.71949 0.0
C525 C 0.51122 0.88911 0.65931 0.0
C526 C 0.50339 0.88711 0.59125 0.0
C527 C 0.48468 0.87835 0.58261 0.0
C528 C 0.47378 0.87152 0.642 0.0
C529 C 0.48155 0.87351 0.71021 0.0
H530 H 0.47864 0.87681 0.52987 0.0
H531 H 0.55942 0.89334 0.18259 0.0
H532 H 0.70288 0.52263 0.94534 0.0
H533 H 0.67613 0.52008 0.86192 0.0
H534 H 0.63631 0.50096 0.03193 0.0
H535 H 0.66309 0.50255 0.11452 0.0
H536 H 0.6263 0.48248 0.91428 0.0
H537 H 0.64155 0.54868 0.97771 0.0
H538 H 0.66263 0.57857 0.9914 0.0
H539 H 0.67504 0.57822 0.7651 0.0
H540 H 0.65423 0.54818 0.75021 0.0
H541 H 0.53893 0.50346 0.74963 0.0
H542 H 0.56589 0.50408 0.83231 0.0
H543 H 0.60629 0.52129 0.66136 0.0
H544 H 0.57942 0.52112 0.57928 0.0
H545 H 0.61578 0.5405 0.77999 0.0
H546 H 0.59918 0.47402 0.71824 0.0
H547 H 0.577 0.44478 0.70751 0.0
H548 H 0.56598 0.44623 0.93459 0.0
H549 H 0.58788 0.47565 0.94659 0.0
C550 C 0.68853 0.51746 0.96468 0.0
C551 C 0.68518 0.51305 0.03713 0.0
C552 C 0.67315 0.51624 0.91703 0.0
C553 C 0.65401 0.51079 0.94081 0.0
C554 C 0.65084 0.50539 0.01212 0.0
C555 C 0.6662 0.50647 0.05957 0.0
C556 C 0.63718 0.51144 0.89262 0.0
C557 C 0.62392 0.49525 0.88551 0.0
C558 C 0.63404 0.52799 0.85421 0.0
C559 C 0.64649 0.54608 0.86297 0.0
C560 C 0.64888 0.55491 0.93095 0.0
C561 C 0.66077 0.57189 0.93891 0.0
C562 C 0.67021 0.58026 0.87918 0.0
C563 C 0.66774 0.5717 0.81133 0.0
C564 C 0.6559 0.55471 0.80309 0.0
C565 C 0.55355 0.50757 0.72997 0.0
C566 C 0.55706 0.51212 0.6578 0.0
C567 C 0.56898 0.50777 0.77712 0.0
C568 C 0.58826 0.51236 0.75291 0.0
C569 C 0.59163 0.5176 0.68145 0.0
C570 C 0.57622 0.51748 0.63447 0.0
C571 C 0.60499 0.51152 0.80128 0.0
C572 C 0.6182 0.52771 0.80858 0.0
C573 C 0.60797 0.49502 0.84022 0.0
C574 C 0.59503 0.47715 0.8332 0.0
C575 C 0.59193 0.46817 0.76584 0.0
C576 C 0.57942 0.45156 0.75954 0.0
C577 C 0.57004 0.44368 0.82032 0.0
C578 C 0.57323 0.45236 0.88757 0.0
C579 C 0.5857 0.469 0.89415 0.0
H580 H 0.56034 0.43083 0.81533 0.0
H581 H 0.6794 0.5934 0.88545 0.0
H582 H 0.02763 0.68486 0.04474 0.0
H583 H 0.03082 0.65773 0.96036 0.0
H584 H 0.98422 0.67622 0.83783 0.0
H585 H 0.98121 0.70357 0.92135 0.0
H586 H 0.97985 0.63666 0.88035 0.0
H587 H 0.02594 0.68176 0.76539 0.0
H588 H 0.05455 0.70512 0.75966 0.0
H589 H 0.09116 0.66201 0.82053 0.0
H590 H 0.0627 0.63845 0.82766 0.0
H591 H 0.01125 0.58096 0.54291 0.0
H592 H 0.01189 0.61025 0.61761 0.0
H593 H 0.00825 0.57657 0.80725 0.0
H594 H 0.00803 0.54714 0.73262 0.0
H595 H 0.03781 0.62455 0.7271 0.0
H596 H 0.97452 0.60097 0.92375 0.0
H597 H 0.94597 0.57743 0.92701 0.0
H598 H 0.94395 0.57764 0.698 0.0
H599 H 0.97134 0.60205 0.6937 0.0
C600 C 0.01828 0.68327 0.99916 0.0
C601 C 1.0042 0.69631 0.98939 0.0
C602 C 0.02012 0.66781 0.95107 0.0
C603 C 0.00773 0.66498 0.89302 0.0
C604 C 0.99392 0.67818 0.88234 0.0
C605 C 0.9923 0.69384 0.9297 0.0
C606 C 0.0085 0.64768 0.84574 0.0
C607 C 0.99253 0.63399 0.84693 0.0
C608 C 0.02503 0.64426 0.80208 0.0
C609 C 0.04215 0.6584 0.79779 0.0
C610 C 0.04006 0.67731 0.77824 0.0
C611 C 0.05625 0.69058 0.77459 0.0
C612 C 0.07465 0.68507 0.78992 0.0
C613 C 0.0769 0.66626 0.80877 0.0
C614 C 0.06074 0.65294 0.81256 0.0
C615 C 0.01061 0.57978 0.60053 0.0
C616 C 0.00946 0.56176 0.63199 0.0
C617 C 0.01115 0.59653 0.6431 0.0
C618 C 0.01017 0.59559 0.71791 0.0
C619 C 0.00904 0.57761 0.74957 0.0
C620 C 0.00879 0.56083 0.70696 0.0
C621 C 0.00926 0.61341 0.76244 0.0
C622 C 0.02519 0.62717 0.76086 0.0
C623 C 0.99268 0.61692 0.80584 0.0
C624 C 0.97525 0.60312 0.80836 0.0
C625 C 0.96777 0.59619 0.87419 0.0
C626 C 0.95166 0.58277 0.87626 0.0
C627 C 0.943 0.57613 0.81278 0.0
C628 C 0.95036 0.58296 0.74726 0.0
C629 C 0.96615 0.59664 0.74499 0.0
H630 H 0.9306 0.56572 0.81431 0.0
H631 H 0.08718 0.69536 0.78703 0.0
H632 H 0.98291 0.21252 0.20045 0.0
H633 H 0.9817 0.18459 0.27491 0.0
H634 H 0.04314 0.19522 0.31138 0.0
H635 H 0.04442 0.2226 0.23296 0.0
H636 H 0.03754 0.16307 0.25186 0.0
H637 H 0.00648 0.19064 0.45305 0.0
H638 H 0.98305 0.20901 0.52268 0.0
H639 H 0.93601 0.17019 0.45043 0.0
H640 H 0.95911 0.15172 0.37952 0.0
H641 H 0.04038 0.07477 0.41907 0.0
H642 H 0.04133 0.10818 0.38632 0.0
H643 H 0.98069 0.10075 0.33384 0.0
H644 H 0.97951 0.0673 0.36951 0.0
H645 H 0.98704 0.13204 0.41264 0.0
H646 H 0.01738 0.10805 0.19769 0.0
H647 H 0.04046 0.09035 0.12335 0.0
H648 H 0.08846 0.12297 0.22056 0.0
H649 H 0.06563 0.14083 0.29561 0.0
C650 C 0.99589 0.20951 0.22777 0.0
C651 C 0.01373 0.21966 0.21156 0.0
C652 C 0.99523 0.19347 0.27044 0.0
C653 C 0.01237 0.18761 0.29864 0.0
C654 C 0.02974 0.19934 0.28989 0.0
C655 C 0.03046 0.21513 0.24587 0.0
C656 C 0.01296 0.1676 0.32222 0.0
C657 C 0.02674 0.15644 0.28832 0.0
C658 C 0.99858 0.15871 0.36843 0.0
C659 C 0.98455 0.16987 0.41045 0.0
C660 C 0.99113 0.18611 0.45144 0.0
C661 C 0.9779 0.19652 0.49128 0.0
C662 C 0.95805 0.19079 0.49086 0.0
C663 C 0.95139 0.17461 0.45068 0.0
C664 C 0.96455 0.16415 0.41073 0.0
C665 C 0.02735 0.08012 0.39904 0.0
C666 C 0.0099 0.06843 0.39629 0.0
C667 C 0.02791 0.09925 0.38025 0.0
C668 C 0.01113 0.10698 0.35688 0.0
C669 C 0.99382 0.0951 0.35169 0.0
C670 C 0.9932 0.07597 0.37139 0.0
C671 C 0.01154 0.12766 0.34158 0.0
C672 C 0.99793 0.13881 0.37676 0.0
C673 C 0.02605 0.13663 0.29634 0.0
C674 C 0.03982 0.12561 0.25273 0.0
C675 C 0.03286 0.11131 0.20364 0.0
C676 C 0.04589 0.1013 0.16123 0.0
C677 C 0.06591 0.10548 0.16744 0.0
C678 C 0.07295 0.11971 0.21598 0.0
C679 C 0.05998 0.1298 0.25838 0.0
H680 H 0.07598 0.09774 0.13448 0.0
H681 H 0.94784 0.19887 0.52176 0.0
H682 H 0.30659 0.02955 0.24403 0.0
H683 H 0.33106 0.0218 0.3282 0.0
H684 H 0.3201 0.96186 0.27288 0.0
H685 H 0.29536 0.96963 0.18959 0.0
H686 H 0.33284 0.96788 0.41358 0.0
H687 H 0.35381 0.98509 0.17301 0.0
H688 H 0.35707 1.00481 0.06563 0.0
H689 H 0.38025 0.05289 0.19201 0.0
H690 H 0.37742 0.03335 0.29999 0.0
H691 H 0.44748 0.97145 0.38119 0.0
H692 H 0.41478 0.96874 0.33305 0.0
H693 H 0.39134 0.98823 0.53643 0.0
H694 H 0.42399 0.99078 0.58499 0.0
H695 H 0.39503 0.9993 0.31967 0.0
H696 H 0.34127 0.96996 0.54588 0.0
H697 H 0.34088 0.94693 0.64312 0.0
H698 H 0.38489 0.91703 0.53046 0.0
H699 H 0.38538 0.93974 0.43241 0.0
C700 C 0.30862 0.01467 0.25317 0.0
C701 C 0.29908 1.00014 0.21121 0.0
C702 C 0.32273 0.01025 0.30051 0.0
C703 C 0.32765 0.9913 0.30545 0.0
C704 C 0.31652 0.97656 0.26977 0.0
C705 C 0.3023 0.98098 0.22266 0.0
C706 C 0.3463 0.98739 0.33681 0.0
C707 C 0.34647 0.97479 0.39365 0.0
C708 C 0.3641 0.99587 0.30876 0.0
C709 C 0.36519 0.00784 0.24457 0.0
C710 C 0.35946 0.99991 0.17793 0.0
C711 C 0.36133 0.01102 0.11693 0.0
C712 C 0.36871 0.03013 0.12208 0.0
C713 C 0.37445 0.03811 0.18815 0.0
C714 C 0.37281 0.02701 0.24918 0.0
C715 C 0.43529 0.97472 0.41602 0.0
C716 C 0.43822 0.98145 0.48647 0.0
C717 C 0.41664 0.97319 0.38853 0.0
C718 C 0.40066 0.97832 0.43114 0.0
C719 C 0.40343 0.984 0.50287 0.0
C720 C 0.42209 0.98553 0.53041 0.0
C721 C 0.38172 0.98011 0.398 0.0
C722 C 0.38148 0.99237 0.34037 0.0
C723 C 0.36405 0.97088 0.42439 0.0
C724 C 0.36363 0.95687 0.4825 0.0
C725 C 0.3509 0.95852 0.54203 0.0
C726 C 0.35064 0.9455 0.59723 0.0
C727 C 0.36295 0.93062 0.59321 0.0
C728 C 0.37546 0.92866 0.53378 0.0
C729 C 0.37576 0.94165 0.47847 0.0
H730 H 0.36273 0.92055 0.63599 0.0
H731 H 0.37003 0.03873 0.07489 0.0
H732 H 0.55609 0.30459 0.11645 0.0
H733 H 0.56844 0.33465 0.17394 0.0
H734 H 0.51957 0.33114 0.32344 0.0
H735 H 0.50713 0.30121 0.26529 0.0
H736 H 0.54233 0.3619 0.15642 0.0
H737 H 0.53056 0.36312 0.46533 0.0
H738 H 0.53663 0.34335 0.56777 0.0
H739 H 0.58304 0.31865 0.44875 0.0
H740 H 0.57747 0.33849 0.34598 0.0
H741 H 0.50223 0.44306 0.32848 0.0
H742 H 0.51051 0.41174 0.28028 0.0
H743 H 0.56983 0.42436 0.34323 0.0
H744 H 0.56176 0.45584 0.38995 0.0
H745 H 0.55035 0.39019 0.40059 0.0
H746 H 0.56352 0.42054 0.1767 0.0
H747 H 0.55747 0.43953 0.07213 0.0
H748 H 0.50865 0.40045 0.01895 0.0
H749 H 0.51418 0.38139 0.12393 0.0
C750 C 0.54878 0.30952 0.16483 0.0
C751 C 0.53069 0.30067 0.18664 0.0
C752 C 0.55571 0.32684 0.19707 0.0
C753 C 0.54476 0.33525 0.25218 0.0
C754 C 0.5283 0.32486 0.28122 0.0
C755 C 0.52128 0.30761 0.24848 0.0
C756 C 0.54743 0.35616 0.26647 0.0
C757 C 0.54439 0.36813 0.20965 0.0
C758 C 0.54998 0.3642 0.33595 0.0
C759 C 0.55349 0.35223 0.39766 0.0
C760 C 0.54213 0.35355 0.46107 0.0
C761 C 0.54547 0.34231 0.51921 0.0
C762 C 0.56018 0.32972 0.51471 0.0
C763 C 0.5716 0.32836 0.45208 0.0
C764 C 0.56833 0.33958 0.39379 0.0
C765 C 0.51715 0.43935 0.33012 0.0
C766 C 0.53135 0.45181 0.36297 0.0
C767 C 0.52186 0.42149 0.30267 0.0
C768 C 0.54076 0.41577 0.3085 0.0
C769 C 0.55517 0.42856 0.33825 0.0
C770 C 0.55055 0.44654 0.36458 0.0
C771 C 0.54484 0.39577 0.29076 0.0
C772 C 0.54881 0.38398 0.34707 0.0
C773 C 0.54294 0.38783 0.22084 0.0
C774 C 0.53918 0.39962 0.15881 0.0
C775 C 0.55133 0.41612 0.14334 0.0
C776 C 0.54803 0.42687 0.08378 0.0
C777 C 0.53267 0.42122 0.03899 0.0
C778 C 0.52053 0.40484 0.05378 0.0
C779 C 0.52375 0.39405 0.11331 0.0
H780 H 0.53019 0.42951 0.99274 0.0
H781 H 0.56275 0.32103 0.55978 0.0
H782 H 0.2205 0.53757 0.20606 0.0
H783 H 0.19164 0.53856 0.28442 0.0
H784 H 0.19113 0.4777 0.31134 0.0
H785 H 0.22007 0.47678 0.23336 0.0
H786 H 0.16243 0.48918 0.22377 0.0
H787 H 0.18633 0.50362 0.45526 0.0
H788 H 0.20521 0.52031 0.55125 0.0
H789 H 0.17766 0.57182 0.51594 0.0
H790 H 0.15879 0.55554 0.41894 0.0
H791 H 0.06557 0.48026 0.36934 0.0
H792 H 0.1003 0.47918 0.34195 0.0
H793 H 0.10634 0.54067 0.3291 0.0
H794 H 0.07154 0.54184 0.35768 0.0
H795 H 0.13248 0.52725 0.41885 0.0
H796 H 0.11046 0.51303 0.181 0.0
H797 H 0.0914 0.49597 0.0862 0.0
H798 H 0.11601 0.44366 0.13384 0.0
H799 H 0.13499 0.46034 0.22982 0.0
C800 C 0.21512 0.52471 0.23328 0.0
C801 C 0.2223 0.50708 0.21352 0.0
C802 C 0.1985 0.52523 0.27767 0.0
C803 C 0.18905 0.50812 0.30233 0.0
C804 C 0.19821 0.49104 0.29255 0.0
C805 C 0.21487 0.49055 0.24857 0.0
C806 C 0.16784 0.50725 0.31748 0.0
C807 C 0.15585 0.49713 0.26758 0.0
C808 C 0.1594 0.51827 0.37273 0.0
C809 C 0.17127 0.52838 0.42916 0.0
C810 C 0.18448 0.51859 0.46718 0.0
C811 C 0.19513 0.52796 0.52203 0.0
C812 C 0.19267 0.54713 0.53959 0.0
C813 C 0.17957 0.55698 0.50224 0.0
C814 C 0.16888 0.54768 0.44733 0.0
C815 C 0.07418 0.49349 0.35841 0.0
C816 C 0.0659 0.51111 0.36525 0.0
C817 C 0.09403 0.49286 0.3431 0.0
C818 C 0.10586 0.50984 0.33362 0.0
C819 C 0.09742 0.52741 0.33658 0.0
C820 C 0.07754 0.52805 0.35205 0.0
C821 C 0.12719 0.50925 0.32501 0.0
C822 C 0.13912 0.51917 0.37563 0.0
C823 C 0.13566 0.49806 0.27027 0.0
C824 C 0.12399 0.48791 0.21326 0.0
C825 C 0.11165 0.49785 0.17188 0.0
C826 C 0.10089 0.48825 0.11777 0.0
C827 C 0.10247 0.46873 0.10409 0.0
C828 C 0.11481 0.45878 0.14447 0.0
C829 C 0.12556 0.4683 0.19878 0.0
H830 H 0.09414 0.46133 0.06216 0.0
H831 H 0.20087 0.55433 0.58225 0.0
H832 H 0.95331 0.80234 0.92028 0.0
H833 H 0.95634 0.83039 0.84552 0.0
H834 H 0.01607 0.82029 0.79536 0.0
H835 H 0.01293 0.79207 0.86914 0.0
H836 H 0.00907 0.85081 0.89722 0.0
H837 H 0.9914 0.82904 0.66253 0.0
H838 H 0.97129 0.81288 0.5687 0.0
H839 H 0.92536 0.84907 0.62217 0.0
H840 H 0.94511 0.86535 0.71681 0.0
H841 H 0.03582 0.94477 0.77681 0.0
H842 H 0.03073 0.91043 0.79609 0.0
H843 H 0.96861 0.91432 0.80061 0.0
H844 H 0.97366 0.94865 0.77971 0.0
H845 H 0.97803 0.88619 0.71223 0.0
H846 H 0.99341 0.90584 0.95221 0.0
H847 H 0.01248 0.92231 0.04829 0.0
H848 H 0.06084 0.8895 0.99135 0.0
H849 H 0.04216 0.87303 0.89413 0.0
C850 C 0.96656 0.80519 0.88854 0.0
C851 C 0.98299 0.79531 0.90118 0.0
C852 C 0.96836 0.82137 0.84628 0.0
C853 C 0.98657 0.82763 0.81642 0.0
C854 C 1.00192 0.8157 0.81828 0.0
C855 C 1.00005 0.79942 0.85989 0.0
C856 C 0.99098 0.84832 0.80503 0.0
C857 C 1.00267 0.85852 0.8556 0.0
C858 C 0.98183 0.85836 0.75305 0.0
C859 C 0.96969 0.84828 0.69739 0.0
C860 C 0.97693 0.83341 0.65493 0.0
C861 C 0.96562 0.82428 0.60134 0.0
C862 C 0.94705 0.82993 0.58955 0.0
C863 C 0.93975 0.84471 0.63135 0.0
C864 C 0.95101 0.85391 0.6849 0.0
C865 C 0.0211 0.93839 0.78388 0.0
C866 C 1.00514 0.94935 0.777 0.0
C867 C 0.01819 0.91874 0.79464 0.0
C868 C 0.99928 0.90977 0.79963 0.0
C869 C 0.98333 0.92092 0.79646 0.0
C870 C 0.98623 0.94055 0.78534 0.0
C871 C 0.99617 0.88866 0.80436 0.0
C872 C 0.98462 0.87844 0.75323 0.0
C873 C 1.0052 0.87853 0.85661 0.0
C874 C 0.01647 0.8884 0.91514 0.0
C875 C 0.00818 0.90227 0.95968 0.0
C876 C 0.0189 0.91157 0.01444 0.0
C877 C 0.0379 0.90705 0.02553 0.0
C878 C 0.04615 0.89306 0.98241 0.0
C879 C 0.0355 0.88373 0.92749 0.0
H880 H 0.04624 0.91439 0.06753 0.0
H881 H 0.93834 0.82287 0.54795 0.0
H882 H 0.69617 0.97617 0.95471 0.0
H883 H 0.67619 0.98785 0.86263 0.0
H884 H 0.71205 0.04115 0.86124 0.0
H885 H 0.73206 0.02935 0.9543 0.0
H886 H 0.6756 0.04713 0.89113 0.0
H887 H 0.70724 0.01326 0.70732 0.0
H888 H 0.72213 0.9865 0.6442 0.0
H889 H 0.66705 0.95344 0.64704 0.0
H890 H 0.65187 0.97983 0.7114 0.0
H891 H 0.59375 0.04036 0.60008 0.0
H892 H 0.628 0.04116 0.63118 0.0
H893 H 0.61087 0.0344 0.85339 0.0
H894 H 0.57674 0.03402 0.82269 0.0
H895 H 0.64496 0.01296 0.68263 0.0
H896 H 0.64402 0.05143 0.96234 0.0
H897 H 0.62972 0.07911 0.02164 0.0
H898 H 0.62534 0.10493 0.81817 0.0
H899 H 0.63992 0.07755 0.75785 0.0
C900 C 0.70025 0.99004 0.93235 0.0
C901 C 0.71562 1.00187 0.96078 0.0
C902 C 0.68887 0.99672 0.87964 0.0
C903 C 0.69265 0.01537 0.85471 0.0
C904 C 0.70895 0.02668 0.87943 0.0
C905 C 0.72042 0.01993 0.9321 0.0
C906 C 0.67759 0.02391 0.81382 0.0
C907 C 0.66912 0.03986 0.84468 0.0
C908 C 0.66932 0.01466 0.75243 0.0
C909 C 0.67841 0.99856 0.7145 0.0
C910 C 0.69832 1.00023 0.69509 0.0
C911 C 0.70681 0.98512 0.65898 0.0
C912 C 0.69555 0.96828 0.64165 0.0
C913 C 0.67576 0.9665 0.66045 0.0
C914 C 0.66719 0.98155 0.69668 0.0
C915 C 0.59736 0.03961 0.6558 0.0
C916 C 0.58265 0.03718 0.70914 0.0
C917 C 0.61691 0.03997 0.67342 0.0
C918 C 0.62205 0.038 0.74465 0.0
C919 C 0.60733 0.03637 0.79825 0.0
C920 C 0.5878 0.03607 0.78069 0.0
C921 C 0.64246 0.03545 0.76257 0.0
C922 C 0.65183 0.02059 0.7276 0.0
C923 C 0.65168 0.04579 0.81975 0.0
C924 C 0.64308 0.06243 0.85565 0.0
C925 C 0.64018 0.06311 0.93037 0.0
C926 C 0.63198 0.07871 0.96413 0.0
C927 C 0.62662 0.09377 0.92369 0.0
C928 C 0.62947 0.09325 0.84941 0.0
C929 C 0.63769 0.07768 0.81541 0.0
H930 H 0.62025 0.10584 0.94989 0.0
H931 H 0.70215 0.95661 0.61362 0.0
H932 H 0.52824 0.7181 0.91413 0.0
H933 H 0.52354 0.69173 0.82605 0.0
H934 H 0.46585 0.67788 0.91509 0.0
H935 H 0.47033 0.70452 0.00063 0.0
H936 H 0.52188 0.65781 0.86753 0.0
H937 H 0.43787 0.64931 0.81457 0.0
H938 H 0.41264 0.66931 0.77515 0.0
H939 H 0.45657 0.70833 0.68096 0.0
H940 H 0.48206 0.68841 0.71855 0.0
H941 H 0.49555 0.55975 0.8451 0.0
H942 H 0.49702 0.59393 0.87843 0.0
H943 H 0.47581 0.60612 0.67109 0.0
H944 H 0.47257 0.57214 0.64113 0.0
H945 H 0.46238 0.62943 0.7512 0.0
H946 H 0.52699 0.61155 0.72025 0.0
H947 H 0.55514 0.5928 0.73766 0.0
H948 H 0.55528 0.60952 0.96032 0.0
H949 H 0.52699 0.6282 0.94442 0.0
C950 C 0.51418 0.71009 0.91189 0.0
C951 C 0.49967 0.71319 0.96422 0.0
C952 C 0.51157 0.69486 0.8622 0.0
C953 C 0.49444 0.68259 0.86437 0.0
C954 C 0.47912 0.68717 0.91137 0.0
C955 C 0.48167 0.70243 0.96049 0.0
C956 C 0.49379 0.66331 0.82888 0.0
C957 C 0.50898 0.65171 0.84103 0.0
C958 C 0.47724 0.65535 0.79266 0.0
C959 C 0.46191 0.6674 0.76997 0.0
C960 C 0.44216 0.6621 0.78513 0.0
C961 C 0.42781 0.67343 0.76311 0.0
C962 C 0.433 0.6901 0.72569 0.0
C963 C 0.45257 0.69545 0.71013 0.0
C964 C 0.46698 0.68415 0.7319 0.0
C965 C 0.49076 0.56977 0.80776 0.0
C966 C 0.48383 0.56335 0.74097 0.0
C967 C 0.49189 0.58933 0.82614 0.0
C968 C 0.48709 0.60281 0.77647 0.0
C969 C 0.4796 0.59618 0.71062 0.0
C970 C 0.47773 0.57667 0.69353 0.0
C971 C 0.4902 0.62378 0.79201 0.0
C972 C 0.47545 0.63562 0.77631 0.0
C973 C 0.50762 0.63221 0.82148 0.0
C974 C 0.52479 0.62117 0.83121 0.0
C975 C 0.53298 0.61117 0.77298 0.0
C976 C 0.54896 0.60055 0.78258 0.0
C977 C 0.55697 0.59995 0.85006 0.0
C978 C 0.54906 0.61001 0.90807 0.0
C979 C 0.53307 0.62063 0.89878 0.0
H980 H 0.56933 0.59171 0.8574 0.0
H981 H 0.42187 0.69885 0.70868 0.0
H982 H 0.78353 0.49018 0.91341 0.0
H983 H 0.81178 0.48692 0.83298 0.0
H984 H 0.83253 0.54519 0.88558 0.0
H985 H 0.80377 0.54872 0.96136 0.0
H986 H 0.84918 0.53602 0.76918 0.0
H987 H 0.83958 0.50531 0.99861 0.0
H988 H 0.8216 0.48333 0.08274 0.0
H989 H 0.82928 0.43607 0.93628 0.0
H990 H 0.84693 0.45786 0.85086 0.0
H991 H 0.95006 0.5328 0.81192 0.0
H992 H 0.91533 0.53492 0.84071 0.0
H993 H 0.90335 0.4766 0.76545 0.0
H994 H 0.93797 0.47403 0.74093 0.0
H995 H 0.88121 0.48331 0.87643 0.0
H996 H 0.89893 0.51864 0.65868 0.0
H997 H 0.91681 0.5443 0.58965 0.0
H998 H 0.89534 0.58675 0.7343 0.0
H999 H 0.87764 0.56154 0.80506 0.0
C1000 C 0.79339 0.50267 0.90333 0.0
C1001 C 0.79175 0.5196 0.94416 0.0
C1002 C 0.80978 0.5007 0.85862 0.0
C1003 C 0.82482 0.51546 0.85651 0.0
C1004 C 0.82137 0.53343 0.88728 0.0
C1005 C 0.80477 0.53554 0.9302 0.0
C1006 C 0.84512 0.51149 0.83578 0.0
C1007 C 0.85617 0.52445 0.79237 0.0
C1008 C 0.85436 0.49642 0.86625 0.0
C1009 C 0.84419 0.48324 0.91801 0.0
C1010 C 0.83717 0.49027 0.98417 0.0
C1011 C 0.827 0.47788 0.03187 0.0
C1012 C 0.8241 0.45837 0.01447 0.0
C1013 C 0.83144 0.45121 0.94948 0.0
C1014 C 0.84149 0.46357 0.90137 0.0
C1015 C 0.94003 0.52032 0.80333 0.0
C1016 C 0.94666 0.50328 0.77406 0.0
C1017 C 0.92019 0.52165 0.8185 0.0
C1018 C 0.90665 0.50619 0.80239 0.0
C1019 C 0.91346 0.48881 0.77737 0.0
C1020 C 0.93329 0.48733 0.76378 0.0
C1021 C 0.8854 0.50807 0.81066 0.0
C1022 C 0.87419 0.49465 0.85182 0.0
C1023 C 0.8762 0.52315 0.78017 0.0
C1024 C 0.88703 0.53817 0.73737 0.0
C1025 C 0.89812 0.53343 0.67602 0.0
C1026 C 0.9082 0.54788 0.63661 0.0
C1027 C 0.90713 0.56704 0.65757 0.0
C1028 C 0.89606 0.57188 0.71804 0.0
C1029 C 0.88604 0.55754 0.75786 0.0
H1030 H 0.915 0.57818 0.62718 0.0
H1031 H 0.81635 0.44878 0.05167 0.0
H1032 H 0.99245 0.20823 0.92961 0.0
H1033 H 0.99457 0.17779 0.86339 0.0
H1034 H 0.05608 0.18021 0.90115 0.0
H1035 H 0.05373 0.21024 0.97009 0.0
H1036 H 0.01249 0.16132 0.754 0.0
H1037 H 0.06818 0.13606 0.94687 0.0
H1038 H 0.08095 0.14527 0.06572 0.0
H1039 H 0.02655 0.16739 0.12882 0.0
H1040 H 0.0133 0.15784 0.01121 0.0
H1041 H 0.04041 0.07307 0.62729 0.0
H1042 H 0.04335 0.10514 0.68162 0.0
H1043 H 0.00947 0.08488 0.86559 0.0
H1044 H 0.00691 0.05237 0.81192 0.0
H1045 H 0.03807 0.1122 0.90357 0.0
H1046 H 0.98694 0.10579 0.73433 0.0
H1047 H 0.97415 0.09551 0.61653 0.0
H1048 H 0.01583 0.13525 0.51383 0.0
H1049 H 0.02892 0.14568 0.63103 0.0
C1050 C 0.00654 0.20262 0.92117 0.0
C1051 C 0.02294 0.21153 0.95458 0.0
C1052 C 0.00774 0.18516 0.88376 0.0
C1053 C 0.02538 0.17642 0.87901 0.0
C1054 C 0.04222 0.18643 0.90559 0.0
C1055 C 0.04094 0.20371 0.94409 0.0
C1056 C 0.02563 0.15609 0.85381 0.0
C1057 C 0.01817 0.15065 0.78666 0.0
C1058 C 0.03259 0.14194 0.89702 0.0
C1059 C 0.03987 0.1465 0.96982 0.0
C1060 C 0.05889 0.14271 0.9864 0.0
C1061 C 0.06622 0.148 0.05351 0.0
C1062 C 0.05465 0.15706 0.10451 0.0
C1063 C 0.03555 0.16044 0.08921 0.0
C1064 C 0.02811 0.15505 0.02236 0.0
C1065 C 0.03385 0.07534 0.67991 0.0
C1066 C 0.02323 0.06027 0.71508 0.0
C1067 C 0.0355 0.09371 0.71079 0.0
C1068 C 0.02622 0.09752 0.77681 0.0
C1069 C 0.01665 0.08227 0.81434 0.0
C1070 C 0.01521 0.06372 0.78375 0.0
C1071 C 0.02533 0.11761 0.80345 0.0
C1072 C 0.0325 0.12294 0.87095 0.0
C1073 C 0.01774 0.13158 0.76134 0.0
C1074 C 0.00896 0.12644 0.69133 0.0
C1075 C 0.99331 0.11239 0.68659 0.0
C1076 C 0.98602 0.10651 0.61996 0.0
C1077 C 0.99419 0.11468 0.55773 0.0
C1078 C 0.00948 0.12895 0.56204 0.0
C1079 C 0.01681 0.13489 0.6286 0.0
H1080 H 0.98866 0.10988 0.50629 0.0
H1081 H 0.06056 0.16148 0.15578 0.0
H1082 H 0.31113 0.04235 0.93195 0.0
H1083 H 0.34181 0.04636 0.86049 0.0
H1084 H 0.35441 0.98913 0.91004 0.0
H1085 H 0.32389 0.98497 0.97948 0.0
H1086 H 0.38129 0.03226 0.94864 0.0
H1087 H 0.34954 0.98439 0.77484 0.0
H1088 H 0.32298 0.97663 0.69116 0.0
H1089 H 0.34025 0.02733 0.57489 0.0
H1090 H 0.36647 0.03576 0.65966 0.0
H1091 H 0.47374 0.00897 0.82628 0.0
H1092 H 0.43977 0.00936 0.86698 0.0
H1093 H 0.42636 0.03631 0.67194 0.0
H1094 H 0.46015 0.03483 0.62961 0.0
H1095 H 0.39812 0.01348 0.69817 0.0
H1096 H 0.43091 0.06056 0.84559 0.0
H1097 H 0.45476 0.0758 0.92917 0.0
H1098 H 0.4347 0.03602 0.09035 0.0
H1099 H 0.41092 0.02034 0.00747 0.0
C1100 C 0.32012 0.03043 0.92496 0.0
C1101 C 0.31511 0.0133 0.96056 0.0
C1102 C 0.33765 0.03275 0.88469 0.0
C1103 C 0.35027 0.01796 0.87957 0.0
C1104 C 0.34476 1.0006 0.91237 0.0
C1105 C 0.32731 0.99823 0.95186 0.0
C1106 C 0.37027 0.02111 0.84854 0.0
C1107 C 0.38509 0.02809 0.89404 0.0
C1108 C 0.37498 0.01646 0.77651 0.0
C1109 C 0.35969 0.0109 0.72447 0.0
C1110 C 0.34747 0.99405 0.73223 0.0
C1111 C 0.33248 0.98953 0.68458 0.0
C1112 C 0.32981 1.00158 0.62818 0.0
C1113 C 0.34224 0.01809 0.61894 0.0
C1114 C 0.35713 0.02277 0.66687 0.0
C1115 C 0.46352 0.01501 0.7923 0.0
C1116 C 0.46958 0.02196 0.72504 0.0
C1117 C 0.44408 0.01539 0.81577 0.0
C1118 C 0.43038 0.02331 0.77354 0.0
C1119 C 0.4365 0.03017 0.70595 0.0
C1120 C 0.45586 0.02939 0.68182 0.0
C1121 C 0.40966 0.024 0.79931 0.0
C1122 C 0.39459 0.0178 0.75286 0.0
C1123 C 0.40465 0.03002 0.87021 0.0
C1124 C 0.41926 0.03912 0.91987 0.0
C1125 C 0.43172 0.05492 0.89857 0.0
C1126 C 0.44521 0.06367 0.94591 0.0
C1127 C 0.44629 0.05684 0.01493 0.0
C1128 C 0.43388 0.04126 0.0368 0.0
C1129 C 0.42039 0.03244 0.98966 0.0
H1130 H 0.45671 0.06367 0.05154 0.0
H1131 H 0.31824 0.99802 0.5912 0.0
H1132 H 0.51043 0.30142 0.88792 0.0
H1133 H 0.50766 0.33048 0.82016 0.0
H1134 H 0.47175 0.35288 0.99043 0.0
H1135 H 0.47451 0.32388 0.05796 0.0
H1136 H 0.45999 0.36345 0.86055 0.0
H1137 H 0.51837 0.36434 0.98726 0.0
H1138 H 0.5492 0.3533 0.02651 0.0
H1139 H 0.57287 0.35705 0.81203 0.0
H1140 H 0.54202 0.36784 0.77115 0.0
H1141 H 0.48139 0.46321 0.77983 0.0
H1142 H 0.47867 0.43278 0.8424 0.0
H1143 H 0.51027 0.4065 0.66857 0.0
H1144 H 0.51288 0.43662 0.60559 0.0
H1145 H 0.52365 0.39864 0.80499 0.0
H1146 H 0.46264 0.39738 0.68188 0.0
H1147 H 0.4318 0.41036 0.65216 0.0
H1148 H 0.41347 0.40955 0.87354 0.0
H1149 H 0.44433 0.39679 0.90467 0.0
C1150 C 0.50129 0.3122 0.90941 0.0
C1151 C 0.49255 0.31033 0.97787 0.0
C1152 C 0.49992 0.32892 0.87117 0.0
C1153 C 0.48976 0.34405 0.90072 0.0
C1154 C 0.47968 0.34148 0.96648 0.0
C1155 C 0.48117 0.32485 0.00487 0.0
C1156 C 0.49106 0.36309 0.86647 0.0
C1157 C 0.47391 0.37117 0.84886 0.0
C1158 C 0.50921 0.37336 0.85173 0.0
C1159 C 0.52777 0.36673 0.87596 0.0
C1160 C 0.53007 0.36268 0.94829 0.0
C1161 C 0.54757 0.35649 0.97089 0.0
C1162 C 0.56297 0.35445 0.92178 0.0
C1163 C 0.56091 0.35862 0.84999 0.0
C1164 C 0.54341 0.36477 0.82706 0.0
C1165 C 0.48771 0.45094 0.75483 0.0
C1166 C 0.49725 0.45239 0.6874 0.0
C1167 C 0.48611 0.43354 0.79063 0.0
C1168 C 0.4942 0.4173 0.76006 0.0
C1169 C 0.50391 0.4188 0.69325 0.0
C1170 C 0.50529 0.43606 0.65711 0.0
C1171 C 0.49262 0.3987 0.79726 0.0
C1172 C 0.50975 0.3908 0.81617 0.0
C1173 C 0.47446 0.38881 0.81446 0.0
C1174 C 0.45586 0.39632 0.79567 0.0
C1175 C 0.45209 0.40011 0.72428 0.0
C1176 C 0.4346 0.4074 0.70717 0.0
C1177 C 0.4207 0.41082 0.76095 0.0
C1178 C 0.42425 0.40691 0.83194 0.0
C1179 C 0.44173 0.39964 0.84933 0.0
H1180 H 0.40717 0.41647 0.7476 0.0
H1181 H 0.57652 0.34967 0.93939 0.0
H1182 H 0.21931 0.51085 0.87673 0.0
H1183 H 0.19065 0.50925 0.80205 0.0
H1184 H 0.15757 0.47722 0.96441 0.0
H1185 H 0.18647 0.47658 0.03349 0.0
H1186 H 0.14313 0.46579 0.85566 0.0
H1187 H 0.15977 0.53155 0.93513 0.0
H1188 H 0.1808 0.5616 0.94525 0.0
H1189 H 0.18388 0.56526 0.71641 0.0
H1190 H 0.16303 0.53514 0.70499 0.0
H1191 H 0.04791 0.49481 0.78893 0.0
H1192 H 0.0796 0.49193 0.84241 0.0
H1193 H 0.10862 0.50768 0.64307 0.0
H1194 H 0.07732 0.51048 0.58942 0.0
H1195 H 0.12547 0.527 0.75987 0.0
H1196 H 0.10466 0.46191 0.68842 0.0
H1197 H 0.08184 0.433 0.6865 0.0
H1198 H 0.08462 0.4298 0.91474 0.0
H1199 H 0.10726 0.45884 0.9181 0.0
C1200 C 0.20609 0.50295 0.89533 0.0
C1201 C 0.20517 0.49438 0.96252 0.0
C1202 C 0.18948 0.5024 0.85323 0.0
C1203 C 0.17143 0.4939 0.87856 0.0
C1204 C 0.17101 0.48418 0.94319 0.0
C1205 C 0.18766 0.48407 0.98357 0.0
C1206 C 0.15277 0.49549 0.84045 0.0
C1207 C 0.13931 0.47932 0.83579 0.0
C1208 C 0.14755 0.51292 0.81243 0.0
C1209 C 0.16003 0.53102 0.81924 0.0
C1210 C 0.16502 0.53873 0.88702 0.0
C1211 C 0.17689 0.55578 0.89297 0.0
C1212 C 0.18371 0.56531 0.83152 0.0
C1213 C 0.17862 0.55785 0.76397 0.0
C1214 C 0.16677 0.5408 0.75772 0.0
C1215 C 0.06103 0.49768 0.75656 0.0
C1216 C 0.05997 0.50281 0.68476 0.0
C1217 C 0.07915 0.49596 0.7871 0.0
C1218 C 0.09653 0.49949 0.74661 0.0
C1219 C 0.09547 0.50489 0.67541 0.0
C1220 C 0.07746 0.5064 0.64476 0.0
C1221 C 0.11589 0.49756 0.77786 0.0
C1222 C 0.12943 0.51358 0.7804 0.0
C1223 C 0.12099 0.48018 0.80567 0.0
C1224 C 0.10753 0.46262 0.80354 0.0
C1225 C 0.1003 0.45511 0.73823 0.0
C1226 C 0.08742 0.43869 0.73688 0.0
C1227 C 0.08175 0.42959 0.80047 0.0
C1228 C 0.089 0.43687 0.86553 0.0
C1229 C 0.10188 0.45329 0.86718 0.0
H1230 H 0.07177 0.41689 0.79931 0.0
H1231 H 0.1929 0.5785 0.83625 0.0
H1232 H 0.01303 0.83416 0.0669 0.0
H1233 H 0.01464 0.86263 0.14338 0.0
H1234 H 0.98933 0.82971 0.31906 0.0
H1235 H 0.98597 0.8012 0.23971 0.0
H1236 H 0.97248 0.86035 0.3176 0.0
H1237 H 0.03945 0.84935 0.30752 0.0
H1238 H 0.07114 0.84243 0.25249 0.0
H1239 H 0.07311 0.89448 0.13653 0.0
H1240 H 0.04133 0.90161 0.19037 0.0
H1241 H 0.99083 0.94099 0.55455 0.0
H1242 H 0.99067 0.91 0.49272 0.0
H1243 H 0.00662 0.93772 0.29441 0.0
H1244 H 0.00724 0.96906 0.35656 0.0
H1245 H 0.02916 0.90847 0.31913 0.0
H1246 H 0.95999 0.9172 0.32858 0.0
H1247 H 0.9292 0.9237 0.39167 0.0
H1248 H 0.93322 0.87478 0.52129 0.0
H1249 H 0.96416 0.8681 0.4596 0.0
C1250 C 0.00773 0.83289 0.12179 0.0
C1251 C 0.99898 0.81541 0.14667 0.0
C1252 C 0.009 0.84922 0.1661 0.0
C1253 C 1.00236 0.84842 0.23769 0.0
C1254 C 0.99455 0.83075 0.26403 0.0
C1255 C 0.99284 0.81439 0.2189 0.0
C1256 C 1.00236 0.86636 0.28264 0.0
C1257 C 0.98504 0.87066 0.31897 0.0
C1258 C 0.01863 0.88007 0.28414 0.0
C1259 C 0.0379 0.87593 0.25249 0.0
C1260 C 0.04658 0.85927 0.26997 0.0
C1261 C 0.06457 0.85532 0.23906 0.0
C1262 C 0.0741 0.86798 0.1909 0.0
C1263 C 0.0657 0.88467 0.17378 0.0
C1264 C 0.04772 0.88869 0.20456 0.0
C1265 C 0.99413 0.94061 0.49758 0.0
C1266 C 0.99906 0.95759 0.46049 0.0
C1267 C 0.99395 0.9228 0.46225 0.0
C1268 C 0.99849 0.92151 0.38883 0.0
C1269 C 1.00305 0.93841 0.35117 0.0
C1270 C 1.00327 0.95631 0.38661 0.0
C1271 C 0.99923 0.90249 0.35211 0.0
C1272 C 0.01671 0.89801 0.31782 0.0
C1273 C 0.98328 0.88849 0.3538 0.0
C1274 C 0.96446 0.89225 0.3898 0.0
C1275 C 0.95435 0.90788 0.37076 0.0
C1276 C 0.93687 0.91159 0.40627 0.0
C1277 C 0.92929 0.89969 0.46058 0.0
C1278 C 0.93912 0.88399 0.47928 0.0
C1279 C 0.95661 0.88022 0.44397 0.0
H1280 H 0.91577 0.90261 0.4881 0.0
H1281 H 0.08802 0.86488 0.16697 0.0
H1282 H 0.69462 0.96208 0.20438 0.0
H1283 H 0.6648 0.96307 0.27867 0.0
H1284 H 0.67749 0.02369 0.31673 0.0
H1285 H 0.707 0.02272 0.24051 0.0
H1286 H 0.65218 0.97273 0.40995 0.0
H1287 H 0.6359 0.04602 0.30402 0.0
H1288 H 0.64536 0.06653 0.20182 0.0
H1289 H 0.6566 0.01693 0.07171 0.0
H1290 H 0.64687 0.99611 0.17272 0.0
H1291 H 0.56311 0.99682 0.57875 0.0
H1292 H 0.59684 0.99728 0.53466 0.0
H1293 H 0.57726 0.99497 0.31737 0.0
H1294 H 0.54371 0.99632 0.36167 0.0
H1295 H 0.60706 0.01734 0.31877 0.0
H1296 H 0.59367 0.95434 0.41396 0.0
H1297 H 0.58337 0.93119 0.50707 0.0
H1298 H 0.62901 0.95514 0.64112 0.0
H1299 H 0.6395 0.97855 0.54902 0.0
C1300 C 0.69135 0.97544 0.23084 0.0
C1301 C 0.70314 0.99228 0.21761 0.0
C1302 C 0.67428 0.97604 0.27305 0.0
C1303 C 0.66866 0.99352 0.30237 0.0
C1304 C 0.68132 0.01008 0.29384 0.0
C1305 C 0.69828 0.00951 0.25102 0.0
C1306 C 0.64871 0.99471 0.33461 0.0
C1307 C 0.64234 0.98256 0.39036 0.0
C1308 C 0.63564 0.00723 0.30815 0.0
C1309 C 0.64088 0.01955 0.24624 0.0
C1310 C 0.64028 0.03949 0.25348 0.0
C1311 C 0.64569 0.05116 0.19578 0.0
C1312 C 0.65166 0.04304 0.13046 0.0
C1313 C 0.65204 0.02321 0.12243 0.0
C1314 C 0.64657 0.01146 0.17988 0.0
C1315 C 0.56605 0.99674 0.52159 0.0
C1316 C 0.55077 0.99684 0.4737 0.0
C1317 C 0.58537 0.99667 0.49627 0.0
C1318 C 0.5898 0.99584 0.42234 0.0
C1319 C 0.57441 0.9957 0.3746 0.0
C1320 C 0.55517 0.99634 0.39995 0.0
C1321 C 0.61032 0.99525 0.3942 0.0
C1322 C 0.61685 0.00758 0.33907 0.0
C1323 C 0.62332 0.98249 0.41985 0.0
C1324 C 0.61725 0.96828 0.47487 0.0
C1325 C 0.60146 0.95471 0.46342 0.0
C1326 C 0.59561 0.94154 0.51598 0.0
C1327 C 0.60552 0.94173 0.58001 0.0
C1328 C 0.62136 0.95503 0.59149 0.0
C1329 C 0.62729 0.96823 0.5391 0.0
H1330 H 0.60094 0.93154 0.62068 0.0
H1331 H 0.656 0.05213 0.08614 0.0
H1332 H 0.48195 0.69685 0.22021 0.0
H1333 H 0.48472 0.66824 0.28964 0.0
H1334 H 0.54692 0.68048 0.29303 0.0
H1335 H 0.54413 0.70917 0.2231 0.0
H1336 H 0.53794 0.64464 0.24538 0.0
H1337 H 0.519 0.68261 0.4466 0.0
H1338 H 0.49934 0.70425 0.51914 0.0
H1339 H 0.44997 0.66309 0.50839 0.0
H1340 H 0.46923 0.64131 0.43475 0.0
H1341 H 0.52433 0.57323 0.563 0.0
H1342 H 0.52607 0.60511 0.5144 0.0
H1343 H 0.51311 0.58067 0.30531 0.0
H1344 H 0.51184 0.54843 0.35374 0.0
H1345 H 0.49991 0.6239 0.46231 0.0
H1346 H 0.53118 0.61141 0.17534 0.0
H1347 H 0.55346 0.59064 0.11073 0.0
H1348 H 0.58269 0.58264 0.30558 0.0
H1349 H 0.56078 0.6036 0.37112 0.0
C1350 C 0.49614 0.69379 0.23798 0.0
C1351 C 0.51281 0.70535 0.21676 0.0
C1352 C 0.49773 0.67738 0.27749 0.0
C1353 C 0.51605 0.67208 0.29657 0.0
C1354 C 0.53263 0.68421 0.2789 0.0
C1355 C 0.53101 0.70075 0.23976 0.0
C1356 C 0.51793 0.65309 0.32883 0.0
C1357 C 0.52968 0.64014 0.29304 0.0
C1358 C 0.5073 0.64717 0.39133 0.0
C1359 C 0.49552 0.6604 0.43442 0.0
C1360 C 0.50389 0.67825 0.45897 0.0
C1361 C 0.49283 0.69052 0.50047 0.0
C1362 C 0.4734 0.68507 0.51815 0.0
C1363 C 0.46501 0.66731 0.49451 0.0
C1364 C 0.47599 0.65499 0.4529 0.0
C1365 C 0.52208 0.57453 0.50637 0.0
C1366 C 0.518 0.55817 0.46223 0.0
C1367 C 0.52299 0.59288 0.47866 0.0
C1368 C 0.51978 0.59548 0.406 0.0
C1369 C 0.51597 0.57915 0.36134 0.0
C1370 C 0.51522 0.56068 0.38906 0.0
C1371 C 0.51975 0.61531 0.3784 0.0
C1372 C 0.50824 0.62838 0.4148 0.0
C1373 C 0.53085 0.62145 0.31717 0.0
C1374 C 0.54419 0.6089 0.27825 0.0
C1375 C 0.5424 0.60526 0.20435 0.0
C1376 C 0.55496 0.59346 0.16757 0.0
C1377 C 0.56943 0.58527 0.20409 0.0
C1378 C 0.57142 0.58893 0.27742 0.0
C1379 C 0.55892 0.60075 0.31443 0.0
H1380 H 0.57913 0.57612 0.17553 0.0
H1381 H 0.46487 0.6946 0.55021 0.0
H1382 H 0.81648 0.54452 0.17316 0.0
H1383 H 0.8468 0.54334 0.23553 0.0
H1384 H 0.82975 0.48522 0.29422 0.0
H1385 H 0.7995 0.48624 0.22845 0.0
H1386 H 0.85722 0.54016 0.36038 0.0
H1387 H 0.86179 0.46152 0.31026 0.0
H1388 H 0.85643 0.43555 0.21909 0.0
H1389 H 0.87028 0.47555 0.05235 0.0
H1390 H 0.87475 0.50186 0.1425 0.0
H1391 H 0.93728 0.51627 0.55989 0.0
H1392 H 0.90577 0.5168 0.50497 0.0
H1393 H 0.93323 0.51254 0.29572 0.0
H1394 H 0.96505 0.51195 0.3504 0.0
H1395 H 0.90073 0.48841 0.30559 0.0
H1396 H 0.91823 0.55344 0.35432 0.0
H1397 H 0.92769 0.58412 0.41592 0.0
H1398 H 0.87592 0.57824 0.54908 0.0
H1399 H 0.8665 0.54711 0.49034 0.0
C1400 C 0.81899 0.53165 0.20094 0.0
C1401 C 0.80551 0.51558 0.19697 0.0
C1402 C 0.83644 0.5309 0.23617 0.0
C1403 C 0.84092 0.51407 0.26875 0.0
C1404 C 0.82697 0.49824 0.26806 0.0
C1405 C 0.80946 0.49895 0.23203 0.0
C1406 C 0.86019 0.51346 0.30296 0.0
C1407 C 0.86661 0.5287 0.34906 0.0
C1408 C 0.87287 0.49892 0.28675 0.0
C1409 C 0.86831 0.48359 0.23279 0.0
C1410 C 0.86334 0.46477 0.25404 0.0
C1411 C 0.86038 0.45003 0.2026 0.0
C1412 C 0.86283 0.45393 0.12993 0.0
C1413 C 0.86809 0.4726 0.10857 0.0
C1414 C 0.87059 0.48746 0.15972 0.0
C1415 C 0.93676 0.51562 0.50207 0.0
C1416 C 0.95385 0.51423 0.45962 0.0
C1417 C 0.91865 0.51596 0.47078 0.0
C1418 C 0.91708 0.51491 0.39621 0.0
C1419 C 0.93405 0.5134 0.35345 0.0
C1420 C 0.95227 0.51316 0.38478 0.0
C1421 C 0.89765 0.51506 0.36343 0.0
C1422 C 0.89121 0.49972 0.31795 0.0
C1423 C 0.88525 0.52994 0.37814 0.0
C1424 C 0.89178 0.54775 0.41841 0.0
C1425 C 0.90908 0.55843 0.39789 0.0
C1426 C 0.91439 0.57597 0.43209 0.0
C1427 C 0.90238 0.58316 0.48615 0.0
C1428 C 0.88517 0.57268 0.50694 0.0
C1429 C 0.87992 0.55502 0.47361 0.0
H1430 H 0.90643 0.59683 0.51212 0.0
H1431 H 0.86077 0.44248 0.09017 0.0
loop_
_geom_bond_atom_site_label_1
_geom_bond_atom_site_label_2
_geom_bond_distance
_geom_bond_site_symmetry_2
_ccdc_geom_bond_type
H0 C1 0.949 1_556 S
C1 H0 0.949 1_554 S
C1 C2 1.395 . S
C1 C3 1.391 . S
C2 C1 1.395 . S
C2 C5 1.390 . S
C3 C1 1.391 . S
C3 C7 1.387 . S
C3 C8 1.491 . S
H4 C5 0.950 . S
C5 C2 1.390 . S
C5 H4 0.950 . S
C5 C6 1.378 . S
C6 C5 1.378 . S
C6 C7 1.409 . S
C7 C3 1.387 . S
C7 C6 1.409 . S
C7 H9 0.951 . S
C8 C3 1.491 . S
C8 C10 1.382 . S
C8 C12 1.404 . S
H9 C7 0.951 . S
C10 C8 1.382 . S
C10 C11 1.390 . S
C10 H15 0.949 1_554 S
C11 C10 1.390 . S
C11 C16 1.399 . S
C12 C8 1.404 . S
C12 H13 0.950 . S
C12 C14 1.375 . S
H13 C12 0.950 . S
C14 C12 1.375 . S
C14 C16 1.382 . S
C14 H18 0.950 . S
H15 C10 0.949 1_556 S
C16 C11 1.399 . S
C16 C14 1.382 . S
C16 H17 0.952 . S
H17 C16 0.952 . S
H18 C14 0.950 . S
H19 C20 0.949 . S
C20 H19 0.949 . S
C20 C21 1.395 . S
C20 C22 1.391 1_556 S
C21 C20 1.395 . S
C21 C24 1.392 1_556 S
C22 C20 1.391 1_554 S
C22 C26 1.387 . S
C22 C27 1.491 . S
H23 C24 0.948 1_455 S
C24 C21 1.392 1_554 S
C24 H23 0.948 1_655 S
C24 C25 1.378 . S
C25 C24 1.378 . S
C25 C26 1.409 . S
C26 C22 1.387 . S
C26 C25 1.409 . S
C26 H28 0.951 . S
C27 C22 1.491 . S
C27 C29 1.382 1_554 S
C27 C31 1.404 . S
H28 C26 0.951 . S
C29 C27 1.382 1_556 S
C29 C30 1.390 . S
C29 H34 0.949 1_655 S
C30 C29 1.390 . S
C30 C35 1.399 1_556 S
C31 C27 1.404 . S
C31 H32 0.950 . S
C31 C33 1.375 . S
H32 C31 0.950 . S
C33 C31 1.375 . S
C33 C35 1.382 . S
C33 H37 0.950 . S
H34 C29 0.949 1_455 S
C35 C30 1.399 1_554 S
C35 C33 1.382 . S
C35 H36 0.952 . S
H36 C35 0.952 . S
H37 C33 0.950 . S
H38 C39 0.949 . S
C39 H38 0.949 . S
C39 C40 1.395 . S
C39 C41 1.391 1_556 S
C40 C39 1.395 . S
C40 C43 1.390 1_556 S
C41 C39 1.391 1_554 S
C41 C45 1.387 . S
C41 C46 1.491 . S
H42 C43 0.950 . S
C43 C40 1.390 1_554 S
C43 H42 0.950 . S
C43 C44 1.378 . S
C44 C43 1.378 . S
C44 C45 1.409 . S
C45 C41 1.387 . S
C45 C44 1.409 . S
C45 H47 0.951 . S
C46 C41 1.491 . S
C46 C48 1.382 1_554 S
C46 C50 1.404 . S
H47 C45 0.951 . S
C48 C46 1.382 1_556 S
C48 C49 1.390 . S
C48 H53 0.949 . S
C49 C48 1.390 . S
C49 C54 1.399 1_556 S
C50 C46 1.404 . S
C50 H51 0.950 . S
C50 C52 1.375 . S
H51 C50 0.950 . S
C52 C50 1.375 . S
C52 C54 1.382 . S
C52 H56 0.950 . S
H53 C48 0.949 . S
C54 C49 1.399 1_554 S
C54 C52 1.382 . S
C54 H55 0.952 . S
H55 C54 0.952 . S
H56 C52 0.950 . S
H57 C58 0.949 . S
C58 H57 0.949 . S
C58 C59 1.395 . S
C58 C60 1.391 . S
C59 C58 1.395 . S
C59 C62 1.390 . S
C60 C58 1.391 . S
C60 C64 1.387 . S
C60 C65 1.491 . S
H61 C62 0.950 . S
C62 C59 1.390 . S
C62 H61 0.950 . S
C62 C63 1.378 . S
C63 C62 1.378 . S
C63 C64 1.409 . S
C64 C60 1.387 . S
C64 C63 1.409 . S
C64 H66 0.951 . S
C65 C60 1.491 . S
C65 C67 1.382 . S
C65 C69 1.404 . S
H66 C64 0.951 . S
C67 C65 1.382 . S
C67 C68 1.390 . S
C67 H72 0.949 . S
C68 C67 1.390 . S
C68 C73 1.399 . S
C69 C65 1.404 . S
C69 H70 0.950 . S
C69 C71 1.375 . S
H70 C69 0.950 . S
C71 C69 1.375 . S
C71 C73 1.382 . S
C71 H75 0.950 . S
H72 C67 0.949 . S
C73 C68 1.399 . S
C73 C71 1.382 . S
C73 H74 0.952 . S
H74 C73 0.952 . S
H75 C71 0.950 . S
H76 C77 0.949 . S
C77 H76 0.949 . S
C77 C78 1.395 . S
C77 C79 1.391 . S
C78 C77 1.395 . S
C78 C81 1.390 . S
C79 C77 1.391 . S
C79 C83 1.387 . S
C79 C84 1.491 . S
H80 C81 0.950 . S
C81 C78 1.390 . S
C81 H80 0.950 . S
C81 C82 1.378 . S
C82 C81 1.378 . S
C82 C83 1.409 . S
C83 C79 1.387 . S
C83 C82 1.409 . S
C83 H85 0.951 1_554 S
C84 C79 1.491 . S
C84 C86 1.382 . S
C84 C88 1.404 . S
H85 C83 0.951 1_556 S
C86 C84 1.382 . S
C86 C87 1.390 . S
C86 H91 0.949 . S
C87 C86 1.390 . S
C87 C92 1.399 . S
C88 C84 1.404 . S
C88 H89 0.950 . S
C88 C90 1.375 . S
H89 C88 0.950 . S
C90 C88 1.375 . S
C90 C92 1.382 . S
C90 H94 0.950 . S
H91 C86 0.949 . S
C92 C87 1.399 . S
C92 C90 1.382 . S
C92 H93 0.952 . S
H93 C92 0.952 . S
H94 C90 0.950 . S
H95 C96 0.949 . S
C96 H95 0.949 . S
C96 C97 1.395 . S
C96 C98 1.391 . S
C97 C96 1.395 . S
C97 C100 1.390 . S
C98 C96 1.391 . S
C98 C102 1.387 . S
C98 C103 1.491 1_455 S
H99 C100 0.950 . S
C100 C97 1.390 . S
C100 H99 0.950 . S
C100 C101 1.378 . S
C101 C100 1.378 . S
C101 C102 1.409 . S
C102 C98 1.387 . S
C102 C101 1.409 . S
C102 H104 0.951 1_554 S
C103 C98 1.491 1_655 S
C103 C105 1.382 1_655 S
C103 C107 1.404 . S
H104 C102 0.951 1_556 S
C105 C103 1.382 1_455 S
C105 C106 1.390 . S
C105 H110 0.949 . S
C106 C105 1.390 . S
C106 C111 1.399 1_455 S
C107 C103 1.404 . S
C107 H108 0.950 . S
C107 C109 1.375 . S
H108 C107 0.950 . S
C109 C107 1.375 . S
C109 C111 1.382 . S
C109 H113 0.950 . S
H110 C105 0.949 . S
C111 C106 1.399 1_655 S
C111 C109 1.382 . S
C111 H112 0.952 . S
H112 C111 0.952 . S
H113 C109 0.950 . S
H114 C115 0.949 . S
C115 H114 0.949 . S
C115 C116 1.395 . S
C115 C117 1.391 . S
C116 C115 1.395 . S
C116 C119 1.390 . S
C117 C115 1.391 . S
C117 C121 1.387 . S
C117 C122 1.491 . S
H118 C119 0.950 . S
C119 C116 1.390 . S
C119 H118 0.950 . S
C119 C120 1.378 . S
C120 C119 1.378 . S
C120 C121 1.409 . S
C121 C117 1.387 . S
C121 C120 1.409 . S
C121 H123 0.951 . S
C122 C117 1.491 . S
C122 C124 1.382 . S
C122 C126 1.404 . S
H123 C121 0.951 . S
C124 C122 1.382 . S
C124 C125 1.390 . S
C124 H129 0.949 . S
C125 C124 1.390 . S
C125 C130 1.399 . S
C126 C122 1.404 . S
C126 H127 0.950 . S
C126 C128 1.375 . S
H127 C126 0.950 . S
C128 C126 1.375 . S
C128 C130 1.382 . S
C128 H132 0.950 . S
H129 C124 0.949 . S
C130 C125 1.399 . S
C130 C128 1.382 . S
C130 H131 0.952 . S
H131 C130 0.952 . S
H132 C128 0.950 . S
H133 C134 0.949 . S
C134 H133 0.949 . S
C134 C135 1.395 . S
C134 C136 1.391 . S
C135 C134 1.395 . S
C135 C138 1.390 . S
C136 C134 1.391 . S
C136 C140 1.387 1_554 S
C136 C141 1.491 . S
H137 C138 0.950 . S
C138 C135 1.390 . S
C138 H137 0.950 . S
C138 C139 1.378 1_554 S
C139 C138 1.378 1_556 S
C139 C140 1.409 . S
C140 C136 1.387 1_556 S
C140 C139 1.409 . S
C140 H142 0.951 . S
C141 C136 1.491 . S
C141 C143 1.382 . S
C141 C145 1.404 1_554 S
H142 C140 0.951 . S
C143 C141 1.382 . S
C143 C144 1.390 . S
C143 H148 0.949 . S
C144 C143 1.390 . S
C144 C149 1.399 . S
C145 C141 1.404 1_556 S
C145 H146 0.950 . S
C145 C147 1.375 . S
H146 C145 0.950 . S
C147 C145 1.375 . S
C147 C149 1.382 1_556 S
C147 H151 0.950 . S
H148 C143 0.949 . S
C149 C144 1.399 . S
C149 C147 1.382 1_554 S
C149 H150 0.952 . S
H150 C149 0.952 . S
H151 C147 0.950 . S
Dy152 O156 2.398 . S
Dy152 O157 2.491 1_455 S
Dy152 O158 2.403 . S
Dy152 O159 2.664 1_565 S
Dy152 O163 2.326 . S
Dy152 O167 2.310 1_455 S
Dy152 O168 2.351 1_565 S
C153 O164 1.185 . S
C153 O165 1.355 1_655 S
C154 O156 1.185 . S
C154 O157 1.355 1_455 S
Dy155 O159 2.310 1_655 S
Dy155 O162 2.351 1_545 S
Dy155 O164 2.398 . S
Dy155 O165 2.491 1_655 S
Dy155 O166 2.403 . S
Dy155 O167 2.664 1_545 S
Dy155 O169 2.326 . S
O156 Dy152 2.398 . S
O156 C154 1.185 . S
O157 Dy152 2.491 1_655 S
O157 C154 1.355 1_655 S
O158 Dy152 2.403 . S
O158 C160 1.254 1_565 S
O159 Dy152 2.664 1_545 S
O159 Dy155 2.310 1_455 S
O159 C160 1.268 . S
C160 O158 1.254 1_545 S
C160 O159 1.268 . S
C161 O166 1.225 1_565 S
C161 O167 1.283 . S
O162 Dy155 2.351 1_565 S
O162 C170 1.255 . S
O163 Dy152 2.326 . S
O163 C170 1.259 1_455 S
O164 C153 1.185 . S
O164 Dy155 2.398 . S
O165 C153 1.355 1_455 S
O165 Dy155 2.491 1_455 S
O166 Dy155 2.403 . S
O166 C161 1.225 1_545 S
O167 Dy152 2.310 1_655 S
O167 Dy155 2.664 1_565 S
O167 C161 1.283 . S
O168 Dy152 2.351 1_545 S
O168 C171 1.249 . S
O169 Dy155 2.326 . S
O169 C171 1.267 1_655 S
C170 O162 1.255 . S
C170 O163 1.259 1_655 S
C171 O168 1.249 . S
C171 O169 1.267 1_455 S
Dy172 O176 2.398 . S
Dy172 O177 2.491 1_565 S
Dy172 O178 2.403 . S
Dy172 O179 2.664 . S
Dy172 O183 2.326 1_565 S
Dy172 O187 2.310 1_565 S
Dy172 O188 2.351 . S
C173 O184 1.214 . S
C173 O185 1.347 1_545 S
C174 O176 1.185 1_545 S
C174 O177 1.355 . S
Dy175 O179 2.310 1_545 S
Dy175 O182 2.351 . S
Dy175 O184 2.398 . S
Dy175 O185 2.491 1_545 S
Dy175 O186 2.403 . S
Dy175 O187 2.664 . S
Dy175 O189 2.326 1_545 S
O176 Dy172 2.398 . S
O176 C174 1.185 1_565 S
O177 Dy172 2.491 1_545 S
O177 C174 1.355 . S
O178 Dy172 2.403 . S
O178 C180 1.254 . S
O179 Dy172 2.664 . S
O179 Dy175 2.310 1_565 S
O179 C180 1.268 . S
C180 O178 1.254 . S
C180 O179 1.268 . S
C181 O186 1.254 . S
C181 O187 1.268 . S
O182 Dy175 2.351 . S
O182 C190 1.249 . S
O183 Dy172 2.326 1_545 S
O183 C190 1.267 . S
O184 C173 1.214 . S
O184 Dy175 2.398 . S
O185 C173 1.347 1_565 S
O185 Dy175 2.491 1_565 S
O186 Dy175 2.403 . S
O186 C181 1.254 . S
O187 Dy172 2.310 1_545 S
O187 Dy175 2.664 . S
O187 C181 1.268 . S
O188 Dy172 2.351 . S
O188 C191 1.249 . S
O189 Dy175 2.326 1_565 S
O189 C191 1.267 . S
C190 O182 1.249 . S
C190 O183 1.267 . S
C191 O188 1.249 . S
C191 O189 1.267 . S
Dy192 O196 2.398 . S
Dy192 O197 2.491 . S
Dy192 O198 2.403 . S
Dy192 O199 2.664 . S
Dy192 O203 2.326 . S
Dy192 O207 2.310 . S
Dy192 O208 2.351 . S
C193 O204 1.185 . S
C193 O205 1.355 . S
C194 O196 1.185 . S
C194 O197 1.355 . S
Dy195 O199 2.310 . S
Dy195 O202 2.351 . S
Dy195 O204 2.398 . S
Dy195 O205 2.491 . S
Dy195 O206 2.403 . S
Dy195 O207 2.664 . S
Dy195 O209 2.326 . S
O196 Dy192 2.398 . S
O196 C194 1.185 . S
O197 Dy192 2.491 . S
O197 C194 1.355 . S
O198 Dy192 2.403 . S
O198 C200 1.254 . S
O199 Dy192 2.664 . S
O199 Dy195 2.310 . S
O199 C200 1.268 . S
C200 O198 1.254 . S
C200 O199 1.268 . S
C201 O206 1.254 . S
C201 O207 1.268 . S
O202 Dy195 2.351 . S
O202 C210 1.249 . S
O203 Dy192 2.326 . S
O203 C210 1.267 . S
O204 C193 1.185 . S
O204 Dy195 2.398 . S
O205 C193 1.355 . S
O205 Dy195 2.491 . S
O206 Dy195 2.403 . S
O206 C201 1.254 . S
O207 Dy192 2.310 . S
O207 Dy195 2.664 . S
O207 C201 1.268 . S
O208 Dy192 2.351 . S
O208 C211 1.249 . S
O209 Dy195 2.326 . S
O209 C211 1.267 . S
C210 O202 1.249 . S
C210 O203 1.267 . S
C211 O208 1.249 . S
C211 O209 1.267 . S
Dy212 O216 2.398 . S
Dy212 O217 2.491 . S
Dy212 O218 2.403 . S
Dy212 O219 2.664 1_655 S
Dy212 O223 2.326 . S
Dy212 O227 2.310 . S
Dy212 O228 2.351 1_655 S
C213 O224 1.185 . S
C213 O225 1.355 . S
C214 O216 1.185 . S
C214 O217 1.355 . S
Dy215 O219 2.310 . S
Dy215 O222 2.351 1_455 S
Dy215 O224 2.398 . S
Dy215 O225 2.491 . S
Dy215 O226 2.403 . S
Dy215 O227 2.664 1_455 S
Dy215 O229 2.326 . S
O216 Dy212 2.398 . S
O216 C214 1.185 . S
O217 Dy212 2.491 . S
O217 C214 1.355 . S
O218 Dy212 2.403 . S
O218 C220 1.258 1_655 S
O219 Dy212 2.664 1_455 S
O219 Dy215 2.310 . S
O219 C220 1.266 . S
C220 O218 1.258 1_455 S
C220 O219 1.266 . S
C221 O226 1.254 . S
C221 O227 1.268 1_455 S
O222 Dy215 2.351 1_655 S
O222 C230 1.249 . S
O223 Dy212 2.326 . S
O223 C230 1.267 . S
O224 C213 1.185 . S
O224 Dy215 2.398 . S
O225 C213 1.355 . S
O225 Dy215 2.491 . S
O226 Dy215 2.403 . S
O226 C221 1.254 . S
O227 Dy212 2.310 . S
O227 Dy215 2.664 1_655 S
O227 C221 1.268 1_655 S
O228 Dy212 2.351 1_455 S
O228 C231 1.249 . S
O229 Dy215 2.326 . S
O229 C231 1.267 . S
C230 O222 1.249 . S
C230 O223 1.267 . S
C231 O228 1.249 . S
C231 O229 1.267 . S
H232 C250 0.951 . S
H233 C252 0.951 . S
H234 C254 0.950 . S
H235 C255 0.950 . S
H236 C257 0.950 . S
H237 C260 0.950 . S
H238 C261 0.950 . S
H239 C263 0.950 . S
H240 C264 0.950 . S
H241 C265 0.951 . S
H242 C267 0.951 . S
H243 C269 0.950 . S
H244 C270 0.950 . S
H245 C272 0.950 . S
H246 C275 0.950 . S
H247 C276 0.950 . S
H248 C278 0.950 . S
H249 C279 0.950 . S
C250 H232 0.951 . S
C250 C251 1.366 . S
C250 C252 1.388 . S
C251 C250 1.366 . S
C251 C255 1.385 . S
C252 H233 0.951 . S
C252 C250 1.388 . S
C252 C253 1.366 . S
C253 C252 1.366 . S
C253 C254 1.414 . S
C253 C256 1.499 . S
C254 H234 0.950 . S
C254 C253 1.414 . S
C254 C255 1.374 . S
C255 H235 0.950 . S
C255 C251 1.385 . S
C255 C254 1.374 . S
C256 C253 1.499 . S
C256 C257 1.373 . S
C256 C258 1.389 . S
C257 H236 0.950 . S
C257 C256 1.373 . S
C257 C273 1.377 . S
C258 C256 1.389 . S
C258 C259 1.524 . S
C258 C272 1.377 . S
C259 C258 1.524 . S
C259 C260 1.397 . S
C259 C264 1.363 . S
C260 H237 0.950 . S
C260 C259 1.397 . S
C260 C261 1.334 . S
C261 H238 0.950 . S
C261 C260 1.334 . S
C261 C262 1.287 . S
C262 C261 1.287 . S
C262 C263 1.524 . S
C262 H281 0.913 . S
C263 H239 0.950 . S
C263 C262 1.524 . S
C263 C264 1.415 . S
C264 H240 0.950 . S
C264 C259 1.363 . S
C264 C263 1.415 . S
C265 H241 0.951 . S
C265 C266 1.366 . S
C265 C267 1.388 . S
C266 C265 1.366 . S
C266 C270 1.385 . S
C267 H242 0.951 . S
C267 C265 1.388 . S
C267 C268 1.366 . S
C268 C267 1.366 . S
C268 C269 1.414 . S
C268 C271 1.499 . S
C269 H243 0.950 . S
C269 C268 1.414 . S
C269 C270 1.374 . S
C270 H244 0.950 . S
C270 C266 1.385 . S
C270 C269 1.374 . S
C271 C268 1.499 . S
C271 C272 1.373 . S
C271 C273 1.389 . S
C272 H245 0.950 . S
C272 C258 1.377 . S
C272 C271 1.373 . S
C273 C257 1.377 . S
C273 C271 1.389 . S
C273 C274 1.524 1_545 S
C274 C273 1.524 1_565 S
C274 C275 1.397 . S
C274 C279 1.363 . S
C275 H246 0.950 . S
C275 C274 1.397 . S
C275 C276 1.334 . S
C276 H247 0.950 . S
C276 C275 1.334 . S
C276 C277 1.287 . S
C277 C276 1.287 . S
C277 C278 1.524 . S
C277 H280 0.999 . S
C278 H248 0.950 . S
C278 C277 1.524 . S
C278 C279 1.415 . S
C279 H249 0.950 . S
C279 C274 1.363 . S
C279 C278 1.415 . S
H280 C277 0.999 . S
H281 C262 0.913 . S
H282 C300 0.951 . S
H283 C302 0.951 . S
H284 C304 0.950 . S
H285 C305 0.950 . S
H286 C307 0.950 . S
H287 C310 0.950 . S
H288 C311 0.950 . S
H289 C313 0.950 . S
H290 C314 0.950 . S
H291 C315 0.951 . S
H292 C317 0.951 . S
H293 C319 0.950 . S
H294 C320 0.950 . S
H295 C322 0.950 . S
H296 C325 0.950 . S
H297 C326 0.950 . S
H298 C328 0.950 . S
H299 C329 0.950 . S
C300 H282 0.951 . S
C300 C301 1.366 . S
C300 C302 1.388 . S
C301 C300 1.366 . S
C301 C305 1.385 . S
C302 H283 0.951 . S
C302 C300 1.388 . S
C302 C303 1.366 . S
C303 C302 1.366 . S
C303 C304 1.414 . S
C303 C306 1.499 . S
C304 H284 0.950 . S
C304 C303 1.414 . S
C304 C305 1.374 . S
C305 H285 0.950 . S
C305 C301 1.385 . S
C305 C304 1.374 . S
C306 C303 1.499 . S
C306 C307 1.373 . S
C306 C308 1.389 . S
C307 H286 0.950 . S
C307 C306 1.373 . S
C307 C323 1.377 . S
C308 C306 1.389 . S
C308 C309 1.524 . S
C308 C322 1.377 . S
C309 C308 1.524 . S
C309 C310 1.397 . S
C309 C314 1.363 . S
C310 H287 0.950 . S
C310 C309 1.397 . S
C310 C311 1.334 . S
C311 H288 0.950 . S
C311 C310 1.334 . S
C311 C312 1.287 . S
C312 C311 1.287 . S
C312 C313 1.524 . S
C312 H331 0.913 . S
C313 H289 0.950 . S
C313 C312 1.524 . S
C313 C314 1.415 . S
C314 H290 0.950 . S
C314 C309 1.363 . S
C314 C313 1.415 . S
C315 H291 0.951 . S
C315 C316 1.366 . S
C315 C317 1.388 . S
C316 C315 1.366 . S
C316 C320 1.385 . S
C317 H292 0.951 . S
C317 C315 1.388 . S
C317 C318 1.366 . S
C318 C317 1.366 . S
C318 C319 1.414 . S
C318 C321 1.499 . S
C319 H293 0.950 . S
C319 C318 1.414 . S
C319 C320 1.374 . S
C320 H294 0.950 . S
C320 C316 1.385 . S
C320 C319 1.374 . S
C321 C318 1.499 . S
C321 C322 1.373 . S
C321 C323 1.389 . S
C322 H295 0.950 . S
C322 C308 1.377 . S
C322 C321 1.373 . S
C323 C307 1.377 . S
C323 C321 1.389 . S
C323 C324 1.524 . S
C324 C323 1.524 . S
C324 C325 1.397 . S
C324 C329 1.363 . S
C325 H296 0.950 . S
C325 C324 1.397 . S
C325 C326 1.334 . S
C326 H297 0.950 . S
C326 C325 1.334 . S
C326 C327 1.287 . S
C327 C326 1.287 . S
C327 C328 1.524 . S
C327 H330 0.999 . S
C328 H298 0.950 . S
C328 C327 1.524 . S
C328 C329 1.415 . S
C329 H299 0.950 . S
C329 C324 1.363 . S
C329 C328 1.415 . S
H330 C327 0.999 . S
H331 C312 0.913 . S
H332 C350 0.951 . S
H333 C352 0.951 . S
H334 C354 0.950 . S
H335 C355 0.950 . S
H336 C357 0.950 . S
H337 C360 0.950 . S
H338 C361 0.950 . S
H339 C363 0.950 . S
H340 C364 0.950 . S
H341 C365 0.951 . S
H342 C367 0.951 . S
H343 C369 0.950 . S
H344 C370 0.950 . S
H345 C372 0.950 . S
H346 C375 0.950 . S
H347 C376 0.950 . S
H348 C378 0.950 . S
H349 C379 0.950 . S
C350 H332 0.951 . S
C350 C351 1.366 . S
C350 C352 1.388 . S
C351 C350 1.366 . S
C351 C355 1.385 . S
C352 H333 0.951 . S
C352 C350 1.388 . S
C352 C353 1.366 . S
C353 C352 1.366 . S
C353 C354 1.414 . S
C353 C356 1.499 . S
C354 H334 0.950 . S
C354 C353 1.414 . S
C354 C355 1.374 . S
C355 H335 0.950 . S
C355 C351 1.385 . S
C355 C354 1.374 . S
C356 C353 1.499 . S
C356 C357 1.373 . S
C356 C358 1.389 . S
C357 H336 0.950 . S
C357 C356 1.373 . S
C357 C373 1.377 . S
C358 C356 1.389 . S
C358 C359 1.524 . S
C358 C372 1.377 . S
C359 C358 1.524 . S
C359 C360 1.397 . S
C359 C364 1.363 . S
C360 H337 0.950 . S
C360 C359 1.397 . S
C360 C361 1.334 . S
C361 H338 0.950 . S
C361 C360 1.334 . S
C361 C362 1.287 . S
C362 C361 1.287 . S
C362 C363 1.524 . S
C362 H381 0.913 . S
C363 H339 0.950 . S
C363 C362 1.524 . S
C363 C364 1.415 . S
C364 H340 0.950 . S
C364 C359 1.363 . S
C364 C363 1.415 . S
C365 H341 0.951 . S
C365 C366 1.366 . S
C365 C367 1.388 . S
C366 C365 1.366 . S
C366 C370 1.385 . S
C367 H342 0.951 . S
C367 C365 1.388 . S
C367 C368 1.366 . S
C368 C367 1.366 . S
C368 C369 1.414 . S
C368 C371 1.499 . S
C369 H343 0.950 . S
C369 C368 1.414 . S
C369 C370 1.374 . S
C370 H344 0.950 . S
C370 C366 1.385 . S
C370 C369 1.374 . S
C371 C368 1.499 . S
C371 C372 1.373 . S
C371 C373 1.389 . S
C372 H345 0.950 . S
C372 C358 1.377 . S
C372 C371 1.373 . S
C373 C357 1.377 . S
C373 C371 1.389 . S
C373 C374 1.524 . S
C374 C373 1.524 . S
C374 C375 1.397 . S
C374 C379 1.363 . S
C375 H346 0.950 . S
C375 C374 1.397 . S
C375 C376 1.334 . S
C376 H347 0.950 . S
C376 C375 1.334 . S
C376 C377 1.287 . S
C377 C376 1.287 . S
C377 C378 1.524 . S
C377 H380 0.999 . S
C378 H348 0.950 . S
C378 C377 1.524 . S
C378 C379 1.415 . S
C379 H349 0.950 . S
C379 C374 1.363 . S
C379 C378 1.415 . S
H380 C377 0.999 . S
H381 C362 0.913 . S
H382 C400 0.951 . S
H383 C402 0.951 . S
H384 C404 0.950 . S
H385 C405 0.950 . S
H386 C407 0.950 . S
H387 C410 0.950 . S
H388 C411 0.950 . S
H389 C413 0.950 . S
H390 C414 0.950 . S
H391 C415 0.951 . S
H392 C417 0.951 . S
H393 C419 0.950 . S
H394 C420 0.950 . S
H395 C422 0.950 . S
H396 C425 0.950 . S
H397 C426 0.950 . S
H398 C428 0.950 . S
H399 C429 0.950 . S
C400 H382 0.951 . S
C400 C401 1.366 1_655 S
C400 C402 1.388 . S
C401 C400 1.366 1_455 S
C401 C405 1.385 . S
C402 H383 0.951 . S
C402 C400 1.388 . S
C402 C403 1.366 1_655 S
C403 C402 1.366 1_455 S
C403 C404 1.414 . S
C403 C406 1.499 . S
C404 H384 0.950 . S
C404 C403 1.414 . S
C404 C405 1.374 . S
C405 H385 0.950 . S
C405 C401 1.385 . S
C405 C404 1.374 . S
C406 C403 1.499 . S
C406 C407 1.373 . S
C406 C408 1.389 1_455 S
C407 H386 0.950 . S
C407 C406 1.373 . S
C407 C423 1.377 . S
C408 C406 1.389 1_655 S
C408 C409 1.524 . S
C408 C422 1.377 . S
C409 C408 1.524 . S
C409 C410 1.397 . S
C409 C414 1.363 . S
C410 H387 0.950 . S
C410 C409 1.397 . S
C410 C411 1.334 . S
C411 H388 0.950 . S
C411 C410 1.334 . S
C411 C412 1.287 . S
C412 C411 1.287 . S
C412 C413 1.524 . S
C412 H431 0.913 . S
C413 H389 0.950 . S
C413 C412 1.524 . S
C413 C414 1.415 . S
C414 H390 0.950 . S
C414 C409 1.363 . S
C414 C413 1.415 . S
C415 H391 0.951 . S
C415 C416 1.366 . S
C415 C417 1.388 . S
C416 C415 1.366 . S
C416 C420 1.385 1_455 S
C417 H392 0.951 . S
C417 C415 1.388 . S
C417 C418 1.366 . S
C418 C417 1.366 . S
C418 C419 1.414 1_455 S
C418 C421 1.499 . S
C419 H393 0.950 . S
C419 C418 1.414 1_655 S
C419 C420 1.374 . S
C420 H394 0.950 . S
C420 C416 1.385 1_655 S
C420 C419 1.374 . S
C421 C418 1.499 . S
C421 C422 1.373 1_455 S
C421 C423 1.389 . S
C422 H395 0.950 . S
C422 C408 1.377 . S
C422 C421 1.373 1_655 S
C423 C407 1.377 . S
C423 C421 1.389 . S
C423 C424 1.524 . S
C424 C423 1.524 . S
C424 C425 1.397 . S
C424 C429 1.363 . S
C425 H396 0.950 . S
C425 C424 1.397 . S
C425 C426 1.334 . S
C426 H397 0.950 . S
C426 C425 1.334 . S
C426 C427 1.287 . S
C427 C426 1.287 . S
C427 C428 1.524 . S
C427 H430 0.999 . S
C428 H398 0.950 . S
C428 C427 1.524 . S
C428 C429 1.415 . S
C429 H399 0.950 . S
C429 C424 1.363 . S
C429 C428 1.415 . S
H430 C427 0.999 . S
H431 C412 0.913 . S
H432 C450 0.951 1_554 S
H433 C452 0.951 . S
H434 C454 0.950 . S
H435 C455 0.950 . S
H436 C457 0.950 . S
H437 C460 0.950 . S
H438 C461 0.950 . S
H439 C463 0.950 . S
H440 C464 0.920 1_565 S
H441 C465 0.951 . S
H442 C467 0.951 . S
H443 C469 0.950 . S
H444 C470 0.950 . S
H445 C472 0.914 1_545 S
H446 C475 0.950 . S
H447 C476 0.950 . S
H448 C478 0.950 . S
H449 C479 0.950 . S
C450 H432 0.951 1_556 S
C450 C451 1.366 . S
C450 C452 1.388 . S
C451 C450 1.366 . S
C451 C455 1.385 . S
C452 H433 0.951 . S
C452 C450 1.388 . S
C452 C453 1.366 . S
C453 C452 1.366 . S
C453 C454 1.414 . S
C453 C456 1.499 . S
C454 H434 0.950 . S
C454 C453 1.414 . S
C454 C455 1.374 . S
C455 H435 0.950 . S
C455 C451 1.385 . S
C455 C454 1.374 . S
C456 C453 1.499 . S
C456 C457 1.373 . S
C456 C458 1.389 . S
C457 H436 0.950 . S
C457 C456 1.373 . S
C457 C473 1.377 . S
C458 C456 1.389 . S
C458 C459 1.524 1_565 S
C458 C472 1.377 . S
C459 C458 1.524 1_545 S
C459 C460 1.397 . S
C459 C464 1.363 . S
C460 H437 0.950 . S
C460 C459 1.397 . S
C460 C461 1.334 . S
C461 H438 0.950 . S
C461 C460 1.334 . S
C461 C462 1.287 . S
C462 C461 1.287 . S
C462 C463 1.524 1_556 S
C462 H481 0.913 1_556 S
C463 H439 0.950 . S
C463 C462 1.524 1_554 S
C463 C464 1.415 1_554 S
C464 H440 0.920 1_545 S
C464 C459 1.363 . S
C464 C463 1.415 1_556 S
C465 H441 0.951 . S
C465 C466 1.366 . S
C465 C467 1.388 . S
C466 C465 1.366 . S
C466 C470 1.385 . S
C467 H442 0.951 . S
C467 C465 1.388 . S
C467 C468 1.366 . S
C468 C467 1.366 . S
C468 C469 1.414 . S
C468 C471 1.499 . S
C469 H443 0.950 . S
C469 C468 1.414 . S
C469 C470 1.374 . S
C470 H444 0.950 . S
C470 C466 1.385 . S
C470 C469 1.374 . S
C471 C468 1.499 . S
C471 C472 1.373 . S
C471 C473 1.389 . S
C472 H445 0.914 1_565 S
C472 C458 1.377 . S
C472 C471 1.373 . S
C473 C457 1.377 . S
C473 C471 1.389 . S
C473 C474 1.524 . S
C474 C473 1.524 . S
C474 C475 1.397 . S
C474 C479 1.363 . S
C475 H446 0.950 . S
C475 C474 1.397 . S
C475 C476 1.334 . S
C476 H447 0.950 . S
C476 C475 1.334 . S
C476 C477 1.287 . S
C477 C476 1.287 . S
C477 C478 1.524 . S
C477 H480 0.999 . S
C478 H448 0.950 . S
C478 C477 1.524 . S
C478 C479 1.415 . S
C479 H449 0.950 . S
C479 C474 1.363 . S
C479 C478 1.415 . S
H480 C477 0.999 . S
H481 C462 0.913 1_554 S
H482 C500 0.951 . S
H483 C502 0.951 . S
H484 C504 0.950 . S
H485 C505 0.950 . S
H486 C507 0.950 . S
H487 C510 0.950 . S
H488 C511 0.950 1_554 S
H489 C513 0.950 . S
H490 C514 0.950 . S
H491 C515 0.951 . S
H492 C517 0.951 . S
H493 C519 0.950 . S
H494 C520 0.950 . S
H495 C522 0.950 . S
H496 C525 0.950 . S
H497 C526 0.950 . S
H498 C528 0.950 . S
H499 C529 0.950 . S
C500 H482 0.951 . S
C500 C501 1.366 . S
C500 C502 1.388 . S
C501 C500 1.366 . S
C501 C505 1.385 1_556 S
C502 H483 0.951 . S
C502 C500 1.388 . S
C502 C503 1.366 . S
C503 C502 1.366 . S
C503 C504 1.414 . S
C503 C506 1.499 . S
C504 H484 0.950 . S
C504 C503 1.414 . S
C504 C505 1.374 1_556 S
C505 H485 0.950 . S
C505 C501 1.385 1_554 S
C505 C504 1.374 1_554 S
C506 C503 1.499 . S
C506 C507 1.373 . S
C506 C508 1.389 . S
C507 H486 0.950 . S
C507 C506 1.373 . S
C507 C523 1.377 . S
C508 C506 1.389 . S
C508 C509 1.524 . S
C508 C522 1.377 . S
C509 C508 1.524 . S
C509 C510 1.397 . S
C509 C514 1.363 . S
C510 H487 0.950 . S
C510 C509 1.397 . S
C510 C511 1.334 . S
C511 H488 0.950 1_556 S
C511 C510 1.334 . S
C511 C512 1.287 . S
C512 C511 1.287 . S
C512 C513 1.524 . S
C512 H531 0.913 . S
C513 H489 0.950 . S
C513 C512 1.524 . S
C513 C514 1.415 . S
C514 H490 0.950 . S
C514 C509 1.363 . S
C514 C513 1.415 . S
C515 H491 0.951 . S
C515 C516 1.366 . S
C515 C517 1.388 . S
C516 C515 1.366 . S
C516 C520 1.385 . S
C517 H492 0.951 . S
C517 C515 1.388 . S
C517 C518 1.366 . S
C518 C517 1.366 . S
C518 C519 1.414 . S
C518 C521 1.499 . S
C519 H493 0.950 . S
C519 C518 1.414 . S
C519 C520 1.374 . S
C520 H494 0.950 . S
C520 C516 1.385 . S
C520 C519 1.374 . S
C521 C518 1.499 . S
C521 C522 1.373 . S
C521 C523 1.389 . S
C522 H495 0.950 . S
C522 C508 1.377 . S
C522 C521 1.373 . S
C523 C507 1.377 . S
C523 C521 1.389 . S
C523 C524 1.524 . S
C524 C523 1.524 . S
C524 C525 1.397 . S
C524 C529 1.363 . S
C525 H496 0.950 . S
C525 C524 1.397 . S
C525 C526 1.334 . S
C526 H497 0.950 . S
C526 C525 1.334 . S
C526 C527 1.287 . S
C527 C526 1.287 . S
C527 C528 1.524 . S
C527 H530 0.999 . S
C528 H498 0.950 . S
C528 C527 1.524 . S
C528 C529 1.415 . S
C529 H499 0.950 . S
C529 C524 1.363 . S
C529 C528 1.415 . S
H530 C527 0.999 . S
H531 C512 0.913 . S
H532 C550 0.951 . S
H533 C552 0.951 . S
H534 C554 0.950 . S
H535 C555 0.950 . S
H536 C557 0.950 . S
H537 C560 0.950 . S
H538 C561 0.950 . S
H539 C563 0.950 . S
H540 C564 0.950 . S
H541 C565 0.951 . S
H542 C567 0.951 . S
H543 C569 0.950 . S
H544 C570 0.950 . S
H545 C572 0.950 . S
H546 C575 0.950 . S
H547 C576 0.950 . S
H548 C578 0.950 . S
H549 C579 0.950 . S
C550 H532 0.951 . S
C550 C551 1.366 . S
C550 C552 1.388 . S
C551 C550 1.366 . S
C551 C555 1.385 1_556 S
C552 H533 0.951 . S
C552 C550 1.388 . S
C552 C553 1.366 . S
C553 C552 1.366 . S
C553 C554 1.414 . S
C553 C556 1.499 . S
C554 H534 0.950 . S
C554 C553 1.414 . S
C554 C555 1.374 1_556 S
C555 H535 0.950 . S
C555 C551 1.385 1_554 S
C555 C554 1.374 1_554 S
C556 C553 1.499 . S
C556 C557 1.373 . S
C556 C558 1.389 . S
C557 H536 0.950 . S
C557 C556 1.373 . S
C557 C573 1.377 . S
C558 C556 1.389 . S
C558 C559 1.524 . S
C558 C572 1.377 . S
C559 C558 1.524 . S
C559 C560 1.397 . S
C559 C564 1.363 . S
C560 H537 0.950 . S
C560 C559 1.397 . S
C560 C561 1.334 . S
C561 H538 0.950 . S
C561 C560 1.334 . S
C561 C562 1.287 . S
C562 C561 1.287 . S
C562 C563 1.524 . S
C562 H581 0.913 . S
C563 H539 0.950 . S
C563 C562 1.524 . S
C563 C564 1.415 . S
C564 H540 0.950 . S
C564 C559 1.363 . S
C564 C563 1.415 . S
C565 H541 0.951 . S
C565 C566 1.366 . S
C565 C567 1.388 . S
C566 C565 1.366 . S
C566 C570 1.385 . S
C567 H542 0.951 . S
C567 C565 1.388 . S
C567 C568 1.366 . S
C568 C567 1.366 . S
C568 C569 1.414 . S
C568 C571 1.499 . S
C569 H543 0.950 . S
C569 C568 1.414 . S
C569 C570 1.374 . S
C570 H544 0.950 . S
C570 C566 1.385 . S
C570 C569 1.374 . S
C571 C568 1.499 . S
C571 C572 1.373 . S
C571 C573 1.389 . S
C572 H545 0.950 . S
C572 C558 1.377 . S
C572 C571 1.373 . S
C573 C557 1.377 . S
C573 C571 1.389 . S
C573 C574 1.524 . S
C574 C573 1.524 . S
C574 C575 1.397 . S
C574 C579 1.363 . S
C575 H546 0.950 . S
C575 C574 1.397 . S
C575 C576 1.334 . S
C576 H547 0.950 . S
C576 C575 1.334 . S
C576 C577 1.287 . S
C577 C576 1.287 . S
C577 C578 1.524 . S
C577 H580 0.999 . S
C578 H548 0.950 . S
C578 C577 1.524 . S
C578 C579 1.415 . S
C579 H549 0.950 . S
C579 C574 1.363 . S
C579 C578 1.415 . S
H580 C577 0.999 . S
H581 C562 0.913 . S
H582 C600 0.951 . S
H583 C602 0.951 . S
H584 C604 0.950 . S
H585 C605 0.950 . S
H586 C607 0.950 . S
H587 C610 0.950 . S
H588 C611 0.950 . S
H589 C613 0.950 . S
H590 C614 0.950 . S
H591 C615 0.951 . S
H592 C617 0.951 . S
H593 C619 0.950 . S
H594 C620 0.950 . S
H595 C622 0.950 . S
H596 C625 0.950 . S
H597 C626 0.950 . S
H598 C628 0.950 . S
H599 C629 0.950 . S
C600 H582 0.951 . S
C600 C601 1.366 1_455 S
C600 C602 1.388 . S
C601 C600 1.366 1_655 S
C601 C605 1.385 . S
C602 H583 0.951 . S
C602 C600 1.388 . S
C602 C603 1.369 . S
C603 C602 1.369 . S
C603 C604 1.410 1_455 S
C603 C606 1.498 . S
C604 H584 0.950 . S
C604 C603 1.410 1_655 S
C604 C605 1.374 . S
C605 H585 0.950 . S
C605 C601 1.385 . S
C605 C604 1.374 . S
C606 C603 1.498 . S
C606 C607 1.359 1_455 S
C606 C608 1.405 . S
C607 H586 0.950 . S
C607 C606 1.359 1_655 S
C607 C623 1.377 . S
C608 C606 1.405 . S
C608 C609 1.524 . S
C608 C622 1.377 . S
C609 C608 1.524 . S
C609 C610 1.397 . S
C609 C614 1.363 . S
C610 H587 0.950 . S
C610 C609 1.397 . S
C610 C611 1.334 . S
C611 H588 0.950 . S
C611 C610 1.334 . S
C611 C612 1.287 . S
C612 C611 1.287 . S
C612 C613 1.524 . S
C612 H631 0.913 . S
C613 H589 0.950 . S
C613 C612 1.524 . S
C613 C614 1.415 . S
C614 H590 0.950 . S
C614 C609 1.363 . S
C614 C613 1.415 . S
C615 H591 0.951 . S
C615 C616 1.366 1_655 S
C615 C617 1.388 . S
C616 C615 1.366 1_455 S
C616 C620 1.385 . S
C617 H592 0.951 . S
C617 C615 1.388 . S
C617 C618 1.366 1_655 S
C618 C617 1.366 1_455 S
C618 C619 1.414 . S
C618 C621 1.503 . S
C619 H593 0.950 . S
C619 C618 1.414 . S
C619 C620 1.374 . S
C620 H594 0.950 . S
C620 C616 1.385 . S
C620 C619 1.374 . S
C621 C618 1.503 . S
C621 C622 1.417 . S
C621 C623 1.343 1_455 S
C622 H595 0.950 . S
C622 C608 1.377 . S
C622 C621 1.417 . S
C623 C607 1.377 . S
C623 C621 1.343 1_655 S
C623 C624 1.524 . S
C624 C623 1.524 . S
C624 C625 1.397 . S
C624 C629 1.363 . S
C625 H596 0.950 . S
C625 C624 1.397 . S
C625 C626 1.334 . S
C626 H597 0.950 . S
C626 C625 1.334 . S
C626 C627 1.287 . S
C627 C626 1.287 . S
C627 C628 1.524 . S
C627 H630 0.999 . S
C628 H598 0.950 . S
C628 C627 1.524 . S
C628 C629 1.415 . S
C629 H599 0.950 . S
C629 C624 1.363 . S
C629 C628 1.415 . S
H630 C627 0.999 . S
H631 C612 0.913 . S
H632 C650 0.951 . S
H633 C652 0.950 1_655 S
H634 C654 0.950 . S
H635 C655 0.950 . S
H636 C657 0.950 . S
H637 C660 0.950 . S
H638 C661 0.950 . S
H639 C663 0.950 . S
H640 C664 0.950 . S
H641 C665 0.953 . S
H642 C667 0.954 . S
H643 C669 0.950 . S
H644 C670 0.950 . S
H645 C672 0.950 . S
H646 C675 0.950 . S
H647 C676 0.950 . S
H648 C678 0.950 . S
H649 C679 0.950 . S
C650 H632 0.951 . S
C650 C651 1.366 . S
C650 C652 1.388 . S
C651 C650 1.366 . S
C651 C655 1.385 . S
C652 H633 0.950 1_455 S
C652 C650 1.388 . S
C652 C653 1.366 . S
C653 C652 1.366 . S
C653 C654 1.414 . S
C653 C656 1.499 . S
C654 H634 0.950 . S
C654 C653 1.414 . S
C654 C655 1.374 . S
C655 H635 0.950 . S
C655 C651 1.385 . S
C655 C654 1.374 . S
C656 C653 1.499 . S
C656 C657 1.373 . S
C656 C658 1.389 1_455 S
C657 H636 0.950 . S
C657 C656 1.373 . S
C657 C673 1.377 . S
C658 C656 1.389 1_655 S
C658 C659 1.524 . S
C658 C672 1.377 . S
C659 C658 1.524 . S
C659 C660 1.397 . S
C659 C664 1.363 . S
C660 H637 0.950 . S
C660 C659 1.397 . S
C660 C661 1.334 . S
C661 H638 0.950 . S
C661 C660 1.334 . S
C661 C662 1.287 . S
C662 C661 1.287 . S
C662 C663 1.524 . S
C662 H681 0.913 . S
C663 H639 0.950 . S
C663 C662 1.524 . S
C663 C664 1.415 . S
C664 H640 0.950 . S
C664 C659 1.363 . S
C664 C663 1.415 . S
C665 H641 0.953 . S
C665 C666 1.366 . S
C665 C667 1.388 1_655 S
C666 C665 1.366 . S
C666 C670 1.385 . S
C667 H642 0.954 . S
C667 C665 1.388 1_455 S
C667 C668 1.360 1_455 S
C668 C667 1.360 1_655 S
C668 C669 1.420 . S
C668 C671 1.503 1_655 S
C669 H643 0.950 . S
C669 C668 1.420 . S
C669 C670 1.374 . S
C670 H644 0.950 . S
C670 C666 1.385 . S
C670 C669 1.374 . S
C671 C668 1.503 1_455 S
C671 C672 1.335 1_455 S
C671 C673 1.425 . S
C672 H645 0.950 . S
C672 C658 1.377 . S
C672 C671 1.335 1_655 S
C673 C657 1.377 . S
C673 C671 1.425 . S
C673 C674 1.524 . S
C674 C673 1.524 . S
C674 C675 1.397 . S
C674 C679 1.363 . S
C675 H646 0.950 . S
C675 C674 1.397 . S
C675 C676 1.334 . S
C676 H647 0.950 . S
C676 C675 1.334 . S
C676 C677 1.287 . S
C677 C676 1.287 . S
C677 C678 1.524 . S
C677 H680 0.999 . S
C678 H648 0.950 . S
C678 C677 1.524 . S
C678 C679 1.415 . S
C679 H649 0.950 . S
C679 C674 1.363 . S
C679 C678 1.415 . S
H680 C677 0.999 . S
H681 C662 0.913 . S
H682 C700 0.951 . S
H683 C702 0.951 . S
H684 C704 0.950 . S
H685 C705 0.950 . S
H686 C707 0.950 . S
H687 C710 0.950 . S
H688 C711 0.950 . S
H689 C713 0.950 . S
H690 C714 0.950 . S
H691 C715 0.977 . S
H692 C717 0.951 1_565 S
H693 C719 0.950 . S
H694 C720 0.950 . S
H695 C722 0.950 . S
H696 C725 0.950 . S
H697 C726 0.950 . S
H698 C728 0.950 . S
H699 C729 0.950 . S
C700 H682 0.951 . S
C700 C701 1.366 . S
C700 C702 1.388 . S
C701 C700 1.366 . S
C701 C705 1.385 . S
C702 H683 0.951 . S
C702 C700 1.388 . S
C702 C703 1.366 . S
C703 C702 1.366 . S
C703 C704 1.414 . S
C703 C706 1.499 . S
C704 H684 0.950 . S
C704 C703 1.414 . S
C704 C705 1.374 . S
C705 H685 0.950 . S
C705 C701 1.385 . S
C705 C704 1.374 . S
C706 C703 1.499 . S
C706 C707 1.373 . S
C706 C708 1.389 . S
C707 H686 0.950 . S
C707 C706 1.373 . S
C707 C723 1.377 . S
C708 C706 1.389 . S
C708 C709 1.524 . S
C708 C722 1.377 . S
C709 C708 1.524 . S
C709 C710 1.397 . S
C709 C714 1.363 . S
C710 H687 0.950 . S
C710 C709 1.397 . S
C710 C711 1.334 . S
C711 H688 0.950 . S
C711 C710 1.334 . S
C711 C712 1.287 . S
C712 C711 1.287 . S
C712 C713 1.524 . S
C712 H731 0.913 . S
C713 H689 0.950 . S
C713 C712 1.524 . S
C713 C714 1.415 . S
C714 H690 0.950 . S
C714 C709 1.363 . S
C714 C713 1.415 . S
C715 H691 0.977 . S
C715 C716 1.354 1_565 S
C715 C717 1.376 1_565 S
C716 C715 1.354 1_545 S
C716 C720 1.385 . S
C717 H692 0.951 1_545 S
C717 C715 1.376 1_545 S
C717 C718 1.366 . S
C718 C717 1.366 . S
C718 C719 1.414 . S
C718 C721 1.499 . S
C719 H693 0.950 . S
C719 C718 1.414 . S
C719 C720 1.374 . S
C720 H694 0.950 . S
C720 C716 1.385 . S
C720 C719 1.374 . S
C721 C718 1.499 . S
C721 C722 1.373 . S
C721 C723 1.389 . S
C722 H695 0.950 . S
C722 C708 1.377 . S
C722 C721 1.373 . S
C723 C707 1.377 . S
C723 C721 1.389 . S
C723 C724 1.524 1_545 S
C724 C723 1.524 1_565 S
C724 C725 1.397 . S
C724 C729 1.363 . S
C725 H696 0.950 . S
C725 C724 1.397 . S
C725 C726 1.334 . S
C726 H697 0.950 . S
C726 C725 1.334 . S
C726 C727 1.287 . S
C727 C726 1.287 . S
C727 C728 1.524 . S
C727 H730 0.999 . S
C728 H698 0.950 . S
C728 C727 1.524 . S
C728 C729 1.415 . S
C729 H699 0.950 . S
C729 C724 1.363 . S
C729 C728 1.415 . S
H730 C727 0.999 . S
H731 C712 0.913 . S
H732 C750 0.951 . S
H733 C752 0.951 . S
H734 C754 0.950 . S
H735 C755 0.950 . S
H736 C757 0.950 . S
H737 C760 0.950 . S
H738 C761 0.950 . S
H739 C763 0.950 . S
H740 C764 0.950 . S
H741 C765 0.951 . S
H742 C767 0.951 . S
H743 C769 0.950 . S
H744 C770 0.950 . S
H745 C772 0.950 . S
H746 C775 0.950 . S
H747 C776 0.950 . S
H748 C778 0.950 . S
H749 C779 0.950 . S
C750 H732 0.951 . S
C750 C751 1.366 . S
C750 C752 1.388 . S
C751 C750 1.366 . S
C751 C755 1.385 . S
C752 H733 0.951 . S
C752 C750 1.388 . S
C752 C753 1.366 . S
C753 C752 1.366 . S
C753 C754 1.414 . S
C753 C756 1.499 . S
C754 H734 0.950 . S
C754 C753 1.414 . S
C754 C755 1.374 . S
C755 H735 0.950 . S
C755 C751 1.385 . S
C755 C754 1.374 . S
C756 C753 1.499 . S
C756 C757 1.373 . S
C756 C758 1.389 . S
C757 H736 0.950 . S
C757 C756 1.373 . S
C757 C773 1.377 . S
C758 C756 1.389 . S
C758 C759 1.524 . S
C758 C772 1.377 . S
C759 C758 1.524 . S
C759 C760 1.397 . S
C759 C764 1.363 . S
C760 H737 0.950 . S
C760 C759 1.397 . S
C760 C761 1.334 . S
C761 H738 0.950 . S
C761 C760 1.334 . S
C761 C762 1.287 . S
C762 C761 1.287 . S
C762 C763 1.524 . S
C762 H781 0.913 . S
C763 H739 0.950 . S
C763 C762 1.524 . S
C763 C764 1.415 . S
C764 H740 0.950 . S
C764 C759 1.363 . S
C764 C763 1.415 . S
C765 H741 0.951 . S
C765 C766 1.366 . S
C765 C767 1.388 . S
C766 C765 1.366 . S
C766 C770 1.385 . S
C767 H742 0.951 . S
C767 C765 1.388 . S
C767 C768 1.366 . S
C768 C767 1.366 . S
C768 C769 1.414 . S
C768 C771 1.499 . S
C769 H743 0.950 . S
C769 C768 1.414 . S
C769 C770 1.374 . S
C770 H744 0.950 . S
C770 C766 1.385 . S
C770 C769 1.374 . S
C771 C768 1.499 . S
C771 C772 1.373 . S
C771 C773 1.389 . S
C772 H745 0.950 . S
C772 C758 1.377 . S
C772 C771 1.373 . S
C773 C757 1.377 . S
C773 C771 1.389 . S
C773 C774 1.524 . S
C774 C773 1.524 . S
C774 C775 1.397 . S
C774 C779 1.363 . S
C775 H746 0.950 . S
C775 C774 1.397 . S
C775 C776 1.334 . S
C776 H747 0.950 . S
C776 C775 1.334 . S
C776 C777 1.287 . S
C777 C776 1.287 . S
C777 C778 1.524 . S
C777 H780 0.999 . S
C778 H748 0.950 . S
C778 C777 1.524 . S
C778 C779 1.415 . S
C779 H749 0.950 . S
C779 C774 1.363 . S
C779 C778 1.415 . S
H780 C777 0.999 . S
H781 C762 0.913 . S
H782 C800 0.951 . S
H783 C802 0.951 . S
H784 C804 0.950 . S
H785 C805 0.950 . S
H786 C807 0.950 . S
H787 C810 0.950 . S
H788 C811 0.950 . S
H789 C813 0.950 . S
H790 C814 0.950 . S
H791 C815 0.951 . S
H792 C817 0.951 . S
H793 C819 0.950 . S
H794 C820 0.950 . S
H795 C822 0.950 . S
H796 C825 0.950 . S
H797 C826 0.950 . S
H798 C828 0.950 . S
H799 C829 0.950 . S
C800 H782 0.951 . S
C800 C801 1.366 . S
C800 C802 1.388 . S
C801 C800 1.366 . S
C801 C805 1.385 . S
C802 H783 0.951 . S
C802 C800 1.388 . S
C802 C803 1.366 . S
C803 C802 1.366 . S
C803 C804 1.414 . S
C803 C806 1.499 . S
C804 H784 0.950 . S
C804 C803 1.414 . S
C804 C805 1.374 . S
C805 H785 0.950 . S
C805 C801 1.385 . S
C805 C804 1.374 . S
C806 C803 1.499 . S
C806 C807 1.373 . S
C806 C808 1.389 . S
C807 H786 0.950 . S
C807 C806 1.373 . S
C807 C823 1.377 . S
C808 C806 1.389 . S
C808 C809 1.524 . S
C808 C822 1.377 . S
C809 C808 1.524 . S
C809 C810 1.397 . S
C809 C814 1.363 . S
C810 H787 0.950 . S
C810 C809 1.397 . S
C810 C811 1.334 . S
C811 H788 0.950 . S
C811 C810 1.334 . S
C811 C812 1.287 . S
C812 C811 1.287 . S
C812 C813 1.524 . S
C812 H831 0.913 . S
C813 H789 0.950 . S
C813 C812 1.524 . S
C813 C814 1.415 . S
C814 H790 0.950 . S
C814 C809 1.363 . S
C814 C813 1.415 . S
C815 H791 0.951 . S
C815 C816 1.366 . S
C815 C817 1.388 . S
C816 C815 1.366 . S
C816 C820 1.385 . S
C817 H792 0.951 . S
C817 C815 1.388 . S
C817 C818 1.366 . S
C818 C817 1.366 . S
C818 C819 1.414 . S
C818 C821 1.499 . S
C819 H793 0.950 . S
C819 C818 1.414 . S
C819 C820 1.374 . S
C820 H794 0.950 . S
C820 C816 1.385 . S
C820 C819 1.374 . S
C821 C818 1.499 . S
C821 C822 1.373 . S
C821 C823 1.389 . S
C822 H795 0.950 . S
C822 C808 1.377 . S
C822 C821 1.373 . S
C823 C807 1.377 . S
C823 C821 1.389 . S
C823 C824 1.524 . S
C824 C823 1.524 . S
C824 C825 1.397 . S
C824 C829 1.363 . S
C825 H796 0.950 . S
C825 C824 1.397 . S
C825 C826 1.334 . S
C826 H797 0.950 . S
C826 C825 1.334 . S
C826 C827 1.287 . S
C827 C826 1.287 . S
C827 C828 1.524 . S
C827 H830 0.999 . S
C828 H798 0.950 . S
C828 C827 1.524 . S
C828 C829 1.415 . S
C829 H799 0.950 . S
C829 C824 1.363 . S
C829 C828 1.415 . S
H830 C827 0.999 . S
H831 C812 0.913 . S
H832 C850 0.951 . S
H833 C852 0.951 . S
H834 C854 0.950 . S
H835 C855 0.950 . S
H836 C857 0.950 . S
H837 C860 0.950 . S
H838 C861 0.950 . S
H839 C863 0.950 . S
H840 C864 0.950 . S
H841 C865 0.951 . S
H842 C867 0.951 . S
H843 C869 0.950 . S
H844 C870 0.950 . S
H845 C872 0.950 . S
H846 C875 0.950 . S
H847 C876 0.950 . S
H848 C878 0.950 . S
H849 C879 0.950 . S
C850 H832 0.951 . S
C850 C851 1.366 . S
C850 C852 1.388 . S
C851 C850 1.366 . S
C851 C855 1.385 1_655 S
C852 H833 0.951 . S
C852 C850 1.388 . S
C852 C853 1.317 1_655 S
C853 C852 1.317 1_455 S
C853 C854 1.465 . S
C853 C856 1.500 . S
C854 H834 0.950 . S
C854 C853 1.465 . S
C854 C855 1.374 . S
C855 H835 0.950 . S
C855 C851 1.385 1_455 S
C855 C854 1.374 . S
C856 C853 1.500 . S
C856 C857 1.373 . S
C856 C858 1.389 1_455 S
C857 H836 0.950 . S
C857 C856 1.373 . S
C857 C873 1.377 . S
C858 C856 1.389 1_655 S
C858 C859 1.524 . S
C858 C872 1.377 . S
C859 C858 1.524 . S
C859 C860 1.397 . S
C859 C864 1.363 . S
C860 H837 0.950 . S
C860 C859 1.397 . S
C860 C861 1.334 . S
C861 H838 0.950 . S
C861 C860 1.334 . S
C861 C862 1.287 . S
C862 C861 1.287 . S
C862 C863 1.524 . S
C862 H881 0.913 . S
C863 H839 0.950 . S
C863 C862 1.524 . S
C863 C864 1.415 . S
C864 H840 0.950 . S
C864 C859 1.363 . S
C864 C863 1.415 . S
C865 H841 0.951 . S
C865 C866 1.366 . S
C865 C867 1.388 . S
C866 C865 1.366 . S
C866 C870 1.385 1_455 S
C867 H842 0.951 . S
C867 C865 1.388 . S
C867 C868 1.366 . S
C868 C867 1.366 . S
C868 C869 1.414 1_455 S
C868 C871 1.499 . S
C869 H843 0.950 . S
C869 C868 1.414 1_655 S
C869 C870 1.374 . S
C870 H844 0.950 . S
C870 C866 1.385 1_655 S
C870 C869 1.374 . S
C871 C868 1.499 . S
C871 C872 1.373 1_455 S
C871 C873 1.389 . S
C872 H845 0.950 . S
C872 C858 1.377 . S
C872 C871 1.373 1_655 S
C873 C857 1.377 . S
C873 C871 1.389 . S
C873 C874 1.524 . S
C874 C873 1.524 . S
C874 C875 1.397 . S
C874 C879 1.363 . S
C875 H846 0.950 . S
C875 C874 1.397 . S
C875 C876 1.334 . S
C876 H847 0.950 . S
C876 C875 1.334 . S
C876 C877 1.287 . S
C877 C876 1.287 . S
C877 C878 1.524 . S
C877 H880 0.999 . S
C878 H848 0.950 . S
C878 C877 1.524 . S
C878 C879 1.415 . S
C879 H849 0.950 . S
C879 C874 1.363 . S
C879 C878 1.415 . S
H880 C877 0.999 . S
H881 C862 0.913 . S
H882 C900 0.951 1_554 S
H883 C902 0.951 . S
H884 C904 0.950 . S
H885 C905 0.950 . S
H886 C907 0.950 . S
H887 C910 0.950 . S
H888 C911 0.950 . S
H889 C913 0.950 . S
H890 C914 0.950 1_554 S
H891 C915 0.951 . S
H892 C917 0.951 . S
H893 C919 0.950 . S
H894 C920 0.950 . S
H895 C922 0.950 . S
H896 C925 0.950 . S
H897 C926 0.950 . S
H898 C928 0.950 . S
H899 C929 0.950 . S
C900 H882 0.951 1_556 S
C900 C901 1.366 . S
C900 C902 1.388 . S
C901 C900 1.366 . S
C901 C905 1.385 . S
C902 H883 0.951 . S
C902 C900 1.388 . S
C902 C903 1.366 . S
C903 C902 1.366 . S
C903 C904 1.414 . S
C903 C906 1.499 . S
C904 H884 0.950 . S
C904 C903 1.414 . S
C904 C905 1.374 . S
C905 H885 0.950 . S
C905 C901 1.385 . S
C905 C904 1.374 . S
C906 C903 1.499 . S
C906 C907 1.373 . S
C906 C908 1.389 . S
C907 H886 0.950 . S
C907 C906 1.373 . S
C907 C923 1.377 . S
C908 C906 1.389 . S
C908 C909 1.524 . S
C908 C922 1.377 . S
C909 C908 1.524 . S
C909 C910 1.397 . S
C909 C914 1.363 . S
C910 H887 0.950 . S
C910 C909 1.397 . S
C910 C911 1.334 . S
C911 H888 0.950 . S
C911 C910 1.334 . S
C911 C912 1.287 . S
C912 C911 1.287 . S
C912 C913 1.524 1_556 S
C912 H931 0.913 1_556 S
C913 H889 0.950 . S
C913 C912 1.524 1_554 S
C913 C914 1.415 1_554 S
C914 H890 0.950 1_556 S
C914 C909 1.363 . S
C914 C913 1.415 1_556 S
C915 H891 0.951 . S
C915 C916 1.366 . S
C915 C917 1.388 . S
C916 C915 1.366 . S
C916 C920 1.385 . S
C917 H892 0.951 . S
C917 C915 1.388 . S
C917 C918 1.366 . S
C918 C917 1.366 . S
C918 C919 1.414 . S
C918 C921 1.499 . S
C919 H893 0.950 . S
C919 C918 1.414 . S
C919 C920 1.374 . S
C920 H894 0.950 . S
C920 C916 1.385 . S
C920 C919 1.374 . S
C921 C918 1.499 . S
C921 C922 1.373 . S
C921 C923 1.389 . S
C922 H895 0.950 . S
C922 C908 1.377 . S
C922 C921 1.373 . S
C923 C907 1.377 . S
C923 C921 1.389 . S
C923 C924 1.524 1_565 S
C924 C923 1.524 1_545 S
C924 C925 1.397 . S
C924 C929 1.363 . S
C925 H896 0.950 . S
C925 C924 1.397 . S
C925 C926 1.334 . S
C926 H897 0.950 . S
C926 C925 1.334 . S
C926 C927 1.287 . S
C927 C926 1.287 . S
C927 C928 1.524 . S
C927 H930 0.999 . S
C928 H898 0.950 . S
C928 C927 1.524 . S
C928 C929 1.415 . S
C929 H899 0.950 . S
C929 C924 1.363 . S
C929 C928 1.415 . S
H930 C927 0.999 . S
H931 C912 0.913 1_554 S
H932 C950 0.951 . S
H933 C952 0.951 . S
H934 C954 0.950 . S
H935 C955 0.950 . S
H936 C957 0.950 . S
H937 C960 0.950 . S
H938 C961 0.950 . S
H939 C963 0.950 . S
H940 C964 0.950 . S
H941 C965 0.951 . S
H942 C967 0.951 . S
H943 C969 0.950 . S
H944 C970 0.950 . S
H945 C972 0.950 . S
H946 C975 0.950 . S
H947 C976 0.950 . S
H948 C978 0.950 . S
H949 C979 0.950 1_554 S
C950 H932 0.951 . S
C950 C951 1.366 1_556 S
C950 C952 1.388 . S
C951 C950 1.366 1_554 S
C951 C955 1.385 . S
C952 H933 0.951 . S
C952 C950 1.388 . S
C952 C953 1.366 . S
C953 C952 1.366 . S
C953 C954 1.414 1_556 S
C953 C956 1.499 . S
C954 H934 0.950 . S
C954 C953 1.414 1_554 S
C954 C955 1.374 . S
C955 H935 0.950 . S
C955 C951 1.385 . S
C955 C954 1.374 . S
C956 C953 1.499 . S
C956 C957 1.373 . S
C956 C958 1.389 . S
C957 H936 0.950 . S
C957 C956 1.373 . S
C957 C973 1.377 . S
C958 C956 1.389 . S
C958 C959 1.524 . S
C958 C972 1.377 . S
C959 C958 1.524 . S
C959 C960 1.397 . S
C959 C964 1.363 . S
C960 H937 0.950 . S
C960 C959 1.397 . S
C960 C961 1.334 . S
C961 H938 0.950 . S
C961 C960 1.334 . S
C961 C962 1.287 . S
C962 C961 1.287 . S
C962 C963 1.524 . S
C962 H981 0.913 . S
C963 H939 0.950 . S
C963 C962 1.524 . S
C963 C964 1.415 . S
C964 H940 0.950 . S
C964 C959 1.363 . S
C964 C963 1.415 . S
C965 H941 0.951 . S
C965 C966 1.366 . S
C965 C967 1.388 . S
C966 C965 1.366 . S
C966 C970 1.385 . S
C967 H942 0.951 . S
C967 C965 1.388 . S
C967 C968 1.366 . S
C968 C967 1.366 . S
C968 C969 1.414 . S
C968 C971 1.499 . S
C969 H943 0.950 . S
C969 C968 1.414 . S
C969 C970 1.374 . S
C970 H944 0.950 . S
C970 C966 1.385 . S
C970 C969 1.374 . S
C971 C968 1.499 . S
C971 C972 1.373 . S
C971 C973 1.389 . S
C972 H945 0.950 . S
C972 C958 1.377 . S
C972 C971 1.373 . S
C973 C957 1.377 . S
C973 C971 1.389 . S
C973 C974 1.524 . S
C974 C973 1.524 . S
C974 C975 1.397 . S
C974 C979 1.363 . S
C975 H946 0.950 . S
C975 C974 1.397 . S
C975 C976 1.334 . S
C976 H947 0.950 . S
C976 C975 1.334 . S
C976 C977 1.287 . S
C977 C976 1.287 . S
C977 C978 1.524 1_556 S
C977 H980 0.999 . S
C978 H948 0.950 . S
C978 C977 1.524 1_554 S
C978 C979 1.415 1_554 S
C979 H949 0.950 1_556 S
C979 C974 1.363 . S
C979 C978 1.415 1_556 S
H980 C977 0.999 . S
H981 C962 0.913 . S
H982 C1000 0.951 . S
H983 C1002 0.951 . S
H984 C1004 0.950 1_554 S
H985 C1005 0.950 . S
H986 C1007 0.950 . S
H987 C1010 0.950 . S
H988 C1011 0.950 . S
H989 C1013 0.950 . S
H990 C1014 0.950 . S
H991 C1015 0.951 . S
H992 C1017 0.951 . S
H993 C1019 0.950 . S
H994 C1020 0.950 . S
H995 C1022 0.950 . S
H996 C1025 0.950 . S
H997 C1026 0.950 . S
H998 C1028 0.950 . S
H999 C1029 0.950 . S
C1000 H982 0.951 . S
C1000 C1001 1.366 . S
C1000 C1002 1.388 . S
C1001 C1000 1.366 . S
C1001 C1005 1.385 1_556 S
C1002 H983 0.951 . S
C1002 C1000 1.388 . S
C1002 C1003 1.366 . S
C1003 C1002 1.366 . S
C1003 C1004 1.414 . S
C1003 C1006 1.499 . S
C1004 H984 0.950 1_556 S
C1004 C1003 1.414 . S
C1004 C1005 1.374 1_556 S
C1005 H985 0.950 . S
C1005 C1001 1.385 1_554 S
C1005 C1004 1.374 1_554 S
C1006 C1003 1.499 . S
C1006 C1007 1.373 . S
C1006 C1008 1.389 . S
C1007 H986 0.950 . S
C1007 C1006 1.373 . S
C1007 C1023 1.377 . S
C1008 C1006 1.389 . S
C1008 C1009 1.524 . S
C1008 C1022 1.377 . S
C1009 C1008 1.524 . S
C1009 C1010 1.397 . S
C1009 C1014 1.363 . S
C1010 H987 0.950 . S
C1010 C1009 1.397 . S
C1010 C1011 1.334 . S
C1011 H988 0.950 . S
C1011 C1010 1.334 . S
C1011 C1012 1.287 . S
C1012 C1011 1.287 . S
C1012 C1013 1.524 . S
C1012 H1031 0.913 . S
C1013 H989 0.950 . S
C1013 C1012 1.524 . S
C1013 C1014 1.415 . S
C1014 H990 0.950 . S
C1014 C1009 1.363 . S
C1014 C1013 1.415 . S
C1015 H991 0.951 . S
C1015 C1016 1.366 . S
C1015 C1017 1.388 . S
C1016 C1015 1.366 . S
C1016 C1020 1.385 . S
C1017 H992 0.951 . S
C1017 C1015 1.388 . S
C1017 C1018 1.366 . S
C1018 C1017 1.366 . S
C1018 C1019 1.414 . S
C1018 C1021 1.499 . S
C1019 H993 0.950 . S
C1019 C1018 1.414 . S
C1019 C1020 1.374 . S
C1020 H994 0.950 . S
C1020 C1016 1.385 . S
C1020 C1019 1.374 . S
C1021 C1018 1.499 . S
C1021 C1022 1.373 . S
C1021 C1023 1.389 . S
C1022 H995 0.950 . S
C1022 C1008 1.377 . S
C1022 C1021 1.373 . S
C1023 C1007 1.377 . S
C1023 C1021 1.389 . S
C1023 C1024 1.524 . S
C1024 C1023 1.524 . S
C1024 C1025 1.397 . S
C1024 C1029 1.363 . S
C1025 H996 0.950 . S
C1025 C1024 1.397 . S
C1025 C1026 1.334 . S
C1026 H997 0.950 . S
C1026 C1025 1.334 . S
C1026 C1027 1.287 . S
C1027 C1026 1.287 . S
C1027 C1028 1.524 . S
C1027 H1030 0.999 . S
C1028 H998 0.950 . S
C1028 C1027 1.524 . S
C1028 C1029 1.415 . S
C1029 H999 0.950 . S
C1029 C1024 1.363 . S
C1029 C1028 1.415 . S
H1030 C1027 0.999 . S
H1031 C1012 0.913 . S
H1032 C1050 0.951 . S
H1033 C1052 0.951 . S
H1034 C1054 0.950 . S
H1035 C1055 0.950 . S
H1036 C1057 0.950 . S
H1037 C1060 0.950 . S
H1038 C1061 0.950 . S
H1039 C1063 0.950 . S
H1040 C1064 0.992 . S
H1041 C1065 0.951 . S
H1042 C1067 0.951 . S
H1043 C1069 0.950 . S
H1044 C1070 0.950 . S
H1045 C1072 0.950 . S
H1046 C1075 0.950 . S
H1047 C1076 0.950 . S
H1048 C1078 0.950 1_455 S
H1049 C1079 0.950 . S
C1050 H1032 0.951 . S
C1050 C1051 1.366 1_654 S
C1050 C1052 1.388 1_554 S
C1051 C1050 1.366 1_456 S
C1051 C1055 1.385 . S
C1052 H1033 0.951 . S
C1052 C1050 1.388 1_556 S
C1052 C1053 1.366 1_655 S
C1053 C1052 1.366 1_455 S
C1053 C1054 1.414 . S
C1053 C1056 1.499 . S
C1054 H1034 0.950 . S
C1054 C1053 1.414 . S
C1054 C1055 1.374 . S
C1055 H1035 0.950 . S
C1055 C1051 1.385 . S
C1055 C1054 1.374 . S
C1056 C1053 1.499 . S
C1056 C1057 1.373 . S
C1056 C1058 1.389 . S
C1057 H1036 0.950 . S
C1057 C1056 1.373 . S
C1057 C1073 1.377 . S
C1058 C1056 1.389 . S
C1058 C1059 1.524 . S
C1058 C1072 1.377 . S
C1059 C1058 1.524 . S
C1059 C1060 1.397 . S
C1059 C1064 1.363 1_556 S
C1060 H1037 0.950 . S
C1060 C1059 1.397 . S
C1060 C1061 1.334 1_556 S
C1061 H1038 0.950 . S
C1061 C1060 1.334 1_554 S
C1061 C1062 1.287 . S
C1062 C1061 1.287 . S
C1062 C1063 1.524 . S
C1062 H1081 0.913 . S
C1063 H1039 0.950 . S
C1063 C1062 1.524 . S
C1063 C1064 1.415 . S
C1064 H1040 0.992 . S
C1064 C1059 1.363 1_554 S
C1064 C1063 1.415 . S
C1065 H1041 0.951 . S
C1065 C1066 1.366 . S
C1065 C1067 1.388 . S
C1066 C1065 1.366 . S
C1066 C1070 1.385 1_455 S
C1067 H1042 0.951 . S
C1067 C1065 1.388 . S
C1067 C1068 1.366 . S
C1068 C1067 1.366 . S
C1068 C1069 1.414 1_455 S
C1068 C1071 1.499 . S
C1069 H1043 0.950 . S
C1069 C1068 1.414 1_655 S
C1069 C1070 1.374 . S
C1070 H1044 0.950 . S
C1070 C1066 1.385 1_655 S
C1070 C1069 1.374 . S
C1071 C1068 1.499 . S
C1071 C1072 1.373 . S
C1071 C1073 1.389 . S
C1072 H1045 0.950 . S
C1072 C1058 1.377 . S
C1072 C1071 1.373 . S
C1073 C1057 1.377 . S
C1073 C1071 1.389 . S
C1073 C1074 1.524 1_455 S
C1074 C1073 1.524 1_655 S
C1074 C1075 1.397 . S
C1074 C1079 1.363 1_655 S
C1075 H1046 0.950 . S
C1075 C1074 1.397 . S
C1075 C1076 1.334 . S
C1076 H1047 0.950 . S
C1076 C1075 1.334 . S
C1076 C1077 1.287 . S
C1077 C1076 1.287 . S
C1077 C1078 1.524 . S
C1077 H1080 0.999 . S
C1078 H1048 0.950 1_655 S
C1078 C1077 1.524 . S
C1078 C1079 1.415 1_655 S
C1079 H1049 0.950 . S
C1079 C1074 1.363 1_455 S
C1079 C1078 1.415 1_455 S
H1080 C1077 0.999 . S
H1081 C1062 0.913 . S
H1082 C1100 0.951 . S
H1083 C1102 0.951 . S
H1084 C1104 0.950 . S
H1085 C1105 0.950 . S
H1086 C1107 0.950 . S
H1087 C1110 0.950 . S
H1088 C1111 0.950 . S
H1089 C1113 0.950 . S
H1090 C1114 0.950 . S
H1091 C1115 0.951 . S
H1092 C1117 0.951 . S
H1093 C1119 0.950 . S
H1094 C1120 0.950 . S
H1095 C1122 0.950 . S
H1096 C1125 0.950 . S
H1097 C1126 0.950 . S
H1098 C1128 0.950 . S
H1099 C1129 0.950 1_554 S
C1100 H1082 0.951 . S
C1100 C1101 1.366 1_556 S
C1100 C1102 1.388 . S
C1101 C1100 1.366 1_554 S
C1101 C1105 1.385 . S
C1102 H1083 0.951 . S
C1102 C1100 1.388 . S
C1102 C1103 1.366 . S
C1103 C1102 1.366 . S
C1103 C1104 1.414 1_556 S
C1103 C1106 1.499 . S
C1104 H1084 0.950 . S
C1104 C1103 1.414 1_554 S
C1104 C1105 1.374 . S
C1105 H1085 0.950 . S
C1105 C1101 1.385 . S
C1105 C1104 1.374 . S
C1106 C1103 1.499 . S
C1106 C1107 1.373 . S
C1106 C1108 1.389 . S
C1107 H1086 0.950 . S
C1107 C1106 1.373 . S
C1107 C1123 1.377 . S
C1108 C1106 1.389 . S
C1108 C1109 1.524 . S
C1108 C1122 1.377 . S
C1109 C1108 1.524 . S
C1109 C1110 1.397 1_545 S
C1109 C1114 1.363 . S
C1110 H1087 0.950 . S
C1110 C1109 1.397 1_565 S
C1110 C1111 1.334 . S
C1111 H1088 0.950 . S
C1111 C1110 1.334 . S
C1111 C1112 1.287 . S
C1112 C1111 1.287 . S
C1112 C1113 1.524 . S
C1112 H1131 0.913 . S
C1113 H1089 0.950 . S
C1113 C1112 1.524 . S
C1113 C1114 1.415 1_565 S
C1114 H1090 0.950 . S
C1114 C1109 1.363 . S
C1114 C1113 1.415 1_545 S
C1115 H1091 0.951 . S
C1115 C1116 1.366 . S
C1115 C1117 1.388 . S
C1116 C1115 1.366 . S
C1116 C1120 1.385 . S
C1117 H1092 0.951 . S
C1117 C1115 1.388 . S
C1117 C1118 1.366 . S
C1118 C1117 1.366 . S
C1118 C1119 1.414 . S
C1118 C1121 1.499 . S
C1119 H1093 0.950 . S
C1119 C1118 1.414 . S
C1119 C1120 1.374 . S
C1120 H1094 0.950 . S
C1120 C1116 1.385 . S
C1120 C1119 1.374 . S
C1121 C1118 1.499 . S
C1121 C1122 1.373 . S
C1121 C1123 1.389 . S
C1122 H1095 0.950 . S
C1122 C1108 1.377 . S
C1122 C1121 1.373 . S
C1123 C1107 1.377 . S
C1123 C1121 1.389 . S
C1123 C1124 1.524 . S
C1124 C1123 1.524 . S
C1124 C1125 1.397 . S
C1124 C1129 1.363 . S
C1125 H1096 0.950 . S
C1125 C1124 1.397 . S
C1125 C1126 1.334 . S
C1126 H1097 0.950 . S
C1126 C1125 1.334 . S
C1126 C1127 1.287 . S
C1127 C1126 1.287 . S
C1127 C1128 1.524 1_556 S
C1127 H1130 0.999 . S
C1128 H1098 0.950 . S
C1128 C1127 1.524 1_554 S
C1128 C1129 1.415 1_554 S
C1129 H1099 0.950 1_556 S
C1129 C1124 1.363 . S
C1129 C1128 1.415 1_556 S
H1130 C1127 0.999 . S
H1131 C1112 0.913 . S
H1132 C1150 0.951 . S
H1133 C1152 0.951 . S
H1134 C1154 0.950 . S
H1135 C1155 0.950 . S
H1136 C1157 0.950 . S
H1137 C1160 0.950 . S
H1138 C1161 0.950 . S
H1139 C1163 0.950 . S
H1140 C1164 0.950 . S
H1141 C1165 0.951 . S
H1142 C1167 0.951 . S
H1143 C1169 0.950 . S
H1144 C1170 0.950 . S
H1145 C1172 0.950 . S
H1146 C1175 0.950 . S
H1147 C1176 0.950 . S
H1148 C1178 0.950 . S
H1149 C1179 0.950 . S
C1150 H1132 0.951 . S
C1150 C1151 1.366 . S
C1150 C1152 1.388 . S
C1151 C1150 1.366 . S
C1151 C1155 1.385 . S
C1152 H1133 0.951 . S
C1152 C1150 1.388 . S
C1152 C1153 1.366 . S
C1153 C1152 1.366 . S
C1153 C1154 1.414 . S
C1153 C1156 1.499 . S
C1154 H1134 0.950 . S
C1154 C1153 1.414 . S
C1154 C1155 1.374 . S
C1155 H1135 0.950 . S
C1155 C1151 1.385 . S
C1155 C1154 1.374 . S
C1156 C1153 1.499 . S
C1156 C1157 1.373 . S
C1156 C1158 1.389 . S
C1157 H1136 0.950 . S
C1157 C1156 1.373 . S
C1157 C1173 1.377 . S
C1158 C1156 1.389 . S
C1158 C1159 1.524 . S
C1158 C1172 1.377 . S
C1159 C1158 1.524 . S
C1159 C1160 1.397 . S
C1159 C1164 1.363 . S
C1160 H1137 0.950 . S
C1160 C1159 1.397 . S
C1160 C1161 1.334 . S
C1161 H1138 0.950 . S
C1161 C1160 1.334 . S
C1161 C1162 1.287 . S
C1162 C1161 1.287 . S
C1162 C1163 1.524 . S
C1162 H1181 0.913 . S
C1163 H1139 0.950 . S
C1163 C1162 1.524 . S
C1163 C1164 1.415 . S
C1164 H1140 0.950 . S
C1164 C1159 1.363 . S
C1164 C1163 1.415 . S
C1165 H1141 0.951 . S
C1165 C1166 1.366 . S
C1165 C1167 1.388 . S
C1166 C1165 1.366 . S
C1166 C1170 1.385 . S
C1167 H1142 0.951 . S
C1167 C1165 1.388 . S
C1167 C1168 1.366 . S
C1168 C1167 1.366 . S
C1168 C1169 1.414 . S
C1168 C1171 1.499 . S
C1169 H1143 0.950 . S
C1169 C1168 1.414 . S
C1169 C1170 1.374 . S
C1170 H1144 0.950 . S
C1170 C1166 1.385 . S
C1170 C1169 1.374 . S
C1171 C1168 1.499 . S
C1171 C1172 1.373 . S
C1171 C1173 1.389 . S
C1172 H1145 0.950 . S
C1172 C1158 1.377 . S
C1172 C1171 1.373 . S
C1173 C1157 1.377 . S
C1173 C1171 1.389 . S
C1173 C1174 1.524 . S
C1174 C1173 1.524 . S
C1174 C1175 1.397 . S
C1174 C1179 1.363 . S
C1175 H1146 0.950 . S
C1175 C1174 1.397 . S
C1175 C1176 1.334 . S
C1176 H1147 0.950 . S
C1176 C1175 1.334 . S
C1176 C1177 1.287 . S
C1177 C1176 1.287 . S
C1177 C1178 1.524 . S
C1177 H1180 0.999 . S
C1178 H1148 0.950 . S
C1178 C1177 1.524 . S
C1178 C1179 1.415 . S
C1179 H1149 0.950 . S
C1179 C1174 1.363 . S
C1179 C1178 1.415 . S
H1180 C1177 0.999 . S
H1181 C1162 0.913 . S
H1182 C1200 0.951 . S
H1183 C1202 0.951 . S
H1184 C1204 0.950 . S
H1185 C1205 0.950 1_554 S
H1186 C1207 0.950 . S
H1187 C1210 0.950 . S
H1188 C1211 0.950 . S
H1189 C1213 0.950 . S
H1190 C1214 0.950 . S
H1191 C1215 0.951 . S
H1192 C1217 0.951 . S
H1193 C1219 0.950 . S
H1194 C1220 0.950 . S
H1195 C1222 0.950 . S
H1196 C1225 0.950 . S
H1197 C1226 0.950 . S
H1198 C1228 0.950 . S
H1199 C1229 0.950 . S
C1200 H1182 0.951 . S
C1200 C1201 1.366 . S
C1200 C1202 1.388 . S
C1201 C1200 1.366 . S
C1201 C1205 1.385 . S
C1202 H1183 0.951 . S
C1202 C1200 1.388 . S
C1202 C1203 1.366 . S
C1203 C1202 1.366 . S
C1203 C1204 1.414 . S
C1203 C1206 1.499 . S
C1204 H1184 0.950 . S
C1204 C1203 1.414 . S
C1204 C1205 1.374 . S
C1205 H1185 0.950 1_556 S
C1205 C1201 1.385 . S
C1205 C1204 1.374 . S
C1206 C1203 1.499 . S
C1206 C1207 1.373 . S
C1206 C1208 1.389 . S
C1207 H1186 0.950 . S
C1207 C1206 1.373 . S
C1207 C1223 1.377 . S
C1208 C1206 1.389 . S
C1208 C1209 1.524 . S
C1208 C1222 1.377 . S
C1209 C1208 1.524 . S
C1209 C1210 1.397 . S
C1209 C1214 1.363 . S
C1210 H1187 0.950 . S
C1210 C1209 1.397 . S
C1210 C1211 1.334 . S
C1211 H1188 0.950 . S
C1211 C1210 1.334 . S
C1211 C1212 1.287 . S
C1212 C1211 1.287 . S
C1212 C1213 1.524 . S
C1212 H1231 0.913 . S
C1213 H1189 0.950 . S
C1213 C1212 1.524 . S
C1213 C1214 1.415 . S
C1214 H1190 0.950 . S
C1214 C1209 1.363 . S
C1214 C1213 1.415 . S
C1215 H1191 0.951 . S
C1215 C1216 1.366 . S
C1215 C1217 1.388 . S
C1216 C1215 1.366 . S
C1216 C1220 1.385 . S
C1217 H1192 0.951 . S
C1217 C1215 1.388 . S
C1217 C1218 1.366 . S
C1218 C1217 1.366 . S
C1218 C1219 1.414 . S
C1218 C1221 1.499 . S
C1219 H1193 0.950 . S
C1219 C1218 1.414 . S
C1219 C1220 1.374 . S
C1220 H1194 0.950 . S
C1220 C1216 1.385 . S
C1220 C1219 1.374 . S
C1221 C1218 1.499 . S
C1221 C1222 1.373 . S
C1221 C1223 1.389 . S
C1222 H1195 0.950 . S
C1222 C1208 1.377 . S
C1222 C1221 1.373 . S
C1223 C1207 1.377 . S
C1223 C1221 1.389 . S
C1223 C1224 1.524 . S
C1224 C1223 1.524 . S
C1224 C1225 1.397 . S
C1224 C1229 1.363 . S
C1225 H1196 0.950 . S
C1225 C1224 1.397 . S
C1225 C1226 1.334 . S
C1226 H1197 0.950 . S
C1226 C1225 1.334 . S
C1226 C1227 1.287 . S
C1227 C1226 1.287 . S
C1227 C1228 1.524 . S
C1227 H1230 0.999 . S
C1228 H1198 0.950 . S
C1228 C1227 1.524 . S
C1228 C1229 1.415 . S
C1229 H1199 0.950 . S
C1229 C1224 1.363 . S
C1229 C1228 1.415 . S
H1230 C1227 0.999 . S
H1231 C1212 0.913 . S
H1232 C1250 0.951 . S
H1233 C1252 0.951 . S
H1234 C1254 0.950 . S
H1235 C1255 0.950 . S
H1236 C1257 0.950 . S
H1237 C1260 0.950 . S
H1238 C1261 0.950 . S
H1239 C1263 0.950 . S
H1240 C1264 0.950 . S
H1241 C1265 0.951 . S
H1242 C1267 0.951 . S
H1243 C1269 0.950 . S
H1244 C1270 0.950 . S
H1245 C1272 0.950 . S
H1246 C1275 0.950 . S
H1247 C1276 0.950 . S
H1248 C1278 0.950 . S
H1249 C1279 0.950 . S
C1250 H1232 0.951 . S
C1250 C1251 1.366 1_455 S
C1250 C1252 1.388 . S
C1251 C1250 1.366 1_655 S
C1251 C1255 1.385 . S
C1252 H1233 0.951 . S
C1252 C1250 1.388 . S
C1252 C1253 1.366 1_455 S
C1253 C1252 1.366 1_655 S
C1253 C1254 1.414 . S
C1253 C1256 1.499 . S
C1254 H1234 0.950 . S
C1254 C1253 1.414 . S
C1254 C1255 1.374 . S
C1255 H1235 0.950 . S
C1255 C1251 1.385 . S
C1255 C1254 1.374 . S
C1256 C1253 1.499 . S
C1256 C1257 1.373 . S
C1256 C1258 1.389 1_655 S
C1257 H1236 0.950 . S
C1257 C1256 1.373 . S
C1257 C1273 1.377 . S
C1258 C1256 1.389 1_455 S
C1258 C1259 1.524 . S
C1258 C1272 1.377 . S
C1259 C1258 1.524 . S
C1259 C1260 1.397 . S
C1259 C1264 1.363 . S
C1260 H1237 0.950 . S
C1260 C1259 1.397 . S
C1260 C1261 1.334 . S
C1261 H1238 0.950 . S
C1261 C1260 1.334 . S
C1261 C1262 1.287 . S
C1262 C1261 1.287 . S
C1262 C1263 1.524 . S
C1262 H1281 0.913 . S
C1263 H1239 0.950 . S
C1263 C1262 1.524 . S
C1263 C1264 1.415 . S
C1264 H1240 0.950 . S
C1264 C1259 1.363 . S
C1264 C1263 1.415 . S
C1265 H1241 0.951 . S
C1265 C1266 1.366 . S
C1265 C1267 1.388 . S
C1266 C1265 1.366 . S
C1266 C1270 1.385 1_655 S
C1267 H1242 0.951 . S
C1267 C1265 1.388 . S
C1267 C1268 1.366 . S
C1268 C1267 1.366 . S
C1268 C1269 1.414 1_655 S
C1268 C1271 1.499 . S
C1269 H1243 0.950 . S
C1269 C1268 1.414 1_455 S
C1269 C1270 1.374 . S
C1270 H1244 0.950 . S
C1270 C1266 1.385 1_455 S
C1270 C1269 1.374 . S
C1271 C1268 1.499 . S
C1271 C1272 1.373 1_655 S
C1271 C1273 1.389 . S
C1272 H1245 0.950 . S
C1272 C1258 1.377 . S
C1272 C1271 1.373 1_455 S
C1273 C1257 1.377 . S
C1273 C1271 1.389 . S
C1273 C1274 1.524 . S
C1274 C1273 1.524 . S
C1274 C1275 1.397 . S
C1274 C1279 1.363 . S
C1275 H1246 0.950 . S
C1275 C1274 1.397 . S
C1275 C1276 1.334 . S
C1276 H1247 0.950 . S
C1276 C1275 1.334 . S
C1276 C1277 1.287 . S
C1277 C1276 1.287 . S
C1277 C1278 1.524 . S
C1277 H1280 0.999 . S
C1278 H1248 0.950 . S
C1278 C1277 1.524 . S
C1278 C1279 1.415 . S
C1279 H1249 0.950 . S
C1279 C1274 1.363 . S
C1279 C1278 1.415 . S
H1280 C1277 0.999 . S
H1281 C1262 0.913 . S
H1282 C1300 0.951 . S
H1283 C1302 0.951 . S
H1284 C1304 0.950 . S
H1285 C1305 0.950 . S
H1286 C1307 0.950 . S
H1287 C1310 0.950 . S
H1288 C1311 0.950 . S
H1289 C1313 0.950 . S
H1290 C1314 0.950 . S
H1291 C1315 0.951 . S
H1292 C1317 0.951 . S
H1293 C1319 0.950 . S
H1294 C1320 0.950 . S
H1295 C1322 0.950 . S
H1296 C1325 0.950 . S
H1297 C1326 0.950 . S
H1298 C1328 0.950 . S
H1299 C1329 0.950 . S
C1300 H1282 0.951 . S
C1300 C1301 1.366 . S
C1300 C1302 1.388 . S
C1301 C1300 1.366 . S
C1301 C1305 1.385 . S
C1302 H1283 0.951 . S
C1302 C1300 1.388 . S
C1302 C1303 1.366 . S
C1303 C1302 1.366 . S
C1303 C1304 1.414 . S
C1303 C1306 1.499 . S
C1304 H1284 0.950 . S
C1304 C1303 1.414 . S
C1304 C1305 1.374 . S
C1305 H1285 0.950 . S
C1305 C1301 1.385 . S
C1305 C1304 1.374 . S
C1306 C1303 1.499 . S
C1306 C1307 1.373 . S
C1306 C1308 1.389 . S
C1307 H1286 0.950 . S
C1307 C1306 1.373 . S
C1307 C1323 1.377 . S
C1308 C1306 1.389 . S
C1308 C1309 1.524 . S
C1308 C1322 1.377 . S
C1309 C1308 1.524 . S
C1309 C1310 1.397 1_565 S
C1309 C1314 1.363 . S
C1310 H1287 0.950 . S
C1310 C1309 1.397 1_545 S
C1310 C1311 1.334 . S
C1311 H1288 0.950 . S
C1311 C1310 1.334 . S
C1311 C1312 1.287 . S
C1312 C1311 1.287 . S
C1312 C1313 1.524 . S
C1312 H1331 0.913 . S
C1313 H1289 0.950 . S
C1313 C1312 1.524 . S
C1313 C1314 1.415 1_545 S
C1314 H1290 0.950 . S
C1314 C1309 1.363 . S
C1314 C1313 1.415 1_565 S
C1315 H1291 0.951 . S
C1315 C1316 1.366 . S
C1315 C1317 1.388 . S
C1316 C1315 1.366 . S
C1316 C1320 1.385 . S
C1317 H1292 0.951 . S
C1317 C1315 1.388 . S
C1317 C1318 1.366 . S
C1318 C1317 1.366 . S
C1318 C1319 1.414 . S
C1318 C1321 1.499 . S
C1319 H1293 0.950 . S
C1319 C1318 1.414 . S
C1319 C1320 1.374 . S
C1320 H1294 0.950 . S
C1320 C1316 1.385 . S
C1320 C1319 1.374 . S
C1321 C1318 1.499 . S
C1321 C1322 1.373 . S
C1321 C1323 1.389 . S
C1322 H1295 0.950 . S
C1322 C1308 1.377 . S
C1322 C1321 1.373 . S
C1323 C1307 1.377 . S
C1323 C1321 1.389 . S
C1323 C1324 1.524 . S
C1324 C1323 1.524 . S
C1324 C1325 1.397 . S
C1324 C1329 1.363 . S
C1325 H1296 0.950 . S
C1325 C1324 1.397 . S
C1325 C1326 1.334 . S
C1326 H1297 0.950 . S
C1326 C1325 1.334 . S
C1326 C1327 1.287 . S
C1327 C1326 1.287 . S
C1327 C1328 1.524 . S
C1327 H1330 0.999 . S
C1328 H1298 0.950 . S
C1328 C1327 1.524 . S
C1328 C1329 1.415 . S
C1329 H1299 0.950 . S
C1329 C1324 1.363 . S
C1329 C1328 1.415 . S
H1330 C1327 0.999 . S
H1331 C1312 0.913 . S
H1332 C1350 0.951 . S
H1333 C1352 0.951 . S
H1334 C1354 0.950 . S
H1335 C1355 0.950 . S
H1336 C1357 0.950 . S
H1337 C1360 0.950 . S
H1338 C1361 0.950 . S
H1339 C1363 0.950 . S
H1340 C1364 0.950 . S
H1341 C1365 0.951 . S
H1342 C1367 0.951 . S
H1343 C1369 0.950 . S
H1344 C1370 0.950 . S
H1345 C1372 0.950 . S
H1346 C1375 0.950 . S
H1347 C1376 0.950 . S
H1348 C1378 0.950 . S
H1349 C1379 0.950 . S
C1350 H1332 0.951 . S
C1350 C1351 1.366 . S
C1350 C1352 1.388 . S
C1351 C1350 1.366 . S
C1351 C1355 1.385 . S
C1352 H1333 0.951 . S
C1352 C1350 1.388 . S
C1352 C1353 1.366 . S
C1353 C1352 1.366 . S
C1353 C1354 1.414 . S
C1353 C1356 1.499 . S
C1354 H1334 0.950 . S
C1354 C1353 1.414 . S
C1354 C1355 1.374 . S
C1355 H1335 0.950 . S
C1355 C1351 1.385 . S
C1355 C1354 1.374 . S
C1356 C1353 1.499 . S
C1356 C1357 1.373 . S
C1356 C1358 1.389 . S
C1357 H1336 0.950 . S
C1357 C1356 1.373 . S
C1357 C1373 1.377 . S
C1358 C1356 1.389 . S
C1358 C1359 1.524 . S
C1358 C1372 1.377 . S
C1359 C1358 1.524 . S
C1359 C1360 1.397 . S
C1359 C1364 1.363 . S
C1360 H1337 0.950 . S
C1360 C1359 1.397 . S
C1360 C1361 1.334 . S
C1361 H1338 0.950 . S
C1361 C1360 1.334 . S
C1361 C1362 1.287 . S
C1362 C1361 1.287 . S
C1362 C1363 1.524 . S
C1362 H1381 0.913 . S
C1363 H1339 0.950 . S
C1363 C1362 1.524 . S
C1363 C1364 1.415 . S
C1364 H1340 0.950 . S
C1364 C1359 1.363 . S
C1364 C1363 1.415 . S
C1365 H1341 0.951 . S
C1365 C1366 1.366 . S
C1365 C1367 1.388 . S
C1366 C1365 1.366 . S
C1366 C1370 1.385 . S
C1367 H1342 0.951 . S
C1367 C1365 1.388 . S
C1367 C1368 1.366 . S
C1368 C1367 1.366 . S
C1368 C1369 1.414 . S
C1368 C1371 1.499 . S
C1369 H1343 0.950 . S
C1369 C1368 1.414 . S
C1369 C1370 1.374 . S
C1370 H1344 0.950 . S
C1370 C1366 1.385 . S
C1370 C1369 1.374 . S
C1371 C1368 1.499 . S
C1371 C1372 1.373 . S
C1371 C1373 1.389 . S
C1372 H1345 0.950 . S
C1372 C1358 1.377 . S
C1372 C1371 1.373 . S
C1373 C1357 1.377 . S
C1373 C1371 1.389 . S
C1373 C1374 1.524 . S
C1374 C1373 1.524 . S
C1374 C1375 1.397 . S
C1374 C1379 1.363 . S
C1375 H1346 0.950 . S
C1375 C1374 1.397 . S
C1375 C1376 1.334 . S
C1376 H1347 0.950 . S
C1376 C1375 1.334 . S
C1376 C1377 1.287 . S
C1377 C1376 1.287 . S
C1377 C1378 1.524 . S
C1377 H1380 0.999 . S
C1378 H1348 0.950 . S
C1378 C1377 1.524 . S
C1378 C1379 1.415 . S
C1379 H1349 0.950 . S
C1379 C1374 1.363 . S
C1379 C1378 1.415 . S
H1380 C1377 0.999 . S
H1381 C1362 0.913 . S
H1382 C1400 0.951 . S
H1383 C1402 0.951 . S
H1384 C1404 0.950 . S
H1385 C1405 0.950 . S
H1386 C1407 0.950 . S
H1387 C1410 0.950 . S
H1388 C1411 0.950 . S
H1389 C1413 0.950 . S
H1390 C1414 0.950 . S
H1391 C1415 0.951 . S
H1392 C1417 0.951 . S
H1393 C1419 0.950 . S
H1394 C1420 0.950 . S
H1395 C1422 0.950 . S
H1396 C1425 0.950 . S
H1397 C1426 0.950 . S
H1398 C1428 0.950 . S
H1399 C1429 0.950 . S
C1400 H1382 0.951 . S
C1400 C1401 1.366 . S
C1400 C1402 1.388 . S
C1401 C1400 1.366 . S
C1401 C1405 1.385 . S
C1402 H1383 0.951 . S
C1402 C1400 1.388 . S
C1402 C1403 1.366 . S
C1403 C1402 1.366 . S
C1403 C1404 1.414 . S
C1403 C1406 1.499 . S
C1404 H1384 0.950 . S
C1404 C1403 1.414 . S
C1404 C1405 1.374 . S
C1405 H1385 0.950 . S
C1405 C1401 1.385 . S
C1405 C1404 1.374 . S
C1406 C1403 1.499 . S
C1406 C1407 1.373 . S
C1406 C1408 1.389 . S
C1407 H1386 0.950 . S
C1407 C1406 1.373 . S
C1407 C1423 1.377 . S
C1408 C1406 1.389 . S
C1408 C1409 1.524 . S
C1408 C1422 1.377 . S
C1409 C1408 1.524 . S
C1409 C1410 1.397 . S
C1409 C1414 1.363 . S
C1410 H1387 0.950 . S
C1410 C1409 1.397 . S
C1410 C1411 1.334 . S
C1411 H1388 0.950 . S
C1411 C1410 1.334 . S
C1411 C1412 1.287 . S
C1412 C1411 1.287 . S
C1412 C1413 1.524 . S
C1412 H1431 0.913 . S
C1413 H1389 0.950 . S
C1413 C1412 1.524 . S
C1413 C1414 1.415 . S
C1414 H1390 0.950 . S
C1414 C1409 1.363 . S
C1414 C1413 1.415 . S
C1415 H1391 0.951 . S
C1415 C1416 1.366 . S
C1415 C1417 1.388 . S
C1416 C1415 1.366 . S
C1416 C1420 1.385 . S
C1417 H1392 0.951 . S
C1417 C1415 1.388 . S
C1417 C1418 1.366 . S
C1418 C1417 1.366 . S
C1418 C1419 1.414 . S
C1418 C1421 1.499 . S
C1419 H1393 0.950 . S
C1419 C1418 1.414 . S
C1419 C1420 1.374 . S
C1420 H1394 0.950 . S
C1420 C1416 1.385 . S
C1420 C1419 1.374 . S
C1421 C1418 1.499 . S
C1421 C1422 1.373 . S
C1421 C1423 1.389 . S
C1422 H1395 0.950 . S
C1422 C1408 1.377 . S
C1422 C1421 1.373 . S
C1423 C1407 1.377 . S
C1423 C1421 1.389 . S
C1423 C1424 1.524 . S
C1424 C1423 1.524 . S
C1424 C1425 1.397 . S
C1424 C1429 1.363 . S
C1425 H1396 0.950 . S
C1425 C1424 1.397 . S
C1425 C1426 1.334 . S
C1426 H1397 0.950 . S
C1426 C1425 1.334 . S
C1426 C1427 1.287 . S
C1427 C1426 1.287 . S
C1427 C1428 1.524 . S
C1427 H1430 0.999 . S
C1428 H1398 0.950 . S
C1428 C1427 1.524 . S
C1428 C1429 1.415 . S
C1429 H1399 0.950 . S
C1429 C1424 1.363 . S
C1429 C1428 1.415 . S
H1430 C1427 0.999 . S
H1431 C1412 0.913 . S
C251 C125 1.629 . S
C266 C160 1.738 . S
C316 C190 1.867 . S
C301 C144 1.783 . S
C366 C200 1.466 . S
C351 C87 1.415 . S
C416 C220 1.325 . S
C401 C106 1.278 . S
C466 C161 1.747 . S
C451 C49 1.706 . S
C501 C68 1.852 1_556 S
C516 C191 1.867 . S
C551 C11 1.426 1_556 S
C566 C201 1.467 . S
C601 C30 1.284 . S
C616 C221 1.325 . S
C666 C153 0.759 . S
C651 C97 0.758 . S
C716 C174 0.395 . S
C701 C116 0.508 . S
C766 C193 0.966 . S
C751 C135 0.945 . S
C801 C78 0.632 . S
C816 C213 0.615 . S
C851 C21 0.757 . S
C866 C154 0.760 . S
C916 C173 0.372 1_565 S
C901 C40 0.506 . S
C966 C194 0.966 . S
C951 C59 0.947 . S
C1001 C2 0.634 1_556 S
C1016 C214 0.614 . S
C1051 C101 1.510 1_556 S
C1066 C171 1.561 . S
C1101 C120 1.329 . S
C1116 C181 1.389 . S
C1166 C211 1.795 . S
C1151 C139 1.715 . S
C1216 C231 1.797 . S
C1201 C82 1.733 1_556 S
C1251 C25 1.509 . S
C1266 C170 1.561 . S
C1316 C180 1.389 . S
C1301 C44 1.333 . S
C1366 C210 1.795 . S
C1351 C63 1.717 . S
C1401 C6 1.733 . S
C1416 C230 1.797 . S
