# Generated by pormake.
# Topology ptr, (4,4)-cn, num edge types: 1
# Building blocks:
#     Node 0, Type 0, BuildingBlock: KUFVIS_clean_sbu_0, # of connection points: 4
#     Node 1, Type 0, BuildingBlock: KUFVIS_clean_sbu_0, # of connection points: 4
#     Node 2, Type 0, BuildingBlock: KUFVIS_clean_sbu_0, # of connection points: 4
#     Node 3, Type 0, BuildingBlock: KUFVIS_clean_sbu_0, # of connection points: 4
#     Node 4, Type 0, BuildingBlock: KUFVIS_clean_sbu_0, # of connection points: 4
#     Node 5, Type 0, BuildingBlock: KUFVIS_clean_sbu_0, # of connection points: 4
#     Node 6, Type 0, BuildingBlock: KUFVIS_clean_sbu_0, # of connection points: 4
#     Node 7, Type 0, BuildingBlock: KUFVIS_clean_sbu_0, # of connection points: 4
#     Node 8, Type 0, BuildingBlock: KUFVIS_clean_sbu_0, # of connection points: 4
#     Node 9, Type 0, BuildingBlock: KUFVIS_clean_sbu_0, # of connection points: 4
#     Node 10, Type 0, BuildingBlock: KUFVIS_clean_sbu_0, # of connection points: 4
#     Node 11, Type 0, BuildingBlock: KUFVIS_clean_sbu_0, # of connection points: 4
#     Node 12, Type 0, BuildingBlock: KUFVIS_clean_sbu_0, # of connection points: 4
#     Node 13, Type 0, BuildingBlock: KUFVIS_clean_sbu_0, # of connection points: 4
#     Node 14, Type 0, BuildingBlock: KUFVIS_clean_sbu_0, # of connection points: 4
#     Node 15, Type 0, BuildingBlock: KUFVIS_clean_sbu_0, # of connection points: 4
#     Node 16, Type 0, BuildingBlock: KUFVIS_clean_sbu_0, # of connection points: 4
#     Node 17, Type 0, BuildingBlock: KUFVIS_clean_sbu_0, # of connection points: 4
#     Node 18, Type 1, BuildingBlock: NAHDIM_clean_linker_0, # of connection points: 4
#     Node 19, Type 1, BuildingBlock: NAHDIM_clean_linker_0, # of connection points: 4
#     Node 20, Type 1, BuildingBlock: NAHDIM_clean_linker_0, # of connection points: 4
#     Node 21, Type 1, BuildingBlock: NAHDIM_clean_linker_0, # of connection points: 4
#     Node 22, Type 1, BuildingBlock: NAHDIM_clean_linker_0, # of connection points: 4
#     Node 23, Type 1, BuildingBlock: NAHDIM_clean_linker_0, # of connection points: 4
#     Node 24, Type 1, BuildingBlock: NAHDIM_clean_linker_0, # of connection points: 4
#     Node 25, Type 1, BuildingBlock: NAHDIM_clean_linker_0, # of connection points: 4
#     Node 26, Type 1, BuildingBlock: NAHDIM_clean_linker_0, # of connection points: 4
#     Node 27, Type 1, BuildingBlock: NAHDIM_clean_linker_0, # of connection points: 4
#     Node 28, Type 1, BuildingBlock: NAHDIM_clean_linker_0, # of connection points: 4
#     Node 29, Type 1, BuildingBlock: NAHDIM_clean_linker_0, # of connection points: 4
#     Node 30, Type 1, BuildingBlock: NAHDIM_clean_linker_0, # of connection points: 4
#     Node 31, Type 1, BuildingBlock: NAHDIM_clean_linker_0, # of connection points: 4
#     Node 32, Type 1, BuildingBlock: NAHDIM_clean_linker_0, # of connection points: 4
#     Node 33, Type 1, BuildingBlock: NAHDIM_clean_linker_0, # of connection points: 4
#     Node 34, Type 1, BuildingBlock: NAHDIM_clean_linker_0, # of connection points: 4
#     Node 35, Type 1, BuildingBlock: NAHDIM_clean_linker_0, # of connection points: 4
#     Edge 36, Type (0, 1), BuildingBlock: XIVTED_clean_linker_0, # of connection points: 2
#     Edge 37, Type (0, 1), BuildingBlock: XIVTED_clean_linker_0, # of connection points: 2
#     Edge 38, Type (0, 1), BuildingBlock: XIVTED_clean_linker_0, # of connection points: 2
#     Edge 39, Type (0, 1), BuildingBlock: XIVTED_clean_linker_0, # of connection points: 2
#     Edge 40, Type (0, 1), BuildingBlock: XIVTED_clean_linker_0, # of connection points: 2
#     Edge 41, Type (0, 1), BuildingBlock: XIVTED_clean_linker_0, # of connection points: 2
#     Edge 42, Type (0, 1), BuildingBlock: XIVTED_clean_linker_0, # of connection points: 2
#     Edge 43, Type (0, 1), BuildingBlock: XIVTED_clean_linker_0, # of connection points: 2
#     Edge 44, Type (0, 1), BuildingBlock: XIVTED_clean_linker_0, # of connection points: 2
#     Edge 45, Type (0, 1), BuildingBlock: XIVTED_clean_linker_0, # of connection points: 2
#     Edge 46, Type (0, 1), BuildingBlock: XIVTED_clean_linker_0, # of connection points: 2
#     Edge 47, Type (0, 1), BuildingBlock: XIVTED_clean_linker_0, # of connection points: 2
#     Edge 48, Type (0, 1), BuildingBlock: XIVTED_clean_linker_0, # of connection points: 2
#     Edge 49, Type (0, 1), BuildingBlock: XIVTED_clean_linker_0, # of connection points: 2
#     Edge 50, Type (0, 1), BuildingBlock: XIVTED_clean_linker_0, # of connection points: 2
#     Edge 51, Type (0, 1), BuildingBlock: XIVTED_clean_linker_0, # of connection points: 2
#     Edge 52, Type (0, 1), BuildingBlock: XIVTED_clean_linker_0, # of connection points: 2
#     Edge 53, Type (0, 1), BuildingBlock: XIVTED_clean_linker_0, # of connection points: 2
#     Edge 54, Type (0, 1), BuildingBlock: XIVTED_clean_linker_0, # of connection points: 2
#     Edge 55, Type (0, 1), BuildingBlock: XIVTED_clean_linker_0, # of connection points: 2
#     Edge 56, Type (0, 1), BuildingBlock: XIVTED_clean_linker_0, # of connection points: 2
#     Edge 57, Type (0, 1), BuildingBlock: XIVTED_clean_linker_0, # of connection points: 2
#     Edge 58, Type (0, 1), BuildingBlock: XIVTED_clean_linker_0, # of connection points: 2
#     Edge 59, Type (0, 1), BuildingBlock: XIVTED_clean_linker_0, # of connection points: 2
#     Edge 60, Type (0, 1), BuildingBlock: XIVTED_clean_linker_0, # of connection points: 2
#     Edge 61, Type (0, 1), BuildingBlock: XIVTED_clean_linker_0, # of connection points: 2
#     Edge 62, Type (0, 1), BuildingBlock: XIVTED_clean_linker_0, # of connection points: 2
#     Edge 63, Type (0, 1), BuildingBlock: XIVTED_clean_linker_0, # of connection points: 2
#     Edge 64, Type (0, 1), BuildingBlock: XIVTED_clean_linker_0, # of connection points: 2
#     Edge 65, Type (0, 1), BuildingBlock: XIVTED_clean_linker_0, # of connection points: 2
#     Edge 66, Type (0, 1), BuildingBlock: XIVTED_clean_linker_0, # of connection points: 2
#     Edge 67, Type (0, 1), BuildingBlock: XIVTED_clean_linker_0, # of connection points: 2
#     Edge 68, Type (0, 1), BuildingBlock: XIVTED_clean_linker_0, # of connection points: 2
#     Edge 69, Type (0, 1), BuildingBlock: XIVTED_clean_linker_0, # of connection points: 2
#     Edge 70, Type (0, 1), BuildingBlock: XIVTED_clean_linker_0, # of connection points: 2
#     Edge 71, Type (0, 1), BuildingBlock: XIVTED_clean_linker_0, # of connection points: 2
#     Edge 72, Type (0, 1), BuildingBlock: XIVTED_clean_linker_0, # of connection points: 2
#     Edge 73, Type (0, 1), BuildingBlock: XIVTED_clean_linker_0, # of connection points: 2
#     Edge 74, Type (0, 1), BuildingBlock: XIVTED_clean_linker_0, # of connection points: 2
#     Edge 75, Type (0, 1), BuildingBlock: XIVTED_clean_linker_0, # of connection points: 2
#     Edge 76, Type (0, 1), BuildingBlock: XIVTED_clean_linker_0, # of connection points: 2
#     Edge 77, Type (0, 1), BuildingBlock: XIVTED_clean_linker_0, # of connection points: 2
#     Edge 78, Type (0, 1), BuildingBlock: XIVTED_clean_linker_0, # of connection points: 2
#     Edge 79, Type (0, 1), BuildingBlock: XIVTED_clean_linker_0, # of connection points: 2
#     Edge 80, Type (0, 1), BuildingBlock: XIVTED_clean_linker_0, # of connection points: 2
#     Edge 81, Type (0, 1), BuildingBlock: XIVTED_clean_linker_0, # of connection points: 2
#     Edge 82, Type (0, 1), BuildingBlock: XIVTED_clean_linker_0, # of connection points: 2
#     Edge 83, Type (0, 1), BuildingBlock: XIVTED_clean_linker_0, # of connection points: 2
#     Edge 84, Type (0, 1), BuildingBlock: XIVTED_clean_linker_0, # of connection points: 2
#     Edge 85, Type (0, 1), BuildingBlock: XIVTED_clean_linker_0, # of connection points: 2
#     Edge 86, Type (0, 1), BuildingBlock: XIVTED_clean_linker_0, # of connection points: 2
#     Edge 87, Type (0, 1), BuildingBlock: XIVTED_clean_linker_0, # of connection points: 2
#     Edge 88, Type (0, 1), BuildingBlock: XIVTED_clean_linker_0, # of connection points: 2
#     Edge 89, Type (0, 1), BuildingBlock: XIVTED_clean_linker_0, # of connection points: 2
#     Edge 90, Type (0, 1), BuildingBlock: XIVTED_clean_linker_0, # of connection points: 2
#     Edge 91, Type (0, 1), BuildingBlock: XIVTED_clean_linker_0, # of connection points: 2
#     Edge 92, Type (0, 1), BuildingBlock: XIVTED_clean_linker_0, # of connection points: 2
#     Edge 93, Type (0, 1), BuildingBlock: XIVTED_clean_linker_0, # of connection points: 2
#     Edge 94, Type (0, 1), BuildingBlock: XIVTED_clean_linker_0, # of connection points: 2
#     Edge 95, Type (0, 1), BuildingBlock: XIVTED_clean_linker_0, # of connection points: 2
#     Edge 96, Type (0, 1), BuildingBlock: XIVTED_clean_linker_0, # of connection points: 2
#     Edge 97, Type (0, 1), BuildingBlock: XIVTED_clean_linker_0, # of connection points: 2
#     Edge 98, Type (0, 1), BuildingBlock: XIVTED_clean_linker_0, # of connection points: 2
#     Edge 99, Type (0, 1), BuildingBlock: XIVTED_clean_linker_0, # of connection points: 2
#     Edge 100, Type (0, 1), BuildingBlock: XIVTED_clean_linker_0, # of connection points: 2
#     Edge 101, Type (0, 1), BuildingBlock: XIVTED_clean_linker_0, # of connection points: 2
#     Edge 102, Type (0, 1), BuildingBlock: XIVTED_clean_linker_0, # of connection points: 2
#     Edge 103, Type (0, 1), BuildingBlock: XIVTED_clean_linker_0, # of connection points: 2
#     Edge 104, Type (0, 1), BuildingBlock: XIVTED_clean_linker_0, # of connection points: 2
#     Edge 105, Type (0, 1), BuildingBlock: XIVTED_clean_linker_0, # of connection points: 2
#     Edge 106, Type (0, 1), BuildingBlock: XIVTED_clean_linker_0, # of connection points: 2
#     Edge 107, Type (0, 1), BuildingBlock: XIVTED_clean_linker_0, # of connection points: 2
# Relax obj value: 0.038
# Max RMSD: 0.204
# Mean RMSD: 0.072
data_MOF--net-ptr--node1-KUFVIS_clean_sbu_0--node2-NAHDIM_clean_linker_0--edge1-XIVTED_clean_linker_0
_symmetry_space_group_name_H-M    P1
_symmetry_Int_Tables_number       1
_symmetry_cell_setting            triclinic
loop_
_symmetry_equiv_pos_as_xyz
'x, y, z'
_cell_length_a     94.395936
_cell_length_b     93.458403
_cell_length_c     80.377427
_cell_angle_alpha  90.49449
_cell_angle_beta   91.01284
_cell_angle_gamma 119.55075
loop_
_atom_site_label
_atom_site_type_symbol
_atom_site_fract_x
_atom_site_fract_y
_atom_site_fract_z
_atom_type_partial_charge
Mn0 Mn 0.00196 0.34149 0.99945 0.0
Mn1 Mn 0.03652 0.37804 0.00319 0.0
C2 C 0.00522 0.36281 0.98297 0.0
C3 C 0.98863 0.31512 0.98775 0.0
C4 C 0.00889 0.36633 0.0276 0.0
O5 O 0.01716 0.33625 0.01277 0.0
O6 O 0.0405 0.36047 0.01223 0.0
C7 C 0.05662 0.37187 0.97947 0.0
N8 N 0.04977 0.38101 0.98441 0.0
C9 C 0.06096 0.39905 0.96126 0.0
C10 C 0.06825 0.38991 0.956 0.0
C11 C 0.06605 0.37624 0.96513 0.0
C12 C 0.0518 0.39417 0.97571 0.0
H13 H 0.05487 0.36128 0.98639 0.0
C14 C 0.03235 0.34522 0.01594 0.0
O15 O 0.98363 0.31846 0.00146 0.0
O16 O 0.0013 0.32698 0.98103 0.0
N17 N 0.03453 0.39609 0.9948 0.0
C18 C 0.02611 0.40319 0.00114 0.0
C19 C 0.02669 0.41678 0.9932 0.0
C20 C 0.036 0.42302 0.9789 0.0
C21 C 0.04474 0.41566 0.97275 0.0
C22 C 0.04382 0.40224 0.98128 0.0
H23 H 0.01891 0.39843 0.01209 0.0
O24 O 0.99086 0.3503 0.98507 0.0
O25 O 0.01738 0.36216 0.99011 0.0
O26 O 0.99902 0.35295 0.01988 0.0
O27 O 0.02331 0.37613 0.02274 0.0
C28 C 0.05409 0.42094 0.95831 0.0
C29 C 0.06217 0.41263 0.95256 0.0
H30 H 0.07543 0.39318 0.94488 0.0
H31 H 0.07155 0.36907 0.9611 0.0
H32 H 0.01993 0.4224 0.99803 0.0
H33 H 0.03628 0.4334 0.97271 0.0
H34 H 0.05498 0.43125 0.95142 0.0
H35 H 0.06916 0.41668 0.94133 0.0
Mn36 Mn 0.65123 0.6473 0.01567 0.0
Mn37 Mn 0.65184 0.61209 0.00741 0.0
C38 C 0.63654 0.62464 0.03187 0.0
C39 C 0.66296 0.67339 0.02792 0.0
C40 C 0.63203 0.62348 0.987 0.0
O41 O 0.67059 0.65456 0.00065 0.0
O42 O 0.67138 0.63097 0.9979 0.0
C43 C 0.68078 0.61864 0.02805 0.0
N44 N 0.66469 0.60889 0.02402 0.0
C45 C 0.66201 0.589 0.04434 0.0
C46 C 0.67858 0.59878 0.04865 0.0
C47 C 0.68799 0.61369 0.04049 0.0
C48 C 0.65551 0.59457 0.03185 0.0
H49 H 0.68805 0.63011 0.02182 0.0
C50 C 0.67721 0.64638 0.99542 0.0
O51 O 0.65353 0.66955 0.01477 0.0
O52 O 0.66559 0.66207 0.03403 0.0
N53 N 0.63381 0.59272 0.01593 0.0
C54 C 0.61787 0.58506 0.01079 0.0
C55 C 0.60674 0.57012 0.01795 0.0
C56 C 0.61214 0.56312 0.03016 0.0
C57 C 0.62864 0.5711 0.03507 0.0
C58 C 0.63918 0.58592 0.02743 0.0
H59 H 0.61365 0.59032 0.00135 0.0
O60 O 0.63298 0.6364 0.03146 0.0
O61 O 0.6488 0.62665 0.02305 0.0
O62 O 0.63555 0.6362 0.99591 0.0
O63 O 0.63792 0.61399 0.98983 0.0
C64 C 0.63498 0.5651 0.04746 0.0
C65 C 0.65165 0.57407 0.05213 0.0
H66 H 0.68418 0.59503 0.05827 0.0
H67 H 0.70077 0.62134 0.0438 0.0
H68 H 0.59403 0.56402 0.01408 0.0
H69 H 0.60349 0.55167 0.03577 0.0
H70 H 0.62711 0.55372 0.05365 0.0
H71 H 0.65633 0.56945 0.06184 0.0
Mn72 Mn 0.33914 0.99895 0.01395 0.0
Mn73 Mn 0.37502 0.03439 0.01505 0.0
C74 C 0.35967 0.00149 0.03173 0.0
C75 C 0.31243 0.9845 0.02299 0.0
C76 C 0.36502 0.00832 0.98765 0.0
O77 O 0.33415 0.01492 0.00181 0.0
O78 O 0.35774 0.03863 0.00565 0.0
C79 C 0.36739 0.0526 0.04036 0.0
N80 N 0.37696 0.04641 0.03511 0.0
C81 C 0.39418 0.05686 0.0597 0.0
C82 C 0.38458 0.06347 0.06531 0.0
C83 C 0.37111 0.0613 0.05561 0.0
C84 C 0.38993 0.04839 0.04435 0.0
H85 H 0.35697 0.05088 0.03298 0.0
C86 C 0.34287 0.03045 0.00044 0.0
O87 O 0.31655 0.98056 0.00905 0.0
O88 O 0.32379 0.99669 0.03156 0.0
N89 N 0.39286 0.03231 0.02392 0.0
C90 C 0.40042 0.02454 0.0171 0.0
C91 C 0.41391 0.02515 0.02547 0.0
C92 C 0.41956 0.03387 0.04067 0.0
C93 C 0.41174 0.04199 0.04732 0.0
C94 C 0.39844 0.04105 0.03836 0.0
H95 H 0.39614 0.01781 0.00542 0.0
O96 O 0.34757 0.98708 0.02775 0.0
O97 O 0.35907 0.01406 0.02562 0.0
O98 O 0.35158 0.99764 0.99383 0.0
O99 O 0.37421 0.02254 0.99426 0.0
C100 C 0.41641 0.05069 0.06266 0.0
C101 C 0.40762 0.05809 0.06886 0.0
H102 H 0.38736 0.0701 0.07711 0.0
H103 H 0.36359 0.06627 0.05991 0.0
H104 H 0.41988 0.01887 0.02024 0.0
H105 H 0.42986 0.03417 0.04717 0.0
H106 H 0.4266 0.05155 0.06991 0.0
H107 H 0.41119 0.06455 0.08077 0.0
Mn108 Mn 0.99439 0.65224 0.00446 0.0
Mn109 Mn 0.03075 0.65464 0.01208 0.0
C110 C 0.00233 0.63738 0.98795 0.0
C111 C 0.98004 0.66384 0.99218 0.0
C112 C 0.00097 0.63476 0.03292 0.0
O113 O 0.00632 0.67232 0.01948 0.0
O114 O 0.03112 0.67451 0.02194 0.0
C115 C 0.05153 0.68332 0.99155 0.0
N116 N 0.04576 0.66724 0.99535 0.0
C117 C 0.06181 0.66411 0.97421 0.0
C118 C 0.06803 0.68067 0.97015 0.0
C119 C 0.06284 0.6903 0.97883 0.0
C120 C 0.05068 0.65786 0.98709 0.0
H121 H 0.0475 0.69073 0.99814 0.0
C122 C 0.02113 0.67982 0.02452 0.0
O123 O 0.97443 0.65448 0.00503 0.0
O124 O 0.9937 0.66609 0.98637 0.0
N125 N 0.03217 0.63636 0.00313 0.0
C126 C 0.02412 0.62033 0.00775 0.0
C127 C 0.02741 0.60889 0.99978 0.0
C128 C 0.03899 0.61406 0.98723 0.0
C129 C 0.04721 0.63064 0.98278 0.0
C130 C 0.04352 0.64151 0.99125 0.0
H131 H 0.01517 0.61627 0.01736 0.0
O132 O 0.98707 0.63333 0.98853 0.0
O133 O 0.01249 0.6502 0.99685 0.0
O134 O 0.99095 0.63721 0.02421 0.0
O135 O 0.01609 0.64115 0.02972 0.0
C136 C 0.05864 0.63674 0.97 0.0
C137 C 0.06593 0.65346 0.96571 0.0
H138 H 0.07665 0.68608 0.96026 0.0
H139 H 0.0675 0.70307 0.9757 0.0
H140 H 0.02099 0.5961 0.00327 0.0
H141 H 0.04137 0.60516 0.981 0.0
H142 H 0.06169 0.62862 0.9632 0.0
H143 H 0.07449 0.65794 0.95569 0.0
Mn144 Mn 0.35201 0.36031 0.01218 0.0
Mn145 Mn 0.38506 0.35894 0.99914 0.0
C146 C 0.37587 0.37316 0.02784 0.0
C147 C 0.32763 0.3477 0.02629 0.0
C148 C 0.37304 0.38071 0.98372 0.0
O149 O 0.34279 0.34179 0.99499 0.0
O150 O 0.36515 0.34018 0.98865 0.0
C151 C 0.37953 0.3281 0.01478 0.0
N152 N 0.38909 0.34459 0.01274 0.0
C153 C 0.40974 0.34555 0.03146 0.0
C154 C 0.40016 0.32855 0.03366 0.0
C155 C 0.38498 0.3198 0.0253 0.0
C156 C 0.40376 0.35313 0.02065 0.0
H157 H 0.36781 0.32135 0.00845 0.0
C158 C 0.34979 0.33501 0.98747 0.0
O159 O 0.33005 0.35822 0.01469 0.0
O160 O 0.33937 0.34471 0.02971 0.0
N161 N 0.405 0.37626 0.00859 0.0
C162 C 0.41211 0.39276 0.00617 0.0
C163 C 0.42703 0.40339 0.01428 0.0
C164 C 0.43449 0.39695 0.02475 0.0
C165 C 0.42697 0.37991 0.027 0.0
C166 C 0.41218 0.36991 0.01847 0.0
H167 H 0.40637 0.39779 0.99823 0.0
O168 O 0.36484 0.37749 0.02958 0.0
O169 O 0.37252 0.36145 0.01698 0.0
O170 O 0.36147 0.37728 0.99371 0.0
O171 O 0.38219 0.37423 0.9845 0.0
C172 C 0.43337 0.37251 0.03769 0.0
C173 C 0.42477 0.35534 0.03991 0.0
H174 H 0.40425 0.32213 0.0419 0.0
H175 H 0.37748 0.3067 0.02702 0.0
H176 H 0.43273 0.41653 0.01254 0.0
H177 H 0.44591 0.40521 0.03113 0.0
H178 H 0.44476 0.37994 0.04449 0.0
H179 H 0.42968 0.34984 0.04837 0.0
Mn180 Mn 0.66308 0.00228 0.01036 0.0
Mn181 Mn 0.62755 0.96661 0.01215 0.0
C182 C 0.64181 0.99785 0.99266 0.0
C183 C 0.6894 0.0167 0.00027 0.0
C184 C 0.63816 0.9947 0.03732 0.0
O185 O 0.66891 0.98758 0.02384 0.0
O186 O 0.64543 0.96347 0.02179 0.0
C187 C 0.63441 0.94648 0.98847 0.0
N188 N 0.62495 0.95299 0.99317 0.0
C189 C 0.60673 0.94034 0.96958 0.0
C190 C 0.61621 0.9334 0.96456 0.0
C191 C 0.63012 0.9365 0.97404 0.0
C192 C 0.61153 0.95007 0.98415 0.0
H193 H 0.64516 0.94892 0.99567 0.0
C194 C 0.66045 0.97219 0.02637 0.0
O195 O 0.6855 0.02134 0.01392 0.0
O196 O 0.67806 0.00368 0.99265 0.0
N197 N 0.60925 0.96775 0.00311 0.0
C198 C 0.60194 0.97611 0.00914 0.0
C199 C 0.58812 0.97474 0.00079 0.0
C200 C 0.58189 0.96472 0.98641 0.0
C201 C 0.5895 0.95609 0.98055 0.0
C202 C 0.60315 0.95781 0.98948 0.0
H203 H 0.60668 0.98386 0.02017 0.0
O204 O 0.65375 0.01264 0.99554 0.0
O205 O 0.64293 0.986 0.99987 0.0
O206 O 0.65121 0.00495 0.03023 0.0
O207 O 0.62894 0.97996 0.03196 0.0
C208 C 0.58429 0.94614 0.966 0.0
C209 C 0.59291 0.93828 0.96051 0.0
H210 H 0.61301 0.92579 0.95337 0.0
H211 H 0.63755 0.93126 0.97019 0.0
H212 H 0.58232 0.98145 0.00539 0.0
H213 H 0.57134 0.96385 0.9799 0.0
H214 H 0.57382 0.94464 0.95879 0.0
H215 H 0.58892 0.93085 0.94918 0.0
Mn216 Mn 0.66525 0.67794 0.34048 0.0
Mn217 Mn 0.70069 0.71193 0.35149 0.0
C218 C 0.67483 0.70102 0.32435 0.0
C219 C 0.65136 0.65202 0.32766 0.0
C220 C 0.6688 0.70171 0.36866 0.0
O221 O 0.67565 0.66955 0.35726 0.0
O222 O 0.69998 0.69231 0.36175 0.0
C223 C 0.72332 0.70419 0.33365 0.0
N224 N 0.71738 0.71458 0.33667 0.0
C225 C 0.73619 0.7345 0.31785 0.0
C226 C 0.74259 0.72406 0.31461 0.0
C227 C 0.73609 0.70882 0.3225 0.0
C228 C 0.72346 0.72921 0.32905 0.0
H229 H 0.71835 0.69247 0.3397 0.0
C230 C 0.68994 0.67703 0.36382 0.0
O231 O 0.64503 0.65619 0.33968 0.0
O232 O 0.66574 0.66298 0.32298 0.0
N233 N 0.70332 0.73199 0.34255 0.0
C234 C 0.6954 0.74036 0.3466 0.0
C235 C 0.70025 0.75576 0.33956 0.0
C236 C 0.71333 0.76249 0.32864 0.0
C237 C 0.72148 0.75379 0.32489 0.0
C238 C 0.71614 0.73853 0.33233 0.0
H239 H 0.68541 0.73532 0.35508 0.0
O240 O 0.6596 0.68974 0.32333 0.0
O241 O 0.68412 0.69827 0.33445 0.0
O242 O 0.65988 0.68939 0.35913 0.0
O243 O 0.68421 0.71052 0.36724 0.0
C244 C 0.73449 0.7595 0.31381 0.0
C245 C 0.74179 0.74983 0.31024 0.0
H246 H 0.75242 0.72757 0.306 0.0
H247 H 0.74092 0.70067 0.32001 0.0
H248 H 0.69392 0.76242 0.34254 0.0
H249 H 0.71695 0.7743 0.32311 0.0
H250 H 0.73881 0.7712 0.30778 0.0
H251 H 0.75163 0.75425 0.30153 0.0
Mn252 Mn 0.31692 0.9826 0.35759 0.0
Mn253 Mn 0.31234 0.94478 0.35077 0.0
C254 C 0.30115 0.96147 0.37514 0.0
C255 C 0.33137 0.00936 0.36824 0.0
C256 C 0.29495 0.95874 0.33019 0.0
O257 O 0.3352 0.98679 0.34185 0.0
O258 O 0.3326 0.96152 0.34022 0.0
C259 C 0.34064 0.94835 0.37065 0.0
N260 N 0.32431 0.94022 0.36728 0.0
C261 C 0.31976 0.92024 0.38821 0.0
C262 C 0.33655 0.92834 0.39185 0.0
C263 C 0.34702 0.94249 0.38307 0.0
C264 C 0.31411 0.92666 0.37572 0.0
H265 H 0.34873 0.95921 0.36391 0.0
C266 C 0.33997 0.97688 0.33691 0.0
O267 O 0.3216 0.00558 0.3554 0.0
O268 O 0.33287 0.99758 0.375 0.0
N269 N 0.29332 0.92729 0.36034 0.0
C270 C 0.27738 0.92132 0.3558 0.0
C271 C 0.26528 0.90736 0.36363 0.0
C272 C 0.26969 0.89957 0.3759 0.0
C273 C 0.28618 0.9058 0.3802 0.0
C274 C 0.29771 0.91972 0.37193 0.0
H275 H 0.27391 0.92718 0.3463 0.0
O276 O 0.29926 0.9743 0.37428 0.0
O277 O 0.31234 0.9615 0.36591 0.0
O278 O 0.30015 0.972 0.33869 0.0
O279 O 0.2992 0.94798 0.33321 0.0
C280 C 0.29162 0.89891 0.39257 0.0
C281 C 0.3084 0.90617 0.39662 0.0
H282 H 0.34152 0.92388 0.40144 0.0
H283 H 0.35999 0.94885 0.38586 0.0
H284 H 0.25257 0.90262 0.36023 0.0
H285 H 0.26032 0.88889 0.38201 0.0
H286 H 0.28299 0.8882 0.39924 0.0
H287 H 0.3124 0.90091 0.40634 0.0
Mn288 Mn 0.01623 0.32687 0.34515 0.0
Mn289 Mn 0.05397 0.3597 0.34209 0.0
C290 C 0.03586 0.33218 0.36557 0.0
C291 C 0.98929 0.31524 0.35341 0.0
C292 C 0.04207 0.32809 0.32188 0.0
O293 O 0.01296 0.34097 0.32797 0.0
O294 O 0.03817 0.36305 0.32838 0.0
C295 C 0.04851 0.38489 0.35874 0.0
N296 N 0.05693 0.37658 0.35766 0.0
C297 C 0.07485 0.39243 0.38047 0.0
C298 C 0.06642 0.40123 0.38177 0.0
C299 C 0.05316 0.3974 0.37089 0.0
C300 C 0.06966 0.3801 0.36812 0.0
H301 H 0.03832 0.382 0.35038 0.0
C302 C 0.02321 0.35547 0.32346 0.0
O303 O 0.99346 0.30865 0.34155 0.0
O304 O 0.00072 0.32876 0.36025 0.0
N305 N 0.07053 0.35831 0.35489 0.0
C306 C 0.07682 0.34811 0.35256 0.0
C307 C 0.08992 0.35002 0.36273 0.0
C308 C 0.09652 0.36251 0.37506 0.0
C309 C 0.08996 0.37298 0.3771 0.0
C310 C 0.07695 0.37052 0.36656 0.0
H311 H 0.07185 0.33853 0.34307 0.0
O312 O 0.02339 0.31753 0.36367 0.0
O313 O 0.03642 0.3433 0.35558 0.0
O314 O 0.02803 0.32024 0.32822 0.0
O315 O 0.05239 0.34297 0.32588 0.0
C316 C 0.09565 0.38558 0.38936 0.0
C317 C 0.08805 0.39526 0.3911 0.0
H318 H 0.06996 0.41087 0.39114 0.0
H319 H 0.04656 0.40409 0.37185 0.0
H320 H 0.0949 0.34188 0.36109 0.0
H321 H 0.10654 0.36387 0.38297 0.0
H322 H 0.10568 0.38776 0.39771 0.0
H323 H 0.09236 0.40473 0.40075 0.0
Mn324 Mn 0.66159 0.98309 0.34357 0.0
Mn325 Mn 0.69704 0.98413 0.35324 0.0
C326 C 0.67072 0.96932 0.32676 0.0
C327 C 0.64686 0.99436 0.33134 0.0
C328 C 0.66573 0.96366 0.37164 0.0
O329 O 0.67291 0.00251 0.3599 0.0
O330 O 0.69734 0.00388 0.36313 0.0
C331 C 0.7202 0.01352 0.33487 0.0
N332 N 0.71349 0.99715 0.33786 0.0
C333 C 0.73088 0.99435 0.3181 0.0
C334 C 0.73805 0.01121 0.3149 0.0
C335 C 0.73266 0.02082 0.3233 0.0
C336 C 0.71861 0.98779 0.32988 0.0
H337 H 0.71607 0.02095 0.34126 0.0
C338 C 0.68764 0.00961 0.36542 0.0
O339 O 0.64132 0.98446 0.34375 0.0
O340 O 0.66112 0.99788 0.32603 0.0
N341 N 0.69829 0.96584 0.34401 0.0
C342 C 0.68929 0.94958 0.3476 0.0
C343 C 0.69264 0.93816 0.33967 0.0
C344 C 0.70524 0.94358 0.32821 0.0
C345 C 0.71438 0.96038 0.32477 0.0
C346 C 0.71056 0.9712 0.33313 0.0
H347 H 0.67957 0.94532 0.35637 0.0
O348 O 0.6554 0.96516 0.32652 0.0
O349 O 0.68021 0.98145 0.33675 0.0
O350 O 0.65673 0.96687 0.36224 0.0
O351 O 0.68107 0.97005 0.36985 0.0
C352 C 0.72691 0.96677 0.31312 0.0
C353 C 0.73516 0.98375 0.30979 0.0
H354 H 0.74758 0.01686 0.30589 0.0
H355 H 0.73808 0.03381 0.32083 0.0
H356 H 0.68549 0.92521 0.34235 0.0
H357 H 0.70769 0.93473 0.32201 0.0
H358 H 0.73012 0.9587 0.30644 0.0
H359 H 0.74459 0.98846 0.30061 0.0
Mn360 Mn 0.01938 0.69405 0.34591 0.0
Mn361 Mn 0.05573 0.69647 0.33993 0.0
C362 C 0.04087 0.70892 0.36451 0.0
C363 C 0.99332 0.67994 0.35661 0.0
C364 C 0.04314 0.71537 0.31964 0.0
O365 O 0.01403 0.67531 0.32936 0.0
O366 O 0.03835 0.67628 0.32859 0.0
C367 C 0.05084 0.66749 0.35901 0.0
N368 N 0.05948 0.68397 0.35636 0.0
C369 C 0.07837 0.68788 0.37878 0.0
C370 C 0.06973 0.67094 0.38168 0.0
C371 C 0.05587 0.66071 0.37178 0.0
C372 C 0.07275 0.69393 0.36589 0.0
H373 H 0.04016 0.65958 0.35146 0.0
C374 C 0.02312 0.6695 0.32479 0.0
O375 O 0.99654 0.68992 0.3443 0.0
O376 O 0.00518 0.67813 0.36256 0.0
N377 N 0.07352 0.71534 0.35061 0.0
C378 C 0.08009 0.73149 0.34667 0.0
C379 C 0.09389 0.74339 0.3556 0.0
C380 C 0.10086 0.73854 0.36839 0.0
C381 C 0.09397 0.72183 0.37213 0.0
C382 C 0.08027 0.71053 0.36276 0.0
H383 H 0.07484 0.73529 0.3368 0.0
O384 O 0.02873 0.71177 0.36371 0.0
O385 O 0.03991 0.69755 0.35446 0.0
O386 O 0.03019 0.71099 0.32776 0.0
O387 O 0.0531 0.7101 0.3227 0.0
C388 C 0.10006 0.71597 0.38492 0.0
C389 C 0.0922 0.69902 0.38831 0.0
H390 H 0.07355 0.66566 0.39154 0.0
H391 H 0.04909 0.64763 0.37399 0.0
H392 H 0.09914 0.75626 0.35263 0.0
H393 H 0.11145 0.74776 0.37531 0.0
H394 H 0.11066 0.72441 0.39236 0.0
H395 H 0.09684 0.6947 0.39835 0.0
Mn396 Mn 0.32477 0.3407 0.34663 0.0
Mn397 Mn 0.28979 0.30578 0.35417 0.0
C398 C 0.30244 0.33238 0.32887 0.0
C399 C 0.35061 0.35417 0.33524 0.0
C400 C 0.30145 0.33766 0.37391 0.0
O401 O 0.3318 0.32866 0.36294 0.0
O402 O 0.30838 0.30457 0.36473 0.0
C403 C 0.29517 0.28163 0.33525 0.0
N404 N 0.28603 0.28895 0.33818 0.0
C405 C 0.26609 0.27191 0.31725 0.0
C406 C 0.27524 0.26412 0.31409 0.0
C407 C 0.28986 0.26903 0.3231 0.0
C408 C 0.27193 0.28431 0.32959 0.0
H409 H 0.30644 0.2854 0.34211 0.0
C410 C 0.32365 0.31387 0.3679 0.0
O411 O 0.34683 0.36047 0.34769 0.0
O412 O 0.3394 0.33995 0.32948 0.0
N413 N 0.27097 0.30536 0.34431 0.0
C414 C 0.26423 0.31493 0.348 0.0
C415 C 0.24989 0.31209 0.33955 0.0
C416 C 0.2426 0.29939 0.32749 0.0
C417 C 0.24971 0.28965 0.32397 0.0
C418 C 0.26394 0.29299 0.33285 0.0
H419 H 0.26979 0.32472 0.35724 0.0
O420 O 0.31397 0.34764 0.32936 0.0
O421 O 0.30441 0.3225 0.3387 0.0
O422 O 0.31383 0.34646 0.3652 0.0
O423 O 0.29214 0.32225 0.37125 0.0
C424 C 0.24342 0.27698 0.31174 0.0
C425 C 0.25161 0.26812 0.30839 0.0
H426 H 0.27125 0.25447 0.30465 0.0
H427 H 0.29704 0.26313 0.32067 0.0
H428 H 0.24451 0.3197 0.3423 0.0
H429 H 0.23162 0.29734 0.32089 0.0
H430 H 0.23246 0.27415 0.30464 0.0
H431 H 0.2468 0.2586 0.29877 0.0
Mn432 Mn 0.33468 0.01839 0.67046 0.0
Mn433 Mn 0.36878 0.05491 0.67818 0.0
C434 C 0.34151 0.03979 0.65248 0.0
C435 C 0.3213 0.99146 0.66013 0.0
C436 C 0.33752 0.04347 0.69681 0.0
O437 O 0.34738 0.0128 0.68741 0.0
O438 O 0.37052 0.0372 0.68993 0.0
C439 C 0.39226 0.04831 0.66047 0.0
N440 N 0.38519 0.0578 0.66286 0.0
C441 C 0.40206 0.07703 0.6424 0.0
C442 C 0.40959 0.06751 0.63978 0.0
C443 C 0.40462 0.05306 0.64881 0.0
C444 C 0.38976 0.07164 0.65412 0.0
H445 H 0.38848 0.03721 0.66741 0.0
C446 C 0.36182 0.02193 0.69323 0.0
O447 O 0.31555 0.9962 0.67219 0.0
O448 O 0.335 0.00243 0.65396 0.0
N449 N 0.36908 0.07336 0.66771 0.0
C450 C 0.36024 0.08088 0.67135 0.0
C451 C 0.36357 0.09543 0.66326 0.0
C452 C 0.37611 0.10225 0.65171 0.0
C453 C 0.38523 0.09446 0.64838 0.0
C454 C 0.38138 0.08001 0.65687 0.0
H455 H 0.35069 0.07579 0.68033 0.0
O456 O 0.32665 0.02768 0.65276 0.0
O457 O 0.35204 0.03888 0.66246 0.0
O458 O 0.32915 0.03022 0.68839 0.0
O459 O 0.35259 0.05336 0.69443 0.0
C460 C 0.3978 0.10031 0.63677 0.0
C461 C 0.40614 0.09154 0.63371 0.0
H462 H 0.41914 0.07113 0.6308 0.0
H463 H 0.41033 0.04562 0.6468 0.0
H464 H 0.3565 0.10139 0.66592 0.0
H465 H 0.37856 0.11341 0.6454 0.0
H466 H 0.40098 0.1114 0.62995 0.0
H467 H 0.41562 0.09603 0.62458 0.0
Mn468 Mn 0.9815 0.31215 0.67864 0.0
Mn469 Mn 0.98499 0.27815 0.67271 0.0
C470 C 0.9669 0.28937 0.69478 0.0
C471 C 0.98966 0.33804 0.69015 0.0
C472 C 0.96506 0.28733 0.64982 0.0
O473 O 0.00231 0.32071 0.66556 0.0
O474 O 0.00413 0.29763 0.66339 0.0
C475 C 0.01371 0.28732 0.69487 0.0
N476 N 0.99793 0.27658 0.69039 0.0
C477 C 0.99594 0.25785 0.71177 0.0
C478 C 0.0122 0.26866 0.71655 0.0
C479 C 0.0211 0.28347 0.70809 0.0
C480 C 0.98923 0.26233 0.69849 0.0
H481 H 0.02059 0.29872 0.68841 0.0
C482 C 0.00963 0.313 0.66096 0.0
O483 O 0.98168 0.33323 0.67607 0.0
O484 O 0.99328 0.32791 0.69757 0.0
N485 N 0.96749 0.25837 0.68123 0.0
C486 C 0.95173 0.24967 0.67559 0.0
C487 C 0.94106 0.2347 0.683 0.0
C488 C 0.94674 0.22874 0.69599 0.0
C489 C 0.96307 0.2378 0.70143 0.0
C490 C 0.97315 0.25261 0.69353 0.0
H491 H 0.9473 0.25415 0.66557 0.0
O492 O 0.96214 0.30015 0.69291 0.0
O493 O 0.98011 0.29225 0.68723 0.0
O494 O 0.96787 0.30021 0.658 0.0
O495 O 0.97107 0.27824 0.65397 0.0
C496 C 0.96964 0.23289 0.71462 0.0
C497 C 0.98605 0.24293 0.71981 0.0
H498 H 0.01793 0.26576 0.72677 0.0
H499 H 0.03363 0.29191 0.71175 0.0
H500 H 0.92848 0.22777 0.67872 0.0
H501 H 0.93844 0.21726 0.70178 0.0
H502 H 0.96212 0.22154 0.72102 0.0
H503 H 0.99091 0.23914 0.73012 0.0
Mn504 Mn 0.67226 0.65854 0.67752 0.0
Mn505 Mn 0.70633 0.69425 0.66982 0.0
C506 C 0.69483 0.66753 0.695 0.0
C507 C 0.64667 0.64477 0.68932 0.0
C508 C 0.69567 0.66255 0.65002 0.0
O509 O 0.66446 0.66992 0.66127 0.0
O510 O 0.68718 0.69461 0.65953 0.0
C511 C 0.69985 0.71742 0.68918 0.0
N512 N 0.70956 0.7108 0.68595 0.0
C513 C 0.72942 0.72837 0.70667 0.0
C514 C 0.71968 0.73546 0.71015 0.0
C515 C 0.70482 0.72993 0.70139 0.0
C516 C 0.72387 0.71602 0.69431 0.0
H517 H 0.68841 0.71318 0.6825 0.0
C518 C 0.67202 0.68475 0.65637 0.0
O519 O 0.6504 0.63837 0.67691 0.0
O520 O 0.65777 0.65915 0.69479 0.0
N521 N 0.72569 0.69558 0.67933 0.0
C522 C 0.73309 0.6867 0.67529 0.0
C523 C 0.7478 0.69026 0.6834 0.0
C524 C 0.75481 0.70298 0.69547 0.0
C525 C 0.74705 0.71204 0.69931 0.0
C526 C 0.73245 0.708 0.69076 0.0
H527 H 0.72777 0.67692 0.66603 0.0
O528 O 0.68363 0.65215 0.69465 0.0
O529 O 0.69236 0.67716 0.68526 0.0
O530 O 0.68348 0.65327 0.65879 0.0
O531 O 0.70443 0.67804 0.65269 0.0
C532 C 0.75304 0.72469 0.71155 0.0
C533 C 0.74422 0.73284 0.71524 0.0
H534 H 0.72342 0.74504 0.71962 0.0
H535 H 0.6972 0.73527 0.70406 0.0
H536 H 0.7537 0.68319 0.68039 0.0
H537 H 0.76608 0.70558 0.7018 0.0
H538 H 0.76426 0.72805 0.7184 0.0
H539 H 0.7488 0.74234 0.72487 0.0
Mn540 Mn 0.32536 0.31949 0.67502 0.0
Mn541 Mn 0.36026 0.31922 0.68403 0.0
C542 C 0.33427 0.30638 0.65703 0.0
C543 C 0.31194 0.3327 0.66407 0.0
C544 C 0.32847 0.29811 0.70153 0.0
O545 O 0.33661 0.33753 0.69276 0.0
O546 O 0.36101 0.33873 0.69511 0.0
C547 C 0.38407 0.34926 0.66696 0.0
N548 N 0.37702 0.33273 0.66913 0.0
C549 C 0.39428 0.33041 0.64887 0.0
C550 C 0.40181 0.34743 0.6465 0.0
C551 C 0.39665 0.35688 0.65557 0.0
C552 C 0.3819 0.32351 0.6605 0.0
H553 H 0.3801 0.35656 0.67385 0.0
C554 C 0.35132 0.34429 0.69827 0.0
O555 O 0.30555 0.32178 0.67554 0.0
O556 O 0.32614 0.3359 0.65887 0.0
N557 N 0.36112 0.30112 0.67371 0.0
C558 C 0.35181 0.28473 0.67654 0.0
C559 C 0.35491 0.27348 0.66789 0.0
C560 C 0.3676 0.2792 0.65651 0.0
C561 C 0.37708 0.29613 0.65388 0.0
C562 C 0.37349 0.30677 0.66293 0.0
H563 H 0.34202 0.28024 0.68525 0.0
O564 O 0.3191 0.30276 0.65664 0.0
O565 O 0.34377 0.31772 0.66776 0.0
O566 O 0.31965 0.3018 0.69238 0.0
O567 O 0.34386 0.30459 0.70002 0.0
C568 C 0.38971 0.30284 0.64235 0.0
C569 C 0.39831 0.31997 0.63985 0.0
H570 H 0.41143 0.35334 0.63764 0.0
H571 H 0.40233 0.37001 0.65375 0.0
H572 H 0.34751 0.26043 0.66996 0.0
H573 H 0.36986 0.27048 0.64975 0.0
H574 H 0.39274 0.29492 0.63514 0.0
H575 H 0.40782 0.32494 0.63076 0.0
Mn576 Mn 0.68662 0.02296 0.66636 0.0
Mn577 Mn 0.71976 0.01939 0.65857 0.0
C578 C 0.70941 0.03604 0.68367 0.0
C579 C 0.66129 0.01369 0.6782 0.0
C580 C 0.71017 0.04081 0.63856 0.0
O581 O 0.67779 0.00299 0.65068 0.0
O582 O 0.70012 0.00026 0.64828 0.0
C583 C 0.71216 0.98962 0.67772 0.0
N584 N 0.72229 0.00583 0.67467 0.0
C585 C 0.74151 0.00757 0.69577 0.0
C586 C 0.73133 0.99086 0.69905 0.0
C587 C 0.71658 0.98187 0.69 0.0
C588 C 0.73654 0.01459 0.68326 0.0
H589 H 0.70077 0.98267 0.67084 0.0
C590 C 0.68493 0.99524 0.64556 0.0
O591 O 0.66567 0.02305 0.66531 0.0
O592 O 0.67153 0.00938 0.68405 0.0
N593 N 0.73938 0.037 0.66824 0.0
C594 C 0.74716 0.05327 0.66448 0.0
C595 C 0.76175 0.06415 0.67299 0.0
C596 C 0.76822 0.05819 0.68522 0.0
C597 C 0.76003 0.04139 0.68883 0.0
C598 C 0.74559 0.03111 0.67986 0.0
H599 H 0.74221 0.05794 0.65515 0.0
O600 O 0.6989 0.04119 0.68299 0.0
O601 O 0.70625 0.02344 0.67416 0.0
O602 O 0.69813 0.03835 0.64733 0.0
O603 O 0.71871 0.03387 0.64128 0.0
C604 C 0.76542 0.03451 0.70126 0.0
C605 C 0.75617 0.01761 0.70472 0.0
H606 H 0.73463 0.98487 0.70862 0.0
H607 H 0.70862 0.96899 0.69252 0.0
H608 H 0.76797 0.07711 0.67017 0.0
H609 H 0.77939 0.06665 0.69186 0.0
H610 H 0.77652 0.04217 0.70843 0.0
H611 H 0.76031 0.01252 0.71448 0.0
Mn612 Mn 0.98112 0.67726 0.67284 0.0
Mn613 Mn 0.9449 0.64374 0.68039 0.0
C614 C 0.95972 0.66881 0.65385 0.0
C615 C 0.00746 0.68941 0.66271 0.0
C616 C 0.95692 0.6767 0.69799 0.0
O617 O 0.98678 0.66552 0.69079 0.0
O618 O 0.96238 0.64259 0.69345 0.0
C619 C 0.95032 0.61791 0.66525 0.0
N620 N 0.94148 0.6258 0.66612 0.0
C621 C 0.92251 0.6079 0.64494 0.0
C622 C 0.93136 0.59951 0.64389 0.0
C623 C 0.94534 0.60456 0.65406 0.0
C624 C 0.928 0.62104 0.6564 0.0
H625 H 0.96109 0.62178 0.67302 0.0
C626 C 0.97765 0.65141 0.69696 0.0
O627 O 0.00346 0.69653 0.67417 0.0
O628 O 0.99617 0.67511 0.65719 0.0
N629 N 0.92702 0.6433 0.66833 0.0
C630 C 0.92056 0.65342 0.67004 0.0
C631 C 0.90687 0.65047 0.66026 0.0
C632 C 0.89993 0.63711 0.64891 0.0
C633 C 0.90674 0.6268 0.64745 0.0
C634 C 0.92032 0.63029 0.6576 0.0
H635 H 0.92586 0.66372 0.67873 0.0
O636 O 0.97159 0.68391 0.65404 0.0
O637 O 0.96075 0.65918 0.66479 0.0
O638 O 0.96997 0.68451 0.6899 0.0
O639 O 0.94693 0.66139 0.69566 0.0
C640 C 0.90079 0.61341 0.63608 0.0
C641 C 0.90868 0.60397 0.63482 0.0
H642 H 0.92762 0.58928 0.6352 0.0
H643 H 0.95228 0.5982 0.65326 0.0
H644 H 0.90171 0.65851 0.66142 0.0
H645 H 0.88947 0.63496 0.64127 0.0
H646 H 0.89034 0.61044 0.62804 0.0
H647 H 0.90415 0.59388 0.62584 0.0
C648 C 0.21994 0.26319 0.08676 0.0
C649 C 0.2209 0.27953 0.08209 0.0
C650 C 0.20685 0.28687 0.10316 0.0
C651 C 0.20902 0.29975 0.11374 0.0
C652 C 0.19574 0.29972 0.12132 0.0
C653 C 0.17996 0.28593 0.11897 0.0
C654 C 0.17769 0.27272 0.1084 0.0
C655 C 0.19111 0.27347 0.10036 0.0
C656 C 0.1987 0.31451 0.13175 0.0
C657 C 0.16109 0.25778 0.10558 0.0
C658 C 0.0995 0.28632 0.05231 0.0
C659 C 0.09219 0.29134 0.06659 0.0
C660 C 0.11243 0.29801 0.08941 0.0
C661 C 0.1087 0.28175 0.09259 0.0
C662 C 0.1179 0.2785 0.10431 0.0
C663 C 0.13104 0.29173 0.11303 0.0
C664 C 0.13459 0.30805 0.11014 0.0
C665 C 0.12518 0.31095 0.09839 0.0
C666 C 0.11379 0.26094 0.10719 0.0
C667 C 0.14853 0.32245 0.11922 0.0
C668 C 0.0987 0.29174 0.21931 0.0
C669 C 0.09547 0.27562 0.21587 0.0
C670 C 0.10685 0.27278 0.20756 0.0
C671 C 0.1217 0.28632 0.20261 0.0
C672 C 0.12488 0.30254 0.20592 0.0
C673 C 0.11327 0.30501 0.21416 0.0
C674 C 0.10306 0.25535 0.20405 0.0
C675 C 0.14058 0.31729 0.20086 0.0
C676 C 0.23193 0.28243 0.21699 0.0
C677 C 0.22638 0.29124 0.22922 0.0
C678 C 0.19725 0.28112 0.22567 0.0
C679 C 0.18334 0.26616 0.22155 0.0
C680 C 0.17013 0.26574 0.21277 0.0
C681 C 0.1709 0.28067 0.20818 0.0
C682 C 0.18451 0.29585 0.21326 0.0
C683 C 0.19747 0.2959 0.22211 0.0
C684 C 0.15564 0.24937 0.20786 0.0
C685 C 0.18552 0.31202 0.20902 0.0
C686 C 0.16579 0.28551 0.12722 0.0
C687 C 0.15495 0.28812 0.11741 0.0
C688 C 0.14172 0.28858 0.12436 0.0
C689 C 0.13926 0.28663 0.14167 0.0
C690 C 0.12621 0.28728 0.14911 0.0
C691 C 0.12431 0.28601 0.16627 0.0
C692 C 0.13538 0.28406 0.17663 0.0
C693 C 0.13406 0.28361 0.19415 0.0
C694 C 0.14541 0.28185 0.20408 0.0
C695 C 0.15817 0.28058 0.19699 0.0
C696 C 0.15957 0.28081 0.17949 0.0
C697 C 0.17216 0.27936 0.17194 0.0
C698 C 0.17392 0.28039 0.15479 0.0
C699 C 0.16341 0.28329 0.14454 0.0
C700 C 0.15026 0.28413 0.15182 0.0
C701 C 0.1483 0.28282 0.16931 0.0
C702 C 0.06988 0.2918 0.24925 0.0
C703 C 0.07439 0.28397 0.2358 0.0
O704 O 0.22028 0.2878 0.0962 0.0
O705 O 0.2102 0.28089 0.23302 0.0
O706 O 0.08829 0.29511 0.22771 0.0
O707 O 0.10434 0.30188 0.07773 0.0
H708 H 0.2105 0.27687 0.07344 0.0
H709 H 0.2081 0.25482 0.09239 0.0
H710 H 0.22974 0.26521 0.09591 0.0
H711 H 0.22112 0.25694 0.07547 0.0
H712 H 0.22119 0.31006 0.11576 0.0
H713 H 0.1892 0.26343 0.09214 0.0
H714 H 0.18884 0.31756 0.12965 0.0
H715 H 0.21055 0.3255 0.12899 0.0
H716 H 0.19893 0.31176 0.14512 0.0
H717 H 0.16182 0.24747 0.09945 0.0
H718 H 0.15352 0.26108 0.09751 0.0
H719 H 0.1548 0.25348 0.11757 0.0
H720 H 0.08323 0.28015 0.07313 0.0
H721 H 0.08976 0.27817 0.04322 0.0
H722 H 0.10551 0.27949 0.05709 0.0
H723 H 0.10872 0.29735 0.04578 0.0
H724 H 0.09881 0.27153 0.08589 0.0
H725 H 0.12793 0.32344 0.09592 0.0
H726 H 0.1241 0.25923 0.10329 0.0
H727 H 0.10261 0.25195 0.10017 0.0
H728 H 0.11204 0.25824 0.12066 0.0
H729 H 0.14953 0.33439 0.11576 0.0
H730 H 0.16015 0.32277 0.11638 0.0
H731 H 0.14689 0.32096 0.13286 0.0
H732 H 0.0643 0.2752 0.22733 0.0
H733 H 0.08412 0.26524 0.21964 0.0
H734 H 0.11561 0.31739 0.21685 0.0
H735 H 0.10394 0.25355 0.19051 0.0
H736 H 0.09071 0.24615 0.2081 0.0
H737 H 0.1122 0.25307 0.21059 0.0
H738 H 0.14142 0.32909 0.20488 0.0
H739 H 0.14157 0.31724 0.18712 0.0
H740 H 0.15111 0.31663 0.20634 0.0
H741 H 0.22801 0.30236 0.22267 0.0
H742 H 0.24521 0.29001 0.21485 0.0
H743 H 0.22533 0.28045 0.20486 0.0
H744 H 0.22926 0.27021 0.22162 0.0
H745 H 0.18313 0.2548 0.2247 0.0
H746 H 0.20777 0.30752 0.22617 0.0
H747 H 0.15501 0.24779 0.19411 0.0
H748 H 0.14422 0.24902 0.21168 0.0
H749 H 0.15628 0.2389 0.21354 0.0
H750 H 0.19698 0.32276 0.2138 0.0
H751 H 0.17505 0.31259 0.21438 0.0
H752 H 0.18475 0.31296 0.1953 0.0
H753 H 0.15694 0.29001 0.10416 0.0
H754 H 0.11744 0.28896 0.14176 0.0
H755 H 0.11414 0.28676 0.17133 0.0
H756 H 0.14461 0.28201 0.21753 0.0
H757 H 0.18085 0.2775 0.17921 0.0
H758 H 0.18381 0.27916 0.14969 0.0
H759 H 0.05748 0.28988 0.24545 0.0
H760 H 0.07638 0.30545 0.24687 0.0
H761 H 0.07381 0.28107 0.27254 0.0
C762 C 0.73373 0.92032 0.05605 0.0
C763 C 0.71994 0.91495 0.06839 0.0
C764 C 0.72357 0.90795 0.09654 0.0
C765 C 0.70774 0.8953 0.09956 0.0
C766 C 0.70502 0.88322 0.11129 0.0
C767 C 0.71845 0.88375 0.11999 0.0
C768 C 0.73437 0.89691 0.11741 0.0
C769 C 0.73667 0.90904 0.10591 0.0
C770 C 0.68784 0.86966 0.11404 0.0
C771 C 0.74902 0.89779 0.12628 0.0
C772 C 0.70331 0.79743 0.06357 0.0
C773 C 0.70733 0.7875 0.07611 0.0
C774 C 0.70343 0.79996 0.10135 0.0
C775 C 0.71925 0.81335 0.10354 0.0
C776 C 0.72222 0.82684 0.11377 0.0
C777 C 0.70905 0.82709 0.12167 0.0
C778 C 0.69311 0.81351 0.11958 0.0
C779 C 0.69061 0.79995 0.10974 0.0
C780 C 0.73942 0.84093 0.11597 0.0
C781 C 0.67865 0.81347 0.12736 0.0
C782 C 0.70156 0.80131 0.22994 0.0
C783 C 0.71765 0.81288 0.22601 0.0
C784 C 0.72101 0.82704 0.21712 0.0
C785 C 0.70803 0.82957 0.21191 0.0
C786 C 0.69185 0.81799 0.21596 0.0
C787 C 0.68886 0.80405 0.225 0.0
C788 C 0.7384 0.83922 0.21309 0.0
C789 C 0.67771 0.82028 0.21058 0.0
C790 C 0.72097 0.95115 0.21675 0.0
C791 C 0.7118 0.9362 0.22783 0.0
C792 C 0.71974 0.91505 0.22523 0.0
C793 C 0.73364 0.91397 0.22178 0.0
C794 C 0.73239 0.89974 0.21434 0.0
C795 C 0.71681 0.88626 0.21037 0.0
C796 C 0.70268 0.88692 0.21469 0.0
C797 C 0.70429 0.90126 0.22224 0.0
C798 C 0.7477 0.89926 0.21029 0.0
C799 C 0.68587 0.87258 0.21106 0.0
C800 C 0.716 0.86977 0.13054 0.0
C801 C 0.71391 0.85555 0.12243 0.0
C802 C 0.7118 0.8419 0.13134 0.0
C803 C 0.712 0.84244 0.14893 0.0
C804 C 0.71034 0.8291 0.15831 0.0
C805 C 0.71007 0.82956 0.1756 0.0
C806 C 0.7117 0.8435 0.18419 0.0
C807 C 0.71123 0.844 0.20175 0.0
C808 C 0.71313 0.85813 0.20993 0.0
C809 C 0.71526 0.87179 0.20099 0.0
C810 C 0.71548 0.87142 0.18339 0.0
C811 C 0.71721 0.8848 0.17399 0.0
C812 C 0.71733 0.88428 0.15668 0.0
C813 C 0.71579 0.8704 0.14811 0.0
C814 C 0.71389 0.85671 0.15733 0.0
C815 C 0.71376 0.85723 0.17499 0.0
C816 C 0.70142 0.7688 0.25586 0.0
C817 C 0.7085 0.78225 0.24376 0.0
O818 O 0.72656 0.91902 0.08442 0.0
O819 O 0.7217 0.92948 0.23146 0.0
O820 O 0.69774 0.78741 0.23845 0.0
O821 O 0.69998 0.78696 0.09108 0.0
H822 H 0.71225 0.90134 0.06675 0.0
H823 H 0.74066 0.91378 0.0586 0.0
H824 H 0.74228 0.93377 0.05718 0.0
H825 H 0.72871 0.91724 0.04309 0.0
H826 H 0.69756 0.89479 0.09261 0.0
H827 H 0.74882 0.91901 0.10358 0.0
H828 H 0.68614 0.85801 0.10841 0.0
H829 H 0.67864 0.87239 0.10836 0.0
H830 H 0.6856 0.86768 0.12757 0.0
H831 H 0.76065 0.90825 0.12209 0.0
H832 H 0.7493 0.88618 0.12413 0.0
H833 H 0.74816 0.89922 0.13988 0.0
H834 H 0.72075 0.79343 0.07801 0.0
H835 H 0.70967 0.79886 0.0517 0.0
H836 H 0.70739 0.81 0.06861 0.0
H837 H 0.68997 0.79127 0.06098 0.0
H838 H 0.72933 0.8133 0.09741 0.0
H839 H 0.67846 0.78951 0.10801 0.0
H840 H 0.74061 0.85176 0.10919 0.0
H841 H 0.74854 0.83781 0.11113 0.0
H842 H 0.74228 0.84454 0.12933 0.0
H843 H 0.6669 0.80304 0.12267 0.0
H844 H 0.67872 0.82516 0.12481 0.0
H845 H 0.67936 0.81247 0.14105 0.0
H846 H 0.71556 0.78074 0.23359 0.0
H847 H 0.72762 0.81094 0.2298 0.0
H848 H 0.67651 0.79509 0.22814 0.0
H849 H 0.73981 0.83973 0.19939 0.0
H850 H 0.74721 0.83596 0.21878 0.0
H851 H 0.74145 0.85172 0.21757 0.0
H852 H 0.66582 0.80995 0.21439 0.0
H853 H 0.6775 0.82133 0.19684 0.0
H854 H 0.67924 0.83189 0.21612 0.0
H855 H 0.7008 0.92752 0.22034 0.0
H856 H 0.71378 0.95752 0.21481 0.0
H857 H 0.7229 0.94702 0.20441 0.0
H858 H 0.73311 0.95997 0.22225 0.0
H859 H 0.74552 0.92454 0.2245 0.0
H860 H 0.69347 0.90163 0.22579 0.0
H861 H 0.74866 0.89874 0.19657 0.0
H862 H 0.74713 0.88799 0.21539 0.0
H863 H 0.75884 0.9102 0.21536 0.0
H864 H 0.67609 0.87521 0.21479 0.0
H865 H 0.68439 0.86165 0.21785 0.0
H866 H 0.68436 0.86942 0.19756 0.0
H867 H 0.71385 0.85507 0.10893 0.0
H868 H 0.70913 0.81809 0.15238 0.0
H869 H 0.70858 0.81885 0.18214 0.0
H870 H 0.71273 0.85842 0.2234 0.0
H871 H 0.71845 0.89583 0.17989 0.0
H872 H 0.71863 0.8949 0.15009 0.0
H873 H 0.71558 0.78044 0.27948 0.0
H874 H 0.70163 0.75802 0.24965 0.0
H875 H 0.68774 0.76315 0.25467 0.0
C876 C 0.18644 0.92226 0.05383 0.0
C877 C 0.19914 0.9273 0.06807 0.0
C878 C 0.1856 0.90521 0.08838 0.0
C879 C 0.17402 0.90958 0.09349 0.0
C880 C 0.16212 0.90002 0.10497 0.0
C881 C 0.16183 0.88591 0.11157 0.0
C882 C 0.17374 0.88176 0.10684 0.0
C883 C 0.18545 0.89147 0.09528 0.0
C884 C 0.14958 0.90477 0.10979 0.0
C885 C 0.17386 0.86683 0.11368 0.0
C886 C 0.04503 0.78435 0.09941 0.0
C887 C 0.05814 0.78648 0.08714 0.0
C888 C 0.08426 0.80529 0.10163 0.0
C889 C 0.09794 0.80592 0.10925 0.0
C890 C 0.11046 0.82059 0.11623 0.0
C891 C 0.10914 0.83501 0.1157 0.0
C892 C 0.09546 0.8346 0.10773 0.0
C893 C 0.08311 0.81971 0.10071 0.0
C894 C 0.12497 0.82057 0.12443 0.0
C895 C 0.09376 0.84981 0.10699 0.0
C896 C 0.08481 0.82056 0.2218 0.0
C897 C 0.0973 0.81756 0.21679 0.0
C898 C 0.11074 0.82953 0.20831 0.0
C899 C 0.11174 0.84483 0.20486 0.0
C900 C 0.09959 0.84818 0.21068 0.0
C901 C 0.08633 0.83601 0.21924 0.0
C902 C 0.12372 0.82572 0.20271 0.0
C903 C 0.10039 0.86442 0.2074 0.0
C904 C 0.22477 0.9522 0.22164 0.0
C905 C 0.21653 0.93884 0.23461 0.0
C906 C 0.1969 0.91362 0.21913 0.0
C907 C 0.19386 0.89803 0.21404 0.0
C908 C 0.17939 0.88707 0.20549 0.0
C909 C 0.16764 0.89189 0.20193 0.0
C910 C 0.17059 0.90768 0.20697 0.0
C911 C 0.18524 0.91845 0.21548 0.0
C912 C 0.17667 0.87033 0.20024 0.0
C913 C 0.15829 0.91316 0.20327 0.0
C914 C 0.14839 0.87482 0.12244 0.0
C915 C 0.13476 0.86156 0.11479 0.0
C916 C 0.12184 0.85023 0.12416 0.0
C917 C 0.12212 0.85243 0.14159 0.0
C918 C 0.10898 0.8416 0.15126 0.0
C919 C 0.10972 0.84326 0.1685 0.0
C920 C 0.12372 0.85569 0.17675 0.0
C921 C 0.12494 0.85689 0.19433 0.0
C922 C 0.13918 0.86916 0.20214 0.0
C923 C 0.15232 0.88034 0.19284 0.0
C924 C 0.15121 0.87954 0.17524 0.0
C925 C 0.16413 0.89072 0.1655 0.0
C926 C 0.16313 0.88942 0.14819 0.0
C927 C 0.14927 0.87676 0.13998 0.0
C928 C 0.13603 0.86553 0.14956 0.0
C929 C 0.13692 0.86703 0.16719 0.0
C930 C 0.04618 0.78768 0.21743 0.0
C931 C 0.06296 0.79224 0.22486 0.0
O932 O 0.19692 0.9136 0.07672 0.0
O933 O 0.21124 0.92347 0.22738 0.0
O934 O 0.07121 0.80886 0.22915 0.0
O935 O 0.07252 0.79043 0.09565 0.0
H936 H 0.19785 0.93599 0.07663 0.0
H937 H 0.17399 0.91679 0.0588 0.0
H938 H 0.18687 0.91301 0.04539 0.0
H939 H 0.18869 0.9332 0.04653 0.0
H940 H 0.17396 0.92022 0.08843 0.0
H941 H 0.19444 0.88822 0.09136 0.0
H942 H 0.13724 0.89478 0.10597 0.0
H943 H 0.1517 0.91637 0.10395 0.0
H944 H 0.14977 0.90629 0.12352 0.0
H945 H 0.18481 0.86617 0.11 0.0
H946 H 0.16285 0.85555 0.109 0.0
H947 H 0.17342 0.86697 0.12747 0.0
H948 H 0.0602 0.79633 0.07822 0.0
H949 H 0.03346 0.7811 0.0926 0.0
H950 H 0.04891 0.79597 0.10655 0.0
H951 H 0.04281 0.7745 0.10836 0.0
H952 H 0.0987 0.79473 0.10983 0.0
H953 H 0.07259 0.81942 0.0948 0.0
H954 H 0.12486 0.8225 0.13807 0.0
H955 H 0.13646 0.83082 0.11974 0.0
H956 H 0.12496 0.80882 0.1222 0.0
H957 H 0.08232 0.84747 0.10047 0.0
H958 H 0.10427 0.85964 0.10042 0.0
H959 H 0.09398 0.85446 0.1198 0.0
H960 H 0.06932 0.78941 0.21493 0.0
H961 H 0.09655 0.80587 0.21946 0.0
H962 H 0.07678 0.83831 0.22345 0.0
H963 H 0.12371 0.82527 0.1889 0.0
H964 H 0.12181 0.81377 0.20743 0.0
H965 H 0.13591 0.83562 0.20705 0.0
H966 H 0.09011 0.86523 0.21298 0.0
H967 H 0.10015 0.86617 0.19377 0.0
H968 H 0.11203 0.87464 0.21255 0.0
H969 H 0.20605 0.93954 0.23983 0.0
H970 H 0.22902 0.96455 0.22738 0.0
H971 H 0.21603 0.95038 0.21133 0.0
H972 H 0.23535 0.95176 0.21636 0.0
H973 H 0.20294 0.89445 0.21685 0.0
H974 H 0.18747 0.93057 0.21908 0.0
H975 H 0.1747 0.86869 0.18654 0.0
H976 H 0.16553 0.86062 0.20607 0.0
H977 H 0.1871 0.86854 0.20382 0.0
H978 H 0.1623 0.92577 0.20816 0.0
H979 H 0.14648 0.9045 0.20885 0.0
H980 H 0.15617 0.91287 0.18961 0.0
H981 H 0.13446 0.85971 0.10141 0.0
H982 H 0.09798 0.83165 0.1456 0.0
H983 H 0.09926 0.8345 0.17528 0.0
H984 H 0.14021 0.86974 0.21563 0.0
H985 H 0.17519 0.90056 0.17117 0.0
H986 H 0.17347 0.89828 0.14132 0.0
H987 H 0.0391 0.79074 0.22627 0.0
H988 H 0.03921 0.77433 0.21425 0.0
H989 H 0.04765 0.79465 0.20586 0.0
C990 C 0.28416 0.0975 0.96404 0.0
C991 C 0.288 0.08935 0.94947 0.0
C992 C 0.29366 0.10931 0.92716 0.0
C993 C 0.27748 0.10577 0.92435 0.0
C994 C 0.27383 0.11508 0.91324 0.0
C995 C 0.28657 0.12816 0.90475 0.0
C996 C 0.3028 0.1315 0.90724 0.0
C997 C 0.3061 0.12198 0.91838 0.0
C998 C 0.25638 0.11113 0.91073 0.0
C999 C 0.31669 0.14535 0.89838 0.0
C1000 C 0.2695 0.23045 0.91051 0.0
C1001 C 0.27999 0.22888 0.92435 0.0
C1002 C 0.28766 0.20918 0.91259 0.0
C1003 C 0.30064 0.20806 0.90594 0.0
C1004 C 0.29857 0.19312 0.89969 0.0
C1005 C 0.28303 0.17888 0.90011 0.0
C1006 C 0.26988 0.17976 0.90725 0.0
C1007 C 0.27231 0.19494 0.91344 0.0
C1008 C 0.31291 0.19264 0.89225 0.0
C1009 C 0.25321 0.16474 0.90788 0.0
C1010 C 0.26537 0.19048 0.7952 0.0
C1011 C 0.28108 0.19351 0.79959 0.0
C1012 C 0.28337 0.18152 0.80767 0.0
C1013 C 0.26966 0.16625 0.81146 0.0
C1014 C 0.25391 0.16283 0.80615 0.0
C1015 C 0.25199 0.17498 0.79791 0.0
C1016 C 0.3004 0.18537 0.81262 0.0
C1017 C 0.23906 0.14659 0.80976 0.0
C1018 C 0.27509 0.05702 0.80027 0.0
C1019 C 0.27947 0.06917 0.78604 0.0
C1020 C 0.2856 0.09566 0.79917 0.0
C1021 C 0.29823 0.11145 0.80319 0.0
C1022 C 0.29517 0.12308 0.81097 0.0
C1023 C 0.279 0.11874 0.81485 0.0
C1024 C 0.26608 0.10282 0.81069 0.0
C1025 C 0.2695 0.09138 0.80292 0.0
C1026 C 0.30925 0.13997 0.81522 0.0
C1027 C 0.24873 0.09787 0.8147 0.0
C1028 C 0.28302 0.13888 0.89393 0.0
C1029 C 0.28304 0.15246 0.9014 0.0
C1030 C 0.28046 0.16347 0.89196 0.0
C1031 C 0.2773 0.16072 0.87464 0.0
C1032 C 0.27422 0.17136 0.8649 0.0
C1033 C 0.27197 0.16908 0.84775 0.0
C1034 C 0.273 0.15624 0.83963 0.0
C1035 C 0.2717 0.15443 0.82209 0.0
C1036 C 0.27313 0.14175 0.8144 0.0
C1037 C 0.27581 0.13074 0.8238 0.0
C1038 C 0.27682 0.13216 0.84138 0.0
C1039 C 0.27931 0.12116 0.85121 0.0
C1040 C 0.28099 0.1231 0.86846 0.0
C1041 C 0.28048 0.13625 0.8765 0.0
C1042 C 0.27763 0.14725 0.86684 0.0
C1043 C 0.27564 0.14511 0.84928 0.0
C1044 C 0.25885 0.22373 0.79956 0.0
C1045 C 0.271 0.21881 0.793 0.0
O1046 O 0.29792 0.10109 0.93828 0.0
O1047 O 0.28968 0.08506 0.7919 0.0
O1048 O 0.2627 0.20225 0.78848 0.0
O1049 O 0.29064 0.22431 0.9177 0.0
H1050 H 0.27643 0.08026 0.94306 0.0
H1051 H 0.27733 0.10362 0.95959 0.0
H1052 H 0.29557 0.1069 0.97043 0.0
H1053 H 0.27652 0.0881 0.97317 0.0
H1054 H 0.26763 0.09591 0.93086 0.0
H1055 H 0.31852 0.12458 0.92053 0.0
H1056 H 0.25507 0.1217 0.91515 0.0
H1057 H 0.24773 0.09999 0.91752 0.0
H1058 H 0.25299 0.10918 0.89727 0.0
H1059 H 0.3286 0.14616 0.90144 0.0
H1060 H 0.31741 0.15721 0.90187 0.0
H1061 H 0.31448 0.14359 0.88471 0.0
H1062 H 0.27202 0.21958 0.93343 0.0
H1063 H 0.26114 0.23435 0.91585 0.0
H1064 H 0.262 0.21844 0.90394 0.0
H1065 H 0.2773 0.23961 0.90127 0.0
H1066 H 0.31243 0.21911 0.90543 0.0
H1067 H 0.26215 0.19558 0.91864 0.0
H1068 H 0.31045 0.18945 0.87878 0.0
H1069 H 0.31466 0.18295 0.89825 0.0
H1070 H 0.32437 0.20459 0.89372 0.0
H1071 H 0.24438 0.16726 0.91443 0.0
H1072 H 0.25403 0.15469 0.91429 0.0
H1073 H 0.24849 0.16031 0.89502 0.0
H1074 H 0.27982 0.2212 0.80349 0.0
H1075 H 0.29153 0.20526 0.79681 0.0
H1076 H 0.23995 0.17267 0.79417 0.0
H1077 H 0.30188 0.18648 0.82638 0.0
H1078 H 0.30985 0.19701 0.8072 0.0
H1079 H 0.30248 0.17518 0.80855 0.0
H1080 H 0.22768 0.14573 0.80455 0.0
H1081 H 0.23791 0.14492 0.82343 0.0
H1082 H 0.24046 0.13636 0.80446 0.0
H1083 H 0.26815 0.06819 0.78046 0.0
H1084 H 0.26697 0.04425 0.79557 0.0
H1085 H 0.2686 0.05981 0.81004 0.0
H1086 H 0.28627 0.05781 0.806 0.0
H1087 H 0.31059 0.11461 0.80026 0.0
H1088 H 0.25957 0.07915 0.80003 0.0
H1089 H 0.31001 0.1422 0.82888 0.0
H1090 H 0.3072 0.14948 0.80924 0.0
H1091 H 0.32108 0.14148 0.81111 0.0
H1092 H 0.23996 0.08517 0.81026 0.0
H1093 H 0.24533 0.10654 0.80891 0.0
H1094 H 0.24764 0.09864 0.82837 0.0
H1095 H 0.28561 0.15477 0.91467 0.0
H1096 H 0.27357 0.18162 0.8704 0.0
H1097 H 0.2697 0.17771 0.84092 0.0
H1098 H 0.27257 0.14069 0.80092 0.0
H1099 H 0.28007 0.11097 0.84567 0.0
H1100 H 0.28298 0.11433 0.87539 0.0
H1101 H 0.24916 0.2212 0.79006 0.0
H1102 H 0.26521 0.23702 0.80304 0.0
H1103 H 0.253 0.21656 0.8108 0.0
C1104 C 0.81272 0.07428 0.9649 0.0
C1105 C 0.80222 0.07944 0.9547 0.0
C1106 C 0.81117 0.0874 0.92658 0.0
C1107 C 0.80842 0.10065 0.92405 0.0
C1108 C 0.81793 0.11311 0.91298 0.0
C1109 C 0.83062 0.1124 0.90453 0.0
C1110 C 0.83297 0.09867 0.90662 0.0
C1111 C 0.82297 0.08616 0.91743 0.0
C1112 C 0.81475 0.12729 0.91073 0.0
C1113 C 0.84646 0.09755 0.89797 0.0
C1114 C 0.94005 0.22568 0.94789 0.0
C1115 C 0.93087 0.20983 0.93865 0.0
C1116 C 0.90305 0.19129 0.92872 0.0
C1117 C 0.90678 0.18119 0.91881 0.0
C1118 C 0.89494 0.16908 0.90812 0.0
C1119 C 0.87919 0.16739 0.90694 0.0
C1120 C 0.8755 0.17774 0.91673 0.0
C1121 C 0.88743 0.18939 0.92768 0.0
C1122 C 0.89919 0.15791 0.89833 0.0
C1123 C 0.85891 0.17639 0.91582 0.0
C1124 C 0.89685 0.19945 0.79773 0.0
C1125 C 0.90136 0.18786 0.80284 0.0
C1126 C 0.89079 0.17422 0.81218 0.0
C1127 C 0.87551 0.17223 0.81668 0.0
C1128 C 0.87105 0.184 0.81179 0.0
C1129 C 0.88178 0.19743 0.80232 0.0
C1130 C 0.89587 0.16182 0.81712 0.0
C1131 C 0.85488 0.18231 0.81643 0.0
C1132 C 0.77102 0.05178 0.79975 0.0
C1133 C 0.77675 0.06718 0.78922 0.0
C1134 C 0.80483 0.08838 0.7957 0.0
C1135 C 0.8196 0.08933 0.80035 0.0
C1136 C 0.83153 0.10288 0.80957 0.0
C1137 C 0.82859 0.11583 0.81412 0.0
C1138 C 0.81397 0.1153 0.80879 0.0
C1139 C 0.8023 0.10164 0.79948 0.0
C1140 C 0.84718 0.10327 0.81469 0.0
C1141 C 0.81065 0.12911 0.81305 0.0
C1142 C 0.84244 0.12679 0.895 0.0
C1143 C 0.85478 0.13999 0.9041 0.0
C1144 C 0.86631 0.15415 0.89627 0.0
C1145 C 0.86558 0.15529 0.87877 0.0
C1146 C 0.87669 0.16953 0.87049 0.0
C1147 C 0.87612 0.17036 0.85322 0.0
C1148 C 0.86442 0.15696 0.84358 0.0
C1149 C 0.86392 0.15753 0.826 0.0
C1150 C 0.85217 0.14395 0.81681 0.0
C1151 C 0.84067 0.12979 0.82468 0.0
C1152 C 0.84081 0.12905 0.84225 0.0
C1153 C 0.82918 0.11512 0.85059 0.0
C1154 C 0.82955 0.11442 0.86788 0.0
C1155 C 0.84168 0.12753 0.87747 0.0
C1156 C 0.85337 0.14181 0.86933 0.0
C1157 C 0.85286 0.14261 0.85171 0.0
C1158 C 0.92757 0.22878 0.76924 0.0
C1159 C 0.92182 0.21659 0.7827 0.0
O1160 O 0.80277 0.07587 0.93801 0.0
O1161 O 0.79346 0.07463 0.78741 0.0
O1162 O 0.90652 0.21258 0.78829 0.0
O1163 O 0.91411 0.20294 0.93942 0.0
H1164 H 0.8074 0.09295 0.95677 0.0
H1165 H 0.8255 0.08107 0.96072 0.0
H1166 H 0.80816 0.06087 0.9633 0.0
H1167 H 0.81262 0.0772 0.97832 0.0
H1168 H 0.79895 0.10128 0.93089 0.0
H1169 H 0.82482 0.07573 0.91939 0.0
H1170 H 0.82452 0.13836 0.91728 0.0
H1171 H 0.80286 0.12466 0.91583 0.0
H1172 H 0.81494 0.13021 0.89734 0.0
H1173 H 0.84702 0.08634 0.90137 0.0
H1174 H 0.85837 0.10854 0.90122 0.0
H1175 H 0.84461 0.09739 0.88428 0.0
H1176 H 0.93542 0.20096 0.94041 0.0
H1177 H 0.94727 0.22338 0.95783 0.0
H1178 H 0.93142 0.22648 0.95694 0.0
H1179 H 0.95175 0.24409 0.92782 0.0
H1180 H 0.91881 0.18246 0.91961 0.0
H1181 H 0.88468 0.19724 0.93538 0.0
H1182 H 0.88977 0.14484 0.89991 0.0
H1183 H 0.91124 0.15947 0.90218 0.0
H1184 H 0.89948 0.16063 0.8849 0.0
H1185 H 0.85894 0.1872 0.92172 0.0
H1186 H 0.85011 0.1652 0.92238 0.0
H1187 H 0.85456 0.17519 0.90267 0.0
H1188 H 0.93089 0.2187 0.79284 0.0
H1189 H 0.91303 0.18929 0.79945 0.0
H1190 H 0.8784 0.20643 0.79836 0.0
H1191 H 0.8963 0.1612 0.83089 0.0
H1192 H 0.908 0.16491 0.81232 0.0
H1193 H 0.88672 0.14941 0.8123 0.0
H1194 H 0.85371 0.1931 0.81267 0.0
H1195 H 0.85334 0.18083 0.83009 0.0
H1196 H 0.84487 0.1711 0.8103 0.0
H1197 H 0.77324 0.07519 0.79629 0.0
H1198 H 0.7575 0.04476 0.80005 0.0
H1199 H 0.77583 0.05547 0.81272 0.0
H1200 H 0.77558 0.04369 0.79488 0.0
H1201 H 0.8216 0.0792 0.79705 0.0
H1202 H 0.79132 0.10148 0.79509 0.0
H1203 H 0.848 0.10295 0.82846 0.0
H1204 H 0.85778 0.11491 0.81065 0.0
H1205 H 0.84803 0.09274 0.80932 0.0
H1206 H 0.79845 0.12659 0.80845 0.0
H1207 H 0.82005 0.14067 0.80749 0.0
H1208 H 0.81145 0.13111 0.82675 0.0
H1209 H 0.85544 0.13922 0.91754 0.0
H1210 H 0.88599 0.18019 0.87728 0.0
H1211 H 0.88503 0.1816 0.84751 0.0
H1212 H 0.85193 0.14442 0.80332 0.0
H1213 H 0.81966 0.10458 0.84385 0.0
H1214 H 0.8203 0.10341 0.87364 0.0
H1215 H 0.93891 0.23983 0.77448 0.0
H1216 H 0.9199 0.23499 0.76956 0.0
H1217 H 0.92833 0.21448 0.74709 0.0
C1218 C 0.79836 0.71644 0.95691 0.0
C1219 C 0.78632 0.70952 0.94201 0.0
C1220 C 0.80269 0.70402 0.92202 0.0
C1221 C 0.8137 0.72053 0.91845 0.0
C1222 C 0.82734 0.72464 0.90872 0.0
C1223 C 0.82994 0.71201 0.90229 0.0
C1224 C 0.81862 0.69537 0.90541 0.0
C1225 C 0.80512 0.69162 0.91522 0.0
C1226 C 0.83916 0.7425 0.90553 0.0
C1227 C 0.82096 0.6816 0.89861 0.0
C1228 C 0.94716 0.74947 0.94401 0.0
C1229 C 0.93331 0.73169 0.94563 0.0
C1230 C 0.91327 0.72437 0.92259 0.0
C1231 C 0.90459 0.71177 0.9109 0.0
C1232 C 0.89103 0.71056 0.90222 0.0
C1233 C 0.88672 0.72296 0.90455 0.0
C1234 C 0.89544 0.73577 0.91647 0.0
C1235 C 0.90844 0.73613 0.92564 0.0
C1236 C 0.88149 0.69604 0.8905 0.0
C1237 C 0.89126 0.74922 0.91936 0.0
C1238 C 0.92136 0.7406 0.80034 0.0
C1239 C 0.90982 0.72437 0.80419 0.0
C1240 C 0.89519 0.72086 0.81175 0.0
C1241 C 0.89202 0.73384 0.81546 0.0
C1242 C 0.90331 0.75009 0.81096 0.0
C1243 C 0.9178 0.75323 0.80331 0.0
C1244 C 0.88323 0.70332 0.81601 0.0
C1245 C 0.90023 0.76416 0.8146 0.0
C1246 C 0.77344 0.71172 0.80184 0.0
C1247 C 0.78165 0.71381 0.78504 0.0
C1248 C 0.80539 0.71114 0.79379 0.0
C1249 C 0.81075 0.69971 0.79548 0.0
C1250 C 0.82489 0.7035 0.80482 0.0
C1251 C 0.83409 0.71929 0.81235 0.0
C1252 C 0.82911 0.73118 0.81015 0.0
C1253 C 0.81471 0.72694 0.80101 0.0
C1254 C 0.82985 0.69052 0.80686 0.0
C1255 C 0.83888 0.74827 0.81767 0.0
C1256 C 0.84493 0.71627 0.89302 0.0
C1257 C 0.85851 0.71813 0.90211 0.0
C1258 C 0.87322 0.72255 0.89437 0.0
C1259 C 0.87455 0.72549 0.87708 0.0
C1260 C 0.88937 0.73077 0.869 0.0
C1261 C 0.8903 0.73257 0.85183 0.0
C1262 C 0.87648 0.72934 0.84208 0.0
C1263 C 0.87713 0.73042 0.82454 0.0
C1264 C 0.86324 0.72742 0.81526 0.0
C1265 C 0.84856 0.72312 0.82301 0.0
C1266 C 0.84761 0.72175 0.84052 0.0
C1267 C 0.83297 0.71719 0.84871 0.0
C1268 C 0.83211 0.71563 0.86593 0.0
C1269 C 0.84578 0.7183 0.87558 0.0
C1270 C 0.86067 0.72295 0.8676 0.0
C1271 C 0.86162 0.7248 0.85007 0.0
C1272 C 0.96218 0.74869 0.80173 0.0
C1273 C 0.94463 0.73627 0.79641 0.0
O1274 O 0.78976 0.69946 0.93208 0.0
O1275 O 0.79115 0.70628 0.78521 0.0
O1276 O 0.936 0.74454 0.79381 0.0
O1277 O 0.92654 0.72499 0.93014 0.0
H1278 H 0.78708 0.71983 0.93454 0.0
H1279 H 0.81098 0.72428 0.95269 0.0
H1280 H 0.79799 0.70629 0.96433 0.0
H1281 H 0.79528 0.72414 0.96505 0.0
H1282 H 0.81188 0.7303 0.92335 0.0
H1283 H 0.79651 0.67892 0.9179 0.0
H1284 H 0.85138 0.74576 0.91075 0.0
H1285 H 0.83528 0.75089 0.91114 0.0
H1286 H 0.84039 0.74455 0.89192 0.0
H1287 H 0.81065 0.66928 0.90149 0.0
H1288 H 0.83237 0.68267 0.90398 0.0
H1289 H 0.82225 0.68261 0.8849 0.0
H1290 H 0.92387 0.73163 0.95382 0.0
H1291 H 0.95295 0.75457 0.95641 0.0
H1292 H 0.94249 0.75739 0.93898 0.0
H1293 H 0.95659 0.75009 0.93549 0.0
H1294 H 0.90835 0.70268 0.90875 0.0
H1295 H 0.91499 0.74587 0.93478 0.0
H1296 H 0.88554 0.6997 0.8776 0.0
H1297 H 0.86823 0.69174 0.89084 0.0
H1298 H 0.88346 0.68558 0.8936 0.0
H1299 H 0.90077 0.7596 0.927 0.0
H1300 H 0.87957 0.74413 0.92594 0.0
H1301 H 0.88968 0.75406 0.90731 0.0
H1302 H 0.93961 0.72771 0.807 0.0
H1303 H 0.91218 0.71441 0.80129 0.0
H1304 H 0.92667 0.76567 0.80006 0.0
H1305 H 0.8822 0.70221 0.82973 0.0
H1306 H 0.88693 0.69449 0.81125 0.0
H1307 H 0.87097 0.69983 0.81075 0.0
H1308 H 0.91026 0.77613 0.8104 0.0
H1309 H 0.89877 0.76505 0.82819 0.0
H1310 H 0.88869 0.76181 0.8083 0.0
H1311 H 0.78936 0.72712 0.78247 0.0
H1312 H 0.76568 0.71759 0.80169 0.0
H1313 H 0.78273 0.71766 0.81201 0.0
H1314 H 0.76577 0.69846 0.80461 0.0
H1315 H 0.80354 0.68761 0.78975 0.0
H1316 H 0.81088 0.73603 0.79965 0.0
H1317 H 0.83145 0.68878 0.82027 0.0
H1318 H 0.84174 0.69463 0.8009 0.0
H1319 H 0.82076 0.67849 0.80117 0.0
H1320 H 0.83442 0.75663 0.81329 0.0
H1321 H 0.85191 0.75363 0.81453 0.0
H1322 H 0.83812 0.74762 0.83143 0.0
H1323 H 0.85756 0.71592 0.91538 0.0
H1324 H 0.9004 0.73341 0.87584 0.0
H1325 H 0.90198 0.73643 0.84628 0.0
H1326 H 0.86379 0.72814 0.8018 0.0
H1327 H 0.82197 0.71473 0.84191 0.0
H1328 H 0.82052 0.71207 0.87155 0.0
H1329 H 0.96942 0.74237 0.80354 0.0
H1330 H 0.96222 0.75474 0.81371 0.0
H1331 H 0.96808 0.75838 0.7923 0.0
C1332 C 0.88183 0.60169 0.41601 0.0
C1333 C 0.88352 0.61757 0.40863 0.0
C1334 C 0.8685 0.6261 0.42743 0.0
C1335 C 0.87021 0.63888 0.4379 0.0
C1336 C 0.8567 0.63839 0.44543 0.0
C1337 C 0.84112 0.62431 0.44306 0.0
C1338 C 0.83924 0.61137 0.4323 0.0
C1339 C 0.85289 0.61255 0.42433 0.0
C1340 C 0.8592 0.65294 0.456 0.0
C1341 C 0.82284 0.59618 0.42937 0.0
C1342 C 0.73328 0.63203 0.39887 0.0
C1343 C 0.74267 0.62424 0.40499 0.0
C1344 C 0.76863 0.63258 0.41964 0.0
C1345 C 0.76507 0.61659 0.42385 0.0
C1346 C 0.77598 0.61406 0.43379 0.0
C1347 C 0.7906 0.62778 0.43981 0.0
C1348 C 0.79419 0.64386 0.4356 0.0
C1349 C 0.78317 0.64602 0.42546 0.0
C1350 C 0.77194 0.59673 0.43784 0.0
C1351 C 0.80964 0.65876 0.44186 0.0
C1352 C 0.76 0.62399 0.54666 0.0
C1353 C 0.75714 0.6083 0.54164 0.0
C1354 C 0.76905 0.60646 0.53313 0.0
C1355 C 0.78406 0.62054 0.52959 0.0
C1356 C 0.78699 0.6363 0.53475 0.0
C1357 C 0.77491 0.63778 0.54321 0.0
C1358 C 0.76557 0.5895 0.52777 0.0
C1359 C 0.80287 0.65158 0.53122 0.0
C1360 C 0.89584 0.61487 0.53992 0.0
C1361 C 0.88907 0.62357 0.55076 0.0
C1362 C 0.85992 0.61383 0.5477 0.0
C1363 C 0.84567 0.59932 0.54326 0.0
C1364 C 0.83247 0.59978 0.53546 0.0
C1365 C 0.83361 0.61516 0.53221 0.0
C1366 C 0.84758 0.62985 0.53772 0.0
C1367 C 0.86054 0.62902 0.54556 0.0
C1368 C 0.8176 0.5839 0.53007 0.0
C1369 C 0.849 0.64644 0.53487 0.0
C1370 C 0.82687 0.62314 0.45189 0.0
C1371 C 0.81541 0.62535 0.44272 0.0
C1372 C 0.80222 0.62531 0.4504 0.0
C1373 C 0.8005 0.62333 0.46781 0.0
C1374 C 0.78772 0.62385 0.47603 0.0
C1375 C 0.78634 0.62224 0.49321 0.0
C1376 C 0.79769 0.62005 0.50285 0.0
C1377 C 0.79668 0.61886 0.52038 0.0
C1378 C 0.80828 0.61686 0.52958 0.0
C1379 C 0.82096 0.61604 0.52174 0.0
C1380 C 0.82209 0.61706 0.50422 0.0
C1381 C 0.83464 0.61614 0.49594 0.0
C1382 C 0.836 0.61773 0.47878 0.0
C1383 C 0.82504 0.62057 0.46923 0.0
C1384 C 0.81196 0.62096 0.47725 0.0
C1385 C 0.81051 0.61923 0.49477 0.0
C1386 C 0.72157 0.61008 0.54387 0.0
C1387 C 0.73317 0.61499 0.55907 0.0
O1388 O 0.88225 0.62733 0.42092 0.0
O1389 O 0.87284 0.61274 0.55388 0.0
O1390 O 0.74884 0.62652 0.55472 0.0
O1391 O 0.75844 0.63559 0.41005 0.0
H1392 H 0.87376 0.61425 0.39894 0.0
H1393 H 0.86951 0.59393 0.42097 0.0
H1394 H 0.89082 0.60449 0.42636 0.0
H1395 H 0.88376 0.59439 0.40623 0.0
H1396 H 0.88225 0.64938 0.44007 0.0
H1397 H 0.85124 0.60271 0.41596 0.0
H1398 H 0.84908 0.65562 0.45394 0.0
H1399 H 0.87089 0.66417 0.45331 0.0
H1400 H 0.85949 0.65012 0.46934 0.0
H1401 H 0.82382 0.58628 0.42265 0.0
H1402 H 0.81488 0.5994 0.42185 0.0
H1403 H 0.81684 0.59136 0.44139 0.0
H1404 H 0.74165 0.61381 0.39724 0.0
H1405 H 0.71416 0.6256 0.41794 0.0
H1406 H 0.73032 0.62799 0.38538 0.0
H1407 H 0.74231 0.64524 0.39596 0.0
H1408 H 0.75387 0.60607 0.41934 0.0
H1409 H 0.7858 0.65829 0.42214 0.0
H1410 H 0.78209 0.59466 0.43419 0.0
H1411 H 0.76055 0.58735 0.43142 0.0
H1412 H 0.77052 0.59497 0.45147 0.0
H1413 H 0.81015 0.67047 0.4383 0.0
H1414 H 0.82034 0.6585 0.4367 0.0
H1415 H 0.81062 0.65852 0.45563 0.0
H1416 H 0.73313 0.6039 0.56405 0.0
H1417 H 0.7457 0.59746 0.5442 0.0
H1418 H 0.77701 0.64982 0.54714 0.0
H1419 H 0.76639 0.58895 0.51404 0.0
H1420 H 0.75332 0.57975 0.53148 0.0
H1421 H 0.7749 0.58692 0.53337 0.0
H1422 H 0.80329 0.66293 0.53614 0.0
H1423 H 0.8047 0.65273 0.51758 0.0
H1424 H 0.81315 0.65059 0.5369 0.0
H1425 H 0.89051 0.63417 0.54332 0.0
H1426 H 0.9091 0.623 0.53815 0.0
H1427 H 0.8896 0.61187 0.52749 0.0
H1428 H 0.89375 0.60319 0.54553 0.0
H1429 H 0.84516 0.58764 0.54533 0.0
H1430 H 0.87117 0.64026 0.54986 0.0
H1431 H 0.81669 0.58308 0.51627 0.0
H1432 H 0.80644 0.58367 0.53459 0.0
H1433 H 0.81798 0.57295 0.53478 0.0
H1434 H 0.86049 0.65669 0.54027 0.0
H1435 H 0.83854 0.64685 0.54047 0.0
H1436 H 0.84853 0.64838 0.5213 0.0
H1437 H 0.81688 0.62734 0.42943 0.0
H1438 H 0.77871 0.62564 0.46928 0.0
H1439 H 0.77632 0.62284 0.49886 0.0
H1440 H 0.80762 0.61628 0.54304 0.0
H1441 H 0.84361 0.61424 0.50263 0.0
H1442 H 0.84588 0.61687 0.47311 0.0
H1443 H 0.70899 0.60096 0.54739 0.0
H1444 H 0.72537 0.6044 0.534 0.0
H1445 H 0.72153 0.62104 0.53867 0.0
C1446 C 0.40306 0.26817 0.38802 0.0
C1447 C 0.38927 0.26087 0.40046 0.0
C1448 C 0.39188 0.25039 0.42725 0.0
C1449 C 0.37575 0.23769 0.42881 0.0
C1450 C 0.37204 0.22451 0.43944 0.0
C1451 C 0.38476 0.22398 0.44853 0.0
C1452 C 0.40097 0.23704 0.44729 0.0
C1453 C 0.40426 0.25024 0.43687 0.0
C1454 C 0.35457 0.21104 0.44078 0.0
C1455 C 0.41489 0.23683 0.45661 0.0
C1456 C 0.38067 0.13803 0.39342 0.0
C1457 C 0.37901 0.1267 0.40798 0.0
C1458 C 0.37091 0.14007 0.42945 0.0
C1459 C 0.38651 0.15346 0.43304 0.0
C1460 C 0.38851 0.16681 0.44295 0.0
C1461 C 0.37465 0.16691 0.44922 0.0
C1462 C 0.35894 0.15339 0.44574 0.0
C1463 C 0.35733 0.14003 0.43613 0.0
C1464 C 0.40547 0.18091 0.44656 0.0
C1465 C 0.34382 0.15316 0.45193 0.0
C1466 C 0.36279 0.13814 0.5564 0.0
C1467 C 0.37892 0.14982 0.55269 0.0
C1468 C 0.38235 0.16422 0.54424 0.0
C1469 C 0.36941 0.16687 0.53919 0.0
C1470 C 0.3532 0.15521 0.54303 0.0
C1471 C 0.35014 0.14103 0.55168 0.0
C1472 C 0.39979 0.17651 0.54048 0.0
C1473 C 0.33912 0.15765 0.53781 0.0
C1474 C 0.38411 0.28909 0.54587 0.0
C1475 C 0.37453 0.27408 0.55676 0.0
C1476 C 0.38191 0.25251 0.5538 0.0
C1477 C 0.3957 0.25114 0.5507 0.0
C1478 C 0.39433 0.23695 0.54304 0.0
C1479 C 0.37873 0.2238 0.53848 0.0
C1480 C 0.36466 0.22475 0.54242 0.0
C1481 C 0.36639 0.23904 0.5502 0.0
C1482 C 0.40956 0.23616 0.53941 0.0
C1483 C 0.34782 0.21076 0.53813 0.0
C1484 C 0.38122 0.20941 0.45865 0.0
C1485 C 0.37936 0.19537 0.45033 0.0
C1486 C 0.37657 0.18135 0.45901 0.0
C1487 C 0.37574 0.18132 0.47656 0.0
C1488 C 0.37335 0.1676 0.48573 0.0
C1489 C 0.37228 0.16758 0.50297 0.0
C1490 C 0.3738 0.18138 0.51174 0.0
C1491 C 0.37272 0.18147 0.52926 0.0
C1492 C 0.37449 0.19546 0.53763 0.0
C1493 C 0.37713 0.20941 0.52891 0.0
C1494 C 0.37803 0.20948 0.51135 0.0
C1495 C 0.3804 0.2232 0.50216 0.0
C1496 C 0.38135 0.22318 0.4849 0.0
C1497 C 0.38002 0.20947 0.47616 0.0
C1498 C 0.37739 0.1954 0.48515 0.0
C1499 C 0.37643 0.19543 0.50276 0.0
C1500 C 0.3629 0.10513 0.58129 0.0
C1501 C 0.36975 0.11875 0.56936 0.0
O1502 O 0.39588 0.26279 0.41641 0.0
O1503 O 0.38403 0.26691 0.56036 0.0
O1504 O 0.35893 0.124 0.56446 0.0
O1505 O 0.36834 0.12718 0.41935 0.0
H1506 H 0.38183 0.24756 0.39697 0.0
H1507 H 0.40997 0.2614 0.3885 0.0
H1508 H 0.41164 0.28135 0.39098 0.0
H1509 H 0.39803 0.26701 0.37517 0.0
H1510 H 0.36608 0.23806 0.42173 0.0
H1511 H 0.41664 0.26022 0.43568 0.0
H1512 H 0.35307 0.19955 0.43494 0.0
H1513 H 0.34593 0.21423 0.43453 0.0
H1514 H 0.35134 0.20851 0.45406 0.0
H1515 H 0.42692 0.24721 0.45321 0.0
H1516 H 0.41478 0.22508 0.45403 0.0
H1517 H 0.41342 0.23763 0.4702 0.0
H1518 H 0.39115 0.13097 0.41401 0.0
H1519 H 0.39116 0.14035 0.38564 0.0
H1520 H 0.383 0.15023 0.39808 0.0
H1521 H 0.36931 0.13252 0.38561 0.0
H1522 H 0.3972 0.15368 0.42812 0.0
H1523 H 0.34535 0.12965 0.43335 0.0
H1524 H 0.40712 0.19196 0.43988 0.0
H1525 H 0.41504 0.17808 0.44258 0.0
H1526 H 0.4072 0.18402 0.46008 0.0
H1527 H 0.33249 0.1427 0.4465 0.0
H1528 H 0.34404 0.16483 0.44885 0.0
H1529 H 0.34346 0.15211 0.46567 0.0
H1530 H 0.3767 0.11743 0.55896 0.0
H1531 H 0.38887 0.14778 0.5563 0.0
H1532 H 0.33776 0.13199 0.55464 0.0
H1533 H 0.4014 0.17712 0.52681 0.0
H1534 H 0.40857 0.17327 0.54631 0.0
H1535 H 0.40272 0.18896 0.545 0.0
H1536 H 0.32719 0.14724 0.54141 0.0
H1537 H 0.33901 0.15902 0.52411 0.0
H1538 H 0.34063 0.16915 0.54364 0.0
H1539 H 0.36349 0.2657 0.54917 0.0
H1540 H 0.37727 0.29583 0.54402 0.0
H1541 H 0.38593 0.28498 0.53348 0.0
H1542 H 0.39631 0.29758 0.55147 0.0
H1543 H 0.40761 0.26145 0.55388 0.0
H1544 H 0.35559 0.23959 0.55347 0.0
H1545 H 0.41095 0.23595 0.52573 0.0
H1546 H 0.40854 0.22463 0.54434 0.0
H1547 H 0.42068 0.24682 0.54492 0.0
H1548 H 0.33811 0.21353 0.54173 0.0
H1549 H 0.34588 0.19951 0.54458 0.0
H1550 H 0.34667 0.20805 0.52454 0.0
H1551 H 0.38018 0.19538 0.43688 0.0
H1552 H 0.37222 0.15667 0.47968 0.0
H1553 H 0.37029 0.1566 0.50932 0.0
H1554 H 0.37368 0.19544 0.55108 0.0
H1555 H 0.38154 0.23414 0.5082 0.0
H1556 H 0.38315 0.23408 0.47849 0.0
H1557 H 0.37743 0.11654 0.6048 0.0
H1558 H 0.36307 0.09446 0.57478 0.0
H1559 H 0.34921 0.09945 0.58035 0.0
C1560 C 0.86333 0.25707 0.38248 0.0
C1561 C 0.87513 0.25826 0.3965 0.0
C1562 C 0.85862 0.23289 0.4121 0.0
C1563 C 0.84797 0.2377 0.41902 0.0
C1564 C 0.83495 0.22684 0.42878 0.0
C1565 C 0.8326 0.21094 0.43182 0.0
C1566 C 0.8435 0.20621 0.42522 0.0
C1567 C 0.85635 0.21726 0.41542 0.0
C1568 C 0.82355 0.23227 0.43569 0.0
C1569 C 0.84145 0.1894 0.42835 0.0
C1570 C 0.72732 0.13422 0.37005 0.0
C1571 C 0.73637 0.13022 0.38358 0.0
C1572 C 0.74849 0.14608 0.40918 0.0
C1573 C 0.76101 0.14223 0.41147 0.0
C1574 C 0.77449 0.15195 0.42199 0.0
C1575 C 0.77555 0.1659 0.43025 0.0
C1576 C 0.76278 0.16961 0.42821 0.0
C1577 C 0.74926 0.15944 0.4179 0.0
C1578 C 0.7877 0.14742 0.42415 0.0
C1579 C 0.76357 0.18447 0.43666 0.0
C1580 C 0.74836 0.13833 0.53503 0.0
C1581 C 0.76046 0.13434 0.53113 0.0
C1582 C 0.77492 0.14589 0.5237 0.0
C1583 C 0.77738 0.16177 0.5203 0.0
C1584 C 0.7656 0.16609 0.52506 0.0
C1585 C 0.75126 0.15431 0.53246 0.0
C1586 C 0.78743 0.14103 0.51912 0.0
C1587 C 0.76797 0.18302 0.52188 0.0
C1588 C 0.89324 0.26375 0.53825 0.0
C1589 C 0.88458 0.25356 0.55341 0.0
C1590 C 0.86341 0.22736 0.54072 0.0
C1591 C 0.85946 0.21119 0.53688 0.0
C1592 C 0.84535 0.20068 0.5275 0.0
C1593 C 0.83479 0.20647 0.52201 0.0
C1594 C 0.83849 0.22271 0.52614 0.0
C1595 C 0.85283 0.23306 0.5353 0.0
C1596 C 0.8418 0.18343 0.52332 0.0
C1597 C 0.82732 0.22917 0.52076 0.0
C1598 C 0.81841 0.19904 0.44141 0.0
C1599 C 0.80408 0.18844 0.43252 0.0
C1600 C 0.79023 0.17684 0.44063 0.0
C1601 C 0.79057 0.1758 0.45816 0.0
C1602 C 0.77689 0.16422 0.46671 0.0
C1603 C 0.77726 0.16346 0.48398 0.0
C1604 C 0.79136 0.17416 0.49336 0.0
C1605 C 0.7918 0.17354 0.51093 0.0
C1606 C 0.80605 0.18424 0.51988 0.0
C1607 C 0.82002 0.1956 0.51173 0.0
C1608 C 0.81981 0.19644 0.49416 0.0
C1609 C 0.83365 0.20767 0.48555 0.0
C1610 C 0.83324 0.20856 0.46828 0.0
C1611 C 0.819 0.19817 0.45895 0.0
C1612 C 0.80498 0.18657 0.46735 0.0
C1613 C 0.80538 0.18573 0.48497 0.0
C1614 C 0.70839 0.10455 0.53238 0.0
C1615 C 0.72583 0.11029 0.53856 0.0
O1616 O 0.87105 0.24271 0.40205 0.0
O1617 O 0.8775 0.23691 0.54955 0.0
O1618 O 0.73379 0.12719 0.54124 0.0
O1619 O 0.73564 0.13727 0.39855 0.0
H1620 H 0.8746 0.26583 0.40698 0.0
H1621 H 0.86691 0.26952 0.37777 0.0
H1622 H 0.86332 0.24922 0.37201 0.0
H1623 H 0.85073 0.25164 0.38704 0.0
H1624 H 0.84957 0.24979 0.41677 0.0
H1625 H 0.86464 0.21367 0.41013 0.0
H1626 H 0.81093 0.22386 0.43102 0.0
H1627 H 0.82701 0.24504 0.43223 0.0
H1628 H 0.82352 0.23153 0.44947 0.0
H1629 H 0.85144 0.18791 0.42307 0.0
H1630 H 0.82969 0.17984 0.42273 0.0
H1631 H 0.84105 0.18725 0.44195 0.0
H1632 H 0.74923 0.13588 0.37951 0.0
H1633 H 0.72754 0.12847 0.35797 0.0
H1634 H 0.73336 0.14776 0.36848 0.0
H1635 H 0.71446 0.12978 0.3734 0.0
H1636 H 0.76023 0.13161 0.4051 0.0
H1637 H 0.73946 0.16221 0.41615 0.0
H1638 H 0.79055 0.14722 0.43759 0.0
H1639 H 0.79897 0.15686 0.41828 0.0
H1640 H 0.78421 0.13524 0.41841 0.0
H1641 H 0.75326 0.18636 0.43276 0.0
H1642 H 0.77519 0.19568 0.43378 0.0
H1643 H 0.7633 0.18299 0.45035 0.0
H1644 H 0.73161 0.10689 0.52847 0.0
H1645 H 0.75867 0.12223 0.53381 0.0
H1646 H 0.74198 0.15736 0.53582 0.0
H1647 H 0.78902 0.14179 0.50544 0.0
H1648 H 0.78393 0.12835 0.523 0.0
H1649 H 0.79938 0.14975 0.52507 0.0
H1650 H 0.75807 0.18472 0.5271 0.0
H1651 H 0.76835 0.18505 0.50827 0.0
H1652 H 0.77981 0.19252 0.52743 0.0
H1653 H 0.87506 0.25652 0.55734 0.0
H1654 H 0.89899 0.2771 0.54135 0.0
H1655 H 0.88439 0.26099 0.52777 0.0
H1656 H 0.90278 0.26093 0.53411 0.0
H1657 H 0.86763 0.20687 0.54112 0.0
H1658 H 0.85561 0.24552 0.53808 0.0
H1659 H 0.83998 0.18117 0.50966 0.0
H1660 H 0.83034 0.17444 0.52926 0.0
H1661 H 0.85174 0.18115 0.52762 0.0
H1662 H 0.83106 0.24149 0.52631 0.0
H1663 H 0.81463 0.22051 0.52435 0.0
H1664 H 0.82734 0.23011 0.507 0.0
H1665 H 0.80372 0.18919 0.41906 0.0
H1666 H 0.76572 0.15565 0.46016 0.0
H1667 H 0.76632 0.15436 0.48987 0.0
H1668 H 0.80628 0.1837 0.53336 0.0
H1669 H 0.84496 0.21596 0.49206 0.0
H1670 H 0.84423 0.2175 0.46233 0.0
H1671 H 0.70169 0.09099 0.53032 0.0
H1672 H 0.70861 0.11046 0.52038 0.0
H1673 H 0.70175 0.10792 0.54148 0.0
C1674 C 0.97876 0.43345 0.28998 0.0
C1675 C 0.98268 0.42707 0.27404 0.0
C1676 C 0.99238 0.45106 0.25581 0.0
C1677 C 0.97708 0.44975 0.2526 0.0
C1678 C 0.97566 0.46145 0.24295 0.0
C1679 C 0.98978 0.4747 0.23634 0.0
C1680 C 0.00518 0.47608 0.23953 0.0
C1681 C 0.00626 0.46418 0.24919 0.0
C1682 C 0.95904 0.45964 0.23976 0.0
C1683 C 0.02047 0.49006 0.23267 0.0
C1684 C 0.9868 0.58835 0.26989 0.0
C1685 C 0.98034 0.57254 0.2606 0.0
C1686 C 0.99058 0.55549 0.24811 0.0
C1687 C 0.00433 0.55544 0.24207 0.0
C1688 C 0.00322 0.54121 0.23481 0.0
C1689 C 0.98794 0.52664 0.23365 0.0
C1690 C 0.974 0.52645 0.24013 0.0
C1691 C 0.97544 0.54091 0.24725 0.0
C1692 C 0.01834 0.54184 0.22807 0.0
C1693 C 0.95757 0.51106 0.2392 0.0
C1694 C 0.95795 0.53357 0.13223 0.0
C1695 C 0.97458 0.53842 0.13355 0.0
C1696 C 0.97967 0.52777 0.14013 0.0
C1697 C 0.96788 0.51208 0.14561 0.0
C1698 C 0.95111 0.50681 0.14329 0.0
C1699 C 0.94637 0.51761 0.13641 0.0
C1700 C 0.99764 0.53353 0.14184 0.0
C1701 C 0.93819 0.49006 0.14873 0.0
C1702 C 0.97136 0.40249 0.13836 0.0
C1703 C 0.97243 0.41097 0.12182 0.0
C1704 C 0.98113 0.43956 0.13073 0.0
C1705 C 0.9945 0.45544 0.13191 0.0
C1706 C 0.99338 0.46827 0.13982 0.0
C1707 C 0.97842 0.46511 0.14663 0.0
C1708 C 0.96469 0.44916 0.14513 0.0
C1709 C 0.96618 0.43651 0.13725 0.0
C1710 C 0.00826 0.48513 0.1412 0.0
C1711 C 0.94853 0.44544 0.15216 0.0
C1712 C 0.9883 0.48692 0.22587 0.0
C1713 C 0.98883 0.50058 0.23377 0.0
C1714 C 0.98642 0.51196 0.22474 0.0
C1715 C 0.98303 0.50951 0.20742 0.0
C1716 C 0.97973 0.52025 0.19812 0.0
C1717 C 0.97622 0.51765 0.18114 0.0
C1718 C 0.97637 0.50449 0.17265 0.0
C1719 C 0.97297 0.50185 0.15533 0.0
C1720 C 0.9737 0.48894 0.1472 0.0
C1721 C 0.9774 0.47831 0.15602 0.0
C1722 C 0.98024 0.4804 0.17345 0.0
C1723 C 0.98339 0.46956 0.18279 0.0
C1724 C 0.9859 0.47158 0.19996 0.0
C1725 C 0.98575 0.48474 0.20842 0.0
C1726 C 0.98291 0.49598 0.1992 0.0
C1727 C 0.97987 0.49364 0.18175 0.0
C1728 C 0.94775 0.56391 0.14049 0.0
C1729 C 0.96002 0.5606 0.13149 0.0
O1730 O 0.99439 0.44011 0.2652 0.0
O1731 O 0.98337 0.42768 0.12336 0.0
O1732 O 0.9527 0.54402 0.12718 0.0
O1733 O 0.99249 0.56984 0.25454 0.0
H1734 H 0.97142 0.42014 0.2662 0.0
H1735 H 0.97379 0.4417 0.28695 0.0
H1736 H 0.98992 0.44045 0.29793 0.0
H1737 H 0.96949 0.42301 0.29715 0.0
H1738 H 0.96617 0.4397 0.25755 0.0
H1739 H 0.018 0.46511 0.2517 0.0
H1740 H 0.95887 0.47073 0.24455 0.0
H1741 H 0.94921 0.44862 0.24575 0.0
H1742 H 0.95639 0.45869 0.22616 0.0
H1743 H 0.03158 0.4896 0.23658 0.0
H1744 H 0.02176 0.50199 0.23692 0.0
H1745 H 0.01958 0.48966 0.21887 0.0
H1746 H 0.97016 0.56959 0.25152 0.0
H1747 H 0.97959 0.58076 0.29612 0.0
H1748 H 0.9824 0.59569 0.2625 0.0
H1749 H 0.99997 0.59628 0.26645 0.0
H1750 H 0.01595 0.56672 0.24287 0.0
H1751 H 0.9647 0.54076 0.25199 0.0
H1752 H 0.01672 0.53925 0.21445 0.0
H1753 H 0.02026 0.53218 0.23389 0.0
H1754 H 0.0294 0.55399 0.23038 0.0
H1755 H 0.94806 0.51265 0.24555 0.0
H1756 H 0.95838 0.50073 0.24498 0.0
H1757 H 0.95374 0.50757 0.22597 0.0
H1758 H 0.97035 0.5641 0.14053 0.0
H1759 H 0.98357 0.55057 0.12964 0.0
H1760 H 0.93357 0.51389 0.13499 0.0
H1761 H 0.00145 0.53597 0.15518 0.0
H1762 H 0.00512 0.54496 0.13486 0.0
H1763 H 0.0002 0.5238 0.13728 0.0
H1764 H 0.92567 0.48782 0.14601 0.0
H1765 H 0.93958 0.48886 0.16232 0.0
H1766 H 0.93975 0.48038 0.14231 0.0
H1767 H 0.96018 0.40899 0.11808 0.0
H1768 H 0.96279 0.38905 0.13703 0.0
H1769 H 0.9668 0.40746 0.14822 0.0
H1770 H 0.98353 0.4045 0.14241 0.0
H1771 H 0.00595 0.4577 0.1268 0.0
H1772 H 0.95566 0.42432 0.1364 0.0
H1773 H 0.01144 0.48875 0.15452 0.0
H1774 H 0.0056 0.49431 0.13539 0.0
H1775 H 0.01896 0.48563 0.13511 0.0
H1776 H 0.93875 0.43269 0.14912 0.0
H1777 H 0.94481 0.45419 0.14724 0.0
H1778 H 0.94977 0.44712 0.1659 0.0
H1779 H 0.99108 0.50234 0.24712 0.0
H1780 H 0.97961 0.53069 0.2039 0.0
H1781 H 0.97355 0.52622 0.17474 0.0
H1782 H 0.97126 0.48709 0.13389 0.0
H1783 H 0.98379 0.45929 0.17696 0.0
H1784 H 0.9881 0.46276 0.20651 0.0
H1785 H 0.9533 0.5772 0.14382 0.0
H1786 H 0.94407 0.55679 0.15213 0.0
H1787 H 0.93664 0.56016 0.13259 0.0
C1788 C 0.47145 0.40477 0.29235 0.0
C1789 C 0.46195 0.41288 0.28548 0.0
C1790 C 0.47241 0.42474 0.25897 0.0
C1791 C 0.46949 0.43753 0.25471 0.0
C1792 C 0.48062 0.45063 0.24512 0.0
C1793 C 0.49499 0.4509 0.23987 0.0
C1794 C 0.49791 0.4379 0.24419 0.0
C1795 C 0.48644 0.42484 0.25358 0.0
C1796 C 0.47703 0.46417 0.24058 0.0
C1797 C 0.51314 0.43783 0.23891 0.0
C1798 C 0.60364 0.57136 0.27409 0.0
C1799 C 0.59446 0.55593 0.2642 0.0
C1800 C 0.56652 0.536 0.25562 0.0
C1801 C 0.57011 0.52378 0.25031 0.0
C1802 C 0.55817 0.50934 0.24225 0.0
C1803 C 0.54239 0.50716 0.23926 0.0
C1804 C 0.53865 0.51926 0.24492 0.0
C1805 C 0.55077 0.53348 0.25314 0.0
C1806 C 0.56246 0.49651 0.2367 0.0
C1807 C 0.52195 0.51729 0.24199 0.0
C1808 C 0.56252 0.53098 0.13021 0.0
C1809 C 0.56718 0.51971 0.13602 0.0
C1810 C 0.5565 0.50612 0.14535 0.0
C1811 C 0.54092 0.50381 0.14903 0.0
C1812 C 0.5362 0.51511 0.14317 0.0
C1813 C 0.54707 0.52854 0.13381 0.0
C1814 C 0.56187 0.49424 0.15136 0.0
C1815 C 0.51967 0.51302 0.14688 0.0
C1816 C 0.43868 0.37694 0.13846 0.0
C1817 C 0.44491 0.39365 0.13024 0.0
C1818 C 0.47279 0.41618 0.1348 0.0
C1819 C 0.48822 0.41884 0.13954 0.0
C1820 C 0.49982 0.43377 0.14709 0.0
C1821 C 0.49584 0.44634 0.14979 0.0
C1822 C 0.4806 0.44409 0.14411 0.0
C1823 C 0.46925 0.42905 0.13657 0.0
C1824 C 0.51612 0.43594 0.15266 0.0
C1825 C 0.47618 0.45744 0.1464 0.0
C1826 C 0.50694 0.46475 0.22983 0.0
C1827 C 0.5186 0.479 0.23825 0.0
C1828 C 0.53007 0.49257 0.22956 0.0
C1829 C 0.52989 0.49204 0.21196 0.0
C1830 C 0.54097 0.50563 0.20282 0.0
C1831 C 0.54085 0.50492 0.18552 0.0
C1832 C 0.52969 0.49057 0.17668 0.0
C1833 C 0.52958 0.48965 0.15909 0.0
C1834 C 0.51847 0.47512 0.1507 0.0
C1835 C 0.50724 0.46144 0.1594 0.0
C1836 C 0.50695 0.46221 0.17697 0.0
C1837 C 0.49555 0.44879 0.18609 0.0
C1838 C 0.49541 0.44964 0.20337 0.0
C1839 C 0.50679 0.46386 0.21224 0.0
C1840 C 0.51833 0.47756 0.20329 0.0
C1841 C 0.51832 0.47678 0.18563 0.0
C1842 C 0.59453 0.56131 0.10347 0.0
C1843 C 0.58814 0.54866 0.11645 0.0
O1844 O 0.46161 0.41221 0.26825 0.0
O1845 O 0.46165 0.40105 0.12871 0.0
O1846 O 0.57246 0.54425 0.12109 0.0
O1847 O 0.57787 0.55034 0.26305 0.0
H1848 H 0.46828 0.42596 0.28995 0.0
H1849 H 0.4843 0.41168 0.28842 0.0
H1850 H 0.466 0.39186 0.28767 0.0
H1851 H 0.47142 0.40484 0.30618 0.0
H1852 H 0.45849 0.43719 0.2589 0.0
H1853 H 0.48846 0.41476 0.25688 0.0
H1854 H 0.48655 0.476 0.24622 0.0
H1855 H 0.46494 0.46173 0.2449 0.0
H1856 H 0.4774 0.46561 0.22686 0.0
H1857 H 0.51403 0.42731 0.24408 0.0
H1858 H 0.52407 0.44947 0.24305 0.0
H1859 H 0.51325 0.43713 0.22512 0.0
H1860 H 0.59997 0.5554 0.25221 0.0
H1861 H 0.61251 0.56371 0.29649 0.0
H1862 H 0.5956 0.57712 0.27517 0.0
H1863 H 0.61211 0.58065 0.265 0.0
H1864 H 0.5822 0.52545 0.25237 0.0
H1865 H 0.54808 0.5429 0.25739 0.0
H1866 H 0.55323 0.48419 0.24102 0.0
H1867 H 0.57468 0.49923 0.24146 0.0
H1868 H 0.56237 0.49593 0.2229 0.0
H1869 H 0.52114 0.52809 0.24665 0.0
H1870 H 0.51275 0.50615 0.24834 0.0
H1871 H 0.51878 0.51553 0.22847 0.0
H1872 H 0.59666 0.55055 0.1271 0.0
H1873 H 0.57911 0.52142 0.13332 0.0
H1874 H 0.54357 0.53726 0.12925 0.0
H1875 H 0.56191 0.49407 0.16517 0.0
H1876 H 0.57422 0.4975 0.14712 0.0
H1877 H 0.55309 0.4816 0.14677 0.0
H1878 H 0.51794 0.52302 0.14165 0.0
H1879 H 0.5181 0.51279 0.16056 0.0
H1880 H 0.51001 0.50106 0.14162 0.0
H1881 H 0.44157 0.40084 0.13886 0.0
H1882 H 0.42516 0.37033 0.13886 0.0
H1883 H 0.44361 0.37882 0.15144 0.0
H1884 H 0.44266 0.36917 0.13172 0.0
H1885 H 0.49096 0.40896 0.13781 0.0
H1886 H 0.45763 0.42741 0.13217 0.0
H1887 H 0.5173 0.43716 0.16643 0.0
H1888 H 0.52608 0.44743 0.14751 0.0
H1889 H 0.51773 0.42543 0.14869 0.0
H1890 H 0.46396 0.45392 0.14097 0.0
H1891 H 0.48539 0.46888 0.14047 0.0
H1892 H 0.47631 0.46024 0.15988 0.0
H1893 H 0.51878 0.47953 0.25175 0.0
H1894 H 0.54988 0.51699 0.20893 0.0
H1895 H 0.54968 0.51575 0.17916 0.0
H1896 H 0.51853 0.47446 0.13722 0.0
H1897 H 0.48656 0.43747 0.17997 0.0
H1898 H 0.48633 0.43894 0.2097 0.0
H1899 H 0.60551 0.57224 0.10941 0.0
H1900 H 0.58673 0.56738 0.10343 0.0
H1901 H 0.59671 0.54788 0.08131 0.0
C1902 C 0.45784 0.0291 0.28821 0.0
C1903 C 0.44452 0.02054 0.27462 0.0
C1904 C 0.45841 0.01039 0.25622 0.0
C1905 C 0.46938 0.02568 0.24949 0.0
C1906 C 0.48225 0.02738 0.23966 0.0
C1907 C 0.48419 0.01355 0.23646 0.0
C1908 C 0.47289 0.99806 0.24275 0.0
C1909 C 0.46007 0.99667 0.25247 0.0
C1910 C 0.49397 0.04405 0.23295 0.0
C1911 C 0.47458 0.98305 0.23949 0.0
C1912 C 0.58874 0.0615 0.2992 0.0
C1913 C 0.5815 0.04539 0.28909 0.0
C1914 C 0.5697 0.04236 0.26133 0.0
C1915 C 0.55829 0.02551 0.261 0.0
C1916 C 0.54471 0.0191 0.25003 0.0
C1917 C 0.54239 0.02985 0.23944 0.0
C1918 C 0.55404 0.04685 0.23967 0.0
C1919 C 0.56778 0.05279 0.25035 0.0
C1920 C 0.53275 0.00088 0.24992 0.0
C1921 C 0.55183 0.05885 0.22898 0.0
C1922 C 0.57363 0.03239 0.13628 0.0
C1923 C 0.56315 0.01577 0.13984 0.0
C1924 C 0.54779 0.01071 0.14655 0.0
C1925 C 0.54282 0.02248 0.14966 0.0
C1926 C 0.55299 0.03905 0.14519 0.0
C1927 C 0.56823 0.04374 0.1384 0.0
C1928 C 0.53702 0.99287 0.15073 0.0
C1929 C 0.54796 0.05187 0.14807 0.0
C1930 C 0.4174 0.98449 0.13648 0.0
C1931 C 0.42958 0.99774 0.12512 0.0
C1932 C 0.45532 0.99785 0.12854 0.0
C1933 C 0.45968 0.98581 0.13148 0.0
C1934 C 0.47396 0.98955 0.1406 0.0
C1935 C 0.48425 0.00585 0.14653 0.0
C1936 C 0.4803 0.01827 0.14281 0.0
C1937 C 0.46584 0.01412 0.13387 0.0
C1938 C 0.47788 0.97605 0.14421 0.0
C1939 C 0.49129 0.03589 0.14844 0.0
C1940 C 0.49859 0.01557 0.22734 0.0
C1941 C 0.51301 0.02051 0.23656 0.0
C1942 C 0.52735 0.02351 0.22884 0.0
C1943 C 0.52733 0.02139 0.2114 0.0
C1944 C 0.54147 0.02411 0.20322 0.0
C1945 C 0.54156 0.02286 0.18597 0.0
C1946 C 0.52745 0.01857 0.17623 0.0
C1947 C 0.52757 0.0178 0.15865 0.0
C1948 C 0.5133 0.01339 0.14934 0.0
C1949 C 0.49882 0.00981 0.15714 0.0
C1950 C 0.49849 0.01064 0.17471 0.0
C1951 C 0.48416 0.00725 0.18296 0.0
C1952 C 0.48412 0.00874 0.2002 0.0
C1953 C 0.49837 0.01354 0.20987 0.0
C1954 C 0.51283 0.01658 0.20187 0.0
C1955 C 0.51289 0.01515 0.18426 0.0
C1956 C 0.61398 0.04613 0.14538 0.0
C1957 C 0.5995 0.03233 0.1357 0.0
O1958 O 0.44629 0.00835 0.26654 0.0
O1959 O 0.44107 0.99348 0.12025 0.0
O1960 O 0.58893 0.03788 0.13071 0.0
O1961 O 0.58253 0.0489 0.27229 0.0
H1962 H 0.44529 0.02974 0.26546 0.0
H1963 H 0.47009 0.03535 0.28271 0.0
H1964 H 0.45743 0.02001 0.29728 0.0
H1965 H 0.45616 0.03858 0.29493 0.0
H1966 H 0.46814 0.03639 0.25198 0.0
H1967 H 0.45149 0.9849 0.25756 0.0
H1968 H 0.50629 0.04841 0.23857 0.0
H1969 H 0.49022 0.05337 0.23563 0.0
H1970 H 0.49492 0.04312 0.21927 0.0
H1971 H 0.46462 0.97181 0.24502 0.0
H1972 H 0.48643 0.98513 0.24474 0.0
H1973 H 0.47456 0.98095 0.22587 0.0
H1974 H 0.56849 0.03803 0.29264 0.0
H1975 H 0.58796 0.05899 0.31274 0.0
H1976 H 0.58182 0.06798 0.29637 0.0
H1977 H 0.6017 0.06969 0.29609 0.0
H1978 H 0.56003 0.01741 0.2693 0.0
H1979 H 0.57675 0.06577 0.25069 0.0
H1980 H 0.52982 0.99595 0.23694 0.0
H1981 H 0.52124 0.99875 0.25558 0.0
H1982 H 0.53749 0.99392 0.25703 0.0
H1983 H 0.56059 0.07184 0.23252 0.0
H1984 H 0.53926 0.05684 0.22997 0.0
H1985 H 0.55369 0.05687 0.21576 0.0
H1986 H 0.5936 0.02199 0.14449 0.0
H1987 H 0.56693 0.00675 0.13741 0.0
H1988 H 0.57627 0.05646 0.13527 0.0
H1989 H 0.53552 0.99173 0.16441 0.0
H1990 H 0.5421 0.98502 0.14648 0.0
H1991 H 0.52472 0.9882 0.14491 0.0
H1992 H 0.55708 0.06415 0.14355 0.0
H1993 H 0.54627 0.05295 0.16157 0.0
H1994 H 0.53609 0.04804 0.1416 0.0
H1995 H 0.43545 0.00959 0.13228 0.0
H1996 H 0.40809 0.98769 0.14054 0.0
H1997 H 0.42385 0.98354 0.14774 0.0
H1998 H 0.41119 0.97233 0.12992 0.0
H1999 H 0.4516 0.97334 0.12703 0.0
H2000 H 0.46286 0.02363 0.13092 0.0
H2001 H 0.47898 0.97502 0.15787 0.0
H2002 H 0.48979 0.97916 0.13884 0.0
H2003 H 0.46844 0.96393 0.13901 0.0
H2004 H 0.48731 0.04434 0.14319 0.0
H2005 H 0.50399 0.04007 0.14469 0.0
H2006 H 0.49134 0.03676 0.16222 0.0
H2007 H 0.51316 0.02239 0.24992 0.0
H2008 H 0.55269 0.02745 0.21007 0.0
H2009 H 0.55289 0.02537 0.18038 0.0
H2010 H 0.51354 0.01299 0.13586 0.0
H2011 H 0.47284 0.00355 0.17617 0.0
H2012 H 0.4728 0.00617 0.20586 0.0
H2013 H 0.62283 0.04208 0.14909 0.0
H2014 H 0.60963 0.0493 0.15685 0.0
H2015 H 0.62026 0.05737 0.13783 0.0
C2016 C 0.5428 0.96718 0.72606 0.0
C2017 C 0.55577 0.98351 0.73396 0.0
C2018 C 0.54659 0.98451 0.76143 0.0
C2019 C 0.54851 0.00024 0.76364 0.0
C2020 C 0.53779 0.00271 0.77357 0.0
C2021 C 0.52474 0.98906 0.78116 0.0
C2022 C 0.52302 0.97318 0.77915 0.0
C2023 C 0.5342 0.97118 0.76952 0.0
C2024 C 0.5402 0.01983 0.77566 0.0
C2025 C 0.50908 0.95825 0.78671 0.0
C2026 C 0.41454 0.98897 0.73357 0.0
C2027 C 0.42545 0.9834 0.74085 0.0
C2028 C 0.45162 0.99511 0.756 0.0
C2029 C 0.4493 0.98 0.76188 0.0
C2030 C 0.46102 0.97936 0.77236 0.0
C2031 C 0.47527 0.99412 0.77713 0.0
C2032 C 0.47764 0.00934 0.77124 0.0
C2033 C 0.46577 0.00962 0.76071 0.0
C2034 C 0.4582 0.96291 0.77833 0.0
C2035 C 0.4927 0.02529 0.77611 0.0
C2036 C 0.44337 0.99186 0.88292 0.0
C2037 C 0.44139 0.9772 0.8757 0.0
C2038 C 0.45441 0.97682 0.86791 0.0
C2039 C 0.46964 0.99142 0.86708 0.0
C2040 C 0.47169 0.00617 0.87439 0.0
C2041 C 0.45854 0.00615 0.88229 0.0
C2042 C 0.45187 0.96081 0.86047 0.0
C2043 C 0.48774 0.02197 0.87371 0.0
C2044 C 0.57726 0.98485 0.87864 0.0
C2045 C 0.57224 0.99083 0.89411 0.0
C2046 C 0.54391 0.9835 0.88862 0.0
C2047 C 0.52958 0.96965 0.88301 0.0
C2048 C 0.51748 0.97126 0.8742 0.0
C2049 C 0.51977 0.98715 0.87116 0.0
C2050 C 0.53383 0.00118 0.87763 0.0
C2051 C 0.54573 0.99921 0.88639 0.0
C2052 C 0.50248 0.95603 0.86771 0.0
C2053 C 0.53641 0.01826 0.87499 0.0
C2054 C 0.51227 0.99117 0.79018 0.0
C2055 C 0.50037 0.99235 0.78065 0.0
C2056 C 0.48776 0.99357 0.78814 0.0
C2057 C 0.48685 0.99357 0.80567 0.0
C2058 C 0.47428 0.99472 0.81361 0.0
C2059 C 0.47321 0.99419 0.83086 0.0
C2060 C 0.48463 0.99243 0.84083 0.0
C2061 C 0.48333 0.99131 0.85835 0.0
C2062 C 0.49496 0.98967 0.86788 0.0
C2063 C 0.50795 0.98912 0.8604 0.0
C2064 C 0.50944 0.99019 0.84291 0.0
C2065 C 0.52239 0.98973 0.835 0.0
C2066 C 0.52351 0.99033 0.81775 0.0
C2067 C 0.51165 0.99127 0.80775 0.0
C2068 C 0.49876 0.99226 0.8155 0.0
C2069 C 0.49764 0.99169 0.8331 0.0
C2070 C 0.40583 0.97928 0.87503 0.0
C2071 C 0.41491 0.98084 0.89153 0.0
O2072 O 0.5563 0.98194 0.75105 0.0
O2073 O 0.5556 0.98122 0.89622 0.0
O2074 O 0.43113 0.99292 0.89051 0.0
O2075 O 0.44057 0.99625 0.74586 0.0
H2076 H 0.55237 0.99307 0.73094 0.0
H2077 H 0.53063 0.96388 0.7309 0.0
H2078 H 0.54547 0.95715 0.72903 0.0
H2079 H 0.54233 0.96824 0.71232 0.0
H2080 H 0.55832 0.01051 0.75745 0.0
H2081 H 0.53292 0.95909 0.7677 0.0
H2082 H 0.53046 0.02069 0.76858 0.0
H2083 H 0.55219 0.02936 0.77108 0.0
H2084 H 0.53928 0.02251 0.78896 0.0
H2085 H 0.50847 0.94662 0.78244 0.0
H2086 H 0.49733 0.95769 0.78347 0.0
H2087 H 0.51053 0.95914 0.80047 0.0
H2088 H 0.42591 0.97325 0.73396 0.0
H2089 H 0.39473 0.98122 0.75207 0.0
H2090 H 0.41223 0.98419 0.72028 0.0
H2091 H 0.42239 0.00227 0.73007 0.0
H2092 H 0.43842 0.96866 0.7583 0.0
H2093 H 0.46744 0.02121 0.75612 0.0
H2094 H 0.45778 0.96268 0.79213 0.0
H2095 H 0.46849 0.96106 0.77469 0.0
H2096 H 0.44667 0.95251 0.77319 0.0
H2097 H 0.49252 0.03615 0.77084 0.0
H2098 H 0.50367 0.02506 0.7717 0.0
H2099 H 0.49382 0.02669 0.78988 0.0
H2100 H 0.41409 0.96884 0.89444 0.0
H2101 H 0.42978 0.96599 0.87603 0.0
H2102 H 0.45999 0.0174 0.8879 0.0
H2103 H 0.4527 0.96177 0.84673 0.0
H2104 H 0.43983 0.95024 0.86351 0.0
H2105 H 0.46158 0.95829 0.86503 0.0
H2106 H 0.48711 0.03259 0.8792 0.0
H2107 H 0.49157 0.02471 0.8606 0.0
H2108 H 0.49726 0.02056 0.88059 0.0
H2109 H 0.57572 0.00384 0.89183 0.0
H2110 H 0.59074 0.99149 0.87765 0.0
H2111 H 0.57198 0.98732 0.8673 0.0
H2112 H 0.57272 0.97141 0.87897 0.0
H2113 H 0.52813 0.95757 0.8851 0.0
H2114 H 0.55633 0.00998 0.89152 0.0
H2115 H 0.5022 0.95598 0.8539 0.0
H2116 H 0.49137 0.95611 0.87192 0.0
H2117 H 0.50208 0.94455 0.87193 0.0
H2118 H 0.54777 0.02791 0.88123 0.0
H2119 H 0.52591 0.01914 0.87984 0.0
H2120 H 0.53702 0.02074 0.86146 0.0
H2121 H 0.5008 0.99207 0.76717 0.0
H2122 H 0.46507 0.99595 0.80656 0.0
H2123 H 0.46323 0.99506 0.83626 0.0
H2124 H 0.49385 0.98871 0.8813 0.0
H2125 H 0.53179 0.98881 0.84203 0.0
H2126 H 0.53371 0.98988 0.81234 0.0
H2127 H 0.39281 0.96971 0.87588 0.0
H2128 H 0.4112 0.97564 0.86478 0.0
H2129 H 0.40659 0.99119 0.87189 0.0
C2130 C 0.03272 0.60035 0.77767 0.0
C2131 C 0.02303 0.59119 0.76185 0.0
C2132 C 0.00923 0.56237 0.77114 0.0
C2133 C 0.99437 0.54975 0.77659 0.0
C2134 C 0.99306 0.53529 0.78308 0.0
C2135 C 0.00701 0.53339 0.78401 0.0
C2136 C 0.02199 0.54582 0.77793 0.0
C2137 C 0.02298 0.56023 0.77155 0.0
C2138 C 0.97686 0.52224 0.78935 0.0
C2139 C 0.03701 0.54402 0.77861 0.0
C2140 C 0.96576 0.4293 0.72297 0.0
C2141 C 0.98107 0.43309 0.73321 0.0
C2142 C 0.98315 0.44684 0.75962 0.0
C2143 C 0.99963 0.45893 0.76042 0.0
C2144 C 0.00497 0.47308 0.77051 0.0
C2145 C 0.99351 0.47518 0.77983 0.0
C2146 C 0.97685 0.46294 0.77902 0.0
C2147 C 0.97195 0.44874 0.76915 0.0
C2148 C 0.02284 0.48574 0.77131 0.0
C2149 C 0.96422 0.46485 0.78854 0.0
C2150 C 0.9888 0.44168 0.88166 0.0
C2151 C 0.00557 0.45191 0.8793 0.0
C2152 C 0.01154 0.46782 0.87311 0.0
C2153 C 0.00054 0.47358 0.86941 0.0
C2154 C 0.98382 0.46368 0.87283 0.0
C2155 C 0.9782 0.44786 0.87899 0.0
C2156 C 0.02948 0.47828 0.86998 0.0
C2157 C 0.97179 0.46958 0.86937 0.0
C2158 C 0.04029 0.60329 0.8774 0.0
C2159 C 0.02912 0.58981 0.88926 0.0
C2160 C 0.03059 0.56454 0.88758 0.0
C2161 C 0.04205 0.55998 0.88309 0.0
C2162 C 0.03715 0.54457 0.87558 0.0
C2163 C 0.02036 0.53347 0.87275 0.0
C2164 C 0.00867 0.53755 0.87845 0.0
C2165 C 0.01392 0.55304 0.88589 0.0
C2166 C 0.04989 0.54044 0.86995 0.0
C2167 C 0.99066 0.52578 0.87607 0.0
C2168 C 0.00609 0.5189 0.79243 0.0
C2169 C 0.0013 0.50452 0.78302 0.0
C2170 C 0.99897 0.4901 0.79053 0.0
C2171 C 0.00136 0.48992 0.80793 0.0
C2172 C 0.99881 0.47555 0.81595 0.0
C2173 C 0.0004 0.4753 0.83317 0.0
C2174 C 0.00499 0.48951 0.84301 0.0
C2175 C 0.00611 0.48925 0.86057 0.0
C2176 C 0.01134 0.50373 0.86996 0.0
C2177 C 0.01509 0.51849 0.86225 0.0
C2178 C 0.01333 0.51883 0.84476 0.0
C2179 C 0.01625 0.53331 0.8367 0.0
C2180 C 0.01394 0.53338 0.81958 0.0
C2181 C 0.00887 0.51905 0.80979 0.0
C2182 C 0.00629 0.50445 0.81759 0.0
C2183 C 0.00833 0.50429 0.83512 0.0
C2184 C 0.97553 0.39936 0.87603 0.0
C2185 C 0.98872 0.41546 0.88407 0.0
O2186 O 0.00963 0.57632 0.76582 0.0
O2187 O 0.036 0.58014 0.89331 0.0
O2188 O 0.9823 0.42582 0.88644 0.0
O2189 O 0.97781 0.43312 0.74995 0.0
H2190 H 0.031 0.58896 0.75342 0.0
H2191 H 0.03756 0.59317 0.78414 0.0
H2192 H 0.02484 0.6024 0.78637 0.0
H2193 H 0.04322 0.61244 0.77445 0.0
H2194 H 0.98382 0.55146 0.77608 0.0
H2195 H 0.03452 0.56977 0.76714 0.0
H2196 H 0.97326 0.51028 0.78303 0.0
H2197 H 0.96705 0.52537 0.78724 0.0
H2198 H 0.97798 0.52063 0.8029 0.0
H2199 H 0.0475 0.5543 0.77246 0.0
H2200 H 0.03439 0.53224 0.77249 0.0
H2201 H 0.0405 0.54363 0.79179 0.0
H2202 H 0.99094 0.44541 0.72948 0.0
H2203 H 0.96808 0.42953 0.70944 0.0
H2204 H 0.96214 0.43871 0.72572 0.0
H2205 H 0.95551 0.417 0.72606 0.0
H2206 H 0.00833 0.45717 0.75335 0.0
H2207 H 0.95926 0.43921 0.7685 0.0
H2208 H 0.02729 0.48826 0.78447 0.0
H2209 H 0.02462 0.49745 0.76607 0.0
H2210 H 0.03034 0.48173 0.76427 0.0
H2211 H 0.95161 0.45527 0.78495 0.0
H2212 H 0.96551 0.47716 0.78638 0.0
H2213 H 0.96611 0.46396 0.80207 0.0
H2214 H 0.99896 0.42077 0.87526 0.0
H2215 H 0.014 0.44753 0.88216 0.0
H2216 H 0.96534 0.43998 0.88122 0.0
H2217 H 0.03133 0.48048 0.85643 0.0
H2218 H 0.0366 0.47243 0.87438 0.0
H2219 H 0.0343 0.49045 0.87634 0.0
H2220 H 0.95945 0.4609 0.87386 0.0
H2221 H 0.9709 0.47106 0.85576 0.0
H2222 H 0.9761 0.48179 0.87544 0.0
H2223 H 0.01738 0.58264 0.88217 0.0
H2224 H 0.03584 0.61216 0.87529 0.0
H2225 H 0.04031 0.59761 0.86521 0.0
H2226 H 0.05303 0.60996 0.88234 0.0
H2227 H 0.05489 0.56881 0.88481 0.0
H2228 H 0.00499 0.5562 0.89016 0.0
H2229 H 0.04965 0.53971 0.85614 0.0
H2230 H 0.04713 0.52821 0.87463 0.0
H2231 H 0.06235 0.54976 0.87431 0.0
H2232 H 0.98312 0.53042 0.88201 0.0
H2233 H 0.98754 0.51369 0.8814 0.0
H2234 H 0.98747 0.52376 0.86256 0.0
H2235 H 0.99908 0.50448 0.76972 0.0
H2236 H 0.9953 0.46425 0.80904 0.0
H2237 H 0.998 0.4638 0.83865 0.0
H2238 H 0.01218 0.50343 0.88342 0.0
H2239 H 0.02014 0.54472 0.84354 0.0
H2240 H 0.01618 0.54484 0.81413 0.0
H2241 H 0.96479 0.39331 0.88414 0.0
H2242 H 0.98034 0.39081 0.87379 0.0
H2243 H 0.97151 0.40189 0.86388 0.0
C2244 C 0.52314 0.58421 0.7248 0.0
C2245 C 0.53534 0.58673 0.73894 0.0
C2246 C 0.51949 0.56258 0.75634 0.0
C2247 C 0.50885 0.56771 0.76262 0.0
C2248 C 0.49599 0.55746 0.77285 0.0
C2249 C 0.49378 0.54183 0.77704 0.0
C2250 C 0.50469 0.5368 0.77112 0.0
C2251 C 0.5174 0.54726 0.76084 0.0
C2252 C 0.48457 0.5632 0.77901 0.0
C2253 C 0.50277 0.52028 0.77548 0.0
C2254 C 0.39219 0.46832 0.71427 0.0
C2255 C 0.40042 0.46325 0.72773 0.0
C2256 C 0.41049 0.47726 0.75447 0.0
C2257 C 0.42283 0.47335 0.75763 0.0
C2258 C 0.43589 0.48307 0.76863 0.0
C2259 C 0.43671 0.49712 0.77641 0.0
C2260 C 0.42403 0.50084 0.77353 0.0
C2261 C 0.41089 0.49061 0.76283 0.0
C2262 C 0.44898 0.47852 0.77164 0.0
C2263 C 0.42462 0.51589 0.7813 0.0
C2264 C 0.40801 0.47897 0.88273 0.0
C2265 C 0.4187 0.47312 0.8787 0.0
C2266 C 0.43341 0.48328 0.87081 0.0
C2267 C 0.43746 0.49957 0.86687 0.0
C2268 C 0.42704 0.50569 0.87159 0.0
C2269 C 0.41251 0.49532 0.87963 0.0
C2270 C 0.44449 0.47654 0.86639 0.0
C2271 C 0.43108 0.52306 0.86776 0.0
C2272 C 0.55304 0.60171 0.88129 0.0
C2273 C 0.54558 0.59153 0.89682 0.0
C2274 C 0.52448 0.5648 0.88497 0.0
C2275 C 0.52083 0.54864 0.8815 0.0
C2276 C 0.50649 0.53759 0.87276 0.0
C2277 C 0.49547 0.54285 0.86744 0.0
C2278 C 0.49888 0.55908 0.87119 0.0
C2279 C 0.51337 0.56992 0.87987 0.0
C2280 C 0.50322 0.52037 0.86897 0.0
C2281 C 0.48728 0.565 0.8658 0.0
C2282 C 0.47959 0.53045 0.78694 0.0
C2283 C 0.4653 0.51941 0.77827 0.0
C2284 C 0.45132 0.50846 0.78665 0.0
C2285 C 0.45149 0.50856 0.80426 0.0
C2286 C 0.43766 0.49777 0.81311 0.0
C2287 C 0.43782 0.49827 0.83043 0.0
C2288 C 0.45194 0.50935 0.83958 0.0
C2289 C 0.45221 0.51001 0.85719 0.0
C2290 C 0.46653 0.52101 0.86588 0.0
C2291 C 0.48066 0.53154 0.85745 0.0
C2292 C 0.48057 0.53122 0.83984 0.0
C2293 C 0.49452 0.54177 0.83097 0.0
C2294 C 0.49425 0.54153 0.81365 0.0
C2295 C 0.48004 0.53068 0.80454 0.0
C2296 C 0.4659 0.51976 0.81322 0.0
C2297 C 0.46614 0.52009 0.83089 0.0
C2298 C 0.36629 0.44864 0.88208 0.0
C2299 C 0.38358 0.45243 0.88686 0.0
O2300 O 0.53171 0.57177 0.7458 0.0
O2301 O 0.53886 0.57489 0.89308 0.0
O2302 O 0.3933 0.46924 0.88957 0.0
O2303 O 0.39829 0.46859 0.74314 0.0
H2304 H 0.53484 0.59496 0.74871 0.0
H2305 H 0.51063 0.57897 0.72958 0.0
H2306 H 0.52307 0.57566 0.71507 0.0
H2307 H 0.52637 0.59618 0.71905 0.0
H2308 H 0.51032 0.57958 0.75947 0.0
H2309 H 0.52569 0.54341 0.75605 0.0
H2310 H 0.47195 0.55452 0.77456 0.0
H2311 H 0.48796 0.57573 0.77472 0.0
H2312 H 0.48462 0.56326 0.79282 0.0
H2313 H 0.51284 0.51859 0.77073 0.0
H2314 H 0.49106 0.51036 0.77012 0.0
H2315 H 0.50234 0.51889 0.7892 0.0
H2316 H 0.41361 0.46956 0.72473 0.0
H2317 H 0.39357 0.46396 0.70182 0.0
H2318 H 0.39799 0.48194 0.71414 0.0
H2319 H 0.37902 0.46319 0.71666 0.0
H2320 H 0.4223 0.46275 0.75144 0.0
H2321 H 0.40121 0.49342 0.76036 0.0
H2322 H 0.4519 0.47911 0.78516 0.0
H2323 H 0.46024 0.48747 0.76538 0.0
H2324 H 0.44534 0.46599 0.76674 0.0
H2325 H 0.4146 0.51786 0.77657 0.0
H2326 H 0.43645 0.52699 0.77877 0.0
H2327 H 0.42367 0.51456 0.795 0.0
H2328 H 0.38787 0.44823 0.87601 0.0
H2329 H 0.4156 0.46065 0.88169 0.0
H2330 H 0.4043 0.49979 0.88305 0.0
H2331 H 0.4451 0.47585 0.85265 0.0
H2332 H 0.44025 0.46408 0.87143 0.0
H2333 H 0.45704 0.48495 0.87127 0.0
H2334 H 0.4216 0.52589 0.87208 0.0
H2335 H 0.43239 0.52498 0.85414 0.0
H2336 H 0.44291 0.53189 0.87384 0.0
H2337 H 0.53601 0.59406 0.90155 0.0
H2338 H 0.55858 0.61505 0.88434 0.0
H2339 H 0.54354 0.59858 0.87141 0.0
H2340 H 0.56257 0.59926 0.87631 0.0
H2341 H 0.52942 0.54477 0.88551 0.0
H2342 H 0.51592 0.58234 0.88246 0.0
H2343 H 0.50213 0.51816 0.85529 0.0
H2344 H 0.49146 0.5113 0.87435 0.0
H2345 H 0.513 0.51817 0.87402 0.0
H2346 H 0.49127 0.57771 0.87037 0.0
H2347 H 0.47493 0.55663 0.87048 0.0
H2348 H 0.48631 0.56473 0.852 0.0
H2349 H 0.46505 0.51936 0.76477 0.0
H2350 H 0.42648 0.4889 0.80675 0.0
H2351 H 0.42673 0.4898 0.83655 0.0
H2352 H 0.46665 0.52142 0.87938 0.0
H2353 H 0.50581 0.55041 0.83732 0.0
H2354 H 0.50533 0.54998 0.80749 0.0
H2355 H 0.36118 0.45313 0.89185 0.0
H2356 H 0.3582 0.43517 0.88016 0.0
H2357 H 0.36648 0.45482 0.87027 0.0
C2358 C 0.60283 0.7418 0.62628 0.0
C2359 C 0.61153 0.73983 0.61124 0.0
C2360 C 0.62016 0.76541 0.59572 0.0
C2361 C 0.60455 0.7618 0.58998 0.0
C2362 C 0.60246 0.77301 0.58016 0.0
C2363 C 0.61622 0.78803 0.5759 0.0
C2364 C 0.63192 0.79164 0.58156 0.0
C2365 C 0.63366 0.78027 0.59143 0.0
C2366 C 0.58554 0.76883 0.57432 0.0
C2367 C 0.64687 0.80751 0.57717 0.0
C2368 C 0.59909 0.8716 0.63336 0.0
C2369 C 0.61175 0.87605 0.61986 0.0
C2370 C 0.60587 0.85997 0.59421 0.0
C2371 C 0.62133 0.86188 0.59143 0.0
C2372 C 0.62312 0.85053 0.58139 0.0
C2373 C 0.60912 0.83691 0.57416 0.0
C2374 C 0.59355 0.83522 0.57662 0.0
C2375 C 0.59218 0.84698 0.5864 0.0
C2376 C 0.63995 0.85296 0.57874 0.0
C2377 C 0.57834 0.82078 0.56925 0.0
C2378 C 0.60597 0.85949 0.46859 0.0
C2379 C 0.62157 0.8623 0.47322 0.0
C2380 C 0.6236 0.84998 0.48091 0.0
C2381 C 0.60976 0.83457 0.48393 0.0
C2382 C 0.59417 0.83137 0.47829 0.0
C2383 C 0.59251 0.84389 0.47055 0.0
C2384 C 0.64045 0.85359 0.48629 0.0
C2385 C 0.57921 0.81495 0.481 0.0
C2386 C 0.61042 0.72367 0.47091 0.0
C2387 C 0.61506 0.73524 0.45611 0.0
C2388 C 0.62262 0.76225 0.46903 0.0
C2389 C 0.63579 0.77764 0.47339 0.0
C2390 C 0.63351 0.78957 0.48171 0.0
C2391 C 0.61758 0.78599 0.48571 0.0
C2392 C 0.60413 0.77051 0.48117 0.0
C2393 C 0.60677 0.75875 0.47291 0.0
C2394 C 0.64813 0.80594 0.4864 0.0
C2395 C 0.58698 0.76635 0.48524 0.0
C2396 C 0.61421 0.79999 0.5655 0.0
C2397 C 0.61235 0.81224 0.57359 0.0
C2398 C 0.61075 0.82413 0.56461 0.0
C2399 C 0.61091 0.82379 0.54702 0.0
C2400 C 0.60942 0.83559 0.53758 0.0
C2401 C 0.60946 0.83506 0.52028 0.0
C2402 C 0.61122 0.82284 0.51173 0.0
C2403 C 0.61142 0.82231 0.49414 0.0
C2404 C 0.61334 0.8101 0.48604 0.0
C2405 C 0.61508 0.79831 0.49506 0.0
C2406 C 0.61483 0.79859 0.51266 0.0
C2407 C 0.61655 0.78692 0.52211 0.0
C2408 C 0.61633 0.78733 0.53941 0.0
C2409 C 0.6144 0.79944 0.54793 0.0
C2410 C 0.61269 0.81136 0.53866 0.0
C2411 C 0.61288 0.81091 0.521 0.0
C2412 C 0.60034 0.89323 0.47407 0.0
C2413 C 0.61209 0.88806 0.46692 0.0
O2414 O 0.62286 0.75512 0.60547 0.0
O2415 O 0.62591 0.75126 0.46127 0.0
O2416 O 0.60346 0.87153 0.46234 0.0
O2417 O 0.60381 0.87031 0.60456 0.0
H2418 H 0.60243 0.7327 0.60118 0.0
H2419 H 0.5961 0.7483 0.62277 0.0
H2420 H 0.61176 0.74901 0.63643 0.0
H2421 H 0.59392 0.72954 0.63103 0.0
H2422 H 0.59394 0.75035 0.59313 0.0
H2423 H 0.64564 0.78295 0.59589 0.0
H2424 H 0.58285 0.77854 0.57865 0.0
H2425 H 0.57603 0.75678 0.57894 0.0
H2426 H 0.58486 0.76849 0.56051 0.0
H2427 H 0.65827 0.8083 0.58222 0.0
H2428 H 0.64589 0.81809 0.58216 0.0
H2429 H 0.64767 0.80864 0.56343 0.0
H2430 H 0.61874 0.8697 0.62324 0.0
H2431 H 0.60522 0.87634 0.64571 0.0
H2432 H 0.59147 0.85801 0.63397 0.0
H2433 H 0.59095 0.87677 0.63064 0.0
H2434 H 0.63199 0.87223 0.59712 0.0
H2435 H 0.58032 0.84573 0.58852 0.0
H2436 H 0.64175 0.85172 0.56529 0.0
H2437 H 0.64125 0.84329 0.58536 0.0
H2438 H 0.64967 0.86518 0.58342 0.0
H2439 H 0.56709 0.82066 0.57327 0.0
H2440 H 0.57776 0.80908 0.57295 0.0
H2441 H 0.5787 0.82124 0.55546 0.0
H2442 H 0.62113 0.8903 0.47712 0.0
H2443 H 0.63215 0.87412 0.47096 0.0
H2444 H 0.58057 0.84174 0.46658 0.0
H2445 H 0.64135 0.85378 0.50009 0.0
H2446 H 0.65009 0.86561 0.48173 0.0
H2447 H 0.64276 0.84372 0.48164 0.0
H2448 H 0.56803 0.81423 0.47541 0.0
H2449 H 0.57748 0.81274 0.49456 0.0
H2450 H 0.58089 0.80496 0.47551 0.0
H2451 H 0.6039 0.73461 0.4505 0.0
H2452 H 0.60434 0.72723 0.48048 0.0
H2453 H 0.60185 0.71082 0.46675 0.0
H2454 H 0.62144 0.72419 0.47672 0.0
H2455 H 0.64796 0.78023 0.47035 0.0
H2456 H 0.5964 0.74691 0.46967 0.0
H2457 H 0.64873 0.80792 0.5001 0.0
H2458 H 0.6469 0.81601 0.48056 0.0
H2459 H 0.65974 0.80679 0.48246 0.0
H2460 H 0.57775 0.75404 0.48028 0.0
H2461 H 0.5843 0.77575 0.48001 0.0
H2462 H 0.58583 0.7666 0.49895 0.0
H2463 H 0.61225 0.81258 0.58708 0.0
H2464 H 0.60815 0.84535 0.54346 0.0
H2465 H 0.60816 0.84443 0.51371 0.0
H2466 H 0.61358 0.80983 0.47255 0.0
H2467 H 0.61809 0.77732 0.51625 0.0
H2468 H 0.6177 0.77802 0.54602 0.0
H2469 H 0.59034 0.89075 0.46499 0.0
H2470 H 0.60694 0.90655 0.47746 0.0
H2471 H 0.59484 0.88618 0.48548 0.0
C2472 C 0.13122 0.73588 0.63606 0.0
C2473 C 0.12343 0.74366 0.62528 0.0
C2474 C 0.13502 0.75347 0.59838 0.0
C2475 C 0.13281 0.7671 0.59618 0.0
C2476 C 0.14338 0.7802 0.58627 0.0
C2477 C 0.15659 0.77975 0.57868 0.0
C2478 C 0.15861 0.76581 0.58064 0.0
C2479 C 0.14755 0.75266 0.59022 0.0
C2480 C 0.14066 0.79471 0.58424 0.0
C2481 C 0.17274 0.76502 0.57308 0.0
C2482 C 0.25636 0.86236 0.63215 0.0
C2483 C 0.25645 0.87403 0.61879 0.0
C2484 C 0.22959 0.85885 0.60444 0.0
C2485 C 0.23233 0.84703 0.59642 0.0
C2486 C 0.22034 0.8349 0.58587 0.0
C2487 C 0.20539 0.8347 0.58312 0.0
C2488 C 0.20264 0.84664 0.59104 0.0
C2489 C 0.21478 0.85852 0.60167 0.0
C2490 C 0.22358 0.82222 0.57772 0.0
C2491 C 0.18689 0.84683 0.58827 0.0
C2492 C 0.22676 0.87041 0.47613 0.0
C2493 C 0.23111 0.85866 0.48111 0.0
C2494 C 0.22012 0.84456 0.48961 0.0
C2495 C 0.20454 0.84222 0.49334 0.0
C2496 C 0.2002 0.8541 0.48852 0.0
C2497 C 0.21138 0.86804 0.47995 0.0
C2498 C 0.22514 0.83212 0.49453 0.0
C2499 C 0.18371 0.85202 0.49239 0.0
C2500 C 0.11728 0.71436 0.46111 0.0
C2501 C 0.11727 0.73074 0.46073 0.0
C2502 C 0.14172 0.75665 0.46777 0.0
C2503 C 0.15811 0.76184 0.4711 0.0
C2504 C 0.16756 0.7755 0.48155 0.0
C2505 C 0.16051 0.78453 0.4883 0.0
C2506 C 0.14408 0.77976 0.4843 0.0
C2507 C 0.13476 0.76569 0.47422 0.0
C2508 C 0.18506 0.78023 0.48538 0.0
C2509 C 0.13639 0.78951 0.49066 0.0
C2510 C 0.16891 0.79438 0.56979 0.0
C2511 C 0.18078 0.80746 0.57944 0.0
C2512 C 0.19258 0.82181 0.57211 0.0
C2513 C 0.19243 0.82342 0.55466 0.0
C2514 C 0.20374 0.83797 0.54695 0.0
C2515 C 0.20367 0.83934 0.52973 0.0
C2516 C 0.19249 0.82611 0.51954 0.0
C2517 C 0.19266 0.8272 0.502 0.0
C2518 C 0.18171 0.81364 0.49224 0.0
C2519 C 0.17046 0.79892 0.49949 0.0
C2520 C 0.16974 0.79776 0.51703 0.0
C2521 C 0.1583 0.7833 0.52479 0.0
C2522 C 0.15771 0.7823 0.54206 0.0
C2523 C 0.16899 0.79546 0.55223 0.0
C2524 C 0.18074 0.8101 0.54467 0.0
C2525 C 0.18092 0.81136 0.52707 0.0
C2526 C 0.2588 0.90081 0.44948 0.0
C2527 C 0.25235 0.88804 0.46235 0.0
O2528 O 0.12541 0.74119 0.60864 0.0
O2529 O 0.13306 0.74306 0.45801 0.0
O2530 O 0.23693 0.88404 0.46756 0.0
O2531 O 0.2407 0.87065 0.61503 0.0
H2532 H 0.12988 0.75707 0.62852 0.0
H2533 H 0.14443 0.74168 0.63349 0.0
H2534 H 0.12548 0.72246 0.63331 0.0
H2535 H 0.12988 0.73782 0.64947 0.0
H2536 H 0.12287 0.76747 0.60233 0.0
H2537 H 0.14904 0.74199 0.59199 0.0
H2538 H 0.15036 0.80549 0.59124 0.0
H2539 H 0.12866 0.79219 0.58894 0.0
H2540 H 0.14141 0.79805 0.57093 0.0
H2541 H 0.17325 0.75386 0.57681 0.0
H2542 H 0.18439 0.77607 0.57691 0.0
H2543 H 0.17168 0.76496 0.55931 0.0
H2544 H 0.26218 0.87252 0.60741 0.0
H2545 H 0.26902 0.86536 0.63542 0.0
H2546 H 0.2496 0.84942 0.62755 0.0
H2547 H 0.2504 0.86336 0.64356 0.0
H2548 H 0.24369 0.84703 0.59841 0.0
H2549 H 0.21276 0.86767 0.60789 0.0
H2550 H 0.21391 0.80967 0.58095 0.0
H2551 H 0.2356 0.8237 0.58156 0.0
H2552 H 0.2232 0.82321 0.56398 0.0
H2553 H 0.18694 0.85741 0.59472 0.0
H2554 H 0.17662 0.83526 0.59289 0.0
H2555 H 0.18465 0.84739 0.57475 0.0
H2556 H 0.26103 0.8895 0.47267 0.0
H2557 H 0.24301 0.86035 0.47832 0.0
H2558 H 0.20813 0.87715 0.4761 0.0
H2559 H 0.22477 0.83088 0.50827 0.0
H2560 H 0.23758 0.83557 0.49044 0.0
H2561 H 0.2164 0.81989 0.48901 0.0
H2562 H 0.18242 0.86267 0.48838 0.0
H2563 H 0.1817 0.85046 0.50598 0.0
H2564 H 0.17405 0.84071 0.48603 0.0
H2565 H 0.11309 0.73251 0.47308 0.0
H2566 H 0.10514 0.70412 0.46444 0.0
H2567 H 0.1263 0.71507 0.47063 0.0
H2568 H 0.12063 0.71156 0.4488 0.0
H2569 H 0.16337 0.75486 0.46581 0.0
H2570 H 0.12216 0.76189 0.47117 0.0
H2571 H 0.18769 0.78223 0.49899 0.0
H2572 H 0.19322 0.79195 0.47919 0.0
H2573 H 0.18801 0.77072 0.48097 0.0
H2574 H 0.1242 0.78538 0.4848 0.0
H2575 H 0.14437 0.80279 0.48823 0.0
H2576 H 0.13501 0.78813 0.50433 0.0
H2577 H 0.18091 0.8064 0.59287 0.0
H2578 H 0.21274 0.84848 0.55415 0.0
H2579 H 0.21263 0.85084 0.52448 0.0
H2580 H 0.1822 0.81443 0.47878 0.0
H2581 H 0.14956 0.77262 0.5176 0.0
H2582 H 0.14849 0.77095 0.54733 0.0
H2583 H 0.27012 0.91146 0.45528 0.0
H2584 H 0.25138 0.90729 0.44995 0.0
H2585 H 0.25987 0.88726 0.42683 0.0
C2586 C 0.1325 0.38436 0.62655 0.0
C2587 C 0.12097 0.37544 0.61164 0.0
C2588 C 0.13876 0.36924 0.59438 0.0
C2589 C 0.14923 0.38542 0.58929 0.0
C2590 C 0.16319 0.38917 0.5802 0.0
C2591 C 0.16668 0.37651 0.57603 0.0
C2592 C 0.15595 0.36018 0.58076 0.0
C2593 C 0.14211 0.35678 0.58984 0.0
C2594 C 0.17432 0.40669 0.57517 0.0
C2595 C 0.15922 0.34636 0.5764 0.0
C2596 C 0.26966 0.41561 0.6433 0.0
C2597 C 0.26101 0.40089 0.63126 0.0
C2598 C 0.2508 0.40166 0.60351 0.0
C2599 C 0.23875 0.38511 0.60151 0.0
C2600 C 0.22586 0.3804 0.58989 0.0
C2601 C 0.22485 0.39256 0.58036 0.0
C2602 C 0.23716 0.40926 0.58225 0.0
C2603 C 0.25021 0.41351 0.59354 0.0
C2604 C 0.21319 0.36245 0.58803 0.0
C2605 C 0.23633 0.42269 0.57272 0.0
C2606 C 0.25709 0.39531 0.47535 0.0
C2607 C 0.24554 0.37914 0.47938 0.0
C2608 C 0.23086 0.37574 0.48677 0.0
C2609 C 0.22765 0.38875 0.49009 0.0
C2610 C 0.23896 0.40493 0.48538 0.0
C2611 C 0.2535 0.40797 0.47793 0.0
C2612 C 0.21884 0.35828 0.49123 0.0
C2613 C 0.23581 0.41905 0.48853 0.0
C2614 C 0.10961 0.36833 0.4773 0.0
C2615 C 0.11759 0.37117 0.46029 0.0
C2616 C 0.14129 0.36797 0.46772 0.0
C2617 C 0.14616 0.35616 0.46936 0.0
C2618 C 0.16028 0.35954 0.47856 0.0
C2619 C 0.16999 0.37533 0.48593 0.0
C2620 C 0.16562 0.38766 0.48357 0.0
C2621 C 0.15119 0.3838 0.4747 0.0
C2622 C 0.1646 0.34611 0.48073 0.0
C2623 C 0.17601 0.40484 0.4907 0.0
C2624 C 0.18178 0.38039 0.56712 0.0
C2625 C 0.19586 0.38464 0.57667 0.0
C2626 C 0.21042 0.38795 0.56924 0.0
C2627 C 0.21103 0.38703 0.5517 0.0
C2628 C 0.22532 0.38987 0.54377 0.0
C2629 C 0.2259 0.38938 0.52649 0.0
C2630 C 0.21215 0.38585 0.51646 0.0
C2631 C 0.21266 0.3855 0.49887 0.0
C2632 C 0.19879 0.38207 0.4893 0.0
C2633 C 0.18425 0.37873 0.4968 0.0
C2634 C 0.18344 0.37878 0.51436 0.0
C2635 C 0.1689 0.37511 0.52233 0.0
C2636 C 0.16832 0.3756 0.53959 0.0
C2637 C 0.18221 0.37968 0.54958 0.0
C2638 C 0.19692 0.3831 0.54184 0.0
C2639 C 0.1975 0.38257 0.52421 0.0
C2640 C 0.29763 0.40423 0.47915 0.0
C2641 C 0.28074 0.39142 0.47244 0.0
O2642 O 0.12545 0.36506 0.60375 0.0
O2643 O 0.12696 0.36351 0.45945 0.0
O2644 O 0.27175 0.39915 0.46892 0.0
O2645 O 0.263 0.40656 0.61512 0.0
H2646 H 0.12133 0.38461 0.60268 0.0
H2647 H 0.14515 0.39228 0.62242 0.0
H2648 H 0.13249 0.37535 0.63548 0.0
H2649 H 0.12865 0.39237 0.63306 0.0
H2650 H 0.1467 0.39519 0.59243 0.0
H2651 H 0.13391 0.34433 0.59369 0.0
H2652 H 0.18662 0.41119 0.5809 0.0
H2653 H 0.16974 0.41509 0.57902 0.0
H2654 H 0.17564 0.40719 0.56146 0.0
H2655 H 0.14955 0.33427 0.58077 0.0
H2656 H 0.17108 0.34892 0.58206 0.0
H2657 H 0.16012 0.34558 0.5627 0.0
H2658 H 0.24786 0.39453 0.6344 0.0
H2659 H 0.26809 0.4114 0.65637 0.0
H2660 H 0.26437 0.42384 0.64187 0.0
H2661 H 0.28289 0.42276 0.64074 0.0
H2662 H 0.23945 0.37589 0.60902 0.0
H2663 H 0.25967 0.42624 0.59515 0.0
H2664 H 0.21037 0.35884 0.57467 0.0
H2665 H 0.20178 0.36037 0.59388 0.0
H2666 H 0.2172 0.35435 0.59407 0.0
H2667 H 0.24552 0.43516 0.57738 0.0
H2668 H 0.22403 0.42142 0.57359 0.0
H2669 H 0.23856 0.42165 0.55938 0.0
H2670 H 0.27516 0.38242 0.48258 0.0
H2671 H 0.24791 0.36915 0.47671 0.0
H2672 H 0.26237 0.42036 0.47451 0.0
H2673 H 0.21727 0.35749 0.50491 0.0
H2674 H 0.22283 0.34943 0.48723 0.0
H2675 H 0.20677 0.35458 0.48532 0.0
H2676 H 0.24577 0.4309 0.48403 0.0
H2677 H 0.23446 0.42031 0.50208 0.0
H2678 H 0.22421 0.41647 0.48222 0.0
H2679 H 0.12535 0.38459 0.45836 0.0
H2680 H 0.10199 0.37433 0.478 0.0
H2681 H 0.11907 0.3737 0.48739 0.0
H2682 H 0.10185 0.35495 0.47946 0.0
H2683 H 0.13854 0.34405 0.4638 0.0
H2684 H 0.14781 0.39322 0.47333 0.0
H2685 H 0.16614 0.34441 0.49417 0.0
H2686 H 0.17638 0.34974 0.47476 0.0
H2687 H 0.15519 0.33418 0.47516 0.0
H2688 H 0.17251 0.41364 0.48543 0.0
H2689 H 0.18907 0.40936 0.48825 0.0
H2690 H 0.17463 0.40469 0.50439 0.0
H2691 H 0.19545 0.38533 0.59013 0.0
H2692 H 0.23626 0.39261 0.55085 0.0
H2693 H 0.23729 0.39183 0.52109 0.0
H2694 H 0.19933 0.38199 0.47582 0.0
H2695 H 0.15779 0.37187 0.51532 0.0
H2696 H 0.15683 0.37279 0.54501 0.0
H2697 H 0.30519 0.39837 0.48174 0.0
H2698 H 0.29642 0.40975 0.49096 0.0
H2699 H 0.30397 0.41426 0.47015 0.0
H2700 H 0.97775 0.35303 0.03921 0.0
H2701 H 0.00373 0.41785 0.11517 0.0
H2702 H 0.02724 0.39111 0.05009 0.0
H2703 H 0.95385 0.38671 0.09864 0.0
H2704 H 0.01253 0.4059 0.09325 0.0
H2705 H 0.96875 0.3629 0.06288 0.0
C2706 C 0.98675 0.36336 0.04663 0.0
C2707 C 0.00328 0.37129 0.04256 0.0
C2708 C 0.99966 0.40171 0.09436 0.0
C2709 C 0.99304 0.38264 0.06965 0.0
C2710 C 0.99464 0.40857 0.10683 0.0
C2711 C 0.97807 0.40359 0.1084 0.0
C2712 C 0.98801 0.38959 0.08351 0.0
C2713 C 0.96677 0.39114 0.0976 0.0
C2714 C 0.98159 0.36903 0.0601 0.0
C2715 C 0.01436 0.38466 0.05264 0.0
N2716 N 0.97195 0.38461 0.08555 0.0
N2717 N 0.00904 0.38991 0.06567 0.0
H2718 H 0.65154 0.61656 0.05608 0.0
H2719 H 0.56132 0.53395 0.08827 0.0
H2720 H 0.60413 0.6039 0.03589 0.0
H2721 H 0.61929 0.5487 0.1083 0.0
H2722 H 0.57726 0.56234 0.06731 0.0
H2723 H 0.63866 0.59391 0.07565 0.0
C2724 C 0.6384 0.60889 0.05577 0.0
C2725 C 0.62884 0.6115 0.044 0.0
C2726 C 0.58436 0.5589 0.07533 0.0
C2727 C 0.61409 0.58594 0.06633 0.0
C2728 C 0.57443 0.54081 0.08732 0.0
C2729 C 0.58864 0.53957 0.10287 0.0
C2730 C 0.60608 0.5713 0.07671 0.0
C2731 C 0.61098 0.55009 0.0999 0.0
C2732 C 0.63107 0.59607 0.06695 0.0
C2733 C 0.61187 0.60186 0.04451 0.0
N2734 N 0.6173 0.56597 0.08798 0.0
N2735 N 0.60499 0.58926 0.05535 0.0
H2736 H 0.36719 0.0185 0.06115 0.0
H2737 H 0.42052 0.97965 0.09559 0.0
H2738 H 0.37765 0.98613 0.03196 0.0
H2739 H 0.41777 0.01906 0.12089 0.0
H2740 H 0.4046 0.9816 0.07226 0.0
H2741 H 0.38537 0.01866 0.08343 0.0
C2742 C 0.37363 0.01172 0.05936 0.0
C2743 C 0.37154 0.00283 0.04455 0.0
C2744 C 0.40763 0.98996 0.08282 0.0
C2745 C 0.39173 0.00235 0.07008 0.0
C2746 C 0.41676 0.98888 0.09611 0.0
C2747 C 0.42076 0.99946 0.11003 0.0
C2748 C 0.40217 0.00147 0.08359 0.0
C2749 C 0.41518 0.01088 0.11026 0.0
C2750 C 0.38387 0.01168 0.07208 0.0
C2751 C 0.37937 0.99349 0.04308 0.0
N2752 N 0.40614 0.01156 0.09726 0.0
N2753 N 0.38919 0.99353 0.05567 0.0
H2754 H 0.35375 0.97778 0.9729 0.0
H2755 H 0.42 0.01148 0.90138 0.0
H2756 H 0.38972 0.02897 0.96769 0.0
H2757 H 0.39122 0.96001 0.9126 0.0
H2758 H 0.40687 0.01805 0.92382 0.0
H2759 H 0.36509 0.97098 0.94887 0.0
C2760 C 0.36392 0.9876 0.96664 0.0
C2761 C 0.37082 0.00397 0.97241 0.0
C2762 C 0.40347 0.00532 0.92144 0.0
C2763 C 0.38386 0.99626 0.94494 0.0
C2764 C 0.41102 0.00158 0.90868 0.0
C2765 C 0.40704 0.98521 0.90546 0.0
C2766 C 0.39164 0.99259 0.9309 0.0
C2767 C 0.3949 0.97282 0.91495 0.0
C2768 C 0.37043 0.9837 0.95298 0.0
C2769 C 0.38404 0.01617 0.96381 0.0
N2770 N 0.38767 0.97676 0.92728 0.0
N2771 N 0.39012 0.01206 0.95055 0.0
H2772 H 0.02365 0.37127 0.95536 0.0
H2773 H 0.97578 0.41301 0.91516 0.0
H2774 H 0.9896 0.38047 0.98186 0.0
H2775 H 0.01378 0.40913 0.89003 0.0
H2776 H 0.98296 0.40397 0.94073 0.0
H2777 H 0.02274 0.38795 0.93243 0.0
C2778 C 0.01637 0.37726 0.9565 0.0
C2779 C 0.00705 0.37499 0.97061 0.0
C2780 C 0.98994 0.40535 0.92973 0.0
C2781 C 0.00527 0.39332 0.94426 0.0
C2782 C 0.98587 0.41058 0.91513 0.0
C2783 C 0.99436 0.41202 0.90051 0.0
C2784 C 0.00232 0.40115 0.92965 0.0
C2785 C 0.00707 0.40833 0.9011 0.0
C2786 C 0.01571 0.38662 0.94339 0.0
C2787 C 0.99718 0.38225 0.97125 0.0
N2788 N 0.01058 0.40292 0.91539 0.0
N2789 N 0.99649 0.39106 0.95823 0.0
H2790 H 0.6227 0.59893 0.96327 0.0
H2791 H 0.55336 0.61401 0.92242 0.0
H2792 H 0.6138 0.63807 0.97894 0.0
H2793 H 0.56797 0.58085 0.90129 0.0
H2794 H 0.57482 0.6223 0.94392 0.0
H2795 H 0.60207 0.59142 0.9411 0.0
C2796 C 0.61648 0.606 0.96204 0.0
C2797 C 0.62004 0.61917 0.97304 0.0
C2798 C 0.5733 0.61316 0.93462 0.0
C2799 C 0.59629 0.61053 0.9477 0.0
C2800 C 0.56101 0.60839 0.92242 0.0
C2801 C 0.55862 0.59643 0.91033 0.0
C2802 C 0.58333 0.60598 0.93471 0.0
C2803 C 0.56915 0.58983 0.91061 0.0
C2804 C 0.6047 0.60169 0.94935 0.0
C2805 C 0.61153 0.62785 0.97078 0.0
N2806 N 0.58097 0.5946 0.92268 0.0
N2807 N 0.60002 0.62332 0.95843 0.0
H2808 H 0.02496 0.65363 0.96478 0.0
H2809 H 0.00099 0.57651 0.90666 0.0
H2810 H 0.99035 0.60492 0.98039 0.0
H2811 H 0.05 0.61772 0.90856 0.0
H2812 H 0.99506 0.58732 0.93185 0.0
H2813 H 0.03257 0.64157 0.94179 0.0
C2814 C 0.01927 0.64037 0.96354 0.0
C2815 C 0.00761 0.63017 0.97483 0.0
C2816 C 0.00709 0.59395 0.92669 0.0
C2817 C 0.01551 0.61637 0.94821 0.0
C2818 C 0.01047 0.58786 0.91229 0.0
C2819 C 0.0258 0.59651 0.90506 0.0
C2820 C 0.01911 0.60887 0.93384 0.0
C2821 C 0.0378 0.61092 0.91322 0.0
C2822 C 0.02349 0.63352 0.9504 0.0
C2823 C 0.99975 0.61311 0.97215 0.0
N2824 N 0.0341 0.6168 0.92701 0.0
N2825 N 0.00383 0.60669 0.95905 0.0
H2826 H 0.39217 0.38667 0.95662 0.0
H2827 H 0.37505 0.45565 0.91883 0.0
H2828 H 0.36043 0.40155 0.97985 0.0
H2829 H 0.39215 0.4284 0.88986 0.0
H2830 H 0.37332 0.43912 0.94307 0.0
H2831 H 0.39598 0.40517 0.93384 0.0
C2832 C 0.38605 0.39388 0.95701 0.0
C2833 C 0.37587 0.39245 0.97019 0.0
C2834 C 0.37748 0.4368 0.93141 0.0
C2835 C 0.38029 0.41376 0.94404 0.0
C2836 C 0.37849 0.44622 0.91761 0.0
C2837 C 0.38357 0.44324 0.90228 0.0
C2838 C 0.38182 0.42449 0.92992 0.0
C2839 C 0.38807 0.43102 0.90141 0.0
C2840 C 0.38821 0.40441 0.94394 0.0
C2841 C 0.36829 0.40215 0.96992 0.0
N2842 N 0.38708 0.42209 0.91503 0.0
N2843 N 0.37067 0.41241 0.95705 0.0
H2844 H 0.62375 0.01301 0.98981 0.0
H2845 H 0.57715 0.96563 0.90597 0.0
H2846 H 0.63364 0.97786 0.96524 0.0
H2847 H 0.58672 0.01466 0.91847 0.0
H2848 H 0.59288 0.96631 0.93083 0.0
H2849 H 0.60523 0.01025 0.9666 0.0
C2850 C 0.62176 0.00452 0.97962 0.0
C2851 C 0.62963 0.99515 0.97962 0.0
C2852 C 0.59156 0.97691 0.92803 0.0
C2853 C 0.60888 0.99215 0.95308 0.0
C2854 C 0.58267 0.97659 0.91382 0.0
C2855 C 0.58121 0.99042 0.90974 0.0
C2856 C 0.5986 0.99095 0.93848 0.0
C2857 C 0.58796 0.00395 0.92087 0.0
C2858 C 0.6113 0.00299 0.96641 0.0
C2859 C 0.62719 0.98472 0.96595 0.0
N2860 N 0.59642 0.00391 0.9347 0.0
N2861 N 0.6169 0.98339 0.95323 0.0
H2862 H 0.6161 0.97554 0.06034 0.0
H2863 H 0.61518 0.0502 0.10815 0.0
H2864 H 0.64813 0.02631 0.04816 0.0
H2865 H 0.5964 0.002 0.129 0.0
H2866 H 0.62508 0.04127 0.08443 0.0
H2867 H 0.60663 0.98466 0.08409 0.0
C2868 C 0.62119 0.98862 0.06267 0.0
C2869 C 0.63296 0.00018 0.05222 0.0
C2870 C 0.61884 0.03268 0.09423 0.0
C2871 C 0.62201 0.01068 0.07935 0.0
C2872 C 0.61318 0.03775 0.10772 0.0
C2873 C 0.60512 0.02687 0.12063 0.0
C2874 C 0.61621 0.01653 0.0935 0.0
C2875 C 0.60264 0.0108 0.11936 0.0
C2876 C 0.61578 0.9938 0.07627 0.0
C2877 C 0.63912 0.01696 0.05592 0.0
N2878 N 0.60813 0.00611 0.10603 0.0
N2879 N 0.63348 0.02171 0.06912 0.0
H2880 H 0.019 0.63105 0.05777 0.0
H2881 H 0.94279 0.55879 0.10271 0.0
H2882 H 0.96926 0.61339 0.04111 0.0
H2883 H 0.9908 0.58582 0.12544 0.0
H2884 H 0.95253 0.5767 0.07857 0.0
H2885 H 0.0091 0.61265 0.08127 0.0
C2886 C 0.00598 0.62331 0.05903 0.0
C2887 C 0.99494 0.62382 0.04741 0.0
C2888 C 0.96092 0.5787 0.08884 0.0
C2889 C 0.98353 0.60259 0.07435 0.0
C2890 C 0.95539 0.56847 0.10257 0.0
C2891 C 0.966 0.5709 0.1161 0.0
C2892 C 0.97723 0.59133 0.08858 0.0
C2893 C 0.98223 0.58356 0.11528 0.0
C2894 C 0.00034 0.61282 0.07249 0.0
C2895 C 0.97821 0.61349 0.04978 0.0
N2896 N 0.98735 0.59328 0.10175 0.0
N2897 N 0.97301 0.60324 0.06295 0.0
H2898 H 0.39645 0.40375 0.04098 0.0
H2899 H 0.44237 0.37372 0.10327 0.0
H2900 H 0.38252 0.35261 0.04551 0.0
H2901 H 0.42998 0.41054 0.11839 0.0
H2902 H 0.42732 0.36991 0.07695 0.0
H2903 H 0.41556 0.41036 0.0649 0.0
C2904 C 0.39771 0.39401 0.0468 0.0
C2905 C 0.3885 0.37773 0.04093 0.0
C2906 C 0.42801 0.37887 0.08605 0.0
C2907 C 0.40999 0.38509 0.06801 0.0
C2908 C 0.43648 0.38099 0.10108 0.0
C2909 C 0.43689 0.39203 0.11331 0.0
C2910 C 0.4204 0.38825 0.083 0.0
C2911 C 0.42964 0.40163 0.10947 0.0
C2912 C 0.40852 0.39776 0.06037 0.0
C2913 C 0.39004 0.36541 0.04918 0.0
N2914 N 0.42161 0.39948 0.09465 0.0
N2915 N 0.40073 0.36935 0.06222 0.0
H2916 H 0.68357 0.72445 0.394 0.0
H2917 H 0.60062 0.71526 0.42856 0.0
H2918 H 0.6361 0.68945 0.37356 0.0
H2919 H 0.64711 0.74242 0.45437 0.0
H2920 H 0.61342 0.70655 0.40749 0.0
H2921 H 0.67048 0.73221 0.41538 0.0
C2922 C 0.67039 0.71836 0.394 0.0
C2923 C 0.66094 0.70625 0.38192 0.0
C2924 C 0.62083 0.71446 0.41774 0.0
C2925 C 0.64586 0.71518 0.40642 0.0
C2926 C 0.61354 0.71948 0.4297 0.0
C2927 C 0.6229 0.72992 0.44297 0.0
C2928 C 0.63759 0.71989 0.41909 0.0
C2929 C 0.63952 0.7347 0.44412 0.0
C2930 C 0.66292 0.72279 0.40625 0.0
C2931 C 0.6439 0.69881 0.38262 0.0
N2932 N 0.64635 0.72975 0.43227 0.0
N2933 N 0.63691 0.70344 0.39462 0.0
H2934 H 0.31592 0.95297 0.39914 0.0
H2935 H 0.22485 0.87447 0.43475 0.0
H2936 H 0.2687 0.94356 0.38147 0.0
H2937 H 0.28258 0.88685 0.45297 0.0
H2938 H 0.24118 0.90295 0.41394 0.0
H2939 H 0.30277 0.93158 0.41989 0.0
C2940 C 0.30275 0.94633 0.39968 0.0
C2941 C 0.29327 0.94942 0.38825 0.0
C2942 C 0.24815 0.8991 0.42167 0.0
C2943 C 0.27821 0.92521 0.41188 0.0
C2944 C 0.23794 0.88094 0.43351 0.0
C2945 C 0.25212 0.8789 0.44846 0.0
C2946 C 0.26993 0.9108 0.42256 0.0
C2947 C 0.27433 0.88871 0.44493 0.0
C2948 C 0.29526 0.93422 0.41154 0.0
C2949 C 0.27633 0.9411 0.38983 0.0
N2950 N 0.28091 0.90476 0.43323 0.0
N2951 N 0.26926 0.92908 0.40126 0.0
H2952 H 0.0522 0.31679 0.37699 0.0
H2953 H 0.10212 0.38635 0.44615 0.0
H2954 H 0.04266 0.35632 0.38837 0.0
H2955 H 0.10277 0.34054 0.4441 0.0
H2956 H 0.0807 0.37572 0.42447 0.0
H2957 H 0.07103 0.32514 0.40124 0.0
C2958 C 0.05409 0.3272 0.38467 0.0
C2959 C 0.04654 0.33638 0.38042 0.0
C2960 C 0.08556 0.368 0.42871 0.0
C2961 C 0.06764 0.34579 0.4081 0.0
C2962 C 0.09783 0.37411 0.44101 0.0
C2963 C 0.10455 0.36451 0.44663 0.0
C2964 C 0.07999 0.35219 0.42185 0.0
C2965 C 0.09826 0.34854 0.43985 0.0
C2966 C 0.06476 0.33194 0.39847 0.0
C2967 C 0.04887 0.34941 0.39093 0.0
N2968 N 0.08647 0.34295 0.42768 0.0
N2969 N 0.05939 0.35389 0.40418 0.0
H2970 H 0.02366 0.29699 0.30802 0.0
H2971 H 0.10624 0.30218 0.25739 0.0
H2972 H 0.07205 0.33931 0.30832 0.0
H2973 H 0.04717 0.25403 0.25208 0.0
H2974 H 0.09347 0.31707 0.27982 0.0
H2975 H 0.03295 0.28266 0.28922 0.0
C2976 C 0.03619 0.30331 0.30411 0.0
C2977 C 0.04708 0.31941 0.30982 0.0
C2978 C 0.08551 0.3051 0.27422 0.0
C2979 C 0.05771 0.30303 0.28847 0.0
C2980 C 0.09373 0.29566 0.26128 0.0
C2981 C 0.07745 0.27728 0.24994 0.0
C2982 C 0.06408 0.29478 0.27773 0.0
C2983 C 0.05649 0.26529 0.258 0.0
C2984 C 0.04145 0.29511 0.29339 0.0
C2985 C 0.06317 0.32694 0.30428 0.0
N2986 N 0.05178 0.27629 0.27014 0.0
N2987 N 0.068 0.31865 0.29399 0.0
H2988 H 0.69911 0.70948 0.30239 0.0
H2989 H 0.69533 0.79608 0.27122 0.0
H2990 H 0.66406 0.72281 0.31935 0.0
H2991 H 0.73842 0.78029 0.25431 0.0
H2992 H 0.68135 0.76636 0.29038 0.0
H2993 H 0.71036 0.73325 0.284 0.0
C2994 C 0.69388 0.71752 0.30225 0.0
C2995 C 0.68119 0.71477 0.31282 0.0
C2996 C 0.69219 0.76988 0.28331 0.0
C2997 C 0.69367 0.74159 0.29184 0.0
C2998 C 0.70124 0.78872 0.27248 0.0
C2999 C 0.71726 0.79026 0.25825 0.0
C3000 C 0.70111 0.75687 0.28237 0.0
C3001 C 0.72843 0.77879 0.26188 0.0
C3002 C 0.7002 0.73097 0.29172 0.0
C3003 C 0.67422 0.72494 0.31169 0.0
N3004 N 0.71805 0.76225 0.2726 0.0
N3005 N 0.68074 0.73812 0.30156 0.0
H3006 H 0.27815 0.97506 0.32364 0.0
H3007 H 0.23897 0.92797 0.23736 0.0
H3008 H 0.28524 0.93567 0.30479 0.0
H3009 H 0.22168 0.95659 0.26363 0.0
H3010 H 0.25795 0.9326 0.26059 0.0
H3011 H 0.25929 0.9703 0.30041 0.0
C3012 C 0.27578 0.96541 0.31461 0.0
C3013 C 0.28334 0.95576 0.31619 0.0
C3014 C 0.24992 0.93776 0.26132 0.0
C3015 C 0.26174 0.95031 0.28947 0.0
C3016 C 0.23907 0.93511 0.24809 0.0
C3017 C 0.22841 0.94154 0.24879 0.0
C3018 C 0.25038 0.94722 0.2752 0.0
C3019 C 0.22945 0.95114 0.26277 0.0
C3020 C 0.26495 0.96268 0.30137 0.0
C3021 C 0.27968 0.94339 0.30411 0.0
N3022 N 0.24021 0.95367 0.27543 0.0
N3023 N 0.26919 0.94107 0.29121 0.0
H3024 H 0.65972 0.93764 0.31612 0.0
H3025 H 0.72976 0.96187 0.25043 0.0
H3026 H 0.69525 0.98789 0.30626 0.0
H3027 H 0.68197 0.91967 0.24233 0.0
H3028 H 0.71997 0.96925 0.27522 0.0
H3029 H 0.67021 0.92856 0.29281 0.0
C3030 C 0.66985 0.94669 0.30915 0.0
C3031 C 0.67712 0.96344 0.31341 0.0
C3032 C 0.71165 0.95839 0.26798 0.0
C3033 C 0.68897 0.9533 0.28694 0.0
C3034 C 0.71719 0.95421 0.25377 0.0
C3035 C 0.70645 0.94052 0.24385 0.0
C3036 C 0.69544 0.94851 0.27264 0.0
C3037 C 0.6905 0.9306 0.24934 0.0
C3038 C 0.67579 0.94155 0.29591 0.0
C3039 C 0.68984 0.97481 0.30377 0.0
N3040 N 0.68543 0.93482 0.26335 0.0
N3041 N 0.69551 0.96953 0.29107 0.0
H3042 H 0.06559 0.72328 0.29518 0.0
H3043 H 0.04936 0.79208 0.25505 0.0
H3044 H 0.02947 0.7348 0.3132 0.0
H3045 H 0.07295 0.76935 0.22902 0.0
H3046 H 0.04515 0.77398 0.27857 0.0
H3047 H 0.07149 0.74286 0.27281 0.0
C3048 C 0.05891 0.72993 0.29447 0.0
C3049 C 0.04693 0.72729 0.30607 0.0
C3050 C 0.05128 0.77298 0.26772 0.0
C3051 C 0.05375 0.74984 0.28054 0.0
C3052 C 0.0537 0.78331 0.25433 0.0
C3053 C 0.06136 0.78207 0.24001 0.0
C3054 C 0.05674 0.76148 0.26687 0.0
C3055 C 0.06691 0.77063 0.23979 0.0
C3056 C 0.06227 0.74109 0.28167 0.0
C3057 C 0.0387 0.73631 0.30449 0.0
N3058 N 0.06448 0.76077 0.253 0.0
N3059 N 0.04229 0.7472 0.292 0.0
H3060 H 0.2827 0.3444 0.31842 0.0
H3061 H 0.23574 0.27345 0.24982 0.0
H3062 H 0.29602 0.30751 0.30719 0.0
H3063 H 0.23965 0.32124 0.24536 0.0
H3064 H 0.25383 0.2835 0.27441 0.0
H3065 H 0.26311 0.33409 0.29468 0.0
C3066 C 0.28135 0.33404 0.31102 0.0
C3067 C 0.2904 0.32631 0.31504 0.0
C3068 C 0.25074 0.29178 0.26801 0.0
C3069 C 0.2684 0.31466 0.28804 0.0
C3070 C 0.24048 0.28608 0.25392 0.0
C3071 C 0.23673 0.29674 0.2451 0.0
C3072 C 0.25685 0.30807 0.27366 0.0
C3073 C 0.24263 0.31277 0.25152 0.0
C3074 C 0.27026 0.3282 0.29753 0.0
C3075 C 0.2887 0.3133 0.30485 0.0
N3076 N 0.25245 0.31799 0.26539 0.0
N3077 N 0.27776 0.30774 0.29191 0.0
H3078 H 0.3137 0.37068 0.38009 0.0
H3079 H 0.27193 0.35884 0.46801 0.0
H3080 H 0.28041 0.32293 0.39938 0.0
H3081 H 0.29262 0.40457 0.44178 0.0
H3082 H 0.27599 0.34556 0.44358 0.0
H3083 H 0.30747 0.38355 0.40331 0.0
C3084 C 0.30509 0.36288 0.38919 0.0
C3085 C 0.29763 0.34567 0.38778 0.0
C3086 C 0.27956 0.35848 0.44313 0.0
C3087 C 0.29048 0.36038 0.41445 0.0
C3088 C 0.27725 0.36605 0.45706 0.0
C3089 C 0.28208 0.38285 0.45696 0.0
C3090 C 0.28693 0.36782 0.42904 0.0
C3091 C 0.28887 0.39162 0.44242 0.0
C3092 C 0.30148 0.37026 0.40241 0.0
C3093 C 0.28647 0.33624 0.39993 0.0
N3094 N 0.29124 0.38404 0.4291 0.0
N3095 N 0.28334 0.34371 0.4128 0.0
H3096 H 0.63312 0.94426 0.37698 0.0
H3097 H 0.64476 0.90989 0.46357 0.0
H3098 H 0.68041 0.95589 0.39716 0.0
H3099 H 0.59883 0.88928 0.4365 0.0
H3100 H 0.65814 0.92758 0.43997 0.0
H3101 H 0.62037 0.92504 0.39943 0.0
C3102 C 0.64086 0.94279 0.38612 0.0
C3103 C 0.65791 0.9518 0.38518 0.0
C3104 C 0.64515 0.91914 0.43917 0.0
C3105 C 0.64328 0.92972 0.41101 0.0
C3106 C 0.63752 0.90906 0.45262 0.0
C3107 C 0.62065 0.89825 0.45203 0.0
C3108 C 0.63581 0.9185 0.4251 0.0
C3109 C 0.61184 0.89758 0.43751 0.0
C3110 C 0.63354 0.93173 0.39892 0.0
C3111 C 0.66723 0.94925 0.39738 0.0
N3112 N 0.6195 0.90767 0.42468 0.0
N3113 N 0.6598 0.93852 0.40985 0.0
H3114 H 0.04144 0.68851 0.38742 0.0
H3115 H 0.12345 0.74895 0.43152 0.0
H3116 H 0.06341 0.73993 0.37588 0.0
H3117 H 0.08418 0.71151 0.45947 0.0
H3118 H 0.10378 0.74549 0.4094 0.0
H3119 H 0.05914 0.6957 0.41226 0.0
C3120 C 0.05003 0.70134 0.3902 0.0
C3121 C 0.05132 0.71367 0.37955 0.0
C3122 C 0.09953 0.7382 0.42049 0.0
C3123 C 0.07151 0.72193 0.40777 0.0
C3124 C 0.11073 0.74008 0.43312 0.0
C3125 C 0.10549 0.73025 0.44733 0.0
C3126 C 0.08316 0.72613 0.42188 0.0
C3127 C 0.08879 0.7191 0.44862 0.0
C3128 C 0.06 0.70543 0.40438 0.0
C3129 C 0.06234 0.73012 0.38376 0.0
N3130 N 0.07827 0.71708 0.43592 0.0
N3131 N 0.07235 0.73382 0.39744 0.0
H3132 H 0.35132 0.06739 0.72136 0.0
H3133 H 0.26614 0.04989 0.75789 0.0
H3134 H 0.3048 0.02883 0.70233 0.0
H3135 H 0.31213 0.0786 0.78421 0.0
H3136 H 0.28019 0.04357 0.73612 0.0
H3137 H 0.33725 0.0735 0.74317 0.0
C3138 C 0.33817 0.06022 0.72173 0.0
C3139 C 0.32925 0.04754 0.71 0.0
C3140 C 0.28721 0.0513 0.74664 0.0
C3141 C 0.31309 0.05452 0.7349 0.0
C3142 C 0.27921 0.05493 0.759 0.0
C3143 C 0.28804 0.0651 0.77263 0.0
C3144 C 0.30417 0.05787 0.74793 0.0
C3145 C 0.30491 0.07102 0.77371 0.0
C3146 C 0.33015 0.06368 0.73422 0.0
C3147 C 0.31221 0.03866 0.71114 0.0
N3148 N 0.31244 0.06743 0.76145 0.0
N3149 N 0.30469 0.04236 0.72333 0.0
H3150 H 0.98219 0.28337 0.72039 0.0
H3151 H 0.89348 0.20127 0.75606 0.0
H3152 H 0.93464 0.26748 0.6985 0.0
H3153 H 0.9522 0.21589 0.77288 0.0
H3154 H 0.90849 0.22886 0.73396 0.0
H3155 H 0.96985 0.26143 0.74078 0.0
C3156 C 0.96914 0.27514 0.71986 0.0
C3157 C 0.95943 0.27663 0.70739 0.0
C3158 C 0.91591 0.22556 0.74166 0.0
C3159 C 0.94525 0.25193 0.73073 0.0
C3160 C 0.90651 0.20793 0.75434 0.0
C3161 C 0.92142 0.20699 0.76915 0.0
C3162 C 0.93766 0.23774 0.74176 0.0
C3163 C 0.94353 0.21712 0.7649 0.0
C3164 C 0.96211 0.26273 0.73152 0.0
C3165 C 0.94252 0.26631 0.70768 0.0
N3166 N 0.94932 0.23259 0.75249 0.0
N3167 N 0.93594 0.25417 0.71905 0.0
H3168 H 0.7008 0.6918 0.71729 0.0
H3169 H 0.7673 0.68234 0.77088 0.0
H3170 H 0.71588 0.65667 0.70398 0.0
H3171 H 0.76599 0.72781 0.76873 0.0
H3172 H 0.74584 0.67057 0.74923 0.0
H3173 H 0.72172 0.70273 0.73957 0.0
C3174 C 0.7087 0.68655 0.719 0.0
C3175 C 0.70724 0.67389 0.70844 0.0
C3176 C 0.75036 0.68315 0.75343 0.0
C3177 C 0.73069 0.68584 0.73409 0.0
C3178 C 0.76264 0.68992 0.76573 0.0
C3179 C 0.76875 0.70626 0.77131 0.0
C3180 C 0.74381 0.69262 0.74701 0.0
C3181 C 0.76184 0.71528 0.76454 0.0
C3182 C 0.72053 0.69269 0.73172 0.0
C3183 C 0.71705 0.66681 0.71163 0.0
N3184 N 0.74971 0.70834 0.75278 0.0
N3185 N 0.72852 0.67298 0.72414 0.0
H3186 H 0.68412 0.62972 0.64287 0.0
H3187 H 0.73893 0.64685 0.56263 0.0
H3188 H 0.71782 0.67834 0.62577 0.0
H3189 H 0.71367 0.5994 0.58551 0.0
H3190 H 0.72927 0.65817 0.58434 0.0
H3191 H 0.69276 0.61795 0.62056 0.0
C3192 C 0.69326 0.63793 0.6344 0.0
C3193 C 0.70026 0.65507 0.63625 0.0
C3194 C 0.72591 0.6453 0.58469 0.0
C3195 C 0.71017 0.64165 0.61069 0.0
C3196 C 0.73147 0.63885 0.57234 0.0
C3197 C 0.72746 0.62226 0.57255 0.0
C3198 C 0.71601 0.63504 0.59722 0.0
C3199 C 0.71732 0.61233 0.58512 0.0
C3200 C 0.69823 0.63119 0.62171 0.0
C3201 C 0.7121 0.66507 0.62491 0.0
N3202 N 0.71197 0.61888 0.59698 0.0
N3203 N 0.71666 0.65821 0.61264 0.0
H3204 H 0.36474 0.04799 0.62938 0.0
H3205 H 0.35684 0.13204 0.59766 0.0
H3206 H 0.32817 0.05924 0.6461 0.0
H3207 H 0.39992 0.11694 0.57889 0.0
H3208 H 0.34344 0.10209 0.61647 0.0
H3209 H 0.37389 0.07047 0.60954 0.0
C3210 C 0.35868 0.05526 0.62882 0.0
C3211 C 0.34623 0.0524 0.63977 0.0
C3212 C 0.3541 0.10575 0.60906 0.0
C3213 C 0.35639 0.0778 0.61721 0.0
C3214 C 0.36283 0.12474 0.59849 0.0
C3215 C 0.37867 0.12661 0.58381 0.0
C3216 C 0.36316 0.0929 0.60746 0.0
C3217 C 0.39003 0.11525 0.58673 0.0
C3218 C 0.3638 0.06797 0.61746 0.0
C3219 C 0.33818 0.06152 0.63814 0.0
N3220 N 0.37995 0.09856 0.5973 0.0
N3221 N 0.34363 0.07411 0.62728 0.0
H3222 H 0.94847 0.30253 0.6384 0.0
H3223 H 0.9053 0.24119 0.56068 0.0
H3224 H 0.95579 0.26128 0.62771 0.0
H3225 H 0.89198 0.27661 0.57821 0.0
H3226 H 0.92525 0.24936 0.5838 0.0
H3227 H 0.92931 0.29429 0.61495 0.0
C3228 C 0.94612 0.29174 0.6311 0.0
C3229 C 0.9538 0.28258 0.63512 0.0
C3230 C 0.91787 0.25525 0.58265 0.0
C3231 C 0.93169 0.27304 0.60808 0.0
C3232 C 0.90645 0.25056 0.56951 0.0
C3233 C 0.89667 0.25795 0.5678 0.0
C3234 C 0.91972 0.26762 0.59396 0.0
C3235 C 0.89903 0.27037 0.57928 0.0
C3236 C 0.9351 0.28702 0.6177 0.0
C3237 C 0.95017 0.26872 0.62512 0.0
N3238 N 0.91028 0.27479 0.59186 0.0
N3239 N 0.93937 0.26437 0.61205 0.0
H3240 H 0.32263 0.27497 0.6453 0.0
H3241 H 0.39271 0.29955 0.57954 0.0
H3242 H 0.35923 0.3252 0.63705 0.0
H3243 H 0.34467 0.25781 0.57119 0.0
H3244 H 0.3831 0.30682 0.60454 0.0
H3245 H 0.33287 0.26622 0.62153 0.0
C3246 C 0.33294 0.28409 0.63857 0.0
C3247 C 0.34058 0.30071 0.64342 0.0
C3248 C 0.37468 0.2961 0.59719 0.0
C3249 C 0.35213 0.29095 0.61639 0.0
C3250 C 0.38011 0.29198 0.58286 0.0
C3251 C 0.36926 0.27844 0.57283 0.0
C3252 C 0.35845 0.28632 0.60184 0.0
C3253 C 0.35329 0.26863 0.57829 0.0
C3254 C 0.33873 0.27913 0.62507 0.0
C3255 C 0.35352 0.31218 0.63408 0.0
N3256 N 0.34833 0.27278 0.59241 0.0
N3257 N 0.35903 0.30708 0.62109 0.0
H3258 H 0.73012 0.04479 0.61241 0.0
H3259 H 0.71648 0.11433 0.56972 0.0
H3260 H 0.69976 0.06296 0.63261 0.0
H3261 H 0.73482 0.0867 0.54338 0.0
H3262 H 0.71421 0.0986 0.59471 0.0
H3263 H 0.73575 0.06302 0.58874 0.0
C3264 C 0.72471 0.05266 0.61193 0.0
C3265 C 0.71434 0.05222 0.62447 0.0
C3266 C 0.71882 0.09604 0.58349 0.0
C3267 C 0.72082 0.07315 0.59749 0.0
C3268 C 0.72016 0.10504 0.56927 0.0
C3269 C 0.72579 0.10175 0.55447 0.0
C3270 C 0.72321 0.08371 0.58296 0.0
C3271 C 0.73041 0.08959 0.55454 0.0
C3272 C 0.7279 0.06302 0.5984 0.0
C3273 C 0.70769 0.06273 0.62318 0.0
N3274 N 0.72899 0.08097 0.56856 0.0
N3275 N 0.71104 0.07274 0.60995 0.0
H3276 H 0.94157 0.68119 0.63968 0.0
H3277 H 0.89633 0.60664 0.57445 0.0
H3278 H 0.95364 0.64257 0.63441 0.0
H3279 H 0.90262 0.65471 0.56456 0.0
H3280 H 0.91314 0.61778 0.59981 0.0
H3281 H 0.92333 0.67004 0.61494 0.0
C3282 C 0.94024 0.67029 0.63337 0.0
C3283 C 0.94851 0.66233 0.63935 0.0
C3284 C 0.91083 0.62588 0.59207 0.0
C3285 C 0.92804 0.64972 0.61125 0.0
C3286 C 0.90131 0.61955 0.57756 0.0
C3287 C 0.89857 0.62992 0.56706 0.0
C3288 C 0.91725 0.64256 0.59639 0.0
C3289 C 0.90478 0.64641 0.57211 0.0
C3290 C 0.92991 0.66398 0.61931 0.0
C3291 C 0.94687 0.64859 0.63053 0.0
N3292 N 0.91387 0.65225 0.58641 0.0
N3293 N 0.93667 0.64259 0.61702 0.0
H3294 H 0.97079 0.71008 0.70301 0.0
H3295 H 0.93355 0.70314 0.79241 0.0
H3296 H 0.93529 0.66372 0.72326 0.0
H3297 H 0.95477 0.74816 0.76494 0.0
H3298 H 0.93491 0.68849 0.76763 0.0
H3299 H 0.96613 0.72443 0.72603 0.0
C3300 C 0.96196 0.70291 0.71224 0.0
C3301 C 0.95348 0.68564 0.71122 0.0
C3302 C 0.93917 0.70155 0.76698 0.0
C3303 C 0.9482 0.70202 0.73767 0.0
C3304 C 0.93841 0.70991 0.78111 0.0
C3305 C 0.94423 0.72691 0.78077 0.0
C3306 C 0.946 0.7103 0.75244 0.0
C3307 C 0.95034 0.73508 0.76578 0.0
C3308 C 0.95927 0.71112 0.72534 0.0
C3309 C 0.94212 0.67703 0.72351 0.0
N3310 N 0.95124 0.72674 0.75226 0.0
N3311 N 0.93994 0.68529 0.73631 0.0
H3312 H 0.34282 0.29061 0.7275 0.0
H3313 H 0.25869 0.21895 0.76167 0.0
H3314 H 0.29582 0.27698 0.70509 0.0
H3315 H 0.30338 0.24213 0.79101 0.0
H3316 H 0.27284 0.23742 0.73881 0.0
H3317 H 0.3292 0.27026 0.74901 0.0
C3318 C 0.32965 0.28333 0.72705 0.0
C3319 C 0.32046 0.28562 0.7145 0.0
C3320 C 0.27956 0.23842 0.75023 0.0
C3321 C 0.30482 0.26221 0.73903 0.0
C3322 C 0.27151 0.22786 0.76323 0.0
C3323 C 0.27986 0.2291 0.77827 0.0
C3324 C 0.29613 0.2502 0.75222 0.0
C3325 C 0.29649 0.24081 0.77963 0.0
C3326 C 0.32189 0.27173 0.73936 0.0
C3327 C 0.30341 0.27577 0.71458 0.0
N3328 N 0.30408 0.25093 0.76679 0.0
N3329 N 0.29616 0.2645 0.72663 0.0
H3330 H 0.71375 0.01635 0.70513 0.0
H3331 H 0.76546 0.08505 0.77239 0.0
H3332 H 0.7303 0.06731 0.6951 0.0
H3333 H 0.77008 0.04158 0.76673 0.0
H3334 H 0.75075 0.07853 0.74547 0.0
H3335 H 0.73215 0.02471 0.72952 0.0
C3336 C 0.72159 0.02933 0.70789 0.0
C3337 C 0.72114 0.04122 0.69775 0.0
C3338 C 0.75502 0.07046 0.75017 0.0
C3339 C 0.74147 0.05084 0.72607 0.0
C3340 C 0.7633 0.07409 0.76554 0.0
C3341 C 0.76839 0.06347 0.7722 0.0
C3342 C 0.75172 0.05604 0.74145 0.0
C3343 C 0.7658 0.04976 0.7625 0.0
C3344 C 0.73196 0.03409 0.72185 0.0
C3345 C 0.7307 0.05784 0.70242 0.0
N3346 N 0.75737 0.04627 0.74776 0.0
N3347 N 0.74049 0.06221 0.71632 0.0
H3348 H 0.01939 0.31366 0.02701 0.0
H3349 H 0.10529 0.32326 0.05592 0.0
H3350 H 0.06512 0.35891 0.02319 0.0
H3351 H 0.05932 0.2787 0.0609 0.0
H3352 H 0.09086 0.33665 0.04403 0.0
H3353 H 0.03386 0.30081 0.03963 0.0
C3354 C 0.03248 0.32094 0.02885 0.0
C3355 C 0.04103 0.33744 0.024 0.0
C3356 C 0.08391 0.32398 0.04781 0.0
C3357 C 0.05771 0.32268 0.03847 0.0
C3358 C 0.09213 0.31636 0.05463 0.0
C3359 C 0.08343 0.29995 0.05968 0.0
C3360 C 0.06687 0.31508 0.04587 0.0
C3361 C 0.06644 0.29145 0.05741 0.0
C3362 C 0.04074 0.31356 0.03607 0.0
C3363 C 0.05799 0.34618 0.02674 0.0
N3364 N 0.05871 0.29912 0.0507 0.0
N3365 N 0.06577 0.33868 0.03376 0.0
H3366 H 0.67131 0.68228 0.06064 0.0
H3367 H 0.71618 0.77825 0.04728 0.0
H3368 H 0.6715 0.70218 0.01237 0.0
H3369 H 0.68593 0.75705 0.08989 0.0
H3370 H 0.70597 0.75052 0.0356 0.0
H3371 H 0.68286 0.71011 0.07299 0.0
C3372 C 0.6739 0.69252 0.05266 0.0
C3373 C 0.6704 0.69001 0.03551 0.0
C3374 C 0.70161 0.75206 0.04749 0.0
C3375 C 0.68382 0.72162 0.0494 0.0
C3376 C 0.70733 0.76784 0.05413 0.0
C3377 C 0.70153 0.77017 0.06934 0.0
C3378 C 0.69048 0.73842 0.05638 0.0
C3379 C 0.69056 0.75606 0.07798 0.0
C3380 C 0.6804 0.7083 0.0597 0.0
C3381 C 0.67392 0.70364 0.02568 0.0
N3382 N 0.68543 0.74079 0.07138 0.0
N3383 N 0.68058 0.71892 0.03274 0.0
H3384 H 0.28672 0.95523 0.01143 0.0
H3385 H 0.22302 0.95962 0.07259 0.0
H3386 H 0.29977 0.99395 0.04818 0.0
H3387 H 0.21386 0.91453 0.04802 0.0
H3388 H 0.25037 0.97344 0.06127 0.0
H3389 H 0.25898 0.94107 0.02218 0.0
C3390 C 0.28374 0.96075 0.02172 0.0
C3391 C 0.29556 0.97575 0.02896 0.0
C3392 C 0.24239 0.96051 0.05837 0.0
C3393 C 0.26396 0.95975 0.04119 0.0
C3394 C 0.22678 0.95263 0.06481 0.0
C3395 C 0.21617 0.9359 0.06125 0.0
C3396 C 0.2474 0.95167 0.04812 0.0
C3397 C 0.22167 0.92745 0.05104 0.0
C3398 C 0.26795 0.95266 0.02787 0.0
C3399 C 0.29107 0.98237 0.04227 0.0
N3400 N 0.2369 0.93544 0.04477 0.0
N3401 N 0.27564 0.97437 0.0479 0.0
H3402 H 0.3567 0.06364 0.99487 0.0
H3403 H 0.27496 0.05624 0.95468 0.0
H3404 H 0.31166 0.01775 0.98797 0.0
H3405 H 0.32009 0.10211 0.95994 0.0
H3406 H 0.28841 0.04194 0.96666 0.0
H3407 H 0.34372 0.07799 0.98196 0.0
C3408 C 0.3441 0.05656 0.99064 0.0
C3409 C 0.33529 0.03942 0.99254 0.0
C3410 C 0.29543 0.05511 0.9651 0.0
C3411 C 0.32035 0.05583 0.97775 0.0
C3412 C 0.28776 0.06326 0.9582 0.0
C3413 C 0.2965 0.08033 0.95604 0.0
C3414 C 0.31195 0.06411 0.97004 0.0
C3415 C 0.31299 0.08889 0.96115 0.0
C3416 C 0.3367 0.06478 0.98325 0.0
C3417 C 0.31898 0.03095 0.9868 0.0
N3418 N 0.32018 0.0807 0.9679 0.0
N3419 N 0.31206 0.03924 0.9797 0.0
H3420 H 0.95591 0.29318 0.98661 0.0
H3421 H 0.96523 0.22101 0.92733 0.0
H3422 H 0.00211 0.30021 0.9701 0.0
H3423 H 0.91579 0.23052 0.92499 0.0
H3424 H 0.98041 0.24986 0.94891 0.0
H3425 H 0.94204 0.26751 0.96982 0.0
C3426 C 0.96311 0.28915 0.9797 0.0
C3427 C 0.98013 0.29877 0.9796 0.0
C3428 C 0.96825 0.24546 0.94381 0.0
C3429 C 0.9645 0.26967 0.96075 0.0
C3430 C 0.95954 0.22842 0.92963 0.0
C3431 C 0.93748 0.22082 0.92569 0.0
C3432 C 0.95675 0.25516 0.94964 0.0
C3433 C 0.92834 0.23437 0.92831 0.0
C3434 C 0.95522 0.27465 0.97007 0.0
C3435 C 0.98894 0.29315 0.97036 0.0
N3436 N 0.93869 0.2495 0.94148 0.0
N3437 N 0.98102 0.27889 0.96133 0.0
H3438 H 0.69694 0.63441 0.98491 0.0
H3439 H 0.7639 0.7197 0.94699 0.0
H3440 H 0.69295 0.67853 0.98541 0.0
H3441 H 0.77028 0.67734 0.95237 0.0
H3442 H 0.73689 0.70423 0.95905 0.0
H3443 H 0.72282 0.64935 0.97092 0.0
C3444 C 0.70144 0.64722 0.98202 0.0
C3445 C 0.6927 0.6552 0.9864 0.0
C3446 C 0.74414 0.69827 0.95746 0.0
C3447 C 0.72246 0.67242 0.97036 0.0
C3448 C 0.75949 0.70706 0.95051 0.0
C3449 C 0.76918 0.69967 0.94835 0.0
C3450 C 0.73846 0.68199 0.9624 0.0
C3451 C 0.76308 0.68339 0.95349 0.0
C3452 C 0.71627 0.65576 0.97406 0.0
C3453 C 0.69924 0.67185 0.98234 0.0
N3454 N 0.74811 0.6751 0.96024 0.0
N3455 N 0.71372 0.67989 0.97457 0.0
H3456 H 0.98671 0.67995 0.96289 0.0
H3457 H 0.92744 0.71719 0.97651 0.0
H3458 H 0.9552 0.66761 0.00492 0.0
H3459 H 0.95382 0.72233 0.93165 0.0
H3460 H 0.93784 0.6997 0.98782 0.0
H3461 H 0.97497 0.69601 0.95174 0.0
C3462 C 0.97723 0.68054 0.96974 0.0
C3463 C 0.97193 0.67245 0.98487 0.0
C3464 C 0.94131 0.70465 0.97549 0.0
C3465 C 0.95849 0.69101 0.97222 0.0
C3466 C 0.93544 0.71465 0.96908 0.0
C3467 C 0.9398 0.72122 0.95314 0.0
C3468 C 0.95169 0.7013 0.96591 0.0
C3469 C 0.9502 0.71757 0.94401 0.0
C3470 C 0.97052 0.68974 0.96336 0.0
C3471 C 0.95958 0.67363 0.99318 0.0
N3472 N 0.95579 0.70789 0.95053 0.0
N3473 N 0.95333 0.68286 0.98679 0.0
H3474 H 0.35923 0.32076 0.96332 0.0
H3475 H 0.27249 0.24004 0.95283 0.0
H3476 H 0.31678 0.31492 0.98868 0.0
H3477 H 0.30958 0.25515 0.91592 0.0
H3478 H 0.28912 0.26638 0.96772 0.0
H3479 H 0.34186 0.2954 0.9474 0.0
C3480 C 0.34627 0.31418 0.96552 0.0
C3481 C 0.33945 0.32 0.97733 0.0
C3482 C 0.29359 0.26389 0.95636 0.0
C3483 C 0.31958 0.29093 0.95928 0.0
C3484 C 0.28415 0.24888 0.94793 0.0
C3485 C 0.28988 0.24524 0.93341 0.0
C3486 C 0.30886 0.27528 0.95024 0.0
C3487 C 0.3049 0.25727 0.92732 0.0
C3488 C 0.33636 0.29975 0.95639 0.0
C3489 C 0.32255 0.31095 0.97963 0.0
N3490 N 0.31396 0.27166 0.93588 0.0
N3491 N 0.31321 0.2968 0.97077 0.0
H3492 H 0.70132 0.0081 0.97363 0.0
H3493 H 0.78831 0.09013 0.97776 0.0
H3494 H 0.71504 0.04617 0.01128 0.0
H3495 H 0.77716 0.04836 0.94588 0.0
H3496 H 0.76087 0.07511 0.98889 0.0
H3497 H 0.72844 0.02349 0.96209 0.0
C3498 C 0.71005 0.0197 0.97949 0.0
C3499 C 0.70591 0.02586 0.99345 0.0
C3500 C 0.76438 0.06926 0.97938 0.0
C3501 C 0.737 0.0436 0.98023 0.0
C3502 C 0.77998 0.07786 0.97296 0.0
C3503 C 0.78488 0.07061 0.96063 0.0
C3504 C 0.75359 0.05323 0.97349 0.0
C3505 C 0.77376 0.05454 0.95512 0.0
C3506 C 0.72554 0.02848 0.97289 0.0
C3507 C 0.71772 0.04096 0.00052 0.0
N3508 N 0.75863 0.04641 0.96155 0.0
N3509 N 0.73273 0.04934 0.99381 0.0
H3510 H 0.69083 0.98635 0.04136 0.0
H3511 H 0.68891 0.90087 0.05494 0.0
H3512 H 0.64868 0.93905 0.02995 0.0
H3513 H 0.72826 0.94751 0.0728 0.0
H3514 H 0.67367 0.91457 0.04639 0.0
H3515 H 0.7045 0.97238 0.05346 0.0
C3516 C 0.6844 0.97303 0.04145 0.0
C3517 C 0.66857 0.96388 0.03453 0.0
C3518 C 0.68557 0.92181 0.05232 0.0
C3519 C 0.68424 0.94779 0.04836 0.0
C3520 C 0.69425 0.91399 0.05722 0.0
C3521 C 0.70984 0.92308 0.0646 0.0
C3522 C 0.69261 0.93891 0.05463 0.0
C3523 C 0.71625 0.94006 0.06717 0.0
C3524 C 0.69222 0.96506 0.04841 0.0
C3525 C 0.66087 0.94664 0.03511 0.0
N3526 N 0.70766 0.94745 0.06208 0.0
N3527 N 0.66882 0.93917 0.04179 0.0
H3528 H 0.04733 0.69529 0.04619 0.0
H3529 H 0.04021 0.77627 0.05783 0.0
H3530 H 0.00842 0.70046 0.02325 0.0
H3531 H 0.06279 0.76024 0.09482 0.0
H3532 H 0.03129 0.7504 0.04219 0.0
H3533 H 0.05643 0.7214 0.06129 0.0
C3534 C 0.04075 0.70194 0.04429 0.0
C3535 C 0.02705 0.69566 0.03355 0.0
C3536 C 0.03827 0.75264 0.0537 0.0
C3537 C 0.03746 0.72549 0.05059 0.0
C3538 C 0.04338 0.76737 0.06256 0.0
C3539 C 0.0526 0.77059 0.07739 0.0
C3540 C 0.04249 0.74113 0.05969 0.0
C3541 C 0.05608 0.75848 0.08322 0.0
C3542 C 0.04589 0.71677 0.05295 0.0
C3543 C 0.01895 0.70477 0.03155 0.0
N3544 N 0.05116 0.74437 0.07426 0.0
N3545 N 0.02433 0.71928 0.03994 0.0
H3546 H 0.32207 0.33137 0.05536 0.0
H3547 H 0.22556 0.29066 0.0498 0.0
H3548 H 0.29782 0.34395 0.01694 0.0
H3549 H 0.25211 0.29346 0.09508 0.0
H3550 H 0.25151 0.30834 0.03637 0.0
H3551 H 0.29612 0.31551 0.06902 0.0
C3552 C 0.31127 0.33084 0.04983 0.0
C3553 C 0.31208 0.33898 0.03501 0.0
C3554 C 0.25161 0.3051 0.04925 0.0
C3555 C 0.28227 0.32068 0.05049 0.0
C3556 C 0.23685 0.29497 0.05689 0.0
C3557 C 0.23671 0.29046 0.07353 0.0
C3558 C 0.26631 0.31056 0.05828 0.0
C3559 C 0.25168 0.29648 0.08218 0.0
C3560 C 0.29646 0.32182 0.05766 0.0
C3561 C 0.29771 0.33791 0.02841 0.0
N3562 N 0.26586 0.30611 0.07443 0.0
N3563 N 0.28332 0.32878 0.03613 0.0
H3564 H 0.71594 0.68897 0.38573 0.0
H3565 H 0.70882 0.59454 0.40106 0.0
H3566 H 0.67668 0.64347 0.36517 0.0
H3567 H 0.74653 0.64819 0.43398 0.0
H3568 H 0.6944 0.61267 0.38644 0.0
H3569 H 0.7256 0.67323 0.4017 0.0
C3570 C 0.70931 0.67567 0.3846 0.0
C3571 C 0.69547 0.66754 0.37406 0.0
C3572 C 0.70408 0.61842 0.39576 0.0
C3573 C 0.70654 0.64951 0.39227 0.0
C3574 C 0.71213 0.60681 0.40543 0.0
C3575 C 0.7313 0.62024 0.41746 0.0
C3576 C 0.71256 0.63978 0.40112 0.0
C3577 C 0.73602 0.64072 0.42598 0.0
C3578 C 0.71481 0.6667 0.39378 0.0
C3579 C 0.68736 0.65026 0.37318 0.0
N3580 N 0.7269 0.64881 0.41552 0.0
N3581 N 0.69311 0.6418 0.38207 0.0
H3582 H 0.34048 0.02007 0.40057 0.0
H3583 H 0.38578 0.1149 0.37878 0.0
H3584 H 0.34201 0.03731 0.35068 0.0
H3585 H 0.35987 0.09778 0.42466 0.0
H3586 H 0.37551 0.08654 0.36987 0.0
H3587 H 0.35321 0.04875 0.41103 0.0
C3588 C 0.3437 0.02991 0.39184 0.0
C3589 C 0.34017 0.02641 0.37477 0.0
C3590 C 0.37197 0.08905 0.38181 0.0
C3591 C 0.35481 0.05893 0.38652 0.0
C3592 C 0.37771 0.10531 0.38693 0.0
C3593 C 0.37292 0.10897 0.40216 0.0
C3594 C 0.36187 0.07624 0.3922 0.0
C3595 C 0.36332 0.09568 0.4125 0.0
C3596 C 0.35083 0.04617 0.3978 0.0
C3597 C 0.34444 0.03952 0.36394 0.0
N3598 N 0.35802 0.07991 0.40729 0.0
N3599 N 0.35162 0.05521 0.36998 0.0
H3600 H 0.97659 0.32712 0.37657 0.0
H3601 H 0.8891 0.2456 0.37539 0.0
H3602 H 0.96352 0.28539 0.34382 0.0
H3603 H 0.9 0.28988 0.40279 0.0
H3604 H 0.91668 0.25957 0.36451 0.0
H3605 H 0.94889 0.31338 0.38702 0.0
C3606 C 0.96788 0.31509 0.37153 0.0
C3607 C 0.97238 0.30739 0.3593 0.0
C3608 C 0.91307 0.26623 0.37293 0.0
C3609 C 0.94067 0.29153 0.3713 0.0
C3610 C 0.89737 0.25824 0.37919 0.0
C3611 C 0.89234 0.26653 0.39018 0.0
C3612 C 0.92386 0.28266 0.37767 0.0
C3613 C 0.90345 0.28297 0.39451 0.0
C3614 C 0.95206 0.30725 0.37751 0.0
C3615 C 0.96058 0.29179 0.35323 0.0
N3616 N 0.91869 0.29048 0.3883 0.0
N3617 N 0.94529 0.28435 0.35934 0.0
H3618 H 0.04154 0.38577 0.30992 0.0
H3619 H 0.96511 0.39354 0.27724 0.0
H3620 H 0.99178 0.34651 0.31339 0.0
H3621 H 0.01413 0.43427 0.28225 0.0
H3622 H 0.97484 0.375 0.28689 0.0
H3623 H 0.03187 0.40235 0.2958 0.0
C3624 C 0.02857 0.38053 0.3076 0.0
C3625 C 0.01746 0.36472 0.31305 0.0
C3626 C 0.98349 0.38796 0.28568 0.0
C3627 C 0.00629 0.38384 0.29689 0.0
C3628 C 0.97796 0.39851 0.28011 0.0
C3629 C 0.98887 0.4154 0.27861 0.0
C3630 C 1.00006 0.39437 0.28987 0.0
C3631 C 0.00534 0.4213 0.28289 0.0
C3632 C 0.02306 0.39007 0.29955 0.0
C3633 C 0.0008 0.35864 0.3095 0.0
N3634 N 0.01042 0.4108 0.2883 0.0
N3635 N 0.99571 0.36826 0.30175 0.0
H3636 H 0.6204 0.6274 0.3334 0.0
H3637 H 0.6276 0.5584 0.26625 0.0
H3638 H 0.66262 0.63869 0.30444 0.0
H3639 H 0.57631 0.54802 0.29778 0.0
H3640 H 0.64344 0.59023 0.28289 0.0
H3641 H 0.60651 0.59968 0.32098 0.0
C3642 C 0.62674 0.62406 0.32441 0.0
C3643 C 0.6427 0.63538 0.31994 0.0
C3644 C 0.63083 0.5815 0.28522 0.0
C3645 C 0.62692 0.60371 0.30581 0.0
C3646 C 0.62157 0.56155 0.27576 0.0
C3647 C 0.5991 0.55036 0.27816 0.0
C3648 C 0.61906 0.58706 0.29829 0.0
C3649 C 0.58922 0.55513 0.29552 0.0
C3650 C 0.6188 0.60825 0.31733 0.0
C3651 C 0.65031 0.63037 0.30822 0.0
N3652 N 0.60015 0.57392 0.30267 0.0
N3653 N 0.64236 0.61486 0.30159 0.0
H3654 H 0.35797 0.00775 0.32392 0.0
H3655 H 0.42707 0.99024 0.28934 0.0
H3656 H 0.35625 0.96081 0.32734 0.0
H3657 H 0.42504 0.03438 0.27884 0.0
H3658 H 0.40133 0.97947 0.3038 0.0
H3659 H 0.38284 0.01804 0.30797 0.0
C3660 C 0.36278 0.99959 0.32132 0.0
C3661 C 0.35495 0.98336 0.32702 0.0
C3662 C 0.40641 0.99144 0.29818 0.0
C3663 C 0.38347 0.99511 0.30877 0.0
C3664 C 0.42106 0.99755 0.28985 0.0
C3665 C 0.42799 0.01307 0.28252 0.0
C3666 C 0.39875 0.00102 0.29948 0.0
C3667 C 0.41992 0.02223 0.28403 0.0
C3668 C 0.37697 0.00547 0.31217 0.0
C3669 C 0.36179 0.97338 0.32321 0.0
N3670 N 0.40575 0.01608 0.29236 0.0
N3671 N 0.37565 0.97943 0.31439 0.0
H3672 H 0.65559 0.017 0.30648 0.0
H3673 H 0.5716 0.01876 0.30915 0.0
H3674 H 0.61607 0.98732 0.33882 0.0
H3675 H 0.61186 0.05149 0.27919 0.0
H3676 H 0.58707 0.0055 0.31825 0.0
H3677 H 0.63926 0.02843 0.29462 0.0
C3678 C 0.64348 0.01286 0.31105 0.0
C3679 C 0.63721 0.00125 0.32371 0.0
C3680 C 0.59251 0.01549 0.30958 0.0
C3681 C 0.61847 0.0142 0.3102 0.0
C3682 C 0.58364 0.023 0.30433 0.0
C3683 C 0.59041 0.03612 0.2933 0.0
C3684 C 0.60837 0.02124 0.30389 0.0
C3685 C 0.60616 0.04129 0.28759 0.0
C3686 C 0.63416 0.01938 0.30428 0.0
C3687 C 0.62143 0.9963 0.32914 0.0
N3688 N 0.61464 0.03387 0.293 0.0
N3689 N 0.61264 0.00281 0.32238 0.0
H3690 H 0.03779 0.6519 0.31509 0.0
H3691 H 0.94932 0.56922 0.27494 0.0
H3692 H 0.99118 0.6502 0.31401 0.0
H3693 H 0.00405 0.57087 0.28677 0.0
H3694 H 0.96489 0.60205 0.28945 0.0
H3695 H 0.02485 0.62438 0.30264 0.0
C3696 C 0.02486 0.64584 0.31212 0.0
C3697 C 0.01557 0.65343 0.31573 0.0
C3698 C 0.97142 0.59529 0.28866 0.0
C3699 C 0.0007 0.62177 0.30153 0.0
C3700 C 0.96133 0.57468 0.28075 0.0
C3701 C 0.97592 0.56714 0.27677 0.0
C3702 C 0.99246 0.60474 0.29498 0.0
C3703 C 0.99591 0.57584 0.28806 0.0
C3704 C 0.01748 0.63005 0.30508 0.0
C3705 C 0.99884 0.64485 0.31153 0.0
N3706 N 0.00253 0.59463 0.29469 0.0
N3707 N 0.99191 0.62942 0.30468 0.0
H3708 H 0.37636 0.38397 0.34481 0.0
H3709 H 0.43559 0.38337 0.27484 0.0
H3710 H 0.36198 0.34438 0.30881 0.0
H3711 H 0.44963 0.42252 0.31122 0.0
H3712 H 0.40836 0.36908 0.28663 0.0
H3713 H 0.40312 0.39841 0.33233 0.0
C3714 C 0.37884 0.3783 0.33428 0.0
C3715 C 0.36691 0.36293 0.32786 0.0
C3716 C 0.41736 0.38085 0.29197 0.0
C3717 C 0.39758 0.37944 0.31345 0.0
C3718 C 0.43285 0.38903 0.28519 0.0
C3719 C 0.44477 0.40429 0.29189 0.0
C3720 C 0.41379 0.3879 0.30565 0.0
C3721 C 0.44072 0.4109 0.30554 0.0
C3722 C 0.39413 0.38657 0.32714 0.0
C3723 C 0.37082 0.3562 0.31418 0.0
N3724 N 0.42558 0.40269 0.31195 0.0
N3725 N 0.38581 0.3645 0.30743 0.0
H3726 H 0.31163 0.2818 0.37692 0.0
H3727 H 0.3979 0.29328 0.40717 0.0
H3728 H 0.35586 0.32892 0.37834 0.0
H3729 H 0.357 0.24692 0.39099 0.0
H3730 H 0.38142 0.30661 0.40215 0.0
H3731 H 0.32693 0.26909 0.38782 0.0
C3732 C 0.32452 0.28956 0.3797 0.0
C3733 C 0.33247 0.30649 0.3765 0.0
C3734 C 0.37605 0.29351 0.39983 0.0
C3735 C 0.35009 0.29187 0.38899 0.0
C3736 C 0.38542 0.28591 0.40269 0.0
C3737 C 0.37886 0.26903 0.39924 0.0
C3738 C 0.35996 0.2841 0.39369 0.0
C3739 C 0.36257 0.25999 0.39365 0.0
C3740 C 0.33326 0.28223 0.38587 0.0
C3741 C 0.34922 0.31582 0.38046 0.0
N3742 N 0.35371 0.26764 0.39099 0.0
N3743 N 0.35749 0.30837 0.38639 0.0
H3744 H 0.71938 0.0307 0.37493 0.0
H3745 H 0.70549 0.10709 0.39319 0.0
H3746 H 0.67182 0.02681 0.37325 0.0
H3747 H 0.75094 0.11157 0.37752 0.0
H3748 H 0.69338 0.07702 0.39256 0.0
H3749 H 0.73133 0.05963 0.38297 0.0
C3750 C 0.71137 0.03581 0.37651 0.0
C3751 C 0.69454 0.02628 0.37314 0.0
C3752 C 0.70604 0.08462 0.38942 0.0
C3753 C 0.70828 0.05954 0.38233 0.0
C3754 C 0.71293 0.10173 0.38977 0.0
C3755 C 0.72916 0.1118 0.38514 0.0
C3756 C 0.71552 0.07757 0.38465 0.0
C3757 C 0.73835 0.10426 0.38102 0.0
C3758 C 0.71826 0.05239 0.38103 0.0
C3759 C 0.68486 0.03368 0.37552 0.0
N3760 N 0.73139 0.08761 0.38081 0.0
N3761 N 0.69189 0.04991 0.37983 0.0
H3762 H 0.96438 0.67554 0.34339 0.0
H3763 H 0.91385 0.63192 0.42388 0.0
H3764 H 0.98507 0.66419 0.38616 0.0
H3765 H 0.89056 0.62567 0.37563 0.0
H3766 H 0.9404 0.64722 0.41107 0.0
H3767 H 0.9374 0.66055 0.35582 0.0
C3768 C 0.96325 0.66993 0.35539 0.0
C3769 C 0.97695 0.67108 0.36376 0.0
C3770 C 0.92949 0.64246 0.40327 0.0
C3771 C 0.94631 0.65414 0.37804 0.0
C3772 C 0.91435 0.63372 0.41057 0.0
C3773 C 0.89998 0.62731 0.40077 0.0
C3774 C 0.93033 0.64509 0.38607 0.0
C3775 C 0.90133 0.63029 0.38361 0.0
C3776 C 0.94788 0.66135 0.36243 0.0
C3777 C 0.97482 0.66356 0.37925 0.0
N3778 N 0.91626 0.63901 0.37679 0.0
N3779 N 0.95982 0.6555 0.38592 0.0
H3780 H 0.38802 0.03793 0.71461 0.0
H3781 H 0.39377 0.95107 0.73762 0.0
H3782 H 0.35245 0.98924 0.69687 0.0
H3783 H 0.42565 0.00748 0.76791 0.0
H3784 H 0.37617 0.9649 0.72069 0.0
H3785 H 0.40064 0.02582 0.73202 0.0
C3786 C 0.38283 0.02469 0.71439 0.0
C3787 C 0.36914 0.01458 0.70424 0.0
C3788 C 0.38548 0.97206 0.73001 0.0
C3789 C 0.38361 0.00072 0.7241 0.0
C3790 C 0.39547 0.96304 0.7411 0.0
C3791 C 0.41371 0.97875 0.75301 0.0
C3792 C 0.39137 0.99318 0.73398 0.0
C3793 C 0.41569 0.99869 0.76 0.0
C3794 C 0.39002 0.0178 0.72439 0.0
C3795 C 0.36294 0.99749 0.70455 0.0
N3796 N 0.40505 0.00427 0.74835 0.0
N3797 N 0.37032 0.99108 0.71424 0.0
H3798 H 0.99584 0.36584 0.67408 0.0
H3799 H 0.97335 0.404 0.7494 0.0
H3800 H 0.99095 0.34604 0.72323 0.0
H3801 H 0.99959 0.433 0.70757 0.0
H3802 H 0.97933 0.38248 0.74038 0.0
H3803 H 0.99719 0.39056 0.68615 0.0
C3804 C 0.99531 0.36685 0.68747 0.0
C3805 C 0.99324 0.35392 0.6977 0.0
C3806 C 0.98405 0.39371 0.73339 0.0
C3807 C 0.99435 0.38195 0.71156 0.0
C3808 C 0.98066 0.406 0.73852 0.0
C3809 C 0.98619 0.42043 0.72932 0.0
C3810 C 0.99262 0.39566 0.71871 0.0
C3811 C 0.99526 0.42215 0.7151 0.0
C3812 C 0.9961 0.38095 0.69435 0.0
C3813 C 0.99262 0.35581 0.71495 0.0
N3814 N 0.99803 0.40984 0.71012 0.0
N3815 N 0.99285 0.36946 0.72135 0.0
H3816 H 0.63486 0.65643 0.71355 0.0
H3817 H 0.54933 0.57316 0.71899 0.0
H3818 H 0.62167 0.61351 0.68257 0.0
H3819 H 0.55985 0.61879 0.74328 0.0
H3820 H 0.57653 0.58699 0.7071 0.0
H3821 H 0.60814 0.64212 0.72611 0.0
C3822 C 0.62634 0.64397 0.70939 0.0
C3823 C 0.63049 0.63615 0.69697 0.0
C3824 C 0.57291 0.59396 0.71509 0.0
C3825 C 0.59985 0.61966 0.71136 0.0
C3826 C 0.55744 0.58606 0.72192 0.0
C3827 C 0.55241 0.59482 0.73227 0.0
C3828 C 0.58344 0.61074 0.71863 0.0
C3829 C 0.5633 0.61155 0.7355 0.0
C3830 C 0.61107 0.63581 0.71656 0.0
C3831 C 0.61896 0.62001 0.69208 0.0
N3832 N 0.5783 0.61896 0.72874 0.0
N3833 N 0.60416 0.61228 0.69931 0.0
H3834 H 0.63959 0.66845 0.64685 0.0
H3835 H 0.60124 0.70687 0.60674 0.0
H3836 H 0.68284 0.71628 0.64609 0.0
H3837 H 0.6412 0.75152 0.62765 0.0
H3838 H 0.61505 0.69183 0.61569 0.0
H3839 H 0.62396 0.6803 0.63473 0.0
C3840 C 0.64587 0.68138 0.64389 0.0
C3841 C 0.6626 0.69134 0.64752 0.0
C3842 C 0.62076 0.70487 0.61848 0.0
C3843 C 0.64476 0.70503 0.63336 0.0
C3844 C 0.61295 0.71348 0.6132 0.0
C3845 C 0.6202 0.73049 0.61625 0.0
C3846 C 0.63586 0.71333 0.62707 0.0
C3847 C 0.63529 0.73846 0.62484 0.0
C3848 C 0.63692 0.68815 0.63683 0.0
C3849 C 0.67 0.70807 0.64351 0.0
N3850 N 0.64264 0.72983 0.62987 0.0
N3851 N 0.66101 0.71438 0.6368 0.0
H3852 H 0.32977 0.9771 0.63505 0.0
H3853 H 0.24841 0.88991 0.64258 0.0
H3854 H 0.29252 0.96666 0.67089 0.0
H3855 H 0.28692 0.89801 0.60932 0.0
H3856 H 0.26442 0.91835 0.65265 0.0
H3857 H 0.31429 0.94847 0.62491 0.0
C3858 C 0.31837 0.9688 0.64079 0.0
C3859 C 0.31242 0.97427 0.65381 0.0
C3860 C 0.2694 0.91396 0.64313 0.0
C3861 C 0.29468 0.94162 0.6423 0.0
C3862 C 0.26024 0.89773 0.63738 0.0
C3863 C 0.26628 0.89167 0.62499 0.0
C3864 C 0.28477 0.92425 0.63648 0.0
C3865 C 0.28176 0.90227 0.61878 0.0
C3866 C 0.30955 0.95247 0.63501 0.0
C3867 C 0.29758 0.96301 0.6608 0.0
N3868 N 0.29046 0.91808 0.62455 0.0
N3869 N 0.28924 0.94726 0.65495 0.0
H3870 H 0.02489 0.34504 0.65041 0.0
H3871 H 0.10588 0.34414 0.62441 0.0
H3872 H 0.03086 0.30214 0.65293 0.0
H3873 H 0.09736 0.38445 0.61373 0.0
H3874 H 0.07859 0.3289 0.63561 0.0
H3875 H 0.05157 0.36005 0.63765 0.0
C3876 C 0.03175 0.33875 0.64826 0.0
C3877 C 0.02556 0.32227 0.65278 0.0
C3878 C 0.08259 0.34101 0.63067 0.0
C3879 C 0.05615 0.33943 0.63824 0.0
C3880 C 0.09815 0.34968 0.6242 0.0
C3881 C 0.10374 0.36543 0.61773 0.0
C3882 C 0.07259 0.34822 0.63099 0.0
C3883 C 0.09338 0.37221 0.61829 0.0
C3884 C 0.04698 0.34733 0.64094 0.0
C3885 C 0.03505 0.31479 0.64964 0.0
N3886 N 0.07831 0.36358 0.6248 0.0
N3887 N 0.04985 0.32344 0.64265 0.0
H3888 H 0.28173 0.32755 0.67176 0.0
H3889 H 0.28968 0.40371 0.61968 0.0
H3890 H 0.32313 0.35779 0.64177 0.0
H3891 H 0.24801 0.37229 0.64869 0.0
H3892 H 0.30151 0.38615 0.62613 0.0
H3893 H 0.26858 0.34291 0.66207 0.0
C3894 C 0.28803 0.33739 0.66308 0.0
C3895 C 0.30359 0.34144 0.65763 0.0
C3896 C 0.2897 0.38298 0.63093 0.0
C3897 C 0.2886 0.35917 0.6465 0.0
C3898 C 0.28293 0.39295 0.62718 0.0
C3899 C 0.26777 0.38931 0.63351 0.0
C3900 C 0.28132 0.36937 0.64121 0.0
C3901 C 0.25965 0.37542 0.64343 0.0
C3902 C 0.28051 0.34616 0.65753 0.0
C3903 C 0.31114 0.35428 0.64632 0.0
N3904 N 0.26654 0.366 0.64702 0.0
N3905 N 0.30361 0.36274 0.6412 0.0
H3906 H 0.69465 0.97322 0.6361 0.0
H3907 H 0.60468 0.90077 0.61256 0.0
H3908 H 0.65229 0.97954 0.6367 0.0
H3909 H 0.64471 0.89309 0.62653 0.0
H3910 H 0.62293 0.9306 0.6155 0.0
H3911 H 0.6774 0.94488 0.62647 0.0
C3912 C 0.68176 0.96877 0.63401 0.0
C3913 C 0.67492 0.97881 0.63745 0.0
C3914 C 0.62773 0.92237 0.61778 0.0
C3915 C 0.65507 0.9462 0.62643 0.0
C3916 C 0.61734 0.90539 0.61609 0.0
C3917 C 0.62315 0.89446 0.61958 0.0
C3918 C 0.64407 0.92844 0.62276 0.0
C3919 C 0.6397 0.90107 0.6239 0.0
C3920 C 0.67191 0.95252 0.62856 0.0
C3921 C 0.65811 0.97225 0.63438 0.0
N3922 N 0.64955 0.91761 0.62545 0.0
N3923 N 0.64874 0.95632 0.62917 0.0
H3924 H 0.01995 0.67728 0.63944 0.0
H3925 H 0.10904 0.75675 0.64488 0.0
H3926 H 0.03302 0.71967 0.67119 0.0
H3927 H 0.0975 0.7136 0.61511 0.0
H3928 H 0.08067 0.7439 0.65321 0.0
H3929 H 0.04777 0.69077 0.62911 0.0
C3930 C 0.02866 0.68942 0.64423 0.0
C3931 C 0.02417 0.69734 0.65623 0.0
C3932 C 0.08426 0.73726 0.64474 0.0
C3933 C 0.05598 0.71286 0.64445 0.0
C3934 C 0.10044 0.74463 0.63992 0.0
C3935 C 0.10556 0.73631 0.62911 0.0
C3936 C 0.07308 0.72133 0.63884 0.0
C3937 C 0.09398 0.72051 0.62329 0.0
C3938 C 0.04453 0.69712 0.63832 0.0
C3939 C 0.03594 0.71308 0.66197 0.0
N3940 N 0.07829 0.71351 0.62825 0.0
N3941 N 0.05128 0.7203 0.65604 0.0
H3942 H 0.96242 0.62763 0.71997 0.0
H3943 H 0.03736 0.61259 0.73618 0.0
H3944 H 0.00964 0.65885 0.69935 0.0
H3945 H 0.99581 0.59396 0.76789 0.0
H3946 H 0.02728 0.62891 0.72156 0.0
H3947 H 0.97419 0.61429 0.73673 0.0
C3948 C 0.97531 0.63175 0.71904 0.0
C3949 C 0.98506 0.64435 0.70821 0.0
C3950 C 0.02041 0.62126 0.73174 0.0
C3951 C 0.99858 0.62897 0.72726 0.0
C3952 C 0.02609 0.6119 0.73999 0.0
C3953 C 0.01715 0.60155 0.75291 0.0
C3954 C 0.00567 0.62022 0.73645 0.0
C3955 C 0.00285 0.60142 0.75769 0.0
C3956 C 0.98202 0.62415 0.72866 0.0
C3957 C 0.00169 0.64923 0.7076 0.0
N3958 N 0.99746 0.61045 0.74933 0.0
N3959 N 0.00791 0.6414 0.71686 0.0
H3960 H 0.33502 0.36001 0.70932 0.0
H3961 H 0.41607 0.44597 0.7201 0.0
H3962 H 0.38317 0.36553 0.70734 0.0
H3963 H 0.36922 0.43869 0.73455 0.0
H3964 H 0.40426 0.41622 0.71667 0.0
H3965 H 0.3471 0.38829 0.71998 0.0
C3966 C 0.3481 0.36705 0.71134 0.0
C3967 C 0.35808 0.36038 0.70722 0.0
C3968 C 0.39657 0.42108 0.72076 0.0
C3969 C 0.37199 0.39286 0.71924 0.0
C3970 C 0.40331 0.43806 0.7227 0.0
C3971 C 0.39356 0.44479 0.72742 0.0
C3972 C 0.37987 0.41072 0.72332 0.0
C3973 C 0.37711 0.43398 0.73071 0.0
C3974 C 0.35498 0.38322 0.71743 0.0
C3975 C 0.37495 0.37012 0.71021 0.0
N3976 N 0.37072 0.41748 0.72838 0.0
N3977 N 0.38137 0.38592 0.7158 0.0
H3978 H 0.63834 0.02199 0.66914 0.0
H3979 H 0.57769 0.97298 0.74234 0.0
H3980 H 0.64857 0.99436 0.7055 0.0
H3981 H 0.57062 0.00455 0.70844 0.0
H3982 H 0.60339 0.98004 0.72888 0.0
H3983 H 0.61302 0.01486 0.68301 0.0
C3984 C 0.63523 0.01436 0.68002 0.0
C3985 C 0.6456 0.00877 0.68618 0.0
C3986 C 0.59628 0.98553 0.72448 0.0
C3987 C 0.61657 0.00059 0.70221 0.0
C3988 C 0.58168 0.98157 0.73221 0.0
C3989 C 0.57221 0.98849 0.72671 0.0
C3990 C 0.60132 0.99629 0.71101 0.0
C3991 C 0.5777 0.99919 0.71325 0.0
C3992 C 0.62077 0.01033 0.68798 0.0
C3993 C 0.64093 0.99893 0.70034 0.0
N3994 N 0.59187 0.00276 0.70588 0.0
N3995 N 0.62674 0.99516 0.70789 0.0
loop_
_geom_bond_atom_site_label_1
_geom_bond_atom_site_label_2
_geom_bond_distance
_geom_bond_site_symmetry_2
_ccdc_geom_bond_type
Mn0 O5 2.095 1_655 S
Mn0 O15 2.162 . S
Mn0 O16 2.297 1_554 S
Mn0 O24 2.385 1_554 S
Mn0 O25 2.209 1_654 S
Mn0 O26 2.094 . S
Mn1 O6 2.121 . S
Mn1 N8 2.257 1_554 S
Mn1 N17 2.282 . S
Mn1 O25 2.215 1_554 S
Mn1 O27 2.117 . S
C2 O24 1.234 1_455 S
C2 O25 1.283 . S
C3 O15 1.281 1_556 S
C3 O16 1.236 . S
C4 O26 1.250 . S
C4 O27 1.235 1_655 S
O5 Mn0 2.095 1_455 S
O5 C14 1.250 . S
O6 Mn1 2.121 . S
O6 C14 1.258 . S
C7 N8 1.326 . S
C7 C11 1.460 . S
C7 H13 0.917 1_556 S
N8 Mn1 2.257 1_556 S
N8 C7 1.326 . S
N8 C12 1.362 . S
C9 C10 1.258 . S
C9 C12 1.431 . S
C9 C29 1.449 . S
C10 C9 1.258 . S
C10 C11 1.477 . S
C10 H30 0.931 . S
C11 C7 1.460 . S
C11 C10 1.477 . S
C11 H31 0.930 . S
C12 N8 1.362 . S
C12 C9 1.431 . S
C12 C22 1.476 . S
H13 C7 0.917 1_554 S
C14 O5 1.250 . S
C14 O6 1.258 . S
O15 Mn0 2.162 . S
O15 C3 1.281 1_554 S
O16 Mn0 2.297 1_556 S
O16 C3 1.236 . S
N17 Mn1 2.282 . S
N17 C18 1.328 . S
N17 C22 1.318 1_554 S
C18 N17 1.328 . S
C18 C19 1.440 1_554 S
C18 H23 0.929 . S
C19 C18 1.440 1_556 S
C19 C20 1.314 . S
C19 H32 0.922 1_556 S
C20 C19 1.314 . S
C20 C21 1.373 . S
C20 H33 0.929 . S
C21 C20 1.373 . S
C21 C22 1.396 . S
C21 C28 1.403 . S
C22 C12 1.476 . S
C22 N17 1.318 1_556 S
C22 C21 1.396 . S
H23 C18 0.929 . S
O24 Mn0 2.385 1_556 S
O24 C2 1.234 1_655 S
O25 Mn0 2.209 1_456 S
O25 Mn1 2.215 1_556 S
O25 C2 1.283 . S
O26 Mn0 2.094 . S
O26 C4 1.250 . S
O27 Mn1 2.117 . S
O27 C4 1.235 1_455 S
C28 C21 1.403 . S
C28 C29 1.399 . S
C28 H34 0.929 . S
C29 C9 1.449 . S
C29 C28 1.399 . S
C29 H35 0.930 . S
H30 C10 0.931 . S
H31 C11 0.930 . S
H32 C19 0.922 1_554 S
H33 C20 0.929 . S
H34 C28 0.929 . S
H35 C29 0.930 . S
Mn36 O41 2.095 1_554 S
Mn36 O51 2.162 . S
Mn36 O52 2.297 . S
Mn36 O60 2.385 . S
Mn36 O61 2.209 . S
Mn36 O62 2.094 1_554 S
Mn37 O42 2.121 1_554 S
Mn37 N44 2.257 . S
Mn37 N53 2.282 . S
Mn37 O61 2.215 . S
Mn37 O63 2.117 1_554 S
C38 O60 1.234 . S
C38 O61 1.283 . S
C39 O51 1.281 . S
C39 O52 1.236 . S
C40 O62 1.240 . S
C40 O63 1.264 . S
O41 Mn36 2.095 1_556 S
O41 C50 1.250 . S
O42 Mn37 2.121 1_556 S
O42 C50 1.258 . S
C43 N44 1.326 . S
C43 C47 1.460 . S
C43 H49 0.929 . S
N44 Mn37 2.257 . S
N44 C43 1.326 . S
N44 C48 1.362 . S
C45 C46 1.258 . S
C45 C48 1.431 . S
C45 C65 1.449 . S
C46 C45 1.258 . S
C46 C47 1.477 . S
C46 H66 0.931 . S
C47 C43 1.460 . S
C47 C46 1.477 . S
C47 H67 0.930 . S
C48 N44 1.362 . S
C48 C45 1.431 . S
C48 C58 1.476 . S
H49 C43 0.929 . S
C50 O41 1.250 . S
C50 O42 1.258 . S
O51 Mn36 2.162 . S
O51 C39 1.281 . S
O52 Mn36 2.297 . S
O52 C39 1.236 . S
N53 Mn37 2.282 . S
N53 C54 1.328 . S
N53 C58 1.318 . S
C54 N53 1.328 . S
C54 C55 1.457 . S
C54 H59 0.929 . S
C55 C54 1.457 . S
C55 C56 1.291 . S
C55 H68 0.931 . S
C56 C55 1.291 . S
C56 C57 1.373 . S
C56 H69 0.929 . S
C57 C56 1.373 . S
C57 C58 1.396 . S
C57 C64 1.403 . S
C58 C48 1.476 . S
C58 N53 1.318 . S
C58 C57 1.396 . S
H59 C54 0.929 . S
O60 Mn36 2.385 . S
O60 C38 1.234 . S
O61 Mn36 2.209 . S
O61 Mn37 2.215 . S
O61 C38 1.283 . S
O62 Mn36 2.094 1_556 S
O62 C40 1.240 . S
O63 Mn37 2.117 1_556 S
O63 C40 1.264 . S
C64 C57 1.403 . S
C64 C65 1.399 . S
C64 H70 0.929 . S
C65 C45 1.449 . S
C65 C64 1.399 . S
C65 H71 0.930 . S
H66 C46 0.931 . S
H67 C47 0.930 . S
H68 C55 0.931 . S
H69 C56 0.929 . S
H70 C64 0.929 . S
H71 C65 0.930 . S
Mn72 O77 2.095 1_564 S
Mn72 O87 2.162 . S
Mn72 O88 2.297 . S
Mn72 O96 2.385 . S
Mn72 O97 2.209 1_565 S
Mn72 O98 2.094 1_554 S
Mn73 O78 2.111 1_554 S
Mn73 N80 2.296 . S
Mn73 N89 2.306 . S
Mn73 O97 2.262 . S
Mn73 O99 2.081 1_554 S
C74 O96 1.234 1_545 S
C74 O97 1.283 . S
C75 O87 1.281 . S
C75 O88 1.236 . S
C76 O98 1.240 . S
C76 O99 1.264 1_565 S
O77 Mn72 2.095 1_546 S
O77 C86 1.250 . S
O78 Mn73 2.111 1_556 S
O78 C86 1.258 . S
C79 N80 1.326 . S
C79 C83 1.460 . S
C79 H85 0.929 . S
N80 Mn73 2.296 . S
N80 C79 1.326 . S
N80 C84 1.362 . S
C81 C82 1.258 . S
C81 C84 1.431 . S
C81 C101 1.449 . S
C82 C81 1.258 . S
C82 C83 1.477 . S
C82 H102 0.931 . S
C83 C79 1.460 . S
C83 C82 1.477 . S
C83 H103 0.930 . S
C84 N80 1.362 . S
C84 C81 1.431 . S
C84 C94 1.476 . S
H85 C79 0.929 . S
C86 O77 1.250 . S
C86 O78 1.258 . S
O87 Mn72 2.162 . S
O87 C75 1.281 . S
O88 Mn72 2.297 . S
O88 C75 1.236 . S
N89 Mn73 2.306 . S
N89 C90 1.328 . S
N89 C94 1.318 . S
C90 N89 1.328 . S
C90 C91 1.457 . S
C90 H95 0.929 . S
C91 C90 1.457 . S
C91 C92 1.291 . S
C91 H104 0.931 . S
C92 C91 1.291 . S
C92 C93 1.373 . S
C92 H105 0.929 . S
C93 C92 1.373 . S
C93 C94 1.396 . S
C93 C100 1.403 . S
C94 C84 1.476 . S
C94 N89 1.318 . S
C94 C93 1.396 . S
H95 C90 0.929 . S
O96 Mn72 2.385 . S
O96 C74 1.234 1_565 S
O97 Mn72 2.209 1_545 S
O97 Mn73 2.262 . S
O97 C74 1.283 . S
O98 Mn72 2.094 1_556 S
O98 C76 1.240 . S
O99 Mn73 2.081 1_556 S
O99 C76 1.264 1_545 S
C100 C93 1.403 . S
C100 C101 1.399 . S
C100 H106 0.929 . S
C101 C81 1.449 . S
C101 C100 1.399 . S
C101 H107 0.930 . S
H102 C82 0.931 . S
H103 C83 0.930 . S
H104 C91 0.931 . S
H105 C92 0.929 . S
H106 C100 0.929 . S
H107 C101 0.930 . S
Mn108 O113 2.095 1_655 S
Mn108 O123 2.162 . S
Mn108 O124 2.297 1_554 S
Mn108 O132 2.385 1_554 S
Mn108 O133 2.209 1_654 S
Mn108 O134 2.094 . S
Mn109 O114 2.121 . S
Mn109 N116 2.257 . S
Mn109 N125 2.282 . S
Mn109 O133 2.215 1_554 S
Mn109 O135 2.117 . S
C110 O132 1.234 1_455 S
C110 O133 1.283 . S
C111 O123 1.281 1_556 S
C111 O124 1.236 . S
C112 O134 1.240 . S
C112 O135 1.264 1_655 S
O113 Mn108 2.095 1_455 S
O113 C122 1.250 . S
O114 Mn109 2.121 . S
O114 C122 1.258 . S
C115 N116 1.330 . S
C115 C119 1.448 1_554 S
C115 H121 0.938 . S
N116 Mn109 2.257 . S
N116 C115 1.330 . S
N116 C120 1.362 1_554 S
C117 C118 1.258 . S
C117 C120 1.431 . S
C117 C137 1.449 . S
C118 C117 1.258 . S
C118 C119 1.477 . S
C118 H138 0.931 . S
C119 C115 1.448 1_556 S
C119 C118 1.477 . S
C119 H139 0.930 . S
C120 N116 1.362 1_556 S
C120 C117 1.431 . S
C120 C130 1.476 . S
H121 C115 0.938 . S
C122 O113 1.250 . S
C122 O114 1.258 . S
O123 Mn108 2.162 . S
O123 C111 1.281 1_554 S
O124 Mn108 2.297 1_556 S
O124 C111 1.236 . S
N125 Mn109 2.282 . S
N125 C126 1.328 . S
N125 C130 1.318 1_554 S
C126 N125 1.328 . S
C126 C127 1.457 . S
C126 H131 0.929 . S
C127 C126 1.457 . S
C127 C128 1.291 1_554 S
C127 H140 0.931 . S
C128 C127 1.291 1_556 S
C128 C129 1.373 . S
C128 H141 0.929 . S
C129 C128 1.373 . S
C129 C130 1.396 . S
C129 C136 1.403 . S
C130 C120 1.476 . S
C130 N125 1.318 1_556 S
C130 C129 1.396 . S
H131 C126 0.929 . S
O132 Mn108 2.385 1_556 S
O132 C110 1.234 1_655 S
O133 Mn108 2.209 1_456 S
O133 Mn109 2.215 1_556 S
O133 C110 1.283 . S
O134 Mn108 2.094 . S
O134 C112 1.240 . S
O135 Mn109 2.117 . S
O135 C112 1.264 1_455 S
C136 C129 1.403 . S
C136 C137 1.399 . S
C136 H142 0.929 . S
C137 C117 1.449 . S
C137 C136 1.399 . S
C137 H143 0.930 . S
H138 C118 0.931 . S
H139 C119 0.930 . S
H140 C127 0.931 . S
H141 C128 0.929 . S
H142 C136 0.929 . S
H143 C137 0.930 . S
Mn144 O149 2.095 1_554 S
Mn144 O159 2.162 . S
Mn144 O160 2.297 . S
Mn144 O168 2.385 . S
Mn144 O169 2.209 . S
Mn144 O170 2.094 1_554 S
Mn145 O150 2.121 . S
Mn145 N152 2.257 1_556 S
Mn145 N161 2.282 1_556 S
Mn145 O169 2.215 1_556 S
Mn145 O171 2.117 . S
C146 O168 1.234 . S
C146 O169 1.283 . S
C147 O159 1.281 . S
C147 O160 1.236 . S
C148 O170 1.240 . S
C148 O171 1.264 . S
O149 Mn144 2.095 1_556 S
O149 C158 1.250 . S
O150 Mn145 2.121 . S
O150 C158 1.258 . S
C151 N152 1.326 . S
C151 C155 1.460 . S
C151 H157 0.929 . S
N152 Mn145 2.257 1_554 S
N152 C151 1.326 . S
N152 C156 1.362 . S
C153 C154 1.258 . S
C153 C156 1.431 . S
C153 C173 1.449 . S
C154 C153 1.258 . S
C154 C155 1.477 . S
C154 H174 0.931 . S
C155 C151 1.460 . S
C155 C154 1.477 . S
C155 H175 0.930 . S
C156 N152 1.362 . S
C156 C153 1.431 . S
C156 C166 1.476 . S
H157 C151 0.929 . S
C158 O149 1.250 . S
C158 O150 1.258 . S
O159 Mn144 2.162 . S
O159 C147 1.281 . S
O160 Mn144 2.297 . S
O160 C147 1.236 . S
N161 Mn145 2.282 1_554 S
N161 C162 1.328 . S
N161 C166 1.318 . S
C162 N161 1.328 . S
C162 C163 1.457 . S
C162 H167 0.929 1_554 S
C163 C162 1.457 . S
C163 C164 1.291 . S
C163 H176 0.931 . S
C164 C163 1.291 . S
C164 C165 1.373 . S
C164 H177 0.929 . S
C165 C164 1.373 . S
C165 C166 1.396 . S
C165 C172 1.403 . S
C166 C156 1.476 . S
C166 N161 1.318 . S
C166 C165 1.396 . S
H167 C162 0.929 1_556 S
O168 Mn144 2.385 . S
O168 C146 1.234 . S
O169 Mn144 2.209 . S
O169 Mn145 2.215 1_554 S
O169 C146 1.283 . S
O170 Mn144 2.094 1_556 S
O170 C148 1.240 . S
O171 Mn145 2.117 . S
O171 C148 1.264 . S
C172 C165 1.403 . S
C172 C173 1.399 . S
C172 H178 0.929 . S
C173 C153 1.449 . S
C173 C172 1.399 . S
C173 H179 0.930 . S
H174 C154 0.931 . S
H175 C155 0.930 . S
H176 C163 0.931 . S
H177 C164 0.929 . S
H178 C172 0.929 . S
H179 C173 0.930 . S
Mn180 O185 2.095 1_545 S
Mn180 O195 2.162 . S
Mn180 O196 2.297 1_554 S
Mn180 O204 2.385 1_554 S
Mn180 O205 2.211 1_544 S
Mn180 O206 2.094 . S
Mn181 O186 2.121 . S
Mn181 N188 2.257 . S
Mn181 N197 2.282 . S
Mn181 O205 2.218 1_554 S
Mn181 O207 2.117 . S
C182 O204 1.234 1_565 S
C182 O205 1.281 . S
C183 O195 1.281 1_556 S
C183 O196 1.236 . S
C184 O206 1.240 . S
C184 O207 1.264 1_545 S
O185 Mn180 2.095 1_565 S
O185 C194 1.250 . S
O186 Mn181 2.121 . S
O186 C194 1.258 . S
C187 N188 1.335 . S
C187 C191 1.432 1_554 S
C187 H193 0.951 . S
N188 Mn181 2.257 . S
N188 C187 1.335 . S
N188 C192 1.362 1_554 S
C189 C190 1.258 . S
C189 C192 1.431 . S
C189 C209 1.449 . S
C190 C189 1.258 . S
C190 C191 1.477 . S
C190 H210 0.931 . S
C191 C187 1.432 1_556 S
C191 C190 1.477 . S
C191 H211 0.930 . S
C192 N188 1.362 1_556 S
C192 C189 1.431 . S
C192 C202 1.476 . S
H193 C187 0.951 . S
C194 O185 1.250 . S
C194 O186 1.258 . S
O195 Mn180 2.162 . S
O195 C183 1.281 1_554 S
O196 Mn180 2.297 1_556 S
O196 C183 1.236 . S
N197 Mn181 2.282 . S
N197 C198 1.328 . S
N197 C202 1.318 1_554 S
C198 N197 1.328 . S
C198 C199 1.457 . S
C198 H203 0.929 . S
C199 C198 1.457 . S
C199 C200 1.291 1_554 S
C199 H212 0.931 . S
C200 C199 1.291 1_556 S
C200 C201 1.373 . S
C200 H213 0.929 . S
C201 C200 1.373 . S
C201 C202 1.396 . S
C201 C208 1.403 . S
C202 C192 1.476 . S
C202 N197 1.318 1_556 S
C202 C201 1.396 . S
H203 C198 0.929 . S
O204 Mn180 2.385 1_556 S
O204 C182 1.234 1_545 S
O205 Mn180 2.211 1_566 S
O205 Mn181 2.218 1_556 S
O205 C182 1.281 . S
O206 Mn180 2.094 . S
O206 C184 1.240 . S
O207 Mn181 2.117 . S
O207 C184 1.264 1_565 S
C208 C201 1.403 . S
C208 C209 1.399 . S
C208 H214 0.929 . S
C209 C189 1.449 . S
C209 C208 1.399 . S
C209 H215 0.930 . S
H210 C190 0.931 . S
H211 C191 0.930 . S
H212 C199 0.931 . S
H213 C200 0.929 . S
H214 C208 0.929 . S
H215 C209 0.930 . S
Mn216 O221 2.095 . S
Mn216 O231 2.162 . S
Mn216 O232 2.297 . S
Mn216 O240 2.385 . S
Mn216 O241 2.209 . S
Mn216 O242 2.094 . S
Mn217 O222 2.121 . S
Mn217 N224 2.257 . S
Mn217 N233 2.282 . S
Mn217 O241 2.215 . S
Mn217 O243 2.117 . S
C218 O240 1.234 . S
C218 O241 1.283 . S
C219 O231 1.281 . S
C219 O232 1.236 . S
C220 O242 1.240 . S
C220 O243 1.264 . S
O221 Mn216 2.095 . S
O221 C230 1.250 . S
O222 Mn217 2.121 . S
O222 C230 1.258 . S
C223 N224 1.326 . S
C223 C227 1.460 . S
C223 H229 0.929 . S
N224 Mn217 2.257 . S
N224 C223 1.326 . S
N224 C228 1.362 . S
C225 C226 1.258 . S
C225 C228 1.431 . S
C225 C245 1.449 . S
C226 C225 1.258 . S
C226 C227 1.477 . S
C226 H246 0.931 . S
C227 C223 1.460 . S
C227 C226 1.477 . S
C227 H247 0.930 . S
C228 N224 1.362 . S
C228 C225 1.431 . S
C228 C238 1.476 . S
H229 C223 0.929 . S
C230 O221 1.250 . S
C230 O222 1.258 . S
O231 Mn216 2.162 . S
O231 C219 1.281 . S
O232 Mn216 2.297 . S
O232 C219 1.236 . S
N233 Mn217 2.282 . S
N233 C234 1.328 . S
N233 C238 1.318 . S
C234 N233 1.328 . S
C234 C235 1.457 . S
C234 H239 0.929 . S
C235 C234 1.457 . S
C235 C236 1.291 . S
C235 H248 0.931 . S
C236 C235 1.291 . S
C236 C237 1.373 . S
C236 H249 0.929 . S
C237 C236 1.373 . S
C237 C238 1.396 . S
C237 C244 1.403 . S
C238 C228 1.476 . S
C238 N233 1.318 . S
C238 C237 1.396 . S
H239 C234 0.929 . S
O240 Mn216 2.385 . S
O240 C218 1.234 . S
O241 Mn216 2.209 . S
O241 Mn217 2.215 . S
O241 C218 1.283 . S
O242 Mn216 2.094 . S
O242 C220 1.240 . S
O243 Mn217 2.117 . S
O243 C220 1.264 . S
C244 C237 1.403 . S
C244 C245 1.399 . S
C244 H250 0.929 . S
C245 C225 1.449 . S
C245 C244 1.399 . S
C245 H251 0.930 . S
H246 C226 0.931 . S
H247 C227 0.930 . S
H248 C235 0.931 . S
H249 C236 0.929 . S
H250 C244 0.929 . S
H251 C245 0.930 . S
Mn252 O257 2.095 . S
Mn252 O267 2.162 1_565 S
Mn252 O268 2.297 1_565 S
Mn252 O276 2.385 . S
Mn252 O277 2.209 . S
Mn252 O278 2.094 . S
Mn253 O258 2.121 . S
Mn253 N260 2.257 . S
Mn253 N269 2.282 . S
Mn253 O277 2.215 . S
Mn253 O279 2.117 . S
C254 O276 1.234 . S
C254 O277 1.283 . S
C255 O267 1.281 . S
C255 O268 1.236 . S
C256 O278 1.240 . S
C256 O279 1.264 . S
O257 Mn252 2.095 . S
O257 C266 1.250 . S
O258 Mn253 2.121 . S
O258 C266 1.258 . S
C259 N260 1.326 . S
C259 C263 1.460 . S
C259 H265 0.929 . S
N260 Mn253 2.257 . S
N260 C259 1.326 . S
N260 C264 1.362 . S
C261 C262 1.258 . S
C261 C264 1.431 . S
C261 C281 1.449 . S
C262 C261 1.258 . S
C262 C263 1.477 . S
C262 H282 0.931 . S
C263 C259 1.460 . S
C263 C262 1.477 . S
C263 H283 0.930 . S
C264 N260 1.362 . S
C264 C261 1.431 . S
C264 C274 1.476 . S
H265 C259 0.929 . S
C266 O257 1.250 . S
C266 O258 1.258 . S
O267 Mn252 2.162 1_545 S
O267 C255 1.281 . S
O268 Mn252 2.297 1_545 S
O268 C255 1.236 . S
N269 Mn253 2.282 . S
N269 C270 1.328 . S
N269 C274 1.318 . S
C270 N269 1.328 . S
C270 C271 1.457 . S
C270 H275 0.929 . S
C271 C270 1.457 . S
C271 C272 1.291 . S
C271 H284 0.931 . S
C272 C271 1.291 . S
C272 C273 1.373 . S
C272 H285 0.929 . S
C273 C272 1.373 . S
C273 C274 1.396 . S
C273 C280 1.403 . S
C274 C264 1.476 . S
C274 N269 1.318 . S
C274 C273 1.396 . S
H275 C270 0.929 . S
O276 Mn252 2.385 . S
O276 C254 1.234 . S
O277 Mn252 2.209 . S
O277 Mn253 2.215 . S
O277 C254 1.283 . S
O278 Mn252 2.094 . S
O278 C256 1.240 . S
O279 Mn253 2.117 . S
O279 C256 1.264 . S
C280 C273 1.403 . S
C280 C281 1.399 . S
C280 H286 0.929 . S
C281 C261 1.449 . S
C281 C280 1.399 . S
C281 H287 0.930 . S
H282 C262 0.931 . S
H283 C263 0.930 . S
H284 C271 0.931 . S
H285 C272 0.929 . S
H286 C280 0.929 . S
H287 C281 0.930 . S
Mn288 O293 2.095 . S
Mn288 O303 2.162 1_455 S
Mn288 O304 2.297 1_455 S
Mn288 O312 2.385 . S
Mn288 O313 2.209 . S
Mn288 O314 2.094 . S
Mn289 O294 2.121 . S
Mn289 N296 2.257 . S
Mn289 N305 2.282 . S
Mn289 O313 2.215 . S
Mn289 O315 2.117 . S
C290 O312 1.234 . S
C290 O313 1.283 . S
C291 O303 1.281 . S
C291 O304 1.236 . S
C292 O314 1.240 . S
C292 O315 1.264 . S
O293 Mn288 2.095 . S
O293 C302 1.250 . S
O294 Mn289 2.121 . S
O294 C302 1.258 . S
C295 N296 1.326 . S
C295 C299 1.460 . S
C295 H301 0.929 . S
N296 Mn289 2.257 . S
N296 C295 1.326 . S
N296 C300 1.362 . S
C297 C298 1.258 . S
C297 C300 1.431 . S
C297 C317 1.449 . S
C298 C297 1.258 . S
C298 C299 1.477 . S
C298 H318 0.931 . S
C299 C295 1.460 . S
C299 C298 1.477 . S
C299 H319 0.930 . S
C300 N296 1.362 . S
C300 C297 1.431 . S
C300 C310 1.476 . S
H301 C295 0.929 . S
C302 O293 1.250 . S
C302 O294 1.258 . S
O303 Mn288 2.162 1_655 S
O303 C291 1.281 . S
O304 Mn288 2.297 1_655 S
O304 C291 1.236 . S
N305 Mn289 2.282 . S
N305 C306 1.328 . S
N305 C310 1.318 . S
C306 N305 1.328 . S
C306 C307 1.457 . S
C306 H311 0.929 . S
C307 C306 1.457 . S
C307 C308 1.291 . S
C307 H320 0.931 . S
C308 C307 1.291 . S
C308 C309 1.373 . S
C308 H321 0.929 . S
C309 C308 1.373 . S
C309 C310 1.396 . S
C309 C316 1.403 . S
C310 C300 1.476 . S
C310 N305 1.318 . S
C310 C309 1.396 . S
H311 C306 0.929 . S
O312 Mn288 2.385 . S
O312 C290 1.234 . S
O313 Mn288 2.209 . S
O313 Mn289 2.215 . S
O313 C290 1.283 . S
O314 Mn288 2.094 . S
O314 C292 1.240 . S
O315 Mn289 2.117 . S
O315 C292 1.264 . S
C316 C309 1.403 . S
C316 C317 1.399 . S
C316 H322 0.929 . S
C317 C297 1.449 . S
C317 C316 1.399 . S
C317 H323 0.930 . S
H318 C298 0.931 . S
H319 C299 0.930 . S
H320 C307 0.931 . S
H321 C308 0.929 . S
H322 C316 0.929 . S
H323 C317 0.930 . S
Mn324 O329 2.095 . S
Mn324 O339 2.162 . S
Mn324 O340 2.297 . S
Mn324 O348 2.385 . S
Mn324 O349 2.209 . S
Mn324 O350 2.094 . S
Mn325 O330 2.121 1_565 S
Mn325 N332 2.257 . S
Mn325 N341 2.282 . S
Mn325 O349 2.215 . S
Mn325 O351 2.117 . S
C326 O348 1.234 . S
C326 O349 1.283 . S
C327 O339 1.281 . S
C327 O340 1.236 . S
C328 O350 1.240 . S
C328 O351 1.264 . S
O329 Mn324 2.095 . S
O329 C338 1.250 1_565 S
O330 Mn325 2.121 1_545 S
O330 C338 1.258 . S
C331 N332 1.326 1_545 S
C331 C335 1.460 . S
C331 H337 0.929 . S
N332 Mn325 2.257 . S
N332 C331 1.326 1_565 S
N332 C336 1.362 . S
C333 C334 1.215 1_565 S
C333 C336 1.431 . S
C333 C353 1.449 . S
C334 C333 1.215 1_545 S
C334 C335 1.532 . S
C334 H354 0.921 . S
C335 C331 1.460 . S
C335 C334 1.532 . S
C335 H355 0.930 . S
C336 N332 1.362 . S
C336 C333 1.431 . S
C336 C346 1.476 . S
H337 C331 0.929 . S
C338 O329 1.250 1_545 S
C338 O330 1.258 . S
O339 Mn324 2.162 . S
O339 C327 1.281 . S
O340 Mn324 2.297 . S
O340 C327 1.236 . S
N341 Mn325 2.282 . S
N341 C342 1.328 . S
N341 C346 1.318 . S
C342 N341 1.328 . S
C342 C343 1.457 . S
C342 H347 0.929 . S
C343 C342 1.457 . S
C343 C344 1.291 . S
C343 H356 0.931 . S
C344 C343 1.291 . S
C344 C345 1.373 . S
C344 H357 0.929 . S
C345 C344 1.373 . S
C345 C346 1.396 . S
C345 C352 1.403 . S
C346 C336 1.476 . S
C346 N341 1.318 . S
C346 C345 1.396 . S
H347 C342 0.929 . S
O348 Mn324 2.385 . S
O348 C326 1.234 . S
O349 Mn324 2.209 . S
O349 Mn325 2.215 . S
O349 C326 1.283 . S
O350 Mn324 2.094 . S
O350 C328 1.240 . S
O351 Mn325 2.117 . S
O351 C328 1.264 . S
C352 C345 1.403 . S
C352 C353 1.399 . S
C352 H358 0.929 . S
C353 C333 1.449 . S
C353 C352 1.399 . S
C353 H359 0.930 . S
H354 C334 0.921 . S
H355 C335 0.930 . S
H356 C343 0.931 . S
H357 C344 0.929 . S
H358 C352 0.929 . S
H359 C353 0.930 . S
Mn360 O365 2.095 . S
Mn360 O375 2.162 1_455 S
Mn360 O376 2.278 1_455 S
Mn360 O384 2.385 . S
Mn360 O385 2.209 . S
Mn360 O386 2.094 . S
Mn361 O366 2.121 . S
Mn361 N368 2.257 . S
Mn361 N377 2.282 . S
Mn361 O385 2.215 . S
Mn361 O387 2.117 . S
C362 O384 1.234 . S
C362 O385 1.283 . S
C363 O375 1.281 . S
C363 O376 1.297 . S
C364 O386 1.240 . S
C364 O387 1.264 . S
O365 Mn360 2.095 . S
O365 C374 1.250 . S
O366 Mn361 2.121 . S
O366 C374 1.258 . S
C367 N368 1.326 . S
C367 C371 1.460 . S
C367 H373 0.929 . S
N368 Mn361 2.257 . S
N368 C367 1.326 . S
N368 C372 1.362 . S
C369 C370 1.258 . S
C369 C372 1.431 . S
C369 C389 1.449 . S
C370 C369 1.258 . S
C370 C371 1.477 . S
C370 H390 0.931 . S
C371 C367 1.460 . S
C371 C370 1.477 . S
C371 H391 0.930 . S
C372 N368 1.362 . S
C372 C369 1.431 . S
C372 C382 1.476 . S
H373 C367 0.929 . S
C374 O365 1.250 . S
C374 O366 1.258 . S
O375 Mn360 2.162 1_655 S
O375 C363 1.281 . S
O376 Mn360 2.278 1_655 S
O376 C363 1.297 . S
N377 Mn361 2.282 . S
N377 C378 1.328 . S
N377 C382 1.318 . S
C378 N377 1.328 . S
C378 C379 1.457 . S
C378 H383 0.929 . S
C379 C378 1.457 . S
C379 C380 1.291 . S
C379 H392 0.931 . S
C380 C379 1.291 . S
C380 C381 1.373 . S
C380 H393 0.929 . S
C381 C380 1.373 . S
C381 C382 1.396 . S
C381 C388 1.403 . S
C382 C372 1.476 . S
C382 N377 1.318 . S
C382 C381 1.396 . S
H383 C378 0.929 . S
O384 Mn360 2.385 . S
O384 C362 1.234 . S
O385 Mn360 2.209 . S
O385 Mn361 2.215 . S
O385 C362 1.283 . S
O386 Mn360 2.094 . S
O386 C364 1.240 . S
O387 Mn361 2.117 . S
O387 C364 1.264 . S
C388 C381 1.403 . S
C388 C389 1.399 . S
C388 H394 0.929 . S
C389 C369 1.449 . S
C389 C388 1.399 . S
C389 H395 0.930 . S
H390 C370 0.931 . S
H391 C371 0.930 . S
H392 C379 0.931 . S
H393 C380 0.929 . S
H394 C388 0.929 . S
H395 C389 0.930 . S
Mn396 O401 2.095 . S
Mn396 O411 2.162 . S
Mn396 O412 2.297 . S
Mn396 O420 2.385 . S
Mn396 O421 2.209 . S
Mn396 O422 2.094 . S
Mn397 O402 2.121 . S
Mn397 N404 2.257 . S
Mn397 N413 2.282 . S
Mn397 O421 2.215 . S
Mn397 O423 2.117 . S
C398 O420 1.234 . S
C398 O421 1.283 . S
C399 O411 1.281 . S
C399 O412 1.236 . S
C400 O422 1.240 . S
C400 O423 1.264 . S
O401 Mn396 2.095 . S
O401 C410 1.250 . S
O402 Mn397 2.121 . S
O402 C410 1.258 . S
C403 N404 1.326 . S
C403 C407 1.460 . S
C403 H409 0.929 . S
N404 Mn397 2.257 . S
N404 C403 1.326 . S
N404 C408 1.362 . S
C405 C406 1.258 . S
C405 C408 1.431 . S
C405 C425 1.449 . S
C406 C405 1.258 . S
C406 C407 1.477 . S
C406 H426 0.931 . S
C407 C403 1.460 . S
C407 C406 1.477 . S
C407 H427 0.930 . S
C408 N404 1.362 . S
C408 C405 1.431 . S
C408 C418 1.476 . S
H409 C403 0.929 . S
C410 O401 1.250 . S
C410 O402 1.258 . S
O411 Mn396 2.162 . S
O411 C399 1.281 . S
O412 Mn396 2.297 . S
O412 C399 1.236 . S
N413 Mn397 2.282 . S
N413 C414 1.328 . S
N413 C418 1.318 . S
C414 N413 1.328 . S
C414 C415 1.457 . S
C414 H419 0.929 . S
C415 C414 1.457 . S
C415 C416 1.291 . S
C415 H428 0.931 . S
C416 C415 1.291 . S
C416 C417 1.373 . S
C416 H429 0.929 . S
C417 C416 1.373 . S
C417 C418 1.396 . S
C417 C424 1.403 . S
C418 C408 1.476 . S
C418 N413 1.318 . S
C418 C417 1.396 . S
H419 C414 0.929 . S
O420 Mn396 2.385 . S
O420 C398 1.234 . S
O421 Mn396 2.209 . S
O421 Mn397 2.215 . S
O421 C398 1.283 . S
O422 Mn396 2.094 . S
O422 C400 1.240 . S
O423 Mn397 2.117 . S
O423 C400 1.264 . S
C424 C417 1.403 . S
C424 C425 1.399 . S
C424 H430 0.929 . S
C425 C405 1.449 . S
C425 C424 1.399 . S
C425 H431 0.930 . S
H426 C406 0.931 . S
H427 C407 0.930 . S
H428 C415 0.931 . S
H429 C416 0.929 . S
H430 C424 0.929 . S
H431 C425 0.930 . S
Mn432 O437 2.095 . S
Mn432 O447 2.162 1_545 S
Mn432 O448 2.297 1_545 S
Mn432 O456 2.385 . S
Mn432 O457 2.209 . S
Mn432 O458 2.094 . S
Mn433 O438 2.121 . S
Mn433 N440 2.257 . S
Mn433 N449 2.282 . S
Mn433 O457 2.215 . S
Mn433 O459 2.117 . S
C434 O456 1.234 . S
C434 O457 1.283 . S
C435 O447 1.281 . S
C435 O448 1.236 . S
C436 O458 1.240 . S
C436 O459 1.264 . S
O437 Mn432 2.095 . S
O437 C446 1.250 . S
O438 Mn433 2.121 . S
O438 C446 1.258 . S
C439 N440 1.326 . S
C439 C443 1.460 . S
C439 H445 0.929 . S
N440 Mn433 2.257 . S
N440 C439 1.326 . S
N440 C444 1.362 . S
C441 C442 1.258 . S
C441 C444 1.431 . S
C441 C461 1.449 . S
C442 C441 1.258 . S
C442 C443 1.477 . S
C442 H462 0.931 . S
C443 C439 1.460 . S
C443 C442 1.477 . S
C443 H463 0.930 . S
C444 N440 1.362 . S
C444 C441 1.431 . S
C444 C454 1.476 . S
H445 C439 0.929 . S
C446 O437 1.250 . S
C446 O438 1.258 . S
O447 Mn432 2.162 1_565 S
O447 C435 1.281 . S
O448 Mn432 2.297 1_565 S
O448 C435 1.236 . S
N449 Mn433 2.282 . S
N449 C450 1.328 . S
N449 C454 1.318 . S
C450 N449 1.328 . S
C450 C451 1.457 . S
C450 H455 0.929 . S
C451 C450 1.457 . S
C451 C452 1.291 . S
C451 H464 0.931 . S
C452 C451 1.291 . S
C452 C453 1.373 . S
C452 H465 0.929 . S
C453 C452 1.373 . S
C453 C454 1.396 . S
C453 C460 1.403 . S
C454 C444 1.476 . S
C454 N449 1.318 . S
C454 C453 1.396 . S
H455 C450 0.929 . S
O456 Mn432 2.385 . S
O456 C434 1.234 . S
O457 Mn432 2.209 . S
O457 Mn433 2.215 . S
O457 C434 1.283 . S
O458 Mn432 2.094 . S
O458 C436 1.240 . S
O459 Mn433 2.117 . S
O459 C436 1.264 . S
C460 C453 1.403 . S
C460 C461 1.399 . S
C460 H466 0.929 . S
C461 C441 1.449 . S
C461 C460 1.399 . S
C461 H467 0.930 . S
H462 C442 0.931 . S
H463 C443 0.930 . S
H464 C451 0.931 . S
H465 C452 0.929 . S
H466 C460 0.929 . S
H467 C461 0.930 . S
Mn468 O473 2.095 . S
Mn468 O483 2.162 . S
Mn468 O484 2.297 . S
Mn468 O492 2.385 . S
Mn468 O493 2.209 . S
Mn468 O494 2.094 . S
Mn469 O474 2.121 1_655 S
Mn469 N476 2.257 . S
Mn469 N485 2.282 . S
Mn469 O493 2.215 . S
Mn469 O495 2.117 . S
C470 O492 1.234 . S
C470 O493 1.283 . S
C471 O483 1.281 . S
C471 O484 1.236 . S
C472 O494 1.240 . S
C472 O495 1.264 . S
O473 Mn468 2.095 . S
O473 C482 1.250 1_655 S
O474 Mn469 2.121 1_455 S
O474 C482 1.258 . S
C475 N476 1.326 1_455 S
C475 C479 1.460 . S
C475 H481 0.929 . S
N476 Mn469 2.257 . S
N476 C475 1.326 1_655 S
N476 C480 1.362 . S
C477 C478 1.212 1_655 S
C477 C480 1.431 . S
C477 C497 1.449 . S
C478 C477 1.212 1_455 S
C478 C479 1.491 . S
C478 H498 0.963 . S
C479 C475 1.460 . S
C479 C478 1.491 . S
C479 H499 0.930 . S
C480 N476 1.362 . S
C480 C477 1.431 . S
C480 C490 1.476 . S
H481 C475 0.929 . S
C482 O473 1.250 1_455 S
C482 O474 1.258 . S
O483 Mn468 2.162 . S
O483 C471 1.281 . S
O484 Mn468 2.297 . S
O484 C471 1.236 . S
N485 Mn469 2.282 . S
N485 C486 1.328 . S
N485 C490 1.318 . S
C486 N485 1.328 . S
C486 C487 1.457 . S
C486 H491 0.929 . S
C487 C486 1.457 . S
C487 C488 1.291 . S
C487 H500 0.931 . S
C488 C487 1.291 . S
C488 C489 1.373 . S
C488 H501 0.929 . S
C489 C488 1.373 . S
C489 C490 1.396 . S
C489 C496 1.403 . S
C490 C480 1.476 . S
C490 N485 1.318 . S
C490 C489 1.396 . S
H491 C486 0.929 . S
O492 Mn468 2.385 . S
O492 C470 1.234 . S
O493 Mn468 2.209 . S
O493 Mn469 2.215 . S
O493 C470 1.283 . S
O494 Mn468 2.094 . S
O494 C472 1.240 . S
O495 Mn469 2.117 . S
O495 C472 1.264 . S
C496 C489 1.403 . S
C496 C497 1.399 . S
C496 H502 0.929 . S
C497 C477 1.449 . S
C497 C496 1.399 . S
C497 H503 0.930 . S
H498 C478 0.963 . S
H499 C479 0.930 . S
H500 C487 0.931 . S
H501 C488 0.929 . S
H502 C496 0.929 . S
H503 C497 0.930 . S
Mn504 O509 2.095 . S
Mn504 O519 2.162 . S
Mn504 O520 2.297 . S
Mn504 O528 2.385 . S
Mn504 O529 2.209 . S
Mn504 O530 2.094 . S
Mn505 O510 2.121 . S
Mn505 N512 2.257 . S
Mn505 N521 2.282 . S
Mn505 O529 2.215 . S
Mn505 O531 2.117 . S
C506 O528 1.234 . S
C506 O529 1.283 . S
C507 O519 1.281 . S
C507 O520 1.236 . S
C508 O530 1.240 . S
C508 O531 1.264 . S
O509 Mn504 2.095 . S
O509 C518 1.250 . S
O510 Mn505 2.121 . S
O510 C518 1.258 . S
C511 N512 1.326 . S
C511 C515 1.460 . S
C511 H517 0.929 . S
N512 Mn505 2.257 . S
N512 C511 1.326 . S
N512 C516 1.362 . S
C513 C514 1.258 . S
C513 C516 1.431 . S
C513 C533 1.449 . S
C514 C513 1.258 . S
C514 C515 1.477 . S
C514 H534 0.931 . S
C515 C511 1.460 . S
C515 C514 1.477 . S
C515 H535 0.930 . S
C516 N512 1.362 . S
C516 C513 1.431 . S
C516 C526 1.476 . S
H517 C511 0.929 . S
C518 O509 1.250 . S
C518 O510 1.258 . S
O519 Mn504 2.162 . S
O519 C507 1.281 . S
O520 Mn504 2.297 . S
O520 C507 1.236 . S
N521 Mn505 2.282 . S
N521 C522 1.328 . S
N521 C526 1.318 . S
C522 N521 1.328 . S
C522 C523 1.457 . S
C522 H527 0.929 . S
C523 C522 1.457 . S
C523 C524 1.291 . S
C523 H536 0.931 . S
C524 C523 1.291 . S
C524 C525 1.373 . S
C524 H537 0.929 . S
C525 C524 1.373 . S
C525 C526 1.396 . S
C525 C532 1.403 . S
C526 C516 1.476 . S
C526 N521 1.318 . S
C526 C525 1.396 . S
H527 C522 0.929 . S
O528 Mn504 2.385 . S
O528 C506 1.234 . S
O529 Mn504 2.209 . S
O529 Mn505 2.215 . S
O529 C506 1.283 . S
O530 Mn504 2.094 . S
O530 C508 1.240 . S
O531 Mn505 2.117 . S
O531 C508 1.264 . S
C532 C525 1.403 . S
C532 C533 1.399 . S
C532 H538 0.929 . S
C533 C513 1.449 . S
C533 C532 1.399 . S
C533 H539 0.930 . S
H534 C514 0.931 . S
H535 C515 0.930 . S
H536 C523 0.931 . S
H537 C524 0.929 . S
H538 C532 0.929 . S
H539 C533 0.930 . S
Mn540 O545 2.095 . S
Mn540 O555 2.162 . S
Mn540 O556 2.297 . S
Mn540 O564 2.385 . S
Mn540 O565 2.209 . S
Mn540 O566 2.094 . S
Mn541 O546 2.121 . S
Mn541 N548 2.257 . S
Mn541 N557 2.282 . S
Mn541 O565 2.215 . S
Mn541 O567 2.117 . S
C542 O564 1.234 . S
C542 O565 1.283 . S
C543 O555 1.281 . S
C543 O556 1.236 . S
C544 O566 1.240 . S
C544 O567 1.264 . S
O545 Mn540 2.095 . S
O545 C554 1.250 . S
O546 Mn541 2.121 . S
O546 C554 1.258 . S
C547 N548 1.326 . S
C547 C551 1.460 . S
C547 H553 0.929 . S
N548 Mn541 2.257 . S
N548 C547 1.326 . S
N548 C552 1.362 . S
C549 C550 1.258 . S
C549 C552 1.431 . S
C549 C569 1.449 . S
C550 C549 1.258 . S
C550 C551 1.477 . S
C550 H570 0.931 . S
C551 C547 1.460 . S
C551 C550 1.477 . S
C551 H571 0.930 . S
C552 N548 1.362 . S
C552 C549 1.431 . S
C552 C562 1.476 . S
H553 C547 0.929 . S
C554 O545 1.250 . S
C554 O546 1.258 . S
O555 Mn540 2.162 . S
O555 C543 1.281 . S
O556 Mn540 2.297 . S
O556 C543 1.236 . S
N557 Mn541 2.282 . S
N557 C558 1.328 . S
N557 C562 1.318 . S
C558 N557 1.328 . S
C558 C559 1.457 . S
C558 H563 0.929 . S
C559 C558 1.457 . S
C559 C560 1.291 . S
C559 H572 0.931 . S
C560 C559 1.291 . S
C560 C561 1.373 . S
C560 H573 0.929 . S
C561 C560 1.373 . S
C561 C562 1.396 . S
C561 C568 1.403 . S
C562 C552 1.476 . S
C562 N557 1.318 . S
C562 C561 1.396 . S
H563 C558 0.929 . S
O564 Mn540 2.385 . S
O564 C542 1.234 . S
O565 Mn540 2.209 . S
O565 Mn541 2.215 . S
O565 C542 1.283 . S
O566 Mn540 2.094 . S
O566 C544 1.240 . S
O567 Mn541 2.117 . S
O567 C544 1.264 . S
C568 C561 1.403 . S
C568 C569 1.399 . S
C568 H574 0.929 . S
C569 C549 1.449 . S
C569 C568 1.399 . S
C569 H575 0.930 . S
H570 C550 0.931 . S
H571 C551 0.930 . S
H572 C559 0.931 . S
H573 C560 0.929 . S
H574 C568 0.929 . S
H575 C569 0.930 . S
Mn576 O581 2.095 . S
Mn576 O591 2.162 . S
Mn576 O592 2.297 . S
Mn576 O600 2.385 . S
Mn576 O601 2.209 . S
Mn576 O602 2.094 . S
Mn577 O582 2.121 1_545 S
Mn577 N584 2.257 . S
Mn577 N593 2.282 . S
Mn577 O601 2.215 . S
Mn577 O603 2.117 . S
C578 O600 1.234 . S
C578 O601 1.283 . S
C579 O591 1.281 . S
C579 O592 1.236 . S
C580 O602 1.240 . S
C580 O603 1.264 . S
O581 Mn576 2.095 . S
O581 C590 1.250 1_545 S
O582 Mn577 2.121 1_565 S
O582 C590 1.258 . S
C583 N584 1.326 1_565 S
C583 C587 1.460 . S
C583 H589 0.929 . S
N584 Mn577 2.257 . S
N584 C583 1.326 1_545 S
N584 C588 1.362 . S
C585 C586 1.258 1_545 S
C585 C588 1.431 . S
C585 C605 1.449 . S
C586 C585 1.258 1_565 S
C586 C587 1.477 . S
C586 H606 0.931 . S
C587 C583 1.460 . S
C587 C586 1.477 . S
C587 H607 0.930 . S
C588 N584 1.362 . S
C588 C585 1.431 . S
C588 C598 1.476 . S
H589 C583 0.929 . S
C590 O581 1.250 1_565 S
C590 O582 1.258 . S
O591 Mn576 2.162 . S
O591 C579 1.281 . S
O592 Mn576 2.297 . S
O592 C579 1.236 . S
N593 Mn577 2.282 . S
N593 C594 1.328 . S
N593 C598 1.318 . S
C594 N593 1.328 . S
C594 C595 1.457 . S
C594 H599 0.929 . S
C595 C594 1.457 . S
C595 C596 1.291 . S
C595 H608 0.931 . S
C596 C595 1.291 . S
C596 C597 1.373 . S
C596 H609 0.929 . S
C597 C596 1.373 . S
C597 C598 1.396 . S
C597 C604 1.403 . S
C598 C588 1.476 . S
C598 N593 1.318 . S
C598 C597 1.396 . S
H599 C594 0.929 . S
O600 Mn576 2.385 . S
O600 C578 1.234 . S
O601 Mn576 2.209 . S
O601 Mn577 2.215 . S
O601 C578 1.283 . S
O602 Mn576 2.094 . S
O602 C580 1.240 . S
O603 Mn577 2.117 . S
O603 C580 1.264 . S
C604 C597 1.403 . S
C604 C605 1.399 . S
C604 H610 0.929 . S
C605 C585 1.449 . S
C605 C604 1.399 . S
C605 H611 0.930 . S
H606 C586 0.931 . S
H607 C587 0.930 . S
H608 C595 0.931 . S
H609 C596 0.929 . S
H610 C604 0.929 . S
H611 C605 0.930 . S
Mn612 O617 2.095 . S
Mn612 O627 2.162 1_655 S
Mn612 O628 2.297 1_655 S
Mn612 O636 2.385 . S
Mn612 O637 2.209 . S
Mn612 O638 2.094 . S
Mn613 O618 2.121 . S
Mn613 N620 2.257 . S
Mn613 N629 2.282 . S
Mn613 O637 2.215 . S
Mn613 O639 2.117 . S
C614 O636 1.234 . S
C614 O637 1.283 . S
C615 O627 1.281 . S
C615 O628 1.236 . S
C616 O638 1.240 . S
C616 O639 1.264 . S
O617 Mn612 2.095 . S
O617 C626 1.250 . S
O618 Mn613 2.121 . S
O618 C626 1.258 . S
C619 N620 1.326 . S
C619 C623 1.460 . S
C619 H625 0.929 . S
N620 Mn613 2.257 . S
N620 C619 1.326 . S
N620 C624 1.362 . S
C621 C622 1.258 . S
C621 C624 1.431 . S
C621 C641 1.449 . S
C622 C621 1.258 . S
C622 C623 1.477 . S
C622 H642 0.931 . S
C623 C619 1.460 . S
C623 C622 1.477 . S
C623 H643 0.930 . S
C624 N620 1.362 . S
C624 C621 1.431 . S
C624 C634 1.476 . S
H625 C619 0.929 . S
C626 O617 1.250 . S
C626 O618 1.258 . S
O627 Mn612 2.162 1_455 S
O627 C615 1.281 . S
O628 Mn612 2.297 1_455 S
O628 C615 1.236 . S
N629 Mn613 2.282 . S
N629 C630 1.328 . S
N629 C634 1.318 . S
C630 N629 1.328 . S
C630 C631 1.457 . S
C630 H635 0.929 . S
C631 C630 1.457 . S
C631 C632 1.291 . S
C631 H644 0.931 . S
C632 C631 1.291 . S
C632 C633 1.373 . S
C632 H645 0.929 . S
C633 C632 1.373 . S
C633 C634 1.396 . S
C633 C640 1.403 . S
C634 C624 1.476 . S
C634 N629 1.318 . S
C634 C633 1.396 . S
H635 C630 0.929 . S
O636 Mn612 2.385 . S
O636 C614 1.234 . S
O637 Mn612 2.209 . S
O637 Mn613 2.215 . S
O637 C614 1.283 . S
O638 Mn612 2.094 . S
O638 C616 1.240 . S
O639 Mn613 2.117 . S
O639 C616 1.264 . S
C640 C633 1.403 . S
C640 C641 1.399 . S
C640 H646 0.929 . S
C641 C621 1.449 . S
C641 C640 1.399 . S
C641 H647 0.930 . S
H642 C622 0.931 . S
H643 C623 0.930 . S
H644 C631 0.931 . S
H645 C632 0.929 . S
H646 C640 0.929 . S
H647 C641 0.930 . S
C648 C649 1.560 . S
C648 H709 0.959 . S
C648 H710 0.959 . S
C648 H711 0.960 . S
C649 C648 1.560 . S
C649 O704 1.426 . S
C649 H708 0.980 . S
C650 C651 1.407 . S
C650 C655 1.418 . S
C650 O704 1.334 . S
C651 C650 1.407 . S
C651 C652 1.360 . S
C651 H712 0.929 . S
C652 C651 1.360 . S
C652 C653 1.401 . S
C652 C656 1.527 . S
C653 C652 1.401 . S
C653 C654 1.405 . S
C653 C686 1.587 . S
C654 C653 1.405 . S
C654 C655 1.332 . S
C654 C657 1.496 . S
C655 C650 1.418 . S
C655 C654 1.332 . S
C655 H713 0.929 . S
C656 C652 1.527 . S
C656 H714 0.959 . S
C656 H715 0.961 . S
C656 H716 0.961 . S
C657 C654 1.496 . S
C657 H717 0.960 . S
C657 H718 0.960 . S
C657 H719 0.961 . S
C658 C659 1.517 . S
C658 H721 0.961 . S
C658 H722 0.960 . S
C658 H723 0.959 . S
C659 C658 1.517 . S
C659 O707 1.468 . S
C659 H720 0.980 . S
C660 C661 1.349 . S
C660 C665 1.367 . S
C660 O707 1.408 . S
C661 C660 1.349 . S
C661 C662 1.407 . S
C661 H724 0.930 . S
C662 C661 1.407 . S
C662 C663 1.449 . S
C662 C666 1.535 . S
C663 C662 1.449 . S
C663 C664 1.384 . S
C663 C688 1.553 . S
C664 C663 1.384 . S
C664 C665 1.364 . S
C664 C667 1.450 . S
C665 C660 1.367 . S
C665 C664 1.364 . S
C665 H725 0.931 . S
C666 C662 1.535 . S
C666 H726 0.959 . S
C666 H727 0.961 . S
C666 H728 0.959 . S
C667 C664 1.450 . S
C667 H729 0.960 . S
C667 H730 0.960 . S
C667 H731 0.960 . S
C668 C669 1.309 . S
C668 C673 1.304 . S
C668 O706 1.435 . S
C669 C668 1.309 . S
C669 C670 1.476 . S
C669 H733 0.930 . S
C670 C669 1.476 . S
C670 C671 1.400 . S
C670 C674 1.567 . S
C671 C670 1.400 . S
C671 C672 1.373 . S
C671 C693 1.432 . S
C672 C671 1.373 . S
C672 C673 1.339 . S
C672 C675 1.530 . S
C673 C668 1.304 . S
C673 C672 1.339 . S
C673 H734 0.930 . S
C674 C670 1.567 . S
C674 H735 0.961 . S
C674 H736 0.960 . S
C674 H737 0.958 . S
C675 C672 1.530 . S
C675 H738 0.961 . S
C675 H739 0.960 . S
C675 H740 0.960 . S
C676 C677 1.530 . S
C676 H742 0.961 . S
C676 H743 0.961 . S
C676 H744 0.959 . S
C677 C676 1.530 . S
C677 O705 1.412 . S
C677 H741 0.980 . S
C678 C679 1.288 . S
C678 C683 1.377 . S
C678 O705 1.393 . S
C679 C678 1.288 . S
C679 C680 1.369 . S
C679 H745 0.932 . S
C680 C679 1.369 . S
C680 C681 1.398 . S
C680 C684 1.527 . S
C681 C680 1.398 . S
C681 C682 1.380 . S
C681 C695 1.497 . S
C682 C681 1.380 . S
C682 C683 1.383 . S
C682 C685 1.603 . S
C683 C678 1.377 . S
C683 C682 1.383 . S
C683 H746 0.929 . S
C684 C680 1.527 . S
C684 H747 0.961 . S
C684 H748 0.959 . S
C684 H749 0.959 . S
C685 C682 1.603 . S
C685 H750 0.960 . S
C685 H751 0.962 . S
C685 H752 0.961 . S
C686 C653 1.587 . S
C686 C687 1.360 . S
C686 C699 1.412 . S
C687 C686 1.360 . S
C687 C688 1.365 . S
C687 H753 0.929 . S
C688 C663 1.553 . S
C688 C687 1.365 . S
C688 C689 1.404 . S
C689 C688 1.404 . S
C689 C690 1.395 . S
C689 C700 1.451 . S
C690 C689 1.395 . S
C690 C691 1.322 . S
C690 H754 0.930 . S
C691 C690 1.322 . S
C691 C692 1.459 . S
C691 H755 0.929 . S
C692 C691 1.459 . S
C692 C693 1.445 . S
C692 C701 1.395 . S
C693 C671 1.432 . S
C693 C692 1.445 . S
C693 C694 1.370 . S
C694 C693 1.370 . S
C694 C695 1.438 . S
C694 H756 0.930 . S
C695 C681 1.497 . S
C695 C694 1.438 . S
C695 C696 1.360 . S
C696 C695 1.360 . S
C696 C697 1.401 . S
C696 C701 1.446 . S
C697 C696 1.401 . S
C697 C698 1.347 . S
C697 H757 0.929 . S
C698 C697 1.347 . S
C698 C699 1.455 . S
C698 H758 0.930 . S
C699 C686 1.412 . S
C699 C698 1.455 . S
C699 C700 1.331 . S
C700 C689 1.451 . S
C700 C699 1.331 . S
C700 C701 1.497 . S
C701 C692 1.395 . S
C701 C696 1.446 . S
C701 C700 1.497 . S
C702 C703 1.582 . S
C702 H759 0.962 . S
C702 H760 0.959 . S
C702 H761 0.958 . S
C703 C702 1.582 . S
C703 O706 1.458 . S
C703 H732 0.980 . S
O704 C649 1.426 . S
O704 C650 1.334 . S
O705 C677 1.412 . S
O705 C678 1.393 . S
O706 C668 1.435 . S
O706 C703 1.458 . S
O707 C659 1.468 . S
O707 C660 1.408 . S
H708 C649 0.980 . S
H709 C648 0.959 . S
H710 C648 0.959 . S
H711 C648 0.960 . S
H712 C651 0.929 . S
H713 C655 0.929 . S
H714 C656 0.959 . S
H715 C656 0.961 . S
H716 C656 0.961 . S
H717 C657 0.960 . S
H718 C657 0.960 . S
H719 C657 0.961 . S
H720 C659 0.980 . S
H721 C658 0.961 . S
H722 C658 0.960 . S
H723 C658 0.959 . S
H724 C661 0.930 . S
H725 C665 0.931 . S
H726 C666 0.959 . S
H727 C666 0.961 . S
H728 C666 0.959 . S
H729 C667 0.960 . S
H730 C667 0.960 . S
H731 C667 0.960 . S
H732 C703 0.980 . S
H733 C669 0.930 . S
H734 C673 0.930 . S
H735 C674 0.961 . S
H736 C674 0.960 . S
H737 C674 0.958 . S
H738 C675 0.961 . S
H739 C675 0.960 . S
H740 C675 0.960 . S
H741 C677 0.980 . S
H742 C676 0.961 . S
H743 C676 0.961 . S
H744 C676 0.959 . S
H745 C679 0.932 . S
H746 C683 0.929 . S
H747 C684 0.961 . S
H748 C684 0.959 . S
H749 C684 0.959 . S
H750 C685 0.960 . S
H751 C685 0.962 . S
H752 C685 0.961 . S
H753 C687 0.929 . S
H754 C690 0.930 . S
H755 C691 0.929 . S
H756 C694 0.930 . S
H757 C697 0.929 . S
H758 C698 0.930 . S
H759 C702 0.962 . S
H760 C702 0.959 . S
H761 C702 0.958 . S
C762 C763 1.560 . S
C762 H823 0.959 . S
C762 H824 0.959 . S
C762 H825 0.960 . S
C763 C762 1.560 . S
C763 O818 1.426 . S
C763 H822 0.980 . S
C764 C765 1.407 . S
C764 C769 1.418 . S
C764 O818 1.334 . S
C765 C764 1.407 . S
C765 C766 1.360 . S
C765 H826 0.929 . S
C766 C765 1.360 . S
C766 C767 1.401 . S
C766 C770 1.527 . S
C767 C766 1.401 . S
C767 C768 1.405 . S
C767 C800 1.587 . S
C768 C767 1.405 . S
C768 C769 1.332 . S
C768 C771 1.496 . S
C769 C764 1.418 . S
C769 C768 1.332 . S
C769 H827 0.929 . S
C770 C766 1.527 . S
C770 H828 0.959 . S
C770 H829 0.961 . S
C770 H830 0.961 . S
C771 C768 1.496 . S
C771 H831 0.960 . S
C771 H832 0.960 . S
C771 H833 0.961 . S
C772 C773 1.517 . S
C772 H835 0.961 . S
C772 H836 0.960 . S
C772 H837 0.959 . S
C773 C772 1.517 . S
C773 O821 1.468 . S
C773 H834 0.980 . S
C774 C775 1.349 . S
C774 C779 1.367 . S
C774 O821 1.408 . S
C775 C774 1.349 . S
C775 C776 1.407 . S
C775 H838 0.930 . S
C776 C775 1.407 . S
C776 C777 1.449 . S
C776 C780 1.535 . S
C777 C776 1.449 . S
C777 C778 1.384 . S
C777 C802 1.553 . S
C778 C777 1.384 . S
C778 C779 1.364 . S
C778 C781 1.450 . S
C779 C774 1.367 . S
C779 C778 1.364 . S
C779 H839 0.931 . S
C780 C776 1.535 . S
C780 H840 0.959 . S
C780 H841 0.961 . S
C780 H842 0.959 . S
C781 C778 1.450 . S
C781 H843 0.960 . S
C781 H844 0.960 . S
C781 H845 0.960 . S
C782 C783 1.309 . S
C782 C787 1.304 . S
C782 O820 1.435 . S
C783 C782 1.309 . S
C783 C784 1.476 . S
C783 H847 0.930 . S
C784 C783 1.476 . S
C784 C785 1.400 . S
C784 C788 1.567 . S
C785 C784 1.400 . S
C785 C786 1.373 . S
C785 C807 1.432 . S
C786 C785 1.373 . S
C786 C787 1.339 . S
C786 C789 1.530 . S
C787 C782 1.304 . S
C787 C786 1.339 . S
C787 H848 0.930 . S
C788 C784 1.567 . S
C788 H849 0.961 . S
C788 H850 0.960 . S
C788 H851 0.958 . S
C789 C786 1.530 . S
C789 H852 0.961 . S
C789 H853 0.960 . S
C789 H854 0.960 . S
C790 C791 1.530 . S
C790 H856 0.961 . S
C790 H857 0.961 . S
C790 H858 0.959 . S
C791 C790 1.530 . S
C791 O819 1.412 . S
C791 H855 0.980 . S
C792 C793 1.288 . S
C792 C797 1.377 . S
C792 O819 1.393 . S
C793 C792 1.288 . S
C793 C794 1.369 . S
C793 H859 0.932 . S
C794 C793 1.369 . S
C794 C795 1.398 . S
C794 C798 1.527 . S
C795 C794 1.398 . S
C795 C796 1.380 . S
C795 C809 1.497 . S
C796 C795 1.380 . S
C796 C797 1.383 . S
C796 C799 1.603 . S
C797 C792 1.377 . S
C797 C796 1.383 . S
C797 H860 0.929 . S
C798 C794 1.527 . S
C798 H861 0.961 . S
C798 H862 0.959 . S
C798 H863 0.959 . S
C799 C796 1.603 . S
C799 H864 0.960 . S
C799 H865 0.962 . S
C799 H866 0.961 . S
C800 C767 1.587 . S
C800 C801 1.360 . S
C800 C813 1.412 . S
C801 C800 1.360 . S
C801 C802 1.365 . S
C801 H867 0.929 . S
C802 C777 1.553 . S
C802 C801 1.365 . S
C802 C803 1.404 . S
C803 C802 1.404 . S
C803 C804 1.395 . S
C803 C814 1.451 . S
C804 C803 1.395 . S
C804 C805 1.322 . S
C804 H868 0.930 . S
C805 C804 1.322 . S
C805 C806 1.459 . S
C805 H869 0.929 . S
C806 C805 1.459 . S
C806 C807 1.445 . S
C806 C815 1.395 . S
C807 C785 1.432 . S
C807 C806 1.445 . S
C807 C808 1.370 . S
C808 C807 1.370 . S
C808 C809 1.438 . S
C808 H870 0.930 . S
C809 C795 1.497 . S
C809 C808 1.438 . S
C809 C810 1.360 . S
C810 C809 1.360 . S
C810 C811 1.401 . S
C810 C815 1.446 . S
C811 C810 1.401 . S
C811 C812 1.347 . S
C811 H871 0.929 . S
C812 C811 1.347 . S
C812 C813 1.455 . S
C812 H872 0.930 . S
C813 C800 1.412 . S
C813 C812 1.455 . S
C813 C814 1.331 . S
C814 C803 1.451 . S
C814 C813 1.331 . S
C814 C815 1.497 . S
C815 C806 1.395 . S
C815 C810 1.446 . S
C815 C814 1.497 . S
C816 C817 1.582 . S
C816 H873 0.962 . S
C816 H874 0.959 . S
C816 H875 0.958 . S
C817 C816 1.582 . S
C817 O820 1.458 . S
C817 H846 0.980 . S
O818 C763 1.426 . S
O818 C764 1.334 . S
O819 C791 1.412 . S
O819 C792 1.393 . S
O820 C782 1.435 . S
O820 C817 1.458 . S
O821 C773 1.468 . S
O821 C774 1.408 . S
H822 C763 0.980 . S
H823 C762 0.959 . S
H824 C762 0.959 . S
H825 C762 0.960 . S
H826 C765 0.929 . S
H827 C769 0.929 . S
H828 C770 0.959 . S
H829 C770 0.961 . S
H830 C770 0.961 . S
H831 C771 0.960 . S
H832 C771 0.960 . S
H833 C771 0.961 . S
H834 C773 0.980 . S
H835 C772 0.961 . S
H836 C772 0.960 . S
H837 C772 0.959 . S
H838 C775 0.930 . S
H839 C779 0.931 . S
H840 C780 0.959 . S
H841 C780 0.961 . S
H842 C780 0.959 . S
H843 C781 0.960 . S
H844 C781 0.960 . S
H845 C781 0.960 . S
H846 C817 0.980 . S
H847 C783 0.930 . S
H848 C787 0.930 . S
H849 C788 0.961 . S
H850 C788 0.960 . S
H851 C788 0.958 . S
H852 C789 0.961 . S
H853 C789 0.960 . S
H854 C789 0.960 . S
H855 C791 0.980 . S
H856 C790 0.961 . S
H857 C790 0.961 . S
H858 C790 0.959 . S
H859 C793 0.932 . S
H860 C797 0.929 . S
H861 C798 0.961 . S
H862 C798 0.959 . S
H863 C798 0.959 . S
H864 C799 0.960 . S
H865 C799 0.962 . S
H866 C799 0.961 . S
H867 C801 0.929 . S
H868 C804 0.930 . S
H869 C805 0.929 . S
H870 C808 0.930 . S
H871 C811 0.929 . S
H872 C812 0.930 . S
H873 C816 0.962 . S
H874 C816 0.959 . S
H875 C816 0.958 . S
C876 C877 1.560 . S
C876 H937 0.959 . S
C876 H938 0.959 . S
C876 H939 0.960 . S
C877 C876 1.560 . S
C877 O932 1.426 . S
C877 H936 0.980 . S
C878 C879 1.407 . S
C878 C883 1.418 . S
C878 O932 1.334 . S
C879 C878 1.407 . S
C879 C880 1.360 . S
C879 H940 0.929 . S
C880 C879 1.360 . S
C880 C881 1.401 . S
C880 C884 1.527 . S
C881 C880 1.401 . S
C881 C882 1.405 . S
C881 C914 1.587 . S
C882 C881 1.405 . S
C882 C883 1.332 . S
C882 C885 1.496 . S
C883 C878 1.418 . S
C883 C882 1.332 . S
C883 H941 0.929 . S
C884 C880 1.527 . S
C884 H942 0.959 . S
C884 H943 0.961 . S
C884 H944 0.961 . S
C885 C882 1.496 . S
C885 H945 0.960 . S
C885 H946 0.960 . S
C885 H947 0.961 . S
C886 C887 1.517 . S
C886 H949 0.961 . S
C886 H950 0.960 . S
C886 H951 0.959 . S
C887 C886 1.517 . S
C887 O935 1.468 . S
C887 H948 0.980 . S
C888 C889 1.349 . S
C888 C893 1.367 . S
C888 O935 1.408 . S
C889 C888 1.349 . S
C889 C890 1.407 . S
C889 H952 0.930 . S
C890 C889 1.407 . S
C890 C891 1.449 . S
C890 C894 1.535 . S
C891 C890 1.449 . S
C891 C892 1.384 . S
C891 C916 1.553 . S
C892 C891 1.384 . S
C892 C893 1.364 . S
C892 C895 1.450 . S
C893 C888 1.367 . S
C893 C892 1.364 . S
C893 H953 0.931 . S
C894 C890 1.535 . S
C894 H954 0.959 . S
C894 H955 0.961 . S
C894 H956 0.959 . S
C895 C892 1.450 . S
C895 H957 0.960 . S
C895 H958 0.960 . S
C895 H959 0.960 . S
C896 C897 1.309 . S
C896 C901 1.304 . S
C896 O934 1.435 . S
C897 C896 1.309 . S
C897 C898 1.476 . S
C897 H961 0.930 . S
C898 C897 1.476 . S
C898 C899 1.400 . S
C898 C902 1.567 . S
C899 C898 1.400 . S
C899 C900 1.373 . S
C899 C921 1.432 . S
C900 C899 1.373 . S
C900 C901 1.339 . S
C900 C903 1.530 . S
C901 C896 1.304 . S
C901 C900 1.339 . S
C901 H962 0.930 . S
C902 C898 1.567 . S
C902 H963 0.961 . S
C902 H964 0.960 . S
C902 H965 0.958 . S
C903 C900 1.530 . S
C903 H966 0.961 . S
C903 H967 0.960 . S
C903 H968 0.960 . S
C904 C905 1.530 . S
C904 H970 0.961 . S
C904 H971 0.961 . S
C904 H972 0.959 . S
C905 C904 1.530 . S
C905 O933 1.412 . S
C905 H969 0.980 . S
C906 C907 1.288 . S
C906 C911 1.377 . S
C906 O933 1.393 . S
C907 C906 1.288 . S
C907 C908 1.369 . S
C907 H973 0.932 . S
C908 C907 1.369 . S
C908 C909 1.398 . S
C908 C912 1.527 . S
C909 C908 1.398 . S
C909 C910 1.380 . S
C909 C923 1.497 . S
C910 C909 1.380 . S
C910 C911 1.383 . S
C910 C913 1.603 . S
C911 C906 1.377 . S
C911 C910 1.383 . S
C911 H974 0.929 . S
C912 C908 1.527 . S
C912 H975 0.961 . S
C912 H976 0.959 . S
C912 H977 0.959 . S
C913 C910 1.603 . S
C913 H978 0.960 . S
C913 H979 0.962 . S
C913 H980 0.961 . S
C914 C881 1.587 . S
C914 C915 1.360 . S
C914 C927 1.412 . S
C915 C914 1.360 . S
C915 C916 1.365 . S
C915 H981 0.929 . S
C916 C891 1.553 . S
C916 C915 1.365 . S
C916 C917 1.404 . S
C917 C916 1.404 . S
C917 C918 1.395 . S
C917 C928 1.451 . S
C918 C917 1.395 . S
C918 C919 1.322 . S
C918 H982 0.930 . S
C919 C918 1.322 . S
C919 C920 1.459 . S
C919 H983 0.929 . S
C920 C919 1.459 . S
C920 C921 1.445 . S
C920 C929 1.395 . S
C921 C899 1.432 . S
C921 C920 1.445 . S
C921 C922 1.370 . S
C922 C921 1.370 . S
C922 C923 1.438 . S
C922 H984 0.930 . S
C923 C909 1.497 . S
C923 C922 1.438 . S
C923 C924 1.360 . S
C924 C923 1.360 . S
C924 C925 1.401 . S
C924 C929 1.446 . S
C925 C924 1.401 . S
C925 C926 1.347 . S
C925 H985 0.929 . S
C926 C925 1.347 . S
C926 C927 1.455 . S
C926 H986 0.930 . S
C927 C914 1.412 . S
C927 C926 1.455 . S
C927 C928 1.331 . S
C928 C917 1.451 . S
C928 C927 1.331 . S
C928 C929 1.497 . S
C929 C920 1.395 . S
C929 C924 1.446 . S
C929 C928 1.497 . S
C930 C931 1.582 . S
C930 H987 0.962 . S
C930 H988 0.959 . S
C930 H989 0.958 . S
C931 C930 1.582 . S
C931 O934 1.458 . S
C931 H960 0.980 . S
O932 C877 1.426 . S
O932 C878 1.334 . S
O933 C905 1.412 . S
O933 C906 1.393 . S
O934 C896 1.435 . S
O934 C931 1.458 . S
O935 C887 1.468 . S
O935 C888 1.408 . S
H936 C877 0.980 . S
H937 C876 0.959 . S
H938 C876 0.959 . S
H939 C876 0.960 . S
H940 C879 0.929 . S
H941 C883 0.929 . S
H942 C884 0.959 . S
H943 C884 0.961 . S
H944 C884 0.961 . S
H945 C885 0.960 . S
H946 C885 0.960 . S
H947 C885 0.961 . S
H948 C887 0.980 . S
H949 C886 0.961 . S
H950 C886 0.960 . S
H951 C886 0.959 . S
H952 C889 0.930 . S
H953 C893 0.931 . S
H954 C894 0.959 . S
H955 C894 0.961 . S
H956 C894 0.959 . S
H957 C895 0.960 . S
H958 C895 0.960 . S
H959 C895 0.960 . S
H960 C931 0.980 . S
H961 C897 0.930 . S
H962 C901 0.930 . S
H963 C902 0.961 . S
H964 C902 0.960 . S
H965 C902 0.958 . S
H966 C903 0.961 . S
H967 C903 0.960 . S
H968 C903 0.960 . S
H969 C905 0.980 . S
H970 C904 0.961 . S
H971 C904 0.961 . S
H972 C904 0.959 . S
H973 C907 0.932 . S
H974 C911 0.929 . S
H975 C912 0.961 . S
H976 C912 0.959 . S
H977 C912 0.959 . S
H978 C913 0.960 . S
H979 C913 0.962 . S
H980 C913 0.961 . S
H981 C915 0.929 . S
H982 C918 0.930 . S
H983 C919 0.929 . S
H984 C922 0.930 . S
H985 C925 0.929 . S
H986 C926 0.930 . S
H987 C930 0.962 . S
H988 C930 0.959 . S
H989 C930 0.958 . S
C990 C991 1.560 . S
C990 H1051 0.959 . S
C990 H1052 0.959 . S
C990 H1053 0.960 . S
C991 C990 1.560 . S
C991 O1046 1.426 . S
C991 H1050 0.980 . S
C992 C993 1.407 . S
C992 C997 1.418 . S
C992 O1046 1.334 . S
C993 C992 1.407 . S
C993 C994 1.360 . S
C993 H1054 0.929 . S
C994 C993 1.360 . S
C994 C995 1.401 . S
C994 C998 1.527 . S
C995 C994 1.401 . S
C995 C996 1.405 . S
C995 C1028 1.587 . S
C996 C995 1.405 . S
C996 C997 1.332 . S
C996 C999 1.496 . S
C997 C992 1.418 . S
C997 C996 1.332 . S
C997 H1055 0.929 . S
C998 C994 1.527 . S
C998 H1056 0.959 . S
C998 H1057 0.961 . S
C998 H1058 0.961 . S
C999 C996 1.496 . S
C999 H1059 0.960 . S
C999 H1060 0.960 . S
C999 H1061 0.961 . S
C1000 C1001 1.517 . S
C1000 H1063 0.961 . S
C1000 H1064 0.960 . S
C1000 H1065 0.959 . S
C1001 C1000 1.517 . S
C1001 O1049 1.468 . S
C1001 H1062 0.980 . S
C1002 C1003 1.349 . S
C1002 C1007 1.367 . S
C1002 O1049 1.408 . S
C1003 C1002 1.349 . S
C1003 C1004 1.407 . S
C1003 H1066 0.930 . S
C1004 C1003 1.407 . S
C1004 C1005 1.449 . S
C1004 C1008 1.535 . S
C1005 C1004 1.449 . S
C1005 C1006 1.384 . S
C1005 C1030 1.553 . S
C1006 C1005 1.384 . S
C1006 C1007 1.364 . S
C1006 C1009 1.450 . S
C1007 C1002 1.367 . S
C1007 C1006 1.364 . S
C1007 H1067 0.931 . S
C1008 C1004 1.535 . S
C1008 H1068 0.959 . S
C1008 H1069 0.961 . S
C1008 H1070 0.959 . S
C1009 C1006 1.450 . S
C1009 H1071 0.960 . S
C1009 H1072 0.960 . S
C1009 H1073 0.960 . S
C1010 C1011 1.309 . S
C1010 C1015 1.304 . S
C1010 O1048 1.435 . S
C1011 C1010 1.309 . S
C1011 C1012 1.476 . S
C1011 H1075 0.930 . S
C1012 C1011 1.476 . S
C1012 C1013 1.400 . S
C1012 C1016 1.567 . S
C1013 C1012 1.400 . S
C1013 C1014 1.373 . S
C1013 C1035 1.432 . S
C1014 C1013 1.373 . S
C1014 C1015 1.339 . S
C1014 C1017 1.530 . S
C1015 C1010 1.304 . S
C1015 C1014 1.339 . S
C1015 H1076 0.930 . S
C1016 C1012 1.567 . S
C1016 H1077 0.961 . S
C1016 H1078 0.960 . S
C1016 H1079 0.958 . S
C1017 C1014 1.530 . S
C1017 H1080 0.961 . S
C1017 H1081 0.960 . S
C1017 H1082 0.960 . S
C1018 C1019 1.530 . S
C1018 H1084 0.961 . S
C1018 H1085 0.961 . S
C1018 H1086 0.959 . S
C1019 C1018 1.530 . S
C1019 O1047 1.412 . S
C1019 H1083 0.980 . S
C1020 C1021 1.288 . S
C1020 C1025 1.377 . S
C1020 O1047 1.393 . S
C1021 C1020 1.288 . S
C1021 C1022 1.369 . S
C1021 H1087 0.932 . S
C1022 C1021 1.369 . S
C1022 C1023 1.398 . S
C1022 C1026 1.527 . S
C1023 C1022 1.398 . S
C1023 C1024 1.380 . S
C1023 C1037 1.497 . S
C1024 C1023 1.380 . S
C1024 C1025 1.383 . S
C1024 C1027 1.603 . S
C1025 C1020 1.377 . S
C1025 C1024 1.383 . S
C1025 H1088 0.929 . S
C1026 C1022 1.527 . S
C1026 H1089 0.961 . S
C1026 H1090 0.959 . S
C1026 H1091 0.959 . S
C1027 C1024 1.603 . S
C1027 H1092 0.960 . S
C1027 H1093 0.962 . S
C1027 H1094 0.961 . S
C1028 C995 1.587 . S
C1028 C1029 1.360 . S
C1028 C1041 1.412 . S
C1029 C1028 1.360 . S
C1029 C1030 1.365 . S
C1029 H1095 0.929 . S
C1030 C1005 1.553 . S
C1030 C1029 1.365 . S
C1030 C1031 1.404 . S
C1031 C1030 1.404 . S
C1031 C1032 1.395 . S
C1031 C1042 1.451 . S
C1032 C1031 1.395 . S
C1032 C1033 1.322 . S
C1032 H1096 0.930 . S
C1033 C1032 1.322 . S
C1033 C1034 1.459 . S
C1033 H1097 0.929 . S
C1034 C1033 1.459 . S
C1034 C1035 1.445 . S
C1034 C1043 1.395 . S
C1035 C1013 1.432 . S
C1035 C1034 1.445 . S
C1035 C1036 1.370 . S
C1036 C1035 1.370 . S
C1036 C1037 1.438 . S
C1036 H1098 0.930 . S
C1037 C1023 1.497 . S
C1037 C1036 1.438 . S
C1037 C1038 1.360 . S
C1038 C1037 1.360 . S
C1038 C1039 1.401 . S
C1038 C1043 1.446 . S
C1039 C1038 1.401 . S
C1039 C1040 1.347 . S
C1039 H1099 0.929 . S
C1040 C1039 1.347 . S
C1040 C1041 1.455 . S
C1040 H1100 0.930 . S
C1041 C1028 1.412 . S
C1041 C1040 1.455 . S
C1041 C1042 1.331 . S
C1042 C1031 1.451 . S
C1042 C1041 1.331 . S
C1042 C1043 1.497 . S
C1043 C1034 1.395 . S
C1043 C1038 1.446 . S
C1043 C1042 1.497 . S
C1044 C1045 1.582 . S
C1044 H1101 0.962 . S
C1044 H1102 0.959 . S
C1044 H1103 0.958 . S
C1045 C1044 1.582 . S
C1045 O1048 1.458 . S
C1045 H1074 0.980 . S
O1046 C991 1.426 . S
O1046 C992 1.334 . S
O1047 C1019 1.412 . S
O1047 C1020 1.393 . S
O1048 C1010 1.435 . S
O1048 C1045 1.458 . S
O1049 C1001 1.468 . S
O1049 C1002 1.408 . S
H1050 C991 0.980 . S
H1051 C990 0.959 . S
H1052 C990 0.959 . S
H1053 C990 0.960 . S
H1054 C993 0.929 . S
H1055 C997 0.929 . S
H1056 C998 0.959 . S
H1057 C998 0.961 . S
H1058 C998 0.961 . S
H1059 C999 0.960 . S
H1060 C999 0.960 . S
H1061 C999 0.961 . S
H1062 C1001 0.980 . S
H1063 C1000 0.961 . S
H1064 C1000 0.960 . S
H1065 C1000 0.959 . S
H1066 C1003 0.930 . S
H1067 C1007 0.931 . S
H1068 C1008 0.959 . S
H1069 C1008 0.961 . S
H1070 C1008 0.959 . S
H1071 C1009 0.960 . S
H1072 C1009 0.960 . S
H1073 C1009 0.960 . S
H1074 C1045 0.980 . S
H1075 C1011 0.930 . S
H1076 C1015 0.930 . S
H1077 C1016 0.961 . S
H1078 C1016 0.960 . S
H1079 C1016 0.958 . S
H1080 C1017 0.961 . S
H1081 C1017 0.960 . S
H1082 C1017 0.960 . S
H1083 C1019 0.980 . S
H1084 C1018 0.961 . S
H1085 C1018 0.961 . S
H1086 C1018 0.959 . S
H1087 C1021 0.932 . S
H1088 C1025 0.929 . S
H1089 C1026 0.961 . S
H1090 C1026 0.959 . S
H1091 C1026 0.959 . S
H1092 C1027 0.960 . S
H1093 C1027 0.962 . S
H1094 C1027 0.961 . S
H1095 C1029 0.929 . S
H1096 C1032 0.930 . S
H1097 C1033 0.929 . S
H1098 C1036 0.930 . S
H1099 C1039 0.929 . S
H1100 C1040 0.930 . S
H1101 C1044 0.962 . S
H1102 C1044 0.959 . S
H1103 C1044 0.958 . S
C1104 C1105 1.560 . S
C1104 H1165 0.959 . S
C1104 H1166 0.959 . S
C1104 H1167 0.960 . S
C1105 C1104 1.560 . S
C1105 O1160 1.426 . S
C1105 H1164 0.980 . S
C1106 C1107 1.407 . S
C1106 C1111 1.418 . S
C1106 O1160 1.334 . S
C1107 C1106 1.407 . S
C1107 C1108 1.360 . S
C1107 H1168 0.929 . S
C1108 C1107 1.360 . S
C1108 C1109 1.401 . S
C1108 C1112 1.527 . S
C1109 C1108 1.401 . S
C1109 C1110 1.405 . S
C1109 C1142 1.587 . S
C1110 C1109 1.405 . S
C1110 C1111 1.332 . S
C1110 C1113 1.496 . S
C1111 C1106 1.418 . S
C1111 C1110 1.332 . S
C1111 H1169 0.929 . S
C1112 C1108 1.527 . S
C1112 H1170 0.959 . S
C1112 H1171 0.961 . S
C1112 H1172 0.961 . S
C1113 C1110 1.496 . S
C1113 H1173 0.960 . S
C1113 H1174 0.960 . S
C1113 H1175 0.961 . S
C1114 C1115 1.517 . S
C1114 H1177 0.961 . S
C1114 H1178 0.960 . S
C1114 H1179 0.959 . S
C1115 C1114 1.517 . S
C1115 O1163 1.468 . S
C1115 H1176 0.980 . S
C1116 C1117 1.349 . S
C1116 C1121 1.367 . S
C1116 O1163 1.408 . S
C1117 C1116 1.349 . S
C1117 C1118 1.407 . S
C1117 H1180 0.930 . S
C1118 C1117 1.407 . S
C1118 C1119 1.449 . S
C1118 C1122 1.535 . S
C1119 C1118 1.449 . S
C1119 C1120 1.384 . S
C1119 C1144 1.553 . S
C1120 C1119 1.384 . S
C1120 C1121 1.364 . S
C1120 C1123 1.450 . S
C1121 C1116 1.367 . S
C1121 C1120 1.364 . S
C1121 H1181 0.931 . S
C1122 C1118 1.535 . S
C1122 H1182 0.959 . S
C1122 H1183 0.961 . S
C1122 H1184 0.959 . S
C1123 C1120 1.450 . S
C1123 H1185 0.960 . S
C1123 H1186 0.960 . S
C1123 H1187 0.960 . S
C1124 C1125 1.309 . S
C1124 C1129 1.304 . S
C1124 O1162 1.435 . S
C1125 C1124 1.309 . S
C1125 C1126 1.476 . S
C1125 H1189 0.930 . S
C1126 C1125 1.476 . S
C1126 C1127 1.400 . S
C1126 C1130 1.567 . S
C1127 C1126 1.400 . S
C1127 C1128 1.373 . S
C1127 C1149 1.432 . S
C1128 C1127 1.373 . S
C1128 C1129 1.339 . S
C1128 C1131 1.530 . S
C1129 C1124 1.304 . S
C1129 C1128 1.339 . S
C1129 H1190 0.930 . S
C1130 C1126 1.567 . S
C1130 H1191 0.961 . S
C1130 H1192 0.960 . S
C1130 H1193 0.958 . S
C1131 C1128 1.530 . S
C1131 H1194 0.961 . S
C1131 H1195 0.960 . S
C1131 H1196 0.960 . S
C1132 C1133 1.530 . S
C1132 H1198 0.961 . S
C1132 H1199 0.961 . S
C1132 H1200 0.959 . S
C1133 C1132 1.530 . S
C1133 O1161 1.412 . S
C1133 H1197 0.980 . S
C1134 C1135 1.288 . S
C1134 C1139 1.377 . S
C1134 O1161 1.393 . S
C1135 C1134 1.288 . S
C1135 C1136 1.369 . S
C1135 H1201 0.932 . S
C1136 C1135 1.369 . S
C1136 C1137 1.398 . S
C1136 C1140 1.527 . S
C1137 C1136 1.398 . S
C1137 C1138 1.380 . S
C1137 C1151 1.497 . S
C1138 C1137 1.380 . S
C1138 C1139 1.383 . S
C1138 C1141 1.603 . S
C1139 C1134 1.377 . S
C1139 C1138 1.383 . S
C1139 H1202 0.929 . S
C1140 C1136 1.527 . S
C1140 H1203 0.961 . S
C1140 H1204 0.959 . S
C1140 H1205 0.959 . S
C1141 C1138 1.603 . S
C1141 H1206 0.960 . S
C1141 H1207 0.962 . S
C1141 H1208 0.961 . S
C1142 C1109 1.587 . S
C1142 C1143 1.360 . S
C1142 C1155 1.412 . S
C1143 C1142 1.360 . S
C1143 C1144 1.365 . S
C1143 H1209 0.929 . S
C1144 C1119 1.553 . S
C1144 C1143 1.365 . S
C1144 C1145 1.404 . S
C1145 C1144 1.404 . S
C1145 C1146 1.395 . S
C1145 C1156 1.451 . S
C1146 C1145 1.395 . S
C1146 C1147 1.322 . S
C1146 H1210 0.930 . S
C1147 C1146 1.322 . S
C1147 C1148 1.459 . S
C1147 H1211 0.929 . S
C1148 C1147 1.459 . S
C1148 C1149 1.445 . S
C1148 C1157 1.395 . S
C1149 C1127 1.432 . S
C1149 C1148 1.445 . S
C1149 C1150 1.370 . S
C1150 C1149 1.370 . S
C1150 C1151 1.438 . S
C1150 H1212 0.930 . S
C1151 C1137 1.497 . S
C1151 C1150 1.438 . S
C1151 C1152 1.360 . S
C1152 C1151 1.360 . S
C1152 C1153 1.401 . S
C1152 C1157 1.446 . S
C1153 C1152 1.401 . S
C1153 C1154 1.347 . S
C1153 H1213 0.929 . S
C1154 C1153 1.347 . S
C1154 C1155 1.455 . S
C1154 H1214 0.930 . S
C1155 C1142 1.412 . S
C1155 C1154 1.455 . S
C1155 C1156 1.331 . S
C1156 C1145 1.451 . S
C1156 C1155 1.331 . S
C1156 C1157 1.497 . S
C1157 C1148 1.395 . S
C1157 C1152 1.446 . S
C1157 C1156 1.497 . S
C1158 C1159 1.582 . S
C1158 H1215 0.962 . S
C1158 H1216 0.959 . S
C1158 H1217 0.958 . S
C1159 C1158 1.582 . S
C1159 O1162 1.458 . S
C1159 H1188 0.980 . S
O1160 C1105 1.426 . S
O1160 C1106 1.334 . S
O1161 C1133 1.412 . S
O1161 C1134 1.393 . S
O1162 C1124 1.435 . S
O1162 C1159 1.458 . S
O1163 C1115 1.468 . S
O1163 C1116 1.408 . S
H1164 C1105 0.980 . S
H1165 C1104 0.959 . S
H1166 C1104 0.959 . S
H1167 C1104 0.960 . S
H1168 C1107 0.929 . S
H1169 C1111 0.929 . S
H1170 C1112 0.959 . S
H1171 C1112 0.961 . S
H1172 C1112 0.961 . S
H1173 C1113 0.960 . S
H1174 C1113 0.960 . S
H1175 C1113 0.961 . S
H1176 C1115 0.980 . S
H1177 C1114 0.961 . S
H1178 C1114 0.960 . S
H1179 C1114 0.959 . S
H1180 C1117 0.930 . S
H1181 C1121 0.931 . S
H1182 C1122 0.959 . S
H1183 C1122 0.961 . S
H1184 C1122 0.959 . S
H1185 C1123 0.960 . S
H1186 C1123 0.960 . S
H1187 C1123 0.960 . S
H1188 C1159 0.980 . S
H1189 C1125 0.930 . S
H1190 C1129 0.930 . S
H1191 C1130 0.961 . S
H1192 C1130 0.960 . S
H1193 C1130 0.958 . S
H1194 C1131 0.961 . S
H1195 C1131 0.960 . S
H1196 C1131 0.960 . S
H1197 C1133 0.980 . S
H1198 C1132 0.961 . S
H1199 C1132 0.961 . S
H1200 C1132 0.959 . S
H1201 C1135 0.932 . S
H1202 C1139 0.929 . S
H1203 C1140 0.961 . S
H1204 C1140 0.959 . S
H1205 C1140 0.959 . S
H1206 C1141 0.960 . S
H1207 C1141 0.962 . S
H1208 C1141 0.961 . S
H1209 C1143 0.929 . S
H1210 C1146 0.930 . S
H1211 C1147 0.929 . S
H1212 C1150 0.930 . S
H1213 C1153 0.929 . S
H1214 C1154 0.930 . S
H1215 C1158 0.962 . S
H1216 C1158 0.959 . S
H1217 C1158 0.958 . S
C1218 C1219 1.560 . S
C1218 H1279 0.959 . S
C1218 H1280 0.959 . S
C1218 H1281 0.960 . S
C1219 C1218 1.560 . S
C1219 O1274 1.426 . S
C1219 H1278 0.980 . S
C1220 C1221 1.407 . S
C1220 C1225 1.418 . S
C1220 O1274 1.334 . S
C1221 C1220 1.407 . S
C1221 C1222 1.360 . S
C1221 H1282 0.929 . S
C1222 C1221 1.360 . S
C1222 C1223 1.401 . S
C1222 C1226 1.527 . S
C1223 C1222 1.401 . S
C1223 C1224 1.405 . S
C1223 C1256 1.587 . S
C1224 C1223 1.405 . S
C1224 C1225 1.332 . S
C1224 C1227 1.496 . S
C1225 C1220 1.418 . S
C1225 C1224 1.332 . S
C1225 H1283 0.929 . S
C1226 C1222 1.527 . S
C1226 H1284 0.959 . S
C1226 H1285 0.961 . S
C1226 H1286 0.961 . S
C1227 C1224 1.496 . S
C1227 H1287 0.960 . S
C1227 H1288 0.960 . S
C1227 H1289 0.961 . S
C1228 C1229 1.517 . S
C1228 H1291 0.961 . S
C1228 H1292 0.960 . S
C1228 H1293 0.959 . S
C1229 C1228 1.517 . S
C1229 O1277 1.468 . S
C1229 H1290 0.980 . S
C1230 C1231 1.349 . S
C1230 C1235 1.367 . S
C1230 O1277 1.408 . S
C1231 C1230 1.349 . S
C1231 C1232 1.407 . S
C1231 H1294 0.930 . S
C1232 C1231 1.407 . S
C1232 C1233 1.449 . S
C1232 C1236 1.535 . S
C1233 C1232 1.449 . S
C1233 C1234 1.384 . S
C1233 C1258 1.553 . S
C1234 C1233 1.384 . S
C1234 C1235 1.364 . S
C1234 C1237 1.450 . S
C1235 C1230 1.367 . S
C1235 C1234 1.364 . S
C1235 H1295 0.931 . S
C1236 C1232 1.535 . S
C1236 H1296 0.959 . S
C1236 H1297 0.961 . S
C1236 H1298 0.959 . S
C1237 C1234 1.450 . S
C1237 H1299 0.960 . S
C1237 H1300 0.960 . S
C1237 H1301 0.960 . S
C1238 C1239 1.309 . S
C1238 C1243 1.304 . S
C1238 O1276 1.435 . S
C1239 C1238 1.309 . S
C1239 C1240 1.476 . S
C1239 H1303 0.930 . S
C1240 C1239 1.476 . S
C1240 C1241 1.400 . S
C1240 C1244 1.567 . S
C1241 C1240 1.400 . S
C1241 C1242 1.373 . S
C1241 C1263 1.432 . S
C1242 C1241 1.373 . S
C1242 C1243 1.339 . S
C1242 C1245 1.530 . S
C1243 C1238 1.304 . S
C1243 C1242 1.339 . S
C1243 H1304 0.930 . S
C1244 C1240 1.567 . S
C1244 H1305 0.961 . S
C1244 H1306 0.960 . S
C1244 H1307 0.958 . S
C1245 C1242 1.530 . S
C1245 H1308 0.961 . S
C1245 H1309 0.960 . S
C1245 H1310 0.960 . S
C1246 C1247 1.530 . S
C1246 H1312 0.961 . S
C1246 H1313 0.961 . S
C1246 H1314 0.959 . S
C1247 C1246 1.530 . S
C1247 O1275 1.412 . S
C1247 H1311 0.980 . S
C1248 C1249 1.288 . S
C1248 C1253 1.377 . S
C1248 O1275 1.393 . S
C1249 C1248 1.288 . S
C1249 C1250 1.369 . S
C1249 H1315 0.932 . S
C1250 C1249 1.369 . S
C1250 C1251 1.398 . S
C1250 C1254 1.527 . S
C1251 C1250 1.398 . S
C1251 C1252 1.380 . S
C1251 C1265 1.497 . S
C1252 C1251 1.380 . S
C1252 C1253 1.383 . S
C1252 C1255 1.603 . S
C1253 C1248 1.377 . S
C1253 C1252 1.383 . S
C1253 H1316 0.929 . S
C1254 C1250 1.527 . S
C1254 H1317 0.961 . S
C1254 H1318 0.959 . S
C1254 H1319 0.959 . S
C1255 C1252 1.603 . S
C1255 H1320 0.960 . S
C1255 H1321 0.962 . S
C1255 H1322 0.961 . S
C1256 C1223 1.587 . S
C1256 C1257 1.360 . S
C1256 C1269 1.412 . S
C1257 C1256 1.360 . S
C1257 C1258 1.365 . S
C1257 H1323 0.929 . S
C1258 C1233 1.553 . S
C1258 C1257 1.365 . S
C1258 C1259 1.404 . S
C1259 C1258 1.404 . S
C1259 C1260 1.395 . S
C1259 C1270 1.451 . S
C1260 C1259 1.395 . S
C1260 C1261 1.322 . S
C1260 H1324 0.930 . S
C1261 C1260 1.322 . S
C1261 C1262 1.459 . S
C1261 H1325 0.929 . S
C1262 C1261 1.459 . S
C1262 C1263 1.445 . S
C1262 C1271 1.395 . S
C1263 C1241 1.432 . S
C1263 C1262 1.445 . S
C1263 C1264 1.370 . S
C1264 C1263 1.370 . S
C1264 C1265 1.438 . S
C1264 H1326 0.930 . S
C1265 C1251 1.497 . S
C1265 C1264 1.438 . S
C1265 C1266 1.360 . S
C1266 C1265 1.360 . S
C1266 C1267 1.401 . S
C1266 C1271 1.446 . S
C1267 C1266 1.401 . S
C1267 C1268 1.347 . S
C1267 H1327 0.929 . S
C1268 C1267 1.347 . S
C1268 C1269 1.455 . S
C1268 H1328 0.930 . S
C1269 C1256 1.412 . S
C1269 C1268 1.455 . S
C1269 C1270 1.331 . S
C1270 C1259 1.451 . S
C1270 C1269 1.331 . S
C1270 C1271 1.497 . S
C1271 C1262 1.395 . S
C1271 C1266 1.446 . S
C1271 C1270 1.497 . S
C1272 C1273 1.582 . S
C1272 H1329 0.962 . S
C1272 H1330 0.959 . S
C1272 H1331 0.958 . S
C1273 C1272 1.582 . S
C1273 O1276 1.458 . S
C1273 H1302 0.980 . S
O1274 C1219 1.426 . S
O1274 C1220 1.334 . S
O1275 C1247 1.412 . S
O1275 C1248 1.393 . S
O1276 C1238 1.435 . S
O1276 C1273 1.458 . S
O1277 C1229 1.468 . S
O1277 C1230 1.408 . S
H1278 C1219 0.980 . S
H1279 C1218 0.959 . S
H1280 C1218 0.959 . S
H1281 C1218 0.960 . S
H1282 C1221 0.929 . S
H1283 C1225 0.929 . S
H1284 C1226 0.959 . S
H1285 C1226 0.961 . S
H1286 C1226 0.961 . S
H1287 C1227 0.960 . S
H1288 C1227 0.960 . S
H1289 C1227 0.961 . S
H1290 C1229 0.980 . S
H1291 C1228 0.961 . S
H1292 C1228 0.960 . S
H1293 C1228 0.959 . S
H1294 C1231 0.930 . S
H1295 C1235 0.931 . S
H1296 C1236 0.959 . S
H1297 C1236 0.961 . S
H1298 C1236 0.959 . S
H1299 C1237 0.960 . S
H1300 C1237 0.960 . S
H1301 C1237 0.960 . S
H1302 C1273 0.980 . S
H1303 C1239 0.930 . S
H1304 C1243 0.930 . S
H1305 C1244 0.961 . S
H1306 C1244 0.960 . S
H1307 C1244 0.958 . S
H1308 C1245 0.961 . S
H1309 C1245 0.960 . S
H1310 C1245 0.960 . S
H1311 C1247 0.980 . S
H1312 C1246 0.961 . S
H1313 C1246 0.961 . S
H1314 C1246 0.959 . S
H1315 C1249 0.932 . S
H1316 C1253 0.929 . S
H1317 C1254 0.961 . S
H1318 C1254 0.959 . S
H1319 C1254 0.959 . S
H1320 C1255 0.960 . S
H1321 C1255 0.962 . S
H1322 C1255 0.961 . S
H1323 C1257 0.929 . S
H1324 C1260 0.930 . S
H1325 C1261 0.929 . S
H1326 C1264 0.930 . S
H1327 C1267 0.929 . S
H1328 C1268 0.930 . S
H1329 C1272 0.962 . S
H1330 C1272 0.959 . S
H1331 C1272 0.958 . S
C1332 C1333 1.560 . S
C1332 H1393 0.959 . S
C1332 H1394 0.959 . S
C1332 H1395 0.960 . S
C1333 C1332 1.560 . S
C1333 O1388 1.426 . S
C1333 H1392 0.980 . S
C1334 C1335 1.407 . S
C1334 C1339 1.418 . S
C1334 O1388 1.334 . S
C1335 C1334 1.407 . S
C1335 C1336 1.360 . S
C1335 H1396 0.929 . S
C1336 C1335 1.360 . S
C1336 C1337 1.401 . S
C1336 C1340 1.527 . S
C1337 C1336 1.401 . S
C1337 C1338 1.405 . S
C1337 C1370 1.587 . S
C1338 C1337 1.405 . S
C1338 C1339 1.332 . S
C1338 C1341 1.496 . S
C1339 C1334 1.418 . S
C1339 C1338 1.332 . S
C1339 H1397 0.929 . S
C1340 C1336 1.527 . S
C1340 H1398 0.959 . S
C1340 H1399 0.961 . S
C1340 H1400 0.961 . S
C1341 C1338 1.496 . S
C1341 H1401 0.960 . S
C1341 H1402 0.960 . S
C1341 H1403 0.961 . S
C1342 C1343 1.517 . S
C1342 H1405 0.961 . S
C1342 H1406 0.960 . S
C1342 H1407 0.959 . S
C1343 C1342 1.517 . S
C1343 O1391 1.468 . S
C1343 H1404 0.980 . S
C1344 C1345 1.349 . S
C1344 C1349 1.367 . S
C1344 O1391 1.408 . S
C1345 C1344 1.349 . S
C1345 C1346 1.407 . S
C1345 H1408 0.930 . S
C1346 C1345 1.407 . S
C1346 C1347 1.449 . S
C1346 C1350 1.535 . S
C1347 C1346 1.449 . S
C1347 C1348 1.384 . S
C1347 C1372 1.553 . S
C1348 C1347 1.384 . S
C1348 C1349 1.364 . S
C1348 C1351 1.450 . S
C1349 C1344 1.367 . S
C1349 C1348 1.364 . S
C1349 H1409 0.931 . S
C1350 C1346 1.535 . S
C1350 H1410 0.959 . S
C1350 H1411 0.961 . S
C1350 H1412 0.959 . S
C1351 C1348 1.450 . S
C1351 H1413 0.960 . S
C1351 H1414 0.960 . S
C1351 H1415 0.960 . S
C1352 C1353 1.309 . S
C1352 C1357 1.304 . S
C1352 O1390 1.435 . S
C1353 C1352 1.309 . S
C1353 C1354 1.476 . S
C1353 H1417 0.930 . S
C1354 C1353 1.476 . S
C1354 C1355 1.400 . S
C1354 C1358 1.567 . S
C1355 C1354 1.400 . S
C1355 C1356 1.373 . S
C1355 C1377 1.432 . S
C1356 C1355 1.373 . S
C1356 C1357 1.339 . S
C1356 C1359 1.530 . S
C1357 C1352 1.304 . S
C1357 C1356 1.339 . S
C1357 H1418 0.930 . S
C1358 C1354 1.567 . S
C1358 H1419 0.961 . S
C1358 H1420 0.960 . S
C1358 H1421 0.958 . S
C1359 C1356 1.530 . S
C1359 H1422 0.961 . S
C1359 H1423 0.960 . S
C1359 H1424 0.960 . S
C1360 C1361 1.530 . S
C1360 H1426 0.961 . S
C1360 H1427 0.961 . S
C1360 H1428 0.959 . S
C1361 C1360 1.530 . S
C1361 O1389 1.412 . S
C1361 H1425 0.980 . S
C1362 C1363 1.288 . S
C1362 C1367 1.377 . S
C1362 O1389 1.393 . S
C1363 C1362 1.288 . S
C1363 C1364 1.369 . S
C1363 H1429 0.932 . S
C1364 C1363 1.369 . S
C1364 C1365 1.398 . S
C1364 C1368 1.527 . S
C1365 C1364 1.398 . S
C1365 C1366 1.380 . S
C1365 C1379 1.497 . S
C1366 C1365 1.380 . S
C1366 C1367 1.383 . S
C1366 C1369 1.603 . S
C1367 C1362 1.377 . S
C1367 C1366 1.383 . S
C1367 H1430 0.929 . S
C1368 C1364 1.527 . S
C1368 H1431 0.961 . S
C1368 H1432 0.959 . S
C1368 H1433 0.959 . S
C1369 C1366 1.603 . S
C1369 H1434 0.960 . S
C1369 H1435 0.962 . S
C1369 H1436 0.961 . S
C1370 C1337 1.587 . S
C1370 C1371 1.360 . S
C1370 C1383 1.412 . S
C1371 C1370 1.360 . S
C1371 C1372 1.365 . S
C1371 H1437 0.929 . S
C1372 C1347 1.553 . S
C1372 C1371 1.365 . S
C1372 C1373 1.404 . S
C1373 C1372 1.404 . S
C1373 C1374 1.395 . S
C1373 C1384 1.451 . S
C1374 C1373 1.395 . S
C1374 C1375 1.322 . S
C1374 H1438 0.930 . S
C1375 C1374 1.322 . S
C1375 C1376 1.459 . S
C1375 H1439 0.929 . S
C1376 C1375 1.459 . S
C1376 C1377 1.445 . S
C1376 C1385 1.395 . S
C1377 C1355 1.432 . S
C1377 C1376 1.445 . S
C1377 C1378 1.370 . S
C1378 C1377 1.370 . S
C1378 C1379 1.438 . S
C1378 H1440 0.930 . S
C1379 C1365 1.497 . S
C1379 C1378 1.438 . S
C1379 C1380 1.360 . S
C1380 C1379 1.360 . S
C1380 C1381 1.401 . S
C1380 C1385 1.446 . S
C1381 C1380 1.401 . S
C1381 C1382 1.347 . S
C1381 H1441 0.929 . S
C1382 C1381 1.347 . S
C1382 C1383 1.455 . S
C1382 H1442 0.930 . S
C1383 C1370 1.412 . S
C1383 C1382 1.455 . S
C1383 C1384 1.331 . S
C1384 C1373 1.451 . S
C1384 C1383 1.331 . S
C1384 C1385 1.497 . S
C1385 C1376 1.395 . S
C1385 C1380 1.446 . S
C1385 C1384 1.497 . S
C1386 C1387 1.582 . S
C1386 H1443 0.962 . S
C1386 H1444 0.959 . S
C1386 H1445 0.958 . S
C1387 C1386 1.582 . S
C1387 O1390 1.458 . S
C1387 H1416 0.980 . S
O1388 C1333 1.426 . S
O1388 C1334 1.334 . S
O1389 C1361 1.412 . S
O1389 C1362 1.393 . S
O1390 C1352 1.435 . S
O1390 C1387 1.458 . S
O1391 C1343 1.468 . S
O1391 C1344 1.408 . S
H1392 C1333 0.980 . S
H1393 C1332 0.959 . S
H1394 C1332 0.959 . S
H1395 C1332 0.960 . S
H1396 C1335 0.929 . S
H1397 C1339 0.929 . S
H1398 C1340 0.959 . S
H1399 C1340 0.961 . S
H1400 C1340 0.961 . S
H1401 C1341 0.960 . S
H1402 C1341 0.960 . S
H1403 C1341 0.961 . S
H1404 C1343 0.980 . S
H1405 C1342 0.961 . S
H1406 C1342 0.960 . S
H1407 C1342 0.959 . S
H1408 C1345 0.930 . S
H1409 C1349 0.931 . S
H1410 C1350 0.959 . S
H1411 C1350 0.961 . S
H1412 C1350 0.959 . S
H1413 C1351 0.960 . S
H1414 C1351 0.960 . S
H1415 C1351 0.960 . S
H1416 C1387 0.980 . S
H1417 C1353 0.930 . S
H1418 C1357 0.930 . S
H1419 C1358 0.961 . S
H1420 C1358 0.960 . S
H1421 C1358 0.958 . S
H1422 C1359 0.961 . S
H1423 C1359 0.960 . S
H1424 C1359 0.960 . S
H1425 C1361 0.980 . S
H1426 C1360 0.961 . S
H1427 C1360 0.961 . S
H1428 C1360 0.959 . S
H1429 C1363 0.932 . S
H1430 C1367 0.929 . S
H1431 C1368 0.961 . S
H1432 C1368 0.959 . S
H1433 C1368 0.959 . S
H1434 C1369 0.960 . S
H1435 C1369 0.962 . S
H1436 C1369 0.961 . S
H1437 C1371 0.929 . S
H1438 C1374 0.930 . S
H1439 C1375 0.929 . S
H1440 C1378 0.930 . S
H1441 C1381 0.929 . S
H1442 C1382 0.930 . S
H1443 C1386 0.962 . S
H1444 C1386 0.959 . S
H1445 C1386 0.958 . S
C1446 C1447 1.560 . S
C1446 H1507 0.959 . S
C1446 H1508 0.959 . S
C1446 H1509 0.960 . S
C1447 C1446 1.560 . S
C1447 O1502 1.426 . S
C1447 H1506 0.980 . S
C1448 C1449 1.407 . S
C1448 C1453 1.418 . S
C1448 O1502 1.334 . S
C1449 C1448 1.407 . S
C1449 C1450 1.360 . S
C1449 H1510 0.929 . S
C1450 C1449 1.360 . S
C1450 C1451 1.401 . S
C1450 C1454 1.527 . S
C1451 C1450 1.401 . S
C1451 C1452 1.405 . S
C1451 C1484 1.587 . S
C1452 C1451 1.405 . S
C1452 C1453 1.332 . S
C1452 C1455 1.496 . S
C1453 C1448 1.418 . S
C1453 C1452 1.332 . S
C1453 H1511 0.929 . S
C1454 C1450 1.527 . S
C1454 H1512 0.959 . S
C1454 H1513 0.961 . S
C1454 H1514 0.961 . S
C1455 C1452 1.496 . S
C1455 H1515 0.960 . S
C1455 H1516 0.960 . S
C1455 H1517 0.961 . S
C1456 C1457 1.517 . S
C1456 H1519 0.961 . S
C1456 H1520 0.960 . S
C1456 H1521 0.959 . S
C1457 C1456 1.517 . S
C1457 O1505 1.468 . S
C1457 H1518 0.980 . S
C1458 C1459 1.349 . S
C1458 C1463 1.367 . S
C1458 O1505 1.408 . S
C1459 C1458 1.349 . S
C1459 C1460 1.407 . S
C1459 H1522 0.930 . S
C1460 C1459 1.407 . S
C1460 C1461 1.449 . S
C1460 C1464 1.535 . S
C1461 C1460 1.449 . S
C1461 C1462 1.384 . S
C1461 C1486 1.553 . S
C1462 C1461 1.384 . S
C1462 C1463 1.364 . S
C1462 C1465 1.450 . S
C1463 C1458 1.367 . S
C1463 C1462 1.364 . S
C1463 H1523 0.931 . S
C1464 C1460 1.535 . S
C1464 H1524 0.959 . S
C1464 H1525 0.961 . S
C1464 H1526 0.959 . S
C1465 C1462 1.450 . S
C1465 H1527 0.960 . S
C1465 H1528 0.960 . S
C1465 H1529 0.960 . S
C1466 C1467 1.309 . S
C1466 C1471 1.304 . S
C1466 O1504 1.435 . S
C1467 C1466 1.309 . S
C1467 C1468 1.476 . S
C1467 H1531 0.930 . S
C1468 C1467 1.476 . S
C1468 C1469 1.400 . S
C1468 C1472 1.567 . S
C1469 C1468 1.400 . S
C1469 C1470 1.373 . S
C1469 C1491 1.432 . S
C1470 C1469 1.373 . S
C1470 C1471 1.339 . S
C1470 C1473 1.530 . S
C1471 C1466 1.304 . S
C1471 C1470 1.339 . S
C1471 H1532 0.930 . S
C1472 C1468 1.567 . S
C1472 H1533 0.961 . S
C1472 H1534 0.960 . S
C1472 H1535 0.958 . S
C1473 C1470 1.530 . S
C1473 H1536 0.961 . S
C1473 H1537 0.960 . S
C1473 H1538 0.960 . S
C1474 C1475 1.530 . S
C1474 H1540 0.961 . S
C1474 H1541 0.961 . S
C1474 H1542 0.959 . S
C1475 C1474 1.530 . S
C1475 O1503 1.412 . S
C1475 H1539 0.980 . S
C1476 C1477 1.288 . S
C1476 C1481 1.377 . S
C1476 O1503 1.393 . S
C1477 C1476 1.288 . S
C1477 C1478 1.369 . S
C1477 H1543 0.932 . S
C1478 C1477 1.369 . S
C1478 C1479 1.398 . S
C1478 C1482 1.527 . S
C1479 C1478 1.398 . S
C1479 C1480 1.380 . S
C1479 C1493 1.497 . S
C1480 C1479 1.380 . S
C1480 C1481 1.383 . S
C1480 C1483 1.603 . S
C1481 C1476 1.377 . S
C1481 C1480 1.383 . S
C1481 H1544 0.929 . S
C1482 C1478 1.527 . S
C1482 H1545 0.961 . S
C1482 H1546 0.959 . S
C1482 H1547 0.959 . S
C1483 C1480 1.603 . S
C1483 H1548 0.960 . S
C1483 H1549 0.962 . S
C1483 H1550 0.961 . S
C1484 C1451 1.587 . S
C1484 C1485 1.360 . S
C1484 C1497 1.412 . S
C1485 C1484 1.360 . S
C1485 C1486 1.365 . S
C1485 H1551 0.929 . S
C1486 C1461 1.553 . S
C1486 C1485 1.365 . S
C1486 C1487 1.404 . S
C1487 C1486 1.404 . S
C1487 C1488 1.395 . S
C1487 C1498 1.451 . S
C1488 C1487 1.395 . S
C1488 C1489 1.322 . S
C1488 H1552 0.930 . S
C1489 C1488 1.322 . S
C1489 C1490 1.459 . S
C1489 H1553 0.929 . S
C1490 C1489 1.459 . S
C1490 C1491 1.445 . S
C1490 C1499 1.395 . S
C1491 C1469 1.432 . S
C1491 C1490 1.445 . S
C1491 C1492 1.370 . S
C1492 C1491 1.370 . S
C1492 C1493 1.438 . S
C1492 H1554 0.930 . S
C1493 C1479 1.497 . S
C1493 C1492 1.438 . S
C1493 C1494 1.360 . S
C1494 C1493 1.360 . S
C1494 C1495 1.401 . S
C1494 C1499 1.446 . S
C1495 C1494 1.401 . S
C1495 C1496 1.347 . S
C1495 H1555 0.929 . S
C1496 C1495 1.347 . S
C1496 C1497 1.455 . S
C1496 H1556 0.930 . S
C1497 C1484 1.412 . S
C1497 C1496 1.455 . S
C1497 C1498 1.331 . S
C1498 C1487 1.451 . S
C1498 C1497 1.331 . S
C1498 C1499 1.497 . S
C1499 C1490 1.395 . S
C1499 C1494 1.446 . S
C1499 C1498 1.497 . S
C1500 C1501 1.582 . S
C1500 H1557 0.962 . S
C1500 H1558 0.959 . S
C1500 H1559 0.958 . S
C1501 C1500 1.582 . S
C1501 O1504 1.458 . S
C1501 H1530 0.980 . S
O1502 C1447 1.426 . S
O1502 C1448 1.334 . S
O1503 C1475 1.412 . S
O1503 C1476 1.393 . S
O1504 C1466 1.435 . S
O1504 C1501 1.458 . S
O1505 C1457 1.468 . S
O1505 C1458 1.408 . S
H1506 C1447 0.980 . S
H1507 C1446 0.959 . S
H1508 C1446 0.959 . S
H1509 C1446 0.960 . S
H1510 C1449 0.929 . S
H1511 C1453 0.929 . S
H1512 C1454 0.959 . S
H1513 C1454 0.961 . S
H1514 C1454 0.961 . S
H1515 C1455 0.960 . S
H1516 C1455 0.960 . S
H1517 C1455 0.961 . S
H1518 C1457 0.980 . S
H1519 C1456 0.961 . S
H1520 C1456 0.960 . S
H1521 C1456 0.959 . S
H1522 C1459 0.930 . S
H1523 C1463 0.931 . S
H1524 C1464 0.959 . S
H1525 C1464 0.961 . S
H1526 C1464 0.959 . S
H1527 C1465 0.960 . S
H1528 C1465 0.960 . S
H1529 C1465 0.960 . S
H1530 C1501 0.980 . S
H1531 C1467 0.930 . S
H1532 C1471 0.930 . S
H1533 C1472 0.961 . S
H1534 C1472 0.960 . S
H1535 C1472 0.958 . S
H1536 C1473 0.961 . S
H1537 C1473 0.960 . S
H1538 C1473 0.960 . S
H1539 C1475 0.980 . S
H1540 C1474 0.961 . S
H1541 C1474 0.961 . S
H1542 C1474 0.959 . S
H1543 C1477 0.932 . S
H1544 C1481 0.929 . S
H1545 C1482 0.961 . S
H1546 C1482 0.959 . S
H1547 C1482 0.959 . S
H1548 C1483 0.960 . S
H1549 C1483 0.962 . S
H1550 C1483 0.961 . S
H1551 C1485 0.929 . S
H1552 C1488 0.930 . S
H1553 C1489 0.929 . S
H1554 C1492 0.930 . S
H1555 C1495 0.929 . S
H1556 C1496 0.930 . S
H1557 C1500 0.962 . S
H1558 C1500 0.959 . S
H1559 C1500 0.958 . S
C1560 C1561 1.560 . S
C1560 H1621 0.959 . S
C1560 H1622 0.959 . S
C1560 H1623 0.960 . S
C1561 C1560 1.560 . S
C1561 O1616 1.426 . S
C1561 H1620 0.980 . S
C1562 C1563 1.407 . S
C1562 C1567 1.418 . S
C1562 O1616 1.334 . S
C1563 C1562 1.407 . S
C1563 C1564 1.360 . S
C1563 H1624 0.929 . S
C1564 C1563 1.360 . S
C1564 C1565 1.401 . S
C1564 C1568 1.527 . S
C1565 C1564 1.401 . S
C1565 C1566 1.405 . S
C1565 C1598 1.587 . S
C1566 C1565 1.405 . S
C1566 C1567 1.332 . S
C1566 C1569 1.496 . S
C1567 C1562 1.418 . S
C1567 C1566 1.332 . S
C1567 H1625 0.929 . S
C1568 C1564 1.527 . S
C1568 H1626 0.959 . S
C1568 H1627 0.961 . S
C1568 H1628 0.961 . S
C1569 C1566 1.496 . S
C1569 H1629 0.960 . S
C1569 H1630 0.960 . S
C1569 H1631 0.961 . S
C1570 C1571 1.517 . S
C1570 H1633 0.961 . S
C1570 H1634 0.960 . S
C1570 H1635 0.959 . S
C1571 C1570 1.517 . S
C1571 O1619 1.468 . S
C1571 H1632 0.980 . S
C1572 C1573 1.349 . S
C1572 C1577 1.367 . S
C1572 O1619 1.408 . S
C1573 C1572 1.349 . S
C1573 C1574 1.407 . S
C1573 H1636 0.930 . S
C1574 C1573 1.407 . S
C1574 C1575 1.449 . S
C1574 C1578 1.535 . S
C1575 C1574 1.449 . S
C1575 C1576 1.384 . S
C1575 C1600 1.553 . S
C1576 C1575 1.384 . S
C1576 C1577 1.364 . S
C1576 C1579 1.450 . S
C1577 C1572 1.367 . S
C1577 C1576 1.364 . S
C1577 H1637 0.931 . S
C1578 C1574 1.535 . S
C1578 H1638 0.959 . S
C1578 H1639 0.961 . S
C1578 H1640 0.959 . S
C1579 C1576 1.450 . S
C1579 H1641 0.960 . S
C1579 H1642 0.960 . S
C1579 H1643 0.960 . S
C1580 C1581 1.309 . S
C1580 C1585 1.304 . S
C1580 O1618 1.435 . S
C1581 C1580 1.309 . S
C1581 C1582 1.476 . S
C1581 H1645 0.930 . S
C1582 C1581 1.476 . S
C1582 C1583 1.400 . S
C1582 C1586 1.567 . S
C1583 C1582 1.400 . S
C1583 C1584 1.373 . S
C1583 C1605 1.432 . S
C1584 C1583 1.373 . S
C1584 C1585 1.339 . S
C1584 C1587 1.530 . S
C1585 C1580 1.304 . S
C1585 C1584 1.339 . S
C1585 H1646 0.930 . S
C1586 C1582 1.567 . S
C1586 H1647 0.961 . S
C1586 H1648 0.960 . S
C1586 H1649 0.958 . S
C1587 C1584 1.530 . S
C1587 H1650 0.961 . S
C1587 H1651 0.960 . S
C1587 H1652 0.960 . S
C1588 C1589 1.530 . S
C1588 H1654 0.961 . S
C1588 H1655 0.961 . S
C1588 H1656 0.959 . S
C1589 C1588 1.530 . S
C1589 O1617 1.412 . S
C1589 H1653 0.980 . S
C1590 C1591 1.288 . S
C1590 C1595 1.377 . S
C1590 O1617 1.393 . S
C1591 C1590 1.288 . S
C1591 C1592 1.369 . S
C1591 H1657 0.932 . S
C1592 C1591 1.369 . S
C1592 C1593 1.398 . S
C1592 C1596 1.527 . S
C1593 C1592 1.398 . S
C1593 C1594 1.380 . S
C1593 C1607 1.497 . S
C1594 C1593 1.380 . S
C1594 C1595 1.383 . S
C1594 C1597 1.603 . S
C1595 C1590 1.377 . S
C1595 C1594 1.383 . S
C1595 H1658 0.929 . S
C1596 C1592 1.527 . S
C1596 H1659 0.961 . S
C1596 H1660 0.959 . S
C1596 H1661 0.959 . S
C1597 C1594 1.603 . S
C1597 H1662 0.960 . S
C1597 H1663 0.962 . S
C1597 H1664 0.961 . S
C1598 C1565 1.587 . S
C1598 C1599 1.360 . S
C1598 C1611 1.412 . S
C1599 C1598 1.360 . S
C1599 C1600 1.365 . S
C1599 H1665 0.929 . S
C1600 C1575 1.553 . S
C1600 C1599 1.365 . S
C1600 C1601 1.404 . S
C1601 C1600 1.404 . S
C1601 C1602 1.395 . S
C1601 C1612 1.451 . S
C1602 C1601 1.395 . S
C1602 C1603 1.322 . S
C1602 H1666 0.930 . S
C1603 C1602 1.322 . S
C1603 C1604 1.459 . S
C1603 H1667 0.929 . S
C1604 C1603 1.459 . S
C1604 C1605 1.445 . S
C1604 C1613 1.395 . S
C1605 C1583 1.432 . S
C1605 C1604 1.445 . S
C1605 C1606 1.370 . S
C1606 C1605 1.370 . S
C1606 C1607 1.438 . S
C1606 H1668 0.930 . S
C1607 C1593 1.497 . S
C1607 C1606 1.438 . S
C1607 C1608 1.360 . S
C1608 C1607 1.360 . S
C1608 C1609 1.401 . S
C1608 C1613 1.446 . S
C1609 C1608 1.401 . S
C1609 C1610 1.347 . S
C1609 H1669 0.929 . S
C1610 C1609 1.347 . S
C1610 C1611 1.455 . S
C1610 H1670 0.930 . S
C1611 C1598 1.412 . S
C1611 C1610 1.455 . S
C1611 C1612 1.331 . S
C1612 C1601 1.451 . S
C1612 C1611 1.331 . S
C1612 C1613 1.497 . S
C1613 C1604 1.395 . S
C1613 C1608 1.446 . S
C1613 C1612 1.497 . S
C1614 C1615 1.582 . S
C1614 H1671 0.962 . S
C1614 H1672 0.959 . S
C1614 H1673 0.958 . S
C1615 C1614 1.582 . S
C1615 O1618 1.458 . S
C1615 H1644 0.980 . S
O1616 C1561 1.426 . S
O1616 C1562 1.334 . S
O1617 C1589 1.412 . S
O1617 C1590 1.393 . S
O1618 C1580 1.435 . S
O1618 C1615 1.458 . S
O1619 C1571 1.468 . S
O1619 C1572 1.408 . S
H1620 C1561 0.980 . S
H1621 C1560 0.959 . S
H1622 C1560 0.959 . S
H1623 C1560 0.960 . S
H1624 C1563 0.929 . S
H1625 C1567 0.929 . S
H1626 C1568 0.959 . S
H1627 C1568 0.961 . S
H1628 C1568 0.961 . S
H1629 C1569 0.960 . S
H1630 C1569 0.960 . S
H1631 C1569 0.961 . S
H1632 C1571 0.980 . S
H1633 C1570 0.961 . S
H1634 C1570 0.960 . S
H1635 C1570 0.959 . S
H1636 C1573 0.930 . S
H1637 C1577 0.931 . S
H1638 C1578 0.959 . S
H1639 C1578 0.961 . S
H1640 C1578 0.959 . S
H1641 C1579 0.960 . S
H1642 C1579 0.960 . S
H1643 C1579 0.960 . S
H1644 C1615 0.980 . S
H1645 C1581 0.930 . S
H1646 C1585 0.930 . S
H1647 C1586 0.961 . S
H1648 C1586 0.960 . S
H1649 C1586 0.958 . S
H1650 C1587 0.961 . S
H1651 C1587 0.960 . S
H1652 C1587 0.960 . S
H1653 C1589 0.980 . S
H1654 C1588 0.961 . S
H1655 C1588 0.961 . S
H1656 C1588 0.959 . S
H1657 C1591 0.932 . S
H1658 C1595 0.929 . S
H1659 C1596 0.961 . S
H1660 C1596 0.959 . S
H1661 C1596 0.959 . S
H1662 C1597 0.960 . S
H1663 C1597 0.962 . S
H1664 C1597 0.961 . S
H1665 C1599 0.929 . S
H1666 C1602 0.930 . S
H1667 C1603 0.929 . S
H1668 C1606 0.930 . S
H1669 C1609 0.929 . S
H1670 C1610 0.930 . S
H1671 C1614 0.962 . S
H1672 C1614 0.959 . S
H1673 C1614 0.958 . S
C1674 C1675 1.560 . S
C1674 H1735 0.959 . S
C1674 H1736 0.959 . S
C1674 H1737 0.960 . S
C1675 C1674 1.560 . S
C1675 O1730 1.426 . S
C1675 H1734 0.980 . S
C1676 C1677 1.407 1_455 S
C1676 C1681 1.418 . S
C1676 O1730 1.334 . S
C1677 C1676 1.407 1_655 S
C1677 C1678 1.360 . S
C1677 H1738 0.929 . S
C1678 C1677 1.360 . S
C1678 C1679 1.401 1_655 S
C1678 C1682 1.527 . S
C1679 C1678 1.401 1_455 S
C1679 C1680 1.405 . S
C1679 C1712 1.587 1_455 S
C1680 C1679 1.405 . S
C1680 C1681 1.332 . S
C1680 C1683 1.496 . S
C1681 C1676 1.418 . S
C1681 C1680 1.332 . S
C1681 H1739 0.929 . S
C1682 C1678 1.527 . S
C1682 H1740 0.959 . S
C1682 H1741 0.961 . S
C1682 H1742 0.961 . S
C1683 C1680 1.496 . S
C1683 H1743 0.960 . S
C1683 H1744 0.960 . S
C1683 H1745 0.961 . S
C1684 C1685 1.517 . S
C1684 H1747 0.974 . S
C1684 H1748 0.960 . S
C1684 H1749 0.959 . S
C1685 C1684 1.517 . S
C1685 O1733 1.468 . S
C1685 H1746 0.980 1_655 S
C1686 C1687 1.349 . S
C1686 C1691 1.367 . S
C1686 O1733 1.408 . S
C1687 C1686 1.349 . S
C1687 C1688 1.368 1_655 S
C1687 H1750 0.930 1_655 S
C1688 C1687 1.368 1_455 S
C1688 C1689 1.414 1_455 S
C1688 C1692 1.604 . S
C1689 C1688 1.414 1_655 S
C1689 C1690 1.384 . S
C1689 C1714 1.553 . S
C1690 C1689 1.384 . S
C1690 C1691 1.364 . S
C1690 C1693 1.450 . S
C1691 C1686 1.367 . S
C1691 C1690 1.364 . S
C1691 H1751 0.931 . S
C1692 C1688 1.604 . S
C1692 H1752 0.959 . S
C1692 H1753 0.961 . S
C1692 H1754 0.959 . S
C1693 C1690 1.450 . S
C1693 H1755 0.960 . S
C1693 H1756 0.960 . S
C1693 H1757 0.960 . S
C1694 C1695 1.309 . S
C1694 C1699 1.304 . S
C1694 O1732 1.435 . S
C1695 C1694 1.309 . S
C1695 C1696 1.447 1_655 S
C1695 H1759 0.930 1_655 S
C1696 C1695 1.447 1_455 S
C1696 C1697 1.381 1_455 S
C1696 C1700 1.616 . S
C1697 C1696 1.381 1_655 S
C1697 C1698 1.373 . S
C1697 C1719 1.432 . S
C1698 C1697 1.373 . S
C1698 C1699 1.339 . S
C1698 C1701 1.530 . S
C1699 C1694 1.304 . S
C1699 C1698 1.339 . S
C1699 H1760 0.930 . S
C1700 C1696 1.616 . S
C1700 H1761 0.961 . S
C1700 H1762 0.960 . S
C1700 H1763 0.958 . S
C1701 C1698 1.530 . S
C1701 H1764 0.961 . S
C1701 H1765 0.960 . S
C1701 H1766 0.960 . S
C1702 C1703 1.512 1_455 S
C1702 H1768 0.961 . S
C1702 H1769 0.961 . S
C1702 H1770 0.959 . S
C1703 C1702 1.512 1_655 S
C1703 O1731 1.408 1_655 S
C1703 H1767 0.986 . S
C1704 C1705 1.288 . S
C1704 C1709 1.377 1_455 S
C1704 O1731 1.393 . S
C1705 C1704 1.288 . S
C1705 C1706 1.369 . S
C1705 H1771 0.932 . S
C1706 C1705 1.369 . S
C1706 C1707 1.398 1_455 S
C1706 C1710 1.527 . S
C1707 C1706 1.398 1_655 S
C1707 C1708 1.380 . S
C1707 C1721 1.497 . S
C1708 C1707 1.380 . S
C1708 C1709 1.383 . S
C1708 C1711 1.603 . S
C1709 C1704 1.377 1_655 S
C1709 C1708 1.383 . S
C1709 H1772 0.929 . S
C1710 C1706 1.527 . S
C1710 H1773 0.961 . S
C1710 H1774 0.959 . S
C1710 H1775 0.959 . S
C1711 C1708 1.603 . S
C1711 H1776 0.960 . S
C1711 H1777 0.962 . S
C1711 H1778 0.961 . S
C1712 C1679 1.587 1_655 S
C1712 C1713 1.360 . S
C1712 C1725 1.412 . S
C1713 C1712 1.360 . S
C1713 C1714 1.365 . S
C1713 H1779 0.929 . S
C1714 C1689 1.553 . S
C1714 C1713 1.365 . S
C1714 C1715 1.404 . S
C1715 C1714 1.404 . S
C1715 C1716 1.395 . S
C1715 C1726 1.451 . S
C1716 C1715 1.395 . S
C1716 C1717 1.322 . S
C1716 H1780 0.930 . S
C1717 C1716 1.322 . S
C1717 C1718 1.459 . S
C1717 H1781 0.929 . S
C1718 C1717 1.459 . S
C1718 C1719 1.445 . S
C1718 C1727 1.395 . S
C1719 C1697 1.432 . S
C1719 C1718 1.445 . S
C1719 C1720 1.370 . S
C1720 C1719 1.370 . S
C1720 C1721 1.438 . S
C1720 H1782 0.930 . S
C1721 C1707 1.497 . S
C1721 C1720 1.438 . S
C1721 C1722 1.360 . S
C1722 C1721 1.360 . S
C1722 C1723 1.401 . S
C1722 C1727 1.446 . S
C1723 C1722 1.401 . S
C1723 C1724 1.347 . S
C1723 H1783 0.929 . S
C1724 C1723 1.347 . S
C1724 C1725 1.455 . S
C1724 H1784 0.930 . S
C1725 C1712 1.412 . S
C1725 C1724 1.455 . S
C1725 C1726 1.331 . S
C1726 C1715 1.451 . S
C1726 C1725 1.331 . S
C1726 C1727 1.497 . S
C1727 C1718 1.395 . S
C1727 C1722 1.446 . S
C1727 C1726 1.497 . S
C1728 C1729 1.582 . S
C1728 H1785 0.962 . S
C1728 H1786 0.959 . S
C1728 H1787 0.958 . S
C1729 C1728 1.582 . S
C1729 O1732 1.458 . S
C1729 H1758 0.980 . S
O1730 C1675 1.426 . S
O1730 C1676 1.334 . S
O1731 C1703 1.408 1_455 S
O1731 C1704 1.393 . S
O1732 C1694 1.435 . S
O1732 C1729 1.458 . S
O1733 C1685 1.468 . S
O1733 C1686 1.408 . S
H1734 C1675 0.980 . S
H1735 C1674 0.959 . S
H1736 C1674 0.959 . S
H1737 C1674 0.960 . S
H1738 C1677 0.929 . S
H1739 C1681 0.929 . S
H1740 C1682 0.959 . S
H1741 C1682 0.961 . S
H1742 C1682 0.961 . S
H1743 C1683 0.960 . S
H1744 C1683 0.960 . S
H1745 C1683 0.961 . S
H1746 C1685 0.980 1_455 S
H1747 C1684 0.974 . S
H1748 C1684 0.960 . S
H1749 C1684 0.959 . S
H1750 C1687 0.930 1_455 S
H1751 C1691 0.931 . S
H1752 C1692 0.959 . S
H1753 C1692 0.961 . S
H1754 C1692 0.959 . S
H1755 C1693 0.960 . S
H1756 C1693 0.960 . S
H1757 C1693 0.960 . S
H1758 C1729 0.980 . S
H1759 C1695 0.930 1_455 S
H1760 C1699 0.930 . S
H1761 C1700 0.961 . S
H1762 C1700 0.960 . S
H1763 C1700 0.958 . S
H1764 C1701 0.961 . S
H1765 C1701 0.960 . S
H1766 C1701 0.960 . S
H1767 C1703 0.986 . S
H1768 C1702 0.961 . S
H1769 C1702 0.961 . S
H1770 C1702 0.959 . S
H1771 C1705 0.932 . S
H1772 C1709 0.929 . S
H1773 C1710 0.961 . S
H1774 C1710 0.959 . S
H1775 C1710 0.959 . S
H1776 C1711 0.960 . S
H1777 C1711 0.962 . S
H1778 C1711 0.961 . S
H1779 C1713 0.929 . S
H1780 C1716 0.930 . S
H1781 C1717 0.929 . S
H1782 C1720 0.930 . S
H1783 C1723 0.929 . S
H1784 C1724 0.930 . S
H1785 C1728 0.962 . S
H1786 C1728 0.959 . S
H1787 C1728 0.958 . S
C1788 C1789 1.560 . S
C1788 H1849 0.959 . S
C1788 H1850 0.959 . S
C1788 H1851 0.960 . S
C1789 C1788 1.560 . S
C1789 O1844 1.426 . S
C1789 H1848 0.980 . S
C1790 C1791 1.407 . S
C1790 C1795 1.418 . S
C1790 O1844 1.334 . S
C1791 C1790 1.407 . S
C1791 C1792 1.360 . S
C1791 H1852 0.929 . S
C1792 C1791 1.360 . S
C1792 C1793 1.401 . S
C1792 C1796 1.527 . S
C1793 C1792 1.401 . S
C1793 C1794 1.405 . S
C1793 C1826 1.587 . S
C1794 C1793 1.405 . S
C1794 C1795 1.332 . S
C1794 C1797 1.496 . S
C1795 C1790 1.418 . S
C1795 C1794 1.332 . S
C1795 H1853 0.929 . S
C1796 C1792 1.527 . S
C1796 H1854 0.959 . S
C1796 H1855 0.961 . S
C1796 H1856 0.961 . S
C1797 C1794 1.496 . S
C1797 H1857 0.960 . S
C1797 H1858 0.960 . S
C1797 H1859 0.961 . S
C1798 C1799 1.517 . S
C1798 H1861 0.961 . S
C1798 H1862 0.960 . S
C1798 H1863 0.959 . S
C1799 C1798 1.517 . S
C1799 O1847 1.468 . S
C1799 H1860 0.980 . S
C1800 C1801 1.349 . S
C1800 C1805 1.367 . S
C1800 O1847 1.408 . S
C1801 C1800 1.349 . S
C1801 C1802 1.407 . S
C1801 H1864 0.930 . S
C1802 C1801 1.407 . S
C1802 C1803 1.449 . S
C1802 C1806 1.535 . S
C1803 C1802 1.449 . S
C1803 C1804 1.384 . S
C1803 C1828 1.553 . S
C1804 C1803 1.384 . S
C1804 C1805 1.364 . S
C1804 C1807 1.450 . S
C1805 C1800 1.367 . S
C1805 C1804 1.364 . S
C1805 H1865 0.931 . S
C1806 C1802 1.535 . S
C1806 H1866 0.959 . S
C1806 H1867 0.961 . S
C1806 H1868 0.959 . S
C1807 C1804 1.450 . S
C1807 H1869 0.960 . S
C1807 H1870 0.960 . S
C1807 H1871 0.960 . S
C1808 C1809 1.309 . S
C1808 C1813 1.304 . S
C1808 O1846 1.435 . S
C1809 C1808 1.309 . S
C1809 C1810 1.476 . S
C1809 H1873 0.930 . S
C1810 C1809 1.476 . S
C1810 C1811 1.400 . S
C1810 C1814 1.567 . S
C1811 C1810 1.400 . S
C1811 C1812 1.373 . S
C1811 C1833 1.432 . S
C1812 C1811 1.373 . S
C1812 C1813 1.339 . S
C1812 C1815 1.530 . S
C1813 C1808 1.304 . S
C1813 C1812 1.339 . S
C1813 H1874 0.930 . S
C1814 C1810 1.567 . S
C1814 H1875 0.961 . S
C1814 H1876 0.960 . S
C1814 H1877 0.958 . S
C1815 C1812 1.530 . S
C1815 H1878 0.961 . S
C1815 H1879 0.960 . S
C1815 H1880 0.960 . S
C1816 C1817 1.530 . S
C1816 H1882 0.961 . S
C1816 H1883 0.961 . S
C1816 H1884 0.959 . S
C1817 C1816 1.530 . S
C1817 O1845 1.412 . S
C1817 H1881 0.980 . S
C1818 C1819 1.288 . S
C1818 C1823 1.377 . S
C1818 O1845 1.393 . S
C1819 C1818 1.288 . S
C1819 C1820 1.369 . S
C1819 H1885 0.932 . S
C1820 C1819 1.369 . S
C1820 C1821 1.398 . S
C1820 C1824 1.527 . S
C1821 C1820 1.398 . S
C1821 C1822 1.380 . S
C1821 C1835 1.497 . S
C1822 C1821 1.380 . S
C1822 C1823 1.383 . S
C1822 C1825 1.603 . S
C1823 C1818 1.377 . S
C1823 C1822 1.383 . S
C1823 H1886 0.929 . S
C1824 C1820 1.527 . S
C1824 H1887 0.961 . S
C1824 H1888 0.959 . S
C1824 H1889 0.959 . S
C1825 C1822 1.603 . S
C1825 H1890 0.960 . S
C1825 H1891 0.962 . S
C1825 H1892 0.961 . S
C1826 C1793 1.587 . S
C1826 C1827 1.360 . S
C1826 C1839 1.412 . S
C1827 C1826 1.360 . S
C1827 C1828 1.365 . S
C1827 H1893 0.929 . S
C1828 C1803 1.553 . S
C1828 C1827 1.365 . S
C1828 C1829 1.404 . S
C1829 C1828 1.404 . S
C1829 C1830 1.395 . S
C1829 C1840 1.451 . S
C1830 C1829 1.395 . S
C1830 C1831 1.322 . S
C1830 H1894 0.930 . S
C1831 C1830 1.322 . S
C1831 C1832 1.459 . S
C1831 H1895 0.929 . S
C1832 C1831 1.459 . S
C1832 C1833 1.445 . S
C1832 C1841 1.395 . S
C1833 C1811 1.432 . S
C1833 C1832 1.445 . S
C1833 C1834 1.370 . S
C1834 C1833 1.370 . S
C1834 C1835 1.438 . S
C1834 H1896 0.930 . S
C1835 C1821 1.497 . S
C1835 C1834 1.438 . S
C1835 C1836 1.360 . S
C1836 C1835 1.360 . S
C1836 C1837 1.401 . S
C1836 C1841 1.446 . S
C1837 C1836 1.401 . S
C1837 C1838 1.347 . S
C1837 H1897 0.929 . S
C1838 C1837 1.347 . S
C1838 C1839 1.455 . S
C1838 H1898 0.930 . S
C1839 C1826 1.412 . S
C1839 C1838 1.455 . S
C1839 C1840 1.331 . S
C1840 C1829 1.451 . S
C1840 C1839 1.331 . S
C1840 C1841 1.497 . S
C1841 C1832 1.395 . S
C1841 C1836 1.446 . S
C1841 C1840 1.497 . S
C1842 C1843 1.582 . S
C1842 H1899 0.962 . S
C1842 H1900 0.959 . S
C1842 H1901 0.958 . S
C1843 C1842 1.582 . S
C1843 O1846 1.458 . S
C1843 H1872 0.980 . S
O1844 C1789 1.426 . S
O1844 C1790 1.334 . S
O1845 C1817 1.412 . S
O1845 C1818 1.393 . S
O1846 C1808 1.435 . S
O1846 C1843 1.458 . S
O1847 C1799 1.468 . S
O1847 C1800 1.408 . S
H1848 C1789 0.980 . S
H1849 C1788 0.959 . S
H1850 C1788 0.959 . S
H1851 C1788 0.960 . S
H1852 C1791 0.929 . S
H1853 C1795 0.929 . S
H1854 C1796 0.959 . S
H1855 C1796 0.961 . S
H1856 C1796 0.961 . S
H1857 C1797 0.960 . S
H1858 C1797 0.960 . S
H1859 C1797 0.961 . S
H1860 C1799 0.980 . S
H1861 C1798 0.961 . S
H1862 C1798 0.960 . S
H1863 C1798 0.959 . S
H1864 C1801 0.930 . S
H1865 C1805 0.931 . S
H1866 C1806 0.959 . S
H1867 C1806 0.961 . S
H1868 C1806 0.959 . S
H1869 C1807 0.960 . S
H1870 C1807 0.960 . S
H1871 C1807 0.960 . S
H1872 C1843 0.980 . S
H1873 C1809 0.930 . S
H1874 C1813 0.930 . S
H1875 C1814 0.961 . S
H1876 C1814 0.960 . S
H1877 C1814 0.958 . S
H1878 C1815 0.961 . S
H1879 C1815 0.960 . S
H1880 C1815 0.960 . S
H1881 C1817 0.980 . S
H1882 C1816 0.961 . S
H1883 C1816 0.961 . S
H1884 C1816 0.959 . S
H1885 C1819 0.932 . S
H1886 C1823 0.929 . S
H1887 C1824 0.961 . S
H1888 C1824 0.959 . S
H1889 C1824 0.959 . S
H1890 C1825 0.960 . S
H1891 C1825 0.962 . S
H1892 C1825 0.961 . S
H1893 C1827 0.929 . S
H1894 C1830 0.930 . S
H1895 C1831 0.929 . S
H1896 C1834 0.930 . S
H1897 C1837 0.929 . S
H1898 C1838 0.930 . S
H1899 C1842 0.962 . S
H1900 C1842 0.959 . S
H1901 C1842 0.958 . S
C1902 C1903 1.560 . S
C1902 H1963 0.959 . S
C1902 H1964 0.959 . S
C1902 H1965 0.960 . S
C1903 C1902 1.560 . S
C1903 O1958 1.426 . S
C1903 H1962 0.980 . S
C1904 C1905 1.407 1_565 S
C1904 C1909 1.418 . S
C1904 O1958 1.334 . S
C1905 C1904 1.407 1_545 S
C1905 C1906 1.360 . S
C1905 H1966 0.929 . S
C1906 C1905 1.360 . S
C1906 C1907 1.401 1_545 S
C1906 C1910 1.527 . S
C1907 C1906 1.401 1_565 S
C1907 C1908 1.405 . S
C1907 C1940 1.587 1_565 S
C1908 C1907 1.405 . S
C1908 C1909 1.332 . S
C1908 C1911 1.496 . S
C1909 C1904 1.418 . S
C1909 C1908 1.332 . S
C1909 H1967 0.929 . S
C1910 C1906 1.527 . S
C1910 H1968 0.959 . S
C1910 H1969 0.961 . S
C1910 H1970 0.961 . S
C1911 C1908 1.496 . S
C1911 H1971 0.960 . S
C1911 H1972 0.960 . S
C1911 H1973 0.961 . S
C1912 C1913 1.517 . S
C1912 H1975 0.910 1_545 S
C1912 H1976 0.960 . S
C1912 H1977 0.959 . S
C1913 C1912 1.517 . S
C1913 O1961 1.468 . S
C1913 H1974 0.980 1_545 S
C1914 C1915 1.349 . S
C1914 C1919 1.367 . S
C1914 O1961 1.408 . S
C1915 C1914 1.349 . S
C1915 C1916 1.407 1_545 S
C1915 H1978 0.930 1_545 S
C1916 C1915 1.407 1_565 S
C1916 C1917 1.449 1_565 S
C1916 C1920 1.535 . S
C1917 C1916 1.449 1_545 S
C1917 C1918 1.384 . S
C1917 C1942 1.553 . S
C1918 C1917 1.384 . S
C1918 C1919 1.364 . S
C1918 C1921 1.450 . S
C1919 C1914 1.367 . S
C1919 C1918 1.364 . S
C1919 H1979 0.931 . S
C1920 C1916 1.535 . S
C1920 H1980 0.959 . S
C1920 H1981 0.961 . S
C1920 H1982 0.959 . S
C1921 C1918 1.450 . S
C1921 H1983 0.960 . S
C1921 H1984 0.960 . S
C1921 H1985 0.960 . S
C1922 C1923 1.309 . S
C1922 C1927 1.304 . S
C1922 O1960 1.435 . S
C1923 C1922 1.309 . S
C1923 C1924 1.486 1_545 S
C1923 H1987 0.930 1_545 S
C1924 C1923 1.486 1_565 S
C1924 C1925 1.366 1_565 S
C1924 C1928 1.591 . S
C1925 C1924 1.366 1_545 S
C1925 C1926 1.373 . S
C1925 C1947 1.432 . S
C1926 C1925 1.373 . S
C1926 C1927 1.339 . S
C1926 C1929 1.530 . S
C1927 C1922 1.304 . S
C1927 C1926 1.339 . S
C1927 H1988 0.930 . S
C1928 C1924 1.591 . S
C1928 H1989 0.961 . S
C1928 H1990 0.960 . S
C1928 H1991 0.958 . S
C1929 C1926 1.530 . S
C1929 H1992 0.961 . S
C1929 H1993 0.960 . S
C1929 H1994 0.960 . S
C1930 C1931 1.530 1_565 S
C1930 H1996 0.961 . S
C1930 H1997 0.961 . S
C1930 H1998 0.959 . S
C1931 C1930 1.530 1_545 S
C1931 O1959 1.412 1_545 S
C1931 H1995 0.980 . S
C1932 C1933 1.288 . S
C1932 C1937 1.377 1_565 S
C1932 O1959 1.393 . S
C1933 C1932 1.288 . S
C1933 C1934 1.369 . S
C1933 H1999 0.932 . S
C1934 C1933 1.369 . S
C1934 C1935 1.398 1_565 S
C1934 C1938 1.527 . S
C1935 C1934 1.398 1_545 S
C1935 C1936 1.380 . S
C1935 C1949 1.497 . S
C1936 C1935 1.380 . S
C1936 C1937 1.383 . S
C1936 C1939 1.603 . S
C1937 C1932 1.377 1_545 S
C1937 C1936 1.383 . S
C1937 H2000 0.929 . S
C1938 C1934 1.527 . S
C1938 H2001 0.961 . S
C1938 H2002 0.959 . S
C1938 H2003 0.959 . S
C1939 C1936 1.603 . S
C1939 H2004 0.960 . S
C1939 H2005 0.962 . S
C1939 H2006 0.961 . S
C1940 C1907 1.587 1_545 S
C1940 C1941 1.360 . S
C1940 C1953 1.412 . S
C1941 C1940 1.360 . S
C1941 C1942 1.365 . S
C1941 H2007 0.929 . S
C1942 C1917 1.553 . S
C1942 C1941 1.365 . S
C1942 C1943 1.404 . S
C1943 C1942 1.404 . S
C1943 C1944 1.395 . S
C1943 C1954 1.451 . S
C1944 C1943 1.395 . S
C1944 C1945 1.322 . S
C1944 H2008 0.930 . S
C1945 C1944 1.322 . S
C1945 C1946 1.459 . S
C1945 H2009 0.929 . S
C1946 C1945 1.459 . S
C1946 C1947 1.445 . S
C1946 C1955 1.395 . S
C1947 C1925 1.432 . S
C1947 C1946 1.445 . S
C1947 C1948 1.370 . S
C1948 C1947 1.370 . S
C1948 C1949 1.438 . S
C1948 H2010 0.930 . S
C1949 C1935 1.497 . S
C1949 C1948 1.438 . S
C1949 C1950 1.360 . S
C1950 C1949 1.360 . S
C1950 C1951 1.401 . S
C1950 C1955 1.446 . S
C1951 C1950 1.401 . S
C1951 C1952 1.347 . S
C1951 H2011 0.929 . S
C1952 C1951 1.347 . S
C1952 C1953 1.455 . S
C1952 H2012 0.930 . S
C1953 C1940 1.412 . S
C1953 C1952 1.455 . S
C1953 C1954 1.331 . S
C1954 C1943 1.451 . S
C1954 C1953 1.331 . S
C1954 C1955 1.497 . S
C1955 C1946 1.395 . S
C1955 C1950 1.446 . S
C1955 C1954 1.497 . S
C1956 C1957 1.582 . S
C1956 H2013 0.962 . S
C1956 H2014 0.959 . S
C1956 H2015 0.958 . S
C1957 C1956 1.582 . S
C1957 O1960 1.458 . S
C1957 H1986 0.980 . S
O1958 C1903 1.426 . S
O1958 C1904 1.334 . S
O1959 C1931 1.412 1_565 S
O1959 C1932 1.393 . S
O1960 C1922 1.435 . S
O1960 C1957 1.458 . S
O1961 C1913 1.468 . S
O1961 C1914 1.408 . S
H1962 C1903 0.980 . S
H1963 C1902 0.959 . S
H1964 C1902 0.959 . S
H1965 C1902 0.960 . S
H1966 C1905 0.929 . S
H1967 C1909 0.929 . S
H1968 C1910 0.959 . S
H1969 C1910 0.961 . S
H1970 C1910 0.961 . S
H1971 C1911 0.960 . S
H1972 C1911 0.960 . S
H1973 C1911 0.961 . S
H1974 C1913 0.980 1_565 S
H1975 C1912 0.910 1_565 S
H1976 C1912 0.960 . S
H1977 C1912 0.959 . S
H1978 C1915 0.930 1_565 S
H1979 C1919 0.931 . S
H1980 C1920 0.959 . S
H1981 C1920 0.961 . S
H1982 C1920 0.959 . S
H1983 C1921 0.960 . S
H1984 C1921 0.960 . S
H1985 C1921 0.960 . S
H1986 C1957 0.980 . S
H1987 C1923 0.930 1_565 S
H1988 C1927 0.930 . S
H1989 C1928 0.961 . S
H1990 C1928 0.960 . S
H1991 C1928 0.958 . S
H1992 C1929 0.961 . S
H1993 C1929 0.960 . S
H1994 C1929 0.960 . S
H1995 C1931 0.980 . S
H1996 C1930 0.961 . S
H1997 C1930 0.961 . S
H1998 C1930 0.959 . S
H1999 C1933 0.932 . S
H2000 C1937 0.929 . S
H2001 C1938 0.961 . S
H2002 C1938 0.959 . S
H2003 C1938 0.959 . S
H2004 C1939 0.960 . S
H2005 C1939 0.962 . S
H2006 C1939 0.961 . S
H2007 C1941 0.929 . S
H2008 C1944 0.930 . S
H2009 C1945 0.929 . S
H2010 C1948 0.930 . S
H2011 C1951 0.929 . S
H2012 C1952 0.930 . S
H2013 C1956 0.962 . S
H2014 C1956 0.959 . S
H2015 C1956 0.958 . S
C2016 C2017 1.560 . S
C2016 H2077 0.959 . S
C2016 H2078 0.959 . S
C2016 H2079 0.960 . S
C2017 C2016 1.560 . S
C2017 O2072 1.426 . S
C2017 H2076 0.980 1_565 S
C2018 C2019 1.407 1_565 S
C2018 C2023 1.418 . S
C2018 O2072 1.334 . S
C2019 C2018 1.407 1_545 S
C2019 C2020 1.360 . S
C2019 H2080 0.929 . S
C2020 C2019 1.360 . S
C2020 C2021 1.401 . S
C2020 C2024 1.527 . S
C2021 C2020 1.401 . S
C2021 C2022 1.405 1_545 S
C2021 C2054 1.587 . S
C2022 C2021 1.405 1_565 S
C2022 C2023 1.332 . S
C2022 C2025 1.496 . S
C2023 C2018 1.418 . S
C2023 C2022 1.332 . S
C2023 H2081 0.929 . S
C2024 C2020 1.527 . S
C2024 H2082 0.959 . S
C2024 H2083 0.961 . S
C2024 H2084 0.961 . S
C2025 C2022 1.496 . S
C2025 H2085 0.960 . S
C2025 H2086 0.960 . S
C2025 H2087 0.961 . S
C2026 C2027 1.517 . S
C2026 H2089 0.961 . S
C2026 H2090 0.960 . S
C2026 H2091 0.959 . S
C2027 C2026 1.517 . S
C2027 O2075 1.468 . S
C2027 H2088 0.980 . S
C2028 C2029 1.349 . S
C2028 C2033 1.367 . S
C2028 O2075 1.408 . S
C2029 C2028 1.349 . S
C2029 C2030 1.407 . S
C2029 H2092 0.918 1_545 S
C2030 C2029 1.407 . S
C2030 C2031 1.449 . S
C2030 C2034 1.535 1_545 S
C2031 C2030 1.449 . S
C2031 C2032 1.384 . S
C2031 C2056 1.553 . S
C2032 C2031 1.384 . S
C2032 C2033 1.364 . S
C2032 C2035 1.450 . S
C2033 C2028 1.367 . S
C2033 C2032 1.364 . S
C2033 H2093 0.931 . S
C2034 C2030 1.535 1_565 S
C2034 H2094 0.959 . S
C2034 H2095 0.961 . S
C2034 H2096 0.959 . S
C2035 C2032 1.450 . S
C2035 H2097 0.960 . S
C2035 H2098 0.960 . S
C2035 H2099 0.960 . S
C2036 C2037 1.309 1_545 S
C2036 C2041 1.304 . S
C2036 O2074 1.435 . S
C2037 C2036 1.309 1_565 S
C2037 C2038 1.476 . S
C2037 H2101 0.930 . S
C2038 C2037 1.476 . S
C2038 C2039 1.400 1_565 S
C2038 C2042 1.567 . S
C2039 C2038 1.400 1_545 S
C2039 C2040 1.373 . S
C2039 C2061 1.432 . S
C2040 C2039 1.373 . S
C2040 C2041 1.339 . S
C2040 C2043 1.530 . S
C2041 C2036 1.304 . S
C2041 C2040 1.339 . S
C2041 H2102 0.930 . S
C2042 C2038 1.567 . S
C2042 H2103 0.961 . S
C2042 H2104 0.960 . S
C2042 H2105 0.958 . S
C2043 C2040 1.530 . S
C2043 H2106 0.961 . S
C2043 H2107 0.960 . S
C2043 H2108 0.960 . S
C2044 C2045 1.530 . S
C2044 H2110 0.961 . S
C2044 H2111 0.961 . S
C2044 H2112 0.959 . S
C2045 C2044 1.530 . S
C2045 O2073 1.412 . S
C2045 H2109 0.981 . S
C2046 C2047 1.288 . S
C2046 C2051 1.377 1_565 S
C2046 O2073 1.393 . S
C2047 C2046 1.288 . S
C2047 C2048 1.369 . S
C2047 H2113 0.932 . S
C2048 C2047 1.369 . S
C2048 C2049 1.398 . S
C2048 C2052 1.527 . S
C2049 C2048 1.398 . S
C2049 C2050 1.380 1_565 S
C2049 C2063 1.497 1_565 S
C2050 C2049 1.380 1_545 S
C2050 C2051 1.383 . S
C2050 C2053 1.603 . S
C2051 C2046 1.377 1_545 S
C2051 C2050 1.383 . S
C2051 H2114 0.929 . S
C2052 C2048 1.527 . S
C2052 H2115 0.961 . S
C2052 H2116 0.959 . S
C2052 H2117 0.959 . S
C2053 C2050 1.603 . S
C2053 H2118 0.960 . S
C2053 H2119 0.962 . S
C2053 H2120 0.961 . S
C2054 C2021 1.587 . S
C2054 C2055 1.360 . S
C2054 C2067 1.412 . S
C2055 C2054 1.360 . S
C2055 C2056 1.365 . S
C2055 H2121 0.929 . S
C2056 C2031 1.553 . S
C2056 C2055 1.365 . S
C2056 C2057 1.404 . S
C2057 C2056 1.404 . S
C2057 C2058 1.395 . S
C2057 C2068 1.451 . S
C2058 C2057 1.395 . S
C2058 C2059 1.322 . S
C2058 H2122 0.930 . S
C2059 C2058 1.322 . S
C2059 C2060 1.459 . S
C2059 H2123 0.929 . S
C2060 C2059 1.459 . S
C2060 C2061 1.445 . S
C2060 C2069 1.395 . S
C2061 C2039 1.432 . S
C2061 C2060 1.445 . S
C2061 C2062 1.370 . S
C2062 C2061 1.370 . S
C2062 C2063 1.438 . S
C2062 H2124 0.930 . S
C2063 C2049 1.497 1_545 S
C2063 C2062 1.438 . S
C2063 C2064 1.360 . S
C2064 C2063 1.360 . S
C2064 C2065 1.401 . S
C2064 C2069 1.446 . S
C2065 C2064 1.401 . S
C2065 C2066 1.347 . S
C2065 H2125 0.978 . S
C2066 C2065 1.347 . S
C2066 C2067 1.455 . S
C2066 H2126 0.930 . S
C2067 C2054 1.412 . S
C2067 C2066 1.455 . S
C2067 C2068 1.331 . S
C2068 C2057 1.451 . S
C2068 C2067 1.331 . S
C2068 C2069 1.497 . S
C2069 C2060 1.395 . S
C2069 C2064 1.446 . S
C2069 C2068 1.497 . S
C2070 C2071 1.599 . S
C2070 H2127 0.962 . S
C2070 H2128 0.959 . S
C2070 H2129 0.958 . S
C2071 C2070 1.599 . S
C2071 O2074 1.465 . S
C2071 H2100 0.980 1_545 S
O2072 C2017 1.426 . S
O2072 C2018 1.334 . S
O2073 C2045 1.412 . S
O2073 C2046 1.393 . S
O2074 C2036 1.435 . S
O2074 C2071 1.465 . S
O2075 C2027 1.468 . S
O2075 C2028 1.408 . S
H2076 C2017 0.980 1_545 S
H2077 C2016 0.959 . S
H2078 C2016 0.959 . S
H2079 C2016 0.960 . S
H2080 C2019 0.929 . S
H2081 C2023 0.929 . S
H2082 C2024 0.959 . S
H2083 C2024 0.961 . S
H2084 C2024 0.961 . S
H2085 C2025 0.960 . S
H2086 C2025 0.960 . S
H2087 C2025 0.961 . S
H2088 C2027 0.980 . S
H2089 C2026 0.961 . S
H2090 C2026 0.960 . S
H2091 C2026 0.959 . S
H2092 C2029 0.918 1_565 S
H2093 C2033 0.931 . S
H2094 C2034 0.959 . S
H2095 C2034 0.961 . S
H2096 C2034 0.959 . S
H2097 C2035 0.960 . S
H2098 C2035 0.960 . S
H2099 C2035 0.960 . S
H2100 C2071 0.980 1_565 S
H2101 C2037 0.930 . S
H2102 C2041 0.930 . S
H2103 C2042 0.961 . S
H2104 C2042 0.960 . S
H2105 C2042 0.958 . S
H2106 C2043 0.961 . S
H2107 C2043 0.960 . S
H2108 C2043 0.960 . S
H2109 C2045 0.981 . S
H2110 C2044 0.961 . S
H2111 C2044 0.961 . S
H2112 C2044 0.959 . S
H2113 C2047 0.932 . S
H2114 C2051 0.929 . S
H2115 C2052 0.961 . S
H2116 C2052 0.959 . S
H2117 C2052 0.959 . S
H2118 C2053 0.960 . S
H2119 C2053 0.962 . S
H2120 C2053 0.961 . S
H2121 C2055 0.929 . S
H2122 C2058 0.930 . S
H2123 C2059 0.929 . S
H2124 C2062 0.930 . S
H2125 C2065 0.978 . S
H2126 C2066 0.930 . S
H2127 C2070 0.962 . S
H2128 C2070 0.959 . S
H2129 C2070 0.958 . S
C2130 C2131 1.560 . S
C2130 H2191 0.959 . S
C2130 H2192 0.959 . S
C2130 H2193 0.960 . S
C2131 C2130 1.560 . S
C2131 O2186 1.426 . S
C2131 H2190 0.980 1_455 S
C2132 C2133 1.407 1_455 S
C2132 C2137 1.418 . S
C2132 O2186 1.334 . S
C2133 C2132 1.407 1_655 S
C2133 C2134 1.360 . S
C2133 H2194 0.929 . S
C2134 C2133 1.360 . S
C2134 C2135 1.401 . S
C2134 C2138 1.527 . S
C2135 C2134 1.401 . S
C2135 C2136 1.405 1_655 S
C2135 C2168 1.587 . S
C2136 C2135 1.405 1_455 S
C2136 C2137 1.332 . S
C2136 C2139 1.496 . S
C2137 C2132 1.418 . S
C2137 C2136 1.332 . S
C2137 H2195 0.929 . S
C2138 C2134 1.527 . S
C2138 H2196 0.959 . S
C2138 H2197 0.961 . S
C2138 H2198 0.961 . S
C2139 C2136 1.496 . S
C2139 H2199 0.960 . S
C2139 H2200 0.960 . S
C2139 H2201 0.961 . S
C2140 C2141 1.517 . S
C2140 H2203 0.961 . S
C2140 H2204 0.960 . S
C2140 H2205 0.959 . S
C2141 C2140 1.517 . S
C2141 O2189 1.468 . S
C2141 H2202 0.980 . S
C2142 C2143 1.349 . S
C2142 C2147 1.367 . S
C2142 O2189 1.408 . S
C2143 C2142 1.349 . S
C2143 C2144 1.407 . S
C2143 H2206 0.967 . S
C2144 C2143 1.407 . S
C2144 C2145 1.449 . S
C2144 C2148 1.535 1_655 S
C2145 C2144 1.449 . S
C2145 C2146 1.384 . S
C2145 C2170 1.553 . S
C2146 C2145 1.384 . S
C2146 C2147 1.364 . S
C2146 C2149 1.450 . S
C2147 C2142 1.367 . S
C2147 C2146 1.364 . S
C2147 H2207 0.931 . S
C2148 C2144 1.535 1_455 S
C2148 H2208 0.959 . S
C2148 H2209 0.961 . S
C2148 H2210 0.959 . S
C2149 C2146 1.450 . S
C2149 H2211 0.960 . S
C2149 H2212 0.960 . S
C2149 H2213 0.960 . S
C2150 C2151 1.309 1_655 S
C2150 C2155 1.304 . S
C2150 O2188 1.435 . S
C2151 C2150 1.309 1_455 S
C2151 C2152 1.476 . S
C2151 H2215 0.930 . S
C2152 C2151 1.476 . S
C2152 C2153 1.400 1_455 S
C2152 C2156 1.567 . S
C2153 C2152 1.400 1_655 S
C2153 C2154 1.373 . S
C2153 C2175 1.432 . S
C2154 C2153 1.373 . S
C2154 C2155 1.339 . S
C2154 C2157 1.530 . S
C2155 C2150 1.304 . S
C2155 C2154 1.339 . S
C2155 H2216 0.930 . S
C2156 C2152 1.567 . S
C2156 H2217 0.961 . S
C2156 H2218 0.960 . S
C2156 H2219 0.958 . S
C2157 C2154 1.530 . S
C2157 H2220 0.961 . S
C2157 H2221 0.960 . S
C2157 H2222 0.960 . S
C2158 C2159 1.530 . S
C2158 H2224 0.961 . S
C2158 H2225 0.961 . S
C2158 H2226 0.959 . S
C2159 C2158 1.530 . S
C2159 O2187 1.412 . S
C2159 H2223 0.980 . S
C2160 C2161 1.288 . S
C2160 C2165 1.377 1_455 S
C2160 O2187 1.393 . S
C2161 C2160 1.288 . S
C2161 C2162 1.369 . S
C2161 H2227 0.932 . S
C2162 C2161 1.369 . S
C2162 C2163 1.398 . S
C2162 C2166 1.527 . S
C2163 C2162 1.398 . S
C2163 C2164 1.380 1_455 S
C2163 C2177 1.497 1_455 S
C2164 C2163 1.380 1_655 S
C2164 C2165 1.383 . S
C2164 C2167 1.603 . S
C2165 C2160 1.377 1_655 S
C2165 C2164 1.383 . S
C2165 H2228 0.929 . S
C2166 C2162 1.527 . S
C2166 H2229 0.961 . S
C2166 H2230 0.959 . S
C2166 H2231 0.959 . S
C2167 C2164 1.603 . S
C2167 H2232 0.960 . S
C2167 H2233 0.962 . S
C2167 H2234 0.961 . S
C2168 C2135 1.587 . S
C2168 C2169 1.360 . S
C2168 C2181 1.412 . S
C2169 C2168 1.360 . S
C2169 C2170 1.365 . S
C2169 H2235 0.929 . S
C2170 C2145 1.553 . S
C2170 C2169 1.365 . S
C2170 C2171 1.404 . S
C2171 C2170 1.404 . S
C2171 C2172 1.395 . S
C2171 C2182 1.451 . S
C2172 C2171 1.395 . S
C2172 C2173 1.322 . S
C2172 H2236 0.930 . S
C2173 C2172 1.322 . S
C2173 C2174 1.459 . S
C2173 H2237 0.929 . S
C2174 C2173 1.459 . S
C2174 C2175 1.445 . S
C2174 C2183 1.395 . S
C2175 C2153 1.432 . S
C2175 C2174 1.445 . S
C2175 C2176 1.370 . S
C2176 C2175 1.370 . S
C2176 C2177 1.438 . S
C2176 H2238 0.930 . S
C2177 C2163 1.497 1_655 S
C2177 C2176 1.438 . S
C2177 C2178 1.360 . S
C2178 C2177 1.360 . S
C2178 C2179 1.401 . S
C2178 C2183 1.446 . S
C2179 C2178 1.401 . S
C2179 C2180 1.347 . S
C2179 H2239 0.916 . S
C2180 C2179 1.347 . S
C2180 C2181 1.455 . S
C2180 H2240 0.930 . S
C2181 C2168 1.412 . S
C2181 C2180 1.455 . S
C2181 C2182 1.331 . S
C2182 C2171 1.451 . S
C2182 C2181 1.331 . S
C2182 C2183 1.497 . S
C2183 C2174 1.395 . S
C2183 C2178 1.446 . S
C2183 C2182 1.497 . S
C2184 C2185 1.581 1_655 S
C2184 H2241 0.979 . S
C2184 H2242 0.959 . S
C2184 H2243 0.958 . S
C2185 C2184 1.581 1_455 S
C2185 O2188 1.423 1_455 S
C2185 H2214 0.994 . S
O2186 C2131 1.426 . S
O2186 C2132 1.334 . S
O2187 C2159 1.412 . S
O2187 C2160 1.393 . S
O2188 C2150 1.435 . S
O2188 C2185 1.423 1_655 S
O2189 C2141 1.468 . S
O2189 C2142 1.408 . S
H2190 C2131 0.980 1_655 S
H2191 C2130 0.959 . S
H2192 C2130 0.959 . S
H2193 C2130 0.960 . S
H2194 C2133 0.929 . S
H2195 C2137 0.929 . S
H2196 C2138 0.959 . S
H2197 C2138 0.961 . S
H2198 C2138 0.961 . S
H2199 C2139 0.960 . S
H2200 C2139 0.960 . S
H2201 C2139 0.961 . S
H2202 C2141 0.980 . S
H2203 C2140 0.961 . S
H2204 C2140 0.960 . S
H2205 C2140 0.959 . S
H2206 C2143 0.967 . S
H2207 C2147 0.931 . S
H2208 C2148 0.959 . S
H2209 C2148 0.961 . S
H2210 C2148 0.959 . S
H2211 C2149 0.960 . S
H2212 C2149 0.960 . S
H2213 C2149 0.960 . S
H2214 C2185 0.994 . S
H2215 C2151 0.930 . S
H2216 C2155 0.930 . S
H2217 C2156 0.961 . S
H2218 C2156 0.960 . S
H2219 C2156 0.958 . S
H2220 C2157 0.961 . S
H2221 C2157 0.960 . S
H2222 C2157 0.960 . S
H2223 C2159 0.980 . S
H2224 C2158 0.961 . S
H2225 C2158 0.961 . S
H2226 C2158 0.959 . S
H2227 C2161 0.932 . S
H2228 C2165 0.929 . S
H2229 C2166 0.961 . S
H2230 C2166 0.959 . S
H2231 C2166 0.959 . S
H2232 C2167 0.960 . S
H2233 C2167 0.962 . S
H2234 C2167 0.961 . S
H2235 C2169 0.929 . S
H2236 C2172 0.930 . S
H2237 C2173 0.929 . S
H2238 C2176 0.930 . S
H2239 C2179 0.916 . S
H2240 C2180 0.930 . S
H2241 C2184 0.979 . S
H2242 C2184 0.959 . S
H2243 C2184 0.958 . S
C2244 C2245 1.560 . S
C2244 H2305 0.959 . S
C2244 H2306 0.959 . S
C2244 H2307 0.960 . S
C2245 C2244 1.560 . S
C2245 O2300 1.426 . S
C2245 H2304 0.980 . S
C2246 C2247 1.407 . S
C2246 C2251 1.418 . S
C2246 O2300 1.334 . S
C2247 C2246 1.407 . S
C2247 C2248 1.360 . S
C2247 H2308 0.929 . S
C2248 C2247 1.360 . S
C2248 C2249 1.401 . S
C2248 C2252 1.527 . S
C2249 C2248 1.401 . S
C2249 C2250 1.405 . S
C2249 C2282 1.587 . S
C2250 C2249 1.405 . S
C2250 C2251 1.332 . S
C2250 C2253 1.496 . S
C2251 C2246 1.418 . S
C2251 C2250 1.332 . S
C2251 H2309 0.929 . S
C2252 C2248 1.527 . S
C2252 H2310 0.959 . S
C2252 H2311 0.961 . S
C2252 H2312 0.961 . S
C2253 C2250 1.496 . S
C2253 H2313 0.960 . S
C2253 H2314 0.960 . S
C2253 H2315 0.961 . S
C2254 C2255 1.517 . S
C2254 H2317 0.961 . S
C2254 H2318 0.960 . S
C2254 H2319 0.959 . S
C2255 C2254 1.517 . S
C2255 O2303 1.468 . S
C2255 H2316 0.980 . S
C2256 C2257 1.349 . S
C2256 C2261 1.367 . S
C2256 O2303 1.408 . S
C2257 C2256 1.349 . S
C2257 C2258 1.407 . S
C2257 H2320 0.930 . S
C2258 C2257 1.407 . S
C2258 C2259 1.449 . S
C2258 C2262 1.535 . S
C2259 C2258 1.449 . S
C2259 C2260 1.384 . S
C2259 C2284 1.553 . S
C2260 C2259 1.384 . S
C2260 C2261 1.364 . S
C2260 C2263 1.450 . S
C2261 C2256 1.367 . S
C2261 C2260 1.364 . S
C2261 H2321 0.931 . S
C2262 C2258 1.535 . S
C2262 H2322 0.959 . S
C2262 H2323 0.961 . S
C2262 H2324 0.959 . S
C2263 C2260 1.450 . S
C2263 H2325 0.960 . S
C2263 H2326 0.960 . S
C2263 H2327 0.960 . S
C2264 C2265 1.309 . S
C2264 C2269 1.304 . S
C2264 O2302 1.435 . S
C2265 C2264 1.309 . S
C2265 C2266 1.476 . S
C2265 H2329 0.930 . S
C2266 C2265 1.476 . S
C2266 C2267 1.400 . S
C2266 C2270 1.567 . S
C2267 C2266 1.400 . S
C2267 C2268 1.373 . S
C2267 C2289 1.432 . S
C2268 C2267 1.373 . S
C2268 C2269 1.339 . S
C2268 C2271 1.530 . S
C2269 C2264 1.304 . S
C2269 C2268 1.339 . S
C2269 H2330 0.930 . S
C2270 C2266 1.567 . S
C2270 H2331 0.961 . S
C2270 H2332 0.960 . S
C2270 H2333 0.958 . S
C2271 C2268 1.530 . S
C2271 H2334 0.961 . S
C2271 H2335 0.960 . S
C2271 H2336 0.960 . S
C2272 C2273 1.530 . S
C2272 H2338 0.961 . S
C2272 H2339 0.961 . S
C2272 H2340 0.959 . S
C2273 C2272 1.530 . S
C2273 O2301 1.412 . S
C2273 H2337 0.980 . S
C2274 C2275 1.288 . S
C2274 C2279 1.377 . S
C2274 O2301 1.393 . S
C2275 C2274 1.288 . S
C2275 C2276 1.369 . S
C2275 H2341 0.932 . S
C2276 C2275 1.369 . S
C2276 C2277 1.398 . S
C2276 C2280 1.527 . S
C2277 C2276 1.398 . S
C2277 C2278 1.380 . S
C2277 C2291 1.497 . S
C2278 C2277 1.380 . S
C2278 C2279 1.383 . S
C2278 C2281 1.603 . S
C2279 C2274 1.377 . S
C2279 C2278 1.383 . S
C2279 H2342 0.929 . S
C2280 C2276 1.527 . S
C2280 H2343 0.961 . S
C2280 H2344 0.959 . S
C2280 H2345 0.959 . S
C2281 C2278 1.603 . S
C2281 H2346 0.960 . S
C2281 H2347 0.962 . S
C2281 H2348 0.961 . S
C2282 C2249 1.587 . S
C2282 C2283 1.360 . S
C2282 C2295 1.412 . S
C2283 C2282 1.360 . S
C2283 C2284 1.365 . S
C2283 H2349 0.929 . S
C2284 C2259 1.553 . S
C2284 C2283 1.365 . S
C2284 C2285 1.404 . S
C2285 C2284 1.404 . S
C2285 C2286 1.395 . S
C2285 C2296 1.451 . S
C2286 C2285 1.395 . S
C2286 C2287 1.322 . S
C2286 H2350 0.930 . S
C2287 C2286 1.322 . S
C2287 C2288 1.459 . S
C2287 H2351 0.929 . S
C2288 C2287 1.459 . S
C2288 C2289 1.445 . S
C2288 C2297 1.395 . S
C2289 C2267 1.432 . S
C2289 C2288 1.445 . S
C2289 C2290 1.370 . S
C2290 C2289 1.370 . S
C2290 C2291 1.438 . S
C2290 H2352 0.930 . S
C2291 C2277 1.497 . S
C2291 C2290 1.438 . S
C2291 C2292 1.360 . S
C2292 C2291 1.360 . S
C2292 C2293 1.401 . S
C2292 C2297 1.446 . S
C2293 C2292 1.401 . S
C2293 C2294 1.347 . S
C2293 H2353 0.929 . S
C2294 C2293 1.347 . S
C2294 C2295 1.455 . S
C2294 H2354 0.930 . S
C2295 C2282 1.412 . S
C2295 C2294 1.455 . S
C2295 C2296 1.331 . S
C2296 C2285 1.451 . S
C2296 C2295 1.331 . S
C2296 C2297 1.497 . S
C2297 C2288 1.395 . S
C2297 C2292 1.446 . S
C2297 C2296 1.497 . S
C2298 C2299 1.582 . S
C2298 H2355 0.962 . S
C2298 H2356 0.959 . S
C2298 H2357 0.958 . S
C2299 C2298 1.582 . S
C2299 O2302 1.458 . S
C2299 H2328 0.980 . S
O2300 C2245 1.426 . S
O2300 C2246 1.334 . S
O2301 C2273 1.412 . S
O2301 C2274 1.393 . S
O2302 C2264 1.435 . S
O2302 C2299 1.458 . S
O2303 C2255 1.468 . S
O2303 C2256 1.408 . S
H2304 C2245 0.980 . S
H2305 C2244 0.959 . S
H2306 C2244 0.959 . S
H2307 C2244 0.960 . S
H2308 C2247 0.929 . S
H2309 C2251 0.929 . S
H2310 C2252 0.959 . S
H2311 C2252 0.961 . S
H2312 C2252 0.961 . S
H2313 C2253 0.960 . S
H2314 C2253 0.960 . S
H2315 C2253 0.961 . S
H2316 C2255 0.980 . S
H2317 C2254 0.961 . S
H2318 C2254 0.960 . S
H2319 C2254 0.959 . S
H2320 C2257 0.930 . S
H2321 C2261 0.931 . S
H2322 C2262 0.959 . S
H2323 C2262 0.961 . S
H2324 C2262 0.959 . S
H2325 C2263 0.960 . S
H2326 C2263 0.960 . S
H2327 C2263 0.960 . S
H2328 C2299 0.980 . S
H2329 C2265 0.930 . S
H2330 C2269 0.930 . S
H2331 C2270 0.961 . S
H2332 C2270 0.960 . S
H2333 C2270 0.958 . S
H2334 C2271 0.961 . S
H2335 C2271 0.960 . S
H2336 C2271 0.960 . S
H2337 C2273 0.980 . S
H2338 C2272 0.961 . S
H2339 C2272 0.961 . S
H2340 C2272 0.959 . S
H2341 C2275 0.932 . S
H2342 C2279 0.929 . S
H2343 C2280 0.961 . S
H2344 C2280 0.959 . S
H2345 C2280 0.959 . S
H2346 C2281 0.960 . S
H2347 C2281 0.962 . S
H2348 C2281 0.961 . S
H2349 C2283 0.929 . S
H2350 C2286 0.930 . S
H2351 C2287 0.929 . S
H2352 C2290 0.930 . S
H2353 C2293 0.929 . S
H2354 C2294 0.930 . S
H2355 C2298 0.962 . S
H2356 C2298 0.959 . S
H2357 C2298 0.958 . S
C2358 C2359 1.560 . S
C2358 H2419 0.959 . S
C2358 H2420 0.959 . S
C2358 H2421 0.960 . S
C2359 C2358 1.560 . S
C2359 O2414 1.426 . S
C2359 H2418 0.980 . S
C2360 C2361 1.407 . S
C2360 C2365 1.418 . S
C2360 O2414 1.334 . S
C2361 C2360 1.407 . S
C2361 C2362 1.360 . S
C2361 H2422 0.929 . S
C2362 C2361 1.360 . S
C2362 C2363 1.401 . S
C2362 C2366 1.527 . S
C2363 C2362 1.401 . S
C2363 C2364 1.405 . S
C2363 C2396 1.587 . S
C2364 C2363 1.405 . S
C2364 C2365 1.332 . S
C2364 C2367 1.496 . S
C2365 C2360 1.418 . S
C2365 C2364 1.332 . S
C2365 H2423 0.929 . S
C2366 C2362 1.527 . S
C2366 H2424 0.959 . S
C2366 H2425 0.961 . S
C2366 H2426 0.961 . S
C2367 C2364 1.496 . S
C2367 H2427 0.960 . S
C2367 H2428 0.960 . S
C2367 H2429 0.961 . S
C2368 C2369 1.517 . S
C2368 H2431 0.961 . S
C2368 H2432 0.960 . S
C2368 H2433 0.959 . S
C2369 C2368 1.517 . S
C2369 O2417 1.468 . S
C2369 H2430 0.980 . S
C2370 C2371 1.349 . S
C2370 C2375 1.367 . S
C2370 O2417 1.408 . S
C2371 C2370 1.349 . S
C2371 C2372 1.407 . S
C2371 H2434 0.930 . S
C2372 C2371 1.407 . S
C2372 C2373 1.449 . S
C2372 C2376 1.535 . S
C2373 C2372 1.449 . S
C2373 C2374 1.384 . S
C2373 C2398 1.553 . S
C2374 C2373 1.384 . S
C2374 C2375 1.364 . S
C2374 C2377 1.450 . S
C2375 C2370 1.367 . S
C2375 C2374 1.364 . S
C2375 H2435 0.931 . S
C2376 C2372 1.535 . S
C2376 H2436 0.959 . S
C2376 H2437 0.961 . S
C2376 H2438 0.959 . S
C2377 C2374 1.450 . S
C2377 H2439 0.960 . S
C2377 H2440 0.960 . S
C2377 H2441 0.960 . S
C2378 C2379 1.309 . S
C2378 C2383 1.304 . S
C2378 O2416 1.435 . S
C2379 C2378 1.309 . S
C2379 C2380 1.476 . S
C2379 H2443 0.930 . S
C2380 C2379 1.476 . S
C2380 C2381 1.400 . S
C2380 C2384 1.567 . S
C2381 C2380 1.400 . S
C2381 C2382 1.373 . S
C2381 C2403 1.432 . S
C2382 C2381 1.373 . S
C2382 C2383 1.339 . S
C2382 C2385 1.530 . S
C2383 C2378 1.304 . S
C2383 C2382 1.339 . S
C2383 H2444 0.930 . S
C2384 C2380 1.567 . S
C2384 H2445 0.961 . S
C2384 H2446 0.960 . S
C2384 H2447 0.958 . S
C2385 C2382 1.530 . S
C2385 H2448 0.961 . S
C2385 H2449 0.960 . S
C2385 H2450 0.960 . S
C2386 C2387 1.530 . S
C2386 H2452 0.961 . S
C2386 H2453 0.961 . S
C2386 H2454 0.959 . S
C2387 C2386 1.530 . S
C2387 O2415 1.412 . S
C2387 H2451 0.980 . S
C2388 C2389 1.288 . S
C2388 C2393 1.377 . S
C2388 O2415 1.393 . S
C2389 C2388 1.288 . S
C2389 C2390 1.369 . S
C2389 H2455 0.932 . S
C2390 C2389 1.369 . S
C2390 C2391 1.398 . S
C2390 C2394 1.527 . S
C2391 C2390 1.398 . S
C2391 C2392 1.380 . S
C2391 C2405 1.497 . S
C2392 C2391 1.380 . S
C2392 C2393 1.383 . S
C2392 C2395 1.603 . S
C2393 C2388 1.377 . S
C2393 C2392 1.383 . S
C2393 H2456 0.929 . S
C2394 C2390 1.527 . S
C2394 H2457 0.961 . S
C2394 H2458 0.959 . S
C2394 H2459 0.959 . S
C2395 C2392 1.603 . S
C2395 H2460 0.960 . S
C2395 H2461 0.962 . S
C2395 H2462 0.961 . S
C2396 C2363 1.587 . S
C2396 C2397 1.360 . S
C2396 C2409 1.412 . S
C2397 C2396 1.360 . S
C2397 C2398 1.365 . S
C2397 H2463 0.929 . S
C2398 C2373 1.553 . S
C2398 C2397 1.365 . S
C2398 C2399 1.404 . S
C2399 C2398 1.404 . S
C2399 C2400 1.395 . S
C2399 C2410 1.451 . S
C2400 C2399 1.395 . S
C2400 C2401 1.322 . S
C2400 H2464 0.930 . S
C2401 C2400 1.322 . S
C2401 C2402 1.459 . S
C2401 H2465 0.929 . S
C2402 C2401 1.459 . S
C2402 C2403 1.445 . S
C2402 C2411 1.395 . S
C2403 C2381 1.432 . S
C2403 C2402 1.445 . S
C2403 C2404 1.370 . S
C2404 C2403 1.370 . S
C2404 C2405 1.438 . S
C2404 H2466 0.930 . S
C2405 C2391 1.497 . S
C2405 C2404 1.438 . S
C2405 C2406 1.360 . S
C2406 C2405 1.360 . S
C2406 C2407 1.401 . S
C2406 C2411 1.446 . S
C2407 C2406 1.401 . S
C2407 C2408 1.347 . S
C2407 H2467 0.929 . S
C2408 C2407 1.347 . S
C2408 C2409 1.455 . S
C2408 H2468 0.930 . S
C2409 C2396 1.412 . S
C2409 C2408 1.455 . S
C2409 C2410 1.331 . S
C2410 C2399 1.451 . S
C2410 C2409 1.331 . S
C2410 C2411 1.497 . S
C2411 C2402 1.395 . S
C2411 C2406 1.446 . S
C2411 C2410 1.497 . S
C2412 C2413 1.582 . S
C2412 H2469 0.962 . S
C2412 H2470 0.959 . S
C2412 H2471 0.958 . S
C2413 C2412 1.582 . S
C2413 O2416 1.458 . S
C2413 H2442 0.980 . S
O2414 C2359 1.426 . S
O2414 C2360 1.334 . S
O2415 C2387 1.412 . S
O2415 C2388 1.393 . S
O2416 C2378 1.435 . S
O2416 C2413 1.458 . S
O2417 C2369 1.468 . S
O2417 C2370 1.408 . S
H2418 C2359 0.980 . S
H2419 C2358 0.959 . S
H2420 C2358 0.959 . S
H2421 C2358 0.960 . S
H2422 C2361 0.929 . S
H2423 C2365 0.929 . S
H2424 C2366 0.959 . S
H2425 C2366 0.961 . S
H2426 C2366 0.961 . S
H2427 C2367 0.960 . S
H2428 C2367 0.960 . S
H2429 C2367 0.961 . S
H2430 C2369 0.980 . S
H2431 C2368 0.961 . S
H2432 C2368 0.960 . S
H2433 C2368 0.959 . S
H2434 C2371 0.930 . S
H2435 C2375 0.931 . S
H2436 C2376 0.959 . S
H2437 C2376 0.961 . S
H2438 C2376 0.959 . S
H2439 C2377 0.960 . S
H2440 C2377 0.960 . S
H2441 C2377 0.960 . S
H2442 C2413 0.980 . S
H2443 C2379 0.930 . S
H2444 C2383 0.930 . S
H2445 C2384 0.961 . S
H2446 C2384 0.960 . S
H2447 C2384 0.958 . S
H2448 C2385 0.961 . S
H2449 C2385 0.960 . S
H2450 C2385 0.960 . S
H2451 C2387 0.980 . S
H2452 C2386 0.961 . S
H2453 C2386 0.961 . S
H2454 C2386 0.959 . S
H2455 C2389 0.932 . S
H2456 C2393 0.929 . S
H2457 C2394 0.961 . S
H2458 C2394 0.959 . S
H2459 C2394 0.959 . S
H2460 C2395 0.960 . S
H2461 C2395 0.962 . S
H2462 C2395 0.961 . S
H2463 C2397 0.929 . S
H2464 C2400 0.930 . S
H2465 C2401 0.929 . S
H2466 C2404 0.930 . S
H2467 C2407 0.929 . S
H2468 C2408 0.930 . S
H2469 C2412 0.962 . S
H2470 C2412 0.959 . S
H2471 C2412 0.958 . S
C2472 C2473 1.560 . S
C2472 H2533 0.959 . S
C2472 H2534 0.959 . S
C2472 H2535 0.960 . S
C2473 C2472 1.560 . S
C2473 O2528 1.426 . S
C2473 H2532 0.980 . S
C2474 C2475 1.407 . S
C2474 C2479 1.418 . S
C2474 O2528 1.334 . S
C2475 C2474 1.407 . S
C2475 C2476 1.360 . S
C2475 H2536 0.929 . S
C2476 C2475 1.360 . S
C2476 C2477 1.401 . S
C2476 C2480 1.527 . S
C2477 C2476 1.401 . S
C2477 C2478 1.405 . S
C2477 C2510 1.587 . S
C2478 C2477 1.405 . S
C2478 C2479 1.332 . S
C2478 C2481 1.496 . S
C2479 C2474 1.418 . S
C2479 C2478 1.332 . S
C2479 H2537 0.929 . S
C2480 C2476 1.527 . S
C2480 H2538 0.959 . S
C2480 H2539 0.961 . S
C2480 H2540 0.961 . S
C2481 C2478 1.496 . S
C2481 H2541 0.960 . S
C2481 H2542 0.960 . S
C2481 H2543 0.961 . S
C2482 C2483 1.517 . S
C2482 H2545 0.961 . S
C2482 H2546 0.960 . S
C2482 H2547 0.959 . S
C2483 C2482 1.517 . S
C2483 O2531 1.468 . S
C2483 H2544 0.980 . S
C2484 C2485 1.349 . S
C2484 C2489 1.367 . S
C2484 O2531 1.408 . S
C2485 C2484 1.349 . S
C2485 C2486 1.407 . S
C2485 H2548 0.930 . S
C2486 C2485 1.407 . S
C2486 C2487 1.449 . S
C2486 C2490 1.535 . S
C2487 C2486 1.449 . S
C2487 C2488 1.384 . S
C2487 C2512 1.553 . S
C2488 C2487 1.384 . S
C2488 C2489 1.364 . S
C2488 C2491 1.450 . S
C2489 C2484 1.367 . S
C2489 C2488 1.364 . S
C2489 H2549 0.931 . S
C2490 C2486 1.535 . S
C2490 H2550 0.959 . S
C2490 H2551 0.961 . S
C2490 H2552 0.959 . S
C2491 C2488 1.450 . S
C2491 H2553 0.960 . S
C2491 H2554 0.960 . S
C2491 H2555 0.960 . S
C2492 C2493 1.309 . S
C2492 C2497 1.304 . S
C2492 O2530 1.435 . S
C2493 C2492 1.309 . S
C2493 C2494 1.476 . S
C2493 H2557 0.930 . S
C2494 C2493 1.476 . S
C2494 C2495 1.400 . S
C2494 C2498 1.567 . S
C2495 C2494 1.400 . S
C2495 C2496 1.373 . S
C2495 C2517 1.432 . S
C2496 C2495 1.373 . S
C2496 C2497 1.339 . S
C2496 C2499 1.530 . S
C2497 C2492 1.304 . S
C2497 C2496 1.339 . S
C2497 H2558 0.930 . S
C2498 C2494 1.567 . S
C2498 H2559 0.961 . S
C2498 H2560 0.960 . S
C2498 H2561 0.958 . S
C2499 C2496 1.530 . S
C2499 H2562 0.961 . S
C2499 H2563 0.960 . S
C2499 H2564 0.960 . S
C2500 C2501 1.530 . S
C2500 H2566 0.961 . S
C2500 H2567 0.961 . S
C2500 H2568 0.959 . S
C2501 C2500 1.530 . S
C2501 O2529 1.412 . S
C2501 H2565 0.980 . S
C2502 C2503 1.288 . S
C2502 C2507 1.377 . S
C2502 O2529 1.393 . S
C2503 C2502 1.288 . S
C2503 C2504 1.369 . S
C2503 H2569 0.932 . S
C2504 C2503 1.369 . S
C2504 C2505 1.398 . S
C2504 C2508 1.527 . S
C2505 C2504 1.398 . S
C2505 C2506 1.380 . S
C2505 C2519 1.497 . S
C2506 C2505 1.380 . S
C2506 C2507 1.383 . S
C2506 C2509 1.603 . S
C2507 C2502 1.377 . S
C2507 C2506 1.383 . S
C2507 H2570 0.929 . S
C2508 C2504 1.527 . S
C2508 H2571 0.961 . S
C2508 H2572 0.959 . S
C2508 H2573 0.959 . S
C2509 C2506 1.603 . S
C2509 H2574 0.960 . S
C2509 H2575 0.962 . S
C2509 H2576 0.961 . S
C2510 C2477 1.587 . S
C2510 C2511 1.360 . S
C2510 C2523 1.412 . S
C2511 C2510 1.360 . S
C2511 C2512 1.365 . S
C2511 H2577 0.929 . S
C2512 C2487 1.553 . S
C2512 C2511 1.365 . S
C2512 C2513 1.404 . S
C2513 C2512 1.404 . S
C2513 C2514 1.395 . S
C2513 C2524 1.451 . S
C2514 C2513 1.395 . S
C2514 C2515 1.322 . S
C2514 H2578 0.930 . S
C2515 C2514 1.322 . S
C2515 C2516 1.459 . S
C2515 H2579 0.929 . S
C2516 C2515 1.459 . S
C2516 C2517 1.445 . S
C2516 C2525 1.395 . S
C2517 C2495 1.432 . S
C2517 C2516 1.445 . S
C2517 C2518 1.370 . S
C2518 C2517 1.370 . S
C2518 C2519 1.438 . S
C2518 H2580 0.930 . S
C2519 C2505 1.497 . S
C2519 C2518 1.438 . S
C2519 C2520 1.360 . S
C2520 C2519 1.360 . S
C2520 C2521 1.401 . S
C2520 C2525 1.446 . S
C2521 C2520 1.401 . S
C2521 C2522 1.347 . S
C2521 H2581 0.929 . S
C2522 C2521 1.347 . S
C2522 C2523 1.455 . S
C2522 H2582 0.930 . S
C2523 C2510 1.412 . S
C2523 C2522 1.455 . S
C2523 C2524 1.331 . S
C2524 C2513 1.451 . S
C2524 C2523 1.331 . S
C2524 C2525 1.497 . S
C2525 C2516 1.395 . S
C2525 C2520 1.446 . S
C2525 C2524 1.497 . S
C2526 C2527 1.582 . S
C2526 H2583 0.962 . S
C2526 H2584 0.959 . S
C2526 H2585 0.958 . S
C2527 C2526 1.582 . S
C2527 O2530 1.458 . S
C2527 H2556 0.980 . S
O2528 C2473 1.426 . S
O2528 C2474 1.334 . S
O2529 C2501 1.412 . S
O2529 C2502 1.393 . S
O2530 C2492 1.435 . S
O2530 C2527 1.458 . S
O2531 C2483 1.468 . S
O2531 C2484 1.408 . S
H2532 C2473 0.980 . S
H2533 C2472 0.959 . S
H2534 C2472 0.959 . S
H2535 C2472 0.960 . S
H2536 C2475 0.929 . S
H2537 C2479 0.929 . S
H2538 C2480 0.959 . S
H2539 C2480 0.961 . S
H2540 C2480 0.961 . S
H2541 C2481 0.960 . S
H2542 C2481 0.960 . S
H2543 C2481 0.961 . S
H2544 C2483 0.980 . S
H2545 C2482 0.961 . S
H2546 C2482 0.960 . S
H2547 C2482 0.959 . S
H2548 C2485 0.930 . S
H2549 C2489 0.931 . S
H2550 C2490 0.959 . S
H2551 C2490 0.961 . S
H2552 C2490 0.959 . S
H2553 C2491 0.960 . S
H2554 C2491 0.960 . S
H2555 C2491 0.960 . S
H2556 C2527 0.980 . S
H2557 C2493 0.930 . S
H2558 C2497 0.930 . S
H2559 C2498 0.961 . S
H2560 C2498 0.960 . S
H2561 C2498 0.958 . S
H2562 C2499 0.961 . S
H2563 C2499 0.960 . S
H2564 C2499 0.960 . S
H2565 C2501 0.980 . S
H2566 C2500 0.961 . S
H2567 C2500 0.961 . S
H2568 C2500 0.959 . S
H2569 C2503 0.932 . S
H2570 C2507 0.929 . S
H2571 C2508 0.961 . S
H2572 C2508 0.959 . S
H2573 C2508 0.959 . S
H2574 C2509 0.960 . S
H2575 C2509 0.962 . S
H2576 C2509 0.961 . S
H2577 C2511 0.929 . S
H2578 C2514 0.930 . S
H2579 C2515 0.929 . S
H2580 C2518 0.930 . S
H2581 C2521 0.929 . S
H2582 C2522 0.930 . S
H2583 C2526 0.962 . S
H2584 C2526 0.959 . S
H2585 C2526 0.958 . S
C2586 C2587 1.560 . S
C2586 H2647 0.959 . S
C2586 H2648 0.959 . S
C2586 H2649 0.960 . S
C2587 C2586 1.560 . S
C2587 O2642 1.426 . S
C2587 H2646 0.980 . S
C2588 C2589 1.407 . S
C2588 C2593 1.418 . S
C2588 O2642 1.334 . S
C2589 C2588 1.407 . S
C2589 C2590 1.360 . S
C2589 H2650 0.929 . S
C2590 C2589 1.360 . S
C2590 C2591 1.401 . S
C2590 C2594 1.527 . S
C2591 C2590 1.401 . S
C2591 C2592 1.405 . S
C2591 C2624 1.587 . S
C2592 C2591 1.405 . S
C2592 C2593 1.332 . S
C2592 C2595 1.496 . S
C2593 C2588 1.418 . S
C2593 C2592 1.332 . S
C2593 H2651 0.929 . S
C2594 C2590 1.527 . S
C2594 H2652 0.959 . S
C2594 H2653 0.961 . S
C2594 H2654 0.961 . S
C2595 C2592 1.496 . S
C2595 H2655 0.960 . S
C2595 H2656 0.960 . S
C2595 H2657 0.961 . S
C2596 C2597 1.517 . S
C2596 H2659 0.961 . S
C2596 H2660 0.960 . S
C2596 H2661 0.959 . S
C2597 C2596 1.517 . S
C2597 O2645 1.468 . S
C2597 H2658 0.980 . S
C2598 C2599 1.349 . S
C2598 C2603 1.367 . S
C2598 O2645 1.408 . S
C2599 C2598 1.349 . S
C2599 C2600 1.407 . S
C2599 H2662 0.930 . S
C2600 C2599 1.407 . S
C2600 C2601 1.449 . S
C2600 C2604 1.535 . S
C2601 C2600 1.449 . S
C2601 C2602 1.384 . S
C2601 C2626 1.553 . S
C2602 C2601 1.384 . S
C2602 C2603 1.364 . S
C2602 C2605 1.450 . S
C2603 C2598 1.367 . S
C2603 C2602 1.364 . S
C2603 H2663 0.931 . S
C2604 C2600 1.535 . S
C2604 H2664 0.959 . S
C2604 H2665 0.961 . S
C2604 H2666 0.959 . S
C2605 C2602 1.450 . S
C2605 H2667 0.960 . S
C2605 H2668 0.960 . S
C2605 H2669 0.960 . S
C2606 C2607 1.309 . S
C2606 C2611 1.304 . S
C2606 O2644 1.435 . S
C2607 C2606 1.309 . S
C2607 C2608 1.476 . S
C2607 H2671 0.930 . S
C2608 C2607 1.476 . S
C2608 C2609 1.400 . S
C2608 C2612 1.567 . S
C2609 C2608 1.400 . S
C2609 C2610 1.373 . S
C2609 C2631 1.432 . S
C2610 C2609 1.373 . S
C2610 C2611 1.339 . S
C2610 C2613 1.530 . S
C2611 C2606 1.304 . S
C2611 C2610 1.339 . S
C2611 H2672 0.930 . S
C2612 C2608 1.567 . S
C2612 H2673 0.961 . S
C2612 H2674 0.960 . S
C2612 H2675 0.958 . S
C2613 C2610 1.530 . S
C2613 H2676 0.961 . S
C2613 H2677 0.960 . S
C2613 H2678 0.960 . S
C2614 C2615 1.530 . S
C2614 H2680 0.961 . S
C2614 H2681 0.961 . S
C2614 H2682 0.959 . S
C2615 C2614 1.530 . S
C2615 O2643 1.412 . S
C2615 H2679 0.980 . S
C2616 C2617 1.288 . S
C2616 C2621 1.377 . S
C2616 O2643 1.393 . S
C2617 C2616 1.288 . S
C2617 C2618 1.369 . S
C2617 H2683 0.932 . S
C2618 C2617 1.369 . S
C2618 C2619 1.398 . S
C2618 C2622 1.527 . S
C2619 C2618 1.398 . S
C2619 C2620 1.380 . S
C2619 C2633 1.497 . S
C2620 C2619 1.380 . S
C2620 C2621 1.383 . S
C2620 C2623 1.603 . S
C2621 C2616 1.377 . S
C2621 C2620 1.383 . S
C2621 H2684 0.929 . S
C2622 C2618 1.527 . S
C2622 H2685 0.961 . S
C2622 H2686 0.959 . S
C2622 H2687 0.959 . S
C2623 C2620 1.603 . S
C2623 H2688 0.960 . S
C2623 H2689 0.962 . S
C2623 H2690 0.961 . S
C2624 C2591 1.587 . S
C2624 C2625 1.360 . S
C2624 C2637 1.412 . S
C2625 C2624 1.360 . S
C2625 C2626 1.365 . S
C2625 H2691 0.929 . S
C2626 C2601 1.553 . S
C2626 C2625 1.365 . S
C2626 C2627 1.404 . S
C2627 C2626 1.404 . S
C2627 C2628 1.395 . S
C2627 C2638 1.451 . S
C2628 C2627 1.395 . S
C2628 C2629 1.322 . S
C2628 H2692 0.930 . S
C2629 C2628 1.322 . S
C2629 C2630 1.459 . S
C2629 H2693 0.929 . S
C2630 C2629 1.459 . S
C2630 C2631 1.445 . S
C2630 C2639 1.395 . S
C2631 C2609 1.432 . S
C2631 C2630 1.445 . S
C2631 C2632 1.370 . S
C2632 C2631 1.370 . S
C2632 C2633 1.438 . S
C2632 H2694 0.930 . S
C2633 C2619 1.497 . S
C2633 C2632 1.438 . S
C2633 C2634 1.360 . S
C2634 C2633 1.360 . S
C2634 C2635 1.401 . S
C2634 C2639 1.446 . S
C2635 C2634 1.401 . S
C2635 C2636 1.347 . S
C2635 H2695 0.929 . S
C2636 C2635 1.347 . S
C2636 C2637 1.455 . S
C2636 H2696 0.930 . S
C2637 C2624 1.412 . S
C2637 C2636 1.455 . S
C2637 C2638 1.331 . S
C2638 C2627 1.451 . S
C2638 C2637 1.331 . S
C2638 C2639 1.497 . S
C2639 C2630 1.395 . S
C2639 C2634 1.446 . S
C2639 C2638 1.497 . S
C2640 C2641 1.582 . S
C2640 H2697 0.962 . S
C2640 H2698 0.959 . S
C2640 H2699 0.958 . S
C2641 C2640 1.582 . S
C2641 O2644 1.458 . S
C2641 H2670 0.980 . S
O2642 C2587 1.426 . S
O2642 C2588 1.334 . S
O2643 C2615 1.412 . S
O2643 C2616 1.393 . S
O2644 C2606 1.435 . S
O2644 C2641 1.458 . S
O2645 C2597 1.468 . S
O2645 C2598 1.408 . S
H2646 C2587 0.980 . S
H2647 C2586 0.959 . S
H2648 C2586 0.959 . S
H2649 C2586 0.960 . S
H2650 C2589 0.929 . S
H2651 C2593 0.929 . S
H2652 C2594 0.959 . S
H2653 C2594 0.961 . S
H2654 C2594 0.961 . S
H2655 C2595 0.960 . S
H2656 C2595 0.960 . S
H2657 C2595 0.961 . S
H2658 C2597 0.980 . S
H2659 C2596 0.961 . S
H2660 C2596 0.960 . S
H2661 C2596 0.959 . S
H2662 C2599 0.930 . S
H2663 C2603 0.931 . S
H2664 C2604 0.959 . S
H2665 C2604 0.961 . S
H2666 C2604 0.959 . S
H2667 C2605 0.960 . S
H2668 C2605 0.960 . S
H2669 C2605 0.960 . S
H2670 C2641 0.980 . S
H2671 C2607 0.930 . S
H2672 C2611 0.930 . S
H2673 C2612 0.961 . S
H2674 C2612 0.960 . S
H2675 C2612 0.958 . S
H2676 C2613 0.961 . S
H2677 C2613 0.960 . S
H2678 C2613 0.960 . S
H2679 C2615 0.980 . S
H2680 C2614 0.961 . S
H2681 C2614 0.961 . S
H2682 C2614 0.959 . S
H2683 C2617 0.932 . S
H2684 C2621 0.929 . S
H2685 C2622 0.961 . S
H2686 C2622 0.959 . S
H2687 C2622 0.959 . S
H2688 C2623 0.960 . S
H2689 C2623 0.962 . S
H2690 C2623 0.961 . S
H2691 C2625 0.929 . S
H2692 C2628 0.930 . S
H2693 C2629 0.929 . S
H2694 C2632 0.930 . S
H2695 C2635 0.929 . S
H2696 C2636 0.930 . S
H2697 C2640 0.962 . S
H2698 C2640 0.959 . S
H2699 C2640 0.958 . S
H2700 C2706 0.930 . S
H2701 C2710 0.930 . S
H2702 C2715 0.929 . S
H2703 C2713 0.929 . S
H2704 C2708 0.929 . S
H2705 C2714 0.929 . S
C2706 H2700 0.930 . S
C2706 C2707 1.367 . S
C2706 C2714 1.378 . S
C2707 C2706 1.367 . S
C2707 C2715 1.433 1_655 S
C2708 H2704 0.929 . S
C2708 C2710 1.378 . S
C2708 C2712 1.350 1_455 S
C2709 C2712 1.463 . S
C2709 C2714 1.350 . S
C2709 N2717 1.427 1_655 S
C2710 H2701 0.930 . S
C2710 C2708 1.378 . S
C2710 C2711 1.367 1_455 S
C2711 C2710 1.367 1_655 S
C2711 C2713 1.433 . S
C2712 C2708 1.350 1_655 S
C2712 C2709 1.463 . S
C2712 N2716 1.427 . S
C2713 H2703 0.929 . S
C2713 C2711 1.433 . S
C2713 N2716 1.384 . S
C2714 H2705 0.929 . S
C2714 C2706 1.378 . S
C2714 C2709 1.350 . S
C2715 H2702 0.929 . S
C2715 C2707 1.433 1_455 S
C2715 N2717 1.384 . S
N2716 C2712 1.427 . S
N2716 C2713 1.384 . S
N2717 C2709 1.427 1_455 S
N2717 C2715 1.384 . S
H2718 C2724 0.930 . S
H2719 C2728 0.930 . S
H2720 C2733 0.929 . S
H2721 C2731 0.929 . S
H2722 C2726 0.929 . S
H2723 C2732 0.929 . S
C2724 H2718 0.930 . S
C2724 C2725 1.367 . S
C2724 C2732 1.378 . S
C2725 C2724 1.367 . S
C2725 C2733 1.433 . S
C2726 H2722 0.929 . S
C2726 C2728 1.378 . S
C2726 C2730 1.350 . S
C2727 C2730 1.463 . S
C2727 C2732 1.350 . S
C2727 N2735 1.427 . S
C2728 H2719 0.930 . S
C2728 C2726 1.378 . S
C2728 C2729 1.367 . S
C2729 C2728 1.367 . S
C2729 C2731 1.433 . S
C2730 C2726 1.350 . S
C2730 C2727 1.463 . S
C2730 N2734 1.427 . S
C2731 H2721 0.929 . S
C2731 C2729 1.433 . S
C2731 N2734 1.384 . S
C2732 H2723 0.929 . S
C2732 C2724 1.378 . S
C2732 C2727 1.350 . S
C2733 H2720 0.929 . S
C2733 C2725 1.433 . S
C2733 N2735 1.384 . S
N2734 C2730 1.427 . S
N2734 C2731 1.384 . S
N2735 C2727 1.427 . S
N2735 C2733 1.384 . S
H2736 C2742 0.930 . S
H2737 C2746 0.930 . S
H2738 C2751 0.929 . S
H2739 C2749 0.929 . S
H2740 C2744 0.929 . S
H2741 C2750 0.929 . S
C2742 H2736 0.930 . S
C2742 C2743 1.367 . S
C2742 C2750 1.378 . S
C2743 C2742 1.367 . S
C2743 C2751 1.433 1_545 S
C2744 H2740 0.929 . S
C2744 C2746 1.378 . S
C2744 C2748 1.350 1_565 S
C2745 C2748 1.463 . S
C2745 C2750 1.350 . S
C2745 N2753 1.427 1_545 S
C2746 H2737 0.930 . S
C2746 C2744 1.378 . S
C2746 C2747 1.367 1_565 S
C2747 C2746 1.367 1_545 S
C2747 C2749 1.433 . S
C2748 C2744 1.350 1_545 S
C2748 C2745 1.463 . S
C2748 N2752 1.427 . S
C2749 H2739 0.929 . S
C2749 C2747 1.433 . S
C2749 N2752 1.384 . S
C2750 H2741 0.929 . S
C2750 C2742 1.378 . S
C2750 C2745 1.350 . S
C2751 H2738 0.929 . S
C2751 C2743 1.433 1_565 S
C2751 N2753 1.384 . S
N2752 C2748 1.427 . S
N2752 C2749 1.384 . S
N2753 C2745 1.427 1_565 S
N2753 C2751 1.384 . S
H2754 C2760 0.930 . S
H2755 C2764 0.930 . S
H2756 C2769 0.929 . S
H2757 C2767 0.929 . S
H2758 C2762 0.929 . S
H2759 C2768 0.929 . S
C2760 H2754 0.930 . S
C2760 C2761 1.367 . S
C2760 C2768 1.378 . S
C2761 C2760 1.367 . S
C2761 C2769 1.433 1_565 S
C2762 H2758 0.929 . S
C2762 C2764 1.378 . S
C2762 C2766 1.350 1_545 S
C2763 C2766 1.463 . S
C2763 C2768 1.350 . S
C2763 N2771 1.427 1_565 S
C2764 H2755 0.930 . S
C2764 C2762 1.378 . S
C2764 C2765 1.367 1_545 S
C2765 C2764 1.367 1_565 S
C2765 C2767 1.433 . S
C2766 C2762 1.350 1_565 S
C2766 C2763 1.463 . S
C2766 N2770 1.427 . S
C2767 H2757 0.929 . S
C2767 C2765 1.433 . S
C2767 N2770 1.384 . S
C2768 H2759 0.929 . S
C2768 C2760 1.378 . S
C2768 C2763 1.350 . S
C2769 H2756 0.929 . S
C2769 C2761 1.433 1_545 S
C2769 N2771 1.384 . S
N2770 C2766 1.427 . S
N2770 C2767 1.384 . S
N2771 C2763 1.427 1_545 S
N2771 C2769 1.384 . S
H2772 C2778 0.930 . S
H2773 C2782 0.930 . S
H2774 C2787 0.929 . S
H2775 C2785 0.929 . S
H2776 C2780 0.929 . S
H2777 C2786 0.929 . S
C2778 H2772 0.930 . S
C2778 C2779 1.367 . S
C2778 C2786 1.378 . S
C2779 C2778 1.367 . S
C2779 C2787 1.433 . S
C2780 H2776 0.929 . S
C2780 C2782 1.378 . S
C2780 C2784 1.350 . S
C2781 C2784 1.463 . S
C2781 C2786 1.350 . S
C2781 N2789 1.427 . S
C2782 H2773 0.930 . S
C2782 C2780 1.378 . S
C2782 C2783 1.367 . S
C2783 C2782 1.367 . S
C2783 C2785 1.433 . S
C2784 C2780 1.350 . S
C2784 C2781 1.463 . S
C2784 N2788 1.427 . S
C2785 H2775 0.929 . S
C2785 C2783 1.433 . S
C2785 N2788 1.384 . S
C2786 H2777 0.929 . S
C2786 C2778 1.378 . S
C2786 C2781 1.350 . S
C2787 H2774 0.929 . S
C2787 C2779 1.433 . S
C2787 N2789 1.384 . S
N2788 C2784 1.427 . S
N2788 C2785 1.384 . S
N2789 C2781 1.427 . S
N2789 C2787 1.384 . S
H2790 C2796 0.930 . S
H2791 C2800 0.930 . S
H2792 C2805 0.929 . S
H2793 C2803 0.929 . S
H2794 C2798 0.929 . S
H2795 C2804 0.929 . S
C2796 H2790 0.930 . S
C2796 C2797 1.367 . S
C2796 C2804 1.378 . S
C2797 C2796 1.367 . S
C2797 C2805 1.433 . S
C2798 H2794 0.929 . S
C2798 C2800 1.378 . S
C2798 C2802 1.350 . S
C2799 C2802 1.463 . S
C2799 C2804 1.350 . S
C2799 N2807 1.427 . S
C2800 H2791 0.930 . S
C2800 C2798 1.378 . S
C2800 C2801 1.367 . S
C2801 C2800 1.367 . S
C2801 C2803 1.433 . S
C2802 C2798 1.350 . S
C2802 C2799 1.463 . S
C2802 N2806 1.427 . S
C2803 H2793 0.929 . S
C2803 C2801 1.433 . S
C2803 N2806 1.384 . S
C2804 H2795 0.929 . S
C2804 C2796 1.378 . S
C2804 C2799 1.350 . S
C2805 H2792 0.929 . S
C2805 C2797 1.433 . S
C2805 N2807 1.384 . S
N2806 C2802 1.427 . S
N2806 C2803 1.384 . S
N2807 C2799 1.427 . S
N2807 C2805 1.384 . S
H2808 C2814 0.930 . S
H2809 C2818 0.930 . S
H2810 C2823 0.929 . S
H2811 C2821 0.929 . S
H2812 C2816 0.929 . S
H2813 C2822 0.929 . S
C2814 H2808 0.930 . S
C2814 C2815 1.367 . S
C2814 C2822 1.378 . S
C2815 C2814 1.367 . S
C2815 C2823 1.433 1_455 S
C2816 H2812 0.929 . S
C2816 C2818 1.378 . S
C2816 C2820 1.350 1_655 S
C2817 C2820 1.463 . S
C2817 C2822 1.350 . S
C2817 N2825 1.427 1_455 S
C2818 H2809 0.930 . S
C2818 C2816 1.378 . S
C2818 C2819 1.367 1_655 S
C2819 C2818 1.367 1_455 S
C2819 C2821 1.433 . S
C2820 C2816 1.350 1_455 S
C2820 C2817 1.463 . S
C2820 N2824 1.427 . S
C2821 H2811 0.929 . S
C2821 C2819 1.433 . S
C2821 N2824 1.384 . S
C2822 H2813 0.929 . S
C2822 C2814 1.378 . S
C2822 C2817 1.350 . S
C2823 H2810 0.929 . S
C2823 C2815 1.433 1_655 S
C2823 N2825 1.384 . S
N2824 C2820 1.427 . S
N2824 C2821 1.384 . S
N2825 C2817 1.427 1_655 S
N2825 C2823 1.384 . S
H2826 C2832 0.930 . S
H2827 C2836 0.930 . S
H2828 C2841 0.929 . S
H2829 C2839 0.929 . S
H2830 C2834 0.929 . S
H2831 C2840 0.929 . S
C2832 H2826 0.930 . S
C2832 C2833 1.367 . S
C2832 C2840 1.378 . S
C2833 C2832 1.367 . S
C2833 C2841 1.433 . S
C2834 H2830 0.929 . S
C2834 C2836 1.378 . S
C2834 C2838 1.350 . S
C2835 C2838 1.463 . S
C2835 C2840 1.350 . S
C2835 N2843 1.427 . S
C2836 H2827 0.930 . S
C2836 C2834 1.378 . S
C2836 C2837 1.367 . S
C2837 C2836 1.367 . S
C2837 C2839 1.433 . S
C2838 C2834 1.350 . S
C2838 C2835 1.463 . S
C2838 N2842 1.427 . S
C2839 H2829 0.929 . S
C2839 C2837 1.433 . S
C2839 N2842 1.384 . S
C2840 H2831 0.929 . S
C2840 C2832 1.378 . S
C2840 C2835 1.350 . S
C2841 H2828 0.929 . S
C2841 C2833 1.433 . S
C2841 N2843 1.384 . S
N2842 C2838 1.427 . S
N2842 C2839 1.384 . S
N2843 C2835 1.427 . S
N2843 C2841 1.384 . S
H2844 C2850 0.930 . S
H2845 C2854 0.930 . S
H2846 C2859 0.929 . S
H2847 C2857 0.929 . S
H2848 C2852 0.929 . S
H2849 C2858 0.929 . S
C2850 H2844 0.930 . S
C2850 C2851 1.367 1_545 S
C2850 C2858 1.378 . S
C2851 C2850 1.367 1_565 S
C2851 C2859 1.433 . S
C2852 H2848 0.929 . S
C2852 C2854 1.378 . S
C2852 C2856 1.350 . S
C2853 C2856 1.463 . S
C2853 C2858 1.350 1_565 S
C2853 N2861 1.427 . S
C2854 H2845 0.930 . S
C2854 C2852 1.378 . S
C2854 C2855 1.367 . S
C2855 C2854 1.367 . S
C2855 C2857 1.433 1_565 S
C2856 C2852 1.350 . S
C2856 C2853 1.463 . S
C2856 N2860 1.427 1_565 S
C2857 H2847 0.929 . S
C2857 C2855 1.433 1_545 S
C2857 N2860 1.384 . S
C2858 H2849 0.929 . S
C2858 C2850 1.378 . S
C2858 C2853 1.350 1_545 S
C2859 H2846 0.929 . S
C2859 C2851 1.433 . S
C2859 N2861 1.384 . S
N2860 C2856 1.427 1_545 S
N2860 C2857 1.384 . S
N2861 C2853 1.427 . S
N2861 C2859 1.384 . S
H2862 C2868 0.930 . S
H2863 C2872 0.930 . S
H2864 C2877 0.929 . S
H2865 C2875 0.929 . S
H2866 C2870 0.929 . S
H2867 C2876 0.929 . S
C2868 H2862 0.930 . S
C2868 C2869 1.367 1_565 S
C2868 C2876 1.378 . S
C2869 C2868 1.367 1_545 S
C2869 C2877 1.433 . S
C2870 H2866 0.929 . S
C2870 C2872 1.378 . S
C2870 C2874 1.350 . S
C2871 C2874 1.463 . S
C2871 C2876 1.350 1_545 S
C2871 N2879 1.427 . S
C2872 H2863 0.930 . S
C2872 C2870 1.378 . S
C2872 C2873 1.367 . S
C2873 C2872 1.367 . S
C2873 C2875 1.433 1_545 S
C2874 C2870 1.350 . S
C2874 C2871 1.463 . S
C2874 N2878 1.427 1_545 S
C2875 H2865 0.929 . S
C2875 C2873 1.433 1_565 S
C2875 N2878 1.384 . S
C2876 H2867 0.929 . S
C2876 C2868 1.378 . S
C2876 C2871 1.350 1_565 S
C2877 H2864 0.929 . S
C2877 C2869 1.433 . S
C2877 N2879 1.384 . S
N2878 C2874 1.427 1_565 S
N2878 C2875 1.384 . S
N2879 C2871 1.427 . S
N2879 C2877 1.384 . S
H2880 C2886 0.930 . S
H2881 C2890 0.930 . S
H2882 C2895 0.929 . S
H2883 C2893 0.929 . S
H2884 C2888 0.929 . S
H2885 C2894 0.929 . S
C2886 H2880 0.930 . S
C2886 C2887 1.367 1_455 S
C2886 C2894 1.378 . S
C2887 C2886 1.367 1_655 S
C2887 C2895 1.433 . S
C2888 H2884 0.929 . S
C2888 C2890 1.378 . S
C2888 C2892 1.350 . S
C2889 C2892 1.463 . S
C2889 C2894 1.350 1_655 S
C2889 N2897 1.427 . S
C2890 H2881 0.930 . S
C2890 C2888 1.378 . S
C2890 C2891 1.367 . S
C2891 C2890 1.367 . S
C2891 C2893 1.433 1_655 S
C2892 C2888 1.350 . S
C2892 C2889 1.463 . S
C2892 N2896 1.427 1_655 S
C2893 H2883 0.929 . S
C2893 C2891 1.433 1_455 S
C2893 N2896 1.384 . S
C2894 H2885 0.929 . S
C2894 C2886 1.378 . S
C2894 C2889 1.350 1_455 S
C2895 H2882 0.929 . S
C2895 C2887 1.433 . S
C2895 N2897 1.384 . S
N2896 C2892 1.427 1_455 S
N2896 C2893 1.384 . S
N2897 C2889 1.427 . S
N2897 C2895 1.384 . S
H2898 C2904 0.930 . S
H2899 C2908 0.930 . S
H2900 C2913 0.929 . S
H2901 C2911 0.929 . S
H2902 C2906 0.929 . S
H2903 C2912 0.929 . S
C2904 H2898 0.930 . S
C2904 C2905 1.367 . S
C2904 C2912 1.378 . S
C2905 C2904 1.367 . S
C2905 C2913 1.433 . S
C2906 H2902 0.929 . S
C2906 C2908 1.378 . S
C2906 C2910 1.350 . S
C2907 C2910 1.463 . S
C2907 C2912 1.350 . S
C2907 N2915 1.427 . S
C2908 H2899 0.930 . S
C2908 C2906 1.378 . S
C2908 C2909 1.367 . S
C2909 C2908 1.367 . S
C2909 C2911 1.433 . S
C2910 C2906 1.350 . S
C2910 C2907 1.463 . S
C2910 N2914 1.427 . S
C2911 H2901 0.929 . S
C2911 C2909 1.433 . S
C2911 N2914 1.384 . S
C2912 H2903 0.929 . S
C2912 C2904 1.378 . S
C2912 C2907 1.350 . S
C2913 H2900 0.929 . S
C2913 C2905 1.433 . S
C2913 N2915 1.384 . S
N2914 C2910 1.427 . S
N2914 C2911 1.384 . S
N2915 C2907 1.427 . S
N2915 C2913 1.384 . S
H2916 C2922 0.930 . S
H2917 C2926 0.930 . S
H2918 C2931 0.929 . S
H2919 C2929 0.929 . S
H2920 C2924 0.929 . S
H2921 C2930 0.929 . S
C2922 H2916 0.930 . S
C2922 C2923 1.367 . S
C2922 C2930 1.378 . S
C2923 C2922 1.367 . S
C2923 C2931 1.433 . S
C2924 H2920 0.929 . S
C2924 C2926 1.378 . S
C2924 C2928 1.350 . S
C2925 C2928 1.463 . S
C2925 C2930 1.350 . S
C2925 N2933 1.427 . S
C2926 H2917 0.930 . S
C2926 C2924 1.378 . S
C2926 C2927 1.367 . S
C2927 C2926 1.367 . S
C2927 C2929 1.433 . S
C2928 C2924 1.350 . S
C2928 C2925 1.463 . S
C2928 N2932 1.427 . S
C2929 H2919 0.929 . S
C2929 C2927 1.433 . S
C2929 N2932 1.384 . S
C2930 H2921 0.929 . S
C2930 C2922 1.378 . S
C2930 C2925 1.350 . S
C2931 H2918 0.929 . S
C2931 C2923 1.433 . S
C2931 N2933 1.384 . S
N2932 C2928 1.427 . S
N2932 C2929 1.384 . S
N2933 C2925 1.427 . S
N2933 C2931 1.384 . S
H2934 C2940 0.930 . S
H2935 C2944 0.930 . S
H2936 C2949 0.929 . S
H2937 C2947 0.929 . S
H2938 C2942 0.929 . S
H2939 C2948 0.929 . S
C2940 H2934 0.930 . S
C2940 C2941 1.367 . S
C2940 C2948 1.378 . S
C2941 C2940 1.367 . S
C2941 C2949 1.433 . S
C2942 H2938 0.929 . S
C2942 C2944 1.378 . S
C2942 C2946 1.350 . S
C2943 C2946 1.463 . S
C2943 C2948 1.350 . S
C2943 N2951 1.427 . S
C2944 H2935 0.930 . S
C2944 C2942 1.378 . S
C2944 C2945 1.367 . S
C2945 C2944 1.367 . S
C2945 C2947 1.433 . S
C2946 C2942 1.350 . S
C2946 C2943 1.463 . S
C2946 N2950 1.427 . S
C2947 H2937 0.929 . S
C2947 C2945 1.433 . S
C2947 N2950 1.384 . S
C2948 H2939 0.929 . S
C2948 C2940 1.378 . S
C2948 C2943 1.350 . S
C2949 H2936 0.929 . S
C2949 C2941 1.433 . S
C2949 N2951 1.384 . S
N2950 C2946 1.427 . S
N2950 C2947 1.384 . S
N2951 C2943 1.427 . S
N2951 C2949 1.384 . S
H2952 C2958 0.930 . S
H2953 C2962 0.930 . S
H2954 C2967 0.929 . S
H2955 C2965 0.929 . S
H2956 C2960 0.929 . S
H2957 C2966 0.929 . S
C2958 H2952 0.930 . S
C2958 C2959 1.367 . S
C2958 C2966 1.378 . S
C2959 C2958 1.367 . S
C2959 C2967 1.433 . S
C2960 H2956 0.929 . S
C2960 C2962 1.378 . S
C2960 C2964 1.350 . S
C2961 C2964 1.463 . S
C2961 C2966 1.350 . S
C2961 N2969 1.427 . S
C2962 H2953 0.930 . S
C2962 C2960 1.378 . S
C2962 C2963 1.367 . S
C2963 C2962 1.367 . S
C2963 C2965 1.433 . S
C2964 C2960 1.350 . S
C2964 C2961 1.463 . S
C2964 N2968 1.427 . S
C2965 H2955 0.929 . S
C2965 C2963 1.433 . S
C2965 N2968 1.384 . S
C2966 H2957 0.929 . S
C2966 C2958 1.378 . S
C2966 C2961 1.350 . S
C2967 H2954 0.929 . S
C2967 C2959 1.433 . S
C2967 N2969 1.384 . S
N2968 C2964 1.427 . S
N2968 C2965 1.384 . S
N2969 C2961 1.427 . S
N2969 C2967 1.384 . S
H2970 C2976 0.930 . S
H2971 C2980 0.930 . S
H2972 C2985 0.929 . S
H2973 C2983 0.929 . S
H2974 C2978 0.929 . S
H2975 C2984 0.929 . S
C2976 H2970 0.930 . S
C2976 C2977 1.367 . S
C2976 C2984 1.378 . S
C2977 C2976 1.367 . S
C2977 C2985 1.433 . S
C2978 H2974 0.929 . S
C2978 C2980 1.378 . S
C2978 C2982 1.350 . S
C2979 C2982 1.463 . S
C2979 C2984 1.350 . S
C2979 N2987 1.427 . S
C2980 H2971 0.930 . S
C2980 C2978 1.378 . S
C2980 C2981 1.367 . S
C2981 C2980 1.367 . S
C2981 C2983 1.433 . S
C2982 C2978 1.350 . S
C2982 C2979 1.463 . S
C2982 N2986 1.427 . S
C2983 H2973 0.929 . S
C2983 C2981 1.433 . S
C2983 N2986 1.384 . S
C2984 H2975 0.929 . S
C2984 C2976 1.378 . S
C2984 C2979 1.350 . S
C2985 H2972 0.929 . S
C2985 C2977 1.433 . S
C2985 N2987 1.384 . S
N2986 C2982 1.427 . S
N2986 C2983 1.384 . S
N2987 C2979 1.427 . S
N2987 C2985 1.384 . S
H2988 C2994 0.930 . S
H2989 C2998 0.930 . S
H2990 C3003 0.929 . S
H2991 C3001 0.929 . S
H2992 C2996 0.929 . S
H2993 C3002 0.929 . S
C2994 H2988 0.930 . S
C2994 C2995 1.367 . S
C2994 C3002 1.378 . S
C2995 C2994 1.367 . S
C2995 C3003 1.433 . S
C2996 H2992 0.929 . S
C2996 C2998 1.378 . S
C2996 C3000 1.350 . S
C2997 C3000 1.463 . S
C2997 C3002 1.350 . S
C2997 N3005 1.427 . S
C2998 H2989 0.930 . S
C2998 C2996 1.378 . S
C2998 C2999 1.367 . S
C2999 C2998 1.367 . S
C2999 C3001 1.433 . S
C3000 C2996 1.350 . S
C3000 C2997 1.463 . S
C3000 N3004 1.427 . S
C3001 H2991 0.929 . S
C3001 C2999 1.433 . S
C3001 N3004 1.384 . S
C3002 H2993 0.929 . S
C3002 C2994 1.378 . S
C3002 C2997 1.350 . S
C3003 H2990 0.929 . S
C3003 C2995 1.433 . S
C3003 N3005 1.384 . S
N3004 C3000 1.427 . S
N3004 C3001 1.384 . S
N3005 C2997 1.427 . S
N3005 C3003 1.384 . S
H3006 C3012 0.930 . S
H3007 C3016 0.930 . S
H3008 C3021 0.929 . S
H3009 C3019 0.929 . S
H3010 C3014 0.929 . S
H3011 C3020 0.929 . S
C3012 H3006 0.930 . S
C3012 C3013 1.367 . S
C3012 C3020 1.378 . S
C3013 C3012 1.367 . S
C3013 C3021 1.433 . S
C3014 H3010 0.929 . S
C3014 C3016 1.378 . S
C3014 C3018 1.350 . S
C3015 C3018 1.463 . S
C3015 C3020 1.350 . S
C3015 N3023 1.427 . S
C3016 H3007 0.930 . S
C3016 C3014 1.378 . S
C3016 C3017 1.367 . S
C3017 C3016 1.367 . S
C3017 C3019 1.433 . S
C3018 C3014 1.350 . S
C3018 C3015 1.463 . S
C3018 N3022 1.427 . S
C3019 H3009 0.929 . S
C3019 C3017 1.433 . S
C3019 N3022 1.384 . S
C3020 H3011 0.929 . S
C3020 C3012 1.378 . S
C3020 C3015 1.350 . S
C3021 H3008 0.929 . S
C3021 C3013 1.433 . S
C3021 N3023 1.384 . S
N3022 C3018 1.427 . S
N3022 C3019 1.384 . S
N3023 C3015 1.427 . S
N3023 C3021 1.384 . S
H3024 C3030 0.930 . S
H3025 C3034 0.930 . S
H3026 C3039 0.929 . S
H3027 C3037 0.929 . S
H3028 C3032 0.929 . S
H3029 C3038 0.929 . S
C3030 H3024 0.930 . S
C3030 C3031 1.367 . S
C3030 C3038 1.378 . S
C3031 C3030 1.367 . S
C3031 C3039 1.433 . S
C3032 H3028 0.929 . S
C3032 C3034 1.378 . S
C3032 C3036 1.350 . S
C3033 C3036 1.463 . S
C3033 C3038 1.350 . S
C3033 N3041 1.427 . S
C3034 H3025 0.930 . S
C3034 C3032 1.378 . S
C3034 C3035 1.367 . S
C3035 C3034 1.367 . S
C3035 C3037 1.433 . S
C3036 C3032 1.350 . S
C3036 C3033 1.463 . S
C3036 N3040 1.427 . S
C3037 H3027 0.929 . S
C3037 C3035 1.433 . S
C3037 N3040 1.384 . S
C3038 H3029 0.929 . S
C3038 C3030 1.378 . S
C3038 C3033 1.350 . S
C3039 H3026 0.929 . S
C3039 C3031 1.433 . S
C3039 N3041 1.384 . S
N3040 C3036 1.427 . S
N3040 C3037 1.384 . S
N3041 C3033 1.427 . S
N3041 C3039 1.384 . S
H3042 C3048 0.930 . S
H3043 C3052 0.930 . S
H3044 C3057 0.929 . S
H3045 C3055 0.929 . S
H3046 C3050 0.929 . S
H3047 C3056 0.929 . S
C3048 H3042 0.930 . S
C3048 C3049 1.367 . S
C3048 C3056 1.378 . S
C3049 C3048 1.367 . S
C3049 C3057 1.433 . S
C3050 H3046 0.929 . S
C3050 C3052 1.378 . S
C3050 C3054 1.350 . S
C3051 C3054 1.463 . S
C3051 C3056 1.350 . S
C3051 N3059 1.427 . S
C3052 H3043 0.930 . S
C3052 C3050 1.378 . S
C3052 C3053 1.367 . S
C3053 C3052 1.367 . S
C3053 C3055 1.433 . S
C3054 C3050 1.350 . S
C3054 C3051 1.463 . S
C3054 N3058 1.427 . S
C3055 H3045 0.929 . S
C3055 C3053 1.433 . S
C3055 N3058 1.384 . S
C3056 H3047 0.929 . S
C3056 C3048 1.378 . S
C3056 C3051 1.350 . S
C3057 H3044 0.929 . S
C3057 C3049 1.433 . S
C3057 N3059 1.384 . S
N3058 C3054 1.427 . S
N3058 C3055 1.384 . S
N3059 C3051 1.427 . S
N3059 C3057 1.384 . S
H3060 C3066 0.930 . S
H3061 C3070 0.930 . S
H3062 C3075 0.929 . S
H3063 C3073 0.929 . S
H3064 C3068 0.929 . S
H3065 C3074 0.929 . S
C3066 H3060 0.930 . S
C3066 C3067 1.367 . S
C3066 C3074 1.378 . S
C3067 C3066 1.367 . S
C3067 C3075 1.433 . S
C3068 H3064 0.929 . S
C3068 C3070 1.378 . S
C3068 C3072 1.350 . S
C3069 C3072 1.463 . S
C3069 C3074 1.350 . S
C3069 N3077 1.427 . S
C3070 H3061 0.930 . S
C3070 C3068 1.378 . S
C3070 C3071 1.367 . S
C3071 C3070 1.367 . S
C3071 C3073 1.433 . S
C3072 C3068 1.350 . S
C3072 C3069 1.463 . S
C3072 N3076 1.427 . S
C3073 H3063 0.929 . S
C3073 C3071 1.433 . S
C3073 N3076 1.384 . S
C3074 H3065 0.929 . S
C3074 C3066 1.378 . S
C3074 C3069 1.350 . S
C3075 H3062 0.929 . S
C3075 C3067 1.433 . S
C3075 N3077 1.384 . S
N3076 C3072 1.427 . S
N3076 C3073 1.384 . S
N3077 C3069 1.427 . S
N3077 C3075 1.384 . S
H3078 C3084 0.930 . S
H3079 C3088 0.930 . S
H3080 C3093 0.929 . S
H3081 C3091 0.929 . S
H3082 C3086 0.929 . S
H3083 C3092 0.929 . S
C3084 H3078 0.930 . S
C3084 C3085 1.367 . S
C3084 C3092 1.378 . S
C3085 C3084 1.367 . S
C3085 C3093 1.433 . S
C3086 H3082 0.929 . S
C3086 C3088 1.378 . S
C3086 C3090 1.350 . S
C3087 C3090 1.463 . S
C3087 C3092 1.350 . S
C3087 N3095 1.427 . S
C3088 H3079 0.930 . S
C3088 C3086 1.378 . S
C3088 C3089 1.367 . S
C3089 C3088 1.367 . S
C3089 C3091 1.433 . S
C3090 C3086 1.350 . S
C3090 C3087 1.463 . S
C3090 N3094 1.427 . S
C3091 H3081 0.929 . S
C3091 C3089 1.433 . S
C3091 N3094 1.384 . S
C3092 H3083 0.929 . S
C3092 C3084 1.378 . S
C3092 C3087 1.350 . S
C3093 H3080 0.929 . S
C3093 C3085 1.433 . S
C3093 N3095 1.384 . S
N3094 C3090 1.427 . S
N3094 C3091 1.384 . S
N3095 C3087 1.427 . S
N3095 C3093 1.384 . S
H3096 C3102 0.930 . S
H3097 C3106 0.930 . S
H3098 C3111 0.929 . S
H3099 C3109 0.929 . S
H3100 C3104 0.929 . S
H3101 C3110 0.929 . S
C3102 H3096 0.930 . S
C3102 C3103 1.367 . S
C3102 C3110 1.378 . S
C3103 C3102 1.367 . S
C3103 C3111 1.433 . S
C3104 H3100 0.929 . S
C3104 C3106 1.378 . S
C3104 C3108 1.350 . S
C3105 C3108 1.463 . S
C3105 C3110 1.350 . S
C3105 N3113 1.427 . S
C3106 H3097 0.930 . S
C3106 C3104 1.378 . S
C3106 C3107 1.367 . S
C3107 C3106 1.367 . S
C3107 C3109 1.433 . S
C3108 C3104 1.350 . S
C3108 C3105 1.463 . S
C3108 N3112 1.427 . S
C3109 H3099 0.929 . S
C3109 C3107 1.433 . S
C3109 N3112 1.384 . S
C3110 H3101 0.929 . S
C3110 C3102 1.378 . S
C3110 C3105 1.350 . S
C3111 H3098 0.929 . S
C3111 C3103 1.433 . S
C3111 N3113 1.384 . S
N3112 C3108 1.427 . S
N3112 C3109 1.384 . S
N3113 C3105 1.427 . S
N3113 C3111 1.384 . S
H3114 C3120 0.930 . S
H3115 C3124 0.930 . S
H3116 C3129 0.929 . S
H3117 C3127 0.929 . S
H3118 C3122 0.929 . S
H3119 C3128 0.929 . S
C3120 H3114 0.930 . S
C3120 C3121 1.367 . S
C3120 C3128 1.378 . S
C3121 C3120 1.367 . S
C3121 C3129 1.433 . S
C3122 H3118 0.929 . S
C3122 C3124 1.378 . S
C3122 C3126 1.350 . S
C3123 C3126 1.463 . S
C3123 C3128 1.350 . S
C3123 N3131 1.427 . S
C3124 H3115 0.930 . S
C3124 C3122 1.378 . S
C3124 C3125 1.367 . S
C3125 C3124 1.367 . S
C3125 C3127 1.433 . S
C3126 C3122 1.350 . S
C3126 C3123 1.463 . S
C3126 N3130 1.427 . S
C3127 H3117 0.929 . S
C3127 C3125 1.433 . S
C3127 N3130 1.384 . S
C3128 H3119 0.929 . S
C3128 C3120 1.378 . S
C3128 C3123 1.350 . S
C3129 H3116 0.929 . S
C3129 C3121 1.433 . S
C3129 N3131 1.384 . S
N3130 C3126 1.427 . S
N3130 C3127 1.384 . S
N3131 C3123 1.427 . S
N3131 C3129 1.384 . S
H3132 C3138 0.930 . S
H3133 C3142 0.930 . S
H3134 C3147 0.929 . S
H3135 C3145 0.929 . S
H3136 C3140 0.929 . S
H3137 C3146 0.929 . S
C3138 H3132 0.930 . S
C3138 C3139 1.367 . S
C3138 C3146 1.378 . S
C3139 C3138 1.367 . S
C3139 C3147 1.433 . S
C3140 H3136 0.929 . S
C3140 C3142 1.378 . S
C3140 C3144 1.350 . S
C3141 C3144 1.463 . S
C3141 C3146 1.350 . S
C3141 N3149 1.427 . S
C3142 H3133 0.930 . S
C3142 C3140 1.378 . S
C3142 C3143 1.367 . S
C3143 C3142 1.367 . S
C3143 C3145 1.433 . S
C3144 C3140 1.350 . S
C3144 C3141 1.463 . S
C3144 N3148 1.427 . S
C3145 H3135 0.929 . S
C3145 C3143 1.433 . S
C3145 N3148 1.384 . S
C3146 H3137 0.929 . S
C3146 C3138 1.378 . S
C3146 C3141 1.350 . S
C3147 H3134 0.929 . S
C3147 C3139 1.433 . S
C3147 N3149 1.384 . S
N3148 C3144 1.427 . S
N3148 C3145 1.384 . S
N3149 C3141 1.427 . S
N3149 C3147 1.384 . S
H3150 C3156 0.930 . S
H3151 C3160 0.930 . S
H3152 C3165 0.929 . S
H3153 C3163 0.929 . S
H3154 C3158 0.929 . S
H3155 C3164 0.929 . S
C3156 H3150 0.930 . S
C3156 C3157 1.367 . S
C3156 C3164 1.378 . S
C3157 C3156 1.367 . S
C3157 C3165 1.433 . S
C3158 H3154 0.929 . S
C3158 C3160 1.378 . S
C3158 C3162 1.350 . S
C3159 C3162 1.463 . S
C3159 C3164 1.350 . S
C3159 N3167 1.427 . S
C3160 H3151 0.930 . S
C3160 C3158 1.378 . S
C3160 C3161 1.367 . S
C3161 C3160 1.367 . S
C3161 C3163 1.433 . S
C3162 C3158 1.350 . S
C3162 C3159 1.463 . S
C3162 N3166 1.427 . S
C3163 H3153 0.929 . S
C3163 C3161 1.433 . S
C3163 N3166 1.384 . S
C3164 H3155 0.929 . S
C3164 C3156 1.378 . S
C3164 C3159 1.350 . S
C3165 H3152 0.929 . S
C3165 C3157 1.433 . S
C3165 N3167 1.384 . S
N3166 C3162 1.427 . S
N3166 C3163 1.384 . S
N3167 C3159 1.427 . S
N3167 C3165 1.384 . S
H3168 C3174 0.930 . S
H3169 C3178 0.930 . S
H3170 C3183 0.929 . S
H3171 C3181 0.929 . S
H3172 C3176 0.929 . S
H3173 C3182 0.929 . S
C3174 H3168 0.930 . S
C3174 C3175 1.367 . S
C3174 C3182 1.378 . S
C3175 C3174 1.367 . S
C3175 C3183 1.433 . S
C3176 H3172 0.929 . S
C3176 C3178 1.378 . S
C3176 C3180 1.350 . S
C3177 C3180 1.463 . S
C3177 C3182 1.350 . S
C3177 N3185 1.427 . S
C3178 H3169 0.930 . S
C3178 C3176 1.378 . S
C3178 C3179 1.367 . S
C3179 C3178 1.367 . S
C3179 C3181 1.433 . S
C3180 C3176 1.350 . S
C3180 C3177 1.463 . S
C3180 N3184 1.427 . S
C3181 H3171 0.929 . S
C3181 C3179 1.433 . S
C3181 N3184 1.384 . S
C3182 H3173 0.929 . S
C3182 C3174 1.378 . S
C3182 C3177 1.350 . S
C3183 H3170 0.929 . S
C3183 C3175 1.433 . S
C3183 N3185 1.384 . S
N3184 C3180 1.427 . S
N3184 C3181 1.384 . S
N3185 C3177 1.427 . S
N3185 C3183 1.384 . S
H3186 C3192 0.930 . S
H3187 C3196 0.930 . S
H3188 C3201 0.929 . S
H3189 C3199 0.929 . S
H3190 C3194 0.929 . S
H3191 C3200 0.929 . S
C3192 H3186 0.930 . S
C3192 C3193 1.367 . S
C3192 C3200 1.378 . S
C3193 C3192 1.367 . S
C3193 C3201 1.433 . S
C3194 H3190 0.929 . S
C3194 C3196 1.378 . S
C3194 C3198 1.350 . S
C3195 C3198 1.463 . S
C3195 C3200 1.350 . S
C3195 N3203 1.427 . S
C3196 H3187 0.930 . S
C3196 C3194 1.378 . S
C3196 C3197 1.367 . S
C3197 C3196 1.367 . S
C3197 C3199 1.433 . S
C3198 C3194 1.350 . S
C3198 C3195 1.463 . S
C3198 N3202 1.427 . S
C3199 H3189 0.929 . S
C3199 C3197 1.433 . S
C3199 N3202 1.384 . S
C3200 H3191 0.929 . S
C3200 C3192 1.378 . S
C3200 C3195 1.350 . S
C3201 H3188 0.929 . S
C3201 C3193 1.433 . S
C3201 N3203 1.384 . S
N3202 C3198 1.427 . S
N3202 C3199 1.384 . S
N3203 C3195 1.427 . S
N3203 C3201 1.384 . S
H3204 C3210 0.930 . S
H3205 C3214 0.930 . S
H3206 C3219 0.929 . S
H3207 C3217 0.929 . S
H3208 C3212 0.929 . S
H3209 C3218 0.929 . S
C3210 H3204 0.930 . S
C3210 C3211 1.367 . S
C3210 C3218 1.378 . S
C3211 C3210 1.367 . S
C3211 C3219 1.433 . S
C3212 H3208 0.929 . S
C3212 C3214 1.378 . S
C3212 C3216 1.350 . S
C3213 C3216 1.463 . S
C3213 C3218 1.350 . S
C3213 N3221 1.427 . S
C3214 H3205 0.930 . S
C3214 C3212 1.378 . S
C3214 C3215 1.367 . S
C3215 C3214 1.367 . S
C3215 C3217 1.433 . S
C3216 C3212 1.350 . S
C3216 C3213 1.463 . S
C3216 N3220 1.427 . S
C3217 H3207 0.929 . S
C3217 C3215 1.433 . S
C3217 N3220 1.384 . S
C3218 H3209 0.929 . S
C3218 C3210 1.378 . S
C3218 C3213 1.350 . S
C3219 H3206 0.929 . S
C3219 C3211 1.433 . S
C3219 N3221 1.384 . S
N3220 C3216 1.427 . S
N3220 C3217 1.384 . S
N3221 C3213 1.427 . S
N3221 C3219 1.384 . S
H3222 C3228 0.930 . S
H3223 C3232 0.930 . S
H3224 C3237 0.929 . S
H3225 C3235 0.929 . S
H3226 C3230 0.929 . S
H3227 C3236 0.929 . S
C3228 H3222 0.930 . S
C3228 C3229 1.367 . S
C3228 C3236 1.378 . S
C3229 C3228 1.367 . S
C3229 C3237 1.433 . S
C3230 H3226 0.929 . S
C3230 C3232 1.378 . S
C3230 C3234 1.350 . S
C3231 C3234 1.463 . S
C3231 C3236 1.350 . S
C3231 N3239 1.427 . S
C3232 H3223 0.930 . S
C3232 C3230 1.378 . S
C3232 C3233 1.367 . S
C3233 C3232 1.367 . S
C3233 C3235 1.433 . S
C3234 C3230 1.350 . S
C3234 C3231 1.463 . S
C3234 N3238 1.427 . S
C3235 H3225 0.929 . S
C3235 C3233 1.433 . S
C3235 N3238 1.384 . S
C3236 H3227 0.929 . S
C3236 C3228 1.378 . S
C3236 C3231 1.350 . S
C3237 H3224 0.929 . S
C3237 C3229 1.433 . S
C3237 N3239 1.384 . S
N3238 C3234 1.427 . S
N3238 C3235 1.384 . S
N3239 C3231 1.427 . S
N3239 C3237 1.384 . S
H3240 C3246 0.930 . S
H3241 C3250 0.930 . S
H3242 C3255 0.929 . S
H3243 C3253 0.929 . S
H3244 C3248 0.929 . S
H3245 C3254 0.929 . S
C3246 H3240 0.930 . S
C3246 C3247 1.367 . S
C3246 C3254 1.378 . S
C3247 C3246 1.367 . S
C3247 C3255 1.433 . S
C3248 H3244 0.929 . S
C3248 C3250 1.378 . S
C3248 C3252 1.350 . S
C3249 C3252 1.463 . S
C3249 C3254 1.350 . S
C3249 N3257 1.427 . S
C3250 H3241 0.930 . S
C3250 C3248 1.378 . S
C3250 C3251 1.367 . S
C3251 C3250 1.367 . S
C3251 C3253 1.433 . S
C3252 C3248 1.350 . S
C3252 C3249 1.463 . S
C3252 N3256 1.427 . S
C3253 H3243 0.929 . S
C3253 C3251 1.433 . S
C3253 N3256 1.384 . S
C3254 H3245 0.929 . S
C3254 C3246 1.378 . S
C3254 C3249 1.350 . S
C3255 H3242 0.929 . S
C3255 C3247 1.433 . S
C3255 N3257 1.384 . S
N3256 C3252 1.427 . S
N3256 C3253 1.384 . S
N3257 C3249 1.427 . S
N3257 C3255 1.384 . S
H3258 C3264 0.930 . S
H3259 C3268 0.930 . S
H3260 C3273 0.929 . S
H3261 C3271 0.929 . S
H3262 C3266 0.929 . S
H3263 C3272 0.929 . S
C3264 H3258 0.930 . S
C3264 C3265 1.367 . S
C3264 C3272 1.378 . S
C3265 C3264 1.367 . S
C3265 C3273 1.433 . S
C3266 H3262 0.929 . S
C3266 C3268 1.378 . S
C3266 C3270 1.350 . S
C3267 C3270 1.463 . S
C3267 C3272 1.350 . S
C3267 N3275 1.427 . S
C3268 H3259 0.930 . S
C3268 C3266 1.378 . S
C3268 C3269 1.367 . S
C3269 C3268 1.367 . S
C3269 C3271 1.433 . S
C3270 C3266 1.350 . S
C3270 C3267 1.463 . S
C3270 N3274 1.427 . S
C3271 H3261 0.929 . S
C3271 C3269 1.433 . S
C3271 N3274 1.384 . S
C3272 H3263 0.929 . S
C3272 C3264 1.378 . S
C3272 C3267 1.350 . S
C3273 H3260 0.929 . S
C3273 C3265 1.433 . S
C3273 N3275 1.384 . S
N3274 C3270 1.427 . S
N3274 C3271 1.384 . S
N3275 C3267 1.427 . S
N3275 C3273 1.384 . S
H3276 C3282 0.930 . S
H3277 C3286 0.930 . S
H3278 C3291 0.929 . S
H3279 C3289 0.929 . S
H3280 C3284 0.929 . S
H3281 C3290 0.929 . S
C3282 H3276 0.930 . S
C3282 C3283 1.367 . S
C3282 C3290 1.378 . S
C3283 C3282 1.367 . S
C3283 C3291 1.433 . S
C3284 H3280 0.929 . S
C3284 C3286 1.378 . S
C3284 C3288 1.350 . S
C3285 C3288 1.463 . S
C3285 C3290 1.350 . S
C3285 N3293 1.427 . S
C3286 H3277 0.930 . S
C3286 C3284 1.378 . S
C3286 C3287 1.367 . S
C3287 C3286 1.367 . S
C3287 C3289 1.433 . S
C3288 C3284 1.350 . S
C3288 C3285 1.463 . S
C3288 N3292 1.427 . S
C3289 H3279 0.929 . S
C3289 C3287 1.433 . S
C3289 N3292 1.384 . S
C3290 H3281 0.929 . S
C3290 C3282 1.378 . S
C3290 C3285 1.350 . S
C3291 H3278 0.929 . S
C3291 C3283 1.433 . S
C3291 N3293 1.384 . S
N3292 C3288 1.427 . S
N3292 C3289 1.384 . S
N3293 C3285 1.427 . S
N3293 C3291 1.384 . S
H3294 C3300 0.930 . S
H3295 C3304 0.930 . S
H3296 C3309 0.929 . S
H3297 C3307 0.929 . S
H3298 C3302 0.929 . S
H3299 C3308 0.929 . S
C3300 H3294 0.930 . S
C3300 C3301 1.367 . S
C3300 C3308 1.378 . S
C3301 C3300 1.367 . S
C3301 C3309 1.433 . S
C3302 H3298 0.929 . S
C3302 C3304 1.378 . S
C3302 C3306 1.350 . S
C3303 C3306 1.463 . S
C3303 C3308 1.350 . S
C3303 N3311 1.427 . S
C3304 H3295 0.930 . S
C3304 C3302 1.378 . S
C3304 C3305 1.367 . S
C3305 C3304 1.367 . S
C3305 C3307 1.433 . S
C3306 C3302 1.350 . S
C3306 C3303 1.463 . S
C3306 N3310 1.427 . S
C3307 H3297 0.929 . S
C3307 C3305 1.433 . S
C3307 N3310 1.384 . S
C3308 H3299 0.929 . S
C3308 C3300 1.378 . S
C3308 C3303 1.350 . S
C3309 H3296 0.929 . S
C3309 C3301 1.433 . S
C3309 N3311 1.384 . S
N3310 C3306 1.427 . S
N3310 C3307 1.384 . S
N3311 C3303 1.427 . S
N3311 C3309 1.384 . S
H3312 C3318 0.930 . S
H3313 C3322 0.930 . S
H3314 C3327 0.929 . S
H3315 C3325 0.929 . S
H3316 C3320 0.929 . S
H3317 C3326 0.929 . S
C3318 H3312 0.930 . S
C3318 C3319 1.367 . S
C3318 C3326 1.378 . S
C3319 C3318 1.367 . S
C3319 C3327 1.433 . S
C3320 H3316 0.929 . S
C3320 C3322 1.378 . S
C3320 C3324 1.350 . S
C3321 C3324 1.463 . S
C3321 C3326 1.350 . S
C3321 N3329 1.427 . S
C3322 H3313 0.930 . S
C3322 C3320 1.378 . S
C3322 C3323 1.367 . S
C3323 C3322 1.367 . S
C3323 C3325 1.433 . S
C3324 C3320 1.350 . S
C3324 C3321 1.463 . S
C3324 N3328 1.427 . S
C3325 H3315 0.929 . S
C3325 C3323 1.433 . S
C3325 N3328 1.384 . S
C3326 H3317 0.929 . S
C3326 C3318 1.378 . S
C3326 C3321 1.350 . S
C3327 H3314 0.929 . S
C3327 C3319 1.433 . S
C3327 N3329 1.384 . S
N3328 C3324 1.427 . S
N3328 C3325 1.384 . S
N3329 C3321 1.427 . S
N3329 C3327 1.384 . S
H3330 C3336 0.930 . S
H3331 C3340 0.930 . S
H3332 C3345 0.929 . S
H3333 C3343 0.929 . S
H3334 C3338 0.929 . S
H3335 C3344 0.929 . S
C3336 H3330 0.930 . S
C3336 C3337 1.367 . S
C3336 C3344 1.378 . S
C3337 C3336 1.367 . S
C3337 C3345 1.433 . S
C3338 H3334 0.929 . S
C3338 C3340 1.378 . S
C3338 C3342 1.350 . S
C3339 C3342 1.463 . S
C3339 C3344 1.350 . S
C3339 N3347 1.427 . S
C3340 H3331 0.930 . S
C3340 C3338 1.378 . S
C3340 C3341 1.367 . S
C3341 C3340 1.367 . S
C3341 C3343 1.433 . S
C3342 C3338 1.350 . S
C3342 C3339 1.463 . S
C3342 N3346 1.427 . S
C3343 H3333 0.929 . S
C3343 C3341 1.433 . S
C3343 N3346 1.384 . S
C3344 H3335 0.929 . S
C3344 C3336 1.378 . S
C3344 C3339 1.350 . S
C3345 H3332 0.929 . S
C3345 C3337 1.433 . S
C3345 N3347 1.384 . S
N3346 C3342 1.427 . S
N3346 C3343 1.384 . S
N3347 C3339 1.427 . S
N3347 C3345 1.384 . S
H3348 C3354 0.930 . S
H3349 C3358 0.930 . S
H3350 C3363 0.929 . S
H3351 C3361 0.929 . S
H3352 C3356 0.929 . S
H3353 C3362 0.929 . S
C3354 H3348 0.930 . S
C3354 C3355 1.367 . S
C3354 C3362 1.378 . S
C3355 C3354 1.367 . S
C3355 C3363 1.433 . S
C3356 H3352 0.929 . S
C3356 C3358 1.378 . S
C3356 C3360 1.350 . S
C3357 C3360 1.463 . S
C3357 C3362 1.350 . S
C3357 N3365 1.427 . S
C3358 H3349 0.930 . S
C3358 C3356 1.378 . S
C3358 C3359 1.367 . S
C3359 C3358 1.367 . S
C3359 C3361 1.433 . S
C3360 C3356 1.350 . S
C3360 C3357 1.463 . S
C3360 N3364 1.427 . S
C3361 H3351 0.929 . S
C3361 C3359 1.433 . S
C3361 N3364 1.384 . S
C3362 H3353 0.929 . S
C3362 C3354 1.378 . S
C3362 C3357 1.350 . S
C3363 H3350 0.929 . S
C3363 C3355 1.433 . S
C3363 N3365 1.384 . S
N3364 C3360 1.427 . S
N3364 C3361 1.384 . S
N3365 C3357 1.427 . S
N3365 C3363 1.384 . S
H3366 C3372 0.930 . S
H3367 C3376 0.930 . S
H3368 C3381 0.929 . S
H3369 C3379 0.929 . S
H3370 C3374 0.929 . S
H3371 C3380 0.929 . S
C3372 H3366 0.930 . S
C3372 C3373 1.367 . S
C3372 C3380 1.378 . S
C3373 C3372 1.367 . S
C3373 C3381 1.433 . S
C3374 H3370 0.929 . S
C3374 C3376 1.378 . S
C3374 C3378 1.350 . S
C3375 C3378 1.463 . S
C3375 C3380 1.350 . S
C3375 N3383 1.427 . S
C3376 H3367 0.930 . S
C3376 C3374 1.378 . S
C3376 C3377 1.367 . S
C3377 C3376 1.367 . S
C3377 C3379 1.433 . S
C3378 C3374 1.350 . S
C3378 C3375 1.463 . S
C3378 N3382 1.427 . S
C3379 H3369 0.929 . S
C3379 C3377 1.433 . S
C3379 N3382 1.384 . S
C3380 H3371 0.929 . S
C3380 C3372 1.378 . S
C3380 C3375 1.350 . S
C3381 H3368 0.929 . S
C3381 C3373 1.433 . S
C3381 N3383 1.384 . S
N3382 C3378 1.427 . S
N3382 C3379 1.384 . S
N3383 C3375 1.427 . S
N3383 C3381 1.384 . S
H3384 C3390 0.930 . S
H3385 C3394 0.930 . S
H3386 C3399 0.929 . S
H3387 C3397 0.929 . S
H3388 C3392 0.929 . S
H3389 C3398 0.929 . S
C3390 H3384 0.930 . S
C3390 C3391 1.367 . S
C3390 C3398 1.378 . S
C3391 C3390 1.367 . S
C3391 C3399 1.433 . S
C3392 H3388 0.929 . S
C3392 C3394 1.378 . S
C3392 C3396 1.350 . S
C3393 C3396 1.463 . S
C3393 C3398 1.350 . S
C3393 N3401 1.427 . S
C3394 H3385 0.930 . S
C3394 C3392 1.378 . S
C3394 C3395 1.367 . S
C3395 C3394 1.367 . S
C3395 C3397 1.433 . S
C3396 C3392 1.350 . S
C3396 C3393 1.463 . S
C3396 N3400 1.427 . S
C3397 H3387 0.929 . S
C3397 C3395 1.433 . S
C3397 N3400 1.384 . S
C3398 H3389 0.929 . S
C3398 C3390 1.378 . S
C3398 C3393 1.350 . S
C3399 H3386 0.929 . S
C3399 C3391 1.433 . S
C3399 N3401 1.384 . S
N3400 C3396 1.427 . S
N3400 C3397 1.384 . S
N3401 C3393 1.427 . S
N3401 C3399 1.384 . S
H3402 C3408 0.930 . S
H3403 C3412 0.930 . S
H3404 C3417 0.929 . S
H3405 C3415 0.929 . S
H3406 C3410 0.929 . S
H3407 C3416 0.929 . S
C3408 H3402 0.930 . S
C3408 C3409 1.367 . S
C3408 C3416 1.378 . S
C3409 C3408 1.367 . S
C3409 C3417 1.433 . S
C3410 H3406 0.929 . S
C3410 C3412 1.378 . S
C3410 C3414 1.350 . S
C3411 C3414 1.463 . S
C3411 C3416 1.350 . S
C3411 N3419 1.427 . S
C3412 H3403 0.930 . S
C3412 C3410 1.378 . S
C3412 C3413 1.367 . S
C3413 C3412 1.367 . S
C3413 C3415 1.433 . S
C3414 C3410 1.350 . S
C3414 C3411 1.463 . S
C3414 N3418 1.427 . S
C3415 H3405 0.929 . S
C3415 C3413 1.433 . S
C3415 N3418 1.384 . S
C3416 H3407 0.929 . S
C3416 C3408 1.378 . S
C3416 C3411 1.350 . S
C3417 H3404 0.929 . S
C3417 C3409 1.433 . S
C3417 N3419 1.384 . S
N3418 C3414 1.427 . S
N3418 C3415 1.384 . S
N3419 C3411 1.427 . S
N3419 C3417 1.384 . S
H3420 C3426 0.930 . S
H3421 C3430 0.930 . S
H3422 C3435 0.929 . S
H3423 C3433 0.929 . S
H3424 C3428 0.929 . S
H3425 C3434 0.929 . S
C3426 H3420 0.930 . S
C3426 C3427 1.367 . S
C3426 C3434 1.378 . S
C3427 C3426 1.367 . S
C3427 C3435 1.433 . S
C3428 H3424 0.929 . S
C3428 C3430 1.378 . S
C3428 C3432 1.350 . S
C3429 C3432 1.463 . S
C3429 C3434 1.350 . S
C3429 N3437 1.427 . S
C3430 H3421 0.930 . S
C3430 C3428 1.378 . S
C3430 C3431 1.367 . S
C3431 C3430 1.367 . S
C3431 C3433 1.433 . S
C3432 C3428 1.350 . S
C3432 C3429 1.463 . S
C3432 N3436 1.427 . S
C3433 H3423 0.929 . S
C3433 C3431 1.433 . S
C3433 N3436 1.384 . S
C3434 H3425 0.929 . S
C3434 C3426 1.378 . S
C3434 C3429 1.350 . S
C3435 H3422 0.929 . S
C3435 C3427 1.433 . S
C3435 N3437 1.384 . S
N3436 C3432 1.427 . S
N3436 C3433 1.384 . S
N3437 C3429 1.427 . S
N3437 C3435 1.384 . S
H3438 C3444 0.930 . S
H3439 C3448 0.930 . S
H3440 C3453 0.929 1_554 S
H3441 C3451 0.929 . S
H3442 C3446 0.929 . S
H3443 C3452 0.929 . S
C3444 H3438 0.930 . S
C3444 C3445 1.367 . S
C3444 C3452 1.378 . S
C3445 C3444 1.367 . S
C3445 C3453 1.433 . S
C3446 H3442 0.929 . S
C3446 C3448 1.378 . S
C3446 C3450 1.350 . S
C3447 C3450 1.463 . S
C3447 C3452 1.350 . S
C3447 N3455 1.427 . S
C3448 H3439 0.930 . S
C3448 C3446 1.378 . S
C3448 C3449 1.367 . S
C3449 C3448 1.367 . S
C3449 C3451 1.433 . S
C3450 C3446 1.350 . S
C3450 C3447 1.463 . S
C3450 N3454 1.427 . S
C3451 H3441 0.929 . S
C3451 C3449 1.433 . S
C3451 N3454 1.384 . S
C3452 H3443 0.929 . S
C3452 C3444 1.378 . S
C3452 C3447 1.350 . S
C3453 H3440 0.929 1_556 S
C3453 C3445 1.433 . S
C3453 N3455 1.384 . S
N3454 C3450 1.427 . S
N3454 C3451 1.384 . S
N3455 C3447 1.427 . S
N3455 C3453 1.384 . S
H3456 C3462 0.930 . S
H3457 C3466 0.930 . S
H3458 C3471 0.929 1_554 S
H3459 C3469 0.929 . S
H3460 C3464 0.929 . S
H3461 C3470 0.929 . S
C3462 H3456 0.930 . S
C3462 C3463 1.367 . S
C3462 C3470 1.378 . S
C3463 C3462 1.367 . S
C3463 C3471 1.433 . S
C3464 H3460 0.929 . S
C3464 C3466 1.378 . S
C3464 C3468 1.350 . S
C3465 C3468 1.463 . S
C3465 C3470 1.350 . S
C3465 N3473 1.427 . S
C3466 H3457 0.930 . S
C3466 C3464 1.378 . S
C3466 C3467 1.367 . S
C3467 C3466 1.367 . S
C3467 C3469 1.433 . S
C3468 C3464 1.350 . S
C3468 C3465 1.463 . S
C3468 N3472 1.427 . S
C3469 H3459 0.929 . S
C3469 C3467 1.433 . S
C3469 N3472 1.384 . S
C3470 H3461 0.929 . S
C3470 C3462 1.378 . S
C3470 C3465 1.350 . S
C3471 H3458 0.929 1_556 S
C3471 C3463 1.433 . S
C3471 N3473 1.384 . S
N3472 C3468 1.427 . S
N3472 C3469 1.384 . S
N3473 C3465 1.427 . S
N3473 C3471 1.384 . S
H3474 C3480 0.930 . S
H3475 C3484 0.930 . S
H3476 C3489 0.929 . S
H3477 C3487 0.929 . S
H3478 C3482 0.929 . S
H3479 C3488 0.929 . S
C3480 H3474 0.930 . S
C3480 C3481 1.367 . S
C3480 C3488 1.378 . S
C3481 C3480 1.367 . S
C3481 C3489 1.433 . S
C3482 H3478 0.929 . S
C3482 C3484 1.378 . S
C3482 C3486 1.350 . S
C3483 C3486 1.463 . S
C3483 C3488 1.350 . S
C3483 N3491 1.427 . S
C3484 H3475 0.930 . S
C3484 C3482 1.378 . S
C3484 C3485 1.367 . S
C3485 C3484 1.367 . S
C3485 C3487 1.433 . S
C3486 C3482 1.350 . S
C3486 C3483 1.463 . S
C3486 N3490 1.427 . S
C3487 H3477 0.929 . S
C3487 C3485 1.433 . S
C3487 N3490 1.384 . S
C3488 H3479 0.929 . S
C3488 C3480 1.378 . S
C3488 C3483 1.350 . S
C3489 H3476 0.929 . S
C3489 C3481 1.433 . S
C3489 N3491 1.384 . S
N3490 C3486 1.427 . S
N3490 C3487 1.384 . S
N3491 C3483 1.427 . S
N3491 C3489 1.384 . S
H3492 C3498 0.930 . S
H3493 C3502 0.930 . S
H3494 C3507 0.929 . S
H3495 C3505 0.929 . S
H3496 C3500 0.929 . S
H3497 C3506 0.929 . S
C3498 H3492 0.930 . S
C3498 C3499 1.367 . S
C3498 C3506 1.378 . S
C3499 C3498 1.367 . S
C3499 C3507 1.433 . S
C3500 H3496 0.929 . S
C3500 C3502 1.378 . S
C3500 C3504 1.350 . S
C3501 C3504 1.463 . S
C3501 C3506 1.350 . S
C3501 N3509 1.427 . S
C3502 H3493 0.930 . S
C3502 C3500 1.378 . S
C3502 C3503 1.367 . S
C3503 C3502 1.367 . S
C3503 C3505 1.433 . S
C3504 C3500 1.350 . S
C3504 C3501 1.463 . S
C3504 N3508 1.427 . S
C3505 H3495 0.929 . S
C3505 C3503 1.433 . S
C3505 N3508 1.384 . S
C3506 H3497 0.929 . S
C3506 C3498 1.378 . S
C3506 C3501 1.350 . S
C3507 H3494 0.929 . S
C3507 C3499 1.433 . S
C3507 N3509 1.384 . S
N3508 C3504 1.427 . S
N3508 C3505 1.384 . S
N3509 C3501 1.427 . S
N3509 C3507 1.384 . S
H3510 C3516 0.930 . S
H3511 C3520 0.930 . S
H3512 C3525 0.929 . S
H3513 C3523 0.929 . S
H3514 C3518 0.929 . S
H3515 C3524 0.929 . S
C3516 H3510 0.930 . S
C3516 C3517 1.367 . S
C3516 C3524 1.378 . S
C3517 C3516 1.367 . S
C3517 C3525 1.433 . S
C3518 H3514 0.929 . S
C3518 C3520 1.378 . S
C3518 C3522 1.350 . S
C3519 C3522 1.463 . S
C3519 C3524 1.350 . S
C3519 N3527 1.427 . S
C3520 H3511 0.930 . S
C3520 C3518 1.378 . S
C3520 C3521 1.367 . S
C3521 C3520 1.367 . S
C3521 C3523 1.433 . S
C3522 C3518 1.350 . S
C3522 C3519 1.463 . S
C3522 N3526 1.427 . S
C3523 H3513 0.929 . S
C3523 C3521 1.433 . S
C3523 N3526 1.384 . S
C3524 H3515 0.929 . S
C3524 C3516 1.378 . S
C3524 C3519 1.350 . S
C3525 H3512 0.929 . S
C3525 C3517 1.433 . S
C3525 N3527 1.384 . S
N3526 C3522 1.427 . S
N3526 C3523 1.384 . S
N3527 C3519 1.427 . S
N3527 C3525 1.384 . S
H3528 C3534 0.930 . S
H3529 C3538 0.930 . S
H3530 C3543 0.929 . S
H3531 C3541 0.929 . S
H3532 C3536 0.929 . S
H3533 C3542 0.929 . S
C3534 H3528 0.930 . S
C3534 C3535 1.367 . S
C3534 C3542 1.378 . S
C3535 C3534 1.367 . S
C3535 C3543 1.433 . S
C3536 H3532 0.929 . S
C3536 C3538 1.378 . S
C3536 C3540 1.350 . S
C3537 C3540 1.463 . S
C3537 C3542 1.350 . S
C3537 N3545 1.427 . S
C3538 H3529 0.930 . S
C3538 C3536 1.378 . S
C3538 C3539 1.367 . S
C3539 C3538 1.367 . S
C3539 C3541 1.433 . S
C3540 C3536 1.350 . S
C3540 C3537 1.463 . S
C3540 N3544 1.427 . S
C3541 H3531 0.929 . S
C3541 C3539 1.433 . S
C3541 N3544 1.384 . S
C3542 H3533 0.929 . S
C3542 C3534 1.378 . S
C3542 C3537 1.350 . S
C3543 H3530 0.929 . S
C3543 C3535 1.433 . S
C3543 N3545 1.384 . S
N3544 C3540 1.427 . S
N3544 C3541 1.384 . S
N3545 C3537 1.427 . S
N3545 C3543 1.384 . S
H3546 C3552 0.930 . S
H3547 C3556 0.930 . S
H3548 C3561 0.929 . S
H3549 C3559 0.929 . S
H3550 C3554 0.929 . S
H3551 C3560 0.929 . S
C3552 H3546 0.930 . S
C3552 C3553 1.367 . S
C3552 C3560 1.378 . S
C3553 C3552 1.367 . S
C3553 C3561 1.433 . S
C3554 H3550 0.929 . S
C3554 C3556 1.378 . S
C3554 C3558 1.350 . S
C3555 C3558 1.463 . S
C3555 C3560 1.350 . S
C3555 N3563 1.427 . S
C3556 H3547 0.930 . S
C3556 C3554 1.378 . S
C3556 C3557 1.367 . S
C3557 C3556 1.367 . S
C3557 C3559 1.433 . S
C3558 C3554 1.350 . S
C3558 C3555 1.463 . S
C3558 N3562 1.427 . S
C3559 H3549 0.929 . S
C3559 C3557 1.433 . S
C3559 N3562 1.384 . S
C3560 H3551 0.929 . S
C3560 C3552 1.378 . S
C3560 C3555 1.350 . S
C3561 H3548 0.929 . S
C3561 C3553 1.433 . S
C3561 N3563 1.384 . S
N3562 C3558 1.427 . S
N3562 C3559 1.384 . S
N3563 C3555 1.427 . S
N3563 C3561 1.384 . S
H3564 C3570 0.930 . S
H3565 C3574 0.930 . S
H3566 C3579 0.929 . S
H3567 C3577 0.929 . S
H3568 C3572 0.929 . S
H3569 C3578 0.929 . S
C3570 H3564 0.930 . S
C3570 C3571 1.367 . S
C3570 C3578 1.378 . S
C3571 C3570 1.367 . S
C3571 C3579 1.433 . S
C3572 H3568 0.929 . S
C3572 C3574 1.378 . S
C3572 C3576 1.350 . S
C3573 C3576 1.463 . S
C3573 C3578 1.350 . S
C3573 N3581 1.427 . S
C3574 H3565 0.930 . S
C3574 C3572 1.378 . S
C3574 C3575 1.367 . S
C3575 C3574 1.367 . S
C3575 C3577 1.433 . S
C3576 C3572 1.350 . S
C3576 C3573 1.463 . S
C3576 N3580 1.427 . S
C3577 H3567 0.929 . S
C3577 C3575 1.433 . S
C3577 N3580 1.384 . S
C3578 H3569 0.929 . S
C3578 C3570 1.378 . S
C3578 C3573 1.350 . S
C3579 H3566 0.929 . S
C3579 C3571 1.433 . S
C3579 N3581 1.384 . S
N3580 C3576 1.427 . S
N3580 C3577 1.384 . S
N3581 C3573 1.427 . S
N3581 C3579 1.384 . S
H3582 C3588 0.930 . S
H3583 C3592 0.930 . S
H3584 C3597 0.929 . S
H3585 C3595 0.929 . S
H3586 C3590 0.929 . S
H3587 C3596 0.929 . S
C3588 H3582 0.930 . S
C3588 C3589 1.367 . S
C3588 C3596 1.378 . S
C3589 C3588 1.367 . S
C3589 C3597 1.433 . S
C3590 H3586 0.929 . S
C3590 C3592 1.378 . S
C3590 C3594 1.350 . S
C3591 C3594 1.463 . S
C3591 C3596 1.350 . S
C3591 N3599 1.427 . S
C3592 H3583 0.930 . S
C3592 C3590 1.378 . S
C3592 C3593 1.367 . S
C3593 C3592 1.367 . S
C3593 C3595 1.433 . S
C3594 C3590 1.350 . S
C3594 C3591 1.463 . S
C3594 N3598 1.427 . S
C3595 H3585 0.929 . S
C3595 C3593 1.433 . S
C3595 N3598 1.384 . S
C3596 H3587 0.929 . S
C3596 C3588 1.378 . S
C3596 C3591 1.350 . S
C3597 H3584 0.929 . S
C3597 C3589 1.433 . S
C3597 N3599 1.384 . S
N3598 C3594 1.427 . S
N3598 C3595 1.384 . S
N3599 C3591 1.427 . S
N3599 C3597 1.384 . S
H3600 C3606 0.930 . S
H3601 C3610 0.930 . S
H3602 C3615 0.929 . S
H3603 C3613 0.929 . S
H3604 C3608 0.929 . S
H3605 C3614 0.929 . S
C3606 H3600 0.930 . S
C3606 C3607 1.367 . S
C3606 C3614 1.378 . S
C3607 C3606 1.367 . S
C3607 C3615 1.433 . S
C3608 H3604 0.929 . S
C3608 C3610 1.378 . S
C3608 C3612 1.350 . S
C3609 C3612 1.463 . S
C3609 C3614 1.350 . S
C3609 N3617 1.427 . S
C3610 H3601 0.930 . S
C3610 C3608 1.378 . S
C3610 C3611 1.367 . S
C3611 C3610 1.367 . S
C3611 C3613 1.433 . S
C3612 C3608 1.350 . S
C3612 C3609 1.463 . S
C3612 N3616 1.427 . S
C3613 H3603 0.929 . S
C3613 C3611 1.433 . S
C3613 N3616 1.384 . S
C3614 H3605 0.929 . S
C3614 C3606 1.378 . S
C3614 C3609 1.350 . S
C3615 H3602 0.929 . S
C3615 C3607 1.433 . S
C3615 N3617 1.384 . S
N3616 C3612 1.427 . S
N3616 C3613 1.384 . S
N3617 C3609 1.427 . S
N3617 C3615 1.384 . S
H3618 C3624 0.930 . S
H3619 C3628 0.930 . S
H3620 C3633 0.929 . S
H3621 C3631 0.936 . S
H3622 C3626 0.929 . S
H3623 C3632 0.929 . S
C3624 H3618 0.930 . S
C3624 C3625 1.367 . S
C3624 C3632 1.378 . S
C3625 C3624 1.367 . S
C3625 C3633 1.433 . S
C3626 H3622 0.929 . S
C3626 C3628 1.378 . S
C3626 C3630 1.350 . S
C3627 C3630 1.463 . S
C3627 C3632 1.350 . S
C3627 N3635 1.427 . S
C3628 H3619 0.930 . S
C3628 C3626 1.378 . S
C3628 C3629 1.367 . S
C3629 C3628 1.367 . S
C3629 C3631 1.433 . S
C3630 C3626 1.350 . S
C3630 C3627 1.463 . S
C3630 N3634 1.427 . S
C3631 H3621 0.936 . S
C3631 C3629 1.433 . S
C3631 N3634 1.384 . S
C3632 H3623 0.929 . S
C3632 C3624 1.378 . S
C3632 C3627 1.350 . S
C3633 H3620 0.929 . S
C3633 C3625 1.433 . S
C3633 N3635 1.384 . S
N3634 C3630 1.427 . S
N3634 C3631 1.384 . S
N3635 C3627 1.427 . S
N3635 C3633 1.384 . S
H3636 C3642 0.930 . S
H3637 C3646 0.930 . S
H3638 C3651 0.929 . S
H3639 C3649 0.929 . S
H3640 C3644 0.929 . S
H3641 C3650 0.929 . S
C3642 H3636 0.930 . S
C3642 C3643 1.367 . S
C3642 C3650 1.378 . S
C3643 C3642 1.367 . S
C3643 C3651 1.433 . S
C3644 H3640 0.929 . S
C3644 C3646 1.378 . S
C3644 C3648 1.350 . S
C3645 C3648 1.463 . S
C3645 C3650 1.350 . S
C3645 N3653 1.427 . S
C3646 H3637 0.930 . S
C3646 C3644 1.378 . S
C3646 C3647 1.367 . S
C3647 C3646 1.367 . S
C3647 C3649 1.433 . S
C3648 C3644 1.350 . S
C3648 C3645 1.463 . S
C3648 N3652 1.427 . S
C3649 H3639 0.929 . S
C3649 C3647 1.433 . S
C3649 N3652 1.384 . S
C3650 H3641 0.929 . S
C3650 C3642 1.378 . S
C3650 C3645 1.350 . S
C3651 H3638 0.929 . S
C3651 C3643 1.433 . S
C3651 N3653 1.384 . S
N3652 C3648 1.427 . S
N3652 C3649 1.384 . S
N3653 C3645 1.427 . S
N3653 C3651 1.384 . S
H3654 C3660 0.930 . S
H3655 C3664 0.930 . S
H3656 C3669 0.929 . S
H3657 C3667 0.929 . S
H3658 C3662 0.929 . S
H3659 C3668 0.929 . S
C3660 H3654 0.930 . S
C3660 C3661 1.367 1_545 S
C3660 C3668 1.378 . S
C3661 C3660 1.367 1_565 S
C3661 C3669 1.433 . S
C3662 H3658 0.929 . S
C3662 C3664 1.378 . S
C3662 C3666 1.350 . S
C3663 C3666 1.463 . S
C3663 C3668 1.350 1_565 S
C3663 N3671 1.427 . S
C3664 H3655 0.930 . S
C3664 C3662 1.378 . S
C3664 C3665 1.367 . S
C3665 C3664 1.367 . S
C3665 C3667 1.433 1_565 S
C3666 C3662 1.350 . S
C3666 C3663 1.463 . S
C3666 N3670 1.427 1_565 S
C3667 H3657 0.929 . S
C3667 C3665 1.433 1_545 S
C3667 N3670 1.384 . S
C3668 H3659 0.929 . S
C3668 C3660 1.378 . S
C3668 C3663 1.350 1_545 S
C3669 H3656 0.929 . S
C3669 C3661 1.433 . S
C3669 N3671 1.384 . S
N3670 C3666 1.427 1_545 S
N3670 C3667 1.384 . S
N3671 C3663 1.427 . S
N3671 C3669 1.384 . S
H3672 C3678 0.930 . S
H3673 C3682 0.930 . S
H3674 C3687 0.929 . S
H3675 C3685 0.929 . S
H3676 C3680 0.929 . S
H3677 C3686 0.929 . S
C3678 H3672 0.930 . S
C3678 C3679 1.367 1_545 S
C3678 C3686 1.378 . S
C3679 C3678 1.367 1_565 S
C3679 C3687 1.433 . S
C3680 H3676 0.929 . S
C3680 C3682 1.378 . S
C3680 C3684 1.350 . S
C3681 C3684 1.463 . S
C3681 C3686 1.350 1_565 S
C3681 N3689 1.427 . S
C3682 H3673 0.930 . S
C3682 C3680 1.378 . S
C3682 C3683 1.367 . S
C3683 C3682 1.367 . S
C3683 C3685 1.433 1_565 S
C3684 C3680 1.350 . S
C3684 C3681 1.463 . S
C3684 N3688 1.427 1_565 S
C3685 H3675 0.929 . S
C3685 C3683 1.433 1_545 S
C3685 N3688 1.384 . S
C3686 H3677 0.929 . S
C3686 C3678 1.378 . S
C3686 C3681 1.350 1_545 S
C3687 H3674 0.929 . S
C3687 C3679 1.433 . S
C3687 N3689 1.384 . S
N3688 C3684 1.427 1_545 S
N3688 C3685 1.384 . S
N3689 C3681 1.427 . S
N3689 C3687 1.384 . S
H3690 C3696 0.930 . S
H3691 C3700 0.930 . S
H3692 C3705 0.929 1_655 S
H3693 C3703 0.929 . S
H3694 C3698 0.929 . S
H3695 C3704 0.929 . S
C3696 H3690 0.930 . S
C3696 C3697 1.367 . S
C3696 C3704 1.378 . S
C3697 C3696 1.367 . S
C3697 C3705 1.433 . S
C3698 H3694 0.929 . S
C3698 C3700 1.378 . S
C3698 C3702 1.350 1_655 S
C3699 C3702 1.463 . S
C3699 C3704 1.350 . S
C3699 N3707 1.412 1_455 S
C3700 H3691 0.930 . S
C3700 C3698 1.378 . S
C3700 C3701 1.328 1_655 S
C3701 C3700 1.328 1_455 S
C3701 C3703 1.452 . S
C3702 C3698 1.350 1_455 S
C3702 C3699 1.463 . S
C3702 N3706 1.427 . S
C3703 H3693 0.929 . S
C3703 C3701 1.452 . S
C3703 N3706 1.384 . S
C3704 H3695 0.929 . S
C3704 C3696 1.378 . S
C3704 C3699 1.350 . S
C3705 H3692 0.929 1_455 S
C3705 C3697 1.433 . S
C3705 N3707 1.394 1_455 S
N3706 C3702 1.427 . S
N3706 C3703 1.384 . S
N3707 C3699 1.412 1_655 S
N3707 C3705 1.394 1_655 S
H3708 C3714 0.930 . S
H3709 C3718 0.930 . S
H3710 C3723 0.929 . S
H3711 C3721 0.929 . S
H3712 C3716 0.929 . S
H3713 C3722 0.929 . S
C3714 H3708 0.930 . S
C3714 C3715 1.367 . S
C3714 C3722 1.378 . S
C3715 C3714 1.367 . S
C3715 C3723 1.433 . S
C3716 H3712 0.929 . S
C3716 C3718 1.378 . S
C3716 C3720 1.350 . S
C3717 C3720 1.463 . S
C3717 C3722 1.350 . S
C3717 N3725 1.427 . S
C3718 H3709 0.930 . S
C3718 C3716 1.378 . S
C3718 C3719 1.367 . S
C3719 C3718 1.367 . S
C3719 C3721 1.433 . S
C3720 C3716 1.350 . S
C3720 C3717 1.463 . S
C3720 N3724 1.427 . S
C3721 H3711 0.929 . S
C3721 C3719 1.433 . S
C3721 N3724 1.384 . S
C3722 H3713 0.929 . S
C3722 C3714 1.378 . S
C3722 C3717 1.350 . S
C3723 H3710 0.929 . S
C3723 C3715 1.433 . S
C3723 N3725 1.384 . S
N3724 C3720 1.427 . S
N3724 C3721 1.384 . S
N3725 C3717 1.427 . S
N3725 C3723 1.384 . S
H3726 C3732 0.930 . S
H3727 C3736 0.930 . S
H3728 C3741 0.929 . S
H3729 C3739 0.929 . S
H3730 C3734 0.929 . S
H3731 C3740 0.929 . S
C3732 H3726 0.930 . S
C3732 C3733 1.367 . S
C3732 C3740 1.378 . S
C3733 C3732 1.367 . S
C3733 C3741 1.433 . S
C3734 H3730 0.929 . S
C3734 C3736 1.378 . S
C3734 C3738 1.350 . S
C3735 C3738 1.463 . S
C3735 C3740 1.350 . S
C3735 N3743 1.427 . S
C3736 H3727 0.930 . S
C3736 C3734 1.378 . S
C3736 C3737 1.367 . S
C3737 C3736 1.367 . S
C3737 C3739 1.433 . S
C3738 C3734 1.350 . S
C3738 C3735 1.463 . S
C3738 N3742 1.427 . S
C3739 H3729 0.929 . S
C3739 C3737 1.433 . S
C3739 N3742 1.384 . S
C3740 H3731 0.929 . S
C3740 C3732 1.378 . S
C3740 C3735 1.350 . S
C3741 H3728 0.929 . S
C3741 C3733 1.433 . S
C3741 N3743 1.384 . S
N3742 C3738 1.427 . S
N3742 C3739 1.384 . S
N3743 C3735 1.427 . S
N3743 C3741 1.384 . S
H3744 C3750 0.930 . S
H3745 C3754 0.930 . S
H3746 C3759 0.929 . S
H3747 C3757 0.929 . S
H3748 C3752 0.929 . S
H3749 C3758 0.929 . S
C3750 H3744 0.930 . S
C3750 C3751 1.367 . S
C3750 C3758 1.378 . S
C3751 C3750 1.367 . S
C3751 C3759 1.433 . S
C3752 H3748 0.929 . S
C3752 C3754 1.378 . S
C3752 C3756 1.350 . S
C3753 C3756 1.463 . S
C3753 C3758 1.350 . S
C3753 N3761 1.427 . S
C3754 H3745 0.930 . S
C3754 C3752 1.378 . S
C3754 C3755 1.367 . S
C3755 C3754 1.367 . S
C3755 C3757 1.433 . S
C3756 C3752 1.350 . S
C3756 C3753 1.463 . S
C3756 N3760 1.427 . S
C3757 H3747 0.929 . S
C3757 C3755 1.433 . S
C3757 N3760 1.384 . S
C3758 H3749 0.929 . S
C3758 C3750 1.378 . S
C3758 C3753 1.350 . S
C3759 H3746 0.929 . S
C3759 C3751 1.433 . S
C3759 N3761 1.384 . S
N3760 C3756 1.427 . S
N3760 C3757 1.384 . S
N3761 C3753 1.427 . S
N3761 C3759 1.384 . S
H3762 C3768 0.930 . S
H3763 C3772 0.930 . S
H3764 C3777 0.929 . S
H3765 C3775 0.929 . S
H3766 C3770 0.929 . S
H3767 C3776 0.929 . S
C3768 H3762 0.930 . S
C3768 C3769 1.367 . S
C3768 C3776 1.378 . S
C3769 C3768 1.367 . S
C3769 C3777 1.433 . S
C3770 H3766 0.929 . S
C3770 C3772 1.378 . S
C3770 C3774 1.350 . S
C3771 C3774 1.463 . S
C3771 C3776 1.350 . S
C3771 N3779 1.427 . S
C3772 H3763 0.930 . S
C3772 C3770 1.378 . S
C3772 C3773 1.367 . S
C3773 C3772 1.367 . S
C3773 C3775 1.433 . S
C3774 C3770 1.350 . S
C3774 C3771 1.463 . S
C3774 N3778 1.427 . S
C3775 H3765 0.929 . S
C3775 C3773 1.433 . S
C3775 N3778 1.384 . S
C3776 H3767 0.929 . S
C3776 C3768 1.378 . S
C3776 C3771 1.350 . S
C3777 H3764 0.929 . S
C3777 C3769 1.433 . S
C3777 N3779 1.384 . S
N3778 C3774 1.427 . S
N3778 C3775 1.384 . S
N3779 C3771 1.427 . S
N3779 C3777 1.384 . S
H3780 C3786 0.930 1_565 S
H3781 C3790 0.930 . S
H3782 C3795 0.929 . S
H3783 C3793 0.929 . S
H3784 C3788 0.929 . S
H3785 C3794 0.917 1_565 S
C3786 H3780 0.930 1_545 S
C3786 C3787 1.367 . S
C3786 C3794 1.387 . S
C3787 C3786 1.367 . S
C3787 C3795 1.433 . S
C3788 H3784 0.929 . S
C3788 C3790 1.378 . S
C3788 C3792 1.350 . S
C3789 C3792 1.463 . S
C3789 C3794 1.353 . S
C3789 N3797 1.427 . S
C3790 H3781 0.930 . S
C3790 C3788 1.378 . S
C3790 C3791 1.367 . S
C3791 C3790 1.367 . S
C3791 C3793 1.433 1_545 S
C3792 C3788 1.350 . S
C3792 C3789 1.463 . S
C3792 N3796 1.427 1_545 S
C3793 H3783 0.929 . S
C3793 C3791 1.433 1_565 S
C3793 N3796 1.384 . S
C3794 H3785 0.917 1_545 S
C3794 C3786 1.387 . S
C3794 C3789 1.353 . S
C3795 H3782 0.929 . S
C3795 C3787 1.433 . S
C3795 N3797 1.384 . S
N3796 C3792 1.427 1_565 S
N3796 C3793 1.384 . S
N3797 C3789 1.427 . S
N3797 C3795 1.384 . S
H3798 C3804 0.930 . S
H3799 C3808 0.930 . S
H3800 C3813 0.929 . S
H3801 C3811 0.929 . S
H3802 C3806 0.929 . S
H3803 C3812 0.929 . S
C3804 H3798 0.930 . S
C3804 C3805 1.367 . S
C3804 C3812 1.378 . S
C3805 C3804 1.367 . S
C3805 C3813 1.433 . S
C3806 H3802 0.929 . S
C3806 C3808 1.378 . S
C3806 C3810 1.350 . S
C3807 C3810 1.463 . S
C3807 C3812 1.350 . S
C3807 N3815 1.427 . S
C3808 H3799 0.930 . S
C3808 C3806 1.378 . S
C3808 C3809 1.367 . S
C3809 C3808 1.367 . S
C3809 C3811 1.433 . S
C3810 C3806 1.350 . S
C3810 C3807 1.463 . S
C3810 N3814 1.427 . S
C3811 H3801 0.929 . S
C3811 C3809 1.433 . S
C3811 N3814 1.384 . S
C3812 H3803 0.929 . S
C3812 C3804 1.378 . S
C3812 C3807 1.350 . S
C3813 H3800 0.929 . S
C3813 C3805 1.433 . S
C3813 N3815 1.384 . S
N3814 C3810 1.427 . S
N3814 C3811 1.384 . S
N3815 C3807 1.427 . S
N3815 C3813 1.384 . S
H3816 C3822 0.930 . S
H3817 C3826 0.930 . S
H3818 C3831 0.929 . S
H3819 C3829 0.929 . S
H3820 C3824 0.929 . S
H3821 C3830 0.929 . S
C3822 H3816 0.930 . S
C3822 C3823 1.367 . S
C3822 C3830 1.378 . S
C3823 C3822 1.367 . S
C3823 C3831 1.433 . S
C3824 H3820 0.929 . S
C3824 C3826 1.378 . S
C3824 C3828 1.350 . S
C3825 C3828 1.463 . S
C3825 C3830 1.350 . S
C3825 N3833 1.427 . S
C3826 H3817 0.930 . S
C3826 C3824 1.378 . S
C3826 C3827 1.367 . S
C3827 C3826 1.367 . S
C3827 C3829 1.433 . S
C3828 C3824 1.350 . S
C3828 C3825 1.463 . S
C3828 N3832 1.427 . S
C3829 H3819 0.929 . S
C3829 C3827 1.433 . S
C3829 N3832 1.384 . S
C3830 H3821 0.929 . S
C3830 C3822 1.378 . S
C3830 C3825 1.350 . S
C3831 H3818 0.929 . S
C3831 C3823 1.433 . S
C3831 N3833 1.384 . S
N3832 C3828 1.427 . S
N3832 C3829 1.384 . S
N3833 C3825 1.427 . S
N3833 C3831 1.384 . S
H3834 C3840 0.930 . S
H3835 C3844 0.930 . S
H3836 C3849 0.929 . S
H3837 C3847 0.929 . S
H3838 C3842 0.929 . S
H3839 C3848 0.929 . S
C3840 H3834 0.930 . S
C3840 C3841 1.367 . S
C3840 C3848 1.378 . S
C3841 C3840 1.367 . S
C3841 C3849 1.433 . S
C3842 H3838 0.929 . S
C3842 C3844 1.378 . S
C3842 C3846 1.350 . S
C3843 C3846 1.463 . S
C3843 C3848 1.350 . S
C3843 N3851 1.427 . S
C3844 H3835 0.930 . S
C3844 C3842 1.378 . S
C3844 C3845 1.367 . S
C3845 C3844 1.367 . S
C3845 C3847 1.433 . S
C3846 C3842 1.350 . S
C3846 C3843 1.463 . S
C3846 N3850 1.427 . S
C3847 H3837 0.929 . S
C3847 C3845 1.433 . S
C3847 N3850 1.384 . S
C3848 H3839 0.929 . S
C3848 C3840 1.378 . S
C3848 C3843 1.350 . S
C3849 H3836 0.929 . S
C3849 C3841 1.433 . S
C3849 N3851 1.384 . S
N3850 C3846 1.427 . S
N3850 C3847 1.384 . S
N3851 C3843 1.427 . S
N3851 C3849 1.384 . S
H3852 C3858 0.930 . S
H3853 C3862 0.930 . S
H3854 C3867 0.929 . S
H3855 C3865 0.929 . S
H3856 C3860 0.929 . S
H3857 C3866 0.929 . S
C3858 H3852 0.930 . S
C3858 C3859 1.367 . S
C3858 C3866 1.378 . S
C3859 C3858 1.367 . S
C3859 C3867 1.433 . S
C3860 H3856 0.929 . S
C3860 C3862 1.378 . S
C3860 C3864 1.350 . S
C3861 C3864 1.463 . S
C3861 C3866 1.350 . S
C3861 N3869 1.427 . S
C3862 H3853 0.930 . S
C3862 C3860 1.378 . S
C3862 C3863 1.367 . S
C3863 C3862 1.367 . S
C3863 C3865 1.433 . S
C3864 C3860 1.350 . S
C3864 C3861 1.463 . S
C3864 N3868 1.427 . S
C3865 H3855 0.929 . S
C3865 C3863 1.433 . S
C3865 N3868 1.384 . S
C3866 H3857 0.929 . S
C3866 C3858 1.378 . S
C3866 C3861 1.350 . S
C3867 H3854 0.929 . S
C3867 C3859 1.433 . S
C3867 N3869 1.384 . S
N3868 C3864 1.427 . S
N3868 C3865 1.384 . S
N3869 C3861 1.427 . S
N3869 C3867 1.384 . S
H3870 C3876 0.930 . S
H3871 C3880 0.930 . S
H3872 C3885 0.929 . S
H3873 C3883 0.929 . S
H3874 C3878 0.929 . S
H3875 C3884 0.929 . S
C3876 H3870 0.930 . S
C3876 C3877 1.367 . S
C3876 C3884 1.378 . S
C3877 C3876 1.367 . S
C3877 C3885 1.433 . S
C3878 H3874 0.929 . S
C3878 C3880 1.378 . S
C3878 C3882 1.350 . S
C3879 C3882 1.463 . S
C3879 C3884 1.350 . S
C3879 N3887 1.427 . S
C3880 H3871 0.930 . S
C3880 C3878 1.378 . S
C3880 C3881 1.367 . S
C3881 C3880 1.367 . S
C3881 C3883 1.433 . S
C3882 C3878 1.350 . S
C3882 C3879 1.463 . S
C3882 N3886 1.427 . S
C3883 H3873 0.929 . S
C3883 C3881 1.433 . S
C3883 N3886 1.384 . S
C3884 H3875 0.929 . S
C3884 C3876 1.378 . S
C3884 C3879 1.350 . S
C3885 H3872 0.929 . S
C3885 C3877 1.433 . S
C3885 N3887 1.384 . S
N3886 C3882 1.427 . S
N3886 C3883 1.384 . S
N3887 C3879 1.427 . S
N3887 C3885 1.384 . S
H3888 C3894 0.930 . S
H3889 C3898 0.930 . S
H3890 C3903 0.929 . S
H3891 C3901 0.929 . S
H3892 C3896 0.929 . S
H3893 C3902 0.929 . S
C3894 H3888 0.930 . S
C3894 C3895 1.367 . S
C3894 C3902 1.378 . S
C3895 C3894 1.367 . S
C3895 C3903 1.433 . S
C3896 H3892 0.929 . S
C3896 C3898 1.378 . S
C3896 C3900 1.350 . S
C3897 C3900 1.463 . S
C3897 C3902 1.350 . S
C3897 N3905 1.427 . S
C3898 H3889 0.930 . S
C3898 C3896 1.378 . S
C3898 C3899 1.367 . S
C3899 C3898 1.367 . S
C3899 C3901 1.433 . S
C3900 C3896 1.350 . S
C3900 C3897 1.463 . S
C3900 N3904 1.427 . S
C3901 H3891 0.929 . S
C3901 C3899 1.433 . S
C3901 N3904 1.384 . S
C3902 H3893 0.929 . S
C3902 C3894 1.378 . S
C3902 C3897 1.350 . S
C3903 H3890 0.929 . S
C3903 C3895 1.433 . S
C3903 N3905 1.384 . S
N3904 C3900 1.427 . S
N3904 C3901 1.384 . S
N3905 C3897 1.427 . S
N3905 C3903 1.384 . S
H3906 C3912 0.930 . S
H3907 C3916 0.930 . S
H3908 C3921 0.929 . S
H3909 C3919 0.929 . S
H3910 C3914 0.929 . S
H3911 C3920 0.929 . S
C3912 H3906 0.930 . S
C3912 C3913 1.367 . S
C3912 C3920 1.378 . S
C3913 C3912 1.367 . S
C3913 C3921 1.433 . S
C3914 H3910 0.929 . S
C3914 C3916 1.378 . S
C3914 C3918 1.350 . S
C3915 C3918 1.463 . S
C3915 C3920 1.350 . S
C3915 N3923 1.427 . S
C3916 H3907 0.930 . S
C3916 C3914 1.378 . S
C3916 C3917 1.367 . S
C3917 C3916 1.367 . S
C3917 C3919 1.433 . S
C3918 C3914 1.350 . S
C3918 C3915 1.463 . S
C3918 N3922 1.427 . S
C3919 H3909 0.929 . S
C3919 C3917 1.433 . S
C3919 N3922 1.384 . S
C3920 H3911 0.929 . S
C3920 C3912 1.378 . S
C3920 C3915 1.350 . S
C3921 H3908 0.929 . S
C3921 C3913 1.433 . S
C3921 N3923 1.384 . S
N3922 C3918 1.427 . S
N3922 C3919 1.384 . S
N3923 C3915 1.427 . S
N3923 C3921 1.384 . S
H3924 C3930 0.930 . S
H3925 C3934 0.930 . S
H3926 C3939 0.929 . S
H3927 C3937 0.929 . S
H3928 C3932 0.929 . S
H3929 C3938 0.929 . S
C3930 H3924 0.930 . S
C3930 C3931 1.367 . S
C3930 C3938 1.378 . S
C3931 C3930 1.367 . S
C3931 C3939 1.433 . S
C3932 H3928 0.929 . S
C3932 C3934 1.378 . S
C3932 C3936 1.350 . S
C3933 C3936 1.463 . S
C3933 C3938 1.350 . S
C3933 N3941 1.427 . S
C3934 H3925 0.930 . S
C3934 C3932 1.378 . S
C3934 C3935 1.367 . S
C3935 C3934 1.367 . S
C3935 C3937 1.433 . S
C3936 C3932 1.350 . S
C3936 C3933 1.463 . S
C3936 N3940 1.427 . S
C3937 H3927 0.929 . S
C3937 C3935 1.433 . S
C3937 N3940 1.384 . S
C3938 H3929 0.929 . S
C3938 C3930 1.378 . S
C3938 C3933 1.350 . S
C3939 H3926 0.929 . S
C3939 C3931 1.433 . S
C3939 N3941 1.384 . S
N3940 C3936 1.427 . S
N3940 C3937 1.384 . S
N3941 C3933 1.427 . S
N3941 C3939 1.384 . S
H3942 C3948 0.930 . S
H3943 C3952 0.930 1_455 S
H3944 C3957 0.929 . S
H3945 C3955 0.929 . S
H3946 C3950 0.929 . S
H3947 C3956 0.929 . S
C3948 H3942 0.930 . S
C3948 C3949 1.367 . S
C3948 C3956 1.378 . S
C3949 C3948 1.367 . S
C3949 C3957 1.433 . S
C3950 H3946 0.929 . S
C3950 C3952 1.378 . S
C3950 C3954 1.350 . S
C3951 C3954 1.463 . S
C3951 C3956 1.350 . S
C3951 N3959 1.427 . S
C3952 H3943 0.930 1_655 S
C3952 C3950 1.378 . S
C3952 C3953 1.367 . S
C3953 C3952 1.367 . S
C3953 C3955 1.433 . S
C3954 C3950 1.350 . S
C3954 C3951 1.463 . S
C3954 N3958 1.427 . S
C3955 H3945 0.929 . S
C3955 C3953 1.433 . S
C3955 N3958 1.384 . S
C3956 H3947 0.929 . S
C3956 C3948 1.378 . S
C3956 C3951 1.350 . S
C3957 H3944 0.929 . S
C3957 C3949 1.433 . S
C3957 N3959 1.384 . S
N3958 C3954 1.427 . S
N3958 C3955 1.384 . S
N3959 C3951 1.427 . S
N3959 C3957 1.384 . S
H3960 C3966 0.930 . S
H3961 C3970 0.930 . S
H3962 C3975 0.929 . S
H3963 C3973 0.929 . S
H3964 C3968 0.929 . S
H3965 C3974 0.929 . S
C3966 H3960 0.930 . S
C3966 C3967 1.367 . S
C3966 C3974 1.378 . S
C3967 C3966 1.367 . S
C3967 C3975 1.433 . S
C3968 H3964 0.929 . S
C3968 C3970 1.378 . S
C3968 C3972 1.350 . S
C3969 C3972 1.463 . S
C3969 C3974 1.350 . S
C3969 N3977 1.427 . S
C3970 H3961 0.930 . S
C3970 C3968 1.378 . S
C3970 C3971 1.367 . S
C3971 C3970 1.367 . S
C3971 C3973 1.433 . S
C3972 C3968 1.350 . S
C3972 C3969 1.463 . S
C3972 N3976 1.427 . S
C3973 H3963 0.929 . S
C3973 C3971 1.433 . S
C3973 N3976 1.384 . S
C3974 H3965 0.929 . S
C3974 C3966 1.378 . S
C3974 C3969 1.350 . S
C3975 H3962 0.929 . S
C3975 C3967 1.433 . S
C3975 N3977 1.384 . S
N3976 C3972 1.427 . S
N3976 C3973 1.384 . S
N3977 C3969 1.427 . S
N3977 C3975 1.384 . S
H3978 C3984 0.930 . S
H3979 C3988 0.930 . S
H3980 C3993 0.929 . S
H3981 C3991 0.929 . S
H3982 C3986 0.929 . S
H3983 C3992 0.929 . S
C3984 H3978 0.930 . S
C3984 C3985 1.367 . S
C3984 C3992 1.378 . S
C3985 C3984 1.367 . S
C3985 C3993 1.433 1_545 S
C3986 H3982 0.929 . S
C3986 C3988 1.378 . S
C3986 C3990 1.350 1_565 S
C3987 C3990 1.463 . S
C3987 C3992 1.350 . S
C3987 N3995 1.427 1_545 S
C3988 H3979 0.930 . S
C3988 C3986 1.378 . S
C3988 C3989 1.367 1_565 S
C3989 C3988 1.367 1_545 S
C3989 C3991 1.433 . S
C3990 C3986 1.350 1_545 S
C3990 C3987 1.463 . S
C3990 N3994 1.427 . S
C3991 H3981 0.929 . S
C3991 C3989 1.433 . S
C3991 N3994 1.384 . S
C3992 H3983 0.929 . S
C3992 C3984 1.378 . S
C3992 C3987 1.350 . S
C3993 H3980 0.929 . S
C3993 C3985 1.433 1_565 S
C3993 N3995 1.384 . S
N3994 C3990 1.427 . S
N3994 C3991 1.384 . S
N3995 C3987 1.427 1_565 S
N3995 C3993 1.384 . S
C2707 C4 1.316 . S
C2711 C1703 1.067 . S
C2725 C38 1.886 . S
C2729 C1843 1.183 . S
C2747 C1931 1.102 . S
C2743 C74 1.319 . S
C2761 C76 1.367 . S
C2765 C2071 1.005 1_565 S
C2779 C2 1.435 . S
C2783 C2185 1.138 . S
C2797 C40 1.694 . S
C2801 C2273 1.257 . S
C2815 C110 1.329 . S
C2819 C2159 1.116 . S
C2837 C2299 1.389 . S
C2833 C148 1.612 . S
C2855 C2045 1.164 . S
C2851 C182 1.364 . S
C2869 C184 1.406 . S
C2873 C1957 1.050 . S
C2891 C1729 1.008 . S
C2887 C112 1.327 . S
C2905 C146 1.694 . S
C2909 C1817 1.524 . S
C2923 C220 1.812 . S
C2927 C2387 1.342 . S
C2941 C254 1.993 . S
C2945 C2527 1.269 . S
C2963 C2615 1.338 . S
C2959 C290 1.814 . S
C2977 C292 1.738 . S
C2981 C703 1.092 . S
C2995 C218 1.903 . S
C2999 C817 1.249 . S
C3013 C256 1.765 . S
C3017 C905 1.300 . S
C3031 C326 1.672 . S
C3035 C791 1.510 . S
C3049 C364 1.704 . S
C3053 C931 1.475 . S
C3071 C677 1.603 . S
C3067 C398 1.767 . S
C3089 C2641 1.573 . S
C3085 C400 1.826 . S
C3107 C2413 1.382 . S
C3103 C328 1.595 . S
C3125 C2501 1.652 . S
C3121 C362 1.799 . S
C3139 C436 1.668 . S
C3143 C1019 1.217 . S
C3157 C470 1.976 . S
C3161 C1159 1.254 . S
C3175 C506 1.833 . S
C3179 C1247 1.336 . S
C3193 C508 1.886 . S
C3197 C1387 1.220 . S
C3215 C1501 1.218 . S
C3211 C434 1.871 . S
C3233 C1589 1.327 . S
C3229 C472 1.784 . S
C3251 C1475 1.657 . S
C3247 C542 1.829 . S
C3269 C1615 1.493 . S
C3265 C580 1.717 . S
C3283 C614 1.721 . S
C3287 C1361 1.566 . S
C3305 C1273 1.440 . S
C3301 C616 1.668 . S
C3319 C544 1.634 . S
C3323 C1045 1.387 . S
C3341 C1133 1.615 . S
C3337 C578 1.757 . S
C3359 C659 1.061 . S
C3355 C14 1.892 . S
C3373 C39 1.674 . S
C3377 C773 0.903 . S
C3395 C877 1.248 . S
C3391 C75 1.721 . S
C3413 C991 1.167 . S
C3409 C86 1.558 . S
C3431 C1115 1.003 . S
C3427 C3 1.800 . S
C3449 C1219 1.229 . S
C3445 C50 1.687 . S
C3463 C111 1.931 . S
C3467 C1229 1.482 . S
C3481 C158 1.743 . S
C3485 C1001 1.350 . S
C3499 C183 1.968 . S
C3503 C1105 1.745 . S
C3517 C194 1.829 . S
C3521 C763 1.613 . S
C3539 C887 1.429 . S
C3535 C122 1.851 . S
C3553 C147 1.699 . S
C3557 C649 1.487 . S
C3575 C1343 1.006 . S
C3571 C230 1.794 . S
C3589 C255 1.839 . S
C3593 C1457 1.047 . S
C3607 C291 1.738 . S
C3611 C1561 1.289 . S
C3629 C1675 0.969 . S
C3625 C302 1.122 . S
C3643 C219 1.697 . S
C3647 C1799 0.956 . S
C3661 C266 1.318 . S
C3665 C1903 1.099 . S
C3679 C327 1.363 . S
C3683 C1913 0.901 1_565 S
C3697 C374 1.260 . S
C3701 C1685 0.877 1_455 S
C3719 C1789 1.654 . S
C3715 C399 1.868 . S
C3733 C410 1.749 . S
C3737 C1447 1.554 . S
C3751 C338 1.857 . S
C3755 C1571 1.455 . S
C3773 C1333 1.647 . S
C3769 C363 1.855 . S
C3791 C2027 0.897 . S
C3787 C446 1.387 . S
C3805 C471 1.320 . S
C3809 C2141 0.881 . S
C3823 C507 1.621 . S
C3827 C2245 1.172 . S
C3845 C2359 1.120 . S
C3841 C518 1.507 . S
C3863 C2483 1.052 . S
C3859 C435 1.823 . S
C3877 C482 1.826 . S
C3881 C2587 1.357 . S
C3895 C543 1.824 . S
C3899 C2597 1.402 . S
C3913 C590 1.883 . S
C3917 C2369 1.477 . S
C3935 C2473 1.757 . S
C3931 C615 1.968 . S
C3953 C2131 1.041 1_655 S
C3949 C626 1.219 . S
C3971 C2255 1.367 . S
C3967 C554 1.773 . S
C3985 C579 1.292 . S
C3989 C2017 1.057 1_545 S
