# Generated by pormake.
# Topology csq, (4,8)-cn, num edge types: 1
# Building blocks:
#     Node 0, Type 0, BuildingBlock: IZENUY_clean_linker_0, # of connection points: 4
#     Node 1, Type 0, BuildingBlock: IZENUY_clean_linker_0, # of connection points: 4
#     Node 2, Type 0, BuildingBlock: IZENUY_clean_linker_0, # of connection points: 4
#     Node 3, Type 0, BuildingBlock: IZENUY_clean_linker_0, # of connection points: 4
#     Node 4, Type 0, BuildingBlock: IZENUY_clean_linker_0, # of connection points: 4
#     Node 5, Type 0, BuildingBlock: IZENUY_clean_linker_0, # of connection points: 4
#     Node 6, Type 1, BuildingBlock: TAGTUT_clean_sbu_1, # of connection points: 8
#     Node 7, Type 1, BuildingBlock: TAGTUT_clean_sbu_1, # of connection points: 8
#     Node 8, Type 1, BuildingBlock: TAGTUT_clean_sbu_1, # of connection points: 8
#     Edge 9, Type (0, 1), BuildingBlock: AJUNOK_clean_linker_0, # of connection points: 2
#     Edge 10, Type (0, 1), BuildingBlock: AJUNOK_clean_linker_0, # of connection points: 2
#     Edge 11, Type (0, 1), BuildingBlock: AJUNOK_clean_linker_0, # of connection points: 2
#     Edge 12, Type (0, 1), BuildingBlock: AJUNOK_clean_linker_0, # of connection points: 2
#     Edge 13, Type (0, 1), BuildingBlock: AJUNOK_clean_linker_0, # of connection points: 2
#     Edge 14, Type (0, 1), BuildingBlock: AJUNOK_clean_linker_0, # of connection points: 2
#     Edge 15, Type (0, 1), BuildingBlock: AJUNOK_clean_linker_0, # of connection points: 2
#     Edge 16, Type (0, 1), BuildingBlock: AJUNOK_clean_linker_0, # of connection points: 2
#     Edge 17, Type (0, 1), BuildingBlock: AJUNOK_clean_linker_0, # of connection points: 2
#     Edge 18, Type (0, 1), BuildingBlock: AJUNOK_clean_linker_0, # of connection points: 2
#     Edge 19, Type (0, 1), BuildingBlock: AJUNOK_clean_linker_0, # of connection points: 2
#     Edge 20, Type (0, 1), BuildingBlock: AJUNOK_clean_linker_0, # of connection points: 2
#     Edge 21, Type (0, 1), BuildingBlock: AJUNOK_clean_linker_0, # of connection points: 2
#     Edge 22, Type (0, 1), BuildingBlock: AJUNOK_clean_linker_0, # of connection points: 2
#     Edge 23, Type (0, 1), BuildingBlock: AJUNOK_clean_linker_0, # of connection points: 2
#     Edge 24, Type (0, 1), BuildingBlock: AJUNOK_clean_linker_0, # of connection points: 2
#     Edge 25, Type (0, 1), BuildingBlock: AJUNOK_clean_linker_0, # of connection points: 2
#     Edge 26, Type (0, 1), BuildingBlock: AJUNOK_clean_linker_0, # of connection points: 2
#     Edge 27, Type (0, 1), BuildingBlock: AJUNOK_clean_linker_0, # of connection points: 2
#     Edge 28, Type (0, 1), BuildingBlock: AJUNOK_clean_linker_0, # of connection points: 2
#     Edge 29, Type (0, 1), BuildingBlock: AJUNOK_clean_linker_0, # of connection points: 2
#     Edge 30, Type (0, 1), BuildingBlock: AJUNOK_clean_linker_0, # of connection points: 2
#     Edge 31, Type (0, 1), BuildingBlock: AJUNOK_clean_linker_0, # of connection points: 2
#     Edge 32, Type (0, 1), BuildingBlock: AJUNOK_clean_linker_0, # of connection points: 2
# Relax obj value: 0.065
# Max RMSD: 0.143
# Mean RMSD: 0.136
data_MOF--net-csq--node1-TAGTUT_clean_sbu_1--node2-IZENUY_clean_linker_0--edge1-AJUNOK_clean_linker_0
_symmetry_space_group_name_H-M    P1
_symmetry_Int_Tables_number       1
_symmetry_cell_setting            triclinic
loop_
_symmetry_equiv_pos_as_xyz
'x, y, z'
_cell_length_a     44.141034
_cell_length_b     43.709058
_cell_length_c     14.822348
_cell_angle_alpha  94.811466
_cell_angle_beta   93.717249
_cell_angle_gamma 119.51279
loop_
_atom_site_label
_atom_site_type_symbol
_atom_site_fract_x
_atom_site_fract_y
_atom_site_fract_z
_atom_type_partial_charge
H0 H 0.22825 0.49557 0.03666 0.0
H1 H 0.22163 0.49952 0.32641 0.0
H2 H 0.13739 0.4897 0.13857 0.0
H3 H 0.31547 0.50196 0.29036 0.0
H4 H 0.31432 0.49797 -0.00183 0.0
H5 H 0.40223 0.50621 0.16461 0.0
N6 N 0.26213 0.49958 0.19866 0.0
N7 N 0.2781 0.49841 0.13293 0.0
C8 C 0.21436 0.49543 0.09445 0.0
C9 C 0.18153 0.49241 0.07845 0.0
C10 C 0.22905 0.49779 0.18361 0.0
C11 C 0.21044 0.49781 0.25766 0.0
C12 C 0.17703 0.49469 0.24233 0.0
C13 C 0.16288 0.49189 0.15193 0.0
C14 C 0.32779 0.50206 0.22941 0.0
C15 C 0.3605 0.50409 0.23685 0.0
C16 C 0.31109 0.50003 0.1432 0.0
C17 C 0.3273 0.49967 0.06458 0.0
C18 C 0.36042 0.5023 0.07158 0.0
C19 C 0.37682 0.50454 0.15826 0.0
H20 H 0.74567 0.20439 0.97055 0.0
H21 H 0.75087 0.21382 0.26413 0.0
H22 H 0.66049 0.128 0.09822 0.0
H23 H 0.83696 0.30265 0.219 0.0
H24 H 0.8444 0.27723 0.93562 0.0
H25 H 0.93041 0.36746 0.10035 0.0
N26 N 0.78594 0.24383 0.13016 0.0
N27 N 0.80285 0.25488 0.06457 0.0
C28 C 0.7341 0.19487 0.03184 0.0
C29 C 0.701 0.16411 0.02425 0.0
C30 C 0.75223 0.21292 0.1189 0.0
C31 C 0.73695 0.20002 0.1974 0.0
C32 C 0.70388 0.16957 0.19027 0.0
C33 C 0.68604 0.15177 0.10373 0.0
C34 C 0.85145 0.30814 0.16054 0.0
C35 C 0.88501 0.33834 0.16796 0.0
C36 C 0.83669 0.28561 0.0762 0.0
C37 C 0.85582 0.2937 0.00103 0.0
C38 C 0.88977 0.32292 0.01098 0.0
C39 C 0.90409 0.34463 0.094 0.0
H40 H 0.56313 0.73461 0.9035 0.0
H41 H 0.55415 0.7425 0.19276 0.0
H42 H 0.57095 0.66127 0.06454 0.0
H43 H 0.54732 0.8241 0.11514 0.0
H44 H 0.55634 0.81872 0.82601 0.0
H45 H 0.53682 0.89722 0.95954 0.0
N46 N 0.55397 0.77269 0.04396 0.0
N47 N 0.55488 0.7861 0.97219 0.0
C48 C 0.56327 0.72558 0.9693 0.0
C49 C 0.56823 0.69651 0.97649 0.0
C50 C 0.5585 0.74272 0.04781 0.0
C51 C 0.55805 0.72979 0.13225 0.0
C52 C 0.56274 0.70043 0.13776 0.0
C53 C 0.56786 0.68431 0.0601 0.0
C54 C 0.54587 0.83285 0.04958 0.0
C55 C 0.54059 0.8618 0.04493 0.0
C56 C 0.55021 0.81606 0.96973 0.0
C57 C 0.55113 0.83007 0.88673 0.0
C58 C 0.5459 0.85924 0.88351 0.0
C59 C 0.53949 0.87384 0.96178 0.0
H60 H 0.74665 0.53643 0.91088 0.0
H61 H 0.74733 0.54117 0.20309 0.0
H62 H 0.65727 0.52672 0.03303 0.0
H63 H 0.83587 0.54755 0.16667 0.0
H64 H 0.83784 0.53451 0.87539 0.0
H65 H 0.91628 0.53272 0.06038 0.0
N66 N 0.78443 0.54185 0.0696 0.0
N67 N 0.80051 0.54069 0.00413 0.0
C68 C 0.73405 0.53606 0.97146 0.0
C69 C 0.70028 0.53147 0.96266 0.0
C70 C 0.75111 0.53947 0.05838 0.0
C71 C 0.73422 0.53879 0.1363 0.0
C72 C 0.70008 0.53369 0.12798 0.0
C73 C 0.68346 0.53024 0.04061 0.0
C74 C 0.84801 0.54416 0.1083 0.0
C75 C 0.87778 0.54099 0.12314 0.0
C76 C 0.83307 0.54143 0.01908 0.0
C77 C 0.8494 0.53695 0.94426 0.0
C78 C 0.87966 0.53393 0.95859 0.0
C79 C 0.89339 0.53565 0.04846 0.0
H80 H 0.21885 0.72178 0.97912 0.0
H81 H 0.21739 0.74515 0.26794 0.0
H82 H 0.12888 0.65571 0.10865 0.0
H83 H 0.31173 0.82103 0.22485 0.0
H84 H 0.30489 0.81127 0.931 0.0
H85 H 0.39339 0.9003 0.09419 0.0
N86 N 0.25535 0.76914 0.1334 0.0
N87 N 0.27125 0.78061 0.06655 0.0
C88 C 0.2057 0.71578 0.03983 0.0
C89 C 0.17241 0.68529 0.03529 0.0
C90 C 0.22192 0.73797 0.12427 0.0
C91 C 0.20471 0.72912 0.2025 0.0
C92 C 0.17118 0.69951 0.1958 0.0
C93 C 0.15508 0.67855 0.11247 0.0
C94 C 0.32259 0.83088 0.16307 0.0
C95 C 0.35469 0.86276 0.16969 0.0
C96 C 0.30439 0.81224 0.07648 0.0
C97 C 0.31881 0.82551 -0.00261 0.0
C98 C 0.35087 0.85713 0.00354 0.0
C99 C 0.36865 0.87565 0.08958 0.0
H100 H 0.5066 0.2039 0.08347 0.0
H101 H 0.50126 0.21164 0.37436 0.0
H102 H 0.51526 0.12964 0.23857 0.0
H103 H 0.49453 0.29542 0.29807 0.0
H104 H 0.50522 0.28931 0.00957 0.0
H105 H 0.49123 0.37197 0.14139 0.0
N106 N 0.50224 0.24382 0.22797 0.0
N107 N 0.50324 0.25738 0.15645 0.0
C108 C 0.50828 0.19523 0.14903 0.0
C109 C 0.51205 0.16532 0.15311 0.0
C110 C 0.50563 0.21308 0.22963 0.0
C111 C 0.50512 0.19939 0.31292 0.0
C112 C 0.50905 0.16943 0.31561 0.0
C113 C 0.51362 0.1536 0.23647 0.0
C114 C 0.49536 0.30521 0.233 0.0
C115 C 0.49181 0.33517 0.22719 0.0
C116 C 0.49996 0.28814 0.15397 0.0
C117 C 0.50157 0.30202 0.07052 0.0
C118 C 0.49869 0.33252 0.06675 0.0
C119 C 0.49352 0.34841 0.14472 0.0
C120 C 0.99457 0.41601 0.8168 0.0
C121 C 0.09969 0.48253 0.75936 0.0
C122 C 0.0681 0.58553 0.74628 0.0
Mg123 Mg 0.02892 0.44058 0.64415 0.0
O124 O 1.01566 0.47439 0.68001 0.0
Mg125 Mg 0.03735 0.50383 0.80037 0.0
Mg126 Mg 0.0275 0.51198 0.60245 0.0
O127 O 0.03962 0.54941 0.52454 0.0
Mg128 Mg 0.02792 0.58466 0.55805 0.0
Mg129 Mg 0.01841 0.51993 0.40383 0.0
C130 C 0.98701 0.43879 0.45805 0.0
C131 C 0.08168 0.50632 0.4664 0.0
O132 O 1.00629 0.44852 0.85098 0.0
O133 O 1.00054 0.40688 0.73884 0.0
O134 O 0.08535 0.49782 0.80036 0.0
O135 O 0.08376 0.45957 0.68881 0.0
O136 O 1.00165 0.42534 0.50614 0.0
O137 O 0.99165 0.47001 0.48161 0.0
C138 C 0.97211 0.51465 0.73844 0.0
O139 O 0.98053 0.51753 0.65671 0.0
O140 O 0.98975 0.50944 0.80045 0.0
O141 O 0.05164 0.57474 0.35387 0.0
O142 O 0.05841 0.61747 0.4641 0.0
O143 O 0.97177 0.52828 0.40154 0.0
C144 C 0.06482 0.60752 0.38769 0.0
O145 O 0.97359 0.56738 0.51074 0.0
O146 O 0.05428 0.59949 0.69715 0.0
C147 C 0.95779 0.54451 0.43992 0.0
O148 O 0.06289 0.55406 0.72282 0.0
O149 O 0.07434 0.50591 0.54907 0.0
O150 O 0.06413 0.51117 0.40347 0.0
C151 C 0.4873 0.04987 0.88724 0.0
C152 C 0.43334 0.94259 0.74839 0.0
C153 C 0.56223 0.96912 0.67707 0.0
Mg154 Mg 0.46171 0.01573 0.6866 0.0
O155 O 0.50827 0.02516 0.70447 0.0
Mg156 Mg 0.52083 1.00122 0.79603 0.0
Mg157 Mg 0.52689 0.01397 0.59862 0.0
O158 O 0.54552 1.00286 0.49271 0.0
Mg159 Mg 0.59205 0.01199 0.50904 0.0
Mg160 Mg 0.53264 0.02669 0.40131 0.0
C161 C 0.49191 0.05923 0.52058 0.0
C162 C 0.45956 0.96226 0.44455 0.0
O163 O 0.5061 0.03492 0.89627 0.0
O164 O 0.46797 0.04515 0.81349 0.0
O165 O 0.4649 0.95459 0.78345 0.0
O166 O 0.42507 0.96065 0.69916 0.0
O167 O 0.46705 0.04542 0.571 0.0
O168 O 0.51728 0.05255 0.52268 0.0
C169 C 0.59414 0.06563 0.75265 0.0
O170 O 0.58251 0.05977 0.66761 0.0
O171 O 0.57555 0.04681 0.81007 0.0
O172 O 0.54657 0.99272 0.30102 0.0
O173 O 0.58443 0.98164 0.3822 0.0
O174 O 0.58838 0.07289 0.41255 0.0
C175 C 0.56452 0.97688 0.30951 0.0
O176 O 0.62878 0.06709 0.49458 0.0
O177 O 0.58692 0.98275 0.626 0.0
C178 C 0.62012 0.08504 0.4459 0.0
O179 O 0.53672 0.97561 0.67472 0.0
O180 O 0.47123 0.96794 0.52953 0.0
O181 O 0.47806 0.98135 0.38753 0.0
C182 C 0.56813 0.60463 0.36324 0.0
C183 C 0.61573 0.53926 0.40599 0.0
C184 C 0.48595 0.43981 0.47129 0.0
Mg185 Mg 0.5963 0.58491 0.53191 0.0
O186 O 0.54826 0.55044 0.51304 0.0
Mg187 Mg 0.53002 0.51812 0.39619 0.0
Mg188 Mg 0.52932 0.51586 0.60051 0.0
O189 O 0.51042 0.48127 0.68794 0.0
Mg190 Mg 0.46257 0.44633 0.6692 0.0
Mg191 Mg 0.5286 0.51353 0.80482 0.0
C192 C 0.57293 0.59169 0.72975 0.0
C193 C 0.59601 0.5195 0.71768 0.0
O194 O 0.54683 0.57142 0.33501 0.0
O195 O 0.58993 0.61559 0.43582 0.0
O196 O 0.58315 0.52268 0.37577 0.0
O197 O 0.62782 0.56386 0.47392 0.0
O198 O 0.59629 0.60338 0.67429 0.0
O199 O 0.54549 0.56059 0.71505 0.0
C200 C 0.46262 0.51217 0.48313 0.0
O201 O 0.47531 0.51224 0.56342 0.0
O202 O 0.47873 0.51392 0.41403 0.0
O203 O 0.51192 0.46034 0.86698 0.0
O204 O 0.46968 0.41602 0.76518 0.0
O205 O 0.47538 0.50892 0.82451 0.0
C206 C 0.49101 0.42704 0.83869 0.0
O207 O 0.43076 0.46703 0.7273 0.0
O208 O 0.46262 0.42789 0.52677 0.0
C209 C 0.44278 0.492 0.79431 0.0
O210 O 0.51312 0.4711 0.48613 0.0
O211 O 0.58327 0.51939 0.63744 0.0
O212 O 0.57994 0.51775 0.78688 0.0
C213 C 0.12041 0.46694 0.31032 0.0
C214 C 0.15587 0.49375 0.31822 0.0
C215 C 0.09735 0.46919 0.36779 0.0
C216 C 0.10865 0.49825 0.43606 0.0
H217 H 0.10986 0.44507 0.25545 0.0
H218 H 0.06974 0.44939 0.35385 0.0
S219 S 0.19967 0.57319 0.49363 0.0
N220 N 0.20198 0.54849 0.40655 0.0
N221 N 0.15833 0.55269 0.51426 0.0
C222 C 0.14455 0.52373 0.45 0.0
C223 C 0.16824 0.52145 0.39128 0.0
C224 C 0.699 0.13732 0.32521 0.0
C225 C 0.6875 0.1558 0.27264 0.0
C226 C 0.67908 0.11755 0.39114 0.0
C227 C 0.64704 0.11571 0.40619 0.0
H228 H 0.72214 0.13606 0.31071 0.0
H229 H 0.68723 0.10115 0.42416 0.0
S230 S 0.60966 0.16544 0.2975 0.0
N231 N 0.64523 0.17525 0.248 0.0
N232 N 0.60812 0.13907 0.37285 0.0
C233 C 0.63754 0.13738 0.36054 0.0
C234 C 0.65758 0.15703 0.29305 0.0
C235 C 0.59478 0.68953 0.26089 0.0
C236 C 0.56254 0.68448 0.2214 0.0
C237 C 0.59633 0.66376 0.30798 0.0
C238 C 0.56571 0.63183 0.31581 0.0
H239 H 0.61913 0.71204 0.24812 0.0
H240 H 0.62179 0.66803 0.33423 0.0
S241 S 0.47449 0.6095 0.24218 0.0
N242 N 0.49913 0.6479 0.20524 0.0
N243 N 0.50194 0.59935 0.29434 0.0
C244 C 0.53316 0.62788 0.28375 0.0
C245 C 0.53161 0.65435 0.23678 0.0
C246 C 0.88726 0.50988 0.24547 0.0
C247 C 0.89163 0.54143 0.2169 0.0
C248 C 0.90472 0.51038 0.32839 0.0
C249 C 0.9278 0.54256 0.38425 0.0
H250 H 0.87179 0.48493 0.20118 0.0
H251 H 0.90288 0.48584 0.34456 0.0
S252 S 0.9435 0.63165 0.34536 0.0
N253 N 0.91627 0.60489 0.25556 0.0
N254 N 0.95023 0.60615 0.41042 0.0
C255 C 0.92943 0.57379 0.36062 0.0
C256 C 0.91127 0.57318 0.27651 0.0
C257 C 0.39544 0.87457 0.31095 0.0
C258 C 0.3739 0.8837 0.25923 0.0
C259 C 0.42056 0.89876 0.38291 0.0
C260 C 0.42471 0.93266 0.40535 0.0
H261 H 0.39484 0.84984 0.29094 0.0
H262 H 0.4391 0.89227 0.41475 0.0
S263 S 0.37202 0.96753 0.29709 0.0
N264 N 0.35612 0.92741 0.24079 0.0
N265 N 0.40308 0.97265 0.37554 0.0
C266 C 0.40123 0.94067 0.35905 0.0
C267 C 0.37593 0.91628 0.28587 0.0
C268 C 0.45737 0.35683 0.3076 0.0
C269 C 0.48864 0.35573 0.30556 0.0
C270 C 0.45671 0.38465 0.35995 0.0
C271 C 0.48754 0.41269 0.4096 0.0
H272 H 0.43374 0.33703 0.26464 0.0
H273 H 0.43218 0.38468 0.36004 0.0
S274 S 0.57522 0.41992 0.43371 0.0
N275 N 0.55034 0.38327 0.36214 0.0
N276 N 0.54944 0.4358 0.46076 0.0
C277 C 0.51867 0.41108 0.41084 0.0
C278 C 0.5191 0.38246 0.35888 0.0
C279 C 0.52195 0.87977 0.7634 0.0
C280 C 0.55116 0.87929 0.80535 0.0
C281 C 0.52582 0.90927 0.72366 0.0
C282 C 0.55915 0.93914 0.72297 0.0
H283 H 0.49576 0.85838 0.76806 0.0
H284 H 0.50245 0.9088 0.69424 0.0
S285 S 0.64417 0.94955 0.81609 0.0
N286 N 0.61454 0.91016 0.83917 0.0
N287 N 0.6221 0.96512 0.76073 0.0
C288 C 0.58875 0.93788 0.75859 0.0
C289 C 0.5847 0.90799 0.80018 0.0
C290 C 0.6847 0.55721 0.83637 0.0
C291 C 0.68143 0.52716 0.87246 0.0
C292 C 0.65909 0.55405 0.76889 0.0
C293 C 0.62962 0.52078 0.73634 0.0
H294 H 0.70509 0.58347 0.86685 0.0
H295 H 0.66001 0.57802 0.75116 0.0
S296 S 0.61231 0.43389 0.79911 0.0
N297 N 0.64933 0.46303 0.86272 0.0
N298 N 0.6013 0.45708 0.73582 0.0
C299 C 0.6286 0.49037 0.76392 0.0
C300 C 0.65441 0.49357 0.83279 0.0
C301 C 0.1417 0.67145 0.87871 0.0
C302 C 0.15329 0.66001 0.95178 0.0
C303 C 0.11413 0.64698 0.81315 0.0
C304 C 0.09705 0.61011 0.81817 0.0
H305 H 0.15235 0.69954 0.87553 0.0
H306 H 0.10581 0.65732 0.75884 0.0
S307 S 0.11951 0.56683 -0.00539 0.0
N308 N 0.14761 0.6096 0.02316 0.0
N309 N 0.09536 0.56366 0.90061 0.0
C310 C 0.10978 0.59831 0.88851 0.0
C311 C 0.13807 0.62323 0.95487 0.0
C312 C 0.53366 0.13133 0.06306 0.0
C313 C 0.50804 0.14126 0.07211 0.0
C314 C 0.52621 0.10065 0.00625 0.0
C315 C 0.49288 0.0789 0.95651 0.0
H316 H 0.5591 0.14655 0.10363 0.0
H317 H 0.54684 0.09421 0.00055 0.0
S318 S 0.41673 0.09332 0.95784 0.0
N319 N 0.44823 0.12713 0.02785 0.0
N320 N 0.4341 0.06958 0.91968 0.0
C321 C 0.46726 0.08898 0.96379 0.0
C322 C 0.47492 0.12023 0.02155 0.0
C323 C 0.36451 0.4726 0.92308 0.0
C324 C 0.3784 0.50266 -0.01045 0.0
C325 C 0.3843 0.47032 0.8544 0.0
C326 C 0.41868 0.49806 0.84988 0.0
H327 H 0.33904 0.44991 0.92738 0.0
H328 H 0.37345 0.44576 0.80855 0.0
S329 S 0.46427 0.58489 -0.00144 0.0
N330 N 0.42651 0.56236 0.03938 0.0
N331 N 0.46361 0.55833 0.91157 0.0
C332 C 0.43153 0.52929 0.91191 0.0
C333 C 0.41148 0.53151 -0.01853 0.0
C334 C 0.90571 0.35935 0.8876 0.0
C335 C 0.91044 0.33532 0.93526 0.0
C336 C 0.93351 0.38556 0.84963 0.0
C337 C 0.96651 0.38802 0.85717 0.0
H338 H 0.88155 0.36015 0.88769 0.0
H339 H 0.9295 0.40472 0.8166 0.0
S340 S 0.9908 0.3285 0.96403 0.0
N341 N 0.94947 0.31357 -0.01892 0.0
N342 N 1.00152 0.3622 0.9053 0.0
C343 C 0.97073 0.36228 0.89701 0.0
C344 C 0.94258 0.33588 0.93689 0.0
C345 C 0.89656 0.49437 0.87193 0.0
C346 C 0.89625 0.52647 0.88163 0.0
C347 C 0.9185 0.48934 0.81562 0.0
C348 C 0.94119 0.5162 0.7667 0.0
H349 H 0.88133 0.4738 0.91275 0.0
H350 H 0.91968 0.46515 0.81584 0.0
S351 S 0.94818 0.60404 0.76241 0.0
N352 N 0.91845 0.58454 0.83206 0.0
N353 N 0.96011 0.57513 0.72667 0.0
C354 C 0.93929 0.54744 0.77041 0.0
C355 C 0.91675 0.55257 0.82791 0.0
C356 C 0.35622 0.89268 0.87586 0.0
C357 C 0.36624 0.87137 0.92057 0.0
C358 C 0.37569 0.91262 0.80963 0.0
C359 C 0.40595 0.91206 0.78703 0.0
H360 H 0.33471 0.89581 0.89662 0.0
H361 H 0.3689 0.93105 0.78273 0.0
S362 S 0.43874 0.85513 0.87373 0.0
N363 N 0.40484 0.84684 0.9294 0.0
N364 N 0.44157 0.88413 0.80526 0.0
C365 C 0.41392 0.88801 0.82519 0.0
C366 C 0.39413 0.86784 0.89235 0.0
C367 C 0.52913 0.38321 -0.01815 0.0
C368 C 0.50003 0.3494 -0.01584 0.0
C369 C 0.52604 0.4082 0.93464 0.0
C370 C 0.49378 0.40005 0.88706 0.0
H371 H 0.55363 0.39138 0.02346 0.0
H372 H 0.54886 0.43432 0.93732 0.0
S373 S 0.41078 0.31364 0.86414 0.0
N374 N 0.43891 0.30808 0.92976 0.0
N375 N 0.43299 0.35442 0.83825 0.0
C376 C 0.46523 0.36531 0.88291 0.0
C377 C 0.46843 0.34006 0.93173 0.0
C378 C 0.14105 0.45627 0.93793 0.0
C379 C 0.16654 0.48953 -0.01585 0.0
C380 C 0.12297 0.45351 0.8535 0.0
C381 C 0.12943 0.48402 0.81401 0.0
H382 H 0.13372 0.43251 0.9696 0.0
H383 H 0.10118 0.4278 0.82436 0.0
S384 S 0.19782 0.57651 0.9013 0.0
N385 N 0.20101 0.55289 0.97896 0.0
N386 N 0.16607 0.54787 0.8217 0.0
C387 C 0.15711 0.51701 0.85584 0.0
C388 C 0.17583 0.51976 0.941 0.0
C389 C 0.66009 0.15314 0.88429 0.0
C390 C 0.68163 0.14362 0.93449 0.0
C391 C 0.63426 0.12905 0.81348 0.0
C392 C 0.62933 0.09484 0.79092 0.0
H393 H 0.66125 0.1781 0.90481 0.0
H394 H 0.61583 0.13592 0.7828 0.0
S395 S 0.68166 0.05885 0.89518 0.0
N396 N 0.69859 0.09919 0.95108 0.0
N397 N 0.65022 0.0541 0.81862 0.0
C398 C 0.65278 0.08639 0.83548 0.0
C399 C 0.67886 0.11072 0.90736 0.0
C400 C 0.60213 0.67344 0.89853 0.0
C401 C 0.57146 0.6758 0.89845 0.0
C402 C 0.6024 0.64566 0.84491 0.0
C403 C 0.57173 0.61895 0.7917 0.0
H404 H 0.62551 0.69221 0.94395 0.0
H405 H 0.62644 0.64459 0.84667 0.0
S406 S 0.48602 0.61575 0.75959 0.0
N407 N 0.51078 0.65116 0.83516 0.0
N408 N 0.51099 0.5987 0.73411 0.0
C409 C 0.54135 0.62196 0.78793 0.0
C410 C 0.54133 0.65055 0.84128 0.0
C411 C 0.53319 0.14856 0.43409 0.0
C412 C 0.50411 0.14983 0.39446 0.0
C413 C 0.52893 0.11885 0.47336 0.0
C414 C 0.49537 0.08954 0.47567 0.0
H415 H 0.55949 0.16935 0.42754 0.0
H416 H 0.55219 0.11867 0.50086 0.0
S417 S 0.41069 0.08133 0.38856 0.0
N418 N 0.44069 0.12041 0.36467 0.0
N419 N 0.43245 0.06496 0.44172 0.0
C420 C 0.46598 0.09163 0.44238 0.0
C421 C 0.47041 0.12178 0.40154 0.0
C422 C 0.40389 0.53828 0.37361 0.0
C423 C 0.37818 0.50538 0.32613 0.0
C424 C 0.42862 0.54029 0.44181 0.0
C425 C 0.42841 0.50947 0.46359 0.0
H426 H 0.40694 0.56262 0.35205 0.0
H427 H 0.45062 0.56618 0.4688 0.0
S428 S 0.36295 0.41696 0.36856 0.0
N429 N 0.3509 0.44134 0.31356 0.0
N430 N 0.3976 0.44518 0.44138 0.0
C431 C 0.40026 0.47641 0.42422 0.0
C432 C 0.37517 0.47434 0.35477 0.0
C433 C 0.91427 0.35243 0.32586 0.0
C434 C 0.90275 0.36357 0.25198 0.0
C435 C 0.94143 0.37716 0.39191 0.0
C436 C 0.95811 0.41397 0.38652 0.0
H437 H 0.90401 0.32441 0.32915 0.0
H438 H 0.94984 0.36709 0.44672 0.0
S439 S 0.9353 0.4564 0.2084 0.0
N440 N 0.90789 0.41351 0.17949 0.0
N441 N 0.95924 0.46007 0.3034 0.0
C442 C 0.94528 0.42546 0.3156 0.0
C443 C 0.91746 0.40024 0.24861 0.0
C444 C 0.57614 0.90665 0.17657 0.0
C445 C 0.54308 0.88498 0.12596 0.0
C446 C 0.5832 0.93714 0.23342 0.0
C447 C 0.5575 0.9471 0.24097 0.0
H448 H 0.59727 0.90117 0.16794 0.0
H449 H 0.60917 0.95335 0.27077 0.0
S450 S 0.46553 0.89668 0.12935 0.0
N451 N 0.48369 0.87368 0.09118 0.0
N452 N 0.49667 0.93093 0.19906 0.0
C453 C 0.52385 0.92476 0.19332 0.0
C454 C 0.51667 0.8936 0.13596 0.0
C455 C 0.69516 0.5599 0.28102 0.0
C456 C 0.68113 0.53163 0.20917 0.0
C457 C 0.67488 0.56094 0.34973 0.0
C458 C 0.63984 0.5337 0.34913 0.0
H459 H 0.72123 0.58234 0.28116 0.0
H460 H 0.68601 0.58435 0.40001 0.0
S461 S 0.59331 0.45079 0.18463 0.0
N462 N 0.63195 0.47365 0.14844 0.0
N463 N 0.59394 0.4754 0.27626 0.0
C464 C 0.62672 0.50397 0.28152 0.0
C465 C 0.64728 0.50302 0.21188 0.0
C466 C 0.12445 0.6909 0.28999 0.0
C467 C 0.15284 0.68582 0.2743 0.0
C468 C 0.09587 0.66567 0.32862 0.0
C469 C 0.09467 0.63436 0.34915 0.0
H470 H 0.12299 0.7128 0.26507 0.0
H471 H 0.07385 0.66967 0.33768 0.0
S472 S 0.16451 0.61124 0.33191 0.0
N473 N 0.17991 0.64968 0.29212 0.0
N474 N 0.12578 0.60167 0.36225 0.0
C475 C 0.12401 0.63037 0.34015 0.0
C476 C 0.15338 0.65646 0.30381 0.0
loop_
_geom_bond_atom_site_label_1
_geom_bond_atom_site_label_2
_geom_bond_distance
_geom_bond_site_symmetry_2
_ccdc_geom_bond_type
H0 C8 0.940 . S
H1 C11 0.940 . S
H2 C13 0.940 . S
H3 C14 0.940 . S
H4 C17 0.940 . S
H5 C19 0.940 . S
N6 N7 1.190 . S
N6 C10 1.477 . S
N7 N6 1.190 . S
N7 C16 1.477 . S
C8 H0 0.940 . S
C8 C9 1.390 . S
C8 C10 1.322 . S
C9 C8 1.390 . S
C9 C13 1.370 . S
C10 N6 1.477 . S
C10 C8 1.322 . S
C10 C11 1.447 . S
C11 H1 0.940 . S
C11 C10 1.447 . S
C11 C12 1.373 . S
C12 C11 1.373 . S
C12 C13 1.417 . S
C13 H2 0.940 . S
C13 C9 1.370 . S
C13 C12 1.417 . S
C14 H3 0.940 . S
C14 C15 1.390 . S
C14 C16 1.322 . S
C15 C14 1.390 . S
C15 C19 1.370 . S
C16 N7 1.477 . S
C16 C14 1.322 . S
C16 C17 1.447 . S
C17 H4 0.940 . S
C17 C16 1.447 . S
C17 C18 1.373 . S
C18 C17 1.373 . S
C18 C19 1.417 . S
C19 H5 0.940 . S
C19 C15 1.370 . S
C19 C18 1.417 . S
H20 C28 0.940 . S
H21 C31 0.940 . S
H22 C33 0.940 . S
H23 C34 0.940 . S
H24 C37 0.940 1_556 S
H25 C39 0.940 . S
N26 N27 1.190 . S
N26 C30 1.477 . S
N27 N26 1.190 . S
N27 C36 1.477 . S
C28 H20 0.940 . S
C28 C29 1.390 . S
C28 C30 1.322 . S
C29 C28 1.390 . S
C29 C33 1.370 . S
C30 N26 1.477 . S
C30 C28 1.322 . S
C30 C31 1.447 . S
C31 H21 0.940 . S
C31 C30 1.447 . S
C31 C32 1.373 . S
C32 C31 1.373 . S
C32 C33 1.417 . S
C33 H22 0.940 . S
C33 C29 1.370 . S
C33 C32 1.417 . S
C34 H23 0.940 . S
C34 C35 1.390 . S
C34 C36 1.322 . S
C35 C34 1.390 . S
C35 C39 1.370 . S
C36 N27 1.477 . S
C36 C34 1.322 . S
C36 C37 1.447 . S
C37 H24 0.940 1_554 S
C37 C36 1.447 . S
C37 C38 1.373 . S
C38 C37 1.373 . S
C38 C39 1.417 . S
C39 H25 0.940 . S
C39 C35 1.370 . S
C39 C38 1.417 . S
H40 C48 0.940 . S
H41 C51 0.940 . S
H42 C53 0.940 . S
H43 C54 0.940 . S
H44 C57 0.940 . S
H45 C59 0.940 . S
N46 N47 1.190 1_554 S
N46 C50 1.477 . S
N47 N46 1.190 1_556 S
N47 C56 1.477 . S
C48 H40 0.940 . S
C48 C49 1.390 . S
C48 C50 1.322 1_556 S
C49 C48 1.390 . S
C49 C53 1.370 . S
C50 N46 1.477 . S
C50 C48 1.322 1_554 S
C50 C51 1.447 . S
C51 H41 0.940 . S
C51 C50 1.447 . S
C51 C52 1.373 . S
C52 C51 1.373 . S
C52 C53 1.417 1_554 S
C53 H42 0.940 . S
C53 C49 1.370 . S
C53 C52 1.417 1_556 S
C54 H43 0.940 . S
C54 C55 1.390 . S
C54 C56 1.322 1_554 S
C55 C54 1.390 . S
C55 C59 1.370 . S
C56 N47 1.477 . S
C56 C54 1.322 1_556 S
C56 C57 1.447 . S
C57 H44 0.940 . S
C57 C56 1.447 . S
C57 C58 1.373 . S
C58 C57 1.373 . S
C58 C59 1.417 1_556 S
C59 H45 0.940 . S
C59 C55 1.370 . S
C59 C58 1.417 1_554 S
H60 C68 0.940 . S
H61 C71 0.940 . S
H62 C73 0.940 . S
H63 C74 0.940 . S
H64 C77 0.940 . S
H65 C79 0.940 . S
N66 N67 1.190 . S
N66 C70 1.477 . S
N67 N66 1.190 . S
N67 C76 1.477 . S
C68 H60 0.940 . S
C68 C69 1.390 . S
C68 C70 1.322 1_556 S
C69 C68 1.390 . S
C69 C73 1.370 1_556 S
C70 N66 1.477 . S
C70 C68 1.322 1_554 S
C70 C71 1.447 . S
C71 H61 0.940 . S
C71 C70 1.447 . S
C71 C72 1.373 . S
C72 C71 1.373 . S
C72 C73 1.417 . S
C73 H62 0.940 . S
C73 C69 1.370 1_554 S
C73 C72 1.417 . S
C74 H63 0.940 . S
C74 C75 1.390 . S
C74 C76 1.322 . S
C75 C74 1.390 . S
C75 C79 1.370 . S
C76 N67 1.477 . S
C76 C74 1.322 . S
C76 C77 1.447 1_554 S
C77 H64 0.940 . S
C77 C76 1.447 1_556 S
C77 C78 1.373 . S
C78 C77 1.373 . S
C78 C79 1.417 1_556 S
C79 H65 0.940 . S
C79 C75 1.370 . S
C79 C78 1.417 1_554 S
H80 C88 0.940 1_556 S
H81 C91 0.940 . S
H82 C93 0.940 . S
H83 C94 0.940 . S
H84 C97 0.940 . S
H85 C99 0.940 . S
N86 N87 1.190 . S
N86 C90 1.477 . S
N87 N86 1.190 . S
N87 C96 1.477 . S
C88 H80 0.940 1_554 S
C88 C89 1.390 . S
C88 C90 1.322 . S
C89 C88 1.390 . S
C89 C93 1.380 . S
C90 N86 1.477 . S
C90 C88 1.322 . S
C90 C91 1.447 . S
C91 H81 0.940 . S
C91 C90 1.447 . S
C91 C92 1.373 . S
C92 C91 1.373 . S
C92 C93 1.417 . S
C93 H82 0.940 . S
C93 C89 1.380 . S
C93 C92 1.417 . S
C94 H83 0.940 . S
C94 C95 1.390 . S
C94 C96 1.322 . S
C95 C94 1.390 . S
C95 C99 1.370 . S
C96 N87 1.477 . S
C96 C94 1.322 . S
C96 C97 1.447 1_554 S
C97 H84 0.940 . S
C97 C96 1.447 1_556 S
C97 C98 1.373 1_556 S
C98 C97 1.373 1_554 S
C98 C99 1.417 . S
C99 H85 0.940 . S
C99 C95 1.370 . S
C99 C98 1.417 . S
H100 C108 0.940 . S
H101 C111 0.940 . S
H102 C113 0.940 . S
H103 C114 0.940 . S
H104 C117 0.940 . S
H105 C119 0.940 . S
N106 N107 1.190 . S
N106 C110 1.477 . S
N107 N106 1.190 . S
N107 C116 1.477 . S
C108 H100 0.940 . S
C108 C109 1.390 . S
C108 C110 1.322 . S
C109 C108 1.390 . S
C109 C113 1.370 . S
C110 N106 1.477 . S
C110 C108 1.322 . S
C110 C111 1.447 . S
C111 H101 0.940 . S
C111 C110 1.447 . S
C111 C112 1.373 . S
C112 C111 1.373 . S
C112 C113 1.417 . S
C113 H102 0.940 . S
C113 C109 1.370 . S
C113 C112 1.417 . S
C114 H103 0.940 . S
C114 C115 1.390 . S
C114 C116 1.322 . S
C115 C114 1.390 . S
C115 C119 1.370 . S
C116 N107 1.477 . S
C116 C114 1.322 . S
C116 C117 1.447 . S
C117 H104 0.940 . S
C117 C116 1.447 . S
C117 C118 1.373 . S
C118 C117 1.373 . S
C118 C119 1.417 . S
C119 H105 0.940 . S
C119 C115 1.370 . S
C119 C118 1.417 . S
C120 O132 1.241 . S
C120 O133 1.280 . S
C121 O134 1.277 . S
C121 O135 1.245 . S
C122 O146 1.247 . S
C122 O148 1.289 . S
Mg123 O124 1.924 . S
Mg123 O133 1.984 . S
Mg123 O135 1.988 1_655 S
Mg123 O136 2.061 . S
O124 Mg123 1.924 . S
O124 Mg125 1.987 1_655 S
O124 Mg126 1.917 1_655 S
Mg125 O124 1.987 1_455 S
Mg125 O132 2.042 1_455 S
Mg125 O134 2.041 . S
Mg125 O140 2.038 1_455 S
Mg125 O148 2.238 . S
Mg126 O124 1.917 1_455 S
Mg126 O127 1.917 . S
Mg126 O137 2.106 1_455 S
Mg126 O139 2.079 1_455 S
Mg126 O148 2.106 . S
Mg126 O149 2.079 . S
O127 Mg126 1.917 . S
O127 Mg128 1.926 . S
O127 Mg129 1.986 . S
Mg128 O127 1.926 . S
Mg128 O142 1.984 . S
Mg128 O145 1.988 1_455 S
Mg128 O146 2.061 . S
Mg129 O127 1.986 . S
Mg129 O137 2.238 1_455 S
Mg129 O141 2.042 . S
Mg129 O143 2.041 1_455 S
Mg129 O150 2.038 . S
C130 O136 1.247 . S
C130 O137 1.289 . S
C131 O149 1.245 . S
C131 O150 1.274 . S
O132 C120 1.241 . S
O132 Mg125 2.042 1_655 S
O133 C120 1.280 . S
O133 Mg123 1.984 . S
O134 C121 1.277 . S
O134 Mg125 2.041 . S
O135 C121 1.245 . S
O135 Mg123 1.988 1_455 S
O136 Mg123 2.061 . S
O136 C130 1.247 . S
O137 Mg126 2.106 1_655 S
O137 Mg129 2.238 1_655 S
O137 C130 1.289 . S
C138 O139 1.245 . S
C138 O140 1.274 . S
O139 Mg126 2.079 1_655 S
O139 C138 1.245 . S
O140 Mg125 2.038 1_655 S
O140 C138 1.274 . S
O141 Mg129 2.042 . S
O141 C144 1.241 . S
O142 Mg128 1.984 . S
O142 C144 1.280 . S
O143 Mg129 2.041 1_655 S
O143 C147 1.277 . S
C144 O141 1.241 . S
C144 O142 1.280 . S
O145 Mg128 1.988 1_655 S
O145 C147 1.245 . S
O146 C122 1.247 . S
O146 Mg128 2.061 . S
C147 O143 1.277 . S
C147 O145 1.245 . S
O148 C122 1.289 . S
O148 Mg125 2.238 . S
O148 Mg126 2.106 . S
O149 Mg126 2.079 . S
O149 C131 1.245 . S
O150 Mg129 2.038 . S
O150 C131 1.274 . S
C151 O163 1.241 . S
C151 O164 1.280 . S
C152 O165 1.277 . S
C152 O166 1.245 . S
C153 O177 1.247 . S
C153 O179 1.289 . S
Mg154 O155 1.926 . S
Mg154 O164 1.984 . S
Mg154 O166 1.988 1_545 S
Mg154 O167 2.061 . S
O155 Mg154 1.926 . S
O155 Mg156 1.986 . S
O155 Mg157 1.917 . S
Mg156 O155 1.986 . S
Mg156 O163 2.042 . S
Mg156 O165 2.041 1_545 S
Mg156 O171 2.038 . S
Mg156 O179 2.238 1_545 S
Mg157 O155 1.917 . S
Mg157 O158 1.917 1_545 S
Mg157 O168 2.106 . S
Mg157 O170 2.079 . S
Mg157 O179 2.106 1_545 S
Mg157 O180 2.079 1_545 S
O158 Mg157 1.917 1_565 S
O158 Mg159 1.926 . S
O158 Mg160 1.990 . S
Mg159 O158 1.926 . S
Mg159 O173 1.984 . S
Mg159 O176 1.988 1_565 S
Mg159 O177 2.061 . S
Mg160 O158 1.990 . S
Mg160 O168 2.233 1_565 S
Mg160 O172 2.048 . S
Mg160 O174 2.039 1_565 S
Mg160 O181 2.041 . S
C161 O167 1.247 . S
C161 O168 1.289 . S
C162 O180 1.245 . S
C162 O181 1.274 . S
O163 C151 1.241 . S
O163 Mg156 2.042 . S
O164 C151 1.280 . S
O164 Mg154 1.984 . S
O165 C152 1.277 . S
O165 Mg156 2.041 1_565 S
O166 C152 1.245 . S
O166 Mg154 1.988 1_565 S
O167 Mg154 2.061 . S
O167 C161 1.247 . S
O168 Mg157 2.106 . S
O168 Mg160 2.233 1_545 S
O168 C161 1.289 . S
C169 O170 1.245 . S
C169 O171 1.274 . S
O170 Mg157 2.079 . S
O170 C169 1.245 . S
O171 Mg156 2.038 . S
O171 C169 1.274 . S
O172 Mg160 2.048 . S
O172 C175 1.241 . S
O173 Mg159 1.984 . S
O173 C175 1.280 . S
O174 Mg160 2.039 1_545 S
O174 C178 1.277 . S
C175 O172 1.241 . S
C175 O173 1.280 . S
O176 Mg159 1.988 1_545 S
O176 C178 1.245 . S
O177 C153 1.247 . S
O177 Mg159 2.061 . S
C178 O174 1.277 . S
C178 O176 1.245 . S
O179 C153 1.289 . S
O179 Mg156 2.238 1_565 S
O179 Mg157 2.106 1_565 S
O180 Mg157 2.079 1_565 S
O180 C162 1.245 . S
O181 Mg160 2.041 . S
O181 C162 1.274 . S
C182 O194 1.241 . S
C182 O195 1.280 . S
C183 O196 1.277 . S
C183 O197 1.245 . S
C184 O208 1.247 . S
C184 O210 1.289 . S
Mg185 O186 1.926 . S
Mg185 O195 1.984 . S
Mg185 O197 1.988 . S
Mg185 O198 2.061 . S
O186 Mg185 1.926 . S
O186 Mg187 1.986 . S
O186 Mg188 1.917 . S
Mg187 O186 1.986 . S
Mg187 O194 2.042 . S
Mg187 O196 2.041 . S
Mg187 O202 2.038 . S
Mg187 O210 2.238 . S
Mg188 O186 1.917 . S
Mg188 O189 1.917 . S
Mg188 O199 2.106 . S
Mg188 O201 2.079 . S
Mg188 O210 2.106 . S
Mg188 O211 2.079 . S
O189 Mg188 1.917 . S
O189 Mg190 1.926 . S
O189 Mg191 1.986 . S
Mg190 O189 1.926 . S
Mg190 O204 1.984 . S
Mg190 O207 1.988 . S
Mg190 O208 2.061 . S
Mg191 O189 1.986 . S
Mg191 O199 2.238 . S
Mg191 O203 2.042 . S
Mg191 O205 2.041 . S
Mg191 O212 2.038 . S
C192 O198 1.247 . S
C192 O199 1.289 . S
C193 O211 1.245 . S
C193 O212 1.274 . S
O194 C182 1.241 . S
O194 Mg187 2.042 . S
O195 C182 1.280 . S
O195 Mg185 1.984 . S
O196 C183 1.277 . S
O196 Mg187 2.041 . S
O197 C183 1.245 . S
O197 Mg185 1.988 . S
O198 Mg185 2.061 . S
O198 C192 1.247 . S
O199 Mg188 2.106 . S
O199 Mg191 2.238 . S
O199 C192 1.289 . S
C200 O201 1.245 . S
C200 O202 1.274 . S
O201 Mg188 2.079 . S
O201 C200 1.245 . S
O202 Mg187 2.038 . S
O202 C200 1.274 . S
O203 Mg191 2.042 . S
O203 C206 1.241 . S
O204 Mg190 1.984 . S
O204 C206 1.280 . S
O205 Mg191 2.041 . S
O205 C209 1.277 . S
C206 O203 1.241 . S
C206 O204 1.280 . S
O207 Mg190 1.988 . S
O207 C209 1.245 . S
O208 C184 1.247 . S
O208 Mg190 2.061 . S
C209 O205 1.277 . S
C209 O207 1.245 . S
O210 C184 1.289 . S
O210 Mg187 2.238 . S
O210 Mg188 2.106 . S
O211 Mg188 2.079 . S
O211 C193 1.245 . S
O212 Mg191 2.038 . S
O212 C193 1.274 . S
C213 C214 1.369 . S
C213 C215 1.419 . S
C213 H217 0.930 . S
C214 C213 1.369 . S
C214 C223 1.429 . S
C215 C213 1.419 . S
C215 C216 1.363 . S
C215 H218 0.929 . S
C216 C215 1.363 . S
C216 C222 1.428 . S
H217 C213 0.930 . S
H218 C215 0.929 . S
S219 N220 1.613 . S
S219 N221 1.610 . S
N220 S219 1.613 . S
N220 C223 1.350 . S
N221 S219 1.610 . S
N221 C222 1.351 . S
C222 C216 1.428 . S
C222 N221 1.351 . S
C222 C223 1.434 . S
C223 C214 1.429 . S
C223 N220 1.350 . S
C223 C222 1.434 . S
C224 C225 1.369 . S
C224 C226 1.419 . S
C224 H228 0.930 . S
C225 C224 1.369 . S
C225 C234 1.429 . S
C226 C224 1.419 . S
C226 C227 1.363 . S
C226 H229 0.929 . S
C227 C226 1.363 . S
C227 C233 1.428 . S
H228 C224 0.930 . S
H229 C226 0.929 . S
S230 N231 1.613 . S
S230 N232 1.610 . S
N231 S230 1.613 . S
N231 C234 1.350 . S
N232 S230 1.610 . S
N232 C233 1.351 . S
C233 C227 1.428 . S
C233 N232 1.351 . S
C233 C234 1.434 . S
C234 C225 1.429 . S
C234 N231 1.350 . S
C234 C233 1.434 . S
C235 C236 1.369 . S
C235 C237 1.419 . S
C235 H239 0.930 . S
C236 C235 1.369 . S
C236 C245 1.429 . S
C237 C235 1.419 . S
C237 C238 1.363 . S
C237 H240 0.929 . S
C238 C237 1.363 . S
C238 C244 1.428 . S
H239 C235 0.930 . S
H240 C237 0.929 . S
S241 N242 1.613 . S
S241 N243 1.610 . S
N242 S241 1.613 . S
N242 C245 1.350 . S
N243 S241 1.610 . S
N243 C244 1.351 . S
C244 C238 1.428 . S
C244 N243 1.351 . S
C244 C245 1.434 . S
C245 C236 1.429 . S
C245 N242 1.350 . S
C245 C244 1.434 . S
C246 C247 1.369 . S
C246 C248 1.419 . S
C246 H250 0.930 . S
C247 C246 1.369 . S
C247 C256 1.429 . S
C248 C246 1.419 . S
C248 C249 1.363 . S
C248 H251 0.929 . S
C249 C248 1.363 . S
C249 C255 1.428 . S
H250 C246 0.930 . S
H251 C248 0.929 . S
S252 N253 1.613 . S
S252 N254 1.610 . S
N253 S252 1.613 . S
N253 C256 1.350 . S
N254 S252 1.610 . S
N254 C255 1.351 . S
C255 C249 1.428 . S
C255 N254 1.351 . S
C255 C256 1.434 . S
C256 C247 1.429 . S
C256 N253 1.350 . S
C256 C255 1.434 . S
C257 C258 1.369 . S
C257 C259 1.419 . S
C257 H261 0.930 . S
C258 C257 1.369 . S
C258 C267 1.429 . S
C259 C257 1.419 . S
C259 C260 1.363 . S
C259 H262 0.929 . S
C260 C259 1.363 . S
C260 C266 1.428 . S
H261 C257 0.930 . S
H262 C259 0.929 . S
S263 N264 1.613 . S
S263 N265 1.610 . S
N264 S263 1.613 . S
N264 C267 1.350 . S
N265 S263 1.610 . S
N265 C266 1.351 . S
C266 C260 1.428 . S
C266 N265 1.351 . S
C266 C267 1.434 . S
C267 C258 1.429 . S
C267 N264 1.350 . S
C267 C266 1.434 . S
C268 C269 1.369 . S
C268 C270 1.419 . S
C268 H272 0.930 . S
C269 C268 1.369 . S
C269 C278 1.429 . S
C270 C268 1.419 . S
C270 C271 1.363 . S
C270 H273 0.929 . S
C271 C270 1.363 . S
C271 C277 1.428 . S
H272 C268 0.930 . S
H273 C270 0.929 . S
S274 N275 1.613 . S
S274 N276 1.610 . S
N275 S274 1.613 . S
N275 C278 1.350 . S
N276 S274 1.610 . S
N276 C277 1.351 . S
C277 C271 1.428 . S
C277 N276 1.351 . S
C277 C278 1.434 . S
C278 C269 1.429 . S
C278 N275 1.350 . S
C278 C277 1.434 . S
C279 C280 1.369 . S
C279 C281 1.419 . S
C279 H283 0.930 . S
C280 C279 1.369 . S
C280 C289 1.429 . S
C281 C279 1.419 . S
C281 C282 1.363 . S
C281 H284 0.929 . S
C282 C281 1.363 . S
C282 C288 1.428 . S
H283 C279 0.930 . S
H284 C281 0.929 . S
S285 N286 1.613 . S
S285 N287 1.610 . S
N286 S285 1.613 . S
N286 C289 1.350 . S
N287 S285 1.610 . S
N287 C288 1.351 . S
C288 C282 1.428 . S
C288 N287 1.351 . S
C288 C289 1.434 . S
C289 C280 1.429 . S
C289 N286 1.350 . S
C289 C288 1.434 . S
C290 C291 1.369 . S
C290 C292 1.419 . S
C290 H294 0.930 . S
C291 C290 1.369 . S
C291 C300 1.429 . S
C292 C290 1.419 . S
C292 C293 1.363 . S
C292 H295 0.929 . S
C293 C292 1.363 . S
C293 C299 1.428 . S
H294 C290 0.930 . S
H295 C292 0.929 . S
S296 N297 1.613 . S
S296 N298 1.610 . S
N297 S296 1.613 . S
N297 C300 1.350 . S
N298 S296 1.610 . S
N298 C299 1.351 . S
C299 C293 1.428 . S
C299 N298 1.351 . S
C299 C300 1.434 . S
C300 C291 1.429 . S
C300 N297 1.350 . S
C300 C299 1.434 . S
C301 C302 1.369 . S
C301 C303 1.419 . S
C301 H305 0.930 . S
C302 C301 1.369 . S
C302 C311 1.429 . S
C303 C301 1.419 . S
C303 C304 1.363 . S
C303 H306 0.929 . S
C304 C303 1.363 . S
C304 C310 1.428 . S
H305 C301 0.930 . S
H306 C303 0.929 . S
S307 N308 1.613 . S
S307 N309 1.610 1_554 S
N308 S307 1.613 . S
N308 C311 1.350 1_554 S
N309 S307 1.610 1_556 S
N309 C310 1.351 . S
C310 C304 1.428 . S
C310 N309 1.351 . S
C310 C311 1.434 . S
C311 C302 1.429 . S
C311 N308 1.350 1_556 S
C311 C310 1.434 . S
C312 C313 1.369 . S
C312 C314 1.419 1_554 S
C312 H316 0.930 . S
C313 C312 1.369 . S
C313 C322 1.429 . S
C314 C312 1.419 1_556 S
C314 C315 1.363 . S
C314 H317 0.929 . S
C315 C314 1.363 . S
C315 C321 1.428 . S
H316 C312 0.930 . S
H317 C314 0.929 . S
S318 N319 1.613 1_556 S
S318 N320 1.610 . S
N319 S318 1.613 1_554 S
N319 C322 1.350 . S
N320 S318 1.610 . S
N320 C321 1.351 . S
C321 C315 1.428 . S
C321 N320 1.351 . S
C321 C322 1.434 1_556 S
C322 C313 1.429 . S
C322 N319 1.350 . S
C322 C321 1.434 1_554 S
C323 C324 1.369 . S
C323 C325 1.419 . S
C323 H327 0.930 . S
C324 C323 1.369 . S
C324 C333 1.429 1_556 S
C325 C323 1.419 . S
C325 C326 1.363 . S
C325 H328 0.929 . S
C326 C325 1.363 . S
C326 C332 1.428 . S
H327 C323 0.930 . S
H328 C325 0.929 . S
S329 N330 1.613 . S
S329 N331 1.610 . S
N330 S329 1.613 . S
N330 C333 1.350 . S
N331 S329 1.610 . S
N331 C332 1.351 1_554 S
C332 C326 1.428 . S
C332 N331 1.351 1_556 S
C332 C333 1.434 1_556 S
C333 C324 1.429 1_554 S
C333 N330 1.350 . S
C333 C332 1.434 1_554 S
C334 C335 1.369 . S
C334 C336 1.419 . S
C334 H338 0.930 . S
C335 C334 1.369 . S
C335 C344 1.429 1_556 S
C336 C334 1.419 . S
C336 C337 1.363 . S
C336 H339 0.929 . S
C337 C336 1.363 . S
C337 C343 1.428 . S
H338 C334 0.930 . S
H339 C336 0.929 . S
S340 N341 1.613 . S
S340 N342 1.610 . S
N341 S340 1.613 . S
N341 C344 1.350 . S
N342 S340 1.610 . S
N342 C343 1.351 1_554 S
C343 C337 1.428 . S
C343 N342 1.351 1_556 S
C343 C344 1.434 1_556 S
C344 C335 1.429 1_554 S
C344 N341 1.350 . S
C344 C343 1.434 1_554 S
C345 C346 1.369 . S
C345 C347 1.419 . S
C345 H349 0.930 . S
C346 C345 1.369 . S
C346 C355 1.429 . S
C347 C345 1.419 . S
C347 C348 1.363 . S
C347 H350 0.929 . S
C348 C347 1.363 . S
C348 C354 1.428 . S
H349 C345 0.930 . S
H350 C347 0.929 . S
S351 N352 1.613 . S
S351 N353 1.610 . S
N352 S351 1.613 . S
N352 C355 1.350 . S
N353 S351 1.610 . S
N353 C354 1.351 . S
C354 C348 1.428 . S
C354 N353 1.351 . S
C354 C355 1.434 . S
C355 C346 1.429 . S
C355 N352 1.350 . S
C355 C354 1.434 . S
C356 C357 1.369 . S
C356 C358 1.419 . S
C356 H360 0.930 . S
C357 C356 1.369 . S
C357 C366 1.429 . S
C358 C356 1.419 . S
C358 C359 1.363 . S
C358 H361 0.929 . S
C359 C358 1.363 . S
C359 C365 1.428 . S
H360 C356 0.930 . S
H361 C358 0.929 . S
S362 N363 1.613 1_556 S
S362 N364 1.610 . S
N363 S362 1.613 1_554 S
N363 C366 1.350 1_554 S
N364 S362 1.610 . S
N364 C365 1.351 . S
C365 C359 1.428 . S
C365 N364 1.351 . S
C365 C366 1.434 . S
C366 C357 1.429 . S
C366 N363 1.350 1_556 S
C366 C365 1.434 . S
C367 C368 1.369 . S
C367 C369 1.419 . S
C367 H371 0.930 . S
C368 C367 1.369 . S
C368 C377 1.429 1_554 S
C369 C367 1.419 . S
C369 C370 1.363 1_554 S
C369 H372 0.929 . S
C370 C369 1.363 1_556 S
C370 C376 1.428 . S
H371 C367 0.930 . S
H372 C369 0.929 . S
S373 N374 1.613 . S
S373 N375 1.610 . S
N374 S373 1.613 . S
N374 C377 1.350 . S
N375 S373 1.610 . S
N375 C376 1.351 . S
C376 C370 1.428 . S
C376 N375 1.351 . S
C376 C377 1.434 . S
C377 C368 1.429 1_556 S
C377 N374 1.350 . S
C377 C376 1.434 . S
C378 C379 1.369 . S
C378 C380 1.419 1_554 S
C378 H382 0.930 . S
C379 C378 1.369 . S
C379 C388 1.429 1_554 S
C380 C378 1.419 1_556 S
C380 C381 1.363 . S
C380 H383 0.929 . S
C381 C380 1.363 . S
C381 C387 1.428 . S
H382 C378 0.930 . S
H383 C380 0.929 . S
S384 N385 1.613 . S
S384 N386 1.610 . S
N385 S384 1.613 . S
N385 C388 1.350 . S
N386 S384 1.610 . S
N386 C387 1.351 . S
C387 C381 1.428 . S
C387 N386 1.351 . S
C387 C388 1.434 . S
C388 C379 1.429 1_556 S
C388 N385 1.350 . S
C388 C387 1.434 . S
C389 C390 1.369 . S
C389 C391 1.419 . S
C389 H393 0.930 . S
C390 C389 1.369 . S
C390 C399 1.429 . S
C391 C389 1.419 . S
C391 C392 1.363 . S
C391 H394 0.929 . S
C392 C391 1.363 . S
C392 C398 1.428 . S
H393 C389 0.930 . S
H394 C391 0.929 . S
S395 N396 1.613 . S
S395 N397 1.610 . S
N396 S395 1.613 . S
N396 C399 1.350 . S
N397 S395 1.610 . S
N397 C398 1.351 . S
C398 C392 1.428 . S
C398 N397 1.351 . S
C398 C399 1.434 . S
C399 C390 1.429 . S
C399 N396 1.350 . S
C399 C398 1.434 . S
C400 C401 1.369 . S
C400 C402 1.419 . S
C400 H404 0.930 . S
C401 C400 1.369 . S
C401 C410 1.429 . S
C402 C400 1.419 . S
C402 C403 1.363 . S
C402 H405 0.929 . S
C403 C402 1.363 . S
C403 C409 1.428 . S
H404 C400 0.930 . S
H405 C402 0.929 . S
S406 N407 1.613 . S
S406 N408 1.610 . S
N407 S406 1.613 . S
N407 C410 1.350 . S
N408 S406 1.610 . S
N408 C409 1.351 . S
C409 C403 1.428 . S
C409 N408 1.351 . S
C409 C410 1.434 . S
C410 C401 1.429 . S
C410 N407 1.350 . S
C410 C409 1.434 . S
C411 C412 1.369 . S
C411 C413 1.419 . S
C411 H415 0.930 . S
C412 C411 1.369 . S
C412 C421 1.429 . S
C413 C411 1.419 . S
C413 C414 1.363 . S
C413 H416 0.929 . S
C414 C413 1.363 . S
C414 C420 1.428 . S
H415 C411 0.930 . S
H416 C413 0.929 . S
S417 N418 1.613 . S
S417 N419 1.610 . S
N418 S417 1.613 . S
N418 C421 1.350 . S
N419 S417 1.610 . S
N419 C420 1.351 . S
C420 C414 1.428 . S
C420 N419 1.351 . S
C420 C421 1.434 . S
C421 C412 1.429 . S
C421 N418 1.350 . S
C421 C420 1.434 . S
C422 C423 1.369 . S
C422 C424 1.419 . S
C422 H426 0.930 . S
C423 C422 1.369 . S
C423 C432 1.429 . S
C424 C422 1.419 . S
C424 C425 1.363 . S
C424 H427 0.929 . S
C425 C424 1.363 . S
C425 C431 1.428 . S
H426 C422 0.930 . S
H427 C424 0.929 . S
S428 N429 1.613 . S
S428 N430 1.610 . S
N429 S428 1.613 . S
N429 C432 1.350 . S
N430 S428 1.610 . S
N430 C431 1.351 . S
C431 C425 1.428 . S
C431 N430 1.351 . S
C431 C432 1.434 . S
C432 C423 1.429 . S
C432 N429 1.350 . S
C432 C431 1.434 . S
C433 C434 1.369 . S
C433 C435 1.419 . S
C433 H437 0.930 . S
C434 C433 1.369 . S
C434 C443 1.429 . S
C435 C433 1.419 . S
C435 C436 1.363 . S
C435 H438 0.929 . S
C436 C435 1.363 . S
C436 C442 1.428 . S
H437 C433 0.930 . S
H438 C435 0.929 . S
S439 N440 1.613 . S
S439 N441 1.610 . S
N440 S439 1.613 . S
N440 C443 1.350 . S
N441 S439 1.610 . S
N441 C442 1.351 . S
C442 C436 1.428 . S
C442 N441 1.351 . S
C442 C443 1.434 . S
C443 C434 1.429 . S
C443 N440 1.350 . S
C443 C442 1.434 . S
C444 C445 1.369 . S
C444 C446 1.419 . S
C444 H448 0.930 . S
C445 C444 1.369 . S
C445 C454 1.429 . S
C446 C444 1.419 . S
C446 C447 1.363 . S
C446 H449 0.929 . S
C447 C446 1.363 . S
C447 C453 1.428 . S
H448 C444 0.930 . S
H449 C446 0.929 . S
S450 N451 1.613 . S
S450 N452 1.610 . S
N451 S450 1.613 . S
N451 C454 1.350 . S
N452 S450 1.610 . S
N452 C453 1.351 . S
C453 C447 1.428 . S
C453 N452 1.351 . S
C453 C454 1.434 . S
C454 C445 1.429 . S
C454 N451 1.350 . S
C454 C453 1.434 . S
C455 C456 1.369 . S
C455 C457 1.419 . S
C455 H459 0.930 . S
C456 C455 1.369 . S
C456 C465 1.429 . S
C457 C455 1.419 . S
C457 C458 1.363 . S
C457 H460 0.929 . S
C458 C457 1.363 . S
C458 C464 1.428 . S
H459 C455 0.930 . S
H460 C457 0.929 . S
S461 N462 1.613 . S
S461 N463 1.610 . S
N462 S461 1.613 . S
N462 C465 1.350 . S
N463 S461 1.610 . S
N463 C464 1.351 . S
C464 C458 1.428 . S
C464 N463 1.351 . S
C464 C465 1.434 . S
C465 C456 1.429 . S
C465 N462 1.350 . S
C465 C464 1.434 . S
C466 C467 1.369 . S
C466 C468 1.419 . S
C466 H470 0.930 . S
C467 C466 1.369 . S
C467 C476 1.429 . S
C468 C466 1.419 . S
C468 C469 1.363 . S
C468 H471 0.929 . S
C469 C468 1.363 . S
C469 C475 1.428 . S
H470 C466 0.930 . S
H471 C468 0.929 . S
S472 N473 1.613 . S
S472 N474 1.610 . S
N473 S472 1.613 . S
N473 C476 1.350 . S
N474 S472 1.610 . S
N474 C475 1.351 . S
C475 C469 1.428 . S
C475 N474 1.351 . S
C475 C476 1.434 . S
C476 C467 1.429 . S
C476 N473 1.350 . S
C476 C475 1.434 . S
C214 C12 1.885 . S
C216 C131 1.864 . S
C225 C32 1.645 . S
C227 C178 1.648 . S
C238 C182 1.741 . S
C236 C52 1.805 . S
C249 C147 1.574 . S
C247 C75 1.573 . S
C258 C95 1.812 . S
C260 C162 1.800 . S
C271 C184 1.333 . S
C269 C115 1.275 . S
C282 C153 1.600 . S
C280 C58 1.619 . S
C291 C69 1.517 . S
C293 C193 1.593 . S
C304 C122 1.507 . S
C302 C89 1.483 1_556 S
C313 C109 1.502 . S
C315 C151 1.504 . S
C324 C18 1.873 1_556 S
C326 C209 1.816 . S
C337 C120 1.567 . S
C335 C38 1.572 1_556 S
C348 C138 1.818 . S
C346 C78 1.844 . S
C359 C152 1.627 . S
C357 C98 1.620 1_556 S
C370 C206 1.716 . S
C368 C118 1.774 . S
C381 C121 1.562 . S
C379 C9 1.575 . S
C392 C169 1.755 . S
C390 C29 1.813 1_556 S
C401 C49 1.266 . S
C403 C192 1.307 . S
C414 C161 1.578 . S
C412 C112 1.582 . S
C425 C200 1.547 . S
C423 C15 1.521 . S
C436 C130 1.468 . S
C434 C35 1.490 . S
C447 C175 1.490 . S
C445 C55 1.496 . S
C456 C72 1.851 . S
C458 C183 1.797 . S
C467 C92 1.546 . S
C469 C144 1.545 . S
