# Generated by pormake.
# Topology ptr, (4,4)-cn, num edge types: 1
# Building blocks:
#     Node 0, Type 0, BuildingBlock: QUQFOY_clean_sbu_3, # of connection points: 4
#     Node 1, Type 0, BuildingBlock: QUQFOY_clean_sbu_3, # of connection points: 4
#     Node 2, Type 0, BuildingBlock: QUQFOY_clean_sbu_3, # of connection points: 4
#     Node 3, Type 0, BuildingBlock: QUQFOY_clean_sbu_3, # of connection points: 4
#     Node 4, Type 0, BuildingBlock: QUQFOY_clean_sbu_3, # of connection points: 4
#     Node 5, Type 0, BuildingBlock: QUQFOY_clean_sbu_3, # of connection points: 4
#     Node 6, Type 0, BuildingBlock: QUQFOY_clean_sbu_3, # of connection points: 4
#     Node 7, Type 0, BuildingBlock: QUQFOY_clean_sbu_3, # of connection points: 4
#     Node 8, Type 0, BuildingBlock: QUQFOY_clean_sbu_3, # of connection points: 4
#     Node 9, Type 0, BuildingBlock: QUQFOY_clean_sbu_3, # of connection points: 4
#     Node 10, Type 0, BuildingBlock: QUQFOY_clean_sbu_3, # of connection points: 4
#     Node 11, Type 0, BuildingBlock: QUQFOY_clean_sbu_3, # of connection points: 4
#     Node 12, Type 0, BuildingBlock: QUQFOY_clean_sbu_3, # of connection points: 4
#     Node 13, Type 0, BuildingBlock: QUQFOY_clean_sbu_3, # of connection points: 4
#     Node 14, Type 0, BuildingBlock: QUQFOY_clean_sbu_3, # of connection points: 4
#     Node 15, Type 0, BuildingBlock: QUQFOY_clean_sbu_3, # of connection points: 4
#     Node 16, Type 0, BuildingBlock: QUQFOY_clean_sbu_3, # of connection points: 4
#     Node 17, Type 0, BuildingBlock: QUQFOY_clean_sbu_3, # of connection points: 4
#     Node 18, Type 1, BuildingBlock: MIFKUJ_clean_linker_1, # of connection points: 4
#     Node 19, Type 1, BuildingBlock: MIFKUJ_clean_linker_1, # of connection points: 4
#     Node 20, Type 1, BuildingBlock: MIFKUJ_clean_linker_1, # of connection points: 4
#     Node 21, Type 1, BuildingBlock: MIFKUJ_clean_linker_1, # of connection points: 4
#     Node 22, Type 1, BuildingBlock: MIFKUJ_clean_linker_1, # of connection points: 4
#     Node 23, Type 1, BuildingBlock: MIFKUJ_clean_linker_1, # of connection points: 4
#     Node 24, Type 1, BuildingBlock: MIFKUJ_clean_linker_1, # of connection points: 4
#     Node 25, Type 1, BuildingBlock: MIFKUJ_clean_linker_1, # of connection points: 4
#     Node 26, Type 1, BuildingBlock: MIFKUJ_clean_linker_1, # of connection points: 4
#     Node 27, Type 1, BuildingBlock: MIFKUJ_clean_linker_1, # of connection points: 4
#     Node 28, Type 1, BuildingBlock: MIFKUJ_clean_linker_1, # of connection points: 4
#     Node 29, Type 1, BuildingBlock: MIFKUJ_clean_linker_1, # of connection points: 4
#     Node 30, Type 1, BuildingBlock: MIFKUJ_clean_linker_1, # of connection points: 4
#     Node 31, Type 1, BuildingBlock: MIFKUJ_clean_linker_1, # of connection points: 4
#     Node 32, Type 1, BuildingBlock: MIFKUJ_clean_linker_1, # of connection points: 4
#     Node 33, Type 1, BuildingBlock: MIFKUJ_clean_linker_1, # of connection points: 4
#     Node 34, Type 1, BuildingBlock: MIFKUJ_clean_linker_1, # of connection points: 4
#     Node 35, Type 1, BuildingBlock: MIFKUJ_clean_linker_1, # of connection points: 4
#     Edge 36, Type (0, 1), BuildingBlock: KIFKEQ_clean_linker_1, # of connection points: 2
#     Edge 37, Type (0, 1), BuildingBlock: KIFKEQ_clean_linker_1, # of connection points: 2
#     Edge 38, Type (0, 1), BuildingBlock: KIFKEQ_clean_linker_1, # of connection points: 2
#     Edge 39, Type (0, 1), BuildingBlock: KIFKEQ_clean_linker_1, # of connection points: 2
#     Edge 40, Type (0, 1), BuildingBlock: KIFKEQ_clean_linker_1, # of connection points: 2
#     Edge 41, Type (0, 1), BuildingBlock: KIFKEQ_clean_linker_1, # of connection points: 2
#     Edge 42, Type (0, 1), BuildingBlock: KIFKEQ_clean_linker_1, # of connection points: 2
#     Edge 43, Type (0, 1), BuildingBlock: KIFKEQ_clean_linker_1, # of connection points: 2
#     Edge 44, Type (0, 1), BuildingBlock: KIFKEQ_clean_linker_1, # of connection points: 2
#     Edge 45, Type (0, 1), BuildingBlock: KIFKEQ_clean_linker_1, # of connection points: 2
#     Edge 46, Type (0, 1), BuildingBlock: KIFKEQ_clean_linker_1, # of connection points: 2
#     Edge 47, Type (0, 1), BuildingBlock: KIFKEQ_clean_linker_1, # of connection points: 2
#     Edge 48, Type (0, 1), BuildingBlock: KIFKEQ_clean_linker_1, # of connection points: 2
#     Edge 49, Type (0, 1), BuildingBlock: KIFKEQ_clean_linker_1, # of connection points: 2
#     Edge 50, Type (0, 1), BuildingBlock: KIFKEQ_clean_linker_1, # of connection points: 2
#     Edge 51, Type (0, 1), BuildingBlock: KIFKEQ_clean_linker_1, # of connection points: 2
#     Edge 52, Type (0, 1), BuildingBlock: KIFKEQ_clean_linker_1, # of connection points: 2
#     Edge 53, Type (0, 1), BuildingBlock: KIFKEQ_clean_linker_1, # of connection points: 2
#     Edge 54, Type (0, 1), BuildingBlock: KIFKEQ_clean_linker_1, # of connection points: 2
#     Edge 55, Type (0, 1), BuildingBlock: KIFKEQ_clean_linker_1, # of connection points: 2
#     Edge 56, Type (0, 1), BuildingBlock: KIFKEQ_clean_linker_1, # of connection points: 2
#     Edge 57, Type (0, 1), BuildingBlock: KIFKEQ_clean_linker_1, # of connection points: 2
#     Edge 58, Type (0, 1), BuildingBlock: KIFKEQ_clean_linker_1, # of connection points: 2
#     Edge 59, Type (0, 1), BuildingBlock: KIFKEQ_clean_linker_1, # of connection points: 2
#     Edge 60, Type (0, 1), BuildingBlock: KIFKEQ_clean_linker_1, # of connection points: 2
#     Edge 61, Type (0, 1), BuildingBlock: KIFKEQ_clean_linker_1, # of connection points: 2
#     Edge 62, Type (0, 1), BuildingBlock: KIFKEQ_clean_linker_1, # of connection points: 2
#     Edge 63, Type (0, 1), BuildingBlock: KIFKEQ_clean_linker_1, # of connection points: 2
#     Edge 64, Type (0, 1), BuildingBlock: KIFKEQ_clean_linker_1, # of connection points: 2
#     Edge 65, Type (0, 1), BuildingBlock: KIFKEQ_clean_linker_1, # of connection points: 2
#     Edge 66, Type (0, 1), BuildingBlock: KIFKEQ_clean_linker_1, # of connection points: 2
#     Edge 67, Type (0, 1), BuildingBlock: KIFKEQ_clean_linker_1, # of connection points: 2
#     Edge 68, Type (0, 1), BuildingBlock: KIFKEQ_clean_linker_1, # of connection points: 2
#     Edge 69, Type (0, 1), BuildingBlock: KIFKEQ_clean_linker_1, # of connection points: 2
#     Edge 70, Type (0, 1), BuildingBlock: KIFKEQ_clean_linker_1, # of connection points: 2
#     Edge 71, Type (0, 1), BuildingBlock: KIFKEQ_clean_linker_1, # of connection points: 2
#     Edge 72, Type (0, 1), BuildingBlock: KIFKEQ_clean_linker_1, # of connection points: 2
#     Edge 73, Type (0, 1), BuildingBlock: KIFKEQ_clean_linker_1, # of connection points: 2
#     Edge 74, Type (0, 1), BuildingBlock: KIFKEQ_clean_linker_1, # of connection points: 2
#     Edge 75, Type (0, 1), BuildingBlock: KIFKEQ_clean_linker_1, # of connection points: 2
#     Edge 76, Type (0, 1), BuildingBlock: KIFKEQ_clean_linker_1, # of connection points: 2
#     Edge 77, Type (0, 1), BuildingBlock: KIFKEQ_clean_linker_1, # of connection points: 2
#     Edge 78, Type (0, 1), BuildingBlock: KIFKEQ_clean_linker_1, # of connection points: 2
#     Edge 79, Type (0, 1), BuildingBlock: KIFKEQ_clean_linker_1, # of connection points: 2
#     Edge 80, Type (0, 1), BuildingBlock: KIFKEQ_clean_linker_1, # of connection points: 2
#     Edge 81, Type (0, 1), BuildingBlock: KIFKEQ_clean_linker_1, # of connection points: 2
#     Edge 82, Type (0, 1), BuildingBlock: KIFKEQ_clean_linker_1, # of connection points: 2
#     Edge 83, Type (0, 1), BuildingBlock: KIFKEQ_clean_linker_1, # of connection points: 2
#     Edge 84, Type (0, 1), BuildingBlock: KIFKEQ_clean_linker_1, # of connection points: 2
#     Edge 85, Type (0, 1), BuildingBlock: KIFKEQ_clean_linker_1, # of connection points: 2
#     Edge 86, Type (0, 1), BuildingBlock: KIFKEQ_clean_linker_1, # of connection points: 2
#     Edge 87, Type (0, 1), BuildingBlock: KIFKEQ_clean_linker_1, # of connection points: 2
#     Edge 88, Type (0, 1), BuildingBlock: KIFKEQ_clean_linker_1, # of connection points: 2
#     Edge 89, Type (0, 1), BuildingBlock: KIFKEQ_clean_linker_1, # of connection points: 2
#     Edge 90, Type (0, 1), BuildingBlock: KIFKEQ_clean_linker_1, # of connection points: 2
#     Edge 91, Type (0, 1), BuildingBlock: KIFKEQ_clean_linker_1, # of connection points: 2
#     Edge 92, Type (0, 1), BuildingBlock: KIFKEQ_clean_linker_1, # of connection points: 2
#     Edge 93, Type (0, 1), BuildingBlock: KIFKEQ_clean_linker_1, # of connection points: 2
#     Edge 94, Type (0, 1), BuildingBlock: KIFKEQ_clean_linker_1, # of connection points: 2
#     Edge 95, Type (0, 1), BuildingBlock: KIFKEQ_clean_linker_1, # of connection points: 2
#     Edge 96, Type (0, 1), BuildingBlock: KIFKEQ_clean_linker_1, # of connection points: 2
#     Edge 97, Type (0, 1), BuildingBlock: KIFKEQ_clean_linker_1, # of connection points: 2
#     Edge 98, Type (0, 1), BuildingBlock: KIFKEQ_clean_linker_1, # of connection points: 2
#     Edge 99, Type (0, 1), BuildingBlock: KIFKEQ_clean_linker_1, # of connection points: 2
#     Edge 100, Type (0, 1), BuildingBlock: KIFKEQ_clean_linker_1, # of connection points: 2
#     Edge 101, Type (0, 1), BuildingBlock: KIFKEQ_clean_linker_1, # of connection points: 2
#     Edge 102, Type (0, 1), BuildingBlock: KIFKEQ_clean_linker_1, # of connection points: 2
#     Edge 103, Type (0, 1), BuildingBlock: KIFKEQ_clean_linker_1, # of connection points: 2
#     Edge 104, Type (0, 1), BuildingBlock: KIFKEQ_clean_linker_1, # of connection points: 2
#     Edge 105, Type (0, 1), BuildingBlock: KIFKEQ_clean_linker_1, # of connection points: 2
#     Edge 106, Type (0, 1), BuildingBlock: KIFKEQ_clean_linker_1, # of connection points: 2
#     Edge 107, Type (0, 1), BuildingBlock: KIFKEQ_clean_linker_1, # of connection points: 2
# Relax obj value: 0.033
# Max RMSD: 0.122
# Mean RMSD: 0.057
data_MOF--net-ptr--node1-QUQFOY_clean_sbu_3--node2-MIFKUJ_clean_linker_1--edge1-KIFKEQ_clean_linker_1
_symmetry_space_group_name_H-M    P1
_symmetry_Int_Tables_number       1
_symmetry_cell_setting            triclinic
loop_
_symmetry_equiv_pos_as_xyz
'x, y, z'
_cell_length_a     92.015097
_cell_length_b     92.44615
_cell_length_c     63.749583
_cell_angle_alpha  90.343404
_cell_angle_beta   89.539777
_cell_angle_gamma 120.53408
loop_
_atom_site_label
_atom_site_type_symbol
_atom_site_fract_x
_atom_site_fract_y
_atom_site_fract_z
_atom_type_partial_charge
C0 C 0.96325 0.31826 0.00037 0.0
O1 O 0.95559 0.32501 0.00881 0.0
Cd2 Cd 0.96988 0.3523 0.02463 0.0
O3 O 0.97926 0.32536 0.00155 0.0
Cd4 Cd 0.00324 0.35047 0.01833 0.0
C5 C -0.00219 0.37488 0.98421 0.0
O6 O 0.98956 0.35381 0.04977 0.0
O7 O 0.01339 0.37521 0.04051 0.0
O8 O 0.01072 0.33117 0.03346 0.0
C9 C 0.0014 0.36864 0.05373 0.0
O10 O 0.98514 0.37141 0.99589 0.0
C11 C 0.0262 0.33925 0.02832 0.0
O12 O 0.00674 0.36815 0.98754 0.0
O13 O 0.03117 0.35257 0.01765 0.0
C14 C 0.63556 0.67395 0.02689 0.0
O15 O 0.61971 0.66563 0.02427 0.0
Cd16 Cd 0.60503 0.63883 0.00753 0.0
O17 O 0.64487 0.66839 0.02009 0.0
Cd18 Cd 0.64095 0.64293 0.00121 0.0
C19 C 0.61706 0.61787 0.04107 0.0
O20 O 0.61961 0.63953 0.97582 0.0
O21 O 0.62327 0.6184 0.97929 0.0
O22 O 0.66563 0.66079 0.97979 0.0
C23 C 0.61636 0.62518 0.96945 0.0
O24 O 0.6056 0.62038 0.0341 0.0
C25 C 0.67377 0.65354 0.98436 0.0
O26 O 0.6317 0.62501 0.03267 0.0
O27 O 0.66674 0.64134 0.99714 0.0
C28 C 0.31528 0.95852 0.01622 0.0
O29 O 0.32217 0.95061 0.00898 0.0
Cd30 Cd 0.35062 0.96451 0.99655 0.0
O31 O 0.32293 0.9745 0.01537 0.0
Cd32 Cd 0.34932 -0.00156 0.00112 0.0
C33 C 0.37024 0.99125 0.03877 0.0
O34 O 0.35328 0.98443 0.97091 0.0
O35 O 0.37447 0.00858 0.97939 0.0
O36 O 0.33108 0.00699 0.98536 0.0
C37 C 0.36813 0.99623 0.96682 0.0
O38 O 0.36685 0.97824 0.02803 0.0
C39 C 0.33928 0.02214 0.99148 0.0
O40 O 0.36516 0.00113 0.03306 0.0
O41 O 0.35221 0.02638 0.00272 0.0
C42 C 0.9503 0.63879 -0.00094 0.0
O43 O 0.94183 0.62408 0.00653 0.0
Cd44 Cd 0.95579 0.60949 0.01734 0.0
O45 O 0.96635 0.6467 -0.0004 0.0
Cd46 Cd 0.98965 0.64383 0.01428 0.0
C47 C 0.98288 0.61667 0.97531 0.0
O48 O 0.97571 0.62523 0.04432 0.0
O49 O -0.00076 0.62773 0.03368 0.0
O50 O -0.0022 0.66993 0.03225 0.0
C51 C 0.98738 0.62194 0.04711 0.0
O52 O 0.96952 0.60693 0.98563 0.0
C53 C 0.01309 0.67764 0.02626 0.0
O54 O 0.99296 0.6316 0.98163 0.0
O55 O 0.01768 0.66967 0.01419 0.0
C56 C 0.31945 0.35925 0.03145 0.0
O57 O 0.32627 0.37432 0.02511 0.0
Cd58 Cd 0.35324 0.38888 0.00818 0.0
O59 O 0.32633 0.3505 0.02777 0.0
Cd60 Cd 0.35106 0.35286 0.00861 0.0
C61 C 0.37729 0.38181 0.04368 0.0
O62 O 0.35178 0.37091 0.98032 0.0
O63 O 0.37273 0.36663 0.98164 0.0
O64 O 0.33168 0.32534 0.99403 0.0
C65 C 0.36542 0.3732 0.97225 0.0
O66 O 0.37318 0.39162 0.0351 0.0
C67 C 0.34064 0.3189 -0.00176 0.0
O68 O 0.37083 0.36661 0.03764 0.0
O69 O 0.35433 0.32814 0.00799 0.0
C70 C 0.68181 0.0365 -0.00225 0.0
O71 O 0.67498 0.0444 0.00521 0.0
Cd72 Cd 0.64676 0.03053 0.01905 0.0
O73 O 0.67419 0.02054 -0.00115 0.0
Cd74 Cd 0.6477 -0.00298 0.01391 0.0
C75 C 0.62548 0.00379 0.97755 0.0
O76 O 0.64339 0.01047 0.04485 0.0
O77 O 0.62192 0.9872 0.03442 0.0
O78 O 0.66572 0.98857 0.03076 0.0
C79 C 0.62823 -0.00113 0.04796 0.0
O80 O 0.6286 0.01629 0.98919 0.0
C81 C 0.65772 0.97336 0.02485 0.0
O82 O 0.63179 0.99462 0.98169 0.0
O83 O 0.645 0.96898 0.01313 0.0
C84 C 0.62883 0.6544 0.32646 0.0
O85 O 0.62083 0.66161 0.33222 0.0
Cd86 Cd 0.63375 0.68866 0.34882 0.0
O87 O 0.64455 0.66116 0.33017 0.0
Cd88 Cd 0.6671 0.68665 0.34805 0.0
C89 C 0.66479 0.71231 0.31242 0.0
O90 O 0.65073 0.689 0.37705 0.0
O91 O 0.67502 0.71092 0.37084 0.0
O92 O 0.67492 0.66881 0.36663 0.0
C93 C 0.662 0.70369 0.38246 0.0
O94 O 0.65144 0.70917 0.32237 0.0
C95 C 0.69031 0.67644 0.36107 0.0
O96 O 0.67275 0.7048 0.31706 0.0
O97 O 0.6951 0.68888 0.34878 0.0
C98 C 0.30077 0.01139 0.3562 0.0
O99 O 0.28553 0.00406 0.35023 0.0
Cd100 Cd 0.27145 0.97697 0.33378 0.0
O101 O 0.3098 0.0048 0.35262 0.0
Cd102 Cd 0.3066 0.97936 0.33464 0.0
C103 C 0.27837 0.95415 0.37081 0.0
O104 O 0.28826 0.97671 0.30522 0.0
O105 O 0.29008 0.9549 0.31225 0.0
O106 O 0.33363 -0.00273 0.3175 0.0
C107 C 0.28476 0.962 0.30014 0.0
O108 O 0.26808 0.95689 0.36081 0.0
C109 C 0.34022 0.98862 0.32255 0.0
O110 O 0.29397 0.96175 0.36585 0.0
O111 O 0.33131 0.97575 0.33383 0.0
C112 C 0.98911 0.30008 0.36746 0.0
O113 O -0.00278 0.29238 0.36573 0.0
Cd114 Cd 0.02415 0.30338 0.34932 0.0
O115 O -0.00489 0.31489 0.36026 0.0
Cd116 Cd 0.02127 0.33625 0.34218 0.0
C117 C 0.04604 0.33711 0.38208 0.0
O118 O 0.02255 0.31649 0.31782 0.0
O119 O 0.04336 0.34202 0.31627 0.0
O120 O 0.00349 0.34459 0.32397 0.0
C121 C 0.03612 0.32723 0.3089 0.0
O122 O 0.04288 0.32272 0.37575 0.0
C123 C 0.01276 0.36015 0.32788 0.0
O124 O 0.03956 0.34476 0.3731 0.0
O125 O 0.02586 0.36455 0.33878 0.0
C126 C 0.62246 0.96491 0.32392 0.0
O127 O 0.6156 0.94945 0.32855 0.0
Cd128 Cd 0.62871 0.93734 0.34862 0.0
O129 O 0.63756 0.97534 0.32939 0.0
Cd130 Cd 0.66103 0.97496 0.34769 0.0
C131 C 0.66106 0.94604 0.31431 0.0
O132 O 0.64382 0.95658 0.37617 0.0
O133 O 0.66982 0.96287 0.37544 0.0
O134 O 0.66815 0.0023 0.36169 0.0
C135 C 0.65561 0.95545 0.38466 0.0
O136 O 0.64785 0.93531 0.32409 0.0
C137 C 0.68367 0.00963 0.35671 0.0
O138 O 0.66795 0.96168 0.31845 0.0
O139 O 0.68867 0.00091 0.34696 0.0
C140 C 0.98983 0.69418 0.36392 0.0
O141 O -0.00209 0.70979 0.35996 0.0
Cd142 Cd 0.02432 0.72379 0.34159 0.0
O143 O -0.00433 0.68487 0.35823 0.0
Cd144 Cd 0.02105 0.68835 0.33977 0.0
C145 C 0.0481 0.71575 0.37547 0.0
O146 O 0.02216 0.70691 0.31189 0.0
O147 O 0.0443 0.7048 0.31528 0.0
O148 O 0.00246 0.66151 0.32294 0.0
C149 C 0.03642 0.71023 0.30479 0.0
O150 O 0.04565 0.72652 0.36629 0.0
C151 C 0.01143 0.65503 0.3268 0.0
O152 O 0.03965 0.70027 0.37038 0.0
O153 O 0.02481 0.66392 0.33727 0.0
C154 C 0.34628 0.36884 0.32451 0.0
O155 O 0.33857 0.37652 0.32939 0.0
Cd156 Cd 0.31103 0.36312 0.34458 0.0
O157 O 0.33987 0.35332 0.32892 0.0
Cd158 Cd 0.31438 0.33094 0.34778 0.0
C159 C 0.28913 0.33073 0.30936 0.0
O160 O 0.31158 0.34833 0.37501 0.0
O161 O 0.2904 0.32322 0.37126 0.0
O162 O 0.33317 0.32392 0.3661 0.0
C163 C 0.29729 0.33685 0.38156 0.0
O164 O 0.29239 0.34485 0.31693 0.0
C165 C 0.32482 0.30831 0.36215 0.0
O166 O 0.29576 0.32275 0.31706 0.0
O167 O 0.3117 0.30315 0.35101 0.0
C168 C 0.29488 0.9887 0.66296 0.0
O169 O 0.28725 0.99641 0.66818 0.0
Cd170 Cd 0.29991 0.02337 0.68511 0.0
O171 O 0.31047 0.99494 0.66712 0.0
Cd172 Cd 0.33328 0.02029 0.68502 0.0
C173 C 0.33176 0.0469 0.64971 0.0
O174 O 0.31627 0.02261 0.71323 0.0
O175 O 0.34177 0.04338 0.70997 0.0
O176 O 0.34169 0.00254 0.70293 0.0
C177 C 0.32794 0.03662 0.72005 0.0
O178 O 0.31831 0.04395 0.65924 0.0
C179 C 0.35703 0.01057 0.69712 0.0
O180 O 0.33938 0.03909 0.65458 0.0
O181 O 0.36134 0.02294 0.68488 0.0
C182 C 0.96851 0.34411 0.68386 0.0
O183 O 0.95355 0.33692 0.67686 0.0
Cd184 Cd 0.9397 0.30933 0.66232 0.0
O185 O 0.97755 0.33737 0.68142 0.0
Cd186 Cd 0.97547 0.31223 0.66328 0.0
C187 C 0.94801 0.28816 0.70084 0.0
O188 O 0.9567 0.3088 0.63423 0.0
O189 O 0.95928 0.28741 0.6411 0.0
O190 O 0.00188 0.3305 0.64506 0.0
C191 C 0.95343 0.29416 0.62921 0.0
O192 O 0.9378 0.29141 0.69152 0.0
C193 C 0.0094 0.32285 0.65066 0.0
O194 O 0.9632 0.29444 0.69443 0.0
O195 O 0.00128 0.31032 0.66275 0.0
C196 C 0.64718 0.62475 0.68766 0.0
O197 O 0.65445 0.61703 0.681 0.0
Cd198 Cd 0.68168 0.63093 0.66442 0.0
O199 O 0.65385 0.64047 0.68475 0.0
Cd200 Cd 0.6787 0.66382 0.66743 0.0
C201 C 0.70469 0.66119 0.70192 0.0
O202 O 0.68114 0.64844 0.63751 0.0
O203 O 0.70218 0.67339 0.64296 0.0
O204 O 0.65915 0.67112 0.65268 0.0
C205 C 0.6954 0.66035 0.63153 0.0
O206 O 0.70159 0.64808 0.69162 0.0
C207 C 0.66735 0.68648 0.65794 0.0
O208 O 0.69719 0.66919 0.69757 0.0
O209 O 0.68086 0.69137 0.66822 0.0
C210 C 0.2861 0.29902 0.66084 0.0
O211 O 0.2785 0.28373 0.66647 0.0
Cd212 Cd 0.2922 0.27078 0.68358 0.0
O213 O 0.30167 0.30872 0.66492 0.0
Cd214 Cd 0.32479 0.30791 0.68353 0.0
C215 C 0.32465 0.28009 0.64863 0.0
O216 O 0.30767 0.28899 0.71182 0.0
O217 O 0.33353 0.29485 0.71001 0.0
O218 O 0.33163 0.33488 0.69847 0.0
C219 C 0.31948 0.2875 0.7196 0.0
O220 O 0.31117 0.2692 0.65786 0.0
C221 C 0.34726 0.34231 0.69408 0.0
O222 O 0.33183 0.29556 0.6537 0.0
O223 O 0.35248 0.33383 0.68418 0.0
C224 C 0.66202 0.03037 0.69129 0.0
O225 O 0.67064 0.04574 0.68607 0.0
Cd226 Cd 0.69721 0.05802 0.668 0.0
O227 O 0.66714 0.02025 0.68677 0.0
Cd228 Cd 0.69103 0.02054 0.66829 0.0
C229 C 0.71975 0.04851 0.70245 0.0
O230 O 0.69259 0.0389 0.6401 0.0
O231 O 0.71231 0.03284 0.64007 0.0
O232 O 0.66982 0.99324 0.65487 0.0
C233 C 0.70548 0.04009 0.63116 0.0
O234 O 0.71777 0.05953 0.69312 0.0
C235 C 0.67804 0.98593 0.65863 0.0
O236 O 0.7108 0.03301 0.69766 0.0
O237 O 0.69224 0.99463 0.66752 0.0
C238 C 0.0129 0.7006 0.66217 0.0
O239 O 0.00617 0.70891 0.66848 0.0
Cd240 Cd 0.97831 0.69649 0.68278 0.0
O241 O 0.00517 0.68469 0.66435 0.0
Cd242 Cd 0.97828 0.66212 0.68028 0.0
C243 C 0.95575 0.66807 0.64329 0.0
O244 O 0.97629 0.67803 0.71002 0.0
O245 O 0.95398 0.65427 0.70327 0.0
O246 O -0.00439 0.65261 0.69676 0.0
C247 C 0.9614 0.66695 0.71524 0.0
O248 O 0.95958 0.68134 0.6537 0.0
C249 C 0.98648 0.63724 0.69188 0.0
O250 O 0.96151 0.65865 0.64857 0.0
O251 O 0.97354 0.63329 0.6808 0.0
H252 H 0.1302 0.32349 0.165 0.0
H253 H 0.10986 0.32622 0.18679 0.0
H254 H 0.08666 0.27387 0.20411 0.0
H255 H 0.10758 0.27149 0.18278 0.0
H256 H 0.14259 0.29101 0.18964 0.0
H257 H 0.14583 0.32727 0.1147 0.0
H258 H 0.12722 0.33288 0.09355 0.0
H259 H 0.08455 0.28543 0.11296 0.0
H260 H 0.10324 0.27989 0.1341 0.0
H261 H 0.16783 0.28544 0.10784 0.0
H262 H 0.19423 0.29319 0.08936 0.0
H263 H 0.22206 0.33094 0.1364 0.0
H264 H 0.19563 0.32349 0.15454 0.0
H265 H 0.1546 0.30473 0.11411 0.0
H266 H 0.17721 0.27857 0.15887 0.0
H267 H 0.19919 0.2795 0.18147 0.0
H268 H 0.19206 0.31108 0.22534 0.0
H269 H 0.17104 0.31113 0.20234 0.0
C270 C 0.12032 0.29727 0.17224 0.0
C271 C 0.12054 0.31253 0.17322 0.0
C272 C 0.10882 0.31404 0.18564 0.0
C273 C 0.0966 0.30027 0.1973 0.0
C274 C 0.09606 0.28481 0.19565 0.0
C275 C 0.10792 0.28337 0.18336 0.0
C276 C 0.13402 0.29641 0.16109 0.0
C277 C 0.14522 0.29382 0.17307 0.0
C278 C 0.13729 0.30017 0.13952 0.0
C279 C 0.12594 0.30322 0.12615 0.0
C280 C 0.13249 0.318 0.11426 0.0
C281 C 0.12183 0.32118 0.10213 0.0
C282 C 0.10438 0.30963 0.10161 0.0
C283 C 0.09789 0.29471 0.11328 0.0
C284 C 0.10856 0.29152 0.12536 0.0
C285 C 0.17977 0.30375 0.13269 0.0
C286 C 0.17963 0.29532 0.11424 0.0
C287 C 0.19467 0.29974 0.10371 0.0
C288 C 0.21013 0.31261 0.11153 0.0
C289 C 0.21032 0.32081 0.13023 0.0
C290 C 0.19524 0.31655 0.1406 0.0
C291 C 0.16365 0.29991 0.14281 0.0
C292 C 0.15194 0.3016 0.13061 0.0
C293 C 0.16025 0.29588 0.16441 0.0
C294 C 0.17255 0.29498 0.17866 0.0
C295 C 0.18045 0.28582 0.17325 0.0
C296 C 0.19291 0.28624 0.18619 0.0
C297 C 0.19718 0.29531 0.2051 0.0
C298 C 0.18883 0.30387 0.21092 0.0
C299 C 0.17677 0.30384 0.19777 0.0
H300 H 0.7197 0.88271 0.18183 0.0
H301 H 0.71575 0.90096 0.2062 0.0
H302 H 0.6681 0.88673 0.17689 0.0
H303 H 0.67162 0.86779 0.15357 0.0
H304 H 0.70047 0.84992 0.18136 0.0
H305 H 0.71411 0.89325 0.12903 0.0
H306 H 0.70853 0.91242 0.10901 0.0
H307 H 0.66302 0.87002 0.08456 0.0
H308 H 0.66827 0.85107 0.1052 0.0
H309 H 0.66776 0.81425 0.10612 0.0
H310 H 0.66015 0.78839 0.08784 0.0
H311 H 0.70203 0.78738 0.11669 0.0
H312 H 0.71065 0.81441 0.13337 0.0
H313 H 0.69124 0.8434 0.10463 0.0
H314 H 0.67119 0.80145 0.15891 0.0
H315 H 0.66956 0.78046 0.18353 0.0
H316 H 0.71912 0.81628 0.20668 0.0
H317 H 0.72087 0.83714 0.18171 0.0
C318 C 0.69603 0.87394 0.16573 0.0
C319 C 0.70851 0.88371 0.1805 0.0
C320 C 0.70629 0.89426 0.19432 0.0
C321 C 0.69153 0.89524 0.19364 0.0
C322 C 0.67949 0.88609 0.1781 0.0
C323 C 0.68161 0.87541 0.16448 0.0
C324 C 0.6971 0.86081 0.15339 0.0
C325 C 0.69884 0.84868 0.16447 0.0
C326 C 0.69435 0.85888 0.13147 0.0
C327 C 0.69157 0.87071 0.11876 0.0
C328 C 0.7029 0.88811 0.11944 0.0
C329 C 0.69976 0.89904 0.10782 0.0
C330 C 0.68528 0.89277 0.09522 0.0
C331 C 0.67415 0.87532 0.09434 0.0
C332 C 0.67725 0.86444 0.10597 0.0
C333 C 0.6897 0.8163 0.1214 0.0
C334 C 0.67555 0.80868 0.10827 0.0
C335 C 0.671 0.79363 0.09806 0.0
C336 C 0.68019 0.78545 0.1011 0.0
C337 C 0.69463 0.79327 0.11388 0.0
C338 C 0.69946 0.80865 0.12371 0.0
C339 C 0.69373 0.83203 0.13275 0.0
C340 C 0.69319 0.84477 0.12146 0.0
C341 C 0.69676 0.83411 0.15464 0.0
C342 C 0.69626 0.82083 0.16822 0.0
C343 C 0.6819 0.80467 0.16889 0.0
C344 C 0.68096 0.79268 0.18298 0.0
C345 C 0.69422 0.79673 0.19701 0.0
C346 C 0.70868 0.81283 0.19613 0.0
C347 C 0.70969 0.82474 0.18186 0.0
H348 H 0.11108 0.83616 0.17893 0.0
H349 H 0.09188 0.81452 0.20364 0.0
H350 H 0.10167 0.77844 0.1733 0.0
H351 H 0.12136 0.80017 0.14921 0.0
H352 H 0.14347 0.84797 0.17652 0.0
H353 H 0.0975 0.81874 0.12651 0.0
H354 H 0.07658 0.7938 0.10734 0.0
H355 H 0.1166 0.78772 0.08109 0.0
H356 H 0.13735 0.81246 0.10028 0.0
H357 H 0.17753 0.84957 0.10176 0.0
H358 H 0.20358 0.86808 0.08291 0.0
H359 H 0.20186 0.91127 0.10583 0.0
H360 H 0.17536 0.89253 0.12443 0.0
H361 H 0.14662 0.84377 0.09928 0.0
H362 H 0.19101 0.86633 0.14872 0.0
H363 H 0.21416 0.88626 0.1706 0.0
H364 H 0.18059 0.89966 0.20153 0.0
H365 H 0.15786 0.8807 0.17825 0.0
C366 C 0.11752 0.81977 0.16201 0.0
C367 C 0.10894 0.82354 0.17743 0.0
C368 C 0.098 0.81121 0.1915 0.0
C369 C 0.09531 0.79487 0.19025 0.0
C370 C 0.10336 0.79091 0.17435 0.0
C371 C 0.11455 0.80331 0.16052 0.0
C372 C 0.13086 0.83342 0.14906 0.0
C373 C 0.14393 0.8473 0.15955 0.0
C374 C 0.13183 0.83213 0.12701 0.0
C375 C 0.11899 0.81744 0.11493 0.0
C376 C 0.10174 0.81201 0.11665 0.0
C377 C 0.08982 0.79776 0.1057 0.0
C378 C 0.09496 0.78882 0.09268 0.0
C379 C 0.11225 0.79447 0.09073 0.0
C380 C 0.12412 0.80861 0.10173 0.0
C381 C 0.17456 0.86967 0.11457 0.0
C382 C 0.18262 0.86301 0.10255 0.0
C383 C 0.1976 0.8736 0.09196 0.0
C384 C 0.20484 0.89111 0.09313 0.0
C385 C 0.19652 0.89781 0.10466 0.0
C386 C 0.18147 0.88715 0.11534 0.0
C387 C 0.15928 0.85813 0.12679 0.0
C388 C 0.14588 0.8447 0.11619 0.0
C389 C 0.15835 0.85946 0.14883 0.0
C390 C 0.17273 0.87224 0.16146 0.0
C391 C 0.18875 0.87394 0.15973 0.0
C392 C 0.20195 0.88516 0.17261 0.0
C393 C 0.19932 0.89459 0.18802 0.0
C394 C 0.18326 0.8929 0.18964 0.0
C395 C 0.17015 0.88191 0.17646 0.0
H396 H 0.27729 0.16455 0.84824 0.0
H397 H 0.27768 0.18631 0.82619 0.0
H398 H 0.33048 0.21927 0.8406 0.0
H399 H 0.32968 0.19772 0.86327 0.0
H400 H 0.29974 0.15117 0.84206 0.0
H401 H 0.28615 0.18083 0.89487 0.0
H402 H 0.29123 0.20578 0.91451 0.0
H403 H 0.33886 0.21276 0.93585 0.0
H404 H 0.33404 0.1883 0.91554 0.0
H405 H 0.33368 0.14773 0.91607 0.0
H406 H 0.33788 0.12733 0.93521 0.0
H407 H 0.29066 0.08712 0.91115 0.0
H408 H 0.2865 0.10759 0.89205 0.0
H409 H 0.31107 0.15655 0.9185 0.0
H410 H 0.33174 0.13691 0.86406 0.0
H411 H 0.33505 0.1177 0.84064 0.0
H412 H 0.2833 0.09611 0.82095 0.0
H413 H 0.28006 0.11551 0.84441 0.0
C414 C 0.30341 0.17961 0.85744 0.0
C415 C 0.28886 0.17657 0.84679 0.0
C416 C 0.28916 0.18899 0.83409 0.0
C417 C 0.30413 0.20458 0.83149 0.0
C418 C 0.31863 0.20759 0.84248 0.0
C419 C 0.31825 0.19525 0.85537 0.0
C420 C 0.30348 0.16613 0.86973 0.0
C421 C 0.30177 0.1521 0.85889 0.0
C422 C 0.30706 0.16787 0.89143 0.0
C423 C 0.30979 0.18278 0.90356 0.0
C424 C 0.29776 0.18784 0.90362 0.0
C425 C 0.30059 0.202 0.91504 0.0
C426 C 0.31548 0.21129 0.92671 0.0
C427 C 0.32739 0.20605 0.92679 0.0
C428 C 0.32458 0.19196 0.91533 0.0
C429 C 0.30984 0.12917 0.9025 0.0
C430 C 0.32418 0.13452 0.91502 0.0
C431 C 0.32655 0.12287 0.926 0.0
C432 C 0.31461 0.10563 0.92467 0.0
C433 C 0.30019 0.10031 0.91225 0.0
C434 C 0.29781 0.11198 0.90132 0.0
C435 C 0.30744 0.14163 0.89084 0.0
C436 C 0.30866 0.15541 0.90177 0.0
C437 C 0.30423 0.14011 0.86905 0.0
C438 C 0.30563 0.12754 0.85604 0.0
C439 C 0.32104 0.1279 0.85491 0.0
C440 C 0.32295 0.11701 0.84145 0.0
C441 C 0.30944 0.10547 0.82899 0.0
C442 C 0.29386 0.10481 0.83052 0.0
C443 C 0.29203 0.1159 0.84381 0.0
H444 H 0.8422 0.11479 0.83704 0.0
H445 H 0.82192 0.09424 0.81225 0.0
H446 H 0.78443 0.10605 0.83349 0.0
H447 H 0.80476 0.12672 0.85791 0.0
H448 H 0.85336 0.14771 0.83444 0.0
H449 H 0.82203 0.10463 0.88836 0.0
H450 H 0.79685 0.08544 0.90892 0.0
H451 H 0.79038 0.12703 0.92649 0.0
H452 H 0.81524 0.14599 0.90598 0.0
H453 H 0.85269 0.18557 0.90555 0.0
H454 H 0.87106 0.21148 0.92454 0.0
H455 H 0.91466 0.20932 0.90342 0.0
H456 H 0.8961 0.18303 0.8848 0.0
H457 H 0.8465 0.15521 0.91018 0.0
H458 H 0.86419 0.19359 0.85494 0.0
H459 H 0.88119 0.21567 0.82963 0.0
H460 H 0.90615 0.18879 0.8106 0.0
H461 H 0.88897 0.16655 0.83605 0.0
C462 C 0.82498 0.12219 0.84952 0.0
C463 C 0.82951 0.11272 0.83662 0.0
C464 C 0.81794 0.10103 0.82245 0.0
C465 C 0.8016 0.09855 0.82094 0.0
C466 C 0.79684 0.10748 0.83453 0.0
C467 C 0.80846 0.11929 0.84855 0.0
C468 C 0.83803 0.13644 0.86199 0.0
C469 C 0.85212 0.14909 0.85117 0.0
C470 C 0.83584 0.13877 0.88352 0.0
C471 C 0.82058 0.12678 0.89566 0.0
C472 C 0.81511 0.10957 0.89656 0.0
C473 C 0.80074 0.09862 0.9083 0.0
C474 C 0.79174 0.10476 0.91949 0.0
C475 C 0.79722 0.12196 0.91841 0.0
C476 C 0.81144 0.13282 0.90664 0.0
C477 C 0.873 0.18235 0.89374 0.0
C478 C 0.8662 0.19062 0.90506 0.0
C479 C 0.87673 0.20553 0.91575 0.0
C480 C 0.89432 0.2125 0.9154 0.0
C481 C 0.90115 0.20419 0.90409 0.0
C482 C 0.89057 0.18926 0.89332 0.0
C483 C 0.86159 0.16645 0.88255 0.0
C484 C 0.84797 0.15352 0.8936 0.0
C485 C 0.86354 0.16429 0.86096 0.0
C486 C 0.87543 0.1785 0.8475 0.0
C487 C 0.87357 0.19259 0.84566 0.0
C488 C 0.88318 0.20513 0.8311 0.0
C489 C 0.89491 0.20386 0.81814 0.0
C490 C 0.89727 0.19009 0.82052 0.0
C491 C 0.88746 0.1774 0.83497 0.0
H492 H 0.81302 0.66989 0.82286 0.0
H493 H 0.79297 0.66962 0.79799 0.0
H494 H 0.79398 0.71118 0.83063 0.0
H495 H 0.81454 0.71166 0.85557 0.0
H496 H 0.84383 0.69262 0.82854 0.0
H497 H 0.79417 0.66608 0.86973 0.0
H498 H 0.76887 0.66153 0.88826 0.0
H499 H 0.79957 0.70377 0.92867 0.0
H500 H 0.82492 0.70855 0.90971 0.0
H501 H 0.87118 0.70726 0.91348 0.0
H502 H 0.88945 0.70152 0.93554 0.0
H503 H 0.87793 0.65842 0.89711 0.0
H504 H 0.85925 0.66372 0.87574 0.0
H505 H 0.8379 0.6886 0.90596 0.0
H506 H 0.88896 0.7104 0.85971 0.0
H507 H 0.91018 0.70709 0.83992 0.0
H508 H 0.87027 0.66304 0.80948 0.0
H509 H 0.8493 0.66639 0.82911 0.0
C510 C 0.81543 0.6909 0.84098 0.0
C511 C 0.80904 0.67903 0.82468 0.0
C512 C 0.79759 0.67889 0.81046 0.0
C513 C 0.79215 0.69055 0.81223 0.0
C514 C 0.79804 0.70209 0.82894 0.0
C515 C 0.80972 0.70235 0.84317 0.0
C516 C 0.82849 0.69137 0.85496 0.0
C517 C 0.84251 0.69179 0.8455 0.0
C518 C 0.82684 0.69034 0.87709 0.0
C519 C 0.81144 0.68791 0.888 0.0
C520 C 0.79546 0.67461 0.88227 0.0
C521 C 0.78101 0.67196 0.89293 0.0
C522 C 0.78225 0.68235 0.90983 0.0
C523 C 0.79826 0.69553 0.91576 0.0
C524 C 0.81272 0.69829 0.90491 0.0
C525 C 0.86419 0.68619 0.89261 0.0
C526 C 0.8726 0.69658 0.90983 0.0
C527 C 0.883 0.69331 0.9224 0.0
C528 C 0.88523 0.67968 0.9178 0.0
C529 C 0.87668 0.66921 0.90071 0.0
C530 C 0.86608 0.6723 0.88842 0.0
C531 C 0.85294 0.68942 0.87942 0.0
C532 C 0.83939 0.68991 0.88905 0.0
C533 C 0.85448 0.6904 0.85731 0.0
C534 C 0.86758 0.68864 0.84583 0.0
C535 C 0.88485 0.70002 0.84881 0.0
C536 C 0.89692 0.69815 0.8375 0.0
C537 C 0.89185 0.68474 0.82329 0.0
C538 C 0.87455 0.67335 0.82053 0.0
C539 C 0.86256 0.67533 0.83159 0.0
H540 H 0.81108 0.66478 0.51757 0.0
H541 H 0.79062 0.66733 0.53925 0.0
H542 H 0.75027 0.62207 0.51128 0.0
H543 H 0.77099 0.61989 0.489 0.0
H544 H 0.81747 0.63925 0.51782 0.0
H545 H 0.80015 0.66708 0.47191 0.0
H546 H 0.7804 0.67203 0.45237 0.0
H547 H 0.76701 0.62835 0.41415 0.0
H548 H 0.78653 0.62309 0.43428 0.0
H549 H 0.8377 0.61976 0.44325 0.0
H550 H 0.86435 0.62584 0.42645 0.0
H551 H 0.8885 0.67629 0.45171 0.0
H552 H 0.86214 0.66991 0.46879 0.0
H553 H 0.82054 0.64201 0.44009 0.0
H554 H 0.84449 0.61902 0.49192 0.0
H555 H 0.86784 0.62209 0.51379 0.0
H556 H 0.87383 0.66811 0.53959 0.0
H557 H 0.85066 0.66499 0.5179 0.0
C558 C 0.79255 0.64207 0.50186 0.0
C559 C 0.79782 0.6554 0.51609 0.0
C560 C 0.7861 0.6568 0.52853 0.0
C561 C 0.76883 0.64473 0.52727 0.0
C562 C 0.76348 0.63159 0.51258 0.0
C563 C 0.77528 0.63028 0.49992 0.0
C564 C 0.80541 0.64052 0.48962 0.0
C565 C 0.81799 0.63962 0.5008 0.0
C566 C 0.80617 0.64124 0.46743 0.0
C567 C 0.79446 0.6444 0.45501 0.0
C568 C 0.79276 0.65836 0.4596 0.0
C569 C 0.78154 0.66125 0.44834 0.0
C570 C 0.77205 0.65048 0.43188 0.0
C571 C 0.77419 0.63685 0.42675 0.0
C572 C 0.78528 0.63382 0.43826 0.0
C573 C 0.84809 0.64437 0.4573 0.0
C574 C 0.84879 0.6321 0.44505 0.0
C575 C 0.86399 0.63562 0.43547 0.0
C576 C 0.87862 0.6515 0.43794 0.0
C577 C 0.87763 0.66381 0.4499 0.0
C578 C 0.86254 0.66026 0.45952 0.0
C579 C 0.83249 0.64077 0.4684 0.0
C580 C 0.81949 0.64081 0.45703 0.0
C581 C 0.83171 0.64013 0.49051 0.0
C582 C 0.84585 0.64177 0.50335 0.0
C583 C 0.85091 0.62977 0.50226 0.0
C584 C 0.86417 0.6315 0.51478 0.0
C585 C 0.8727 0.64539 0.52828 0.0
C586 C 0.86765 0.6574 0.52914 0.0
C587 C 0.85432 0.65556 0.51689 0.0
H588 H 0.38673 0.21593 0.51909 0.0
H589 H 0.38531 0.23563 0.5437 0.0
H590 H 0.33658 0.2227 0.51904 0.0
H591 H 0.33782 0.20276 0.49492 0.0
H592 H 0.36691 0.18355 0.51941 0.0
H593 H 0.37981 0.22615 0.46762 0.0
H594 H 0.37573 0.24641 0.44781 0.0
H595 H 0.32764 0.20617 0.42602 0.0
H596 H 0.33168 0.18603 0.44593 0.0
H597 H 0.32796 0.14455 0.45078 0.0
H598 H 0.31998 0.11839 0.43236 0.0
H599 H 0.36813 0.12371 0.44764 0.0
H600 H 0.37624 0.15023 0.46584 0.0
H601 H 0.35269 0.17586 0.44383 0.0
H602 H 0.33638 0.13464 0.49781 0.0
H603 H 0.33597 0.11395 0.52183 0.0
H604 H 0.38642 0.15013 0.5419 0.0
H605 H 0.38697 0.17072 0.51742 0.0
C606 C 0.36247 0.20794 0.50497 0.0
C607 C 0.37585 0.21751 0.51878 0.0
C608 C 0.37503 0.22875 0.53283 0.0
C609 C 0.36085 0.23071 0.53325 0.0
C610 C 0.34779 0.22166 0.51884 0.0
C611 C 0.34852 0.21027 0.50499 0.0
C612 C 0.36223 0.19429 0.49224 0.0
C613 C 0.36427 0.18212 0.50273 0.0
C614 C 0.3582 0.19213 0.47062 0.0
C615 C 0.35601 0.20455 0.45839 0.0
C616 C 0.36834 0.2217 0.45868 0.0
C617 C 0.366 0.23327 0.44735 0.0
C618 C 0.35137 0.22788 0.43531 0.0
C619 C 0.33915 0.21069 0.43488 0.0
C620 C 0.34144 0.19916 0.4463 0.0
C621 C 0.35266 0.14931 0.45975 0.0
C622 C 0.33686 0.14015 0.45008 0.0
C623 C 0.33225 0.12512 0.43973 0.0
C624 C 0.34337 0.11891 0.43872 0.0
C625 C 0.35933 0.12822 0.44812 0.0
C626 C 0.36393 0.14329 0.4586 0.0
C627 C 0.35703 0.16503 0.47115 0.0
C628 C 0.3558 0.17758 0.46039 0.0
C629 C 0.36148 0.16739 0.49261 0.0
C630 C 0.36181 0.15421 0.50554 0.0
C631 C 0.34757 0.13799 0.50686 0.0
C632 C 0.34732 0.12617 0.52066 0.0
C633 C 0.36117 0.13042 0.53372 0.0
C634 C 0.37554 0.14653 0.53209 0.0
C635 C 0.37586 0.15829 0.5181 0.0
H636 H 0.77346 0.16263 0.50419 0.0
H637 H 0.75511 0.13841 0.52638 0.0
H638 H 0.77767 0.11124 0.49994 0.0
H639 H 0.79589 0.13542 0.47774 0.0
H640 H 0.81033 0.17867 0.50613 0.0
H641 H 0.76444 0.15001 0.45557 0.0
H642 H 0.74492 0.12461 0.43609 0.0
H643 H 0.78725 0.12444 0.40647 0.0
H644 H 0.80663 0.1494 0.42646 0.0
H645 H 0.84245 0.18746 0.42583 0.0
H646 H 0.8687 0.2075 0.40895 0.0
H647 H 0.87009 0.24756 0.44595 0.0
H648 H 0.84276 0.22752 0.46139 0.0
H649 H 0.81294 0.18026 0.42842 0.0
H650 H 0.85753 0.19984 0.47779 0.0
H651 H 0.88071 0.2189 0.50041 0.0
H652 H 0.84677 0.22984 0.53501 0.0
H653 H 0.82396 0.21168 0.5113 0.0
C654 C 0.7859 0.15072 0.48929 0.0
C655 C 0.77422 0.15134 0.50296 0.0
C656 C 0.76373 0.13751 0.51552 0.0
C657 C 0.76503 0.12301 0.51484 0.0
C658 C 0.77649 0.12231 0.50079 0.0
C659 C 0.78681 0.13604 0.48806 0.0
C660 C 0.7982 0.16584 0.47761 0.0
C661 C 0.81074 0.17931 0.48912 0.0
C662 C 0.79903 0.16613 0.45549 0.0
C663 C 0.787 0.15153 0.44262 0.0
C664 C 0.7695 0.14448 0.44488 0.0
C665 C 0.75836 0.13006 0.4336 0.0
C666 C 0.76455 0.12246 0.41982 0.0
C667 C 0.78208 0.12984 0.41719 0.0
C668 C 0.79318 0.14421 0.42845 0.0
C669 C 0.8407 0.20587 0.44523 0.0
C670 C 0.8481 0.20061 0.42995 0.0
C671 C 0.86335 0.21209 0.42054 0.0
C672 C 0.87183 0.2291 0.42653 0.0
C673 C 0.86396 0.23456 0.44097 0.0
C674 C 0.84841 0.22307 0.45002 0.0
C675 C 0.82559 0.19305 0.45689 0.0
C676 C 0.81241 0.18 0.44543 0.0
C677 C 0.82479 0.19261 0.47913 0.0
C678 C 0.83906 0.20461 0.49252 0.0
C679 C 0.85518 0.20666 0.48993 0.0
C680 C 0.86839 0.21739 0.50314 0.0
C681 C 0.86569 0.22596 0.51964 0.0
C682 C 0.84947 0.22376 0.52226 0.0
C683 C 0.83633 0.21324 0.50882 0.0
H684 H 0.9594 0.49979 0.16907 0.0
H685 H 0.95851 0.52 0.14531 0.0
H686 H 0.0045 0.55977 0.17237 0.0
H687 H 0.00571 0.53945 0.19567 0.0
H688 H 0.98214 0.49082 0.17009 0.0
H689 H 0.96327 0.51797 0.22059 0.0
H690 H 0.96556 0.54181 0.24047 0.0
H691 H 0.01357 0.5521 0.26493 0.0
H692 H 0.01124 0.52838 0.24507 0.0
H693 H 0.01198 0.48736 0.24767 0.0
H694 H 0.0153 0.46703 0.2682 0.0
H695 H 0.96945 0.4267 0.24133 0.0
H696 H 0.96586 0.4472 0.22141 0.0
H697 H 0.98895 0.49596 0.2473 0.0
H698 H 0.00994 0.47158 0.1996 0.0
H699 H 0.01201 0.45038 0.17916 0.0
H700 H 0.96607 0.43837 0.14674 0.0
H701 H 0.9634 0.45868 0.16847 0.0
C702 C 0.98253 0.51809 0.18432 0.0
C703 C 0.96926 0.51287 0.16999 0.0
C704 C 0.96874 0.5244 0.15644 0.0
C705 C 0.98142 0.54141 0.15707 0.0
C706 C -0.00554 0.54675 0.17177 0.0
C707 C -0.00488 0.53515 0.18513 0.0
C708 C 0.98369 0.50545 0.19731 0.0
C709 C 0.98326 0.49175 0.18704 0.0
C710 C 0.98601 0.50711 0.2193 0.0
C711 C 0.98714 0.52146 0.23123 0.0
C712 C 0.97432 0.52543 0.23014 0.0
C713 C 0.97565 0.53905 0.2415 0.0
C714 C 0.98973 0.5488 0.25431 0.0
C715 C 0.00245 0.54468 0.25547 0.0
C716 C 0.00116 0.53116 0.24406 0.0
C717 C 0.98876 0.46879 0.23287 0.0
C718 C 0.00255 0.47415 0.24636 0.0
C719 C 0.00452 0.4625 0.25793 0.0
C720 C 0.9927 0.44524 0.25627 0.0
C721 C 0.9787 0.43992 0.24307 0.0
C722 C 0.97672 0.4516 0.23153 0.0
C723 C 0.98713 0.48123 0.22011 0.0
C724 C 0.98755 0.49489 0.23039 0.0
C725 C 0.98525 0.47976 0.19805 0.0
C726 C 0.98635 0.46657 0.18588 0.0
C727 C 7e-05 0.46409 0.18848 0.0
C728 C 0.00139 0.45211 0.17648 0.0
C729 C 0.98924 0.44262 0.16117 0.0
C730 C 0.97552 0.44516 0.1586 0.0
C731 C 0.97406 0.45695 0.17087 0.0
H732 H 0.50489 0.44271 0.17193 0.0
H733 H 0.48241 0.42531 0.14682 0.0
H734 H 0.45576 0.45074 0.16481 0.0
H735 H 0.47802 0.46792 0.18975 0.0
H736 H 0.52367 0.47925 0.16963 0.0
H737 H 0.48898 0.43577 0.22082 0.0
H738 H 0.46173 0.41676 0.23766 0.0
H739 H 0.45736 0.45942 0.25621 0.0
H740 H 0.48434 0.47825 0.23924 0.0
H741 H 0.52223 0.51628 0.23923 0.0
H742 H 0.54013 0.543 0.25685 0.0
H743 H 0.58414 0.53974 0.24114 0.0
H744 H 0.56602 0.51265 0.22376 0.0
H745 H 0.51531 0.48546 0.24538 0.0
H746 H 0.53777 0.52532 0.19088 0.0
H747 H 0.55766 0.54759 0.16784 0.0
H748 H 0.58004 0.5177 0.15125 0.0
H749 H 0.55967 0.49518 0.17423 0.0
C750 C 0.49301 0.45646 0.18283 0.0
C751 C 0.49404 0.44429 0.17067 0.0
C752 C 0.48123 0.43437 0.15643 0.0
C753 C 0.46745 0.43679 0.15389 0.0
C754 C 0.4663 0.44871 0.16643 0.0
C755 C 0.47894 0.45843 0.18076 0.0
C756 C 0.50717 0.46832 0.19628 0.0
C757 C 0.52219 0.48026 0.18639 0.0
C758 C 0.50477 0.47007 0.21787 0.0
C759 C 0.4887 0.45843 0.22877 0.0
C760 C 0.48214 0.44099 0.22855 0.0
C761 C 0.46663 0.43016 0.23824 0.0
C762 C 0.45739 0.43661 0.24813 0.0
C763 C 0.46409 0.45407 0.24848 0.0
C764 C 0.47959 0.46486 0.23897 0.0
C765 C 0.54277 0.51245 0.23016 0.0
C766 C 0.53571 0.52119 0.23976 0.0
C767 C 0.54598 0.53656 0.24963 0.0
C768 C 0.56356 0.54354 0.2502 0.0
C769 C 0.57063 0.53463 0.241 0.0
C770 C 0.56031 0.51922 0.231 0.0
C771 C 0.53165 0.49665 0.21862 0.0
C772 C 0.51725 0.48399 0.22887 0.0
C773 C 0.53418 0.49471 0.19709 0.0
C774 C 0.54741 0.50871 0.18451 0.0
C775 C 0.54719 0.5237 0.18263 0.0
C776 C 0.55864 0.53646 0.16945 0.0
C777 C 0.57059 0.53453 0.15775 0.0
C778 C 0.57095 0.51956 0.1599 0.0
C779 C 0.55939 0.50673 0.17309 0.0
H780 H 0.53805 0.03631 0.16504 0.0
H781 H 0.55784 0.03343 0.14226 0.0
H782 H 0.54402 0.98617 0.17199 0.0
H783 H 0.52339 0.9886 0.19361 0.0
H784 H 0.50485 0.01722 0.16697 0.0
H785 H 0.5506 0.02981 0.21471 0.0
H786 H 0.56956 0.02252 0.23192 0.0
H787 H 0.52695 0.98221 0.26468 0.0
H788 H 0.50805 0.98841 0.24576 0.0
H789 H 0.46974 0.98941 0.24442 0.0
H790 H 0.4456 0.98664 0.26415 0.0
H791 H 0.4538 0.03297 0.23708 0.0
H792 H 0.47798 0.03568 0.21735 0.0
H793 H 0.50197 0.01152 0.24439 0.0
H794 H 0.45883 0.98956 0.19249 0.0
H795 H 0.43644 0.9866 0.16919 0.0
H796 H 0.46936 0.03678 0.14585 0.0
H797 H 0.49184 0.03965 0.16913 0.0
C798 C 0.52938 0.01281 0.18127 0.0
C799 C 0.53928 0.02532 0.16661 0.0
C800 C 0.55075 0.02373 0.15374 0.0
C801 C 0.55269 0.00961 0.15531 0.0
C802 C 0.54279 -0.00288 0.17011 0.0
C803 C 0.53112 -0.0014 0.18274 0.0
C804 C 0.51675 0.01431 0.19432 0.0
C805 C 0.5045 0.01636 0.18396 0.0
C806 C 0.51583 0.01249 0.21646 0.0
C807 C 0.5278 0.00943 0.22849 0.0
C808 C 0.54533 0.01924 0.22537 0.0
C809 C 0.55622 0.01519 0.23552 0.0
C810 C 0.54986 0.00156 0.24955 0.0
C811 C 0.53237 0.99241 0.2535 0.0
C812 C 0.52149 0.99616 0.24292 0.0
C813 C 0.47561 0.01269 0.22928 0.0
C814 C 0.46643 -0.00095 0.24286 0.0
C815 C 0.45266 -0.0025 0.25417 0.0
C816 C 0.44777 0.00957 0.25217 0.0
C817 C 0.4571 0.02333 0.23874 0.0
C818 C 0.47093 0.02491 0.22746 0.0
C819 C 0.48998 0.01396 0.21694 0.0
C820 C 0.50261 0.01268 0.22743 0.0
C821 C 0.49093 0.01576 0.1949 0.0
C822 C 0.47694 0.01485 0.18256 0.0
C823 C 0.46113 3e-05 0.18263 0.0
C824 C 0.4484 -0.00167 0.16928 0.0
C825 C 0.45123 0.01146 0.15575 0.0
C826 C 0.46684 0.02655 0.15628 0.0
C827 C 0.47968 0.02816 0.16945 0.0
H828 H 0.48612 0.00497 0.85186 0.0
H829 H 0.46577 0.00654 0.87496 0.0
H830 H 0.42528 0.96253 0.84502 0.0
H831 H 0.44586 0.96126 0.8215 0.0
H832 H 0.4931 0.98 0.84816 0.0
H833 H 0.47186 0.00783 0.80639 0.0
H834 H 0.45072 0.01153 0.78813 0.0
H835 H 0.43954 0.96937 0.74799 0.0
H836 H 0.46041 0.9654 0.7667 0.0
H837 H 0.51958 0.96241 0.79424 0.0
H838 H 0.54459 0.96743 0.77426 0.0
H839 H 0.55096 0.01442 0.75202 0.0
H840 H 0.52597 0.00921 0.77166 0.0
H841 H 0.49362 0.9854 0.7708 0.0
H842 H 0.50463 0.95917 0.84842 0.0
H843 H 0.52696 0.96164 0.87117 0.0
H844 H 0.56271 0.00761 0.83968 0.0
H845 H 0.54008 0.00565 0.81805 0.0
C846 C 0.46749 0.98296 0.83507 0.0
C847 C 0.47286 0.99563 0.8503 0.0
C848 C 0.46121 0.99647 0.86354 0.0
C849 C 0.44392 0.98454 0.862 0.0
C850 C 0.4385 0.97196 0.84651 0.0
C851 C 0.45022 0.97117 0.83314 0.0
C852 C 0.48021 0.98222 0.82148 0.0
C853 C 0.49312 0.98092 0.8312 0.0
C854 C 0.48026 0.98373 0.79941 0.0
C855 C 0.46748 0.98608 0.78826 0.0
C856 C 0.46466 -0.00082 0.79392 0.0
C857 C 0.45263 0.00134 0.78341 0.0
C858 C 0.44343 0.99069 0.76671 0.0
C859 C 0.44651 0.97782 0.76073 0.0
C860 C 0.4584 0.97552 0.77144 0.0
C861 C 0.52096 0.98546 0.78445 0.0
C862 C 0.52633 0.97371 0.78491 0.0
C863 C 0.54065 0.97663 0.77358 0.0
C864 C 0.54976 0.99132 0.76154 0.0
C865 C 0.54408 0.00284 0.7608 0.0
C866 C 0.52981 -0.0001 0.77207 0.0
C867 C 0.50663 0.98329 0.79751 0.0
C868 C 0.49337 0.98398 0.7877 0.0
C869 C 0.5065 0.98168 0.8196 0.0
C870 C 0.52063 0.98213 0.83136 0.0
C871 C 0.51732 0.96971 0.8463 0.0
C872 C 0.53018 0.97106 0.85919 0.0
C873 C 0.54671 0.98487 0.85738 0.0
C874 C 0.55012 -0.00306 0.8418 0.0
C875 C 0.5372 0.9957 0.82913 0.0
H876 H 0.03689 0.54494 0.85116 0.0
H877 H 0.03252 0.56457 0.87262 0.0
H878 H 0.9822 0.54327 0.84778 0.0
H879 H 0.98664 0.52378 0.82633 0.0
H880 H 0.01677 0.50987 0.8551 0.0
H881 H 0.03336 0.55157 0.80135 0.0
H882 H 0.0298 0.57149 0.7802 0.0
H883 H 0.98351 0.5306 0.75505 0.0
H884 H 0.98723 0.51071 0.77615 0.0
H885 H 0.98929 0.45889 0.81634 0.0
H886 H 0.98397 0.43366 0.79748 0.0
H887 H 0.02431 0.4642 0.75405 0.0
H888 H 0.03018 0.48932 0.77376 0.0
H889 H 0.01026 0.50179 0.77808 0.0
H890 H -0.0054 0.47916 0.86296 0.0
H891 H -0.00455 0.45975 0.88785 0.0
H892 H 0.03618 0.46059 0.85268 0.0
H893 H 0.03541 0.48034 0.82765 0.0
C894 C 0.01213 0.53298 0.8371 0.0
C895 C 0.02504 0.54472 0.85009 0.0
C896 C 0.02256 0.55595 0.86225 0.0
C897 C 0.007 0.55537 0.86188 0.0
C898 C 0.99427 0.54392 0.84841 0.0
C899 C -0.00317 0.53286 0.83609 0.0
C900 C 0.01393 0.51982 0.82605 0.0
C901 C 0.01556 0.50815 0.83822 0.0
C902 C 0.01224 0.51764 0.80407 0.0
C903 C 0.01049 0.52966 0.79049 0.0
C904 C 0.02243 0.54689 0.7913 0.0
C905 C 0.02035 0.55827 0.77923 0.0
C906 C 0.0063 0.55265 0.76602 0.0
C907 C -0.00544 0.53533 0.76488 0.0
C908 C -0.00335 0.52395 0.77697 0.0
C909 C 0.0103 0.47602 0.79667 0.0
C910 C -0.00271 0.46013 0.8031 0.0
C911 C 0.99409 0.44571 0.79208 0.0
C912 C 0.00363 0.44687 0.77412 0.0
C913 C 0.01685 0.46278 0.76794 0.0
C914 C 0.02014 0.47719 0.7791 0.0
C915 C 0.01276 0.49148 0.8072 0.0
C916 C 0.01185 0.50359 0.79492 0.0
C917 C 0.01472 0.49384 0.8292 0.0
C918 C 0.015 0.48132 0.84348 0.0
C919 C 0.00379 0.47526 0.86058 0.0
C920 C 0.0043 0.46417 0.87484 0.0
C921 C 0.01604 0.45882 0.87238 0.0
C922 C 0.02699 0.46449 0.85494 0.0
C923 C 0.02655 0.47575 0.84065 0.0
H924 H 0.43838 0.49653 0.84402 0.0
H925 H 0.41919 0.47342 0.86725 0.0
H926 H 0.43996 0.44365 0.84413 0.0
H927 H 0.459 0.46667 0.82099 0.0
H928 H 0.4742 0.51207 0.84624 0.0
H929 H 0.42995 0.4828 0.7953 0.0
H930 H 0.40947 0.45798 0.7757 0.0
H931 H 0.45008 0.45245 0.75031 0.0
H932 H 0.47045 0.47723 0.76987 0.0
H933 H 0.51056 0.51538 0.77296 0.0
H934 H 0.53607 0.53437 0.75355 0.0
H935 H 0.53211 0.57666 0.77511 0.0
H936 H 0.50639 0.55743 0.79477 0.0
H937 H 0.47941 0.5087 0.76916 0.0
H938 H 0.52282 0.53273 0.8202 0.0
H939 H 0.54478 0.55265 0.84381 0.0
H940 H 0.50903 0.56378 0.87278 0.0
H941 H 0.48721 0.54447 0.84841 0.0
C942 C 0.44998 0.48322 0.83074 0.0
C943 C 0.43857 0.48491 0.84376 0.0
C944 C 0.42761 0.47173 0.85691 0.0
C945 C 0.42818 0.45683 0.85746 0.0
C946 C 0.43935 0.45505 0.84404 0.0
C947 C 0.45014 0.46813 0.83076 0.0
C948 C 0.46278 0.49762 0.81838 0.0
C949 C 0.47516 0.51165 0.8293 0.0
C950 C 0.46422 0.49659 0.79642 0.0
C951 C 0.45173 0.48183 0.78414 0.0
C952 C 0.43443 0.47621 0.78555 0.0
C953 C 0.42274 0.46202 0.77436 0.0
C954 C 0.42816 0.45324 0.76145 0.0
C955 C 0.44551 0.45906 0.75986 0.0
C956 C 0.45717 0.47321 0.77108 0.0
C957 C 0.50656 0.53499 0.78526 0.0
C958 C 0.51507 0.52873 0.77338 0.0
C959 C 0.52963 0.5396 0.76224 0.0
C960 C 0.536 0.55699 0.76265 0.0
C961 C 0.52752 0.56331 0.77461 0.0
C962 C 0.51285 0.55236 0.78579 0.0
C963 C 0.49119 0.52307 0.79706 0.0
C964 C 0.47827 0.50948 0.78603 0.0
C965 C 0.48962 0.52425 0.81904 0.0
C966 C 0.50338 0.53732 0.83215 0.0
C967 C 0.51979 0.53986 0.83108 0.0
C968 C 0.53233 0.55115 0.84468 0.0
C969 C 0.52856 0.55973 0.86002 0.0
C970 C 0.51221 0.55729 0.86107 0.0
C971 C 0.49977 0.54627 0.84717 0.0
H972 H 0.61078 0.83056 0.51023 0.0
H973 H 0.61185 0.85287 0.48867 0.0
H974 H 0.66429 0.88527 0.50524 0.0
H975 H 0.66278 0.86315 0.52746 0.0
H976 H 0.63342 0.81718 0.50471 0.0
H977 H 0.6178 0.84554 0.55703 0.0
H978 H 0.62216 0.87006 0.57715 0.0
H979 H 0.66945 0.87714 0.59999 0.0
H980 H 0.66502 0.85268 0.57989 0.0
H981 H 0.66313 0.81087 0.5808 0.0
H982 H 0.66554 0.78982 0.6009 0.0
H983 H 0.61852 0.75089 0.57471 0.0
H984 H 0.61618 0.77208 0.55455 0.0
H985 H 0.64117 0.82053 0.58182 0.0
H986 H 0.66003 0.7957 0.53233 0.0
H987 H 0.66222 0.77579 0.50903 0.0
H988 H 0.61678 0.76602 0.47748 0.0
H989 H 0.61413 0.7854 0.50143 0.0
C990 C 0.63667 0.84528 0.52044 0.0
C991 C 0.62243 0.84257 0.50933 0.0
C992 C 0.62312 0.8553 0.49691 0.0
C993 C 0.63819 0.8709 0.49507 0.0
C994 C 0.65238 0.87358 0.50652 0.0
C995 C 0.6516 0.86091 0.51914 0.0
C996 C 0.63624 0.83152 0.53261 0.0
C997 C 0.6347 0.81762 0.52165 0.0
C998 C 0.6388 0.83268 0.5545 0.0
C999 C 0.64116 0.84737 0.56682 0.0
C1000 C 0.62915 0.85245 0.56627 0.0
C1001 C 0.63165 0.86644 0.57779 0.0
C1002 C 0.64615 0.87552 0.59018 0.0
C1003 C 0.65804 0.87027 0.59086 0.0
C1004 C 0.65555 0.85633 0.57932 0.0
C1005 C 0.63953 0.79303 0.56609 0.0
C1006 C 0.65328 0.79781 0.57948 0.0
C1007 C 0.6546 0.78578 0.59103 0.0
C1008 C 0.64219 0.76871 0.58943 0.0
C1009 C 0.62836 0.76394 0.57609 0.0
C1010 C 0.62702 0.77601 0.56456 0.0
C1011 C 0.6383 0.80599 0.55398 0.0
C1012 C 0.63955 0.81979 0.56493 0.0
C1013 C 0.6361 0.80498 0.53193 0.0
C1014 C 0.63674 0.79189 0.51892 0.0
C1015 C 0.65021 0.7889 0.52088 0.0
C1016 C 0.65152 0.77759 0.50748 0.0
C1017 C 0.63966 0.7694 0.49151 0.0
C1018 C 0.62611 0.77224 0.48964 0.0
C1019 C 0.62461 0.78331 0.5033 0.0
H1020 H 0.17405 0.78206 0.50504 0.0
H1021 H 0.15305 0.76215 0.48036 0.0
H1022 H 0.11614 0.77316 0.50604 0.0
H1023 H 0.13719 0.79323 0.53035 0.0
H1024 H 0.18518 0.81502 0.50483 0.0
H1025 H 0.15517 0.77 0.55668 0.0
H1026 H 0.12998 0.7499 0.57654 0.0
H1027 H 0.12402 0.79075 0.59914 0.0
H1028 H 0.14888 0.8106 0.57931 0.0
H1029 H 0.18572 0.85036 0.57823 0.0
H1030 H 0.20408 0.87682 0.59621 0.0
H1031 H 0.24783 0.87544 0.57401 0.0
H1032 H 0.22929 0.84869 0.5561 0.0
H1033 H 0.1802 0.81975 0.58167 0.0
H1034 H 0.20066 0.86221 0.53141 0.0
H1035 H 0.21837 0.88515 0.50787 0.0
H1036 H 0.23484 0.85398 0.47736 0.0
H1037 H 0.21806 0.83147 0.50223 0.0
C1038 C 0.15718 0.78902 0.51974 0.0
C1039 C 0.16135 0.77997 0.50559 0.0
C1040 C 0.14937 0.76864 0.49148 0.0
C1041 C 0.13296 0.7661 0.49129 0.0
C1042 C 0.1286 0.77465 0.50604 0.0
C1043 C 0.14064 0.78611 0.51999 0.0
C1044 C 0.17056 0.80281 0.53246 0.0
C1045 C 0.18439 0.81583 0.52175 0.0
C1046 C 0.16894 0.80429 0.55436 0.0
C1047 C 0.15395 0.79183 0.56651 0.0
C1048 C 0.14839 0.77458 0.56588 0.0
C1049 C 0.13401 0.76312 0.57722 0.0
C1050 C 0.12511 0.76877 0.58955 0.0
C1051 C 0.13078 0.78603 0.59015 0.0
C1052 C 0.145 0.7974 0.57877 0.0
C1053 C 0.20612 0.84756 0.56577 0.0
C1054 C 0.19925 0.85563 0.5774 0.0
C1055 C 0.20976 0.87084 0.58749 0.0
C1056 C 0.22738 0.87826 0.58634 0.0
C1057 C 0.23429 0.86996 0.57519 0.0
C1058 C 0.22373 0.85475 0.56491 0.0
C1059 C 0.1947 0.83198 0.55399 0.0
C1060 C 0.18132 0.81866 0.56486 0.0
C1061 C 0.19616 0.83065 0.53204 0.0
C1062 C 0.20823 0.84515 0.51893 0.0
C1063 C 0.20855 0.86048 0.5202 0.0
C1064 C 0.21848 0.87353 0.50638 0.0
C1065 C 0.22793 0.87142 0.49047 0.0
C1066 C 0.22792 0.85619 0.48954 0.0
C1067 C 0.2182 0.84322 0.50365 0.0
H1068 H 0.15403 0.349 0.48994 0.0
H1069 H 0.13446 0.35277 0.46841 0.0
H1070 H 0.133 0.38603 0.515 0.0
H1071 H 0.15361 0.38315 0.53622 0.0
H1072 H 0.18337 0.36709 0.50081 0.0
H1073 H 0.13202 0.337 0.5385 0.0
H1074 H 0.10638 0.33171 0.55685 0.0
H1075 H 0.13661 0.36797 0.60429 0.0
H1076 H 0.16231 0.3734 0.58566 0.0
H1077 H 0.20737 0.37023 0.58552 0.0
H1078 H 0.22463 0.36169 0.60511 0.0
H1079 H 0.21341 0.32288 0.55927 0.0
H1080 H 0.19563 0.3309 0.54029 0.0
H1081 H 0.17419 0.35293 0.57646 0.0
H1082 H 0.22681 0.37882 0.53102 0.0
H1083 H 0.24756 0.37582 0.5096 0.0
H1084 H 0.20688 0.33534 0.47513 0.0
H1085 H 0.18637 0.33852 0.49617 0.0
C1086 C 0.15534 0.36575 0.51481 0.0
C1087 C 0.14984 0.3574 0.49546 0.0
C1088 C 0.13863 0.35951 0.48316 0.0
C1089 C 0.13242 0.36977 0.49007 0.0
C1090 C 0.13774 0.37811 0.50941 0.0
C1091 C 0.14937 0.37634 0.52156 0.0
C1092 C 0.16731 0.36319 0.52759 0.0
C1093 C 0.18127 0.36399 0.51737 0.0
C1094 C 0.16467 0.35906 0.54922 0.0
C1095 C 0.1491 0.35586 0.56046 0.0
C1096 C 0.13315 0.34399 0.5527 0.0
C1097 C 0.11849 0.34095 0.56322 0.0
C1098 C 0.11947 0.3495 0.58195 0.0
C1099 C 0.13546 0.36112 0.58996 0.0
C1100 C 0.15014 0.36427 0.57931 0.0
C1101 C 0.20054 0.3515 0.56114 0.0
C1102 C 0.20861 0.35988 0.57971 0.0
C1103 C 0.21845 0.355 0.59087 0.0
C1104 C 0.22047 0.34177 0.58351 0.0
C1105 C 0.21229 0.33333 0.56503 0.0
C1106 C 0.20222 0.33798 0.55412 0.0
C1107 C 0.18991 0.35653 0.54948 0.0
C1108 C 0.17636 0.35638 0.56001 0.0
C1109 C 0.19227 0.36024 0.52781 0.0
C1110 C 0.20509 0.35889 0.51513 0.0
C1111 C 0.22243 0.36935 0.5188 0.0
C1112 C 0.23422 0.36764 0.5066 0.0
C1113 C 0.22876 0.35527 0.49087 0.0
C1114 C 0.21141 0.34484 0.48732 0.0
C1115 C 0.1997 0.34673 0.49921 0.0
H1116 H 0.02074 0.4024 0.05956 0.0
H1117 H 0.9792 0.35766 0.08682 0.0
H1118 H 0.01782 0.41941 0.08648 0.0
H1119 H 0.97672 0.37464 0.11455 0.0
H1120 H 0.9645 0.41228 0.1454 0.0
H1121 H 0.96773 0.39412 0.12043 0.0
H1122 H 0.02188 0.42699 0.12185 0.0
H1123 H 0.01858 0.44583 0.14537 0.0
C1124 C 0.01113 0.39616 0.07154 0.0
C1125 C 0.00017 0.37869 0.07104 0.0
C1126 C 0.00952 0.40592 0.08712 0.0
C1127 C -0.00295 0.39845 0.10283 0.0
C1128 C 0.98629 0.38088 0.10255 0.0
C1129 C 0.98777 0.37112 0.08675 0.0
C1130 C 0.9771 0.41575 0.14022 0.0
C1131 C 0.99125 0.43067 0.14733 0.0
C1132 C 0.97897 0.40515 0.12612 0.0
C1133 C -0.00493 0.40908 0.11895 0.0
C1134 C 0.00925 0.42369 0.12666 0.0
C1135 C 0.00736 0.43439 0.1405 0.0
H1136 H 0.63146 0.59929 0.05226 0.0
H1137 H 0.59374 0.61144 0.07137 0.0
H1138 H 0.62337 0.57976 0.08198 0.0
H1139 H 0.58599 0.59235 0.10096 0.0
H1140 H 0.5862 0.56872 0.1622 0.0
H1141 H 0.60017 0.58989 0.13495 0.0
H1142 H 0.59463 0.55155 0.09138 0.0
H1143 H 0.58009 0.53019 0.11834 0.0
C1144 C 0.62162 0.59794 0.06292 0.0
C1145 C 0.61316 0.6068 0.05946 0.0
C1146 C 0.61698 0.58677 0.07982 0.0
C1147 C 0.60414 0.58467 0.09377 0.0
C1148 C 0.59606 0.59389 0.09058 0.0
C1149 C 0.60042 0.60471 0.07354 0.0
C1150 C 0.58801 0.56477 0.14686 0.0
C1151 C 0.58172 0.54768 0.14239 0.0
C1152 C 0.59611 0.57692 0.13132 0.0
C1153 C 0.59833 0.5723 0.11106 0.0
C1154 C 0.59317 0.55544 0.10694 0.0
C1155 C 0.58486 0.54322 0.12242 0.0
H1156 H 0.39327 0.02181 0.05527 0.0
H1157 H 0.36994 0.96845 0.06544 0.0
H1158 H 0.41233 0.02707 0.08459 0.0
H1159 H 0.38807 0.97356 0.0954 0.0
H1160 H 0.43611 0.98573 0.12818 0.0
H1161 H 0.41589 0.98141 0.10114 0.0
H1162 H 0.41685 0.02677 0.12087 0.0
H1163 H 0.43792 0.03143 0.1474 0.0
C1164 C 0.39201 0.01124 0.06409 0.0
C1165 C 0.38034 0.99473 0.05796 0.0
C1166 C 0.40286 0.01423 0.08096 0.0
C1167 C 0.402 0.00074 0.09223 0.0
C1168 C 0.38956 0.98427 0.08672 0.0
C1169 C 0.37904 0.98131 0.06963 0.0
C1170 C 0.43188 0.99469 0.12681 0.0
C1171 C 0.43844 0.00883 0.13993 0.0
C1172 C 0.42019 0.99219 0.11138 0.0
C1173 C 0.41448 0.00361 0.1089 0.0
C1174 C 0.42105 0.01779 0.12214 0.0
C1175 C 0.43303 0.02044 0.13741 0.0
H1176 H 0.40129 0.01785 0.95802 0.0
H1177 H 0.35811 0.97123 0.9375 0.0
H1178 H 0.41881 0.01455 0.93183 0.0
H1179 H 0.37578 0.96794 0.91123 0.0
H1180 H 0.41235 0.97934 0.85368 0.0
H1181 H 0.39316 0.98198 0.87816 0.0
H1182 H 0.42903 0.99411 0.92808 0.0
H1183 H 0.44796 0.99117 0.90394 0.0
C1184 C 0.39551 0.00695 0.94783 0.0
C1185 C 0.37835 0.99473 0.94992 0.0
C1186 C 0.40557 0.00503 0.93292 0.0
C1187 C 0.39867 0.99091 0.91967 0.0
C1188 C 0.38139 0.97897 0.92122 0.0
C1189 C 0.37132 0.98082 0.93629 0.0
C1190 C 0.41602 0.98235 0.86995 0.0
C1191 C 0.43177 0.98524 0.87682 0.0
C1192 C 0.40506 0.9839 0.88391 0.0
C1193 C 0.40974 0.98846 0.90491 0.0
C1194 C 0.42527 0.99093 0.91186 0.0
C1195 C 0.43612 0.98927 0.89801 0.0
H1196 H 0.0224 0.38471 0.95342 0.0
H1197 H 0.98266 0.39289 0.9759 0.0
H1198 H 0.02918 0.4057 0.92579 0.0
H1199 H 0.98936 0.41345 0.94864 0.0
H1200 H 0.0159 0.46204 0.91474 0.0
H1201 H 0.01345 0.44209 0.94126 0.0
H1202 H 0.01548 0.41021 0.89296 0.0
H1203 H 0.01797 0.43036 0.86618 0.0
C1204 C 0.01512 0.39092 0.95248 0.0
C1205 C 0.00205 0.38715 0.96698 0.0
C1206 C 0.01897 0.40287 0.93665 0.0
C1207 C 0.00994 0.41136 0.93525 0.0
C1208 C -0.00323 0.40738 0.94956 0.0
C1209 C 0.99287 0.39546 0.96515 0.0
C1210 C 0.01591 0.45082 0.90975 0.0
C1211 C 0.01679 0.4476 0.88836 0.0
C1212 C 0.01453 0.4394 0.92494 0.0
C1213 C 0.01398 0.42445 0.91915 0.0
C1214 C 0.0159 0.42165 0.89786 0.0
C1215 C 0.0173 0.43315 0.88256 0.0
H1216 H 0.60562 0.63835 0.93919 0.0
H1217 H 0.5987 0.59143 0.96241 0.0
H1218 H 0.58442 0.62303 0.91206 0.0
H1219 H 0.57726 0.57619 0.93567 0.0
H1220 H 0.52534 0.55722 0.90241 0.0
H1221 H 0.54692 0.57351 0.92869 0.0
H1222 H 0.58209 0.60238 0.87942 0.0
H1223 H 0.56057 0.58579 0.85303 0.0
C1224 C 0.59956 0.62479 0.93851 0.0
C1225 C 0.60379 0.61606 0.95289 0.0
C1226 C 0.58751 0.61608 0.92298 0.0
C1227 C 0.57924 0.59848 0.92191 0.0
C1228 C 0.58343 0.58976 0.9363 0.0
C1229 C 0.59572 0.59848 0.9515 0.0
C1230 C 0.53765 0.56714 0.89724 0.0
C1231 C 0.54134 0.57031 0.87577 0.0
C1232 C 0.54998 0.57636 0.91222 0.0
C1233 C 0.5661 0.58914 0.906 0.0
C1234 C 0.5697 0.59262 0.88455 0.0
C1235 C 0.55746 0.58313 0.86952 0.0
H1236 H 0.96056 0.59338 0.94823 0.0
H1237 H 0.01392 0.62499 0.9595 0.0
H1238 H 0.96644 0.58025 0.91883 0.0
H1239 H 0.01993 0.61114 0.93079 0.0
H1240 H 0.02624 0.5892 0.86955 0.0
H1241 H 0.02049 0.60574 0.89483 0.0
H1242 H 0.97468 0.56068 0.91383 0.0
H1243 H 0.9801 0.54459 0.88802 0.0
C1244 C 0.97358 0.5975 0.94438 0.0
C1245 C 0.98678 0.6101 0.95623 0.0
C1246 C 0.97698 0.58987 0.92762 0.0
C1247 C 0.99367 0.59432 0.9226 0.0
C1248 C 0.00693 0.60743 0.93401 0.0
C1249 C 0.00351 0.61534 0.95054 0.0
C1250 C 0.01489 0.58296 0.87908 0.0
C1251 C 0.00353 0.56567 0.87672 0.0
C1252 C 0.01162 0.59238 0.89365 0.0
C1253 C -0.00296 0.58464 0.9064 0.0
C1254 C 0.98579 0.56727 0.90398 0.0
C1255 C 0.98892 0.55796 0.88923 0.0
H1256 H 0.3895 0.37428 0.94624 0.0
H1257 H 0.35892 0.39683 0.95696 0.0
H1258 H 0.40344 0.39323 0.91694 0.0
H1259 H 0.37345 0.41645 0.92834 0.0
H1260 H 0.39436 0.44197 0.8656 0.0
H1261 H 0.378 0.42044 0.89185 0.0
H1262 H 0.42345 0.42148 0.91136 0.0
H1263 H 0.43943 0.44231 0.88461 0.0
C1264 C 0.38582 0.38336 0.94234 0.0
C1265 C 0.37322 0.38416 0.95391 0.0
C1266 C 0.39388 0.39432 0.92564 0.0
C1267 C 0.38974 0.40655 0.92037 0.0
C1268 C 0.37684 0.40708 0.93173 0.0
C1269 C 0.36857 0.3959 0.94823 0.0
C1270 C 0.40073 0.43745 0.87549 0.0
C1271 C 0.41808 0.44365 0.87304 0.0
C1272 C 0.39142 0.42521 0.89059 0.0
C1273 C 0.39936 0.41913 0.90373 0.0
C1274 C 0.41678 0.42549 0.90123 0.0
C1275 C 0.42599 0.43751 0.88597 0.0
H1276 H 0.61876 0.98132 0.94515 0.0
H1277 H 0.6069 0.0182 0.96828 0.0
H1278 H 0.60095 0.97659 0.91448 0.0
H1279 H 0.58899 0.0132 0.93832 0.0
H1280 H 0.57118 0.01445 0.87457 0.0
H1281 H 0.59121 0.01857 0.90169 0.0
H1282 H 0.57165 0.96509 0.90379 0.0
H1283 H 0.55218 0.96101 0.8755 0.0
C1284 C 0.61232 0.98834 0.94376 0.0
C1285 C 0.6144 0.00024 0.95911 0.0
C1286 C 0.60208 0.9856 0.92624 0.0
C1287 C 0.5937 0.99468 0.92376 0.0
C1288 C 0.59558 0.0063 0.93936 0.0
C1289 C 0.60581 0.00908 0.95669 0.0
C1290 C 0.57137 0.00356 0.88033 0.0
C1291 C 0.55993 0.98736 0.8728 0.0
C1292 C 0.58273 0.00591 0.8962 0.0
C1293 C 0.58287 0.99214 0.90524 0.0
C1294 C 0.57192 0.97599 0.89719 0.0
C1295 C 0.56059 0.97363 0.88113 0.0
H1296 H 0.63865 0.01985 0.08204 0.0
H1297 H 0.59406 0.98026 0.05214 0.0
H1298 H 0.6211 0.02189 0.10946 0.0
H1299 H 0.57648 0.98278 0.07879 0.0
H1300 H 0.54876 0.98067 0.13761 0.0
H1301 H 0.56773 0.97763 0.11381 0.0
H1302 H 0.60201 0.03132 0.1155 0.0
H1303 H 0.58368 0.0342 0.14067 0.0
C1304 C 0.6251 0.01163 0.08131 0.0
C1305 C 0.61775 -0.0001 0.06495 0.0
C1306 C 0.615 0.01286 0.09694 0.0
C1307 C 0.59731 0.00252 0.09641 0.0
C1308 C 0.59004 0.99073 0.08004 0.0
C1309 C 0.60013 0.98936 0.06462 0.0
C1310 C 0.56051 0.99182 0.13332 0.0
C1311 C 0.56459 0.00771 0.14112 0.0
C1312 C 0.57131 0.9901 0.11933 0.0
C1313 C 0.58639 0.00424 0.11246 0.0
C1314 C 0.59062 0.0201 0.12053 0.0
C1315 C 0.57992 0.02179 0.13475 0.0
H1316 H 0.96723 0.61211 0.08215 0.0
H1317 H 0.00562 0.60636 0.05022 0.0
H1318 H 0.96556 0.59283 0.10961 0.0
H1319 H 0.00371 0.587 0.0774 0.0
H1320 H 0.97827 0.53734 0.11483 0.0
H1321 H 0.97957 0.55724 0.08876 0.0
H1322 H 0.98627 0.59224 0.13812 0.0
H1323 H 0.98513 0.57231 0.16432 0.0
C1324 C 0.9753 0.60675 0.08101 0.0
C1325 C 0.98652 0.61069 0.06403 0.0
C1326 C 0.97438 0.59581 0.09674 0.0
C1327 C 0.98446 0.58842 0.0955 0.0
C1328 C -0.00428 0.59244 0.07859 0.0
C1329 C -0.00316 0.60357 0.06311 0.0
C1330 C 0.97989 0.54923 0.12011 0.0
C1331 C 0.98158 0.55332 0.14154 0.0
C1332 C 0.98074 0.56063 0.10521 0.0
C1333 C 0.98305 0.57624 0.11148 0.0
C1334 C 0.98441 0.58023 0.13294 0.0
C1335 C 0.98385 0.56891 0.14786 0.0
H1336 H 0.38545 0.40879 0.06853 0.0
H1337 H 0.3974 0.36983 0.05752 0.0
H1338 H 0.40694 0.42094 0.09538 0.0
H1339 H 0.41962 0.38249 0.08396 0.0
H1340 H 0.44857 0.40288 0.14665 0.0
H1341 H 0.42623 0.38847 0.12053 0.0
H1342 H 0.43646 0.43661 0.09719 0.0
H1343 H 0.45806 0.45073 0.12369 0.0
C1344 C 0.39277 0.40287 0.07177 0.0
C1345 C 0.38984 0.38844 0.06076 0.0
C1346 C 0.4052 0.40991 0.0871 0.0
C1347 C 0.41529 0.40291 0.0916 0.0
C1348 C 0.41205 0.38818 0.08099 0.0
C1349 C 0.39937 0.38095 0.06578 0.0
C1350 C 0.44598 0.41027 0.13582 0.0
C1351 C 0.4548 0.42786 0.1373 0.0
C1352 C 0.43326 0.40206 0.12083 0.0
C1353 C 0.42932 0.41136 0.10693 0.0
C1354 C 0.43873 0.429 0.10801 0.0
C1355 C 0.4512 0.43713 0.1231 0.0
H1356 H 0.67832 0.73754 0.3888 0.0
H1357 H 0.63883 0.69054 0.4143 0.0
H1358 H 0.67236 0.75284 0.41563 0.0
H1359 H 0.63313 0.70595 0.44146 0.0
H1360 H 0.64513 0.74347 0.49906 0.0
H1361 H 0.65041 0.7269 0.4731 0.0
H1362 H 0.64539 0.75538 0.42319 0.0
H1363 H 0.63986 0.77171 0.44903 0.0
C1364 C 0.66848 0.73047 0.40025 0.0
C1365 C 0.659 0.71284 0.39943 0.0
C1366 C 0.66503 0.73924 0.41551 0.0
C1367 C 0.65226 0.73054 0.4305 0.0
C1368 C 0.64307 0.71291 0.43008 0.0
C1369 C 0.6463 0.70413 0.41454 0.0
C1370 C 0.64506 0.74607 0.48252 0.0
C1371 C 0.64205 0.7588 0.47599 0.0
C1372 C 0.64801 0.73659 0.46773 0.0
C1373 C 0.64836 0.73995 0.44621 0.0
C1374 C 0.64528 0.75263 0.43971 0.0
C1375 C 0.64201 0.76187 0.45445 0.0
H1376 H 0.24564 0.93109 0.37955 0.0
H1377 H 0.29636 0.94957 0.4017 0.0
H1378 H 0.23449 0.9115 0.40854 0.0
H1379 H 0.28508 0.93021 0.43141 0.0
H1380 H 0.25824 0.88118 0.4705 0.0
H1381 H 0.27099 0.90102 0.44156 0.0
H1382 H 0.23045 0.91171 0.44508 0.0
H1383 H 0.2172 0.89122 0.47276 0.0
C1384 C 0.25443 0.93106 0.39073 0.0
C1385 C 0.27189 0.942 0.38838 0.0
C1386 C 0.24801 0.91987 0.40748 0.0
C1387 C 0.25885 0.91942 0.42255 0.0
C1388 C 0.27637 0.93015 0.42004 0.0
C1389 C 0.28284 0.94129 0.40307 0.0
C1390 C 0.25199 0.88768 0.46498 0.0
C1391 C 0.23663 0.8845 0.47401 0.0
C1392 C 0.25942 0.89921 0.44854 0.0
C1393 C 0.25168 0.90787 0.44082 0.0
C1394 C 0.23662 0.90505 0.4503 0.0
C1395 C 0.22914 0.89345 0.46651 0.0
H1396 H 0.06762 0.3705 0.39026 0.0
H1397 H 0.0496 0.32077 0.41492 0.0
H1398 H 0.08804 0.38249 0.41908 0.0
H1399 H 0.06954 0.33271 0.44375 0.0
H1400 H 0.09974 0.35852 0.50036 0.0
H1401 H 0.0771 0.35346 0.476 0.0
H1402 H 0.11389 0.37756 0.42648 0.0
H1403 H 0.1364 0.38228 0.45073 0.0
C1404 C 0.06781 0.3622 0.40204 0.0
C1405 C 0.05719 0.34471 0.4003 0.0
C1406 C 0.07944 0.36904 0.41846 0.0
C1407 C 0.08022 0.35851 0.43365 0.0
C1408 C 0.06903 0.34112 0.4324 0.0
C1409 C 0.05775 0.33428 0.41579 0.0
C1410 C 0.10297 0.36323 0.48446 0.0
C1411 C 0.11969 0.37075 0.47728 0.0
C1412 C 0.09007 0.3603 0.47055 0.0
C1413 C 0.09381 0.36509 0.44941 0.0
C1414 C 0.11072 0.3739 0.44275 0.0
C1415 C 0.12356 0.37655 0.45655 0.0
H1416 H 0.06148 0.34822 0.28241 0.0
H1417 H 0.02748 0.29569 0.29587 0.0
H1418 H 0.07426 0.3405 0.25404 0.0
H1419 H 0.04039 0.28801 0.26755 0.0
H1420 H 0.08612 0.28636 0.23632 0.0
H1421 H 0.06983 0.29191 0.26201 0.0
H1422 H 0.06589 0.32528 0.21843 0.0
H1423 H 0.08167 0.31931 0.19228 0.0
C1424 C 0.05671 0.33504 0.27926 0.0
C1425 C 0.04353 0.32256 0.29138 0.0
C1426 C 0.06394 0.33063 0.26295 0.0
C1427 C 0.05828 0.31366 0.25863 0.0
C1428 C 0.04502 0.30118 0.27065 0.0
C1429 C 0.03763 0.30558 0.28678 0.0
C1430 C 0.08143 0.29454 0.23193 0.0
C1431 C 0.08531 0.30244 0.2122 0.0
C1432 C 0.07216 0.29777 0.24672 0.0
C1433 C 0.06672 0.3091 0.24222 0.0
C1434 C 0.07014 0.31665 0.22236 0.0
C1435 C 0.07923 0.31326 0.20745 0.0
H1436 H 0.68521 0.7158 0.2787 0.0
H1437 H 0.65822 0.7376 0.30791 0.0
H1438 H 0.69416 0.73649 0.25023 0.0
H1439 H 0.66731 0.75821 0.27988 0.0
H1440 H 0.70089 0.80299 0.23868 0.0
H1441 H 0.69566 0.78284 0.26651 0.0
H1442 H 0.67801 0.74296 0.22069 0.0
H1443 H 0.68323 0.76318 0.1927 0.0
C1444 C 0.68132 0.72506 0.27913 0.0
C1445 C 0.67097 0.72504 0.29551 0.0
C1446 C 0.68636 0.73682 0.26283 0.0
C1447 C 0.68147 0.74896 0.26294 0.0
C1448 C 0.6714 0.74909 0.27951 0.0
C1449 C 0.66611 0.73721 0.29549 0.0
C1450 C 0.69617 0.78998 0.23448 0.0
C1451 C 0.69243 0.78465 0.21352 0.0
C1452 C 0.69309 0.77845 0.25042 0.0
C1453 C 0.6864 0.76136 0.24573 0.0
C1454 C 0.68328 0.75609 0.2247 0.0
C1455 C 0.68613 0.76761 0.20874 0.0
H1456 H 0.26811 0.9283 0.29301 0.0
H1457 H 0.2752 0.97476 0.26797 0.0
H1458 H 0.24808 0.91273 0.26542 0.0
H1459 H 0.25574 0.95926 0.23954 0.0
H1460 H 0.20624 0.92475 0.20548 0.0
H1461 H 0.22708 0.94114 0.23202 0.0
H1462 H 0.24519 0.90619 0.22987 0.0
H1463 H 0.22347 0.88907 0.20481 0.0
C1464 C 0.26556 0.93521 0.28139 0.0
C1465 C 0.27321 0.95275 0.28267 0.0
C1466 C 0.25413 0.92629 0.26542 0.0
C1467 C 0.25027 0.93469 0.25007 0.0
C1468 C 0.25816 0.95231 0.25122 0.0
C1469 C 0.26941 0.96123 0.26743 0.0
C1470 C 0.21452 0.92043 0.21084 0.0
C1471 C 0.21299 0.90545 0.203 0.0
C1472 C 0.2267 0.93001 0.22587 0.0
C1473 C 0.23784 0.925 0.23327 0.0
C1474 C 0.23665 0.91032 0.22493 0.0
C1475 C 0.22432 0.90061 0.21018 0.0
H1476 H 0.68348 0.96421 0.28268 0.0
H1477 H 0.65377 0.91401 0.30767 0.0
H1478 H 0.69178 0.95305 0.25284 0.0
H1479 H 0.66227 0.90306 0.27842 0.0
H1480 H 0.66139 0.88537 0.21297 0.0
H1481 H 0.65542 0.89896 0.24158 0.0
H1482 H 0.70758 0.93887 0.24199 0.0
H1483 H 0.71348 0.92557 0.21239 0.0
C1484 C 0.67892 0.95087 0.28197 0.0
C1485 C 0.66777 0.93997 0.29739 0.0
C1486 C 0.68369 0.94449 0.26492 0.0
C1487 C 0.67741 0.92713 0.26306 0.0
C1488 C 0.66695 0.91643 0.27905 0.0
C1489 C 0.66215 0.92274 0.29592 0.0
C1490 C 0.67156 0.89723 0.21876 0.0
C1491 C 0.68792 0.90437 0.21028 0.0
C1492 C 0.66818 0.9049 0.23544 0.0
C1493 C 0.68108 0.91987 0.2443 0.0
C1494 C 0.69737 0.92734 0.2355 0.0
C1495 C 0.70077 0.91965 0.21868 0.0
H1496 H 0.06988 0.72814 0.29494 0.0
H1497 H 0.02106 0.71857 0.27468 0.0
H1498 H 0.08336 0.74859 0.26671 0.0
H1499 H 0.03462 0.73883 0.24611 0.0
H1500 H 0.06928 0.76268 0.18486 0.0
H1501 H 0.05419 0.74154 0.21225 0.0
H1502 H 0.0845 0.77778 0.25959 0.0
H1503 H 0.09932 0.79892 0.23236 0.0
C1504 C 0.06203 0.73029 0.28434 0.0
C1505 C 0.04444 0.72183 0.28702 0.0
C1506 C 0.06975 0.74202 0.26828 0.0
C1507 C 0.05999 0.74525 0.25439 0.0
C1508 C 0.04237 0.73647 0.25665 0.0
C1509 C 0.03466 0.72497 0.27299 0.0
C1510 C 0.07255 0.7661 0.20115 0.0
C1511 C 0.08536 0.78238 0.20659 0.0
C1512 C 0.06394 0.75408 0.21674 0.0
C1513 C 0.06831 0.7581 0.23791 0.0
C1514 C 0.08101 0.77441 0.24333 0.0
C1515 C 0.08937 0.78649 0.22782 0.0
H1516 H 0.28439 0.34781 0.27826 0.0
H1517 H 0.26666 0.29761 0.30098 0.0
H1518 H 0.26284 0.33651 0.25102 0.0
H1519 H 0.24466 0.28633 0.27395 0.0
H1520 H 0.19517 0.28616 0.24599 0.0
H1521 H 0.21865 0.29249 0.26951 0.0
H1522 H 0.25372 0.31506 0.21799 0.0
H1523 H 0.23015 0.30831 0.19434 0.0
C1524 C 0.27597 0.33434 0.27728 0.0
C1525 C 0.27715 0.32358 0.29174 0.0
C1526 C 0.26372 0.32788 0.26163 0.0
C1527 C 0.25215 0.31057 0.26042 0.0
C1528 C 0.25349 0.29973 0.27458 0.0
C1529 C 0.26607 0.30616 0.28995 0.0
C1530 C 0.20787 0.29208 0.23965 0.0
C1531 C 0.21093 0.29674 0.21843 0.0
C1532 C 0.22126 0.29564 0.25303 0.0
C1533 C 0.23794 0.30425 0.24551 0.0
C1534 C 0.24094 0.30838 0.22411 0.0
C1535 C 0.22751 0.30448 0.21062 0.0
H1536 H 0.30973 0.36361 0.40859 0.0
H1537 H 0.26474 0.31648 0.39417 0.0
H1538 H 0.29475 0.36828 0.43721 0.0
H1539 H 0.24962 0.32138 0.42206 0.0
H1540 H 0.22903 0.32645 0.4833 0.0
H1541 H 0.24696 0.32218 0.45876 0.0
H1542 H 0.27332 0.37506 0.4435 0.0
H1543 H 0.2557 0.37933 0.46875 0.0
C1544 C 0.29663 0.35427 0.41151 0.0
C1545 C 0.28842 0.33967 0.39915 0.0
C1546 C 0.28801 0.35699 0.42784 0.0
C1547 C 0.27096 0.3452 0.43205 0.0
C1548 C 0.26282 0.33058 0.41964 0.0
C1549 C 0.27146 0.32781 0.40349 0.0
C1550 C 0.23881 0.33717 0.47484 0.0
C1551 C 0.24094 0.35319 0.47777 0.0
C1552 C 0.24901 0.33472 0.46067 0.0
C1553 C 0.26143 0.34822 0.44883 0.0
C1554 C 0.26399 0.3644 0.45243 0.0
C1555 C 0.2539 0.36687 0.46685 0.0
H1556 H 0.62519 0.93142 0.4004 0.0
H1557 H 0.67892 0.95435 0.4097 0.0
H1558 H 0.62002 0.91158 0.42867 0.0
H1559 H 0.6737 0.93459 0.4381 0.0
H1560 H 0.65597 0.90521 0.50023 0.0
H1561 H 0.65972 0.92655 0.47486 0.0
H1562 H 0.62659 0.88769 0.43181 0.0
H1563 H 0.62333 0.86633 0.45661 0.0
C1564 C 0.63587 0.93234 0.40864 0.0
C1565 C 0.65245 0.94436 0.40279 0.0
C1566 C 0.63291 0.92096 0.42474 0.0
C1567 C 0.64647 0.92157 0.4355 0.0
C1568 C 0.66303 0.93395 0.43015 0.0
C1569 C 0.666 0.94517 0.41384 0.0
C1570 C 0.64955 0.90118 0.48532 0.0
C1571 C 0.6394 0.88399 0.48049 0.0
C1572 C 0.65165 0.91342 0.47087 0.0
C1573 C 0.64344 0.90874 0.45143 0.0
C1574 C 0.63289 0.89163 0.44682 0.0
C1575 C 0.63098 0.87939 0.46111 0.0
H1576 H 0.05095 0.69721 0.407 0.0
H1577 H 0.07431 0.74744 0.38171 0.0
H1578 H 0.07187 0.70752 0.43527 0.0
H1579 H 0.09514 0.75756 0.4096 0.0
H1580 H 0.13945 0.76708 0.44944 0.0
H1581 H 0.11925 0.75312 0.42119 0.0
H1582 H 0.07902 0.72865 0.46668 0.0
H1583 H 0.09931 0.7426 0.49511 0.0
C1584 C 0.0606 0.71038 0.40738 0.0
C1585 C 0.06096 0.72152 0.39217 0.0
C1586 C 0.0725 0.71627 0.42356 0.0
C1587 C 0.08514 0.7333 0.42452 0.0
C1588 C 0.08564 0.74433 0.40911 0.0
C1589 C 0.07364 0.73854 0.39321 0.0
C1590 C 0.12637 0.75844 0.45346 0.0
C1591 C 0.12094 0.75596 0.47448 0.0
C1592 C 0.1148 0.75056 0.43728 0.0
C1593 C 0.09758 0.7399 0.44177 0.0
C1594 C 0.09224 0.73675 0.46281 0.0
C1595 C 0.10381 0.74481 0.47903 0.0
H1596 H 0.29775 0.03089 0.73574 0.0
H1597 H 0.35159 0.06263 0.74327 0.0
H1598 H 0.29308 0.04714 0.76241 0.0
H1599 H 0.34703 0.07835 0.77067 0.0
H1600 H 0.33462 0.11542 0.80021 0.0
H1601 H 0.33879 0.09825 0.77459 0.0
H1602 H 0.29425 0.05402 0.79817 0.0
H1603 H 0.28977 0.07153 0.82322 0.0
C1604 C 0.30858 0.04119 0.74336 0.0
C1605 C 0.32504 0.04559 0.73734 0.0
C1606 C 0.30592 0.05047 0.75875 0.0
C1607 C 0.31967 0.0642 0.76868 0.0
C1608 C 0.33612 0.06817 0.76305 0.0
C1609 C 0.33877 0.05907 0.74744 0.0
C1610 C 0.32578 0.10201 0.79993 0.0
C1611 C 0.31192 0.09477 0.81371 0.0
C1612 C 0.3282 0.09211 0.78533 0.0
C1613 C 0.31695 0.07466 0.78434 0.0
C1614 C 0.30306 0.06743 0.79823 0.0
C1615 C 0.30051 0.07741 0.81266 0.0
H1616 H 0.95979 0.26835 0.71623 0.0
H1617 H 0.9223 0.28253 0.72703 0.0
H1618 H 0.94762 0.24792 0.74477 0.0
H1619 H 0.91072 0.26294 0.75602 0.0
H1620 H 0.88052 0.21366 0.78891 0.0
H1621 H 0.89422 0.23409 0.76107 0.0
H1622 H 0.94281 0.24293 0.78146 0.0
H1623 H 0.92876 0.22172 0.80892 0.0
C1624 C 0.94912 0.26728 0.72492 0.0
C1625 C 0.94185 0.27686 0.71923 0.0
C1626 C 0.94218 0.25563 0.74134 0.0
C1627 C 0.92798 0.25353 0.75256 0.0
C1628 C 0.92129 0.26376 0.74737 0.0
C1629 C 0.92801 0.27512 0.7308 0.0
C1630 C 0.89414 0.22002 0.78747 0.0
C1631 C 0.90361 0.21627 0.80117 0.0
C1632 C 0.90205 0.23183 0.77157 0.0
C1633 C 0.91971 0.24045 0.76915 0.0
C1634 C 0.92919 0.23649 0.78273 0.0
C1635 C 0.92119 0.22442 0.79851 0.0
H1636 H 0.71298 0.68665 0.73058 0.0
H1637 H 0.72548 0.64932 0.7113 0.0
H1638 H 0.73492 0.69664 0.75759 0.0
H1639 H 0.74707 0.65922 0.73798 0.0
H1640 H 0.79578 0.69057 0.77004 0.0
H1641 H 0.77488 0.68565 0.74347 0.0
H1642 H 0.74134 0.68531 0.79149 0.0
H1643 H 0.76248 0.69034 0.81829 0.0
C1644 C 0.72036 0.68058 0.73209 0.0
C1645 C 0.71751 0.66723 0.71872 0.0
C1646 C 0.73285 0.68627 0.74756 0.0
C1647 C 0.74282 0.67884 0.74967 0.0
C1648 C 0.7398 0.6654 0.73646 0.0
C1649 C 0.72731 0.65965 0.72124 0.0
C1650 C 0.78403 0.68965 0.7749 0.0
C1651 C 0.78058 0.69051 0.79621 0.0
C1652 C 0.77208 0.68683 0.75971 0.0
C1653 C 0.75638 0.68477 0.76549 0.0
C1654 C 0.75336 0.68685 0.78664 0.0
C1655 C 0.76541 0.68971 0.80194 0.0
H1656 H 0.68454 0.63371 0.60448 0.0
H1657 H 0.7277 0.68221 0.61936 0.0
H1658 H 0.70137 0.62935 0.57794 0.0
H1659 H 0.74437 0.67779 0.59302 0.0
H1660 H 0.77326 0.65292 0.56875 0.0
H1661 H 0.7546 0.65678 0.59228 0.0
H1662 H 0.71793 0.64219 0.54285 0.0
H1663 H 0.73692 0.63872 0.51884 0.0
C1664 C 0.69754 0.64349 0.60194 0.0
C1665 C 0.70486 0.65823 0.61414 0.0
C1666 C 0.70711 0.64101 0.58672 0.0
C1667 C 0.72418 0.65316 0.58365 0.0
C1668 C 0.73129 0.66813 0.59531 0.0
C1669 C 0.72172 0.67067 0.61034 0.0
C1670 C 0.76131 0.6507 0.56275 0.0
C1671 C 0.75671 0.6458 0.54179 0.0
C1672 C 0.75061 0.65286 0.57627 0.0
C1673 C 0.73496 0.65001 0.56926 0.0
C1674 C 0.72997 0.64447 0.54859 0.0
C1675 C 0.7408 0.64244 0.53491 0.0
H1676 H 0.32652 0.07307 0.64539 0.0
H1677 H 0.3519 0.04963 0.61604 0.0
H1678 H 0.3361 0.09361 0.61722 0.0
H1679 H 0.36132 0.07025 0.58742 0.0
H1680 H 0.34987 0.09678 0.52989 0.0
H1681 H 0.34507 0.07691 0.55816 0.0
H1682 H 0.36466 0.11755 0.60304 0.0
H1683 H 0.36947 0.13736 0.57493 0.0
C1684 C 0.33419 0.07233 0.63292 0.0
C1685 C 0.33843 0.05971 0.6329 0.0
C1686 C 0.33976 0.08417 0.61686 0.0
C1687 C 0.34948 0.08353 0.6002 0.0
C1688 C 0.35381 0.07097 0.60011 0.0
C1689 C 0.34849 0.05926 0.61649 0.0
C1690 C 0.35334 0.10146 0.54577 0.0
C1691 C 0.36 0.1186 0.55022 0.0
C1692 C 0.35071 0.09013 0.56188 0.0
C1693 C 0.35445 0.09572 0.58275 0.0
C1694 C 0.36162 0.11292 0.58708 0.0
C1695 C 0.36446 0.12426 0.57098 0.0
H1696 H 0.93764 0.26045 0.62177 0.0
H1697 H 0.9425 0.30635 0.59796 0.0
H1698 H 0.91701 0.2445 0.59481 0.0
H1699 H 0.92244 0.29052 0.57025 0.0
H1700 H 0.87218 0.25543 0.53862 0.0
H1701 H 0.8936 0.27185 0.56452 0.0
H1702 H 0.91292 0.23802 0.55906 0.0
H1703 H 0.89068 0.22086 0.53448 0.0
C1704 C 0.93447 0.26716 0.61056 0.0
C1705 C 0.94164 0.28465 0.61203 0.0
C1706 C 0.9227 0.25803 0.59497 0.0
C1707 C 0.91799 0.26617 0.58024 0.0
C1708 C 0.92548 0.28375 0.58151 0.0
C1709 C 0.93708 0.29286 0.5973 0.0
C1710 C 0.88085 0.25135 0.54312 0.0
C1711 C 0.87954 0.2367 0.53447 0.0
C1712 C 0.89336 0.26096 0.55777 0.0
C1713 C 0.90506 0.25631 0.564 0.0
C1714 C 0.904 0.24188 0.55497 0.0
C1715 C 0.89136 0.23216 0.54053 0.0
H1716 H 0.34653 0.29877 0.617 0.0
H1717 H 0.31915 0.24857 0.64251 0.0
H1718 H 0.3576 0.28875 0.58884 0.0
H1719 H 0.33034 0.23874 0.61472 0.0
H1720 H 0.36628 0.23025 0.57507 0.0
H1721 H 0.35957 0.24396 0.60323 0.0
H1722 H 0.34365 0.26728 0.55754 0.0
H1723 H 0.3504 0.25353 0.52922 0.0
C1724 C 0.34299 0.28567 0.61669 0.0
C1725 C 0.33193 0.27445 0.63193 0.0
C1726 C 0.34927 0.27994 0.60057 0.0
C1727 C 0.34488 0.26301 0.59971 0.0
C1728 C 0.33407 0.2519 0.61515 0.0
C1729 C 0.32758 0.25752 0.63097 0.0
C1730 C 0.3617 0.23859 0.57099 0.0
C1731 C 0.35882 0.2408 0.54996 0.0
C1732 C 0.35775 0.24632 0.58711 0.0
C1733 C 0.35101 0.25658 0.58253 0.0
C1734 C 0.34891 0.25949 0.56147 0.0
C1735 C 0.35266 0.25156 0.54531 0.0
H1736 H 0.69903 0.06367 0.61582 0.0
H1737 H 0.72902 0.04055 0.60445 0.0
H1738 H 0.71273 0.08253 0.58644 0.0
H1739 H 0.74221 0.05886 0.57431 0.0
H1740 H 0.77718 0.10811 0.54015 0.0
H1741 H 0.76202 0.08702 0.56699 0.0
H1742 H 0.71578 0.08533 0.54985 0.0
H1743 H 0.73127 0.10705 0.52355 0.0
C1744 C 0.70838 0.06246 0.6068 0.0
C1745 C 0.71305 0.05074 0.61249 0.0
C1746 C 0.71617 0.07319 0.58982 0.0
C1747 C 0.72863 0.07228 0.57794 0.0
C1748 C 0.73291 0.06017 0.58333 0.0
C1749 C 0.7253 0.0496 0.60052 0.0
C1750 C 0.76373 0.10306 0.54199 0.0
C1751 C 0.75537 0.10919 0.52984 0.0
C1752 C 0.755 0.09091 0.55732 0.0
C1753 C 0.73764 0.08443 0.56067 0.0
C1754 C 0.7292 0.09025 0.54801 0.0
C1755 C 0.73801 0.10261 0.53287 0.0
H1756 H 0.94321 0.68667 0.62717 0.0
H1757 H 0.94273 0.64008 0.61767 0.0
H1758 H 0.9245 0.68022 0.59769 0.0
H1759 H 0.92396 0.6337 0.58756 0.0
H1760 H 0.87332 0.62183 0.55357 0.0
H1761 H 0.89456 0.62655 0.57988 0.0
H1762 H 0.92464 0.67818 0.55986 0.0
H1763 H 0.90336 0.67351 0.53395 0.0
C1764 C 0.93921 0.67506 0.61871 0.0
C1765 C 0.94453 0.66391 0.62485 0.0
C1766 C 0.92855 0.67143 0.60162 0.0
C1767 C 0.92286 0.65653 0.59009 0.0
C1768 C 0.92809 0.64527 0.59617 0.0
C1769 C 0.93888 0.64896 0.61335 0.0
C1770 C 0.88464 0.63408 0.55457 0.0
C1771 C 0.88658 0.64738 0.54196 0.0
C1772 C 0.89681 0.63678 0.56961 0.0
C1773 C 0.91115 0.65282 0.57222 0.0
C1774 C 0.91354 0.66579 0.55862 0.0
C1775 C 0.90138 0.66312 0.54374 0.0
H1776 H 0.92876 0.64645 0.72757 0.0
H1777 H 0.97388 0.69319 0.74307 0.0
H1778 H 0.91356 0.65114 0.7556 0.0
H1779 H 0.95873 0.69769 0.77163 0.0
H1780 H 0.91872 0.70875 0.80096 0.0
H1781 H 0.93678 0.70452 0.77644 0.0
H1782 H 0.91119 0.65192 0.79295 0.0
H1783 H 0.89296 0.65615 0.81705 0.0
C1784 C 0.93549 0.65765 0.73713 0.0
C1785 C 0.95251 0.66947 0.73305 0.0
C1786 C 0.9268 0.66029 0.75333 0.0
C1787 C 0.93492 0.67478 0.76595 0.0
C1788 C 0.95204 0.68649 0.76207 0.0
C1789 C 0.96074 0.68387 0.74578 0.0
C1790 C 0.91719 0.69637 0.79959 0.0
C1791 C 0.90434 0.68274 0.81071 0.0
C1792 C 0.92754 0.69392 0.78556 0.0
C1793 C 0.92529 0.67782 0.78251 0.0
C1794 C 0.913 0.6644 0.79453 0.0
C1795 C 0.9026 0.66682 0.8084 0.0
H1796 H 0.28927 0.26354 0.73604 0.0
H1797 H 0.34314 0.28632 0.74378 0.0
H1798 H 0.28456 0.24397 0.76452 0.0
H1799 H 0.33839 0.26687 0.77237 0.0
H1800 H 0.32192 0.23898 0.83548 0.0
H1801 H 0.32514 0.25974 0.80955 0.0
H1802 H 0.29104 0.21998 0.76816 0.0
H1803 H 0.28829 0.19915 0.79354 0.0
C1804 C 0.30009 0.26448 0.74396 0.0
C1805 C 0.31658 0.2764 0.73765 0.0
C1806 C 0.29738 0.25325 0.76018 0.0
C1807 C 0.31112 0.25394 0.7706 0.0
C1808 C 0.32759 0.26618 0.7647 0.0
C1809 C 0.3303 0.27723 0.74827 0.0
C1810 C 0.31517 0.23462 0.82082 0.0
C1811 C 0.30492 0.21733 0.81661 0.0
C1812 C 0.31697 0.24653 0.80604 0.0
C1813 C 0.30835 0.24144 0.78689 0.0
C1814 C 0.29767 0.22424 0.78293 0.0
C1815 C 0.29606 0.21231 0.79755 0.0
H1816 H 0.74696 0.0797 0.7082 0.0
H1817 H 0.72126 0.02981 0.73475 0.0
H1818 H 0.76722 0.08949 0.73674 0.0
H1819 H 0.74161 0.03979 0.76364 0.0
H1820 H 0.76777 0.0754 0.82342 0.0
H1821 H 0.74842 0.0613 0.79419 0.0
H1822 H 0.79026 0.08444 0.75067 0.0
H1823 H 0.80954 0.09857 0.77972 0.0
C1824 C 0.74568 0.0708 0.72009 0.0
C1825 C 0.73249 0.05399 0.71925 0.0
C1826 C 0.75736 0.07639 0.73636 0.0
C1827 C 0.75599 0.06538 0.75234 0.0
C1828 C 0.7429 0.04852 0.7515 0.0
C1829 C 0.73133 0.04282 0.73496 0.0
C1830 C 0.77283 0.07726 0.80762 0.0
C1831 C 0.79015 0.08812 0.80384 0.0
C1832 C 0.76179 0.06912 0.79095 0.0
C1833 C 0.76786 0.07189 0.7702 0.0
C1834 C 0.78526 0.08219 0.76652 0.0
C1835 C 0.7963 0.09016 0.78317 0.0
H1836 H 0.06081 0.35656 0.02649 0.0
H1837 H 0.01803 0.30984 0.04753 0.0
H1838 H 0.07985 0.3489 0.04302 0.0
H1839 H 0.03696 0.30203 0.06353 0.0
H1840 H 0.0735 0.30448 0.11337 0.0
H1841 H 0.05493 0.31096 0.09383 0.0
H1842 H 0.09079 0.32977 0.04254 0.0
H1843 H 0.10947 0.32332 0.06223 0.0
C1844 C 0.05549 0.34454 0.03431 0.0
C1845 C 0.03791 0.33388 0.03586 0.0
C1846 C 0.06639 0.34012 0.04374 0.0
C1847 C 0.05993 0.32494 0.05485 0.0
C1848 C 0.04236 0.31398 0.05553 0.0
C1849 C 0.0315 0.31842 0.04621 0.0
C1850 C 0.07734 0.3098 0.09782 0.0
C1851 C 0.09295 0.31332 0.08935 0.0
C1852 C 0.06668 0.31351 0.08658 0.0
C1853 C 0.07131 0.32081 0.06653 0.0
C1854 C 0.08692 0.32433 0.05802 0.0
C1855 C 0.09762 0.32063 0.06931 0.0
H1856 H 0.62159 0.68139 0.05961 0.0
H1857 H 0.66644 0.7022 0.02102 0.0
H1858 H 0.63328 0.7075 0.07915 0.0
H1859 H 0.6778 0.729 0.0395 0.0
H1860 H 0.69932 0.77236 0.08577 0.0
H1861 H 0.68935 0.745 0.06961 0.0
H1862 H 0.63789 0.73399 0.07628 0.0
H1863 H 0.64767 0.76027 0.09427 0.0
C1864 C 0.63391 0.69171 0.05516 0.0
C1865 C 0.64305 0.68988 0.0387 0.0
C1866 C 0.6406 0.70677 0.06626 0.0
C1867 C 0.65641 0.72062 0.06075 0.0
C1868 C 0.66569 0.71864 0.04442 0.0
C1869 C 0.65915 0.70333 0.03368 0.0
C1870 C 0.68586 0.76394 0.08419 0.0
C1871 C 0.67436 0.76871 0.09126 0.0
C1872 C 0.68013 0.74831 0.07457 0.0
C1873 C 0.66276 0.73714 0.07151 0.0
C1874 C 0.65133 0.74197 0.07863 0.0
C1875 C 0.65701 0.75735 0.08862 0.0
H1876 H 0.29504 0.92453 0.01962 0.0
H1877 H 0.29756 0.97123 0.03593 0.0
H1878 H 0.26823 0.90902 0.0381 0.0
H1879 H 0.27079 0.95562 0.05482 0.0
H1880 H 0.21381 0.91887 0.06899 0.0
H1881 H 0.24032 0.93574 0.04973 0.0
H1882 H 0.25918 0.90508 0.07468 0.0
H1883 H 0.23281 0.88828 0.0937 0.0
C1884 C 0.28988 0.9315 0.02712 0.0
C1885 C 0.29851 0.94913 0.02641 0.0
C1886 C 0.27455 0.92261 0.03782 0.0
C1887 C 0.26751 0.93112 0.04812 0.0
C1888 C 0.27588 0.94872 0.04695 0.0
C1889 C 0.29124 0.95764 0.0362 0.0
C1890 C 0.22372 0.9159 0.07048 0.0
C1891 C 0.2212 0.90216 0.0826 0.0
C1892 C 0.23887 0.92552 0.05947 0.0
C1893 C 0.25172 0.92157 0.06047 0.0
C1894 C 0.24935 0.90817 0.07318 0.0
C1895 C 0.23427 0.89858 0.0841 0.0
H1896 H 0.31079 0.01554 0.97083 0.0
H1897 H 0.35692 0.05632 0.99643 0.0
H1898 H 0.30392 0.03561 0.95636 0.0
H1899 H 0.35023 0.0765 0.98146 0.0
H1900 H 0.32591 0.1076 0.96478 0.0
H1901 H 0.33097 0.08736 0.9829 0.0
H1902 H 0.31473 0.05558 0.92786 0.0
H1903 H 0.30962 0.07571 0.90987 0.0
C1904 C 0.31943 0.02881 0.97346 0.0
C1905 C 0.33446 0.03436 0.98464 0.0
C1906 C 0.31554 0.04031 0.96505 0.0
C1907 C 0.32663 0.05766 0.96751 0.0
C1908 C 0.34136 0.06321 0.9794 0.0
C1909 C 0.34523 0.05167 0.98791 0.0
C1910 C 0.32348 0.0963 0.95657 0.0
C1911 C 0.31734 0.09322 0.93592 0.0
C1912 C 0.32638 0.08472 0.96694 0.0
C1913 C 0.32319 0.06984 0.95686 0.0
C1914 C 0.317 0.06676 0.93623 0.0
C1915 C 0.31408 0.0783 0.9259 0.0
H1916 H 0.97534 0.30083 0.9786 0.0
H1917 H 0.92909 0.29965 0.99516 0.0
H1918 H 0.95928 0.27544 0.95758 0.0
H1919 H 0.91311 0.27418 0.97453 0.0
H1920 H 0.892 0.24077 0.9172 0.0
H1921 H 0.90902 0.2661 0.93779 0.0
H1922 H 0.93868 0.24533 0.96061 0.0
H1923 H 0.92162 0.21993 0.93989 0.0
C1924 C 0.96175 0.2951 0.9779 0.0
C1925 C 0.95352 0.30235 0.9885 0.0
C1926 C 0.95255 0.28051 0.96592 0.0
C1927 C 0.93493 0.27286 0.96425 0.0
C1928 C 0.9267 0.27994 0.97517 0.0
C1929 C 0.93587 0.29449 0.98712 0.0
C1930 C 0.90211 0.24157 0.92667 0.0
C1931 C 0.90538 0.22829 0.92704 0.0
C1932 C 0.91185 0.25608 0.9385 0.0
C1933 C 0.9251 0.25767 0.95101 0.0
C1934 C 0.92865 0.24456 0.951 0.0
C1935 C 0.91889 0.23002 0.93912 0.0
H1936 H 0.69543 0.6423 0.99328 0.0
H1937 H 0.68962 0.67663 0.95336 0.0
H1938 H 0.72222 0.65015 0.97585 0.0
H1939 H 0.71634 0.68445 0.93606 0.0
H1940 H 0.75236 0.6762 0.89338 0.0
H1941 H 0.72661 0.66988 0.91225 0.0
H1942 H 0.75162 0.67513 0.97122 0.0
H1943 H 0.77739 0.68128 0.95229 0.0
C1944 C 0.69991 0.65158 0.98089 0.0
C1945 C 0.69038 0.65879 0.97464 0.0
C1946 C 0.71528 0.65613 0.971 0.0
C1947 C 0.72132 0.66786 0.95454 0.0
C1948 C 0.7119 0.67524 0.94853 0.0
C1949 C 0.69664 0.67081 0.95852 0.0
C1950 C 0.75235 0.67599 0.91037 0.0
C1951 C 0.76686 0.67921 0.92137 0.0
C1952 C 0.73766 0.67251 0.92117 0.0
C1953 C 0.73712 0.67202 0.94321 0.0
C1954 C 0.75165 0.67531 0.95424 0.0
C1955 C 0.76642 0.67897 0.94342 0.0
H1956 H 0.91685 0.62897 0.0019 0.0
H1957 H 0.96389 0.66625 0.97347 0.0
H1958 H 0.90213 0.64086 0.98352 0.0
H1959 H 0.94908 0.678 0.95502 0.0
H1960 H 0.91023 0.67424 0.9046 0.0
H1961 H 0.92685 0.66601 0.92583 0.0
H1962 H 0.90128 0.66837 0.98169 0.0
H1963 H 0.88468 0.67672 0.96039 0.0
C1964 C 0.92406 0.63976 0.99186 0.0
C1965 C 0.94152 0.64661 0.98905 0.0
C1966 C 0.91565 0.64662 0.98146 0.0
C1967 C 0.92449 0.66031 0.96785 0.0
C1968 C 0.94198 0.66737 0.96534 0.0
C1969 C 0.95044 0.66067 0.97596 0.0
C1970 C 0.90829 0.67313 0.92144 0.0
C1971 C 0.89618 0.67605 0.9309 0.0
C1972 C 0.91785 0.66854 0.93358 0.0
C1973 C 0.9153 0.66654 0.95537 0.0
C1974 C 0.9034 0.66976 0.9649 0.0
C1975 C 0.89401 0.67462 0.95278 0.0
H1976 H 0.31187 0.29648 0.97783 0.0
H1977 H 0.35874 0.30299 0.00141 0.0
H1978 H 0.30539 0.26982 0.96199 0.0
H1979 H 0.35212 0.27616 0.98577 0.0
H1980 H 0.34519 0.24113 0.93007 0.0
H1981 H 0.35062 0.26608 0.9496 0.0
H1982 H 0.29851 0.24096 0.96977 0.0
H1983 H 0.29307 0.21586 0.95032 0.0
C1984 C 0.32068 0.29211 0.97989 0.0
C1985 C 0.33588 0.3019 0.99076 0.0
C1986 C 0.31692 0.27679 0.97089 0.0
C1987 C 0.3283 0.27095 0.9725 0.0
C1988 C 0.34322 0.28046 0.984 0.0
C1989 C 0.34696 0.29577 0.99308 0.0
C1990 C 0.33493 0.24082 0.93889 0.0
C1991 C 0.3187 0.22648 0.93866 0.0
C1992 C 0.33805 0.25513 0.9501 0.0
C1993 C 0.32501 0.25546 0.96131 0.0
C1994 C 0.30878 0.24113 0.96112 0.0
C1995 C 0.30566 0.22678 0.94993 0.0
H1996 H 0.6998 0.02384 0.97852 0.0
H1997 H 0.70173 0.07049 0.99323 0.0
H1998 H 0.72706 0.03946 0.96064 0.0
H1999 H 0.72871 0.08597 0.97513 0.0
H2000 H 0.78385 0.11043 0.95883 0.0
H2001 H 0.75792 0.09329 0.97862 0.0
H2002 H 0.73935 0.05641 0.92881 0.0
H2003 H 0.76544 0.0736 0.909 0.0
C2004 C 0.70603 0.03741 0.97798 0.0
C2005 C 0.69856 0.0459 0.98734 0.0
C2006 C 0.7216 0.04634 0.96763 0.0
C2007 C 0.73008 0.06396 0.9665 0.0
C2008 C 0.72266 0.07243 0.97599 0.0
C2009 C 0.70711 0.06352 0.98628 0.0
C2010 C 0.77424 0.09865 0.95211 0.0
C2011 C 0.7766 0.09346 0.93225 0.0
C2012 C 0.75937 0.08884 0.96344 0.0
C2013 C 0.74647 0.07359 0.95519 0.0
C2014 C 0.74909 0.06805 0.93567 0.0
C2015 C 0.76403 0.07788 0.92432 0.0
H2016 H 0.68563 0.98034 0.04725 0.0
H2017 H 0.64079 0.93913 0.01979 0.0
H2018 H 0.69256 0.96059 0.06265 0.0
H2019 H 0.64789 0.91929 0.03506 0.0
H2020 H 0.6547 0.89052 0.08987 0.0
H2021 H 0.64857 0.90946 0.07063 0.0
H2022 H 0.70132 0.94026 0.05437 0.0
H2023 H 0.70747 0.9212 0.07351 0.0
C2024 C 0.67735 0.96706 0.04428 0.0
C2025 C 0.66261 0.9613 0.03237 0.0
C2026 C 0.68139 0.95573 0.05303 0.0
C2027 C 0.67075 0.93836 0.05017 0.0
C2028 C 0.65623 0.9326 0.03777 0.0
C2029 C 0.65223 0.94396 0.02891 0.0
C2030 C 0.66498 0.90119 0.08195 0.0
C2031 C 0.68159 0.90432 0.08326 0.0
C2032 C 0.66145 0.91204 0.07089 0.0
C2033 C 0.67444 0.92635 0.06091 0.0
C2034 C 0.69105 0.92944 0.06208 0.0
C2035 C 0.69458 0.91855 0.07311 0.0
H2036 H 0.04742 0.69606 0.02098 0.0
H2037 H 0.0055 0.69807 0.04878 0.0
H2038 H 0.06695 0.72353 0.0361 0.0
H2039 H 0.0249 0.7256 0.06338 0.0
H2040 H 0.06537 0.76312 0.10824 0.0
H2041 H 0.04554 0.73692 0.09086 0.0
H2042 H 0.07635 0.75324 0.03472 0.0
H2043 H 0.09628 0.77943 0.05224 0.0
C2044 C 0.04237 0.70246 0.03008 0.0
C2045 C 0.02494 0.69484 0.03381 0.0
C2046 C 0.05354 0.71823 0.03867 0.0
C2047 C 0.04749 0.72672 0.0511 0.0
C2048 C 0.03001 0.71928 0.05424 0.0
C2049 C 0.01888 0.70353 0.04575 0.0
C2050 C 0.06778 0.76121 0.09209 0.0
C2051 C 0.08239 0.77333 0.08162 0.0
C2052 C 0.05641 0.7462 0.08211 0.0
C2053 C 0.05935 0.74297 0.06138 0.0
C2054 C 0.07384 0.75522 0.05079 0.0
C2055 C 0.08523 0.77022 0.06081 0.0
H2056 H 0.29729 0.37059 0.03338 0.0
H2057 H 0.30509 0.33102 0.05585 0.0
H2058 H 0.27062 0.35833 0.0526 0.0
H2059 H 0.2784 0.31888 0.07526 0.0
H2060 H 0.24027 0.31789 0.12621 0.0
H2061 H 0.26676 0.32851 0.10654 0.0
H2062 H 0.24198 0.33062 0.05039 0.0
H2063 H 0.21556 0.32 0.06998 0.0
C2064 C 0.29333 0.3593 0.04244 0.0
C2065 C 0.30329 0.35176 0.0431 0.0
C2066 C 0.27803 0.35225 0.05333 0.0
C2067 C 0.27249 0.33767 0.06534 0.0
C2068 C 0.28247 0.33018 0.06617 0.0
C2069 C 0.29767 0.33709 0.055 0.0
C2070 C 0.24052 0.32057 0.10965 0.0
C2071 C 0.22592 0.31814 0.09957 0.0
C2072 C 0.25559 0.32652 0.0984 0.0
C2073 C 0.25636 0.33041 0.077 0.0
C2074 C 0.24171 0.32781 0.06691 0.0
C2075 C 0.22661 0.32163 0.07806 0.0
H2076 H 0.68372 0.65304 0.39106 0.0
H2077 H 0.72354 0.68864 0.35038 0.0
H2078 H 0.70331 0.64604 0.40705 0.0
H2079 H 0.7432 0.6815 0.36648 0.0
H2080 H 0.76803 0.65096 0.38938 0.0
H2081 H 0.74813 0.65656 0.37082 0.0
H2082 H 0.72873 0.66229 0.43023 0.0
H2083 H 0.74849 0.65669 0.44867 0.0
C2084 C 0.69663 0.65928 0.38539 0.0
C2085 C 0.7021 0.67147 0.36951 0.0
C2086 C 0.70786 0.65531 0.39464 0.0
C2087 C 0.7248 0.66331 0.38812 0.0
C2088 C 0.73019 0.67509 0.37175 0.0
C2089 C 0.71896 0.67922 0.36261 0.0
C2090 C 0.75942 0.65332 0.3984 0.0
C2091 C 0.7598 0.65342 0.42045 0.0
C2092 C 0.74815 0.65664 0.38781 0.0
C2093 C 0.73687 0.65983 0.39909 0.0
C2094 C 0.73717 0.65974 0.42112 0.0
C2095 C 0.74855 0.65665 0.43167 0.0
H2096 H 0.28528 0.0292 0.36556 0.0
H2097 H 0.3323 0.02998 0.37346 0.0
H2098 H 0.29635 0.05498 0.3858 0.0
H2099 H 0.34328 0.05573 0.39415 0.0
H2100 H 0.36181 0.11158 0.4112 0.0
H2101 H 0.35218 0.08562 0.39123 0.0
H2102 H 0.30353 0.0639 0.42191 0.0
H2103 H 0.3131 0.08978 0.44165 0.0
C2104 C 0.29798 0.03484 0.37163 0.0
C2105 C 0.30786 0.02745 0.36793 0.0
C2106 C 0.30429 0.04959 0.38338 0.0
C2107 C 0.32064 0.05733 0.39178 0.0
C2108 C 0.33067 0.05014 0.38779 0.0
C2109 C 0.32434 0.03534 0.376 0.0
C2110 C 0.34914 0.10116 0.41383 0.0
C2111 C 0.33815 0.10278 0.4278 0.0
C2112 C 0.34362 0.0863 0.40241 0.0
C2113 C 0.32701 0.07277 0.40478 0.0
C2114 C 0.31626 0.07423 0.41932 0.0
C2115 C 0.32175 0.08904 0.43067 0.0
H2116 H 0.97881 0.27719 0.39874 0.0
H2117 H 0.96208 0.30395 0.35985 0.0
H2118 H 0.95102 0.26176 0.41483 0.0
H2119 H 0.93378 0.28771 0.375 0.0
H2120 H 0.88666 0.26267 0.41639 0.0
H2121 H 0.91553 0.28136 0.40427 0.0
H2122 H 0.92467 0.23988 0.40555 0.0
H2123 H 0.89667 0.22181 0.41927 0.0
C2124 C 0.96909 0.27967 0.39356 0.0
C2125 C 0.97249 0.29159 0.37791 0.0
C2126 C 0.95311 0.27075 0.40267 0.0
C2127 C 0.93999 0.2732 0.39593 0.0
C2128 C 0.94358 0.28557 0.38071 0.0
C2129 C 0.95975 0.2948 0.37192 0.0
C2130 C 0.89495 0.25764 0.41438 0.0
C2131 C 0.88923 0.24066 0.41868 0.0
C2132 C 0.91144 0.26831 0.40717 0.0
C2133 C 0.92252 0.26219 0.40397 0.0
C2134 C 0.9167 0.24521 0.40821 0.0
C2135 C 0.90041 0.23468 0.41569 0.0
H2136 H 0.98579 0.35427 0.30399 0.0
H2137 H 0.03106 0.39424 0.33238 0.0
H2138 H 0.98054 0.37499 0.28773 0.0
H2139 H 0.02565 0.41493 0.31638 0.0
H2140 H 0.02212 0.4453 0.26176 0.0
H2141 H 0.02635 0.42491 0.28059 0.0
H2142 H 0.97319 0.39662 0.29584 0.0
H2143 H 0.96895 0.41713 0.27706 0.0
C2144 C -0.00548 0.36747 0.30694 0.0
C2145 C 0.00889 0.37263 0.31936 0.0
C2146 C 0.99146 0.37933 0.29772 0.0
C2147 C 0.00273 0.39659 0.30069 0.0
C2148 C 0.01687 0.40172 0.31355 0.0
C2149 C 0.01991 0.38987 0.32281 0.0
C2150 C 0.01136 0.43486 0.26936 0.0
C2151 C -0.00479 0.43285 0.26796 0.0
C2152 C 0.01379 0.42317 0.28015 0.0
C2153 C 0.00011 0.40919 0.28976 0.0
C2154 C 0.98395 0.40718 0.2884 0.0
C2155 C 0.98152 0.4189 0.27763 0.0
H2156 H 0.64197 0.63599 0.30981 0.0
H2157 H 0.59518 0.63584 0.31767 0.0
H2158 H 0.62702 0.60949 0.29058 0.0
H2159 H 0.58027 0.60929 0.29895 0.0
H2160 H 0.56147 0.57173 0.24587 0.0
H2161 H 0.57783 0.59854 0.26384 0.0
H2162 H 0.60632 0.57977 0.29538 0.0
H2163 H 0.58999 0.55291 0.27712 0.0
C2164 C 0.6285 0.63028 0.30754 0.0
C2165 C 0.6198 0.6381 0.31522 0.0
C2166 C 0.61992 0.61505 0.2966 0.0
C2167 C 0.60247 0.60731 0.29311 0.0
C2168 C 0.59377 0.61505 0.301 0.0
C2169 C 0.60232 0.63026 0.31188 0.0
C2170 C 0.57121 0.57331 0.25668 0.0
C2171 C 0.57433 0.56016 0.26025 0.0
C2172 C 0.58056 0.58867 0.26701 0.0
C2173 C 0.59325 0.59125 0.28125 0.0
C2174 C 0.59672 0.57825 0.28439 0.0
C2175 C 0.58737 0.56286 0.27396 0.0
H2176 H 0.35633 0.97079 0.32718 0.0
H2177 H 0.36217 0.01605 0.29964 0.0
H2178 H 0.38294 0.97663 0.31111 0.0
H2179 H 0.3889 0.02208 0.284 0.0
H2180 H 0.42303 0.01485 0.23749 0.0
H2181 H 0.3979 0.01067 0.25592 0.0
H2182 H 0.41337 0.99553 0.31143 0.0
H2183 H 0.43852 -0.00034 0.2929 0.0
C2184 C 0.36341 0.9821 0.31794 0.0
C2185 C 0.35709 0.9929 0.31457 0.0
C2186 C 0.3787 0.98549 0.3088 0.0
C2187 C 0.38799 -0.00024 0.29613 0.0
C2188 C 0.38191 0.01082 0.29335 0.0
C2189 C 0.36663 0.00742 0.30244 0.0
C2190 C 0.42119 0.01084 0.25371 0.0
C2191 C 0.43278 0.00759 0.26372 0.0
C2192 C 0.40678 0.00845 0.2643 0.0
C2193 C 0.40362 0.00278 0.28518 0.0
C2194 C 0.4153 -0.00032 0.29527 0.0
C2195 C 0.42971 0.00206 0.28466 0.0
H2196 H 0.62449 0.99531 0.32682 0.0
H2197 H 0.59872 0.9478 0.29424 0.0
H2198 H 0.60734 0.00441 0.30864 0.0
H2199 H 0.58245 0.95721 0.2748 0.0
H2200 H 0.54277 0.96985 0.25989 0.0
H2201 H 0.56039 0.96168 0.27792 0.0
H2202 H 0.60126 0.01338 0.27811 0.0
H2203 H 0.58287 0.02184 0.26215 0.0
C2204 C 0.61532 0.98693 0.31548 0.0
C2205 C 0.61279 0.97081 0.31205 0.0
C2206 C 0.60554 0.99217 0.30489 0.0
C2207 C 0.59332 0.98155 0.29023 0.0
C2208 C 0.5913 0.9656 0.28637 0.0
C2209 C 0.60073 0.96021 0.29739 0.0
C2210 C 0.55537 0.9796 0.26418 0.0
C2211 C 0.56121 0.99659 0.25972 0.0
C2212 C 0.56569 0.97483 0.27416 0.0
C2213 C 0.5824 0.9868 0.27947 0.0
C2214 C 0.5884 0.00377 0.27463 0.0
C2215 C 0.5779 0.00862 0.26508 0.0
H2216 H 0.02955 0.6391 0.32946 0.0
H2217 H 0.98321 0.63327 0.30498 0.0
H2218 H 0.02323 0.61269 0.31291 0.0
H2219 H 0.97671 0.60671 0.28883 0.0
H2220 H 0.98307 0.57283 0.24077 0.0
H2221 H 0.98728 0.59764 0.25973 0.0
H2222 H 0.00429 0.58251 0.31384 0.0
H2223 H 0.00018 0.55774 0.2948 0.0
C2224 C 0.0179 0.63207 0.32079 0.0
C2225 C 0.00693 0.63832 0.31844 0.0
C2226 C 0.01424 0.61689 0.31138 0.0
C2227 C -0.00049 0.60763 0.29944 0.0
C2228 C 0.9883 0.61367 0.29762 0.0
C2229 C 0.99198 0.62884 0.307 0.0
C2230 C 0.98749 0.57469 0.25681 0.0
C2231 C 0.99136 0.56337 0.26626 0.0
C2232 C 0.98989 0.5889 0.26769 0.0
C2233 C -0.00383 0.59208 0.28829 0.0
C2234 C -0.00029 0.58057 0.29788 0.0
C2235 C -0.00266 0.56638 0.28698 0.0
H2236 H 0.36456 0.40237 0.31615 0.0
H2237 H 0.36528 0.35631 0.30767 0.0
H2238 H 0.39113 0.4177 0.2973 0.0
H2239 H 0.39185 0.37171 0.28822 0.0
H2240 H 0.44857 0.40984 0.27411 0.0
H2241 H 0.42165 0.39272 0.29237 0.0
H2242 H 0.40171 0.42066 0.26215 0.0
H2243 H 0.4286 0.43784 0.24429 0.0
C2244 C 0.37035 0.39547 0.31018 0.0
C2245 C 0.36272 0.37808 0.31337 0.0
C2246 C 0.38556 0.40427 0.29922 0.0
C2247 C 0.39355 0.39592 0.29102 0.0
C2248 C 0.38608 0.37855 0.29444 0.0
C2249 C 0.37082 0.36971 0.30552 0.0
C2250 C 0.43834 0.41216 0.27125 0.0
C2251 C 0.44073 0.4253 0.25799 0.0
C2252 C 0.42292 0.40235 0.28167 0.0
C2253 C 0.40958 0.40545 0.27894 0.0
C2254 C 0.41184 0.4182 0.26504 0.0
C2255 C 0.42723 0.42802 0.25475 0.0
H2256 H 0.35319 0.31631 0.38438 0.0
H2257 H 0.30759 0.27398 0.36013 0.0
H2258 H 0.3606 0.29722 0.40081 0.0
H2259 H 0.31475 0.25484 0.37705 0.0
H2260 H 0.33944 0.22484 0.39538 0.0
H2261 H 0.33397 0.24442 0.37644 0.0
H2262 H 0.35144 0.27803 0.42976 0.0
H2263 H 0.35709 0.25853 0.44854 0.0
C2264 C 0.34475 0.30292 0.38252 0.0
C2265 C 0.32977 0.29666 0.37099 0.0
C2266 C 0.34895 0.29196 0.39207 0.0
C2267 C 0.33822 0.27447 0.39041 0.0
C2268 C 0.32341 0.26822 0.37848 0.0
C2269 C 0.31925 0.2792 0.36885 0.0
C2270 C 0.34208 0.23641 0.40305 0.0
C2271 C 0.34867 0.24012 0.42348 0.0
C2272 C 0.33892 0.24762 0.39221 0.0
C2273 C 0.34221 0.26281 0.40157 0.0
C2274 C 0.349 0.26659 0.42192 0.0
C2275 C 0.35223 0.25541 0.43272 0.0
H2276 H 0.71768 0.02833 0.34947 0.0
H2277 H 0.67632 0.03054 0.37873 0.0
H2278 H 0.73737 0.05641 0.36275 0.0
H2279 H 0.69601 0.0584 0.39235 0.0
H2280 H 0.76787 0.09498 0.41426 0.0
H2281 H 0.74853 0.06866 0.39688 0.0
H2282 H 0.71529 0.08754 0.38301 0.0
H2283 H 0.73471 0.11397 0.40052 0.0
C2284 C 0.71278 0.03485 0.35861 0.0
C2285 C 0.69546 0.02718 0.36314 0.0
C2286 C 0.72407 0.05089 0.36633 0.0
C2287 C 0.71828 0.0596 0.37875 0.0
C2288 C 0.70088 0.05212 0.38268 0.0
C2289 C 0.6896 0.0361 0.37495 0.0
C2290 C 0.75655 0.09362 0.40725 0.0
C2291 C 0.75284 0.10658 0.40875 0.0
C2292 C 0.74547 0.07853 0.39725 0.0
C2293 C 0.73039 0.07601 0.38847 0.0
C2294 C 0.72672 0.08902 0.38981 0.0
C2295 C 0.73782 0.10414 0.39986 0.0
H2296 H 0.97768 0.7107 0.38693 0.0
H2297 H 0.96517 0.66103 0.36649 0.0
H2298 H 0.95078 0.69873 0.4055 0.0
H2299 H 0.93807 0.64909 0.38503 0.0
H2300 H 0.8839 0.6424 0.39879 0.0
H2301 H 0.91099 0.65138 0.38147 0.0
H2302 H 0.93713 0.67894 0.43703 0.0
H2303 H 0.9102 0.66961 0.45461 0.0
C2304 C 0.96919 0.69723 0.38639 0.0
C2305 C 0.97355 0.6868 0.37526 0.0
C2306 C 0.95384 0.69039 0.39712 0.0
C2307 C 0.94243 0.673 0.39673 0.0
C2308 C 0.94667 0.66254 0.3855 0.0
C2309 C 0.96218 0.66937 0.375 0.0
C2310 C 0.89541 0.65007 0.40747 0.0
C2311 C 0.89488 0.65549 0.42798 0.0
C2312 C 0.91089 0.65523 0.39753 0.0
C2313 C 0.92608 0.666 0.40787 0.0
C2314 C 0.92557 0.67087 0.42861 0.0
C2315 C 0.91015 0.66558 0.43861 0.0
H2316 H 0.35182 0.98775 0.72744 0.0
H2317 H 0.39025 0.02395 0.68582 0.0
H2318 H 0.37258 0.98235 0.74342 0.0
H2319 H 0.41106 0.01847 0.70188 0.0
H2320 H 0.43893 0.99114 0.72437 0.0
H2321 H 0.41781 0.99511 0.7063 0.0
H2322 H 0.398 -0.00053 0.76612 0.0
H2323 H 0.41899 0.99541 0.78413 0.0
C2324 C 0.36467 0.99445 0.72155 0.0
C2325 C 0.3694 0.00633 0.7054 0.0
C2326 C 0.37657 0.99142 0.73081 0.0
C2327 C 0.39346 8e-05 0.72401 0.0
C2328 C 0.39811 0.01155 0.70737 0.0
C2329 C 0.38621 0.01472 0.69823 0.0
C2330 C 0.42999 0.99286 0.73362 0.0
C2331 C 0.4306 0.99298 0.75566 0.0
C2332 C 0.418 0.99525 0.72329 0.0
C2333 C 0.40625 -0.00244 0.7348 0.0
C2334 C 0.4068 -0.00244 0.75683 0.0
C2335 C 0.41889 0.99538 0.76714 0.0
H2336 H -0.00344 0.35974 0.70884 0.0
H2337 H 0.95511 0.36446 0.68589 0.0
H2338 H 0.00558 0.38457 0.73082 0.0
H2339 H 0.96438 0.38946 0.70722 0.0
H2340 H 0.97213 0.4207 0.76496 0.0
H2341 H 0.96462 0.39628 0.74326 0.0
H2342 H 0.01742 0.4146 0.73102 0.0
H2343 H 0.025 0.43867 0.75384 0.0
C2344 C 0.98952 0.3662 0.70826 0.0
C2345 C 0.97503 0.36002 0.69575 0.0
C2346 C -0.00529 0.38047 0.72081 0.0
C2347 C 0.98559 0.38892 0.72101 0.0
C2348 C 0.97147 0.38305 0.70789 0.0
C2349 C 0.96621 0.36875 0.69552 0.0
C2350 C 0.98219 0.41942 0.75799 0.0
C2351 C -0.00081 0.43169 0.76124 0.0
C2352 C 0.97786 0.40551 0.74522 0.0
C2353 C 0.9904 0.40353 0.73516 0.0
C2354 C 0.00743 0.41567 0.7386 0.0
C2355 C 0.01177 0.42957 0.75151 0.0
H2356 H 0.62762 0.59081 0.69295 0.0
H2357 H 0.62956 0.63755 0.70723 0.0
H2358 H 0.60041 0.5754 0.7107 0.0
H2359 H 0.60221 0.62202 0.72488 0.0
H2360 H 0.56285 0.58699 0.77547 0.0
H2361 H 0.58965 0.60412 0.75701 0.0
H2362 H 0.57117 0.56952 0.70476 0.0
H2363 H 0.54441 0.55254 0.72303 0.0
C2364 C 0.62225 0.5978 0.69985 0.0
C2365 C 0.63075 0.6154 0.69863 0.0
C2366 C 0.60661 0.58896 0.7099 0.0
C2367 C 0.59917 0.59752 0.71905 0.0
C2368 C 0.60772 0.61512 0.71806 0.0
C2369 C 0.62333 0.62398 0.70787 0.0
C2370 C 0.56442 0.58323 0.7599 0.0
C2371 C 0.55161 0.56833 0.75079 0.0
C2372 C 0.57976 0.593 0.74936 0.0
C2373 C 0.58254 0.588 0.72959 0.0
C2374 C 0.56949 0.57347 0.72018 0.0
C2375 C 0.55418 0.56376 0.73064 0.0
H2376 H 0.63837 0.67884 0.63763 0.0
H2377 H 0.68413 0.72063 0.66253 0.0
H2378 H 0.63066 0.69828 0.623 0.0
H2379 H 0.67657 0.74012 0.64749 0.0
H2380 H 0.65194 0.77035 0.63021 0.0
H2381 H 0.65656 0.75012 0.64901 0.0
H2382 H 0.64122 0.71818 0.59412 0.0
H2383 H 0.63658 0.73836 0.5754 0.0
C2384 C 0.64673 0.69219 0.64011 0.0
C2385 C 0.66192 0.69823 0.6511 0.0
C2386 C 0.64235 0.70332 0.63162 0.0
C2387 C 0.65309 0.72073 0.63389 0.0
C2388 C 0.66796 0.72676 0.64561 0.0
C2389 C 0.67233 0.71561 0.65416 0.0
C2390 C 0.64955 0.75899 0.62219 0.0
C2391 C 0.64395 0.75596 0.60131 0.0
C2392 C 0.6522 0.74742 0.63295 0.0
C2393 C 0.64928 0.73257 0.62305 0.0
C2394 C 0.64332 0.72938 0.60231 0.0
C2395 C 0.64067 0.74094 0.59157 0.0
H2396 H 0.30751 0.97033 0.64476 0.0
H2397 H 0.26099 0.97009 0.65589 0.0
H2398 H 0.29198 0.94392 0.62546 0.0
H2399 H 0.24549 0.94359 0.63724 0.0
H2400 H 0.22458 0.90613 0.58439 0.0
H2401 H 0.24149 0.93282 0.60239 0.0
H2402 H 0.27182 0.91433 0.62961 0.0
H2403 H 0.255 0.88764 0.61111 0.0
C2404 C 0.29397 0.9646 0.64323 0.0
C2405 C 0.28551 0.97239 0.65178 0.0
C2406 C 0.28505 0.94942 0.63224 0.0
C2407 C 0.26749 0.94167 0.62965 0.0
C2408 C 0.25905 0.94936 0.63852 0.0
C2409 C 0.26794 0.96454 0.64936 0.0
C2410 C 0.23485 0.90777 0.59424 0.0
C2411 C 0.23837 0.89476 0.59651 0.0
C2412 C 0.24452 0.92305 0.60462 0.0
C2413 C 0.25789 0.92568 0.61769 0.0
C2414 C 0.2617 0.91279 0.61954 0.0
C2415 C 0.25207 0.8975 0.60899 0.0
H2416 H 0.02898 0.30917 0.6598 0.0
H2417 H 0.02831 0.34785 0.62284 0.0
H2418 H 0.05614 0.31626 0.64402 0.0
H2419 H 0.05539 0.35496 0.60727 0.0
H2420 H 0.09122 0.34695 0.56471 0.0
H2421 H 0.06522 0.34107 0.58248 0.0
H2422 H 0.08639 0.33923 0.64193 0.0
H2423 H 0.11238 0.34482 0.62403 0.0
C2424 C 0.03469 0.31928 0.64848 0.0
C2425 C 0.02644 0.32788 0.64249 0.0
C2426 C 0.05027 0.32338 0.63951 0.0
C2427 C 0.05784 0.33609 0.62428 0.0
C2428 C 0.04976 0.34494 0.61872 0.0
C2429 C 0.03428 0.34092 0.62775 0.0
C2430 C 0.0903 0.34521 0.58156 0.0
C2431 C 0.10383 0.34631 0.59296 0.0
C2432 C 0.07547 0.34201 0.59177 0.0
C2433 C 0.07377 0.33973 0.61363 0.0
C2434 C 0.08729 0.34082 0.62506 0.0
C2435 C 0.10221 0.34417 0.61485 0.0
H2436 H 0.25198 0.28574 0.65946 0.0
H2437 H 0.29908 0.32742 0.63699 0.0
H2438 H 0.23655 0.29691 0.64116 0.0
H2439 H 0.28355 0.33841 0.61847 0.0
H2440 H 0.24566 0.33734 0.56826 0.0
H2441 H 0.262 0.3275 0.58735 0.0
H2442 H 0.23458 0.32419 0.64412 0.0
H2443 H 0.21837 0.33421 0.62507 0.0
C2444 C 0.25903 0.29724 0.65057 0.0
C2445 C 0.27674 0.3057 0.64965 0.0
C2446 C 0.2502 0.30367 0.64023 0.0
C2447 C 0.2589 0.31851 0.62847 0.0
C2448 C 0.27658 0.32691 0.62738 0.0
C2449 C 0.28544 0.32065 0.63803 0.0
C2450 C 0.24321 0.33456 0.58483 0.0
C2451 C 0.23079 0.3365 0.59524 0.0
C2452 C 0.25259 0.32903 0.59574 0.0
C2453 C 0.24949 0.32507 0.61715 0.0
C2454 C 0.23712 0.32708 0.62758 0.0
C2455 C 0.22795 0.3329 0.61675 0.0
H2456 H 0.69404 0.9679 0.66134 0.0
H2457 H 0.64803 0.96461 0.63983 0.0
H2458 H 0.68503 0.94032 0.64624 0.0
H2459 H 0.63888 0.93691 0.62513 0.0
H2460 H 0.64108 0.90064 0.57685 0.0
H2461 H 0.64746 0.92628 0.59543 0.0
H2462 H 0.66445 0.91036 0.64881 0.0
H2463 H 0.65807 0.88468 0.63016 0.0
C2464 C 0.68189 0.96117 0.65368 0.0
C2465 C 0.67181 0.96848 0.65163 0.0
C2466 C 0.67669 0.94534 0.64511 0.0
C2467 C 0.6613 0.93648 0.63434 0.0
C2468 C 0.65094 0.94354 0.63301 0.0
C2469 C 0.65614 0.95936 0.64156 0.0
C2470 C 0.64592 0.90248 0.59267 0.0
C2471 C 0.64912 0.89066 0.602 0.0
C2472 C 0.64958 0.91718 0.60334 0.0
C2473 C 0.65649 0.92037 0.6236 0.0
C2474 C 0.65936 0.90838 0.63311 0.0
C2475 C 0.65572 0.89368 0.62242 0.0
H2476 H 0.03023 0.68716 0.64291 0.0
H2477 H 0.03396 0.73445 0.65886 0.0
H2478 H 0.05814 0.70235 0.62632 0.0
H2479 H 0.06157 0.74945 0.64224 0.0
H2480 H 0.11687 0.77224 0.62967 0.0
H2481 H 0.09027 0.7547 0.64801 0.0
H2482 H 0.07193 0.72085 0.59502 0.0
H2483 H 0.09866 0.7385 0.57656 0.0
C2484 C 0.03699 0.70076 0.64293 0.0
C2485 C 0.02985 0.70958 0.65225 0.0
C2486 C 0.05292 0.70943 0.63335 0.0
C2487 C 0.06209 0.72709 0.6331 0.0
C2488 C 0.05495 0.73585 0.64247 0.0
C2489 C 0.03905 0.72723 0.65189 0.0
C2490 C 0.10719 0.76102 0.62195 0.0
C2491 C 0.10976 0.75688 0.60155 0.0
C2492 C 0.09196 0.75098 0.63246 0.0
C2493 C 0.07892 0.73653 0.62283 0.0
C2494 C 0.08178 0.73187 0.60287 0.0
C2495 C 0.09707 0.74196 0.59231 0.0
H2496 H 0.01411 0.64291 0.71394 0.0
H2497 H 0.9674 0.60291 0.68851 0.0
H2498 H 0.01932 0.62233 0.73043 0.0
H2499 H 0.97249 0.58222 0.70542 0.0
H2500 H -0.00481 0.54988 0.7255 0.0
H2501 H 0.99089 0.57005 0.70592 0.0
H2502 H 0.00713 0.6031 0.75975 0.0
H2503 H 0.01137 0.58302 0.77925 0.0
C2504 C 0.00498 0.6297 0.71176 0.0
C2505 C 0.99028 0.62455 0.70002 0.0
C2506 C 0.00792 0.6179 0.72135 0.0
C2507 C -0.00378 0.60063 0.71949 0.0
C2508 C 0.9818 0.59543 0.70707 0.0
C2509 C 0.97886 0.60728 0.69743 0.0
C2510 C -0.00225 0.56142 0.73318 0.0
C2511 C 0.00372 0.56488 0.75391 0.0
C2512 C -0.00472 0.57297 0.72195 0.0
C2513 C -0.00122 0.58824 0.73121 0.0
C2514 C 0.00466 0.59163 0.75198 0.0
C2515 C 0.0071 0.5801 0.76317 0.0
H2516 H 0.38164 0.36055 0.69012 0.0
H2517 H 0.33916 0.36322 0.71469 0.0
H2518 H 0.40088 0.38807 0.70522 0.0
H2519 H 0.35836 0.39084 0.72939 0.0
H2520 H 0.39807 0.42762 0.77607 0.0
H2521 H 0.37835 0.4017 0.7581 0.0
H2522 H 0.41052 0.41797 0.70315 0.0
H2523 H 0.4303 0.44394 0.72119 0.0
C2524 C 0.3764 0.36712 0.69848 0.0
C2525 C 0.35889 0.35966 0.70134 0.0
C2526 C 0.38743 0.38292 0.70706 0.0
C2527 C 0.38115 0.3916 0.71865 0.0
C2528 C 0.3636 0.38436 0.72087 0.0
C2529 C 0.3526 0.36858 0.71233 0.0
C2530 C 0.40082 0.42578 0.76005 0.0
C2531 C 0.41577 0.43783 0.75007 0.0
C2532 C 0.38951 0.41093 0.74973 0.0
C2533 C 0.39286 0.40777 0.72917 0.0
C2534 C 0.40769 0.41992 0.71908 0.0
C2535 C 0.41901 0.43479 0.72941 0.0
H2536 H 0.64205 -0.00047 0.70927 0.0
H2537 H 0.64476 0.04687 0.69752 0.0
H2538 H 0.61441 0.98886 0.72583 0.0
H2539 H 0.61723 0.03617 0.71406 0.0
H2540 H 0.56022 0.00495 0.72251 0.0
H2541 H 0.58734 0.01383 0.70567 0.0
H2542 H 0.60202 0.99492 0.75822 0.0
H2543 H 0.575 0.98633 0.77537 0.0
C2544 C 0.63679 0.00767 0.71026 0.0
C2545 C 0.64559 0.02405 0.70204 0.0
C2546 C 0.62101 0.00157 0.7198 0.0
C2547 C 0.61366 0.01165 0.72107 0.0
C2548 C 0.62251 0.02805 0.71302 0.0
C2549 C 0.63833 0.03421 0.70368 0.0
C2550 C 0.56924 0.00272 0.73052 0.0
C2551 C 0.56551 0.99508 0.75038 0.0
C2552 C 0.58474 0.00778 0.72086 0.0
C2553 C 0.59681 0.00521 0.73075 0.0
C2554 C 0.59288 -0.00303 0.7502 0.0
C2555 C 0.57739 0.99201 0.75997 0.0
loop_
_geom_bond_atom_site_label_1
_geom_bond_atom_site_label_2
_geom_bond_distance
_geom_bond_site_symmetry_2
_ccdc_geom_bond_type
C0 O1 1.306 1_556 S
C0 O3 1.160 . S
O1 C0 1.306 1_554 S
O1 Cd2 2.228 . S
Cd2 O1 2.228 . S
Cd2 O6 2.273 . S
Cd2 O10 2.277 1_554 S
O3 C0 1.160 . S
O3 Cd4 2.203 1_656 S
Cd4 O3 2.203 1_454 S
Cd4 O6 2.411 1_455 S
Cd4 O7 2.333 . S
Cd4 O8 2.352 . S
Cd4 O12 2.277 1_554 S
Cd4 O13 2.356 . S
C5 O10 1.209 1_455 S
C5 O12 1.226 . S
O6 Cd2 2.273 . S
O6 Cd4 2.411 1_655 S
O6 C9 1.297 1_655 S
O7 Cd4 2.333 . S
O7 C9 1.274 . S
O8 Cd4 2.352 . S
O8 C11 1.258 . S
C9 O6 1.297 1_455 S
C9 O7 1.274 . S
O10 Cd2 2.277 1_556 S
O10 C5 1.209 1_655 S
C11 O8 1.258 . S
C11 O13 1.282 . S
O12 Cd4 2.277 1_556 S
O12 C5 1.226 . S
O13 Cd4 2.356 . S
O13 C11 1.282 . S
C14 O15 1.306 . S
C14 O17 1.160 . S
O15 C14 1.306 . S
O15 Cd16 2.228 . S
Cd16 O15 2.228 . S
Cd16 O20 2.273 1_554 S
Cd16 O24 2.277 . S
O17 C14 1.160 . S
O17 Cd18 2.203 . S
Cd18 O17 2.203 . S
Cd18 O20 2.411 1_554 S
Cd18 O21 2.333 1_554 S
Cd18 O22 2.352 1_554 S
Cd18 O26 2.277 . S
Cd18 O27 2.356 . S
C19 O24 1.209 . S
C19 O26 1.226 . S
O20 Cd16 2.273 1_556 S
O20 Cd18 2.411 1_556 S
O20 C23 1.320 . S
O21 Cd18 2.333 1_556 S
O21 C23 1.214 . S
O22 Cd18 2.352 1_556 S
O22 C25 1.258 . S
C23 O20 1.320 . S
C23 O21 1.214 . S
O24 Cd16 2.277 . S
O24 C19 1.209 . S
C25 O22 1.258 . S
C25 O27 1.282 1_556 S
O26 Cd18 2.277 . S
O26 C19 1.226 . S
O27 Cd18 2.356 . S
O27 C25 1.282 1_554 S
C28 O29 1.306 . S
C28 O31 1.160 . S
O29 C28 1.306 . S
O29 Cd30 2.228 . S
Cd30 O29 2.228 . S
Cd30 O34 2.273 1_554 S
Cd30 O38 2.277 . S
O31 C28 1.160 . S
O31 Cd32 2.203 1_565 S
Cd32 O31 2.203 1_545 S
Cd32 O34 2.411 1_544 S
Cd32 O35 2.333 1_554 S
Cd32 O36 2.352 1_554 S
Cd32 O40 2.277 . S
Cd32 O41 2.356 . S
C33 O38 1.209 1_545 S
C33 O40 1.226 . S
O34 Cd30 2.273 1_556 S
O34 Cd32 2.411 1_566 S
O34 C37 1.320 1_565 S
O35 Cd32 2.333 1_556 S
O35 C37 1.214 . S
O36 Cd32 2.352 1_556 S
O36 C39 1.258 . S
C37 O34 1.320 1_545 S
C37 O35 1.214 . S
O38 Cd30 2.277 . S
O38 C33 1.209 1_565 S
C39 O36 1.258 . S
C39 O41 1.282 1_556 S
O40 Cd32 2.277 . S
O40 C33 1.226 . S
O41 Cd32 2.356 . S
O41 C39 1.282 1_554 S
C42 O43 1.306 1_556 S
C42 O45 1.160 . S
O43 C42 1.306 1_554 S
O43 Cd44 2.228 . S
Cd44 O43 2.228 . S
Cd44 O48 2.273 . S
Cd44 O52 2.277 1_554 S
O45 C42 1.160 . S
O45 Cd46 2.203 1_656 S
Cd46 O45 2.203 1_454 S
Cd46 O48 2.411 1_455 S
Cd46 O49 2.333 . S
Cd46 O50 2.352 . S
Cd46 O54 2.277 1_554 S
Cd46 O55 2.356 . S
C47 O52 1.209 1_455 S
C47 O54 1.226 . S
O48 Cd44 2.273 . S
O48 Cd46 2.411 1_655 S
O48 C51 1.365 . S
O49 Cd46 2.333 . S
O49 C51 1.177 1_455 S
O50 Cd46 2.352 . S
O50 C53 1.258 . S
C51 O48 1.365 . S
C51 O49 1.177 1_655 S
O52 Cd44 2.277 1_556 S
O52 C47 1.209 1_655 S
C53 O50 1.258 . S
C53 O55 1.282 . S
O54 Cd46 2.277 1_556 S
O54 C47 1.226 . S
O55 Cd46 2.356 . S
O55 C53 1.282 . S
C56 O57 1.306 . S
C56 O59 1.160 . S
O57 C56 1.306 . S
O57 Cd58 2.228 . S
Cd58 O57 2.228 . S
Cd58 O62 2.273 1_554 S
Cd58 O66 2.277 . S
O59 C56 1.160 . S
O59 Cd60 2.203 . S
Cd60 O59 2.203 . S
Cd60 O62 2.411 1_554 S
Cd60 O63 2.333 1_554 S
Cd60 O64 2.352 1_554 S
Cd60 O68 2.277 . S
Cd60 O69 2.356 . S
C61 O66 1.209 . S
C61 O68 1.226 . S
O62 Cd58 2.273 1_556 S
O62 Cd60 2.411 1_556 S
O62 C65 1.320 . S
O63 Cd60 2.333 1_556 S
O63 C65 1.214 . S
O64 Cd60 2.352 1_556 S
O64 C67 1.258 . S
C65 O62 1.320 . S
C65 O63 1.214 . S
O66 Cd58 2.277 . S
O66 C61 1.209 . S
C67 O64 1.258 . S
C67 O69 1.282 1_556 S
O68 Cd60 2.277 . S
O68 C61 1.226 . S
O69 Cd60 2.356 . S
O69 C67 1.282 1_554 S
C70 O71 1.306 1_556 S
C70 O73 1.160 . S
O71 C70 1.306 1_554 S
O71 Cd72 2.228 . S
Cd72 O71 2.228 . S
Cd72 O76 2.273 . S
Cd72 O80 2.277 1_554 S
O73 C70 1.160 . S
O73 Cd74 2.203 1_546 S
Cd74 O73 2.203 1_564 S
Cd74 O76 2.411 1_565 S
Cd74 O77 2.333 . S
Cd74 O78 2.352 . S
Cd74 O82 2.277 1_554 S
Cd74 O83 2.356 . S
C75 O80 1.209 1_565 S
C75 O82 1.226 . S
O76 Cd72 2.273 . S
O76 Cd74 2.411 1_545 S
O76 C79 1.320 . S
O77 Cd74 2.333 . S
O77 C79 1.214 1_565 S
O78 Cd74 2.352 . S
O78 C81 1.258 . S
C79 O76 1.320 . S
C79 O77 1.214 1_545 S
O80 Cd72 2.277 1_556 S
O80 C75 1.209 1_545 S
C81 O78 1.258 . S
C81 O83 1.282 . S
O82 Cd74 2.277 1_556 S
O82 C75 1.226 . S
O83 Cd74 2.356 . S
O83 C81 1.282 . S
C84 O85 1.306 . S
C84 O87 1.160 . S
O85 C84 1.306 . S
O85 Cd86 2.228 . S
Cd86 O85 2.228 . S
Cd86 O90 2.273 . S
Cd86 O94 2.277 . S
O87 C84 1.160 . S
O87 Cd88 2.203 . S
Cd88 O87 2.203 . S
Cd88 O90 2.411 . S
Cd88 O91 2.333 . S
Cd88 O92 2.352 . S
Cd88 O96 2.277 . S
Cd88 O97 2.356 . S
C89 O94 1.209 . S
C89 O96 1.226 . S
O90 Cd86 2.273 . S
O90 Cd88 2.411 . S
O90 C93 1.320 . S
O91 Cd88 2.333 . S
O91 C93 1.214 . S
O92 Cd88 2.352 . S
O92 C95 1.258 . S
C93 O90 1.320 . S
C93 O91 1.214 . S
O94 Cd86 2.277 . S
O94 C89 1.209 . S
C95 O92 1.258 . S
C95 O97 1.282 . S
O96 Cd88 2.277 . S
O96 C89 1.226 . S
O97 Cd88 2.356 . S
O97 C95 1.282 . S
C98 O99 1.306 . S
C98 O101 1.160 . S
O99 C98 1.306 . S
O99 Cd100 2.228 1_545 S
Cd100 O99 2.228 1_565 S
Cd100 O104 2.273 . S
Cd100 O108 2.277 . S
O101 C98 1.160 . S
O101 Cd102 2.203 1_545 S
Cd102 O101 2.203 1_565 S
Cd102 O104 2.411 . S
Cd102 O105 2.333 . S
Cd102 O106 2.352 . S
Cd102 O110 2.277 . S
Cd102 O111 2.356 . S
C103 O108 1.209 . S
C103 O110 1.226 . S
O104 Cd100 2.273 . S
O104 Cd102 2.411 . S
O104 C107 1.320 . S
O105 Cd102 2.333 . S
O105 C107 1.214 . S
O106 Cd102 2.352 . S
O106 C109 1.258 . S
C107 O104 1.320 . S
C107 O105 1.214 . S
O108 Cd100 2.277 . S
O108 C103 1.209 . S
C109 O106 1.258 . S
C109 O111 1.282 . S
O110 Cd102 2.277 . S
O110 C103 1.226 . S
O111 Cd102 2.356 . S
O111 C109 1.282 . S
C112 O113 1.306 . S
C112 O115 1.161 1_655 S
O113 C112 1.306 . S
O113 Cd114 2.228 1_655 S
Cd114 O113 2.228 1_455 S
Cd114 O118 2.273 . S
Cd114 O122 2.277 . S
O115 C112 1.161 1_455 S
O115 Cd116 2.255 . S
Cd116 O115 2.255 . S
Cd116 O118 2.411 . S
Cd116 O119 2.333 . S
Cd116 O120 2.352 . S
Cd116 O124 2.277 . S
Cd116 O125 2.356 . S
C117 O122 1.209 . S
C117 O124 1.226 . S
O118 Cd114 2.273 . S
O118 Cd116 2.411 . S
O118 C121 1.320 . S
O119 Cd116 2.333 . S
O119 C121 1.214 . S
O120 Cd116 2.352 . S
O120 C123 1.258 . S
C121 O118 1.320 . S
C121 O119 1.214 . S
O122 Cd114 2.277 . S
O122 C117 1.209 . S
C123 O120 1.258 . S
C123 O125 1.282 . S
O124 Cd116 2.277 . S
O124 C117 1.226 . S
O125 Cd116 2.356 . S
O125 C123 1.282 . S
C126 O127 1.306 . S
C126 O129 1.160 . S
O127 C126 1.306 . S
O127 Cd128 2.228 . S
Cd128 O127 2.228 . S
Cd128 O132 2.273 . S
Cd128 O136 2.277 . S
O129 C126 1.160 . S
O129 Cd130 2.203 . S
Cd130 O129 2.203 . S
Cd130 O132 2.411 . S
Cd130 O133 2.333 . S
Cd130 O134 2.352 1_565 S
Cd130 O138 2.277 . S
Cd130 O139 2.356 1_565 S
C131 O136 1.209 . S
C131 O138 1.226 . S
O132 Cd128 2.273 . S
O132 Cd130 2.411 . S
O132 C135 1.320 . S
O133 Cd130 2.333 . S
O133 C135 1.214 . S
O134 Cd130 2.352 1_545 S
O134 C137 1.258 . S
C135 O132 1.320 . S
C135 O133 1.214 . S
O136 Cd128 2.277 . S
O136 C131 1.209 . S
C137 O134 1.258 . S
C137 O139 1.282 . S
O138 Cd130 2.277 . S
O138 C131 1.226 . S
O139 Cd130 2.356 1_545 S
O139 C137 1.282 . S
C140 O141 1.306 . S
C140 O143 1.160 . S
O141 C140 1.306 . S
O141 Cd142 2.228 1_655 S
Cd142 O141 2.228 1_455 S
Cd142 O146 2.273 . S
Cd142 O150 2.277 . S
O143 C140 1.160 . S
O143 Cd144 2.203 1_655 S
Cd144 O143 2.203 1_455 S
Cd144 O146 2.411 . S
Cd144 O147 2.333 . S
Cd144 O148 2.352 . S
Cd144 O152 2.277 . S
Cd144 O153 2.356 . S
C145 O150 1.209 . S
C145 O152 1.226 . S
O146 Cd142 2.273 . S
O146 Cd144 2.411 . S
O146 C149 1.320 . S
O147 Cd144 2.333 . S
O147 C149 1.214 . S
O148 Cd144 2.352 . S
O148 C151 1.258 . S
C149 O146 1.320 . S
C149 O147 1.214 . S
O150 Cd142 2.277 . S
O150 C145 1.209 . S
C151 O148 1.258 . S
C151 O153 1.282 . S
O152 Cd144 2.277 . S
O152 C145 1.226 . S
O153 Cd144 2.356 . S
O153 C151 1.282 . S
C154 O155 1.306 . S
C154 O157 1.160 . S
O155 C154 1.306 . S
O155 Cd156 2.228 . S
Cd156 O155 2.228 . S
Cd156 O160 2.273 . S
Cd156 O164 2.277 . S
O157 C154 1.160 . S
O157 Cd158 2.203 . S
Cd158 O157 2.203 . S
Cd158 O160 2.411 . S
Cd158 O161 2.333 . S
Cd158 O162 2.352 . S
Cd158 O166 2.277 . S
Cd158 O167 2.356 . S
C159 O164 1.209 . S
C159 O166 1.226 . S
O160 Cd156 2.273 . S
O160 Cd158 2.411 . S
O160 C163 1.320 . S
O161 Cd158 2.333 . S
O161 C163 1.214 . S
O162 Cd158 2.352 . S
O162 C165 1.258 . S
C163 O160 1.320 . S
C163 O161 1.214 . S
O164 Cd156 2.277 . S
O164 C159 1.209 . S
C165 O162 1.258 . S
C165 O167 1.282 . S
O166 Cd158 2.277 . S
O166 C159 1.226 . S
O167 Cd158 2.356 . S
O167 C165 1.282 . S
C168 O169 1.306 . S
C168 O171 1.160 . S
O169 C168 1.306 . S
O169 Cd170 2.228 1_565 S
Cd170 O169 2.228 1_545 S
Cd170 O174 2.273 . S
Cd170 O178 2.277 . S
O171 C168 1.160 . S
O171 Cd172 2.203 1_565 S
Cd172 O171 2.203 1_545 S
Cd172 O174 2.411 . S
Cd172 O175 2.333 . S
Cd172 O176 2.352 . S
Cd172 O180 2.277 . S
Cd172 O181 2.356 . S
C173 O178 1.209 . S
C173 O180 1.226 . S
O174 Cd170 2.273 . S
O174 Cd172 2.411 . S
O174 C177 1.320 . S
O175 Cd172 2.333 . S
O175 C177 1.214 . S
O176 Cd172 2.352 . S
O176 C179 1.258 . S
C177 O174 1.320 . S
C177 O175 1.214 . S
O178 Cd170 2.277 . S
O178 C173 1.209 . S
C179 O176 1.258 . S
C179 O181 1.282 . S
O180 Cd172 2.277 . S
O180 C173 1.226 . S
O181 Cd172 2.356 . S
O181 C179 1.282 . S
C182 O183 1.306 . S
C182 O185 1.160 . S
O183 C182 1.306 . S
O183 Cd184 2.228 . S
Cd184 O183 2.228 . S
Cd184 O188 2.273 . S
Cd184 O192 2.277 . S
O185 C182 1.160 . S
O185 Cd186 2.203 . S
Cd186 O185 2.203 . S
Cd186 O188 2.411 . S
Cd186 O189 2.333 . S
Cd186 O190 2.352 1_655 S
Cd186 O194 2.277 . S
Cd186 O195 2.356 1_655 S
C187 O192 1.209 . S
C187 O194 1.226 . S
O188 Cd184 2.273 . S
O188 Cd186 2.411 . S
O188 C191 1.320 . S
O189 Cd186 2.333 . S
O189 C191 1.214 . S
O190 Cd186 2.352 1_455 S
O190 C193 1.258 . S
C191 O188 1.320 . S
C191 O189 1.214 . S
O192 Cd184 2.277 . S
O192 C187 1.209 . S
C193 O190 1.258 . S
C193 O195 1.282 . S
O194 Cd186 2.277 . S
O194 C187 1.226 . S
O195 Cd186 2.356 1_455 S
O195 C193 1.282 . S
C196 O197 1.306 . S
C196 O199 1.160 . S
O197 C196 1.306 . S
O197 Cd198 2.228 . S
Cd198 O197 2.228 . S
Cd198 O202 2.273 . S
Cd198 O206 2.277 . S
O199 C196 1.160 . S
O199 Cd200 2.203 . S
Cd200 O199 2.203 . S
Cd200 O202 2.411 . S
Cd200 O203 2.333 . S
Cd200 O204 2.352 . S
Cd200 O208 2.277 . S
Cd200 O209 2.356 . S
C201 O206 1.209 . S
C201 O208 1.226 . S
O202 Cd198 2.273 . S
O202 Cd200 2.411 . S
O202 C205 1.320 . S
O203 Cd200 2.333 . S
O203 C205 1.214 . S
O204 Cd200 2.352 . S
O204 C207 1.258 . S
C205 O202 1.320 . S
C205 O203 1.214 . S
O206 Cd198 2.277 . S
O206 C201 1.209 . S
C207 O204 1.258 . S
C207 O209 1.282 . S
O208 Cd200 2.277 . S
O208 C201 1.226 . S
O209 Cd200 2.356 . S
O209 C207 1.282 . S
C210 O211 1.306 . S
C210 O213 1.160 . S
O211 C210 1.306 . S
O211 Cd212 2.228 . S
Cd212 O211 2.228 . S
Cd212 O216 2.273 . S
Cd212 O220 2.277 . S
O213 C210 1.160 . S
O213 Cd214 2.203 . S
Cd214 O213 2.203 . S
Cd214 O216 2.411 . S
Cd214 O217 2.333 . S
Cd214 O218 2.352 . S
Cd214 O222 2.277 . S
Cd214 O223 2.356 . S
C215 O220 1.209 . S
C215 O222 1.226 . S
O216 Cd212 2.273 . S
O216 Cd214 2.411 . S
O216 C219 1.320 . S
O217 Cd214 2.333 . S
O217 C219 1.214 . S
O218 Cd214 2.352 . S
O218 C221 1.258 . S
C219 O216 1.320 . S
C219 O217 1.214 . S
O220 Cd212 2.277 . S
O220 C215 1.209 . S
C221 O218 1.258 . S
C221 O223 1.282 . S
O222 Cd214 2.277 . S
O222 C215 1.226 . S
O223 Cd214 2.356 . S
O223 C221 1.282 . S
C224 O225 1.306 . S
C224 O227 1.160 . S
O225 C224 1.306 . S
O225 Cd226 2.228 . S
Cd226 O225 2.228 . S
Cd226 O230 2.273 . S
Cd226 O234 2.277 . S
O227 C224 1.160 . S
O227 Cd228 2.203 . S
Cd228 O227 2.203 . S
Cd228 O230 2.411 . S
Cd228 O231 2.333 . S
Cd228 O232 2.352 1_545 S
Cd228 O236 2.277 . S
Cd228 O237 2.356 1_545 S
C229 O234 1.209 . S
C229 O236 1.226 . S
O230 Cd226 2.273 . S
O230 Cd228 2.411 . S
O230 C233 1.320 . S
O231 Cd228 2.333 . S
O231 C233 1.214 . S
O232 Cd228 2.352 1_565 S
O232 C235 1.258 . S
C233 O230 1.320 . S
C233 O231 1.214 . S
O234 Cd226 2.277 . S
O234 C229 1.209 . S
C235 O232 1.258 . S
C235 O237 1.282 . S
O236 Cd228 2.277 . S
O236 C229 1.226 . S
O237 Cd228 2.356 1_565 S
O237 C235 1.282 . S
C238 O239 1.306 . S
C238 O241 1.160 . S
O239 C238 1.306 . S
O239 Cd240 2.228 1_455 S
Cd240 O239 2.228 1_655 S
Cd240 O244 2.273 . S
Cd240 O248 2.277 . S
O241 C238 1.160 . S
O241 Cd242 2.203 1_455 S
Cd242 O241 2.203 1_655 S
Cd242 O244 2.411 . S
Cd242 O245 2.333 . S
Cd242 O246 2.352 . S
Cd242 O250 2.277 . S
Cd242 O251 2.356 . S
C243 O248 1.209 . S
C243 O250 1.226 . S
O244 Cd240 2.273 . S
O244 Cd242 2.411 . S
O244 C247 1.320 . S
O245 Cd242 2.333 . S
O245 C247 1.214 . S
O246 Cd242 2.352 . S
O246 C249 1.258 . S
C247 O244 1.320 . S
C247 O245 1.214 . S
O248 Cd240 2.277 . S
O248 C243 1.209 . S
C249 O246 1.258 . S
C249 O251 1.282 . S
O250 Cd242 2.277 . S
O250 C243 1.226 . S
O251 Cd242 2.356 . S
O251 C249 1.282 . S
H252 C271 0.949 . S
H253 C272 0.950 . S
H254 C274 0.950 . S
H255 C275 0.950 . S
H256 C277 0.950 . S
H257 C280 0.950 . S
H258 C281 0.950 . S
H259 C283 0.951 . S
H260 C284 0.949 . S
H261 C286 0.949 . S
H262 C287 0.950 . S
H263 C289 0.950 . S
H264 C290 0.950 . S
H265 C292 0.950 . S
H266 C295 0.950 . S
H267 C296 0.950 . S
H268 C298 0.951 . S
H269 C299 0.949 . S
C270 C271 1.376 . S
C270 C275 1.386 . S
C270 C276 1.483 . S
C271 H252 0.949 . S
C271 C270 1.376 . S
C271 C272 1.397 . S
C272 H253 0.950 . S
C272 C271 1.397 . S
C272 C273 1.391 . S
C273 C272 1.391 . S
C273 C274 1.405 . S
C274 H254 0.950 . S
C274 C273 1.405 . S
C274 C275 1.367 . S
C275 H255 0.950 . S
C275 C270 1.386 . S
C275 C274 1.367 . S
C276 C270 1.483 . S
C276 C277 1.382 . S
C276 C278 1.403 . S
C277 H256 0.950 . S
C277 C276 1.382 . S
C277 C293 1.411 . S
C278 C276 1.403 . S
C278 C279 1.489 . S
C278 C292 1.411 . S
C279 C278 1.489 . S
C279 C280 1.383 . S
C279 C284 1.382 . S
C280 H257 0.950 . S
C280 C279 1.383 . S
C280 C281 1.395 . S
C281 H258 0.950 . S
C281 C280 1.395 . S
C281 C282 1.288 . S
C282 C281 1.288 . S
C282 C283 1.392 . S
C283 H259 0.951 . S
C283 C282 1.392 . S
C283 C284 1.392 . S
C284 H260 0.949 . S
C284 C279 1.382 . S
C284 C283 1.392 . S
C285 C286 1.376 . S
C285 C290 1.386 . S
C285 C291 1.483 . S
C286 H261 0.949 . S
C286 C285 1.376 . S
C286 C287 1.397 . S
C287 H262 0.950 . S
C287 C286 1.397 . S
C287 C288 1.391 . S
C288 C287 1.391 . S
C288 C289 1.405 . S
C289 H263 0.950 . S
C289 C288 1.405 . S
C289 C290 1.367 . S
C290 H264 0.950 . S
C290 C285 1.386 . S
C290 C289 1.367 . S
C291 C285 1.483 . S
C291 C292 1.382 . S
C291 C293 1.403 . S
C292 H265 0.950 . S
C292 C278 1.411 . S
C292 C291 1.382 . S
C293 C277 1.411 . S
C293 C291 1.403 . S
C293 C294 1.489 . S
C294 C293 1.489 . S
C294 C295 1.383 . S
C294 C299 1.382 . S
C295 H266 0.950 . S
C295 C294 1.383 . S
C295 C296 1.395 . S
C296 H267 0.950 . S
C296 C295 1.395 . S
C296 C297 1.288 . S
C297 C296 1.288 . S
C297 C298 1.392 . S
C298 H268 0.951 . S
C298 C297 1.392 . S
C298 C299 1.392 . S
C299 H269 0.949 . S
C299 C294 1.382 . S
C299 C298 1.392 . S
H300 C319 0.949 . S
H301 C320 0.950 . S
H302 C322 0.950 . S
H303 C323 0.950 . S
H304 C325 0.950 . S
H305 C328 0.950 . S
H306 C329 0.950 . S
H307 C331 0.951 . S
H308 C332 0.949 . S
H309 C334 0.949 . S
H310 C335 0.950 . S
H311 C337 0.950 . S
H312 C338 0.950 . S
H313 C340 0.950 . S
H314 C343 0.950 . S
H315 C344 0.950 . S
H316 C346 0.951 . S
H317 C347 0.949 . S
C318 C319 1.376 . S
C318 C323 1.386 . S
C318 C324 1.483 . S
C319 H300 0.949 . S
C319 C318 1.376 . S
C319 C320 1.397 . S
C320 H301 0.950 . S
C320 C319 1.397 . S
C320 C321 1.391 . S
C321 C320 1.391 . S
C321 C322 1.405 . S
C322 H302 0.950 . S
C322 C321 1.405 . S
C322 C323 1.367 . S
C323 H303 0.950 . S
C323 C318 1.386 . S
C323 C322 1.367 . S
C324 C318 1.483 . S
C324 C325 1.382 . S
C324 C326 1.403 . S
C325 H304 0.950 . S
C325 C324 1.382 . S
C325 C341 1.411 . S
C326 C324 1.403 . S
C326 C327 1.489 . S
C326 C340 1.411 . S
C327 C326 1.489 . S
C327 C328 1.383 . S
C327 C332 1.382 . S
C328 H305 0.950 . S
C328 C327 1.383 . S
C328 C329 1.395 . S
C329 H306 0.950 . S
C329 C328 1.395 . S
C329 C330 1.288 . S
C330 C329 1.288 . S
C330 C331 1.392 . S
C331 H307 0.951 . S
C331 C330 1.392 . S
C331 C332 1.392 . S
C332 H308 0.949 . S
C332 C327 1.382 . S
C332 C331 1.392 . S
C333 C334 1.376 . S
C333 C338 1.386 . S
C333 C339 1.483 . S
C334 H309 0.949 . S
C334 C333 1.376 . S
C334 C335 1.397 . S
C335 H310 0.950 . S
C335 C334 1.397 . S
C335 C336 1.391 . S
C336 C335 1.391 . S
C336 C337 1.405 . S
C337 H311 0.950 . S
C337 C336 1.405 . S
C337 C338 1.367 . S
C338 H312 0.950 . S
C338 C333 1.386 . S
C338 C337 1.367 . S
C339 C333 1.483 . S
C339 C340 1.382 . S
C339 C341 1.403 . S
C340 H313 0.950 . S
C340 C326 1.411 . S
C340 C339 1.382 . S
C341 C325 1.411 . S
C341 C339 1.403 . S
C341 C342 1.489 . S
C342 C341 1.489 . S
C342 C343 1.383 . S
C342 C347 1.382 . S
C343 H314 0.950 . S
C343 C342 1.383 . S
C343 C344 1.395 . S
C344 H315 0.950 . S
C344 C343 1.395 . S
C344 C345 1.288 . S
C345 C344 1.288 . S
C345 C346 1.392 . S
C346 H316 0.951 . S
C346 C345 1.392 . S
C346 C347 1.392 . S
C347 H317 0.949 . S
C347 C342 1.382 . S
C347 C346 1.392 . S
H348 C367 0.949 . S
H349 C368 0.950 . S
H350 C370 0.950 . S
H351 C371 0.950 . S
H352 C373 0.950 . S
H353 C376 0.950 . S
H354 C377 0.950 . S
H355 C379 0.951 . S
H356 C380 0.949 . S
H357 C382 0.949 . S
H358 C383 0.950 . S
H359 C385 0.950 . S
H360 C386 0.950 . S
H361 C388 0.950 . S
H362 C391 0.950 . S
H363 C392 0.950 . S
H364 C394 0.951 . S
H365 C395 0.949 . S
C366 C367 1.376 . S
C366 C371 1.386 . S
C366 C372 1.483 . S
C367 H348 0.949 . S
C367 C366 1.376 . S
C367 C368 1.397 . S
C368 H349 0.950 . S
C368 C367 1.397 . S
C368 C369 1.391 . S
C369 C368 1.391 . S
C369 C370 1.405 . S
C370 H350 0.950 . S
C370 C369 1.405 . S
C370 C371 1.367 . S
C371 H351 0.950 . S
C371 C366 1.386 . S
C371 C370 1.367 . S
C372 C366 1.483 . S
C372 C373 1.382 . S
C372 C374 1.403 . S
C373 H352 0.950 . S
C373 C372 1.382 . S
C373 C389 1.411 . S
C374 C372 1.403 . S
C374 C375 1.489 . S
C374 C388 1.411 . S
C375 C374 1.489 . S
C375 C376 1.383 . S
C375 C380 1.382 . S
C376 H353 0.950 . S
C376 C375 1.383 . S
C376 C377 1.395 . S
C377 H354 0.950 . S
C377 C376 1.395 . S
C377 C378 1.288 . S
C378 C377 1.288 . S
C378 C379 1.392 . S
C379 H355 0.951 . S
C379 C378 1.392 . S
C379 C380 1.392 . S
C380 H356 0.949 . S
C380 C375 1.382 . S
C380 C379 1.392 . S
C381 C382 1.376 . S
C381 C386 1.386 . S
C381 C387 1.483 . S
C382 H357 0.949 . S
C382 C381 1.376 . S
C382 C383 1.397 . S
C383 H358 0.950 . S
C383 C382 1.397 . S
C383 C384 1.391 . S
C384 C383 1.391 . S
C384 C385 1.405 . S
C385 H359 0.950 . S
C385 C384 1.405 . S
C385 C386 1.367 . S
C386 H360 0.950 . S
C386 C381 1.386 . S
C386 C385 1.367 . S
C387 C381 1.483 . S
C387 C388 1.382 . S
C387 C389 1.403 . S
C388 H361 0.950 . S
C388 C374 1.411 . S
C388 C387 1.382 . S
C389 C373 1.411 . S
C389 C387 1.403 . S
C389 C390 1.489 . S
C390 C389 1.489 . S
C390 C391 1.383 . S
C390 C395 1.382 . S
C391 H362 0.950 . S
C391 C390 1.383 . S
C391 C392 1.395 . S
C392 H363 0.950 . S
C392 C391 1.395 . S
C392 C393 1.288 . S
C393 C392 1.288 . S
C393 C394 1.392 . S
C394 H364 0.951 . S
C394 C393 1.392 . S
C394 C395 1.392 . S
C395 H365 0.949 . S
C395 C390 1.382 . S
C395 C394 1.392 . S
H396 C415 0.949 . S
H397 C416 0.950 . S
H398 C418 0.950 . S
H399 C419 0.950 . S
H400 C421 0.950 . S
H401 C424 0.950 . S
H402 C425 0.950 . S
H403 C427 0.951 . S
H404 C428 0.949 . S
H405 C430 0.949 . S
H406 C431 0.950 . S
H407 C433 0.950 . S
H408 C434 0.950 . S
H409 C436 0.950 . S
H410 C439 0.950 . S
H411 C440 0.950 . S
H412 C442 0.951 . S
H413 C443 0.949 . S
C414 C415 1.376 . S
C414 C419 1.386 . S
C414 C420 1.483 . S
C415 H396 0.949 . S
C415 C414 1.376 . S
C415 C416 1.397 . S
C416 H397 0.950 . S
C416 C415 1.397 . S
C416 C417 1.391 . S
C417 C416 1.391 . S
C417 C418 1.405 . S
C418 H398 0.950 . S
C418 C417 1.405 . S
C418 C419 1.367 . S
C419 H399 0.950 . S
C419 C414 1.386 . S
C419 C418 1.367 . S
C420 C414 1.483 . S
C420 C421 1.382 . S
C420 C422 1.403 . S
C421 H400 0.950 . S
C421 C420 1.382 . S
C421 C437 1.411 . S
C422 C420 1.403 . S
C422 C423 1.489 . S
C422 C436 1.411 . S
C423 C422 1.489 . S
C423 C424 1.383 . S
C423 C428 1.382 . S
C424 H401 0.950 . S
C424 C423 1.383 . S
C424 C425 1.395 . S
C425 H402 0.950 . S
C425 C424 1.395 . S
C425 C426 1.288 . S
C426 C425 1.288 . S
C426 C427 1.392 . S
C427 H403 0.951 . S
C427 C426 1.392 . S
C427 C428 1.392 . S
C428 H404 0.949 . S
C428 C423 1.382 . S
C428 C427 1.392 . S
C429 C430 1.376 . S
C429 C434 1.386 . S
C429 C435 1.483 . S
C430 H405 0.949 . S
C430 C429 1.376 . S
C430 C431 1.397 . S
C431 H406 0.950 . S
C431 C430 1.397 . S
C431 C432 1.391 . S
C432 C431 1.391 . S
C432 C433 1.405 . S
C433 H407 0.950 . S
C433 C432 1.405 . S
C433 C434 1.367 . S
C434 H408 0.950 . S
C434 C429 1.386 . S
C434 C433 1.367 . S
C435 C429 1.483 . S
C435 C436 1.382 . S
C435 C437 1.403 . S
C436 H409 0.950 . S
C436 C422 1.411 . S
C436 C435 1.382 . S
C437 C421 1.411 . S
C437 C435 1.403 . S
C437 C438 1.489 . S
C438 C437 1.489 . S
C438 C439 1.383 . S
C438 C443 1.382 . S
C439 H410 0.950 . S
C439 C438 1.383 . S
C439 C440 1.395 . S
C440 H411 0.950 . S
C440 C439 1.395 . S
C440 C441 1.288 . S
C441 C440 1.288 . S
C441 C442 1.392 . S
C442 H412 0.951 . S
C442 C441 1.392 . S
C442 C443 1.392 . S
C443 H413 0.949 . S
C443 C438 1.382 . S
C443 C442 1.392 . S
H444 C463 0.949 . S
H445 C464 0.950 . S
H446 C466 0.950 . S
H447 C467 0.950 . S
H448 C469 0.950 . S
H449 C472 0.950 . S
H450 C473 0.950 . S
H451 C475 0.951 . S
H452 C476 0.949 . S
H453 C478 0.949 . S
H454 C479 0.950 . S
H455 C481 0.950 . S
H456 C482 0.950 . S
H457 C484 0.950 . S
H458 C487 0.950 . S
H459 C488 0.950 . S
H460 C490 0.951 . S
H461 C491 0.949 . S
C462 C463 1.376 . S
C462 C467 1.386 . S
C462 C468 1.483 . S
C463 H444 0.949 . S
C463 C462 1.376 . S
C463 C464 1.397 . S
C464 H445 0.950 . S
C464 C463 1.397 . S
C464 C465 1.391 . S
C465 C464 1.391 . S
C465 C466 1.405 . S
C466 H446 0.950 . S
C466 C465 1.405 . S
C466 C467 1.367 . S
C467 H447 0.950 . S
C467 C462 1.386 . S
C467 C466 1.367 . S
C468 C462 1.483 . S
C468 C469 1.382 . S
C468 C470 1.403 . S
C469 H448 0.950 . S
C469 C468 1.382 . S
C469 C485 1.411 . S
C470 C468 1.403 . S
C470 C471 1.489 . S
C470 C484 1.411 . S
C471 C470 1.489 . S
C471 C472 1.383 . S
C471 C476 1.382 . S
C472 H449 0.950 . S
C472 C471 1.383 . S
C472 C473 1.395 . S
C473 H450 0.950 . S
C473 C472 1.395 . S
C473 C474 1.288 . S
C474 C473 1.288 . S
C474 C475 1.392 . S
C475 H451 0.951 . S
C475 C474 1.392 . S
C475 C476 1.392 . S
C476 H452 0.949 . S
C476 C471 1.382 . S
C476 C475 1.392 . S
C477 C478 1.376 . S
C477 C482 1.386 . S
C477 C483 1.483 . S
C478 H453 0.949 . S
C478 C477 1.376 . S
C478 C479 1.397 . S
C479 H454 0.950 . S
C479 C478 1.397 . S
C479 C480 1.391 . S
C480 C479 1.391 . S
C480 C481 1.405 . S
C481 H455 0.950 . S
C481 C480 1.405 . S
C481 C482 1.367 . S
C482 H456 0.950 . S
C482 C477 1.386 . S
C482 C481 1.367 . S
C483 C477 1.483 . S
C483 C484 1.382 . S
C483 C485 1.403 . S
C484 H457 0.950 . S
C484 C470 1.411 . S
C484 C483 1.382 . S
C485 C469 1.411 . S
C485 C483 1.403 . S
C485 C486 1.489 . S
C486 C485 1.489 . S
C486 C487 1.383 . S
C486 C491 1.382 . S
C487 H458 0.950 . S
C487 C486 1.383 . S
C487 C488 1.395 . S
C488 H459 0.950 . S
C488 C487 1.395 . S
C488 C489 1.288 . S
C489 C488 1.288 . S
C489 C490 1.392 . S
C490 H460 0.951 . S
C490 C489 1.392 . S
C490 C491 1.392 . S
C491 H461 0.949 . S
C491 C486 1.382 . S
C491 C490 1.392 . S
H492 C511 0.949 . S
H493 C512 0.950 . S
H494 C514 0.950 . S
H495 C515 0.950 . S
H496 C517 0.950 . S
H497 C520 0.950 . S
H498 C521 0.950 . S
H499 C523 0.951 . S
H500 C524 0.949 . S
H501 C526 0.949 . S
H502 C527 0.950 . S
H503 C529 0.950 . S
H504 C530 0.950 . S
H505 C532 0.950 . S
H506 C535 0.950 . S
H507 C536 0.950 . S
H508 C538 0.951 . S
H509 C539 0.949 . S
C510 C511 1.376 . S
C510 C515 1.386 . S
C510 C516 1.483 . S
C511 H492 0.949 . S
C511 C510 1.376 . S
C511 C512 1.397 . S
C512 H493 0.950 . S
C512 C511 1.397 . S
C512 C513 1.391 . S
C513 C512 1.391 . S
C513 C514 1.405 . S
C514 H494 0.950 . S
C514 C513 1.405 . S
C514 C515 1.367 . S
C515 H495 0.950 . S
C515 C510 1.386 . S
C515 C514 1.367 . S
C516 C510 1.483 . S
C516 C517 1.382 . S
C516 C518 1.403 . S
C517 H496 0.950 . S
C517 C516 1.382 . S
C517 C533 1.411 . S
C518 C516 1.403 . S
C518 C519 1.489 . S
C518 C532 1.411 . S
C519 C518 1.489 . S
C519 C520 1.383 . S
C519 C524 1.382 . S
C520 H497 0.950 . S
C520 C519 1.383 . S
C520 C521 1.395 . S
C521 H498 0.950 . S
C521 C520 1.395 . S
C521 C522 1.288 . S
C522 C521 1.288 . S
C522 C523 1.392 . S
C523 H499 0.951 . S
C523 C522 1.392 . S
C523 C524 1.392 . S
C524 H500 0.949 . S
C524 C519 1.382 . S
C524 C523 1.392 . S
C525 C526 1.376 . S
C525 C530 1.386 . S
C525 C531 1.483 . S
C526 H501 0.949 . S
C526 C525 1.376 . S
C526 C527 1.397 . S
C527 H502 0.950 . S
C527 C526 1.397 . S
C527 C528 1.391 . S
C528 C527 1.391 . S
C528 C529 1.405 . S
C529 H503 0.950 . S
C529 C528 1.405 . S
C529 C530 1.367 . S
C530 H504 0.950 . S
C530 C525 1.386 . S
C530 C529 1.367 . S
C531 C525 1.483 . S
C531 C532 1.382 . S
C531 C533 1.403 . S
C532 H505 0.950 . S
C532 C518 1.411 . S
C532 C531 1.382 . S
C533 C517 1.411 . S
C533 C531 1.403 . S
C533 C534 1.489 . S
C534 C533 1.489 . S
C534 C535 1.383 . S
C534 C539 1.382 . S
C535 H506 0.950 . S
C535 C534 1.383 . S
C535 C536 1.395 . S
C536 H507 0.950 . S
C536 C535 1.395 . S
C536 C537 1.288 . S
C537 C536 1.288 . S
C537 C538 1.392 . S
C538 H508 0.951 . S
C538 C537 1.392 . S
C538 C539 1.392 . S
C539 H509 0.949 . S
C539 C534 1.382 . S
C539 C538 1.392 . S
H540 C559 0.949 . S
H541 C560 0.950 . S
H542 C562 0.950 . S
H543 C563 0.950 . S
H544 C565 0.950 . S
H545 C568 0.950 . S
H546 C569 0.950 . S
H547 C571 0.951 . S
H548 C572 0.949 . S
H549 C574 0.949 . S
H550 C575 0.950 . S
H551 C577 0.950 . S
H552 C578 0.950 . S
H553 C580 0.950 . S
H554 C583 0.950 . S
H555 C584 0.950 . S
H556 C586 0.951 . S
H557 C587 0.949 . S
C558 C559 1.376 . S
C558 C563 1.386 . S
C558 C564 1.483 . S
C559 H540 0.949 . S
C559 C558 1.376 . S
C559 C560 1.397 . S
C560 H541 0.950 . S
C560 C559 1.397 . S
C560 C561 1.391 . S
C561 C560 1.391 . S
C561 C562 1.405 . S
C562 H542 0.950 . S
C562 C561 1.405 . S
C562 C563 1.367 . S
C563 H543 0.950 . S
C563 C558 1.386 . S
C563 C562 1.367 . S
C564 C558 1.483 . S
C564 C565 1.382 . S
C564 C566 1.403 . S
C565 H544 0.950 . S
C565 C564 1.382 . S
C565 C581 1.411 . S
C566 C564 1.403 . S
C566 C567 1.489 . S
C566 C580 1.411 . S
C567 C566 1.489 . S
C567 C568 1.383 . S
C567 C572 1.382 . S
C568 H545 0.950 . S
C568 C567 1.383 . S
C568 C569 1.395 . S
C569 H546 0.950 . S
C569 C568 1.395 . S
C569 C570 1.288 . S
C570 C569 1.288 . S
C570 C571 1.392 . S
C571 H547 0.951 . S
C571 C570 1.392 . S
C571 C572 1.392 . S
C572 H548 0.949 . S
C572 C567 1.382 . S
C572 C571 1.392 . S
C573 C574 1.376 . S
C573 C578 1.386 . S
C573 C579 1.483 . S
C574 H549 0.949 . S
C574 C573 1.376 . S
C574 C575 1.397 . S
C575 H550 0.950 . S
C575 C574 1.397 . S
C575 C576 1.391 . S
C576 C575 1.391 . S
C576 C577 1.405 . S
C577 H551 0.950 . S
C577 C576 1.405 . S
C577 C578 1.367 . S
C578 H552 0.950 . S
C578 C573 1.386 . S
C578 C577 1.367 . S
C579 C573 1.483 . S
C579 C580 1.382 . S
C579 C581 1.403 . S
C580 H553 0.950 . S
C580 C566 1.411 . S
C580 C579 1.382 . S
C581 C565 1.411 . S
C581 C579 1.403 . S
C581 C582 1.489 . S
C582 C581 1.489 . S
C582 C583 1.383 . S
C582 C587 1.382 . S
C583 H554 0.950 . S
C583 C582 1.383 . S
C583 C584 1.395 . S
C584 H555 0.950 . S
C584 C583 1.395 . S
C584 C585 1.288 . S
C585 C584 1.288 . S
C585 C586 1.392 . S
C586 H556 0.951 . S
C586 C585 1.392 . S
C586 C587 1.392 . S
C587 H557 0.949 . S
C587 C582 1.382 . S
C587 C586 1.392 . S
H588 C607 0.949 . S
H589 C608 0.950 . S
H590 C610 0.950 . S
H591 C611 0.950 . S
H592 C613 0.950 . S
H593 C616 0.950 . S
H594 C617 0.950 . S
H595 C619 0.951 . S
H596 C620 0.949 . S
H597 C622 0.949 . S
H598 C623 0.950 . S
H599 C625 0.950 . S
H600 C626 0.950 . S
H601 C628 0.950 . S
H602 C631 0.950 . S
H603 C632 0.950 . S
H604 C634 0.951 . S
H605 C635 0.949 . S
C606 C607 1.376 . S
C606 C611 1.386 . S
C606 C612 1.483 . S
C607 H588 0.949 . S
C607 C606 1.376 . S
C607 C608 1.397 . S
C608 H589 0.950 . S
C608 C607 1.397 . S
C608 C609 1.391 . S
C609 C608 1.391 . S
C609 C610 1.405 . S
C610 H590 0.950 . S
C610 C609 1.405 . S
C610 C611 1.367 . S
C611 H591 0.950 . S
C611 C606 1.386 . S
C611 C610 1.367 . S
C612 C606 1.483 . S
C612 C613 1.382 . S
C612 C614 1.403 . S
C613 H592 0.950 . S
C613 C612 1.382 . S
C613 C629 1.411 . S
C614 C612 1.403 . S
C614 C615 1.489 . S
C614 C628 1.411 . S
C615 C614 1.489 . S
C615 C616 1.383 . S
C615 C620 1.382 . S
C616 H593 0.950 . S
C616 C615 1.383 . S
C616 C617 1.395 . S
C617 H594 0.950 . S
C617 C616 1.395 . S
C617 C618 1.288 . S
C618 C617 1.288 . S
C618 C619 1.392 . S
C619 H595 0.951 . S
C619 C618 1.392 . S
C619 C620 1.392 . S
C620 H596 0.949 . S
C620 C615 1.382 . S
C620 C619 1.392 . S
C621 C622 1.376 . S
C621 C626 1.386 . S
C621 C627 1.483 . S
C622 H597 0.949 . S
C622 C621 1.376 . S
C622 C623 1.397 . S
C623 H598 0.950 . S
C623 C622 1.397 . S
C623 C624 1.391 . S
C624 C623 1.391 . S
C624 C625 1.405 . S
C625 H599 0.950 . S
C625 C624 1.405 . S
C625 C626 1.367 . S
C626 H600 0.950 . S
C626 C621 1.386 . S
C626 C625 1.367 . S
C627 C621 1.483 . S
C627 C628 1.382 . S
C627 C629 1.403 . S
C628 H601 0.950 . S
C628 C614 1.411 . S
C628 C627 1.382 . S
C629 C613 1.411 . S
C629 C627 1.403 . S
C629 C630 1.489 . S
C630 C629 1.489 . S
C630 C631 1.383 . S
C630 C635 1.382 . S
C631 H602 0.950 . S
C631 C630 1.383 . S
C631 C632 1.395 . S
C632 H603 0.950 . S
C632 C631 1.395 . S
C632 C633 1.288 . S
C633 C632 1.288 . S
C633 C634 1.392 . S
C634 H604 0.951 . S
C634 C633 1.392 . S
C634 C635 1.392 . S
C635 H605 0.949 . S
C635 C630 1.382 . S
C635 C634 1.392 . S
H636 C655 0.949 . S
H637 C656 0.950 . S
H638 C658 0.950 . S
H639 C659 0.950 . S
H640 C661 0.950 . S
H641 C664 0.950 . S
H642 C665 0.950 . S
H643 C667 0.951 . S
H644 C668 0.949 . S
H645 C670 0.949 . S
H646 C671 0.950 . S
H647 C673 0.950 . S
H648 C674 0.950 . S
H649 C676 0.950 . S
H650 C679 0.950 . S
H651 C680 0.950 . S
H652 C682 0.951 . S
H653 C683 0.949 . S
C654 C655 1.376 . S
C654 C659 1.386 . S
C654 C660 1.483 . S
C655 H636 0.949 . S
C655 C654 1.376 . S
C655 C656 1.397 . S
C656 H637 0.950 . S
C656 C655 1.397 . S
C656 C657 1.391 . S
C657 C656 1.391 . S
C657 C658 1.405 . S
C658 H638 0.950 . S
C658 C657 1.405 . S
C658 C659 1.367 . S
C659 H639 0.950 . S
C659 C654 1.386 . S
C659 C658 1.367 . S
C660 C654 1.483 . S
C660 C661 1.382 . S
C660 C662 1.403 . S
C661 H640 0.950 . S
C661 C660 1.382 . S
C661 C677 1.411 . S
C662 C660 1.403 . S
C662 C663 1.489 . S
C662 C676 1.411 . S
C663 C662 1.489 . S
C663 C664 1.383 . S
C663 C668 1.382 . S
C664 H641 0.950 . S
C664 C663 1.383 . S
C664 C665 1.395 . S
C665 H642 0.950 . S
C665 C664 1.395 . S
C665 C666 1.288 . S
C666 C665 1.288 . S
C666 C667 1.392 . S
C667 H643 0.951 . S
C667 C666 1.392 . S
C667 C668 1.392 . S
C668 H644 0.949 . S
C668 C663 1.382 . S
C668 C667 1.392 . S
C669 C670 1.376 . S
C669 C674 1.386 . S
C669 C675 1.483 . S
C670 H645 0.949 . S
C670 C669 1.376 . S
C670 C671 1.397 . S
C671 H646 0.950 . S
C671 C670 1.397 . S
C671 C672 1.391 . S
C672 C671 1.391 . S
C672 C673 1.405 . S
C673 H647 0.950 . S
C673 C672 1.405 . S
C673 C674 1.367 . S
C674 H648 0.950 . S
C674 C669 1.386 . S
C674 C673 1.367 . S
C675 C669 1.483 . S
C675 C676 1.382 . S
C675 C677 1.403 . S
C676 H649 0.950 . S
C676 C662 1.411 . S
C676 C675 1.382 . S
C677 C661 1.411 . S
C677 C675 1.403 . S
C677 C678 1.489 . S
C678 C677 1.489 . S
C678 C679 1.383 . S
C678 C683 1.382 . S
C679 H650 0.950 . S
C679 C678 1.383 . S
C679 C680 1.395 . S
C680 H651 0.950 . S
C680 C679 1.395 . S
C680 C681 1.288 . S
C681 C680 1.288 . S
C681 C682 1.392 . S
C682 H652 0.951 . S
C682 C681 1.392 . S
C682 C683 1.392 . S
C683 H653 0.949 . S
C683 C678 1.382 . S
C683 C682 1.392 . S
H684 C703 0.949 . S
H685 C704 0.950 . S
H686 C706 0.950 . S
H687 C707 0.950 . S
H688 C709 0.950 . S
H689 C712 0.950 . S
H690 C713 0.950 . S
H691 C715 0.951 . S
H692 C716 0.949 . S
H693 C718 0.949 . S
H694 C719 0.950 . S
H695 C721 0.950 . S
H696 C722 0.950 . S
H697 C724 0.950 . S
H698 C727 0.950 . S
H699 C728 0.950 . S
H700 C730 0.951 . S
H701 C731 0.949 . S
C702 C703 1.376 . S
C702 C707 1.386 1_655 S
C702 C708 1.483 . S
C703 H684 0.949 . S
C703 C702 1.376 . S
C703 C704 1.397 . S
C704 H685 0.950 . S
C704 C703 1.397 . S
C704 C705 1.391 . S
C705 C704 1.391 . S
C705 C706 1.405 1_655 S
C706 H686 0.950 . S
C706 C705 1.405 1_455 S
C706 C707 1.367 . S
C707 H687 0.950 . S
C707 C702 1.386 1_455 S
C707 C706 1.367 . S
C708 C702 1.483 . S
C708 C709 1.382 . S
C708 C710 1.403 1_655 S
C709 H688 0.950 . S
C709 C708 1.382 . S
C709 C725 1.411 . S
C710 C708 1.403 1_455 S
C710 C711 1.489 . S
C710 C724 1.411 . S
C711 C710 1.489 . S
C711 C712 1.383 1_455 S
C711 C716 1.382 . S
C712 H689 0.950 . S
C712 C711 1.383 1_655 S
C712 C713 1.395 . S
C713 H690 0.950 . S
C713 C712 1.395 . S
C713 C714 1.288 1_655 S
C714 C713 1.288 1_455 S
C714 C715 1.392 . S
C715 H691 0.951 . S
C715 C714 1.392 . S
C715 C716 1.392 . S
C716 H692 0.949 . S
C716 C711 1.382 . S
C716 C715 1.392 . S
C717 C718 1.376 . S
C717 C722 1.386 1_455 S
C717 C723 1.483 . S
C718 H693 0.949 . S
C718 C717 1.376 . S
C718 C719 1.397 . S
C719 H694 0.950 . S
C719 C718 1.397 . S
C719 C720 1.391 . S
C720 C719 1.391 . S
C720 C721 1.405 1_455 S
C721 H695 0.950 . S
C721 C720 1.405 1_655 S
C721 C722 1.367 . S
C722 H696 0.950 . S
C722 C717 1.386 1_655 S
C722 C721 1.367 . S
C723 C717 1.483 . S
C723 C724 1.382 . S
C723 C725 1.403 1_455 S
C724 H697 0.950 . S
C724 C710 1.411 . S
C724 C723 1.382 . S
C725 C709 1.411 . S
C725 C723 1.403 1_655 S
C725 C726 1.489 . S
C726 C725 1.489 . S
C726 C727 1.383 1_655 S
C726 C731 1.382 . S
C727 H698 0.950 . S
C727 C726 1.383 1_455 S
C727 C728 1.395 . S
C728 H699 0.950 . S
C728 C727 1.395 . S
C728 C729 1.288 1_455 S
C729 C728 1.288 1_655 S
C729 C730 1.392 . S
C730 H700 0.951 . S
C730 C729 1.392 . S
C730 C731 1.392 . S
C731 H701 0.949 . S
C731 C726 1.382 . S
C731 C730 1.392 . S
H732 C751 0.949 . S
H733 C752 0.950 . S
H734 C754 0.950 . S
H735 C755 0.950 . S
H736 C757 0.950 . S
H737 C760 0.950 . S
H738 C761 0.950 . S
H739 C763 0.951 . S
H740 C764 0.949 . S
H741 C766 0.949 . S
H742 C767 0.950 . S
H743 C769 0.950 . S
H744 C770 0.950 . S
H745 C772 0.950 . S
H746 C775 0.950 . S
H747 C776 0.950 . S
H748 C778 0.951 . S
H749 C779 0.949 . S
C750 C751 1.376 . S
C750 C755 1.386 . S
C750 C756 1.483 . S
C751 H732 0.949 . S
C751 C750 1.376 . S
C751 C752 1.397 . S
C752 H733 0.950 . S
C752 C751 1.397 . S
C752 C753 1.391 . S
C753 C752 1.391 . S
C753 C754 1.405 . S
C754 H734 0.950 . S
C754 C753 1.405 . S
C754 C755 1.367 . S
C755 H735 0.950 . S
C755 C750 1.386 . S
C755 C754 1.367 . S
C756 C750 1.483 . S
C756 C757 1.382 . S
C756 C758 1.403 . S
C757 H736 0.950 . S
C757 C756 1.382 . S
C757 C773 1.411 . S
C758 C756 1.403 . S
C758 C759 1.489 . S
C758 C772 1.411 . S
C759 C758 1.489 . S
C759 C760 1.383 . S
C759 C764 1.382 . S
C760 H737 0.950 . S
C760 C759 1.383 . S
C760 C761 1.395 . S
C761 H738 0.950 . S
C761 C760 1.395 . S
C761 C762 1.288 . S
C762 C761 1.288 . S
C762 C763 1.392 . S
C763 H739 0.951 . S
C763 C762 1.392 . S
C763 C764 1.392 . S
C764 H740 0.949 . S
C764 C759 1.382 . S
C764 C763 1.392 . S
C765 C766 1.376 . S
C765 C770 1.386 . S
C765 C771 1.483 . S
C766 H741 0.949 . S
C766 C765 1.376 . S
C766 C767 1.397 . S
C767 H742 0.950 . S
C767 C766 1.397 . S
C767 C768 1.391 . S
C768 C767 1.391 . S
C768 C769 1.405 . S
C769 H743 0.950 . S
C769 C768 1.405 . S
C769 C770 1.367 . S
C770 H744 0.950 . S
C770 C765 1.386 . S
C770 C769 1.367 . S
C771 C765 1.483 . S
C771 C772 1.382 . S
C771 C773 1.403 . S
C772 H745 0.950 . S
C772 C758 1.411 . S
C772 C771 1.382 . S
C773 C757 1.411 . S
C773 C771 1.403 . S
C773 C774 1.489 . S
C774 C773 1.489 . S
C774 C775 1.383 . S
C774 C779 1.382 . S
C775 H746 0.950 . S
C775 C774 1.383 . S
C775 C776 1.395 . S
C776 H747 0.950 . S
C776 C775 1.395 . S
C776 C777 1.288 . S
C777 C776 1.288 . S
C777 C778 1.392 . S
C778 H748 0.951 . S
C778 C777 1.392 . S
C778 C779 1.392 . S
C779 H749 0.949 . S
C779 C774 1.382 . S
C779 C778 1.392 . S
H780 C799 0.949 . S
H781 C800 0.950 . S
H782 C802 0.950 . S
H783 C803 0.950 . S
H784 C805 0.950 . S
H785 C808 0.950 . S
H786 C809 0.950 . S
H787 C811 0.951 . S
H788 C812 0.949 . S
H789 C814 0.949 . S
H790 C815 0.950 . S
H791 C817 0.950 . S
H792 C818 0.950 . S
H793 C820 0.950 . S
H794 C823 0.950 . S
H795 C824 0.950 . S
H796 C826 0.951 . S
H797 C827 0.949 . S
C798 C799 1.376 . S
C798 C803 1.386 1_545 S
C798 C804 1.483 . S
C799 H780 0.949 . S
C799 C798 1.376 . S
C799 C800 1.397 . S
C800 H781 0.950 . S
C800 C799 1.397 . S
C800 C801 1.391 . S
C801 C800 1.391 . S
C801 C802 1.405 1_545 S
C802 H782 0.950 . S
C802 C801 1.405 1_565 S
C802 C803 1.367 . S
C803 H783 0.950 . S
C803 C798 1.386 1_565 S
C803 C802 1.367 . S
C804 C798 1.483 . S
C804 C805 1.382 . S
C804 C806 1.403 1_545 S
C805 H784 0.950 . S
C805 C804 1.382 . S
C805 C821 1.411 . S
C806 C804 1.403 1_565 S
C806 C807 1.489 . S
C806 C820 1.411 . S
C807 C806 1.489 . S
C807 C808 1.383 1_565 S
C807 C812 1.382 . S
C808 H785 0.950 . S
C808 C807 1.383 1_545 S
C808 C809 1.395 . S
C809 H786 0.950 . S
C809 C808 1.395 . S
C809 C810 1.288 1_545 S
C810 C809 1.288 1_565 S
C810 C811 1.392 . S
C811 H787 0.951 . S
C811 C810 1.392 . S
C811 C812 1.392 . S
C812 H788 0.949 . S
C812 C807 1.382 . S
C812 C811 1.392 . S
C813 C814 1.376 . S
C813 C818 1.386 1_565 S
C813 C819 1.483 . S
C814 H789 0.949 . S
C814 C813 1.376 . S
C814 C815 1.397 . S
C815 H790 0.950 . S
C815 C814 1.397 . S
C815 C816 1.391 . S
C816 C815 1.391 . S
C816 C817 1.405 1_565 S
C817 H791 0.950 . S
C817 C816 1.405 1_545 S
C817 C818 1.367 . S
C818 H792 0.950 . S
C818 C813 1.386 1_545 S
C818 C817 1.367 . S
C819 C813 1.483 . S
C819 C820 1.382 . S
C819 C821 1.403 1_565 S
C820 H793 0.950 . S
C820 C806 1.411 . S
C820 C819 1.382 . S
C821 C805 1.411 . S
C821 C819 1.403 1_545 S
C821 C822 1.489 . S
C822 C821 1.489 . S
C822 C823 1.383 1_545 S
C822 C827 1.382 . S
C823 H794 0.950 . S
C823 C822 1.383 1_565 S
C823 C824 1.395 . S
C824 H795 0.950 . S
C824 C823 1.395 . S
C824 C825 1.288 1_565 S
C825 C824 1.288 1_545 S
C825 C826 1.392 . S
C826 H796 0.951 . S
C826 C825 1.392 . S
C826 C827 1.392 . S
C827 H797 0.949 . S
C827 C822 1.382 . S
C827 C826 1.392 . S
H828 C847 0.949 . S
H829 C848 0.950 . S
H830 C850 0.950 . S
H831 C851 0.950 . S
H832 C853 0.950 . S
H833 C856 0.950 . S
H834 C857 0.950 . S
H835 C859 0.951 . S
H836 C860 0.949 . S
H837 C862 0.949 . S
H838 C863 0.950 . S
H839 C865 0.950 . S
H840 C866 0.950 . S
H841 C868 0.950 . S
H842 C871 0.950 . S
H843 C872 0.950 . S
H844 C874 0.951 . S
H845 C875 0.949 . S
C846 C847 1.395 . S
C846 C851 1.377 1_545 S
C846 C852 1.501 . S
C847 H828 0.949 . S
C847 C846 1.395 . S
C847 C848 1.397 . S
C848 H829 0.950 . S
C848 C847 1.397 . S
C848 C849 1.391 1_545 S
C849 C848 1.391 1_565 S
C849 C850 1.405 . S
C850 H830 0.950 . S
C850 C849 1.405 . S
C850 C851 1.367 . S
C851 H831 0.950 . S
C851 C846 1.377 1_565 S
C851 C850 1.367 . S
C852 C846 1.501 . S
C852 C853 1.355 . S
C852 C854 1.399 1_545 S
C853 H832 0.950 . S
C853 C852 1.355 . S
C853 C869 1.443 . S
C854 C852 1.399 1_565 S
C854 C855 1.482 . S
C854 C868 1.434 . S
C855 C854 1.482 . S
C855 C856 1.354 1_565 S
C855 C860 1.397 . S
C856 H833 0.950 . S
C856 C855 1.354 1_545 S
C856 C857 1.395 . S
C857 H834 0.950 . S
C857 C856 1.395 . S
C857 C858 1.288 . S
C858 C857 1.288 . S
C858 C859 1.392 1_545 S
C859 H835 0.951 . S
C859 C858 1.392 1_565 S
C859 C860 1.392 . S
C860 H836 0.949 . S
C860 C855 1.397 . S
C860 C859 1.392 . S
C861 C862 1.381 . S
C861 C866 1.384 1_565 S
C861 C867 1.501 . S
C862 H837 0.949 . S
C862 C861 1.381 . S
C862 C863 1.397 . S
C863 H838 0.950 . S
C863 C862 1.397 . S
C863 C864 1.391 1_565 S
C864 C863 1.391 1_545 S
C864 C865 1.405 . S
C865 H839 0.950 . S
C865 C864 1.405 . S
C865 C866 1.367 . S
C866 H840 0.950 . S
C866 C861 1.384 1_545 S
C866 C865 1.367 . S
C867 C861 1.501 . S
C867 C868 1.362 . S
C867 C869 1.399 1_565 S
C868 H841 0.950 . S
C868 C854 1.434 . S
C868 C867 1.362 . S
C869 C853 1.443 . S
C869 C867 1.399 1_545 S
C869 C870 1.482 . S
C870 C869 1.482 . S
C870 C871 1.337 1_545 S
C870 C875 1.407 . S
C871 H842 0.950 . S
C871 C870 1.337 1_565 S
C871 C872 1.395 . S
C872 H843 0.950 . S
C872 C871 1.395 . S
C872 C873 1.288 . S
C873 C872 1.288 . S
C873 C874 1.392 1_565 S
C874 H844 0.951 . S
C874 C873 1.392 1_545 S
C874 C875 1.392 . S
C875 H845 0.949 . S
C875 C870 1.407 . S
C875 C874 1.392 . S
H876 C895 0.949 . S
H877 C896 0.950 . S
H878 C898 0.950 . S
H879 C899 0.950 . S
H880 C901 0.950 . S
H881 C904 0.950 . S
H882 C905 0.950 . S
H883 C907 0.951 . S
H884 C908 0.949 . S
H885 C910 0.949 . S
H886 C911 0.950 . S
H887 C913 0.950 . S
H888 C914 0.950 . S
H889 C916 0.950 . S
H890 C919 0.950 . S
H891 C920 0.950 . S
H892 C922 0.951 . S
H893 C923 0.949 . S
C894 C895 1.376 . S
C894 C899 1.386 1_455 S
C894 C900 1.483 . S
C895 H876 0.949 . S
C895 C894 1.376 . S
C895 C896 1.397 . S
C896 H877 0.950 . S
C896 C895 1.397 . S
C896 C897 1.391 . S
C897 C896 1.391 . S
C897 C898 1.405 1_455 S
C898 H878 0.950 . S
C898 C897 1.405 1_655 S
C898 C899 1.367 . S
C899 H879 0.950 . S
C899 C894 1.386 1_655 S
C899 C898 1.367 . S
C900 C894 1.483 . S
C900 C901 1.382 . S
C900 C902 1.403 1_455 S
C901 H880 0.950 . S
C901 C900 1.382 . S
C901 C917 1.411 . S
C902 C900 1.403 1_655 S
C902 C903 1.489 . S
C902 C916 1.411 . S
C903 C902 1.489 . S
C903 C904 1.383 1_655 S
C903 C908 1.382 . S
C904 H881 0.950 . S
C904 C903 1.383 1_455 S
C904 C905 1.395 . S
C905 H882 0.950 . S
C905 C904 1.395 . S
C905 C906 1.288 1_455 S
C906 C905 1.288 1_655 S
C906 C907 1.392 . S
C907 H883 0.951 . S
C907 C906 1.392 . S
C907 C908 1.392 . S
C908 H884 0.949 . S
C908 C903 1.382 . S
C908 C907 1.392 . S
C909 C910 1.376 . S
C909 C914 1.386 1_655 S
C909 C915 1.483 . S
C910 H885 0.949 . S
C910 C909 1.376 . S
C910 C911 1.397 . S
C911 H886 0.950 . S
C911 C910 1.397 . S
C911 C912 1.391 . S
C912 C911 1.391 . S
C912 C913 1.405 1_655 S
C913 H887 0.950 . S
C913 C912 1.405 1_455 S
C913 C914 1.367 . S
C914 H888 0.950 . S
C914 C909 1.386 1_455 S
C914 C913 1.367 . S
C915 C909 1.483 . S
C915 C916 1.382 . S
C915 C917 1.403 1_655 S
C916 H889 0.950 . S
C916 C902 1.411 . S
C916 C915 1.382 . S
C917 C901 1.411 . S
C917 C915 1.403 1_455 S
C917 C918 1.489 . S
C918 C917 1.489 . S
C918 C919 1.383 1_455 S
C918 C923 1.382 . S
C919 H890 0.950 . S
C919 C918 1.383 1_655 S
C919 C920 1.395 . S
C920 H891 0.950 . S
C920 C919 1.395 . S
C920 C921 1.288 1_655 S
C921 C920 1.288 1_455 S
C921 C922 1.392 . S
C922 H892 0.951 . S
C922 C921 1.392 . S
C922 C923 1.392 . S
C923 H893 0.949 . S
C923 C918 1.382 . S
C923 C922 1.392 . S
H924 C943 0.949 . S
H925 C944 0.950 . S
H926 C946 0.950 . S
H927 C947 0.950 . S
H928 C949 0.950 . S
H929 C952 0.950 . S
H930 C953 0.950 . S
H931 C955 0.951 . S
H932 C956 0.949 . S
H933 C958 0.949 . S
H934 C959 0.950 . S
H935 C961 0.950 . S
H936 C962 0.950 . S
H937 C964 0.950 . S
H938 C967 0.950 . S
H939 C968 0.950 . S
H940 C970 0.951 . S
H941 C971 0.949 . S
C942 C943 1.376 . S
C942 C947 1.386 . S
C942 C948 1.483 . S
C943 H924 0.949 . S
C943 C942 1.376 . S
C943 C944 1.397 . S
C944 H925 0.950 . S
C944 C943 1.397 . S
C944 C945 1.391 . S
C945 C944 1.391 . S
C945 C946 1.405 . S
C946 H926 0.950 . S
C946 C945 1.405 . S
C946 C947 1.367 . S
C947 H927 0.950 . S
C947 C942 1.386 . S
C947 C946 1.367 . S
C948 C942 1.483 . S
C948 C949 1.382 . S
C948 C950 1.403 . S
C949 H928 0.950 . S
C949 C948 1.382 . S
C949 C965 1.411 . S
C950 C948 1.403 . S
C950 C951 1.489 . S
C950 C964 1.411 . S
C951 C950 1.489 . S
C951 C952 1.383 . S
C951 C956 1.382 . S
C952 H929 0.950 . S
C952 C951 1.383 . S
C952 C953 1.395 . S
C953 H930 0.950 . S
C953 C952 1.395 . S
C953 C954 1.288 . S
C954 C953 1.288 . S
C954 C955 1.392 . S
C955 H931 0.951 . S
C955 C954 1.392 . S
C955 C956 1.392 . S
C956 H932 0.949 . S
C956 C951 1.382 . S
C956 C955 1.392 . S
C957 C958 1.376 . S
C957 C962 1.386 . S
C957 C963 1.483 . S
C958 H933 0.949 . S
C958 C957 1.376 . S
C958 C959 1.397 . S
C959 H934 0.950 . S
C959 C958 1.397 . S
C959 C960 1.391 . S
C960 C959 1.391 . S
C960 C961 1.405 . S
C961 H935 0.950 . S
C961 C960 1.405 . S
C961 C962 1.367 . S
C962 H936 0.950 . S
C962 C957 1.386 . S
C962 C961 1.367 . S
C963 C957 1.483 . S
C963 C964 1.382 . S
C963 C965 1.403 . S
C964 H937 0.950 . S
C964 C950 1.411 . S
C964 C963 1.382 . S
C965 C949 1.411 . S
C965 C963 1.403 . S
C965 C966 1.489 . S
C966 C965 1.489 . S
C966 C967 1.383 . S
C966 C971 1.382 . S
C967 H938 0.950 . S
C967 C966 1.383 . S
C967 C968 1.395 . S
C968 H939 0.950 . S
C968 C967 1.395 . S
C968 C969 1.288 . S
C969 C968 1.288 . S
C969 C970 1.392 . S
C970 H940 0.951 . S
C970 C969 1.392 . S
C970 C971 1.392 . S
C971 H941 0.949 . S
C971 C966 1.382 . S
C971 C970 1.392 . S
H972 C991 0.949 . S
H973 C992 0.950 . S
H974 C994 0.950 . S
H975 C995 0.950 . S
H976 C997 0.950 . S
H977 C1000 0.950 . S
H978 C1001 0.950 . S
H979 C1003 0.951 . S
H980 C1004 0.949 . S
H981 C1006 0.949 . S
H982 C1007 0.950 . S
H983 C1009 0.950 . S
H984 C1010 0.950 . S
H985 C1012 0.950 . S
H986 C1015 0.950 . S
H987 C1016 0.950 . S
H988 C1018 0.951 . S
H989 C1019 0.949 . S
C990 C991 1.376 . S
C990 C995 1.386 . S
C990 C996 1.483 . S
C991 H972 0.949 . S
C991 C990 1.376 . S
C991 C992 1.397 . S
C992 H973 0.950 . S
C992 C991 1.397 . S
C992 C993 1.391 . S
C993 C992 1.391 . S
C993 C994 1.405 . S
C994 H974 0.950 . S
C994 C993 1.405 . S
C994 C995 1.367 . S
C995 H975 0.950 . S
C995 C990 1.386 . S
C995 C994 1.367 . S
C996 C990 1.483 . S
C996 C997 1.382 . S
C996 C998 1.403 . S
C997 H976 0.950 . S
C997 C996 1.382 . S
C997 C1013 1.411 . S
C998 C996 1.403 . S
C998 C999 1.489 . S
C998 C1012 1.411 . S
C999 C998 1.489 . S
C999 C1000 1.383 . S
C999 C1004 1.382 . S
C1000 H977 0.950 . S
C1000 C999 1.383 . S
C1000 C1001 1.395 . S
C1001 H978 0.950 . S
C1001 C1000 1.395 . S
C1001 C1002 1.288 . S
C1002 C1001 1.288 . S
C1002 C1003 1.392 . S
C1003 H979 0.951 . S
C1003 C1002 1.392 . S
C1003 C1004 1.392 . S
C1004 H980 0.949 . S
C1004 C999 1.382 . S
C1004 C1003 1.392 . S
C1005 C1006 1.376 . S
C1005 C1010 1.386 . S
C1005 C1011 1.483 . S
C1006 H981 0.949 . S
C1006 C1005 1.376 . S
C1006 C1007 1.397 . S
C1007 H982 0.950 . S
C1007 C1006 1.397 . S
C1007 C1008 1.391 . S
C1008 C1007 1.391 . S
C1008 C1009 1.405 . S
C1009 H983 0.950 . S
C1009 C1008 1.405 . S
C1009 C1010 1.367 . S
C1010 H984 0.950 . S
C1010 C1005 1.386 . S
C1010 C1009 1.367 . S
C1011 C1005 1.483 . S
C1011 C1012 1.382 . S
C1011 C1013 1.403 . S
C1012 H985 0.950 . S
C1012 C998 1.411 . S
C1012 C1011 1.382 . S
C1013 C997 1.411 . S
C1013 C1011 1.403 . S
C1013 C1014 1.489 . S
C1014 C1013 1.489 . S
C1014 C1015 1.383 . S
C1014 C1019 1.382 . S
C1015 H986 0.950 . S
C1015 C1014 1.383 . S
C1015 C1016 1.395 . S
C1016 H987 0.950 . S
C1016 C1015 1.395 . S
C1016 C1017 1.288 . S
C1017 C1016 1.288 . S
C1017 C1018 1.392 . S
C1018 H988 0.951 . S
C1018 C1017 1.392 . S
C1018 C1019 1.392 . S
C1019 H989 0.949 . S
C1019 C1014 1.382 . S
C1019 C1018 1.392 . S
H1020 C1039 0.949 . S
H1021 C1040 0.950 . S
H1022 C1042 0.950 . S
H1023 C1043 0.950 . S
H1024 C1045 0.950 . S
H1025 C1048 0.950 . S
H1026 C1049 0.950 . S
H1027 C1051 0.951 . S
H1028 C1052 0.949 . S
H1029 C1054 0.949 . S
H1030 C1055 0.950 . S
H1031 C1057 0.950 . S
H1032 C1058 0.950 . S
H1033 C1060 0.950 . S
H1034 C1063 0.950 . S
H1035 C1064 0.950 . S
H1036 C1066 0.951 . S
H1037 C1067 0.949 . S
C1038 C1039 1.376 . S
C1038 C1043 1.386 . S
C1038 C1044 1.483 . S
C1039 H1020 0.949 . S
C1039 C1038 1.376 . S
C1039 C1040 1.397 . S
C1040 H1021 0.950 . S
C1040 C1039 1.397 . S
C1040 C1041 1.391 . S
C1041 C1040 1.391 . S
C1041 C1042 1.405 . S
C1042 H1022 0.950 . S
C1042 C1041 1.405 . S
C1042 C1043 1.367 . S
C1043 H1023 0.950 . S
C1043 C1038 1.386 . S
C1043 C1042 1.367 . S
C1044 C1038 1.483 . S
C1044 C1045 1.382 . S
C1044 C1046 1.403 . S
C1045 H1024 0.950 . S
C1045 C1044 1.382 . S
C1045 C1061 1.411 . S
C1046 C1044 1.403 . S
C1046 C1047 1.489 . S
C1046 C1060 1.411 . S
C1047 C1046 1.489 . S
C1047 C1048 1.383 . S
C1047 C1052 1.382 . S
C1048 H1025 0.950 . S
C1048 C1047 1.383 . S
C1048 C1049 1.395 . S
C1049 H1026 0.950 . S
C1049 C1048 1.395 . S
C1049 C1050 1.288 . S
C1050 C1049 1.288 . S
C1050 C1051 1.392 . S
C1051 H1027 0.951 . S
C1051 C1050 1.392 . S
C1051 C1052 1.392 . S
C1052 H1028 0.949 . S
C1052 C1047 1.382 . S
C1052 C1051 1.392 . S
C1053 C1054 1.376 . S
C1053 C1058 1.386 . S
C1053 C1059 1.483 . S
C1054 H1029 0.949 . S
C1054 C1053 1.376 . S
C1054 C1055 1.397 . S
C1055 H1030 0.950 . S
C1055 C1054 1.397 . S
C1055 C1056 1.391 . S
C1056 C1055 1.391 . S
C1056 C1057 1.405 . S
C1057 H1031 0.950 . S
C1057 C1056 1.405 . S
C1057 C1058 1.367 . S
C1058 H1032 0.950 . S
C1058 C1053 1.386 . S
C1058 C1057 1.367 . S
C1059 C1053 1.483 . S
C1059 C1060 1.382 . S
C1059 C1061 1.403 . S
C1060 H1033 0.950 . S
C1060 C1046 1.411 . S
C1060 C1059 1.382 . S
C1061 C1045 1.411 . S
C1061 C1059 1.403 . S
C1061 C1062 1.489 . S
C1062 C1061 1.489 . S
C1062 C1063 1.383 . S
C1062 C1067 1.382 . S
C1063 H1034 0.950 . S
C1063 C1062 1.383 . S
C1063 C1064 1.395 . S
C1064 H1035 0.950 . S
C1064 C1063 1.395 . S
C1064 C1065 1.288 . S
C1065 C1064 1.288 . S
C1065 C1066 1.392 . S
C1066 H1036 0.951 . S
C1066 C1065 1.392 . S
C1066 C1067 1.392 . S
C1067 H1037 0.949 . S
C1067 C1062 1.382 . S
C1067 C1066 1.392 . S
H1068 C1087 0.949 . S
H1069 C1088 0.950 . S
H1070 C1090 0.950 . S
H1071 C1091 0.950 . S
H1072 C1093 0.950 . S
H1073 C1096 0.950 . S
H1074 C1097 0.950 . S
H1075 C1099 0.951 . S
H1076 C1100 0.949 . S
H1077 C1102 0.949 . S
H1078 C1103 0.950 . S
H1079 C1105 0.950 . S
H1080 C1106 0.950 . S
H1081 C1108 0.950 . S
H1082 C1111 0.950 . S
H1083 C1112 0.950 . S
H1084 C1114 0.951 . S
H1085 C1115 0.949 . S
C1086 C1087 1.376 . S
C1086 C1091 1.386 . S
C1086 C1092 1.483 . S
C1087 H1068 0.949 . S
C1087 C1086 1.376 . S
C1087 C1088 1.397 . S
C1088 H1069 0.950 . S
C1088 C1087 1.397 . S
C1088 C1089 1.391 . S
C1089 C1088 1.391 . S
C1089 C1090 1.405 . S
C1090 H1070 0.950 . S
C1090 C1089 1.405 . S
C1090 C1091 1.367 . S
C1091 H1071 0.950 . S
C1091 C1086 1.386 . S
C1091 C1090 1.367 . S
C1092 C1086 1.483 . S
C1092 C1093 1.382 . S
C1092 C1094 1.403 . S
C1093 H1072 0.950 . S
C1093 C1092 1.382 . S
C1093 C1109 1.411 . S
C1094 C1092 1.403 . S
C1094 C1095 1.489 . S
C1094 C1108 1.411 . S
C1095 C1094 1.489 . S
C1095 C1096 1.383 . S
C1095 C1100 1.382 . S
C1096 H1073 0.950 . S
C1096 C1095 1.383 . S
C1096 C1097 1.395 . S
C1097 H1074 0.950 . S
C1097 C1096 1.395 . S
C1097 C1098 1.288 . S
C1098 C1097 1.288 . S
C1098 C1099 1.392 . S
C1099 H1075 0.951 . S
C1099 C1098 1.392 . S
C1099 C1100 1.392 . S
C1100 H1076 0.949 . S
C1100 C1095 1.382 . S
C1100 C1099 1.392 . S
C1101 C1102 1.376 . S
C1101 C1106 1.386 . S
C1101 C1107 1.483 . S
C1102 H1077 0.949 . S
C1102 C1101 1.376 . S
C1102 C1103 1.397 . S
C1103 H1078 0.950 . S
C1103 C1102 1.397 . S
C1103 C1104 1.391 . S
C1104 C1103 1.391 . S
C1104 C1105 1.405 . S
C1105 H1079 0.950 . S
C1105 C1104 1.405 . S
C1105 C1106 1.367 . S
C1106 H1080 0.950 . S
C1106 C1101 1.386 . S
C1106 C1105 1.367 . S
C1107 C1101 1.483 . S
C1107 C1108 1.382 . S
C1107 C1109 1.403 . S
C1108 H1081 0.950 . S
C1108 C1094 1.411 . S
C1108 C1107 1.382 . S
C1109 C1093 1.411 . S
C1109 C1107 1.403 . S
C1109 C1110 1.489 . S
C1110 C1109 1.489 . S
C1110 C1111 1.383 . S
C1110 C1115 1.382 . S
C1111 H1082 0.950 . S
C1111 C1110 1.383 . S
C1111 C1112 1.395 . S
C1112 H1083 0.950 . S
C1112 C1111 1.395 . S
C1112 C1113 1.288 . S
C1113 C1112 1.288 . S
C1113 C1114 1.392 . S
C1114 H1084 0.951 . S
C1114 C1113 1.392 . S
C1114 C1115 1.392 . S
C1115 H1085 0.949 . S
C1115 C1110 1.382 . S
C1115 C1114 1.392 . S
H1116 C1124 0.950 . S
H1117 C1129 0.950 . S
H1118 C1126 0.950 . S
H1119 C1128 0.950 . S
H1120 C1130 0.950 . S
H1121 C1132 0.950 . S
H1122 C1134 0.950 . S
H1123 C1135 0.950 . S
C1124 H1116 0.950 . S
C1124 C1125 1.386 1_455 S
C1124 C1126 1.391 . S
C1125 C1124 1.386 1_655 S
C1125 C1129 1.393 . S
C1126 H1118 0.950 . S
C1126 C1124 1.391 . S
C1126 C1127 1.400 1_455 S
C1127 C1126 1.400 1_655 S
C1127 C1128 1.398 . S
C1127 C1133 1.491 . S
C1128 H1119 0.950 . S
C1128 C1127 1.398 . S
C1128 C1129 1.391 . S
C1129 H1117 0.950 . S
C1129 C1125 1.393 . S
C1129 C1128 1.391 . S
C1130 H1120 0.950 . S
C1130 C1131 1.386 . S
C1130 C1132 1.391 . S
C1131 C1130 1.386 . S
C1131 C1135 1.393 1_655 S
C1132 H1121 0.950 . S
C1132 C1130 1.391 . S
C1132 C1133 1.400 . S
C1133 C1127 1.491 . S
C1133 C1132 1.400 . S
C1133 C1134 1.398 1_655 S
C1134 H1122 0.950 . S
C1134 C1133 1.398 1_455 S
C1134 C1135 1.391 . S
C1135 H1123 0.950 . S
C1135 C1131 1.393 1_455 S
C1135 C1134 1.391 . S
H1136 C1144 0.950 . S
H1137 C1149 0.950 . S
H1138 C1146 0.950 . S
H1139 C1148 0.950 . S
H1140 C1150 0.950 . S
H1141 C1152 0.950 . S
H1142 C1154 0.950 . S
H1143 C1155 0.950 . S
C1144 H1136 0.950 . S
C1144 C1145 1.386 . S
C1144 C1146 1.391 . S
C1145 C1144 1.386 . S
C1145 C1149 1.393 . S
C1146 H1138 0.950 . S
C1146 C1144 1.391 . S
C1146 C1147 1.400 . S
C1147 C1146 1.400 . S
C1147 C1148 1.398 . S
C1147 C1153 1.491 . S
C1148 H1139 0.950 . S
C1148 C1147 1.398 . S
C1148 C1149 1.391 . S
C1149 H1137 0.950 . S
C1149 C1145 1.393 . S
C1149 C1148 1.391 . S
C1150 H1140 0.950 . S
C1150 C1151 1.386 . S
C1150 C1152 1.391 . S
C1151 C1150 1.386 . S
C1151 C1155 1.393 . S
C1152 H1141 0.950 . S
C1152 C1150 1.391 . S
C1152 C1153 1.400 . S
C1153 C1147 1.491 . S
C1153 C1152 1.400 . S
C1153 C1154 1.398 . S
C1154 H1142 0.950 . S
C1154 C1153 1.398 . S
C1154 C1155 1.391 . S
C1155 H1143 0.950 . S
C1155 C1151 1.393 . S
C1155 C1154 1.391 . S
H1156 C1164 0.950 . S
H1157 C1169 0.950 . S
H1158 C1166 0.950 . S
H1159 C1168 0.950 . S
H1160 C1170 0.950 . S
H1161 C1172 0.950 . S
H1162 C1174 0.950 . S
H1163 C1175 0.950 . S
C1164 H1156 0.950 . S
C1164 C1165 1.386 . S
C1164 C1166 1.391 . S
C1165 C1164 1.386 . S
C1165 C1169 1.393 1_545 S
C1166 H1158 0.950 . S
C1166 C1164 1.391 . S
C1166 C1167 1.400 . S
C1167 C1166 1.400 . S
C1167 C1168 1.398 1_545 S
C1167 C1173 1.491 . S
C1168 H1159 0.950 . S
C1168 C1167 1.398 1_565 S
C1168 C1169 1.391 . S
C1169 H1157 0.950 . S
C1169 C1165 1.393 1_565 S
C1169 C1168 1.391 . S
C1170 H1160 0.950 . S
C1170 C1171 1.386 1_565 S
C1170 C1172 1.391 . S
C1171 C1170 1.386 1_545 S
C1171 C1175 1.393 . S
C1172 H1161 0.950 . S
C1172 C1170 1.391 . S
C1172 C1173 1.400 1_565 S
C1173 C1167 1.491 . S
C1173 C1172 1.400 1_545 S
C1173 C1174 1.398 . S
C1174 H1162 0.950 . S
C1174 C1173 1.398 . S
C1174 C1175 1.391 . S
C1175 H1163 0.950 . S
C1175 C1171 1.393 . S
C1175 C1174 1.391 . S
H1176 C1184 0.950 . S
H1177 C1189 0.950 . S
H1178 C1186 0.950 . S
H1179 C1188 0.950 . S
H1180 C1190 0.950 . S
H1181 C1192 0.950 . S
H1182 C1194 0.950 . S
H1183 C1195 0.950 . S
C1184 H1176 0.950 . S
C1184 C1185 1.386 1_545 S
C1184 C1186 1.391 . S
C1185 C1184 1.386 1_565 S
C1185 C1189 1.393 . S
C1186 H1178 0.950 . S
C1186 C1184 1.391 . S
C1186 C1187 1.400 1_545 S
C1187 C1186 1.400 1_565 S
C1187 C1188 1.398 . S
C1187 C1193 1.491 . S
C1188 H1179 0.950 . S
C1188 C1187 1.398 . S
C1188 C1189 1.391 . S
C1189 H1177 0.950 . S
C1189 C1185 1.393 . S
C1189 C1188 1.391 . S
C1190 H1180 0.950 . S
C1190 C1191 1.386 . S
C1190 C1192 1.391 . S
C1191 C1190 1.386 . S
C1191 C1195 1.393 1_565 S
C1192 H1181 0.950 . S
C1192 C1190 1.391 . S
C1192 C1193 1.400 . S
C1193 C1187 1.491 . S
C1193 C1192 1.400 . S
C1193 C1194 1.398 1_565 S
C1194 H1182 0.950 . S
C1194 C1193 1.398 1_545 S
C1194 C1195 1.391 . S
C1195 H1183 0.950 . S
C1195 C1191 1.393 1_545 S
C1195 C1194 1.391 . S
H1196 C1204 0.950 . S
H1197 C1209 0.950 . S
H1198 C1206 0.950 . S
H1199 C1208 0.950 . S
H1200 C1210 0.950 . S
H1201 C1212 0.950 . S
H1202 C1214 0.950 . S
H1203 C1215 0.950 . S
C1204 H1196 0.950 . S
C1204 C1205 1.386 . S
C1204 C1206 1.391 . S
C1205 C1204 1.386 . S
C1205 C1209 1.393 1_455 S
C1206 H1198 0.950 . S
C1206 C1204 1.391 . S
C1206 C1207 1.400 . S
C1207 C1206 1.400 . S
C1207 C1208 1.398 1_455 S
C1207 C1213 1.491 . S
C1208 H1199 0.950 . S
C1208 C1207 1.398 1_655 S
C1208 C1209 1.391 . S
C1209 H1197 0.950 . S
C1209 C1205 1.393 1_655 S
C1209 C1208 1.391 . S
C1210 H1200 0.950 . S
C1210 C1211 1.386 1_655 S
C1210 C1212 1.391 . S
C1211 C1210 1.386 1_455 S
C1211 C1215 1.393 . S
C1212 H1201 0.950 . S
C1212 C1210 1.391 . S
C1212 C1213 1.400 1_655 S
C1213 C1207 1.491 . S
C1213 C1212 1.400 1_455 S
C1213 C1214 1.398 . S
C1214 H1202 0.950 . S
C1214 C1213 1.398 . S
C1214 C1215 1.391 . S
C1215 H1203 0.950 . S
C1215 C1211 1.393 . S
C1215 C1214 1.391 . S
H1216 C1224 0.950 . S
H1217 C1229 0.950 . S
H1218 C1226 0.950 . S
H1219 C1228 0.950 . S
H1220 C1230 0.950 . S
H1221 C1232 0.950 . S
H1222 C1234 0.950 . S
H1223 C1235 0.950 . S
C1224 H1216 0.950 . S
C1224 C1225 1.386 . S
C1224 C1226 1.391 . S
C1225 C1224 1.386 . S
C1225 C1229 1.393 . S
C1226 H1218 0.950 . S
C1226 C1224 1.391 . S
C1226 C1227 1.400 . S
C1227 C1226 1.400 . S
C1227 C1228 1.398 . S
C1227 C1233 1.491 . S
C1228 H1219 0.950 . S
C1228 C1227 1.398 . S
C1228 C1229 1.391 . S
C1229 H1217 0.950 . S
C1229 C1225 1.393 . S
C1229 C1228 1.391 . S
C1230 H1220 0.950 . S
C1230 C1231 1.386 . S
C1230 C1232 1.391 . S
C1231 C1230 1.386 . S
C1231 C1235 1.393 . S
C1232 H1221 0.950 . S
C1232 C1230 1.391 . S
C1232 C1233 1.400 . S
C1233 C1227 1.491 . S
C1233 C1232 1.400 . S
C1233 C1234 1.398 . S
C1234 H1222 0.950 . S
C1234 C1233 1.398 . S
C1234 C1235 1.391 . S
C1235 H1223 0.950 . S
C1235 C1231 1.393 . S
C1235 C1234 1.391 . S
H1236 C1244 0.950 . S
H1237 C1249 0.950 . S
H1238 C1246 0.950 . S
H1239 C1248 0.950 . S
H1240 C1250 0.950 . S
H1241 C1252 0.950 . S
H1242 C1254 0.950 . S
H1243 C1255 0.950 . S
C1244 H1236 0.950 . S
C1244 C1245 1.386 1_655 S
C1244 C1246 1.391 . S
C1245 C1244 1.386 1_455 S
C1245 C1249 1.393 . S
C1246 H1238 0.950 . S
C1246 C1244 1.391 . S
C1246 C1247 1.400 1_655 S
C1247 C1246 1.400 1_455 S
C1247 C1248 1.398 . S
C1247 C1253 1.491 . S
C1248 H1239 0.950 . S
C1248 C1247 1.398 . S
C1248 C1249 1.391 . S
C1249 H1237 0.950 . S
C1249 C1245 1.393 . S
C1249 C1248 1.391 . S
C1250 H1240 0.950 . S
C1250 C1251 1.386 . S
C1250 C1252 1.391 . S
C1251 C1250 1.386 . S
C1251 C1255 1.393 1_455 S
C1252 H1241 0.950 . S
C1252 C1250 1.391 . S
C1252 C1253 1.400 . S
C1253 C1247 1.491 . S
C1253 C1252 1.400 . S
C1253 C1254 1.398 1_455 S
C1254 H1242 0.950 . S
C1254 C1253 1.398 1_655 S
C1254 C1255 1.391 . S
C1255 H1243 0.950 . S
C1255 C1251 1.393 1_655 S
C1255 C1254 1.391 . S
H1256 C1264 0.950 . S
H1257 C1269 0.950 . S
H1258 C1266 0.950 . S
H1259 C1268 0.950 . S
H1260 C1270 0.950 . S
H1261 C1272 0.950 . S
H1262 C1274 0.950 . S
H1263 C1275 0.950 . S
C1264 H1256 0.950 . S
C1264 C1265 1.386 . S
C1264 C1266 1.391 . S
C1265 C1264 1.386 . S
C1265 C1269 1.393 . S
C1266 H1258 0.950 . S
C1266 C1264 1.391 . S
C1266 C1267 1.400 . S
C1267 C1266 1.400 . S
C1267 C1268 1.398 . S
C1267 C1273 1.491 . S
C1268 H1259 0.950 . S
C1268 C1267 1.398 . S
C1268 C1269 1.391 . S
C1269 H1257 0.950 . S
C1269 C1265 1.393 . S
C1269 C1268 1.391 . S
C1270 H1260 0.950 . S
C1270 C1271 1.386 . S
C1270 C1272 1.391 . S
C1271 C1270 1.386 . S
C1271 C1275 1.393 . S
C1272 H1261 0.950 . S
C1272 C1270 1.391 . S
C1272 C1273 1.400 . S
C1273 C1267 1.491 . S
C1273 C1272 1.400 . S
C1273 C1274 1.398 . S
C1274 H1262 0.950 . S
C1274 C1273 1.398 . S
C1274 C1275 1.391 . S
C1275 H1263 0.950 . S
C1275 C1271 1.393 . S
C1275 C1274 1.391 . S
H1276 C1284 0.950 . S
H1277 C1289 0.950 . S
H1278 C1286 0.950 . S
H1279 C1288 0.950 . S
H1280 C1290 0.950 . S
H1281 C1292 0.950 . S
H1282 C1294 0.950 . S
H1283 C1295 0.950 . S
C1284 H1276 0.950 . S
C1284 C1285 1.386 . S
C1284 C1286 1.391 . S
C1285 C1284 1.386 . S
C1285 C1289 1.393 1_565 S
C1286 H1278 0.950 . S
C1286 C1284 1.391 . S
C1286 C1287 1.400 . S
C1287 C1286 1.400 . S
C1287 C1288 1.398 1_565 S
C1287 C1293 1.491 . S
C1288 H1279 0.950 . S
C1288 C1287 1.398 1_545 S
C1288 C1289 1.391 . S
C1289 H1277 0.950 . S
C1289 C1285 1.393 1_545 S
C1289 C1288 1.391 . S
C1290 H1280 0.950 . S
C1290 C1291 1.386 1_545 S
C1290 C1292 1.391 . S
C1291 C1290 1.386 1_565 S
C1291 C1295 1.393 . S
C1292 H1281 0.950 . S
C1292 C1290 1.391 . S
C1292 C1293 1.400 1_545 S
C1293 C1287 1.491 . S
C1293 C1292 1.400 1_565 S
C1293 C1294 1.398 . S
C1294 H1282 0.950 . S
C1294 C1293 1.398 . S
C1294 C1295 1.391 . S
C1295 H1283 0.950 . S
C1295 C1291 1.393 . S
C1295 C1294 1.391 . S
H1296 C1304 0.950 . S
H1297 C1309 0.950 . S
H1298 C1306 0.950 . S
H1299 C1308 0.950 . S
H1300 C1310 0.950 . S
H1301 C1312 0.950 . S
H1302 C1314 0.950 . S
H1303 C1315 0.950 . S
C1304 H1296 0.950 . S
C1304 C1305 1.386 . S
C1304 C1306 1.391 . S
C1305 C1304 1.386 . S
C1305 C1309 1.393 1_545 S
C1306 H1298 0.950 . S
C1306 C1304 1.391 . S
C1306 C1307 1.400 . S
C1307 C1306 1.400 . S
C1307 C1308 1.398 1_545 S
C1307 C1313 1.491 . S
C1308 H1299 0.950 . S
C1308 C1307 1.398 1_565 S
C1308 C1309 1.391 . S
C1309 H1297 0.950 . S
C1309 C1305 1.393 1_565 S
C1309 C1308 1.391 . S
C1310 H1300 0.950 . S
C1310 C1311 1.386 1_565 S
C1310 C1312 1.391 . S
C1311 C1310 1.386 1_545 S
C1311 C1315 1.393 . S
C1312 H1301 0.950 . S
C1312 C1310 1.391 . S
C1312 C1313 1.400 1_565 S
C1313 C1307 1.491 . S
C1313 C1312 1.400 1_545 S
C1313 C1314 1.398 . S
C1314 H1302 0.950 . S
C1314 C1313 1.398 . S
C1314 C1315 1.391 . S
C1315 H1303 0.950 . S
C1315 C1311 1.393 . S
C1315 C1314 1.391 . S
H1316 C1324 0.950 . S
H1317 C1329 0.950 . S
H1318 C1326 0.950 . S
H1319 C1328 0.950 . S
H1320 C1330 0.950 . S
H1321 C1332 0.950 . S
H1322 C1334 0.950 . S
H1323 C1335 0.950 . S
C1324 H1316 0.950 . S
C1324 C1325 1.386 1_455 S
C1324 C1326 1.391 . S
C1325 C1324 1.386 1_655 S
C1325 C1329 1.393 . S
C1326 H1318 0.950 . S
C1326 C1324 1.391 . S
C1326 C1327 1.400 1_455 S
C1327 C1326 1.400 1_655 S
C1327 C1328 1.398 . S
C1327 C1333 1.491 . S
C1328 H1319 0.950 . S
C1328 C1327 1.398 . S
C1328 C1329 1.391 . S
C1329 H1317 0.950 . S
C1329 C1325 1.393 . S
C1329 C1328 1.391 . S
C1330 H1320 0.950 . S
C1330 C1331 1.386 . S
C1330 C1332 1.391 . S
C1331 C1330 1.386 . S
C1331 C1335 1.393 1_655 S
C1332 H1321 0.950 . S
C1332 C1330 1.391 . S
C1332 C1333 1.400 . S
C1333 C1327 1.491 . S
C1333 C1332 1.400 . S
C1333 C1334 1.398 1_655 S
C1334 H1322 0.950 . S
C1334 C1333 1.398 1_455 S
C1334 C1335 1.391 . S
C1335 H1323 0.950 . S
C1335 C1331 1.393 1_455 S
C1335 C1334 1.391 . S
H1336 C1344 0.950 . S
H1337 C1349 0.950 . S
H1338 C1346 0.950 . S
H1339 C1348 0.950 . S
H1340 C1350 0.950 . S
H1341 C1352 0.950 . S
H1342 C1354 0.950 . S
H1343 C1355 0.950 . S
C1344 H1336 0.950 . S
C1344 C1345 1.386 . S
C1344 C1346 1.391 . S
C1345 C1344 1.386 . S
C1345 C1349 1.393 . S
C1346 H1338 0.950 . S
C1346 C1344 1.391 . S
C1346 C1347 1.400 . S
C1347 C1346 1.400 . S
C1347 C1348 1.398 . S
C1347 C1353 1.491 . S
C1348 H1339 0.950 . S
C1348 C1347 1.398 . S
C1348 C1349 1.391 . S
C1349 H1337 0.950 . S
C1349 C1345 1.393 . S
C1349 C1348 1.391 . S
C1350 H1340 0.950 . S
C1350 C1351 1.386 . S
C1350 C1352 1.391 . S
C1351 C1350 1.386 . S
C1351 C1355 1.393 . S
C1352 H1341 0.950 . S
C1352 C1350 1.391 . S
C1352 C1353 1.400 . S
C1353 C1347 1.491 . S
C1353 C1352 1.400 . S
C1353 C1354 1.398 . S
C1354 H1342 0.950 . S
C1354 C1353 1.398 . S
C1354 C1355 1.391 . S
C1355 H1343 0.950 . S
C1355 C1351 1.393 . S
C1355 C1354 1.391 . S
H1356 C1364 0.950 . S
H1357 C1369 0.950 . S
H1358 C1366 0.950 . S
H1359 C1368 0.950 . S
H1360 C1370 0.950 . S
H1361 C1372 0.950 . S
H1362 C1374 0.950 . S
H1363 C1375 0.950 . S
C1364 H1356 0.950 . S
C1364 C1365 1.386 . S
C1364 C1366 1.391 . S
C1365 C1364 1.386 . S
C1365 C1369 1.393 . S
C1366 H1358 0.950 . S
C1366 C1364 1.391 . S
C1366 C1367 1.400 . S
C1367 C1366 1.400 . S
C1367 C1368 1.398 . S
C1367 C1373 1.491 . S
C1368 H1359 0.950 . S
C1368 C1367 1.398 . S
C1368 C1369 1.391 . S
C1369 H1357 0.950 . S
C1369 C1365 1.393 . S
C1369 C1368 1.391 . S
C1370 H1360 0.950 . S
C1370 C1371 1.386 . S
C1370 C1372 1.391 . S
C1371 C1370 1.386 . S
C1371 C1375 1.393 . S
C1372 H1361 0.950 . S
C1372 C1370 1.391 . S
C1372 C1373 1.400 . S
C1373 C1367 1.491 . S
C1373 C1372 1.400 . S
C1373 C1374 1.398 . S
C1374 H1362 0.950 . S
C1374 C1373 1.398 . S
C1374 C1375 1.391 . S
C1375 H1363 0.950 . S
C1375 C1371 1.393 . S
C1375 C1374 1.391 . S
H1376 C1384 0.950 . S
H1377 C1389 0.950 . S
H1378 C1386 0.950 . S
H1379 C1388 0.950 . S
H1380 C1390 0.950 . S
H1381 C1392 0.950 . S
H1382 C1394 0.950 . S
H1383 C1395 0.950 . S
C1384 H1376 0.950 . S
C1384 C1385 1.386 . S
C1384 C1386 1.391 . S
C1385 C1384 1.386 . S
C1385 C1389 1.393 . S
C1386 H1378 0.950 . S
C1386 C1384 1.391 . S
C1386 C1387 1.400 . S
C1387 C1386 1.400 . S
C1387 C1388 1.398 . S
C1387 C1393 1.491 . S
C1388 H1379 0.950 . S
C1388 C1387 1.398 . S
C1388 C1389 1.391 . S
C1389 H1377 0.950 . S
C1389 C1385 1.393 . S
C1389 C1388 1.391 . S
C1390 H1380 0.950 . S
C1390 C1391 1.386 . S
C1390 C1392 1.391 . S
C1391 C1390 1.386 . S
C1391 C1395 1.393 . S
C1392 H1381 0.950 . S
C1392 C1390 1.391 . S
C1392 C1393 1.400 . S
C1393 C1387 1.491 . S
C1393 C1392 1.400 . S
C1393 C1394 1.398 . S
C1394 H1382 0.950 . S
C1394 C1393 1.398 . S
C1394 C1395 1.391 . S
C1395 H1383 0.950 . S
C1395 C1391 1.393 . S
C1395 C1394 1.391 . S
H1396 C1404 0.950 . S
H1397 C1409 0.950 . S
H1398 C1406 0.950 . S
H1399 C1408 0.950 . S
H1400 C1410 0.950 . S
H1401 C1412 0.950 . S
H1402 C1414 0.950 . S
H1403 C1415 0.950 . S
C1404 H1396 0.950 . S
C1404 C1405 1.386 . S
C1404 C1406 1.391 . S
C1405 C1404 1.386 . S
C1405 C1409 1.393 . S
C1406 H1398 0.950 . S
C1406 C1404 1.391 . S
C1406 C1407 1.400 . S
C1407 C1406 1.400 . S
C1407 C1408 1.398 . S
C1407 C1413 1.491 . S
C1408 H1399 0.950 . S
C1408 C1407 1.398 . S
C1408 C1409 1.391 . S
C1409 H1397 0.950 . S
C1409 C1405 1.393 . S
C1409 C1408 1.391 . S
C1410 H1400 0.950 . S
C1410 C1411 1.386 . S
C1410 C1412 1.391 . S
C1411 C1410 1.386 . S
C1411 C1415 1.393 . S
C1412 H1401 0.950 . S
C1412 C1410 1.391 . S
C1412 C1413 1.400 . S
C1413 C1407 1.491 . S
C1413 C1412 1.400 . S
C1413 C1414 1.398 . S
C1414 H1402 0.950 . S
C1414 C1413 1.398 . S
C1414 C1415 1.391 . S
C1415 H1403 0.950 . S
C1415 C1411 1.393 . S
C1415 C1414 1.391 . S
H1416 C1424 0.950 . S
H1417 C1429 0.950 . S
H1418 C1426 0.950 . S
H1419 C1428 0.950 . S
H1420 C1430 0.950 . S
H1421 C1432 0.950 . S
H1422 C1434 0.950 . S
H1423 C1435 0.950 . S
C1424 H1416 0.950 . S
C1424 C1425 1.386 . S
C1424 C1426 1.391 . S
C1425 C1424 1.386 . S
C1425 C1429 1.393 . S
C1426 H1418 0.950 . S
C1426 C1424 1.391 . S
C1426 C1427 1.400 . S
C1427 C1426 1.400 . S
C1427 C1428 1.398 . S
C1427 C1433 1.491 . S
C1428 H1419 0.950 . S
C1428 C1427 1.398 . S
C1428 C1429 1.391 . S
C1429 H1417 0.950 . S
C1429 C1425 1.393 . S
C1429 C1428 1.391 . S
C1430 H1420 0.950 . S
C1430 C1431 1.386 . S
C1430 C1432 1.391 . S
C1431 C1430 1.386 . S
C1431 C1435 1.393 . S
C1432 H1421 0.950 . S
C1432 C1430 1.391 . S
C1432 C1433 1.400 . S
C1433 C1427 1.491 . S
C1433 C1432 1.400 . S
C1433 C1434 1.398 . S
C1434 H1422 0.950 . S
C1434 C1433 1.398 . S
C1434 C1435 1.391 . S
C1435 H1423 0.950 . S
C1435 C1431 1.393 . S
C1435 C1434 1.391 . S
H1436 C1444 0.950 . S
H1437 C1449 0.950 . S
H1438 C1446 0.950 . S
H1439 C1448 0.950 . S
H1440 C1450 0.950 . S
H1441 C1452 0.950 . S
H1442 C1454 0.950 . S
H1443 C1455 0.950 . S
C1444 H1436 0.950 . S
C1444 C1445 1.386 . S
C1444 C1446 1.391 . S
C1445 C1444 1.386 . S
C1445 C1449 1.393 . S
C1446 H1438 0.950 . S
C1446 C1444 1.391 . S
C1446 C1447 1.400 . S
C1447 C1446 1.400 . S
C1447 C1448 1.398 . S
C1447 C1453 1.491 . S
C1448 H1439 0.950 . S
C1448 C1447 1.398 . S
C1448 C1449 1.391 . S
C1449 H1437 0.950 . S
C1449 C1445 1.393 . S
C1449 C1448 1.391 . S
C1450 H1440 0.950 . S
C1450 C1451 1.386 . S
C1450 C1452 1.391 . S
C1451 C1450 1.386 . S
C1451 C1455 1.393 . S
C1452 H1441 0.950 . S
C1452 C1450 1.391 . S
C1452 C1453 1.400 . S
C1453 C1447 1.491 . S
C1453 C1452 1.400 . S
C1453 C1454 1.398 . S
C1454 H1442 0.950 . S
C1454 C1453 1.398 . S
C1454 C1455 1.391 . S
C1455 H1443 0.950 . S
C1455 C1451 1.393 . S
C1455 C1454 1.391 . S
H1456 C1464 0.950 . S
H1457 C1469 0.950 . S
H1458 C1466 0.950 . S
H1459 C1468 0.950 . S
H1460 C1470 0.950 . S
H1461 C1472 0.950 . S
H1462 C1474 0.950 . S
H1463 C1475 0.950 . S
C1464 H1456 0.950 . S
C1464 C1465 1.386 . S
C1464 C1466 1.391 . S
C1465 C1464 1.386 . S
C1465 C1469 1.393 . S
C1466 H1458 0.950 . S
C1466 C1464 1.391 . S
C1466 C1467 1.400 . S
C1467 C1466 1.400 . S
C1467 C1468 1.398 . S
C1467 C1473 1.491 . S
C1468 H1459 0.950 . S
C1468 C1467 1.398 . S
C1468 C1469 1.391 . S
C1469 H1457 0.950 . S
C1469 C1465 1.393 . S
C1469 C1468 1.391 . S
C1470 H1460 0.950 . S
C1470 C1471 1.386 . S
C1470 C1472 1.391 . S
C1471 C1470 1.386 . S
C1471 C1475 1.393 . S
C1472 H1461 0.950 . S
C1472 C1470 1.391 . S
C1472 C1473 1.400 . S
C1473 C1467 1.491 . S
C1473 C1472 1.400 . S
C1473 C1474 1.398 . S
C1474 H1462 0.950 . S
C1474 C1473 1.398 . S
C1474 C1475 1.391 . S
C1475 H1463 0.950 . S
C1475 C1471 1.393 . S
C1475 C1474 1.391 . S
H1476 C1484 0.950 . S
H1477 C1489 0.950 . S
H1478 C1486 0.950 . S
H1479 C1488 0.950 . S
H1480 C1490 0.950 . S
H1481 C1492 0.950 . S
H1482 C1494 0.950 . S
H1483 C1495 0.950 . S
C1484 H1476 0.950 . S
C1484 C1485 1.386 . S
C1484 C1486 1.391 . S
C1485 C1484 1.386 . S
C1485 C1489 1.393 . S
C1486 H1478 0.950 . S
C1486 C1484 1.391 . S
C1486 C1487 1.400 . S
C1487 C1486 1.400 . S
C1487 C1488 1.398 . S
C1487 C1493 1.491 . S
C1488 H1479 0.950 . S
C1488 C1487 1.398 . S
C1488 C1489 1.391 . S
C1489 H1477 0.950 . S
C1489 C1485 1.393 . S
C1489 C1488 1.391 . S
C1490 H1480 0.950 . S
C1490 C1491 1.386 . S
C1490 C1492 1.391 . S
C1491 C1490 1.386 . S
C1491 C1495 1.393 . S
C1492 H1481 0.950 . S
C1492 C1490 1.391 . S
C1492 C1493 1.400 . S
C1493 C1487 1.491 . S
C1493 C1492 1.400 . S
C1493 C1494 1.398 . S
C1494 H1482 0.950 . S
C1494 C1493 1.398 . S
C1494 C1495 1.391 . S
C1495 H1483 0.950 . S
C1495 C1491 1.393 . S
C1495 C1494 1.391 . S
H1496 C1504 0.950 . S
H1497 C1509 0.950 . S
H1498 C1506 0.950 . S
H1499 C1508 0.950 . S
H1500 C1510 0.950 . S
H1501 C1512 0.950 . S
H1502 C1514 0.950 . S
H1503 C1515 0.950 . S
C1504 H1496 0.950 . S
C1504 C1505 1.386 . S
C1504 C1506 1.391 . S
C1505 C1504 1.386 . S
C1505 C1509 1.393 . S
C1506 H1498 0.950 . S
C1506 C1504 1.391 . S
C1506 C1507 1.400 . S
C1507 C1506 1.400 . S
C1507 C1508 1.398 . S
C1507 C1513 1.491 . S
C1508 H1499 0.950 . S
C1508 C1507 1.398 . S
C1508 C1509 1.391 . S
C1509 H1497 0.950 . S
C1509 C1505 1.393 . S
C1509 C1508 1.391 . S
C1510 H1500 0.950 . S
C1510 C1511 1.386 . S
C1510 C1512 1.391 . S
C1511 C1510 1.386 . S
C1511 C1515 1.393 . S
C1512 H1501 0.950 . S
C1512 C1510 1.391 . S
C1512 C1513 1.400 . S
C1513 C1507 1.491 . S
C1513 C1512 1.400 . S
C1513 C1514 1.398 . S
C1514 H1502 0.950 . S
C1514 C1513 1.398 . S
C1514 C1515 1.391 . S
C1515 H1503 0.950 . S
C1515 C1511 1.393 . S
C1515 C1514 1.391 . S
H1516 C1524 0.950 . S
H1517 C1529 0.950 . S
H1518 C1526 0.950 . S
H1519 C1528 0.950 . S
H1520 C1530 0.950 . S
H1521 C1532 0.950 . S
H1522 C1534 0.950 . S
H1523 C1535 0.950 . S
C1524 H1516 0.950 . S
C1524 C1525 1.386 . S
C1524 C1526 1.391 . S
C1525 C1524 1.386 . S
C1525 C1529 1.393 . S
C1526 H1518 0.950 . S
C1526 C1524 1.391 . S
C1526 C1527 1.400 . S
C1527 C1526 1.400 . S
C1527 C1528 1.398 . S
C1527 C1533 1.491 . S
C1528 H1519 0.950 . S
C1528 C1527 1.398 . S
C1528 C1529 1.391 . S
C1529 H1517 0.950 . S
C1529 C1525 1.393 . S
C1529 C1528 1.391 . S
C1530 H1520 0.950 . S
C1530 C1531 1.386 . S
C1530 C1532 1.391 . S
C1531 C1530 1.386 . S
C1531 C1535 1.393 . S
C1532 H1521 0.950 . S
C1532 C1530 1.391 . S
C1532 C1533 1.400 . S
C1533 C1527 1.491 . S
C1533 C1532 1.400 . S
C1533 C1534 1.398 . S
C1534 H1522 0.950 . S
C1534 C1533 1.398 . S
C1534 C1535 1.391 . S
C1535 H1523 0.950 . S
C1535 C1531 1.393 . S
C1535 C1534 1.391 . S
H1536 C1544 0.950 . S
H1537 C1549 0.950 . S
H1538 C1546 0.950 . S
H1539 C1548 0.950 . S
H1540 C1550 0.950 . S
H1541 C1552 0.950 . S
H1542 C1554 0.950 . S
H1543 C1555 0.950 . S
C1544 H1536 0.950 . S
C1544 C1545 1.386 . S
C1544 C1546 1.391 . S
C1545 C1544 1.386 . S
C1545 C1549 1.393 . S
C1546 H1538 0.950 . S
C1546 C1544 1.391 . S
C1546 C1547 1.400 . S
C1547 C1546 1.400 . S
C1547 C1548 1.398 . S
C1547 C1553 1.491 . S
C1548 H1539 0.950 . S
C1548 C1547 1.398 . S
C1548 C1549 1.391 . S
C1549 H1537 0.950 . S
C1549 C1545 1.393 . S
C1549 C1548 1.391 . S
C1550 H1540 0.950 . S
C1550 C1551 1.386 . S
C1550 C1552 1.391 . S
C1551 C1550 1.386 . S
C1551 C1555 1.393 . S
C1552 H1541 0.950 . S
C1552 C1550 1.391 . S
C1552 C1553 1.400 . S
C1553 C1547 1.491 . S
C1553 C1552 1.400 . S
C1553 C1554 1.398 . S
C1554 H1542 0.950 . S
C1554 C1553 1.398 . S
C1554 C1555 1.391 . S
C1555 H1543 0.950 . S
C1555 C1551 1.393 . S
C1555 C1554 1.391 . S
H1556 C1564 0.950 . S
H1557 C1569 0.950 . S
H1558 C1566 0.950 . S
H1559 C1568 0.950 . S
H1560 C1570 0.950 . S
H1561 C1572 0.950 . S
H1562 C1574 0.950 . S
H1563 C1575 0.950 . S
C1564 H1556 0.950 . S
C1564 C1565 1.386 . S
C1564 C1566 1.391 . S
C1565 C1564 1.386 . S
C1565 C1569 1.393 . S
C1566 H1558 0.950 . S
C1566 C1564 1.391 . S
C1566 C1567 1.400 . S
C1567 C1566 1.400 . S
C1567 C1568 1.398 . S
C1567 C1573 1.491 . S
C1568 H1559 0.950 . S
C1568 C1567 1.398 . S
C1568 C1569 1.391 . S
C1569 H1557 0.950 . S
C1569 C1565 1.393 . S
C1569 C1568 1.391 . S
C1570 H1560 0.950 . S
C1570 C1571 1.386 . S
C1570 C1572 1.391 . S
C1571 C1570 1.386 . S
C1571 C1575 1.393 . S
C1572 H1561 0.950 . S
C1572 C1570 1.391 . S
C1572 C1573 1.400 . S
C1573 C1567 1.491 . S
C1573 C1572 1.400 . S
C1573 C1574 1.398 . S
C1574 H1562 0.950 . S
C1574 C1573 1.398 . S
C1574 C1575 1.391 . S
C1575 H1563 0.950 . S
C1575 C1571 1.393 . S
C1575 C1574 1.391 . S
H1576 C1584 0.950 . S
H1577 C1589 0.950 . S
H1578 C1586 0.950 . S
H1579 C1588 0.950 . S
H1580 C1590 0.950 . S
H1581 C1592 0.950 . S
H1582 C1594 0.950 . S
H1583 C1595 0.950 . S
C1584 H1576 0.950 . S
C1584 C1585 1.386 . S
C1584 C1586 1.391 . S
C1585 C1584 1.386 . S
C1585 C1589 1.393 . S
C1586 H1578 0.950 . S
C1586 C1584 1.391 . S
C1586 C1587 1.400 . S
C1587 C1586 1.400 . S
C1587 C1588 1.398 . S
C1587 C1593 1.491 . S
C1588 H1579 0.950 . S
C1588 C1587 1.398 . S
C1588 C1589 1.391 . S
C1589 H1577 0.950 . S
C1589 C1585 1.393 . S
C1589 C1588 1.391 . S
C1590 H1580 0.950 . S
C1590 C1591 1.386 . S
C1590 C1592 1.391 . S
C1591 C1590 1.386 . S
C1591 C1595 1.393 . S
C1592 H1581 0.950 . S
C1592 C1590 1.391 . S
C1592 C1593 1.400 . S
C1593 C1587 1.491 . S
C1593 C1592 1.400 . S
C1593 C1594 1.398 . S
C1594 H1582 0.950 . S
C1594 C1593 1.398 . S
C1594 C1595 1.391 . S
C1595 H1583 0.950 . S
C1595 C1591 1.393 . S
C1595 C1594 1.391 . S
H1596 C1604 0.950 . S
H1597 C1609 0.950 . S
H1598 C1606 0.950 . S
H1599 C1608 0.950 . S
H1600 C1610 0.950 . S
H1601 C1612 0.950 . S
H1602 C1614 0.950 . S
H1603 C1615 0.950 . S
C1604 H1596 0.950 . S
C1604 C1605 1.386 . S
C1604 C1606 1.391 . S
C1605 C1604 1.386 . S
C1605 C1609 1.393 . S
C1606 H1598 0.950 . S
C1606 C1604 1.391 . S
C1606 C1607 1.400 . S
C1607 C1606 1.400 . S
C1607 C1608 1.398 . S
C1607 C1613 1.491 . S
C1608 H1599 0.950 . S
C1608 C1607 1.398 . S
C1608 C1609 1.391 . S
C1609 H1597 0.950 . S
C1609 C1605 1.393 . S
C1609 C1608 1.391 . S
C1610 H1600 0.950 . S
C1610 C1611 1.386 . S
C1610 C1612 1.391 . S
C1611 C1610 1.386 . S
C1611 C1615 1.393 . S
C1612 H1601 0.950 . S
C1612 C1610 1.391 . S
C1612 C1613 1.400 . S
C1613 C1607 1.491 . S
C1613 C1612 1.400 . S
C1613 C1614 1.398 . S
C1614 H1602 0.950 . S
C1614 C1613 1.398 . S
C1614 C1615 1.391 . S
C1615 H1603 0.950 . S
C1615 C1611 1.393 . S
C1615 C1614 1.391 . S
H1616 C1624 0.950 . S
H1617 C1629 0.950 . S
H1618 C1626 0.950 . S
H1619 C1628 0.950 . S
H1620 C1630 0.950 . S
H1621 C1632 0.950 . S
H1622 C1634 0.950 . S
H1623 C1635 0.950 . S
C1624 H1616 0.950 . S
C1624 C1625 1.386 . S
C1624 C1626 1.391 . S
C1625 C1624 1.386 . S
C1625 C1629 1.393 . S
C1626 H1618 0.950 . S
C1626 C1624 1.391 . S
C1626 C1627 1.400 . S
C1627 C1626 1.400 . S
C1627 C1628 1.398 . S
C1627 C1633 1.491 . S
C1628 H1619 0.950 . S
C1628 C1627 1.398 . S
C1628 C1629 1.391 . S
C1629 H1617 0.950 . S
C1629 C1625 1.393 . S
C1629 C1628 1.391 . S
C1630 H1620 0.950 . S
C1630 C1631 1.386 . S
C1630 C1632 1.391 . S
C1631 C1630 1.386 . S
C1631 C1635 1.393 . S
C1632 H1621 0.950 . S
C1632 C1630 1.391 . S
C1632 C1633 1.400 . S
C1633 C1627 1.491 . S
C1633 C1632 1.400 . S
C1633 C1634 1.398 . S
C1634 H1622 0.950 . S
C1634 C1633 1.398 . S
C1634 C1635 1.391 . S
C1635 H1623 0.950 . S
C1635 C1631 1.393 . S
C1635 C1634 1.391 . S
H1636 C1644 0.950 . S
H1637 C1649 0.950 . S
H1638 C1646 0.950 . S
H1639 C1648 0.950 . S
H1640 C1650 0.950 . S
H1641 C1652 0.950 . S
H1642 C1654 0.950 . S
H1643 C1655 0.950 . S
C1644 H1636 0.950 . S
C1644 C1645 1.386 . S
C1644 C1646 1.391 . S
C1645 C1644 1.386 . S
C1645 C1649 1.393 . S
C1646 H1638 0.950 . S
C1646 C1644 1.391 . S
C1646 C1647 1.400 . S
C1647 C1646 1.400 . S
C1647 C1648 1.398 . S
C1647 C1653 1.491 . S
C1648 H1639 0.950 . S
C1648 C1647 1.398 . S
C1648 C1649 1.391 . S
C1649 H1637 0.950 . S
C1649 C1645 1.393 . S
C1649 C1648 1.391 . S
C1650 H1640 0.950 . S
C1650 C1651 1.386 . S
C1650 C1652 1.391 . S
C1651 C1650 1.386 . S
C1651 C1655 1.393 . S
C1652 H1641 0.950 . S
C1652 C1650 1.391 . S
C1652 C1653 1.400 . S
C1653 C1647 1.491 . S
C1653 C1652 1.400 . S
C1653 C1654 1.398 . S
C1654 H1642 0.950 . S
C1654 C1653 1.398 . S
C1654 C1655 1.391 . S
C1655 H1643 0.950 . S
C1655 C1651 1.393 . S
C1655 C1654 1.391 . S
H1656 C1664 0.950 . S
H1657 C1669 0.950 . S
H1658 C1666 0.950 . S
H1659 C1668 0.950 . S
H1660 C1670 0.950 . S
H1661 C1672 0.950 . S
H1662 C1674 0.950 . S
H1663 C1675 0.950 . S
C1664 H1656 0.950 . S
C1664 C1665 1.386 . S
C1664 C1666 1.391 . S
C1665 C1664 1.386 . S
C1665 C1669 1.393 . S
C1666 H1658 0.950 . S
C1666 C1664 1.391 . S
C1666 C1667 1.400 . S
C1667 C1666 1.400 . S
C1667 C1668 1.398 . S
C1667 C1673 1.491 . S
C1668 H1659 0.950 . S
C1668 C1667 1.398 . S
C1668 C1669 1.391 . S
C1669 H1657 0.950 . S
C1669 C1665 1.393 . S
C1669 C1668 1.391 . S
C1670 H1660 0.950 . S
C1670 C1671 1.386 . S
C1670 C1672 1.391 . S
C1671 C1670 1.386 . S
C1671 C1675 1.393 . S
C1672 H1661 0.950 . S
C1672 C1670 1.391 . S
C1672 C1673 1.400 . S
C1673 C1667 1.491 . S
C1673 C1672 1.400 . S
C1673 C1674 1.398 . S
C1674 H1662 0.950 . S
C1674 C1673 1.398 . S
C1674 C1675 1.391 . S
C1675 H1663 0.950 . S
C1675 C1671 1.393 . S
C1675 C1674 1.391 . S
H1676 C1684 0.950 . S
H1677 C1689 0.950 . S
H1678 C1686 0.950 . S
H1679 C1688 0.950 . S
H1680 C1690 0.950 . S
H1681 C1692 0.950 . S
H1682 C1694 0.950 . S
H1683 C1695 0.950 . S
C1684 H1676 0.950 . S
C1684 C1685 1.386 . S
C1684 C1686 1.391 . S
C1685 C1684 1.386 . S
C1685 C1689 1.393 . S
C1686 H1678 0.950 . S
C1686 C1684 1.391 . S
C1686 C1687 1.400 . S
C1687 C1686 1.400 . S
C1687 C1688 1.398 . S
C1687 C1693 1.491 . S
C1688 H1679 0.950 . S
C1688 C1687 1.398 . S
C1688 C1689 1.391 . S
C1689 H1677 0.950 . S
C1689 C1685 1.393 . S
C1689 C1688 1.391 . S
C1690 H1680 0.950 . S
C1690 C1691 1.386 . S
C1690 C1692 1.391 . S
C1691 C1690 1.386 . S
C1691 C1695 1.393 . S
C1692 H1681 0.950 . S
C1692 C1690 1.391 . S
C1692 C1693 1.400 . S
C1693 C1687 1.491 . S
C1693 C1692 1.400 . S
C1693 C1694 1.398 . S
C1694 H1682 0.950 . S
C1694 C1693 1.398 . S
C1694 C1695 1.391 . S
C1695 H1683 0.950 . S
C1695 C1691 1.393 . S
C1695 C1694 1.391 . S
H1696 C1704 0.950 . S
H1697 C1709 0.950 . S
H1698 C1706 0.950 . S
H1699 C1708 0.950 . S
H1700 C1710 0.950 . S
H1701 C1712 0.950 . S
H1702 C1714 0.950 . S
H1703 C1715 0.950 . S
C1704 H1696 0.950 . S
C1704 C1705 1.386 . S
C1704 C1706 1.391 . S
C1705 C1704 1.386 . S
C1705 C1709 1.393 . S
C1706 H1698 0.950 . S
C1706 C1704 1.391 . S
C1706 C1707 1.400 . S
C1707 C1706 1.400 . S
C1707 C1708 1.398 . S
C1707 C1713 1.491 . S
C1708 H1699 0.950 . S
C1708 C1707 1.398 . S
C1708 C1709 1.391 . S
C1709 H1697 0.950 . S
C1709 C1705 1.393 . S
C1709 C1708 1.391 . S
C1710 H1700 0.950 . S
C1710 C1711 1.386 . S
C1710 C1712 1.391 . S
C1711 C1710 1.386 . S
C1711 C1715 1.393 . S
C1712 H1701 0.950 . S
C1712 C1710 1.391 . S
C1712 C1713 1.400 . S
C1713 C1707 1.491 . S
C1713 C1712 1.400 . S
C1713 C1714 1.398 . S
C1714 H1702 0.950 . S
C1714 C1713 1.398 . S
C1714 C1715 1.391 . S
C1715 H1703 0.950 . S
C1715 C1711 1.393 . S
C1715 C1714 1.391 . S
H1716 C1724 0.950 . S
H1717 C1729 0.950 . S
H1718 C1726 0.950 . S
H1719 C1728 0.950 . S
H1720 C1730 0.950 . S
H1721 C1732 0.950 . S
H1722 C1734 0.950 . S
H1723 C1735 0.950 . S
C1724 H1716 0.950 . S
C1724 C1725 1.386 . S
C1724 C1726 1.391 . S
C1725 C1724 1.386 . S
C1725 C1729 1.393 . S
C1726 H1718 0.950 . S
C1726 C1724 1.391 . S
C1726 C1727 1.400 . S
C1727 C1726 1.400 . S
C1727 C1728 1.398 . S
C1727 C1733 1.491 . S
C1728 H1719 0.950 . S
C1728 C1727 1.398 . S
C1728 C1729 1.391 . S
C1729 H1717 0.950 . S
C1729 C1725 1.393 . S
C1729 C1728 1.391 . S
C1730 H1720 0.950 . S
C1730 C1731 1.386 . S
C1730 C1732 1.391 . S
C1731 C1730 1.386 . S
C1731 C1735 1.393 . S
C1732 H1721 0.950 . S
C1732 C1730 1.391 . S
C1732 C1733 1.400 . S
C1733 C1727 1.491 . S
C1733 C1732 1.400 . S
C1733 C1734 1.398 . S
C1734 H1722 0.950 . S
C1734 C1733 1.398 . S
C1734 C1735 1.391 . S
C1735 H1723 0.950 . S
C1735 C1731 1.393 . S
C1735 C1734 1.391 . S
H1736 C1744 0.950 . S
H1737 C1749 0.950 . S
H1738 C1746 0.950 . S
H1739 C1748 0.950 . S
H1740 C1750 0.950 . S
H1741 C1752 0.950 . S
H1742 C1754 0.950 . S
H1743 C1755 0.950 . S
C1744 H1736 0.950 . S
C1744 C1745 1.386 . S
C1744 C1746 1.391 . S
C1745 C1744 1.386 . S
C1745 C1749 1.393 . S
C1746 H1738 0.950 . S
C1746 C1744 1.391 . S
C1746 C1747 1.400 . S
C1747 C1746 1.400 . S
C1747 C1748 1.398 . S
C1747 C1753 1.491 . S
C1748 H1739 0.950 . S
C1748 C1747 1.398 . S
C1748 C1749 1.391 . S
C1749 H1737 0.950 . S
C1749 C1745 1.393 . S
C1749 C1748 1.391 . S
C1750 H1740 0.950 . S
C1750 C1751 1.386 . S
C1750 C1752 1.391 . S
C1751 C1750 1.386 . S
C1751 C1755 1.393 . S
C1752 H1741 0.950 . S
C1752 C1750 1.391 . S
C1752 C1753 1.400 . S
C1753 C1747 1.491 . S
C1753 C1752 1.400 . S
C1753 C1754 1.398 . S
C1754 H1742 0.950 . S
C1754 C1753 1.398 . S
C1754 C1755 1.391 . S
C1755 H1743 0.950 . S
C1755 C1751 1.393 . S
C1755 C1754 1.391 . S
H1756 C1764 0.950 . S
H1757 C1769 0.950 . S
H1758 C1766 0.950 . S
H1759 C1768 0.950 . S
H1760 C1770 0.950 . S
H1761 C1772 0.950 . S
H1762 C1774 0.950 . S
H1763 C1775 0.950 . S
C1764 H1756 0.950 . S
C1764 C1765 1.386 . S
C1764 C1766 1.391 . S
C1765 C1764 1.386 . S
C1765 C1769 1.393 . S
C1766 H1758 0.950 . S
C1766 C1764 1.391 . S
C1766 C1767 1.400 . S
C1767 C1766 1.400 . S
C1767 C1768 1.398 . S
C1767 C1773 1.491 . S
C1768 H1759 0.950 . S
C1768 C1767 1.398 . S
C1768 C1769 1.391 . S
C1769 H1757 0.950 . S
C1769 C1765 1.393 . S
C1769 C1768 1.391 . S
C1770 H1760 0.950 . S
C1770 C1771 1.386 . S
C1770 C1772 1.391 . S
C1771 C1770 1.386 . S
C1771 C1775 1.393 . S
C1772 H1761 0.950 . S
C1772 C1770 1.391 . S
C1772 C1773 1.400 . S
C1773 C1767 1.491 . S
C1773 C1772 1.400 . S
C1773 C1774 1.398 . S
C1774 H1762 0.950 . S
C1774 C1773 1.398 . S
C1774 C1775 1.391 . S
C1775 H1763 0.950 . S
C1775 C1771 1.393 . S
C1775 C1774 1.391 . S
H1776 C1784 0.950 . S
H1777 C1789 0.950 . S
H1778 C1786 0.950 . S
H1779 C1788 0.950 . S
H1780 C1790 0.950 . S
H1781 C1792 0.950 . S
H1782 C1794 0.950 . S
H1783 C1795 0.950 . S
C1784 H1776 0.950 . S
C1784 C1785 1.386 . S
C1784 C1786 1.391 . S
C1785 C1784 1.386 . S
C1785 C1789 1.393 . S
C1786 H1778 0.950 . S
C1786 C1784 1.391 . S
C1786 C1787 1.400 . S
C1787 C1786 1.400 . S
C1787 C1788 1.398 . S
C1787 C1793 1.491 . S
C1788 H1779 0.950 . S
C1788 C1787 1.398 . S
C1788 C1789 1.391 . S
C1789 H1777 0.950 . S
C1789 C1785 1.393 . S
C1789 C1788 1.391 . S
C1790 H1780 0.950 . S
C1790 C1791 1.386 . S
C1790 C1792 1.391 . S
C1791 C1790 1.386 . S
C1791 C1795 1.393 . S
C1792 H1781 0.950 . S
C1792 C1790 1.391 . S
C1792 C1793 1.400 . S
C1793 C1787 1.491 . S
C1793 C1792 1.400 . S
C1793 C1794 1.398 . S
C1794 H1782 0.950 . S
C1794 C1793 1.398 . S
C1794 C1795 1.391 . S
C1795 H1783 0.950 . S
C1795 C1791 1.393 . S
C1795 C1794 1.391 . S
H1796 C1804 0.950 . S
H1797 C1809 0.950 . S
H1798 C1806 0.950 . S
H1799 C1808 0.950 . S
H1800 C1810 0.950 . S
H1801 C1812 0.950 . S
H1802 C1814 0.950 . S
H1803 C1815 0.950 . S
C1804 H1796 0.950 . S
C1804 C1805 1.386 . S
C1804 C1806 1.391 . S
C1805 C1804 1.386 . S
C1805 C1809 1.393 . S
C1806 H1798 0.950 . S
C1806 C1804 1.391 . S
C1806 C1807 1.400 . S
C1807 C1806 1.400 . S
C1807 C1808 1.398 . S
C1807 C1813 1.491 . S
C1808 H1799 0.950 . S
C1808 C1807 1.398 . S
C1808 C1809 1.391 . S
C1809 H1797 0.950 . S
C1809 C1805 1.393 . S
C1809 C1808 1.391 . S
C1810 H1800 0.950 . S
C1810 C1811 1.386 . S
C1810 C1812 1.391 . S
C1811 C1810 1.386 . S
C1811 C1815 1.393 . S
C1812 H1801 0.950 . S
C1812 C1810 1.391 . S
C1812 C1813 1.400 . S
C1813 C1807 1.491 . S
C1813 C1812 1.400 . S
C1813 C1814 1.398 . S
C1814 H1802 0.950 . S
C1814 C1813 1.398 . S
C1814 C1815 1.391 . S
C1815 H1803 0.950 . S
C1815 C1811 1.393 . S
C1815 C1814 1.391 . S
H1816 C1824 0.950 . S
H1817 C1829 0.950 . S
H1818 C1826 0.950 . S
H1819 C1828 0.950 . S
H1820 C1830 0.950 . S
H1821 C1832 0.950 . S
H1822 C1834 0.950 . S
H1823 C1835 0.950 . S
C1824 H1816 0.950 . S
C1824 C1825 1.386 . S
C1824 C1826 1.391 . S
C1825 C1824 1.386 . S
C1825 C1829 1.393 . S
C1826 H1818 0.950 . S
C1826 C1824 1.391 . S
C1826 C1827 1.400 . S
C1827 C1826 1.400 . S
C1827 C1828 1.398 . S
C1827 C1833 1.491 . S
C1828 H1819 0.950 . S
C1828 C1827 1.398 . S
C1828 C1829 1.391 . S
C1829 H1817 0.950 . S
C1829 C1825 1.393 . S
C1829 C1828 1.391 . S
C1830 H1820 0.950 . S
C1830 C1831 1.386 . S
C1830 C1832 1.391 . S
C1831 C1830 1.386 . S
C1831 C1835 1.393 . S
C1832 H1821 0.950 . S
C1832 C1830 1.391 . S
C1832 C1833 1.400 . S
C1833 C1827 1.491 . S
C1833 C1832 1.400 . S
C1833 C1834 1.398 . S
C1834 H1822 0.950 . S
C1834 C1833 1.398 . S
C1834 C1835 1.391 . S
C1835 H1823 0.950 . S
C1835 C1831 1.393 . S
C1835 C1834 1.391 . S
H1836 C1844 0.950 . S
H1837 C1849 0.950 . S
H1838 C1846 0.950 . S
H1839 C1848 0.950 . S
H1840 C1850 0.950 . S
H1841 C1852 0.950 . S
H1842 C1854 0.950 . S
H1843 C1855 0.950 . S
C1844 H1836 0.950 . S
C1844 C1845 1.386 . S
C1844 C1846 1.391 . S
C1845 C1844 1.386 . S
C1845 C1849 1.393 . S
C1846 H1838 0.950 . S
C1846 C1844 1.391 . S
C1846 C1847 1.400 . S
C1847 C1846 1.400 . S
C1847 C1848 1.398 . S
C1847 C1853 1.491 . S
C1848 H1839 0.950 . S
C1848 C1847 1.398 . S
C1848 C1849 1.391 . S
C1849 H1837 0.950 . S
C1849 C1845 1.393 . S
C1849 C1848 1.391 . S
C1850 H1840 0.950 . S
C1850 C1851 1.386 . S
C1850 C1852 1.391 . S
C1851 C1850 1.386 . S
C1851 C1855 1.393 . S
C1852 H1841 0.950 . S
C1852 C1850 1.391 . S
C1852 C1853 1.400 . S
C1853 C1847 1.491 . S
C1853 C1852 1.400 . S
C1853 C1854 1.398 . S
C1854 H1842 0.950 . S
C1854 C1853 1.398 . S
C1854 C1855 1.391 . S
C1855 H1843 0.950 . S
C1855 C1851 1.393 . S
C1855 C1854 1.391 . S
H1856 C1864 0.950 . S
H1857 C1869 0.950 . S
H1858 C1866 0.950 . S
H1859 C1868 0.950 . S
H1860 C1870 0.950 . S
H1861 C1872 0.950 . S
H1862 C1874 0.950 . S
H1863 C1875 0.950 . S
C1864 H1856 0.950 . S
C1864 C1865 1.386 . S
C1864 C1866 1.391 . S
C1865 C1864 1.386 . S
C1865 C1869 1.393 . S
C1866 H1858 0.950 . S
C1866 C1864 1.391 . S
C1866 C1867 1.400 . S
C1867 C1866 1.400 . S
C1867 C1868 1.398 . S
C1867 C1873 1.491 . S
C1868 H1859 0.950 . S
C1868 C1867 1.398 . S
C1868 C1869 1.391 . S
C1869 H1857 0.950 . S
C1869 C1865 1.393 . S
C1869 C1868 1.391 . S
C1870 H1860 0.950 . S
C1870 C1871 1.386 . S
C1870 C1872 1.391 . S
C1871 C1870 1.386 . S
C1871 C1875 1.393 . S
C1872 H1861 0.950 . S
C1872 C1870 1.391 . S
C1872 C1873 1.400 . S
C1873 C1867 1.491 . S
C1873 C1872 1.400 . S
C1873 C1874 1.398 . S
C1874 H1862 0.950 . S
C1874 C1873 1.398 . S
C1874 C1875 1.391 . S
C1875 H1863 0.950 . S
C1875 C1871 1.393 . S
C1875 C1874 1.391 . S
H1876 C1884 0.950 . S
H1877 C1889 0.950 . S
H1878 C1886 0.950 . S
H1879 C1888 0.950 . S
H1880 C1890 0.950 . S
H1881 C1892 0.950 . S
H1882 C1894 0.950 . S
H1883 C1895 0.950 . S
C1884 H1876 0.950 . S
C1884 C1885 1.386 . S
C1884 C1886 1.391 . S
C1885 C1884 1.386 . S
C1885 C1889 1.393 . S
C1886 H1878 0.950 . S
C1886 C1884 1.391 . S
C1886 C1887 1.400 . S
C1887 C1886 1.400 . S
C1887 C1888 1.398 . S
C1887 C1893 1.491 . S
C1888 H1879 0.950 . S
C1888 C1887 1.398 . S
C1888 C1889 1.391 . S
C1889 H1877 0.950 . S
C1889 C1885 1.393 . S
C1889 C1888 1.391 . S
C1890 H1880 0.950 . S
C1890 C1891 1.386 . S
C1890 C1892 1.391 . S
C1891 C1890 1.386 . S
C1891 C1895 1.393 . S
C1892 H1881 0.950 . S
C1892 C1890 1.391 . S
C1892 C1893 1.400 . S
C1893 C1887 1.491 . S
C1893 C1892 1.400 . S
C1893 C1894 1.398 . S
C1894 H1882 0.950 . S
C1894 C1893 1.398 . S
C1894 C1895 1.391 . S
C1895 H1883 0.950 . S
C1895 C1891 1.393 . S
C1895 C1894 1.391 . S
H1896 C1904 0.950 . S
H1897 C1909 0.950 1_554 S
H1898 C1906 0.950 . S
H1899 C1908 0.950 . S
H1900 C1910 0.950 . S
H1901 C1912 0.950 . S
H1902 C1914 0.950 . S
H1903 C1915 0.950 . S
C1904 H1896 0.950 . S
C1904 C1905 1.386 . S
C1904 C1906 1.391 . S
C1905 C1904 1.386 . S
C1905 C1909 1.393 . S
C1906 H1898 0.950 . S
C1906 C1904 1.391 . S
C1906 C1907 1.400 . S
C1907 C1906 1.400 . S
C1907 C1908 1.398 . S
C1907 C1913 1.491 . S
C1908 H1899 0.950 . S
C1908 C1907 1.398 . S
C1908 C1909 1.391 . S
C1909 H1897 0.950 1_556 S
C1909 C1905 1.393 . S
C1909 C1908 1.391 . S
C1910 H1900 0.950 . S
C1910 C1911 1.386 . S
C1910 C1912 1.391 . S
C1911 C1910 1.386 . S
C1911 C1915 1.393 . S
C1912 H1901 0.950 . S
C1912 C1910 1.391 . S
C1912 C1913 1.400 . S
C1913 C1907 1.491 . S
C1913 C1912 1.400 . S
C1913 C1914 1.398 . S
C1914 H1902 0.950 . S
C1914 C1913 1.398 . S
C1914 C1915 1.391 . S
C1915 H1903 0.950 . S
C1915 C1911 1.393 . S
C1915 C1914 1.391 . S
H1916 C1924 0.950 . S
H1917 C1929 0.950 . S
H1918 C1926 0.950 . S
H1919 C1928 0.950 . S
H1920 C1930 0.950 . S
H1921 C1932 0.950 . S
H1922 C1934 0.950 . S
H1923 C1935 0.950 . S
C1924 H1916 0.950 . S
C1924 C1925 1.386 . S
C1924 C1926 1.391 . S
C1925 C1924 1.386 . S
C1925 C1929 1.393 . S
C1926 H1918 0.950 . S
C1926 C1924 1.391 . S
C1926 C1927 1.400 . S
C1927 C1926 1.400 . S
C1927 C1928 1.398 . S
C1927 C1933 1.491 . S
C1928 H1919 0.950 . S
C1928 C1927 1.398 . S
C1928 C1929 1.391 . S
C1929 H1917 0.950 . S
C1929 C1925 1.393 . S
C1929 C1928 1.391 . S
C1930 H1920 0.950 . S
C1930 C1931 1.386 . S
C1930 C1932 1.391 . S
C1931 C1930 1.386 . S
C1931 C1935 1.393 . S
C1932 H1921 0.950 . S
C1932 C1930 1.391 . S
C1932 C1933 1.400 . S
C1933 C1927 1.491 . S
C1933 C1932 1.400 . S
C1933 C1934 1.398 . S
C1934 H1922 0.950 . S
C1934 C1933 1.398 . S
C1934 C1935 1.391 . S
C1935 H1923 0.950 . S
C1935 C1931 1.393 . S
C1935 C1934 1.391 . S
H1936 C1944 0.950 1_554 S
H1937 C1949 0.950 . S
H1938 C1946 0.950 . S
H1939 C1948 0.950 . S
H1940 C1950 0.950 . S
H1941 C1952 0.950 . S
H1942 C1954 0.950 . S
H1943 C1955 0.950 . S
C1944 H1936 0.950 1_556 S
C1944 C1945 1.386 . S
C1944 C1946 1.391 . S
C1945 C1944 1.386 . S
C1945 C1949 1.393 . S
C1946 H1938 0.950 . S
C1946 C1944 1.391 . S
C1946 C1947 1.400 . S
C1947 C1946 1.400 . S
C1947 C1948 1.398 . S
C1947 C1953 1.491 . S
C1948 H1939 0.950 . S
C1948 C1947 1.398 . S
C1948 C1949 1.391 . S
C1949 H1937 0.950 . S
C1949 C1945 1.393 . S
C1949 C1948 1.391 . S
C1950 H1940 0.950 . S
C1950 C1951 1.386 . S
C1950 C1952 1.391 . S
C1951 C1950 1.386 . S
C1951 C1955 1.393 . S
C1952 H1941 0.950 . S
C1952 C1950 1.391 . S
C1952 C1953 1.400 . S
C1953 C1947 1.491 . S
C1953 C1952 1.400 . S
C1953 C1954 1.398 . S
C1954 H1942 0.950 . S
C1954 C1953 1.398 . S
C1954 C1955 1.391 . S
C1955 H1943 0.950 . S
C1955 C1951 1.393 . S
C1955 C1954 1.391 . S
H1956 C1964 0.950 1_554 S
H1957 C1969 0.950 . S
H1958 C1966 0.950 . S
H1959 C1968 0.950 . S
H1960 C1970 0.950 . S
H1961 C1972 0.950 . S
H1962 C1974 0.950 . S
H1963 C1975 0.950 . S
C1964 H1956 0.950 1_556 S
C1964 C1965 1.386 . S
C1964 C1966 1.391 . S
C1965 C1964 1.386 . S
C1965 C1969 1.393 . S
C1966 H1958 0.950 . S
C1966 C1964 1.391 . S
C1966 C1967 1.400 . S
C1967 C1966 1.400 . S
C1967 C1968 1.398 . S
C1967 C1973 1.491 . S
C1968 H1959 0.950 . S
C1968 C1967 1.398 . S
C1968 C1969 1.391 . S
C1969 H1957 0.950 . S
C1969 C1965 1.393 . S
C1969 C1968 1.391 . S
C1970 H1960 0.950 . S
C1970 C1971 1.386 . S
C1970 C1972 1.391 . S
C1971 C1970 1.386 . S
C1971 C1975 1.393 . S
C1972 H1961 0.950 . S
C1972 C1970 1.391 . S
C1972 C1973 1.400 . S
C1973 C1967 1.491 . S
C1973 C1972 1.400 . S
C1973 C1974 1.398 . S
C1974 H1962 0.950 . S
C1974 C1973 1.398 . S
C1974 C1975 1.391 . S
C1975 H1963 0.950 . S
C1975 C1971 1.393 . S
C1975 C1974 1.391 . S
H1976 C1984 0.950 . S
H1977 C1989 0.950 . S
H1978 C1986 0.950 . S
H1979 C1988 0.950 . S
H1980 C1990 0.950 . S
H1981 C1992 0.950 . S
H1982 C1994 0.950 . S
H1983 C1995 0.950 . S
C1984 H1976 0.950 . S
C1984 C1985 1.386 . S
C1984 C1986 1.391 . S
C1985 C1984 1.386 . S
C1985 C1989 1.393 . S
C1986 H1978 0.950 . S
C1986 C1984 1.391 . S
C1986 C1987 1.400 . S
C1987 C1986 1.400 . S
C1987 C1988 1.398 . S
C1987 C1993 1.491 . S
C1988 H1979 0.950 . S
C1988 C1987 1.398 . S
C1988 C1989 1.391 . S
C1989 H1977 0.950 . S
C1989 C1985 1.393 . S
C1989 C1988 1.391 . S
C1990 H1980 0.950 . S
C1990 C1991 1.386 . S
C1990 C1992 1.391 . S
C1991 C1990 1.386 . S
C1991 C1995 1.393 . S
C1992 H1981 0.950 . S
C1992 C1990 1.391 . S
C1992 C1993 1.400 . S
C1993 C1987 1.491 . S
C1993 C1992 1.400 . S
C1993 C1994 1.398 . S
C1994 H1982 0.950 . S
C1994 C1993 1.398 . S
C1994 C1995 1.391 . S
C1995 H1983 0.950 . S
C1995 C1991 1.393 . S
C1995 C1994 1.391 . S
H1996 C2004 0.950 . S
H1997 C2009 0.950 1_554 S
H1998 C2006 0.950 . S
H1999 C2008 0.950 . S
H2000 C2010 0.950 . S
H2001 C2012 0.950 . S
H2002 C2014 0.950 . S
H2003 C2015 0.950 . S
C2004 H1996 0.950 . S
C2004 C2005 1.386 . S
C2004 C2006 1.391 . S
C2005 C2004 1.386 . S
C2005 C2009 1.393 . S
C2006 H1998 0.950 . S
C2006 C2004 1.391 . S
C2006 C2007 1.400 . S
C2007 C2006 1.400 . S
C2007 C2008 1.398 . S
C2007 C2013 1.491 . S
C2008 H1999 0.950 . S
C2008 C2007 1.398 . S
C2008 C2009 1.391 . S
C2009 H1997 0.950 1_556 S
C2009 C2005 1.393 . S
C2009 C2008 1.391 . S
C2010 H2000 0.950 . S
C2010 C2011 1.386 . S
C2010 C2012 1.391 . S
C2011 C2010 1.386 . S
C2011 C2015 1.393 . S
C2012 H2001 0.950 . S
C2012 C2010 1.391 . S
C2012 C2013 1.400 . S
C2013 C2007 1.491 . S
C2013 C2012 1.400 . S
C2013 C2014 1.398 . S
C2014 H2002 0.950 . S
C2014 C2013 1.398 . S
C2014 C2015 1.391 . S
C2015 H2003 0.950 . S
C2015 C2011 1.393 . S
C2015 C2014 1.391 . S
H2016 C2024 0.950 . S
H2017 C2029 0.950 . S
H2018 C2026 0.950 . S
H2019 C2028 0.950 . S
H2020 C2030 0.950 . S
H2021 C2032 0.950 . S
H2022 C2034 0.950 . S
H2023 C2035 0.950 . S
C2024 H2016 0.950 . S
C2024 C2025 1.386 . S
C2024 C2026 1.391 . S
C2025 C2024 1.386 . S
C2025 C2029 1.393 . S
C2026 H2018 0.950 . S
C2026 C2024 1.391 . S
C2026 C2027 1.400 . S
C2027 C2026 1.400 . S
C2027 C2028 1.398 . S
C2027 C2033 1.491 . S
C2028 H2019 0.950 . S
C2028 C2027 1.398 . S
C2028 C2029 1.391 . S
C2029 H2017 0.950 . S
C2029 C2025 1.393 . S
C2029 C2028 1.391 . S
C2030 H2020 0.950 . S
C2030 C2031 1.386 . S
C2030 C2032 1.391 . S
C2031 C2030 1.386 . S
C2031 C2035 1.393 . S
C2032 H2021 0.950 . S
C2032 C2030 1.391 . S
C2032 C2033 1.400 . S
C2033 C2027 1.491 . S
C2033 C2032 1.400 . S
C2033 C2034 1.398 . S
C2034 H2022 0.950 . S
C2034 C2033 1.398 . S
C2034 C2035 1.391 . S
C2035 H2023 0.950 . S
C2035 C2031 1.393 . S
C2035 C2034 1.391 . S
H2036 C2044 0.950 . S
H2037 C2049 0.950 . S
H2038 C2046 0.950 . S
H2039 C2048 0.950 . S
H2040 C2050 0.950 . S
H2041 C2052 0.950 . S
H2042 C2054 0.950 . S
H2043 C2055 0.950 . S
C2044 H2036 0.950 . S
C2044 C2045 1.386 . S
C2044 C2046 1.391 . S
C2045 C2044 1.386 . S
C2045 C2049 1.393 . S
C2046 H2038 0.950 . S
C2046 C2044 1.391 . S
C2046 C2047 1.400 . S
C2047 C2046 1.400 . S
C2047 C2048 1.398 . S
C2047 C2053 1.491 . S
C2048 H2039 0.950 . S
C2048 C2047 1.398 . S
C2048 C2049 1.391 . S
C2049 H2037 0.950 . S
C2049 C2045 1.393 . S
C2049 C2048 1.391 . S
C2050 H2040 0.950 . S
C2050 C2051 1.386 . S
C2050 C2052 1.391 . S
C2051 C2050 1.386 . S
C2051 C2055 1.393 . S
C2052 H2041 0.950 . S
C2052 C2050 1.391 . S
C2052 C2053 1.400 . S
C2053 C2047 1.491 . S
C2053 C2052 1.400 . S
C2053 C2054 1.398 . S
C2054 H2042 0.950 . S
C2054 C2053 1.398 . S
C2054 C2055 1.391 . S
C2055 H2043 0.950 . S
C2055 C2051 1.393 . S
C2055 C2054 1.391 . S
H2056 C2064 0.950 . S
H2057 C2069 0.950 . S
H2058 C2066 0.950 . S
H2059 C2068 0.950 . S
H2060 C2070 0.950 . S
H2061 C2072 0.950 . S
H2062 C2074 0.950 . S
H2063 C2075 0.950 . S
C2064 H2056 0.950 . S
C2064 C2065 1.386 . S
C2064 C2066 1.391 . S
C2065 C2064 1.386 . S
C2065 C2069 1.393 . S
C2066 H2058 0.950 . S
C2066 C2064 1.391 . S
C2066 C2067 1.400 . S
C2067 C2066 1.400 . S
C2067 C2068 1.398 . S
C2067 C2073 1.491 . S
C2068 H2059 0.950 . S
C2068 C2067 1.398 . S
C2068 C2069 1.391 . S
C2069 H2057 0.950 . S
C2069 C2065 1.393 . S
C2069 C2068 1.391 . S
C2070 H2060 0.950 . S
C2070 C2071 1.386 . S
C2070 C2072 1.391 . S
C2071 C2070 1.386 . S
C2071 C2075 1.393 . S
C2072 H2061 0.950 . S
C2072 C2070 1.391 . S
C2072 C2073 1.400 . S
C2073 C2067 1.491 . S
C2073 C2072 1.400 . S
C2073 C2074 1.398 . S
C2074 H2062 0.950 . S
C2074 C2073 1.398 . S
C2074 C2075 1.391 . S
C2075 H2063 0.950 . S
C2075 C2071 1.393 . S
C2075 C2074 1.391 . S
H2076 C2084 0.950 . S
H2077 C2089 0.950 . S
H2078 C2086 0.950 . S
H2079 C2088 0.950 . S
H2080 C2090 0.950 . S
H2081 C2092 0.950 . S
H2082 C2094 0.950 . S
H2083 C2095 0.950 . S
C2084 H2076 0.950 . S
C2084 C2085 1.386 . S
C2084 C2086 1.391 . S
C2085 C2084 1.386 . S
C2085 C2089 1.393 . S
C2086 H2078 0.950 . S
C2086 C2084 1.391 . S
C2086 C2087 1.400 . S
C2087 C2086 1.400 . S
C2087 C2088 1.398 . S
C2087 C2093 1.491 . S
C2088 H2079 0.950 . S
C2088 C2087 1.398 . S
C2088 C2089 1.391 . S
C2089 H2077 0.950 . S
C2089 C2085 1.393 . S
C2089 C2088 1.391 . S
C2090 H2080 0.950 . S
C2090 C2091 1.386 . S
C2090 C2092 1.391 . S
C2091 C2090 1.386 . S
C2091 C2095 1.393 . S
C2092 H2081 0.950 . S
C2092 C2090 1.391 . S
C2092 C2093 1.400 . S
C2093 C2087 1.491 . S
C2093 C2092 1.400 . S
C2093 C2094 1.398 . S
C2094 H2082 0.950 . S
C2094 C2093 1.398 . S
C2094 C2095 1.391 . S
C2095 H2083 0.950 . S
C2095 C2091 1.393 . S
C2095 C2094 1.391 . S
H2096 C2104 0.950 . S
H2097 C2109 0.950 . S
H2098 C2106 0.950 . S
H2099 C2108 0.950 . S
H2100 C2110 0.950 . S
H2101 C2112 0.950 . S
H2102 C2114 0.950 . S
H2103 C2115 0.950 . S
C2104 H2096 0.950 . S
C2104 C2105 1.386 . S
C2104 C2106 1.391 . S
C2105 C2104 1.386 . S
C2105 C2109 1.393 . S
C2106 H2098 0.950 . S
C2106 C2104 1.391 . S
C2106 C2107 1.400 . S
C2107 C2106 1.400 . S
C2107 C2108 1.398 . S
C2107 C2113 1.491 . S
C2108 H2099 0.950 . S
C2108 C2107 1.398 . S
C2108 C2109 1.391 . S
C2109 H2097 0.950 . S
C2109 C2105 1.393 . S
C2109 C2108 1.391 . S
C2110 H2100 0.950 . S
C2110 C2111 1.386 . S
C2110 C2112 1.391 . S
C2111 C2110 1.386 . S
C2111 C2115 1.393 . S
C2112 H2101 0.950 . S
C2112 C2110 1.391 . S
C2112 C2113 1.400 . S
C2113 C2107 1.491 . S
C2113 C2112 1.400 . S
C2113 C2114 1.398 . S
C2114 H2102 0.950 . S
C2114 C2113 1.398 . S
C2114 C2115 1.391 . S
C2115 H2103 0.950 . S
C2115 C2111 1.393 . S
C2115 C2114 1.391 . S
H2116 C2124 0.950 . S
H2117 C2129 0.950 . S
H2118 C2126 0.950 . S
H2119 C2128 0.950 . S
H2120 C2130 0.950 . S
H2121 C2132 0.950 . S
H2122 C2134 0.950 . S
H2123 C2135 0.950 . S
C2124 H2116 0.950 . S
C2124 C2125 1.386 . S
C2124 C2126 1.391 . S
C2125 C2124 1.386 . S
C2125 C2129 1.393 . S
C2126 H2118 0.950 . S
C2126 C2124 1.391 . S
C2126 C2127 1.400 . S
C2127 C2126 1.400 . S
C2127 C2128 1.398 . S
C2127 C2133 1.491 . S
C2128 H2119 0.950 . S
C2128 C2127 1.398 . S
C2128 C2129 1.391 . S
C2129 H2117 0.950 . S
C2129 C2125 1.393 . S
C2129 C2128 1.391 . S
C2130 H2120 0.950 . S
C2130 C2131 1.386 . S
C2130 C2132 1.391 . S
C2131 C2130 1.386 . S
C2131 C2135 1.393 . S
C2132 H2121 0.950 . S
C2132 C2130 1.391 . S
C2132 C2133 1.400 . S
C2133 C2127 1.491 . S
C2133 C2132 1.400 . S
C2133 C2134 1.398 . S
C2134 H2122 0.950 . S
C2134 C2133 1.398 . S
C2134 C2135 1.391 . S
C2135 H2123 0.950 . S
C2135 C2131 1.393 . S
C2135 C2134 1.391 . S
H2136 C2144 0.950 . S
H2137 C2149 0.950 . S
H2138 C2146 0.950 . S
H2139 C2148 0.950 . S
H2140 C2150 0.950 . S
H2141 C2152 0.950 . S
H2142 C2154 0.950 . S
H2143 C2155 0.950 . S
C2144 H2136 0.950 . S
C2144 C2145 1.386 1_655 S
C2144 C2146 1.391 . S
C2145 C2144 1.386 1_455 S
C2145 C2149 1.393 . S
C2146 H2138 0.950 . S
C2146 C2144 1.391 . S
C2146 C2147 1.400 1_655 S
C2147 C2146 1.400 1_455 S
C2147 C2148 1.398 . S
C2147 C2153 1.491 . S
C2148 H2139 0.950 . S
C2148 C2147 1.398 . S
C2148 C2149 1.391 . S
C2149 H2137 0.950 . S
C2149 C2145 1.393 . S
C2149 C2148 1.391 . S
C2150 H2140 0.950 . S
C2150 C2151 1.386 . S
C2150 C2152 1.391 . S
C2151 C2150 1.386 . S
C2151 C2155 1.393 1_455 S
C2152 H2141 0.950 . S
C2152 C2150 1.391 . S
C2152 C2153 1.400 . S
C2153 C2147 1.491 . S
C2153 C2152 1.400 . S
C2153 C2154 1.398 1_455 S
C2154 H2142 0.950 . S
C2154 C2153 1.398 1_655 S
C2154 C2155 1.391 . S
C2155 H2143 0.950 . S
C2155 C2151 1.393 1_655 S
C2155 C2154 1.391 . S
H2156 C2164 0.950 . S
H2157 C2169 0.950 . S
H2158 C2166 0.950 . S
H2159 C2168 0.950 . S
H2160 C2170 0.950 . S
H2161 C2172 0.950 . S
H2162 C2174 0.950 . S
H2163 C2175 0.950 . S
C2164 H2156 0.950 . S
C2164 C2165 1.386 . S
C2164 C2166 1.391 . S
C2165 C2164 1.386 . S
C2165 C2169 1.393 . S
C2166 H2158 0.950 . S
C2166 C2164 1.391 . S
C2166 C2167 1.400 . S
C2167 C2166 1.400 . S
C2167 C2168 1.398 . S
C2167 C2173 1.491 . S
C2168 H2159 0.950 . S
C2168 C2167 1.398 . S
C2168 C2169 1.391 . S
C2169 H2157 0.950 . S
C2169 C2165 1.393 . S
C2169 C2168 1.391 . S
C2170 H2160 0.950 . S
C2170 C2171 1.386 . S
C2170 C2172 1.391 . S
C2171 C2170 1.386 . S
C2171 C2175 1.393 . S
C2172 H2161 0.950 . S
C2172 C2170 1.391 . S
C2172 C2173 1.400 . S
C2173 C2167 1.491 . S
C2173 C2172 1.400 . S
C2173 C2174 1.398 . S
C2174 H2162 0.950 . S
C2174 C2173 1.398 . S
C2174 C2175 1.391 . S
C2175 H2163 0.950 . S
C2175 C2171 1.393 . S
C2175 C2174 1.391 . S
H2176 C2184 0.950 . S
H2177 C2189 0.950 . S
H2178 C2186 0.950 . S
H2179 C2188 0.950 . S
H2180 C2190 0.951 . S
H2181 C2192 0.950 . S
H2182 C2194 0.950 . S
H2183 C2195 0.950 . S
C2184 H2176 0.950 . S
C2184 C2185 1.386 . S
C2184 C2186 1.391 . S
C2185 C2184 1.386 . S
C2185 C2189 1.393 . S
C2186 H2178 0.950 . S
C2186 C2184 1.391 . S
C2186 C2187 1.400 . S
C2187 C2186 1.400 . S
C2187 C2188 1.398 . S
C2187 C2193 1.491 . S
C2188 H2179 0.950 . S
C2188 C2187 1.398 . S
C2188 C2189 1.391 . S
C2189 H2177 0.950 . S
C2189 C2185 1.393 . S
C2189 C2188 1.391 . S
C2190 H2180 0.951 . S
C2190 C2191 1.386 . S
C2190 C2192 1.391 . S
C2191 C2190 1.386 . S
C2191 C2195 1.393 . S
C2192 H2181 0.950 . S
C2192 C2190 1.391 . S
C2192 C2193 1.400 . S
C2193 C2187 1.491 . S
C2193 C2192 1.400 . S
C2193 C2194 1.398 . S
C2194 H2182 0.950 . S
C2194 C2193 1.398 . S
C2194 C2195 1.391 . S
C2195 H2183 0.950 . S
C2195 C2191 1.393 . S
C2195 C2194 1.391 . S
H2196 C2204 0.942 1_545 S
H2197 C2209 0.950 . S
H2198 C2206 0.978 . S
H2199 C2208 0.950 . S
H2200 C2210 0.950 . S
H2201 C2212 0.950 . S
H2202 C2214 0.950 . S
H2203 C2215 0.950 . S
C2204 H2196 0.942 1_565 S
C2204 C2205 1.405 . S
C2204 C2206 1.363 1_565 S
C2205 C2204 1.405 . S
C2205 C2209 1.393 . S
C2206 H2198 0.978 . S
C2206 C2204 1.363 1_545 S
C2206 C2207 1.390 1_545 S
C2207 C2206 1.390 1_565 S
C2207 C2208 1.398 . S
C2207 C2213 1.491 . S
C2208 H2199 0.950 . S
C2208 C2207 1.398 . S
C2208 C2209 1.391 . S
C2209 H2197 0.950 . S
C2209 C2205 1.393 . S
C2209 C2208 1.391 . S
C2210 H2200 0.950 . S
C2210 C2211 1.386 . S
C2210 C2212 1.391 . S
C2211 C2210 1.386 . S
C2211 C2215 1.393 1_565 S
C2212 H2201 0.950 . S
C2212 C2210 1.391 . S
C2212 C2213 1.400 . S
C2213 C2207 1.491 . S
C2213 C2212 1.400 . S
C2213 C2214 1.398 1_565 S
C2214 H2202 0.950 . S
C2214 C2213 1.398 1_545 S
C2214 C2215 1.391 . S
C2215 H2203 0.950 . S
C2215 C2211 1.393 1_545 S
C2215 C2214 1.391 . S
H2216 C2224 0.950 . S
H2217 C2229 0.950 . S
H2218 C2226 0.950 . S
H2219 C2228 0.950 . S
H2220 C2230 0.944 1_655 S
H2221 C2232 0.950 . S
H2222 C2234 0.950 . S
H2223 C2235 0.950 . S
C2224 H2216 0.950 . S
C2224 C2225 1.386 . S
C2224 C2226 1.391 . S
C2225 C2224 1.386 . S
C2225 C2229 1.393 . S
C2226 H2218 0.950 . S
C2226 C2224 1.391 . S
C2226 C2227 1.400 . S
C2227 C2226 1.400 . S
C2227 C2228 1.398 . S
C2227 C2233 1.491 . S
C2228 H2219 0.950 . S
C2228 C2227 1.398 . S
C2228 C2229 1.391 . S
C2229 H2217 0.950 . S
C2229 C2225 1.393 . S
C2229 C2228 1.391 . S
C2230 H2220 0.944 1_455 S
C2230 C2231 1.386 . S
C2230 C2232 1.391 . S
C2231 C2230 1.386 . S
C2231 C2235 1.393 . S
C2232 H2221 0.950 . S
C2232 C2230 1.391 . S
C2232 C2233 1.400 . S
C2233 C2227 1.491 . S
C2233 C2232 1.400 . S
C2233 C2234 1.398 . S
C2234 H2222 0.950 . S
C2234 C2233 1.398 . S
C2234 C2235 1.391 . S
C2235 H2223 0.950 . S
C2235 C2231 1.393 . S
C2235 C2234 1.391 . S
H2236 C2244 0.950 . S
H2237 C2249 0.950 . S
H2238 C2246 0.950 . S
H2239 C2248 0.950 . S
H2240 C2250 0.950 . S
H2241 C2252 0.950 . S
H2242 C2254 0.950 . S
H2243 C2255 0.950 . S
C2244 H2236 0.950 . S
C2244 C2245 1.386 . S
C2244 C2246 1.391 . S
C2245 C2244 1.386 . S
C2245 C2249 1.393 . S
C2246 H2238 0.950 . S
C2246 C2244 1.391 . S
C2246 C2247 1.400 . S
C2247 C2246 1.400 . S
C2247 C2248 1.398 . S
C2247 C2253 1.491 . S
C2248 H2239 0.950 . S
C2248 C2247 1.398 . S
C2248 C2249 1.391 . S
C2249 H2237 0.950 . S
C2249 C2245 1.393 . S
C2249 C2248 1.391 . S
C2250 H2240 0.950 . S
C2250 C2251 1.386 . S
C2250 C2252 1.391 . S
C2251 C2250 1.386 . S
C2251 C2255 1.393 . S
C2252 H2241 0.950 . S
C2252 C2250 1.391 . S
C2252 C2253 1.400 . S
C2253 C2247 1.491 . S
C2253 C2252 1.400 . S
C2253 C2254 1.398 . S
C2254 H2242 0.950 . S
C2254 C2253 1.398 . S
C2254 C2255 1.391 . S
C2255 H2243 0.950 . S
C2255 C2251 1.393 . S
C2255 C2254 1.391 . S
H2256 C2264 0.950 . S
H2257 C2269 0.950 . S
H2258 C2266 0.950 . S
H2259 C2268 0.950 . S
H2260 C2270 0.950 . S
H2261 C2272 0.950 . S
H2262 C2274 0.950 . S
H2263 C2275 0.950 . S
C2264 H2256 0.950 . S
C2264 C2265 1.386 . S
C2264 C2266 1.391 . S
C2265 C2264 1.386 . S
C2265 C2269 1.393 . S
C2266 H2258 0.950 . S
C2266 C2264 1.391 . S
C2266 C2267 1.400 . S
C2267 C2266 1.400 . S
C2267 C2268 1.398 . S
C2267 C2273 1.491 . S
C2268 H2259 0.950 . S
C2268 C2267 1.398 . S
C2268 C2269 1.391 . S
C2269 H2257 0.950 . S
C2269 C2265 1.393 . S
C2269 C2268 1.391 . S
C2270 H2260 0.950 . S
C2270 C2271 1.386 . S
C2270 C2272 1.391 . S
C2271 C2270 1.386 . S
C2271 C2275 1.393 . S
C2272 H2261 0.950 . S
C2272 C2270 1.391 . S
C2272 C2273 1.400 . S
C2273 C2267 1.491 . S
C2273 C2272 1.400 . S
C2273 C2274 1.398 . S
C2274 H2262 0.950 . S
C2274 C2273 1.398 . S
C2274 C2275 1.391 . S
C2275 H2263 0.950 . S
C2275 C2271 1.393 . S
C2275 C2274 1.391 . S
H2276 C2284 0.950 . S
H2277 C2289 0.950 . S
H2278 C2286 0.950 . S
H2279 C2288 0.950 . S
H2280 C2290 0.950 . S
H2281 C2292 0.950 . S
H2282 C2294 0.950 . S
H2283 C2295 0.950 . S
C2284 H2276 0.950 . S
C2284 C2285 1.386 . S
C2284 C2286 1.391 . S
C2285 C2284 1.386 . S
C2285 C2289 1.393 . S
C2286 H2278 0.950 . S
C2286 C2284 1.391 . S
C2286 C2287 1.400 . S
C2287 C2286 1.400 . S
C2287 C2288 1.398 . S
C2287 C2293 1.491 . S
C2288 H2279 0.950 . S
C2288 C2287 1.398 . S
C2288 C2289 1.391 . S
C2289 H2277 0.950 . S
C2289 C2285 1.393 . S
C2289 C2288 1.391 . S
C2290 H2280 0.950 . S
C2290 C2291 1.386 . S
C2290 C2292 1.391 . S
C2291 C2290 1.386 . S
C2291 C2295 1.393 . S
C2292 H2281 0.950 . S
C2292 C2290 1.391 . S
C2292 C2293 1.400 . S
C2293 C2287 1.491 . S
C2293 C2292 1.400 . S
C2293 C2294 1.398 . S
C2294 H2282 0.950 . S
C2294 C2293 1.398 . S
C2294 C2295 1.391 . S
C2295 H2283 0.950 . S
C2295 C2291 1.393 . S
C2295 C2294 1.391 . S
H2296 C2304 0.950 . S
H2297 C2309 0.950 . S
H2298 C2306 0.950 . S
H2299 C2308 0.950 . S
H2300 C2310 0.950 . S
H2301 C2312 0.950 . S
H2302 C2314 0.950 . S
H2303 C2315 0.950 . S
C2304 H2296 0.950 . S
C2304 C2305 1.386 . S
C2304 C2306 1.391 . S
C2305 C2304 1.386 . S
C2305 C2309 1.393 . S
C2306 H2298 0.950 . S
C2306 C2304 1.391 . S
C2306 C2307 1.400 . S
C2307 C2306 1.400 . S
C2307 C2308 1.398 . S
C2307 C2313 1.491 . S
C2308 H2299 0.950 . S
C2308 C2307 1.398 . S
C2308 C2309 1.391 . S
C2309 H2297 0.950 . S
C2309 C2305 1.393 . S
C2309 C2308 1.391 . S
C2310 H2300 0.950 . S
C2310 C2311 1.386 . S
C2310 C2312 1.391 . S
C2311 C2310 1.386 . S
C2311 C2315 1.393 . S
C2312 H2301 0.950 . S
C2312 C2310 1.391 . S
C2312 C2313 1.400 . S
C2313 C2307 1.491 . S
C2313 C2312 1.400 . S
C2313 C2314 1.398 . S
C2314 H2302 0.950 . S
C2314 C2313 1.398 . S
C2314 C2315 1.391 . S
C2315 H2303 0.950 . S
C2315 C2311 1.393 . S
C2315 C2314 1.391 . S
H2316 C2324 0.950 . S
H2317 C2329 0.950 . S
H2318 C2326 0.950 . S
H2319 C2328 0.950 . S
H2320 C2330 0.950 . S
H2321 C2332 0.950 . S
H2322 C2334 0.950 . S
H2323 C2335 0.959 . S
C2324 H2316 0.950 . S
C2324 C2325 1.386 . S
C2324 C2326 1.391 . S
C2325 C2324 1.386 . S
C2325 C2329 1.393 . S
C2326 H2318 0.950 . S
C2326 C2324 1.391 . S
C2326 C2327 1.400 . S
C2327 C2326 1.400 . S
C2327 C2328 1.398 . S
C2327 C2333 1.491 . S
C2328 H2319 0.950 . S
C2328 C2327 1.398 . S
C2328 C2329 1.391 . S
C2329 H2317 0.950 . S
C2329 C2325 1.393 . S
C2329 C2328 1.391 . S
C2330 H2320 0.950 . S
C2330 C2331 1.386 . S
C2330 C2332 1.391 . S
C2331 C2330 1.386 . S
C2331 C2335 1.393 . S
C2332 H2321 0.950 . S
C2332 C2330 1.391 . S
C2332 C2333 1.400 . S
C2333 C2327 1.491 . S
C2333 C2332 1.400 . S
C2333 C2334 1.398 . S
C2334 H2322 0.950 . S
C2334 C2333 1.398 . S
C2334 C2335 1.391 . S
C2335 H2323 0.959 . S
C2335 C2331 1.393 . S
C2335 C2334 1.391 . S
H2336 C2344 0.950 . S
H2337 C2349 0.950 . S
H2338 C2346 0.950 . S
H2339 C2348 0.950 . S
H2340 C2350 0.950 . S
H2341 C2352 0.950 . S
H2342 C2354 0.950 . S
H2343 C2355 0.950 . S
C2344 H2336 0.950 . S
C2344 C2345 1.386 1_455 S
C2344 C2346 1.391 . S
C2345 C2344 1.386 1_655 S
C2345 C2349 1.393 . S
C2346 H2338 0.950 . S
C2346 C2344 1.391 . S
C2346 C2347 1.400 1_455 S
C2347 C2346 1.400 1_655 S
C2347 C2348 1.398 . S
C2347 C2353 1.491 . S
C2348 H2339 0.950 . S
C2348 C2347 1.398 . S
C2348 C2349 1.391 . S
C2349 H2337 0.950 . S
C2349 C2345 1.393 . S
C2349 C2348 1.391 . S
C2350 H2340 0.950 . S
C2350 C2351 1.386 . S
C2350 C2352 1.391 . S
C2351 C2350 1.386 . S
C2351 C2355 1.393 1_655 S
C2352 H2341 0.950 . S
C2352 C2350 1.391 . S
C2352 C2353 1.400 . S
C2353 C2347 1.491 . S
C2353 C2352 1.400 . S
C2353 C2354 1.398 1_655 S
C2354 H2342 0.950 . S
C2354 C2353 1.398 1_455 S
C2354 C2355 1.391 . S
C2355 H2343 0.950 . S
C2355 C2351 1.393 1_455 S
C2355 C2354 1.391 . S
H2356 C2364 0.950 . S
H2357 C2369 0.950 . S
H2358 C2366 0.950 . S
H2359 C2368 0.950 . S
H2360 C2370 0.950 . S
H2361 C2372 0.950 . S
H2362 C2374 0.950 . S
H2363 C2375 0.950 . S
C2364 H2356 0.950 . S
C2364 C2365 1.386 . S
C2364 C2366 1.391 . S
C2365 C2364 1.386 . S
C2365 C2369 1.393 . S
C2366 H2358 0.950 . S
C2366 C2364 1.391 . S
C2366 C2367 1.400 . S
C2367 C2366 1.400 . S
C2367 C2368 1.398 . S
C2367 C2373 1.491 . S
C2368 H2359 0.950 . S
C2368 C2367 1.398 . S
C2368 C2369 1.391 . S
C2369 H2357 0.950 . S
C2369 C2365 1.393 . S
C2369 C2368 1.391 . S
C2370 H2360 0.950 . S
C2370 C2371 1.386 . S
C2370 C2372 1.391 . S
C2371 C2370 1.386 . S
C2371 C2375 1.393 . S
C2372 H2361 0.950 . S
C2372 C2370 1.391 . S
C2372 C2373 1.400 . S
C2373 C2367 1.491 . S
C2373 C2372 1.400 . S
C2373 C2374 1.398 . S
C2374 H2362 0.950 . S
C2374 C2373 1.398 . S
C2374 C2375 1.391 . S
C2375 H2363 0.950 . S
C2375 C2371 1.393 . S
C2375 C2374 1.391 . S
H2376 C2384 0.950 . S
H2377 C2389 0.950 . S
H2378 C2386 0.950 . S
H2379 C2388 0.950 . S
H2380 C2390 0.950 . S
H2381 C2392 0.950 . S
H2382 C2394 0.950 . S
H2383 C2395 0.950 . S
C2384 H2376 0.950 . S
C2384 C2385 1.386 . S
C2384 C2386 1.391 . S
C2385 C2384 1.386 . S
C2385 C2389 1.393 . S
C2386 H2378 0.950 . S
C2386 C2384 1.391 . S
C2386 C2387 1.400 . S
C2387 C2386 1.400 . S
C2387 C2388 1.398 . S
C2387 C2393 1.491 . S
C2388 H2379 0.950 . S
C2388 C2387 1.398 . S
C2388 C2389 1.391 . S
C2389 H2377 0.950 . S
C2389 C2385 1.393 . S
C2389 C2388 1.391 . S
C2390 H2380 0.950 . S
C2390 C2391 1.386 . S
C2390 C2392 1.391 . S
C2391 C2390 1.386 . S
C2391 C2395 1.393 . S
C2392 H2381 0.950 . S
C2392 C2390 1.391 . S
C2392 C2393 1.400 . S
C2393 C2387 1.491 . S
C2393 C2392 1.400 . S
C2393 C2394 1.398 . S
C2394 H2382 0.950 . S
C2394 C2393 1.398 . S
C2394 C2395 1.391 . S
C2395 H2383 0.950 . S
C2395 C2391 1.393 . S
C2395 C2394 1.391 . S
H2396 C2404 0.950 . S
H2397 C2409 0.950 . S
H2398 C2406 0.950 . S
H2399 C2408 0.950 . S
H2400 C2410 0.950 . S
H2401 C2412 0.950 . S
H2402 C2414 0.950 . S
H2403 C2415 0.950 . S
C2404 H2396 0.950 . S
C2404 C2405 1.386 . S
C2404 C2406 1.391 . S
C2405 C2404 1.386 . S
C2405 C2409 1.393 . S
C2406 H2398 0.950 . S
C2406 C2404 1.391 . S
C2406 C2407 1.400 . S
C2407 C2406 1.400 . S
C2407 C2408 1.398 . S
C2407 C2413 1.491 . S
C2408 H2399 0.950 . S
C2408 C2407 1.398 . S
C2408 C2409 1.391 . S
C2409 H2397 0.950 . S
C2409 C2405 1.393 . S
C2409 C2408 1.391 . S
C2410 H2400 0.950 . S
C2410 C2411 1.386 . S
C2410 C2412 1.391 . S
C2411 C2410 1.386 . S
C2411 C2415 1.393 . S
C2412 H2401 0.950 . S
C2412 C2410 1.391 . S
C2412 C2413 1.400 . S
C2413 C2407 1.491 . S
C2413 C2412 1.400 . S
C2413 C2414 1.398 . S
C2414 H2402 0.950 . S
C2414 C2413 1.398 . S
C2414 C2415 1.391 . S
C2415 H2403 0.950 . S
C2415 C2411 1.393 . S
C2415 C2414 1.391 . S
H2416 C2424 0.950 . S
H2417 C2429 0.950 . S
H2418 C2426 0.950 . S
H2419 C2428 0.950 . S
H2420 C2430 0.950 . S
H2421 C2432 0.950 . S
H2422 C2434 0.950 . S
H2423 C2435 0.950 . S
C2424 H2416 0.950 . S
C2424 C2425 1.386 . S
C2424 C2426 1.391 . S
C2425 C2424 1.386 . S
C2425 C2429 1.393 . S
C2426 H2418 0.950 . S
C2426 C2424 1.391 . S
C2426 C2427 1.400 . S
C2427 C2426 1.400 . S
C2427 C2428 1.398 . S
C2427 C2433 1.491 . S
C2428 H2419 0.950 . S
C2428 C2427 1.398 . S
C2428 C2429 1.391 . S
C2429 H2417 0.950 . S
C2429 C2425 1.393 . S
C2429 C2428 1.391 . S
C2430 H2420 0.950 . S
C2430 C2431 1.386 . S
C2430 C2432 1.391 . S
C2431 C2430 1.386 . S
C2431 C2435 1.393 . S
C2432 H2421 0.950 . S
C2432 C2430 1.391 . S
C2432 C2433 1.400 . S
C2433 C2427 1.491 . S
C2433 C2432 1.400 . S
C2433 C2434 1.398 . S
C2434 H2422 0.950 . S
C2434 C2433 1.398 . S
C2434 C2435 1.391 . S
C2435 H2423 0.950 . S
C2435 C2431 1.393 . S
C2435 C2434 1.391 . S
H2436 C2444 0.950 . S
H2437 C2449 0.950 . S
H2438 C2446 0.950 . S
H2439 C2448 0.950 . S
H2440 C2450 0.950 . S
H2441 C2452 0.950 . S
H2442 C2454 0.950 . S
H2443 C2455 0.950 . S
C2444 H2436 0.950 . S
C2444 C2445 1.386 . S
C2444 C2446 1.391 . S
C2445 C2444 1.386 . S
C2445 C2449 1.393 . S
C2446 H2438 0.950 . S
C2446 C2444 1.391 . S
C2446 C2447 1.400 . S
C2447 C2446 1.400 . S
C2447 C2448 1.398 . S
C2447 C2453 1.491 . S
C2448 H2439 0.950 . S
C2448 C2447 1.398 . S
C2448 C2449 1.391 . S
C2449 H2437 0.950 . S
C2449 C2445 1.393 . S
C2449 C2448 1.391 . S
C2450 H2440 0.950 . S
C2450 C2451 1.386 . S
C2450 C2452 1.391 . S
C2451 C2450 1.386 . S
C2451 C2455 1.393 . S
C2452 H2441 0.950 . S
C2452 C2450 1.391 . S
C2452 C2453 1.400 . S
C2453 C2447 1.491 . S
C2453 C2452 1.400 . S
C2453 C2454 1.398 . S
C2454 H2442 0.950 . S
C2454 C2453 1.398 . S
C2454 C2455 1.391 . S
C2455 H2443 0.950 . S
C2455 C2451 1.393 . S
C2455 C2454 1.391 . S
H2456 C2464 0.950 . S
H2457 C2469 0.950 . S
H2458 C2466 0.950 . S
H2459 C2468 0.950 . S
H2460 C2470 0.950 . S
H2461 C2472 0.950 . S
H2462 C2474 0.950 . S
H2463 C2475 0.950 . S
C2464 H2456 0.950 . S
C2464 C2465 1.386 . S
C2464 C2466 1.391 . S
C2465 C2464 1.386 . S
C2465 C2469 1.393 . S
C2466 H2458 0.950 . S
C2466 C2464 1.391 . S
C2466 C2467 1.400 . S
C2467 C2466 1.400 . S
C2467 C2468 1.398 . S
C2467 C2473 1.491 . S
C2468 H2459 0.950 . S
C2468 C2467 1.398 . S
C2468 C2469 1.391 . S
C2469 H2457 0.950 . S
C2469 C2465 1.393 . S
C2469 C2468 1.391 . S
C2470 H2460 0.950 . S
C2470 C2471 1.386 . S
C2470 C2472 1.391 . S
C2471 C2470 1.386 . S
C2471 C2475 1.393 . S
C2472 H2461 0.950 . S
C2472 C2470 1.391 . S
C2472 C2473 1.400 . S
C2473 C2467 1.491 . S
C2473 C2472 1.400 . S
C2473 C2474 1.398 . S
C2474 H2462 0.950 . S
C2474 C2473 1.398 . S
C2474 C2475 1.391 . S
C2475 H2463 0.950 . S
C2475 C2471 1.393 . S
C2475 C2474 1.391 . S
H2476 C2484 0.950 . S
H2477 C2489 0.950 . S
H2478 C2486 0.950 . S
H2479 C2488 0.950 . S
H2480 C2490 0.950 . S
H2481 C2492 0.950 . S
H2482 C2494 0.950 . S
H2483 C2495 0.950 . S
C2484 H2476 0.950 . S
C2484 C2485 1.386 . S
C2484 C2486 1.391 . S
C2485 C2484 1.386 . S
C2485 C2489 1.393 . S
C2486 H2478 0.950 . S
C2486 C2484 1.391 . S
C2486 C2487 1.400 . S
C2487 C2486 1.400 . S
C2487 C2488 1.398 . S
C2487 C2493 1.491 . S
C2488 H2479 0.950 . S
C2488 C2487 1.398 . S
C2488 C2489 1.391 . S
C2489 H2477 0.950 . S
C2489 C2485 1.393 . S
C2489 C2488 1.391 . S
C2490 H2480 0.950 . S
C2490 C2491 1.386 . S
C2490 C2492 1.391 . S
C2491 C2490 1.386 . S
C2491 C2495 1.393 . S
C2492 H2481 0.950 . S
C2492 C2490 1.391 . S
C2492 C2493 1.400 . S
C2493 C2487 1.491 . S
C2493 C2492 1.400 . S
C2493 C2494 1.398 . S
C2494 H2482 0.950 . S
C2494 C2493 1.398 . S
C2494 C2495 1.391 . S
C2495 H2483 0.950 . S
C2495 C2491 1.393 . S
C2495 C2494 1.391 . S
H2496 C2504 0.950 . S
H2497 C2509 0.950 . S
H2498 C2506 0.950 . S
H2499 C2508 0.950 . S
H2500 C2510 0.943 1_455 S
H2501 C2512 0.950 . S
H2502 C2514 0.950 . S
H2503 C2515 0.950 . S
C2504 H2496 0.950 . S
C2504 C2505 1.386 . S
C2504 C2506 1.391 . S
C2505 C2504 1.386 . S
C2505 C2509 1.393 . S
C2506 H2498 0.950 . S
C2506 C2504 1.391 . S
C2506 C2507 1.400 . S
C2507 C2506 1.400 . S
C2507 C2508 1.398 . S
C2507 C2513 1.491 . S
C2508 H2499 0.950 . S
C2508 C2507 1.398 . S
C2508 C2509 1.391 . S
C2509 H2497 0.950 . S
C2509 C2505 1.393 . S
C2509 C2508 1.391 . S
C2510 H2500 0.943 1_655 S
C2510 C2511 1.386 . S
C2510 C2512 1.391 . S
C2511 C2510 1.386 . S
C2511 C2515 1.393 . S
C2512 H2501 0.950 . S
C2512 C2510 1.391 . S
C2512 C2513 1.400 . S
C2513 C2507 1.491 . S
C2513 C2512 1.400 . S
C2513 C2514 1.398 . S
C2514 H2502 0.950 . S
C2514 C2513 1.398 . S
C2514 C2515 1.391 . S
C2515 H2503 0.950 . S
C2515 C2511 1.393 . S
C2515 C2514 1.391 . S
H2516 C2524 0.950 . S
H2517 C2529 0.950 . S
H2518 C2526 0.950 . S
H2519 C2528 0.950 . S
H2520 C2530 0.950 . S
H2521 C2532 0.950 . S
H2522 C2534 0.950 . S
H2523 C2535 0.950 . S
C2524 H2516 0.950 . S
C2524 C2525 1.386 . S
C2524 C2526 1.391 . S
C2525 C2524 1.386 . S
C2525 C2529 1.393 . S
C2526 H2518 0.950 . S
C2526 C2524 1.391 . S
C2526 C2527 1.400 . S
C2527 C2526 1.400 . S
C2527 C2528 1.398 . S
C2527 C2533 1.491 . S
C2528 H2519 0.950 . S
C2528 C2527 1.398 . S
C2528 C2529 1.391 . S
C2529 H2517 0.950 . S
C2529 C2525 1.393 . S
C2529 C2528 1.391 . S
C2530 H2520 0.950 . S
C2530 C2531 1.386 . S
C2530 C2532 1.391 . S
C2531 C2530 1.386 . S
C2531 C2535 1.393 . S
C2532 H2521 0.950 . S
C2532 C2530 1.391 . S
C2532 C2533 1.400 . S
C2533 C2527 1.491 . S
C2533 C2532 1.400 . S
C2533 C2534 1.398 . S
C2534 H2522 0.950 . S
C2534 C2533 1.398 . S
C2534 C2535 1.391 . S
C2535 H2523 0.950 . S
C2535 C2531 1.393 . S
C2535 C2534 1.391 . S
H2536 C2544 0.950 . S
H2537 C2549 0.950 . S
H2538 C2546 0.950 . S
H2539 C2548 0.950 . S
H2540 C2550 0.950 . S
H2541 C2552 0.950 . S
H2542 C2554 0.950 . S
H2543 C2555 0.950 . S
C2544 H2536 0.950 . S
C2544 C2545 1.386 1_565 S
C2544 C2546 1.391 . S
C2545 C2544 1.386 1_545 S
C2545 C2549 1.393 . S
C2546 H2538 0.950 . S
C2546 C2544 1.391 . S
C2546 C2547 1.400 1_565 S
C2547 C2546 1.400 1_545 S
C2547 C2548 1.398 . S
C2547 C2553 1.491 . S
C2548 H2539 0.950 . S
C2548 C2547 1.398 . S
C2548 C2549 1.391 . S
C2549 H2537 0.950 . S
C2549 C2545 1.393 . S
C2549 C2548 1.391 . S
C2550 H2540 0.950 . S
C2550 C2551 1.386 . S
C2550 C2552 1.391 . S
C2551 C2550 1.386 . S
C2551 C2555 1.393 1_545 S
C2552 H2541 0.950 . S
C2552 C2550 1.391 . S
C2552 C2553 1.400 . S
C2553 C2547 1.491 . S
C2553 C2552 1.400 . S
C2553 C2554 1.398 1_545 S
C2554 H2542 0.950 . S
C2554 C2553 1.398 1_565 S
C2554 C2555 1.391 . S
C2555 H2543 0.950 . S
C2555 C2551 1.393 1_565 S
C2555 C2554 1.391 . S
C1125 C9 1.448 1_655 S
C1131 C729 1.487 . S
C1145 C19 1.578 . S
C1151 C777 1.566 . S
C1171 C825 1.521 . S
C1165 C33 1.529 . S
C1185 C37 1.504 1_565 S
C1191 C849 1.502 . S
C1205 C5 1.482 . S
C1211 C921 1.477 . S
C1225 C23 1.610 . S
C1231 C969 1.609 . S
C1245 C47 1.499 . S
C1251 C897 1.500 . S
C1271 C945 1.620 . S
C1265 C65 1.632 . S
C1291 C873 1.490 . S
C1285 C75 1.494 . S
C1305 C79 1.442 . S
C1311 C801 1.445 . S
C1331 C705 1.527 . S
C1325 C51 1.511 . S
C1345 C61 1.603 . S
C1351 C753 1.591 . S
C1365 C93 1.705 . S
C1371 C1017 1.694 . S
C1385 C103 1.641 . S
C1391 C1065 1.637 . S
C1411 C1089 1.638 . S
C1405 C117 1.665 . S
C1425 C121 1.625 . S
C1431 C273 1.612 . S
C1445 C89 1.641 . S
C1451 C345 1.634 . S
C1465 C107 1.661 . S
C1471 C393 1.651 . S
C1485 C131 1.606 . S
C1491 C321 1.599 . S
C1505 C149 1.668 . S
C1511 C369 1.662 . S
C1531 C297 1.577 . S
C1525 C159 1.630 . S
C1551 C1113 1.632 . S
C1545 C163 1.669 . S
C1571 C993 1.680 . S
C1565 C135 1.688 . S
C1591 C1041 1.656 . S
C1585 C145 1.666 . S
C1605 C177 1.624 . S
C1611 C441 1.611 . S
C1625 C187 1.613 . S
C1631 C489 1.596 . S
C1645 C201 1.670 . S
C1651 C513 1.658 . S
C1665 C205 1.707 . S
C1671 C561 1.691 . S
C1691 C633 1.630 . S
C1685 C173 1.635 . S
C1711 C681 1.682 . S
C1705 C191 1.693 . S
C1731 C609 1.687 . S
C1725 C215 1.695 . S
C1751 C657 1.697 . S
C1745 C233 1.706 . S
C1765 C243 1.624 . S
C1771 C585 1.573 . S
C1791 C537 1.528 . S
C1785 C247 1.581 . S
C1805 C219 1.692 . S
C1811 C417 1.687 . S
C1831 C465 1.641 . S
C1825 C229 1.649 . S
C1851 C282 1.568 . S
C1845 C11 1.568 . S
C1865 C14 1.515 . S
C1871 C336 1.490 . S
C1891 C384 1.621 . S
C1885 C28 1.647 . S
C1911 C432 1.601 . S
C1905 C39 1.641 . S
C1931 C480 1.556 . S
C1925 C0 1.588 . S
C1951 C522 1.477 . S
C1945 C25 1.477 . S
C1965 C42 1.642 . S
C1971 C528 1.623 . S
C1985 C67 1.534 . S
C1991 C426 1.499 . S
C2005 C70 1.532 . S
C2011 C474 1.506 . S
C2025 C81 1.563 . S
C2031 C330 1.531 . S
C2051 C378 1.562 . S
C2045 C53 1.618 . S
C2065 C56 1.555 . S
C2071 C288 1.530 . S
C2091 C570 1.532 . S
C2085 C95 1.537 . S
C2105 C98 1.630 . S
C2111 C624 1.596 . S
C2125 C112 1.702 . S
C2131 C672 1.668 . S
C2151 C720 1.438 . S
C2145 C123 1.433 . S
C2165 C84 1.561 . S
C2171 C768 1.537 . S
C2185 C109 1.368 . S
C2191 C816 1.386 . S
C2205 C126 1.462 . S
C2211 C810 1.458 . S
C2225 C151 1.420 . S
C2231 C714 1.414 . S
C2251 C762 1.498 . S
C2245 C154 1.532 . S
C2265 C165 1.525 . S
C2271 C618 1.497 . S
C2285 C137 1.655 . S
C2291 C666 1.608 . S
C2311 C576 1.653 . S
C2305 C140 1.661 . S
C2331 C858 1.417 . S
C2325 C179 1.408 . S
C2345 C182 1.409 . S
C2351 C912 1.414 . S
C2365 C196 1.620 . S
C2371 C960 1.605 . S
C2391 C1008 1.569 . S
C2385 C207 1.606 . S
C2411 C1056 1.600 . S
C2405 C168 1.627 . S
C2425 C193 1.595 . S
C2431 C1098 1.599 . S
C2445 C210 1.619 . S
C2451 C1104 1.599 . S
C2465 C235 1.648 . S
C2471 C1002 1.599 . S
C2491 C1050 1.575 . S
C2485 C238 1.590 . S
C2511 C906 1.380 . S
C2505 C249 1.359 . S
C2531 C954 1.538 . S
C2525 C221 1.585 . S
C2545 C224 1.438 . S
C2551 C864 1.452 . S
