# Generated by pormake.
# Topology ftw, (4,12)-cn, num edge types: 1
# Building blocks:
#     Node 0, Type 0, BuildingBlock: NAHDIM_clean_linker_0, # of connection points: 4
#     Node 1, Type 0, BuildingBlock: NAHDIM_clean_linker_0, # of connection points: 4
#     Node 2, Type 0, BuildingBlock: NAHDIM_clean_linker_0, # of connection points: 4
#     Node 3, Type 1, BuildingBlock: QEWDON_clean_sbu_0, # of connection points: 12
#     Edge 4, Type (0, 1), BuildingBlock: MIFKUJ_clean_linker_0, # of connection points: 2
#     Edge 5, Type (0, 1), BuildingBlock: MIFKUJ_clean_linker_0, # of connection points: 2
#     Edge 6, Type (0, 1), BuildingBlock: MIFKUJ_clean_linker_0, # of connection points: 2
#     Edge 7, Type (0, 1), BuildingBlock: MIFKUJ_clean_linker_0, # of connection points: 2
#     Edge 8, Type (0, 1), BuildingBlock: MIFKUJ_clean_linker_0, # of connection points: 2
#     Edge 9, Type (0, 1), BuildingBlock: MIFKUJ_clean_linker_0, # of connection points: 2
#     Edge 10, Type (0, 1), BuildingBlock: MIFKUJ_clean_linker_0, # of connection points: 2
#     Edge 11, Type (0, 1), BuildingBlock: MIFKUJ_clean_linker_0, # of connection points: 2
#     Edge 12, Type (0, 1), BuildingBlock: MIFKUJ_clean_linker_0, # of connection points: 2
#     Edge 13, Type (0, 1), BuildingBlock: MIFKUJ_clean_linker_0, # of connection points: 2
#     Edge 14, Type (0, 1), BuildingBlock: MIFKUJ_clean_linker_0, # of connection points: 2
#     Edge 15, Type (0, 1), BuildingBlock: MIFKUJ_clean_linker_0, # of connection points: 2
# Relax obj value: 0.035
# Max RMSD: 0.106
# Mean RMSD: 0.084
data_MOF--net-ftw--node1-QEWDON_clean_sbu_0--node2-NAHDIM_clean_linker_0--edge1-MIFKUJ_clean_linker_0
_symmetry_space_group_name_H-M    P1
_symmetry_Int_Tables_number       1
_symmetry_cell_setting            triclinic
loop_
_symmetry_equiv_pos_as_xyz
'x, y, z'
_cell_length_a     38.531771
_cell_length_b     37.910687
_cell_length_c     39.79234
_cell_angle_alpha  90.347391
_cell_angle_beta   89.678879
_cell_angle_gamma 89.604452
loop_
_atom_site_label
_atom_site_type_symbol
_atom_site_fract_x
_atom_site_fract_y
_atom_site_fract_z
_atom_type_partial_charge
C0 C 0.95596 0.64133 0.31881 0.0
C1 C 0.96966 0.66642 0.34609 0.0
C2 C 0.00131 0.62364 0.38111 0.0
C3 C 0.97186 0.60685 0.39443 0.0
C4 C 0.97512 0.57606 0.41361 0.0
C5 C 0.00853 0.56217 0.42036 0.0
C6 C 0.03826 0.57958 0.40793 0.0
C7 C 0.03421 0.61008 0.38842 0.0
C8 C 0.9428 0.55815 0.4264 0.0
C9 C 0.07427 0.56579 0.41507 0.0
C10 C 0.05782 0.30178 0.31804 0.0
C11 C 0.06389 0.33107 0.34221 0.0
C12 C 0.03095 0.37184 0.37825 0.0
C13 C 0.06005 0.38949 0.39107 0.0
C14 C 0.05603 0.41977 0.41124 0.0
C15 C 0.02229 0.43254 0.41886 0.0
C16 C 0.99296 0.41444 0.40656 0.0
C17 C 0.99773 0.38419 0.38651 0.0
C18 C 0.08781 0.43828 0.42432 0.0
C19 C 0.95664 0.42724 0.41441 0.0
C20 C 0.00307 0.36739 0.63865 0.0
C21 C 0.03494 0.38003 0.62676 0.0
C22 C 0.03653 0.41148 0.60831 0.0
C23 C 0.00547 0.4301 0.60104 0.0
C24 C 0.97335 0.41735 0.61323 0.0
C25 C 0.97271 0.38645 0.63242 0.0
C26 C 0.07139 0.42501 0.59697 0.0
C27 C 0.93966 0.43639 0.60617 0.0
C28 C 0.94273 0.69552 0.62722 0.0
C29 C 0.95547 0.67644 0.65875 0.0
C30 C 0.98799 0.62511 0.6361 0.0
C31 C 0.02125 0.61102 0.63123 0.0
C32 C 0.02635 0.57877 0.61442 0.0
C33 C 0.99733 0.56022 0.60211 0.0
C34 C 0.96348 0.57389 0.60753 0.0
C35 C 0.95911 0.60619 0.62452 0.0
C36 C 0.06276 0.56484 0.60915 0.0
C37 C 0.93198 0.55466 0.59475 0.0
C38 C 0.01218 0.52918 0.44008 0.0
C39 C 0.0161 0.49737 0.42246 0.0
C40 C 0.01774 0.46514 0.43931 0.0
C41 C 0.015 0.46437 0.47475 0.0
C42 C 0.01533 0.43235 0.49242 0.0
C43 C 0.01226 0.43189 0.5273 0.0
C44 C 0.00938 0.46344 0.54591 0.0
C45 C 0.00649 0.46332 0.5814 0.0
C46 C 0.00318 0.49525 0.59897 0.0
C47 C 0.00241 0.52744 0.58209 0.0
C48 C 0.00552 0.52813 0.54669 0.0
C49 C 0.00503 0.56015 0.52899 0.0
C50 C 0.00747 0.56058 0.49412 0.0
C51 C 0.01047 0.52903 0.47558 0.0
C52 C 0.01159 0.49647 0.49294 0.0
C53 C 0.00898 0.49602 0.52855 0.0
C54 C 0.99158 0.28668 0.62396 0.0
C55 C 0.01544 0.30526 0.64913 0.0
O56 O 0.99925 0.65243 0.36083 0.0
O57 O 0.98529 0.65708 0.65161 0.0
O58 O 0.00093 0.33776 0.65744 0.0
O59 O 0.03375 0.34312 0.35778 0.0
H60 H 0.94933 0.67072 0.36567 0.0
H61 H 0.94812 0.61572 0.32967 0.0
H62 H 0.97627 0.63617 0.29941 0.0
H63 H 0.9328 0.65303 0.3065 0.0
H64 H 0.94617 0.6173 0.38974 0.0
H65 H 0.05683 0.62328 0.37835 0.0
H66 H 0.94304 0.52991 0.41878 0.0
H67 H 0.91868 0.5707 0.41686 0.0
H68 H 0.94224 0.55919 0.45428 0.0
H69 H 0.09479 0.58374 0.4057 0.0
H70 H 0.07782 0.53958 0.40287 0.0
H71 H 0.07761 0.56217 0.44254 0.0
H72 H 0.08047 0.35274 0.3323 0.0
H73 H 0.06538 0.31306 0.29301 0.0
H74 H 0.02915 0.30151 0.31262 0.0
H75 H 0.084 0.25894 0.33939 0.0
H76 H 0.08593 0.37978 0.38547 0.0
H77 H 0.97545 0.37026 0.37672 0.0
H78 H 0.08685 0.4394 0.4522 0.0
H79 H 0.08816 0.46586 0.4151 0.0
H80 H 0.11228 0.4249 0.41639 0.0
H81 H 0.93652 0.40994 0.40328 0.0
H82 H 0.95304 0.45438 0.40463 0.0
H83 H 0.95268 0.42841 0.44206 0.0
H84 H 0.0414 0.30859 0.63729 0.0
H85 H 0.05864 0.36594 0.63268 0.0
H86 H 0.94832 0.37664 0.64221 0.0
H87 H 0.07342 0.42301 0.56919 0.0
H88 H 0.09324 0.40989 0.60809 0.0
H89 H 0.0741 0.45327 0.60394 0.0
H90 H 0.91669 0.4204 0.61311 0.0
H91 H 0.93797 0.44326 0.57914 0.0
H92 H 0.93873 0.46135 0.62088 0.0
H93 H 0.93476 0.65862 0.66809 0.0
H94 H 0.91931 0.71166 0.63324 0.0
H95 H 0.93572 0.67623 0.60736 0.0
H96 H 0.96325 0.71302 0.61707 0.0
H97 H 0.04335 0.6257 0.64036 0.0
H98 H 0.93314 0.61652 0.62817 0.0
H99 H 0.06845 0.56287 0.58181 0.0
H100 H 0.06504 0.53789 0.61972 0.0
H101 H 0.08255 0.58195 0.62107 0.0
H102 H 0.90732 0.56802 0.60215 0.0
H103 H 0.9318 0.52734 0.60462 0.0
H104 H 0.93317 0.55282 0.56691 0.0
H105 H 0.01758 0.49767 0.39522 0.0
H106 H 0.01769 0.40725 0.47946 0.0
H107 H 0.0123 0.40644 0.53948 0.0
H108 H 0.00067 0.49501 0.62615 0.0
H109 H 0.00266 0.58529 0.54188 0.0
H110 H 0.00692 0.586 0.48187 0.0
H111 H 0.96575 0.28174 0.63554 0.0
H112 H 0.00301 0.2612 0.61539 0.0
H113 H 0.9879 0.30346 0.60145 0.0
C114 C 0.68931 0.09438 0.64719 0.0
C115 C 0.676 0.06484 0.67012 0.0
C116 C 0.63722 0.02933 0.63441 0.0
C117 C 0.63249 0.99605 0.61991 0.0
C118 C 0.60216 0.98788 0.60212 0.0
C119 C 0.5762 0.01408 0.59797 0.0
C120 C 0.58083 0.04793 0.61243 0.0
C121 C 0.61103 0.05508 0.6308 0.0
C122 C 0.59786 0.9512 0.58788 0.0
C123 C 0.55384 0.07666 0.60849 0.0
C124 C 0.38817 0.02985 0.71808 0.0
C125 C 0.35994 0.02688 0.6912 0.0
C126 C 0.39286 0.99728 0.64644 0.0
C127 C 0.4029 0.0272 0.62818 0.0
C128 C 0.43131 0.02591 0.60604 0.0
C129 C 0.44996 0.99392 0.60166 0.0
C130 C 0.43898 0.96329 0.61871 0.0
C131 C 0.41033 0.96532 0.64073 0.0
C132 C 0.44184 0.05903 0.5878 0.0
C133 C 0.458 0.92868 0.61418 0.0
C134 C 0.38738 0.9593 0.38279 0.0
C135 C 0.39057 0.99351 0.39602 0.0
C136 C 0.42032 0.00335 0.41401 0.0
C137 C 0.44713 0.97825 0.41928 0.0
C138 C 0.44407 0.94388 0.40552 0.0
C139 C 0.41442 0.93505 0.387 0.0
C140 C 0.42326 0.04065 0.42709 0.0
C141 C 0.47212 0.91644 0.41037 0.0
C142 C 0.7086 0.05928 0.39817 0.0
C143 C 0.69419 0.03239 0.37311 0.0
C144 C 0.63127 0.03221 0.3802 0.0
C145 C 0.60568 0.05764 0.38671 0.0
C146 C 0.57538 0.04912 0.40458 0.0
C147 C 0.57037 0.01406 0.41553 0.0
C148 C 0.59541 0.98781 0.40751 0.0
C149 C 0.62562 0.99715 0.38988 0.0
C150 C 0.54906 0.07769 0.41242 0.0
C151 C 0.5904 0.94999 0.41798 0.0
C152 C 0.54405 0.00605 0.57885 0.0
C153 C 0.51352 0.0001 0.59706 0.0
C154 C 0.4821 0.99355 0.58081 0.0
C155 C 0.48127 0.99097 0.54535 0.0
C156 C 0.45059 0.98236 0.52829 0.0
C157 C 0.44984 0.98071 0.49331 0.0
C158 C 0.4795 0.98855 0.47404 0.0
C159 C 0.47876 0.98804 0.43844 0.0
C160 C 0.5087 0.99649 0.42019 0.0
C161 C 0.5396 0.00516 0.43644 0.0
C162 C 0.54094 0.00536 0.47197 0.0
C163 C 0.57164 0.01384 0.48912 0.0
C164 C 0.57278 0.01392 0.52406 0.0
C165 C 0.54321 0.00576 0.54328 0.0
C166 C 0.51181 0.99768 0.52651 0.0
C167 C 0.51076 0.99712 0.49081 0.0
C168 C 0.31378 0.9226 0.39624 0.0
C169 C 0.32492 0.95402 0.37485 0.0
O170 O 0.66736 0.0353 0.65129 0.0
O171 O 0.66077 0.04219 0.36409 0.0
O172 O 0.3592 0.94936 0.36478 0.0
O173 O 0.36702 0.99846 0.66998 0.0
H174 H 0.65265 0.07514 0.68366 0.0
H175 H 0.66789 0.10528 0.63184 0.0
H176 H 0.70961 0.08437 0.62959 0.0
H177 H 0.70006 0.11632 0.66248 0.0
H178 H 0.65267 0.97626 0.62284 0.0
H179 H 0.61388 0.08094 0.64194 0.0
H180 H 0.57204 0.94059 0.59492 0.0
H181 H 0.61829 0.93273 0.59682 0.0
H182 H 0.59919 0.95219 0.56004 0.0
H183 H 0.56346 0.10281 0.61689 0.0
H184 H 0.53058 0.07006 0.62372 0.0
H185 H 0.54565 0.07861 0.58185 0.0
H186 H 0.35971 0.05182 0.67679 0.0
H187 H 0.38209 0.05189 0.73575 0.0
H188 H 0.41365 0.03526 0.70606 0.0
H189 H 0.39039 0.00494 0.7325 0.0
H190 H 0.38876 0.05176 0.6309 0.0
H191 H 0.40219 0.94219 0.65449 0.0
H192 H 0.44017 0.05462 0.56025 0.0
H193 H 0.46921 0.0655 0.59367 0.0
H194 H 0.42521 0.08206 0.59463 0.0
H195 H 0.44469 0.90665 0.62713 0.0
H196 H 0.48466 0.93107 0.62435 0.0
H197 H 0.46042 0.92221 0.587 0.0
H198 H 0.32208 0.9783 0.3905 0.0
H199 H 0.37027 0.01278 0.39161 0.0
H200 H 0.41191 0.90889 0.3762 0.0
H201 H 0.42259 0.04055 0.45497 0.0
H202 H 0.4019 0.0579 0.41802 0.0
H203 H 0.44846 0.05212 0.41922 0.0
H204 H 0.46424 0.88999 0.4011 0.0
H205 H 0.47886 0.91447 0.4374 0.0
H206 H 0.49588 0.92447 0.39657 0.0
H207 H 0.69425 0.0064 0.38591 0.0
H208 H 0.73562 0.05211 0.40515 0.0
H209 H 0.69243 0.05955 0.42137 0.0
H210 H 0.70837 0.08624 0.38735 0.0
H211 H 0.61001 0.08449 0.37857 0.0
H212 H 0.64454 0.97696 0.38343 0.0
H213 H 0.5456 0.08016 0.44006 0.0
H214 H 0.52355 0.07045 0.40164 0.0
H215 H 0.55687 0.10371 0.40227 0.0
H216 H 0.61111 0.93226 0.40792 0.0
H217 H 0.56485 0.94039 0.40911 0.0
H218 H 0.59037 0.94835 0.44582 0.0
H219 H 0.51397 0.00182 0.62429 0.0
H220 H 0.42689 0.97655 0.54185 0.0
H221 H 0.42557 0.97366 0.48156 0.0
H222 H 0.50797 0.99623 0.39294 0.0
H223 H 0.59521 0.0205 0.47573 0.0
H224 H 0.59712 0.02073 0.53583 0.0
H225 H 0.31627 0.89761 0.38164 0.0
H226 H 0.28642 0.92594 0.40472 0.0
H227 H 0.33046 0.92073 0.41884 0.0
C228 C 0.61894 0.75685 0.95614 0.0
C229 C 0.62898 0.72431 0.97659 0.0
C230 C 0.60181 0.66672 0.97272 0.0
C231 C 0.60697 0.65605 0.00605 0.0
C232 C 0.58644 0.62957 0.02029 0.0
C233 C 0.56013 0.61369 0.00083 0.0
C234 C 0.55601 0.62326 0.96674 0.0
C235 C 0.57738 0.64935 0.95298 0.0
C236 C 0.59216 0.61936 0.05644 0.0
C237 C 0.52811 0.60701 0.94528 0.0
C238 C 0.31611 0.63809 0.15383 0.0
C239 C 0.33768 0.64141 0.12165 0.0
C240 C 0.39899 0.62889 0.10947 0.0
C241 C 0.39501 0.62358 0.07469 0.0
C242 C 0.42254 0.61031 0.05502 0.0
C243 C 0.45457 0.6022 0.07044 0.0
C244 C 0.45907 0.60887 0.10514 0.0
C245 C 0.43118 0.62231 0.12417 0.0
C246 C 0.41716 0.60402 0.01794 0.0
C247 C 0.49301 0.6008 0.12228 0.0
C248 C 0.40119 0.38588 0.08202 0.0
C249 C 0.39839 0.39854 0.04911 0.0
C250 C 0.42748 0.41203 0.03233 0.0
C251 C 0.45975 0.41334 0.04913 0.0
C252 C 0.46315 0.3979 0.08124 0.0
C253 C 0.43375 0.38389 0.09714 0.0
C254 C 0.42323 0.42692 0.99751 0.0
C255 C 0.49728 0.39833 0.09962 0.0
C256 C 0.7116 0.3872 0.91017 0.0
C257 C 0.68939 0.38094 0.94153 0.0
C258 C 0.62752 0.39278 0.95083 0.0
C259 C 0.59663 0.40042 0.93411 0.0
C260 C 0.56816 0.4154 0.95123 0.0
C261 C 0.57067 0.42245 0.98607 0.0
C262 C 0.60133 0.41335 0.00348 0.0
C263 C 0.62947 0.39855 0.9857 0.0
C264 C 0.53571 0.4245 0.932 0.0
C265 C 0.60453 0.41987 0.04079 0.0
C266 C 0.53494 0.58961 0.01697 0.0
C267 C 0.5077 0.60502 0.03536 0.0
C268 C 0.48252 0.58434 0.05086 0.0
C269 C 0.48407 0.54724 0.04768 0.0
C270 C 0.45886 0.52575 0.06269 0.0
C271 C 0.46019 0.48934 0.059 0.0
C272 C 0.48685 0.47289 0.0402 0.0
C273 C 0.48787 0.43586 0.03566 0.0
C274 C 0.51533 0.42017 0.01786 0.0
C275 C 0.54183 0.44069 0.00405 0.0
C276 C 0.54069 0.47789 0.00745 0.0
C277 C 0.56644 0.4994 0.99318 0.0
C278 C 0.56477 0.536 0.99637 0.0
C279 C 0.53732 0.55246 0.01399 0.0
C280 C 0.51151 0.53125 0.02911 0.0
C281 C 0.51305 0.49398 0.02561 0.0
C282 C 0.33237 0.40445 0.1371 0.0
C283 C 0.34167 0.39514 0.1007 0.0
O284 O 0.61929 0.69421 0.95919 0.0
O285 O 0.65476 0.38015 0.93243 0.0
O286 O 0.37282 0.37656 0.10012 0.0
O287 O 0.37256 0.63999 0.12976 0.0
H288 H 0.61412 0.72666 0.00064 0.0
H289 H 0.59032 0.75782 0.95298 0.0
H290 H 0.63115 0.75605 0.93079 0.0
H291 H 0.62709 0.78129 0.96939 0.0
H292 H 0.62673 0.66864 0.02107 0.0
H293 H 0.57397 0.65751 0.92714 0.0
H294 H 0.57029 0.62957 0.07204 0.0
H295 H 0.61673 0.63021 0.06654 0.0
H296 H 0.59269 0.5902 0.0589 0.0
H297 H 0.52754 0.61824 0.91956 0.0
H298 H 0.50231 0.61124 0.95729 0.0
H299 H 0.53248 0.57811 0.94322 0.0
H300 H 0.33091 0.61837 0.10551 0.0
H301 H 0.28796 0.63887 0.14792 0.0
H302 H 0.32209 0.65982 0.17172 0.0
H303 H 0.32202 0.61255 0.16617 0.0
H304 H 0.3705 0.62943 0.06275 0.0
H305 H 0.43411 0.62691 0.15091 0.0
H306 H 0.4189 0.5753 0.01246 0.0
H307 H 0.43795 0.61713 0.00327 0.0
H308 H 0.39156 0.61396 0.00926 0.0
H309 H 0.49265 0.60846 0.14927 0.0
H310 H 0.51441 0.61497 0.10949 0.0
H311 H 0.49875 0.57211 0.12026 0.0
H312 H 0.34429 0.42066 0.08716 0.0
H313 H 0.37332 0.39873 0.03691 0.0
H314 H 0.43566 0.37333 0.12232 0.0
H315 H 0.42264 0.45616 0.99905 0.0
H316 H 0.3988 0.41796 0.98556 0.0
H317 H 0.44553 0.4191 0.98124 0.0
H318 H 0.49602 0.38387 0.12379 0.0
H319 H 0.50484 0.42604 0.10484 0.0
H320 H 0.51792 0.38628 0.08362 0.0
H321 H 0.69422 0.40378 0.95859 0.0
H322 H 0.73956 0.38784 0.91688 0.0
H323 H 0.7045 0.41294 0.89883 0.0
H324 H 0.70746 0.3661 0.89113 0.0
H325 H 0.59522 0.39544 0.9073 0.0
H326 H 0.65285 0.39163 0.99915 0.0
H327 H 0.5307 0.45334 0.9337 0.0
H328 H 0.51307 0.411 0.94341 0.0
H329 H 0.53765 0.41679 0.90507 0.0
H330 H 0.62943 0.40973 0.05097 0.0
H331 H 0.58275 0.40704 0.0543 0.0
H332 H 0.60273 0.44863 0.04601 0.0
H333 H 0.50606 0.63353 0.03765 0.0
H334 H 0.43763 0.53681 0.07735 0.0
H335 H 0.43996 0.47432 0.07115 0.0
H336 H 0.51608 0.39173 0.01471 0.0
H337 H 0.58808 0.48821 0.9792 0.0
H338 H 0.58521 0.55126 0.9848 0.0
H339 H 0.32985 0.38021 0.15248 0.0
H340 H 0.3075 0.41947 0.1382 0.0
H341 H 0.35304 0.42112 0.14813 0.0
Zn342 Zn 0.05719 0.09237 0.98432 0.0
Zn343 Zn 0.06252 0.08561 0.06385 0.0
O344 O 0.06891 0.05746 0.02138 0.0
H345 H 0.08467 0.03787 0.01777 0.0
C346 C 0.98418 0.09759 0.94342 0.0
O347 O 0.9846 0.11404 0.97258 0.0
Zn348 Zn 0.96648 0.92814 0.05368 0.0
Zn349 Zn 0.9666 0.93157 0.97182 0.0
O350 O 0.9641 0.96085 0.01442 0.0
H351 H 0.96273 0.98625 0.01473 0.0
Zn352 Zn 0.94539 0.05103 0.98521 0.0
O353 O 0.97675 0.05243 0.02595 0.0
Zn354 Zn 0.94356 0.0497 0.06453 0.0
H355 H 0.99996 0.04266 0.02553 0.0
Zn356 Zn 0.07584 0.94853 0.98126 0.0
O357 O 0.05054 0.9672 0.02229 0.0
H358 H 0.0306 0.98275 0.02154 0.0
Zn359 Zn 0.08423 0.96524 0.06024 0.0
C360 C 0.06532 0.91546 0.91746 0.0
O361 O 0.09875 0.92198 0.91664 0.0
O362 O 0.06876 0.1433 0.99868 0.0
O363 O 0.0746 0.13671 0.05388 0.0
O364 O 0.95458 0.87988 0.98184 0.0
O365 O 0.95481 0.8784 0.03786 0.0
O366 O 0.89676 0.07196 0.99565 0.0
O367 O 0.89804 0.07328 0.05155 0.0
C368 C 0.09946 0.03344 0.10072 0.0
O369 O 0.1242 0.92804 0.99144 0.0
O370 O 0.13052 0.94447 0.04485 0.0
O371 O 0.94168 0.95338 0.93053 0.0
C372 C 0.07585 0.15584 0.0276 0.0
O373 O 0.07574 0.07939 0.93679 0.0
C374 C 0.92434 0.97587 0.09282 0.0
O375 O 0.96872 0.06817 0.94124 0.0
C376 C 0.95047 0.86328 0.00935 0.0
O377 O 0.0479 0.92461 0.94327 0.0
C378 C 0.99443 0.08555 0.10471 0.0
O379 O 0.09328 0.06636 0.10081 0.0
O380 O 0.08754 0.01526 0.07657 0.0
C381 C 0.88286 0.08001 0.02386 0.0
O382 O 0.93113 0.94331 0.08856 0.0
O383 O 0.93918 0.99765 0.07342 0.0
C384 C 0.0346 0.92294 0.09617 0.0
O385 O 0.96318 0.07502 0.10498 0.0
O386 O 0.0126 0.07948 0.07846 0.0
C387 C 0.14223 0.92979 0.01811 0.0
O388 O 0.06571 0.93382 0.09668 0.0
O389 O 0.01508 0.93298 0.0723 0.0
C390 C 0.90915 0.95812 0.93392 0.0
O391 O 0.89433 0.94927 0.96244 0.0
C392 C 0.08372 0.04793 0.9285 0.0
O393 O 0.078 0.02234 0.94991 0.0
H394 H 0.1389 0.31312 0.32721 0.0
H395 H 0.12292 0.26295 0.27447 0.0
H396 H 0.01346 0.22742 0.33338 0.0
H397 H 0.0267 0.27627 0.38806 0.0
H398 H 0.05064 0.17334 0.303 0.0
H399 H 0.01469 0.28371 0.24741 0.0
H400 H 0.02323 0.34543 0.2298 0.0
H401 H 0.12006 0.31662 0.1828 0.0
H402 H 0.11199 0.25476 0.20025 0.0
H403 H 0.96383 0.09322 0.16637 0.0
H404 H 0.98371 0.12862 0.21375 0.0
H405 H 0.07632 0.15552 0.15838 0.0
H406 H 0.05574 0.12161 0.11065 0.0
H407 H 0.04943 0.21209 0.18415 0.0
H408 H 0.07893 0.0995 0.22744 0.0
H409 H 0.06997 0.03717 0.24221 0.0
H410 H 0.98869 0.06734 0.31106 0.0
H411 H 0.99696 0.12993 0.29649 0.0
C412 C 0.11655 0.29612 0.32913 0.0
C413 C 0.08109 0.30453 0.36022 0.0
C414 C 0.10537 0.26627 0.29555 0.0
C415 C 0.06535 0.24167 0.297 0.0
C416 C 0.03636 0.24374 0.33283 0.0
C417 C 0.04513 0.27282 0.36767 0.0
C418 C 0.05729 0.21707 0.26932 0.0
C419 C 0.04999 0.18181 0.27702 0.0
C420 C 0.05768 0.22784 0.23542 0.0
C421 C 0.06307 0.26495 0.22567 0.0
C422 C 0.03788 0.29068 0.23351 0.0
C423 C 0.04259 0.32562 0.22349 0.0
C424 C 0.07227 0.33499 0.20536 0.0
C425 C 0.09719 0.30938 0.19702 0.0
C426 C 0.09255 0.2744 0.20695 0.0
C427 C 0.9886 0.10642 0.16431 0.0
C428 C 0.00834 0.10435 0.13448 0.0
C429 C 1.00007 0.12645 0.1916 0.0
C430 C 0.03174 0.14447 0.18983 0.0
C431 C 0.05184 0.14178 0.16042 0.0
C432 C 0.04018 0.12203 0.13307 0.0
C433 C 0.04266 0.16811 0.21764 0.0
C434 C 0.05041 0.2033 0.21004 0.0
C435 C 0.04328 0.15698 0.25152 0.0
C436 C 0.03844 0.11942 0.26073 0.0
C437 C 0.05903 0.09286 0.24562 0.0
C438 C 0.0541 0.05748 0.25398 0.0
C439 C 0.02879 0.04832 0.27758 0.0
C440 C 0.00835 0.07451 0.29285 0.0
C441 C 0.01319 0.10996 0.2846 0.0
H442 H 0.02507 0.02092 0.28407 0.0
H443 H 0.07589 0.36205 0.19765 0.0
H444 H 0.70331 0.08174 0.32325 0.0
H445 H 0.74298 0.07886 0.27489 0.0
H446 H 0.77631 0.97491 0.3051 0.0
H447 H 0.73754 0.97818 0.35385 0.0
H448 H 0.8305 0.01267 0.28848 0.0
H449 H 0.71868 0.98972 0.2392 0.0
H450 H 0.65757 0.00219 0.2252 0.0
H451 H 0.68797 0.09652 0.17395 0.0
H452 H 0.74923 0.0849 0.18813 0.0
H453 H 0.89632 0.93422 0.14106 0.0
H454 H 0.85824 0.95148 0.18742 0.0
H455 H 0.86006 0.05943 0.15408 0.0
H456 H 0.89906 0.04247 0.10776 0.0
H457 H 0.79054 0.02865 0.17117 0.0
H458 H 0.90332 0.04864 0.2176 0.0
H459 H 0.96437 0.03286 0.22871 0.0
H460 H 0.93154 0.94132 0.28308 0.0
H461 H 0.87027 0.95642 0.27203 0.0
C462 C 0.71902 0.05826 0.31939 0.0
C463 C 0.71715 0.03007 0.34215 0.0
C464 C 0.7416 0.05658 0.29174 0.0
C465 C 0.76244 0.02652 0.28615 0.0
C466 C 0.76054 0.99839 0.30888 0.0
C467 C 0.73822 0.00017 0.33661 0.0
C468 C 0.78657 0.02423 0.25692 0.0
C469 C 0.82162 0.01603 0.26287 0.0
C470 C 0.77534 0.02957 0.22345 0.0
C471 C 0.73849 0.03669 0.21513 0.0
C472 C 0.7123 0.01331 0.22525 0.0
C473 C 0.67764 0.0202 0.21723 0.0
C474 C 0.66887 0.0502 0.19882 0.0
C475 C 0.69477 0.07335 0.18831 0.0
C476 C 0.72947 0.06663 0.19633 0.0
C477 C 0.88869 0.96169 0.1434 0.0
C478 C 0.90071 0.98702 0.12046 0.0
C479 C 0.86692 0.97146 0.16998 0.0
C480 C 0.85646 0.00669 0.17412 0.0
C481 C 0.86786 0.03207 0.15115 0.0
C482 C 0.89014 0.02235 0.12469 0.0
C483 C 0.83393 0.01649 0.20293 0.0
C484 C 0.79933 0.026 0.1969 0.0
C485 C 0.84545 0.01224 0.2363 0.0
C486 C 0.88221 0.00356 0.24383 0.0
C487 C 0.90913 0.02507 0.23182 0.0
C488 C 0.94377 0.01627 0.23813 0.0
C489 C 0.95182 0.98605 0.25653 0.0
C490 C 0.92525 0.96472 0.26884 0.0
C491 C 0.89055 0.97344 0.26263 0.0
H492 H 0.97864 0.97915 0.26126 0.0
H493 H 0.64203 0.05546 0.1926 0.0
H494 H 0.02901 0.68645 0.31217 0.0
H495 H 0.03748 0.73931 0.27828 0.0
H496 H 0.93604 0.7775 0.30786 0.0
H497 H 0.92745 0.72456 0.34178 0.0
H498 H 0.94257 0.77586 0.24178 0.0
H499 H 0.00849 0.82169 0.33137 0.0
H500 H 0.05261 0.82537 0.37582 0.0
H501 H 0.1337 0.81444 0.302 0.0
H502 H 0.0901 0.80986 0.25712 0.0
H503 H 0.97323 0.92371 0.13162 0.0
H504 H 0.95824 0.88722 0.18023 0.0
H505 H 0.05667 0.83291 0.17077 0.0
H506 H 0.07144 0.8693 0.12246 0.0
H507 H 0.04583 0.85271 0.23398 0.0
H508 H 0.97728 0.78466 0.15122 0.0
H509 H 0.93296 0.77772 0.1073 0.0
H510 H 0.85856 0.83318 0.16908 0.0
H511 H 0.90234 0.83932 0.21389 0.0
C512 C 0.009 0.70666 0.31232 0.0
C513 C 0.97778 0.70164 0.33011 0.0
C514 C 0.01387 0.73691 0.29297 0.0
C515 C 0.98752 0.76259 0.29078 0.0
C516 C 0.95681 0.75818 0.30938 0.0
C517 C 0.95199 0.72802 0.32884 0.0
C518 C 0.99027 0.7913 0.26568 0.0
C519 C 0.9648 0.79326 0.24065 0.0
C520 C 0.01948 0.81367 0.26376 0.0
C521 C 0.04589 0.8151 0.29083 0.0
C522 C 0.0357 0.81955 0.32461 0.0
C523 C 0.06064 0.82189 0.3499 0.0
C524 C 0.09592 0.82004 0.34175 0.0
C525 C 0.10635 0.81578 0.30829 0.0
C526 C 0.08151 0.8133 0.2829 0.0
C527 C 0.99095 0.90313 0.1392 0.0
C528 C 0.02303 0.89872 0.1228 0.0
C529 C 0.98262 0.88253 0.16723 0.0
C530 C 0.00628 0.85713 0.17911 0.0
C531 C 0.03805 0.8524 0.16223 0.0
C532 C 0.04638 0.87305 0.13451 0.0
C533 C 0.9989 0.83601 0.20965 0.0
C534 C 0.02339 0.83567 0.23568 0.0
C535 C 0.96889 0.8151 0.21266 0.0
C536 C 0.94302 0.81274 0.18556 0.0
C537 C 0.95151 0.79555 0.15526 0.0
C538 C 0.92647 0.79165 0.13031 0.0
C539 C 0.89303 0.80533 0.13525 0.0
C540 C 0.8845 0.8227 0.16527 0.0
C541 C 0.90932 0.82617 0.19054 0.0
H542 H 0.87366 0.80222 0.11596 0.0
H543 H 0.11519 0.82201 0.36135 0.0
H544 H 0.26424 0.99129 0.37025 0.0
H545 H 0.22446 0.99547 0.3227 0.0
H546 H 0.29159 0.92698 0.26427 0.0
H547 H 0.33139 0.92248 0.31197 0.0
H548 H 0.2718 0.98412 0.2285 0.0
H549 H 0.21617 0.8957 0.29155 0.0
H550 H 0.19016 0.86526 0.34001 0.0
H551 H 0.11409 0.94794 0.35048 0.0
H552 H 0.13987 0.97912 0.30229 0.0
H553 H 0.14413 0.97704 0.09828 0.0
H554 H 0.18098 0.95496 0.14374 0.0
H555 H 0.13648 0.03257 0.21129 0.0
H556 H 0.1 0.05489 0.16585 0.0
H557 H 0.14543 0.96194 0.23925 0.0
H558 H 0.20886 0.05254 0.17838 0.0
H559 H 0.23332 0.07826 0.12669 0.0
H560 H 0.29427 0.98448 0.10982 0.0
H561 H 0.26982 0.95806 0.16126 0.0
C562 C 0.2706 0.97731 0.34718 0.0
C563 C 0.30137 0.95732 0.34458 0.0
C564 C 0.24771 0.97942 0.32015 0.0
C565 C 0.25494 0.96138 0.28996 0.0
C566 C 0.28554 0.94118 0.28729 0.0
C567 C 0.30834 0.9388 0.31448 0.0
C568 C 0.23114 0.96496 0.26091 0.0
C569 C 0.24429 0.97858 0.23071 0.0
C570 C 0.19517 0.95793 0.26373 0.0
C571 C 0.18023 0.93996 0.29349 0.0
C572 C 0.19417 0.90765 0.30444 0.0
C573 C 0.17938 0.89018 0.33179 0.0
C574 C 0.15056 0.90471 0.34838 0.0
C575 C 0.13646 0.93674 0.33764 0.0
C576 C 0.15113 0.95431 0.31028 0.0
C577 C 0.14175 0.98882 0.12294 0.0
C578 C 0.11926 0.01757 0.12853 0.0
C579 C 0.16291 0.97637 0.14884 0.0
C580 C 0.16147 0.99224 0.18081 0.0
C581 C 0.13791 0.01995 0.18681 0.0
C582 C 0.11726 0.03277 0.16081 0.0
C583 C 0.18608 0.98176 0.20748 0.0
C584 C 0.17303 0.96696 0.23712 0.0
C585 C 0.22219 0.98717 0.20402 0.0
C586 C 0.23728 0.00322 0.17343 0.0
C587 C 0.22731 0.03733 0.16351 0.0
C588 C 0.2412 0.05205 0.1343 0.0
C589 C 0.26527 0.03298 0.11494 0.0
C590 C 0.27559 0.9992 0.12483 0.0
C591 C 0.26176 0.98436 0.15402 0.0
H592 H 0.27599 0.04441 0.09232 0.0
H593 H 0.13909 0.8911 0.36949 0.0
H594 H 0.91635 0.69431 0.71446 0.0
H595 H 0.9303 0.73679 0.75903 0.0
H596 H 0.02599 0.76195 0.70797 0.0
H597 H 0.0123 0.7194 0.66363 0.0
H598 H 0.03593 0.74893 0.77428 0.0
H599 H 0.95792 0.82122 0.70739 0.0
H600 H 0.90273 0.83436 0.67874 0.0
H601 H 0.84721 0.8221 0.77176 0.0
H602 H 0.90212 0.80878 0.80092 0.0
H603 H 0.09388 0.89862 0.85674 0.0
H604 H 0.07006 0.86007 0.81357 0.0
H605 H 0.9766 0.84766 0.87241 0.0
H606 H 1.00014 0.88681 0.91577 0.0
H607 H 0.96179 0.85153 0.80616 0.0
H608 H 0.03898 0.78459 0.87443 0.0
H609 H 0.09352 0.77202 0.90434 0.0
H610 H 0.14939 0.77122 0.81066 0.0
H611 H 0.09523 0.78426 0.78021 0.0
C612 C 0.94035 0.70893 0.71284 0.0
C613 C 0.96357 0.70311 0.68596 0.0
C614 C 0.94817 0.73332 0.73814 0.0
C615 C 0.97915 0.75254 0.73674 0.0
C616 C 0.00203 0.74724 0.7096 0.0
C617 C 0.99423 0.72295 0.68434 0.0
C618 C 0.98857 0.7773 0.76408 0.0
C619 C 0.01991 0.77158 0.78099 0.0
C620 C 0.967 0.80601 0.77371 0.0
C621 C 0.93402 0.81375 0.75623 0.0
C622 C 0.93389 0.8211 0.72166 0.0
C623 C 0.90269 0.82866 0.70535 0.0
C624 C 0.87147 0.82897 0.7234 0.0
C625 C 0.8714 0.82173 0.75779 0.0
C626 C 0.90255 0.81426 0.77424 0.0
C627 C 0.06814 0.88796 0.86044 0.0
C628 C 0.04913 0.89525 0.88992 0.0
C629 C 0.05455 0.86593 0.83572 0.0
C630 C 0.02188 0.85043 0.84011 0.0
C631 C 0.00197 0.85917 0.86865 0.0
C632 C 0.01551 0.88144 0.89342 0.0
C633 C 0.00966 0.82369 0.81565 0.0
C634 C 0.97774 0.82882 0.79952 0.0
C635 C 0.03052 0.79408 0.80694 0.0
C636 C 0.06308 0.78561 0.82507 0.0
C637 C 0.06293 0.78189 0.86022 0.0
C638 C 0.09377 0.77468 0.87727 0.0
C639 C 0.12491 0.77088 0.85941 0.0
C640 C 0.12525 0.77418 0.82446 0.0
C641 C 0.09448 0.78143 0.80728 0.0
H642 H 0.14877 0.76533 0.87266 0.0
H643 H 0.84735 0.83489 0.71075 0.0
H644 H 0.30816 0.07636 0.6961 0.0
H645 H 0.25536 0.07445 0.73007 0.0
H646 H 0.27989 0.9679 0.75952 0.0
H647 H 0.33286 0.96945 0.72478 0.0
H648 H 0.20771 0.97952 0.75061 0.0
H649 H 0.30289 0.03102 0.80956 0.0
H650 H 0.35222 0.07122 0.81747 0.0
H651 H 0.28389 0.16061 0.80867 0.0
H652 H 0.2342 0.12091 0.80009 0.0
H653 H 0.11708 0.98717 0.90949 0.0
H654 H 0.15714 0.97887 0.86218 0.0
H655 H 0.13737 0.08579 0.83066 0.0
H656 H 0.09675 0.09388 0.87763 0.0
H657 H 0.20649 0.0715 0.83993 0.0
H658 H 0.11069 0.0191 0.78255 0.0
H659 H 0.06171 0.97831 0.77538 0.0
H660 H 0.13106 0.88972 0.78378 0.0
H661 H 0.1805 0.93003 0.79139 0.0
C662 C 0.30194 0.05219 0.70912 0.0
C663 C 0.32468 0.02305 0.70779 0.0
C664 C 0.2718 0.05117 0.72861 0.0
C665 C 0.26397 0.02122 0.74767 0.0
C666 C 0.28548 0.99127 0.74497 0.0
C667 C 0.31571 0.9922 0.72523 0.0
C668 C 0.23542 0.02288 0.77282 0.0
C669 C 0.20756 0.99932 0.7704 0.0
C670 C 0.23509 0.049 0.7984 0.0
C671 C 0.26488 0.07298 0.80383 0.0
C672 C 0.29842 0.05925 0.80903 0.0
C673 C 0.32645 0.08195 0.81367 0.0
C674 C 0.32121 0.11845 0.81349 0.0
C675 C 0.28791 0.13233 0.80875 0.0
C676 C 0.2598 0.10974 0.804 0.0
C677 C 0.12048 0.00853 0.89193 0.0
C678 C 0.10388 0.04121 0.89733 0.0
C679 C 0.14345 0.00379 0.86492 0.0
C680 C 0.15024 0.03172 0.84291 0.0
C681 C 0.13253 0.06391 0.8474 0.0
C682 C 0.1094 0.06853 0.87424 0.0
C683 C 0.17836 0.0286 0.81745 0.0
C684 C 0.20643 0.05177 0.82005 0.0
C685 C 0.17887 0.00197 0.79236 0.0
C686 C 0.14927 0.9776 0.78778 0.0
C687 C 0.11548 0.99092 0.78314 0.0
C688 C 0.08765 0.9679 0.77892 0.0
C689 C 0.09329 0.93146 0.77909 0.0
C690 C 0.12677 0.91797 0.78357 0.0
C691 C 0.15472 0.94089 0.7878 0.0
H692 H 0.0717 0.91372 0.77565 0.0
H693 H 0.34294 0.13598 0.81711 0.0
H694 H 0.04684 0.24048 0.65366 0.0
H695 H 0.05078 0.20149 0.70246 0.0
H696 H 0.00082 0.2808 0.76416 0.0
H697 H 0.99507 0.31921 0.71557 0.0
H698 H 0.07036 0.23788 0.78843 0.0
H699 H 0.94879 0.23222 0.74978 0.0
H700 H 0.90503 0.22312 0.70563 0.0
H701 H 0.94808 0.12065 0.68395 0.0
H702 H 0.9925 0.12947 0.72765 0.0
H703 H 0.00385 0.16604 0.93703 0.0
H704 H 0.01995 0.19659 0.88581 0.0
H705 H 0.01423 0.09875 0.83007 0.0
H706 H 0.99644 0.06819 0.88134 0.0
H707 H 0.98013 0.14565 0.79841 0.0
H708 H 0.09508 0.1445 0.84051 0.0
H709 H 0.14024 0.14986 0.884 0.0
H710 H 0.11489 0.2596 0.89695 0.0
H711 H 0.06934 0.25469 0.8538 0.0
C712 C 0.03661 0.2496 0.6776 0.0
C713 C 0.02015 0.28279 0.68036 0.0
C714 C 0.03913 0.22742 0.70543 0.0
C715 C 0.02611 0.23842 0.73674 0.0
C716 C 0.01112 0.27203 0.74011 0.0
C717 C 0.00777 0.29389 0.71216 0.0
C718 C 0.02581 0.21397 0.76547 0.0
C719 C 0.05065 0.21775 0.79083 0.0
C720 C 0.00087 0.18699 0.76779 0.0
C721 C 0.97426 0.18174 0.74154 0.0
C722 C 0.9492 0.20796 0.73528 0.0
C723 C 0.92421 0.20281 0.71042 0.0
C724 C 0.92387 0.17139 0.69189 0.0
C725 C 0.94845 0.14502 0.69825 0.0
C726 C 0.97354 0.15008 0.72304 0.0
C727 C 0.00647 0.15086 0.91399 0.0
C728 C 0.99841 0.11479 0.91313 0.0
C729 C 0.01606 0.16835 0.88467 0.0
C730 C 0.01869 0.15 0.85397 0.0
C731 C 0.01229 0.11354 0.85339 0.0
C732 C 0.00212 0.0961 0.88269 0.0
C733 C 0.02435 0.16972 0.82222 0.0
C734 C 0.00043 0.16518 0.79606 0.0
C735 C 0.05059 0.19553 0.81898 0.0
C736 C 0.0786 0.19909 0.84421 0.0
C737 C 0.09903 0.16967 0.85284 0.0
C738 C 0.12471 0.17266 0.87737 0.0
C739 C 0.13033 0.20503 0.89334 0.0
C740 C 0.11047 0.23453 0.88459 0.0
C741 C 0.08478 0.23168 0.86003 0.0
H742 H 0.15012 0.20728 0.91243 0.0
H743 H 0.90447 0.16742 0.67269 0.0
H744 H 0.66502 0.05116 0.73681 0.0
H745 H 0.70718 0.03504 0.77971 0.0
H746 H 0.78936 0.03852 0.70568 0.0
H747 H 0.74699 0.05218 0.66232 0.0
H748 H 0.80235 0.98759 0.74336 0.0
H749 H 0.77346 0.10701 0.7668 0.0
H750 H 0.7365 0.15918 0.77791 0.0
H751 H 0.69678 0.11087 0.86741 0.0
H752 H 0.73312 0.05815 0.85658 0.0
H753 H 0.93136 0.9824 0.8726 0.0
H754 H 0.89546 0.00415 0.82639 0.0
H755 H 0.80328 0.98714 0.88598 0.0
H756 H 0.83884 0.96618 0.93234 0.0
H757 H 0.80049 0.04949 0.85354 0.0
H758 H 0.83343 0.92777 0.82453 0.0
H759 H 0.87803 0.88218 0.81311 0.0
H760 H 0.9178 0.94328 0.73116 0.0
H761 H 0.87396 0.98961 0.74258 0.0
C762 C 0.6921 0.04861 0.7297 0.0
C763 C 0.7027 0.05444 0.69634 0.0
C764 C 0.71628 0.03962 0.75432 0.0
C765 C 0.75178 0.03676 0.74632 0.0
C766 C 0.76226 0.04109 0.71273 0.0
C767 C 0.73796 0.04933 0.68794 0.0
C768 C 0.77778 0.02874 0.7729 0.0
C769 C 0.80215 0.00154 0.76724 0.0
C770 C 0.77792 0.0469 0.80417 0.0
C771 C 0.75579 0.07846 0.81068 0.0
C772 C 0.75662 0.10737 0.7887 0.0
C773 C 0.73582 0.13707 0.79497 0.0
C774 C 0.71424 0.1383 0.8233 0.0
C775 C 0.71347 0.10985 0.84544 0.0
C776 C 0.73418 0.08006 0.83926 0.0
C777 C 0.90345 0.98341 0.87587 0.0
C778 C 0.88795 0.97231 0.90608 0.0
C779 C 0.88296 0.99576 0.84941 0.0
C780 C 0.84662 0.9968 0.85254 0.0
C781 C 0.83124 0.9865 0.88295 0.0
C782 C 0.85165 0.97439 0.90942 0.0
C783 C 0.8242 0.00793 0.82418 0.0
C784 C 0.8006 0.03576 0.82953 0.0
C785 C 0.82547 0.99105 0.79236 0.0
C786 C 0.85065 0.96231 0.78463 0.0
C787 C 0.85176 0.93152 0.80414 0.0
C788 C 0.87694 0.90558 0.7977 0.0
C789 C 0.90083 0.90994 0.77152 0.0
C790 C 0.89936 0.94003 0.7515 0.0
C791 C 0.87437 0.96613 0.75795 0.0
H792 H 0.92051 0.89005 0.76671 0.0
H793 H 0.69818 0.16133 0.82812 0.0
H794 H 0.29021 0.41745 0.05832 0.0
H795 H 0.2404 0.38395 0.03763 0.0
H796 H 0.27814 0.29141 0.08879 0.0
H797 H 0.32807 0.32467 0.10917 0.0
H798 H 0.25331 0.27501 0.02685 0.0
H799 H 0.21634 0.34443 0.12436 0.0
H800 H 0.2073 0.40014 0.15567 0.0
H801 H 0.14194 0.43895 0.07683 0.0
H802 H 0.15096 0.3836 0.04488 0.0
H803 H 0.08984 0.19357 0.08466 0.0
H804 H 0.12842 0.24414 0.08911 0.0
H805 H 0.13587 0.24897 0.98105 0.0
H806 H 0.09734 0.19836 0.97623 0.0
H807 H 0.13589 0.31399 0.0642 0.0
H808 H 0.22113 0.25074 0.96381 0.0
H809 H 0.22886 0.19321 0.93516 0.0
H810 H 0.19762 0.13968 0.02509 0.0
H811 H 0.19 0.19686 0.05426 0.0
C812 C 0.28811 0.38979 0.06463 0.0
C813 C 0.31313 0.37351 0.08505 0.0
C814 C 0.25962 0.37077 0.05295 0.0
C815 C 0.25549 0.33528 0.06187 0.0
C816 C 0.28095 0.31873 0.08147 0.0
C817 C 0.30942 0.3377 0.09311 0.0
C818 C 0.22384 0.31565 0.05249 0.0
C819 C 0.22763 0.28382 0.03465 0.0
C820 C 0.19028 0.32703 0.06271 0.0
C821 C 0.18461 0.36008 0.0821 0.0
C822 C 0.20022 0.36494 0.11363 0.0
C823 C 0.19507 0.39643 0.1315 0.0
C824 C 0.17413 0.4231 0.11822 0.0
C825 C 0.15819 0.41829 0.08708 0.0
C826 C 0.16329 0.38687 0.06909 0.0
C827 C 0.09884 0.20599 0.06179 0.0
C828 C 0.09113 0.19144 0.03012 0.0
C829 C 0.12073 0.23504 0.06439 0.0
C830 C 0.13538 0.24982 0.03543 0.0
C831 C 0.125 0.23766 0.0037 0.0
C832 C 0.10295 0.20871 0.00104 0.0
C833 C 0.16554 0.27347 0.03878 0.0
C834 C 0.1615 0.30582 0.0556 0.0
C835 C 0.19895 0.26249 0.02792 0.0
C836 C 0.20481 0.228 0.01106 0.0
C837 C 0.21615 0.22665 0.97747 0.0
C838 C 0.22043 0.19413 0.96114 0.0
C839 C 0.21368 0.16281 0.97827 0.0
C840 C 0.20278 0.16394 0.01182 0.0
C841 C 0.19846 0.19639 0.02825 0.0
H842 H 0.21692 0.13768 0.96556 0.0
H843 H 0.17019 0.44747 0.13208 0.0
H844 H 0.35994 0.70834 0.13732 0.0
H845 H 0.34042 0.7643 0.11312 0.0
H846 H 0.2753 0.70759 0.04378 0.0
H847 H 0.29503 0.65157 0.0677 0.0
H848 H 0.30661 0.76694 0.01469 0.0
H849 H 0.24212 0.73575 0.11551 0.0
H850 H 0.23684 0.72026 0.17542 0.0
H851 H 0.285 0.81791 0.20327 0.0
H852 H 0.29108 0.83369 0.14343 0.0
H853 H 0.16087 0.87245 0.9808 0.0
H854 H 0.20761 0.83115 0.9924 0.0
H855 H 0.24542 0.90034 0.0705 0.0
H856 H 0.1969 0.94078 0.06038 0.0
H857 H 0.23859 0.84059 0.09511 0.0
H858 H 0.29348 0.87704 0.99384 0.0
H859 H 0.29762 0.89261 0.93389 0.0
H860 H 0.26816 0.78744 0.90605 0.0
H861 H 0.26339 0.77133 0.96582 0.0
C862 C 0.34203 0.70786 0.11644 0.0
C863 C 0.32903 0.6757 0.10425 0.0
C864 C 0.33092 0.73976 0.10267 0.0
C865 C 0.30631 0.74002 0.0768 0.0
C866 C 0.29448 0.70791 0.06359 0.0
C867 C 0.30558 0.676 0.07736 0.0
C868 C 0.28994 0.7735 0.06605 0.0
C869 C 0.29171 0.78321 0.03213 0.0
C870 C 0.27135 0.79508 0.08909 0.0
C871 C 0.26746 0.78568 0.12503 0.0
C872 C 0.25185 0.75377 0.13441 0.0
C873 C 0.24868 0.74496 0.16834 0.0
C874 C 0.26068 0.76804 0.19313 0.0
C875 C 0.2758 0.80002 0.18404 0.0
C876 C 0.27912 0.80891 0.15012 0.0
C877 C 0.17968 0.87939 0.99982 0.0
C878 C 0.17509 0.9097 0.01987 0.0
C879 C 0.2067 0.85579 0.00629 0.0
C880 C 0.23044 0.8626 0.03218 0.0
C881 C 0.22741 0.89435 0.05047 0.0
C882 C 0.19977 0.91752 0.04463 0.0
C883 C 0.25473 0.83439 0.04334 0.0
C884 C 0.25427 0.82529 0.07751 0.0
C885 C 0.27461 0.81361 0.02045 0.0
C886 C 0.27798 0.82302 0.98439 0.0
C887 C 0.28774 0.85726 0.97495 0.0
C888 C 0.29021 0.86618 0.94098 0.0
C889 C 0.28314 0.84104 0.91618 0.0
C890 C 0.27368 0.80688 0.92529 0.0
C891 C 0.27117 0.79782 0.95922 0.0
H892 H 0.28501 0.84802 0.8899 0.0
H893 H 0.25819 0.76118 0.21939 0.0
H894 H 0.72627 0.37191 0.99959 0.0
H895 H 0.74941 0.31695 0.02271 0.0
H896 H 0.70075 0.25812 0.94288 0.0
H897 H 0.6768 0.31305 0.9202 0.0
H898 H 0.69905 0.2213 0.00117 0.0
H899 H 0.78374 0.28313 0.93557 0.0
H900 H 0.81944 0.33388 0.91887 0.0
H901 H 0.86686 0.33544 0.01626 0.0
H902 H 0.83098 0.28501 0.03374 0.0
H903 H 0.83511 0.08818 0.97379 0.0
H904 H 0.79101 0.13482 0.96993 0.0
H905 H 0.81658 0.17053 0.06972 0.0
H906 H 0.85995 0.12345 0.0743 0.0
H907 H 0.82764 0.21839 0.00724 0.0
H908 H 0.74512 0.15097 0.06991 0.0
H909 H 0.71028 0.09856 0.08326 0.0
H910 H 0.66055 0.10503 0.98717 0.0
H911 H 0.6955 0.15724 0.97303 0.0
C912 C 0.71998 0.34717 0.98739 0.0
C913 C 0.69989 0.34668 0.95806 0.0
C914 C 0.73324 0.31582 0.00055 0.0
C915 C 0.72722 0.2835 0.98423 0.0
C916 C 0.7057 0.28274 0.9559 0.0
C917 C 0.69219 0.31409 0.94287 0.0
C918 C 0.74602 0.25114 0.9947 0.0
C919 C 0.72716 0.22059 0.00238 0.0
C920 C 0.78271 0.25031 0.99655 0.0
C921 C 0.80436 0.28059 0.9861 0.0
C922 C 0.80156 0.29449 0.95353 0.0
C923 C 0.82186 0.32317 0.9439 0.0
C924 C 0.84533 0.33795 0.96652 0.0
C925 C 0.84861 0.32402 0.9988 0.0
C926 C 0.82829 0.29539 0.00858 0.0
C927 C 0.83057 0.10524 0.99532 0.0
C928 C 0.85124 0.10236 0.02421 0.0
C929 C 0.80531 0.13177 0.99311 0.0
C930 C 0.80071 0.156 0.01954 0.0
C931 C 0.8197 0.15185 0.0492 0.0
C932 C 0.84444 0.1249 0.05173 0.0
C933 C 0.78071 0.18874 0.01386 0.0
C934 C 0.79948 0.2193 0.00664 0.0
C935 C 0.74413 0.18931 0.012 0.0
C936 C 0.72325 0.15778 0.02025 0.0
C937 C 0.72707 0.14098 0.05145 0.0
C938 C 0.70722 0.11137 0.05921 0.0
C939 C 0.6833 0.0984 0.03603 0.0
C940 C 0.67914 0.11507 0.00508 0.0
C941 C 0.69894 0.1447 0.99719 0.0
H942 H 0.66793 0.07549 0.0421 0.0
H943 H 0.86105 0.36013 0.95902 0.0
H944 H 0.68295 0.71793 0.93127 0.0
H945 H 0.74496 0.72468 0.94193 0.0
H946 H 0.72391 0.73407 0.04831 0.0
H947 H 0.66173 0.72921 0.03744 0.0
H948 H 0.76212 0.78505 0.03046 0.0
H949 H 0.76931 0.66125 0.01166 0.0
H950 H 0.75949 0.60475 0.98235 0.0
H951 H 0.81682 0.64164 0.89683 0.0
H952 H 0.82657 0.69859 0.9254 0.0
H953 H 0.93183 0.82164 0.06223 0.0
H954 H 0.88621 0.77712 0.06117 0.0
H955 H 0.88275 0.78311 0.95323 0.0
H956 H 0.92904 0.82653 0.95378 0.0
H957 H 0.85956 0.7169 0.97927 0.0
H958 H 0.84132 0.84364 0.99526 0.0
H959 H 0.85261 0.89974 0.02482 0.0
H960 H 0.81489 0.85544 0.11701 0.0
H961 H 0.80411 0.79879 0.08809 0.0
C962 C 0.69167 0.72111 0.95693 0.0
C963 C 0.66755 0.72359 0.98347 0.0
C964 C 0.72715 0.72453 0.96308 0.0
C965 C 0.73926 0.7296 0.996 0.0
C966 C 0.71524 0.73025 0.0227 0.0
C967 C 0.67974 0.72744 0.01649 0.0
C968 C 0.77624 0.73836 0.00212 0.0
C969 C 0.78335 0.76949 0.02 0.0
C970 C 0.80412 0.71861 0.98789 0.0
C971 C 0.79849 0.68431 0.97064 0.0
C972 C 0.77963 0.65742 0.98651 0.0
C973 C 0.7741 0.62529 0.97004 0.0
C974 C 0.78747 0.61963 0.93773 0.0
C975 C 0.80647 0.64607 0.92186 0.0
C976 C 0.81206 0.67826 0.93821 0.0
C977 C 0.92255 0.81228 0.03818 0.0
C978 C 0.93324 0.82848 0.00821 0.0
C979 C 0.89646 0.78689 0.03766 0.0
C980 C 0.88043 0.77787 0.00727 0.0
C981 C 0.89457 0.79003 0.97699 0.0
C982 C 0.92095 0.81511 0.97743 0.0
C983 C 0.8449 0.76329 0.00745 0.0
C984 C 0.83814 0.73158 0.99048 0.0
C985 C 0.81715 0.78237 0.02256 0.0
C986 C 0.82237 0.81685 0.03963 0.0
C987 C 0.83562 0.84581 0.02187 0.0
C988 C 0.84195 0.8777 0.03851 0.0
C989 C 0.8346 0.88112 0.07281 0.0
C990 C 0.82063 0.85274 0.09046 0.0
C991 C 0.81443 0.82072 0.07396 0.0
H992 H 0.83963 0.90578 0.08569 0.0
H993 H 0.78316 0.59474 0.92502 0.0
loop_
_geom_bond_atom_site_label_1
_geom_bond_atom_site_label_2
_geom_bond_distance
_geom_bond_site_symmetry_2
_ccdc_geom_bond_type
C0 C1 1.560 . S
C0 H61 0.959 . S
C0 H62 0.959 . S
C0 H63 0.960 . S
C1 C0 1.560 . S
C1 O56 1.426 . S
C1 H60 0.980 . S
C2 C3 1.407 1_455 S
C2 C7 1.418 . S
C2 O56 1.334 . S
C3 C2 1.407 1_655 S
C3 C4 1.360 . S
C3 H64 0.929 . S
C4 C3 1.360 . S
C4 C5 1.401 1_655 S
C4 C8 1.527 . S
C5 C4 1.401 1_455 S
C5 C6 1.405 . S
C5 C38 1.587 1_455 S
C6 C5 1.405 . S
C6 C7 1.332 . S
C6 C9 1.496 . S
C7 C2 1.418 . S
C7 C6 1.332 . S
C7 H65 0.929 . S
C8 C4 1.527 . S
C8 H66 0.959 . S
C8 H67 0.961 . S
C8 H68 0.961 . S
C9 C6 1.496 . S
C9 H69 0.960 . S
C9 H70 0.960 . S
C9 H71 0.961 . S
C10 C11 1.517 . S
C10 H73 0.961 1_655 S
C10 H74 0.960 . S
C10 H75 0.959 . S
C11 C10 1.517 . S
C11 O59 1.468 . S
C11 H72 0.980 1_655 S
C12 C13 1.349 1_655 S
C12 C17 1.367 . S
C12 O59 1.408 . S
C13 C12 1.349 1_455 S
C13 C14 1.407 . S
C13 H76 0.930 . S
C14 C13 1.407 . S
C14 C15 1.449 1_455 S
C14 C18 1.535 . S
C15 C14 1.449 1_655 S
C15 C16 1.384 . S
C15 C40 1.553 . S
C16 C15 1.384 . S
C16 C17 1.364 . S
C16 C19 1.450 . S
C17 C12 1.367 . S
C17 C16 1.364 . S
C17 H77 0.931 . S
C18 C14 1.535 . S
C18 H78 0.959 . S
C18 H79 0.961 . S
C18 H80 0.959 . S
C19 C16 1.450 . S
C19 H81 0.960 . S
C19 H82 0.960 . S
C19 H83 0.960 . S
C20 C21 1.309 1_655 S
C20 C25 1.304 . S
C20 O58 1.435 . S
C21 C20 1.309 1_455 S
C21 C22 1.476 . S
C21 H85 0.930 . S
C22 C21 1.476 . S
C22 C23 1.400 1_455 S
C22 C26 1.567 . S
C23 C22 1.400 1_655 S
C23 C24 1.373 . S
C23 C45 1.432 . S
C24 C23 1.373 . S
C24 C25 1.339 . S
C24 C27 1.530 . S
C25 C20 1.304 . S
C25 C24 1.339 . S
C25 H86 0.930 . S
C26 C22 1.567 . S
C26 H87 0.961 . S
C26 H88 0.960 . S
C26 H89 0.958 . S
C27 C24 1.530 . S
C27 H90 0.961 . S
C27 H91 0.960 . S
C27 H92 0.960 . S
C28 C29 1.530 . S
C28 H94 0.961 . S
C28 H95 0.961 . S
C28 H96 0.959 . S
C29 C28 1.530 . S
C29 O57 1.412 . S
C29 H93 0.980 . S
C30 C31 1.288 . S
C30 C35 1.377 1_455 S
C30 O57 1.393 . S
C31 C30 1.288 . S
C31 C32 1.369 . S
C31 H97 0.932 . S
C32 C31 1.369 . S
C32 C33 1.398 . S
C32 C36 1.527 . S
C33 C32 1.398 . S
C33 C34 1.380 1_455 S
C33 C47 1.497 . S
C34 C33 1.380 1_655 S
C34 C35 1.383 . S
C34 C37 1.603 . S
C35 C30 1.377 1_655 S
C35 C34 1.383 . S
C35 H98 0.929 . S
C36 C32 1.527 . S
C36 H99 0.961 . S
C36 H100 0.959 . S
C36 H101 0.959 . S
C37 C34 1.603 . S
C37 H102 0.960 . S
C37 H103 0.962 . S
C37 H104 0.961 . S
C38 C5 1.587 1_655 S
C38 C39 1.360 . S
C38 C51 1.412 . S
C39 C38 1.360 . S
C39 C40 1.365 . S
C39 H105 0.929 . S
C40 C15 1.553 . S
C40 C39 1.365 . S
C40 C41 1.404 . S
C41 C40 1.404 . S
C41 C42 1.395 . S
C41 C52 1.451 . S
C42 C41 1.395 . S
C42 C43 1.322 . S
C42 H106 0.930 . S
C43 C42 1.322 . S
C43 C44 1.459 . S
C43 H107 0.929 . S
C44 C43 1.459 . S
C44 C45 1.445 . S
C44 C53 1.395 . S
C45 C23 1.432 . S
C45 C44 1.445 . S
C45 C46 1.375 . S
C46 C45 1.375 . S
C46 C47 1.435 1_655 S
C46 H108 0.929 1_655 S
C47 C33 1.497 . S
C47 C46 1.435 1_455 S
C47 C48 1.360 . S
C48 C47 1.360 . S
C48 C49 1.401 . S
C48 C53 1.445 1_455 S
C49 C48 1.401 . S
C49 C50 1.347 . S
C49 H109 0.929 . S
C50 C49 1.347 . S
C50 C51 1.455 1_455 S
C50 H110 0.930 . S
C51 C38 1.412 . S
C51 C50 1.455 1_655 S
C51 C52 1.331 . S
C52 C41 1.451 . S
C52 C51 1.331 . S
C52 C53 1.497 . S
C53 C44 1.395 . S
C53 C48 1.445 1_655 S
C53 C52 1.497 . S
C54 C55 1.582 1_655 S
C54 H111 0.962 . S
C54 H112 0.959 . S
C54 H113 0.958 . S
C55 C54 1.582 1_455 S
C55 O58 1.458 1_455 S
C55 H84 0.980 . S
O56 C1 1.426 . S
O56 C2 1.334 . S
O57 C29 1.412 . S
O57 C30 1.393 . S
O58 C20 1.435 . S
O58 C55 1.458 1_655 S
O59 C11 1.468 . S
O59 C12 1.408 . S
H60 C1 0.980 . S
H61 C0 0.959 . S
H62 C0 0.959 . S
H63 C0 0.960 . S
H64 C3 0.929 . S
H65 C7 0.929 . S
H66 C8 0.959 . S
H67 C8 0.961 . S
H68 C8 0.961 . S
H69 C9 0.960 . S
H70 C9 0.960 . S
H71 C9 0.961 . S
H72 C11 0.980 1_455 S
H73 C10 0.961 1_455 S
H74 C10 0.960 . S
H75 C10 0.959 . S
H76 C13 0.930 . S
H77 C17 0.931 . S
H78 C18 0.959 . S
H79 C18 0.961 . S
H80 C18 0.959 . S
H81 C19 0.960 . S
H82 C19 0.960 . S
H83 C19 0.960 . S
H84 C55 0.980 . S
H85 C21 0.930 . S
H86 C25 0.930 . S
H87 C26 0.961 . S
H88 C26 0.960 . S
H89 C26 0.958 . S
H90 C27 0.961 . S
H91 C27 0.960 . S
H92 C27 0.960 . S
H93 C29 0.980 . S
H94 C28 0.961 . S
H95 C28 0.961 . S
H96 C28 0.959 . S
H97 C31 0.932 . S
H98 C35 0.929 . S
H99 C36 0.961 . S
H100 C36 0.959 . S
H101 C36 0.959 . S
H102 C37 0.960 . S
H103 C37 0.962 . S
H104 C37 0.961 . S
H105 C39 0.929 . S
H106 C42 0.930 . S
H107 C43 0.929 . S
H108 C46 0.929 1_455 S
H109 C49 0.929 . S
H110 C50 0.930 . S
H111 C54 0.962 . S
H112 C54 0.959 . S
H113 C54 0.958 . S
C114 C115 1.560 . S
C114 H175 0.959 . S
C114 H176 0.959 . S
C114 H177 0.960 . S
C115 C114 1.560 . S
C115 O170 1.426 . S
C115 H174 0.980 . S
C116 C117 1.407 1_545 S
C116 C121 1.418 . S
C116 O170 1.334 . S
C117 C116 1.407 1_565 S
C117 C118 1.360 . S
C117 H178 0.929 . S
C118 C117 1.360 . S
C118 C119 1.401 1_565 S
C118 C122 1.527 . S
C119 C118 1.401 1_545 S
C119 C120 1.405 . S
C119 C152 1.587 1_545 S
C120 C119 1.405 . S
C120 C121 1.332 . S
C120 C123 1.496 . S
C121 C116 1.418 . S
C121 C120 1.332 . S
C121 H179 0.929 . S
C122 C118 1.527 . S
C122 H180 0.959 . S
C122 H181 0.961 . S
C122 H182 0.961 . S
C123 C120 1.496 . S
C123 H183 0.960 . S
C123 H184 0.960 . S
C123 H185 0.961 . S
C124 C125 1.517 . S
C124 H187 0.961 . S
C124 H188 0.960 . S
C124 H189 0.959 . S
C125 C124 1.517 . S
C125 O173 1.468 . S
C125 H186 0.980 1_565 S
C126 C127 1.349 . S
C126 C131 1.367 . S
C126 O173 1.408 . S
C127 C126 1.349 . S
C127 C128 1.407 1_565 S
C127 H190 0.930 1_565 S
C128 C127 1.407 1_545 S
C128 C129 1.449 1_545 S
C128 C132 1.535 . S
C129 C128 1.449 1_565 S
C129 C130 1.384 . S
C129 C154 1.553 . S
C130 C129 1.384 . S
C130 C131 1.364 . S
C130 C133 1.450 . S
C131 C126 1.367 . S
C131 C130 1.364 . S
C131 H191 0.931 . S
C132 C128 1.535 . S
C132 H192 0.959 . S
C132 H193 0.961 . S
C132 H194 0.959 . S
C133 C130 1.450 . S
C133 H195 0.960 . S
C133 H196 0.960 . S
C133 H197 0.960 . S
C134 C135 1.309 1_565 S
C134 C139 1.304 . S
C134 O172 1.435 . S
C135 C134 1.309 1_545 S
C135 C136 1.476 . S
C135 H199 0.930 . S
C136 C135 1.476 . S
C136 C137 1.400 1_545 S
C136 C140 1.567 . S
C137 C136 1.400 1_565 S
C137 C138 1.373 . S
C137 C159 1.432 . S
C138 C137 1.373 . S
C138 C139 1.339 . S
C138 C141 1.530 . S
C139 C134 1.304 . S
C139 C138 1.339 . S
C139 H200 0.930 . S
C140 C136 1.567 . S
C140 H201 0.961 . S
C140 H202 0.960 . S
C140 H203 0.958 . S
C141 C138 1.530 . S
C141 H204 0.961 . S
C141 H205 0.960 . S
C141 H206 0.960 . S
C142 C143 1.530 . S
C142 H208 0.961 . S
C142 H209 0.961 . S
C142 H210 0.959 . S
C143 C142 1.530 . S
C143 O171 1.412 . S
C143 H207 0.980 . S
C144 C145 1.288 . S
C144 C149 1.377 1_545 S
C144 O171 1.393 . S
C145 C144 1.288 . S
C145 C146 1.369 . S
C145 H211 0.932 . S
C146 C145 1.369 . S
C146 C147 1.398 . S
C146 C150 1.527 . S
C147 C146 1.398 . S
C147 C148 1.380 1_545 S
C147 C161 1.497 . S
C148 C147 1.380 1_565 S
C148 C149 1.383 . S
C148 C151 1.603 . S
C149 C144 1.377 1_565 S
C149 C148 1.383 . S
C149 H212 0.929 . S
C150 C146 1.527 . S
C150 H213 0.961 . S
C150 H214 0.959 . S
C150 H215 0.959 . S
C151 C148 1.603 . S
C151 H216 0.960 . S
C151 H217 0.962 . S
C151 H218 0.961 . S
C152 C119 1.587 1_565 S
C152 C153 1.360 . S
C152 C165 1.412 . S
C153 C152 1.360 . S
C153 C154 1.365 . S
C153 H219 0.929 . S
C154 C129 1.553 . S
C154 C153 1.365 . S
C154 C155 1.404 . S
C155 C154 1.404 . S
C155 C156 1.395 . S
C155 C166 1.451 . S
C156 C155 1.395 . S
C156 C157 1.322 . S
C156 H220 0.930 . S
C157 C156 1.322 . S
C157 C158 1.459 . S
C157 H221 0.929 . S
C158 C157 1.459 . S
C158 C159 1.445 . S
C158 C167 1.395 . S
C159 C137 1.432 . S
C159 C158 1.445 . S
C159 C160 1.370 . S
C160 C159 1.370 . S
C160 C161 1.438 1_565 S
C160 H222 0.930 . S
C161 C147 1.497 . S
C161 C160 1.438 1_545 S
C161 C162 1.360 1_545 S
C162 C161 1.360 1_565 S
C162 C163 1.401 1_565 S
C162 C167 1.446 . S
C163 C162 1.401 1_545 S
C163 C164 1.348 . S
C163 H223 0.929 . S
C164 C163 1.348 . S
C164 C165 1.453 1_545 S
C164 H224 0.932 . S
C165 C152 1.412 . S
C165 C164 1.453 1_565 S
C165 C166 1.331 . S
C166 C155 1.451 . S
C166 C165 1.331 . S
C166 C167 1.497 . S
C167 C158 1.395 . S
C167 C162 1.446 . S
C167 C166 1.497 . S
C168 C169 1.582 1_565 S
C168 H225 0.962 . S
C168 H226 0.959 . S
C168 H227 0.958 . S
C169 C168 1.582 1_545 S
C169 O172 1.459 1_545 S
C169 H198 0.980 . S
O170 C115 1.426 . S
O170 C116 1.334 . S
O171 C143 1.412 . S
O171 C144 1.393 . S
O172 C134 1.435 . S
O172 C169 1.459 1_565 S
O173 C125 1.468 . S
O173 C126 1.408 . S
H174 C115 0.980 . S
H175 C114 0.959 . S
H176 C114 0.959 . S
H177 C114 0.960 . S
H178 C117 0.929 . S
H179 C121 0.929 . S
H180 C122 0.959 . S
H181 C122 0.961 . S
H182 C122 0.961 . S
H183 C123 0.960 . S
H184 C123 0.960 . S
H185 C123 0.961 . S
H186 C125 0.980 1_545 S
H187 C124 0.961 . S
H188 C124 0.960 . S
H189 C124 0.959 . S
H190 C127 0.930 1_545 S
H191 C131 0.931 . S
H192 C132 0.959 . S
H193 C132 0.961 . S
H194 C132 0.959 . S
H195 C133 0.960 . S
H196 C133 0.960 . S
H197 C133 0.960 . S
H198 C169 0.980 . S
H199 C135 0.930 . S
H200 C139 0.930 . S
H201 C140 0.961 . S
H202 C140 0.960 . S
H203 C140 0.958 . S
H204 C141 0.961 . S
H205 C141 0.960 . S
H206 C141 0.960 . S
H207 C143 0.980 . S
H208 C142 0.961 . S
H209 C142 0.961 . S
H210 C142 0.959 . S
H211 C145 0.932 . S
H212 C149 0.929 . S
H213 C150 0.961 . S
H214 C150 0.959 . S
H215 C150 0.959 . S
H216 C151 0.960 . S
H217 C151 0.962 . S
H218 C151 0.961 . S
H219 C153 0.929 . S
H220 C156 0.930 . S
H221 C157 0.929 . S
H222 C160 0.930 . S
H223 C163 0.929 . S
H224 C164 0.932 . S
H225 C168 0.962 . S
H226 C168 0.959 . S
H227 C168 0.958 . S
C228 C229 1.560 1_556 S
C228 H289 0.959 . S
C228 H290 0.959 . S
C228 H291 0.960 . S
C229 C228 1.560 1_554 S
C229 O284 1.426 1_554 S
C229 H288 0.980 . S
C230 C231 1.400 1_556 S
C230 C235 1.422 . S
C230 O284 1.337 . S
C231 C230 1.400 1_554 S
C231 C232 1.360 . S
C231 H292 0.929 . S
C232 C231 1.360 . S
C232 C233 1.401 . S
C232 C236 1.527 . S
C233 C232 1.401 . S
C233 C234 1.405 1_554 S
C233 C266 1.587 . S
C234 C233 1.405 1_556 S
C234 C235 1.332 . S
C234 C237 1.496 . S
C235 C230 1.422 . S
C235 C234 1.332 . S
C235 H293 0.929 . S
C236 C232 1.527 . S
C236 H294 0.959 . S
C236 H295 0.961 . S
C236 H296 0.961 . S
C237 C234 1.496 . S
C237 H297 0.960 . S
C237 H298 0.960 . S
C237 H299 0.961 . S
C238 C239 1.517 . S
C238 H301 0.961 . S
C238 H302 0.960 . S
C238 H303 0.959 . S
C239 C238 1.517 . S
C239 O287 1.468 . S
C239 H300 0.980 . S
C240 C241 1.349 . S
C240 C245 1.367 . S
C240 O287 1.408 . S
C241 C240 1.349 . S
C241 C242 1.407 . S
C241 H304 0.930 . S
C242 C241 1.407 . S
C242 C243 1.449 . S
C242 C246 1.535 1_554 S
C243 C242 1.449 . S
C243 C244 1.384 . S
C243 C268 1.553 . S
C244 C243 1.384 . S
C244 C245 1.364 . S
C244 C247 1.450 . S
C245 C240 1.367 . S
C245 C244 1.364 . S
C245 H305 0.931 . S
C246 C242 1.535 1_556 S
C246 H306 0.959 . S
C246 H307 0.961 . S
C246 H308 0.959 . S
C247 C244 1.450 . S
C247 H309 0.960 . S
C247 H310 0.960 . S
C247 H311 0.960 . S
C248 C249 1.309 . S
C248 C253 1.304 . S
C248 O286 1.435 . S
C249 C248 1.309 . S
C249 C250 1.476 . S
C249 H313 0.930 . S
C250 C249 1.476 . S
C250 C251 1.400 . S
C250 C254 1.567 1_554 S
C251 C250 1.400 . S
C251 C252 1.373 . S
C251 C273 1.432 . S
C252 C251 1.373 . S
C252 C253 1.339 . S
C252 C255 1.530 . S
C253 C248 1.304 . S
C253 C252 1.339 . S
C253 H314 0.930 . S
C254 C250 1.567 1_556 S
C254 H315 0.961 . S
C254 H316 0.960 . S
C254 H317 0.958 . S
C255 C252 1.530 . S
C255 H318 0.961 . S
C255 H319 0.960 . S
C255 H320 0.960 . S
C256 C257 1.530 1_556 S
C256 H322 0.961 1_556 S
C256 H323 0.961 . S
C256 H324 0.959 . S
C257 C256 1.530 1_554 S
C257 O285 1.412 1_554 S
C257 H321 0.980 . S
C258 C259 1.267 1_554 S
C258 C263 1.406 . S
C258 O285 1.385 1_554 S
C259 C258 1.267 1_556 S
C259 C260 1.369 . S
C259 H325 0.932 . S
C260 C259 1.369 . S
C260 C261 1.398 1_556 S
C260 C264 1.527 . S
C261 C260 1.398 1_554 S
C261 C262 1.380 . S
C261 C275 1.497 . S
C262 C261 1.380 . S
C262 C263 1.383 . S
C262 C265 1.603 . S
C263 C258 1.406 . S
C263 C262 1.383 . S
C263 H326 0.929 . S
C264 C260 1.527 . S
C264 H327 0.961 . S
C264 H328 0.959 . S
C264 H329 0.959 . S
C265 C262 1.603 . S
C265 H330 0.960 . S
C265 H331 0.962 . S
C265 H332 0.961 . S
C266 C233 1.587 . S
C266 C267 1.360 . S
C266 C279 1.412 . S
C267 C266 1.360 . S
C267 C268 1.365 . S
C267 H333 0.929 . S
C268 C243 1.553 . S
C268 C267 1.365 . S
C268 C269 1.404 . S
C269 C268 1.404 . S
C269 C270 1.395 . S
C269 C280 1.451 . S
C270 C269 1.395 . S
C270 C271 1.322 . S
C270 H334 0.930 . S
C271 C270 1.322 . S
C271 C272 1.459 . S
C271 H335 0.929 . S
C272 C271 1.459 . S
C272 C273 1.445 . S
C272 C281 1.395 . S
C273 C251 1.432 . S
C273 C272 1.445 . S
C273 C274 1.370 . S
C274 C273 1.370 . S
C274 C275 1.438 . S
C274 H336 0.930 . S
C275 C261 1.497 . S
C275 C274 1.438 . S
C275 C276 1.360 . S
C276 C275 1.360 . S
C276 C277 1.401 . S
C276 C281 1.446 . S
C277 C276 1.401 . S
C277 C278 1.347 . S
C277 H337 0.929 . S
C278 C277 1.347 . S
C278 C279 1.455 . S
C278 H338 0.930 . S
C279 C266 1.412 . S
C279 C278 1.455 . S
C279 C280 1.331 . S
C280 C269 1.451 . S
C280 C279 1.331 . S
C280 C281 1.497 . S
C281 C272 1.395 . S
C281 C276 1.446 . S
C281 C280 1.497 . S
C282 C283 1.582 . S
C282 H339 0.962 . S
C282 H340 0.959 . S
C282 H341 0.958 . S
C283 C282 1.582 . S
C283 O286 1.458 . S
C283 H312 0.980 . S
O284 C229 1.426 1_556 S
O284 C230 1.337 . S
O285 C257 1.412 1_556 S
O285 C258 1.385 1_556 S
O286 C248 1.435 . S
O286 C283 1.458 . S
O287 C239 1.468 . S
O287 C240 1.408 . S
H288 C229 0.980 . S
H289 C228 0.959 . S
H290 C228 0.959 . S
H291 C228 0.960 . S
H292 C231 0.929 . S
H293 C235 0.929 . S
H294 C236 0.959 . S
H295 C236 0.961 . S
H296 C236 0.961 . S
H297 C237 0.960 . S
H298 C237 0.960 . S
H299 C237 0.961 . S
H300 C239 0.980 . S
H301 C238 0.961 . S
H302 C238 0.960 . S
H303 C238 0.959 . S
H304 C241 0.930 . S
H305 C245 0.931 . S
H306 C246 0.959 . S
H307 C246 0.961 . S
H308 C246 0.959 . S
H309 C247 0.960 . S
H310 C247 0.960 . S
H311 C247 0.960 . S
H312 C283 0.980 . S
H313 C249 0.930 . S
H314 C253 0.930 . S
H315 C254 0.961 . S
H316 C254 0.960 . S
H317 C254 0.958 . S
H318 C255 0.961 . S
H319 C255 0.960 . S
H320 C255 0.960 . S
H321 C257 0.980 . S
H322 C256 0.961 1_554 S
H323 C256 0.961 . S
H324 C256 0.959 . S
H325 C259 0.932 . S
H326 C263 0.929 . S
H327 C264 0.961 . S
H328 C264 0.959 . S
H329 C264 0.959 . S
H330 C265 0.960 . S
H331 C265 0.962 . S
H332 C265 0.961 . S
H333 C267 0.929 . S
H334 C270 0.930 . S
H335 C271 0.929 . S
H336 C274 0.930 . S
H337 C277 0.929 . S
H338 C278 0.930 . S
H339 C282 0.962 . S
H340 C282 0.959 . S
H341 C282 0.958 . S
Zn342 O344 1.933 1_556 S
Zn342 O362 1.985 . S
Zn342 O373 1.955 . S
Zn343 O344 1.911 . S
Zn343 O363 1.970 . S
Zn343 O379 1.945 . S
Zn343 O386 1.981 . S
O344 Zn342 1.933 1_554 S
O344 Zn343 1.911 . S
O344 H345 0.841 . S
H345 O344 0.841 . S
C346 O347 1.246 . S
C346 O375 1.276 1_455 S
O347 C346 1.246 . S
Zn348 O350 1.911 . S
Zn348 O365 1.970 . S
Zn348 O382 1.945 . S
Zn348 O389 1.981 . S
Zn349 O350 1.933 1_556 S
Zn349 O364 1.985 . S
Zn349 O371 1.955 . S
O350 Zn348 1.911 . S
O350 Zn349 1.933 1_554 S
O350 H351 0.841 1_565 S
H351 O350 0.841 1_545 S
Zn352 O353 1.933 1_556 S
Zn352 O366 1.985 . S
Zn352 O375 1.955 . S
O353 Zn352 1.933 1_554 S
O353 Zn354 1.911 . S
O353 H355 0.841 1_655 S
Zn354 O353 1.911 . S
Zn354 O367 1.970 . S
Zn354 O383 1.981 . S
Zn354 O385 1.945 . S
H355 O353 0.841 1_455 S
Zn356 O357 1.933 1_556 S
Zn356 O369 1.985 . S
Zn356 O377 1.955 . S
O357 Zn356 1.933 1_554 S
O357 H358 0.841 . S
O357 Zn359 1.911 . S
H358 O357 0.841 . S
Zn359 O357 1.911 . S
Zn359 O370 1.970 . S
Zn359 O380 1.981 . S
Zn359 O388 1.945 . S
C360 O361 1.246 1_455 S
C360 O377 1.276 . S
O361 C360 1.246 1_655 S
O362 Zn342 1.985 . S
O362 C372 1.245 1_556 S
O363 Zn343 1.970 . S
O363 C372 1.263 . S
O364 Zn349 1.985 . S
O364 C376 1.245 1_556 S
O365 Zn348 1.970 . S
O365 C376 1.263 . S
O366 Zn352 1.985 . S
O366 C381 1.245 1_556 S
O367 Zn354 1.970 . S
O367 C381 1.263 . S
C368 O379 1.262 . S
C368 O380 1.245 1_545 S
O369 Zn356 1.985 . S
O369 C387 1.245 1_556 S
O370 Zn359 1.970 . S
O370 C387 1.263 . S
O371 Zn349 1.955 . S
O371 C390 1.276 1_565 S
C372 O362 1.245 1_554 S
C372 O363 1.263 . S
O373 Zn342 1.955 . S
O373 C392 1.276 . S
C374 O382 1.262 1_545 S
C374 O383 1.245 . S
O375 C346 1.276 1_655 S
O375 Zn352 1.955 . S
C376 O364 1.245 1_554 S
C376 O365 1.263 . S
O377 Zn356 1.955 . S
O377 C360 1.276 . S
C378 O385 1.262 1_455 S
C378 O386 1.245 . S
O379 Zn343 1.945 . S
O379 C368 1.262 . S
O380 Zn359 1.981 . S
O380 C368 1.245 1_565 S
C381 O366 1.245 1_554 S
C381 O367 1.263 . S
O382 Zn348 1.945 . S
O382 C374 1.262 1_565 S
O383 Zn354 1.981 . S
O383 C374 1.245 . S
C384 O388 1.262 . S
C384 O389 1.245 1_455 S
O385 Zn354 1.945 . S
O385 C378 1.262 1_655 S
O386 Zn343 1.981 . S
O386 C378 1.245 . S
C387 O369 1.245 1_554 S
C387 O370 1.263 . S
O388 Zn359 1.945 . S
O388 C384 1.262 . S
O389 Zn348 1.981 . S
O389 C384 1.245 1_655 S
C390 O371 1.276 1_545 S
C390 O391 1.246 . S
O391 C390 1.246 . S
C392 O373 1.276 . S
C392 O393 1.246 1_545 S
O393 C392 1.246 1_565 S
H394 C412 0.951 . S
H395 C414 0.951 . S
H396 C416 0.950 . S
H397 C417 0.950 . S
H398 C419 0.950 . S
H399 C422 0.950 . S
H400 C423 0.950 . S
H401 C425 0.950 . S
H402 C426 0.950 . S
H403 C427 0.951 . S
H404 C429 0.951 . S
H405 C431 0.950 . S
H406 C432 0.950 . S
H407 C434 0.950 . S
H408 C437 0.950 1_455 S
H409 C438 0.950 . S
H410 C440 0.950 . S
H411 C441 0.950 . S
C412 H394 0.951 . S
C412 C413 1.366 . S
C412 C414 1.388 . S
C413 C412 1.366 . S
C413 C417 1.385 1_455 S
C414 H395 0.951 . S
C414 C412 1.388 . S
C414 C415 1.366 . S
C415 C414 1.366 . S
C415 C416 1.414 1_455 S
C415 C418 1.499 . S
C416 H396 0.950 . S
C416 C415 1.414 1_655 S
C416 C417 1.374 . S
C417 H397 0.950 . S
C417 C413 1.385 1_655 S
C417 C416 1.374 . S
C418 C415 1.499 . S
C418 C419 1.373 1_455 S
C418 C420 1.389 . S
C419 H398 0.950 . S
C419 C418 1.373 1_655 S
C419 C435 1.377 . S
C420 C418 1.389 . S
C420 C421 1.524 . S
C420 C434 1.377 . S
C421 C420 1.524 . S
C421 C422 1.397 . S
C421 C426 1.363 . S
C422 H399 0.950 . S
C422 C421 1.397 . S
C422 C423 1.334 . S
C423 H400 0.950 . S
C423 C422 1.334 . S
C423 C424 1.287 . S
C424 C423 1.287 . S
C424 C425 1.524 . S
C424 H443 0.913 . S
C425 H401 0.950 . S
C425 C424 1.524 . S
C425 C426 1.415 . S
C426 H402 0.950 . S
C426 C421 1.363 . S
C426 C425 1.415 . S
C427 H403 0.951 . S
C427 C428 1.366 1_655 S
C427 C429 1.388 . S
C428 C427 1.366 1_455 S
C428 C432 1.385 . S
C429 H404 0.951 . S
C429 C427 1.388 . S
C429 C430 1.366 1_655 S
C430 C429 1.366 1_455 S
C430 C431 1.414 . S
C430 C433 1.499 . S
C431 H405 0.950 . S
C431 C430 1.414 . S
C431 C432 1.374 . S
C432 H406 0.950 . S
C432 C428 1.385 . S
C432 C431 1.374 . S
C433 C430 1.499 . S
C433 C434 1.373 . S
C433 C435 1.389 1_455 S
C434 H407 0.950 . S
C434 C420 1.377 . S
C434 C433 1.373 . S
C435 C419 1.377 . S
C435 C433 1.389 1_655 S
C435 C436 1.524 . S
C436 C435 1.524 . S
C436 C437 1.397 . S
C436 C441 1.363 . S
C437 H408 0.950 1_655 S
C437 C436 1.397 . S
C437 C438 1.334 . S
C438 H409 0.950 . S
C438 C437 1.334 . S
C438 C439 1.287 . S
C439 C438 1.287 . S
C439 C440 1.524 . S
C439 H442 0.999 . S
C440 H410 0.950 . S
C440 C439 1.524 . S
C440 C441 1.415 . S
C441 H411 0.950 . S
C441 C436 1.363 . S
C441 C440 1.415 . S
H442 C439 0.999 . S
H443 C424 0.913 . S
H444 C462 0.951 . S
H445 C464 0.951 . S
H446 C466 0.950 . S
H447 C467 0.950 . S
H448 C469 0.954 . S
H449 C472 0.950 . S
H450 C473 0.950 . S
H451 C475 0.950 . S
H452 C476 0.950 . S
H453 C477 0.951 . S
H454 C479 0.951 . S
H455 C481 0.950 . S
H456 C482 0.950 . S
H457 C484 0.950 . S
H458 C487 0.950 . S
H459 C488 0.950 . S
H460 C490 0.950 . S
H461 C491 0.950 . S
C462 H444 0.951 . S
C462 C463 1.366 . S
C462 C464 1.388 . S
C463 C462 1.366 . S
C463 C467 1.385 1_545 S
C464 H445 0.951 . S
C464 C462 1.388 . S
C464 C465 1.366 . S
C465 C464 1.366 . S
C465 C466 1.414 1_545 S
C465 C468 1.499 . S
C466 H446 0.950 . S
C466 C465 1.414 1_565 S
C466 C467 1.374 . S
C467 H447 0.950 . S
C467 C463 1.385 1_565 S
C467 C466 1.374 . S
C468 C465 1.499 . S
C468 C469 1.373 . S
C468 C470 1.389 . S
C469 H448 0.954 . S
C469 C468 1.373 . S
C469 C485 1.377 . S
C470 C468 1.389 . S
C470 C471 1.524 . S
C470 C484 1.377 . S
C471 C470 1.524 . S
C471 C472 1.397 1_545 S
C471 C476 1.363 . S
C472 H449 0.950 . S
C472 C471 1.397 1_565 S
C472 C473 1.334 . S
C473 H450 0.950 . S
C473 C472 1.334 . S
C473 C474 1.287 1_565 S
C474 C473 1.287 1_545 S
C474 C475 1.524 . S
C474 H493 0.913 1_545 S
C475 H451 0.950 . S
C475 C474 1.524 . S
C475 C476 1.415 . S
C476 H452 0.950 . S
C476 C471 1.363 . S
C476 C475 1.415 . S
C477 H453 0.951 . S
C477 C478 1.366 1_565 S
C477 C479 1.388 . S
C478 C477 1.366 1_545 S
C478 C482 1.385 . S
C479 H454 0.951 . S
C479 C477 1.388 . S
C479 C480 1.366 1_565 S
C480 C479 1.366 1_545 S
C480 C481 1.414 . S
C480 C483 1.499 . S
C481 H455 0.950 . S
C481 C480 1.414 . S
C481 C482 1.374 . S
C482 H456 0.950 . S
C482 C478 1.385 . S
C482 C481 1.374 . S
C483 C480 1.499 . S
C483 C484 1.373 . S
C483 C485 1.389 . S
C484 H457 0.950 . S
C484 C470 1.377 . S
C484 C483 1.373 . S
C485 C469 1.377 . S
C485 C483 1.389 . S
C485 C486 1.524 . S
C486 C485 1.524 . S
C486 C487 1.397 . S
C486 C491 1.363 1_545 S
C487 H458 0.950 . S
C487 C486 1.397 . S
C487 C488 1.334 . S
C488 H459 0.950 . S
C488 C487 1.334 . S
C488 C489 1.287 . S
C489 C488 1.287 . S
C489 C490 1.524 1_545 S
C489 H492 0.999 . S
C490 H460 0.950 . S
C490 C489 1.524 1_565 S
C490 C491 1.415 . S
C491 H461 0.950 . S
C491 C486 1.363 1_565 S
C491 C490 1.415 . S
H492 C489 0.999 . S
H493 C474 0.913 1_565 S
H494 C512 0.951 . S
H495 C514 0.951 . S
H496 C516 0.950 . S
H497 C517 0.950 . S
H498 C519 0.950 . S
H499 C522 0.950 . S
H500 C523 0.950 . S
H501 C525 0.950 . S
H502 C526 0.950 . S
H503 C527 0.951 . S
H504 C529 0.951 . S
H505 C531 0.950 . S
H506 C532 0.950 . S
H507 C534 0.950 . S
H508 C537 0.950 1_455 S
H509 C538 0.950 . S
H510 C540 0.950 . S
H511 C541 0.950 . S
C512 H494 0.951 . S
C512 C513 1.366 . S
C512 C514 1.388 . S
C513 C512 1.366 . S
C513 C517 1.385 1_455 S
C514 H495 0.951 . S
C514 C512 1.388 . S
C514 C515 1.366 . S
C515 C514 1.366 . S
C515 C516 1.414 1_455 S
C515 C518 1.499 . S
C516 H496 0.950 . S
C516 C515 1.414 1_655 S
C516 C517 1.374 . S
C517 H497 0.950 . S
C517 C513 1.385 1_655 S
C517 C516 1.374 . S
C518 C515 1.499 . S
C518 C519 1.373 1_455 S
C518 C520 1.389 . S
C519 H498 0.950 . S
C519 C518 1.373 1_655 S
C519 C535 1.377 . S
C520 C518 1.389 . S
C520 C521 1.524 . S
C520 C534 1.377 . S
C521 C520 1.524 . S
C521 C522 1.397 . S
C521 C526 1.363 . S
C522 H499 0.950 . S
C522 C521 1.397 . S
C522 C523 1.334 . S
C523 H500 0.950 . S
C523 C522 1.334 . S
C523 C524 1.287 . S
C524 C523 1.287 . S
C524 C525 1.524 . S
C524 H543 0.913 . S
C525 H501 0.950 . S
C525 C524 1.524 . S
C525 C526 1.415 . S
C526 H502 0.950 . S
C526 C521 1.363 . S
C526 C525 1.415 . S
C527 H503 0.951 . S
C527 C528 1.366 1_655 S
C527 C529 1.388 . S
C528 C527 1.366 1_455 S
C528 C532 1.385 . S
C529 H504 0.951 . S
C529 C527 1.388 . S
C529 C530 1.366 1_655 S
C530 C529 1.366 1_455 S
C530 C531 1.414 . S
C530 C533 1.499 . S
C531 H505 0.950 . S
C531 C530 1.414 . S
C531 C532 1.374 . S
C532 H506 0.950 . S
C532 C528 1.385 . S
C532 C531 1.374 . S
C533 C530 1.499 . S
C533 C534 1.373 . S
C533 C535 1.389 1_455 S
C534 H507 0.950 . S
C534 C520 1.377 . S
C534 C533 1.373 . S
C535 C519 1.377 . S
C535 C533 1.389 1_655 S
C535 C536 1.524 . S
C536 C535 1.524 . S
C536 C537 1.397 . S
C536 C541 1.363 . S
C537 H508 0.950 1_655 S
C537 C536 1.397 . S
C537 C538 1.334 . S
C538 H509 0.950 . S
C538 C537 1.334 . S
C538 C539 1.287 . S
C539 C538 1.287 . S
C539 C540 1.524 . S
C539 H542 0.999 . S
C540 H510 0.950 . S
C540 C539 1.524 . S
C540 C541 1.415 . S
C541 H511 0.950 . S
C541 C536 1.363 . S
C541 C540 1.415 . S
H542 C539 0.999 . S
H543 C524 0.913 . S
H544 C562 0.951 . S
H545 C564 0.951 . S
H546 C566 0.950 . S
H547 C567 0.950 . S
H548 C569 0.950 . S
H549 C572 0.950 . S
H550 C573 0.950 . S
H551 C575 0.950 . S
H552 C576 0.950 . S
H553 C577 0.952 . S
H554 C579 0.951 . S
H555 C581 0.950 . S
H556 C582 0.950 . S
H557 C584 0.950 . S
H558 C587 0.950 . S
H559 C588 0.950 . S
H560 C590 0.950 . S
H561 C591 0.950 . S
C562 H544 0.951 . S
C562 C563 1.366 . S
C562 C564 1.388 . S
C563 C562 1.366 . S
C563 C567 1.385 . S
C564 H545 0.951 . S
C564 C562 1.388 . S
C564 C565 1.366 . S
C565 C564 1.366 . S
C565 C566 1.414 . S
C565 C568 1.499 . S
C566 H546 0.950 . S
C566 C565 1.414 . S
C566 C567 1.374 . S
C567 H547 0.950 . S
C567 C563 1.385 . S
C567 C566 1.374 . S
C568 C565 1.499 . S
C568 C569 1.373 . S
C568 C570 1.389 1_545 S
C569 H548 0.950 . S
C569 C568 1.373 . S
C569 C585 1.377 . S
C570 C568 1.389 1_565 S
C570 C571 1.524 . S
C570 C584 1.377 . S
C571 C570 1.524 . S
C571 C572 1.397 . S
C571 C576 1.363 . S
C572 H549 0.950 . S
C572 C571 1.397 . S
C572 C573 1.334 . S
C573 H550 0.950 . S
C573 C572 1.334 . S
C573 C574 1.287 . S
C574 C573 1.287 . S
C574 C575 1.524 . S
C574 H593 0.913 . S
C575 H551 0.950 . S
C575 C574 1.524 . S
C575 C576 1.415 . S
C576 H552 0.950 . S
C576 C571 1.363 . S
C576 C575 1.415 . S
C577 H553 0.952 . S
C577 C578 1.366 . S
C577 C579 1.388 . S
C578 C577 1.366 . S
C578 C582 1.385 . S
C579 H554 0.951 . S
C579 C577 1.388 . S
C579 C580 1.366 . S
C580 C579 1.366 . S
C580 C581 1.414 . S
C580 C583 1.499 . S
C581 H555 0.950 . S
C581 C580 1.414 . S
C581 C582 1.374 . S
C582 H556 0.950 . S
C582 C578 1.385 . S
C582 C581 1.374 . S
C583 C580 1.499 . S
C583 C584 1.373 1_545 S
C583 C585 1.389 . S
C584 H557 0.950 . S
C584 C570 1.377 . S
C584 C583 1.373 1_565 S
C585 C569 1.377 . S
C585 C583 1.389 . S
C585 C586 1.524 . S
C586 C585 1.524 . S
C586 C587 1.397 . S
C586 C591 1.363 . S
C587 H558 0.950 . S
C587 C586 1.397 . S
C587 C588 1.334 . S
C588 H559 0.950 . S
C588 C587 1.334 . S
C588 C589 1.287 . S
C589 C588 1.287 . S
C589 C590 1.524 . S
C589 H592 0.999 . S
C590 H560 0.950 . S
C590 C589 1.524 . S
C590 C591 1.415 . S
C591 H561 0.950 . S
C591 C586 1.363 . S
C591 C590 1.415 . S
H592 C589 0.999 . S
H593 C574 0.913 . S
H594 C612 0.951 . S
H595 C614 0.951 . S
H596 C616 0.950 . S
H597 C617 0.950 . S
H598 C619 0.950 . S
H599 C622 0.950 . S
H600 C623 0.950 . S
H601 C625 0.950 . S
H602 C626 0.950 . S
H603 C627 0.951 . S
H604 C629 0.951 . S
H605 C631 0.950 . S
H606 C632 0.950 . S
H607 C634 0.950 . S
H608 C637 0.950 . S
H609 C638 0.950 . S
H610 C640 0.950 . S
H611 C641 0.950 . S
C612 H594 0.951 . S
C612 C613 1.366 1_655 S
C612 C614 1.388 . S
C613 C612 1.366 1_455 S
C613 C617 1.385 . S
C614 H595 0.951 . S
C614 C612 1.388 . S
C614 C615 1.366 1_655 S
C615 C614 1.366 1_455 S
C615 C616 1.414 . S
C615 C618 1.499 . S
C616 H596 0.950 . S
C616 C615 1.414 . S
C616 C617 1.374 . S
C617 H597 0.950 . S
C617 C613 1.385 . S
C617 C616 1.374 . S
C618 C615 1.499 . S
C618 C619 1.373 . S
C618 C620 1.389 1_455 S
C619 H598 0.950 . S
C619 C618 1.373 . S
C619 C635 1.377 . S
C620 C618 1.389 1_655 S
C620 C621 1.524 . S
C620 C634 1.377 . S
C621 C620 1.524 . S
C621 C622 1.397 . S
C621 C626 1.363 . S
C622 H599 0.950 . S
C622 C621 1.397 . S
C622 C623 1.334 . S
C623 H600 0.950 . S
C623 C622 1.334 . S
C623 C624 1.287 . S
C624 C623 1.287 . S
C624 C625 1.524 . S
C624 H643 0.913 . S
C625 H601 0.950 . S
C625 C624 1.524 . S
C625 C626 1.415 . S
C626 H602 0.950 . S
C626 C621 1.363 . S
C626 C625 1.415 . S
C627 H603 0.951 . S
C627 C628 1.366 . S
C627 C629 1.388 . S
C628 C627 1.366 . S
C628 C632 1.385 1_455 S
C629 H604 0.951 . S
C629 C627 1.388 . S
C629 C630 1.366 . S
C630 C629 1.366 . S
C630 C631 1.414 1_455 S
C630 C633 1.499 . S
C631 H605 0.950 . S
C631 C630 1.414 1_655 S
C631 C632 1.374 . S
C632 H606 0.950 . S
C632 C628 1.385 1_655 S
C632 C631 1.374 . S
C633 C630 1.499 . S
C633 C634 1.373 1_455 S
C633 C635 1.389 . S
C634 H607 0.950 . S
C634 C620 1.377 . S
C634 C633 1.373 1_655 S
C635 C619 1.377 . S
C635 C633 1.389 . S
C635 C636 1.524 . S
C636 C635 1.524 . S
C636 C637 1.397 . S
C636 C641 1.363 . S
C637 H608 0.950 . S
C637 C636 1.397 . S
C637 C638 1.334 . S
C638 H609 0.950 . S
C638 C637 1.334 . S
C638 C639 1.287 . S
C639 C638 1.287 . S
C639 C640 1.524 . S
C639 H642 0.999 . S
C640 H610 0.950 . S
C640 C639 1.524 . S
C640 C641 1.415 . S
C641 H611 0.950 . S
C641 C636 1.363 . S
C641 C640 1.415 . S
H642 C639 0.999 . S
H643 C624 0.913 . S
H644 C662 0.951 . S
H645 C664 0.951 . S
H646 C666 0.950 . S
H647 C667 0.950 . S
H648 C669 0.950 . S
H649 C672 0.950 . S
H650 C673 0.950 . S
H651 C675 0.950 . S
H652 C676 0.950 . S
H653 C677 0.951 . S
H654 C679 0.951 . S
H655 C681 0.950 . S
H656 C682 0.950 . S
H657 C684 0.950 . S
H658 C687 0.950 . S
H659 C688 0.950 . S
H660 C690 0.950 . S
H661 C691 0.950 . S
C662 H644 0.951 . S
C662 C663 1.366 . S
C662 C664 1.388 . S
C663 C662 1.366 . S
C663 C667 1.385 1_545 S
C664 H645 0.951 . S
C664 C662 1.388 . S
C664 C665 1.389 . S
C665 C664 1.389 . S
C665 C666 1.391 1_545 S
C665 C668 1.497 1_545 S
C666 H646 0.950 . S
C666 C665 1.391 1_565 S
C666 C667 1.374 . S
C667 H647 0.950 . S
C667 C663 1.385 1_565 S
C667 C666 1.374 . S
C668 C665 1.497 1_565 S
C668 C669 1.393 . S
C668 C670 1.370 1_565 S
C669 H648 0.950 . S
C669 C668 1.393 . S
C669 C685 1.377 . S
C670 C668 1.370 1_545 S
C670 C671 1.524 . S
C670 C684 1.377 . S
C671 C670 1.524 . S
C671 C672 1.397 . S
C671 C676 1.363 . S
C672 H649 0.950 . S
C672 C671 1.397 . S
C672 C673 1.334 . S
C673 H650 0.950 . S
C673 C672 1.334 . S
C673 C674 1.287 . S
C674 C673 1.287 . S
C674 C675 1.524 . S
C674 H693 0.913 . S
C675 H651 0.950 . S
C675 C674 1.524 . S
C675 C676 1.415 . S
C676 H652 0.950 . S
C676 C671 1.363 . S
C676 C675 1.415 . S
C677 H653 0.951 . S
C677 C678 1.366 . S
C677 C679 1.388 . S
C678 C677 1.366 . S
C678 C682 1.385 1_565 S
C679 H654 0.951 . S
C679 C677 1.388 . S
C679 C680 1.366 . S
C680 C679 1.366 . S
C680 C681 1.414 1_565 S
C680 C683 1.499 . S
C681 H655 0.950 . S
C681 C680 1.414 1_545 S
C681 C682 1.374 . S
C682 H656 0.950 . S
C682 C678 1.385 1_545 S
C682 C681 1.374 . S
C683 C680 1.499 . S
C683 C684 1.373 1_565 S
C683 C685 1.390 . S
C684 H657 0.950 . S
C684 C670 1.377 . S
C684 C683 1.373 1_545 S
C685 C669 1.377 . S
C685 C683 1.390 . S
C685 C686 1.524 . S
C686 C685 1.524 . S
C686 C687 1.397 . S
C686 C691 1.363 . S
C687 H658 0.950 . S
C687 C686 1.397 . S
C687 C688 1.334 . S
C688 H659 0.950 . S
C688 C687 1.334 . S
C688 C689 1.287 . S
C689 C688 1.287 . S
C689 C690 1.524 . S
C689 H692 0.999 . S
C690 H660 0.950 . S
C690 C689 1.524 . S
C690 C691 1.415 . S
C691 H661 0.950 . S
C691 C686 1.363 . S
C691 C690 1.415 . S
H692 C689 0.999 . S
H693 C674 0.913 . S
H694 C712 0.951 . S
H695 C714 0.951 . S
H696 C716 0.950 . S
H697 C717 0.950 . S
H698 C719 0.950 . S
H699 C722 0.950 . S
H700 C723 0.950 . S
H701 C725 0.950 . S
H702 C726 0.950 . S
H703 C727 0.951 . S
H704 C729 0.951 . S
H705 C731 0.950 . S
H706 C732 0.950 . S
H707 C734 0.950 . S
H708 C737 0.950 . S
H709 C738 0.950 . S
H710 C740 0.950 . S
H711 C741 0.950 . S
C712 H694 0.951 . S
C712 C713 1.366 . S
C712 C714 1.388 . S
C713 C712 1.366 . S
C713 C717 1.385 . S
C714 H695 0.951 . S
C714 C712 1.388 . S
C714 C715 1.366 . S
C715 C714 1.366 . S
C715 C716 1.414 . S
C715 C718 1.499 . S
C716 H696 0.950 . S
C716 C715 1.414 . S
C716 C717 1.374 . S
C717 H697 0.950 . S
C717 C713 1.385 . S
C717 C716 1.374 . S
C718 C715 1.499 . S
C718 C719 1.373 . S
C718 C720 1.389 1_455 S
C719 H698 0.950 . S
C719 C718 1.373 . S
C719 C735 1.377 . S
C720 C718 1.389 1_655 S
C720 C721 1.524 . S
C720 C734 1.377 . S
C721 C720 1.524 . S
C721 C722 1.397 . S
C721 C726 1.363 . S
C722 H699 0.950 . S
C722 C721 1.397 . S
C722 C723 1.334 . S
C723 H700 0.950 . S
C723 C722 1.334 . S
C723 C724 1.287 . S
C724 C723 1.287 . S
C724 C725 1.524 . S
C724 H743 0.913 . S
C725 H701 0.950 . S
C725 C724 1.524 . S
C725 C726 1.415 . S
C726 H702 0.950 . S
C726 C721 1.363 . S
C726 C725 1.415 . S
C727 H703 0.951 . S
C727 C728 1.366 . S
C727 C729 1.388 . S
C728 C727 1.366 . S
C728 C732 1.385 . S
C729 H704 0.951 . S
C729 C727 1.388 . S
C729 C730 1.366 . S
C730 C729 1.366 . S
C730 C731 1.414 . S
C730 C733 1.499 . S
C731 H705 0.950 . S
C731 C730 1.414 . S
C731 C732 1.374 . S
C732 H706 0.950 . S
C732 C728 1.385 . S
C732 C731 1.374 . S
C733 C730 1.499 . S
C733 C734 1.373 1_455 S
C733 C735 1.389 . S
C734 H707 0.950 . S
C734 C720 1.377 . S
C734 C733 1.373 1_655 S
C735 C719 1.377 . S
C735 C733 1.389 . S
C735 C736 1.524 . S
C736 C735 1.524 . S
C736 C737 1.397 . S
C736 C741 1.363 . S
C737 H708 0.950 . S
C737 C736 1.397 . S
C737 C738 1.334 . S
C738 H709 0.950 . S
C738 C737 1.334 . S
C738 C739 1.287 . S
C739 C738 1.287 . S
C739 C740 1.524 . S
C739 H742 0.999 . S
C740 H710 0.950 . S
C740 C739 1.524 . S
C740 C741 1.415 . S
C741 H711 0.950 . S
C741 C736 1.363 . S
C741 C740 1.415 . S
H742 C739 0.999 . S
H743 C724 0.913 . S
H744 C762 0.951 . S
H745 C764 0.951 . S
H746 C766 0.950 . S
H747 C767 0.950 . S
H748 C769 0.950 . S
H749 C772 0.950 . S
H750 C773 0.950 . S
H751 C775 0.950 . S
H752 C776 0.950 . S
H753 C777 0.951 . S
H754 C779 0.951 . S
H755 C781 0.950 . S
H756 C782 0.950 . S
H757 C784 0.950 . S
H758 C787 0.950 . S
H759 C788 0.950 . S
H760 C790 0.950 . S
H761 C791 0.950 . S
C762 H744 0.951 . S
C762 C763 1.366 . S
C762 C764 1.388 . S
C763 C762 1.366 . S
C763 C767 1.385 . S
C764 H745 0.951 . S
C764 C762 1.388 . S
C764 C765 1.366 . S
C765 C764 1.366 . S
C765 C766 1.414 . S
C765 C768 1.499 . S
C766 H746 0.950 . S
C766 C765 1.414 . S
C766 C767 1.374 . S
C767 H747 0.950 . S
C767 C763 1.385 . S
C767 C766 1.374 . S
C768 C765 1.499 . S
C768 C769 1.373 1_545 S
C768 C770 1.389 . S
C769 H748 0.950 . S
C769 C768 1.373 1_565 S
C769 C785 1.377 . S
C770 C768 1.389 . S
C770 C771 1.524 . S
C770 C784 1.377 . S
C771 C770 1.524 . S
C771 C772 1.397 . S
C771 C776 1.363 . S
C772 H749 0.950 . S
C772 C771 1.397 . S
C772 C773 1.334 . S
C773 H750 0.950 . S
C773 C772 1.334 . S
C773 C774 1.287 . S
C774 C773 1.287 . S
C774 C775 1.524 . S
C774 H793 0.913 . S
C775 H751 0.950 . S
C775 C774 1.524 . S
C775 C776 1.415 . S
C776 H752 0.950 . S
C776 C771 1.363 . S
C776 C775 1.415 . S
C777 H753 0.951 . S
C777 C778 1.366 . S
C777 C779 1.388 . S
C778 C777 1.366 . S
C778 C782 1.385 . S
C779 H754 0.951 . S
C779 C777 1.388 . S
C779 C780 1.366 . S
C780 C779 1.366 . S
C780 C781 1.414 . S
C780 C783 1.499 . S
C781 H755 0.950 . S
C781 C780 1.414 . S
C781 C782 1.374 . S
C782 H756 0.950 . S
C782 C778 1.385 . S
C782 C781 1.374 . S
C783 C780 1.499 . S
C783 C784 1.373 . S
C783 C785 1.389 1_545 S
C784 H757 0.950 . S
C784 C770 1.377 . S
C784 C783 1.373 . S
C785 C769 1.377 . S
C785 C783 1.389 1_565 S
C785 C786 1.524 . S
C786 C785 1.524 . S
C786 C787 1.397 . S
C786 C791 1.363 . S
C787 H758 0.950 . S
C787 C786 1.397 . S
C787 C788 1.334 . S
C788 H759 0.950 . S
C788 C787 1.334 . S
C788 C789 1.287 . S
C789 C788 1.287 . S
C789 C790 1.524 . S
C789 H792 0.999 . S
C790 H760 0.950 . S
C790 C789 1.524 . S
C790 C791 1.415 . S
C791 H761 0.950 . S
C791 C786 1.363 . S
C791 C790 1.415 . S
H792 C789 0.999 . S
H793 C774 0.913 . S
H794 C812 0.951 1_556 S
H795 C814 0.959 . S
H796 C816 0.950 . S
H797 C817 0.950 . S
H798 C819 0.950 1_556 S
H799 C822 0.950 . S
H800 C823 0.950 . S
H801 C825 0.950 . S
H802 C826 0.950 . S
H803 C827 0.951 . S
H804 C829 0.951 . S
H805 C831 0.957 . S
H806 C832 0.950 . S
H807 C834 0.950 . S
H808 C837 0.950 . S
H809 C838 0.950 . S
H810 C840 0.950 . S
H811 C841 0.950 1_554 S
C812 H794 0.951 1_554 S
C812 C813 1.366 . S
C812 C814 1.388 . S
C813 C812 1.366 . S
C813 C817 1.385 . S
C814 H795 0.959 . S
C814 C812 1.388 . S
C814 C815 1.366 . S
C815 C814 1.366 . S
C815 C816 1.414 . S
C815 C818 1.499 . S
C816 H796 0.950 . S
C816 C815 1.414 . S
C816 C817 1.374 . S
C817 H797 0.950 . S
C817 C813 1.385 . S
C817 C816 1.374 . S
C818 C815 1.499 . S
C818 C819 1.373 . S
C818 C820 1.389 . S
C819 H798 0.950 1_554 S
C819 C818 1.373 . S
C819 C835 1.376 1_554 S
C820 C818 1.389 . S
C820 C821 1.524 . S
C820 C834 1.377 . S
C821 C820 1.524 . S
C821 C822 1.397 . S
C821 C826 1.363 . S
C822 H799 0.950 . S
C822 C821 1.397 . S
C822 C823 1.334 . S
C823 H800 0.950 . S
C823 C822 1.334 . S
C823 C824 1.287 . S
C824 C823 1.287 . S
C824 C825 1.524 . S
C824 H843 0.913 . S
C825 H801 0.950 . S
C825 C824 1.524 . S
C825 C826 1.415 . S
C826 H802 0.950 . S
C826 C821 1.363 . S
C826 C825 1.415 . S
C827 H803 0.951 . S
C827 C828 1.366 . S
C827 C829 1.388 . S
C828 C827 1.366 . S
C828 C832 1.385 . S
C829 H804 0.951 . S
C829 C827 1.388 . S
C829 C830 1.366 . S
C830 C829 1.366 . S
C830 C831 1.414 . S
C830 C833 1.499 . S
C831 H805 0.957 . S
C831 C830 1.414 . S
C831 C832 1.374 . S
C832 H806 0.950 . S
C832 C828 1.385 . S
C832 C831 1.374 . S
C833 C830 1.499 . S
C833 C834 1.373 . S
C833 C835 1.388 1_554 S
C834 H807 0.950 . S
C834 C820 1.377 . S
C834 C833 1.373 . S
C835 C819 1.376 1_556 S
C835 C833 1.388 1_556 S
C835 C836 1.527 . S
C836 C835 1.527 . S
C836 C837 1.397 . S
C836 C841 1.363 . S
C837 H808 0.950 . S
C837 C836 1.397 . S
C837 C838 1.334 . S
C838 H809 0.950 . S
C838 C837 1.334 . S
C838 C839 1.287 . S
C839 C838 1.287 . S
C839 C840 1.524 . S
C839 H842 0.999 . S
C840 H810 0.950 . S
C840 C839 1.524 . S
C840 C841 1.415 . S
C841 H811 0.950 1_556 S
C841 C836 1.363 . S
C841 C840 1.415 . S
H842 C839 0.999 . S
H843 C824 0.913 . S
H844 C862 0.951 . S
H845 C864 0.951 . S
H846 C866 0.950 . S
H847 C867 0.950 . S
H848 C869 0.950 . S
H849 C872 0.950 . S
H850 C873 0.950 . S
H851 C875 0.950 . S
H852 C876 0.950 . S
H853 C877 0.951 . S
H854 C879 0.951 . S
H855 C881 0.950 . S
H856 C882 0.950 . S
H857 C884 0.950 . S
H858 C887 0.950 . S
H859 C888 0.950 . S
H860 C890 0.950 . S
H861 C891 0.950 . S
C862 H844 0.951 . S
C862 C863 1.366 . S
C862 C864 1.388 . S
C863 C862 1.366 . S
C863 C867 1.385 . S
C864 H845 0.951 . S
C864 C862 1.388 . S
C864 C865 1.366 . S
C865 C864 1.366 . S
C865 C866 1.414 . S
C865 C868 1.499 . S
C866 H846 0.950 . S
C866 C865 1.414 . S
C866 C867 1.374 . S
C867 H847 0.950 . S
C867 C863 1.385 . S
C867 C866 1.374 . S
C868 C865 1.499 . S
C868 C869 1.373 1_554 S
C868 C870 1.389 . S
C869 H848 0.950 . S
C869 C868 1.373 1_556 S
C869 C885 1.377 . S
C870 C868 1.389 . S
C870 C871 1.524 . S
C870 C884 1.377 . S
C871 C870 1.524 . S
C871 C872 1.397 . S
C871 C876 1.363 . S
C872 H849 0.950 . S
C872 C871 1.397 . S
C872 C873 1.334 . S
C873 H850 0.950 . S
C873 C872 1.334 . S
C873 C874 1.287 . S
C874 C873 1.287 . S
C874 C875 1.524 . S
C874 H893 0.913 . S
C875 H851 0.950 . S
C875 C874 1.524 . S
C875 C876 1.415 . S
C876 H852 0.950 . S
C876 C871 1.363 . S
C876 C875 1.415 . S
C877 H853 0.951 . S
C877 C878 1.366 . S
C877 C879 1.388 . S
C878 C877 1.366 . S
C878 C882 1.385 . S
C879 H854 0.951 . S
C879 C877 1.388 . S
C879 C880 1.366 . S
C880 C879 1.366 . S
C880 C881 1.414 . S
C880 C883 1.499 . S
C881 H855 0.950 . S
C881 C880 1.414 . S
C881 C882 1.374 . S
C882 H856 0.950 . S
C882 C878 1.385 . S
C882 C881 1.374 . S
C883 C880 1.499 . S
C883 C884 1.373 . S
C883 C885 1.389 1_554 S
C884 H857 0.950 . S
C884 C870 1.377 . S
C884 C883 1.373 . S
C885 C869 1.377 . S
C885 C883 1.389 1_556 S
C885 C886 1.524 . S
C886 C885 1.524 . S
C886 C887 1.397 . S
C886 C891 1.363 . S
C887 H858 0.950 . S
C887 C886 1.397 . S
C887 C888 1.334 . S
C888 H859 0.950 . S
C888 C887 1.334 . S
C888 C889 1.287 . S
C889 C888 1.287 . S
C889 C890 1.524 . S
C889 H892 0.999 . S
C890 H860 0.950 . S
C890 C889 1.524 . S
C890 C891 1.415 . S
C891 H861 0.950 . S
C891 C886 1.363 . S
C891 C890 1.415 . S
H892 C889 0.999 . S
H893 C874 0.913 . S
H894 C912 0.951 . S
H895 C914 0.951 . S
H896 C916 0.950 1_556 S
H897 C917 0.950 . S
H898 C919 0.950 . S
H899 C922 0.950 . S
H900 C923 0.950 . S
H901 C925 0.950 1_554 S
H902 C926 0.950 . S
H903 C927 0.951 1_556 S
H904 C929 0.951 1_556 S
H905 C931 0.950 . S
H906 C932 0.950 . S
H907 C934 0.950 . S
H908 C937 0.950 . S
H909 C938 0.950 . S
H910 C940 0.950 . S
H911 C941 0.950 . S
C912 H894 0.951 . S
C912 C913 1.366 . S
C912 C914 1.388 . S
C913 C912 1.366 . S
C913 C917 1.385 . S
C914 H895 0.951 . S
C914 C912 1.388 . S
C914 C915 1.366 . S
C915 C914 1.366 . S
C915 C916 1.414 . S
C915 C918 1.499 . S
C916 H896 0.950 1_554 S
C916 C915 1.414 . S
C916 C917 1.374 . S
C917 H897 0.950 . S
C917 C913 1.385 . S
C917 C916 1.374 . S
C918 C915 1.499 . S
C918 C919 1.373 . S
C918 C920 1.389 . S
C919 H898 0.950 . S
C919 C918 1.373 . S
C919 C935 1.377 . S
C920 C918 1.389 . S
C920 C921 1.524 1_554 S
C920 C934 1.377 . S
C921 C920 1.524 1_556 S
C921 C922 1.397 . S
C921 C926 1.363 1_556 S
C922 H899 0.950 . S
C922 C921 1.397 . S
C922 C923 1.334 . S
C923 H900 0.950 . S
C923 C922 1.334 . S
C923 C924 1.287 . S
C924 C923 1.287 . S
C924 C925 1.524 . S
C924 H943 0.913 . S
C925 H901 0.950 1_556 S
C925 C924 1.524 . S
C925 C926 1.415 1_556 S
C926 H902 0.950 . S
C926 C921 1.363 1_554 S
C926 C925 1.415 1_554 S
C927 H903 0.951 1_554 S
C927 C928 1.366 . S
C927 C929 1.388 . S
C928 C927 1.366 . S
C928 C932 1.385 . S
C929 H904 0.951 1_554 S
C929 C927 1.388 . S
C929 C930 1.366 . S
C930 C929 1.366 . S
C930 C931 1.414 . S
C930 C933 1.499 . S
C931 H905 0.950 . S
C931 C930 1.414 . S
C931 C932 1.374 . S
C932 H906 0.950 . S
C932 C928 1.385 . S
C932 C931 1.374 . S
C933 C930 1.499 . S
C933 C934 1.373 . S
C933 C935 1.389 . S
C934 H907 0.950 . S
C934 C920 1.377 . S
C934 C933 1.373 . S
C935 C919 1.377 . S
C935 C933 1.389 . S
C935 C936 1.524 . S
C936 C935 1.524 . S
C936 C937 1.397 . S
C936 C941 1.363 . S
C937 H908 0.950 . S
C937 C936 1.397 . S
C937 C938 1.334 . S
C938 H909 0.950 . S
C938 C937 1.334 . S
C938 C939 1.287 . S
C939 C938 1.287 . S
C939 C940 1.524 . S
C939 H942 0.999 . S
C940 H910 0.950 . S
C940 C939 1.524 . S
C940 C941 1.415 . S
C941 H911 0.950 . S
C941 C936 1.363 . S
C941 C940 1.415 . S
H942 C939 0.999 . S
H943 C924 0.913 . S
H944 C962 0.951 . S
H945 C964 0.951 . S
H946 C966 0.950 . S
H947 C967 0.950 . S
H948 C969 0.950 . S
H949 C972 0.950 . S
H950 C973 0.950 . S
H951 C975 0.950 . S
H952 C976 0.950 . S
H953 C977 0.951 . S
H954 C979 0.951 . S
H955 C981 0.950 . S
H956 C982 0.950 . S
H957 C984 0.950 . S
H958 C987 0.950 . S
H959 C988 0.950 . S
H960 C990 0.950 . S
H961 C991 0.950 . S
C962 H944 0.951 . S
C962 C963 1.366 1_556 S
C962 C964 1.388 . S
C963 C962 1.366 1_554 S
C963 C967 1.385 . S
C964 H945 0.951 . S
C964 C962 1.388 . S
C964 C965 1.366 1_556 S
C965 C964 1.366 1_554 S
C965 C966 1.414 . S
C965 C968 1.499 . S
C966 H946 0.950 . S
C966 C965 1.414 . S
C966 C967 1.374 . S
C967 H947 0.950 . S
C967 C963 1.385 . S
C967 C966 1.374 . S
C968 C965 1.499 . S
C968 C969 1.373 . S
C968 C970 1.389 1_554 S
C969 H948 0.950 . S
C969 C968 1.373 . S
C969 C985 1.377 . S
C970 C968 1.389 1_556 S
C970 C971 1.524 . S
C970 C984 1.377 . S
C971 C970 1.524 . S
C971 C972 1.397 . S
C971 C976 1.363 . S
C972 H949 0.950 . S
C972 C971 1.397 . S
C972 C973 1.334 . S
C973 H950 0.950 . S
C973 C972 1.334 . S
C973 C974 1.287 . S
C974 C973 1.287 . S
C974 C975 1.524 . S
C974 H993 0.913 . S
C975 H951 0.950 . S
C975 C974 1.524 . S
C975 C976 1.415 . S
C976 H952 0.950 . S
C976 C971 1.363 . S
C976 C975 1.415 . S
C977 H953 0.951 . S
C977 C978 1.366 . S
C977 C979 1.388 . S
C978 C977 1.366 . S
C978 C982 1.385 1_554 S
C979 H954 0.951 . S
C979 C977 1.388 . S
C979 C980 1.366 . S
C980 C979 1.366 . S
C980 C981 1.414 1_554 S
C980 C983 1.499 . S
C981 H955 0.950 . S
C981 C980 1.414 1_556 S
C981 C982 1.374 . S
C982 H956 0.950 . S
C982 C978 1.385 1_556 S
C982 C981 1.374 . S
C983 C980 1.499 . S
C983 C984 1.373 1_554 S
C983 C985 1.389 . S
C984 H957 0.950 . S
C984 C970 1.377 . S
C984 C983 1.373 1_556 S
C985 C969 1.377 . S
C985 C983 1.389 . S
C985 C986 1.524 . S
C986 C985 1.524 . S
C986 C987 1.397 . S
C986 C991 1.363 . S
C987 H958 0.950 . S
C987 C986 1.397 . S
C987 C988 1.334 . S
C988 H959 0.950 . S
C988 C987 1.334 . S
C988 C989 1.287 . S
C989 C988 1.287 . S
C989 C990 1.524 . S
C989 H992 0.999 . S
C990 H960 0.950 . S
C990 C989 1.524 . S
C990 C991 1.415 . S
C991 H961 0.950 . S
C991 C986 1.363 . S
C991 C990 1.415 . S
H992 C989 0.999 . S
H993 C974 0.913 . S
C428 C378 1.643 . S
C413 C11 1.009 1_455 S
C478 C374 1.601 . S
C463 C143 1.392 . S
C528 C384 1.392 . S
C513 C1 1.105 . S
C578 C368 1.762 . S
C563 C169 1.406 . S
C613 C29 1.438 . S
C628 C360 1.624 . S
C678 C392 1.881 1_565 S
C663 C125 1.193 1_545 S
C713 C55 1.468 . S
C728 C346 1.790 . S
C763 C115 1.299 . S
C778 C390 1.624 . S
C813 C283 0.860 . S
C828 C372 1.075 . S
C863 C239 0.707 . S
C878 C387 1.077 . S
C928 C381 0.933 . S
C913 C257 0.846 . S
C978 C376 0.824 . S
C963 C229 0.769 . S
