# Generated by pormake.
# Topology ssa, (4,4)-cn, num edge types: 1
# Building blocks:
#     Node 0, Type 0, BuildingBlock: ESEHIV_clean_sbu_0, # of connection points: 4
#     Node 1, Type 0, BuildingBlock: ESEHIV_clean_sbu_0, # of connection points: 4
#     Node 2, Type 0, BuildingBlock: ESEHIV_clean_sbu_0, # of connection points: 4
#     Node 3, Type 0, BuildingBlock: ESEHIV_clean_sbu_0, # of connection points: 4
#     Node 4, Type 0, BuildingBlock: ESEHIV_clean_sbu_0, # of connection points: 4
#     Node 5, Type 0, BuildingBlock: ESEHIV_clean_sbu_0, # of connection points: 4
#     Node 6, Type 1, BuildingBlock: NAHDIM_clean_linker_0, # of connection points: 4
#     Node 7, Type 1, BuildingBlock: NAHDIM_clean_linker_0, # of connection points: 4
#     Node 8, Type 1, BuildingBlock: NAHDIM_clean_linker_0, # of connection points: 4
#     Node 9, Type 1, BuildingBlock: NAHDIM_clean_linker_0, # of connection points: 4
#     Node 10, Type 1, BuildingBlock: NAHDIM_clean_linker_0, # of connection points: 4
#     Node 11, Type 1, BuildingBlock: NAHDIM_clean_linker_0, # of connection points: 4
#     Edge 12, Type (0, 1), BuildingBlock: XIVTED_clean_linker_0, # of connection points: 2
#     Edge 13, Type (0, 1), BuildingBlock: XIVTED_clean_linker_0, # of connection points: 2
#     Edge 14, Type (0, 1), BuildingBlock: XIVTED_clean_linker_0, # of connection points: 2
#     Edge 15, Type (0, 1), BuildingBlock: XIVTED_clean_linker_0, # of connection points: 2
#     Edge 16, Type (0, 1), BuildingBlock: XIVTED_clean_linker_0, # of connection points: 2
#     Edge 17, Type (0, 1), BuildingBlock: XIVTED_clean_linker_0, # of connection points: 2
#     Edge 18, Type (0, 1), BuildingBlock: XIVTED_clean_linker_0, # of connection points: 2
#     Edge 19, Type (0, 1), BuildingBlock: XIVTED_clean_linker_0, # of connection points: 2
#     Edge 20, Type (0, 1), BuildingBlock: XIVTED_clean_linker_0, # of connection points: 2
#     Edge 21, Type (0, 1), BuildingBlock: XIVTED_clean_linker_0, # of connection points: 2
#     Edge 22, Type (0, 1), BuildingBlock: XIVTED_clean_linker_0, # of connection points: 2
#     Edge 23, Type (0, 1), BuildingBlock: XIVTED_clean_linker_0, # of connection points: 2
#     Edge 24, Type (0, 1), BuildingBlock: XIVTED_clean_linker_0, # of connection points: 2
#     Edge 25, Type (0, 1), BuildingBlock: XIVTED_clean_linker_0, # of connection points: 2
#     Edge 26, Type (0, 1), BuildingBlock: XIVTED_clean_linker_0, # of connection points: 2
#     Edge 27, Type (0, 1), BuildingBlock: XIVTED_clean_linker_0, # of connection points: 2
#     Edge 28, Type (0, 1), BuildingBlock: XIVTED_clean_linker_0, # of connection points: 2
#     Edge 29, Type (0, 1), BuildingBlock: XIVTED_clean_linker_0, # of connection points: 2
#     Edge 30, Type (0, 1), BuildingBlock: XIVTED_clean_linker_0, # of connection points: 2
#     Edge 31, Type (0, 1), BuildingBlock: XIVTED_clean_linker_0, # of connection points: 2
#     Edge 32, Type (0, 1), BuildingBlock: XIVTED_clean_linker_0, # of connection points: 2
#     Edge 33, Type (0, 1), BuildingBlock: XIVTED_clean_linker_0, # of connection points: 2
#     Edge 34, Type (0, 1), BuildingBlock: XIVTED_clean_linker_0, # of connection points: 2
#     Edge 35, Type (0, 1), BuildingBlock: XIVTED_clean_linker_0, # of connection points: 2
# Relax obj value: 0.017
# Max RMSD: 0.106
# Mean RMSD: 0.070
data_MOF--net-ssa--node1-ESEHIV_clean_sbu_0--node2-NAHDIM_clean_linker_0--edge1-XIVTED_clean_linker_0
_symmetry_space_group_name_H-M    P1
_symmetry_Int_Tables_number       1
_symmetry_cell_setting            triclinic
loop_
_symmetry_equiv_pos_as_xyz
'x, y, z'
_cell_length_a     62.046302
_cell_length_b     65.517462
_cell_length_c     54.967164
_cell_angle_alpha  88.561872
_cell_angle_beta   91.070408
_cell_angle_gamma 121.87438
loop_
_atom_site_label
_atom_site_type_symbol
_atom_site_fract_x
_atom_site_fract_y
_atom_site_fract_z
_atom_type_partial_charge
Cu0 Cu 0.03833 0.51943 0.99392 0.0
N1 N 0.03753 0.50264 0.96673 0.0
N2 N 0.02288 0.47199 0.94128 0.0
C3 C 0.01953 0.4796 0.96265 0.0
C4 C 0.04391 0.49109 0.93153 0.0
C5 C 0.05284 0.51007 0.94725 0.0
O6 O 0.01142 0.52597 0.98932 0.0
C7 C 0.04766 0.4905 0.0241 0.0
O8 O 0.06134 0.49242 0.00522 0.0
H9 H 0.00437 0.46863 0.97531 0.0
H10 H 0.06907 0.52805 0.94447 0.0
N11 N 0.06903 0.54848 0.99726 0.0
N12 N 0.09662 0.58452 0.01248 0.0
C13 C 0.07198 0.56697 0.01011 0.0
C14 C 0.09258 0.55436 0.99127 0.0
C15 C 0.10969 0.57669 1.0006 0.0
C16 C 0.01482 0.54093 0.9723 0.0
O17 O 0.03615 0.55124 0.96006 0.0
H18 H 0.05637 0.56684 0.01872 0.0
H19 H 0.09707 0.54283 0.98177 0.0
O20 O 0.03477 0.50051 0.02309 0.0
H21 H 0.05194 0.49151 0.91407 0.0
H22 H 0.13014 0.58609 0.99923 0.0
Cu23 Cu 0.51006 0.00285 0.51831 0.0
N24 N 0.51613 0.97794 0.52079 0.0
N25 N 0.52743 0.95271 0.50839 0.0
C26 C 0.51947 0.9676 0.5016 0.0
C27 C 0.52893 0.95358 0.53294 0.0
C28 C 0.52188 0.96917 0.54055 0.0
O29 O 0.49328 0.99934 0.48734 0.0
C30 C 0.5633 0.03658 0.51657 0.0
O31 O 0.56426 0.02028 0.50402 0.0
H32 H 0.51788 0.97233 0.48293 0.0
H33 H 0.52213 0.97463 0.55901 0.0
N34 N 0.48893 0.00083 0.54308 0.0
N35 N 0.47142 0.0136 0.56909 0.0
C36 C 0.49078 0.01995 0.55369 0.0
C37 C 0.46784 0.98152 0.55217 0.0
C38 C 0.45701 0.98934 0.56831 0.0
C39 C 0.47861 0.00704 0.48274 0.0
O40 O 0.47729 0.02127 0.49824 0.0
H41 H 0.50579 0.03823 0.54954 0.0
H42 H 0.4604 0.9632 0.54677 0.0
O43 O 0.54183 0.03317 0.52216 0.0
H44 H 0.53546 0.94429 0.54451 0.0
H45 H 0.4393 0.97808 0.57781 0.0
Cu46 Cu 0.52097 0.50781 0.02554 0.0
N47 N 0.51189 0.47566 0.02615 0.0
N48 N 0.50497 0.4401 0.01471 0.0
C49 C 0.5182 0.46414 0.01051 0.0
C50 C 0.49014 0.43657 0.03402 0.0
C51 C 0.49444 0.45844 0.04097 0.0
O52 O 0.53747 0.52341 0.99517 0.0
C53 C 0.48392 0.50742 0.05365 0.0
O54 O 0.49826 0.50679 0.07115 0.0
H55 H 0.53174 0.47318 0.99599 0.0
H56 H 0.48466 0.46145 0.05517 0.0
N57 N 0.54446 0.52467 0.0502 0.0
N58 N 0.56533 0.55255 0.07841 0.0
C59 C 0.55122 0.54665 0.05785 0.0
C60 C 0.55499 0.5165 0.06617 0.0
C61 C 0.56784 0.53366 0.08367 0.0
C62 C 0.53083 0.51408 0.97426 0.0
O63 O 0.50962 0.49317 0.97176 0.0
H64 H 0.5443 0.55728 0.04952 0.0
H65 H 0.55241 0.49884 0.06579 0.0
O66 O 0.49025 0.50814 0.03157 0.0
H67 H 0.47618 0.41932 0.04189 0.0
H68 H 0.57755 0.53202 0.09946 0.0
Cu69 Cu 0.99966 0.49741 0.50208 0.0
N70 N 0.99915 0.47928 0.47605 0.0
N71 N 0.01186 0.46077 0.45177 0.0
C72 C 0.01509 0.47145 0.47333 0.0
C73 C 0.99268 0.46142 0.4406 0.0
C74 C 0.98492 0.47293 0.45561 0.0
O75 O 0.02799 0.53045 0.49885 0.0
C76 C 0.01353 0.47598 0.54194 0.0
O77 O 0.03522 0.48326 0.53122 0.0
H78 H 0.02917 0.47394 0.48672 0.0
H79 H 0.97041 0.47695 0.4516 0.0
N80 N 0.97097 0.49959 0.50217 0.0
N81 N 0.94355 0.50714 0.51927 0.0
C82 C 0.95919 0.49885 0.52275 0.0
C83 C 0.96243 0.50856 0.48489 0.0
C84 C 0.94543 0.51321 0.4954 0.0
C85 C 0.04963 0.5374 0.48989 0.0
O86 O 0.05562 0.52151 0.485 0.0
H87 H 0.96407 0.49471 0.54043 0.0
H88 H 0.96965 0.5133 0.46653 0.0
O89 O 0.99814 0.4813 0.53271 0.0
H90 H 0.98545 0.45491 0.42253 0.0
H91 H 0.93646 0.5218 0.48653 0.0
Cu92 Cu 0.53979 0.02531 0.0319 0.0
N93 N 0.53736 0.05251 0.03063 0.0
N94 N 0.52877 0.07912 0.01441 0.0
C95 C 0.5371 0.0642 0.01025 0.0
C96 C 0.52395 0.07696 0.03849 0.0
C97 C 0.52913 0.06046 0.0484 0.0
O98 O 0.55748 0.02493 0.00337 0.0
C99 C 0.49975 0.97668 0.04071 0.0
O100 O 0.51747 0.97149 0.0399 0.0
H101 H 0.54068 0.06021 0.99237 0.0
H102 H 0.52508 0.05328 0.0668 0.0
N103 N 0.55862 0.02569 0.05894 0.0
N104 N 0.57847 0.01362 0.0843 0.0
C105 C 0.56752 0.01103 0.06223 0.0
C106 C 0.56458 0.03842 0.07948 0.0
C107 C 0.57686 0.03101 0.09517 0.0
C108 C 0.5498 0.02261 0.98143 0.0
O109 O 0.52682 0.01797 0.97666 0.0
H110 H 0.56576 0.99852 0.0487 0.0
H111 H 0.55986 0.05172 0.08311 0.0
O112 O 0.5054 0.99798 0.03562 0.0
H113 H 0.51574 0.08548 0.04802 0.0
H114 H 0.58322 0.03731 0.11346 0.0
Cu115 Cu 0.48966 0.49735 0.533 0.0
N116 N 0.50083 0.52991 0.53329 0.0
N117 N 0.51846 0.56749 0.51863 0.0
C118 C 0.50456 0.54384 0.51347 0.0
C119 C 0.52349 0.56837 0.5427 0.0
C120 C 0.51288 0.54522 0.5516 0.0
O121 O 0.46819 0.48305 0.50451 0.0
C122 C 0.52513 0.48258 0.54453 0.0
O123 O 0.50594 0.46274 0.55377 0.0
H124 H 0.49858 0.53669 0.49539 0.0
H125 H 0.5158 0.54008 0.56962 0.0
N126 N 0.47061 0.48155 0.56083 0.0
N127 N 0.44872 0.45214 0.58822 0.0
C128 C 0.45798 0.4577 0.56539 0.0
C129 C 0.46836 0.4913 0.58118 0.0
C130 C 0.45506 0.47323 0.59816 0.0
C131 C 0.44913 0.48546 0.5029 0.0
O132 O 0.44577 0.49709 0.52008 0.0
H133 H 0.45694 0.44483 0.5527 0.0
H134 H 0.47634 0.51024 0.58384 0.0
O135 O 0.52111 0.49744 0.5332 0.0
H136 H 0.53582 0.58454 0.55277 0.0
H137 H 0.45095 0.47549 0.6166 0.0
C138 C 0.10695 0.37211 0.42005 0.0
C139 C 0.11747 0.39445 0.40355 0.0
C140 C 0.13559 0.39577 0.36419 0.0
C141 C 0.15537 0.41999 0.36331 0.0
C142 C 0.17596 0.42782 0.34754 0.0
C143 C 0.17683 0.41099 0.33256 0.0
C144 C 0.15674 0.38658 0.33331 0.0
C145 C 0.13612 0.37941 0.34882 0.0
C146 C 0.19676 0.45404 0.34692 0.0
C147 C 0.1571 0.36802 0.3179 0.0
C148 C 0.3609 0.44518 0.38618 0.0
C149 C 0.34253 0.43674 0.3656 0.0
C150 C 0.31109 0.44525 0.34843 0.0
C151 C 0.29492 0.42242 0.33847 0.0
C152 C 0.27251 0.41708 0.32609 0.0
C153 C 0.2664 0.435 0.3233 0.0
C154 C 0.28295 0.45811 0.33289 0.0
C155 C 0.30497 0.46284 0.34545 0.0
C156 C 0.25521 0.39224 0.31618 0.0
C157 C 0.27726 0.47777 0.33006 0.0
C158 C 0.29577 0.4582 0.16084 0.0
C159 C 0.27414 0.43487 0.16248 0.0
C160 C 0.25434 0.42954 0.17841 0.0
C161 C 0.25575 0.44808 0.19238 0.0
C162 C 0.27691 0.47183 0.18986 0.0
C163 C 0.29676 0.47649 0.1743 0.0
C164 C 0.23195 0.40403 0.18037 0.0
C165 C 0.27869 0.49224 0.20376 0.0
C166 C 0.06371 0.41122 0.19093 0.0
C167 C 0.08772 0.42989 0.17744 0.0
C168 C 0.12352 0.42378 0.18208 0.0
C169 C 0.12772 0.40484 0.18346 0.0
C170 C 0.14993 0.40782 0.19406 0.0
C171 C 0.16864 0.43054 0.20311 0.0
C172 C 0.16491 0.45004 0.20109 0.0
C173 C 0.1424 0.44651 0.1905 0.0
C174 C 0.15334 0.38667 0.19574 0.0
C175 C 0.18473 0.47459 0.21014 0.0
C176 C 0.1986 0.41892 0.31592 0.0
C177 C 0.22125 0.42244 0.32578 0.0
C178 C 0.24235 0.42957 0.31111 0.0
C179 C 0.24066 0.43264 0.2857 0.0
C180 C 0.26112 0.43887 0.27023 0.0
C181 C 0.25922 0.4418 0.24525 0.0
C182 C 0.23704 0.43924 0.23485 0.0
C183 C 0.23503 0.44254 0.20952 0.0
C184 C 0.2127 0.43991 0.19987 0.0
C185 C 0.19205 0.4338 0.21476 0.0
C186 C 0.19363 0.43031 0.24007 0.0
C187 C 0.17318 0.42406 0.25554 0.0
C188 C 0.17481 0.42046 0.28038 0.0
C189 C 0.19692 0.42286 0.29073 0.0
C190 C 0.21792 0.42947 0.27553 0.0
C191 C 0.21622 0.43306 0.25014 0.0
C192 C 0.32589 0.433 0.15242 0.0
C193 C 0.32062 0.44827 0.13447 0.0
O194 O 0.11571 0.38767 0.37956 0.0
O195 O 0.10151 0.41953 0.17167 0.0
O196 O 0.31615 0.46387 0.14685 0.0
O197 O 0.33249 0.45106 0.36127 0.0
H198 H 0.13771 0.40663 0.40902 0.0
H199 H 0.1182 0.36358 0.41773 0.0
H200 H 0.08682 0.35878 0.41542 0.0
H201 H 0.10824 0.37709 0.43944 0.0
H202 H 0.15458 0.43281 0.37474 0.0
H203 H 0.1206 0.36079 0.34951 0.0
H204 H 0.21432 0.4561 0.35499 0.0
H205 H 0.19171 0.46528 0.35726 0.0
H206 H 0.20101 0.4609 0.32783 0.0
H207 H 0.14177 0.34942 0.32292 0.0
H208 H 0.17567 0.3694 0.31977 0.0
H209 H 0.15461 0.37138 0.29846 0.0
H210 H 0.34827 0.43165 0.34883 0.0
H211 H 0.37956 0.45024 0.3777 0.0
H212 H 0.34152 0.41597 0.41442 0.0
H213 H 0.36685 0.46438 0.38983 0.0
H214 H 0.29952 0.40867 0.3405 0.0
H215 H 0.31758 0.48039 0.35313 0.0
H216 H 0.25315 0.39344 0.29618 0.0
H217 H 0.23602 0.38412 0.32421 0.0
H218 H 0.26241 0.38016 0.32012 0.0
H219 H 0.29284 0.49519 0.3372 0.0
H220 H 0.25958 0.47249 0.33996 0.0
H221 H 0.27405 0.48029 0.31056 0.0
H222 H 0.30385 0.43632 0.12292 0.0
H223 H 0.2726 0.42062 0.15161 0.0
H224 H 0.31334 0.49451 0.1727 0.0
H225 H 0.22775 0.39826 0.19977 0.0
H226 H 0.23523 0.39118 0.17078 0.0
H227 H 0.21496 0.40311 0.17226 0.0
H228 H 0.29468 0.51003 0.19744 0.0
H229 H 0.28154 0.48998 0.2234 0.0
H230 H 0.26074 0.49206 0.20184 0.0
H231 H 0.0986 0.44531 0.1898 0.0
H232 H 0.05238 0.41908 0.19601 0.0
H233 H 0.06897 0.4052 0.20787 0.0
H234 H 0.05186 0.3953 0.1794 0.0
H235 H 0.11325 0.3875 0.17649 0.0
H236 H 0.13997 0.46164 0.18842 0.0
H237 H 0.15632 0.38323 0.21502 0.0
H238 H 0.1705 0.39087 0.1855 0.0
H239 H 0.13675 0.37004 0.18834 0.0
H240 H 0.17925 0.48806 0.20685 0.0
H241 H 0.20307 0.48092 0.20098 0.0
H242 H 0.18781 0.47349 0.22998 0.0
H243 H 0.22256 0.41986 0.3452 0.0
H244 H 0.27875 0.44133 0.27723 0.0
H245 H 0.27547 0.44628 0.23422 0.0
H246 H 0.21127 0.4424 0.18045 0.0
H247 H 0.15563 0.42187 0.24862 0.0
H248 H 0.15847 0.41577 0.29137 0.0
H249 H 0.33035 0.4212 0.14235 0.0
H250 H 0.30919 0.42128 0.16398 0.0
H251 H 0.34217 0.44472 0.16455 0.0
C252 C 0.90927 0.28708 0.90247 0.0
C253 C 0.9115 0.30381 0.88135 0.0
C254 C 0.87074 0.28178 0.85916 0.0
C255 C 0.87445 0.26424 0.84934 0.0
C256 C 0.85642 0.24689 0.83352 0.0
C257 C 0.83442 0.24724 0.82715 0.0
C258 C 0.83051 0.2647 0.83716 0.0
C259 C 0.8487 0.28167 0.85314 0.0
C260 C 0.86099 0.2283 0.82338 0.0
C261 C 0.80729 0.2656 0.8307 0.0
C262 C 0.6796 0.07212 0.83311 0.0
C263 C 0.68605 0.08962 0.85394 0.0
C264 C 0.71092 0.12996 0.83468 0.0
C265 C 0.71041 0.15033 0.82758 0.0
C266 C 0.73162 0.17047 0.81693 0.0
C267 C 0.75395 0.17018 0.81321 0.0
C268 C 0.75466 0.14962 0.82022 0.0
C269 C 0.73316 0.1297 0.83085 0.0
C270 C 0.7302 0.1921 0.80971 0.0
C271 C 0.77818 0.14874 0.81645 0.0
C272 C 0.73732 0.15397 0.65164 0.0
C273 C 0.73365 0.1718 0.66049 0.0
C274 C 0.75161 0.18954 0.67601 0.0
C275 C 0.77366 0.1894 0.68273 0.0
C276 C 0.7779 0.17204 0.67297 0.0
C277 C 0.75972 0.15464 0.65728 0.0
C278 C 0.74685 0.2082 0.68557 0.0
C279 C 0.80132 0.17154 0.6796 0.0
C280 C 0.95043 0.34843 0.69075 0.0
C281 C 0.93724 0.34087 0.66587 0.0
C282 C 0.89269 0.31156 0.67721 0.0
C283 C 0.86884 0.3086 0.6798 0.0
C284 C 0.84836 0.28729 0.68962 0.0
C285 C 0.85179 0.26831 0.69681 0.0
C286 C 0.87576 0.27095 0.69388 0.0
C287 C 0.89602 0.29259 0.68424 0.0
C288 C 0.82308 0.28512 0.69248 0.0
C289 C 0.87996 0.25092 0.70107 0.0
C290 C 0.81597 0.22987 0.80935 0.0
C291 C 0.79458 0.20887 0.81824 0.0
C292 C 0.77671 0.1916 0.80241 0.0
C293 C 0.78044 0.19511 0.77695 0.0
C294 C 0.76326 0.17785 0.7605 0.0
C295 C 0.76705 0.18156 0.73549 0.0
C296 C 0.78804 0.2028 0.72596 0.0
C297 C 0.79183 0.20693 0.70057 0.0
C298 C 0.81285 0.22823 0.69171 0.0
C299 C 0.83032 0.24578 0.70754 0.0
C300 C 0.82688 0.24198 0.733 0.0
C301 C 0.844 0.25928 0.74946 0.0
C302 C 0.8405 0.25535 0.77445 0.0
C303 C 0.81963 0.23404 0.78398 0.0
C304 C 0.80192 0.21649 0.76773 0.0
C305 C 0.80565 0.2204 0.74221 0.0
C306 C 0.68917 0.09931 0.65761 0.0
C307 C 0.69404 0.12181 0.64354 0.0
O308 O 0.88766 0.29901 0.8745 0.0
O309 O 0.91172 0.33297 0.66798 0.0
O310 O 0.71954 0.13593 0.63768 0.0
O311 O 0.6896 0.11117 0.84498 0.0
H312 H 0.92081 0.30117 0.86567 0.0
H313 H 0.89787 0.26803 0.89692 0.0
H314 H 0.89988 0.28931 0.91833 0.0
H315 H 0.9284 0.2911 0.90812 0.0
H316 H 0.89125 0.26386 0.8539 0.0
H317 H 0.84593 0.29518 0.86085 0.0
H318 H 0.84416 0.20999 0.82659 0.0
H319 H 0.87794 0.22918 0.83162 0.0
H320 H 0.86376 0.23109 0.80341 0.0
H321 H 0.80744 0.28079 0.83943 0.0
H322 H 0.78998 0.24853 0.83652 0.0
H323 H 0.80605 0.2674 0.81065 0.0
H324 H 0.70366 0.09291 0.86324 0.0
H325 H 0.67643 0.05476 0.84034 0.0
H326 H 0.69544 0.07962 0.81993 0.0
H327 H 0.66225 0.06874 0.82324 0.0
H328 H 0.69323 0.15041 0.83051 0.0
H329 H 0.734 0.11411 0.83601 0.0
H330 H 0.73357 0.19572 0.78987 0.0
H331 H 0.74533 0.2082 0.81928 0.0
H332 H 0.71153 0.18961 0.81404 0.0
H333 H 0.77555 0.1312 0.82225 0.0
H334 H 0.79425 0.16323 0.82693 0.0
H335 H 0.7835 0.15202 0.79692 0.0
H336 H 0.68841 0.13156 0.65566 0.0
H337 H 0.71678 0.17188 0.65526 0.0
H338 H 0.7625 0.14098 0.65 0.0
H339 H 0.74421 0.20585 0.70558 0.0
H340 H 0.72975 0.20694 0.67721 0.0
H341 H 0.76354 0.2265 0.68198 0.0
H342 H 0.80168 0.1567 0.67068 0.0
H343 H 0.80224 0.16941 0.69964 0.0
H344 H 0.81853 0.18888 0.67419 0.0
H345 H 0.93921 0.32624 0.65863 0.0
H346 H 0.97092 0.35496 0.68905 0.0
H347 H 0.9419 0.33295 0.70376 0.0
H348 H 0.94851 0.36296 0.69833 0.0
H349 H 0.86638 0.32326 0.67429 0.0
H350 H 0.91429 0.29444 0.68235 0.0
H351 H 0.81675 0.28046 0.71168 0.0
H352 H 0.80861 0.27034 0.68101 0.0
H353 H 0.82384 0.30196 0.68718 0.0
H354 H 0.8992 0.25513 0.69619 0.0
H355 H 0.86559 0.23404 0.69205 0.0
H356 H 0.8775 0.24761 0.72102 0.0
H357 H 0.79177 0.20597 0.83774 0.0
H358 H 0.74672 0.16123 0.76678 0.0
H359 H 0.75323 0.16759 0.72372 0.0
H360 H 0.81551 0.2313 0.6722 0.0
H361 H 0.86036 0.27606 0.74322 0.0
H362 H 0.85435 0.26931 0.78622 0.0
H363 H 0.66871 0.08759 0.66212 0.0
H364 H 0.70023 0.10458 0.67489 0.0
H365 H 0.69503 0.08895 0.64679 0.0
C366 C 0.63886 0.70775 0.39517 0.0
C367 C 0.6144 0.70639 0.40241 0.0
C368 C 0.5987 0.72072 0.36892 0.0
C369 C 0.57692 0.71395 0.35508 0.0
C370 C 0.57446 0.73095 0.34137 0.0
C371 C 0.59487 0.7552 0.34071 0.0
C372 C 0.61722 0.76213 0.35437 0.0
C373 C 0.61879 0.74486 0.36857 0.0
C374 C 0.54999 0.72293 0.32771 0.0
C375 C 0.63945 0.78778 0.35402 0.0
C376 C 0.56863 0.88487 0.42256 0.0
C377 C 0.58003 0.87488 0.40713 0.0
C378 C 0.56985 0.84835 0.37276 0.0
C379 C 0.59504 0.85501 0.36843 0.0
C380 C 0.60046 0.84217 0.35214 0.0
C381 C 0.58031 0.82215 0.34012 0.0
C382 C 0.55502 0.81593 0.34378 0.0
C383 C 0.55016 0.82931 0.3599 0.0
C384 C 0.6277 0.84963 0.34825 0.0
C385 C 0.53307 0.79469 0.33125 0.0
C386 C 0.5962 0.87251 0.18511 0.0
C387 C 0.61862 0.87547 0.19529 0.0
C388 C 0.61861 0.85618 0.20694 0.0
C389 C 0.5957 0.83353 0.20868 0.0
C390 C 0.57326 0.83031 0.1979 0.0
C391 C 0.57386 0.84986 0.18609 0.0
C392 C 0.64302 0.8601 0.2178 0.0
C393 C 0.54855 0.80638 0.19941 0.0
C394 C 0.63445 0.69811 0.1985 0.0
C395 C 0.60887 0.6906 0.18654 0.0
C396 C 0.60751 0.72674 0.18486 0.0
C397 C 0.62791 0.75048 0.18617 0.0
C398 C 0.62565 0.7678 0.19844 0.0
C399 C 0.6021 0.76125 0.20892 0.0
C400 C 0.58101 0.73744 0.20647 0.0
C401 C 0.58408 0.72035 0.19472 0.0
C402 C 0.64857 0.79291 0.2007 0.0
C403 C 0.55532 0.7299 0.21652 0.0
C404 C 0.59278 0.77337 0.32599 0.0
C405 C 0.58778 0.78887 0.33816 0.0
C406 C 0.58553 0.80645 0.32556 0.0
C407 C 0.5881 0.80857 0.29996 0.0
C408 C 0.58621 0.82618 0.28669 0.0
C409 C 0.58855 0.82794 0.26147 0.0
C410 C 0.59274 0.81208 0.24854 0.0
C411 C 0.59511 0.81369 0.22291 0.0
C412 C 0.59802 0.79691 0.21052 0.0
C413 C 0.5997 0.77898 0.22315 0.0
C414 C 0.59886 0.77799 0.2489 0.0
C415 C 0.60225 0.76132 0.26232 0.0
C416 C 0.6007 0.76004 0.28758 0.0
C417 C 0.59538 0.77517 0.3004 0.0
C418 C 0.59273 0.79265 0.28732 0.0
C419 C 0.59475 0.79423 0.26157 0.0
C420 C 0.60896 0.93116 0.16097 0.0
C421 C 0.61435 0.91509 0.17556 0.0
O422 O 0.59963 0.70335 0.382 0.0
O423 O 0.61075 0.71016 0.17411 0.0
O424 O 0.59531 0.89101 0.17445 0.0
O425 O 0.56379 0.85953 0.38937 0.0
H426 H 0.61954 0.72331 0.41172 0.0
H427 H 0.65037 0.72353 0.38299 0.0
H428 H 0.63455 0.69134 0.38542 0.0
H429 H 0.65042 0.70968 0.41163 0.0
H430 H 0.56155 0.69526 0.35546 0.0
H431 H 0.63588 0.7503 0.37901 0.0
H432 H 0.54354 0.7356 0.33059 0.0
H433 H 0.53462 0.70458 0.3334 0.0
H434 H 0.55315 0.72283 0.30792 0.0
H435 H 0.65671 0.7895 0.36251 0.0
H436 H 0.63442 0.79909 0.36421 0.0
H437 H 0.64392 0.79495 0.33504 0.0
H438 H 0.59108 0.86825 0.41703 0.0
H439 H 0.56876 0.87812 0.44164 0.0
H440 H 0.54736 0.87299 0.42021 0.0
H441 H 0.5906 0.92412 0.41289 0.0
H442 H 0.61054 0.87006 0.37787 0.0
H443 H 0.53082 0.82445 0.36315 0.0
H444 H 0.63098 0.83589 0.3566 0.0
H445 H 0.64131 0.86728 0.35645 0.0
H446 H 0.63167 0.85067 0.32849 0.0
H447 H 0.5145 0.79223 0.336 0.0
H448 H 0.53279 0.77806 0.33641 0.0
H449 H 0.5355 0.79712 0.31122 0.0
H450 H 0.62196 0.92129 0.19425 0.0
H451 H 0.63616 0.89281 0.19432 0.0
H452 H 0.55671 0.84769 0.17802 0.0
H453 H 0.64145 0.8585 0.23793 0.0
H454 H 0.65966 0.87806 0.21292 0.0
H455 H 0.64643 0.84607 0.21152 0.0
H456 H 0.5327 0.80682 0.19019 0.0
H457 H 0.54351 0.80102 0.21879 0.0
H458 H 0.55073 0.79238 0.19091 0.0
H459 H 0.59437 0.68429 0.20115 0.0
H460 H 0.63327 0.6827 0.2087 0.0
H461 H 0.63979 0.71275 0.21155 0.0
H462 H 0.64952 0.70469 0.18452 0.0
H463 H 0.64587 0.75518 0.17824 0.0
H464 H 0.56822 0.702 0.19313 0.0
H465 H 0.65164 0.79844 0.22001 0.0
H466 H 0.64527 0.80568 0.19014 0.0
H467 H 0.66608 0.79439 0.19382 0.0
H468 H 0.54007 0.71241 0.20918 0.0
H469 H 0.55057 0.74373 0.21221 0.0
H470 H 0.55568 0.72803 0.23662 0.0
H471 H 0.58563 0.78724 0.3578 0.0
H472 H 0.58288 0.83878 0.29568 0.0
H473 H 0.58682 0.8418 0.25222 0.0
H474 H 0.59924 0.79796 0.19082 0.0
H475 H 0.60618 0.74907 0.25346 0.0
H476 H 0.60351 0.74686 0.29691 0.0
H477 H 0.63809 0.94523 0.13151 0.0
H478 H 0.60784 0.94312 0.17467 0.0
H479 H 0.58792 0.92081 0.15679 0.0
C480 C 0.70593 0.58449 0.89967 0.0
C481 C 0.68806 0.57838 0.87765 0.0
C482 C 0.70822 0.56399 0.85046 0.0
C483 C 0.7295 0.5866 0.84429 0.0
C484 C 0.75 0.58845 0.83177 0.0
C485 C 0.74921 0.56731 0.82528 0.0
C486 C 0.72759 0.54455 0.83097 0.0
C487 C 0.70728 0.54323 0.84331 0.0
C488 C 0.77264 0.613 0.82566 0.0
C489 C 0.72613 0.52164 0.82435 0.0
C490 C 0.87263 0.58135 0.92789 0.0
C491 C 0.87655 0.566 0.91012 0.0
C492 C 0.86634 0.57574 0.8701 0.0
C493 C 0.84537 0.55349 0.86321 0.0
C494 C 0.82801 0.55223 0.84563 0.0
C495 C 0.83172 0.57368 0.83476 0.0
C496 C 0.85327 0.59608 0.84119 0.0
C497 C 0.87054 0.59676 0.85855 0.0
C498 C 0.80553 0.528 0.83884 0.0
C499 C 0.85776 0.6193 0.83009 0.0
C500 C 0.88492 0.5811 0.67858 0.0
C501 C 0.86536 0.55777 0.68531 0.0
C502 C 0.8438 0.55398 0.69749 0.0
C503 C 0.84171 0.57388 0.70279 0.0
C504 C 0.86111 0.59731 0.69552 0.0
C505 C 0.8824 0.60057 0.68335 0.0
C506 C 0.82319 0.52874 0.70462 0.0
C507 C 0.85932 0.6189 0.70063 0.0
C508 C 0.67932 0.56937 0.65536 0.0
C509 C 0.68731 0.55732 0.63701 0.0
C510 C 0.71403 0.54817 0.66319 0.0
C511 C 0.71455 0.5297 0.67589 0.0
C512 C 0.73487 0.53453 0.69138 0.0
C513 C 0.75514 0.55856 0.69437 0.0
C514 C 0.75498 0.57737 0.68134 0.0
C515 C 0.73453 0.57199 0.66572 0.0
C516 C 0.73464 0.51395 0.70462 0.0
C517 C 0.77638 0.60317 0.68404 0.0
C518 C 0.77129 0.56902 0.8131 0.0
C519 C 0.791 0.57119 0.82779 0.0
C520 C 0.81229 0.57263 0.8177 0.0
C521 C 0.81424 0.57223 0.79213 0.0
C522 C 0.83553 0.57401 0.78127 0.0
C523 C 0.83724 0.57363 0.75607 0.0
C524 C 0.81748 0.57094 0.74079 0.0
C525 C 0.81886 0.57022 0.71519 0.0
C526 C 0.79839 0.56642 0.70065 0.0
C527 C 0.77664 0.56387 0.71088 0.0
C528 C 0.77536 0.56563 0.73635 0.0
C529 C 0.75425 0.56424 0.74715 0.0
C530 C 0.753 0.56564 0.77225 0.0
C531 C 0.77266 0.56816 0.78754 0.0
C532 C 0.79424 0.56981 0.77703 0.0
C533 C 0.79572 0.56883 0.75137 0.0
C534 C 0.94548 0.58841 0.67501 0.0
C535 C 0.9173 0.5719 0.66892 0.0
O536 O 0.68841 0.56131 0.8635 0.0
O537 O 0.69336 0.54208 0.64896 0.0
O538 O 0.9063 0.5856 0.66722 0.0
O539 O 0.88307 0.57743 0.88746 0.0
H540 H 0.69405 0.59492 0.8665 0.0
H541 H 0.72583 0.59242 0.89373 0.0
H542 H 0.70032 0.56804 0.91079 0.0
H543 H 0.70536 0.59785 0.91125 0.0
H544 H 0.73036 0.60288 0.84928 0.0
H545 H 0.69073 0.52588 0.84798 0.0
H546 H 0.78967 0.61547 0.83544 0.0
H547 H 0.76978 0.62771 0.83071 0.0
H548 H 0.77657 0.61447 0.80586 0.0
H549 H 0.70826 0.50534 0.83064 0.0
H550 H 0.74247 0.52134 0.83252 0.0
H551 H 0.72737 0.52092 0.8043 0.0
H552 H 0.85849 0.54825 0.90899 0.0
H553 H 0.86743 0.57248 0.94616 0.0
H554 H 0.85699 0.58365 0.92128 0.0
H555 H 0.89019 0.59941 0.92954 0.0
H556 H 0.84265 0.53707 0.87132 0.0
H557 H 0.88703 0.61382 0.86375 0.0
H558 H 0.80426 0.52614 0.81876 0.0
H559 H 0.78781 0.52651 0.84503 0.0
H560 H 0.80662 0.51293 0.84717 0.0
H561 H 0.87509 0.63528 0.83749 0.0
H562 H 0.84118 0.62096 0.83355 0.0
H563 H 0.85971 0.61919 0.81007 0.0
H564 H 0.90899 0.55857 0.68421 0.0
H565 H 0.86666 0.54246 0.68082 0.0
H566 H 0.89743 0.61845 0.67778 0.0
H567 H 0.82012 0.52755 0.72457 0.0
H568 H 0.82784 0.51519 0.69959 0.0
H569 H 0.80509 0.52425 0.69558 0.0
H570 H 0.8762 0.63597 0.69407 0.0
H571 H 0.85739 0.62008 0.7205 0.0
H572 H 0.84212 0.61683 0.69165 0.0
H573 H 0.70401 0.5713 0.62654 0.0
H574 H 0.67402 0.58122 0.64569 0.0
H575 H 0.69506 0.58063 0.66811 0.0
H576 H 0.66283 0.5556 0.66619 0.0
H577 H 0.69878 0.51138 0.67371 0.0
H578 H 0.73472 0.5865 0.65571 0.0
H579 H 0.73342 0.51565 0.72451 0.0
H580 H 0.75258 0.51461 0.70119 0.0
H581 H 0.7184 0.49618 0.69898 0.0
H582 H 0.7726 0.61593 0.67403 0.0
H583 H 0.79418 0.6054 0.67701 0.0
H584 H 0.77951 0.60793 0.70358 0.0
H585 H 0.78962 0.57152 0.84742 0.0
H586 H 0.85117 0.57586 0.79215 0.0
H587 H 0.85414 0.57522 0.7487 0.0
H588 H 0.79939 0.56541 0.68106 0.0
H589 H 0.73848 0.56213 0.73629 0.0
H590 H 0.73631 0.56451 0.77954 0.0
H591 H 0.95521 0.60264 0.66074 0.0
H592 H 0.95482 0.57788 0.67658 0.0
H593 H 0.94765 0.59719 0.69268 0.0
C594 C 0.16061 0.71861 0.42272 0.0
C595 C 0.14464 0.69858 0.40458 0.0
C596 C 0.17207 0.71595 0.36858 0.0
C597 C 0.16553 0.73295 0.3622 0.0
C598 C 0.17959 0.75114 0.34478 0.0
C599 C 0.20077 0.75257 0.33372 0.0
C600 C 0.20695 0.73508 0.33962 0.0
C601 C 0.19224 0.7168 0.35671 0.0
C602 C 0.17216 0.76921 0.33864 0.0
C603 C 0.22964 0.73618 0.32858 0.0
C604 C 0.29837 0.89312 0.41552 0.0
C605 C 0.31804 0.8933 0.39889 0.0
C606 C 0.29985 0.87757 0.35934 0.0
C607 C 0.30656 0.86043 0.35643 0.0
C608 C 0.2919 0.8404 0.34173 0.0
C609 C 0.27014 0.83756 0.32971 0.0
C610 C 0.26399 0.85541 0.33179 0.0
C611 C 0.2792 0.87541 0.34639 0.0
C612 C 0.29935 0.82202 0.33939 0.0
C613 C 0.24095 0.85297 0.31919 0.0
C614 C 0.3196 0.86484 0.17117 0.0
C615 C 0.32237 0.8471 0.18298 0.0
C616 C 0.3027 0.82892 0.19714 0.0
C617 C 0.27968 0.82831 0.19931 0.0
C618 C 0.27654 0.84573 0.18683 0.0
C619 C 0.29653 0.86369 0.17273 0.0
C620 C 0.30642 0.81023 0.2097 0.0
C621 C 0.25212 0.84539 0.18853 0.0
C622 C 0.13593 0.67361 0.11694 0.0
C623 C 0.14074 0.68979 0.1374 0.0
C624 C 0.17164 0.70867 0.17038 0.0
C625 C 0.19171 0.70918 0.18289 0.0
C626 C 0.2077 0.72821 0.19827 0.0
C627 C 0.20316 0.74699 0.20142 0.0
C628 C 0.18227 0.74612 0.18957 0.0
C629 C 0.16673 0.727 0.17412 0.0
C630 C 0.22986 0.72864 0.21059 0.0
C631 C 0.17676 0.76574 0.19278 0.0
C632 C 0.21791 0.7736 0.3179 0.0
C633 C 0.23509 0.79511 0.32938 0.0
C634 C 0.25303 0.81532 0.31609 0.0
C635 C 0.25444 0.81402 0.29061 0.0
C636 C 0.27315 0.83362 0.27686 0.0
C637 C 0.2746 0.83205 0.25181 0.0
C638 C 0.25722 0.81092 0.23955 0.0
C639 C 0.25874 0.80904 0.21415 0.0
C640 C 0.24079 0.78803 0.20245 0.0
C641 C 0.22142 0.76851 0.21543 0.0
C642 C 0.21995 0.76974 0.24095 0.0
C643 C 0.20107 0.75024 0.25468 0.0
C644 C 0.20028 0.75145 0.2799 0.0
C645 C 0.21813 0.77232 0.29226 0.0
C646 C 0.23678 0.7925 0.27864 0.0
C647 C 0.23792 0.79108 0.25302 0.0
C648 C 0.36957 0.91817 0.17842 0.0
C649 C 0.36398 0.89598 0.16435 0.0
O650 O 0.15988 0.69879 0.38627 0.0
O651 O 0.15791 0.69061 0.15448 0.0
O652 O 0.33853 0.88293 0.15775 0.0
O653 O 0.3127 0.89607 0.37488 0.0
H654 H 0.12972 0.70122 0.39645 0.0
H655 H 0.16942 0.73652 0.41358 0.0
H656 H 0.17595 0.71652 0.43069 0.0
H657 H 0.14849 0.7181 0.43764 0.0
H658 H 0.14971 0.73236 0.37085 0.0
H659 H 0.19702 0.70352 0.36159 0.0
H660 H 0.18622 0.78673 0.34677 0.0
H661 H 0.15307 0.76348 0.34568 0.0
H662 H 0.17228 0.77202 0.31862 0.0
H663 H 0.23298 0.7223 0.33648 0.0
H664 H 0.24695 0.75418 0.33141 0.0
H665 H 0.22671 0.73347 0.30867 0.0
H666 H 0.3162 0.87558 0.40202 0.0
H667 H 0.30323 0.89231 0.43493 0.0
H668 H 0.27935 0.87703 0.41178 0.0
H669 H 0.29721 0.90931 0.41228 0.0
H670 H 0.32317 0.86264 0.36579 0.0
H671 H 0.27442 0.88897 0.34855 0.0
H672 H 0.30009 0.81841 0.31988 0.0
H673 H 0.28479 0.80485 0.34821 0.0
H674 H 0.31806 0.82796 0.34798 0.0
H675 H 0.2385 0.86819 0.32305 0.0
H676 H 0.22366 0.83594 0.32514 0.0
H677 H 0.24263 0.8521 0.29922 0.0
H678 H 0.36882 0.88533 0.17679 0.0
H679 H 0.33965 0.84706 0.18084 0.0
H680 H 0.29441 0.87723 0.16321 0.0
H681 H 0.30453 0.81085 0.22967 0.0
H682 H 0.3253 0.81295 0.20589 0.0
H683 H 0.29146 0.79202 0.2037 0.0
H684 H 0.25296 0.8607 0.17842 0.0
H685 H 0.2478 0.84606 0.20791 0.0
H686 H 0.23624 0.82833 0.18107 0.0
H687 H 0.12368 0.68847 0.14541 0.0
H688 H 0.11505 0.65935 0.11788 0.0
H689 H 0.14237 0.6611 0.1232 0.0
H690 H 0.15255 0.69868 0.08477 0.0
H691 H 0.19526 0.6949 0.17999 0.0
H692 H 0.15101 0.72664 0.16482 0.0
H693 H 0.22854 0.72954 0.23061 0.0
H694 H 0.24787 0.74498 0.20467 0.0
H695 H 0.23067 0.71255 0.20643 0.0
H696 H 0.1585 0.76136 0.18415 0.0
H697 H 0.19226 0.78276 0.18453 0.0
H698 H 0.17614 0.76887 0.21245 0.0
H699 H 0.23463 0.79609 0.34904 0.0
H700 H 0.28702 0.85031 0.28536 0.0
H701 H 0.28949 0.84763 0.24216 0.0
H702 H 0.24206 0.78675 0.18293 0.0
H703 H 0.18688 0.73372 0.2461 0.0
H704 H 0.1855 0.73584 0.28962 0.0
H705 H 0.36426 0.92939 0.16752 0.0
H706 H 0.39005 0.9292 0.18325 0.0
H707 H 0.35845 0.91246 0.19553 0.0
C708 C 0.40308 0.11944 0.62909 0.0
C709 C 0.42717 0.12514 0.64303 0.0
C710 C 0.42538 0.13992 0.68227 0.0
C711 C 0.44903 0.1613 0.68452 0.0
C712 C 0.45186 0.1801 0.69872 0.0
C713 C 0.43048 0.17746 0.71068 0.0
C714 C 0.40667 0.15565 0.70875 0.0
C715 C 0.40455 0.13696 0.69486 0.0
C716 C 0.47763 0.20286 0.70075 0.0
C717 C 0.38339 0.15229 0.72095 0.0
C718 C 0.42347 0.33186 0.6413 0.0
C719 C 0.41823 0.30801 0.64961 0.0
C720 C 0.43598 0.29127 0.67816 0.0
C721 C 0.413 0.26952 0.68274 0.0
C722 C 0.41239 0.25154 0.69771 0.0
C723 C 0.43529 0.25511 0.70777 0.0
C724 C 0.45853 0.27677 0.70268 0.0
C725 C 0.45845 0.29473 0.68831 0.0
C726 C 0.38725 0.22872 0.70278 0.0
C727 C 0.48349 0.28095 0.71225 0.0
C728 C 0.46436 0.3025 0.86991 0.0
C729 C 0.44009 0.28165 0.86975 0.0
C730 C 0.43436 0.26256 0.85444 0.0
C731 C 0.45351 0.26424 0.83934 0.0
C732 C 0.47787 0.28563 0.83903 0.0
C733 C 0.48281 0.30471 0.85404 0.0
C734 C 0.40801 0.24037 0.85493 0.0
C735 C 0.49896 0.28804 0.82355 0.0
C736 C 0.43089 0.08722 0.86658 0.0
C737 C 0.44961 0.1133 0.87357 0.0
C738 C 0.4393 0.14432 0.8672 0.0
C739 C 0.41803 0.14619 0.86405 0.0
C740 C 0.4197 0.16583 0.85142 0.0
C741 C 0.44342 0.18424 0.84216 0.0
C742 C 0.46532 0.1831 0.84644 0.0
C743 C 0.46305 0.16312 0.85899 0.0
C744 C 0.39602 0.1666 0.84739 0.0
C745 C 0.49096 0.20274 0.83729 0.0
C746 C 0.43291 0.19778 0.72454 0.0
C747 C 0.43266 0.2162 0.71142 0.0
C748 C 0.43502 0.236 0.72313 0.0
C749 C 0.43765 0.23755 0.74876 0.0
C750 C 0.43958 0.25695 0.76125 0.0
C751 C 0.44307 0.25873 0.78639 0.0
C752 C 0.44456 0.24108 0.80004 0.0
C753 C 0.44871 0.24296 0.82552 0.0
C754 C 0.44868 0.22435 0.83863 0.0
C755 C 0.44494 0.20401 0.82699 0.0
C756 C 0.44193 0.20232 0.80143 0.0
C757 C 0.43916 0.18252 0.78907 0.0
C758 C 0.43643 0.18109 0.76389 0.0
C759 C 0.43583 0.19915 0.75014 0.0
C760 C 0.43832 0.21918 0.76226 0.0
C761 C 0.44162 0.22087 0.78793 0.0
C762 C 0.4757 0.33789 0.92525 0.0
C763 C 0.46891 0.31654 0.91071 0.0
O764 O 0.42226 0.12208 0.66779 0.0
O765 O 0.43613 0.12418 0.8783 0.0
O766 O 0.47042 0.32035 0.88571 0.0
O767 O 0.43736 0.30936 0.66427 0.0
H768 H 0.44205 0.14419 0.63873 0.0
H769 H 0.39707 0.13189 0.63459 0.0
H770 H 0.38738 0.1007 0.63304 0.0
H771 H 0.40668 0.12175 0.60919 0.0
H772 H 0.46523 0.16323 0.67515 0.0
H773 H 0.38641 0.12025 0.69307 0.0
H774 H 0.47721 0.21788 0.69142 0.0
H775 H 0.49279 0.20116 0.69246 0.0
H776 H 0.48249 0.20766 0.72017 0.0
H777 H 0.36595 0.13499 0.71616 0.0
H778 H 0.38068 0.16726 0.71566 0.0
H779 H 0.386 0.1527 0.741 0.0
H780 H 0.4111 0.2939 0.63551 0.0
H781 H 0.39353 0.33517 0.65964 0.0
H782 H 0.42475 0.33192 0.62083 0.0
H783 H 0.44448 0.34503 0.64401 0.0
H784 H 0.39546 0.26655 0.67492 0.0
H785 H 0.47609 0.31152 0.6846 0.0
H786 H 0.3866 0.21351 0.69358 0.0
H787 H 0.37092 0.22995 0.6962 0.0
H788 H 0.3851 0.22455 0.72262 0.0
H789 H 0.49999 0.29694 0.70356 0.0
H790 H 0.48484 0.26498 0.70912 0.0
H791 H 0.48471 0.28379 0.73217 0.0
H792 H 0.45195 0.29928 0.91701 0.0
H793 H 0.42569 0.2803 0.88171 0.0
H794 H 0.50144 0.32102 0.85424 0.0
H795 H 0.40129 0.23389 0.83619 0.0
H796 H 0.39418 0.24369 0.8637 0.0
H797 H 0.40844 0.22587 0.86536 0.0
H798 H 0.51746 0.30473 0.82739 0.0
H799 H 0.49425 0.28836 0.80403 0.0
H800 H 0.50104 0.27235 0.82668 0.0
H801 H 0.4624 0.12207 0.8577 0.0
H802 H 0.44119 0.07806 0.86257 0.0
H803 H 0.42009 0.08673 0.85002 0.0
H804 H 0.41719 0.07725 0.88151 0.0
H805 H 0.39989 0.13177 0.87087 0.0
H806 H 0.47981 0.16227 0.86236 0.0
H807 H 0.39232 0.16681 0.82757 0.0
H808 H 0.39879 0.18338 0.85496 0.0
H809 H 0.37907 0.15099 0.856 0.0
H810 H 0.5064 0.19992 0.84334 0.0
H811 H 0.49527 0.22043 0.84379 0.0
H812 H 0.49066 0.20343 0.81709 0.0
H813 H 0.43073 0.21518 0.69175 0.0
H814 H 0.43858 0.27108 0.75169 0.0
H815 H 0.44462 0.27413 0.79501 0.0
H816 H 0.45145 0.22565 0.85821 0.0
H817 H 0.43932 0.16797 0.79869 0.0
H818 H 0.43469 0.16557 0.75536 0.0
H819 H 0.45812 0.33281 0.93592 0.0
H820 H 0.47405 0.35085 0.91258 0.0
H821 H 0.51197 0.3466 0.94378 0.0
H822 H 0.06146 0.4575 0.02833 0.0
H823 H 0.07946 0.46699 0.17219 0.0
H824 H 0.03883 0.49729 0.07118 0.0
H825 H 0.07831 0.41122 0.13105 0.0
H826 H 0.06665 0.48001 0.13537 0.0
H827 H 0.06944 0.4416 0.06571 0.0
C828 C 0.05795 0.46272 0.04565 0.0
C829 C 0.04953 0.47878 0.04667 0.0
C830 C 0.06925 0.46495 0.13442 0.0
C831 C 0.05903 0.46092 0.08961 0.0
C832 C 0.07674 0.45766 0.15534 0.0
C833 C 0.08066 0.43846 0.15453 0.0
C834 C 0.0657 0.45297 0.1125 0.0
C835 C 0.07619 0.42652 0.1324 0.0
C836 C 0.0625 0.45362 0.06699 0.0
C837 C 0.04522 0.48487 0.0696 0.0
N838 N 0.0692 0.43413 0.11224 0.0
N839 N 0.05031 0.47615 0.09021 0.0
H840 H 0.61151 0.04486 0.51567 0.0
H841 H 0.65226 0.12492 0.63407 0.0
H842 H 0.56746 0.07122 0.54659 0.0
H843 H 0.699 0.10254 0.60144 0.0
H844 H 0.62367 0.10973 0.59899 0.0
H845 H 0.64653 0.07052 0.54313 0.0
C846 C 0.60936 0.05639 0.52787 0.0
C847 C 0.58633 0.05558 0.52908 0.0
C848 C 0.64034 0.10839 0.59929 0.0
C849 C 0.62623 0.08473 0.5608 0.0
C850 C 0.65666 0.11708 0.61932 0.0
C851 C 0.67797 0.11492 0.62066 0.0
C852 C 0.64513 0.09714 0.58054 0.0
C853 C 0.68273 0.10451 0.60109 0.0
C854 C 0.62935 0.07097 0.54364 0.0
C855 C 0.58473 0.07101 0.5452 0.0
N856 N 0.66629 0.09577 0.58194 0.0
N857 N 0.60424 0.08467 0.56065 0.0
H858 H 0.57853 0.59736 0.06322 0.0
H859 H 0.58375 0.64269 0.198 0.0
H860 H 0.56857 0.55442 0.12766 0.0
H861 H 0.61768 0.69165 0.13687 0.0
H862 H 0.57361 0.60918 0.17159 0.0
H863 H 0.58888 0.63142 0.08907 0.0
C864 C 0.57859 0.59514 0.0828 0.0
C865 C 0.57279 0.57307 0.09331 0.0
C866 C 0.58313 0.62723 0.16391 0.0
C867 C 0.58433 0.61177 0.12295 0.0
C868 C 0.58875 0.64631 0.17892 0.0
C869 C 0.60107 0.66992 0.16953 0.0
C870 C 0.58985 0.63172 0.13924 0.0
C871 C 0.60769 0.6737 0.14478 0.0
C872 C 0.58456 0.61457 0.09752 0.0
C873 C 0.57326 0.57118 0.11878 0.0
N874 N 0.60185 0.65477 0.13046 0.0
N875 N 0.57874 0.59021 0.13272 0.0
H876 H 0.93693 0.54501 0.52014 0.0
H877 H 0.90593 0.52586 0.6624 0.0
H878 H 0.92553 0.48373 0.56234 0.0
H879 H 0.92283 0.58978 0.62186 0.0
H880 H 0.90639 0.50735 0.62448 0.0
H881 H 0.92479 0.55862 0.55547 0.0
C882 C 0.93135 0.53414 0.53666 0.0
C883 C 0.93249 0.51331 0.53838 0.0
C884 C 0.90966 0.52531 0.62378 0.0
C885 C 0.91897 0.52898 0.57901 0.0
C886 C 0.9093 0.53582 0.64542 0.0
C887 C 0.91419 0.5593 0.64523 0.0
C888 C 0.91522 0.53846 0.60177 0.0
C889 C 0.91878 0.57156 0.62276 0.0
C890 C 0.92462 0.54203 0.55691 0.0
C891 C 0.9253 0.50009 0.56037 0.0
N892 N 0.91936 0.56106 0.60195 0.0
N893 N 0.91909 0.50825 0.57987 0.0
H894 H 0.45803 0.98058 0.04398 0.0
H895 H 0.4016 0.8872 0.15446 0.0
H896 H 0.48588 0.93472 0.06548 0.0
H897 H 0.36373 0.92122 0.12337 0.0
H898 H 0.43087 0.90236 0.12018 0.0
H899 H 0.42147 0.95698 0.07052 0.0
C900 C 0.45624 0.96528 0.05394 0.0
C901 C 0.47524 0.95981 0.05271 0.0
C902 C 0.41601 0.90632 0.12067 0.0
C903 C 0.4336 0.93295 0.08345 0.0
C904 C 0.39932 0.8977 0.14027 0.0
C905 C 0.38042 0.90322 0.14191 0.0
C906 C 0.41404 0.92087 0.10267 0.0
C907 C 0.37824 0.91679 0.12292 0.0
C908 C 0.43536 0.95183 0.06914 0.0
C909 C 0.47181 0.93971 0.06594 0.0
N910 N 0.39506 0.92542 0.10425 0.0
N911 N 0.45164 0.92725 0.08105 0.0
H912 H 0.41894 0.40805 0.56867 0.0
H913 H 0.429 0.33594 0.69782 0.0
H914 H 0.4549 0.44385 0.63557 0.0
H915 H 0.36821 0.29408 0.62543 0.0
H916 H 0.44103 0.38044 0.67384 0.0
H917 H 0.40348 0.36915 0.58947 0.0
C918 C 0.42344 0.40769 0.58774 0.0
C919 C 0.43808 0.42917 0.60047 0.0
C920 C 0.42715 0.36337 0.66603 0.0
C921 C 0.42075 0.38503 0.62416 0.0
C922 C 0.41882 0.33618 0.68173 0.0
C923 C 0.39986 0.30955 0.66218 0.0
C924 C 0.41291 0.36225 0.63707 0.0
C925 C 0.38047 0.30982 0.6361 0.0
C926 C 0.41456 0.38556 0.59958 0.0
C927 C 0.44335 0.42774 0.62518 0.0
N928 N 0.3911 0.33679 0.62511 0.0
N929 N 0.43487 0.40603 0.63618 0.0
H930 H 0.56416 0.94265 0.51742 0.0
H931 H 0.55936 0.89719 0.36961 0.0
H932 H 0.51103 0.93757 0.46247 0.0
H933 H 0.62627 0.91124 0.43518 0.0
H934 H 0.53725 0.91156 0.40623 0.0
H935 H 0.58169 0.92769 0.48825 0.0
C936 C 0.55592 0.93807 0.49936 0.0
C937 C 0.5362 0.94155 0.49233 0.0
C938 C 0.55416 0.91117 0.41025 0.0
C939 C 0.55641 0.92477 0.45883 0.0
C940 C 0.56846 0.90382 0.38707 0.0
C941 C 0.5935 0.8989 0.39963 0.0
C942 C 0.56795 0.91784 0.44014 0.0
C943 C 0.61068 0.91276 0.4284 0.0
C944 C 0.56609 0.92972 0.48266 0.0
C945 C 0.52649 0.93554 0.46853 0.0
N946 N 0.59437 0.91879 0.44651 0.0
N947 N 0.53678 0.92754 0.45259 0.0
H948 H 0.53553 0.49058 0.93622 0.0
H949 H 0.66761 0.60433 0.89172 0.0
H950 H 0.56959 0.56069 0.96795 0.0
H951 H 0.64853 0.53108 0.88549 0.0
H952 H 0.62648 0.58953 0.91104 0.0
H953 H 0.57159 0.50653 0.90839 0.0
C954 C 0.55026 0.50946 0.93692 0.0
C955 C 0.54967 0.52434 0.95447 0.0
C956 C 0.63118 0.57673 0.90505 0.0
C957 C 0.59084 0.54257 0.92285 0.0
C958 C 0.65453 0.58513 0.89396 0.0
C959 C 0.6614 0.56895 0.88666 0.0
C960 C 0.61447 0.55193 0.90879 0.0
C961 C 0.64394 0.54423 0.89044 0.0
C962 C 0.57091 0.51846 0.9212 0.0
C963 C 0.56941 0.54859 0.95477 0.0
N964 N 0.62128 0.53649 0.90123 0.0
N965 N 0.58926 0.55694 0.93927 0.0
H966 H 0.03996 0.57358 0.49162 0.0
H967 H 0.16244 0.66828 0.41485 0.0
H968 H 0.09611 0.55868 0.46769 0.0
H969 H 0.09792 0.67509 0.42609 0.0
H970 H 0.14104 0.63018 0.43793 0.0
H971 H 0.06406 0.61327 0.47224 0.0
C972 C 0.05753 0.57873 0.48256 0.0
C973 C 0.06591 0.56264 0.48117 0.0
C974 C 0.13151 0.63995 0.43522 0.0
C975 C 0.09354 0.60814 0.4587 0.0
C976 C 0.14364 0.6616 0.42193 0.0
C977 C 0.13157 0.6745 0.41792 0.0
C978 C 0.10737 0.63135 0.445 0.0
C979 C 0.1076 0.66542 0.42826 0.0
C980 C 0.07121 0.60139 0.47136 0.0
C981 C 0.08885 0.57042 0.46915 0.0
N982 N 0.09628 0.64441 0.44125 0.0
N983 N 0.1018 0.59257 0.45827 0.0
H984 H 0.49074 0.08805 0.01719 0.0
H985 H 0.49729 0.12034 0.87525 0.0
H986 H 0.5487 0.09493 0.96938 0.0
H987 H 0.43585 0.10684 0.92193 0.0
H988 H 0.51977 0.11696 0.9107 0.0
H989 H 0.47421 0.1013 0.98394 0.0
C990 C 0.50033 0.09277 0.99985 0.0
C991 C 0.52104 0.09013 0.99605 0.0
C992 C 0.50153 0.11507 0.91326 0.0
C993 C 0.50184 0.10494 0.95767 0.0
C994 C 0.48877 0.11708 0.89306 0.0
C995 C 0.46484 0.11412 0.89573 0.0
C996 C 0.49017 0.10984 0.9363 0.0
C997 C 0.45441 0.10952 0.91914 0.0
C998 C 0.49071 0.10016 0.98077 0.0
C999 C 0.53243 0.09629 0.97301 0.0
N1000 N 0.46709 0.10742 0.9385 0.0
N1001 N 0.52256 0.10321 0.95464 0.0
H1002 H 0.41006 0.49206 0.49302 0.0
H1003 H 0.35184 0.39575 0.37098 0.0
H1004 H 0.44576 0.45559 0.46643 0.0
H1005 H 0.3122 0.44009 0.40802 0.0
H1006 H 0.39047 0.41849 0.40831 0.0
H1007 H 0.3782 0.47401 0.46097 0.0
C1008 C 0.41125 0.48026 0.48041 0.0
C1009 C 0.43057 0.47521 0.48257 0.0
C1010 C 0.37496 0.42152 0.40715 0.0
C1011 C 0.39389 0.45435 0.44573 0.0
C1012 C 0.35037 0.40607 0.3852 0.0
C1013 C 0.32937 0.41841 0.38284 0.0
C1014 C 0.37387 0.44217 0.42707 0.0
C1015 C 0.32558 0.43424 0.40845 0.0
C1016 C 0.393 0.46995 0.46206 0.0
C1017 C 0.43117 0.45991 0.46549 0.0
N1018 N 0.35 0.44627 0.42671 0.0
N1019 N 0.41296 0.44988 0.44781 0.0
H1020 H 0.03649 0.44954 0.90963 0.0
H1021 H 0.89826 0.32934 0.91001 0.0
H1022 H 0.97278 0.44058 0.94966 0.0
H1023 H 0.96172 0.33667 0.87101 0.0
H1024 H 0.92515 0.37076 0.9235 0.0
H1025 H 0.00923 0.40899 0.89375 0.0
C1026 C 0.01676 0.43913 0.91496 0.0
C1027 C 0.00698 0.44845 0.93114 0.0
C1028 C 0.93321 0.3634 0.91188 0.0
C1029 C 0.97573 0.402 0.91321 0.0
C1030 C 0.91783 0.33979 0.90413 0.0
C1031 C 0.92769 0.32971 0.88906 0.0
C1032 C 0.95875 0.37704 0.90472 0.0
C1033 C 0.95331 0.34389 0.88235 0.0
C1034 C 0.00124 0.41594 0.906 0.0
C1035 C 0.9813 0.43404 0.93761 0.0
N1036 N 0.96796 0.36685 0.8902 0.0
N1037 N 0.96661 0.41157 0.92866 0.0
H1038 H 0.0196 0.57664 0.94205 0.0
H1039 H 0.87133 0.52842 0.93818 0.0
H1040 H 0.96452 0.51624 0.98565 0.0
H1041 H 0.92863 0.59534 0.90488 0.0
H1042 H 0.90479 0.52281 0.95489 0.0
H1043 H 0.98627 0.58312 0.92764 0.0
C1044 C 1.00048 0.56477 0.94871 0.0
C1045 C 0.99484 0.5458 0.96505 0.0
C1046 C 0.91005 0.53867 0.94385 0.0
C1047 C 0.95641 0.55306 0.94839 0.0
C1048 C 0.89097 0.54179 0.93419 0.0
C1049 C 0.89718 0.56205 0.91959 0.0
C1050 C 0.93558 0.55599 0.93896 0.0
C1051 C 0.92295 0.57918 0.91553 0.0
C1052 C 0.98144 0.56851 0.94045 0.0
C1053 C 0.96972 0.53111 0.97309 0.0
N1054 N 0.94117 0.57568 0.92502 0.0
N1055 N 0.95138 0.53494 0.96454 0.0
H1056 H 0.44133 0.01582 0.46929 0.0
H1057 H 0.35922 0.88929 0.4081 0.0
H1058 H 0.47119 0.97144 0.4523 0.0
H1059 H 0.33808 0.94231 0.40339 0.0
H1060 H 0.40131 0.92018 0.42242 0.0
H1061 H 0.40455 0.99078 0.44325 0.0
C1062 C 0.44043 0.00113 0.45973 0.0
C1063 C 0.4592 0.99551 0.46332 0.0
C1064 C 0.38755 0.92514 0.41811 0.0
C1065 C 0.41701 0.96661 0.43384 0.0
C1066 C 0.36348 0.90747 0.41004 0.0
C1067 C 0.34482 0.91303 0.4054 0.0
C1068 C 0.39301 0.94856 0.42177 0.0
C1069 C 0.35161 0.93705 0.40757 0.0
C1070 C 0.4194 0.98682 0.44489 0.0
C1071 C 0.45707 0.97631 0.45034 0.0
N1072 N 0.37501 0.95385 0.41607 0.0
N1073 N 0.43614 0.96232 0.43654 0.0
H1074 H 0.48789 0.39385 0.02848 0.0
H1075 H 0.52182 0.35652 0.8904 0.0
H1076 H 0.52098 0.44386 0.96782 0.0
H1077 H 0.4707 0.29789 0.96085 0.0
H1078 H 0.52591 0.39375 0.92109 0.0
H1079 H 0.485 0.36241 0.00345 0.0
C1080 C 0.4945 0.3983 0.00991 0.0
C1081 C 0.50457 0.42169 1.00035 0.0
C1082 C 0.51596 0.37522 0.92736 0.0
C1083 C 0.50161 0.38557 0.97159 0.0
C1084 C 0.51503 0.35277 0.90894 0.0
C1085 C 0.492 0.32187 0.92086 0.0
C1086 C 0.50026 0.36682 0.95618 0.0
C1087 C 0.48287 0.31584 0.9534 0.0
C1088 C 0.49289 0.38026 0.99561 0.0
C1089 C 0.5133 0.42627 0.97617 0.0
N1090 N 0.48617 0.33917 0.96683 0.0
N1091 N 0.51163 0.40835 0.96263 0.0
H1092 H 0.998 0.42537 0.41897 0.0
H1093 H 0.1322 0.43513 0.42926 0.0
H1094 H 0.06111 0.4771 0.4626 0.0
H1095 H 0.06941 0.38109 0.38713 0.0
H1096 H 0.10712 0.45263 0.43886 0.0
H1097 H 0.02441 0.41062 0.40435 0.0
C1098 C 0.0174 0.4337 0.42537 0.0
C1099 C 0.02722 0.45229 0.44229 0.0
C1100 C 0.09883 0.43707 0.42733 0.0
C1101 C 0.0575 0.43554 0.42571 0.0
C1102 C 0.11321 0.42716 0.42176 0.0
C1103 C 0.10293 0.40677 0.40723 0.0
C1104 C 0.07381 0.4264 0.4185 0.0
C1105 C 0.07809 0.39695 0.39823 0.0
C1106 C 0.03244 0.42523 0.4171 0.0
C1107 C 0.0525 0.46237 0.45004 0.0
N1108 N 0.06431 0.40679 0.4041 0.0
N1109 N 0.06668 0.45384 0.44175 0.0
H1110 H 0.59632 0.02756 0.98458 0.0
H1111 H 0.63856 0.08367 0.85031 0.0
H1112 H 0.54568 0.03248 0.93324 0.0
H1113 H 0.68494 0.06995 0.89906 0.0
H1114 H 0.60418 0.06501 0.88019 0.0
H1115 H 0.62867 0.04251 0.95313 0.0
C1116 C 0.5919 0.03156 0.9666 0.0
C1117 C 0.56824 0.02882 0.96159 0.0
C1118 C 0.62188 0.06608 0.88435 0.0
C1119 C 0.60545 0.0463 0.92545 0.0
C1120 C 0.64151 0.07683 0.86737 0.0
C1121 C 0.66477 0.0787 0.87239 0.0
C1122 C 0.62549 0.0571 0.90653 0.0
C1123 C 0.66746 0.06919 0.8946 0.0
C1124 C 0.61043 0.04015 0.94863 0.0
C1125 C 0.56361 0.03426 0.93792 0.0
N1126 N 0.64815 0.05894 0.91086 0.0
N1127 N 0.58213 0.04294 0.92078 0.0
H1128 H 0.53586 0.61433 0.52767 0.0
H1129 H 0.58878 0.6582 0.39253 0.0
H1130 H 0.52744 0.56662 0.47044 0.0
H1131 H 0.6053 0.7069 0.45129 0.0
H1132 H 0.5637 0.62429 0.42037 0.0
H1133 H 0.55855 0.64841 0.49937 0.0
C1134 C 0.53869 0.61097 0.50918 0.0
C1135 C 0.52978 0.58749 0.50156 0.0
C1136 C 0.57277 0.64237 0.42721 0.0
C1137 C 0.55564 0.62644 0.46902 0.0
C1138 C 0.58711 0.6617 0.41134 0.0
C1139 C 0.59911 0.68536 0.41965 0.0
C1140 C 0.57035 0.64667 0.45162 0.0
C1141 C 0.59633 0.68893 0.44417 0.0
C1142 C 0.55161 0.63044 0.49302 0.0
C1143 C 0.53365 0.58425 0.47721 0.0
N1144 N 0.58221 0.66978 0.45931 0.0
N1145 N 0.54637 0.60349 0.46189 0.0
H1146 H 0.44064 0.00312 0.60829 0.0
H1147 H 0.46488 0.13594 0.61064 0.0
H1148 H 0.48984 0.06089 0.55872 0.0
H1149 H 0.40902 0.07753 0.65555 0.0
H1150 H 0.47692 0.10912 0.59419 0.0
H1151 H 0.43101 0.03037 0.62823 0.0
C1152 C 0.44944 0.02145 0.60156 0.0
C1153 C 0.46613 0.02958 0.58171 0.0
C1154 C 0.46218 0.10215 0.6078 0.0
C1155 C 0.45535 0.06095 0.60466 0.0
C1156 C 0.4554 0.11751 0.61728 0.0
C1157 C 0.43619 0.10904 0.63473 0.0
C1158 C 0.4495 0.07797 0.61562 0.0
C1159 C 0.42418 0.08484 0.64236 0.0
C1160 C 0.444 0.03703 0.61304 0.0
C1161 C 0.47718 0.0537 0.57409 0.0
N1162 N 0.43101 0.07013 0.63273 0.0
N1163 N 0.47156 0.06843 0.58552 0.0
H1164 H 0.43832 0.48435 0.029 0.0
H1165 H 0.36538 0.49058 0.14442 0.0
H1166 H 0.4746 0.52427 0.09393 0.0
H1167 H 0.32837 0.43772 0.08846 0.0
H1168 H 0.40446 0.51 0.12081 0.0
H1169 H 0.397 0.47407 0.04531 0.0
C1170 C 0.43763 0.49144 0.04637 0.0
C1171 C 0.45976 0.50496 0.0603 0.0
C1172 C 0.38769 0.49439 0.11345 0.0
C1173 C 0.41293 0.4933 0.07899 0.0
C1174 C 0.36535 0.4834 0.12687 0.0
C1175 C 0.34354 0.46263 0.11827 0.0
C1176 C 0.38843 0.48441 0.09139 0.0
C1177 C 0.34472 0.45381 0.09561 0.0
C1178 C 0.4141 0.48544 0.05573 0.0
C1179 C 0.4579 0.51356 0.08276 0.0
N1180 N 0.36686 0.46463 0.08302 0.0
N1181 N 0.43491 0.50745 0.09147 0.0
H1182 H 0.97437 0.46383 0.57277 0.0
H1183 H 0.97633 0.35317 0.63441 0.0
H1184 H 0.03291 0.44893 0.5587 0.0
H1185 H 0.92782 0.37742 0.65821 0.0
H1186 H 0.99718 0.38781 0.60629 0.0
H1187 H 0.95716 0.43227 0.60413 0.0
C1188 C 0.98378 0.45407 0.57644 0.0
C1189 C 0.00508 0.45899 0.56299 0.0
C1190 C 0.98195 0.38553 0.61764 0.0
C1191 C 0.9852 0.42251 0.59878 0.0
C1192 C 0.96996 0.36571 0.63355 0.0
C1193 C 0.94984 0.36204 0.64815 0.0
C1194 C 0.97382 0.40189 0.61635 0.0
C1195 C 0.94279 0.37919 0.64683 0.0
C1196 C 0.97391 0.43602 0.59437 0.0
C1197 C 0.0165 0.44579 0.56865 0.0
N1198 N 0.9546 0.39822 0.63106 0.0
N1199 N 0.00625 0.42797 0.58594 0.0
H1200 H 0.56381 0.96791 0.07297 0.0
H1201 H 0.66481 0.96186 0.17956 0.0
H1202 H 0.61444 0.02651 0.1196 0.0
H1203 H 0.60202 0.89279 0.12392 0.0
H1204 H 0.64807 0.99029 0.15429 0.0
H1205 H 0.57975 0.94392 0.09097 0.0
C1206 C 0.57846 0.97585 0.08682 0.0
C1207 C 0.58793 0.99938 0.09467 0.0
C1208 C 0.64051 0.97183 0.14936 0.0
C1209 C 0.60599 0.97183 0.11551 0.0
C1210 C 0.65224 0.95505 0.16396 0.0
C1211 C 0.6322 0.9225 0.15712 0.0
C1212 C 0.61581 0.95778 0.12697 0.0
C1213 C 0.61242 0.91148 0.12903 0.0
C1214 C 0.58741 0.96205 0.0972 0.0
C1215 C 0.60649 0.00844 0.11312 0.0
N1216 N 0.60463 0.93015 0.11833 0.0
N1217 N 0.61497 0.99465 0.1229 0.0
H1218 H 0.56953 0.52381 0.53125 0.0
H1219 H 0.64606 0.51085 0.64204 0.0
H1220 H 0.54061 0.45944 0.57576 0.0
H1221 H 0.67844 0.57203 0.59274 0.0
H1222 H 0.6089 0.49013 0.61546 0.0
H1223 H 0.61114 0.5399 0.55038 0.0
C1224 C 0.57201 0.51284 0.54472 0.0
C1225 C 0.55139 0.49034 0.55213 0.0
C1226 C 0.62429 0.50793 0.61019 0.0
C1227 C 0.59897 0.50887 0.57439 0.0
C1228 C 0.64557 0.51973 0.62534 0.0
C1229 C 0.66559 0.54307 0.61937 0.0
C1230 C 0.62269 0.51969 0.58914 0.0
C1231 C 0.66359 0.55393 0.59782 0.0
C1232 C 0.5958 0.5221 0.55571 0.0
C1233 C 0.55585 0.47695 0.56959 0.0
N1234 N 0.64246 0.54224 0.58358 0.0
N1235 N 0.57903 0.48656 0.58038 0.0
H1236 H 0.07305 0.60811 0.02345 0.0
H1237 H 0.19494 0.70715 0.11836 0.0
H1238 H 0.14286 0.60953 0.03474 0.0
H1239 H 0.10978 0.70203 0.10393 0.0
H1240 H 0.17724 0.6702 0.08227 0.0
H1241 H 0.08888 0.64235 0.05028 0.0
C1242 C 0.0917 0.6156 0.03155 0.0
C1243 C 0.10657 0.60579 0.0269 0.0
C1244 C 0.16575 0.6774 0.08707 0.0
C1245 C 0.12486 0.64513 0.05746 0.0
C1246 C 0.17756 0.70115 0.1082 0.0
C1247 C 0.15225 0.70623 0.11818 0.0
C1248 C 0.13465 0.66527 0.07433 0.0
C1249 C 0.12388 0.69792 0.09905 0.0
C1250 C 0.10077 0.63522 0.0468 0.0
C1251 C 0.13082 0.61658 0.0376 0.0
N1252 N 0.11713 0.67638 0.08042 0.0
N1253 N 0.13918 0.63564 0.0525 0.0
loop_
_geom_bond_atom_site_label_1
_geom_bond_atom_site_label_2
_geom_bond_distance
_geom_bond_site_symmetry_2
_ccdc_geom_bond_type
Cu0 N1 1.999 1_554 S
Cu0 O6 1.974 1_554 S
Cu0 N11 1.985 . S
Cu0 O20 1.959 . S
N1 Cu0 1.999 1_556 S
N1 C3 1.263 . S
N1 C5 1.387 1_556 S
N2 C3 1.358 1_655 S
N2 C4 1.400 . S
C3 N1 1.263 . S
C3 N2 1.358 1_455 S
C3 H9 0.930 . S
C4 N2 1.400 . S
C4 C5 1.350 1_656 S
C4 H21 0.930 . S
C5 N1 1.387 1_554 S
C5 C4 1.350 1_454 S
C5 H10 0.932 . S
O6 Cu0 1.974 1_556 S
O6 C16 1.282 . S
C7 O8 1.261 . S
C7 O20 1.251 . S
O8 C7 1.261 . S
H9 C3 0.930 . S
H10 C5 0.932 . S
N11 Cu0 1.985 . S
N11 C13 1.335 . S
N11 C14 1.390 . S
N12 C13 1.345 . S
N12 C15 1.336 . S
C13 N11 1.335 . S
C13 N12 1.345 . S
C13 H18 0.930 . S
C14 N11 1.390 . S
C14 C15 1.346 . S
C14 H19 0.930 1_554 S
C15 N12 1.336 . S
C15 C14 1.346 . S
C15 H22 0.929 . S
C16 O6 1.282 . S
C16 O17 1.216 . S
O17 C16 1.216 . S
H18 C13 0.930 . S
H19 C14 0.930 1_556 S
O20 Cu0 1.959 . S
O20 C7 1.251 . S
H21 C4 0.930 . S
H22 C15 0.929 . S
Cu23 N24 1.999 . S
Cu23 O29 1.974 . S
Cu23 N34 1.985 1_565 S
Cu23 O43 1.959 1_565 S
N24 Cu23 1.999 . S
N24 C26 1.263 . S
N24 C28 1.389 . S
N25 C26 1.358 . S
N25 C27 1.400 . S
C26 N24 1.263 . S
C26 N25 1.358 . S
C26 H32 0.930 . S
C27 N25 1.400 . S
C27 C28 1.351 . S
C27 H44 0.930 . S
C28 N24 1.389 . S
C28 C27 1.351 . S
C28 H33 0.930 . S
O29 Cu23 1.974 . S
O29 C39 1.282 . S
C30 O31 1.261 . S
C30 O43 1.251 . S
O31 C30 1.261 . S
H32 C26 0.930 . S
H33 C28 0.930 . S
N34 Cu23 1.985 1_545 S
N34 C36 1.335 . S
N34 C37 1.390 . S
N35 C36 1.345 . S
N35 C38 1.336 . S
C36 N34 1.335 . S
C36 N35 1.345 . S
C36 H41 0.930 . S
C37 N34 1.390 . S
C37 C38 1.346 . S
C37 H42 0.930 . S
C38 N35 1.336 . S
C38 C37 1.346 . S
C38 H45 0.929 . S
C39 O29 1.282 . S
C39 O40 1.216 1_565 S
O40 C39 1.216 1_545 S
H41 C36 0.930 . S
H42 C37 0.930 . S
O43 Cu23 1.959 1_545 S
O43 C30 1.251 . S
H44 C27 0.930 . S
H45 C38 0.929 . S
Cu46 N47 1.999 1_554 S
Cu46 O52 1.974 1_554 S
Cu46 N57 1.985 . S
Cu46 O66 1.959 . S
N47 Cu46 1.999 1_556 S
N47 C49 1.263 . S
N47 C51 1.389 . S
N48 C49 1.358 . S
N48 C50 1.400 . S
C49 N47 1.263 . S
C49 N48 1.358 . S
C49 H55 0.930 . S
C50 N48 1.400 . S
C50 C51 1.351 . S
C50 H67 0.930 . S
C51 N47 1.389 . S
C51 C50 1.351 . S
C51 H56 0.930 . S
O52 Cu46 1.974 1_556 S
O52 C62 1.282 . S
C53 O54 1.261 . S
C53 O66 1.251 . S
O54 C53 1.261 . S
H55 C49 0.930 . S
H56 C51 0.930 . S
N57 Cu46 1.985 . S
N57 C59 1.335 . S
N57 C60 1.390 . S
N58 C59 1.345 . S
N58 C61 1.336 . S
C59 N57 1.335 . S
C59 N58 1.345 . S
C59 H64 0.930 . S
C60 N57 1.390 . S
C60 C61 1.346 . S
C60 H65 0.930 . S
C61 N58 1.336 . S
C61 C60 1.346 . S
C61 H68 0.929 . S
C62 O52 1.282 . S
C62 O63 1.216 1_556 S
O63 C62 1.216 1_554 S
H64 C59 0.930 . S
H65 C60 0.930 . S
O66 Cu46 1.959 . S
O66 C53 1.251 . S
H67 C50 0.930 . S
H68 C61 0.929 . S
Cu69 N70 1.999 1_655 S
Cu69 O75 1.974 1_655 S
Cu69 N80 1.985 . S
Cu69 O89 1.959 . S
N70 Cu69 1.999 1_455 S
N70 C72 1.263 . S
N70 C74 1.389 1_455 S
N71 C72 1.358 . S
N71 C73 1.400 . S
C72 N70 1.263 . S
C72 N71 1.358 . S
C72 H78 0.930 . S
C73 N71 1.400 . S
C73 C74 1.351 1_455 S
C73 H90 0.930 1_455 S
C74 N70 1.389 1_655 S
C74 C73 1.351 1_655 S
C74 H79 0.930 . S
O75 Cu69 1.974 1_455 S
O75 C85 1.282 . S
C76 O77 1.261 1_655 S
C76 O89 1.251 . S
O77 C76 1.261 1_455 S
H78 C72 0.930 . S
H79 C74 0.930 . S
N80 Cu69 1.985 . S
N80 C82 1.335 . S
N80 C83 1.390 . S
N81 C82 1.345 . S
N81 C84 1.336 . S
C82 N80 1.335 . S
C82 N81 1.345 . S
C82 H87 0.930 . S
C83 N80 1.390 . S
C83 C84 1.346 . S
C83 H88 0.930 1_655 S
C84 N81 1.336 . S
C84 C83 1.346 . S
C84 H91 0.929 . S
C85 O75 1.282 . S
C85 O86 1.216 . S
O86 C85 1.216 . S
H87 C82 0.930 . S
H88 C83 0.930 1_455 S
O89 Cu69 1.959 . S
O89 C76 1.251 . S
H90 C73 0.930 1_655 S
H91 C84 0.929 . S
Cu92 N93 1.999 . S
Cu92 O98 1.974 . S
Cu92 N103 1.999 . S
Cu92 O112 1.959 . S
N93 Cu92 1.999 . S
N93 C95 1.263 1_554 S
N93 C97 1.389 . S
N94 C95 1.358 . S
N94 C96 1.400 1_556 S
C95 N93 1.263 1_556 S
C95 N94 1.358 . S
C95 H101 0.930 . S
C96 N94 1.400 1_554 S
C96 C97 1.351 . S
C96 H113 0.930 . S
C97 N93 1.389 . S
C97 C96 1.351 . S
C97 H102 0.930 . S
O98 Cu92 1.974 . S
O98 C108 1.282 1_554 S
C99 O100 1.261 . S
C99 O112 1.251 1_565 S
O100 C99 1.261 . S
H101 C95 0.930 . S
H102 C97 0.930 . S
N103 Cu92 1.999 . S
N103 C105 1.329 1_545 S
N103 C106 1.380 1_545 S
N104 C105 1.345 . S
N104 C107 1.336 . S
C105 N103 1.329 1_565 S
C105 N104 1.345 . S
C105 H110 0.930 . S
C106 N103 1.380 1_565 S
C106 C107 1.346 . S
C106 H111 0.930 1_565 S
C107 N104 1.336 . S
C107 C106 1.346 . S
C107 H114 0.929 . S
C108 O98 1.282 1_556 S
C108 O109 1.216 . S
O109 C108 1.216 . S
H110 C105 0.930 . S
H111 C106 0.930 1_545 S
O112 Cu92 1.959 . S
O112 C99 1.251 1_545 S
H113 C96 0.930 . S
H114 C107 0.929 . S
Cu115 N116 1.999 . S
Cu115 O121 1.974 . S
Cu115 N126 1.985 . S
Cu115 O135 1.959 . S
N116 Cu115 1.999 . S
N116 C118 1.263 . S
N116 C120 1.389 . S
N117 C118 1.358 . S
N117 C119 1.400 . S
C118 N116 1.263 . S
C118 N117 1.358 . S
C118 H124 0.930 . S
C119 N117 1.400 . S
C119 C120 1.351 . S
C119 H136 0.930 . S
C120 N116 1.389 . S
C120 C119 1.351 . S
C120 H125 0.930 . S
O121 Cu115 1.974 . S
O121 C131 1.282 . S
C122 O123 1.261 . S
C122 O135 1.251 . S
O123 C122 1.261 . S
H124 C118 0.930 . S
H125 C120 0.930 . S
N126 Cu115 1.985 . S
N126 C128 1.335 . S
N126 C129 1.390 . S
N127 C128 1.345 . S
N127 C130 1.336 . S
C128 N126 1.335 . S
C128 N127 1.345 . S
C128 H133 0.930 . S
C129 N126 1.390 . S
C129 C130 1.346 . S
C129 H134 0.930 . S
C130 N127 1.336 . S
C130 C129 1.346 . S
C130 H137 0.929 . S
C131 O121 1.282 . S
C131 O132 1.216 . S
O132 C131 1.216 . S
H133 C128 0.930 . S
H134 C129 0.930 . S
O135 Cu115 1.959 . S
O135 C122 1.251 . S
H136 C119 0.930 . S
H137 C130 0.929 . S
C138 C139 1.560 . S
C138 H199 0.959 . S
C138 H200 0.959 . S
C138 H201 0.960 . S
C139 C138 1.560 . S
C139 O194 1.426 . S
C139 H198 0.980 . S
C140 C141 1.407 . S
C140 C145 1.418 . S
C140 O194 1.334 . S
C141 C140 1.407 . S
C141 C142 1.360 . S
C141 H202 0.929 . S
C142 C141 1.360 . S
C142 C143 1.401 . S
C142 C146 1.527 . S
C143 C142 1.401 . S
C143 C144 1.405 . S
C143 C176 1.587 . S
C144 C143 1.405 . S
C144 C145 1.332 . S
C144 C147 1.496 . S
C145 C140 1.418 . S
C145 C144 1.332 . S
C145 H203 0.929 . S
C146 C142 1.527 . S
C146 H204 0.959 . S
C146 H205 0.961 . S
C146 H206 0.961 . S
C147 C144 1.496 . S
C147 H207 0.960 . S
C147 H208 0.960 . S
C147 H209 0.961 . S
C148 C149 1.517 . S
C148 H211 0.961 . S
C148 H212 0.960 . S
C148 H213 0.959 . S
C149 C148 1.517 . S
C149 O197 1.468 . S
C149 H210 0.980 . S
C150 C151 1.349 . S
C150 C155 1.367 . S
C150 O197 1.408 . S
C151 C150 1.349 . S
C151 C152 1.407 . S
C151 H214 0.930 . S
C152 C151 1.407 . S
C152 C153 1.449 . S
C152 C156 1.535 . S
C153 C152 1.449 . S
C153 C154 1.384 . S
C153 C178 1.553 . S
C154 C153 1.384 . S
C154 C155 1.364 . S
C154 C157 1.450 . S
C155 C150 1.367 . S
C155 C154 1.364 . S
C155 H215 0.931 . S
C156 C152 1.535 . S
C156 H216 0.959 . S
C156 H217 0.961 . S
C156 H218 0.959 . S
C157 C154 1.450 . S
C157 H219 0.960 . S
C157 H220 0.960 . S
C157 H221 0.960 . S
C158 C159 1.309 . S
C158 C163 1.304 . S
C158 O196 1.435 . S
C159 C158 1.309 . S
C159 C160 1.476 . S
C159 H223 0.930 . S
C160 C159 1.476 . S
C160 C161 1.400 . S
C160 C164 1.567 . S
C161 C160 1.400 . S
C161 C162 1.373 . S
C161 C183 1.432 . S
C162 C161 1.373 . S
C162 C163 1.339 . S
C162 C165 1.530 . S
C163 C158 1.304 . S
C163 C162 1.339 . S
C163 H224 0.930 . S
C164 C160 1.567 . S
C164 H225 0.961 . S
C164 H226 0.960 . S
C164 H227 0.958 . S
C165 C162 1.530 . S
C165 H228 0.961 . S
C165 H229 0.960 . S
C165 H230 0.960 . S
C166 C167 1.530 . S
C166 H232 0.961 . S
C166 H233 0.961 . S
C166 H234 0.959 . S
C167 C166 1.530 . S
C167 O195 1.412 . S
C167 H231 0.980 . S
C168 C169 1.288 . S
C168 C173 1.377 . S
C168 O195 1.393 . S
C169 C168 1.288 . S
C169 C170 1.369 . S
C169 H235 0.932 . S
C170 C169 1.369 . S
C170 C171 1.398 . S
C170 C174 1.527 . S
C171 C170 1.398 . S
C171 C172 1.380 . S
C171 C185 1.497 . S
C172 C171 1.380 . S
C172 C173 1.383 . S
C172 C175 1.603 . S
C173 C168 1.377 . S
C173 C172 1.383 . S
C173 H236 0.929 . S
C174 C170 1.527 . S
C174 H237 0.961 . S
C174 H238 0.959 . S
C174 H239 0.959 . S
C175 C172 1.603 . S
C175 H240 0.960 . S
C175 H241 0.962 . S
C175 H242 0.961 . S
C176 C143 1.587 . S
C176 C177 1.360 . S
C176 C189 1.412 . S
C177 C176 1.360 . S
C177 C178 1.365 . S
C177 H243 0.929 . S
C178 C153 1.553 . S
C178 C177 1.365 . S
C178 C179 1.404 . S
C179 C178 1.404 . S
C179 C180 1.395 . S
C179 C190 1.451 . S
C180 C179 1.395 . S
C180 C181 1.322 . S
C180 H244 0.930 . S
C181 C180 1.322 . S
C181 C182 1.459 . S
C181 H245 0.929 . S
C182 C181 1.459 . S
C182 C183 1.445 . S
C182 C191 1.395 . S
C183 C161 1.432 . S
C183 C182 1.445 . S
C183 C184 1.370 . S
C184 C183 1.370 . S
C184 C185 1.438 . S
C184 H246 0.930 . S
C185 C171 1.497 . S
C185 C184 1.438 . S
C185 C186 1.360 . S
C186 C185 1.360 . S
C186 C187 1.401 . S
C186 C191 1.446 . S
C187 C186 1.401 . S
C187 C188 1.347 . S
C187 H247 0.929 . S
C188 C187 1.347 . S
C188 C189 1.455 . S
C188 H248 0.930 . S
C189 C176 1.412 . S
C189 C188 1.455 . S
C189 C190 1.331 . S
C190 C179 1.451 . S
C190 C189 1.331 . S
C190 C191 1.497 . S
C191 C182 1.395 . S
C191 C186 1.446 . S
C191 C190 1.497 . S
C192 C193 1.582 . S
C192 H249 0.962 . S
C192 H250 0.959 . S
C192 H251 0.958 . S
C193 C192 1.582 . S
C193 O196 1.458 . S
C193 H222 0.980 . S
O194 C139 1.426 . S
O194 C140 1.334 . S
O195 C167 1.412 . S
O195 C168 1.393 . S
O196 C158 1.435 . S
O196 C193 1.458 . S
O197 C149 1.468 . S
O197 C150 1.408 . S
H198 C139 0.980 . S
H199 C138 0.959 . S
H200 C138 0.959 . S
H201 C138 0.960 . S
H202 C141 0.929 . S
H203 C145 0.929 . S
H204 C146 0.959 . S
H205 C146 0.961 . S
H206 C146 0.961 . S
H207 C147 0.960 . S
H208 C147 0.960 . S
H209 C147 0.961 . S
H210 C149 0.980 . S
H211 C148 0.961 . S
H212 C148 0.960 . S
H213 C148 0.959 . S
H214 C151 0.930 . S
H215 C155 0.931 . S
H216 C156 0.959 . S
H217 C156 0.961 . S
H218 C156 0.959 . S
H219 C157 0.960 . S
H220 C157 0.960 . S
H221 C157 0.960 . S
H222 C193 0.980 . S
H223 C159 0.930 . S
H224 C163 0.930 . S
H225 C164 0.961 . S
H226 C164 0.960 . S
H227 C164 0.958 . S
H228 C165 0.961 . S
H229 C165 0.960 . S
H230 C165 0.960 . S
H231 C167 0.980 . S
H232 C166 0.961 . S
H233 C166 0.961 . S
H234 C166 0.959 . S
H235 C169 0.932 . S
H236 C173 0.929 . S
H237 C174 0.961 . S
H238 C174 0.959 . S
H239 C174 0.959 . S
H240 C175 0.960 . S
H241 C175 0.962 . S
H242 C175 0.961 . S
H243 C177 0.929 . S
H244 C180 0.930 . S
H245 C181 0.929 . S
H246 C184 0.930 . S
H247 C187 0.929 . S
H248 C188 0.930 . S
H249 C192 0.962 . S
H250 C192 0.959 . S
H251 C192 0.958 . S
C252 C253 1.560 . S
C252 H313 0.959 . S
C252 H314 0.959 . S
C252 H315 0.960 . S
C253 C252 1.560 . S
C253 O308 1.426 . S
C253 H312 0.980 . S
C254 C255 1.407 . S
C254 C259 1.418 . S
C254 O308 1.334 . S
C255 C254 1.407 . S
C255 C256 1.360 . S
C255 H316 0.929 . S
C256 C255 1.360 . S
C256 C257 1.401 . S
C256 C260 1.527 . S
C257 C256 1.401 . S
C257 C258 1.405 . S
C257 C290 1.587 . S
C258 C257 1.405 . S
C258 C259 1.332 . S
C258 C261 1.496 . S
C259 C254 1.418 . S
C259 C258 1.332 . S
C259 H317 0.929 . S
C260 C256 1.527 . S
C260 H318 0.959 . S
C260 H319 0.961 . S
C260 H320 0.961 . S
C261 C258 1.496 . S
C261 H321 0.960 . S
C261 H322 0.960 . S
C261 H323 0.961 . S
C262 C263 1.517 . S
C262 H325 0.961 . S
C262 H326 0.960 . S
C262 H327 0.959 . S
C263 C262 1.517 . S
C263 O311 1.468 . S
C263 H324 0.980 . S
C264 C265 1.349 . S
C264 C269 1.367 . S
C264 O311 1.408 . S
C265 C264 1.349 . S
C265 C266 1.407 . S
C265 H328 0.930 . S
C266 C265 1.407 . S
C266 C267 1.449 . S
C266 C270 1.535 . S
C267 C266 1.449 . S
C267 C268 1.384 . S
C267 C292 1.553 . S
C268 C267 1.384 . S
C268 C269 1.364 . S
C268 C271 1.450 . S
C269 C264 1.367 . S
C269 C268 1.364 . S
C269 H329 0.931 . S
C270 C266 1.535 . S
C270 H330 0.959 . S
C270 H331 0.961 . S
C270 H332 0.959 . S
C271 C268 1.450 . S
C271 H333 0.960 . S
C271 H334 0.960 . S
C271 H335 0.960 . S
C272 C273 1.309 . S
C272 C277 1.304 . S
C272 O310 1.435 . S
C273 C272 1.309 . S
C273 C274 1.476 . S
C273 H337 0.930 . S
C274 C273 1.476 . S
C274 C275 1.400 . S
C274 C278 1.567 . S
C275 C274 1.400 . S
C275 C276 1.373 . S
C275 C297 1.432 . S
C276 C275 1.373 . S
C276 C277 1.339 . S
C276 C279 1.530 . S
C277 C272 1.304 . S
C277 C276 1.339 . S
C277 H338 0.930 . S
C278 C274 1.567 . S
C278 H339 0.961 . S
C278 H340 0.960 . S
C278 H341 0.958 . S
C279 C276 1.530 . S
C279 H342 0.961 . S
C279 H343 0.960 . S
C279 H344 0.960 . S
C280 C281 1.530 . S
C280 H346 0.961 . S
C280 H347 0.961 . S
C280 H348 0.959 . S
C281 C280 1.530 . S
C281 O309 1.412 . S
C281 H345 0.980 . S
C282 C283 1.288 . S
C282 C287 1.377 . S
C282 O309 1.393 . S
C283 C282 1.288 . S
C283 C284 1.369 . S
C283 H349 0.932 . S
C284 C283 1.369 . S
C284 C285 1.398 . S
C284 C288 1.527 . S
C285 C284 1.398 . S
C285 C286 1.380 . S
C285 C299 1.497 . S
C286 C285 1.380 . S
C286 C287 1.383 . S
C286 C289 1.603 . S
C287 C282 1.377 . S
C287 C286 1.383 . S
C287 H350 0.929 . S
C288 C284 1.527 . S
C288 H351 0.961 . S
C288 H352 0.959 . S
C288 H353 0.959 . S
C289 C286 1.603 . S
C289 H354 0.960 . S
C289 H355 0.962 . S
C289 H356 0.961 . S
C290 C257 1.587 . S
C290 C291 1.360 . S
C290 C303 1.412 . S
C291 C290 1.360 . S
C291 C292 1.365 . S
C291 H357 0.929 . S
C292 C267 1.553 . S
C292 C291 1.365 . S
C292 C293 1.404 . S
C293 C292 1.404 . S
C293 C294 1.395 . S
C293 C304 1.451 . S
C294 C293 1.395 . S
C294 C295 1.322 . S
C294 H358 0.930 . S
C295 C294 1.322 . S
C295 C296 1.459 . S
C295 H359 0.929 . S
C296 C295 1.459 . S
C296 C297 1.445 . S
C296 C305 1.395 . S
C297 C275 1.432 . S
C297 C296 1.445 . S
C297 C298 1.370 . S
C298 C297 1.370 . S
C298 C299 1.438 . S
C298 H360 0.930 . S
C299 C285 1.497 . S
C299 C298 1.438 . S
C299 C300 1.360 . S
C300 C299 1.360 . S
C300 C301 1.401 . S
C300 C305 1.446 . S
C301 C300 1.401 . S
C301 C302 1.347 . S
C301 H361 0.929 . S
C302 C301 1.347 . S
C302 C303 1.455 . S
C302 H362 0.930 . S
C303 C290 1.412 . S
C303 C302 1.455 . S
C303 C304 1.331 . S
C304 C293 1.451 . S
C304 C303 1.331 . S
C304 C305 1.497 . S
C305 C296 1.395 . S
C305 C300 1.446 . S
C305 C304 1.497 . S
C306 C307 1.582 . S
C306 H363 0.962 . S
C306 H364 0.959 . S
C306 H365 0.958 . S
C307 C306 1.582 . S
C307 O310 1.458 . S
C307 H336 0.980 . S
O308 C253 1.426 . S
O308 C254 1.334 . S
O309 C281 1.412 . S
O309 C282 1.393 . S
O310 C272 1.435 . S
O310 C307 1.458 . S
O311 C263 1.468 . S
O311 C264 1.408 . S
H312 C253 0.980 . S
H313 C252 0.959 . S
H314 C252 0.959 . S
H315 C252 0.960 . S
H316 C255 0.929 . S
H317 C259 0.929 . S
H318 C260 0.959 . S
H319 C260 0.961 . S
H320 C260 0.961 . S
H321 C261 0.960 . S
H322 C261 0.960 . S
H323 C261 0.961 . S
H324 C263 0.980 . S
H325 C262 0.961 . S
H326 C262 0.960 . S
H327 C262 0.959 . S
H328 C265 0.930 . S
H329 C269 0.931 . S
H330 C270 0.959 . S
H331 C270 0.961 . S
H332 C270 0.959 . S
H333 C271 0.960 . S
H334 C271 0.960 . S
H335 C271 0.960 . S
H336 C307 0.980 . S
H337 C273 0.930 . S
H338 C277 0.930 . S
H339 C278 0.961 . S
H340 C278 0.960 . S
H341 C278 0.958 . S
H342 C279 0.961 . S
H343 C279 0.960 . S
H344 C279 0.960 . S
H345 C281 0.980 . S
H346 C280 0.961 . S
H347 C280 0.961 . S
H348 C280 0.959 . S
H349 C283 0.932 . S
H350 C287 0.929 . S
H351 C288 0.961 . S
H352 C288 0.959 . S
H353 C288 0.959 . S
H354 C289 0.960 . S
H355 C289 0.962 . S
H356 C289 0.961 . S
H357 C291 0.929 . S
H358 C294 0.930 . S
H359 C295 0.929 . S
H360 C298 0.930 . S
H361 C301 0.929 . S
H362 C302 0.930 . S
H363 C306 0.962 . S
H364 C306 0.959 . S
H365 C306 0.958 . S
C366 C367 1.560 . S
C366 H427 0.959 . S
C366 H428 0.959 . S
C366 H429 0.960 . S
C367 C366 1.560 . S
C367 O422 1.426 . S
C367 H426 0.980 . S
C368 C369 1.407 . S
C368 C373 1.418 . S
C368 O422 1.334 . S
C369 C368 1.407 . S
C369 C370 1.360 . S
C369 H430 0.929 . S
C370 C369 1.360 . S
C370 C371 1.401 . S
C370 C374 1.527 . S
C371 C370 1.401 . S
C371 C372 1.405 . S
C371 C404 1.587 . S
C372 C371 1.405 . S
C372 C373 1.332 . S
C372 C375 1.496 . S
C373 C368 1.418 . S
C373 C372 1.332 . S
C373 H431 0.929 . S
C374 C370 1.527 . S
C374 H432 0.959 . S
C374 H433 0.961 . S
C374 H434 0.961 . S
C375 C372 1.496 . S
C375 H435 0.960 . S
C375 H436 0.960 . S
C375 H437 0.961 . S
C376 C377 1.517 . S
C376 H439 0.961 . S
C376 H440 0.960 . S
C376 H441 0.959 . S
C377 C376 1.517 . S
C377 O425 1.468 . S
C377 H438 0.980 . S
C378 C379 1.349 . S
C378 C383 1.367 . S
C378 O425 1.408 . S
C379 C378 1.349 . S
C379 C380 1.407 . S
C379 H442 0.930 . S
C380 C379 1.407 . S
C380 C381 1.449 . S
C380 C384 1.535 . S
C381 C380 1.449 . S
C381 C382 1.384 . S
C381 C406 1.553 . S
C382 C381 1.384 . S
C382 C383 1.364 . S
C382 C385 1.450 . S
C383 C378 1.367 . S
C383 C382 1.364 . S
C383 H443 0.931 . S
C384 C380 1.535 . S
C384 H444 0.959 . S
C384 H445 0.961 . S
C384 H446 0.959 . S
C385 C382 1.450 . S
C385 H447 0.960 . S
C385 H448 0.960 . S
C385 H449 0.960 . S
C386 C387 1.309 . S
C386 C391 1.304 . S
C386 O424 1.435 . S
C387 C386 1.309 . S
C387 C388 1.476 . S
C387 H451 0.930 . S
C388 C387 1.476 . S
C388 C389 1.400 . S
C388 C392 1.567 . S
C389 C388 1.400 . S
C389 C390 1.373 . S
C389 C411 1.432 . S
C390 C389 1.373 . S
C390 C391 1.339 . S
C390 C393 1.530 . S
C391 C386 1.304 . S
C391 C390 1.339 . S
C391 H452 0.930 . S
C392 C388 1.567 . S
C392 H453 0.961 . S
C392 H454 0.960 . S
C392 H455 0.958 . S
C393 C390 1.530 . S
C393 H456 0.961 . S
C393 H457 0.960 . S
C393 H458 0.960 . S
C394 C395 1.530 . S
C394 H460 0.961 . S
C394 H461 0.961 . S
C394 H462 0.959 . S
C395 C394 1.530 . S
C395 O423 1.412 . S
C395 H459 0.980 . S
C396 C397 1.288 . S
C396 C401 1.377 . S
C396 O423 1.393 . S
C397 C396 1.288 . S
C397 C398 1.369 . S
C397 H463 0.932 . S
C398 C397 1.369 . S
C398 C399 1.398 . S
C398 C402 1.527 . S
C399 C398 1.398 . S
C399 C400 1.380 . S
C399 C413 1.497 . S
C400 C399 1.380 . S
C400 C401 1.383 . S
C400 C403 1.603 . S
C401 C396 1.377 . S
C401 C400 1.383 . S
C401 H464 0.929 . S
C402 C398 1.527 . S
C402 H465 0.961 . S
C402 H466 0.959 . S
C402 H467 0.959 . S
C403 C400 1.603 . S
C403 H468 0.960 . S
C403 H469 0.962 . S
C403 H470 0.961 . S
C404 C371 1.587 . S
C404 C405 1.360 . S
C404 C417 1.412 . S
C405 C404 1.360 . S
C405 C406 1.365 . S
C405 H471 0.929 . S
C406 C381 1.553 . S
C406 C405 1.365 . S
C406 C407 1.404 . S
C407 C406 1.404 . S
C407 C408 1.395 . S
C407 C418 1.451 . S
C408 C407 1.395 . S
C408 C409 1.322 . S
C408 H472 0.930 . S
C409 C408 1.322 . S
C409 C410 1.459 . S
C409 H473 0.929 . S
C410 C409 1.459 . S
C410 C411 1.445 . S
C410 C419 1.395 . S
C411 C389 1.432 . S
C411 C410 1.445 . S
C411 C412 1.370 . S
C412 C411 1.370 . S
C412 C413 1.438 . S
C412 H474 0.930 . S
C413 C399 1.497 . S
C413 C412 1.438 . S
C413 C414 1.360 . S
C414 C413 1.360 . S
C414 C415 1.401 . S
C414 C419 1.446 . S
C415 C414 1.401 . S
C415 C416 1.347 . S
C415 H475 0.929 . S
C416 C415 1.347 . S
C416 C417 1.455 . S
C416 H476 0.930 . S
C417 C404 1.412 . S
C417 C416 1.455 . S
C417 C418 1.331 . S
C418 C407 1.451 . S
C418 C417 1.331 . S
C418 C419 1.497 . S
C419 C410 1.395 . S
C419 C414 1.446 . S
C419 C418 1.497 . S
C420 C421 1.582 . S
C420 H477 0.962 . S
C420 H478 0.959 . S
C420 H479 0.958 . S
C421 C420 1.582 . S
C421 O424 1.458 . S
C421 H450 0.980 . S
O422 C367 1.426 . S
O422 C368 1.334 . S
O423 C395 1.412 . S
O423 C396 1.393 . S
O424 C386 1.435 . S
O424 C421 1.458 . S
O425 C377 1.468 . S
O425 C378 1.408 . S
H426 C367 0.980 . S
H427 C366 0.959 . S
H428 C366 0.959 . S
H429 C366 0.960 . S
H430 C369 0.929 . S
H431 C373 0.929 . S
H432 C374 0.959 . S
H433 C374 0.961 . S
H434 C374 0.961 . S
H435 C375 0.960 . S
H436 C375 0.960 . S
H437 C375 0.961 . S
H438 C377 0.980 . S
H439 C376 0.961 . S
H440 C376 0.960 . S
H441 C376 0.959 . S
H442 C379 0.930 . S
H443 C383 0.931 . S
H444 C384 0.959 . S
H445 C384 0.961 . S
H446 C384 0.959 . S
H447 C385 0.960 . S
H448 C385 0.960 . S
H449 C385 0.960 . S
H450 C421 0.980 . S
H451 C387 0.930 . S
H452 C391 0.930 . S
H453 C392 0.961 . S
H454 C392 0.960 . S
H455 C392 0.958 . S
H456 C393 0.961 . S
H457 C393 0.960 . S
H458 C393 0.960 . S
H459 C395 0.980 . S
H460 C394 0.961 . S
H461 C394 0.961 . S
H462 C394 0.959 . S
H463 C397 0.932 . S
H464 C401 0.929 . S
H465 C402 0.961 . S
H466 C402 0.959 . S
H467 C402 0.959 . S
H468 C403 0.960 . S
H469 C403 0.962 . S
H470 C403 0.961 . S
H471 C405 0.929 . S
H472 C408 0.930 . S
H473 C409 0.929 . S
H474 C412 0.930 . S
H475 C415 0.929 . S
H476 C416 0.930 . S
H477 C420 0.962 . S
H478 C420 0.959 . S
H479 C420 0.958 . S
C480 C481 1.560 . S
C480 H541 0.959 . S
C480 H542 0.959 . S
C480 H543 0.960 . S
C481 C480 1.560 . S
C481 O536 1.426 . S
C481 H540 0.980 . S
C482 C483 1.407 . S
C482 C487 1.418 . S
C482 O536 1.334 . S
C483 C482 1.407 . S
C483 C484 1.360 . S
C483 H544 0.929 . S
C484 C483 1.360 . S
C484 C485 1.401 . S
C484 C488 1.527 . S
C485 C484 1.401 . S
C485 C486 1.405 . S
C485 C518 1.587 . S
C486 C485 1.405 . S
C486 C487 1.332 . S
C486 C489 1.496 . S
C487 C482 1.418 . S
C487 C486 1.332 . S
C487 H545 0.929 . S
C488 C484 1.527 . S
C488 H546 0.959 . S
C488 H547 0.961 . S
C488 H548 0.961 . S
C489 C486 1.496 . S
C489 H549 0.960 . S
C489 H550 0.960 . S
C489 H551 0.961 . S
C490 C491 1.517 . S
C490 H553 0.961 . S
C490 H554 0.960 . S
C490 H555 0.959 . S
C491 C490 1.517 . S
C491 O539 1.468 . S
C491 H552 0.980 . S
C492 C493 1.349 . S
C492 C497 1.367 . S
C492 O539 1.408 . S
C493 C492 1.349 . S
C493 C494 1.407 . S
C493 H556 0.930 . S
C494 C493 1.407 . S
C494 C495 1.449 . S
C494 C498 1.535 . S
C495 C494 1.449 . S
C495 C496 1.384 . S
C495 C520 1.553 . S
C496 C495 1.384 . S
C496 C497 1.364 . S
C496 C499 1.450 . S
C497 C492 1.367 . S
C497 C496 1.364 . S
C497 H557 0.931 . S
C498 C494 1.535 . S
C498 H558 0.959 . S
C498 H559 0.961 . S
C498 H560 0.959 . S
C499 C496 1.450 . S
C499 H561 0.960 . S
C499 H562 0.960 . S
C499 H563 0.960 . S
C500 C501 1.309 . S
C500 C505 1.304 . S
C500 O538 1.435 . S
C501 C500 1.309 . S
C501 C502 1.476 . S
C501 H565 0.930 . S
C502 C501 1.476 . S
C502 C503 1.400 . S
C502 C506 1.567 . S
C503 C502 1.400 . S
C503 C504 1.373 . S
C503 C525 1.432 . S
C504 C503 1.373 . S
C504 C505 1.339 . S
C504 C507 1.530 . S
C505 C500 1.304 . S
C505 C504 1.339 . S
C505 H566 0.930 . S
C506 C502 1.567 . S
C506 H567 0.961 . S
C506 H568 0.960 . S
C506 H569 0.958 . S
C507 C504 1.530 . S
C507 H570 0.961 . S
C507 H571 0.960 . S
C507 H572 0.960 . S
C508 C509 1.530 . S
C508 H574 0.961 . S
C508 H575 0.961 . S
C508 H576 0.959 . S
C509 C508 1.530 . S
C509 O537 1.412 . S
C509 H573 0.980 . S
C510 C511 1.288 . S
C510 C515 1.377 . S
C510 O537 1.393 . S
C511 C510 1.288 . S
C511 C512 1.369 . S
C511 H577 0.932 . S
C512 C511 1.369 . S
C512 C513 1.398 . S
C512 C516 1.527 . S
C513 C512 1.398 . S
C513 C514 1.380 . S
C513 C527 1.497 . S
C514 C513 1.380 . S
C514 C515 1.383 . S
C514 C517 1.603 . S
C515 C510 1.377 . S
C515 C514 1.383 . S
C515 H578 0.929 . S
C516 C512 1.527 . S
C516 H579 0.961 . S
C516 H580 0.959 . S
C516 H581 0.959 . S
C517 C514 1.603 . S
C517 H582 0.960 . S
C517 H583 0.962 . S
C517 H584 0.961 . S
C518 C485 1.587 . S
C518 C519 1.360 . S
C518 C531 1.412 . S
C519 C518 1.360 . S
C519 C520 1.365 . S
C519 H585 0.929 . S
C520 C495 1.553 . S
C520 C519 1.365 . S
C520 C521 1.404 . S
C521 C520 1.404 . S
C521 C522 1.395 . S
C521 C532 1.451 . S
C522 C521 1.395 . S
C522 C523 1.322 . S
C522 H586 0.930 . S
C523 C522 1.322 . S
C523 C524 1.459 . S
C523 H587 0.929 . S
C524 C523 1.459 . S
C524 C525 1.445 . S
C524 C533 1.395 . S
C525 C503 1.432 . S
C525 C524 1.445 . S
C525 C526 1.370 . S
C526 C525 1.370 . S
C526 C527 1.438 . S
C526 H588 0.930 . S
C527 C513 1.497 . S
C527 C526 1.438 . S
C527 C528 1.360 . S
C528 C527 1.360 . S
C528 C529 1.401 . S
C528 C533 1.446 . S
C529 C528 1.401 . S
C529 C530 1.347 . S
C529 H589 0.929 . S
C530 C529 1.347 . S
C530 C531 1.455 . S
C530 H590 0.930 . S
C531 C518 1.412 . S
C531 C530 1.455 . S
C531 C532 1.331 . S
C532 C521 1.451 . S
C532 C531 1.331 . S
C532 C533 1.497 . S
C533 C524 1.395 . S
C533 C528 1.446 . S
C533 C532 1.497 . S
C534 C535 1.582 . S
C534 H591 0.962 . S
C534 H592 0.959 . S
C534 H593 0.958 . S
C535 C534 1.582 . S
C535 O538 1.458 . S
C535 H564 0.980 . S
O536 C481 1.426 . S
O536 C482 1.334 . S
O537 C509 1.412 . S
O537 C510 1.393 . S
O538 C500 1.435 . S
O538 C535 1.458 . S
O539 C491 1.468 . S
O539 C492 1.408 . S
H540 C481 0.980 . S
H541 C480 0.959 . S
H542 C480 0.959 . S
H543 C480 0.960 . S
H544 C483 0.929 . S
H545 C487 0.929 . S
H546 C488 0.959 . S
H547 C488 0.961 . S
H548 C488 0.961 . S
H549 C489 0.960 . S
H550 C489 0.960 . S
H551 C489 0.961 . S
H552 C491 0.980 . S
H553 C490 0.961 . S
H554 C490 0.960 . S
H555 C490 0.959 . S
H556 C493 0.930 . S
H557 C497 0.931 . S
H558 C498 0.959 . S
H559 C498 0.961 . S
H560 C498 0.959 . S
H561 C499 0.960 . S
H562 C499 0.960 . S
H563 C499 0.960 . S
H564 C535 0.980 . S
H565 C501 0.930 . S
H566 C505 0.930 . S
H567 C506 0.961 . S
H568 C506 0.960 . S
H569 C506 0.958 . S
H570 C507 0.961 . S
H571 C507 0.960 . S
H572 C507 0.960 . S
H573 C509 0.980 . S
H574 C508 0.961 . S
H575 C508 0.961 . S
H576 C508 0.959 . S
H577 C511 0.932 . S
H578 C515 0.929 . S
H579 C516 0.961 . S
H580 C516 0.959 . S
H581 C516 0.959 . S
H582 C517 0.960 . S
H583 C517 0.962 . S
H584 C517 0.961 . S
H585 C519 0.929 . S
H586 C522 0.930 . S
H587 C523 0.929 . S
H588 C526 0.930 . S
H589 C529 0.929 . S
H590 C530 0.930 . S
H591 C534 0.962 . S
H592 C534 0.959 . S
H593 C534 0.958 . S
C594 C595 1.560 . S
C594 H655 0.959 . S
C594 H656 0.959 . S
C594 H657 0.960 . S
C595 C594 1.560 . S
C595 O650 1.426 . S
C595 H654 0.980 . S
C596 C597 1.407 . S
C596 C601 1.418 . S
C596 O650 1.334 . S
C597 C596 1.407 . S
C597 C598 1.360 . S
C597 H658 0.929 . S
C598 C597 1.360 . S
C598 C599 1.401 . S
C598 C602 1.527 . S
C599 C598 1.401 . S
C599 C600 1.405 . S
C599 C632 1.587 . S
C600 C599 1.405 . S
C600 C601 1.332 . S
C600 C603 1.496 . S
C601 C596 1.418 . S
C601 C600 1.332 . S
C601 H659 0.929 . S
C602 C598 1.527 . S
C602 H660 0.959 . S
C602 H661 0.961 . S
C602 H662 0.961 . S
C603 C600 1.496 . S
C603 H663 0.960 . S
C603 H664 0.960 . S
C603 H665 0.961 . S
C604 C605 1.517 . S
C604 H667 0.961 . S
C604 H668 0.960 . S
C604 H669 0.959 . S
C605 C604 1.517 . S
C605 O653 1.468 . S
C605 H666 0.980 . S
C606 C607 1.349 . S
C606 C611 1.367 . S
C606 O653 1.408 . S
C607 C606 1.349 . S
C607 C608 1.407 . S
C607 H670 0.930 . S
C608 C607 1.407 . S
C608 C609 1.449 . S
C608 C612 1.535 . S
C609 C608 1.449 . S
C609 C610 1.384 . S
C609 C634 1.553 . S
C610 C609 1.384 . S
C610 C611 1.364 . S
C610 C613 1.450 . S
C611 C606 1.367 . S
C611 C610 1.364 . S
C611 H671 0.931 . S
C612 C608 1.535 . S
C612 H672 0.959 . S
C612 H673 0.961 . S
C612 H674 0.959 . S
C613 C610 1.450 . S
C613 H675 0.960 . S
C613 H676 0.960 . S
C613 H677 0.960 . S
C614 C615 1.309 . S
C614 C619 1.304 . S
C614 O652 1.435 . S
C615 C614 1.309 . S
C615 C616 1.476 . S
C615 H679 0.930 . S
C616 C615 1.476 . S
C616 C617 1.400 . S
C616 C620 1.567 . S
C617 C616 1.400 . S
C617 C618 1.373 . S
C617 C639 1.432 . S
C618 C617 1.373 . S
C618 C619 1.339 . S
C618 C621 1.530 . S
C619 C614 1.304 . S
C619 C618 1.339 . S
C619 H680 0.930 . S
C620 C616 1.567 . S
C620 H681 0.961 . S
C620 H682 0.960 . S
C620 H683 0.958 . S
C621 C618 1.530 . S
C621 H684 0.961 . S
C621 H685 0.960 . S
C621 H686 0.960 . S
C622 C623 1.530 . S
C622 H688 0.961 . S
C622 H689 0.961 . S
C622 H690 0.959 . S
C623 C622 1.530 . S
C623 O651 1.412 . S
C623 H687 0.980 . S
C624 C625 1.288 . S
C624 C629 1.377 . S
C624 O651 1.393 . S
C625 C624 1.288 . S
C625 C626 1.369 . S
C625 H691 0.932 . S
C626 C625 1.369 . S
C626 C627 1.398 . S
C626 C630 1.527 . S
C627 C626 1.398 . S
C627 C628 1.380 . S
C627 C641 1.497 . S
C628 C627 1.380 . S
C628 C629 1.383 . S
C628 C631 1.603 . S
C629 C624 1.377 . S
C629 C628 1.383 . S
C629 H692 0.929 . S
C630 C626 1.527 . S
C630 H693 0.961 . S
C630 H694 0.959 . S
C630 H695 0.959 . S
C631 C628 1.603 . S
C631 H696 0.960 . S
C631 H697 0.962 . S
C631 H698 0.961 . S
C632 C599 1.587 . S
C632 C633 1.360 . S
C632 C645 1.412 . S
C633 C632 1.360 . S
C633 C634 1.365 . S
C633 H699 0.929 . S
C634 C609 1.553 . S
C634 C633 1.365 . S
C634 C635 1.404 . S
C635 C634 1.404 . S
C635 C636 1.395 . S
C635 C646 1.451 . S
C636 C635 1.395 . S
C636 C637 1.322 . S
C636 H700 0.930 . S
C637 C636 1.322 . S
C637 C638 1.459 . S
C637 H701 0.929 . S
C638 C637 1.459 . S
C638 C639 1.445 . S
C638 C647 1.395 . S
C639 C617 1.432 . S
C639 C638 1.445 . S
C639 C640 1.370 . S
C640 C639 1.370 . S
C640 C641 1.438 . S
C640 H702 0.930 . S
C641 C627 1.497 . S
C641 C640 1.438 . S
C641 C642 1.360 . S
C642 C641 1.360 . S
C642 C643 1.401 . S
C642 C647 1.446 . S
C643 C642 1.401 . S
C643 C644 1.347 . S
C643 H703 0.929 . S
C644 C643 1.347 . S
C644 C645 1.455 . S
C644 H704 0.930 . S
C645 C632 1.412 . S
C645 C644 1.455 . S
C645 C646 1.331 . S
C646 C635 1.451 . S
C646 C645 1.331 . S
C646 C647 1.497 . S
C647 C638 1.395 . S
C647 C642 1.446 . S
C647 C646 1.497 . S
C648 C649 1.582 . S
C648 H705 0.962 . S
C648 H706 0.959 . S
C648 H707 0.958 . S
C649 C648 1.582 . S
C649 O652 1.458 . S
C649 H678 0.980 . S
O650 C595 1.426 . S
O650 C596 1.334 . S
O651 C623 1.412 . S
O651 C624 1.393 . S
O652 C614 1.435 . S
O652 C649 1.458 . S
O653 C605 1.468 . S
O653 C606 1.408 . S
H654 C595 0.980 . S
H655 C594 0.959 . S
H656 C594 0.959 . S
H657 C594 0.960 . S
H658 C597 0.929 . S
H659 C601 0.929 . S
H660 C602 0.959 . S
H661 C602 0.961 . S
H662 C602 0.961 . S
H663 C603 0.960 . S
H664 C603 0.960 . S
H665 C603 0.961 . S
H666 C605 0.980 . S
H667 C604 0.961 . S
H668 C604 0.960 . S
H669 C604 0.959 . S
H670 C607 0.930 . S
H671 C611 0.931 . S
H672 C612 0.959 . S
H673 C612 0.961 . S
H674 C612 0.959 . S
H675 C613 0.960 . S
H676 C613 0.960 . S
H677 C613 0.960 . S
H678 C649 0.980 . S
H679 C615 0.930 . S
H680 C619 0.930 . S
H681 C620 0.961 . S
H682 C620 0.960 . S
H683 C620 0.958 . S
H684 C621 0.961 . S
H685 C621 0.960 . S
H686 C621 0.960 . S
H687 C623 0.980 . S
H688 C622 0.961 . S
H689 C622 0.961 . S
H690 C622 0.959 . S
H691 C625 0.932 . S
H692 C629 0.929 . S
H693 C630 0.961 . S
H694 C630 0.959 . S
H695 C630 0.959 . S
H696 C631 0.960 . S
H697 C631 0.962 . S
H698 C631 0.961 . S
H699 C633 0.929 . S
H700 C636 0.930 . S
H701 C637 0.929 . S
H702 C640 0.930 . S
H703 C643 0.929 . S
H704 C644 0.930 . S
H705 C648 0.962 . S
H706 C648 0.959 . S
H707 C648 0.958 . S
C708 C709 1.560 . S
C708 H769 0.959 . S
C708 H770 0.959 . S
C708 H771 0.960 . S
C709 C708 1.560 . S
C709 O764 1.426 . S
C709 H768 0.980 . S
C710 C711 1.407 . S
C710 C715 1.418 . S
C710 O764 1.334 . S
C711 C710 1.407 . S
C711 C712 1.360 . S
C711 H772 0.929 . S
C712 C711 1.360 . S
C712 C713 1.401 . S
C712 C716 1.527 . S
C713 C712 1.401 . S
C713 C714 1.405 . S
C713 C746 1.587 . S
C714 C713 1.405 . S
C714 C715 1.332 . S
C714 C717 1.496 . S
C715 C710 1.418 . S
C715 C714 1.332 . S
C715 H773 0.929 . S
C716 C712 1.527 . S
C716 H774 0.959 . S
C716 H775 0.961 . S
C716 H776 0.961 . S
C717 C714 1.496 . S
C717 H777 0.960 . S
C717 H778 0.960 . S
C717 H779 0.961 . S
C718 C719 1.517 . S
C718 H781 0.961 . S
C718 H782 0.960 . S
C718 H783 0.959 . S
C719 C718 1.517 . S
C719 O767 1.468 . S
C719 H780 0.980 . S
C720 C721 1.349 . S
C720 C725 1.367 . S
C720 O767 1.408 . S
C721 C720 1.349 . S
C721 C722 1.407 . S
C721 H784 0.930 . S
C722 C721 1.407 . S
C722 C723 1.449 . S
C722 C726 1.535 . S
C723 C722 1.449 . S
C723 C724 1.384 . S
C723 C748 1.553 . S
C724 C723 1.384 . S
C724 C725 1.364 . S
C724 C727 1.450 . S
C725 C720 1.367 . S
C725 C724 1.364 . S
C725 H785 0.931 . S
C726 C722 1.535 . S
C726 H786 0.959 . S
C726 H787 0.961 . S
C726 H788 0.959 . S
C727 C724 1.450 . S
C727 H789 0.960 . S
C727 H790 0.960 . S
C727 H791 0.960 . S
C728 C729 1.309 . S
C728 C733 1.304 . S
C728 O766 1.435 . S
C729 C728 1.309 . S
C729 C730 1.476 . S
C729 H793 0.930 . S
C730 C729 1.476 . S
C730 C731 1.400 . S
C730 C734 1.567 . S
C731 C730 1.400 . S
C731 C732 1.373 . S
C731 C753 1.432 . S
C732 C731 1.373 . S
C732 C733 1.339 . S
C732 C735 1.530 . S
C733 C728 1.304 . S
C733 C732 1.339 . S
C733 H794 0.930 . S
C734 C730 1.567 . S
C734 H795 0.961 . S
C734 H796 0.960 . S
C734 H797 0.958 . S
C735 C732 1.530 . S
C735 H798 0.961 . S
C735 H799 0.960 . S
C735 H800 0.960 . S
C736 C737 1.530 . S
C736 H802 0.961 . S
C736 H803 0.961 . S
C736 H804 0.959 . S
C737 C736 1.530 . S
C737 O765 1.412 . S
C737 H801 0.980 . S
C738 C739 1.288 . S
C738 C743 1.377 . S
C738 O765 1.393 . S
C739 C738 1.288 . S
C739 C740 1.369 . S
C739 H805 0.932 . S
C740 C739 1.369 . S
C740 C741 1.398 . S
C740 C744 1.527 . S
C741 C740 1.398 . S
C741 C742 1.380 . S
C741 C755 1.497 . S
C742 C741 1.380 . S
C742 C743 1.383 . S
C742 C745 1.603 . S
C743 C738 1.377 . S
C743 C742 1.383 . S
C743 H806 0.929 . S
C744 C740 1.527 . S
C744 H807 0.961 . S
C744 H808 0.959 . S
C744 H809 0.959 . S
C745 C742 1.603 . S
C745 H810 0.960 . S
C745 H811 0.962 . S
C745 H812 0.961 . S
C746 C713 1.587 . S
C746 C747 1.360 . S
C746 C759 1.412 . S
C747 C746 1.360 . S
C747 C748 1.365 . S
C747 H813 0.929 . S
C748 C723 1.553 . S
C748 C747 1.365 . S
C748 C749 1.404 . S
C749 C748 1.404 . S
C749 C750 1.395 . S
C749 C760 1.451 . S
C750 C749 1.395 . S
C750 C751 1.322 . S
C750 H814 0.930 . S
C751 C750 1.322 . S
C751 C752 1.459 . S
C751 H815 0.929 . S
C752 C751 1.459 . S
C752 C753 1.445 . S
C752 C761 1.395 . S
C753 C731 1.432 . S
C753 C752 1.445 . S
C753 C754 1.370 . S
C754 C753 1.370 . S
C754 C755 1.438 . S
C754 H816 0.930 . S
C755 C741 1.497 . S
C755 C754 1.438 . S
C755 C756 1.360 . S
C756 C755 1.360 . S
C756 C757 1.401 . S
C756 C761 1.446 . S
C757 C756 1.401 . S
C757 C758 1.347 . S
C757 H817 0.929 . S
C758 C757 1.347 . S
C758 C759 1.455 . S
C758 H818 0.930 . S
C759 C746 1.412 . S
C759 C758 1.455 . S
C759 C760 1.331 . S
C760 C749 1.451 . S
C760 C759 1.331 . S
C760 C761 1.497 . S
C761 C752 1.395 . S
C761 C756 1.446 . S
C761 C760 1.497 . S
C762 C763 1.582 . S
C762 H819 0.962 . S
C762 H820 0.959 . S
C762 H821 0.958 . S
C763 C762 1.582 . S
C763 O766 1.458 . S
C763 H792 0.980 . S
O764 C709 1.426 . S
O764 C710 1.334 . S
O765 C737 1.412 . S
O765 C738 1.393 . S
O766 C728 1.435 . S
O766 C763 1.458 . S
O767 C719 1.468 . S
O767 C720 1.408 . S
H768 C709 0.980 . S
H769 C708 0.959 . S
H770 C708 0.959 . S
H771 C708 0.960 . S
H772 C711 0.929 . S
H773 C715 0.929 . S
H774 C716 0.959 . S
H775 C716 0.961 . S
H776 C716 0.961 . S
H777 C717 0.960 . S
H778 C717 0.960 . S
H779 C717 0.961 . S
H780 C719 0.980 . S
H781 C718 0.961 . S
H782 C718 0.960 . S
H783 C718 0.959 . S
H784 C721 0.930 . S
H785 C725 0.931 . S
H786 C726 0.959 . S
H787 C726 0.961 . S
H788 C726 0.959 . S
H789 C727 0.960 . S
H790 C727 0.960 . S
H791 C727 0.960 . S
H792 C763 0.980 . S
H793 C729 0.930 . S
H794 C733 0.930 . S
H795 C734 0.961 . S
H796 C734 0.960 . S
H797 C734 0.958 . S
H798 C735 0.961 . S
H799 C735 0.960 . S
H800 C735 0.960 . S
H801 C737 0.980 . S
H802 C736 0.961 . S
H803 C736 0.961 . S
H804 C736 0.959 . S
H805 C739 0.932 . S
H806 C743 0.929 . S
H807 C744 0.961 . S
H808 C744 0.959 . S
H809 C744 0.959 . S
H810 C745 0.960 . S
H811 C745 0.962 . S
H812 C745 0.961 . S
H813 C747 0.929 . S
H814 C750 0.930 . S
H815 C751 0.929 . S
H816 C754 0.930 . S
H817 C757 0.929 . S
H818 C758 0.930 . S
H819 C762 0.962 . S
H820 C762 0.959 . S
H821 C762 0.958 . S
H822 C828 0.930 . S
H823 C832 0.930 . S
H824 C837 0.929 . S
H825 C835 0.929 . S
H826 C830 0.929 . S
H827 C836 0.929 . S
C828 H822 0.930 . S
C828 C829 1.367 . S
C828 C836 1.378 . S
C829 C828 1.367 . S
C829 C837 1.433 . S
C830 H826 0.929 . S
C830 C832 1.378 . S
C830 C834 1.350 . S
C831 C834 1.463 . S
C831 C836 1.350 . S
C831 N839 1.427 . S
C832 H823 0.930 . S
C832 C830 1.378 . S
C832 C833 1.367 . S
C833 C832 1.367 . S
C833 C835 1.433 . S
C834 C830 1.350 . S
C834 C831 1.463 . S
C834 N838 1.427 . S
C835 H825 0.929 . S
C835 C833 1.433 . S
C835 N838 1.384 . S
C836 H827 0.929 . S
C836 C828 1.378 . S
C836 C831 1.350 . S
C837 H824 0.929 . S
C837 C829 1.433 . S
C837 N839 1.384 . S
N838 C834 1.427 . S
N838 C835 1.384 . S
N839 C831 1.427 . S
N839 C837 1.384 . S
H840 C846 0.930 . S
H841 C850 0.930 . S
H842 C855 0.929 . S
H843 C853 0.929 . S
H844 C848 0.929 . S
H845 C854 0.929 . S
C846 H840 0.930 . S
C846 C847 1.367 . S
C846 C854 1.378 . S
C847 C846 1.367 . S
C847 C855 1.433 . S
C848 H844 0.929 . S
C848 C850 1.378 . S
C848 C852 1.350 . S
C849 C852 1.463 . S
C849 C854 1.350 . S
C849 N857 1.427 . S
C850 H841 0.930 . S
C850 C848 1.378 . S
C850 C851 1.367 . S
C851 C850 1.367 . S
C851 C853 1.433 . S
C852 C848 1.350 . S
C852 C849 1.463 . S
C852 N856 1.427 . S
C853 H843 0.929 . S
C853 C851 1.433 . S
C853 N856 1.384 . S
C854 H845 0.929 . S
C854 C846 1.378 . S
C854 C849 1.350 . S
C855 H842 0.929 . S
C855 C847 1.433 . S
C855 N857 1.384 . S
N856 C852 1.427 . S
N856 C853 1.384 . S
N857 C849 1.427 . S
N857 C855 1.384 . S
H858 C864 0.930 . S
H859 C868 0.930 . S
H860 C873 0.929 . S
H861 C871 0.929 . S
H862 C866 0.929 . S
H863 C872 0.929 . S
C864 H858 0.930 . S
C864 C865 1.367 . S
C864 C872 1.378 . S
C865 C864 1.367 . S
C865 C873 1.433 . S
C866 H862 0.929 . S
C866 C868 1.378 . S
C866 C870 1.350 . S
C867 C870 1.463 . S
C867 C872 1.350 . S
C867 N875 1.427 . S
C868 H859 0.930 . S
C868 C866 1.378 . S
C868 C869 1.367 . S
C869 C868 1.367 . S
C869 C871 1.433 . S
C870 C866 1.350 . S
C870 C867 1.463 . S
C870 N874 1.427 . S
C871 H861 0.929 . S
C871 C869 1.433 . S
C871 N874 1.384 . S
C872 H863 0.929 . S
C872 C864 1.378 . S
C872 C867 1.350 . S
C873 H860 0.929 . S
C873 C865 1.433 . S
C873 N875 1.384 . S
N874 C870 1.427 . S
N874 C871 1.384 . S
N875 C867 1.427 . S
N875 C873 1.384 . S
H876 C882 0.930 . S
H877 C886 0.930 . S
H878 C891 0.929 . S
H879 C889 0.929 . S
H880 C884 0.929 . S
H881 C890 0.929 . S
C882 H876 0.930 . S
C882 C883 1.367 . S
C882 C890 1.378 . S
C883 C882 1.367 . S
C883 C891 1.433 . S
C884 H880 0.929 . S
C884 C886 1.378 . S
C884 C888 1.350 . S
C885 C888 1.463 . S
C885 C890 1.350 . S
C885 N893 1.427 . S
C886 H877 0.930 . S
C886 C884 1.378 . S
C886 C887 1.367 . S
C887 C886 1.367 . S
C887 C889 1.433 . S
C888 C884 1.350 . S
C888 C885 1.463 . S
C888 N892 1.427 . S
C889 H879 0.929 . S
C889 C887 1.433 . S
C889 N892 1.384 . S
C890 H881 0.929 . S
C890 C882 1.378 . S
C890 C885 1.350 . S
C891 H878 0.929 . S
C891 C883 1.433 . S
C891 N893 1.384 . S
N892 C888 1.427 . S
N892 C889 1.384 . S
N893 C885 1.427 . S
N893 C891 1.384 . S
H894 C900 0.930 . S
H895 C904 0.930 . S
H896 C909 0.929 . S
H897 C907 0.929 . S
H898 C902 0.929 . S
H899 C908 0.929 . S
C900 H894 0.930 . S
C900 C901 1.367 . S
C900 C908 1.378 . S
C901 C900 1.367 . S
C901 C909 1.433 . S
C902 H898 0.929 . S
C902 C904 1.378 . S
C902 C906 1.350 . S
C903 C906 1.463 . S
C903 C908 1.350 . S
C903 N911 1.427 . S
C904 H895 0.930 . S
C904 C902 1.378 . S
C904 C905 1.367 . S
C905 C904 1.367 . S
C905 C907 1.433 . S
C906 C902 1.350 . S
C906 C903 1.463 . S
C906 N910 1.427 . S
C907 H897 0.929 . S
C907 C905 1.433 . S
C907 N910 1.384 . S
C908 H899 0.929 . S
C908 C900 1.378 . S
C908 C903 1.350 . S
C909 H896 0.929 . S
C909 C901 1.433 . S
C909 N911 1.384 . S
N910 C906 1.427 . S
N910 C907 1.384 . S
N911 C903 1.427 . S
N911 C909 1.384 . S
H912 C918 0.930 . S
H913 C922 0.930 . S
H914 C927 0.929 . S
H915 C925 0.929 . S
H916 C920 0.929 . S
H917 C926 0.929 . S
C918 H912 0.930 . S
C918 C919 1.367 . S
C918 C926 1.378 . S
C919 C918 1.367 . S
C919 C927 1.433 . S
C920 H916 0.929 . S
C920 C922 1.378 . S
C920 C924 1.350 . S
C921 C924 1.463 . S
C921 C926 1.350 . S
C921 N929 1.427 . S
C922 H913 0.930 . S
C922 C920 1.378 . S
C922 C923 1.367 . S
C923 C922 1.367 . S
C923 C925 1.433 . S
C924 C920 1.350 . S
C924 C921 1.463 . S
C924 N928 1.427 . S
C925 H915 0.929 . S
C925 C923 1.433 . S
C925 N928 1.384 . S
C926 H917 0.929 . S
C926 C918 1.378 . S
C926 C921 1.350 . S
C927 H914 0.929 . S
C927 C919 1.433 . S
C927 N929 1.384 . S
N928 C924 1.427 . S
N928 C925 1.384 . S
N929 C921 1.427 . S
N929 C927 1.384 . S
H930 C936 0.930 . S
H931 C940 0.930 . S
H932 C945 0.929 . S
H933 C943 0.929 . S
H934 C938 0.929 . S
H935 C944 0.929 . S
C936 H930 0.930 . S
C936 C937 1.367 . S
C936 C944 1.378 . S
C937 C936 1.367 . S
C937 C945 1.433 . S
C938 H934 0.929 . S
C938 C940 1.378 . S
C938 C942 1.350 . S
C939 C942 1.463 . S
C939 C944 1.350 . S
C939 N947 1.427 . S
C940 H931 0.930 . S
C940 C938 1.378 . S
C940 C941 1.367 . S
C941 C940 1.367 . S
C941 C943 1.433 . S
C942 C938 1.350 . S
C942 C939 1.463 . S
C942 N946 1.427 . S
C943 H933 0.929 . S
C943 C941 1.433 . S
C943 N946 1.384 . S
C944 H935 0.929 . S
C944 C936 1.378 . S
C944 C939 1.350 . S
C945 H932 0.929 . S
C945 C937 1.433 . S
C945 N947 1.384 . S
N946 C942 1.427 . S
N946 C943 1.384 . S
N947 C939 1.427 . S
N947 C945 1.384 . S
H948 C954 0.930 . S
H949 C958 0.930 . S
H950 C963 0.929 1_554 S
H951 C961 0.929 . S
H952 C956 0.929 . S
H953 C962 0.929 . S
C954 H948 0.930 . S
C954 C955 1.367 . S
C954 C962 1.378 . S
C955 C954 1.367 . S
C955 C963 1.433 . S
C956 H952 0.929 . S
C956 C958 1.378 . S
C956 C960 1.350 . S
C957 C960 1.463 . S
C957 C962 1.350 . S
C957 N965 1.427 . S
C958 H949 0.930 . S
C958 C956 1.378 . S
C958 C959 1.367 . S
C959 C958 1.367 . S
C959 C961 1.433 . S
C960 C956 1.350 . S
C960 C957 1.463 . S
C960 N964 1.427 . S
C961 H951 0.929 . S
C961 C959 1.433 . S
C961 N964 1.384 . S
C962 H953 0.929 . S
C962 C954 1.378 . S
C962 C957 1.350 . S
C963 H950 0.929 1_556 S
C963 C955 1.433 . S
C963 N965 1.384 . S
N964 C960 1.427 . S
N964 C961 1.384 . S
N965 C957 1.427 . S
N965 C963 1.384 . S
H966 C972 0.930 . S
H967 C976 0.930 . S
H968 C981 0.929 . S
H969 C979 0.929 . S
H970 C974 0.929 . S
H971 C980 0.929 . S
C972 H966 0.930 . S
C972 C973 1.367 . S
C972 C980 1.378 . S
C973 C972 1.367 . S
C973 C981 1.433 . S
C974 H970 0.929 . S
C974 C976 1.378 . S
C974 C978 1.350 . S
C975 C978 1.463 . S
C975 C980 1.350 . S
C975 N983 1.427 . S
C976 H967 0.930 . S
C976 C974 1.378 . S
C976 C977 1.367 . S
C977 C976 1.367 . S
C977 C979 1.433 . S
C978 C974 1.350 . S
C978 C975 1.463 . S
C978 N982 1.427 . S
C979 H969 0.929 . S
C979 C977 1.433 . S
C979 N982 1.384 . S
C980 H971 0.929 . S
C980 C972 1.378 . S
C980 C975 1.350 . S
C981 H968 0.929 . S
C981 C973 1.433 . S
C981 N983 1.384 . S
N982 C978 1.427 . S
N982 C979 1.384 . S
N983 C975 1.427 . S
N983 C981 1.384 . S
H984 C990 0.930 . S
H985 C994 0.930 . S
H986 C999 0.929 . S
H987 C997 0.929 . S
H988 C992 0.929 . S
H989 C998 0.929 . S
C990 H984 0.930 . S
C990 C991 1.367 . S
C990 C998 1.378 . S
C991 C990 1.367 . S
C991 C999 1.433 . S
C992 H988 0.929 . S
C992 C994 1.378 . S
C992 C996 1.350 . S
C993 C996 1.463 . S
C993 C998 1.350 . S
C993 N1001 1.427 . S
C994 H985 0.930 . S
C994 C992 1.378 . S
C994 C995 1.367 . S
C995 C994 1.367 . S
C995 C997 1.433 . S
C996 C992 1.350 . S
C996 C993 1.463 . S
C996 N1000 1.427 . S
C997 H987 0.929 . S
C997 C995 1.433 . S
C997 N1000 1.384 . S
C998 H989 0.929 . S
C998 C990 1.378 . S
C998 C993 1.350 . S
C999 H986 0.929 . S
C999 C991 1.433 . S
C999 N1001 1.384 . S
N1000 C996 1.427 . S
N1000 C997 1.384 . S
N1001 C993 1.427 . S
N1001 C999 1.384 . S
H1002 C1008 0.930 . S
H1003 C1012 0.930 . S
H1004 C1017 0.929 . S
H1005 C1015 0.929 . S
H1006 C1010 0.929 . S
H1007 C1016 0.929 . S
C1008 H1002 0.930 . S
C1008 C1009 1.367 . S
C1008 C1016 1.378 . S
C1009 C1008 1.367 . S
C1009 C1017 1.433 . S
C1010 H1006 0.929 . S
C1010 C1012 1.378 . S
C1010 C1014 1.350 . S
C1011 C1014 1.463 . S
C1011 C1016 1.350 . S
C1011 N1019 1.427 . S
C1012 H1003 0.930 . S
C1012 C1010 1.378 . S
C1012 C1013 1.367 . S
C1013 C1012 1.367 . S
C1013 C1015 1.433 . S
C1014 C1010 1.350 . S
C1014 C1011 1.463 . S
C1014 N1018 1.427 . S
C1015 H1005 0.929 . S
C1015 C1013 1.433 . S
C1015 N1018 1.384 . S
C1016 H1007 0.929 . S
C1016 C1008 1.378 . S
C1016 C1011 1.350 . S
C1017 H1004 0.929 . S
C1017 C1009 1.433 . S
C1017 N1019 1.384 . S
N1018 C1014 1.427 . S
N1018 C1015 1.384 . S
N1019 C1011 1.427 . S
N1019 C1017 1.384 . S
H1020 C1026 0.930 1_455 S
H1021 C1030 0.930 . S
H1022 C1035 0.929 . S
H1023 C1033 0.929 . S
H1024 C1028 0.929 . S
H1025 C1034 0.929 . S
C1026 H1020 0.930 1_655 S
C1026 C1027 1.367 . S
C1026 C1034 1.378 . S
C1027 C1026 1.367 . S
C1027 C1035 1.433 . S
C1028 H1024 0.929 . S
C1028 C1030 1.378 . S
C1028 C1032 1.350 . S
C1029 C1032 1.463 . S
C1029 C1034 1.350 . S
C1029 N1037 1.427 . S
C1030 H1021 0.930 . S
C1030 C1028 1.378 . S
C1030 C1031 1.367 . S
C1031 C1030 1.367 . S
C1031 C1033 1.433 . S
C1032 C1028 1.350 . S
C1032 C1029 1.463 . S
C1032 N1036 1.427 . S
C1033 H1023 0.929 . S
C1033 C1031 1.433 . S
C1033 N1036 1.384 . S
C1034 H1025 0.929 . S
C1034 C1026 1.378 . S
C1034 C1029 1.350 . S
C1035 H1022 0.929 . S
C1035 C1027 1.433 . S
C1035 N1037 1.384 . S
N1036 C1032 1.427 . S
N1036 C1033 1.384 . S
N1037 C1029 1.427 . S
N1037 C1035 1.384 . S
H1038 C1044 0.930 . S
H1039 C1048 0.930 . S
H1040 C1053 0.929 . S
H1041 C1051 0.929 . S
H1042 C1046 0.929 . S
H1043 C1052 0.929 1_455 S
C1044 H1038 0.930 . S
C1044 C1045 1.367 1_455 S
C1044 C1052 1.358 1_455 S
C1045 C1044 1.367 1_655 S
C1045 C1053 1.433 . S
C1046 H1042 0.929 . S
C1046 C1048 1.378 . S
C1046 C1050 1.350 . S
C1047 C1050 1.463 . S
C1047 C1052 1.369 . S
C1047 N1055 1.427 . S
C1048 H1039 0.930 . S
C1048 C1046 1.378 . S
C1048 C1049 1.367 . S
C1049 C1048 1.367 . S
C1049 C1051 1.433 . S
C1050 C1046 1.350 . S
C1050 C1047 1.463 . S
C1050 N1054 1.427 . S
C1051 H1041 0.929 . S
C1051 C1049 1.433 . S
C1051 N1054 1.384 . S
C1052 H1043 0.929 1_655 S
C1052 C1044 1.358 1_655 S
C1052 C1047 1.369 . S
C1053 H1040 0.929 . S
C1053 C1045 1.433 . S
C1053 N1055 1.384 . S
N1054 C1050 1.427 . S
N1054 C1051 1.384 . S
N1055 C1047 1.427 . S
N1055 C1053 1.384 . S
H1056 C1062 0.930 . S
H1057 C1066 0.930 . S
H1058 C1071 0.929 . S
H1059 C1069 0.929 . S
H1060 C1064 0.929 . S
H1061 C1070 0.929 . S
C1062 H1056 0.930 . S
C1062 C1063 1.367 . S
C1062 C1070 1.378 . S
C1063 C1062 1.367 . S
C1063 C1071 1.433 . S
C1064 H1060 0.929 . S
C1064 C1066 1.378 . S
C1064 C1068 1.350 . S
C1065 C1068 1.463 . S
C1065 C1070 1.350 . S
C1065 N1073 1.427 . S
C1066 H1057 0.930 . S
C1066 C1064 1.378 . S
C1066 C1067 1.367 . S
C1067 C1066 1.367 . S
C1067 C1069 1.433 . S
C1068 C1064 1.350 . S
C1068 C1065 1.463 . S
C1068 N1072 1.427 . S
C1069 H1059 0.929 . S
C1069 C1067 1.433 . S
C1069 N1072 1.384 . S
C1070 H1061 0.929 . S
C1070 C1062 1.378 . S
C1070 C1065 1.350 . S
C1071 H1058 0.929 . S
C1071 C1063 1.433 . S
C1071 N1073 1.384 . S
N1072 C1068 1.427 . S
N1072 C1069 1.384 . S
N1073 C1065 1.427 . S
N1073 C1071 1.384 . S
H1074 C1080 0.930 . S
H1075 C1084 0.930 . S
H1076 C1089 0.929 . S
H1077 C1087 0.929 . S
H1078 C1082 0.929 . S
H1079 C1088 0.929 . S
C1080 H1074 0.930 . S
C1080 C1081 1.367 . S
C1080 C1088 1.378 . S
C1081 C1080 1.367 . S
C1081 C1089 1.433 . S
C1082 H1078 0.929 . S
C1082 C1084 1.378 . S
C1082 C1086 1.350 . S
C1083 C1086 1.463 . S
C1083 C1088 1.350 . S
C1083 N1091 1.427 . S
C1084 H1075 0.930 . S
C1084 C1082 1.378 . S
C1084 C1085 1.367 . S
C1085 C1084 1.367 . S
C1085 C1087 1.433 . S
C1086 C1082 1.350 . S
C1086 C1083 1.463 . S
C1086 N1090 1.427 . S
C1087 H1077 0.929 . S
C1087 C1085 1.433 . S
C1087 N1090 1.384 . S
C1088 H1079 0.929 . S
C1088 C1080 1.378 . S
C1088 C1083 1.350 . S
C1089 H1076 0.929 . S
C1089 C1081 1.433 . S
C1089 N1091 1.384 . S
N1090 C1086 1.427 . S
N1090 C1087 1.384 . S
N1091 C1083 1.427 . S
N1091 C1089 1.384 . S
H1092 C1098 0.930 . S
H1093 C1102 0.930 . S
H1094 C1107 0.929 . S
H1095 C1105 0.929 . S
H1096 C1100 0.929 . S
H1097 C1106 0.929 . S
C1098 H1092 0.930 . S
C1098 C1099 1.367 . S
C1098 C1106 1.378 . S
C1099 C1098 1.367 . S
C1099 C1107 1.433 . S
C1100 H1096 0.929 . S
C1100 C1102 1.378 . S
C1100 C1104 1.350 . S
C1101 C1104 1.463 . S
C1101 C1106 1.350 . S
C1101 N1109 1.427 . S
C1102 H1093 0.930 . S
C1102 C1100 1.378 . S
C1102 C1103 1.367 . S
C1103 C1102 1.367 . S
C1103 C1105 1.433 . S
C1104 C1100 1.350 . S
C1104 C1101 1.463 . S
C1104 N1108 1.427 . S
C1105 H1095 0.929 . S
C1105 C1103 1.433 . S
C1105 N1108 1.384 . S
C1106 H1097 0.929 . S
C1106 C1098 1.378 . S
C1106 C1101 1.350 . S
C1107 H1094 0.929 . S
C1107 C1099 1.433 . S
C1107 N1109 1.384 . S
N1108 C1104 1.427 . S
N1108 C1105 1.384 . S
N1109 C1101 1.427 . S
N1109 C1107 1.384 . S
H1110 C1116 0.930 . S
H1111 C1120 0.930 . S
H1112 C1125 0.929 . S
H1113 C1123 0.929 . S
H1114 C1118 0.929 . S
H1115 C1124 0.929 . S
C1116 H1110 0.930 . S
C1116 C1117 1.367 . S
C1116 C1124 1.378 . S
C1117 C1116 1.367 . S
C1117 C1125 1.433 . S
C1118 H1114 0.929 . S
C1118 C1120 1.378 . S
C1118 C1122 1.350 . S
C1119 C1122 1.463 . S
C1119 C1124 1.350 . S
C1119 N1127 1.427 . S
C1120 H1111 0.930 . S
C1120 C1118 1.378 . S
C1120 C1121 1.367 . S
C1121 C1120 1.367 . S
C1121 C1123 1.433 . S
C1122 C1118 1.350 . S
C1122 C1119 1.463 . S
C1122 N1126 1.427 . S
C1123 H1113 0.929 . S
C1123 C1121 1.433 . S
C1123 N1126 1.384 . S
C1124 H1115 0.929 . S
C1124 C1116 1.378 . S
C1124 C1119 1.350 . S
C1125 H1112 0.929 . S
C1125 C1117 1.433 . S
C1125 N1127 1.384 . S
N1126 C1122 1.427 . S
N1126 C1123 1.384 . S
N1127 C1119 1.427 . S
N1127 C1125 1.384 . S
H1128 C1134 0.930 . S
H1129 C1138 0.930 . S
H1130 C1143 0.929 . S
H1131 C1141 0.929 . S
H1132 C1136 0.929 . S
H1133 C1142 0.929 . S
C1134 H1128 0.930 . S
C1134 C1135 1.367 . S
C1134 C1142 1.378 . S
C1135 C1134 1.367 . S
C1135 C1143 1.433 . S
C1136 H1132 0.929 . S
C1136 C1138 1.378 . S
C1136 C1140 1.350 . S
C1137 C1140 1.463 . S
C1137 C1142 1.350 . S
C1137 N1145 1.427 . S
C1138 H1129 0.930 . S
C1138 C1136 1.378 . S
C1138 C1139 1.367 . S
C1139 C1138 1.367 . S
C1139 C1141 1.433 . S
C1140 C1136 1.350 . S
C1140 C1137 1.463 . S
C1140 N1144 1.427 . S
C1141 H1131 0.929 . S
C1141 C1139 1.433 . S
C1141 N1144 1.384 . S
C1142 H1133 0.929 . S
C1142 C1134 1.378 . S
C1142 C1137 1.350 . S
C1143 H1130 0.929 . S
C1143 C1135 1.433 . S
C1143 N1145 1.384 . S
N1144 C1140 1.427 . S
N1144 C1141 1.384 . S
N1145 C1137 1.427 . S
N1145 C1143 1.384 . S
H1146 C1152 0.930 . S
H1147 C1156 0.930 . S
H1148 C1161 0.929 . S
H1149 C1159 0.929 . S
H1150 C1154 0.929 . S
H1151 C1160 0.929 . S
C1152 H1146 0.930 . S
C1152 C1153 1.367 . S
C1152 C1160 1.378 . S
C1153 C1152 1.367 . S
C1153 C1161 1.433 . S
C1154 H1150 0.929 . S
C1154 C1156 1.378 . S
C1154 C1158 1.350 . S
C1155 C1158 1.463 . S
C1155 C1160 1.350 . S
C1155 N1163 1.427 . S
C1156 H1147 0.930 . S
C1156 C1154 1.378 . S
C1156 C1157 1.367 . S
C1157 C1156 1.367 . S
C1157 C1159 1.433 . S
C1158 C1154 1.350 . S
C1158 C1155 1.463 . S
C1158 N1162 1.427 . S
C1159 H1149 0.929 . S
C1159 C1157 1.433 . S
C1159 N1162 1.384 . S
C1160 H1151 0.929 . S
C1160 C1152 1.378 . S
C1160 C1155 1.350 . S
C1161 H1148 0.929 . S
C1161 C1153 1.433 . S
C1161 N1163 1.384 . S
N1162 C1158 1.427 . S
N1162 C1159 1.384 . S
N1163 C1155 1.427 . S
N1163 C1161 1.384 . S
H1164 C1170 0.930 . S
H1165 C1174 0.930 . S
H1166 C1179 0.929 . S
H1167 C1177 0.929 . S
H1168 C1172 0.929 . S
H1169 C1178 0.929 . S
C1170 H1164 0.930 . S
C1170 C1171 1.367 . S
C1170 C1178 1.378 . S
C1171 C1170 1.367 . S
C1171 C1179 1.433 . S
C1172 H1168 0.929 . S
C1172 C1174 1.378 . S
C1172 C1176 1.350 . S
C1173 C1176 1.463 . S
C1173 C1178 1.350 . S
C1173 N1181 1.427 . S
C1174 H1165 0.930 . S
C1174 C1172 1.378 . S
C1174 C1175 1.367 . S
C1175 C1174 1.367 . S
C1175 C1177 1.433 . S
C1176 C1172 1.350 . S
C1176 C1173 1.463 . S
C1176 N1180 1.427 . S
C1177 H1167 0.929 . S
C1177 C1175 1.433 . S
C1177 N1180 1.384 . S
C1178 H1169 0.929 . S
C1178 C1170 1.378 . S
C1178 C1173 1.350 . S
C1179 H1166 0.929 . S
C1179 C1171 1.433 . S
C1179 N1181 1.384 . S
N1180 C1176 1.427 . S
N1180 C1177 1.384 . S
N1181 C1173 1.427 . S
N1181 C1179 1.384 . S
H1182 C1188 0.930 . S
H1183 C1192 0.930 . S
H1184 C1197 0.929 . S
H1185 C1195 0.929 . S
H1186 C1190 0.929 . S
H1187 C1196 0.929 . S
C1188 H1182 0.930 . S
C1188 C1189 1.367 . S
C1188 C1196 1.378 . S
C1189 C1188 1.367 . S
C1189 C1197 1.433 . S
C1190 H1186 0.929 . S
C1190 C1192 1.378 . S
C1190 C1194 1.350 . S
C1191 C1194 1.463 . S
C1191 C1196 1.350 . S
C1191 N1199 1.427 . S
C1192 H1183 0.930 . S
C1192 C1190 1.378 . S
C1192 C1193 1.367 . S
C1193 C1192 1.367 . S
C1193 C1195 1.433 . S
C1194 C1190 1.350 . S
C1194 C1191 1.463 . S
C1194 N1198 1.427 . S
C1195 H1185 0.929 . S
C1195 C1193 1.433 . S
C1195 N1198 1.384 . S
C1196 H1187 0.929 . S
C1196 C1188 1.378 . S
C1196 C1191 1.350 . S
C1197 H1184 0.929 . S
C1197 C1189 1.433 . S
C1197 N1199 1.384 . S
N1198 C1194 1.427 . S
N1198 C1195 1.384 . S
N1199 C1191 1.427 . S
N1199 C1197 1.384 . S
H1200 C1206 0.930 . S
H1201 C1210 0.930 . S
H1202 C1215 0.927 . S
H1203 C1213 0.929 . S
H1204 C1208 0.929 . S
H1205 C1214 0.929 . S
C1206 H1200 0.930 . S
C1206 C1207 1.367 . S
C1206 C1214 1.378 . S
C1207 C1206 1.367 . S
C1207 C1215 1.433 . S
C1208 H1204 0.929 . S
C1208 C1210 1.378 . S
C1208 C1212 1.350 . S
C1209 C1212 1.463 . S
C1209 C1214 1.350 . S
C1209 N1217 1.427 . S
C1210 H1201 0.930 . S
C1210 C1208 1.378 . S
C1210 C1211 1.367 . S
C1211 C1210 1.367 . S
C1211 C1213 1.433 . S
C1212 C1208 1.350 . S
C1212 C1209 1.463 . S
C1212 N1216 1.427 . S
C1213 H1203 0.929 . S
C1213 C1211 1.433 . S
C1213 N1216 1.384 . S
C1214 H1205 0.929 . S
C1214 C1206 1.378 . S
C1214 C1209 1.350 . S
C1215 H1202 0.927 . S
C1215 C1207 1.433 . S
C1215 N1217 1.384 . S
N1216 C1212 1.427 . S
N1216 C1213 1.384 . S
N1217 C1209 1.427 . S
N1217 C1215 1.384 . S
H1218 C1224 0.930 . S
H1219 C1228 0.930 . S
H1220 C1233 0.929 . S
H1221 C1231 0.929 . S
H1222 C1226 0.929 . S
H1223 C1232 0.929 . S
C1224 H1218 0.930 . S
C1224 C1225 1.367 . S
C1224 C1232 1.378 . S
C1225 C1224 1.367 . S
C1225 C1233 1.433 . S
C1226 H1222 0.929 . S
C1226 C1228 1.378 . S
C1226 C1230 1.350 . S
C1227 C1230 1.463 . S
C1227 C1232 1.350 . S
C1227 N1235 1.427 . S
C1228 H1219 0.930 . S
C1228 C1226 1.378 . S
C1228 C1229 1.367 . S
C1229 C1228 1.367 . S
C1229 C1231 1.433 . S
C1230 C1226 1.350 . S
C1230 C1227 1.463 . S
C1230 N1234 1.427 . S
C1231 H1221 0.929 . S
C1231 C1229 1.433 . S
C1231 N1234 1.384 . S
C1232 H1223 0.929 . S
C1232 C1224 1.378 . S
C1232 C1227 1.350 . S
C1233 H1220 0.929 . S
C1233 C1225 1.433 . S
C1233 N1235 1.384 . S
N1234 C1230 1.427 . S
N1234 C1231 1.384 . S
N1235 C1227 1.427 . S
N1235 C1233 1.384 . S
H1236 C1242 0.930 . S
H1237 C1246 0.930 . S
H1238 C1251 0.929 . S
H1239 C1249 0.929 . S
H1240 C1244 0.929 . S
H1241 C1250 0.929 . S
C1242 H1236 0.930 . S
C1242 C1243 1.367 . S
C1242 C1250 1.378 . S
C1243 C1242 1.367 . S
C1243 C1251 1.433 . S
C1244 H1240 0.929 . S
C1244 C1246 1.378 . S
C1244 C1248 1.350 . S
C1245 C1248 1.463 . S
C1245 C1250 1.350 . S
C1245 N1253 1.427 . S
C1246 H1237 0.930 . S
C1246 C1244 1.378 . S
C1246 C1247 1.367 . S
C1247 C1246 1.367 . S
C1247 C1249 1.433 . S
C1248 C1244 1.350 . S
C1248 C1245 1.463 . S
C1248 N1252 1.427 . S
C1249 H1239 0.929 . S
C1249 C1247 1.433 . S
C1249 N1252 1.384 . S
C1250 H1241 0.929 . S
C1250 C1242 1.378 . S
C1250 C1245 1.350 . S
C1251 H1238 0.929 . S
C1251 C1243 1.433 . S
C1251 N1253 1.384 . S
N1252 C1248 1.427 . S
N1252 C1249 1.384 . S
N1253 C1245 1.427 . S
N1253 C1251 1.384 . S
C829 C7 2.020 . S
C833 C167 1.858 . S
C847 C30 1.830 . S
C851 C307 1.616 . S
C869 C395 1.668 . S
C865 N58 1.780 . S
C887 C535 1.472 . S
C883 N81 1.616 . S
C905 C649 1.717 . S
C901 C99 1.943 . S
C923 C719 0.861 . S
C919 N127 1.635 . S
C937 N25 1.857 . S
C941 C377 1.002 . S
C955 C62 1.676 . S
C959 C481 1.147 . S
C977 C595 1.360 . S
C973 C85 1.870 . S
C995 C737 1.503 . S
C991 N94 1.601 . S
C1009 C131 2.098 . S
C1013 C149 1.090 . S
C1031 C253 1.049 . S
C1027 N2 1.454 . S
C1049 C491 1.606 . S
C1045 C16 2.040 1_655 S
C1063 C39 1.843 . S
C1067 C605 1.439 . S
C1085 C763 1.270 . S
C1081 N48 1.992 . S
C1099 N71 1.572 . S
C1103 C139 1.417 . S
C1117 C108 2.157 . S
C1121 C263 1.654 . S
C1135 N117 1.595 . S
C1139 C367 1.495 . S
C1153 N35 1.857 . S
C1157 C709 1.699 . S
C1175 C193 1.179 . S
C1171 C53 1.898 . S
C1189 C76 2.042 . S
C1193 C281 1.418 . S
C1207 N104 1.737 . S
C1211 C421 1.040 . S
C1225 C122 1.922 . S
C1229 C509 1.394 . S
C1243 N12 1.618 . S
C1247 C623 1.173 . S
