# Generated by pormake.
# Topology zzz, (3,6)-cn, num edge types: 1
# Building blocks:
#     Node 0, Type 0, BuildingBlock: BELTOD_clean_linker_0, # of connection points: 3
#     Node 1, Type 0, BuildingBlock: BELTOD_clean_linker_0, # of connection points: 3
#     Node 2, Type 0, BuildingBlock: BELTOD_clean_linker_0, # of connection points: 3
#     Node 3, Type 0, BuildingBlock: BELTOD_clean_linker_0, # of connection points: 3
#     Node 4, Type 0, BuildingBlock: BELTOD_clean_linker_0, # of connection points: 3
#     Node 5, Type 0, BuildingBlock: BELTOD_clean_linker_0, # of connection points: 3
#     Node 6, Type 0, BuildingBlock: BELTOD_clean_linker_0, # of connection points: 3
#     Node 7, Type 0, BuildingBlock: BELTOD_clean_linker_0, # of connection points: 3
#     Node 8, Type 1, BuildingBlock: GEDQOX_clean_sbu_0, # of connection points: 6
#     Node 9, Type 1, BuildingBlock: GEDQOX_clean_sbu_0, # of connection points: 6
#     Node 10, Type 1, BuildingBlock: GEDQOX_clean_sbu_0, # of connection points: 6
#     Node 11, Type 1, BuildingBlock: GEDQOX_clean_sbu_0, # of connection points: 6
#     Edge 12, Type (0, 1), BuildingBlock: OJICUG_clean_linker_0, # of connection points: 2
#     Edge 13, Type (0, 1), BuildingBlock: OJICUG_clean_linker_0, # of connection points: 2
#     Edge 14, Type (0, 1), BuildingBlock: OJICUG_clean_linker_0, # of connection points: 2
#     Edge 15, Type (0, 1), BuildingBlock: OJICUG_clean_linker_0, # of connection points: 2
#     Edge 16, Type (0, 1), BuildingBlock: OJICUG_clean_linker_0, # of connection points: 2
#     Edge 17, Type (0, 1), BuildingBlock: OJICUG_clean_linker_0, # of connection points: 2
#     Edge 18, Type (0, 1), BuildingBlock: OJICUG_clean_linker_0, # of connection points: 2
#     Edge 19, Type (0, 1), BuildingBlock: OJICUG_clean_linker_0, # of connection points: 2
#     Edge 20, Type (0, 1), BuildingBlock: OJICUG_clean_linker_0, # of connection points: 2
#     Edge 21, Type (0, 1), BuildingBlock: OJICUG_clean_linker_0, # of connection points: 2
#     Edge 22, Type (0, 1), BuildingBlock: OJICUG_clean_linker_0, # of connection points: 2
#     Edge 23, Type (0, 1), BuildingBlock: OJICUG_clean_linker_0, # of connection points: 2
#     Edge 24, Type (0, 1), BuildingBlock: OJICUG_clean_linker_0, # of connection points: 2
#     Edge 25, Type (0, 1), BuildingBlock: OJICUG_clean_linker_0, # of connection points: 2
#     Edge 26, Type (0, 1), BuildingBlock: OJICUG_clean_linker_0, # of connection points: 2
#     Edge 27, Type (0, 1), BuildingBlock: OJICUG_clean_linker_0, # of connection points: 2
#     Edge 28, Type (0, 1), BuildingBlock: OJICUG_clean_linker_0, # of connection points: 2
#     Edge 29, Type (0, 1), BuildingBlock: OJICUG_clean_linker_0, # of connection points: 2
#     Edge 30, Type (0, 1), BuildingBlock: OJICUG_clean_linker_0, # of connection points: 2
#     Edge 31, Type (0, 1), BuildingBlock: OJICUG_clean_linker_0, # of connection points: 2
#     Edge 32, Type (0, 1), BuildingBlock: OJICUG_clean_linker_0, # of connection points: 2
#     Edge 33, Type (0, 1), BuildingBlock: OJICUG_clean_linker_0, # of connection points: 2
#     Edge 34, Type (0, 1), BuildingBlock: OJICUG_clean_linker_0, # of connection points: 2
#     Edge 35, Type (0, 1), BuildingBlock: OJICUG_clean_linker_0, # of connection points: 2
# Relax obj value: 0.295
# Max RMSD: 0.326
# Mean RMSD: 0.183
data_MOF--net-zzz--node1-GEDQOX_clean_sbu_0--node2-BELTOD_clean_linker_0--edge1-OJICUG_clean_linker_0
_symmetry_space_group_name_H-M    P1
_symmetry_Int_Tables_number       1
_symmetry_cell_setting            triclinic
loop_
_symmetry_equiv_pos_as_xyz
'x, y, z'
_cell_length_a     44.842172
_cell_length_b     42.552262
_cell_length_c     16.747627
_cell_angle_alpha  78.582018
_cell_angle_beta   90.490205
_cell_angle_gamma 105.40465
loop_
_atom_site_label
_atom_site_type_symbol
_atom_site_fract_x
_atom_site_fract_y
_atom_site_fract_z
_atom_type_partial_charge
P0 P 0.75288 0.48095 0.16016 0.0
H1 H 0.79227 0.45719 0.28201 0.0
H2 H 0.83224 0.48537 0.36349 0.0
H3 H 0.81104 0.5785 0.26786 0.0
H4 H 0.77133 0.55021 0.18497 0.0
H5 H 0.72667 0.49428 0.99977 0.0
H6 H 0.68174 0.51422 0.95574 0.0
H7 H 0.66816 0.53049 0.19792 0.0
H8 H 0.7128 0.50981 0.2419 0.0
H9 H 0.76868 0.42599 0.10376 0.0
H10 H 0.79337 0.53318 0.04022 0.0
O11 O 0.73508 0.44226 0.20828 0.0
H12 H 0.80988 0.42526 0.01013 0.0
H13 H 0.83523 0.53289 0.94893 0.0
C14 C 0.77821 0.50139 0.22933 0.0
C15 C 0.79576 0.48354 0.27978 0.0
C16 C 0.81879 0.49971 0.32565 0.0
C17 C 0.8247 0.5341 0.32192 0.0
C18 C 0.80669 0.55191 0.27249 0.0
C19 C 0.7839 0.53573 0.22555 0.0
C20 C 0.72345 0.5012 0.12376 0.0
C21 C 0.71451 0.50289 0.04292 0.0
C22 C 0.6888 0.51438 0.0177 0.0
C23 C 0.67134 0.52397 0.07328 0.0
C24 C 0.68095 0.52305 0.15375 0.0
C25 C 0.70662 0.51152 0.17883 0.0
C26 C 0.77807 0.47968 0.07875 0.0
C27 C 0.78258 0.44935 0.06839 0.0
C28 C 0.8063 0.44899 0.01523 0.0
C29 C 0.82611 0.479 0.97236 0.0
C30 C 0.82023 0.50924 0.97976 0.0
C31 C 0.7964 0.50952 0.03243 0.0
P32 P 0.04067 0.74272 0.2932 0.0
H33 H 0.0569 0.74378 0.46241 0.0
H34 H 0.03908 0.77108 0.55957 0.0
H35 H 0.9618 0.78143 0.41019 0.0
H36 H 0.97853 0.75162 0.31682 0.0
H37 H 0.03759 0.74206 0.11892 0.0
H38 H 0.0251 0.69811 0.04352 0.0
H39 H 0.00094 0.62533 0.26903 0.0
H40 H 0.01132 0.67056 0.34524 0.0
H41 H 0.09248 0.80351 0.26008 0.0
H42 H 0.99949 0.77027 0.18189 0.0
O43 O 0.07541 0.73838 0.32112 0.0
H44 H 0.09783 0.85862 0.17384 0.0
H45 H 0.00424 0.82512 0.09827 0.0
C46 C 0.01949 0.74622 0.38097 0.0
C47 C 0.03532 0.75049 0.45227 0.0
C48 C 0.02537 0.76682 0.50729 0.0
C49 C -0.00026 0.78 0.49119 0.0
C50 C 0.98182 0.77208 0.42473 0.0
C51 C 0.99145 0.75499 0.37072 0.0
C52 C 0.02434 0.70999 0.23825 0.0
C53 C 0.02819 0.71695 0.15287 0.0
C54 C 0.02176 0.69145 0.10928 0.0
C55 C 0.01261 0.65795 0.14981 0.0
C56 C 0.00774 0.65082 0.23544 0.0
C57 C 0.01362 0.67668 0.27925 0.0
C58 C 0.0458 0.78264 0.22615 0.0
C59 C 0.07333 0.80795 0.22391 0.0
C60 C 0.07627 0.83949 0.17517 0.0
C61 C 0.05157 0.84611 0.12857 0.0
C62 C 0.02396 0.82066 0.13188 0.0
C63 C 0.0211 0.78933 0.18037 0.0
P64 P 0.78819 0.07623 0.12713 0.0
H65 H 0.75559 0.10212 0.23554 0.0
H66 H 0.71357 0.07563 0.33866 0.0
H67 H 0.72071 0.97889 0.31337 0.0
H68 H 0.7626 0.00567 0.20815 0.0
H69 H 0.81718 0.07525 0.97326 0.0
H70 H 0.8623 0.05775 0.94121 0.0
H71 H 0.86684 0.01512 0.19629 0.0
H72 H 0.8222 0.034 0.22814 0.0
H73 H 0.77099 0.1336 0.02964 0.0
H74 H 0.74805 0.02735 0.04776 0.0
O75 O 0.80797 0.11397 0.13979 0.0
H76 H 0.72948 0.13715 0.93566 0.0
H77 H 0.70583 0.03032 0.95681 0.0
C78 C 0.76287 0.05592 0.21588 0.0
C79 C 0.74877 0.07523 0.25361 0.0
C80 C 0.72454 0.06008 0.31192 0.0
C81 C 0.71392 0.02525 0.33378 0.0
C82 C 0.72872 0.00581 0.29807 0.0
C83 C 0.75276 0.02107 0.23848 0.0
C84 C 0.81595 0.05539 0.10295 0.0
C85 C 0.82727 0.06124 0.02206 0.0
C86 C 0.85312 0.05107 0.00368 0.0
C87 C 0.86838 0.03509 0.06611 0.0
C88 C 0.8559 0.02771 0.14676 0.0
C89 C 0.83015 0.03816 0.16509 0.0
C90 C 0.76252 0.08019 0.04531 0.0
C91 C 0.7574 0.11111 0.01209 0.0
C92 C 0.73351 0.11307 0.9588 0.0
C93 C 0.7141 0.08402 0.93902 0.0
C94 C 0.72053 0.05331 0.96938 0.0
C95 C 0.74455 0.05148 0.02199 0.0
P96 P 0.46952 0.80293 0.45592 0.0
H97 H 0.45373 0.77026 0.62514 0.0
H98 H 0.47486 0.73114 0.71604 0.0
H99 H 0.55602 0.75719 0.55313 0.0
H100 H 0.53314 0.79472 0.45901 0.0
H101 H 0.46005 0.86918 0.43165 0.0
H102 H 0.47732 0.91806 0.32446 0.0
H103 H 0.54043 0.87269 0.22605 0.0
H104 H 0.52194 0.82278 0.33311 0.0
H105 H 0.44051 0.73179 0.50481 0.0
H106 H 0.4645 0.80368 0.27833 0.0
O107 O 0.43861 0.80835 0.50046 0.0
H108 H 0.42574 0.68711 0.42956 0.0
H109 H 0.45176 0.75903 0.203 0.0
C110 C 0.49174 0.78563 0.53487 0.0
C111 C 0.47655 0.76848 0.60991 0.0
C112 C 0.4889 0.74587 0.66254 0.0
C113 C 0.51716 0.74016 0.64217 0.0
C114 C 0.53378 0.75992 0.57029 0.0
C115 C 0.52095 0.78203 0.51662 0.0
C116 C 0.48954 0.84208 0.39074 0.0
C117 C 0.47813 0.86983 0.38845 0.0
C118 C 0.48823 0.89807 0.32676 0.0
C119 C 0.51023 0.89943 0.26578 0.0
C120 C 0.52319 0.87239 0.27128 0.0
C121 C 0.51303 0.84401 0.33351 0.0
C122 C 0.45523 0.77105 0.39775 0.0
C123 C 0.44299 0.73803 0.43894 0.0
C124 C 0.43461 0.71241 0.39572 0.0
C125 C 0.43836 0.7193 0.31021 0.0
C126 C 0.44866 0.7527 0.26882 0.0
C127 C 0.45662 0.77837 0.31222 0.0
P128 P 0.25076 0.47997 0.66073 0.0
H129 H 0.26336 0.50327 0.48237 0.0
H130 H 0.22936 0.49652 0.36723 0.0
H131 H 0.15469 0.4341 0.53516 0.0
H132 H 0.18844 0.44087 0.64864 0.0
H133 H 0.29561 0.44749 0.61787 0.0
H134 H 0.35216 0.46166 0.62159 0.0
H135 H 0.35336 0.55867 0.66453 0.0
H136 H 0.29687 0.54424 0.66279 0.0
H137 H 0.21945 0.47249 0.81806 0.0
H138 H 0.24509 0.54736 0.5976 0.0
O139 O 0.24439 0.44378 0.72731 0.0
H140 H 0.18737 0.50327 0.86477 0.0
H141 H 0.21443 0.58005 0.64644 0.0
C142 C 0.2285 0.47205 0.57367 0.0
C143 C 0.23984 0.48763 0.49386 0.0
C144 C 0.22041 0.48378 0.4283 0.0
C145 C 0.18929 0.46488 0.44224 0.0
C146 C 0.17839 0.44903 0.52238 0.0
C147 C 0.19777 0.45264 0.58728 0.0
C148 C 0.29199 0.49467 0.64051 0.0
C149 C 0.30808 0.47213 0.62597 0.0
C150 C 0.34031 0.48017 0.62832 0.0
C151 C 0.35696 0.51114 0.64388 0.0
C152 C 0.34101 0.53471 0.65195 0.0
C153 C 0.30866 0.52642 0.65095 0.0
C154 C 0.2346 0.50758 0.70425 0.0
C155 C 0.21909 0.49628 0.78089 0.0
C156 C 0.20085 0.51432 0.80805 0.0
C157 C 0.19793 0.54434 0.75937 0.0
C158 C 0.21554 0.55681 0.68507 0.0
C159 C 0.23339 0.53834 0.65732 0.0
P160 P 0.08024 0.32522 0.46741 0.0
H161 H 0.13501 0.33818 0.35947 0.0
H162 H 0.14186 0.31236 0.2461 0.0
H163 H 0.04256 0.27905 0.23148 0.0
H164 H 0.03594 0.30596 0.34375 0.0
H165 H 0.11372 0.39091 0.48956 0.0
H166 H 0.09802 0.43291 0.54583 0.0
H167 H 0.00208 0.37867 0.54177 0.0
H168 H 0.01814 0.33576 0.48709 0.0
H169 H 0.06877 0.2577 0.43733 0.0
H170 H 0.04168 0.30464 0.62036 0.0
O171 O 0.11471 0.32845 0.50846 0.0
H172 H 0.0417 0.20359 0.51543 0.0
H173 H 0.01435 0.24989 0.69962 0.0
C174 C 0.08492 0.32311 0.36172 0.0
C175 C 0.11468 0.32659 0.32979 0.0
C176 C 0.11858 0.31141 0.26535 0.0
C177 C 0.09276 0.29238 0.23197 0.0
C178 C 0.063 0.29319 0.25618 0.0
C179 C 0.05914 0.3088 0.32024 0.0
C180 C 0.06718 0.35991 0.48567 0.0
C181 C 0.08927 0.38824 0.49931 0.0
C182 C 0.08024 0.41239 0.53112 0.0
C183 C 0.04883 0.40911 0.54854 0.0
C184 C 0.02648 0.38164 0.53006 0.0
C185 C 0.03561 0.35734 0.49802 0.0
C186 C 0.05601 0.28566 0.52045 0.0
C187 C 0.05581 0.25665 0.4924 0.0
C188 C 0.04024 0.22546 0.5374 0.0
C189 C 0.0253 0.22244 0.61294 0.0
C190 C 0.0253 0.25149 0.641 0.0
C191 C 0.04075 0.28284 0.59539 0.0
P192 P 0.30812 0.13015 0.59454 0.0
H193 H 0.35431 0.18474 0.49374 0.0
H194 H 0.38538 0.18782 0.37268 0.0
H195 H 0.33074 0.08986 0.35172 0.0
H196 H 0.2995 0.08684 0.4732 0.0
H197 H 0.27099 0.12945 0.73337 0.0
H198 H 0.21578 0.11127 0.76807 0.0
H199 H 0.19866 0.08302 0.53417 0.0
H200 H 0.25431 0.10301 0.49823 0.0
H201 H 0.35423 0.13513 0.71884 0.0
H202 H 0.29642 0.0579 0.6099 0.0
O203 O 0.32079 0.16624 0.62526 0.0
H204 H 0.37934 0.09518 0.79496 0.0
H205 H 0.32252 0.01775 0.68438 0.0
C206 C 0.32414 0.13571 0.49253 0.0
C207 C 0.34824 0.16424 0.46204 0.0
C208 C 0.3663 0.1659 0.39306 0.0
C209 C 0.36071 0.13897 0.35311 0.0
C210 C 0.33545 0.11114 0.3808 0.0
C211 C 0.31747 0.10944 0.45033 0.0
C212 C 0.2668 0.11762 0.61329 0.0
C213 C 0.25535 0.11964 0.68909 0.0
C214 C 0.22372 0.10887 0.70925 0.0
C215 C 0.20268 0.09525 0.65442 0.0
C216 C 0.21419 0.09358 0.57768 0.0
C217 C 0.24607 0.10473 0.55723 0.0
C218 C 0.32363 0.09957 0.65821 0.0
C219 C 0.34659 0.10947 0.71209 0.0
C220 C 0.36082 0.08651 0.75603 0.0
C221 C 0.35266 0.05328 0.74599 0.0
C222 C 0.32911 0.04317 0.69335 0.0
C223 C 0.31441 0.06613 0.65049 0.0
P224 P 0.46313 0.26174 0.29536 0.0
H225 H 0.43287 0.26627 0.13943 0.0
H226 H 0.44571 0.31189 0.02108 0.0
H227 H 0.53752 0.34518 0.10772 0.0
H228 H 0.52498 0.29844 0.22328 0.0
H229 H 0.43891 0.21988 0.44836 0.0
H230 H 0.45451 0.17587 0.53833 0.0
H231 H 0.52216 0.17718 0.35397 0.0
H232 H 0.50715 0.22336 0.26499 0.0
H233 H 0.44988 0.32468 0.30001 0.0
H234 H 0.51489 0.27116 0.40499 0.0
O235 O 0.42475 0.25536 0.29933 0.0
H236 H 0.47703 0.3724 0.35806 0.0
H237 H 0.5419 0.31849 0.46284 0.0
C238 C 0.47764 0.27956 0.19165 0.0
C239 C 0.4563 0.28229 0.1308 0.0
C240 C 0.46356 0.30881 0.06356 0.0
C241 C 0.49216 0.33321 0.05683 0.0
C242 C 0.51512 0.32723 0.1111 0.0
C243 C 0.50797 0.30029 0.17755 0.0
C244 C 0.4714 0.22434 0.34947 0.0
C245 C 0.45667 0.21026 0.42643 0.0
C246 C 0.46564 0.18484 0.47798 0.0
C247 C 0.48947 0.17243 0.45361 0.0
C248 C 0.50389 0.18622 0.3752 0.0
C249 C 0.49509 0.21227 0.3237 0.0
C250 C 0.47974 0.29403 0.35017 0.0
C251 C 0.46952 0.32291 0.33707 0.0
C252 C 0.48528 0.35026 0.36925 0.0
C253 C 0.51158 0.34909 0.41485 0.0
C254 C 0.52146 0.3199 0.42888 0.0
C255 C 0.50585 0.29271 0.39617 0.0
Nd256 Nd 0.01153 0.01623 0.80338 0.0
Nd257 Nd 0.05474 0.05379 0.92874 0.0
C258 C 0.97326 0.9723 0.73216 0.0
C259 C 0.97606 0.94349 0.69825 0.0
C260 C 0.95392 0.91257 0.72039 0.0
C261 C 0.9569 0.88493 0.69047 0.0
C262 C 0.98213 0.88764 0.63759 0.0
C263 C 0.00404 0.91883 0.61493 0.0
C264 C 0.00116 0.9463 0.64518 0.0
C265 C 0.07243 0.04576 0.75305 0.0
C266 C 0.04665 0.97477 0.94896 0.0
C267 C 0.09978 0.09689 0.98325 0.0
C268 C 0.10021 0.12764 0.01165 0.0
C269 C 0.1281 0.1485 0.03013 0.0
C270 C 0.12824 0.17745 0.05825 0.0
C271 C 0.10042 0.18602 0.06868 0.0
C272 C 0.07258 0.16522 0.04833 0.0
C273 C 0.07251 0.1364 0.01995 0.0
C274 C 0.99341 0.03763 0.9821 0.0
C275 C 0.01511 0.09265 0.79604 0.0
O276 O 0.97428 0.96902 0.81145 0.0
O277 O 0.98885 0.00189 0.69308 0.0
O278 O 0.04991 0.04381 0.70353 0.0
O279 O 0.06257 0.03054 0.82407 0.0
O280 O 0.02672 0.97452 0.88993 0.0
O281 O 0.06208 0.00229 0.97233 0.0
O282 O 0.09532 0.09799 0.90533 0.0
O283 O 0.08352 0.06909 0.02976 0.0
O284 O 0.01625 0.05181 0.0221 0.0
O285 O 0.00398 0.03176 0.919 0.0
O286 O 0.04086 0.09406 0.83585 0.0
O287 O 0.99631 0.06428 0.7849 0.0
H288 H 0.93443 0.90972 0.76155 0.0
H289 H 0.93973 0.86132 0.70999 0.0
H290 H 0.02344 0.9222 0.57312 0.0
H291 H 0.01871 0.96973 0.62707 0.0
H292 H 0.14974 0.14233 0.02324 0.0
H293 H 0.15018 0.19308 0.07194 0.0
H294 H 0.05067 0.17063 0.05644 0.0
H295 H 0.05073 0.1207 0.00535 0.0
Nd296 Nd 0.52681 0.01577 0.79634 0.0
Nd297 Nd 0.52097 0.06687 0.89102 0.0
C298 C 0.53252 0.96713 0.72631 0.0
C299 C 0.5582 0.96513 0.6742 0.0
C300 C 0.58889 0.97247 0.69926 0.0
C301 C 0.61359 0.97669 0.64414 0.0
C302 C 0.60815 0.97408 0.56264 0.0
C303 C 0.5774 0.96502 0.5388 0.0
C304 C 0.55267 0.96044 0.59417 0.0
C305 C 0.52781 0.07696 0.70112 0.0
C306 C 0.59003 0.06541 0.83573 0.0
C307 C 0.51745 0.1182 0.95382 0.0
C308 C 0.49341 0.12383 0.00404 0.0
C309 C 0.49938 0.15239 0.03763 0.0
C310 C 0.47713 0.15669 0.08954 0.0
C311 C 0.44855 0.13242 0.10878 0.0
C312 C 0.4425 0.10414 0.07334 0.0
C313 C 0.46475 0.09988 0.02158 0.0
C314 C 0.51552 0.00553 0.98849 0.0
C315 C 0.45746 0.0178 0.85038 0.0
O316 O 0.53773 0.96735 0.80328 0.0
O317 O 0.51779 0.9889 0.69412 0.0
O318 O 0.54665 0.05982 0.68853 0.0
O319 O 0.5102 0.06196 0.7626 0.0
O320 O 0.57756 0.03574 0.82019 0.0
O321 O 0.5728 0.08422 0.85257 0.0
O322 O 0.51046 0.11563 0.87896 0.0
O323 O 0.53088 0.09569 0.98934 0.0
O324 O 0.49923 0.02553 0.99856 0.0
O325 O 0.53499 0.01845 0.92883 0.0
O326 O 0.47046 0.04689 0.86863 0.0
O327 O 0.47401 0.999 0.82899 0.0
H328 H 0.59401 0.97661 0.76027 0.0
H329 H 0.63702 0.98397 0.66406 0.0
H330 H 0.57252 0.9626 0.4765 0.0
H331 H 0.52927 0.9549 0.57326 0.0
H332 H 0.52139 0.17112 0.02466 0.0
H333 H 0.4824 0.17894 0.11501 0.0
H334 H 0.42097 0.08475 0.08765 0.0
H335 H 0.45982 0.07753 0.99653 0.0
Nd336 Nd 0.49508 0.53986 0.91629 0.0
Nd337 Nd 0.54349 0.54421 0.78846 0.0
C338 C 0.44691 0.54399 0.99928 0.0
C339 C 0.43947 0.56888 0.0394 0.0
C340 C 0.44875 0.60293 0.00351 0.0
C341 C 0.44435 0.62648 0.04634 0.0
C342 C 0.43092 0.61636 0.12596 0.0
C343 C 0.42077 0.58221 0.16062 0.0
C344 C 0.42496 0.55866 0.11752 0.0
C345 C 0.55301 0.5445 0.97518 0.0
C346 C 0.5317 0.61314 0.8057 0.0
C347 C 0.58752 0.53727 0.69565 0.0
C348 C 0.58527 0.51512 0.6371 0.0
C349 C 0.60092 0.49017 0.65019 0.0
C350 C 0.59387 0.4648 0.60563 0.0
C351 C 0.57109 0.46408 0.5472 0.0
C352 C 0.55704 0.49035 0.53049 0.0
C353 C 0.56401 0.51556 0.57497 0.0
C354 C 0.48414 0.53557 0.73425 0.0
C355 C 0.50831 0.47122 0.90177 0.0
O356 O 0.44969 0.55108 0.91949 0.0
O357 O 0.46823 0.5306 0.03293 0.0
O358 O 0.5276 0.52725 0.01628 0.0
O359 O 0.54745 0.56081 0.90785 0.0
O360 O 0.50624 0.59478 0.84847 0.0
O361 O 0.55333 0.59981 0.7864 0.0
O362 O 0.58228 0.52231 0.77231 0.0
O363 O 0.57396 0.56122 0.67639 0.0
O364 O 0.50832 0.55452 0.69089 0.0
O365 O 0.4919 0.52095 0.80026 0.0
O366 O 0.5345 0.49 0.86289 0.0
O367 O 0.48603 0.48455 0.91636 0.0
H368 H 0.46025 0.61143 0.94349 0.0
H369 H 0.45272 0.65266 0.01861 0.0
H370 H 0.41018 0.57377 0.22171 0.0
H371 H 0.4177 0.5325 0.14617 0.0
H372 H 0.61737 0.48931 0.6978 0.0
H373 H 0.60537 0.4451 0.61901 0.0
H374 H 0.53915 0.49038 0.48665 0.0
H375 H 0.55134 0.5343 0.56356 0.0
Nd376 Nd 0.01411 0.5583 0.77952 0.0
Nd377 Nd 0.01713 0.50141 0.9072 0.0
C378 C 0.99711 0.6067 0.68132 0.0
C379 C 0.97154 0.60598 0.62443 0.0
C380 C 0.94039 0.59491 0.65346 0.0
C381 C 0.91657 0.58843 0.5996 0.0
C382 C 0.9234 0.59279 0.51573 0.0
C383 C 0.95437 0.60595 0.48613 0.0
C384 C 0.97817 0.61265 0.53991 0.0
C385 C 0.02535 0.50743 0.71641 0.0
C386 C 0.94996 0.50052 0.85125 0.0
C387 C 0.03307 0.45227 0.00568 0.0
C388 C 0.05739 0.45057 0.06526 0.0
C389 C 0.08855 0.46817 0.04493 0.0
C390 C 0.11068 0.46884 0.10444 0.0
C391 C 0.10203 0.45225 0.18552 0.0
C392 C 0.07104 0.4339 0.20513 0.0
C393 C 0.04898 0.43301 0.14552 0.0
C394 C 0.00764 0.5538 0.96816 0.0
C395 C 0.08153 0.55857 0.83486 0.0
O396 O 0.9896 0.59806 0.75949 0.0
O397 O 0.0188 0.594 0.66141 0.0
O398 O 0.03835 0.5387 0.68937 0.0
O399 O 0.0059 0.50316 0.77467 0.0
O400 O 0.96293 0.5321 0.81899 0.0
O401 O 0.96704 0.48029 0.87878 0.0
O402 O 0.04196 0.462 0.92847 0.0
O403 O 0.01158 0.46534 0.02515 0.0
O404 O 0.99338 0.5229 0.9963 0.0
O405 O 0.02663 0.55647 0.91039 0.0
O406 O 0.06828 0.52739 0.86983 0.0
O407 O 0.06503 0.57895 0.80335 0.0
H408 H 0.93441 0.58973 0.71812 0.0
H409 H 0.89295 0.57818 0.62426 0.0
H410 H 0.96027 0.61003 0.42161 0.0
H411 H 0.00192 0.62149 0.51571 0.0
H412 H 0.09572 0.48215 0.98364 0.0
H413 H 0.13432 0.48339 0.08769 0.0
H414 H 0.06378 0.42056 0.26694 0.0
H415 H 0.02513 0.41929 0.16261 0.0
C416 C 0.14635 0.087 0.62255 0.0
C417 C 0.16908 0.08239 0.67872 0.0
H418 H 0.09783 0.07918 0.60226 0.0
C419 C 0.15952 0.06571 0.75943 0.0
H420 H 0.15286 0.10006 0.56023 0.0
C421 C 0.12816 0.0543 0.78361 0.0
C422 C 0.10554 0.0589 0.72751 0.0
H423 H 0.17629 0.0611 0.80405 0.0
H424 H 0.12162 0.04151 0.84616 0.0
C425 C 0.11486 0.07531 0.64672 0.0
C426 C 0.53099 0.14615 0.51654 0.0
C427 C 0.49959 0.14627 0.51212 0.0
H428 H 0.56465 0.12388 0.57997 0.0
C429 C 0.47786 0.12235 0.56837 0.0
H430 H 0.54846 0.16429 0.47488 0.0
C431 C 0.48732 0.10034 0.62987 0.0
C432 C 0.51866 0.10077 0.63542 0.0
H433 H 0.45337 0.12073 0.56562 0.0
H434 H 0.46991 0.08265 0.67275 0.0
C435 C 0.54038 0.12331 0.57719 0.0
C436 C 0.41233 0.54576 0.62292 0.0
C437 C 0.39004 0.51704 0.66249 0.0
H438 H 0.46014 0.57389 0.61369 0.0
C439 C 0.3991 0.49436 0.72421 0.0
H440 H 0.40579 0.56365 0.57541 0.0
C441 C 0.42974 0.50049 0.7471 0.0
C442 C 0.45208 0.52911 0.70763 0.0
H443 H 0.38224 0.47227 0.75638 0.0
H444 H 0.43592 0.48281 0.79587 0.0
C445 C 0.44329 0.55156 0.64467 0.0
C446 C 0.05508 0.46799 0.56194 0.0
C447 C 0.04015 0.43402 0.5882 0.0
H448 H 0.06217 0.51733 0.58202 0.0
C449 C 0.01897 0.42418 0.65605 0.0
H450 H 0.07124 0.47647 0.50944 0.0
C451 C 0.01367 0.44783 0.69815 0.0
C452 C 0.02937 0.48167 0.67272 0.0
H453 H 0.00734 0.39811 0.67821 0.0
H454 H 0.99775 0.43964 0.75108 0.0
C455 C 0.04982 0.49143 0.60366 0.0
C456 C 0.92315 0.03805 0.10229 0.0
C457 C 0.89928 0.03046 0.04855 0.0
H458 H 0.97133 0.04594 0.12321 0.0
C459 C 0.90626 0.02202 0.9749 0.0
H460 H 0.91893 0.04526 0.15875 0.0
C461 C 0.93671 0.02274 0.95406 0.0
C462 C 0.96059 0.03197 0.00648 0.0
H463 H 0.88837 0.01574 0.93245 0.0
H464 H 0.94174 0.01733 0.89586 0.0
C465 C 0.95336 0.03876 0.08152 0.0
C466 C 0.52017 0.92263 0.11418 0.0
C467 C 0.51726 0.92783 0.19411 0.0
H468 H 0.52229 0.94352 0.98548 0.0
C469 C 0.51769 0.95994 0.20436 0.0
H470 H 0.51973 0.8982 0.10378 0.0
C471 C 0.51829 0.98533 0.13699 0.0
C472 C 0.51934 0.97959 0.0575 0.0
H473 H 0.51643 0.96524 0.26469 0.0
H474 H 0.51721 0.00937 0.14721 0.0
C475 C 0.52145 0.94845 0.04634 0.0
C476 C 0.63896 0.551 0.97222 0.0
C477 C 0.64176 0.53197 0.04951 0.0
H478 H 0.6086 0.57033 0.8881 0.0
C479 C 0.61544 0.51879 0.10292 0.0
H480 H 0.65886 0.56166 0.92989 0.0
C481 C 0.5869 0.52378 0.0791 0.0
C482 C 0.58395 0.54213 1.0014 0.0
H483 H 0.61659 0.50356 0.16228 0.0
H484 H 0.56695 0.51259 0.1211 0.0
C485 C 0.6103 0.55614 0.94846 0.0
C486 C 0.03165 0.63618 0.03636 0.0
C487 C 0.01053 0.63111 0.10265 0.0
H488 H 0.04698 0.61613 0.94157 0.0
C489 C 0.98799 0.60032 0.12314 0.0
H490 H 0.04987 0.65914 0.01969 0.0
C491 C 0.98673 0.57535 0.07865 0.0
C492 C 0.0079 0.58066 0.01262 0.0
H493 H 0.97119 0.59557 0.17315 0.0
H494 H 0.96925 0.55183 0.09616 0.0
C495 C 0.03019 0.61141 0.99163 0.0
C496 C -0.00036 0.16102 0.63515 0.0
C497 C 0.0146 0.18913 0.66693 0.0
H498 H 0.98747 0.10774 0.6524 0.0
C499 C 0.02415 0.18454 0.74744 0.0
H500 H 0.99176 0.16391 0.57348 0.0
C501 C 0.02176 0.15261 0.79211 0.0
C502 C 0.00958 0.12467 0.75743 0.0
H503 H 0.03591 0.2056 0.7736 0.0
H504 H 0.03133 0.14993 0.85196 0.0
C505 C 0.997 0.12892 0.68036 0.0
C506 C 0.38703 0.01673 0.73392 0.0
C507 C 0.37158 0.03107 0.78353 0.0
H508 H 0.42711 0.99967 0.71865 0.0
C509 C 0.37972 0.03034 0.86484 0.0
H510 H 0.38118 0.01704 0.67092 0.0
C511 C 0.4058 0.02024 0.89214 0.0
C512 C 0.42405 0.01076 0.83847 0.0
H513 H 0.36788 0.04085 0.90457 0.0
H514 H 0.41381 0.02373 0.95185 0.0
C515 C 0.4132 0.00652 0.76144 0.0
C516 C 0.53852 0.37457 0.52732 0.0
C517 C 0.52893 0.37839 0.44678 0.0
H518 H 0.55926 0.39872 0.62228 0.0
C519 C 0.53569 0.41039 0.39724 0.0
H520 H 0.53344 0.35018 0.56695 0.0
C521 C 0.55083 0.43818 0.42854 0.0
C522 C 0.55934 0.43452 0.51016 0.0
H523 H 0.52911 0.41394 0.33438 0.0
H524 H 0.55538 0.46261 0.38928 0.0
C525 C 0.55351 0.40236 0.55877 0.0
C526 C 0.15553 0.5722 0.7188 0.0
C527 C 0.17309 0.55914 0.78056 0.0
H528 H 0.11249 0.58355 0.68892 0.0
C529 C 0.16303 0.55483 0.86246 0.0
H530 H 0.16218 0.57579 0.655 0.0
C531 C 0.134 0.55838 0.88139 0.0
C532 C 0.11515 0.56774 0.81901 0.0
H533 H 0.17638 0.54605 0.91193 0.0
H534 H 0.12527 0.55126 0.94437 0.0
C535 C 0.12691 0.57677 0.73808 0.0
C536 C 0.0408 0.88283 1.00176 0.0
C537 C 0.05378 0.87961 0.07862 0.0
H538 H 0.02853 0.91533 0.90045 0.0
C539 C 0.06686 0.90841 0.10943 0.0
H540 H 0.03113 0.86117 0.9756 0.0
C541 C 0.06564 0.93963 0.06589 0.0
C542 C 0.05119 0.94255 0.991 0.0
H543 H 0.07683 0.90669 0.16874 0.0
H544 H 0.07495 0.96125 0.09246 0.0
C545 C 0.03941 0.91391 0.95859 0.0
C546 C 0.66668 0.10461 0.91605 0.0
C547 C 0.68501 0.08476 0.89643 0.0
H548 H 0.6223 0.11443 0.91099 0.0
C549 C 0.67327 0.0625 0.84468 0.0
H550 H 0.67478 0.12184 0.95624 0.0
C551 C 0.64289 0.05786 0.81979 0.0
C552 C 0.62377 0.07569 0.8454 0.0
H553 H 0.68705 0.04743 0.82673 0.0
H554 H 0.63392 0.03912 0.78392 0.0
C555 C 0.63642 0.10024 0.89039 0.0
C556 C 0.44286 0.66291 0.29858 0.0
C557 C 0.43366 0.69172 0.26509 0.0
H558 H 0.44911 0.61666 0.28083 0.0
C559 C 0.42179 0.6946 0.1867 0.0
H560 H 0.45274 0.66007 0.35793 0.0
C561 C 0.42016 0.66978 0.14194 0.0
C562 C 0.42999 0.64142 0.17511 0.0
H563 H 0.41404 0.71618 0.15953 0.0
H564 H 0.41142 0.67284 0.08119 0.0
C565 C 0.44089 0.638 0.25429 0.0
C566 C 0.87299 0.45799 0.96328 0.0
C567 C 0.85502 0.47935 0.92879 0.0
H568 H 0.91713 0.44758 0.96462 0.0
C569 C 0.86699 0.50386 0.85885 0.0
H570 H 0.8647 0.43897 0.01747 0.0
C571 C 0.89731 0.50906 0.82925 0.0
C572 C 0.91613 0.48963 0.86843 0.0
H573 H 0.85351 0.52018 0.82945 0.0
H574 H 0.9065 0.52944 0.77834 0.0
C575 C 0.9032 0.46297 0.93307 0.0
C576 C 0.07777 0.26075 0.11809 0.0
C577 C 0.09671 0.26782 0.18317 0.0
H578 H 0.06457 0.23009 0.02943 0.0
C579 C 0.11788 0.2489 0.207 0.0
H580 H 0.06133 0.27491 0.09785 0.0
C581 C 0.11957 0.22311 0.16849 0.0
C582 C 0.10016 0.21541 0.10475 0.0
H583 H 0.13231 0.25296 0.25819 0.0
H584 H 0.13527 0.20833 0.19121 0.0
C585 C 0.07955 0.23493 0.07915 0.0
C586 C 0.41488 0.14867 0.2987 0.0
C587 C 0.38287 0.13873 0.28792 0.0
H588 H 0.4605 0.15406 0.25162 0.0
C589 C 0.3725 0.1274 0.21663 0.0
H590 H 0.42352 0.15653 0.35404 0.0
C591 C 0.39376 0.12596 0.15756 0.0
C592 C 0.42582 0.13567 0.1688 0.0
H593 H 0.34797 0.11969 0.20653 0.0
H594 H 0.38508 0.11724 0.10308 0.0
C595 C 0.43607 0.1472 0.23995 0.0
C596 C 0.52453 0.38672 0.96828 0.0
C597 C 0.49574 0.36703 0.00517 0.0
H598 H 0.55116 0.43506 0.9059 0.0
C599 C 0.4708 0.38148 1.00131 0.0
H600 H 0.54421 0.37641 0.96963 0.0
C601 C 0.47476 0.41487 0.96502 0.0
C602 C 0.5038 0.43494 0.9315 0.0
H603 H 0.44842 0.36754 0.03031 0.0
H604 H 0.45515 0.42518 0.96576 0.0
C605 C 0.52849 0.42031 0.93156 0.0
C606 C 0.17599 0.45575 0.30059 0.0
C607 C 0.16762 0.46256 0.37474 0.0
H608 H 0.16163 0.44674 0.18263 0.0
C609 C 0.13789 0.46659 0.38519 0.0
H610 H 0.19872 0.45244 0.29095 0.0
C611 C 0.11663 0.46285 0.32417 0.0
C612 C 0.12476 0.4556 0.25042 0.0
H613 H 0.13116 0.47295 0.44055 0.0
H614 H 0.09394 0.46621 0.33425 0.0
C615 C 0.15477 0.45239 0.23886 0.0
C616 C 0.9645 0.80863 0.54965 0.0
C617 C 0.99439 0.80526 0.5364 0.0
H618 H 0.9371 0.83718 0.59084 0.0
C619 C 0.01982 0.82827 0.56089 0.0
H620 H 0.94429 0.79132 0.53247 0.0
C621 C 0.01565 0.85415 0.59564 0.0
C622 C 0.98595 0.85829 0.60616 0.0
H623 H 0.04329 0.82718 0.55064 0.0
H624 H 0.03593 0.87122 0.61338 0.0
C625 C 0.96034 0.83481 0.584 0.0
C626 C 0.65903 0.01983 0.37387 0.0
C627 C 0.68624 0.00973 0.38984 0.0
H628 H 0.61303 0.01615 0.41548 0.0
C629 C 0.68703 0.98601 0.46072 0.0
H630 H 0.65777 0.03792 0.31932 0.0
C631 C 0.66142 0.97369 0.51639 0.0
C632 C 0.6344 0.98438 0.50109 0.0
H633 H 0.70777 0.97788 0.47433 0.0
H634 H 0.66282 0.95611 0.57177 0.0
C635 C 0.63335 0.00715 0.42856 0.0
C636 C 0.54219 0.69298 0.65037 0.0
C637 C 0.52677 0.71097 0.68987 0.0
H638 H 0.55645 0.64833 0.65698 0.0
C639 C 0.51727 0.69821 0.77276 0.0
H640 H 0.54958 0.7013 0.58659 0.0
C641 C 0.52025 0.66703 0.81209 0.0
C642 C 0.53391 0.64843 0.77063 0.0
H643 H 0.50633 0.71161 0.80672 0.0
H644 H 0.51101 0.65702 0.87423 0.0
C645 C 0.54604 0.66231 0.69065 0.0
C646 C 0.87974 0.54571 0.36225 0.0
C647 C 0.85038 0.55127 0.3674 0.0
H648 H 0.92581 0.55475 0.40441 0.0
C649 C 0.84563 0.57239 0.41792 0.0
H650 H 0.88411 0.52979 0.32314 0.0
C651 C 0.86952 0.58662 0.4649 0.0
C652 C 0.89873 0.58046 0.46095 0.0
H653 H 0.82318 0.57703 0.42299 0.0
H654 H 0.8651 0.60216 0.5049 0.0
C655 C 0.90369 0.56027 0.40813 0.0
loop_
_geom_bond_atom_site_label_1
_geom_bond_atom_site_label_2
_geom_bond_distance
_geom_bond_site_symmetry_2
_ccdc_geom_bond_type
P0 O11 1.490 . S
P0 C14 1.812 . S
P0 C20 1.803 . S
P0 C26 1.819 1_554 S
H1 C15 0.941 . S
H2 C16 0.939 . S
H3 C18 0.940 . S
H4 C19 0.940 . S
H5 C21 0.939 . S
H6 C22 0.942 . S
H7 C24 0.943 . S
H8 C25 0.939 . S
H9 C27 0.941 1_554 S
H10 C31 0.939 . S
O11 P0 1.490 . S
H12 C28 0.939 . S
H13 C30 0.940 . S
C14 P0 1.812 . S
C14 C15 1.389 . S
C14 C19 1.391 . S
C15 H1 0.941 . S
C15 C14 1.389 . S
C15 C16 1.397 . S
C16 H2 0.939 . S
C16 C15 1.397 . S
C16 C17 1.378 . S
C17 C16 1.378 . S
C17 C18 1.378 . S
C18 H3 0.940 . S
C18 C17 1.378 . S
C18 C19 1.396 . S
C19 H4 0.940 . S
C19 C14 1.391 . S
C19 C18 1.396 . S
C20 P0 1.803 . S
C20 C21 1.378 1_554 S
C20 C25 1.400 . S
C21 H5 0.939 . S
C21 C20 1.378 1_556 S
C21 C22 1.361 . S
C22 H6 0.942 . S
C22 C21 1.361 . S
C22 C23 1.369 . S
C23 C22 1.369 . S
C23 C24 1.404 . S
C24 H7 0.943 . S
C24 C23 1.404 . S
C24 C25 1.389 1_556 S
C25 H8 0.939 . S
C25 C20 1.400 . S
C25 C24 1.389 1_554 S
C26 P0 1.819 1_556 S
C26 C27 1.391 . S
C26 C31 1.391 . S
C27 H9 0.941 1_556 S
C27 C26 1.391 . S
C27 C28 1.396 . S
C28 H12 0.939 . S
C28 C27 1.396 . S
C28 C29 1.397 . S
C29 C28 1.397 . S
C29 C30 1.385 . S
C30 H13 0.940 . S
C30 C29 1.385 . S
C30 C31 1.388 . S
C31 H10 0.939 . S
C31 C26 1.391 . S
C31 C30 1.388 . S
P32 O43 1.490 1_655 S
P32 C46 1.812 . S
P32 C52 1.803 . S
P32 C58 1.819 1_554 S
H33 C47 0.941 . S
H34 C48 0.939 . S
H35 C50 0.940 . S
H36 C51 0.940 . S
H37 C53 0.939 1_556 S
H38 C54 0.942 . S
H39 C56 0.940 . S
H40 C57 0.939 . S
H41 C59 0.941 1_554 S
H42 C63 0.939 . S
O43 P32 1.490 1_455 S
H44 C60 0.939 . S
H45 C62 0.940 . S
C46 P32 1.812 . S
C46 C47 1.389 . S
C46 C51 1.391 . S
C47 H33 0.941 . S
C47 C46 1.389 . S
C47 C48 1.397 . S
C48 H34 0.939 . S
C48 C47 1.397 . S
C48 C49 1.378 . S
C49 C48 1.378 . S
C49 C50 1.378 . S
C50 H35 0.940 . S
C50 C49 1.378 . S
C50 C51 1.396 . S
C51 H36 0.940 . S
C51 C46 1.391 . S
C51 C50 1.396 . S
C52 P32 1.803 . S
C52 C53 1.378 . S
C52 C57 1.400 . S
C53 H37 0.939 1_554 S
C53 C52 1.378 . S
C53 C54 1.361 1_554 S
C54 H38 0.942 . S
C54 C53 1.361 1_556 S
C54 C55 1.369 1_556 S
C55 C54 1.369 1_554 S
C55 C56 1.404 . S
C56 H39 0.940 . S
C56 C55 1.404 . S
C56 C57 1.389 . S
C57 H40 0.939 . S
C57 C52 1.400 . S
C57 C56 1.389 . S
C58 P32 1.819 1_556 S
C58 C59 1.391 . S
C58 C63 1.391 . S
C59 H41 0.941 1_556 S
C59 C58 1.391 . S
C59 C60 1.396 . S
C60 H44 0.939 . S
C60 C59 1.396 . S
C60 C61 1.397 . S
C61 C60 1.397 . S
C61 C62 1.385 . S
C62 H45 0.940 . S
C62 C61 1.385 . S
C62 C63 1.388 . S
C63 H42 0.939 . S
C63 C58 1.391 . S
C63 C62 1.388 . S
P64 O75 1.490 . S
P64 C78 1.812 1_556 S
P64 C84 1.803 . S
P64 C90 1.819 . S
H65 C79 0.941 . S
H66 C80 0.939 . S
H67 C82 0.940 . S
H68 C83 0.940 . S
H69 C85 0.939 . S
H70 C86 0.942 . S
H71 C88 0.940 1_554 S
H72 C89 0.939 . S
H73 C91 0.941 . S
H74 C95 0.939 . S
O75 P64 1.490 . S
H76 C92 0.939 . S
H77 C94 0.940 . S
C78 P64 1.812 1_554 S
C78 C79 1.389 . S
C78 C83 1.391 1_545 S
C79 H65 0.941 . S
C79 C78 1.389 . S
C79 C80 1.397 . S
C80 H66 0.939 . S
C80 C79 1.397 . S
C80 C81 1.378 1_545 S
C81 C80 1.378 1_565 S
C81 C82 1.378 . S
C82 H67 0.940 . S
C82 C81 1.378 . S
C82 C83 1.396 . S
C83 H68 0.940 . S
C83 C78 1.391 1_565 S
C83 C82 1.396 . S
C84 P64 1.803 . S
C84 C85 1.378 . S
C84 C89 1.400 1_546 S
C85 H69 0.939 . S
C85 C84 1.378 . S
C85 C86 1.361 . S
C86 H70 0.942 . S
C86 C85 1.361 . S
C86 C87 1.369 1_545 S
C87 C86 1.369 1_565 S
C87 C88 1.404 . S
C88 H71 0.940 1_556 S
C88 C87 1.404 . S
C88 C89 1.389 1_556 S
C89 H72 0.939 . S
C89 C84 1.400 1_564 S
C89 C88 1.389 1_554 S
C90 P64 1.819 . S
C90 C91 1.391 . S
C90 C95 1.391 1_545 S
C91 H73 0.941 . S
C91 C90 1.391 . S
C91 C92 1.396 . S
C92 H76 0.939 . S
C92 C91 1.396 . S
C92 C93 1.397 1_545 S
C93 C92 1.397 1_565 S
C93 C94 1.385 . S
C94 H77 0.940 . S
C94 C93 1.385 . S
C94 C95 1.388 . S
C95 H74 0.939 . S
C95 C90 1.391 1_565 S
C95 C94 1.388 . S
P96 O107 1.490 . S
P96 C110 1.812 . S
P96 C116 1.803 . S
P96 C122 1.819 . S
H97 C111 0.941 . S
H98 C112 0.939 . S
H99 C114 0.940 . S
H100 C115 0.940 . S
H101 C117 0.939 . S
H102 C118 0.942 . S
H103 C120 0.940 . S
H104 C121 0.939 . S
H105 C123 0.941 . S
H106 C127 0.939 . S
O107 P96 1.490 . S
H108 C124 0.939 . S
H109 C126 0.940 . S
C110 P96 1.812 . S
C110 C111 1.389 . S
C110 C115 1.391 . S
C111 H97 0.941 . S
C111 C110 1.389 . S
C111 C112 1.397 . S
C112 H98 0.939 . S
C112 C111 1.397 . S
C112 C113 1.378 . S
C113 C112 1.378 . S
C113 C114 1.378 . S
C114 H99 0.940 . S
C114 C113 1.378 . S
C114 C115 1.396 . S
C115 H100 0.940 . S
C115 C110 1.391 . S
C115 C114 1.396 . S
C116 P96 1.803 . S
C116 C117 1.378 . S
C116 C121 1.400 . S
C117 H101 0.939 . S
C117 C116 1.378 . S
C117 C118 1.361 . S
C118 H102 0.942 . S
C118 C117 1.361 . S
C118 C119 1.369 . S
C119 C118 1.369 . S
C119 C120 1.404 . S
C120 H103 0.940 . S
C120 C119 1.404 . S
C120 C121 1.389 . S
C121 H104 0.939 . S
C121 C116 1.400 . S
C121 C120 1.389 . S
C122 P96 1.819 . S
C122 C123 1.391 . S
C122 C127 1.391 . S
C123 H105 0.941 . S
C123 C122 1.391 . S
C123 C124 1.396 . S
C124 H108 0.939 . S
C124 C123 1.396 . S
C124 C125 1.397 . S
C125 C124 1.397 . S
C125 C126 1.385 . S
C126 H109 0.940 . S
C126 C125 1.385 . S
C126 C127 1.388 . S
C127 H106 0.939 . S
C127 C122 1.391 . S
C127 C126 1.388 . S
P128 O139 1.490 . S
P128 C142 1.812 . S
P128 C148 1.803 . S
P128 C154 1.819 . S
H129 C143 0.941 . S
H130 C144 0.939 . S
H131 C146 0.940 . S
H132 C147 0.940 . S
H133 C149 0.939 . S
H134 C150 0.942 . S
H135 C152 0.940 . S
H136 C153 0.939 . S
H137 C155 0.941 . S
H138 C159 0.939 . S
O139 P128 1.490 . S
H140 C156 0.939 . S
H141 C158 0.940 . S
C142 P128 1.812 . S
C142 C143 1.389 . S
C142 C147 1.391 . S
C143 H129 0.941 . S
C143 C142 1.389 . S
C143 C144 1.397 . S
C144 H130 0.939 . S
C144 C143 1.397 . S
C144 C145 1.378 . S
C145 C144 1.378 . S
C145 C146 1.378 . S
C146 H131 0.940 . S
C146 C145 1.378 . S
C146 C147 1.396 . S
C147 H132 0.940 . S
C147 C142 1.391 . S
C147 C146 1.396 . S
C148 P128 1.803 . S
C148 C149 1.378 . S
C148 C153 1.400 . S
C149 H133 0.939 . S
C149 C148 1.378 . S
C149 C150 1.361 . S
C150 H134 0.942 . S
C150 C149 1.361 . S
C150 C151 1.369 . S
C151 C150 1.369 . S
C151 C152 1.404 . S
C152 H135 0.940 . S
C152 C151 1.404 . S
C152 C153 1.389 . S
C153 H136 0.939 . S
C153 C148 1.400 . S
C153 C152 1.389 . S
C154 P128 1.819 . S
C154 C155 1.391 . S
C154 C159 1.391 . S
C155 H137 0.941 . S
C155 C154 1.391 . S
C155 C156 1.396 . S
C156 H140 0.939 . S
C156 C155 1.396 . S
C156 C157 1.397 . S
C157 C156 1.397 . S
C157 C158 1.385 . S
C158 H141 0.940 . S
C158 C157 1.385 . S
C158 C159 1.388 . S
C159 H138 0.939 . S
C159 C154 1.391 . S
C159 C158 1.388 . S
P160 O171 1.490 . S
P160 C174 1.812 . S
P160 C180 1.803 . S
P160 C186 1.819 . S
H161 C175 0.941 . S
H162 C176 0.939 . S
H163 C178 0.940 . S
H164 C179 0.940 . S
H165 C181 0.939 . S
H166 C182 0.942 . S
H167 C184 0.940 . S
H168 C185 0.939 . S
H169 C187 0.941 . S
H170 C191 0.939 . S
O171 P160 1.490 . S
H172 C188 0.939 . S
H173 C190 0.940 . S
C174 P160 1.812 . S
C174 C175 1.389 . S
C174 C179 1.391 . S
C175 H161 0.941 . S
C175 C174 1.389 . S
C175 C176 1.397 . S
C176 H162 0.939 . S
C176 C175 1.397 . S
C176 C177 1.378 . S
C177 C176 1.378 . S
C177 C178 1.378 . S
C178 H163 0.940 . S
C178 C177 1.378 . S
C178 C179 1.396 . S
C179 H164 0.940 . S
C179 C174 1.391 . S
C179 C178 1.396 . S
C180 P160 1.803 . S
C180 C181 1.378 . S
C180 C185 1.400 . S
C181 H165 0.939 . S
C181 C180 1.378 . S
C181 C182 1.361 . S
C182 H166 0.942 . S
C182 C181 1.361 . S
C182 C183 1.369 . S
C183 C182 1.369 . S
C183 C184 1.404 . S
C184 H167 0.940 . S
C184 C183 1.404 . S
C184 C185 1.389 . S
C185 H168 0.939 . S
C185 C180 1.400 . S
C185 C184 1.389 . S
C186 P160 1.819 . S
C186 C187 1.391 . S
C186 C191 1.391 . S
C187 H169 0.941 . S
C187 C186 1.391 . S
C187 C188 1.396 . S
C188 H172 0.939 . S
C188 C187 1.396 . S
C188 C189 1.397 . S
C189 C188 1.397 . S
C189 C190 1.385 . S
C190 H173 0.940 . S
C190 C189 1.385 . S
C190 C191 1.388 . S
C191 H170 0.939 . S
C191 C186 1.391 . S
C191 C190 1.388 . S
P192 O203 1.490 . S
P192 C206 1.812 . S
P192 C212 1.803 . S
P192 C218 1.819 . S
H193 C207 0.941 . S
H194 C208 0.939 . S
H195 C210 0.940 . S
H196 C211 0.940 . S
H197 C213 0.939 . S
H198 C214 0.942 . S
H199 C216 0.940 . S
H200 C217 0.939 . S
H201 C219 0.941 . S
H202 C223 0.939 . S
O203 P192 1.490 . S
H204 C220 0.939 . S
H205 C222 0.940 . S
C206 P192 1.812 . S
C206 C207 1.389 . S
C206 C211 1.391 . S
C207 H193 0.941 . S
C207 C206 1.389 . S
C207 C208 1.397 . S
C208 H194 0.939 . S
C208 C207 1.397 . S
C208 C209 1.378 . S
C209 C208 1.378 . S
C209 C210 1.378 . S
C210 H195 0.940 . S
C210 C209 1.378 . S
C210 C211 1.396 . S
C211 H196 0.940 . S
C211 C206 1.391 . S
C211 C210 1.396 . S
C212 P192 1.803 . S
C212 C213 1.378 . S
C212 C217 1.400 . S
C213 H197 0.939 . S
C213 C212 1.378 . S
C213 C214 1.361 . S
C214 H198 0.942 . S
C214 C213 1.361 . S
C214 C215 1.369 . S
C215 C214 1.369 . S
C215 C216 1.404 . S
C216 H199 0.940 . S
C216 C215 1.404 . S
C216 C217 1.389 . S
C217 H200 0.939 . S
C217 C212 1.400 . S
C217 C216 1.389 . S
C218 P192 1.819 . S
C218 C219 1.391 . S
C218 C223 1.391 . S
C219 H201 0.941 . S
C219 C218 1.391 . S
C219 C220 1.396 . S
C220 H204 0.939 . S
C220 C219 1.396 . S
C220 C221 1.397 . S
C221 C220 1.397 . S
C221 C222 1.385 . S
C222 H205 0.940 . S
C222 C221 1.385 . S
C222 C223 1.388 . S
C223 H202 0.939 . S
C223 C218 1.391 . S
C223 C222 1.388 . S
P224 O235 1.490 . S
P224 C238 1.812 . S
P224 C244 1.803 . S
P224 C250 1.819 . S
H225 C239 0.941 . S
H226 C240 0.939 . S
H227 C242 0.940 . S
H228 C243 0.940 . S
H229 C245 0.939 . S
H230 C246 0.942 . S
H231 C248 0.940 . S
H232 C249 0.939 . S
H233 C251 0.941 . S
H234 C255 0.939 . S
O235 P224 1.490 . S
H236 C252 0.939 . S
H237 C254 0.940 . S
C238 P224 1.812 . S
C238 C239 1.389 . S
C238 C243 1.391 . S
C239 H225 0.941 . S
C239 C238 1.389 . S
C239 C240 1.397 . S
C240 H226 0.939 . S
C240 C239 1.397 . S
C240 C241 1.378 . S
C241 C240 1.378 . S
C241 C242 1.378 . S
C242 H227 0.940 . S
C242 C241 1.378 . S
C242 C243 1.396 . S
C243 H228 0.940 . S
C243 C238 1.391 . S
C243 C242 1.396 . S
C244 P224 1.803 . S
C244 C245 1.378 . S
C244 C249 1.400 . S
C245 H229 0.939 . S
C245 C244 1.378 . S
C245 C246 1.361 . S
C246 H230 0.942 . S
C246 C245 1.361 . S
C246 C247 1.369 . S
C247 C246 1.369 . S
C247 C248 1.404 . S
C248 H231 0.940 . S
C248 C247 1.404 . S
C248 C249 1.389 . S
C249 H232 0.939 . S
C249 C244 1.400 . S
C249 C248 1.389 . S
C250 P224 1.819 . S
C250 C251 1.391 . S
C250 C255 1.391 . S
C251 H233 0.941 . S
C251 C250 1.391 . S
C251 C252 1.396 . S
C252 H236 0.939 . S
C252 C251 1.396 . S
C252 C253 1.397 . S
C253 C252 1.397 . S
C253 C254 1.385 . S
C254 H237 0.940 . S
C254 C253 1.385 . S
C254 C255 1.388 . S
C255 H234 0.939 . S
C255 C250 1.391 . S
C255 C254 1.388 . S
Nd256 C258 2.836 1_445 S
Nd256 O276 2.500 1_445 S
Nd256 O277 2.492 1_545 S
Nd256 O278 2.487 . S
Nd256 O279 2.682 . S
Nd256 O280 2.410 1_545 S
Nd256 O285 2.414 1_455 S
Nd256 O287 2.424 . S
Nd257 C267 2.836 1_556 S
Nd257 O279 2.414 . S
Nd257 O281 2.424 1_545 S
Nd257 O282 2.500 1_556 S
Nd257 O283 2.492 1_556 S
Nd257 O284 2.487 1_455 S
Nd257 O285 2.682 1_455 S
Nd257 O286 2.410 . S
C258 Nd256 2.836 1_665 S
C258 C259 1.498 . S
C258 O276 1.258 . S
C258 O277 1.239 1_655 S
C259 C258 1.498 . S
C259 C260 1.366 . S
C259 C264 1.407 1_655 S
C260 C259 1.366 . S
C260 C261 1.392 . S
C260 H288 0.930 . S
C261 C260 1.392 . S
C261 C262 1.398 . S
C261 H289 0.929 . S
C262 C261 1.398 . S
C262 C263 1.352 . S
C263 C262 1.352 . S
C263 C264 1.384 1_655 S
C263 H290 0.930 1_655 S
C264 C259 1.407 1_455 S
C264 C263 1.384 1_455 S
C264 H291 0.929 . S
C265 O278 1.241 . S
C265 O279 1.273 . S
C266 O280 1.251 . S
C266 O281 1.268 . S
C267 Nd257 2.836 1_554 S
C267 C268 1.498 . S
C267 O282 1.258 . S
C267 O283 1.239 . S
C268 C267 1.498 . S
C268 C269 1.366 . S
C268 C273 1.407 . S
C269 C268 1.366 . S
C269 C270 1.392 . S
C269 H292 0.930 . S
C270 C269 1.392 . S
C270 C271 1.398 . S
C270 H293 0.929 . S
C271 C270 1.398 . S
C271 C272 1.352 . S
C272 C271 1.352 . S
C272 C273 1.384 . S
C272 H294 0.930 . S
C273 C268 1.407 . S
C273 C272 1.384 . S
C273 H295 0.929 . S
C274 O284 1.241 . S
C274 O285 1.273 . S
C275 O286 1.251 . S
C275 O287 1.268 . S
O276 Nd256 2.500 1_665 S
O276 C258 1.258 . S
O277 Nd256 2.492 1_565 S
O277 C258 1.239 1_455 S
O278 Nd256 2.487 . S
O278 C265 1.241 . S
O279 Nd256 2.682 . S
O279 Nd257 2.414 . S
O279 C265 1.273 . S
O280 Nd256 2.410 1_565 S
O280 C266 1.251 . S
O281 Nd257 2.424 1_565 S
O281 C266 1.268 . S
O282 Nd257 2.500 1_554 S
O282 C267 1.258 . S
O283 Nd257 2.492 1_554 S
O283 C267 1.239 . S
O284 Nd257 2.487 1_655 S
O284 C274 1.241 . S
O285 Nd256 2.414 1_655 S
O285 Nd257 2.682 1_655 S
O285 C274 1.273 . S
O286 Nd257 2.410 . S
O286 C275 1.251 . S
O287 Nd256 2.424 . S
O287 C275 1.268 . S
H288 C260 0.930 . S
H289 C261 0.929 . S
H290 C263 0.930 1_455 S
H291 C264 0.929 . S
H292 C269 0.930 . S
H293 C270 0.929 . S
H294 C272 0.930 . S
H295 C273 0.929 . S
Nd296 C298 2.836 1_545 S
Nd296 O316 2.500 1_545 S
Nd296 O317 2.492 . S
Nd296 O318 2.487 . S
Nd296 O319 2.682 . S
Nd296 O320 2.410 . S
Nd296 O325 2.414 . S
Nd296 O327 2.424 . S
Nd297 C307 2.836 1_556 S
Nd297 O319 2.414 . S
Nd297 O321 2.424 . S
Nd297 O322 2.500 . S
Nd297 O323 2.492 1_556 S
Nd297 O324 2.487 1_546 S
Nd297 O325 2.682 . S
Nd297 O326 2.410 . S
C298 Nd296 2.836 1_565 S
C298 C299 1.498 . S
C298 O316 1.258 . S
C298 O317 1.239 1_565 S
C299 C298 1.498 . S
C299 C300 1.366 . S
C299 C304 1.407 . S
C300 C299 1.366 . S
C300 C301 1.392 . S
C300 H328 0.930 . S
C301 C300 1.392 . S
C301 C302 1.398 . S
C301 H329 0.929 . S
C302 C301 1.398 . S
C302 C303 1.352 . S
C303 C302 1.352 . S
C303 C304 1.384 . S
C303 H330 0.930 . S
C304 C299 1.407 . S
C304 C303 1.384 . S
C304 H331 0.929 1_565 S
C305 O318 1.241 . S
C305 O319 1.273 . S
C306 O320 1.251 . S
C306 O321 1.268 . S
C307 Nd297 2.836 1_554 S
C307 C308 1.498 . S
C307 O322 1.258 1_554 S
C307 O323 1.239 . S
C308 C307 1.498 . S
C308 C309 1.366 . S
C308 C313 1.407 . S
C309 C308 1.366 . S
C309 C310 1.392 . S
C309 H332 0.930 1_554 S
C310 C309 1.392 . S
C310 C311 1.398 . S
C310 H333 0.929 . S
C311 C310 1.398 . S
C311 C312 1.352 . S
C312 C311 1.352 . S
C312 C313 1.384 . S
C312 H334 0.930 . S
C313 C308 1.407 . S
C313 C312 1.384 . S
C313 H335 0.929 . S
C314 O324 1.241 1_556 S
C314 O325 1.273 1_565 S
C315 O326 1.251 . S
C315 O327 1.268 . S
O316 Nd296 2.500 1_565 S
O316 C298 1.258 . S
O317 Nd296 2.492 . S
O317 C298 1.239 1_545 S
O318 Nd296 2.487 . S
O318 C305 1.241 . S
O319 Nd296 2.682 . S
O319 Nd297 2.414 . S
O319 C305 1.273 . S
O320 Nd296 2.410 . S
O320 C306 1.251 . S
O321 Nd297 2.424 . S
O321 C306 1.268 . S
O322 Nd297 2.500 . S
O322 C307 1.258 1_556 S
O323 Nd297 2.492 1_554 S
O323 C307 1.239 . S
O324 Nd297 2.487 1_564 S
O324 C314 1.241 1_554 S
O325 Nd296 2.414 . S
O325 Nd297 2.682 . S
O325 C314 1.273 1_545 S
O326 Nd297 2.410 . S
O326 C315 1.251 . S
O327 Nd296 2.424 . S
O327 C315 1.268 . S
H328 C300 0.930 . S
H329 C301 0.929 . S
H330 C303 0.930 . S
H331 C304 0.929 1_545 S
H332 C309 0.930 1_556 S
H333 C310 0.929 . S
H334 C312 0.930 . S
H335 C313 0.929 . S
Nd336 C338 2.836 1_556 S
Nd336 O356 2.500 . S
Nd336 O357 2.492 1_556 S
Nd336 O358 2.487 . S
Nd336 O359 2.682 . S
Nd336 O360 2.410 . S
Nd336 O365 2.414 . S
Nd336 O367 2.424 . S
Nd337 C347 2.836 . S
Nd337 O359 2.414 . S
Nd337 O361 2.424 . S
Nd337 O362 2.500 . S
Nd337 O363 2.492 . S
Nd337 O364 2.487 . S
Nd337 O365 2.682 . S
Nd337 O366 2.410 . S
C338 Nd336 2.836 1_554 S
C338 C339 1.498 . S
C338 O356 1.258 1_554 S
C338 O357 1.239 . S
C339 C338 1.498 . S
C339 C340 1.366 . S
C339 C344 1.407 . S
C340 C339 1.366 . S
C340 C341 1.392 . S
C340 H368 0.930 1_554 S
C341 C340 1.392 . S
C341 C342 1.398 . S
C341 H369 0.929 . S
C342 C341 1.398 . S
C342 C343 1.352 . S
C343 C342 1.352 . S
C343 C344 1.384 . S
C343 H370 0.930 . S
C344 C339 1.407 . S
C344 C343 1.384 . S
C344 H371 0.929 . S
C345 O358 1.241 . S
C345 O359 1.273 . S
C346 O360 1.251 . S
C346 O361 1.268 . S
C347 Nd337 2.836 . S
C347 C348 1.498 . S
C347 O362 1.258 . S
C347 O363 1.239 . S
C348 C347 1.498 . S
C348 C349 1.366 . S
C348 C353 1.407 . S
C349 C348 1.366 . S
C349 C350 1.392 . S
C349 H372 0.930 . S
C350 C349 1.392 . S
C350 C351 1.398 . S
C350 H373 0.929 . S
C351 C350 1.398 . S
C351 C352 1.352 . S
C352 C351 1.352 . S
C352 C353 1.384 . S
C352 H374 0.930 . S
C353 C348 1.407 . S
C353 C352 1.384 . S
C353 H375 0.929 . S
C354 O364 1.241 . S
C354 O365 1.273 . S
C355 O366 1.251 . S
C355 O367 1.268 . S
O356 Nd336 2.500 . S
O356 C338 1.258 1_556 S
O357 Nd336 2.492 1_554 S
O357 C338 1.239 . S
O358 Nd336 2.487 . S
O358 C345 1.241 . S
O359 Nd336 2.682 . S
O359 Nd337 2.414 . S
O359 C345 1.273 . S
O360 Nd336 2.410 . S
O360 C346 1.251 . S
O361 Nd337 2.424 . S
O361 C346 1.268 . S
O362 Nd337 2.500 . S
O362 C347 1.258 . S
O363 Nd337 2.492 . S
O363 C347 1.239 . S
O364 Nd337 2.487 . S
O364 C354 1.241 . S
O365 Nd336 2.414 . S
O365 Nd337 2.682 . S
O365 C354 1.273 . S
O366 Nd337 2.410 . S
O366 C355 1.251 . S
O367 Nd336 2.424 . S
O367 C355 1.268 . S
H368 C340 0.930 1_556 S
H369 C341 0.929 . S
H370 C343 0.930 . S
H371 C344 0.929 . S
H372 C349 0.930 . S
H373 C350 0.929 . S
H374 C352 0.930 . S
H375 C353 0.929 . S
Nd376 C378 2.836 1_455 S
Nd376 O396 2.500 1_455 S
Nd376 O397 2.492 1_455 S
Nd376 O398 2.487 . S
Nd376 O399 2.682 . S
Nd376 O400 2.410 1_455 S
Nd376 O405 2.414 . S
Nd376 O407 2.424 . S
Nd377 C387 2.836 1_556 S
Nd377 O399 2.414 . S
Nd377 O401 2.424 1_455 S
Nd377 O402 2.500 1_556 S
Nd377 O403 2.492 1_556 S
Nd377 O404 2.487 . S
Nd377 O405 2.682 . S
Nd377 O406 2.410 . S
C378 Nd376 2.836 1_655 S
C378 C379 1.498 . S
C378 O396 1.258 . S
C378 O397 1.239 . S
C379 C378 1.498 . S
C379 C380 1.366 . S
C379 C384 1.407 . S
C380 C379 1.366 . S
C380 C381 1.392 . S
C380 H408 0.930 . S
C381 C380 1.392 . S
C381 C382 1.398 . S
C381 H409 0.929 . S
C382 C381 1.398 . S
C382 C383 1.352 . S
C383 C382 1.352 . S
C383 C384 1.384 . S
C383 H410 0.930 . S
C384 C379 1.407 . S
C384 C383 1.384 . S
C384 H411 0.929 . S
C385 O398 1.241 . S
C385 O399 1.273 . S
C386 O400 1.251 . S
C386 O401 1.268 . S
C387 Nd377 2.836 1_554 S
C387 C388 1.498 . S
C387 O402 1.258 . S
C387 O403 1.239 . S
C388 C387 1.498 . S
C388 C389 1.366 . S
C388 C393 1.407 . S
C389 C388 1.366 . S
C389 C390 1.392 . S
C389 H412 0.930 . S
C390 C389 1.392 . S
C390 C391 1.398 . S
C390 H413 0.929 . S
C391 C390 1.398 . S
C391 C392 1.352 . S
C392 C391 1.352 . S
C392 C393 1.384 . S
C392 H414 0.930 . S
C393 C388 1.407 . S
C393 C392 1.384 . S
C393 H415 0.929 . S
C394 O404 1.241 . S
C394 O405 1.273 . S
C395 O406 1.251 . S
C395 O407 1.268 . S
O396 Nd376 2.500 1_655 S
O396 C378 1.258 . S
O397 Nd376 2.492 1_655 S
O397 C378 1.239 . S
O398 Nd376 2.487 . S
O398 C385 1.241 . S
O399 Nd376 2.682 . S
O399 Nd377 2.414 . S
O399 C385 1.273 . S
O400 Nd376 2.410 1_655 S
O400 C386 1.251 . S
O401 Nd377 2.424 1_655 S
O401 C386 1.268 . S
O402 Nd377 2.500 1_554 S
O402 C387 1.258 . S
O403 Nd377 2.492 1_554 S
O403 C387 1.239 . S
O404 Nd377 2.487 . S
O404 C394 1.241 . S
O405 Nd376 2.414 . S
O405 Nd377 2.682 . S
O405 C394 1.273 . S
O406 Nd377 2.410 . S
O406 C395 1.251 . S
O407 Nd376 2.424 . S
O407 C395 1.268 . S
H408 C380 0.930 . S
H409 C381 0.929 . S
H410 C383 0.930 . S
H411 C384 0.929 . S
H412 C389 0.930 . S
H413 C390 0.929 . S
H414 C392 0.930 . S
H415 C393 0.929 . S
C416 C417 1.387 . S
C416 H420 0.950 . S
C416 C425 1.390 . S
C417 C416 1.387 . S
C417 C419 1.387 . S
H418 C425 0.950 . S
C419 C417 1.387 . S
C419 C421 1.390 . S
C419 H423 0.950 . S
H420 C416 0.950 . S
C421 C419 1.390 . S
C421 C422 1.387 . S
C421 H424 0.950 . S
C422 C421 1.387 . S
C422 C425 1.387 . S
H423 C419 0.950 . S
H424 C421 0.950 . S
C425 C416 1.390 . S
C425 H418 0.950 . S
C425 C422 1.387 . S
C426 C427 1.387 . S
C426 H430 0.950 . S
C426 C435 1.390 . S
C427 C426 1.387 . S
C427 C429 1.387 . S
H428 C435 0.950 . S
C429 C427 1.387 . S
C429 C431 1.390 . S
C429 H433 0.950 . S
H430 C426 0.950 . S
C431 C429 1.390 . S
C431 C432 1.387 . S
C431 H434 0.950 . S
C432 C431 1.387 . S
C432 C435 1.387 . S
H433 C429 0.950 . S
H434 C431 0.950 . S
C435 C426 1.390 . S
C435 H428 0.950 . S
C435 C432 1.387 . S
C436 C437 1.387 . S
C436 H440 0.950 . S
C436 C445 1.390 . S
C437 C436 1.387 . S
C437 C439 1.387 . S
H438 C445 0.950 . S
C439 C437 1.387 . S
C439 C441 1.390 . S
C439 H443 0.950 . S
H440 C436 0.950 . S
C441 C439 1.390 . S
C441 C442 1.387 . S
C441 H444 0.950 . S
C442 C441 1.387 . S
C442 C445 1.387 . S
H443 C439 0.950 . S
H444 C441 0.950 . S
C445 C436 1.390 . S
C445 H438 0.950 . S
C445 C442 1.387 . S
C446 C447 1.387 . S
C446 H450 0.950 . S
C446 C455 1.390 . S
C447 C446 1.387 . S
C447 C449 1.387 . S
H448 C455 0.950 . S
C449 C447 1.387 . S
C449 C451 1.390 . S
C449 H453 0.950 . S
H450 C446 0.950 . S
C451 C449 1.390 . S
C451 C452 1.387 . S
C451 H454 0.950 . S
C452 C451 1.387 . S
C452 C455 1.387 . S
H453 C449 0.950 . S
H454 C451 0.950 . S
C455 C446 1.390 . S
C455 H448 0.950 . S
C455 C452 1.387 . S
C456 C457 1.387 1_545 S
C456 H460 0.950 1_556 S
C456 C465 1.390 . S
C457 C456 1.387 1_565 S
C457 C459 1.387 . S
H458 C465 0.950 . S
C459 C457 1.387 . S
C459 C461 1.390 . S
C459 H463 0.950 . S
H460 C456 0.950 1_554 S
C461 C459 1.390 . S
C461 C462 1.387 1_565 S
C461 H464 0.950 . S
C462 C461 1.387 1_545 S
C462 C465 1.387 . S
H463 C459 0.950 . S
H464 C461 0.950 . S
C465 C456 1.390 . S
C465 H458 0.950 . S
C465 C462 1.387 . S
C466 C467 1.387 . S
C466 H470 0.950 . S
C466 C475 1.390 . S
C467 C466 1.387 . S
C467 C469 1.387 . S
H468 C475 0.950 . S
C469 C467 1.387 . S
C469 C471 1.390 . S
C469 H473 0.950 1_565 S
H470 C466 0.950 . S
C471 C469 1.390 . S
C471 C472 1.387 . S
C471 H474 0.950 1_565 S
C472 C471 1.387 . S
C472 C475 1.387 . S
H473 C469 0.950 1_545 S
H474 C471 0.950 1_545 S
C475 C466 1.390 . S
C475 H468 0.950 . S
C475 C472 1.387 . S
C476 C477 1.387 . S
C476 H480 0.950 . S
C476 C485 1.390 . S
C477 C476 1.387 . S
C477 C479 1.387 . S
H478 C485 0.950 . S
C479 C477 1.387 . S
C479 C481 1.390 . S
C479 H483 0.950 1_556 S
H480 C476 0.950 . S
C481 C479 1.390 . S
C481 C482 1.387 . S
C481 H484 0.950 1_556 S
C482 C481 1.387 . S
C482 C485 1.387 . S
H483 C479 0.950 1_554 S
H484 C481 0.950 1_554 S
C485 C476 1.390 . S
C485 H478 0.950 . S
C485 C482 1.387 . S
C486 C487 1.387 . S
C486 H490 0.950 . S
C486 C495 1.390 . S
C487 C486 1.387 . S
C487 C489 1.387 . S
H488 C495 0.950 1_455 S
C489 C487 1.387 . S
C489 C491 1.390 . S
C489 H493 0.950 . S
H490 C486 0.950 . S
C491 C489 1.390 . S
C491 C492 1.387 . S
C491 H494 0.950 . S
C492 C491 1.387 . S
C492 C495 1.387 . S
H493 C489 0.950 . S
H494 C491 0.950 . S
C495 C486 1.390 . S
C495 H488 0.950 1_655 S
C495 C492 1.387 . S
C496 C497 1.387 . S
C496 H500 0.950 . S
C496 C505 1.390 . S
C497 C496 1.387 . S
C497 C499 1.387 . S
H498 C505 0.950 . S
C499 C497 1.387 . S
C499 C501 1.390 . S
C499 H503 0.950 . S
H500 C496 0.950 . S
C501 C499 1.390 . S
C501 C502 1.387 . S
C501 H504 0.950 . S
C502 C501 1.387 . S
C502 C505 1.387 . S
H503 C499 0.950 . S
H504 C501 0.950 . S
C505 C496 1.390 . S
C505 H498 0.950 . S
C505 C502 1.387 . S
C506 C507 1.387 . S
C506 H510 0.950 . S
C506 C515 1.390 . S
C507 C506 1.387 . S
C507 C509 1.387 . S
H508 C515 0.950 . S
C509 C507 1.387 . S
C509 C511 1.390 . S
C509 H513 0.950 . S
H510 C506 0.950 . S
C511 C509 1.390 . S
C511 C512 1.387 . S
C511 H514 0.950 . S
C512 C511 1.387 . S
C512 C515 1.387 . S
H513 C509 0.950 . S
H514 C511 0.950 . S
C515 C506 1.390 . S
C515 H508 0.950 . S
C515 C512 1.387 . S
C516 C517 1.387 . S
C516 H520 0.950 . S
C516 C525 1.390 . S
C517 C516 1.387 . S
C517 C519 1.387 . S
H518 C525 0.950 . S
C519 C517 1.387 . S
C519 C521 1.390 . S
C519 H523 0.950 . S
H520 C516 0.950 . S
C521 C519 1.390 . S
C521 C522 1.387 . S
C521 H524 0.950 . S
C522 C521 1.387 . S
C522 C525 1.387 . S
H523 C519 0.950 . S
H524 C521 0.950 . S
C525 C516 1.390 . S
C525 H518 0.950 . S
C525 C522 1.387 . S
C526 C527 1.387 . S
C526 H530 0.950 . S
C526 C535 1.390 . S
C527 C526 1.387 . S
C527 C529 1.387 . S
H528 C535 0.950 . S
C529 C527 1.387 . S
C529 C531 1.390 . S
C529 H533 0.950 . S
H530 C526 0.950 . S
C531 C529 1.390 . S
C531 C532 1.387 . S
C531 H534 0.950 . S
C532 C531 1.387 . S
C532 C535 1.387 . S
H533 C529 0.950 . S
H534 C531 0.950 . S
C535 C526 1.390 . S
C535 H528 0.950 . S
C535 C532 1.387 . S
C536 C537 1.387 . S
C536 H540 0.950 . S
C536 C545 1.390 . S
C537 C536 1.387 . S
C537 C539 1.387 . S
H538 C545 0.950 . S
C539 C537 1.387 . S
C539 C541 1.390 . S
C539 H543 0.950 . S
H540 C536 0.950 . S
C541 C539 1.390 . S
C541 C542 1.387 . S
C541 H544 0.950 1_556 S
C542 C541 1.387 . S
C542 C545 1.387 . S
H543 C539 0.950 . S
H544 C541 0.950 1_554 S
C545 C536 1.390 . S
C545 H538 0.950 . S
C545 C542 1.387 . S
C546 C547 1.387 . S
C546 H550 0.950 . S
C546 C555 1.390 1_565 S
C547 C546 1.387 . S
C547 C549 1.387 1_565 S
H548 C555 0.950 . S
C549 C547 1.387 1_545 S
C549 C551 1.390 . S
C549 H553 0.950 . S
H550 C546 0.950 . S
C551 C549 1.390 . S
C551 C552 1.387 . S
C551 H554 0.950 . S
C552 C551 1.387 . S
C552 C555 1.387 . S
H553 C549 0.950 . S
H554 C551 0.950 . S
C555 C546 1.390 1_545 S
C555 H548 0.950 . S
C555 C552 1.387 . S
C556 C557 1.387 . S
C556 H560 0.950 . S
C556 C565 1.390 . S
C557 C556 1.387 . S
C557 C559 1.387 . S
H558 C565 0.950 . S
C559 C557 1.387 . S
C559 C561 1.390 . S
C559 H563 0.950 . S
H560 C556 0.950 . S
C561 C559 1.390 . S
C561 C562 1.387 . S
C561 H564 0.950 . S
C562 C561 1.387 . S
C562 C565 1.387 . S
H563 C559 0.950 . S
H564 C561 0.950 . S
C565 C556 1.390 . S
C565 H558 0.950 . S
C565 C562 1.387 . S
C566 C567 1.387 . S
C566 H570 0.950 . S
C566 C575 1.390 . S
C567 C566 1.387 . S
C567 C569 1.387 . S
H568 C575 0.950 . S
C569 C567 1.387 . S
C569 C571 1.390 . S
C569 H573 0.950 . S
H570 C566 0.950 . S
C571 C569 1.390 . S
C571 C572 1.387 . S
C571 H574 0.950 . S
C572 C571 1.387 . S
C572 C575 1.387 . S
H573 C569 0.950 . S
H574 C571 0.950 . S
C575 C566 1.390 . S
C575 H568 0.950 . S
C575 C572 1.387 . S
C576 C577 1.387 . S
C576 H580 0.950 . S
C576 C585 1.390 . S
C577 C576 1.387 . S
C577 C579 1.387 . S
H578 C585 0.950 . S
C579 C577 1.387 . S
C579 C581 1.390 . S
C579 H583 0.950 . S
H580 C576 0.950 . S
C581 C579 1.390 . S
C581 C582 1.387 . S
C581 H584 0.950 . S
C582 C581 1.387 . S
C582 C585 1.387 . S
H583 C579 0.950 . S
H584 C581 0.950 . S
C585 C576 1.390 . S
C585 H578 0.950 . S
C585 C582 1.387 . S
C586 C587 1.387 . S
C586 H590 0.950 . S
C586 C595 1.390 . S
C587 C586 1.387 . S
C587 C589 1.387 . S
H588 C595 0.950 . S
C589 C587 1.387 . S
C589 C591 1.390 . S
C589 H593 0.950 . S
H590 C586 0.950 . S
C591 C589 1.390 . S
C591 C592 1.387 . S
C591 H594 0.950 . S
C592 C591 1.387 . S
C592 C595 1.387 . S
H593 C589 0.950 . S
H594 C591 0.950 . S
C595 C586 1.390 . S
C595 H588 0.950 . S
C595 C592 1.387 . S
C596 C597 1.387 1_556 S
C596 H600 0.950 . S
C596 C605 1.390 . S
C597 C596 1.387 1_554 S
C597 C599 1.387 . S
H598 C605 0.950 . S
C599 C597 1.387 . S
C599 C601 1.390 . S
C599 H603 0.950 . S
H600 C596 0.950 . S
C601 C599 1.390 . S
C601 C602 1.387 1_554 S
C601 H604 0.950 . S
C602 C601 1.387 1_556 S
C602 C605 1.387 . S
H603 C599 0.950 . S
H604 C601 0.950 . S
C605 C596 1.390 . S
C605 H598 0.950 . S
C605 C602 1.387 . S
C606 C607 1.387 . S
C606 H610 0.950 . S
C606 C615 1.390 . S
C607 C606 1.387 . S
C607 C609 1.387 . S
H608 C615 0.950 . S
C609 C607 1.387 . S
C609 C611 1.390 . S
C609 H613 0.950 . S
H610 C606 0.950 . S
C611 C609 1.390 . S
C611 C612 1.387 . S
C611 H614 0.950 . S
C612 C611 1.387 . S
C612 C615 1.387 . S
H613 C609 0.950 . S
H614 C611 0.950 . S
C615 C606 1.390 . S
C615 H608 0.950 . S
C615 C612 1.387 . S
C616 C617 1.387 . S
C616 H620 0.950 . S
C616 C625 1.390 . S
C617 C616 1.387 . S
C617 C619 1.387 . S
H618 C625 0.950 . S
C619 C617 1.387 . S
C619 C621 1.390 . S
C619 H623 0.950 . S
H620 C616 0.950 . S
C621 C619 1.390 . S
C621 C622 1.387 . S
C621 H624 0.950 . S
C622 C621 1.387 . S
C622 C625 1.387 . S
H623 C619 0.950 . S
H624 C621 0.950 . S
C625 C616 1.390 . S
C625 H618 0.950 . S
C625 C622 1.387 . S
C626 C627 1.387 . S
C626 H630 0.950 1_565 S
C626 C635 1.390 . S
C627 C626 1.387 . S
C627 C629 1.387 . S
H628 C635 0.950 1_545 S
C629 C627 1.387 . S
C629 C631 1.390 . S
C629 H633 0.950 . S
H630 C626 0.950 1_545 S
C631 C629 1.390 . S
C631 C632 1.387 . S
C631 H634 0.950 . S
C632 C631 1.387 . S
C632 C635 1.387 . S
H633 C629 0.950 . S
H634 C631 0.950 . S
C635 C626 1.390 . S
C635 H628 0.950 1_565 S
C635 C632 1.387 . S
C636 C637 1.387 . S
C636 H640 0.950 . S
C636 C645 1.390 . S
C637 C636 1.387 . S
C637 C639 1.387 . S
H638 C645 0.950 . S
C639 C637 1.387 . S
C639 C641 1.390 . S
C639 H643 0.950 . S
H640 C636 0.950 . S
C641 C639 1.390 . S
C641 C642 1.387 . S
C641 H644 0.950 . S
C642 C641 1.387 . S
C642 C645 1.387 . S
H643 C639 0.950 . S
H644 C641 0.950 . S
C645 C636 1.390 . S
C645 H638 0.950 . S
C645 C642 1.387 . S
C646 C647 1.387 . S
C646 H650 0.950 . S
C646 C655 1.390 . S
C647 C646 1.387 . S
C647 C649 1.387 . S
H648 C655 0.950 . S
C649 C647 1.387 . S
C649 C651 1.390 . S
C649 H653 0.950 . S
H650 C646 0.950 . S
C651 C649 1.390 . S
C651 C652 1.387 . S
C651 H654 0.950 . S
C652 C651 1.387 . S
C652 C655 1.387 . S
H653 C649 0.950 . S
H654 C651 0.950 . S
C655 C646 1.390 . S
C655 H648 0.950 . S
C655 C652 1.387 . S
C417 C215 1.505 . S
C422 C265 1.452 . S
C432 C305 1.951 . S
C427 C247 2.149 . S
C442 C354 1.415 . S
C437 C151 1.296 . S
C452 C385 1.918 . S
C447 C183 2.054 . S
C462 C274 1.450 . S
C457 C87 1.358 . S
C467 C119 1.915 . S
C472 C314 1.951 1_554 S
C477 C23 1.447 . S
C482 C345 1.414 . S
C487 C55 1.819 1_556 S
C492 C394 1.917 1_655 S
C502 C275 1.602 . S
C497 C189 1.448 . S
C512 C315 1.698 . S
C507 C221 1.592 . S
C522 C351 0.848 . S
C517 C253 0.859 . S
C527 C157 1.359 . S
C532 C395 1.641 . S
C537 C61 1.153 . S
C542 C266 1.602 1_655 S
C552 C306 1.700 . S
C547 C93 1.342 . S
C562 C342 0.846 . S
C557 C125 0.822 . S
C567 C29 1.468 . S
C572 C386 1.640 . S
C577 C177 1.893 . S
C582 C271 1.948 . S
C587 C209 1.665 . S
C592 C311 1.680 . S
C602 C355 2.735 . S
C597 C241 2.479 . S
C612 C391 1.632 . S
C607 C145 1.518 . S
C617 C49 1.797 . S
C622 C262 1.948 . S
C632 C302 1.680 . S
C627 C81 1.707 . S
C642 C346 2.735 . S
C637 C113 2.352 . S
C647 C17 1.673 . S
C652 C382 1.633 . S
