# Generated by pormake.
# Topology zzz, (3,6)-cn, num edge types: 1
# Building blocks:
#     Node 0, Type 0, BuildingBlock: VETTIZ_charged_linker_0, # of connection points: 3
#     Node 1, Type 0, BuildingBlock: VETTIZ_charged_linker_0, # of connection points: 3
#     Node 2, Type 0, BuildingBlock: VETTIZ_charged_linker_0, # of connection points: 3
#     Node 3, Type 0, BuildingBlock: VETTIZ_charged_linker_0, # of connection points: 3
#     Node 4, Type 0, BuildingBlock: VETTIZ_charged_linker_0, # of connection points: 3
#     Node 5, Type 0, BuildingBlock: VETTIZ_charged_linker_0, # of connection points: 3
#     Node 6, Type 0, BuildingBlock: VETTIZ_charged_linker_0, # of connection points: 3
#     Node 7, Type 0, BuildingBlock: VETTIZ_charged_linker_0, # of connection points: 3
#     Node 8, Type 1, BuildingBlock: CUKXOW_clean_sbu_0, # of connection points: 6
#     Node 9, Type 1, BuildingBlock: CUKXOW_clean_sbu_0, # of connection points: 6
#     Node 10, Type 1, BuildingBlock: CUKXOW_clean_sbu_0, # of connection points: 6
#     Node 11, Type 1, BuildingBlock: CUKXOW_clean_sbu_0, # of connection points: 6
#     Edge 12, Type (0, 1), BuildingBlock: XUDNAN_clean_linker_2, # of connection points: 2
#     Edge 13, Type (0, 1), BuildingBlock: XUDNAN_clean_linker_2, # of connection points: 2
#     Edge 14, Type (0, 1), BuildingBlock: XUDNAN_clean_linker_2, # of connection points: 2
#     Edge 15, Type (0, 1), BuildingBlock: XUDNAN_clean_linker_2, # of connection points: 2
#     Edge 16, Type (0, 1), BuildingBlock: XUDNAN_clean_linker_2, # of connection points: 2
#     Edge 17, Type (0, 1), BuildingBlock: XUDNAN_clean_linker_2, # of connection points: 2
#     Edge 18, Type (0, 1), BuildingBlock: XUDNAN_clean_linker_2, # of connection points: 2
#     Edge 19, Type (0, 1), BuildingBlock: XUDNAN_clean_linker_2, # of connection points: 2
#     Edge 20, Type (0, 1), BuildingBlock: XUDNAN_clean_linker_2, # of connection points: 2
#     Edge 21, Type (0, 1), BuildingBlock: XUDNAN_clean_linker_2, # of connection points: 2
#     Edge 22, Type (0, 1), BuildingBlock: XUDNAN_clean_linker_2, # of connection points: 2
#     Edge 23, Type (0, 1), BuildingBlock: XUDNAN_clean_linker_2, # of connection points: 2
#     Edge 24, Type (0, 1), BuildingBlock: XUDNAN_clean_linker_2, # of connection points: 2
#     Edge 25, Type (0, 1), BuildingBlock: XUDNAN_clean_linker_2, # of connection points: 2
#     Edge 26, Type (0, 1), BuildingBlock: XUDNAN_clean_linker_2, # of connection points: 2
#     Edge 27, Type (0, 1), BuildingBlock: XUDNAN_clean_linker_2, # of connection points: 2
#     Edge 28, Type (0, 1), BuildingBlock: XUDNAN_clean_linker_2, # of connection points: 2
#     Edge 29, Type (0, 1), BuildingBlock: XUDNAN_clean_linker_2, # of connection points: 2
#     Edge 30, Type (0, 1), BuildingBlock: XUDNAN_clean_linker_2, # of connection points: 2
#     Edge 31, Type (0, 1), BuildingBlock: XUDNAN_clean_linker_2, # of connection points: 2
#     Edge 32, Type (0, 1), BuildingBlock: XUDNAN_clean_linker_2, # of connection points: 2
#     Edge 33, Type (0, 1), BuildingBlock: XUDNAN_clean_linker_2, # of connection points: 2
#     Edge 34, Type (0, 1), BuildingBlock: XUDNAN_clean_linker_2, # of connection points: 2
#     Edge 35, Type (0, 1), BuildingBlock: XUDNAN_clean_linker_2, # of connection points: 2
# Relax obj value: 0.220
# Max RMSD: 0.235
# Mean RMSD: 0.190
data_MOF--net-zzz--node1-CUKXOW_clean_sbu_0--node2-VETTIZ_charged_linker_0--edge1-XUDNAN_clean_linker_2
_symmetry_space_group_name_H-M    P1
_symmetry_Int_Tables_number       1
_symmetry_cell_setting            triclinic
loop_
_symmetry_equiv_pos_as_xyz
'x, y, z'
_cell_length_a     57.774197
_cell_length_b     56.678859
_cell_length_c     20.463875
_cell_angle_alpha  92.643975
_cell_angle_beta   88.057434
_cell_angle_gamma 95.425222
loop_
_atom_site_label
_atom_site_type_symbol
_atom_site_fract_x
_atom_site_fract_y
_atom_site_fract_z
_atom_type_partial_charge
C0 C 0.79251 0.48513 0.32039 0.0
C1 C 0.81298 0.47609 0.34097 0.0
C2 C 0.82244 0.45791 0.3024 0.0
C3 C 0.79434 0.46108 0.21951 0.0
C4 C 0.78318 0.47692 0.25968 0.0
C5 C 0.76145 0.48368 0.22824 0.0
H6 H 0.70004 0.48315 0.94811 0.0
C7 C 0.78358 0.45941 0.15518 0.0
C8 C 0.76394 0.47221 0.15952 0.0
H9 H 0.67703 0.50331 0.14421 0.0
H10 H 0.71435 0.49554 0.18582 0.0
H11 H 0.7509 0.50928 0.95869 0.0
H12 H 0.72428 0.43667 0.98193 0.0
H13 H 0.74936 0.43812 0.92934 0.0
H14 H 0.72441 0.45219 0.90719 0.0
H15 H 0.74908 0.48839 0.89028 0.0
H16 H 0.77451 0.49251 0.94006 0.0
C17 C 0.76229 0.51095 0.22669 0.0
C18 C 0.73994 0.47228 0.26641 0.0
C19 C 0.83356 0.43333 0.96371 0.0
C20 C 0.83424 0.4391 0.89772 0.0
C21 C 0.81438 0.44727 0.87136 0.0
C22 C 0.79498 0.45164 0.91201 0.0
C23 C 0.79574 0.44825 0.97964 0.0
C24 C 0.81479 0.43901 0.0041 0.0
C25 C 0.81438 0.43938 0.07747 0.0
C26 C 0.79233 0.45135 0.09338 0.0
C27 C 0.78107 0.45574 0.03616 0.0
C28 C 0.83675 0.45424 0.10251 0.0
C29 C 0.81172 0.41333 0.09838 0.0
C30 C 0.70309 0.48623 0.99986 0.0
C31 C 0.68546 0.4937 0.04283 0.0
C32 C 0.69017 0.49724 0.11011 0.0
C33 C 0.71172 0.49259 0.13431 0.0
C34 C 0.72871 0.48409 0.091 0.0
C35 C 0.72433 0.4813 0.02485 0.0
C36 C 0.74422 0.4717 0.98607 0.0
C37 C 0.76016 0.46705 0.0405 0.0
C38 C 0.75139 0.47494 0.10188 0.0
C39 C 0.75525 0.49131 0.94109 0.0
C40 C 0.7352 0.44845 0.94876 0.0
H41 H 0.82158 0.43695 0.21452 0.0
H42 H 0.78444 0.49859 0.34999 0.0
H43 H 0.72562 0.46576 0.23377 0.0
H44 H 0.73341 0.48493 0.30421 0.0
H45 H 0.74407 0.45632 0.2918 0.0
H46 H 0.7791 0.51834 0.20442 0.0
H47 H 0.76062 0.51901 0.27694 0.0
H48 H 0.74832 0.51675 0.19747 0.0
H49 H 0.84844 0.42671 0.98517 0.0
H50 H 0.81443 0.45173 0.82046 0.0
H51 H 0.7806 0.45854 0.88991 0.0
H52 H 0.83272 0.46899 0.1371 0.0
H53 H 0.84723 0.4632 0.06268 0.0
H54 H 0.84844 0.44299 0.12635 0.0
H55 H 0.79932 0.40222 0.06668 0.0
H56 H 0.80443 0.41147 0.14874 0.0
H57 H 0.82867 0.40552 0.09427 0.0
H58 H 0.83803 0.4505 0.31668 0.0
C59 C 0.81315 0.4503 0.24228 0.0
C60 C 0.92044 0.80245 0.8588 0.0
C61 C 0.91402 0.82588 0.86388 0.0
C62 C 0.89588 0.83122 0.90867 0.0
C63 C 0.89775 0.79365 0.95732 0.0
C64 C 0.91167 0.78639 0.9057 0.0
C65 C 0.91806 0.76156 0.91351 0.0
H66 H 0.95568 0.68297 0.08888 0.0
C67 C 0.8983 0.77695 0.00981 0.0
C68 C 0.90783 0.75688 0.98229 0.0
H69 H 0.9154 0.66653 0.91447 0.0
H70 H 0.8999 0.70494 0.92768 0.0
H71 H 0.96944 0.7425 0.07432 0.0
H72 H 0.90701 0.70765 0.1655 0.0
H73 H 0.92221 0.72967 0.21688 0.0
H74 H 0.93546 0.70313 0.19296 0.0
H75 H 0.97117 0.72505 0.14494 0.0
H76 H 0.96277 0.75482 0.15297 0.0
C77 C 0.94477 0.76103 0.91052 0.0
C78 C 0.90656 0.74515 0.85928 0.0
C79 C 0.90292 0.81628 0.23581 0.0
C80 C 0.9196 0.81606 0.28406 0.0
C81 C 0.93284 0.79629 0.28424 0.0
C82 C 0.93059 0.77829 0.23403 0.0
C83 C 0.91581 0.78068 0.18183 0.0
C84 C 0.90287 0.79999 0.18276 0.0
C85 C 0.89316 0.80393 0.11742 0.0
C86 C 0.90054 0.7824 0.07811 0.0
C87 C 0.91319 0.7683 0.11667 0.0
C88 C 0.90478 0.82791 0.09193 0.0
C89 C 0.86644 0.80321 0.12434 0.0
C90 C 0.94415 0.6877 0.05204 0.0
C91 C 0.93875 0.67235 0.99662 0.0
C92 C 0.92201 0.67871 0.95322 0.0
C93 C 0.9135 0.7009 0.95903 0.0
C94 C 0.92186 0.71687 0.00807 0.0
C95 C 0.93466 0.70977 0.05774 0.0
C96 C 0.93554 0.7282 0.1144 0.0
C97 C 0.92073 0.7467 0.08876 0.0
C98 C 0.91504 0.74028 0.02432 0.0
C99 C 0.96109 0.7382 0.12265 0.0
C100 C 0.92452 0.71662 0.1761 0.0
H101 H 0.87403 0.81949 0.98973 0.0
H102 H 0.9336 0.79741 0.82336 0.0
H103 H 0.90836 0.75372 0.81134 0.0
H104 H 0.88771 0.74087 0.87049 0.0
H105 H 0.91518 0.72854 0.85206 0.0
H106 H 0.95303 0.77365 0.94798 0.0
H107 H 0.95213 0.76582 0.86154 0.0
H108 H 0.94968 0.74302 0.9195 0.0
H109 H 0.89184 0.83062 0.23468 0.0
H110 H 0.94579 0.79537 0.32078 0.0
H111 H 0.94147 0.76401 0.23538 0.0
H112 H 0.91345 0.83956 0.13068 0.0
H113 H 0.89188 0.8388 0.07232 0.0
H114 H 0.91862 0.82509 0.05415 0.0
H115 H 0.85918 0.78741 0.15116 0.0
H116 H 0.85825 0.80199 0.07605 0.0
H117 H 0.86119 0.81934 0.15169 0.0
H118 H 0.88946 0.8486 0.91083 0.0
C119 C 0.88744 0.81489 0.9551 0.0
C120 C 0.81397 0.99157 0.1044 0.0
C121 C 0.82385 0.99352 0.04024 0.0
C122 C 0.81025 0.00135 0.99099 0.0
C123 C 0.77883 0.00704 0.06927 0.0
C124 C 0.7913 0.99834 0.11775 0.0
C125 C 0.77753 0.99791 0.18238 0.0
H126 H 0.67648 0.02679 0.33904 0.0
C127 C 0.7577 0.01592 0.09913 0.0
C128 C 0.75684 0.01133 0.16629 0.0
H129 H 0.72598 0.98333 0.41488 0.0
H130 H 0.75189 0.99156 0.32005 0.0
H131 H 0.7016 0.06626 0.30513 0.0
H132 H 0.68096 0.00751 0.18014 0.0
H133 H 0.67399 0.03556 0.15397 0.0
H134 H 0.66453 0.0266 0.2326 0.0
H135 H 0.68405 0.07046 0.23807 0.0
H136 H 0.7154 0.07579 0.23084 0.0
C137 C 0.79225 0.01096 0.2367 0.0
C138 C 0.77003 0.97172 0.19638 0.0
C139 C 0.69334 0.04453 0.96931 0.0
C140 C 0.67473 0.05762 0.99132 0.0
C141 C 0.67704 0.07191 0.0495 0.0
C142 C 0.695 0.0693 0.09161 0.0
C143 C 0.71004 0.05196 0.07532 0.0
C144 C 0.71144 0.04257 0.01243 0.0
C145 C 0.73334 0.03007 0.00177 0.0
C146 C 0.74119 0.02945 0.07251 0.0
C147 C 0.72616 0.04102 0.11497 0.0
C148 C 0.75068 0.04571 0.95854 0.0
C149 C 0.72727 0.00487 0.97158 0.0
C150 C 0.69298 0.01917 0.33651 0.0
C151 C 0.69895 0.0044 0.38512 0.0
C152 C 0.72059 0.99455 0.37789 0.0
C153 C 0.73551 0.99912 0.32254 0.0
C154 C 0.72856 0.01331 0.27326 0.0
C155 C 0.70772 0.02337 0.28204 0.0
C156 C 0.70222 0.03775 0.2261 0.0
C157 C 0.7232 0.03448 0.18082 0.0
C158 C 0.7384 0.0196 0.20721 0.0
C159 C 0.70075 0.06389 0.25098 0.0
C160 C 0.67925 0.02628 0.19636 0.0
H161 H 0.7785 0.01383 0.96582 0.0
H162 H 0.82374 0.98524 0.14315 0.0
H163 H 0.76319 0.96197 0.1516 0.0
H164 H 0.75594 0.96967 0.23381 0.0
H165 H 0.78504 0.96276 0.21237 0.0
H166 H 0.79968 0.02864 0.22059 0.0
H167 H 0.80685 0.00067 0.24881 0.0
H168 H 0.78181 0.01404 0.28198 0.0
H169 H 0.69282 0.03464 0.92278 0.0
H170 H 0.66382 0.08349 0.06501 0.0
H171 H 0.69615 0.07983 0.13643 0.0
H172 H 0.74382 0.06261 0.94633 0.0
H173 H 0.7547 0.03645 0.91105 0.0
H174 H 0.76723 0.05096 0.98374 0.0
H175 H 0.71325 0.99518 0.00117 0.0
H176 H 0.74243 0.99427 0.96968 0.0
H177 H 0.72118 0.00563 0.92088 0.0
H178 H 0.8172 0.00329 0.94152 0.0
C179 C 0.78791 0.00803 0.00519 0.0
C180 C 0.59528 0.71208 0.35278 0.0
C181 C 0.59846 0.68812 0.36382 0.0
C182 C 0.60429 0.67321 0.3098 0.0
C183 C 0.60039 0.70436 0.23581 0.0
C184 C 0.59655 0.71987 0.28812 0.0
C185 C 0.59308 0.74432 0.26526 0.0
H186 H 0.57648 0.81215 0.00669 0.0
C187 C 0.59775 0.71641 0.17483 0.0
C188 C 0.59411 0.74015 0.19092 0.0
H189 H 0.5776 0.83527 0.2108 0.0
H190 H 0.58684 0.7961 0.23973 0.0
H191 H 0.62068 0.77962 0.00498 0.0
H192 H 0.5465 0.7679 0.02622 0.0
H193 H 0.55488 0.74117 0.99112 0.0
H194 H 0.56074 0.76807 0.94714 0.0
H195 H 0.60076 0.78239 0.94087 0.0
H196 H 0.61149 0.75432 0.95572 0.0
C197 C 0.6135 0.76174 0.2894 0.0
C198 C 0.56894 0.75098 0.29048 0.0
C199 C 0.58244 0.66561 0.96883 0.0
C200 C 0.57504 0.67059 0.90657 0.0
C201 C 0.57642 0.69447 0.88886 0.0
C202 C 0.58309 0.71297 0.93433 0.0
C203 C 0.58832 0.70756 0.9983 0.0
C204 C 0.58889 0.68419 0.01358 0.0
C205 C 0.59447 0.68153 0.0838 0.0
C206 C 0.59573 0.70719 0.10944 0.0
C207 C 0.59198 0.72228 0.05938 0.0
C208 C 0.61838 0.67113 0.0854 0.0
C209 C 0.57393 0.66602 0.11581 0.0
C210 C 0.57866 0.80891 0.05779 0.0
C211 C 0.57596 0.82675 0.10654 0.0
C212 C 0.57953 0.8218 0.17225 0.0
C213 C 0.58478 0.79905 0.18892 0.0
C214 C 0.58644 0.78112 0.13934 0.0
C215 C 0.58358 0.78646 0.07503 0.0
C216 C 0.58468 0.76544 0.02834 0.0
C217 C 0.58942 0.74655 0.07459 0.0
C218 C 0.59042 0.75561 0.13989 0.0
C219 C 0.60537 0.77061 0.97939 0.0
C220 C 0.56062 0.76032 0.99604 0.0
H221 H 0.60941 0.66876 0.20795 0.0
H222 H 0.59129 0.72423 0.39307 0.0
H223 H 0.55554 0.73581 0.28216 0.0
H224 H 0.56298 0.76591 0.26503 0.0
H225 H 0.56905 0.75564 0.3438 0.0
H226 H 0.63016 0.75336 0.28441 0.0
H227 H 0.61082 0.76713 0.3418 0.0
H228 H 0.6162 0.77778 0.26049 0.0
H229 H 0.58153 0.64762 0.98488 0.0
H230 H 0.57145 0.69891 0.8407 0.0
H231 H 0.58298 0.73077 0.91878 0.0
H232 H 0.62843 0.67305 0.03827 0.0
H233 H 0.61624 0.65192 0.0952 0.0
H234 H 0.62984 0.68057 0.1225 0.0
H235 H 0.55699 0.67149 0.10055 0.0
H236 H 0.57327 0.66749 0.1696 0.0
H237 H 0.57458 0.64699 0.10094 0.0
H238 H 0.6065 0.65466 0.31536 0.0
C239 C 0.60561 0.68129 0.24653 0.0
C240 C 0.32336 0.50372 0.30863 0.0
C241 C 0.33222 0.50702 0.37231 0.0
C242 C 0.31888 0.51802 0.42174 0.0
C243 C 0.28932 0.52349 0.34441 0.0
C244 C 0.30178 0.512 0.29586 0.0
C245 C 0.28919 0.51001 0.23178 0.0
H246 H 0.196 0.53899 0.06555 0.0
C247 C 0.26892 0.53205 0.31505 0.0
C248 C 0.26883 0.52471 0.24844 0.0
H249 H 0.24447 0.48865 0.0013 0.0
H250 H 0.26718 0.49892 0.09856 0.0
H251 H 0.19177 0.52163 0.21542 0.0
H252 H 0.22857 0.57945 0.11644 0.0
H253 H 0.22773 0.58948 0.19921 0.0
H254 H 0.20093 0.58274 0.15619 0.0
H255 H 0.17921 0.54371 0.17115 0.0
H256 H 0.18618 0.54908 0.25444 0.0
C257 C 0.28098 0.48354 0.21758 0.0
C258 C 0.30539 0.52106 0.17757 0.0
C259 C 0.2068 0.56947 0.45477 0.0
C260 C 0.18706 0.58019 0.43682 0.0
C261 C 0.18637 0.5886 0.3732 0.0
C262 C 0.20291 0.58281 0.32532 0.0
C263 C 0.22004 0.56835 0.34133 0.0
C264 C 0.22337 0.56404 0.40593 0.0
C265 C 0.24513 0.55179 0.41345 0.0
C266 C 0.25186 0.54642 0.3419 0.0
C267 C 0.2364 0.55539 0.30039 0.0
C268 C 0.23883 0.52878 0.45066 0.0
C269 C 0.26337 0.56964 0.44786 0.0
C270 C 0.21175 0.53045 0.07141 0.0
C271 C 0.21841 0.51307 0.02545 0.0
C272 C 0.23881 0.50202 0.0362 0.0
C273 C 0.25182 0.50782 0.0929 0.0
C274 C 0.24399 0.52435 0.1402 0.0
C275 C 0.22434 0.53545 0.12829 0.0
C276 C 0.217 0.55098 0.18499 0.0
C277 C 0.23536 0.54725 0.23389 0.0
C278 C 0.25126 0.53169 0.2078 0.0
C279 C 0.19227 0.54099 0.20802 0.0
C280 C 0.21849 0.57699 0.16334 0.0
H281 H 0.28843 0.53458 0.44779 0.0
H282 H 0.33305 0.49504 0.26982 0.0
H283 H 0.31329 0.53887 0.19438 0.0
H284 H 0.29605 0.52361 0.13263 0.0
H285 H 0.31971 0.50977 0.16459 0.0
H286 H 0.27628 0.47436 0.26374 0.0
H287 H 0.29487 0.47415 0.19168 0.0
H288 H 0.26505 0.48103 0.18884 0.0
H289 H 0.2083 0.56366 0.50398 0.0
H290 H 0.17194 0.59796 0.3591 0.0
H291 H 0.20081 0.58834 0.27671 0.0
H292 H 0.22325 0.51854 0.42957 0.0
H293 H 0.23488 0.53291 0.50322 0.0
H294 H 0.25286 0.5168 0.44762 0.0
H295 H 0.25837 0.58815 0.44925 0.0
H296 H 0.28054 0.57047 0.42167 0.0
H297 H 0.26563 0.56509 0.49934 0.0
H298 H 0.32529 0.52104 0.47084 0.0
C299 C 0.29761 0.52627 0.40811 0.0
C300 C 0.06222 0.20152 0.51774 0.0
C301 C 0.06558 0.17731 0.51957 0.0
C302 C 0.07848 0.16674 0.46827 0.0
C303 C 0.08081 0.20295 0.40974 0.0
C304 C 0.07011 0.21401 0.46247 0.0
C305 C 0.06682 0.23942 0.44995 0.0
H306 H 0.07401 0.32966 0.2424 0.0
C307 C 0.08319 0.21939 0.3557 0.0
C308 C 0.07539 0.24091 0.37894 0.0
H309 H 0.05642 0.33048 0.44942 0.0
H310 H 0.06066 0.28884 0.45186 0.0
H311 H 0.11596 0.29184 0.23815 0.0
H312 H 0.0416 0.27907 0.21373 0.0
H313 H 0.05588 0.25953 0.1608 0.0
H314 H 0.0606 0.29108 0.14982 0.0
H315 H 0.10092 0.30464 0.17494 0.0
H316 H 0.10892 0.27485 0.16505 0.0
C317 C 0.08252 0.25559 0.49706 0.0
C318 C 0.04052 0.24274 0.45764 0.0
C319 C 0.10162 0.18567 0.12992 0.0
C320 C 0.09862 0.19324 0.06691 0.0
C321 C 0.09301 0.21663 0.05928 0.0
C322 C 0.09022 0.23213 0.11446 0.0
C323 C 0.09227 0.2238 0.17766 0.0
C324 C 0.09783 0.20081 0.18406 0.0
C325 C 0.0963 0.19344 0.25347 0.0
C326 C 0.08884 0.21571 0.28833 0.0
C327 C 0.08703 0.23379 0.2444 0.0
C328 C 0.12096 0.18841 0.27328 0.0
C329 C 0.07751 0.17195 0.25877 0.0
C330 C 0.07119 0.32066 0.28792 0.0
C331 C 0.06499 0.33318 0.34602 0.0
C332 C 0.06114 0.32106 0.40433 0.0
C333 C 0.06377 0.29692 0.40573 0.0
C334 C 0.07011 0.28453 0.34804 0.0
C335 C 0.07347 0.29615 0.28999 0.0
C336 C 0.07895 0.27919 0.23342 0.0
C337 C 0.08049 0.25629 0.26871 0.0
C338 C 0.07488 0.25968 0.33567 0.0
C339 C 0.10243 0.28805 0.20072 0.0
C340 C 0.05835 0.27711 0.18645 0.0
H341 H 0.09503 0.17011 0.37513 0.0
H342 H 0.05273 0.2102 0.55702 0.0
H343 H 0.02996 0.22736 0.43442 0.0
H344 H 0.03561 0.25846 0.43344 0.0
H345 H 0.035 0.24412 0.51009 0.0
H346 H 0.09675 0.24611 0.51595 0.0
H347 H 0.07236 0.26208 0.54016 0.0
H348 H 0.09159 0.27099 0.4724 0.0
H349 H 0.10513 0.16754 0.13734 0.0
H350 H 0.09044 0.22273 0.0109 0.0
H351 H 0.08598 0.24976 0.10613 0.0
H352 H 0.13442 0.2015 0.25222 0.0
H353 H 0.12504 0.17045 0.25515 0.0
H354 H 0.12329 0.19014 0.32673 0.0
H355 H 0.06602 0.17328 0.30282 0.0
H356 H 0.08555 0.1549 0.25831 0.0
H357 H 0.0653 0.17074 0.21758 0.0
H358 H 0.08125 0.1481 0.46804 0.0
C359 C 0.0862 0.17946 0.41366 0.0
C360 C 0.3044 0.01665 0.04706 0.0
C361 C 0.32831 0.02479 0.0376 0.0
C362 C 0.33927 0.03986 0.08637 0.0
C363 C 0.30701 0.03058 0.15992 0.0
C364 C 0.29379 0.02055 0.10968 0.0
C365 C 0.26856 0.01592 0.13412 0.0
H366 H 0.1989 0.99843 0.41259 0.0
C367 C 0.29447 0.0267 0.22165 0.0
C368 C 0.27113 0.01939 0.20877 0.0
H369 H 0.17446 0.00883 0.21985 0.0
H370 H 0.21453 0.01144 0.17631 0.0
H371 H 0.23655 0.96408 0.36464 0.0
H372 H 0.23958 0.03846 0.41559 0.0
H373 H 0.26302 0.02685 0.4524 0.0
H374 H 0.23371 0.01531 0.47261 0.0
H375 H 0.24033 0.97503 0.44739 0.0
H376 H 0.26486 0.97132 0.39209 0.0
C377 C 0.25866 0.99061 0.11379 0.0
C378 C 0.25493 0.03515 0.10632 0.0
C379 C 0.34476 0.00307 0.39954 0.0
C380 C 0.33985 0.9931 0.46049 0.0
C381 C 0.31669 0.9911 0.48514 0.0
C382 C 0.2987 0.99827 0.44836 0.0
C383 C 0.30393 0.00738 0.3862 0.0
C384 C 0.32675 0.01016 0.36365 0.0
C385 C 0.32942 0.02003 0.29682 0.0
C386 C 0.30399 0.02215 0.28204 0.0
C387 C 0.28926 0.01402 0.3335 0.0
C388 C 0.34048 0.00159 0.25019 0.0
C389 C 0.34436 0.04428 0.30147 0.0
C390 C 0.20199 0.00113 0.36085 0.0
C391 C 0.18344 0.00353 0.31993 0.0
C392 C 0.18846 0.00728 0.2528 0.0
C393 C 0.21165 0.00918 0.22772 0.0
C394 C 0.23001 0.00797 0.27041 0.0
C395 C 0.22485 0.00365 0.33565 0.0
C396 C 0.24618 0.00298 0.37486 0.0
C397 C 0.26498 0.01004 0.32442 0.0
C398 C 0.25574 0.01245 0.26236 0.0
C399 C 0.24711 0.97715 0.39635 0.0
C400 C 0.24567 0.02175 0.43229 0.0
H401 H 0.33696 0.05489 0.18344 0.0
H402 H 0.29486 0.00677 0.00849 0.0
H403 H 0.26456 0.05299 0.11319 0.0
H404 H 0.23783 0.03644 0.13075 0.0
H405 H 0.25239 0.03166 0.05303 0.0
H406 H 0.26971 0.97741 0.13186 0.0
H407 H 0.25803 0.98828 0.05966 0.0
H408 H 0.24081 0.98661 0.13418 0.0
H409 H 0.36228 0.00468 0.37879 0.0
H410 H 0.31245 0.9839 0.53263 0.0
H411 H 0.28139 0.99618 0.4693 0.0
H412 H 0.32943 0.98442 0.24882 0.0
H413 H 0.35801 0.99833 0.26632 0.0
H414 H 0.34293 0.00744 0.1996 0.0
H415 H 0.35321 0.04749 0.34891 0.0
H416 H 0.33354 0.05928 0.29684 0.0
H417 H 0.35855 0.04531 0.26345 0.0
H418 H 0.3568 0.04806 0.07839 0.0
C419 C 0.32842 0.04318 0.14732 0.0
C420 C 0.42155 0.27989 0.04494 0.0
C421 C 0.41259 0.30188 0.03467 0.0
C422 C 0.39654 0.31046 0.08169 0.0
C423 C 0.40616 0.28172 0.15577 0.0
C424 C 0.41729 0.26966 0.10625 0.0
C425 C 0.42315 0.24588 0.12928 0.0
H426 H 0.44174 0.18176 0.3932 0.0
C427 C 0.4087 0.2705 0.21696 0.0
C428 C 0.41709 0.24842 0.20269 0.0
H429 H 0.44084 0.15636 0.19047 0.0
H430 H 0.431 0.19488 0.1585 0.0
H431 H 0.46627 0.22466 0.38669 0.0
H432 H 0.39369 0.20926 0.38982 0.0
H433 H 0.4007 0.23496 0.4405 0.0
H434 H 0.41384 0.20811 0.45444 0.0
H435 H 0.4499 0.23403 0.45658 0.0
H436 H 0.45796 0.25386 0.39139 0.0
C437 C 0.44926 0.24335 0.11617 0.0
C438 C 0.40708 0.22608 0.09464 0.0
C439 C 0.43178 0.32666 0.40632 0.0
C440 C 0.43961 0.32307 0.46927 0.0
C441 C 0.43609 0.30001 0.49346 0.0
C442 C 0.42728 0.28072 0.45335 0.0
C443 C 0.42189 0.28448 0.38856 0.0
C444 C 0.42272 0.30727 0.36734 0.0
C445 C 0.41502 0.308 0.29803 0.0
C446 C 0.41093 0.28145 0.2802 0.0
C447 C 0.4163 0.26795 0.33236 0.0
C448 C 0.43502 0.32035 0.25606 0.0
C449 C 0.39268 0.32111 0.29795 0.0
C450 C 0.43888 0.18403 0.34195 0.0
C451 C 0.44177 0.16563 0.2947 0.0
C452 C 0.43879 0.1701 0.22818 0.0
C453 C 0.4328 0.19232 0.20964 0.0
C454 C 0.42962 0.21023 0.25803 0.0
C455 C 0.43266 0.20585 0.32289 0.0
C456 C 0.4286 0.22675 0.36824 0.0
C457 C 0.42154 0.24414 0.32007 0.0
C458 C 0.42236 0.23449 0.2554 0.0
C459 C 0.45173 0.23533 0.40264 0.0
C460 C 0.40819 0.21946 0.41625 0.0
H461 H 0.38074 0.30672 0.17737 0.0
H462 H 0.43244 0.27167 0.00818 0.0
H463 H 0.39049 0.23271 0.0807 0.0
H464 H 0.40172 0.21127 0.12684 0.0
H465 H 0.41557 0.21905 0.04923 0.0
H466 H 0.45992 0.25886 0.13833 0.0
H467 H 0.45341 0.24241 0.06277 0.0
H468 H 0.4548 0.22727 0.13719 0.0
H469 H 0.43384 0.34396 0.38573 0.0
H470 H 0.44077 0.29667 0.54273 0.0
H471 H 0.42542 0.26351 0.47353 0.0
H472 H 0.45099 0.3109 0.2579 0.0
H473 H 0.43923 0.33904 0.27361 0.0
H474 H 0.43039 0.32096 0.20422 0.0
H475 H 0.39147 0.33377 0.3408 0.0
H476 H 0.37679 0.30844 0.29938 0.0
H477 H 0.39241 0.33214 0.25469 0.0
H478 H 0.3874 0.32577 0.07275 0.0
C479 C 0.3932 0.30027 0.14239 0.0
Tb480 Tb 0.99471 0.98171 0.66129 0.0
C481 C 0.04608 0.99803 0.61829 0.0
Tb482 Tb 0.02634 0.01023 0.76399 0.0
O483 O 0.99388 0.01389 0.60556 0.0
O484 O 0.99832 0.01596 0.70625 0.0
O485 O 0.02775 0.98266 0.60636 0.0
C486 C 0.04947 0.04785 0.82326 0.0
O487 O 0.04823 0.01143 0.67337 0.0
C488 C 0.02249 0.96411 0.77122 0.0
C489 C 0.97462 0.99229 0.80707 0.0
O490 O 0.05686 0.02685 0.81576 0.0
O491 O 0.02908 0.0474 0.79847 0.0
O492 O 0.0271 0.97867 0.82142 0.0
O493 O 0.02271 0.97587 0.72038 0.0
O494 O 0.99367 0.00653 0.82129 0.0
O495 O 0.97202 0.98011 0.74995 0.0
C496 C 0.96884 0.94903 0.59033 0.0
O497 O 0.968 0.9718 0.58934 0.0
O498 O 0.98413 0.94461 0.63189 0.0
C499 C 0.99823 0.02796 0.65638 0.0
Tb500 Tb 0.50508 0.01387 0.64723 0.0
C501 C 0.55172 0.98871 0.63811 0.0
Tb502 Tb 0.51342 0.97746 0.7516 0.0
O503 O 0.53347 0.03856 0.68454 0.0
O504 O 0.51493 0.01469 0.74559 0.0
O505 O 0.53716 0.00075 0.60678 0.0
C506 C 0.52825 0.95323 0.8486 0.0
O507 O 0.5465 0.97922 0.69557 0.0
C508 C 0.48445 0.96131 0.66025 0.0
C509 C 0.46674 0.00172 0.76089 0.0
O510 O 0.52921 0.97621 0.84774 0.0
O511 O 0.51914 0.94413 0.79505 0.0
O512 O 0.48513 0.95238 0.71734 0.0
O513 O 0.50181 0.97655 0.65391 0.0
O514 O 0.48229 0.99183 0.79485 0.0
O515 O 0.47135 0.00924 0.70058 0.0
C516 C 0.49128 0.03921 0.55097 0.0
O517 O 0.48782 0.04363 0.61317 0.0
O518 O 0.50233 0.02034 0.54274 0.0
C519 C 0.53232 0.02965 0.74184 0.0
Tb520 Tb 0.5251 0.5149 0.65384 0.0
C521 C 0.47577 0.49513 0.6019 0.0
Tb522 Tb 0.49622 0.47559 0.73154 0.0
O523 O 0.53017 0.48908 0.57261 0.0
O524 O 0.52606 0.47866 0.66929 0.0
O525 O 0.49363 0.51168 0.59722 0.0
C526 C 0.47462 0.43434 0.76859 0.0
O527 O 0.4736 0.47925 0.64851 0.0
C528 C 0.49298 0.51962 0.77309 0.0
C529 C 0.54581 0.49434 0.78134 0.0
O530 O 0.47354 0.45474 0.7996 0.0
O531 O 0.48771 0.43719 0.71627 0.0
O532 O 0.49118 0.50198 0.81191 0.0
O533 O 0.49514 0.51164 0.71533 0.0
O534 O 0.52904 0.47656 0.78101 0.0
O535 O 0.5469 0.51174 0.73918 0.0
C536 C 0.5436 0.55842 0.6258 0.0
O537 O 0.5524 0.5388 0.60689 0.0
O538 O 0.52453 0.55334 0.65936 0.0
C539 C 0.52793 0.47113 0.61082 0.0
Tb540 Tb 0.99338 0.50714 0.64089 0.0
C541 C 0.0305 0.47561 0.57865 0.0
Tb542 Tb 0.03518 0.49731 0.72553 0.0
O543 O 0.01682 0.52779 0.57437 0.0
O544 O 0.02477 0.52552 0.67279 0.0
O545 O 0.00841 0.48033 0.57789 0.0
C546 C 0.07714 0.49335 0.77408 0.0
O547 O 0.04461 0.48313 0.62709 0.0
C548 C 0.99587 0.47128 0.74586 0.0
C549 C 0.99908 0.5308 0.78577 0.0
O550 O 0.06129 0.47595 0.76279 0.0
O551 O 0.06929 0.51298 0.7584 0.0
O552 O 0.01095 0.47672 0.79115 0.0
O553 O 0.00405 0.47895 0.69261 0.0
O554 O 0.02043 0.52413 0.78975 0.0
O555 O 0.98518 0.52415 0.73626 0.0
C556 C 0.95078 0.50919 0.59441 0.0
O557 O 0.96723 0.52646 0.59573 0.0
O558 O 0.95841 0.49077 0.6187 0.0
C559 C 0.03238 0.53306 0.61859 0.0
H560 H 0.16182 0.97364 0.41048 0.0
H561 H 0.15115 0.03464 0.29855 0.0
H562 H 0.11408 0.03901 0.36014 0.0
H563 H 0.10008 0.9503 0.42444 0.0
H564 H 0.10296 0.9409 0.50649 0.0
H565 H 0.12748 0.94146 0.44956 0.0
H566 H 0.15201 0.96849 0.5319 0.0
H567 H 0.12753 0.96825 0.58874 0.0
H568 H 0.1416 0.99606 0.56215 0.0
H569 H 0.08017 0.03923 0.44244 0.0
H570 H 0.05029 0.03283 0.53135 0.0
H571 H 0.08254 0.97129 0.58832 0.0
C572 C 0.15151 0.98771 0.39818 0.0
C573 C 0.15942 0.00378 0.34939 0.0
C574 C 0.14535 0.0219 0.33487 0.0
C575 C 0.12434 0.02463 0.37004 0.0
C576 C 0.11745 0.00894 0.41919 0.0
C577 C 0.13045 0.99058 0.4325 0.0
C578 C 0.11954 0.97648 0.48887 0.0
C579 C 0.11207 0.95076 0.46595 0.0
C580 C 0.13616 0.97739 0.5463 0.0
C581 C 0.09861 0.99005 0.50622 0.0
C582 C 0.09774 0.00875 0.4655 0.0
C583 C 0.08054 0.02444 0.47388 0.0
C584 C 0.06373 0.02077 0.52457 0.0
C585 C 0.06418 0.00157 0.56609 0.0
C586 C 0.0818 0.986 0.55674 0.0
H587 H 0.42814 0.14298 0.40771 0.0
H588 H 0.47085 0.13554 0.2305 0.0
H589 H 0.48488 0.09937 0.27194 0.0
H590 H 0.47034 0.13019 0.51344 0.0
H591 H 0.45051 0.11471 0.5703 0.0
H592 H 0.44057 0.13721 0.52185 0.0
H593 H 0.40773 0.10706 0.47671 0.0
H594 H 0.41756 0.08447 0.52544 0.0
H595 H 0.41505 0.07936 0.4383 0.0
H596 H 0.49674 0.06561 0.3376 0.0
H597 H 0.50686 0.03912 0.42331 0.0
H598 H 0.45946 0.07182 0.56057 0.0
C599 C 0.44036 0.13379 0.37714 0.0
C600 C 0.44837 0.14232 0.31565 0.0
C601 C 0.46408 0.1293 0.27721 0.0
C602 C 0.47226 0.10874 0.30053 0.0
C603 C 0.4646 0.1014 0.36239 0.0
C604 C 0.44899 0.1136 0.4001 0.0
C605 C 0.44516 0.10363 0.46741 0.0
C606 C 0.45207 0.12256 0.5214 0.0
C607 C 0.41987 0.093 0.47753 0.0
C608 C 0.46169 0.08444 0.46268 0.0
C609 C 0.47229 0.08294 0.4012 0.0
C610 C 0.48847 0.06661 0.38575 0.0
C611 C 0.49412 0.05167 0.43464 0.0
C612 C 0.48403 0.05362 0.4984 0.0
C613 C 0.4675 0.07006 0.51222 0.0
H614 H 0.34543 0.4853 0.48069 0.0
H615 H 0.37265 0.51591 0.3002 0.0
H616 H 0.41271 0.51257 0.33517 0.0
H617 H 0.38499 0.51532 0.58299 0.0
H618 H 0.38792 0.49133 0.63609 0.0
H619 H 0.36148 0.49234 0.59278 0.0
H620 H 0.36576 0.4503 0.54099 0.0
H621 H 0.39214 0.44905 0.58482 0.0
H622 H 0.39234 0.44441 0.49712 0.0
H623 H 0.44953 0.51156 0.39696 0.0
H624 H 0.48036 0.51017 0.47703 0.0
H625 H 0.42935 0.47982 0.61733 0.0
C626 C 0.35982 0.49077 0.44783 0.0
C627 C 0.3559 0.50082 0.38753 0.0
C628 C 0.37519 0.50783 0.34604 0.0
C629 C 0.39802 0.50612 0.36572 0.0
C630 C 0.40128 0.49702 0.42662 0.0
C631 C 0.38269 0.48905 0.46658 0.0
C632 C 0.39086 0.48149 0.53148 0.0
C633 C 0.38071 0.49599 0.58921 0.0
C634 C 0.38491 0.45472 0.53902 0.0
C635 C 0.41687 0.48748 0.52307 0.0
C636 C 0.42255 0.49618 0.46196 0.0
C637 C 0.44532 0.50437 0.44444 0.0
C638 C 0.46269 0.50368 0.49045 0.0
C639 C 0.45728 0.4948 0.55329 0.0
C640 C 0.43407 0.4864 0.56937 0.0
H641 H 0.0259 0.35531 0.37027 0.0
H642 H 0.10025 0.36837 0.33738 0.0
H643 H 0.09871 0.40991 0.37938 0.0
H644 H 0.01087 0.41815 0.33645 0.0
H645 H 0.98856 0.41647 0.40026 0.0
H646 H 0.99488 0.39008 0.35296 0.0
H647 H 1.00159 0.36952 0.46023 0.0
H648 H 0.99585 0.39585 0.50776 0.0
H649 H 0.02296 0.38308 0.51601 0.0
H650 H 0.09033 0.4461 0.44905 0.0
H651 H 0.07515 0.47542 0.52902 0.0
H652 H 0.00587 0.43944 0.51215 0.0
C653 C 0.04158 0.3674 0.36855 0.0
C654 C 0.0631 0.359 0.34933 0.0
C655 C 0.08354 0.3748 0.35021 0.0
C656 C 0.08281 0.39834 0.37442 0.0
C657 C 0.06143 0.40579 0.39643 0.0
C658 C 0.04105 0.39093 0.39203 0.0
C659 C 0.0208 0.40214 0.42571 0.0
C660 C 1.00271 0.40701 0.37586 0.0
C661 C 0.00967 0.38673 0.48066 0.0
C662 C 0.03314 0.42502 0.45307 0.0
C663 C 0.05653 0.42696 0.43528 0.0
C664 C 0.07193 0.44514 0.46157 0.0
C665 C 0.06321 0.4616 0.50729 0.0
C666 C 0.03931 0.45983 0.52591 0.0
C667 C 0.0241 0.44159 0.49732 0.0
H668 H 0.84172 0.97227 0.92801 0.0
H669 H 0.86232 0.00627 0.11407 0.0
H670 H 0.90363 0.00598 0.07858 0.0
H671 H 0.8917 0.936 0.90262 0.0
H672 H 0.89367 0.94042 0.81584 0.0
H673 H 0.8659 0.93993 0.8589 0.0
H674 H 0.85975 0.98116 0.81735 0.0
H675 H 0.88731 0.98194 0.77354 0.0
H676 H 0.88152 0.00562 0.83193 0.0
H677 H 0.94247 0.00697 0.01669 0.0
H678 H 0.97536 0.00753 0.93638 0.0
H679 H 0.92928 0.97363 0.78962 0.0
C680 C 0.85489 0.97929 0.96191 0.0
C681 C 0.84863 0.9893 0.02406 0.0
C682 C 0.86654 0.99816 0.06676 0.0
C683 C 0.89011 0.99822 0.04676 0.0
C684 C 0.89557 0.98916 0.98409 0.0
C685 C 0.87843 0.97958 0.9426 0.0
C686 C 0.88869 0.9726 0.87601 0.0
C687 C 0.88476 0.94563 0.86255 0.0
C688 C 0.87873 0.98614 0.82153 0.0
C689 C 0.9142 0.98049 0.88561 0.0
C690 C 0.91786 0.98975 0.94849 0.0
C691 C 0.93981 0.99944 0.96766 0.0
C692 C 0.95839 0.9998 0.92144 0.0
C693 C 0.95503 0.9906 0.85646 0.0
C694 C 0.93259 0.98061 0.83891 0.0
H695 H 0.54284 0.83354 0.01966 0.0
H696 H 0.59266 0.87209 0.14845 0.0
H697 H 0.58348 0.90994 0.10329 0.0
H698 H 0.5585 0.86574 0.88283 0.0
H699 H 0.52948 0.86454 0.85234 0.0
H700 H 0.53736 0.84138 0.90207 0.0
H701 H 0.50314 0.84869 0.9835 0.0
H702 H 0.49502 0.8718 0.9337 0.0
H703 H 0.50068 0.87807 0.01913 0.0
H704 H 0.57082 0.94343 0.03486 0.0
H705 H 0.5565 0.9684 0.95085 0.0
H706 H 0.5174 0.90636 0.86466 0.0
C707 C 0.55171 0.84994 0.03901 0.0
C708 C 0.56859 0.84985 0.08732 0.0
C709 C 0.57953 0.87175 0.11183 0.0
C710 C 0.57448 0.8933 0.08624 0.0
C711 C 0.55837 0.89257 0.03655 0.0
C712 C 0.5471 0.87136 0.01365 0.0
C713 C 0.53195 0.87475 0.95674 0.0
C714 C 0.5398 0.86078 0.89487 0.0
C715 C 0.50617 0.86793 0.97435 0.0
C716 C 0.5368 0.90115 0.94973 0.0
C717 C 0.55175 0.91134 0.99668 0.0
C718 C 0.55899 0.93559 0.99829 0.0
C719 C 0.55082 0.94963 0.9505 0.0
C720 C 0.53595 0.93921 0.90141 0.0
C721 C 0.5288 0.91476 0.9016 0.0
H722 H 0.67332 0.51343 0.92903 0.0
H723 H 0.6439 0.4774 0.09961 0.0
H724 H 0.60483 0.47613 0.05404 0.0
H725 H 0.62304 0.54862 0.90587 0.0
H726 H 0.62584 0.54587 0.81796 0.0
H727 H 0.65124 0.54619 0.86695 0.0
H728 H 0.66062 0.50608 0.81088 0.0
H729 H 0.63516 0.5056 0.76232 0.0
H730 H 0.63894 0.48103 0.81258 0.0
H731 H 0.56983 0.47466 0.98542 0.0
H732 H 0.54044 0.47557 0.90125 0.0
H733 H 0.59165 0.51346 0.77506 0.0
C734 C 0.65859 0.50559 0.95721 0.0
C735 C 0.66172 0.49563 0.01824 0.0
C736 C 0.64198 0.48552 0.05346 0.0
C737 C 0.61969 0.48459 0.02775 0.0
C738 C 0.6173 0.4941 0.96702 0.0
C739 C 0.63612 0.50473 0.93251 0.0
C740 C 0.62877 0.51283 0.86716 0.0
C741 C 0.63245 0.53999 0.86435 0.0
C742 C 0.64164 0.50065 0.80987 0.0
C743 C 0.60306 0.5043 0.86941 0.0
C744 C 0.59684 0.49365 0.92767 0.0
C745 C 0.57441 0.48325 0.94002 0.0
C746 C 0.55787 0.48372 0.89167 0.0
C747 C 0.56372 0.49463 0.83166 0.0
C748 C 0.5866 0.50525 0.82076 0.0
H749 H 0.94898 0.65307 0.87546 0.0
H750 H 0.95536 0.64117 0.082 0.0
H751 H 0.9729 0.6037 0.05211 0.0
H752 H 0.92935 0.5933 0.83167 0.0
H753 H 0.94379 0.59425 0.75223 0.0
H754 H 0.9341 0.62091 0.79075 0.0
H755 H 0.97595 0.64172 0.77995 0.0
H756 H 0.98576 0.61513 0.74132 0.0
H757 H 0.99976 0.62829 0.81336 0.0
H758 H 0.9904 0.56676 0.99546 0.0
H759 H 1.00293 0.53423 0.92015 0.0
H760 H 0.9791 0.56962 0.75538 0.0
C761 C 0.95359 0.64259 0.9151 0.0
C762 C 0.95034 0.65014 0.98136 0.0
C763 C 0.95771 0.63601 0.03081 0.0
C764 C 0.96757 0.61458 0.01426 0.0
C765 C 0.96973 0.60745 0.94818 0.0
C766 C 0.96267 0.62109 0.8997 0.0
C767 C 0.96543 0.6094 0.8325 0.0
C768 C 0.94176 0.60415 0.79991 0.0
C769 C 0.98276 0.62453 0.78927 0.0
C770 C 0.97519 0.58689 0.85018 0.0
C771 C 0.97803 0.58606 0.91687 0.0
C772 C 0.98794 0.56719 0.94335 0.0
C773 C 0.995 0.54883 0.90045 0.0
C774 C 0.9915 0.54932 0.83242 0.0
C775 C 0.98143 0.56855 0.80745 0.0
H776 H 0.08188 0.14134 0.58381 0.0
H777 H 0.02016 0.17768 0.56035 0.0
H778 H 0.99628 0.14526 0.61346 0.0
H779 H 0.05903 0.08794 0.53368 0.0
H780 H 0.07355 0.07085 0.58918 0.0
H781 H 0.0864 0.09958 0.56762 0.0
H782 H 0.08782 0.11263 0.69044 0.0
H783 H 0.07448 0.08394 0.71266 0.0
H784 H 0.06148 0.11049 0.74017 0.0
H785 H 0.9782 0.10505 0.64083 0.0
H786 H 0.96816 0.0618 0.65128 0.0
H787 H 0.0414 0.05175 0.65507 0.0
C788 C 0.06347 0.14288 0.59239 0.0
C789 C 0.05288 0.162 0.56819 0.0
C790 C 0.02872 0.16341 0.5796 0.0
C791 C 0.01497 0.14497 0.60944 0.0
C792 C 0.02572 0.12547 0.62832 0.0
C793 C 0.04954 0.12455 0.6215 0.0
C794 C 0.05649 0.10038 0.63675 0.0
C795 C 0.06961 0.08905 0.5783 0.0
C796 C 0.07092 0.10194 0.69873 0.0
C797 C 0.03275 0.08739 0.64855 0.0
C798 C 0.01521 0.10221 0.64482 0.0
C799 C 0.99179 0.09344 0.64609 0.0
C800 C 0.98623 0.06893 0.6514 0.0
C801 C 0.00403 0.05366 0.65501 0.0
C802 C 0.02746 0.06305 0.65421 0.0
H803 H 0.3848 0.01298 0.46931 0.0
H804 H 0.33833 0.95287 0.53152 0.0
H805 H 0.37118 0.93681 0.58341 0.0
H806 H 0.43534 0.97981 0.42904 0.0
H807 H 0.45528 0.00417 0.45796 0.0
H808 H 0.4281 0.0099 0.42404 0.0
H809 H 0.42149 0.03476 0.52566 0.0
H810 H 0.44428 0.02633 0.57508 0.0
H811 H 0.41436 0.02118 0.6019 0.0
H812 H 0.40912 0.92754 0.62829 0.0
H813 H 0.44859 0.92726 0.67058 0.0
H814 H 0.47023 0.99212 0.57298 0.0
C815 C 0.3815 0.99617 0.4926 0.0
C816 C 0.35896 0.98411 0.49589 0.0
C817 C 0.35536 0.96262 0.52908 0.0
C818 C 0.37397 0.95317 0.55779 0.0
C819 C 0.39604 0.96527 0.55195 0.0
C820 C 0.39987 0.98622 0.51979 0.0
C821 C 0.42492 0.99648 0.52303 0.0
C822 C 0.43659 0.99764 0.45443 0.0
C823 C 0.42641 0.0211 0.55853 0.0
C824 C 0.43471 0.978 0.56253 0.0
C825 C 0.4178 0.96008 0.57828 0.0
C826 C 0.42254 0.94137 0.61586 0.0
C827 C 0.44504 0.9413 0.63926 0.0
C828 C 0.46252 0.95971 0.62468 0.0
C829 C 0.45738 0.97782 0.58419 0.0
H830 H 0.43627 0.37151 0.46651 0.0
H831 H 0.47534 0.31956 0.55342 0.0
H832 H 0.50194 0.35187 0.59992 0.0
H833 H 0.48565 0.40673 0.41123 0.0
H834 H 0.47316 0.43456 0.42539 0.0
H835 H 0.45463 0.40782 0.40784 0.0
H836 H 0.43057 0.41448 0.51578 0.0
H837 H 0.44873 0.44157 0.53129 0.0
H838 H 0.44551 0.41935 0.59193 0.0
H839 H 0.52538 0.38992 0.63375 0.0
H840 H 0.54339 0.43103 0.6526 0.0
H841 H 0.49318 0.45677 0.52733 0.0
C842 C 0.45037 0.36669 0.49511 0.0
C843 C 0.45349 0.34269 0.50575 0.0
C844 C 0.472 0.33764 0.54529 0.0
C845 C 0.48749 0.35592 0.57141 0.0
C846 C 0.48454 0.37916 0.55679 0.0
C847 C 0.46643 0.38459 0.51965 0.0
C848 C 0.46801 0.41082 0.50716 0.0
C849 C 0.47052 0.41522 0.43352 0.0
C850 C 0.44694 0.4222 0.53848 0.0
C851 C 0.49011 0.41923 0.54215 0.0
C852 C 0.49913 0.40077 0.57162 0.0
C853 C 0.51869 0.40445 0.61014 0.0
C854 C 0.52891 0.42772 0.62009 0.0
C855 C 0.51991 0.44674 0.59015 0.0
C856 C 0.50065 0.44238 0.54949 0.0
H857 H 0.14389 0.56561 0.39602 0.0
H858 H 0.18167 0.58866 0.57075 0.0
H859 H 0.14526 0.58105 0.63774 0.0
H860 H 0.08926 0.58949 0.44237 0.0
H861 H 0.0723 0.56433 0.40551 0.0
H862 H 0.10087 0.57347 0.3725 0.0
H863 H 0.1131 0.53109 0.3859 0.0
H864 H 0.08466 0.52188 0.41936 0.0
H865 H 0.11009 0.51833 0.46519 0.0
H866 H 0.10435 0.56907 0.68482 0.0
H867 H 0.06349 0.55324 0.70751 0.0
H868 H 0.05435 0.53751 0.50029 0.0
C869 C 0.14447 0.56983 0.44814 0.0
C870 C 0.16547 0.5783 0.4781 0.0
C871 C 0.16566 0.58244 0.54685 0.0
C872 C 0.14509 0.57821 0.58509 0.0
C873 C 0.12469 0.5697 0.55359 0.0
C874 C 0.12435 0.56557 0.48658 0.0
C875 C 0.10082 0.55501 0.46425 0.0
C876 C 0.09019 0.57157 0.41847 0.0
C877 C 0.10227 0.53011 0.43179 0.0
C878 C 0.08777 0.5538 0.52917 0.0
C879 C 0.1017 0.56237 0.58031 0.0
C880 C 0.09336 0.56234 0.64505 0.0
C881 C 0.07027 0.55316 0.65754 0.0
C882 C 0.05606 0.54393 0.60562 0.0
C883 C 0.06487 0.54456 0.54079 0.0
H884 H 0.9277 0.86949 0.91861 0.0
H885 H 0.93529 0.82585 0.74051 0.0
H886 H 0.96554 0.85585 0.69921 0.0
H887 H 0.93582 0.927 0.84198 0.0
H888 H 0.95108 0.94066 0.91146 0.0
H889 H 0.92922 0.91629 0.92275 0.0
H890 H 0.95968 0.8941 0.9798 0.0
H891 H 0.98176 0.91809 0.96598 0.0
H892 H 0.98639 0.88841 0.93638 0.0
H893 H 0.9969 0.88971 0.68129 0.0
H894 H 0.02302 0.92706 0.68189 0.0
H895 H 0.99381 0.94805 0.87113 0.0
C896 C 0.93509 0.86646 0.86995 0.0
C897 C 0.92895 0.8453 0.83266 0.0
C898 C 0.93975 0.84185 0.77013 0.0
C899 C 0.95696 0.85877 0.74632 0.0
C900 C 0.96311 0.87902 0.78562 0.0
C901 C 0.95218 0.88307 0.84561 0.0
C902 C 0.96212 0.90598 0.87912 0.0
C903 C 0.94345 0.92352 0.88936 0.0
C904 C 0.97314 0.90135 0.94416 0.0
C905 C 0.98041 0.91426 0.82866 0.0
C906 C 0.98088 0.89841 0.77525 0.0
C907 C 0.99652 0.9023 0.72261 0.0
C908 C 0.01135 0.92342 0.7235 0.0
C909 C 0.01019 0.94032 0.77623 0.0
C910 C 0.99507 0.93533 0.8303 0.0
H911 H 0.66284 0.05583 0.86064 0.0
H912 H 0.63418 0.04796 0.05828 0.0
H913 H 0.59499 0.03942 0.01542 0.0
H914 H 0.61606 0.08463 0.79871 0.0
H915 H 0.61634 0.06937 0.71943 0.0
H916 H 0.64266 0.07423 0.7648 0.0
H917 H 0.64691 0.02925 0.75548 0.0
H918 H 0.62015 0.0238 0.71209 0.0
H919 H 0.62377 0.00871 0.78602 0.0
H920 H 0.55913 0.03132 0.95347 0.0
H921 H 0.52774 0.02603 0.87331 0.0
H922 H 0.57854 0.04025 0.71575 0.0
C923 C 0.64827 0.05233 0.8946 0.0
C924 C 0.65147 0.05304 0.96281 0.0
C925 C 0.63204 0.04816 0.00592 0.0
C926 C 0.60972 0.04304 0.98213 0.0
C927 C 0.60704 0.04277 0.91498 0.0
C928 C 0.62565 0.0473 0.87158 0.0
C929 C 0.61756 0.04618 0.80169 0.0
C930 C 0.62351 0.07003 0.76928 0.0
C931 C 0.62772 0.02578 0.76146 0.0
C932 C 0.59157 0.041 0.81328 0.0
C933 C 0.58598 0.03864 0.87892 0.0
C934 C 0.5632 0.03323 0.90187 0.0
C935 C 0.54554 0.03024 0.85627 0.0
C936 C 0.55088 0.03297 0.7891 0.0
C937 C 0.57411 0.03844 0.76726 0.0
H938 H 0.58423 0.62374 0.89349 0.0
H939 H 0.53738 0.67307 0.82924 0.0
H940 H 0.51179 0.63957 0.784 0.0
H941 H 0.57292 0.57685 0.76126 0.0
H942 H 0.57411 0.55363 0.81792 0.0
H943 H 0.59142 0.58148 0.83084 0.0
H944 H 0.57281 0.58559 0.94738 0.0
H945 H 0.55509 0.55806 0.93414 0.0
H946 H 0.54161 0.58476 0.95726 0.0
H947 H 0.48906 0.60042 0.75618 0.0
H948 H 0.47257 0.55852 0.74209 0.0
H949 H 0.53071 0.53586 0.8433 0.0
C950 C 0.56879 0.62764 0.86914 0.0
C951 C 0.56287 0.65119 0.86553 0.0
C952 C 0.54265 0.65533 0.83192 0.0
C953 C 0.5278 0.63635 0.8066 0.0
C954 C 0.5333 0.61336 0.8157 0.0
C955 C 0.55345 0.60894 0.84553 0.0
C956 C 0.55431 0.58273 0.85506 0.0
C957 C 0.57438 0.57312 0.81378 0.0
C958 C 0.55604 0.5775 0.92779 0.0
C959 C 0.53099 0.57321 0.8287 0.0
C960 C 0.5194 0.59104 0.80452 0.0
C961 C 0.49792 0.58634 0.77524 0.0
C962 C 0.48855 0.56264 0.7682 0.0
C963 C 0.50029 0.54427 0.79252 0.0
C964 C 0.52135 0.54969 0.82487 0.0
H965 H 0.8759 0.45741 0.9436 0.0
H966 H 0.84371 0.42476 0.76909 0.0
H967 H 0.88231 0.42785 0.71105 0.0
H968 H 0.91574 0.49868 0.86386 0.0
H969 H 0.93853 0.49648 0.92066 0.0
H970 H 0.90855 0.49117 0.94724 0.0
H971 H 0.91641 0.44977 0.98573 0.0
H972 H 0.94642 0.45491 0.9591 0.0
H973 H 0.9289 0.42898 0.92864 0.0
H974 H 0.92496 0.43516 0.67316 0.0
H975 H 0.9671 0.44728 0.65754 0.0
H976 H 0.97005 0.47446 0.85875 0.0
C977 C 0.87692 0.45044 0.89351 0.0
C978 C 0.85689 0.44036 0.86117 0.0
C979 C 0.8589 0.43238 0.79482 0.0
C980 C 0.88072 0.434 0.76171 0.0
C981 C 0.90017 0.44372 0.79579 0.0
C982 C 0.89835 0.45187 0.8602 0.0
C983 C 0.92151 0.46219 0.88596 0.0
C984 C 0.92104 0.4887 0.90555 0.0
C985 C 0.92873 0.44811 0.94323 0.0
C986 C 0.93687 0.45859 0.82601 0.0
C987 C 0.92433 0.44791 0.77436 0.0
C988 C 0.93488 0.44345 0.71336 0.0
C989 C 0.95873 0.45042 0.70491 0.0
C990 C 0.97156 0.46186 0.75693 0.0
C991 C 0.96059 0.46555 0.81842 0.0
H992 H 0.06294 0.1783 0.98659 0.0
H993 H 0.13363 0.1662 0.02938 0.0
H994 H 0.12998 0.12886 0.96168 0.0
H995 H 0.03957 0.12213 0.00415 0.0
H996 H 0.01924 0.12055 0.93883 0.0
H997 H 0.02869 0.14877 0.97749 0.0
H998 H 0.04271 0.16506 0.86554 0.0
H999 H 0.0331 0.13697 0.82567 0.0
H1000 H 0.06278 0.1494 0.81456 0.0
H1001 H 0.11645 0.0898 0.90635 0.0
H1002 H 0.09497 0.05345 0.85898 0.0
H1003 H 0.03295 0.09068 0.85272 0.0
C1004 C 0.078 0.16838 0.9787 0.0
C1005 C 0.09874 0.1753 0.01192 0.0
C1006 C 0.11778 0.16135 0.00318 0.0
C1007 C 0.11581 0.14009 0.96509 0.0
C1008 C 0.0947 0.13306 0.93574 0.0
C1009 C 0.07625 0.147 0.94097 0.0
C1010 C 0.05473 0.13425 0.91037 0.0
C1011 C 0.03437 0.13125 0.96073 0.0
C1012 C 0.04793 0.14718 0.85047 0.0
C1013 C 0.06364 0.11061 0.89016 0.0
C1014 C 0.08682 0.11037 0.90434 0.0
C1015 C 0.09842 0.08994 0.89383 0.0
C1016 C 0.08607 0.06934 0.86748 0.0
C1017 C 0.06238 0.06933 0.85223 0.0
C1018 C 0.05111 0.09025 0.86367 0.0
H1019 H 0.36905 0.00544 0.04563 0.0
H1020 H 0.3221 0.02743 0.90442 0.0
H1021 H 0.35174 0.0212 0.81568 0.0
H1022 H 0.41898 0.03552 0.98258 0.0
H1023 H 0.43817 0.01338 0.99936 0.0
H1024 H 0.41216 0.01597 0.049 0.0
H1025 H 0.39864 0.97174 0.02312 0.0
H1026 H 0.42481 0.96888 0.97409 0.0
H1027 H 0.39679 0.96087 0.93909 0.0
H1028 H 0.38886 0.01689 0.74522 0.0
H1029 H 0.42846 0.01311 0.69912 0.0
H1030 H 0.451 0.99482 0.8884 0.0
C1031 C 0.36476 0.00839 0.9957 0.0
C1032 C 0.34325 0.01684 0.98167 0.0
C1033 C 0.33832 0.02067 0.916 0.0
C1034 C 0.35514 0.01731 0.86554 0.0
C1035 C 0.37663 0.00996 0.88176 0.0
C1036 C 0.38128 0.00526 0.94535 0.0
C1037 C 0.4061 0.9992 0.95151 0.0
C1038 C 0.41964 0.01709 0.99837 0.0
C1039 C 0.4066 0.97365 0.97322 0.0
C1040 C 0.41506 0.00167 0.88159 0.0
C1041 C 0.39779 0.00773 0.84193 0.0
C1042 C 0.40233 0.01194 0.77597 0.0
C1043 C 0.42495 0.0099 0.75017 0.0
C1044 C 0.44293 0.00376 0.78982 0.0
C1045 C 0.43772 0.99944 0.85645 0.0
H1046 H 0.42031 0.35002 0.04135 0.0
H1047 H 0.42586 0.28933 0.90624 0.0
H1048 H 0.44154 0.31659 0.82038 0.0
H1049 H 0.40113 0.38927 0.9246 0.0
H1050 H 0.41705 0.41495 0.96223 0.0
H1051 H 0.40625 0.39044 0.01115 0.0
H1052 H 0.44791 0.38715 0.05102 0.0
H1053 H 0.45886 0.41157 0.00215 0.0
H1054 H 0.47124 0.38357 0.99166 0.0
H1055 H 0.45804 0.3518 0.75036 0.0
H1056 H 0.47308 0.39041 0.70516 0.0
H1057 H 0.45394 0.42655 0.88745 0.0
C1058 C 0.42418 0.34225 0.99336 0.0
C1059 C 0.42135 0.31742 0.98048 0.0
C1060 C 0.42777 0.30825 0.9175 0.0
C1061 C 0.43659 0.32363 0.86835 0.0
C1062 C 0.43882 0.34807 0.88303 0.0
C1063 C 0.43265 0.35719 0.94419 0.0
C1064 C 0.43688 0.3839 0.94921 0.0
C1065 C 0.41396 0.3953 0.96256 0.0
C1066 C 0.45479 0.39201 0.00159 0.0
C1067 C 0.44661 0.38864 0.88128 0.0
C1068 C 0.44771 0.36786 0.84347 0.0
C1069 C 0.45703 0.3681 0.77958 0.0
C1070 C 0.46552 0.39006 0.75429 0.0
C1071 C 0.46449 0.41138 0.7928 0.0
C1072 C 0.4547 0.41055 0.85667 0.0
H1073 H 0.19449 0.54065 0.94924 0.0
H1074 H 0.2047 0.46741 0.98295 0.0
H1075 H 0.17167 0.45414 0.91239 0.0
H1076 H 0.135 0.53427 0.96446 0.0
H1077 H 0.12957 0.55443 0.90233 0.0
H1078 H 0.15654 0.5582 0.94462 0.0
H1079 H 0.1797 0.55613 0.83421 0.0
H1080 H 0.15277 0.55265 0.7913 0.0
H1081 H 0.17364 0.5311 0.77779 0.0
H1082 H 0.1338 0.44909 0.85241 0.0
H1083 H 0.09599 0.45268 0.80211 0.0
H1084 H 0.11011 0.52923 0.80916 0.0
C1085 C 0.19018 0.52179 0.94041 0.0
C1086 C 0.20232 0.50507 0.97156 0.0
C1087 C 0.19602 0.48057 0.95882 0.0
C1088 C 0.17712 0.47286 0.91915 0.0
C1089 C 0.16482 0.48987 0.89198 0.0
C1090 C 0.17134 0.51384 0.90126 0.0
C1091 C 0.15415 0.52859 0.87146 0.0
C1092 C 0.14317 0.54482 0.92385 0.0
C1093 C 0.16576 0.54296 0.81535 0.0
C1094 C 0.13647 0.50921 0.84591 0.0
C1095 C 0.14303 0.48697 0.85763 0.0
C1096 C 0.12873 0.46639 0.84201 0.0
C1097 C 0.10724 0.4686 0.81372 0.0
C1098 C 0.10021 0.49121 0.80153 0.0
C1099 C 0.11515 0.51171 0.81736 0.0
H1100 H 0.93617 0.82137 0.41213 0.0
H1101 H 0.91772 0.86179 0.24885 0.0
H1102 H 0.92403 0.89836 0.31495 0.0
H1103 H 0.91391 0.85897 0.54489 0.0
H1104 H 0.9384 0.85765 0.59641 0.0
H1105 H 0.93006 0.83321 0.53995 0.0
H1106 H 0.97157 0.83625 0.48739 0.0
H1107 H 0.98009 0.86045 0.54431 0.0
H1108 H 0.98401 0.86424 0.45752 0.0
H1109 H 0.93137 0.93079 0.39547 0.0
H1110 H 0.94656 0.95883 0.4825 0.0
H1111 H 0.96564 0.90008 0.59183 0.0
C1112 C 0.93333 0.83787 0.39042 0.0
C1113 C 0.92505 0.83816 0.32593 0.0
C1114 C 0.92242 0.86045 0.29918 0.0
C1115 C 0.92625 0.88161 0.33617 0.0
C1116 C 0.93358 0.88063 0.39964 0.0
C1117 C 0.93776 0.85956 0.4264 0.0
C1118 C 0.94788 0.86431 0.494 0.0
C1119 C 0.93159 0.85285 0.54694 0.0
C1120 C 0.97234 0.85581 0.49588 0.0
C1121 C 0.94878 0.89126 0.49998 0.0
C1122 C 0.93987 0.90007 0.44532 0.0
C1123 C 0.93853 0.92421 0.43854 0.0
C1124 C 0.94711 0.94 0.48832 0.0
C1125 C 0.95731 0.93162 0.5435 0.0
C1126 C 0.9579 0.9069 0.54994 0.0
H1127 H 0.66864 0.03369 0.44669 0.0
H1128 H 0.6888 0.9618 0.44562 0.0
H1129 H 0.655 0.95066 0.51903 0.0
H1130 H 0.64275 0.03706 0.6119 0.0
H1131 H 0.61897 0.05281 0.58763 0.0
H1132 H 0.64677 0.05666 0.54484 0.0
H1133 H 0.62783 0.0445 0.43458 0.0
H1134 H 0.59973 0.04101 0.47542 0.0
H1135 H 0.60999 0.01673 0.42608 0.0
H1136 H 0.61641 0.94673 0.58571 0.0
H1137 H 0.57692 0.95006 0.63482 0.0
H1138 H 0.58011 0.02303 0.57814 0.0
C1139 C 0.66621 0.01558 0.46205 0.0
C1140 C 0.68153 0.9986 0.43954 0.0
C1141 C 0.67768 0.97529 0.46255 0.0
C1142 C 0.65834 0.96875 0.50396 0.0
C1143 C 0.64291 0.98566 0.52181 0.0
C1144 C 0.64672 0.00863 0.50147 0.0
C1145 C 0.62649 0.0229 0.52115 0.0
C1146 C 0.6342 0.04358 0.56926 0.0
C1147 C 0.61536 0.0318 0.46071 0.0
C1148 C 0.61032 0.00426 0.55446 0.0
C1149 C 0.62028 0.98303 0.5559 0.0
C1150 C 0.60852 0.96328 0.58463 0.0
C1151 C 0.58609 0.96529 0.61222 0.0
C1152 C 0.57535 0.98665 0.60914 0.0
C1153 C 0.58774 0.00634 0.58004 0.0
H1154 H 0.61972 0.65241 0.41769 0.0
H1155 H 0.56412 0.69814 0.4546 0.0
H1156 H 0.5485 0.67285 0.54351 0.0
H1157 H 0.58441 0.60223 0.41813 0.0
H1158 H 0.60388 0.58386 0.45442 0.0
H1159 H 0.61546 0.60915 0.41008 0.0
H1160 H 0.63837 0.62605 0.51114 0.0
H1161 H 0.62713 0.60053 0.55579 0.0
H1162 H 0.62321 0.62997 0.58877 0.0
H1163 H 0.53432 0.63867 0.61197 0.0
H1164 H 0.52236 0.59874 0.65113 0.0
H1165 H 0.5844 0.57274 0.56005 0.0
C1166 C 0.60459 0.65754 0.44549 0.0
C1167 C 0.59312 0.67731 0.42849 0.0
C1168 C 0.57354 0.68341 0.46694 0.0
C1169 C 0.56442 0.66899 0.5175 0.0
C1170 C 0.57506 0.64853 0.52908 0.0
C1171 C 0.59486 0.64289 0.49434 0.0
C1172 C 0.60062 0.618 0.50741 0.0
C1173 C 0.6011 0.60241 0.44374 0.0
C1174 C 0.6237 0.61869 0.54291 0.0
C1175 C 0.58025 0.60997 0.55202 0.0
C1176 C 0.56615 0.62812 0.56576 0.0
C1177 C 0.54544 0.6245 0.60233 0.0
C1178 C 0.53874 0.60171 0.6242 0.0
C1179 C 0.55246 0.58269 0.60845 0.0
C1180 C 0.57369 0.58702 0.57305 0.0
H1181 H 0.83381 0.4533 0.4354 0.0
H1182 H 0.82457 0.52325 0.36925 0.0
H1183 H 0.85623 0.54045 0.43999 0.0
H1184 H 0.85306 0.47273 0.60749 0.0
H1185 H 0.87373 0.45078 0.60515 0.0
H1186 H 0.84692 0.44493 0.56218 0.0
H1187 H 0.87045 0.43633 0.45516 0.0
H1188 H 0.89727 0.44255 0.49729 0.0
H1189 H 0.8922 0.45863 0.42596 0.0
H1190 H 0.89387 0.54871 0.49935 0.0
H1191 H 0.93203 0.54777 0.55016 0.0
H1192 H 0.91706 0.4724 0.57715 0.0
C1193 C 0.83785 0.47237 0.43783 0.0
C1194 C 0.8266 0.48696 0.39704 0.0
C1195 C 0.83258 0.51178 0.40092 0.0
C1196 C 0.85071 0.52168 0.44065 0.0
C1197 C 0.86246 0.50657 0.47698 0.0
C1198 C 0.85591 0.48247 0.47707 0.0
C1199 C 0.87284 0.4697 0.51452 0.0
C1200 C 0.86092 0.4589 0.57599 0.0
C1201 C 0.88383 0.4507 0.47059 0.0
C1202 C 0.89059 0.49015 0.53256 0.0
C1203 C 0.88415 0.51134 0.5113 0.0
C1204 C 0.89879 0.53232 0.51752 0.0
C1205 C 0.92048 0.5316 0.54608 0.0
C1206 C 0.92739 0.51006 0.56781 0.0
C1207 C 0.91208 0.48918 0.56168 0.0
loop_
_geom_bond_atom_site_label_1
_geom_bond_atom_site_label_2
_geom_bond_distance
_geom_bond_site_symmetry_2
_ccdc_geom_bond_type
C0 C1 1.391 . S
C0 C4 1.391 . S
C0 H42 0.948 . S
C1 C0 1.391 . S
C1 C2 1.391 . S
C2 C1 1.391 . S
C2 H58 0.947 . S
C2 C59 1.392 . S
C3 C4 1.391 . S
C3 C7 1.397 . S
C3 C59 1.419 . S
C4 C0 1.391 . S
C4 C3 1.391 . S
C4 C5 1.399 . S
C5 C4 1.399 . S
C5 C8 1.396 . S
C5 C17 1.453 . S
C5 C18 1.684 . S
H6 C30 0.948 . S
C7 C3 1.397 . S
C7 C8 1.394 . S
C7 C26 1.723 . S
C8 C5 1.396 . S
C8 C7 1.394 . S
C8 C38 1.723 . S
H9 C32 0.947 . S
H10 C33 0.948 . S
H11 C39 0.982 . S
H12 C40 0.979 . S
H13 C40 0.980 . S
H14 C40 0.983 . S
H15 C39 0.979 . S
H16 C39 0.977 . S
C17 C5 1.453 . S
C17 H46 0.982 . S
C17 H47 0.979 . S
C17 H48 0.977 . S
C18 C5 1.684 . S
C18 H43 0.979 . S
C18 H44 0.980 . S
C18 H45 0.983 . S
C19 C20 1.391 . S
C19 C24 1.391 . S
C19 H49 0.948 . S
C20 C19 1.391 . S
C20 C21 1.391 . S
C21 C20 1.391 . S
C21 C22 1.392 . S
C21 H50 0.947 . S
C22 C21 1.392 . S
C22 C23 1.419 . S
C22 H51 0.948 . S
C23 C22 1.419 . S
C23 C24 1.391 . S
C23 C27 1.383 1_556 S
C24 C19 1.391 . S
C24 C23 1.391 . S
C24 C25 1.399 1_556 S
C25 C24 1.399 1_554 S
C25 C26 1.396 . S
C25 C28 1.453 . S
C25 C29 1.684 . S
C26 C7 1.723 . S
C26 C25 1.396 . S
C26 C27 1.409 . S
C27 C23 1.383 1_554 S
C27 C26 1.409 . S
C27 C37 1.721 1_554 S
C28 C25 1.453 . S
C28 H52 0.982 . S
C28 H53 0.979 . S
C28 H54 0.977 . S
C29 C25 1.684 . S
C29 H55 0.979 . S
C29 H56 0.980 . S
C29 H57 0.983 . S
C30 H6 0.948 . S
C30 C31 1.391 1_556 S
C30 C35 1.391 . S
C31 C30 1.391 1_554 S
C31 C32 1.391 . S
C32 H9 0.947 . S
C32 C31 1.391 . S
C32 C33 1.392 . S
C33 H10 0.948 . S
C33 C32 1.392 . S
C33 C34 1.419 . S
C34 C33 1.419 . S
C34 C35 1.391 1_554 S
C34 C38 1.397 . S
C35 C30 1.391 . S
C35 C34 1.391 1_556 S
C35 C36 1.399 . S
C36 C35 1.399 . S
C36 C37 1.396 . S
C36 C39 1.453 . S
C36 C40 1.684 . S
C37 C27 1.721 1_556 S
C37 C36 1.396 . S
C37 C38 1.394 1_556 S
C38 C8 1.723 . S
C38 C34 1.397 . S
C38 C37 1.394 1_554 S
C39 H11 0.982 . S
C39 H15 0.979 . S
C39 H16 0.977 . S
C39 C36 1.453 . S
C40 H12 0.979 . S
C40 H13 0.980 . S
C40 H14 0.983 . S
C40 C36 1.684 . S
H41 C59 0.948 . S
H42 C0 0.948 . S
H43 C18 0.979 . S
H44 C18 0.980 . S
H45 C18 0.983 . S
H46 C17 0.982 . S
H47 C17 0.979 . S
H48 C17 0.977 . S
H49 C19 0.948 . S
H50 C21 0.947 . S
H51 C22 0.948 . S
H52 C28 0.982 . S
H53 C28 0.979 . S
H54 C28 0.977 . S
H55 C29 0.979 . S
H56 C29 0.980 . S
H57 C29 0.983 . S
H58 C2 0.947 . S
C59 C2 1.392 . S
C59 C3 1.419 . S
C59 H41 0.948 . S
C60 C61 1.391 . S
C60 C64 1.391 . S
C60 H102 0.948 . S
C61 C60 1.391 . S
C61 C62 1.391 . S
C62 C61 1.391 . S
C62 H118 0.947 . S
C62 C119 1.392 . S
C63 C64 1.391 . S
C63 C67 1.397 . S
C63 C119 1.419 . S
C64 C60 1.391 . S
C64 C63 1.391 . S
C64 C65 1.399 . S
C65 C64 1.399 . S
C65 C68 1.396 . S
C65 C77 1.453 . S
C65 C78 1.684 . S
H66 C90 0.948 . S
C67 C63 1.397 . S
C67 C68 1.394 . S
C67 C86 1.723 1_556 S
C68 C65 1.396 . S
C68 C67 1.394 . S
C68 C98 1.723 . S
H69 C92 0.947 . S
H70 C93 0.948 . S
H71 C99 0.982 . S
H72 C100 0.979 . S
H73 C100 0.980 . S
H74 C100 0.983 . S
H75 C99 0.979 . S
H76 C99 0.977 . S
C77 C65 1.453 . S
C77 H106 0.982 . S
C77 H107 0.979 . S
C77 H108 0.977 . S
C78 C65 1.684 . S
C78 H103 0.979 . S
C78 H104 0.980 . S
C78 H105 0.983 . S
C79 C80 1.391 . S
C79 C84 1.391 . S
C79 H109 0.948 . S
C80 C79 1.391 . S
C80 C81 1.391 . S
C81 C80 1.391 . S
C81 C82 1.392 . S
C81 H110 0.947 . S
C82 C81 1.392 . S
C82 C83 1.419 . S
C82 H111 0.948 . S
C83 C82 1.419 . S
C83 C84 1.391 . S
C83 C87 1.397 . S
C84 C79 1.391 . S
C84 C83 1.391 . S
C84 C85 1.399 . S
C85 C84 1.399 . S
C85 C86 1.396 . S
C85 C88 1.453 . S
C85 C89 1.684 . S
C86 C67 1.723 1_554 S
C86 C85 1.396 . S
C86 C87 1.394 . S
C87 C83 1.397 . S
C87 C86 1.394 . S
C87 C97 1.723 . S
C88 C85 1.453 . S
C88 H112 0.982 . S
C88 H113 0.979 . S
C88 H114 0.977 . S
C89 C85 1.684 . S
C89 H115 0.979 . S
C89 H116 0.980 . S
C89 H117 0.983 . S
C90 H66 0.948 . S
C90 C91 1.391 1_554 S
C90 C95 1.391 . S
C91 C90 1.391 1_556 S
C91 C92 1.391 . S
C92 H69 0.947 . S
C92 C91 1.391 . S
C92 C93 1.392 . S
C93 H70 0.948 . S
C93 C92 1.392 . S
C93 C94 1.419 . S
C94 C93 1.419 . S
C94 C95 1.391 1_556 S
C94 C98 1.397 . S
C95 C90 1.391 . S
C95 C94 1.391 1_554 S
C95 C96 1.399 . S
C96 C95 1.399 . S
C96 C97 1.396 . S
C96 C99 1.453 . S
C96 C100 1.684 . S
C97 C87 1.723 . S
C97 C96 1.396 . S
C97 C98 1.394 1_554 S
C98 C68 1.723 . S
C98 C94 1.397 . S
C98 C97 1.394 1_556 S
C99 H71 0.982 . S
C99 H75 0.979 . S
C99 H76 0.977 . S
C99 C96 1.453 . S
C100 H72 0.979 . S
C100 H73 0.980 . S
C100 H74 0.983 . S
C100 C96 1.684 . S
H101 C119 0.961 . S
H102 C60 0.948 . S
H103 C78 0.979 . S
H104 C78 0.980 . S
H105 C78 0.983 . S
H106 C77 0.982 . S
H107 C77 0.979 . S
H108 C77 0.977 . S
H109 C79 0.948 . S
H110 C81 0.947 . S
H111 C82 0.948 . S
H112 C88 0.982 . S
H113 C88 0.979 . S
H114 C88 0.977 . S
H115 C89 0.979 . S
H116 C89 0.980 . S
H117 C89 0.983 . S
H118 C62 0.947 . S
C119 C62 1.392 . S
C119 C63 1.419 . S
C119 H101 0.961 . S
C120 C121 1.391 . S
C120 C124 1.391 . S
C120 H162 0.948 . S
C121 C120 1.391 . S
C121 C122 1.391 1_554 S
C122 C121 1.391 1_556 S
C122 H178 0.947 . S
C122 C179 1.392 . S
C123 C124 1.391 . S
C123 C127 1.397 1_565 S
C123 C179 1.419 1_554 S
C124 C120 1.391 . S
C124 C123 1.391 . S
C124 C125 1.399 . S
C125 C124 1.399 . S
C125 C128 1.396 1_565 S
C125 C137 1.453 1_565 S
C125 C138 1.684 . S
H126 C150 0.948 . S
C127 C123 1.397 1_545 S
C127 C128 1.394 . S
C127 C146 1.722 . S
C128 C125 1.396 1_545 S
C128 C127 1.394 . S
C128 C158 1.723 . S
H129 C152 0.947 . S
H130 C153 0.948 . S
H131 C159 0.982 . S
H132 C160 0.979 . S
H133 C160 0.980 . S
H134 C160 0.983 . S
H135 C159 0.979 . S
H136 C159 0.977 . S
C137 C125 1.453 1_545 S
C137 H166 0.982 . S
C137 H167 0.979 . S
C137 H168 0.977 . S
C138 C125 1.684 . S
C138 H163 0.979 . S
C138 H164 0.980 . S
C138 H165 0.983 . S
C139 C140 1.391 . S
C139 C144 1.391 . S
C139 H169 0.948 . S
C140 C139 1.391 . S
C140 C141 1.391 . S
C141 C140 1.391 . S
C141 C142 1.392 1_556 S
C141 H170 0.947 . S
C142 C141 1.392 1_554 S
C142 C143 1.419 . S
C142 H171 0.948 . S
C143 C142 1.419 . S
C143 C144 1.391 1_554 S
C143 C147 1.397 1_565 S
C144 C139 1.391 . S
C144 C143 1.391 1_556 S
C144 C145 1.399 . S
C145 C144 1.399 . S
C145 C146 1.396 1_566 S
C145 C148 1.453 1_565 S
C145 C149 1.684 . S
C146 C127 1.722 . S
C146 C145 1.396 1_544 S
C146 C147 1.394 . S
C147 C143 1.397 1_545 S
C147 C146 1.394 . S
C147 C157 1.723 . S
C148 C145 1.453 1_545 S
C148 H172 0.982 . S
C148 H173 0.979 . S
C148 H174 0.977 . S
C149 C145 1.684 . S
C149 H175 0.979 . S
C149 H176 0.980 . S
C149 H177 0.983 . S
C150 H126 0.948 . S
C150 C151 1.391 . S
C150 C155 1.391 . S
C151 C150 1.391 . S
C151 C152 1.391 . S
C152 H129 0.947 . S
C152 C151 1.391 . S
C152 C153 1.392 . S
C153 H130 0.948 . S
C153 C152 1.392 . S
C153 C154 1.419 . S
C154 C153 1.419 . S
C154 C155 1.391 . S
C154 C158 1.397 1_565 S
C155 C150 1.391 . S
C155 C154 1.391 . S
C155 C156 1.399 . S
C156 C155 1.399 . S
C156 C157 1.396 1_565 S
C156 C159 1.453 1_565 S
C156 C160 1.684 . S
C157 C147 1.723 . S
C157 C156 1.396 1_545 S
C157 C158 1.394 . S
C158 C128 1.723 . S
C158 C154 1.397 1_545 S
C158 C157 1.394 . S
C159 H131 0.982 . S
C159 H135 0.979 . S
C159 H136 0.977 . S
C159 C156 1.453 1_545 S
C160 H132 0.979 . S
C160 H133 0.980 . S
C160 H134 0.983 . S
C160 C156 1.684 . S
H161 C179 0.948 . S
H162 C120 0.948 . S
H163 C138 0.979 . S
H164 C138 0.980 . S
H165 C138 0.983 . S
H166 C137 0.982 . S
H167 C137 0.979 . S
H168 C137 0.977 . S
H169 C139 0.948 . S
H170 C141 0.947 . S
H171 C142 0.948 . S
H172 C148 0.982 . S
H173 C148 0.979 . S
H174 C148 0.977 . S
H175 C149 0.979 . S
H176 C149 0.980 . S
H177 C149 0.983 . S
H178 C122 0.947 . S
C179 C122 1.392 . S
C179 C123 1.419 1_556 S
C179 H161 0.948 . S
C180 C181 1.391 . S
C180 C184 1.391 . S
C180 H222 0.948 . S
C181 C180 1.391 . S
C181 C182 1.391 . S
C182 C181 1.391 . S
C182 H238 0.947 . S
C182 C239 1.392 . S
C183 C184 1.391 . S
C183 C187 1.397 . S
C183 C239 1.419 . S
C184 C180 1.391 . S
C184 C183 1.391 . S
C184 C185 1.399 . S
C185 C184 1.399 . S
C185 C188 1.396 . S
C185 C197 1.453 . S
C185 C198 1.684 . S
H186 C210 0.948 . S
C187 C183 1.397 . S
C187 C188 1.394 . S
C187 C206 1.723 . S
C188 C185 1.396 . S
C188 C187 1.394 . S
C188 C218 1.723 . S
H189 C212 0.947 . S
H190 C213 0.948 . S
H191 C219 0.982 . S
H192 C220 0.979 . S
H193 C220 0.980 . S
H194 C220 0.983 . S
H195 C219 0.979 . S
H196 C219 0.977 . S
C197 C185 1.453 . S
C197 H226 0.982 . S
C197 H227 0.979 . S
C197 H228 0.977 . S
C198 C185 1.684 . S
C198 H223 0.979 . S
C198 H224 0.980 . S
C198 H225 0.983 . S
C199 C200 1.391 . S
C199 C204 1.391 . S
C199 H229 0.948 . S
C200 C199 1.391 . S
C200 C201 1.391 . S
C201 C200 1.391 . S
C201 C202 1.392 . S
C201 H230 0.947 . S
C202 C201 1.392 . S
C202 C203 1.419 . S
C202 H231 0.948 . S
C203 C202 1.419 . S
C203 C204 1.391 . S
C203 C207 1.397 1_556 S
C204 C199 1.391 . S
C204 C203 1.391 . S
C204 C205 1.399 1_556 S
C205 C204 1.399 1_554 S
C205 C206 1.396 . S
C205 C208 1.453 . S
C205 C209 1.684 . S
C206 C187 1.723 . S
C206 C205 1.396 . S
C206 C207 1.394 . S
C207 C203 1.397 1_554 S
C207 C206 1.394 . S
C207 C217 1.723 . S
C208 C205 1.453 . S
C208 H232 0.982 . S
C208 H233 0.979 . S
C208 H234 0.977 . S
C209 C205 1.684 . S
C209 H235 0.979 . S
C209 H236 0.980 . S
C209 H237 0.983 . S
C210 H186 0.948 . S
C210 C211 1.391 1_556 S
C210 C215 1.391 1_556 S
C211 C210 1.391 1_554 S
C211 C212 1.391 . S
C212 H189 0.947 . S
C212 C211 1.391 . S
C212 C213 1.392 . S
C213 H190 0.948 . S
C213 C212 1.392 . S
C213 C214 1.419 . S
C214 C213 1.419 . S
C214 C215 1.391 . S
C214 C218 1.397 . S
C215 C210 1.391 1_554 S
C215 C214 1.391 . S
C215 C216 1.399 1_554 S
C216 C215 1.399 1_556 S
C216 C217 1.396 1_556 S
C216 C219 1.453 . S
C216 C220 1.684 . S
C217 C207 1.723 . S
C217 C216 1.396 1_554 S
C217 C218 1.394 . S
C218 C188 1.723 . S
C218 C214 1.397 . S
C218 C217 1.394 . S
C219 H191 0.982 . S
C219 H195 0.979 . S
C219 H196 0.977 . S
C219 C216 1.453 . S
C220 H192 0.979 . S
C220 H193 0.980 . S
C220 H194 0.983 . S
C220 C216 1.684 . S
H221 C239 0.948 . S
H222 C180 0.948 . S
H223 C198 0.979 . S
H224 C198 0.980 . S
H225 C198 0.983 . S
H226 C197 0.982 . S
H227 C197 0.979 . S
H228 C197 0.977 . S
H229 C199 0.948 . S
H230 C201 0.947 . S
H231 C202 0.948 . S
H232 C208 0.982 . S
H233 C208 0.979 . S
H234 C208 0.977 . S
H235 C209 0.979 . S
H236 C209 0.980 . S
H237 C209 0.983 . S
H238 C182 0.947 . S
C239 C182 1.392 . S
C239 C183 1.419 . S
C239 H221 0.948 . S
C240 C241 1.391 . S
C240 C244 1.391 . S
C240 H282 0.948 . S
C241 C240 1.391 . S
C241 C242 1.391 . S
C242 C241 1.391 . S
C242 H298 0.947 . S
C242 C299 1.392 . S
C243 C244 1.391 . S
C243 C247 1.397 . S
C243 C299 1.419 . S
C244 C240 1.391 . S
C244 C243 1.391 . S
C244 C245 1.399 . S
C245 C244 1.399 . S
C245 C248 1.396 . S
C245 C257 1.453 . S
C245 C258 1.684 . S
H246 C270 0.948 . S
C247 C243 1.397 . S
C247 C248 1.394 . S
C247 C266 1.723 . S
C248 C245 1.396 . S
C248 C247 1.394 . S
C248 C278 1.723 . S
H249 C272 0.947 . S
H250 C273 0.948 . S
H251 C279 0.982 . S
H252 C280 0.979 . S
H253 C280 0.980 . S
H254 C280 0.983 . S
H255 C279 0.979 . S
H256 C279 0.977 . S
C257 C245 1.453 . S
C257 H286 0.982 . S
C257 H287 0.979 . S
C257 H288 0.977 . S
C258 C245 1.684 . S
C258 H283 0.979 . S
C258 H284 0.980 . S
C258 H285 0.983 . S
C259 C260 1.391 . S
C259 C264 1.391 . S
C259 H289 0.948 . S
C260 C259 1.391 . S
C260 C261 1.391 . S
C261 C260 1.391 . S
C261 C262 1.392 . S
C261 H290 0.947 . S
C262 C261 1.392 . S
C262 C263 1.419 . S
C262 H291 0.948 . S
C263 C262 1.419 . S
C263 C264 1.391 . S
C263 C267 1.397 . S
C264 C259 1.391 . S
C264 C263 1.391 . S
C264 C265 1.399 . S
C265 C264 1.399 . S
C265 C266 1.396 . S
C265 C268 1.453 . S
C265 C269 1.684 . S
C266 C247 1.723 . S
C266 C265 1.396 . S
C266 C267 1.394 . S
C267 C263 1.397 . S
C267 C266 1.394 . S
C267 C277 1.723 . S
C268 C265 1.453 . S
C268 H292 0.982 . S
C268 H293 0.979 . S
C268 H294 0.977 . S
C269 C265 1.684 . S
C269 H295 0.979 . S
C269 H296 0.980 . S
C269 H297 0.983 . S
C270 H246 0.948 . S
C270 C271 1.391 . S
C270 C275 1.391 . S
C271 C270 1.391 . S
C271 C272 1.391 . S
C272 H249 0.947 . S
C272 C271 1.391 . S
C272 C273 1.392 . S
C273 H250 0.948 . S
C273 C272 1.392 . S
C273 C274 1.419 . S
C274 C273 1.419 . S
C274 C275 1.391 . S
C274 C278 1.397 . S
C275 C270 1.391 . S
C275 C274 1.391 . S
C275 C276 1.399 . S
C276 C275 1.399 . S
C276 C277 1.396 . S
C276 C279 1.453 . S
C276 C280 1.684 . S
C277 C267 1.723 . S
C277 C276 1.396 . S
C277 C278 1.394 . S
C278 C248 1.723 . S
C278 C274 1.397 . S
C278 C277 1.394 . S
C279 H251 0.982 . S
C279 H255 0.979 . S
C279 H256 0.977 . S
C279 C276 1.453 . S
C280 H252 0.979 . S
C280 H253 0.980 . S
C280 H254 0.983 . S
C280 C276 1.684 . S
H281 C299 0.948 . S
H282 C240 0.948 . S
H283 C258 0.979 . S
H284 C258 0.980 . S
H285 C258 0.983 . S
H286 C257 0.982 . S
H287 C257 0.979 . S
H288 C257 0.977 . S
H289 C259 0.948 . S
H290 C261 0.947 . S
H291 C262 0.948 . S
H292 C268 0.982 . S
H293 C268 0.979 . S
H294 C268 0.977 . S
H295 C269 0.979 . S
H296 C269 0.980 . S
H297 C269 0.983 . S
H298 C242 0.947 . S
C299 C242 1.392 . S
C299 C243 1.419 . S
C299 H281 0.948 . S
C300 C301 1.391 . S
C300 C304 1.391 . S
C300 H342 0.948 . S
C301 C300 1.391 . S
C301 C302 1.391 . S
C302 C301 1.391 . S
C302 H358 0.947 . S
C302 C359 1.392 . S
C303 C304 1.391 . S
C303 C307 1.397 . S
C303 C359 1.419 . S
C304 C300 1.391 . S
C304 C303 1.391 . S
C304 C305 1.399 . S
C305 C304 1.399 . S
C305 C308 1.396 . S
C305 C317 1.453 . S
C305 C318 1.684 . S
H306 C330 0.948 . S
C307 C303 1.397 . S
C307 C308 1.394 . S
C307 C326 1.723 . S
C308 C305 1.396 . S
C308 C307 1.394 . S
C308 C338 1.723 . S
H309 C332 0.947 . S
H310 C333 0.948 . S
H311 C339 0.982 . S
H312 C340 0.979 . S
H313 C340 0.980 . S
H314 C340 0.983 . S
H315 C339 0.979 . S
H316 C339 0.977 . S
C317 C305 1.453 . S
C317 H346 0.982 . S
C317 H347 0.979 . S
C317 H348 0.977 . S
C318 C305 1.684 . S
C318 H343 0.979 . S
C318 H344 0.980 . S
C318 H345 0.983 . S
C319 C320 1.391 . S
C319 C324 1.391 . S
C319 H349 0.948 . S
C320 C319 1.391 . S
C320 C321 1.391 . S
C321 C320 1.391 . S
C321 C322 1.392 . S
C321 H350 0.947 . S
C322 C321 1.392 . S
C322 C323 1.419 . S
C322 H351 0.948 . S
C323 C322 1.419 . S
C323 C324 1.391 . S
C323 C327 1.397 . S
C324 C319 1.391 . S
C324 C323 1.391 . S
C324 C325 1.399 . S
C325 C324 1.399 . S
C325 C326 1.396 . S
C325 C328 1.453 . S
C325 C329 1.684 . S
C326 C307 1.723 . S
C326 C325 1.396 . S
C326 C327 1.394 . S
C327 C323 1.397 . S
C327 C326 1.394 . S
C327 C337 1.723 . S
C328 C325 1.453 . S
C328 H352 0.982 . S
C328 H353 0.979 . S
C328 H354 0.977 . S
C329 C325 1.684 . S
C329 H355 0.979 . S
C329 H356 0.980 . S
C329 H357 0.983 . S
C330 H306 0.948 . S
C330 C331 1.391 . S
C330 C335 1.391 . S
C331 C330 1.391 . S
C331 C332 1.391 . S
C332 H309 0.947 . S
C332 C331 1.391 . S
C332 C333 1.392 . S
C333 H310 0.948 . S
C333 C332 1.392 . S
C333 C334 1.419 . S
C334 C333 1.419 . S
C334 C335 1.391 . S
C334 C338 1.397 . S
C335 C330 1.391 . S
C335 C334 1.391 . S
C335 C336 1.399 . S
C336 C335 1.399 . S
C336 C337 1.396 . S
C336 C339 1.453 . S
C336 C340 1.684 . S
C337 C327 1.723 . S
C337 C336 1.396 . S
C337 C338 1.394 . S
C338 C308 1.723 . S
C338 C334 1.397 . S
C338 C337 1.394 . S
C339 H311 0.982 . S
C339 H315 0.979 . S
C339 H316 0.977 . S
C339 C336 1.453 . S
C340 H312 0.979 . S
C340 H313 0.980 . S
C340 H314 0.983 . S
C340 C336 1.684 . S
H341 C359 0.948 . S
H342 C300 0.948 . S
H343 C318 0.979 . S
H344 C318 0.980 . S
H345 C318 0.983 . S
H346 C317 0.982 . S
H347 C317 0.979 . S
H348 C317 0.977 . S
H349 C319 0.948 . S
H350 C321 0.947 . S
H351 C322 0.948 . S
H352 C328 0.982 . S
H353 C328 0.979 . S
H354 C328 0.977 . S
H355 C329 0.979 . S
H356 C329 0.980 . S
H357 C329 0.983 . S
H358 C302 0.947 . S
C359 C302 1.392 . S
C359 C303 1.419 . S
C359 H341 0.948 . S
C360 C361 1.391 . S
C360 C364 1.391 . S
C360 H402 0.948 . S
C361 C360 1.391 . S
C361 C362 1.391 . S
C362 C361 1.391 . S
C362 H418 0.947 . S
C362 C419 1.392 . S
C363 C364 1.391 . S
C363 C367 1.397 . S
C363 C419 1.419 . S
C364 C360 1.391 . S
C364 C363 1.391 . S
C364 C365 1.399 . S
C365 C364 1.399 . S
C365 C368 1.396 . S
C365 C377 1.453 1_545 S
C365 C378 1.684 . S
H366 C390 0.948 . S
C367 C363 1.397 . S
C367 C368 1.394 . S
C367 C386 1.723 . S
C368 C365 1.396 . S
C368 C367 1.394 . S
C368 C398 1.723 . S
H369 C392 0.947 . S
H370 C393 0.948 . S
H371 C399 0.982 . S
H372 C400 0.979 . S
H373 C400 0.980 . S
H374 C400 0.983 . S
H375 C399 0.979 . S
H376 C399 0.977 . S
C377 C365 1.453 1_565 S
C377 H406 0.982 . S
C377 H407 0.979 . S
C377 H408 0.977 . S
C378 C365 1.684 . S
C378 H403 0.979 . S
C378 H404 0.980 . S
C378 H405 0.983 . S
C379 C380 1.391 . S
C379 C384 1.391 . S
C379 H409 0.948 . S
C380 C379 1.391 . S
C380 C381 1.391 . S
C381 C380 1.391 . S
C381 C382 1.392 . S
C381 H410 0.947 . S
C382 C381 1.392 . S
C382 C383 1.419 . S
C382 H411 0.948 . S
C383 C382 1.419 . S
C383 C384 1.391 . S
C383 C387 1.397 . S
C384 C379 1.391 . S
C384 C383 1.391 . S
C384 C385 1.399 . S
C385 C384 1.399 . S
C385 C386 1.396 . S
C385 C388 1.453 1_545 S
C385 C389 1.684 . S
C386 C367 1.723 . S
C386 C385 1.396 . S
C386 C387 1.394 . S
C387 C383 1.397 . S
C387 C386 1.394 . S
C387 C397 1.723 . S
C388 C385 1.453 1_565 S
C388 H412 0.982 . S
C388 H413 0.979 . S
C388 H414 0.977 . S
C389 C385 1.684 . S
C389 H415 0.979 . S
C389 H416 0.980 . S
C389 H417 0.983 . S
C390 H366 0.948 . S
C390 C391 1.391 . S
C390 C395 1.391 . S
C391 C390 1.391 . S
C391 C392 1.391 . S
C392 H369 0.947 . S
C392 C391 1.391 . S
C392 C393 1.392 . S
C393 H370 0.948 . S
C393 C392 1.392 . S
C393 C394 1.419 . S
C394 C393 1.419 . S
C394 C395 1.391 . S
C394 C398 1.397 . S
C395 C390 1.391 . S
C395 C394 1.391 . S
C395 C396 1.399 . S
C396 C395 1.399 . S
C396 C397 1.396 . S
C396 C399 1.453 1_545 S
C396 C400 1.684 . S
C397 C387 1.723 . S
C397 C396 1.396 . S
C397 C398 1.394 . S
C398 C368 1.723 . S
C398 C394 1.397 . S
C398 C397 1.394 . S
C399 H371 0.982 . S
C399 H375 0.979 . S
C399 H376 0.977 . S
C399 C396 1.453 1_565 S
C400 H372 0.979 . S
C400 H373 0.980 . S
C400 H374 0.983 . S
C400 C396 1.684 . S
H401 C419 0.948 . S
H402 C360 0.948 . S
H403 C378 0.979 . S
H404 C378 0.980 . S
H405 C378 0.983 . S
H406 C377 0.982 . S
H407 C377 0.979 . S
H408 C377 0.977 . S
H409 C379 0.948 . S
H410 C381 0.947 . S
H411 C382 0.948 . S
H412 C388 0.982 . S
H413 C388 0.979 . S
H414 C388 0.977 . S
H415 C389 0.979 . S
H416 C389 0.980 . S
H417 C389 0.983 . S
H418 C362 0.947 . S
C419 C362 1.392 . S
C419 C363 1.419 . S
C419 H401 0.948 . S
C420 C421 1.391 . S
C420 C424 1.391 . S
C420 H462 0.948 . S
C421 C420 1.391 . S
C421 C422 1.391 . S
C422 C421 1.391 . S
C422 H478 0.947 . S
C422 C479 1.392 . S
C423 C424 1.391 . S
C423 C427 1.397 . S
C423 C479 1.419 . S
C424 C420 1.391 . S
C424 C423 1.391 . S
C424 C425 1.399 . S
C425 C424 1.399 . S
C425 C428 1.396 . S
C425 C437 1.453 . S
C425 C438 1.684 . S
H426 C450 0.948 . S
C427 C423 1.397 . S
C427 C428 1.394 . S
C427 C446 1.723 . S
C428 C425 1.396 . S
C428 C427 1.394 . S
C428 C458 1.723 . S
H429 C452 0.947 . S
H430 C453 0.948 . S
H431 C459 0.982 . S
H432 C460 0.979 . S
H433 C460 0.980 . S
H434 C460 0.983 . S
H435 C459 0.979 . S
H436 C459 0.977 . S
C437 C425 1.453 . S
C437 H466 0.982 . S
C437 H467 0.979 . S
C437 H468 0.977 . S
C438 C425 1.684 . S
C438 H463 0.979 . S
C438 H464 0.980 . S
C438 H465 0.983 . S
C439 C440 1.391 . S
C439 C444 1.391 . S
C439 H469 0.948 . S
C440 C439 1.391 . S
C440 C441 1.391 . S
C441 C440 1.391 . S
C441 C442 1.392 . S
C441 H470 0.947 . S
C442 C441 1.392 . S
C442 C443 1.419 . S
C442 H471 0.948 . S
C443 C442 1.419 . S
C443 C444 1.391 . S
C443 C447 1.397 . S
C444 C439 1.391 . S
C444 C443 1.391 . S
C444 C445 1.399 . S
C445 C444 1.399 . S
C445 C446 1.396 . S
C445 C448 1.453 . S
C445 C449 1.684 . S
C446 C427 1.723 . S
C446 C445 1.396 . S
C446 C447 1.394 . S
C447 C443 1.397 . S
C447 C446 1.394 . S
C447 C457 1.723 . S
C448 C445 1.453 . S
C448 H472 0.982 . S
C448 H473 0.979 . S
C448 H474 0.977 . S
C449 C445 1.684 . S
C449 H475 0.979 . S
C449 H476 0.980 . S
C449 H477 0.983 . S
C450 H426 0.948 . S
C450 C451 1.391 . S
C450 C455 1.391 . S
C451 C450 1.391 . S
C451 C452 1.391 . S
C452 H429 0.947 . S
C452 C451 1.391 . S
C452 C453 1.392 . S
C453 H430 0.948 . S
C453 C452 1.392 . S
C453 C454 1.419 . S
C454 C453 1.419 . S
C454 C455 1.391 . S
C454 C458 1.397 . S
C455 C450 1.391 . S
C455 C454 1.391 . S
C455 C456 1.399 . S
C456 C455 1.399 . S
C456 C457 1.396 . S
C456 C459 1.453 . S
C456 C460 1.684 . S
C457 C447 1.723 . S
C457 C456 1.396 . S
C457 C458 1.394 . S
C458 C428 1.723 . S
C458 C454 1.397 . S
C458 C457 1.394 . S
C459 H431 0.982 . S
C459 H435 0.979 . S
C459 H436 0.977 . S
C459 C456 1.453 . S
C460 H432 0.979 . S
C460 H433 0.980 . S
C460 H434 0.983 . S
C460 C456 1.684 . S
H461 C479 0.948 . S
H462 C420 0.948 . S
H463 C438 0.979 . S
H464 C438 0.980 . S
H465 C438 0.983 . S
H466 C437 0.982 . S
H467 C437 0.979 . S
H468 C437 0.977 . S
H469 C439 0.948 . S
H470 C441 0.947 . S
H471 C442 0.948 . S
H472 C448 0.982 . S
H473 C448 0.979 . S
H474 C448 0.977 . S
H475 C449 0.979 . S
H476 C449 0.980 . S
H477 C449 0.983 . S
H478 C422 0.947 . S
C479 C422 1.392 . S
C479 C423 1.419 . S
C479 H461 0.948 . S
Tb480 O483 2.453 1_665 S
Tb480 O484 2.596 1_665 S
Tb480 O485 2.374 1_655 S
Tb480 O493 2.343 . S
Tb480 O495 2.353 1_565 S
Tb480 O497 2.427 . S
Tb480 O498 2.513 . S
C481 O485 1.251 . S
C481 O487 1.263 . S
Tb482 O484 2.343 . S
Tb482 O487 2.353 1_545 S
Tb482 O490 2.427 . S
Tb482 O491 2.513 . S
Tb482 O492 2.453 1_545 S
Tb482 O493 2.596 1_445 S
Tb482 O494 2.374 1_455 S
O483 Tb480 2.453 1_445 S
O483 C499 1.245 . S
O484 Tb480 2.596 1_445 S
O484 Tb482 2.343 . S
O484 C499 1.259 . S
O485 Tb480 2.374 1_455 S
O485 C481 1.251 . S
C486 O490 1.275 . S
C486 O491 1.246 . S
O487 C481 1.263 . S
O487 Tb482 2.353 1_565 S
C488 O492 1.245 1_655 S
C488 O493 1.259 . S
C489 O494 1.250 . S
C489 O495 1.263 . S
O490 Tb482 2.427 . S
O490 C486 1.275 . S
O491 Tb482 2.513 . S
O491 C486 1.246 . S
O492 Tb482 2.453 1_565 S
O492 C488 1.245 1_455 S
O493 Tb480 2.343 . S
O493 Tb482 2.596 1_665 S
O493 C488 1.259 . S
O494 Tb482 2.374 1_655 S
O494 C489 1.250 . S
O495 Tb480 2.353 1_545 S
O495 C489 1.263 . S
C496 O497 1.275 . S
C496 O498 1.246 . S
O497 Tb480 2.427 . S
O497 C496 1.275 . S
O498 Tb480 2.513 . S
O498 C496 1.246 . S
C499 O483 1.245 . S
C499 O484 1.259 . S
Tb500 O503 2.453 . S
Tb500 O504 2.596 1_545 S
Tb500 O505 2.374 . S
Tb500 O513 2.343 . S
Tb500 O515 2.353 . S
Tb500 O517 2.427 . S
Tb500 O518 2.513 . S
C501 O505 1.274 . S
C501 O507 1.242 1_545 S
Tb502 O504 2.343 . S
Tb502 O507 2.353 . S
Tb502 O510 2.427 . S
Tb502 O511 2.513 . S
Tb502 O512 2.453 . S
Tb502 O513 2.596 1_565 S
Tb502 O514 2.374 . S
O503 Tb500 2.453 . S
O503 C519 1.245 . S
O504 Tb500 2.596 1_565 S
O504 Tb502 2.343 . S
O504 C519 1.259 1_565 S
O505 Tb500 2.374 . S
O505 C501 1.274 . S
C506 O510 1.275 . S
C506 O511 1.246 . S
O507 C501 1.242 1_565 S
O507 Tb502 2.353 . S
C508 O512 1.245 . S
C508 O513 1.259 1_565 S
C509 O514 1.250 1_545 S
C509 O515 1.263 . S
O510 Tb502 2.427 . S
O510 C506 1.275 . S
O511 Tb502 2.513 . S
O511 C506 1.246 . S
O512 Tb502 2.453 . S
O512 C508 1.245 . S
O513 Tb500 2.343 . S
O513 Tb502 2.596 1_545 S
O513 C508 1.259 1_545 S
O514 Tb502 2.374 . S
O514 C509 1.250 1_565 S
O515 Tb500 2.353 . S
O515 C509 1.263 . S
C516 O517 1.275 . S
C516 O518 1.246 . S
O517 Tb500 2.427 . S
O517 C516 1.275 . S
O518 Tb500 2.513 . S
O518 C516 1.246 . S
C519 O503 1.245 . S
C519 O504 1.259 1_545 S
Tb520 O523 2.453 . S
Tb520 O524 2.596 . S
Tb520 O525 2.374 . S
Tb520 O533 2.343 . S
Tb520 O535 2.353 . S
Tb520 O537 2.427 . S
Tb520 O538 2.513 . S
C521 O525 1.251 . S
C521 O527 1.263 . S
Tb522 O524 2.343 . S
Tb522 O527 2.353 . S
Tb522 O530 2.427 . S
Tb522 O531 2.513 . S
Tb522 O532 2.453 . S
Tb522 O533 2.596 . S
Tb522 O534 2.374 . S
O523 Tb520 2.453 . S
O523 C539 1.245 . S
O524 Tb520 2.596 . S
O524 Tb522 2.343 . S
O524 C539 1.259 . S
O525 Tb520 2.374 . S
O525 C521 1.251 . S
C526 O530 1.275 . S
C526 O531 1.246 . S
O527 C521 1.263 . S
O527 Tb522 2.353 . S
C528 O532 1.245 . S
C528 O533 1.259 . S
C529 O534 1.250 . S
C529 O535 1.263 . S
O530 Tb522 2.427 . S
O530 C526 1.275 . S
O531 Tb522 2.513 . S
O531 C526 1.246 . S
O532 Tb522 2.453 . S
O532 C528 1.245 . S
O533 Tb520 2.343 . S
O533 Tb522 2.596 . S
O533 C528 1.259 . S
O534 Tb522 2.374 . S
O534 C529 1.250 . S
O535 Tb520 2.353 . S
O535 C529 1.263 . S
C536 O537 1.275 . S
C536 O538 1.246 . S
O537 Tb520 2.427 . S
O537 C536 1.275 . S
O538 Tb520 2.513 . S
O538 C536 1.246 . S
C539 O523 1.245 . S
C539 O524 1.259 . S
Tb540 O543 2.453 1_655 S
Tb540 O544 2.596 1_655 S
Tb540 O545 2.374 1_655 S
Tb540 O553 2.343 . S
Tb540 O555 2.353 . S
Tb540 O557 2.427 . S
Tb540 O558 2.513 . S
C541 O545 1.251 . S
C541 O547 1.263 . S
Tb542 O544 2.343 . S
Tb542 O547 2.353 . S
Tb542 O550 2.427 . S
Tb542 O551 2.513 . S
Tb542 O552 2.453 1_455 S
Tb542 O553 2.596 1_455 S
Tb542 O554 2.374 . S
O543 Tb540 2.453 1_455 S
O543 C559 1.245 . S
O544 Tb540 2.596 1_455 S
O544 Tb542 2.343 . S
O544 C559 1.259 . S
O545 Tb540 2.374 1_455 S
O545 C541 1.251 . S
C546 O550 1.275 . S
C546 O551 1.246 . S
O547 C541 1.263 . S
O547 Tb542 2.353 . S
C548 O552 1.245 . S
C548 O553 1.259 . S
C549 O554 1.250 1_655 S
C549 O555 1.263 . S
O550 Tb542 2.427 . S
O550 C546 1.275 . S
O551 Tb542 2.513 . S
O551 C546 1.246 . S
O552 Tb542 2.453 1_655 S
O552 C548 1.245 . S
O553 Tb540 2.343 . S
O553 Tb542 2.596 1_655 S
O553 C548 1.259 . S
O554 Tb542 2.374 . S
O554 C549 1.250 1_455 S
O555 Tb540 2.353 . S
O555 C549 1.263 . S
C556 O557 1.275 . S
C556 O558 1.246 . S
O557 Tb540 2.427 . S
O557 C556 1.275 . S
O558 Tb540 2.513 . S
O558 C556 1.246 . S
C559 O543 1.245 . S
C559 O544 1.259 . S
H560 C572 0.930 . S
H561 C574 0.930 . S
H562 C575 0.930 . S
H563 C579 0.959 . S
H564 C579 0.959 . S
H565 C579 0.961 . S
H566 C580 0.960 . S
H567 C580 0.961 . S
H568 C580 0.959 . S
H569 C583 0.929 . S
H570 C584 0.931 . S
H571 C586 0.930 . S
C572 H560 0.930 . S
C572 C573 1.399 1_565 S
C572 C577 1.399 . S
C573 C572 1.399 1_545 S
C573 C574 1.376 . S
C574 H561 0.930 . S
C574 C573 1.376 . S
C574 C575 1.388 . S
C575 H562 0.930 . S
C575 C574 1.388 . S
C575 C576 1.390 . S
C576 C575 1.390 . S
C576 C577 1.394 1_545 S
C576 C582 1.465 . S
C577 C572 1.399 . S
C577 C576 1.394 1_565 S
C577 C578 1.516 . S
C578 C577 1.516 . S
C578 C579 1.502 . S
C578 C580 1.561 . S
C578 C581 1.526 . S
C579 H563 0.959 . S
C579 H564 0.959 . S
C579 H565 0.961 . S
C579 C578 1.502 . S
C580 H566 0.960 . S
C580 H567 0.961 . S
C580 H568 0.959 . S
C580 C578 1.561 . S
C581 C578 1.526 . S
C581 C582 1.396 1_565 S
C581 C586 1.390 . S
C582 C576 1.465 . S
C582 C581 1.396 1_545 S
C582 C583 1.399 . S
C583 H569 0.929 . S
C583 C582 1.399 . S
C583 C584 1.385 . S
C584 H570 0.931 . S
C584 C583 1.385 . S
C584 C585 1.384 1_545 S
C585 C584 1.384 1_565 S
C585 C586 1.391 . S
C586 H571 0.930 . S
C586 C581 1.390 . S
C586 C585 1.391 . S
H587 C599 0.930 . S
H588 C601 0.930 . S
H589 C602 0.930 . S
H590 C606 0.959 . S
H591 C606 0.959 . S
H592 C606 0.961 . S
H593 C607 0.960 . S
H594 C607 0.961 . S
H595 C607 0.959 . S
H596 C610 0.929 . S
H597 C611 0.931 . S
H598 C613 0.930 . S
C599 H587 0.930 . S
C599 C600 1.399 . S
C599 C604 1.399 . S
C600 C599 1.399 . S
C600 C601 1.376 . S
C601 H588 0.930 . S
C601 C600 1.376 . S
C601 C602 1.388 . S
C602 H589 0.930 . S
C602 C601 1.388 . S
C602 C603 1.390 . S
C603 C602 1.390 . S
C603 C604 1.394 . S
C603 C609 1.465 . S
C604 C599 1.399 . S
C604 C603 1.394 . S
C604 C605 1.516 . S
C605 C604 1.516 . S
C605 C606 1.502 . S
C605 C607 1.561 . S
C605 C608 1.526 . S
C606 H590 0.959 . S
C606 H591 0.959 . S
C606 H592 0.961 . S
C606 C605 1.502 . S
C607 H593 0.960 . S
C607 H594 0.961 . S
C607 H595 0.959 . S
C607 C605 1.561 . S
C608 C605 1.526 . S
C608 C609 1.396 . S
C608 C613 1.390 . S
C609 C603 1.465 . S
C609 C608 1.396 . S
C609 C610 1.399 . S
C610 H596 0.929 . S
C610 C609 1.399 . S
C610 C611 1.385 . S
C611 H597 0.931 . S
C611 C610 1.385 . S
C611 C612 1.389 . S
C612 C611 1.389 . S
C612 C613 1.387 . S
C613 H598 0.930 . S
C613 C608 1.390 . S
C613 C612 1.387 . S
H614 C626 0.930 . S
H615 C628 0.930 . S
H616 C629 0.930 . S
H617 C633 0.959 . S
H618 C633 0.959 . S
H619 C633 0.961 . S
H620 C634 0.960 . S
H621 C634 0.961 . S
H622 C634 0.959 . S
H623 C637 0.929 . S
H624 C638 0.931 . S
H625 C640 0.930 . S
C626 H614 0.930 . S
C626 C627 1.399 . S
C626 C631 1.399 . S
C627 C626 1.399 . S
C627 C628 1.376 . S
C628 H615 0.930 . S
C628 C627 1.376 . S
C628 C629 1.388 . S
C629 H616 0.930 . S
C629 C628 1.388 . S
C629 C630 1.390 . S
C630 C629 1.390 . S
C630 C631 1.394 . S
C630 C636 1.465 . S
C631 C626 1.399 . S
C631 C630 1.394 . S
C631 C632 1.516 . S
C632 C631 1.516 . S
C632 C633 1.502 . S
C632 C634 1.561 . S
C632 C635 1.526 . S
C633 H617 0.959 . S
C633 H618 0.959 . S
C633 H619 0.961 . S
C633 C632 1.502 . S
C634 H620 0.960 . S
C634 H621 0.961 . S
C634 H622 0.959 . S
C634 C632 1.561 . S
C635 C632 1.526 . S
C635 C636 1.396 . S
C635 C640 1.390 . S
C636 C630 1.465 . S
C636 C635 1.396 . S
C636 C637 1.399 . S
C637 H623 0.929 . S
C637 C636 1.399 . S
C637 C638 1.385 . S
C638 H624 0.931 . S
C638 C637 1.385 . S
C638 C639 1.389 . S
C639 C638 1.389 . S
C639 C640 1.387 . S
C640 H625 0.930 . S
C640 C635 1.390 . S
C640 C639 1.387 . S
H641 C653 0.930 . S
H642 C655 0.930 . S
H643 C656 0.930 . S
H644 C660 0.959 . S
H645 C660 0.959 . S
H646 C660 0.961 . S
H647 C661 0.960 . S
H648 C661 0.961 . S
H649 C661 0.959 . S
H650 C664 0.929 . S
H651 C665 0.931 . S
H652 C667 0.930 . S
C653 H641 0.930 . S
C653 C654 1.399 . S
C653 C658 1.399 . S
C654 C653 1.399 . S
C654 C655 1.376 . S
C655 H642 0.930 . S
C655 C654 1.376 . S
C655 C656 1.388 . S
C656 H643 0.930 . S
C656 C655 1.388 . S
C656 C657 1.390 . S
C657 C656 1.390 . S
C657 C658 1.394 . S
C657 C663 1.465 . S
C658 C653 1.399 . S
C658 C657 1.394 . S
C658 C659 1.516 . S
C659 C658 1.516 . S
C659 C660 1.502 . S
C659 C661 1.561 . S
C659 C662 1.526 . S
C660 H644 0.959 . S
C660 H645 0.959 . S
C660 H646 0.961 . S
C660 C659 1.502 . S
C661 H647 0.960 . S
C661 H648 0.961 . S
C661 H649 0.959 . S
C661 C659 1.561 . S
C662 C659 1.526 . S
C662 C663 1.396 . S
C662 C667 1.390 . S
C663 C657 1.465 . S
C663 C662 1.396 . S
C663 C664 1.399 . S
C664 H650 0.929 . S
C664 C663 1.399 . S
C664 C665 1.385 . S
C665 H651 0.931 . S
C665 C664 1.385 . S
C665 C666 1.389 . S
C666 C665 1.389 . S
C666 C667 1.387 . S
C667 H652 0.930 . S
C667 C662 1.390 . S
C667 C666 1.387 . S
H668 C680 0.930 1_554 S
H669 C682 0.930 . S
H670 C683 0.930 . S
H671 C687 0.959 . S
H672 C687 0.959 . S
H673 C687 0.961 . S
H674 C688 0.960 . S
H675 C688 0.961 . S
H676 C688 0.959 . S
H677 C691 0.929 . S
H678 C692 0.931 . S
H679 C694 0.930 . S
C680 H668 0.930 1_556 S
C680 C681 1.400 1_565 S
C680 C685 1.399 . S
C681 C680 1.400 1_545 S
C681 C682 1.379 . S
C682 H669 0.930 . S
C682 C681 1.379 . S
C682 C683 1.388 . S
C683 H670 0.930 . S
C683 C682 1.388 . S
C683 C684 1.390 . S
C684 C683 1.390 . S
C684 C685 1.394 1_545 S
C684 C690 1.465 . S
C685 C680 1.399 . S
C685 C684 1.394 1_565 S
C685 C686 1.516 . S
C686 C685 1.516 . S
C686 C687 1.502 . S
C686 C688 1.561 . S
C686 C689 1.526 . S
C687 H671 0.959 . S
C687 H672 0.959 . S
C687 H673 0.961 . S
C687 C686 1.502 . S
C688 H674 0.960 . S
C688 H675 0.961 . S
C688 H676 0.959 . S
C688 C686 1.561 . S
C689 C686 1.526 . S
C689 C690 1.396 1_565 S
C689 C694 1.390 . S
C690 C684 1.465 . S
C690 C689 1.396 1_545 S
C690 C691 1.399 . S
C691 H677 0.929 . S
C691 C690 1.399 . S
C691 C692 1.385 . S
C692 H678 0.931 . S
C692 C691 1.385 . S
C692 C693 1.389 . S
C693 C692 1.389 . S
C693 C694 1.387 1_545 S
C694 H679 0.930 . S
C694 C689 1.390 . S
C694 C693 1.387 1_565 S
H695 C707 0.930 1_554 S
H696 C709 0.930 . S
H697 C710 0.930 . S
H698 C714 0.959 1_556 S
H699 C714 0.959 . S
H700 C714 0.961 . S
H701 C715 0.960 1_554 S
H702 C715 0.961 . S
H703 C715 0.959 . S
H704 C718 0.929 . S
H705 C719 0.931 . S
H706 C721 0.930 . S
C707 H695 0.930 1_556 S
C707 C708 1.399 . S
C707 C712 1.399 . S
C708 C707 1.399 . S
C708 C709 1.376 . S
C709 H696 0.930 . S
C709 C708 1.376 . S
C709 C710 1.388 . S
C710 H697 0.930 . S
C710 C709 1.388 . S
C710 C711 1.390 . S
C711 C710 1.390 . S
C711 C712 1.394 . S
C711 C717 1.465 . S
C712 C707 1.399 . S
C712 C711 1.394 . S
C712 C713 1.516 . S
C713 C712 1.516 . S
C713 C714 1.502 1_556 S
C713 C715 1.561 . S
C713 C716 1.526 . S
C714 H698 0.959 1_554 S
C714 H699 0.959 . S
C714 H700 0.961 . S
C714 C713 1.502 1_554 S
C715 H701 0.960 1_556 S
C715 H702 0.961 . S
C715 H703 0.959 . S
C715 C713 1.561 . S
C716 C713 1.526 . S
C716 C717 1.396 . S
C716 C721 1.390 . S
C717 C711 1.465 . S
C717 C716 1.396 . S
C717 C718 1.399 . S
C718 H704 0.929 . S
C718 C717 1.399 . S
C718 C719 1.385 . S
C719 H705 0.931 . S
C719 C718 1.385 . S
C719 C720 1.389 . S
C720 C719 1.389 . S
C720 C721 1.387 . S
C721 H706 0.930 . S
C721 C716 1.390 . S
C721 C720 1.387 . S
H722 C734 0.930 1_554 S
H723 C736 0.930 . S
H724 C737 0.930 . S
H725 C741 0.959 . S
H726 C741 0.959 . S
H727 C741 0.961 1_554 S
H728 C742 0.960 1_554 S
H729 C742 0.961 . S
H730 C742 0.959 . S
H731 C745 0.929 . S
H732 C746 0.931 . S
H733 C748 0.930 . S
C734 H722 0.930 1_556 S
C734 C735 1.399 . S
C734 C739 1.399 . S
C735 C734 1.399 . S
C735 C736 1.376 . S
C736 H723 0.930 . S
C736 C735 1.376 . S
C736 C737 1.388 . S
C737 H724 0.930 . S
C737 C736 1.388 . S
C737 C738 1.390 . S
C738 C737 1.390 . S
C738 C739 1.394 . S
C738 C744 1.465 . S
C739 C734 1.399 . S
C739 C738 1.394 . S
C739 C740 1.516 . S
C740 C739 1.516 . S
C740 C741 1.502 . S
C740 C742 1.561 . S
C740 C743 1.526 . S
C741 H725 0.959 . S
C741 H726 0.959 . S
C741 H727 0.961 1_556 S
C741 C740 1.502 . S
C742 H728 0.960 1_556 S
C742 H729 0.961 . S
C742 H730 0.959 . S
C742 C740 1.561 . S
C743 C740 1.526 . S
C743 C744 1.396 . S
C743 C748 1.390 . S
C744 C738 1.465 . S
C744 C743 1.396 . S
C744 C745 1.399 . S
C745 H731 0.929 . S
C745 C744 1.399 . S
C745 C746 1.385 . S
C746 H732 0.931 . S
C746 C745 1.385 . S
C746 C747 1.389 . S
C747 C746 1.389 . S
C747 C748 1.387 . S
C748 H733 0.930 . S
C748 C743 1.390 . S
C748 C747 1.387 . S
H749 C761 0.930 . S
H750 C763 0.930 1_554 S
H751 C764 0.930 . S
H752 C768 0.959 . S
H753 C768 0.959 . S
H754 C768 0.961 . S
H755 C769 0.960 . S
H756 C769 0.961 . S
H757 C769 0.959 . S
H758 C772 0.929 . S
H759 C773 0.931 . S
H760 C775 0.930 . S
C761 H749 0.930 . S
C761 C762 1.399 . S
C761 C766 1.399 . S
C762 C761 1.399 . S
C762 C763 1.376 . S
C763 H750 0.930 1_556 S
C763 C762 1.376 . S
C763 C764 1.388 . S
C764 H751 0.930 . S
C764 C763 1.388 . S
C764 C765 1.390 . S
C765 C764 1.390 . S
C765 C766 1.394 . S
C765 C771 1.465 . S
C766 C761 1.399 . S
C766 C765 1.394 . S
C766 C767 1.516 . S
C767 C766 1.516 . S
C767 C768 1.502 . S
C767 C769 1.561 . S
C767 C770 1.526 . S
C768 H752 0.959 . S
C768 H753 0.959 . S
C768 H754 0.961 . S
C768 C767 1.502 . S
C769 H755 0.960 . S
C769 H756 0.961 . S
C769 H757 0.959 . S
C769 C767 1.561 . S
C770 C767 1.526 . S
C770 C771 1.396 . S
C770 C775 1.390 . S
C771 C765 1.465 . S
C771 C770 1.396 . S
C771 C772 1.399 . S
C772 H758 0.929 . S
C772 C771 1.399 . S
C772 C773 1.385 . S
C773 H759 0.931 . S
C773 C772 1.385 . S
C773 C774 1.389 . S
C774 C773 1.389 . S
C774 C775 1.387 . S
C775 H760 0.930 . S
C775 C770 1.390 . S
C775 C774 1.387 . S
H776 C788 0.930 . S
H777 C790 0.930 . S
H778 C791 0.930 . S
H779 C795 0.959 . S
H780 C795 0.959 . S
H781 C795 0.961 . S
H782 C796 0.960 . S
H783 C796 0.961 . S
H784 C796 0.959 . S
H785 C799 0.929 . S
H786 C800 0.931 . S
H787 C802 0.930 . S
C788 H776 0.930 . S
C788 C789 1.399 . S
C788 C793 1.399 . S
C789 C788 1.399 . S
C789 C790 1.376 . S
C790 H777 0.930 . S
C790 C789 1.376 . S
C790 C791 1.388 . S
C791 H778 0.930 . S
C791 C790 1.388 . S
C791 C792 1.390 . S
C792 C791 1.390 . S
C792 C793 1.394 . S
C792 C798 1.465 . S
C793 C788 1.399 . S
C793 C792 1.394 . S
C793 C794 1.516 . S
C794 C793 1.516 . S
C794 C795 1.502 . S
C794 C796 1.561 . S
C794 C797 1.526 . S
C795 H779 0.959 . S
C795 H780 0.959 . S
C795 H781 0.961 . S
C795 C794 1.502 . S
C796 H782 0.960 . S
C796 H783 0.961 . S
C796 H784 0.959 . S
C796 C794 1.561 . S
C797 C794 1.526 . S
C797 C798 1.396 . S
C797 C802 1.390 . S
C798 C792 1.465 . S
C798 C797 1.396 . S
C798 C799 1.399 . S
C799 H785 0.929 . S
C799 C798 1.399 . S
C799 C800 1.385 . S
C800 H786 0.931 . S
C800 C799 1.385 . S
C800 C801 1.389 . S
C801 C800 1.389 . S
C801 C802 1.387 . S
C802 H787 0.930 . S
C802 C797 1.390 . S
C802 C801 1.387 . S
H803 C815 0.930 . S
H804 C817 0.930 . S
H805 C818 0.930 . S
H806 C822 0.959 . S
H807 C822 0.959 . S
H808 C822 0.961 . S
H809 C823 0.960 . S
H810 C823 0.961 . S
H811 C823 0.959 . S
H812 C826 0.929 . S
H813 C827 0.931 . S
H814 C829 0.930 . S
C815 H803 0.930 . S
C815 C816 1.413 . S
C815 C820 1.399 . S
C816 C815 1.413 . S
C816 C817 1.356 1_545 S
C817 H804 0.930 . S
C817 C816 1.356 1_565 S
C817 C818 1.388 . S
C818 H805 0.930 . S
C818 C817 1.388 . S
C818 C819 1.390 . S
C819 C818 1.390 . S
C819 C820 1.394 1_565 S
C819 C825 1.465 . S
C820 C815 1.399 . S
C820 C819 1.394 1_545 S
C820 C821 1.516 . S
C821 C820 1.516 . S
C821 C822 1.502 . S
C821 C823 1.561 . S
C821 C824 1.526 . S
C822 H806 0.959 . S
C822 H807 0.959 . S
C822 H808 0.961 . S
C822 C821 1.502 . S
C823 H809 0.960 . S
C823 H810 0.961 . S
C823 H811 0.959 . S
C823 C821 1.561 . S
C824 C821 1.526 . S
C824 C825 1.396 1_545 S
C824 C829 1.390 . S
C825 C819 1.465 . S
C825 C824 1.396 1_565 S
C825 C826 1.399 . S
C826 H812 0.929 . S
C826 C825 1.399 . S
C826 C827 1.385 . S
C827 H813 0.931 . S
C827 C826 1.385 . S
C827 C828 1.389 . S
C828 C827 1.389 . S
C828 C829 1.387 1_565 S
C829 H814 0.930 . S
C829 C824 1.390 . S
C829 C828 1.387 1_545 S
H830 C842 0.930 . S
H831 C844 0.930 . S
H832 C845 0.930 . S
H833 C849 0.959 . S
H834 C849 0.959 . S
H835 C849 0.961 . S
H836 C850 0.960 . S
H837 C850 0.961 . S
H838 C850 0.959 . S
H839 C853 0.929 . S
H840 C854 0.931 . S
H841 C856 0.930 . S
C842 H830 0.930 . S
C842 C843 1.399 . S
C842 C847 1.399 . S
C843 C842 1.399 . S
C843 C844 1.376 . S
C844 H831 0.930 . S
C844 C843 1.376 . S
C844 C845 1.388 . S
C845 H832 0.930 . S
C845 C844 1.388 . S
C845 C846 1.390 . S
C846 C845 1.390 . S
C846 C847 1.394 . S
C846 C852 1.465 . S
C847 C842 1.399 . S
C847 C846 1.394 . S
C847 C848 1.516 . S
C848 C847 1.516 . S
C848 C849 1.502 . S
C848 C850 1.561 . S
C848 C851 1.526 . S
C849 H833 0.959 . S
C849 H834 0.959 . S
C849 H835 0.961 . S
C849 C848 1.502 . S
C850 H836 0.960 . S
C850 H837 0.961 . S
C850 H838 0.959 . S
C850 C848 1.561 . S
C851 C848 1.526 . S
C851 C852 1.396 . S
C851 C856 1.390 . S
C852 C846 1.465 . S
C852 C851 1.396 . S
C852 C853 1.399 . S
C853 H839 0.929 . S
C853 C852 1.399 . S
C853 C854 1.385 . S
C854 H840 0.931 . S
C854 C853 1.385 . S
C854 C855 1.389 . S
C855 C854 1.389 . S
C855 C856 1.387 . S
C856 H841 0.930 . S
C856 C851 1.390 . S
C856 C855 1.387 . S
H857 C869 0.930 . S
H858 C871 0.930 . S
H859 C872 0.930 . S
H860 C876 0.959 . S
H861 C876 0.959 . S
H862 C876 0.961 . S
H863 C877 0.960 . S
H864 C877 0.961 . S
H865 C877 0.959 . S
H866 C880 0.929 . S
H867 C881 0.931 . S
H868 C883 0.930 . S
C869 H857 0.930 . S
C869 C870 1.399 . S
C869 C874 1.399 . S
C870 C869 1.399 . S
C870 C871 1.376 . S
C871 H858 0.930 . S
C871 C870 1.376 . S
C871 C872 1.388 . S
C872 H859 0.930 . S
C872 C871 1.388 . S
C872 C873 1.390 . S
C873 C872 1.390 . S
C873 C874 1.394 . S
C873 C879 1.465 . S
C874 C869 1.399 . S
C874 C873 1.394 . S
C874 C875 1.516 . S
C875 C874 1.516 . S
C875 C876 1.502 . S
C875 C877 1.561 . S
C875 C878 1.526 . S
C876 H860 0.959 . S
C876 H861 0.959 . S
C876 H862 0.961 . S
C876 C875 1.502 . S
C877 H863 0.960 . S
C877 H864 0.961 . S
C877 H865 0.959 . S
C877 C875 1.561 . S
C878 C875 1.526 . S
C878 C879 1.396 . S
C878 C883 1.390 . S
C879 C873 1.465 . S
C879 C878 1.396 . S
C879 C880 1.399 . S
C880 H866 0.929 . S
C880 C879 1.399 . S
C880 C881 1.385 . S
C881 H867 0.931 . S
C881 C880 1.385 . S
C881 C882 1.389 . S
C882 C881 1.389 . S
C882 C883 1.387 . S
C883 H868 0.930 . S
C883 C878 1.390 . S
C883 C882 1.387 . S
H884 C896 0.930 . S
H885 C898 0.930 . S
H886 C899 0.930 . S
H887 C903 0.959 . S
H888 C903 0.959 . S
H889 C903 0.961 . S
H890 C904 0.960 . S
H891 C904 0.961 . S
H892 C904 0.959 . S
H893 C907 0.929 . S
H894 C908 0.931 . S
H895 C910 0.930 . S
C896 H884 0.930 . S
C896 C897 1.399 . S
C896 C901 1.399 . S
C897 C896 1.399 . S
C897 C898 1.376 . S
C898 H885 0.930 . S
C898 C897 1.376 . S
C898 C899 1.388 . S
C899 H886 0.930 . S
C899 C898 1.388 . S
C899 C900 1.390 . S
C900 C899 1.390 . S
C900 C901 1.394 . S
C900 C906 1.465 . S
C901 C896 1.399 . S
C901 C900 1.394 . S
C901 C902 1.516 . S
C902 C901 1.516 . S
C902 C903 1.502 . S
C902 C904 1.561 . S
C902 C905 1.526 . S
C903 H887 0.959 . S
C903 H888 0.959 . S
C903 H889 0.961 . S
C903 C902 1.502 . S
C904 H890 0.960 . S
C904 H891 0.961 . S
C904 H892 0.959 . S
C904 C902 1.561 . S
C905 C902 1.526 . S
C905 C906 1.396 . S
C905 C910 1.390 . S
C906 C900 1.465 . S
C906 C905 1.396 . S
C906 C907 1.399 . S
C907 H893 0.929 . S
C907 C906 1.399 . S
C907 C908 1.385 . S
C908 H894 0.931 . S
C908 C907 1.385 . S
C908 C909 1.389 . S
C909 C908 1.389 . S
C909 C910 1.387 . S
C910 H895 0.930 . S
C910 C905 1.390 . S
C910 C909 1.387 . S
H911 C923 0.930 . S
H912 C925 0.930 . S
H913 C926 0.930 . S
H914 C930 0.959 . S
H915 C930 0.959 . S
H916 C930 0.961 . S
H917 C931 0.960 . S
H918 C931 0.961 . S
H919 C931 0.959 . S
H920 C934 0.929 . S
H921 C935 0.931 . S
H922 C937 0.930 . S
C923 H911 0.930 . S
C923 C924 1.399 1_545 S
C923 C928 1.399 . S
C924 C923 1.399 1_565 S
C924 C925 1.376 . S
C925 H912 0.930 . S
C925 C924 1.376 . S
C925 C926 1.388 . S
C926 H913 0.930 . S
C926 C925 1.388 . S
C926 C927 1.390 . S
C927 C926 1.390 . S
C927 C928 1.394 1_565 S
C927 C933 1.465 . S
C928 C923 1.399 . S
C928 C927 1.394 1_545 S
C928 C929 1.516 . S
C929 C928 1.516 . S
C929 C930 1.502 . S
C929 C931 1.561 . S
C929 C932 1.526 . S
C930 H914 0.959 . S
C930 H915 0.959 . S
C930 H916 0.961 . S
C930 C929 1.502 . S
C931 H917 0.960 . S
C931 H918 0.961 . S
C931 H919 0.959 . S
C931 C929 1.561 . S
C932 C929 1.526 . S
C932 C933 1.396 1_545 S
C932 C937 1.390 . S
C933 C927 1.465 . S
C933 C932 1.396 1_565 S
C933 C934 1.399 . S
C934 H920 0.929 . S
C934 C933 1.399 . S
C934 C935 1.385 . S
C935 H921 0.931 . S
C935 C934 1.385 . S
C935 C936 1.389 1_565 S
C936 C935 1.389 1_545 S
C936 C937 1.387 . S
C937 H922 0.930 . S
C937 C932 1.390 . S
C937 C936 1.387 . S
H938 C950 0.930 . S
H939 C952 0.930 . S
H940 C953 0.930 . S
H941 C957 0.959 . S
H942 C957 0.959 . S
H943 C957 0.961 . S
H944 C958 0.960 . S
H945 C958 0.961 . S
H946 C958 0.959 . S
H947 C961 0.929 . S
H948 C962 0.931 . S
H949 C964 0.930 . S
C950 H938 0.930 . S
C950 C951 1.399 . S
C950 C955 1.399 . S
C951 C950 1.399 . S
C951 C952 1.376 . S
C952 H939 0.930 . S
C952 C951 1.376 . S
C952 C953 1.388 . S
C953 H940 0.930 . S
C953 C952 1.388 . S
C953 C954 1.390 . S
C954 C953 1.390 . S
C954 C955 1.394 . S
C954 C960 1.465 . S
C955 C950 1.399 . S
C955 C954 1.394 . S
C955 C956 1.516 . S
C956 C955 1.516 . S
C956 C957 1.502 . S
C956 C958 1.561 . S
C956 C959 1.526 . S
C957 H941 0.959 . S
C957 H942 0.959 . S
C957 H943 0.961 . S
C957 C956 1.502 . S
C958 H944 0.960 . S
C958 H945 0.961 . S
C958 H946 0.959 . S
C958 C956 1.561 . S
C959 C956 1.526 . S
C959 C960 1.396 . S
C959 C964 1.390 . S
C960 C954 1.465 . S
C960 C959 1.396 . S
C960 C961 1.399 . S
C961 H947 0.929 . S
C961 C960 1.399 . S
C961 C962 1.385 . S
C962 H948 0.931 . S
C962 C961 1.385 . S
C962 C963 1.389 . S
C963 C962 1.389 . S
C963 C964 1.387 . S
C964 H949 0.930 . S
C964 C959 1.390 . S
C964 C963 1.387 . S
H965 C977 0.930 . S
H966 C979 0.930 . S
H967 C980 0.930 . S
H968 C984 0.959 . S
H969 C984 0.959 . S
H970 C984 0.961 . S
H971 C985 0.960 . S
H972 C985 0.961 . S
H973 C985 0.959 . S
H974 C988 0.929 . S
H975 C989 0.931 . S
H976 C991 0.930 . S
C977 H965 0.930 . S
C977 C978 1.399 . S
C977 C982 1.399 . S
C978 C977 1.399 . S
C978 C979 1.376 . S
C979 H966 0.930 . S
C979 C978 1.376 . S
C979 C980 1.388 . S
C980 H967 0.930 . S
C980 C979 1.388 . S
C980 C981 1.390 . S
C981 C980 1.390 . S
C981 C982 1.394 . S
C981 C987 1.465 . S
C982 C977 1.399 . S
C982 C981 1.394 . S
C982 C983 1.516 . S
C983 C982 1.516 . S
C983 C984 1.502 . S
C983 C985 1.561 . S
C983 C986 1.526 . S
C984 H968 0.959 . S
C984 H969 0.959 . S
C984 H970 0.961 . S
C984 C983 1.502 . S
C985 H971 0.960 . S
C985 H972 0.961 . S
C985 H973 0.959 . S
C985 C983 1.561 . S
C986 C983 1.526 . S
C986 C987 1.396 . S
C986 C991 1.390 . S
C987 C981 1.465 . S
C987 C986 1.396 . S
C987 C988 1.399 . S
C988 H974 0.929 . S
C988 C987 1.399 . S
C988 C989 1.385 . S
C989 H975 0.931 . S
C989 C988 1.385 . S
C989 C990 1.389 . S
C990 C989 1.389 . S
C990 C991 1.387 . S
C991 H976 0.930 . S
C991 C986 1.390 . S
C991 C990 1.387 . S
H992 C1004 0.930 . S
H993 C1006 0.930 . S
H994 C1007 0.930 . S
H995 C1011 0.959 . S
H996 C1011 0.959 . S
H997 C1011 0.961 . S
H998 C1012 0.960 . S
H999 C1012 0.961 . S
H1000 C1012 0.959 . S
H1001 C1015 0.929 . S
H1002 C1016 0.931 . S
H1003 C1018 0.930 . S
C1004 H992 0.930 . S
C1004 C1005 1.399 1_556 S
C1004 C1009 1.399 . S
C1005 C1004 1.399 1_554 S
C1005 C1006 1.376 . S
C1006 H993 0.930 . S
C1006 C1005 1.376 . S
C1006 C1007 1.388 . S
C1007 H994 0.930 . S
C1007 C1006 1.388 . S
C1007 C1008 1.390 1_554 S
C1008 C1007 1.390 1_556 S
C1008 C1009 1.394 . S
C1008 C1014 1.465 . S
C1009 C1004 1.399 . S
C1009 C1008 1.394 . S
C1009 C1010 1.516 . S
C1010 C1009 1.516 . S
C1010 C1011 1.502 . S
C1010 C1012 1.561 . S
C1010 C1013 1.526 . S
C1011 H995 0.959 . S
C1011 H996 0.959 . S
C1011 H997 0.961 . S
C1011 C1010 1.502 . S
C1012 H998 0.960 . S
C1012 H999 0.961 . S
C1012 H1000 0.959 . S
C1012 C1010 1.561 . S
C1013 C1010 1.526 . S
C1013 C1014 1.396 . S
C1013 C1018 1.390 . S
C1014 C1008 1.465 . S
C1014 C1013 1.396 . S
C1014 C1015 1.399 . S
C1015 H1001 0.929 . S
C1015 C1014 1.399 . S
C1015 C1016 1.385 . S
C1016 H1002 0.931 . S
C1016 C1015 1.385 . S
C1016 C1017 1.389 . S
C1017 C1016 1.389 . S
C1017 C1018 1.387 . S
C1018 H1003 0.930 . S
C1018 C1013 1.390 . S
C1018 C1017 1.387 . S
H1019 C1031 0.930 1_554 S
H1020 C1033 0.932 . S
H1021 C1034 0.931 . S
H1022 C1038 0.959 1_556 S
H1023 C1038 0.959 . S
H1024 C1038 0.961 . S
H1025 C1039 0.960 1_554 S
H1026 C1039 0.961 1_554 S
H1027 C1039 0.959 . S
H1028 C1042 0.928 . S
H1029 C1043 0.931 . S
H1030 C1045 0.930 . S
C1031 H1019 0.930 1_556 S
C1031 C1032 1.399 . S
C1031 C1036 1.404 . S
C1032 C1031 1.399 . S
C1032 C1033 1.377 . S
C1033 H1020 0.932 . S
C1033 C1032 1.377 . S
C1033 C1034 1.387 . S
C1034 H1021 0.931 . S
C1034 C1033 1.387 . S
C1034 C1035 1.390 . S
C1035 C1034 1.390 . S
C1035 C1036 1.395 . S
C1035 C1041 1.467 . S
C1036 C1031 1.404 . S
C1036 C1035 1.395 . S
C1036 C1037 1.508 1_545 S
C1037 C1036 1.508 1_565 S
C1037 C1038 1.492 1_566 S
C1037 C1039 1.576 . S
C1037 C1040 1.525 1_565 S
C1038 H1022 0.959 1_554 S
C1038 H1023 0.959 . S
C1038 H1024 0.961 . S
C1038 C1037 1.492 1_544 S
C1039 H1025 0.960 1_556 S
C1039 H1026 0.961 1_556 S
C1039 H1027 0.959 . S
C1039 C1037 1.576 . S
C1040 C1037 1.525 1_545 S
C1040 C1041 1.392 . S
C1040 C1045 1.390 . S
C1041 C1035 1.467 . S
C1041 C1040 1.392 . S
C1041 C1042 1.401 . S
C1042 H1028 0.928 . S
C1042 C1041 1.401 . S
C1042 C1043 1.385 . S
C1043 H1029 0.931 . S
C1043 C1042 1.385 . S
C1043 C1044 1.389 . S
C1044 C1043 1.389 . S
C1044 C1045 1.387 . S
C1045 H1030 0.930 . S
C1045 C1040 1.390 . S
C1045 C1044 1.387 . S
H1046 C1058 0.930 1_554 S
H1047 C1060 0.930 . S
H1048 C1061 0.930 . S
H1049 C1065 0.959 . S
H1050 C1065 0.959 1_554 S
H1051 C1065 0.961 1_554 S
H1052 C1066 0.960 . S
H1053 C1066 0.961 . S
H1054 C1066 0.959 . S
H1055 C1069 0.929 . S
H1056 C1070 0.931 . S
H1057 C1072 0.930 . S
C1058 H1046 0.930 1_556 S
C1058 C1059 1.399 . S
C1058 C1063 1.399 . S
C1059 C1058 1.399 . S
C1059 C1060 1.376 . S
C1060 H1047 0.930 . S
C1060 C1059 1.376 . S
C1060 C1061 1.388 . S
C1061 H1048 0.930 . S
C1061 C1060 1.388 . S
C1061 C1062 1.390 . S
C1062 C1061 1.390 . S
C1062 C1063 1.394 . S
C1062 C1068 1.465 . S
C1063 C1058 1.399 . S
C1063 C1062 1.394 . S
C1063 C1064 1.516 . S
C1064 C1063 1.516 . S
C1064 C1065 1.502 . S
C1064 C1066 1.561 1_556 S
C1064 C1067 1.526 . S
C1065 H1049 0.959 . S
C1065 H1050 0.959 1_556 S
C1065 H1051 0.961 1_556 S
C1065 C1064 1.502 . S
C1066 H1052 0.960 . S
C1066 H1053 0.961 . S
C1066 H1054 0.959 . S
C1066 C1064 1.561 1_554 S
C1067 C1064 1.526 . S
C1067 C1068 1.396 . S
C1067 C1072 1.390 . S
C1068 C1062 1.465 . S
C1068 C1067 1.396 . S
C1068 C1069 1.399 . S
C1069 H1055 0.929 . S
C1069 C1068 1.399 . S
C1069 C1070 1.385 . S
C1070 H1056 0.931 . S
C1070 C1069 1.385 . S
C1070 C1071 1.389 . S
C1071 C1070 1.389 . S
C1071 C1072 1.387 . S
C1072 H1057 0.930 . S
C1072 C1067 1.390 . S
C1072 C1071 1.387 . S
H1073 C1085 0.930 . S
H1074 C1087 0.930 1_554 S
H1075 C1088 0.930 . S
H1076 C1092 0.959 . S
H1077 C1092 0.959 . S
H1078 C1092 0.961 . S
H1079 C1093 0.960 . S
H1080 C1093 0.961 . S
H1081 C1093 0.959 . S
H1082 C1096 0.929 . S
H1083 C1097 0.931 . S
H1084 C1099 0.930 . S
C1085 H1073 0.930 . S
C1085 C1086 1.399 . S
C1085 C1090 1.399 . S
C1086 C1085 1.399 . S
C1086 C1087 1.376 . S
C1087 H1074 0.930 1_556 S
C1087 C1086 1.376 . S
C1087 C1088 1.388 . S
C1088 H1075 0.930 . S
C1088 C1087 1.388 . S
C1088 C1089 1.390 . S
C1089 C1088 1.390 . S
C1089 C1090 1.394 . S
C1089 C1095 1.465 . S
C1090 C1085 1.399 . S
C1090 C1089 1.394 . S
C1090 C1091 1.516 . S
C1091 C1090 1.516 . S
C1091 C1092 1.502 . S
C1091 C1093 1.561 . S
C1091 C1094 1.526 . S
C1092 H1076 0.959 . S
C1092 H1077 0.959 . S
C1092 H1078 0.961 . S
C1092 C1091 1.502 . S
C1093 H1079 0.960 . S
C1093 H1080 0.961 . S
C1093 H1081 0.959 . S
C1093 C1091 1.561 . S
C1094 C1091 1.526 . S
C1094 C1095 1.396 . S
C1094 C1099 1.390 . S
C1095 C1089 1.465 . S
C1095 C1094 1.396 . S
C1095 C1096 1.399 . S
C1096 H1082 0.929 . S
C1096 C1095 1.399 . S
C1096 C1097 1.385 . S
C1097 H1083 0.931 . S
C1097 C1096 1.385 . S
C1097 C1098 1.389 . S
C1098 C1097 1.389 . S
C1098 C1099 1.387 . S
C1099 H1084 0.930 . S
C1099 C1094 1.390 . S
C1099 C1098 1.387 . S
H1100 C1112 0.930 . S
H1101 C1114 0.930 . S
H1102 C1115 0.930 . S
H1103 C1119 0.959 . S
H1104 C1119 0.959 . S
H1105 C1119 0.961 . S
H1106 C1120 0.960 . S
H1107 C1120 0.961 . S
H1108 C1120 0.959 . S
H1109 C1123 0.929 . S
H1110 C1124 0.931 . S
H1111 C1126 0.930 . S
C1112 H1100 0.930 . S
C1112 C1113 1.399 . S
C1112 C1117 1.399 . S
C1113 C1112 1.399 . S
C1113 C1114 1.376 . S
C1114 H1101 0.930 . S
C1114 C1113 1.376 . S
C1114 C1115 1.388 . S
C1115 H1102 0.930 . S
C1115 C1114 1.388 . S
C1115 C1116 1.390 . S
C1116 C1115 1.390 . S
C1116 C1117 1.394 . S
C1116 C1122 1.465 . S
C1117 C1112 1.399 . S
C1117 C1116 1.394 . S
C1117 C1118 1.516 . S
C1118 C1117 1.516 . S
C1118 C1119 1.502 . S
C1118 C1120 1.561 . S
C1118 C1121 1.526 . S
C1119 H1103 0.959 . S
C1119 H1104 0.959 . S
C1119 H1105 0.961 . S
C1119 C1118 1.502 . S
C1120 H1106 0.960 . S
C1120 H1107 0.961 . S
C1120 H1108 0.959 . S
C1120 C1118 1.561 . S
C1121 C1118 1.526 . S
C1121 C1122 1.396 . S
C1121 C1126 1.390 . S
C1122 C1116 1.465 . S
C1122 C1121 1.396 . S
C1122 C1123 1.399 . S
C1123 H1109 0.929 . S
C1123 C1122 1.399 . S
C1123 C1124 1.385 . S
C1124 H1110 0.931 . S
C1124 C1123 1.385 . S
C1124 C1125 1.389 . S
C1125 C1124 1.389 . S
C1125 C1126 1.387 . S
C1126 H1111 0.930 . S
C1126 C1121 1.390 . S
C1126 C1125 1.387 . S
H1127 C1139 0.930 . S
H1128 C1141 0.930 . S
H1129 C1142 0.930 . S
H1130 C1146 0.959 . S
H1131 C1146 0.959 . S
H1132 C1146 0.961 . S
H1133 C1147 0.960 . S
H1134 C1147 0.961 . S
H1135 C1147 0.959 . S
H1136 C1150 0.929 . S
H1137 C1151 0.931 . S
H1138 C1153 0.930 . S
C1139 H1127 0.930 . S
C1139 C1140 1.399 1_545 S
C1139 C1144 1.399 . S
C1140 C1139 1.399 1_565 S
C1140 C1141 1.376 . S
C1141 H1128 0.930 . S
C1141 C1140 1.376 . S
C1141 C1142 1.388 . S
C1142 H1129 0.930 . S
C1142 C1141 1.388 . S
C1142 C1143 1.390 . S
C1143 C1142 1.390 . S
C1143 C1144 1.394 1_565 S
C1143 C1149 1.465 . S
C1144 C1139 1.399 . S
C1144 C1143 1.394 1_545 S
C1144 C1145 1.516 . S
C1145 C1144 1.516 . S
C1145 C1146 1.502 . S
C1145 C1147 1.561 . S
C1145 C1148 1.526 . S
C1146 H1130 0.959 . S
C1146 H1131 0.959 . S
C1146 H1132 0.961 . S
C1146 C1145 1.502 . S
C1147 H1133 0.960 . S
C1147 H1134 0.961 . S
C1147 H1135 0.959 . S
C1147 C1145 1.561 . S
C1148 C1145 1.526 . S
C1148 C1149 1.396 1_545 S
C1148 C1153 1.390 . S
C1149 C1143 1.465 . S
C1149 C1148 1.396 1_565 S
C1149 C1150 1.399 . S
C1150 H1136 0.929 . S
C1150 C1149 1.399 . S
C1150 C1151 1.385 . S
C1151 H1137 0.931 . S
C1151 C1150 1.385 . S
C1151 C1152 1.389 . S
C1152 C1151 1.389 . S
C1152 C1153 1.387 1_565 S
C1153 H1138 0.930 . S
C1153 C1148 1.390 . S
C1153 C1152 1.387 1_545 S
H1154 C1166 0.930 . S
H1155 C1168 0.930 . S
H1156 C1169 0.930 . S
H1157 C1173 0.959 . S
H1158 C1173 0.959 . S
H1159 C1173 0.961 . S
H1160 C1174 0.960 . S
H1161 C1174 0.961 . S
H1162 C1174 0.959 . S
H1163 C1177 0.929 . S
H1164 C1178 0.931 . S
H1165 C1180 0.930 . S
C1166 H1154 0.930 . S
C1166 C1167 1.399 . S
C1166 C1171 1.399 . S
C1167 C1166 1.399 . S
C1167 C1168 1.376 . S
C1168 H1155 0.930 . S
C1168 C1167 1.376 . S
C1168 C1169 1.388 . S
C1169 H1156 0.930 . S
C1169 C1168 1.388 . S
C1169 C1170 1.390 . S
C1170 C1169 1.390 . S
C1170 C1171 1.394 . S
C1170 C1176 1.465 . S
C1171 C1166 1.399 . S
C1171 C1170 1.394 . S
C1171 C1172 1.516 . S
C1172 C1171 1.516 . S
C1172 C1173 1.502 . S
C1172 C1174 1.561 . S
C1172 C1175 1.526 . S
C1173 H1157 0.959 . S
C1173 H1158 0.959 . S
C1173 H1159 0.961 . S
C1173 C1172 1.502 . S
C1174 H1160 0.960 . S
C1174 H1161 0.961 . S
C1174 H1162 0.959 . S
C1174 C1172 1.561 . S
C1175 C1172 1.526 . S
C1175 C1176 1.396 . S
C1175 C1180 1.390 . S
C1176 C1170 1.465 . S
C1176 C1175 1.396 . S
C1176 C1177 1.399 . S
C1177 H1163 0.929 . S
C1177 C1176 1.399 . S
C1177 C1178 1.385 . S
C1178 H1164 0.931 . S
C1178 C1177 1.385 . S
C1178 C1179 1.389 . S
C1179 C1178 1.389 . S
C1179 C1180 1.387 . S
C1180 H1165 0.930 . S
C1180 C1175 1.390 . S
C1180 C1179 1.387 . S
H1181 C1193 0.930 . S
H1182 C1195 0.930 . S
H1183 C1196 0.930 . S
H1184 C1200 0.959 . S
H1185 C1200 0.959 . S
H1186 C1200 0.961 . S
H1187 C1201 0.960 . S
H1188 C1201 0.961 . S
H1189 C1201 0.959 . S
H1190 C1204 0.929 . S
H1191 C1205 0.931 . S
H1192 C1207 0.930 . S
C1193 H1181 0.930 . S
C1193 C1194 1.399 . S
C1193 C1198 1.399 . S
C1194 C1193 1.399 . S
C1194 C1195 1.376 . S
C1195 H1182 0.930 . S
C1195 C1194 1.376 . S
C1195 C1196 1.388 . S
C1196 H1183 0.930 . S
C1196 C1195 1.388 . S
C1196 C1197 1.390 . S
C1197 C1196 1.390 . S
C1197 C1198 1.394 . S
C1197 C1203 1.465 . S
C1198 C1193 1.399 . S
C1198 C1197 1.394 . S
C1198 C1199 1.516 . S
C1199 C1198 1.516 . S
C1199 C1200 1.502 . S
C1199 C1201 1.561 . S
C1199 C1202 1.526 . S
C1200 H1184 0.959 . S
C1200 H1185 0.959 . S
C1200 H1186 0.961 . S
C1200 C1199 1.502 . S
C1201 H1187 0.960 . S
C1201 H1188 0.961 . S
C1201 H1189 0.959 . S
C1201 C1199 1.561 . S
C1202 C1199 1.526 . S
C1202 C1203 1.396 . S
C1202 C1207 1.390 . S
C1203 C1197 1.465 . S
C1203 C1202 1.396 . S
C1203 C1204 1.399 . S
C1204 H1190 0.929 . S
C1204 C1203 1.399 . S
C1204 C1205 1.385 . S
C1205 H1191 0.931 . S
C1205 C1204 1.385 . S
C1205 C1206 1.389 . S
C1206 C1205 1.389 . S
C1206 C1207 1.387 . S
C1207 H1192 0.930 . S
C1207 C1202 1.390 . S
C1207 C1206 1.387 . S
C573 C391 1.538 . S
C585 C481 1.554 . S
C612 C516 2.241 . S
C600 C451 2.172 . S
C639 C521 1.387 . S
C627 C241 1.410 . S
C666 C541 1.941 . S
C654 C331 1.751 . S
C693 C489 1.544 . S
C681 C121 1.405 1_546 S
C708 C211 2.086 1_556 S
C720 C506 2.243 . S
C735 C31 1.445 1_556 S
C747 C529 1.448 . S
C762 C91 1.846 . S
C774 C549 1.938 . S
C801 C499 1.485 . S
C789 C301 1.149 . S
C828 C508 0.604 . S
C816 C380 0.707 . S
C855 C539 1.630 . S
C843 C440 1.534 . S
C870 C260 0.957 . S
C882 C559 0.919 . S
C897 C61 1.364 . S
C909 C488 1.525 . S
C936 C519 0.738 . S
C924 C140 0.684 . S
C963 C528 1.665 . S
C951 C200 1.424 . S
C978 C20 0.936 . S
C990 C548 0.938 . S
C1005 C320 2.095 . S
C1017 C486 2.213 . S
C1032 C361 1.652 1_556 S
C1044 C509 1.895 . S
C1071 C526 2.382 . S
C1059 C421 2.117 1_556 S
C1098 C546 2.098 . S
C1086 C271 2.055 1_556 S
C1113 C80 2.149 . S
C1125 C496 2.212 . S
C1152 C501 1.901 1_565 S
C1140 C151 1.791 . S
C1179 C536 2.382 . S
C1167 C181 2.018 . S
C1194 C1 1.777 . S
C1206 C556 2.087 . S
