# Generated by pormake.
# Topology pyr, (3,6)-cn, num edge types: 1
# Building blocks:
#     Node 0, Type 0, BuildingBlock: BELTOD_clean_linker_0, # of connection points: 3
#     Node 1, Type 0, BuildingBlock: BELTOD_clean_linker_0, # of connection points: 3
#     Node 2, Type 0, BuildingBlock: BELTOD_clean_linker_0, # of connection points: 3
#     Node 3, Type 0, BuildingBlock: BELTOD_clean_linker_0, # of connection points: 3
#     Node 4, Type 0, BuildingBlock: BELTOD_clean_linker_0, # of connection points: 3
#     Node 5, Type 0, BuildingBlock: BELTOD_clean_linker_0, # of connection points: 3
#     Node 6, Type 0, BuildingBlock: BELTOD_clean_linker_0, # of connection points: 3
#     Node 7, Type 0, BuildingBlock: BELTOD_clean_linker_0, # of connection points: 3
#     Node 8, Type 1, BuildingBlock: BETFEN_clean_sbu_0, # of connection points: 6
#     Node 9, Type 1, BuildingBlock: BETFEN_clean_sbu_0, # of connection points: 6
#     Node 10, Type 1, BuildingBlock: BETFEN_clean_sbu_0, # of connection points: 6
#     Node 11, Type 1, BuildingBlock: BETFEN_clean_sbu_0, # of connection points: 6
#     Edge 12, Type (0, 1), BuildingBlock: MIFKUJ_clean_linker_0, # of connection points: 2
#     Edge 13, Type (0, 1), BuildingBlock: MIFKUJ_clean_linker_0, # of connection points: 2
#     Edge 14, Type (0, 1), BuildingBlock: MIFKUJ_clean_linker_0, # of connection points: 2
#     Edge 15, Type (0, 1), BuildingBlock: MIFKUJ_clean_linker_0, # of connection points: 2
#     Edge 16, Type (0, 1), BuildingBlock: MIFKUJ_clean_linker_0, # of connection points: 2
#     Edge 17, Type (0, 1), BuildingBlock: MIFKUJ_clean_linker_0, # of connection points: 2
#     Edge 18, Type (0, 1), BuildingBlock: MIFKUJ_clean_linker_0, # of connection points: 2
#     Edge 19, Type (0, 1), BuildingBlock: MIFKUJ_clean_linker_0, # of connection points: 2
#     Edge 20, Type (0, 1), BuildingBlock: MIFKUJ_clean_linker_0, # of connection points: 2
#     Edge 21, Type (0, 1), BuildingBlock: MIFKUJ_clean_linker_0, # of connection points: 2
#     Edge 22, Type (0, 1), BuildingBlock: MIFKUJ_clean_linker_0, # of connection points: 2
#     Edge 23, Type (0, 1), BuildingBlock: MIFKUJ_clean_linker_0, # of connection points: 2
#     Edge 24, Type (0, 1), BuildingBlock: MIFKUJ_clean_linker_0, # of connection points: 2
#     Edge 25, Type (0, 1), BuildingBlock: MIFKUJ_clean_linker_0, # of connection points: 2
#     Edge 26, Type (0, 1), BuildingBlock: MIFKUJ_clean_linker_0, # of connection points: 2
#     Edge 27, Type (0, 1), BuildingBlock: MIFKUJ_clean_linker_0, # of connection points: 2
#     Edge 28, Type (0, 1), BuildingBlock: MIFKUJ_clean_linker_0, # of connection points: 2
#     Edge 29, Type (0, 1), BuildingBlock: MIFKUJ_clean_linker_0, # of connection points: 2
#     Edge 30, Type (0, 1), BuildingBlock: MIFKUJ_clean_linker_0, # of connection points: 2
#     Edge 31, Type (0, 1), BuildingBlock: MIFKUJ_clean_linker_0, # of connection points: 2
#     Edge 32, Type (0, 1), BuildingBlock: MIFKUJ_clean_linker_0, # of connection points: 2
#     Edge 33, Type (0, 1), BuildingBlock: MIFKUJ_clean_linker_0, # of connection points: 2
#     Edge 34, Type (0, 1), BuildingBlock: MIFKUJ_clean_linker_0, # of connection points: 2
#     Edge 35, Type (0, 1), BuildingBlock: MIFKUJ_clean_linker_0, # of connection points: 2
# Relax obj value: 0.115
# Max RMSD: 0.222
# Mean RMSD: 0.106
data_MOF--net-pyr--node1-BETFEN_clean_sbu_0--node2-BELTOD_clean_linker_0--edge1-MIFKUJ_clean_linker_0
_symmetry_space_group_name_H-M    P1
_symmetry_Int_Tables_number       1
_symmetry_cell_setting            triclinic
loop_
_symmetry_equiv_pos_as_xyz
'x, y, z'
_cell_length_a     53.303765
_cell_length_b     57.31046
_cell_length_c     53.861826
_cell_angle_alpha  90.879422
_cell_angle_beta   98.659936
_cell_angle_gamma 104.97141
loop_
_atom_site_label
_atom_site_type_symbol
_atom_site_fract_x
_atom_site_fract_y
_atom_site_fract_z
_atom_type_partial_charge
P0 P 0.31786 0.30184 0.26934 0.0
H1 H 0.36671 0.3047 0.25014 0.0
H2 H 0.3797 0.27602 0.22374 0.0
H3 H 0.30633 0.22291 0.22699 0.0
H4 H 0.2931 0.25139 0.25235 0.0
H5 H 0.29485 0.34263 0.27066 0.0
H6 H 0.26322 0.35536 0.23922 0.0
H7 H 0.27468 0.306 0.18341 0.0
H8 H 0.30542 0.29308 0.21415 0.0
H9 H 0.32181 0.2704 0.31068 0.0
H10 H 0.26038 0.29324 0.26353 0.0
O11 O 0.34209 0.32125 0.28837 0.0
H12 H 0.28812 0.23817 0.32558 0.0
H13 H 0.22743 0.26199 0.27878 0.0
C14 C 0.32966 0.27979 0.25431 0.0
C15 C 0.3538 0.28668 0.24568 0.0
C16 C 0.36099 0.27049 0.23045 0.0
C17 C 0.34394 0.24741 0.22368 0.0
C18 C 0.31966 0.24068 0.23201 0.0
C19 C 0.31247 0.25682 0.24708 0.0
C20 C 0.30251 0.3169 0.24496 0.0
C21 C 0.29118 0.33518 0.25146 0.0
C22 C 0.27298 0.34218 0.2337 0.0
C23 C 0.26666 0.33135 0.20926 0.0
C24 C 0.27945 0.31448 0.20226 0.0
C25 C 0.29716 0.30719 0.22001 0.0
C26 C 0.29373 0.28476 0.28655 0.0
C27 C 0.30121 0.26918 0.30435 0.0
C28 C 0.28212 0.25055 0.31239 0.0
C29 C 0.25545 0.24778 0.30307 0.0
C30 C 0.24798 0.264 0.2862 0.0
C31 C 0.26695 0.28221 0.27783 0.0
P32 P 0.26591 0.80323 0.70846 0.0
H33 H 0.31543 0.79943 0.73559 0.0
H34 H 0.33874 0.8128 0.77782 0.0
H35 H 0.27096 0.83348 0.79615 0.0
H36 H 0.24693 0.81825 0.7542 0.0
H37 H 0.27074 0.7824 0.66025 0.0
H38 H 0.28761 0.7483 0.65031 0.0
H39 H 0.28148 0.72374 0.72512 0.0
H40 H 0.26465 0.7581 0.73496 0.0
H41 H 0.25388 0.84806 0.72021 0.0
H42 H 0.21406 0.78211 0.67581 0.0
O43 O 0.28805 0.82184 0.69404 0.0
H44 H 0.21919 0.8665 0.70326 0.0
H45 H 0.17901 0.8009 0.65809 0.0
C46 C 0.27977 0.80859 0.74142 0.0
C47 C 0.30532 0.80633 0.74885 0.0
C48 C 0.31872 0.81418 0.77298 0.0
C49 C 0.30708 0.82506 0.79008 0.0
C50 C 0.28061 0.82543 0.78335 0.0
C51 C 0.26695 0.81703 0.7592 0.0
C52 C 0.26668 0.7731 0.69842 0.0
C53 C 0.27205 0.76921 0.67423 0.0
C54 C 0.28188 0.74966 0.66861 0.0
C55 C 0.28649 0.73345 0.68707 0.0
C56 C 0.27878 0.73615 0.71062 0.0
C57 C 0.26879 0.75569 0.71616 0.0
C58 C 0.23636 0.81342 0.69988 0.0
C59 C 0.2372 0.8372 0.70736 0.0
C60 C 0.21747 0.84793 0.69731 0.0
C61 C 0.19641 0.83535 0.67904 0.0
C62 C 0.19488 0.81108 0.67223 0.0
C63 C 0.21486 0.80027 0.68239 0.0
P64 P 0.67148 0.29276 0.78359 0.0
H65 H 0.7245 0.28859 0.8019 0.0
H66 H 0.76226 0.31514 0.829 0.0
H67 H 0.71578 0.36504 0.83969 0.0
H68 H 0.67821 0.33855 0.81206 0.0
H69 H 0.65218 0.24008 0.77886 0.0
H70 H 0.63134 0.21039 0.80615 0.0
H71 H 0.62488 0.268 0.85559 0.0
H72 H 0.64694 0.29783 0.82835 0.0
H73 H 0.69164 0.32717 0.74841 0.0
H74 H 0.61812 0.30153 0.776 0.0
O75 O 0.68387 0.27727 0.76427 0.0
H76 H 0.67316 0.35434 0.72152 0.0
H77 H 0.59932 0.3292 0.74914 0.0
C78 C 0.69872 0.31179 0.80471 0.0
C79 C 0.72244 0.30525 0.81004 0.0
C80 C 0.74398 0.3204 0.82566 0.0
C81 C 0.74208 0.34229 0.83641 0.0
C82 C 0.71803 0.34853 0.83136 0.0
C83 C 0.6965 0.33334 0.81571 0.0
C84 C 0.65119 0.27126 0.80149 0.0
C85 C 0.64601 0.24643 0.79537 0.0
C86 C 0.63387 0.22933 0.81107 0.0
C87 C 0.62634 0.23658 0.83331 0.0
C88 C 0.63074 0.26161 0.83892 0.0
C89 C 0.64309 0.27875 0.82318 0.0
C90 C 0.65623 0.31226 0.7641 0.0
C91 C 0.67143 0.32745 0.74868 0.0
C92 C 0.66088 0.34316 0.73343 0.0
C93 C 0.63477 0.34414 0.73323 0.0
C94 C 0.61944 0.32878 0.7487 0.0
C95 C 0.63015 0.31301 0.76412 0.0
P96 P 0.81435 0.68287 0.28758 0.0
H97 H 0.82148 0.73502 0.28044 0.0
H98 H 0.84399 0.77152 0.30688 0.0
H99 H 0.87611 0.72856 0.36172 0.0
H100 H 0.85291 0.69163 0.33514 0.0
H101 H 0.79386 0.64469 0.24737 0.0
H102 H 0.81396 0.62543 0.21798 0.0
H103 H 0.89097 0.66255 0.25776 0.0
H104 H 0.87041 0.6826 0.28648 0.0
H105 H 0.78076 0.69889 0.31785 0.0
H106 H 0.79662 0.63095 0.30088 0.0
O107 O 0.79477 0.69256 0.26524 0.0
H108 H 0.74801 0.67882 0.34293 0.0
H109 H 0.76392 0.61048 0.32673 0.0
C110 C 0.83549 0.71025 0.30551 0.0
C111 C 0.83355 0.73323 0.29797 0.0
C112 C 0.84634 0.75428 0.31331 0.0
C113 C 0.86181 0.75319 0.33666 0.0
C114 C 0.86452 0.73023 0.34385 0.0
C115 C 0.85133 0.70904 0.32857 0.0
C116 C 0.83042 0.66503 0.26957 0.0
C117 C 0.8151 0.64842 0.25012 0.0
C118 C 0.82679 0.63728 0.23315 0.0
C119 C 0.85441 0.64218 0.23501 0.0
C120 C 0.86972 0.6584 0.25508 0.0
C121 C 0.85793 0.66972 0.27195 0.0
C122 C 0.79171 0.66666 0.30776 0.0
C123 C 0.77752 0.67961 0.31987 0.0
C124 C 0.75868 0.66801 0.33437 0.0
C125 C 0.75326 0.6429 0.33737 0.0
C126 C 0.76733 0.62979 0.32492 0.0
C127 C 0.78631 0.64153 0.31026 0.0
P128 P 0.77543 0.79057 0.8457 0.0
H129 H 0.75813 0.79632 0.89333 0.0
H130 H 0.71528 0.7987 0.90315 0.0
H131 H 0.68257 0.78694 0.82417 0.0
H132 H 0.72471 0.7848 0.8144 0.0
H133 H 0.8182 0.76909 0.86186 0.0
H134 H 0.81957 0.72707 0.86529 0.0
H135 H 0.73573 0.70293 0.83994 0.0
H136 H 0.73442 0.7449 0.83577 0.0
H137 H 0.77811 0.83569 0.82161 0.0
H138 H 0.76993 0.761 0.79933 0.0
O139 O 0.80014 0.80969 0.86457 0.0
H140 H 0.78032 0.8464 0.77797 0.0
H141 H 0.77175 0.77165 0.75615 0.0
C142 C 0.74474 0.79196 0.85315 0.0
C143 C 0.74164 0.79425 0.87827 0.0
C144 C 0.71725 0.7949 0.88387 0.0
C145 C 0.69613 0.79293 0.86427 0.0
C146 C 0.69872 0.78822 0.83944 0.0
C147 C 0.72303 0.78789 0.83387 0.0
C148 C 0.77624 0.76004 0.84924 0.0
C149 C 0.80018 0.7548 0.857 0.0
C150 C 0.80091 0.73089 0.85864 0.0
C151 C 0.77769 0.71208 0.85246 0.0
C152 C 0.75374 0.71729 0.84452 0.0
C153 C 0.75306 0.74126 0.84258 0.0
C154 C 0.77551 0.79792 0.81378 0.0
C155 C 0.77644 0.82163 0.80731 0.0
C156 C 0.77669 0.82755 0.78239 0.0
C157 C 0.7762 0.80973 0.76408 0.0
C158 C 0.77186 0.78551 0.77012 0.0
C159 C 0.77176 0.77964 0.79497 0.0
P160 P 0.79557 0.25576 0.31858 0.0
H161 H 0.80789 0.30314 0.34579 0.0
H162 H 0.78007 0.32744 0.35895 0.0
H163 H 0.71156 0.26735 0.3374 0.0
H164 H 0.73946 0.24317 0.32436 0.0
H165 H 0.84232 0.24066 0.3121 0.0
H166 H 0.86637 0.21438 0.33496 0.0
H167 H 0.81285 0.20346 0.38882 0.0
H168 H 0.78842 0.22975 0.3656 0.0
H169 H 0.77338 0.26812 0.26928 0.0
H170 H 0.76916 0.20378 0.31068 0.0
O171 O 0.81762 0.27701 0.30668 0.0
H172 H 0.74028 0.24471 0.23528 0.0
H173 H 0.73644 0.18021 0.27666 0.0
C174 C 0.77589 0.27129 0.334 0.0
C175 C 0.78696 0.29499 0.3444 0.0
C176 C 0.77096 0.30894 0.35183 0.0
C177 C 0.74344 0.29953 0.34893 0.0
C178 C 0.73257 0.2754 0.33945 0.0
C179 C 0.74862 0.26141 0.33224 0.0
C180 C 0.81385 0.23765 0.3374 0.0
C181 C 0.83583 0.23287 0.32898 0.0
C182 C 0.84954 0.21776 0.34197 0.0
C183 C 0.84159 0.20703 0.36373 0.0
C184 C 0.81955 0.21175 0.37224 0.0
C185 C 0.80564 0.22679 0.35904 0.0
C186 C 0.77409 0.23761 0.29229 0.0
C187 C 0.76574 0.24884 0.2708 0.0
C188 C 0.74681 0.23545 0.25139 0.0
C189 C 0.73566 0.21062 0.25331 0.0
C190 C 0.74441 0.19938 0.27475 0.0
C191 C 0.76336 0.21278 0.29411 0.0
P192 P 0.38074 0.7087 0.22255 0.0
H193 H 0.35644 0.67555 0.17883 0.0
H194 H 0.31128 0.65565 0.16147 0.0
H195 H 0.28463 0.69316 0.2184 0.0
H196 H 0.33052 0.71152 0.23713 0.0
H197 H 0.4314 0.7414 0.21876 0.0
H198 H 0.44384 0.78163 0.20334 0.0
H199 H 0.36489 0.78829 0.20364 0.0
H200 H 0.3523 0.74737 0.21787 0.0
H201 H 0.36855 0.6602 0.23842 0.0
H202 H 0.40395 0.73137 0.27401 0.0
O203 O 0.39922 0.69701 0.20611 0.0
H204 H 0.37798 0.64202 0.27778 0.0
H205 H 0.41282 0.71317 0.31446 0.0
C206 C 0.34689 0.69559 0.20887 0.0
C207 C 0.34099 0.67965 0.1876 0.0
C208 C 0.31496 0.66836 0.17752 0.0
C209 C 0.2941 0.67316 0.1881 0.0
C210 C 0.3001 0.68895 0.20973 0.0
C211 C 0.32633 0.6998 0.22022 0.0
C212 C 0.39083 0.74104 0.2192 0.0
C213 C 0.41685 0.75166 0.21602 0.0
C214 C 0.42398 0.7749 0.20721 0.0
C215 C 0.40533 0.78838 0.20177 0.0
C216 C 0.37968 0.77834 0.20691 0.0
C217 C 0.37249 0.75488 0.21543 0.0
C218 C 0.38535 0.69712 0.25333 0.0
C219 C 0.37787 0.67198 0.25499 0.0
C220 C 0.38315 0.66157 0.2777 0.0
C221 C 0.39598 0.67604 0.29958 0.0
C222 C 0.40307 0.70143 0.298 0.0
C223 C 0.39786 0.7119 0.27496 0.0
P224 P 0.21347 0.34927 0.75648 0.0
H225 H 0.22491 0.30313 0.74635 0.0
H226 H 0.20084 0.26598 0.72172 0.0
H227 H 0.13621 0.29743 0.69877 0.0
H228 H 0.16073 0.33495 0.72381 0.0
H229 H 0.27089 0.37033 0.76582 0.0
H230 H 0.30261 0.39017 0.73934 0.0
H231 H 0.23908 0.39114 0.67991 0.0
H232 H 0.20699 0.37026 0.7063 0.0
H233 H 0.18268 0.33166 0.79574 0.0
H234 H 0.2025 0.39824 0.75852 0.0
O235 O 0.23269 0.33944 0.77906 0.0
H236 H 0.16228 0.35022 0.82503 0.0
H237 H 0.18034 0.41697 0.7869 0.0
C238 C 0.19454 0.32188 0.73748 0.0
C239 C 0.20545 0.30211 0.73625 0.0
C240 C 0.19153 0.28066 0.72212 0.0
C241 C 0.16627 0.2783 0.70833 0.0
C242 C 0.15558 0.29843 0.70905 0.0
C243 C 0.16953 0.31993 0.72349 0.0
C244 C 0.23625 0.36858 0.73821 0.0
C245 C 0.26349 0.37488 0.74721 0.0
C246 C 0.28179 0.38622 0.73199 0.0
C247 C 0.27345 0.39212 0.70745 0.0
C248 C 0.24615 0.38688 0.69876 0.0
C249 C 0.22776 0.37504 0.7139 0.0
C250 C 0.19396 0.36327 0.77451 0.0
C251 C 0.18197 0.35023 0.79338 0.0
C252 C 0.17003 0.36105 0.81028 0.0
C253 C 0.16906 0.38542 0.80878 0.0
C254 C 0.18071 0.39836 0.78932 0.0
C255 C 0.19315 0.38752 0.77261 0.0
Pr256 Pr 0.9889 1.01067 0.54134 0.0
Pr257 Pr 0.03199 0.02161 0.50857 0.0
C258 C 0.94883 0.98979 0.56411 0.0
C259 C 0.95027 0.97347 0.58446 0.0
C260 C 0.94372 0.97898 0.60766 0.0
C261 C 0.94559 0.96366 0.62724 0.0
C262 C 0.95378 0.94266 0.62356 0.0
C263 C 0.96273 0.93843 0.60124 0.0
C264 C 0.961 0.95377 0.58176 0.0
C265 C 0.02732 0.05161 0.56503 0.0
C266 C 0.03887 0.98536 0.55513 0.0
C267 C 0.07423 0.04537 0.48984 0.0
C268 C 0.07664 0.05915 0.46745 0.0
C269 C 0.06176 0.04967 0.44399 0.0
C270 C 0.06319 0.06384 0.42322 0.0
C271 C 0.07914 0.08766 0.42588 0.0
C272 C 0.09309 0.09735 0.4496 0.0
C273 C 0.0919 0.08314 0.47021 0.0
C274 C 0.99583 0.97899 0.48573 0.0
C275 C 0.98119 0.04589 0.49392 0.0
O276 O 0.95124 0.98171 0.54197 0.0
O277 O 0.96249 0.01206 0.57002 0.0
O278 O 0.02822 0.04032 0.5449 0.0
O279 O 1.00661 0.04081 0.57419 0.0
O280 O 0.05099 0.99995 0.53937 0.0
O281 O 0.01445 0.98462 0.55796 0.0
O282 O 0.06464 0.05506 0.50706 0.0
O283 O 0.06477 0.02189 0.4864 0.0
O284 O 0.99333 0.99023 0.50551 0.0
O285 O 0.01711 0.99012 0.47746 0.0
O286 O 0.97055 0.03421 0.51226 0.0
O287 O 1.00423 0.0444 0.48877 0.0
H288 H 0.93642 0.99467 0.61035 0.0
H289 H 0.93824 0.96695 0.64431 0.0
H290 H 0.96881 0.92213 0.59809 0.0
H291 H 0.96726 0.94967 0.56436 0.0
H292 H 0.04918 0.03136 0.44165 0.0
H293 H 0.05241 0.05607 0.40502 0.0
H294 H 0.10595 0.11555 0.45199 0.0
H295 H 0.10297 0.09084 0.48834 0.0
Pr296 Pr 0.48747 0.02568 0.0331 0.0
Pr297 Pr 0.54072 0.01233 1.01774 0.0
C298 C 0.44846 0.02745 0.05674 0.0
C299 C 0.44762 0.04935 0.06986 0.0
C300 C 0.45542 0.07158 0.05879 0.0
C301 C 0.45792 0.09297 0.07231 0.0
C302 C 0.45272 0.09224 0.09695 0.0
C303 C 0.44709 0.0703 0.10876 0.0
C304 C 0.44441 0.04881 0.09515 0.0
C305 C 0.51389 0.05923 1.00153 0.0
C306 C 0.54667 0.05281 0.06493 0.0
C307 C 0.58024 1.01177 0.99389 0.0
C308 C 0.5828 0.99109 0.97965 0.0
C309 C 0.57834 0.96839 0.99021 0.0
C310 C 0.57563 0.94779 0.97524 0.0
C311 C 0.57704 0.94971 0.94964 0.0
C312 C 0.58102 0.97213 0.93888 0.0
C313 C 0.58399 0.99286 0.95392 0.0
C314 C 0.51512 0.97911 0.04996 0.0
C315 C 0.48072 0.98431 0.98676 0.0
O316 O 0.46775 0.01876 0.06714 0.0
O317 O 0.44583 0.02794 0.03205 0.0
O318 O 0.51865 0.04029 1.00975 0.0
O319 O 0.49326 0.06206 1.01021 0.0
O320 O 0.55799 0.04444 0.04778 0.0
O321 O 0.52099 0.04639 0.06514 0.0
O322 O 0.56044 0.01997 0.98379 0.0
O323 O 0.58233 1.01009 1.01842 0.0
O324 O 0.50912 0.99717 0.04057 0.0
O325 O 0.537 0.9776 0.04278 0.0
O326 O 0.46971 0.99404 1.00314 0.0
O327 O 0.50654 0.9897 0.98678 0.0
H328 H 0.45929 0.07251 0.03961 0.0
H329 H 0.46196 0.10988 0.06302 0.0
H330 H 0.44269 0.06965 0.12778 0.0
H331 H 0.4397 0.03183 0.10422 0.0
H332 H 0.57644 0.96643 1.00986 0.0
H333 H 0.57308 0.93045 0.98367 0.0
H334 H 0.58266 0.97363 0.91913 0.0
H335 H 0.58655 1.01016 0.94542 0.0
Pr336 Pr 0.5171 0.53842 0.53647 0.0
Pr337 Pr 0.509 0.48989 0.50561 0.0
C338 C 0.50807 0.57803 0.55751 0.0
C339 C 0.48967 0.58482 0.57272 0.0
C340 C 0.49955 0.602 0.59305 0.0
C341 C 0.48243 0.61032 0.60621 0.0
C342 C 0.45494 0.60169 0.59931 0.0
C343 C 0.44513 0.58382 0.57944 0.0
C344 C 0.46225 0.57549 0.56633 0.0
C345 C 0.5427 0.50606 0.56033 0.0
C346 C 0.4657 0.49068 0.54316 0.0
C347 C 0.51904 0.45041 0.48523 0.0
C348 C 0.5379 0.44336 0.47054 0.0
C349 C 0.53354 0.44171 0.44405 0.0
C350 C 0.55064 0.4335 0.43064 0.0
C351 C 0.5725 0.42657 0.44334 0.0
C352 C 0.57684 0.42845 0.46985 0.0
C353 C 0.55986 0.43669 0.48318 0.0
C354 C 0.48314 0.52219 0.48216 0.0
C355 C 0.55976 0.53813 0.49807 0.0
O356 O 0.49846 0.56966 0.53432 0.0
O357 O 0.52517 0.56715 0.56856 0.0
O358 O 0.51984 0.50063 0.54774 0.0
O359 O 0.55308 0.52939 0.56181 0.0
O360 O 0.47598 0.47622 0.53075 0.0
O361 O 0.47587 0.51447 0.54473 0.0
O362 O 0.52822 0.459 0.50842 0.0
O363 O 0.50171 0.46093 0.47388 0.0
O364 O 0.50609 0.52753 0.4945 0.0
O365 O 0.4728 0.49882 0.48036 0.0
O366 O 0.55017 0.55242 0.51144 0.0
O367 O 0.54933 0.51438 0.496 0.0
H368 H 0.52057 0.60951 0.59835 0.0
H369 H 0.49082 0.62418 0.62121 0.0
H370 H 0.42414 0.57635 0.57385 0.0
H371 H 0.45397 0.56207 0.55088 0.0
H372 H 0.51674 0.4465 0.43362 0.0
H373 H 0.54666 0.43261 0.41029 0.0
H374 H 0.59297 0.42286 0.48051 0.0
H375 H 0.56373 0.43734 0.50354 0.0
Pr376 Pr 1.00946 0.53142 1.00271 0.0
Pr377 Pr 0.01232 0.49527 0.03974 0.0
C378 C 0.99587 0.56272 0.97052 0.0
C379 C 0.98186 0.58138 0.97264 0.0
C380 C 0.99586 0.60591 0.97579 0.0
C381 C 0.98269 0.62368 0.97831 0.0
C382 C 0.95537 0.61712 0.97764 0.0
C383 C 0.94151 0.59254 0.97508 0.0
C384 C 0.9546 0.57485 0.9726 0.0
C385 C 0.05483 0.54416 0.03795 0.0
C386 C 0.98079 0.53415 0.05469 0.0
C387 C 0.03008 0.4665 0.07257 0.0
C388 C 0.0451 0.44858 0.07038 0.0
C389 C 0.03219 0.42452 0.06195 0.0
C390 C 0.04662 0.40773 0.05965 0.0
C391 C 0.07413 0.41476 0.06574 0.0
C392 C 0.08705 0.43893 0.07353 0.0
C393 C 0.07267 0.45566 0.07594 0.0
C394 C 0.96605 0.48204 1.00584 0.0
C395 C 0.04026 0.49225 0.98721 0.0
O396 O 0.98203 0.54023 0.9704 0.0
O397 O 0.01916 0.56696 0.98419 0.0
O398 O 0.032 0.53572 0.0429 0.0
O399 O 0.05497 0.54589 1.01397 0.0
O400 O 0.99166 0.51712 0.06354 0.0
O401 O 0.98332 0.54167 0.03176 0.0
O402 O 0.04278 0.48909 0.07081 0.0
O403 O 1.00587 0.46095 0.06063 0.0
O404 O 0.98843 0.49108 0.99983 0.0
O405 O 0.96732 0.47836 0.02967 0.0
O406 O 0.02948 0.50937 0.97857 0.0
O407 O 0.03771 0.48468 1.0101 0.0
H408 H 0.01693 0.61134 0.97602 0.0
H409 H 0.99368 0.64254 0.97999 0.0
H410 H 0.92029 0.58699 0.97367 0.0
H411 H 0.94322 0.55611 0.97027 0.0
H412 H 0.01095 0.41856 0.05742 0.0
H413 H 0.0363 0.38913 0.0538 0.0
H414 H 0.10823 0.44468 0.07899 0.0
H415 H 0.08318 0.47405 0.08253 0.0
H416 H 0.24961 0.19902 0.29875 0.0
H417 H 0.21418 0.16714 0.31215 0.0
H418 H 0.18042 0.22191 0.33834 0.0
H419 H 0.21533 0.25347 0.32499 0.0
H420 H 0.19467 0.18809 0.37416 0.0
H421 H 0.15114 0.19279 0.28889 0.0
H422 H 0.14342 0.18804 0.24261 0.0
H423 H 0.13945 0.11241 0.24631 0.0
H424 H 0.14777 0.11682 0.29265 0.0
H425 H 0.08018 0.13476 0.41825 0.0
H426 H 0.10628 0.15985 0.39001 0.0
H427 H 0.11953 0.096 0.35662 0.0
H428 H 0.09344 0.07095 0.38455 0.0
H429 H 0.11798 0.13017 0.32312 0.0
H430 H 0.1598 0.12414 0.40721 0.0
H431 H 0.16801 0.12754 0.45358 0.0
H432 H 0.177 0.20414 0.45254 0.0
H433 H 0.16822 0.20114 0.40618 0.0
C434 C 0.23451 0.20404 0.30738 0.0
C435 C 0.23501 0.22847 0.31118 0.0
C436 C 0.21429 0.18596 0.31466 0.0
C437 C 0.19479 0.19241 0.3259 0.0
C438 C 0.19528 0.21678 0.32942 0.0
C439 C 0.21518 0.23469 0.32198 0.0
C440 C 0.1754 0.17437 0.33683 0.0
C441 C 0.17777 0.17548 0.36306 0.0
C442 C 0.15409 0.15748 0.32211 0.0
C443 C 0.15066 0.15526 0.29428 0.0
C444 C 0.14923 0.17526 0.27987 0.0
C445 C 0.14458 0.17259 0.2536 0.0
C446 C 0.14109 0.14997 0.24152 0.0
C447 C 0.1423 0.12996 0.25568 0.0
C448 C 0.14703 0.13255 0.28194 0.0
C449 C 0.0878 0.12609 0.40414 0.0
C450 C 0.08535 0.10111 0.40373 0.0
C451 C 0.10276 0.14037 0.38821 0.0
C452 C 0.11538 0.12968 0.37199 0.0
C453 C 0.11007 0.10447 0.36928 0.0
C454 C 0.09502 0.09018 0.3851 0.0
C455 C 0.13666 0.14469 0.3604 0.0
C456 C 0.13491 0.14273 0.33421 0.0
C457 C 0.15877 0.16073 0.37517 0.0
C458 C 0.16297 0.16234 0.40315 0.0
C459 C 0.16311 0.14165 0.41684 0.0
C460 C 0.16795 0.14353 0.44315 0.0
C461 C 0.17295 0.16603 0.456 0.0
C462 C 0.17304 0.1867 0.44258 0.0
C463 C 0.16809 0.18492 0.41629 0.0
H464 H 0.17684 0.16746 0.47635 0.0
H465 H 0.13733 0.14792 0.22119 0.0
H466 H 0.35731 0.85314 0.79471 0.0
H467 H 0.38462 0.87641 0.83154 0.0
H468 H 0.32183 0.85229 0.87478 0.0
H469 H 0.29413 0.82816 0.83767 0.0
H470 H 0.34508 0.90276 0.87945 0.0
H471 H 0.37377 0.83034 0.88829 0.0
H472 H 0.38915 0.79597 0.87442 0.0
H473 H 0.45724 0.84521 0.8535 0.0
H474 H 0.44214 0.87987 0.86705 0.0
H475 H 0.43055 0.95943 0.98975 0.0
H476 H 0.39962 0.93071 0.95877 0.0
H477 H 0.45819 0.93969 0.9099 0.0
H478 H 0.48979 0.96828 0.94138 0.0
H479 H 0.43419 0.89379 0.91152 0.0
H480 H 0.40477 0.966 0.89912 0.0
H481 H 0.3895 1.00109 0.91106 0.0
H482 H 0.32319 0.95362 0.93678 0.0
H483 H 0.3382 0.91824 0.92521 0.0
C484 C 0.34937 0.85218 0.81214 0.0
C485 C 0.32362 0.83838 0.81329 0.0
C486 C 0.36504 0.86565 0.83318 0.0
C487 C 0.35541 0.86578 0.85596 0.0
C488 C 0.32965 0.85227 0.85734 0.0
C489 C 0.31386 0.83858 0.83616 0.0
C490 C 0.37229 0.88104 0.87771 0.0
C491 C 0.36434 0.90054 0.88693 0.0
C492 C 0.39767 0.87848 0.88685 0.0
C493 C 0.40674 0.85768 0.87855 0.0
C494 C 0.39192 0.83383 0.88056 0.0
C495 C 0.40062 0.8143 0.87281 0.0
C496 C 0.42413 0.81841 0.86305 0.0
C497 C 0.43903 0.84205 0.86107 0.0
C498 C 0.43044 0.86164 0.86883 0.0
C499 C 0.43694 0.95543 0.97238 0.0
C500 C 0.46263 0.96629 0.96792 0.0
C501 C 0.41909 0.93906 0.95461 0.0
C502 C 0.42635 0.93342 0.93178 0.0
C503 C 0.45212 0.94392 0.92737 0.0
C504 C 0.47018 0.96019 0.94534 0.0
C505 C 0.4073 0.91591 0.91294 0.0
C506 C 0.41484 0.89594 0.90431 0.0
C507 C 0.38163 0.91821 0.90423 0.0
C508 C 0.37278 0.93948 0.91155 0.0
C509 C 0.38707 0.96305 0.90754 0.0
C510 C 0.37842 0.98299 0.91418 0.0
C511 C 0.35543 0.97959 0.92474 0.0
C512 C 0.34101 0.95623 0.92864 0.0
C513 C 0.34957 0.93623 0.92201 0.0
H514 H 0.34876 0.99504 0.92984 0.0
H515 H 0.43083 0.80326 0.85705 0.0
H516 H 0.58583 0.33582 0.70428 0.0
H517 H 0.56939 0.36301 0.67525 0.0
H518 H 0.6429 0.41764 0.69514 0.0
H519 H 0.65911 0.39092 0.72465 0.0
H520 H 0.60242 0.43754 0.69199 0.0
H521 H 0.62918 0.38201 0.64014 0.0
H522 H 0.62931 0.34165 0.62369 0.0
H523 H 0.5464 0.32593 0.59656 0.0
H524 H 0.54572 0.36612 0.61312 0.0
H525 H 0.59008 0.51445 0.59161 0.0
H526 H 0.60536 0.48669 0.62069 0.0
H527 H 0.53313 0.43155 0.59601 0.0
H528 H 0.5182 0.45894 0.56645 0.0
H529 H 0.57196 0.41137 0.60184 0.0
H530 H 0.54486 0.46673 0.65294 0.0
H531 H 0.54403 0.5066 0.67017 0.0
H532 H 0.62647 0.52218 0.69948 0.0
H533 H 0.62786 0.48252 0.68213 0.0
C534 C 0.59835 0.35374 0.70273 0.0
C535 C 0.62389 0.36107 0.71669 0.0
C536 C 0.58903 0.3692 0.68592 0.0
C537 C 0.60504 0.39229 0.68266 0.0
C538 C 0.6302 0.3999 0.69717 0.0
C539 C 0.63952 0.38449 0.71392 0.0
C540 C 0.59587 0.40849 0.66399 0.0
C541 C 0.59605 0.43191 0.67223 0.0
C542 C 0.58694 0.40103 0.63827 0.0
C543 C 0.58736 0.37697 0.62807 0.0
C544 C 0.61095 0.36988 0.6308 0.0
C545 C 0.61113 0.34705 0.62144 0.0
C546 C 0.58787 0.33121 0.60914 0.0
C547 C 0.56439 0.33821 0.60611 0.0
C548 C 0.5641 0.36102 0.61546 0.0
C549 C 0.57757 0.49635 0.59228 0.0
C550 C 0.55288 0.48895 0.57684 0.0
C551 C 0.58622 0.48052 0.60905 0.0
C552 C 0.57021 0.45709 0.611 0.0
C553 C 0.54586 0.4495 0.59502 0.0
C554 C 0.53731 0.46522 0.57812 0.0
C555 C 0.57862 0.44055 0.6298 0.0
C556 C 0.57828 0.41704 0.6216 0.0
C557 C 0.5873 0.4479 0.65561 0.0
C558 C 0.58652 0.47176 0.66602 0.0
C559 C 0.56285 0.47874 0.6629 0.0
C560 C 0.56227 0.50128 0.67271 0.0
C561 C 0.5852 0.51694 0.68585 0.0
C562 C 0.60874 0.51005 0.68926 0.0
C563 C 0.60943 0.48754 0.67946 0.0
H564 H 0.58471 0.53438 0.69345 0.0
H565 H 0.58804 0.31354 0.60192 0.0
H566 H 0.90175 0.66094 0.21746 0.0
H567 H 0.92162 0.64281 0.18685 0.0
H568 H 0.8554 0.57988 0.17701 0.0
H569 H 0.83591 0.59736 0.20843 0.0
H570 H 0.89795 0.56517 0.17799 0.0
H571 H 0.86606 0.62505 0.13133 0.0
H572 H 0.86086 0.66585 0.12282 0.0
H573 H 0.94431 0.69282 0.12561 0.0
H574 H 0.95003 0.65221 0.13437 0.0
H575 H 0.93586 0.51239 0.07338 0.0
H576 H 0.91266 0.53002 0.10143 0.0
H577 H 0.97105 0.59844 0.10384 0.0
H578 H 0.99268 0.58115 0.07384 0.0
H579 H 0.93077 0.61004 0.10641 0.0
H580 H 0.9629 0.54998 0.15498 0.0
H581 H 0.96758 0.50911 0.1642 0.0
H582 H 0.88377 0.48247 0.1587 0.0
H583 H 0.87859 0.52311 0.14924 0.0
C584 C 0.89138 0.64311 0.20913 0.0
C585 C 0.86693 0.63088 0.2159 0.0
C586 C 0.90273 0.63281 0.19114 0.0
C587 C 0.89006 0.60991 0.17895 0.0
C588 C 0.8658 0.59755 0.18579 0.0
C589 C 0.85445 0.60782 0.20381 0.0
C590 C 0.90222 0.59867 0.1596 0.0
C591 C 0.90485 0.57497 0.16219 0.0
C592 C 0.91186 0.61124 0.13899 0.0
C593 C 0.90849 0.63565 0.13374 0.0
C594 C 0.88331 0.63972 0.1303 0.0
C595 C 0.88027 0.6628 0.12539 0.0
C596 C 0.90225 0.68193 0.12374 0.0
C597 C 0.92731 0.678 0.12692 0.0
C598 C 0.93046 0.65495 0.13182 0.0
C599 C 0.94358 0.53127 0.07974 0.0
C600 C 0.96613 0.54533 0.07123 0.0
C601 C 0.9305 0.54138 0.09628 0.0
C602 C 0.94024 0.56567 0.10599 0.0
C603 C 0.96274 0.57973 0.09709 0.0
C604 C 0.97527 0.56981 0.07984 0.0
C605 C 0.9271 0.57653 0.12495 0.0
C606 C 0.92412 0.60019 0.12225 0.0
C607 C 0.91722 0.56392 0.14557 0.0
C608 C 0.92036 0.53951 0.15118 0.0
C609 C 0.94548 0.53536 0.15561 0.0
C610 C 0.94821 0.51225 0.1609 0.0
C611 C 0.92598 0.4932 0.16197 0.0
C612 C 0.90097 0.49723 0.15783 0.0
C613 C 0.89812 0.52029 0.15254 0.0
H614 H 0.92815 0.47532 0.16606 0.0
H615 H 0.89985 0.69979 0.11995 0.0
H616 H 0.31615 0.21986 0.18181 0.0
H617 H 0.33098 0.19067 0.15757 0.0
H618 H 0.4041 0.20622 0.20948 0.0
H619 H 0.38958 0.23519 0.23349 0.0
H620 H 0.40892 0.21318 0.159 0.0
H621 H 0.35952 0.15658 0.21178 0.0
H622 H 0.32016 0.13338 0.22792 0.0
H623 H 0.28633 0.1013 0.15388 0.0
H624 H 0.32519 0.1248 0.13712 0.0
H625 H 0.47395 0.12064 0.13992 0.0
H626 H 0.45215 0.14749 0.1596 0.0
H627 H 0.38892 0.13152 0.09635 0.0
H628 H 0.41083 0.10567 0.07647 0.0
H629 H 0.37512 0.12388 0.14767 0.0
H630 H 0.42314 0.17993 0.09486 0.0
H631 H 0.46343 0.20037 0.07844 0.0
H632 H 0.49942 0.23173 0.15231 0.0
H633 H 0.45952 0.21093 0.1693 0.0
C634 C 0.33528 0.21678 0.18799 0.0
C635 C 0.35207 0.22983 0.20912 0.0
C636 C 0.34356 0.20016 0.17434 0.0
C637 C 0.36848 0.19657 0.18199 0.0
C638 C 0.3848 0.20903 0.20347 0.0
C639 C 0.37667 0.22563 0.21694 0.0
C640 C 0.37918 0.18174 0.16659 0.0
C641 C 0.40156 0.19363 0.15655 0.0
C642 C 0.36886 0.15642 0.163 0.0
C643 C 0.3451 0.14292 0.17307 0.0
C644 C 0.3435 0.14498 0.19881 0.0
C645 C 0.3213 0.13167 0.2081 0.0
C646 C 0.30069 0.11599 0.19191 0.0
C647 C 0.30224 0.11356 0.16639 0.0
C648 C 0.32433 0.12692 0.15698 0.0
C649 C 0.45585 0.12364 0.13012 0.0
C650 C 0.44406 0.11184 0.10674 0.0
C651 C 0.44338 0.13852 0.14132 0.0
C652 C 0.41905 0.14093 0.12924 0.0
C653 C 0.40769 0.12956 0.10569 0.0
C654 C 0.42035 0.11526 0.09431 0.0
C655 C 0.40513 0.15537 0.14109 0.0
C656 C 0.38214 0.14345 0.15005 0.0
C657 C 0.41471 0.18065 0.14369 0.0
C658 C 0.43845 0.19368 0.1334 0.0
C659 C 0.43973 0.19099 0.10765 0.0
C660 C 0.46249 0.20265 0.09823 0.0
C661 C 0.484 0.21729 0.11433 0.0
C662 C 0.48276 0.22035 0.13987 0.0
C663 C 0.46008 0.20862 0.14941 0.0
H664 H 0.50161 0.22632 0.107 0.0
H665 H 0.28358 0.10564 0.19917 0.0
H666 H 0.14202 0.82052 0.66797 0.0
H667 H 0.11214 0.84374 0.64841 0.0
H668 H 0.17897 0.90287 0.64054 0.0
H669 H 0.20852 0.88013 0.66047 0.0
H670 H 0.14476 0.92057 0.657 0.0
H671 H 0.13917 0.86104 0.59026 0.0
H672 H 0.13017 0.81941 0.57203 0.0
H673 H 0.05017 0.80483 0.58493 0.0
H674 H 0.0588 0.84628 0.60362 0.0
H675 H 0.092 0.98972 0.56434 0.0
H676 H 0.11528 0.96274 0.5868 0.0
H677 H 0.04154 0.91654 0.6005 0.0
H678 H 0.01805 0.94379 0.5784 0.0
H679 H 0.07481 0.89032 0.58353 0.0
H680 H 0.07941 0.95001 0.6476 0.0
H681 H 0.08841 0.99031 0.669 0.0
H682 H 0.17026 1.00374 0.66294 0.0
H683 H 0.16168 0.96366 0.64108 0.0
C684 C 0.15027 0.83841 0.6619 0.0
C685 C 0.1777 0.8485 0.66602 0.0
C686 C 0.13316 0.85171 0.65063 0.0
C687 C 0.14313 0.8752 0.64273 0.0
C688 C 0.17056 0.88498 0.64654 0.0
C689 C 0.18752 0.8719 0.658 0.0
C690 C 0.12547 0.8901 0.631 0.0
C691 C 0.12974 0.91397 0.6407 0.0
C692 C 0.10503 0.88142 0.61029 0.0
C693 C 0.0997 0.85669 0.59855 0.0
C694 C 0.11969 0.84892 0.58933 0.0
C695 C 0.11466 0.82535 0.57892 0.0
C696 C 0.08964 0.80947 0.57738 0.0
C697 C 0.06956 0.81715 0.58617 0.0
C698 C 0.0745 0.84068 0.59666 0.0
C699 C 0.08065 0.97389 0.5722 0.0
C700 C 0.05305 0.96909 0.56955 0.0
C701 C 0.09406 0.95844 0.58512 0.0
C702 C 0.08028 0.93752 0.59549 0.0
C703 C 0.0527 0.93251 0.59271 0.0
C704 C 0.03928 0.94823 0.58016 0.0
C705 C 0.09483 0.92101 0.60907 0.0
C706 C 0.08989 0.89687 0.59979 0.0
C707 C 0.11475 0.92941 0.63019 0.0
C708 C 0.11982 0.95394 0.64237 0.0
C709 C 0.09926 0.96169 0.65047 0.0
C710 C 0.1043 0.98447 0.66277 0.0
C711 C 0.12987 0.99961 0.66725 0.0
C712 C 0.15045 0.99202 0.65939 0.0
C713 C 0.1455 0.96928 0.64703 0.0
H714 H 0.13375 0.0172 0.67687 0.0
H715 H 0.08579 0.79122 0.56934 0.0
H716 H 0.77675 0.32916 0.87264 0.0
H717 H 0.81448 0.35547 0.89993 0.0
H718 H 0.7969 0.41811 0.86563 0.0
H719 H 0.75943 0.39179 0.83761 0.0
H720 H 0.85008 0.42081 0.87242 0.0
H721 H 0.78047 0.4045 0.92226 0.0
H722 H 0.74458 0.37885 0.94148 0.0
H723 H 0.79857 0.34286 0.9811 0.0
H724 H 0.83472 0.3681 0.96188 0.0
H725 H 0.94025 0.50131 0.96754 0.0
H726 H 0.90105 0.48017 0.93787 0.0
H727 H 0.9027 0.41311 0.97285 0.0
H728 H 0.94073 0.43464 1.0034 0.0
H729 H 0.85547 0.41591 0.96488 0.0
H730 H 0.92438 0.42924 0.91342 0.0
H731 H 0.96123 0.45488 0.89539 0.0
H732 H 0.91008 0.49553 0.85945 0.0
H733 H 0.87298 0.47028 0.8775 0.0
C734 C 0.78103 0.34851 0.87068 0.0
C735 C 0.76502 0.35838 0.85299 0.0
C736 C 0.80248 0.36353 0.88644 0.0
C737 C 0.80827 0.38874 0.885 0.0
C738 C 0.79267 0.3987 0.8671 0.0
C739 C 0.77115 0.38365 0.85129 0.0
C740 C 0.83043 0.40457 0.90251 0.0
C741 C 0.85115 0.42002 0.89265 0.0
C742 C 0.83196 0.40324 0.92887 0.0
C743 C 0.81025 0.38807 0.94048 0.0
C744 C 0.78464 0.39099 0.93493 0.0
C745 C 0.76426 0.37655 0.94586 0.0
C746 C 0.76928 0.3592 0.96246 0.0
C747 C 0.7947 0.35629 0.96822 0.0
C748 C 0.81515 0.37069 0.95735 0.0
C749 C 0.93217 0.48206 0.96869 0.0
C750 C 0.94328 0.46945 0.98749 0.0
C751 C 0.9099 0.46996 0.95172 0.0
C752 C 0.89912 0.44492 0.95283 0.0
C753 C 0.91056 0.4324 0.97163 0.0
C754 C 0.93228 0.44463 0.989 0.0
C755 C 0.87562 0.43165 0.93488 0.0
C756 C 0.85449 0.41678 0.94466 0.0
C757 C 0.87392 0.43335 0.9085 0.0
C758 C 0.89597 0.44798 0.89693 0.0
C759 C 0.92102 0.44368 0.9017 0.0
C760 C 0.94194 0.45814 0.8915 0.0
C761 C 0.93801 0.47685 0.87632 0.0
C762 C 0.9131 0.48104 0.87121 0.0
C763 C 0.89211 0.46663 0.88139 0.0
H764 H 0.95425 0.48807 0.86849 0.0
H765 H 0.75347 0.34804 0.9709 0.0
H766 H 0.74341 0.66095 0.38155 0.0
H767 H 0.71052 0.64269 0.40734 0.0
H768 H 0.68465 0.579 0.35694 0.0
H769 H 0.71723 0.5976 0.33035 0.0
H770 H 0.64227 0.59037 0.37167 0.0
H771 H 0.72212 0.57794 0.41371 0.0
H772 H 0.7692 0.58916 0.4319 0.0
H773 H 0.75564 0.63937 0.48505 0.0
H774 H 0.70849 0.62865 0.46694 0.0
H775 H 0.57445 0.51582 0.45938 0.0
H776 H 0.60655 0.53313 0.43225 0.0
H777 H 0.62546 0.60175 0.47407 0.0
H778 H 0.59277 0.58462 0.50119 0.0
H779 H 0.67098 0.58651 0.46322 0.0
H780 H 0.58927 0.59711 0.41932 0.0
H781 H 0.54234 0.58311 0.40082 0.0
H782 H 0.55975 0.53238 0.35093 0.0
H783 H 0.60678 0.5459 0.36935 0.0
C784 C 0.73064 0.64315 0.37563 0.0
C785 C 0.73325 0.63092 0.3536 0.0
C786 C 0.71185 0.63256 0.39066 0.0
C787 C 0.69503 0.60924 0.38445 0.0
C788 C 0.69729 0.59698 0.36235 0.0
C789 C 0.71622 0.60759 0.34723 0.0
C790 C 0.67565 0.59778 0.4014 0.0
C791 C 0.64869 0.58927 0.39161 0.0
C792 C 0.68361 0.59636 0.42759 0.0
C793 C 0.71183 0.60264 0.43884 0.0
C794 C 0.72921 0.59148 0.42919 0.0
C795 C 0.7559 0.59773 0.43949 0.0
C796 C 0.76542 0.61501 0.45958 0.0
C797 C 0.74824 0.626 0.46947 0.0
C798 C 0.72152 0.61982 0.45922 0.0
C799 C 0.58549 0.53458 0.46305 0.0
C800 C 0.58089 0.54873 0.48271 0.0
C801 C 0.60384 0.54451 0.44733 0.0
C802 C 0.61848 0.56885 0.45087 0.0
C803 C 0.61448 0.58293 0.47084 0.0
C804 C 0.59572 0.5731 0.48638 0.0
C805 C 0.63767 0.57946 0.43355 0.0
C806 C 0.6646 0.5877 0.44329 0.0
C807 C 0.6297 0.58025 0.40728 0.0
C808 C 0.60152 0.57238 0.39585 0.0
C809 C 0.58307 0.58287 0.4045 0.0
C810 C 0.55646 0.57504 0.39402 0.0
C811 C 0.54806 0.55683 0.37475 0.0
C812 C 0.56629 0.54648 0.36587 0.0
C813 C 0.59293 0.55424 0.3763 0.0
H814 H 0.52745 0.55077 0.36668 0.0
H815 H 0.7861 0.61985 0.46752 0.0
H816 H 0.21472 0.31946 0.21226 0.0
H817 H 0.17899 0.3259 0.18072 0.0
H818 H 0.23594 0.35984 0.13429 0.0
H819 H 0.2715 0.35309 0.16556 0.0
H820 H 0.20163 0.3873 0.14761 0.0
H821 H 0.19874 0.30667 0.11576 0.0
H822 H 0.19309 0.26269 0.1177 0.0
H823 H 0.11551 0.2537 0.13574 0.0
H824 H 0.12084 0.29768 0.13428 0.0
H825 H 0.12049 0.41644 0.04923 0.0
H826 H 0.15201 0.39436 0.0669 0.0
H827 H 0.09364 0.35093 0.10665 0.0
H828 H 0.06216 0.37275 0.08905 0.0
H829 H 0.12804 0.32637 0.09607 0.0
H830 H 0.1289 0.40299 0.13224 0.0
H831 H 0.13154 0.44655 0.13504 0.0
H832 H 0.20948 0.46313 0.11631 0.0
H833 H 0.20704 0.41961 0.11272 0.0
C834 C 0.2194 0.32837 0.1953 0.0
C835 C 0.24557 0.33627 0.19122 0.0
C836 C 0.19913 0.33169 0.17727 0.0
C837 C 0.20503 0.34307 0.15523 0.0
C838 C 0.23119 0.35081 0.15117 0.0
C839 C 0.25137 0.3472 0.16899 0.0
C840 C 0.1844 0.34942 0.13762 0.0
C841 C 0.1858 0.37404 0.13592 0.0
C842 C 0.16316 0.33188 0.12357 0.0
C843 C 0.16034 0.30553 0.12521 0.0
C844 C 0.18062 0.29538 0.12049 0.0
C845 C 0.17743 0.27042 0.12141 0.0
C846 C 0.15399 0.25542 0.12691 0.0
C847 C 0.13368 0.26534 0.13153 0.0
C848 C 0.13678 0.29028 0.13065 0.0
C849 C 0.11414 0.40151 0.06092 0.0
C850 C 0.08922 0.39657 0.06829 0.0
C851 C 0.13209 0.38897 0.07098 0.0
C852 C 0.12522 0.37162 0.08858 0.0
C853 C 0.09925 0.36441 0.0932 0.0
C854 C 0.08127 0.37686 0.08307 0.0
C855 C 0.14584 0.3643 0.1054 0.0
C856 C 0.14417 0.33962 0.10738 0.0
C857 C 0.16645 0.38176 0.12046 0.0
C858 C 0.16758 0.40796 0.12173 0.0
C859 C 0.14643 0.41587 0.12829 0.0
C860 C 0.14792 0.44058 0.1301 0.0
C861 C 0.17061 0.45759 0.12575 0.0
C862 C 0.19185 0.44993 0.11955 0.0
C863 C 0.1904 0.42524 0.11756 0.0
H864 H 0.17177 0.47671 0.12728 0.0
H865 H 0.15153 0.2361 0.12753 0.0
H866 H 0.59332 0.19087 0.82129 0.0
H867 H 0.57728 0.15979 0.8496 0.0
H868 H 0.6157 0.20907 0.91348 0.0
H869 H 0.63346 0.23981 0.88523 0.0
H870 H 0.62256 0.16688 0.9233 0.0
H871 H 0.546 0.19355 0.89134 0.0
H872 H 0.51302 0.20293 0.85852 0.0
H873 H 0.49063 0.1292 0.82889 0.0
H874 H 0.52368 0.11945 0.86139 0.0
H875 H 0.54046 0.10664 1.01202 0.0
H876 H 0.56348 0.13493 0.98374 0.0
H877 H 0.54383 0.07776 0.92554 0.0
H878 H 0.5219 0.04921 0.95423 0.0
H879 H 0.52822 0.12223 0.91224 0.0
H880 H 0.60338 0.09536 0.94572 0.0
H881 H 0.63749 0.08639 0.97753 0.0
H882 H 0.66271 0.16098 1.00446 0.0
H883 H 0.62851 0.17035 0.97301 0.0
C884 C 0.59867 0.19516 0.84134 0.0
C885 C 0.61483 0.21806 0.85079 0.0
C886 C 0.5891 0.17735 0.85761 0.0
C887 C 0.59481 0.18203 0.88384 0.0
C888 C 0.61084 0.2049 0.89337 0.0
C889 C 0.62073 0.22265 0.87709 0.0
C890 C 0.58434 0.16307 0.90128 0.0
C891 C 0.60184 0.15743 0.92109 0.0
C892 C 0.55743 0.15004 0.89811 0.0
C893 C 0.53744 0.15583 0.87866 0.0
C894 C 0.53414 0.17938 0.87773 0.0
C895 C 0.51542 0.18475 0.8592 0.0
C896 C 0.49978 0.16668 0.8416 0.0
C897 C 0.50277 0.14318 0.84253 0.0
C898 C 0.52146 0.13771 0.86102 0.0
C899 C 0.54142 0.10011 0.99329 0.0
C900 C 0.52935 0.07584 0.9852 0.0
C901 C 0.55464 0.11621 0.9772 0.0
C902 C 0.55539 0.1085 0.95248 0.0
C903 C 0.54362 0.08411 0.94453 0.0
C904 C 0.53111 0.06783 0.9609 0.0
C905 C 0.56637 0.12635 0.93438 0.0
C906 C 0.54893 0.13175 0.91446 0.0
C907 C 0.59327 0.13924 0.93758 0.0
C908 C 0.61308 0.13348 0.95725 0.0
C909 C 0.6159 0.10978 0.95869 0.0
C910 C 0.63535 0.10465 0.97657 0.0
C911 C 0.65219 0.12309 0.99307 0.0
C912 C 0.64961 0.1467 0.99172 0.0
C913 C 0.63019 0.15193 0.97386 0.0
H914 H 0.66729 0.11909 1.00684 0.0
H915 H 0.48531 0.17088 0.82726 0.0
H916 H 0.91259 0.76858 0.36242 0.0
H917 H 0.93334 0.80592 0.38846 0.0
H918 H 0.86021 0.82634 0.37602 0.0
H919 H 0.83996 0.78965 0.34881 0.0
H920 H 0.89491 0.86482 0.37606 0.0
H921 H 0.88901 0.80292 0.43521 0.0
H922 H 0.89524 0.76473 0.45221 0.0
H923 H 0.97897 0.79229 0.45797 0.0
H924 H 0.97322 0.83055 0.44072 0.0
H925 H 0.9412 0.9591 0.47814 0.0
H926 H 0.9162 0.9207 0.45446 0.0
H927 H 0.98892 0.90528 0.4439 0.0
H928 H 0.01362 0.94356 0.4665 0.0
H929 H 0.95204 0.86421 0.45753 0.0
H930 H 0.95628 0.92602 0.39738 0.0
H931 H 0.94881 0.96344 0.37948 0.0
H932 H 0.8655 0.93508 0.37651 0.0
H933 H 0.87251 0.89761 0.3948 0.0
C934 C 0.90087 0.78096 0.36532 0.0
C935 C 0.87448 0.77585 0.35346 0.0
C936 C 0.91275 0.80242 0.38049 0.0
C937 C 0.89843 0.8192 0.3851 0.0
C938 C 0.87203 0.81406 0.3731 0.0
C939 C 0.86034 0.79288 0.35748 0.0
C940 C 0.91089 0.84209 0.402 0.0
C941 C 0.90693 0.86441 0.39409 0.0
C942 C 0.92711 0.84227 0.42559 0.0
C943 C 0.93067 0.81954 0.43654 0.0
C944 C 0.90874 0.8008 0.44005 0.0
C945 C 0.91219 0.77914 0.44971 0.0
C946 C 0.93748 0.77607 0.45613 0.0
C947 C 0.95939 0.7947 0.45299 0.0
C948 C 0.95606 0.81639 0.44331 0.0
C949 C 0.95181 0.94736 0.47103 0.0
C950 C 0.97953 0.95454 0.47438 0.0
C951 C 0.93749 0.92542 0.4573 0.0
C952 C 0.95053 0.90983 0.44713 0.0
C953 C 0.97818 0.9167 0.45139 0.0
C954 C 0.99234 0.93874 0.46441 0.0
C955 C 0.9359 0.88671 0.43156 0.0
C956 C 0.93961 0.86441 0.43968 0.0
C957 C 0.91915 0.8865 0.40837 0.0
C958 C 0.91496 0.90918 0.39785 0.0
C959 C 0.93639 0.92789 0.39324 0.0
C960 C 0.93224 0.94908 0.38295 0.0
C961 C 0.90671 0.95169 0.37697 0.0
C962 C 0.88527 0.93308 0.38124 0.0
C963 C 0.88933 0.91187 0.39158 0.0
H964 H 0.90352 0.96808 0.36895 0.0
H965 H 0.94011 0.75927 0.46356 0.0
H966 H 0.28192 0.70555 0.64382 0.0
H967 H 0.30971 0.67979 0.63447 0.0
H968 H 0.35257 0.69419 0.71005 0.0
H969 H 0.32528 0.72064 0.71933 0.0
H970 H 0.38597 0.69925 0.67725 0.0
H971 H 0.31197 0.63768 0.69133 0.0
H972 H 0.26505 0.61598 0.68767 0.0
H973 H 0.2609 0.60335 0.60819 0.0
H974 H 0.30775 0.62521 0.61132 0.0
H975 H 0.45927 0.61551 0.6495 0.0
H976 H 0.43038 0.63439 0.66931 0.0
H977 H 0.38019 0.63021 0.59782 0.0
H978 H 0.40904 0.61172 0.57784 0.0
H979 H 0.35127 0.6172 0.6351 0.0
H980 H 0.42551 0.68301 0.62215 0.0
H981 H 0.47236 0.70538 0.62728 0.0
H982 H 0.47606 0.70954 0.70747 0.0
H983 H 0.4293 0.68689 0.70282 0.0
C984 C 0.29715 0.70318 0.65854 0.0
C985 C 0.30128 0.71529 0.68233 0.0
C986 C 0.31293 0.68822 0.65323 0.0
C987 C 0.33322 0.68482 0.67158 0.0
C988 C 0.33706 0.69644 0.69555 0.0
C989 C 0.32121 0.71139 0.7009 0.0
C990 C 0.35119 0.67024 0.6651 0.0
C991 C 0.3784 0.6811 0.66852 0.0
C992 C 0.34147 0.6466 0.65353 0.0
C993 C 0.31334 0.63323 0.65153 0.0
C994 C 0.30102 0.6304 0.67304 0.0
C995 C 0.27444 0.61804 0.67107 0.0
C996 C 0.25999 0.60833 0.64771 0.0
C997 C 0.27212 0.61088 0.62628 0.0
C998 C 0.2987 0.62321 0.62814 0.0
C999 C 0.44217 0.6187 0.63792 0.0
C1000 C 0.43665 0.61206 0.61196 0.0
C1001 C 0.42559 0.62946 0.64933 0.0
C1002 C 0.40314 0.63396 0.63506 0.0
C1003 C 0.39728 0.62687 0.60931 0.0
C1004 C 0.41383 0.61616 0.5979 0.0
C1005 C 0.38593 0.6465 0.64657 0.0
C1006 C 0.35886 0.63521 0.64416 0.0
C1007 C 0.39584 0.66964 0.65934 0.0
C1008 C 0.42401 0.68299 0.66215 0.0
C1009 C 0.43639 0.68848 0.64088 0.0
C1010 C 0.46291 0.70126 0.64371 0.0
C1011 C 0.4772 0.70881 0.66769 0.0
C1012 C 0.46499 0.70363 0.68891 0.0
C1013 C 0.43848 0.69082 0.68619 0.0
H1014 H 0.49771 0.71874 0.66983 0.0
H1015 H 0.2394 0.59879 0.64621 0.0
H1016 H 0.76308 0.83309 0.72183 0.0
H1017 H 0.79419 0.85237 0.69368 0.0
H1018 H 0.85468 0.82509 0.73646 0.0
H1019 H 0.824 0.80525 0.76332 0.0
H1020 H 0.8507 0.8859 0.72125 0.0
H1021 H 0.86267 0.79987 0.70322 0.0
H1022 H 0.8387 0.75782 0.68885 0.0
H1023 H 0.79695 0.78338 0.62502 0.0
H1024 H 0.82019 0.82563 0.63952 0.0
H1025 H 0.96662 0.93744 0.67407 0.0
H1026 H 0.93896 0.90853 0.69858 0.0
H1027 H 0.88837 0.87636 0.62946 0.0
H1028 H 0.91705 0.90307 0.6055 0.0
H1029 H 0.88577 0.84417 0.65842 0.0
H1030 H 0.8829 0.92969 0.66926 0.0
H1031 H 0.90122 0.97255 0.68428 0.0
H1032 H 0.92024 0.95112 0.75934 0.0
H1033 H 0.90222 0.90818 0.74471 0.0
C1034 C 0.78275 0.83059 0.72433 0.0
C1035 C 0.79124 0.81731 0.74397 0.0
C1036 C 0.80036 0.84161 0.70858 0.0
C1037 C 0.82627 0.83953 0.71302 0.0
C1038 C 0.83444 0.82605 0.73244 0.0
C1039 C 0.81694 0.81473 0.74762 0.0
C1040 C 0.84616 0.853 0.69927 0.0
C1041 C 0.8583 0.87713 0.70716 0.0
C1042 C 0.85603 0.84103 0.68163 0.0
C1043 C 0.84293 0.81576 0.67251 0.0
C1044 C 0.84826 0.79648 0.68621 0.0
C1045 C 0.83478 0.77264 0.67808 0.0
C1046 C 0.81627 0.76793 0.65606 0.0
C1047 C 0.81122 0.78705 0.64211 0.0
C1048 C 0.82446 0.81093 0.65032 0.0
C1049 C 0.95033 0.92325 0.66438 0.0
C1050 C 0.94385 0.92212 0.63813 0.0
C1051 C 0.93432 0.90712 0.67824 0.0
C1052 C 0.91114 0.89089 0.66585 0.0
C1053 C 0.90614 0.88863 0.63951 0.0
C1054 C 0.92261 0.90387 0.62577 0.0
C1055 C 0.89036 0.87792 0.67949 0.0
C1056 C 0.87821 0.85349 0.67208 0.0
C1057 C 0.88024 0.88995 0.6973 0.0
C1058 C 0.89152 0.91577 0.70583 0.0
C1059 C 0.89115 0.93415 0.68892 0.0
C1060 C 0.90145 0.95845 0.69737 0.0
C1061 C 0.91195 0.96455 0.72273 0.0
C1062 C 0.91217 0.94638 0.7397 0.0
C1063 C 0.90192 0.92208 0.73134 0.0
H1064 H 0.91987 0.98336 0.72924 0.0
H1065 H 0.80587 0.74946 0.64978 0.0
H1066 H 0.69032 0.17778 0.25992 0.0
H1067 H 0.65613 0.15319 0.22776 0.0
H1068 H 0.69808 0.18719 0.16974 0.0
H1069 H 0.73248 0.21203 0.20197 0.0
H1070 H 0.64501 0.18025 0.15625 0.0
H1071 H 0.70335 0.13271 0.18702 0.0
H1072 H 0.72933 0.11471 0.21933 0.0
H1073 H 0.65853 0.07566 0.24487 0.0
H1074 H 0.63213 0.09372 0.21291 0.0
H1075 H 0.59347 0.08432 0.06101 0.0
H1076 H 0.62291 0.11289 0.09357 0.0
H1077 H 0.56876 0.08949 0.14577 0.0
H1078 H 0.53872 0.0611 0.11296 0.0
H1079 H 0.62662 0.09119 0.16205 0.0
H1080 H 0.56845 0.1391 0.12886 0.0
H1081 H 0.54399 0.15524 0.09369 0.0
H1082 H 0.61662 0.19202 0.06986 0.0
H1083 H 0.64151 0.17578 0.10473 0.0
C1084 C 0.69236 0.17998 0.24033 0.0
C1085 C 0.71435 0.19656 0.23352 0.0
C1086 C 0.67272 0.166 0.22196 0.0
C1087 C 0.67475 0.16808 0.19636 0.0
C1088 C 0.69614 0.18528 0.18939 0.0
C1089 C 0.71579 0.19941 0.20782 0.0
C1090 C 0.65526 0.15131 0.17713 0.0
C1091 C 0.64115 0.16081 0.15744 0.0
C1092 C 0.65004 0.12589 0.17872 0.0
C1093 C 0.66579 0.11475 0.19775 0.0
C1094 C 0.69333 0.12041 0.19964 0.0
C1095 C 0.70814 0.11019 0.21787 0.0
C1096 C 0.6956 0.0941 0.23419 0.0
C1097 C 0.66821 0.08815 0.23224 0.0
C1098 C 0.65332 0.09836 0.21406 0.0
C1099 C 0.58777 0.08527 0.0794 0.0
C1100 C 0.56386 0.07046 0.08452 0.0
C1101 C 0.60457 0.10162 0.09792 0.0
C1102 C 0.59793 0.1032 0.12197 0.0
C1103 C 0.57412 0.08844 0.12724 0.0
C1104 C 0.557 0.07237 0.10852 0.0
C1105 C 0.61626 0.12016 0.14157 0.0
C1106 C 0.63031 0.11066 0.16114 0.0
C1107 C 0.62161 0.14547 0.13966 0.0
C1108 C 0.60684 0.15611 0.11932 0.0
C1109 C 0.57921 0.15056 0.11606 0.0
C1110 C 0.56526 0.15972 0.09619 0.0
C1111 C 0.57874 0.17462 0.07952 0.0
C1112 C 0.60621 0.18048 0.08279 0.0
C1113 C 0.62025 0.17134 0.10264 0.0
H1114 H 0.56791 0.18164 0.0641 0.0
H1115 H 0.70709 0.08621 0.2483 0.0
H1116 H 0.44074 0.69026 0.33522 0.0
H1117 H 0.45444 0.66777 0.3706 0.0
H1118 H 0.38194 0.61161 0.35183 0.0
H1119 H 0.36727 0.63479 0.31781 0.0
H1120 H 0.39409 0.61512 0.39944 0.0
H1121 H 0.44303 0.60968 0.33227 0.0
H1122 H 0.47233 0.62566 0.30163 0.0
H1123 H 0.53398 0.65979 0.36192 0.0
H1124 H 0.50491 0.64428 0.39291 0.0
H1125 H 0.43615 0.51407 0.45017 0.0
H1126 H 0.4204 0.54303 0.423 0.0
H1127 H 0.49044 0.59894 0.45248 0.0
H1128 H 0.50628 0.57014 0.47945 0.0
H1129 H 0.48077 0.59757 0.40184 0.0
H1130 H 0.43091 0.59877 0.46906 0.0
H1131 H 0.40059 0.58095 0.49822 0.0
H1132 H 0.33948 0.55198 0.4357 0.0
H1133 H 0.36954 0.56936 0.40615 0.0
C1134 C 0.42738 0.67345 0.33899 0.0
C1135 C 0.40307 0.66419 0.32321 0.0
C1136 C 0.43544 0.66038 0.35907 0.0
C1137 C 0.41964 0.63753 0.3635 0.0
C1138 C 0.39472 0.629 0.34873 0.0
C1139 C 0.38647 0.64221 0.329 0.0
C1140 C 0.42932 0.6219 0.3826 0.0
C1141 C 0.41297 0.61116 0.39978 0.0
C1142 C 0.45413 0.61689 0.38347 0.0
C1143 C 0.4717 0.62605 0.36488 0.0
C1144 C 0.46278 0.62072 0.33898 0.0
C1145 C 0.47935 0.62968 0.32155 0.0
C1146 C 0.50497 0.64379 0.32982 0.0
C1147 C 0.51411 0.6489 0.35554 0.0
C1148 C 0.4976 0.64002 0.37304 0.0
C1149 C 0.44803 0.53259 0.451 0.0
C1150 C 0.47244 0.5398 0.46692 0.0
C1151 C 0.439 0.54916 0.43553 0.0
C1152 C 0.45417 0.57325 0.43577 0.0
C1153 C 0.47839 0.5805 0.45193 0.0
C1154 C 0.48737 0.564 0.4674 0.0
C1155 C 0.44543 0.59067 0.41844 0.0
C1156 C 0.46198 0.60171 0.40159 0.0
C1157 C 0.42065 0.59563 0.41762 0.0
C1158 C 0.40256 0.5852 0.43539 0.0
C1159 C 0.41107 0.58844 0.46153 0.0
C1160 C 0.39392 0.57845 0.47813 0.0
C1161 C 0.36815 0.56529 0.46882 0.0
C1162 C 0.35946 0.56215 0.44288 0.0
C1163 C 0.37653 0.57209 0.4262 0.0
H1164 H 0.35489 0.55757 0.4817 0.0
H1165 H 0.51776 0.65072 0.3163 0.0
H1166 H 0.12954 0.36344 0.83599 0.0
H1167 H 0.11074 0.38122 0.86723 0.0
H1168 H 0.15817 0.45201 0.85512 0.0
H1169 H 0.17912 0.43404 0.82532 0.0
H1170 H 0.15564 0.45198 0.90179 0.0
H1171 H 0.08705 0.42759 0.83094 0.0
H1172 H 0.05743 0.39943 0.79747 0.0
H1173 H 0.02481 0.35323 0.85308 0.0
H1174 H 0.05449 0.38095 0.88688 0.0
H1175 H 0.06896 0.5143 0.95169 0.0
H1176 H 0.09242 0.49675 0.92362 0.0
H1177 H 0.06835 0.42779 0.95584 0.0
H1178 H 0.04574 0.44557 0.98479 0.0
H1179 H 0.05902 0.42744 0.89955 0.0
H1180 H 0.12749 0.45389 0.97034 0.0
H1181 H 0.15781 0.48249 1.00295 0.0
H1182 H 0.1904 0.52658 0.94587 0.0
H1183 H 0.15992 0.49845 0.91288 0.0
C1184 C 0.13661 0.38276 0.84003 0.0
C1185 C 0.15629 0.39697 0.82755 0.0
C1186 C 0.12521 0.39312 0.85785 0.0
C1187 C 0.13221 0.41829 0.86349 0.0
C1188 C 0.15196 0.43259 0.85128 0.0
C1189 C 0.1638 0.42217 0.83375 0.0
C1190 C 0.11901 0.42948 0.88201 0.0
C1191 C 0.13446 0.44679 0.9009 0.0
C1192 C 0.09129 0.42273 0.88167 0.0
C1193 C 0.07314 0.40624 0.86142 0.0
C1194 C 0.07364 0.41136 0.83602 0.0
C1195 C 0.05684 0.39548 0.81699 0.0
C1196 C 0.03929 0.37453 0.82314 0.0
C1197 C 0.03843 0.36945 0.84834 0.0
C1198 C 0.05522 0.38526 0.86744 0.0
C1199 C 0.06878 0.49542 0.95299 0.0
C1200 C 0.05534 0.48143 0.97066 0.0
C1201 C 0.08232 0.48538 0.93688 0.0
C1202 C 0.08232 0.46082 0.93739 0.0
C1203 C 0.06881 0.44675 0.95494 0.0
C1204 C 0.0559 0.45699 0.9716 0.0
C1205 C 0.09566 0.44978 0.91914 0.0
C1206 C 0.08019 0.4326 0.90029 0.0
C1207 C 0.12327 0.45691 0.91932 0.0
C1208 C 0.14112 0.47422 0.93912 0.0
C1209 C 0.14083 0.46987 0.96472 0.0
C1210 C 0.15812 0.48596 0.98329 0.0
C1211 C 0.17595 0.50639 0.97649 0.0
C1212 C 0.17653 0.51078 0.95111 0.0
C1213 C 0.15924 0.49477 0.93247 0.0
H1214 H 0.18939 0.51879 0.99089 0.0
H1215 H 0.02633 0.36224 0.80838 0.0
H1216 H 0.70171 0.83822 0.87996 0.0
H1217 H 0.66691 0.85802 0.88264 0.0
H1218 H 0.60829 0.79102 0.85813 0.0
H1219 H 0.64357 0.77106 0.85455 0.0
H1220 H 0.60909 0.85218 0.84283 0.0
H1221 H 0.61006 0.78899 0.90995 0.0
H1222 H 0.64047 0.77096 0.93762 0.0
H1223 H 0.68624 0.84178 0.96685 0.0
H1224 H 0.65632 0.86019 0.93914 0.0
H1225 H 0.54146 0.9201 0.91323 0.0
H1226 H 0.54883 0.88523 0.89055 0.0
H1227 H 0.62759 0.90054 0.93262 0.0
H1228 H 0.62011 0.93458 0.95515 0.0
H1229 H 0.60108 0.85421 0.93341 0.0
H1230 H 0.62161 0.91789 0.8788 0.0
H1231 H 0.6147 0.9505 0.85153 0.0
H1232 H 0.556 0.89892 0.80064 0.0
H1233 H 0.56208 0.866 0.82803 0.0
C1234 C 0.68137 0.82773 0.8753 0.0
C1235 C 0.67485 0.80308 0.86813 0.0
C1236 C 0.6617 0.83914 0.87609 0.0
C1237 C 0.63542 0.8258 0.87031 0.0
C1238 C 0.62869 0.80136 0.86224 0.0
C1239 C 0.64857 0.78996 0.86089 0.0
C1240 C 0.61609 0.83653 0.87843 0.0
C1241 C 0.60593 0.85192 0.86228 0.0
C1242 C 0.61443 0.83725 0.90431 0.0
C1243 C 0.63075 0.82589 0.92267 0.0
C1244 C 0.62647 0.80067 0.92245 0.0
C1245 C 0.6437 0.7904 0.93805 0.0
C1246 C 0.66522 0.80521 0.95403 0.0
C1247 C 0.66949 0.83031 0.95456 0.0
C1248 C 0.65234 0.84066 0.93899 0.0
C1249 C 0.56018 0.9157 0.91739 0.0
C1250 C 0.58029 0.92933 0.93573 0.0
C1251 C 0.56433 0.89606 0.90462 0.0
C1252 C 0.58854 0.89045 0.91035 0.0
C1253 C 0.60863 0.90451 0.92842 0.0
C1254 C 0.60446 0.92383 0.94113 0.0
C1255 C 0.59375 0.87 0.89783 0.0
C1256 C 0.60178 0.85307 0.91339 0.0
C1257 C 0.5959 0.86969 0.87202 0.0
C1258 C 0.59171 0.88954 0.85585 0.0
C1259 C 0.60681 0.91353 0.86209 0.0
C1260 C 0.60315 0.93208 0.84655 0.0
C1261 C 0.58476 0.92682 0.82447 0.0
C1262 C 0.57008 0.90299 0.81786 0.0
C1263 C 0.57357 0.88438 0.83342 0.0
H1264 H 0.58201 0.94118 0.8124 0.0
H1265 H 0.67861 0.79722 0.96597 0.0
H1266 H 0.87608 0.2161 0.40806 0.0
H1267 H 0.90087 0.18919 0.42902 0.0
H1268 H 0.8646 0.1339 0.36984 0.0
H1269 H 0.84006 0.16093 0.34887 0.0
H1270 H 0.86404 0.11458 0.41454 0.0
H1271 H 0.92932 0.16649 0.37427 0.0
H1272 H 0.95757 0.20489 0.36304 0.0
H1273 H 0.99177 0.22214 0.44068 0.0
H1274 H 0.96346 0.18397 0.45243 0.0
H1275 H 0.94737 0.03609 0.44912 0.0
H1276 H 0.92383 0.06314 0.42652 0.0
H1277 H 0.96023 0.11961 0.48448 0.0
H1278 H 0.98375 0.09256 0.50691 0.0
H1279 H 0.96097 0.13828 0.4396 0.0
H1280 H 0.89465 0.0864 0.47966 0.0
H1281 H 0.8657 0.04818 0.49049 0.0
H1282 H 0.83314 0.03095 0.41247 0.0
H1283 H 0.86214 0.06893 0.40114 0.0
C1284 C 0.8734 0.19816 0.39964 0.0
C1285 C 0.85602 0.19051 0.37696 0.0
C1286 C 0.88772 0.18282 0.4115 0.0
C1287 C 0.88488 0.15942 0.40102 0.0
C1288 C 0.86727 0.15178 0.3784 0.0
C1289 C 0.85323 0.16722 0.36641 0.0
C1290 C 0.89959 0.14266 0.4139 0.0
C1291 C 0.88529 0.11968 0.41965 0.0
C1292 C 0.92732 0.14931 0.4212 0.0
C1293 C 0.94403 0.17248 0.41426 0.0
C1294 C 0.94265 0.17859 0.38899 0.0
C1295 C 0.95873 0.20028 0.38252 0.0
C1296 C 0.9764 0.21598 0.40114 0.0
C1297 C 0.97804 0.20999 0.42628 0.0
C1298 C 0.96199 0.18831 0.43285 0.0
C1299 C 0.95034 0.05432 0.45692 0.0
C1300 C 0.96743 0.06228 0.4797 0.0
C1301 C 0.93676 0.06976 0.4441 0.0
C1302 C 0.93993 0.09353 0.45379 0.0
C1303 C 0.95732 0.10148 0.47647 0.0
C1304 C 0.97077 0.086 0.48933 0.0
C1305 C 0.9254 0.11019 0.44031 0.0
C1306 C 0.93973 0.13316 0.43445 0.0
C1307 C 0.89768 0.10352 0.43283 0.0
C1308 C 0.88082 0.08035 0.43953 0.0
C1309 C 0.88155 0.07431 0.46478 0.0
C1310 C 0.86507 0.05273 0.47102 0.0
C1311 C 0.84766 0.03711 0.45217 0.0
C1312 C 0.84668 0.04303 0.42704 0.0
C1313 C 0.86314 0.06458 0.42071 0.0
H1314 H 0.83486 0.02044 0.45705 0.0
H1315 H 0.98886 0.23275 0.39609 0.0
H1316 H 0.2751 0.6634 0.138 0.0
H1317 H 0.23115 0.64214 0.11833 0.0
H1318 H 0.20503 0.63773 0.19056 0.0
H1319 H 0.2501 0.6572 0.21099 0.0
H1320 H 0.18448 0.5963 0.16446 0.0
H1321 H 0.1878 0.6783 0.14554 0.0
H1322 H 0.20691 0.71892 0.13152 0.0
H1323 H 0.20767 0.68805 0.05858 0.0
H1324 H 0.18878 0.64726 0.07221 0.0
H1325 H 0.05548 0.55156 0.08819 0.0
H1326 H 0.09263 0.57442 0.11908 0.0
H1327 H 0.14226 0.58503 0.06162 0.0
H1328 H 0.10516 0.5627 0.03066 0.0
H1329 H 0.14451 0.62692 0.08674 0.0
H1330 H 0.14832 0.54518 0.10795 0.0
H1331 H 0.12835 0.50424 0.12076 0.0
H1332 H 0.11282 0.53479 0.1883 0.0
H1333 H 0.13255 0.57591 0.17577 0.0
C1334 C 0.26026 0.65766 0.14993 0.0
C1335 C 0.26641 0.66185 0.1762 0.0
C1336 C 0.23487 0.64588 0.13851 0.0
C1337 C 0.21457 0.63885 0.15286 0.0
C1338 C 0.22036 0.64321 0.17909 0.0
C1339 C 0.24609 0.65458 0.19069 0.0
C1340 C 0.18772 0.62617 0.14011 0.0
C1341 C 0.17544 0.60325 0.14779 0.0
C1342 C 0.17587 0.63513 0.11829 0.0
C1343 C 0.1869 0.65972 0.10994 0.0
C1344 C 0.19211 0.68018 0.12654 0.0
C1345 C 0.20289 0.70323 0.11865 0.0
C1346 C 0.20851 0.70606 0.09418 0.0
C1347 C 0.20327 0.68585 0.07751 0.0
C1348 C 0.19245 0.66277 0.08529 0.0
C1349 C 0.07443 0.55858 0.08228 0.0
C1350 C 0.07754 0.55561 0.05707 0.0
C1351 C 0.09558 0.57155 0.09992 0.0
C1352 C 0.12011 0.58141 0.09257 0.0
C1353 C 0.12339 0.57768 0.06758 0.0
C1354 C 0.10226 0.5649 0.04995 0.0
C1355 C 0.14224 0.59674 0.11033 0.0
C1356 C 0.15336 0.62024 0.10369 0.0
C1357 C 0.15288 0.58831 0.133 0.0
C1358 C 0.14174 0.56359 0.14086 0.0
C1359 C 0.14058 0.54315 0.1255 0.0
C1360 C 0.12932 0.51992 0.13271 0.0
C1361 C 0.11928 0.51692 0.15531 0.0
C1362 C 0.12061 0.53714 0.1708 0.0
C1363 C 0.13188 0.5604 0.16369 0.0
H1364 H 0.11051 0.49894 0.16083 0.0
H1365 H 0.21691 0.72392 0.08813 0.0
H1366 H 0.30913 0.37168 0.69032 0.0
H1367 H 0.34106 0.38839 0.66272 0.0
H1368 H 0.31606 0.45434 0.66098 0.0
H1369 H 0.28278 0.43669 0.68712 0.0
H1370 H 0.32388 0.44825 0.61859 0.0
H1371 H 0.38029 0.44553 0.69507 0.0
H1372 H 0.40058 0.42932 0.73283 0.0
H1373 H 0.42202 0.37843 0.68637 0.0
H1374 H 0.4016 0.39414 0.64834 0.0
H1375 H 0.43618 0.51472 0.56626 0.0
H1376 H 0.40361 0.49871 0.59339 0.0
H1377 H 0.41319 0.4272 0.58146 0.0
H1378 H 0.44601 0.44316 0.5543 0.0
H1379 H 0.41413 0.43751 0.63099 0.0
H1380 H 0.35656 0.44482 0.55395 0.0
H1381 H 0.33956 0.46669 0.51896 0.0
H1382 H 0.32453 0.51639 0.57171 0.0
H1383 H 0.34168 0.49495 0.60699 0.0
C1384 C 0.31046 0.38974 0.68398 0.0
C1385 C 0.29329 0.40279 0.69086 0.0
C1386 C 0.32907 0.39952 0.66836 0.0
C1387 C 0.33181 0.42307 0.6598 0.0
C1388 C 0.31466 0.43616 0.66696 0.0
C1389 C 0.29556 0.42609 0.68203 0.0
C1390 C 0.35154 0.4336 0.64262 0.0
C1391 C 0.34372 0.44613 0.62176 0.0
C1392 C 0.37766 0.43093 0.646 0.0
C1393 C 0.3891 0.42082 0.66886 0.0
C1394 C 0.38905 0.43069 0.69292 0.0
C1395 C 0.40065 0.42164 0.71437 0.0
C1396 C 0.4125 0.4028 0.712 0.0
C1397 C 0.41277 0.39298 0.68818 0.0
C1398 C 0.4012 0.40195 0.66667 0.0
C1399 C 0.43121 0.4955 0.5691 0.0
C1400 C 0.44384 0.48028 0.55781 0.0
C1401 C 0.41239 0.48631 0.58467 0.0
C1402 C 0.40552 0.46159 0.58953 0.0
C1403 C 0.41793 0.44631 0.57811 0.0
C1404 C 0.43666 0.45547 0.56237 0.0
C1405 C 0.38626 0.45183 0.60718 0.0
C1406 C 0.39423 0.43952 0.62805 0.0
C1407 C 0.36064 0.45542 0.60433 0.0
C1408 C 0.35061 0.4684 0.58309 0.0
C1409 C 0.34983 0.46052 0.55807 0.0
C1410 C 0.34011 0.47282 0.53819 0.0
C1411 C 0.33103 0.49295 0.54311 0.0
C1412 C 0.3316 0.50081 0.56792 0.0
C1413 C 0.34128 0.48858 0.58785 0.0
H1414 H 0.3235 0.50242 0.52769 0.0
H1415 H 0.42153 0.39587 0.72863 0.0
H1416 H 0.75505 0.68356 0.88686 0.0
H1417 H 0.77945 0.65902 0.91188 0.0
H1418 H 0.83049 0.6642 0.85577 0.0
H1419 H 0.80473 0.68655 0.83017 0.0
H1420 H 0.8379 0.6319 0.8806 0.0
H1421 H 0.83806 0.71415 0.90595 0.0
H1422 H 0.81899 0.74646 0.91906 0.0
H1423 H 0.79319 0.70551 0.98092 0.0
H1424 H 0.81197 0.67296 0.96797 0.0
H1425 H 0.9618 0.65414 0.94652 0.0
H1426 H 0.92632 0.67101 0.92784 0.0
H1427 H 0.87856 0.6366 0.98173 0.0
H1428 H 0.91433 0.62023 1.00109 0.0
H1429 H 0.86733 0.68052 0.96182 0.0
H1430 H 0.88025 0.60129 0.93088 0.0
H1431 H 0.90663 0.57788 0.91253 0.0
H1432 H 0.91777 0.62756 0.85374 0.0
H1433 H 0.89151 0.6512 0.87179 0.0
C1434 C 0.77015 0.67768 0.87908 0.0
C1435 C 0.77902 0.6875 0.85732 0.0
C1436 C 0.7845 0.6642 0.89364 0.0
C1437 C 0.80784 0.66135 0.88652 0.0
C1438 C 0.81296 0.66669 0.8621 0.0
C1439 C 0.7981 0.67935 0.84724 0.0
C1440 C 0.8294 0.65775 0.90538 0.0
C1441 C 0.84421 0.64258 0.89833 0.0
C1442 C 0.83806 0.67198 0.92844 0.0
C1443 C 0.8259 0.691 0.93571 0.0
C1444 C 0.828 0.71197 0.92213 0.0
C1445 C 0.81735 0.73034 0.92959 0.0
C1446 C 0.80477 0.72798 0.95074 0.0
C1447 C 0.80284 0.70727 0.96448 0.0
C1448 C 0.81347 0.68886 0.95709 0.0
C1449 C 0.94441 0.65139 0.95539 0.0
C1450 C 0.94033 0.63531 0.9747 0.0
C1451 C 0.92409 0.66086 0.94455 0.0
C1452 C 0.89976 0.65416 0.95296 0.0
C1453 C 0.89723 0.64156 0.97488 0.0
C1454 C 0.9176 0.63223 0.98587 0.0
C1455 C 0.8759 0.65553 0.93631 0.0
C1456 C 0.86067 0.66986 0.9441 0.0
C1457 C 0.86783 0.642 0.91301 0.0
C1458 C 0.88409 0.62801 0.90274 0.0
C1459 C 0.88847 0.60725 0.91414 0.0
C1460 C 0.90334 0.59392 0.90375 0.0
C1461 C 0.91387 0.60123 0.88199 0.0
C1462 C 0.9096 0.6219 0.87058 0.0
C1463 C 0.89471 0.63523 0.88085 0.0
H1464 H 0.92531 0.59086 0.87395 0.0
H1465 H 0.7966 0.74224 0.95654 0.0
H1466 H 0.45284 0.82304 0.20799 0.0
H1467 H 0.46582 0.85794 0.1833 0.0
H1468 H 0.38655 0.84335 0.14309 0.0
H1469 H 0.37385 0.80707 0.16635 0.0
H1470 H 0.41777 0.85324 0.11099 0.0
H1471 H 0.41571 0.8937 0.18778 0.0
H1472 H 0.42467 0.90241 0.23371 0.0
H1473 H 0.50769 0.92363 0.23177 0.0
H1474 H 0.49927 0.91475 0.18588 0.0
H1475 H 0.46206 0.96713 0.05143 0.0
H1476 H 0.43775 0.93771 0.07803 0.0
H1477 H 0.51067 0.92482 0.11342 0.0
H1478 H 0.53478 0.95338 0.08632 0.0
H1479 H 0.47557 0.93222 0.1478 0.0
H1480 H 0.47583 0.88669 0.07116 0.0
H1481 H 0.46571 0.87543 0.02572 0.0
H1482 H 0.38317 0.86316 0.02801 0.0
H1483 H 0.39285 0.87487 0.07342 0.0
C1484 C 0.43808 0.82706 0.19385 0.0
C1485 C 0.41228 0.81185 0.18917 0.0
C1486 C 0.44547 0.84743 0.17994 0.0
C1487 C 0.42715 0.8537 0.16142 0.0
C1488 C 0.40113 0.83906 0.15726 0.0
C1489 C 0.3938 0.81838 0.17089 0.0
C1490 C 0.43573 0.87455 0.14544 0.0
C1491 C 0.42985 0.8707 0.11912 0.0
C1492 C 0.4517 0.89741 0.15584 0.0
C1493 C 0.45684 0.90347 0.18336 0.0
C1494 C 0.43588 0.90017 0.19715 0.0
C1495 C 0.44087 0.90513 0.22319 0.0
C1496 C 0.46673 0.91355 0.23565 0.0
C1497 C 0.48766 0.91713 0.22209 0.0
C1498 C 0.48279 0.91219 0.19605 0.0
C1499 C 0.47285 0.95808 0.065 0.0
C1500 C 0.50033 0.96251 0.06682 0.0
C1501 C 0.45895 0.94125 0.08012 0.0
C1502 C 0.47239 0.92903 0.09774 0.0
C1503 C 0.49988 0.93402 0.1 0.0
C1504 C 0.51364 0.95028 0.08446 0.0
C1505 C 0.45811 0.91056 0.11353 0.0
C1506 C 0.46293 0.91493 0.13978 0.0
C1507 C 0.44085 0.88831 0.10307 0.0
C1508 C 0.43511 0.88216 0.0756 0.0
C1509 C 0.45556 0.88205 0.0619 0.0
C1510 C 0.44989 0.87547 0.03616 0.0
C1511 C 0.42382 0.86872 0.02395 0.0
C1512 C 0.40336 0.86852 0.03746 0.0
C1513 C 0.40893 0.87517 0.06319 0.0
H1514 H 0.41947 0.86353 1.00404 0.0
H1515 H 0.47056 0.91732 0.25582 0.0
H1516 H 0.16335 0.23139 0.72125 0.0
H1517 H 0.14128 0.19369 0.69648 0.0
H1518 H 0.1137 0.23401 0.63623 0.0
H1519 H 0.13545 0.2719 0.66123 0.0
H1520 H 0.07614 0.19576 0.63935 0.0
H1521 H 0.16778 0.20691 0.63612 0.0
H1522 H 0.2148 0.21386 0.65349 0.0
H1523 H 0.19743 0.1482 0.69241 0.0
H1524 H 0.15023 0.14103 0.67555 0.0
H1525 H 0.04276 0.09627 0.54541 0.0
H1526 H 0.06682 0.1349 0.56878 0.0
H1527 H 0.07787 0.09693 0.63627 0.0
H1528 H 0.05296 0.05863 0.61326 0.0
H1529 H 0.1244 0.134 0.62829 0.0
H1530 H 0.03292 0.12345 0.63183 0.0
H1531 H 0.98583 0.11695 0.61516 0.0
H1532 H 1.00335 0.18213 0.57547 0.0
H1533 H 0.05065 0.18878 0.59155 0.0
C1534 C 0.15274 0.23236 0.70267 0.0
C1535 C 0.15157 0.25499 0.6933 0.0
C1536 C 0.14008 0.21061 0.68838 0.0
C1537 C 0.12613 0.21064 0.66398 0.0
C1538 C 0.12433 0.23318 0.65484 0.0
C1539 C 0.13681 0.25498 0.66926 0.0
C1540 C 0.11346 0.18731 0.64812 0.0
C1541 C 0.08697 0.18254 0.63664 0.0
C1542 C 0.12705 0.16943 0.64477 0.0
C1543 C 0.15544 0.17355 0.65473 0.0
C1544 C 0.17397 0.19403 0.6485 0.0
C1545 C 0.20065 0.198 0.65825 0.0
C1546 C 0.20908 0.18151 0.67409 0.0
C1547 C 0.19086 0.16097 0.68016 0.0
C1548 C 0.16414 0.15693 0.67049 0.0
C1549 C 0.05089 0.09612 0.56507 0.0
C1550 C 0.04636 0.07425 0.57734 0.0
C1551 C 0.06443 0.11827 0.57853 0.0
C1552 C 0.07425 0.11904 0.60445 0.0
C1553 C 0.07067 0.09702 0.61637 0.0
C1554 C 0.05651 0.07505 0.60313 0.0
C1555 C 0.08728 0.14269 0.61943 0.0
C1556 C 0.11376 0.14741 0.63083 0.0
C1557 C 0.07374 0.16057 0.62261 0.0
C1558 C 0.04539 0.15639 0.61255 0.0
C1559 C 0.02679 0.13621 0.61925 0.0
C1560 C 1.00004 0.13254 0.60998 0.0
C1561 C 0.99161 0.14905 0.59417 0.0
C1562 C 0.00992 0.1693 0.58764 0.0
C1563 C 0.0367 0.17302 0.59682 0.0
H1564 H 0.97089 0.14621 0.58705 0.0
H1565 H 0.22975 0.18461 0.68162 0.0
H1566 H 0.69581 0.30261 0.32303 0.0
H1567 H 0.66701 0.3266 0.33491 0.0
H1568 H 0.72324 0.35537 0.40147 0.0
H1569 H 0.7519 0.33128 0.3899 0.0
H1570 H 0.67443 0.33864 0.41252 0.0
H1571 H 0.71416 0.39008 0.3519 0.0
H1572 H 0.72696 0.4013 0.3107 0.0
H1573 H 0.64567 0.38288 0.27668 0.0
H1574 H 0.63237 0.37118 0.31762 0.0
H1575 H 0.62598 0.43247 0.45577 0.0
H1576 H 0.65378 0.41251 0.43601 0.0
H1577 H 0.58821 0.37893 0.37869 0.0
H1578 H 0.55972 0.39797 0.39896 0.0
H1579 H 0.63941 0.39746 0.36068 0.0
H1580 H 0.59977 0.34515 0.42041 0.0
H1581 H 0.58653 0.33418 0.4615 0.0
H1582 H 0.66757 0.35389 0.49643 0.0
H1583 H 0.68127 0.3654 0.45557 0.0
C1584 C 0.70204 0.31402 0.34023 0.0
C1585 C 0.72618 0.31482 0.35559 0.0
C1586 C 0.68565 0.32796 0.34686 0.0
C1587 C 0.69292 0.34296 0.36906 0.0
C1588 C 0.71714 0.34401 0.38422 0.0
C1589 C 0.73361 0.33026 0.37752 0.0
C1590 C 0.6747 0.35631 0.37754 0.0
C1591 C 0.66712 0.35172 0.40123 0.0
C1592 C 0.6643 0.37285 0.36256 0.0
C1593 C 0.67228 0.37942 0.3378 0.0
C1594 C 0.69901 0.38811 0.33559 0.0
C1595 C 0.70636 0.39464 0.31228 0.0
C1596 C 0.68715 0.39272 0.29107 0.0
C1597 C 0.66054 0.3843 0.29312 0.0
C1598 C 0.65308 0.37772 0.31637 0.0
C1599 C 0.61724 0.42075 0.43906 0.0
C1600 C 0.59027 0.41662 0.42937 0.0
C1601 C 0.63334 0.40952 0.42761 0.0
C1602 C 0.6231 0.39406 0.40595 0.0
C1603 C 0.59661 0.39084 0.39535 0.0
C1604 C 0.58033 0.40185 0.40699 0.0
C1605 C 0.63968 0.37997 0.39574 0.0
C1606 C 0.64679 0.38433 0.37181 0.0
C1607 C 0.64966 0.3631 0.41037 0.0
C1608 C 0.64152 0.35641 0.435 0.0
C1609 C 0.61475 0.34741 0.43691 0.0
C1610 C 0.60716 0.34105 0.46014 0.0
C1611 C 0.62619 0.34341 0.48158 0.0
C1612 C 0.65285 0.35212 0.47981 0.0
C1613 C 0.66054 0.35857 0.45663 0.0
H1614 H 0.62029 0.33842 0.49955 0.0
H1615 H 0.69287 0.39783 0.27306 0.0
loop_
_geom_bond_atom_site_label_1
_geom_bond_atom_site_label_2
_geom_bond_distance
_geom_bond_site_symmetry_2
_ccdc_geom_bond_type
P0 O11 1.490 . S
P0 C14 1.812 . S
P0 C20 1.803 . S
P0 C26 1.819 . S
H1 C15 0.941 . S
H2 C16 0.939 . S
H3 C18 0.940 . S
H4 C19 0.940 . S
H5 C21 0.939 . S
H6 C22 0.942 . S
H7 C24 0.940 . S
H8 C25 0.939 . S
H9 C27 0.941 . S
H10 C31 0.939 . S
O11 P0 1.490 . S
H12 C28 0.939 . S
H13 C30 0.940 . S
C14 P0 1.812 . S
C14 C15 1.389 . S
C14 C19 1.391 . S
C15 H1 0.941 . S
C15 C14 1.389 . S
C15 C16 1.397 . S
C16 H2 0.939 . S
C16 C15 1.397 . S
C16 C17 1.378 . S
C17 C16 1.378 . S
C17 C18 1.378 . S
C18 H3 0.940 . S
C18 C17 1.378 . S
C18 C19 1.396 . S
C19 H4 0.940 . S
C19 C14 1.391 . S
C19 C18 1.396 . S
C20 P0 1.803 . S
C20 C21 1.378 . S
C20 C25 1.400 . S
C21 H5 0.939 . S
C21 C20 1.378 . S
C21 C22 1.361 . S
C22 H6 0.942 . S
C22 C21 1.361 . S
C22 C23 1.369 . S
C23 C22 1.369 . S
C23 C24 1.404 . S
C24 H7 0.940 . S
C24 C23 1.404 . S
C24 C25 1.389 . S
C25 H8 0.939 . S
C25 C20 1.400 . S
C25 C24 1.389 . S
C26 P0 1.819 . S
C26 C27 1.391 . S
C26 C31 1.391 . S
C27 H9 0.941 . S
C27 C26 1.391 . S
C27 C28 1.396 . S
C28 H12 0.939 . S
C28 C27 1.396 . S
C28 C29 1.397 . S
C29 C28 1.397 . S
C29 C30 1.385 . S
C30 H13 0.940 . S
C30 C29 1.385 . S
C30 C31 1.388 . S
C31 H10 0.939 . S
C31 C26 1.391 . S
C31 C30 1.388 . S
P32 O43 1.490 . S
P32 C46 1.812 . S
P32 C52 1.803 . S
P32 C58 1.819 . S
H33 C47 0.941 . S
H34 C48 0.939 . S
H35 C50 0.940 . S
H36 C51 0.940 . S
H37 C53 0.939 . S
H38 C54 0.942 . S
H39 C56 0.940 . S
H40 C57 0.939 . S
H41 C59 0.941 . S
H42 C63 0.939 . S
O43 P32 1.490 . S
H44 C60 0.939 . S
H45 C62 0.940 . S
C46 P32 1.812 . S
C46 C47 1.389 . S
C46 C51 1.391 . S
C47 H33 0.941 . S
C47 C46 1.389 . S
C47 C48 1.397 . S
C48 H34 0.939 . S
C48 C47 1.397 . S
C48 C49 1.378 . S
C49 C48 1.378 . S
C49 C50 1.378 . S
C50 H35 0.940 . S
C50 C49 1.378 . S
C50 C51 1.396 . S
C51 H36 0.940 . S
C51 C46 1.391 . S
C51 C50 1.396 . S
C52 P32 1.803 . S
C52 C53 1.378 . S
C52 C57 1.400 . S
C53 H37 0.939 . S
C53 C52 1.378 . S
C53 C54 1.361 . S
C54 H38 0.942 . S
C54 C53 1.361 . S
C54 C55 1.369 . S
C55 C54 1.369 . S
C55 C56 1.404 . S
C56 H39 0.940 . S
C56 C55 1.404 . S
C56 C57 1.389 . S
C57 H40 0.939 . S
C57 C52 1.400 . S
C57 C56 1.389 . S
C58 P32 1.819 . S
C58 C59 1.391 . S
C58 C63 1.391 . S
C59 H41 0.941 . S
C59 C58 1.391 . S
C59 C60 1.396 . S
C60 H44 0.939 . S
C60 C59 1.396 . S
C60 C61 1.397 . S
C61 C60 1.397 . S
C61 C62 1.385 . S
C62 H45 0.940 . S
C62 C61 1.385 . S
C62 C63 1.388 . S
C63 H42 0.939 . S
C63 C58 1.391 . S
C63 C62 1.388 . S
P64 O75 1.490 . S
P64 C78 1.812 . S
P64 C84 1.803 . S
P64 C90 1.819 . S
H65 C79 0.941 . S
H66 C80 0.939 . S
H67 C82 0.940 . S
H68 C83 0.940 . S
H69 C85 0.939 . S
H70 C86 0.942 . S
H71 C88 0.940 . S
H72 C89 0.939 . S
H73 C91 0.941 . S
H74 C95 0.939 . S
O75 P64 1.490 . S
H76 C92 0.939 . S
H77 C94 0.940 . S
C78 P64 1.812 . S
C78 C79 1.389 . S
C78 C83 1.391 . S
C79 H65 0.941 . S
C79 C78 1.389 . S
C79 C80 1.397 . S
C80 H66 0.939 . S
C80 C79 1.397 . S
C80 C81 1.378 . S
C81 C80 1.378 . S
C81 C82 1.378 . S
C82 H67 0.940 . S
C82 C81 1.378 . S
C82 C83 1.396 . S
C83 H68 0.940 . S
C83 C78 1.391 . S
C83 C82 1.396 . S
C84 P64 1.803 . S
C84 C85 1.378 . S
C84 C89 1.400 . S
C85 H69 0.939 . S
C85 C84 1.378 . S
C85 C86 1.361 . S
C86 H70 0.942 . S
C86 C85 1.361 . S
C86 C87 1.369 . S
C87 C86 1.369 . S
C87 C88 1.404 . S
C88 H71 0.940 . S
C88 C87 1.404 . S
C88 C89 1.389 . S
C89 H72 0.939 . S
C89 C84 1.400 . S
C89 C88 1.389 . S
C90 P64 1.819 . S
C90 C91 1.391 . S
C90 C95 1.391 . S
C91 H73 0.941 . S
C91 C90 1.391 . S
C91 C92 1.396 . S
C92 H76 0.939 . S
C92 C91 1.396 . S
C92 C93 1.397 . S
C93 C92 1.397 . S
C93 C94 1.385 . S
C94 H77 0.940 . S
C94 C93 1.385 . S
C94 C95 1.388 . S
C95 H74 0.939 . S
C95 C90 1.391 . S
C95 C94 1.388 . S
P96 O107 1.490 . S
P96 C110 1.812 . S
P96 C116 1.803 . S
P96 C122 1.819 . S
H97 C111 0.941 . S
H98 C112 0.939 . S
H99 C114 0.940 . S
H100 C115 0.940 . S
H101 C117 0.939 . S
H102 C118 0.942 . S
H103 C120 0.940 . S
H104 C121 0.939 . S
H105 C123 0.941 . S
H106 C127 0.939 . S
O107 P96 1.490 . S
H108 C124 0.939 . S
H109 C126 0.940 . S
C110 P96 1.812 . S
C110 C111 1.389 . S
C110 C115 1.391 . S
C111 H97 0.941 . S
C111 C110 1.389 . S
C111 C112 1.397 . S
C112 H98 0.939 . S
C112 C111 1.397 . S
C112 C113 1.378 . S
C113 C112 1.378 . S
C113 C114 1.378 . S
C114 H99 0.940 . S
C114 C113 1.378 . S
C114 C115 1.396 . S
C115 H100 0.940 . S
C115 C110 1.391 . S
C115 C114 1.396 . S
C116 P96 1.803 . S
C116 C117 1.378 . S
C116 C121 1.400 . S
C117 H101 0.939 . S
C117 C116 1.378 . S
C117 C118 1.361 . S
C118 H102 0.942 . S
C118 C117 1.361 . S
C118 C119 1.369 . S
C119 C118 1.369 . S
C119 C120 1.404 . S
C120 H103 0.940 . S
C120 C119 1.404 . S
C120 C121 1.389 . S
C121 H104 0.939 . S
C121 C116 1.400 . S
C121 C120 1.389 . S
C122 P96 1.819 . S
C122 C123 1.391 . S
C122 C127 1.391 . S
C123 H105 0.941 . S
C123 C122 1.391 . S
C123 C124 1.396 . S
C124 H108 0.939 . S
C124 C123 1.396 . S
C124 C125 1.397 . S
C125 C124 1.397 . S
C125 C126 1.385 . S
C126 H109 0.940 . S
C126 C125 1.385 . S
C126 C127 1.388 . S
C127 H106 0.939 . S
C127 C122 1.391 . S
C127 C126 1.388 . S
P128 O139 1.490 . S
P128 C142 1.812 . S
P128 C148 1.803 . S
P128 C154 1.819 . S
H129 C143 0.941 . S
H130 C144 0.939 . S
H131 C146 0.940 . S
H132 C147 0.940 . S
H133 C149 0.939 . S
H134 C150 0.942 . S
H135 C152 0.940 . S
H136 C153 0.939 . S
H137 C155 0.941 . S
H138 C159 0.939 . S
O139 P128 1.490 . S
H140 C156 0.939 . S
H141 C158 0.940 . S
C142 P128 1.812 . S
C142 C143 1.389 . S
C142 C147 1.391 . S
C143 H129 0.941 . S
C143 C142 1.389 . S
C143 C144 1.397 . S
C144 H130 0.939 . S
C144 C143 1.397 . S
C144 C145 1.378 . S
C145 C144 1.378 . S
C145 C146 1.378 . S
C146 H131 0.940 . S
C146 C145 1.378 . S
C146 C147 1.396 . S
C147 H132 0.940 . S
C147 C142 1.391 . S
C147 C146 1.396 . S
C148 P128 1.803 . S
C148 C149 1.378 . S
C148 C153 1.400 . S
C149 H133 0.939 . S
C149 C148 1.378 . S
C149 C150 1.361 . S
C150 H134 0.942 . S
C150 C149 1.361 . S
C150 C151 1.369 . S
C151 C150 1.369 . S
C151 C152 1.404 . S
C152 H135 0.940 . S
C152 C151 1.404 . S
C152 C153 1.389 . S
C153 H136 0.939 . S
C153 C148 1.400 . S
C153 C152 1.389 . S
C154 P128 1.819 . S
C154 C155 1.391 . S
C154 C159 1.391 . S
C155 H137 0.941 . S
C155 C154 1.391 . S
C155 C156 1.396 . S
C156 H140 0.939 . S
C156 C155 1.396 . S
C156 C157 1.397 . S
C157 C156 1.397 . S
C157 C158 1.385 . S
C158 H141 0.940 . S
C158 C157 1.385 . S
C158 C159 1.388 . S
C159 H138 0.939 . S
C159 C154 1.391 . S
C159 C158 1.388 . S
P160 O171 1.490 . S
P160 C174 1.812 . S
P160 C180 1.803 . S
P160 C186 1.819 . S
H161 C175 0.941 . S
H162 C176 0.939 . S
H163 C178 0.940 . S
H164 C179 0.940 . S
H165 C181 0.939 . S
H166 C182 0.942 . S
H167 C184 0.940 . S
H168 C185 0.939 . S
H169 C187 0.941 . S
H170 C191 0.939 . S
O171 P160 1.490 . S
H172 C188 0.939 . S
H173 C190 0.940 . S
C174 P160 1.812 . S
C174 C175 1.389 . S
C174 C179 1.391 . S
C175 H161 0.941 . S
C175 C174 1.389 . S
C175 C176 1.397 . S
C176 H162 0.939 . S
C176 C175 1.397 . S
C176 C177 1.378 . S
C177 C176 1.378 . S
C177 C178 1.378 . S
C178 H163 0.940 . S
C178 C177 1.378 . S
C178 C179 1.396 . S
C179 H164 0.940 . S
C179 C174 1.391 . S
C179 C178 1.396 . S
C180 P160 1.803 . S
C180 C181 1.378 . S
C180 C185 1.400 . S
C181 H165 0.939 . S
C181 C180 1.378 . S
C181 C182 1.361 . S
C182 H166 0.942 . S
C182 C181 1.361 . S
C182 C183 1.369 . S
C183 C182 1.369 . S
C183 C184 1.404 . S
C184 H167 0.940 . S
C184 C183 1.404 . S
C184 C185 1.389 . S
C185 H168 0.939 . S
C185 C180 1.400 . S
C185 C184 1.389 . S
C186 P160 1.819 . S
C186 C187 1.391 . S
C186 C191 1.391 . S
C187 H169 0.941 . S
C187 C186 1.391 . S
C187 C188 1.396 . S
C188 H172 0.939 . S
C188 C187 1.396 . S
C188 C189 1.397 . S
C189 C188 1.397 . S
C189 C190 1.385 . S
C190 H173 0.940 . S
C190 C189 1.385 . S
C190 C191 1.388 . S
C191 H170 0.939 . S
C191 C186 1.391 . S
C191 C190 1.388 . S
P192 O203 1.490 . S
P192 C206 1.812 . S
P192 C212 1.803 . S
P192 C218 1.819 . S
H193 C207 0.941 . S
H194 C208 0.939 . S
H195 C210 0.940 . S
H196 C211 0.940 . S
H197 C213 0.939 . S
H198 C214 0.942 . S
H199 C216 0.940 . S
H200 C217 0.939 . S
H201 C219 0.941 . S
H202 C223 0.939 . S
O203 P192 1.490 . S
H204 C220 0.939 . S
H205 C222 0.940 . S
C206 P192 1.812 . S
C206 C207 1.389 . S
C206 C211 1.391 . S
C207 H193 0.941 . S
C207 C206 1.389 . S
C207 C208 1.397 . S
C208 H194 0.939 . S
C208 C207 1.397 . S
C208 C209 1.378 . S
C209 C208 1.378 . S
C209 C210 1.378 . S
C210 H195 0.940 . S
C210 C209 1.378 . S
C210 C211 1.396 . S
C211 H196 0.940 . S
C211 C206 1.391 . S
C211 C210 1.396 . S
C212 P192 1.803 . S
C212 C213 1.378 . S
C212 C217 1.400 . S
C213 H197 0.939 . S
C213 C212 1.378 . S
C213 C214 1.361 . S
C214 H198 0.942 . S
C214 C213 1.361 . S
C214 C215 1.369 . S
C215 C214 1.369 . S
C215 C216 1.404 . S
C216 H199 0.940 . S
C216 C215 1.404 . S
C216 C217 1.389 . S
C217 H200 0.939 . S
C217 C212 1.400 . S
C217 C216 1.389 . S
C218 P192 1.819 . S
C218 C219 1.391 . S
C218 C223 1.391 . S
C219 H201 0.941 . S
C219 C218 1.391 . S
C219 C220 1.396 . S
C220 H204 0.939 . S
C220 C219 1.396 . S
C220 C221 1.397 . S
C221 C220 1.397 . S
C221 C222 1.385 . S
C222 H205 0.940 . S
C222 C221 1.385 . S
C222 C223 1.388 . S
C223 H202 0.939 . S
C223 C218 1.391 . S
C223 C222 1.388 . S
P224 O235 1.490 . S
P224 C238 1.812 . S
P224 C244 1.803 . S
P224 C250 1.819 . S
H225 C239 0.941 . S
H226 C240 0.939 . S
H227 C242 0.940 . S
H228 C243 0.940 . S
H229 C245 0.939 . S
H230 C246 0.942 . S
H231 C248 0.940 . S
H232 C249 0.939 . S
H233 C251 0.941 . S
H234 C255 0.939 . S
O235 P224 1.490 . S
H236 C252 0.939 . S
H237 C254 0.940 . S
C238 P224 1.812 . S
C238 C239 1.389 . S
C238 C243 1.391 . S
C239 H225 0.941 . S
C239 C238 1.389 . S
C239 C240 1.397 . S
C240 H226 0.939 . S
C240 C239 1.397 . S
C240 C241 1.378 . S
C241 C240 1.378 . S
C241 C242 1.378 . S
C242 H227 0.940 . S
C242 C241 1.378 . S
C242 C243 1.396 . S
C243 H228 0.940 . S
C243 C238 1.391 . S
C243 C242 1.396 . S
C244 P224 1.803 . S
C244 C245 1.378 . S
C244 C249 1.400 . S
C245 H229 0.939 . S
C245 C244 1.378 . S
C245 C246 1.361 . S
C246 H230 0.942 . S
C246 C245 1.361 . S
C246 C247 1.369 . S
C247 C246 1.369 . S
C247 C248 1.404 . S
C248 H231 0.940 . S
C248 C247 1.404 . S
C248 C249 1.389 . S
C249 H232 0.939 . S
C249 C244 1.400 . S
C249 C248 1.389 . S
C250 P224 1.819 . S
C250 C251 1.391 . S
C250 C255 1.391 . S
C251 H233 0.941 . S
C251 C250 1.391 . S
C251 C252 1.396 . S
C252 H236 0.939 . S
C252 C251 1.396 . S
C252 C253 1.397 . S
C253 C252 1.397 . S
C253 C254 1.385 . S
C254 H237 0.940 . S
C254 C253 1.385 . S
C254 C255 1.388 . S
C255 H234 0.939 . S
C255 C250 1.391 . S
C255 C254 1.388 . S
Pr256 C258 2.880 . S
Pr256 O276 2.562 . S
Pr256 O277 2.490 . S
Pr256 O278 2.695 1_665 S
Pr256 O279 2.512 1_665 S
Pr256 O281 2.437 1_655 S
Pr256 O284 2.436 . S
Pr256 O286 2.438 1_565 S
Pr257 C267 2.880 . S
Pr257 O278 2.436 . S
Pr257 O280 2.438 1_545 S
Pr257 O282 2.562 . S
Pr257 O283 2.490 . S
Pr257 O284 2.695 1_445 S
Pr257 O285 2.512 1_545 S
Pr257 O287 2.437 1_455 S
C258 Pr256 2.880 . S
C258 C259 1.491 . S
C258 O276 1.254 . S
C258 O277 1.225 . S
C259 C258 1.491 . S
C259 C260 1.392 . S
C259 C264 1.356 . S
C260 C259 1.392 . S
C260 C261 1.368 . S
C260 H288 0.929 . S
C261 C260 1.368 . S
C261 C262 1.386 . S
C261 H289 0.929 . S
C262 C261 1.386 . S
C262 C263 1.373 . S
C263 C262 1.373 . S
C263 C264 1.409 . S
C263 H290 0.931 . S
C264 C259 1.356 . S
C264 C263 1.409 . S
C264 H291 0.930 . S
C265 O278 1.270 . S
C265 O279 1.248 . S
C266 O280 1.267 . S
C266 O281 1.278 . S
C267 Pr257 2.880 . S
C267 C268 1.491 . S
C267 O282 1.254 . S
C267 O283 1.225 . S
C268 C267 1.491 . S
C268 C269 1.392 . S
C268 C273 1.356 . S
C269 C268 1.392 . S
C269 C270 1.368 . S
C269 H292 0.929 . S
C270 C269 1.368 . S
C270 C271 1.386 . S
C270 H293 0.929 . S
C271 C270 1.386 . S
C271 C272 1.373 . S
C272 C271 1.373 . S
C272 C273 1.409 . S
C272 H294 0.931 . S
C273 C268 1.356 . S
C273 C272 1.409 . S
C273 H295 0.930 . S
C274 O284 1.270 . S
C274 O285 1.248 1_655 S
C275 O286 1.267 . S
C275 O287 1.278 . S
O276 Pr256 2.562 . S
O276 C258 1.254 . S
O277 Pr256 2.490 . S
O277 C258 1.225 . S
O278 Pr256 2.695 1_445 S
O278 Pr257 2.436 . S
O278 C265 1.270 . S
O279 Pr256 2.512 1_445 S
O279 C265 1.248 . S
O280 Pr257 2.438 1_565 S
O280 C266 1.267 . S
O281 Pr256 2.437 1_455 S
O281 C266 1.278 . S
O282 Pr257 2.562 . S
O282 C267 1.254 . S
O283 Pr257 2.490 . S
O283 C267 1.225 . S
O284 Pr256 2.436 . S
O284 Pr257 2.695 1_665 S
O284 C274 1.270 . S
O285 Pr257 2.512 1_565 S
O285 C274 1.248 1_455 S
O286 Pr256 2.438 1_545 S
O286 C275 1.267 . S
O287 Pr257 2.437 1_655 S
O287 C275 1.278 . S
H288 C260 0.929 . S
H289 C261 0.929 . S
H290 C263 0.931 . S
H291 C264 0.930 . S
H292 C269 0.929 . S
H293 C270 0.929 . S
H294 C272 0.931 . S
H295 C273 0.930 . S
Pr296 C298 2.880 . S
Pr296 O316 2.562 . S
Pr296 O317 2.490 . S
Pr296 O318 2.695 1_554 S
Pr296 O319 2.512 1_554 S
Pr296 O321 2.437 . S
Pr296 O324 2.436 1_545 S
Pr296 O326 2.438 1_544 S
Pr297 C307 2.880 1_554 S
Pr297 O318 2.436 1_564 S
Pr297 O320 2.438 1_565 S
Pr297 O322 2.562 1_554 S
Pr297 O323 2.490 1_554 S
Pr297 O324 2.695 . S
Pr297 O325 2.512 . S
Pr297 O327 2.437 1_554 S
C298 Pr296 2.880 . S
C298 C299 1.491 . S
C298 O316 1.254 . S
C298 O317 1.225 . S
C299 C298 1.491 . S
C299 C300 1.392 . S
C299 C304 1.356 . S
C300 C299 1.392 . S
C300 C301 1.368 . S
C300 H328 0.929 . S
C301 C300 1.368 . S
C301 C302 1.386 . S
C301 H329 0.929 . S
C302 C301 1.386 . S
C302 C303 1.373 . S
C303 C302 1.373 . S
C303 C304 1.409 . S
C303 H330 0.931 . S
C304 C299 1.356 . S
C304 C303 1.409 . S
C304 H331 0.930 . S
C305 O318 1.270 . S
C305 O319 1.248 . S
C306 O320 1.267 . S
C306 O321 1.278 . S
C307 Pr297 2.880 1_556 S
C307 C308 1.491 . S
C307 O322 1.254 . S
C307 O323 1.225 . S
C308 C307 1.491 . S
C308 C309 1.392 . S
C308 C313 1.356 . S
C309 C308 1.392 . S
C309 C310 1.368 . S
C309 H332 0.929 . S
C310 C309 1.368 . S
C310 C311 1.386 . S
C310 H333 0.929 . S
C311 C310 1.386 . S
C311 C312 1.373 . S
C312 C311 1.373 . S
C312 C313 1.409 . S
C312 H334 0.931 . S
C313 C308 1.356 . S
C313 C312 1.409 . S
C313 H335 0.930 . S
C314 O324 1.270 . S
C314 O325 1.248 . S
C315 O326 1.267 . S
C315 O327 1.278 . S
O316 Pr296 2.562 . S
O316 C298 1.254 . S
O317 Pr296 2.490 . S
O317 C298 1.225 . S
O318 Pr296 2.695 1_556 S
O318 Pr297 2.436 1_546 S
O318 C305 1.270 . S
O319 Pr296 2.512 1_556 S
O319 C305 1.248 . S
O320 Pr297 2.438 1_545 S
O320 C306 1.267 . S
O321 Pr296 2.437 . S
O321 C306 1.278 . S
O322 Pr297 2.562 1_556 S
O322 C307 1.254 . S
O323 Pr297 2.490 1_556 S
O323 C307 1.225 . S
O324 Pr296 2.436 1_565 S
O324 Pr297 2.695 . S
O324 C314 1.270 . S
O325 Pr297 2.512 . S
O325 C314 1.248 . S
O326 Pr296 2.438 1_566 S
O326 C315 1.267 . S
O327 Pr297 2.437 1_556 S
O327 C315 1.278 . S
H328 C300 0.929 . S
H329 C301 0.929 . S
H330 C303 0.931 . S
H331 C304 0.930 . S
H332 C309 0.929 . S
H333 C310 0.929 . S
H334 C312 0.931 . S
H335 C313 0.930 . S
Pr336 C338 2.880 . S
Pr336 O356 2.562 . S
Pr336 O357 2.490 . S
Pr336 O358 2.695 . S
Pr336 O359 2.512 . S
Pr336 O361 2.437 . S
Pr336 O364 2.436 . S
Pr336 O366 2.438 . S
Pr337 C347 2.880 . S
Pr337 O358 2.436 . S
Pr337 O360 2.438 . S
Pr337 O362 2.562 . S
Pr337 O363 2.490 . S
Pr337 O364 2.695 . S
Pr337 O365 2.512 . S
Pr337 O367 2.437 . S
C338 Pr336 2.880 . S
C338 C339 1.491 . S
C338 O356 1.254 . S
C338 O357 1.225 . S
C339 C338 1.491 . S
C339 C340 1.392 . S
C339 C344 1.356 . S
C340 C339 1.392 . S
C340 C341 1.368 . S
C340 H368 0.929 . S
C341 C340 1.368 . S
C341 C342 1.386 . S
C341 H369 0.929 . S
C342 C341 1.386 . S
C342 C343 1.373 . S
C343 C342 1.373 . S
C343 C344 1.409 . S
C343 H370 0.931 . S
C344 C339 1.356 . S
C344 C343 1.409 . S
C344 H371 0.930 . S
C345 O358 1.270 . S
C345 O359 1.248 . S
C346 O360 1.267 . S
C346 O361 1.278 . S
C347 Pr337 2.880 . S
C347 C348 1.491 . S
C347 O362 1.254 . S
C347 O363 1.225 . S
C348 C347 1.491 . S
C348 C349 1.392 . S
C348 C353 1.356 . S
C349 C348 1.392 . S
C349 C350 1.368 . S
C349 H372 0.929 . S
C350 C349 1.368 . S
C350 C351 1.386 . S
C350 H373 0.929 . S
C351 C350 1.386 . S
C351 C352 1.373 . S
C352 C351 1.373 . S
C352 C353 1.409 . S
C352 H374 0.931 . S
C353 C348 1.356 . S
C353 C352 1.409 . S
C353 H375 0.930 . S
C354 O364 1.270 . S
C354 O365 1.248 . S
C355 O366 1.267 . S
C355 O367 1.278 . S
O356 Pr336 2.562 . S
O356 C338 1.254 . S
O357 Pr336 2.490 . S
O357 C338 1.225 . S
O358 Pr336 2.695 . S
O358 Pr337 2.436 . S
O358 C345 1.270 . S
O359 Pr336 2.512 . S
O359 C345 1.248 . S
O360 Pr337 2.438 . S
O360 C346 1.267 . S
O361 Pr336 2.437 . S
O361 C346 1.278 . S
O362 Pr337 2.562 . S
O362 C347 1.254 . S
O363 Pr337 2.490 . S
O363 C347 1.225 . S
O364 Pr336 2.436 . S
O364 Pr337 2.695 . S
O364 C354 1.270 . S
O365 Pr337 2.512 . S
O365 C354 1.248 . S
O366 Pr336 2.438 . S
O366 C355 1.267 . S
O367 Pr337 2.437 . S
O367 C355 1.278 . S
H368 C340 0.929 . S
H369 C341 0.929 . S
H370 C343 0.931 . S
H371 C344 0.930 . S
H372 C349 0.929 . S
H373 C350 0.929 . S
H374 C352 0.931 . S
H375 C353 0.930 . S
Pr376 C378 2.884 1_455 S
Pr376 O396 2.567 1_455 S
Pr376 O397 2.492 1_455 S
Pr376 O398 2.692 1_556 S
Pr376 O399 2.509 1_556 S
Pr376 O401 2.440 1_456 S
Pr376 O404 2.438 1_455 S
Pr376 O406 2.434 . S
Pr377 C387 2.880 . S
Pr377 O398 2.436 . S
Pr377 O400 2.438 1_455 S
Pr377 O402 2.562 . S
Pr377 O403 2.490 . S
Pr377 O404 2.695 1_454 S
Pr377 O405 2.512 1_454 S
Pr377 O407 2.437 1_554 S
C378 Pr376 2.884 1_655 S
C378 C379 1.491 . S
C378 O396 1.254 . S
C378 O397 1.225 . S
C379 C378 1.491 . S
C379 C380 1.392 . S
C379 C384 1.356 . S
C380 C379 1.392 . S
C380 C381 1.368 . S
C380 H408 0.929 . S
C381 C380 1.368 . S
C381 C382 1.386 . S
C381 H409 0.929 . S
C382 C381 1.386 . S
C382 C383 1.373 . S
C383 C382 1.373 . S
C383 C384 1.409 . S
C383 H410 0.931 . S
C384 C379 1.356 . S
C384 C383 1.409 . S
C384 H411 0.930 . S
C385 O398 1.270 . S
C385 O399 1.248 . S
C386 O400 1.267 . S
C386 O401 1.278 . S
C387 Pr377 2.880 . S
C387 C388 1.491 . S
C387 O402 1.254 . S
C387 O403 1.225 . S
C388 C387 1.491 . S
C388 C389 1.392 . S
C388 C393 1.356 . S
C389 C388 1.392 . S
C389 C390 1.368 . S
C389 H412 0.929 . S
C390 C389 1.368 . S
C390 C391 1.386 . S
C390 H413 0.929 . S
C391 C390 1.386 . S
C391 C392 1.373 . S
C392 C391 1.373 . S
C392 C393 1.409 . S
C392 H414 0.931 . S
C393 C388 1.356 . S
C393 C392 1.409 . S
C393 H415 0.930 . S
C394 O404 1.270 . S
C394 O405 1.248 . S
C395 O406 1.267 . S
C395 O407 1.278 . S
O396 Pr376 2.567 1_655 S
O396 C378 1.254 . S
O397 Pr376 2.492 1_655 S
O397 C378 1.225 . S
O398 Pr376 2.692 1_554 S
O398 Pr377 2.436 . S
O398 C385 1.270 . S
O399 Pr376 2.509 1_554 S
O399 C385 1.248 . S
O400 Pr377 2.438 1_655 S
O400 C386 1.267 . S
O401 Pr376 2.440 1_654 S
O401 C386 1.278 . S
O402 Pr377 2.562 . S
O402 C387 1.254 . S
O403 Pr377 2.490 . S
O403 C387 1.225 . S
O404 Pr376 2.438 1_655 S
O404 Pr377 2.695 1_656 S
O404 C394 1.270 . S
O405 Pr377 2.512 1_656 S
O405 C394 1.248 . S
O406 Pr376 2.434 . S
O406 C395 1.267 . S
O407 Pr377 2.437 1_556 S
O407 C395 1.278 . S
H408 C380 0.929 . S
H409 C381 0.929 . S
H410 C383 0.931 . S
H411 C384 0.930 . S
H412 C389 0.929 . S
H413 C390 0.929 . S
H414 C392 0.931 . S
H415 C393 0.930 . S
H416 C434 0.951 . S
H417 C436 0.951 . S
H418 C438 0.950 . S
H419 C439 0.950 . S
H420 C441 0.950 . S
H421 C444 0.950 . S
H422 C445 0.950 . S
H423 C447 0.950 . S
H424 C448 0.950 . S
H425 C449 0.951 . S
H426 C451 0.951 . S
H427 C453 0.950 . S
H428 C454 0.950 . S
H429 C456 0.950 . S
H430 C459 0.950 . S
H431 C460 0.950 . S
H432 C462 0.950 . S
H433 C463 0.950 . S
C434 H416 0.951 . S
C434 C435 1.366 . S
C434 C436 1.388 . S
C435 C434 1.366 . S
C435 C439 1.385 . S
C436 H417 0.951 . S
C436 C434 1.388 . S
C436 C437 1.366 . S
C437 C436 1.366 . S
C437 C438 1.414 . S
C437 C440 1.499 . S
C438 H418 0.950 . S
C438 C437 1.414 . S
C438 C439 1.374 . S
C439 H419 0.950 . S
C439 C435 1.385 . S
C439 C438 1.374 . S
C440 C437 1.499 . S
C440 C441 1.373 . S
C440 C442 1.389 . S
C441 H420 0.950 . S
C441 C440 1.373 . S
C441 C457 1.377 . S
C442 C440 1.389 . S
C442 C443 1.524 . S
C442 C456 1.377 . S
C443 C442 1.524 . S
C443 C444 1.397 . S
C443 C448 1.363 . S
C444 H421 0.950 . S
C444 C443 1.397 . S
C444 C445 1.334 . S
C445 H422 0.950 . S
C445 C444 1.334 . S
C445 C446 1.287 . S
C446 C445 1.287 . S
C446 C447 1.524 . S
C446 H465 0.913 . S
C447 H423 0.950 . S
C447 C446 1.524 . S
C447 C448 1.415 . S
C448 H424 0.950 . S
C448 C443 1.363 . S
C448 C447 1.415 . S
C449 H425 0.951 . S
C449 C450 1.366 . S
C449 C451 1.388 . S
C450 C449 1.366 . S
C450 C454 1.385 . S
C451 H426 0.951 . S
C451 C449 1.388 . S
C451 C452 1.366 . S
C452 C451 1.366 . S
C452 C453 1.414 . S
C452 C455 1.499 . S
C453 H427 0.950 . S
C453 C452 1.414 . S
C453 C454 1.374 . S
C454 H428 0.950 . S
C454 C450 1.385 . S
C454 C453 1.374 . S
C455 C452 1.499 . S
C455 C456 1.373 . S
C455 C457 1.389 . S
C456 H429 0.950 . S
C456 C442 1.377 . S
C456 C455 1.373 . S
C457 C441 1.377 . S
C457 C455 1.389 . S
C457 C458 1.524 . S
C458 C457 1.524 . S
C458 C459 1.397 . S
C458 C463 1.363 . S
C459 H430 0.950 . S
C459 C458 1.397 . S
C459 C460 1.334 . S
C460 H431 0.950 . S
C460 C459 1.334 . S
C460 C461 1.287 . S
C461 C460 1.287 . S
C461 C462 1.524 . S
C461 H464 0.999 . S
C462 H432 0.950 . S
C462 C461 1.524 . S
C462 C463 1.415 . S
C463 H433 0.950 . S
C463 C458 1.363 . S
C463 C462 1.415 . S
H464 C461 0.999 . S
H465 C446 0.913 . S
H466 C484 0.951 . S
H467 C486 0.951 . S
H468 C488 0.950 . S
H469 C489 0.950 . S
H470 C491 0.950 . S
H471 C494 0.950 . S
H472 C495 0.950 . S
H473 C497 0.950 . S
H474 C498 0.950 . S
H475 C499 0.951 . S
H476 C501 0.951 . S
H477 C503 0.950 . S
H478 C504 0.950 . S
H479 C506 0.950 . S
H480 C509 0.950 . S
H481 C510 0.950 . S
H482 C512 0.950 . S
H483 C513 0.950 . S
C484 H466 0.951 . S
C484 C485 1.366 . S
C484 C486 1.388 . S
C485 C484 1.366 . S
C485 C489 1.385 . S
C486 H467 0.951 . S
C486 C484 1.388 . S
C486 C487 1.366 . S
C487 C486 1.366 . S
C487 C488 1.414 . S
C487 C490 1.499 . S
C488 H468 0.950 . S
C488 C487 1.414 . S
C488 C489 1.374 . S
C489 H469 0.950 . S
C489 C485 1.385 . S
C489 C488 1.374 . S
C490 C487 1.499 . S
C490 C491 1.373 . S
C490 C492 1.389 . S
C491 H470 0.950 . S
C491 C490 1.373 . S
C491 C507 1.377 . S
C492 C490 1.389 . S
C492 C493 1.524 . S
C492 C506 1.377 . S
C493 C492 1.524 . S
C493 C494 1.397 . S
C493 C498 1.363 . S
C494 H471 0.950 . S
C494 C493 1.397 . S
C494 C495 1.334 . S
C495 H472 0.950 . S
C495 C494 1.334 . S
C495 C496 1.287 . S
C496 C495 1.287 . S
C496 C497 1.524 . S
C496 H515 0.913 . S
C497 H473 0.950 . S
C497 C496 1.524 . S
C497 C498 1.415 . S
C498 H474 0.950 . S
C498 C493 1.363 . S
C498 C497 1.415 . S
C499 H475 0.951 . S
C499 C500 1.366 . S
C499 C501 1.388 . S
C500 C499 1.366 . S
C500 C504 1.385 . S
C501 H476 0.951 . S
C501 C499 1.388 . S
C501 C502 1.366 . S
C502 C501 1.366 . S
C502 C503 1.414 . S
C502 C505 1.499 . S
C503 H477 0.950 . S
C503 C502 1.414 . S
C503 C504 1.374 . S
C504 H478 0.950 . S
C504 C500 1.385 . S
C504 C503 1.374 . S
C505 C502 1.499 . S
C505 C506 1.373 . S
C505 C507 1.389 . S
C506 H479 0.950 . S
C506 C492 1.377 . S
C506 C505 1.373 . S
C507 C491 1.377 . S
C507 C505 1.389 . S
C507 C508 1.524 . S
C508 C507 1.524 . S
C508 C509 1.397 . S
C508 C513 1.363 . S
C509 H480 0.950 . S
C509 C508 1.397 . S
C509 C510 1.334 . S
C510 H481 0.950 . S
C510 C509 1.334 . S
C510 C511 1.287 . S
C511 C510 1.287 . S
C511 C512 1.524 . S
C511 H514 0.999 . S
C512 H482 0.950 . S
C512 C511 1.524 . S
C512 C513 1.415 . S
C513 H483 0.950 . S
C513 C508 1.363 . S
C513 C512 1.415 . S
H514 C511 0.999 . S
H515 C496 0.913 . S
H516 C534 0.951 . S
H517 C536 0.951 . S
H518 C538 0.950 . S
H519 C539 0.950 . S
H520 C541 0.950 . S
H521 C544 0.950 . S
H522 C545 0.950 . S
H523 C547 0.950 . S
H524 C548 0.950 . S
H525 C549 0.951 . S
H526 C551 0.951 . S
H527 C553 0.950 . S
H528 C554 0.950 . S
H529 C556 0.950 . S
H530 C559 0.950 . S
H531 C560 0.950 . S
H532 C562 0.950 . S
H533 C563 0.950 . S
C534 H516 0.951 . S
C534 C535 1.366 . S
C534 C536 1.388 . S
C535 C534 1.366 . S
C535 C539 1.385 . S
C536 H517 0.951 . S
C536 C534 1.388 . S
C536 C537 1.366 . S
C537 C536 1.366 . S
C537 C538 1.414 . S
C537 C540 1.499 . S
C538 H518 0.950 . S
C538 C537 1.414 . S
C538 C539 1.374 . S
C539 H519 0.950 . S
C539 C535 1.385 . S
C539 C538 1.374 . S
C540 C537 1.499 . S
C540 C541 1.373 . S
C540 C542 1.389 . S
C541 H520 0.950 . S
C541 C540 1.373 . S
C541 C557 1.377 . S
C542 C540 1.389 . S
C542 C543 1.524 . S
C542 C556 1.377 . S
C543 C542 1.524 . S
C543 C544 1.397 . S
C543 C548 1.363 . S
C544 H521 0.950 . S
C544 C543 1.397 . S
C544 C545 1.334 . S
C545 H522 0.950 . S
C545 C544 1.334 . S
C545 C546 1.287 . S
C546 C545 1.287 . S
C546 C547 1.524 . S
C546 H565 0.913 . S
C547 H523 0.950 . S
C547 C546 1.524 . S
C547 C548 1.415 . S
C548 H524 0.950 . S
C548 C543 1.363 . S
C548 C547 1.415 . S
C549 H525 0.951 . S
C549 C550 1.366 . S
C549 C551 1.388 . S
C550 C549 1.366 . S
C550 C554 1.385 . S
C551 H526 0.951 . S
C551 C549 1.388 . S
C551 C552 1.366 . S
C552 C551 1.366 . S
C552 C553 1.414 . S
C552 C555 1.499 . S
C553 H527 0.950 . S
C553 C552 1.414 . S
C553 C554 1.374 . S
C554 H528 0.950 . S
C554 C550 1.385 . S
C554 C553 1.374 . S
C555 C552 1.499 . S
C555 C556 1.373 . S
C555 C557 1.389 . S
C556 H529 0.950 . S
C556 C542 1.377 . S
C556 C555 1.373 . S
C557 C541 1.377 . S
C557 C555 1.389 . S
C557 C558 1.524 . S
C558 C557 1.524 . S
C558 C559 1.397 . S
C558 C563 1.363 . S
C559 H530 0.950 . S
C559 C558 1.397 . S
C559 C560 1.334 . S
C560 H531 0.950 . S
C560 C559 1.334 . S
C560 C561 1.287 . S
C561 C560 1.287 . S
C561 C562 1.524 . S
C561 H564 0.999 . S
C562 H532 0.950 . S
C562 C561 1.524 . S
C562 C563 1.415 . S
C563 H533 0.950 . S
C563 C558 1.363 . S
C563 C562 1.415 . S
H564 C561 0.999 . S
H565 C546 0.913 . S
H566 C584 0.951 . S
H567 C586 0.951 . S
H568 C588 0.950 . S
H569 C589 0.950 . S
H570 C591 0.950 . S
H571 C594 0.950 . S
H572 C595 0.950 . S
H573 C597 0.950 . S
H574 C598 0.950 . S
H575 C599 0.951 . S
H576 C601 0.951 . S
H577 C603 0.950 . S
H578 C604 0.950 . S
H579 C606 0.950 . S
H580 C609 0.950 . S
H581 C610 0.950 . S
H582 C612 0.950 . S
H583 C613 0.950 . S
C584 H566 0.951 . S
C584 C585 1.366 . S
C584 C586 1.388 . S
C585 C584 1.366 . S
C585 C589 1.385 . S
C586 H567 0.951 . S
C586 C584 1.388 . S
C586 C587 1.366 . S
C587 C586 1.366 . S
C587 C588 1.414 . S
C587 C590 1.499 . S
C588 H568 0.950 . S
C588 C587 1.414 . S
C588 C589 1.374 . S
C589 H569 0.950 . S
C589 C585 1.385 . S
C589 C588 1.374 . S
C590 C587 1.499 . S
C590 C591 1.373 . S
C590 C592 1.389 . S
C591 H570 0.950 . S
C591 C590 1.373 . S
C591 C607 1.377 . S
C592 C590 1.389 . S
C592 C593 1.524 . S
C592 C606 1.377 . S
C593 C592 1.524 . S
C593 C594 1.397 . S
C593 C598 1.363 . S
C594 H571 0.950 . S
C594 C593 1.397 . S
C594 C595 1.334 . S
C595 H572 0.950 . S
C595 C594 1.334 . S
C595 C596 1.287 . S
C596 C595 1.287 . S
C596 C597 1.524 . S
C596 H615 0.913 . S
C597 H573 0.950 . S
C597 C596 1.524 . S
C597 C598 1.415 . S
C598 H574 0.950 . S
C598 C593 1.363 . S
C598 C597 1.415 . S
C599 H575 0.951 . S
C599 C600 1.366 . S
C599 C601 1.388 . S
C600 C599 1.366 . S
C600 C604 1.385 . S
C601 H576 0.951 . S
C601 C599 1.388 . S
C601 C602 1.366 . S
C602 C601 1.366 . S
C602 C603 1.414 . S
C602 C605 1.499 . S
C603 H577 0.950 . S
C603 C602 1.414 . S
C603 C604 1.374 . S
C604 H578 0.950 . S
C604 C600 1.385 . S
C604 C603 1.374 . S
C605 C602 1.499 . S
C605 C606 1.373 . S
C605 C607 1.389 . S
C606 H579 0.950 . S
C606 C592 1.377 . S
C606 C605 1.373 . S
C607 C591 1.377 . S
C607 C605 1.389 . S
C607 C608 1.524 . S
C608 C607 1.524 . S
C608 C609 1.397 . S
C608 C613 1.363 . S
C609 H580 0.950 . S
C609 C608 1.397 . S
C609 C610 1.334 . S
C610 H581 0.950 . S
C610 C609 1.334 . S
C610 C611 1.287 . S
C611 C610 1.287 . S
C611 C612 1.524 . S
C611 H614 0.999 . S
C612 H582 0.950 . S
C612 C611 1.524 . S
C612 C613 1.415 . S
C613 H583 0.950 . S
C613 C608 1.363 . S
C613 C612 1.415 . S
H614 C611 0.999 . S
H615 C596 0.913 . S
H616 C634 0.951 . S
H617 C636 0.951 . S
H618 C638 0.950 . S
H619 C639 0.950 . S
H620 C641 0.950 . S
H621 C644 0.950 . S
H622 C645 0.950 . S
H623 C647 0.950 . S
H624 C648 0.950 . S
H625 C649 0.951 . S
H626 C651 0.951 . S
H627 C653 0.950 . S
H628 C654 0.950 . S
H629 C656 0.950 . S
H630 C659 0.950 . S
H631 C660 0.950 . S
H632 C662 0.950 . S
H633 C663 0.950 . S
C634 H616 0.951 . S
C634 C635 1.366 . S
C634 C636 1.388 . S
C635 C634 1.366 . S
C635 C639 1.385 . S
C636 H617 0.951 . S
C636 C634 1.388 . S
C636 C637 1.366 . S
C637 C636 1.366 . S
C637 C638 1.414 . S
C637 C640 1.499 . S
C638 H618 0.950 . S
C638 C637 1.414 . S
C638 C639 1.374 . S
C639 H619 0.950 . S
C639 C635 1.385 . S
C639 C638 1.374 . S
C640 C637 1.499 . S
C640 C641 1.373 . S
C640 C642 1.389 . S
C641 H620 0.950 . S
C641 C640 1.373 . S
C641 C657 1.377 . S
C642 C640 1.389 . S
C642 C643 1.524 . S
C642 C656 1.377 . S
C643 C642 1.524 . S
C643 C644 1.397 . S
C643 C648 1.363 . S
C644 H621 0.950 . S
C644 C643 1.397 . S
C644 C645 1.334 . S
C645 H622 0.950 . S
C645 C644 1.334 . S
C645 C646 1.287 . S
C646 C645 1.287 . S
C646 C647 1.524 . S
C646 H665 0.913 . S
C647 H623 0.950 . S
C647 C646 1.524 . S
C647 C648 1.415 . S
C648 H624 0.950 . S
C648 C643 1.363 . S
C648 C647 1.415 . S
C649 H625 0.951 . S
C649 C650 1.366 . S
C649 C651 1.388 . S
C650 C649 1.366 . S
C650 C654 1.385 . S
C651 H626 0.951 . S
C651 C649 1.388 . S
C651 C652 1.366 . S
C652 C651 1.366 . S
C652 C653 1.414 . S
C652 C655 1.499 . S
C653 H627 0.950 . S
C653 C652 1.414 . S
C653 C654 1.374 . S
C654 H628 0.950 . S
C654 C650 1.385 . S
C654 C653 1.374 . S
C655 C652 1.499 . S
C655 C656 1.373 . S
C655 C657 1.389 . S
C656 H629 0.950 . S
C656 C642 1.377 . S
C656 C655 1.373 . S
C657 C641 1.377 . S
C657 C655 1.389 . S
C657 C658 1.524 . S
C658 C657 1.524 . S
C658 C659 1.397 . S
C658 C663 1.363 . S
C659 H630 0.950 . S
C659 C658 1.397 . S
C659 C660 1.334 . S
C660 H631 0.950 . S
C660 C659 1.334 . S
C660 C661 1.287 . S
C661 C660 1.287 . S
C661 C662 1.524 . S
C661 H664 0.999 . S
C662 H632 0.950 . S
C662 C661 1.524 . S
C662 C663 1.415 . S
C663 H633 0.950 . S
C663 C658 1.363 . S
C663 C662 1.415 . S
H664 C661 0.999 . S
H665 C646 0.913 . S
H666 C684 0.951 . S
H667 C686 0.951 . S
H668 C688 0.950 . S
H669 C689 0.950 . S
H670 C691 0.950 . S
H671 C694 0.950 . S
H672 C695 0.950 . S
H673 C697 0.950 . S
H674 C698 0.950 . S
H675 C699 0.951 . S
H676 C701 0.951 . S
H677 C703 0.950 . S
H678 C704 0.950 . S
H679 C706 0.950 . S
H680 C709 0.950 . S
H681 C710 0.950 . S
H682 C712 0.950 . S
H683 C713 0.950 . S
C684 H666 0.951 . S
C684 C685 1.366 . S
C684 C686 1.388 . S
C685 C684 1.366 . S
C685 C689 1.385 . S
C686 H667 0.951 . S
C686 C684 1.388 . S
C686 C687 1.366 . S
C687 C686 1.366 . S
C687 C688 1.414 . S
C687 C690 1.499 . S
C688 H668 0.950 . S
C688 C687 1.414 . S
C688 C689 1.374 . S
C689 H669 0.950 . S
C689 C685 1.385 . S
C689 C688 1.374 . S
C690 C687 1.499 . S
C690 C691 1.373 . S
C690 C692 1.389 . S
C691 H670 0.950 . S
C691 C690 1.373 . S
C691 C707 1.377 . S
C692 C690 1.389 . S
C692 C693 1.524 . S
C692 C706 1.377 . S
C693 C692 1.524 . S
C693 C694 1.397 . S
C693 C698 1.363 . S
C694 H671 0.950 . S
C694 C693 1.397 . S
C694 C695 1.334 . S
C695 H672 0.950 . S
C695 C694 1.334 . S
C695 C696 1.287 . S
C696 C695 1.287 . S
C696 C697 1.524 . S
C696 H715 0.913 . S
C697 H673 0.950 . S
C697 C696 1.524 . S
C697 C698 1.415 . S
C698 H674 0.950 . S
C698 C693 1.363 . S
C698 C697 1.415 . S
C699 H675 0.951 . S
C699 C700 1.366 . S
C699 C701 1.388 . S
C700 C699 1.366 . S
C700 C704 1.385 . S
C701 H676 0.951 . S
C701 C699 1.388 . S
C701 C702 1.366 . S
C702 C701 1.366 . S
C702 C703 1.414 . S
C702 C705 1.499 . S
C703 H677 0.950 . S
C703 C702 1.414 . S
C703 C704 1.374 . S
C704 H678 0.950 . S
C704 C700 1.385 . S
C704 C703 1.374 . S
C705 C702 1.499 . S
C705 C706 1.373 . S
C705 C707 1.389 . S
C706 H679 0.950 . S
C706 C692 1.377 . S
C706 C705 1.373 . S
C707 C691 1.377 . S
C707 C705 1.389 . S
C707 C708 1.524 . S
C708 C707 1.524 . S
C708 C709 1.397 . S
C708 C713 1.363 . S
C709 H680 0.950 . S
C709 C708 1.397 . S
C709 C710 1.334 . S
C710 H681 0.950 . S
C710 C709 1.334 . S
C710 C711 1.287 . S
C711 C710 1.287 . S
C711 C712 1.524 . S
C711 H714 0.999 . S
C712 H682 0.950 . S
C712 C711 1.524 . S
C712 C713 1.415 . S
C713 H683 0.950 . S
C713 C708 1.363 . S
C713 C712 1.415 . S
H714 C711 0.999 . S
H715 C696 0.913 . S
H716 C734 0.951 . S
H717 C736 0.951 . S
H718 C738 0.950 . S
H719 C739 0.950 . S
H720 C741 0.950 . S
H721 C744 0.950 . S
H722 C745 0.950 . S
H723 C747 0.950 . S
H724 C748 0.950 . S
H725 C749 0.951 . S
H726 C751 0.951 . S
H727 C753 0.950 . S
H728 C754 0.950 . S
H729 C756 0.950 . S
H730 C759 0.950 . S
H731 C760 0.950 . S
H732 C762 0.950 . S
H733 C763 0.950 . S
C734 H716 0.951 . S
C734 C735 1.366 . S
C734 C736 1.388 . S
C735 C734 1.366 . S
C735 C739 1.385 . S
C736 H717 0.951 . S
C736 C734 1.388 . S
C736 C737 1.366 . S
C737 C736 1.366 . S
C737 C738 1.414 . S
C737 C740 1.499 . S
C738 H718 0.950 . S
C738 C737 1.414 . S
C738 C739 1.374 . S
C739 H719 0.950 . S
C739 C735 1.385 . S
C739 C738 1.374 . S
C740 C737 1.499 . S
C740 C741 1.373 . S
C740 C742 1.389 . S
C741 H720 0.950 . S
C741 C740 1.373 . S
C741 C757 1.377 . S
C742 C740 1.389 . S
C742 C743 1.524 . S
C742 C756 1.377 . S
C743 C742 1.524 . S
C743 C744 1.397 . S
C743 C748 1.363 . S
C744 H721 0.950 . S
C744 C743 1.397 . S
C744 C745 1.334 . S
C745 H722 0.950 . S
C745 C744 1.334 . S
C745 C746 1.287 . S
C746 C745 1.287 . S
C746 C747 1.524 . S
C746 H765 0.913 . S
C747 H723 0.950 . S
C747 C746 1.524 . S
C747 C748 1.415 . S
C748 H724 0.950 . S
C748 C743 1.363 . S
C748 C747 1.415 . S
C749 H725 0.951 . S
C749 C750 1.366 . S
C749 C751 1.388 . S
C750 C749 1.366 . S
C750 C754 1.385 . S
C751 H726 0.951 . S
C751 C749 1.388 . S
C751 C752 1.366 . S
C752 C751 1.366 . S
C752 C753 1.414 . S
C752 C755 1.499 . S
C753 H727 0.950 . S
C753 C752 1.414 . S
C753 C754 1.374 . S
C754 H728 0.950 . S
C754 C750 1.385 . S
C754 C753 1.374 . S
C755 C752 1.499 . S
C755 C756 1.373 . S
C755 C757 1.389 . S
C756 H729 0.950 . S
C756 C742 1.377 . S
C756 C755 1.373 . S
C757 C741 1.377 . S
C757 C755 1.389 . S
C757 C758 1.524 . S
C758 C757 1.524 . S
C758 C759 1.397 . S
C758 C763 1.363 . S
C759 H730 0.950 . S
C759 C758 1.397 . S
C759 C760 1.334 . S
C760 H731 0.950 . S
C760 C759 1.334 . S
C760 C761 1.287 . S
C761 C760 1.287 . S
C761 C762 1.524 . S
C761 H764 0.999 . S
C762 H732 0.950 . S
C762 C761 1.524 . S
C762 C763 1.415 . S
C763 H733 0.950 . S
C763 C758 1.363 . S
C763 C762 1.415 . S
H764 C761 0.999 . S
H765 C746 0.913 . S
H766 C784 0.951 . S
H767 C786 0.951 . S
H768 C788 0.950 . S
H769 C789 0.950 . S
H770 C791 0.950 . S
H771 C794 0.950 . S
H772 C795 0.950 . S
H773 C797 0.950 . S
H774 C798 0.950 . S
H775 C799 0.951 . S
H776 C801 0.951 . S
H777 C803 0.950 . S
H778 C804 0.950 . S
H779 C806 0.950 . S
H780 C809 0.950 . S
H781 C810 0.950 . S
H782 C812 0.950 . S
H783 C813 0.950 . S
C784 H766 0.951 . S
C784 C785 1.366 . S
C784 C786 1.388 . S
C785 C784 1.366 . S
C785 C789 1.385 . S
C786 H767 0.951 . S
C786 C784 1.388 . S
C786 C787 1.366 . S
C787 C786 1.366 . S
C787 C788 1.414 . S
C787 C790 1.499 . S
C788 H768 0.950 . S
C788 C787 1.414 . S
C788 C789 1.374 . S
C789 H769 0.950 . S
C789 C785 1.385 . S
C789 C788 1.374 . S
C790 C787 1.499 . S
C790 C791 1.373 . S
C790 C792 1.389 . S
C791 H770 0.950 . S
C791 C790 1.373 . S
C791 C807 1.377 . S
C792 C790 1.389 . S
C792 C793 1.524 . S
C792 C806 1.377 . S
C793 C792 1.524 . S
C793 C794 1.397 . S
C793 C798 1.363 . S
C794 H771 0.950 . S
C794 C793 1.397 . S
C794 C795 1.334 . S
C795 H772 0.950 . S
C795 C794 1.334 . S
C795 C796 1.287 . S
C796 C795 1.287 . S
C796 C797 1.524 . S
C796 H815 0.913 . S
C797 H773 0.950 . S
C797 C796 1.524 . S
C797 C798 1.415 . S
C798 H774 0.950 . S
C798 C793 1.363 . S
C798 C797 1.415 . S
C799 H775 0.951 . S
C799 C800 1.366 . S
C799 C801 1.388 . S
C800 C799 1.366 . S
C800 C804 1.385 . S
C801 H776 0.951 . S
C801 C799 1.388 . S
C801 C802 1.366 . S
C802 C801 1.366 . S
C802 C803 1.414 . S
C802 C805 1.499 . S
C803 H777 0.950 . S
C803 C802 1.414 . S
C803 C804 1.374 . S
C804 H778 0.950 . S
C804 C800 1.385 . S
C804 C803 1.374 . S
C805 C802 1.499 . S
C805 C806 1.373 . S
C805 C807 1.389 . S
C806 H779 0.950 . S
C806 C792 1.377 . S
C806 C805 1.373 . S
C807 C791 1.377 . S
C807 C805 1.389 . S
C807 C808 1.524 . S
C808 C807 1.524 . S
C808 C809 1.397 . S
C808 C813 1.363 . S
C809 H780 0.950 . S
C809 C808 1.397 . S
C809 C810 1.334 . S
C810 H781 0.950 . S
C810 C809 1.334 . S
C810 C811 1.287 . S
C811 C810 1.287 . S
C811 C812 1.524 . S
C811 H814 0.999 . S
C812 H782 0.950 . S
C812 C811 1.524 . S
C812 C813 1.415 . S
C813 H783 0.950 . S
C813 C808 1.363 . S
C813 C812 1.415 . S
H814 C811 0.999 . S
H815 C796 0.913 . S
H816 C834 0.951 . S
H817 C836 0.951 . S
H818 C838 0.950 . S
H819 C839 0.950 . S
H820 C841 0.950 . S
H821 C844 0.950 . S
H822 C845 0.950 . S
H823 C847 0.950 . S
H824 C848 0.950 . S
H825 C849 0.951 . S
H826 C851 0.951 . S
H827 C853 0.950 . S
H828 C854 0.950 . S
H829 C856 0.950 . S
H830 C859 0.950 . S
H831 C860 0.950 . S
H832 C862 0.950 . S
H833 C863 0.950 . S
C834 H816 0.951 . S
C834 C835 1.366 . S
C834 C836 1.388 . S
C835 C834 1.366 . S
C835 C839 1.385 . S
C836 H817 0.951 . S
C836 C834 1.388 . S
C836 C837 1.366 . S
C837 C836 1.366 . S
C837 C838 1.414 . S
C837 C840 1.499 . S
C838 H818 0.950 . S
C838 C837 1.414 . S
C838 C839 1.374 . S
C839 H819 0.950 . S
C839 C835 1.385 . S
C839 C838 1.374 . S
C840 C837 1.499 . S
C840 C841 1.373 . S
C840 C842 1.389 . S
C841 H820 0.950 . S
C841 C840 1.373 . S
C841 C857 1.377 . S
C842 C840 1.389 . S
C842 C843 1.524 . S
C842 C856 1.377 . S
C843 C842 1.524 . S
C843 C844 1.397 . S
C843 C848 1.363 . S
C844 H821 0.950 . S
C844 C843 1.397 . S
C844 C845 1.334 . S
C845 H822 0.950 . S
C845 C844 1.334 . S
C845 C846 1.287 . S
C846 C845 1.287 . S
C846 C847 1.524 . S
C846 H865 0.913 . S
C847 H823 0.950 . S
C847 C846 1.524 . S
C847 C848 1.415 . S
C848 H824 0.950 . S
C848 C843 1.363 . S
C848 C847 1.415 . S
C849 H825 0.951 . S
C849 C850 1.366 . S
C849 C851 1.388 . S
C850 C849 1.366 . S
C850 C854 1.385 . S
C851 H826 0.951 . S
C851 C849 1.388 . S
C851 C852 1.366 . S
C852 C851 1.366 . S
C852 C853 1.414 . S
C852 C855 1.499 . S
C853 H827 0.950 . S
C853 C852 1.414 . S
C853 C854 1.374 . S
C854 H828 0.950 . S
C854 C850 1.385 . S
C854 C853 1.374 . S
C855 C852 1.499 . S
C855 C856 1.373 . S
C855 C857 1.389 . S
C856 H829 0.950 . S
C856 C842 1.377 . S
C856 C855 1.373 . S
C857 C841 1.377 . S
C857 C855 1.389 . S
C857 C858 1.524 . S
C858 C857 1.524 . S
C858 C859 1.397 . S
C858 C863 1.363 . S
C859 H830 0.950 . S
C859 C858 1.397 . S
C859 C860 1.334 . S
C860 H831 0.950 . S
C860 C859 1.334 . S
C860 C861 1.287 . S
C861 C860 1.287 . S
C861 C862 1.524 . S
C861 H864 0.999 . S
C862 H832 0.950 . S
C862 C861 1.524 . S
C862 C863 1.415 . S
C863 H833 0.950 . S
C863 C858 1.363 . S
C863 C862 1.415 . S
H864 C861 0.999 . S
H865 C846 0.913 . S
H866 C884 0.951 . S
H867 C886 0.951 . S
H868 C888 0.950 . S
H869 C889 0.950 . S
H870 C891 0.950 . S
H871 C894 0.950 . S
H872 C895 0.950 . S
H873 C897 0.950 . S
H874 C898 0.950 . S
H875 C899 0.951 . S
H876 C901 0.951 . S
H877 C903 0.950 . S
H878 C904 0.950 . S
H879 C906 0.950 . S
H880 C909 0.950 . S
H881 C910 0.950 . S
H882 C912 0.950 . S
H883 C913 0.950 . S
C884 H866 0.951 . S
C884 C885 1.366 . S
C884 C886 1.388 . S
C885 C884 1.366 . S
C885 C889 1.385 . S
C886 H867 0.951 . S
C886 C884 1.388 . S
C886 C887 1.366 . S
C887 C886 1.366 . S
C887 C888 1.414 . S
C887 C890 1.499 . S
C888 H868 0.950 . S
C888 C887 1.414 . S
C888 C889 1.374 . S
C889 H869 0.950 . S
C889 C885 1.385 . S
C889 C888 1.374 . S
C890 C887 1.499 . S
C890 C891 1.373 . S
C890 C892 1.389 . S
C891 H870 0.950 . S
C891 C890 1.373 . S
C891 C907 1.377 . S
C892 C890 1.389 . S
C892 C893 1.524 . S
C892 C906 1.377 . S
C893 C892 1.524 . S
C893 C894 1.397 . S
C893 C898 1.363 . S
C894 H871 0.950 . S
C894 C893 1.397 . S
C894 C895 1.334 . S
C895 H872 0.950 . S
C895 C894 1.334 . S
C895 C896 1.287 . S
C896 C895 1.287 . S
C896 C897 1.524 . S
C896 H915 0.913 . S
C897 H873 0.950 . S
C897 C896 1.524 . S
C897 C898 1.415 . S
C898 H874 0.950 . S
C898 C893 1.363 . S
C898 C897 1.415 . S
C899 H875 0.951 . S
C899 C900 1.366 . S
C899 C901 1.388 . S
C900 C899 1.366 . S
C900 C904 1.385 . S
C901 H876 0.951 . S
C901 C899 1.388 . S
C901 C902 1.366 . S
C902 C901 1.366 . S
C902 C903 1.414 . S
C902 C905 1.499 . S
C903 H877 0.950 . S
C903 C902 1.414 . S
C903 C904 1.374 . S
C904 H878 0.950 . S
C904 C900 1.385 . S
C904 C903 1.374 . S
C905 C902 1.499 . S
C905 C906 1.373 . S
C905 C907 1.389 . S
C906 H879 0.950 . S
C906 C892 1.377 . S
C906 C905 1.373 . S
C907 C891 1.377 . S
C907 C905 1.389 . S
C907 C908 1.524 . S
C908 C907 1.524 . S
C908 C909 1.397 . S
C908 C913 1.363 . S
C909 H880 0.950 . S
C909 C908 1.397 . S
C909 C910 1.334 . S
C910 H881 0.950 . S
C910 C909 1.334 . S
C910 C911 1.287 . S
C911 C910 1.287 . S
C911 C912 1.524 . S
C911 H914 0.999 . S
C912 H882 0.950 . S
C912 C911 1.524 . S
C912 C913 1.415 . S
C913 H883 0.950 . S
C913 C908 1.363 . S
C913 C912 1.415 . S
H914 C911 0.999 . S
H915 C896 0.913 . S
H916 C934 0.951 . S
H917 C936 0.951 . S
H918 C938 0.950 . S
H919 C939 0.950 . S
H920 C941 0.950 . S
H921 C944 0.950 . S
H922 C945 0.950 . S
H923 C947 0.950 . S
H924 C948 0.950 . S
H925 C949 0.951 . S
H926 C951 0.951 . S
H927 C953 0.950 . S
H928 C954 0.950 . S
H929 C956 0.950 . S
H930 C959 0.950 . S
H931 C960 0.950 . S
H932 C962 0.950 . S
H933 C963 0.950 . S
C934 H916 0.951 . S
C934 C935 1.366 . S
C934 C936 1.388 . S
C935 C934 1.366 . S
C935 C939 1.385 . S
C936 H917 0.951 . S
C936 C934 1.388 . S
C936 C937 1.366 . S
C937 C936 1.366 . S
C937 C938 1.414 . S
C937 C940 1.499 . S
C938 H918 0.950 . S
C938 C937 1.414 . S
C938 C939 1.374 . S
C939 H919 0.950 . S
C939 C935 1.385 . S
C939 C938 1.374 . S
C940 C937 1.499 . S
C940 C941 1.373 . S
C940 C942 1.389 . S
C941 H920 0.950 . S
C941 C940 1.373 . S
C941 C957 1.377 . S
C942 C940 1.389 . S
C942 C943 1.524 . S
C942 C956 1.377 . S
C943 C942 1.524 . S
C943 C944 1.397 . S
C943 C948 1.363 . S
C944 H921 0.950 . S
C944 C943 1.397 . S
C944 C945 1.334 . S
C945 H922 0.950 . S
C945 C944 1.334 . S
C945 C946 1.287 . S
C946 C945 1.287 . S
C946 C947 1.524 . S
C946 H965 0.913 . S
C947 H923 0.950 . S
C947 C946 1.524 . S
C947 C948 1.415 . S
C948 H924 0.950 . S
C948 C943 1.363 . S
C948 C947 1.415 . S
C949 H925 0.951 . S
C949 C950 1.366 . S
C949 C951 1.388 . S
C950 C949 1.366 . S
C950 C954 1.385 . S
C951 H926 0.951 . S
C951 C949 1.388 . S
C951 C952 1.366 . S
C952 C951 1.366 . S
C952 C953 1.414 . S
C952 C955 1.499 . S
C953 H927 0.950 . S
C953 C952 1.414 . S
C953 C954 1.374 . S
C954 H928 0.950 . S
C954 C950 1.385 . S
C954 C953 1.374 . S
C955 C952 1.499 . S
C955 C956 1.373 . S
C955 C957 1.389 . S
C956 H929 0.950 . S
C956 C942 1.377 . S
C956 C955 1.373 . S
C957 C941 1.377 . S
C957 C955 1.389 . S
C957 C958 1.524 . S
C958 C957 1.524 . S
C958 C959 1.397 . S
C958 C963 1.363 . S
C959 H930 0.950 . S
C959 C958 1.397 . S
C959 C960 1.334 . S
C960 H931 0.950 . S
C960 C959 1.334 . S
C960 C961 1.287 . S
C961 C960 1.287 . S
C961 C962 1.524 . S
C961 H964 0.999 . S
C962 H932 0.950 . S
C962 C961 1.524 . S
C962 C963 1.415 . S
C963 H933 0.950 . S
C963 C958 1.363 . S
C963 C962 1.415 . S
H964 C961 0.999 . S
H965 C946 0.913 . S
H966 C984 0.951 . S
H967 C986 0.951 . S
H968 C988 0.950 . S
H969 C989 0.950 . S
H970 C991 0.950 . S
H971 C994 0.950 . S
H972 C995 0.950 . S
H973 C997 0.950 . S
H974 C998 0.950 . S
H975 C999 0.951 . S
H976 C1001 0.951 . S
H977 C1003 0.950 . S
H978 C1004 0.950 . S
H979 C1006 0.950 . S
H980 C1009 0.950 . S
H981 C1010 0.950 . S
H982 C1012 0.950 . S
H983 C1013 0.950 . S
C984 H966 0.951 . S
C984 C985 1.366 . S
C984 C986 1.388 . S
C985 C984 1.366 . S
C985 C989 1.385 . S
C986 H967 0.951 . S
C986 C984 1.388 . S
C986 C987 1.366 . S
C987 C986 1.366 . S
C987 C988 1.414 . S
C987 C990 1.499 . S
C988 H968 0.950 . S
C988 C987 1.414 . S
C988 C989 1.374 . S
C989 H969 0.950 . S
C989 C985 1.385 . S
C989 C988 1.374 . S
C990 C987 1.499 . S
C990 C991 1.373 . S
C990 C992 1.389 . S
C991 H970 0.950 . S
C991 C990 1.373 . S
C991 C1007 1.377 . S
C992 C990 1.389 . S
C992 C993 1.524 . S
C992 C1006 1.377 . S
C993 C992 1.524 . S
C993 C994 1.397 . S
C993 C998 1.363 . S
C994 H971 0.950 . S
C994 C993 1.397 . S
C994 C995 1.334 . S
C995 H972 0.950 . S
C995 C994 1.334 . S
C995 C996 1.287 . S
C996 C995 1.287 . S
C996 C997 1.524 . S
C996 H1015 0.913 . S
C997 H973 0.950 . S
C997 C996 1.524 . S
C997 C998 1.415 . S
C998 H974 0.950 . S
C998 C993 1.363 . S
C998 C997 1.415 . S
C999 H975 0.951 . S
C999 C1000 1.366 . S
C999 C1001 1.388 . S
C1000 C999 1.366 . S
C1000 C1004 1.385 . S
C1001 H976 0.951 . S
C1001 C999 1.388 . S
C1001 C1002 1.366 . S
C1002 C1001 1.366 . S
C1002 C1003 1.414 . S
C1002 C1005 1.499 . S
C1003 H977 0.950 . S
C1003 C1002 1.414 . S
C1003 C1004 1.374 . S
C1004 H978 0.950 . S
C1004 C1000 1.385 . S
C1004 C1003 1.374 . S
C1005 C1002 1.499 . S
C1005 C1006 1.373 . S
C1005 C1007 1.389 . S
C1006 H979 0.950 . S
C1006 C992 1.377 . S
C1006 C1005 1.373 . S
C1007 C991 1.377 . S
C1007 C1005 1.389 . S
C1007 C1008 1.524 . S
C1008 C1007 1.524 . S
C1008 C1009 1.397 . S
C1008 C1013 1.363 . S
C1009 H980 0.950 . S
C1009 C1008 1.397 . S
C1009 C1010 1.334 . S
C1010 H981 0.950 . S
C1010 C1009 1.334 . S
C1010 C1011 1.287 . S
C1011 C1010 1.287 . S
C1011 C1012 1.524 . S
C1011 H1014 0.999 . S
C1012 H982 0.950 . S
C1012 C1011 1.524 . S
C1012 C1013 1.415 . S
C1013 H983 0.950 . S
C1013 C1008 1.363 . S
C1013 C1012 1.415 . S
H1014 C1011 0.999 . S
H1015 C996 0.913 . S
H1016 C1034 0.951 . S
H1017 C1036 0.951 . S
H1018 C1038 0.950 . S
H1019 C1039 0.950 . S
H1020 C1041 0.950 . S
H1021 C1044 0.950 . S
H1022 C1045 0.950 . S
H1023 C1047 0.950 . S
H1024 C1048 0.950 . S
H1025 C1049 0.951 . S
H1026 C1051 0.951 . S
H1027 C1053 0.950 . S
H1028 C1054 0.950 . S
H1029 C1056 0.950 . S
H1030 C1059 0.950 . S
H1031 C1060 0.950 . S
H1032 C1062 0.950 . S
H1033 C1063 0.950 . S
C1034 H1016 0.951 . S
C1034 C1035 1.366 . S
C1034 C1036 1.388 . S
C1035 C1034 1.366 . S
C1035 C1039 1.385 . S
C1036 H1017 0.951 . S
C1036 C1034 1.388 . S
C1036 C1037 1.366 . S
C1037 C1036 1.366 . S
C1037 C1038 1.414 . S
C1037 C1040 1.499 . S
C1038 H1018 0.950 . S
C1038 C1037 1.414 . S
C1038 C1039 1.374 . S
C1039 H1019 0.950 . S
C1039 C1035 1.385 . S
C1039 C1038 1.374 . S
C1040 C1037 1.499 . S
C1040 C1041 1.373 . S
C1040 C1042 1.389 . S
C1041 H1020 0.950 . S
C1041 C1040 1.373 . S
C1041 C1057 1.377 . S
C1042 C1040 1.389 . S
C1042 C1043 1.524 . S
C1042 C1056 1.377 . S
C1043 C1042 1.524 . S
C1043 C1044 1.397 . S
C1043 C1048 1.363 . S
C1044 H1021 0.950 . S
C1044 C1043 1.397 . S
C1044 C1045 1.334 . S
C1045 H1022 0.950 . S
C1045 C1044 1.334 . S
C1045 C1046 1.287 . S
C1046 C1045 1.287 . S
C1046 C1047 1.524 . S
C1046 H1065 0.913 . S
C1047 H1023 0.950 . S
C1047 C1046 1.524 . S
C1047 C1048 1.415 . S
C1048 H1024 0.950 . S
C1048 C1043 1.363 . S
C1048 C1047 1.415 . S
C1049 H1025 0.951 . S
C1049 C1050 1.366 . S
C1049 C1051 1.388 . S
C1050 C1049 1.366 . S
C1050 C1054 1.385 . S
C1051 H1026 0.951 . S
C1051 C1049 1.388 . S
C1051 C1052 1.366 . S
C1052 C1051 1.366 . S
C1052 C1053 1.414 . S
C1052 C1055 1.499 . S
C1053 H1027 0.950 . S
C1053 C1052 1.414 . S
C1053 C1054 1.374 . S
C1054 H1028 0.950 . S
C1054 C1050 1.385 . S
C1054 C1053 1.374 . S
C1055 C1052 1.499 . S
C1055 C1056 1.373 . S
C1055 C1057 1.389 . S
C1056 H1029 0.950 . S
C1056 C1042 1.377 . S
C1056 C1055 1.373 . S
C1057 C1041 1.377 . S
C1057 C1055 1.389 . S
C1057 C1058 1.524 . S
C1058 C1057 1.524 . S
C1058 C1059 1.397 . S
C1058 C1063 1.363 . S
C1059 H1030 0.950 . S
C1059 C1058 1.397 . S
C1059 C1060 1.334 . S
C1060 H1031 0.950 . S
C1060 C1059 1.334 . S
C1060 C1061 1.287 . S
C1061 C1060 1.287 . S
C1061 C1062 1.524 . S
C1061 H1064 0.999 . S
C1062 H1032 0.950 . S
C1062 C1061 1.524 . S
C1062 C1063 1.415 . S
C1063 H1033 0.950 . S
C1063 C1058 1.363 . S
C1063 C1062 1.415 . S
H1064 C1061 0.999 . S
H1065 C1046 0.913 . S
H1066 C1084 0.951 . S
H1067 C1086 0.951 . S
H1068 C1088 0.950 . S
H1069 C1089 0.950 . S
H1070 C1091 0.950 . S
H1071 C1094 0.950 . S
H1072 C1095 0.950 . S
H1073 C1097 0.950 . S
H1074 C1098 0.950 . S
H1075 C1099 0.951 . S
H1076 C1101 0.951 . S
H1077 C1103 0.950 . S
H1078 C1104 0.950 . S
H1079 C1106 0.950 . S
H1080 C1109 0.950 . S
H1081 C1110 0.950 . S
H1082 C1112 0.950 . S
H1083 C1113 0.950 . S
C1084 H1066 0.951 . S
C1084 C1085 1.366 . S
C1084 C1086 1.388 . S
C1085 C1084 1.366 . S
C1085 C1089 1.385 . S
C1086 H1067 0.951 . S
C1086 C1084 1.388 . S
C1086 C1087 1.366 . S
C1087 C1086 1.366 . S
C1087 C1088 1.414 . S
C1087 C1090 1.499 . S
C1088 H1068 0.950 . S
C1088 C1087 1.414 . S
C1088 C1089 1.374 . S
C1089 H1069 0.950 . S
C1089 C1085 1.385 . S
C1089 C1088 1.374 . S
C1090 C1087 1.499 . S
C1090 C1091 1.373 . S
C1090 C1092 1.389 . S
C1091 H1070 0.950 . S
C1091 C1090 1.373 . S
C1091 C1107 1.377 . S
C1092 C1090 1.389 . S
C1092 C1093 1.524 . S
C1092 C1106 1.377 . S
C1093 C1092 1.524 . S
C1093 C1094 1.397 . S
C1093 C1098 1.363 . S
C1094 H1071 0.950 . S
C1094 C1093 1.397 . S
C1094 C1095 1.334 . S
C1095 H1072 0.950 . S
C1095 C1094 1.334 . S
C1095 C1096 1.287 . S
C1096 C1095 1.287 . S
C1096 C1097 1.524 . S
C1096 H1115 0.913 . S
C1097 H1073 0.950 . S
C1097 C1096 1.524 . S
C1097 C1098 1.415 . S
C1098 H1074 0.950 . S
C1098 C1093 1.363 . S
C1098 C1097 1.415 . S
C1099 H1075 0.951 . S
C1099 C1100 1.366 . S
C1099 C1101 1.388 . S
C1100 C1099 1.366 . S
C1100 C1104 1.385 . S
C1101 H1076 0.951 . S
C1101 C1099 1.388 . S
C1101 C1102 1.366 . S
C1102 C1101 1.366 . S
C1102 C1103 1.414 . S
C1102 C1105 1.499 . S
C1103 H1077 0.950 . S
C1103 C1102 1.414 . S
C1103 C1104 1.374 . S
C1104 H1078 0.950 . S
C1104 C1100 1.385 . S
C1104 C1103 1.374 . S
C1105 C1102 1.499 . S
C1105 C1106 1.373 . S
C1105 C1107 1.389 . S
C1106 H1079 0.950 . S
C1106 C1092 1.377 . S
C1106 C1105 1.373 . S
C1107 C1091 1.377 . S
C1107 C1105 1.389 . S
C1107 C1108 1.524 . S
C1108 C1107 1.524 . S
C1108 C1109 1.397 . S
C1108 C1113 1.363 . S
C1109 H1080 0.950 . S
C1109 C1108 1.397 . S
C1109 C1110 1.334 . S
C1110 H1081 0.950 . S
C1110 C1109 1.334 . S
C1110 C1111 1.287 . S
C1111 C1110 1.287 . S
C1111 C1112 1.524 . S
C1111 H1114 0.999 . S
C1112 H1082 0.950 . S
C1112 C1111 1.524 . S
C1112 C1113 1.415 . S
C1113 H1083 0.950 . S
C1113 C1108 1.363 . S
C1113 C1112 1.415 . S
H1114 C1111 0.999 . S
H1115 C1096 0.913 . S
H1116 C1134 0.951 . S
H1117 C1136 0.951 . S
H1118 C1138 0.950 . S
H1119 C1139 0.950 . S
H1120 C1141 0.950 . S
H1121 C1144 0.950 . S
H1122 C1145 0.950 . S
H1123 C1147 0.950 . S
H1124 C1148 0.950 . S
H1125 C1149 0.951 . S
H1126 C1151 0.951 . S
H1127 C1153 0.950 . S
H1128 C1154 0.950 . S
H1129 C1156 0.950 . S
H1130 C1159 0.950 . S
H1131 C1160 0.950 . S
H1132 C1162 0.950 . S
H1133 C1163 0.950 . S
C1134 H1116 0.951 . S
C1134 C1135 1.366 . S
C1134 C1136 1.388 . S
C1135 C1134 1.366 . S
C1135 C1139 1.385 . S
C1136 H1117 0.951 . S
C1136 C1134 1.388 . S
C1136 C1137 1.366 . S
C1137 C1136 1.366 . S
C1137 C1138 1.414 . S
C1137 C1140 1.499 . S
C1138 H1118 0.950 . S
C1138 C1137 1.414 . S
C1138 C1139 1.374 . S
C1139 H1119 0.950 . S
C1139 C1135 1.385 . S
C1139 C1138 1.374 . S
C1140 C1137 1.499 . S
C1140 C1141 1.373 . S
C1140 C1142 1.389 . S
C1141 H1120 0.950 . S
C1141 C1140 1.373 . S
C1141 C1157 1.377 . S
C1142 C1140 1.389 . S
C1142 C1143 1.524 . S
C1142 C1156 1.377 . S
C1143 C1142 1.524 . S
C1143 C1144 1.397 . S
C1143 C1148 1.363 . S
C1144 H1121 0.950 . S
C1144 C1143 1.397 . S
C1144 C1145 1.334 . S
C1145 H1122 0.950 . S
C1145 C1144 1.334 . S
C1145 C1146 1.287 . S
C1146 C1145 1.287 . S
C1146 C1147 1.524 . S
C1146 H1165 0.913 . S
C1147 H1123 0.950 . S
C1147 C1146 1.524 . S
C1147 C1148 1.415 . S
C1148 H1124 0.950 . S
C1148 C1143 1.363 . S
C1148 C1147 1.415 . S
C1149 H1125 0.951 . S
C1149 C1150 1.366 . S
C1149 C1151 1.388 . S
C1150 C1149 1.366 . S
C1150 C1154 1.385 . S
C1151 H1126 0.951 . S
C1151 C1149 1.388 . S
C1151 C1152 1.366 . S
C1152 C1151 1.366 . S
C1152 C1153 1.414 . S
C1152 C1155 1.499 . S
C1153 H1127 0.950 . S
C1153 C1152 1.414 . S
C1153 C1154 1.374 . S
C1154 H1128 0.950 . S
C1154 C1150 1.385 . S
C1154 C1153 1.374 . S
C1155 C1152 1.499 . S
C1155 C1156 1.373 . S
C1155 C1157 1.389 . S
C1156 H1129 0.950 . S
C1156 C1142 1.377 . S
C1156 C1155 1.373 . S
C1157 C1141 1.377 . S
C1157 C1155 1.389 . S
C1157 C1158 1.524 . S
C1158 C1157 1.524 . S
C1158 C1159 1.397 . S
C1158 C1163 1.363 . S
C1159 H1130 0.950 . S
C1159 C1158 1.397 . S
C1159 C1160 1.334 . S
C1160 H1131 0.950 . S
C1160 C1159 1.334 . S
C1160 C1161 1.287 . S
C1161 C1160 1.287 . S
C1161 C1162 1.524 . S
C1161 H1164 0.999 . S
C1162 H1132 0.950 . S
C1162 C1161 1.524 . S
C1162 C1163 1.415 . S
C1163 H1133 0.950 . S
C1163 C1158 1.363 . S
C1163 C1162 1.415 . S
H1164 C1161 0.999 . S
H1165 C1146 0.913 . S
H1166 C1184 0.951 . S
H1167 C1186 0.951 . S
H1168 C1188 0.950 . S
H1169 C1189 0.950 . S
H1170 C1191 0.950 . S
H1171 C1194 0.950 . S
H1172 C1195 0.950 . S
H1173 C1197 0.950 . S
H1174 C1198 0.950 . S
H1175 C1199 0.951 . S
H1176 C1201 0.951 . S
H1177 C1203 0.950 . S
H1178 C1204 0.950 . S
H1179 C1206 0.950 . S
H1180 C1209 0.950 . S
H1181 C1210 0.950 . S
H1182 C1212 0.950 . S
H1183 C1213 0.950 . S
C1184 H1166 0.951 . S
C1184 C1185 1.366 . S
C1184 C1186 1.388 . S
C1185 C1184 1.366 . S
C1185 C1189 1.385 . S
C1186 H1167 0.951 . S
C1186 C1184 1.388 . S
C1186 C1187 1.366 . S
C1187 C1186 1.366 . S
C1187 C1188 1.414 . S
C1187 C1190 1.499 . S
C1188 H1168 0.950 . S
C1188 C1187 1.414 . S
C1188 C1189 1.374 . S
C1189 H1169 0.950 . S
C1189 C1185 1.385 . S
C1189 C1188 1.374 . S
C1190 C1187 1.499 . S
C1190 C1191 1.373 . S
C1190 C1192 1.389 . S
C1191 H1170 0.950 . S
C1191 C1190 1.373 . S
C1191 C1207 1.377 . S
C1192 C1190 1.389 . S
C1192 C1193 1.524 . S
C1192 C1206 1.377 . S
C1193 C1192 1.524 . S
C1193 C1194 1.397 . S
C1193 C1198 1.363 . S
C1194 H1171 0.950 . S
C1194 C1193 1.397 . S
C1194 C1195 1.334 . S
C1195 H1172 0.950 . S
C1195 C1194 1.334 . S
C1195 C1196 1.287 . S
C1196 C1195 1.287 . S
C1196 C1197 1.524 . S
C1196 H1215 0.913 . S
C1197 H1173 0.950 . S
C1197 C1196 1.524 . S
C1197 C1198 1.415 . S
C1198 H1174 0.950 . S
C1198 C1193 1.363 . S
C1198 C1197 1.415 . S
C1199 H1175 0.951 . S
C1199 C1200 1.366 . S
C1199 C1201 1.388 . S
C1200 C1199 1.366 . S
C1200 C1204 1.385 . S
C1201 H1176 0.951 . S
C1201 C1199 1.388 . S
C1201 C1202 1.366 . S
C1202 C1201 1.366 . S
C1202 C1203 1.414 . S
C1202 C1205 1.499 . S
C1203 H1177 0.950 . S
C1203 C1202 1.414 . S
C1203 C1204 1.374 . S
C1204 H1178 0.950 . S
C1204 C1200 1.385 . S
C1204 C1203 1.374 . S
C1205 C1202 1.499 . S
C1205 C1206 1.373 . S
C1205 C1207 1.389 . S
C1206 H1179 0.950 . S
C1206 C1192 1.377 . S
C1206 C1205 1.373 . S
C1207 C1191 1.377 . S
C1207 C1205 1.389 . S
C1207 C1208 1.524 . S
C1208 C1207 1.524 . S
C1208 C1209 1.397 . S
C1208 C1213 1.363 . S
C1209 H1180 0.950 . S
C1209 C1208 1.397 . S
C1209 C1210 1.334 . S
C1210 H1181 0.950 . S
C1210 C1209 1.334 . S
C1210 C1211 1.287 . S
C1211 C1210 1.287 . S
C1211 C1212 1.524 . S
C1211 H1214 0.999 . S
C1212 H1182 0.950 . S
C1212 C1211 1.524 . S
C1212 C1213 1.415 . S
C1213 H1183 0.950 . S
C1213 C1208 1.363 . S
C1213 C1212 1.415 . S
H1214 C1211 0.999 . S
H1215 C1196 0.913 . S
H1216 C1234 0.951 . S
H1217 C1236 0.951 . S
H1218 C1238 0.950 . S
H1219 C1239 0.950 . S
H1220 C1241 0.950 . S
H1221 C1244 0.950 . S
H1222 C1245 0.950 . S
H1223 C1247 0.950 . S
H1224 C1248 0.950 . S
H1225 C1249 0.951 . S
H1226 C1251 0.951 . S
H1227 C1253 0.950 . S
H1228 C1254 0.950 . S
H1229 C1256 0.950 . S
H1230 C1259 0.950 . S
H1231 C1260 0.950 . S
H1232 C1262 0.950 . S
H1233 C1263 0.950 . S
C1234 H1216 0.951 . S
C1234 C1235 1.366 . S
C1234 C1236 1.388 . S
C1235 C1234 1.366 . S
C1235 C1239 1.385 . S
C1236 H1217 0.951 . S
C1236 C1234 1.388 . S
C1236 C1237 1.366 . S
C1237 C1236 1.366 . S
C1237 C1238 1.414 . S
C1237 C1240 1.499 . S
C1238 H1218 0.950 . S
C1238 C1237 1.414 . S
C1238 C1239 1.374 . S
C1239 H1219 0.950 . S
C1239 C1235 1.385 . S
C1239 C1238 1.374 . S
C1240 C1237 1.499 . S
C1240 C1241 1.373 . S
C1240 C1242 1.389 . S
C1241 H1220 0.950 . S
C1241 C1240 1.373 . S
C1241 C1257 1.377 . S
C1242 C1240 1.389 . S
C1242 C1243 1.524 . S
C1242 C1256 1.377 . S
C1243 C1242 1.524 . S
C1243 C1244 1.397 . S
C1243 C1248 1.363 . S
C1244 H1221 0.950 . S
C1244 C1243 1.397 . S
C1244 C1245 1.334 . S
C1245 H1222 0.950 . S
C1245 C1244 1.334 . S
C1245 C1246 1.287 . S
C1246 C1245 1.287 . S
C1246 C1247 1.524 . S
C1246 H1265 0.913 . S
C1247 H1223 0.950 . S
C1247 C1246 1.524 . S
C1247 C1248 1.415 . S
C1248 H1224 0.950 . S
C1248 C1243 1.363 . S
C1248 C1247 1.415 . S
C1249 H1225 0.951 . S
C1249 C1250 1.366 . S
C1249 C1251 1.388 . S
C1250 C1249 1.366 . S
C1250 C1254 1.385 . S
C1251 H1226 0.951 . S
C1251 C1249 1.388 . S
C1251 C1252 1.366 . S
C1252 C1251 1.366 . S
C1252 C1253 1.414 . S
C1252 C1255 1.499 . S
C1253 H1227 0.950 . S
C1253 C1252 1.414 . S
C1253 C1254 1.374 . S
C1254 H1228 0.950 . S
C1254 C1250 1.385 . S
C1254 C1253 1.374 . S
C1255 C1252 1.499 . S
C1255 C1256 1.373 . S
C1255 C1257 1.389 . S
C1256 H1229 0.950 . S
C1256 C1242 1.377 . S
C1256 C1255 1.373 . S
C1257 C1241 1.377 . S
C1257 C1255 1.389 . S
C1257 C1258 1.524 . S
C1258 C1257 1.524 . S
C1258 C1259 1.397 . S
C1258 C1263 1.363 . S
C1259 H1230 0.950 . S
C1259 C1258 1.397 . S
C1259 C1260 1.334 . S
C1260 H1231 0.950 . S
C1260 C1259 1.334 . S
C1260 C1261 1.287 . S
C1261 C1260 1.287 . S
C1261 C1262 1.524 . S
C1261 H1264 0.999 . S
C1262 H1232 0.950 . S
C1262 C1261 1.524 . S
C1262 C1263 1.415 . S
C1263 H1233 0.950 . S
C1263 C1258 1.363 . S
C1263 C1262 1.415 . S
H1264 C1261 0.999 . S
H1265 C1246 0.913 . S
H1266 C1284 0.951 . S
H1267 C1286 0.951 . S
H1268 C1288 0.950 . S
H1269 C1289 0.950 . S
H1270 C1291 0.950 . S
H1271 C1294 0.950 . S
H1272 C1295 0.950 . S
H1273 C1297 0.950 . S
H1274 C1298 0.950 . S
H1275 C1299 0.951 . S
H1276 C1301 0.951 . S
H1277 C1303 0.950 . S
H1278 C1304 0.950 . S
H1279 C1306 0.950 . S
H1280 C1309 0.950 . S
H1281 C1310 0.950 . S
H1282 C1312 0.950 . S
H1283 C1313 0.950 . S
C1284 H1266 0.951 . S
C1284 C1285 1.366 . S
C1284 C1286 1.388 . S
C1285 C1284 1.366 . S
C1285 C1289 1.385 . S
C1286 H1267 0.951 . S
C1286 C1284 1.388 . S
C1286 C1287 1.366 . S
C1287 C1286 1.366 . S
C1287 C1288 1.414 . S
C1287 C1290 1.499 . S
C1288 H1268 0.950 . S
C1288 C1287 1.414 . S
C1288 C1289 1.374 . S
C1289 H1269 0.950 . S
C1289 C1285 1.385 . S
C1289 C1288 1.374 . S
C1290 C1287 1.499 . S
C1290 C1291 1.373 . S
C1290 C1292 1.389 . S
C1291 H1270 0.950 . S
C1291 C1290 1.373 . S
C1291 C1307 1.377 . S
C1292 C1290 1.389 . S
C1292 C1293 1.524 . S
C1292 C1306 1.377 . S
C1293 C1292 1.524 . S
C1293 C1294 1.397 . S
C1293 C1298 1.363 . S
C1294 H1271 0.950 . S
C1294 C1293 1.397 . S
C1294 C1295 1.334 . S
C1295 H1272 0.950 . S
C1295 C1294 1.334 . S
C1295 C1296 1.287 . S
C1296 C1295 1.287 . S
C1296 C1297 1.524 . S
C1296 H1315 0.913 . S
C1297 H1273 0.950 . S
C1297 C1296 1.524 . S
C1297 C1298 1.415 . S
C1298 H1274 0.950 . S
C1298 C1293 1.363 . S
C1298 C1297 1.415 . S
C1299 H1275 0.951 . S
C1299 C1300 1.366 . S
C1299 C1301 1.388 . S
C1300 C1299 1.366 . S
C1300 C1304 1.385 . S
C1301 H1276 0.951 . S
C1301 C1299 1.388 . S
C1301 C1302 1.366 . S
C1302 C1301 1.366 . S
C1302 C1303 1.414 . S
C1302 C1305 1.499 . S
C1303 H1277 0.950 . S
C1303 C1302 1.414 . S
C1303 C1304 1.374 . S
C1304 H1278 0.950 . S
C1304 C1300 1.385 . S
C1304 C1303 1.374 . S
C1305 C1302 1.499 . S
C1305 C1306 1.373 . S
C1305 C1307 1.389 . S
C1306 H1279 0.950 . S
C1306 C1292 1.377 . S
C1306 C1305 1.373 . S
C1307 C1291 1.377 . S
C1307 C1305 1.389 . S
C1307 C1308 1.524 . S
C1308 C1307 1.524 . S
C1308 C1309 1.397 . S
C1308 C1313 1.363 . S
C1309 H1280 0.950 . S
C1309 C1308 1.397 . S
C1309 C1310 1.334 . S
C1310 H1281 0.950 . S
C1310 C1309 1.334 . S
C1310 C1311 1.287 . S
C1311 C1310 1.287 . S
C1311 C1312 1.524 . S
C1311 H1314 0.999 . S
C1312 H1282 0.950 . S
C1312 C1311 1.524 . S
C1312 C1313 1.415 . S
C1313 H1283 0.950 . S
C1313 C1308 1.363 . S
C1313 C1312 1.415 . S
H1314 C1311 0.999 . S
H1315 C1296 0.913 . S
H1316 C1334 0.951 . S
H1317 C1336 0.951 . S
H1318 C1338 0.950 . S
H1319 C1339 0.950 . S
H1320 C1341 0.950 . S
H1321 C1344 0.950 . S
H1322 C1345 0.950 . S
H1323 C1347 0.950 . S
H1324 C1348 0.950 . S
H1325 C1349 0.951 . S
H1326 C1351 0.951 . S
H1327 C1353 0.950 . S
H1328 C1354 0.950 . S
H1329 C1356 0.950 . S
H1330 C1359 0.950 . S
H1331 C1360 0.950 . S
H1332 C1362 0.950 . S
H1333 C1363 0.950 . S
C1334 H1316 0.951 . S
C1334 C1335 1.366 . S
C1334 C1336 1.388 . S
C1335 C1334 1.366 . S
C1335 C1339 1.385 . S
C1336 H1317 0.951 . S
C1336 C1334 1.388 . S
C1336 C1337 1.366 . S
C1337 C1336 1.366 . S
C1337 C1338 1.414 . S
C1337 C1340 1.499 . S
C1338 H1318 0.950 . S
C1338 C1337 1.414 . S
C1338 C1339 1.374 . S
C1339 H1319 0.950 . S
C1339 C1335 1.385 . S
C1339 C1338 1.374 . S
C1340 C1337 1.499 . S
C1340 C1341 1.373 . S
C1340 C1342 1.389 . S
C1341 H1320 0.950 . S
C1341 C1340 1.373 . S
C1341 C1357 1.377 . S
C1342 C1340 1.389 . S
C1342 C1343 1.524 . S
C1342 C1356 1.377 . S
C1343 C1342 1.524 . S
C1343 C1344 1.397 . S
C1343 C1348 1.363 . S
C1344 H1321 0.950 . S
C1344 C1343 1.397 . S
C1344 C1345 1.334 . S
C1345 H1322 0.950 . S
C1345 C1344 1.334 . S
C1345 C1346 1.287 . S
C1346 C1345 1.287 . S
C1346 C1347 1.524 . S
C1346 H1365 0.913 . S
C1347 H1323 0.950 . S
C1347 C1346 1.524 . S
C1347 C1348 1.415 . S
C1348 H1324 0.950 . S
C1348 C1343 1.363 . S
C1348 C1347 1.415 . S
C1349 H1325 0.951 . S
C1349 C1350 1.366 . S
C1349 C1351 1.388 . S
C1350 C1349 1.366 . S
C1350 C1354 1.385 . S
C1351 H1326 0.951 . S
C1351 C1349 1.388 . S
C1351 C1352 1.366 . S
C1352 C1351 1.366 . S
C1352 C1353 1.414 . S
C1352 C1355 1.499 . S
C1353 H1327 0.950 . S
C1353 C1352 1.414 . S
C1353 C1354 1.374 . S
C1354 H1328 0.950 . S
C1354 C1350 1.385 . S
C1354 C1353 1.374 . S
C1355 C1352 1.499 . S
C1355 C1356 1.373 . S
C1355 C1357 1.389 . S
C1356 H1329 0.950 . S
C1356 C1342 1.377 . S
C1356 C1355 1.373 . S
C1357 C1341 1.377 . S
C1357 C1355 1.389 . S
C1357 C1358 1.524 . S
C1358 C1357 1.524 . S
C1358 C1359 1.397 . S
C1358 C1363 1.363 . S
C1359 H1330 0.950 . S
C1359 C1358 1.397 . S
C1359 C1360 1.334 . S
C1360 H1331 0.950 . S
C1360 C1359 1.334 . S
C1360 C1361 1.287 . S
C1361 C1360 1.287 . S
C1361 C1362 1.524 . S
C1361 H1364 0.999 . S
C1362 H1332 0.950 . S
C1362 C1361 1.524 . S
C1362 C1363 1.415 . S
C1363 H1333 0.950 . S
C1363 C1358 1.363 . S
C1363 C1362 1.415 . S
H1364 C1361 0.999 . S
H1365 C1346 0.913 . S
H1366 C1384 0.951 . S
H1367 C1386 0.951 . S
H1368 C1388 0.950 . S
H1369 C1389 0.950 . S
H1370 C1391 0.950 . S
H1371 C1394 0.950 . S
H1372 C1395 0.950 . S
H1373 C1397 0.950 . S
H1374 C1398 0.950 . S
H1375 C1399 0.951 . S
H1376 C1401 0.951 . S
H1377 C1403 0.950 . S
H1378 C1404 0.950 . S
H1379 C1406 0.950 . S
H1380 C1409 0.950 . S
H1381 C1410 0.950 . S
H1382 C1412 0.950 . S
H1383 C1413 0.950 . S
C1384 H1366 0.951 . S
C1384 C1385 1.366 . S
C1384 C1386 1.388 . S
C1385 C1384 1.366 . S
C1385 C1389 1.385 . S
C1386 H1367 0.951 . S
C1386 C1384 1.388 . S
C1386 C1387 1.366 . S
C1387 C1386 1.366 . S
C1387 C1388 1.414 . S
C1387 C1390 1.499 . S
C1388 H1368 0.950 . S
C1388 C1387 1.414 . S
C1388 C1389 1.374 . S
C1389 H1369 0.950 . S
C1389 C1385 1.385 . S
C1389 C1388 1.374 . S
C1390 C1387 1.499 . S
C1390 C1391 1.373 . S
C1390 C1392 1.389 . S
C1391 H1370 0.950 . S
C1391 C1390 1.373 . S
C1391 C1407 1.377 . S
C1392 C1390 1.389 . S
C1392 C1393 1.524 . S
C1392 C1406 1.377 . S
C1393 C1392 1.524 . S
C1393 C1394 1.397 . S
C1393 C1398 1.363 . S
C1394 H1371 0.950 . S
C1394 C1393 1.397 . S
C1394 C1395 1.334 . S
C1395 H1372 0.950 . S
C1395 C1394 1.334 . S
C1395 C1396 1.287 . S
C1396 C1395 1.287 . S
C1396 C1397 1.524 . S
C1396 H1415 0.913 . S
C1397 H1373 0.950 . S
C1397 C1396 1.524 . S
C1397 C1398 1.415 . S
C1398 H1374 0.950 . S
C1398 C1393 1.363 . S
C1398 C1397 1.415 . S
C1399 H1375 0.951 . S
C1399 C1400 1.366 . S
C1399 C1401 1.388 . S
C1400 C1399 1.366 . S
C1400 C1404 1.385 . S
C1401 H1376 0.951 . S
C1401 C1399 1.388 . S
C1401 C1402 1.366 . S
C1402 C1401 1.366 . S
C1402 C1403 1.414 . S
C1402 C1405 1.499 . S
C1403 H1377 0.950 . S
C1403 C1402 1.414 . S
C1403 C1404 1.374 . S
C1404 H1378 0.950 . S
C1404 C1400 1.385 . S
C1404 C1403 1.374 . S
C1405 C1402 1.499 . S
C1405 C1406 1.373 . S
C1405 C1407 1.389 . S
C1406 H1379 0.950 . S
C1406 C1392 1.377 . S
C1406 C1405 1.373 . S
C1407 C1391 1.377 . S
C1407 C1405 1.389 . S
C1407 C1408 1.524 . S
C1408 C1407 1.524 . S
C1408 C1409 1.397 . S
C1408 C1413 1.363 . S
C1409 H1380 0.950 . S
C1409 C1408 1.397 . S
C1409 C1410 1.334 . S
C1410 H1381 0.950 . S
C1410 C1409 1.334 . S
C1410 C1411 1.287 . S
C1411 C1410 1.287 . S
C1411 C1412 1.524 . S
C1411 H1414 0.999 . S
C1412 H1382 0.950 . S
C1412 C1411 1.524 . S
C1412 C1413 1.415 . S
C1413 H1383 0.950 . S
C1413 C1408 1.363 . S
C1413 C1412 1.415 . S
H1414 C1411 0.999 . S
H1415 C1396 0.913 . S
H1416 C1434 0.951 . S
H1417 C1436 0.951 . S
H1418 C1438 0.950 . S
H1419 C1439 0.950 . S
H1420 C1441 0.950 . S
H1421 C1444 0.950 . S
H1422 C1445 0.950 . S
H1423 C1447 0.950 . S
H1424 C1448 0.950 . S
H1425 C1449 0.951 . S
H1426 C1451 0.951 . S
H1427 C1453 0.950 . S
H1428 C1454 0.950 . S
H1429 C1456 0.950 . S
H1430 C1459 0.950 . S
H1431 C1460 0.950 . S
H1432 C1462 0.950 . S
H1433 C1463 0.950 . S
C1434 H1416 0.951 . S
C1434 C1435 1.366 . S
C1434 C1436 1.388 . S
C1435 C1434 1.366 . S
C1435 C1439 1.385 . S
C1436 H1417 0.951 . S
C1436 C1434 1.388 . S
C1436 C1437 1.366 . S
C1437 C1436 1.366 . S
C1437 C1438 1.414 . S
C1437 C1440 1.499 . S
C1438 H1418 0.950 . S
C1438 C1437 1.414 . S
C1438 C1439 1.374 . S
C1439 H1419 0.950 . S
C1439 C1435 1.385 . S
C1439 C1438 1.374 . S
C1440 C1437 1.499 . S
C1440 C1441 1.373 . S
C1440 C1442 1.389 . S
C1441 H1420 0.950 . S
C1441 C1440 1.373 . S
C1441 C1457 1.377 . S
C1442 C1440 1.389 . S
C1442 C1443 1.524 . S
C1442 C1456 1.377 . S
C1443 C1442 1.524 . S
C1443 C1444 1.397 . S
C1443 C1448 1.363 . S
C1444 H1421 0.950 . S
C1444 C1443 1.397 . S
C1444 C1445 1.334 . S
C1445 H1422 0.950 . S
C1445 C1444 1.334 . S
C1445 C1446 1.287 . S
C1446 C1445 1.287 . S
C1446 C1447 1.524 . S
C1446 H1465 0.913 . S
C1447 H1423 0.950 . S
C1447 C1446 1.524 . S
C1447 C1448 1.415 . S
C1448 H1424 0.950 . S
C1448 C1443 1.363 . S
C1448 C1447 1.415 . S
C1449 H1425 0.951 . S
C1449 C1450 1.366 . S
C1449 C1451 1.388 . S
C1450 C1449 1.366 . S
C1450 C1454 1.385 . S
C1451 H1426 0.951 . S
C1451 C1449 1.388 . S
C1451 C1452 1.366 . S
C1452 C1451 1.366 . S
C1452 C1453 1.414 . S
C1452 C1455 1.499 . S
C1453 H1427 0.950 . S
C1453 C1452 1.414 . S
C1453 C1454 1.374 . S
C1454 H1428 0.950 . S
C1454 C1450 1.385 . S
C1454 C1453 1.374 . S
C1455 C1452 1.499 . S
C1455 C1456 1.373 . S
C1455 C1457 1.389 . S
C1456 H1429 0.950 . S
C1456 C1442 1.377 . S
C1456 C1455 1.373 . S
C1457 C1441 1.377 . S
C1457 C1455 1.389 . S
C1457 C1458 1.524 . S
C1458 C1457 1.524 . S
C1458 C1459 1.397 . S
C1458 C1463 1.363 . S
C1459 H1430 0.950 . S
C1459 C1458 1.397 . S
C1459 C1460 1.334 . S
C1460 H1431 0.950 . S
C1460 C1459 1.334 . S
C1460 C1461 1.287 . S
C1461 C1460 1.287 . S
C1461 C1462 1.524 . S
C1461 H1464 0.999 . S
C1462 H1432 0.950 . S
C1462 C1461 1.524 . S
C1462 C1463 1.415 . S
C1463 H1433 0.950 . S
C1463 C1458 1.363 . S
C1463 C1462 1.415 . S
H1464 C1461 0.999 . S
H1465 C1446 0.913 . S
H1466 C1484 0.951 . S
H1467 C1486 0.951 . S
H1468 C1488 0.950 . S
H1469 C1489 0.950 . S
H1470 C1491 0.950 . S
H1471 C1494 0.950 . S
H1472 C1495 0.950 . S
H1473 C1497 0.950 . S
H1474 C1498 0.950 . S
H1475 C1499 0.951 . S
H1476 C1501 0.951 . S
H1477 C1503 0.950 . S
H1478 C1504 0.950 . S
H1479 C1506 0.950 . S
H1480 C1509 0.950 . S
H1481 C1510 0.950 . S
H1482 C1512 0.950 . S
H1483 C1513 0.950 . S
C1484 H1466 0.951 . S
C1484 C1485 1.366 . S
C1484 C1486 1.388 . S
C1485 C1484 1.366 . S
C1485 C1489 1.385 . S
C1486 H1467 0.951 . S
C1486 C1484 1.388 . S
C1486 C1487 1.366 . S
C1487 C1486 1.366 . S
C1487 C1488 1.414 . S
C1487 C1490 1.499 . S
C1488 H1468 0.950 . S
C1488 C1487 1.414 . S
C1488 C1489 1.374 . S
C1489 H1469 0.950 . S
C1489 C1485 1.385 . S
C1489 C1488 1.374 . S
C1490 C1487 1.499 . S
C1490 C1491 1.373 . S
C1490 C1492 1.389 . S
C1491 H1470 0.950 . S
C1491 C1490 1.373 . S
C1491 C1507 1.377 . S
C1492 C1490 1.389 . S
C1492 C1493 1.524 . S
C1492 C1506 1.377 . S
C1493 C1492 1.524 . S
C1493 C1494 1.397 . S
C1493 C1498 1.363 . S
C1494 H1471 0.950 . S
C1494 C1493 1.397 . S
C1494 C1495 1.334 . S
C1495 H1472 0.950 . S
C1495 C1494 1.334 . S
C1495 C1496 1.287 . S
C1496 C1495 1.287 . S
C1496 C1497 1.524 . S
C1496 H1515 0.913 . S
C1497 H1473 0.950 . S
C1497 C1496 1.524 . S
C1497 C1498 1.415 . S
C1498 H1474 0.950 . S
C1498 C1493 1.363 . S
C1498 C1497 1.415 . S
C1499 H1475 0.951 . S
C1499 C1500 1.366 . S
C1499 C1501 1.388 . S
C1500 C1499 1.366 . S
C1500 C1504 1.385 . S
C1501 H1476 0.951 . S
C1501 C1499 1.388 . S
C1501 C1502 1.366 . S
C1502 C1501 1.366 . S
C1502 C1503 1.414 . S
C1502 C1505 1.499 . S
C1503 H1477 0.950 . S
C1503 C1502 1.414 . S
C1503 C1504 1.374 . S
C1504 H1478 0.950 . S
C1504 C1500 1.385 . S
C1504 C1503 1.374 . S
C1505 C1502 1.499 . S
C1505 C1506 1.373 . S
C1505 C1507 1.389 . S
C1506 H1479 0.950 . S
C1506 C1492 1.377 . S
C1506 C1505 1.373 . S
C1507 C1491 1.377 . S
C1507 C1505 1.389 . S
C1507 C1508 1.524 . S
C1508 C1507 1.524 . S
C1508 C1509 1.397 . S
C1508 C1513 1.363 . S
C1509 H1480 0.950 . S
C1509 C1508 1.397 . S
C1509 C1510 1.334 . S
C1510 H1481 0.950 . S
C1510 C1509 1.334 . S
C1510 C1511 1.287 . S
C1511 C1510 1.287 . S
C1511 C1512 1.524 . S
C1511 H1514 0.999 1_554 S
C1512 H1482 0.950 . S
C1512 C1511 1.524 . S
C1512 C1513 1.415 . S
C1513 H1483 0.950 . S
C1513 C1508 1.363 . S
C1513 C1512 1.415 . S
H1514 C1511 0.999 1_556 S
H1515 C1496 0.913 . S
H1516 C1534 0.951 . S
H1517 C1536 0.951 . S
H1518 C1538 0.950 . S
H1519 C1539 0.950 . S
H1520 C1541 0.950 . S
H1521 C1544 0.950 . S
H1522 C1545 0.950 . S
H1523 C1547 0.950 . S
H1524 C1548 0.950 . S
H1525 C1549 0.951 . S
H1526 C1551 0.951 . S
H1527 C1553 0.950 . S
H1528 C1554 0.950 . S
H1529 C1556 0.950 . S
H1530 C1559 0.950 . S
H1531 C1560 0.950 . S
H1532 C1562 0.970 . S
H1533 C1563 0.950 . S
C1534 H1516 0.951 . S
C1534 C1535 1.366 . S
C1534 C1536 1.388 . S
C1535 C1534 1.366 . S
C1535 C1539 1.385 . S
C1536 H1517 0.951 . S
C1536 C1534 1.388 . S
C1536 C1537 1.366 . S
C1537 C1536 1.366 . S
C1537 C1538 1.414 . S
C1537 C1540 1.499 . S
C1538 H1518 0.950 . S
C1538 C1537 1.414 . S
C1538 C1539 1.374 . S
C1539 H1519 0.950 . S
C1539 C1535 1.385 . S
C1539 C1538 1.374 . S
C1540 C1537 1.499 . S
C1540 C1541 1.373 . S
C1540 C1542 1.389 . S
C1541 H1520 0.950 . S
C1541 C1540 1.373 . S
C1541 C1557 1.377 . S
C1542 C1540 1.389 . S
C1542 C1543 1.524 . S
C1542 C1556 1.377 . S
C1543 C1542 1.524 . S
C1543 C1544 1.397 . S
C1543 C1548 1.363 . S
C1544 H1521 0.950 . S
C1544 C1543 1.397 . S
C1544 C1545 1.334 . S
C1545 H1522 0.950 . S
C1545 C1544 1.334 . S
C1545 C1546 1.287 . S
C1546 C1545 1.287 . S
C1546 C1547 1.524 . S
C1546 H1565 0.913 . S
C1547 H1523 0.950 . S
C1547 C1546 1.524 . S
C1547 C1548 1.415 . S
C1548 H1524 0.950 . S
C1548 C1543 1.363 . S
C1548 C1547 1.415 . S
C1549 H1525 0.951 . S
C1549 C1550 1.366 . S
C1549 C1551 1.388 . S
C1550 C1549 1.366 . S
C1550 C1554 1.385 . S
C1551 H1526 0.951 . S
C1551 C1549 1.388 . S
C1551 C1552 1.366 . S
C1552 C1551 1.366 . S
C1552 C1553 1.414 . S
C1552 C1555 1.499 . S
C1553 H1527 0.950 . S
C1553 C1552 1.414 . S
C1553 C1554 1.374 . S
C1554 H1528 0.950 . S
C1554 C1550 1.385 . S
C1554 C1553 1.374 . S
C1555 C1552 1.499 . S
C1555 C1556 1.373 . S
C1555 C1557 1.389 . S
C1556 H1529 0.950 . S
C1556 C1542 1.377 . S
C1556 C1555 1.373 . S
C1557 C1541 1.377 . S
C1557 C1555 1.389 . S
C1557 C1558 1.524 . S
C1558 C1557 1.524 . S
C1558 C1559 1.397 . S
C1558 C1563 1.363 . S
C1559 H1530 0.950 . S
C1559 C1558 1.397 . S
C1559 C1560 1.334 1_455 S
C1560 H1531 0.950 . S
C1560 C1559 1.334 1_655 S
C1560 C1561 1.287 . S
C1561 C1560 1.287 . S
C1561 C1562 1.541 . S
C1561 H1564 0.999 . S
C1562 H1532 0.970 . S
C1562 C1561 1.541 . S
C1562 C1563 1.376 1_655 S
C1563 H1533 0.950 . S
C1563 C1558 1.363 . S
C1563 C1562 1.376 1_455 S
H1564 C1561 0.999 . S
H1565 C1546 0.913 . S
H1566 C1584 0.951 . S
H1567 C1586 0.951 . S
H1568 C1588 0.950 . S
H1569 C1589 0.950 . S
H1570 C1591 0.950 . S
H1571 C1594 0.950 . S
H1572 C1595 0.950 . S
H1573 C1597 0.950 . S
H1574 C1598 0.950 . S
H1575 C1599 0.951 . S
H1576 C1601 0.951 . S
H1577 C1603 0.950 . S
H1578 C1604 0.950 . S
H1579 C1606 0.950 . S
H1580 C1609 0.950 . S
H1581 C1610 0.950 . S
H1582 C1612 0.950 . S
H1583 C1613 0.950 . S
C1584 H1566 0.951 . S
C1584 C1585 1.366 . S
C1584 C1586 1.388 . S
C1585 C1584 1.366 . S
C1585 C1589 1.385 . S
C1586 H1567 0.951 . S
C1586 C1584 1.388 . S
C1586 C1587 1.366 . S
C1587 C1586 1.366 . S
C1587 C1588 1.414 . S
C1587 C1590 1.499 . S
C1588 H1568 0.950 . S
C1588 C1587 1.414 . S
C1588 C1589 1.374 . S
C1589 H1569 0.950 . S
C1589 C1585 1.385 . S
C1589 C1588 1.374 . S
C1590 C1587 1.499 . S
C1590 C1591 1.373 . S
C1590 C1592 1.389 . S
C1591 H1570 0.950 . S
C1591 C1590 1.373 . S
C1591 C1607 1.377 . S
C1592 C1590 1.389 . S
C1592 C1593 1.524 . S
C1592 C1606 1.377 . S
C1593 C1592 1.524 . S
C1593 C1594 1.397 . S
C1593 C1598 1.363 . S
C1594 H1571 0.950 . S
C1594 C1593 1.397 . S
C1594 C1595 1.334 . S
C1595 H1572 0.950 . S
C1595 C1594 1.334 . S
C1595 C1596 1.287 . S
C1596 C1595 1.287 . S
C1596 C1597 1.524 . S
C1596 H1615 0.913 . S
C1597 H1573 0.950 . S
C1597 C1596 1.524 . S
C1597 C1598 1.415 . S
C1598 H1574 0.950 . S
C1598 C1593 1.363 . S
C1598 C1597 1.415 . S
C1599 H1575 0.951 . S
C1599 C1600 1.366 . S
C1599 C1601 1.388 . S
C1600 C1599 1.366 . S
C1600 C1604 1.385 . S
C1601 H1576 0.951 . S
C1601 C1599 1.388 . S
C1601 C1602 1.366 . S
C1602 C1601 1.366 . S
C1602 C1603 1.414 . S
C1602 C1605 1.499 . S
C1603 H1577 0.950 . S
C1603 C1602 1.414 . S
C1603 C1604 1.374 . S
C1604 H1578 0.950 . S
C1604 C1600 1.385 . S
C1604 C1603 1.374 . S
C1605 C1602 1.499 . S
C1605 C1606 1.373 . S
C1605 C1607 1.389 . S
C1606 H1579 0.950 . S
C1606 C1592 1.377 . S
C1606 C1605 1.373 . S
C1607 C1591 1.377 . S
C1607 C1605 1.389 . S
C1607 C1608 1.524 . S
C1608 C1607 1.524 . S
C1608 C1609 1.397 . S
C1608 C1613 1.363 . S
C1609 H1580 0.950 . S
C1609 C1608 1.397 . S
C1609 C1610 1.334 . S
C1610 H1581 0.950 . S
C1610 C1609 1.334 . S
C1610 C1611 1.287 . S
C1611 C1610 1.287 . S
C1611 C1612 1.524 . S
C1611 H1614 0.999 . S
C1612 H1582 0.950 . S
C1612 C1611 1.524 . S
C1612 C1613 1.415 . S
C1613 H1583 0.950 . S
C1613 C1608 1.363 . S
C1613 C1612 1.415 . S
H1614 C1611 0.999 . S
H1615 C1596 0.913 . S
C435 C29 0.935 . S
C450 C271 0.928 . S
C485 C49 1.406 . S
C500 C315 1.472 . S
C550 C345 2.058 . S
C535 C93 2.067 . S
C585 C119 2.724 . S
C600 C386 2.703 . S
C650 C302 0.657 . S
C635 C17 0.656 . S
C700 C266 2.603 . S
C685 C61 2.483 . S
C750 C394 1.090 . S
C735 C81 1.095 . S
C800 C355 2.159 . S
C785 C125 2.221 . S
C835 C23 0.645 . S
C850 C391 0.657 . S
C900 C305 1.948 . S
C885 C87 1.978 . S
C935 C113 2.138 . S
C950 C274 2.083 . S
C985 C55 1.773 . S
C1000 C342 1.864 . S
C1050 C262 0.902 . S
C1035 C157 0.868 . S
C1085 C189 1.591 . S
C1100 C306 1.543 . S
C1135 C221 1.964 . S
C1150 C354 2.021 . S
C1185 C253 2.788 . S
C1200 C395 2.769 . S
C1235 C145 0.726 . S
C1250 C311 0.722 . S
C1300 C275 2.532 . S
C1285 C183 2.543 . S
C1350 C385 1.133 . S
C1335 C209 1.104 . S
C1400 C346 2.128 . S
C1385 C247 2.172 . S
C1435 C151 0.675 . S
C1450 C382 0.641 . S
C1500 C314 1.932 . S
C1485 C215 1.911 . S
C1550 C265 2.065 . S
C1535 C241 2.098 . S
C1585 C177 1.895 . S
C1600 C351 1.880 . S
