# Generated by pormake.
# Topology pyr, (3,6)-cn, num edge types: 1
# Building blocks:
#     Node 0, Type 0, BuildingBlock: CUQRIR_clean_linker_1, # of connection points: 3
#     Node 1, Type 0, BuildingBlock: CUQRIR_clean_linker_1, # of connection points: 3
#     Node 2, Type 0, BuildingBlock: CUQRIR_clean_linker_1, # of connection points: 3
#     Node 3, Type 0, BuildingBlock: CUQRIR_clean_linker_1, # of connection points: 3
#     Node 4, Type 0, BuildingBlock: CUQRIR_clean_linker_1, # of connection points: 3
#     Node 5, Type 0, BuildingBlock: CUQRIR_clean_linker_1, # of connection points: 3
#     Node 6, Type 0, BuildingBlock: CUQRIR_clean_linker_1, # of connection points: 3
#     Node 7, Type 0, BuildingBlock: CUQRIR_clean_linker_1, # of connection points: 3
#     Node 8, Type 1, BuildingBlock: MIFKUJ_clean_sbu_0, # of connection points: 6
#     Node 9, Type 1, BuildingBlock: MIFKUJ_clean_sbu_0, # of connection points: 6
#     Node 10, Type 1, BuildingBlock: MIFKUJ_clean_sbu_0, # of connection points: 6
#     Node 11, Type 1, BuildingBlock: MIFKUJ_clean_sbu_0, # of connection points: 6
#     Edge 12, Type (0, 1), BuildingBlock: ZUJKAS_clean_linker_0, # of connection points: 2
#     Edge 13, Type (0, 1), BuildingBlock: ZUJKAS_clean_linker_0, # of connection points: 2
#     Edge 14, Type (0, 1), BuildingBlock: ZUJKAS_clean_linker_0, # of connection points: 2
#     Edge 15, Type (0, 1), BuildingBlock: ZUJKAS_clean_linker_0, # of connection points: 2
#     Edge 16, Type (0, 1), BuildingBlock: ZUJKAS_clean_linker_0, # of connection points: 2
#     Edge 17, Type (0, 1), BuildingBlock: ZUJKAS_clean_linker_0, # of connection points: 2
#     Edge 18, Type (0, 1), BuildingBlock: ZUJKAS_clean_linker_0, # of connection points: 2
#     Edge 19, Type (0, 1), BuildingBlock: ZUJKAS_clean_linker_0, # of connection points: 2
#     Edge 20, Type (0, 1), BuildingBlock: ZUJKAS_clean_linker_0, # of connection points: 2
#     Edge 21, Type (0, 1), BuildingBlock: ZUJKAS_clean_linker_0, # of connection points: 2
#     Edge 22, Type (0, 1), BuildingBlock: ZUJKAS_clean_linker_0, # of connection points: 2
#     Edge 23, Type (0, 1), BuildingBlock: ZUJKAS_clean_linker_0, # of connection points: 2
#     Edge 24, Type (0, 1), BuildingBlock: ZUJKAS_clean_linker_0, # of connection points: 2
#     Edge 25, Type (0, 1), BuildingBlock: ZUJKAS_clean_linker_0, # of connection points: 2
#     Edge 26, Type (0, 1), BuildingBlock: ZUJKAS_clean_linker_0, # of connection points: 2
#     Edge 27, Type (0, 1), BuildingBlock: ZUJKAS_clean_linker_0, # of connection points: 2
#     Edge 28, Type (0, 1), BuildingBlock: ZUJKAS_clean_linker_0, # of connection points: 2
#     Edge 29, Type (0, 1), BuildingBlock: ZUJKAS_clean_linker_0, # of connection points: 2
#     Edge 30, Type (0, 1), BuildingBlock: ZUJKAS_clean_linker_0, # of connection points: 2
#     Edge 31, Type (0, 1), BuildingBlock: ZUJKAS_clean_linker_0, # of connection points: 2
#     Edge 32, Type (0, 1), BuildingBlock: ZUJKAS_clean_linker_0, # of connection points: 2
#     Edge 33, Type (0, 1), BuildingBlock: ZUJKAS_clean_linker_0, # of connection points: 2
#     Edge 34, Type (0, 1), BuildingBlock: ZUJKAS_clean_linker_0, # of connection points: 2
#     Edge 35, Type (0, 1), BuildingBlock: ZUJKAS_clean_linker_0, # of connection points: 2
# Relax obj value: 0.092
# Max RMSD: 0.222
# Mean RMSD: 0.153
data_MOF--net-pyr--node1-MIFKUJ_clean_sbu_0--node2-CUQRIR_clean_linker_1--edge1-ZUJKAS_clean_linker_0
_symmetry_space_group_name_H-M    P1
_symmetry_Int_Tables_number       1
_symmetry_cell_setting            triclinic
loop_
_symmetry_equiv_pos_as_xyz
'x, y, z'
_cell_length_a     47.875171
_cell_length_b     43.152328
_cell_length_c     45.50145
_cell_angle_alpha  84.247432
_cell_angle_beta   90.284645
_cell_angle_gamma 99.566162
loop_
_atom_site_label
_atom_site_type_symbol
_atom_site_fract_x
_atom_site_fract_y
_atom_site_fract_z
_atom_type_partial_charge
C0 C 0.18279 0.20242 0.19904 0.0
N1 N 0.20141 0.18232 0.20558 0.0
N2 N 0.18694 0.21631 0.17105 0.0
C3 C 0.15857 0.20604 0.21875 0.0
C4 C 0.20843 0.20359 0.16055 0.0
N5 N 0.21708 0.18271 0.18146 0.0
C6 C 0.22199 0.21286 0.13052 0.0
H7 H 0.15069 0.1836 0.23249 0.0
H8 H 0.14074 0.21331 0.20561 0.0
H9 H 0.16603 0.22448 0.23363 0.0
H10 H 0.24492 0.21142 0.13125 0.0
H11 H 0.21924 0.23717 0.12204 0.0
H12 H 0.21177 0.1963 0.115 0.0
C13 C 0.34679 0.83918 0.67596 0.0
N14 N 0.34199 0.85998 0.69504 0.0
N15 N 0.37085 0.8276 0.68298 0.0
C16 C 0.32746 0.82954 0.65106 0.0
C17 C 0.38057 0.84217 0.70689 0.0
N18 N 0.3632 0.86207 0.71406 0.0
C19 C 0.40681 0.83664 0.72349 0.0
H20 H 0.30949 0.81156 0.66013 0.0
H21 H 0.33835 0.8191 0.63407 0.0
H22 H 0.31873 0.85015 0.64054 0.0
H23 H 0.42217 0.82866 0.70895 0.0
H24 H 0.40078 0.818 0.74203 0.0
H25 H 0.41705 0.8584 0.7329 0.0
C26 C 0.64857 0.35741 0.82569 0.0
N27 N 0.66662 0.35271 0.84802 0.0
N28 N 0.66018 0.38186 0.80617 0.0
C29 C 0.62056 0.33657 0.82183 0.0
C30 C 0.68606 0.39168 0.81737 0.0
N31 N 0.69013 0.37364 0.84266 0.0
C32 C 0.70615 0.42066 0.8051 0.0
H33 H 0.61505 0.33631 0.79813 0.0
H34 H 0.60382 0.34576 0.83344 0.0
H35 H 0.62098 0.31201 0.83152 0.0
H36 H 0.69459 0.43792 0.79267 0.0
H37 H 0.72144 0.41365 0.78982 0.0
H38 H 0.71822 0.43221 0.82306 0.0
C39 C 0.83311 0.64069 0.29721 0.0
N40 N 0.85845 0.65931 0.29052 0.0
N41 N 0.82184 0.64861 0.32208 0.0
C42 C 0.82035 0.61321 0.28085 0.0
C43 C 0.84122 0.67258 0.33038 0.0
N44 N 0.86358 0.67881 0.31144 0.0
C45 C 0.83762 0.6912 0.35599 0.0
H46 H 0.80723 0.62176 0.26259 0.0
H47 H 0.80658 0.59505 0.29569 0.0
H48 H 0.83712 0.60225 0.27124 0.0
H49 H 0.84853 0.6814 0.37548 0.0
H50 H 0.81494 0.68992 0.3617 0.0
H51 H 0.84729 0.71634 0.3509 0.0
C52 C 0.81816 0.86 0.84283 0.0
N53 N 0.83908 0.85526 0.82472 0.0
N54 N 0.80238 0.88014 0.82894 0.0
C55 C 0.81306 0.8449 0.87404 0.0
C56 C 0.81426 0.88735 0.80167 0.0
N57 N 0.83636 0.87185 0.79894 0.0
C58 C 0.80462 0.90993 0.77791 0.0
H59 H 0.79104 0.84464 0.88156 0.0
H60 H 0.8276 0.85859 0.88892 0.0
H61 H 0.81751 0.82035 0.87597 0.0
H62 H 0.82315 0.92447 0.76587 0.0
H63 H 0.79149 0.92564 0.78704 0.0
H64 H 0.79169 0.89619 0.76183 0.0
C65 C 0.71393 0.19211 0.38816 0.0
N66 N 0.7204 0.17029 0.37089 0.0
N67 N 0.6916 0.20495 0.37709 0.0
C68 C 0.73076 0.20287 0.41435 0.0
C69 C 0.68475 0.1903 0.35249 0.0
N70 N 0.7024 0.16958 0.34852 0.0
C71 C 0.65958 0.19462 0.33346 0.0
H72 H 0.72257 0.18735 0.43443 0.0
H73 H 0.72873 0.22751 0.41773 0.0
H74 H 0.75348 0.2014 0.41144 0.0
H75 H 0.66653 0.21276 0.31474 0.0
H76 H 0.64284 0.20259 0.34616 0.0
H77 H 0.65051 0.17231 0.32426 0.0
C78 C 0.32172 0.64801 0.19914 0.0
N79 N 0.34636 0.66518 0.20719 0.0
N80 N 0.30887 0.66482 0.17796 0.0
C81 C 0.30893 0.61602 0.21386 0.0
C82 C 0.32643 0.69294 0.17364 0.0
N83 N 0.34899 0.69332 0.19173 0.0
C84 C 0.32292 0.71887 0.14987 0.0
H85 H 0.31656 0.59751 0.2023 0.0
H86 H 0.28547 0.61238 0.21285 0.0
H87 H 0.31534 0.61326 0.23732 0.0
H88 H 0.31152 0.73604 0.1593 0.0
H89 H 0.31052 0.70932 0.13118 0.0
H90 H 0.34382 0.73163 0.14139 0.0
C91 C 0.15605 0.346 0.73511 0.0
N92 N 0.17408 0.34275 0.71329 0.0
N93 N 0.1641 0.37386 0.74652 0.0
C94 C 0.12988 0.32267 0.74435 0.0
C95 C 0.18764 0.38751 0.73073 0.0
N96 N 0.19355 0.36868 0.71024 0.0
C97 C 0.20435 0.41957 0.73473 0.0
H98 H 0.11255 0.32682 0.72892 0.0
H99 H 0.12307 0.3254 0.76708 0.0
H100 H 0.13358 0.29812 0.74327 0.0
H101 H 0.20222 0.426 0.75745 0.0
H102 H 0.19623 0.43754 0.71936 0.0
H103 H 0.22712 0.42038 0.72968 0.0
Zn104 Zn 0.07424 0.01764 0.53329 0.0
Zn105 Zn 0.00534 0.99804 0.47557 0.0
C106 C 0.10502 0.07596 0.54748 0.0
O107 O 0.12502 0.06408 0.53502 0.0
C108 C 0.97015 0.94768 0.44794 0.0
O109 O 0.94937 0.95979 0.4586 0.0
O110 O 0.10476 0.99519 0.55261 0.0
O111 O 0.03668 0.99311 0.54816 0.0
O112 O 0.99978 0.98229 0.51887 0.0
C113 C 0.10929 0.99721 0.58001 0.0
O114 O 0.09338 0.0125 0.59475 0.0
O115 O 0.07995 0.06044 0.54886 0.0
C116 C 0.97078 0.03478 0.43759 0.0
O117 O 0.98633 0.0272 0.41657 0.0
O118 O 0.97598 0.02624 0.46439 0.0
O119 O 0.04448 0.01799 0.4603 0.0
O120 O 0.08207 0.0255 0.48947 0.0
O121 O 0.99558 0.95978 0.4529 0.0
C122 C 0.01112 0.98068 0.54421 0.0
C123 C 0.07088 0.02672 0.46406 0.0
Zn124 Zn 0.53378 0.99785 0.00935 0.0
Zn125 Zn 0.50691 0.04067 0.07243 0.0
C126 C 0.49519 0.96004 0.97373 0.0
O127 O 0.50956 0.93854 0.98542 0.0
C128 C 0.54953 0.06506 0.1115 0.0
O129 O 0.54608 0.09089 0.09498 0.0
O130 O 0.5663 0.98153 0.99164 0.0
O131 O 0.54572 0.0447 0.00698 0.0
O132 O 0.52757 0.07097 0.0397 0.0
C133 C 0.5751 0.99316 0.96592 0.0
O134 O 0.56283 0.0154 0.95203 0.0
O135 O 0.50072 0.98779 0.98179 0.0
C136 C 0.45673 0.04554 0.10564 0.0
O137 O 0.45961 0.0168 0.11621 0.0
O138 O 0.47454 0.06063 0.08651 0.0
O139 O 0.49063 0.9961 0.0635 0.0
O140 O 0.52601 0.97399 0.04953 0.0
O141 O 0.53455 0.03896 0.10636 0.0
C142 C 0.54286 0.07041 0.01705 0.0
C143 C 0.50537 0.97409 0.06692 0.0
Zn144 Zn 0.50988 0.48251 0.4862 0.0
Zn145 Zn 0.49116 0.53569 0.51966 0.0
C146 C 0.54984 0.52146 0.44801 0.0
O147 O 0.53188 0.50846 0.42906 0.0
C148 C 0.45092 0.50176 0.56096 0.0
O149 O 0.46737 0.51989 0.57777 0.0
O150 O 0.52015 0.44317 0.47082 0.0
O151 O 0.50749 0.47313 0.5307 0.0
O152 O 0.52629 0.52192 0.53673 0.0
C153 C 0.54255 0.43525 0.48238 0.0
O154 O 0.55517 0.45184 0.50283 0.0
O155 O 0.54454 0.51494 0.47548 0.0
C156 C 0.46374 0.58692 0.53146 0.0
O157 O 0.44614 0.57399 0.51217 0.0
O158 O 0.48588 0.57511 0.53796 0.0
O159 O 0.48957 0.5461 0.47599 0.0
O160 O 0.47729 0.4977 0.4633 0.0
O161 O 0.45714 0.50313 0.53366 0.0
C162 C 0.52356 0.49262 0.54504 0.0
C163 C 0.47749 0.52733 0.45823 0.0
Zn164 Zn 0.99039 0.55428 0.98467 0.0
Zn165 Zn 0.00444 0.49844 0.0236 0.0
C166 C 0.94731 0.51634 0.95462 0.0
O167 O 0.96366 0.5295 0.93212 0.0
C168 C 0.04766 0.52697 0.05722 0.0
O169 O 0.03103 0.50832 0.07681 0.0
O170 O 0.98397 0.59416 0.96044 0.0
O171 O 0.994 0.56376 0.02705 0.0
O172 O 0.97396 0.51586 0.04466 0.0
C173 C 0.96383 0.60734 0.96851 0.0
O174 O 0.94926 0.59513 0.99252 0.0
O175 O 0.95439 0.52312 0.98047 0.0
C176 C 0.03293 0.44752 0.03294 0.0
O177 O 0.04565 0.4644 0.00968 0.0
O178 O 0.01187 0.45675 0.04431 0.0
O179 O 1.00108 0.49086 0.98054 0.0
O180 O 0.02283 0.5386 0.96594 0.0
O181 O 0.04066 0.52808 0.03019 0.0
C182 C 0.97976 0.54538 0.04723 0.0
C183 C 0.01787 0.50935 0.96261 0.0
H184 H 0.20466 0.20008 0.26051 0.0
H185 H 0.19171 0.16577 0.30583 0.0
H186 H 0.18754 0.08396 0.25747 0.0
H187 H 0.19807 0.11886 0.21153 0.0
H188 H 0.14243 0.07777 0.28587 0.0
H189 H 0.22414 0.11274 0.36646 0.0
H190 H 0.21179 0.14782 0.35141 0.0
H191 H 0.22925 0.12564 0.32763 0.0
C192 C 0.20158 0.17474 0.2598 0.0
C193 C 0.20194 0.16204 0.23264 0.0
C194 C 0.19455 0.15502 0.28581 0.0
C195 C 0.18884 0.12204 0.2854 0.0
C196 C 0.19178 0.10928 0.25849 0.0
H197 H 0.12685 0.02291 0.45727 0.0
H198 H 0.15695 0.04083 0.41348 0.0
C199 C 0.19812 0.12915 0.23228 0.0
C200 C 0.1756 0.10173 0.31178 0.0
H201 H 0.1761 0.09434 0.38717 0.0
C202 C 0.15027 0.08088 0.30796 0.0
C203 C 0.18585 0.10492 0.34077 0.0
C204 C 0.21444 0.12374 0.34667 0.0
C205 C 0.1341 0.0649 0.33218 0.0
C206 C 0.14266 0.07111 0.36115 0.0
C207 C 0.16895 0.09019 0.36503 0.0
C208 C 0.12418 0.0592 0.3875 0.0
C209 C 0.10801 0.04158 0.32624 0.0
C210 C 0.0958 0.06384 0.38779 0.0
C211 C 0.0784 0.05288 0.41248 0.0
C212 C 0.08929 0.03807 0.43787 0.0
C213 C 0.11789 0.03426 0.43799 0.0
C214 C 0.13511 0.0445 0.41297 0.0
H215 H 0.11067 0.03049 0.30564 0.0
H216 H 0.10315 0.02259 0.3447 0.0
H217 H 0.08965 0.05418 0.32308 0.0
H218 H 0.08708 0.07627 0.369 0.0
H219 H 0.05656 0.05659 0.41193 0.0
H220 H 0.34365 0.84184 0.76885 0.0
H221 H 0.35972 0.86582 0.81402 0.0
H222 H 0.40783 0.94518 0.76105 0.0
H223 H 0.39197 0.92062 0.71605 0.0
H224 H 0.44026 0.91649 0.80042 0.0
H225 H 0.34539 0.93907 0.85848 0.0
H226 H 0.34161 0.89969 0.84775 0.0
H227 H 0.34529 0.93274 0.81982 0.0
C228 C 0.35665 0.86503 0.76706 0.0
C229 C 0.36619 0.87985 0.73926 0.0
C230 C 0.36586 0.87874 0.79277 0.0
C231 C 0.38476 0.90754 0.79099 0.0
C232 C 0.39305 0.92313 0.763 0.0
H233 H 0.46455 0.99984 0.94141 0.0
H234 H 0.43619 0.98884 0.89739 0.0
C235 C 0.38385 0.90934 0.73734 0.0
C236 C 0.39904 0.91885 0.81798 0.0
H237 H 0.38723 0.93736 0.88773 0.0
C238 C 0.42864 0.92146 0.81933 0.0
C239 C 0.38395 0.92542 0.84268 0.0
C240 C 0.35233 0.9244 0.84208 0.0
C241 C 0.44344 0.9294 0.84494 0.0
C242 C 0.42826 0.93452 0.87008 0.0
C243 C 0.39878 0.93307 0.86851 0.0
C244 C 0.44285 0.94041 0.89834 0.0
C245 C 0.47527 0.93198 0.845 0.0
C246 C 0.4553 0.91657 0.91386 0.0
C247 C 0.47141 0.9227 0.93896 0.0
C248 C 0.47544 0.95286 0.9491 0.0
C249 C 0.46194 0.97638 0.93418 0.0
C250 C 0.44571 0.97015 0.90905 0.0
H251 H 0.48424 0.93458 0.82224 0.0
H252 H 0.48523 0.95243 0.85656 0.0
H253 H 0.48102 0.91025 0.85692 0.0
H254 H 0.45309 0.89335 0.90613 0.0
H255 H 0.48134 0.90396 0.94994 0.0
H256 H 0.68404 0.39269 0.7518 0.0
H257 H 0.66309 0.41396 0.70639 0.0
H258 H 0.58685 0.41808 0.75507 0.0
H259 H 0.60855 0.3987 0.80065 0.0
H260 H 0.61781 0.39042 0.67735 0.0
H261 H 0.60166 0.50512 0.71285 0.0
H262 H 0.62273 0.47985 0.73364 0.0
H263 H 0.58471 0.47261 0.73764 0.0
C264 C 0.66303 0.39875 0.75273 0.0
C265 C 0.6479 0.39434 0.77957 0.0
C266 C 0.651 0.41063 0.72686 0.0
C267 C 0.62357 0.41814 0.72742 0.0
C268 C 0.6083 0.41326 0.75422 0.0
H269 H 0.5136 0.43459 0.57674 0.0
H270 H 0.5388 0.41655 0.62034 0.0
C271 C 0.6205 0.40181 0.78013 0.0
C272 C 0.61058 0.43006 0.69982 0.0
H273 H 0.57686 0.48917 0.66967 0.0
C274 C 0.60907 0.41215 0.67557 0.0
C275 C 0.59963 0.45871 0.69732 0.0
C276 C 0.60253 0.48034 0.72165 0.0
C277 C 0.59631 0.42172 0.64912 0.0
C278 C 0.58391 0.44942 0.64724 0.0
C279 C 0.58602 0.4677 0.67125 0.0
C280 C 0.56876 0.46007 0.62059 0.0
C281 C 0.59672 0.40231 0.62336 0.0
C282 C 0.57659 0.49086 0.6068 0.0
C283 C 0.56182 0.50145 0.58231 0.0
C284 C 0.53905 0.48135 0.57101 0.0
C285 C 0.53124 0.45051 0.58479 0.0
C286 C 0.54577 0.44008 0.60957 0.0
H287 H 0.61438 0.38848 0.62507 0.0
H288 H 0.57661 0.3853 0.62324 0.0
H289 H 0.59888 0.41745 0.602 0.0
H290 H 0.59419 0.50674 0.61499 0.0
H291 H 0.5684 0.52532 0.5721 0.0
H292 H 0.913 0.65072 0.29237 0.0
H293 H 0.9407 0.63788 0.2512 0.0
H294 H 0.87094 0.64832 0.19262 0.0
H295 H 0.84416 0.66262 0.23333 0.0
H296 H 0.92765 0.58761 0.22251 0.0
H297 H 0.93493 0.69194 0.14062 0.0
H298 H 0.92414 0.69284 0.17842 0.0
H299 H 0.89878 0.67805 0.15161 0.0
C300 C 0.9042 0.65142 0.2704 0.0
C301 C 0.87659 0.65764 0.26581 0.0
C302 C 0.91983 0.64379 0.24698 0.0
C303 C 0.90804 0.64236 0.21866 0.0
C304 C 0.88086 0.64996 0.21396 0.0
H305 H 0.93802 0.51914 0.08769 0.0
H306 H 0.92263 0.54284 0.13025 0.0
C307 C 0.86544 0.65786 0.23725 0.0
C308 C 0.92266 0.62982 0.19479 0.0
H309 H 0.93963 0.64283 0.12133 0.0
C310 C 0.93069 0.59993 0.20049 0.0
C311 C 0.92701 0.64595 0.16612 0.0
C312 C 0.92103 0.67911 0.15894 0.0
C313 C 0.94191 0.58527 0.17811 0.0
C314 C 0.94432 0.60044 0.14895 0.0
C315 C 0.93733 0.63086 0.14352 0.0
C316 C 0.95404 0.58538 0.12369 0.0
C317 C 0.95124 0.5538 0.18609 0.0
C318 C 0.97626 0.60166 0.10529 0.0
C319 C 0.98462 0.58849 0.08064 0.0
C320 C 0.97107 0.55859 0.0739 0.0
C321 C 0.94903 0.54207 0.09247 0.0
C322 C 0.94037 0.55552 0.11694 0.0
H323 H 0.95685 0.55068 0.20981 0.0
H324 H 0.93358 0.53457 0.18215 0.0
H325 H 0.96982 0.55124 0.17258 0.0
H326 H 0.98713 0.62471 0.10995 0.0
H327 H 1.00179 0.60178 0.06687 0.0
H328 H 0.26552 0.18778 0.21226 0.0
H329 H 0.3075 0.16429 0.20197 0.0
H330 H 0.26154 0.11496 0.134 0.0
H331 H 0.22019 0.13942 0.14372 0.0
H332 H 0.31943 0.10575 0.20273 0.0
H333 H 0.32915 0.1624 0.08785 0.0
H334 H 0.30512 0.17233 0.11442 0.0
H335 H 0.29533 0.13788 0.09493 0.0
C336 C 0.26451 0.17159 0.19543 0.0
C337 C 0.24 0.16546 0.17855 0.0
C338 C 0.28839 0.15828 0.18947 0.0
C339 C 0.28797 0.13853 0.16662 0.0
C340 C 0.26273 0.13091 0.15105 0.0
H341 H 0.40921 0.01582 0.1362 0.0
H342 H 0.36933 0.03909 0.15195 0.0
C343 C 0.23908 0.14456 0.15675 0.0
C344 C 0.31401 0.12655 0.15849 0.0
H345 H 0.35727 0.12233 0.10005 0.0
C346 C 0.32781 0.10952 0.18032 0.0
C347 C 0.32542 0.13212 0.1294 0.0
C348 C 0.31318 0.15248 0.1054 0.0
C349 C 0.35217 0.09716 0.17368 0.0
C350 C 0.36256 0.10111 0.14419 0.0
C351 C 0.34917 0.11888 0.12257 0.0
C352 C 0.38713 0.08699 0.13511 0.0
C353 C 0.36678 0.08052 0.19851 0.0
C354 C 0.4101 0.10587 0.1194 0.0
C355 C 0.43269 0.09248 0.10976 0.0
C356 C 0.43287 0.05991 0.11578 0.0
C357 C 0.40989 0.04105 0.13148 0.0
C358 C 0.38714 0.05438 0.14075 0.0
H359 H 0.36224 0.08859 0.22016 0.0
H360 H 0.35883 0.05476 0.19974 0.0
H361 H 0.39009 0.08455 0.19498 0.0
H362 H 0.41055 0.13106 0.11459 0.0
H363 H 0.45008 0.10767 0.09774 0.0
H364 H 0.34468 0.92306 0.68651 0.0
H365 H 0.30485 0.95112 0.67405 0.0
H366 H 0.24712 0.86255 0.68605 0.0
H367 H 0.28674 0.83511 0.69988 0.0
H368 H 0.27365 0.94352 0.62707 0.0
H369 H 0.20152 0.91709 0.72381 0.0
H370 H 0.23763 0.91003 0.72559 0.0
H371 H 0.2101 0.88141 0.71196 0.0
C372 C 0.3233 0.90999 0.68769 0.0
C373 C 0.31858 0.87708 0.69421 0.0
C374 C 0.3006 0.92588 0.68026 0.0
C375 C 0.27284 0.90904 0.67927 0.0
C376 C 0.2681 0.87628 0.68729 0.0
H377 H 0.14153 0.95675 0.5596 0.0
H378 H 0.18132 0.93643 0.58427 0.0
C379 C 0.29073 0.86054 0.69497 0.0
C380 C 0.24946 0.92484 0.66659 0.0
H381 H 0.18028 0.93175 0.67731 0.0
C382 C 0.25337 0.94132 0.63828 0.0
C383 C 0.22302 0.92232 0.68121 0.0
C384 C 0.21793 0.90704 0.71245 0.0
C385 C 0.23141 0.95442 0.62385 0.0
C386 C 0.20442 0.9501 0.63768 0.0
C387 C 0.20078 0.93459 0.66642 0.0
C388 C 0.17978 0.96171 0.62288 0.0
C389 C 0.23754 0.97306 0.59405 0.0
C390 C 0.16486 0.98166 0.6368 0.0
C391 C 0.14178 0.99279 0.623 0.0
C392 C 0.13314 0.98431 0.59489 0.0
C393 C 0.14782 0.96397 0.58112 0.0
C394 C 0.17072 0.95254 0.59512 0.0
H395 H 0.26049 0.98258 0.59103 0.0
H396 H 0.23127 0.95731 0.57646 0.0
H397 H 0.22556 0.99306 0.59109 0.0
H398 H 0.1713 0.98896 0.65826 0.0
H399 H 0.13098 0.00844 0.63424 0.0
H400 H 0.69149 0.38088 0.90094 0.0
H401 H 0.73408 0.39537 0.93027 0.0
H402 H 0.78653 0.39103 0.85441 0.0
H403 H 0.74404 0.37516 0.82573 0.0
H404 H 0.80971 0.36889 0.90581 0.0
H405 H 0.77672 0.48501 0.91684 0.0
H406 H 0.75232 0.45108 0.93204 0.0
H407 H 0.75883 0.45748 0.89285 0.0
C408 C 0.71219 0.38223 0.89094 0.0
C409 C 0.71471 0.3774 0.8611 0.0
C410 C 0.73644 0.39085 0.90751 0.0
C411 C 0.76346 0.3951 0.89428 0.0
C412 C 0.76592 0.38816 0.86502 0.0
H413 H 0.93171 0.48877 0.90445 0.0
H414 H 0.88695 0.45522 0.89489 0.0
C415 C 0.74174 0.37929 0.8486 0.0
C416 C 0.78913 0.40908 0.90975 0.0
H417 H 0.82098 0.47764 0.93584 0.0
C418 C 0.81205 0.39251 0.91273 0.0
C419 C 0.7922 0.43999 0.91867 0.0
C420 C 0.76885 0.45961 0.91477 0.0
C421 C 0.8382 0.40638 0.92357 0.0
C422 C 0.84148 0.4376 0.93149 0.0
C423 C 0.81826 0.45363 0.92983 0.0
C424 C 0.86946 0.4553 0.93862 0.0
C425 C 0.86231 0.38783 0.92589 0.0
C426 C 0.87436 0.4666 0.96636 0.0
C427 C 0.90001 0.48578 0.97195 0.0
C428 C 0.92092 0.4944 0.94966 0.0
C429 C 0.91602 0.48266 0.92205 0.0
C430 C 0.89054 0.46326 0.91661 0.0
H431 H 0.85457 0.36201 0.92662 0.0
H432 H 0.87644 0.395 0.90626 0.0
H433 H 0.87504 0.39264 0.94589 0.0
H434 H 0.85818 0.46093 0.98352 0.0
H435 H 0.90316 0.49453 0.99342 0.0
H436 H 0.81226 0.62614 0.37913 0.0
H437 H 0.76603 0.60708 0.40333 0.0
H438 H 0.72468 0.62243 0.31989 0.0
H439 H 0.77091 0.64268 0.29606 0.0
H440 H 0.69965 0.64586 0.36506 0.0
H441 H 0.71541 0.52267 0.39837 0.0
H442 H 0.74233 0.55209 0.41138 0.0
H443 H 0.73861 0.54909 0.37236 0.0
C444 C 0.79321 0.62532 0.36611 0.0
C445 C 0.79491 0.63567 0.33584 0.0
C446 C 0.76691 0.61423 0.37981 0.0
C447 C 0.74196 0.6129 0.36331 0.0
C448 C 0.7437 0.62311 0.33298 0.0
H449 H 0.56445 0.54562 0.39155 0.0
H450 H 0.61127 0.57107 0.37283 0.0
C451 C 0.76999 0.6344 0.31936 0.0
C452 C 0.71396 0.6017 0.37774 0.0
H453 H 0.67402 0.53801 0.41663 0.0
C454 C 0.69402 0.62227 0.37631 0.0
C455 C 0.70673 0.57094 0.39247 0.0
C456 C 0.72677 0.54729 0.39356 0.0
C457 C 0.66701 0.61288 0.38924 0.0
C458 C 0.65979 0.58211 0.40378 0.0
C459 C 0.67981 0.56169 0.40562 0.0
C460 C 0.631 0.56984 0.4157 0.0
C461 C 0.64641 0.6359 0.38736 0.0
C462 C 0.62665 0.5609 0.44604 0.0
C463 C 0.59986 0.54643 0.45686 0.0
C464 C 0.57718 0.54025 0.43738 0.0
C465 C 0.58151 0.55003 0.4071 0.0
C466 C 0.60819 0.56471 0.39637 0.0
H467 H 0.65726 0.66062 0.38181 0.0
H468 H 0.63081 0.62996 0.36982 0.0
H469 H 0.63459 0.63439 0.40853 0.0
H470 H 0.64411 0.56454 0.46124 0.0
H471 H 0.59722 0.53902 0.48028 0.0
H472 H 0.15957 0.21258 0.11924 0.0
H473 H 0.1319 0.25107 0.09524 0.0
H474 H 0.15177 0.30966 0.16647 0.0
H475 H 0.17982 0.27151 0.18999 0.0
H476 H 0.08437 0.27252 0.11884 0.0
H477 H 0.17405 0.37066 0.0918 0.0
H478 H 0.17915 0.33042 0.10168 0.0
H479 H 0.17202 0.35453 0.12983 0.0
C480 C 0.15826 0.23394 0.1294 0.0
C481 C 0.17183 0.23938 0.15624 0.0
C482 C 0.14235 0.25572 0.11589 0.0
C483 C 0.14001 0.28332 0.12897 0.0
C484 C 0.15364 0.28874 0.1558 0.0
H485 H 0.02068 0.41433 0.08749 0.0
H486 H 0.04499 0.37279 0.1113 0.0
C487 C 0.16949 0.26698 0.16927 0.0
C488 C 0.12302 0.3063 0.11479 0.0
H489 H 0.12782 0.38264 0.08455 0.0
C490 C 0.09382 0.29659 0.11126 0.0
C491 C 0.1355 0.33759 0.1048 0.0
C492 C 0.16694 0.34895 0.10693 0.0
C493 C 0.07669 0.3175 0.09815 0.0
C494 C 0.0891 0.34896 0.08865 0.0
C495 C 0.11833 0.35856 0.09206 0.0
C496 C 0.07257 0.3721 0.07388 0.0
C497 C 0.04561 0.30564 0.09401 0.0
C498 C 0.07998 0.3854 0.04504 0.0
C499 C 0.06632 0.40909 0.03154 0.0
C500 C 0.04495 0.42012 0.04662 0.0
C501 C 0.03692 0.40618 0.07525 0.0
C502 C 0.05074 0.38241 0.08884 0.0
H503 H 0.04069 0.27942 0.09647 0.0
H504 H 0.03314 0.31446 0.11091 0.0
H505 H 0.03862 0.3145 0.07189 0.0
H506 H 0.09674 0.37778 0.03311 0.0
H507 H 0.07295 0.4192 0.00942 0.0
H508 H 0.62755 0.34653 0.89098 0.0
H509 H 0.61238 0.29925 0.92553 0.0
H510 H 0.67854 0.25535 0.89176 0.0
H511 H 0.69383 0.30303 0.85743 0.0
H512 H 0.61798 0.2238 0.88755 0.0
H513 H 0.64874 0.25459 1.0004 0.0
H514 H 0.63391 0.28354 0.97672 0.0
H515 H 0.66767 0.27403 0.96753 0.0
C516 C 0.63931 0.32709 0.8918 0.0
C517 C 0.66181 0.32809 0.87196 0.0
C518 C 0.63075 0.30024 0.91144 0.0
C519 C 0.6445 0.27398 0.91128 0.0
C520 C 0.6679 0.27556 0.89237 0.0
H521 H 0.58605 0.07763 0.97674 0.0
H522 H 0.61199 0.12666 0.95217 0.0
C523 C 0.67667 0.30264 0.87295 0.0
C524 C 0.63185 0.24367 0.9277 0.0
H525 H 0.61686 0.20674 0.99703 0.0
C526 C 0.61798 0.21983 0.91148 0.0
C527 C 0.63152 0.23901 0.95885 0.0
C528 C 0.64638 0.264 0.97705 0.0
C529 C 0.60315 0.19158 0.92562 0.0
C530 C 0.60296 0.18667 0.95687 0.0
C531 C 0.61708 0.2105 0.9731 0.0
C532 C 0.58807 0.15701 0.97301 0.0
C533 C 0.58696 0.16782 0.90691 0.0
C534 C 0.5667 0.15779 0.99383 0.0
C535 C 0.55203 0.12971 0.00834 0.0
C536 C 0.55841 0.10036 1.00214 0.0
C537 C 0.58022 0.09977 0.98168 0.0
C538 C 0.59505 0.1278 0.96751 0.0
H539 H 0.58233 0.17898 0.88473 0.0
H540 H 0.5999 0.14934 0.90365 0.0
H541 H 0.56663 0.15623 0.91771 0.0
H542 H 0.56109 0.18011 0.99853 0.0
H543 H 0.53547 0.13099 0.02409 0.0
H544 H 0.90955 0.67799 0.34493 0.0
H545 H 0.93825 0.72504 0.36236 0.0
H546 H 0.89591 0.7843 0.30133 0.0
H547 H 0.86798 0.73703 0.2834 0.0
H548 H 0.95309 0.81164 0.31338 0.0
H549 H 0.88913 0.76682 0.41519 0.0
H550 H 0.9108 0.74023 0.40307 0.0
H551 H 0.88198 0.75023 0.3806 0.0
C552 C 0.90769 0.70109 0.33418 0.0
C553 C 0.88692 0.70418 0.31277 0.0
C554 C 0.92372 0.72792 0.34436 0.0
C555 C 0.91865 0.75813 0.33367 0.0
C556 C 0.90011 0.76121 0.30994 0.0
H557 H 0.91842 0.91856 0.43086 0.0
H558 H 0.90815 0.87367 0.40158 0.0
C559 C 0.88434 0.73431 0.29951 0.0
C560 C 0.92876 0.78569 0.35023 0.0
H561 H 0.92067 0.81445 0.41636 0.0
C562 C 0.94622 0.81224 0.33597 0.0
C563 C 0.91924 0.78662 0.37951 0.0
C564 C 0.89906 0.75962 0.39549 0.0
C565 C 0.95446 0.83971 0.35029 0.0
C566 C 0.94518 0.8404 0.37968 0.0
C567 C 0.92787 0.81379 0.3939 0.0
C568 C 0.95202 0.86882 0.39591 0.0
C569 C 0.97224 0.86808 0.33357 0.0
C570 C 0.98011 0.88095 0.40258 0.0
C571 C 0.98608 0.9067 0.41934 0.0
C572 C 0.96401 0.92061 0.42994 0.0
C573 C 0.93591 0.9084 0.42314 0.0
C574 C 0.93 0.88276 0.40634 0.0
H575 H 0.97204 0.86632 0.30938 0.0
H576 H 0.96462 0.89017 0.33788 0.0
H577 H 0.99448 0.86981 0.34106 0.0
H578 H 0.99739 0.87015 0.39531 0.0
H579 H 0.00796 0.91547 0.42425 0.0
H580 H 0.37706 0.76989 0.70748 0.0
H581 H 0.39645 0.72928 0.68354 0.0
H582 H 0.41007 0.7922 0.60312 0.0
H583 H 0.39148 0.83295 0.62751 0.0
H584 H 0.37624 0.7004 0.63571 0.0
H585 H 0.48587 0.76267 0.61261 0.0
H586 H 0.46222 0.77603 0.6375 0.0
H587 H 0.45964 0.78518 0.59822 0.0
C588 C 0.38453 0.77493 0.68481 0.0
C589 C 0.38274 0.80419 0.66912 0.0
C590 C 0.39551 0.75185 0.67114 0.0
C591 C 0.40505 0.75783 0.64163 0.0
C592 C 0.40341 0.78726 0.62605 0.0
H593 H 0.41974 0.61922 0.52048 0.0
H594 H 0.40637 0.66057 0.54775 0.0
C595 C 0.39256 0.81035 0.6398 0.0
C596 C 0.41531 0.73273 0.6267 0.0
H597 H 0.47101 0.7167 0.58753 0.0
C598 C 0.39705 0.70389 0.62536 0.0
C599 C 0.4426 0.73712 0.61355 0.0
C600 C 0.46384 0.7668 0.61577 0.0
C601 C 0.40502 0.67963 0.61059 0.0
C602 C 0.43176 0.68461 0.59619 0.0
C603 C 0.45036 0.71309 0.59822 0.0
C604 C 0.44072 0.66053 0.57885 0.0
C605 C 0.38481 0.64877 0.61082 0.0
C606 C 0.46512 0.64763 0.58654 0.0
C607 C 0.47301 0.62416 0.57078 0.0
C608 C 0.45665 0.61324 0.54698 0.0
C609 C 0.43268 0.62688 0.53884 0.0
C610 C 0.42489 0.65039 0.55452 0.0
H611 H 0.36933 0.64551 0.62943 0.0
H612 H 0.37273 0.64863 0.58994 0.0
H613 H 0.39639 0.62841 0.61252 0.0
H614 H 0.47775 0.65528 0.60512 0.0
H615 H 0.49162 0.61418 0.5776 0.0
H616 H 0.89274 0.89164 0.79796 0.0
H617 H 0.92356 0.9046 0.75379 0.0
H618 H 0.85268 0.8726 0.69932 0.0
H619 H 0.82205 0.85968 0.74349 0.0
H620 H 0.9365 0.86869 0.70669 0.0
H621 H 0.87857 0.9663 0.66785 0.0
H622 H 0.87509 0.94715 0.70509 0.0
H623 H 0.85676 0.92823 0.67543 0.0
C624 C 0.88405 0.88687 0.77655 0.0
C625 C 0.85513 0.87511 0.77382 0.0
C626 C 0.90153 0.89432 0.75141 0.0
C627 C 0.89023 0.89012 0.72326 0.0
C628 C 0.86166 0.8766 0.72078 0.0
H629 H 0.95579 0.95087 0.54519 0.0
H630 H 0.92706 0.92633 0.58825 0.0
C631 C 0.84424 0.86921 0.74588 0.0
C632 C 0.90781 0.9016 0.69642 0.0
H633 H 0.91384 0.95597 0.63591 0.0
C634 C 0.93161 0.88776 0.69118 0.0
C635 C 0.90135 0.92653 0.6763 0.0
C636 C 0.87671 0.94317 0.68146 0.0
C637 C 0.94892 0.89793 0.66603 0.0
C638 C 0.94251 0.92297 0.64598 0.0
C639 C 0.91864 0.93668 0.65122 0.0
C640 C 0.9606 0.93599 0.61976 0.0
C641 C 0.97363 0.88143 0.66092 0.0
C642 C 0.98898 0.94968 0.62317 0.0
C643 C 0.00549 0.96371 0.59862 0.0
C644 C 0.99388 0.96459 0.5701 0.0
C645 C 0.96546 0.95064 0.56676 0.0
C646 C 0.94898 0.93658 0.59136 0.0
H647 H 0.97093 0.85755 0.67327 0.0
H648 H 0.9764 0.87909 0.63707 0.0
H649 H 0.99329 0.89551 0.66874 0.0
H650 H 0.9982 0.95017 0.64494 0.0
H651 H 0.02724 0.97432 0.60209 0.0
H652 H 0.68642 0.10646 0.35443 0.0
H653 H 0.66851 0.07439 0.31438 0.0
H654 H 0.69261 0.15564 0.25089 0.0
H655 H 0.71072 0.18704 0.2908 0.0
H656 H 0.62437 0.08844 0.28266 0.0
H657 H 0.71193 0.08743 0.20483 0.0
H658 H 0.71808 0.09727 0.24225 0.0
H659 H 0.71121 0.12688 0.2135 0.0
C660 C 0.68905 0.11677 0.33171 0.0
C661 C 0.70008 0.14893 0.3254 0.0
C662 C 0.67865 0.09864 0.30891 0.0
C663 C 0.67939 0.11247 0.2795 0.0
C664 C 0.69239 0.1441 0.27316 0.0
H665 H 0.58791 0.11614 0.12338 0.0
H666 H 0.62046 0.12078 0.16469 0.0
C667 C 0.70271 0.1621 0.29591 0.0
C668 C 0.6626 0.09612 0.25627 0.0
H669 H 0.66476 0.08411 0.1833 0.0
C670 C 0.63333 0.0866 0.26118 0.0
C671 C 0.67422 0.09377 0.2282 0.0
C672 C 0.70565 0.10159 0.22201 0.0
C673 C 0.61515 0.07713 0.23823 0.0
C674 C 0.62658 0.07687 0.20968 0.0
C675 C 0.65601 0.08451 0.20518 0.0
C676 C 0.60806 0.07248 0.18366 0.0
C677 C 0.58363 0.06956 0.24416 0.0
C678 C 0.59051 0.04356 0.18037 0.0
C679 C 0.57175 0.04078 0.15663 0.0
C680 C 0.57021 0.06693 0.13591 0.0
C681 C 0.58836 0.09557 0.139 0.0
C682 C 0.60712 0.09826 0.16255 0.0
H683 H 0.57794 0.07474 0.26659 0.0
H684 H 0.57221 0.08329 0.22759 0.0
H685 H 0.57613 0.04411 0.24223 0.0
H686 H 0.59111 0.02329 0.19631 0.0
H687 H 0.55814 0.01836 0.15481 0.0
H688 H 0.36409 0.69372 0.25558 0.0
H689 H 0.39085 0.67197 0.29674 0.0
H690 H 0.39681 0.59121 0.24976 0.0
H691 H 0.37093 0.61352 0.20848 0.0
H692 H 0.37175 0.61583 0.32942 0.0
H693 H 0.4766 0.6119 0.28017 0.0
H694 H 0.45204 0.63532 0.26269 0.0
H695 H 0.44758 0.59358 0.25941 0.0
C696 C 0.37196 0.67185 0.25385 0.0
C697 C 0.36558 0.65515 0.22913 0.0
C698 C 0.38701 0.65933 0.27733 0.0
C699 C 0.39602 0.63006 0.27623 0.0
C700 C 0.3906 0.61408 0.2509 0.0
H701 H 0.45924 0.4983 0.40874 0.0
H702 H 0.43891 0.52229 0.36403 0.0
C703 C 0.37566 0.62664 0.22747 0.0
C704 C 0.40847 0.61471 0.30261 0.0
H705 H 0.46555 0.58153 0.32675 0.0
C706 C 0.39236 0.60858 0.32888 0.0
C707 C 0.43524 0.60496 0.30178 0.0
C708 C 0.454 0.61202 0.27458 0.0
C709 C 0.40216 0.59269 0.35426 0.0
C710 C 0.42885 0.5829 0.3534 0.0
C711 C 0.44497 0.58887 0.32717 0.0
C712 C 0.44102 0.56812 0.38013 0.0
C713 C 0.38379 0.58618 0.38177 0.0
C714 C 0.44902 0.58606 0.40369 0.0
C715 C 0.46062 0.57257 0.42902 0.0
C716 C 0.46446 0.54078 0.43135 0.0
C717 C 0.45639 0.52276 0.40768 0.0
C718 C 0.4449 0.53643 0.38214 0.0
H719 H 0.36148 0.58879 0.37695 0.0
H720 H 0.38416 0.56197 0.39248 0.0
H721 H 0.39212 0.60318 0.39773 0.0
H722 H 0.44644 0.61063 0.4024 0.0
H723 H 0.46658 0.58718 0.4468 0.0
H724 H 0.18298 0.3891 0.7999 0.0
H725 H 0.15789 0.41304 0.83634 0.0
H726 H 0.08592 0.41081 0.77858 0.0
H727 H 0.11174 0.3883 0.74167 0.0
H728 H 0.09787 0.4663 0.801 0.0
H729 H 0.09503 0.36986 0.89155 0.0
H730 H 0.13035 0.38589 0.87879 0.0
H731 H 0.10555 0.36579 0.85431 0.0
C732 C 0.16189 0.39401 0.7951 0.0
C733 C 0.14922 0.38724 0.76812 0.0
C734 C 0.14744 0.40727 0.81596 0.0
C735 C 0.11982 0.41325 0.81041 0.0
C736 C 0.10716 0.40632 0.78339 0.0
H737 H 0.00447 0.45085 0.94355 0.0
H738 H 0.02859 0.42868 0.90553 0.0
C739 C 0.12176 0.3934 0.76243 0.0
C740 C 0.10433 0.4274 0.83239 0.0
H741 H 0.08144 0.41751 0.90417 0.0
C742 C 0.09415 0.45556 0.82354 0.0
C743 C 0.09914 0.41314 0.86167 0.0
C744 C 0.10783 0.38184 0.87209 0.0
C745 C 0.0792 0.47003 0.84321 0.0
C746 C 0.07499 0.45643 0.8728 0.0
C747 C 0.08492 0.42811 0.88157 0.0
C748 C 0.05982 0.47071 0.89496 0.0
C749 C 0.0675 0.49931 0.83186 0.0
C750 C 0.06932 0.50175 0.9017 0.0
C751 C 0.05532 0.51465 0.92321 0.0
C752 C 0.03188 0.49653 0.93874 0.0
C753 C 0.02247 0.46544 0.932 0.0
C754 C 0.03627 0.4527 0.9103 0.0
H755 H 0.06518 0.50112 0.80747 0.0
H756 H 0.04655 0.49963 0.84208 0.0
H757 H 0.08232 0.52049 0.83741 0.0
H758 H 0.08788 0.51583 0.89072 0.0
H759 H 0.06326 0.53855 0.92814 0.0
H760 H 0.74993 0.8483 0.84083 0.0
H761 H 0.71067 0.86807 0.86351 0.0
H762 H 0.7638 0.95887 0.86655 0.0
H763 H 0.80312 0.93859 0.84448 0.0
H764 H 0.73575 0.9375 0.91892 0.0
H765 H 0.66088 0.92834 0.82556 0.0
H766 H 0.67315 0.89203 0.83733 0.0
H767 H 0.69784 0.92553 0.82155 0.0
C768 C 0.75291 0.87249 0.84625 0.0
C769 C 0.77916 0.89214 0.84096 0.0
C770 C 0.73059 0.88383 0.85898 0.0
C771 C 0.73419 0.91511 0.86629 0.0
C772 C 0.76053 0.93473 0.86094 0.0
H773 H 0.601 0.01595 0.91295 0.0
H774 H 0.64002 0.99735 0.88941 0.0
C775 C 0.78286 0.9233 0.84832 0.0
C776 C 0.71084 0.92705 0.88051 0.0
H777 H 0.6425 0.93905 0.87128 0.0
C778 C 0.71538 0.93796 0.90847 0.0
C779 C 0.68442 0.92796 0.86668 0.0
C780 C 0.67879 0.91814 0.836 0.0
C781 C 0.69407 0.94936 0.92318 0.0
C782 C 0.66733 0.94927 0.90979 0.0
C783 C 0.66293 0.93879 0.88163 0.0
C784 C 0.64377 0.96046 0.92437 0.0
C785 C 0.70058 0.96192 0.95267 0.0
C786 C 0.63273 0.94568 0.95172 0.0
C787 C 0.61049 0.95635 0.96533 0.0
C788 C 0.59871 0.98183 0.95167 0.0
C789 C 0.60961 0.99631 0.9241 0.0
C790 C 0.6319 0.9857 0.91058 0.0
H791 H 0.72376 0.96821 0.95602 0.0
H792 H 0.69067 0.98312 0.95477 0.0
H793 H 0.69196 0.94348 0.97058 0.0
H794 H 0.64116 0.92571 0.96245 0.0
H795 H 0.60244 0.94451 0.98645 0.0
H796 H 0.7324 0.1347 0.41997 0.0
H797 H 0.77518 0.111 0.42906 0.0
H798 H 0.80313 0.14173 0.33928 0.0
H799 H 0.76084 0.16665 0.33071 0.0
H800 H 0.79735 0.0657 0.40471 0.0
H801 H 0.87062 0.17992 0.38491 0.0
H802 H 0.8328 0.17763 0.38838 0.0
H803 H 0.84822 0.17051 0.35422 0.0
C804 C 0.74775 0.13634 0.40225 0.0
C805 C 0.7436 0.1528 0.3748 0.0
C806 C 0.7721 0.12272 0.40738 0.0
C807 C 0.79279 0.12521 0.38509 0.0
C808 C 0.78789 0.1402 0.35708 0.0
H809 H 0.95565 0.05935 0.38312 0.0
H810 H 0.91262 0.08114 0.37007 0.0
C811 C 0.76356 0.15402 0.35203 0.0
C812 C 0.81958 0.11261 0.39153 0.0
H813 H 0.89165 0.13391 0.3932 0.0
C814 C 0.81795 0.08064 0.40221 0.0
C815 C 0.84653 0.13211 0.38841 0.0
C816 C 0.84975 0.16701 0.37863 0.0
C817 C 0.84244 0.06765 0.40959 0.0
C818 C 0.8693 0.08716 0.40648 0.0
C819 C 0.87102 0.119 0.39553 0.0
C820 C 0.89585 0.07494 0.41469 0.0
C821 C 0.83944 0.03303 0.42037 0.0
C822 C 0.90102 0.06488 0.44423 0.0
C823 C 0.9257 0.05262 0.45182 0.0
C824 C 0.9457 0.0501 0.42998 0.0
C825 C 0.94071 0.06086 0.40049 0.0
C826 C 0.91611 0.07332 0.39297 0.0
H827 H 0.81822 0.01989 0.41546 0.0
H828 H 0.85589 0.02207 0.41013 0.0
H829 H 0.84231 0.03044 0.44466 0.0
H830 H 0.88587 0.06637 0.46142 0.0
H831 H 0.92883 0.04458 0.47474 0.0
H832 H 0.26502 0.69666 0.16984 0.0
H833 H 0.22056 0.67972 0.14459 0.0
H834 H 0.24897 0.59285 0.12907 0.0
H835 H 0.29417 0.61092 0.15239 0.0
H836 H 0.22348 0.61529 0.08179 0.0
H837 H 0.15642 0.61653 0.1807 0.0
H838 H 0.1771 0.65425 0.16881 0.0
H839 H 0.19451 0.62182 0.1823 0.0
C840 C 0.26178 0.67417 0.16065 0.0
C841 C 0.28277 0.65491 0.16317 0.0
C842 C 0.23631 0.66432 0.14659 0.0
C843 C 0.23116 0.63469 0.13553 0.0
C844 C 0.25239 0.61572 0.1376 0.0
H845 H 0.07481 0.51633 0.10867 0.0
H846 H 0.11922 0.54524 0.12502 0.0
C847 C 0.27803 0.62583 0.15116 0.0
C848 C 0.2036 0.62302 0.12216 0.0
H849 H 0.13265 0.60436 0.13678 0.0
C850 C 0.20357 0.61294 0.09375 0.0
C851 C 0.1777 0.61981 0.13793 0.0
C852 C 0.17636 0.62838 0.16922 0.0
C853 C 0.17848 0.59892 0.08098 0.0
C854 C 0.15257 0.59589 0.09669 0.0
C855 C 0.15252 0.60688 0.1247 0.0
C856 C 0.12566 0.57874 0.08594 0.0
C857 C 0.1802 0.58618 0.05145 0.0
C858 C 0.11439 0.58799 0.05849 0.0
C859 C 0.08908 0.57105 0.0488 0.0
C860 C 0.07443 0.54509 0.06676 0.0
C861 C 0.08554 0.53631 0.09438 0.0
C862 C 0.11094 0.55284 0.10378 0.0
H863 H 0.20218 0.58342 0.04593 0.0
H864 H 0.16627 0.56292 0.05112 0.0
H865 H 0.17316 0.60287 0.03393 0.0
H866 H 0.12502 0.60837 0.04466 0.0
H867 H 0.08081 0.57848 0.02752 0.0
H868 H 0.2317 0.33083 0.70165 0.0
H869 H 0.2743 0.34403 0.67011 0.0
H870 H 0.25121 0.43479 0.64179 0.0
H871 H 0.20764 0.42043 0.67145 0.0
H872 H 0.27475 0.41349 0.5976 0.0
H873 H 0.34201 0.4008 0.69648 0.0
H874 H 0.31914 0.36505 0.68949 0.0
H875 H 0.30418 0.39831 0.69922 0.0
C876 C 0.23549 0.35322 0.68808 0.0
C877 C 0.21683 0.37494 0.68936 0.0
C878 C 0.25999 0.36096 0.67042 0.0
C879 C 0.26651 0.39086 0.65433 0.0
C880 C 0.2469 0.41174 0.65426 0.0
H881 H 0.42513 0.50642 0.61296 0.0
H882 H 0.38073 0.47616 0.63309 0.0
C883 C 0.22218 0.40372 0.67142 0.0
C884 C 0.2943 0.40145 0.63895 0.0
H885 H 0.36554 0.41621 0.65094 0.0
C886 C 0.29465 0.41392 0.60919 0.0
C887 C 0.32026 0.40229 0.65419 0.0
C888 C 0.32149 0.39119 0.68666 0.0
C889 C 0.32003 0.42821 0.59457 0.0
C890 C 0.34595 0.42906 0.60984 0.0
C891 C 0.34569 0.41544 0.63921 0.0
C892 C 0.37323 0.44673 0.59706 0.0
C893 C 0.31857 0.44373 0.56349 0.0
C894 C 0.38409 0.44015 0.57014 0.0
C895 C 0.40942 0.45793 0.55824 0.0
C896 C 0.42459 0.48206 0.57343 0.0
C897 C 0.41404 0.48793 0.60073 0.0
C898 C 0.38861 0.4706 0.6123 0.0
H899 H 0.29676 0.44769 0.55775 0.0
H900 H 0.333 0.46681 0.56048 0.0
H901 H 0.32512 0.42822 0.5477 0.0
H902 H 0.37304 0.42131 0.55832 0.0
H903 H 0.41718 0.45269 0.53728 0.0
H904 H 0.84675 0.80605 0.79539 0.0
H905 H 0.87465 0.76473 0.81219 0.0
H906 H 0.90328 0.81545 0.88674 0.0
H907 H 0.87623 0.85708 0.86928 0.0
H908 H 0.94504 0.78641 0.86407 0.0
H909 H 0.84326 0.70332 0.88308 0.0
H910 H 0.84987 0.72074 0.84571 0.0
H911 H 0.84469 0.74524 0.87425 0.0
C912 C 0.85967 0.8086 0.81488 0.0
C913 C 0.85914 0.83424 0.83141 0.0
C914 C 0.87534 0.78497 0.82461 0.0
C915 C 0.89047 0.78666 0.85112 0.0
C916 C 0.89159 0.81353 0.86637 0.0
H917 H 0.92452 0.64284 0.98206 0.0
H918 H 0.90912 0.68645 0.95144 0.0
C919 C 0.87607 0.83716 0.85655 0.0
C920 C 0.90294 0.75943 0.86463 0.0
H921 H 0.88485 0.68378 0.89672 0.0
C922 C 0.93199 0.76383 0.87096 0.0
C923 C 0.88573 0.73018 0.87399 0.0
C924 C 0.85412 0.72451 0.86919 0.0
C925 C 0.94421 0.73991 0.88687 0.0
C926 C 0.92694 0.71074 0.89629 0.0
C927 C 0.89804 0.70614 0.88937 0.0
C928 C 0.93778 0.68531 0.91508 0.0
C929 C 0.97518 0.74653 0.89454 0.0
C930 C 0.95913 0.67024 0.90486 0.0
C931 C 0.96814 0.64531 0.92245 0.0
C932 C 0.95572 0.63486 0.95043 0.0
C933 C 0.93452 0.65023 0.96063 0.0
C934 C 0.92565 0.67516 0.94313 0.0
H935 H 0.98392 0.77217 0.89128 0.0
H936 H 0.97855 0.73765 0.91782 0.0
H937 H 0.98732 0.73417 0.8801 0.0
H938 H 0.96841 0.67729 0.88306 0.0
H939 H 0.98438 0.63382 0.91387 0.0
H940 H 0.40386 0.69217 0.17989 0.0
H941 H 0.44101 0.73874 0.16953 0.0
H942 H 0.38246 0.79863 0.19273 0.0
H943 H 0.34597 0.75211 0.20377 0.0
H944 H 0.43434 0.78217 0.12537 0.0
H945 H 0.45396 0.84266 0.22651 0.0
H946 H 0.43673 0.80201 0.22741 0.0
H947 H 0.41674 0.83374 0.2197 0.0
C948 C 0.39954 0.71524 0.18391 0.0
C949 C 0.3723 0.7189 0.1925 0.0
C950 C 0.42059 0.74178 0.17788 0.0
C951 C 0.41463 0.77222 0.18056 0.0
C952 C 0.38788 0.77547 0.19116 0.0
H953 H 0.45534 0.9588 0.09822 0.0
H954 H 0.43772 0.90951 0.12865 0.0
C955 C 0.36697 0.74899 0.19724 0.0
C956 C 0.43413 0.80064 0.16762 0.0
H957 H 0.4627 0.87612 0.17997 0.0
C958 C 0.44117 0.80243 0.13751 0.0
C959 C 0.44285 0.82717 0.1834 0.0
C960 C 0.4374 0.82617 0.21612 0.0
C961 C 0.4552 0.83055 0.12235 0.0
C962 C 0.46267 0.85749 0.1378 0.0
C963 C 0.45676 0.85542 0.16817 0.0
C964 C 0.47491 0.88846 0.12218 0.0
C965 C 0.46056 0.83173 0.08955 0.0
C966 C 0.5019 0.89313 0.10905 0.0
C967 C 0.51206 0.92128 0.09168 0.0
C968 C 0.4954 0.9453 0.08717 0.0
C969 C 0.46878 0.94093 0.10131 0.0
C970 C 0.45866 0.91277 0.11871 0.0
H971 H 0.4493 0.81042 0.08007 0.0
H972 H 0.45377 0.85296 0.07772 0.0
H973 H 0.4836 0.83329 0.08539 0.0
H974 H 0.51484 0.87472 0.11173 0.0
H975 H 0.53278 0.92397 0.08136 0.0
H976 H 0.18434 0.28384 0.72691 0.0
H977 H 0.17475 0.23976 0.696 0.0
H978 H 0.14477 0.30167 0.62682 0.0
H979 H 0.15542 0.34579 0.6576 0.0
H980 H 0.12496 0.21374 0.67656 0.0
H981 H 0.19547 0.25901 0.58018 0.0
H982 H 0.19832 0.27728 0.61428 0.0
H983 H 0.17185 0.28551 0.58773 0.0
C984 C 0.17619 0.28786 0.70486 0.0
C985 C 0.17069 0.31783 0.69429 0.0
C986 C 0.17063 0.26285 0.68729 0.0
C987 C 0.15933 0.26745 0.65892 0.0
C988 C 0.15413 0.29767 0.64829 0.0
H989 H 0.06879 0.11127 0.56933 0.0
H990 H 0.0813 0.15869 0.59517 0.0
C991 C 0.16002 0.32277 0.6658 0.0
C992 C 0.15139 0.24017 0.64136 0.0
H993 H 0.16081 0.21352 0.57453 0.0
C994 C 0.13291 0.21364 0.65429 0.0
C995 C 0.16197 0.23992 0.61242 0.0
C996 C 0.18322 0.26682 0.59793 0.0
C997 C 0.12465 0.18693 0.63909 0.0
C998 C 0.13441 0.18711 0.60975 0.0
C999 C 0.15303 0.21357 0.59687 0.0
C1000 C 0.12658 0.15954 0.59254 0.0
C1001 C 0.10619 0.15848 0.655 0.0
C1002 C 0.14786 0.14506 0.58133 0.0
C1003 C 0.14079 0.11836 0.56611 0.0
C1004 C 0.11226 0.10547 0.56189 0.0
C1005 C 0.09095 0.12045 0.57248 0.0
C1006 C 0.09807 0.14742 0.58743 0.0
H1007 H 0.10729 0.15882 0.67937 0.0
H1008 H 0.08382 0.15851 0.6485 0.0
H1009 H 0.11245 0.13618 0.64922 0.0
H1010 H 0.16999 0.15405 0.58489 0.0
H1011 H 0.15773 0.10741 0.55825 0.0
H1012 H 0.68266 0.2598 0.34797 0.0
H1013 H 0.65641 0.29849 0.36604 0.0
H1014 H 0.64355 0.24213 0.45018 0.0
H1015 H 0.66935 0.20306 0.43171 0.0
H1016 H 0.59399 0.26196 0.42711 0.0
H1017 H 0.68322 0.36237 0.42522 0.0
H1018 H 0.67797 0.34513 0.39088 0.0
H1019 H 0.68855 0.32223 0.42294 0.0
C1020 C 0.67429 0.25588 0.37034 0.0
C1021 C 0.67798 0.22866 0.38855 0.0
C1022 C 0.65947 0.27799 0.3807 0.0
C1023 C 0.64827 0.27336 0.40957 0.0
C1024 C 0.65211 0.24621 0.42787 0.0
H1025 H 0.58776 0.41147 0.50614 0.0
H1026 H 0.6116 0.37119 0.48832 0.0
C1027 C 0.66697 0.22409 0.41747 0.0
C1028 C 0.63198 0.29648 0.42037 0.0
H1029 H 0.63731 0.37368 0.4338 0.0
C1030 C 0.60344 0.28638 0.42866 0.0
C1031 C 0.64442 0.32827 0.42254 0.0
C1032 C 0.67529 0.34017 0.41519 0.0
C1033 C 0.58694 0.3073 0.43884 0.0
C1034 C 0.59924 0.33924 0.44042 0.0
C1035 C 0.62783 0.34925 0.43232 0.0
C1036 C 0.58335 0.36246 0.45173 0.0
C1037 C 0.55669 0.29491 0.44842 0.0
C1038 C 0.55933 0.37091 0.43717 0.0
C1039 C 0.54548 0.39403 0.44741 0.0
C1040 C 0.55557 0.40923 0.47225 0.0
C1041 C 0.5794 0.40035 0.48691 0.0
C1042 C 0.59313 0.3773 0.47674 0.0
H1043 H 0.5525 0.26871 0.45225 0.0
H1044 H 0.5515 0.30474 0.46897 0.0
H1045 H 0.54226 0.30224 0.43087 0.0
H1046 H 0.55168 0.36014 0.41752 0.0
H1047 H 0.5273 0.40048 0.43551 0.0
loop_
_geom_bond_atom_site_label_1
_geom_bond_atom_site_label_2
_geom_bond_distance
_geom_bond_site_symmetry_2
_ccdc_geom_bond_type
C0 N1 1.317 . S
C0 N2 1.348 . S
C0 C3 1.485 . S
N1 C0 1.317 . S
N1 N5 1.370 . S
N2 C0 1.348 . S
N2 C4 1.346 . S
C3 C0 1.485 . S
C3 H7 0.960 . S
C3 H8 0.961 . S
C3 H9 0.960 . S
C4 N2 1.346 . S
C4 N5 1.307 . S
C4 C6 1.486 . S
N5 N1 1.370 . S
N5 C4 1.307 . S
C6 C4 1.486 . S
C6 H10 0.960 . S
C6 H11 0.960 . S
C6 H12 0.959 . S
H7 C3 0.960 . S
H8 C3 0.961 . S
H9 C3 0.960 . S
H10 C6 0.960 . S
H11 C6 0.960 . S
H12 C6 0.959 . S
C13 N14 1.317 . S
C13 N15 1.348 . S
C13 C16 1.485 . S
N14 C13 1.317 . S
N14 N18 1.370 . S
N15 C13 1.348 . S
N15 C17 1.346 . S
C16 C13 1.485 . S
C16 H20 0.960 . S
C16 H21 0.961 . S
C16 H22 0.960 . S
C17 N15 1.346 . S
C17 N18 1.307 . S
C17 C19 1.486 . S
N18 N14 1.370 . S
N18 C17 1.307 . S
C19 C17 1.486 . S
C19 H23 0.960 . S
C19 H24 0.960 . S
C19 H25 0.959 . S
H20 C16 0.960 . S
H21 C16 0.961 . S
H22 C16 0.960 . S
H23 C19 0.960 . S
H24 C19 0.960 . S
H25 C19 0.959 . S
C26 N27 1.317 . S
C26 N28 1.348 . S
C26 C29 1.485 . S
N27 C26 1.317 . S
N27 N31 1.370 . S
N28 C26 1.348 . S
N28 C30 1.346 . S
C29 C26 1.485 . S
C29 H33 0.960 . S
C29 H34 0.961 . S
C29 H35 0.960 . S
C30 N28 1.346 . S
C30 N31 1.307 . S
C30 C32 1.486 . S
N31 N27 1.370 . S
N31 C30 1.307 . S
C32 C30 1.486 . S
C32 H36 0.960 . S
C32 H37 0.960 . S
C32 H38 0.959 . S
H33 C29 0.960 . S
H34 C29 0.961 . S
H35 C29 0.960 . S
H36 C32 0.960 . S
H37 C32 0.960 . S
H38 C32 0.959 . S
C39 N40 1.317 . S
C39 N41 1.348 . S
C39 C42 1.485 . S
N40 C39 1.317 . S
N40 N44 1.370 . S
N41 C39 1.348 . S
N41 C43 1.346 . S
C42 C39 1.485 . S
C42 H46 0.960 . S
C42 H47 0.961 . S
C42 H48 0.960 . S
C43 N41 1.346 . S
C43 N44 1.307 . S
C43 C45 1.486 . S
N44 N40 1.370 . S
N44 C43 1.307 . S
C45 C43 1.486 . S
C45 H49 0.960 . S
C45 H50 0.960 . S
C45 H51 0.959 . S
H46 C42 0.960 . S
H47 C42 0.961 . S
H48 C42 0.960 . S
H49 C45 0.960 . S
H50 C45 0.960 . S
H51 C45 0.959 . S
C52 N53 1.317 . S
C52 N54 1.348 . S
C52 C55 1.485 . S
N53 C52 1.317 . S
N53 N57 1.370 . S
N54 C52 1.348 . S
N54 C56 1.346 . S
C55 C52 1.485 . S
C55 H59 0.960 . S
C55 H60 0.961 . S
C55 H61 0.960 . S
C56 N54 1.346 . S
C56 N57 1.307 . S
C56 C58 1.486 . S
N57 N53 1.370 . S
N57 C56 1.307 . S
C58 C56 1.486 . S
C58 H62 0.960 . S
C58 H63 0.960 . S
C58 H64 0.959 . S
H59 C55 0.960 . S
H60 C55 0.961 . S
H61 C55 0.960 . S
H62 C58 0.960 . S
H63 C58 0.960 . S
H64 C58 0.959 . S
C65 N66 1.317 . S
C65 N67 1.348 . S
C65 C68 1.485 . S
N66 C65 1.317 . S
N66 N70 1.370 . S
N67 C65 1.348 . S
N67 C69 1.346 . S
C68 C65 1.485 . S
C68 H72 0.960 . S
C68 H73 0.961 . S
C68 H74 0.960 . S
C69 N67 1.346 . S
C69 N70 1.307 . S
C69 C71 1.486 . S
N70 N66 1.370 . S
N70 C69 1.307 . S
C71 C69 1.486 . S
C71 H75 0.960 . S
C71 H76 0.960 . S
C71 H77 0.959 . S
H72 C68 0.960 . S
H73 C68 0.961 . S
H74 C68 0.960 . S
H75 C71 0.960 . S
H76 C71 0.960 . S
H77 C71 0.959 . S
C78 N79 1.317 . S
C78 N80 1.348 . S
C78 C81 1.485 . S
N79 C78 1.317 . S
N79 N83 1.370 . S
N80 C78 1.348 . S
N80 C82 1.346 . S
C81 C78 1.485 . S
C81 H85 0.960 . S
C81 H86 0.961 . S
C81 H87 0.960 . S
C82 N80 1.346 . S
C82 N83 1.307 . S
C82 C84 1.486 . S
N83 N79 1.370 . S
N83 C82 1.307 . S
C84 C82 1.486 . S
C84 H88 0.960 . S
C84 H89 0.960 . S
C84 H90 0.959 . S
H85 C81 0.960 . S
H86 C81 0.961 . S
H87 C81 0.960 . S
H88 C84 0.960 . S
H89 C84 0.960 . S
H90 C84 0.959 . S
C91 N92 1.317 . S
C91 N93 1.348 . S
C91 C94 1.485 . S
N92 C91 1.317 . S
N92 N96 1.370 . S
N93 C91 1.348 . S
N93 C95 1.346 . S
C94 C91 1.485 . S
C94 H98 0.960 . S
C94 H99 0.961 . S
C94 H100 0.960 . S
C95 N93 1.346 . S
C95 N96 1.307 . S
C95 C97 1.486 . S
N96 N92 1.370 . S
N96 C95 1.307 . S
C97 C95 1.486 . S
C97 H101 0.960 . S
C97 H102 0.960 . S
C97 H103 0.959 . S
H98 C94 0.960 . S
H99 C94 0.961 . S
H100 C94 0.960 . S
H101 C97 0.960 . S
H102 C97 0.960 . S
H103 C97 0.959 . S
Zn104 O110 1.969 1_545 S
Zn104 O111 1.965 1_545 S
Zn104 O115 2.024 . S
Zn104 O120 1.969 . S
Zn105 O112 1.971 1_455 S
Zn105 O118 1.958 1_465 S
Zn105 O119 1.956 1_565 S
Zn105 O121 2.037 . S
C106 O107 1.229 . S
C106 O115 1.058 . S
O107 C106 1.229 . S
C108 O109 1.229 . S
C108 O121 1.058 1_655 S
O109 C108 1.229 . S
O110 Zn104 1.969 1_565 S
O110 C113 1.267 . S
O111 Zn104 1.965 1_565 S
O111 C122 1.260 . S
O112 Zn105 1.971 1_655 S
O112 C122 1.229 1_655 S
C113 O110 1.267 . S
C113 O114 1.228 . S
O114 C113 1.228 . S
O115 Zn104 2.024 . S
O115 C106 1.058 . S
C116 O117 1.228 . S
C116 O118 1.267 . S
O117 C116 1.228 . S
O118 Zn105 1.958 1_645 S
O118 C116 1.267 . S
O119 Zn105 1.956 1_545 S
O119 C123 1.260 . S
O120 Zn104 1.969 . S
O120 C123 1.258 . S
O121 Zn105 2.037 . S
O121 C108 1.058 1_455 S
C122 O111 1.260 . S
C122 O112 1.229 1_455 S
C123 O119 1.260 . S
C123 O120 1.258 . S
Zn124 O130 1.969 . S
Zn124 O131 1.965 1_565 S
Zn124 O135 2.024 1_554 S
Zn124 O140 1.969 . S
Zn125 O132 1.969 . S
Zn125 O138 1.969 . S
Zn125 O139 1.965 . S
Zn125 O141 2.024 . S
C126 O127 1.229 . S
C126 O135 1.058 . S
O127 C126 1.229 . S
C128 O129 1.229 . S
C128 O141 1.058 . S
O129 C128 1.229 . S
O130 Zn124 1.969 . S
O130 C133 1.267 1_554 S
O131 Zn124 1.965 1_545 S
O131 C142 1.260 . S
O132 Zn125 1.969 . S
O132 C142 1.258 . S
C133 O130 1.267 1_556 S
C133 O134 1.228 . S
O134 C133 1.228 . S
O135 Zn124 2.024 1_556 S
O135 C126 1.058 . S
C136 O137 1.228 . S
C136 O138 1.267 . S
O137 C136 1.228 . S
O138 Zn125 1.969 . S
O138 C136 1.267 . S
O139 Zn125 1.965 . S
O139 C143 1.260 1_545 S
O140 Zn124 1.969 . S
O140 C143 1.258 . S
O141 Zn125 2.024 . S
O141 C128 1.058 . S
C142 O131 1.260 . S
C142 O132 1.258 . S
C143 O139 1.260 1_565 S
C143 O140 1.258 . S
Zn144 O150 1.969 . S
Zn144 O151 1.965 . S
Zn144 O155 2.024 . S
Zn144 O160 1.969 . S
Zn145 O152 1.969 . S
Zn145 O158 1.969 . S
Zn145 O159 1.965 . S
Zn145 O161 2.024 . S
C146 O147 1.229 . S
C146 O155 1.058 . S
O147 C146 1.229 . S
C148 O149 1.229 . S
C148 O161 1.058 . S
O149 C148 1.229 . S
O150 Zn144 1.969 . S
O150 C153 1.267 . S
O151 Zn144 1.965 . S
O151 C162 1.260 . S
O152 Zn145 1.969 . S
O152 C162 1.258 . S
C153 O150 1.267 . S
C153 O154 1.228 . S
O154 C153 1.228 . S
O155 Zn144 2.024 . S
O155 C146 1.058 . S
C156 O157 1.228 . S
C156 O158 1.267 . S
O157 C156 1.228 . S
O158 Zn145 1.969 . S
O158 C156 1.267 . S
O159 Zn145 1.965 . S
O159 C163 1.260 . S
O160 Zn144 1.969 . S
O160 C163 1.258 . S
O161 Zn145 2.024 . S
O161 C148 1.058 . S
C162 O151 1.260 . S
C162 O152 1.258 . S
C163 O159 1.260 . S
C163 O160 1.258 . S
Zn164 O170 1.969 . S
Zn164 O171 1.965 1_556 S
Zn164 O175 2.024 . S
Zn164 O180 1.969 1_655 S
Zn165 O172 1.969 . S
Zn165 O178 1.969 . S
Zn165 O179 1.965 1_554 S
Zn165 O181 2.024 . S
C166 O167 1.229 . S
C166 O175 1.058 . S
O167 C166 1.229 . S
C168 O169 1.229 . S
C168 O181 1.058 . S
O169 C168 1.229 . S
O170 Zn164 1.969 . S
O170 C173 1.267 . S
O171 Zn164 1.965 1_554 S
O171 C182 1.260 . S
O172 Zn165 1.969 . S
O172 C182 1.258 1_455 S
C173 O170 1.267 . S
C173 O174 1.228 . S
O174 C173 1.228 . S
O175 Zn164 2.024 . S
O175 C166 1.058 . S
C176 O177 1.228 . S
C176 O178 1.267 . S
O177 C176 1.228 . S
O178 Zn165 1.969 . S
O178 C176 1.267 . S
O179 Zn165 1.965 1_556 S
O179 C183 1.260 . S
O180 Zn164 1.969 1_455 S
O180 C183 1.258 . S
O181 Zn165 2.024 . S
O181 C168 1.058 . S
C182 O171 1.260 . S
C182 O172 1.258 1_655 S
C183 O179 1.260 . S
C183 O180 1.258 . S
H184 C192 0.929 . S
H185 C194 0.930 . S
H186 C196 0.930 . S
H187 C199 0.929 . S
H188 C202 0.930 . S
H189 C204 0.960 . S
H190 C204 0.960 . S
H191 C204 0.960 . S
C192 H184 0.929 . S
C192 C193 1.377 . S
C192 C194 1.384 . S
C193 C192 1.377 . S
C193 C199 1.390 . S
C194 H185 0.930 . S
C194 C192 1.384 . S
C194 C195 1.372 . S
C195 C194 1.372 . S
C195 C196 1.400 . S
C195 C200 1.490 . S
C196 H186 0.930 . S
C196 C195 1.400 . S
C196 C199 1.386 . S
H197 C213 0.930 . S
H198 C214 0.931 . S
C199 H187 0.929 . S
C199 C193 1.390 . S
C199 C196 1.386 . S
C200 C195 1.490 . S
C200 C202 1.395 . S
C200 C203 1.403 . S
H201 C207 0.930 . S
C202 H188 0.930 . S
C202 C200 1.395 . S
C202 C205 1.403 . S
C203 C200 1.403 . S
C203 C204 1.524 . S
C203 C207 1.400 . S
C204 H189 0.960 . S
C204 H190 0.960 . S
C204 H191 0.960 . S
C204 C203 1.524 . S
C205 C202 1.403 . S
C205 C206 1.392 . S
C205 C209 1.495 . S
C206 C205 1.392 . S
C206 C207 1.385 . S
C206 C208 1.478 . S
C207 H201 0.930 . S
C207 C203 1.400 . S
C207 C206 1.385 . S
C208 C206 1.478 . S
C208 C210 1.381 . S
C208 C214 1.383 . S
C209 C205 1.495 . S
C209 H215 0.959 . S
C209 H216 0.961 . S
C209 H217 0.960 . S
C210 C208 1.381 . S
C210 C211 1.394 . S
C210 H218 0.930 . S
C211 C210 1.394 . S
C211 C212 1.383 . S
C211 H219 0.929 . S
C212 C211 1.383 . S
C212 C213 1.377 . S
C213 H197 0.930 . S
C213 C212 1.377 . S
C213 C214 1.379 . S
C214 H198 0.931 . S
C214 C208 1.383 . S
C214 C213 1.379 . S
H215 C209 0.959 . S
H216 C209 0.961 . S
H217 C209 0.960 . S
H218 C210 0.930 . S
H219 C211 0.929 . S
H220 C228 0.929 . S
H221 C230 0.930 . S
H222 C232 0.930 . S
H223 C235 0.929 . S
H224 C238 0.930 . S
H225 C240 0.960 . S
H226 C240 0.960 . S
H227 C240 0.960 . S
C228 H220 0.929 . S
C228 C229 1.377 . S
C228 C230 1.384 . S
C229 C228 1.377 . S
C229 C235 1.390 . S
C230 H221 0.930 . S
C230 C228 1.384 . S
C230 C231 1.372 . S
C231 C230 1.372 . S
C231 C232 1.400 . S
C231 C236 1.490 . S
C232 H222 0.930 . S
C232 C231 1.400 . S
C232 C235 1.386 . S
H233 C249 0.930 . S
H234 C250 0.931 . S
C235 H223 0.929 . S
C235 C229 1.390 . S
C235 C232 1.386 . S
C236 C231 1.490 . S
C236 C238 1.395 . S
C236 C239 1.403 . S
H237 C243 0.930 . S
C238 H224 0.930 . S
C238 C236 1.395 . S
C238 C241 1.403 . S
C239 C236 1.403 . S
C239 C240 1.524 . S
C239 C243 1.400 . S
C240 H225 0.960 . S
C240 H226 0.960 . S
C240 H227 0.960 . S
C240 C239 1.524 . S
C241 C238 1.403 . S
C241 C242 1.392 . S
C241 C245 1.495 . S
C242 C241 1.392 . S
C242 C243 1.385 . S
C242 C244 1.478 . S
C243 H237 0.930 . S
C243 C239 1.400 . S
C243 C242 1.385 . S
C244 C242 1.478 . S
C244 C246 1.381 . S
C244 C250 1.383 . S
C245 C241 1.495 . S
C245 H251 0.959 . S
C245 H252 0.961 . S
C245 H253 0.960 . S
C246 C244 1.381 . S
C246 C247 1.394 . S
C246 H254 0.930 . S
C247 C246 1.394 . S
C247 C248 1.383 . S
C247 H255 0.929 . S
C248 C247 1.383 . S
C248 C249 1.377 . S
C249 H233 0.930 . S
C249 C248 1.377 . S
C249 C250 1.379 . S
C250 H234 0.931 . S
C250 C244 1.383 . S
C250 C249 1.379 . S
H251 C245 0.959 . S
H252 C245 0.961 . S
H253 C245 0.960 . S
H254 C246 0.930 . S
H255 C247 0.929 . S
H256 C264 0.929 . S
H257 C266 0.930 . S
H258 C268 0.930 . S
H259 C271 0.929 . S
H260 C274 0.930 . S
H261 C276 0.960 . S
H262 C276 0.960 . S
H263 C276 0.960 . S
C264 H256 0.929 . S
C264 C265 1.377 . S
C264 C266 1.384 . S
C265 C264 1.377 . S
C265 C271 1.390 . S
C266 H257 0.930 . S
C266 C264 1.384 . S
C266 C267 1.372 . S
C267 C266 1.372 . S
C267 C268 1.400 . S
C267 C272 1.490 . S
C268 H258 0.930 . S
C268 C267 1.400 . S
C268 C271 1.386 . S
H269 C285 0.930 . S
H270 C286 0.931 . S
C271 H259 0.929 . S
C271 C265 1.390 . S
C271 C268 1.386 . S
C272 C267 1.490 . S
C272 C274 1.395 . S
C272 C275 1.403 . S
H273 C279 0.930 . S
C274 H260 0.930 . S
C274 C272 1.395 . S
C274 C277 1.403 . S
C275 C272 1.403 . S
C275 C276 1.524 . S
C275 C279 1.400 . S
C276 H261 0.960 . S
C276 H262 0.960 . S
C276 H263 0.960 . S
C276 C275 1.524 . S
C277 C274 1.403 . S
C277 C278 1.392 . S
C277 C281 1.495 . S
C278 C277 1.392 . S
C278 C279 1.385 . S
C278 C280 1.478 . S
C279 H273 0.930 . S
C279 C275 1.400 . S
C279 C278 1.385 . S
C280 C278 1.478 . S
C280 C282 1.381 . S
C280 C286 1.383 . S
C281 C277 1.495 . S
C281 H287 0.959 . S
C281 H288 0.961 . S
C281 H289 0.960 . S
C282 C280 1.381 . S
C282 C283 1.394 . S
C282 H290 0.930 . S
C283 C282 1.394 . S
C283 C284 1.383 . S
C283 H291 0.929 . S
C284 C283 1.383 . S
C284 C285 1.377 . S
C285 H269 0.930 . S
C285 C284 1.377 . S
C285 C286 1.379 . S
C286 H270 0.931 . S
C286 C280 1.383 . S
C286 C285 1.379 . S
H287 C281 0.959 . S
H288 C281 0.961 . S
H289 C281 0.960 . S
H290 C282 0.930 . S
H291 C283 0.929 . S
H292 C300 0.929 . S
H293 C302 0.930 . S
H294 C304 0.930 . S
H295 C307 0.929 . S
H296 C310 0.930 . S
H297 C312 0.960 . S
H298 C312 0.960 . S
H299 C312 0.960 . S
C300 H292 0.929 . S
C300 C301 1.377 . S
C300 C302 1.384 . S
C301 C300 1.377 . S
C301 C307 1.390 . S
C302 H293 0.930 . S
C302 C300 1.384 . S
C302 C303 1.372 . S
C303 C302 1.372 . S
C303 C304 1.400 . S
C303 C308 1.490 . S
C304 H294 0.930 . S
C304 C303 1.400 . S
C304 C307 1.386 . S
H305 C321 0.930 . S
H306 C322 0.931 . S
C307 H295 0.929 . S
C307 C301 1.390 . S
C307 C304 1.386 . S
C308 C303 1.490 . S
C308 C310 1.395 . S
C308 C311 1.403 . S
H309 C315 0.930 . S
C310 H296 0.930 . S
C310 C308 1.395 . S
C310 C313 1.403 . S
C311 C308 1.403 . S
C311 C312 1.524 . S
C311 C315 1.400 . S
C312 H297 0.960 . S
C312 H298 0.960 . S
C312 H299 0.960 . S
C312 C311 1.524 . S
C313 C310 1.403 . S
C313 C314 1.392 . S
C313 C317 1.495 . S
C314 C313 1.392 . S
C314 C315 1.385 . S
C314 C316 1.478 . S
C315 H309 0.930 . S
C315 C311 1.400 . S
C315 C314 1.385 . S
C316 C314 1.478 . S
C316 C318 1.381 . S
C316 C322 1.383 . S
C317 C313 1.495 . S
C317 H323 0.959 . S
C317 H324 0.961 . S
C317 H325 0.960 . S
C318 C316 1.381 . S
C318 C319 1.394 . S
C318 H326 0.930 . S
C319 C318 1.394 . S
C319 C320 1.383 . S
C319 H327 0.929 1_655 S
C320 C319 1.383 . S
C320 C321 1.377 . S
C321 H305 0.930 . S
C321 C320 1.377 . S
C321 C322 1.379 . S
C322 H306 0.931 . S
C322 C316 1.383 . S
C322 C321 1.379 . S
H323 C317 0.959 . S
H324 C317 0.961 . S
H325 C317 0.960 . S
H326 C318 0.930 . S
H327 C319 0.929 1_455 S
H328 C336 0.929 . S
H329 C338 0.930 . S
H330 C340 0.930 . S
H331 C343 0.929 . S
H332 C346 0.930 . S
H333 C348 0.960 . S
H334 C348 0.960 . S
H335 C348 0.960 . S
C336 H328 0.929 . S
C336 C337 1.377 . S
C336 C338 1.384 . S
C337 C336 1.377 . S
C337 C343 1.390 . S
C338 H329 0.930 . S
C338 C336 1.384 . S
C338 C339 1.372 . S
C339 C338 1.372 . S
C339 C340 1.400 . S
C339 C344 1.490 . S
C340 H330 0.930 . S
C340 C339 1.400 . S
C340 C343 1.386 . S
H341 C357 0.930 . S
H342 C358 0.931 . S
C343 H331 0.929 . S
C343 C337 1.390 . S
C343 C340 1.386 . S
C344 C339 1.490 . S
C344 C346 1.395 . S
C344 C347 1.403 . S
H345 C351 0.930 . S
C346 H332 0.930 . S
C346 C344 1.395 . S
C346 C349 1.403 . S
C347 C344 1.403 . S
C347 C348 1.524 . S
C347 C351 1.400 . S
C348 H333 0.960 . S
C348 H334 0.960 . S
C348 H335 0.960 . S
C348 C347 1.524 . S
C349 C346 1.403 . S
C349 C350 1.392 . S
C349 C353 1.495 . S
C350 C349 1.392 . S
C350 C351 1.385 . S
C350 C352 1.478 . S
C351 H345 0.930 . S
C351 C347 1.400 . S
C351 C350 1.385 . S
C352 C350 1.478 . S
C352 C354 1.381 . S
C352 C358 1.383 . S
C353 C349 1.495 . S
C353 H359 0.959 . S
C353 H360 0.961 . S
C353 H361 0.960 . S
C354 C352 1.381 . S
C354 C355 1.394 . S
C354 H362 0.930 . S
C355 C354 1.394 . S
C355 C356 1.383 . S
C355 H363 0.929 . S
C356 C355 1.383 . S
C356 C357 1.377 . S
C357 H341 0.930 . S
C357 C356 1.377 . S
C357 C358 1.379 . S
C358 H342 0.931 . S
C358 C352 1.383 . S
C358 C357 1.379 . S
H359 C353 0.959 . S
H360 C353 0.961 . S
H361 C353 0.960 . S
H362 C354 0.930 . S
H363 C355 0.929 . S
H364 C372 0.929 . S
H365 C374 0.930 . S
H366 C376 0.930 . S
H367 C379 0.929 . S
H368 C382 0.930 . S
H369 C384 0.960 . S
H370 C384 0.960 . S
H371 C384 0.960 . S
C372 H364 0.929 . S
C372 C373 1.377 . S
C372 C374 1.384 . S
C373 C372 1.377 . S
C373 C379 1.390 . S
C374 H365 0.930 . S
C374 C372 1.384 . S
C374 C375 1.372 . S
C375 C374 1.372 . S
C375 C376 1.400 . S
C375 C380 1.490 . S
C376 H366 0.930 . S
C376 C375 1.400 . S
C376 C379 1.386 . S
H377 C393 0.930 . S
H378 C394 0.931 . S
C379 H367 0.929 . S
C379 C373 1.390 . S
C379 C376 1.386 . S
C380 C375 1.490 . S
C380 C382 1.395 . S
C380 C383 1.403 . S
H381 C387 0.930 . S
C382 H368 0.930 . S
C382 C380 1.395 . S
C382 C385 1.403 . S
C383 C380 1.403 . S
C383 C384 1.524 . S
C383 C387 1.400 . S
C384 H369 0.960 . S
C384 H370 0.960 . S
C384 H371 0.960 . S
C384 C383 1.524 . S
C385 C382 1.403 . S
C385 C386 1.392 . S
C385 C389 1.495 . S
C386 C385 1.392 . S
C386 C387 1.385 . S
C386 C388 1.478 . S
C387 H381 0.930 . S
C387 C383 1.400 . S
C387 C386 1.385 . S
C388 C386 1.478 . S
C388 C390 1.381 . S
C388 C394 1.383 . S
C389 C385 1.495 . S
C389 H395 0.959 . S
C389 H396 0.961 . S
C389 H397 0.960 . S
C390 C388 1.381 . S
C390 C391 1.394 . S
C390 H398 0.930 . S
C391 C390 1.394 . S
C391 C392 1.383 . S
C391 H399 0.929 . S
C392 C391 1.383 . S
C392 C393 1.377 . S
C393 H377 0.930 . S
C393 C392 1.377 . S
C393 C394 1.379 . S
C394 H378 0.931 . S
C394 C388 1.383 . S
C394 C393 1.379 . S
H395 C389 0.959 . S
H396 C389 0.961 . S
H397 C389 0.960 . S
H398 C390 0.930 . S
H399 C391 0.929 . S
H400 C408 0.929 . S
H401 C410 0.930 . S
H402 C412 0.930 . S
H403 C415 0.929 . S
H404 C418 0.930 . S
H405 C420 0.960 . S
H406 C420 0.960 . S
H407 C420 0.960 . S
C408 H400 0.929 . S
C408 C409 1.377 . S
C408 C410 1.384 . S
C409 C408 1.377 . S
C409 C415 1.390 . S
C410 H401 0.930 . S
C410 C408 1.384 . S
C410 C411 1.372 . S
C411 C410 1.372 . S
C411 C412 1.400 . S
C411 C416 1.490 . S
C412 H402 0.930 . S
C412 C411 1.400 . S
C412 C415 1.386 . S
H413 C429 0.930 . S
H414 C430 0.931 . S
C415 H403 0.929 . S
C415 C409 1.390 . S
C415 C412 1.386 . S
C416 C411 1.490 . S
C416 C418 1.395 . S
C416 C419 1.403 . S
H417 C423 0.930 . S
C418 H404 0.930 . S
C418 C416 1.395 . S
C418 C421 1.403 . S
C419 C416 1.403 . S
C419 C420 1.524 . S
C419 C423 1.400 . S
C420 H405 0.960 . S
C420 H406 0.960 . S
C420 H407 0.960 . S
C420 C419 1.524 . S
C421 C418 1.403 . S
C421 C422 1.392 . S
C421 C425 1.495 . S
C422 C421 1.392 . S
C422 C423 1.385 . S
C422 C424 1.478 . S
C423 H417 0.930 . S
C423 C419 1.400 . S
C423 C422 1.385 . S
C424 C422 1.478 . S
C424 C426 1.381 . S
C424 C430 1.383 . S
C425 C421 1.495 . S
C425 H431 0.959 . S
C425 H432 0.961 . S
C425 H433 0.960 . S
C426 C424 1.381 . S
C426 C427 1.394 . S
C426 H434 0.930 . S
C427 C426 1.394 . S
C427 C428 1.383 . S
C427 H435 0.929 . S
C428 C427 1.383 . S
C428 C429 1.377 . S
C429 H413 0.930 . S
C429 C428 1.377 . S
C429 C430 1.379 . S
C430 H414 0.931 . S
C430 C424 1.383 . S
C430 C429 1.379 . S
H431 C425 0.959 . S
H432 C425 0.961 . S
H433 C425 0.960 . S
H434 C426 0.930 . S
H435 C427 0.929 . S
H436 C444 0.929 . S
H437 C446 0.930 . S
H438 C448 0.930 . S
H439 C451 0.929 . S
H440 C454 0.930 . S
H441 C456 0.960 . S
H442 C456 0.960 . S
H443 C456 0.960 . S
C444 H436 0.929 . S
C444 C445 1.377 . S
C444 C446 1.384 . S
C445 C444 1.377 . S
C445 C451 1.390 . S
C446 H437 0.930 . S
C446 C444 1.384 . S
C446 C447 1.372 . S
C447 C446 1.372 . S
C447 C448 1.400 . S
C447 C452 1.490 . S
C448 H438 0.930 . S
C448 C447 1.400 . S
C448 C451 1.386 . S
H449 C465 0.930 . S
H450 C466 0.931 . S
C451 H439 0.929 . S
C451 C445 1.390 . S
C451 C448 1.386 . S
C452 C447 1.490 . S
C452 C454 1.395 . S
C452 C455 1.403 . S
H453 C459 0.930 . S
C454 H440 0.930 . S
C454 C452 1.395 . S
C454 C457 1.403 . S
C455 C452 1.403 . S
C455 C456 1.524 . S
C455 C459 1.400 . S
C456 H441 0.960 . S
C456 H442 0.960 . S
C456 H443 0.960 . S
C456 C455 1.524 . S
C457 C454 1.403 . S
C457 C458 1.392 . S
C457 C461 1.495 . S
C458 C457 1.392 . S
C458 C459 1.385 . S
C458 C460 1.478 . S
C459 H453 0.930 . S
C459 C455 1.400 . S
C459 C458 1.385 . S
C460 C458 1.478 . S
C460 C462 1.381 . S
C460 C466 1.383 . S
C461 C457 1.495 . S
C461 H467 0.959 . S
C461 H468 0.961 . S
C461 H469 0.960 . S
C462 C460 1.381 . S
C462 C463 1.394 . S
C462 H470 0.930 . S
C463 C462 1.394 . S
C463 C464 1.383 . S
C463 H471 0.929 . S
C464 C463 1.383 . S
C464 C465 1.377 . S
C465 H449 0.930 . S
C465 C464 1.377 . S
C465 C466 1.379 . S
C466 H450 0.931 . S
C466 C460 1.383 . S
C466 C465 1.379 . S
H467 C461 0.959 . S
H468 C461 0.961 . S
H469 C461 0.960 . S
H470 C462 0.930 . S
H471 C463 0.929 . S
H472 C480 0.929 . S
H473 C482 0.930 . S
H474 C484 0.930 . S
H475 C487 0.929 . S
H476 C490 0.930 . S
H477 C492 0.960 . S
H478 C492 0.960 . S
H479 C492 0.960 . S
C480 H472 0.929 . S
C480 C481 1.377 . S
C480 C482 1.384 . S
C481 C480 1.377 . S
C481 C487 1.390 . S
C482 H473 0.930 . S
C482 C480 1.384 . S
C482 C483 1.372 . S
C483 C482 1.372 . S
C483 C484 1.400 . S
C483 C488 1.490 . S
C484 H474 0.930 . S
C484 C483 1.400 . S
C484 C487 1.386 . S
H485 C501 0.930 . S
H486 C502 0.931 . S
C487 H475 0.929 . S
C487 C481 1.390 . S
C487 C484 1.386 . S
C488 C483 1.490 . S
C488 C490 1.395 . S
C488 C491 1.403 . S
H489 C495 0.930 . S
C490 H476 0.930 . S
C490 C488 1.395 . S
C490 C493 1.403 . S
C491 C488 1.403 . S
C491 C492 1.524 . S
C491 C495 1.400 . S
C492 H477 0.960 . S
C492 H478 0.960 . S
C492 H479 0.960 . S
C492 C491 1.524 . S
C493 C490 1.403 . S
C493 C494 1.392 . S
C493 C497 1.495 . S
C494 C493 1.392 . S
C494 C495 1.385 . S
C494 C496 1.478 . S
C495 H489 0.930 . S
C495 C491 1.400 . S
C495 C494 1.385 . S
C496 C494 1.478 . S
C496 C498 1.381 . S
C496 C502 1.383 . S
C497 C493 1.495 . S
C497 H503 0.959 . S
C497 H504 0.961 . S
C497 H505 0.960 . S
C498 C496 1.381 . S
C498 C499 1.394 . S
C498 H506 0.930 . S
C499 C498 1.394 . S
C499 C500 1.383 . S
C499 H507 0.929 . S
C500 C499 1.383 . S
C500 C501 1.377 . S
C501 H485 0.930 . S
C501 C500 1.377 . S
C501 C502 1.379 . S
C502 H486 0.931 . S
C502 C496 1.383 . S
C502 C501 1.379 . S
H503 C497 0.959 . S
H504 C497 0.961 . S
H505 C497 0.960 . S
H506 C498 0.930 . S
H507 C499 0.929 . S
H508 C516 0.929 . S
H509 C518 0.930 . S
H510 C520 0.930 . S
H511 C523 0.929 . S
H512 C526 0.930 . S
H513 C528 0.960 . S
H514 C528 0.960 . S
H515 C528 0.960 . S
C516 H508 0.929 . S
C516 C517 1.377 . S
C516 C518 1.384 . S
C517 C516 1.377 . S
C517 C523 1.390 . S
C518 H509 0.930 . S
C518 C516 1.384 . S
C518 C519 1.372 . S
C519 C518 1.372 . S
C519 C520 1.400 . S
C519 C524 1.490 . S
C520 H510 0.930 . S
C520 C519 1.400 . S
C520 C523 1.386 . S
H521 C537 0.930 . S
H522 C538 0.931 . S
C523 H511 0.929 . S
C523 C517 1.390 . S
C523 C520 1.386 . S
C524 C519 1.490 . S
C524 C526 1.395 . S
C524 C527 1.403 . S
H525 C531 0.930 . S
C526 H512 0.930 . S
C526 C524 1.395 . S
C526 C529 1.403 . S
C527 C524 1.403 . S
C527 C528 1.524 . S
C527 C531 1.400 . S
C528 H513 0.960 . S
C528 H514 0.960 . S
C528 H515 0.960 . S
C528 C527 1.524 . S
C529 C526 1.403 . S
C529 C530 1.392 . S
C529 C533 1.495 . S
C530 C529 1.392 . S
C530 C531 1.385 . S
C530 C532 1.478 . S
C531 H525 0.930 . S
C531 C527 1.400 . S
C531 C530 1.385 . S
C532 C530 1.478 . S
C532 C534 1.381 . S
C532 C538 1.383 . S
C533 C529 1.495 . S
C533 H539 0.959 . S
C533 H540 0.961 . S
C533 H541 0.960 . S
C534 C532 1.381 . S
C534 C535 1.394 . S
C534 H542 0.930 . S
C535 C534 1.394 . S
C535 C536 1.383 . S
C535 H543 0.929 . S
C536 C535 1.383 . S
C536 C537 1.377 . S
C537 H521 0.930 . S
C537 C536 1.377 . S
C537 C538 1.379 . S
C538 H522 0.931 . S
C538 C532 1.383 . S
C538 C537 1.379 . S
H539 C533 0.959 . S
H540 C533 0.961 . S
H541 C533 0.960 . S
H542 C534 0.930 . S
H543 C535 0.929 . S
H544 C552 0.929 . S
H545 C554 0.930 . S
H546 C556 0.930 . S
H547 C559 0.929 . S
H548 C562 0.930 . S
H549 C564 0.960 . S
H550 C564 0.960 . S
H551 C564 0.960 . S
C552 H544 0.929 . S
C552 C553 1.377 . S
C552 C554 1.384 . S
C553 C552 1.377 . S
C553 C559 1.390 . S
C554 H545 0.930 . S
C554 C552 1.384 . S
C554 C555 1.372 . S
C555 C554 1.372 . S
C555 C556 1.400 . S
C555 C560 1.490 . S
C556 H546 0.930 . S
C556 C555 1.400 . S
C556 C559 1.386 . S
H557 C573 0.930 . S
H558 C574 0.931 . S
C559 H547 0.929 . S
C559 C553 1.390 . S
C559 C556 1.386 . S
C560 C555 1.490 . S
C560 C562 1.395 . S
C560 C563 1.403 . S
H561 C567 0.930 . S
C562 H548 0.930 . S
C562 C560 1.395 . S
C562 C565 1.403 . S
C563 C560 1.403 . S
C563 C564 1.524 . S
C563 C567 1.400 . S
C564 H549 0.960 . S
C564 H550 0.960 . S
C564 H551 0.960 . S
C564 C563 1.524 . S
C565 C562 1.403 . S
C565 C566 1.392 . S
C565 C569 1.495 . S
C566 C565 1.392 . S
C566 C567 1.385 . S
C566 C568 1.478 . S
C567 H561 0.930 . S
C567 C563 1.400 . S
C567 C566 1.385 . S
C568 C566 1.478 . S
C568 C570 1.381 . S
C568 C574 1.383 . S
C569 C565 1.495 . S
C569 H575 0.959 . S
C569 H576 0.961 . S
C569 H577 0.960 . S
C570 C568 1.381 . S
C570 C571 1.394 . S
C570 H578 0.930 . S
C571 C570 1.394 . S
C571 C572 1.383 . S
C571 H579 0.929 1_655 S
C572 C571 1.383 . S
C572 C573 1.377 . S
C573 H557 0.930 . S
C573 C572 1.377 . S
C573 C574 1.379 . S
C574 H558 0.931 . S
C574 C568 1.383 . S
C574 C573 1.379 . S
H575 C569 0.959 . S
H576 C569 0.961 . S
H577 C569 0.960 . S
H578 C570 0.930 . S
H579 C571 0.929 1_455 S
H580 C588 0.929 . S
H581 C590 0.930 . S
H582 C592 0.930 . S
H583 C595 0.929 . S
H584 C598 0.930 . S
H585 C600 0.960 . S
H586 C600 0.960 . S
H587 C600 0.960 . S
C588 H580 0.929 . S
C588 C589 1.377 . S
C588 C590 1.384 . S
C589 C588 1.377 . S
C589 C595 1.390 . S
C590 H581 0.930 . S
C590 C588 1.384 . S
C590 C591 1.372 . S
C591 C590 1.372 . S
C591 C592 1.400 . S
C591 C596 1.490 . S
C592 H582 0.930 . S
C592 C591 1.400 . S
C592 C595 1.386 . S
H593 C609 0.930 . S
H594 C610 0.931 . S
C595 H583 0.929 . S
C595 C589 1.390 . S
C595 C592 1.386 . S
C596 C591 1.490 . S
C596 C598 1.395 . S
C596 C599 1.403 . S
H597 C603 0.930 . S
C598 H584 0.930 . S
C598 C596 1.395 . S
C598 C601 1.403 . S
C599 C596 1.403 . S
C599 C600 1.524 . S
C599 C603 1.400 . S
C600 H585 0.960 . S
C600 H586 0.960 . S
C600 H587 0.960 . S
C600 C599 1.524 . S
C601 C598 1.403 . S
C601 C602 1.392 . S
C601 C605 1.495 . S
C602 C601 1.392 . S
C602 C603 1.385 . S
C602 C604 1.478 . S
C603 H597 0.930 . S
C603 C599 1.400 . S
C603 C602 1.385 . S
C604 C602 1.478 . S
C604 C606 1.381 . S
C604 C610 1.383 . S
C605 C601 1.495 . S
C605 H611 0.959 . S
C605 H612 0.961 . S
C605 H613 0.960 . S
C606 C604 1.381 . S
C606 C607 1.394 . S
C606 H614 0.930 . S
C607 C606 1.394 . S
C607 C608 1.383 . S
C607 H615 0.929 . S
C608 C607 1.383 . S
C608 C609 1.377 . S
C609 H593 0.930 . S
C609 C608 1.377 . S
C609 C610 1.379 . S
C610 H594 0.931 . S
C610 C604 1.383 . S
C610 C609 1.379 . S
H611 C605 0.959 . S
H612 C605 0.961 . S
H613 C605 0.960 . S
H614 C606 0.930 . S
H615 C607 0.929 . S
H616 C624 0.929 . S
H617 C626 0.930 . S
H618 C628 0.930 . S
H619 C631 0.929 . S
H620 C634 0.930 . S
H621 C636 0.960 . S
H622 C636 0.960 . S
H623 C636 0.960 . S
C624 H616 0.929 . S
C624 C625 1.377 . S
C624 C626 1.384 . S
C625 C624 1.377 . S
C625 C631 1.390 . S
C626 H617 0.930 . S
C626 C624 1.384 . S
C626 C627 1.372 . S
C627 C626 1.372 . S
C627 C628 1.400 . S
C627 C632 1.490 . S
C628 H618 0.930 . S
C628 C627 1.400 . S
C628 C631 1.386 . S
H629 C645 0.930 . S
H630 C646 0.931 . S
C631 H619 0.929 . S
C631 C625 1.390 . S
C631 C628 1.386 . S
C632 C627 1.490 . S
C632 C634 1.395 . S
C632 C635 1.403 . S
H633 C639 0.930 . S
C634 H620 0.930 . S
C634 C632 1.395 . S
C634 C637 1.403 . S
C635 C632 1.403 . S
C635 C636 1.524 . S
C635 C639 1.400 . S
C636 H621 0.960 . S
C636 H622 0.960 . S
C636 H623 0.960 . S
C636 C635 1.524 . S
C637 C634 1.403 . S
C637 C638 1.392 . S
C637 C641 1.495 . S
C638 C637 1.392 . S
C638 C639 1.385 . S
C638 C640 1.478 . S
C639 H633 0.930 . S
C639 C635 1.400 . S
C639 C638 1.385 . S
C640 C638 1.478 . S
C640 C642 1.381 . S
C640 C646 1.383 . S
C641 C637 1.495 . S
C641 H647 0.959 . S
C641 H648 0.961 . S
C641 H649 0.960 . S
C642 C640 1.381 . S
C642 C643 1.394 1_655 S
C642 H650 0.930 . S
C643 C642 1.394 1_455 S
C643 C644 1.383 1_455 S
C643 H651 0.929 . S
C644 C643 1.383 1_655 S
C644 C645 1.377 . S
C645 H629 0.930 . S
C645 C644 1.377 . S
C645 C646 1.379 . S
C646 H630 0.931 . S
C646 C640 1.383 . S
C646 C645 1.379 . S
H647 C641 0.959 . S
H648 C641 0.961 . S
H649 C641 0.960 . S
H650 C642 0.930 . S
H651 C643 0.929 . S
H652 C660 0.929 . S
H653 C662 0.930 . S
H654 C664 0.930 . S
H655 C667 0.929 . S
H656 C670 0.930 . S
H657 C672 0.960 . S
H658 C672 0.960 . S
H659 C672 0.960 . S
C660 H652 0.929 . S
C660 C661 1.377 . S
C660 C662 1.384 . S
C661 C660 1.377 . S
C661 C667 1.390 . S
C662 H653 0.930 . S
C662 C660 1.384 . S
C662 C663 1.372 . S
C663 C662 1.372 . S
C663 C664 1.400 . S
C663 C668 1.490 . S
C664 H654 0.930 . S
C664 C663 1.400 . S
C664 C667 1.386 . S
H665 C681 0.930 . S
H666 C682 0.931 . S
C667 H655 0.929 . S
C667 C661 1.390 . S
C667 C664 1.386 . S
C668 C663 1.490 . S
C668 C670 1.395 . S
C668 C671 1.403 . S
H669 C675 0.930 . S
C670 H656 0.930 . S
C670 C668 1.395 . S
C670 C673 1.403 . S
C671 C668 1.403 . S
C671 C672 1.524 . S
C671 C675 1.400 . S
C672 H657 0.960 . S
C672 H658 0.960 . S
C672 H659 0.960 . S
C672 C671 1.524 . S
C673 C670 1.403 . S
C673 C674 1.392 . S
C673 C677 1.495 . S
C674 C673 1.392 . S
C674 C675 1.385 . S
C674 C676 1.478 . S
C675 H669 0.930 . S
C675 C671 1.400 . S
C675 C674 1.385 . S
C676 C674 1.478 . S
C676 C678 1.381 . S
C676 C682 1.383 . S
C677 C673 1.495 . S
C677 H683 0.959 . S
C677 H684 0.961 . S
C677 H685 0.960 . S
C678 C676 1.381 . S
C678 C679 1.394 . S
C678 H686 0.930 . S
C679 C678 1.394 . S
C679 C680 1.383 . S
C679 H687 0.929 . S
C680 C679 1.383 . S
C680 C681 1.377 . S
C681 H665 0.930 . S
C681 C680 1.377 . S
C681 C682 1.379 . S
C682 H666 0.931 . S
C682 C676 1.383 . S
C682 C681 1.379 . S
H683 C677 0.959 . S
H684 C677 0.961 . S
H685 C677 0.960 . S
H686 C678 0.930 . S
H687 C679 0.929 . S
H688 C696 0.929 . S
H689 C698 0.930 . S
H690 C700 0.930 . S
H691 C703 0.929 . S
H692 C706 0.930 . S
H693 C708 0.960 . S
H694 C708 0.960 . S
H695 C708 0.960 . S
C696 H688 0.929 . S
C696 C697 1.377 . S
C696 C698 1.384 . S
C697 C696 1.377 . S
C697 C703 1.390 . S
C698 H689 0.930 . S
C698 C696 1.384 . S
C698 C699 1.372 . S
C699 C698 1.372 . S
C699 C700 1.400 . S
C699 C704 1.490 . S
C700 H690 0.930 . S
C700 C699 1.400 . S
C700 C703 1.386 . S
H701 C717 0.930 . S
H702 C718 0.931 . S
C703 H691 0.929 . S
C703 C697 1.390 . S
C703 C700 1.386 . S
C704 C699 1.490 . S
C704 C706 1.395 . S
C704 C707 1.403 . S
H705 C711 0.930 . S
C706 H692 0.930 . S
C706 C704 1.395 . S
C706 C709 1.403 . S
C707 C704 1.403 . S
C707 C708 1.524 . S
C707 C711 1.400 . S
C708 H693 0.960 . S
C708 H694 0.960 . S
C708 H695 0.960 . S
C708 C707 1.524 . S
C709 C706 1.403 . S
C709 C710 1.392 . S
C709 C713 1.495 . S
C710 C709 1.392 . S
C710 C711 1.385 . S
C710 C712 1.478 . S
C711 H705 0.930 . S
C711 C707 1.400 . S
C711 C710 1.385 . S
C712 C710 1.478 . S
C712 C714 1.381 . S
C712 C718 1.383 . S
C713 C709 1.495 . S
C713 H719 0.959 . S
C713 H720 0.961 . S
C713 H721 0.960 . S
C714 C712 1.381 . S
C714 C715 1.394 . S
C714 H722 0.930 . S
C715 C714 1.394 . S
C715 C716 1.383 . S
C715 H723 0.929 . S
C716 C715 1.383 . S
C716 C717 1.377 . S
C717 H701 0.930 . S
C717 C716 1.377 . S
C717 C718 1.379 . S
C718 H702 0.931 . S
C718 C712 1.383 . S
C718 C717 1.379 . S
H719 C713 0.959 . S
H720 C713 0.961 . S
H721 C713 0.960 . S
H722 C714 0.930 . S
H723 C715 0.929 . S
H724 C732 0.929 . S
H725 C734 0.930 . S
H726 C736 0.930 . S
H727 C739 0.929 . S
H728 C742 0.930 . S
H729 C744 0.960 . S
H730 C744 0.960 . S
H731 C744 0.960 . S
C732 H724 0.929 . S
C732 C733 1.377 . S
C732 C734 1.384 . S
C733 C732 1.377 . S
C733 C739 1.390 . S
C734 H725 0.930 . S
C734 C732 1.384 . S
C734 C735 1.372 . S
C735 C734 1.372 . S
C735 C736 1.400 . S
C735 C740 1.490 . S
C736 H726 0.930 . S
C736 C735 1.400 . S
C736 C739 1.386 . S
H737 C753 0.930 . S
H738 C754 0.931 . S
C739 H727 0.929 . S
C739 C733 1.390 . S
C739 C736 1.386 . S
C740 C735 1.490 . S
C740 C742 1.395 . S
C740 C743 1.403 . S
H741 C747 0.930 . S
C742 H728 0.930 . S
C742 C740 1.395 . S
C742 C745 1.403 . S
C743 C740 1.403 . S
C743 C744 1.524 . S
C743 C747 1.400 . S
C744 H729 0.960 . S
C744 H730 0.960 . S
C744 H731 0.960 . S
C744 C743 1.524 . S
C745 C742 1.403 . S
C745 C746 1.392 . S
C745 C749 1.495 . S
C746 C745 1.392 . S
C746 C747 1.385 . S
C746 C748 1.478 . S
C747 H741 0.930 . S
C747 C743 1.400 . S
C747 C746 1.385 . S
C748 C746 1.478 . S
C748 C750 1.381 . S
C748 C754 1.383 . S
C749 C745 1.495 . S
C749 H755 0.959 . S
C749 H756 0.961 . S
C749 H757 0.960 . S
C750 C748 1.381 . S
C750 C751 1.394 . S
C750 H758 0.930 . S
C751 C750 1.394 . S
C751 C752 1.383 . S
C751 H759 0.929 . S
C752 C751 1.383 . S
C752 C753 1.377 . S
C753 H737 0.930 . S
C753 C752 1.377 . S
C753 C754 1.379 . S
C754 H738 0.931 . S
C754 C748 1.383 . S
C754 C753 1.379 . S
H755 C749 0.959 . S
H756 C749 0.961 . S
H757 C749 0.960 . S
H758 C750 0.930 . S
H759 C751 0.929 . S
H760 C768 0.929 . S
H761 C770 0.930 . S
H762 C772 0.930 . S
H763 C775 0.929 . S
H764 C778 0.930 . S
H765 C780 0.960 . S
H766 C780 0.960 . S
H767 C780 0.960 . S
C768 H760 0.929 . S
C768 C769 1.377 . S
C768 C770 1.384 . S
C769 C768 1.377 . S
C769 C775 1.390 . S
C770 H761 0.930 . S
C770 C768 1.384 . S
C770 C771 1.372 . S
C771 C770 1.372 . S
C771 C772 1.400 . S
C771 C776 1.490 . S
C772 H762 0.930 . S
C772 C771 1.400 . S
C772 C775 1.386 . S
H773 C789 0.930 . S
H774 C790 0.931 . S
C775 H763 0.929 . S
C775 C769 1.390 . S
C775 C772 1.386 . S
C776 C771 1.490 . S
C776 C778 1.395 . S
C776 C779 1.403 . S
H777 C783 0.930 . S
C778 H764 0.930 . S
C778 C776 1.395 . S
C778 C781 1.403 . S
C779 C776 1.403 . S
C779 C780 1.524 . S
C779 C783 1.400 . S
C780 H765 0.960 . S
C780 H766 0.960 . S
C780 H767 0.960 . S
C780 C779 1.524 . S
C781 C778 1.403 . S
C781 C782 1.392 . S
C781 C785 1.495 . S
C782 C781 1.392 . S
C782 C783 1.385 . S
C782 C784 1.478 . S
C783 H777 0.930 . S
C783 C779 1.400 . S
C783 C782 1.385 . S
C784 C782 1.478 . S
C784 C786 1.381 . S
C784 C790 1.383 . S
C785 C781 1.495 . S
C785 H791 0.959 . S
C785 H792 0.961 . S
C785 H793 0.960 . S
C786 C784 1.381 . S
C786 C787 1.394 . S
C786 H794 0.930 . S
C787 C786 1.394 . S
C787 C788 1.383 . S
C787 H795 0.929 . S
C788 C787 1.383 . S
C788 C789 1.377 . S
C789 H773 0.930 . S
C789 C788 1.377 . S
C789 C790 1.379 . S
C790 H774 0.931 . S
C790 C784 1.383 . S
C790 C789 1.379 . S
H791 C785 0.959 . S
H792 C785 0.961 . S
H793 C785 0.960 . S
H794 C786 0.930 . S
H795 C787 0.929 . S
H796 C804 0.929 . S
H797 C806 0.930 . S
H798 C808 0.930 . S
H799 C811 0.929 . S
H800 C814 0.930 . S
H801 C816 0.960 . S
H802 C816 0.960 . S
H803 C816 0.960 . S
C804 H796 0.929 . S
C804 C805 1.377 . S
C804 C806 1.384 . S
C805 C804 1.377 . S
C805 C811 1.390 . S
C806 H797 0.930 . S
C806 C804 1.384 . S
C806 C807 1.372 . S
C807 C806 1.372 . S
C807 C808 1.400 . S
C807 C812 1.490 . S
C808 H798 0.930 . S
C808 C807 1.400 . S
C808 C811 1.386 . S
H809 C825 0.930 . S
H810 C826 0.931 . S
C811 H799 0.929 . S
C811 C805 1.390 . S
C811 C808 1.386 . S
C812 C807 1.490 . S
C812 C814 1.395 . S
C812 C815 1.403 . S
H813 C819 0.930 . S
C814 H800 0.930 . S
C814 C812 1.395 . S
C814 C817 1.403 . S
C815 C812 1.403 . S
C815 C816 1.524 . S
C815 C819 1.400 . S
C816 H801 0.960 . S
C816 H802 0.960 . S
C816 H803 0.960 . S
C816 C815 1.524 . S
C817 C814 1.403 . S
C817 C818 1.392 . S
C817 C821 1.495 . S
C818 C817 1.392 . S
C818 C819 1.385 . S
C818 C820 1.478 . S
C819 H813 0.930 . S
C819 C815 1.400 . S
C819 C818 1.385 . S
C820 C818 1.478 . S
C820 C822 1.381 . S
C820 C826 1.383 . S
C821 C817 1.495 . S
C821 H827 0.959 . S
C821 H828 0.961 . S
C821 H829 0.960 . S
C822 C820 1.381 . S
C822 C823 1.394 . S
C822 H830 0.930 . S
C823 C822 1.394 . S
C823 C824 1.383 . S
C823 H831 0.929 . S
C824 C823 1.383 . S
C824 C825 1.377 . S
C825 H809 0.930 . S
C825 C824 1.377 . S
C825 C826 1.379 . S
C826 H810 0.931 . S
C826 C820 1.383 . S
C826 C825 1.379 . S
H827 C821 0.959 . S
H828 C821 0.961 . S
H829 C821 0.960 . S
H830 C822 0.930 . S
H831 C823 0.929 . S
H832 C840 0.929 . S
H833 C842 0.930 . S
H834 C844 0.930 . S
H835 C847 0.929 . S
H836 C850 0.930 . S
H837 C852 0.960 . S
H838 C852 0.960 . S
H839 C852 0.960 . S
C840 H832 0.929 . S
C840 C841 1.377 . S
C840 C842 1.384 . S
C841 C840 1.377 . S
C841 C847 1.390 . S
C842 H833 0.930 . S
C842 C840 1.384 . S
C842 C843 1.372 . S
C843 C842 1.372 . S
C843 C844 1.400 . S
C843 C848 1.490 . S
C844 H834 0.930 . S
C844 C843 1.400 . S
C844 C847 1.386 . S
H845 C861 0.930 . S
H846 C862 0.931 . S
C847 H835 0.929 . S
C847 C841 1.390 . S
C847 C844 1.386 . S
C848 C843 1.490 . S
C848 C850 1.395 . S
C848 C851 1.403 . S
H849 C855 0.930 . S
C850 H836 0.930 . S
C850 C848 1.395 . S
C850 C853 1.403 . S
C851 C848 1.403 . S
C851 C852 1.524 . S
C851 C855 1.400 . S
C852 H837 0.960 . S
C852 H838 0.960 . S
C852 H839 0.960 . S
C852 C851 1.524 . S
C853 C850 1.403 . S
C853 C854 1.392 . S
C853 C857 1.495 . S
C854 C853 1.392 . S
C854 C855 1.385 . S
C854 C856 1.478 . S
C855 H849 0.930 . S
C855 C851 1.400 . S
C855 C854 1.385 . S
C856 C854 1.478 . S
C856 C858 1.381 . S
C856 C862 1.383 . S
C857 C853 1.495 . S
C857 H863 0.959 . S
C857 H864 0.961 . S
C857 H865 0.960 . S
C858 C856 1.381 . S
C858 C859 1.394 . S
C858 H866 0.930 . S
C859 C858 1.394 . S
C859 C860 1.383 . S
C859 H867 0.929 . S
C860 C859 1.383 . S
C860 C861 1.377 . S
C861 H845 0.930 . S
C861 C860 1.377 . S
C861 C862 1.379 . S
C862 H846 0.931 . S
C862 C856 1.383 . S
C862 C861 1.379 . S
H863 C857 0.959 . S
H864 C857 0.961 . S
H865 C857 0.960 . S
H866 C858 0.930 . S
H867 C859 0.929 . S
H868 C876 0.929 . S
H869 C878 0.930 . S
H870 C880 0.930 . S
H871 C883 0.929 . S
H872 C886 0.930 . S
H873 C888 0.960 . S
H874 C888 0.960 . S
H875 C888 0.960 . S
C876 H868 0.929 . S
C876 C877 1.377 . S
C876 C878 1.384 . S
C877 C876 1.377 . S
C877 C883 1.390 . S
C878 H869 0.930 . S
C878 C876 1.384 . S
C878 C879 1.372 . S
C879 C878 1.372 . S
C879 C880 1.400 . S
C879 C884 1.490 . S
C880 H870 0.930 . S
C880 C879 1.400 . S
C880 C883 1.386 . S
H881 C897 0.930 . S
H882 C898 0.931 . S
C883 H871 0.929 . S
C883 C877 1.390 . S
C883 C880 1.386 . S
C884 C879 1.490 . S
C884 C886 1.395 . S
C884 C887 1.403 . S
H885 C891 0.930 . S
C886 H872 0.930 . S
C886 C884 1.395 . S
C886 C889 1.403 . S
C887 C884 1.403 . S
C887 C888 1.524 . S
C887 C891 1.400 . S
C888 H873 0.960 . S
C888 H874 0.960 . S
C888 H875 0.960 . S
C888 C887 1.524 . S
C889 C886 1.403 . S
C889 C890 1.392 . S
C889 C893 1.495 . S
C890 C889 1.392 . S
C890 C891 1.385 . S
C890 C892 1.478 . S
C891 H885 0.930 . S
C891 C887 1.400 . S
C891 C890 1.385 . S
C892 C890 1.478 . S
C892 C894 1.381 . S
C892 C898 1.383 . S
C893 C889 1.495 . S
C893 H899 0.959 . S
C893 H900 0.961 . S
C893 H901 0.960 . S
C894 C892 1.381 . S
C894 C895 1.394 . S
C894 H902 0.930 . S
C895 C894 1.394 . S
C895 C896 1.383 . S
C895 H903 0.929 . S
C896 C895 1.383 . S
C896 C897 1.377 . S
C897 H881 0.930 . S
C897 C896 1.377 . S
C897 C898 1.379 . S
C898 H882 0.931 . S
C898 C892 1.383 . S
C898 C897 1.379 . S
H899 C893 0.959 . S
H900 C893 0.961 . S
H901 C893 0.960 . S
H902 C894 0.930 . S
H903 C895 0.929 . S
H904 C912 0.929 . S
H905 C914 0.930 . S
H906 C916 0.930 . S
H907 C919 0.929 . S
H908 C922 0.930 . S
H909 C924 0.960 . S
H910 C924 0.960 . S
H911 C924 0.960 . S
C912 H904 0.929 . S
C912 C913 1.377 . S
C912 C914 1.384 . S
C913 C912 1.377 . S
C913 C919 1.390 . S
C914 H905 0.930 . S
C914 C912 1.384 . S
C914 C915 1.372 . S
C915 C914 1.372 . S
C915 C916 1.400 . S
C915 C920 1.490 . S
C916 H906 0.930 . S
C916 C915 1.400 . S
C916 C919 1.386 . S
H917 C933 0.930 . S
H918 C934 0.931 . S
C919 H907 0.929 . S
C919 C913 1.390 . S
C919 C916 1.386 . S
C920 C915 1.490 . S
C920 C922 1.395 . S
C920 C923 1.403 . S
H921 C927 0.930 . S
C922 H908 0.930 . S
C922 C920 1.395 . S
C922 C925 1.403 . S
C923 C920 1.403 . S
C923 C924 1.524 . S
C923 C927 1.400 . S
C924 H909 0.960 . S
C924 H910 0.960 . S
C924 H911 0.960 . S
C924 C923 1.524 . S
C925 C922 1.403 . S
C925 C926 1.392 . S
C925 C929 1.495 . S
C926 C925 1.392 . S
C926 C927 1.385 . S
C926 C928 1.478 . S
C927 H921 0.930 . S
C927 C923 1.400 . S
C927 C926 1.385 . S
C928 C926 1.478 . S
C928 C930 1.381 . S
C928 C934 1.383 . S
C929 C925 1.495 . S
C929 H935 0.959 . S
C929 H936 0.961 . S
C929 H937 0.960 . S
C930 C928 1.381 . S
C930 C931 1.394 . S
C930 H938 0.930 . S
C931 C930 1.394 . S
C931 C932 1.383 . S
C931 H939 0.929 . S
C932 C931 1.383 . S
C932 C933 1.377 . S
C933 H917 0.930 . S
C933 C932 1.377 . S
C933 C934 1.379 . S
C934 H918 0.931 . S
C934 C928 1.383 . S
C934 C933 1.379 . S
H935 C929 0.959 . S
H936 C929 0.961 . S
H937 C929 0.960 . S
H938 C930 0.930 . S
H939 C931 0.929 . S
H940 C948 0.929 . S
H941 C950 0.930 . S
H942 C952 0.930 . S
H943 C955 0.929 . S
H944 C958 0.930 . S
H945 C960 0.960 . S
H946 C960 0.960 . S
H947 C960 0.960 . S
C948 H940 0.929 . S
C948 C949 1.377 . S
C948 C950 1.384 . S
C949 C948 1.377 . S
C949 C955 1.390 . S
C950 H941 0.930 . S
C950 C948 1.384 . S
C950 C951 1.372 . S
C951 C950 1.372 . S
C951 C952 1.400 . S
C951 C956 1.490 . S
C952 H942 0.930 . S
C952 C951 1.400 . S
C952 C955 1.386 . S
H953 C969 0.930 . S
H954 C970 0.931 . S
C955 H943 0.929 . S
C955 C949 1.390 . S
C955 C952 1.386 . S
C956 C951 1.490 . S
C956 C958 1.395 . S
C956 C959 1.403 . S
H957 C963 0.930 . S
C958 H944 0.930 . S
C958 C956 1.395 . S
C958 C961 1.403 . S
C959 C956 1.403 . S
C959 C960 1.524 . S
C959 C963 1.400 . S
C960 H945 0.960 . S
C960 H946 0.960 . S
C960 H947 0.960 . S
C960 C959 1.524 . S
C961 C958 1.403 . S
C961 C962 1.392 . S
C961 C965 1.495 . S
C962 C961 1.392 . S
C962 C963 1.385 . S
C962 C964 1.478 . S
C963 H957 0.930 . S
C963 C959 1.400 . S
C963 C962 1.385 . S
C964 C962 1.478 . S
C964 C966 1.381 . S
C964 C970 1.383 . S
C965 C961 1.495 . S
C965 H971 0.959 . S
C965 H972 0.961 . S
C965 H973 0.960 . S
C966 C964 1.381 . S
C966 C967 1.394 . S
C966 H974 0.930 . S
C967 C966 1.394 . S
C967 C968 1.383 . S
C967 H975 0.929 . S
C968 C967 1.383 . S
C968 C969 1.377 . S
C969 H953 0.930 . S
C969 C968 1.377 . S
C969 C970 1.379 . S
C970 H954 0.931 . S
C970 C964 1.383 . S
C970 C969 1.379 . S
H971 C965 0.959 . S
H972 C965 0.961 . S
H973 C965 0.960 . S
H974 C966 0.930 . S
H975 C967 0.929 . S
H976 C984 0.929 . S
H977 C986 0.930 . S
H978 C988 0.930 . S
H979 C991 0.929 . S
H980 C994 0.930 . S
H981 C996 0.960 . S
H982 C996 0.960 . S
H983 C996 0.960 . S
C984 H976 0.929 . S
C984 C985 1.377 . S
C984 C986 1.384 . S
C985 C984 1.377 . S
C985 C991 1.390 . S
C986 H977 0.930 . S
C986 C984 1.384 . S
C986 C987 1.372 . S
C987 C986 1.372 . S
C987 C988 1.400 . S
C987 C992 1.490 . S
C988 H978 0.930 . S
C988 C987 1.400 . S
C988 C991 1.386 . S
H989 C1005 0.930 . S
H990 C1006 0.931 . S
C991 H979 0.929 . S
C991 C985 1.390 . S
C991 C988 1.386 . S
C992 C987 1.490 . S
C992 C994 1.395 . S
C992 C995 1.403 . S
H993 C999 0.930 . S
C994 H980 0.930 . S
C994 C992 1.395 . S
C994 C997 1.403 . S
C995 C992 1.403 . S
C995 C996 1.524 . S
C995 C999 1.400 . S
C996 H981 0.960 . S
C996 H982 0.960 . S
C996 H983 0.960 . S
C996 C995 1.524 . S
C997 C994 1.403 . S
C997 C998 1.392 . S
C997 C1001 1.495 . S
C998 C997 1.392 . S
C998 C999 1.385 . S
C998 C1000 1.478 . S
C999 H993 0.930 . S
C999 C995 1.400 . S
C999 C998 1.385 . S
C1000 C998 1.478 . S
C1000 C1002 1.381 . S
C1000 C1006 1.383 . S
C1001 C997 1.495 . S
C1001 H1007 0.959 . S
C1001 H1008 0.961 . S
C1001 H1009 0.960 . S
C1002 C1000 1.381 . S
C1002 C1003 1.394 . S
C1002 H1010 0.930 . S
C1003 C1002 1.394 . S
C1003 C1004 1.383 . S
C1003 H1011 0.929 . S
C1004 C1003 1.383 . S
C1004 C1005 1.377 . S
C1005 H989 0.930 . S
C1005 C1004 1.377 . S
C1005 C1006 1.379 . S
C1006 H990 0.931 . S
C1006 C1000 1.383 . S
C1006 C1005 1.379 . S
H1007 C1001 0.959 . S
H1008 C1001 0.961 . S
H1009 C1001 0.960 . S
H1010 C1002 0.930 . S
H1011 C1003 0.929 . S
H1012 C1020 0.929 . S
H1013 C1022 0.930 . S
H1014 C1024 0.930 . S
H1015 C1027 0.929 . S
H1016 C1030 0.930 . S
H1017 C1032 0.960 . S
H1018 C1032 0.960 . S
H1019 C1032 0.960 . S
C1020 H1012 0.929 . S
C1020 C1021 1.377 . S
C1020 C1022 1.384 . S
C1021 C1020 1.377 . S
C1021 C1027 1.390 . S
C1022 H1013 0.930 . S
C1022 C1020 1.384 . S
C1022 C1023 1.372 . S
C1023 C1022 1.372 . S
C1023 C1024 1.400 . S
C1023 C1028 1.490 . S
C1024 H1014 0.930 . S
C1024 C1023 1.400 . S
C1024 C1027 1.386 . S
H1025 C1041 0.930 . S
H1026 C1042 0.931 . S
C1027 H1015 0.929 . S
C1027 C1021 1.390 . S
C1027 C1024 1.386 . S
C1028 C1023 1.490 . S
C1028 C1030 1.395 . S
C1028 C1031 1.403 . S
H1029 C1035 0.930 . S
C1030 H1016 0.930 . S
C1030 C1028 1.395 . S
C1030 C1033 1.403 . S
C1031 C1028 1.403 . S
C1031 C1032 1.524 . S
C1031 C1035 1.400 . S
C1032 H1017 0.960 . S
C1032 H1018 0.960 . S
C1032 H1019 0.960 . S
C1032 C1031 1.524 . S
C1033 C1030 1.403 . S
C1033 C1034 1.392 . S
C1033 C1037 1.495 . S
C1034 C1033 1.392 . S
C1034 C1035 1.385 . S
C1034 C1036 1.478 . S
C1035 H1029 0.930 . S
C1035 C1031 1.400 . S
C1035 C1034 1.385 . S
C1036 C1034 1.478 . S
C1036 C1038 1.381 . S
C1036 C1042 1.383 . S
C1037 C1033 1.495 . S
C1037 H1043 0.959 . S
C1037 H1044 0.961 . S
C1037 H1045 0.960 . S
C1038 C1036 1.381 . S
C1038 C1039 1.394 . S
C1038 H1046 0.930 . S
C1039 C1038 1.394 . S
C1039 C1040 1.383 . S
C1039 H1047 0.929 . S
C1040 C1039 1.383 . S
C1040 C1041 1.377 . S
C1041 H1025 0.930 . S
C1041 C1040 1.377 . S
C1041 C1042 1.379 . S
C1042 H1026 0.931 . S
C1042 C1036 1.383 . S
C1042 C1041 1.379 . S
H1043 C1037 0.959 . S
H1044 C1037 0.961 . S
H1045 C1037 0.960 . S
H1046 C1038 0.930 . S
H1047 C1039 0.929 . S
C193 N1 1.422 . S
C212 C123 1.436 . S
C229 N18 1.626 . S
C248 C126 1.568 . S
C284 C162 1.238 . S
C265 N28 1.238 . S
C301 N40 1.812 . S
C320 C182 1.806 . S
C356 C136 2.118 . S
C337 N5 2.131 . S
C392 C113 1.645 . S
C373 N14 1.640 . S
C428 C166 1.573 . S
C409 N31 1.638 . S
C464 C146 1.024 . S
C445 N41 1.035 . S
C481 N2 1.225 . S
C500 C176 1.197 . S
C536 C142 1.752 1_556 S
C517 N27 1.735 . S
C553 N44 1.759 . S
C572 C108 1.718 . S
C589 N15 1.143 . S
C608 C156 1.094 . S
C644 C122 1.880 1_655 S
C625 N57 1.888 . S
C661 N70 1.120 . S
C680 C128 1.067 . S
C697 N79 1.548 . S
C716 C163 1.550 . S
C733 N93 1.571 . S
C752 C183 1.554 . S
C769 N54 1.614 . S
C788 C133 1.590 . S
C824 C116 2.122 . S
C805 N66 2.126 . S
C860 C168 1.004 . S
C841 N80 1.042 . S
C896 C148 1.348 . S
C877 N96 1.421 . S
C913 N53 1.272 . S
C932 C173 1.277 . S
C968 C143 1.488 . S
C949 N83 1.495 . S
C1004 C106 1.828 . S
C985 N92 1.878 . S
C1021 N67 1.203 . S
C1040 C153 1.187 . S
