# Generated by pormake.
# Topology anh, (6,3)-cn, num edge types: 1
# Building blocks:
#     Node 0, Type 0, BuildingBlock: VOLQOD_clean_sbu_1, # of connection points: 6
#     Node 1, Type 0, BuildingBlock: VOLQOD_clean_sbu_1, # of connection points: 6
#     Node 2, Type 0, BuildingBlock: VOLQOD_clean_sbu_1, # of connection points: 6
#     Node 3, Type 1, BuildingBlock: BETDIP_clean_linker_0, # of connection points: 3
#     Node 4, Type 1, BuildingBlock: BETDIP_clean_linker_0, # of connection points: 3
#     Node 5, Type 1, BuildingBlock: BETDIP_clean_linker_0, # of connection points: 3
#     Node 6, Type 1, BuildingBlock: BETDIP_clean_linker_0, # of connection points: 3
#     Node 7, Type 1, BuildingBlock: BETDIP_clean_linker_0, # of connection points: 3
#     Node 8, Type 1, BuildingBlock: BETDIP_clean_linker_0, # of connection points: 3
#     Edge 9, Type (0, 1), BuildingBlock: MIFKUJ_clean_linker_0, # of connection points: 2
#     Edge 10, Type (0, 1), BuildingBlock: MIFKUJ_clean_linker_0, # of connection points: 2
#     Edge 11, Type (0, 1), BuildingBlock: MIFKUJ_clean_linker_0, # of connection points: 2
#     Edge 12, Type (0, 1), BuildingBlock: MIFKUJ_clean_linker_0, # of connection points: 2
#     Edge 13, Type (0, 1), BuildingBlock: MIFKUJ_clean_linker_0, # of connection points: 2
#     Edge 14, Type (0, 1), BuildingBlock: MIFKUJ_clean_linker_0, # of connection points: 2
#     Edge 15, Type (0, 1), BuildingBlock: MIFKUJ_clean_linker_0, # of connection points: 2
#     Edge 16, Type (0, 1), BuildingBlock: MIFKUJ_clean_linker_0, # of connection points: 2
#     Edge 17, Type (0, 1), BuildingBlock: MIFKUJ_clean_linker_0, # of connection points: 2
#     Edge 18, Type (0, 1), BuildingBlock: MIFKUJ_clean_linker_0, # of connection points: 2
#     Edge 19, Type (0, 1), BuildingBlock: MIFKUJ_clean_linker_0, # of connection points: 2
#     Edge 20, Type (0, 1), BuildingBlock: MIFKUJ_clean_linker_0, # of connection points: 2
#     Edge 21, Type (0, 1), BuildingBlock: MIFKUJ_clean_linker_0, # of connection points: 2
#     Edge 22, Type (0, 1), BuildingBlock: MIFKUJ_clean_linker_0, # of connection points: 2
#     Edge 23, Type (0, 1), BuildingBlock: MIFKUJ_clean_linker_0, # of connection points: 2
#     Edge 24, Type (0, 1), BuildingBlock: MIFKUJ_clean_linker_0, # of connection points: 2
#     Edge 25, Type (0, 1), BuildingBlock: MIFKUJ_clean_linker_0, # of connection points: 2
#     Edge 26, Type (0, 1), BuildingBlock: MIFKUJ_clean_linker_0, # of connection points: 2
# Relax obj value: 0.169
# Max RMSD: 0.216
# Mean RMSD: 0.154
data_MOF--net-anh--node1-VOLQOD_clean_sbu_1--node2-BETDIP_clean_linker_0--edge1-MIFKUJ_clean_linker_0
_symmetry_space_group_name_H-M    P1
_symmetry_Int_Tables_number       1
_symmetry_cell_setting            triclinic
loop_
_symmetry_equiv_pos_as_xyz
'x, y, z'
_cell_length_a     37.650823
_cell_length_b     37.591812
_cell_length_c     73.394755
_cell_angle_alpha  94.010791
_cell_angle_beta   89.87753
_cell_angle_gamma 120.11636
loop_
_atom_site_label
_atom_site_type_symbol
_atom_site_fract_x
_atom_site_fract_y
_atom_site_fract_z
_atom_type_partial_charge
O0 O 0.0547 0.62188 0.1854 0.0
Zn1 Zn 0.05951 0.63542 0.15902 0.0
O2 O 0.0666 0.59523 0.1433 0.0
Zn3 Zn 0.02213 0.56702 0.12481 0.0
Zn4 Zn 0.0666 0.55455 0.15839 0.0
Zn5 Zn 0.11793 0.62278 0.13079 0.0
O6 O 0.04246 0.5718 0.09907 0.0
O7 O 0.10867 0.61847 0.10345 0.0
O8 O 0.00736 0.63462 0.15175 0.0
O9 O 0.9853 0.591 0.12686 0.0
O10 O 0.9846 0.50747 0.12962 0.0
O11 O 0.01334 0.50068 0.15449 0.0
O12 O 0.11423 0.54591 0.1531 0.0
O13 O 0.10929 0.69273 0.15839 0.0
O14 O 0.15173 0.59628 0.13533 0.0
O15 O 0.15062 0.68258 0.13981 0.0
C16 C 0.06182 0.5974 0.19376 0.0
C17 C 0.07759 0.59539 0.0928 0.0
C18 C 0.98406 0.4862 0.14249 0.0
C19 C 0.98152 0.61569 0.1384 0.0
C20 C 0.14629 0.56586 0.14402 0.0
C21 C 0.14341 0.70625 0.15048 0.0
O22 O 0.06987 0.57188 0.18514 0.0
O23 O 0.49194 0.06682 0.46056 0.0
Zn24 Zn 0.47473 0.05878 0.48675 0.0
O25 O 0.51253 0.04852 0.50069 0.0
Zn26 Zn 0.54343 0.09346 0.51914 0.0
Zn27 Zn 0.55077 0.04262 0.48435 0.0
Zn28 Zn 0.48132 0.99917 0.51331 0.0
O29 O 0.54149 0.07357 0.54415 0.0
O30 O 0.4865 0.01086 0.54067 0.0
O31 O 0.47348 0.10916 0.4979 0.0
O32 O 0.51912 0.13015 0.52109 0.0
O33 O 0.60181 0.12872 0.51204 0.0
O34 O 0.60746 0.09342 0.48779 0.0
O35 O 0.55347 0.99087 0.48852 0.0
O36 O 0.41681 0.00916 0.48594 0.0
O37 O 0.5028 0.96098 0.50768 0.0
O38 O 0.42218 0.96867 0.505 0.0
C39 C 0.51321 0.05543 0.45089 0.0
C40 C 0.51437 0.04074 0.55082 0.0
C41 C 0.62284 0.12513 0.49918 0.0
C42 C 0.49265 0.13375 0.51187 0.0
C43 C 0.53103 0.96097 0.49813 0.0
C44 C 0.40089 0.97579 0.49397 0.0
O45 O 0.53399 0.04129 0.45804 0.0
O46 O 0.48107 0.48314 0.81205 0.0
Zn47 Zn 0.47397 0.46843 0.83839 0.0
O48 O 0.52394 0.50759 0.85321 0.0
Zn49 Zn 0.51166 0.53841 0.87212 0.0
Zn50 Zn 0.56612 0.54659 0.83783 0.0
Zn51 Zn 0.54522 0.47742 0.86513 0.0
O52 O 0.5274 0.5323 0.89758 0.0
O53 O 0.54283 0.48287 0.89237 0.0
O54 O 0.42378 0.46995 0.84798 0.0
O55 O 0.45136 0.51726 0.87145 0.0
O56 O 0.53744 0.59836 0.86724 0.0
O57 O 0.57485 0.60384 0.84309 0.0
O58 O 0.62048 0.54834 0.84104 0.0
O59 O 0.46411 0.40992 0.83799 0.0
O60 O 0.60416 0.4986 0.85957 0.0
O61 O 0.51434 0.41773 0.8566 0.0
C62 C 0.51221 0.50761 0.80332 0.0
C63 C 0.53721 0.5071 0.90339 0.0
C64 C 0.56116 0.61969 0.85502 0.0
C65 C 0.42027 0.49125 0.86145 0.0
C66 C 0.63027 0.52661 0.85011 0.0
C67 C 0.48325 0.39501 0.84595 0.0
O68 O 0.54691 0.53159 0.81147 0.0
H69 H 0.52555 0.10511 0.20502 0.0
H70 H 0.58983 0.15788 0.25708 0.0
H71 H 0.4732 0.04534 0.25388 0.0
H72 H 0.56846 0.16636 0.19539 0.0
C73 C 0.59659 0.17929 0.20372 0.0
C74 C 0.52733 0.1046 0.21968 0.0
C75 C 0.49497 0.07209 0.22821 0.0
C76 C 0.56158 0.13591 0.2301 0.0
C77 C 0.5633 0.1341 0.24907 0.0
C78 C 0.53159 0.10145 0.25769 0.0
C79 C 0.49761 0.07063 0.2472 0.0
N80 N 0.59564 0.16862 0.22201 0.0
H81 H 0.52026 0.53578 0.55799 0.0
H82 H 0.52459 0.60433 0.60835 0.0
H83 H 0.48683 0.47579 0.60795 0.0
H84 H 0.55326 0.59575 0.54655 0.0
C85 C 0.54925 0.61829 0.55494 0.0
C86 C 0.51614 0.53741 0.57252 0.0
C87 C 0.50319 0.50173 0.58185 0.0
C88 C 0.52419 0.57472 0.5821 0.0
C89 C 0.5185 0.5757 0.60098 0.0
C90 C 0.50471 0.54005 0.61035 0.0
C91 C 0.49705 0.50327 0.60068 0.0
N92 N 0.53721 0.61169 0.57335 0.0
H93 H 0.07205 0.63949 0.85051 0.0
H94 H 0.15481 0.64767 0.89294 0.0
H95 H 0.02504 0.5858 0.90126 0.0
H96 H 0.21602 0.70853 0.85987 0.0
C97 C 0.19058 0.67756 0.8612 0.0
C98 C 0.07689 0.63205 0.86394 0.0
C99 C 0.04335 0.61004 0.87493 0.0
C100 C 0.11696 0.64519 0.87018 0.0
C101 C 0.12378 0.63639 0.88774 0.0
C102 C 0.09062 0.61433 0.89894 0.0
C103 C 0.05053 0.60102 0.89235 0.0
N104 N 0.14995 0.67027 0.85911 0.0
H105 H 0.01934 0.5798 0.4409 0.0
H106 H 0.96757 0.51463 0.38834 0.0
H107 H 0.07629 0.63446 0.39173 0.0
H108 H 0.96028 0.53297 0.45151 0.0
C109 C 0.94784 0.50527 0.44226 0.0
C110 C 0.01934 0.57818 0.42614 0.0
C111 C 0.05094 0.61121 0.41757 0.0
C112 C 0.98917 0.543 0.41559 0.0
C113 C 0.99069 0.54164 0.39648 0.0
C114 C 0.02217 0.57439 0.38784 0.0
C115 C 0.05229 0.60886 0.39844 0.0
N116 N 0.95795 0.50769 0.42354 0.0
H117 H 0.50595 0.01787 0.7981 0.0
H118 H 0.5314 0.97205 0.74734 0.0
H119 H 0.48651 0.05681 0.74719 0.0
H120 H 0.50022 0.96127 0.80839 0.0
C121 C 0.52128 0.9545 0.8009 0.0
C122 C 0.50626 0.01631 0.78335 0.0
C123 C 0.49423 0.04013 0.7739 0.0
C124 C 0.5193 0.99131 0.77379 0.0
C125 C 0.52098 0.99092 0.75472 0.0
C126 C 0.5082 0.01372 0.7451 0.0
C127 C 0.49482 0.03808 0.75472 0.0
N128 N 0.53155 0.96671 0.78284 0.0
H129 H 0.47254 0.44661 0.14591 0.0
H130 H 0.54649 0.44068 0.10229 0.0
H131 H 0.46052 0.48104 0.09258 0.0
H132 H 0.54365 0.38708 0.12116 0.0
C133 C 0.55485 0.41109 0.13234 0.0
C134 C 0.48104 0.45029 0.13176 0.0
C135 C 0.46332 0.46558 0.12005 0.0
C136 C 0.51048 0.44052 0.12542 0.0
C137 C 0.52266 0.44662 0.10718 0.0
C138 C 0.50526 0.46196 0.09535 0.0
C139 C 0.47522 0.47071 0.10185 0.0
N140 N 0.52929 0.4272 0.13794 0.0
H141 H 0.21831 0.60115 0.12612 0.0
H142 H 0.26982 0.58006 0.12461 0.0
H143 H 0.1978 0.48143 0.15886 0.0
H144 H 0.14601 0.5026 0.16066 0.0
H145 H 0.27946 0.52145 0.16884 0.0
H146 H 0.19705 0.4587 0.11432 0.0
H147 H 0.16004 0.45396 0.08576 0.0
H148 H 0.27354 0.54121 0.06317 0.0
H149 H 0.31121 0.54696 0.09171 0.0
H150 H 0.39767 0.4223 0.1415 0.0
H151 H 0.3424 0.43701 0.14878 0.0
H152 H 0.40357 0.54737 0.11998 0.0
H153 H 0.45911 0.53356 0.11307 0.0
H154 H 0.32151 0.4926 0.10803 0.0
H155 H 0.40256 0.55711 0.16421 0.0
H156 H 0.4381 0.55856 0.19267 0.0
H157 H 0.32447 0.46318 0.2119 0.0
H158 H 0.28834 0.46076 0.18341 0.0
C159 C 0.21331 0.57498 0.13337 0.0
C160 C 0.17785 0.55339 0.14341 0.0
C161 C 0.24277 0.56291 0.13244 0.0
C162 C 0.2373 0.52886 0.14142 0.0
C163 C 0.20246 0.50772 0.15179 0.0
C164 C 0.17288 0.51979 0.15274 0.0
C165 C 0.268 0.51537 0.13971 0.0
C166 C 0.28821 0.51444 0.15557 0.0
C167 C 0.27948 0.50646 0.12238 0.0
C168 C 0.25692 0.50348 0.10523 0.0
C169 C 0.21409 0.47717 0.10334 0.0
C170 C 0.193 0.47425 0.08714 0.0
C171 C 0.21443 0.49729 0.07268 0.0
C172 C 0.25699 0.52338 0.07439 0.0
C173 C 0.27824 0.52645 0.09057 0.0
C174 C 0.39972 0.45015 0.13709 0.0
C175 C 0.43238 0.47647 0.12649 0.0
C176 C 0.36813 0.45841 0.14119 0.0
C177 C 0.3689 0.49308 0.13476 0.0
C178 C 0.40232 0.52026 0.1249 0.0
C179 C 0.4339 0.51222 0.12091 0.0
C180 C 0.33374 0.49989 0.1371 0.0
C181 C 0.31251 0.4993 0.12131 0.0
C182 C 0.32116 0.50694 0.15447 0.0
C183 C 0.34285 0.50839 0.17159 0.0
C184 C 0.38523 0.53615 0.17443 0.0
C185 C 0.40546 0.53722 0.19058 0.0
C186 C 0.38358 0.51088 0.20406 0.0
C187 C 0.34139 0.4835 0.20143 0.0
C188 C 0.32102 0.48228 0.18529 0.0
H189 H 0.3993 0.51176 0.21656 0.0
H190 H 0.19808 0.49479 0.06012 0.0
H191 H 0.67127 0.13586 0.46975 0.0
H192 H 0.73239 0.19946 0.46237 0.0
H193 H 0.72839 0.25923 0.51406 0.0
H194 H 0.66689 0.19602 0.52143 0.0
H195 H 0.73259 0.30366 0.48697 0.0
H196 H 0.80593 0.23769 0.50486 0.0
H197 H 0.82232 0.18193 0.50509 0.0
H198 H 0.84698 0.1908 0.44793 0.0
H199 H 0.83018 0.24625 0.4473 0.0
H200 H 0.91714 0.4921 0.47615 0.0
H201 H 0.8668 0.42639 0.48778 0.0
H202 H 0.86108 0.3627 0.43568 0.0
H203 H 0.91146 0.42811 0.42403 0.0
H204 H 0.86418 0.32103 0.46434 0.0
H205 H 0.78677 0.38354 0.44616 0.0
H206 H 0.76943 0.43861 0.44566 0.0
H207 H 0.75167 0.43528 0.50346 0.0
H208 H 0.76949 0.38056 0.50435 0.0
C209 C 0.68387 0.16222 0.47974 0.0
C210 C 0.66392 0.16085 0.49614 0.0
C211 C 0.71894 0.19861 0.4755 0.0
C212 C 0.73503 0.23419 0.48766 0.0
C213 C 0.71642 0.23224 0.50443 0.0
C214 C 0.6813 0.19597 0.50865 0.0
C215 C 0.76875 0.27431 0.48219 0.0
C216 C 0.76168 0.30763 0.48238 0.0
C217 C 0.80625 0.27922 0.47567 0.0
C218 C 0.81643 0.2459 0.476 0.0
C219 C 0.81452 0.22753 0.4923 0.0
C220 C 0.82395 0.19602 0.49251 0.0
C221 C 0.83559 0.18276 0.47653 0.0
C222 C 0.83792 0.20107 0.4603 0.0
C223 C 0.82849 0.23258 0.46002 0.0
C224 C 0.90514 0.46402 0.46721 0.0
C225 C 0.91795 0.46526 0.44918 0.0
C226 C 0.8764 0.42657 0.47385 0.0
C227 C 0.85994 0.3897 0.46254 0.0
C228 C 0.87339 0.39077 0.44463 0.0
C229 C 0.90202 0.42824 0.43797 0.0
C230 C 0.82791 0.35018 0.46921 0.0
C231 C 0.83522 0.31703 0.46914 0.0
C232 C 0.79055 0.34532 0.47585 0.0
C233 C 0.77994 0.3783 0.47535 0.0
C234 C 0.77954 0.39482 0.45879 0.0
C235 C 0.76955 0.42591 0.45843 0.0
C236 C 0.75958 0.44053 0.47453 0.0
C237 C 0.75949 0.42399 0.49101 0.0
C238 C 0.76951 0.39293 0.49145 0.0
H239 H 0.75182 0.46458 0.47422 0.0
H240 H 0.84288 0.15836 0.47672 0.0
H241 H 0.52605 0.65869 0.87399 0.0
H242 H 0.52769 0.72195 0.86691 0.0
H243 H 0.61284 0.73914 0.82441 0.0
H244 H 0.61139 0.67568 0.83133 0.0
H245 H 0.62963 0.81403 0.84396 0.0
H246 H 0.51841 0.69655 0.81129 0.0
H247 H 0.45636 0.62783 0.80628 0.0
H248 H 0.39055 0.66639 0.84275 0.0
H249 H 0.45242 0.73526 0.84817 0.0
H250 H 0.57688 0.93264 0.78793 0.0
H251 H 0.59239 0.88261 0.80005 0.0
H252 H 0.50824 0.8634 0.84327 0.0
H253 H 0.49282 0.91359 0.8313 0.0
H254 H 0.49367 0.79109 0.82345 0.0
H255 H 0.60737 0.9127 0.85362 0.0
H256 H 0.6692 0.98186 0.85528 0.0
H257 H 0.73117 0.93567 0.82039 0.0
H258 H 0.66947 0.8663 0.8183 0.0
C259 C 0.54585 0.67628 0.86339 0.0
C260 C 0.56826 0.66178 0.8531 0.0
C261 C 0.54662 0.7124 0.85933 0.0
C262 C 0.56993 0.73485 0.84498 0.0
C263 C 0.59459 0.72217 0.83552 0.0
C264 C 0.59363 0.68582 0.83948 0.0
C265 C 0.56553 0.76924 0.83886 0.0
C266 C 0.60002 0.80905 0.83932 0.0
C267 C 0.52686 0.7627 0.83289 0.0
C268 C 0.49015 0.72087 0.8303 0.0
C269 C 0.49089 0.6902 0.81845 0.0
C270 C 0.45573 0.65129 0.81548 0.0
C271 C 0.41962 0.64284 0.82421 0.0
C272 C 0.41861 0.67307 0.83603 0.0
C273 C 0.45369 0.71203 0.83904 0.0
C274 C 0.56199 0.91803 0.80012 0.0
C275 C 0.53336 0.92666 0.80863 0.0
C276 C 0.57108 0.88968 0.80708 0.0
C277 C 0.55157 0.86946 0.82259 0.0
C278 C 0.52368 0.87876 0.83131 0.0
C279 C 0.5149 0.90736 0.82447 0.0
C280 C 0.55754 0.83614 0.82886 0.0
C281 C 0.52326 0.79629 0.82826 0.0
C282 C 0.5965 0.84271 0.83441 0.0
C283 C 0.63363 0.88438 0.83565 0.0
C284 C 0.63404 0.91736 0.84616 0.0
C285 C 0.6691 0.95659 0.84721 0.0
C286 C 0.70405 0.96319 0.83791 0.0
C287 C 0.70405 0.93053 0.82757 0.0
C288 C 0.66906 0.89124 0.82646 0.0
H289 H 0.73117 0.99358 0.83874 0.0
H290 H 0.39232 0.613 0.82169 0.0
H291 H 0.92541 0.58889 0.11001 0.0
H292 H 0.85382 0.57028 0.11191 0.0
H293 H 0.8762 0.62288 0.16774 0.0
H294 H 0.94822 0.64101 0.16605 0.0
H295 H 0.81727 0.54477 0.16548 0.0
H296 H 0.84144 0.6608 0.13489 0.0
H297 H 0.86913 0.71185 0.11182 0.0
H298 H 0.80023 0.61649 0.06936 0.0
H299 H 0.77258 0.5647 0.09212 0.0
H300 H 0.59595 0.46775 0.16121 0.0
H301 H 0.67056 0.51444 0.16515 0.0
H302 H 0.68858 0.45945 0.11503 0.0
H303 H 0.61425 0.41204 0.11128 0.0
H304 H 0.72592 0.5515 0.11898 0.0
H305 H 0.71444 0.4354 0.14793 0.0
H306 H 0.69139 0.38231 0.16998 0.0
H307 H 0.73844 0.47648 0.21446 0.0
H308 H 0.76182 0.53023 0.1926 0.0
C309 C 0.91552 0.59774 0.12253 0.0
C310 C 0.9424 0.61594 0.13795 0.0
C311 C 0.87451 0.5873 0.12357 0.0
C312 C 0.85959 0.59521 0.13998 0.0
C313 C 0.88711 0.61652 0.15495 0.0
C314 C 0.92832 0.62707 0.15391 0.0
C315 C 0.8146 0.57525 0.14212 0.0
C316 C 0.79728 0.54724 0.15565 0.0
C317 C 0.78855 0.57776 0.12905 0.0
C318 C 0.80501 0.6088 0.11525 0.0
C319 C 0.83238 0.65063 0.12062 0.0
C320 C 0.84805 0.67973 0.1076 0.0
C321 C 0.83647 0.66742 0.08914 0.0
C322 C 0.80915 0.62598 0.08367 0.0
C323 C 0.79339 0.59675 0.09664 0.0
C324 C 0.61596 0.46534 0.15119 0.0
C325 C 0.59961 0.43647 0.13592 0.0
C326 C 0.65839 0.49195 0.15345 0.0
C327 C 0.68476 0.49039 0.14031 0.0
C328 C 0.66851 0.46108 0.12525 0.0
C329 C 0.62624 0.43396 0.12319 0.0
C330 C 0.72924 0.52025 0.14181 0.0
C331 C 0.74611 0.55008 0.12906 0.0
C332 C 0.75495 0.51912 0.15545 0.0
C333 C 0.73927 0.48684 0.16863 0.0
C334 C 0.71937 0.44481 0.16241 0.0
C335 C 0.70645 0.41458 0.17487 0.0
C336 C 0.71323 0.426 0.19362 0.0
C337 C 0.73308 0.46768 0.19993 0.0
C338 C 0.74624 0.49804 0.18751 0.0
H339 H 0.70325 0.40255 0.20325 0.0
H340 H 0.84864 0.68999 0.07908 0.0
H341 H 0.34329 0.97898 0.47222 0.0
H342 H 0.27515 0.9218 0.46218 0.0
H343 H 0.29441 0.84066 0.49431 0.0
H344 H 0.36136 0.89751 0.50484 0.0
H345 H 0.25699 0.85635 0.44217 0.0
H346 H 0.20809 0.76107 0.50656 0.0
H347 H 0.21157 0.77409 0.54009 0.0
H348 H 0.22153 0.89163 0.53441 0.0
H349 H 0.21751 0.87911 0.50086 0.0
H350 H 0.13384 0.64838 0.41496 0.0
H351 H 0.18608 0.71388 0.43035 0.0
H352 H 0.09178 0.72491 0.45935 0.0
H353 H 0.03936 0.65849 0.44427 0.0
H354 H 0.15652 0.75152 0.48121 0.0
H355 H 0.13397 0.77889 0.42167 0.0
H356 H 0.12569 0.76894 0.38806 0.0
H357 H 0.25005 0.7946 0.38413 0.0
H358 H 0.25889 0.80406 0.41773 0.0
C359 C 0.33263 0.94914 0.47742 0.0
C360 C 0.35789 0.94289 0.48932 0.0
C361 C 0.2937 0.91644 0.47163 0.0
C362 C 0.27935 0.8769 0.4776 0.0
C363 C 0.30417 0.87097 0.48983 0.0
C364 C 0.34276 0.90361 0.49575 0.0
C365 C 0.24037 0.84089 0.46983 0.0
C366 C 0.23487 0.83369 0.45074 0.0
C367 C 0.21076 0.81165 0.48095 0.0
C368 C 0.21276 0.81922 0.50116 0.0
C369 C 0.21078 0.78959 0.51246 0.0
C370 C 0.21291 0.79692 0.53147 0.0
C371 C 0.21686 0.8337 0.53937 0.0
C372 C 0.2186 0.86321 0.52827 0.0
C373 C 0.21646 0.85603 0.50925 0.0
C374 C 0.12434 0.66467 0.42473 0.0
C375 C 0.08262 0.64866 0.42834 0.0
C376 C 0.15413 0.70216 0.43344 0.0
C377 C 0.14277 0.72487 0.44566 0.0
C378 C 0.10124 0.70808 0.44988 0.0
C379 C 0.07137 0.67017 0.44131 0.0
C380 C 0.17438 0.7664 0.45364 0.0
C381 C 0.1784 0.77456 0.4727 0.0
C382 C 0.20196 0.79715 0.4425 0.0
C383 C 0.197 0.79196 0.42225 0.0
C384 C 0.15949 0.78219 0.41365 0.0
C385 C 0.15469 0.77664 0.39459 0.0
C386 C 0.1873 0.78108 0.38397 0.0
C387 C 0.22481 0.79117 0.39238 0.0
C388 C 0.22975 0.79668 0.41143 0.0
H389 H 0.18353 0.77676 0.36922 0.0
H390 H 0.21853 0.83931 0.5541 0.0
H391 H 0.42924 0.33917 0.81909 0.0
H392 H 0.42074 0.27159 0.80911 0.0
H393 H 0.50416 0.28532 0.85279 0.0
H394 H 0.5128 0.35237 0.86285 0.0
H395 H 0.52771 0.27165 0.81867 0.0
H396 H 0.4055 0.21433 0.85385 0.0
H397 H 0.33766 0.20307 0.86278 0.0
H398 H 0.2885 0.15183 0.80841 0.0
H399 H 0.35624 0.16333 0.79908 0.0
H400 H 0.52989 0.08822 0.80574 0.0
H401 H 0.51747 0.14097 0.82031 0.0
H402 H 0.42398 0.11279 0.77889 0.0
H403 H 0.43436 0.05796 0.76483 0.0
H404 H 0.40276 0.13297 0.81104 0.0
H405 H 0.52211 0.19145 0.77503 0.0
H406 H 0.58935 0.20392 0.76447 0.0
H407 H 0.64338 0.25558 0.81817 0.0
H408 H 0.57628 0.24285 0.82912 0.0
C409 C 0.44504 0.32738 0.82681 0.0
C410 C 0.47213 0.35145 0.84162 0.0
C411 C 0.44009 0.28874 0.82111 0.0
C412 C 0.46203 0.27364 0.83017 0.0
C413 C 0.48714 0.29655 0.84556 0.0
C414 C 0.49204 0.33494 0.85127 0.0
C415 C 0.46262 0.23638 0.82261 0.0
C416 C 0.50047 0.24121 0.81726 0.0
C417 C 0.4268 0.19706 0.82012 0.0
C418 C 0.38607 0.1901 0.82572 0.0
C419 C 0.38033 0.20102 0.84375 0.0
C420 C 0.34187 0.19451 0.84889 0.0
C421 C 0.30882 0.17686 0.83616 0.0
C422 C 0.31414 0.16556 0.81826 0.0
C423 C 0.35255 0.17204 0.81304 0.0
C424 C 0.50584 0.09229 0.79998 0.0
C425 C 0.48349 0.06907 0.78394 0.0
C426 C 0.49909 0.12286 0.80823 0.0
C427 C 0.47051 0.13152 0.80043 0.0
C428 C 0.44646 0.1069 0.78506 0.0
C429 C 0.45281 0.0759 0.77691 0.0
C430 C 0.46808 0.16818 0.80751 0.0
C431 C 0.42998 0.16338 0.81255 0.0
C432 C 0.5036 0.20787 0.8095 0.0
C433 C 0.54408 0.21583 0.80293 0.0
C434 C 0.54827 0.20521 0.78461 0.0
C435 C 0.58636 0.21235 0.77856 0.0
C436 C 0.62059 0.23044 0.79065 0.0
C437 C 0.61682 0.24152 0.80882 0.0
C438 C 0.57877 0.23437 0.81496 0.0
H439 H 0.65006 0.23595 0.78593 0.0
H440 H 0.27907 0.17183 0.84017 0.0
H441 H 0.47733 0.88539 0.50907 0.0
H442 H 0.48945 0.82893 0.51367 0.0
H443 H 0.61164 0.89878 0.49364 0.0
H444 H 0.59973 0.95623 0.48904 0.0
H445 H 0.50799 0.78019 0.49199 0.0
H446 H 0.67316 0.87612 0.52084 0.0
H447 H 0.72115 0.94602 0.5349 0.0
H448 H 0.61977 0.95497 0.55676 0.0
H449 H 0.57131 0.88499 0.54302 0.0
H450 H 0.56477 0.63618 0.51957 0.0
H451 H 0.57151 0.69645 0.50542 0.0
H452 H 0.5551 0.74509 0.55773 0.0
H453 H 0.54855 0.68533 0.5719 0.0
H454 H 0.61489 0.8058 0.53877 0.0
H455 H 0.47513 0.69217 0.52808 0.0
H456 H 0.42221 0.62185 0.51655 0.0
H457 H 0.46493 0.64759 0.46211 0.0
H458 H 0.51849 0.71796 0.47339 0.0
C459 C 0.50674 0.88879 0.50547 0.0
C460 C 0.53776 0.92552 0.49887 0.0
C461 C 0.51349 0.85628 0.50799 0.0
C462 C 0.55149 0.8597 0.50411 0.0
C463 C 0.58215 0.89565 0.49682 0.0
C464 C 0.57527 0.92833 0.49415 0.0
C465 C 0.5591 0.82645 0.50904 0.0
C466 C 0.53186 0.78587 0.50196 0.0
C467 C 0.5899 0.83376 0.52222 0.0
C468 C 0.61867 0.87563 0.5307 0.0
C469 C 0.66118 0.89303 0.52867 0.0
C470 C 0.68844 0.93263 0.53659 0.0
C471 C 0.6735 0.95499 0.54665 0.0
C472 C 0.63129 0.93771 0.5489 0.0
C473 C 0.60392 0.8981 0.54103 0.0
C474 C 0.56299 0.65998 0.52804 0.0
C475 C 0.55579 0.65592 0.54677 0.0
C476 C 0.56684 0.69432 0.51996 0.0
C477 C 0.56359 0.72511 0.53052 0.0
C478 C 0.55785 0.72175 0.54935 0.0
C479 C 0.55383 0.68741 0.55741 0.0
C480 C 0.56335 0.75953 0.52192 0.0
C481 C 0.59191 0.80025 0.52834 0.0
C482 C 0.53325 0.75231 0.50839 0.0
C483 C 0.50111 0.71008 0.50161 0.0
C484 C 0.47345 0.6827 0.51368 0.0
C485 C 0.44331 0.64287 0.50719 0.0
C486 C 0.4403 0.63021 0.48862 0.0
C487 C 0.46737 0.65741 0.4765 0.0
C488 C 0.49761 0.69726 0.48293 0.0
H489 H 0.41693 0.59937 0.48362 0.0
H490 H 0.69465 0.98565 0.55276 0.0
H491 H 0.69827 0.58984 0.83568 0.0
H492 H 0.76906 0.60355 0.83744 0.0
H493 H 0.72915 0.49408 0.86613 0.0
H494 H 0.65883 0.48059 0.86473 0.0
H495 H 0.79461 0.55712 0.88298 0.0
H496 H 0.75541 0.49788 0.82102 0.0
H497 H 0.72911 0.49149 0.78951 0.0
H498 H 0.82723 0.61365 0.78142 0.0
H499 H 0.85382 0.62099 0.81298 0.0
H500 H 0.97123 0.53852 0.87931 0.0
H501 H 0.90144 0.52398 0.87247 0.0
H502 H 0.95016 0.64193 0.84999 0.0
H503 H 0.02004 0.65718 0.85713 0.0
H504 H 0.88189 0.57726 0.82952 0.0
H505 H 0.921 0.63578 0.89153 0.0
H506 H 0.9482 0.64094 0.92273 0.0
H507 H 0.84974 0.51874 0.93051 0.0
H508 H 0.82234 0.51259 0.89921 0.0
C509 C 0.70455 0.56856 0.84225 0.0
C510 C 0.67288 0.53422 0.85012 0.0
C511 C 0.74499 0.57635 0.84319 0.0
C512 C 0.75435 0.54971 0.85184 0.0
C513 C 0.72268 0.51514 0.85945 0.0
C514 C 0.68243 0.50746 0.8586 0.0
C515 C 0.79726 0.55838 0.85366 0.0
C516 C 0.81345 0.56099 0.87124 0.0
C517 C 0.82225 0.5645 0.83841 0.0
C518 C 0.80634 0.56014 0.81943 0.0
C519 C 0.77118 0.52352 0.81258 0.0
C520 C 0.75626 0.5197 0.7947 0.0
C521 C 0.77641 0.55219 0.78349 0.0
C522 C 0.81161 0.58854 0.79012 0.0
C523 C 0.82664 0.59253 0.808 0.0
C524 C 0.96712 0.56133 0.87287 0.0
C525 C 0.0012 0.59915 0.86892 0.0
C526 C 0.92727 0.55288 0.86888 0.0
C527 C 0.92077 0.58209 0.8609 0.0
C528 C 0.95463 0.61899 0.85612 0.0
C529 C 0.99452 0.62756 0.86017 0.0
C530 C 0.8787 0.5753 0.85874 0.0
C531 C 0.86287 0.57331 0.84119 0.0
C532 C 0.85391 0.56966 0.874 0.0
C533 C 0.86984 0.57358 0.89296 0.0
C534 C 0.9053 0.6099 0.89985 0.0
C535 C 0.92075 0.61302 0.91755 0.0
C536 C 0.90078 0.58015 0.92858 0.0
C537 C 0.86522 0.54416 0.92194 0.0
C538 C 0.8497 0.54085 0.90422 0.0
H539 H 0.91281 0.58261 0.94228 0.0
H540 H 0.76482 0.54917 0.76965 0.0
H541 H 0.21661 0.7478 0.13377 0.0
H542 H 0.2754 0.81501 0.14369 0.0
H543 H 0.20571 0.82929 0.1874 0.0
H544 H 0.14633 0.76224 0.17739 0.0
H545 H 0.2548 0.90229 0.17256 0.0
H546 H 0.26952 0.79308 0.19538 0.0
H547 H 0.27207 0.72865 0.19272 0.0
H548 H 0.37454 0.78354 0.15775 0.0
H549 H 0.37222 0.84815 0.16 0.0
H550 H 0.41428 0.03875 0.23657 0.0
H551 H 0.35445 0.98148 0.22002 0.0
H552 H 0.43287 0.97427 0.17876 0.0
H553 H 0.49315 0.03095 0.19556 0.0
H554 H 0.3807 0.89972 0.19008 0.0
H555 H 0.36947 0.0117 0.16965 0.0
H556 H 0.36672 0.07598 0.17293 0.0
H557 H 0.25807 0.01643 0.20401 0.0
H558 H 0.26049 0.95192 0.20115 0.0
C559 C 0.21349 0.76542 0.14534 0.0
C560 C 0.17687 0.74935 0.15493 0.0
C561 C 0.24721 0.80383 0.15101 0.0
C562 C 0.24519 0.82676 0.1665 0.0
C563 C 0.20797 0.812 0.17546 0.0
C564 C 0.17407 0.77361 0.16973 0.0
C565 C 0.28264 0.86458 0.1741 0.0
C566 C 0.28225 0.90173 0.17653 0.0
C567 C 0.31872 0.86397 0.17893 0.0
C568 C 0.32041 0.82528 0.1777 0.0
C569 C 0.29241 0.79131 0.18702 0.0
C570 C 0.29384 0.75477 0.1856 0.0
C571 C 0.32338 0.75196 0.17503 0.0
C572 C 0.35163 0.78574 0.16591 0.0
C573 C 0.35029 0.82233 0.16725 0.0
C574 C 0.4188 0.02499 0.22396 0.0
C575 C 0.45846 0.03925 0.2174 0.0
C576 C 0.38452 0.99254 0.21441 0.0
C577 C 0.38913 0.97385 0.19805 0.0
C578 C 0.42861 0.98839 0.19132 0.0
C579 C 0.46297 0.02092 0.20086 0.0
C580 C 0.35296 0.93757 0.18861 0.0
C581 C 0.3535 0.90054 0.18591 0.0
C582 C 0.31705 0.93835 0.18362 0.0
C583 C 0.31536 0.97704 0.1853 0.0
C584 C 0.34516 0.01238 0.1773 0.0
C585 C 0.34363 0.04886 0.17906 0.0
C586 C 0.31229 0.05032 0.1887 0.0
C587 C 0.28235 0.01527 0.19656 0.0
C588 C 0.28375 0.97872 0.19485 0.0
H589 H 0.31116 0.07858 0.19006 0.0
H590 H 0.32443 0.72364 0.17395 0.0
H591 H 0.44963 0.16187 0.49304 0.0
H592 H 0.44066 0.22082 0.50235 0.0
H593 H 0.5095 0.24135 0.5527 0.0
H594 H 0.51835 0.18287 0.54367 0.0
H595 H 0.44182 0.24803 0.55845 0.0
H596 H 0.55486 0.29775 0.51697 0.0
H597 H 0.58655 0.29809 0.48748 0.0
H598 H 0.49899 0.31977 0.46037 0.0
H599 H 0.46648 0.31906 0.4897 0.0
H600 H 0.53058 0.45209 0.59316 0.0
H601 H 0.51833 0.38649 0.57853 0.0
H602 H 0.45076 0.39792 0.53412 0.0
H603 H 0.46301 0.46413 0.54881 0.0
H604 H 0.50321 0.37053 0.52219 0.0
H605 H 0.39818 0.33277 0.56554 0.0
H606 H 0.37035 0.33574 0.59568 0.0
H607 H 0.44432 0.29278 0.6198 0.0
H608 H 0.47303 0.29005 0.58983 0.0
C609 C 0.46256 0.17879 0.50615 0.0
C610 C 0.48494 0.16781 0.51755 0.0
C611 C 0.45751 0.21249 0.51141 0.0
C612 C 0.47465 0.23558 0.52817 0.0
C613 C 0.49596 0.22392 0.53974 0.0
C614 C 0.50118 0.19056 0.53448 0.0
C615 C 0.472 0.27286 0.53365 0.0
C616 C 0.45519 0.2748 0.55052 0.0
C617 C 0.48841 0.30737 0.52306 0.0
C618 C 0.50792 0.3078 0.50546 0.0
C619 C 0.54216 0.30223 0.50469 0.0
C620 C 0.56031 0.30256 0.48802 0.0
C621 C 0.5447 0.3088 0.47205 0.0
C622 C 0.51098 0.31484 0.47274 0.0
C623 C 0.49269 0.31449 0.48938 0.0
C624 C 0.51289 0.44058 0.58033 0.0
C625 C 0.49726 0.46296 0.57225 0.0
C626 C 0.50594 0.4031 0.57198 0.0
C627 C 0.4829 0.38694 0.55544 0.0
C628 C 0.46837 0.40977 0.54696 0.0
C629 C 0.47545 0.44754 0.55532 0.0
C630 C 0.47427 0.34608 0.54726 0.0
C631 C 0.48887 0.34343 0.52991 0.0
C632 C 0.45591 0.31089 0.55744 0.0
C633 C 0.43788 0.31136 0.57542 0.0
C634 C 0.40863 0.32408 0.57727 0.0
C635 C 0.3927 0.32573 0.59434 0.0
C636 C 0.40559 0.31449 0.60965 0.0
C637 C 0.43434 0.30143 0.60792 0.0
C638 C 0.45038 0.29975 0.59088 0.0
H639 H 0.39329 0.31588 0.62285 0.0
H640 H 0.5588 0.30906 0.45916 0.0
H641 H 0.3444 0.43899 0.84432 0.0
H642 H 0.28277 0.4454 0.8466 0.0
H643 H 0.34613 0.5478 0.88729 0.0
H644 H 0.40619 0.54029 0.88582 0.0
H645 H 0.26931 0.50941 0.89446 0.0
H646 H 0.34697 0.55295 0.83842 0.0
H647 H 0.37201 0.53976 0.80902 0.0
H648 H 0.24773 0.45726 0.78936 0.0
H649 H 0.22208 0.46938 0.81877 0.0
H650 H 0.25825 0.68371 0.8769 0.0
H651 H 0.27568 0.62938 0.87872 0.0
H652 H 0.16147 0.54172 0.85015 0.0
H653 H 0.14344 0.59589 0.84864 0.0
H654 H 0.23826 0.54806 0.8358 0.0
H655 H 0.16235 0.52296 0.88929 0.0
H656 H 0.13986 0.54242 0.91795 0.0
H657 H 0.26111 0.59356 0.9421 0.0
H658 H 0.28467 0.57535 0.91344 0.0
C659 C 0.34473 0.46217 0.85406 0.0
C660 C 0.38057 0.48965 0.8646 0.0
C661 C 0.30951 0.46585 0.85534 0.0
C662 C 0.31007 0.49778 0.8668 0.0
C663 C 0.34475 0.52298 0.8783 0.0
C664 C 0.37942 0.51883 0.87731 0.0
C665 C 0.27779 0.50935 0.86538 0.0
C666 C 0.26218 0.51745 0.8816 0.0
C667 C 0.26716 0.51863 0.84853 0.0
C668 C 0.28268 0.51166 0.83085 0.0
C669 C 0.32505 0.53187 0.82784 0.0
C670 C 0.33933 0.52455 0.8112 0.0
C671 C 0.31148 0.49765 0.79735 0.0
C672 C 0.26928 0.47801 0.80011 0.0
C673 C 0.25487 0.48502 0.81678 0.0
C674 C 0.23671 0.65273 0.87121 0.0
C675 C 0.19944 0.6438 0.86284 0.0
C676 C 0.24657 0.62178 0.87229 0.0
C677 C 0.21964 0.58158 0.8647 0.0
C678 C 0.1824 0.57252 0.85621 0.0
C679 C 0.17213 0.60338 0.85545 0.0
C680 C 0.23219 0.55016 0.86494 0.0
C681 C 0.24398 0.53842 0.84854 0.0
C682 C 0.23953 0.53786 0.8816 0.0
C683 C 0.22534 0.54786 0.89914 0.0
C684 C 0.18433 0.53857 0.90067 0.0
C685 C 0.17137 0.5494 0.91692 0.0
C686 C 0.19903 0.56922 0.93183 0.0
C687 C 0.2397 0.57816 0.93054 0.0
C688 C 0.25287 0.56755 0.91428 0.0
H689 H 0.18894 0.57762 0.94439 0.0
H690 H 0.32259 0.49208 0.78446 0.0
H691 H 0.91653 0.44256 0.1191 0.0
H692 H 0.84975 0.38461 0.12606 0.0
H693 H 0.89793 0.3842 0.17928 0.0
H694 H 0.96492 0.4409 0.17223 0.0
H695 H 0.84709 0.30813 0.16612 0.0
H696 H 0.84294 0.43669 0.17114 0.0
H697 H 0.85129 0.49895 0.1579 0.0
H698 H 0.75914 0.42317 0.1162 0.0
H699 H 0.75054 0.3605 0.12908 0.0
H700 H 0.67382 0.22024 0.2202 0.0
H701 H 0.73823 0.2679 0.20664 0.0
H702 H 0.67278 0.25289 0.15589 0.0
H703 H 0.60786 0.20543 0.16954 0.0
H704 H 0.72928 0.3325 0.16414 0.0
H705 H 0.72757 0.20453 0.16013 0.0
H706 H 0.72074 0.14098 0.17114 0.0
H707 H 0.8233 0.21319 0.2089 0.0
H708 H 0.83039 0.27721 0.1983 0.0
C709 C 0.91314 0.42958 0.13215 0.0
C710 C 0.94604 0.4467 0.14517 0.0
C711 C 0.87482 0.39666 0.13616 0.0
C712 C 0.86847 0.38079 0.1534 0.0
C713 C 0.90194 0.39611 0.16594 0.0
C714 C 0.94034 0.42859 0.16186 0.0
C715 C 0.82681 0.3498 0.1589 0.0
C716 C 0.82143 0.31362 0.16582 0.0
C717 C 0.79289 0.35631 0.15798 0.0
C718 C 0.79647 0.39396 0.15093 0.0
C719 C 0.82449 0.43334 0.15914 0.0
C720 C 0.8293 0.46868 0.15169 0.0
C721 C 0.80602 0.46497 0.13612 0.0
C722 C 0.77739 0.42596 0.12816 0.0
C723 C 0.77243 0.39054 0.13556 0.0
C724 C 0.67304 0.22709 0.20616 0.0
C725 C 0.63581 0.20899 0.19586 0.0
C726 C 0.70995 0.25423 0.1984 0.0
C727 C 0.71043 0.2635 0.18015 0.0
C728 C 0.67316 0.24607 0.16996 0.0
C729 C 0.63618 0.21894 0.17774 0.0
C730 C 0.74993 0.29133 0.1718 0.0
C731 C 0.75485 0.32686 0.16433 0.0
C732 C 0.78339 0.28412 0.1721 0.0
C733 C 0.77928 0.24568 0.17852 0.0
C734 C 0.74847 0.20687 0.17088 0.0
C735 C 0.74458 0.17075 0.17703 0.0
C736 C 0.77151 0.17304 0.19074 0.0
C737 C 0.80244 0.21146 0.1983 0.0
C738 C 0.80643 0.24767 0.19221 0.0
H739 H 0.76846 0.14505 0.19548 0.0
H740 H 0.81005 0.49229 0.13022 0.0
H741 H 0.02863 0.5361 0.0661 0.0
H742 H 0.03698 0.53782 0.03298 0.0
H743 H 0.1451 0.65837 0.04109 0.0
H744 H 0.13758 0.65658 0.07423 0.0
H745 H 0.08312 0.64917 0.0141 0.0
H746 H 0.16283 0.58788 0.03019 0.0
H747 H 0.17509 0.5377 0.0447 0.0
H748 H 0.07719 0.43843 0.0114 0.0
H749 H 0.0639 0.48811 0.99688 0.0
H750 H 0.14766 0.6715 0.92408 0.0
H751 H 0.1516 0.66586 0.9569 0.0
H752 H 0.05238 0.53966 0.95039 0.0
H753 H 0.04872 0.54486 0.91742 0.0
H754 H 0.11197 0.55182 0.97674 0.0
H755 H 0.029 0.61004 0.96186 0.0
H756 H 0.0134 0.65823 0.94748 0.0
H757 H 0.11308 0.76055 0.97869 0.0
H758 H 0.12966 0.71293 0.99307 0.0
C759 C 0.05423 0.56294 0.06084 0.0
C760 C 0.08246 0.59621 0.07278 0.0
C761 C 0.05903 0.56379 0.04194 0.0
C762 C 0.09173 0.59816 0.03465 0.0
C763 C 0.11973 0.63156 0.04649 0.0
C764 C 0.11542 0.63041 0.0654 0.0
C765 C 0.09612 0.59964 0.01462 0.0
C766 C 0.09008 0.62836 0.00596 0.0
C767 C 0.10404 0.57165 0.00401 0.0
C768 C 0.11207 0.54168 0.0126 0.0
C769 C 0.14364 0.55532 0.02608 0.0
C770 C 0.15084 0.52696 0.03429 0.0
C771 C 0.12686 0.48485 0.02902 0.0
C772 C 0.09571 0.47105 0.01549 0.0
C773 C 0.08834 0.49931 0.00726 0.0
C774 C 0.12745 0.64218 0.92953 0.0
C775 C 0.09757 0.60874 0.9182 0.0
C776 C 0.12956 0.63909 0.94831 0.0
C777 C 0.10182 0.60256 0.9561 0.0
C778 C 0.07392 0.56819 0.94466 0.0
C779 C 0.07168 0.5713 0.92587 0.0
C780 C 0.09926 0.60159 0.97624 0.0
C781 C 0.10534 0.57284 0.98491 0.0
C782 C 0.09089 0.62926 0.98689 0.0
C783 C 0.08086 0.65798 0.97839 0.0
C784 C 0.04781 0.64285 0.96555 0.0
C785 C 0.03875 0.67004 0.95742 0.0
C786 C 0.06232 0.71244 0.96213 0.0
C787 C 0.09491 0.7277 0.97503 0.0
C788 C 0.10413 0.70062 0.98319 0.0
H789 H 0.05527 0.73346 0.95582 0.0
H790 H 0.13248 0.46293 0.03539 0.0
H791 H 0.49898 0.10804 0.43258 0.0
H792 H 0.50413 0.1173 0.39992 0.0
H793 H 0.53472 0.02115 0.39142 0.0
H794 H 0.5317 0.01332 0.42428 0.0
H795 H 0.58088 0.07883 0.37189 0.0
H796 H 0.43624 0.00772 0.37996 0.0
H797 H 0.37098 0.99409 0.39348 0.0
H798 H 0.38948 0.10941 0.37701 0.0
H799 H 0.45514 0.12398 0.36359 0.0
H800 H 0.52578 0.03778 0.27551 0.0
H801 H 0.52554 0.03225 0.30865 0.0
H802 H 0.54021 0.15353 0.31788 0.0
H803 H 0.54144 0.15959 0.2847 0.0
H804 H 0.47161 0.08388 0.33648 0.0
H805 H 0.61787 0.1509 0.32735 0.0
H806 H 0.6798 0.1579 0.31267 0.0
H807 H 0.65268 0.04027 0.32989 0.0
H808 H 0.59021 0.03229 0.34444 0.0
C809 C 0.5066 0.08873 0.42374 0.0
C810 C 0.51474 0.0598 0.43099 0.0
C811 C 0.50936 0.09391 0.40502 0.0
C812 C 0.51908 0.06941 0.39306 0.0
C813 C 0.52716 0.04045 0.40031 0.0
C814 C 0.52529 0.03588 0.4191 0.0
C815 C 0.52159 0.07453 0.37308 0.0
C816 C 0.55665 0.07936 0.36416 0.0
C817 C 0.49031 0.07579 0.3629 0.0
C818 C 0.45081 0.06712 0.37093 0.0
C819 C 0.42654 0.03031 0.37934 0.0
C820 C 0.38945 0.0224 0.38697 0.0
C821 C 0.37615 0.05092 0.38615 0.0
C822 C 0.39985 0.08737 0.37766 0.0
C823 C 0.43699 0.09546 0.37002 0.0
C824 C 0.52926 0.06333 0.28465 0.0
C825 C 0.53366 0.09912 0.27766 0.0
C826 C 0.52919 0.06018 0.30351 0.0
C827 C 0.53286 0.09249 0.31563 0.0
C828 C 0.53738 0.12833 0.30869 0.0
C829 C 0.53827 0.13183 0.28982 0.0
C830 C 0.53073 0.0882 0.33554 0.0
C831 C 0.49571 0.0834 0.34435 0.0
C832 C 0.5615 0.08597 0.3455 0.0
C833 C 0.59913 0.09081 0.33681 0.0
C834 C 0.62488 0.12634 0.32785 0.0
C835 C 0.66014 0.13053 0.31959 0.0
C836 C 0.67011 0.0995 0.3203 0.0
C837 C 0.64489 0.06426 0.32933 0.0
C838 C 0.60958 0.0599 0.33759 0.0
H839 H 0.69742 0.1028 0.31391 0.0
H840 H 0.34743 0.04473 0.39206 0.0
H841 H 0.57049 0.55976 0.78098 0.0
H842 H 0.5631 0.56517 0.74848 0.0
H843 H 0.43726 0.46603 0.7478 0.0
H844 H 0.44433 0.46013 0.78047 0.0
H845 H 0.4801 0.45853 0.71832 0.0
H846 H 0.45561 0.56166 0.7476 0.0
H847 H 0.4709 0.62094 0.76942 0.0
H848 H 0.58336 0.69601 0.74286 0.0
H849 H 0.56907 0.63698 0.72105 0.0
H850 H 0.43818 0.48802 0.62902 0.0
H851 H 0.43329 0.48397 0.66214 0.0
H852 H 0.55595 0.58895 0.66985 0.0
H853 H 0.56037 0.59378 0.63671 0.0
H854 H 0.50871 0.59189 0.69618 0.0
H855 H 0.53668 0.48847 0.66876 0.0
H856 H 0.52327 0.42948 0.6471 0.0
H857 H 0.40619 0.35522 0.6704 0.0
H858 H 0.41865 0.414 0.69203 0.0
C859 C 0.5412 0.53893 0.77397 0.0
C860 C 0.50793 0.50958 0.78339 0.0
C861 C 0.53702 0.54223 0.75538 0.0
C862 C 0.49948 0.51638 0.7458 0.0
C863 C 0.46644 0.48638 0.75499 0.0
C864 C 0.47054 0.48312 0.77366 0.0
C865 C 0.49505 0.52091 0.72617 0.0
C866 C 0.4856 0.48743 0.71348 0.0
C867 C 0.50309 0.55893 0.71988 0.0
C868 C 0.5114 0.59477 0.73276 0.0
C869 C 0.48373 0.59074 0.74648 0.0
C870 C 0.4922 0.6243 0.75884 0.0
C871 C 0.52812 0.6622 0.75756 0.0
C872 C 0.55556 0.66663 0.74385 0.0
C873 C 0.54726 0.63314 0.73146 0.0
C874 C 0.46383 0.51054 0.63784 0.0
C875 C 0.49978 0.541 0.63036 0.0
C876 C 0.46109 0.50814 0.65673 0.0
C877 C 0.49462 0.53556 0.66846 0.0
C878 C 0.52975 0.56736 0.66106 0.0
C879 C 0.53226 0.57014 0.64215 0.0
C880 C 0.49414 0.5296 0.68827 0.0
C881 C 0.50276 0.56284 0.70101 0.0
C882 C 0.48556 0.4914 0.69461 0.0
C883 C 0.47843 0.45575 0.6819 0.0
C884 C 0.50799 0.45962 0.66921 0.0
C885 C 0.50056 0.42623 0.65694 0.0
C886 C 0.46386 0.38866 0.65735 0.0
C887 C 0.43458 0.38436 0.67008 0.0
C888 C 0.44182 0.41769 0.68236 0.0
H889 H 0.45816 0.36286 0.64783 0.0
H890 H 0.53465 0.68813 0.76716 0.0
H891 H 0.45035 0.99138 0.57147 0.0
H892 H 0.45118 0.98645 0.60455 0.0
H893 H 0.58062 0.07615 0.60819 0.0
H894 H 0.57993 0.08214 0.57513 0.0
H895 H 0.549 0.99554 0.62731 0.0
H896 H 0.53117 0.11362 0.62154 0.0
H897 H 0.4972 0.14868 0.60904 0.0
H898 H 0.38248 0.05971 0.63013 0.0
H899 H 0.41568 0.02373 0.64251 0.0
H900 H 0.57436 0.03478 0.72397 0.0
H901 H 0.57682 0.03843 0.69076 0.0
H902 H 0.44622 0.99293 0.68784 0.0
H903 H 0.44441 0.99154 0.72114 0.0
H904 H 0.47984 0.05175 0.66764 0.0
H905 H 0.49278 0.93287 0.67351 0.0
H906 H 0.52166 0.89226 0.68504 0.0
H907 H 0.63824 0.97394 0.66304 0.0
H908 H 0.61019 0.01539 0.65159 0.0
C909 C 0.47902 0.01 0.5793 0.0
C910 C 0.51506 0.03724 0.57073 0.0
C911 C 0.4794 0.00716 0.59816 0.0
C912 C 0.51595 0.03094 0.6087 0.0
C913 C 0.55217 0.05755 0.6002 0.0
C914 C 0.55165 0.06107 0.58137 0.0
C915 C 0.51597 0.02852 0.6287 0.0
C916 C 0.53443 0.00825 0.63625 0.0
C917 C 0.49572 0.04397 0.6401 0.0
C918 C 0.47581 0.06573 0.63277 0.0
C919 C 0.49862 0.10129 0.62335 0.0
C920 C 0.47952 0.12139 0.61632 0.0
C921 C 0.43768 0.10637 0.61874 0.0
C922 C 0.41487 0.07128 0.62824 0.0
C923 C 0.43382 0.05104 0.63528 0.0
C924 C 0.54624 0.02525 0.71614 0.0
C925 C 0.50919 0.01278 0.72497 0.0
C926 C 0.54755 0.02713 0.69717 0.0
C927 C 0.51158 0.01541 0.68668 0.0
C928 C 0.47442 0.00225 0.69558 0.0
C929 C 0.47331 0.00127 0.71456 0.0
C930 C 0.51281 0.01843 0.66655 0.0
C931 C 0.49453 0.03889 0.65887 0.0
C932 C 0.53252 0.00234 0.65499 0.0
C933 C 0.54949 0.97747 0.66186 0.0
C934 C 0.52466 0.94236 0.67125 0.0
C935 C 0.54087 0.91916 0.67775 0.0
C936 C 0.58179 0.93058 0.67482 0.0
C937 C 0.60656 0.96517 0.66533 0.0
C938 C 0.59052 0.98851 0.65882 0.0
H939 H 0.59428 0.91257 0.67986 0.0
H940 H 0.42295 0.12197 0.6133 0.0
H941 H 0.53489 0.55808 0.93143 0.0
H942 H 0.53839 0.55196 0.96427 0.0
H943 H 0.55155 0.44503 0.95325 0.0
H944 H 0.5481 0.45079 0.92047 0.0
H945 H 0.49187 0.43231 0.97771 0.0
H946 H 0.63246 0.53319 0.9694 0.0
H947 H 0.68932 0.59788 0.95922 0.0
H948 H 0.65113 0.66803 0.99415 0.0
H949 H 0.59365 0.60371 0.00436 0.0
H950 H 0.52001 0.41266 0.07087 0.0
H951 H 0.53507 0.42216 0.03852 0.0
H952 H 0.53313 0.5362 0.0441 0.0
H953 H 0.51993 0.52784 0.07651 0.0
H954 H 0.59186 0.54362 0.02207 0.0
H955 H 0.44835 0.4449 0.02794 0.0
H956 H 0.3895 0.38127 0.03788 0.0
H957 H 0.431 0.30838 0.00719 0.0
H958 H 0.49044 0.37167 0.99726 0.0
C959 C 0.5388 0.53342 0.93598 0.0
C960 C 0.54112 0.50488 0.9233 0.0
C961 C 0.54099 0.53009 0.95475 0.0
C962 C 0.54548 0.49818 0.96116 0.0
C963 C 0.54815 0.4699 0.94856 0.0
C964 C 0.54624 0.47334 0.92983 0.0
C965 C 0.54534 0.49307 0.98098 0.0
C966 C 0.51418 0.45633 0.98739 0.0
C967 C 0.5739 0.52483 0.99359 0.0
C968 C 0.60851 0.56359 0.98752 0.0
C969 C 0.63597 0.56239 0.9748 0.0
C970 C 0.66836 0.599 0.96905 0.0
C971 C 0.67378 0.63703 0.976 0.0
C972 C 0.64687 0.63854 0.98876 0.0
C973 C 0.61441 0.60201 0.99455 0.0
C974 C 0.52361 0.44014 0.06527 0.0
C975 C 0.51813 0.46917 0.07618 0.0
C976 C 0.53188 0.44537 0.04676 0.0
C977 C 0.53443 0.4795 0.03882 0.0
C978 C 0.53104 0.50951 0.0499 0.0
C979 C 0.52304 0.50444 0.06838 0.0
C980 C 0.53816 0.48296 0.01881 0.0
C981 C 0.56987 0.51939 0.01237 0.0
C982 C 0.50985 0.45108 0.00614 0.0
C983 C 0.47407 0.41301 0.01204 0.0
C984 C 0.44508 0.41531 0.02342 0.0
C985 C 0.4116 0.37931 0.02904 0.0
C986 C 0.40658 0.34081 0.02322 0.0
C987 C 0.43498 0.33823 0.01172 0.0
C988 C 0.46856 0.37414 0.00609 0.0
H989 H 0.38064 0.31297 0.02758 0.0
H990 H 0.69888 0.66534 0.97154 0.0
H991 H 0.01565 0.61917 0.21538 0.0
H992 H 0.00742 0.61428 0.24829 0.0
H993 H 0.09468 0.57188 0.25046 0.0
H994 H 0.1011 0.57449 0.21738 0.0
H995 H 0.0363 0.52814 0.27015 0.0
H996 H 0.11668 0.67389 0.26645 0.0
H997 H 0.13518 0.74176 0.25593 0.0
H998 H 0.02439 0.73124 0.27739 0.0
H999 H 0.00496 0.66302 0.28783 0.0
H1000 H 0.08489 0.58132 0.3671 0.0
H1001 H 0.08925 0.58331 0.33376 0.0
H1002 H 0.96833 0.56885 0.33013 0.0
H1003 H 0.96336 0.56562 0.36347 0.0
H1004 H 0.04209 0.64079 0.31185 0.0
H1005 H 0.96525 0.49247 0.31593 0.0
H1006 H 0.95379 0.42771 0.32759 0.0
H1007 H 0.06853 0.44847 0.30645 0.0
H1008 H 0.08097 0.51373 0.29491 0.0
C1009 C 0.0333 0.60912 0.22292 0.0
C1010 C 0.0591 0.59731 0.21384 0.0
C1011 C 0.02874 0.60651 0.24177 0.0
C1012 C 0.0509 0.59331 0.252 0.0
C1013 C 0.07714 0.58206 0.24292 0.0
C1014 C 0.08093 0.58371 0.22402 0.0
C1015 C 0.04583 0.58993 0.27204 0.0
C1016 C 0.03812 0.55309 0.27922 0.0
C1017 C 0.04758 0.62213 0.28401 0.0
C1018 C 0.05917 0.66315 0.27775 0.0
C1019 C 0.09611 0.68591 0.2688 0.0
C1020 C 0.10679 0.72446 0.26287 0.0
C1021 C 0.08092 0.74075 0.26594 0.0
C1022 C 0.04437 0.71856 0.27499 0.0
C1023 C 0.03352 0.67996 0.28093 0.0
C1024 C 0.05915 0.57817 0.35912 0.0
C1025 C 0.02373 0.57316 0.36771 0.0
C1026 C 0.06166 0.57932 0.34017 0.0
C1027 C 0.02911 0.57626 0.3296 0.0
C1028 C 0.99368 0.57122 0.33814 0.0
C1029 C 0.99079 0.56917 0.35707 0.0
C1030 C 0.03269 0.57929 0.30966 0.0
C1031 C 0.04022 0.61603 0.30261 0.0
C1032 C 0.03179 0.5475 0.29789 0.0
C1033 C 0.02424 0.5082 0.30475 0.0
C1034 C 0.98823 0.48345 0.31394 0.0
C1035 C 0.98151 0.4466 0.32048 0.0
C1036 C 0.01047 0.43404 0.31781 0.0
C1037 C 0.04616 0.45826 0.30854 0.0
C1038 C 0.05304 0.49516 0.30198 0.0
H1039 H 0.00521 0.4055 0.32288 0.0
H1040 H 0.08924 0.77061 0.26135 0.0
loop_
_geom_bond_atom_site_label_1
_geom_bond_atom_site_label_2
_geom_bond_distance
_geom_bond_site_symmetry_2
_ccdc_geom_bond_type
O0 Zn1 1.953 . S
O0 C16 1.225 . S
Zn1 O0 1.953 . S
Zn1 O2 1.949 . S
Zn1 O8 1.919 . S
Zn1 O13 1.924 . S
O2 Zn1 1.949 . S
O2 Zn3 1.923 . S
O2 Zn4 1.950 . S
O2 Zn5 1.945 . S
Zn3 O2 1.923 . S
Zn3 O6 1.933 . S
Zn3 O9 1.941 1_455 S
Zn3 O10 1.965 1_455 S
Zn4 O2 1.950 . S
Zn4 O11 1.938 . S
Zn4 O12 1.906 . S
Zn4 O22 1.953 . S
Zn5 O2 1.945 . S
Zn5 O7 1.932 . S
Zn5 O14 1.977 . S
Zn5 O15 1.910 . S
O6 Zn3 1.933 . S
O6 C17 1.226 . S
O7 Zn5 1.932 . S
O7 C17 1.307 . S
O8 Zn1 1.919 . S
O8 C19 1.253 1_455 S
O9 Zn3 1.941 1_655 S
O9 C19 1.283 . S
O10 Zn3 1.965 1_655 S
O10 C18 1.303 . S
O11 Zn4 1.938 . S
O11 C18 1.247 1_455 S
O12 Zn4 1.906 . S
O12 C20 1.304 . S
O13 Zn1 1.924 . S
O13 C21 1.311 . S
O14 Zn5 1.977 . S
O14 C20 1.272 . S
O15 Zn5 1.910 . S
O15 C21 1.231 . S
C16 O0 1.225 . S
C16 O22 1.298 . S
C17 O6 1.226 . S
C17 O7 1.307 . S
C18 O10 1.303 . S
C18 O11 1.247 1_655 S
C19 O8 1.253 1_655 S
C19 O9 1.283 . S
C20 O12 1.304 . S
C20 O14 1.272 . S
C21 O13 1.311 . S
C21 O15 1.231 . S
O22 Zn4 1.953 . S
O22 C16 1.298 . S
O23 Zn24 1.953 . S
O23 C39 1.225 . S
Zn24 O23 1.953 . S
Zn24 O25 1.949 . S
Zn24 O31 1.919 . S
Zn24 O36 1.924 . S
O25 Zn24 1.949 . S
O25 Zn26 1.923 . S
O25 Zn27 1.950 . S
O25 Zn28 1.945 . S
Zn26 O25 1.923 . S
Zn26 O29 1.933 . S
Zn26 O32 1.941 . S
Zn26 O33 1.965 . S
Zn27 O25 1.950 . S
Zn27 O34 1.938 . S
Zn27 O35 1.906 1_545 S
Zn27 O45 1.953 . S
Zn28 O25 1.945 . S
Zn28 O30 1.932 . S
Zn28 O37 1.977 1_545 S
Zn28 O38 1.910 1_545 S
O29 Zn26 1.933 . S
O29 C40 1.226 . S
O30 Zn28 1.932 . S
O30 C40 1.307 . S
O31 Zn24 1.919 . S
O31 C42 1.253 . S
O32 Zn26 1.941 . S
O32 C42 1.283 . S
O33 Zn26 1.965 . S
O33 C41 1.303 . S
O34 Zn27 1.938 . S
O34 C41 1.247 . S
O35 Zn27 1.906 1_565 S
O35 C43 1.304 . S
O36 Zn24 1.924 . S
O36 C44 1.311 1_545 S
O37 Zn28 1.977 1_565 S
O37 C43 1.272 . S
O38 Zn28 1.910 1_565 S
O38 C44 1.231 . S
C39 O23 1.225 . S
C39 O45 1.298 . S
C40 O29 1.226 . S
C40 O30 1.307 . S
C41 O33 1.303 . S
C41 O34 1.247 . S
C42 O31 1.253 . S
C42 O32 1.283 . S
C43 O35 1.304 . S
C43 O37 1.272 . S
C44 O36 1.311 1_565 S
C44 O38 1.231 . S
O45 Zn27 1.953 . S
O45 C39 1.298 . S
O46 Zn47 1.953 . S
O46 C62 1.225 . S
Zn47 O46 1.953 . S
Zn47 O48 1.949 . S
Zn47 O54 1.919 . S
Zn47 O59 1.924 . S
O48 Zn47 1.949 . S
O48 Zn49 1.923 . S
O48 Zn50 1.950 . S
O48 Zn51 1.945 . S
Zn49 O48 1.923 . S
Zn49 O52 1.933 . S
Zn49 O55 1.941 . S
Zn49 O56 1.965 . S
Zn50 O48 1.950 . S
Zn50 O57 1.938 . S
Zn50 O58 1.906 . S
Zn50 O68 1.953 . S
Zn51 O48 1.945 . S
Zn51 O53 1.932 . S
Zn51 O60 1.977 . S
Zn51 O61 1.910 . S
O52 Zn49 1.933 . S
O52 C63 1.226 . S
O53 Zn51 1.932 . S
O53 C63 1.307 . S
O54 Zn47 1.919 . S
O54 C65 1.253 . S
O55 Zn49 1.941 . S
O55 C65 1.283 . S
O56 Zn49 1.965 . S
O56 C64 1.303 . S
O57 Zn50 1.938 . S
O57 C64 1.247 . S
O58 Zn50 1.906 . S
O58 C66 1.304 . S
O59 Zn47 1.924 . S
O59 C67 1.311 . S
O60 Zn51 1.977 . S
O60 C66 1.272 . S
O61 Zn51 1.910 . S
O61 C67 1.231 . S
C62 O46 1.225 . S
C62 O68 1.298 . S
C63 O52 1.226 . S
C63 O53 1.307 . S
C64 O56 1.303 . S
C64 O57 1.247 . S
C65 O54 1.253 . S
C65 O55 1.283 . S
C66 O58 1.304 . S
C66 O60 1.272 . S
C67 O59 1.311 . S
C67 O61 1.231 . S
O68 Zn50 1.953 . S
O68 C62 1.298 . S
H69 C74 0.930 . S
H70 C77 0.930 . S
H71 C79 0.930 . S
H72 C73 1.016 . S
C73 H72 1.016 . S
C73 N80 1.286 . S
C74 H69 0.930 . S
C74 C75 1.397 . S
C74 C76 1.361 . S
C75 C74 1.397 . S
C75 C79 1.390 . S
C76 C74 1.361 . S
C76 C77 1.393 . S
C76 N80 1.413 . S
C77 H70 0.930 . S
C77 C76 1.393 . S
C77 C78 1.399 . S
C78 C77 1.399 . S
C78 C79 1.381 . S
C79 H71 0.930 . S
C79 C75 1.390 . S
C79 C78 1.381 . S
N80 C73 1.286 . S
N80 C76 1.413 . S
H81 C86 0.930 . S
H82 C89 0.930 . S
H83 C91 0.930 . S
H84 C85 1.016 . S
C85 H84 1.016 . S
C85 N92 1.286 . S
C86 H81 0.930 . S
C86 C87 1.397 . S
C86 C88 1.361 . S
C87 C86 1.397 . S
C87 C91 1.390 . S
C88 C86 1.361 . S
C88 C89 1.393 . S
C88 N92 1.413 . S
C89 H82 0.930 . S
C89 C88 1.393 . S
C89 C90 1.399 . S
C90 C89 1.399 . S
C90 C91 1.381 . S
C91 H83 0.930 . S
C91 C87 1.390 . S
C91 C90 1.381 . S
N92 C85 1.286 . S
N92 C88 1.413 . S
H93 C98 0.930 . S
H94 C101 0.930 . S
H95 C103 0.930 1_655 S
H96 C97 1.016 . S
C97 H96 1.016 . S
C97 N104 1.286 . S
C98 H93 0.930 . S
C98 C99 1.378 1_455 S
C98 C100 1.361 . S
C99 C98 1.378 1_655 S
C99 C103 1.388 1_655 S
C100 C98 1.361 . S
C100 C101 1.393 . S
C100 N104 1.413 . S
C101 H94 0.930 . S
C101 C100 1.393 . S
C101 C102 1.399 . S
C102 C101 1.399 . S
C102 C103 1.381 . S
C103 H95 0.930 1_455 S
C103 C99 1.388 1_455 S
C103 C102 1.381 . S
N104 C97 1.286 . S
N104 C100 1.413 . S
H105 C110 0.930 . S
H106 C113 0.925 1_655 S
H107 C115 0.930 . S
H108 C109 1.016 . S
C109 H108 1.016 . S
C109 N116 1.286 . S
C110 H105 0.930 . S
C110 C111 1.397 . S
C110 C112 1.361 . S
C111 C110 1.397 . S
C111 C115 1.390 . S
C112 C110 1.361 . S
C112 C113 1.395 . S
C112 N116 1.413 1_455 S
C113 H106 0.925 1_455 S
C113 C112 1.395 . S
C113 C114 1.403 . S
C114 C113 1.403 . S
C114 C115 1.381 . S
C115 H107 0.930 . S
C115 C111 1.390 . S
C115 C114 1.381 . S
N116 C109 1.286 . S
N116 C112 1.413 1_655 S
H117 C122 0.930 . S
H118 C125 0.930 1_565 S
H119 C127 0.930 . S
H120 C121 1.016 . S
C121 H120 1.016 . S
C121 N128 1.286 . S
C122 H117 0.930 . S
C122 C123 1.397 . S
C122 C124 1.361 . S
C123 C122 1.397 . S
C123 C127 1.390 . S
C124 C122 1.361 . S
C124 C125 1.393 . S
C124 N128 1.413 1_545 S
C125 H118 0.930 1_545 S
C125 C124 1.393 . S
C125 C126 1.399 . S
C126 C125 1.399 . S
C126 C127 1.381 . S
C127 H119 0.930 . S
C127 C123 1.390 . S
C127 C126 1.381 . S
N128 C121 1.286 . S
N128 C124 1.413 1_565 S
H129 C134 0.930 . S
H130 C137 0.930 . S
H131 C139 0.930 . S
H132 C133 1.016 . S
C133 H132 1.016 . S
C133 N140 1.286 . S
C134 H129 0.930 . S
C134 C135 1.397 . S
C134 C136 1.361 . S
C135 C134 1.397 . S
C135 C139 1.390 . S
C136 C134 1.361 . S
C136 C137 1.393 . S
C136 N140 1.413 . S
C137 H130 0.930 . S
C137 C136 1.393 . S
C137 C138 1.399 . S
C138 C137 1.399 . S
C138 C139 1.381 . S
C139 H131 0.930 . S
C139 C135 1.390 . S
C139 C138 1.381 . S
N140 C133 1.286 . S
N140 C136 1.413 . S
H141 C159 0.951 . S
H142 C161 0.951 . S
H143 C163 0.950 . S
H144 C164 0.950 . S
H145 C166 0.950 . S
H146 C169 0.950 . S
H147 C170 0.950 . S
H148 C172 0.950 . S
H149 C173 0.950 . S
H150 C174 0.951 . S
H151 C176 0.951 . S
H152 C178 0.950 . S
H153 C179 0.950 . S
H154 C181 0.950 . S
H155 C184 0.950 . S
H156 C185 0.950 . S
H157 C187 0.950 . S
H158 C188 0.950 . S
C159 H141 0.951 . S
C159 C160 1.366 . S
C159 C161 1.388 . S
C160 C159 1.366 . S
C160 C164 1.385 . S
C161 H142 0.951 . S
C161 C159 1.388 . S
C161 C162 1.366 . S
C162 C161 1.366 . S
C162 C163 1.414 . S
C162 C165 1.499 . S
C163 H143 0.950 . S
C163 C162 1.414 . S
C163 C164 1.374 . S
C164 H144 0.950 . S
C164 C160 1.385 . S
C164 C163 1.374 . S
C165 C162 1.499 . S
C165 C166 1.373 . S
C165 C167 1.389 . S
C166 H145 0.950 . S
C166 C165 1.373 . S
C166 C182 1.377 . S
C167 C165 1.389 . S
C167 C168 1.524 . S
C167 C181 1.377 . S
C168 C167 1.524 . S
C168 C169 1.397 . S
C168 C173 1.363 . S
C169 H146 0.950 . S
C169 C168 1.397 . S
C169 C170 1.334 . S
C170 H147 0.950 . S
C170 C169 1.334 . S
C170 C171 1.287 . S
C171 C170 1.287 . S
C171 C172 1.524 . S
C171 H190 0.913 . S
C172 H148 0.950 . S
C172 C171 1.524 . S
C172 C173 1.415 . S
C173 H149 0.950 . S
C173 C168 1.363 . S
C173 C172 1.415 . S
C174 H150 0.951 . S
C174 C175 1.366 . S
C174 C176 1.388 . S
C175 C174 1.366 . S
C175 C179 1.385 . S
C176 H151 0.951 . S
C176 C174 1.388 . S
C176 C177 1.366 . S
C177 C176 1.366 . S
C177 C178 1.414 . S
C177 C180 1.499 . S
C178 H152 0.950 . S
C178 C177 1.414 . S
C178 C179 1.374 . S
C179 H153 0.950 . S
C179 C175 1.385 . S
C179 C178 1.374 . S
C180 C177 1.499 . S
C180 C181 1.373 . S
C180 C182 1.389 . S
C181 H154 0.950 . S
C181 C167 1.377 . S
C181 C180 1.373 . S
C182 C166 1.377 . S
C182 C180 1.389 . S
C182 C183 1.524 . S
C183 C182 1.524 . S
C183 C184 1.397 . S
C183 C188 1.363 . S
C184 H155 0.950 . S
C184 C183 1.397 . S
C184 C185 1.334 . S
C185 H156 0.950 . S
C185 C184 1.334 . S
C185 C186 1.287 . S
C186 C185 1.287 . S
C186 C187 1.524 . S
C186 H189 0.999 . S
C187 H157 0.950 . S
C187 C186 1.524 . S
C187 C188 1.415 . S
C188 H158 0.950 . S
C188 C183 1.363 . S
C188 C187 1.415 . S
H189 C186 0.999 . S
H190 C171 0.913 . S
H191 C209 0.951 . S
H192 C211 0.951 . S
H193 C213 0.950 . S
H194 C214 0.950 . S
H195 C216 0.950 . S
H196 C219 0.950 . S
H197 C220 0.950 . S
H198 C222 0.950 . S
H199 C223 0.950 . S
H200 C224 0.951 . S
H201 C226 0.951 . S
H202 C228 0.950 . S
H203 C229 0.950 . S
H204 C231 0.950 . S
H205 C234 0.950 . S
H206 C235 0.950 . S
H207 C237 0.950 . S
H208 C238 0.950 . S
C209 H191 0.951 . S
C209 C210 1.366 . S
C209 C211 1.388 . S
C210 C209 1.366 . S
C210 C214 1.385 . S
C211 H192 0.951 . S
C211 C209 1.388 . S
C211 C212 1.366 . S
C212 C211 1.366 . S
C212 C213 1.414 . S
C212 C215 1.499 . S
C213 H193 0.950 . S
C213 C212 1.414 . S
C213 C214 1.374 . S
C214 H194 0.950 . S
C214 C210 1.385 . S
C214 C213 1.374 . S
C215 C212 1.499 . S
C215 C216 1.373 . S
C215 C217 1.389 . S
C216 H195 0.950 . S
C216 C215 1.373 . S
C216 C232 1.377 . S
C217 C215 1.389 . S
C217 C218 1.524 . S
C217 C231 1.377 . S
C218 C217 1.524 . S
C218 C219 1.397 . S
C218 C223 1.363 . S
C219 H196 0.950 . S
C219 C218 1.397 . S
C219 C220 1.334 . S
C220 H197 0.950 . S
C220 C219 1.334 . S
C220 C221 1.287 . S
C221 C220 1.287 . S
C221 C222 1.524 . S
C221 H240 0.913 . S
C222 H198 0.950 . S
C222 C221 1.524 . S
C222 C223 1.415 . S
C223 H199 0.950 . S
C223 C218 1.363 . S
C223 C222 1.415 . S
C224 H200 0.951 . S
C224 C225 1.366 . S
C224 C226 1.388 . S
C225 C224 1.366 . S
C225 C229 1.385 . S
C226 H201 0.951 . S
C226 C224 1.388 . S
C226 C227 1.366 . S
C227 C226 1.366 . S
C227 C228 1.414 . S
C227 C230 1.499 . S
C228 H202 0.950 . S
C228 C227 1.414 . S
C228 C229 1.374 . S
C229 H203 0.950 . S
C229 C225 1.385 . S
C229 C228 1.374 . S
C230 C227 1.499 . S
C230 C231 1.373 . S
C230 C232 1.389 . S
C231 H204 0.950 . S
C231 C217 1.377 . S
C231 C230 1.373 . S
C232 C216 1.377 . S
C232 C230 1.389 . S
C232 C233 1.524 . S
C233 C232 1.524 . S
C233 C234 1.397 . S
C233 C238 1.363 . S
C234 H205 0.950 . S
C234 C233 1.397 . S
C234 C235 1.334 . S
C235 H206 0.950 . S
C235 C234 1.334 . S
C235 C236 1.287 . S
C236 C235 1.287 . S
C236 C237 1.524 . S
C236 H239 0.999 . S
C237 H207 0.950 . S
C237 C236 1.524 . S
C237 C238 1.415 . S
C238 H208 0.950 . S
C238 C233 1.363 . S
C238 C237 1.415 . S
H239 C236 0.999 . S
H240 C221 0.913 . S
H241 C259 0.951 . S
H242 C261 0.951 . S
H243 C263 0.950 . S
H244 C264 0.950 . S
H245 C266 0.950 . S
H246 C269 0.950 . S
H247 C270 0.950 . S
H248 C272 0.950 . S
H249 C273 0.950 . S
H250 C274 0.951 . S
H251 C276 0.951 . S
H252 C278 0.950 . S
H253 C279 0.950 . S
H254 C281 0.950 . S
H255 C284 0.950 . S
H256 C285 0.950 . S
H257 C287 0.950 . S
H258 C288 0.950 . S
C259 H241 0.951 . S
C259 C260 1.366 . S
C259 C261 1.388 . S
C260 C259 1.366 . S
C260 C264 1.385 . S
C261 H242 0.951 . S
C261 C259 1.388 . S
C261 C262 1.366 . S
C262 C261 1.366 . S
C262 C263 1.414 . S
C262 C265 1.499 . S
C263 H243 0.950 . S
C263 C262 1.414 . S
C263 C264 1.374 . S
C264 H244 0.950 . S
C264 C260 1.385 . S
C264 C263 1.374 . S
C265 C262 1.499 . S
C265 C266 1.373 . S
C265 C267 1.389 . S
C266 H245 0.950 . S
C266 C265 1.373 . S
C266 C282 1.377 . S
C267 C265 1.389 . S
C267 C268 1.524 . S
C267 C281 1.377 . S
C268 C267 1.524 . S
C268 C269 1.397 . S
C268 C273 1.363 . S
C269 H246 0.950 . S
C269 C268 1.397 . S
C269 C270 1.334 . S
C270 H247 0.950 . S
C270 C269 1.334 . S
C270 C271 1.287 . S
C271 C270 1.287 . S
C271 C272 1.524 . S
C271 H290 0.913 . S
C272 H248 0.950 . S
C272 C271 1.524 . S
C272 C273 1.415 . S
C273 H249 0.950 . S
C273 C268 1.363 . S
C273 C272 1.415 . S
C274 H250 0.951 . S
C274 C275 1.366 . S
C274 C276 1.388 . S
C275 C274 1.366 . S
C275 C279 1.385 . S
C276 H251 0.951 . S
C276 C274 1.388 . S
C276 C277 1.366 . S
C277 C276 1.366 . S
C277 C278 1.414 . S
C277 C280 1.499 . S
C278 H252 0.950 . S
C278 C277 1.414 . S
C278 C279 1.374 . S
C279 H253 0.950 . S
C279 C275 1.385 . S
C279 C278 1.374 . S
C280 C277 1.499 . S
C280 C281 1.373 . S
C280 C282 1.389 . S
C281 H254 0.950 . S
C281 C267 1.377 . S
C281 C280 1.373 . S
C282 C266 1.377 . S
C282 C280 1.389 . S
C282 C283 1.524 . S
C283 C282 1.524 . S
C283 C284 1.397 . S
C283 C288 1.363 . S
C284 H255 0.950 . S
C284 C283 1.397 . S
C284 C285 1.334 . S
C285 H256 0.950 . S
C285 C284 1.334 . S
C285 C286 1.287 . S
C286 C285 1.287 . S
C286 C287 1.524 . S
C286 H289 0.999 . S
C287 H257 0.950 . S
C287 C286 1.524 . S
C287 C288 1.415 . S
C288 H258 0.950 . S
C288 C283 1.363 . S
C288 C287 1.415 . S
H289 C286 0.999 . S
H290 C271 0.913 . S
H291 C309 0.951 . S
H292 C311 0.951 . S
H293 C313 0.950 . S
H294 C314 0.950 . S
H295 C316 0.950 . S
H296 C319 0.950 . S
H297 C320 0.950 . S
H298 C322 0.950 . S
H299 C323 0.950 . S
H300 C324 0.951 . S
H301 C326 0.951 . S
H302 C328 0.950 . S
H303 C329 0.950 . S
H304 C331 0.950 . S
H305 C334 0.950 . S
H306 C335 0.950 . S
H307 C337 0.950 . S
H308 C338 0.950 . S
C309 H291 0.951 . S
C309 C310 1.366 . S
C309 C311 1.388 . S
C310 C309 1.366 . S
C310 C314 1.385 . S
C311 H292 0.951 . S
C311 C309 1.388 . S
C311 C312 1.366 . S
C312 C311 1.366 . S
C312 C313 1.414 . S
C312 C315 1.499 . S
C313 H293 0.950 . S
C313 C312 1.414 . S
C313 C314 1.374 . S
C314 H294 0.950 . S
C314 C310 1.385 . S
C314 C313 1.374 . S
C315 C312 1.499 . S
C315 C316 1.373 . S
C315 C317 1.389 . S
C316 H295 0.950 . S
C316 C315 1.373 . S
C316 C332 1.377 . S
C317 C315 1.389 . S
C317 C318 1.524 . S
C317 C331 1.377 . S
C318 C317 1.524 . S
C318 C319 1.397 . S
C318 C323 1.363 . S
C319 H296 0.950 . S
C319 C318 1.397 . S
C319 C320 1.334 . S
C320 H297 0.950 . S
C320 C319 1.334 . S
C320 C321 1.287 . S
C321 C320 1.287 . S
C321 C322 1.524 . S
C321 H340 0.913 . S
C322 H298 0.950 . S
C322 C321 1.524 . S
C322 C323 1.415 . S
C323 H299 0.950 . S
C323 C318 1.363 . S
C323 C322 1.415 . S
C324 H300 0.951 . S
C324 C325 1.366 . S
C324 C326 1.388 . S
C325 C324 1.366 . S
C325 C329 1.385 . S
C326 H301 0.951 . S
C326 C324 1.388 . S
C326 C327 1.366 . S
C327 C326 1.366 . S
C327 C328 1.414 . S
C327 C330 1.499 . S
C328 H302 0.950 . S
C328 C327 1.414 . S
C328 C329 1.374 . S
C329 H303 0.950 . S
C329 C325 1.385 . S
C329 C328 1.374 . S
C330 C327 1.499 . S
C330 C331 1.373 . S
C330 C332 1.389 . S
C331 H304 0.950 . S
C331 C317 1.377 . S
C331 C330 1.373 . S
C332 C316 1.377 . S
C332 C330 1.389 . S
C332 C333 1.524 . S
C333 C332 1.524 . S
C333 C334 1.397 . S
C333 C338 1.363 . S
C334 H305 0.950 . S
C334 C333 1.397 . S
C334 C335 1.334 . S
C335 H306 0.950 . S
C335 C334 1.334 . S
C335 C336 1.287 . S
C336 C335 1.287 . S
C336 C337 1.524 . S
C336 H339 0.999 . S
C337 H307 0.950 . S
C337 C336 1.524 . S
C337 C338 1.415 . S
C338 H308 0.950 . S
C338 C333 1.363 . S
C338 C337 1.415 . S
H339 C336 0.999 . S
H340 C321 0.913 . S
H341 C359 0.951 . S
H342 C361 0.951 . S
H343 C363 0.950 . S
H344 C364 0.950 . S
H345 C366 0.950 . S
H346 C369 0.950 . S
H347 C370 0.950 . S
H348 C372 0.950 . S
H349 C373 0.950 . S
H350 C374 0.951 . S
H351 C376 0.951 . S
H352 C378 0.950 . S
H353 C379 0.950 . S
H354 C381 0.950 . S
H355 C384 0.950 . S
H356 C385 0.950 . S
H357 C387 0.950 . S
H358 C388 0.950 . S
C359 H341 0.951 . S
C359 C360 1.366 . S
C359 C361 1.388 . S
C360 C359 1.366 . S
C360 C364 1.385 . S
C361 H342 0.951 . S
C361 C359 1.388 . S
C361 C362 1.366 . S
C362 C361 1.366 . S
C362 C363 1.414 . S
C362 C365 1.499 . S
C363 H343 0.950 . S
C363 C362 1.414 . S
C363 C364 1.374 . S
C364 H344 0.950 . S
C364 C360 1.385 . S
C364 C363 1.374 . S
C365 C362 1.499 . S
C365 C366 1.373 . S
C365 C367 1.389 . S
C366 H345 0.950 . S
C366 C365 1.373 . S
C366 C382 1.377 . S
C367 C365 1.389 . S
C367 C368 1.524 . S
C367 C381 1.377 . S
C368 C367 1.524 . S
C368 C369 1.397 . S
C368 C373 1.363 . S
C369 H346 0.950 . S
C369 C368 1.397 . S
C369 C370 1.334 . S
C370 H347 0.950 . S
C370 C369 1.334 . S
C370 C371 1.287 . S
C371 C370 1.287 . S
C371 C372 1.524 . S
C371 H390 0.913 . S
C372 H348 0.950 . S
C372 C371 1.524 . S
C372 C373 1.415 . S
C373 H349 0.950 . S
C373 C368 1.363 . S
C373 C372 1.415 . S
C374 H350 0.951 . S
C374 C375 1.366 . S
C374 C376 1.388 . S
C375 C374 1.366 . S
C375 C379 1.385 . S
C376 H351 0.951 . S
C376 C374 1.388 . S
C376 C377 1.366 . S
C377 C376 1.366 . S
C377 C378 1.414 . S
C377 C380 1.499 . S
C378 H352 0.950 . S
C378 C377 1.414 . S
C378 C379 1.374 . S
C379 H353 0.950 . S
C379 C375 1.385 . S
C379 C378 1.374 . S
C380 C377 1.499 . S
C380 C381 1.373 . S
C380 C382 1.389 . S
C381 H354 0.950 . S
C381 C367 1.377 . S
C381 C380 1.373 . S
C382 C366 1.377 . S
C382 C380 1.389 . S
C382 C383 1.524 . S
C383 C382 1.524 . S
C383 C384 1.397 . S
C383 C388 1.363 . S
C384 H355 0.950 . S
C384 C383 1.397 . S
C384 C385 1.334 . S
C385 H356 0.950 . S
C385 C384 1.334 . S
C385 C386 1.287 . S
C386 C385 1.287 . S
C386 C387 1.524 . S
C386 H389 0.999 . S
C387 H357 0.950 . S
C387 C386 1.524 . S
C387 C388 1.415 . S
C388 H358 0.950 . S
C388 C383 1.363 . S
C388 C387 1.415 . S
H389 C386 0.999 . S
H390 C371 0.913 . S
H391 C409 0.951 . S
H392 C411 0.951 . S
H393 C413 0.950 . S
H394 C414 0.950 . S
H395 C416 0.950 . S
H396 C419 0.950 . S
H397 C420 0.950 . S
H398 C422 0.950 . S
H399 C423 0.950 . S
H400 C424 0.951 . S
H401 C426 0.951 . S
H402 C428 0.950 . S
H403 C429 0.950 . S
H404 C431 0.950 . S
H405 C434 0.950 . S
H406 C435 0.950 . S
H407 C437 0.950 . S
H408 C438 0.950 . S
C409 H391 0.951 . S
C409 C410 1.366 . S
C409 C411 1.388 . S
C410 C409 1.366 . S
C410 C414 1.385 . S
C411 H392 0.951 . S
C411 C409 1.388 . S
C411 C412 1.366 . S
C412 C411 1.366 . S
C412 C413 1.414 . S
C412 C415 1.499 . S
C413 H393 0.950 . S
C413 C412 1.414 . S
C413 C414 1.374 . S
C414 H394 0.950 . S
C414 C410 1.385 . S
C414 C413 1.374 . S
C415 C412 1.499 . S
C415 C416 1.373 . S
C415 C417 1.389 . S
C416 H395 0.950 . S
C416 C415 1.373 . S
C416 C432 1.377 . S
C417 C415 1.389 . S
C417 C418 1.524 . S
C417 C431 1.377 . S
C418 C417 1.524 . S
C418 C419 1.397 . S
C418 C423 1.363 . S
C419 H396 0.950 . S
C419 C418 1.397 . S
C419 C420 1.334 . S
C420 H397 0.950 . S
C420 C419 1.334 . S
C420 C421 1.287 . S
C421 C420 1.287 . S
C421 C422 1.524 . S
C421 H440 0.913 . S
C422 H398 0.950 . S
C422 C421 1.524 . S
C422 C423 1.415 . S
C423 H399 0.950 . S
C423 C418 1.363 . S
C423 C422 1.415 . S
C424 H400 0.951 . S
C424 C425 1.366 . S
C424 C426 1.388 . S
C425 C424 1.366 . S
C425 C429 1.385 . S
C426 H401 0.951 . S
C426 C424 1.388 . S
C426 C427 1.366 . S
C427 C426 1.366 . S
C427 C428 1.414 . S
C427 C430 1.499 . S
C428 H402 0.950 . S
C428 C427 1.414 . S
C428 C429 1.374 . S
C429 H403 0.950 . S
C429 C425 1.385 . S
C429 C428 1.374 . S
C430 C427 1.499 . S
C430 C431 1.373 . S
C430 C432 1.389 . S
C431 H404 0.950 . S
C431 C417 1.377 . S
C431 C430 1.373 . S
C432 C416 1.377 . S
C432 C430 1.389 . S
C432 C433 1.524 . S
C433 C432 1.524 . S
C433 C434 1.397 . S
C433 C438 1.363 . S
C434 H405 0.950 . S
C434 C433 1.397 . S
C434 C435 1.334 . S
C435 H406 0.950 . S
C435 C434 1.334 . S
C435 C436 1.287 . S
C436 C435 1.287 . S
C436 C437 1.524 . S
C436 H439 0.999 . S
C437 H407 0.950 . S
C437 C436 1.524 . S
C437 C438 1.415 . S
C438 H408 0.950 . S
C438 C433 1.363 . S
C438 C437 1.415 . S
H439 C436 0.999 . S
H440 C421 0.913 . S
H441 C459 0.951 . S
H442 C461 0.951 . S
H443 C463 0.950 . S
H444 C464 0.950 . S
H445 C466 0.950 . S
H446 C469 0.950 . S
H447 C470 0.950 . S
H448 C472 0.950 . S
H449 C473 0.950 . S
H450 C474 0.951 . S
H451 C476 0.951 . S
H452 C478 0.950 . S
H453 C479 0.950 . S
H454 C481 0.950 . S
H455 C484 0.950 . S
H456 C485 0.950 . S
H457 C487 0.950 . S
H458 C488 0.950 . S
C459 H441 0.951 . S
C459 C460 1.366 . S
C459 C461 1.388 . S
C460 C459 1.366 . S
C460 C464 1.385 . S
C461 H442 0.951 . S
C461 C459 1.388 . S
C461 C462 1.366 . S
C462 C461 1.366 . S
C462 C463 1.414 . S
C462 C465 1.499 . S
C463 H443 0.950 . S
C463 C462 1.414 . S
C463 C464 1.374 . S
C464 H444 0.950 . S
C464 C460 1.385 . S
C464 C463 1.374 . S
C465 C462 1.499 . S
C465 C466 1.373 . S
C465 C467 1.389 . S
C466 H445 0.950 . S
C466 C465 1.373 . S
C466 C482 1.377 . S
C467 C465 1.389 . S
C467 C468 1.524 . S
C467 C481 1.377 . S
C468 C467 1.524 . S
C468 C469 1.397 . S
C468 C473 1.363 . S
C469 H446 0.950 . S
C469 C468 1.397 . S
C469 C470 1.334 . S
C470 H447 0.950 . S
C470 C469 1.334 . S
C470 C471 1.287 . S
C471 C470 1.287 . S
C471 C472 1.524 . S
C471 H490 0.913 . S
C472 H448 0.950 . S
C472 C471 1.524 . S
C472 C473 1.415 . S
C473 H449 0.950 . S
C473 C468 1.363 . S
C473 C472 1.415 . S
C474 H450 0.951 . S
C474 C475 1.366 . S
C474 C476 1.388 . S
C475 C474 1.366 . S
C475 C479 1.385 . S
C476 H451 0.951 . S
C476 C474 1.388 . S
C476 C477 1.366 . S
C477 C476 1.366 . S
C477 C478 1.414 . S
C477 C480 1.499 . S
C478 H452 0.950 . S
C478 C477 1.414 . S
C478 C479 1.374 . S
C479 H453 0.950 . S
C479 C475 1.385 . S
C479 C478 1.374 . S
C480 C477 1.499 . S
C480 C481 1.373 . S
C480 C482 1.389 . S
C481 H454 0.950 . S
C481 C467 1.377 . S
C481 C480 1.373 . S
C482 C466 1.377 . S
C482 C480 1.389 . S
C482 C483 1.524 . S
C483 C482 1.524 . S
C483 C484 1.397 . S
C483 C488 1.363 . S
C484 H455 0.950 . S
C484 C483 1.397 . S
C484 C485 1.334 . S
C485 H456 0.950 . S
C485 C484 1.334 . S
C485 C486 1.287 . S
C486 C485 1.287 . S
C486 C487 1.524 . S
C486 H489 0.999 . S
C487 H457 0.950 . S
C487 C486 1.524 . S
C487 C488 1.415 . S
C488 H458 0.950 . S
C488 C483 1.363 . S
C488 C487 1.415 . S
H489 C486 0.999 . S
H490 C471 0.913 . S
H491 C509 0.951 . S
H492 C511 0.951 . S
H493 C513 0.950 . S
H494 C514 0.950 . S
H495 C516 0.950 . S
H496 C519 0.950 . S
H497 C520 0.950 . S
H498 C522 0.950 . S
H499 C523 0.950 . S
H500 C524 0.951 . S
H501 C526 0.951 . S
H502 C528 0.950 . S
H503 C529 0.950 . S
H504 C531 0.950 . S
H505 C534 0.950 . S
H506 C535 0.950 . S
H507 C537 0.950 . S
H508 C538 0.950 . S
C509 H491 0.951 . S
C509 C510 1.366 . S
C509 C511 1.388 . S
C510 C509 1.366 . S
C510 C514 1.385 . S
C511 H492 0.951 . S
C511 C509 1.388 . S
C511 C512 1.366 . S
C512 C511 1.366 . S
C512 C513 1.414 . S
C512 C515 1.499 . S
C513 H493 0.950 . S
C513 C512 1.414 . S
C513 C514 1.374 . S
C514 H494 0.950 . S
C514 C510 1.385 . S
C514 C513 1.374 . S
C515 C512 1.499 . S
C515 C516 1.373 . S
C515 C517 1.389 . S
C516 H495 0.950 . S
C516 C515 1.373 . S
C516 C532 1.377 . S
C517 C515 1.389 . S
C517 C518 1.524 . S
C517 C531 1.377 . S
C518 C517 1.524 . S
C518 C519 1.397 . S
C518 C523 1.363 . S
C519 H496 0.950 . S
C519 C518 1.397 . S
C519 C520 1.334 . S
C520 H497 0.950 . S
C520 C519 1.334 . S
C520 C521 1.287 . S
C521 C520 1.287 . S
C521 C522 1.524 . S
C521 H540 0.913 . S
C522 H498 0.950 . S
C522 C521 1.524 . S
C522 C523 1.415 . S
C523 H499 0.950 . S
C523 C518 1.363 . S
C523 C522 1.415 . S
C524 H500 0.951 . S
C524 C525 1.366 . S
C524 C526 1.388 . S
C525 C524 1.366 . S
C525 C529 1.385 . S
C526 H501 0.951 . S
C526 C524 1.388 . S
C526 C527 1.366 . S
C527 C526 1.366 . S
C527 C528 1.414 . S
C527 C530 1.499 . S
C528 H502 0.950 . S
C528 C527 1.414 . S
C528 C529 1.374 . S
C529 H503 0.950 . S
C529 C525 1.385 . S
C529 C528 1.374 . S
C530 C527 1.499 . S
C530 C531 1.373 . S
C530 C532 1.389 . S
C531 H504 0.950 . S
C531 C517 1.377 . S
C531 C530 1.373 . S
C532 C516 1.377 . S
C532 C530 1.389 . S
C532 C533 1.524 . S
C533 C532 1.524 . S
C533 C534 1.397 . S
C533 C538 1.363 . S
C534 H505 0.950 . S
C534 C533 1.397 . S
C534 C535 1.334 . S
C535 H506 0.950 . S
C535 C534 1.334 . S
C535 C536 1.287 . S
C536 C535 1.287 . S
C536 C537 1.524 . S
C536 H539 0.999 . S
C537 H507 0.950 . S
C537 C536 1.524 . S
C537 C538 1.415 . S
C538 H508 0.950 . S
C538 C533 1.363 . S
C538 C537 1.415 . S
H539 C536 0.999 . S
H540 C521 0.913 . S
H541 C559 0.951 . S
H542 C561 0.951 . S
H543 C563 0.950 . S
H544 C564 0.950 . S
H545 C566 0.950 . S
H546 C569 0.950 . S
H547 C570 0.950 . S
H548 C572 0.950 . S
H549 C573 0.950 . S
H550 C574 0.960 . S
H551 C576 0.951 . S
H552 C578 0.950 . S
H553 C579 0.950 . S
H554 C581 0.950 . S
H555 C584 0.950 . S
H556 C585 0.950 . S
H557 C587 0.950 . S
H558 C588 0.950 . S
C559 H541 0.951 . S
C559 C560 1.366 . S
C559 C561 1.388 . S
C560 C559 1.366 . S
C560 C564 1.385 . S
C561 H542 0.951 . S
C561 C559 1.388 . S
C561 C562 1.366 . S
C562 C561 1.366 . S
C562 C563 1.414 . S
C562 C565 1.499 . S
C563 H543 0.950 . S
C563 C562 1.414 . S
C563 C564 1.374 . S
C564 H544 0.950 . S
C564 C560 1.385 . S
C564 C563 1.374 . S
C565 C562 1.499 . S
C565 C566 1.373 . S
C565 C567 1.389 . S
C566 H545 0.950 . S
C566 C565 1.373 . S
C566 C582 1.377 . S
C567 C565 1.389 . S
C567 C568 1.524 . S
C567 C581 1.377 . S
C568 C567 1.524 . S
C568 C569 1.397 . S
C568 C573 1.363 . S
C569 H546 0.950 . S
C569 C568 1.397 . S
C569 C570 1.334 . S
C570 H547 0.950 . S
C570 C569 1.334 . S
C570 C571 1.287 . S
C571 C570 1.287 . S
C571 C572 1.524 . S
C571 H590 0.913 . S
C572 H548 0.950 . S
C572 C571 1.524 . S
C572 C573 1.415 . S
C573 H549 0.950 . S
C573 C568 1.363 . S
C573 C572 1.415 . S
C574 H550 0.960 . S
C574 C575 1.366 . S
C574 C576 1.388 . S
C575 C574 1.366 . S
C575 C579 1.385 . S
C576 H551 0.951 . S
C576 C574 1.388 . S
C576 C577 1.366 . S
C577 C576 1.366 . S
C577 C578 1.414 . S
C577 C580 1.499 . S
C578 H552 0.950 . S
C578 C577 1.414 . S
C578 C579 1.374 . S
C579 H553 0.950 . S
C579 C575 1.385 . S
C579 C578 1.374 . S
C580 C577 1.499 . S
C580 C581 1.373 . S
C580 C582 1.389 . S
C581 H554 0.950 . S
C581 C567 1.377 . S
C581 C580 1.373 . S
C582 C566 1.377 . S
C582 C580 1.389 . S
C582 C583 1.524 . S
C583 C582 1.524 . S
C583 C584 1.397 . S
C583 C588 1.363 . S
C584 H555 0.950 . S
C584 C583 1.397 . S
C584 C585 1.334 1_565 S
C585 H556 0.950 . S
C585 C584 1.334 1_545 S
C585 C586 1.287 . S
C586 C585 1.287 . S
C586 C587 1.524 1_545 S
C586 H589 0.999 . S
C587 H557 0.950 . S
C587 C586 1.524 1_565 S
C587 C588 1.415 . S
C588 H558 0.950 . S
C588 C583 1.363 . S
C588 C587 1.415 . S
H589 C586 0.999 . S
H590 C571 0.913 . S
H591 C609 0.951 . S
H592 C611 0.951 . S
H593 C613 0.950 . S
H594 C614 0.950 . S
H595 C616 0.950 . S
H596 C619 0.950 . S
H597 C620 0.950 . S
H598 C622 0.950 . S
H599 C623 0.950 . S
H600 C624 0.951 . S
H601 C626 0.951 . S
H602 C628 0.950 . S
H603 C629 0.950 . S
H604 C631 0.950 . S
H605 C634 0.950 . S
H606 C635 0.950 . S
H607 C637 0.950 . S
H608 C638 0.950 . S
C609 H591 0.951 . S
C609 C610 1.366 . S
C609 C611 1.388 . S
C610 C609 1.366 . S
C610 C614 1.385 . S
C611 H592 0.951 . S
C611 C609 1.388 . S
C611 C612 1.366 . S
C612 C611 1.366 . S
C612 C613 1.414 . S
C612 C615 1.499 . S
C613 H593 0.950 . S
C613 C612 1.414 . S
C613 C614 1.374 . S
C614 H594 0.950 . S
C614 C610 1.385 . S
C614 C613 1.374 . S
C615 C612 1.499 . S
C615 C616 1.373 . S
C615 C617 1.389 . S
C616 H595 0.950 . S
C616 C615 1.373 . S
C616 C632 1.377 . S
C617 C615 1.389 . S
C617 C618 1.524 . S
C617 C631 1.377 . S
C618 C617 1.524 . S
C618 C619 1.397 . S
C618 C623 1.363 . S
C619 H596 0.950 . S
C619 C618 1.397 . S
C619 C620 1.334 . S
C620 H597 0.950 . S
C620 C619 1.334 . S
C620 C621 1.287 . S
C621 C620 1.287 . S
C621 C622 1.524 . S
C621 H640 0.913 . S
C622 H598 0.950 . S
C622 C621 1.524 . S
C622 C623 1.415 . S
C623 H599 0.950 . S
C623 C618 1.363 . S
C623 C622 1.415 . S
C624 H600 0.951 . S
C624 C625 1.366 . S
C624 C626 1.388 . S
C625 C624 1.366 . S
C625 C629 1.385 . S
C626 H601 0.951 . S
C626 C624 1.388 . S
C626 C627 1.366 . S
C627 C626 1.366 . S
C627 C628 1.414 . S
C627 C630 1.499 . S
C628 H602 0.950 . S
C628 C627 1.414 . S
C628 C629 1.374 . S
C629 H603 0.950 . S
C629 C625 1.385 . S
C629 C628 1.374 . S
C630 C627 1.499 . S
C630 C631 1.373 . S
C630 C632 1.389 . S
C631 H604 0.950 . S
C631 C617 1.377 . S
C631 C630 1.373 . S
C632 C616 1.377 . S
C632 C630 1.389 . S
C632 C633 1.524 . S
C633 C632 1.524 . S
C633 C634 1.397 . S
C633 C638 1.363 . S
C634 H605 0.950 . S
C634 C633 1.397 . S
C634 C635 1.334 . S
C635 H606 0.950 . S
C635 C634 1.334 . S
C635 C636 1.287 . S
C636 C635 1.287 . S
C636 C637 1.524 . S
C636 H639 0.999 . S
C637 H607 0.950 . S
C637 C636 1.524 . S
C637 C638 1.415 . S
C638 H608 0.950 . S
C638 C633 1.363 . S
C638 C637 1.415 . S
H639 C636 0.999 . S
H640 C621 0.913 . S
H641 C659 0.951 . S
H642 C661 0.951 . S
H643 C663 0.950 . S
H644 C664 0.950 . S
H645 C666 0.950 . S
H646 C669 0.950 . S
H647 C670 0.950 . S
H648 C672 0.950 . S
H649 C673 0.950 . S
H650 C674 0.951 . S
H651 C676 0.951 . S
H652 C678 0.950 . S
H653 C679 0.950 . S
H654 C681 0.950 . S
H655 C684 0.950 . S
H656 C685 0.950 . S
H657 C687 0.950 . S
H658 C688 0.950 . S
C659 H641 0.951 . S
C659 C660 1.366 . S
C659 C661 1.388 . S
C660 C659 1.366 . S
C660 C664 1.385 . S
C661 H642 0.951 . S
C661 C659 1.388 . S
C661 C662 1.366 . S
C662 C661 1.366 . S
C662 C663 1.414 . S
C662 C665 1.499 . S
C663 H643 0.950 . S
C663 C662 1.414 . S
C663 C664 1.374 . S
C664 H644 0.950 . S
C664 C660 1.385 . S
C664 C663 1.374 . S
C665 C662 1.499 . S
C665 C666 1.373 . S
C665 C667 1.389 . S
C666 H645 0.950 . S
C666 C665 1.373 . S
C666 C682 1.377 . S
C667 C665 1.389 . S
C667 C668 1.524 . S
C667 C681 1.377 . S
C668 C667 1.524 . S
C668 C669 1.397 . S
C668 C673 1.363 . S
C669 H646 0.950 . S
C669 C668 1.397 . S
C669 C670 1.334 . S
C670 H647 0.950 . S
C670 C669 1.334 . S
C670 C671 1.287 . S
C671 C670 1.287 . S
C671 C672 1.524 . S
C671 H690 0.913 . S
C672 H648 0.950 . S
C672 C671 1.524 . S
C672 C673 1.415 . S
C673 H649 0.950 . S
C673 C668 1.363 . S
C673 C672 1.415 . S
C674 H650 0.951 . S
C674 C675 1.366 . S
C674 C676 1.388 . S
C675 C674 1.366 . S
C675 C679 1.385 . S
C676 H651 0.951 . S
C676 C674 1.388 . S
C676 C677 1.366 . S
C677 C676 1.366 . S
C677 C678 1.414 . S
C677 C680 1.499 . S
C678 H652 0.950 . S
C678 C677 1.414 . S
C678 C679 1.374 . S
C679 H653 0.950 . S
C679 C675 1.385 . S
C679 C678 1.374 . S
C680 C677 1.499 . S
C680 C681 1.373 . S
C680 C682 1.389 . S
C681 H654 0.950 . S
C681 C667 1.377 . S
C681 C680 1.373 . S
C682 C666 1.377 . S
C682 C680 1.389 . S
C682 C683 1.524 . S
C683 C682 1.524 . S
C683 C684 1.397 . S
C683 C688 1.363 . S
C684 H655 0.950 . S
C684 C683 1.397 . S
C684 C685 1.334 . S
C685 H656 0.950 . S
C685 C684 1.334 . S
C685 C686 1.287 . S
C686 C685 1.287 . S
C686 C687 1.524 . S
C686 H689 0.999 . S
C687 H657 0.950 . S
C687 C686 1.524 . S
C687 C688 1.415 . S
C688 H658 0.950 . S
C688 C683 1.363 . S
C688 C687 1.415 . S
H689 C686 0.999 . S
H690 C671 0.913 . S
H691 C709 0.951 . S
H692 C711 0.951 . S
H693 C713 0.950 . S
H694 C714 0.950 . S
H695 C716 0.950 . S
H696 C719 0.950 . S
H697 C720 0.950 . S
H698 C722 0.950 . S
H699 C723 0.950 . S
H700 C724 0.951 . S
H701 C726 0.951 . S
H702 C728 0.950 . S
H703 C729 0.950 . S
H704 C731 0.950 . S
H705 C734 0.950 . S
H706 C735 0.950 . S
H707 C737 0.950 . S
H708 C738 0.950 . S
C709 H691 0.951 . S
C709 C710 1.366 . S
C709 C711 1.388 . S
C710 C709 1.366 . S
C710 C714 1.385 . S
C711 H692 0.951 . S
C711 C709 1.388 . S
C711 C712 1.366 . S
C712 C711 1.366 . S
C712 C713 1.414 . S
C712 C715 1.499 . S
C713 H693 0.950 . S
C713 C712 1.414 . S
C713 C714 1.374 . S
C714 H694 0.950 . S
C714 C710 1.385 . S
C714 C713 1.374 . S
C715 C712 1.499 . S
C715 C716 1.373 . S
C715 C717 1.389 . S
C716 H695 0.950 . S
C716 C715 1.373 . S
C716 C732 1.377 . S
C717 C715 1.389 . S
C717 C718 1.524 . S
C717 C731 1.377 . S
C718 C717 1.524 . S
C718 C719 1.397 . S
C718 C723 1.363 . S
C719 H696 0.950 . S
C719 C718 1.397 . S
C719 C720 1.334 . S
C720 H697 0.950 . S
C720 C719 1.334 . S
C720 C721 1.287 . S
C721 C720 1.287 . S
C721 C722 1.524 . S
C721 H740 0.913 . S
C722 H698 0.950 . S
C722 C721 1.524 . S
C722 C723 1.415 . S
C723 H699 0.950 . S
C723 C718 1.363 . S
C723 C722 1.415 . S
C724 H700 0.951 . S
C724 C725 1.366 . S
C724 C726 1.388 . S
C725 C724 1.366 . S
C725 C729 1.385 . S
C726 H701 0.951 . S
C726 C724 1.388 . S
C726 C727 1.366 . S
C727 C726 1.366 . S
C727 C728 1.414 . S
C727 C730 1.499 . S
C728 H702 0.950 . S
C728 C727 1.414 . S
C728 C729 1.374 . S
C729 H703 0.950 . S
C729 C725 1.385 . S
C729 C728 1.374 . S
C730 C727 1.499 . S
C730 C731 1.373 . S
C730 C732 1.389 . S
C731 H704 0.950 . S
C731 C717 1.377 . S
C731 C730 1.373 . S
C732 C716 1.377 . S
C732 C730 1.389 . S
C732 C733 1.524 . S
C733 C732 1.524 . S
C733 C734 1.397 . S
C733 C738 1.363 . S
C734 H705 0.950 . S
C734 C733 1.397 . S
C734 C735 1.334 . S
C735 H706 0.950 . S
C735 C734 1.334 . S
C735 C736 1.287 . S
C736 C735 1.287 . S
C736 C737 1.524 . S
C736 H739 0.999 . S
C737 H707 0.950 . S
C737 C736 1.524 . S
C737 C738 1.415 . S
C738 H708 0.950 . S
C738 C733 1.363 . S
C738 C737 1.415 . S
H739 C736 0.999 . S
H740 C721 0.913 . S
H741 C759 0.951 . S
H742 C761 0.951 . S
H743 C763 0.950 . S
H744 C764 0.950 . S
H745 C766 0.950 . S
H746 C769 0.950 . S
H747 C770 0.950 . S
H748 C772 0.950 . S
H749 C773 0.950 . S
H750 C774 0.951 . S
H751 C776 0.951 . S
H752 C778 0.950 . S
H753 C779 0.950 . S
H754 C781 0.950 . S
H755 C784 0.950 . S
H756 C785 0.950 . S
H757 C787 0.957 . S
H758 C788 0.950 . S
C759 H741 0.951 . S
C759 C760 1.366 . S
C759 C761 1.388 . S
C760 C759 1.366 . S
C760 C764 1.385 . S
C761 H742 0.951 . S
C761 C759 1.388 . S
C761 C762 1.366 . S
C762 C761 1.366 . S
C762 C763 1.414 . S
C762 C765 1.499 . S
C763 H743 0.950 . S
C763 C762 1.414 . S
C763 C764 1.374 . S
C764 H744 0.950 . S
C764 C760 1.385 . S
C764 C763 1.374 . S
C765 C762 1.499 . S
C765 C766 1.373 . S
C765 C767 1.389 . S
C766 H745 0.950 . S
C766 C765 1.373 . S
C766 C782 1.377 . S
C767 C765 1.389 . S
C767 C768 1.524 . S
C767 C781 1.377 . S
C768 C767 1.524 . S
C768 C769 1.397 . S
C768 C773 1.363 . S
C769 H746 0.950 . S
C769 C768 1.397 . S
C769 C770 1.334 . S
C770 H747 0.950 . S
C770 C769 1.334 . S
C770 C771 1.287 . S
C771 C770 1.287 . S
C771 C772 1.524 . S
C771 H790 0.913 . S
C772 H748 0.950 . S
C772 C771 1.524 . S
C772 C773 1.415 . S
C773 H749 0.950 . S
C773 C768 1.363 . S
C773 C772 1.415 . S
C774 H750 0.951 . S
C774 C775 1.366 . S
C774 C776 1.388 . S
C775 C774 1.366 . S
C775 C779 1.385 . S
C776 H751 0.951 . S
C776 C774 1.388 . S
C776 C777 1.366 . S
C777 C776 1.366 . S
C777 C778 1.414 . S
C777 C780 1.446 1_556 S
C778 H752 0.950 . S
C778 C777 1.414 . S
C778 C779 1.374 . S
C779 H753 0.950 . S
C779 C775 1.385 . S
C779 C778 1.374 . S
C780 C777 1.446 1_554 S
C780 C781 1.401 . S
C780 C782 1.417 . S
C781 H754 0.950 . S
C781 C767 1.377 . S
C781 C780 1.401 . S
C782 C766 1.377 . S
C782 C780 1.417 . S
C782 C783 1.524 . S
C783 C782 1.524 . S
C783 C784 1.397 1_454 S
C783 C788 1.363 . S
C784 H755 0.950 . S
C784 C783 1.397 1_656 S
C784 C785 1.334 . S
C785 H756 0.950 . S
C785 C784 1.334 . S
C785 C786 1.287 . S
C786 C785 1.287 . S
C786 C787 1.495 1_656 S
C786 H789 0.999 . S
C787 H757 0.957 . S
C787 C786 1.495 1_454 S
C787 C788 1.440 . S
C788 H758 0.950 . S
C788 C783 1.363 . S
C788 C787 1.440 . S
H789 C786 0.999 . S
H790 C771 0.913 . S
H791 C809 0.951 . S
H792 C811 0.951 . S
H793 C813 0.950 1_565 S
H794 C814 0.950 1_565 S
H795 C816 0.950 . S
H796 C819 0.950 . S
H797 C820 0.950 . S
H798 C822 0.950 . S
H799 C823 0.950 . S
H800 C824 0.951 . S
H801 C826 0.951 . S
H802 C828 0.950 . S
H803 C829 0.950 . S
H804 C831 0.950 . S
H805 C834 0.950 . S
H806 C835 0.950 . S
H807 C837 0.934 1_565 S
H808 C838 0.950 1_565 S
C809 H791 0.951 . S
C809 C810 1.366 . S
C809 C811 1.388 . S
C810 C809 1.366 . S
C810 C814 1.385 . S
C811 H792 0.951 . S
C811 C809 1.388 . S
C811 C812 1.366 . S
C812 C811 1.366 . S
C812 C813 1.414 . S
C812 C815 1.499 . S
C813 H793 0.950 1_545 S
C813 C812 1.414 . S
C813 C814 1.374 . S
C814 H794 0.950 1_545 S
C814 C810 1.385 . S
C814 C813 1.374 . S
C815 C812 1.499 . S
C815 C816 1.373 . S
C815 C817 1.389 . S
C816 H795 0.950 . S
C816 C815 1.373 . S
C816 C832 1.377 . S
C817 C815 1.389 . S
C817 C818 1.524 . S
C817 C831 1.377 . S
C818 C817 1.524 . S
C818 C819 1.397 . S
C818 C823 1.363 . S
C819 H796 0.950 . S
C819 C818 1.397 . S
C819 C820 1.334 . S
C820 H797 0.950 . S
C820 C819 1.334 . S
C820 C821 1.287 . S
C821 C820 1.287 . S
C821 C822 1.524 . S
C821 H840 0.913 . S
C822 H798 0.950 . S
C822 C821 1.524 . S
C822 C823 1.415 . S
C823 H799 0.950 . S
C823 C818 1.363 . S
C823 C822 1.415 . S
C824 H800 0.951 . S
C824 C825 1.366 . S
C824 C826 1.388 . S
C825 C824 1.366 . S
C825 C829 1.385 . S
C826 H801 0.951 . S
C826 C824 1.388 . S
C826 C827 1.366 . S
C827 C826 1.366 . S
C827 C828 1.414 . S
C827 C830 1.499 . S
C828 H802 0.950 . S
C828 C827 1.414 . S
C828 C829 1.374 . S
C829 H803 0.950 . S
C829 C825 1.385 . S
C829 C828 1.374 . S
C830 C827 1.499 . S
C830 C831 1.373 . S
C830 C832 1.389 . S
C831 H804 0.950 . S
C831 C817 1.377 . S
C831 C830 1.373 . S
C832 C816 1.377 . S
C832 C830 1.389 . S
C832 C833 1.524 . S
C833 C832 1.524 . S
C833 C834 1.397 . S
C833 C838 1.363 . S
C834 H805 0.950 . S
C834 C833 1.397 . S
C834 C835 1.334 . S
C835 H806 0.950 . S
C835 C834 1.334 . S
C835 C836 1.287 . S
C836 C835 1.287 . S
C836 C837 1.533 . S
C836 H839 0.999 . S
C837 H807 0.934 1_545 S
C837 C836 1.533 . S
C837 C838 1.424 . S
C838 H808 0.950 1_545 S
C838 C833 1.363 . S
C838 C837 1.424 . S
H839 C836 0.999 . S
H840 C821 0.913 . S
H841 C859 0.951 . S
H842 C861 0.951 . S
H843 C863 0.950 . S
H844 C864 0.950 . S
H845 C866 0.950 . S
H846 C869 0.950 . S
H847 C870 0.950 . S
H848 C872 0.950 . S
H849 C873 0.950 . S
H850 C874 0.951 . S
H851 C876 0.951 . S
H852 C878 0.950 . S
H853 C879 0.950 . S
H854 C881 0.950 . S
H855 C884 0.950 . S
H856 C885 0.950 . S
H857 C887 0.950 . S
H858 C888 0.950 . S
C859 H841 0.951 . S
C859 C860 1.366 . S
C859 C861 1.388 . S
C860 C859 1.366 . S
C860 C864 1.385 . S
C861 H842 0.951 . S
C861 C859 1.388 . S
C861 C862 1.366 . S
C862 C861 1.366 . S
C862 C863 1.414 . S
C862 C865 1.499 . S
C863 H843 0.950 . S
C863 C862 1.414 . S
C863 C864 1.374 . S
C864 H844 0.950 . S
C864 C860 1.385 . S
C864 C863 1.374 . S
C865 C862 1.499 . S
C865 C866 1.373 . S
C865 C867 1.389 . S
C866 H845 0.950 . S
C866 C865 1.373 . S
C866 C882 1.377 . S
C867 C865 1.389 . S
C867 C868 1.524 . S
C867 C881 1.377 . S
C868 C867 1.524 . S
C868 C869 1.397 . S
C868 C873 1.363 . S
C869 H846 0.950 . S
C869 C868 1.397 . S
C869 C870 1.334 . S
C870 H847 0.950 . S
C870 C869 1.334 . S
C870 C871 1.287 . S
C871 C870 1.287 . S
C871 C872 1.524 . S
C871 H890 0.913 . S
C872 H848 0.950 . S
C872 C871 1.524 . S
C872 C873 1.415 . S
C873 H849 0.950 . S
C873 C868 1.363 . S
C873 C872 1.415 . S
C874 H850 0.951 . S
C874 C875 1.366 . S
C874 C876 1.388 . S
C875 C874 1.366 . S
C875 C879 1.385 . S
C876 H851 0.951 . S
C876 C874 1.388 . S
C876 C877 1.366 . S
C877 C876 1.366 . S
C877 C878 1.414 . S
C877 C880 1.499 . S
C878 H852 0.950 . S
C878 C877 1.414 . S
C878 C879 1.374 . S
C879 H853 0.950 . S
C879 C875 1.385 . S
C879 C878 1.374 . S
C880 C877 1.499 . S
C880 C881 1.373 . S
C880 C882 1.389 . S
C881 H854 0.950 . S
C881 C867 1.377 . S
C881 C880 1.373 . S
C882 C866 1.377 . S
C882 C880 1.389 . S
C882 C883 1.524 . S
C883 C882 1.524 . S
C883 C884 1.397 . S
C883 C888 1.363 . S
C884 H855 0.950 . S
C884 C883 1.397 . S
C884 C885 1.334 . S
C885 H856 0.950 . S
C885 C884 1.334 . S
C885 C886 1.287 . S
C886 C885 1.287 . S
C886 C887 1.524 . S
C886 H889 0.999 . S
C887 H857 0.950 . S
C887 C886 1.524 . S
C887 C888 1.415 . S
C888 H858 0.950 . S
C888 C883 1.363 . S
C888 C887 1.415 . S
H889 C886 0.999 . S
H890 C871 0.913 . S
H891 C909 0.951 . S
H892 C911 0.951 . S
H893 C913 0.950 . S
H894 C914 0.950 . S
H895 C916 0.954 . S
H896 C919 0.950 . S
H897 C920 0.950 . S
H898 C922 0.950 . S
H899 C923 0.950 . S
H900 C924 0.951 . S
H901 C926 0.951 . S
H902 C928 0.950 . S
H903 C929 0.950 . S
H904 C931 0.950 . S
H905 C934 0.950 . S
H906 C935 0.950 . S
H907 C937 0.950 . S
H908 C938 0.950 . S
C909 H891 0.951 . S
C909 C910 1.366 . S
C909 C911 1.388 . S
C910 C909 1.366 . S
C910 C914 1.385 . S
C911 H892 0.951 . S
C911 C909 1.388 . S
C911 C912 1.366 . S
C912 C911 1.366 . S
C912 C913 1.414 . S
C912 C915 1.499 . S
C913 H893 0.950 . S
C913 C912 1.414 . S
C913 C914 1.374 . S
C914 H894 0.950 . S
C914 C910 1.385 . S
C914 C913 1.374 . S
C915 C912 1.499 . S
C915 C916 1.373 . S
C915 C917 1.389 . S
C916 H895 0.954 . S
C916 C915 1.373 . S
C916 C932 1.377 . S
C917 C915 1.389 . S
C917 C918 1.524 . S
C917 C931 1.377 . S
C918 C917 1.524 . S
C918 C919 1.397 . S
C918 C923 1.363 . S
C919 H896 0.950 . S
C919 C918 1.397 . S
C919 C920 1.334 . S
C920 H897 0.950 . S
C920 C919 1.334 . S
C920 C921 1.287 . S
C921 C920 1.287 . S
C921 C922 1.524 . S
C921 H940 0.913 . S
C922 H898 0.950 . S
C922 C921 1.524 . S
C922 C923 1.415 . S
C923 H899 0.950 . S
C923 C918 1.363 . S
C923 C922 1.415 . S
C924 H900 0.951 . S
C924 C925 1.366 . S
C924 C926 1.388 . S
C925 C924 1.366 . S
C925 C929 1.385 . S
C926 H901 0.951 . S
C926 C924 1.388 . S
C926 C927 1.366 . S
C927 C926 1.366 . S
C927 C928 1.414 . S
C927 C930 1.499 . S
C928 H902 0.950 . S
C928 C927 1.414 . S
C928 C929 1.374 . S
C929 H903 0.950 . S
C929 C925 1.385 . S
C929 C928 1.374 . S
C930 C927 1.499 . S
C930 C931 1.373 . S
C930 C932 1.389 . S
C931 H904 0.950 . S
C931 C917 1.377 . S
C931 C930 1.373 . S
C932 C916 1.377 . S
C932 C930 1.389 . S
C932 C933 1.524 1_545 S
C933 C932 1.524 1_565 S
C933 C934 1.397 . S
C933 C938 1.363 . S
C934 H905 0.950 . S
C934 C933 1.397 . S
C934 C935 1.334 . S
C935 H906 0.950 . S
C935 C934 1.334 . S
C935 C936 1.287 . S
C936 C935 1.287 . S
C936 C937 1.524 . S
C936 H939 0.999 . S
C937 H907 0.950 . S
C937 C936 1.524 . S
C937 C938 1.415 . S
C938 H908 0.950 . S
C938 C933 1.363 . S
C938 C937 1.415 . S
H939 C936 0.999 . S
H940 C921 0.913 . S
H941 C959 0.951 . S
H942 C961 0.951 . S
H943 C963 0.950 . S
H944 C964 0.950 . S
H945 C966 0.950 . S
H946 C969 0.950 . S
H947 C970 0.950 . S
H948 C972 0.950 . S
H949 C973 0.950 . S
H950 C974 0.951 . S
H951 C976 0.951 . S
H952 C978 0.950 . S
H953 C979 0.950 . S
H954 C981 0.950 . S
H955 C984 0.950 . S
H956 C985 0.950 . S
H957 C987 0.950 . S
H958 C988 0.950 . S
C959 H941 0.951 . S
C959 C960 1.366 . S
C959 C961 1.388 . S
C960 C959 1.366 . S
C960 C964 1.385 . S
C961 H942 0.951 . S
C961 C959 1.388 . S
C961 C962 1.366 . S
C962 C961 1.366 . S
C962 C963 1.414 . S
C962 C965 1.499 . S
C963 H943 0.950 . S
C963 C962 1.414 . S
C963 C964 1.374 . S
C964 H944 0.950 . S
C964 C960 1.385 . S
C964 C963 1.374 . S
C965 C962 1.499 . S
C965 C966 1.373 . S
C965 C967 1.389 . S
C966 H945 0.950 . S
C966 C965 1.373 . S
C966 C982 1.377 . S
C967 C965 1.389 . S
C967 C968 1.524 . S
C967 C981 1.377 . S
C968 C967 1.524 . S
C968 C969 1.397 . S
C968 C973 1.363 . S
C969 H946 0.950 . S
C969 C968 1.397 . S
C969 C970 1.334 . S
C970 H947 0.950 . S
C970 C969 1.334 . S
C970 C971 1.287 . S
C971 C970 1.287 . S
C971 C972 1.524 . S
C971 H990 0.913 . S
C972 H948 0.950 . S
C972 C971 1.524 . S
C972 C973 1.415 . S
C973 H949 0.950 . S
C973 C968 1.363 . S
C973 C972 1.415 . S
C974 H950 0.951 . S
C974 C975 1.366 . S
C974 C976 1.388 . S
C975 C974 1.366 . S
C975 C979 1.385 . S
C976 H951 0.951 . S
C976 C974 1.388 . S
C976 C977 1.366 . S
C977 C976 1.366 . S
C977 C978 1.414 . S
C977 C980 1.499 1_554 S
C978 H952 0.950 . S
C978 C977 1.414 . S
C978 C979 1.374 . S
C979 H953 0.950 . S
C979 C975 1.385 . S
C979 C978 1.374 . S
C980 C977 1.499 1_556 S
C980 C981 1.373 . S
C980 C982 1.389 . S
C981 H954 0.950 . S
C981 C967 1.377 . S
C981 C980 1.373 . S
C982 C966 1.377 . S
C982 C980 1.389 . S
C982 C983 1.524 . S
C983 C982 1.524 . S
C983 C984 1.397 1_556 S
C983 C988 1.363 . S
C984 H955 0.950 . S
C984 C983 1.397 1_554 S
C984 C985 1.334 . S
C985 H956 0.950 . S
C985 C984 1.334 . S
C985 C986 1.287 . S
C986 C985 1.287 . S
C986 C987 1.524 1_554 S
C986 H989 0.999 . S
C987 H957 0.950 . S
C987 C986 1.524 1_556 S
C987 C988 1.415 . S
C988 H958 0.950 . S
C988 C983 1.363 . S
C988 C987 1.415 . S
H989 C986 0.999 . S
H990 C971 0.913 . S
H991 C1009 0.951 . S
H992 C1011 0.951 . S
H993 C1013 0.950 . S
H994 C1014 0.950 . S
H995 C1016 0.950 . S
H996 C1019 0.950 . S
H997 C1020 0.950 . S
H998 C1022 0.957 . S
H999 C1023 0.950 1_655 S
H1000 C1024 0.951 . S
H1001 C1026 0.951 . S
H1002 C1028 0.950 1_655 S
H1003 C1029 0.948 . S
H1004 C1031 0.950 . S
H1005 C1034 0.950 1_655 S
H1006 C1035 0.958 . S
H1007 C1037 0.950 . S
H1008 C1038 0.950 . S
C1009 H991 0.951 . S
C1009 C1010 1.366 . S
C1009 C1011 1.388 . S
C1010 C1009 1.366 . S
C1010 C1014 1.385 . S
C1011 H992 0.951 . S
C1011 C1009 1.388 . S
C1011 C1012 1.366 . S
C1012 C1011 1.366 . S
C1012 C1013 1.414 . S
C1012 C1015 1.499 . S
C1013 H993 0.950 . S
C1013 C1012 1.414 . S
C1013 C1014 1.374 . S
C1014 H994 0.950 . S
C1014 C1010 1.385 . S
C1014 C1013 1.374 . S
C1015 C1012 1.499 . S
C1015 C1016 1.373 . S
C1015 C1017 1.389 . S
C1016 H995 0.950 . S
C1016 C1015 1.373 . S
C1016 C1032 1.377 . S
C1017 C1015 1.389 . S
C1017 C1018 1.524 . S
C1017 C1031 1.377 . S
C1018 C1017 1.524 . S
C1018 C1019 1.397 . S
C1018 C1023 1.363 . S
C1019 H996 0.950 . S
C1019 C1018 1.397 . S
C1019 C1020 1.334 . S
C1020 H997 0.950 . S
C1020 C1019 1.334 . S
C1020 C1021 1.287 . S
C1021 C1020 1.287 . S
C1021 C1022 1.524 . S
C1021 H1040 0.913 . S
C1022 H998 0.957 . S
C1022 C1021 1.524 . S
C1022 C1023 1.415 . S
C1023 H999 0.950 1_455 S
C1023 C1018 1.363 . S
C1023 C1022 1.415 . S
C1024 H1000 0.951 . S
C1024 C1025 1.366 . S
C1024 C1026 1.388 . S
C1025 C1024 1.366 . S
C1025 C1029 1.387 1_455 S
C1026 H1001 0.951 . S
C1026 C1024 1.388 . S
C1026 C1027 1.366 . S
C1027 C1026 1.366 . S
C1027 C1028 1.414 . S
C1027 C1030 1.499 . S
C1028 H1002 0.950 1_455 S
C1028 C1027 1.414 . S
C1028 C1029 1.374 1_455 S
C1029 H1003 0.948 . S
C1029 C1025 1.387 1_655 S
C1029 C1028 1.374 1_655 S
C1030 C1027 1.499 . S
C1030 C1031 1.373 . S
C1030 C1032 1.389 . S
C1031 H1004 0.950 . S
C1031 C1017 1.377 . S
C1031 C1030 1.373 . S
C1032 C1016 1.377 . S
C1032 C1030 1.389 . S
C1032 C1033 1.524 . S
C1033 C1032 1.524 . S
C1033 C1034 1.397 . S
C1033 C1038 1.363 . S
C1034 H1005 0.950 1_455 S
C1034 C1033 1.397 . S
C1034 C1035 1.339 1_455 S
C1035 H1006 0.958 . S
C1035 C1034 1.339 1_655 S
C1035 C1036 1.274 1_655 S
C1036 C1035 1.274 1_455 S
C1036 C1037 1.524 . S
C1036 H1039 0.999 . S
C1037 H1007 0.950 . S
C1037 C1036 1.524 . S
C1037 C1038 1.415 . S
C1038 H1008 0.950 . S
C1038 C1033 1.363 . S
C1038 C1037 1.415 . S
H1039 C1036 0.999 . S
H1040 C1021 0.913 . S
C160 C20 1.483 . S
C175 C135 1.514 . S
C210 C41 1.236 . S
C225 C109 1.217 . S
C260 C64 1.244 . S
C275 C121 1.223 . S
C310 C19 0.895 . S
C325 C133 0.905 . S
C375 C111 1.178 . S
C360 C44 1.170 . S
C425 C123 1.144 . S
C410 C67 1.140 . S
C460 C43 1.198 . S
C475 C85 1.204 . S
C510 C66 1.483 . S
C525 C99 1.536 . S
C560 C21 1.154 . S
C575 C75 1.159 1_565 S
C625 C87 1.198 . S
C610 C42 1.154 . S
C675 C97 0.907 . S
C660 C65 0.897 . S
C710 C18 1.235 . S
C725 C73 1.215 . S
C775 C102 1.518 . S
C760 C17 1.517 . S
C810 C39 1.534 . S
C825 C78 1.530 . S
C860 C62 1.536 . S
C875 C90 1.531 . S
C925 C126 1.515 . S
C910 C40 1.513 . S
C975 C138 1.517 . S
C960 C63 1.517 . S
C1010 C16 1.514 . S
C1025 C114 1.509 . S
