# Generated by pormake.
# Topology nom, (4,4)-cn, num edge types: 1
# Building blocks:
#     Node 0, Type 0, BuildingBlock: GIZVER_clean_linker_0, # of connection points: 4
#     Node 1, Type 0, BuildingBlock: GIZVER_clean_linker_0, # of connection points: 4
#     Node 2, Type 0, BuildingBlock: GIZVER_clean_linker_0, # of connection points: 4
#     Node 3, Type 0, BuildingBlock: GIZVER_clean_linker_0, # of connection points: 4
#     Node 4, Type 0, BuildingBlock: GIZVER_clean_linker_0, # of connection points: 4
#     Node 5, Type 0, BuildingBlock: GIZVER_clean_linker_0, # of connection points: 4
#     Node 6, Type 1, BuildingBlock: TATPOV_clean_sbu_0, # of connection points: 4
#     Node 7, Type 1, BuildingBlock: TATPOV_clean_sbu_0, # of connection points: 4
#     Node 8, Type 1, BuildingBlock: TATPOV_clean_sbu_0, # of connection points: 4
#     Node 9, Type 1, BuildingBlock: TATPOV_clean_sbu_0, # of connection points: 4
#     Node 10, Type 1, BuildingBlock: TATPOV_clean_sbu_0, # of connection points: 4
#     Node 11, Type 1, BuildingBlock: TATPOV_clean_sbu_0, # of connection points: 4
#     Edge 12, Type (0, 1), BuildingBlock: XUDNAN_clean_linker_2, # of connection points: 2
#     Edge 13, Type (0, 1), BuildingBlock: XUDNAN_clean_linker_2, # of connection points: 2
#     Edge 14, Type (0, 1), BuildingBlock: XUDNAN_clean_linker_2, # of connection points: 2
#     Edge 15, Type (0, 1), BuildingBlock: XUDNAN_clean_linker_2, # of connection points: 2
#     Edge 16, Type (0, 1), BuildingBlock: XUDNAN_clean_linker_2, # of connection points: 2
#     Edge 17, Type (0, 1), BuildingBlock: XUDNAN_clean_linker_2, # of connection points: 2
#     Edge 18, Type (0, 1), BuildingBlock: XUDNAN_clean_linker_2, # of connection points: 2
#     Edge 19, Type (0, 1), BuildingBlock: XUDNAN_clean_linker_2, # of connection points: 2
#     Edge 20, Type (0, 1), BuildingBlock: XUDNAN_clean_linker_2, # of connection points: 2
#     Edge 21, Type (0, 1), BuildingBlock: XUDNAN_clean_linker_2, # of connection points: 2
#     Edge 22, Type (0, 1), BuildingBlock: XUDNAN_clean_linker_2, # of connection points: 2
#     Edge 23, Type (0, 1), BuildingBlock: XUDNAN_clean_linker_2, # of connection points: 2
#     Edge 24, Type (0, 1), BuildingBlock: XUDNAN_clean_linker_2, # of connection points: 2
#     Edge 25, Type (0, 1), BuildingBlock: XUDNAN_clean_linker_2, # of connection points: 2
#     Edge 26, Type (0, 1), BuildingBlock: XUDNAN_clean_linker_2, # of connection points: 2
#     Edge 27, Type (0, 1), BuildingBlock: XUDNAN_clean_linker_2, # of connection points: 2
#     Edge 28, Type (0, 1), BuildingBlock: XUDNAN_clean_linker_2, # of connection points: 2
#     Edge 29, Type (0, 1), BuildingBlock: XUDNAN_clean_linker_2, # of connection points: 2
#     Edge 30, Type (0, 1), BuildingBlock: XUDNAN_clean_linker_2, # of connection points: 2
#     Edge 31, Type (0, 1), BuildingBlock: XUDNAN_clean_linker_2, # of connection points: 2
#     Edge 32, Type (0, 1), BuildingBlock: XUDNAN_clean_linker_2, # of connection points: 2
#     Edge 33, Type (0, 1), BuildingBlock: XUDNAN_clean_linker_2, # of connection points: 2
#     Edge 34, Type (0, 1), BuildingBlock: XUDNAN_clean_linker_2, # of connection points: 2
#     Edge 35, Type (0, 1), BuildingBlock: XUDNAN_clean_linker_2, # of connection points: 2
# Relax obj value: 0.020
# Max RMSD: 0.119
# Mean RMSD: 0.091
data_MOF--net-nom--node1-TATPOV_clean_sbu_0--node2-GIZVER_clean_linker_0--edge1-XUDNAN_clean_linker_2
_symmetry_space_group_name_H-M    P1
_symmetry_Int_Tables_number       1
_symmetry_cell_setting            triclinic
loop_
_symmetry_equiv_pos_as_xyz
'x, y, z'
_cell_length_a     46.033105
_cell_length_b     46.527768
_cell_length_c     46.159211
_cell_angle_alpha  90.720636
_cell_angle_beta   90.79239
_cell_angle_gamma 120.06501
loop_
_atom_site_label
_atom_site_type_symbol
_atom_site_fract_x
_atom_site_fract_y
_atom_site_fract_z
_atom_type_partial_charge
H0 H 0.99317 0.51242 0.3534 0.0
H1 H 0.98854 0.49288 0.26191 0.0
H2 H 0.89968 0.44106 0.31134 0.0
H3 H 0.03245 0.55469 0.32132 0.0
H4 H 0.02852 0.5474 0.28316 0.0
H5 H 0.0495 0.51618 0.35076 0.0
H6 H 0.14216 0.53115 0.31681 0.0
H7 H 0.07526 0.54896 0.26392 0.0
C8 C 0.97895 0.49798 0.33448 0.0
C9 C 0.94437 0.47486 0.33645 0.0
C10 C 0.99485 0.50493 0.30759 0.0
C11 C 0.97667 0.48679 0.28282 0.0
C12 C 0.94245 0.46316 0.28438 0.0
C13 C 0.92666 0.45712 0.31114 0.0
C14 C 0.0285 0.53595 0.3042 0.0
C15 C 0.05759 0.52964 0.306 0.0
C16 C 0.0659 0.52112 0.3326 0.0
C17 C 0.09716 0.52326 0.33702 0.0
C18 C 0.11842 0.53021 0.31341 0.0
C19 C 0.11157 0.54058 0.28692 0.0
C20 C 0.08055 0.53945 0.28334 0.0
H21 H 0.43761 0.99437 0.50361 0.0
H22 H 0.46866 1.00427 0.4151 0.0
H23 H 0.43945 0.91354 0.45874 0.0
H24 H 0.43782 0.03727 0.47377 0.0
H25 H 0.44596 0.03816 0.43592 0.0
H26 H 0.49314 0.05017 0.50701 0.0
H27 H 0.57272 0.14686 0.48453 0.0
H28 H 0.49188 0.09032 0.4237 0.0
C29 C 0.44338 0.98425 0.48474 0.0
C30 C 0.43811 0.95164 0.48502 0.0
C31 C 0.45453 1.00345 0.45959 0.0
C32 C 0.46127 0.99017 0.43484 0.0
C33 C 0.45661 0.95803 0.43493 0.0
C34 C 0.4454 0.9392 0.45995 0.0
C35 C 0.45518 0.03622 0.45782 0.0
C36 C 0.48982 0.06561 0.4638 0.0
C37 C 0.50539 0.06925 0.49106 0.0
C38 C 0.53533 0.09846 0.49871 0.0
C39 C 0.55046 0.12356 0.47836 0.0
C40 C 0.53495 0.12081 0.45139 0.0
C41 C 0.50456 0.09186 0.44411 0.0
H42 H 0.4278 0.49909 0.59839 0.0
H43 H 0.45345 0.4902 0.6862 0.0
H44 H 0.45983 0.5811 0.65837 0.0
H45 H 0.4229 0.44795 0.61353 0.0
H46 H 0.41991 0.44089 0.65157 0.0
H47 H 0.47884 0.47116 0.58985 0.0
H48 H 0.54872 0.44821 0.63117 0.0
H49 H 0.46485 0.43914 0.67842 0.0
C50 C 0.43772 0.51044 0.61955 0.0
C51 C 0.44192 0.54186 0.62634 0.0
C52 C 0.44378 0.49252 0.6409 0.0
C53 C 0.45242 0.50565 0.66934 0.0
C54 C 0.45694 0.53719 0.67629 0.0
C55 C 0.45476 0.55609 0.65382 0.0
C56 C 0.43661 0.45759 0.63465 0.0
C57 C 0.46861 0.45603 0.63433 0.0
C58 C 0.48732 0.4638 0.60891 0.0
C59 C 0.51588 0.46042 0.60758 0.0
C60 C 0.52663 0.45086 0.63224 0.0
C61 C 0.50864 0.44338 0.65789 0.0
C62 C 0.47938 0.44572 0.65886 0.0
H63 H 0.94513 0.40656 0.7622 0.0
H64 H 0.98431 0.44642 0.84793 0.0
H65 H 0.88305 0.41861 0.82422 0.0
H66 H 0.9983 0.41326 0.77772 0.0
H67 H 1.00729 0.41665 0.81567 0.0
H68 H 0.02486 0.46199 0.74742 0.0
H69 H 0.11075 0.54904 0.78325 0.0
H70 H 0.04582 0.47089 0.83947 0.0
C71 C 0.94215 0.41503 0.78334 0.0
C72 C 0.91105 0.41189 0.79048 0.0
C73 C 0.96909 0.42825 0.80384 0.0
C74 C 0.96435 0.43771 0.83165 0.0
C75 C 0.93321 0.43388 0.83907 0.0
C76 C 0.90718 0.42178 0.81824 0.0
C77 C 1.00137 0.42852 0.79751 0.0
C78 C 0.03065 0.46335 0.79408 0.0
C79 C 0.03944 0.47653 0.76622 0.0
C80 C 0.06821 0.50756 0.76241 0.0
C81 C 0.08758 0.52591 0.78658 0.0
C82 C 0.08002 0.51292 0.81443 0.0
C83 C 0.05129 0.4816 0.81815 0.0
H84 H 0.63889 0.0738 0.01325 0.0
H85 H 0.58468 0.03416 0.93193 0.0
H86 H 0.61203 0.13276 0.96049 0.0
H87 H 0.63044 0.02162 -0.00495 0.0
H88 H 0.62548 0.0161 0.95664 0.0
H89 H 0.57524 1.00096 0.02439 0.0
H90 H 0.49913 0.90406 -0.00511 0.0
H91 H 0.5777 0.9668 0.93748 0.0
C92 C 0.62633 0.07625 -0.00579 0.0
C93 C 0.62742 0.10659 0.9893 0.0
C94 C 0.61062 0.04973 0.9736 0.0
C95 C 0.59564 0.05381 0.94837 0.0
C96 C 0.59669 0.08396 0.94357 0.0
C97 C 0.6118 0.10966 0.9643 0.0
C98 C 0.61356 0.01892 0.97645 0.0
C99 C 0.57991 0.98782 0.98025 0.0
C100 C 0.56412 0.98232 0.00712 0.0
C101 C 0.53514 0.952 0.01224 0.0
C102 C 0.52117 0.92767 -0.00975 0.0
C103 C 0.53578 0.93268 0.96301 0.0
C104 C 0.56552 0.9629 0.95814 0.0
H105 H 0.59052 0.55609 0.11129 0.0
H106 H 0.58027 0.5518 0.20365 0.0
H107 H 0.59187 0.47752 0.15883 0.0
H108 H 0.60849 0.60701 0.14129 0.0
H109 H 0.60242 0.60436 0.17938 0.0
H110 H 0.55504 0.58083 0.10756 0.0
H111 H 0.48483 0.60917 0.1369 0.0
H112 H 0.55813 0.61145 0.19678 0.0
C113 C 0.58798 0.54306 0.13116 0.0
C114 C 0.59049 0.51399 0.131 0.0
C115 C 0.58468 0.55705 0.15731 0.0
C116 C 0.58177 0.54069 0.18335 0.0
C117 C 0.58336 0.51139 0.18359 0.0
C118 C 0.5876 0.49831 0.15756 0.0
C119 C 0.59044 0.59207 0.15823 0.0
C120 C 0.55862 0.59336 0.1533 0.0
C121 C 0.54428 0.58772 0.12519 0.0
C122 C 0.51734 0.59292 0.11941 0.0
C123 C 0.50471 0.60373 0.14173 0.0
C124 C 0.51963 0.6111 0.16944 0.0
C125 C 0.54601 0.605 0.17551 0.0
Zn126 Zn 0.7116 0.49118 0.40851 0.0
Zn127 Zn 0.67801 0.42591 0.41048 0.0
O128 O 0.7286 0.44033 0.41528 0.0
O129 O 0.75589 0.49491 0.41761 0.0
O130 O 0.65685 0.37578 0.41016 0.0
O131 O 0.68335 0.49322 0.43982 0.0
O132 O 0.6564 0.43876 0.44381 0.0
C133 C 0.75607 0.46786 0.41847 0.0
C134 C 0.6728 0.46166 0.35691 0.0
O135 O 0.66334 0.43507 0.37091 0.0
O136 O 0.6953 0.48925 0.36762 0.0
C137 C 0.62611 0.35405 0.41308 0.0
O138 O 0.60411 0.36364 0.41763 0.0
C139 C 0.661 0.46724 0.45158 0.0
Zn140 Zn 0.22174 0.68229 0.56087 0.0
Zn141 Zn 0.27021 0.66637 0.56339 0.0
O142 O 0.2966 0.71839 0.56373 0.0
O143 O 0.25619 0.73066 0.5626 0.0
O144 O 0.30567 0.65297 0.56789 0.0
O145 O 0.20122 0.65826 0.59738 0.0
O146 O 0.23895 0.64233 0.59739 0.0
C147 C 0.28715 0.73997 0.56361 0.0
C148 C 0.22032 0.6413 0.51244 0.0
O149 O 0.24609 0.64359 0.52524 0.0
O150 O 0.20599 0.6562 0.52287 0.0
C151 C 0.32003 0.64743 0.54693 0.0
O152 O 0.31325 0.65219 0.52027 0.0
C153 C 0.21313 0.64138 0.60819 0.0
Zn154 Zn 0.53375 0.21437 0.73406 0.0
Zn155 Zn 0.60189 0.24998 0.73909 0.0
O156 O 0.58844 0.28652 0.73864 0.0
O157 O 0.53323 0.25731 0.73496 0.0
O158 O 0.65291 0.27325 0.74152 0.0
O159 O 0.53164 0.19037 0.77045 0.0
O160 O 0.58688 0.21899 0.77403 0.0
C161 C 0.56006 0.28518 0.73684 0.0
C162 C 0.56647 0.20233 0.68711 0.0
O163 O 0.59278 0.22353 0.70105 0.0
O164 O 0.53772 0.19447 0.69637 0.0
C165 C 0.67385 0.30429 0.74217 0.0
O166 O 0.6628 0.32541 0.74239 0.0
C167 C 0.55866 0.19657 0.78335 0.0
Zn168 Zn 0.34603 0.56835 0.91004 0.0
Zn169 Zn 0.37664 0.63276 0.89781 0.0
O170 O 0.32584 0.61894 0.89633 0.0
O171 O 0.30138 0.56496 0.90262 0.0
O172 O 0.40406 0.68276 0.89222 0.0
O173 O 0.36605 0.5765 0.95 0.0
O174 O 0.39739 0.62808 0.9362 0.0
C175 C 0.29918 0.59055 0.89786 0.0
C176 C 0.38865 0.58564 0.86053 0.0
O177 O 0.39073 0.61383 0.86395 0.0
O178 O 0.37215 0.56244 0.87791 0.0
C179 C 0.39626 0.70396 0.90115 0.0
O180 O 0.36728 0.69348 0.91363 0.0
C181 C 0.39069 0.60542 0.95452 0.0
Zn182 Zn 0.80231 0.46913 0.06196 0.0
Zn183 Zn 0.76513 0.40405 0.05398 0.0
O184 O 0.72949 0.41952 0.05108 0.0
O185 O 0.76243 0.47392 0.05344 0.0
O186 O 0.73938 0.3538 0.04744 0.0
O187 O 0.83296 0.47359 0.03032 0.0
O188 O 0.80027 0.42002 0.02131 0.0
C189 C 0.73345 0.44872 0.05019 0.0
C190 C 0.80642 0.43464 0.11052 0.0
O191 O 0.78742 0.40949 0.09438 0.0
O192 O 0.81511 0.46359 0.10215 0.0
C193 C 0.72594 0.33343 0.06789 0.0
O194 O 0.7268 0.34503 0.09418 0.0
C195 C 0.82597 0.44786 0.01544 0.0
Zn196 Zn 0.34062 0.79535 0.2112 0.0
Zn197 Zn 0.38332 0.77123 0.21274 0.0
O198 O 0.33582 0.73028 0.21087 0.0
O199 O 0.30081 0.7491 0.2047 0.0
O200 O 0.4128 0.7505 0.21327 0.0
O201 O 0.36559 0.8237 0.17782 0.0
O202 O 0.39942 0.80297 0.1782 0.0
C203 C 0.30612 0.72504 0.20682 0.0
C204 C 0.38307 0.81365 0.26316 0.0
O205 O 0.3952 0.79754 0.25077 0.0
O206 O 0.35873 0.81505 0.25145 0.0
C207 C 0.40984 0.73067 0.23327 0.0
O208 O 0.38791 0.72452 0.25361 0.0
C209 C 0.39054 0.82275 0.16775 0.0
H210 H 0.17997 0.57729 0.2983 0.0
H211 H 0.10649 0.5471 0.22745 0.0
H212 H 0.15078 0.58734 0.19617 0.0
H213 H 0.22265 0.6578 0.28791 0.0
H214 H 0.26403 0.66436 0.29579 0.0
H215 H 0.22807 0.63 0.31129 0.0
H216 H 0.24437 0.58879 0.28906 0.0
H217 H 0.281 0.62316 0.27387 0.0
H218 H 0.25148 0.58922 0.25072 0.0
H219 H 0.20011 0.63968 0.17699 0.0
H220 H 0.2521 0.69349 0.16942 0.0
H221 H 0.29446 0.68225 0.24983 0.0
C222 C 0.17293 0.57735 0.2759 0.0
C223 C 0.1391 0.55875 0.26579 0.0
C224 C 0.13181 0.56144 0.23628 0.0
C225 C 0.15695 0.58402 0.21813 0.0
C226 C 0.18961 0.60282 0.22937 0.0
C227 C 0.19779 0.59876 0.25731 0.0
C228 C 0.23417 0.62316 0.26502 0.0
C229 C 0.23737 0.64511 0.29155 0.0
C230 C 0.25392 0.60499 0.26994 0.0
C231 C 0.24477 0.64298 0.23765 0.0
C232 C 0.21877 0.63098 0.21725 0.0
C233 C 0.22107 0.64847 0.19222 0.0
C234 C 0.25053 0.67899 0.18812 0.0
C235 C 0.27738 0.69119 0.20865 0.0
C236 C 0.27471 0.6726 0.23329 0.0
H237 H 0.50932 0.1617 0.44498 0.0
H238 H 0.593 0.14905 0.42158 0.0
H239 H 0.62315 0.2065 0.40361 0.0
H240 H 0.51762 0.22045 0.38517 0.0
H241 H 0.50697 0.24426 0.40943 0.0
H242 H 0.48927 0.20026 0.41434 0.0
H243 H 0.51214 0.21192 0.46732 0.0
H244 H 0.53047 0.25587 0.46249 0.0
H245 H 0.55643 0.23921 0.47434 0.0
H246 H 0.64756 0.26727 0.39589 0.0
H247 H 0.66386 0.32645 0.39672 0.0
H248 H 0.56467 0.30051 0.42621 0.0
C249 C 0.53323 0.1706 0.43464 0.0
C250 C 0.54851 0.15082 0.43364 0.0
C251 C 0.58062 0.16365 0.42159 0.0
C252 C 0.59791 0.19625 0.41152 0.0
C253 C 0.58276 0.21568 0.41384 0.0
C254 C 0.55095 0.20324 0.42479 0.0
C255 C 0.54202 0.23036 0.42817 0.0
C256 C 0.5122 0.22342 0.40808 0.0
C257 C 0.53486 0.23457 0.45996 0.0
C258 C 0.57418 0.2602 0.4184 0.0
C259 C 0.59719 0.2511 0.40991 0.0
C260 C 0.62953 0.27459 0.40197 0.0
C261 C 0.63862 0.30822 0.40269 0.0
C262 C 0.61552 0.31821 0.41142 0.0
C263 C 0.58278 0.2937 0.41909 0.0
H264 H 0.40398 0.5681 0.64401 0.0
H265 H 0.44517 0.54972 0.56663 0.0
H266 H 0.41953 0.5761 0.53721 0.0
H267 H 0.32653 0.55191 0.61306 0.0
H268 H 0.325 0.58398 0.63412 0.0
H269 H 0.34689 0.56406 0.64832 0.0
H270 H 0.40096 0.6213 0.6554 0.0
H271 H 0.37931 0.64152 0.64124 0.0
H272 H 0.41761 0.6484 0.62502 0.0
H273 H 0.38831 0.60491 0.5168 0.0
H274 H 0.35405 0.63135 0.50725 0.0
H275 H 0.33565 0.63099 0.59925 0.0
C276 C 0.40827 0.57008 0.62092 0.0
C277 C 0.42723 0.55746 0.60767 0.0
C278 C 0.43095 0.55943 0.57724 0.0
C279 C 0.41658 0.57447 0.56045 0.0
C280 C 0.39852 0.58717 0.57449 0.0
C281 C 0.39438 0.58497 0.60409 0.0
C282 C 0.37359 0.5998 0.61432 0.0
C283 C 0.34108 0.57335 0.62826 0.0
C284 C 0.3941 0.62952 0.63522 0.0
C285 C 0.3664 0.6108 0.58582 0.0
C286 C 0.38092 0.60341 0.56301 0.0
C287 C 0.37697 0.61085 0.53456 0.0
C288 C 0.35749 0.62591 0.52936 0.0
C289 C 0.34219 0.63336 0.5525 0.0
C290 C 0.34708 0.62584 0.58105 0.0
H291 H 0.86639 0.4324 0.77728 0.0
H292 H 0.88605 0.35163 0.76247 0.0
H293 H 0.82817 0.31665 0.74282 0.0
H294 H 0.78949 0.38588 0.80504 0.0
H295 H 0.77013 0.4077 0.78948 0.0
H296 H 0.81478 0.42896 0.79586 0.0
H297 H 0.82495 0.44482 0.74187 0.0
H298 H 0.7802 0.42424 0.73534 0.0
H299 H 0.80556 0.41283 0.71405 0.0
H300 H 0.76551 0.28745 0.73395 0.0
H301 H 0.70478 0.26793 0.73208 0.0
H302 H 0.72581 0.36779 0.75328 0.0
C303 C 0.85889 0.40778 0.76879 0.0
C304 C 0.88077 0.39478 0.77114 0.0
C305 C 0.86995 0.3623 0.76032 0.0
C306 C 0.837 0.34218 0.74936 0.0
C307 C 0.81538 0.3551 0.74907 0.0
C308 C 0.82613 0.38743 0.75796 0.0
C309 C 0.79728 0.39436 0.7584 0.0
C310 C 0.79266 0.40483 0.78901 0.0
C311 C 0.8023 0.42062 0.73608 0.0
C312 C 0.7683 0.36051 0.74951 0.0
C313 C 0.77928 0.33827 0.74396 0.0
C314 C 0.75676 0.30485 0.73763 0.0
C315 C 0.72226 0.29395 0.73682 0.0
C316 C 0.71046 0.31635 0.74238 0.0
C317 C 0.73397 0.35012 0.74854 0.0
H318 H 0.46922 0.89197 0.94956 0.0
H319 H 0.56801 0.90833 0.92948 0.0
H320 H 0.54177 0.85355 0.90413 0.0
H321 H 0.43815 0.81281 0.97061 0.0
H322 H 0.39583 0.79696 0.95699 0.0
H323 H 0.42138 0.84025 0.96659 0.0
H324 H 0.41244 0.85643 0.91511 0.0
H325 H 0.38634 0.81306 0.90537 0.0
H326 H 0.42212 0.83936 0.88389 0.0
H327 H 0.50498 0.7931 0.88865 0.0
H328 H 0.46187 0.7337 0.88419 0.0
H329 H 0.38752 0.75604 0.91751 0.0
C330 C 0.48535 0.8845 0.93902 0.0
C331 C 0.52072 0.90453 0.94145 0.0
C332 C 0.54091 0.89376 0.9275 0.0
C333 C 0.52616 0.86253 0.91321 0.0
C334 C 0.49121 0.84249 0.9129 0.0
C335 C 0.47108 0.8533 0.92522 0.0
C336 C 0.43471 0.82576 0.9256 0.0
C337 C 0.42179 0.81853 0.95679 0.0
C338 C 0.4126 0.83416 0.90634 0.0
C339 C 0.43758 0.79727 0.91264 0.0
C340 C 0.47021 0.80751 0.90487 0.0
C341 C 0.47929 0.78501 0.89422 0.0
C342 C 0.45457 0.75123 0.89182 0.0
C343 C 0.42119 0.74009 0.90044 0.0
C344 C 0.41267 0.76368 0.91049 0.0
H345 H 0.58036 0.45116 0.11709 0.0
H346 H 0.62844 0.55215 0.08552 0.0
H347 H 0.65818 0.53783 0.05021 0.0
H348 H 0.65241 0.45155 0.12402 0.0
H349 H 0.637 0.40846 0.11476 0.0
H350 H 0.60896 0.42097 0.12918 0.0
H351 H 0.5693 0.39488 0.08431 0.0
H352 H 0.59734 0.38213 0.0697 0.0
H353 H 0.58556 0.4071 0.04848 0.0
H354 H 0.69344 0.51913 0.02754 0.0
H355 H 0.73364 0.49942 0.02227 0.0
H356 H 0.67019 0.41297 0.07267 0.0
C357 C 0.5967 0.47034 0.10256 0.0
C358 C 0.60183 0.50306 0.10479 0.0
C359 C 0.62294 0.52669 0.08444 0.0
C360 C 0.64033 0.5188 0.06412 0.0
C361 C 0.63689 0.4873 0.06439 0.0
C362 C 0.61557 0.46335 0.08313 0.0
C363 C 0.62195 0.43431 0.08377 0.0
C364 C 0.63062 0.42853 0.11475 0.0
C365 C 0.59174 0.40273 0.07078 0.0
C366 C 0.65195 0.44691 0.06422 0.0
C367 C 0.65905 0.47682 0.05225 0.0
C368 C 0.6877 0.4954 0.03621 0.0
C369 C 0.71049 0.48405 0.03344 0.0
C370 C 0.70487 0.45459 0.04694 0.0
C371 C 0.67455 0.43505 0.06148 0.0
H372 H 0.44511 0.8992 0.50413 0.0
H373 H 0.38881 0.94981 0.51949 0.0
H374 H 0.35073 0.90446 0.55045 0.0
H375 H 0.37651 0.8246 0.4902 0.0
H376 H 0.39183 0.79936 0.50608 0.0
H377 H 0.42099 0.83967 0.49278 0.0
H378 H 0.45124 0.85714 0.54302 0.0
H379 H 0.42227 0.81662 0.55649 0.0
H380 H 0.42746 0.85337 0.57488 0.0
H381 H 0.31213 0.84982 0.57075 0.0
H382 H 0.2757 0.79007 0.57849 0.0
H383 H 0.35326 0.77157 0.54673 0.0
C384 C 0.42525 0.90124 0.51448 0.0
C385 C 0.42025 0.92845 0.50911 0.0
C386 C 0.394 0.92995 0.5235 0.0
C387 C 0.37194 0.90403 0.5411 0.0
C388 C 0.37627 0.87663 0.54419 0.0
C389 C 0.40242 0.87511 0.53142 0.0
C390 C 0.39833 0.84076 0.53405 0.0
C391 C 0.39681 0.8252 0.504 0.0
C392 C 0.4265 0.84206 0.55326 0.0
C393 C 0.36479 0.82268 0.54884 0.0
C394 C 0.35306 0.84416 0.55521 0.0
C395 C 0.32134 0.83292 0.56641 0.0
C396 C 0.30073 0.79882 0.57056 0.0
C397 C 0.31164 0.7761 0.56328 0.0
C398 C 0.3445 0.78838 0.55302 0.0
H399 H 0.47205 0.38314 0.6825 0.0
H400 H 0.57023 0.47168 0.68473 0.0
H401 H 0.59291 0.44248 0.71331 0.0
H402 H 0.47993 0.35 0.75632 0.0
H403 H 0.45779 0.30799 0.74198 0.0
H404 H 0.44762 0.33827 0.72872 0.0
H405 H 0.45812 0.3256 0.67634 0.0
H406 H 0.46892 0.29589 0.68934 0.0
H407 H 0.49822 0.32993 0.66783 0.0
H408 H 0.60738 0.40056 0.7316 0.0
H409 H 0.61141 0.35038 0.74081 0.0
H410 H 0.50364 0.28924 0.72696 0.0
C411 C 0.49782 0.39683 0.69048 0.0
C412 C 0.5193 0.42973 0.68194 0.0
C413 C 0.55332 0.44657 0.69153 0.0
C414 C 0.5664 0.43015 0.70771 0.0
C415 C 0.54504 0.39698 0.71435 0.0
C416 C 0.51127 0.38067 0.70651 0.0
C417 C 0.49471 0.34397 0.71269 0.0
C418 C 0.46846 0.33451 0.73635 0.0
C419 C 0.47911 0.32263 0.6849 0.0
C420 C 0.52475 0.34188 0.72361 0.0
C421 C 0.55347 0.37273 0.72491 0.0
C422 C 0.58489 0.37637 0.73143 0.0
C423 C 0.58698 0.34771 0.7365 0.0
C424 C 0.55785 0.31584 0.73481 0.0
C425 C 0.52636 0.31321 0.72889 0.0
H426 H 0.10886 0.48582 0.84785 0.0
H427 H 0.11204 0.57865 0.83088 0.0
H428 H 0.16657 0.60932 0.8573 0.0
H429 H 0.15572 0.51208 0.92128 0.0
H430 H 0.17676 0.4892 0.91306 0.0
H431 H 0.13465 0.4745 0.89937 0.0
H432 H 0.15462 0.47389 0.8473 0.0
H433 H 0.19679 0.48925 0.86059 0.0
H434 H 0.1885 0.51155 0.8331 0.0
H435 H 0.22584 0.63026 0.87592 0.0
H436 H 0.28217 0.63896 0.8888 0.0
H437 H 0.23949 0.53226 0.89405 0.0
C438 C 0.12011 0.5124 0.85116 0.0
C439 C 0.10604 0.52983 0.8377 0.0
C440 C 0.12225 0.56483 0.84137 0.0
C441 C 0.15328 0.58245 0.85628 0.0
C442 C 0.16759 0.56469 0.86773 0.0
C443 C 0.15113 0.53033 0.86591 0.0
C444 C 0.17348 0.51733 0.87675 0.0
C445 C 0.15931 0.49708 0.90426 0.0
C446 C 0.17864 0.49682 0.85302 0.0
C447 C 0.20556 0.54968 0.88349 0.0
C448 C 0.20168 0.57679 0.87856 0.0
C449 C 0.22892 0.60919 0.8806 0.0
C450 C 0.26089 0.61393 0.88777 0.0
C451 C 0.26533 0.58638 0.89266 0.0
C452 C 0.23703 0.55397 0.89091 0.0
H453 H 0.67225 0.16931 0.97325 0.0
H454 H 0.62326 0.11145 0.04854 0.0
H455 H 0.64604 0.16356 0.07815 0.0
H456 H 0.74738 0.23687 0.01091 0.0
H457 H 0.74785 0.2678 0.98748 0.0
H458 H 0.73188 0.22591 0.97401 0.0
H459 H 0.67595 0.22292 0.95903 0.0
H460 H 0.69146 0.26452 0.97286 0.0
H461 H 0.6527 0.23093 0.98592 0.0
H462 H 0.66944 0.22296 0.0978 0.0
H463 H 0.69341 0.28327 0.10651 0.0
H464 H 0.72481 0.30126 0.01716 0.0
C465 C 0.6669 0.16754 -0.00385 0.0
C466 C 0.64601 0.13638 0.00868 0.0
C467 C 0.63954 0.13505 0.03864 0.0
C468 C 0.65218 0.16453 0.05551 0.0
C469 C 0.67138 0.19497 0.04203 0.0
C470 C 0.67901 0.19653 0.01306 0.0
C471 C 0.69801 0.23205 0.003 0.0
C472 C 0.73338 0.24119 -0.00671 0.0
C473 C 0.67835 0.23793 0.97878 0.0
C474 C 0.69941 0.25044 0.0307 0.0
C475 C 0.68419 0.22874 0.05306 0.0
C476 C 0.68167 0.24011 0.08048 0.0
C477 C 0.69527 0.27445 0.08518 0.0
C478 C 0.71102 0.29711 0.06253 0.0
C479 C 0.71298 0.28471 0.03496 0.0
H480 H 0.52507 0.6705 0.15991 0.0
H481 H 0.49115 0.5928 0.22303 0.0
H482 H 0.46443 0.61944 0.25048 0.0
H483 H 0.53798 0.74012 0.21019 0.0
H484 H 0.5224 0.75677 0.18298 0.0
H485 H 0.54426 0.73538 0.17236 0.0
H486 H 0.49342 0.69553 0.13936 0.0
H487 H 0.47119 0.71634 0.15016 0.0
H488 H 0.45248 0.67221 0.15487 0.0
H489 H 0.4344 0.6503 0.2663 0.0
H490 H 0.40515 0.68252 0.26989 0.0
H491 H 0.45801 0.73862 0.19485 0.0
C492 C 0.51304 0.65981 0.18012 0.0
C493 C 0.51035 0.62991 0.18968 0.0
C494 C 0.49388 0.61605 0.21577 0.0
C495 C 0.47857 0.63096 0.23132 0.0
C496 C 0.48034 0.65973 0.22048 0.0
C497 C 0.49758 0.67418 0.1956 0.0
C498 C 0.49287 0.70271 0.18643 0.0
C499 C 0.52637 0.7357 0.18811 0.0
C500 C 0.47651 0.69628 0.15592 0.0
C501 C 0.46928 0.70149 0.20942 0.0
C502 C 0.46268 0.67693 0.22916 0.0
C503 C 0.43986 0.66992 0.25124 0.0
C504 C 0.42329 0.68832 0.25304 0.0
C505 C 0.42932 0.71318 0.23268 0.0
C506 C 0.45299 0.72 0.21089 0.0
H507 H 0.88505 0.42245 0.35617 0.0
H508 H 0.9588 0.52577 0.37583 0.0
H509 H 0.92085 0.52858 0.4105 0.0
H510 H 0.82259 0.43728 0.34677 0.0
H511 H 0.78933 0.39936 0.3612 0.0
H512 H 0.82572 0.40017 0.34684 0.0
H513 H 0.83626 0.37936 0.39548 0.0
H514 H 0.79952 0.37821 0.41001 0.0
H515 H 0.83954 0.40162 0.42874 0.0
H516 H 0.87181 0.52635 0.43227 0.0
H517 H 0.81569 0.5194 0.43841 0.0
H518 H 0.77039 0.41961 0.40149 0.0
C519 C 0.8937 0.4455 0.36825 0.0
C520 C 0.92527 0.47382 0.36283 0.0
C521 C 0.9354 0.50324 0.37963 0.0
C522 C 0.91374 0.50522 0.3995 0.0
C523 C 0.88182 0.47775 0.40238 0.0
C524 C 0.87181 0.44828 0.38735 0.0
C525 C 0.83426 0.42492 0.38954 0.0
C526 C 0.81699 0.41489 0.35931 0.0
C527 C 0.82697 0.39421 0.40699 0.0
C528 C 0.8244 0.44694 0.40614 0.0
C529 C 0.85243 0.4768 0.4143 0.0
C530 C 0.84973 0.50278 0.42669 0.0
C531 C 0.8177 0.49867 0.42991 0.0
C532 C 0.78869 0.46892 0.42048 0.0
C533 C 0.79209 0.44231 0.40947 0.0
H534 H 0.09102 0.55898 0.38106 0.0
H535 H 0.13865 0.50144 0.35958 0.0
H536 H 0.17442 0.52362 0.40399 0.0
H537 H 0.16086 0.62897 0.40275 0.0
H538 H 0.14259 0.64009 0.43202 0.0
H539 H 0.11665 0.6154 0.40181 0.0
H540 H 0.07692 0.56906 0.4361 0.0
H541 H 0.10206 0.59407 0.46666 0.0
H542 H 0.09414 0.55224 0.46165 0.0
H543 H 0.21045 0.55889 0.44705 0.0
H544 H 0.23913 0.5991 0.48767 0.0
H545 H 0.1666 0.6324 0.47957 0.0
C546 C 0.10766 0.54955 0.38626 0.0
C547 C 0.11173 0.52816 0.36686 0.0
C548 C 0.13503 0.51776 0.37412 0.0
C549 C 0.15546 0.53026 0.39928 0.0
C550 C 0.15196 0.55277 0.41703 0.0
C551 C 0.12808 0.5617 0.41109 0.0
C552 C 0.13087 0.58823 0.43204 0.0
C553 C 0.13818 0.62003 0.41619 0.0
C554 C 0.09912 0.57511 0.4502 0.0
C555 C 0.16072 0.59363 0.45026 0.0
C556 C 0.17254 0.57293 0.44148 0.0
C557 C 0.20103 0.5748 0.45439 0.0
C558 C 0.21732 0.59793 0.47726 0.0
C559 C 0.20509 0.61889 0.48685 0.0
C560 C 0.17655 0.61669 0.47291 0.0
H561 H 0.49698 0.08951 0.54546 0.0
H562 H 0.60009 0.12759 0.52033 0.0
H563 H 0.61972 0.15389 0.56896 0.0
H564 H 0.50893 0.15856 0.57879 0.0
H565 H 0.48021 0.13945 0.60793 0.0
H566 H 0.47367 0.117 0.57429 0.0
H567 H 0.4744 0.06872 0.601 0.0
H568 H 0.47997 0.09055 0.63501 0.0
H569 H 0.50927 0.07738 0.62493 0.0
H570 H 0.62792 0.1841 0.61663 0.0
H571 H 0.62397 0.21236 0.66084 0.0
H572 H 0.51519 0.15451 0.65371 0.0
C573 C 0.52361 0.10185 0.55066 0.0
C574 C 0.54703 0.1062 0.52932 0.0
C575 C 0.58178 0.12381 0.53654 0.0
C576 C 0.59311 0.13879 0.56406 0.0
C577 C 0.56933 0.1356 0.58409 0.0
C578 C 0.53525 0.11702 0.57787 0.0
C579 C 0.5149 0.12061 0.60158 0.0
C580 C 0.49318 0.13476 0.58994 0.0
C581 C 0.49337 0.08734 0.61652 0.0
C582 C 0.54284 0.1453 0.62148 0.0
C583 C 0.57406 0.15333 0.61133 0.0
C584 C 0.6036 0.17748 0.62511 0.0
C585 C 0.6011 0.19358 0.65006 0.0
C586 C 0.56927 0.18565 0.66074 0.0
C587 C 0.53991 0.16105 0.64623 0.0
H588 H 0.43046 0.57439 0.69771 0.0
H589 H 0.48301 0.52317 0.72536 0.0
H590 H 0.47447 0.53333 0.77633 0.0
H591 H 0.46571 0.63911 0.75683 0.0
H592 H 0.42703 0.63994 0.75839 0.0
H593 H 0.44018 0.63108 0.72446 0.0
H594 H 0.38323 0.57636 0.71907 0.0
H595 H 0.37004 0.58445 0.75316 0.0
H596 H 0.37026 0.54619 0.7473 0.0
H597 H 0.45193 0.54143 0.82354 0.0
H598 H 0.42363 0.55294 0.86351 0.0
H599 H 0.39258 0.60469 0.80447 0.0
C600 C 0.4418 0.5665 0.7141 0.0
C601 C 0.4576 0.54793 0.70705 0.0
C602 C 0.47038 0.537 0.7299 0.0
C603 C 0.46591 0.54291 0.75898 0.0
C604 C 0.44945 0.56056 0.76486 0.0
C605 C 0.43842 0.57293 0.743 0.0
C606 C 0.42022 0.58996 0.75472 0.0
C607 C 0.43945 0.62724 0.74822 0.0
C608 C 0.3838 0.57322 0.74286 0.0
C609 C 0.42149 0.5841 0.78668 0.0
C610 C 0.43834 0.56699 0.79213 0.0
C611 C 0.43954 0.55562 0.81965 0.0
C612 C 0.42323 0.56204 0.84211 0.0
C613 C 0.40644 0.58004 0.83693 0.0
C614 C 0.40597 0.59157 0.809 0.0
H615 H 0.87979 0.39283 0.87141 0.0
H616 H 0.97075 0.48918 0.87367 0.0
H617 H 0.95478 0.50186 0.92122 0.0
H618 H 0.82691 0.41942 0.89835 0.0
H619 H 0.80178 0.38303 0.9193 0.0
H620 H 0.82236 0.37997 0.88752 0.0
H621 H 0.85211 0.35534 0.91793 0.0
H622 H 0.83134 0.35799 0.94982 0.0
H623 H 0.87647 0.3776 0.94983 0.0
H624 H 0.9257 0.50605 0.96531 0.0
H625 H 0.88773 0.50074 0.00453 0.0
H626 H 0.81546 0.40124 0.97311 0.0
C627 C 0.89657 0.41644 0.88212 0.0
C628 C 0.9264 0.44019 0.86897 0.0
C629 C 0.94791 0.47067 0.8836 0.0
C630 C 0.93897 0.47806 0.91047 0.0
C631 C 0.90871 0.45448 0.92235 0.0
C632 C 0.88806 0.42412 0.9088 0.0
C633 C 0.85606 0.40379 0.9252 0.0
C634 C 0.82496 0.39612 0.90647 0.0
C635 C 0.85388 0.37179 0.93636 0.0
C636 C 0.86147 0.42779 0.94983 0.0
C637 C 0.89206 0.45679 0.94786 0.0
C638 C 0.90192 0.48331 0.96729 0.0
C639 C 0.88003 0.48006 0.9894 0.0
C640 C 0.84859 0.4505 -0.00808 0.0
C641 C 0.83938 0.424 0.97191 0.0
H642 H 0.52932 0.90332 0.04715 0.0
H643 H 0.50358 0.98062 0.03971 0.0
H644 H 0.46538 0.95731 0.08112 0.0
H645 H 0.45042 0.83953 0.05936 0.0
H646 H 0.46202 0.81802 0.08513 0.0
H647 H 0.49152 0.84373 0.05856 0.0
H648 H 0.53539 0.87829 0.09898 0.0
H649 H 0.50637 0.85213 0.12576 0.0
H650 H 0.52388 0.8965 0.12813 0.0
H651 H 0.42396 0.92049 0.11759 0.0
H652 H 0.38721 0.87721 0.15121 0.0
H653 H 0.44086 0.82409 0.13526 0.0
C654 C 0.51657 0.91601 0.05508 0.0
C655 C 0.51948 0.9439 0.04078 0.0
C656 C 0.50198 0.9596 0.05095 0.0
C657 C 0.48014 0.94637 0.07422 0.0
C658 C 0.4766 0.9178 0.08705 0.0
C659 C 0.49491 0.90323 0.07826 0.0
C660 C 0.48491 0.87147 0.09419 0.0
C661 C 0.47141 0.84143 0.07304 0.0
C662 C 0.51439 0.87481 0.11289 0.0
C663 C 0.45733 0.8698 0.11273 0.0
C664 C 0.45295 0.89675 0.1083 0.0
C665 C 0.42759 0.89963 0.12165 0.0
C666 C 0.40664 0.87469 0.1405 0.0
C667 C 0.41121 0.84726 0.14595 0.0
C668 C 0.43688 0.84484 0.13173 0.0
H669 H 0.62732 0.5448 0.22805 0.0
H670 H 0.54947 0.4464 0.19984 0.0
H671 H 0.56336 0.42219 0.24165 0.0
H672 H 0.68624 0.52225 0.24767 0.0
H673 H 0.7033 0.55024 0.27861 0.0
H674 H 0.68462 0.56018 0.24872 0.0
H675 H 0.64351 0.56539 0.28331 0.0
H676 H 0.6626 0.55625 0.31345 0.0
H677 H 0.61795 0.53153 0.30668 0.0
H678 H 0.58884 0.40881 0.28496 0.0
H679 H 0.62153 0.40772 0.32756 0.0
H680 H 0.68363 0.51513 0.32525 0.0
C681 C 0.61242 0.51829 0.23126 0.0
C682 C 0.58695 0.49745 0.21114 0.0
C683 C 0.56881 0.46272 0.21535 0.0
C684 C 0.57661 0.44881 0.23891 0.0
C685 C 0.6027 0.47001 0.25786 0.0
C686 C 0.62011 0.50404 0.25439 0.0
C687 C 0.64833 0.52128 0.27661 0.0
C688 C 0.68264 0.53955 0.26202 0.0
C689 C 0.64275 0.545 0.29617 0.0
C690 C 0.64428 0.49166 0.29304 0.0
C691 C 0.61782 0.46228 0.28205 0.0
C692 C 0.60953 0.4317 0.29382 0.0
C693 C 0.62836 0.43131 0.31789 0.0
C694 C 0.65522 0.4613 0.32972 0.0
C695 C 0.66339 0.4917 0.31674 0.0
H696 H 0.42122 0.95069 0.38532 0.0
H697 H 0.491 0.92525 0.42495 0.0
H698 H 0.48193 0.88696 0.3836 0.0
H699 H 0.36288 0.87129 0.36353 0.0
H700 H 0.35072 0.88199 0.32988 0.0
H701 H 0.36697 0.91165 0.35959 0.0
H702 H 0.4136 0.95489 0.32726 0.0
H703 H 0.39699 0.92565 0.29716 0.0
H704 H 0.44049 0.94366 0.30815 0.0
H705 H 0.4606 0.84735 0.34055 0.0
H706 H 0.43067 0.8113 0.2979 0.0
H707 H 0.37298 0.86134 0.28828 0.0
C708 C 0.43564 0.93811 0.38462 0.0
C709 C 0.45734 0.9413 0.40782 0.0
C710 C 0.47472 0.9234 0.40697 0.0
C711 C 0.46962 0.90159 0.3837 0.0
C712 C 0.44695 0.89795 0.36166 0.0
C713 C 0.43048 0.91597 0.3618 0.0
C714 C 0.40513 0.90536 0.33702 0.0
C715 C 0.36932 0.89177 0.34819 0.0
C716 C 0.41463 0.9341 0.31616 0.0
C717 C 0.40939 0.87811 0.32324 0.0
C718 C 0.43383 0.87439 0.33754 0.0
C719 C 0.44162 0.85025 0.32902 0.0
C720 C 0.42438 0.82978 0.30489 0.0
C721 C 0.3994 0.8334 0.28984 0.0
C722 C 0.39176 0.85776 0.2994 0.0
H723 H 0.53417 0.41868 0.58246 0.0
H724 H 0.53921 0.51356 0.57184 0.0
H725 H 0.57512 0.5243 0.52924 0.0
H726 H 0.61778 0.44499 0.56613 0.0
H727 H 0.60904 0.40753 0.54674 0.0
H728 H 0.5814 0.40592 0.57468 0.0
H729 H 0.53087 0.3788 0.53835 0.0
H730 H 0.5583 0.38002 0.51031 0.0
H731 H 0.53288 0.39902 0.50476 0.0
H732 H 0.6146 0.52702 0.49162 0.0
H733 H 0.65173 0.52015 0.45807 0.0
H734 H 0.62006 0.42239 0.49206 0.0
C735 C 0.54257 0.44156 0.57092 0.0
C736 C 0.53416 0.46545 0.58035 0.0
C737 C 0.54528 0.49496 0.56474 0.0
C738 C 0.56573 0.50126 0.54067 0.0
C739 C 0.57431 0.47755 0.53243 0.0
C740 C 0.56272 0.44808 0.5468 0.0
C741 C 0.57641 0.42719 0.53406 0.0
C742 C 0.59741 0.42106 0.55676 0.0
C743 C 0.54791 0.39431 0.52109 0.0
C744 C 0.59823 0.44989 0.51064 0.0
C745 C 0.59661 0.47879 0.51017 0.0
C746 C 0.61575 0.50435 0.49152 0.0
C747 C 0.63697 0.50024 0.47268 0.0
C748 C 0.6388 0.47068 0.47244 0.0
C749 C 0.619 0.44511 0.49161 0.0
H750 H 0.08444 0.56627 0.73705 0.0
H751 H 0.08668 0.47498 0.72453 0.0
H752 H 0.12461 0.4995 0.68331 0.0
H753 H 0.08775 0.58603 0.65822 0.0
H754 H 0.11348 0.62996 0.66584 0.0
H755 H 0.08355 0.60349 0.69191 0.0
H756 H 0.1314 0.62498 0.73081 0.0
H757 H 0.16167 0.65072 0.7047 0.0
H758 H 0.1676 0.62071 0.7243 0.0
H759 H 0.16907 0.53705 0.64893 0.0
H760 H 0.20806 0.58112 0.61658 0.0
H761 H 0.17419 0.64681 0.64961 0.0
C762 C 0.09192 0.5511 0.72482 0.0
C763 C 0.08241 0.51866 0.73352 0.0
C764 C 0.0932 0.49963 0.71766 0.0
C765 C 0.11502 0.51349 0.69449 0.0
C766 C 0.12525 0.54616 0.68729 0.0
C767 C 0.11324 0.56438 0.70138 0.0
C768 C 0.12874 0.59921 0.68987 0.0
C769 C 0.10177 0.605 0.6756 0.0
C770 C 0.14852 0.62543 0.71386 0.0
C771 C 0.15198 0.59802 0.66764 0.0
C772 C 0.14991 0.56734 0.66672 0.0
C773 C 0.17045 0.56097 0.64905 0.0
C774 C 0.1928 0.58625 0.63105 0.0
C775 C 0.19401 0.61724 0.63062 0.0
C776 C 0.17361 0.62324 0.64943 0.0
H777 H 0.63361 0.13321 0.90695 0.0
H778 H 0.53302 0.05129 0.91974 0.0
H779 H 0.51195 0.07071 0.87893 0.0
H780 H 0.61157 0.19298 0.89421 0.0
H781 H 0.6425 0.21464 0.86713 0.0
H782 H 0.65021 0.19198 0.89457 0.0
H783 H 0.65951 0.15742 0.85512 0.0
H784 H 0.65258 0.18049 0.82749 0.0
H785 H 0.62778 0.13578 0.8272 0.0
H786 H 0.50164 0.10308 0.8405 0.0
H787 H 0.50319 0.1418 0.80374 0.0
H788 H 0.61119 0.20261 0.8169 0.0
C789 C 0.60729 0.1189 0.90058 0.0
C790 C 0.5848 0.09074 0.91613 0.0
C791 C 0.55052 0.07268 0.90766 0.0
C792 C 0.53842 0.08369 0.88475 0.0
C793 C 0.56112 0.11252 0.87063 0.0
C794 C 0.59494 0.12951 0.87794 0.0
C795 C 0.61398 0.16058 0.8605 0.0
C796 C 0.63053 0.19188 0.88029 0.0
C797 C 0.63999 0.15842 0.84144 0.0
C798 C 0.58552 0.15885 0.84247 0.0
C799 C 0.55523 0.13101 0.84862 0.0
C800 C 0.52526 0.12472 0.83526 0.0
C801 C 0.52642 0.14703 0.81456 0.0
C802 C 0.55737 0.17526 0.80737 0.0
C803 C 0.58717 0.18129 0.82183 0.0
H804 H 0.45331 0.55787 0.09782 0.0
H805 H 0.55481 0.6309 0.07536 0.0
H806 H 0.53319 0.64325 0.03063 0.0
H807 H 0.42193 0.52828 0.0222 0.0
H808 H 0.38121 0.52275 0.03004 0.0
H809 H 0.40557 0.51747 0.05815 0.0
H810 H 0.40057 0.56094 0.0901 0.0
H811 H 0.37723 0.56725 0.06176 0.0
H812 H 0.41521 0.60204 0.0766 0.0
H813 H 0.49967 0.65293 -0.00764 0.0
H814 H 0.45763 0.65135 0.9575 0.0
H815 H 0.37823 0.57054 0.00441 0.0
C816 C 0.47098 0.57552 0.08285 0.0
C817 C 0.50566 0.59317 0.08961 0.0
C818 C 0.5282 0.61668 0.07006 0.0
C819 C 0.51611 0.62412 0.04488 0.0
C820 C 0.48153 0.60747 0.03956 0.0
C821 C 0.45936 0.58296 0.05755 0.0
C822 C 0.42337 0.56931 0.04736 0.0
C823 C 0.40706 0.53226 0.03892 0.0
C824 C 0.40291 0.57525 0.07033 0.0
C825 C 0.42868 0.59036 0.02112 0.0
C826 C 0.46235 0.6125 0.01717 0.0
C827 C 0.47326 0.63536 -0.00504 0.0
C828 C 0.44918 0.63456 0.97551 0.0
C829 C 0.41473 0.61079 0.97827 0.0
C830 C 0.40441 0.58893 0.00174 0.0
H831 H 0.94134 0.49912 0.2392 0.0
H832 H 0.89474 0.39858 0.27055 0.0
H833 H 0.85442 0.37914 0.2287 0.0
H834 H 0.86686 0.49638 0.21857 0.0
H835 H 0.88378 0.52168 0.18716 0.0
H836 H 0.91097 0.52673 0.21754 0.0
H837 H 0.94953 0.516 0.18408 0.0
H838 H 0.9228 0.51156 0.15347 0.0
H839 H 0.93159 0.47884 0.16159 0.0
H840 H 0.81786 0.37179 0.18373 0.0
H841 H 0.78895 0.37725 0.14016 0.0
H842 H 0.85893 0.4835 0.14156 0.0
C843 C 0.92335 0.47283 0.23677 0.0
C844 C 0.92151 0.45016 0.25761 0.0
C845 C 0.89673 0.41617 0.25443 0.0
C846 C 0.87376 0.40499 0.23085 0.0
C847 C 0.87584 0.42825 0.21096 0.0
C848 C 0.90012 0.46145 0.21375 0.0
C849 C 0.89598 0.48197 0.19077 0.0
C850 C 0.88897 0.50822 0.20433 0.0
C851 C 0.9268 0.49802 0.17132 0.0
C852 C 0.86547 0.45523 0.17458 0.0
C853 C 0.85423 0.42432 0.18626 0.0
C854 C 0.82647 0.39591 0.17444 0.0
C855 C 0.81015 0.39924 0.1498 0.0
C856 C 0.82148 0.43082 0.13762 0.0
C857 C 0.84931 0.45903 0.15048 0.0
loop_
_geom_bond_atom_site_label_1
_geom_bond_atom_site_label_2
_geom_bond_distance
_geom_bond_site_symmetry_2
_ccdc_geom_bond_type
H0 C8 0.930 . S
H1 C11 0.930 . S
H2 C13 0.930 . S
H3 C14 0.969 1_655 S
H4 C14 0.970 . S
H5 C16 0.930 . S
H6 C18 0.930 . S
H7 C20 0.930 . S
C8 H0 0.930 . S
C8 C9 1.382 . S
C8 C10 1.426 . S
C9 C8 1.382 . S
C9 C13 1.389 . S
C10 C8 1.426 . S
C10 C11 1.375 . S
C10 C14 1.532 1_655 S
C11 H1 0.930 . S
C11 C10 1.375 . S
C11 C12 1.416 . S
C12 C11 1.416 . S
C12 C13 1.371 . S
C13 H2 0.930 . S
C13 C9 1.389 . S
C13 C12 1.371 . S
C14 H3 0.969 1_455 S
C14 H4 0.970 . S
C14 C10 1.532 1_455 S
C14 C15 1.499 . S
C15 C14 1.499 . S
C15 C16 1.370 . S
C15 C20 1.415 . S
C16 H5 0.930 . S
C16 C15 1.370 . S
C16 C17 1.407 . S
C17 C16 1.407 . S
C17 C18 1.365 . S
C18 H6 0.930 . S
C18 C17 1.365 . S
C18 C19 1.393 . S
C19 C18 1.393 . S
C19 C20 1.387 . S
C20 H7 0.930 . S
C20 C15 1.415 . S
C20 C19 1.387 . S
H21 C29 0.930 . S
H22 C32 0.930 . S
H23 C34 0.930 . S
H24 C35 0.970 . S
H25 C35 0.970 . S
H26 C37 0.930 . S
H27 C39 0.930 . S
H28 C41 0.930 . S
C29 H21 0.930 . S
C29 C30 1.382 . S
C29 C31 1.426 . S
C30 C29 1.382 . S
C30 C34 1.389 . S
C31 C29 1.426 . S
C31 C32 1.375 . S
C31 C35 1.532 1_565 S
C32 H22 0.930 . S
C32 C31 1.375 . S
C32 C33 1.416 . S
C33 C32 1.416 . S
C33 C34 1.371 . S
C34 H23 0.930 . S
C34 C30 1.389 . S
C34 C33 1.371 . S
C35 H24 0.970 . S
C35 H25 0.970 . S
C35 C31 1.532 1_545 S
C35 C36 1.499 . S
C36 C35 1.499 . S
C36 C37 1.370 . S
C36 C41 1.415 . S
C37 H26 0.930 . S
C37 C36 1.370 . S
C37 C38 1.407 . S
C38 C37 1.407 . S
C38 C39 1.365 . S
C39 H27 0.930 . S
C39 C38 1.365 . S
C39 C40 1.393 . S
C40 C39 1.393 . S
C40 C41 1.387 . S
C41 H28 0.930 . S
C41 C36 1.415 . S
C41 C40 1.387 . S
H42 C50 0.930 . S
H43 C53 0.930 . S
H44 C55 0.930 . S
H45 C56 0.970 . S
H46 C56 0.970 . S
H47 C58 0.930 . S
H48 C60 0.930 . S
H49 C62 0.930 . S
C50 H42 0.930 . S
C50 C51 1.382 . S
C50 C52 1.426 . S
C51 C50 1.382 . S
C51 C55 1.389 . S
C52 C50 1.426 . S
C52 C53 1.375 . S
C52 C56 1.532 . S
C53 H43 0.930 . S
C53 C52 1.375 . S
C53 C54 1.416 . S
C54 C53 1.416 . S
C54 C55 1.371 . S
C55 H44 0.930 . S
C55 C51 1.389 . S
C55 C54 1.371 . S
C56 H45 0.970 . S
C56 H46 0.970 . S
C56 C52 1.532 . S
C56 C57 1.499 . S
C57 C56 1.499 . S
C57 C58 1.370 . S
C57 C62 1.415 . S
C58 H47 0.930 . S
C58 C57 1.370 . S
C58 C59 1.407 . S
C59 C58 1.407 . S
C59 C60 1.365 . S
C60 H48 0.930 . S
C60 C59 1.365 . S
C60 C61 1.393 . S
C61 C60 1.393 . S
C61 C62 1.387 . S
C62 H49 0.930 . S
C62 C57 1.415 . S
C62 C61 1.387 . S
H63 C71 0.930 . S
H64 C74 0.930 . S
H65 C76 0.930 . S
H66 C77 0.970 . S
H67 C77 0.970 . S
H68 C79 0.930 . S
H69 C81 0.930 . S
H70 C83 0.930 . S
C71 H63 0.930 . S
C71 C72 1.382 . S
C71 C73 1.426 . S
C72 C71 1.382 . S
C72 C76 1.389 . S
C73 C71 1.426 . S
C73 C74 1.375 . S
C73 C77 1.532 1_655 S
C74 H64 0.930 . S
C74 C73 1.375 . S
C74 C75 1.416 . S
C75 C74 1.416 . S
C75 C76 1.371 . S
C76 H65 0.930 . S
C76 C72 1.389 . S
C76 C75 1.371 . S
C77 H66 0.970 . S
C77 H67 0.970 . S
C77 C73 1.532 1_455 S
C77 C78 1.499 . S
C78 C77 1.499 . S
C78 C79 1.370 . S
C78 C83 1.415 . S
C79 H68 0.930 . S
C79 C78 1.370 . S
C79 C80 1.407 . S
C80 C79 1.407 . S
C80 C81 1.365 . S
C81 H69 0.930 . S
C81 C80 1.365 . S
C81 C82 1.393 . S
C82 C81 1.393 . S
C82 C83 1.387 . S
C83 H70 0.930 . S
C83 C78 1.415 . S
C83 C82 1.387 . S
H84 C92 0.930 . S
H85 C95 0.930 . S
H86 C97 0.930 . S
H87 C98 0.970 1_554 S
H88 C98 0.970 . S
H89 C100 0.930 . S
H90 C102 0.930 . S
H91 C104 0.930 . S
C92 H84 0.930 . S
C92 C93 1.382 1_554 S
C92 C94 1.426 1_554 S
C93 C92 1.382 1_556 S
C93 C97 1.389 . S
C94 C92 1.426 1_556 S
C94 C95 1.375 . S
C94 C98 1.532 . S
C95 H85 0.930 . S
C95 C94 1.375 . S
C95 C96 1.416 . S
C96 C95 1.416 . S
C96 C97 1.371 . S
C97 H86 0.930 . S
C97 C93 1.389 . S
C97 C96 1.371 . S
C98 H87 0.970 1_556 S
C98 H88 0.970 . S
C98 C94 1.532 . S
C98 C99 1.499 1_545 S
C99 C98 1.499 1_565 S
C99 C100 1.370 1_556 S
C99 C104 1.415 . S
C100 H89 0.930 . S
C100 C99 1.370 1_554 S
C100 C101 1.407 . S
C101 C100 1.407 . S
C101 C102 1.365 . S
C102 H90 0.930 . S
C102 C101 1.365 . S
C102 C103 1.393 1_554 S
C103 C102 1.393 1_556 S
C103 C104 1.387 . S
C104 H91 0.930 . S
C104 C99 1.415 . S
C104 C103 1.387 . S
H105 C113 0.930 . S
H106 C116 0.930 . S
H107 C118 0.930 . S
H108 C119 0.970 . S
H109 C119 0.970 . S
H110 C121 0.930 . S
H111 C123 0.930 . S
H112 C125 0.930 . S
C113 H105 0.930 . S
C113 C114 1.382 . S
C113 C115 1.426 . S
C114 C113 1.382 . S
C114 C118 1.389 . S
C115 C113 1.426 . S
C115 C116 1.375 . S
C115 C119 1.532 . S
C116 H106 0.930 . S
C116 C115 1.375 . S
C116 C117 1.416 . S
C117 C116 1.416 . S
C117 C118 1.371 . S
C118 H107 0.930 . S
C118 C114 1.389 . S
C118 C117 1.371 . S
C119 H108 0.970 . S
C119 H109 0.970 . S
C119 C115 1.532 . S
C119 C120 1.499 . S
C120 C119 1.499 . S
C120 C121 1.370 . S
C120 C125 1.415 . S
C121 H110 0.930 . S
C121 C120 1.370 . S
C121 C122 1.407 . S
C122 C121 1.407 . S
C122 C123 1.365 . S
C123 H111 0.930 . S
C123 C122 1.365 . S
C123 C124 1.393 . S
C124 C123 1.393 . S
C124 C125 1.387 . S
C125 H112 0.930 . S
C125 C120 1.415 . S
C125 C124 1.387 . S
Zn126 O129 2.031 . S
Zn126 O131 2.049 . S
Zn126 O136 2.067 . S
Zn127 O128 1.962 . S
Zn127 O130 1.986 . S
Zn127 O132 1.996 . S
Zn127 O135 1.943 . S
O128 Zn127 1.962 . S
O128 C133 1.254 . S
O129 Zn126 2.031 . S
O129 C133 1.269 . S
O130 Zn127 1.986 . S
O130 C137 1.262 . S
O131 Zn126 2.049 . S
O131 C139 1.260 . S
O132 Zn127 1.996 . S
O132 C139 1.257 . S
C133 O128 1.254 . S
C133 O129 1.269 . S
C134 O135 1.249 . S
C134 O136 1.270 . S
O135 Zn127 1.943 . S
O135 C134 1.249 . S
O136 Zn126 2.067 . S
O136 C134 1.270 . S
C137 O130 1.262 . S
C137 O138 1.232 . S
O138 C137 1.232 . S
C139 O131 1.260 . S
C139 O132 1.257 . S
Zn140 O143 2.031 . S
Zn140 O145 2.049 . S
Zn140 O150 2.067 . S
Zn141 O142 1.962 . S
Zn141 O144 1.986 . S
Zn141 O146 1.996 . S
Zn141 O149 1.943 . S
O142 Zn141 1.962 . S
O142 C147 1.254 . S
O143 Zn140 2.031 . S
O143 C147 1.269 . S
O144 Zn141 1.986 . S
O144 C151 1.262 . S
O145 Zn140 2.049 . S
O145 C153 1.260 . S
O146 Zn141 1.996 . S
O146 C153 1.257 . S
C147 O142 1.254 . S
C147 O143 1.269 . S
C148 O149 1.249 . S
C148 O150 1.270 . S
O149 Zn141 1.943 . S
O149 C148 1.249 . S
O150 Zn140 2.067 . S
O150 C148 1.270 . S
C151 O144 1.262 . S
C151 O152 1.232 . S
O152 C151 1.232 . S
C153 O145 1.260 . S
C153 O146 1.257 . S
Zn154 O157 2.031 . S
Zn154 O159 2.049 . S
Zn154 O164 2.067 . S
Zn155 O156 1.962 . S
Zn155 O158 1.986 . S
Zn155 O160 1.996 . S
Zn155 O163 1.943 . S
O156 Zn155 1.962 . S
O156 C161 1.254 . S
O157 Zn154 2.031 . S
O157 C161 1.269 . S
O158 Zn155 1.986 . S
O158 C165 1.262 . S
O159 Zn154 2.049 . S
O159 C167 1.260 . S
O160 Zn155 1.996 . S
O160 C167 1.257 . S
C161 O156 1.254 . S
C161 O157 1.269 . S
C162 O163 1.249 . S
C162 O164 1.270 . S
O163 Zn155 1.943 . S
O163 C162 1.249 . S
O164 Zn154 2.067 . S
O164 C162 1.270 . S
C165 O158 1.262 . S
C165 O166 1.232 . S
O166 C165 1.232 . S
C167 O159 1.260 . S
C167 O160 1.257 . S
Zn168 O171 2.031 . S
Zn168 O173 2.049 . S
Zn168 O178 2.067 . S
Zn169 O170 1.962 . S
Zn169 O172 1.986 . S
Zn169 O174 1.996 . S
Zn169 O177 1.943 . S
O170 Zn169 1.962 . S
O170 C175 1.254 . S
O171 Zn168 2.031 . S
O171 C175 1.269 . S
O172 Zn169 1.986 . S
O172 C179 1.262 . S
O173 Zn168 2.049 . S
O173 C181 1.260 . S
O174 Zn169 1.996 . S
O174 C181 1.257 . S
C175 O170 1.254 . S
C175 O171 1.269 . S
C176 O177 1.249 . S
C176 O178 1.270 . S
O177 Zn169 1.943 . S
O177 C176 1.249 . S
O178 Zn168 2.067 . S
O178 C176 1.270 . S
C179 O172 1.262 . S
C179 O180 1.232 . S
O180 C179 1.232 . S
C181 O173 1.260 . S
C181 O174 1.257 . S
Zn182 O185 2.031 . S
Zn182 O187 2.049 . S
Zn182 O192 2.067 . S
Zn183 O184 1.962 . S
Zn183 O186 1.986 . S
Zn183 O188 1.996 . S
Zn183 O191 1.943 . S
O184 Zn183 1.962 . S
O184 C189 1.254 . S
O185 Zn182 2.031 . S
O185 C189 1.269 . S
O186 Zn183 1.986 . S
O186 C193 1.262 . S
O187 Zn182 2.049 . S
O187 C195 1.260 . S
O188 Zn183 1.996 . S
O188 C195 1.257 . S
C189 O184 1.254 . S
C189 O185 1.269 . S
C190 O191 1.249 . S
C190 O192 1.270 . S
O191 Zn183 1.943 . S
O191 C190 1.249 . S
O192 Zn182 2.067 . S
O192 C190 1.270 . S
C193 O186 1.262 . S
C193 O194 1.232 . S
O194 C193 1.232 . S
C195 O187 1.260 . S
C195 O188 1.257 . S
Zn196 O199 2.031 . S
Zn196 O201 2.049 . S
Zn196 O206 2.067 . S
Zn197 O198 1.962 . S
Zn197 O200 1.986 . S
Zn197 O202 1.996 . S
Zn197 O205 1.943 . S
O198 Zn197 1.962 . S
O198 C203 1.254 . S
O199 Zn196 2.031 . S
O199 C203 1.269 . S
O200 Zn197 1.986 . S
O200 C207 1.262 . S
O201 Zn196 2.049 . S
O201 C209 1.260 . S
O202 Zn197 1.996 . S
O202 C209 1.257 . S
C203 O198 1.254 . S
C203 O199 1.269 . S
C204 O205 1.249 . S
C204 O206 1.270 . S
O205 Zn197 1.943 . S
O205 C204 1.249 . S
O206 Zn196 2.067 . S
O206 C204 1.270 . S
C207 O200 1.262 . S
C207 O208 1.232 . S
O208 C207 1.232 . S
C209 O201 1.260 . S
C209 O202 1.257 . S
H210 C222 0.930 . S
H211 C224 0.930 . S
H212 C225 0.930 . S
H213 C229 0.959 . S
H214 C229 0.959 . S
H215 C229 0.961 . S
H216 C230 0.960 . S
H217 C230 0.961 . S
H218 C230 0.959 . S
H219 C233 0.929 . S
H220 C234 0.931 . S
H221 C236 0.930 . S
C222 H210 0.930 . S
C222 C223 1.399 . S
C222 C227 1.399 . S
C223 C222 1.399 . S
C223 C224 1.376 . S
C224 H211 0.930 . S
C224 C223 1.376 . S
C224 C225 1.388 . S
C225 H212 0.930 . S
C225 C224 1.388 . S
C225 C226 1.390 . S
C226 C225 1.390 . S
C226 C227 1.394 . S
C226 C232 1.465 . S
C227 C222 1.399 . S
C227 C226 1.394 . S
C227 C228 1.516 . S
C228 C227 1.516 . S
C228 C229 1.502 . S
C228 C230 1.561 . S
C228 C231 1.526 . S
C229 H213 0.959 . S
C229 H214 0.959 . S
C229 H215 0.961 . S
C229 C228 1.502 . S
C230 H216 0.960 . S
C230 H217 0.961 . S
C230 H218 0.959 . S
C230 C228 1.561 . S
C231 C228 1.526 . S
C231 C232 1.396 . S
C231 C236 1.390 . S
C232 C226 1.465 . S
C232 C231 1.396 . S
C232 C233 1.399 . S
C233 H219 0.929 . S
C233 C232 1.399 . S
C233 C234 1.385 . S
C234 H220 0.931 . S
C234 C233 1.385 . S
C234 C235 1.389 . S
C235 C234 1.389 . S
C235 C236 1.387 . S
C236 H221 0.930 . S
C236 C231 1.390 . S
C236 C235 1.387 . S
H237 C249 0.930 . S
H238 C251 0.930 . S
H239 C252 0.930 . S
H240 C256 0.959 . S
H241 C256 0.959 . S
H242 C256 0.961 . S
H243 C257 0.960 . S
H244 C257 0.961 . S
H245 C257 0.959 . S
H246 C260 0.929 . S
H247 C261 0.931 . S
H248 C263 0.930 . S
C249 H237 0.930 . S
C249 C250 1.399 . S
C249 C254 1.399 . S
C250 C249 1.399 . S
C250 C251 1.376 . S
C251 H238 0.930 . S
C251 C250 1.376 . S
C251 C252 1.388 . S
C252 H239 0.930 . S
C252 C251 1.388 . S
C252 C253 1.390 . S
C253 C252 1.390 . S
C253 C254 1.394 . S
C253 C259 1.465 . S
C254 C249 1.399 . S
C254 C253 1.394 . S
C254 C255 1.516 . S
C255 C254 1.516 . S
C255 C256 1.502 . S
C255 C257 1.561 . S
C255 C258 1.526 . S
C256 H240 0.959 . S
C256 H241 0.959 . S
C256 H242 0.961 . S
C256 C255 1.502 . S
C257 H243 0.960 . S
C257 H244 0.961 . S
C257 H245 0.959 . S
C257 C255 1.561 . S
C258 C255 1.526 . S
C258 C259 1.396 . S
C258 C263 1.390 . S
C259 C253 1.465 . S
C259 C258 1.396 . S
C259 C260 1.399 . S
C260 H246 0.929 . S
C260 C259 1.399 . S
C260 C261 1.385 . S
C261 H247 0.931 . S
C261 C260 1.385 . S
C261 C262 1.389 . S
C262 C261 1.389 . S
C262 C263 1.387 . S
C263 H248 0.930 . S
C263 C258 1.390 . S
C263 C262 1.387 . S
H264 C276 0.930 . S
H265 C278 0.930 . S
H266 C279 0.930 . S
H267 C283 0.959 . S
H268 C283 0.959 . S
H269 C283 0.961 . S
H270 C284 0.960 . S
H271 C284 0.961 . S
H272 C284 0.959 . S
H273 C287 0.929 . S
H274 C288 0.931 . S
H275 C290 0.930 . S
C276 H264 0.930 . S
C276 C277 1.399 . S
C276 C281 1.399 . S
C277 C276 1.399 . S
C277 C278 1.376 . S
C278 H265 0.930 . S
C278 C277 1.376 . S
C278 C279 1.388 . S
C279 H266 0.930 . S
C279 C278 1.388 . S
C279 C280 1.390 . S
C280 C279 1.390 . S
C280 C281 1.394 . S
C280 C286 1.465 . S
C281 C276 1.399 . S
C281 C280 1.394 . S
C281 C282 1.516 . S
C282 C281 1.516 . S
C282 C283 1.502 . S
C282 C284 1.561 . S
C282 C285 1.526 . S
C283 H267 0.959 . S
C283 H268 0.959 . S
C283 H269 0.961 . S
C283 C282 1.502 . S
C284 H270 0.960 . S
C284 H271 0.961 . S
C284 H272 0.959 . S
C284 C282 1.561 . S
C285 C282 1.526 . S
C285 C286 1.396 . S
C285 C290 1.390 . S
C286 C280 1.465 . S
C286 C285 1.396 . S
C286 C287 1.399 . S
C287 H273 0.929 . S
C287 C286 1.399 . S
C287 C288 1.385 . S
C288 H274 0.931 . S
C288 C287 1.385 . S
C288 C289 1.389 . S
C289 C288 1.389 . S
C289 C290 1.387 . S
C290 H275 0.930 . S
C290 C285 1.390 . S
C290 C289 1.387 . S
H291 C303 0.930 . S
H292 C305 0.930 . S
H293 C306 0.930 . S
H294 C310 0.959 . S
H295 C310 0.959 . S
H296 C310 0.961 . S
H297 C311 0.960 . S
H298 C311 0.961 . S
H299 C311 0.959 . S
H300 C314 0.929 . S
H301 C315 0.931 . S
H302 C317 0.930 . S
C303 H291 0.930 . S
C303 C304 1.399 . S
C303 C308 1.399 . S
C304 C303 1.399 . S
C304 C305 1.376 . S
C305 H292 0.930 . S
C305 C304 1.376 . S
C305 C306 1.388 . S
C306 H293 0.930 . S
C306 C305 1.388 . S
C306 C307 1.390 . S
C307 C306 1.390 . S
C307 C308 1.394 . S
C307 C313 1.465 . S
C308 C303 1.399 . S
C308 C307 1.394 . S
C308 C309 1.516 . S
C309 C308 1.516 . S
C309 C310 1.502 . S
C309 C311 1.561 . S
C309 C312 1.526 . S
C310 H294 0.959 . S
C310 H295 0.959 . S
C310 H296 0.961 . S
C310 C309 1.502 . S
C311 H297 0.960 . S
C311 H298 0.961 . S
C311 H299 0.959 . S
C311 C309 1.561 . S
C312 C309 1.526 . S
C312 C313 1.396 . S
C312 C317 1.390 . S
C313 C307 1.465 . S
C313 C312 1.396 . S
C313 C314 1.399 . S
C314 H300 0.929 . S
C314 C313 1.399 . S
C314 C315 1.385 . S
C315 H301 0.931 . S
C315 C314 1.385 . S
C315 C316 1.389 . S
C316 C315 1.389 . S
C316 C317 1.387 . S
C317 H302 0.930 . S
C317 C312 1.390 . S
C317 C316 1.387 . S
H318 C330 0.930 . S
H319 C332 0.930 1_554 S
H320 C333 0.930 1_554 S
H321 C337 0.959 . S
H322 C337 0.959 . S
H323 C337 0.961 . S
H324 C338 0.960 . S
H325 C338 0.961 . S
H326 C338 0.959 . S
H327 C341 0.929 . S
H328 C342 0.931 . S
H329 C344 0.930 . S
C330 H318 0.930 . S
C330 C331 1.399 . S
C330 C335 1.399 . S
C331 C330 1.399 . S
C331 C332 1.376 . S
C332 H319 0.930 1_556 S
C332 C331 1.376 . S
C332 C333 1.388 . S
C333 H320 0.930 1_556 S
C333 C332 1.388 . S
C333 C334 1.390 . S
C334 C333 1.390 . S
C334 C335 1.394 . S
C334 C340 1.465 . S
C335 C330 1.399 . S
C335 C334 1.394 . S
C335 C336 1.516 . S
C336 C335 1.516 . S
C336 C337 1.502 . S
C336 C338 1.561 . S
C336 C339 1.526 . S
C337 H321 0.959 . S
C337 H322 0.959 . S
C337 H323 0.961 . S
C337 C336 1.502 . S
C338 H324 0.960 . S
C338 H325 0.961 . S
C338 H326 0.959 . S
C338 C336 1.561 . S
C339 C336 1.526 . S
C339 C340 1.396 . S
C339 C344 1.390 . S
C340 C334 1.465 . S
C340 C339 1.396 . S
C340 C341 1.399 . S
C341 H327 0.929 . S
C341 C340 1.399 . S
C341 C342 1.385 . S
C342 H328 0.931 . S
C342 C341 1.385 . S
C342 C343 1.389 . S
C343 C342 1.389 . S
C343 C344 1.387 . S
C344 H329 0.930 . S
C344 C339 1.390 . S
C344 C343 1.387 . S
H345 C357 0.930 . S
H346 C359 0.930 . S
H347 C360 0.930 . S
H348 C364 0.959 . S
H349 C364 0.959 . S
H350 C364 0.961 . S
H351 C365 0.960 . S
H352 C365 0.961 . S
H353 C365 0.959 . S
H354 C368 0.929 . S
H355 C369 0.931 . S
H356 C371 0.930 . S
C357 H345 0.930 . S
C357 C358 1.399 . S
C357 C362 1.399 . S
C358 C357 1.399 . S
C358 C359 1.376 . S
C359 H346 0.930 . S
C359 C358 1.376 . S
C359 C360 1.388 . S
C360 H347 0.930 . S
C360 C359 1.388 . S
C360 C361 1.390 . S
C361 C360 1.390 . S
C361 C362 1.394 . S
C361 C367 1.465 . S
C362 C357 1.399 . S
C362 C361 1.394 . S
C362 C363 1.516 . S
C363 C362 1.516 . S
C363 C364 1.502 . S
C363 C365 1.561 . S
C363 C366 1.526 . S
C364 H348 0.959 . S
C364 H349 0.959 . S
C364 H350 0.961 . S
C364 C363 1.502 . S
C365 H351 0.960 . S
C365 H352 0.961 . S
C365 H353 0.959 . S
C365 C363 1.561 . S
C366 C363 1.526 . S
C366 C367 1.396 . S
C366 C371 1.390 . S
C367 C361 1.465 . S
C367 C366 1.396 . S
C367 C368 1.399 . S
C368 H354 0.929 . S
C368 C367 1.399 . S
C368 C369 1.385 . S
C369 H355 0.931 . S
C369 C368 1.385 . S
C369 C370 1.389 . S
C370 C369 1.389 . S
C370 C371 1.387 . S
C371 H356 0.930 . S
C371 C366 1.390 . S
C371 C370 1.387 . S
H372 C384 0.930 . S
H373 C386 0.930 . S
H374 C387 0.930 . S
H375 C391 0.959 . S
H376 C391 0.959 . S
H377 C391 0.961 . S
H378 C392 0.960 . S
H379 C392 0.961 . S
H380 C392 0.959 . S
H381 C395 0.929 . S
H382 C396 0.931 . S
H383 C398 0.930 . S
C384 H372 0.930 . S
C384 C385 1.399 . S
C384 C389 1.399 . S
C385 C384 1.399 . S
C385 C386 1.376 . S
C386 H373 0.930 . S
C386 C385 1.376 . S
C386 C387 1.388 . S
C387 H374 0.930 . S
C387 C386 1.388 . S
C387 C388 1.390 . S
C388 C387 1.390 . S
C388 C389 1.394 . S
C388 C394 1.465 . S
C389 C384 1.399 . S
C389 C388 1.394 . S
C389 C390 1.516 . S
C390 C389 1.516 . S
C390 C391 1.502 . S
C390 C392 1.561 . S
C390 C393 1.526 . S
C391 H375 0.959 . S
C391 H376 0.959 . S
C391 H377 0.961 . S
C391 C390 1.502 . S
C392 H378 0.960 . S
C392 H379 0.961 . S
C392 H380 0.959 . S
C392 C390 1.561 . S
C393 C390 1.526 . S
C393 C394 1.396 . S
C393 C398 1.390 . S
C394 C388 1.465 . S
C394 C393 1.396 . S
C394 C395 1.399 . S
C395 H381 0.929 . S
C395 C394 1.399 . S
C395 C396 1.385 . S
C396 H382 0.931 . S
C396 C395 1.385 . S
C396 C397 1.389 . S
C397 C396 1.389 . S
C397 C398 1.387 . S
C398 H383 0.930 . S
C398 C393 1.390 . S
C398 C397 1.387 . S
H399 C411 0.930 . S
H400 C413 0.930 . S
H401 C414 0.930 . S
H402 C418 0.959 . S
H403 C418 0.959 . S
H404 C418 0.961 . S
H405 C419 0.960 . S
H406 C419 0.961 . S
H407 C419 0.959 . S
H408 C422 0.929 . S
H409 C423 0.931 . S
H410 C425 0.930 . S
C411 H399 0.930 . S
C411 C412 1.399 . S
C411 C416 1.399 . S
C412 C411 1.399 . S
C412 C413 1.376 . S
C413 H400 0.930 . S
C413 C412 1.376 . S
C413 C414 1.388 . S
C414 H401 0.930 . S
C414 C413 1.388 . S
C414 C415 1.390 . S
C415 C414 1.390 . S
C415 C416 1.394 . S
C415 C421 1.465 . S
C416 C411 1.399 . S
C416 C415 1.394 . S
C416 C417 1.516 . S
C417 C416 1.516 . S
C417 C418 1.502 . S
C417 C419 1.561 . S
C417 C420 1.526 . S
C418 H402 0.959 . S
C418 H403 0.959 . S
C418 H404 0.961 . S
C418 C417 1.502 . S
C419 H405 0.960 . S
C419 H406 0.961 . S
C419 H407 0.959 . S
C419 C417 1.561 . S
C420 C417 1.526 . S
C420 C421 1.396 . S
C420 C425 1.390 . S
C421 C415 1.465 . S
C421 C420 1.396 . S
C421 C422 1.399 . S
C422 H408 0.929 . S
C422 C421 1.399 . S
C422 C423 1.385 . S
C423 H409 0.931 . S
C423 C422 1.385 . S
C423 C424 1.389 . S
C424 C423 1.389 . S
C424 C425 1.387 . S
C425 H410 0.930 . S
C425 C420 1.390 . S
C425 C424 1.387 . S
H426 C438 0.930 . S
H427 C440 0.930 . S
H428 C441 0.930 . S
H429 C445 0.959 . S
H430 C445 0.959 . S
H431 C445 0.961 . S
H432 C446 0.960 . S
H433 C446 0.961 . S
H434 C446 0.959 . S
H435 C449 0.929 . S
H436 C450 0.931 . S
H437 C452 0.930 . S
C438 H426 0.930 . S
C438 C439 1.399 . S
C438 C443 1.399 . S
C439 C438 1.399 . S
C439 C440 1.376 . S
C440 H427 0.930 . S
C440 C439 1.376 . S
C440 C441 1.388 . S
C441 H428 0.930 . S
C441 C440 1.388 . S
C441 C442 1.390 . S
C442 C441 1.390 . S
C442 C443 1.394 . S
C442 C448 1.465 . S
C443 C438 1.399 . S
C443 C442 1.394 . S
C443 C444 1.516 . S
C444 C443 1.516 . S
C444 C445 1.502 . S
C444 C446 1.561 . S
C444 C447 1.526 . S
C445 H429 0.959 . S
C445 H430 0.959 . S
C445 H431 0.961 . S
C445 C444 1.502 . S
C446 H432 0.960 . S
C446 H433 0.961 . S
C446 H434 0.959 . S
C446 C444 1.561 . S
C447 C444 1.526 . S
C447 C448 1.396 . S
C447 C452 1.390 . S
C448 C442 1.465 . S
C448 C447 1.396 . S
C448 C449 1.399 . S
C449 H435 0.929 . S
C449 C448 1.399 . S
C449 C450 1.385 . S
C450 H436 0.931 . S
C450 C449 1.385 . S
C450 C451 1.389 . S
C451 C450 1.389 . S
C451 C452 1.387 . S
C452 H437 0.930 . S
C452 C447 1.390 . S
C452 C451 1.387 . S
H453 C465 0.930 1_556 S
H454 C467 0.930 . S
H455 C468 0.930 . S
H456 C472 0.959 . S
H457 C472 0.959 . S
H458 C472 0.973 . S
H459 C473 0.960 . S
H460 C473 0.961 . S
H461 C473 0.959 . S
H462 C476 0.929 . S
H463 C477 0.931 . S
H464 C479 0.930 . S
C465 H453 0.930 1_554 S
C465 C466 1.399 . S
C465 C470 1.399 . S
C466 C465 1.399 . S
C466 C467 1.376 . S
C467 H454 0.930 . S
C467 C466 1.376 . S
C467 C468 1.388 . S
C468 H455 0.930 . S
C468 C467 1.388 . S
C468 C469 1.390 . S
C469 C468 1.390 . S
C469 C470 1.394 . S
C469 C475 1.465 . S
C470 C465 1.399 . S
C470 C469 1.394 . S
C470 C471 1.516 . S
C471 C470 1.516 . S
C471 C472 1.502 . S
C471 C473 1.561 1_554 S
C471 C474 1.526 . S
C472 H456 0.959 . S
C472 H457 0.959 . S
C472 H458 0.973 . S
C472 C471 1.502 . S
C473 H459 0.960 . S
C473 H460 0.961 . S
C473 H461 0.959 . S
C473 C471 1.561 1_556 S
C474 C471 1.526 . S
C474 C475 1.396 . S
C474 C479 1.390 . S
C475 C469 1.465 . S
C475 C474 1.396 . S
C475 C476 1.399 . S
C476 H462 0.929 . S
C476 C475 1.399 . S
C476 C477 1.385 . S
C477 H463 0.931 . S
C477 C476 1.385 . S
C477 C478 1.389 . S
C478 C477 1.389 . S
C478 C479 1.387 . S
C479 H464 0.930 . S
C479 C474 1.390 . S
C479 C478 1.387 . S
H480 C492 0.930 . S
H481 C494 0.930 . S
H482 C495 0.930 . S
H483 C499 0.959 . S
H484 C499 0.959 . S
H485 C499 0.961 . S
H486 C500 0.960 . S
H487 C500 0.961 . S
H488 C500 0.959 . S
H489 C503 0.929 . S
H490 C504 0.931 . S
H491 C506 0.930 . S
C492 H480 0.930 . S
C492 C493 1.399 . S
C492 C497 1.399 . S
C493 C492 1.399 . S
C493 C494 1.376 . S
C494 H481 0.930 . S
C494 C493 1.376 . S
C494 C495 1.388 . S
C495 H482 0.930 . S
C495 C494 1.388 . S
C495 C496 1.390 . S
C496 C495 1.390 . S
C496 C497 1.394 . S
C496 C502 1.465 . S
C497 C492 1.399 . S
C497 C496 1.394 . S
C497 C498 1.516 . S
C498 C497 1.516 . S
C498 C499 1.502 . S
C498 C500 1.561 . S
C498 C501 1.526 . S
C499 H483 0.959 . S
C499 H484 0.959 . S
C499 H485 0.961 . S
C499 C498 1.502 . S
C500 H486 0.960 . S
C500 H487 0.961 . S
C500 H488 0.959 . S
C500 C498 1.561 . S
C501 C498 1.526 . S
C501 C502 1.396 . S
C501 C506 1.390 . S
C502 C496 1.465 . S
C502 C501 1.396 . S
C502 C503 1.399 . S
C503 H489 0.929 . S
C503 C502 1.399 . S
C503 C504 1.385 . S
C504 H490 0.931 . S
C504 C503 1.385 . S
C504 C505 1.389 . S
C505 C504 1.389 . S
C505 C506 1.387 . S
C506 H491 0.930 . S
C506 C501 1.390 . S
C506 C505 1.387 . S
H507 C519 0.930 . S
H508 C521 0.930 . S
H509 C522 0.930 . S
H510 C526 0.959 . S
H511 C526 0.959 . S
H512 C526 0.961 . S
H513 C527 0.960 . S
H514 C527 0.961 . S
H515 C527 0.959 . S
H516 C530 0.929 . S
H517 C531 0.931 . S
H518 C533 0.930 . S
C519 H507 0.930 . S
C519 C520 1.399 . S
C519 C524 1.399 . S
C520 C519 1.399 . S
C520 C521 1.376 . S
C521 H508 0.930 . S
C521 C520 1.376 . S
C521 C522 1.388 . S
C522 H509 0.930 . S
C522 C521 1.388 . S
C522 C523 1.390 . S
C523 C522 1.390 . S
C523 C524 1.394 . S
C523 C529 1.465 . S
C524 C519 1.399 . S
C524 C523 1.394 . S
C524 C525 1.516 . S
C525 C524 1.516 . S
C525 C526 1.502 . S
C525 C527 1.561 . S
C525 C528 1.526 . S
C526 H510 0.959 . S
C526 H511 0.959 . S
C526 H512 0.961 . S
C526 C525 1.502 . S
C527 H513 0.960 . S
C527 H514 0.961 . S
C527 H515 0.959 . S
C527 C525 1.561 . S
C528 C525 1.526 . S
C528 C529 1.396 . S
C528 C533 1.390 . S
C529 C523 1.465 . S
C529 C528 1.396 . S
C529 C530 1.399 . S
C530 H516 0.929 . S
C530 C529 1.399 . S
C530 C531 1.385 . S
C531 H517 0.931 . S
C531 C530 1.385 . S
C531 C532 1.389 . S
C532 C531 1.389 . S
C532 C533 1.387 . S
C533 H518 0.930 . S
C533 C528 1.390 . S
C533 C532 1.387 . S
H534 C546 0.930 . S
H535 C548 0.930 . S
H536 C549 0.930 . S
H537 C553 0.959 . S
H538 C553 0.959 . S
H539 C553 0.961 . S
H540 C554 0.960 . S
H541 C554 0.961 . S
H542 C554 0.959 . S
H543 C557 0.929 . S
H544 C558 0.931 . S
H545 C560 0.930 . S
C546 H534 0.930 . S
C546 C547 1.399 . S
C546 C551 1.399 . S
C547 C546 1.399 . S
C547 C548 1.376 . S
C548 H535 0.930 . S
C548 C547 1.376 . S
C548 C549 1.388 . S
C549 H536 0.930 . S
C549 C548 1.388 . S
C549 C550 1.390 . S
C550 C549 1.390 . S
C550 C551 1.394 . S
C550 C556 1.465 . S
C551 C546 1.399 . S
C551 C550 1.394 . S
C551 C552 1.516 . S
C552 C551 1.516 . S
C552 C553 1.502 . S
C552 C554 1.561 . S
C552 C555 1.526 . S
C553 H537 0.959 . S
C553 H538 0.959 . S
C553 H539 0.961 . S
C553 C552 1.502 . S
C554 H540 0.960 . S
C554 H541 0.961 . S
C554 H542 0.959 . S
C554 C552 1.561 . S
C555 C552 1.526 . S
C555 C556 1.396 . S
C555 C560 1.390 . S
C556 C550 1.465 . S
C556 C555 1.396 . S
C556 C557 1.399 . S
C557 H543 0.929 . S
C557 C556 1.399 . S
C557 C558 1.385 . S
C558 H544 0.931 . S
C558 C557 1.385 . S
C558 C559 1.389 . S
C559 C558 1.389 . S
C559 C560 1.387 . S
C560 H545 0.930 . S
C560 C555 1.390 . S
C560 C559 1.387 . S
H561 C573 0.930 . S
H562 C575 0.930 . S
H563 C576 0.930 . S
H564 C580 0.959 . S
H565 C580 0.959 . S
H566 C580 0.961 . S
H567 C581 0.960 . S
H568 C581 0.961 . S
H569 C581 0.959 . S
H570 C584 0.929 . S
H571 C585 0.931 . S
H572 C587 0.930 . S
C573 H561 0.930 . S
C573 C574 1.399 . S
C573 C578 1.399 . S
C574 C573 1.399 . S
C574 C575 1.376 . S
C575 H562 0.930 . S
C575 C574 1.376 . S
C575 C576 1.388 . S
C576 H563 0.930 . S
C576 C575 1.388 . S
C576 C577 1.390 . S
C577 C576 1.390 . S
C577 C578 1.394 . S
C577 C583 1.465 . S
C578 C573 1.399 . S
C578 C577 1.394 . S
C578 C579 1.516 . S
C579 C578 1.516 . S
C579 C580 1.502 . S
C579 C581 1.561 . S
C579 C582 1.526 . S
C580 H564 0.959 . S
C580 H565 0.959 . S
C580 H566 0.961 . S
C580 C579 1.502 . S
C581 H567 0.960 . S
C581 H568 0.961 . S
C581 H569 0.959 . S
C581 C579 1.561 . S
C582 C579 1.526 . S
C582 C583 1.396 . S
C582 C587 1.390 . S
C583 C577 1.465 . S
C583 C582 1.396 . S
C583 C584 1.399 . S
C584 H570 0.929 . S
C584 C583 1.399 . S
C584 C585 1.385 . S
C585 H571 0.931 . S
C585 C584 1.385 . S
C585 C586 1.389 . S
C586 C585 1.389 . S
C586 C587 1.387 . S
C587 H572 0.930 . S
C587 C582 1.390 . S
C587 C586 1.387 . S
H588 C600 0.930 . S
H589 C602 0.930 . S
H590 C603 0.930 . S
H591 C607 0.959 . S
H592 C607 0.959 . S
H593 C607 0.961 . S
H594 C608 0.960 . S
H595 C608 0.961 . S
H596 C608 0.959 . S
H597 C611 0.929 . S
H598 C612 0.931 . S
H599 C614 0.930 . S
C600 H588 0.930 . S
C600 C601 1.399 . S
C600 C605 1.399 . S
C601 C600 1.399 . S
C601 C602 1.376 . S
C602 H589 0.930 . S
C602 C601 1.376 . S
C602 C603 1.388 . S
C603 H590 0.930 . S
C603 C602 1.388 . S
C603 C604 1.390 . S
C604 C603 1.390 . S
C604 C605 1.394 . S
C604 C610 1.465 . S
C605 C600 1.399 . S
C605 C604 1.394 . S
C605 C606 1.516 . S
C606 C605 1.516 . S
C606 C607 1.502 . S
C606 C608 1.561 . S
C606 C609 1.526 . S
C607 H591 0.959 . S
C607 H592 0.959 . S
C607 H593 0.961 . S
C607 C606 1.502 . S
C608 H594 0.960 . S
C608 H595 0.961 . S
C608 H596 0.959 . S
C608 C606 1.561 . S
C609 C606 1.526 . S
C609 C610 1.396 . S
C609 C614 1.390 . S
C610 C604 1.465 . S
C610 C609 1.396 . S
C610 C611 1.399 . S
C611 H597 0.929 . S
C611 C610 1.399 . S
C611 C612 1.385 . S
C612 H598 0.931 . S
C612 C611 1.385 . S
C612 C613 1.389 . S
C613 C612 1.389 . S
C613 C614 1.387 . S
C614 H599 0.930 . S
C614 C609 1.390 . S
C614 C613 1.387 . S
H615 C627 0.930 . S
H616 C629 0.930 . S
H617 C630 0.930 . S
H618 C634 0.959 . S
H619 C634 0.959 . S
H620 C634 0.961 . S
H621 C635 0.960 . S
H622 C635 0.961 . S
H623 C635 0.959 . S
H624 C638 0.929 . S
H625 C639 0.931 . S
H626 C641 0.930 . S
C627 H615 0.930 . S
C627 C628 1.399 . S
C627 C632 1.399 . S
C628 C627 1.399 . S
C628 C629 1.376 . S
C629 H616 0.930 . S
C629 C628 1.376 . S
C629 C630 1.388 . S
C630 H617 0.930 . S
C630 C629 1.388 . S
C630 C631 1.390 . S
C631 C630 1.390 . S
C631 C632 1.394 . S
C631 C637 1.465 . S
C632 C627 1.399 . S
C632 C631 1.394 . S
C632 C633 1.516 . S
C633 C632 1.516 . S
C633 C634 1.502 . S
C633 C635 1.561 . S
C633 C636 1.526 . S
C634 H618 0.959 . S
C634 H619 0.959 . S
C634 H620 0.961 . S
C634 C633 1.502 . S
C635 H621 0.960 . S
C635 H622 0.961 . S
C635 H623 0.959 . S
C635 C633 1.561 . S
C636 C633 1.526 . S
C636 C637 1.396 . S
C636 C641 1.390 . S
C637 C631 1.465 . S
C637 C636 1.396 . S
C637 C638 1.399 . S
C638 H624 0.929 . S
C638 C637 1.399 . S
C638 C639 1.385 1_556 S
C639 H625 0.931 . S
C639 C638 1.385 1_554 S
C639 C640 1.389 . S
C640 C639 1.389 . S
C640 C641 1.387 1_554 S
C641 H626 0.930 . S
C641 C636 1.390 . S
C641 C640 1.387 1_556 S
H642 C654 0.930 . S
H643 C656 0.930 . S
H644 C657 0.930 . S
H645 C661 0.959 . S
H646 C661 0.959 . S
H647 C661 0.961 . S
H648 C662 0.960 . S
H649 C662 0.961 . S
H650 C662 0.959 . S
H651 C665 0.929 . S
H652 C666 0.931 . S
H653 C668 0.930 . S
C654 H642 0.930 . S
C654 C655 1.399 . S
C654 C659 1.399 . S
C655 C654 1.399 . S
C655 C656 1.376 . S
C656 H643 0.930 . S
C656 C655 1.376 . S
C656 C657 1.388 . S
C657 H644 0.930 . S
C657 C656 1.388 . S
C657 C658 1.390 . S
C658 C657 1.390 . S
C658 C659 1.394 . S
C658 C664 1.465 . S
C659 C654 1.399 . S
C659 C658 1.394 . S
C659 C660 1.516 . S
C660 C659 1.516 . S
C660 C661 1.502 . S
C660 C662 1.561 . S
C660 C663 1.526 . S
C661 H645 0.959 . S
C661 H646 0.959 . S
C661 H647 0.961 . S
C661 C660 1.502 . S
C662 H648 0.960 . S
C662 H649 0.961 . S
C662 H650 0.959 . S
C662 C660 1.561 . S
C663 C660 1.526 . S
C663 C664 1.396 . S
C663 C668 1.390 . S
C664 C658 1.465 . S
C664 C663 1.396 . S
C664 C665 1.399 . S
C665 H651 0.929 . S
C665 C664 1.399 . S
C665 C666 1.385 . S
C666 H652 0.931 . S
C666 C665 1.385 . S
C666 C667 1.389 . S
C667 C666 1.389 . S
C667 C668 1.387 . S
C668 H653 0.930 . S
C668 C663 1.390 . S
C668 C667 1.387 . S
H669 C681 0.930 . S
H670 C683 0.930 . S
H671 C684 0.930 . S
H672 C688 0.959 . S
H673 C688 0.959 . S
H674 C688 0.961 . S
H675 C689 0.960 . S
H676 C689 0.961 . S
H677 C689 0.959 . S
H678 C692 0.929 . S
H679 C693 0.931 . S
H680 C695 0.930 . S
C681 H669 0.930 . S
C681 C682 1.399 . S
C681 C686 1.399 . S
C682 C681 1.399 . S
C682 C683 1.376 . S
C683 H670 0.930 . S
C683 C682 1.376 . S
C683 C684 1.388 . S
C684 H671 0.930 . S
C684 C683 1.388 . S
C684 C685 1.390 . S
C685 C684 1.390 . S
C685 C686 1.394 . S
C685 C691 1.465 . S
C686 C681 1.399 . S
C686 C685 1.394 . S
C686 C687 1.516 . S
C687 C686 1.516 . S
C687 C688 1.502 . S
C687 C689 1.561 . S
C687 C690 1.526 . S
C688 H672 0.959 . S
C688 H673 0.959 . S
C688 H674 0.961 . S
C688 C687 1.502 . S
C689 H675 0.960 . S
C689 H676 0.961 . S
C689 H677 0.959 . S
C689 C687 1.561 . S
C690 C687 1.526 . S
C690 C691 1.396 . S
C690 C695 1.390 . S
C691 C685 1.465 . S
C691 C690 1.396 . S
C691 C692 1.399 . S
C692 H678 0.929 . S
C692 C691 1.399 . S
C692 C693 1.385 . S
C693 H679 0.931 . S
C693 C692 1.385 . S
C693 C694 1.389 . S
C694 C693 1.389 . S
C694 C695 1.387 . S
C695 H680 0.930 . S
C695 C690 1.390 . S
C695 C694 1.387 . S
H696 C708 0.930 . S
H697 C710 0.930 . S
H698 C711 0.930 . S
H699 C715 0.959 . S
H700 C715 0.959 . S
H701 C715 0.961 . S
H702 C716 0.960 . S
H703 C716 0.961 . S
H704 C716 0.959 . S
H705 C719 0.929 . S
H706 C720 0.931 . S
H707 C722 0.930 . S
C708 H696 0.930 . S
C708 C709 1.399 . S
C708 C713 1.399 . S
C709 C708 1.399 . S
C709 C710 1.376 . S
C710 H697 0.930 . S
C710 C709 1.376 . S
C710 C711 1.388 . S
C711 H698 0.930 . S
C711 C710 1.388 . S
C711 C712 1.390 . S
C712 C711 1.390 . S
C712 C713 1.394 . S
C712 C718 1.465 . S
C713 C708 1.399 . S
C713 C712 1.394 . S
C713 C714 1.516 . S
C714 C713 1.516 . S
C714 C715 1.502 . S
C714 C716 1.561 . S
C714 C717 1.526 . S
C715 H699 0.959 . S
C715 H700 0.959 . S
C715 H701 0.961 . S
C715 C714 1.502 . S
C716 H702 0.960 . S
C716 H703 0.961 . S
C716 H704 0.959 . S
C716 C714 1.561 . S
C717 C714 1.526 . S
C717 C718 1.396 . S
C717 C722 1.390 . S
C718 C712 1.465 . S
C718 C717 1.396 . S
C718 C719 1.399 . S
C719 H705 0.929 . S
C719 C718 1.399 . S
C719 C720 1.385 . S
C720 H706 0.931 . S
C720 C719 1.385 . S
C720 C721 1.389 . S
C721 C720 1.389 . S
C721 C722 1.387 . S
C722 H707 0.930 . S
C722 C717 1.390 . S
C722 C721 1.387 . S
H723 C735 0.930 . S
H724 C737 0.930 . S
H725 C738 0.930 . S
H726 C742 0.959 . S
H727 C742 0.959 . S
H728 C742 0.961 . S
H729 C743 0.960 . S
H730 C743 0.961 . S
H731 C743 0.959 . S
H732 C746 0.929 . S
H733 C747 0.931 . S
H734 C749 0.930 . S
C735 H723 0.930 . S
C735 C736 1.399 . S
C735 C740 1.399 . S
C736 C735 1.399 . S
C736 C737 1.376 . S
C737 H724 0.930 . S
C737 C736 1.376 . S
C737 C738 1.388 . S
C738 H725 0.930 . S
C738 C737 1.388 . S
C738 C739 1.390 . S
C739 C738 1.390 . S
C739 C740 1.394 . S
C739 C745 1.465 . S
C740 C735 1.399 . S
C740 C739 1.394 . S
C740 C741 1.516 . S
C741 C740 1.516 . S
C741 C742 1.502 . S
C741 C743 1.561 . S
C741 C744 1.526 . S
C742 H726 0.959 . S
C742 H727 0.959 . S
C742 H728 0.961 . S
C742 C741 1.502 . S
C743 H729 0.960 . S
C743 H730 0.961 . S
C743 H731 0.959 . S
C743 C741 1.561 . S
C744 C741 1.526 . S
C744 C745 1.396 . S
C744 C749 1.390 . S
C745 C739 1.465 . S
C745 C744 1.396 . S
C745 C746 1.399 . S
C746 H732 0.929 . S
C746 C745 1.399 . S
C746 C747 1.385 . S
C747 H733 0.931 . S
C747 C746 1.385 . S
C747 C748 1.389 . S
C748 C747 1.389 . S
C748 C749 1.387 . S
C749 H734 0.930 . S
C749 C744 1.390 . S
C749 C748 1.387 . S
H750 C762 0.930 . S
H751 C764 0.930 . S
H752 C765 0.930 . S
H753 C769 0.959 . S
H754 C769 0.959 . S
H755 C769 0.961 . S
H756 C770 0.960 . S
H757 C770 0.961 . S
H758 C770 0.959 . S
H759 C773 0.929 . S
H760 C774 0.931 . S
H761 C776 0.930 . S
C762 H750 0.930 . S
C762 C763 1.399 . S
C762 C767 1.399 . S
C763 C762 1.399 . S
C763 C764 1.376 . S
C764 H751 0.930 . S
C764 C763 1.376 . S
C764 C765 1.388 . S
C765 H752 0.930 . S
C765 C764 1.388 . S
C765 C766 1.390 . S
C766 C765 1.390 . S
C766 C767 1.394 . S
C766 C772 1.465 . S
C767 C762 1.399 . S
C767 C766 1.394 . S
C767 C768 1.516 . S
C768 C767 1.516 . S
C768 C769 1.502 . S
C768 C770 1.561 . S
C768 C771 1.526 . S
C769 H753 0.959 . S
C769 H754 0.959 . S
C769 H755 0.961 . S
C769 C768 1.502 . S
C770 H756 0.960 . S
C770 H757 0.961 . S
C770 H758 0.959 . S
C770 C768 1.561 . S
C771 C768 1.526 . S
C771 C772 1.396 . S
C771 C776 1.390 . S
C772 C766 1.465 . S
C772 C771 1.396 . S
C772 C773 1.399 . S
C773 H759 0.929 . S
C773 C772 1.399 . S
C773 C774 1.385 . S
C774 H760 0.931 . S
C774 C773 1.385 . S
C774 C775 1.389 . S
C775 C774 1.389 . S
C775 C776 1.387 . S
C776 H761 0.930 . S
C776 C771 1.390 . S
C776 C775 1.387 . S
H777 C789 0.930 . S
H778 C791 0.930 . S
H779 C792 0.930 . S
H780 C796 0.959 . S
H781 C796 0.959 . S
H782 C796 0.961 . S
H783 C797 0.960 . S
H784 C797 0.961 . S
H785 C797 0.959 . S
H786 C800 0.929 . S
H787 C801 0.931 . S
H788 C803 0.930 . S
C789 H777 0.930 . S
C789 C790 1.399 . S
C789 C794 1.399 . S
C790 C789 1.399 . S
C790 C791 1.376 . S
C791 H778 0.930 . S
C791 C790 1.376 . S
C791 C792 1.388 . S
C792 H779 0.930 . S
C792 C791 1.388 . S
C792 C793 1.390 . S
C793 C792 1.390 . S
C793 C794 1.394 . S
C793 C799 1.465 . S
C794 C789 1.399 . S
C794 C793 1.394 . S
C794 C795 1.516 . S
C795 C794 1.516 . S
C795 C796 1.502 . S
C795 C797 1.561 . S
C795 C798 1.526 . S
C796 H780 0.959 . S
C796 H781 0.959 . S
C796 H782 0.961 . S
C796 C795 1.502 . S
C797 H783 0.960 . S
C797 H784 0.961 . S
C797 H785 0.959 . S
C797 C795 1.561 . S
C798 C795 1.526 . S
C798 C799 1.396 . S
C798 C803 1.390 . S
C799 C793 1.465 . S
C799 C798 1.396 . S
C799 C800 1.399 . S
C800 H786 0.929 . S
C800 C799 1.399 . S
C800 C801 1.385 . S
C801 H787 0.931 . S
C801 C800 1.385 . S
C801 C802 1.389 . S
C802 C801 1.389 . S
C802 C803 1.387 . S
C803 H788 0.930 . S
C803 C798 1.390 . S
C803 C802 1.387 . S
H804 C816 0.930 . S
H805 C818 0.930 . S
H806 C819 0.930 . S
H807 C823 0.959 1_554 S
H808 C823 0.959 . S
H809 C823 0.961 1_554 S
H810 C824 0.960 1_554 S
H811 C824 0.961 . S
H812 C824 0.959 1_554 S
H813 C827 0.929 . S
H814 C828 0.931 . S
H815 C830 0.930 . S
C816 H804 0.930 . S
C816 C817 1.399 . S
C816 C821 1.399 . S
C817 C816 1.399 . S
C817 C818 1.376 . S
C818 H805 0.930 . S
C818 C817 1.376 . S
C818 C819 1.388 . S
C819 H806 0.930 . S
C819 C818 1.388 . S
C819 C820 1.390 . S
C820 C819 1.390 . S
C820 C821 1.394 . S
C820 C826 1.465 . S
C821 C816 1.399 . S
C821 C820 1.394 . S
C821 C822 1.516 . S
C822 C821 1.516 . S
C822 C823 1.502 1_554 S
C822 C824 1.561 1_554 S
C822 C825 1.526 . S
C823 H807 0.959 1_556 S
C823 H808 0.959 . S
C823 H809 0.961 1_556 S
C823 C822 1.502 1_556 S
C824 H810 0.960 1_556 S
C824 H811 0.961 . S
C824 H812 0.959 1_556 S
C824 C822 1.561 1_556 S
C825 C822 1.526 . S
C825 C826 1.396 . S
C825 C830 1.390 1_554 S
C826 C820 1.465 . S
C826 C825 1.396 . S
C826 C827 1.399 . S
C827 H813 0.929 . S
C827 C826 1.399 . S
C827 C828 1.385 . S
C828 H814 0.931 . S
C828 C827 1.385 . S
C828 C829 1.389 1_554 S
C829 C828 1.389 1_556 S
C829 C830 1.387 . S
C830 H815 0.930 . S
C830 C825 1.390 1_556 S
C830 C829 1.387 . S
H831 C843 0.930 . S
H832 C845 0.930 . S
H833 C846 0.930 . S
H834 C850 0.959 . S
H835 C850 0.959 . S
H836 C850 0.961 . S
H837 C851 0.960 . S
H838 C851 0.961 . S
H839 C851 0.959 . S
H840 C854 0.929 . S
H841 C855 0.931 . S
H842 C857 0.930 . S
C843 H831 0.930 . S
C843 C844 1.399 . S
C843 C848 1.399 . S
C844 C843 1.399 . S
C844 C845 1.376 . S
C845 H832 0.930 . S
C845 C844 1.376 . S
C845 C846 1.388 . S
C846 H833 0.930 . S
C846 C845 1.388 . S
C846 C847 1.390 . S
C847 C846 1.390 . S
C847 C848 1.394 . S
C847 C853 1.465 . S
C848 C843 1.399 . S
C848 C847 1.394 . S
C848 C849 1.516 . S
C849 C848 1.516 . S
C849 C850 1.502 . S
C849 C851 1.561 . S
C849 C852 1.526 . S
C850 H834 0.959 . S
C850 H835 0.959 . S
C850 H836 0.961 . S
C850 C849 1.502 . S
C851 H837 0.960 . S
C851 H838 0.961 . S
C851 H839 0.959 . S
C851 C849 1.561 . S
C852 C849 1.526 . S
C852 C853 1.396 . S
C852 C857 1.390 . S
C853 C847 1.465 . S
C853 C852 1.396 . S
C853 C854 1.399 . S
C854 H840 0.929 . S
C854 C853 1.399 . S
C854 C855 1.385 . S
C855 H841 0.931 . S
C855 C854 1.385 . S
C855 C856 1.389 . S
C856 C855 1.389 . S
C856 C857 1.387 . S
C857 H842 0.930 . S
C857 C852 1.390 . S
C857 C856 1.387 . S
C235 C203 1.560 . S
C223 C19 1.521 . S
C250 C40 1.385 . S
C262 C137 1.449 . S
C277 C51 1.385 . S
C289 C151 1.425 . S
C304 C72 1.318 . S
C316 C165 1.469 . S
C343 C179 1.475 . S
C331 C103 1.347 . S
C358 C114 1.427 . S
C370 C189 1.512 . S
C385 C30 1.421 . S
C397 C147 1.566 . S
C412 C61 1.562 . S
C424 C161 1.620 . S
C439 C82 1.429 . S
C451 C175 1.554 . S
C478 C193 1.448 . S
C466 C93 1.421 1_554 S
C505 C207 1.502 . S
C493 C124 1.478 . S
C532 C133 1.541 . S
C520 C9 1.459 . S
C547 C17 1.400 . S
C559 C148 1.489 . S
C574 C38 1.509 . S
C586 C162 1.556 . S
C613 C176 1.483 . S
C601 C54 1.509 . S
C628 C75 1.457 . S
C640 C195 1.382 . S
C667 C209 1.395 . S
C655 C101 1.379 . S
C694 C134 1.408 . S
C682 C117 1.460 . S
C721 C204 1.474 . S
C709 C33 1.418 . S
C736 C59 1.325 . S
C748 C139 1.330 . S
C775 C153 1.369 . S
C763 C80 1.335 . S
C790 C96 1.409 . S
C802 C167 1.378 . S
C817 C122 1.379 . S
C829 C181 1.434 . S
C844 C12 1.448 . S
C856 C190 1.499 . S
