# Generated by pormake.
# Topology ctn, (3,4)-cn, num edge types: 1
# Building blocks:
#     Node 0, Type 0, BuildingBlock: MIDCAF_clean_linker_0, # of connection points: 3
#     Node 1, Type 0, BuildingBlock: MIDCAF_clean_linker_0, # of connection points: 3
#     Node 2, Type 0, BuildingBlock: MIDCAF_clean_linker_0, # of connection points: 3
#     Node 3, Type 0, BuildingBlock: MIDCAF_clean_linker_0, # of connection points: 3
#     Node 4, Type 0, BuildingBlock: MIDCAF_clean_linker_0, # of connection points: 3
#     Node 5, Type 0, BuildingBlock: MIDCAF_clean_linker_0, # of connection points: 3
#     Node 6, Type 0, BuildingBlock: MIDCAF_clean_linker_0, # of connection points: 3
#     Node 7, Type 0, BuildingBlock: MIDCAF_clean_linker_0, # of connection points: 3
#     Node 8, Type 0, BuildingBlock: MIDCAF_clean_linker_0, # of connection points: 3
#     Node 9, Type 0, BuildingBlock: MIDCAF_clean_linker_0, # of connection points: 3
#     Node 10, Type 0, BuildingBlock: MIDCAF_clean_linker_0, # of connection points: 3
#     Node 11, Type 0, BuildingBlock: MIDCAF_clean_linker_0, # of connection points: 3
#     Node 12, Type 0, BuildingBlock: MIDCAF_clean_linker_0, # of connection points: 3
#     Node 13, Type 0, BuildingBlock: MIDCAF_clean_linker_0, # of connection points: 3
#     Node 14, Type 0, BuildingBlock: MIDCAF_clean_linker_0, # of connection points: 3
#     Node 15, Type 0, BuildingBlock: MIDCAF_clean_linker_0, # of connection points: 3
#     Node 16, Type 1, BuildingBlock: QUQFOY_clean_sbu_1, # of connection points: 4
#     Node 17, Type 1, BuildingBlock: QUQFOY_clean_sbu_1, # of connection points: 4
#     Node 18, Type 1, BuildingBlock: QUQFOY_clean_sbu_1, # of connection points: 4
#     Node 19, Type 1, BuildingBlock: QUQFOY_clean_sbu_1, # of connection points: 4
#     Node 20, Type 1, BuildingBlock: QUQFOY_clean_sbu_1, # of connection points: 4
#     Node 21, Type 1, BuildingBlock: QUQFOY_clean_sbu_1, # of connection points: 4
#     Node 22, Type 1, BuildingBlock: QUQFOY_clean_sbu_1, # of connection points: 4
#     Node 23, Type 1, BuildingBlock: QUQFOY_clean_sbu_1, # of connection points: 4
#     Node 24, Type 1, BuildingBlock: QUQFOY_clean_sbu_1, # of connection points: 4
#     Node 25, Type 1, BuildingBlock: QUQFOY_clean_sbu_1, # of connection points: 4
#     Node 26, Type 1, BuildingBlock: QUQFOY_clean_sbu_1, # of connection points: 4
#     Node 27, Type 1, BuildingBlock: QUQFOY_clean_sbu_1, # of connection points: 4
#     Edge 28, Type (0, 1), BuildingBlock: OJICUG_clean_linker_0, # of connection points: 2
#     Edge 29, Type (0, 1), BuildingBlock: OJICUG_clean_linker_0, # of connection points: 2
#     Edge 30, Type (0, 1), BuildingBlock: OJICUG_clean_linker_0, # of connection points: 2
#     Edge 31, Type (0, 1), BuildingBlock: OJICUG_clean_linker_0, # of connection points: 2
#     Edge 32, Type (0, 1), BuildingBlock: OJICUG_clean_linker_0, # of connection points: 2
#     Edge 33, Type (0, 1), BuildingBlock: OJICUG_clean_linker_0, # of connection points: 2
#     Edge 34, Type (0, 1), BuildingBlock: OJICUG_clean_linker_0, # of connection points: 2
#     Edge 35, Type (0, 1), BuildingBlock: OJICUG_clean_linker_0, # of connection points: 2
#     Edge 36, Type (0, 1), BuildingBlock: OJICUG_clean_linker_0, # of connection points: 2
#     Edge 37, Type (0, 1), BuildingBlock: OJICUG_clean_linker_0, # of connection points: 2
#     Edge 38, Type (0, 1), BuildingBlock: OJICUG_clean_linker_0, # of connection points: 2
#     Edge 39, Type (0, 1), BuildingBlock: OJICUG_clean_linker_0, # of connection points: 2
#     Edge 40, Type (0, 1), BuildingBlock: OJICUG_clean_linker_0, # of connection points: 2
#     Edge 41, Type (0, 1), BuildingBlock: OJICUG_clean_linker_0, # of connection points: 2
#     Edge 42, Type (0, 1), BuildingBlock: OJICUG_clean_linker_0, # of connection points: 2
#     Edge 43, Type (0, 1), BuildingBlock: OJICUG_clean_linker_0, # of connection points: 2
#     Edge 44, Type (0, 1), BuildingBlock: OJICUG_clean_linker_0, # of connection points: 2
#     Edge 45, Type (0, 1), BuildingBlock: OJICUG_clean_linker_0, # of connection points: 2
#     Edge 46, Type (0, 1), BuildingBlock: OJICUG_clean_linker_0, # of connection points: 2
#     Edge 47, Type (0, 1), BuildingBlock: OJICUG_clean_linker_0, # of connection points: 2
#     Edge 48, Type (0, 1), BuildingBlock: OJICUG_clean_linker_0, # of connection points: 2
#     Edge 49, Type (0, 1), BuildingBlock: OJICUG_clean_linker_0, # of connection points: 2
#     Edge 50, Type (0, 1), BuildingBlock: OJICUG_clean_linker_0, # of connection points: 2
#     Edge 51, Type (0, 1), BuildingBlock: OJICUG_clean_linker_0, # of connection points: 2
#     Edge 52, Type (0, 1), BuildingBlock: OJICUG_clean_linker_0, # of connection points: 2
#     Edge 53, Type (0, 1), BuildingBlock: OJICUG_clean_linker_0, # of connection points: 2
#     Edge 54, Type (0, 1), BuildingBlock: OJICUG_clean_linker_0, # of connection points: 2
#     Edge 55, Type (0, 1), BuildingBlock: OJICUG_clean_linker_0, # of connection points: 2
#     Edge 56, Type (0, 1), BuildingBlock: OJICUG_clean_linker_0, # of connection points: 2
#     Edge 57, Type (0, 1), BuildingBlock: OJICUG_clean_linker_0, # of connection points: 2
#     Edge 58, Type (0, 1), BuildingBlock: OJICUG_clean_linker_0, # of connection points: 2
#     Edge 59, Type (0, 1), BuildingBlock: OJICUG_clean_linker_0, # of connection points: 2
#     Edge 60, Type (0, 1), BuildingBlock: OJICUG_clean_linker_0, # of connection points: 2
#     Edge 61, Type (0, 1), BuildingBlock: OJICUG_clean_linker_0, # of connection points: 2
#     Edge 62, Type (0, 1), BuildingBlock: OJICUG_clean_linker_0, # of connection points: 2
#     Edge 63, Type (0, 1), BuildingBlock: OJICUG_clean_linker_0, # of connection points: 2
#     Edge 64, Type (0, 1), BuildingBlock: OJICUG_clean_linker_0, # of connection points: 2
#     Edge 65, Type (0, 1), BuildingBlock: OJICUG_clean_linker_0, # of connection points: 2
#     Edge 66, Type (0, 1), BuildingBlock: OJICUG_clean_linker_0, # of connection points: 2
#     Edge 67, Type (0, 1), BuildingBlock: OJICUG_clean_linker_0, # of connection points: 2
#     Edge 68, Type (0, 1), BuildingBlock: OJICUG_clean_linker_0, # of connection points: 2
#     Edge 69, Type (0, 1), BuildingBlock: OJICUG_clean_linker_0, # of connection points: 2
#     Edge 70, Type (0, 1), BuildingBlock: OJICUG_clean_linker_0, # of connection points: 2
#     Edge 71, Type (0, 1), BuildingBlock: OJICUG_clean_linker_0, # of connection points: 2
#     Edge 72, Type (0, 1), BuildingBlock: OJICUG_clean_linker_0, # of connection points: 2
#     Edge 73, Type (0, 1), BuildingBlock: OJICUG_clean_linker_0, # of connection points: 2
#     Edge 74, Type (0, 1), BuildingBlock: OJICUG_clean_linker_0, # of connection points: 2
#     Edge 75, Type (0, 1), BuildingBlock: OJICUG_clean_linker_0, # of connection points: 2
# Relax obj value: 0.036
# Max RMSD: 0.144
# Mean RMSD: 0.065
data_MOF--net-ctn--node1-QUQFOY_clean_sbu_1--node2-MIDCAF_clean_linker_0--edge1-OJICUG_clean_linker_0
_symmetry_space_group_name_H-M    P1
_symmetry_Int_Tables_number       1
_symmetry_cell_setting            triclinic
loop_
_symmetry_equiv_pos_as_xyz
'x, y, z'
_cell_length_a     52.352824
_cell_length_b     52.371881
_cell_length_c     52.478511
_cell_angle_alpha  92.982041
_cell_angle_beta   90.076985
_cell_angle_gamma 94.763873
loop_
_atom_site_label
_atom_site_type_symbol
_atom_site_fract_x
_atom_site_fract_y
_atom_site_fract_z
_atom_type_partial_charge
C0 C 0.97988 0.09037 0.13054 0.0
C1 C 0.98648 0.07373 0.1492 0.0
C2 C 0.01065 0.06392 0.1481 0.0
C3 C 0.02704 0.06894 0.12775 0.0
H4 H 0.07183 0.02455 0.08371 0.0
H5 H 0.09614 0.98828 0.07097 0.0
H6 H 0.11528 0.02296 -0.00018 0.0
H7 H 0.09072 0.05887 0.01216 0.0
H8 H 0.04701 0.09675 0.99298 0.0
H9 H 0.03642 0.12696 0.96128 0.0
H10 H 0.02023 0.18227 0.0216 0.0
H11 H 0.03008 0.15189 0.05351 0.0
H12 H 0.99024 0.10737 0.09537 0.0
H13 H 0.96137 0.09821 0.13089 0.0
H14 H 0.01657 0.05159 0.16258 0.0
H15 H 0.04507 0.06018 0.12698 0.0
N16 N 0.05085 0.06675 0.07852 0.0
N17 N 0.05958 0.08417 0.03899 0.0
N18 N 0.03163 0.10357 0.06751 0.0
C19 C 0.06323 0.06599 0.05585 0.0
C20 C 0.04401 0.1031 0.04476 0.0
C21 C 0.03505 0.08544 0.08452 0.0
C22 C 0.07915 0.04462 0.04889 0.0
C23 C 0.08126 0.02449 0.06535 0.0
C24 C 0.09523 0.0037 0.05812 0.0
C25 C 0.10734 0.00259 0.03428 0.0
C26 C 0.10566 0.02295 0.01808 0.0
C27 C 0.09173 0.04368 0.02527 0.0
C28 C 0.03928 0.12197 0.02572 0.0
C29 C 0.04141 0.11543 -0.00048 0.0
C30 C 0.03535 0.1326 0.98139 0.0
C31 C 0.02769 0.15677 0.9892 0.0
C32 C 0.02627 0.16369 0.0153 0.0
C33 C 0.03177 0.14631 0.03346 0.0
C34 C 0.01973 0.08408 0.10811 0.0
C35 C 0.99641 0.09557 0.11018 0.0
C36 C 0.25186 0.64711 0.21772 0.0
C37 C 0.22506 0.64746 0.21778 0.0
C38 C 0.21413 0.66934 0.20962 0.0
C39 C 0.22978 0.69092 0.20295 0.0
H40 H 0.24011 0.75436 0.15305 0.0
H41 H 0.23165 0.78498 0.1213 0.0
H42 H 0.30073 0.83133 0.14422 0.0
H43 H 0.30951 0.8007 0.1757 0.0
H44 H 0.35339 0.77379 0.20782 0.0
H45 H 0.39147 0.77999 0.23513 0.0
H46 H 0.35795 0.72282 0.28453 0.0
H47 H 0.32084 0.71588 0.25684 0.0
H48 H 0.28802 0.66812 0.2125 0.0
H49 H 0.2609 0.63033 0.22317 0.0
H50 H 0.19355 0.6703 0.20956 0.0
H51 H 0.22094 0.70793 0.19781 0.0
N52 N 0.26665 0.73318 0.18633 0.0
N53 N 0.30438 0.75851 0.19824 0.0
N54 N 0.29527 0.71852 0.21551 0.0
C55 C 0.28227 0.7551 0.18434 0.0
C56 C 0.31088 0.74032 0.21398 0.0
C57 C 0.27325 0.71475 0.20177 0.0
C58 C 0.27571 0.77481 0.16672 0.0
C59 C 0.25341 0.77118 0.15153 0.0
C60 C 0.24841 0.78883 0.13345 0.0
C61 C 0.26563 0.81043 0.13017 0.0
C62 C 0.28731 0.81465 0.14609 0.0
C63 C 0.29229 0.79707 0.16417 0.0
C64 C 0.33416 0.74428 0.23011 0.0
C65 C 0.35432 0.76248 0.22445 0.0
C66 C 0.37608 0.76609 0.24016 0.0
C67 C 0.37791 0.75181 0.262 0.0
C68 C 0.35762 0.73371 0.26756 0.0
C69 C 0.33615 0.72985 0.25173 0.0
C70 C 0.25654 0.69103 0.20468 0.0
C71 C 0.26741 0.66871 0.21146 0.0
C72 C 0.94789 0.37703 0.03955 0.0
C73 C 0.93858 0.37978 0.01483 0.0
C74 C 0.9236 0.4001 0.01037 0.0
C75 C 0.91877 0.41794 0.03004 0.0
H76 H 0.87968 0.47945 0.04509 0.0
H77 H 0.85918 0.51651 0.0319 0.0
H78 H 0.88648 0.55956 0.10035 0.0
H79 H 0.90702 0.52225 0.11391 0.0
H80 H 0.93683 0.48975 0.15595 0.0
H81 H 0.96964 0.50079 0.18841 0.0
H82 H 0.01821 0.44749 0.15133 0.0
H83 H 0.985 0.43582 0.1192 0.0
H84 H 0.95145 0.39295 0.07792 0.0
H85 H 0.95957 0.36151 0.0434 0.0
H86 H 0.91599 0.40244 0.9915 0.0
H87 H 0.90766 0.43372 0.02569 0.0
N88 N 0.91109 0.4557 0.07012 0.0
N89 N 0.92484 0.47757 0.10832 0.0
N90 N 0.9413 0.43851 0.09582 0.0
C91 C 0.91006 0.47613 0.08695 0.0
C92 C 0.94041 0.45879 0.11296 0.0
C93 C 0.92648 0.43675 0.07442 0.0
C94 C 0.89528 0.49787 0.08047 0.0
C95 C 0.88125 0.49668 0.05752 0.0
C96 C 0.86962 0.51801 0.04982 0.0
C97 C 0.87165 0.54106 0.06487 0.0
C98 C 0.88467 0.54203 0.08836 0.0
C99 C 0.89644 0.52065 0.09607 0.0
C100 C 0.95847 0.46223 0.13477 0.0
C101 C 0.95433 0.48008 0.15492 0.0
C102 C 0.9732 0.4865 0.17345 0.0
C103 C 0.99676 0.47545 0.1721 0.0
C104 C 0.00026 0.45633 0.15293 0.0
C105 C 0.98123 0.4497 0.13447 0.0
C106 C 0.92911 0.41602 0.05456 0.0
C107 C 0.94333 0.39509 0.05924 0.0
C108 C 0.77168 0.74226 0.1877 0.0
C109 C 0.75266 0.72273 0.18048 0.0
C110 C 0.73186 0.71762 0.19687 0.0
C111 C 0.72927 0.73282 0.21923 0.0
H112 H 0.67659 0.74864 0.27552 0.0
H113 H 0.63538 0.74814 0.29744 0.0
H114 H 0.66314 0.81518 0.34389 0.0
H115 H 0.7041 0.81588 0.32216 0.0
H116 H 0.73207 0.85861 0.28514 0.0
H117 H 0.75181 0.902 0.28324 0.0
H118 H 0.81648 0.87309 0.24323 0.0
H119 H 0.79607 0.82958 0.24414 0.0
H120 H 0.78348 0.77321 0.21437 0.0
H121 H 0.78786 0.74672 0.17539 0.0
H122 H 0.71709 0.70245 0.19189 0.0
H123 H 0.71243 0.72906 0.23084 0.0
N124 N 0.72244 0.76788 0.26278 0.0
N125 N 0.7301 0.80943 0.2814 0.0
N126 N 0.75588 0.79583 0.24785 0.0
C127 C 0.71645 0.78625 0.28052 0.0
C128 C 0.74978 0.81441 0.26522 0.0
C129 C 0.74237 0.77247 0.24655 0.0
C130 C 0.69346 0.78261 0.29671 0.0
C131 C 0.67411 0.76292 0.29079 0.0
C132 C 0.65053 0.76258 0.30337 0.0
C133 C 0.646 0.78191 0.32201 0.0
C134 C 0.66599 0.80037 0.32922 0.0
C135 C 0.68946 0.80071 0.31675 0.0
C136 C 0.76259 0.8406 0.26492 0.0
C137 C 0.75056 0.86144 0.27602 0.0
C138 C 0.76192 0.88639 0.27497 0.0
C139 C 0.78578 0.89111 0.26315 0.0
C140 C 0.79787 0.87023 0.2521 0.0
C141 C 0.78631 0.84525 0.25283 0.0
C142 C 0.74735 0.75358 0.22553 0.0
C143 C 0.76903 0.75757 0.20997 0.0
C144 C 0.03982 0.9056 0.53449 0.0
C145 C 0.01412 0.89654 0.53823 0.0
C146 C 0.99475 0.90807 0.52547 0.0
C147 C 0.00092 0.92809 0.5094 0.0
H148 H 0.98433 0.955 0.43293 0.0
H149 H 0.95633 0.96611 0.39857 0.0
H150 H 0.99138 0.04377 0.4032 0.0
H151 H 0.0196 0.03275 0.43731 0.0
H152 H 0.08588 0.02748 0.44712 0.0
H153 H 0.12436 0.0563 0.45574 0.0
H154 H 0.12998 0.0273 0.53086 0.0
H155 H 0.09163 -0.00174 0.52232 0.0
H156 H 0.06593 0.93247 0.51638 0.0
H157 H 0.05529 0.89692 0.54356 0.0
H158 H 0.97471 0.90202 0.52823 0.0
H159 H 0.98551 0.93668 0.5001 0.0
N160 N 0.01638 0.96551 0.47184 0.0
N161 N 0.04477 0.00041 0.46148 0.0
N162 N 0.05556 0.97388 0.49373 0.0
C163 C 0.02219 0.98608 0.45752 0.0
C164 C 0.06154 0.99442 0.4795 0.0
C165 C 0.03304 0.95932 0.48999 0.0
C166 C 0.00426 0.99295 0.43772 0.0
C167 C 0.98595 0.97448 0.42675 0.0
C168 C 0.97003 0.98078 0.40704 0.0
C169 C 0.97183 0.00576 0.3983 0.0
C170 C 0.98958 0.02442 0.40973 0.0
C171 C 0.0058 0.01803 0.42911 0.0
C172 C 0.08565 0.0107 0.4841 0.0
C173 C 0.09539 0.02712 0.46543 0.0
C174 C 0.11746 0.0435 0.47026 0.0
C175 C 0.12995 0.044 0.49396 0.0
C176 C 0.12051 0.02733 0.51249 0.0
C177 C 0.09867 0.01066 0.50753 0.0
C178 C 0.02656 0.93737 0.50606 0.0
C179 C 0.04594 0.9259 0.51875 0.0
C180 C 0.23646 0.7731 0.86118 0.0
C181 C 0.22356 0.79559 0.86346 0.0
C182 C 0.21293 0.80482 0.84145 0.0
C183 C 0.21504 0.79179 0.81776 0.0
H184 H 0.19176 0.78758 0.73866 0.0
H185 H 0.15129 0.79115 0.71677 0.0
H186 H 0.14573 0.70973 0.6973 0.0
H187 H 0.18649 0.70615 0.71936 0.0
H188 H 0.2466 0.68004 0.73143 0.0
H189 H 0.27472 0.64481 0.73271 0.0
H190 H 0.31746 0.68521 0.79493 0.0
H191 H 0.2899 0.72006 0.79377 0.0
H192 H 0.24876 0.74289 0.83644 0.0
H193 H 0.24454 0.76522 0.87777 0.0
H194 H 0.20332 0.82237 0.8424 0.0
H195 H 0.20661 0.79939 0.80119 0.0
N196 N 0.21284 0.75843 0.77175 0.0
N197 N 0.22949 0.72538 0.74644 0.0
N198 N 0.24665 0.73722 0.78714 0.0
C199 C 0.2126 0.74376 0.74964 0.0
C200 C 0.24702 0.72246 0.76512 0.0
C201 C 0.22964 0.75512 0.79065 0.0
C202 C 0.19208 0.74653 0.73092 0.0
C203 C 0.18226 0.77055 0.72908 0.0
C204 C 0.15913 0.77263 0.71643 0.0
C205 C 0.1452 0.75067 0.70563 0.0
C206 C 0.15599 0.72693 0.70574 0.0
C207 C 0.17939 0.7249 0.71814 0.0
C208 C 0.26565 0.70264 0.76281 0.0
C209 C 0.26228 0.68156 0.74505 0.0
C210 C 0.27837 0.66144 0.74574 0.0
C211 C 0.29795 0.66217 0.76421 0.0
C212 C 0.3022 0.68394 0.78083 0.0
C213 C 0.28632 0.70391 0.78012 0.0
C214 C 0.22811 0.76944 0.81551 0.0
C215 C 0.23887 0.76027 0.83745 0.0
C216 C 0.98909 0.63197 0.54548 0.0
C217 C 0.97311 0.63164 0.56692 0.0
C218 C 0.95952 0.60856 0.57305 0.0
C219 C 0.96121 0.58635 0.55745 0.0
H220 H 0.92576 0.51161 0.54154 0.0
H221 H 0.88625 0.48313 0.54018 0.0
H222 H 0.89712 0.46628 0.45976 0.0
H223 H 0.93672 0.49434 0.46097 0.0
H224 H 0.98709 0.51456 0.4358 0.0
H225 H 0.01502 0.51611 0.39883 0.0
H226 H 0.06519 0.57523 0.43777 0.0
H227 H 0.03721 0.57382 0.47503 0.0
H228 H 0.00316 0.61081 0.51337 0.0
H229 H 0.0001 0.64947 0.54061 0.0
H230 H 0.94708 0.60786 0.58952 0.0
H231 H 0.95004 0.56896 0.56233 0.0
N232 N 0.95801 0.54461 0.51911 0.0
N233 N 0.97329 0.52469 0.48183 0.0
N234 N 0.99379 0.56353 0.49827 0.0
C235 C 0.95623 0.52485 0.50124 0.0
C236 C 0.99228 0.54382 0.48035 0.0
C237 C 0.97672 0.56404 0.51773 0.0
C238 C 0.93424 0.50535 0.50133 0.0
C239 C 0.91992 0.50154 0.52365 0.0
C240 C 0.89742 0.4852 0.52294 0.0
C241 C 0.88873 0.4728 0.49983 0.0
C242 C 0.90346 0.47584 0.47774 0.0
C243 C 0.92616 0.49179 0.47852 0.0
C244 C 0.0099 0.5441 0.45838 0.0
C245 C 0.00411 0.52783 0.43663 0.0
C246 C 0.01997 0.52884 0.41535 0.0
C247 C 0.04209 0.54593 0.41545 0.0
C248 C 0.04823 0.56187 0.4373 0.0
C249 C 0.03218 0.56109 0.45854 0.0
C250 C 0.97676 0.58679 0.5356 0.0
C251 C 0.99101 0.60975 0.53004 0.0
C252 C 0.88156 0.82291 0.78671 0.0
C253 C 0.87664 0.82274 0.76035 0.0
C254 C 0.85236 0.82885 0.75209 0.0
C255 C 0.83324 0.83407 0.76979 0.0
H256 H 0.76968 0.88008 0.78684 0.0
H257 H 0.73675 0.90994 0.78227 0.0
H258 H 0.70759 0.8925 0.85684 0.0
H259 H 0.74044 0.86292 0.86166 0.0
H260 H 0.77332 0.83079 0.89895 0.0
H261 H 0.77186 0.80358 0.93532 0.0
H262 H 0.82095 0.75269 0.89517 0.0
H263 H 0.82341 0.78048 0.85963 0.0
H264 H 0.86662 0.82694 0.82445 0.0
H265 H 0.90019 0.8191 0.79387 0.0
H266 H 0.84775 0.82868 0.73197 0.0
H267 H 0.81451 0.83796 0.76291 0.0
N268 N 0.79775 0.85031 0.81082 0.0
N269 N 0.77944 0.83881 0.84987 0.0
N270 N 0.8174 0.82193 0.83625 0.0
C271 C 0.77884 0.85228 0.82844 0.0
C272 C 0.79858 0.8235 0.85381 0.0
C273 C 0.8172 0.83529 0.81481 0.0
C274 C 0.75795 0.86924 0.82473 0.0
C275 C 0.75617 0.88247 0.80221 0.0
C276 C 0.73718 0.89944 0.79949 0.0
C277 C 0.71969 0.90363 0.81926 0.0
C278 C 0.72101 0.88988 0.84142 0.0
C279 C 0.73985 0.87286 0.84411 0.0
C280 C 0.79843 0.80777 0.8764 0.0
C281 C 0.78396 0.81389 0.89806 0.0
C282 C 0.78303 0.7982 0.91885 0.0
C283 C 0.79622 0.77581 0.91826 0.0
C284 C 0.81097 0.76999 0.89666 0.0
C285 C 0.81223 0.78588 0.87611 0.0
C286 C 0.83791 0.83283 0.79602 0.0
C287 C 0.86236 0.82761 0.80429 0.0
C288 C 0.37455 0.29532 0.28533 0.0
C289 C 0.37367 0.30553 0.26113 0.0
C290 C 0.35275 0.31929 0.25495 0.0
C291 C 0.33333 0.32298 0.2726 0.0
H292 H 0.26893 0.36172 0.28464 0.0
H293 H 0.24103 0.39587 0.27817 0.0
H294 H 0.21823 0.39465 0.35715 0.0
H295 H 0.24614 0.36051 0.3638 0.0
H296 H 0.26996 0.31937 0.39989 0.0
H297 H 0.26623 0.29372 0.43737 0.0
H298 H 0.30833 0.23586 0.39833 0.0
H299 H 0.31307 0.26199 0.3616 0.0
H300 H 0.35639 0.29086 0.32148 0.0
H301 H 0.39052 0.28489 0.29084 0.0
H302 H 0.35118 0.32697 0.2363 0.0
H303 H 0.31752 0.33366 0.26714 0.0
N304 N 0.29661 0.3345 0.3117 0.0
N305 N 0.27688 0.32565 0.35072 0.0
N306 N 0.31212 0.3037 0.33715 0.0
C307 C 0.27814 0.33896 0.32914 0.0
C308 C 0.29373 0.30787 0.35476 0.0
C309 C 0.31375 0.31701 0.31563 0.0
C310 C 0.25996 0.35851 0.32481 0.0
C311 C 0.25788 0.36859 0.30063 0.0
C312 C 0.24175 0.38801 0.29683 0.0
C313 C 0.22757 0.39793 0.31718 0.0
C314 C 0.22914 0.38747 0.34119 0.0
C315 C 0.24506 0.36786 0.34495 0.0
C316 C 0.29181 0.29272 0.37777 0.0
C317 C 0.27854 0.30123 0.39944 0.0
C318 C 0.27631 0.28645 0.42088 0.0
C319 C 0.28698 0.26265 0.42099 0.0
C320 C 0.30035 0.2543 0.39929 0.0
C321 C 0.30291 0.26923 0.37806 0.0
C322 C 0.33421 0.3128 0.29681 0.0
C323 C 0.35499 0.29884 0.30294 0.0
C324 C 0.46068 0.87946 0.52474 0.0
C325 C 0.45412 0.88363 0.49942 0.0
C326 C 0.4418 0.90556 0.49418 0.0
C327 C 0.43626 0.92314 0.51385 0.0
H328 H 0.41275 0.99598 0.5277 0.0
H329 H 0.3873 0.03068 0.51736 0.0
H330 H 0.36195 0.037 0.59572 0.0
H331 H 0.38893 0.00312 0.60631 0.0
H332 H 0.43719 0.9854 0.64511 0.0
H333 H 0.46671 0.99524 0.68077 0.0
H334 H 0.51806 0.94239 0.64771 0.0
H335 H 0.48833 0.93208 0.61213 0.0
H336 H 0.4609 0.89361 0.56375 0.0
H337 H 0.47034 0.86273 0.52923 0.0
H338 H 0.4363 0.90907 0.47484 0.0
H339 H 0.42686 0.93993 0.50907 0.0
N340 N 0.42258 0.95732 0.55522 0.0
N341 N 0.42967 0.97508 0.59675 0.0
N342 N 0.44961 0.93832 0.58294 0.0
C343 C 0.4182 0.97556 0.57362 0.0
C344 C 0.4455 0.95656 0.60154 0.0
C345 C 0.438 0.93848 0.55979 0.0
C346 C 0.40257 -0.00332 0.56774 0.0
C347 C 0.40174 0.00479 0.54272 0.0
C348 C 0.387 0.02465 0.53679 0.0
C349 C 0.37216 0.03649 0.55558 0.0
C350 C 0.37331 0.02858 0.58078 0.0
C351 C 0.38859 0.00903 0.58684 0.0
C352 C 0.46066 0.9584 0.62547 0.0
C353 C 0.45452 0.97548 0.64563 0.0
C354 C 0.47145 0.98117 0.66604 0.0
C355 C 0.49493 0.97002 0.66668 0.0
C356 C 0.5001 0.95129 0.64769 0.0
C357 C 0.48307 0.94548 0.62727 0.0
C358 C 0.44317 0.91927 0.53919 0.0
C359 C 0.45539 0.8972 0.54445 0.0
C360 C 0.2626 0.2392 0.69615 0.0
C361 C 0.24245 0.22072 0.68936 0.0
C362 C 0.22116 0.21785 0.70556 0.0
C363 C 0.21905 0.23458 0.72692 0.0
H364 H 0.18198 0.25586 0.80567 0.0
H365 H 0.14272 0.25656 0.8308 0.0
H366 H 0.1356 0.33478 0.81058 0.0
H367 H 0.17542 0.33443 0.78733 0.0
H368 H 0.22879 0.36678 0.77984 0.0
H369 H 0.25419 0.40752 0.77772 0.0
H370 H 0.31768 0.36814 0.74707 0.0
H371 H 0.29182 0.32731 0.74828 0.0
H372 H 0.27573 0.27097 0.72127 0.0
H373 H 0.27922 0.24192 0.68401 0.0
H374 H 0.20553 0.20346 0.70099 0.0
H375 H 0.20171 0.23273 0.73815 0.0
N376 N 0.21193 0.2746 0.76582 0.0
N377 N 0.2211 0.31764 0.7798 0.0
N378 N 0.24863 0.29817 0.75116 0.0
C379 C 0.20583 0.29548 0.78028 0.0
C380 C 0.24263 0.3191 0.7655 0.0
C381 C 0.23338 0.27584 0.75113 0.0
C382 C 0.18177 0.29513 0.7948 0.0
C383 C 0.17194 0.27315 0.80684 0.0
C384 C 0.14938 0.27358 0.82111 0.0
C385 C 0.13591 0.29582 0.82305 0.0
C386 C 0.14569 0.31755 0.8104 0.0
C387 C 0.16847 0.31731 0.79678 0.0
C388 C 0.25835 0.34377 0.76437 0.0
C389 C 0.24818 0.36675 0.77267 0.0
C390 C 0.26279 0.39015 0.77153 0.0
C391 C 0.28803 0.39112 0.76236 0.0
C392 C 0.29816 0.36813 0.75389 0.0
C393 C 0.28342 0.3447 0.75476 0.0
C394 C 0.23814 0.25463 0.73239 0.0
C395 C 0.26047 0.256 0.71744 0.0
C396 C 0.75036 0.14362 0.74104 0.0
C397 C 0.72459 0.14113 0.7332 0.0
C398 C 0.71566 0.1596 0.71761 0.0
C399 C 0.73204 0.18048 0.71057 0.0
H400 H 0.73866 0.24481 0.66577 0.0
H401 H 0.72941 0.26989 0.62937 0.0
H402 H 0.80787 0.30252 0.62988 0.0
H403 H 0.81726 0.27765 0.66626 0.0
H404 H 0.85315 0.26882 0.71648 0.0
H405 H 0.89059 0.27821 0.74443 0.0
H406 H 0.86023 0.22026 0.79452 0.0
H407 H 0.82376 0.21039 0.76661 0.0
H408 H 0.78631 0.16593 0.74087 0.0
H409 H 0.75798 0.12945 0.75259 0.0
H410 H 0.69582 0.15836 0.71145 0.0
H411 H 0.72448 0.19469 0.69902 0.0
N412 N 0.76888 0.22176 0.69476 0.0
N413 N 0.8067 0.24814 0.70388 0.0
N414 N 0.79637 0.21194 0.72733 0.0
C415 C 0.78487 0.24271 0.68978 0.0
C416 C 0.81244 0.23282 0.72286 0.0
C417 C 0.77468 0.20619 0.71344 0.0
C418 C 0.77877 0.25907 0.6688 0.0
C419 C 0.75393 0.25744 0.65822 0.0
C420 C 0.74854 0.27189 0.63751 0.0
C421 C 0.76796 0.28796 0.62679 0.0
C422 C 0.79262 0.29006 0.63769 0.0
C423 C 0.79794 0.27589 0.65858 0.0
C424 C 0.83546 0.23879 0.7392 0.0
C425 C 0.85462 0.25802 0.7334 0.0
C426 C 0.87601 0.26345 0.74945 0.0
C427 C 0.87855 0.24982 0.77161 0.0
C428 C 0.85932 0.23069 0.77731 0.0
C429 C 0.83818 0.22517 0.7613 0.0
C430 C 0.75758 0.18336 0.71917 0.0
C431 C 0.76662 0.16452 0.7342 0.0
C432 C 0.48273 0.57822 0.61789 0.0
C433 C 0.49008 0.56136 0.63599 0.0
C434 C 0.51413 0.55141 0.63366 0.0
C435 C 0.52997 0.55717 0.61305 0.0
H436 H 0.59546 0.53515 0.57643 0.0
H437 H 0.62817 0.5059 0.56583 0.0
H438 H 0.62436 0.52495 0.48681 0.0
H439 H 0.59254 0.55481 0.49753 0.0
H440 H 0.56707 0.60619 0.48568 0.0
H441 H 0.55401 0.63539 0.45434 0.0
H442 H 0.49383 0.65827 0.50466 0.0
H443 H 0.50646 0.62893 0.5358 0.0
H444 H 0.49206 0.59652 0.58322 0.0
H445 H 0.46427 0.58612 0.61911 0.0
H446 H 0.52061 0.53883 0.64764 0.0
H447 H 0.54812 0.54867 0.61162 0.0
N448 N 0.55757 0.56235 0.56598 0.0
N449 N 0.56458 0.58179 0.5271 0.0
N450 N 0.5317 0.59422 0.5541 0.0
C451 C 0.57099 0.56457 0.54399 0.0
C452 C 0.54506 0.5968 0.53208 0.0
C453 C 0.53787 0.57709 0.57118 0.0
C454 C 0.59142 0.54738 0.53784 0.0
C455 C 0.60172 0.53318 0.55682 0.0
C456 C 0.62036 0.51627 0.55071 0.0
C457 C 0.62894 0.51303 0.52546 0.0
C458 C 0.61862 0.5273 0.50655 0.0
C459 C 0.60023 0.54438 0.51269 0.0
C460 C 0.53775 0.61508 0.51327 0.0
C461 C 0.55105 0.61744 0.49011 0.0
C462 C 0.54365 0.63424 0.47215 0.0
C463 C 0.52278 0.64897 0.47695 0.0
C464 C 0.5097 0.64682 0.5002 0.0
C465 C 0.51708 0.63009 0.51814 0.0
C466 C 0.5222 0.57315 0.59432 0.0
C467 C 0.49865 0.58409 0.59727 0.0
C468 C 0.55158 0.42502 0.04428 0.0
C469 C 0.52711 0.41183 0.04262 0.0
C470 C 0.51134 0.41544 0.02161 0.0
C471 C 0.51973 0.43202 0.0028 0.0
H472 H 0.49305 0.47298 0.94386 0.0
H473 H 0.46413 0.48432 0.91051 0.0
H474 H 0.52803 0.52227 0.87164 0.0
H475 H 0.55703 0.51095 0.90478 0.0
H476 H 0.60944 0.52384 0.93458 0.0
H477 H 0.64786 0.55298 0.94212 0.0
H478 H 0.65515 0.52519 0.01757 0.0
H479 H 0.61684 0.49607 0.01027 0.0
H480 H 0.57891 0.45159 0.02747 0.0
H481 H 0.56409 0.4228 0.06032 0.0
H482 H 0.49256 0.40519 0.01951 0.0
H483 H 0.50703 0.43431 0.98692 0.0
N484 N 0.53707 0.46809 0.96535 0.0
N485 N 0.56881 0.4972 0.94947 0.0
N486 N 0.57665 0.47588 0.98646 0.0
C487 C 0.54494 0.48497 0.94757 0.0
C488 C 0.58478 0.49277 0.96885 0.0
C489 C 0.55291 0.46334 0.98479 0.0
C490 C 0.52738 0.49103 0.92701 0.0
C491 C 0.50098 0.48365 0.92817 0.0
C492 C 0.48437 0.49033 0.90921 0.0
C493 C 0.49385 0.50426 0.88858 0.0
C494 C 0.52023 0.51141 0.88727 0.0
C495 C 0.53681 0.50497 0.90632 0.0
C496 C 0.60983 0.50787 0.97196 0.0
C497 C 0.6194 0.52367 0.95267 0.0
C498 C 0.64147 0.54025 0.95688 0.0
C499 C 0.65421 0.54145 0.9805 0.0
C500 C 0.64543 0.52479 -0.0007 0.0
C501 C 0.62353 0.50806 0.99504 0.0
C502 C 0.54414 0.44537 0.00451 0.0
C503 C 0.56 0.44161 0.02545 0.0
C504 C 0.74207 0.29584 0.34455 0.0
C505 C 0.72108 0.30979 0.35118 0.0
C506 C 0.7011 0.31064 0.33342 0.0
C507 C 0.7016 0.29681 0.3099 0.0
H508 H 0.68684 0.28668 0.21641 0.0
H509 H 0.64764 0.28872 0.19184 0.0
H510 H 0.62481 0.20987 0.20829 0.0
H511 H 0.66516 0.20757 0.2307 0.0
H512 H 0.73538 0.18395 0.22737 0.0
H513 H 0.76246 0.1482 0.23091 0.0
H514 H 0.80438 0.18991 0.29289 0.0
H515 H 0.77793 0.22537 0.28948 0.0
H516 H 0.75888 0.27112 0.317 0.0
H517 H 0.75807 0.29537 0.35759 0.0
H518 H 0.68469 0.32128 0.33803 0.0
H519 H 0.6855 0.29709 0.29697 0.0
N520 N 0.7027 0.26495 0.26275 0.0
N521 N 0.7171 0.22821 0.24132 0.0
N522 N 0.73805 0.24611 0.27835 0.0
C523 C 0.70058 0.24701 0.24304 0.0
C524 C 0.73627 0.228 0.25885 0.0
C525 C 0.72139 0.26452 0.28058 0.0
C526 C 0.67889 0.24695 0.22523 0.0
C527 C 0.6736 0.26967 0.21408 0.0
C528 C 0.65091 0.27087 0.20033 0.0
C529 C 0.63248 0.24964 0.19831 0.0
C530 C 0.63844 0.22659 0.20887 0.0
C531 C 0.66157 0.22519 0.22188 0.0
C532 C 0.75413 0.2074 0.25839 0.0
C533 C 0.75061 0.18563 0.24149 0.0
C534 C 0.76612 0.16521 0.24345 0.0
C535 C 0.78522 0.16624 0.26241 0.0
C536 C 0.78951 0.18847 0.27838 0.0
C537 C 0.77426 0.20881 0.27636 0.0
C538 C 0.72213 0.28192 0.30377 0.0
C539 C 0.7426 0.28209 0.32116 0.0
C540 C 0.441 0.18139 0.99544 0.0
C541 C 0.42577 0.18059 0.01741 0.0
C542 C 0.40569 0.16129 0.01898 0.0
C543 C 0.40171 0.14229 -0.00056 0.0
H544 H 0.34892 0.08447 0.96728 0.0
H545 H 0.31551 0.05034 0.97463 0.0
H546 H 0.36135 0.99509 0.93684 0.0
H547 H 0.3948 0.029 0.92942 0.0
H548 H 0.45046 0.04524 0.91383 0.0
H549 H 0.48845 0.03506 0.88985 0.0
H550 H 0.51376 0.11563 0.88984 0.0
H551 H 0.47577 0.126 0.91413 0.0
H552 H 0.45004 0.1626 0.9598 0.0
H553 H 0.45666 0.1961 0.9939 0.0
H554 H 0.3936 0.16045 0.0357 0.0
H555 H 0.38665 0.12711 0.00173 0.0
N556 N 0.39622 0.10173 0.96027 0.0
N557 N 0.41663 0.07486 0.93121 0.0
N558 N 0.43703 0.11475 0.94495 0.0
C559 C 0.396 0.07947 0.94583 0.0
C560 C 0.43713 0.09246 0.93054 0.0
C561 C 0.41662 0.11949 0.95991 0.0
C562 C 0.37463 0.05944 0.94796 0.0
C563 C 0.3518 0.0651 0.96031 0.0
C564 C 0.33261 0.04563 0.96442 0.0
C565 C 0.33604 0.02015 0.95648 0.0
C566 C 0.35844 0.01459 0.9434 0.0
C567 C 0.37749 0.03406 0.93904 0.0
C568 C 0.46005 0.08646 0.91576 0.0
C569 C 0.46408 0.06084 0.90873 0.0
C570 C 0.48593 0.05495 0.89524 0.0
C571 C 0.504 0.07457 0.88818 0.0
C572 C 0.50003 0.10019 0.8951 0.0
C573 C 0.47834 0.10609 0.90898 0.0
C574 C 0.41803 0.14201 0.97818 0.0
C575 C 0.43727 0.16216 0.97602 0.0
O576 O 0.24117 0.86125 0.97122 0.0
Cd577 Cd 0.24782 0.88654 0.00219 0.0
Cd578 Cd 0.21012 0.90961 0.9807 0.0
O579 O 0.206 0.8766 0.95758 0.0
O580 O 0.27042 0.86877 0.02443 0.0
O581 O 0.23173 0.87877 0.03606 0.0
C582 C 0.25255 0.86842 0.04127 0.0
C583 C 0.17462 0.9278 -0.00215 0.0
C584 C 0.22235 0.86 0.9558 0.0
C585 C 0.26221 0.93768 0.98197 0.0
O586 O 0.23967 0.93638 0.97278 0.0
O587 O 0.26899 0.92029 0.99586 0.0
O588 O 0.17924 0.92751 0.97374 0.0
O589 O 0.18962 0.91644 0.01233 0.0
O590 O 0.1701 0.55334 0.27913 0.0
Cd591 Cd 0.15164 0.52429 0.29864 0.0
Cd592 Cd 0.11002 0.53565 0.26821 0.0
O593 O 0.13806 0.56093 0.25401 0.0
O594 O 0.17921 0.50815 0.3162 0.0
O595 O 0.15399 0.48744 0.28669 0.0
C596 C 0.17255 0.48727 0.30293 0.0
C597 C 0.07954 0.51707 0.23893 0.0
C598 C 0.16118 0.56558 0.26132 0.0
C599 C 0.10493 0.54039 0.32573 0.0
O600 O 0.09511 0.54264 0.30392 0.0
O601 O 0.1274 0.53332 0.32777 0.0
O602 O 0.08035 0.54094 0.24626 0.0
O603 O 0.09659 0.50346 0.24794 0.0
O604 O 0.76368 0.69698 0.00728 0.0
Cd605 Cd 0.75519 0.66926 0.03327 0.0
Cd606 Cd 0.78791 0.64437 0.00539 0.0
O607 O 0.79654 0.6792 0.9897 0.0
O608 O 0.73644 0.68625 0.0613 0.0
O609 O 0.77413 0.67098 0.06673 0.0
C610 C 0.75504 0.68225 0.0763 0.0
C611 C 0.81838 0.62189 0.0244 0.0
C612 C 0.78248 0.69782 0.99198 0.0
C613 C 0.73466 0.62118 0.00434 0.0
O614 O 0.75587 0.62183 0.99262 0.0
O615 O 0.73123 0.63754 0.02244 0.0
O616 O 0.81707 0.62295 -8e-05 0.0
O617 O 0.80316 0.63497 0.03823 0.0
O618 O 0.91109 0.01688 0.2922 0.0
Cd619 Cd 0.89083 0.02098 0.25925 0.0
Cd620 Cd 0.85998 0.04162 0.29151 0.0
O621 O 0.88961 0.04212 0.31749 0.0
O622 O 0.91578 0.01344 0.23213 0.0
O623 O 0.90007 0.05121 0.23783 0.0
C624 C 0.9152 0.03674 0.22556 0.0
C625 C 0.84056 0.07849 0.28282 0.0
C626 C 0.90816 0.02822 0.31384 0.0
C627 C 0.84149 0.991 0.26678 0.0
O628 O 0.83853 0.00708 0.28529 0.0
O629 O 0.8603 0.99444 0.25176 0.0
O630 O 0.8363 0.06716 0.30385 0.0
O631 O 0.85649 0.06911 0.2668 0.0
O632 O 0.25112 0.19165 0.5156 0.0
Cd633 Cd 0.24072 0.16539 0.5426 0.0
Cd634 Cd 0.27132 0.13629 0.51491 0.0
O635 O 0.2807 0.16968 0.49692 0.0
O636 O 0.22427 0.18487 0.57049 0.0
O637 O 0.25996 0.16583 0.57588 0.0
C638 C 0.24224 0.17912 0.58544 0.0
C639 C 0.30334 0.11134 0.52724 0.0
C640 C 0.26884 0.18986 0.49923 0.0
C641 C 0.21593 0.11775 0.51657 0.0
O642 O 0.23722 0.11543 0.50557 0.0
O643 O 0.21358 0.13588 0.53315 0.0
O644 O 0.29688 0.11237 0.50364 0.0
O645 O 0.29228 0.12554 0.54404 0.0
O646 O 0.42645 0.51404 0.78683 0.0
Cd647 Cd 0.40344 0.51479 0.7551 0.0
Cd648 Cd 0.37323 0.53661 0.78854 0.0
O649 O 0.40348 0.53628 0.81365 0.0
O650 O 0.42652 0.50575 0.72675 0.0
O651 O 0.41014 0.54332 0.73107 0.0
C652 C 0.42473 0.52835 0.71869 0.0
C653 C 0.35415 0.57406 0.78112 0.0
C654 C 0.42333 0.52451 0.80885 0.0
C655 C 0.35363 0.48554 0.76569 0.0
O656 O 0.3506 0.50286 0.78301 0.0
O657 O 0.3729 0.48744 0.75103 0.0
O658 O 0.35057 0.56255 0.80213 0.0
O659 O 0.36931 0.56458 0.76436 0.0
O660 O 0.73949 0.3543 0.46751 0.0
Cd661 Cd 0.75327 0.37024 0.50221 0.0
Cd662 Cd 0.73305 0.41345 0.48154 0.0
O663 O 0.7239 0.38792 0.45135 0.0
O664 O 0.76767 0.34062 0.51744 0.0
O665 O 0.73699 0.36124 0.5359 0.0
C666 C 0.75276 0.34359 0.53661 0.0
C667 C 0.70271 0.44102 0.49531 0.0
C668 C 0.72853 0.36449 0.44941 0.0
C669 C 0.78894 0.41769 0.49458 0.0
O670 O 0.77043 0.42816 0.48501 0.0
O671 O 0.7857 0.39531 0.50277 0.0
O672 O 0.71513 0.44419 0.47439 0.0
O673 O 0.70714 0.42164 0.50842 0.0
O674 O 0.6556 0.05309 0.7916 0.0
Cd675 Cd 0.63333 0.02316 0.8066 0.0
Cd676 Cd 0.60178 0.03288 0.7682 0.0
O677 O 0.63406 0.05302 0.75552 0.0
O678 O 0.65693 0.00529 0.82774 0.0
O679 O 0.63815 0.98748 0.79255 0.0
C680 C 0.65373 0.98598 0.81145 0.0
C681 C 0.57367 0.0129 0.73738 0.0
C682 C 0.6533 0.061 0.7693 0.0
C683 C 0.58496 0.0441 0.82212 0.0
O684 O 0.58278 0.04843 0.7987 0.0
O685 O 0.603 0.03154 0.82967 0.0
O686 O 0.57702 0.03745 0.74068 0.0
O687 O 0.58711 -0.00074 0.75119 0.0
O688 O 0.96049 0.28997 0.92911 0.0
Cd689 Cd 0.97286 0.26256 0.90337 0.0
Cd690 Cd 0.99438 0.30356 0.88135 0.0
O691 O 0.98392 0.32279 0.91425 0.0
O692 O 0.96629 0.22934 0.92008 0.0
O693 O 0.00521 0.24737 0.91301 0.0
C694 C 0.99078 0.22906 0.92242 0.0
C695 C 0.03672 0.30122 0.86983 0.0
C696 C 0.96866 0.31353 0.93084 0.0
C697 C 0.95461 0.27346 0.8507 0.0
O698 O 0.9672 0.29522 0.85335 0.0
O699 O 0.95594 0.25704 0.8676 0.0
O700 O 0.02545 0.32194 0.86707 0.0
O701 O 0.02403 0.28204 0.87975 0.0
O702 O 0.46848 0.78937 0.41651 0.0
Cd703 Cd 0.47622 0.75967 0.39101 0.0
Cd704 Cd 0.50049 0.79808 0.36701 0.0
O705 O 0.49206 0.8203 0.39867 0.0
O706 O 0.46607 0.72839 0.40972 0.0
O707 O 0.50608 0.73967 0.39893 0.0
C708 C 0.48995 0.72413 0.41024 0.0
C709 C 0.54265 0.79325 0.35611 0.0
C710 C 0.47765 0.81261 0.41663 0.0
C711 C 0.45727 0.77012 0.33864 0.0
O712 O 0.47266 0.7902 0.33956 0.0
O713 O 0.45679 0.75467 0.35657 0.0
O714 O 0.53192 0.81378 0.35115 0.0
O715 O 0.5293 0.77544 0.36753 0.0
O716 O 0.96963 0.77683 0.69454 0.0
Cd717 Cd 0.99534 0.7592 0.67138 0.0
Cd718 Cd 0.97203 0.78378 0.63373 0.0
O719 O 0.94891 0.79391 0.66384 0.0
O720 O 0.02122 0.74603 0.69383 0.0
O721 O 0.03116 0.77454 0.66498 0.0
C722 C 0.03855 0.75978 0.68207 0.0
C723 C 0.98554 0.8159 0.60664 0.0
C724 C 0.9516 0.78964 0.68728 0.0
C725 C 0.97319 0.72642 0.62744 0.0
O726 O 0.96855 0.74703 0.61728 0.0
O727 O 0.98247 0.72706 0.6498 0.0
O728 O 0.96259 0.80492 0.60542 0.0
O729 O 0.001 0.80878 0.62361 0.0
O730 O 0.46081 0.26832 0.1818 0.0
Cd731 Cd 0.48573 0.2588 0.15327 0.0
Cd732 Cd 0.46942 0.29983 0.1304 0.0
O733 O 0.45072 0.30384 0.16478 0.0
O734 O 0.51216 0.23797 0.16696 0.0
O735 O 0.52083 0.27718 0.15335 0.0
C736 C 0.52873 0.25696 0.1629 0.0
C737 C 0.48805 0.33621 0.11182 0.0
C738 C 0.44879 0.28846 0.18277 0.0
C739 C 0.45867 0.24802 0.10341 0.0
O740 O 0.45562 0.27181 0.10376 0.0
O741 O 0.47068 0.23878 0.12133 0.0
O742 O 0.46355 0.33174 0.11328 0.0
O743 O 0.50224 0.32044 0.12204 0.0
C744 C 0.24308 0.81219 0.90536 0.0
C745 C 0.22204 0.80993 0.8885 0.0
H746 H 0.25948 0.8294 0.94002 0.0
C747 C 0.20007 0.82243 0.89525 0.0
H748 H 0.26043 0.8031 0.90068 0.0
C749 C 0.19968 0.83789 0.91772 0.0
C750 C 0.22115 0.84094 0.93401 0.0
H751 H 0.1833 0.82062 0.88298 0.0
H752 H 0.1828 0.84794 0.922 0.0
C753 C 0.24257 0.82738 0.92794 0.0
C754 C 0.0852 0.54555 0.39503 0.0
C755 C 0.05864 0.54687 0.39271 0.0
H756 H 0.12078 0.54242 0.37557 0.0
C757 C 0.04772 0.54788 0.36838 0.0
H758 H 0.09402 0.54467 0.41361 0.0
C759 C 0.06295 0.54676 0.34666 0.0
C760 C 0.08939 0.54434 0.34884 0.0
H761 H 0.0273 0.54922 0.36615 0.0
H762 H 0.05384 0.54701 0.32814 0.0
C763 C 0.10044 0.54417 0.37326 0.0
C764 C 0.81409 0.7436 0.9459 0.0
C765 C 0.79359 0.7578 0.93931 0.0
H766 H 0.82663 0.71344 0.96764 0.0
C767 C 0.77004 0.75341 0.9519 0.0
H768 H 0.8327 0.74687 0.93713 0.0
C769 C 0.76681 0.73469 0.96989 0.0
C770 C 0.78691 0.71963 0.97538 0.0
H771 H 0.75369 0.76364 0.94714 0.0
H772 H 0.7482 0.73124 0.97863 0.0
C773 C 0.8107 0.72455 0.96353 0.0
C774 C 0.94149 0.03357 0.37831 0.0
C775 C 0.95587 0.01207 0.37663 0.0
H776 H 0.91485 0.05553 0.35972 0.0
C777 C 0.95516 -0.00342 0.35399 0.0
H778 H 0.94177 0.04578 0.39563 0.0
C779 C 0.9402 0.00234 0.3334 0.0
C780 C 0.9253 0.02349 0.33517 0.0
H781 H 0.96633 0.98006 0.35217 0.0
H782 H 0.93991 0.98985 0.31627 0.0
C783 C 0.92612 0.03911 0.35781 0.0
C784 C 0.21989 0.20674 0.64855 0.0
C785 C 0.24201 0.20725 0.66379 0.0
H786 H 0.20274 0.19761 0.61196 0.0
C787 C 0.26405 0.19716 0.65344 0.0
H788 H 0.20274 0.21475 0.65581 0.0
C789 C 0.26406 0.18727 0.62812 0.0
C790 C 0.24216 0.18771 0.61269 0.0
H791 H 0.28135 0.19729 0.6648 0.0
H792 H 0.2814 0.18 0.62044 0.0
C793 C 0.21999 0.19718 0.6233 0.0
C794 C 0.45781 0.57066 0.67008 0.0
C795 C 0.47237 0.5531 0.65659 0.0
H796 H 0.43114 0.57661 0.7004 0.0
C797 C 0.46999 0.52727 0.66287 0.0
H798 H 0.4593 0.59071 0.66572 0.0
C799 C 0.45406 0.51927 0.68265 0.0
C800 C 0.43998 0.53687 0.69659 0.0
H801 H 0.48046 0.51314 0.65245 0.0
H802 H 0.45299 0.49926 0.68715 0.0
C803 C 0.44173 0.5626 0.68993 0.0
C804 C 0.77981 0.29981 0.58276 0.0
C805 C 0.76304 0.30152 0.60347 0.0
H806 H 0.78943 0.31135 0.54537 0.0
C807 C 0.7419 0.31623 0.60168 0.0
H808 H 0.79604 0.28829 0.5835 0.0
C809 C 0.73812 0.32968 0.57978 0.0
C810 C 0.75521 0.32825 0.55922 0.0
H811 H 0.7287 0.31782 0.61745 0.0
H812 H 0.72204 0.34138 0.57906 0.0
C813 C 0.77588 0.31289 0.56084 0.0
C814 C 0.53032 0.9641 0.69797 0.0
C815 C 0.51506 0.9803 0.6852 0.0
H816 H 0.56098 0.96169 0.72476 0.0
C817 C 0.51976 0.00697 0.68927 0.0
H818 H 0.52713 0.94346 0.69508 0.0
C819 C 0.53902 0.01731 0.70592 0.0
C820 C 0.55412 0.00126 0.71902 0.0
H821 H 0.50876 0.01998 0.67925 0.0
H822 H 0.54196 0.038 0.70858 0.0
C823 C 0.54966 0.97452 0.71489 0.0
C824 C 0.91092 0.23615 0.80225 0.0
C825 C 0.90048 0.25589 0.78952 0.0
H826 H 0.93608 0.22625 0.83162 0.0
C827 C 0.9098 0.28145 0.79556 0.0
H828 H 0.9047 0.21621 0.79761 0.0
C829 C 0.92822 0.28716 0.81479 0.0
C830 C 0.93742 0.26745 0.82851 0.0
H831 H 0.90206 0.29713 0.78627 0.0
H832 H 0.93441 0.30708 0.81964 0.0
C833 C 0.929 0.24187 0.82168 0.0
C834 C 0.47191 0.87436 0.45608 0.0
C835 C 0.46034 0.86534 0.47838 0.0
H836 H 0.48659 0.86477 0.41913 0.0
C837 C 0.45457 0.83886 0.48033 0.0
H838 H 0.47676 0.8947 0.45421 0.0
C839 C 0.46003 0.82171 0.46019 0.0
C840 C 0.47165 0.83072 0.43786 0.0
H841 H 0.44548 0.83146 0.49728 0.0
H842 H 0.45527 0.80139 0.46219 0.0
C843 C 0.47763 0.85722 0.43607 0.0
C844 C 0.0942 0.27438 0.83838 0.0
C845 C 0.11143 0.29644 0.83749 0.0
H846 H 0.05714 0.25858 0.84981 0.0
C847 C 0.10445 0.31955 0.84943 0.0
H848 H 0.09861 0.2563 0.8292 0.0
C849 C 0.08032 0.32098 0.8604 0.0
C850 C 0.06297 0.29914 0.86051 0.0
H851 H 0.11744 0.33677 0.85001 0.0
H852 H 0.07517 0.33922 0.86867 0.0
C853 C 0.07033 0.27567 0.85006 0.0
C854 C 0.53275 0.6826 0.44517 0.0
C855 C 0.5146 0.66667 0.45795 0.0
H856 H 0.53919 0.71327 0.41988 0.0
C857 C 0.48841 0.66844 0.45322 0.0
H858 H 0.55307 0.68176 0.44854 0.0
C859 C 0.48048 0.68648 0.43693 0.0
C860 C 0.49857 0.70313 0.42497 0.0
H861 H 0.47399 0.65607 0.46238 0.0
H862 H 0.46012 0.68775 0.43421 0.0
C863 C 0.5248 0.70068 0.42882 0.0
C864 C 0.91249 0.7958 0.74747 0.0
C865 C 0.8964 0.81499 0.74172 0.0
H866 H 0.94259 0.77301 0.735 0.0
C867 C 0.89903 0.82614 0.71794 0.0
H868 H 0.91069 0.78627 0.76527 0.0
C869 C 0.91706 0.81804 0.70028 0.0
C870 C 0.93307 0.79888 0.70615 0.0
H871 H 0.88727 0.84121 0.71297 0.0
H872 H 0.91851 0.82688 0.68207 0.0
C873 C 0.93073 0.78802 0.73001 0.0
C874 C 0.02165 0.87308 0.57799 0.0
C875 C 0.00745 0.87533 0.5555 0.0
H876 H 0.026 0.85239 0.61172 0.0
C877 C 0.98652 0.85733 0.54981 0.0
H878 H 0.03765 0.88679 0.58323 0.0
C879 C 0.97954 0.83805 0.56644 0.0
C880 C 0.99359 0.83599 0.58894 0.0
H881 H 0.97549 0.85799 0.53242 0.0
H882 H 0.96319 0.82463 0.56155 0.0
C883 C 0.0149 0.85347 0.59443 0.0
C884 C 0.09904 0.73456 0.70655 0.0
C885 C 0.11822 0.75213 0.69755 0.0
H886 H 0.05899 0.72349 0.70907 0.0
C887 C 0.11106 0.77224 0.68303 0.0
H888 H 0.1039 0.71915 0.71818 0.0
C889 C 0.08517 0.77479 0.67779 0.0
C890 C 0.066 0.7575 0.68733 0.0
H891 H 0.12547 0.78609 0.6759 0.0
H892 H 0.08017 0.79046 0.66659 0.0
C893 C 0.07325 0.73728 0.70161 0.0
C894 C 0.96682 0.67841 0.57115 0.0
C895 C 0.97068 0.65546 0.58274 0.0
H896 H 0.96409 0.71883 0.57627 0.0
C897 C 0.97316 0.65562 0.60937 0.0
H898 H 0.96449 0.67867 0.55065 0.0
C899 C 0.97299 0.67859 0.62407 0.0
C900 C 0.97009 0.70176 0.61238 0.0
H901 H 0.97619 0.63815 0.61873 0.0
H902 H 0.9758 0.67829 0.6445 0.0
C903 C 0.96639 0.70133 0.58584 0.0
C904 C 0.79654 0.93469 0.28442 0.0
C905 C 0.79831 0.91761 0.26303 0.0
H906 H 0.80838 0.9714 0.30216 0.0
C907 C 0.81275 0.92583 0.24195 0.0
H908 H 0.7859 0.92895 0.30115 0.0
C909 C 0.826 0.95013 0.24271 0.0
C910 C 0.82485 0.96682 0.26445 0.0
H911 H 0.81406 0.91339 0.22495 0.0
H912 H 0.83755 0.95563 0.22647 0.0
C913 C 0.80951 0.95907 0.28504 0.0
C914 C 0.8009 0.13522 0.29198 0.0
C915 C 0.79951 0.14369 0.2671 0.0
H916 H 0.8149 0.10805 0.31636 0.0
C917 C 0.81193 0.13071 0.24725 0.0
H918 H 0.79128 0.14475 0.30759 0.0
C919 C 0.82579 0.10975 0.25233 0.0
C920 C 0.82701 0.10123 0.27726 0.0
H921 H 0.81118 0.13697 0.22793 0.0
H922 H 0.83523 0.10003 0.23673 0.0
C923 C 0.81437 0.11416 0.29698 0.0
C924 C 0.29075 0.00088 0.95842 0.0
C925 C 0.31696 -0.00082 0.96298 0.0
H926 H 0.25277 0.98259 0.96072 0.0
C927 C 0.32498 0.97742 0.97417 0.0
H928 H 0.28415 0.01749 0.94975 0.0
C929 C 0.30712 0.95763 0.98067 0.0
C930 C 0.2809 0.95909 0.97583 0.0
H931 H 0.34508 0.97583 0.97817 0.0
H932 H 0.31393 0.94105 0.98922 0.0
C933 C 0.27286 0.98091 0.96463 0.0
C934 C 0.19623 0.42105 0.29256 0.0
C935 C 0.21249 0.42022 0.31378 0.0
H936 H 0.17049 0.4429 0.27256 0.0
C937 C 0.21511 0.44131 0.33147 0.0
H938 H 0.19382 0.40496 0.2787 0.0
C939 C 0.20205 0.46298 0.32786 0.0
C940 C 0.18586 0.46395 0.30661 0.0
H941 H 0.22776 0.44131 0.34783 0.0
H942 H 0.20471 0.47902 0.34176 0.0
C943 C 0.18285 0.44268 0.2891 0.0
C944 C 0.17283 0.06498 0.48279 0.0
C945 C 0.15215 0.06263 0.49973 0.0
H946 H 0.20947 0.08419 0.47497 0.0
C947 C 0.15248 0.07855 0.52209 0.0
H948 H 0.17297 0.05282 0.46545 0.0
C949 C 0.17309 0.09667 0.52738 0.0
C950 C 0.19393 0.09894 0.51058 0.0
H951 H 0.1366 0.07723 0.53531 0.0
H952 H 0.1728 0.10873 0.54477 0.0
C953 C 0.19368 0.08284 0.48827 0.0
C954 C 0.68822 0.10724 0.7256 0.0
C955 C 0.70695 0.11982 0.74205 0.0
H956 H 0.65669 0.07867 0.72123 0.0
C957 C 0.70845 0.11223 0.7673 0.0
H958 H 0.68681 0.11238 0.70595 0.0
C959 C 0.69142 0.09271 0.77598 0.0
C960 C 0.67238 0.08049 0.75967 0.0
H961 H 0.72241 0.12179 0.78059 0.0
H962 H 0.69285 0.08762 0.79565 0.0
C963 C 0.67108 0.08781 0.73433 0.0
C964 C 0.34264 0.0542 0.52458 0.0
C965 C 0.35493 0.05628 0.54853 0.0
H966 H 0.31722 0.07007 0.49908 0.0
C967 C 0.3503 0.07711 0.56551 0.0
H968 H 0.34506 0.03813 0.51122 0.0
C969 C 0.33364 0.09523 0.55869 0.0
C970 C 0.32167 0.09308 0.53463 0.0
H971 H 0.35965 0.07955 0.58399 0.0
H972 H 0.33024 0.11096 0.57215 0.0
C973 C 0.32648 0.07249 0.51763 0.0
C974 C 0.64832 0.47101 0.53008 0.0
C975 C 0.64844 0.49477 0.51867 0.0
H976 H 0.66547 0.43531 0.53172 0.0
C977 C 0.66705 0.5008 0.50017 0.0
H978 H 0.63408 0.4656 0.54419 0.0
C979 C 0.6846 0.48329 0.49273 0.0
C980 C 0.68426 0.45946 0.50385 0.0
H981 H 0.66816 0.51913 0.49141 0.0
H982 H 0.69856 0.48854 0.47828 0.0
C983 C 0.66617 0.45357 0.52284 0.0
C984 C 0.71295 0.34825 0.37966 0.0
C985 C 0.72018 0.32304 0.37677 0.0
H986 H 0.70975 0.38116 0.40499 0.0
C987 C 0.72772 0.3108 0.39842 0.0
H988 H 0.70708 0.35815 0.36329 0.0
C989 C 0.7293 0.32391 0.42226 0.0
C990 C 0.72336 0.34957 0.42498 0.0
H991 H 0.73285 0.29116 0.39686 0.0
H992 H 0.73592 0.31412 0.43839 0.0
C993 C 0.71454 0.36141 0.40354 0.0
C994 C 0.54154 0.04884 0.87942 0.0
C995 C 0.52625 0.06823 0.87255 0.0
H996 H 0.57256 0.02623 0.86897 0.0
C997 C 0.53138 0.08059 0.84982 0.0
H998 H 0.53797 0.03915 0.89696 0.0
C999 C 0.55085 0.07304 0.83372 0.0
C1000 C 0.5658 0.05324 0.84024 0.0
H1001 H 0.51974 0.09548 0.84405 0.0
H1002 H 0.55396 0.08249 0.81598 0.0
C1003 C 0.56134 0.04156 0.86349 0.0
C1004 C 0.26015 0.24455 0.45663 0.0
C1005 C 0.28336 0.246 0.44307 0.0
H1006 H 0.2375 0.22588 0.48527 0.0
C1007 C 0.30254 0.23026 0.44985 0.0
H1008 H 0.24479 0.25609 0.4518 0.0
C1009 C 0.29809 0.21253 0.46863 0.0
C1010 C 0.27455 0.21049 0.48146 0.0
H1011 H 0.32092 0.2313 0.44035 0.0
H1012 H 0.31296 0.20016 0.47286 0.0
C1013 C 0.25588 0.22713 0.47577 0.0
C1014 C 0.48277 0.50673 0.84246 0.0
C1015 C 0.47634 0.51089 0.86821 0.0
H1016 H 0.47111 0.50784 0.80352 0.0
C1017 C 0.45291 0.52093 0.87433 0.0
H1018 H 0.50064 0.49885 0.8372 0.0
C1019 C 0.43602 0.52628 0.85503 0.0
C1020 C 0.44213 0.52137 0.82926 0.0
H1021 H 0.44762 0.52459 0.89406 0.0
H1022 H 0.41791 0.53359 0.86033 0.0
C1023 C 0.46581 0.5118 0.82319 0.0
C1024 C 0.73081 0.70793 0.13947 0.0
C1025 C 0.75304 0.70987 0.15469 0.0
H1026 H 0.71411 0.69781 0.10283 0.0
C1027 C 0.77581 0.70146 0.14429 0.0
H1028 H 0.71308 0.7146 0.14682 0.0
C1029 C 0.77642 0.69177 0.11896 0.0
C1030 C 0.75434 0.69069 0.10354 0.0
H1031 H 0.7932 0.70269 0.15566 0.0
H1032 H 0.79429 0.68578 0.11127 0.0
C1033 C 0.73148 0.69853 0.11417 0.0
C1034 C 0.95188 0.08159 0.18137 0.0
C1035 C 0.96759 0.0647 0.16846 0.0
H1036 H 0.92283 0.08601 0.20972 0.0
C1037 C 0.96497 0.03859 0.1737 0.0
H1038 H 0.95348 0.10181 0.17769 0.0
C1039 C 0.9476 0.02961 0.19187 0.0
C1040 C 0.93229 0.04648 0.20524 0.0
H1041 H 0.9763 0.02495 0.16362 0.0
H1042 H 0.94635 0.00938 0.19554 0.0
C1043 C 0.93438 0.07255 0.19968 0.0
C1044 C 0.28329 0.83428 0.09331 0.0
C1045 C 0.26226 0.82723 0.10876 0.0
H1046 H 0.29666 0.85283 0.06003 0.0
C1047 C 0.23806 0.83512 0.10266 0.0
H1048 H 0.30211 0.82821 0.0973 0.0
C1049 C 0.23491 0.84935 0.08117 0.0
C1050 C 0.25586 0.85561 0.06531 0.0
H1051 H 0.22156 0.83008 0.11435 0.0
H1052 H 0.21599 0.85478 0.0766 0.0
C1053 C 0.28012 0.84824 0.07183 0.0
C1054 C 0.03499 0.46923 0.19979 0.0
C1055 C 0.01823 0.48557 0.18924 0.0
H1056 H 0.06771 0.46636 0.22388 0.0
C1057 C 0.02246 0.51215 0.19456 0.0
H1058 H 0.0322 0.44866 0.19606 0.0
C1059 C 0.04255 0.52218 0.21041 0.0
C1060 C 0.0591 0.50593 0.22128 0.0
H1061 H 0.01038 0.52535 0.18621 0.0
H1062 H 0.04506 0.54278 0.21414 0.0
C1063 C 0.05528 0.47935 0.2157 0.0
C1064 C 0.40919 0.73574 0.29246 0.0
C1065 C 0.40029 0.75624 0.27962 0.0
H1066 H 0.43403 0.72411 0.3213 0.0
C1067 C 0.41189 0.78114 0.28501 0.0
H1068 H 0.40125 0.71621 0.2883 0.0
C1069 C 0.43119 0.78553 0.30351 0.0
C1070 C 0.43896 0.76519 0.31725 0.0
H1071 H 0.40538 0.79744 0.27574 0.0
H1072 H 0.43923 0.80502 0.30781 0.0
C1073 C 0.4281 0.74021 0.31127 0.0
C1074 C 0.9429 0.33581 0.99491 0.0
C1075 C 0.94578 0.36256 0.99331 0.0
H1076 H 0.94756 0.29919 0.97613 0.0
C1077 C 0.95604 0.37303 0.97107 0.0
H1078 H 0.93497 0.32734 0.01188 0.0
C1079 C 0.96348 0.35707 0.95082 0.0
C1080 C 0.9605 0.33029 0.95227 0.0
H1081 H 0.95869 0.39363 0.96951 0.0
H1082 H 0.97148 0.36574 0.93398 0.0
C1083 C 0.94998 0.31978 0.97444 0.0
C1084 C 0.60457 0.76336 0.34029 0.0
C1085 C 0.61989 0.78458 0.33198 0.0
H1086 H 0.56805 0.74952 0.35489 0.0
C1087 C 0.60979 0.80862 0.33222 0.0
H1088 H 0.61195 0.74464 0.34032 0.0
C1089 C 0.5848 0.81139 0.34029 0.0
C1090 C 0.56938 0.79021 0.3485 0.0
H1091 H 0.62104 0.82523 0.32554 0.0
H1092 H 0.57753 0.83014 0.33993 0.0
C1093 C 0.57955 0.76619 0.34869 0.0
C1094 C 0.03408 0.19752 0.96661 0.0
C1095 C 0.01967 0.17423 0.97022 0.0
H1096 H 0.03645 0.23302 0.94787 0.0
C1097 C 0.99668 0.16821 0.95667 0.0
H1098 H 0.05186 0.20242 0.97699 0.0
C1099 C 0.98762 0.18579 0.94046 0.0
C1100 C 0.00171 0.20939 0.93718 0.0
H1101 H 0.98532 0.15031 0.95934 0.0
H1102 H 0.96938 0.1811 0.93084 0.0
C1103 C 0.02532 0.21487 0.94992 0.0
C1104 C 0.40524 0.27804 0.23949 0.0
C1105 C 0.39426 0.30165 0.24221 0.0
H1106 H 0.43121 0.2554 0.21873 0.0
C1107 C 0.40261 0.32133 0.22619 0.0
H1108 H 0.39908 0.26237 0.25132 0.0
C1109 C 0.42078 0.31723 0.20732 0.0
C1110 C 0.43122 0.29342 0.20416 0.0
H1111 H 0.39499 0.33994 0.22813 0.0
H1112 H 0.42642 0.33267 0.19501 0.0
C1113 C 0.4236 0.274 0.22074 0.0
C1114 C 0.53436 0.37715 0.0726 0.0
C1115 C 0.518 0.39414 0.06251 0.0
H1116 H 0.53776 0.34554 0.09639 0.0
C1117 C 0.49247 0.39344 0.07079 0.0
H1118 H 0.55411 0.37714 0.0665 0.0
C1119 C 0.48312 0.37532 0.08775 0.0
C1120 C 0.49912 0.35756 0.09693 0.0
H1121 H 0.47954 0.40665 0.06384 0.0
H1122 H 0.46312 0.37483 0.09314 0.0
C1123 C 0.525 0.35903 0.0897 0.0
C1124 C 0.59216 0.23044 0.17565 0.0
C1125 C 0.60661 0.25201 0.18694 0.0
H1126 H 0.55608 0.21507 0.15962 0.0
C1127 C 0.5954 0.27565 0.1886 0.0
H1128 H 0.60013 0.21206 0.17325 0.0
C1129 C 0.57047 0.27749 0.17973 0.0
C1130 C 0.55585 0.25563 0.16975 0.0
H1131 H 0.6054 0.29267 0.19761 0.0
H1132 H 0.56222 0.29578 0.18178 0.0
C1133 C 0.56694 0.23215 0.16758 0.0
C1134 C 0.43621 0.22481 0.03705 0.0
C1135 C 0.43242 0.19825 0.03967 0.0
H1136 H 0.44712 0.26156 0.05545 0.0
C1137 C 0.43643 0.18826 0.06353 0.0
H1138 H 0.43322 0.23287 0.01878 0.0
C1139 C 0.44473 0.20449 0.08431 0.0
C1140 C 0.44878 0.23106 0.08171 0.0
H1141 H 0.43388 0.16778 0.0659 0.0
H1142 H 0.44812 0.19622 0.10238 0.0
C1143 C 0.44406 0.24114 0.05799 0.0
C1144 C 0.30237 0.43429 0.7827 0.0
C1145 C 0.30392 0.41595 0.76235 0.0
H1146 H 0.31659 0.4707 0.79956 0.0
C1147 C 0.32114 0.4213 0.74241 0.0
H1148 H 0.28963 0.43066 0.79859 0.0
C1149 C 0.33691 0.44419 0.74316 0.0
C1150 C 0.33563 0.46227 0.76376 0.0
H1151 H 0.32248 0.40778 0.72623 0.0
H1152 H 0.35026 0.44758 0.72771 0.0
C1153 C 0.31793 0.45725 0.78332 0.0
C1154 C 0.31486 0.63075 0.79259 0.0
C1155 C 0.31261 0.63964 0.76795 0.0
H1156 H 0.3297 0.60323 0.81597 0.0
C1157 C 0.32445 0.62699 0.74748 0.0
H1158 H 0.30568 0.63996 0.80868 0.0
C1159 C 0.33854 0.60595 0.75171 0.0
C1160 C 0.34058 0.59702 0.7764 0.0
H1161 H 0.32305 0.63354 0.72832 0.0
H1162 H 0.34747 0.59646 0.73564 0.0
C1163 C 0.32856 0.60965 0.79674 0.0
C1164 C 0.84521 0.46457 0.48064 0.0
C1165 C 0.86345 0.45821 0.49833 0.0
H1166 H 0.80712 0.4569 0.46584 0.0
C1167 C 0.85717 0.43845 0.51484 0.0
H1168 H 0.84964 0.47994 0.4679 0.0
C1169 C 0.83297 0.42503 0.51346 0.0
C1170 C 0.81458 0.43159 0.49593 0.0
H1171 H 0.87103 0.4333 0.52862 0.0
H1172 H 0.82856 0.40978 0.52633 0.0
C1173 C 0.82089 0.45152 0.4796 0.0
C1174 C 0.69833 0.94096 0.83837 0.0
C1175 C 0.70123 0.92348 0.81756 0.0
H1176 H 0.68101 0.97427 0.85274 0.0
C1177 C 0.68719 0.92582 0.79506 0.0
H1178 H 0.7091 0.93983 0.85586 0.0
C1179 C 0.67091 0.94557 0.7933 0.0
C1180 C 0.66868 0.9635 0.81389 0.0
H1181 H 0.68892 0.91248 0.7788 0.0
H1182 H 0.66068 0.94723 0.77559 0.0
C1183 C 0.68232 0.96078 0.83653 0.0
C1184 C 0.67442 0.5769 0.00902 0.0
C1185 C 0.67521 0.5615 0.9864 0.0
H1186 H 0.69238 0.60795 0.03223 0.0
C1187 C 0.69559 0.56594 0.96939 0.0
H1188 H 0.65869 0.5741 0.02226 0.0
C1189 C 0.71506 0.58534 0.97513 0.0
C1190 C 0.71417 0.60082 -0.00223 0.0
H1191 H 0.69657 0.55427 0.95181 0.0
H1192 H 0.73069 0.58829 0.96182 0.0
C1193 C 0.6936 0.59643 0.01459 0.0
C1194 C 0.18488 0.61745 0.21721 0.0
C1195 C 0.20885 0.62581 0.22811 0.0
H1196 H 0.15099 0.59177 0.21908 0.0
C1197 C 0.2171 0.61385 0.24969 0.0
H1198 H 0.17807 0.62609 0.20045 0.0
C1199 C 0.20179 0.59405 0.26015 0.0
C1200 C 0.17771 0.58588 0.24947 0.0
H1201 H 0.23519 0.62016 0.25895 0.0
H1202 H 0.20868 0.5855 0.27693 0.0
C1203 C 0.16943 0.59771 0.22783 0.0
C1204 C 0.86357 0.57005 0.02996 0.0
C1205 C 0.86047 0.56396 0.05558 0.0
H1206 H 0.85309 0.59343 0.00015 0.0
C1207 C 0.84569 0.5791 0.07168 0.0
H1208 H 0.87533 0.55908 0.01725 0.0
C1209 C 0.833 0.59898 0.0619 0.0
C1210 C 0.83497 0.60406 0.03589 0.0
H1211 H 0.843 0.57482 0.09152 0.0
H1212 H 0.82079 0.60959 0.07445 0.0
C1213 C 0.85098 0.58987 0.02022 0.0
C1214 C 0.12035 0.97062 0.00075 0.0
C1215 C 0.12196 0.98053 0.02614 0.0
H1216 H 0.13549 0.94581 0.97203 0.0
C1217 C 0.13874 0.97026 0.04309 0.0
H1218 H 0.10712 0.97765 0.9874 0.0
C1219 C 0.15482 0.95167 0.03433 0.0
C1220 C 0.15442 0.94318 0.00848 0.0
H1221 H 0.14042 0.97754 0.06277 0.0
H1222 H 0.16854 0.94508 0.04745 0.0
C1223 C 0.13645 0.95222 0.992 0.0
loop_
_geom_bond_atom_site_label_1
_geom_bond_atom_site_label_2
_geom_bond_distance
_geom_bond_site_symmetry_2
_ccdc_geom_bond_type
C0 C1 1.384 . S
C0 H13 0.947 . S
C0 C35 1.382 . S
C1 C0 1.384 . S
C1 C2 1.378 . S
C2 C1 1.378 . S
C2 C3 1.378 . S
C2 H14 0.952 . S
C3 C2 1.378 . S
C3 H15 0.950 . S
C3 C34 1.383 . S
H4 C23 0.947 . S
H5 C24 0.946 . S
H6 C26 0.953 . S
H7 C27 0.945 . S
H8 C29 0.952 . S
H9 C30 0.949 . S
H10 C32 0.950 . S
H11 C33 0.948 . S
H12 C35 0.951 . S
H13 C0 0.947 . S
H14 C2 0.952 . S
H15 C3 0.950 . S
N16 C19 1.382 . S
N16 C21 1.363 . S
N17 C19 1.371 . S
N17 C20 1.372 . S
N18 C20 1.361 . S
N18 C21 1.377 . S
C19 N16 1.382 . S
C19 N17 1.371 . S
C19 C22 1.480 . S
C20 N17 1.372 . S
C20 N18 1.361 . S
C20 C28 1.457 . S
C21 N16 1.363 . S
C21 N18 1.377 . S
C21 C34 1.479 . S
C22 C19 1.480 . S
C22 C23 1.383 . S
C22 C27 1.385 . S
C23 H4 0.947 . S
C23 C22 1.383 . S
C23 C24 1.388 . S
C24 H5 0.946 . S
C24 C23 1.388 . S
C24 C25 1.384 . S
C25 C24 1.384 . S
C25 C26 1.377 . S
C26 H6 0.953 . S
C26 C25 1.377 . S
C26 C27 1.369 . S
C27 H7 0.945 . S
C27 C22 1.385 . S
C27 C26 1.369 . S
C28 C20 1.457 . S
C28 C29 1.372 . S
C28 C33 1.364 . S
C29 H8 0.952 . S
C29 C28 1.372 . S
C29 C30 1.389 . S
C30 H9 0.949 . S
C30 C29 1.389 . S
C30 C31 1.387 . S
C31 C30 1.387 . S
C31 C32 1.372 . S
C32 H10 0.950 . S
C32 C31 1.372 . S
C32 C33 1.379 . S
C33 H11 0.948 . S
C33 C28 1.364 . S
C33 C32 1.379 . S
C34 C3 1.383 . S
C34 C21 1.479 . S
C34 C35 1.398 . S
C35 C0 1.382 . S
C35 H12 0.951 . S
C35 C34 1.398 . S
C36 C37 1.384 . S
C36 H49 0.947 . S
C36 C71 1.382 . S
C37 C36 1.384 . S
C37 C38 1.378 . S
C38 C37 1.378 . S
C38 C39 1.378 . S
C38 H50 0.952 . S
C39 C38 1.378 . S
C39 H51 0.950 . S
C39 C70 1.383 . S
H40 C59 0.947 . S
H41 C60 0.946 . S
H42 C62 0.953 . S
H43 C63 0.945 . S
H44 C65 0.952 . S
H45 C66 0.949 . S
H46 C68 0.950 . S
H47 C69 0.948 . S
H48 C71 0.951 . S
H49 C36 0.947 . S
H50 C38 0.952 . S
H51 C39 0.950 . S
N52 C55 1.382 . S
N52 C57 1.363 . S
N53 C55 1.371 . S
N53 C56 1.372 . S
N54 C56 1.361 . S
N54 C57 1.377 . S
C55 N52 1.382 . S
C55 N53 1.371 . S
C55 C58 1.480 . S
C56 N53 1.372 . S
C56 N54 1.361 . S
C56 C64 1.457 . S
C57 N52 1.363 . S
C57 N54 1.377 . S
C57 C70 1.479 . S
C58 C55 1.480 . S
C58 C59 1.383 . S
C58 C63 1.385 . S
C59 H40 0.947 . S
C59 C58 1.383 . S
C59 C60 1.388 . S
C60 H41 0.946 . S
C60 C59 1.388 . S
C60 C61 1.384 . S
C61 C60 1.384 . S
C61 C62 1.377 . S
C62 H42 0.953 . S
C62 C61 1.377 . S
C62 C63 1.369 . S
C63 H43 0.945 . S
C63 C58 1.385 . S
C63 C62 1.369 . S
C64 C56 1.457 . S
C64 C65 1.372 . S
C64 C69 1.364 . S
C65 H44 0.952 . S
C65 C64 1.372 . S
C65 C66 1.389 . S
C66 H45 0.949 . S
C66 C65 1.389 . S
C66 C67 1.387 . S
C67 C66 1.387 . S
C67 C68 1.372 . S
C68 H46 0.950 . S
C68 C67 1.372 . S
C68 C69 1.379 . S
C69 H47 0.948 . S
C69 C64 1.364 . S
C69 C68 1.379 . S
C70 C39 1.383 . S
C70 C57 1.479 . S
C70 C71 1.398 . S
C71 C36 1.382 . S
C71 H48 0.951 . S
C71 C70 1.398 . S
C72 C73 1.384 . S
C72 H85 0.947 . S
C72 C107 1.382 . S
C73 C72 1.384 . S
C73 C74 1.378 . S
C74 C73 1.378 . S
C74 C75 1.378 . S
C74 H86 0.952 1_554 S
C75 C74 1.378 . S
C75 H87 0.950 . S
C75 C106 1.383 . S
H76 C95 0.947 . S
H77 C96 0.946 . S
H78 C98 0.953 . S
H79 C99 0.945 . S
H80 C101 0.952 . S
H81 C102 0.949 . S
H82 C104 0.950 . S
H83 C105 0.948 . S
H84 C107 0.951 . S
H85 C72 0.947 . S
H86 C74 0.952 1_556 S
H87 C75 0.950 . S
N88 C91 1.382 . S
N88 C93 1.363 . S
N89 C91 1.371 . S
N89 C92 1.372 . S
N90 C92 1.361 . S
N90 C93 1.377 . S
C91 N88 1.382 . S
C91 N89 1.371 . S
C91 C94 1.480 . S
C92 N89 1.372 . S
C92 N90 1.361 . S
C92 C100 1.457 . S
C93 N88 1.363 . S
C93 N90 1.377 . S
C93 C106 1.479 . S
C94 C91 1.480 . S
C94 C95 1.383 . S
C94 C99 1.385 . S
C95 H76 0.947 . S
C95 C94 1.383 . S
C95 C96 1.388 . S
C96 H77 0.946 . S
C96 C95 1.388 . S
C96 C97 1.384 . S
C97 C96 1.384 . S
C97 C98 1.377 . S
C98 H78 0.953 . S
C98 C97 1.377 . S
C98 C99 1.369 . S
C99 H79 0.945 . S
C99 C94 1.385 . S
C99 C98 1.369 . S
C100 C92 1.457 . S
C100 C101 1.372 . S
C100 C105 1.364 . S
C101 H80 0.952 . S
C101 C100 1.372 . S
C101 C102 1.389 . S
C102 H81 0.949 . S
C102 C101 1.389 . S
C102 C103 1.387 . S
C103 C102 1.387 . S
C103 C104 1.372 . S
C104 H82 0.950 . S
C104 C103 1.372 . S
C104 C105 1.379 . S
C105 H83 0.948 . S
C105 C100 1.364 . S
C105 C104 1.379 . S
C106 C75 1.383 . S
C106 C93 1.479 . S
C106 C107 1.398 . S
C107 C72 1.382 . S
C107 H84 0.951 . S
C107 C106 1.398 . S
C108 C109 1.384 . S
C108 H121 0.947 . S
C108 C143 1.382 . S
C109 C108 1.384 . S
C109 C110 1.378 . S
C110 C109 1.378 . S
C110 C111 1.378 . S
C110 H122 0.952 . S
C111 C110 1.378 . S
C111 H123 0.950 . S
C111 C142 1.383 . S
H112 C131 0.947 . S
H113 C132 0.946 . S
H114 C134 0.953 . S
H115 C135 0.945 . S
H116 C137 0.952 . S
H117 C138 0.949 . S
H118 C140 0.950 . S
H119 C141 0.948 . S
H120 C143 0.951 . S
H121 C108 0.947 . S
H122 C110 0.952 . S
H123 C111 0.950 . S
N124 C127 1.382 . S
N124 C129 1.363 . S
N125 C127 1.371 . S
N125 C128 1.372 . S
N126 C128 1.361 . S
N126 C129 1.377 . S
C127 N124 1.382 . S
C127 N125 1.371 . S
C127 C130 1.480 . S
C128 N125 1.372 . S
C128 N126 1.361 . S
C128 C136 1.457 . S
C129 N124 1.363 . S
C129 N126 1.377 . S
C129 C142 1.479 . S
C130 C127 1.480 . S
C130 C131 1.383 . S
C130 C135 1.385 . S
C131 H112 0.947 . S
C131 C130 1.383 . S
C131 C132 1.388 . S
C132 H113 0.946 . S
C132 C131 1.388 . S
C132 C133 1.384 . S
C133 C132 1.384 . S
C133 C134 1.377 . S
C134 H114 0.953 . S
C134 C133 1.377 . S
C134 C135 1.369 . S
C135 H115 0.945 . S
C135 C130 1.385 . S
C135 C134 1.369 . S
C136 C128 1.457 . S
C136 C137 1.372 . S
C136 C141 1.364 . S
C137 H116 0.952 . S
C137 C136 1.372 . S
C137 C138 1.389 . S
C138 H117 0.949 . S
C138 C137 1.389 . S
C138 C139 1.387 . S
C139 C138 1.387 . S
C139 C140 1.372 . S
C140 H118 0.950 . S
C140 C139 1.372 . S
C140 C141 1.379 . S
C141 H119 0.948 . S
C141 C136 1.364 . S
C141 C140 1.379 . S
C142 C111 1.383 . S
C142 C129 1.479 . S
C142 C143 1.398 . S
C143 C108 1.382 . S
C143 H120 0.951 . S
C143 C142 1.398 . S
C144 C145 1.384 . S
C144 H157 0.947 . S
C144 C179 1.382 . S
C145 C144 1.384 . S
C145 C146 1.378 . S
C146 C145 1.378 . S
C146 C147 1.378 . S
C146 H158 0.952 . S
C147 C146 1.378 . S
C147 H159 0.950 . S
C147 C178 1.383 . S
H148 C167 0.947 . S
H149 C168 0.946 1_655 S
H150 C170 0.953 1_545 S
H151 C171 0.945 . S
H152 C173 0.952 . S
H153 C174 0.949 . S
H154 C176 0.950 . S
H155 C177 0.948 . S
H156 C179 0.951 . S
H157 C144 0.947 . S
H158 C146 0.952 . S
H159 C147 0.950 . S
N160 C163 1.382 . S
N160 C165 1.363 . S
N161 C163 1.371 . S
N161 C164 1.372 . S
N162 C164 1.361 . S
N162 C165 1.377 . S
C163 N160 1.382 . S
C163 N161 1.371 . S
C163 C166 1.480 . S
C164 N161 1.372 . S
C164 N162 1.361 . S
C164 C172 1.457 . S
C165 N160 1.363 . S
C165 N162 1.377 . S
C165 C178 1.479 . S
C166 C163 1.480 . S
C166 C167 1.383 . S
C166 C171 1.385 . S
C167 H148 0.947 . S
C167 C166 1.383 . S
C167 C168 1.388 . S
C168 H149 0.946 1_455 S
C168 C167 1.388 . S
C168 C169 1.384 . S
C169 C168 1.384 . S
C169 C170 1.377 . S
C170 H150 0.953 1_565 S
C170 C169 1.377 . S
C170 C171 1.369 . S
C171 H151 0.945 . S
C171 C166 1.385 . S
C171 C170 1.369 . S
C172 C164 1.457 . S
C172 C173 1.372 1_565 S
C172 C177 1.364 . S
C173 H152 0.952 . S
C173 C172 1.372 1_545 S
C173 C174 1.389 . S
C174 H153 0.949 . S
C174 C173 1.389 . S
C174 C175 1.387 . S
C175 C174 1.387 . S
C175 C176 1.372 1_545 S
C176 H154 0.950 . S
C176 C175 1.372 1_565 S
C176 C177 1.379 . S
C177 H155 0.948 . S
C177 C172 1.364 . S
C177 C176 1.379 . S
C178 C147 1.383 . S
C178 C165 1.479 . S
C178 C179 1.398 . S
C179 C144 1.382 . S
C179 H156 0.951 . S
C179 C178 1.398 . S
C180 C181 1.384 . S
C180 H193 0.947 . S
C180 C215 1.382 . S
C181 C180 1.384 . S
C181 C182 1.378 . S
C182 C181 1.378 . S
C182 C183 1.378 . S
C182 H194 0.952 . S
C183 C182 1.378 . S
C183 H195 0.950 . S
C183 C214 1.383 . S
H184 C203 0.947 . S
H185 C204 0.946 . S
H186 C206 0.953 . S
H187 C207 0.945 . S
H188 C209 0.952 . S
H189 C210 0.949 . S
H190 C212 0.950 . S
H191 C213 0.948 . S
H192 C215 0.951 . S
H193 C180 0.947 . S
H194 C182 0.952 . S
H195 C183 0.950 . S
N196 C199 1.382 . S
N196 C201 1.363 . S
N197 C199 1.371 . S
N197 C200 1.372 . S
N198 C200 1.361 . S
N198 C201 1.377 . S
C199 N196 1.382 . S
C199 N197 1.371 . S
C199 C202 1.480 . S
C200 N197 1.372 . S
C200 N198 1.361 . S
C200 C208 1.457 . S
C201 N196 1.363 . S
C201 N198 1.377 . S
C201 C214 1.479 . S
C202 C199 1.480 . S
C202 C203 1.383 . S
C202 C207 1.385 . S
C203 H184 0.947 . S
C203 C202 1.383 . S
C203 C204 1.388 . S
C204 H185 0.946 . S
C204 C203 1.388 . S
C204 C205 1.384 . S
C205 C204 1.384 . S
C205 C206 1.377 . S
C206 H186 0.953 . S
C206 C205 1.377 . S
C206 C207 1.369 . S
C207 H187 0.945 . S
C207 C202 1.385 . S
C207 C206 1.369 . S
C208 C200 1.457 . S
C208 C209 1.372 . S
C208 C213 1.364 . S
C209 H188 0.952 . S
C209 C208 1.372 . S
C209 C210 1.389 . S
C210 H189 0.949 . S
C210 C209 1.389 . S
C210 C211 1.387 . S
C211 C210 1.387 . S
C211 C212 1.372 . S
C212 H190 0.950 . S
C212 C211 1.372 . S
C212 C213 1.379 . S
C213 H191 0.948 . S
C213 C208 1.364 . S
C213 C212 1.379 . S
C214 C183 1.383 . S
C214 C201 1.479 . S
C214 C215 1.398 . S
C215 C180 1.382 . S
C215 H192 0.951 . S
C215 C214 1.398 . S
C216 C217 1.384 . S
C216 H229 0.947 . S
C216 C251 1.382 . S
C217 C216 1.384 . S
C217 C218 1.378 . S
C218 C217 1.378 . S
C218 C219 1.378 . S
C218 H230 0.952 . S
C219 C218 1.378 . S
C219 H231 0.950 . S
C219 C250 1.383 . S
H220 C239 0.947 . S
H221 C240 0.946 . S
H222 C242 0.953 . S
H223 C243 0.945 . S
H224 C245 0.952 . S
H225 C246 0.949 . S
H226 C248 0.950 1_455 S
H227 C249 0.948 . S
H228 C251 0.951 . S
H229 C216 0.947 . S
H230 C218 0.952 . S
H231 C219 0.950 . S
N232 C235 1.382 . S
N232 C237 1.363 . S
N233 C235 1.371 . S
N233 C236 1.372 . S
N234 C236 1.361 . S
N234 C237 1.377 . S
C235 N232 1.382 . S
C235 N233 1.371 . S
C235 C238 1.480 . S
C236 N233 1.372 . S
C236 N234 1.361 . S
C236 C244 1.457 . S
C237 N232 1.363 . S
C237 N234 1.377 . S
C237 C250 1.479 . S
C238 C235 1.480 . S
C238 C239 1.383 . S
C238 C243 1.385 . S
C239 H220 0.947 . S
C239 C238 1.383 . S
C239 C240 1.388 . S
C240 H221 0.946 . S
C240 C239 1.388 . S
C240 C241 1.384 . S
C241 C240 1.384 . S
C241 C242 1.377 . S
C242 H222 0.953 . S
C242 C241 1.377 . S
C242 C243 1.369 . S
C243 H223 0.945 . S
C243 C238 1.385 . S
C243 C242 1.369 . S
C244 C236 1.457 . S
C244 C245 1.372 . S
C244 C249 1.364 . S
C245 H224 0.952 . S
C245 C244 1.372 . S
C245 C246 1.389 . S
C246 H225 0.949 . S
C246 C245 1.389 . S
C246 C247 1.387 . S
C247 C246 1.387 . S
C247 C248 1.372 . S
C248 H226 0.950 1_655 S
C248 C247 1.372 . S
C248 C249 1.379 . S
C249 H227 0.948 . S
C249 C244 1.364 . S
C249 C248 1.379 . S
C250 C219 1.383 . S
C250 C237 1.479 . S
C250 C251 1.398 . S
C251 C216 1.382 . S
C251 H228 0.951 . S
C251 C250 1.398 . S
C252 C253 1.384 . S
C252 H265 0.947 . S
C252 C287 1.382 . S
C253 C252 1.384 . S
C253 C254 1.378 . S
C254 C253 1.378 . S
C254 C255 1.378 . S
C254 H266 0.952 . S
C255 C254 1.378 . S
C255 H267 0.950 . S
C255 C286 1.383 . S
H256 C275 0.947 . S
H257 C276 0.946 . S
H258 C278 0.953 . S
H259 C279 0.945 . S
H260 C281 0.952 . S
H261 C282 0.949 . S
H262 C284 0.950 . S
H263 C285 0.948 . S
H264 C287 0.951 . S
H265 C252 0.947 . S
H266 C254 0.952 . S
H267 C255 0.950 . S
N268 C271 1.382 . S
N268 C273 1.363 . S
N269 C271 1.371 . S
N269 C272 1.372 . S
N270 C272 1.361 . S
N270 C273 1.377 . S
C271 N268 1.382 . S
C271 N269 1.371 . S
C271 C274 1.480 . S
C272 N269 1.372 . S
C272 N270 1.361 . S
C272 C280 1.457 . S
C273 N268 1.363 . S
C273 N270 1.377 . S
C273 C286 1.479 . S
C274 C271 1.480 . S
C274 C275 1.383 . S
C274 C279 1.385 . S
C275 H256 0.947 . S
C275 C274 1.383 . S
C275 C276 1.388 . S
C276 H257 0.946 . S
C276 C275 1.388 . S
C276 C277 1.384 . S
C277 C276 1.384 . S
C277 C278 1.377 . S
C278 H258 0.953 . S
C278 C277 1.377 . S
C278 C279 1.369 . S
C279 H259 0.945 . S
C279 C274 1.385 . S
C279 C278 1.369 . S
C280 C272 1.457 . S
C280 C281 1.372 . S
C280 C285 1.364 . S
C281 H260 0.952 . S
C281 C280 1.372 . S
C281 C282 1.389 . S
C282 H261 0.949 . S
C282 C281 1.389 . S
C282 C283 1.387 . S
C283 C282 1.387 . S
C283 C284 1.372 . S
C284 H262 0.950 . S
C284 C283 1.372 . S
C284 C285 1.379 . S
C285 H263 0.948 . S
C285 C280 1.364 . S
C285 C284 1.379 . S
C286 C255 1.383 . S
C286 C273 1.479 . S
C286 C287 1.398 . S
C287 C252 1.382 . S
C287 H264 0.951 . S
C287 C286 1.398 . S
C288 C289 1.384 . S
C288 H301 0.947 . S
C288 C323 1.382 . S
C289 C288 1.384 . S
C289 C290 1.378 . S
C290 C289 1.378 . S
C290 C291 1.378 . S
C290 H302 0.952 . S
C291 C290 1.378 . S
C291 H303 0.950 . S
C291 C322 1.383 . S
H292 C311 0.947 . S
H293 C312 0.946 . S
H294 C314 0.953 . S
H295 C315 0.945 . S
H296 C317 0.952 . S
H297 C318 0.949 . S
H298 C320 0.950 . S
H299 C321 0.948 . S
H300 C323 0.951 . S
H301 C288 0.947 . S
H302 C290 0.952 . S
H303 C291 0.950 . S
N304 C307 1.382 . S
N304 C309 1.363 . S
N305 C307 1.371 . S
N305 C308 1.372 . S
N306 C308 1.361 . S
N306 C309 1.377 . S
C307 N304 1.382 . S
C307 N305 1.371 . S
C307 C310 1.480 . S
C308 N305 1.372 . S
C308 N306 1.361 . S
C308 C316 1.457 . S
C309 N304 1.363 . S
C309 N306 1.377 . S
C309 C322 1.479 . S
C310 C307 1.480 . S
C310 C311 1.383 . S
C310 C315 1.385 . S
C311 H292 0.947 . S
C311 C310 1.383 . S
C311 C312 1.388 . S
C312 H293 0.946 . S
C312 C311 1.388 . S
C312 C313 1.384 . S
C313 C312 1.384 . S
C313 C314 1.377 . S
C314 H294 0.953 . S
C314 C313 1.377 . S
C314 C315 1.369 . S
C315 H295 0.945 . S
C315 C310 1.385 . S
C315 C314 1.369 . S
C316 C308 1.457 . S
C316 C317 1.372 . S
C316 C321 1.364 . S
C317 H296 0.952 . S
C317 C316 1.372 . S
C317 C318 1.389 . S
C318 H297 0.949 . S
C318 C317 1.389 . S
C318 C319 1.387 . S
C319 C318 1.387 . S
C319 C320 1.372 . S
C320 H298 0.950 . S
C320 C319 1.372 . S
C320 C321 1.379 . S
C321 H299 0.948 . S
C321 C316 1.364 . S
C321 C320 1.379 . S
C322 C291 1.383 . S
C322 C309 1.479 . S
C322 C323 1.398 . S
C323 C288 1.382 . S
C323 H300 0.951 . S
C323 C322 1.398 . S
C324 C325 1.384 . S
C324 H337 0.947 . S
C324 C359 1.382 . S
C325 C324 1.384 . S
C325 C326 1.378 . S
C326 C325 1.378 . S
C326 C327 1.378 . S
C326 H338 0.952 . S
C327 C326 1.378 . S
C327 H339 0.950 . S
C327 C358 1.383 . S
H328 C347 0.947 . S
H329 C348 0.946 . S
H330 C350 0.953 1_545 S
H331 C351 0.945 . S
H332 C353 0.952 . S
H333 C354 0.949 . S
H334 C356 0.950 . S
H335 C357 0.948 . S
H336 C359 0.951 . S
H337 C324 0.947 . S
H338 C326 0.952 . S
H339 C327 0.950 . S
N340 C343 1.382 . S
N340 C345 1.363 . S
N341 C343 1.371 . S
N341 C344 1.372 . S
N342 C344 1.361 . S
N342 C345 1.377 . S
C343 N340 1.382 . S
C343 N341 1.371 . S
C343 C346 1.480 . S
C344 N341 1.372 . S
C344 N342 1.361 . S
C344 C352 1.457 . S
C345 N340 1.363 . S
C345 N342 1.377 . S
C345 C358 1.479 . S
C346 C343 1.480 . S
C346 C347 1.383 . S
C346 C351 1.385 . S
C347 H328 0.947 . S
C347 C346 1.383 . S
C347 C348 1.388 . S
C348 H329 0.946 . S
C348 C347 1.388 . S
C348 C349 1.384 . S
C349 C348 1.384 . S
C349 C350 1.376 . S
C350 H330 0.953 1_565 S
C350 C349 1.376 . S
C350 C351 1.369 . S
C351 H331 0.945 . S
C351 C346 1.385 . S
C351 C350 1.369 . S
C352 C344 1.457 . S
C352 C353 1.372 . S
C352 C357 1.364 . S
C353 H332 0.952 . S
C353 C352 1.372 . S
C353 C354 1.389 . S
C354 H333 0.949 . S
C354 C353 1.389 . S
C354 C355 1.387 . S
C355 C354 1.387 . S
C355 C356 1.372 . S
C356 H334 0.950 . S
C356 C355 1.372 . S
C356 C357 1.379 . S
C357 H335 0.948 . S
C357 C352 1.364 . S
C357 C356 1.379 . S
C358 C327 1.383 . S
C358 C345 1.479 . S
C358 C359 1.398 . S
C359 C324 1.382 . S
C359 H336 0.951 . S
C359 C358 1.398 . S
C360 C361 1.384 . S
C360 H373 0.947 . S
C360 C395 1.382 . S
C361 C360 1.384 . S
C361 C362 1.378 . S
C362 C361 1.378 . S
C362 C363 1.378 . S
C362 H374 0.952 . S
C363 C362 1.378 . S
C363 H375 0.950 . S
C363 C394 1.383 . S
H364 C383 0.947 . S
H365 C384 0.946 . S
H366 C386 0.953 . S
H367 C387 0.945 . S
H368 C389 0.952 . S
H369 C390 0.949 . S
H370 C392 0.950 . S
H371 C393 0.948 . S
H372 C395 0.951 . S
H373 C360 0.947 . S
H374 C362 0.952 . S
H375 C363 0.950 . S
N376 C379 1.382 . S
N376 C381 1.363 . S
N377 C379 1.371 . S
N377 C380 1.372 . S
N378 C380 1.361 . S
N378 C381 1.377 . S
C379 N376 1.382 . S
C379 N377 1.371 . S
C379 C382 1.480 . S
C380 N377 1.372 . S
C380 N378 1.361 . S
C380 C388 1.457 . S
C381 N376 1.363 . S
C381 N378 1.377 . S
C381 C394 1.479 . S
C382 C379 1.480 . S
C382 C383 1.383 . S
C382 C387 1.385 . S
C383 H364 0.947 . S
C383 C382 1.383 . S
C383 C384 1.388 . S
C384 H365 0.946 . S
C384 C383 1.388 . S
C384 C385 1.384 . S
C385 C384 1.384 . S
C385 C386 1.377 . S
C386 H366 0.953 . S
C386 C385 1.377 . S
C386 C387 1.369 . S
C387 H367 0.945 . S
C387 C382 1.385 . S
C387 C386 1.369 . S
C388 C380 1.457 . S
C388 C389 1.372 . S
C388 C393 1.364 . S
C389 H368 0.952 . S
C389 C388 1.372 . S
C389 C390 1.389 . S
C390 H369 0.949 . S
C390 C389 1.389 . S
C390 C391 1.387 . S
C391 C390 1.387 . S
C391 C392 1.372 . S
C392 H370 0.950 . S
C392 C391 1.372 . S
C392 C393 1.379 . S
C393 H371 0.948 . S
C393 C388 1.364 . S
C393 C392 1.379 . S
C394 C363 1.383 . S
C394 C381 1.479 . S
C394 C395 1.398 . S
C395 C360 1.382 . S
C395 H372 0.951 . S
C395 C394 1.398 . S
C396 C397 1.384 . S
C396 H409 0.947 . S
C396 C431 1.382 . S
C397 C396 1.384 . S
C397 C398 1.378 . S
C398 C397 1.378 . S
C398 C399 1.378 . S
C398 H410 0.952 . S
C399 C398 1.378 . S
C399 H411 0.950 . S
C399 C430 1.383 . S
H400 C419 0.947 . S
H401 C420 0.946 . S
H402 C422 0.953 . S
H403 C423 0.945 . S
H404 C425 0.952 . S
H405 C426 0.949 . S
H406 C428 0.950 . S
H407 C429 0.948 . S
H408 C431 0.951 . S
H409 C396 0.947 . S
H410 C398 0.952 . S
H411 C399 0.950 . S
N412 C415 1.382 . S
N412 C417 1.363 . S
N413 C415 1.371 . S
N413 C416 1.372 . S
N414 C416 1.361 . S
N414 C417 1.377 . S
C415 N412 1.382 . S
C415 N413 1.371 . S
C415 C418 1.480 . S
C416 N413 1.372 . S
C416 N414 1.361 . S
C416 C424 1.457 . S
C417 N412 1.363 . S
C417 N414 1.377 . S
C417 C430 1.479 . S
C418 C415 1.480 . S
C418 C419 1.383 . S
C418 C423 1.385 . S
C419 H400 0.947 . S
C419 C418 1.383 . S
C419 C420 1.388 . S
C420 H401 0.946 . S
C420 C419 1.388 . S
C420 C421 1.384 . S
C421 C420 1.384 . S
C421 C422 1.377 . S
C422 H402 0.953 . S
C422 C421 1.377 . S
C422 C423 1.369 . S
C423 H403 0.945 . S
C423 C418 1.385 . S
C423 C422 1.369 . S
C424 C416 1.457 . S
C424 C425 1.372 . S
C424 C429 1.364 . S
C425 H404 0.952 . S
C425 C424 1.372 . S
C425 C426 1.389 . S
C426 H405 0.949 . S
C426 C425 1.389 . S
C426 C427 1.387 . S
C427 C426 1.387 . S
C427 C428 1.372 . S
C428 H406 0.950 . S
C428 C427 1.372 . S
C428 C429 1.379 . S
C429 H407 0.948 . S
C429 C424 1.364 . S
C429 C428 1.379 . S
C430 C399 1.383 . S
C430 C417 1.479 . S
C430 C431 1.398 . S
C431 C396 1.382 . S
C431 H408 0.951 . S
C431 C430 1.398 . S
C432 C433 1.384 . S
C432 H445 0.947 . S
C432 C467 1.382 . S
C433 C432 1.384 . S
C433 C434 1.378 . S
C434 C433 1.378 . S
C434 C435 1.378 . S
C434 H446 0.952 . S
C435 C434 1.378 . S
C435 H447 0.950 . S
C435 C466 1.383 . S
H436 C455 0.947 . S
H437 C456 0.946 . S
H438 C458 0.953 . S
H439 C459 0.945 . S
H440 C461 0.952 . S
H441 C462 0.949 . S
H442 C464 0.950 . S
H443 C465 0.948 . S
H444 C467 0.951 . S
H445 C432 0.947 . S
H446 C434 0.952 . S
H447 C435 0.950 . S
N448 C451 1.382 . S
N448 C453 1.363 . S
N449 C451 1.371 . S
N449 C452 1.372 . S
N450 C452 1.361 . S
N450 C453 1.377 . S
C451 N448 1.382 . S
C451 N449 1.371 . S
C451 C454 1.480 . S
C452 N449 1.372 . S
C452 N450 1.361 . S
C452 C460 1.457 . S
C453 N448 1.363 . S
C453 N450 1.377 . S
C453 C466 1.479 . S
C454 C451 1.480 . S
C454 C455 1.383 . S
C454 C459 1.385 . S
C455 H436 0.947 . S
C455 C454 1.383 . S
C455 C456 1.388 . S
C456 H437 0.946 . S
C456 C455 1.388 . S
C456 C457 1.384 . S
C457 C456 1.384 . S
C457 C458 1.377 . S
C458 H438 0.953 . S
C458 C457 1.377 . S
C458 C459 1.369 . S
C459 H439 0.945 . S
C459 C454 1.385 . S
C459 C458 1.369 . S
C460 C452 1.457 . S
C460 C461 1.372 . S
C460 C465 1.364 . S
C461 H440 0.952 . S
C461 C460 1.372 . S
C461 C462 1.389 . S
C462 H441 0.949 . S
C462 C461 1.389 . S
C462 C463 1.387 . S
C463 C462 1.387 . S
C463 C464 1.372 . S
C464 H442 0.950 . S
C464 C463 1.372 . S
C464 C465 1.379 . S
C465 H443 0.948 . S
C465 C460 1.364 . S
C465 C464 1.379 . S
C466 C435 1.383 . S
C466 C453 1.479 . S
C466 C467 1.398 . S
C467 C432 1.382 . S
C467 H444 0.951 . S
C467 C466 1.398 . S
C468 C469 1.384 . S
C468 H481 0.947 . S
C468 C503 1.382 . S
C469 C468 1.384 . S
C469 C470 1.378 . S
C470 C469 1.378 . S
C470 C471 1.378 . S
C470 H482 0.952 . S
C471 C470 1.378 . S
C471 H483 0.950 . S
C471 C502 1.383 . S
H472 C491 0.947 . S
H473 C492 0.946 . S
H474 C494 0.953 . S
H475 C495 0.945 . S
H476 C497 0.952 . S
H477 C498 0.949 . S
H478 C500 0.950 . S
H479 C501 0.948 . S
H480 C503 0.951 . S
H481 C468 0.947 . S
H482 C470 0.952 . S
H483 C471 0.950 . S
N484 C487 1.382 . S
N484 C489 1.363 . S
N485 C487 1.371 . S
N485 C488 1.372 . S
N486 C488 1.361 . S
N486 C489 1.377 . S
C487 N484 1.382 . S
C487 N485 1.371 . S
C487 C490 1.480 . S
C488 N485 1.372 . S
C488 N486 1.361 . S
C488 C496 1.457 . S
C489 N484 1.363 . S
C489 N486 1.377 . S
C489 C502 1.479 . S
C490 C487 1.480 . S
C490 C491 1.383 . S
C490 C495 1.385 . S
C491 H472 0.947 . S
C491 C490 1.383 . S
C491 C492 1.388 . S
C492 H473 0.946 . S
C492 C491 1.388 . S
C492 C493 1.384 . S
C493 C492 1.384 . S
C493 C494 1.377 . S
C494 H474 0.953 . S
C494 C493 1.377 . S
C494 C495 1.369 . S
C495 H475 0.945 . S
C495 C490 1.385 . S
C495 C494 1.369 . S
C496 C488 1.457 . S
C496 C497 1.372 . S
C496 C501 1.364 . S
C497 H476 0.952 . S
C497 C496 1.372 . S
C497 C498 1.389 . S
C498 H477 0.949 . S
C498 C497 1.389 . S
C498 C499 1.387 . S
C499 C498 1.387 . S
C499 C500 1.372 . S
C500 H478 0.950 . S
C500 C499 1.372 . S
C500 C501 1.379 . S
C501 H479 0.948 . S
C501 C496 1.364 . S
C501 C500 1.379 . S
C502 C471 1.383 . S
C502 C489 1.479 . S
C502 C503 1.398 . S
C503 C468 1.382 . S
C503 H480 0.951 . S
C503 C502 1.398 . S
C504 C505 1.384 . S
C504 H517 0.947 . S
C504 C539 1.382 . S
C505 C504 1.384 . S
C505 C506 1.378 . S
C506 C505 1.378 . S
C506 C507 1.378 . S
C506 H518 0.952 . S
C507 C506 1.378 . S
C507 H519 0.950 . S
C507 C538 1.383 . S
H508 C527 0.947 . S
H509 C528 0.946 . S
H510 C530 0.953 . S
H511 C531 0.945 . S
H512 C533 0.952 . S
H513 C534 0.949 . S
H514 C536 0.950 . S
H515 C537 0.948 . S
H516 C539 0.951 . S
H517 C504 0.947 . S
H518 C506 0.952 . S
H519 C507 0.950 . S
N520 C523 1.382 . S
N520 C525 1.363 . S
N521 C523 1.371 . S
N521 C524 1.372 . S
N522 C524 1.361 . S
N522 C525 1.377 . S
C523 N520 1.382 . S
C523 N521 1.371 . S
C523 C526 1.480 . S
C524 N521 1.372 . S
C524 N522 1.361 . S
C524 C532 1.457 . S
C525 N520 1.363 . S
C525 N522 1.377 . S
C525 C538 1.479 . S
C526 C523 1.480 . S
C526 C527 1.383 . S
C526 C531 1.385 . S
C527 H508 0.947 . S
C527 C526 1.383 . S
C527 C528 1.388 . S
C528 H509 0.946 . S
C528 C527 1.388 . S
C528 C529 1.384 . S
C529 C528 1.384 . S
C529 C530 1.377 . S
C530 H510 0.953 . S
C530 C529 1.377 . S
C530 C531 1.369 . S
C531 H511 0.945 . S
C531 C526 1.385 . S
C531 C530 1.369 . S
C532 C524 1.457 . S
C532 C533 1.372 . S
C532 C537 1.364 . S
C533 H512 0.952 . S
C533 C532 1.372 . S
C533 C534 1.389 . S
C534 H513 0.949 . S
C534 C533 1.389 . S
C534 C535 1.387 . S
C535 C534 1.387 . S
C535 C536 1.372 . S
C536 H514 0.950 . S
C536 C535 1.372 . S
C536 C537 1.379 . S
C537 H515 0.948 . S
C537 C532 1.364 . S
C537 C536 1.379 . S
C538 C507 1.383 . S
C538 C525 1.479 . S
C538 C539 1.398 . S
C539 C504 1.382 . S
C539 H516 0.951 . S
C539 C538 1.398 . S
C540 C541 1.384 1_556 S
C540 H553 0.947 . S
C540 C575 1.382 . S
C541 C540 1.384 1_554 S
C541 C542 1.378 . S
C542 C541 1.378 . S
C542 C543 1.367 1_554 S
C542 H554 0.952 . S
C543 C542 1.367 1_556 S
C543 H555 0.940 1_556 S
C543 C574 1.404 . S
H544 C563 0.947 . S
H545 C564 0.946 . S
H546 C566 0.953 . S
H547 C567 0.945 . S
H548 C569 0.952 . S
H549 C570 0.949 . S
H550 C572 0.950 . S
H551 C573 0.948 . S
H552 C575 0.951 . S
H553 C540 0.947 . S
H554 C542 0.952 . S
H555 C543 0.940 1_554 S
N556 C559 1.382 . S
N556 C561 1.363 . S
N557 C559 1.371 . S
N557 C560 1.372 . S
N558 C560 1.361 . S
N558 C561 1.377 . S
C559 N556 1.382 . S
C559 N557 1.371 . S
C559 C562 1.480 . S
C560 N557 1.372 . S
C560 N558 1.361 . S
C560 C568 1.457 . S
C561 N556 1.363 . S
C561 N558 1.377 . S
C561 C574 1.479 . S
C562 C559 1.480 . S
C562 C563 1.383 . S
C562 C567 1.385 . S
C563 H544 0.947 . S
C563 C562 1.383 . S
C563 C564 1.388 . S
C564 H545 0.946 . S
C564 C563 1.388 . S
C564 C565 1.384 . S
C565 C564 1.384 . S
C565 C566 1.377 . S
C566 H546 0.953 . S
C566 C565 1.377 . S
C566 C567 1.369 . S
C567 H547 0.945 . S
C567 C562 1.385 . S
C567 C566 1.369 . S
C568 C560 1.457 . S
C568 C569 1.372 . S
C568 C573 1.364 . S
C569 H548 0.952 . S
C569 C568 1.372 . S
C569 C570 1.389 . S
C570 H549 0.949 . S
C570 C569 1.389 . S
C570 C571 1.387 . S
C571 C570 1.387 . S
C571 C572 1.372 . S
C572 H550 0.950 . S
C572 C571 1.372 . S
C572 C573 1.379 . S
C573 H551 0.948 . S
C573 C568 1.364 . S
C573 C572 1.379 . S
C574 C543 1.404 . S
C574 C561 1.479 . S
C574 C575 1.398 . S
C575 C540 1.382 . S
C575 H552 0.951 . S
C575 C574 1.398 . S
O576 Cd577 2.223 . S
O576 C584 1.315 . S
Cd577 O576 2.223 . S
Cd577 O580 2.297 . S
Cd577 O581 2.439 . S
Cd577 O587 2.240 . S
Cd578 O579 2.240 . S
Cd578 O586 2.223 . S
Cd578 O588 2.297 . S
Cd578 O589 2.439 . S
O579 Cd578 2.240 . S
O579 C584 1.279 . S
O580 Cd577 2.297 . S
O580 C582 1.247 . S
O581 Cd577 2.439 . S
O581 C582 1.208 . S
C582 O580 1.247 . S
C582 O581 1.208 . S
C583 O588 1.247 . S
C583 O589 1.208 . S
C584 O576 1.315 . S
C584 O579 1.279 . S
C585 O586 1.315 . S
C585 O587 1.279 . S
O586 Cd578 2.223 . S
O586 C585 1.315 . S
O587 Cd577 2.240 . S
O587 C585 1.279 . S
O588 Cd578 2.297 . S
O588 C583 1.247 . S
O589 Cd578 2.439 . S
O589 C583 1.208 . S
O590 Cd591 2.223 . S
O590 C598 1.315 . S
Cd591 O590 2.223 . S
Cd591 O594 2.297 . S
Cd591 O595 2.439 . S
Cd591 O601 2.240 . S
Cd592 O593 2.240 . S
Cd592 O600 2.223 . S
Cd592 O602 2.297 . S
Cd592 O603 2.439 . S
O593 Cd592 2.240 . S
O593 C598 1.279 . S
O594 Cd591 2.297 . S
O594 C596 1.247 . S
O595 Cd591 2.439 . S
O595 C596 1.208 . S
C596 O594 1.247 . S
C596 O595 1.208 . S
C597 O602 1.247 . S
C597 O603 1.208 . S
C598 O590 1.315 . S
C598 O593 1.279 . S
C599 O600 1.315 . S
C599 O601 1.279 . S
O600 Cd592 2.223 . S
O600 C599 1.315 . S
O601 Cd591 2.240 . S
O601 C599 1.279 . S
O602 Cd592 2.297 . S
O602 C597 1.247 . S
O603 Cd592 2.439 . S
O603 C597 1.208 . S
O604 Cd605 2.223 1_556 S
O604 C612 1.315 . S
Cd605 O604 2.223 1_554 S
Cd605 O608 2.297 . S
Cd605 O609 2.439 . S
Cd605 O615 2.240 . S
Cd606 O607 2.240 . S
Cd606 O614 2.223 . S
Cd606 O616 2.297 1_556 S
Cd606 O617 2.439 1_556 S
O607 Cd606 2.240 . S
O607 C612 1.279 . S
O608 Cd605 2.297 . S
O608 C610 1.247 . S
O609 Cd605 2.439 . S
O609 C610 1.208 . S
C610 O608 1.247 . S
C610 O609 1.208 . S
C611 O616 1.247 . S
C611 O617 1.208 . S
C612 O604 1.315 . S
C612 O607 1.279 . S
C613 O614 1.315 . S
C613 O615 1.279 1_556 S
O614 Cd606 2.223 . S
O614 C613 1.315 . S
O615 Cd605 2.240 . S
O615 C613 1.279 1_554 S
O616 Cd606 2.297 1_554 S
O616 C611 1.247 . S
O617 Cd606 2.439 1_554 S
O617 C611 1.208 . S
O618 Cd619 2.223 . S
O618 C626 1.315 . S
Cd619 O618 2.223 . S
Cd619 O622 2.297 . S
Cd619 O623 2.439 . S
Cd619 O629 2.240 . S
Cd620 O621 2.240 . S
Cd620 O628 2.223 . S
Cd620 O630 2.297 . S
Cd620 O631 2.439 . S
O621 Cd620 2.240 . S
O621 C626 1.279 . S
O622 Cd619 2.297 . S
O622 C624 1.247 . S
O623 Cd619 2.439 . S
O623 C624 1.208 . S
C624 O622 1.247 . S
C624 O623 1.208 . S
C625 O630 1.247 . S
C625 O631 1.208 . S
C626 O618 1.315 . S
C626 O621 1.279 . S
C627 O628 1.315 . S
C627 O629 1.279 . S
O628 Cd620 2.223 . S
O628 C627 1.315 . S
O629 Cd619 2.240 . S
O629 C627 1.279 . S
O630 Cd620 2.297 . S
O630 C625 1.247 . S
O631 Cd620 2.439 . S
O631 C625 1.208 . S
O632 Cd633 2.223 . S
O632 C640 1.315 . S
Cd633 O632 2.223 . S
Cd633 O636 2.297 . S
Cd633 O637 2.439 . S
Cd633 O643 2.240 . S
Cd634 O635 2.240 . S
Cd634 O642 2.223 . S
Cd634 O644 2.297 . S
Cd634 O645 2.439 . S
O635 Cd634 2.240 . S
O635 C640 1.279 . S
O636 Cd633 2.297 . S
O636 C638 1.247 . S
O637 Cd633 2.439 . S
O637 C638 1.208 . S
C638 O636 1.247 . S
C638 O637 1.208 . S
C639 O644 1.247 . S
C639 O645 1.208 . S
C640 O632 1.315 . S
C640 O635 1.279 . S
C641 O642 1.315 . S
C641 O643 1.279 . S
O642 Cd634 2.223 . S
O642 C641 1.315 . S
O643 Cd633 2.240 . S
O643 C641 1.279 . S
O644 Cd634 2.297 . S
O644 C639 1.247 . S
O645 Cd634 2.439 . S
O645 C639 1.208 . S
O646 Cd647 2.223 . S
O646 C654 1.315 . S
Cd647 O646 2.223 . S
Cd647 O650 2.297 . S
Cd647 O651 2.439 . S
Cd647 O657 2.240 . S
Cd648 O649 2.240 . S
Cd648 O656 2.223 . S
Cd648 O658 2.297 . S
Cd648 O659 2.439 . S
O649 Cd648 2.240 . S
O649 C654 1.279 . S
O650 Cd647 2.297 . S
O650 C652 1.247 . S
O651 Cd647 2.439 . S
O651 C652 1.208 . S
C652 O650 1.247 . S
C652 O651 1.208 . S
C653 O658 1.247 . S
C653 O659 1.208 . S
C654 O646 1.315 . S
C654 O649 1.279 . S
C655 O656 1.315 . S
C655 O657 1.279 . S
O656 Cd648 2.223 . S
O656 C655 1.315 . S
O657 Cd647 2.240 . S
O657 C655 1.279 . S
O658 Cd648 2.297 . S
O658 C653 1.247 . S
O659 Cd648 2.439 . S
O659 C653 1.208 . S
O660 Cd661 2.223 . S
O660 C668 1.315 . S
Cd661 O660 2.223 . S
Cd661 O664 2.297 . S
Cd661 O665 2.439 . S
Cd661 O671 2.240 . S
Cd662 O663 2.240 . S
Cd662 O670 2.223 . S
Cd662 O672 2.297 . S
Cd662 O673 2.439 . S
O663 Cd662 2.240 . S
O663 C668 1.279 . S
O664 Cd661 2.297 . S
O664 C666 1.247 . S
O665 Cd661 2.439 . S
O665 C666 1.208 . S
C666 O664 1.247 . S
C666 O665 1.208 . S
C667 O672 1.247 . S
C667 O673 1.208 . S
C668 O660 1.315 . S
C668 O663 1.279 . S
C669 O670 1.315 . S
C669 O671 1.279 . S
O670 Cd662 2.223 . S
O670 C669 1.315 . S
O671 Cd661 2.240 . S
O671 C669 1.279 . S
O672 Cd662 2.297 . S
O672 C667 1.247 . S
O673 Cd662 2.439 . S
O673 C667 1.208 . S
O674 Cd675 2.223 1_545 S
O674 C682 1.315 . S
Cd675 O674 2.223 1_565 S
Cd675 O678 2.297 . S
Cd675 O679 2.439 . S
Cd675 O685 2.240 1_565 S
Cd676 O677 2.240 . S
Cd676 O684 2.223 . S
Cd676 O686 2.297 . S
Cd676 O687 2.439 1_545 S
O677 Cd676 2.240 . S
O677 C682 1.279 . S
O678 Cd675 2.297 . S
O678 C680 1.247 . S
O679 Cd675 2.439 . S
O679 C680 1.208 . S
C680 O678 1.247 . S
C680 O679 1.208 . S
C681 O686 1.247 1_565 S
C681 O687 1.208 . S
C682 O674 1.315 . S
C682 O677 1.279 . S
C683 O684 1.315 . S
C683 O685 1.279 . S
O684 Cd676 2.223 . S
O684 C683 1.315 . S
O685 Cd675 2.240 1_545 S
O685 C683 1.279 . S
O686 Cd676 2.297 . S
O686 C681 1.247 1_545 S
O687 Cd676 2.439 1_565 S
O687 C681 1.208 . S
O688 Cd689 2.223 . S
O688 C696 1.315 . S
Cd689 O688 2.223 . S
Cd689 O692 2.297 1_655 S
Cd689 O693 2.439 1_655 S
Cd689 O699 2.240 . S
Cd690 O691 2.240 . S
Cd690 O698 2.223 1_455 S
Cd690 O700 2.297 . S
Cd690 O701 2.439 . S
O691 Cd690 2.240 . S
O691 C696 1.279 1_455 S
O692 Cd689 2.297 1_455 S
O692 C694 1.247 . S
O693 Cd689 2.439 1_455 S
O693 C694 1.208 . S
C694 O692 1.247 . S
C694 O693 1.208 . S
C695 O700 1.247 . S
C695 O701 1.208 . S
C696 O688 1.315 . S
C696 O691 1.279 1_655 S
C697 O698 1.315 . S
C697 O699 1.279 . S
O698 Cd690 2.223 1_655 S
O698 C697 1.315 . S
O699 Cd689 2.240 . S
O699 C697 1.279 . S
O700 Cd690 2.297 . S
O700 C695 1.247 . S
O701 Cd690 2.439 . S
O701 C695 1.208 . S
O702 Cd703 2.223 . S
O702 C710 1.315 . S
Cd703 O702 2.223 . S
Cd703 O706 2.297 . S
Cd703 O707 2.439 . S
Cd703 O713 2.240 . S
Cd704 O705 2.240 . S
Cd704 O712 2.223 . S
Cd704 O714 2.297 . S
Cd704 O715 2.439 . S
O705 Cd704 2.240 . S
O705 C710 1.279 . S
O706 Cd703 2.297 . S
O706 C708 1.247 . S
O707 Cd703 2.439 . S
O707 C708 1.208 . S
C708 O706 1.247 . S
C708 O707 1.208 . S
C709 O714 1.247 . S
C709 O715 1.208 . S
C710 O702 1.315 . S
C710 O705 1.279 . S
C711 O712 1.315 . S
C711 O713 1.279 . S
O712 Cd704 2.223 . S
O712 C711 1.315 . S
O713 Cd703 2.240 . S
O713 C711 1.279 . S
O714 Cd704 2.297 . S
O714 C709 1.247 . S
O715 Cd704 2.439 . S
O715 C709 1.208 . S
O716 Cd717 2.223 1_655 S
O716 C724 1.315 . S
Cd717 O716 2.223 1_455 S
Cd717 O720 2.297 . S
Cd717 O721 2.439 . S
Cd717 O727 2.240 . S
Cd718 O719 2.240 . S
Cd718 O726 2.223 . S
Cd718 O728 2.297 1_655 S
Cd718 O729 2.439 1_655 S
O719 Cd718 2.240 . S
O719 C724 1.279 . S
O720 Cd717 2.297 . S
O720 C722 1.247 . S
O721 Cd717 2.439 . S
O721 C722 1.208 . S
C722 O720 1.247 . S
C722 O721 1.208 . S
C723 O728 1.247 . S
C723 O729 1.208 . S
C724 O716 1.315 . S
C724 O719 1.279 . S
C725 O726 1.315 . S
C725 O727 1.279 1_655 S
O726 Cd718 2.223 . S
O726 C725 1.315 . S
O727 Cd717 2.240 . S
O727 C725 1.279 1_455 S
O728 Cd718 2.297 1_455 S
O728 C723 1.247 . S
O729 Cd718 2.439 1_455 S
O729 C723 1.208 . S
O730 Cd731 2.223 . S
O730 C738 1.315 . S
Cd731 O730 2.223 . S
Cd731 O734 2.297 . S
Cd731 O735 2.439 . S
Cd731 O741 2.240 . S
Cd732 O733 2.240 . S
Cd732 O740 2.223 . S
Cd732 O742 2.297 . S
Cd732 O743 2.439 . S
O733 Cd732 2.240 . S
O733 C738 1.279 . S
O734 Cd731 2.297 . S
O734 C736 1.247 . S
O735 Cd731 2.439 . S
O735 C736 1.208 . S
C736 O734 1.247 . S
C736 O735 1.208 . S
C737 O742 1.247 . S
C737 O743 1.208 . S
C738 O730 1.315 . S
C738 O733 1.279 . S
C739 O740 1.315 . S
C739 O741 1.279 . S
O740 Cd732 2.223 . S
O740 C739 1.315 . S
O741 Cd731 2.240 . S
O741 C739 1.279 . S
O742 Cd732 2.297 . S
O742 C737 1.247 . S
O743 Cd732 2.439 . S
O743 C737 1.208 . S
C744 C745 1.387 . S
C744 H748 0.950 . S
C744 C753 1.390 . S
C745 C744 1.387 . S
C745 C747 1.387 . S
H746 C753 0.950 . S
C747 C745 1.387 . S
C747 C749 1.390 . S
C747 H751 0.950 . S
H748 C744 0.950 . S
C749 C747 1.390 . S
C749 C750 1.387 . S
C749 H752 0.950 . S
C750 C749 1.387 . S
C750 C753 1.387 . S
H751 C747 0.950 . S
H752 C749 0.950 . S
C753 C744 1.390 . S
C753 H746 0.950 . S
C753 C750 1.387 . S
C754 C755 1.387 . S
C754 H758 0.950 . S
C754 C763 1.390 . S
C755 C754 1.387 . S
C755 C757 1.387 . S
H756 C763 0.950 . S
C757 C755 1.387 . S
C757 C759 1.390 . S
C757 H761 0.950 1_455 S
H758 C754 0.950 . S
C759 C757 1.390 . S
C759 C760 1.387 . S
C759 H762 0.950 . S
C760 C759 1.387 . S
C760 C763 1.387 . S
H761 C757 0.950 1_655 S
H762 C759 0.950 . S
C763 C754 1.390 . S
C763 H756 0.950 . S
C763 C760 1.387 . S
C764 C765 1.387 . S
C764 H768 0.950 . S
C764 C773 1.390 . S
C765 C764 1.387 . S
C765 C767 1.387 . S
H766 C773 0.950 . S
C767 C765 1.387 . S
C767 C769 1.390 . S
C767 H771 0.950 . S
H768 C764 0.950 . S
C769 C767 1.390 . S
C769 C770 1.387 . S
C769 H772 0.950 . S
C770 C769 1.387 . S
C770 C773 1.387 . S
H771 C767 0.950 . S
H772 C769 0.950 . S
C773 C764 1.390 . S
C773 H766 0.950 . S
C773 C770 1.387 . S
C774 C775 1.387 1_545 S
C774 H778 0.950 . S
C774 C783 1.390 . S
C775 C774 1.387 1_565 S
C775 C777 1.387 . S
H776 C783 0.950 . S
C777 C775 1.387 . S
C777 C779 1.390 . S
C777 H781 0.950 . S
H778 C774 0.950 . S
C779 C777 1.390 . S
C779 C780 1.387 1_565 S
C779 H782 0.950 . S
C780 C779 1.387 1_545 S
C780 C783 1.387 . S
H781 C777 0.950 . S
H782 C779 0.950 . S
C783 C774 1.390 . S
C783 H776 0.950 . S
C783 C780 1.387 . S
C784 C785 1.387 . S
C784 H788 0.950 . S
C784 C793 1.390 . S
C785 C784 1.387 . S
C785 C787 1.387 . S
H786 C793 0.950 . S
C787 C785 1.387 . S
C787 C789 1.390 . S
C787 H791 0.950 . S
H788 C784 0.950 . S
C789 C787 1.390 . S
C789 C790 1.387 . S
C789 H792 0.950 . S
C790 C789 1.387 . S
C790 C793 1.387 . S
H791 C787 0.950 . S
H792 C789 0.950 . S
C793 C784 1.390 . S
C793 H786 0.950 . S
C793 C790 1.387 . S
C794 C795 1.387 . S
C794 H798 0.950 . S
C794 C803 1.390 . S
C795 C794 1.387 . S
C795 C797 1.387 . S
H796 C803 0.950 . S
C797 C795 1.387 . S
C797 C799 1.390 . S
C797 H801 0.950 . S
H798 C794 0.950 . S
C799 C797 1.390 . S
C799 C800 1.387 . S
C799 H802 0.950 . S
C800 C799 1.387 . S
C800 C803 1.387 . S
H801 C797 0.950 . S
H802 C799 0.950 . S
C803 C794 1.390 . S
C803 H796 0.950 . S
C803 C800 1.387 . S
C804 C805 1.387 . S
C804 H808 0.950 . S
C804 C813 1.390 . S
C805 C804 1.387 . S
C805 C807 1.387 . S
H806 C813 0.950 . S
C807 C805 1.387 . S
C807 C809 1.390 . S
C807 H811 0.950 . S
H808 C804 0.950 . S
C809 C807 1.390 . S
C809 C810 1.387 . S
C809 H812 0.950 . S
C810 C809 1.387 . S
C810 C813 1.387 . S
H811 C807 0.950 . S
H812 C809 0.950 . S
C813 C804 1.390 . S
C813 H806 0.950 . S
C813 C810 1.387 . S
C814 C815 1.387 . S
C814 H818 0.950 . S
C814 C823 1.390 . S
C815 C814 1.387 . S
C815 C817 1.387 . S
H816 C823 0.950 . S
C817 C815 1.387 . S
C817 C819 1.390 . S
C817 H821 0.950 . S
H818 C814 0.950 . S
C819 C817 1.390 . S
C819 C820 1.387 . S
C819 H822 0.950 1_565 S
C820 C819 1.387 . S
C820 C823 1.387 . S
H821 C817 0.950 . S
H822 C819 0.950 1_545 S
C823 C814 1.390 . S
C823 H816 0.950 . S
C823 C820 1.387 . S
C824 C825 1.387 . S
C824 H828 0.950 . S
C824 C833 1.390 . S
C825 C824 1.387 . S
C825 C827 1.387 . S
H826 C833 0.950 . S
C827 C825 1.387 . S
C827 C829 1.390 . S
C827 H831 0.950 . S
H828 C824 0.950 . S
C829 C827 1.390 . S
C829 C830 1.387 . S
C829 H832 0.950 . S
C830 C829 1.387 . S
C830 C833 1.387 . S
H831 C827 0.950 . S
H832 C829 0.950 . S
C833 C824 1.390 . S
C833 H826 0.950 . S
C833 C830 1.387 . S
C834 C835 1.387 . S
C834 H838 0.950 . S
C834 C843 1.390 . S
C835 C834 1.387 . S
C835 C837 1.387 . S
H836 C843 0.950 . S
C837 C835 1.387 . S
C837 C839 1.390 . S
C837 H841 0.950 . S
H838 C834 0.950 . S
C839 C837 1.390 . S
C839 C840 1.387 . S
C839 H842 0.950 . S
C840 C839 1.387 . S
C840 C843 1.387 . S
H841 C837 0.950 . S
H842 C839 0.950 . S
C843 C834 1.390 . S
C843 H836 0.950 . S
C843 C840 1.387 . S
C844 C845 1.387 . S
C844 H848 0.950 . S
C844 C853 1.390 . S
C845 C844 1.387 . S
C845 C847 1.387 . S
H846 C853 0.950 . S
C847 C845 1.387 . S
C847 C849 1.390 . S
C847 H851 0.950 . S
H848 C844 0.950 . S
C849 C847 1.390 . S
C849 C850 1.387 . S
C849 H852 0.950 . S
C850 C849 1.387 . S
C850 C853 1.387 . S
H851 C847 0.950 . S
H852 C849 0.950 . S
C853 C844 1.390 . S
C853 H846 0.950 . S
C853 C850 1.387 . S
C854 C855 1.387 . S
C854 H858 0.950 . S
C854 C863 1.390 . S
C855 C854 1.387 . S
C855 C857 1.387 . S
H856 C863 0.950 . S
C857 C855 1.387 . S
C857 C859 1.390 . S
C857 H861 0.950 . S
H858 C854 0.950 . S
C859 C857 1.390 . S
C859 C860 1.387 . S
C859 H862 0.950 . S
C860 C859 1.387 . S
C860 C863 1.387 . S
H861 C857 0.950 . S
H862 C859 0.950 . S
C863 C854 1.390 . S
C863 H856 0.950 . S
C863 C860 1.387 . S
C864 C865 1.387 . S
C864 H868 0.950 . S
C864 C873 1.390 . S
C865 C864 1.387 . S
C865 C867 1.387 . S
H866 C873 0.950 . S
C867 C865 1.387 . S
C867 C869 1.390 . S
C867 H871 0.950 . S
H868 C864 0.950 . S
C869 C867 1.390 . S
C869 C870 1.387 . S
C869 H872 0.950 . S
C870 C869 1.387 . S
C870 C873 1.387 . S
H871 C867 0.950 . S
H872 C869 0.950 . S
C873 C864 1.390 . S
C873 H866 0.950 . S
C873 C870 1.387 . S
C874 C875 1.387 . S
C874 H878 0.950 . S
C874 C883 1.390 . S
C875 C874 1.387 . S
C875 C877 1.387 . S
H876 C883 0.950 . S
C877 C875 1.387 . S
C877 C879 1.390 . S
C877 H881 0.950 . S
H878 C874 0.950 . S
C879 C877 1.390 . S
C879 C880 1.387 . S
C879 H882 0.950 . S
C880 C879 1.387 . S
C880 C883 1.387 . S
H881 C877 0.950 . S
H882 C879 0.950 . S
C883 C874 1.390 . S
C883 H876 0.950 . S
C883 C880 1.387 . S
C884 C885 1.387 . S
C884 H888 0.950 . S
C884 C893 1.390 . S
C885 C884 1.387 . S
C885 C887 1.387 . S
H886 C893 0.950 . S
C887 C885 1.387 . S
C887 C889 1.390 . S
C887 H891 0.950 . S
H888 C884 0.950 . S
C889 C887 1.390 . S
C889 C890 1.387 . S
C889 H892 0.950 . S
C890 C889 1.387 . S
C890 C893 1.387 . S
H891 C887 0.950 . S
H892 C889 0.950 . S
C893 C884 1.390 . S
C893 H886 0.950 . S
C893 C890 1.387 . S
C894 C895 1.387 . S
C894 H898 0.950 . S
C894 C903 1.390 . S
C895 C894 1.387 . S
C895 C897 1.387 . S
H896 C903 0.950 . S
C897 C895 1.387 . S
C897 C899 1.390 . S
C897 H901 0.950 . S
H898 C894 0.950 . S
C899 C897 1.390 . S
C899 C900 1.387 . S
C899 H902 0.950 . S
C900 C899 1.387 . S
C900 C903 1.387 . S
H901 C897 0.950 . S
H902 C899 0.950 . S
C903 C894 1.390 . S
C903 H896 0.950 . S
C903 C900 1.387 . S
C904 C905 1.387 . S
C904 H908 0.950 . S
C904 C913 1.390 . S
C905 C904 1.387 . S
C905 C907 1.387 . S
H906 C913 0.950 . S
C907 C905 1.387 . S
C907 C909 1.390 . S
C907 H911 0.950 . S
H908 C904 0.950 . S
C909 C907 1.390 . S
C909 C910 1.387 . S
C909 H912 0.950 1_565 S
C910 C909 1.387 . S
C910 C913 1.387 . S
H911 C907 0.950 . S
H912 C909 0.950 1_545 S
C913 C904 1.390 . S
C913 H906 0.950 . S
C913 C910 1.387 . S
C914 C915 1.387 . S
C914 H918 0.950 . S
C914 C923 1.390 . S
C915 C914 1.387 . S
C915 C917 1.387 . S
H916 C923 0.950 . S
C917 C915 1.387 . S
C917 C919 1.390 . S
C917 H921 0.950 . S
H918 C914 0.950 . S
C919 C917 1.390 . S
C919 C920 1.387 . S
C919 H922 0.950 . S
C920 C919 1.387 . S
C920 C923 1.387 . S
H921 C917 0.950 . S
H922 C919 0.950 . S
C923 C914 1.390 . S
C923 H916 0.950 . S
C923 C920 1.387 . S
C924 C925 1.359 1_554 S
C924 H928 0.958 . S
C924 C933 1.412 1_545 S
C925 C924 1.359 1_556 S
C925 C927 1.387 1_545 S
H926 C933 0.950 . S
C927 C925 1.387 1_565 S
C927 C929 1.390 . S
C927 H931 0.950 . S
H928 C924 0.958 . S
C929 C927 1.390 . S
C929 C930 1.387 1_556 S
C929 H932 0.950 . S
C930 C929 1.387 1_554 S
C930 C933 1.387 . S
H931 C927 0.950 . S
H932 C929 0.950 . S
C933 C924 1.412 1_565 S
C933 H926 0.950 . S
C933 C930 1.387 . S
C934 C935 1.387 . S
C934 H938 0.950 . S
C934 C943 1.390 . S
C935 C934 1.387 . S
C935 C937 1.387 . S
H936 C943 0.950 . S
C937 C935 1.387 . S
C937 C939 1.390 . S
C937 H941 0.950 . S
H938 C934 0.950 . S
C939 C937 1.390 . S
C939 C940 1.387 . S
C939 H942 0.950 . S
C940 C939 1.387 . S
C940 C943 1.387 . S
H941 C937 0.950 . S
H942 C939 0.950 . S
C943 C934 1.390 . S
C943 H936 0.950 . S
C943 C940 1.387 . S
C944 C945 1.387 . S
C944 H948 0.950 . S
C944 C953 1.390 . S
C945 C944 1.387 . S
C945 C947 1.387 . S
H946 C953 0.950 . S
C947 C945 1.387 . S
C947 C949 1.390 . S
C947 H951 0.950 . S
H948 C944 0.950 . S
C949 C947 1.390 . S
C949 C950 1.387 . S
C949 H952 0.950 . S
C950 C949 1.387 . S
C950 C953 1.387 . S
H951 C947 0.950 . S
H952 C949 0.950 . S
C953 C944 1.390 . S
C953 H946 0.950 . S
C953 C950 1.387 . S
C954 C955 1.387 . S
C954 H958 0.950 . S
C954 C963 1.390 . S
C955 C954 1.387 . S
C955 C957 1.387 . S
H956 C963 0.950 . S
C957 C955 1.387 . S
C957 C959 1.390 . S
C957 H961 0.950 . S
H958 C954 0.950 . S
C959 C957 1.390 . S
C959 C960 1.387 . S
C959 H962 0.950 . S
C960 C959 1.387 . S
C960 C963 1.387 . S
H961 C957 0.950 . S
H962 C959 0.950 . S
C963 C954 1.390 . S
C963 H956 0.950 . S
C963 C960 1.387 . S
C964 C965 1.387 . S
C964 H968 0.950 . S
C964 C973 1.390 . S
C965 C964 1.387 . S
C965 C967 1.387 . S
H966 C973 0.950 . S
C967 C965 1.387 . S
C967 C969 1.390 . S
C967 H971 0.950 . S
H968 C964 0.950 . S
C969 C967 1.390 . S
C969 C970 1.387 . S
C969 H972 0.950 . S
C970 C969 1.387 . S
C970 C973 1.387 . S
H971 C967 0.950 . S
H972 C969 0.950 . S
C973 C964 1.390 . S
C973 H966 0.950 . S
C973 C970 1.387 . S
C974 C975 1.387 . S
C974 H978 0.950 . S
C974 C983 1.390 . S
C975 C974 1.387 . S
C975 C977 1.387 . S
H976 C983 0.950 . S
C977 C975 1.387 . S
C977 C979 1.390 . S
C977 H981 0.950 . S
H978 C974 0.950 . S
C979 C977 1.390 . S
C979 C980 1.387 . S
C979 H982 0.950 . S
C980 C979 1.387 . S
C980 C983 1.387 . S
H981 C977 0.950 . S
H982 C979 0.950 . S
C983 C974 1.390 . S
C983 H976 0.950 . S
C983 C980 1.387 . S
C984 C985 1.387 . S
C984 H988 0.950 . S
C984 C993 1.390 . S
C985 C984 1.387 . S
C985 C987 1.387 . S
H986 C993 0.950 . S
C987 C985 1.387 . S
C987 C989 1.390 . S
C987 H991 0.950 . S
H988 C984 0.950 . S
C989 C987 1.390 . S
C989 C990 1.387 . S
C989 H992 0.950 . S
C990 C989 1.387 . S
C990 C993 1.387 . S
H991 C987 0.950 . S
H992 C989 0.950 . S
C993 C984 1.390 . S
C993 H986 0.950 . S
C993 C990 1.387 . S
C994 C995 1.387 . S
C994 H998 0.950 . S
C994 C1003 1.390 . S
C995 C994 1.387 . S
C995 C997 1.387 . S
H996 C1003 0.950 . S
C997 C995 1.387 . S
C997 C999 1.390 . S
C997 H1001 0.950 . S
H998 C994 0.950 . S
C999 C997 1.390 . S
C999 C1000 1.387 . S
C999 H1002 0.950 . S
C1000 C999 1.387 . S
C1000 C1003 1.387 . S
H1001 C997 0.950 . S
H1002 C999 0.950 . S
C1003 C994 1.390 . S
C1003 H996 0.950 . S
C1003 C1000 1.387 . S
C1004 C1005 1.387 . S
C1004 H1008 0.950 . S
C1004 C1013 1.390 . S
C1005 C1004 1.387 . S
C1005 C1007 1.387 . S
H1006 C1013 0.950 . S
C1007 C1005 1.387 . S
C1007 C1009 1.390 . S
C1007 H1011 0.950 . S
H1008 C1004 0.950 . S
C1009 C1007 1.390 . S
C1009 C1010 1.387 . S
C1009 H1012 0.950 . S
C1010 C1009 1.387 . S
C1010 C1013 1.387 . S
H1011 C1007 0.950 . S
H1012 C1009 0.950 . S
C1013 C1004 1.390 . S
C1013 H1006 0.950 . S
C1013 C1010 1.387 . S
C1014 C1015 1.387 . S
C1014 H1018 0.950 . S
C1014 C1023 1.390 . S
C1015 C1014 1.387 . S
C1015 C1017 1.387 . S
H1016 C1023 0.950 . S
C1017 C1015 1.387 . S
C1017 C1019 1.390 . S
C1017 H1021 0.950 . S
H1018 C1014 0.950 . S
C1019 C1017 1.390 . S
C1019 C1020 1.387 . S
C1019 H1022 0.950 . S
C1020 C1019 1.387 . S
C1020 C1023 1.387 . S
H1021 C1017 0.950 . S
H1022 C1019 0.950 . S
C1023 C1014 1.390 . S
C1023 H1016 0.950 . S
C1023 C1020 1.387 . S
C1024 C1025 1.387 . S
C1024 H1028 0.950 . S
C1024 C1033 1.390 . S
C1025 C1024 1.387 . S
C1025 C1027 1.387 . S
H1026 C1033 0.950 . S
C1027 C1025 1.387 . S
C1027 C1029 1.390 . S
C1027 H1031 0.950 . S
H1028 C1024 0.950 . S
C1029 C1027 1.390 . S
C1029 C1030 1.387 . S
C1029 H1032 0.950 . S
C1030 C1029 1.387 . S
C1030 C1033 1.387 . S
H1031 C1027 0.950 . S
H1032 C1029 0.950 . S
C1033 C1024 1.390 . S
C1033 H1026 0.950 . S
C1033 C1030 1.387 . S
C1034 C1035 1.387 1_655 S
C1034 H1038 0.950 1_655 S
C1034 C1043 1.390 . S
C1035 C1034 1.387 1_455 S
C1035 C1037 1.387 . S
H1036 C1043 0.950 . S
C1037 C1035 1.387 . S
C1037 C1039 1.390 1_455 S
C1037 H1041 0.950 . S
H1038 C1034 0.950 1_455 S
C1039 C1037 1.390 1_655 S
C1039 C1040 1.387 . S
C1039 H1042 0.950 . S
C1040 C1039 1.387 . S
C1040 C1043 1.387 . S
H1041 C1037 0.950 . S
H1042 C1039 0.950 . S
C1043 C1034 1.390 . S
C1043 H1036 0.950 . S
C1043 C1040 1.387 . S
C1044 C1045 1.387 . S
C1044 H1048 0.950 . S
C1044 C1053 1.390 . S
C1045 C1044 1.387 . S
C1045 C1047 1.387 . S
H1046 C1053 0.950 . S
C1047 C1045 1.387 . S
C1047 C1049 1.390 . S
C1047 H1051 0.950 . S
H1048 C1044 0.950 . S
C1049 C1047 1.390 . S
C1049 C1050 1.387 . S
C1049 H1052 0.950 . S
C1050 C1049 1.387 . S
C1050 C1053 1.387 . S
H1051 C1047 0.950 . S
H1052 C1049 0.950 . S
C1053 C1044 1.390 . S
C1053 H1046 0.950 . S
C1053 C1050 1.387 . S
C1054 C1055 1.394 . S
C1054 H1058 0.953 . S
C1054 C1063 1.381 1_655 S
C1055 C1054 1.394 . S
C1055 C1057 1.387 . S
H1056 C1063 0.950 . S
C1057 C1055 1.387 . S
C1057 C1059 1.390 1_655 S
C1057 H1061 0.950 . S
H1058 C1054 0.953 . S
C1059 C1057 1.390 1_455 S
C1059 C1060 1.387 . S
C1059 H1062 0.950 . S
C1060 C1059 1.387 . S
C1060 C1063 1.387 . S
H1061 C1057 0.950 . S
H1062 C1059 0.950 . S
C1063 C1054 1.381 1_455 S
C1063 H1056 0.950 . S
C1063 C1060 1.387 . S
C1064 C1065 1.387 . S
C1064 H1068 0.950 . S
C1064 C1073 1.390 . S
C1065 C1064 1.387 . S
C1065 C1067 1.387 . S
H1066 C1073 0.950 . S
C1067 C1065 1.387 . S
C1067 C1069 1.390 . S
C1067 H1071 0.950 . S
H1068 C1064 0.950 . S
C1069 C1067 1.390 . S
C1069 C1070 1.387 . S
C1069 H1072 0.950 . S
C1070 C1069 1.387 . S
C1070 C1073 1.387 . S
H1071 C1067 0.950 . S
H1072 C1069 0.950 . S
C1073 C1064 1.390 . S
C1073 H1066 0.950 . S
C1073 C1070 1.387 . S
C1074 C1075 1.387 . S
C1074 H1078 0.950 1_556 S
C1074 C1083 1.390 . S
C1075 C1074 1.387 . S
C1075 C1077 1.387 . S
H1076 C1083 0.950 . S
C1077 C1075 1.387 . S
C1077 C1079 1.390 . S
C1077 H1081 0.950 . S
H1078 C1074 0.950 1_554 S
C1079 C1077 1.390 . S
C1079 C1080 1.387 . S
C1079 H1082 0.950 . S
C1080 C1079 1.387 . S
C1080 C1083 1.387 . S
H1081 C1077 0.950 . S
H1082 C1079 0.950 . S
C1083 C1074 1.390 . S
C1083 H1076 0.950 . S
C1083 C1080 1.387 . S
C1084 C1085 1.387 . S
C1084 H1088 0.950 . S
C1084 C1093 1.390 . S
C1085 C1084 1.387 . S
C1085 C1087 1.387 . S
H1086 C1093 0.950 . S
C1087 C1085 1.387 . S
C1087 C1089 1.390 . S
C1087 H1091 0.950 . S
H1088 C1084 0.950 . S
C1089 C1087 1.390 . S
C1089 C1090 1.387 . S
C1089 H1092 0.950 . S
C1090 C1089 1.387 . S
C1090 C1093 1.387 . S
H1091 C1087 0.950 . S
H1092 C1089 0.950 . S
C1093 C1084 1.390 . S
C1093 H1086 0.950 . S
C1093 C1090 1.387 . S
C1094 C1095 1.387 . S
C1094 H1098 0.950 . S
C1094 C1103 1.390 1_554 S
C1095 C1094 1.387 . S
C1095 C1097 1.387 . S
H1096 C1103 0.950 . S
C1097 C1095 1.387 . S
C1097 C1099 1.390 1_554 S
C1097 H1101 0.950 . S
H1098 C1094 0.950 . S
C1099 C1097 1.390 1_556 S
C1099 C1100 1.387 . S
C1099 H1102 0.950 . S
C1100 C1099 1.387 . S
C1100 C1103 1.387 . S
H1101 C1097 0.950 . S
H1102 C1099 0.950 . S
C1103 C1094 1.390 1_556 S
C1103 H1096 0.950 . S
C1103 C1100 1.387 . S
C1104 C1105 1.387 . S
C1104 H1108 0.950 . S
C1104 C1113 1.390 . S
C1105 C1104 1.387 . S
C1105 C1107 1.387 . S
H1106 C1113 0.950 . S
C1107 C1105 1.387 . S
C1107 C1109 1.390 . S
C1107 H1111 0.950 . S
H1108 C1104 0.950 . S
C1109 C1107 1.390 . S
C1109 C1110 1.387 . S
C1109 H1112 0.950 . S
C1110 C1109 1.387 . S
C1110 C1113 1.387 . S
H1111 C1107 0.950 . S
H1112 C1109 0.950 . S
C1113 C1104 1.390 . S
C1113 H1106 0.950 . S
C1113 C1110 1.387 . S
C1114 C1115 1.387 . S
C1114 H1118 0.950 . S
C1114 C1123 1.390 . S
C1115 C1114 1.387 . S
C1115 C1117 1.387 . S
H1116 C1123 0.950 . S
C1117 C1115 1.387 . S
C1117 C1119 1.390 . S
C1117 H1121 0.950 . S
H1118 C1114 0.950 . S
C1119 C1117 1.390 . S
C1119 C1120 1.387 . S
C1119 H1122 0.950 . S
C1120 C1119 1.387 . S
C1120 C1123 1.387 . S
H1121 C1117 0.950 . S
H1122 C1119 0.950 . S
C1123 C1114 1.390 . S
C1123 H1116 0.950 . S
C1123 C1120 1.387 . S
C1124 C1125 1.387 . S
C1124 H1128 0.950 . S
C1124 C1133 1.390 . S
C1125 C1124 1.387 . S
C1125 C1127 1.387 . S
H1126 C1133 0.950 . S
C1127 C1125 1.387 . S
C1127 C1129 1.390 . S
C1127 H1131 0.950 . S
H1128 C1124 0.950 . S
C1129 C1127 1.390 . S
C1129 C1130 1.387 . S
C1129 H1132 0.950 . S
C1130 C1129 1.387 . S
C1130 C1133 1.387 . S
H1131 C1127 0.950 . S
H1132 C1129 0.950 . S
C1133 C1124 1.390 . S
C1133 H1126 0.950 . S
C1133 C1130 1.387 . S
C1134 C1135 1.387 . S
C1134 H1138 0.950 . S
C1134 C1143 1.390 . S
C1135 C1134 1.387 . S
C1135 C1137 1.387 . S
H1136 C1143 0.950 . S
C1137 C1135 1.387 . S
C1137 C1139 1.390 . S
C1137 H1141 0.950 . S
H1138 C1134 0.950 . S
C1139 C1137 1.390 . S
C1139 C1140 1.387 . S
C1139 H1142 0.950 . S
C1140 C1139 1.387 . S
C1140 C1143 1.387 . S
H1141 C1137 0.950 . S
H1142 C1139 0.950 . S
C1143 C1134 1.390 . S
C1143 H1136 0.950 . S
C1143 C1140 1.387 . S
C1144 C1145 1.387 . S
C1144 H1148 0.950 . S
C1144 C1153 1.390 . S
C1145 C1144 1.387 . S
C1145 C1147 1.387 . S
H1146 C1153 0.950 . S
C1147 C1145 1.387 . S
C1147 C1149 1.390 . S
C1147 H1151 0.950 . S
H1148 C1144 0.950 . S
C1149 C1147 1.390 . S
C1149 C1150 1.387 . S
C1149 H1152 0.950 . S
C1150 C1149 1.387 . S
C1150 C1153 1.387 . S
H1151 C1147 0.950 . S
H1152 C1149 0.950 . S
C1153 C1144 1.390 . S
C1153 H1146 0.950 . S
C1153 C1150 1.387 . S
C1154 C1155 1.387 . S
C1154 H1158 0.950 . S
C1154 C1163 1.390 . S
C1155 C1154 1.387 . S
C1155 C1157 1.387 . S
H1156 C1163 0.950 . S
C1157 C1155 1.387 . S
C1157 C1159 1.390 . S
C1157 H1161 0.950 . S
H1158 C1154 0.950 . S
C1159 C1157 1.390 . S
C1159 C1160 1.387 . S
C1159 H1162 0.950 . S
C1160 C1159 1.387 . S
C1160 C1163 1.387 . S
H1161 C1157 0.950 . S
H1162 C1159 0.950 . S
C1163 C1154 1.390 . S
C1163 H1156 0.950 . S
C1163 C1160 1.387 . S
C1164 C1165 1.387 . S
C1164 H1168 0.950 . S
C1164 C1173 1.390 . S
C1165 C1164 1.387 . S
C1165 C1167 1.387 . S
H1166 C1173 0.950 . S
C1167 C1165 1.387 . S
C1167 C1169 1.390 . S
C1167 H1171 0.950 . S
H1168 C1164 0.950 . S
C1169 C1167 1.390 . S
C1169 C1170 1.387 . S
C1169 H1172 0.950 . S
C1170 C1169 1.387 . S
C1170 C1173 1.387 . S
H1171 C1167 0.950 . S
H1172 C1169 0.950 . S
C1173 C1164 1.390 . S
C1173 H1166 0.950 . S
C1173 C1170 1.387 . S
C1174 C1175 1.387 . S
C1174 H1178 0.950 . S
C1174 C1183 1.390 . S
C1175 C1174 1.387 . S
C1175 C1177 1.387 . S
H1176 C1183 0.950 . S
C1177 C1175 1.387 . S
C1177 C1179 1.390 . S
C1177 H1181 0.950 . S
H1178 C1174 0.950 . S
C1179 C1177 1.390 . S
C1179 C1180 1.387 . S
C1179 H1182 0.950 . S
C1180 C1179 1.387 . S
C1180 C1183 1.387 . S
H1181 C1177 0.950 . S
H1182 C1179 0.950 . S
C1183 C1174 1.390 . S
C1183 H1176 0.950 . S
C1183 C1180 1.387 . S
C1184 C1185 1.387 . S
C1184 H1188 0.950 . S
C1184 C1193 1.390 . S
C1185 C1184 1.387 . S
C1185 C1187 1.387 . S
H1186 C1193 0.950 . S
C1187 C1185 1.387 . S
C1187 C1189 1.390 . S
C1187 H1191 0.950 . S
H1188 C1184 0.950 . S
C1189 C1187 1.390 . S
C1189 C1190 1.387 . S
C1189 H1192 0.950 . S
C1190 C1189 1.387 . S
C1190 C1193 1.387 . S
H1191 C1187 0.950 . S
H1192 C1189 0.950 . S
C1193 C1184 1.390 . S
C1193 H1186 0.950 . S
C1193 C1190 1.387 . S
C1194 C1195 1.387 . S
C1194 H1198 0.950 . S
C1194 C1203 1.390 . S
C1195 C1194 1.387 . S
C1195 C1197 1.387 . S
H1196 C1203 0.950 . S
C1197 C1195 1.387 . S
C1197 C1199 1.390 . S
C1197 H1201 0.950 . S
H1198 C1194 0.950 . S
C1199 C1197 1.390 . S
C1199 C1200 1.387 . S
C1199 H1202 0.950 . S
C1200 C1199 1.387 . S
C1200 C1203 1.387 . S
H1201 C1197 0.950 . S
H1202 C1199 0.950 . S
C1203 C1194 1.390 . S
C1203 H1196 0.950 . S
C1203 C1200 1.387 . S
C1204 C1205 1.387 . S
C1204 H1208 0.950 . S
C1204 C1213 1.390 . S
C1205 C1204 1.387 . S
C1205 C1207 1.387 . S
H1206 C1213 0.950 . S
C1207 C1205 1.387 . S
C1207 C1209 1.390 . S
C1207 H1211 0.950 . S
H1208 C1204 0.950 . S
C1209 C1207 1.390 . S
C1209 C1210 1.387 . S
C1209 H1212 0.950 . S
C1210 C1209 1.387 . S
C1210 C1213 1.387 . S
H1211 C1207 0.950 . S
H1212 C1209 0.950 . S
C1213 C1204 1.390 . S
C1213 H1206 0.950 . S
C1213 C1210 1.387 . S
C1214 C1215 1.387 . S
C1214 H1218 0.950 . S
C1214 C1223 1.390 . S
C1215 C1214 1.387 . S
C1215 C1217 1.387 . S
H1216 C1223 0.950 . S
C1217 C1215 1.387 . S
C1217 C1219 1.421 . S
C1217 H1221 0.950 . S
H1218 C1214 0.950 . S
C1219 C1217 1.421 . S
C1219 C1220 1.382 1_545 S
C1219 H1222 0.925 1_545 S
C1220 C1219 1.382 1_565 S
C1220 C1223 1.387 1_565 S
H1221 C1217 0.950 . S
H1222 C1219 0.925 1_565 S
C1223 C1214 1.390 . S
C1223 H1216 0.950 . S
C1223 C1220 1.387 1_545 S
C750 C584 1.596 1_556 S
C745 C181 1.599 . S
C760 C599 1.733 . S
C755 C247 1.744 1_455 S
C765 C283 1.671 . S
C770 C612 1.682 . S
C780 C626 1.612 . S
C775 C169 1.695 1_655 S
C790 C638 1.602 . S
C785 C361 1.681 . S
C800 C652 1.523 . S
C795 C433 1.480 . S
C805 C421 1.709 . S
C810 C666 1.687 . S
C820 C681 1.615 . S
C815 C355 1.541 . S
C825 C427 1.643 . S
C830 C697 1.650 . S
C840 C710 1.618 . S
C835 C325 1.598 . S
C845 C385 1.588 . S
C850 C695 1.528 . S
C860 C708 1.708 . S
C855 C463 1.660 . S
C865 C253 1.792 . S
C870 C724 1.797 . S
C875 C145 1.685 . S
C880 C723 1.669 . S
C885 C205 1.687 . S
C890 C722 1.617 . S
C895 C217 1.649 . S
C900 C725 1.650 . S
C905 C139 1.697 . S
C910 C627 1.686 1_565 S
C915 C535 1.498 . S
C920 C625 1.473 . S
C930 C585 1.569 . S
C925 C565 1.568 . S
C940 C596 1.724 . S
C935 C313 1.716 . S
C945 C175 1.709 . S
C950 C641 1.669 . S
C960 C682 1.822 . S
C955 C397 1.820 . S
C970 C639 1.668 . S
C965 C349 1.572 1_545 S
C980 C667 1.666 . S
C975 C457 1.657 . S
C990 C668 1.596 . S
C985 C505 1.599 . S
C995 C571 1.742 . S
C1000 C683 1.731 . S
C1005 C319 1.669 . S
C1010 C640 1.683 . S
C1020 C654 1.614 . S
C1015 C493 1.695 . S
C1025 C109 1.681 . S
C1030 C610 1.603 . S
C1040 C624 1.523 . S
C1035 C1 1.481 . S
C1050 C582 1.688 . S
C1045 C61 1.707 . S
C1060 C597 1.615 . S
C1055 C103 1.541 . S
C1065 C67 1.643 . S
C1070 C711 1.650 . S
C1075 C73 1.596 1_556 S
C1080 C696 1.617 . S
C1085 C133 1.588 . S
C1090 C709 1.525 . S
C1095 C31 1.660 . S
C1100 C694 1.707 . S
C1110 C738 1.797 . S
C1105 C289 1.792 . S
C1120 C737 1.671 . S
C1115 C469 1.686 1_554 S
C1130 C736 1.617 . S
C1125 C529 1.687 . S
C1135 C541 1.648 . S
C1140 C739 1.649 . S
C1145 C391 1.698 . S
C1150 C655 1.686 . S
C1160 C653 1.473 . S
C1155 C211 1.498 . S
C1170 C669 1.571 . S
C1165 C241 1.571 . S
C1180 C680 1.725 . S
C1175 C277 1.718 . S
C1185 C499 1.707 . S
C1190 C613 1.666 . S
C1200 C598 1.822 . S
C1195 C37 1.820 . S
C1205 C97 1.573 . S
C1210 C611 1.667 . S
C1220 C583 1.666 . S
C1215 C25 1.655 . S
