# Generated by pormake.
# Topology ssa, (4,4)-cn, num edge types: 1
# Building blocks:
#     Node 0, Type 0, BuildingBlock: NAWXER_clean_sbu_0, # of connection points: 4
#     Node 1, Type 0, BuildingBlock: NAWXER_clean_sbu_0, # of connection points: 4
#     Node 2, Type 0, BuildingBlock: NAWXER_clean_sbu_0, # of connection points: 4
#     Node 3, Type 0, BuildingBlock: NAWXER_clean_sbu_0, # of connection points: 4
#     Node 4, Type 0, BuildingBlock: NAWXER_clean_sbu_0, # of connection points: 4
#     Node 5, Type 0, BuildingBlock: NAWXER_clean_sbu_0, # of connection points: 4
#     Node 6, Type 1, BuildingBlock: KUFVIS_clean_linker_0, # of connection points: 4
#     Node 7, Type 1, BuildingBlock: KUFVIS_clean_linker_0, # of connection points: 4
#     Node 8, Type 1, BuildingBlock: KUFVIS_clean_linker_0, # of connection points: 4
#     Node 9, Type 1, BuildingBlock: KUFVIS_clean_linker_0, # of connection points: 4
#     Node 10, Type 1, BuildingBlock: KUFVIS_clean_linker_0, # of connection points: 4
#     Node 11, Type 1, BuildingBlock: KUFVIS_clean_linker_0, # of connection points: 4
#     Edge 12, Type (0, 1), BuildingBlock: AJUNOK_clean_linker_0, # of connection points: 2
#     Edge 13, Type (0, 1), BuildingBlock: AJUNOK_clean_linker_0, # of connection points: 2
#     Edge 14, Type (0, 1), BuildingBlock: AJUNOK_clean_linker_0, # of connection points: 2
#     Edge 15, Type (0, 1), BuildingBlock: AJUNOK_clean_linker_0, # of connection points: 2
#     Edge 16, Type (0, 1), BuildingBlock: AJUNOK_clean_linker_0, # of connection points: 2
#     Edge 17, Type (0, 1), BuildingBlock: AJUNOK_clean_linker_0, # of connection points: 2
#     Edge 18, Type (0, 1), BuildingBlock: AJUNOK_clean_linker_0, # of connection points: 2
#     Edge 19, Type (0, 1), BuildingBlock: AJUNOK_clean_linker_0, # of connection points: 2
#     Edge 20, Type (0, 1), BuildingBlock: AJUNOK_clean_linker_0, # of connection points: 2
#     Edge 21, Type (0, 1), BuildingBlock: AJUNOK_clean_linker_0, # of connection points: 2
#     Edge 22, Type (0, 1), BuildingBlock: AJUNOK_clean_linker_0, # of connection points: 2
#     Edge 23, Type (0, 1), BuildingBlock: AJUNOK_clean_linker_0, # of connection points: 2
#     Edge 24, Type (0, 1), BuildingBlock: AJUNOK_clean_linker_0, # of connection points: 2
#     Edge 25, Type (0, 1), BuildingBlock: AJUNOK_clean_linker_0, # of connection points: 2
#     Edge 26, Type (0, 1), BuildingBlock: AJUNOK_clean_linker_0, # of connection points: 2
#     Edge 27, Type (0, 1), BuildingBlock: AJUNOK_clean_linker_0, # of connection points: 2
#     Edge 28, Type (0, 1), BuildingBlock: AJUNOK_clean_linker_0, # of connection points: 2
#     Edge 29, Type (0, 1), BuildingBlock: AJUNOK_clean_linker_0, # of connection points: 2
#     Edge 30, Type (0, 1), BuildingBlock: AJUNOK_clean_linker_0, # of connection points: 2
#     Edge 31, Type (0, 1), BuildingBlock: AJUNOK_clean_linker_0, # of connection points: 2
#     Edge 32, Type (0, 1), BuildingBlock: AJUNOK_clean_linker_0, # of connection points: 2
#     Edge 33, Type (0, 1), BuildingBlock: AJUNOK_clean_linker_0, # of connection points: 2
#     Edge 34, Type (0, 1), BuildingBlock: AJUNOK_clean_linker_0, # of connection points: 2
#     Edge 35, Type (0, 1), BuildingBlock: AJUNOK_clean_linker_0, # of connection points: 2
# Relax obj value: 0.007
# Max RMSD: 0.057
# Mean RMSD: 0.038
data_MOF--net-ssa--node1-NAWXER_clean_sbu_0--node2-KUFVIS_clean_linker_0--edge1-AJUNOK_clean_linker_0
_symmetry_space_group_name_H-M    P1
_symmetry_Int_Tables_number       1
_symmetry_cell_setting            triclinic
loop_
_symmetry_equiv_pos_as_xyz
'x, y, z'
_cell_length_a     37.236393
_cell_length_b     37.231941
_cell_length_c     22.002338
_cell_angle_alpha  90.468687
_cell_angle_beta   88.913655
_cell_angle_gamma 120.29244
loop_
_atom_site_label
_atom_site_type_symbol
_atom_site_fract_x
_atom_site_fract_y
_atom_site_fract_z
_atom_type_partial_charge
C0 C 0.10909 0.57388 0.00341 0.0
C1 C 1.03157 0.43646 0.90614 0.0
O2 O 0.07539 0.54733 0.03048 0.0
Zn3 Zn 1.02381 0.4867 0.01887 0.0
O4 O 0.11784 0.56595 0.95048 0.0
Zn5 Zn 0.06971 0.50894 0.94406 0.0
O6 O 1.0184 0.51774 0.92827 0.0
O7 O 0.97501 0.49377 0.00658 0.0
O8 O 0.06355 0.4676 0.88234 0.0
O9 O 1.015 0.44164 0.95418 0.0
O10 O 1.03302 0.4594 0.08878 0.0
O11 O 0.08268 0.48175 0.01832 0.0
C12 C 0.98434 0.51075 0.95418 0.0
C13 C 0.0678 0.46416 0.06954 0.0
C14 C 0.53849 0.09754 0.45271 0.0
C15 C 0.60804 1.02011 0.38245 0.0
O16 O 0.53234 0.06644 0.4848 0.0
Zn17 Zn 0.54774 1.01952 0.48838 0.0
O18 O 0.55959 0.10565 0.40318 0.0
Zn19 Zn 0.57286 0.06031 0.40754 0.0
O20 O 0.51598 1.00424 0.39453 0.0
O21 O 0.4936 0.96804 0.48002 0.0
O22 O 0.61055 0.05107 0.35383 0.0
O23 O 0.58536 1.00667 0.43046 0.0
O24 O 0.58323 0.03751 0.56023 0.0
O25 O 0.61076 0.08117 0.48271 0.0
C26 C 0.489 0.97186 0.4236 0.0
C27 C 0.61264 0.07111 0.5371 0.0
C28 C 0.49866 0.45999 0.91003 0.0
C29 C 0.54742 0.59889 -0.00319 0.0
O30 O 0.49705 0.49037 0.8871 0.0
Zn31 Zn 0.51989 0.52907 0.95478 0.0
O32 O 0.51093 0.46281 0.96475 0.0
Zn33 Zn 0.53222 0.50831 0.03637 0.0
O34 O 0.48904 0.48362 0.09749 0.0
O35 O 0.46943 0.50608 0.01978 0.0
O36 O 0.54926 0.57362 0.03439 0.0
O37 O 0.53231 0.58615 0.94446 0.0
O38 O 0.58151 0.53635 0.96318 0.0
O39 O 0.58453 0.51176 0.05324 0.0
C40 C 0.46176 0.48906 0.07238 0.0
C41 C 0.60153 0.52824 0.00256 0.0
C42 C 0.09063 0.63568 0.47319 0.0
C43 C 0.99758 0.50069 0.57704 0.0
O44 O 0.09344 0.62937 0.5294 0.0
Zn45 Zn 0.04665 0.57113 0.53391 0.0
O46 O 0.06204 0.60688 0.44154 0.0
Zn47 Zn 1.0143 0.5445 0.44757 0.0
O48 O 0.96243 0.54465 0.43465 0.0
O49 O 0.99321 0.57499 0.5204 0.0
O50 O 0.99298 0.50295 0.52028 0.0
O51 O 1.02545 0.53265 0.60498 0.0
O52 O 0.07271 0.54312 0.48054 0.0
O53 O 1.03781 0.5187 0.39526 0.0
C54 C 0.96292 0.56301 0.48408 0.0
C55 C 0.06762 0.52482 0.4296 0.0
C56 C 0.55657 1.00893 0.04389 0.0
C57 C 0.52605 0.10267 0.9287 0.0
O58 O 0.55657 0.04016 0.06839 0.0
Zn59 Zn 0.53935 0.05726 -0.00504 0.0
O60 O 0.54764 1.00027 -0.01165 0.0
Zn61 Zn 0.53021 1.01927 0.91241 0.0
O62 O 0.58099 0.03414 0.86391 0.0
O63 O 0.5938 0.07615 0.94226 0.0
O64 O 0.5244 0.07211 0.89924 0.0
O65 O 0.53238 0.10591 -0.01427 0.0
O66 O 0.47918 1.00567 -0.01296 0.0
O67 O 0.47416 0.96942 0.90459 0.0
C68 C 0.60673 0.06535 0.89537 0.0
C69 C 0.45786 0.974 0.95343 0.0
C70 C 0.62039 0.58835 0.57975 0.0
C71 C 0.48395 0.5446 0.49204 0.0
O72 O 0.59061 0.59152 0.60303 0.0
Zn73 Zn 0.55276 0.57097 0.53454 0.0
O74 O 0.61801 0.57656 0.52444 0.0
Zn75 Zn 0.57454 0.55837 0.45224 0.0
O76 O 0.60083 0.60181 0.39293 0.0
O77 O 0.57705 0.62138 0.47105 0.0
O78 O 0.50965 0.54247 0.45445 0.0
O79 O 0.49588 0.55975 0.54479 0.0
O80 O 0.54233 0.50843 0.52206 0.0
O81 O 0.56913 0.50545 0.43238 0.0
C82 C 0.59467 0.62893 0.41847 0.0
C83 C 0.55012 0.48806 0.48164 0.0
H84 H 0.3901 0.49063 0.297 0.0
H85 H 0.28611 0.48452 0.39227 0.0
H86 H 0.28401 0.46723 0.19593 0.0
H87 H 0.21788 0.43712 0.20323 0.0
H88 H 0.12085 0.44802 0.29118 0.0
H89 H 0.23833 0.50107 0.37655 0.0
C90 C 0.35882 0.48588 0.29636 0.0
C91 C 0.33789 0.47654 0.24162 0.0
C92 C 0.34064 0.48941 0.35022 0.0
C93 C 0.30013 0.48332 0.34941 0.0
C94 C 0.27803 0.47466 0.29389 0.0
C95 C 0.29833 0.47239 0.23978 0.0
C96 C 0.23408 0.4673 0.2926 0.0
C97 C 0.20751 0.44723 0.24245 0.0
C98 C 0.167 0.44124 0.24121 0.0
C99 C 0.15166 0.4516 0.29219 0.0
C100 C 0.17728 0.47342 0.34008 0.0
C101 C 0.21856 0.48198 0.34031 0.0
H102 H 0.70871 0.12663 0.7229 0.0
H103 H 0.81109 0.219 0.82481 0.0
H104 H 0.80512 0.23263 0.62981 0.0
H105 H 0.83899 0.30377 0.66386 0.0
H106 H 0.96438 0.37101 0.72417 0.0
H107 H 0.88254 0.24897 0.79584 0.0
C108 C 0.73892 0.155 0.72425 0.0
C109 C 0.75494 0.17763 0.67119 0.0
C110 C 0.75868 0.169 0.77943 0.0
C111 C 0.7964 0.20731 0.78143 0.0
C112 C 0.81444 0.23062 0.72708 0.0
C113 C 0.79272 0.2155 0.67188 0.0
C114 C 0.85582 0.27015 0.7274 0.0
C115 C 0.86352 0.3047 0.69073 0.0
C116 C 0.90282 0.34118 0.69087 0.0
C117 C 0.93451 0.34232 0.72436 0.0
C118 C 0.92753 0.31003 0.76331 0.0
C119 C 0.88804 0.27382 0.76496 0.0
H120 H 0.59285 0.69479 0.18996 0.0
H121 H 0.6026 0.79863 0.09356 0.0
H122 H 0.6165 0.80276 0.29005 0.0
H123 H 0.64868 0.86871 0.28277 0.0
H124 H 0.64288 0.96661 0.19365 0.0
H125 H 0.5866 0.84759 0.10953 0.0
C126 C 0.59792 0.7262 0.19041 0.0
C127 C 0.60667 0.74787 0.24503 0.0
C128 C 0.59564 0.74394 0.13629 0.0
C129 C 0.60264 0.78485 0.13659 0.0
C130 C 0.6108 0.80768 0.19203 0.0
C131 C 0.61168 0.78779 0.24635 0.0
C132 C 0.61942 0.85206 0.19321 0.0
C133 C 0.63976 0.8791 0.24321 0.0
C134 C 0.64793 0.92037 0.24357 0.0
C135 C 0.63828 0.93538 0.1927 0.0
C136 C 0.61569 0.90938 0.14548 0.0
C137 C 0.60578 0.86763 0.14555 0.0
H138 H 0.91374 0.53549 0.71988 0.0
H139 H 0.83917 0.55101 0.85701 0.0
H140 H 0.81351 0.55118 0.66531 0.0
H141 H 0.78393 0.58516 0.68975 0.0
H142 H 0.6884 0.57143 0.8137 0.0
H143 H 0.77531 0.53693 0.87237 0.0
C144 C 0.88783 0.53971 0.73263 0.0
C145 C 0.86507 0.54465 0.68686 0.0
C146 C 0.87809 0.54097 0.79436 0.0
C147 C 0.8449 0.54782 0.80952 0.0
C148 C 0.82075 0.55209 0.76366 0.0
C149 C 0.83123 0.54949 0.70231 0.0
C150 C 0.78509 0.55953 0.77866 0.0
C151 C 0.76942 0.57556 0.73414 0.0
C152 C 0.73444 0.57975 0.74624 0.0
C153 C 0.71623 0.56979 0.80407 0.0
C154 C 0.73208 0.55622 0.84973 0.0
C155 C 0.7655 0.54985 0.83693 0.0
H156 H 0.15428 0.66993 0.23765 0.0
H157 H 0.26061 0.74682 0.1243 0.0
H158 H 0.25179 0.7848 0.30806 0.0
H159 H 0.32155 0.81491 0.2994 0.0
H160 H 0.40995 0.9123 0.18238 0.0
H161 H 0.29565 0.81661 0.10855 0.0
C162 C 0.18408 0.69817 0.23101 0.0
C163 C 0.20117 0.72618 0.27936 0.0
C164 C 0.20506 0.70561 0.17472 0.0
C165 C 0.24379 0.74215 0.1669 0.0
C166 C 0.26146 0.77151 0.21444 0.0
C167 C 0.23959 0.7629 0.27084 0.0
C168 C 0.3028 0.8106 0.2054 0.0
C169 C 0.32977 0.82933 0.25491 0.0
C170 C 0.36825 0.86615 0.24718 0.0
C171 C 0.38033 0.88384 0.18893 0.0
C172 C 0.3546 0.86567 0.1389 0.0
C173 C 0.31577 0.82943 0.14727 0.0
H174 H 0.49897 0.39271 0.67213 0.0
H175 H 0.48503 0.28896 0.77461 0.0
H176 H 0.52533 0.30617 0.58493 0.0
H177 H 0.50104 0.24012 0.58359 0.0
H178 H 0.52068 0.15425 0.6844 0.0
H179 H 0.51619 0.25267 0.77941 0.0
C180 C 0.4994 0.36383 0.67461 0.0
C181 C 0.51004 0.34958 0.62249 0.0
C182 C 0.4915 0.34297 0.73003 0.0
C183 C 0.49311 0.3059 0.73219 0.0
C184 C 0.50476 0.29108 0.67978 0.0
C185 C 0.51425 0.31445 0.62538 0.0
C186 C 0.50799 0.25224 0.68143 0.0
C187 C 0.50667 0.23071 0.62704 0.0
C188 C 0.51192 0.19596 0.62787 0.0
C189 C 0.51688 0.18129 0.68355 0.0
C190 C 0.5177 0.20135 0.73809 0.0
C191 C 0.51359 0.23679 0.73694 0.0
C192 C 0.07516 0.4193 0.14768 0.0
C193 C 0.09343 0.45233 0.10594 0.0
C194 C 0.09993 0.41064 0.18542 0.0
C195 C 0.1438 0.43568 0.18426 0.0
H196 H 1.04163 0.40098 0.15271 0.0
H197 H 0.0846 0.38697 0.22017 0.0
S198 S 0.20681 0.52275 0.07786 0.0
N199 N 0.15817 0.50696 0.06047 0.0
N200 N 0.20416 0.49178 0.13311 0.0
C201 C 0.16229 0.46626 0.13889 0.0
C202 C 0.13724 0.47463 0.09982 0.0
C203 C 0.68344 0.09237 0.57167 0.0
C204 C 0.65008 0.09974 0.57005 0.0
C205 C 0.72175 0.1222 0.59552 0.0
C206 C 0.72774 0.16023 0.61856 0.0
H207 H 0.67973 0.06323 0.55505 0.0
H208 H 0.74557 0.11398 0.60119 0.0
S209 S 0.65132 0.19614 0.61647 0.0
N210 N 0.62661 0.14927 0.58585 0.0
N211 N 0.69816 0.20484 0.63307 0.0
C212 C 0.69546 0.16901 0.61267 0.0
C213 C 0.65661 0.13876 0.58816 0.0
C214 C 0.53298 0.65471 0.0314 0.0
C215 C 0.56191 0.6422 0.01611 0.0
C216 C 0.54519 0.69184 0.06382 0.0
C217 C 0.58678 0.71779 0.0811 0.0
H218 H 0.50025 0.6341 0.0227 0.0
H219 H 0.52138 0.69822 0.08034 0.0
S220 S 0.675 0.70146 0.0447 0.0
N221 N 0.63428 0.6605 0.01531 0.0
N222 N 0.65729 0.73041 0.07489 0.0
C223 C 0.61638 0.70733 0.06094 0.0
C224 C 0.6039 0.66939 0.02902 0.0
C225 C 0.89617 0.51859 0.53548 0.0
C226 C 0.92481 0.5584 0.51253 0.0
C227 C 0.87434 0.51384 0.59042 0.0
C228 C 0.87948 0.54873 0.62281 0.0
H229 H 0.89489 0.49125 0.51552 0.0
H230 H 0.85578 0.48302 0.60985 0.0
S231 S 0.94467 0.65896 0.57649 0.0
N232 N 0.95299 0.63272 0.52257 0.0
N233 N 0.91045 0.62376 0.62419 0.0
C234 C 0.90399 0.58823 0.59662 0.0
C235 C 0.92678 0.59307 0.54148 0.0
C236 C 0.41646 0.90099 -0.00888 0.0
C237 C 0.41939 0.93977 -0.01834 0.0
C238 C 0.39189 0.87467 0.03912 0.0
C239 C 0.36919 0.88612 0.07861 0.0
H240 H 0.4367 0.89301 0.96581 0.0
H241 H 0.39345 0.84697 0.0485 0.0
S242 S 0.36131 0.98104 0.06747 0.0
N243 N 0.39349 0.98566 0.01134 0.0
N244 N 0.34736 0.93617 0.10083 0.0
C245 C 0.36871 0.92271 0.0659 0.0
C246 C 0.39366 0.94945 0.0174 0.0
C247 C 0.57019 0.43721 0.51394 0.0
C248 C 0.53897 0.44533 0.49584 0.0
C249 C 0.56011 0.40197 0.5491 0.0
C250 C 0.51863 0.37419 0.56652 0.0
H251 H 0.60267 0.46027 0.50643 0.0
H252 H 0.58507 0.39888 0.56803 0.0
S253 S 0.42555 0.37824 0.52098 0.0
N254 N 0.46511 0.42034 0.49047 0.0
N255 N 0.44603 0.35379 0.55576 0.0
C256 C 0.48704 0.37962 0.54254 0.0
C257 C 0.4973 0.4155 0.50745 0.0
C258 C 0.60718 0.95309 0.37078 0.0
C259 C 0.6275 0.99627 0.35949 0.0
C260 C 0.62008 0.9278 0.34163 0.0
C261 C 0.65364 0.94483 0.29994 0.0
H262 H 0.57887 0.93804 0.39817 0.0
H263 H 0.60006 0.89437 0.34522 0.0
S264 S 0.72539 0.05722 0.27091 0.0
N265 N 0.68853 0.05589 0.31553 0.0
N266 N 0.71367 1.00837 0.26222 0.0
C267 C 0.67864 0.9886 0.29742 0.0
C268 C 0.6648 1.01432 0.32563 0.0
C269 C 0.64478 0.50056 0.96016 0.0
C270 C 0.64243 0.53426 -0.01508 0.0
C271 C 0.67854 0.50728 0.92262 0.0
C272 C 0.71085 0.54787 0.90955 0.0
H273 H 0.61854 0.46929 0.96469 0.0
H274 H 0.67691 0.4811 0.89825 0.0
S275 S 0.72274 0.64554 0.97306 0.0
N276 N 0.67766 0.60874 0.00111 0.0
N277 N 0.74161 0.62139 0.93181 0.0
C278 C 0.71123 0.58117 0.94057 0.0
C279 C 0.67666 0.57439 0.97775 0.0
C280 C 0.11096 0.68788 0.391 0.0
C281 C 0.12339 0.67186 0.43883 0.0
C282 C 0.13785 0.70909 0.34189 0.0
C283 C 0.17833 0.7153 0.33876 0.0
H284 H 0.07895 0.68069 0.38882 0.0
H285 H 0.12587 0.71798 0.30391 0.0
S286 S 0.2275 0.68307 0.45453 0.0
N287 N 0.18012 0.66666 0.48208 0.0
N288 N 0.23082 0.70692 0.38988 0.0
C289 C 0.19244 0.70274 0.38863 0.0
C290 C 0.16495 0.68101 0.43879 0.0
C291 C 0.49394 0.14246 0.88741 0.0
C292 C 0.52841 0.13688 0.89232 0.0
C293 C 0.49191 0.16646 0.83977 0.0
C294 C 0.52409 0.18503 0.79565 0.0
H295 H 0.46733 0.12593 0.91777 0.0
H296 H 0.46385 0.16806 0.83494 0.0
S297 S 0.62242 0.18275 0.79237 0.0
N298 N 0.59648 0.15438 0.8522 0.0
N299 N 0.5927 0.19921 0.76328 0.0
C300 C 0.5597 0.1818 0.80275 0.0
C301 C 0.5618 0.15771 0.85094 0.0
C302 C 0.41699 0.4867 0.45489 0.0
C303 C 0.44063 0.52845 0.47292 0.0
C304 C 0.38021 0.47242 0.42245 0.0
C305 C 0.36622 0.49964 0.40554 0.0
H306 H 0.42844 0.46558 0.46244 0.0
H307 H 0.36491 0.44089 0.40507 0.0
S308 S 0.41496 0.61101 0.44681 0.0
N309 N 0.44553 0.59592 0.47703 0.0
N310 N 0.377 0.56943 0.41388 0.0
C311 C 0.38777 0.54064 0.42757 0.0
C312 C 0.425 0.55504 0.46159 0.0
C313 C 0.97138 0.36399 0.90188 0.0
C314 C 1.01087 0.39426 0.87887 0.0
C315 C 0.94576 0.32787 0.86914 0.0
C316 C 0.95853 0.32144 0.81177 0.0
H317 H 0.95825 0.36986 0.94249 0.0
H318 H 0.91359 0.30902 0.88396 0.0
S319 S 0.06476 0.38112 0.74481 0.0
N320 N 0.06597 0.40833 0.80525 0.0
N321 N 1.01769 0.33956 0.74438 0.0
C322 C 1.00107 0.34602 0.79591 0.0
C323 C 1.02702 0.3835 0.82837 0.0
C324 C 0.97318 0.5513 0.87366 0.0
C325 C 0.95627 0.52139 0.92055 0.0
C326 C 0.94781 0.55872 0.8354 0.0
C327 C 0.90413 0.53646 0.84175 0.0
H328 H 1.00647 0.56857 0.86524 0.0
H329 H 0.9626 0.58143 0.79931 0.0
S330 S 0.84383 0.45583 0.95867 0.0
N331 N 0.89279 0.47053 0.97273 0.0
N332 N 0.84509 0.48411 0.90031 0.0
C333 C 0.88674 0.50765 0.88999 0.0
C334 C 0.91274 0.50019 0.92938 0.0
C335 C 0.46823 0.92497 0.3349 0.0
C336 C 0.45611 0.93794 0.38765 0.0
C337 C 0.43914 0.89963 0.29181 0.0
C338 C 0.39672 0.88665 0.29909 0.0
H339 H 0.50086 0.93591 0.32567 0.0
H340 H 0.45021 0.89142 0.25125 0.0
S341 S 0.34866 0.91031 0.43122 0.0
N342 N 0.39872 0.93416 0.44699 0.0
N343 N 0.34368 0.8869 0.36516 0.0
C344 C 0.38378 0.89757 0.35333 0.0
C345 C 0.4136 0.92322 0.39777 0.0
C346 C 0.46364 0.41205 0.82251 0.0
C347 C 0.49052 0.42347 0.87202 0.0
C348 C 0.46055 0.38216 0.78036 0.0
C349 C 0.48516 0.36331 0.78483 0.0
H350 H 0.44595 0.4274 0.81499 0.0
H351 H 0.44072 0.37578 0.74157 0.0
S352 S 0.55753 0.37952 0.9094 0.0
N353 N 0.53894 0.41035 0.92677 0.0
N354 N 0.53477 0.35591 0.84574 0.0
C355 C 0.50997 0.37232 0.83643 0.0
C356 C 0.51239 0.40211 0.88026 0.0
C357 C 0.09559 0.47696 0.43333 0.0
C358 C 0.09864 0.51365 0.41123 0.0
C359 C 0.12601 0.46664 0.41815 0.0
C360 C 0.16056 0.49303 0.38112 0.0
H361 H 0.06883 0.45549 0.46065 0.0
H362 H 0.12062 0.43621 0.43075 0.0
S363 S 0.18576 0.59602 0.32098 0.0
N364 N 0.14105 0.57902 0.35804 0.0
N365 N 0.19816 0.55949 0.32871 0.0
C366 C 0.16566 0.53159 0.36374 0.0
C367 C 0.13454 0.54186 0.37872 0.0
C368 C 0.67248 0.13424 0.88987 0.0
C369 C 0.6514 0.09104 0.87849 0.0
C370 C 0.71282 0.16063 0.86678 0.0
C371 C 0.7338 0.14451 0.83291 0.0
H372 H 0.65658 0.14826 0.91273 0.0
H373 H 0.72542 0.19394 0.86914 0.0
S374 S 0.69751 0.03278 0.80753 0.0
N375 N 0.65785 0.03273 0.8426 0.0
N376 N 0.73462 0.08207 0.80225 0.0
C377 C 0.71579 0.10085 0.83079 0.0
C378 C 0.67405 0.07415 0.85184 0.0
C379 C 0.63441 0.68166 0.33831 0.0
C380 C 0.60373 0.66676 0.38452 0.0
C381 C 0.63795 0.71156 0.29683 0.0
C382 C 0.61062 0.72726 0.29958 0.0
H383 H 0.65445 0.66858 0.33217 0.0
H384 H 0.66033 0.7203 0.25964 0.0
S385 S 0.52791 0.70187 0.4156 0.0
N386 N 0.5482 0.67305 0.43439 0.0
N387 N 0.55444 0.72875 0.35502 0.0
C388 C 0.582 0.71519 0.34825 0.0
C389 C 0.57862 0.68496 0.3911 0.0
C390 C 0.49011 0.10867 0.51861 0.0
C391 C 0.52601 0.12607 0.48089 0.0
C392 C 0.48404 0.13245 0.56296 0.0
C393 C 0.51343 0.17472 0.57111 0.0
H394 H 0.46806 0.07555 0.51705 0.0
H395 H 0.45747 0.11703 0.59371 0.0
S396 S 0.61068 0.23635 0.48095 0.0
N397 N 0.5898 0.18909 0.45184 0.0
N398 N 0.57806 0.23395 0.53491 0.0
C399 C 0.54773 0.19341 0.53062 0.0
C400 C 0.55404 0.16908 0.4854 0.0
C401 C 0.40607 0.50535 0.10076 0.0
C402 C 0.42314 0.47927 0.10608 0.0
C403 C 0.37476 0.50177 0.1413 0.0
C404 C 0.35927 0.4716 0.18756 0.0
H405 H 0.4191 0.53064 0.06814 0.0
H406 H 0.36502 0.52468 0.13944 0.0
S407 S 0.38778 0.39088 0.213 0.0
N408 N 0.41818 0.41887 0.15581 0.0
N409 N 0.35889 0.41164 0.2309 0.0
C410 C 0.37318 0.44285 0.18926 0.0
C411 C 0.40533 0.44687 0.14886 0.0
C412 C 0.95221 0.42352 0.57196 0.0
C413 C 0.96906 0.4603 0.60708 0.0
C414 C 0.92535 0.38433 0.59759 0.0
C415 C 0.91369 0.3804 0.65914 0.0
H416 H 0.96132 0.42475 0.52462 0.0
H417 H 0.91637 0.3568 0.57033 0.0
S418 S 0.94402 0.4668 0.769 0.0
N419 N 0.96849 0.4903 0.70524 0.0
N420 N 0.9176 0.41658 0.75341 0.0
C421 C 0.92763 0.4171 0.69359 0.0
C422 C 0.95561 0.457 0.66778 0.0
C423 C 0.61189 0.99332 0.06184 0.0
C424 C 0.57093 0.98387 0.07403 0.0
C425 C 0.62489 0.96523 0.07644 0.0
C426 C 0.59747 0.92689 0.1046 0.0
H427 H 0.63394 1.0225 0.04018 0.0
H428 H 0.65749 0.97491 0.07024 0.0
S429 S 0.4849 0.88433 0.13431 0.0
N430 N 0.50124 0.93107 0.10563 0.0
N431 N 0.52627 0.87894 0.13706 0.0
C432 C 0.55566 0.91589 0.11287 0.0
C433 C 0.5423 0.94434 0.09699 0.0
C434 C 0.67454 0.56966 0.60332 0.0
C435 C 0.65516 0.59296 0.61759 0.0
C436 C 0.70291 0.56812 0.64293 0.0
C437 C 0.7134 0.59022 0.69807 0.0
H438 H 0.66589 0.5504 0.56295 0.0
H439 H 0.71455 0.54735 0.63211 0.0
S440 S 0.67776 0.66235 0.75076 0.0
N441 N 0.65254 0.64268 0.68696 0.0
N442 N 0.707 0.64117 0.76017 0.0
C443 C 0.69704 0.61652 0.71014 0.0
C444 C 0.66759 0.61746 0.67037 0.0
C445 C 0.14769 0.60005 0.09886 0.0
C446 C 0.13982 0.60903 0.04029 0.0
C447 C 0.17071 0.63165 0.14051 0.0
C448 C 0.18649 0.67372 0.12576 0.0
H449 H 0.13476 0.56804 0.11339 0.0
H450 H 0.17503 0.62292 0.18546 0.0
S451 S 0.17656 0.71395 0.97695 0.0
N452 N 0.15153 0.6629 0.96804 0.0
N453 N 0.19445 0.72285 0.04695 0.0
C454 C 0.18066 0.68337 0.0662 0.0
C455 C 0.15734 0.65088 0.02332 0.0
loop_
_geom_bond_atom_site_label_1
_geom_bond_atom_site_label_2
_geom_bond_distance
_geom_bond_site_symmetry_2
_ccdc_geom_bond_type
C0 O2 1.247 . S
C0 O4 1.244 1_554 S
C1 O8 1.247 . S
C1 O9 1.258 1_556 S
O2 C0 1.247 . S
O2 Zn3 2.028 1_455 S
Zn3 O2 2.028 1_655 S
Zn3 O7 2.035 . S
Zn3 O9 2.035 . S
Zn3 O10 2.028 1_655 S
O4 C0 1.244 1_556 S
O4 Zn5 2.044 . S
Zn5 O4 2.044 . S
Zn5 O6 2.028 1_455 S
Zn5 O8 2.028 1_455 S
Zn5 O11 2.044 . S
O6 Zn5 2.028 1_655 S
O6 C12 1.247 . S
O7 Zn3 2.035 . S
O7 C12 1.258 1_554 S
O8 C1 1.247 . S
O8 Zn5 2.028 1_655 S
O9 C1 1.258 1_554 S
O9 Zn3 2.035 . S
O10 Zn3 2.028 1_455 S
O10 C13 1.247 . S
O11 Zn5 2.044 . S
O11 C13 1.243 1_556 S
C12 O6 1.247 . S
C12 O7 1.258 1_556 S
C13 O10 1.247 . S
C13 O11 1.243 1_554 S
C14 O16 1.247 . S
C14 O18 1.258 . S
C15 O22 1.247 . S
C15 O23 1.258 . S
O16 C14 1.247 . S
O16 Zn17 2.028 1_545 S
Zn17 O16 2.028 1_565 S
Zn17 O21 2.035 . S
Zn17 O23 2.035 . S
Zn17 O24 2.028 1_565 S
O18 C14 1.258 . S
O18 Zn19 2.035 . S
Zn19 O18 2.035 . S
Zn19 O20 2.028 1_545 S
Zn19 O22 2.028 1_545 S
Zn19 O25 2.035 . S
O20 Zn19 2.028 1_565 S
O20 C26 1.247 . S
O21 Zn17 2.035 . S
O21 C26 1.258 . S
O22 C15 1.247 . S
O22 Zn19 2.028 1_565 S
O23 C15 1.258 . S
O23 Zn17 2.035 . S
O24 Zn17 2.028 1_545 S
O24 C27 1.247 . S
O25 Zn19 2.035 . S
O25 C27 1.258 . S
C26 O20 1.247 . S
C26 O21 1.258 . S
C27 O24 1.247 . S
C27 O25 1.258 . S
C28 O30 1.247 . S
C28 O32 1.258 1_556 S
C29 O36 1.247 . S
C29 O37 1.244 1_554 S
O30 C28 1.247 . S
O30 Zn31 2.028 . S
Zn31 O30 2.028 . S
Zn31 O35 2.044 . S
Zn31 O37 2.044 . S
Zn31 O38 2.028 . S
O32 C28 1.258 1_554 S
O32 Zn33 2.035 . S
Zn33 O32 2.035 . S
Zn33 O34 2.028 . S
Zn33 O36 2.028 . S
Zn33 O39 2.035 . S
O34 Zn33 2.028 . S
O34 C40 1.247 . S
O35 Zn31 2.044 . S
O35 C40 1.244 1_556 S
O36 C29 1.247 . S
O36 Zn33 2.028 . S
O37 C29 1.244 1_556 S
O37 Zn31 2.044 . S
O38 Zn31 2.028 . S
O38 C41 1.247 . S
O39 Zn33 2.035 . S
O39 C41 1.258 1_554 S
C40 O34 1.247 . S
C40 O35 1.244 1_554 S
C41 O38 1.247 . S
C41 O39 1.258 1_556 S
C42 O44 1.247 . S
C42 O46 1.258 . S
C43 O50 1.247 . S
C43 O51 1.258 . S
O44 C42 1.247 . S
O44 Zn45 2.028 . S
Zn45 O44 2.028 . S
Zn45 O49 2.035 1_455 S
Zn45 O51 2.035 1_455 S
Zn45 O52 2.028 . S
O46 C42 1.258 . S
O46 Zn47 2.035 1_455 S
Zn47 O46 2.035 1_655 S
Zn47 O48 2.028 . S
Zn47 O50 2.028 . S
Zn47 O53 2.035 1_655 S
O48 Zn47 2.028 . S
O48 C54 1.247 . S
O49 Zn45 2.035 1_655 S
O49 C54 1.258 . S
O50 C43 1.247 . S
O50 Zn47 2.028 . S
O51 C43 1.258 . S
O51 Zn45 2.035 1_655 S
O52 Zn45 2.028 . S
O52 C55 1.247 . S
O53 Zn47 2.035 1_455 S
O53 C55 1.258 . S
C54 O48 1.247 . S
C54 O49 1.258 . S
C55 O52 1.247 . S
C55 O53 1.258 . S
C56 O58 1.247 . S
C56 O60 1.258 . S
C57 O64 1.247 . S
C57 O65 1.258 1_556 S
O58 C56 1.247 . S
O58 Zn59 2.028 1_565 S
Zn59 O58 2.028 1_545 S
Zn59 O63 2.035 . S
Zn59 O65 2.035 . S
Zn59 O66 2.028 1_545 S
O60 C56 1.258 . S
O60 Zn61 2.035 1_554 S
Zn61 O60 2.035 1_556 S
Zn61 O62 2.028 1_565 S
Zn61 O64 2.028 1_565 S
Zn61 O67 2.035 1_556 S
O62 Zn61 2.028 1_545 S
O62 C68 1.247 . S
O63 Zn59 2.035 . S
O63 C68 1.258 1_554 S
O64 C57 1.247 . S
O64 Zn61 2.028 1_545 S
O65 C57 1.258 1_554 S
O65 Zn59 2.035 . S
O66 Zn59 2.028 1_565 S
O66 C69 1.247 . S
O67 Zn61 2.035 1_554 S
O67 C69 1.258 . S
C68 O62 1.247 . S
C68 O63 1.258 1_556 S
C69 O66 1.247 . S
C69 O67 1.258 . S
C70 O72 1.247 . S
C70 O74 1.258 . S
C71 O78 1.247 . S
C71 O79 1.258 . S
O72 C70 1.247 . S
O72 Zn73 2.028 . S
Zn73 O72 2.028 . S
Zn73 O77 2.035 . S
Zn73 O79 2.035 . S
Zn73 O80 2.028 . S
O74 C70 1.258 . S
O74 Zn75 2.035 . S
Zn75 O74 2.035 . S
Zn75 O76 2.028 . S
Zn75 O78 2.028 . S
Zn75 O81 2.035 . S
O76 Zn75 2.028 . S
O76 C82 1.247 . S
O77 Zn73 2.035 . S
O77 C82 1.258 . S
O78 C71 1.247 . S
O78 Zn75 2.028 . S
O79 C71 1.258 . S
O79 Zn73 2.035 . S
O80 Zn73 2.028 . S
O80 C83 1.247 . S
O81 Zn75 2.035 . S
O81 C83 1.258 . S
C82 O76 1.247 . S
C82 O77 1.258 . S
C83 O80 1.247 . S
C83 O81 1.258 . S
H84 C90 0.930 . S
H85 C93 0.931 . S
H86 C95 0.931 . S
H87 C97 0.930 . S
H88 C99 0.930 . S
H89 C101 0.931 . S
C90 H84 0.930 . S
C90 C91 1.380 . S
C90 C92 1.394 . S
C91 C90 1.380 . S
C91 C95 1.382 . S
C92 C90 1.394 . S
C92 C93 1.400 . S
C93 H85 0.931 . S
C93 C92 1.400 . S
C93 C94 1.375 . S
C94 C93 1.375 . S
C94 C95 1.415 . S
C94 C96 1.501 . S
C95 H86 0.931 . S
C95 C91 1.382 . S
C95 C94 1.415 . S
C96 C94 1.501 . S
C96 C97 1.384 . S
C96 C101 1.408 . S
C97 H87 0.930 . S
C97 C96 1.384 . S
C97 C98 1.389 . S
C98 C97 1.389 . S
C98 C99 1.405 . S
C99 H88 0.930 . S
C99 C98 1.405 . S
C99 C100 1.364 . S
C100 C99 1.364 . S
C100 C101 1.400 . S
C101 H89 0.931 . S
C101 C96 1.408 . S
C101 C100 1.400 . S
H102 C108 0.930 . S
H103 C111 0.931 . S
H104 C113 0.931 . S
H105 C115 0.930 . S
H106 C117 0.930 . S
H107 C119 0.931 . S
C108 H102 0.930 . S
C108 C109 1.380 . S
C108 C110 1.394 . S
C109 C108 1.380 . S
C109 C113 1.382 . S
C110 C108 1.394 . S
C110 C111 1.400 . S
C111 H103 0.931 . S
C111 C110 1.400 . S
C111 C112 1.375 . S
C112 C111 1.375 . S
C112 C113 1.415 . S
C112 C114 1.501 . S
C113 H104 0.931 . S
C113 C109 1.382 . S
C113 C112 1.415 . S
C114 C112 1.501 . S
C114 C115 1.384 . S
C114 C119 1.408 . S
C115 H105 0.930 . S
C115 C114 1.384 . S
C115 C116 1.389 . S
C116 C115 1.389 . S
C116 C117 1.405 . S
C117 H106 0.930 . S
C117 C116 1.405 . S
C117 C118 1.364 . S
C118 C117 1.364 . S
C118 C119 1.400 . S
C119 H107 0.931 . S
C119 C114 1.408 . S
C119 C118 1.400 . S
H120 C126 0.930 . S
H121 C129 0.931 . S
H122 C131 0.931 . S
H123 C133 0.930 . S
H124 C135 0.930 . S
H125 C137 0.931 . S
C126 H120 0.930 . S
C126 C127 1.380 . S
C126 C128 1.394 . S
C127 C126 1.380 . S
C127 C131 1.382 . S
C128 C126 1.394 . S
C128 C129 1.400 . S
C129 H121 0.931 . S
C129 C128 1.400 . S
C129 C130 1.375 . S
C130 C129 1.375 . S
C130 C131 1.415 . S
C130 C132 1.501 . S
C131 H122 0.931 . S
C131 C127 1.382 . S
C131 C130 1.415 . S
C132 C130 1.501 . S
C132 C133 1.384 . S
C132 C137 1.408 . S
C133 H123 0.930 . S
C133 C132 1.384 . S
C133 C134 1.389 . S
C134 C133 1.389 . S
C134 C135 1.405 . S
C135 H124 0.930 . S
C135 C134 1.405 . S
C135 C136 1.364 . S
C136 C135 1.364 . S
C136 C137 1.400 . S
C137 H125 0.931 . S
C137 C132 1.408 . S
C137 C136 1.400 . S
H138 C144 0.930 . S
H139 C147 0.931 . S
H140 C149 0.931 . S
H141 C151 0.930 . S
H142 C153 0.930 . S
H143 C155 0.931 . S
C144 H138 0.930 . S
C144 C145 1.380 . S
C144 C146 1.394 . S
C145 C144 1.380 . S
C145 C149 1.382 . S
C146 C144 1.394 . S
C146 C147 1.400 . S
C147 H139 0.931 . S
C147 C146 1.400 . S
C147 C148 1.375 . S
C148 C147 1.375 . S
C148 C149 1.415 . S
C148 C150 1.501 . S
C149 H140 0.931 . S
C149 C145 1.382 . S
C149 C148 1.415 . S
C150 C148 1.501 . S
C150 C151 1.384 . S
C150 C155 1.408 . S
C151 H141 0.930 . S
C151 C150 1.384 . S
C151 C152 1.389 . S
C152 C151 1.389 . S
C152 C153 1.405 . S
C153 H142 0.930 . S
C153 C152 1.405 . S
C153 C154 1.364 . S
C154 C153 1.364 . S
C154 C155 1.400 . S
C155 H143 0.931 . S
C155 C150 1.408 . S
C155 C154 1.400 . S
H156 C162 0.930 . S
H157 C165 0.931 . S
H158 C167 0.931 . S
H159 C169 0.930 . S
H160 C171 0.930 . S
H161 C173 0.931 . S
C162 H156 0.930 . S
C162 C163 1.380 . S
C162 C164 1.394 . S
C163 C162 1.380 . S
C163 C167 1.382 . S
C164 C162 1.394 . S
C164 C165 1.400 . S
C165 H157 0.931 . S
C165 C164 1.400 . S
C165 C166 1.375 . S
C166 C165 1.375 . S
C166 C167 1.415 . S
C166 C168 1.501 . S
C167 H158 0.931 . S
C167 C163 1.382 . S
C167 C166 1.415 . S
C168 C166 1.501 . S
C168 C169 1.384 . S
C168 C173 1.408 . S
C169 H159 0.930 . S
C169 C168 1.384 . S
C169 C170 1.389 . S
C170 C169 1.389 . S
C170 C171 1.405 . S
C171 H160 0.930 . S
C171 C170 1.405 . S
C171 C172 1.364 . S
C172 C171 1.364 . S
C172 C173 1.400 . S
C173 H161 0.931 . S
C173 C168 1.408 . S
C173 C172 1.400 . S
H174 C180 0.930 . S
H175 C183 0.931 . S
H176 C185 0.931 . S
H177 C187 0.930 . S
H178 C189 0.930 . S
H179 C191 0.931 . S
C180 H174 0.930 . S
C180 C181 1.380 . S
C180 C182 1.394 . S
C181 C180 1.380 . S
C181 C185 1.382 . S
C182 C180 1.394 . S
C182 C183 1.400 . S
C183 H175 0.931 . S
C183 C182 1.400 . S
C183 C184 1.375 . S
C184 C183 1.375 . S
C184 C185 1.415 . S
C184 C186 1.501 . S
C185 H176 0.931 . S
C185 C181 1.382 . S
C185 C184 1.415 . S
C186 C184 1.501 . S
C186 C187 1.384 . S
C186 C191 1.408 . S
C187 H177 0.930 . S
C187 C186 1.384 . S
C187 C188 1.389 . S
C188 C187 1.389 . S
C188 C189 1.405 . S
C189 H178 0.930 . S
C189 C188 1.405 . S
C189 C190 1.364 . S
C190 C189 1.364 . S
C190 C191 1.400 . S
C191 H179 0.931 . S
C191 C186 1.408 . S
C191 C190 1.400 . S
C192 C193 1.369 . S
C192 C194 1.419 . S
C192 H196 0.930 . S
C193 C192 1.369 . S
C193 C202 1.429 . S
C194 C192 1.419 . S
C194 C195 1.363 . S
C194 H197 0.929 . S
C195 C194 1.363 . S
C195 C201 1.428 . S
H196 C192 0.930 . S
H197 C194 0.929 . S
S198 N199 1.613 . S
S198 N200 1.610 . S
N199 S198 1.613 . S
N199 C202 1.350 . S
N200 S198 1.610 . S
N200 C201 1.351 . S
C201 C195 1.428 . S
C201 N200 1.351 . S
C201 C202 1.434 . S
C202 C193 1.429 . S
C202 N199 1.350 . S
C202 C201 1.434 . S
C203 C204 1.369 . S
C203 C205 1.419 . S
C203 H207 0.930 . S
C204 C203 1.369 . S
C204 C213 1.429 . S
C205 C203 1.419 . S
C205 C206 1.363 . S
C205 H208 0.929 . S
C206 C205 1.363 . S
C206 C212 1.428 . S
H207 C203 0.930 . S
H208 C205 0.929 . S
S209 N210 1.613 . S
S209 N211 1.610 . S
N210 S209 1.613 . S
N210 C213 1.350 . S
N211 S209 1.610 . S
N211 C212 1.351 . S
C212 C206 1.428 . S
C212 N211 1.351 . S
C212 C213 1.434 . S
C213 C204 1.429 . S
C213 N210 1.350 . S
C213 C212 1.434 . S
C214 C215 1.369 . S
C214 C216 1.419 . S
C214 H218 0.930 . S
C215 C214 1.369 . S
C215 C224 1.429 . S
C216 C214 1.419 . S
C216 C217 1.363 . S
C216 H219 0.929 . S
C217 C216 1.363 . S
C217 C223 1.428 . S
H218 C214 0.930 . S
H219 C216 0.929 . S
S220 N221 1.613 1_556 S
S220 N222 1.610 1_556 S
N221 S220 1.613 1_554 S
N221 C224 1.350 . S
N222 S220 1.610 1_554 S
N222 C223 1.351 . S
C223 C217 1.428 . S
C223 N222 1.351 . S
C223 C224 1.434 . S
C224 C215 1.429 . S
C224 N221 1.350 . S
C224 C223 1.434 . S
C225 C226 1.369 . S
C225 C227 1.419 . S
C225 H229 0.930 . S
C226 C225 1.369 . S
C226 C235 1.429 . S
C227 C225 1.419 . S
C227 C228 1.363 . S
C227 H230 0.929 . S
C228 C227 1.363 . S
C228 C234 1.428 . S
H229 C225 0.930 . S
H230 C227 0.929 . S
S231 N232 1.613 . S
S231 N233 1.610 . S
N232 S231 1.613 . S
N232 C235 1.350 . S
N233 S231 1.610 . S
N233 C234 1.351 . S
C234 C228 1.428 . S
C234 N233 1.351 . S
C234 C235 1.434 . S
C235 C226 1.429 . S
C235 N232 1.350 . S
C235 C234 1.434 . S
C236 C237 1.369 . S
C236 C238 1.419 . S
C236 H240 0.930 . S
C237 C236 1.369 . S
C237 C246 1.429 . S
C238 C236 1.419 . S
C238 C239 1.363 . S
C238 H241 0.929 . S
C239 C238 1.363 . S
C239 C245 1.428 . S
H240 C236 0.930 . S
H241 C238 0.929 . S
S242 N243 1.613 . S
S242 N244 1.610 . S
N243 S242 1.613 . S
N243 C246 1.350 . S
N244 S242 1.610 . S
N244 C245 1.351 . S
C245 C239 1.428 . S
C245 N244 1.351 . S
C245 C246 1.434 . S
C246 C237 1.429 . S
C246 N243 1.350 . S
C246 C245 1.434 . S
C247 C248 1.369 . S
C247 C249 1.419 . S
C247 H251 0.930 . S
C248 C247 1.369 . S
C248 C257 1.429 . S
C249 C247 1.419 . S
C249 C250 1.363 . S
C249 H252 0.929 . S
C250 C249 1.363 . S
C250 C256 1.428 . S
H251 C247 0.930 . S
H252 C249 0.929 . S
S253 N254 1.613 . S
S253 N255 1.610 . S
N254 S253 1.613 . S
N254 C257 1.350 . S
N255 S253 1.610 . S
N255 C256 1.351 . S
C256 C250 1.428 . S
C256 N255 1.351 . S
C256 C257 1.434 . S
C257 C248 1.429 . S
C257 N254 1.350 . S
C257 C256 1.434 . S
C258 C259 1.369 . S
C258 C260 1.419 . S
C258 H262 0.930 . S
C259 C258 1.369 . S
C259 C268 1.429 . S
C260 C258 1.419 . S
C260 C261 1.363 . S
C260 H263 0.929 . S
C261 C260 1.363 . S
C261 C267 1.428 . S
H262 C258 0.930 . S
H263 C260 0.929 . S
S264 N265 1.613 . S
S264 N266 1.610 . S
N265 S264 1.613 . S
N265 C268 1.350 . S
N266 S264 1.610 . S
N266 C267 1.351 . S
C267 C261 1.428 . S
C267 N266 1.351 . S
C267 C268 1.434 . S
C268 C259 1.429 . S
C268 N265 1.350 . S
C268 C267 1.434 . S
C269 C270 1.369 . S
C269 C271 1.419 . S
C269 H273 0.930 . S
C270 C269 1.369 . S
C270 C279 1.429 . S
C271 C269 1.419 . S
C271 C272 1.363 . S
C271 H274 0.929 . S
C272 C271 1.363 . S
C272 C278 1.428 . S
H273 C269 0.930 . S
H274 C271 0.929 . S
S275 N276 1.613 1_554 S
S275 N277 1.610 1_554 S
N276 S275 1.613 1_556 S
N276 C279 1.350 . S
N277 S275 1.610 1_556 S
N277 C278 1.351 . S
C278 C272 1.428 . S
C278 N277 1.351 . S
C278 C279 1.434 . S
C279 C270 1.429 . S
C279 N276 1.350 . S
C279 C278 1.434 . S
C280 C281 1.369 . S
C280 C282 1.419 . S
C280 H284 0.930 . S
C281 C280 1.369 . S
C281 C290 1.429 . S
C282 C280 1.419 . S
C282 C283 1.363 . S
C282 H285 0.929 . S
C283 C282 1.363 . S
C283 C289 1.428 . S
H284 C280 0.930 . S
H285 C282 0.929 . S
S286 N287 1.613 . S
S286 N288 1.610 . S
N287 S286 1.613 . S
N287 C290 1.350 . S
N288 S286 1.610 . S
N288 C289 1.351 . S
C289 C283 1.428 . S
C289 N288 1.351 . S
C289 C290 1.434 . S
C290 C281 1.429 . S
C290 N287 1.350 . S
C290 C289 1.434 . S
C291 C292 1.369 . S
C291 C293 1.419 . S
C291 H295 0.930 . S
C292 C291 1.369 . S
C292 C301 1.429 . S
C293 C291 1.419 . S
C293 C294 1.363 . S
C293 H296 0.929 . S
C294 C293 1.363 . S
C294 C300 1.428 . S
H295 C291 0.930 . S
H296 C293 0.929 . S
S297 N298 1.613 . S
S297 N299 1.610 . S
N298 S297 1.613 . S
N298 C301 1.350 . S
N299 S297 1.610 . S
N299 C300 1.351 . S
C300 C294 1.428 . S
C300 N299 1.351 . S
C300 C301 1.434 . S
C301 C292 1.429 . S
C301 N298 1.350 . S
C301 C300 1.434 . S
C302 C303 1.369 . S
C302 C304 1.419 . S
C302 H306 0.930 . S
C303 C302 1.369 . S
C303 C312 1.429 . S
C304 C302 1.419 . S
C304 C305 1.363 . S
C304 H307 0.929 . S
C305 C304 1.363 . S
C305 C311 1.428 . S
H306 C302 0.930 . S
H307 C304 0.929 . S
S308 N309 1.613 . S
S308 N310 1.610 . S
N309 S308 1.613 . S
N309 C312 1.350 . S
N310 S308 1.610 . S
N310 C311 1.351 . S
C311 C305 1.428 . S
C311 N310 1.351 . S
C311 C312 1.434 . S
C312 C303 1.429 . S
C312 N309 1.350 . S
C312 C311 1.434 . S
C313 C314 1.369 . S
C313 C315 1.419 . S
C313 H317 0.930 . S
C314 C313 1.369 . S
C314 C323 1.429 . S
C315 C313 1.419 . S
C315 C316 1.363 . S
C315 H318 0.929 . S
C316 C315 1.363 . S
C316 C322 1.428 . S
H317 C313 0.930 . S
H318 C315 0.929 . S
S319 N320 1.613 . S
S319 N321 1.610 . S
N320 S319 1.613 . S
N320 C323 1.350 . S
N321 S319 1.610 . S
N321 C322 1.351 . S
C322 C316 1.428 . S
C322 N321 1.351 . S
C322 C323 1.434 . S
C323 C314 1.429 . S
C323 N320 1.350 . S
C323 C322 1.434 . S
C324 C325 1.369 . S
C324 C326 1.419 . S
C324 H328 0.930 . S
C325 C324 1.369 . S
C325 C334 1.429 . S
C326 C324 1.419 . S
C326 C327 1.363 . S
C326 H329 0.929 . S
C327 C326 1.363 . S
C327 C333 1.428 . S
H328 C324 0.930 . S
H329 C326 0.929 . S
S330 N331 1.613 . S
S330 N332 1.610 . S
N331 S330 1.613 . S
N331 C334 1.350 . S
N332 S330 1.610 . S
N332 C333 1.351 . S
C333 C327 1.428 . S
C333 N332 1.351 . S
C333 C334 1.434 . S
C334 C325 1.429 . S
C334 N331 1.350 . S
C334 C333 1.434 . S
C335 C336 1.369 . S
C335 C337 1.419 . S
C335 H339 0.930 . S
C336 C335 1.369 . S
C336 C345 1.429 . S
C337 C335 1.419 . S
C337 C338 1.363 . S
C337 H340 0.929 . S
C338 C337 1.363 . S
C338 C344 1.428 . S
H339 C335 0.930 . S
H340 C337 0.929 . S
S341 N342 1.613 . S
S341 N343 1.610 . S
N342 S341 1.613 . S
N342 C345 1.350 . S
N343 S341 1.610 . S
N343 C344 1.351 . S
C344 C338 1.428 . S
C344 N343 1.351 . S
C344 C345 1.434 . S
C345 C336 1.429 . S
C345 N342 1.350 . S
C345 C344 1.434 . S
C346 C347 1.369 . S
C346 C348 1.419 . S
C346 H350 0.930 . S
C347 C346 1.369 . S
C347 C356 1.429 . S
C348 C346 1.419 . S
C348 C349 1.363 . S
C348 H351 0.929 . S
C349 C348 1.363 . S
C349 C355 1.428 . S
H350 C346 0.930 . S
H351 C348 0.929 . S
S352 N353 1.613 . S
S352 N354 1.610 . S
N353 S352 1.613 . S
N353 C356 1.350 . S
N354 S352 1.610 . S
N354 C355 1.351 . S
C355 C349 1.428 . S
C355 N354 1.351 . S
C355 C356 1.434 . S
C356 C347 1.429 . S
C356 N353 1.350 . S
C356 C355 1.434 . S
C357 C358 1.369 . S
C357 C359 1.419 . S
C357 H361 0.930 . S
C358 C357 1.369 . S
C358 C367 1.429 . S
C359 C357 1.419 . S
C359 C360 1.363 . S
C359 H362 0.929 . S
C360 C359 1.363 . S
C360 C366 1.428 . S
H361 C357 0.930 . S
H362 C359 0.929 . S
S363 N364 1.613 . S
S363 N365 1.610 . S
N364 S363 1.613 . S
N364 C367 1.350 . S
N365 S363 1.610 . S
N365 C366 1.351 . S
C366 C360 1.428 . S
C366 N365 1.351 . S
C366 C367 1.434 . S
C367 C358 1.429 . S
C367 N364 1.350 . S
C367 C366 1.434 . S
C368 C369 1.369 . S
C368 C370 1.419 . S
C368 H372 0.930 . S
C369 C368 1.369 . S
C369 C378 1.429 . S
C370 C368 1.419 . S
C370 C371 1.363 . S
C370 H373 0.929 . S
C371 C370 1.363 . S
C371 C377 1.428 . S
H372 C368 0.930 . S
H373 C370 0.929 . S
S374 N375 1.613 . S
S374 N376 1.610 . S
N375 S374 1.613 . S
N375 C378 1.350 . S
N376 S374 1.610 . S
N376 C377 1.351 . S
C377 C371 1.428 . S
C377 N376 1.351 . S
C377 C378 1.434 . S
C378 C369 1.429 . S
C378 N375 1.350 . S
C378 C377 1.434 . S
C379 C380 1.369 . S
C379 C381 1.419 . S
C379 H383 0.930 . S
C380 C379 1.369 . S
C380 C389 1.429 . S
C381 C379 1.419 . S
C381 C382 1.363 . S
C381 H384 0.929 . S
C382 C381 1.363 . S
C382 C388 1.428 . S
H383 C379 0.930 . S
H384 C381 0.929 . S
S385 N386 1.613 . S
S385 N387 1.610 . S
N386 S385 1.613 . S
N386 C389 1.350 . S
N387 S385 1.610 . S
N387 C388 1.351 . S
C388 C382 1.428 . S
C388 N387 1.351 . S
C388 C389 1.434 . S
C389 C380 1.429 . S
C389 N386 1.350 . S
C389 C388 1.434 . S
C390 C391 1.369 . S
C390 C392 1.419 . S
C390 H394 0.930 . S
C391 C390 1.369 . S
C391 C400 1.429 . S
C392 C390 1.419 . S
C392 C393 1.363 . S
C392 H395 0.929 . S
C393 C392 1.363 . S
C393 C399 1.428 . S
H394 C390 0.930 . S
H395 C392 0.929 . S
S396 N397 1.613 . S
S396 N398 1.610 . S
N397 S396 1.613 . S
N397 C400 1.350 . S
N398 S396 1.610 . S
N398 C399 1.351 . S
C399 C393 1.428 . S
C399 N398 1.351 . S
C399 C400 1.434 . S
C400 C391 1.429 . S
C400 N397 1.350 . S
C400 C399 1.434 . S
C401 C402 1.369 . S
C401 C403 1.419 . S
C401 H405 0.930 . S
C402 C401 1.369 . S
C402 C411 1.429 . S
C403 C401 1.419 . S
C403 C404 1.363 . S
C403 H406 0.929 . S
C404 C403 1.363 . S
C404 C410 1.428 . S
H405 C401 0.930 . S
H406 C403 0.929 . S
S407 N408 1.613 . S
S407 N409 1.610 . S
N408 S407 1.613 . S
N408 C411 1.350 . S
N409 S407 1.610 . S
N409 C410 1.351 . S
C410 C404 1.428 . S
C410 N409 1.351 . S
C410 C411 1.434 . S
C411 C402 1.429 . S
C411 N408 1.350 . S
C411 C410 1.434 . S
C412 C413 1.369 . S
C412 C414 1.419 . S
C412 H416 0.930 . S
C413 C412 1.369 . S
C413 C422 1.429 . S
C414 C412 1.419 . S
C414 C415 1.363 . S
C414 H417 0.929 . S
C415 C414 1.363 . S
C415 C421 1.428 . S
H416 C412 0.930 . S
H417 C414 0.929 . S
S418 N419 1.613 . S
S418 N420 1.610 . S
N419 S418 1.613 . S
N419 C422 1.350 . S
N420 S418 1.610 . S
N420 C421 1.351 . S
C421 C415 1.428 . S
C421 N420 1.351 . S
C421 C422 1.434 . S
C422 C413 1.429 . S
C422 N419 1.350 . S
C422 C421 1.434 . S
C423 C424 1.369 . S
C423 C425 1.419 . S
C423 H427 0.930 . S
C424 C423 1.369 . S
C424 C433 1.429 . S
C425 C423 1.419 . S
C425 C426 1.363 . S
C425 H428 0.929 . S
C426 C425 1.363 . S
C426 C432 1.428 . S
H427 C423 0.930 . S
H428 C425 0.929 . S
S429 N430 1.613 . S
S429 N431 1.610 . S
N430 S429 1.613 . S
N430 C433 1.350 . S
N431 S429 1.610 . S
N431 C432 1.351 . S
C432 C426 1.428 . S
C432 N431 1.351 . S
C432 C433 1.434 . S
C433 C424 1.429 . S
C433 N430 1.350 . S
C433 C432 1.434 . S
C434 C435 1.369 . S
C434 C436 1.419 . S
C434 H438 0.930 . S
C435 C434 1.369 . S
C435 C444 1.429 . S
C436 C434 1.419 . S
C436 C437 1.363 . S
C436 H439 0.929 . S
C437 C436 1.363 . S
C437 C443 1.428 . S
H438 C434 0.930 . S
H439 C436 0.929 . S
S440 N441 1.613 . S
S440 N442 1.610 . S
N441 S440 1.613 . S
N441 C444 1.350 . S
N442 S440 1.610 . S
N442 C443 1.351 . S
C443 C437 1.428 . S
C443 N442 1.351 . S
C443 C444 1.434 . S
C444 C435 1.429 . S
C444 N441 1.350 . S
C444 C443 1.434 . S
C445 C446 1.369 . S
C445 C447 1.419 . S
C445 H449 0.930 . S
C446 C445 1.369 . S
C446 C455 1.429 . S
C447 C445 1.419 . S
C447 C448 1.363 . S
C447 H450 0.929 . S
C448 C447 1.363 . S
C448 C454 1.428 . S
H449 C445 0.930 . S
H450 C447 0.929 . S
S451 N452 1.613 . S
S451 N453 1.610 1_556 S
N452 S451 1.613 . S
N452 C455 1.350 1_556 S
N453 S451 1.610 1_554 S
N453 C454 1.351 . S
C454 C448 1.428 . S
C454 N453 1.351 . S
C454 C455 1.434 . S
C455 C446 1.429 . S
C455 N452 1.350 1_554 S
C455 C454 1.434 . S
C193 C13 1.587 . S
C195 C98 1.498 . S
C204 C27 1.593 . S
C206 C109 1.516 . S
C217 C128 1.510 . S
C215 C29 1.581 . S
C228 C145 1.520 . S
C226 C54 1.589 . S
C239 C172 1.517 . S
C237 C69 1.582 . S
C250 C181 1.522 . S
C248 C83 1.591 . S
C259 C15 1.588 . S
C261 C134 1.501 . S
C270 C41 1.588 . S
C272 C154 1.528 . S
C283 C163 1.514 . S
C281 C42 1.587 . S
C294 C190 1.523 . S
C292 C57 1.590 . S
C303 C71 1.586 . S
C305 C92 1.503 . S
C316 C118 1.521 . S
C314 C1 1.586 . S
C327 C146 1.552 . S
C325 C12 1.655 . S
C336 C26 1.663 . S
C338 C170 1.575 . S
C349 C182 1.550 . S
C347 C28 1.653 . S
C358 C55 1.663 . S
C360 C100 1.533 . S
C369 C68 1.652 . S
C371 C110 1.562 . S
C380 C82 1.662 . S
C382 C127 1.540 . S
C391 C14 1.659 . S
C393 C188 1.561 . S
C404 C91 1.549 . S
C402 C40 1.658 . S
C413 C43 1.660 . S
C415 C116 1.564 . S
C424 C56 1.659 . S
C426 C136 1.531 . S
C435 C70 1.654 . S
C437 C152 1.565 . S
C446 C0 1.658 . S
C448 C164 1.563 . S
