# Generated by pormake.
# Topology zzz, (3,6)-cn, num edge types: 1
# Building blocks:
#     Node 0, Type 0, BuildingBlock: QEWDON_clean_linker_0, # of connection points: 3
#     Node 1, Type 0, BuildingBlock: QEWDON_clean_linker_0, # of connection points: 3
#     Node 2, Type 0, BuildingBlock: QEWDON_clean_linker_0, # of connection points: 3
#     Node 3, Type 0, BuildingBlock: QEWDON_clean_linker_0, # of connection points: 3
#     Node 4, Type 0, BuildingBlock: QEWDON_clean_linker_0, # of connection points: 3
#     Node 5, Type 0, BuildingBlock: QEWDON_clean_linker_0, # of connection points: 3
#     Node 6, Type 0, BuildingBlock: QEWDON_clean_linker_0, # of connection points: 3
#     Node 7, Type 0, BuildingBlock: QEWDON_clean_linker_0, # of connection points: 3
#     Node 8, Type 1, BuildingBlock: CUWYAW_clean_sbu_0, # of connection points: 6
#     Node 9, Type 1, BuildingBlock: CUWYAW_clean_sbu_0, # of connection points: 6
#     Node 10, Type 1, BuildingBlock: CUWYAW_clean_sbu_0, # of connection points: 6
#     Node 11, Type 1, BuildingBlock: CUWYAW_clean_sbu_0, # of connection points: 6
#     Edge 12, Type (0, 1), BuildingBlock: KIFKEQ_clean_linker_1, # of connection points: 2
#     Edge 13, Type (0, 1), BuildingBlock: KIFKEQ_clean_linker_1, # of connection points: 2
#     Edge 14, Type (0, 1), BuildingBlock: KIFKEQ_clean_linker_1, # of connection points: 2
#     Edge 15, Type (0, 1), BuildingBlock: KIFKEQ_clean_linker_1, # of connection points: 2
#     Edge 16, Type (0, 1), BuildingBlock: KIFKEQ_clean_linker_1, # of connection points: 2
#     Edge 17, Type (0, 1), BuildingBlock: KIFKEQ_clean_linker_1, # of connection points: 2
#     Edge 18, Type (0, 1), BuildingBlock: KIFKEQ_clean_linker_1, # of connection points: 2
#     Edge 19, Type (0, 1), BuildingBlock: KIFKEQ_clean_linker_1, # of connection points: 2
#     Edge 20, Type (0, 1), BuildingBlock: KIFKEQ_clean_linker_1, # of connection points: 2
#     Edge 21, Type (0, 1), BuildingBlock: KIFKEQ_clean_linker_1, # of connection points: 2
#     Edge 22, Type (0, 1), BuildingBlock: KIFKEQ_clean_linker_1, # of connection points: 2
#     Edge 23, Type (0, 1), BuildingBlock: KIFKEQ_clean_linker_1, # of connection points: 2
#     Edge 24, Type (0, 1), BuildingBlock: KIFKEQ_clean_linker_1, # of connection points: 2
#     Edge 25, Type (0, 1), BuildingBlock: KIFKEQ_clean_linker_1, # of connection points: 2
#     Edge 26, Type (0, 1), BuildingBlock: KIFKEQ_clean_linker_1, # of connection points: 2
#     Edge 27, Type (0, 1), BuildingBlock: KIFKEQ_clean_linker_1, # of connection points: 2
#     Edge 28, Type (0, 1), BuildingBlock: KIFKEQ_clean_linker_1, # of connection points: 2
#     Edge 29, Type (0, 1), BuildingBlock: KIFKEQ_clean_linker_1, # of connection points: 2
#     Edge 30, Type (0, 1), BuildingBlock: KIFKEQ_clean_linker_1, # of connection points: 2
#     Edge 31, Type (0, 1), BuildingBlock: KIFKEQ_clean_linker_1, # of connection points: 2
#     Edge 32, Type (0, 1), BuildingBlock: KIFKEQ_clean_linker_1, # of connection points: 2
#     Edge 33, Type (0, 1), BuildingBlock: KIFKEQ_clean_linker_1, # of connection points: 2
#     Edge 34, Type (0, 1), BuildingBlock: KIFKEQ_clean_linker_1, # of connection points: 2
#     Edge 35, Type (0, 1), BuildingBlock: KIFKEQ_clean_linker_1, # of connection points: 2
# Relax obj value: 0.163
# Max RMSD: 0.147
# Mean RMSD: 0.096
data_MOF--net-zzz--node1-CUWYAW_clean_sbu_0--node2-QEWDON_clean_linker_0--edge1-KIFKEQ_clean_linker_1
_symmetry_space_group_name_H-M    P1
_symmetry_Int_Tables_number       1
_symmetry_cell_setting            triclinic
loop_
_symmetry_equiv_pos_as_xyz
'x, y, z'
_cell_length_a     55.892206
_cell_length_b     55.910477
_cell_length_c     13.823717
_cell_angle_alpha  89.738998
_cell_angle_beta   89.9563
_cell_angle_gamma 90.128804
loop_
_atom_site_label
_atom_site_type_symbol
_atom_site_fract_x
_atom_site_fract_y
_atom_site_fract_z
_atom_type_partial_charge
H0 H 0.7588 0.49021 0.24554 0.0
C1 C 0.77343 0.49705 0.28853 0.0
C2 C 0.7952 0.48481 0.28552 0.0
C3 C 0.77061 0.51764 0.34602 0.0
H4 H 0.83135 0.48347 0.33937 0.0
C5 C 0.81423 0.49253 0.34339 0.0
C6 C 0.81228 0.51276 0.40158 0.0
C7 C 0.7906 0.52569 0.40137 0.0
C8 C 0.74656 0.52971 0.35071 0.0
H9 H 0.78944 0.54172 0.44461 0.0
C10 C 0.7297 0.52812 0.27369 0.0
C11 C 0.7061 0.53679 0.28426 0.0
C12 C 0.73946 0.54143 0.43594 0.0
H13 H 0.75128 0.5427 0.4976 0.0
C14 C 0.71652 0.55093 0.44491 0.0
H15 H 0.73454 0.51965 0.20628 0.0
C16 C 0.69992 0.54845 0.37044 0.0
H17 H 0.68214 0.55571 0.38036 0.0
H18 H 0.71139 0.55982 0.51112 0.0
H19 H 0.05835 0.75587 0.22963 0.0
C20 C 0.05059 0.76985 0.27337 0.0
C21 C 0.06164 0.79231 0.27284 0.0
C22 C 0.03025 0.76549 0.33179 0.0
H23 H 0.06124 0.82811 0.32903 0.0
C24 C 0.05274 0.81062 0.33093 0.0
C25 C 0.03246 0.80725 0.38792 0.0
C26 C 1.02087 0.78484 0.38707 0.0
C27 C 1.01994 0.74061 0.3394 0.0
H28 H 1.00486 0.78262 0.4302 0.0
C29 C 1.0226 0.72342 0.2644 0.0
C30 C 1.01498 0.69945 0.27755 0.0
C31 C 1.00868 0.73326 0.42584 0.0
H32 H 1.00684 0.74524 0.48656 0.0
C33 C 1.0003 0.70994 0.43738 0.0
H34 H 0.03096 0.72836 0.19659 0.0
C35 C 1.0035 0.69317 0.36446 0.0
H36 H 0.99693 0.67515 0.37625 0.0
H37 H 0.99166 0.7047 0.50431 0.0
H38 H 0.78772 0.05509 0.22514 0.0
C39 C 0.77379 0.04747 0.27016 0.0
C40 C 0.75198 0.05959 0.27627 0.0
C41 C 0.77764 0.02626 0.32388 0.0
H42 H 0.7168 0.06012 0.33941 0.0
C43 C 0.73383 0.05082 0.33632 0.0
C44 C 0.73666 0.02969 0.38871 0.0
C45 C 0.7584 1.01709 0.38118 0.0
C46 C 0.80206 1.01487 0.3251 0.0
H47 H 0.76025 1.00047 0.42086 0.0
C48 C 0.81856 1.01753 0.24712 0.0
C49 C 0.84234 1.00909 0.25515 0.0
C50 C 0.80981 1.00269 0.4088 0.0
H51 H 0.79835 1.00075 0.47144 0.0
C52 C 0.83292 0.99355 0.4152 0.0
H53 H 0.81329 0.02656 0.18115 0.0
C54 C 0.84909 0.99685 0.33967 0.0
H55 H 0.86702 0.98978 0.34747 0.0
H56 H 0.83851 0.98426 0.48021 0.0
H57 H 0.49144 0.78564 0.23239 0.0
C58 C 0.49904 0.77163 0.27688 0.0
C59 C 0.48745 0.74944 0.27915 0.0
C60 C 0.51969 0.77569 0.33357 0.0
H61 H 0.48721 0.71383 0.33864 0.0
C62 C 0.49612 0.73112 0.33839 0.0
C63 C 0.51668 0.73419 0.39378 0.0
C64 C 0.52881 0.7563 0.38996 0.0
C65 C 0.53055 0.80037 0.33847 0.0
H66 H 0.54504 0.75828 0.43183 0.0
C67 C 0.5279 0.81745 0.26245 0.0
C68 C 0.53595 0.84131 0.27349 0.0
C69 C 0.54231 0.80768 0.42354 0.0
H70 H 0.5442 0.79581 0.48498 0.0
C71 C 0.55113 0.83088 0.43286 0.0
H72 H 0.51918 0.81255 0.19556 0.0
C73 C 0.54788 0.84757 0.35909 0.0
H74 H 0.55474 0.86552 0.36918 0.0
H75 H 0.56014 0.8361 0.49878 0.0
H76 H 0.29445 0.54994 0.25271 0.0
C77 C 0.28075 0.54346 0.20421 0.0
C78 C 0.25828 0.55423 0.20833 0.0
C79 C 0.28549 0.52519 0.13674 0.0
H80 H 0.22282 0.55585 0.14884 0.0
C81 C 0.24025 0.54738 0.14436 0.0
C82 C 0.24396 0.52924 0.07722 0.0
C83 C 0.26645 0.51776 0.07451 0.0
C84 C 0.31051 0.51527 0.12811 0.0
H85 H 0.26896 0.50336 0.02355 0.0
C86 C 0.32726 0.51616 0.20597 0.0
C87 C 0.35147 0.50945 0.19271 0.0
C88 C 0.31854 0.50644 0.03855 0.0
H89 H 0.30696 0.50599 0.97599 0.0
C90 C 0.34207 0.49883 0.02651 0.0
H91 H 0.32182 0.52253 0.27635 0.0
C92 C 0.3584 0.50043 0.10227 0.0
H93 H 0.37659 0.49455 0.08984 0.0
H94 H 0.34785 0.49208 0.95706 0.0
H95 H 0.05346 0.28178 0.24879 0.0
C96 C 0.0502 0.27032 0.18737 0.0
C97 C 0.06337 0.24912 0.1809 0.0
C98 C 0.03211 0.27577 0.11957 0.0
H99 H 0.06739 0.21564 0.10628 0.0
C100 C 0.05825 0.23276 0.1074 0.0
C101 C 0.03959 0.23671 0.04257 0.0
C102 C 0.02681 0.2584 0.04719 0.0
C103 C 1.01793 0.29864 0.12962 0.0
H104 H 1.01279 0.26132 0.99469 0.0
C105 C 0.02708 0.31885 0.18029 0.0
C106 C 1.01323 0.33976 0.19235 0.0
C107 C 0.9946 0.30026 0.09139 0.0
H108 H 0.98617 0.28533 0.05559 0.0
C109 C 0.98119 0.32112 0.10095 0.0
H110 H 0.04501 0.31875 0.20954 0.0
C111 C 0.99035 0.34067 0.15085 0.0
H112 H 0.97922 0.35636 0.15921 0.0
H113 H 0.96333 0.32196 0.07093 0.0
H114 H 0.25599 0.05214 0.25878 0.0
C115 C 0.2699 0.0464 0.20977 0.0
C116 C 0.29347 0.05171 0.23466 0.0
C117 C 0.26442 0.03379 0.12456 0.0
H118 H 0.33045 0.0493 0.19213 0.0
C119 C 0.31207 0.04564 0.17157 0.0
C120 C 0.30762 0.03365 0.08495 0.0
C121 C 0.28371 0.02756 0.06147 0.0
C122 C 0.23863 0.02758 0.10356 0.0
H123 H 0.28046 1.01743 0.9963 0.0
C124 C 0.22119 0.02578 0.1788 0.0
C125 C 0.19658 1.02272 0.15816 0.0
C126 C 0.23082 0.02475 0.00759 0.0
H127 H 0.2431 0.02636 0.94743 0.0
C128 C 0.20673 1.02054 0.98706 0.0
H129 H 0.22646 0.02723 0.2537 0.0
C130 C 0.18977 1.01973 0.06112 0.0
H131 H 0.17122 1.0167 0.04213 0.0
H132 H 0.20108 1.01838 0.91273 0.0
H133 H 0.49129 0.25469 0.25327 0.0
C134 C 0.498 0.26846 0.205 0.0
C135 C 0.48889 0.29159 0.2141 0.0
C136 C 0.51517 0.26319 0.13332 0.0
H137 H 0.49012 0.32785 0.16141 0.0
C138 C 0.49681 0.30978 0.1521 0.0
C139 C 0.51408 0.30547 0.08168 0.0
C140 C 0.52337 0.28215 0.07213 0.0
C141 C 0.52349 0.23782 0.12045 0.0
H142 H 0.5371 0.27902 0.01844 0.0
C143 C 0.52412 0.22117 0.19872 0.0
C144 C 0.52994 0.1968 0.18356 0.0
C145 C 0.52943 0.22961 0.0275 0.0
H146 H 0.52862 0.24135 0.96515 0.0
C147 C 0.53559 0.20579 0.01239 0.0
H148 H 0.52031 0.2271 0.2715 0.0
C149 C 0.53564 0.18952 0.08902 0.0
H150 H 0.53965 0.17101 0.07328 0.0
H151 H 0.53983 0.19975 0.9401 0.0
C152 C 1.00736 0.05091 0.44277 0.0
Eu153 Eu 1.00863 0.03081 0.61021 0.0
C154 C 1.02191 0.07195 0.41533 0.0
C155 C 1.01488 0.09478 0.44652 0.0
C156 C 0.03109 0.11367 0.44599 0.0
C157 C 0.05457 0.11028 0.41308 0.0
C158 C 0.06117 0.08803 0.37488 0.0
C159 C 0.04494 0.06898 0.376 0.0
C160 C 0.97387 1.02372 0.74753 0.0
C161 C 1.02304 0.06992 0.7774 0.0
C162 C 0.03918 0.9945 0.98339 0.0
Eu163 Eu 0.03161 1.01393 0.81684 0.0
C164 C 0.05271 0.9725 0.00472 0.0
C165 C 0.07344 0.97331 0.06194 0.0
C166 C 0.0877 0.95291 0.07273 0.0
C167 C 0.08153 0.93154 0.0255 0.0
C168 C 0.06067 0.9308 0.9692 0.0
C169 C 0.04641 0.95097 0.95921 0.0
C170 C 0.06625 1.02065 0.67686 0.0
C171 C 1.0168 0.97408 0.64942 0.0
O172 O 1.01923 0.03106 0.45846 0.0
O173 O 0.99104 0.05481 0.50904 0.0
O174 O 0.96942 0.029 0.65765 0.0
O175 O 0.99623 1.02165 0.75604 0.0
O176 O 1.02148 0.06508 0.6835 0.0
O177 O 1.02378 0.05289 0.84438 0.0
O178 O 1.01915 0.99159 0.93526 0.0
O179 O 0.05197 1.0126 0.95136 0.0
O180 O 0.0708 1.01431 0.76523 0.0
O181 O 0.04393 1.02331 0.67112 0.0
O182 O 1.02435 0.97881 0.73871 0.0
O183 O 1.01034 0.9909 0.58649 0.0
H184 H 0.99723 0.09785 0.47639 0.0
H185 H 0.0253 0.13093 0.47254 0.0
H186 H 0.07907 0.08517 0.34723 0.0
H187 H 0.05083 0.05166 0.35065 0.0
H188 H 0.07878 0.98977 0.09698 0.0
H189 H 0.1036 0.95387 0.11733 0.0
H190 H 0.05502 0.91441 0.93432 0.0
H191 H 0.03052 0.94968 0.91487 0.0
C192 C 0.49313 1.00725 0.46865 0.0
Eu193 Eu 0.51405 1.00935 0.63399 0.0
C194 C 0.46708 1.00728 0.45615 0.0
C195 C 0.45283 0.99169 0.51222 0.0
C196 C 0.42911 0.99744 0.53238 0.0
C197 C 0.41953 1.01901 0.49813 0.0
C198 C 0.43295 0.03327 0.43413 0.0
C199 C 0.45652 0.02731 0.41248 0.0
C200 C 0.51864 0.97469 0.77408 0.0
C201 C 0.47501 1.02248 0.80553 0.0
C202 C 0.55142 0.03938 0.00665 0.0
Eu203 Eu 0.53187 0.03175 0.84097 0.0
C204 C 0.57312 0.05348 0.02689 0.0
C205 C 0.57229 0.07313 0.08969 0.0
C206 C 0.59233 0.08798 0.10033 0.0
C207 C 0.61335 0.08347 0.04745 0.0
C208 C 0.61405 0.06375 0.98506 0.0
C209 C 0.59422 0.04896 0.97501 0.0
C210 C 0.5269 0.06613 0.69912 0.0
C211 C 0.571 1.01659 0.67035 0.0
O212 O 0.50139 0.02727 0.50454 0.0
O213 O 0.50248 0.98827 0.50993 0.0
O214 O 0.51271 0.97038 0.68494 0.0
O215 O 0.522 0.99693 0.78128 0.0
O216 O 0.47923 1.01891 0.71186 0.0
O217 O 0.49244 0.02517 0.87 0.0
O218 O 0.55467 1.0195 0.95801 0.0
O219 O 0.53304 0.05181 0.97571 0.0
O220 O 0.53263 0.07089 0.7878 0.0
O221 O 0.52397 0.04388 0.69472 0.0
O222 O 0.56672 1.02308 0.76151 0.0
O223 O 0.55381 1.01156 0.60726 0.0
H224 H 0.4605 0.97618 0.54767 0.0
H225 H 0.4189 0.98603 0.58075 0.0
H226 H 0.42556 0.04961 0.40428 0.0
H227 H 0.46717 0.03962 0.36952 0.0
H228 H 0.55608 0.07716 0.1294 0.0
H229 H 0.59137 0.10297 0.1495 0.0
H230 H 0.63017 0.05932 0.94551 0.0
H231 H 0.59544 0.03403 0.92585 0.0
C232 C 0.54315 0.49122 0.47187 0.0
Eu233 Eu 0.54065 0.51142 0.6384 0.0
C234 C 0.52995 0.46937 0.4446 0.0
C235 C 0.53695 0.44717 0.48349 0.0
C236 C 0.52144 0.42772 0.48133 0.0
C237 C 0.49867 0.42991 0.43975 0.0
C238 C 0.49231 0.45149 0.39421 0.0
C239 C 0.50791 0.47105 0.39618 0.0
C240 C 0.57517 0.51957 0.77567 0.0
C241 C 0.52665 0.47258 0.80827 0.0
C242 C 0.50929 0.54846 0.00777 0.0
Eu243 Eu 0.5173 0.52877 0.84278 0.0
C244 C 0.49528 0.57025 0.0268 0.0
C245 C 0.4747 0.56932 0.08502 0.0
C246 C 0.46006 0.58948 0.09408 0.0
C247 C 0.46569 0.61073 0.04409 0.0
C248 C 0.48636 0.61157 0.98648 0.0
C249 C 0.50099 0.59163 0.97818 0.0
C250 C 0.48257 0.52115 0.70474 0.0
C251 C 0.5319 0.5682 0.67204 0.0
O252 O 0.53004 0.5103 0.48668 0.0
O253 O 0.55957 0.48831 0.53856 0.0
O254 O 0.5798 0.51393 0.68654 0.0
O255 O 0.55278 0.52136 0.7833 0.0
O256 O 0.5286 0.47707 0.71405 0.0
O257 O 0.5253 0.48986 0.87348 0.0
O258 O 0.52929 0.55163 0.95948 0.0
O259 O 0.49691 0.53 0.97734 0.0
O260 O 0.47826 0.52831 0.79203 0.0
O261 O 0.50493 0.51845 0.69805 0.0
O262 O 0.52427 0.56373 0.76165 0.0
O263 O 0.53856 0.5512 0.61093 0.0
H264 H 0.55391 0.44505 0.52033 0.0
H265 H 0.5272 0.411 0.51359 0.0
H266 H 0.47499 0.4535 0.36006 0.0
H267 H 0.50215 0.48785 0.36463 0.0
H268 H 0.4698 0.55294 0.12233 0.0
H269 H 0.44432 0.58844 0.13969 0.0
H270 H 0.49161 0.62788 0.94941 0.0
H271 H 0.51672 0.59302 0.93284 0.0
C272 C 0.05587 0.54854 0.46931 0.0
Eu273 Eu 0.03694 0.53514 0.63108 0.0
C274 C 0.07582 0.5651 0.4549 0.0
C275 C 0.0841 0.5787 0.53321 0.0
C276 C 0.10533 0.59163 0.52593 0.0
C277 C 0.1189 0.59079 0.44067 0.0
C278 C 0.10994 0.57797 0.36072 0.0
C279 C 0.08851 0.56523 0.36789 0.0
C280 C 0.03173 0.5672 0.77763 0.0
C281 C 0.07844 0.52017 0.7879 0.0
C282 C 1.00435 0.48448 0.94862 0.0
Eu283 Eu 1.02391 0.50575 0.80062 0.0
C284 C 0.97921 0.48011 0.972 0.0
C285 C 0.97218 0.45835 0.01392 0.0
C286 C 0.94789 0.45279 0.02313 0.0
C287 C 0.93035 0.46874 0.98857 0.0
C288 C 0.93772 0.49059 0.94738 0.0
C289 C 0.96183 0.49634 0.94062 0.0
C290 C 0.03795 0.48015 0.64319 0.0
C291 C 0.98123 0.5246 0.655 0.0
O292 O 0.06177 0.52859 0.5133 0.0
O293 O 0.03627 0.5581 0.50376 0.0
O294 O 0.03636 0.5726 0.68894 0.0
O295 O 0.02887 0.5448 0.78625 0.0
O296 O 0.07342 0.52619 0.69745 0.0
O297 O 0.06131 0.51407 0.84844 0.0
O298 O 1.01137 0.50681 0.94984 0.0
O299 O 1.01189 0.47314 0.87233 0.0
O300 O 0.04609 0.47668 0.72992 0.0
O301 O 1.02388 0.49779 0.64309 0.0
O302 O 0.98702 0.5156 0.74069 0.0
O303 O 0.99789 0.53179 0.59394 0.0
H304 H 0.07483 0.57846 0.60174 0.0
H305 H 0.11164 0.60139 0.58845 0.0
H306 H 0.12019 0.57651 0.29451 0.0
H307 H 0.08251 0.55453 0.30738 0.0
H308 H 0.98545 0.44553 0.03782 0.0
H309 H 0.94294 0.43605 0.05741 0.0
H310 H 0.92493 0.50322 0.91833 0.0
H311 H 0.96686 0.51326 0.90805 0.0
H312 H 0.1523 0.04383 0.15132 0.0
H313 H 0.19806 1.00352 0.34314 0.0
H314 H 0.12115 0.04432 0.27419 0.0
H315 H 0.16677 1.00388 0.46642 0.0
H316 H 0.11408 0.02607 0.70112 0.0
H317 H 0.1455 0.02749 0.57892 0.0
H318 H 0.09215 1.02031 0.35484 0.0
H319 H 0.06088 1.0189 0.47834 0.0
C320 C 0.15569 0.03481 0.2194 0.0
C321 C 0.17779 1.02341 0.23623 0.0
C322 C 0.1377 0.03509 0.29026 0.0
C323 C 0.14114 1.02401 0.38081 0.0
C324 C 0.1634 1.0129 0.39835 0.0
C325 C 0.18145 1.01266 0.32732 0.0
C326 C 0.10903 0.02501 0.62562 0.0
C327 C 0.08479 1.02293 0.59947 0.0
C328 C 0.12714 0.02562 0.55525 0.0
C329 C 0.12162 1.024 0.45611 0.0
C330 C 0.09726 1.02207 0.43 0.0
C331 C 0.07915 1.02146 0.50079 0.0
H332 H 0.55997 0.15843 0.21126 0.0
H333 H 0.49885 0.19339 0.33903 0.0
H334 H 0.55711 0.12661 0.33097 0.0
H335 H 0.49637 0.16162 0.46077 0.0
H336 H 0.51725 0.11316 0.72157 0.0
H337 H 0.51734 0.14484 0.59973 0.0
H338 H 0.53219 0.09263 0.37847 0.0
H339 H 0.53272 0.06098 0.50186 0.0
C340 C 0.54579 0.15935 0.26449 0.0
C341 C 0.52946 0.17855 0.26394 0.0
C342 C 0.54415 0.14096 0.3334 0.0
C343 C 0.52631 0.14122 0.40516 0.0
C344 C 0.51041 0.16078 0.40686 0.0
C345 C 0.51192 0.17914 0.33716 0.0
C346 C 0.52022 0.10839 0.64665 0.0
C347 C 0.52453 0.08444 0.62121 0.0
C348 C 0.52017 0.12659 0.57658 0.0
C349 C 0.52475 0.12144 0.47882 0.0
C350 C 0.52873 0.09736 0.45306 0.0
C351 C 0.52861 0.07908 0.52344 0.0
H352 H 0.39722 0.52649 0.17434 0.0
H353 H 0.34789 0.49896 0.38795 0.0
H354 H 0.42854 0.52867 0.29599 0.0
H355 H 0.37941 0.50089 0.51035 0.0
H356 H 0.43499 0.52873 0.72624 0.0
H357 H 0.40337 0.52648 0.606 0.0
H358 H 0.45517 0.50511 0.39116 0.0
H359 H 0.48686 0.50793 0.51283 0.0
C360 C 0.39307 0.5207 0.24733 0.0
C361 C 0.36998 0.51225 0.27065 0.0
C362 C 0.41116 0.52187 0.31735 0.0
C363 C 0.40683 0.51467 0.41346 0.0
C364 C 0.38353 0.50678 0.43752 0.0
C365 C 0.36535 0.50567 0.36722 0.0
C366 C 0.4397 0.52351 0.65331 0.0
C367 C 0.46367 0.51864 0.62899 0.0
C368 C 0.42142 0.52206 0.58415 0.0
C369 C 0.42646 0.51565 0.48798 0.0
C370 C 0.45048 0.5105 0.46384 0.0
C371 C 0.46878 0.51197 0.53355 0.0
H372 H 1.01291 0.38713 0.14272 0.0
H373 H 0.03209 0.3394 0.37566 0.0
H374 H 1.02154 0.42146 0.24478 0.0
H375 H 0.03983 0.37367 0.48008 0.0
H376 H 0.06552 0.43989 0.63665 0.0
H377 H 0.06287 0.40665 0.52341 0.0
H378 H 1.0058 0.44307 0.37208 0.0
H379 H 1.00936 0.47664 0.48286 0.0
C380 C 1.0191 0.384 0.21592 0.0
C381 C 1.02175 0.36051 0.25103 0.0
C382 C 1.02385 0.40373 0.27512 0.0
C383 C 0.03109 0.40064 0.37201 0.0
C384 C 0.03458 0.37703 0.40593 0.0
C385 C 0.03012 0.35725 0.34603 0.0
C386 C 0.05265 0.4409 0.57823 0.0
C387 C 0.0377 0.46096 0.56876 0.0
C388 C 0.05093 0.42167 0.51361 0.0
C389 C 0.03401 0.42182 0.43799 0.0
C390 C 1.01937 0.44223 0.42778 0.0
C391 C 1.0213 0.46156 0.49181 0.0
H392 H 0.83874 1.00119 0.05913 0.0
H393 H 0.88769 0.02627 0.27735 0.0
H394 H 0.87052 1.0039 0.93809 0.0
H395 H 0.91922 0.02994 0.15679 0.0
H396 H 0.97849 1.01263 0.94228 0.0
H397 H 0.9465 1.00914 0.06243 0.0
H398 H 0.89463 0.02797 0.84314 0.0
H399 H 0.92632 0.02993 0.72363 0.0
C400 C 0.85619 1.00769 0.08085 0.0
C401 C 0.8607 1.01329 0.17808 0.0
C402 C 0.87453 1.0093 0.01139 0.0
C403 C 0.89781 1.01691 0.037 0.0
C404 C 0.90191 1.02333 0.13395 0.0
C405 C 0.8837 1.02144 0.20328 0.0
C406 C 0.96022 1.0156 0.91983 0.0
C407 C 0.955 1.02119 0.82307 0.0
C408 C 0.94178 1.01395 0.98898 0.0
C409 C 0.91766 1.01823 0.96335 0.0
C410 C 0.91268 1.02399 0.86626 0.0
C411 C 0.93101 0.02531 0.7974 0.0
H412 H 0.5425 0.83875 0.0761 0.0
H413 H 0.5197 0.8868 0.30113 0.0
H414 H 0.53895 0.87106 0.95746 0.0
H415 H 0.51548 0.9189 0.18309 0.0
H416 H 0.53219 0.97873 0.96639 0.0
H417 H 0.53634 0.94634 0.08517 0.0
H418 H 0.5131 0.89547 0.86998 0.0
H419 H 0.5102 0.92749 0.75182 0.0
C420 C 0.53639 0.85612 0.1 0.0
C421 C 0.53165 0.86019 0.19837 0.0
C422 C 0.53431 0.87475 0.03193 0.0
C423 C 0.52713 0.89793 0.06015 0.0
C424 C 0.52169 0.90166 0.15831 0.0
C425 C 0.52396 0.88312 0.2262 0.0
C426 C 0.52825 0.96061 0.94463 0.0
C427 C 0.52114 0.95573 0.84936 0.0
C428 C 0.53036 0.94196 0.01292 0.0
C429 C 0.52515 0.91801 0.98777 0.0
C430 C 0.51781 0.9134 0.89236 0.0
C431 C 0.51595 0.93192 0.82441 0.0
H432 H 0.7096 0.54436 0.0876 0.0
H433 H 0.66018 0.52103 0.30852 0.0
H434 H 0.67797 0.54122 0.96664 0.0
H435 H 0.62879 0.51692 0.18805 0.0
H436 H 0.57 0.53182 0.96859 0.0
H437 H 0.60162 0.53648 0.08918 0.0
H438 H 0.65421 0.51657 0.87463 0.0
H439 H 0.62283 0.51354 0.75436 0.0
C440 C 0.69205 0.53824 0.11009 0.0
C441 C 0.68742 0.5332 0.20801 0.0
C442 C 0.6738 0.53634 0.0406 0.0
C443 C 0.65046 0.52896 0.06673 0.0
C444 C 0.64616 0.5233 0.1646 0.0
C445 C 0.66429 0.52549 0.23399 0.0
C446 C 0.58834 0.52889 0.94718 0.0
C447 C 0.59384 0.52271 0.85145 0.0
C448 C 0.60658 0.5312 0.01668 0.0
C449 C 0.63081 0.52698 0.99257 0.0
C450 C 0.63606 0.52057 0.89654 0.0
C451 C 0.61792 0.51862 0.82724 0.0
H452 H 1.00859 0.7021 0.08001 0.0
H453 H 0.03092 0.65374 0.30652 0.0
H454 H 1.01234 0.66992 0.96213 0.0
H455 H 0.03512 0.62171 0.18914 0.0
H456 H 1.01744 0.5625 0.96936 0.0
H457 H 1.01378 0.59456 0.08938 0.0
H458 H 0.0392 0.64573 0.87748 0.0
H459 H 0.042 0.61417 0.75867 0.0
C460 C 1.01461 0.6847 0.10448 0.0
C461 C 1.0192 0.68053 0.20305 0.0
C462 C 1.01679 0.66614 0.03684 0.0
C463 C 1.02386 0.64292 0.06566 0.0
C464 C 0.02905 0.63904 0.16401 0.0
C465 C 0.02675 0.65752 0.23149 0.0
C466 C 1.02218 0.58062 0.9489 0.0
C467 C 0.02986 0.58575 0.85429 0.0
C468 C 1.02023 0.59905 0.0177 0.0
C469 C 0.02603 0.62299 0.99348 0.0
C470 C 0.03401 0.62781 0.89895 0.0
C471 C 0.03581 0.60954 0.83065 0.0
H472 H 0.05025 0.24472 0.36811 0.0
H473 H 0.10954 0.23319 0.17437 0.0
H474 H 0.06305 0.21149 0.46664 0.0
H475 H 0.12321 0.20015 0.27558 0.0
H476 H 0.08228 0.12603 0.26494 0.0
H477 H 0.09988 0.16532 0.24966 0.0
H478 H 0.08262 0.18004 0.54886 0.0
H479 H 0.06432 0.14047 0.56261 0.0
C480 C 0.06706 0.23614 0.35049 0.0
C481 C 0.07837 0.24072 0.2618 0.0
C482 C 0.07451 0.2169 0.40725 0.0
C483 C 0.0934 0.20223 0.37555 0.0
C484 C 0.10796 0.21051 0.29938 0.0
C485 C 0.10029 0.22957 0.24179 0.0
C486 C 0.08314 0.13727 0.32848 0.0
C487 C 0.07136 0.13063 0.41383 0.0
C488 C 0.09346 0.15988 0.32032 0.0
C489 C 0.0922 0.17622 0.39764 0.0
C490 C 0.0834 0.16813 0.48735 0.0
C491 C 0.07285 0.14556 0.49513 0.0
H492 H 0.32308 0.08818 0.28734 0.0
H493 H 0.27794 0.03249 0.40466 0.0
H494 H 0.34806 0.08625 0.42937 0.0
H495 H 0.30255 0.03097 0.54951 0.0
H496 H 0.37825 0.99337 0.5015 0.0
H497 H 0.33828 1.00956 0.50969 0.0
H498 H 0.36729 0.07916 0.58048 0.0
H499 H 0.40762 0.06267 0.56979 0.0
C500 C 0.3177 0.07655 0.34643 0.0
C501 C 0.2995 0.05962 0.33335 0.0
C502 C 0.33193 0.0755 0.42893 0.0
C503 C 0.32814 0.05725 0.49798 0.0
C504 C 0.30646 0.04448 0.49528 0.0
C505 C 0.2923 0.04539 0.41223 0.0
C506 C 0.37601 1.0119 0.52215 0.0
C507 C 0.3958 0.02711 0.53007 0.0
C508 C 0.35301 1.02126 0.52837 0.0
C509 C 0.34957 0.04602 0.54206 0.0
C510 C 0.3694 0.06022 0.56676 0.0
C511 C 0.39243 0.05089 0.55936 0.0
H512 H 0.50206 0.29432 0.40081 0.0
H513 H 0.44265 0.30662 0.20882 0.0
H514 H 0.48994 0.32794 0.49826 0.0
H515 H 0.4296 0.33988 0.30882 0.0
H516 H 0.47251 0.41296 0.28948 0.0
H517 H 0.45477 0.37372 0.277 0.0
H518 H 0.47026 0.36015 0.57898 0.0
H519 H 0.48836 0.39983 0.59071 0.0
C520 C 0.48527 0.30307 0.38397 0.0
C521 C 0.47374 0.29862 0.29597 0.0
C522 C 0.47825 0.32253 0.43985 0.0
C523 C 0.45956 0.33745 0.40777 0.0
C524 C 0.44466 0.32925 0.33294 0.0
C525 C 0.45193 0.31001 0.27618 0.0
C526 C 0.47125 0.40202 0.3542 0.0
C527 C 0.48239 0.40909 0.4401 0.0
C528 C 0.46084 0.37945 0.34757 0.0
C529 C 0.46141 0.36349 0.42686 0.0
C530 C 0.46989 0.37183 0.51626 0.0
C531 C 0.4804 0.39444 0.52273 0.0
H532 H 0.25314 0.60231 0.19094 0.0
H533 H 0.24749 0.54369 0.39286 0.0
H534 H 0.22486 0.62537 0.28706 0.0
H535 H 0.21827 0.56561 0.48558 0.0
H536 H 0.14184 0.61351 0.2919 0.0
H537 H 0.18458 0.61617 0.27045 0.0
H538 H 0.19517 0.59352 0.56716 0.0
H539 H 0.15224 0.58899 0.58574 0.0
C540 C 0.24677 0.59494 0.25887 0.0
C541 C 0.25202 0.57126 0.28446 0.0
C542 C 0.23033 0.60795 0.31333 0.0
C543 C 0.21831 0.59695 0.39128 0.0
C544 C 0.22682 0.57476 0.42564 0.0
C545 C 0.24366 0.56202 0.37243 0.0
C546 C 0.15328 0.60956 0.35312 0.0
C547 C 0.1437 0.60014 0.43893 0.0
C548 C 0.17795 0.61151 0.34165 0.0
C549 C 0.19354 0.60433 0.41641 0.0
C550 C 0.18373 0.5985 0.50719 0.0
C551 C 0.15902 0.59612 0.51808 0.0
H552 H 0.10774 0.80389 0.31434 0.0
H553 H 0.05751 0.79717 0.07982 0.0
H554 H 0.12871 0.83549 0.22656 0.0
H555 H 0.0776 0.82915 0.99344 0.0
H556 H 0.09514 0.89837 0.89135 0.0
H557 H 0.10577 0.85683 0.92519 0.0
H558 H 0.1081 0.87294 0.23082 0.0
H559 H 0.09782 0.91404 0.19666 0.0
C560 C 0.10218 0.80811 0.24115 0.0
C561 C 0.08078 0.79867 0.20434 0.0
C562 C 0.11397 0.82643 0.19131 0.0
C563 C 0.10412 0.83566 0.10538 0.0
C564 C 0.08558 0.82279 0.06008 0.0
C565 C 0.074 0.80428 0.10945 0.0
C566 C 0.09878 0.89308 0.96538 0.0
C567 C 0.09507 0.9092 0.04175 0.0
C568 C 0.10494 0.86935 0.98468 0.0
C569 C 0.10732 0.86135 0.0807 0.0
C570 C 0.10662 0.87833 0.15574 0.0
C571 C 0.10056 0.90203 0.13637 0.0
H572 H 0.74676 0.05857 0.08252 0.0
H573 H 0.74178 0.10526 0.32868 0.0
H574 H 0.71527 0.08071 1.00242 0.0
H575 H 0.71056 0.12814 0.24774 0.0
H576 H 0.63172 0.09759 0.21996 0.0
H577 H 0.67298 0.10753 0.25154 0.0
H578 H 0.6873 0.10997 0.94409 0.0
H579 H 0.6455 0.09988 0.9127 0.0
C580 C 0.74014 0.07471 0.11638 0.0
C581 C 0.74601 0.07985 0.21254 0.0
C582 C 0.72191 0.08747 0.07063 0.0
C583 C 0.70951 0.10544 0.12119 0.0
C584 C 0.71921 0.11382 0.20855 0.0
C585 C 0.73729 0.10091 0.25458 0.0
C586 C 0.64333 0.10136 0.15895 0.0
C587 C 0.63559 0.09727 0.06408 0.0
C588 C 0.66715 0.10721 0.17688 0.0
C589 C 0.6837 0.10908 0.10016 0.0
C590 C 0.67513 0.10821 0.00473 0.0
C591 C 0.65123 0.10234 0.98684 0.0
H592 H 0.44131 0.73877 0.32461 0.0
H593 H 0.49069 0.74423 0.08612 0.0
H594 H 0.41942 0.70744 0.24031 0.0
H595 H 0.46967 0.71252 1.00316 0.0
H596 H 0.45129 0.64337 0.90791 0.0
H597 H 0.44085 0.68501 0.93906 0.0
H598 H 0.43956 0.66973 0.24605 0.0
H599 H 0.44969 0.62855 0.21461 0.0
C600 C 0.44649 0.73435 0.2513 0.0
C601 C 0.46792 0.74333 0.21242 0.0
C602 C 0.43416 0.71619 0.20342 0.0
C603 C 0.4435 0.70664 0.11743 0.0
C604 C 0.46207 0.71911 0.06996 0.0
C605 C 0.4742 0.73747 0.11738 0.0
C606 C 0.4479 0.64885 0.98172 0.0
C607 C 0.45192 0.63296 0.05917 0.0
C608 C 0.44185 0.67265 0.99949 0.0
C609 C 0.43988 0.68092 0.095 0.0
C610 C 0.44075 0.66413 0.17133 0.0
C611 C 0.44672 0.64038 0.15351 0.0
H612 H 0.81687 0.44127 0.30705 0.0
H613 H 0.7856 0.4882 0.09339 0.0
H614 H 0.84478 0.42653 0.18665 0.0
H615 H 0.81301 0.47287 0.97245 0.0
H616 H 0.89413 0.50036 0.02074 0.0
H617 H 0.8525 0.49215 0.04575 0.0
H618 H 0.8653 0.41645 0.01484 0.0
H619 H 0.90759 0.42477 0.98101 0.0
C620 C 0.81483 0.44716 0.23274 0.0
C621 C 0.80009 0.46675 0.21038 0.0
C622 C 0.8307 0.43854 0.16334 0.0
C623 C 0.83168 0.44951 0.07192 0.0
C624 C 0.81285 0.46459 0.04348 0.0
C625 C 0.79715 0.47342 0.11308 0.0
C626 C 0.88821 0.482 0.01419 0.0
C627 C 0.90444 0.46328 0.99821 0.0
C628 C 0.86413 0.47728 0.0284 0.0
C629 C 0.85557 0.45366 0.02989 0.0
C630 C 0.87146 0.43482 0.01205 0.0
C631 C 0.8957 0.43962 0.99478 0.0
H632 H 0.06283 0.21859 0.88562 0.0
H633 H 1.0015 0.20709 0.06893 0.0
H634 H 0.05736 0.17883 0.81515 0.0
H635 H 0.99598 0.16721 0.99942 0.0
H636 H 1.01745 0.0878 0.96059 0.0
H637 H 1.01861 0.12942 0.01225 0.0
H638 H 0.03171 0.15186 0.71767 0.0
H639 H 0.03061 0.11012 0.66578 0.0
C640 C 0.04762 0.20788 0.90802 0.0
C641 C 0.03223 0.21618 0.98094 0.0
C642 C 0.04456 0.185 0.86828 0.0
C643 C 0.02635 0.16963 0.9021 0.0
C644 C 1.01034 0.17842 0.97222 0.0
C645 C 1.01321 0.20143 0.0109 0.0
C646 C 1.02056 0.10155 0.90658 0.0
C647 C 1.02392 0.09546 0.8088 0.0
C648 C 1.021 0.12552 0.93619 0.0
C649 C 0.02505 0.14414 0.86914 0.0
C650 C 0.02859 0.13805 0.77142 0.0
C651 C 0.02788 0.11406 0.74158 0.0
H652 H 0.32177 0.05115 0.90739 0.0
H653 H 0.34259 1.00228 0.13365 0.0
H654 H 0.36172 0.04779 0.83481 0.0
H655 H 0.38214 0.99836 0.06114 0.0
H656 H 0.45839 1.0211 0.99273 0.0
H657 H 0.4172 1.02168 0.04948 0.0
H658 H 0.39226 0.02534 0.75421 0.0
H659 H 0.43376 0.02587 0.69789 0.0
C660 C 0.33461 0.039 0.93951 0.0
C661 C 0.3289 0.02677 0.02562 0.0
C662 C 0.35764 0.03717 0.89842 0.0
C663 C 0.37558 1.02315 0.94286 0.0
C664 C 0.36921 1.00984 0.0258 0.0
C665 C 0.34632 1.01172 0.06665 0.0
C666 C 0.44419 1.02209 0.93961 0.0
C667 C 0.44958 1.0231 0.8402 0.0
C668 C 0.42039 1.02216 0.97224 0.0
C669 C 0.40107 1.02321 0.90669 0.0
C670 C 0.40648 0.02458 0.80722 0.0
C671 C 0.43035 0.02457 0.77464 0.0
H672 H 0.5455 0.33985 0.13598 0.0
H673 H 0.49881 0.31955 0.90267 0.0
H674 H 0.55012 0.37968 0.06495 0.0
H675 H 0.50286 0.35959 0.83167 0.0
H676 H 0.52647 0.43154 0.69878 0.0
H677 H 0.52685 0.39006 0.75471 0.0
H678 H 0.52574 0.41436 0.05088 0.0
H679 H 0.52585 0.45567 0.9951 0.0
C680 C 0.5369 0.3437 0.06745 0.0
C681 C 0.5223 0.3264 0.02353 0.0
C682 C 0.53912 0.36671 0.02757 0.0
C683 C 0.52658 0.37317 0.94302 0.0
C684 C 0.51298 0.35536 0.89625 0.0
C685 C 0.51078 0.33229 0.93636 0.0
C686 C 0.52637 0.42806 0.77586 0.0
C687 C 0.52623 0.44712 0.84217 0.0
C688 C 0.52649 0.40418 0.80805 0.0
C689 C 0.52659 0.39863 0.90759 0.0
C690 C 0.52623 0.41775 0.97372 0.0
C691 C 0.52606 0.44158 0.94158 0.0
H692 H 0.22601 0.55634 0.93144 0.0
H693 H 0.21451 0.49003 0.08426 0.0
H694 H 0.1868 0.55272 0.85553 0.0
H695 H 0.17522 0.48591 0.007 0.0
H696 H 0.09562 0.50482 0.96339 0.0
H697 H 0.13679 0.50428 0.0204 0.0
H698 H 0.16046 0.53317 0.74612 0.0
H699 H 0.11907 0.5342 0.68978 0.0
C700 C 0.2154 0.54047 0.94574 0.0
C701 C 0.22356 0.52321 0.01219 0.0
C702 C 0.1928 0.5384 0.90253 0.0
C703 C 0.17753 0.5191 0.92524 0.0
C704 C 0.18624 0.50122 0.98849 0.0
C705 C 0.20896 0.50328 0.03153 0.0
C706 C 0.10956 0.51106 0.91494 0.0
C707 C 0.10385 0.51961 0.82179 0.0
C708 C 0.13333 0.51051 0.94747 0.0
C709 C 0.15223 0.51853 0.88803 0.0
C710 C 0.1465 0.527 0.79458 0.0
C711 C 0.12269 0.5275 0.76193 0.0
H712 H 0.99329 0.8358 0.35974 0.0
H713 H 0.05515 0.82652 0.54151 0.0
H714 H 0.98675 0.87558 0.42909 0.0
H715 H 0.04932 0.8662 0.60887 0.0
H716 H 0.02776 0.934 0.75578 0.0
H717 H 0.02729 0.89252 0.70512 0.0
H718 H 1.00442 0.91436 0.41962 0.0
H719 H 1.00403 0.95594 0.47176 0.0
C720 C 1.00498 0.84198 0.41696 0.0
C721 C 1.02441 0.8279 0.44686 0.0
C722 C 1.00157 0.86496 0.45545 0.0
C723 C 1.0176 0.87439 0.52439 0.0
C724 C 0.03633 0.85964 0.55732 0.0
C725 C 0.03967 0.83677 0.51899 0.0
C726 C 1.02238 0.93005 0.68248 0.0
C727 C 1.01591 0.94853 0.61825 0.0
C728 C 1.02227 0.90612 0.65299 0.0
C729 C 1.01586 0.89984 0.55791 0.0
C730 C 1.00908 0.9183 0.49387 0.0
C731 C 1.00907 0.94228 0.52364 0.0
H732 H 0.70653 0.99163 0.36034 0.0
H733 H 0.71926 0.05164 0.54773 0.0
H734 H 0.66706 0.98569 0.43462 0.0
H735 H 0.6799 0.04638 0.62026 0.0
H736 H 0.61213 0.02528 0.7738 0.0
H737 H 0.65332 1.02424 0.71767 0.0
H738 H 0.62895 1.00477 0.4321 0.0
H739 H 0.58776 1.00511 0.48921 0.0
C740 C 0.70119 1.00301 0.41973 0.0
C741 C 0.71614 1.02178 0.44968 0.0
C742 C 0.67838 0.99996 0.46116 0.0
C743 C 0.67 1.01567 0.53329 0.0
C744 C 0.68564 0.03366 0.56623 0.0
C745 C 0.70832 0.03667 0.52489 0.0
C746 C 0.61547 1.02059 0.69928 0.0
C747 C 0.59639 1.01531 0.63648 0.0
C748 C 0.63923 1.02011 0.66668 0.0
C749 C 0.64472 1.01443 0.56998 0.0
C750 C 0.62564 1.00883 0.50743 0.0
C751 C 0.60187 1.00923 0.54017 0.0
H752 H 0.55601 0.70554 0.37031 0.0
H753 H 0.49329 0.71516 0.54699 0.0
H754 H 0.56235 0.666 0.44364 0.0
H755 H 0.49893 0.67573 0.6182 0.0
H756 H 0.52012 0.60862 0.77341 0.0
H757 H 0.5206 0.6499 0.71853 0.0
H758 H 0.54495 0.62707 0.43701 0.0
H759 H 0.54533 0.58572 0.49344 0.0
C760 C 0.54406 0.69949 0.42715 0.0
C761 C 0.52444 0.71358 0.45441 0.0
C762 C 0.54737 0.67664 0.46796 0.0
C763 C 0.53107 0.66738 0.5367 0.0
C764 C 0.51213 0.68216 0.56691 0.0
C765 C 0.50888 0.70488 0.5263 0.0
C766 C 0.52582 0.61231 0.70012 0.0
C767 C 0.5327 0.59363 0.63828 0.0
C768 C 0.52594 0.63613 0.66816 0.0
C769 C 0.53277 0.64207 0.57293 0.0
C770 C 0.53995 0.6234 0.5113 0.0
C771 C 0.53995 0.59955 0.54354 0.0
H772 H 0.84079 0.55272 0.38349 0.0
H773 H 0.83327 0.48684 0.54339 0.0
H774 H 0.88105 0.55817 0.45109 0.0
H775 H 0.87336 0.49159 0.60844 0.0
H776 H 0.94185 0.50998 0.75727 0.0
H777 H 0.90005 0.51114 0.70998 0.0
H778 H 0.92023 0.54213 0.43474 0.0
H779 H 0.96208 0.54189 0.4848 0.0
C780 C 0.84747 0.53981 0.43545 0.0
C781 C 0.83372 0.51957 0.45952 0.0
C782 C 0.87074 0.54264 0.47288 0.0
C783 C 0.88079 0.52525 0.53515 0.0
C784 C 0.86639 0.50563 0.5623 0.0
C785 C 0.84327 0.50286 0.52508 0.0
C786 C 0.9374 0.51733 0.68736 0.0
C787 C 0.9555 0.52586 0.62556 0.0
C788 C 0.9133 0.51782 0.65944 0.0
C789 C 0.90644 0.52665 0.56792 0.0
C790 C 0.92456 0.53552 0.50633 0.0
C791 C 0.94871 0.53517 0.53478 0.0
loop_
_geom_bond_atom_site_label_1
_geom_bond_atom_site_label_2
_geom_bond_distance
_geom_bond_site_symmetry_2
_ccdc_geom_bond_type
H0 C1 0.949 . S
C1 H0 0.949 . S
C1 C2 1.395 . S
C1 C3 1.391 . S
C2 C1 1.395 . S
C2 C5 1.390 . S
C3 C1 1.391 . S
C3 C7 1.387 . S
C3 C8 1.491 . S
H4 C5 0.950 . S
C5 C2 1.390 . S
C5 H4 0.950 . S
C5 C6 1.378 . S
C6 C5 1.378 . S
C6 C7 1.409 . S
C7 C3 1.387 . S
C7 C6 1.409 . S
C7 H9 0.951 . S
C8 C3 1.491 . S
C8 C10 1.382 . S
C8 C12 1.404 . S
H9 C7 0.951 . S
C10 C8 1.382 . S
C10 C11 1.390 . S
C10 H15 0.949 . S
C11 C10 1.390 . S
C11 C16 1.399 . S
C12 C8 1.404 . S
C12 H13 0.950 . S
C12 C14 1.375 . S
H13 C12 0.950 . S
C14 C12 1.375 . S
C14 C16 1.382 . S
C14 H18 0.950 . S
H15 C10 0.949 . S
C16 C11 1.399 . S
C16 C14 1.382 . S
C16 H17 0.952 . S
H17 C16 0.952 . S
H18 C14 0.950 . S
H19 C20 0.949 . S
C20 H19 0.949 . S
C20 C21 1.395 . S
C20 C22 1.391 . S
C21 C20 1.395 . S
C21 C24 1.390 1_655 S
C22 C20 1.391 . S
C22 C26 1.387 . S
C22 C27 1.491 . S
H23 C24 0.950 . S
C24 C21 1.390 1_455 S
C24 H23 0.950 . S
C24 C25 1.377 1_455 S
C25 C24 1.377 1_655 S
C25 C26 1.413 . S
C26 C22 1.387 . S
C26 C25 1.413 . S
C26 H28 0.951 . S
C27 C22 1.491 . S
C27 C29 1.382 . S
C27 C31 1.404 . S
H28 C26 0.951 . S
C29 C27 1.382 . S
C29 C30 1.390 . S
C29 H34 0.949 1_655 S
C30 C29 1.390 . S
C30 C35 1.399 . S
C31 C27 1.404 . S
C31 H32 0.950 . S
C31 C33 1.375 . S
H32 C31 0.950 . S
C33 C31 1.375 . S
C33 C35 1.382 . S
C33 H37 0.950 . S
H34 C29 0.949 1_455 S
C35 C30 1.399 . S
C35 C33 1.382 . S
C35 H36 0.952 . S
H36 C35 0.952 . S
H37 C33 0.950 . S
H38 C39 0.949 . S
C39 H38 0.949 . S
C39 C40 1.395 . S
C39 C41 1.391 . S
C40 C39 1.395 . S
C40 C43 1.390 1_565 S
C41 C39 1.391 . S
C41 C45 1.387 . S
C41 C46 1.491 . S
H42 C43 0.950 . S
C43 C40 1.390 1_545 S
C43 H42 0.950 . S
C43 C44 1.377 1_545 S
C44 C43 1.377 1_565 S
C44 C45 1.413 . S
C45 C41 1.387 . S
C45 C44 1.413 . S
C45 H47 0.951 . S
C46 C41 1.491 . S
C46 C48 1.382 . S
C46 C50 1.404 . S
H47 C45 0.951 . S
C48 C46 1.382 . S
C48 C49 1.390 . S
C48 H53 0.949 1_565 S
C49 C48 1.390 . S
C49 C54 1.399 . S
C50 C46 1.404 . S
C50 H51 0.950 . S
C50 C52 1.375 . S
H51 C50 0.950 . S
C52 C50 1.375 . S
C52 C54 1.382 . S
C52 H56 0.950 . S
H53 C48 0.949 1_545 S
C54 C49 1.399 . S
C54 C52 1.382 . S
C54 H55 0.952 . S
H55 C54 0.952 . S
H56 C52 0.950 . S
H57 C58 0.949 . S
C58 H57 0.949 . S
C58 C59 1.395 . S
C58 C60 1.391 . S
C59 C58 1.395 . S
C59 C62 1.390 . S
C60 C58 1.391 . S
C60 C64 1.387 . S
C60 C65 1.491 . S
H61 C62 0.950 . S
C62 C59 1.390 . S
C62 H61 0.950 . S
C62 C63 1.378 . S
C63 C62 1.378 . S
C63 C64 1.409 . S
C64 C60 1.387 . S
C64 C63 1.409 . S
C64 H66 0.951 . S
C65 C60 1.491 . S
C65 C67 1.382 . S
C65 C69 1.404 . S
H66 C64 0.951 . S
C67 C65 1.382 . S
C67 C68 1.390 . S
C67 H72 0.949 . S
C68 C67 1.390 . S
C68 C73 1.399 . S
C69 C65 1.404 . S
C69 H70 0.950 . S
C69 C71 1.375 . S
H70 C69 0.950 . S
C71 C69 1.375 . S
C71 C73 1.382 . S
C71 H75 0.950 . S
H72 C67 0.949 . S
C73 C68 1.399 . S
C73 C71 1.382 . S
C73 H74 0.952 . S
H74 C73 0.952 . S
H75 C71 0.950 . S
H76 C77 0.949 . S
C77 H76 0.949 . S
C77 C78 1.395 . S
C77 C79 1.391 . S
C78 C77 1.395 . S
C78 C81 1.390 . S
C79 C77 1.391 . S
C79 C83 1.387 1_554 S
C79 C84 1.491 . S
H80 C81 0.950 . S
C81 C78 1.390 . S
C81 H80 0.950 . S
C81 C82 1.378 1_554 S
C82 C81 1.378 1_556 S
C82 C83 1.409 . S
C83 C79 1.387 1_556 S
C83 C82 1.409 . S
C83 H85 0.951 . S
C84 C79 1.491 . S
C84 C86 1.382 . S
C84 C88 1.404 1_554 S
H85 C83 0.951 . S
C86 C84 1.382 . S
C86 C87 1.390 . S
C86 H91 0.949 . S
C87 C86 1.390 . S
C87 C92 1.399 . S
C88 C84 1.404 1_556 S
C88 H89 0.950 . S
C88 C90 1.375 . S
H89 C88 0.950 . S
C90 C88 1.375 . S
C90 C92 1.382 1_556 S
C90 H94 0.950 . S
H91 C86 0.949 . S
C92 C87 1.399 . S
C92 C90 1.382 1_554 S
C92 H93 0.952 . S
H93 C92 0.952 . S
H94 C90 0.950 . S
H95 C96 0.949 . S
C96 H95 0.949 . S
C96 C97 1.395 1_655 S
C96 C98 1.391 . S
C97 C96 1.395 1_455 S
C97 C100 1.390 . S
C98 C96 1.391 . S
C98 C102 1.387 1_554 S
C98 C103 1.491 . S
H99 C100 0.950 . S
C100 C97 1.390 . S
C100 H99 0.950 . S
C100 C101 1.377 1_454 S
C101 C100 1.377 1_656 S
C101 C102 1.411 . S
C102 C98 1.387 1_556 S
C102 C101 1.411 . S
C102 H104 0.951 . S
C103 C98 1.491 . S
C103 C105 1.402 . S
C103 C107 1.404 1_554 S
H104 C102 0.951 . S
C105 C103 1.402 . S
C105 C106 1.400 . S
C105 H110 0.920 1_655 S
C106 C105 1.400 . S
C106 C111 1.399 . S
C107 C103 1.404 1_556 S
C107 H108 0.950 . S
C107 C109 1.375 . S
H108 C107 0.950 . S
C109 C107 1.375 . S
C109 C111 1.382 1_556 S
C109 H113 0.950 . S
H110 C105 0.920 1_455 S
C111 C106 1.399 . S
C111 C109 1.382 1_554 S
C111 H112 0.952 . S
H112 C111 0.952 . S
H113 C109 0.950 . S
H114 C115 0.949 . S
C115 H114 0.949 . S
C115 C116 1.395 1_565 S
C115 C117 1.391 . S
C116 C115 1.395 1_545 S
C116 C119 1.390 . S
C117 C115 1.391 . S
C117 C121 1.387 1_554 S
C117 C122 1.491 . S
H118 C119 0.950 . S
C119 C116 1.390 . S
C119 H118 0.950 . S
C119 C120 1.377 1_544 S
C120 C119 1.377 1_566 S
C120 C121 1.411 . S
C121 C117 1.387 1_556 S
C121 C120 1.411 . S
C121 H123 0.951 . S
C122 C117 1.491 . S
C122 C124 1.402 . S
C122 C126 1.404 1_554 S
H123 C121 0.951 . S
C124 C122 1.402 . S
C124 C125 1.400 . S
C124 H129 0.920 1_565 S
C125 C124 1.400 . S
C125 C130 1.399 . S
C126 C122 1.404 1_556 S
C126 H127 0.950 . S
C126 C128 1.375 . S
H127 C126 0.950 . S
C128 C126 1.375 . S
C128 C130 1.382 1_556 S
C128 H132 0.950 . S
H129 C124 0.920 1_545 S
C130 C125 1.399 . S
C130 C128 1.382 1_554 S
C130 H131 0.952 . S
H131 C130 0.952 . S
H132 C128 0.950 . S
H133 C134 0.949 . S
C134 H133 0.949 . S
C134 C135 1.395 . S
C134 C136 1.391 . S
C135 C134 1.395 . S
C135 C138 1.390 . S
C136 C134 1.391 . S
C136 C140 1.387 1_554 S
C136 C141 1.491 . S
H137 C138 0.950 . S
C138 C135 1.390 . S
C138 H137 0.950 . S
C138 C139 1.378 1_554 S
C139 C138 1.378 1_556 S
C139 C140 1.409 . S
C140 C136 1.387 1_556 S
C140 C139 1.409 . S
C140 H142 0.951 . S
C141 C136 1.491 . S
C141 C143 1.382 . S
C141 C145 1.404 1_554 S
H142 C140 0.951 . S
C143 C141 1.382 . S
C143 C144 1.390 . S
C143 H148 0.949 . S
C144 C143 1.390 . S
C144 C149 1.399 . S
C145 C141 1.404 1_556 S
C145 H146 0.950 . S
C145 C147 1.375 . S
H146 C145 0.950 . S
C147 C145 1.375 . S
C147 C149 1.382 1_556 S
C147 H151 0.950 . S
H148 C143 0.949 . S
C149 C144 1.399 . S
C149 C147 1.382 1_554 S
C149 H150 0.952 . S
H150 C149 0.952 . S
H151 C147 0.950 . S
C152 Eu153 2.835 . S
C152 C154 1.500 . S
C152 O172 1.251 1_655 S
C152 O173 1.260 . S
Eu153 C152 2.835 . S
Eu153 O172 2.470 1_655 S
Eu153 O173 2.480 . S
Eu153 O174 2.430 . S
Eu153 O175 2.670 1_545 S
Eu153 O176 2.394 . S
Eu153 O181 2.355 1_655 S
Eu153 O183 2.374 1_545 S
C154 C152 1.500 . S
C154 C155 1.377 . S
C154 C159 1.399 . S
C155 C154 1.377 . S
C155 C156 1.395 . S
C155 H184 0.931 . S
C156 C155 1.395 . S
C156 C157 1.383 . S
C156 H185 0.931 . S
C157 C156 1.383 . S
C157 C158 1.394 . S
C158 C157 1.394 . S
C158 C159 1.380 . S
C158 H186 0.931 1_655 S
C159 C154 1.399 . S
C159 C158 1.380 . S
C159 H187 0.908 1_655 S
C160 O174 1.284 . S
C160 O175 1.252 1_545 S
C161 O176 1.251 1_455 S
C161 O177 1.251 . S
C162 Eu163 2.835 . S
C162 C164 1.500 . S
C162 O178 1.261 1_455 S
C162 O179 1.260 . S
Eu163 C162 2.835 . S
Eu163 O175 2.355 1_455 S
Eu163 O177 2.374 1_565 S
Eu163 O178 2.474 1_455 S
Eu163 O179 2.480 . S
Eu163 O180 2.430 . S
Eu163 O181 2.670 1_565 S
Eu163 O182 2.394 . S
C164 C162 1.500 . S
C164 C165 1.377 . S
C164 C169 1.409 1_556 S
C165 C164 1.377 . S
C165 C166 1.395 1_556 S
C165 H188 0.931 . S
C166 C165 1.395 1_554 S
C166 C167 1.383 . S
C166 H189 0.931 . S
C167 C166 1.383 . S
C167 C168 1.394 . S
C168 C167 1.394 . S
C168 C169 1.381 . S
C168 H190 0.931 1_455 S
C169 C164 1.409 1_554 S
C169 C168 1.381 . S
C169 H191 0.897 1_455 S
C170 O180 1.278 . S
C170 O181 1.256 1_565 S
C171 O182 1.251 1_655 S
C171 O183 1.251 . S
O172 C152 1.251 1_455 S
O172 Eu153 2.470 1_455 S
O173 C152 1.260 . S
O173 Eu153 2.480 . S
O174 Eu153 2.430 . S
O174 C160 1.284 . S
O175 Eu153 2.670 1_565 S
O175 C160 1.252 1_565 S
O175 Eu163 2.355 1_655 S
O176 Eu153 2.394 . S
O176 C161 1.251 1_655 S
O177 C161 1.251 . S
O177 Eu163 2.374 1_545 S
O178 C162 1.261 1_655 S
O178 Eu163 2.474 1_655 S
O179 C162 1.260 . S
O179 Eu163 2.480 . S
O180 Eu163 2.430 . S
O180 C170 1.278 . S
O181 Eu153 2.355 1_455 S
O181 Eu163 2.670 1_545 S
O181 C170 1.256 1_545 S
O182 Eu163 2.394 . S
O182 C171 1.251 1_455 S
O183 Eu153 2.374 1_565 S
O183 C171 1.251 . S
H184 C155 0.931 . S
H185 C156 0.931 . S
H186 C158 0.931 1_455 S
H187 C159 0.908 1_455 S
H188 C165 0.931 . S
H189 C166 0.931 . S
H190 C168 0.931 1_655 S
H191 C169 0.897 1_655 S
C192 Eu193 2.835 . S
C192 C194 1.500 . S
C192 O212 1.243 1_565 S
C192 O213 1.260 . S
Eu193 C192 2.835 . S
Eu193 O212 2.466 1_565 S
Eu193 O213 2.480 . S
Eu193 O214 2.430 . S
Eu193 O215 2.670 . S
Eu193 O216 2.394 . S
Eu193 O221 2.355 1_565 S
Eu193 O223 2.374 . S
C194 C192 1.500 . S
C194 C195 1.377 . S
C194 C199 1.384 . S
C195 C194 1.377 . S
C195 C196 1.395 . S
C195 H224 0.931 . S
C196 C195 1.395 . S
C196 C197 1.383 . S
C196 H225 0.931 . S
C197 C196 1.383 . S
C197 C198 1.394 . S
C198 C197 1.394 . S
C198 C199 1.378 . S
C198 H226 0.931 1_565 S
C199 C194 1.384 . S
C199 C198 1.378 . S
C199 H227 0.924 1_565 S
C200 O214 1.259 . S
C200 O215 1.270 . S
C201 O216 1.251 1_545 S
C201 O217 1.251 . S
C202 Eu203 2.835 . S
C202 C204 1.500 . S
C202 O218 1.253 1_545 S
C202 O219 1.260 . S
Eu203 C202 2.835 . S
Eu203 O215 2.355 1_545 S
Eu203 O217 2.374 . S
Eu203 O218 2.471 1_545 S
Eu203 O219 2.480 . S
Eu203 O220 2.430 . S
Eu203 O221 2.670 . S
Eu203 O222 2.394 . S
C204 C202 1.500 . S
C204 C205 1.377 . S
C204 C209 1.394 1_556 S
C205 C204 1.377 . S
C205 C206 1.395 1_556 S
C205 H228 0.931 . S
C206 C205 1.395 1_554 S
C206 C207 1.383 . S
C206 H229 0.931 . S
C207 C206 1.383 . S
C207 C208 1.394 . S
C208 C207 1.394 . S
C208 C209 1.379 . S
C208 H230 0.931 1_545 S
C209 C204 1.394 1_554 S
C209 C208 1.379 . S
C209 H231 0.913 1_545 S
C210 O220 1.259 . S
C210 O221 1.270 . S
C211 O222 1.251 1_565 S
C211 O223 1.251 . S
O212 C192 1.243 1_545 S
O212 Eu193 2.466 1_545 S
O213 C192 1.260 . S
O213 Eu193 2.480 . S
O214 Eu193 2.430 . S
O214 C200 1.259 . S
O215 Eu193 2.670 . S
O215 C200 1.270 . S
O215 Eu203 2.355 1_565 S
O216 Eu193 2.394 . S
O216 C201 1.251 1_565 S
O217 C201 1.251 . S
O217 Eu203 2.374 . S
O218 C202 1.253 1_565 S
O218 Eu203 2.471 1_565 S
O219 C202 1.260 . S
O219 Eu203 2.480 . S
O220 Eu203 2.430 . S
O220 C210 1.259 . S
O221 Eu193 2.355 1_545 S
O221 Eu203 2.670 . S
O221 C210 1.270 . S
O222 Eu203 2.394 . S
O222 C211 1.251 1_545 S
O223 Eu193 2.374 . S
O223 C211 1.251 . S
H224 C195 0.931 . S
H225 C196 0.931 . S
H226 C198 0.931 1_545 S
H227 C199 0.924 1_545 S
H228 C205 0.931 . S
H229 C206 0.931 . S
H230 C208 0.931 1_565 S
H231 C209 0.913 1_565 S
C232 Eu233 2.835 . S
C232 C234 1.500 . S
C232 O252 1.257 . S
C232 O253 1.260 . S
Eu233 C232 2.835 . S
Eu233 O252 2.473 . S
Eu233 O253 2.480 . S
Eu233 O254 2.430 . S
Eu233 O255 2.670 . S
Eu233 O256 2.394 . S
Eu233 O261 2.355 . S
Eu233 O263 2.374 . S
C234 C232 1.500 . S
C234 C235 1.377 . S
C234 C239 1.377 . S
C235 C234 1.377 . S
C235 C236 1.395 . S
C235 H264 0.931 . S
C236 C235 1.395 . S
C236 C237 1.383 . S
C236 H265 0.931 . S
C237 C236 1.383 . S
C237 C238 1.394 . S
C238 C237 1.394 . S
C238 C239 1.378 . S
C238 H266 0.931 . S
C239 C234 1.377 . S
C239 C238 1.378 . S
C239 H267 0.931 . S
C240 O254 1.259 . S
C240 O255 1.270 . S
C241 O256 1.251 . S
C241 O257 1.251 . S
C242 Eu243 2.835 . S
C242 C244 1.500 . S
C242 O258 1.257 . S
C242 O259 1.260 . S
Eu243 C242 2.835 . S
Eu243 O255 2.355 . S
Eu243 O257 2.374 . S
Eu243 O258 2.473 . S
Eu243 O259 2.480 . S
Eu243 O260 2.430 . S
Eu243 O261 2.670 . S
Eu243 O262 2.394 . S
C244 C242 1.500 . S
C244 C245 1.377 . S
C244 C249 1.377 1_556 S
C245 C244 1.377 . S
C245 C246 1.395 1_556 S
C245 H268 0.931 . S
C246 C245 1.395 1_554 S
C246 C247 1.383 . S
C246 H269 0.931 . S
C247 C246 1.383 . S
C247 C248 1.394 . S
C248 C247 1.394 . S
C248 C249 1.378 . S
C248 H270 0.931 . S
C249 C244 1.377 1_554 S
C249 C248 1.378 . S
C249 H271 0.931 . S
C250 O260 1.259 . S
C250 O261 1.270 . S
C251 O262 1.251 . S
C251 O263 1.251 . S
O252 C232 1.257 . S
O252 Eu233 2.473 . S
O253 C232 1.260 . S
O253 Eu233 2.480 . S
O254 Eu233 2.430 . S
O254 C240 1.259 . S
O255 Eu233 2.670 . S
O255 C240 1.270 . S
O255 Eu243 2.355 . S
O256 Eu233 2.394 . S
O256 C241 1.251 . S
O257 C241 1.251 . S
O257 Eu243 2.374 . S
O258 C242 1.257 . S
O258 Eu243 2.473 . S
O259 C242 1.260 . S
O259 Eu243 2.480 . S
O260 Eu243 2.430 . S
O260 C250 1.259 . S
O261 Eu233 2.355 . S
O261 Eu243 2.670 . S
O261 C250 1.270 . S
O262 Eu243 2.394 . S
O262 C251 1.251 . S
O263 Eu233 2.374 . S
O263 C251 1.251 . S
H264 C235 0.931 . S
H265 C236 0.931 . S
H266 C238 0.931 . S
H267 C239 0.931 . S
H268 C245 0.931 . S
H269 C246 0.931 . S
H270 C248 0.931 . S
H271 C249 0.931 . S
C272 Eu273 2.835 . S
C272 C274 1.500 . S
C272 O292 1.257 . S
C272 O293 1.260 . S
Eu273 C272 2.835 . S
Eu273 O292 2.473 . S
Eu273 O293 2.480 . S
Eu273 O294 2.430 . S
Eu273 O295 2.670 1_455 S
Eu273 O296 2.394 . S
Eu273 O301 2.355 . S
Eu273 O303 2.374 1_455 S
C274 C272 1.500 . S
C274 C275 1.377 . S
C274 C279 1.377 . S
C275 C274 1.377 . S
C275 C276 1.395 . S
C275 H304 0.931 . S
C276 C275 1.395 . S
C276 C277 1.383 . S
C276 H305 0.931 . S
C277 C276 1.383 . S
C277 C278 1.394 . S
C278 C277 1.394 . S
C278 C279 1.378 . S
C278 H306 0.931 . S
C279 C274 1.377 . S
C279 C278 1.378 . S
C279 H307 0.931 . S
C280 O294 1.274 . S
C280 O295 1.259 1_455 S
C281 O296 1.251 . S
C281 O297 1.251 . S
C282 Eu283 2.835 . S
C282 C284 1.500 . S
C282 O298 1.257 . S
C282 O299 1.260 . S
Eu283 C282 2.835 . S
Eu283 O295 2.355 . S
Eu283 O297 2.374 1_655 S
Eu283 O298 2.473 . S
Eu283 O299 2.480 . S
Eu283 O300 2.430 . S
Eu283 O301 2.670 1_655 S
Eu283 O302 2.394 . S
C284 C282 1.500 . S
C284 C285 1.377 . S
C284 C289 1.377 1_556 S
C285 C284 1.377 . S
C285 C286 1.395 1_556 S
C285 H308 0.931 . S
C286 C285 1.395 1_554 S
C286 C287 1.383 . S
C286 H309 0.931 . S
C287 C286 1.383 . S
C287 C288 1.394 . S
C288 C287 1.394 . S
C288 C289 1.378 . S
C288 H310 0.931 . S
C289 C284 1.377 1_554 S
C289 C288 1.378 . S
C289 H311 0.931 . S
C290 O300 1.268 . S
C290 O301 1.263 1_655 S
C291 O302 1.251 . S
C291 O303 1.251 . S
O292 C272 1.257 . S
O292 Eu273 2.473 . S
O293 C272 1.260 . S
O293 Eu273 2.480 . S
O294 Eu273 2.430 . S
O294 C280 1.274 . S
O295 Eu273 2.670 1_655 S
O295 C280 1.259 1_655 S
O295 Eu283 2.355 . S
O296 Eu273 2.394 . S
O296 C281 1.251 . S
O297 C281 1.251 . S
O297 Eu283 2.374 1_455 S
O298 C282 1.257 . S
O298 Eu283 2.473 . S
O299 C282 1.260 . S
O299 Eu283 2.480 . S
O300 Eu283 2.430 . S
O300 C290 1.268 . S
O301 Eu273 2.355 . S
O301 Eu283 2.670 1_455 S
O301 C290 1.263 1_455 S
O302 Eu283 2.394 . S
O302 C291 1.251 . S
O303 Eu273 2.374 1_655 S
O303 C291 1.251 . S
H304 C275 0.931 . S
H305 C276 0.931 . S
H306 C278 0.931 . S
H307 C279 0.931 . S
H308 C285 0.931 . S
H309 C286 0.931 . S
H310 C288 0.931 . S
H311 C289 0.931 . S
H312 C320 0.950 . S
H313 C325 0.950 . S
H314 C322 0.950 . S
H315 C324 0.950 . S
H316 C326 0.950 . S
H317 C328 0.950 . S
H318 C330 0.950 . S
H319 C331 0.950 . S
C320 H312 0.950 . S
C320 C321 1.395 . S
C320 C322 1.391 . S
C321 C320 1.395 . S
C321 C325 1.385 1_565 S
C322 H314 0.950 . S
C322 C320 1.391 . S
C322 C323 1.401 . S
C323 C322 1.401 . S
C323 C324 1.398 1_565 S
C323 C329 1.490 1_565 S
C324 H315 0.950 . S
C324 C323 1.398 1_545 S
C324 C325 1.391 . S
C325 H313 0.950 . S
C325 C321 1.385 1_545 S
C325 C324 1.391 . S
C326 H316 0.950 . S
C326 C327 1.386 . S
C326 C328 1.391 . S
C327 C326 1.386 . S
C327 C331 1.393 1_545 S
C328 H317 0.950 . S
C328 C326 1.391 . S
C328 C329 1.411 . S
C329 C323 1.490 1_545 S
C329 C328 1.411 . S
C329 C330 1.390 1_545 S
C330 H318 0.950 . S
C330 C329 1.390 1_565 S
C330 C331 1.391 . S
C331 H319 0.950 . S
C331 C327 1.393 1_565 S
C331 C330 1.391 . S
H332 C340 0.950 . S
H333 C345 0.950 . S
H334 C342 0.950 . S
H335 C344 0.950 . S
H336 C346 0.950 . S
H337 C348 0.950 . S
H338 C350 0.950 . S
H339 C351 0.950 . S
C340 H332 0.950 . S
C340 C341 1.386 . S
C340 C342 1.391 . S
C341 C340 1.386 . S
C341 C345 1.393 . S
C342 H334 0.950 . S
C342 C340 1.391 . S
C342 C343 1.400 . S
C343 C342 1.400 . S
C343 C344 1.398 . S
C343 C349 1.491 . S
C344 H335 0.950 . S
C344 C343 1.398 . S
C344 C345 1.391 . S
C345 H333 0.950 . S
C345 C341 1.393 . S
C345 C344 1.391 . S
C346 H336 0.950 . S
C346 C347 1.386 . S
C346 C348 1.391 . S
C347 C346 1.386 . S
C347 C351 1.393 . S
C348 H337 0.950 . S
C348 C346 1.391 . S
C348 C349 1.400 . S
C349 C343 1.491 . S
C349 C348 1.400 . S
C349 C350 1.398 . S
C350 H338 0.950 . S
C350 C349 1.398 . S
C350 C351 1.391 . S
C351 H339 0.950 . S
C351 C347 1.393 . S
C351 C350 1.391 . S
H352 C360 0.950 . S
H353 C365 0.950 . S
H354 C362 0.950 . S
H355 C364 0.950 . S
H356 C366 0.950 . S
H357 C368 0.950 . S
H358 C370 0.950 . S
H359 C371 0.950 . S
C360 H352 0.950 . S
C360 C361 1.386 . S
C360 C362 1.391 . S
C361 C360 1.386 . S
C361 C365 1.393 . S
C362 H354 0.950 . S
C362 C360 1.391 . S
C362 C363 1.400 . S
C363 C362 1.400 . S
C363 C364 1.398 . S
C363 C369 1.491 . S
C364 H355 0.950 . S
C364 C363 1.398 . S
C364 C365 1.391 . S
C365 H353 0.950 . S
C365 C361 1.393 . S
C365 C364 1.391 . S
C366 H356 0.950 . S
C366 C367 1.386 . S
C366 C368 1.391 . S
C367 C366 1.386 . S
C367 C371 1.393 . S
C368 H357 0.950 . S
C368 C366 1.391 . S
C368 C369 1.400 . S
C369 C363 1.491 . S
C369 C368 1.400 . S
C369 C370 1.398 . S
C370 H358 0.950 . S
C370 C369 1.398 . S
C370 C371 1.391 . S
C371 H359 0.950 . S
C371 C367 1.393 . S
C371 C370 1.391 . S
H372 C380 0.950 . S
H373 C385 0.950 . S
H374 C382 0.950 . S
H375 C384 0.950 . S
H376 C386 0.950 . S
H377 C388 0.950 . S
H378 C390 0.950 . S
H379 C391 0.950 . S
C380 H372 0.950 . S
C380 C381 1.395 . S
C380 C382 1.391 . S
C381 C380 1.395 . S
C381 C385 1.384 1_655 S
C382 H374 0.950 . S
C382 C380 1.391 . S
C382 C383 1.401 1_655 S
C383 C382 1.401 1_455 S
C383 C384 1.397 . S
C383 C389 1.490 . S
C384 H375 0.950 . S
C384 C383 1.397 . S
C384 C385 1.391 . S
C385 H373 0.950 . S
C385 C381 1.384 1_455 S
C385 C384 1.391 . S
C386 H376 0.950 . S
C386 C387 1.386 . S
C386 C388 1.391 . S
C387 C386 1.386 . S
C387 C391 1.393 1_455 S
C388 H377 0.950 . S
C388 C386 1.391 . S
C388 C389 1.420 . S
C389 C383 1.490 . S
C389 C388 1.420 . S
C389 C390 1.382 1_455 S
C390 H378 0.950 . S
C390 C389 1.382 1_655 S
C390 C391 1.391 . S
C391 H379 0.950 . S
C391 C387 1.393 1_655 S
C391 C390 1.391 . S
H392 C400 0.950 . S
H393 C405 0.949 1_565 S
H394 C402 0.950 . S
H395 C404 0.950 . S
H396 C406 0.950 1_554 S
H397 C408 0.950 . S
H398 C410 0.950 . S
H399 C411 0.949 1_545 S
C400 H392 0.950 . S
C400 C401 1.388 . S
C400 C402 1.391 . S
C401 C400 1.388 . S
C401 C405 1.392 . S
C402 H394 0.950 . S
C402 C400 1.391 . S
C402 C403 1.401 . S
C403 C402 1.401 . S
C403 C404 1.398 . S
C403 C409 1.490 1_545 S
C404 H395 0.950 . S
C404 C403 1.398 . S
C404 C405 1.391 . S
C405 H393 0.949 1_545 S
C405 C401 1.392 . S
C405 C404 1.391 . S
C406 H396 0.950 1_556 S
C406 C407 1.386 . S
C406 C408 1.391 1_556 S
C407 C406 1.386 . S
C407 C411 1.393 . S
C408 H397 0.950 . S
C408 C406 1.391 1_554 S
C408 C409 1.402 . S
C409 C403 1.490 1_565 S
C409 C408 1.402 . S
C409 C410 1.398 1_554 S
C410 H398 0.950 . S
C410 C409 1.398 1_556 S
C410 C411 1.391 . S
C411 H399 0.949 1_565 S
C411 C407 1.393 . S
C411 C410 1.391 . S
H412 C420 0.950 . S
H413 C425 0.950 . S
H414 C422 0.950 . S
H415 C424 0.950 . S
H416 C426 0.950 . S
H417 C428 0.950 . S
H418 C430 0.950 . S
H419 C431 0.950 . S
C420 H412 0.950 . S
C420 C421 1.386 . S
C420 C422 1.391 . S
C421 C420 1.386 . S
C421 C425 1.393 . S
C422 H414 0.950 . S
C422 C420 1.391 . S
C422 C423 1.400 . S
C423 C422 1.400 . S
C423 C424 1.398 . S
C423 C429 1.491 . S
C424 H415 0.950 . S
C424 C423 1.398 . S
C424 C425 1.391 . S
C425 H413 0.950 . S
C425 C421 1.393 . S
C425 C424 1.391 . S
C426 H416 0.950 . S
C426 C427 1.386 . S
C426 C428 1.391 1_556 S
C427 C426 1.386 . S
C427 C431 1.393 . S
C428 H417 0.950 . S
C428 C426 1.391 1_554 S
C428 C429 1.400 . S
C429 C423 1.491 . S
C429 C428 1.400 . S
C429 C430 1.398 1_554 S
C430 H418 0.950 . S
C430 C429 1.398 1_556 S
C430 C431 1.391 . S
C431 H419 0.950 . S
C431 C427 1.393 . S
C431 C430 1.391 . S
H432 C440 0.950 . S
H433 C445 0.950 . S
H434 C442 0.950 . S
H435 C444 0.950 . S
H436 C446 0.950 1_554 S
H437 C448 0.950 . S
H438 C450 0.950 . S
H439 C451 0.950 . S
C440 H432 0.950 . S
C440 C441 1.386 . S
C440 C442 1.391 . S
C441 C440 1.386 . S
C441 C445 1.393 . S
C442 H434 0.950 . S
C442 C440 1.391 . S
C442 C443 1.400 . S
C443 C442 1.400 . S
C443 C444 1.398 . S
C443 C449 1.491 . S
C444 H435 0.950 . S
C444 C443 1.398 . S
C444 C445 1.391 . S
C445 H433 0.950 . S
C445 C441 1.393 . S
C445 C444 1.391 . S
C446 H436 0.950 1_556 S
C446 C447 1.386 . S
C446 C448 1.391 1_556 S
C447 C446 1.386 . S
C447 C451 1.393 . S
C448 H437 0.950 . S
C448 C446 1.391 1_554 S
C448 C449 1.400 . S
C449 C443 1.491 . S
C449 C448 1.400 . S
C449 C450 1.398 1_554 S
C450 H438 0.950 . S
C450 C449 1.398 1_556 S
C450 C451 1.391 . S
C451 H439 0.950 . S
C451 C447 1.393 . S
C451 C450 1.391 . S
H452 C460 0.950 . S
H453 C465 0.950 . S
H454 C462 0.950 . S
H455 C464 0.950 . S
H456 C466 0.950 1_554 S
H457 C468 0.950 . S
H458 C470 0.950 . S
H459 C471 0.950 . S
C460 H452 0.950 . S
C460 C461 1.381 1_655 S
C460 C462 1.391 . S
C461 C460 1.381 1_455 S
C461 C465 1.398 . S
C462 H454 0.950 . S
C462 C460 1.391 . S
C462 C463 1.401 1_655 S
C463 C462 1.401 1_455 S
C463 C464 1.397 . S
C463 C469 1.489 1_455 S
C464 H455 0.950 . S
C464 C463 1.397 . S
C464 C465 1.391 . S
C465 H453 0.950 . S
C465 C461 1.398 . S
C465 C464 1.391 . S
C466 H456 0.950 1_556 S
C466 C467 1.386 1_455 S
C466 C468 1.391 1_556 S
C467 C466 1.386 1_655 S
C467 C471 1.393 . S
C468 H457 0.950 . S
C468 C466 1.391 1_554 S
C468 C469 1.394 1_455 S
C469 C463 1.489 1_655 S
C469 C468 1.394 1_655 S
C469 C470 1.409 1_554 S
C470 H458 0.950 . S
C470 C469 1.409 1_556 S
C470 C471 1.391 . S
C471 H459 0.950 . S
C471 C467 1.393 . S
C471 C470 1.391 . S
H472 C480 0.950 . S
H473 C485 0.950 . S
H474 C482 0.950 . S
H475 C484 0.950 . S
H476 C486 0.950 1_455 S
H477 C488 0.917 1_455 S
H478 C490 0.950 . S
H479 C491 0.950 . S
C480 H472 0.950 . S
C480 C481 1.355 1_655 S
C480 C482 1.391 . S
C481 C480 1.355 1_455 S
C481 C485 1.416 . S
C482 H474 0.950 . S
C482 C480 1.391 . S
C482 C483 1.400 . S
C483 C482 1.400 . S
C483 C484 1.398 1_655 S
C483 C489 1.491 . S
C484 H475 0.950 . S
C484 C483 1.398 1_455 S
C484 C485 1.391 . S
C485 H473 0.950 . S
C485 C481 1.416 . S
C485 C484 1.391 . S
C486 H476 0.950 1_655 S
C486 C487 1.386 . S
C486 C488 1.401 . S
C487 C486 1.386 . S
C487 C491 1.393 . S
C488 H477 0.917 1_655 S
C488 C486 1.401 . S
C488 C489 1.425 . S
C489 C483 1.491 . S
C489 C488 1.425 . S
C489 C490 1.398 . S
C490 H478 0.950 . S
C490 C489 1.398 . S
C490 C491 1.391 . S
C491 H479 0.950 . S
C491 C487 1.393 . S
C491 C490 1.391 . S
H492 C500 0.950 . S
H493 C505 0.950 . S
H494 C502 0.950 . S
H495 C504 0.950 . S
H496 C506 0.950 . S
H497 C508 0.950 . S
H498 C510 0.950 1_545 S
H499 C511 0.950 1_545 S
C500 H492 0.950 . S
C500 C501 1.396 . S
C500 C502 1.391 . S
C501 C500 1.396 . S
C501 C505 1.378 1_545 S
C502 H494 0.950 . S
C502 C500 1.391 . S
C502 C503 1.400 1_545 S
C503 C502 1.400 1_565 S
C503 C504 1.398 . S
C503 C509 1.491 . S
C504 H495 0.950 . S
C504 C503 1.398 . S
C504 C505 1.391 . S
C505 H493 0.950 . S
C505 C501 1.378 1_565 S
C505 C504 1.391 . S
C506 H496 0.950 . S
C506 C507 1.386 . S
C506 C508 1.391 . S
C507 C506 1.386 . S
C507 C511 1.393 . S
C508 H497 0.950 . S
C508 C506 1.391 . S
C508 C509 1.400 . S
C509 C503 1.491 . S
C509 C508 1.400 . S
C509 C510 1.398 . S
C510 H498 0.950 1_565 S
C510 C509 1.398 . S
C510 C511 1.391 . S
C511 H499 0.950 1_565 S
C511 C507 1.393 . S
C511 C510 1.391 . S
H512 C520 0.950 . S
H513 C525 0.950 . S
H514 C522 0.950 . S
H515 C524 0.950 . S
H516 C526 0.950 . S
H517 C528 0.950 . S
H518 C530 0.950 . S
H519 C531 0.950 . S
C520 H512 0.950 . S
C520 C521 1.386 . S
C520 C522 1.391 . S
C521 C520 1.386 . S
C521 C525 1.393 . S
C522 H514 0.950 . S
C522 C520 1.391 . S
C522 C523 1.400 . S
C523 C522 1.400 . S
C523 C524 1.398 . S
C523 C529 1.491 . S
C524 H515 0.950 . S
C524 C523 1.398 . S
C524 C525 1.391 . S
C525 H513 0.950 . S
C525 C521 1.393 . S
C525 C524 1.391 . S
C526 H516 0.950 . S
C526 C527 1.386 . S
C526 C528 1.391 . S
C527 C526 1.386 . S
C527 C531 1.393 . S
C528 H517 0.950 . S
C528 C526 1.391 . S
C528 C529 1.400 . S
C529 C523 1.491 . S
C529 C528 1.400 . S
C529 C530 1.398 . S
C530 H518 0.950 . S
C530 C529 1.398 . S
C530 C531 1.391 . S
C531 H519 0.950 . S
C531 C527 1.393 . S
C531 C530 1.391 . S
H532 C540 0.950 . S
H533 C545 0.950 . S
H534 C542 0.950 . S
H535 C544 0.950 . S
H536 C546 0.950 . S
H537 C548 0.950 . S
H538 C550 0.950 . S
H539 C551 0.950 . S
C540 H532 0.950 . S
C540 C541 1.386 . S
C540 C542 1.391 . S
C541 C540 1.386 . S
C541 C545 1.393 . S
C542 H534 0.950 . S
C542 C540 1.391 . S
C542 C543 1.400 . S
C543 C542 1.400 . S
C543 C544 1.398 . S
C543 C549 1.491 . S
C544 H535 0.950 . S
C544 C543 1.398 . S
C544 C545 1.391 . S
C545 H533 0.950 . S
C545 C541 1.393 . S
C545 C544 1.391 . S
C546 H536 0.950 . S
C546 C547 1.386 . S
C546 C548 1.391 . S
C547 C546 1.386 . S
C547 C551 1.393 . S
C548 H537 0.950 . S
C548 C546 1.391 . S
C548 C549 1.400 . S
C549 C543 1.491 . S
C549 C548 1.400 . S
C549 C550 1.398 . S
C550 H538 0.950 . S
C550 C549 1.398 . S
C550 C551 1.391 . S
C551 H539 0.950 . S
C551 C547 1.393 . S
C551 C550 1.391 . S
H552 C560 0.950 . S
H553 C565 0.950 . S
H554 C562 0.950 . S
H555 C564 0.950 . S
H556 C566 0.950 1_655 S
H557 C568 0.984 . S
H558 C570 0.950 . S
H559 C571 0.950 . S
C560 H552 0.950 . S
C560 C561 1.345 1_455 S
C560 C562 1.391 . S
C561 C560 1.345 1_655 S
C561 C565 1.424 . S
C562 H554 0.950 . S
C562 C560 1.391 . S
C562 C563 1.400 . S
C563 C562 1.400 . S
C563 C564 1.398 1_455 S
C563 C569 1.491 . S
C564 H555 0.950 . S
C564 C563 1.398 1_655 S
C564 C565 1.391 . S
C565 H553 0.950 . S
C565 C561 1.424 . S
C565 C564 1.391 . S
C566 H556 0.950 1_455 S
C566 C567 1.386 . S
C566 C568 1.384 1_455 S
C567 C566 1.386 . S
C567 C571 1.393 . S
C568 H557 0.984 . S
C568 C566 1.384 1_655 S
C568 C569 1.376 1_655 S
C569 C563 1.491 . S
C569 C568 1.376 1_455 S
C569 C570 1.398 . S
C570 H558 0.950 . S
C570 C569 1.398 . S
C570 C571 1.391 . S
C571 H559 0.950 . S
C571 C567 1.393 . S
C571 C570 1.391 . S
H572 C580 0.950 . S
H573 C585 0.950 . S
H574 C582 0.950 . S
H575 C584 0.950 . S
H576 C586 0.950 . S
H577 C588 0.950 . S
H578 C590 0.950 1_565 S
H579 C591 0.950 . S
C580 H572 0.950 . S
C580 C581 1.386 . S
C580 C582 1.391 . S
C581 C580 1.386 . S
C581 C585 1.393 1_565 S
C582 H574 0.950 . S
C582 C580 1.391 . S
C582 C583 1.400 1_565 S
C583 C582 1.400 1_545 S
C583 C584 1.398 . S
C583 C589 1.491 . S
C584 H575 0.950 . S
C584 C583 1.398 . S
C584 C585 1.391 . S
C585 H573 0.950 . S
C585 C581 1.393 1_545 S
C585 C584 1.391 . S
C586 H576 0.950 . S
C586 C587 1.386 . S
C586 C588 1.391 . S
C587 C586 1.386 . S
C587 C591 1.393 . S
C588 H577 0.950 . S
C588 C586 1.391 . S
C588 C589 1.400 . S
C589 C583 1.491 . S
C589 C588 1.400 . S
C589 C590 1.398 . S
C590 H578 0.950 1_545 S
C590 C589 1.398 . S
C590 C591 1.391 . S
C591 H579 0.950 . S
C591 C587 1.393 . S
C591 C590 1.391 . S
H592 C600 0.950 . S
H593 C605 0.950 . S
H594 C602 0.950 . S
H595 C604 0.950 . S
H596 C606 0.950 . S
H597 C608 0.950 . S
H598 C610 0.950 . S
H599 C611 0.950 . S
C600 H592 0.950 . S
C600 C601 1.386 . S
C600 C602 1.391 . S
C601 C600 1.386 . S
C601 C605 1.393 . S
C602 H594 0.950 . S
C602 C600 1.391 . S
C602 C603 1.400 . S
C603 C602 1.400 . S
C603 C604 1.398 . S
C603 C609 1.491 . S
C604 H595 0.950 . S
C604 C603 1.398 . S
C604 C605 1.391 . S
C605 H593 0.950 . S
C605 C601 1.393 . S
C605 C604 1.391 . S
C606 H596 0.950 . S
C606 C607 1.386 . S
C606 C608 1.391 . S
C607 C606 1.386 . S
C607 C611 1.393 . S
C608 H597 0.950 . S
C608 C606 1.391 . S
C608 C609 1.400 . S
C609 C603 1.491 . S
C609 C608 1.400 . S
C609 C610 1.398 . S
C610 H598 0.950 . S
C610 C609 1.398 . S
C610 C611 1.391 . S
C611 H599 0.950 . S
C611 C607 1.393 . S
C611 C610 1.391 . S
H612 C620 0.950 . S
H613 C625 0.950 . S
H614 C622 0.950 . S
H615 C624 0.950 . S
H616 C626 0.950 . S
H617 C628 0.950 . S
H618 C630 0.950 . S
H619 C631 0.950 . S
C620 H612 0.950 . S
C620 C621 1.386 . S
C620 C622 1.391 . S
C621 C620 1.386 . S
C621 C625 1.393 . S
C622 H614 0.950 . S
C622 C620 1.391 . S
C622 C623 1.400 . S
C623 C622 1.400 . S
C623 C624 1.398 . S
C623 C629 1.491 . S
C624 H615 0.950 . S
C624 C623 1.398 . S
C624 C625 1.391 . S
C625 H613 0.950 . S
C625 C621 1.393 . S
C625 C624 1.391 . S
C626 H616 0.950 . S
C626 C627 1.386 . S
C626 C628 1.391 . S
C627 C626 1.386 . S
C627 C631 1.393 . S
C628 H617 0.950 . S
C628 C626 1.391 . S
C628 C629 1.400 . S
C629 C623 1.491 . S
C629 C628 1.400 . S
C629 C630 1.398 . S
C630 H618 0.950 . S
C630 C629 1.398 . S
C630 C631 1.391 . S
C631 H619 0.950 . S
C631 C627 1.393 . S
C631 C630 1.391 . S
H632 C640 0.950 . S
H633 C645 0.950 . S
H634 C642 0.950 . S
H635 C644 0.950 . S
H636 C646 0.950 . S
H637 C648 0.950 . S
H638 C650 0.950 . S
H639 C651 0.950 . S
C640 H632 0.950 . S
C640 C641 1.386 . S
C640 C642 1.391 . S
C641 C640 1.386 . S
C641 C645 1.393 1_455 S
C642 H634 0.950 . S
C642 C640 1.391 . S
C642 C643 1.400 . S
C643 C642 1.400 . S
C643 C644 1.398 1_455 S
C643 C649 1.491 . S
C644 H635 0.950 . S
C644 C643 1.398 1_655 S
C644 C645 1.391 . S
C645 H633 0.950 . S
C645 C641 1.393 1_655 S
C645 C644 1.391 . S
C646 H636 0.950 . S
C646 C647 1.386 1_655 S
C646 C648 1.391 . S
C647 C646 1.386 1_455 S
C647 C651 1.393 . S
C648 H637 0.950 . S
C648 C646 1.391 . S
C648 C649 1.400 1_655 S
C649 C643 1.491 . S
C649 C648 1.400 1_455 S
C649 C650 1.398 . S
C650 H638 0.950 . S
C650 C649 1.398 . S
C650 C651 1.391 . S
C651 H639 0.950 . S
C651 C647 1.393 . S
C651 C650 1.391 . S
H652 C660 0.950 . S
H653 C665 0.950 1_554 S
H654 C662 0.950 . S
H655 C664 0.950 . S
H656 C666 0.950 . S
H657 C668 0.950 . S
H658 C670 0.950 . S
H659 C671 0.950 . S
C660 H652 0.950 . S
C660 C661 1.386 . S
C660 C662 1.391 . S
C661 C660 1.386 . S
C661 C665 1.393 1_545 S
C662 H654 0.950 . S
C662 C660 1.391 . S
C662 C663 1.400 . S
C663 C662 1.400 . S
C663 C664 1.398 1_545 S
C663 C669 1.491 . S
C664 H655 0.950 . S
C664 C663 1.398 1_565 S
C664 C665 1.391 . S
C665 H653 0.950 1_556 S
C665 C661 1.393 1_565 S
C665 C664 1.391 . S
C666 H656 0.950 . S
C666 C667 1.385 1_565 S
C666 C668 1.391 . S
C667 C666 1.385 1_545 S
C667 C671 1.393 . S
C668 H657 0.950 . S
C668 C666 1.391 . S
C668 C669 1.400 1_565 S
C669 C663 1.491 . S
C669 C668 1.400 1_545 S
C669 C670 1.398 . S
C670 H658 0.950 . S
C670 C669 1.398 . S
C670 C671 1.391 . S
C671 H659 0.950 . S
C671 C667 1.393 . S
C671 C670 1.391 . S
H672 C680 0.950 . S
H673 C685 0.950 . S
H674 C682 0.950 . S
H675 C684 0.950 . S
H676 C686 0.950 . S
H677 C688 0.950 . S
H678 C690 0.950 . S
H679 C691 0.950 . S
C680 H672 0.950 . S
C680 C681 1.386 . S
C680 C682 1.391 . S
C681 C680 1.386 . S
C681 C685 1.393 . S
C682 H674 0.950 . S
C682 C680 1.391 . S
C682 C683 1.400 . S
C683 C682 1.400 . S
C683 C684 1.398 . S
C683 C689 1.491 . S
C684 H675 0.950 . S
C684 C683 1.398 . S
C684 C685 1.391 . S
C685 H673 0.950 . S
C685 C681 1.393 . S
C685 C684 1.391 . S
C686 H676 0.950 . S
C686 C687 1.386 . S
C686 C688 1.391 . S
C687 C686 1.386 . S
C687 C691 1.393 . S
C688 H677 0.950 . S
C688 C686 1.391 . S
C688 C689 1.400 . S
C689 C683 1.491 . S
C689 C688 1.400 . S
C689 C690 1.398 . S
C690 H678 0.950 . S
C690 C689 1.398 . S
C690 C691 1.391 . S
C691 H679 0.950 . S
C691 C687 1.393 . S
C691 C690 1.391 . S
H692 C700 0.950 . S
H693 C705 0.950 . S
H694 C702 0.950 . S
H695 C704 0.950 . S
H696 C706 0.950 . S
H697 C708 0.950 . S
H698 C710 0.950 . S
H699 C711 0.950 . S
C700 H692 0.950 . S
C700 C701 1.386 . S
C700 C702 1.391 . S
C701 C700 1.386 . S
C701 C705 1.393 . S
C702 H694 0.950 . S
C702 C700 1.391 . S
C702 C703 1.400 . S
C703 C702 1.400 . S
C703 C704 1.398 . S
C703 C709 1.491 . S
C704 H695 0.950 . S
C704 C703 1.398 . S
C704 C705 1.391 . S
C705 H693 0.950 . S
C705 C701 1.393 . S
C705 C704 1.391 . S
C706 H696 0.950 . S
C706 C707 1.386 . S
C706 C708 1.391 . S
C707 C706 1.386 . S
C707 C711 1.393 . S
C708 H697 0.950 . S
C708 C706 1.391 . S
C708 C709 1.400 . S
C709 C703 1.491 . S
C709 C708 1.400 . S
C709 C710 1.398 . S
C710 H698 0.950 . S
C710 C709 1.398 . S
C710 C711 1.391 . S
C711 H699 0.950 . S
C711 C707 1.393 . S
C711 C710 1.391 . S
H712 C720 0.950 . S
H713 C725 0.948 1_455 S
H714 C722 0.950 . S
H715 C724 0.953 . S
H716 C726 0.950 . S
H717 C728 0.949 . S
H718 C730 0.950 . S
H719 C731 0.950 . S
C720 H712 0.950 . S
C720 C721 1.386 . S
C720 C722 1.391 . S
C721 C720 1.386 . S
C721 C725 1.394 . S
C722 H714 0.950 . S
C722 C720 1.391 . S
C722 C723 1.400 . S
C723 C722 1.400 . S
C723 C724 1.398 . S
C723 C729 1.491 . S
C724 H715 0.953 . S
C724 C723 1.398 . S
C724 C725 1.391 . S
C725 H713 0.948 1_655 S
C725 C721 1.394 . S
C725 C724 1.391 . S
C726 H716 0.950 . S
C726 C727 1.386 . S
C726 C728 1.391 . S
C727 C726 1.386 . S
C727 C731 1.393 . S
C728 H717 0.949 . S
C728 C726 1.391 . S
C728 C729 1.400 . S
C729 C723 1.491 . S
C729 C728 1.400 . S
C729 C730 1.398 . S
C730 H718 0.950 . S
C730 C729 1.398 . S
C730 C731 1.391 . S
C731 H719 0.950 . S
C731 C727 1.393 . S
C731 C730 1.391 . S
H732 C740 0.950 . S
H733 C745 0.950 . S
H734 C742 0.950 . S
H735 C744 0.950 . S
H736 C746 0.950 . S
H737 C748 0.950 . S
H738 C750 0.950 . S
H739 C751 0.950 . S
C740 H732 0.950 . S
C740 C741 1.386 . S
C740 C742 1.391 . S
C741 C740 1.386 . S
C741 C745 1.393 1_565 S
C742 H734 0.950 . S
C742 C740 1.391 . S
C742 C743 1.400 . S
C743 C742 1.400 . S
C743 C744 1.398 1_565 S
C743 C749 1.491 . S
C744 H735 0.950 . S
C744 C743 1.398 1_545 S
C744 C745 1.391 . S
C745 H733 0.950 . S
C745 C741 1.393 1_545 S
C745 C744 1.391 . S
C746 H736 0.950 . S
C746 C747 1.386 1_545 S
C746 C748 1.391 . S
C747 C746 1.386 1_565 S
C747 C751 1.393 . S
C748 H737 0.950 . S
C748 C746 1.391 . S
C748 C749 1.400 1_545 S
C749 C743 1.491 . S
C749 C748 1.400 1_565 S
C749 C750 1.398 . S
C750 H738 0.950 . S
C750 C749 1.398 . S
C750 C751 1.391 . S
C751 H739 0.950 . S
C751 C747 1.393 . S
C751 C750 1.391 . S
H752 C760 0.950 . S
H753 C765 0.950 . S
H754 C762 0.950 . S
H755 C764 0.950 . S
H756 C766 0.950 . S
H757 C768 0.950 . S
H758 C770 0.950 . S
H759 C771 0.950 . S
C760 H752 0.950 . S
C760 C761 1.386 . S
C760 C762 1.391 . S
C761 C760 1.386 . S
C761 C765 1.393 . S
C762 H754 0.950 . S
C762 C760 1.391 . S
C762 C763 1.400 . S
C763 C762 1.400 . S
C763 C764 1.398 . S
C763 C769 1.491 . S
C764 H755 0.950 . S
C764 C763 1.398 . S
C764 C765 1.391 . S
C765 H753 0.950 . S
C765 C761 1.393 . S
C765 C764 1.391 . S
C766 H756 0.950 . S
C766 C767 1.386 . S
C766 C768 1.391 . S
C767 C766 1.386 . S
C767 C771 1.393 . S
C768 H757 0.950 . S
C768 C766 1.391 . S
C768 C769 1.400 . S
C769 C763 1.491 . S
C769 C768 1.400 . S
C769 C770 1.398 . S
C770 H758 0.950 . S
C770 C769 1.398 . S
C770 C771 1.391 . S
C771 H759 0.950 . S
C771 C767 1.393 . S
C771 C770 1.391 . S
H772 C780 0.950 . S
H773 C785 0.950 . S
H774 C782 0.950 . S
H775 C784 0.950 . S
H776 C786 0.950 . S
H777 C788 0.950 . S
H778 C790 0.950 . S
H779 C791 0.950 . S
C780 H772 0.950 . S
C780 C781 1.386 . S
C780 C782 1.391 . S
C781 C780 1.386 . S
C781 C785 1.393 . S
C782 H774 0.950 . S
C782 C780 1.391 . S
C782 C783 1.400 . S
C783 C782 1.400 . S
C783 C784 1.398 . S
C783 C789 1.491 . S
C784 H775 0.950 . S
C784 C783 1.398 . S
C784 C785 1.391 . S
C785 H773 0.950 . S
C785 C781 1.393 . S
C785 C784 1.391 . S
C786 H776 0.950 . S
C786 C787 1.386 . S
C786 C788 1.391 . S
C787 C786 1.386 . S
C787 C791 1.393 . S
C788 H777 0.950 . S
C788 C786 1.391 . S
C788 C789 1.400 . S
C789 C783 1.491 . S
C789 C788 1.400 . S
C789 C790 1.398 . S
C790 H778 0.950 . S
C790 C789 1.398 . S
C790 C791 1.391 . S
C791 H779 0.950 . S
C791 C787 1.393 . S
C791 C790 1.391 . S
C321 C125 1.927 . S
C327 C170 1.972 1_545 S
C347 C210 1.984 . S
C341 C144 1.934 . S
C367 C250 1.988 . S
C361 C87 1.944 . S
C387 C290 1.981 1_455 S
C381 C106 1.932 . S
C407 C160 1.973 1_565 S
C401 C49 1.934 1_545 S
C421 C68 1.937 . S
C427 C200 1.986 . S
C441 C11 1.942 . S
C447 C240 1.985 . S
C461 C30 1.936 1_455 S
C467 C280 1.979 1_655 S
C487 C157 0.478 . S
C481 C97 0.500 . S
C507 C197 0.498 . S
C501 C116 0.562 . S
C527 C237 0.490 . S
C521 C135 0.523 . S
C541 C78 0.515 . S
C547 C277 0.476 . S
C561 C21 0.569 . S
C567 C167 0.504 . S
C587 C207 0.515 . S
C581 C40 0.530 . S
C607 C247 0.524 . S
C601 C59 0.586 . S
C621 C2 0.579 . S
C627 C287 0.530 . S
C641 C101 2.056 1_455 S
C647 C161 2.262 . S
C661 C120 2.043 1_545 S
C667 C201 2.249 . S
C687 C241 2.251 . S
C681 C139 2.048 . S
C707 C281 2.261 . S
C701 C82 2.065 . S
C721 C25 2.069 . S
C727 C171 2.274 . S
C747 C211 2.250 . S
C741 C44 2.056 . S
C767 C251 2.239 . S
C761 C63 2.040 . S
C781 C6 2.064 . S
C787 C291 2.265 . S
