# Generated by pormake.
# Topology wbl, (4,4)-cn, num edge types: 1
# Building blocks:
#     Node 0, Type 0, BuildingBlock: MIFKUJ_clean_linker_1, # of connection points: 4
#     Node 1, Type 0, BuildingBlock: MIFKUJ_clean_linker_1, # of connection points: 4
#     Node 2, Type 0, BuildingBlock: MIFKUJ_clean_linker_1, # of connection points: 4
#     Node 3, Type 0, BuildingBlock: MIFKUJ_clean_linker_1, # of connection points: 4
#     Node 4, Type 0, BuildingBlock: MIFKUJ_clean_linker_1, # of connection points: 4
#     Node 5, Type 0, BuildingBlock: MIFKUJ_clean_linker_1, # of connection points: 4
#     Node 6, Type 0, BuildingBlock: MIFKUJ_clean_linker_1, # of connection points: 4
#     Node 7, Type 0, BuildingBlock: MIFKUJ_clean_linker_1, # of connection points: 4
#     Node 8, Type 1, BuildingBlock: KUFVIS_clean_sbu_0, # of connection points: 4
#     Node 9, Type 1, BuildingBlock: KUFVIS_clean_sbu_0, # of connection points: 4
#     Node 10, Type 1, BuildingBlock: KUFVIS_clean_sbu_0, # of connection points: 4
#     Node 11, Type 1, BuildingBlock: KUFVIS_clean_sbu_0, # of connection points: 4
#     Node 12, Type 1, BuildingBlock: KUFVIS_clean_sbu_0, # of connection points: 4
#     Node 13, Type 1, BuildingBlock: KUFVIS_clean_sbu_0, # of connection points: 4
#     Node 14, Type 1, BuildingBlock: KUFVIS_clean_sbu_0, # of connection points: 4
#     Node 15, Type 1, BuildingBlock: KUFVIS_clean_sbu_0, # of connection points: 4
#     Edge 16, Type (0, 1), BuildingBlock: AJUNOK_clean_linker_0, # of connection points: 2
#     Edge 17, Type (0, 1), BuildingBlock: AJUNOK_clean_linker_0, # of connection points: 2
#     Edge 18, Type (0, 1), BuildingBlock: AJUNOK_clean_linker_0, # of connection points: 2
#     Edge 19, Type (0, 1), BuildingBlock: AJUNOK_clean_linker_0, # of connection points: 2
#     Edge 20, Type (0, 1), BuildingBlock: AJUNOK_clean_linker_0, # of connection points: 2
#     Edge 21, Type (0, 1), BuildingBlock: AJUNOK_clean_linker_0, # of connection points: 2
#     Edge 22, Type (0, 1), BuildingBlock: AJUNOK_clean_linker_0, # of connection points: 2
#     Edge 23, Type (0, 1), BuildingBlock: AJUNOK_clean_linker_0, # of connection points: 2
#     Edge 24, Type (0, 1), BuildingBlock: AJUNOK_clean_linker_0, # of connection points: 2
#     Edge 25, Type (0, 1), BuildingBlock: AJUNOK_clean_linker_0, # of connection points: 2
#     Edge 26, Type (0, 1), BuildingBlock: AJUNOK_clean_linker_0, # of connection points: 2
#     Edge 27, Type (0, 1), BuildingBlock: AJUNOK_clean_linker_0, # of connection points: 2
#     Edge 28, Type (0, 1), BuildingBlock: AJUNOK_clean_linker_0, # of connection points: 2
#     Edge 29, Type (0, 1), BuildingBlock: AJUNOK_clean_linker_0, # of connection points: 2
#     Edge 30, Type (0, 1), BuildingBlock: AJUNOK_clean_linker_0, # of connection points: 2
#     Edge 31, Type (0, 1), BuildingBlock: AJUNOK_clean_linker_0, # of connection points: 2
#     Edge 32, Type (0, 1), BuildingBlock: AJUNOK_clean_linker_0, # of connection points: 2
#     Edge 33, Type (0, 1), BuildingBlock: AJUNOK_clean_linker_0, # of connection points: 2
#     Edge 34, Type (0, 1), BuildingBlock: AJUNOK_clean_linker_0, # of connection points: 2
#     Edge 35, Type (0, 1), BuildingBlock: AJUNOK_clean_linker_0, # of connection points: 2
#     Edge 36, Type (0, 1), BuildingBlock: AJUNOK_clean_linker_0, # of connection points: 2
#     Edge 37, Type (0, 1), BuildingBlock: AJUNOK_clean_linker_0, # of connection points: 2
#     Edge 38, Type (0, 1), BuildingBlock: AJUNOK_clean_linker_0, # of connection points: 2
#     Edge 39, Type (0, 1), BuildingBlock: AJUNOK_clean_linker_0, # of connection points: 2
#     Edge 40, Type (0, 1), BuildingBlock: AJUNOK_clean_linker_0, # of connection points: 2
#     Edge 41, Type (0, 1), BuildingBlock: AJUNOK_clean_linker_0, # of connection points: 2
#     Edge 42, Type (0, 1), BuildingBlock: AJUNOK_clean_linker_0, # of connection points: 2
#     Edge 43, Type (0, 1), BuildingBlock: AJUNOK_clean_linker_0, # of connection points: 2
#     Edge 44, Type (0, 1), BuildingBlock: AJUNOK_clean_linker_0, # of connection points: 2
#     Edge 45, Type (0, 1), BuildingBlock: AJUNOK_clean_linker_0, # of connection points: 2
#     Edge 46, Type (0, 1), BuildingBlock: AJUNOK_clean_linker_0, # of connection points: 2
#     Edge 47, Type (0, 1), BuildingBlock: AJUNOK_clean_linker_0, # of connection points: 2
# Relax obj value: 0.147
# Max RMSD: 0.143
# Mean RMSD: 0.132
data_MOF--net-wbl--node1-KUFVIS_clean_sbu_0--node2-MIFKUJ_clean_linker_1--edge1-AJUNOK_clean_linker_0
_symmetry_space_group_name_H-M    P1
_symmetry_Int_Tables_number       1
_symmetry_cell_setting            triclinic
loop_
_symmetry_equiv_pos_as_xyz
'x, y, z'
_cell_length_a     35.87337
_cell_length_b     35.879633
_cell_length_c     58.071645
_cell_angle_alpha  90.111463
_cell_angle_beta   90.540703
_cell_angle_gamma 89.890097
loop_
_atom_site_label
_atom_site_type_symbol
_atom_site_fract_x
_atom_site_fract_y
_atom_site_fract_z
_atom_type_partial_charge
H0 H 0.01385 0.10879 0.34781 0.0
H1 H 0.97898 0.14243 0.37732 0.0
H2 H 0.89209 0.05939 0.37337 0.0
H3 H 0.92663 0.02666 0.3432 0.0
H4 H 0.02699 0.02455 0.36005 0.0
H5 H 0.96755 0.10894 0.3044 0.0
H6 H 0.90783 0.13071 0.28903 0.0
H7 H 0.88808 0.02185 0.25946 0.0
H8 H 0.94618 0.99936 0.27658 0.0
H9 H 0.0434 0.9381 0.27421 0.0
H10 H 0.09524 0.90433 0.25597 0.0
H11 H 0.17375 0.9751 0.29204 0.0
H12 H 0.12245 0.00916 0.30932 0.0
H13 H 0.018 0.01086 0.27514 0.0
H14 H 0.04467 0.92351 0.33553 0.0
H15 H 0.07562 0.88544 0.36489 0.0
H16 H 0.14098 0.98084 0.38608 0.0
H17 H 0.1081 0.01921 0.35759 0.0
C18 C 0.97264 0.06545 0.34326 0.0
C19 C 0.98666 0.0986 0.35276 0.0
C20 C 0.9668 0.11767 0.36967 0.0
C21 C 0.93278 0.10361 0.37771 0.0
C22 C 0.9178 0.07143 0.36724 0.0
C23 C 0.93757 0.05254 0.35009 0.0
C24 C 0.99755 0.04157 0.32939 0.0
C25 C 0.02536 0.02213 0.34142 0.0
C26 C 0.99351 0.03637 0.30529 0.0
C27 C 0.961 0.05208 0.29236 0.0
C28 C 0.95031 0.08964 0.29473 0.0
C29 C 0.91638 0.10233 0.2855 0.0
C30 C 0.89294 0.07799 0.27308 0.0
C31 C 0.90513 0.0412 0.26926 0.0
C32 C 0.93862 0.02837 0.27887 0.0
C33 C 0.07901 0.97588 0.29338 0.0
C34 C 0.07181 0.9465 0.27793 0.0
C35 C 0.10144 0.92702 0.26771 0.0
C36 C 0.13868 0.93681 0.2727 0.0
C37 C 0.1455 0.96692 0.28767 0.0
C38 C 0.11612 0.98625 0.29776 0.0
C39 C 0.04859 0.99538 0.30587 0.0
C40 C 0.01973 0.01373 0.29371 0.0
C41 C 0.04994 0.99824 0.3301 0.0
C42 C 0.07422 0.97408 0.34442 0.0
C43 C 0.06635 0.93591 0.34615 0.0
C44 C 0.0843 0.91411 0.36284 0.0
C45 C 0.11097 0.93002 0.37779 0.0
C46 C 0.12034 0.96782 0.37498 0.0
C47 C 0.10181 0.98975 0.35864 0.0
H48 H 0.01043 0.43435 0.52615 0.0
H49 H 0.97984 0.38047 0.50862 0.0
H50 H 0.87815 0.40816 0.54408 0.0
H51 H 0.90827 0.46338 0.56052 0.0
H52 H 1.00314 0.50851 0.52747 0.0
H53 H 0.98101 0.40555 0.58438 0.0
H54 H 0.94822 0.36748 0.61275 0.0
H55 H 0.90237 0.46739 0.64309 0.0
H56 H 0.9333 0.50488 0.61404 0.0
H57 H 0.01788 0.60276 0.59618 0.0
H58 H 0.0541 0.63763 0.62514 0.0
H59 H 0.13472 0.5483 0.62792 0.0
H60 H 0.0983 0.51349 0.59924 0.0
H61 H 0.00937 0.50622 0.61279 0.0
H62 H 0.99583 0.58968 0.53415 0.0
H63 H 0.02634 0.64358 0.51707 0.0
H64 H 0.13397 0.59743 0.53533 0.0
H65 H 0.10297 0.54389 0.55306 0.0
C66 C 0.96193 0.45261 0.54503 0.0
C67 C 0.98123 0.42951 0.52965 0.0
C68 C 0.96378 0.39851 0.51976 0.0
C69 C 0.92664 0.38982 0.52507 0.0
C70 C 0.90662 0.41426 0.53937 0.0
C71 C 0.924 0.4456 0.54905 0.0
C72 C 0.9828 0.4816 0.55818 0.0
C73 C 1.00444 0.50783 0.54613 0.0
C74 C 0.98349 0.48217 0.58261 0.0
C75 C 0.95971 0.45809 0.59714 0.0
C76 C 0.963 0.4191 0.59672 0.0
C77 C 0.94455 0.39743 0.6131 0.0
C78 C 0.92331 0.4145 0.63049 0.0
C79 C 0.91834 0.45332 0.62992 0.0
C80 C 0.93631 0.47484 0.61342 0.0
C81 C 0.0555 0.55565 0.59569 0.0
C82 C 0.04381 0.59117 0.60267 0.0
C83 C 0.06437 0.61089 0.61925 0.0
C84 C 0.0968 0.59523 0.62906 0.0
C85 C 0.10978 0.56086 0.62075 0.0
C86 C 0.08904 0.54101 0.60438 0.0
C87 C 0.03031 0.5315 0.58208 0.0
C88 C 0.00783 0.5066 0.5941 0.0
C89 C 0.02776 0.5332 0.55788 0.0
C90 C 0.0471 0.56294 0.54498 0.0
C91 C 0.02601 0.59091 0.53419 0.0
C92 C 0.04354 0.6217 0.52442 0.0
C93 C 0.08263 0.62508 0.52506 0.0
C94 C 0.10382 0.59614 0.53502 0.0
C95 C 0.08617 0.5654 0.54499 0.0
H96 H 0.51395 0.59327 0.86484 0.0
H97 H 0.4747 0.62006 0.89466 0.0
H98 H 0.37847 0.56621 0.86427 0.0
H99 H 0.41845 0.53722 0.83537 0.0
H100 H 0.52361 0.51976 0.86328 0.0
H101 H 0.47187 0.6127 0.80959 0.0
H102 H 0.41547 0.64077 0.79273 0.0
H103 H 0.38588 0.53447 0.76286 0.0
H104 H 0.44186 0.50655 0.77979 0.0
H105 H 0.54143 0.43789 0.77814 0.0
H106 H 0.59334 0.4052 0.75914 0.0
H107 H 0.67111 0.48156 0.79113 0.0
H108 H 0.61965 0.51441 0.80921 0.0
H109 H 0.51685 0.51625 0.77796 0.0
H110 H 0.53535 0.42522 0.84285 0.0
H111 H 0.56753 0.38837 0.87238 0.0
H112 H 0.64724 0.47733 0.88194 0.0
H113 H 0.61341 0.5149 0.85343 0.0
C114 C 0.4693 0.56297 0.84792 0.0
C115 C 0.48429 0.58762 0.86438 0.0
C116 C 0.46173 0.60321 0.88134 0.0
C117 C 0.42357 0.59467 0.88215 0.0
C118 C 0.40798 0.57251 0.86449 0.0
C119 C 0.43073 0.55632 0.84773 0.0
C120 C 0.49497 0.54086 0.83323 0.0
C121 C 0.52243 0.51979 0.84459 0.0
C122 C 0.49192 0.53866 0.80888 0.0
C123 C 0.46098 0.55737 0.79614 0.0
C124 C 0.45344 0.59555 0.79919 0.0
C125 C 0.42124 0.61157 0.78957 0.0
C126 C 0.39637 0.58988 0.77638 0.0
C127 C 0.40485 0.5521 0.77256 0.0
C128 C 0.43686 0.53607 0.78226 0.0
C129 C 0.57672 0.47849 0.79516 0.0
C130 C 0.56966 0.44785 0.78068 0.0
C131 C 0.59929 0.42912 0.76996 0.0
C132 C 0.63631 0.44111 0.77335 0.0
C133 C 0.64296 0.47213 0.78763 0.0
C134 C 0.61355 0.4907 0.79823 0.0
C135 C 0.5465 0.49712 0.80821 0.0
C136 C 0.51812 0.51701 0.79662 0.0
C137 C 0.54749 0.49752 0.83248 0.0
C138 C 0.5721 0.47267 0.84603 0.0
C139 C 0.56023 0.43639 0.851 0.0
C140 C 0.57865 0.41538 0.86787 0.0
C141 C 0.6093 0.43034 0.87997 0.0
C142 C 0.62292 0.46554 0.87351 0.0
C143 C 0.60402 0.48683 0.85699 0.0
H144 H 0.51162 0.93285 0.02388 0.0
H145 H 0.48376 0.87667 0.00744 0.0
H146 H 0.38122 0.90028 0.04301 0.0
H147 H 0.40833 0.95805 0.05812 0.0
H148 H 0.50286 0.00548 0.0245 0.0
H149 H 0.48306 0.90568 0.08357 0.0
H150 H 0.45228 0.86781 0.11288 0.0
H151 H 0.40057 0.96695 0.14045 0.0
H152 H 0.42946 1.00409 0.11043 0.0
H153 H 0.50816 0.09955 0.09801 0.0
H154 H 0.54477 0.13506 0.12639 0.0
H155 H 0.63563 0.05689 0.11904 0.0
H156 H 0.59896 0.02178 0.09074 0.0
H157 H 0.50519 0.0092 0.10988 0.0
H158 H 0.49292 0.0914 0.03343 0.0
H159 H 0.52338 0.1462 0.01731 0.0
H160 H 0.63108 0.09622 0.03067 0.0
H161 H 0.6002 0.04156 0.04722 0.0
C162 C 0.46254 0.94926 0.04285 0.0
C163 C 0.48283 0.92654 0.02772 0.0
C164 C 0.46701 0.8941 0.01856 0.0
C165 C 0.43073 0.88329 0.0246 0.0
C166 C 0.40938 0.90758 0.03823 0.0
C167 C 0.42503 0.94044 0.04709 0.0
C168 C 0.48199 0.97984 0.05555 0.0
C169 C 0.50337 0.00597 0.04317 0.0
C170 C 0.48157 0.98214 0.07996 0.0
C171 C 0.45866 0.95776 0.09485 0.0
C172 C 0.46417 0.91902 0.09548 0.0
C173 C 0.44689 0.8975 0.11241 0.0
C174 C 0.42466 0.91453 0.12934 0.0
C175 C 0.41739 0.95291 0.12768 0.0
C176 C 0.43416 0.97424 0.11061 0.0
C177 C 0.55108 0.05835 0.09221 0.0
C178 C 0.5364 0.09082 0.10205 0.0
C179 C 0.55726 0.11093 0.11828 0.0
C180 C 0.59309 0.09876 0.12494 0.0
C181 C 0.60845 0.06738 0.11401 0.0
C182 C 0.58749 0.0472 0.09789 0.0
C183 C 0.5267 0.03296 0.07889 0.0
C184 C 0.50438 0.00831 0.09118 0.0
C185 C 0.52541 0.03277 0.05466 0.0
C186 C 0.54428 0.06251 0.04153 0.0
C187 C 0.52306 0.09193 0.03247 0.0
C188 C 0.54056 0.12326 0.0233 0.0
C189 C 0.5797 0.1258 0.02297 0.0
C190 C 0.60092 0.09547 0.03112 0.0
C191 C 0.58333 0.06411 0.04038 0.0
H192 H 0.04981 0.5974 0.92152 0.0
H193 H 0.08899 0.62977 0.8936 0.0
H194 H 0.10902 0.52522 0.85876 0.0
H195 H 0.07174 0.49292 0.88724 0.0
H196 H 1.00222 0.49843 0.89275 0.0
H197 H 0.03557 0.5876 0.97444 0.0
H198 H 0.09207 0.61509 0.99212 0.0
H199 H 0.15882 0.52867 0.96108 0.0
H200 H 0.10295 0.50164 0.94355 0.0
H201 H 0.96065 0.41247 0.95297 0.0
H202 H 0.90586 0.38475 0.97051 0.0
H203 H 0.87285 0.49311 0.99584 0.0
H204 H 0.92646 0.52109 0.97668 0.0
H205 H 1.00504 0.51157 0.97782 0.0
H206 H 0.98906 0.41125 0.91127 0.0
H207 H 0.95259 0.37483 0.88359 0.0
H208 H 0.87109 0.46335 0.87978 0.0
H209 H 0.90751 0.49945 0.90806 0.0
C210 C 0.0577 0.54265 0.9065 0.0
C211 C 0.06341 0.58133 0.90821 0.0
C212 C 0.08539 0.59991 0.89204 0.0
C213 C 0.1017 0.58017 0.87375 0.0
C214 C 0.09708 0.54128 0.87269 0.0
C215 C 0.07546 0.52278 0.88888 0.0
C216 C 0.03077 0.52327 0.92172 0.0
C217 C 1.00316 0.50119 0.91137 0.0
C218 C 0.0321 0.52627 0.94601 0.0
C219 C 0.06517 0.54267 0.95766 0.0
C220 C 0.06242 0.57461 0.97159 0.0
C221 C 0.0946 0.59041 0.98148 0.0
C222 C 0.12969 0.57399 0.97786 0.0
C223 C 0.13209 0.54178 0.96419 0.0
C224 C 0.10023 0.52637 0.95416 0.0
C225 C 0.94713 0.46906 0.96289 0.0
C226 C 0.94161 0.43031 0.96225 0.0
C227 C 0.91056 0.41433 0.97275 0.0
C228 C 0.88483 0.43664 0.98468 0.0
C229 C 0.89187 0.47514 0.9866 0.0
C230 C 0.92266 0.49117 0.97579 0.0
C231 C 0.97643 0.48685 0.94867 0.0
C232 C 1.00415 0.50911 0.95921 0.0
C233 C 0.97677 0.4823 0.92449 0.0
C234 C 0.95062 0.45772 0.9119 0.0
C235 C 0.9626 0.42216 0.90513 0.0
C236 C 0.94171 0.40138 0.88933 0.0
C237 C 0.90903 0.41627 0.87951 0.0
C238 C 0.89618 0.45123 0.88712 0.0
C239 C 0.9168 0.47178 0.90329 0.0
H240 H 0.52055 0.57161 0.22848 0.0
H241 H 0.4979 0.63065 0.24425 0.0
H242 H 0.38635 0.604 0.22118 0.0
H243 H 0.40883 0.5441 0.20634 0.0
H244 H 0.5074 0.49497 0.23166 0.0
H245 H 0.49293 0.59186 0.16692 0.0
H246 H 0.45974 0.63114 0.13879 0.0
H247 H 0.37429 0.54715 0.13224 0.0
H248 H 0.40767 0.50803 0.15994 0.0
H249 H 0.48717 0.42118 0.14217 0.0
H250 H 0.52086 0.3874 0.11251 0.0
H251 H 0.62538 0.41642 0.14537 0.0
H252 H 0.59134 0.45158 0.17477 0.0
H253 H 0.49038 0.49218 0.14679 0.0
H254 H 0.5031 0.39216 0.19553 0.0
H255 H 0.53442 0.3386 0.21259 0.0
H256 H 0.60884 0.41206 0.24984 0.0
H257 H 0.57783 0.46621 0.23192 0.0
C258 C 0.4666 0.55375 0.21576 0.0
C259 C 0.49105 0.57795 0.22736 0.0
C260 C 0.47813 0.61187 0.23614 0.0
C261 C 0.44054 0.62239 0.23332 0.0
C262 C 0.4155 0.5968 0.22341 0.0
C263 C 0.4284 0.56269 0.21479 0.0
C264 C 0.48187 0.52203 0.20225 0.0
C265 C 0.5039 0.4944 0.2131 0.0
C266 C 0.47607 0.52005 0.17818 0.0
C267 C 0.45281 0.54702 0.16526 0.0
C268 C 0.46664 0.58237 0.15972 0.0
C269 C 0.44782 0.60458 0.14357 0.0
C270 C 0.41503 0.59158 0.13274 0.0
C271 C 0.39972 0.55761 0.13995 0.0
C272 C 0.41873 0.53527 0.15581 0.0
C273 C 0.53664 0.43894 0.16074 0.0
C274 C 0.51731 0.41968 0.14331 0.0
C275 C 0.53665 0.40001 0.12646 0.0
C276 C 0.57584 0.39885 0.12672 0.0
C277 C 0.59519 0.41675 0.14477 0.0
C278 C 0.57575 0.43657 0.16167 0.0
C279 C 0.51625 0.46526 0.17595 0.0
C280 C 0.49365 0.49221 0.16539 0.0
C281 C 0.52022 0.46526 0.20024 0.0
C282 C 0.53829 0.43328 0.21224 0.0
C283 C 0.52612 0.39691 0.20738 0.0
C284 C 0.54377 0.36625 0.2174 0.0
C285 C 0.57373 0.37108 0.23289 0.0
C286 C 0.58572 0.40752 0.23804 0.0
C287 C 0.56793 0.43842 0.22793 0.0
H288 H 0.48981 0.91471 0.41222 0.0
H289 H 0.45518 0.87756 0.38403 0.0
H290 H 0.37056 0.96312 0.38033 0.0
H291 H 0.40518 0.99997 0.4091 0.0
H292 H 0.49765 0.00525 0.39449 0.0
H293 H 0.45639 0.91255 0.4523 0.0
H294 H 0.40023 0.88632 0.46924 0.0
H295 H 0.37548 0.99308 0.50007 0.0
H296 H 0.42974 0.02 0.48123 0.0
H297 H 0.54958 0.10346 0.44669 0.0
H298 H 0.60966 0.12961 0.45945 0.0
H299 H 0.63999 0.02329 0.48879 0.0
H300 H 0.5806 0.99709 0.47573 0.0
H301 H 0.50493 0.00984 0.47977 0.0
H302 H 0.50488 0.08057 0.39204 0.0
H303 H 0.54287 0.10839 0.36201 0.0
H304 H 0.64093 0.05589 0.39117 0.0
H305 H 0.6023 0.0261 0.42036 0.0
C306 C 0.44965 0.9597 0.413 0.0
C307 C 0.46308 0.92479 0.40598 0.0
C308 C 0.44323 0.90357 0.38989 0.0
C309 C 0.41015 0.91742 0.37999 0.0
C310 C 0.39596 0.95178 0.38774 0.0
C311 C 0.41556 0.97274 0.40419 0.0
C312 C 0.47467 0.98485 0.42604 0.0
C313 C 0.49905 0.00667 0.41317 0.0
C314 C 0.47561 0.98689 0.45036 0.0
C315 C 0.44641 0.96873 0.4645 0.0
C316 C 0.43862 0.93049 0.46239 0.0
C317 C 0.40679 0.91532 0.47249 0.0
C318 C 0.38259 0.9379 0.48539 0.0
C319 C 0.39265 0.97526 0.48945 0.0
C320 C 0.424 0.99059 0.47894 0.0
C321 C 0.56086 0.04812 0.45993 0.0
C322 C 0.56888 0.08602 0.45627 0.0
C323 C 0.60309 0.10096 0.46359 0.0
C324 C 0.6296 0.07819 0.47466 0.0
C325 C 0.62021 0.0412 0.47993 0.0
C326 C 0.58616 0.02633 0.47265 0.0
C327 C 0.52905 0.02955 0.44809 0.0
C328 C 0.50325 0.00895 0.46112 0.0
C329 C 0.52591 0.02938 0.42376 0.0
C330 C 0.55064 0.05114 0.40843 0.0
C331 C 0.53466 0.07542 0.39216 0.0
C332 C 0.55647 0.09158 0.3751 0.0
C333 C 0.59482 0.08388 0.37397 0.0
C334 C 0.61129 0.06166 0.39126 0.0
C335 C 0.58931 0.04498 0.40815 0.0
H336 H 0.00574 0.06586 0.72791 0.0
H337 H 0.98332 0.12314 0.74581 0.0
H338 H 0.87432 0.10489 0.71563 0.0
H339 H 0.89605 0.04603 0.6994 0.0
H340 H 0.99394 0.99341 0.72749 0.0
H341 H 0.97678 0.09224 0.66564 0.0
H342 H 0.94494 0.1317 0.63706 0.0
H343 H 0.86643 0.04311 0.62339 0.0
H344 H 0.89823 1.00404 0.65181 0.0
H345 H 0.97768 0.92193 0.63656 0.0
H346 H 0.0132 0.89023 0.60691 0.0
H347 H 0.11558 0.91665 0.64314 0.0
H348 H 0.07981 0.95056 0.67219 0.0
H349 H 0.97879 0.99127 0.64255 0.0
H350 H 0.99444 0.89047 0.69089 0.0
H351 H 0.02758 0.83826 0.7083 0.0
H352 H 0.09697 0.91483 0.74683 0.0
H353 H 0.06424 0.96758 0.72857 0.0
C354 C 0.95294 0.05193 0.71176 0.0
C355 C 0.9767 0.07353 0.7257 0.0
C356 C 0.96391 0.10655 0.73575 0.0
C357 C 0.92711 0.11898 0.73195 0.0
C358 C 0.90268 0.09612 0.71917 0.0
C359 C 0.91533 0.06268 0.7095 0.0
C360 C 0.96857 0.02052 0.69803 0.0
C361 C 0.99079 0.99302 0.7089 0.0
C362 C 0.96317 0.01854 0.67388 0.0
C363 C 0.93995 0.04521 0.66065 0.0
C364 C 0.95218 0.08176 0.65684 0.0
C365 C 0.93418 0.10407 0.64039 0.0
C366 C 0.90392 0.08997 0.62746 0.0
C367 C 0.88991 0.05456 0.63283 0.0
C368 C 0.90804 0.03221 0.64907 0.0
C369 C 0.02597 0.93896 0.65657 0.0
C370 C 0.00776 0.92063 0.6383 0.0
C371 C 0.02816 0.90224 0.6214 0.0
C372 C 0.06735 0.90139 0.62241 0.0
C373 C 0.08551 0.9176 0.64153 0.0
C374 C 0.06501 0.93647 0.65837 0.0
C375 C 1.00454 0.9645 0.67178 0.0
C376 C 0.98156 0.99109 0.66119 0.0
C377 C 0.00801 0.96437 0.69609 0.0
C378 C 0.02703 0.93304 0.70821 0.0
C379 C 0.01675 0.89618 0.70309 0.0
C380 C 0.03543 0.86628 0.71331 0.0
C381 C 0.06453 0.87239 0.72924 0.0
C382 C 0.07457 0.9093 0.73467 0.0
C383 C 0.05578 0.9394 0.72436 0.0
Mn384 Mn 0.34191 0.67569 0.01204 0.0
Mn385 Mn 0.35159 0.58247 0.01686 0.0
C386 C 0.35049 0.64825 0.04791 0.0
C387 C 0.36966 0.73459 0.00857 0.0
C388 C 0.27702 0.62033 0.00812 0.0
O389 O 0.35449 0.66018 0.97906 0.0
O390 O 0.3618 0.59848 0.9849 0.0
C391 C 0.43279 0.57642 0.00891 0.0
N392 N 0.40279 0.57058 0.02264 0.0
C393 C 0.4407 0.53882 0.05084 0.0
C394 C 0.47199 0.54436 0.03697 0.0
C395 C 0.46803 0.56338 0.01596 0.0
C396 C 0.40635 0.5526 0.04297 0.0
H397 H 0.42981 0.59077 0.99267 0.0
C398 C 0.36155 0.62721 0.97184 0.0
O399 O 0.33476 0.72944 0.0032 0.0
O400 O 0.38831 0.7053 0.01467 0.0
N401 N 0.34272 0.56317 0.04699 0.0
C402 C 0.30968 0.5596 0.05814 0.0
C403 C 0.30868 0.54077 0.07929 0.0
C404 C 0.34156 0.52552 0.08863 0.0
C405 C 0.37526 0.52958 0.07687 0.0
C406 C 0.37449 0.54844 0.05579 0.0
H407 H 0.28426 0.57094 0.05093 0.0
O408 O 0.33519 0.68088 0.04622 0.0
O409 O 0.35982 0.63267 0.02863 0.0
O410 O 0.28896 0.65393 0.00797 0.0
O411 O 0.29823 0.59215 0.01141 0.0
C412 C 0.40952 0.51537 0.08511 0.0
C413 C 0.44225 0.52018 0.07217 0.0
H414 H 0.4992 0.53426 0.04231 0.0
H415 H 0.49205 0.56781 0.00517 0.0
H416 H 0.28258 0.53778 0.08829 0.0
H417 H 0.34052 0.51057 0.10479 0.0
H418 H 0.41101 0.50071 0.10138 0.0
H419 H 0.46843 0.50927 0.07874 0.0
Mn420 Mn 0.33711 0.83657 0.25848 0.0
Mn421 Mn 0.4295 0.8504 0.26574 0.0
C422 C 0.36199 0.84699 0.29497 0.0
C423 C 0.27762 0.86223 0.25259 0.0
C424 C 0.39557 0.77453 0.25558 0.0
O425 O 0.35434 0.84865 0.22578 0.0
O426 O 0.4149 0.86117 0.23344 0.0
C427 C 0.43171 0.93212 0.25915 0.0
N428 N 0.43878 0.9017 0.27248 0.0
C429 C 0.46643 0.93962 0.30227 0.0
C430 C 0.45957 0.97137 0.28882 0.0
C431 C 0.44205 0.96761 0.2672 0.0
C432 C 0.45546 0.90502 0.29335 0.0
H433 H 0.4183 0.92928 0.24251 0.0
C434 C 0.38709 0.85822 0.21955 0.0
O435 O 0.28417 0.82726 0.24826 0.0
O436 O 0.30576 0.88216 0.25922 0.0
N437 N 0.44727 0.8409 0.29633 0.0
C438 C 0.45072 0.80764 0.30743 0.0
C439 C 0.46727 0.80656 0.32943 0.0
C440 C 0.48037 0.83959 0.33968 0.0
C441 C 0.47676 0.87345 0.32784 0.0
C442 C 0.46017 0.87277 0.30592 0.0
H443 H 0.4409 0.78216 0.29955 0.0
O444 O 0.33001 0.83065 0.29257 0.0
O445 O 0.37833 0.85634 0.27602 0.0
O446 O 0.36124 0.78434 0.25589 0.0
O447 O 0.42257 0.79703 0.25916 0.0
C448 C 0.48875 0.90788 0.33696 0.0
C449 C 0.48339 0.94096 0.32424 0.0
H450 H 0.46749 0.99879 0.29497 0.0
H451 H 0.43659 0.99199 0.25675 0.0
H452 H 0.46993 0.78033 0.33847 0.0
H453 H 0.4931 0.83861 0.35665 0.0
H454 H 0.50186 0.90929 0.35381 0.0
H455 H 0.49226 0.96731 0.33158 0.0
Mn456 Mn 0.18027 0.84116 0.49683 0.0
Mn457 Mn 0.08719 0.84335 0.48812 0.0
C458 C 0.15543 0.84958 0.46024 0.0
C459 C 0.23697 0.87241 0.50257 0.0
C460 C 0.12973 0.77197 0.4968 0.0
O461 O 0.16121 0.85222 0.52908 0.0
O462 O 0.09927 0.85096 0.52135 0.0
C463 C 0.07471 0.92287 0.4995 0.0
N464 N 0.07206 0.8941 0.48423 0.0
C465 C 0.04346 0.93375 0.45569 0.0
C466 C 0.04568 0.96373 0.47117 0.0
C467 C 0.0614 0.95826 0.49315 0.0
C468 C 0.05688 0.89904 0.46305 0.0
H469 H 0.08694 0.91886 0.51637 0.0
C470 C 0.12713 0.85422 0.53523 0.0
O471 O 0.2336 0.83723 0.5075 0.0
O472 O 0.20698 0.88936 0.49579 0.0
N473 N 0.07209 0.83682 0.45665 0.0
C474 C 0.07403 0.8056 0.44332 0.0
C475 C 0.06046 0.80667 0.42057 0.0
C476 C 0.04502 0.83978 0.41177 0.0
C477 C 0.04315 0.8715 0.42586 0.0
C478 C 0.05679 0.86867 0.44847 0.0
H479 H 0.08624 0.78024 0.44992 0.0
O480 O 0.18856 0.83562 0.46285 0.0
O481 O 0.13758 0.85669 0.47907 0.0
O482 O 0.16179 0.78691 0.49971 0.0
O483 O 0.10037 0.79033 0.49148 0.0
C484 C 0.02899 0.90602 0.4182 0.0
C485 C 0.02916 0.93712 0.4331 0.0
H486 H 0.03569 0.99114 0.46629 0.0
H487 H 0.06335 0.9813 0.50516 0.0
H488 H 0.0622 0.78213 0.40977 0.0
H489 H 0.035 0.84062 0.39413 0.0
H490 H 0.01841 0.9091 0.40077 0.0
H491 H 0.01868 0.96364 0.42691 0.0
Mn492 Mn 0.17617 0.68001 0.74763 0.0
Mn493 Mn 0.17434 0.58617 0.74377 0.0
C494 C 0.16819 0.65075 0.71228 0.0
C495 C 0.14479 0.73692 0.75134 0.0
C496 C 0.24582 0.62982 0.74986 0.0
O497 O 0.16539 0.66498 0.78072 0.0
O498 O 0.16733 0.60251 0.7762 0.0
C499 C 0.09502 0.57605 0.75612 0.0
N500 N 0.12331 0.57123 0.74089 0.0
C501 C 0.08277 0.53882 0.71437 0.0
C502 C 0.05331 0.54322 0.72985 0.0
C503 C 0.05945 0.56203 0.75077 0.0
C504 C 0.1176 0.55345 0.72062 0.0
H505 H 0.09953 0.59045 0.77224 0.0
C506 C 0.16358 0.63184 0.7886 0.0
O507 O 0.18025 0.73422 0.75585 0.0
O508 O 0.12772 0.70657 0.74545 0.0
N509 N 0.17991 0.56637 0.71334 0.0
C510 C 0.21135 0.56379 0.7005 0.0
C511 C 0.21007 0.54551 0.67911 0.0
C512 C 0.1765 0.52974 0.67124 0.0
C513 C 0.14452 0.53237 0.68485 0.0
C514 C 0.14762 0.55066 0.70611 0.0
H515 H 0.23716 0.57552 0.70657 0.0
O516 O 0.18142 0.68432 0.71336 0.0
O517 O 0.16089 0.63523 0.73188 0.0
O518 O 0.23054 0.66195 0.75148 0.0
O519 O 0.22771 0.59969 0.74617 0.0
C520 C 0.10976 0.5174 0.67821 0.0
C521 C 0.07886 0.52076 0.69292 0.0
H522 H 0.02582 0.53247 0.72578 0.0
H523 H 0.03682 0.56568 0.76277 0.0
H524 H 0.23492 0.54349 0.66876 0.0
H525 H 0.17569 0.51549 0.65479 0.0
H526 H 0.10646 0.50327 0.66182 0.0
H527 H 0.05223 0.50929 0.68758 0.0
Mn528 Mn 0.84081 0.18212 0.50675 0.0
Mn529 Mn 0.85715 0.08956 0.508 0.0
C530 C 0.84748 0.15158 0.54175 0.0
C531 C 0.86511 0.24263 0.50574 0.0
C532 C 0.78158 0.12382 0.49612 0.0
O533 O 0.85709 0.1704 0.47381 0.0
O534 O 0.87407 0.11003 0.47816 0.0
C535 C 0.93965 0.08792 0.50738 0.0
N536 N 0.90707 0.07936 0.51797 0.0
C537 C 0.93965 0.04596 0.54791 0.0
C538 C 0.97354 0.05426 0.53726 0.0
C539 C 0.97353 0.07547 0.51694 0.0
C540 C 0.90677 0.05918 0.53759 0.0
H541 H 0.93974 0.10399 0.4917 0.0
C542 C 0.8712 0.14 0.46632 0.0
O543 O 0.831 0.23586 0.49924 0.0
O544 O 0.88506 0.21415 0.51184 0.0
N545 N 0.84233 0.06656 0.53618 0.0
C546 C 0.80727 0.06087 0.54426 0.0
C547 C 0.80242 0.04041 0.5646 0.0
C548 C 0.83359 0.02563 0.57624 0.0
C549 C 0.86938 0.0316 0.5675 0.0
C550 C 0.87249 0.0523 0.5472 0.0
H551 H 0.78318 0.0718 0.53525 0.0
O552 O 0.83078 0.18363 0.54072 0.0
O553 O 0.85967 0.13867 0.52234 0.0
O554 O 0.7899 0.15782 0.50024 0.0
O555 O 0.80493 0.09702 0.49795 0.0
C556 C 0.90208 0.01775 0.57808 0.0
C557 C 0.9372 0.02509 0.56837 0.0
H558 H 0.99973 0.04467 0.54458 0.0
H559 H 0.99958 0.08209 0.50865 0.0
H560 H 0.77471 0.03588 0.57123 0.0
H561 H 0.82969 0.00972 0.59186 0.0
H562 H 0.90057 1.00142 0.59371 0.0
H563 H 0.96214 0.01449 0.57676 0.0
Mn564 Mn 0.83213 0.33695 0.75855 0.0
Mn565 Mn 0.92509 0.34689 0.76559 0.0
C566 C 0.85764 0.3468 0.79494 0.0
C567 C 0.77374 0.36484 0.75251 0.0
C568 C 0.88791 0.27223 0.75635 0.0
O569 O 0.84961 0.34798 0.72577 0.0
O570 O 0.91077 0.35744 0.73323 0.0
C571 C 0.93053 0.42827 0.75815 0.0
N572 N 0.93648 0.39796 0.77178 0.0
C573 C 0.9657 0.43558 0.80114 0.0
C574 C 0.96004 0.4672 0.78738 0.0
C575 C 0.94229 0.46353 0.76582 0.0
C576 C 0.95334 0.40119 0.7926 0.0
H577 H 0.91695 0.42553 0.74156 0.0
C578 C 0.88274 0.35585 0.71942 0.0
O579 O 0.77884 0.32954 0.74849 0.0
O580 O 0.80261 0.38374 0.7591 0.0
N581 N 0.94268 0.33754 0.79624 0.0
C582 C 0.945 0.30446 0.80765 0.0
C583 C 0.9617 0.30332 0.82961 0.0
C584 C 0.97611 0.33608 0.8395 0.0
C585 C 0.97364 0.36976 0.82735 0.0
C586 C 0.95686 0.36914 0.80549 0.0
H587 H 0.93419 0.27916 0.80005 0.0
O588 O 0.82499 0.33176 0.79267 0.0
O589 O 0.87425 0.35526 0.77592 0.0
O590 O 0.85412 0.28379 0.75625 0.0
O591 O 0.9159 0.29363 0.75964 0.0
C592 C 0.98698 0.40393 0.8361 0.0
C593 C 0.98281 0.43685 0.82308 0.0
H594 H 0.96906 0.49444 0.79323 0.0
H595 H 0.93774 0.48782 0.75513 0.0
H596 H 0.96349 0.27724 0.83889 0.0
H597 H 0.98898 0.33505 0.85643 0.0
H598 H 1.00023 0.40528 0.85292 0.0
H599 H 0.99274 0.46303 0.83013 0.0
Mn600 Mn 0.68214 0.34149 0.99878 0.0
Mn601 Mn 0.58879 0.3471 0.99198 0.0
C602 C 0.65574 0.35191 0.9628 0.0
C603 C 0.74033 0.37024 0.00385 0.0
C604 C 0.62914 0.27397 0.99848 0.0
O605 O 0.66525 0.35197 0.03158 0.0
O606 O 0.60297 0.35217 0.02507 0.0
C607 C 0.57875 0.426 0.00575 0.0
N608 N 0.5752 0.39854 0.98965 0.0
C609 C 0.54541 0.44062 0.96295 0.0
C610 C 0.54856 0.46928 0.9793 0.0
C611 C 0.56539 0.46195 1.00077 0.0
C612 C 0.55908 0.40532 0.96893 0.0
H613 H 0.59156 0.42051 0.02229 0.0
C614 C 0.63157 0.35407 0.03845 0.0
O615 O 0.73572 0.33508 0.00837 0.0
O616 O 0.71081 0.3887 0.99781 0.0
N617 N 0.57159 0.34305 0.96077 0.0
C618 C 0.57057 0.31234 0.94694 0.0
C619 C 0.55484 0.31504 0.92477 0.0
C620 C 0.54021 0.3492 0.91709 0.0
C621 C 0.54137 0.38038 0.93167 0.0
C622 C 0.55713 0.37593 0.95365 0.0
H623 H 0.58189 0.28608 0.95274 0.0
O624 O 0.68847 0.33679 0.96461 0.0
O625 O 0.6391 0.35918 0.98205 0.0
O626 O 0.66175 0.28778 0.00131 0.0
O627 O 0.60027 0.2935 0.9938 0.0
C628 C 0.5276 0.41569 0.92524 0.0
C629 C 0.5296 0.44579 0.94087 0.0
H630 H 0.53841 0.49707 0.97551 0.0
H631 H 0.56803 0.48395 0.01345 0.0
H632 H 0.55409 0.29086 0.9136 0.0
H633 H 0.52816 0.35117 0.89996 0.0
H634 H 0.51549 0.42004 0.9083 0.0
H635 H 0.51902 0.47284 0.93571 0.0
Mn636 Mn 0.67473 0.17283 0.24598 0.0
Mn637 Mn 0.6648 0.08006 0.23863 0.0
C638 C 0.66472 0.14811 0.20948 0.0
C639 C 0.6471 0.2311 0.25224 0.0
C640 C 0.7394 0.11713 0.2485 0.0
O641 O 0.66361 0.15463 0.27862 0.0
O642 O 0.6537 0.09371 0.27094 0.0
C643 C 0.58334 0.07405 0.24531 0.0
N644 N 0.61385 0.06858 0.23193 0.0
C645 C 0.57668 0.04001 0.20207 0.0
C646 C 0.54487 0.04518 0.21556 0.0
C647 C 0.54821 0.06236 0.23725 0.0
C648 C 0.61093 0.0522 0.21101 0.0
H649 H 0.58583 0.08722 0.26199 0.0
C650 C 0.65527 0.12148 0.28482 0.0
O651 O 0.68239 0.22573 0.25638 0.0
O652 O 0.62805 0.20252 0.24536 0.0
N653 N 0.67458 0.06332 0.20797 0.0
C654 C 0.70771 0.06188 0.19673 0.0
C655 C 0.70909 0.04619 0.17458 0.0
C656 C 0.67649 0.03189 0.16432 0.0
C657 C 0.64277 0.03343 0.17631 0.0
C658 C 0.64314 0.04925 0.19836 0.0
H659 H 0.73286 0.07272 0.20458 0.0
O660 O 0.67985 0.18068 0.21189 0.0
O661 O 0.65638 0.13112 0.22843 0.0
O662 O 0.72785 0.1509 0.24844 0.0
O663 O 0.718 0.08918 0.24514 0.0
C664 C 0.60874 0.02022 0.16716 0.0
C665 C 0.57569 0.02368 0.17997 0.0
H666 H 0.51771 0.03628 0.20939 0.0
H667 H 0.52377 0.06654 0.24774 0.0
H668 H 0.7352 0.04515 0.16542 0.0
H669 H 0.67766 0.01993 0.1472 0.0
H670 H 0.60758 0.00771 0.15018 0.0
H671 H 0.54961 0.01392 0.17261 0.0
C672 C 0.20196 0.93549 0.25483 0.0
C673 C 0.17099 0.91576 0.26314 0.0
C674 C 0.23559 0.91738 0.24989 0.0
C675 C 0.23962 0.87866 0.25274 0.0
H676 H 0.20073 0.96553 0.25309 0.0
H677 H 0.25916 0.93414 0.24473 0.0
S678 S 0.16625 0.81349 0.27215 0.0
N679 N 0.14593 0.85484 0.27268 0.0
N680 N 0.209 0.82067 0.26281 0.0
C681 C 0.20818 0.85812 0.25944 0.0
C682 C 0.17389 0.87668 0.26476 0.0
C683 C 0.08764 0.67549 0.49541 0.0
C684 C 0.10045 0.65967 0.5162 0.0
C685 C 0.09924 0.71097 0.48847 0.0
C686 C 0.12462 0.73186 0.5018 0.0
H687 H 0.06734 0.66092 0.48482 0.0
H688 H 0.08713 0.72269 0.47294 0.0
S689 S 0.16795 0.70277 0.55713 0.0
N690 N 0.14092 0.66743 0.54975 0.0
N691 N 0.16353 0.73366 0.53623 0.0
C692 C 0.13941 0.71559 0.52191 0.0
C693 C 0.12716 0.6796 0.52921 0.0
C694 C 0.33644 0.62415 0.78346 0.0
C695 C 0.36025 0.60555 0.76805 0.0
C696 C 0.3 0.63429 0.77691 0.0
C697 C 0.28616 0.62616 0.75474 0.0
H698 H 0.34533 0.62915 0.80108 0.0
H699 H 0.28187 0.64666 0.78965 0.0
S700 S 0.33919 0.58395 0.70682 0.0
N701 N 0.36877 0.58378 0.72879 0.0
N702 N 0.30039 0.6028 0.71659 0.0
C703 C 0.31039 0.60985 0.73877 0.0
C704 C 0.34743 0.59958 0.74538 0.0
C705 C 0.37992 0.84045 0.00998 0.0
C706 C 0.41648 0.84544 0.0185 0.0
C707 C 0.36537 0.80461 0.00586 0.0
C708 C 0.38676 0.77235 0.01019 0.0
H709 H 0.36226 0.86442 0.00673 0.0
H710 H 0.33682 0.8022 0.99981 0.0
S711 S 0.48408 0.77029 0.03285 0.0
N712 N 0.47353 0.81498 0.03139 0.0
N713 N 0.44684 0.7481 0.02321 0.0
C714 C 0.42368 0.7771 0.01824 0.0
C715 C 0.43834 0.81347 0.02251 0.0
C716 C 0.18731 0.56553 0.00146 0.0
C717 C 0.16424 0.58927 0.98846 0.0
C718 C 0.22281 0.57678 0.00873 0.0
C719 C 0.23698 0.61228 0.00324 0.0
H720 H 0.17829 0.53747 0.00541 0.0
H721 H 0.23972 0.55678 0.0181 0.0
S722 S 0.18622 0.68586 0.9707 0.0
N723 N 0.15675 0.65055 0.97136 0.0
N724 N 0.22376 0.672 0.98501 0.0
C725 C 0.21332 0.6371 0.99124 0.0
C726 C 0.1769 0.62552 0.98384 0.0
C727 C 0.39626 0.66823 0.2518 0.0
C728 C 0.42844 0.66114 0.23872 0.0
C729 C 0.38503 0.70497 0.25696 0.0
C730 C 0.40574 0.73574 0.24927 0.0
H731 H 0.38001 0.64524 0.25837 0.0
H732 H 0.36056 0.70928 0.26743 0.0
S733 S 0.48873 0.73223 0.21156 0.0
N734 N 0.47827 0.68812 0.21615 0.0
N735 N 0.45773 0.75664 0.22604 0.0
C736 C 0.43712 0.72891 0.2355 0.0
C737 C 0.44833 0.69178 0.23018 0.0
C738 C 0.34211 0.88726 0.50194 0.0
C739 C 0.34554 0.92334 0.49264 0.0
C740 C 0.30696 0.87158 0.50631 0.0
C741 C 0.27383 0.89136 0.50155 0.0
H742 H 0.36677 0.87066 0.50539 0.0
H743 H 0.30579 0.84327 0.5127 0.0
S744 S 0.26746 0.98728 0.47766 0.0
N745 N 0.31256 0.97849 0.47908 0.0
N746 N 0.24697 0.94981 0.48794 0.0
C747 C 0.27697 0.92807 0.49314 0.0
C748 C 0.31265 0.94384 0.48852 0.0
C749 C 0.12443 0.83851 0.73809 0.0
C750 C 0.08523 0.83998 0.73907 0.0
C751 C 0.14401 0.80569 0.74369 0.0
C752 C 0.12502 0.77319 0.7503 0.0
H753 H 0.13994 0.86217 0.73175 0.0
H754 H 0.17396 0.80515 0.74146 0.0
S755 S 0.02325 0.76461 0.75966 0.0
N756 N 0.02878 0.80771 0.75039 0.0
N757 N 0.06537 0.746 0.76035 0.0
C758 C 0.08615 0.77517 0.75291 0.0
C759 C 0.06631 0.80855 0.74743 0.0
C760 C 0.67193 0.38168 0.76618 0.0
C761 C 0.66852 0.42054 0.76331 0.0
C762 C 0.70528 0.36294 0.76082 0.0
C763 C 0.73637 0.38252 0.75257 0.0
H764 H 0.64956 0.366 0.77396 0.0
H765 H 0.70754 0.33349 0.76467 0.0
S766 S 0.73937 0.48297 0.73784 0.0
N767 N 0.6972 0.4767 0.74828 0.0
N768 N 0.75995 0.4418 0.7389 0.0
C769 C 0.73228 0.42074 0.74797 0.0
C770 C 0.69835 0.43967 0.75316 0.0
C771 C 0.5843 0.17875 0.99504 0.0
C772 C 0.59766 0.16091 0.01505 0.0
C773 C 0.59647 0.21449 0.98902 0.0
C774 C 0.6229 0.23372 0.00256 0.0
H775 H 0.56325 0.1655 0.98434 0.0
H776 H 0.58408 0.22769 0.97404 0.0
S777 S 0.66745 0.19925 0.05632 0.0
N778 N 0.63945 0.16508 0.0482 0.0
N779 N 0.66296 0.23192 0.03648 0.0
C780 C 0.63798 0.21555 0.02195 0.0
C781 C 0.62523 0.17923 0.02828 0.0
C782 C 0.82471 0.0647 0.26999 0.0
C783 C 0.85442 0.08934 0.26604 0.0
C784 C 0.78803 0.0741 0.26409 0.0
C785 C 0.77907 0.10879 0.25416 0.0
H786 H 0.82968 0.03797 0.27811 0.0
H787 H 0.76636 0.05403 0.26777 0.0
S788 S 0.8465 0.18309 0.23942 0.0
N789 N 0.87254 0.14972 0.25079 0.0
N790 N 0.80312 0.1678 0.24022 0.0
C791 C 0.80836 0.13391 0.25013 0.0
C792 C 0.84606 0.12412 0.25595 0.0
C793 C 0.93199 0.3207 0.52103 0.0
C794 C 0.91063 0.35324 0.51789 0.0
C795 C 0.91728 0.28543 0.51624 0.0
C796 C 0.88044 0.28095 0.50812 0.0
H797 H 0.96005 0.32232 0.52802 0.0
H798 H 0.93483 0.2614 0.51955 0.0
S799 S 0.8137 0.35747 0.49514 0.0
N800 N 0.85148 0.37901 0.50469 0.0
N801 N 0.82348 0.31247 0.49592 0.0
C802 C 0.85903 0.3133 0.50417 0.0
C803 C 0.87415 0.34944 0.50906 0.0
C804 C 0.6754 0.12357 0.49213 0.0
C805 C 0.66822 0.09148 0.47886 0.0
C806 C 0.71219 0.13474 0.49717 0.0
C807 C 0.74291 0.11414 0.48907 0.0
H808 H 0.65247 0.1395 0.49916 0.0
H809 H 0.71658 0.15892 0.50804 0.0
S810 S 0.73854 0.03145 0.45056 0.0
N811 N 0.69453 0.04181 0.45563 0.0
N812 N 0.76335 0.06249 0.46503 0.0
C813 C 0.73585 0.08307 0.47485 0.0
C814 C 0.69861 0.07183 0.46976 0.0
C815 C 0.94059 0.18707 0.73546 0.0
C816 C 0.9159 0.15733 0.73919 0.0
C817 C 0.93114 0.22369 0.74127 0.0
C818 C 0.89633 0.23257 0.75089 0.0
H819 H 0.96739 0.1822 0.72753 0.0
H820 H 0.95127 0.24537 0.73772 0.0
S821 S 0.82189 0.16499 0.76506 0.0
N822 N 0.85537 0.13908 0.75397 0.0
N823 N 0.8372 0.20837 0.76438 0.0
C824 C 0.87118 0.20323 0.75475 0.0
C825 C 0.88103 0.1656 0.74902 0.0
C826 C 0.81534 0.4397 0.98799 0.0
C827 C 0.84883 0.42065 0.99279 0.0
C828 C 0.78065 0.42382 0.99279 0.0
C829 C 0.77773 0.38797 0.00246 0.0
H830 H 0.81574 0.46653 0.97947 0.0
H831 H 0.75588 0.43933 0.98792 0.0
S832 S 0.85697 0.32821 0.02107 0.0
N833 N 0.87695 0.3655 0.01005 0.0
N834 N 0.81159 0.33516 0.01854 0.0
C835 C 0.81096 0.36925 0.00839 0.0
C836 C 0.84647 0.38563 0.00365 0.0
C837 C 0.63218 0.33408 0.24068 0.0
C838 C 0.5932 0.33772 0.24246 0.0
C839 C 0.65016 0.30009 0.24565 0.0
C840 C 0.62968 0.26858 0.25241 0.0
H841 H 0.64863 0.35691 0.23408 0.0
H842 H 0.67985 0.29783 0.24269 0.0
S843 S 0.52821 0.26562 0.26391 0.0
N844 N 0.53569 0.30853 0.25484 0.0
N845 N 0.56921 0.24464 0.26358 0.0
C846 C 0.5912 0.27275 0.25593 0.0
C847 C 0.57302 0.3073 0.25111 0.0
C848 C 0.12601 0.92636 0.41977 0.0
C849 C 0.12539 0.90891 0.39804 0.0
C850 C 0.13622 0.9068 0.43962 0.0
C851 C 0.14557 0.86884 0.43867 0.0
H852 H 0.11733 0.95513 0.42166 0.0
H853 H 0.13615 0.92143 0.45597 0.0
S854 S 0.15267 0.81093 0.3861 0.0
N855 N 0.13842 0.852 0.37662 0.0
N856 N 0.15715 0.81514 0.41433 0.0
C857 C 0.14695 0.85133 0.4171 0.0
C858 C 0.1366 0.87129 0.39672 0.0
C859 C 0.15337 0.61856 0.65054 0.0
C860 C 0.11463 0.61222 0.64969 0.0
C861 C 0.17081 0.63186 0.67072 0.0
C862 C 0.15018 0.63781 0.69084 0.0
H863 H 0.17027 0.61295 0.63556 0.0
H864 H 0.20066 0.63637 0.67083 0.0
S865 S 0.04797 0.62816 0.69718 0.0
N866 N 0.05613 0.61489 0.67046 0.0
N867 N 0.08896 0.63954 0.70826 0.0
C868 C 0.11143 0.63271 0.69 0.0
C869 C 0.09365 0.61982 0.66947 0.0
C870 C 0.40542 0.64054 0.91305 0.0
C871 C 0.40184 0.60488 0.903 0.0
C872 C 0.39039 0.64853 0.9348 0.0
C873 C 0.37154 0.62102 0.94737 0.0
H874 H 0.42109 0.66205 0.90439 0.0
H875 H 0.39527 0.67579 0.94228 0.0
S876 S 0.35142 0.52435 0.92789 0.0
N877 N 0.37595 0.54261 0.90686 0.0
N878 N 0.34695 0.55783 0.94718 0.0
C879 C 0.36586 0.586 0.93689 0.0
C880 C 0.38115 0.57788 0.91486 0.0
C881 C 0.37704 0.89924 0.15951 0.0
C882 C 0.41298 0.89403 0.15036 0.0
C883 C 0.3678 0.88568 0.18144 0.0
C884 C 0.39436 0.86682 0.19505 0.0
H885 H 0.35632 0.9151 0.14999 0.0
H886 H 0.34042 0.89173 0.18823 0.0
S887 S 0.49102 0.84242 0.17824 0.0
N888 N 0.4743 0.86629 0.15618 0.0
N889 N 0.45674 0.84025 0.19693 0.0
C890 C 0.42957 0.85945 0.18552 0.0
C891 C 0.43893 0.87315 0.1633 0.0
C892 C 0.15452 0.58397 0.84596 0.0
C893 C 0.12153 0.59953 0.85479 0.0
C894 C 0.16968 0.5966 0.82526 0.0
C895 C 0.15288 0.62577 0.8128 0.0
H896 H 0.16773 0.56055 0.85453 0.0
H897 H 0.19377 0.58227 0.8184 0.0
S898 S 0.06794 0.67803 0.8291 0.0
N899 N 0.07368 0.64716 0.8499 0.0
N900 N 0.10306 0.6716 0.81134 0.0
C901 C 0.12156 0.64348 0.8222 0.0
C902 C 0.10569 0.63023 0.84314 0.0
C903 C 0.36038 0.61605 0.10985 0.0
C904 C 0.39917 0.61051 0.11211 0.0
C905 C 0.34456 0.62931 0.0892 0.0
C906 C 0.36694 0.63625 0.06999 0.0
H907 H 0.3421 0.6094 0.124 0.0
H908 H 0.3146 0.63276 0.08795 0.0
S909 S 0.46992 0.63042 0.06755 0.0
N910 N 0.45959 0.61586 0.09367 0.0
N911 N 0.42971 0.64085 0.05509 0.0
C912 C 0.40571 0.63265 0.07233 0.0
C913 C 0.42187 0.61962 0.09332 0.0
C914 C 0.38778 0.91981 0.33925 0.0
C915 C 0.39386 0.89883 0.35939 0.0
C916 C 0.37716 0.90261 0.31858 0.0
C917 C 0.37244 0.86383 0.31723 0.0
H918 H 0.39274 0.94958 0.33921 0.0
H919 H 0.37331 0.91974 0.30338 0.0
S920 S 0.38058 0.79681 0.36537 0.0
N921 N 0.39141 0.83746 0.37704 0.0
N922 N 0.37093 0.80527 0.33799 0.0
C923 C 0.37628 0.84272 0.33739 0.0
C924 C 0.38744 0.86016 0.35849 0.0
C925 C 0.07596 0.85315 0.59164 0.0
C926 C 0.08847 0.88598 0.60254 0.0
C927 C 0.09029 0.84183 0.57039 0.0
C928 C 0.11829 0.8624 0.55946 0.0
H929 H 0.05371 0.83691 0.59909 0.0
H930 H 0.07844 0.8175 0.56203 0.0
S931 S 0.16251 0.94896 0.58108 0.0
N932 N 0.13174 0.93816 0.60096 0.0
N933 N 0.1596 0.91576 0.56142 0.0
C934 C 0.13289 0.89381 0.57075 0.0
C935 C 0.11782 0.90584 0.59224 0.0
C936 C 0.6308 0.37212 0.90038 0.0
C937 C 0.62425 0.4109 0.90072 0.0
C938 C 0.64177 0.35295 0.92043 0.0
C939 C 0.64548 0.37181 0.94152 0.0
H940 H 0.62708 0.35645 0.88457 0.0
H941 H 0.64622 0.32311 0.91959 0.0
S942 S 0.63582 0.47342 0.95135 0.0
N943 N 0.62479 0.46753 0.92393 0.0
N944 N 0.64608 0.43151 0.96122 0.0
C945 C 0.64076 0.41062 0.94191 0.0
C946 C 0.62982 0.43015 0.92162 0.0
C947 C 0.59153 0.11982 0.16586 0.0
C948 C 0.6119 0.11521 0.14546 0.0
C949 C 0.60902 0.1309 0.18636 0.0
C950 C 0.64756 0.13747 0.18732 0.0
H951 H 0.56206 0.11337 0.16626 0.0
H952 H 0.59234 0.1336 0.20174 0.0
S953 S 0.71281 0.13401 0.13838 0.0
N954 N 0.67227 0.12139 0.12711 0.0
N955 N 0.70506 0.14246 0.16591 0.0
C956 C 0.66798 0.13515 0.16691 0.0
C957 C 0.65023 0.12362 0.14595 0.0
C958 C 0.9395 0.12467 0.41854 0.0
C959 C 0.91626 0.119 0.39915 0.0
C960 C 0.92469 0.13401 0.44 0.0
C961 C 0.88617 0.13848 0.44287 0.0
H962 H 0.96926 0.1199 0.41746 0.0
H963 H 0.94342 0.1363 0.45467 0.0
S964 S 0.81338 0.12986 0.39757 0.0
N965 N 0.85278 0.12106 0.38405 0.0
N966 N 0.82504 0.13851 0.42466 0.0
C967 C 0.86267 0.13472 0.42357 0.0
C968 C 0.87769 0.12495 0.40164 0.0
C969 C 0.87471 0.39986 0.66017 0.0
C970 C 0.91035 0.39324 0.65091 0.0
C971 C 0.8647 0.38562 0.68179 0.0
C972 C 0.89018 0.36462 0.69498 0.0
H973 H 0.85495 0.41743 0.65103 0.0
H974 H 0.83774 0.39291 0.68876 0.0
S975 S 0.98537 0.33594 0.67762 0.0
N976 N 0.97001 0.36185 0.65608 0.0
N977 N 0.95098 0.33458 0.69626 0.0
C978 C 0.9249 0.35579 0.68526 0.0
C979 C 0.93504 0.37018 0.66334 0.0
C980 C 0.61177 0.13139 0.34395 0.0
C981 C 0.61599 0.09529 0.35321 0.0
C982 C 0.62649 0.14063 0.32235 0.0
C983 C 0.64557 0.11394 0.30914 0.0
H984 H 0.59589 0.15227 0.35314 0.0
H985 H 0.62119 0.16819 0.31546 0.0
S986 S 0.66721 0.0166 0.3264 0.0
N987 N 0.64271 0.03353 0.34794 0.0
N988 N 0.67094 0.05105 0.3078 0.0
C989 C 0.65179 0.07847 0.31879 0.0
C990 C 0.63691 0.0691 0.3407 0.0
C991 C 0.85102 0.11276 0.60242 0.0
C992 C 0.88968 0.10966 0.60666 0.0
C993 C 0.83723 0.12715 0.58152 0.0
C994 C 0.86166 0.13774 0.56399 0.0
H995 H 0.83135 0.10346 0.61521 0.0
H996 H 0.80736 0.1288 0.57875 0.0
S997 S 0.9648 0.13914 0.56713 0.0
N998 N 0.95194 0.12101 0.59192 0.0
N999 N 0.9258 0.14818 0.55288 0.0
C1000 C 0.90014 0.13645 0.56834 0.0
C1001 C 0.91422 0.12224 0.58959 0.0
C1002 C 0.88655 0.41904 0.83882 0.0
C1003 C 0.8919 0.39808 0.85904 0.0
C1004 C 0.87516 0.40203 0.81824 0.0
C1005 C 0.86888 0.36346 0.81709 0.0
H1006 H 0.89269 0.44858 0.83863 0.0
H1007 H 0.87192 0.41911 0.80298 0.0
S1008 S 0.87472 0.29674 0.8655 0.0
N1009 N 0.8872 0.33707 0.87697 0.0
N1010 N 0.86521 0.30525 0.83811 0.0
C1011 C 0.87201 0.34245 0.83733 0.0
C1012 C 0.88398 0.35968 0.85832 0.0
C1013 C 0.62358 0.40371 0.09555 0.0
C1014 C 0.59597 0.38267 0.10674 0.0
C1015 C 0.63751 0.39272 0.07404 0.0
C1016 C 0.62407 0.3605 0.06302 0.0
H1017 H 0.63271 0.4301 0.10271 0.0
H1018 H 0.6569 0.41084 0.0653 0.0
S1019 S 0.55734 0.29226 0.08672 0.0
N1020 N 0.56012 0.32519 0.10659 0.0
N1021 N 0.58543 0.30532 0.06588 0.0
C1022 C 0.59867 0.33786 0.07472 0.0
C1023 C 0.58486 0.34872 0.09667 0.0
loop_
_geom_bond_atom_site_label_1
_geom_bond_atom_site_label_2
_geom_bond_distance
_geom_bond_site_symmetry_2
_ccdc_geom_bond_type
H0 C19 0.949 . S
H1 C20 0.950 . S
H2 C22 0.950 . S
H3 C23 0.950 . S
H4 C25 0.950 . S
H5 C28 0.950 . S
H6 C29 0.950 . S
H7 C31 0.951 . S
H8 C32 0.949 1_565 S
H9 C34 0.949 . S
H10 C35 0.950 . S
H11 C37 0.950 . S
H12 C38 0.950 . S
H13 C40 0.951 . S
H14 C43 0.950 . S
H15 C44 0.950 . S
H16 C46 0.951 . S
H17 C47 0.949 1_545 S
C18 C19 1.376 . S
C18 C23 1.386 . S
C18 C24 1.483 . S
C19 H0 0.949 . S
C19 C18 1.376 . S
C19 C20 1.397 . S
C20 H1 0.950 . S
C20 C19 1.397 . S
C20 C21 1.391 . S
C21 C20 1.391 . S
C21 C22 1.405 . S
C22 H2 0.950 . S
C22 C21 1.405 . S
C22 C23 1.367 . S
C23 H3 0.950 . S
C23 C18 1.386 . S
C23 C22 1.367 . S
C24 C18 1.483 . S
C24 C25 1.382 1_655 S
C24 C26 1.403 . S
C25 H4 0.950 . S
C25 C24 1.382 1_455 S
C25 C41 1.411 1_545 S
C26 C24 1.403 . S
C26 C27 1.489 . S
C26 C40 1.420 1_545 S
C27 C26 1.489 . S
C27 C28 1.383 . S
C27 C32 1.382 . S
C28 H5 0.950 . S
C28 C27 1.383 . S
C28 C29 1.395 . S
C29 H6 0.950 . S
C29 C28 1.395 . S
C29 C30 1.288 . S
C30 C29 1.288 . S
C30 C31 1.392 . S
C31 H7 0.951 . S
C31 C30 1.392 . S
C31 C32 1.392 . S
C32 H8 0.949 1_545 S
C32 C27 1.382 . S
C32 C31 1.392 . S
C33 C34 1.376 . S
C33 C38 1.386 . S
C33 C39 1.483 . S
C34 H9 0.949 . S
C34 C33 1.376 . S
C34 C35 1.397 . S
C35 H10 0.950 . S
C35 C34 1.397 . S
C35 C36 1.391 . S
C36 C35 1.391 . S
C36 C37 1.405 . S
C37 H11 0.950 . S
C37 C36 1.405 . S
C37 C38 1.367 . S
C38 H12 0.950 . S
C38 C33 1.386 . S
C38 C37 1.367 . S
C39 C33 1.483 . S
C39 C40 1.371 1_455 S
C39 C41 1.403 . S
C40 H13 0.951 . S
C40 C26 1.420 1_565 S
C40 C39 1.371 1_655 S
C41 C25 1.411 1_565 S
C41 C39 1.403 . S
C41 C42 1.489 . S
C42 C41 1.489 . S
C42 C43 1.383 . S
C42 C47 1.382 . S
C43 H14 0.950 . S
C43 C42 1.383 . S
C43 C44 1.395 . S
C44 H15 0.950 . S
C44 C43 1.395 . S
C44 C45 1.288 . S
C45 C44 1.288 . S
C45 C46 1.392 . S
C46 H16 0.951 . S
C46 C45 1.392 . S
C46 C47 1.392 . S
C47 H17 0.949 1_565 S
C47 C42 1.382 . S
C47 C46 1.392 . S
H48 C67 0.949 1_455 S
H49 C68 0.950 . S
H50 C70 0.950 . S
H51 C71 0.950 . S
H52 C73 0.950 . S
H53 C76 0.950 . S
H54 C77 0.950 . S
H55 C79 0.951 . S
H56 C80 0.949 . S
H57 C82 0.949 1_655 S
H58 C83 0.950 . S
H59 C85 0.950 . S
H60 C86 0.950 . S
H61 C88 0.950 . S
H62 C91 0.950 . S
H63 C92 0.950 . S
H64 C94 0.951 . S
H65 C95 0.949 . S
C66 C67 1.376 . S
C66 C71 1.386 . S
C66 C72 1.483 . S
C67 H48 0.949 1_655 S
C67 C66 1.376 . S
C67 C68 1.397 . S
C68 H49 0.950 . S
C68 C67 1.397 . S
C68 C69 1.391 . S
C69 C68 1.391 . S
C69 C70 1.405 . S
C70 H50 0.950 . S
C70 C69 1.405 . S
C70 C71 1.367 . S
C71 H51 0.950 . S
C71 C66 1.386 . S
C71 C70 1.367 . S
C72 C66 1.483 . S
C72 C73 1.382 1_655 S
C72 C74 1.403 . S
C73 H52 0.950 . S
C73 C72 1.382 1_455 S
C73 C89 1.411 . S
C74 C72 1.403 . S
C74 C75 1.489 . S
C74 C88 1.411 . S
C75 C74 1.489 . S
C75 C76 1.383 . S
C75 C80 1.382 . S
C76 H53 0.950 . S
C76 C75 1.383 . S
C76 C77 1.395 . S
C77 H54 0.950 . S
C77 C76 1.395 . S
C77 C78 1.288 . S
C78 C77 1.288 . S
C78 C79 1.392 . S
C79 H55 0.951 . S
C79 C78 1.392 . S
C79 C80 1.392 . S
C80 H56 0.949 . S
C80 C75 1.382 . S
C80 C79 1.392 . S
C81 C82 1.376 . S
C81 C86 1.386 . S
C81 C87 1.483 . S
C82 H57 0.949 1_455 S
C82 C81 1.376 . S
C82 C83 1.397 . S
C83 H58 0.950 . S
C83 C82 1.397 . S
C83 C84 1.391 . S
C84 C83 1.391 . S
C84 C85 1.405 . S
C85 H59 0.950 . S
C85 C84 1.405 . S
C85 C86 1.367 . S
C86 H60 0.950 . S
C86 C81 1.386 . S
C86 C85 1.367 . S
C87 C81 1.483 . S
C87 C88 1.382 1_455 S
C87 C89 1.403 . S
C88 H61 0.950 . S
C88 C74 1.411 . S
C88 C87 1.382 1_655 S
C89 C73 1.411 . S
C89 C87 1.403 . S
C89 C90 1.489 . S
C90 C89 1.489 . S
C90 C91 1.383 . S
C90 C95 1.382 . S
C91 H62 0.950 . S
C91 C90 1.383 . S
C91 C92 1.395 . S
C92 H63 0.950 . S
C92 C91 1.395 . S
C92 C93 1.288 . S
C93 C92 1.288 . S
C93 C94 1.392 . S
C94 H64 0.951 . S
C94 C93 1.392 . S
C94 C95 1.392 . S
C95 H65 0.949 . S
C95 C90 1.382 . S
C95 C94 1.392 . S
H96 C115 0.949 . S
H97 C116 0.950 . S
H98 C118 0.950 . S
H99 C119 0.950 . S
H100 C121 0.950 . S
H101 C124 0.950 . S
H102 C125 0.950 . S
H103 C127 0.951 . S
H104 C128 0.949 . S
H105 C130 0.949 . S
H106 C131 0.950 . S
H107 C133 0.950 . S
H108 C134 0.950 . S
H109 C136 0.950 . S
H110 C139 0.950 . S
H111 C140 0.950 . S
H112 C142 0.951 . S
H113 C143 0.949 . S
C114 C115 1.376 . S
C114 C119 1.386 . S
C114 C120 1.483 . S
C115 H96 0.949 . S
C115 C114 1.376 . S
C115 C116 1.397 . S
C116 H97 0.950 . S
C116 C115 1.397 . S
C116 C117 1.391 . S
C117 C116 1.391 . S
C117 C118 1.405 . S
C118 H98 0.950 . S
C118 C117 1.405 . S
C118 C119 1.367 . S
C119 H99 0.950 . S
C119 C114 1.386 . S
C119 C118 1.367 . S
C120 C114 1.483 . S
C120 C121 1.382 . S
C120 C122 1.403 . S
C121 H100 0.950 . S
C121 C120 1.382 . S
C121 C137 1.411 . S
C122 C120 1.403 . S
C122 C123 1.489 . S
C122 C136 1.411 . S
C123 C122 1.489 . S
C123 C124 1.383 . S
C123 C128 1.382 . S
C124 H101 0.950 . S
C124 C123 1.383 . S
C124 C125 1.395 . S
C125 H102 0.950 . S
C125 C124 1.395 . S
C125 C126 1.288 . S
C126 C125 1.288 . S
C126 C127 1.392 . S
C127 H103 0.951 . S
C127 C126 1.392 . S
C127 C128 1.392 . S
C128 H104 0.949 . S
C128 C123 1.382 . S
C128 C127 1.392 . S
C129 C130 1.376 . S
C129 C134 1.386 . S
C129 C135 1.483 . S
C130 H105 0.949 . S
C130 C129 1.376 . S
C130 C131 1.397 . S
C131 H106 0.950 . S
C131 C130 1.397 . S
C131 C132 1.391 . S
C132 C131 1.391 . S
C132 C133 1.405 . S
C133 H107 0.950 . S
C133 C132 1.405 . S
C133 C134 1.367 . S
C134 H108 0.950 . S
C134 C129 1.386 . S
C134 C133 1.367 . S
C135 C129 1.483 . S
C135 C136 1.382 . S
C135 C137 1.403 . S
C136 H109 0.950 . S
C136 C122 1.411 . S
C136 C135 1.382 . S
C137 C121 1.411 . S
C137 C135 1.403 . S
C137 C138 1.489 . S
C138 C137 1.489 . S
C138 C139 1.383 . S
C138 C143 1.382 . S
C139 H110 0.950 . S
C139 C138 1.383 . S
C139 C140 1.395 . S
C140 H111 0.950 . S
C140 C139 1.395 . S
C140 C141 1.288 . S
C141 C140 1.288 . S
C141 C142 1.392 . S
C142 H112 0.951 . S
C142 C141 1.392 . S
C142 C143 1.392 . S
C143 H113 0.949 . S
C143 C138 1.382 . S
C143 C142 1.392 . S
H144 C163 0.949 . S
H145 C164 0.950 . S
H146 C166 0.950 . S
H147 C167 0.950 . S
H148 C169 0.950 1_565 S
H149 C172 0.950 . S
H150 C173 0.950 . S
H151 C175 0.951 . S
H152 C176 0.949 . S
H153 C178 0.949 . S
H154 C179 0.950 . S
H155 C181 0.950 . S
H156 C182 0.950 . S
H157 C184 0.950 . S
H158 C187 0.950 . S
H159 C188 0.950 . S
H160 C190 0.951 . S
H161 C191 0.949 . S
C162 C163 1.376 . S
C162 C167 1.386 . S
C162 C168 1.483 . S
C163 H144 0.949 . S
C163 C162 1.376 . S
C163 C164 1.397 . S
C164 H145 0.950 . S
C164 C163 1.397 . S
C164 C165 1.391 . S
C165 C164 1.391 . S
C165 C166 1.405 . S
C166 H146 0.950 . S
C166 C165 1.405 . S
C166 C167 1.367 . S
C167 H147 0.950 . S
C167 C162 1.386 . S
C167 C166 1.367 . S
C168 C162 1.483 . S
C168 C169 1.382 1_565 S
C168 C170 1.403 . S
C169 H148 0.950 1_545 S
C169 C168 1.382 1_545 S
C169 C185 1.411 . S
C170 C168 1.403 . S
C170 C171 1.489 . S
C170 C184 1.411 1_565 S
C171 C170 1.489 . S
C171 C172 1.383 . S
C171 C176 1.382 . S
C172 H149 0.950 . S
C172 C171 1.383 . S
C172 C173 1.395 . S
C173 H150 0.950 . S
C173 C172 1.395 . S
C173 C174 1.288 . S
C174 C173 1.288 . S
C174 C175 1.392 . S
C175 H151 0.951 . S
C175 C174 1.392 . S
C175 C176 1.392 . S
C176 H152 0.949 . S
C176 C171 1.382 . S
C176 C175 1.392 . S
C177 C178 1.376 . S
C177 C182 1.386 . S
C177 C183 1.483 . S
C178 H153 0.949 . S
C178 C177 1.376 . S
C178 C179 1.397 . S
C179 H154 0.950 . S
C179 C178 1.397 . S
C179 C180 1.391 . S
C180 C179 1.391 . S
C180 C181 1.405 . S
C181 H155 0.950 . S
C181 C180 1.405 . S
C181 C182 1.367 . S
C182 H156 0.950 . S
C182 C177 1.386 . S
C182 C181 1.367 . S
C183 C177 1.483 . S
C183 C184 1.382 . S
C183 C185 1.403 . S
C184 H157 0.950 . S
C184 C170 1.411 1_545 S
C184 C183 1.382 . S
C185 C169 1.411 . S
C185 C183 1.403 . S
C185 C186 1.489 . S
C186 C185 1.489 . S
C186 C187 1.383 . S
C186 C191 1.382 . S
C187 H158 0.950 . S
C187 C186 1.383 . S
C187 C188 1.395 . S
C188 H159 0.950 . S
C188 C187 1.395 . S
C188 C189 1.288 . S
C189 C188 1.288 . S
C189 C190 1.392 . S
C190 H160 0.951 . S
C190 C189 1.392 . S
C190 C191 1.392 . S
C191 H161 0.949 . S
C191 C186 1.382 . S
C191 C190 1.392 . S
H192 C211 0.949 . S
H193 C212 0.950 . S
H194 C214 0.950 . S
H195 C215 0.950 . S
H196 C217 0.950 . S
H197 C220 0.950 . S
H198 C221 0.950 . S
H199 C223 0.951 . S
H200 C224 0.949 . S
H201 C226 0.949 . S
H202 C227 0.950 . S
H203 C229 0.950 . S
H204 C230 0.950 . S
H205 C232 0.950 . S
H206 C235 0.950 . S
H207 C236 0.950 . S
H208 C238 0.951 . S
H209 C239 0.949 . S
C210 C211 1.376 . S
C210 C215 1.386 . S
C210 C216 1.483 . S
C211 H192 0.949 . S
C211 C210 1.376 . S
C211 C212 1.397 . S
C212 H193 0.950 . S
C212 C211 1.397 . S
C212 C213 1.391 . S
C213 C212 1.391 . S
C213 C214 1.405 . S
C214 H194 0.950 . S
C214 C213 1.405 . S
C214 C215 1.367 . S
C215 H195 0.950 . S
C215 C210 1.386 . S
C215 C214 1.367 . S
C216 C210 1.483 . S
C216 C217 1.382 1_455 S
C216 C218 1.403 . S
C217 H196 0.950 . S
C217 C216 1.382 1_655 S
C217 C233 1.411 . S
C218 C216 1.403 . S
C218 C219 1.489 . S
C218 C232 1.411 . S
C219 C218 1.489 . S
C219 C220 1.383 . S
C219 C224 1.382 . S
C220 H197 0.950 . S
C220 C219 1.383 . S
C220 C221 1.395 . S
C221 H198 0.950 . S
C221 C220 1.395 . S
C221 C222 1.288 . S
C222 C221 1.288 . S
C222 C223 1.392 . S
C223 H199 0.951 . S
C223 C222 1.392 . S
C223 C224 1.392 . S
C224 H200 0.949 . S
C224 C219 1.382 . S
C224 C223 1.392 . S
C225 C226 1.376 . S
C225 C230 1.386 . S
C225 C231 1.483 . S
C226 H201 0.949 . S
C226 C225 1.376 . S
C226 C227 1.397 . S
C227 H202 0.950 . S
C227 C226 1.397 . S
C227 C228 1.391 . S
C228 C227 1.391 . S
C228 C229 1.405 . S
C229 H203 0.950 . S
C229 C228 1.405 . S
C229 C230 1.367 . S
C230 H204 0.950 . S
C230 C225 1.386 . S
C230 C229 1.367 . S
C231 C225 1.483 . S
C231 C232 1.382 1_655 S
C231 C233 1.403 . S
C232 H205 0.950 . S
C232 C218 1.411 . S
C232 C231 1.382 1_455 S
C233 C217 1.411 . S
C233 C231 1.403 . S
C233 C234 1.489 . S
C234 C233 1.489 . S
C234 C235 1.383 . S
C234 C239 1.382 . S
C235 H206 0.950 . S
C235 C234 1.383 . S
C235 C236 1.395 . S
C236 H207 0.950 . S
C236 C235 1.395 . S
C236 C237 1.288 . S
C237 C236 1.288 . S
C237 C238 1.392 . S
C238 H208 0.951 . S
C238 C237 1.392 . S
C238 C239 1.392 . S
C239 H209 0.949 . S
C239 C234 1.382 . S
C239 C238 1.392 . S
H240 C259 0.949 . S
H241 C260 0.950 . S
H242 C262 0.950 . S
H243 C263 0.950 . S
H244 C265 0.950 . S
H245 C268 0.950 . S
H246 C269 0.950 . S
H247 C271 0.951 . S
H248 C272 0.949 . S
H249 C274 0.949 . S
H250 C275 0.950 . S
H251 C277 0.950 . S
H252 C278 0.950 . S
H253 C280 0.950 . S
H254 C283 0.950 . S
H255 C284 0.950 . S
H256 C286 0.951 . S
H257 C287 0.949 . S
C258 C259 1.376 . S
C258 C263 1.386 . S
C258 C264 1.483 . S
C259 H240 0.949 . S
C259 C258 1.376 . S
C259 C260 1.397 . S
C260 H241 0.950 . S
C260 C259 1.397 . S
C260 C261 1.391 . S
C261 C260 1.391 . S
C261 C262 1.405 . S
C262 H242 0.950 . S
C262 C261 1.405 . S
C262 C263 1.367 . S
C263 H243 0.950 . S
C263 C258 1.386 . S
C263 C262 1.367 . S
C264 C258 1.483 . S
C264 C265 1.382 . S
C264 C266 1.403 . S
C265 H244 0.950 . S
C265 C264 1.382 . S
C265 C281 1.411 . S
C266 C264 1.403 . S
C266 C267 1.489 . S
C266 C280 1.411 . S
C267 C266 1.489 . S
C267 C268 1.383 . S
C267 C272 1.382 . S
C268 H245 0.950 . S
C268 C267 1.383 . S
C268 C269 1.395 . S
C269 H246 0.950 . S
C269 C268 1.395 . S
C269 C270 1.288 . S
C270 C269 1.288 . S
C270 C271 1.392 . S
C271 H247 0.951 . S
C271 C270 1.392 . S
C271 C272 1.392 . S
C272 H248 0.949 . S
C272 C267 1.382 . S
C272 C271 1.392 . S
C273 C274 1.376 . S
C273 C278 1.386 . S
C273 C279 1.483 . S
C274 H249 0.949 . S
C274 C273 1.376 . S
C274 C275 1.397 . S
C275 H250 0.950 . S
C275 C274 1.397 . S
C275 C276 1.391 . S
C276 C275 1.391 . S
C276 C277 1.405 . S
C277 H251 0.950 . S
C277 C276 1.405 . S
C277 C278 1.367 . S
C278 H252 0.950 . S
C278 C273 1.386 . S
C278 C277 1.367 . S
C279 C273 1.483 . S
C279 C280 1.382 . S
C279 C281 1.403 . S
C280 H253 0.950 . S
C280 C266 1.411 . S
C280 C279 1.382 . S
C281 C265 1.411 . S
C281 C279 1.403 . S
C281 C282 1.489 . S
C282 C281 1.489 . S
C282 C283 1.383 . S
C282 C287 1.382 . S
C283 H254 0.950 . S
C283 C282 1.383 . S
C283 C284 1.395 . S
C284 H255 0.950 . S
C284 C283 1.395 . S
C284 C285 1.288 . S
C285 C284 1.288 . S
C285 C286 1.392 . S
C286 H256 0.951 . S
C286 C285 1.392 . S
C286 C287 1.392 . S
C287 H257 0.949 . S
C287 C282 1.382 . S
C287 C286 1.392 . S
H288 C307 0.949 . S
H289 C308 0.950 . S
H290 C310 0.950 . S
H291 C311 0.950 . S
H292 C313 0.950 . S
H293 C316 0.950 . S
H294 C317 0.950 . S
H295 C319 0.951 . S
H296 C320 0.949 1_545 S
H297 C322 0.949 . S
H298 C323 0.950 . S
H299 C325 0.950 . S
H300 C326 0.950 . S
H301 C328 0.950 . S
H302 C331 0.950 . S
H303 C332 0.950 . S
H304 C334 0.951 . S
H305 C335 0.949 1_565 S
C306 C307 1.376 . S
C306 C311 1.386 . S
C306 C312 1.483 . S
C307 H288 0.949 . S
C307 C306 1.376 . S
C307 C308 1.397 . S
C308 H289 0.950 . S
C308 C307 1.397 . S
C308 C309 1.391 . S
C309 C308 1.391 . S
C309 C310 1.405 . S
C310 H290 0.950 . S
C310 C309 1.405 . S
C310 C311 1.367 . S
C311 H291 0.950 . S
C311 C306 1.386 . S
C311 C310 1.367 . S
C312 C306 1.483 . S
C312 C313 1.382 . S
C312 C314 1.403 . S
C313 H292 0.950 . S
C313 C312 1.382 . S
C313 C329 1.411 1_565 S
C314 C312 1.403 . S
C314 C315 1.489 . S
C314 C328 1.411 1_565 S
C315 C314 1.489 . S
C315 C316 1.383 . S
C315 C320 1.382 . S
C316 H293 0.950 . S
C316 C315 1.383 . S
C316 C317 1.395 . S
C317 H294 0.950 . S
C317 C316 1.395 . S
C317 C318 1.288 . S
C318 C317 1.288 . S
C318 C319 1.392 . S
C319 H295 0.951 . S
C319 C318 1.392 . S
C319 C320 1.392 . S
C320 H296 0.949 1_565 S
C320 C315 1.382 . S
C320 C319 1.392 . S
C321 C322 1.376 . S
C321 C326 1.386 . S
C321 C327 1.483 . S
C322 H297 0.949 . S
C322 C321 1.376 . S
C322 C323 1.397 . S
C323 H298 0.950 . S
C323 C322 1.397 . S
C323 C324 1.391 . S
C324 C323 1.391 . S
C324 C325 1.405 . S
C325 H299 0.950 . S
C325 C324 1.405 . S
C325 C326 1.367 . S
C326 H300 0.950 . S
C326 C321 1.386 . S
C326 C325 1.367 . S
C327 C321 1.483 . S
C327 C328 1.382 . S
C327 C329 1.403 . S
C328 H301 0.950 . S
C328 C314 1.411 1_545 S
C328 C327 1.382 . S
C329 C313 1.411 1_545 S
C329 C327 1.403 . S
C329 C330 1.489 . S
C330 C329 1.489 . S
C330 C331 1.383 . S
C330 C335 1.382 . S
C331 H302 0.950 . S
C331 C330 1.383 . S
C331 C332 1.395 . S
C332 H303 0.950 . S
C332 C331 1.395 . S
C332 C333 1.288 . S
C333 C332 1.288 . S
C333 C334 1.392 . S
C334 H304 0.951 . S
C334 C333 1.392 . S
C334 C335 1.392 . S
C335 H305 0.949 1_545 S
C335 C330 1.382 . S
C335 C334 1.392 . S
H336 C355 0.949 1_455 S
H337 C356 0.950 . S
H338 C358 0.950 . S
H339 C359 0.950 . S
H340 C361 0.950 . S
H341 C364 0.950 . S
H342 C365 0.950 . S
H343 C367 0.951 . S
H344 C368 0.949 . S
H345 C370 0.941 1_655 S
H346 C371 0.950 . S
H347 C373 0.950 . S
H348 C374 0.950 . S
H349 C376 0.947 1_565 S
H350 C379 0.950 . S
H351 C380 0.950 . S
H352 C382 0.951 . S
H353 C383 0.949 . S
C354 C355 1.376 . S
C354 C359 1.386 . S
C354 C360 1.483 . S
C355 H336 0.949 1_655 S
C355 C354 1.376 . S
C355 C356 1.397 . S
C356 H337 0.950 . S
C356 C355 1.397 . S
C356 C357 1.391 . S
C357 C356 1.391 . S
C357 C358 1.405 . S
C358 H338 0.950 . S
C358 C357 1.405 . S
C358 C359 1.367 . S
C359 H339 0.950 . S
C359 C354 1.386 . S
C359 C358 1.367 . S
C360 C354 1.483 . S
C360 C361 1.382 1_655 S
C360 C362 1.403 . S
C361 H340 0.950 . S
C361 C360 1.382 1_455 S
C361 C377 1.411 1_545 S
C362 C360 1.403 . S
C362 C363 1.489 . S
C362 C376 1.434 . S
C363 C362 1.489 . S
C363 C364 1.383 . S
C363 C368 1.382 . S
C364 H341 0.950 . S
C364 C363 1.383 . S
C364 C365 1.395 . S
C365 H342 0.950 . S
C365 C364 1.395 . S
C365 C366 1.288 . S
C366 C365 1.288 . S
C366 C367 1.392 . S
C367 H343 0.951 . S
C367 C366 1.392 . S
C367 C368 1.392 . S
C368 H344 0.949 . S
C368 C363 1.382 . S
C368 C367 1.392 . S
C369 C370 1.376 . S
C369 C374 1.386 . S
C369 C375 1.483 . S
C370 H345 0.941 1_455 S
C370 C369 1.376 . S
C370 C371 1.397 . S
C371 H346 0.950 . S
C371 C370 1.397 . S
C371 C372 1.391 . S
C372 C371 1.391 . S
C372 C373 1.405 . S
C373 H347 0.950 . S
C373 C372 1.405 . S
C373 C374 1.367 . S
C374 H348 0.950 . S
C374 C369 1.386 . S
C374 C373 1.367 . S
C375 C369 1.483 . S
C375 C376 1.363 1_465 S
C375 C377 1.403 . S
C376 H349 0.947 1_545 S
C376 C362 1.434 . S
C376 C375 1.363 1_645 S
C377 C361 1.411 1_565 S
C377 C375 1.403 . S
C377 C378 1.489 . S
C378 C377 1.489 . S
C378 C379 1.383 . S
C378 C383 1.382 . S
C379 H350 0.950 . S
C379 C378 1.383 . S
C379 C380 1.395 . S
C380 H351 0.950 . S
C380 C379 1.395 . S
C380 C381 1.288 . S
C381 C380 1.288 . S
C381 C382 1.392 . S
C382 H352 0.951 . S
C382 C381 1.392 . S
C382 C383 1.392 . S
C383 H353 0.949 . S
C383 C378 1.382 . S
C383 C382 1.392 . S
Mn384 O389 2.095 1_554 S
Mn384 O399 2.162 . S
Mn384 O400 2.297 . S
Mn384 O408 2.385 . S
Mn384 O409 2.209 . S
Mn384 O410 2.094 1_554 S
Mn385 O390 2.121 . S
Mn385 N392 2.257 1_556 S
Mn385 N401 2.282 1_556 S
Mn385 O409 2.215 1_556 S
Mn385 O411 2.117 . S
C386 O408 1.234 . S
C386 O409 1.283 . S
C387 O399 1.281 . S
C387 O400 1.236 . S
C388 O410 1.240 . S
C388 O411 1.264 . S
O389 Mn384 2.095 1_556 S
O389 C398 1.250 . S
O390 Mn385 2.121 . S
O390 C398 1.258 . S
C391 N392 1.326 1_556 S
C391 C395 1.460 1_556 S
C391 H397 0.929 . S
N392 Mn385 2.257 1_554 S
N392 C391 1.326 1_554 S
N392 C396 1.362 . S
C393 C394 1.258 . S
C393 C396 1.431 . S
C393 C413 1.449 . S
C394 C393 1.258 . S
C394 C395 1.477 . S
C394 H414 0.931 . S
C395 C391 1.460 1_554 S
C395 C394 1.477 . S
C395 H415 0.930 1_554 S
C396 N392 1.362 . S
C396 C393 1.431 . S
C396 C406 1.476 . S
H397 C391 0.929 . S
C398 O389 1.250 . S
C398 O390 1.258 . S
O399 Mn384 2.162 . S
O399 C387 1.281 . S
O400 Mn384 2.297 . S
O400 C387 1.236 . S
N401 Mn385 2.282 1_554 S
N401 C402 1.328 . S
N401 C406 1.318 . S
C402 N401 1.328 . S
C402 C403 1.457 . S
C402 H407 0.929 . S
C403 C402 1.457 . S
C403 C404 1.291 . S
C403 H416 0.931 . S
C404 C403 1.291 . S
C404 C405 1.373 . S
C404 H417 0.929 . S
C405 C404 1.373 . S
C405 C406 1.396 . S
C405 C412 1.403 . S
C406 C396 1.476 . S
C406 N401 1.318 . S
C406 C405 1.396 . S
H407 C402 0.929 . S
O408 Mn384 2.385 . S
O408 C386 1.234 . S
O409 Mn384 2.209 . S
O409 Mn385 2.215 1_554 S
O409 C386 1.283 . S
O410 Mn384 2.094 1_556 S
O410 C388 1.240 . S
O411 Mn385 2.117 . S
O411 C388 1.264 . S
C412 C405 1.403 . S
C412 C413 1.399 . S
C412 H418 0.929 . S
C413 C393 1.449 . S
C413 C412 1.399 . S
C413 H419 0.930 . S
H414 C394 0.931 . S
H415 C395 0.930 1_556 S
H416 C403 0.931 . S
H417 C404 0.929 . S
H418 C412 0.929 . S
H419 C413 0.930 . S
Mn420 O425 2.095 . S
Mn420 O435 2.162 . S
Mn420 O436 2.297 . S
Mn420 O444 2.385 . S
Mn420 O445 2.209 . S
Mn420 O446 2.094 . S
Mn421 O426 2.121 . S
Mn421 N428 2.257 . S
Mn421 N437 2.282 . S
Mn421 O445 2.215 . S
Mn421 O447 2.117 . S
C422 O444 1.234 . S
C422 O445 1.283 . S
C423 O435 1.281 . S
C423 O436 1.236 . S
C424 O446 1.240 . S
C424 O447 1.264 . S
O425 Mn420 2.095 . S
O425 C434 1.250 . S
O426 Mn421 2.121 . S
O426 C434 1.258 . S
C427 N428 1.326 . S
C427 C431 1.460 . S
C427 H433 0.929 . S
N428 Mn421 2.257 . S
N428 C427 1.326 . S
N428 C432 1.362 . S
C429 C430 1.258 . S
C429 C432 1.431 . S
C429 C449 1.449 . S
C430 C429 1.258 . S
C430 C431 1.477 . S
C430 H450 0.931 . S
C431 C427 1.460 . S
C431 C430 1.477 . S
C431 H451 0.930 . S
C432 N428 1.362 . S
C432 C429 1.431 . S
C432 C442 1.476 . S
H433 C427 0.929 . S
C434 O425 1.250 . S
C434 O426 1.258 . S
O435 Mn420 2.162 . S
O435 C423 1.281 . S
O436 Mn420 2.297 . S
O436 C423 1.236 . S
N437 Mn421 2.282 . S
N437 C438 1.328 . S
N437 C442 1.318 . S
C438 N437 1.328 . S
C438 C439 1.457 . S
C438 H443 0.929 . S
C439 C438 1.457 . S
C439 C440 1.291 . S
C439 H452 0.931 . S
C440 C439 1.291 . S
C440 C441 1.373 . S
C440 H453 0.929 . S
C441 C440 1.373 . S
C441 C442 1.396 . S
C441 C448 1.403 . S
C442 C432 1.476 . S
C442 N437 1.318 . S
C442 C441 1.396 . S
H443 C438 0.929 . S
O444 Mn420 2.385 . S
O444 C422 1.234 . S
O445 Mn420 2.209 . S
O445 Mn421 2.215 . S
O445 C422 1.283 . S
O446 Mn420 2.094 . S
O446 C424 1.240 . S
O447 Mn421 2.117 . S
O447 C424 1.264 . S
C448 C441 1.403 . S
C448 C449 1.399 . S
C448 H454 0.929 . S
C449 C429 1.449 . S
C449 C448 1.399 . S
C449 H455 0.930 . S
H450 C430 0.931 . S
H451 C431 0.930 . S
H452 C439 0.931 . S
H453 C440 0.929 . S
H454 C448 0.929 . S
H455 C449 0.930 . S
Mn456 O461 2.095 . S
Mn456 O471 2.162 . S
Mn456 O472 2.297 . S
Mn456 O480 2.385 . S
Mn456 O481 2.209 . S
Mn456 O482 2.094 . S
Mn457 O462 2.121 . S
Mn457 N464 2.257 . S
Mn457 N473 2.282 . S
Mn457 O481 2.215 . S
Mn457 O483 2.117 . S
C458 O480 1.234 . S
C458 O481 1.283 . S
C459 O471 1.281 . S
C459 O472 1.236 . S
C460 O482 1.240 . S
C460 O483 1.264 . S
O461 Mn456 2.095 . S
O461 C470 1.250 . S
O462 Mn457 2.121 . S
O462 C470 1.258 . S
C463 N464 1.326 . S
C463 C467 1.460 . S
C463 H469 0.929 . S
N464 Mn457 2.257 . S
N464 C463 1.326 . S
N464 C468 1.362 . S
C465 C466 1.258 . S
C465 C468 1.431 . S
C465 C485 1.449 . S
C466 C465 1.258 . S
C466 C467 1.477 . S
C466 H486 0.937 . S
C467 C463 1.460 . S
C467 C466 1.477 . S
C467 H487 0.930 . S
C468 N464 1.362 . S
C468 C465 1.431 . S
C468 C478 1.476 . S
H469 C463 0.929 . S
C470 O461 1.250 . S
C470 O462 1.258 . S
O471 Mn456 2.162 . S
O471 C459 1.281 . S
O472 Mn456 2.297 . S
O472 C459 1.236 . S
N473 Mn457 2.282 . S
N473 C474 1.328 . S
N473 C478 1.318 . S
C474 N473 1.328 . S
C474 C475 1.457 . S
C474 H479 0.929 . S
C475 C474 1.457 . S
C475 C476 1.291 . S
C475 H488 0.931 . S
C476 C475 1.291 . S
C476 C477 1.373 . S
C476 H489 0.929 . S
C477 C476 1.373 . S
C477 C478 1.396 . S
C477 C484 1.403 . S
C478 C468 1.476 . S
C478 N473 1.318 . S
C478 C477 1.396 . S
H479 C474 0.929 . S
O480 Mn456 2.385 . S
O480 C458 1.234 . S
O481 Mn456 2.209 . S
O481 Mn457 2.215 . S
O481 C458 1.283 . S
O482 Mn456 2.094 . S
O482 C460 1.240 . S
O483 Mn457 2.117 . S
O483 C460 1.264 . S
C484 C477 1.403 . S
C484 C485 1.399 . S
C484 H490 0.929 1_455 S
C485 C465 1.449 . S
C485 C484 1.399 . S
C485 H491 0.930 1_455 S
H486 C466 0.937 . S
H487 C467 0.930 . S
H488 C475 0.931 . S
H489 C476 0.929 . S
H490 C484 0.929 1_655 S
H491 C485 0.930 1_655 S
Mn492 O497 2.095 . S
Mn492 O507 2.162 . S
Mn492 O508 2.297 . S
Mn492 O516 2.385 . S
Mn492 O517 2.209 . S
Mn492 O518 2.094 . S
Mn493 O498 2.121 . S
Mn493 N500 2.257 . S
Mn493 N509 2.282 . S
Mn493 O517 2.215 . S
Mn493 O519 2.117 . S
C494 O516 1.234 . S
C494 O517 1.283 . S
C495 O507 1.281 . S
C495 O508 1.236 . S
C496 O518 1.240 . S
C496 O519 1.264 . S
O497 Mn492 2.095 . S
O497 C506 1.250 . S
O498 Mn493 2.121 . S
O498 C506 1.258 . S
C499 N500 1.326 . S
C499 C503 1.460 . S
C499 H505 0.929 . S
N500 Mn493 2.257 . S
N500 C499 1.326 . S
N500 C504 1.362 . S
C501 C502 1.258 . S
C501 C504 1.431 . S
C501 C521 1.449 . S
C502 C501 1.258 . S
C502 C503 1.477 . S
C502 H522 0.931 . S
C503 C499 1.460 . S
C503 C502 1.477 . S
C503 H523 0.930 . S
C504 N500 1.362 . S
C504 C501 1.431 . S
C504 C514 1.476 . S
H505 C499 0.929 . S
C506 O497 1.250 . S
C506 O498 1.258 . S
O507 Mn492 2.162 . S
O507 C495 1.281 . S
O508 Mn492 2.297 . S
O508 C495 1.236 . S
N509 Mn493 2.282 . S
N509 C510 1.328 . S
N509 C514 1.318 . S
C510 N509 1.328 . S
C510 C511 1.457 . S
C510 H515 0.929 . S
C511 C510 1.457 . S
C511 C512 1.291 . S
C511 H524 0.931 . S
C512 C511 1.291 . S
C512 C513 1.373 . S
C512 H525 0.929 . S
C513 C512 1.373 . S
C513 C514 1.396 . S
C513 C520 1.403 . S
C514 C504 1.476 . S
C514 N509 1.318 . S
C514 C513 1.396 . S
H515 C510 0.929 . S
O516 Mn492 2.385 . S
O516 C494 1.234 . S
O517 Mn492 2.209 . S
O517 Mn493 2.215 . S
O517 C494 1.283 . S
O518 Mn492 2.094 . S
O518 C496 1.240 . S
O519 Mn493 2.117 . S
O519 C496 1.264 . S
C520 C513 1.403 . S
C520 C521 1.399 . S
C520 H526 0.929 . S
C521 C501 1.449 . S
C521 C520 1.399 . S
C521 H527 0.930 . S
H522 C502 0.931 . S
H523 C503 0.930 . S
H524 C511 0.931 . S
H525 C512 0.929 . S
H526 C520 0.929 . S
H527 C521 0.930 . S
Mn528 O533 2.095 . S
Mn528 O543 2.162 . S
Mn528 O544 2.297 . S
Mn528 O552 2.385 . S
Mn528 O553 2.209 . S
Mn528 O554 2.094 . S
Mn529 O534 2.121 . S
Mn529 N536 2.257 . S
Mn529 N545 2.282 . S
Mn529 O553 2.215 . S
Mn529 O555 2.117 . S
C530 O552 1.234 . S
C530 O553 1.283 . S
C531 O543 1.281 . S
C531 O544 1.236 . S
C532 O554 1.240 . S
C532 O555 1.264 . S
O533 Mn528 2.095 . S
O533 C542 1.250 . S
O534 Mn529 2.121 . S
O534 C542 1.258 . S
C535 N536 1.326 . S
C535 C539 1.460 . S
C535 H541 0.929 . S
N536 Mn529 2.257 . S
N536 C535 1.326 . S
N536 C540 1.362 . S
C537 C538 1.258 . S
C537 C540 1.431 . S
C537 C557 1.449 . S
C538 C537 1.258 . S
C538 C539 1.477 . S
C538 H558 0.946 . S
C539 C535 1.460 . S
C539 C538 1.477 . S
C539 H559 0.930 . S
C540 N536 1.362 . S
C540 C537 1.431 . S
C540 C550 1.476 . S
H541 C535 0.929 . S
C542 O533 1.250 . S
C542 O534 1.258 . S
O543 Mn528 2.162 . S
O543 C531 1.281 . S
O544 Mn528 2.297 . S
O544 C531 1.236 . S
N545 Mn529 2.282 . S
N545 C546 1.328 . S
N545 C550 1.318 . S
C546 N545 1.328 . S
C546 C547 1.457 . S
C546 H551 0.929 . S
C547 C546 1.457 . S
C547 C548 1.291 . S
C547 H560 0.931 . S
C548 C547 1.291 . S
C548 C549 1.373 . S
C548 H561 0.929 . S
C549 C548 1.373 . S
C549 C550 1.396 . S
C549 C556 1.403 . S
C550 C540 1.476 . S
C550 N545 1.318 . S
C550 C549 1.396 . S
H551 C546 0.929 . S
O552 Mn528 2.385 . S
O552 C530 1.234 . S
O553 Mn528 2.209 . S
O553 Mn529 2.215 . S
O553 C530 1.283 . S
O554 Mn528 2.094 . S
O554 C532 1.240 . S
O555 Mn529 2.117 . S
O555 C532 1.264 . S
C556 C549 1.403 . S
C556 C557 1.399 . S
C556 H562 0.929 1_545 S
C557 C537 1.449 . S
C557 C556 1.399 . S
C557 H563 0.930 1_545 S
H558 C538 0.946 . S
H559 C539 0.930 . S
H560 C547 0.931 . S
H561 C548 0.929 . S
H562 C556 0.929 1_565 S
H563 C557 0.930 1_565 S
Mn564 O569 2.095 . S
Mn564 O579 2.162 . S
Mn564 O580 2.297 . S
Mn564 O588 2.385 . S
Mn564 O589 2.209 . S
Mn564 O590 2.094 . S
Mn565 O570 2.121 . S
Mn565 N572 2.257 . S
Mn565 N581 2.282 . S
Mn565 O589 2.215 . S
Mn565 O591 2.117 . S
C566 O588 1.234 . S
C566 O589 1.283 . S
C567 O579 1.281 . S
C567 O580 1.236 . S
C568 O590 1.240 . S
C568 O591 1.264 . S
O569 Mn564 2.095 . S
O569 C578 1.250 . S
O570 Mn565 2.121 . S
O570 C578 1.258 . S
C571 N572 1.326 . S
C571 C575 1.460 . S
C571 H577 0.929 . S
N572 Mn565 2.257 . S
N572 C571 1.326 . S
N572 C576 1.362 . S
C573 C574 1.258 . S
C573 C576 1.431 . S
C573 C593 1.449 1_655 S
C574 C573 1.258 . S
C574 C575 1.477 . S
C574 H594 0.931 1_655 S
C575 C571 1.460 . S
C575 C574 1.477 . S
C575 H595 0.930 . S
C576 N572 1.362 . S
C576 C573 1.431 . S
C576 C586 1.476 . S
H577 C571 0.929 . S
C578 O569 1.250 . S
C578 O570 1.258 . S
O579 Mn564 2.162 . S
O579 C567 1.281 . S
O580 Mn564 2.297 . S
O580 C567 1.236 . S
N581 Mn565 2.282 . S
N581 C582 1.328 . S
N581 C586 1.318 . S
C582 N581 1.328 . S
C582 C583 1.457 . S
C582 H587 0.929 . S
C583 C582 1.457 . S
C583 C584 1.291 . S
C583 H596 0.931 . S
C584 C583 1.291 . S
C584 C585 1.373 . S
C584 H597 0.929 . S
C585 C584 1.373 . S
C585 C586 1.396 . S
C585 C592 1.403 . S
C586 C576 1.476 . S
C586 N581 1.318 . S
C586 C585 1.396 . S
H587 C582 0.929 . S
O588 Mn564 2.385 . S
O588 C566 1.234 . S
O589 Mn564 2.209 . S
O589 Mn565 2.215 . S
O589 C566 1.283 . S
O590 Mn564 2.094 . S
O590 C568 1.240 . S
O591 Mn565 2.117 . S
O591 C568 1.264 . S
C592 C585 1.403 . S
C592 C593 1.399 1_655 S
C592 H598 0.929 1_655 S
C593 C573 1.449 1_455 S
C593 C592 1.399 1_455 S
C593 H599 0.930 . S
H594 C574 0.931 1_455 S
H595 C575 0.930 . S
H596 C583 0.931 . S
H597 C584 0.929 . S
H598 C592 0.929 1_455 S
H599 C593 0.930 . S
Mn600 O605 2.095 . S
Mn600 O615 2.161 1_554 S
Mn600 O616 2.297 1_554 S
Mn600 O624 2.385 1_554 S
Mn600 O625 2.209 1_554 S
Mn600 O626 2.094 . S
Mn601 O606 2.121 . S
Mn601 N608 2.257 1_554 S
Mn601 N617 2.282 1_554 S
Mn601 O625 2.215 1_554 S
Mn601 O627 2.117 . S
C602 O624 1.234 . S
C602 O625 1.283 . S
C603 O615 1.282 . S
C603 O616 1.236 . S
C604 O626 1.240 . S
C604 O627 1.264 . S
O605 Mn600 2.095 . S
O605 C614 1.250 . S
O606 Mn601 2.121 . S
O606 C614 1.258 . S
C607 N608 1.326 1_554 S
C607 C611 1.466 . S
C607 H613 0.929 . S
N608 Mn601 2.257 1_556 S
N608 C607 1.326 1_556 S
N608 C612 1.362 . S
C609 C610 1.258 . S
C609 C612 1.431 . S
C609 C629 1.449 . S
C610 C609 1.258 . S
C610 C611 1.461 1_556 S
C610 H630 0.931 . S
C611 C607 1.466 . S
C611 C610 1.461 1_554 S
C611 H631 0.940 . S
C612 N608 1.362 . S
C612 C609 1.431 . S
C612 C622 1.476 . S
H613 C607 0.929 . S
C614 O605 1.250 . S
C614 O606 1.258 . S
O615 Mn600 2.161 1_556 S
O615 C603 1.282 . S
O616 Mn600 2.297 1_556 S
O616 C603 1.236 . S
N617 Mn601 2.282 1_556 S
N617 C618 1.328 . S
N617 C622 1.318 . S
C618 N617 1.328 . S
C618 C619 1.457 . S
C618 H623 0.929 . S
C619 C618 1.457 . S
C619 C620 1.291 . S
C619 H632 0.931 . S
C620 C619 1.291 . S
C620 C621 1.373 . S
C620 H633 0.929 . S
C621 C620 1.373 . S
C621 C622 1.396 . S
C621 C628 1.403 . S
C622 C612 1.476 . S
C622 N617 1.318 . S
C622 C621 1.396 . S
H623 C618 0.929 . S
O624 Mn600 2.385 1_556 S
O624 C602 1.234 . S
O625 Mn600 2.209 1_556 S
O625 Mn601 2.215 1_556 S
O625 C602 1.283 . S
O626 Mn600 2.094 . S
O626 C604 1.240 . S
O627 Mn601 2.117 . S
O627 C604 1.264 . S
C628 C621 1.403 . S
C628 C629 1.399 . S
C628 H634 0.929 . S
C629 C609 1.449 . S
C629 C628 1.399 . S
C629 H635 0.930 . S
H630 C610 0.931 . S
H631 C611 0.940 . S
H632 C619 0.931 . S
H633 C620 0.929 . S
H634 C628 0.929 . S
H635 C629 0.930 . S
Mn636 O641 2.095 . S
Mn636 O651 2.162 . S
Mn636 O652 2.297 . S
Mn636 O660 2.385 . S
Mn636 O661 2.209 . S
Mn636 O662 2.094 . S
Mn637 O642 2.121 . S
Mn637 N644 2.257 . S
Mn637 N653 2.282 . S
Mn637 O661 2.215 . S
Mn637 O663 2.117 . S
C638 O660 1.234 . S
C638 O661 1.283 . S
C639 O651 1.281 . S
C639 O652 1.236 . S
C640 O662 1.240 . S
C640 O663 1.264 . S
O641 Mn636 2.095 . S
O641 C650 1.250 . S
O642 Mn637 2.121 . S
O642 C650 1.258 . S
C643 N644 1.326 . S
C643 C647 1.460 . S
C643 H649 0.929 . S
N644 Mn637 2.257 . S
N644 C643 1.326 . S
N644 C648 1.362 . S
C645 C646 1.258 . S
C645 C648 1.431 . S
C645 C665 1.449 . S
C646 C645 1.258 . S
C646 C647 1.477 . S
C646 H666 0.931 . S
C647 C643 1.460 . S
C647 C646 1.477 . S
C647 H667 0.930 . S
C648 N644 1.362 . S
C648 C645 1.431 . S
C648 C658 1.476 . S
H649 C643 0.929 . S
C650 O641 1.250 . S
C650 O642 1.258 . S
O651 Mn636 2.162 . S
O651 C639 1.281 . S
O652 Mn636 2.297 . S
O652 C639 1.236 . S
N653 Mn637 2.282 . S
N653 C654 1.328 . S
N653 C658 1.318 . S
C654 N653 1.328 . S
C654 C655 1.457 . S
C654 H659 0.929 . S
C655 C654 1.457 . S
C655 C656 1.291 . S
C655 H668 0.931 . S
C656 C655 1.291 . S
C656 C657 1.373 . S
C656 H669 0.929 . S
C657 C656 1.373 . S
C657 C658 1.396 . S
C657 C664 1.403 . S
C658 C648 1.476 . S
C658 N653 1.318 . S
C658 C657 1.396 . S
H659 C654 0.929 . S
O660 Mn636 2.385 . S
O660 C638 1.234 . S
O661 Mn636 2.209 . S
O661 Mn637 2.215 . S
O661 C638 1.283 . S
O662 Mn636 2.094 . S
O662 C640 1.240 . S
O663 Mn637 2.117 . S
O663 C640 1.264 . S
C664 C657 1.403 . S
C664 C665 1.399 . S
C664 H670 0.929 1_545 S
C665 C645 1.449 . S
C665 C664 1.399 . S
C665 H671 0.930 1_545 S
H666 C646 0.931 . S
H667 C647 0.930 . S
H668 C655 0.931 . S
H669 C656 0.929 . S
H670 C664 0.929 1_565 S
H671 C665 0.930 1_565 S
C672 C673 1.369 . S
C672 C674 1.419 . S
C672 H676 0.930 . S
C673 C672 1.369 . S
C673 C682 1.429 . S
C674 C672 1.419 . S
C674 C675 1.363 . S
C674 H677 0.929 . S
C675 C674 1.363 . S
C675 C681 1.428 . S
H676 C672 0.930 . S
H677 C674 0.929 . S
S678 N679 1.613 . S
S678 N680 1.610 . S
N679 S678 1.613 . S
N679 C682 1.350 . S
N680 S678 1.610 . S
N680 C681 1.351 . S
C681 C675 1.428 . S
C681 N680 1.351 . S
C681 C682 1.434 . S
C682 C673 1.429 . S
C682 N679 1.350 . S
C682 C681 1.434 . S
C683 C684 1.369 . S
C683 C685 1.419 . S
C683 H687 0.930 . S
C684 C683 1.369 . S
C684 C693 1.429 . S
C685 C683 1.419 . S
C685 C686 1.363 . S
C685 H688 0.929 . S
C686 C685 1.363 . S
C686 C692 1.428 . S
H687 C683 0.930 . S
H688 C685 0.929 . S
S689 N690 1.613 . S
S689 N691 1.610 . S
N690 S689 1.613 . S
N690 C693 1.350 . S
N691 S689 1.610 . S
N691 C692 1.351 . S
C692 C686 1.428 . S
C692 N691 1.351 . S
C692 C693 1.434 . S
C693 C684 1.429 . S
C693 N690 1.350 . S
C693 C692 1.434 . S
C694 C695 1.369 . S
C694 C696 1.419 . S
C694 H698 0.930 . S
C695 C694 1.369 . S
C695 C704 1.429 . S
C696 C694 1.419 . S
C696 C697 1.363 . S
C696 H699 0.929 . S
C697 C696 1.363 . S
C697 C703 1.428 . S
H698 C694 0.930 . S
H699 C696 0.929 . S
S700 N701 1.613 . S
S700 N702 1.610 . S
N701 S700 1.613 . S
N701 C704 1.350 . S
N702 S700 1.610 . S
N702 C703 1.351 . S
C703 C697 1.428 . S
C703 N702 1.351 . S
C703 C704 1.434 . S
C704 C695 1.429 . S
C704 N701 1.350 . S
C704 C703 1.434 . S
C705 C706 1.387 . S
C705 C707 1.417 1_554 S
C705 H709 0.913 1_554 S
C706 C705 1.387 . S
C706 C715 1.429 . S
C707 C705 1.417 1_556 S
C707 C708 1.346 1_556 S
C707 H710 0.949 . S
C708 C707 1.346 1_554 S
C708 C714 1.428 . S
H709 C705 0.913 1_556 S
H710 C707 0.949 . S
S711 N712 1.613 . S
S711 N713 1.610 . S
N712 S711 1.613 . S
N712 C715 1.350 . S
N713 S711 1.610 . S
N713 C714 1.351 . S
C714 C708 1.428 . S
C714 N713 1.351 . S
C714 C715 1.434 . S
C715 C706 1.429 . S
C715 N712 1.350 . S
C715 C714 1.434 . S
C716 C717 1.369 1_554 S
C716 C718 1.419 . S
C716 H720 0.930 . S
C717 C716 1.369 1_556 S
C717 C726 1.429 . S
C718 C716 1.419 . S
C718 C719 1.363 1_554 S
C718 H721 0.929 . S
C719 C718 1.363 1_556 S
C719 C725 1.428 . S
H720 C716 0.930 . S
H721 C718 0.929 . S
S722 N723 1.613 . S
S722 N724 1.610 . S
N723 S722 1.613 . S
N723 C726 1.350 . S
N724 S722 1.610 . S
N724 C725 1.351 . S
C725 C719 1.428 . S
C725 N724 1.351 . S
C725 C726 1.434 . S
C726 C717 1.429 . S
C726 N723 1.350 . S
C726 C725 1.434 . S
C727 C728 1.369 . S
C727 C729 1.419 . S
C727 H731 0.930 . S
C728 C727 1.369 . S
C728 C737 1.429 . S
C729 C727 1.419 . S
C729 C730 1.363 . S
C729 H732 0.929 . S
C730 C729 1.363 . S
C730 C736 1.428 . S
H731 C727 0.930 . S
H732 C729 0.929 . S
S733 N734 1.613 . S
S733 N735 1.610 . S
N734 S733 1.613 . S
N734 C737 1.350 . S
N735 S733 1.610 . S
N735 C736 1.351 . S
C736 C730 1.428 . S
C736 N735 1.351 . S
C736 C737 1.434 . S
C737 C728 1.429 . S
C737 N734 1.350 . S
C737 C736 1.434 . S
C738 C739 1.369 . S
C738 C740 1.419 . S
C738 H742 0.930 . S
C739 C738 1.369 . S
C739 C748 1.429 . S
C740 C738 1.419 . S
C740 C741 1.363 . S
C740 H743 0.929 . S
C741 C740 1.363 . S
C741 C747 1.428 . S
H742 C738 0.930 . S
H743 C740 0.929 . S
S744 N745 1.613 . S
S744 N746 1.610 . S
N745 S744 1.613 . S
N745 C748 1.350 . S
N746 S744 1.610 . S
N746 C747 1.351 . S
C747 C741 1.428 . S
C747 N746 1.351 . S
C747 C748 1.434 . S
C748 C739 1.429 . S
C748 N745 1.350 . S
C748 C747 1.434 . S
C749 C750 1.369 . S
C749 C751 1.419 . S
C749 H753 0.930 . S
C750 C749 1.369 . S
C750 C759 1.429 . S
C751 C749 1.419 . S
C751 C752 1.363 . S
C751 H754 0.929 . S
C752 C751 1.363 . S
C752 C758 1.428 . S
H753 C749 0.930 . S
H754 C751 0.929 . S
S755 N756 1.613 . S
S755 N757 1.610 . S
N756 S755 1.613 . S
N756 C759 1.350 . S
N757 S755 1.610 . S
N757 C758 1.351 . S
C758 C752 1.428 . S
C758 N757 1.351 . S
C758 C759 1.434 . S
C759 C750 1.429 . S
C759 N756 1.350 . S
C759 C758 1.434 . S
C760 C761 1.369 . S
C760 C762 1.419 . S
C760 H764 0.930 . S
C761 C760 1.369 . S
C761 C770 1.429 . S
C762 C760 1.419 . S
C762 C763 1.363 . S
C762 H765 0.929 . S
C763 C762 1.363 . S
C763 C769 1.428 . S
H764 C760 0.930 . S
H765 C762 0.929 . S
S766 N767 1.613 . S
S766 N768 1.610 . S
N767 S766 1.613 . S
N767 C770 1.350 . S
N768 S766 1.610 . S
N768 C769 1.351 . S
C769 C763 1.428 . S
C769 N768 1.351 . S
C769 C770 1.434 . S
C770 C761 1.429 . S
C770 N767 1.350 . S
C770 C769 1.434 . S
C771 C772 1.369 . S
C771 C773 1.419 . S
C771 H775 0.930 . S
C772 C771 1.369 . S
C772 C781 1.429 . S
C773 C771 1.419 . S
C773 C774 1.363 . S
C773 H776 0.929 . S
C774 C773 1.363 . S
C774 C780 1.428 . S
H775 C771 0.930 . S
H776 C773 0.929 . S
S777 N778 1.613 1_556 S
S777 N779 1.610 1_556 S
N778 S777 1.613 1_554 S
N778 C781 1.350 . S
N779 S777 1.610 1_554 S
N779 C780 1.351 . S
C780 C774 1.428 . S
C780 N779 1.351 . S
C780 C781 1.434 . S
C781 C772 1.429 . S
C781 N778 1.350 . S
C781 C780 1.434 . S
C782 C783 1.369 . S
C782 C784 1.419 . S
C782 H786 0.930 . S
C783 C782 1.369 . S
C783 C792 1.429 . S
C784 C782 1.419 . S
C784 C785 1.363 . S
C784 H787 0.929 . S
C785 C784 1.363 . S
C785 C791 1.428 . S
H786 C782 0.930 . S
H787 C784 0.929 . S
S788 N789 1.613 . S
S788 N790 1.610 . S
N789 S788 1.613 . S
N789 C792 1.350 . S
N790 S788 1.610 . S
N790 C791 1.351 . S
C791 C785 1.428 . S
C791 N790 1.351 . S
C791 C792 1.434 . S
C792 C783 1.429 . S
C792 N789 1.350 . S
C792 C791 1.434 . S
C793 C794 1.369 . S
C793 C795 1.419 . S
C793 H797 0.930 . S
C794 C793 1.369 . S
C794 C803 1.429 . S
C795 C793 1.419 . S
C795 C796 1.363 . S
C795 H798 0.929 . S
C796 C795 1.363 . S
C796 C802 1.428 . S
H797 C793 0.930 . S
H798 C795 0.929 . S
S799 N800 1.613 . S
S799 N801 1.610 . S
N800 S799 1.613 . S
N800 C803 1.350 . S
N801 S799 1.610 . S
N801 C802 1.351 . S
C802 C796 1.428 . S
C802 N801 1.351 . S
C802 C803 1.434 . S
C803 C794 1.429 . S
C803 N800 1.350 . S
C803 C802 1.434 . S
C804 C805 1.369 . S
C804 C806 1.419 . S
C804 H808 0.930 . S
C805 C804 1.369 . S
C805 C814 1.429 . S
C806 C804 1.419 . S
C806 C807 1.363 . S
C806 H809 0.929 . S
C807 C806 1.363 . S
C807 C813 1.428 . S
H808 C804 0.930 . S
H809 C806 0.929 . S
S810 N811 1.613 . S
S810 N812 1.610 . S
N811 S810 1.613 . S
N811 C814 1.350 . S
N812 S810 1.610 . S
N812 C813 1.351 . S
C813 C807 1.428 . S
C813 N812 1.351 . S
C813 C814 1.434 . S
C814 C805 1.429 . S
C814 N811 1.350 . S
C814 C813 1.434 . S
C815 C816 1.369 . S
C815 C817 1.419 . S
C815 H819 0.930 . S
C816 C815 1.369 . S
C816 C825 1.429 . S
C817 C815 1.419 . S
C817 C818 1.363 . S
C817 H820 0.929 . S
C818 C817 1.363 . S
C818 C824 1.428 . S
H819 C815 0.930 . S
H820 C817 0.929 . S
S821 N822 1.613 . S
S821 N823 1.610 . S
N822 S821 1.613 . S
N822 C825 1.350 . S
N823 S821 1.610 . S
N823 C824 1.351 . S
C824 C818 1.428 . S
C824 N823 1.351 . S
C824 C825 1.434 . S
C825 C816 1.429 . S
C825 N822 1.350 . S
C825 C824 1.434 . S
C826 C827 1.369 . S
C826 C828 1.419 . S
C826 H830 0.930 . S
C827 C826 1.369 . S
C827 C836 1.429 1_556 S
C828 C826 1.419 . S
C828 C829 1.363 . S
C828 H831 0.929 . S
C829 C828 1.363 . S
C829 C835 1.428 1_556 S
H830 C826 0.930 . S
H831 C828 0.929 . S
S832 N833 1.613 . S
S832 N834 1.610 . S
N833 S832 1.613 . S
N833 C836 1.350 . S
N834 S832 1.610 . S
N834 C835 1.351 . S
C835 C829 1.428 1_554 S
C835 N834 1.351 . S
C835 C836 1.434 . S
C836 C827 1.429 1_554 S
C836 N833 1.350 . S
C836 C835 1.434 . S
C837 C838 1.369 . S
C837 C839 1.419 . S
C837 H841 0.930 . S
C838 C837 1.369 . S
C838 C847 1.429 . S
C839 C837 1.419 . S
C839 C840 1.363 . S
C839 H842 0.929 . S
C840 C839 1.363 . S
C840 C846 1.428 . S
H841 C837 0.930 . S
H842 C839 0.929 . S
S843 N844 1.613 . S
S843 N845 1.610 . S
N844 S843 1.613 . S
N844 C847 1.350 . S
N845 S843 1.610 . S
N845 C846 1.351 . S
C846 C840 1.428 . S
C846 N845 1.351 . S
C846 C847 1.434 . S
C847 C838 1.429 . S
C847 N844 1.350 . S
C847 C846 1.434 . S
C848 C849 1.369 . S
C848 C850 1.419 . S
C848 H852 0.930 . S
C849 C848 1.369 . S
C849 C858 1.429 . S
C850 C848 1.419 . S
C850 C851 1.363 . S
C850 H853 0.929 . S
C851 C850 1.363 . S
C851 C857 1.428 . S
H852 C848 0.930 . S
H853 C850 0.929 . S
S854 N855 1.613 . S
S854 N856 1.610 . S
N855 S854 1.613 . S
N855 C858 1.350 . S
N856 S854 1.610 . S
N856 C857 1.351 . S
C857 C851 1.428 . S
C857 N856 1.351 . S
C857 C858 1.434 . S
C858 C849 1.429 . S
C858 N855 1.350 . S
C858 C857 1.434 . S
C859 C860 1.369 . S
C859 C861 1.419 . S
C859 H863 0.930 . S
C860 C859 1.369 . S
C860 C869 1.429 . S
C861 C859 1.419 . S
C861 C862 1.363 . S
C861 H864 0.929 . S
C862 C861 1.363 . S
C862 C868 1.428 . S
H863 C859 0.930 . S
H864 C861 0.929 . S
S865 N866 1.613 . S
S865 N867 1.610 . S
N866 S865 1.613 . S
N866 C869 1.350 . S
N867 S865 1.610 . S
N867 C868 1.351 . S
C868 C862 1.428 . S
C868 N867 1.351 . S
C868 C869 1.434 . S
C869 C860 1.429 . S
C869 N866 1.350 . S
C869 C868 1.434 . S
C870 C871 1.369 . S
C870 C872 1.419 . S
C870 H874 0.930 . S
C871 C870 1.369 . S
C871 C880 1.429 . S
C872 C870 1.419 . S
C872 C873 1.363 . S
C872 H875 0.929 . S
C873 C872 1.363 . S
C873 C879 1.428 . S
H874 C870 0.930 . S
H875 C872 0.929 . S
S876 N877 1.613 . S
S876 N878 1.610 . S
N877 S876 1.613 . S
N877 C880 1.350 . S
N878 S876 1.610 . S
N878 C879 1.351 . S
C879 C873 1.428 . S
C879 N878 1.351 . S
C879 C880 1.434 . S
C880 C871 1.429 . S
C880 N877 1.350 . S
C880 C879 1.434 . S
C881 C882 1.369 . S
C881 C883 1.419 . S
C881 H885 0.930 . S
C882 C881 1.369 . S
C882 C891 1.429 . S
C883 C881 1.419 . S
C883 C884 1.363 . S
C883 H886 0.929 . S
C884 C883 1.363 . S
C884 C890 1.428 . S
H885 C881 0.930 . S
H886 C883 0.929 . S
S887 N888 1.613 . S
S887 N889 1.610 . S
N888 S887 1.613 . S
N888 C891 1.350 . S
N889 S887 1.610 . S
N889 C890 1.351 . S
C890 C884 1.428 . S
C890 N889 1.351 . S
C890 C891 1.434 . S
C891 C882 1.429 . S
C891 N888 1.350 . S
C891 C890 1.434 . S
C892 C893 1.369 . S
C892 C894 1.419 . S
C892 H896 0.930 . S
C893 C892 1.369 . S
C893 C902 1.429 . S
C894 C892 1.419 . S
C894 C895 1.363 . S
C894 H897 0.929 . S
C895 C894 1.363 . S
C895 C901 1.428 . S
H896 C892 0.930 . S
H897 C894 0.929 . S
S898 N899 1.613 . S
S898 N900 1.610 . S
N899 S898 1.613 . S
N899 C902 1.350 . S
N900 S898 1.610 . S
N900 C901 1.351 . S
C901 C895 1.428 . S
C901 N900 1.351 . S
C901 C902 1.434 . S
C902 C893 1.429 . S
C902 N899 1.350 . S
C902 C901 1.434 . S
C903 C904 1.369 . S
C903 C905 1.419 . S
C903 H907 0.930 . S
C904 C903 1.369 . S
C904 C913 1.429 . S
C905 C903 1.419 . S
C905 C906 1.363 . S
C905 H908 0.929 . S
C906 C905 1.363 . S
C906 C912 1.428 . S
H907 C903 0.930 . S
H908 C905 0.929 . S
S909 N910 1.613 . S
S909 N911 1.610 . S
N910 S909 1.613 . S
N910 C913 1.350 . S
N911 S909 1.610 . S
N911 C912 1.351 . S
C912 C906 1.428 . S
C912 N911 1.351 . S
C912 C913 1.434 . S
C913 C904 1.429 . S
C913 N910 1.350 . S
C913 C912 1.434 . S
C914 C915 1.369 . S
C914 C916 1.419 . S
C914 H918 0.930 . S
C915 C914 1.369 . S
C915 C924 1.429 . S
C916 C914 1.419 . S
C916 C917 1.363 . S
C916 H919 0.929 . S
C917 C916 1.363 . S
C917 C923 1.428 . S
H918 C914 0.930 . S
H919 C916 0.929 . S
S920 N921 1.613 . S
S920 N922 1.610 . S
N921 S920 1.613 . S
N921 C924 1.350 . S
N922 S920 1.610 . S
N922 C923 1.351 . S
C923 C917 1.428 . S
C923 N922 1.351 . S
C923 C924 1.434 . S
C924 C915 1.429 . S
C924 N921 1.350 . S
C924 C923 1.434 . S
C925 C926 1.369 . S
C925 C927 1.419 . S
C925 H929 0.930 . S
C926 C925 1.369 . S
C926 C935 1.429 . S
C927 C925 1.419 . S
C927 C928 1.363 . S
C927 H930 0.929 . S
C928 C927 1.363 . S
C928 C934 1.428 . S
H929 C925 0.930 . S
H930 C927 0.929 . S
S931 N932 1.613 . S
S931 N933 1.610 . S
N932 S931 1.613 . S
N932 C935 1.350 . S
N933 S931 1.610 . S
N933 C934 1.351 . S
C934 C928 1.428 . S
C934 N933 1.351 . S
C934 C935 1.434 . S
C935 C926 1.429 . S
C935 N932 1.350 . S
C935 C934 1.434 . S
C936 C937 1.369 . S
C936 C938 1.419 . S
C936 H940 0.930 . S
C937 C936 1.369 . S
C937 C946 1.429 . S
C938 C936 1.419 . S
C938 C939 1.363 . S
C938 H941 0.929 . S
C939 C938 1.363 . S
C939 C945 1.428 . S
H940 C936 0.930 . S
H941 C938 0.929 . S
S942 N943 1.613 . S
S942 N944 1.610 . S
N943 S942 1.613 . S
N943 C946 1.350 . S
N944 S942 1.610 . S
N944 C945 1.351 . S
C945 C939 1.428 . S
C945 N944 1.351 . S
C945 C946 1.434 . S
C946 C937 1.429 . S
C946 N943 1.350 . S
C946 C945 1.434 . S
C947 C948 1.369 . S
C947 C949 1.419 . S
C947 H951 0.930 . S
C948 C947 1.369 . S
C948 C957 1.429 . S
C949 C947 1.419 . S
C949 C950 1.363 . S
C949 H952 0.929 . S
C950 C949 1.363 . S
C950 C956 1.428 . S
H951 C947 0.930 . S
H952 C949 0.929 . S
S953 N954 1.613 . S
S953 N955 1.610 . S
N954 S953 1.613 . S
N954 C957 1.350 . S
N955 S953 1.610 . S
N955 C956 1.351 . S
C956 C950 1.428 . S
C956 N955 1.351 . S
C956 C957 1.434 . S
C957 C948 1.429 . S
C957 N954 1.350 . S
C957 C956 1.434 . S
C958 C959 1.369 . S
C958 C960 1.419 . S
C958 H962 0.930 . S
C959 C958 1.369 . S
C959 C968 1.429 . S
C960 C958 1.419 . S
C960 C961 1.363 . S
C960 H963 0.929 . S
C961 C960 1.363 . S
C961 C967 1.428 . S
H962 C958 0.930 . S
H963 C960 0.929 . S
S964 N965 1.613 . S
S964 N966 1.610 . S
N965 S964 1.613 . S
N965 C968 1.350 . S
N966 S964 1.610 . S
N966 C967 1.351 . S
C967 C961 1.428 . S
C967 N966 1.351 . S
C967 C968 1.434 . S
C968 C959 1.429 . S
C968 N965 1.350 . S
C968 C967 1.434 . S
C969 C970 1.369 . S
C969 C971 1.419 . S
C969 H973 0.930 . S
C970 C969 1.369 . S
C970 C979 1.429 . S
C971 C969 1.419 . S
C971 C972 1.363 . S
C971 H974 0.929 . S
C972 C971 1.363 . S
C972 C978 1.428 . S
H973 C969 0.930 . S
H974 C971 0.929 . S
S975 N976 1.613 . S
S975 N977 1.610 . S
N976 S975 1.613 . S
N976 C979 1.350 . S
N977 S975 1.610 . S
N977 C978 1.351 . S
C978 C972 1.428 . S
C978 N977 1.351 . S
C978 C979 1.434 . S
C979 C970 1.429 . S
C979 N976 1.350 . S
C979 C978 1.434 . S
C980 C981 1.369 . S
C980 C982 1.419 . S
C980 H984 0.930 . S
C981 C980 1.369 . S
C981 C990 1.429 . S
C982 C980 1.419 . S
C982 C983 1.363 . S
C982 H985 0.929 . S
C983 C982 1.363 . S
C983 C989 1.428 . S
H984 C980 0.930 . S
H985 C982 0.929 . S
S986 N987 1.613 . S
S986 N988 1.610 . S
N987 S986 1.613 . S
N987 C990 1.350 . S
N988 S986 1.610 . S
N988 C989 1.351 . S
C989 C983 1.428 . S
C989 N988 1.351 . S
C989 C990 1.434 . S
C990 C981 1.429 . S
C990 N987 1.350 . S
C990 C989 1.434 . S
C991 C992 1.369 . S
C991 C993 1.419 . S
C991 H995 0.930 . S
C992 C991 1.369 . S
C992 C1001 1.429 . S
C993 C991 1.419 . S
C993 C994 1.363 . S
C993 H996 0.929 . S
C994 C993 1.363 . S
C994 C1000 1.428 . S
H995 C991 0.930 . S
H996 C993 0.929 . S
S997 N998 1.613 . S
S997 N999 1.610 . S
N998 S997 1.613 . S
N998 C1001 1.350 . S
N999 S997 1.610 . S
N999 C1000 1.351 . S
C1000 C994 1.428 . S
C1000 N999 1.351 . S
C1000 C1001 1.434 . S
C1001 C992 1.429 . S
C1001 N998 1.350 . S
C1001 C1000 1.434 . S
C1002 C1003 1.369 . S
C1002 C1004 1.419 . S
C1002 H1006 0.930 . S
C1003 C1002 1.369 . S
C1003 C1012 1.429 . S
C1004 C1002 1.419 . S
C1004 C1005 1.363 . S
C1004 H1007 0.929 . S
C1005 C1004 1.363 . S
C1005 C1011 1.428 . S
H1006 C1002 0.930 . S
H1007 C1004 0.929 . S
S1008 N1009 1.613 . S
S1008 N1010 1.610 . S
N1009 S1008 1.613 . S
N1009 C1012 1.350 . S
N1010 S1008 1.610 . S
N1010 C1011 1.351 . S
C1011 C1005 1.428 . S
C1011 N1010 1.351 . S
C1011 C1012 1.434 . S
C1012 C1003 1.429 . S
C1012 N1009 1.350 . S
C1012 C1011 1.434 . S
C1013 C1014 1.369 . S
C1013 C1015 1.419 . S
C1013 H1017 0.930 . S
C1014 C1013 1.369 . S
C1014 C1023 1.429 . S
C1015 C1013 1.419 . S
C1015 C1016 1.363 . S
C1015 H1018 0.929 . S
C1016 C1015 1.363 . S
C1016 C1022 1.428 . S
H1017 C1013 0.930 . S
H1018 C1015 0.929 . S
S1019 N1020 1.613 . S
S1019 N1021 1.610 . S
N1020 S1019 1.613 . S
N1020 C1023 1.350 . S
N1021 S1019 1.610 . S
N1021 C1022 1.351 . S
C1022 C1016 1.428 . S
C1022 N1021 1.351 . S
C1022 C1023 1.434 . S
C1023 C1014 1.429 . S
C1023 N1020 1.350 . S
C1023 C1022 1.434 . S
C675 C423 1.458 . S
C673 C36 1.401 . S
C686 C460 1.434 . S
C684 C93 1.423 . S
C697 C496 1.450 . S
C695 C126 1.433 . S
C706 C165 1.408 . S
C708 C387 1.475 . S
C717 C222 1.427 . S
C719 C388 1.455 . S
C728 C261 1.403 . S
C730 C424 1.427 . S
C741 C459 1.456 . S
C739 C318 1.408 . S
C752 C495 1.475 . S
C750 C381 1.443 . S
C761 C132 1.407 . S
C763 C567 1.453 . S
C774 C604 1.434 . S
C772 C189 1.424 . S
C783 C30 1.431 . S
C785 C640 1.454 . S
C796 C531 1.476 . S
C794 C69 1.415 . S
C805 C324 1.416 . S
C807 C532 1.450 . S
C816 C357 1.404 . S
C818 C568 1.432 . S
C829 C603 1.455 . S
C827 C228 1.403 . S
C838 C285 1.443 . S
C840 C639 1.475 . S
C851 C458 1.730 . S
C849 C45 1.723 . S
C862 C494 1.723 . S
C860 C84 1.714 . S
C871 C117 1.664 . S
C873 C398 1.527 . S
C882 C174 1.648 . S
C884 C434 1.539 . S
C893 C213 1.662 . S
C895 C506 1.533 . S
C906 C386 1.722 . S
C904 C270 1.671 . S
C917 C422 1.733 . S
C915 C309 1.716 . S
C928 C470 1.546 . S
C926 C372 1.687 . S
C939 C602 1.733 . S
C937 C141 1.720 . S
C950 C638 1.723 . S
C948 C180 1.719 . S
C959 C21 1.666 . S
C961 C542 1.535 . S
C972 C578 1.540 . S
C970 C78 1.648 . S
C983 C650 1.525 . S
C981 C333 1.674 . S
C992 C366 1.671 . S
C994 C530 1.720 . S
C1005 C566 1.733 . S
C1003 C237 1.721 . S
C1016 C614 1.537 . S
C1014 C276 1.690 . S
