# Generated by pormake.
# Topology ssb, (4,4)-cn, num edge types: 1
# Building blocks:
#     Node 0, Type 0, BuildingBlock: AZAVOO_clean_linker_0, # of connection points: 4
#     Node 1, Type 0, BuildingBlock: AZAVOO_clean_linker_0, # of connection points: 4
#     Node 2, Type 0, BuildingBlock: AZAVOO_clean_linker_0, # of connection points: 4
#     Node 3, Type 0, BuildingBlock: AZAVOO_clean_linker_0, # of connection points: 4
#     Node 4, Type 0, BuildingBlock: AZAVOO_clean_linker_0, # of connection points: 4
#     Node 5, Type 0, BuildingBlock: AZAVOO_clean_linker_0, # of connection points: 4
#     Node 6, Type 0, BuildingBlock: AZAVOO_clean_linker_0, # of connection points: 4
#     Node 7, Type 0, BuildingBlock: AZAVOO_clean_linker_0, # of connection points: 4
#     Node 8, Type 1, BuildingBlock: KOZSID_clean_sbu_0, # of connection points: 4
#     Node 9, Type 1, BuildingBlock: KOZSID_clean_sbu_0, # of connection points: 4
#     Node 10, Type 1, BuildingBlock: KOZSID_clean_sbu_0, # of connection points: 4
#     Node 11, Type 1, BuildingBlock: KOZSID_clean_sbu_0, # of connection points: 4
#     Node 12, Type 1, BuildingBlock: KOZSID_clean_sbu_0, # of connection points: 4
#     Node 13, Type 1, BuildingBlock: KOZSID_clean_sbu_0, # of connection points: 4
#     Node 14, Type 1, BuildingBlock: KOZSID_clean_sbu_0, # of connection points: 4
#     Node 15, Type 1, BuildingBlock: KOZSID_clean_sbu_0, # of connection points: 4
#     Edge 16, Type (0, 1), BuildingBlock: XIVTED_clean_linker_0, # of connection points: 2
#     Edge 17, Type (0, 1), BuildingBlock: XIVTED_clean_linker_0, # of connection points: 2
#     Edge 18, Type (0, 1), BuildingBlock: XIVTED_clean_linker_0, # of connection points: 2
#     Edge 19, Type (0, 1), BuildingBlock: XIVTED_clean_linker_0, # of connection points: 2
#     Edge 20, Type (0, 1), BuildingBlock: XIVTED_clean_linker_0, # of connection points: 2
#     Edge 21, Type (0, 1), BuildingBlock: XIVTED_clean_linker_0, # of connection points: 2
#     Edge 22, Type (0, 1), BuildingBlock: XIVTED_clean_linker_0, # of connection points: 2
#     Edge 23, Type (0, 1), BuildingBlock: XIVTED_clean_linker_0, # of connection points: 2
#     Edge 24, Type (0, 1), BuildingBlock: XIVTED_clean_linker_0, # of connection points: 2
#     Edge 25, Type (0, 1), BuildingBlock: XIVTED_clean_linker_0, # of connection points: 2
#     Edge 26, Type (0, 1), BuildingBlock: XIVTED_clean_linker_0, # of connection points: 2
#     Edge 27, Type (0, 1), BuildingBlock: XIVTED_clean_linker_0, # of connection points: 2
#     Edge 28, Type (0, 1), BuildingBlock: XIVTED_clean_linker_0, # of connection points: 2
#     Edge 29, Type (0, 1), BuildingBlock: XIVTED_clean_linker_0, # of connection points: 2
#     Edge 30, Type (0, 1), BuildingBlock: XIVTED_clean_linker_0, # of connection points: 2
#     Edge 31, Type (0, 1), BuildingBlock: XIVTED_clean_linker_0, # of connection points: 2
#     Edge 32, Type (0, 1), BuildingBlock: XIVTED_clean_linker_0, # of connection points: 2
#     Edge 33, Type (0, 1), BuildingBlock: XIVTED_clean_linker_0, # of connection points: 2
#     Edge 34, Type (0, 1), BuildingBlock: XIVTED_clean_linker_0, # of connection points: 2
#     Edge 35, Type (0, 1), BuildingBlock: XIVTED_clean_linker_0, # of connection points: 2
#     Edge 36, Type (0, 1), BuildingBlock: XIVTED_clean_linker_0, # of connection points: 2
#     Edge 37, Type (0, 1), BuildingBlock: XIVTED_clean_linker_0, # of connection points: 2
#     Edge 38, Type (0, 1), BuildingBlock: XIVTED_clean_linker_0, # of connection points: 2
#     Edge 39, Type (0, 1), BuildingBlock: XIVTED_clean_linker_0, # of connection points: 2
#     Edge 40, Type (0, 1), BuildingBlock: XIVTED_clean_linker_0, # of connection points: 2
#     Edge 41, Type (0, 1), BuildingBlock: XIVTED_clean_linker_0, # of connection points: 2
#     Edge 42, Type (0, 1), BuildingBlock: XIVTED_clean_linker_0, # of connection points: 2
#     Edge 43, Type (0, 1), BuildingBlock: XIVTED_clean_linker_0, # of connection points: 2
#     Edge 44, Type (0, 1), BuildingBlock: XIVTED_clean_linker_0, # of connection points: 2
#     Edge 45, Type (0, 1), BuildingBlock: XIVTED_clean_linker_0, # of connection points: 2
#     Edge 46, Type (0, 1), BuildingBlock: XIVTED_clean_linker_0, # of connection points: 2
#     Edge 47, Type (0, 1), BuildingBlock: XIVTED_clean_linker_0, # of connection points: 2
# Relax obj value: 0.046
# Max RMSD: 0.293
# Mean RMSD: 0.109
data_MOF--net-ssb--node1-KOZSID_clean_sbu_0--node2-AZAVOO_clean_linker_0--edge1-XIVTED_clean_linker_0
_symmetry_space_group_name_H-M    P1
_symmetry_Int_Tables_number       1
_symmetry_cell_setting            triclinic
loop_
_symmetry_equiv_pos_as_xyz
'x, y, z'
_cell_length_a     60.405996
_cell_length_b     62.118841
_cell_length_c     44.492714
_cell_angle_alpha  95.021915
_cell_angle_beta   94.764719
_cell_angle_gamma 90.278033
loop_
_atom_site_label
_atom_site_type_symbol
_atom_site_fract_x
_atom_site_fract_y
_atom_site_fract_z
_atom_type_partial_charge
H0 H 0.15496 0.49732 0.29961 0.0
H1 H 0.32933 0.39494 0.09462 0.0
H2 H 0.23465 0.40578 0.33332 0.0
H3 H 0.2052 0.40276 0.36746 0.0
H4 H 0.16737 0.36149 0.29803 0.0
H5 H 0.1972 0.36415 0.26462 0.0
H6 H 0.23579 0.44663 0.28959 0.0
H7 H 0.20602 0.47242 0.29861 0.0
H8 H 0.15884 0.42814 0.24688 0.0
H9 H 0.18883 0.40262 0.23782 0.0
H10 H 0.27251 0.44778 0.24476 0.0
H11 H 0.27055 0.47817 0.21317 0.0
H12 H 0.2161 0.44644 0.15687 0.0
H13 H 0.21825 0.41606 0.1887 0.0
H14 H 0.30374 0.41944 0.23661 0.0
H15 H 0.32892 0.42298 0.19688 0.0
H16 H 0.28539 0.38139 0.13472 0.0
H17 H 0.26036 0.37808 0.17467 0.0
H18 H 0.31116 0.38424 0.2682 0.0
H19 H 0.34212 0.36336 0.24987 0.0
H20 H 0.29571 0.31635 0.20223 0.0
H21 H 0.2648 0.33813 0.21956 0.0
H22 H 0.28052 0.37166 0.32126 0.0
H23 H 0.28616 0.34085 0.35174 0.0
H24 H 0.23565 0.30468 0.29341 0.0
H25 H 0.23051 0.33548 0.26278 0.0
O26 O 0.16648 0.48695 0.29564 0.0
O27 O 0.14287 0.46357 0.26901 0.0
O28 O 0.34142 0.41528 0.14349 0.0
O29 O 0.31962 0.39395 0.11068 0.0
C30 C 0.23448 0.38885 0.27498 0.0
C31 C 0.23246 0.40715 0.25817 0.0
C32 C 0.24787 0.41074 0.23698 0.0
C33 C 0.26522 0.396 0.23258 0.0
C34 C 0.26753 0.37802 0.24995 0.0
C35 C 0.25216 0.37439 0.27117 0.0
C36 C 0.21799 0.38509 0.2967 0.0
C37 C 0.22014 0.39579 0.32583 0.0
C38 C 0.20323 0.39421 0.34511 0.0
C39 C 0.18385 0.38199 0.3354 0.0
C40 C 0.18216 0.37078 0.30641 0.0
C41 C 0.19913 0.3723 0.28724 0.0
C42 C 0.21439 0.42278 0.26318 0.0
C43 C 0.21901 0.44259 0.28018 0.0
C44 C 0.20198 0.45726 0.28532 0.0
C45 C 0.18003 0.45232 0.27352 0.0
C46 C 0.17554 0.43244 0.25634 0.0
C47 C 0.19261 0.41782 0.25117 0.0
C48 C 0.24566 0.42968 0.21883 0.0
C49 C 0.26016 0.44743 0.22561 0.0
C50 C 0.25905 0.46472 0.20749 0.0
C51 C 0.24328 0.46464 0.18236 0.0
C52 C 0.22833 0.44706 0.17617 0.0
C53 C 0.22957 0.42968 0.19422 0.0
C54 C 0.28023 0.39861 0.20838 0.0
C55 C 0.29964 0.41124 0.21433 0.0
C56 C 0.31399 0.41317 0.19163 0.0
C57 C 0.30916 0.40246 0.16259 0.0
C58 C 0.28961 0.38986 0.15679 0.0
C59 C 0.27527 0.38796 0.17951 0.0
C60 C 0.28585 0.36278 0.24488 0.0
C61 C 0.30775 0.36918 0.25434 0.0
C62 C 0.32542 0.35711 0.24397 0.0
C63 C 0.32142 0.33828 0.22421 0.0
C64 C 0.29936 0.33101 0.21688 0.0
C65 C 0.28169 0.34326 0.22701 0.0
C66 C 0.25503 0.35582 0.28995 0.0
C67 C 0.27065 0.35708 0.31518 0.0
C68 C 0.27376 0.3395 0.33263 0.0
C69 C 0.26133 0.32026 0.32508 0.0
C70 C 0.24567 0.31912 0.29969 0.0
C71 C 0.24256 0.33675 0.2823 0.0
C72 C 0.16196 0.46789 0.27918 0.0
C73 C 0.32441 0.40434 0.13844 0.0
H74 H 0.64037 0.14903 0.29315 0.0
H75 H 0.82853 0.23411 0.52049 0.0
H76 H 0.72195 0.24301 0.2717 0.0
H77 H 0.69177 0.24712 0.23264 0.0
H78 H 0.65446 0.28265 0.29931 0.0
H79 H 0.68553 0.27982 0.33732 0.0
H80 H 0.72269 0.20002 0.3159 0.0
H81 H 0.69202 0.17419 0.30197 0.0
H82 H 0.64769 0.21774 0.34808 0.0
H83 H 0.67856 0.2433 0.36205 0.0
H84 H 0.76349 0.19977 0.37377 0.0
H85 H 0.75983 0.16963 0.40491 0.0
H86 H 0.70128 0.19899 0.43984 0.0
H87 H 0.70598 0.22961 0.41004 0.0
H88 H 0.79898 0.23758 0.37306 0.0
H89 H 0.82731 0.2312 0.41381 0.0
H90 H 0.77962 0.24625 0.47966 0.0
H91 H 0.75153 0.25281 0.43873 0.0
H92 H 0.79148 0.27401 0.32502 0.0
H93 H 0.82413 0.29764 0.33627 0.0
H94 H 0.80202 0.31696 0.42458 0.0
H95 H 0.76882 0.29435 0.41225 0.0
H96 H 0.75308 0.27316 0.28045 0.0
H97 H 0.75955 0.30544 0.25441 0.0
H98 H 0.74193 0.34565 0.33293 0.0
H99 H 0.73497 0.31321 0.35846 0.0
O100 O 0.65226 0.15943 0.29897 0.0
O101 O 0.63016 0.18241 0.32296 0.0
O102 O 0.84158 0.22906 0.4692 0.0
O103 O 0.81767 0.23656 0.50395 0.0
C104 C 0.72338 0.25726 0.33129 0.0
C105 C 0.72143 0.23914 0.34793 0.0
C106 C 0.73761 0.23547 0.3716 0.0
C107 C 0.7561 0.24964 0.37819 0.0
C108 C 0.75823 0.26763 0.36119 0.0
C109 C 0.74168 0.27154 0.33799 0.0
C110 C 0.70592 0.26128 0.30715 0.0
C111 C 0.7074 0.25206 0.27754 0.0
C112 C 0.68993 0.25416 0.2554 0.0
C113 C 0.67041 0.26507 0.26269 0.0
C114 C 0.66926 0.27448 0.29251 0.0
C115 C 0.68695 0.2728 0.3144 0.0
C116 C 0.70276 0.22354 0.33979 0.0
C117 C 0.70633 0.20391 0.32296 0.0
C118 C 0.68879 0.18921 0.31504 0.0
C119 C 0.66738 0.19392 0.32385 0.0
C120 C 0.66394 0.21363 0.34086 0.0
C121 C 0.68151 0.22828 0.34879 0.0
C122 C 0.73501 0.21683 0.3897 0.0
C123 C 0.74996 0.19967 0.38829 0.0
C124 C 0.74768 0.18238 0.40587 0.0
C125 C 0.73022 0.18184 0.4249 0.0
C126 C 0.71512 0.19901 0.42585 0.0
C127 C 0.7176 0.2164 0.40859 0.0
C128 C 0.77322 0.24565 0.40296 0.0
C129 C 0.79472 0.23955 0.39631 0.0
C130 C 0.81085 0.23588 0.41962 0.0
C131 C 0.80572 0.2382 0.45001 0.0
C132 C 0.78412 0.2443 0.45653 0.0
C133 C 0.76803 0.24801 0.43321 0.0
C134 C 0.77778 0.28245 0.36782 0.0
C135 C 0.79356 0.28364 0.34659 0.0
C136 C 0.81234 0.29699 0.35322 0.0
C137 C 0.81585 0.30922 0.38141 0.0
C138 C 0.79977 0.30812 0.40245 0.0
C139 C 0.78088 0.295 0.39562 0.0
C140 C 0.74344 0.29092 0.32119 0.0
C141 C 0.75018 0.28894 0.29172 0.0
C142 C 0.7541 0.30737 0.27706 0.0
C143 C 0.75137 0.32807 0.29171 0.0
C144 C 0.74395 0.32994 0.32095 0.0
C145 C 0.74004 0.31148 0.33558 0.0
C146 C 0.64877 0.17831 0.3153 0.0
C147 C 0.82279 0.23431 0.47486 0.0
H148 H 0.64907 0.89595 0.32169 0.0
H149 H 0.68482 0.66986 0.18146 0.0
H150 H 0.74779 0.83683 0.33676 0.0
H151 H 0.74955 0.86584 0.37756 0.0
H152 H 0.74232 0.81875 0.44231 0.0
H153 H 0.73929 0.78998 0.40094 0.0
H154 H 0.7123 0.82945 0.28591 0.0
H155 H 0.68739 0.86004 0.29333 0.0
H156 H 0.66638 0.83416 0.37365 0.0
H157 H 0.69116 0.8035 0.36573 0.0
H158 H 0.71864 0.78846 0.23911 0.0
H159 H 0.68963 0.7963 0.20028 0.0
H160 H 0.63972 0.78654 0.26218 0.0
H161 H 0.66909 0.77875 0.30114 0.0
H162 H 0.75023 0.75164 0.24339 0.0
H163 H 0.7416 0.723 0.2027 0.0
H164 H 0.68394 0.70465 0.2465 0.0
H165 H 0.69295 0.73318 0.28727 0.0
H166 H 0.78748 0.75736 0.29048 0.0
H167 H 0.80751 0.72436 0.27583 0.0
H168 H 0.75739 0.68629 0.31167 0.0
H169 H 0.73788 0.71931 0.32674 0.0
H170 H 0.78648 0.80405 0.33088 0.0
H171 H 0.82406 0.80403 0.35576 0.0
H172 H 0.80621 0.75004 0.40423 0.0
H173 H 0.76832 0.75036 0.37934 0.0
O174 O 0.65872 0.88366 0.31909 0.0
O175 O 0.64854 0.86972 0.36029 0.0
O176 O 0.71857 0.69127 0.17581 0.0
O177 O 0.68863 0.6813 0.19728 0.0
C178 C 0.73808 0.79431 0.34059 0.0
C179 C 0.71867 0.79571 0.3208 0.0
C180 C 0.71401 0.77971 0.29654 0.0
C181 C 0.72779 0.76152 0.29335 0.0
C182 C 0.74699 0.75992 0.31343 0.0
C183 C 0.75259 0.77674 0.3363 0.0
C184 C 0.74305 0.81136 0.36584 0.0
C185 C 0.74675 0.8328 0.35981 0.0
C186 C 0.74794 0.84935 0.38324 0.0
C187 C 0.7458 0.84471 0.41328 0.0
C188 C 0.74349 0.82298 0.4194 0.0
C189 C 0.74204 0.80647 0.39586 0.0
C190 C 0.70341 0.81421 0.32518 0.0
C191 C 0.70217 0.83034 0.30495 0.0
C192 C 0.68799 0.84784 0.30932 0.0
C193 C 0.67488 0.84955 0.33408 0.0
C194 C 0.67623 0.83333 0.35434 0.0
C195 C 0.69037 0.81581 0.34989 0.0
C196 C 0.69593 0.78297 0.27283 0.0
C197 C 0.70142 0.78772 0.24413 0.0
C198 C 0.68482 0.79215 0.22199 0.0
C199 C 0.66238 0.79198 0.22816 0.0
C200 C 0.65688 0.78697 0.25688 0.0
C201 C 0.67357 0.78242 0.27906 0.0
C202 C 0.72232 0.74434 0.26838 0.0
C203 C 0.73583 0.74132 0.24424 0.0
C204 C 0.73082 0.725 0.22099 0.0
C205 C 0.71209 0.7115 0.22138 0.0
C206 C 0.69849 0.71473 0.24551 0.0
C207 C 0.70357 0.73102 0.2688 0.0
C208 C 0.76126 0.74067 0.30966 0.0
C209 C 0.78124 0.74192 0.29593 0.0
C210 C 0.79251 0.72305 0.28733 0.0
C211 C 0.78395 0.70268 0.29237 0.0
C212 C 0.7646 0.70169 0.30776 0.0
C213 C 0.75337 0.72052 0.31631 0.0
C214 C 0.77474 0.77722 0.35333 0.0
C215 C 0.79061 0.79236 0.34711 0.0
C216 C 0.81209 0.7922 0.36113 0.0
C217 C 0.8181 0.77689 0.3817 0.0
C218 C 0.80198 0.76206 0.38855 0.0
C219 C 0.78043 0.76217 0.37434 0.0
C220 C 0.6599 0.8682 0.33871 0.0
C221 C 0.70671 0.69411 0.19674 0.0
H222 H 0.32966 0.99981 0.27992 0.0
H223 H 0.25575 0.78822 0.05975 0.0
H224 H 0.24868 0.90572 0.30298 0.0
H225 H 0.24458 0.93934 0.33518 0.0
H226 H 0.21074 0.96795 0.25927 0.0
H227 H 0.21511 0.93441 0.22732 0.0
H228 H 0.28631 0.91496 0.27357 0.0
H229 H 0.30749 0.94883 0.28423 0.0
H230 H 0.27977 0.97011 0.1992 0.0
H231 H 0.25851 0.93622 0.18899 0.0
H232 H 0.30595 0.88558 0.22393 0.0
H233 H 0.33899 0.88742 0.19599 0.0
H234 H 0.29723 0.89645 0.11444 0.0
H235 H 0.26424 0.89431 0.14263 0.0
H236 H 0.28391 0.84035 0.19531 0.0
H237 H 0.2916 0.81236 0.15539 0.0
H238 H 0.23311 0.831 0.10141 0.0
H239 H 0.22585 0.85912 0.14128 0.0
H240 H 0.24233 0.82435 0.22643 0.0
H241 H 0.2243 0.79085 0.20407 0.0
H242 H 0.17134 0.82764 0.16243 0.0
H243 H 0.19015 0.86111 0.18393 0.0
H244 H 0.23432 0.86347 0.29032 0.0
H245 H 0.20721 0.85196 0.32358 0.0
H246 H 0.15402 0.87354 0.26258 0.0
H247 H 0.18153 0.88595 0.2302 0.0
O248 O 0.32123 0.98648 0.27517 0.0
O249 O 0.30664 0.99662 0.23114 0.0
O250 O 0.28346 0.79068 0.10404 0.0
O251 O 0.25327 0.79932 0.07572 0.0
C252 C 0.23908 0.89983 0.24179 0.0
C253 C 0.25742 0.90299 0.22477 0.0
C254 C 0.26277 0.88705 0.20204 0.0
C255 C 0.24933 0.86827 0.19575 0.0
C256 C 0.23133 0.86497 0.21331 0.0
C257 C 0.22655 0.88049 0.23686 0.0
C258 C 0.23218 0.91774 0.26292 0.0
C259 C 0.23974 0.91903 0.29367 0.0
C260 C 0.2374 0.93822 0.31195 0.0
C261 C 0.22757 0.95631 0.29957 0.0
C262 C 0.21865 0.95435 0.26926 0.0
C263 C 0.22095 0.93519 0.25109 0.0
C264 C 0.27085 0.92322 0.23059 0.0
C265 C 0.28483 0.92699 0.25731 0.0
C266 C 0.29692 0.94633 0.26331 0.0
C267 C 0.29529 0.96221 0.24259 0.0
C268 C 0.28139 0.95824 0.21565 0.0
C269 C 0.26929 0.93889 0.20971 0.0
C270 C 0.28273 0.88975 0.18528 0.0
C271 C 0.30398 0.8882 0.20011 0.0
C272 C 0.32284 0.88934 0.18411 0.0
C273 C 0.32077 0.89204 0.15293 0.0
C274 C 0.2994 0.89407 0.13831 0.0
C275 C 0.28055 0.89295 0.15437 0.0
C276 C 0.25435 0.85174 0.17114 0.0
C277 C 0.2729 0.83845 0.17474 0.0
C278 C 0.27719 0.82244 0.15196 0.0
C279 C 0.26293 0.81942 0.12522 0.0
C280 C 0.24442 0.83288 0.12169 0.0
C281 C 0.24021 0.84893 0.14443 0.0
C282 C 0.21758 0.84508 0.20665 0.0
C283 C 0.22648 0.8251 0.21326 0.0
C284 C 0.21604 0.80597 0.20056 0.0
C285 C 0.19646 0.80656 0.18115 0.0
C286 C 0.18656 0.82665 0.1769 0.0
C287 C 0.19714 0.84577 0.18942 0.0
C288 C 0.20986 0.87548 0.25789 0.0
C289 C 0.21681 0.86598 0.28442 0.0
C290 C 0.20125 0.85918 0.30319 0.0
C291 C 0.17835 0.8615 0.29559 0.0
C292 C 0.17149 0.87161 0.26929 0.0
C293 C 0.18715 0.87862 0.25065 0.0
C294 C 0.30802 0.98282 0.24916 0.0
C295 C 0.26726 0.80227 0.1011 0.0
H296 H 0.40359 0.97999 0.73244 0.0
H297 H 0.16371 0.94673 0.60922 0.0
H298 H 0.33304 0.88405 0.7394 0.0
H299 H 0.36663 0.87941 0.77264 0.0
H300 H 0.33235 0.90413 0.84974 0.0
H301 H 0.29861 0.9083 0.81617 0.0
H302 H 0.32744 0.92204 0.69744 0.0
H303 H 0.36131 0.94431 0.70376 0.0
H304 H 0.34375 0.96991 0.79207 0.0
H305 H 0.30981 0.94771 0.78529 0.0
H306 H 0.28302 0.92268 0.65522 0.0
H307 H 0.28722 0.95324 0.62484 0.0
H308 H 0.28202 0.99745 0.70448 0.0
H309 H 0.27795 0.96677 0.73464 0.0
H310 H 0.24759 0.88598 0.65876 0.0
H311 H 0.21761 0.89241 0.62025 0.0
H312 H 0.20057 0.95074 0.67333 0.0
H313 H 0.23044 0.94396 0.71185 0.0
H314 H 0.25706 0.85073 0.70658 0.0
H315 H 0.22467 0.82775 0.68999 0.0
H316 H 0.18168 0.8791 0.72082 0.0
H317 H 0.2143 0.9015 0.73884 0.0
H318 H 0.29737 0.8504 0.74791 0.0
H319 H 0.29349 0.81981 0.77846 0.0
H320 H 0.2441 0.85484 0.82729 0.0
H321 H 0.24821 0.88538 0.79674 0.0
O322 O 0.39004 0.97143 0.73033 0.0
O323 O 0.38026 0.98407 0.77559 0.0
O324 O 0.18498 0.91357 0.59779 0.0
O325 O 0.17565 0.94378 0.62411 0.0
C326 C 0.29428 0.90169 0.7546 0.0
C327 C 0.29581 0.91952 0.73714 0.0
C328 C 0.27824 0.92393 0.71571 0.0
C329 C 0.25918 0.91037 0.71159 0.0
C330 C 0.25753 0.89268 0.72943 0.0
C331 C 0.27502 0.88846 0.75116 0.0
C332 C 0.3135 0.89652 0.77545 0.0
C333 C 0.33275 0.88816 0.76354 0.0
C334 C 0.35194 0.88575 0.78251 0.0
C335 C 0.35224 0.8917 0.81377 0.0
C336 C 0.33261 0.8993 0.82579 0.0
C337 C 0.31335 0.90169 0.80673 0.0
C338 C 0.31619 0.93331 0.74088 0.0
C339 C 0.3309 0.93257 0.71804 0.0
C340 C 0.35025 0.94526 0.72176 0.0
C341 C 0.35525 0.95889 0.74843 0.0
C342 C 0.34041 0.95959 0.77125 0.0
C343 C 0.32104 0.94692 0.76747 0.0
C344 C 0.28011 0.94251 0.6971 0.0
C345 C 0.28263 0.93898 0.66601 0.0
C346 C 0.285 0.95646 0.64871 0.0
C347 C 0.285 0.97781 0.66224 0.0
C348 C 0.28241 0.98123 0.69343 0.0
C349 C 0.27995 0.96375 0.71067 0.0
C350 C 0.24112 0.91447 0.68811 0.0
C351 C 0.2373 0.90009 0.66206 0.0
C352 C 0.2202 0.90383 0.64009 0.0
C353 C 0.20668 0.9221 0.64372 0.0
C354 C 0.21066 0.93652 0.66982 0.0
C355 C 0.22773 0.93272 0.69183 0.0
C356 C 0.23802 0.87781 0.72376 0.0
C357 C 0.24067 0.85675 0.71058 0.0
C358 C 0.22212 0.84375 0.7008 0.0
C359 C 0.20055 0.8517 0.70363 0.0
C360 C 0.19802 0.87238 0.71849 0.0
C361 C 0.21662 0.88528 0.7286 0.0
C362 C 0.27314 0.87013 0.7702 0.0
C363 C 0.28583 0.85149 0.76534 0.0
C364 C 0.28346 0.83399 0.78264 0.0
C365 C 0.26847 0.8349 0.80528 0.0
C366 C 0.25594 0.85372 0.81025 0.0
C367 C 0.25819 0.87113 0.79277 0.0
C368 C 0.3759 0.97225 0.75238 0.0
C369 C 0.18849 0.92614 0.62044 0.0
H370 H 0.21681 0.52748 0.77946 0.0
H371 H 0.21386 0.29726 0.63465 0.0
H372 H 0.30654 0.45019 0.78567 0.0
H373 H 0.31402 0.48114 0.82259 0.0
H374 H 0.29568 0.4429 0.89362 0.0
H375 H 0.2872 0.4122 0.85591 0.0
H376 H 0.26338 0.44931 0.73866 0.0
H377 H 0.2451 0.48409 0.74755 0.0
H378 H 0.22785 0.4661 0.83448 0.0
H379 H 0.24589 0.43128 0.8251 0.0
H380 H 0.25162 0.40593 0.69196 0.0
H381 H 0.21575 0.40721 0.66246 0.0
H382 H 0.18254 0.40802 0.74506 0.0
H383 H 0.21834 0.40516 0.7739 0.0
H384 H 0.28947 0.37096 0.69459 0.0
H385 H 0.27624 0.34426 0.6532 0.0
H386 H 0.21939 0.33036 0.70163 0.0
H387 H 0.23296 0.3569 0.74303 0.0
H388 H 0.33106 0.37347 0.74682 0.0
H389 H 0.34923 0.34033 0.72857 0.0
H390 H 0.29305 0.30293 0.75041 0.0
H391 H 0.27572 0.33601 0.77002 0.0
H392 H 0.34002 0.40809 0.79927 0.0
H393 H 0.37044 0.39513 0.83289 0.0
H394 H 0.3256 0.34832 0.86242 0.0
H395 H 0.2954 0.36176 0.82956 0.0
O396 O 0.22381 0.51357 0.77631 0.0
O397 O 0.21549 0.5036 0.82088 0.0
O398 O 0.24908 0.31553 0.62684 0.0
O399 O 0.21947 0.3079 0.6507 0.0
C400 C 0.2869 0.41237 0.79454 0.0
C401 C 0.26754 0.41689 0.77601 0.0
C402 C 0.25906 0.40145 0.75263 0.0
C403 C 0.27045 0.38188 0.74703 0.0
C404 C 0.28961 0.37733 0.76581 0.0
C405 C 0.29736 0.39223 0.79021 0.0
C406 C 0.29611 0.42909 0.8181 0.0
C407 C 0.30464 0.44837 0.80932 0.0
C408 C 0.30905 0.46602 0.83058 0.0
C409 C 0.30524 0.46462 0.86113 0.0
C410 C 0.2984 0.44464 0.8702 0.0
C411 C 0.29378 0.42702 0.84879 0.0
C412 C 0.25603 0.43782 0.78126 0.0
C413 C 0.25554 0.45288 0.75952 0.0
C414 C 0.24514 0.47275 0.76471 0.0
C415 C 0.23506 0.4779 0.79177 0.0
C416 C 0.23549 0.46268 0.81343 0.0
C417 C 0.24582 0.4428 0.80817 0.0
C418 C 0.2376 0.40521 0.73504 0.0
C419 C 0.23656 0.40644 0.70362 0.0
C420 C 0.21602 0.40738 0.68684 0.0
C421 C 0.19613 0.40747 0.70128 0.0
C422 C 0.19741 0.40742 0.73302 0.0
C423 C 0.2179 0.40609 0.74965 0.0
C424 C 0.26215 0.36588 0.72175 0.0
C425 C 0.27418 0.3621 0.69621 0.0
C426 C 0.26657 0.34687 0.6726 0.0
C427 C 0.24673 0.33519 0.67409 0.0
C428 C 0.23471 0.33908 0.69973 0.0
C429 C 0.24238 0.35426 0.72338 0.0
C430 C 0.30194 0.35711 0.75925 0.0
C431 C 0.32302 0.35803 0.7484 0.0
C432 C 0.33328 0.3391 0.73779 0.0
C433 C 0.32248 0.31897 0.73759 0.0
C434 C 0.302 0.31807 0.75045 0.0
C435 C 0.2919 0.33698 0.76136 0.0
C436 C 0.31553 0.38589 0.81209 0.0
C437 C 0.33678 0.39528 0.81339 0.0
C438 C 0.35414 0.3877 0.83236 0.0
C439 C 0.35046 0.37065 0.85031 0.0
C440 C 0.32898 0.36166 0.84928 0.0
C441 C 0.31171 0.36923 0.8304 0.0
C442 C 0.22417 0.49909 0.79731 0.0
C443 C 0.23858 0.31898 0.64907 0.0
H444 H 0.89914 0.37896 0.9037 0.0
H445 H 0.81312 0.20199 0.65515 0.0
H446 H 0.82276 0.29121 0.91358 0.0
H447 H 0.82343 0.32029 0.95455 0.0
H448 H 0.76421 0.34694 0.91185 0.0
H449 H 0.76404 0.31821 0.87027 0.0
H450 H 0.8569 0.29453 0.86878 0.0
H451 H 0.88008 0.32641 0.88589 0.0
H452 H 0.82638 0.36761 0.85681 0.0
H453 H 0.8035 0.33556 0.83949 0.0
H454 H 0.86189 0.27344 0.8145 0.0
H455 H 0.88672 0.28835 0.78004 0.0
H456 H 0.83098 0.32069 0.73727 0.0
H457 H 0.80656 0.30623 0.772 0.0
H458 H 0.82703 0.22524 0.80497 0.0
H459 H 0.83353 0.2012 0.75999 0.0
H460 H 0.79642 0.2442 0.7038 0.0
H461 H 0.78995 0.26798 0.74898 0.0
H462 H 0.7861 0.21901 0.84798 0.0
H463 H 0.76722 0.1857 0.82583 0.0
H464 H 0.73455 0.2209 0.75542 0.0
H465 H 0.75397 0.25395 0.77741 0.0
H466 H 0.77427 0.26025 0.90717 0.0
H467 H 0.73867 0.26145 0.93026 0.0
H468 H 0.7058 0.27971 0.84637 0.0
H469 H 0.74128 0.2792 0.82405 0.0
O470 O 0.88981 0.36659 0.89642 0.0
O471 O 0.86163 0.38704 0.88129 0.0
O472 O 0.82983 0.18968 0.70317 0.0
O473 O 0.8109 0.21125 0.67329 0.0
C474 C 0.79658 0.28857 0.86095 0.0
C475 C 0.81428 0.29342 0.84368 0.0
C476 C 0.81738 0.28082 0.81653 0.0
C477 C 0.80385 0.2625 0.80757 0.0
C478 C 0.78591 0.25782 0.82442 0.0
C479 C 0.78172 0.27137 0.85047 0.0
C480 C 0.79336 0.3026 0.88897 0.0
C481 C 0.80958 0.30298 0.91348 0.0
C482 C 0.81003 0.31961 0.93671 0.0
C483 C 0.79397 0.33585 0.9361 0.0
C484 C 0.77669 0.3345 0.91283 0.0
C485 C 0.77649 0.31806 0.88922 0.0
C486 C 0.82859 0.31278 0.85288 0.0
C487 C 0.85028 0.31046 0.86589 0.0
C488 C 0.86343 0.32869 0.87575 0.0
C489 C 0.85506 0.34957 0.87279 0.0
C490 C 0.83333 0.35178 0.85946 0.0
C491 C 0.82024 0.33353 0.84953 0.0
C492 C 0.83251 0.2887 0.79543 0.0
C493 C 0.85516 0.28372 0.79762 0.0
C494 C 0.86923 0.29227 0.77813 0.0
C495 C 0.86064 0.30554 0.75603 0.0
C496 C 0.83792 0.31031 0.75391 0.0
C497 C 0.824 0.30209 0.77363 0.0
C498 C 0.80821 0.24838 0.78012 0.0
C499 C 0.82043 0.22945 0.78288 0.0
C500 C 0.82407 0.21576 0.75718 0.0
C501 C 0.81552 0.2208 0.72827 0.0
C502 C 0.80328 0.23986 0.72568 0.0
C503 C 0.79964 0.25351 0.75141 0.0
C504 C 0.77145 0.2388 0.8142 0.0
C505 C 0.77448 0.21956 0.82817 0.0
C506 C 0.76362 0.20058 0.8155 0.0
C507 C 0.74952 0.20058 0.78865 0.0
C508 C 0.74559 0.22025 0.77577 0.0
C509 C 0.75651 0.23917 0.78841 0.0
C510 C 0.76028 0.26953 0.86392 0.0
C511 C 0.75929 0.26427 0.8938 0.0
C512 C 0.73898 0.2649 0.90686 0.0
C513 C 0.7195 0.27086 0.89017 0.0
C514 C 0.72057 0.2754 0.85995 0.0
C515 C 0.74077 0.27484 0.84703 0.0
C516 C 0.86896 0.3689 0.88369 0.0
C517 C 0.81923 0.20626 0.70091 0.0
H518 H 0.95604 0.68972 0.82753 0.0
H519 H 0.74785 0.69447 0.99062 0.0
H520 H 0.87476 0.77433 0.82891 0.0
H521 H 0.89749 0.78142 0.78787 0.0
H522 H 0.84494 0.75574 0.72246 0.0
H523 H 0.82257 0.74811 0.7639 0.0
H524 H 0.88316 0.74029 0.87493 0.0
H525 H 0.91732 0.72167 0.86272 0.0
H526 H 0.88297 0.69127 0.78063 0.0
H527 H 0.84887 0.70981 0.79329 0.0
H528 H 0.85098 0.73909 0.92412 0.0
H529 H 0.85956 0.71204 0.96002 0.0
H530 H 0.83975 0.66132 0.88996 0.0
H531 H 0.83162 0.68855 0.85411 0.0
H532 H 0.80681 0.7664 0.92642 0.0
H533 H 0.7874 0.75651 0.96947 0.0
H534 H 0.76996 0.69443 0.92133 0.0
H535 H 0.78916 0.70465 0.87831 0.0
H536 H 0.79552 0.79967 0.8783 0.0
H537 H 0.76051 0.81513 0.89391 0.0
H538 H 0.72666 0.75479 0.86308 0.0
H539 H 0.76162 0.73956 0.84749 0.0
H540 H 0.83279 0.80423 0.83098 0.0
H541 H 0.8169 0.8353 0.80721 0.0
H542 H 0.76026 0.79599 0.76974 0.0
H543 H 0.77676 0.7648 0.79273 0.0
O544 O 0.94234 0.69685 0.83198 0.0
O545 O 0.92394 0.68171 0.79 0.0
O546 O 0.76475 0.73106 0.99754 0.0
O547 O 0.75555 0.69884 0.97388 0.0
C548 C 0.83448 0.75417 0.82454 0.0
C549 C 0.84288 0.73777 0.84235 0.0
C550 C 0.83151 0.73215 0.86701 0.0
C551 C 0.81132 0.74227 0.8733 0.0
C552 C 0.8026 0.75827 0.85518 0.0
C553 C 0.81433 0.76442 0.831 0.0
C554 C 0.84707 0.76063 0.79938 0.0
C555 C 0.8681 0.77041 0.8057 0.0
C556 C 0.88101 0.77456 0.78218 0.0
C557 C 0.87308 0.76908 0.75182 0.0
C558 C 0.85167 0.75987 0.74558 0.0
C559 C 0.83877 0.7557 0.76917 0.0
C560 C 0.86356 0.72634 0.83504 0.0
C561 C 0.88303 0.7295 0.85442 0.0
C562 C 0.90253 0.71889 0.84734 0.0
C563 C 0.90288 0.70497 0.82069 0.0
C564 C 0.88328 0.70187 0.80132 0.0
C565 C 0.86379 0.71245 0.80847 0.0
C566 C 0.84056 0.71571 0.88668 0.0
C567 C 0.84904 0.7221 0.91641 0.0
C568 C 0.85377 0.70665 0.93687 0.0
C569 C 0.85004 0.68457 0.92791 0.0
C570 C 0.84297 0.67819 0.89749 0.0
C571 C 0.83826 0.69368 0.877 0.0
C572 C 0.79939 0.73623 0.89931 0.0
C573 C 0.7987 0.75071 0.9252 0.0
C574 C 0.78765 0.745 0.94976 0.0
C575 C 0.77715 0.72465 0.94886 0.0
C576 C 0.77788 0.71021 0.9228 0.0
C577 C 0.78887 0.71598 0.89822 0.0
C578 C 0.78111 0.76847 0.86186 0.0
C579 C 0.78045 0.78995 0.87449 0.0
C580 C 0.76046 0.79874 0.88336 0.0
C581 C 0.74088 0.7861 0.87999 0.0
C582 C 0.74153 0.76482 0.86642 0.0
C583 C 0.76144 0.75613 0.85737 0.0
C584 C 0.80591 0.78232 0.81355 0.0
C585 C 0.81718 0.80226 0.81712 0.0
C586 C 0.80793 0.82003 0.80386 0.0
C587 C 0.78717 0.81817 0.78693 0.0
C588 C 0.77633 0.79792 0.78248 0.0
C589 C 0.78566 0.78012 0.79564 0.0
C590 C 0.92363 0.69378 0.81319 0.0
C591 C 0.76547 0.71846 0.97494 0.0
C592 C 0.03536 0.40903 0.57082 0.0
C593 C 0.03961 0.43006 0.58331 0.0
C594 C 0.02135 0.4419 0.57509 0.0
C595 C 0.007 0.42748 0.5582 0.0
N596 N 0.01512 0.40734 0.55524 0.0
Co597 Co -0.00011 0.38164 0.53292 0.0
N598 N 0.97883 0.39993 0.50998 0.0
C599 C 0.97511 0.42108 0.51696 0.0
C600 C 0.95987 0.42959 0.49683 0.0
C601 C 0.95328 0.41268 0.47615 0.0
C602 C 0.96475 0.39465 0.48505 0.0
N603 N 0.98458 0.35578 0.51094 0.0
C604 C 0.96957 0.35413 0.48644 0.0
C605 C 0.96222 0.33283 0.47977 0.0
C606 C 0.97275 0.32095 0.50099 0.0
C607 C 0.98588 0.33549 0.51945 0.0
N608 N 0.02104 0.36343 0.55583 0.0
C609 C 0.01845 0.34231 0.55941 0.0
C610 C 0.03616 0.33395 0.5757 0.0
C611 C 0.05074 0.35092 0.58299 0.0
C612 C 0.04095 0.3688 0.57091 0.0
N613 N 0.9795 0.38083 0.56459 0.0
C614 C 0.95159 0.37109 0.60863 0.0
C615 C 0.974 0.3765 0.6166 0.0
C616 C 0.98758 0.38159 0.59429 0.0
C617 C 0.94309 0.37267 0.57865 0.0
C618 C 0.9573 0.3774 0.557 0.0
N619 N 0.02039 0.3822 0.50146 0.0
C620 C 0.04688 0.36374 0.47143 0.0
C621 C 0.05328 0.38328 0.46098 0.0
C622 C 0.04222 0.40216 0.47041 0.0
C623 C 0.02585 0.40127 0.49065 0.0
C624 C 0.03037 0.36355 0.49145 0.0
H625 H 0.01798 0.4161 0.49808 0.0
H626 H 0.02618 0.34835 0.49957 0.0
H627 H 0.00492 0.38495 0.60087 0.0
H628 H 0.95043 0.37721 0.5339 0.0
C629 C 0.98809 0.43289 0.5403 0.0
C630 C 0.05017 0.39085 0.57586 0.0
C631 C 0.95954 0.3725 0.47178 0.0
C632 C 0.00139 0.33025 0.54266 0.0
H633 H 0.05436 0.4362 0.59691 0.0
H634 H 0.01924 0.45913 0.57976 0.0
H635 H 0.95446 0.44618 0.49685 0.0
H636 H 0.94093 0.41339 0.45721 0.0
H637 H 0.94995 0.3265 0.46208 0.0
H638 H 0.97116 0.30373 0.50257 0.0
H639 H 0.03866 0.31731 0.5805 0.0
H640 H 0.06673 0.35013 0.59572 0.0
H641 H 0.98137 0.37563 0.63948 0.0
H642 H 0.92572 0.36942 0.57158 0.0
H643 H 0.05507 0.34876 0.4651 0.0
H644 H 0.04632 0.41757 0.46249 0.0
C645 C 0.70292 0.04132 0.67221 0.0
C646 C 0.68205 0.04655 0.68129 0.0
C647 C 0.66753 0.03164 0.66614 0.0
C648 C 0.68032 0.0182 0.6488 0.0
N649 N 0.70215 0.02352 0.65221 0.0
Co650 Co 0.7266 0.00842 0.63133 0.0
N651 N 0.70484 0.98976 0.60399 0.0
C652 C 0.68243 0.99047 0.60334 0.0
C653 C 0.67178 0.97663 0.58102 0.0
C654 C 0.68839 0.96652 0.56647 0.0
C655 C 0.70831 0.97461 0.58108 0.0
N656 N 0.75116 0.99253 0.61173 0.0
C657 C 0.75032 0.97606 0.58956 0.0
C658 C 0.7714 0.96842 0.58456 0.0
C659 C 0.78605 0.98065 0.60397 0.0
C660 C 0.77317 0.99486 0.61989 0.0
N661 N 0.74828 0.02818 0.65705 0.0
C662 C 0.77069 0.02792 0.65746 0.0
C663 C 0.78109 0.04441 0.67588 0.0
C664 C 0.76429 0.05624 0.68741 0.0
C665 C 0.74456 0.04614 0.67535 0.0
N666 N 0.72794 0.98694 0.6621 0.0
C667 C 0.73267 0.95237 0.69893 0.0
C668 C 0.74937 0.96802 0.69965 0.0
C669 C 0.74666 0.98505 0.68132 0.0
C670 C 0.71294 0.95508 0.68115 0.0
C671 C 0.71082 0.97252 0.66338 0.0
N672 N 0.72535 0.02958 0.60069 0.0
C673 C 0.74401 0.0513 0.56793 0.0
C674 C 0.72394 0.06064 0.55847 0.0
C675 C 0.70454 0.05402 0.57018 0.0
C676 C 0.70557 0.03841 0.59096 0.0
C677 C 0.74436 0.03599 0.58906 0.0
H678 H 0.69023 0.0338 0.59903 0.0
H679 H 0.76022 0.02971 0.59597 0.0
H680 H 0.76031 0.99602 0.68268 0.0
H681 H 0.69531 0.97359 0.65043 0.0
C682 C 0.67201 0.00321 0.62532 0.0
C683 C 0.72273 0.05446 0.68144 0.0
C684 C 0.73005 0.96701 0.57291 0.0
C685 C 0.78136 0.01171 0.64065 0.0
H686 H 0.67769 0.0602 0.69639 0.0
H687 H 0.64962 0.03142 0.66637 0.0
H688 H 0.65407 0.974 0.57617 0.0
H689 H 0.68607 0.95438 0.54748 0.0
H690 H 0.77583 0.95535 0.56855 0.0
H691 H 0.80398 0.97953 0.60593 0.0
H692 H 0.79876 0.04758 0.68015 0.0
H693 H 0.76628 0.07076 0.70275 0.0
H694 H 0.76496 0.96665 0.71321 0.0
H695 H 0.69932 0.9436 0.68055 0.0
H696 H 0.75946 0.05617 0.55963 0.0
H697 H 0.68861 0.06075 0.56319 0.0
C698 C 0.05633 0.81778 0.56272 0.0
C699 C 0.06367 0.83869 0.57249 0.0
C700 C 0.05321 0.85215 0.55317 0.0
C701 C 0.04013 0.83885 0.53269 0.0
N702 N 0.04152 0.81787 0.53819 0.0
Co703 Co 0.02624 0.79343 0.51315 0.0
N704 N 0.00447 0.81299 0.4944 0.0
C705 C 0.00693 0.8344 0.49317 0.0
C706 C 0.98872 0.84349 0.47881 0.0
C707 C 0.974 0.82667 0.47053 0.0
C708 C 0.98414 0.80825 0.48037 0.0
N709 N 0.01099 0.76915 0.4878 0.0
C710 C 0.99014 0.76816 0.47417 0.0
C711 C 0.98563 0.74801 0.45879 0.0
C712 C 0.00451 0.73604 0.46309 0.0
C713 C 0.01939 0.74952 0.48078 0.0
N714 N 0.04798 0.77373 0.53181 0.0
C715 C 0.05225 0.75338 0.52091 0.0
C716 C 0.06793 0.74354 0.53898 0.0
C717 C 0.0741 0.75874 0.56244 0.0
C718 C 0.06193 0.77717 0.55721 0.0
N719 N 0.00657 0.78979 0.54506 0.0
C720 C 0.97719 0.7848 0.58957 0.0
C721 C 0.9874 0.76683 0.57549 0.0
C722 C 0.00202 0.76967 0.55335 0.0
C723 C 0.98217 0.80532 0.58091 0.0
C724 C 0.99687 0.80745 0.55875 0.0
N725 N 0.04592 0.79729 0.48116 0.0
C726 C 0.08232 0.8051 0.46638 0.0
C727 C 0.07365 0.80665 0.43649 0.0
C728 C 0.05089 0.80274 0.42921 0.0
C729 C 0.03736 0.79789 0.45179 0.0
C730 C 0.06822 0.80049 0.48832 0.0
H731 H 0.01988 0.79507 0.44561 0.0
H732 H 0.07535 0.80007 0.51125 0.0
H733 H 0.00957 0.75557 0.54283 0.0
H734 H 0.0002 0.82343 0.55244 0.0
C735 C 0.02428 0.84565 0.51078 0.0
C736 C 0.0659 0.79822 0.57477 0.0
C737 C 0.97482 0.78634 0.47466 0.0
C738 C 0.03901 0.74313 0.49639 0.0
H739 H 0.07575 0.84371 0.59114 0.0
H740 H 0.05468 0.86958 0.55431 0.0
H741 H 0.986 0.86043 0.476 0.0
H742 H 0.95772 0.82782 0.45869 0.0
H743 H 0.9703 0.74249 0.44611 0.0
H744 H 0.00664 0.71918 0.45562 0.0
H745 H 0.07375 0.7271 0.53596 0.0
H746 H 0.08647 0.75662 0.58094 0.0
H747 H 0.98432 0.75068 0.58169 0.0
H748 H 0.97447 0.81967 0.59079 0.0
H749 H 0.09979 0.80815 0.47306 0.0
H750 H 0.04358 0.80351 0.40627 0.0
C751 C 0.31168 0.11321 0.52644 0.0
C752 C 0.33156 0.10208 0.52686 0.0
C753 C 0.34481 0.11211 0.50885 0.0
C754 C 0.33231 0.12868 0.49841 0.0
N755 N 0.3119 0.12997 0.50882 0.0
Co756 Co 0.28811 0.15125 0.49859 0.0
N757 N 0.30719 0.16527 0.47071 0.0
C758 C 0.32816 0.15986 0.46474 0.0
C759 C 0.33717 0.17256 0.44511 0.0
C760 C 0.32104 0.18701 0.43811 0.0
C761 C 0.30299 0.18222 0.45386 0.0
N762 N 0.26428 0.17249 0.48833 0.0
C763 C 0.26412 0.18872 0.46977 0.0
C764 C 0.244 0.19946 0.4688 0.0
C765 C 0.23107 0.18988 0.48763 0.0
C766 C 0.2439 0.17384 0.49888 0.0
N767 N 0.26899 0.13727 0.52643 0.0
C768 C 0.24824 0.14303 0.53307 0.0
C769 C 0.23926 0.13038 0.55277 0.0
C770 C 0.25511 0.11549 0.55894 0.0
C771 C 0.27289 0.11989 0.54244 0.0
N772 N 0.30039 0.17152 0.53295 0.0
C773 C 0.31774 0.19853 0.58355 0.0
C774 C 0.29497 0.1944 0.57842 0.0
C775 C 0.28671 0.18114 0.55308 0.0
C776 C 0.33171 0.18931 0.5627 0.0
C777 C 0.32276 0.17583 0.53782 0.0
N778 N 0.27591 0.13074 0.46457 0.0
C779 C 0.24548 0.10841 0.44052 0.0
C780 C 0.25978 0.09706 0.42201 0.0
C781 C 0.28201 0.10366 0.42386 0.0
C782 C 0.28966 0.12042 0.44514 0.0
C783 C 0.25378 0.12527 0.46123 0.0
H784 H 0.3069 0.12428 0.44604 0.0
H785 H 0.24209 0.13326 0.47479 0.0
H786 H 0.2692 0.17896 0.55029 0.0
H787 H 0.3343 0.16907 0.52298 0.0
C788 C 0.339 0.14283 0.47808 0.0
C789 C 0.29287 0.10683 0.54235 0.0
C790 C 0.28247 0.19454 0.45254 0.0
C791 C 0.23733 0.15993 0.51958 0.0
H792 H 0.33593 0.08798 0.53865 0.0
H793 H 0.36144 0.10764 0.50358 0.0
H794 H 0.35357 0.17152 0.43701 0.0
H795 H 0.32248 0.19976 0.42327 0.0
H796 H 0.23913 0.21286 0.45581 0.0
H797 H 0.21432 0.19413 0.49257 0.0
H798 H 0.22301 0.13166 0.5613 0.0
H799 H 0.25365 0.10268 0.57369 0.0
H800 H 0.28346 0.2017 0.59363 0.0
H801 H 0.34949 0.19225 0.56576 0.0
H802 H 0.228 0.10413 0.43932 0.0
H803 H 0.2937 0.09533 0.40987 0.0
C804 C 0.55411 0.86414 0.06004 0.0
C805 C 0.56589 0.88042 0.07807 0.0
C806 C 0.56392 0.89861 0.06299 0.0
C807 C 0.55121 0.89242 0.03668 0.0
N808 N 0.54469 0.87142 0.03419 0.0
Co809 Co 0.52711 0.85537 0.99892 0.0
N810 N 0.5243 0.88211 0.97671 0.0
C811 C 0.53313 0.90189 0.98575 0.0
C812 C 0.52659 0.91741 0.96688 0.0
C813 C 0.51226 0.90704 0.94489 0.0
C814 C 0.51102 0.88572 0.95165 0.0
N815 N 0.50986 0.83927 0.96351 0.0
C816 C 0.4988 0.84701 0.93917 0.0
C817 C 0.48825 0.83066 0.9199 0.0
C818 C 0.49226 0.81188 0.9331 0.0
C819 C 0.50502 0.81787 0.95948 0.0
N820 N 0.52932 0.82871 0.02124 0.0
C821 C 0.52056 0.80891 0.01184 0.0
C822 C 0.52453 0.79393 0.03242 0.0
C823 C 0.53674 0.80471 0.05627 0.0
C824 C 0.53964 0.82571 0.0487 0.0
N825 N 0.49903 0.8628 0.01735 0.0
C826 C 0.459 0.87315 0.04337 0.0
C827 C 0.4623 0.85259 0.02916 0.0
C828 C 0.48224 0.84781 0.01646 0.0
C829 C 0.47609 0.88849 0.04418 0.0
C830 C 0.49579 0.88305 0.03103 0.0
N831 N 0.55537 0.84786 0.98049 0.0
C832 C 0.57989 0.82083 0.95959 0.0
C833 C 0.59658 0.83626 0.95825 0.0
C834 C 0.59202 0.85777 0.96736 0.0
C835 C 0.57148 0.86317 0.97826 0.0
C836 C 0.5597 0.8269 0.97065 0.0
H837 H 0.56922 0.87977 0.98515 0.0
H838 H 0.54799 0.81421 0.9713 0.0
H839 H 0.48369 0.83183 0.00605 0.0
H840 H 0.50814 0.89547 0.03209 0.0
C841 C 0.54542 0.90584 0.01372 0.0
C842 C 0.55333 0.8418 0.06765 0.0
C843 C 0.4957 0.86981 0.93532 0.0
C844 C 0.50983 0.80455 0.98285 0.0
H845 H 0.57529 0.87923 0.09962 0.0
H846 H 0.57122 0.91437 0.07012 0.0
H847 H 0.5308 0.93447 0.96967 0.0
H848 H 0.50313 0.91451 0.92668 0.0
H849 H 0.4778 0.83236 0.89929 0.0
H850 H 0.4855 0.796 0.92535 0.0
H851 H 0.51958 0.77706 0.03007 0.0
H852 H 0.54322 0.79781 0.07667 0.0
H853 H 0.4497 0.84003 0.02828 0.0
H854 H 0.47423 0.90473 0.05461 0.0
H855 H 0.58233 0.804 0.95212 0.0
H856 H 0.60441 0.87037 0.96685 0.0
C857 C 0.20401 0.66886 0.01724 0.0
C858 C 0.18109 0.66889 0.01126 0.0
C859 C 0.17632 0.65599 0.98507 0.0
C860 C 0.1965 0.6488 0.97665 0.0
N861 N 0.21391 0.6563 0.99591 0.0
Co862 Co 0.24612 0.64974 0.99255 0.0
N863 N 0.23889 0.62959 0.95536 0.0
C864 C 0.21873 0.62543 0.94031 0.0
C865 C 0.21904 0.60988 0.9165 0.0
C866 C 0.24058 0.6033 0.91689 0.0
C867 C 0.25212 0.61527 0.94106 0.0
N868 N 0.27833 0.64308 0.98909 0.0
C869 C 0.28762 0.62723 0.97159 0.0
C870 C 0.31053 0.62694 0.97743 0.0
C871 C 0.31588 0.643 -0.00016 0.0
C872 C 0.29601 0.65206 0.00644 0.0
N873 N 0.25342 0.66963 0.03006 0.0
C874 C 0.2739 0.67499 0.04344 0.0
C875 C 0.27366 0.68905 0.06888 0.0
C876 C 0.25174 0.69289 0.07203 0.0
C877 C 0.23978 0.68081 0.04824 0.0
N878 N 0.24368 0.62522 0.01777 0.0
C879 C 0.24161 0.58932 0.05216 0.0
C880 C 0.259 0.60445 0.05783 0.0
C881 C 0.25971 0.62208 0.04054 0.0
C882 C 0.22503 0.59273 0.02924 0.0
C883 C 0.22637 0.61066 0.01245 0.0
N884 N 0.24864 0.6745 0.96706 0.0
C885 C 0.26738 0.7072 0.95618 0.0
C886 C 0.25202 0.7099 0.93165 0.0
C887 C 0.23496 0.69455 0.92504 0.0
C888 C 0.23352 0.67724 0.94296 0.0
C889 C 0.26547 0.68955 0.97326 0.0
H890 H 0.21992 0.66644 0.93684 0.0
H891 H 0.27789 0.68857 0.99133 0.0
H892 H 0.27348 0.63292 0.04583 0.0
H893 H 0.2134 0.61234 0.99504 0.0
C894 C 0.19956 0.63458 0.95124 0.0
C895 C 0.21556 0.68105 0.04343 0.0
C896 C 0.27507 0.61111 0.95131 0.0
C897 C 0.29308 0.66655 0.03158 0.0
H898 H 0.16906 0.67733 0.02452 0.0
H899 H 0.16007 0.65218 0.97366 0.0
H900 H 0.20507 0.6033 0.90167 0.0
H901 H 0.24695 0.5905 0.902 0.0
H902 H 0.32208 0.61572 0.9675 0.0
H903 H 0.33215 0.64671 0.01127 0.0
H904 H 0.28775 0.69577 0.08336 0.0
H905 H 0.24537 0.70356 0.08974 0.0
H906 H 0.27202 0.60283 0.07571 0.0
H907 H 0.2113 0.58141 0.02381 0.0
H908 H 0.28109 0.71851 0.962 0.0
H909 H 0.22249 0.69606 0.90641 0.0
C910 C 0.48654 0.32661 0.00067 0.0
C911 C 0.48451 0.34848 0.99678 0.0
C912 C 0.49891 0.35917 0.01825 0.0
C913 C 0.50877 0.34332 0.03403 0.0
N914 N 0.5018 0.32307 0.02375 0.0
Co915 Co 0.51087 0.29541 0.04126 0.0
N916 N 0.53142 0.31132 0.0736 0.0
C917 C 0.53587 0.33282 0.07696 0.0
C918 C 0.55185 0.33893 0.09976 0.0
C919 C 0.5581 0.32024 0.1117 0.0
C920 C 0.54528 0.30371 0.09567 0.0
N921 N 0.51946 0.26782 0.05932 0.0
C922 C 0.53361 0.26442 0.08371 0.0
C923 C 0.53413 0.24275 0.08918 0.0
C924 C 0.52011 0.23203 0.06719 0.0
C925 C 0.51171 0.24769 0.04975 0.0
N926 N 0.49075 0.2795 0.00837 0.0
C927 C 0.48766 0.25785 0.00335 0.0
C928 C 0.47275 0.25174 0.97914 0.0
C929 C 0.46578 0.2706 0.96812 0.0
C930 C 0.47683 0.28718 0.98641 0.0
N931 N 0.53586 0.29223 0.01502 0.0
C932 C 0.57436 0.28682 0.98377 0.0
C933 C 0.56057 0.26924 0.98699 0.0
C934 C 0.5415 0.2723 0.00241 0.0
C935 C 0.56799 0.30732 0.99516 0.0
C936 C 0.54878 0.30964 0.01045 0.0
N937 N 0.48605 0.29845 0.06769 0.0
C938 C 0.4536 0.28353 0.08694 0.0
C939 C 0.45104 0.30242 0.10561 0.0
C940 C 0.46627 0.31932 0.10505 0.0
C941 C 0.48346 0.31706 0.08592 0.0
C942 C 0.47112 0.28187 0.06841 0.0
H943 H 0.49439 0.3306 0.08618 0.0
H944 H 0.47221 0.26698 0.05491 0.0
H945 H 0.53185 0.25821 0.00424 0.0
H946 H 0.54502 0.32563 0.0189 0.0
C947 C 0.5247 0.34694 0.05846 0.0
C948 C 0.47305 0.30995 0.98255 0.0
C949 C 0.54707 0.28108 0.10208 0.0
C950 C 0.49738 0.24388 0.02347 0.0
H951 H 0.47356 0.35599 0.98037 0.0
H952 H 0.50169 0.37646 0.02212 0.0
H953 H 0.55833 0.35505 0.10668 0.0
H954 H 0.57087 0.31903 0.12998 0.0
H955 H 0.54377 0.23541 0.10708 0.0
H956 H 0.51666 0.21483 0.06407 0.0
H957 H 0.46711 0.23553 0.97104 0.0
H958 H 0.45362 0.27206 0.94914 0.0
H959 H 0.56451 0.25311 0.97781 0.0
H960 H 0.57812 0.32147 0.99319 0.0
H961 H 0.44225 0.26995 0.08683 0.0
H962 H 0.46471 0.3344 0.11887 0.0
C963 C 0.7906 0.55203 0.17003 0.0
C964 C 0.77058 0.56213 0.17478 0.0
C965 C 0.75501 0.55224 0.15409 0.0
C966 C 0.76635 0.53668 0.13809 0.0
N967 N 0.7882 0.53586 0.14751 0.0
Co968 Co 0.8108 0.51559 0.13078 0.0
N969 N 0.78843 0.50261 0.09834 0.0
C970 C 0.76721 0.50894 0.09253 0.0
C971 C 0.75607 0.49735 0.06826 0.0
C972 C 0.77095 0.48254 0.05815 0.0
C973 C 0.79032 0.48582 0.07716 0.0
N974 N 0.83316 0.49471 0.1147 0.0
C975 C 0.83043 0.47784 0.09314 0.0
C976 C 0.84986 0.46612 0.09094 0.0
C977 C 0.86539 0.47595 0.11171 0.0
C978 C 0.8546 0.49288 0.12561 0.0
N979 N 0.83335 0.52917 0.16262 0.0
C980 C 0.85504 0.52404 0.16696 0.0
C981 C 0.8667 0.53702 0.18939 0.0
C982 C 0.85164 0.5516 0.19969 0.0
C983 C 0.83161 0.54655 0.18292 0.0
N984 N 0.80245 0.49405 0.15832 0.0
C985 C 0.79108 0.46058 0.1931 0.0
C986 C 0.81302 0.46792 0.19386 0.0
C987 C 0.81828 0.4846 0.17654 0.0
C988 C 0.77479 0.47086 0.17559 0.0
C989 C 0.78079 0.48745 0.15858 0.0
N990 N 0.81916 0.5371 0.10317 0.0
C991 C 0.84708 0.55568 0.0788 0.0
C992 C 0.83104 0.56917 0.06638 0.0
C993 C 0.80895 0.56603 0.07206 0.0
C994 C 0.80341 0.54998 0.09019 0.0
C995 C 0.84084 0.53992 0.09713 0.0
H996 H 0.78627 0.54846 0.09353 0.0
H997 H 0.85388 0.53042 0.10642 0.0
H998 H 0.83532 0.48929 0.1779 0.0
H999 H 0.76765 0.49434 0.1453 0.0
C1000 C 0.75758 0.52433 0.11205 0.0
C1001 C 0.81163 0.55926 0.18623 0.0
C1002 C 0.8096 0.47187 0.07515 0.0
C1003 C 0.86398 0.50701 0.14947 0.0
H1004 H 0.76768 0.57567 0.19094 0.0
H1005 H 0.7377 0.55646 0.15037 0.0
H1006 H 0.73894 0.499 0.05957 0.0
H1007 H 0.7677 0.47033 0.03939 0.0
H1008 H 0.85253 0.45168 0.07636 0.0
H1009 H 0.88237 0.47101 0.11661 0.0
H1010 H 0.88414 0.5362 0.197 0.0
H1011 H 0.85508 0.56468 0.21721 0.0
H1012 H 0.82615 0.46073 0.20761 0.0
H1013 H 0.75756 0.46568 0.17415 0.0
H1014 H 0.86444 0.55761 0.07502 0.0
H1015 H 0.7959 0.57588 0.06242 0.0
H1016 H 0.15644 0.34791 0.34328 0.0
H1017 H 0.08578 0.41447 0.4627 0.0
H1018 H 0.16812 0.41562 0.37139 0.0
H1019 H 0.0638 0.35351 0.41515 0.0
H1020 H 0.11762 0.41431 0.43231 0.0
H1021 H 0.12422 0.34854 0.37304 0.0
C1022 C 0.15222 0.36292 0.35565 0.0
C1023 C 0.16501 0.38175 0.35475 0.0
C1024 C 0.10576 0.40102 0.42847 0.0
C1025 C 0.12829 0.3825 0.38912 0.0
C1026 C 0.08747 0.40117 0.44565 0.0
C1027 C 0.07203 0.38397 0.44152 0.0
C1028 C 0.10877 0.38347 0.40718 0.0
C1029 C 0.07542 0.36695 0.41949 0.0
C1030 C 0.13385 0.36325 0.37268 0.0
C1031 C 0.15897 0.40063 0.37173 0.0
N1032 N 0.09347 0.36709 0.40325 0.0
N1033 N 0.14104 0.40052 0.38821 0.0
H1034 H 0.71742 0.18348 0.48281 0.0
H1035 H 0.74386 0.0604 0.5055 0.0
H1036 H 0.73803 0.1387 0.41087 0.0
H1037 H 0.70307 0.09951 0.56334 0.0
H1038 H 0.74435 0.08959 0.47193 0.0
H1039 H 0.71423 0.15349 0.5141 0.0
C1040 C 0.72107 0.16734 0.47342 0.0
C1041 C 0.72799 0.16366 0.44405 0.0
C1042 C 0.73517 0.09171 0.49186 0.0
C1043 C 0.72482 0.12931 0.48015 0.0
C1044 C 0.73498 0.07514 0.51105 0.0
C1045 C 0.72343 0.07763 0.53718 0.0
C1046 C 0.72401 0.11099 0.49913 0.0
C1047 C 0.71203 0.09692 0.54326 0.0
C1048 C 0.71934 0.15024 0.4914 0.0
C1049 C 0.73299 0.1424 0.4335 0.0
N1050 N 0.71275 0.11296 0.5245 0.0
N1051 N 0.73141 0.12605 0.45159 0.0
H1052 H 0.85606 0.77931 0.35302 0.0
H1053 H 0.93773 0.78244 0.5046 0.0
H1054 H 0.8329 0.77294 0.441 0.0
H1055 H 0.95989 0.78332 0.41521 0.0
H1056 H 0.89915 0.77838 0.48219 0.0
H1057 H 0.89424 0.78021 0.37566 0.0
C1058 C 0.85905 0.77814 0.37717 0.0
C1059 C 0.8413 0.77625 0.39523 0.0
C1060 C 0.91244 0.77934 0.46745 0.0
C1061 C 0.88504 0.77716 0.42136 0.0
C1062 C 0.93434 0.78166 0.48023 0.0
C1063 C 0.95168 0.78314 0.46154 0.0
C1064 C 0.90806 0.77866 0.43583 0.0
C1065 C 0.94677 0.78216 0.43017 0.0
C1066 C 0.88086 0.77854 0.39007 0.0
C1067 C 0.84613 0.77435 0.42628 0.0
N1068 N 0.92537 0.78003 0.41827 0.0
N1069 N 0.86757 0.77501 0.43844 0.0
H1070 H 0.21888 0.9666 0.35874 0.0
H1071 H 0.26804 0.08631 0.36309 0.0
H1072 H 0.23991 0.99463 0.28024 0.0
H1073 H 0.23417 0.06364 0.43615 0.0
H1074 H 0.25771 0.05267 0.33233 0.0
H1075 H 0.22424 0.0019 0.38779 0.0
C1076 C 0.22445 0.98022 0.34761 0.0
C1077 C 0.22886 0.97774 0.31705 0.0
C1078 C 0.25235 0.05512 0.35499 0.0
C1079 C 0.23516 0.01799 0.35002 0.0
C1080 C 0.25831 0.07427 0.37255 0.0
C1081 C 0.25198 0.0777 0.40217 0.0
C1082 C 0.2402 0.03916 0.36728 0.0
C1083 C 0.23922 0.06168 0.4133 0.0
C1084 C 0.22743 0.00035 0.36411 0.0
C1085 C 0.23599 0.9959 0.30364 0.0
N1086 N 0.23392 0.043 0.39593 0.0
N1087 N 0.23907 0.01521 0.32026 0.0
H1088 H 0.15873 0.84744 0.72333 0.0
H1089 H 0.10881 0.79337 0.56236 0.0
H1090 H 0.19752 0.82865 0.64827 0.0
H1091 H 0.06817 0.81076 0.63561 0.0
H1092 H 0.142 0.80244 0.59622 0.0
H1093 H 0.12584 0.8308 0.69425 0.0
C1094 C 0.1604 0.83967 0.70089 0.0
C1095 C 0.18096 0.83953 0.68823 0.0
C1096 C 0.1259 0.80402 0.60517 0.0
C1097 C 0.14346 0.82042 0.65495 0.0
C1098 C 0.107 0.7987 0.58587 0.0
C1099 C 0.0859 0.80108 0.59649 0.0
C1100 C 0.1237 0.81221 0.63521 0.0
C1101 C 0.08428 0.80854 0.62685 0.0
C1102 C 0.14164 0.8301 0.68437 0.0
C1103 C 0.18217 0.82896 0.65921 0.0
N1104 N 0.10298 0.81404 0.64519 0.0
N1105 N 0.16369 0.82001 0.64354 0.0
H1106 H 0.32159 0.27669 0.75169 0.0
H1107 H 0.34673 0.23254 0.58434 0.0
H1108 H 0.34196 0.3167 0.684 0.0
H1109 H 0.30829 0.19792 0.64237 0.0
H1110 H 0.35587 0.26009 0.62647 0.0
H1111 H 0.32751 0.24463 0.71743 0.0
C1112 C 0.32764 0.27875 0.72987 0.0
C1113 C 0.33081 0.29948 0.72051 0.0
C1114 C 0.34576 0.24626 0.6301 0.0
C1115 C 0.33779 0.26291 0.68142 0.0
C1116 C 0.34064 0.23052 0.60615 0.0
C1117 C 0.32644 0.21321 0.60985 0.0
C1118 C 0.33669 0.24453 0.65788 0.0
C1119 C 0.31893 0.21131 0.63851 0.0
C1120 C 0.33108 0.26045 0.7104 0.0
C1121 C 0.33927 0.30112 0.6923 0.0
N1122 N 0.32395 0.22693 0.66137 0.0
N1123 N 0.34214 0.28309 0.67358 0.0
H1124 H 0.89997 0.32765 0.7697 0.0
H1125 H 0.92027 0.33884 0.59726 0.0
H1126 H 0.85391 0.30388 0.69475 0.0
H1127 H 0.95165 0.38188 0.67022 0.0
H1128 H 0.89859 0.32282 0.6333 0.0
H1129 H 0.92247 0.34417 0.73405 0.0
C1130 C 0.89476 0.32578 0.74571 0.0
C1131 C 0.87513 0.31448 0.735 0.0
C1132 C 0.91012 0.33586 0.6414 0.0
C1133 C 0.90051 0.33319 0.69445 0.0
C1134 C 0.9224 0.34521 0.62078 0.0
C1135 C 0.93769 0.36199 0.63057 0.0
C1136 C 0.9133 0.34305 0.67221 0.0
C1137 C 0.94021 0.3689 0.66162 0.0
C1138 C 0.90744 0.33532 0.72549 0.0
C1139 C 0.86888 0.31262 0.70384 0.0
N1140 N 0.92817 0.35934 0.68139 0.0
N1141 N 0.88157 0.32184 0.68463 0.0
H1142 H 0.76404 0.82116 0.73169 0.0
H1143 H 0.75177 0.94922 0.75638 0.0
H1144 H 0.78597 0.85912 0.81488 0.0
H1145 H 0.72315 0.91059 0.67723 0.0
H1146 H 0.76275 0.91614 0.7793 0.0
H1147 H 0.74736 0.85346 0.7122 0.0
C1148 C 0.76522 0.83625 0.74594 0.0
C1149 C 0.77661 0.83748 0.77485 0.0
C1150 C 0.75386 0.91487 0.75705 0.0
C1151 C 0.75772 0.87452 0.75261 0.0
C1152 C 0.74763 0.93375 0.74397 0.0
C1153 C 0.73667 0.93262 0.71482 0.0
C1154 C 0.74929 0.89473 0.74073 0.0
C1155 C 0.73146 0.91217 0.69984 0.0
C1156 C 0.75574 0.85469 0.73477 0.0
C1157 C 0.77777 0.85751 0.79221 0.0
N1158 N 0.73803 0.89402 0.71284 0.0
N1159 N 0.76855 0.87525 0.78076 0.0
H1160 H 0.90104 0.80327 0.74639 0.0
H1161 H 0.9455 0.75304 0.59087 0.0
H1162 H 0.87815 0.74207 0.70064 0.0
H1163 H 0.97281 0.8108 0.64187 0.0
H1164 H 0.91963 0.74942 0.62961 0.0
H1165 H 0.92611 0.80717 0.70685 0.0
C1166 C 0.90129 0.79063 0.72806 0.0
C1167 C 0.88748 0.77227 0.72696 0.0
C1168 C 0.93128 0.76289 0.63231 0.0
C1169 C 0.91611 0.77672 0.68136 0.0
C1170 C 0.94617 0.7649 0.61028 0.0
C1171 C 0.96142 0.78226 0.61305 0.0
C1172 C 0.93157 0.77837 0.65734 0.0
C1173 C 0.96119 0.79732 0.63849 0.0
C1174 C 0.91557 0.7929 0.7054 0.0
C1175 C 0.88828 0.75661 0.70229 0.0
N1176 N 0.94653 0.79502 0.6596 0.0
N1177 N 0.90239 0.75917 0.68055 0.0
H1178 H 0.3097 0.01493 0.67768 0.0
H1179 H 0.27172 0.06853 0.52442 0.0
H1180 H 0.26638 0.98316 0.605 0.0
H1181 H 0.31541 0.10014 0.59644 0.0
H1182 H 0.27085 0.03638 0.55268 0.0
H1183 H 0.31305 0.04575 0.64771 0.0
C1184 C 0.30083 0.01446 0.65546 0.0
C1185 C 0.28765 0.99644 0.64393 0.0
C1186 C 0.28077 0.05025 0.56228 0.0
C1187 C 0.29159 0.03165 0.6093 0.0
C1188 C 0.28129 0.0685 0.54612 0.0
C1189 C 0.29372 0.08677 0.55823 0.0
C1190 C 0.29269 0.05038 0.59082 0.0
C1191 C 0.30574 0.08621 0.58644 0.0
C1192 C 0.30286 0.03202 0.63827 0.0
C1193 C 0.27688 0.99659 0.61472 0.0
N1194 N 0.30488 0.06831 0.60188 0.0
N1195 N 0.27902 0.01394 0.5985 0.0
H1196 H 0.1586 0.38551 0.71235 0.0
H1197 H 0.08896 0.40617 0.55786 0.0
H1198 H 0.18343 0.42654 0.64879 0.0
H1199 H 0.0595 0.3854 0.63552 0.0
H1200 H 0.12464 0.4118 0.58874 0.0
H1201 H 0.12296 0.38317 0.68253 0.0
C1202 C 0.15654 0.3943 0.69236 0.0
C1203 C 0.17414 0.40641 0.68333 0.0
C1204 C 0.11035 0.40606 0.599 0.0
C1205 C 0.13328 0.40323 0.64845 0.0
C1206 C 0.09012 0.40281 0.58142 0.0
C1207 C 0.07163 0.39492 0.59419 0.0
C1208 C 0.11193 0.40125 0.6294 0.0
C1209 C 0.07363 0.3911 0.62485 0.0
C1210 C 0.13616 0.39281 0.6752 0.0
C1211 C 0.17049 0.41682 0.65654 0.0
N1212 N 0.09349 0.39409 0.64135 0.0
N1213 N 0.15049 0.41491 0.63996 0.0
H1214 H 0.73299 0.16523 0.81317 0.0
H1215 H 0.72581 0.09201 0.65531 0.0
H1216 H 0.74622 0.18861 0.72778 0.0
H1217 H 0.71677 0.06679 0.74062 0.0
H1218 H 0.72822 0.12865 0.68081 0.0
H1219 H 0.72229 0.13009 0.78652 0.0
C1220 C 0.73351 0.16304 0.78882 0.0
C1221 C 0.74062 0.17991 0.77274 0.0
C1222 C 0.72542 0.11518 0.69398 0.0
C1223 C 0.7283 0.13979 0.7421 0.0
C1224 C 0.72396 0.09437 0.6794 0.0
C1225 C 0.72101 0.07664 0.69604 0.0
C1226 C 0.72415 0.11819 0.72549 0.0
C1227 C 0.71892 0.08024 0.72717 0.0
C1228 C 0.72731 0.14301 0.77361 0.0
C1229 C 0.74062 0.17622 0.74114 0.0
N1230 N 0.7207 0.10065 0.74101 0.0
N1231 N 0.73473 0.15655 0.72693 0.0
H1232 H 0.82098 0.34848 0.41522 0.0
H1233 H 0.95337 0.35272 0.41408 0.0
H1234 H 0.85822 0.29991 0.36611 0.0
H1235 H 0.91775 0.38175 0.48695 0.0
H1236 H 0.91774 0.34016 0.38715 0.0
H1237 H 0.85576 0.36752 0.43282 0.0
C1238 C 0.8364 0.34181 0.40802 0.0
C1239 C 0.83658 0.3223 0.3895 0.0
C1240 C 0.91776 0.34965 0.40876 0.0
C1241 C 0.87643 0.3444 0.40905 0.0
C1242 C 0.93798 0.3569 0.42393 0.0
C1243 C 0.93835 0.36833 0.45257 0.0
C1244 C 0.89787 0.35412 0.42228 0.0
C1245 C 0.91808 0.37317 0.46473 0.0
C1246 C 0.85623 0.35279 0.41793 0.0
C1247 C 0.85713 0.3149 0.3802 0.0
N1248 N 0.89866 0.36597 0.44958 0.0
N1249 N 0.87623 0.32588 0.39024 0.0
H1250 H 0.76899 0.88337 0.42112 0.0
H1251 H 0.7165 0.9252 0.57423 0.0
H1252 H 0.71973 0.84694 0.46114 0.0
H1253 H 0.74765 0.96775 0.51847 0.0
H1254 H 0.72074 0.89501 0.53578 0.0
H1255 H 0.76482 0.91328 0.45964 0.0
C1256 C 0.75729 0.88162 0.43793 0.0
C1257 C 0.74467 0.86253 0.43773 0.0
C1258 C 0.72656 0.91096 0.53188 0.0
C1259 C 0.74009 0.89666 0.48218 0.0
C1260 C 0.72409 0.92812 0.55372 0.0
C1261 C 0.73164 0.94885 0.54922 0.0
C1262 C 0.73693 0.91457 0.50561 0.0
C1263 C 0.74159 0.95192 0.52255 0.0
C1264 C 0.75497 0.8987 0.45996 0.0
C1265 C 0.7301 0.86113 0.46057 0.0
N1266 N 0.74407 0.93492 0.50176 0.0
N1267 N 0.72823 0.87794 0.48184 0.0
H1268 H 0.1383 0.87895 0.31013 0.0
H1269 H 0.11514 0.79182 0.42589 0.0
H1270 H 0.18049 0.82424 0.32459 0.0
H1271 H 0.06549 0.83639 0.39506 0.0
H1272 H 0.13996 0.80449 0.39029 0.0
H1273 H 0.11187 0.86455 0.34227 0.0
C1274 C 0.14198 0.86386 0.31985 0.0
C1275 C 0.16181 0.85291 0.31473 0.0
C1276 C 0.12359 0.81142 0.39114 0.0
C1277 C 0.1317 0.8365 0.35195 0.0
C1278 C 0.10945 0.80424 0.41154 0.0
C1279 C 0.08824 0.81309 0.41347 0.0
C1280 C 0.1166 0.82778 0.37274 0.0
C1281 C 0.08164 0.82901 0.39412 0.0
C1282 C 0.1269 0.85569 0.33831 0.0
C1283 C 0.16572 0.83354 0.32836 0.0
N1284 N 0.09583 0.83597 0.37474 0.0
N1285 N 0.15089 0.82605 0.3464 0.0
H1286 H 0.2626 0.27713 0.30534 0.0
H1287 H 0.28254 0.23736 0.47223 0.0
H1288 H 0.26797 0.32046 0.38698 0.0
H1289 H 0.2772 0.19404 0.3909 0.0
H1290 H 0.27775 0.26813 0.44132 0.0
H1291 H 0.26813 0.24656 0.3361 0.0
C1292 C 0.26482 0.28023 0.32974 0.0
C1293 C 0.26477 0.30146 0.34354 0.0
C1294 C 0.27767 0.25193 0.43016 0.0
C1295 C 0.27136 0.26644 0.37898 0.0
C1296 C 0.28042 0.23444 0.44779 0.0
C1297 C 0.28026 0.2133 0.43393 0.0
C1298 C 0.27471 0.24821 0.39843 0.0
C1299 C 0.27745 0.21018 0.40228 0.0
C1300 C 0.26811 0.26275 0.3473 0.0
C1301 C 0.26812 0.30444 0.37528 0.0
N1302 N 0.27475 0.22745 0.38556 0.0
N1303 N 0.27123 0.28716 0.39188 0.0
H1304 H 0.72229 0.82617 0.87512 0.0
H1305 H 0.62021 0.80017 0.97073 0.0
H1306 H 0.71219 0.76538 0.91235 0.0
H1307 H 0.62339 0.85741 0.9227 0.0
H1308 H 0.65544 0.78862 0.95228 0.0
H1309 H 0.68771 0.83937 0.89517 0.0
C1310 C 0.71284 0.81564 0.88757 0.0
C1311 C 0.72005 0.79458 0.89187 0.0
C1312 C 0.64847 0.80371 0.94571 0.0
C1313 C 0.68058 0.80955 0.91486 0.0
C1314 C 0.62824 0.81028 0.95613 0.0
C1315 C 0.6186 0.82969 0.94798 0.0
C1316 C 0.65936 0.81663 0.92702 0.0
C1317 C 0.63021 0.84238 0.92968 0.0
C1318 C 0.69308 0.82314 0.89889 0.0
C1319 C 0.7071 0.78158 0.90804 0.0
N1320 N 0.64994 0.83559 0.91972 0.0
N1321 N 0.68806 0.78928 0.91893 0.0
H1322 H 0.26514 0.79182 0.7856 0.0
H1323 H 0.26128 0.75224 0.95158 0.0
H1324 H 0.26569 0.83551 0.86657 0.0
H1325 H 0.24698 0.71017 0.86978 0.0
H1326 H 0.26513 0.78264 0.92092 0.0
H1327 H 0.26077 0.76139 0.81614 0.0
C1328 C 0.26445 0.795 0.80983 0.0
C1329 C 0.26581 0.81625 0.82355 0.0
C1330 C 0.2611 0.76678 0.90966 0.0
C1331 C 0.26072 0.78148 0.85865 0.0
C1332 C 0.25902 0.74939 0.92715 0.0
C1333 C 0.25385 0.7286 0.91323 0.0
C1334 C 0.2582 0.76339 0.87794 0.0
C1335 C 0.25079 0.72594 0.88147 0.0
C1336 C 0.26181 0.77763 0.82722 0.0
C1337 C 0.26451 0.81942 0.855 0.0
N1338 N 0.25313 0.74309 0.86491 0.0
N1339 N 0.26214 0.80224 0.87148 0.0
H1340 H 0.3934 0.36315 0.83657 0.0
H1341 H 0.42941 0.31237 0.99269 0.0
H1342 H 0.34966 0.35757 0.90753 0.0
H1343 H 0.47492 0.32287 0.92578 0.0
H1344 H 0.39925 0.32674 0.96011 0.0
H1345 H 0.42311 0.34712 0.86772 0.0
C1346 C 0.39008 0.35874 0.8588 0.0
C1347 C 0.36897 0.36174 0.86943 0.0
C1348 C 0.41578 0.3258 0.95239 0.0
C1349 C 0.40282 0.34302 0.905 0.0
C1350 C 0.43287 0.31751 0.97089 0.0
C1351 C 0.45443 0.31649 0.96164 0.0
C1352 C 0.42039 0.33314 0.92451 0.0
C1353 C 0.45836 0.32341 0.93343 0.0
C1354 C 0.40701 0.34942 0.87647 0.0
C1355 C 0.36556 0.35533 0.89821 0.0
N1356 N 0.44149 0.33154 0.91584 0.0
N1357 N 0.38228 0.34628 0.91495 0.0
H1358 H 0.83028 0.3621 0.94755 0.0
H1359 H 0.78279 0.43731 0.08078 0.0
H1360 H 0.76368 0.35384 0.97318 0.0
H1361 H 0.83137 0.45998 0.02489 0.0
H1362 H 0.77869 0.40362 0.04731 0.0
H1363 H 0.83439 0.39513 0.98202 0.0
C1364 C 0.81661 0.36718 0.96073 0.0
C1365 C 0.79666 0.35527 0.95779 0.0
C1366 C 0.79027 0.41596 0.04246 0.0
C1367 C 0.80124 0.39287 0.99709 0.0
C1368 C 0.79265 0.43506 0.0615 0.0
C1369 C 0.80757 0.4512 0.05557 0.0
C1370 C 0.80318 0.41294 0.01764 0.0
C1371 C 0.81992 0.44772 0.03033 0.0
C1372 C 0.81891 0.38605 0.98016 0.0
C1373 C 0.77931 0.36264 0.97492 0.0
N1374 N 0.81758 0.42887 0.01237 0.0
N1375 N 0.78204 0.38095 0.99407 0.0
H1376 H 0.64021 0.2979 0.25688 0.0
H1377 H 0.58416 0.25656 0.09676 0.0
H1378 H 0.65652 0.23506 0.21531 0.0
H1379 H 0.54721 0.29252 0.1627 0.0
H1380 H 0.61346 0.25076 0.13694 0.0
H1381 H 0.60854 0.29916 0.21943 0.0
C1382 C 0.63714 0.28426 0.24016 0.0
C1383 C 0.65123 0.2663 0.23953 0.0
C1384 C 0.5988 0.25969 0.14261 0.0
C1385 C 0.61524 0.26809 0.19595 0.0
C1386 C 0.58214 0.26293 0.11982 0.0
C1387 C 0.56345 0.2751 0.12662 0.0
C1388 C 0.59687 0.26914 0.1721 0.0
C1389 C 0.56152 0.28316 0.1567 0.0
C1390 C 0.61906 0.28508 0.2187 0.0
C1391 C 0.64653 0.24946 0.21652 0.0
N1392 N 0.57824 0.28037 0.17831 0.0
N1393 N 0.62906 0.25086 0.19549 0.0
H1394 H 0.79914 0.69509 0.23623 0.0
H1395 H 0.81084 0.56771 0.24734 0.0
H1396 H 0.79035 0.66409 0.31761 0.0
H1397 H 0.8144 0.59871 0.16502 0.0
H1398 H 0.80855 0.60339 0.27547 0.0
H1399 H 0.81043 0.66063 0.21198 0.0
C1400 C 0.8 0.68113 0.24924 0.0
C1401 C 0.79367 0.68249 0.27899 0.0
C1402 C 0.8101 0.60243 0.25132 0.0
C1403 C 0.80612 0.64277 0.25105 0.0
C1404 C 0.81147 0.58214 0.2354 0.0
C1405 C 0.81282 0.58055 0.20405 0.0
C1406 C 0.81 0.62113 0.2356 0.0
C1407 C 0.81341 0.59949 0.18928 0.0
C1408 C 0.80626 0.66138 0.23525 0.0
C1409 C 0.79476 0.66372 0.29449 0.0
N1410 N 0.81187 0.61904 0.20517 0.0
N1411 N 0.80068 0.6446 0.28027 0.0
H1412 H 0.36168 0.91087 0.17012 0.0
H1413 H 0.41645 0.86137 0.02171 0.0
H1414 H 0.32561 0.8725 0.09619 0.0
H1415 H 0.45371 0.89653 0.09757 0.0
H1416 H 0.38246 0.86774 0.04708 0.0
H1417 H 0.395 0.90816 0.14241 0.0
C1418 C 0.36075 0.90189 0.14806 0.0
C1419 C 0.3408 0.89181 0.13556 0.0
C1420 C 0.39805 0.87415 0.05815 0.0
C1421 C 0.37889 0.88878 0.10358 0.0
C1422 C 0.41749 0.87043 0.04373 0.0
C1423 C 0.43802 0.87825 0.05764 0.0
C1424 C 0.39906 0.88576 0.08679 0.0
C1425 C 0.43826 0.8903 0.08591 0.0
C1426 C 0.37976 0.90043 0.13218 0.0
C1427 C 0.34051 0.88072 0.10663 0.0
N1428 N 0.4191 0.89356 0.09962 0.0
N1429 N 0.35927 0.87942 0.09172 0.0
H1430 H 0.27866 0.48465 0.1615 0.0
H1431 H 0.20544 0.57031 0.07357 0.0
H1432 H 0.20705 0.48541 0.15733 0.0
H1433 H 0.27649 0.56447 0.07137 0.0
H1434 H 0.20537 0.53941 0.10416 0.0
H1435 H 0.27796 0.51437 0.12906 0.0
C1436 C 0.26277 0.49116 0.15389 0.0
C1437 C 0.24288 0.48259 0.16231 0.0
C1438 C 0.22096 0.54489 0.09692 0.0
C1439 C 0.24193 0.51661 0.12481 0.0
C1440 C 0.221 0.56247 0.07931 0.0
C1441 C 0.24103 0.57015 0.07 0.0
C1442 C 0.24108 0.5349 0.10533 0.0
C1443 C 0.2607 0.55944 0.07847 0.0
C1444 C 0.26237 0.50806 0.13518 0.0
C1445 C 0.22277 0.49142 0.15124 0.0
N1446 N 0.26022 0.54246 0.09568 0.0
N1447 N 0.2228 0.50801 0.13317 0.0
H1448 H 0.32075 0.32136 0.16521 0.0
H1449 H 0.45191 0.31866 0.16492 0.0
H1450 H 0.36455 0.33223 0.24705 0.0
H1451 H 0.40753 0.29126 0.09021 0.0
H1452 H 0.42024 0.32366 0.19567 0.0
H1453 H 0.35225 0.30926 0.13783 0.0
C1454 C 0.33689 0.32076 0.17765 0.0
C1455 C 0.33995 0.32795 0.20856 0.0
C1456 C 0.41748 0.31636 0.17264 0.0
C1457 C 0.37632 0.31473 0.17691 0.0
C1458 C 0.43549 0.31367 0.15505 0.0
C1459 C 0.43228 0.30465 0.12497 0.0
C1460 C 0.39607 0.31025 0.15991 0.0
C1461 C 0.41074 0.29817 0.11337 0.0
C1462 C 0.35494 0.31402 0.16187 0.0
C1463 C 0.36144 0.32724 0.22314 0.0
N1464 N 0.39342 0.30129 0.13077 0.0
N1465 N 0.37886 0.32101 0.20711 0.0
H1466 H 0.78751 0.33448 0.26038 0.0
H1467 H 0.75489 0.45502 0.22524 0.0
H1468 H 0.7288 0.36626 0.29024 0.0
H1469 H 0.81409 0.42305 0.19743 0.0
H1470 H 0.74502 0.42287 0.24951 0.0
H1471 H 0.79738 0.36693 0.23712 0.0
C1472 C 0.77659 0.34824 0.26181 0.0
C1473 C 0.75723 0.34763 0.27711 0.0
C1474 C 0.76021 0.42293 0.23819 0.0
C1475 C 0.7686 0.38499 0.25091 0.0
C1476 C 0.76581 0.44124 0.22425 0.0
C1477 C 0.78535 0.44172 0.20929 0.0
C1478 C 0.77421 0.40494 0.23706 0.0
C1479 C 0.79902 0.42351 0.20904 0.0
C1480 C 0.78232 0.36683 0.24873 0.0
C1481 C 0.74396 0.3661 0.27883 0.0
N1482 N 0.79315 0.40586 0.22262 0.0
N1483 N 0.74986 0.38404 0.26582 0.0
H1484 H 0.65912 0.77924 0.16754 0.0
H1485 H 0.55146 0.84975 0.1288 0.0
H1486 H 0.62617 0.81779 0.23556 0.0
H1487 H 0.58987 0.81723 0.06158 0.0
H1488 H 0.57715 0.83661 0.16878 0.0
H1489 H 0.63213 0.79106 0.12874 0.0
C1490 C 0.64618 0.7902 0.17431 0.0
C1491 C 0.64499 0.79767 0.2048 0.0
C1492 C 0.57998 0.83236 0.1453 0.0
C1493 C 0.61392 0.8112 0.16049 0.0
C1494 C 0.56541 0.83989 0.12263 0.0
C1495 C 0.56884 0.83459 0.09216 0.0
C1496 C 0.59792 0.81936 0.13723 0.0
C1497 C 0.58688 0.82165 0.08497 0.0
C1498 C 0.63073 0.7969 0.15215 0.0
C1499 C 0.6276 0.81151 0.21234 0.0
N1500 N 0.60077 0.81446 0.10736 0.0
N1501 N 0.61279 0.81792 0.19029 0.0
H1502 H 0.18164 0.80357 0.12119 0.0
H1503 H 0.20621 0.6782 0.10192 0.0
H1504 H 0.19447 0.76456 0.1963 0.0
H1505 H 0.19768 0.71904 0.02856 0.0
H1506 H 0.19256 0.70739 0.13617 0.0
H1507 H 0.17738 0.77088 0.087 0.0
C1508 C 0.18293 0.78812 0.1307 0.0
C1509 C 0.18878 0.78686 0.16171 0.0
C1510 C 0.1932 0.70983 0.11246 0.0
C1511 C 0.18466 0.74924 0.1223 0.0
C1512 C 0.2009 0.69319 0.09301 0.0
C1513 C 0.20319 0.69653 0.06271 0.0
C1514 C 0.18794 0.72985 0.10138 0.0
C1515 C 0.1962 0.71607 0.05194 0.0
C1516 C 0.18071 0.7694 0.11103 0.0
C1517 C 0.1905 0.7663 0.17247 0.0
N1518 N 0.18917 0.73215 0.07138 0.0
N1519 N 0.18887 0.74829 0.15271 0.0
H1520 H 0.35789 0.87806 0.87094 0.0
H1521 H 0.49057 0.88655 0.88042 0.0
H1522 H 0.39424 0.90283 0.80157 0.0
H1523 H 0.45403 0.86742 0.95303 0.0
H1524 H 0.45535 0.8941 0.85184 0.0
H1525 H 0.39282 0.87541 0.90224 0.0
C1526 C 0.37319 0.88308 0.86238 0.0
C1527 C 0.37316 0.89048 0.83347 0.0
C1528 C 0.45501 0.88847 0.87415 0.0
C1529 C 0.41322 0.88731 0.86904 0.0
C1530 C 0.47506 0.8843 0.89041 0.0
C1531 C 0.47496 0.87658 0.919 0.0
C1532 C 0.43482 0.88464 0.88657 0.0
C1533 C 0.45459 0.87348 0.931 0.0
C1534 C 0.39314 0.88149 0.88021 0.0
C1535 C 0.39353 0.89659 0.82344 0.0
N1536 N 0.43529 0.87742 0.91465 0.0
N1537 N 0.41273 0.89478 0.84113 0.0
H1538 H 0.27675 0.47563 0.90461 0.0
H1539 H 0.30771 0.59989 0.91404 0.0
H1540 H 0.33404 0.49951 0.86521 0.0
H1541 H 0.26244 0.57341 0.9714 0.0
H1542 H 0.31942 0.56314 0.89817 0.0
H1543 H 0.27332 0.51073 0.93242 0.0
C1544 C 0.28898 0.48805 0.90231 0.0
C1545 C 0.3056 0.48458 0.88219 0.0
C1546 C 0.30721 0.56536 0.91463 0.0
C1547 C 0.30123 0.52521 0.91338 0.0
C1548 C 0.30061 0.58627 0.92366 0.0
C1549 C 0.28426 0.58944 0.94407 0.0
C1550 C 0.29703 0.5476 0.92572 0.0
C1551 C 0.27514 0.57144 0.95561 0.0
C1552 C 0.28686 0.50823 0.91807 0.0
C1553 C 0.32065 0.50157 0.87989 0.0
N1554 N 0.28149 0.55123 0.94604 0.0
N1555 N 0.3179 0.52125 0.8949 0.0
H1556 H 0.6894 0.30319 0.88481 0.0
H1557 H 0.60456 0.25451 0.99065 0.0
H1558 H 0.70123 0.24424 0.92794 0.0
H1559 H 0.59251 0.31219 0.94454 0.0
H1560 H 0.63991 0.25026 0.96795 0.0
H1561 H 0.65392 0.30671 0.90692 0.0
C1562 C 0.68445 0.29089 0.89881 0.0
C1563 C 0.6982 0.27328 0.90433 0.0
C1564 C 0.62952 0.26382 0.96276 0.0
C1565 C 0.65763 0.27736 0.93008 0.0
C1566 C 0.60926 0.26618 0.97553 0.0
C1567 C 0.59554 0.28374 0.96944 0.0
C1568 C 0.63612 0.27912 0.94377 0.0
C1569 C 0.60267 0.29856 0.95014 0.0
C1570 C 0.66422 0.29297 0.91156 0.0
C1571 C 0.69118 0.25812 0.92323 0.0
N1572 N 0.62246 0.29592 0.93801 0.0
N1573 N 0.67132 0.26047 0.93538 0.0
H1574 H 0.83482 0.68917 0.98405 0.0
H1575 H 0.85874 0.56716 0.02037 0.0
H1576 H 0.86697 0.64344 0.92369 0.0
H1577 H 0.81722 0.6109 0.07065 0.0
H1578 H 0.86662 0.59606 0.9884 0.0
H1579 H 0.83331 0.66191 0.0199 0.0
C1580 C 0.84194 0.67349 0.97855 0.0
C1581 C 0.85109 0.66859 0.95083 0.0
C1582 C 0.85588 0.59932 0.00653 0.0
C1583 C 0.84892 0.63705 0.99161 0.0
C1584 C 0.85147 0.5829 0.02483 0.0
C1585 C 0.83714 0.58664 0.04794 0.0
C1586 C 0.84602 0.61961 0.01165 0.0
C1587 C 0.82805 0.60726 0.05272 0.0
C1588 C 0.84086 0.65784 0.99894 0.0
C1589 C 0.85959 0.64781 0.94469 0.0
N1590 N 0.8326 0.62293 0.03469 0.0
N1591 N 0.85821 0.63274 0.96489 0.0
loop_
_geom_bond_atom_site_label_1
_geom_bond_atom_site_label_2
_geom_bond_distance
_geom_bond_site_symmetry_2
_ccdc_geom_bond_type
H0 O26 0.856 . S
H1 O29 0.854 . S
H2 C37 0.930 . S
H3 C38 0.930 . S
H4 C40 0.930 . S
H5 C41 0.930 . S
H6 C43 0.931 . S
H7 C44 0.930 . S
H8 C46 0.930 . S
H9 C47 0.929 . S
H10 C49 0.930 . S
H11 C50 0.931 . S
H12 C52 0.930 . S
H13 C53 0.929 . S
H14 C55 0.931 . S
H15 C56 0.930 . S
H16 C58 0.930 . S
H17 C59 0.932 . S
H18 C61 0.930 . S
H19 C62 0.929 . S
H20 C64 0.931 . S
H21 C65 0.930 . S
H22 C67 0.929 . S
H23 C68 0.931 . S
H24 C70 0.930 . S
H25 C71 0.929 . S
O26 H0 0.856 . S
O26 C72 1.300 . S
O27 C72 1.209 . S
O28 C73 1.199 . S
O29 H1 0.854 . S
O29 C73 1.297 . S
C30 C31 1.404 . S
C30 C35 1.397 . S
C30 C36 1.492 . S
C31 C30 1.404 . S
C31 C32 1.396 . S
C31 C42 1.492 . S
C32 C31 1.396 . S
C32 C33 1.397 . S
C32 C48 1.509 . S
C33 C32 1.397 . S
C33 C34 1.412 . S
C33 C54 1.485 . S
C34 C33 1.412 . S
C34 C35 1.388 . S
C34 C60 1.490 . S
C35 C30 1.397 . S
C35 C34 1.388 . S
C35 C66 1.519 . S
C36 C30 1.492 . S
C36 C37 1.363 . S
C36 C41 1.390 . S
C37 H2 0.930 . S
C37 C36 1.363 . S
C37 C38 1.372 . S
C38 H3 0.930 . S
C38 C37 1.372 . S
C38 C39 1.383 . S
C39 C38 1.383 . S
C39 C40 1.395 . S
C40 H4 0.930 . S
C40 C39 1.395 . S
C40 C41 1.362 . S
C41 H5 0.930 . S
C41 C36 1.390 . S
C41 C40 1.362 . S
C42 C31 1.492 . S
C42 C43 1.377 . S
C42 C47 1.397 . S
C43 H6 0.931 . S
C43 C42 1.377 . S
C43 C44 1.376 . S
C44 H7 0.930 . S
C44 C43 1.376 . S
C44 C45 1.376 . S
C45 C44 1.376 . S
C45 C46 1.378 . S
C45 C72 1.486 . S
C46 H8 0.930 . S
C46 C45 1.378 . S
C46 C47 1.376 . S
C47 H9 0.929 . S
C47 C42 1.397 . S
C47 C46 1.376 . S
C48 C32 1.509 . S
C48 C49 1.391 . S
C48 C53 1.386 . S
C49 H10 0.930 . S
C49 C48 1.391 . S
C49 C50 1.375 . S
C50 H11 0.931 . S
C50 C49 1.375 . S
C50 C51 1.375 . S
C51 C50 1.375 . S
C51 C52 1.361 . S
C52 H12 0.930 . S
C52 C51 1.361 . S
C52 C53 1.399 . S
C53 H13 0.929 . S
C53 C48 1.386 . S
C53 C52 1.399 . S
C54 C33 1.485 . S
C54 C55 1.394 . S
C54 C59 1.360 . S
C55 H14 0.931 . S
C55 C54 1.394 . S
C55 C56 1.372 . S
C56 H15 0.930 . S
C56 C55 1.372 . S
C56 C57 1.397 . S
C57 C56 1.397 . S
C57 C58 1.390 . S
C57 C73 1.476 . S
C58 H16 0.930 . S
C58 C57 1.390 . S
C58 C59 1.366 . S
C59 H17 0.932 . S
C59 C54 1.360 . S
C59 C58 1.366 . S
C60 C34 1.490 . S
C60 C61 1.380 . S
C60 C65 1.386 . S
C61 H18 0.930 . S
C61 C60 1.380 . S
C61 C62 1.381 . S
C62 H19 0.929 . S
C62 C61 1.381 . S
C62 C63 1.371 . S
C63 C62 1.371 . S
C63 C64 1.380 . S
C64 H20 0.931 . S
C64 C63 1.380 . S
C64 C65 1.387 . S
C65 H21 0.930 . S
C65 C60 1.386 . S
C65 C64 1.387 . S
C66 C35 1.519 . S
C66 C67 1.377 . S
C66 C71 1.361 . S
C67 H22 0.929 . S
C67 C66 1.377 . S
C67 C68 1.386 . S
C68 H23 0.931 . S
C68 C67 1.386 . S
C68 C69 1.363 . S
C69 C68 1.363 . S
C69 C70 1.385 . S
C70 H24 0.930 . S
C70 C69 1.385 . S
C70 C71 1.396 . S
C71 H25 0.929 . S
C71 C66 1.361 . S
C71 C70 1.396 . S
C72 O26 1.300 . S
C72 O27 1.209 . S
C72 C45 1.486 . S
C73 O28 1.199 . S
C73 O29 1.297 . S
C73 C57 1.476 . S
H74 O100 0.856 . S
H75 O103 0.854 . S
H76 C111 0.930 . S
H77 C112 0.930 . S
H78 C114 0.930 . S
H79 C115 0.930 . S
H80 C117 0.931 . S
H81 C118 0.930 . S
H82 C120 0.930 . S
H83 C121 0.929 . S
H84 C123 0.930 . S
H85 C124 0.931 . S
H86 C126 0.930 . S
H87 C127 0.929 . S
H88 C129 0.931 . S
H89 C130 0.930 . S
H90 C132 0.930 . S
H91 C133 0.932 . S
H92 C135 0.930 . S
H93 C136 0.929 . S
H94 C138 0.931 . S
H95 C139 0.930 . S
H96 C141 0.929 . S
H97 C142 0.931 . S
H98 C144 0.930 . S
H99 C145 0.929 . S
O100 H74 0.856 . S
O100 C146 1.300 . S
O101 C146 1.209 . S
O102 C147 1.199 . S
O103 H75 0.854 . S
O103 C147 1.297 . S
C104 C105 1.404 . S
C104 C109 1.397 . S
C104 C110 1.492 . S
C105 C104 1.404 . S
C105 C106 1.396 . S
C105 C116 1.492 . S
C106 C105 1.396 . S
C106 C107 1.397 . S
C106 C122 1.509 . S
C107 C106 1.397 . S
C107 C108 1.412 . S
C107 C128 1.485 . S
C108 C107 1.412 . S
C108 C109 1.388 . S
C108 C134 1.490 . S
C109 C104 1.397 . S
C109 C108 1.388 . S
C109 C140 1.519 . S
C110 C104 1.492 . S
C110 C111 1.363 . S
C110 C115 1.390 . S
C111 H76 0.930 . S
C111 C110 1.363 . S
C111 C112 1.372 . S
C112 H77 0.930 . S
C112 C111 1.372 . S
C112 C113 1.383 . S
C113 C112 1.383 . S
C113 C114 1.395 . S
C114 H78 0.930 . S
C114 C113 1.395 . S
C114 C115 1.362 . S
C115 H79 0.930 . S
C115 C110 1.390 . S
C115 C114 1.362 . S
C116 C105 1.492 . S
C116 C117 1.377 . S
C116 C121 1.397 . S
C117 H80 0.931 . S
C117 C116 1.377 . S
C117 C118 1.376 . S
C118 H81 0.930 . S
C118 C117 1.376 . S
C118 C119 1.376 . S
C119 C118 1.376 . S
C119 C120 1.378 . S
C119 C146 1.486 . S
C120 H82 0.930 . S
C120 C119 1.378 . S
C120 C121 1.376 . S
C121 H83 0.929 . S
C121 C116 1.397 . S
C121 C120 1.376 . S
C122 C106 1.509 . S
C122 C123 1.391 . S
C122 C127 1.386 . S
C123 H84 0.930 . S
C123 C122 1.391 . S
C123 C124 1.375 . S
C124 H85 0.931 . S
C124 C123 1.375 . S
C124 C125 1.375 . S
C125 C124 1.375 . S
C125 C126 1.361 . S
C126 H86 0.930 . S
C126 C125 1.361 . S
C126 C127 1.399 . S
C127 H87 0.929 . S
C127 C122 1.386 . S
C127 C126 1.399 . S
C128 C107 1.485 . S
C128 C129 1.394 . S
C128 C133 1.360 . S
C129 H88 0.931 . S
C129 C128 1.394 . S
C129 C130 1.372 . S
C130 H89 0.930 . S
C130 C129 1.372 . S
C130 C131 1.397 . S
C131 C130 1.397 . S
C131 C132 1.390 . S
C131 C147 1.476 . S
C132 H90 0.930 . S
C132 C131 1.390 . S
C132 C133 1.366 . S
C133 H91 0.932 . S
C133 C128 1.360 . S
C133 C132 1.366 . S
C134 C108 1.490 . S
C134 C135 1.380 . S
C134 C139 1.386 . S
C135 H92 0.930 . S
C135 C134 1.380 . S
C135 C136 1.381 . S
C136 H93 0.929 . S
C136 C135 1.381 . S
C136 C137 1.371 . S
C137 C136 1.371 . S
C137 C138 1.380 . S
C138 H94 0.931 . S
C138 C137 1.380 . S
C138 C139 1.387 . S
C139 H95 0.930 . S
C139 C134 1.386 . S
C139 C138 1.387 . S
C140 C109 1.519 . S
C140 C141 1.377 . S
C140 C145 1.361 . S
C141 H96 0.929 . S
C141 C140 1.377 . S
C141 C142 1.386 . S
C142 H97 0.931 . S
C142 C141 1.386 . S
C142 C143 1.363 . S
C143 C142 1.363 . S
C143 C144 1.385 . S
C144 H98 0.930 . S
C144 C143 1.385 . S
C144 C145 1.396 . S
C145 H99 0.929 . S
C145 C140 1.361 . S
C145 C144 1.396 . S
C146 O100 1.300 . S
C146 O101 1.209 . S
C146 C119 1.486 . S
C147 O102 1.199 . S
C147 O103 1.297 . S
C147 C131 1.476 . S
H148 O174 0.856 . S
H149 O177 0.854 . S
H150 C185 0.930 . S
H151 C186 0.930 . S
H152 C188 0.930 . S
H153 C189 0.930 . S
H154 C191 0.931 . S
H155 C192 0.930 . S
H156 C194 0.930 . S
H157 C195 0.929 . S
H158 C197 0.930 . S
H159 C198 0.931 . S
H160 C200 0.930 . S
H161 C201 0.929 . S
H162 C203 0.931 . S
H163 C204 0.930 . S
H164 C206 0.930 . S
H165 C207 0.932 . S
H166 C209 0.930 . S
H167 C210 0.929 . S
H168 C212 0.931 . S
H169 C213 0.930 . S
H170 C215 0.929 . S
H171 C216 0.931 . S
H172 C218 0.930 . S
H173 C219 0.929 . S
O174 H148 0.856 . S
O174 C220 1.300 . S
O175 C220 1.209 . S
O176 C221 1.199 . S
O177 H149 0.854 . S
O177 C221 1.297 . S
C178 C179 1.404 . S
C178 C183 1.397 . S
C178 C184 1.492 . S
C179 C178 1.404 . S
C179 C180 1.396 . S
C179 C190 1.492 . S
C180 C179 1.396 . S
C180 C181 1.397 . S
C180 C196 1.509 . S
C181 C180 1.397 . S
C181 C182 1.412 . S
C181 C202 1.485 . S
C182 C181 1.412 . S
C182 C183 1.388 . S
C182 C208 1.490 . S
C183 C178 1.397 . S
C183 C182 1.388 . S
C183 C214 1.519 . S
C184 C178 1.492 . S
C184 C185 1.363 . S
C184 C189 1.390 . S
C185 H150 0.930 . S
C185 C184 1.363 . S
C185 C186 1.372 . S
C186 H151 0.930 . S
C186 C185 1.372 . S
C186 C187 1.383 . S
C187 C186 1.383 . S
C187 C188 1.395 . S
C188 H152 0.930 . S
C188 C187 1.395 . S
C188 C189 1.362 . S
C189 H153 0.930 . S
C189 C184 1.390 . S
C189 C188 1.362 . S
C190 C179 1.492 . S
C190 C191 1.377 . S
C190 C195 1.397 . S
C191 H154 0.931 . S
C191 C190 1.377 . S
C191 C192 1.376 . S
C192 H155 0.930 . S
C192 C191 1.376 . S
C192 C193 1.376 . S
C193 C192 1.376 . S
C193 C194 1.378 . S
C193 C220 1.486 . S
C194 H156 0.930 . S
C194 C193 1.378 . S
C194 C195 1.376 . S
C195 H157 0.929 . S
C195 C190 1.397 . S
C195 C194 1.376 . S
C196 C180 1.509 . S
C196 C197 1.391 . S
C196 C201 1.386 . S
C197 H158 0.930 . S
C197 C196 1.391 . S
C197 C198 1.375 . S
C198 H159 0.931 . S
C198 C197 1.375 . S
C198 C199 1.375 . S
C199 C198 1.375 . S
C199 C200 1.361 . S
C200 H160 0.930 . S
C200 C199 1.361 . S
C200 C201 1.399 . S
C201 H161 0.929 . S
C201 C196 1.386 . S
C201 C200 1.399 . S
C202 C181 1.485 . S
C202 C203 1.394 . S
C202 C207 1.360 . S
C203 H162 0.931 . S
C203 C202 1.394 . S
C203 C204 1.372 . S
C204 H163 0.930 . S
C204 C203 1.372 . S
C204 C205 1.397 . S
C205 C204 1.397 . S
C205 C206 1.390 . S
C205 C221 1.476 . S
C206 H164 0.930 . S
C206 C205 1.390 . S
C206 C207 1.366 . S
C207 H165 0.932 . S
C207 C202 1.360 . S
C207 C206 1.366 . S
C208 C182 1.490 . S
C208 C209 1.380 . S
C208 C213 1.386 . S
C209 H166 0.930 . S
C209 C208 1.380 . S
C209 C210 1.381 . S
C210 H167 0.929 . S
C210 C209 1.381 . S
C210 C211 1.371 . S
C211 C210 1.371 . S
C211 C212 1.380 . S
C212 H168 0.931 . S
C212 C211 1.380 . S
C212 C213 1.387 . S
C213 H169 0.930 . S
C213 C208 1.386 . S
C213 C212 1.387 . S
C214 C183 1.519 . S
C214 C215 1.377 . S
C214 C219 1.361 . S
C215 H170 0.929 . S
C215 C214 1.377 . S
C215 C216 1.386 . S
C216 H171 0.931 . S
C216 C215 1.386 . S
C216 C217 1.363 . S
C217 C216 1.363 . S
C217 C218 1.385 . S
C218 H172 0.930 . S
C218 C217 1.385 . S
C218 C219 1.396 . S
C219 H173 0.929 . S
C219 C214 1.361 . S
C219 C218 1.396 . S
C220 O174 1.300 . S
C220 O175 1.209 . S
C220 C193 1.486 . S
C221 O176 1.199 . S
C221 O177 1.297 . S
C221 C205 1.476 . S
H222 O248 0.856 1_545 S
H223 O251 0.854 . S
H224 C259 0.930 . S
H225 C260 0.930 . S
H226 C262 0.930 . S
H227 C263 0.930 . S
H228 C265 0.931 . S
H229 C266 0.930 . S
H230 C268 0.930 . S
H231 C269 0.929 . S
H232 C271 0.930 . S
H233 C272 0.931 . S
H234 C274 0.930 . S
H235 C275 0.929 . S
H236 C277 0.931 . S
H237 C278 0.930 . S
H238 C280 0.930 . S
H239 C281 0.932 . S
H240 C283 0.930 . S
H241 C284 0.929 . S
H242 C286 0.931 . S
H243 C287 0.930 . S
H244 C289 0.929 . S
H245 C290 0.931 . S
H246 C292 0.930 . S
H247 C293 0.929 . S
O248 H222 0.856 1_565 S
O248 C294 1.300 . S
O249 C294 1.209 1_545 S
O250 C295 1.199 . S
O251 H223 0.854 . S
O251 C295 1.297 . S
C252 C253 1.404 . S
C252 C257 1.397 . S
C252 C258 1.492 . S
C253 C252 1.404 . S
C253 C254 1.396 . S
C253 C264 1.492 . S
C254 C253 1.396 . S
C254 C255 1.397 . S
C254 C270 1.509 . S
C255 C254 1.397 . S
C255 C256 1.412 . S
C255 C276 1.485 . S
C256 C255 1.412 . S
C256 C257 1.388 . S
C256 C282 1.490 . S
C257 C252 1.397 . S
C257 C256 1.388 . S
C257 C288 1.519 . S
C258 C252 1.492 . S
C258 C259 1.363 . S
C258 C263 1.390 . S
C259 H224 0.930 . S
C259 C258 1.363 . S
C259 C260 1.372 . S
C260 H225 0.930 . S
C260 C259 1.372 . S
C260 C261 1.383 . S
C261 C260 1.383 . S
C261 C262 1.395 . S
C262 H226 0.930 . S
C262 C261 1.395 . S
C262 C263 1.362 . S
C263 H227 0.930 . S
C263 C258 1.390 . S
C263 C262 1.362 . S
C264 C253 1.492 . S
C264 C265 1.377 . S
C264 C269 1.397 . S
C265 H228 0.931 . S
C265 C264 1.377 . S
C265 C266 1.376 . S
C266 H229 0.930 . S
C266 C265 1.376 . S
C266 C267 1.376 . S
C267 C266 1.376 . S
C267 C268 1.378 . S
C267 C294 1.486 . S
C268 H230 0.930 . S
C268 C267 1.378 . S
C268 C269 1.376 . S
C269 H231 0.929 . S
C269 C264 1.397 . S
C269 C268 1.376 . S
C270 C254 1.509 . S
C270 C271 1.391 . S
C270 C275 1.386 . S
C271 H232 0.930 . S
C271 C270 1.391 . S
C271 C272 1.375 . S
C272 H233 0.931 . S
C272 C271 1.375 . S
C272 C273 1.375 . S
C273 C272 1.375 . S
C273 C274 1.361 . S
C274 H234 0.930 . S
C274 C273 1.361 . S
C274 C275 1.399 . S
C275 H235 0.929 . S
C275 C270 1.386 . S
C275 C274 1.399 . S
C276 C255 1.485 . S
C276 C277 1.394 . S
C276 C281 1.360 . S
C277 H236 0.931 . S
C277 C276 1.394 . S
C277 C278 1.372 . S
C278 H237 0.930 . S
C278 C277 1.372 . S
C278 C279 1.397 . S
C279 C278 1.397 . S
C279 C280 1.390 . S
C279 C295 1.476 . S
C280 H238 0.930 . S
C280 C279 1.390 . S
C280 C281 1.366 . S
C281 H239 0.932 . S
C281 C276 1.360 . S
C281 C280 1.366 . S
C282 C256 1.490 . S
C282 C283 1.380 . S
C282 C287 1.386 . S
C283 H240 0.930 . S
C283 C282 1.380 . S
C283 C284 1.381 . S
C284 H241 0.929 . S
C284 C283 1.381 . S
C284 C285 1.371 . S
C285 C284 1.371 . S
C285 C286 1.380 . S
C286 H242 0.931 . S
C286 C285 1.380 . S
C286 C287 1.387 . S
C287 H243 0.930 . S
C287 C282 1.386 . S
C287 C286 1.387 . S
C288 C257 1.519 . S
C288 C289 1.377 . S
C288 C293 1.361 . S
C289 H244 0.929 . S
C289 C288 1.377 . S
C289 C290 1.386 . S
C290 H245 0.931 . S
C290 C289 1.386 . S
C290 C291 1.363 . S
C291 C290 1.363 . S
C291 C292 1.385 . S
C292 H246 0.930 . S
C292 C291 1.385 . S
C292 C293 1.396 . S
C293 H247 0.929 . S
C293 C288 1.361 . S
C293 C292 1.396 . S
C294 O248 1.300 . S
C294 O249 1.209 1_565 S
C294 C267 1.486 . S
C295 O250 1.199 . S
C295 O251 1.297 . S
C295 C279 1.476 . S
H296 O322 0.856 . S
H297 O325 0.854 . S
H298 C333 0.930 . S
H299 C334 0.930 . S
H300 C336 0.930 . S
H301 C337 0.930 . S
H302 C339 0.931 . S
H303 C340 0.930 . S
H304 C342 0.930 . S
H305 C343 0.929 . S
H306 C345 0.930 . S
H307 C346 0.931 . S
H308 C348 0.930 . S
H309 C349 0.929 . S
H310 C351 0.931 . S
H311 C352 0.930 . S
H312 C354 0.930 . S
H313 C355 0.932 . S
H314 C357 0.930 . S
H315 C358 0.929 . S
H316 C360 0.931 . S
H317 C361 0.930 . S
H318 C363 0.929 . S
H319 C364 0.931 . S
H320 C366 0.930 . S
H321 C367 0.929 . S
O322 H296 0.856 . S
O322 C368 1.300 . S
O323 C368 1.209 . S
O324 C369 1.199 . S
O325 H297 0.854 . S
O325 C369 1.297 . S
C326 C327 1.404 . S
C326 C331 1.397 . S
C326 C332 1.492 . S
C327 C326 1.404 . S
C327 C328 1.396 . S
C327 C338 1.492 . S
C328 C327 1.396 . S
C328 C329 1.397 . S
C328 C344 1.509 . S
C329 C328 1.397 . S
C329 C330 1.412 . S
C329 C350 1.485 . S
C330 C329 1.412 . S
C330 C331 1.388 . S
C330 C356 1.490 . S
C331 C326 1.397 . S
C331 C330 1.388 . S
C331 C362 1.519 . S
C332 C326 1.492 . S
C332 C333 1.363 . S
C332 C337 1.390 . S
C333 H298 0.930 . S
C333 C332 1.363 . S
C333 C334 1.372 . S
C334 H299 0.930 . S
C334 C333 1.372 . S
C334 C335 1.383 . S
C335 C334 1.383 . S
C335 C336 1.395 . S
C336 H300 0.930 . S
C336 C335 1.395 . S
C336 C337 1.362 . S
C337 H301 0.930 . S
C337 C332 1.390 . S
C337 C336 1.362 . S
C338 C327 1.492 . S
C338 C339 1.377 . S
C338 C343 1.397 . S
C339 H302 0.931 . S
C339 C338 1.377 . S
C339 C340 1.376 . S
C340 H303 0.930 . S
C340 C339 1.376 . S
C340 C341 1.376 . S
C341 C340 1.376 . S
C341 C342 1.378 . S
C341 C368 1.486 . S
C342 H304 0.930 . S
C342 C341 1.378 . S
C342 C343 1.376 . S
C343 H305 0.929 . S
C343 C338 1.397 . S
C343 C342 1.376 . S
C344 C328 1.509 . S
C344 C345 1.391 . S
C344 C349 1.386 . S
C345 H306 0.930 . S
C345 C344 1.391 . S
C345 C346 1.375 . S
C346 H307 0.931 . S
C346 C345 1.375 . S
C346 C347 1.375 . S
C347 C346 1.375 . S
C347 C348 1.361 . S
C348 H308 0.930 . S
C348 C347 1.361 . S
C348 C349 1.399 . S
C349 H309 0.929 . S
C349 C344 1.386 . S
C349 C348 1.399 . S
C350 C329 1.485 . S
C350 C351 1.394 . S
C350 C355 1.360 . S
C351 H310 0.931 . S
C351 C350 1.394 . S
C351 C352 1.372 . S
C352 H311 0.930 . S
C352 C351 1.372 . S
C352 C353 1.397 . S
C353 C352 1.397 . S
C353 C354 1.390 . S
C353 C369 1.476 . S
C354 H312 0.930 . S
C354 C353 1.390 . S
C354 C355 1.366 . S
C355 H313 0.932 . S
C355 C350 1.360 . S
C355 C354 1.366 . S
C356 C330 1.490 . S
C356 C357 1.380 . S
C356 C361 1.386 . S
C357 H314 0.930 . S
C357 C356 1.380 . S
C357 C358 1.381 . S
C358 H315 0.929 . S
C358 C357 1.381 . S
C358 C359 1.371 . S
C359 C358 1.371 . S
C359 C360 1.380 . S
C360 H316 0.931 . S
C360 C359 1.380 . S
C360 C361 1.387 . S
C361 H317 0.930 . S
C361 C356 1.386 . S
C361 C360 1.387 . S
C362 C331 1.519 . S
C362 C363 1.377 . S
C362 C367 1.361 . S
C363 H318 0.929 . S
C363 C362 1.377 . S
C363 C364 1.386 . S
C364 H319 0.931 . S
C364 C363 1.386 . S
C364 C365 1.363 . S
C365 C364 1.363 . S
C365 C366 1.385 . S
C366 H320 0.930 . S
C366 C365 1.385 . S
C366 C367 1.396 . S
C367 H321 0.929 . S
C367 C362 1.361 . S
C367 C366 1.396 . S
C368 O322 1.300 . S
C368 O323 1.209 . S
C368 C341 1.486 . S
C369 O324 1.199 . S
C369 O325 1.297 . S
C369 C353 1.476 . S
H370 O396 0.856 . S
H371 O399 0.854 . S
H372 C407 0.930 . S
H373 C408 0.930 . S
H374 C410 0.930 . S
H375 C411 0.930 . S
H376 C413 0.931 . S
H377 C414 0.930 . S
H378 C416 0.930 . S
H379 C417 0.929 . S
H380 C419 0.930 . S
H381 C420 0.931 . S
H382 C422 0.930 . S
H383 C423 0.929 . S
H384 C425 0.931 . S
H385 C426 0.930 . S
H386 C428 0.930 . S
H387 C429 0.932 . S
H388 C431 0.930 . S
H389 C432 0.929 . S
H390 C434 0.931 . S
H391 C435 0.930 . S
H392 C437 0.929 . S
H393 C438 0.931 . S
H394 C440 0.930 . S
H395 C441 0.929 . S
O396 H370 0.856 . S
O396 C442 1.300 . S
O397 C442 1.209 . S
O398 C443 1.199 . S
O399 H371 0.854 . S
O399 C443 1.297 . S
C400 C401 1.404 . S
C400 C405 1.397 . S
C400 C406 1.492 . S
C401 C400 1.404 . S
C401 C402 1.396 . S
C401 C412 1.492 . S
C402 C401 1.396 . S
C402 C403 1.397 . S
C402 C418 1.509 . S
C403 C402 1.397 . S
C403 C404 1.412 . S
C403 C424 1.485 . S
C404 C403 1.412 . S
C404 C405 1.388 . S
C404 C430 1.490 . S
C405 C400 1.397 . S
C405 C404 1.388 . S
C405 C436 1.519 . S
C406 C400 1.492 . S
C406 C407 1.363 . S
C406 C411 1.390 . S
C407 H372 0.930 . S
C407 C406 1.363 . S
C407 C408 1.372 . S
C408 H373 0.930 . S
C408 C407 1.372 . S
C408 C409 1.383 . S
C409 C408 1.383 . S
C409 C410 1.395 . S
C410 H374 0.930 . S
C410 C409 1.395 . S
C410 C411 1.362 . S
C411 H375 0.930 . S
C411 C406 1.390 . S
C411 C410 1.362 . S
C412 C401 1.492 . S
C412 C413 1.377 . S
C412 C417 1.397 . S
C413 H376 0.931 . S
C413 C412 1.377 . S
C413 C414 1.376 . S
C414 H377 0.930 . S
C414 C413 1.376 . S
C414 C415 1.376 . S
C415 C414 1.376 . S
C415 C416 1.378 . S
C415 C442 1.486 . S
C416 H378 0.930 . S
C416 C415 1.378 . S
C416 C417 1.376 . S
C417 H379 0.929 . S
C417 C412 1.397 . S
C417 C416 1.376 . S
C418 C402 1.509 . S
C418 C419 1.391 . S
C418 C423 1.386 . S
C419 H380 0.930 . S
C419 C418 1.391 . S
C419 C420 1.375 . S
C420 H381 0.931 . S
C420 C419 1.375 . S
C420 C421 1.375 . S
C421 C420 1.375 . S
C421 C422 1.361 . S
C422 H382 0.930 . S
C422 C421 1.361 . S
C422 C423 1.399 . S
C423 H383 0.929 . S
C423 C418 1.386 . S
C423 C422 1.399 . S
C424 C403 1.485 . S
C424 C425 1.394 . S
C424 C429 1.360 . S
C425 H384 0.931 . S
C425 C424 1.394 . S
C425 C426 1.372 . S
C426 H385 0.930 . S
C426 C425 1.372 . S
C426 C427 1.397 . S
C427 C426 1.397 . S
C427 C428 1.390 . S
C427 C443 1.476 . S
C428 H386 0.930 . S
C428 C427 1.390 . S
C428 C429 1.366 . S
C429 H387 0.932 . S
C429 C424 1.360 . S
C429 C428 1.366 . S
C430 C404 1.490 . S
C430 C431 1.380 . S
C430 C435 1.386 . S
C431 H388 0.930 . S
C431 C430 1.380 . S
C431 C432 1.381 . S
C432 H389 0.929 . S
C432 C431 1.381 . S
C432 C433 1.371 . S
C433 C432 1.371 . S
C433 C434 1.380 . S
C434 H390 0.931 . S
C434 C433 1.380 . S
C434 C435 1.387 . S
C435 H391 0.930 . S
C435 C430 1.386 . S
C435 C434 1.387 . S
C436 C405 1.519 . S
C436 C437 1.377 . S
C436 C441 1.361 . S
C437 H392 0.929 . S
C437 C436 1.377 . S
C437 C438 1.386 . S
C438 H393 0.931 . S
C438 C437 1.386 . S
C438 C439 1.363 . S
C439 C438 1.363 . S
C439 C440 1.385 . S
C440 H394 0.930 . S
C440 C439 1.385 . S
C440 C441 1.396 . S
C441 H395 0.929 . S
C441 C436 1.361 . S
C441 C440 1.396 . S
C442 O396 1.300 . S
C442 O397 1.209 . S
C442 C415 1.486 . S
C443 O398 1.199 . S
C443 O399 1.297 . S
C443 C427 1.476 . S
H444 O470 0.856 . S
H445 O473 0.854 . S
H446 C481 0.930 . S
H447 C482 0.930 . S
H448 C484 0.930 . S
H449 C485 0.930 . S
H450 C487 0.931 . S
H451 C488 0.930 . S
H452 C490 0.930 . S
H453 C491 0.929 . S
H454 C493 0.930 . S
H455 C494 0.931 . S
H456 C496 0.930 . S
H457 C497 0.929 . S
H458 C499 0.931 . S
H459 C500 0.930 . S
H460 C502 0.930 . S
H461 C503 0.932 . S
H462 C505 0.930 . S
H463 C506 0.929 . S
H464 C508 0.931 . S
H465 C509 0.930 . S
H466 C511 0.929 . S
H467 C512 0.931 . S
H468 C514 0.930 . S
H469 C515 0.929 . S
O470 H444 0.856 . S
O470 C516 1.300 . S
O471 C516 1.209 . S
O472 C517 1.199 . S
O473 H445 0.854 . S
O473 C517 1.297 . S
C474 C475 1.404 . S
C474 C479 1.397 . S
C474 C480 1.492 . S
C475 C474 1.404 . S
C475 C476 1.396 . S
C475 C486 1.492 . S
C476 C475 1.396 . S
C476 C477 1.397 . S
C476 C492 1.509 . S
C477 C476 1.397 . S
C477 C478 1.412 . S
C477 C498 1.485 . S
C478 C477 1.412 . S
C478 C479 1.388 . S
C478 C504 1.490 . S
C479 C474 1.397 . S
C479 C478 1.388 . S
C479 C510 1.519 . S
C480 C474 1.492 . S
C480 C481 1.363 . S
C480 C485 1.390 . S
C481 H446 0.930 . S
C481 C480 1.363 . S
C481 C482 1.372 . S
C482 H447 0.930 . S
C482 C481 1.372 . S
C482 C483 1.383 . S
C483 C482 1.383 . S
C483 C484 1.395 . S
C484 H448 0.930 . S
C484 C483 1.395 . S
C484 C485 1.362 . S
C485 H449 0.930 . S
C485 C480 1.390 . S
C485 C484 1.362 . S
C486 C475 1.492 . S
C486 C487 1.377 . S
C486 C491 1.397 . S
C487 H450 0.931 . S
C487 C486 1.377 . S
C487 C488 1.376 . S
C488 H451 0.930 . S
C488 C487 1.376 . S
C488 C489 1.376 . S
C489 C488 1.376 . S
C489 C490 1.378 . S
C489 C516 1.486 . S
C490 H452 0.930 . S
C490 C489 1.378 . S
C490 C491 1.376 . S
C491 H453 0.929 . S
C491 C486 1.397 . S
C491 C490 1.376 . S
C492 C476 1.509 . S
C492 C493 1.391 . S
C492 C497 1.386 . S
C493 H454 0.930 . S
C493 C492 1.391 . S
C493 C494 1.375 . S
C494 H455 0.931 . S
C494 C493 1.375 . S
C494 C495 1.375 . S
C495 C494 1.375 . S
C495 C496 1.361 . S
C496 H456 0.930 . S
C496 C495 1.361 . S
C496 C497 1.399 . S
C497 H457 0.929 . S
C497 C492 1.386 . S
C497 C496 1.399 . S
C498 C477 1.485 . S
C498 C499 1.394 . S
C498 C503 1.360 . S
C499 H458 0.931 . S
C499 C498 1.394 . S
C499 C500 1.372 . S
C500 H459 0.930 . S
C500 C499 1.372 . S
C500 C501 1.397 . S
C501 C500 1.397 . S
C501 C502 1.390 . S
C501 C517 1.476 . S
C502 H460 0.930 . S
C502 C501 1.390 . S
C502 C503 1.366 . S
C503 H461 0.932 . S
C503 C498 1.360 . S
C503 C502 1.366 . S
C504 C478 1.490 . S
C504 C505 1.380 . S
C504 C509 1.386 . S
C505 H462 0.930 . S
C505 C504 1.380 . S
C505 C506 1.381 . S
C506 H463 0.929 . S
C506 C505 1.381 . S
C506 C507 1.371 . S
C507 C506 1.371 . S
C507 C508 1.380 . S
C508 H464 0.931 . S
C508 C507 1.380 . S
C508 C509 1.387 . S
C509 H465 0.930 . S
C509 C504 1.386 . S
C509 C508 1.387 . S
C510 C479 1.519 . S
C510 C511 1.377 . S
C510 C515 1.361 . S
C511 H466 0.929 . S
C511 C510 1.377 . S
C511 C512 1.386 . S
C512 H467 0.931 . S
C512 C511 1.386 . S
C512 C513 1.363 . S
C513 C512 1.363 . S
C513 C514 1.385 . S
C514 H468 0.930 . S
C514 C513 1.385 . S
C514 C515 1.396 . S
C515 H469 0.929 . S
C515 C510 1.361 . S
C515 C514 1.396 . S
C516 O470 1.300 . S
C516 O471 1.209 . S
C516 C489 1.486 . S
C517 O472 1.199 . S
C517 O473 1.297 . S
C517 C501 1.476 . S
H518 O544 0.856 . S
H519 O547 0.854 . S
H520 C555 0.930 . S
H521 C556 0.930 . S
H522 C558 0.930 . S
H523 C559 0.930 . S
H524 C561 0.931 . S
H525 C562 0.930 . S
H526 C564 0.930 . S
H527 C565 0.929 . S
H528 C567 0.930 . S
H529 C568 0.931 . S
H530 C570 0.930 . S
H531 C571 0.929 . S
H532 C573 0.931 . S
H533 C574 0.930 . S
H534 C576 0.930 . S
H535 C577 0.932 . S
H536 C579 0.930 . S
H537 C580 0.929 . S
H538 C582 0.931 . S
H539 C583 0.930 . S
H540 C585 0.929 . S
H541 C586 0.931 . S
H542 C588 0.930 . S
H543 C589 0.929 . S
O544 H518 0.856 . S
O544 C590 1.300 . S
O545 C590 1.209 . S
O546 C591 1.199 . S
O547 H519 0.854 . S
O547 C591 1.297 . S
C548 C549 1.404 . S
C548 C553 1.397 . S
C548 C554 1.492 . S
C549 C548 1.404 . S
C549 C550 1.396 . S
C549 C560 1.492 . S
C550 C549 1.396 . S
C550 C551 1.397 . S
C550 C566 1.509 . S
C551 C550 1.397 . S
C551 C552 1.412 . S
C551 C572 1.485 . S
C552 C551 1.412 . S
C552 C553 1.388 . S
C552 C578 1.490 . S
C553 C548 1.397 . S
C553 C552 1.388 . S
C553 C584 1.519 . S
C554 C548 1.492 . S
C554 C555 1.363 . S
C554 C559 1.390 . S
C555 H520 0.930 . S
C555 C554 1.363 . S
C555 C556 1.372 . S
C556 H521 0.930 . S
C556 C555 1.372 . S
C556 C557 1.383 . S
C557 C556 1.383 . S
C557 C558 1.395 . S
C558 H522 0.930 . S
C558 C557 1.395 . S
C558 C559 1.362 . S
C559 H523 0.930 . S
C559 C554 1.390 . S
C559 C558 1.362 . S
C560 C549 1.492 . S
C560 C561 1.377 . S
C560 C565 1.397 . S
C561 H524 0.931 . S
C561 C560 1.377 . S
C561 C562 1.376 . S
C562 H525 0.930 . S
C562 C561 1.376 . S
C562 C563 1.376 . S
C563 C562 1.376 . S
C563 C564 1.378 . S
C563 C590 1.486 . S
C564 H526 0.930 . S
C564 C563 1.378 . S
C564 C565 1.376 . S
C565 H527 0.929 . S
C565 C560 1.397 . S
C565 C564 1.376 . S
C566 C550 1.509 . S
C566 C567 1.391 . S
C566 C571 1.386 . S
C567 H528 0.930 . S
C567 C566 1.391 . S
C567 C568 1.375 . S
C568 H529 0.931 . S
C568 C567 1.375 . S
C568 C569 1.375 . S
C569 C568 1.375 . S
C569 C570 1.361 . S
C570 H530 0.930 . S
C570 C569 1.361 . S
C570 C571 1.399 . S
C571 H531 0.929 . S
C571 C566 1.386 . S
C571 C570 1.399 . S
C572 C551 1.485 . S
C572 C573 1.394 . S
C572 C577 1.360 . S
C573 H532 0.931 . S
C573 C572 1.394 . S
C573 C574 1.372 . S
C574 H533 0.930 . S
C574 C573 1.372 . S
C574 C575 1.397 . S
C575 C574 1.397 . S
C575 C576 1.390 . S
C575 C591 1.476 . S
C576 H534 0.930 . S
C576 C575 1.390 . S
C576 C577 1.366 . S
C577 H535 0.932 . S
C577 C572 1.360 . S
C577 C576 1.366 . S
C578 C552 1.490 . S
C578 C579 1.380 . S
C578 C583 1.386 . S
C579 H536 0.930 . S
C579 C578 1.380 . S
C579 C580 1.381 . S
C580 H537 0.929 . S
C580 C579 1.381 . S
C580 C581 1.371 . S
C581 C580 1.371 . S
C581 C582 1.380 . S
C582 H538 0.931 . S
C582 C581 1.380 . S
C582 C583 1.387 . S
C583 H539 0.930 . S
C583 C578 1.386 . S
C583 C582 1.387 . S
C584 C553 1.519 . S
C584 C585 1.377 . S
C584 C589 1.361 . S
C585 H540 0.929 . S
C585 C584 1.377 . S
C585 C586 1.386 . S
C586 H541 0.931 . S
C586 C585 1.386 . S
C586 C587 1.363 . S
C587 C586 1.363 . S
C587 C588 1.385 . S
C588 H542 0.930 . S
C588 C587 1.385 . S
C588 C589 1.396 . S
C589 H543 0.929 . S
C589 C584 1.361 . S
C589 C588 1.396 . S
C590 O544 1.300 . S
C590 O545 1.209 . S
C590 C563 1.486 . S
C591 O546 1.199 . S
C591 O547 1.297 . S
C591 C575 1.476 . S
C592 C593 1.443 . S
C592 N596 1.376 . S
C592 C630 1.389 . S
C593 C592 1.443 . S
C593 C594 1.340 . S
C593 H633 0.951 . S
C594 C593 1.340 . S
C594 C595 1.439 . S
C594 H634 0.950 . S
C595 C594 1.439 . S
C595 N596 1.374 . S
C595 C629 1.395 1_455 S
N596 C592 1.376 . S
N596 C595 1.374 . S
N596 Co597 2.029 . S
Co597 N596 2.029 . S
Co597 N598 1.962 1_455 S
Co597 N603 1.988 1_455 S
Co597 N608 2.028 . S
Co597 N613 2.251 1_455 S
Co597 N619 2.315 . S
N598 Co597 1.962 1_655 S
N598 C599 1.376 . S
N598 C602 1.383 . S
C599 N598 1.376 . S
C599 C600 1.446 . S
C599 C629 1.391 . S
C600 C599 1.446 . S
C600 C601 1.339 . S
C600 H635 0.949 . S
C601 C600 1.339 . S
C601 C602 1.439 . S
C601 H636 0.950 . S
C602 N598 1.383 . S
C602 C601 1.439 . S
C602 C631 1.392 . S
N603 Co597 1.988 1_655 S
N603 C604 1.376 . S
N603 C607 1.374 . S
C604 N603 1.376 . S
C604 C605 1.443 . S
C604 C631 1.389 . S
C605 C604 1.443 . S
C605 C606 1.340 . S
C605 H637 0.951 . S
C606 C605 1.340 . S
C606 C607 1.439 . S
C606 H638 0.950 . S
C607 N603 1.374 . S
C607 C606 1.439 . S
C607 C632 1.395 1_655 S
N608 Co597 2.028 . S
N608 C609 1.376 . S
N608 C612 1.383 . S
C609 N608 1.376 . S
C609 C610 1.446 . S
C609 C632 1.391 . S
C610 C609 1.446 . S
C610 C611 1.339 . S
C610 H639 0.949 . S
C611 C610 1.339 . S
C611 C612 1.439 . S
C611 H640 0.950 . S
C612 N608 1.383 . S
C612 C611 1.439 . S
C612 C630 1.392 . S
N613 Co597 2.251 1_655 S
N613 C616 1.332 . S
N613 C618 1.332 . S
C614 C615 1.386 . S
C614 C617 1.388 . S
C615 C614 1.386 . S
C615 C616 1.382 . S
C615 H641 0.950 . S
C616 N613 1.332 . S
C616 C615 1.382 . S
C616 H627 0.952 . S
C617 C614 1.388 . S
C617 C618 1.382 . S
C617 H642 0.950 . S
C618 N613 1.332 . S
C618 C617 1.382 . S
C618 H628 0.948 . S
N619 Co597 2.315 . S
N619 C623 1.332 . S
N619 C624 1.332 . S
C620 C621 1.388 . S
C620 C624 1.382 . S
C620 H643 0.950 . S
C621 C620 1.388 . S
C621 C622 1.386 . S
C622 C621 1.386 . S
C622 C623 1.382 . S
C622 H644 0.950 . S
C623 N619 1.332 . S
C623 C622 1.382 . S
C623 H625 0.952 . S
C624 N619 1.332 . S
C624 C620 1.382 . S
C624 H626 0.948 . S
H625 C623 0.952 . S
H626 C624 0.948 . S
H627 C616 0.952 . S
H628 C618 0.948 . S
C629 C595 1.395 1_655 S
C629 C599 1.391 . S
C630 C592 1.389 . S
C630 C612 1.392 . S
C631 C602 1.392 . S
C631 C604 1.389 . S
C632 C607 1.395 1_455 S
C632 C609 1.391 . S
H633 C593 0.951 . S
H634 C594 0.950 . S
H635 C600 0.949 . S
H636 C601 0.950 . S
H637 C605 0.951 . S
H638 C606 0.950 . S
H639 C610 0.949 . S
H640 C611 0.950 . S
H641 C615 0.950 . S
H642 C617 0.950 . S
H643 C620 0.950 . S
H644 C622 0.950 . S
C645 C646 1.443 . S
C645 N649 1.376 . S
C645 C683 1.389 . S
C646 C645 1.443 . S
C646 C647 1.340 . S
C646 H686 0.951 . S
C647 C646 1.340 . S
C647 C648 1.439 . S
C647 H687 0.950 . S
C648 C647 1.439 . S
C648 N649 1.374 . S
C648 C682 1.395 . S
N649 C645 1.376 . S
N649 C648 1.374 . S
N649 Co650 2.008 . S
Co650 N649 2.008 . S
Co650 N651 1.995 1_545 S
Co650 N656 2.008 1_545 S
Co650 N661 1.995 . S
Co650 N666 2.282 1_545 S
Co650 N672 2.282 . S
N651 Co650 1.995 1_565 S
N651 C652 1.376 . S
N651 C655 1.383 . S
C652 N651 1.376 . S
C652 C653 1.446 . S
C652 C682 1.391 1_565 S
C653 C652 1.446 . S
C653 C654 1.339 . S
C653 H688 0.949 . S
C654 C653 1.339 . S
C654 C655 1.439 . S
C654 H689 0.950 . S
C655 N651 1.383 . S
C655 C654 1.439 . S
C655 C684 1.392 . S
N656 Co650 2.008 1_565 S
N656 C657 1.376 . S
N656 C660 1.374 . S
C657 N656 1.376 . S
C657 C658 1.443 . S
C657 C684 1.389 . S
C658 C657 1.443 . S
C658 C659 1.340 . S
C658 H690 0.951 . S
C659 C658 1.340 . S
C659 C660 1.439 . S
C659 H691 0.950 . S
C660 N656 1.374 . S
C660 C659 1.439 . S
C660 C685 1.395 1_565 S
N661 Co650 1.995 . S
N661 C662 1.376 . S
N661 C665 1.383 . S
C662 N661 1.376 . S
C662 C663 1.446 . S
C662 C685 1.391 . S
C663 C662 1.446 . S
C663 C664 1.339 . S
C663 H692 0.949 . S
C664 C663 1.339 . S
C664 C665 1.439 . S
C664 H693 0.950 . S
C665 N661 1.383 . S
C665 C664 1.439 . S
C665 C683 1.392 . S
N666 Co650 2.282 1_565 S
N666 C669 1.332 . S
N666 C671 1.332 . S
C667 C668 1.386 . S
C667 C670 1.388 . S
C668 C667 1.386 . S
C668 C669 1.382 . S
C668 H694 0.950 . S
C669 N666 1.332 . S
C669 C668 1.382 . S
C669 H680 0.952 . S
C670 C667 1.388 . S
C670 C671 1.382 . S
C670 H695 0.950 . S
C671 N666 1.332 . S
C671 C670 1.382 . S
C671 H681 0.948 . S
N672 Co650 2.282 . S
N672 C676 1.332 . S
N672 C677 1.332 . S
C673 C674 1.388 . S
C673 C677 1.382 . S
C673 H696 0.950 . S
C674 C673 1.388 . S
C674 C675 1.386 . S
C675 C674 1.386 . S
C675 C676 1.382 . S
C675 H697 0.950 . S
C676 N672 1.332 . S
C676 C675 1.382 . S
C676 H678 0.952 . S
C677 N672 1.332 . S
C677 C673 1.382 . S
C677 H679 0.948 . S
H678 C676 0.952 . S
H679 C677 0.948 . S
H680 C669 0.952 . S
H681 C671 0.948 . S
C682 C648 1.395 . S
C682 C652 1.391 1_545 S
C683 C645 1.389 . S
C683 C665 1.392 . S
C684 C655 1.392 . S
C684 C657 1.389 . S
C685 C660 1.395 1_545 S
C685 C662 1.391 . S
H686 C646 0.951 . S
H687 C647 0.950 . S
H688 C653 0.949 . S
H689 C654 0.950 . S
H690 C658 0.951 . S
H691 C659 0.950 . S
H692 C663 0.949 . S
H693 C664 0.950 . S
H694 C668 0.950 . S
H695 C670 0.950 . S
H696 C673 0.950 . S
H697 C675 0.950 . S
C698 C699 1.443 . S
C698 N702 1.376 . S
C698 C736 1.389 . S
C699 C698 1.443 . S
C699 C700 1.340 . S
C699 H739 0.951 . S
C700 C699 1.340 . S
C700 C701 1.439 . S
C700 H740 0.950 . S
C701 C700 1.439 . S
C701 N702 1.374 . S
C701 C735 1.395 . S
N702 C698 1.376 . S
N702 C701 1.374 . S
N702 Co703 2.008 . S
Co703 N702 2.008 . S
Co703 N704 1.995 . S
Co703 N709 2.008 . S
Co703 N714 1.995 . S
Co703 N719 2.282 . S
Co703 N725 2.282 . S
N704 Co703 1.995 . S
N704 C705 1.376 . S
N704 C708 1.383 1_455 S
C705 N704 1.376 . S
C705 C706 1.446 1_455 S
C705 C735 1.391 . S
C706 C705 1.446 1_655 S
C706 C707 1.339 . S
C706 H741 0.949 . S
C707 C706 1.339 . S
C707 C708 1.439 . S
C707 H742 0.950 . S
C708 N704 1.383 1_655 S
C708 C707 1.439 . S
C708 C737 1.392 . S
N709 Co703 2.008 . S
N709 C710 1.376 1_455 S
N709 C713 1.374 . S
C710 N709 1.376 1_655 S
C710 C711 1.443 . S
C710 C737 1.389 . S
C711 C710 1.443 . S
C711 C712 1.340 1_655 S
C711 H743 0.951 . S
C712 C711 1.340 1_455 S
C712 C713 1.439 . S
C712 H744 0.950 . S
C713 N709 1.374 . S
C713 C712 1.439 . S
C713 C738 1.395 . S
N714 Co703 1.995 . S
N714 C715 1.376 . S
N714 C718 1.383 . S
C715 N714 1.376 . S
C715 C716 1.446 . S
C715 C738 1.391 . S
C716 C715 1.446 . S
C716 C717 1.339 . S
C716 H745 0.949 . S
C717 C716 1.339 . S
C717 C718 1.439 . S
C717 H746 0.950 . S
C718 N714 1.383 . S
C718 C717 1.439 . S
C718 C736 1.392 . S
N719 Co703 2.282 . S
N719 C722 1.332 . S
N719 C724 1.332 1_455 S
C720 C721 1.386 . S
C720 C723 1.388 . S
C721 C720 1.386 . S
C721 C722 1.382 1_655 S
C721 H747 0.950 . S
C722 N719 1.332 . S
C722 C721 1.382 1_455 S
C722 H733 0.952 . S
C723 C720 1.388 . S
C723 C724 1.382 . S
C723 H748 0.950 . S
C724 N719 1.332 1_655 S
C724 C723 1.382 . S
C724 H734 0.948 . S
N725 Co703 2.282 . S
N725 C729 1.332 . S
N725 C730 1.332 . S
C726 C727 1.388 . S
C726 C730 1.382 . S
C726 H749 0.950 . S
C727 C726 1.388 . S
C727 C728 1.386 . S
C728 C727 1.386 . S
C728 C729 1.382 . S
C728 H750 0.950 . S
C729 N725 1.332 . S
C729 C728 1.382 . S
C729 H731 0.952 . S
C730 N725 1.332 . S
C730 C726 1.382 . S
C730 H732 0.948 . S
H731 C729 0.952 . S
H732 C730 0.948 . S
H733 C722 0.952 . S
H734 C724 0.948 . S
C735 C701 1.395 . S
C735 C705 1.391 . S
C736 C698 1.389 . S
C736 C718 1.392 . S
C737 C708 1.392 . S
C737 C710 1.389 . S
C738 C713 1.395 . S
C738 C715 1.391 . S
H739 C699 0.951 . S
H740 C700 0.950 . S
H741 C706 0.949 . S
H742 C707 0.950 . S
H743 C711 0.951 . S
H744 C712 0.950 . S
H745 C716 0.949 . S
H746 C717 0.950 . S
H747 C721 0.950 . S
H748 C723 0.950 . S
H749 C726 0.950 . S
H750 C728 0.950 . S
C751 C752 1.443 . S
C751 N755 1.376 . S
C751 C789 1.389 . S
C752 C751 1.443 . S
C752 C753 1.340 . S
C752 H792 0.951 . S
C753 C752 1.340 . S
C753 C754 1.439 . S
C753 H793 0.950 . S
C754 C753 1.439 . S
C754 N755 1.374 . S
C754 C788 1.395 . S
N755 C751 1.376 . S
N755 C754 1.374 . S
N755 Co756 2.008 . S
Co756 N755 2.008 . S
Co756 N757 1.995 . S
Co756 N762 2.008 . S
Co756 N767 1.995 . S
Co756 N772 2.282 . S
Co756 N778 2.282 . S
N757 Co756 1.995 . S
N757 C758 1.376 . S
N757 C761 1.383 . S
C758 N757 1.376 . S
C758 C759 1.446 . S
C758 C788 1.391 . S
C759 C758 1.446 . S
C759 C760 1.339 . S
C759 H794 0.949 . S
C760 C759 1.339 . S
C760 C761 1.439 . S
C760 H795 0.950 . S
C761 N757 1.383 . S
C761 C760 1.439 . S
C761 C790 1.392 . S
N762 Co756 2.008 . S
N762 C763 1.376 . S
N762 C766 1.374 . S
C763 N762 1.376 . S
C763 C764 1.443 . S
C763 C790 1.389 . S
C764 C763 1.443 . S
C764 C765 1.340 . S
C764 H796 0.951 . S
C765 C764 1.340 . S
C765 C766 1.439 . S
C765 H797 0.950 . S
C766 N762 1.374 . S
C766 C765 1.439 . S
C766 C791 1.395 . S
N767 Co756 1.995 . S
N767 C768 1.376 . S
N767 C771 1.383 . S
C768 N767 1.376 . S
C768 C769 1.446 . S
C768 C791 1.391 . S
C769 C768 1.446 . S
C769 C770 1.339 . S
C769 H798 0.949 . S
C770 C769 1.339 . S
C770 C771 1.439 . S
C770 H799 0.950 . S
C771 N767 1.383 . S
C771 C770 1.439 . S
C771 C789 1.392 . S
N772 Co756 2.282 . S
N772 C775 1.332 . S
N772 C777 1.332 . S
C773 C774 1.386 . S
C773 C776 1.388 . S
C774 C773 1.386 . S
C774 C775 1.382 . S
C774 H800 0.950 . S
C775 N772 1.332 . S
C775 C774 1.382 . S
C775 H786 0.952 . S
C776 C773 1.388 . S
C776 C777 1.382 . S
C776 H801 0.950 . S
C777 N772 1.332 . S
C777 C776 1.382 . S
C777 H787 0.948 . S
N778 Co756 2.282 . S
N778 C782 1.332 . S
N778 C783 1.332 . S
C779 C780 1.388 . S
C779 C783 1.382 . S
C779 H802 0.950 . S
C780 C779 1.388 . S
C780 C781 1.386 . S
C781 C780 1.386 . S
C781 C782 1.382 . S
C781 H803 0.950 . S
C782 N778 1.332 . S
C782 C781 1.382 . S
C782 H784 0.952 . S
C783 N778 1.332 . S
C783 C779 1.382 . S
C783 H785 0.948 . S
H784 C782 0.952 . S
H785 C783 0.948 . S
H786 C775 0.952 . S
H787 C777 0.948 . S
C788 C754 1.395 . S
C788 C758 1.391 . S
C789 C751 1.389 . S
C789 C771 1.392 . S
C790 C761 1.392 . S
C790 C763 1.389 . S
C791 C766 1.395 . S
C791 C768 1.391 . S
H792 C752 0.951 . S
H793 C753 0.950 . S
H794 C759 0.949 . S
H795 C760 0.950 . S
H796 C764 0.951 . S
H797 C765 0.950 . S
H798 C769 0.949 . S
H799 C770 0.950 . S
H800 C774 0.950 . S
H801 C776 0.950 . S
H802 C779 0.950 . S
H803 C781 0.950 . S
C804 C805 1.443 . S
C804 N808 1.376 . S
C804 C842 1.389 . S
C805 C804 1.443 . S
C805 C806 1.340 . S
C805 H845 0.951 . S
C806 C805 1.340 . S
C806 C807 1.439 . S
C806 H846 0.950 . S
C807 C806 1.439 . S
C807 N808 1.374 . S
C807 C841 1.395 . S
N808 C804 1.376 . S
N808 C807 1.374 . S
N808 Co809 2.008 . S
Co809 N808 2.008 . S
Co809 N810 1.995 1_554 S
Co809 N815 2.008 1_554 S
Co809 N820 1.995 . S
Co809 N825 2.282 . S
Co809 N831 2.282 1_554 S
N810 Co809 1.995 1_556 S
N810 C811 1.376 . S
N810 C814 1.383 . S
C811 N810 1.376 . S
C811 C812 1.446 . S
C811 C841 1.391 1_556 S
C812 C811 1.446 . S
C812 C813 1.339 . S
C812 H847 0.949 . S
C813 C812 1.339 . S
C813 C814 1.439 . S
C813 H848 0.950 . S
C814 N810 1.383 . S
C814 C813 1.439 . S
C814 C843 1.392 . S
N815 Co809 2.008 1_556 S
N815 C816 1.376 . S
N815 C819 1.374 . S
C816 N815 1.376 . S
C816 C817 1.443 . S
C816 C843 1.389 . S
C817 C816 1.443 . S
C817 C818 1.340 . S
C817 H849 0.951 . S
C818 C817 1.340 . S
C818 C819 1.439 . S
C818 H850 0.950 . S
C819 N815 1.374 . S
C819 C818 1.439 . S
C819 C844 1.395 1_556 S
N820 Co809 1.995 . S
N820 C821 1.376 . S
N820 C824 1.383 . S
C821 N820 1.376 . S
C821 C822 1.446 . S
C821 C844 1.391 . S
C822 C821 1.446 . S
C822 C823 1.339 . S
C822 H851 0.949 . S
C823 C822 1.339 . S
C823 C824 1.439 . S
C823 H852 0.950 . S
C824 N820 1.383 . S
C824 C823 1.439 . S
C824 C842 1.392 . S
N825 Co809 2.282 . S
N825 C828 1.332 . S
N825 C830 1.332 . S
C826 C827 1.386 . S
C826 C829 1.388 . S
C827 C826 1.386 . S
C827 C828 1.382 . S
C827 H853 0.950 . S
C828 N825 1.332 . S
C828 C827 1.382 . S
C828 H839 0.952 . S
C829 C826 1.388 . S
C829 C830 1.382 . S
C829 H854 0.950 . S
C830 N825 1.332 . S
C830 C829 1.382 . S
C830 H840 0.948 . S
N831 Co809 2.282 1_556 S
N831 C835 1.332 . S
N831 C836 1.332 . S
C832 C833 1.388 . S
C832 C836 1.382 . S
C832 H855 0.950 . S
C833 C832 1.388 . S
C833 C834 1.386 . S
C834 C833 1.386 . S
C834 C835 1.382 . S
C834 H856 0.950 . S
C835 N831 1.332 . S
C835 C834 1.382 . S
C835 H837 0.952 . S
C836 N831 1.332 . S
C836 C832 1.382 . S
C836 H838 0.948 . S
H837 C835 0.952 . S
H838 C836 0.948 . S
H839 C828 0.952 . S
H840 C830 0.948 . S
C841 C807 1.395 . S
C841 C811 1.391 1_554 S
C842 C804 1.389 . S
C842 C824 1.392 . S
C843 C814 1.392 . S
C843 C816 1.389 . S
C844 C819 1.395 1_554 S
C844 C821 1.391 . S
H845 C805 0.951 . S
H846 C806 0.950 . S
H847 C812 0.949 . S
H848 C813 0.950 . S
H849 C817 0.951 . S
H850 C818 0.950 . S
H851 C822 0.949 . S
H852 C823 0.950 . S
H853 C827 0.950 . S
H854 C829 0.950 . S
H855 C832 0.950 . S
H856 C834 0.950 . S
C857 C858 1.443 . S
C857 N861 1.376 . S
C857 C895 1.389 . S
C858 C857 1.443 . S
C858 C859 1.340 . S
C858 H898 0.951 . S
C859 C858 1.340 . S
C859 C860 1.439 . S
C859 H899 0.950 . S
C860 C859 1.439 . S
C860 N861 1.374 . S
C860 C894 1.395 1_554 S
N861 C857 1.376 . S
N861 C860 1.374 . S
N861 Co862 2.008 . S
Co862 N861 2.008 . S
Co862 N863 1.995 1_554 S
Co862 N868 2.008 1_554 S
Co862 N873 1.995 . S
Co862 N878 2.282 . S
Co862 N884 2.282 1_554 S
N863 Co862 1.995 1_556 S
N863 C864 1.376 . S
N863 C867 1.383 . S
C864 N863 1.376 . S
C864 C865 1.446 . S
C864 C894 1.391 . S
C865 C864 1.446 . S
C865 C866 1.339 . S
C865 H900 0.949 . S
C866 C865 1.339 . S
C866 C867 1.439 . S
C866 H901 0.950 . S
C867 N863 1.383 . S
C867 C866 1.439 . S
C867 C896 1.392 . S
N868 Co862 2.008 1_556 S
N868 C869 1.376 . S
N868 C872 1.374 1_556 S
C869 N868 1.376 . S
C869 C870 1.443 . S
C869 C896 1.389 . S
C870 C869 1.443 . S
C870 C871 1.340 . S
C870 H902 0.951 . S
C871 C870 1.340 . S
C871 C872 1.439 1_556 S
C871 H903 0.950 1_556 S
C872 N868 1.374 1_554 S
C872 C871 1.439 1_554 S
C872 C897 1.395 . S
N873 Co862 1.995 . S
N873 C874 1.376 . S
N873 C877 1.383 . S
C874 N873 1.376 . S
C874 C875 1.446 . S
C874 C897 1.391 . S
C875 C874 1.446 . S
C875 C876 1.339 . S
C875 H904 0.949 . S
C876 C875 1.339 . S
C876 C877 1.439 . S
C876 H905 0.950 . S
C877 N873 1.383 . S
C877 C876 1.439 . S
C877 C895 1.392 . S
N878 Co862 2.282 . S
N878 C881 1.332 . S
N878 C883 1.332 . S
C879 C880 1.386 . S
C879 C882 1.388 . S
C880 C879 1.386 . S
C880 C881 1.382 . S
C880 H906 0.950 . S
C881 N878 1.332 . S
C881 C880 1.382 . S
C881 H892 0.952 . S
C882 C879 1.388 . S
C882 C883 1.382 . S
C882 H907 0.950 . S
C883 N878 1.332 . S
C883 C882 1.382 . S
C883 H893 0.948 . S
N884 Co862 2.282 1_556 S
N884 C888 1.332 . S
N884 C889 1.332 . S
C885 C886 1.388 . S
C885 C889 1.382 . S
C885 H908 0.950 . S
C886 C885 1.388 . S
C886 C887 1.386 . S
C887 C886 1.386 . S
C887 C888 1.382 . S
C887 H909 0.950 . S
C888 N884 1.332 . S
C888 C887 1.382 . S
C888 H890 0.952 . S
C889 N884 1.332 . S
C889 C885 1.382 . S
C889 H891 0.948 . S
H890 C888 0.952 . S
H891 C889 0.948 . S
H892 C881 0.952 . S
H893 C883 0.948 . S
C894 C860 1.395 1_556 S
C894 C864 1.391 . S
C895 C857 1.389 . S
C895 C877 1.392 . S
C896 C867 1.392 . S
C896 C869 1.389 . S
C897 C872 1.395 . S
C897 C874 1.391 . S
H898 C858 0.951 . S
H899 C859 0.950 . S
H900 C865 0.949 . S
H901 C866 0.950 . S
H902 C870 0.951 . S
H903 C871 0.950 1_554 S
H904 C875 0.949 . S
H905 C876 0.950 . S
H906 C880 0.950 . S
H907 C882 0.950 . S
H908 C885 0.950 . S
H909 C887 0.950 . S
C910 C911 1.443 . S
C910 N914 1.376 . S
C910 C948 1.389 1_554 S
C911 C910 1.443 . S
C911 C912 1.340 . S
C911 H951 0.951 1_554 S
C912 C911 1.340 . S
C912 C913 1.439 . S
C912 H952 0.950 . S
C913 C912 1.439 . S
C913 N914 1.374 . S
C913 C947 1.395 . S
N914 C910 1.376 . S
N914 C913 1.374 . S
N914 Co915 2.008 . S
Co915 N914 2.008 . S
Co915 N916 1.995 . S
Co915 N921 2.008 . S
Co915 N926 1.995 . S
Co915 N931 2.282 . S
Co915 N937 2.282 . S
N916 Co915 1.995 . S
N916 C917 1.376 . S
N916 C920 1.383 . S
C917 N916 1.376 . S
C917 C918 1.446 . S
C917 C947 1.391 . S
C918 C917 1.446 . S
C918 C919 1.339 . S
C918 H953 0.949 . S
C919 C918 1.339 . S
C919 C920 1.439 . S
C919 H954 0.950 . S
C920 N916 1.383 . S
C920 C919 1.439 . S
C920 C949 1.392 . S
N921 Co915 2.008 . S
N921 C922 1.376 . S
N921 C925 1.374 . S
C922 N921 1.376 . S
C922 C923 1.443 . S
C922 C949 1.389 . S
C923 C922 1.443 . S
C923 C924 1.340 . S
C923 H955 0.951 . S
C924 C923 1.340 . S
C924 C925 1.439 . S
C924 H956 0.950 . S
C925 N921 1.374 . S
C925 C924 1.439 . S
C925 C950 1.395 . S
N926 Co915 1.995 . S
N926 C927 1.376 . S
N926 C930 1.383 1_554 S
C927 N926 1.376 . S
C927 C928 1.446 1_554 S
C927 C950 1.391 . S
C928 C927 1.446 1_556 S
C928 C929 1.339 . S
C928 H957 0.949 . S
C929 C928 1.339 . S
C929 C930 1.439 . S
C929 H958 0.950 . S
C930 N926 1.383 1_556 S
C930 C929 1.439 . S
C930 C948 1.392 . S
N931 Co915 2.282 . S
N931 C934 1.332 . S
N931 C936 1.332 . S
C932 C933 1.386 . S
C932 C935 1.388 1_556 S
C933 C932 1.386 . S
C933 C934 1.382 1_556 S
C933 H959 0.950 . S
C934 N931 1.332 . S
C934 C933 1.382 1_554 S
C934 H945 0.952 1_554 S
C935 C932 1.388 1_554 S
C935 C936 1.382 . S
C935 H960 0.950 . S
C936 N931 1.332 . S
C936 C935 1.382 . S
C936 H946 0.948 . S
N937 Co915 2.282 . S
N937 C941 1.332 . S
N937 C942 1.332 . S
C938 C939 1.388 . S
C938 C942 1.382 . S
C938 H961 0.950 . S
C939 C938 1.388 . S
C939 C940 1.386 . S
C940 C939 1.386 . S
C940 C941 1.382 . S
C940 H962 0.950 . S
C941 N937 1.332 . S
C941 C940 1.382 . S
C941 H943 0.952 . S
C942 N937 1.332 . S
C942 C938 1.382 . S
C942 H944 0.948 . S
H943 C941 0.952 . S
H944 C942 0.948 . S
H945 C934 0.952 1_556 S
H946 C936 0.948 . S
C947 C913 1.395 . S
C947 C917 1.391 . S
C948 C910 1.389 1_556 S
C948 C930 1.392 . S
C949 C920 1.392 . S
C949 C922 1.389 . S
C950 C925 1.395 . S
C950 C927 1.391 . S
H951 C911 0.951 1_556 S
H952 C912 0.950 . S
H953 C918 0.949 . S
H954 C919 0.950 . S
H955 C923 0.951 . S
H956 C924 0.950 . S
H957 C928 0.949 . S
H958 C929 0.950 . S
H959 C933 0.950 . S
H960 C935 0.950 . S
H961 C938 0.950 . S
H962 C940 0.950 . S
C963 C964 1.443 . S
C963 N967 1.376 . S
C963 C1001 1.389 . S
C964 C963 1.443 . S
C964 C965 1.340 . S
C964 H1004 0.951 . S
C965 C964 1.340 . S
C965 C966 1.439 . S
C965 H1005 0.950 . S
C966 C965 1.439 . S
C966 N967 1.374 . S
C966 C1000 1.395 . S
N967 C963 1.376 . S
N967 C966 1.374 . S
N967 Co968 2.008 . S
Co968 N967 2.008 . S
Co968 N969 1.995 . S
Co968 N974 2.008 . S
Co968 N979 1.995 . S
Co968 N984 2.282 . S
Co968 N990 2.282 . S
N969 Co968 1.995 . S
N969 C970 1.376 . S
N969 C973 1.383 . S
C970 N969 1.376 . S
C970 C971 1.446 . S
C970 C1000 1.391 . S
C971 C970 1.446 . S
C971 C972 1.339 . S
C971 H1006 0.949 . S
C972 C971 1.339 . S
C972 C973 1.439 . S
C972 H1007 0.950 . S
C973 N969 1.383 . S
C973 C972 1.439 . S
C973 C1002 1.392 . S
N974 Co968 2.008 . S
N974 C975 1.376 . S
N974 C978 1.374 . S
C975 N974 1.376 . S
C975 C976 1.443 . S
C975 C1002 1.389 . S
C976 C975 1.443 . S
C976 C977 1.340 . S
C976 H1008 0.951 . S
C977 C976 1.340 . S
C977 C978 1.439 . S
C977 H1009 0.950 . S
C978 N974 1.374 . S
C978 C977 1.439 . S
C978 C1003 1.395 . S
N979 Co968 1.995 . S
N979 C980 1.376 . S
N979 C983 1.383 . S
C980 N979 1.376 . S
C980 C981 1.446 . S
C980 C1003 1.391 . S
C981 C980 1.446 . S
C981 C982 1.339 . S
C981 H1010 0.949 . S
C982 C981 1.339 . S
C982 C983 1.439 . S
C982 H1011 0.950 . S
C983 N979 1.383 . S
C983 C982 1.439 . S
C983 C1001 1.392 . S
N984 Co968 2.282 . S
N984 C987 1.332 . S
N984 C989 1.332 . S
C985 C986 1.386 . S
C985 C988 1.388 . S
C986 C985 1.386 . S
C986 C987 1.382 . S
C986 H1012 0.950 . S
C987 N984 1.332 . S
C987 C986 1.382 . S
C987 H998 0.952 . S
C988 C985 1.388 . S
C988 C989 1.382 . S
C988 H1013 0.950 . S
C989 N984 1.332 . S
C989 C988 1.382 . S
C989 H999 0.948 . S
N990 Co968 2.282 . S
N990 C994 1.332 . S
N990 C995 1.332 . S
C991 C992 1.388 . S
C991 C995 1.382 . S
C991 H1014 0.950 . S
C992 C991 1.388 . S
C992 C993 1.386 . S
C993 C992 1.386 . S
C993 C994 1.382 . S
C993 H1015 0.950 . S
C994 N990 1.332 . S
C994 C993 1.382 . S
C994 H996 0.952 . S
C995 N990 1.332 . S
C995 C991 1.382 . S
C995 H997 0.948 . S
H996 C994 0.952 . S
H997 C995 0.948 . S
H998 C987 0.952 . S
H999 C989 0.948 . S
C1000 C966 1.395 . S
C1000 C970 1.391 . S
C1001 C963 1.389 . S
C1001 C983 1.392 . S
C1002 C973 1.392 . S
C1002 C975 1.389 . S
C1003 C978 1.395 . S
C1003 C980 1.391 . S
H1004 C964 0.951 . S
H1005 C965 0.950 . S
H1006 C971 0.949 . S
H1007 C972 0.950 . S
H1008 C976 0.951 . S
H1009 C977 0.950 . S
H1010 C981 0.949 . S
H1011 C982 0.950 . S
H1012 C986 0.950 . S
H1013 C988 0.950 . S
H1014 C991 0.950 . S
H1015 C993 0.950 . S
H1016 C1022 0.930 . S
H1017 C1026 0.930 . S
H1018 C1031 0.929 . S
H1019 C1029 0.929 . S
H1020 C1024 0.929 . S
H1021 C1030 0.929 . S
C1022 H1016 0.930 . S
C1022 C1023 1.367 . S
C1022 C1030 1.378 . S
C1023 C1022 1.367 . S
C1023 C1031 1.433 . S
C1024 H1020 0.929 . S
C1024 C1026 1.378 . S
C1024 C1028 1.350 . S
C1025 C1028 1.463 . S
C1025 C1030 1.350 . S
C1025 N1033 1.427 . S
C1026 H1017 0.930 . S
C1026 C1024 1.378 . S
C1026 C1027 1.367 . S
C1027 C1026 1.367 . S
C1027 C1029 1.433 . S
C1028 C1024 1.350 . S
C1028 C1025 1.463 . S
C1028 N1032 1.427 . S
C1029 H1019 0.929 . S
C1029 C1027 1.433 . S
C1029 N1032 1.384 . S
C1030 H1021 0.929 . S
C1030 C1022 1.378 . S
C1030 C1025 1.350 . S
C1031 H1018 0.929 . S
C1031 C1023 1.433 . S
C1031 N1033 1.384 . S
N1032 C1028 1.427 . S
N1032 C1029 1.384 . S
N1033 C1025 1.427 . S
N1033 C1031 1.384 . S
H1034 C1040 0.930 . S
H1035 C1044 0.930 . S
H1036 C1049 0.929 . S
H1037 C1047 0.929 . S
H1038 C1042 0.929 . S
H1039 C1048 0.929 . S
C1040 H1034 0.930 . S
C1040 C1041 1.367 . S
C1040 C1048 1.378 . S
C1041 C1040 1.367 . S
C1041 C1049 1.433 . S
C1042 H1038 0.929 . S
C1042 C1044 1.378 . S
C1042 C1046 1.350 . S
C1043 C1046 1.463 . S
C1043 C1048 1.350 . S
C1043 N1051 1.427 . S
C1044 H1035 0.930 . S
C1044 C1042 1.378 . S
C1044 C1045 1.367 . S
C1045 C1044 1.367 . S
C1045 C1047 1.433 . S
C1046 C1042 1.350 . S
C1046 C1043 1.463 . S
C1046 N1050 1.427 . S
C1047 H1037 0.929 . S
C1047 C1045 1.433 . S
C1047 N1050 1.384 . S
C1048 H1039 0.929 . S
C1048 C1040 1.378 . S
C1048 C1043 1.350 . S
C1049 H1036 0.929 . S
C1049 C1041 1.433 . S
C1049 N1051 1.384 . S
N1050 C1046 1.427 . S
N1050 C1047 1.384 . S
N1051 C1043 1.427 . S
N1051 C1049 1.384 . S
H1052 C1058 0.930 . S
H1053 C1062 0.930 . S
H1054 C1067 0.929 . S
H1055 C1065 0.929 . S
H1056 C1060 0.929 . S
H1057 C1066 0.929 . S
C1058 H1052 0.930 . S
C1058 C1059 1.367 . S
C1058 C1066 1.378 . S
C1059 C1058 1.367 . S
C1059 C1067 1.433 . S
C1060 H1056 0.929 . S
C1060 C1062 1.378 . S
C1060 C1064 1.350 . S
C1061 C1064 1.463 . S
C1061 C1066 1.350 . S
C1061 N1069 1.427 . S
C1062 H1053 0.930 . S
C1062 C1060 1.378 . S
C1062 C1063 1.367 . S
C1063 C1062 1.367 . S
C1063 C1065 1.433 . S
C1064 C1060 1.350 . S
C1064 C1061 1.463 . S
C1064 N1068 1.427 . S
C1065 H1055 0.929 . S
C1065 C1063 1.433 . S
C1065 N1068 1.384 . S
C1066 H1057 0.929 . S
C1066 C1058 1.378 . S
C1066 C1061 1.350 . S
C1067 H1054 0.929 . S
C1067 C1059 1.433 . S
C1067 N1069 1.384 . S
N1068 C1064 1.427 . S
N1068 C1065 1.384 . S
N1069 C1061 1.427 . S
N1069 C1067 1.384 . S
H1070 C1076 0.930 . S
H1071 C1080 0.930 . S
H1072 C1085 0.929 . S
H1073 C1083 0.929 . S
H1074 C1078 0.929 . S
H1075 C1084 0.929 . S
C1076 H1070 0.930 . S
C1076 C1077 1.367 . S
C1076 C1084 1.378 . S
C1077 C1076 1.367 . S
C1077 C1085 1.433 . S
C1078 H1074 0.929 . S
C1078 C1080 1.378 . S
C1078 C1082 1.350 . S
C1079 C1082 1.491 . S
C1079 C1084 1.327 1_545 S
C1079 N1087 1.425 1_545 S
C1080 H1071 0.930 . S
C1080 C1078 1.378 . S
C1080 C1081 1.367 . S
C1081 C1080 1.367 . S
C1081 C1083 1.433 . S
C1082 C1078 1.350 . S
C1082 C1079 1.491 . S
C1082 N1086 1.427 . S
C1083 H1073 0.929 . S
C1083 C1081 1.433 . S
C1083 N1086 1.384 . S
C1084 H1075 0.929 . S
C1084 C1076 1.378 . S
C1084 C1079 1.327 1_565 S
C1085 H1072 0.929 . S
C1085 C1077 1.433 . S
C1085 N1087 1.384 . S
N1086 C1082 1.427 . S
N1086 C1083 1.384 . S
N1087 C1079 1.425 1_565 S
N1087 C1085 1.384 . S
H1088 C1094 0.930 . S
H1089 C1098 0.930 . S
H1090 C1103 0.929 . S
H1091 C1101 0.929 . S
H1092 C1096 0.929 . S
H1093 C1102 0.929 . S
C1094 H1088 0.930 . S
C1094 C1095 1.367 . S
C1094 C1102 1.378 . S
C1095 C1094 1.367 . S
C1095 C1103 1.433 . S
C1096 H1092 0.929 . S
C1096 C1098 1.378 . S
C1096 C1100 1.350 . S
C1097 C1100 1.463 . S
C1097 C1102 1.350 . S
C1097 N1105 1.427 . S
C1098 H1089 0.930 . S
C1098 C1096 1.378 . S
C1098 C1099 1.367 . S
C1099 C1098 1.367 . S
C1099 C1101 1.433 . S
C1100 C1096 1.350 . S
C1100 C1097 1.463 . S
C1100 N1104 1.427 . S
C1101 H1091 0.929 . S
C1101 C1099 1.433 . S
C1101 N1104 1.384 . S
C1102 H1093 0.929 . S
C1102 C1094 1.378 . S
C1102 C1097 1.350 . S
C1103 H1090 0.929 . S
C1103 C1095 1.433 . S
C1103 N1105 1.384 . S
N1104 C1100 1.427 . S
N1104 C1101 1.384 . S
N1105 C1097 1.427 . S
N1105 C1103 1.384 . S
H1106 C1112 0.930 . S
H1107 C1116 0.930 . S
H1108 C1121 0.929 . S
H1109 C1119 0.929 . S
H1110 C1114 0.929 . S
H1111 C1120 0.929 . S
C1112 H1106 0.930 . S
C1112 C1113 1.367 . S
C1112 C1120 1.378 . S
C1113 C1112 1.367 . S
C1113 C1121 1.433 . S
C1114 H1110 0.929 . S
C1114 C1116 1.378 . S
C1114 C1118 1.350 . S
C1115 C1118 1.463 . S
C1115 C1120 1.350 . S
C1115 N1123 1.427 . S
C1116 H1107 0.930 . S
C1116 C1114 1.378 . S
C1116 C1117 1.367 . S
C1117 C1116 1.367 . S
C1117 C1119 1.433 . S
C1118 C1114 1.350 . S
C1118 C1115 1.463 . S
C1118 N1122 1.427 . S
C1119 H1109 0.929 . S
C1119 C1117 1.433 . S
C1119 N1122 1.384 . S
C1120 H1111 0.929 . S
C1120 C1112 1.378 . S
C1120 C1115 1.350 . S
C1121 H1108 0.929 . S
C1121 C1113 1.433 . S
C1121 N1123 1.384 . S
N1122 C1118 1.427 . S
N1122 C1119 1.384 . S
N1123 C1115 1.427 . S
N1123 C1121 1.384 . S
H1124 C1130 0.930 . S
H1125 C1134 0.930 . S
H1126 C1139 0.929 . S
H1127 C1137 0.929 . S
H1128 C1132 0.929 . S
H1129 C1138 0.929 . S
C1130 H1124 0.930 . S
C1130 C1131 1.367 . S
C1130 C1138 1.378 . S
C1131 C1130 1.367 . S
C1131 C1139 1.433 . S
C1132 H1128 0.929 . S
C1132 C1134 1.378 . S
C1132 C1136 1.350 . S
C1133 C1136 1.463 . S
C1133 C1138 1.350 . S
C1133 N1141 1.427 . S
C1134 H1125 0.930 . S
C1134 C1132 1.378 . S
C1134 C1135 1.367 . S
C1135 C1134 1.367 . S
C1135 C1137 1.433 . S
C1136 C1132 1.350 . S
C1136 C1133 1.463 . S
C1136 N1140 1.427 . S
C1137 H1127 0.929 . S
C1137 C1135 1.433 . S
C1137 N1140 1.384 . S
C1138 H1129 0.929 . S
C1138 C1130 1.378 . S
C1138 C1133 1.350 . S
C1139 H1126 0.929 . S
C1139 C1131 1.433 . S
C1139 N1141 1.384 . S
N1140 C1136 1.427 . S
N1140 C1137 1.384 . S
N1141 C1133 1.427 . S
N1141 C1139 1.384 . S
H1142 C1148 0.930 . S
H1143 C1152 0.930 . S
H1144 C1157 0.929 . S
H1145 C1155 0.929 . S
H1146 C1150 0.929 . S
H1147 C1156 0.929 . S
C1148 H1142 0.930 . S
C1148 C1149 1.367 . S
C1148 C1156 1.378 . S
C1149 C1148 1.367 . S
C1149 C1157 1.433 . S
C1150 H1146 0.929 . S
C1150 C1152 1.378 . S
C1150 C1154 1.350 . S
C1151 C1154 1.463 . S
C1151 C1156 1.350 . S
C1151 N1159 1.427 . S
C1152 H1143 0.930 . S
C1152 C1150 1.378 . S
C1152 C1153 1.367 . S
C1153 C1152 1.367 . S
C1153 C1155 1.433 . S
C1154 C1150 1.350 . S
C1154 C1151 1.463 . S
C1154 N1158 1.427 . S
C1155 H1145 0.929 . S
C1155 C1153 1.433 . S
C1155 N1158 1.384 . S
C1156 H1147 0.929 . S
C1156 C1148 1.378 . S
C1156 C1151 1.350 . S
C1157 H1144 0.929 . S
C1157 C1149 1.433 . S
C1157 N1159 1.384 . S
N1158 C1154 1.427 . S
N1158 C1155 1.384 . S
N1159 C1151 1.427 . S
N1159 C1157 1.384 . S
H1160 C1166 0.930 . S
H1161 C1170 0.930 . S
H1162 C1175 0.929 . S
H1163 C1173 0.929 . S
H1164 C1168 0.929 . S
H1165 C1174 0.929 . S
C1166 H1160 0.930 . S
C1166 C1167 1.367 . S
C1166 C1174 1.378 . S
C1167 C1166 1.367 . S
C1167 C1175 1.433 . S
C1168 H1164 0.929 . S
C1168 C1170 1.378 . S
C1168 C1172 1.350 . S
C1169 C1172 1.463 . S
C1169 C1174 1.350 . S
C1169 N1177 1.427 . S
C1170 H1161 0.930 . S
C1170 C1168 1.378 . S
C1170 C1171 1.367 . S
C1171 C1170 1.367 . S
C1171 C1173 1.433 . S
C1172 C1168 1.350 . S
C1172 C1169 1.463 . S
C1172 N1176 1.427 . S
C1173 H1163 0.929 . S
C1173 C1171 1.433 . S
C1173 N1176 1.384 . S
C1174 H1165 0.929 . S
C1174 C1166 1.378 . S
C1174 C1169 1.350 . S
C1175 H1162 0.929 . S
C1175 C1167 1.433 . S
C1175 N1177 1.384 . S
N1176 C1172 1.427 . S
N1176 C1173 1.384 . S
N1177 C1169 1.427 . S
N1177 C1175 1.384 . S
H1178 C1184 0.930 . S
H1179 C1188 0.930 . S
H1180 C1193 0.929 . S
H1181 C1191 0.929 . S
H1182 C1186 0.929 . S
H1183 C1192 0.929 . S
C1184 H1178 0.930 . S
C1184 C1185 1.367 1_545 S
C1184 C1192 1.378 . S
C1185 C1184 1.367 1_565 S
C1185 C1193 1.433 . S
C1186 H1182 0.929 . S
C1186 C1188 1.378 . S
C1186 C1190 1.350 . S
C1187 C1190 1.463 . S
C1187 C1192 1.350 . S
C1187 N1195 1.427 . S
C1188 H1179 0.930 . S
C1188 C1186 1.378 . S
C1188 C1189 1.367 . S
C1189 C1188 1.367 . S
C1189 C1191 1.433 . S
C1190 C1186 1.350 . S
C1190 C1187 1.463 . S
C1190 N1194 1.427 . S
C1191 H1181 0.929 . S
C1191 C1189 1.433 . S
C1191 N1194 1.384 . S
C1192 H1183 0.929 . S
C1192 C1184 1.378 . S
C1192 C1187 1.350 . S
C1193 H1180 0.929 . S
C1193 C1185 1.433 . S
C1193 N1195 1.384 1_565 S
N1194 C1190 1.427 . S
N1194 C1191 1.384 . S
N1195 C1187 1.427 . S
N1195 C1193 1.384 1_545 S
H1196 C1202 0.930 . S
H1197 C1206 0.930 . S
H1198 C1211 0.929 . S
H1199 C1209 0.929 . S
H1200 C1204 0.929 . S
H1201 C1210 0.929 . S
C1202 H1196 0.930 . S
C1202 C1203 1.367 . S
C1202 C1210 1.378 . S
C1203 C1202 1.367 . S
C1203 C1211 1.433 . S
C1204 H1200 0.929 . S
C1204 C1206 1.378 . S
C1204 C1208 1.350 . S
C1205 C1208 1.463 . S
C1205 C1210 1.350 . S
C1205 N1213 1.427 . S
C1206 H1197 0.930 . S
C1206 C1204 1.378 . S
C1206 C1207 1.367 . S
C1207 C1206 1.367 . S
C1207 C1209 1.433 . S
C1208 C1204 1.350 . S
C1208 C1205 1.463 . S
C1208 N1212 1.427 . S
C1209 H1199 0.929 . S
C1209 C1207 1.433 . S
C1209 N1212 1.384 . S
C1210 H1201 0.929 . S
C1210 C1202 1.378 . S
C1210 C1205 1.350 . S
C1211 H1198 0.929 . S
C1211 C1203 1.433 . S
C1211 N1213 1.384 . S
N1212 C1208 1.427 . S
N1212 C1209 1.384 . S
N1213 C1205 1.427 . S
N1213 C1211 1.384 . S
H1214 C1220 0.930 . S
H1215 C1224 0.930 . S
H1216 C1229 0.929 . S
H1217 C1227 0.929 . S
H1218 C1222 0.929 . S
H1219 C1228 0.929 . S
C1220 H1214 0.930 . S
C1220 C1221 1.367 . S
C1220 C1228 1.378 . S
C1221 C1220 1.367 . S
C1221 C1229 1.433 . S
C1222 H1218 0.929 . S
C1222 C1224 1.378 . S
C1222 C1226 1.350 . S
C1223 C1226 1.463 . S
C1223 C1228 1.350 . S
C1223 N1231 1.427 . S
C1224 H1215 0.930 . S
C1224 C1222 1.378 . S
C1224 C1225 1.367 . S
C1225 C1224 1.367 . S
C1225 C1227 1.433 . S
C1226 C1222 1.350 . S
C1226 C1223 1.463 . S
C1226 N1230 1.427 . S
C1227 H1217 0.929 . S
C1227 C1225 1.433 . S
C1227 N1230 1.384 . S
C1228 H1219 0.929 . S
C1228 C1220 1.378 . S
C1228 C1223 1.350 . S
C1229 H1216 0.929 . S
C1229 C1221 1.433 . S
C1229 N1231 1.384 . S
N1230 C1226 1.427 . S
N1230 C1227 1.384 . S
N1231 C1223 1.427 . S
N1231 C1229 1.384 . S
H1232 C1238 0.930 . S
H1233 C1242 0.930 . S
H1234 C1247 0.929 . S
H1235 C1245 0.929 . S
H1236 C1240 0.929 . S
H1237 C1246 0.929 . S
C1238 H1232 0.930 . S
C1238 C1239 1.367 . S
C1238 C1246 1.378 . S
C1239 C1238 1.367 . S
C1239 C1247 1.433 . S
C1240 H1236 0.929 . S
C1240 C1242 1.378 . S
C1240 C1244 1.350 . S
C1241 C1244 1.463 . S
C1241 C1246 1.350 . S
C1241 N1249 1.427 . S
C1242 H1233 0.930 . S
C1242 C1240 1.378 . S
C1242 C1243 1.367 . S
C1243 C1242 1.367 . S
C1243 C1245 1.433 . S
C1244 C1240 1.350 . S
C1244 C1241 1.463 . S
C1244 N1248 1.427 . S
C1245 H1235 0.929 . S
C1245 C1243 1.433 . S
C1245 N1248 1.384 . S
C1246 H1237 0.929 . S
C1246 C1238 1.378 . S
C1246 C1241 1.350 . S
C1247 H1234 0.929 . S
C1247 C1239 1.433 . S
C1247 N1249 1.384 . S
N1248 C1244 1.427 . S
N1248 C1245 1.384 . S
N1249 C1241 1.427 . S
N1249 C1247 1.384 . S
H1250 C1256 0.930 . S
H1251 C1260 0.930 . S
H1252 C1265 0.929 . S
H1253 C1263 0.929 . S
H1254 C1258 0.929 . S
H1255 C1264 0.929 . S
C1256 H1250 0.930 . S
C1256 C1257 1.367 . S
C1256 C1264 1.378 . S
C1257 C1256 1.367 . S
C1257 C1265 1.433 . S
C1258 H1254 0.929 . S
C1258 C1260 1.378 . S
C1258 C1262 1.350 . S
C1259 C1262 1.463 . S
C1259 C1264 1.350 . S
C1259 N1267 1.427 . S
C1260 H1251 0.930 . S
C1260 C1258 1.378 . S
C1260 C1261 1.367 . S
C1261 C1260 1.367 . S
C1261 C1263 1.433 . S
C1262 C1258 1.350 . S
C1262 C1259 1.463 . S
C1262 N1266 1.427 . S
C1263 H1253 0.929 . S
C1263 C1261 1.433 . S
C1263 N1266 1.384 . S
C1264 H1255 0.929 . S
C1264 C1256 1.378 . S
C1264 C1259 1.350 . S
C1265 H1252 0.929 . S
C1265 C1257 1.433 . S
C1265 N1267 1.384 . S
N1266 C1262 1.427 . S
N1266 C1263 1.384 . S
N1267 C1259 1.427 . S
N1267 C1265 1.384 . S
H1268 C1274 0.930 . S
H1269 C1278 0.930 . S
H1270 C1283 0.929 . S
H1271 C1281 0.929 . S
H1272 C1276 0.929 . S
H1273 C1282 0.929 . S
C1274 H1268 0.930 . S
C1274 C1275 1.367 . S
C1274 C1282 1.378 . S
C1275 C1274 1.367 . S
C1275 C1283 1.433 . S
C1276 H1272 0.929 . S
C1276 C1278 1.378 . S
C1276 C1280 1.350 . S
C1277 C1280 1.463 . S
C1277 C1282 1.350 . S
C1277 N1285 1.427 . S
C1278 H1269 0.930 . S
C1278 C1276 1.378 . S
C1278 C1279 1.367 . S
C1279 C1278 1.367 . S
C1279 C1281 1.433 . S
C1280 C1276 1.350 . S
C1280 C1277 1.463 . S
C1280 N1284 1.427 . S
C1281 H1271 0.929 . S
C1281 C1279 1.433 . S
C1281 N1284 1.384 . S
C1282 H1273 0.929 . S
C1282 C1274 1.378 . S
C1282 C1277 1.350 . S
C1283 H1270 0.929 . S
C1283 C1275 1.433 . S
C1283 N1285 1.384 . S
N1284 C1280 1.427 . S
N1284 C1281 1.384 . S
N1285 C1277 1.427 . S
N1285 C1283 1.384 . S
H1286 C1292 0.930 . S
H1287 C1296 0.930 . S
H1288 C1301 0.929 . S
H1289 C1299 0.929 . S
H1290 C1294 0.929 . S
H1291 C1300 0.929 . S
C1292 H1286 0.930 . S
C1292 C1293 1.367 . S
C1292 C1300 1.378 . S
C1293 C1292 1.367 . S
C1293 C1301 1.433 . S
C1294 H1290 0.929 . S
C1294 C1296 1.378 . S
C1294 C1298 1.350 . S
C1295 C1298 1.463 . S
C1295 C1300 1.350 . S
C1295 N1303 1.427 . S
C1296 H1287 0.930 . S
C1296 C1294 1.378 . S
C1296 C1297 1.367 . S
C1297 C1296 1.367 . S
C1297 C1299 1.433 . S
C1298 C1294 1.350 . S
C1298 C1295 1.463 . S
C1298 N1302 1.427 . S
C1299 H1289 0.929 . S
C1299 C1297 1.433 . S
C1299 N1302 1.384 . S
C1300 H1291 0.929 . S
C1300 C1292 1.378 . S
C1300 C1295 1.350 . S
C1301 H1288 0.929 . S
C1301 C1293 1.433 . S
C1301 N1303 1.384 . S
N1302 C1298 1.427 . S
N1302 C1299 1.384 . S
N1303 C1295 1.427 . S
N1303 C1301 1.384 . S
H1304 C1310 0.930 . S
H1305 C1314 0.930 . S
H1306 C1319 0.929 . S
H1307 C1317 0.929 . S
H1308 C1312 0.929 . S
H1309 C1318 0.929 . S
C1310 H1304 0.930 . S
C1310 C1311 1.367 . S
C1310 C1318 1.378 . S
C1311 C1310 1.367 . S
C1311 C1319 1.433 . S
C1312 H1308 0.929 . S
C1312 C1314 1.378 . S
C1312 C1316 1.350 . S
C1313 C1316 1.463 . S
C1313 C1318 1.350 . S
C1313 N1321 1.427 . S
C1314 H1305 0.930 . S
C1314 C1312 1.378 . S
C1314 C1315 1.367 . S
C1315 C1314 1.367 . S
C1315 C1317 1.433 . S
C1316 C1312 1.350 . S
C1316 C1313 1.463 . S
C1316 N1320 1.427 . S
C1317 H1307 0.929 . S
C1317 C1315 1.433 . S
C1317 N1320 1.384 . S
C1318 H1309 0.929 . S
C1318 C1310 1.378 . S
C1318 C1313 1.350 . S
C1319 H1306 0.929 . S
C1319 C1311 1.433 . S
C1319 N1321 1.384 . S
N1320 C1316 1.427 . S
N1320 C1317 1.384 . S
N1321 C1313 1.427 . S
N1321 C1319 1.384 . S
H1322 C1328 0.930 . S
H1323 C1332 0.930 . S
H1324 C1337 0.929 . S
H1325 C1335 0.929 . S
H1326 C1330 0.929 . S
H1327 C1336 0.929 . S
C1328 H1322 0.930 . S
C1328 C1329 1.367 . S
C1328 C1336 1.378 . S
C1329 C1328 1.367 . S
C1329 C1337 1.433 . S
C1330 H1326 0.929 . S
C1330 C1332 1.378 . S
C1330 C1334 1.350 . S
C1331 C1334 1.463 . S
C1331 C1336 1.350 . S
C1331 N1339 1.427 . S
C1332 H1323 0.930 . S
C1332 C1330 1.378 . S
C1332 C1333 1.367 . S
C1333 C1332 1.367 . S
C1333 C1335 1.433 . S
C1334 C1330 1.350 . S
C1334 C1331 1.463 . S
C1334 N1338 1.427 . S
C1335 H1325 0.929 . S
C1335 C1333 1.433 . S
C1335 N1338 1.384 . S
C1336 H1327 0.929 . S
C1336 C1328 1.378 . S
C1336 C1331 1.350 . S
C1337 H1324 0.929 . S
C1337 C1329 1.433 . S
C1337 N1339 1.384 . S
N1338 C1334 1.427 . S
N1338 C1335 1.384 . S
N1339 C1331 1.427 . S
N1339 C1337 1.384 . S
H1340 C1346 0.930 . S
H1341 C1350 0.930 . S
H1342 C1355 0.929 . S
H1343 C1353 0.929 . S
H1344 C1348 0.929 . S
H1345 C1354 0.929 . S
C1346 H1340 0.930 . S
C1346 C1347 1.367 . S
C1346 C1354 1.378 . S
C1347 C1346 1.367 . S
C1347 C1355 1.433 . S
C1348 H1344 0.929 . S
C1348 C1350 1.378 . S
C1348 C1352 1.350 . S
C1349 C1352 1.463 . S
C1349 C1354 1.350 . S
C1349 N1357 1.427 . S
C1350 H1341 0.930 . S
C1350 C1348 1.378 . S
C1350 C1351 1.367 . S
C1351 C1350 1.367 . S
C1351 C1353 1.433 . S
C1352 C1348 1.350 . S
C1352 C1349 1.463 . S
C1352 N1356 1.427 . S
C1353 H1343 0.929 . S
C1353 C1351 1.433 . S
C1353 N1356 1.384 . S
C1354 H1345 0.929 . S
C1354 C1346 1.378 . S
C1354 C1349 1.350 . S
C1355 H1342 0.929 . S
C1355 C1347 1.433 . S
C1355 N1357 1.384 . S
N1356 C1352 1.427 . S
N1356 C1353 1.384 . S
N1357 C1349 1.427 . S
N1357 C1355 1.384 . S
H1358 C1364 0.930 . S
H1359 C1368 0.930 . S
H1360 C1373 0.929 . S
H1361 C1371 0.929 . S
H1362 C1366 0.929 . S
H1363 C1372 0.929 . S
C1364 H1358 0.930 . S
C1364 C1365 1.367 . S
C1364 C1372 1.378 . S
C1365 C1364 1.367 . S
C1365 C1373 1.433 . S
C1366 H1362 0.929 . S
C1366 C1368 1.378 . S
C1366 C1370 1.350 . S
C1367 C1370 1.463 . S
C1367 C1372 1.350 1_554 S
C1367 N1375 1.427 1_554 S
C1368 H1359 0.930 . S
C1368 C1366 1.378 . S
C1368 C1369 1.367 . S
C1369 C1368 1.367 . S
C1369 C1371 1.433 . S
C1370 C1366 1.350 . S
C1370 C1367 1.463 . S
C1370 N1374 1.427 . S
C1371 H1361 0.929 . S
C1371 C1369 1.433 . S
C1371 N1374 1.384 . S
C1372 H1363 0.929 . S
C1372 C1364 1.378 . S
C1372 C1367 1.350 1_556 S
C1373 H1360 0.929 . S
C1373 C1365 1.433 . S
C1373 N1375 1.384 . S
N1374 C1370 1.427 . S
N1374 C1371 1.384 . S
N1375 C1367 1.427 1_556 S
N1375 C1373 1.384 . S
H1376 C1382 0.930 . S
H1377 C1386 0.930 . S
H1378 C1391 0.929 . S
H1379 C1389 0.929 . S
H1380 C1384 0.929 . S
H1381 C1390 0.929 . S
C1382 H1376 0.930 . S
C1382 C1383 1.367 . S
C1382 C1390 1.378 . S
C1383 C1382 1.367 . S
C1383 C1391 1.433 . S
C1384 H1380 0.929 . S
C1384 C1386 1.378 . S
C1384 C1388 1.350 . S
C1385 C1388 1.463 . S
C1385 C1390 1.350 . S
C1385 N1393 1.427 . S
C1386 H1377 0.930 . S
C1386 C1384 1.378 . S
C1386 C1387 1.367 . S
C1387 C1386 1.367 . S
C1387 C1389 1.433 . S
C1388 C1384 1.350 . S
C1388 C1385 1.463 . S
C1388 N1392 1.427 . S
C1389 H1379 0.929 . S
C1389 C1387 1.433 . S
C1389 N1392 1.384 . S
C1390 H1381 0.929 . S
C1390 C1382 1.378 . S
C1390 C1385 1.350 . S
C1391 H1378 0.929 . S
C1391 C1383 1.433 . S
C1391 N1393 1.384 . S
N1392 C1388 1.427 . S
N1392 C1389 1.384 . S
N1393 C1385 1.427 . S
N1393 C1391 1.384 . S
H1394 C1400 0.930 . S
H1395 C1404 0.930 . S
H1396 C1409 0.929 . S
H1397 C1407 0.929 . S
H1398 C1402 0.929 . S
H1399 C1408 0.929 . S
C1400 H1394 0.930 . S
C1400 C1401 1.367 . S
C1400 C1408 1.378 . S
C1401 C1400 1.367 . S
C1401 C1409 1.433 . S
C1402 H1398 0.929 . S
C1402 C1404 1.378 . S
C1402 C1406 1.350 . S
C1403 C1406 1.463 . S
C1403 C1408 1.350 . S
C1403 N1411 1.427 . S
C1404 H1395 0.930 . S
C1404 C1402 1.378 . S
C1404 C1405 1.367 . S
C1405 C1404 1.367 . S
C1405 C1407 1.433 . S
C1406 C1402 1.350 . S
C1406 C1403 1.463 . S
C1406 N1410 1.427 . S
C1407 H1397 0.929 . S
C1407 C1405 1.433 . S
C1407 N1410 1.384 . S
C1408 H1399 0.929 . S
C1408 C1400 1.378 . S
C1408 C1403 1.350 . S
C1409 H1396 0.929 . S
C1409 C1401 1.433 . S
C1409 N1411 1.384 . S
N1410 C1406 1.427 . S
N1410 C1407 1.384 . S
N1411 C1403 1.427 . S
N1411 C1409 1.384 . S
H1412 C1418 0.930 . S
H1413 C1422 0.930 . S
H1414 C1427 0.929 . S
H1415 C1425 0.929 . S
H1416 C1420 0.929 . S
H1417 C1426 0.929 . S
C1418 H1412 0.930 . S
C1418 C1419 1.367 . S
C1418 C1426 1.378 . S
C1419 C1418 1.367 . S
C1419 C1427 1.433 . S
C1420 H1416 0.929 . S
C1420 C1422 1.378 . S
C1420 C1424 1.350 . S
C1421 C1424 1.463 . S
C1421 C1426 1.350 . S
C1421 N1429 1.427 . S
C1422 H1413 0.930 . S
C1422 C1420 1.378 . S
C1422 C1423 1.367 . S
C1423 C1422 1.367 . S
C1423 C1425 1.433 . S
C1424 C1420 1.350 . S
C1424 C1421 1.463 . S
C1424 N1428 1.427 . S
C1425 H1415 0.929 . S
C1425 C1423 1.433 . S
C1425 N1428 1.384 . S
C1426 H1417 0.929 . S
C1426 C1418 1.378 . S
C1426 C1421 1.350 . S
C1427 H1414 0.929 . S
C1427 C1419 1.433 . S
C1427 N1429 1.384 . S
N1428 C1424 1.427 . S
N1428 C1425 1.384 . S
N1429 C1421 1.427 . S
N1429 C1427 1.384 . S
H1430 C1436 0.930 . S
H1431 C1440 0.930 . S
H1432 C1445 0.929 . S
H1433 C1443 0.929 . S
H1434 C1438 0.929 . S
H1435 C1444 0.929 . S
C1436 H1430 0.930 . S
C1436 C1437 1.367 . S
C1436 C1444 1.378 . S
C1437 C1436 1.367 . S
C1437 C1445 1.433 . S
C1438 H1434 0.929 . S
C1438 C1440 1.378 . S
C1438 C1442 1.350 . S
C1439 C1442 1.463 . S
C1439 C1444 1.350 . S
C1439 N1447 1.427 . S
C1440 H1431 0.930 . S
C1440 C1438 1.378 . S
C1440 C1441 1.367 . S
C1441 C1440 1.367 . S
C1441 C1443 1.433 . S
C1442 C1438 1.350 . S
C1442 C1439 1.463 . S
C1442 N1446 1.427 . S
C1443 H1433 0.929 . S
C1443 C1441 1.433 . S
C1443 N1446 1.384 . S
C1444 H1435 0.929 . S
C1444 C1436 1.378 . S
C1444 C1439 1.350 . S
C1445 H1432 0.929 . S
C1445 C1437 1.433 . S
C1445 N1447 1.384 . S
N1446 C1442 1.427 . S
N1446 C1443 1.384 . S
N1447 C1439 1.427 . S
N1447 C1445 1.384 . S
H1448 C1454 0.930 . S
H1449 C1458 0.930 . S
H1450 C1463 0.929 . S
H1451 C1461 0.929 . S
H1452 C1456 0.929 . S
H1453 C1462 0.929 . S
C1454 H1448 0.930 . S
C1454 C1455 1.367 . S
C1454 C1462 1.378 . S
C1455 C1454 1.367 . S
C1455 C1463 1.433 . S
C1456 H1452 0.929 . S
C1456 C1458 1.378 . S
C1456 C1460 1.350 . S
C1457 C1460 1.463 . S
C1457 C1462 1.350 . S
C1457 N1465 1.427 . S
C1458 H1449 0.930 . S
C1458 C1456 1.378 . S
C1458 C1459 1.367 . S
C1459 C1458 1.367 . S
C1459 C1461 1.433 . S
C1460 C1456 1.350 . S
C1460 C1457 1.463 . S
C1460 N1464 1.427 . S
C1461 H1451 0.929 . S
C1461 C1459 1.433 . S
C1461 N1464 1.384 . S
C1462 H1453 0.929 . S
C1462 C1454 1.378 . S
C1462 C1457 1.350 . S
C1463 H1450 0.929 . S
C1463 C1455 1.433 . S
C1463 N1465 1.384 . S
N1464 C1460 1.427 . S
N1464 C1461 1.384 . S
N1465 C1457 1.427 . S
N1465 C1463 1.384 . S
H1466 C1472 0.930 . S
H1467 C1476 0.930 . S
H1468 C1481 0.929 . S
H1469 C1479 0.929 . S
H1470 C1474 0.929 . S
H1471 C1480 0.929 . S
C1472 H1466 0.930 . S
C1472 C1473 1.367 . S
C1472 C1480 1.378 . S
C1473 C1472 1.367 . S
C1473 C1481 1.433 . S
C1474 H1470 0.929 . S
C1474 C1476 1.378 . S
C1474 C1478 1.350 . S
C1475 C1478 1.463 . S
C1475 C1480 1.350 . S
C1475 N1483 1.427 . S
C1476 H1467 0.930 . S
C1476 C1474 1.378 . S
C1476 C1477 1.367 . S
C1477 C1476 1.367 . S
C1477 C1479 1.433 . S
C1478 C1474 1.350 . S
C1478 C1475 1.463 . S
C1478 N1482 1.427 . S
C1479 H1469 0.929 . S
C1479 C1477 1.433 . S
C1479 N1482 1.384 . S
C1480 H1471 0.929 . S
C1480 C1472 1.378 . S
C1480 C1475 1.350 . S
C1481 H1468 0.929 . S
C1481 C1473 1.433 . S
C1481 N1483 1.384 . S
N1482 C1478 1.427 . S
N1482 C1479 1.384 . S
N1483 C1475 1.427 . S
N1483 C1481 1.384 . S
H1484 C1490 0.930 . S
H1485 C1494 0.930 . S
H1486 C1499 0.929 . S
H1487 C1497 0.929 . S
H1488 C1492 0.929 . S
H1489 C1498 0.929 . S
C1490 H1484 0.930 . S
C1490 C1491 1.367 . S
C1490 C1498 1.378 . S
C1491 C1490 1.367 . S
C1491 C1499 1.433 . S
C1492 H1488 0.929 . S
C1492 C1494 1.378 . S
C1492 C1496 1.350 . S
C1493 C1496 1.463 . S
C1493 C1498 1.350 . S
C1493 N1501 1.427 . S
C1494 H1485 0.930 . S
C1494 C1492 1.378 . S
C1494 C1495 1.367 . S
C1495 C1494 1.367 . S
C1495 C1497 1.433 . S
C1496 C1492 1.350 . S
C1496 C1493 1.463 . S
C1496 N1500 1.427 . S
C1497 H1487 0.929 . S
C1497 C1495 1.433 . S
C1497 N1500 1.384 . S
C1498 H1489 0.929 . S
C1498 C1490 1.378 . S
C1498 C1493 1.350 . S
C1499 H1486 0.929 . S
C1499 C1491 1.433 . S
C1499 N1501 1.384 . S
N1500 C1496 1.427 . S
N1500 C1497 1.384 . S
N1501 C1493 1.427 . S
N1501 C1499 1.384 . S
H1502 C1508 0.930 . S
H1503 C1512 0.930 . S
H1504 C1517 0.929 . S
H1505 C1515 0.929 . S
H1506 C1510 0.929 . S
H1507 C1516 0.929 . S
C1508 H1502 0.930 . S
C1508 C1509 1.367 . S
C1508 C1516 1.378 . S
C1509 C1508 1.367 . S
C1509 C1517 1.433 . S
C1510 H1506 0.929 . S
C1510 C1512 1.378 . S
C1510 C1514 1.350 . S
C1511 C1514 1.463 . S
C1511 C1516 1.350 . S
C1511 N1519 1.427 . S
C1512 H1503 0.930 . S
C1512 C1510 1.378 . S
C1512 C1513 1.367 . S
C1513 C1512 1.367 . S
C1513 C1515 1.433 . S
C1514 C1510 1.350 . S
C1514 C1511 1.463 . S
C1514 N1518 1.427 . S
C1515 H1505 0.929 . S
C1515 C1513 1.433 . S
C1515 N1518 1.384 . S
C1516 H1507 0.929 . S
C1516 C1508 1.378 . S
C1516 C1511 1.350 . S
C1517 H1504 0.929 . S
C1517 C1509 1.433 . S
C1517 N1519 1.384 . S
N1518 C1514 1.427 . S
N1518 C1515 1.384 . S
N1519 C1511 1.427 . S
N1519 C1517 1.384 . S
H1520 C1526 0.930 . S
H1521 C1530 0.930 . S
H1522 C1535 0.929 . S
H1523 C1533 0.929 . S
H1524 C1528 0.929 . S
H1525 C1534 0.929 . S
C1526 H1520 0.930 . S
C1526 C1527 1.367 . S
C1526 C1534 1.378 . S
C1527 C1526 1.367 . S
C1527 C1535 1.433 . S
C1528 H1524 0.929 . S
C1528 C1530 1.378 . S
C1528 C1532 1.350 . S
C1529 C1532 1.463 . S
C1529 C1534 1.350 . S
C1529 N1537 1.427 . S
C1530 H1521 0.930 . S
C1530 C1528 1.378 . S
C1530 C1531 1.367 . S
C1531 C1530 1.367 . S
C1531 C1533 1.433 . S
C1532 C1528 1.350 . S
C1532 C1529 1.463 . S
C1532 N1536 1.427 . S
C1533 H1523 0.929 . S
C1533 C1531 1.433 . S
C1533 N1536 1.384 . S
C1534 H1525 0.929 . S
C1534 C1526 1.378 . S
C1534 C1529 1.350 . S
C1535 H1522 0.929 . S
C1535 C1527 1.433 . S
C1535 N1537 1.384 . S
N1536 C1532 1.427 . S
N1536 C1533 1.384 . S
N1537 C1529 1.427 . S
N1537 C1535 1.384 . S
H1538 C1544 0.930 . S
H1539 C1548 0.930 . S
H1540 C1553 0.929 . S
H1541 C1551 0.929 . S
H1542 C1546 0.929 . S
H1543 C1552 0.929 . S
C1544 H1538 0.930 . S
C1544 C1545 1.367 . S
C1544 C1552 1.378 . S
C1545 C1544 1.367 . S
C1545 C1553 1.433 . S
C1546 H1542 0.929 . S
C1546 C1548 1.378 . S
C1546 C1550 1.350 . S
C1547 C1550 1.463 . S
C1547 C1552 1.350 . S
C1547 N1555 1.427 . S
C1548 H1539 0.930 . S
C1548 C1546 1.378 . S
C1548 C1549 1.367 . S
C1549 C1548 1.367 . S
C1549 C1551 1.433 . S
C1550 C1546 1.350 . S
C1550 C1547 1.463 . S
C1550 N1554 1.427 . S
C1551 H1541 0.929 . S
C1551 C1549 1.433 . S
C1551 N1554 1.384 . S
C1552 H1543 0.929 . S
C1552 C1544 1.378 . S
C1552 C1547 1.350 . S
C1553 H1540 0.929 . S
C1553 C1545 1.433 . S
C1553 N1555 1.384 . S
N1554 C1550 1.427 . S
N1554 C1551 1.384 . S
N1555 C1547 1.427 . S
N1555 C1553 1.384 . S
H1556 C1562 0.930 . S
H1557 C1566 0.930 . S
H1558 C1571 0.929 . S
H1559 C1569 0.929 . S
H1560 C1564 0.929 . S
H1561 C1570 0.929 . S
C1562 H1556 0.930 . S
C1562 C1563 1.367 . S
C1562 C1570 1.378 . S
C1563 C1562 1.367 . S
C1563 C1571 1.433 . S
C1564 H1560 0.929 . S
C1564 C1566 1.378 . S
C1564 C1568 1.350 . S
C1565 C1568 1.463 . S
C1565 C1570 1.350 . S
C1565 N1573 1.427 . S
C1566 H1557 0.930 . S
C1566 C1564 1.378 . S
C1566 C1567 1.367 . S
C1567 C1566 1.367 . S
C1567 C1569 1.433 . S
C1568 C1564 1.350 . S
C1568 C1565 1.463 . S
C1568 N1572 1.427 . S
C1569 H1559 0.929 . S
C1569 C1567 1.433 . S
C1569 N1572 1.384 . S
C1570 H1561 0.929 . S
C1570 C1562 1.378 . S
C1570 C1565 1.350 . S
C1571 H1558 0.929 . S
C1571 C1563 1.433 . S
C1571 N1573 1.384 . S
N1572 C1568 1.427 . S
N1572 C1569 1.384 . S
N1573 C1565 1.427 . S
N1573 C1571 1.384 . S
H1574 C1580 0.930 . S
H1575 C1584 0.930 . S
H1576 C1589 0.929 . S
H1577 C1587 0.929 . S
H1578 C1582 0.929 . S
H1579 C1588 0.929 1_554 S
C1580 H1574 0.930 . S
C1580 C1581 1.367 . S
C1580 C1588 1.378 . S
C1581 C1580 1.367 . S
C1581 C1589 1.433 . S
C1582 H1578 0.929 . S
C1582 C1584 1.378 1_556 S
C1582 C1586 1.351 . S
C1583 C1586 1.468 . S
C1583 C1588 1.350 . S
C1583 N1591 1.427 . S
C1584 H1575 0.930 . S
C1584 C1582 1.378 1_554 S
C1584 C1585 1.367 . S
C1585 C1584 1.367 . S
C1585 C1587 1.433 . S
C1586 C1582 1.351 . S
C1586 C1583 1.468 . S
C1586 N1590 1.421 1_556 S
C1587 H1577 0.929 . S
C1587 C1585 1.433 . S
C1587 N1590 1.384 . S
C1588 H1579 0.929 1_556 S
C1588 C1580 1.378 . S
C1588 C1583 1.350 . S
C1589 H1576 0.929 . S
C1589 C1581 1.433 . S
C1589 N1591 1.384 . S
N1590 C1586 1.421 1_554 S
N1590 C1587 1.384 . S
N1591 C1583 1.427 . S
N1591 C1589 1.384 . S
C1027 C621 1.673 . S
C1023 C39 1.630 . S
C1045 C674 1.437 . S
C1041 C125 1.439 . S
C1063 C737 2.252 . S
C1059 C217 2.162 . S
C1081 C780 1.752 . S
C1077 C261 1.669 . S
C1095 C359 1.463 . S
C1099 C736 1.480 . S
C1117 C773 1.245 . S
C1113 C433 1.172 . S
C1135 C614 1.506 . S
C1131 C495 1.525 . S
C1153 C667 1.457 . S
C1149 C587 1.463 . S
C1171 C720 1.757 . S
C1167 C557 1.744 . S
C1189 C789 1.383 . S
C1185 C347 1.390 . S
C1207 C630 1.125 . S
C1203 C421 1.115 . S
C1225 C683 1.834 . S
C1221 C507 1.796 . S
C1243 C631 1.478 . S
C1239 C137 1.483 . S
C1261 C684 1.947 . S
C1257 C187 1.892 . S
C1279 C727 2.567 . S
C1275 C291 2.510 . S
C1297 C790 2.258 . S
C1293 C69 2.262 . S
C1315 C833 1.370 . S
C1311 C581 1.382 . S
C1329 C365 2.210 . S
C1333 C886 2.191 . S
C1347 C439 2.608 . S
C1351 C948 2.605 . S
C1365 C483 1.647 . S
C1369 C1002 1.696 . S
C1383 C113 1.761 . S
C1387 C949 1.784 . S
C1401 C211 1.864 . S
C1405 C1001 1.903 . S
C1419 C273 1.306 . S
C1423 C826 1.349 . S
C1441 C879 1.242 . S
C1437 C51 1.236 . S
C1459 C939 1.444 . S
C1455 C63 1.391 . S
C1473 C143 1.561 . S
C1477 C985 1.565 . S
C1491 C199 1.907 . S
C1495 C842 1.936 . S
C1509 C285 1.119 . S
C1513 C895 1.190 . S
C1531 C843 1.621 . S
C1527 C335 1.600 . S
C1549 C896 2.027 . S
C1545 C409 1.878 . S
C1563 C513 1.976 . S
C1567 C932 1.980 . S
C1585 C992 1.413 . S
C1581 C569 1.404 . S
