# Generated by pormake.
# Topology rtl, (3,6)-cn, num edge types: 1
# Building blocks:
#     Node 0, Type 0, BuildingBlock: PAMTOO_clean_linker_0, # of connection points: 3
#     Node 1, Type 0, BuildingBlock: PAMTOO_clean_linker_0, # of connection points: 3
#     Node 2, Type 0, BuildingBlock: PAMTOO_clean_linker_0, # of connection points: 3
#     Node 3, Type 0, BuildingBlock: PAMTOO_clean_linker_0, # of connection points: 3
#     Node 4, Type 1, BuildingBlock: KUMBUR_clean_sbu_1, # of connection points: 6
#     Node 5, Type 1, BuildingBlock: KUMBUR_clean_sbu_1, # of connection points: 6
#     Edge 6, Type (0, 1), BuildingBlock: XIVTED_clean_linker_0, # of connection points: 2
#     Edge 7, Type (0, 1), BuildingBlock: XIVTED_clean_linker_0, # of connection points: 2
#     Edge 8, Type (0, 1), BuildingBlock: XIVTED_clean_linker_0, # of connection points: 2
#     Edge 9, Type (0, 1), BuildingBlock: XIVTED_clean_linker_0, # of connection points: 2
#     Edge 10, Type (0, 1), BuildingBlock: XIVTED_clean_linker_0, # of connection points: 2
#     Edge 11, Type (0, 1), BuildingBlock: XIVTED_clean_linker_0, # of connection points: 2
#     Edge 12, Type (0, 1), BuildingBlock: XIVTED_clean_linker_0, # of connection points: 2
#     Edge 13, Type (0, 1), BuildingBlock: XIVTED_clean_linker_0, # of connection points: 2
#     Edge 14, Type (0, 1), BuildingBlock: XIVTED_clean_linker_0, # of connection points: 2
#     Edge 15, Type (0, 1), BuildingBlock: XIVTED_clean_linker_0, # of connection points: 2
#     Edge 16, Type (0, 1), BuildingBlock: XIVTED_clean_linker_0, # of connection points: 2
#     Edge 17, Type (0, 1), BuildingBlock: XIVTED_clean_linker_0, # of connection points: 2
# Relax obj value: 0.052
# Max RMSD: 0.218
# Mean RMSD: 0.163
data_MOF--net-rtl--node1-KUMBUR_clean_sbu_1--node2-PAMTOO_clean_linker_0--edge1-XIVTED_clean_linker_0
_symmetry_space_group_name_H-M    P1
_symmetry_Int_Tables_number       1
_symmetry_cell_setting            triclinic
loop_
_symmetry_equiv_pos_as_xyz
'x, y, z'
_cell_length_a     34.77608
_cell_length_b     35.212032
_cell_length_c     27.267104
_cell_angle_alpha  78.643081
_cell_angle_beta   99.430218
_cell_angle_gamma 90.801933
loop_
_atom_site_label
_atom_site_type_symbol
_atom_site_fract_x
_atom_site_fract_y
_atom_site_fract_z
_atom_type_partial_charge
H0 H 0.1897 0.92608 1.00247 0.0
H1 H 0.28674 0.86044 0.10019 0.0
H2 H 0.25923 0.85088 0.94434 0.0
H3 H 0.26957 0.77773 0.02756 0.0
C4 C 0.29658 0.78689 0.04997 0.0
O5 O 0.30403 0.82513 0.03135 0.0
H6 H 0.2917 0.78364 0.08992 0.0
C7 C 0.21449 0.90647 0.00854 0.0
C8 C 0.22267 0.89107 0.96745 0.0
C9 C 0.23682 0.89532 0.05731 0.0
C10 C 0.26834 0.86914 0.06366 0.0
C11 C 0.2758 0.85269 0.02333 0.0
C12 C 0.25299 0.86357 0.97538 0.0
H13 H 0.62432 0.67595 0.63289 0.0
H14 H 0.69973 0.75922 0.56021 0.0
H15 H 0.7047 0.74029 0.72118 0.0
H16 H 0.71896 0.82534 0.66622 0.0
C17 C 0.72981 0.81673 0.63374 0.0
O18 O 0.73533 0.77709 0.64346 0.0
H19 H 0.70747 0.82608 0.59927 0.0
C20 C 0.64635 0.69791 0.63467 0.0
C21 C 0.66229 0.70614 0.68221 0.0
C22 C 0.65919 0.71687 0.58993 0.0
C23 C 0.68899 0.74407 0.5937 0.0
C24 C 0.70525 0.75244 0.64074 0.0
C25 C 0.69153 0.734 0.68487 0.0
H26 H 0.84456 0.1001 0.09295 0.0
H27 H 0.77378 0.18899 0.98682 0.0
H28 H 0.78836 0.1881 0.14648 0.0
H29 H 0.70388 0.19445 0.07731 0.0
C30 C 0.71262 0.21852 0.04836 0.0
O31 O 0.75262 0.22187 0.05633 0.0
H32 H 0.70278 0.21165 0.01024 0.0
C33 C 0.8261 0.12585 0.085 0.0
C34 C 0.81975 0.14277 0.12539 0.0
C35 C 0.81074 0.14262 0.03466 0.0
C36 C 0.78568 0.17508 0.02531 0.0
C37 C 0.77663 0.19055 0.06579 0.0
C38 C 0.79388 0.17463 0.11578 0.0
H39 H 0.42747 0.35155 0.46018 0.0
H40 H 0.36051 0.26557 0.54232 0.0
H41 H 0.34689 0.28205 0.37986 0.0
H42 H 0.27517 0.27944 0.42857 0.0
C43 C 0.28473 0.25664 0.46289 0.0
O44 O 0.32207 0.24414 0.4618 0.0
H45 H 0.28476 0.26958 0.49698 0.0
C46 C 0.40643 0.32852 0.4603 0.0
C47 C 0.38898 0.31904 0.41418 0.0
C48 C 0.39612 0.30994 0.5066 0.0
C49 C 0.36965 0.27949 0.50709 0.0
C50 C 0.35174 0.26954 0.46138 0.0
C51 C 0.3617 0.28906 0.41503 0.0
Tb52 Tb 0.04422 0.97572 0.51204 0.0
C53 C 0.96363 0.13203 0.50742 0.0
N54 N 0.99859 0.11727 0.53423 0.0
C55 C 0.02699 0.18004 0.51502 0.0
C56 C 0.9595 0.17108 0.48189 0.0
C57 C 0.02946 0.14142 0.54068 0.0
C58 C 0.99206 0.19478 0.48482 0.0
C59 C 0.89362 0.12425 0.48672 0.0
C60 C 0.93094 0.10903 0.50979 0.0
C61 C 0.88978 0.16248 0.4591 0.0
C62 C 0.92264 0.18583 0.45665 0.0
Tb63 Tb 0.99701 0.05432 0.57705 0.0
N64 N 0.93552 0.07224 0.53723 0.0
C65 C 0.86114 0.1011 0.49391 0.0
C66 C 0.90382 0.0506 0.54749 0.0
C67 C 0.86624 0.06433 0.52509 0.0
H68 H 0.05582 0.1317 0.56683 0.0
H69 H 0.84122 0.04678 0.53237 0.0
H70 H 0.98336 0.90142 0.51809 0.0
H71 H 0.20012 0.97995 0.57268 0.0
H72 H 0.90762 0.0228 0.57296 0.0
H73 H 0.83196 0.11181 0.47699 0.0
H74 H 0.13657 1.00486 0.52373 0.0
H75 H 0.05176 0.19871 0.5197 0.0
H76 H 0.86137 0.17466 0.44087 0.0
H77 H 0.919 0.21571 0.43671 0.0
H78 H 0.98334 0.83448 0.56575 0.0
H79 H 0.99003 0.22497 0.46596 0.0
H80 H 0.20545 0.91445 0.62695 0.0
N81 N 0.04111 0.91247 0.55149 0.0
C82 C 0.07498 0.8964 0.57953 0.0
C83 C 1.00916 0.85176 0.57068 0.0
C84 C 0.07674 0.85774 0.60638 0.0
C85 C 1.009 0.89015 0.54454 0.0
C86 C 0.04301 0.83564 0.60242 0.0
N87 N 0.10534 0.95572 0.55337 0.0
C88 C 0.13803 0.97716 0.54907 0.0
C89 C 0.14406 0.90288 0.60833 0.0
C90 C 0.10818 0.91872 0.5805 0.0
C91 C 0.17728 0.92561 0.60634 0.0
C92 C 0.17433 0.96269 0.57595 0.0
H93 H 0.04313 0.80582 0.62244 0.0
H94 H 0.11401 0.81268 0.65668 0.0
H95 H 0.173 0.85216 0.65834 0.0
O96 O 0.0801 0.96287 0.46172 0.0
O97 O 0.04937 0.96758 0.59533 0.0
O98 O 0.05352 0.02858 0.61468 0.0
O99 O 0.01768 0.95142 0.45026 0.0
O100 O 0.07137 0.03283 0.5011 0.0
O101 O 0.05745 0.06591 0.56329 0.0
O102 O 0.97899 0.03675 0.64921 0.0
O103 O 0.96867 0.04257 0.50431 0.0
O104 O 0.02019 0.03131 0.46686 0.0
O105 O 0.98645 0.09675 0.61675 0.0
O106 O 0.97909 0.99367 0.59324 0.0
O107 O 0.98261 0.96949 0.52077 0.0
C108 C 0.06312 0.9915 0.62526 0.0
C109 C 0.05461 0.93488 0.38819 0.0
C110 C 0.08886 0.93069 0.31801 0.0
C111 C 0.05952 0.90674 0.30001 0.0
C112 C 0.02562 0.91085 0.36941 0.0
C113 C 0.02823 0.89677 0.32571 0.0
C114 C 0.08662 0.94454 0.36251 0.0
C115 C 0.07747 0.06054 0.52771 0.0
C116 C 0.05075 0.94998 0.434 0.0
C117 C 0.11215 0.84224 0.63547 0.0
C118 C 0.14574 0.86474 0.63641 0.0
C119 C 0.98429 0.04346 0.46369 0.0
C120 C 0.97988 0.08398 0.70299 0.0
C121 C 0.94983 0.09097 0.77523 0.0
C122 C 0.97814 0.11794 0.78723 0.0
C123 C 1.00826 0.11081 0.71567 0.0
C124 C 0.95074 0.07395 0.73314 0.0
C125 C 1.00726 0.12771 0.75764 0.0
C126 C 0.9671 0.97032 0.56166 0.0
C127 C 0.97506 0.07257 0.65351 0.0
H128 H 0.06104 0.89552 0.2661 0.0
H129 H 1.00095 0.90279 0.38865 0.0
H130 H 1.00587 0.8781 0.31163 0.0
H131 H 0.10925 0.96306 0.37648 0.0
H132 H 0.97736 0.13179 0.81922 0.0
H133 H 0.03023 0.11984 0.69205 0.0
H134 H 0.92807 0.05413 0.72285 0.0
H135 H 0.02859 0.14903 0.76666 0.0
Tb136 Tb 0.48019 0.4969 0.99379 0.0
C137 C 0.63974 0.56177 0.0638 0.0
N138 N 0.62265 0.52819 0.08272 0.0
C139 C 0.68297 0.49339 0.08998 0.0
C140 C 0.67882 0.56211 0.05582 0.0
C141 C 0.64457 0.49468 0.09873 0.0
C142 C 0.70002 0.52712 0.06776 0.0
C143 C 0.63684 0.63215 0.04155 0.0
C144 C 0.61911 0.59648 0.05659 0.0
C145 C 0.67521 0.63243 0.03167 0.0
C146 C 0.69611 0.5975 0.03864 0.0
Tb147 Tb 0.5604 0.53582 0.09746 0.0
N148 N 0.58201 0.5953 0.06644 0.0
C149 C 0.61589 0.66646 0.03858 0.0
C150 C 0.56234 0.62853 0.06678 0.0
C151 C 0.57866 0.66462 0.05189 0.0
H152 H 0.63336 0.469 0.11998 0.0
H153 H 0.56273 0.69094 0.05127 0.0
H154 H 0.40646 0.56113 0.97448 0.0
H155 H 0.48624 0.34076 0.04816 0.0
H156 H 0.53418 0.62701 0.0787 0.0
H157 H 0.62859 0.69446 0.02744 0.0
H158 H 0.51256 0.40514 0.01988 0.0
H159 H 0.6998 0.46657 0.10186 0.0
H160 H 0.68934 0.65954 0.01988 0.0
H161 H 0.72608 0.59827 0.03227 0.0
H162 H 0.33873 0.56061 0.989 0.0
H163 H 0.73012 0.52618 0.06224 0.0
H164 H 0.41866 0.33479 0.06591 0.0
N165 N 0.41738 0.50124 0.00671 0.0
C166 C 0.40103 0.46674 0.02328 0.0
C167 C 0.3561 0.5341 0.99964 0.0
C168 C 0.36171 0.46489 0.03029 0.0
C169 C 0.39504 0.53444 0.99268 0.0
C170 C 0.33945 0.49924 0.01905 0.0
N171 N 0.46161 0.43578 0.02509 0.0
C172 C 0.48376 0.40319 0.02963 0.0
C173 C 0.40728 0.39669 0.04797 0.0
C174 C 0.42371 0.43299 0.03237 0.0
C175 C 0.4303 0.36325 0.0543 0.0
C176 C 0.46855 0.36651 0.04455 0.0
H177 H 0.30912 0.49902 0.02385 0.0
H178 H 0.3155 0.42686 0.05286 0.0
H179 H 0.35526 0.3672 0.06809 0.0
O180 O 0.46937 0.46159 0.9383 0.0
O181 O 0.4718 0.48662 0.0741 0.0
O182 O 0.53217 0.48196 0.12652 0.0
O183 O 0.44927 0.52193 0.92194 0.0
O184 O 0.53921 0.47188 0.00686 0.0
O185 O 0.56617 0.47526 0.08992 0.0
O186 O 0.54528 0.55871 0.15868 0.0
O187 O 0.55016 0.56703 0.01809 0.0
O188 O 0.5346 0.52037 0.97046 0.0
O189 O 0.60354 0.5383 0.15963 0.0
O190 O 0.4994 0.55489 0.08457 0.0
O191 O 0.47555 0.55809 0.99949 0.0
C192 C 0.49506 0.47311 0.11717 0.0
C193 C 0.43101 0.48581 0.85457 0.0
C194 C 0.42462 0.45477 0.78104 0.0
C195 C 0.38976 0.4759 0.76075 0.0
C196 C 0.39624 0.50673 0.83321 0.0
C197 C 0.37566 0.50156 0.78675 0.0
C198 C 0.44508 0.4593 0.82855 0.0
C199 C 0.56409 0.46024 0.04895 0.0
C200 C 0.44982 0.48941 0.90596 0.0
C201 C 0.34564 0.42883 0.04718 0.0
C202 C 0.36831 0.39484 0.05586 0.0
C203 C 0.55086 0.5533 0.9769 0.0
C204 C 0.58986 0.54889 0.23817 0.0
C205 C 0.59826 0.5773 0.3138 0.0
C206 C 0.61872 0.54376 0.34156 0.0
C207 C 0.61033 0.51548 0.26659 0.0
C208 C 0.58387 0.57982 0.26205 0.0
C209 C 0.62468 0.51305 0.31805 0.0
C210 C 0.47816 0.57195 0.04159 0.0
C211 C 0.58104 0.55525 0.18253 0.0
H212 H 0.37339 0.47249 0.72452 0.0
H213 H 0.38439 0.5264 0.85313 0.0
H214 H 0.34859 0.51743 0.77087 0.0
H215 H 0.47175 0.44275 0.84476 0.0
H216 H 0.63088 0.54177 0.38123 0.0
H217 H 0.61639 0.49186 0.24867 0.0
H218 H 0.56934 0.60628 0.24007 0.0
H219 H 0.64121 0.48765 0.33954 0.0
H220 H 0.20717 0.26269 0.42741 0.0
H221 H 0.1541 0.05424 0.57213 0.0
H222 H 0.29562 0.17819 0.50742 0.0
H223 H 0.0724 0.12778 0.45846 0.0
H224 H 0.2066 0.09869 0.55051 0.0
H225 H 0.15747 0.21381 0.44021 0.0
C226 C 0.21618 0.23348 0.44661 0.0
C227 C 0.25566 0.22428 0.46515 0.0
C228 C 0.17722 0.10511 0.53027 0.0
C229 C 0.19867 0.16815 0.48137 0.0
C230 C 0.14734 0.07975 0.54251 0.0
C231 C 0.10911 0.08747 0.51675 0.0
C232 C 0.16842 0.13896 0.49305 0.0
C233 C 0.10158 0.12104 0.47923 0.0
C234 C 0.18778 0.2056 0.45414 0.0
C235 C 0.2656 0.18633 0.49155 0.0
N236 N 0.13089 0.14575 0.46882 0.0
N237 N 0.23724 0.15963 0.49899 0.0
H238 H 0.31837 0.76893 0.96511 0.0
H239 H 0.46484 0.5997 0.12397 0.0
H240 H 0.35001 0.7467 0.12783 0.0
H241 H 0.4409 0.62512 0.96027 0.0
H242 H 0.42681 0.65676 0.12511 0.0
H243 H 0.36733 0.72047 0.9613 0.0
C244 C 0.33602 0.75406 0.99991 0.0
C245 C 0.32985 0.76115 0.04685 0.0
C246 C 0.42989 0.65003 0.08885 0.0
C247 C 0.38545 0.70576 0.04305 0.0
C248 C 0.45159 0.61731 0.08813 0.0
C249 C 0.45558 0.60719 0.04189 0.0
C250 C 0.41167 0.67288 0.04303 0.0
C251 C 0.43797 0.63141 0.99679 0.0
C252 C 0.36384 0.72644 0.9978 0.0
C253 C 0.35356 0.7416 0.09094 0.0
N254 N 0.41648 0.66299 0.99848 0.0
N255 N 0.38002 0.71448 0.088 0.0
H256 H 0.7797 0.8528 0.69826 0.0
H257 H 0.91893 0.93347 0.49609 0.0
H258 H 0.76562 0.82436 0.5498 0.0
H259 H 0.93888 0.9502 0.6508 0.0
H260 H 0.86355 0.89261 0.51466 0.0
H261 H 0.83903 0.88761 0.6816 0.0
C262 C 0.78926 0.85388 0.66217 0.0
C263 C 0.76751 0.83641 0.62496 0.0
C264 C 0.8802 0.90503 0.5446 0.0
C265 C 0.83541 0.87599 0.60552 0.0
C266 C 0.91193 0.92825 0.53409 0.0
C267 C 0.93384 0.94501 0.57208 0.0
C268 C 0.87002 0.8989 0.59331 0.0
C269 C 0.92288 0.9379 0.62032 0.0
C270 C 0.82313 0.87369 0.65263 0.0
C271 C 0.7814 0.83807 0.57908 0.0
N272 N 0.89173 0.91551 0.62947 0.0
N273 N 0.81435 0.85781 0.57045 0.0
H274 H 0.72408 0.29175 0.99595 0.0
H275 H 0.56983 0.39372 0.1193 0.0
H276 H 0.65667 0.22989 0.10444 0.0
H277 H 0.61274 0.44944 0.98401 0.0
H278 H 0.60768 0.33522 0.1207 0.0
H279 H 0.68996 0.3521 0.99736 0.0
C280 C 0.70228 0.29104 0.02029 0.0
C281 C 0.69342 0.25603 0.0506 0.0
C282 C 0.60914 0.36031 0.09092 0.0
C283 C 0.65411 0.32442 0.05199 0.0
C284 C 0.58779 0.39363 0.09038 0.0
C285 C 0.58848 0.42605 0.05158 0.0
C286 C 0.63194 0.35982 0.05297 0.0
C287 C 0.61148 0.42466 0.01432 0.0
C288 C 0.68274 0.32532 0.02093 0.0
C289 C 0.66466 0.25638 0.08101 0.0
N290 N 0.63257 0.39205 0.01604 0.0
N291 N 0.64607 0.29003 0.08098 0.0
H292 H 0.24459 0.8558 0.15645 0.0
H293 H 0.08912 0.98257 0.22991 0.0
H294 H 0.20249 0.9651 0.06096 0.0
H295 H 0.16111 0.89692 0.33975 0.0
H296 H 0.13487 0.98222 0.1705 0.0
H297 H 0.21962 0.87457 0.2263 0.0
C298 C 0.23085 0.88412 0.15007 0.0
C299 C 0.22544 0.90859 0.10192 0.0
C300 C 0.14137 0.96431 0.20809 0.0
C301 C 0.19525 0.9297 0.18238 0.0
C302 C 0.1154 0.96474 0.24204 0.0
C303 C 0.12158 0.93977 0.28958 0.0
C304 C 0.17307 0.93793 0.22144 0.0
C305 C 0.15556 0.91668 0.30342 0.0
C306 C 0.2163 0.89473 0.19027 0.0
C307 C 0.20645 0.94459 0.09666 0.0
N308 N 0.17968 0.91571 0.2691 0.0
N309 N 0.19146 0.95372 0.13605 0.0
H310 H 0.65484 0.62806 0.70824 0.0
H311 H 0.56435 0.63156 0.9592 0.0
H312 H 0.64035 0.7334 0.76196 0.0
H313 H 0.57532 0.52922 0.89758 0.0
H314 H 0.59455 0.66936 0.89069 0.0
H315 H 0.62877 0.59152 0.78065 0.0
C316 C 0.64608 0.64351 0.73538 0.0
C317 C 0.64932 0.68388 0.72872 0.0
C318 C 0.59048 0.63862 0.89226 0.0
C319 C 0.61932 0.64206 0.81223 0.0
C320 C 0.57357 0.61691 0.93169 0.0
C321 C 0.56803 0.57694 0.93485 0.0
C322 C 0.60165 0.62027 0.85536 0.0
C323 C 0.57917 0.55987 0.8969 0.0
C324 C 0.63123 0.62261 0.77684 0.0
C325 C 0.63832 0.70228 0.76571 0.0
N326 N 0.59546 0.58158 0.85891 0.0
N327 N 0.62352 0.68126 0.80577 0.0
H328 H 0.89761 0.12729 0.14602 0.0
H329 H 0.90493 0.05074 0.44291 0.0
H330 H 0.79674 0.12708 0.21951 0.0
H331 H 1.00681 0.06322 0.37015 0.0
H332 H 0.86438 0.07593 0.36172 0.0
H333 H 0.93721 0.10129 0.22755 0.0
C334 C 0.88374 0.12162 0.17947 0.0
C335 C 0.84368 0.12896 0.17593 0.0
C336 C 0.89559 0.07329 0.36343 0.0
C337 C 0.8892 0.09949 0.26987 0.0
C338 C 0.91889 0.05922 0.40996 0.0
C339 C 0.95953 0.05599 0.4137 0.0
C340 C 0.91293 0.08366 0.31993 0.0
C341 C 0.97569 0.06567 0.36917 0.0
C342 C 0.90647 0.10691 0.22608 0.0
C343 C 0.8275 0.12187 0.22063 0.0
N344 N 0.95232 0.0792 0.32412 0.0
N345 N 0.85034 0.10732 0.26586 0.0
H346 H 0.4279 0.2736 0.60453 0.0
H347 H 0.45044 0.47748 0.69212 0.0
H348 H 0.39141 0.38531 0.51227 0.0
H349 H 0.4283 0.37496 0.79837 0.0
H350 H 0.45299 0.43812 0.62837 0.0
H351 H 0.44759 0.3054 0.67798 0.0
C352 C 0.42412 0.30466 0.59978 0.0
C353 C 0.40846 0.32699 0.5522 0.0
C354 C 0.44851 0.42398 0.666 0.0
C355 C 0.43116 0.36311 0.63487 0.0
C356 C 0.44746 0.44638 0.70246 0.0
C357 C 0.43883 0.42942 0.75021 0.0
C358 C 0.44046 0.38432 0.67706 0.0
C359 C 0.43492 0.389 0.76176 0.0
C360 C 0.43545 0.32269 0.64142 0.0
C361 C 0.40419 0.36709 0.54787 0.0
N362 N 0.43503 0.36771 0.72498 0.0
N363 N 0.41551 0.38374 0.58846 0.0
H364 H 0.58422 0.69535 0.55652 0.0
H365 H 0.63756 0.64511 0.30209 0.0
H366 H 0.69654 0.71516 0.50851 0.0
H367 H 0.55321 0.58269 0.38474 0.0
H368 H 0.64561 0.68999 0.36151 0.0
H369 H 0.56077 0.67129 0.47904 0.0
C370 C 0.604 0.69491 0.52984 0.0
C371 C 0.64285 0.7067 0.54005 0.0
C372 C 0.62465 0.66702 0.36583 0.0
C373 C 0.61538 0.68057 0.45017 0.0
C374 C 0.61985 0.64171 0.33181 0.0
C375 C 0.595 0.61015 0.3392 0.0
C376 C 0.60432 0.6606 0.40713 0.0
C377 C 0.57282 0.60665 0.37828 0.0
C378 C 0.59033 0.68156 0.48531 0.0
C379 C 0.66639 0.7067 0.50269 0.0
N380 N 0.57831 0.63131 0.41126 0.0
N381 N 0.65236 0.69357 0.4597 0.0
H382 H 0.76962 0.13619 0.94038 0.0
H383 H 0.95785 0.04713 0.86921 0.0
H384 H 0.88374 0.11673 0.03276 0.0
H385 H 0.87378 0.11635 0.75383 0.0
H386 H 0.91536 0.04996 0.93144 0.0
H387 H 0.79524 0.11167 0.87302 0.0
C388 C 0.79978 0.12654 0.94676 0.0
C389 C 0.82433 0.12792 0.99282 0.0
C390 C 0.90566 0.06371 0.89223 0.0
C391 C 0.853 0.09894 0.9172 0.0
C392 C 0.92973 0.0618 0.85682 0.0
C393 C 0.91932 0.08199 0.80697 0.0
C394 C 0.87141 0.08663 0.87773 0.0
C395 C 0.8827 0.10074 0.79236 0.0
C396 C 0.81415 0.11229 0.90859 0.0
C397 C 0.86316 0.11503 0.99893 0.0
N398 N 0.86021 0.10342 0.82802 0.0
N399 N 0.87609 0.10101 0.9618 0.0
H400 H 0.3949 0.39774 0.38895 0.0
H401 H 0.47737 0.39666 0.13186 0.0
H402 H 0.40404 0.29413 0.32921 0.0
H403 H 0.47499 0.49732 0.19849 0.0
H404 H 0.44563 0.3595 0.1994 0.0
H405 H 0.41864 0.43544 0.31536 0.0
C406 C 0.40187 0.38287 0.36023 0.0
C407 C 0.39829 0.34248 0.3659 0.0
C408 C 0.45182 0.38974 0.19926 0.0
C409 C 0.42531 0.38582 0.28085 0.0
C410 C 0.46952 0.41099 0.16035 0.0
C411 C 0.47773 0.45014 0.15902 0.0
C412 C 0.44283 0.4078 0.23766 0.0
C413 C 0.46872 0.46715 0.1981 0.0
C414 C 0.41536 0.40451 0.31808 0.0
C415 C 0.4066 0.3251 0.3266 0.0
N416 N 0.45175 0.44588 0.23588 0.0
N417 N 0.42008 0.34682 0.28595 0.0
H418 H 0.18315 0.84695 0.9037 0.0
H419 H 0.10892 0.03209 0.68713 0.0
H420 H 0.21006 0.96504 0.91521 0.0
H421 H 0.07281 0.91577 0.67682 0.0
H422 H 0.14806 1.00702 0.76952 0.0
H423 H 0.14446 0.87041 0.81934 0.0
C424 C 0.18105 0.87778 0.88821 0.0
C425 C 0.19964 0.90421 0.91626 0.0
C426 C 0.13173 0.98686 0.74924 0.0
C427 C 0.15591 0.93117 0.82014 0.0
C428 C 0.10929 1.0012 0.70212 0.0
C429 C 0.08769 0.976 0.67476 0.0
C430 C 0.13271 0.94692 0.7695 0.0
C431 C 0.08948 0.93621 0.69614 0.0
C432 C 0.15894 0.89116 0.84026 0.0
C433 C 0.19584 0.94382 0.8949 0.0
N434 N 0.11158 0.92288 0.74228 0.0
N435 N 0.17454 0.95607 0.84814 0.0
loop_
_geom_bond_atom_site_label_1
_geom_bond_atom_site_label_2
_geom_bond_distance
_geom_bond_site_symmetry_2
_ccdc_geom_bond_type
H0 C7 0.929 . S
H1 C10 0.930 . S
H2 C12 0.929 . S
H3 C4 0.969 . S
C4 H3 0.969 . S
C4 O5 1.550 . S
C4 H6 0.973 . S
O5 C4 1.550 . S
O5 C11 1.412 . S
H6 C4 0.973 . S
C7 H0 0.929 . S
C7 C8 1.400 1_554 S
C7 C9 1.364 . S
C8 C7 1.400 1_556 S
C8 C12 1.377 . S
C9 C7 1.364 . S
C9 C10 1.374 . S
C10 H1 0.930 . S
C10 C9 1.374 . S
C10 C11 1.383 . S
C11 O5 1.412 . S
C11 C10 1.383 . S
C11 C12 1.394 1_554 S
C12 H2 0.929 . S
C12 C8 1.377 . S
C12 C11 1.394 1_556 S
H13 C20 0.929 . S
H14 C23 0.930 . S
H15 C25 0.929 . S
H16 C17 0.969 . S
C17 H16 0.969 . S
C17 O18 1.550 . S
C17 H19 0.973 . S
O18 C17 1.550 . S
O18 C24 1.412 . S
H19 C17 0.973 . S
C20 H13 0.929 . S
C20 C21 1.400 . S
C20 C22 1.364 . S
C21 C20 1.400 . S
C21 C25 1.377 . S
C22 C20 1.364 . S
C22 C23 1.374 . S
C23 H14 0.930 . S
C23 C22 1.374 . S
C23 C24 1.383 . S
C24 O18 1.412 . S
C24 C23 1.383 . S
C24 C25 1.394 . S
C25 H15 0.929 . S
C25 C21 1.377 . S
C25 C24 1.394 . S
H26 C33 0.929 . S
H27 C36 0.930 1_556 S
H28 C38 0.929 . S
H29 C30 0.969 . S
C30 H29 0.969 . S
C30 O31 1.550 . S
C30 H32 0.973 1_554 S
O31 C30 1.550 . S
O31 C37 1.412 . S
H32 C30 0.973 1_556 S
C33 H26 0.929 . S
C33 C34 1.400 . S
C33 C35 1.364 . S
C34 C33 1.400 . S
C34 C38 1.377 . S
C35 C33 1.364 . S
C35 C36 1.374 . S
C36 H27 0.930 1_554 S
C36 C35 1.374 . S
C36 C37 1.383 . S
C37 O31 1.412 . S
C37 C36 1.383 . S
C37 C38 1.394 . S
C38 H28 0.929 . S
C38 C34 1.377 . S
C38 C37 1.394 . S
H39 C46 0.929 . S
H40 C49 0.930 . S
H41 C51 0.929 . S
H42 C43 0.969 . S
C43 H42 0.969 . S
C43 O44 1.550 . S
C43 H45 0.973 . S
O44 C43 1.550 . S
O44 C50 1.412 . S
H45 C43 0.973 . S
C46 H39 0.929 . S
C46 C47 1.400 . S
C46 C48 1.364 . S
C47 C46 1.400 . S
C47 C51 1.377 . S
C48 C46 1.364 . S
C48 C49 1.374 . S
C49 H40 0.930 . S
C49 C48 1.374 . S
C49 C50 1.383 . S
C50 O44 1.412 . S
C50 C49 1.383 . S
C50 C51 1.394 . S
C51 H41 0.929 . S
C51 C47 1.377 . S
C51 C50 1.394 . S
Tb52 N81 2.617 . S
Tb52 N87 2.572 . S
Tb52 O96 2.465 . S
Tb52 O97 2.387 . S
Tb52 O99 2.428 . S
Tb52 O100 2.308 1_565 S
Tb52 O104 2.349 1_465 S
Tb52 O107 2.393 1_455 S
Tb52 C116 2.802 . S
C53 N54 1.379 . S
C53 C56 1.416 . S
C53 C60 1.424 . S
N54 C53 1.379 . S
N54 C57 1.334 1_655 S
N54 Tb63 2.617 . S
C55 C57 1.390 . S
C55 C58 1.339 1_455 S
C55 H75 0.930 . S
C56 C53 1.416 . S
C56 C58 1.416 . S
C56 C62 1.448 . S
C57 N54 1.334 1_455 S
C57 C55 1.390 . S
C57 H68 0.930 . S
C58 C55 1.339 1_655 S
C58 C56 1.416 . S
C58 H79 0.930 . S
C59 C60 1.413 . S
C59 C61 1.427 . S
C59 C65 1.416 . S
C60 C53 1.424 . S
C60 C59 1.413 . S
C60 N64 1.361 . S
C61 C59 1.427 . S
C61 C62 1.328 . S
C61 H76 0.929 . S
C62 C56 1.448 . S
C62 C61 1.328 . S
C62 H77 0.930 . S
Tb63 N54 2.617 . S
Tb63 N64 2.572 . S
Tb63 O98 2.349 1_655 S
Tb63 O101 2.393 1_655 S
Tb63 O102 2.465 . S
Tb63 O103 2.387 . S
Tb63 O105 2.428 . S
Tb63 O106 2.308 1_545 S
Tb63 C127 2.802 . S
N64 C60 1.361 . S
N64 Tb63 2.572 . S
N64 C66 1.340 . S
C65 C59 1.416 . S
C65 C67 1.332 . S
C65 H73 0.931 . S
C66 N64 1.340 . S
C66 C67 1.407 . S
C66 H72 0.930 . S
C67 C65 1.332 . S
C67 C66 1.407 . S
C67 H69 0.929 . S
H68 C57 0.930 . S
H69 C67 0.929 . S
H70 C85 0.930 1_655 S
H71 C92 0.929 . S
H72 C66 0.930 . S
H73 C65 0.931 . S
H74 C88 0.930 . S
H75 C55 0.930 . S
H76 C61 0.929 . S
H77 C62 0.930 . S
H78 C83 0.930 1_655 S
H79 C58 0.930 . S
H80 C91 0.931 . S
N81 Tb52 2.617 . S
N81 C82 1.379 . S
N81 C85 1.334 . S
C82 N81 1.379 . S
C82 C84 1.416 . S
C82 C90 1.424 . S
C83 H78 0.930 1_455 S
C83 C85 1.390 . S
C83 C86 1.339 . S
C84 C82 1.416 . S
C84 C86 1.416 . S
C84 C117 1.448 . S
C85 H70 0.930 1_455 S
C85 N81 1.334 . S
C85 C83 1.390 . S
C86 C83 1.339 . S
C86 C84 1.416 . S
C86 H93 0.930 . S
N87 Tb52 2.572 . S
N87 C88 1.340 . S
N87 C90 1.361 . S
C88 H74 0.930 . S
C88 N87 1.340 . S
C88 C92 1.407 . S
C89 C90 1.413 . S
C89 C91 1.416 . S
C89 C118 1.427 . S
C90 C82 1.424 . S
C90 N87 1.361 . S
C90 C89 1.413 . S
C91 H80 0.931 . S
C91 C89 1.416 . S
C91 C92 1.332 . S
C92 H71 0.929 . S
C92 C88 1.407 . S
C92 C91 1.332 . S
H93 C86 0.930 . S
H94 C117 0.930 . S
H95 C118 0.929 . S
O96 Tb52 2.465 . S
O96 C116 1.264 . S
O97 Tb52 2.387 . S
O97 C108 1.264 . S
O98 Tb63 2.349 1_455 S
O98 C108 1.243 1_545 S
O99 Tb52 2.428 . S
O99 C116 1.256 . S
O100 Tb52 2.308 1_545 S
O100 C115 1.266 . S
O101 Tb63 2.393 1_455 S
O101 C115 1.248 . S
O102 Tb63 2.465 . S
O102 C127 1.264 . S
O103 Tb63 2.387 . S
O103 C119 1.264 . S
O104 Tb52 2.349 1_645 S
O104 C119 1.243 . S
O105 Tb63 2.428 . S
O105 C127 1.256 . S
O106 Tb63 2.308 1_565 S
O106 C126 1.266 . S
O107 Tb52 2.393 1_655 S
O107 C126 1.248 . S
C108 O97 1.264 . S
C108 O98 1.243 1_565 S
C109 C112 1.399 . S
C109 C114 1.383 . S
C109 C116 1.496 . S
C110 C111 1.399 . S
C110 C114 1.389 . S
C111 C110 1.399 . S
C111 C113 1.380 . S
C111 H128 0.929 . S
C112 C109 1.399 . S
C112 C113 1.392 . S
C112 H129 0.929 . S
C113 C111 1.380 . S
C113 C112 1.392 . S
C113 H130 0.929 . S
C114 C109 1.383 . S
C114 C110 1.389 . S
C114 H131 0.931 . S
C115 O100 1.266 . S
C115 O101 1.248 . S
C116 Tb52 2.802 . S
C116 O96 1.264 . S
C116 O99 1.256 . S
C116 C109 1.496 . S
C117 C84 1.448 . S
C117 H94 0.930 . S
C117 C118 1.328 . S
C118 C89 1.427 . S
C118 H95 0.929 . S
C118 C117 1.328 . S
C119 O103 1.264 . S
C119 O104 1.243 . S
C120 C123 1.399 . S
C120 C124 1.383 . S
C120 C127 1.496 . S
C121 C122 1.399 . S
C121 C124 1.389 . S
C122 C121 1.399 . S
C122 C125 1.380 . S
C122 H132 0.929 . S
C123 C120 1.399 . S
C123 C125 1.392 . S
C123 H133 0.929 . S
C124 C120 1.383 . S
C124 C121 1.389 . S
C124 H134 0.931 . S
C125 C122 1.380 . S
C125 C123 1.392 . S
C125 H135 0.929 . S
C126 O106 1.266 . S
C126 O107 1.248 . S
C127 Tb63 2.802 . S
C127 O102 1.264 . S
C127 O105 1.256 . S
C127 C120 1.496 . S
H128 C111 0.929 . S
H129 C112 0.929 . S
H130 C113 0.929 . S
H131 C114 0.931 . S
H132 C122 0.929 . S
H133 C123 0.929 . S
H134 C124 0.931 . S
H135 C125 0.929 . S
Tb136 N165 2.617 . S
Tb136 N171 2.572 1_556 S
Tb136 O180 2.465 . S
Tb136 O181 2.387 1_556 S
Tb136 O183 2.428 . S
Tb136 O184 2.308 1_556 S
Tb136 O188 2.349 . S
Tb136 O191 2.393 1_556 S
Tb136 C200 2.802 . S
C137 N138 1.379 . S
C137 C140 1.416 . S
C137 C144 1.424 . S
N138 C137 1.379 . S
N138 C141 1.334 . S
N138 Tb147 2.617 . S
C139 C141 1.390 . S
C139 C142 1.339 . S
C139 H159 0.930 . S
C140 C137 1.416 . S
C140 C142 1.416 . S
C140 C146 1.448 . S
C141 N138 1.334 . S
C141 C139 1.390 . S
C141 H152 0.930 . S
C142 C139 1.339 . S
C142 C140 1.416 . S
C142 H163 0.930 . S
C143 C144 1.413 . S
C143 C145 1.427 . S
C143 C149 1.416 . S
C144 C137 1.424 . S
C144 C143 1.413 . S
C144 N148 1.361 . S
C145 C143 1.427 . S
C145 C146 1.328 . S
C145 H160 0.929 . S
C146 C140 1.448 . S
C146 C145 1.328 . S
C146 H161 0.930 . S
Tb147 N138 2.617 . S
Tb147 N148 2.572 . S
Tb147 O182 2.349 . S
Tb147 O185 2.393 . S
Tb147 O186 2.465 . S
Tb147 O187 2.387 . S
Tb147 O189 2.428 . S
Tb147 O190 2.308 . S
Tb147 C211 2.802 . S
N148 C144 1.361 . S
N148 Tb147 2.572 . S
N148 C150 1.340 . S
C149 C143 1.416 . S
C149 C151 1.332 . S
C149 H157 0.931 . S
C150 N148 1.340 . S
C150 C151 1.407 . S
C150 H156 0.930 . S
C151 C149 1.332 . S
C151 C150 1.407 . S
C151 H153 0.929 . S
H152 C141 0.930 . S
H153 C151 0.929 . S
H154 C169 0.930 . S
H155 C176 0.929 . S
H156 C150 0.930 . S
H157 C149 0.931 . S
H158 C172 0.930 . S
H159 C139 0.930 . S
H160 C145 0.929 . S
H161 C146 0.930 . S
H162 C167 0.930 . S
H163 C142 0.930 . S
H164 C175 0.931 . S
N165 Tb136 2.617 . S
N165 C166 1.379 1_556 S
N165 C169 1.334 . S
C166 N165 1.379 1_554 S
C166 C168 1.416 . S
C166 C174 1.424 . S
C167 H162 0.930 . S
C167 C169 1.390 . S
C167 C170 1.339 1_556 S
C168 C166 1.416 . S
C168 C170 1.416 . S
C168 C201 1.448 . S
C169 H154 0.930 . S
C169 N165 1.334 . S
C169 C167 1.390 . S
C170 C167 1.339 1_554 S
C170 C168 1.416 . S
C170 H177 0.930 . S
N171 Tb136 2.572 1_554 S
N171 C172 1.340 . S
N171 C174 1.361 . S
C172 H158 0.930 . S
C172 N171 1.340 . S
C172 C176 1.407 . S
C173 C174 1.413 . S
C173 C175 1.416 . S
C173 C202 1.427 . S
C174 C166 1.424 . S
C174 N171 1.361 . S
C174 C173 1.413 . S
C175 H164 0.931 . S
C175 C173 1.416 . S
C175 C176 1.332 . S
C176 H155 0.929 . S
C176 C172 1.407 . S
C176 C175 1.332 . S
H177 C170 0.930 . S
H178 C201 0.930 . S
H179 C202 0.929 . S
O180 Tb136 2.465 . S
O180 C200 1.264 . S
O181 Tb136 2.387 1_554 S
O181 C192 1.264 . S
O182 Tb147 2.349 . S
O182 C192 1.243 . S
O183 Tb136 2.428 . S
O183 C200 1.256 . S
O184 Tb136 2.308 1_554 S
O184 C199 1.266 . S
O185 Tb147 2.393 . S
O185 C199 1.248 . S
O186 Tb147 2.465 . S
O186 C211 1.264 . S
O187 Tb147 2.387 . S
O187 C203 1.264 1_554 S
O188 Tb136 2.349 . S
O188 C203 1.243 . S
O189 Tb147 2.428 . S
O189 C211 1.256 . S
O190 Tb147 2.308 . S
O190 C210 1.266 . S
O191 Tb136 2.393 1_554 S
O191 C210 1.248 . S
C192 O181 1.264 . S
C192 O182 1.243 . S
C193 C196 1.399 . S
C193 C198 1.383 . S
C193 C200 1.496 . S
C194 C195 1.399 . S
C194 C198 1.389 . S
C195 C194 1.399 . S
C195 C197 1.380 . S
C195 H212 0.929 . S
C196 C193 1.399 . S
C196 C197 1.392 . S
C196 H213 0.929 . S
C197 C195 1.380 . S
C197 C196 1.392 . S
C197 H214 0.929 . S
C198 C193 1.383 . S
C198 C194 1.389 . S
C198 H215 0.931 . S
C199 O184 1.266 . S
C199 O185 1.248 . S
C200 Tb136 2.802 . S
C200 O180 1.264 . S
C200 O183 1.256 . S
C200 C193 1.496 . S
C201 C168 1.448 . S
C201 H178 0.930 . S
C201 C202 1.328 . S
C202 C173 1.427 . S
C202 H179 0.929 . S
C202 C201 1.328 . S
C203 O187 1.264 1_556 S
C203 O188 1.243 . S
C204 C207 1.399 . S
C204 C208 1.383 . S
C204 C211 1.496 . S
C205 C206 1.399 . S
C205 C208 1.389 . S
C206 C205 1.399 . S
C206 C209 1.380 . S
C206 H216 0.929 . S
C207 C204 1.399 . S
C207 C209 1.392 . S
C207 H217 0.929 . S
C208 C204 1.383 . S
C208 C205 1.389 . S
C208 H218 0.931 . S
C209 C206 1.380 . S
C209 C207 1.392 . S
C209 H219 0.929 . S
C210 O190 1.266 . S
C210 O191 1.248 . S
C211 Tb147 2.802 . S
C211 O186 1.264 . S
C211 O189 1.256 . S
C211 C204 1.496 . S
H212 C195 0.929 . S
H213 C196 0.929 . S
H214 C197 0.929 . S
H215 C198 0.931 . S
H216 C206 0.929 . S
H217 C207 0.929 . S
H218 C208 0.931 . S
H219 C209 0.929 . S
H220 C226 0.930 . S
H221 C230 0.930 . S
H222 C235 0.929 . S
H223 C233 0.929 . S
H224 C228 0.929 . S
H225 C234 0.929 . S
C226 H220 0.930 . S
C226 C227 1.367 . S
C226 C234 1.378 . S
C227 C226 1.367 . S
C227 C235 1.433 . S
C228 H224 0.929 . S
C228 C230 1.378 . S
C228 C232 1.350 . S
C229 C232 1.463 . S
C229 C234 1.350 . S
C229 N237 1.427 . S
C230 H221 0.930 . S
C230 C228 1.378 . S
C230 C231 1.367 . S
C231 C230 1.367 . S
C231 C233 1.433 . S
C232 C228 1.350 . S
C232 C229 1.463 . S
C232 N236 1.427 . S
C233 H223 0.929 . S
C233 C231 1.433 . S
C233 N236 1.384 . S
C234 H225 0.929 . S
C234 C226 1.378 . S
C234 C229 1.350 . S
C235 H222 0.929 . S
C235 C227 1.433 . S
C235 N237 1.384 . S
N236 C232 1.427 . S
N236 C233 1.384 . S
N237 C229 1.427 . S
N237 C235 1.384 . S
H238 C244 0.930 1_556 S
H239 C248 0.930 . S
H240 C253 0.929 . S
H241 C251 0.929 . S
H242 C246 0.929 . S
H243 C252 0.929 1_556 S
C244 H238 0.930 1_554 S
C244 C245 1.367 . S
C244 C252 1.378 . S
C245 C244 1.367 . S
C245 C253 1.433 . S
C246 H242 0.929 . S
C246 C248 1.378 . S
C246 C250 1.350 . S
C247 C250 1.463 . S
C247 C252 1.350 . S
C247 N255 1.427 . S
C248 H239 0.930 . S
C248 C246 1.378 . S
C248 C249 1.367 . S
C249 C248 1.367 . S
C249 C251 1.433 1_554 S
C250 C246 1.350 . S
C250 C247 1.463 . S
C250 N254 1.419 1_554 S
C251 H241 0.929 . S
C251 C249 1.433 1_556 S
C251 N254 1.386 . S
C252 H243 0.929 1_554 S
C252 C244 1.378 . S
C252 C247 1.350 . S
C253 H240 0.929 . S
C253 C245 1.433 . S
C253 N255 1.384 . S
N254 C250 1.419 1_556 S
N254 C251 1.386 . S
N255 C247 1.427 . S
N255 C253 1.384 . S
H256 C262 0.930 . S
H257 C266 0.930 . S
H258 C271 0.929 . S
H259 C269 0.929 . S
H260 C264 0.929 . S
H261 C270 0.929 . S
C262 H256 0.930 . S
C262 C263 1.367 . S
C262 C270 1.378 . S
C263 C262 1.367 . S
C263 C271 1.433 . S
C264 H260 0.929 . S
C264 C266 1.378 . S
C264 C268 1.350 . S
C265 C268 1.463 . S
C265 C270 1.350 . S
C265 N273 1.427 . S
C266 H257 0.930 . S
C266 C264 1.378 . S
C266 C267 1.367 . S
C267 C266 1.367 . S
C267 C269 1.433 . S
C268 C264 1.350 . S
C268 C265 1.463 . S
C268 N272 1.427 . S
C269 H259 0.929 . S
C269 C267 1.433 . S
C269 N272 1.384 . S
C270 H261 0.929 . S
C270 C262 1.378 . S
C270 C265 1.350 . S
C271 H258 0.929 . S
C271 C263 1.433 . S
C271 N273 1.384 . S
N272 C268 1.427 . S
N272 C269 1.384 . S
N273 C265 1.427 . S
N273 C271 1.384 . S
H274 C280 0.930 1_556 S
H275 C284 0.930 . S
H276 C289 0.929 . S
H277 C287 0.929 1_556 S
H278 C282 0.929 . S
H279 C288 0.929 1_556 S
C280 H274 0.930 1_554 S
C280 C281 1.367 . S
C280 C288 1.378 . S
C281 C280 1.367 . S
C281 C289 1.433 . S
C282 H278 0.929 . S
C282 C284 1.378 . S
C282 C286 1.350 . S
C283 C286 1.463 . S
C283 C288 1.350 . S
C283 N291 1.427 . S
C284 H275 0.930 . S
C284 C282 1.378 . S
C284 C285 1.367 . S
C285 C284 1.367 . S
C285 C287 1.433 . S
C286 C282 1.350 . S
C286 C283 1.463 . S
C286 N290 1.427 . S
C287 H277 0.929 1_554 S
C287 C285 1.433 . S
C287 N290 1.384 . S
C288 H279 0.929 1_554 S
C288 C280 1.378 . S
C288 C283 1.350 . S
C289 H276 0.929 . S
C289 C281 1.433 . S
C289 N291 1.384 . S
N290 C286 1.427 . S
N290 C287 1.384 . S
N291 C283 1.427 . S
N291 C289 1.384 . S
H292 C298 0.930 . S
H293 C302 0.930 . S
H294 C307 0.929 . S
H295 C305 0.929 . S
H296 C300 0.929 . S
H297 C306 0.929 . S
C298 H292 0.930 . S
C298 C299 1.367 . S
C298 C306 1.378 . S
C299 C298 1.367 . S
C299 C307 1.433 . S
C300 H296 0.929 . S
C300 C302 1.378 . S
C300 C304 1.350 . S
C301 C304 1.463 . S
C301 C306 1.350 . S
C301 N309 1.427 . S
C302 H293 0.930 . S
C302 C300 1.378 . S
C302 C303 1.367 . S
C303 C302 1.367 . S
C303 C305 1.433 . S
C304 C300 1.350 . S
C304 C301 1.463 . S
C304 N308 1.427 . S
C305 H295 0.929 . S
C305 C303 1.433 . S
C305 N308 1.384 . S
C306 H297 0.929 . S
C306 C298 1.378 . S
C306 C301 1.350 . S
C307 H294 0.929 . S
C307 C299 1.433 . S
C307 N309 1.384 . S
N308 C304 1.427 . S
N308 C305 1.384 . S
N309 C301 1.427 . S
N309 C307 1.384 . S
H310 C316 0.930 . S
H311 C320 0.930 . S
H312 C325 0.929 . S
H313 C323 0.929 . S
H314 C318 0.929 . S
H315 C324 0.929 . S
C316 H310 0.930 . S
C316 C317 1.367 . S
C316 C324 1.378 . S
C317 C316 1.367 . S
C317 C325 1.433 . S
C318 H314 0.929 . S
C318 C320 1.378 . S
C318 C322 1.350 . S
C319 C322 1.463 . S
C319 C324 1.350 . S
C319 N327 1.427 . S
C320 H311 0.930 . S
C320 C318 1.378 . S
C320 C321 1.367 . S
C321 C320 1.367 . S
C321 C323 1.433 . S
C322 C318 1.350 . S
C322 C319 1.463 . S
C322 N326 1.427 . S
C323 H313 0.929 . S
C323 C321 1.433 . S
C323 N326 1.384 . S
C324 H315 0.929 . S
C324 C316 1.378 . S
C324 C319 1.350 . S
C325 H312 0.929 . S
C325 C317 1.433 . S
C325 N327 1.384 . S
N326 C322 1.427 . S
N326 C323 1.384 . S
N327 C319 1.427 . S
N327 C325 1.384 . S
H328 C334 0.930 . S
H329 C338 0.930 . S
H330 C343 0.929 . S
H331 C341 0.929 . S
H332 C336 0.929 . S
H333 C342 0.929 . S
C334 H328 0.930 . S
C334 C335 1.367 . S
C334 C342 1.378 . S
C335 C334 1.367 . S
C335 C343 1.433 . S
C336 H332 0.929 . S
C336 C338 1.378 . S
C336 C340 1.350 . S
C337 C340 1.463 . S
C337 C342 1.350 . S
C337 N345 1.427 . S
C338 H329 0.930 . S
C338 C336 1.378 . S
C338 C339 1.367 . S
C339 C338 1.367 . S
C339 C341 1.433 . S
C340 C336 1.350 . S
C340 C337 1.463 . S
C340 N344 1.427 . S
C341 H331 0.929 . S
C341 C339 1.433 . S
C341 N344 1.384 . S
C342 H333 0.929 . S
C342 C334 1.378 . S
C342 C337 1.350 . S
C343 H330 0.929 . S
C343 C335 1.433 . S
C343 N345 1.384 . S
N344 C340 1.427 . S
N344 C341 1.384 . S
N345 C337 1.427 . S
N345 C343 1.384 . S
H346 C352 0.930 . S
H347 C356 0.930 . S
H348 C361 0.929 . S
H349 C359 0.929 . S
H350 C354 0.929 . S
H351 C360 0.929 . S
C352 H346 0.930 . S
C352 C353 1.367 . S
C352 C360 1.378 . S
C353 C352 1.367 . S
C353 C361 1.433 . S
C354 H350 0.929 . S
C354 C356 1.378 . S
C354 C358 1.350 . S
C355 C358 1.463 . S
C355 C360 1.350 . S
C355 N363 1.427 . S
C356 H347 0.930 . S
C356 C354 1.378 . S
C356 C357 1.367 . S
C357 C356 1.367 . S
C357 C359 1.433 . S
C358 C354 1.350 . S
C358 C355 1.463 . S
C358 N362 1.427 . S
C359 H349 0.929 . S
C359 C357 1.433 . S
C359 N362 1.384 . S
C360 H351 0.929 . S
C360 C352 1.378 . S
C360 C355 1.350 . S
C361 H348 0.929 . S
C361 C353 1.433 . S
C361 N363 1.384 . S
N362 C358 1.427 . S
N362 C359 1.384 . S
N363 C355 1.427 . S
N363 C361 1.384 . S
H364 C370 0.930 . S
H365 C374 0.930 . S
H366 C379 0.929 . S
H367 C377 0.929 . S
H368 C372 0.929 . S
H369 C378 0.929 . S
C370 H364 0.930 . S
C370 C371 1.367 . S
C370 C378 1.378 . S
C371 C370 1.367 . S
C371 C379 1.433 . S
C372 H368 0.929 . S
C372 C374 1.378 . S
C372 C376 1.350 . S
C373 C376 1.463 . S
C373 C378 1.350 . S
C373 N381 1.427 . S
C374 H365 0.930 . S
C374 C372 1.378 . S
C374 C375 1.367 . S
C375 C374 1.367 . S
C375 C377 1.433 . S
C376 C372 1.350 . S
C376 C373 1.463 . S
C376 N380 1.427 . S
C377 H367 0.929 . S
C377 C375 1.433 . S
C377 N380 1.384 . S
C378 H369 0.929 . S
C378 C370 1.378 . S
C378 C373 1.350 . S
C379 H366 0.929 . S
C379 C371 1.433 . S
C379 N381 1.384 . S
N380 C376 1.427 . S
N380 C377 1.384 . S
N381 C373 1.427 . S
N381 C379 1.384 . S
H382 C388 0.930 . S
H383 C392 0.930 . S
H384 C397 0.929 1_554 S
H385 C395 0.929 . S
H386 C390 0.929 . S
H387 C396 0.929 . S
C388 H382 0.930 . S
C388 C389 1.367 . S
C388 C396 1.378 . S
C389 C388 1.367 . S
C389 C397 1.433 . S
C390 H386 0.929 . S
C390 C392 1.378 . S
C390 C394 1.350 . S
C391 C394 1.463 . S
C391 C396 1.350 . S
C391 N399 1.427 . S
C392 H383 0.930 . S
C392 C390 1.378 . S
C392 C393 1.367 . S
C393 C392 1.367 . S
C393 C395 1.433 . S
C394 C390 1.350 . S
C394 C391 1.463 . S
C394 N398 1.427 . S
C395 H385 0.929 . S
C395 C393 1.433 . S
C395 N398 1.384 . S
C396 H387 0.929 . S
C396 C388 1.378 . S
C396 C391 1.350 . S
C397 H384 0.929 1_556 S
C397 C389 1.433 . S
C397 N399 1.384 . S
N398 C394 1.427 . S
N398 C395 1.384 . S
N399 C391 1.427 . S
N399 C397 1.384 . S
H400 C406 0.930 . S
H401 C410 0.930 . S
H402 C415 0.929 . S
H403 C413 0.929 . S
H404 C408 0.929 . S
H405 C414 0.929 . S
C406 H400 0.930 . S
C406 C407 1.367 . S
C406 C414 1.378 . S
C407 C406 1.367 . S
C407 C415 1.433 . S
C408 H404 0.929 . S
C408 C410 1.378 . S
C408 C412 1.350 . S
C409 C412 1.463 . S
C409 C414 1.350 . S
C409 N417 1.427 . S
C410 H401 0.930 . S
C410 C408 1.378 . S
C410 C411 1.367 . S
C411 C410 1.367 . S
C411 C413 1.433 . S
C412 C408 1.350 . S
C412 C409 1.463 . S
C412 N416 1.427 . S
C413 H403 0.929 . S
C413 C411 1.433 . S
C413 N416 1.384 . S
C414 H405 0.929 . S
C414 C406 1.378 . S
C414 C409 1.350 . S
C415 H402 0.929 . S
C415 C407 1.433 . S
C415 N417 1.384 . S
N416 C412 1.427 . S
N416 C413 1.384 . S
N417 C409 1.427 . S
N417 C415 1.384 . S
H418 C424 0.930 . S
H419 C428 0.930 1_545 S
H420 C433 0.929 . S
H421 C431 0.929 . S
H422 C426 0.929 . S
H423 C432 0.929 . S
C424 H418 0.930 . S
C424 C425 1.367 . S
C424 C432 1.378 . S
C425 C424 1.367 . S
C425 C433 1.433 . S
C426 H422 0.929 . S
C426 C428 1.378 . S
C426 C430 1.350 . S
C427 C430 1.463 . S
C427 C432 1.350 . S
C427 N435 1.427 . S
C428 H419 0.930 1_565 S
C428 C426 1.378 . S
C428 C429 1.367 . S
C429 C428 1.367 . S
C429 C431 1.433 . S
C430 C426 1.350 . S
C430 C427 1.463 . S
C430 N434 1.427 . S
C431 H421 0.929 . S
C431 C429 1.433 . S
C431 N434 1.384 . S
C432 H423 0.929 . S
C432 C424 1.378 . S
C432 C427 1.350 . S
C433 H420 0.929 . S
C433 C425 1.433 . S
C433 N435 1.384 . S
N434 C430 1.427 . S
N434 C431 1.384 . S
N435 C427 1.427 . S
N435 C433 1.384 . S
C231 C115 1.654 . S
C227 C43 1.563 . S
C245 C4 1.604 . S
C249 C210 1.643 . S
C263 C17 1.608 . S
C267 C126 1.648 . S
C281 C30 1.641 . S
C285 C199 1.637 . S
C303 C110 1.412 . S
C299 C9 1.579 . S
C321 C203 1.671 . S
C317 C21 1.664 . S
C335 C34 1.621 . S
C339 C119 1.628 . S
C353 C48 1.583 . S
C357 C194 1.399 . S
C375 C205 1.406 . S
C371 C22 1.580 . S
C393 C121 1.404 . S
C389 C35 1.580 1_556 S
C411 C192 1.670 . S
C407 C47 1.661 . S
C425 C8 1.613 . S
C429 C108 1.628 . S
