# Generated by pormake.
# Topology zzz, (3,6)-cn, num edge types: 1
# Building blocks:
#     Node 0, Type 0, BuildingBlock: BETDAH_clean_linker_0, # of connection points: 3
#     Node 1, Type 0, BuildingBlock: BETDAH_clean_linker_0, # of connection points: 3
#     Node 2, Type 0, BuildingBlock: BETDAH_clean_linker_0, # of connection points: 3
#     Node 3, Type 0, BuildingBlock: BETDAH_clean_linker_0, # of connection points: 3
#     Node 4, Type 0, BuildingBlock: BETDAH_clean_linker_0, # of connection points: 3
#     Node 5, Type 0, BuildingBlock: BETDAH_clean_linker_0, # of connection points: 3
#     Node 6, Type 0, BuildingBlock: BETDAH_clean_linker_0, # of connection points: 3
#     Node 7, Type 0, BuildingBlock: BETDAH_clean_linker_0, # of connection points: 3
#     Node 8, Type 1, BuildingBlock: MIFKUJ_clean_sbu_0, # of connection points: 6
#     Node 9, Type 1, BuildingBlock: MIFKUJ_clean_sbu_0, # of connection points: 6
#     Node 10, Type 1, BuildingBlock: MIFKUJ_clean_sbu_0, # of connection points: 6
#     Node 11, Type 1, BuildingBlock: MIFKUJ_clean_sbu_0, # of connection points: 6
#     Edge 12, Type (0, 1), BuildingBlock: ZUJKAS_clean_linker_0, # of connection points: 2
#     Edge 13, Type (0, 1), BuildingBlock: ZUJKAS_clean_linker_0, # of connection points: 2
#     Edge 14, Type (0, 1), BuildingBlock: ZUJKAS_clean_linker_0, # of connection points: 2
#     Edge 15, Type (0, 1), BuildingBlock: ZUJKAS_clean_linker_0, # of connection points: 2
#     Edge 16, Type (0, 1), BuildingBlock: ZUJKAS_clean_linker_0, # of connection points: 2
#     Edge 17, Type (0, 1), BuildingBlock: ZUJKAS_clean_linker_0, # of connection points: 2
#     Edge 18, Type (0, 1), BuildingBlock: ZUJKAS_clean_linker_0, # of connection points: 2
#     Edge 19, Type (0, 1), BuildingBlock: ZUJKAS_clean_linker_0, # of connection points: 2
#     Edge 20, Type (0, 1), BuildingBlock: ZUJKAS_clean_linker_0, # of connection points: 2
#     Edge 21, Type (0, 1), BuildingBlock: ZUJKAS_clean_linker_0, # of connection points: 2
#     Edge 22, Type (0, 1), BuildingBlock: ZUJKAS_clean_linker_0, # of connection points: 2
#     Edge 23, Type (0, 1), BuildingBlock: ZUJKAS_clean_linker_0, # of connection points: 2
#     Edge 24, Type (0, 1), BuildingBlock: ZUJKAS_clean_linker_0, # of connection points: 2
#     Edge 25, Type (0, 1), BuildingBlock: ZUJKAS_clean_linker_0, # of connection points: 2
#     Edge 26, Type (0, 1), BuildingBlock: ZUJKAS_clean_linker_0, # of connection points: 2
#     Edge 27, Type (0, 1), BuildingBlock: ZUJKAS_clean_linker_0, # of connection points: 2
#     Edge 28, Type (0, 1), BuildingBlock: ZUJKAS_clean_linker_0, # of connection points: 2
#     Edge 29, Type (0, 1), BuildingBlock: ZUJKAS_clean_linker_0, # of connection points: 2
#     Edge 30, Type (0, 1), BuildingBlock: ZUJKAS_clean_linker_0, # of connection points: 2
#     Edge 31, Type (0, 1), BuildingBlock: ZUJKAS_clean_linker_0, # of connection points: 2
#     Edge 32, Type (0, 1), BuildingBlock: ZUJKAS_clean_linker_0, # of connection points: 2
#     Edge 33, Type (0, 1), BuildingBlock: ZUJKAS_clean_linker_0, # of connection points: 2
#     Edge 34, Type (0, 1), BuildingBlock: ZUJKAS_clean_linker_0, # of connection points: 2
#     Edge 35, Type (0, 1), BuildingBlock: ZUJKAS_clean_linker_0, # of connection points: 2
# Relax obj value: 0.115
# Max RMSD: 0.115
# Mean RMSD: 0.087
data_MOF--net-zzz--node1-MIFKUJ_clean_sbu_0--node2-BETDAH_clean_linker_0--edge1-ZUJKAS_clean_linker_0
_symmetry_space_group_name_H-M    P1
_symmetry_Int_Tables_number       1
_symmetry_cell_setting            triclinic
loop_
_symmetry_equiv_pos_as_xyz
'x, y, z'
_cell_length_a     66.00178
_cell_length_b     65.962673
_cell_length_c     20.521574
_cell_angle_alpha  89.965257
_cell_angle_beta   90.008736
_cell_angle_gamma 90.02079
loop_
_atom_site_label
_atom_site_type_symbol
_atom_site_fract_x
_atom_site_fract_y
_atom_site_fract_z
_atom_type_partial_charge
H0 H 0.79778 0.49428 0.10681 0.0
H1 H 0.74297 0.50934 0.00535 0.0
H2 H 0.75179 0.52904 0.20384 0.0
C3 C 0.78273 0.5009 0.10708 0.0
C4 C 0.77609 0.51136 0.16239 0.0
C5 C 0.77098 0.50028 0.05031 0.0
C6 C 0.75189 0.50963 0.04961 0.0
C7 C 0.74468 0.51967 0.1057 0.0
C8 C 0.75707 0.52085 0.16132 0.0
N9 N 0.72536 0.52914 0.10748 0.0
C10 C 0.71047 0.52661 0.06017 0.0
H11 H 0.0123 0.79848 0.10638 0.0
H12 H 0.99777 0.74315 0.00715 0.0
H13 H 0.97806 0.75243 0.20542 0.0
C14 C 0.00582 0.78336 0.10733 0.0
C15 C 0.99546 0.77681 0.16298 0.0
C16 C 0.00657 0.7714 0.05106 0.0
C17 C 0.99739 0.75222 0.05107 0.0
C18 C 0.98742 0.7451 0.10745 0.0
C19 C 0.98617 0.75765 0.16267 0.0
N20 N 0.97814 0.72567 0.10993 0.0
C21 C 0.98031 0.71085 0.0622 0.0
H22 H 0.70657 0.01531 0.09716 0.0
H23 H 0.76505 0.0043 0.0135 0.0
H24 H 0.75375 0.98965 0.21525 0.0
C25 C 0.72226 0.01073 0.10291 0.0
C26 C 0.72867 0.00288 0.16282 0.0
C27 C 0.73522 0.01121 0.04892 0.0
C28 C 0.75518 0.00421 0.05557 0.0
C29 C 0.7621 0.99678 0.11613 0.0
C30 C 0.74864 0.99584 0.16916 0.0
N31 N 0.78228 0.98978 0.12503 0.0
C32 C 0.79734 0.99105 0.07776 0.0
H33 H 0.52005 0.70609 0.08322 0.0
H34 H 0.50635 0.76605 0.01579 0.0
H35 H 0.51991 0.75568 0.21898 0.0
C36 C 0.51865 0.7222 0.09307 0.0
C37 C 0.52099 0.72927 0.15689 0.0
C38 C 0.51322 0.73532 0.04241 0.0
C39 C 0.51064 0.75602 0.0552 0.0
C40 C 0.51347 0.76355 0.1189 0.0
C41 C 0.5182 0.75001 0.16973 0.0
N42 N 0.51146 0.78452 0.13353 0.0
C43 C 0.50997 0.79963 0.08638 0.0
H44 H 0.20795 0.51642 0.0911 0.0
H45 H 0.26278 0.50111 0.19195 0.0
H46 H 0.25397 0.48198 0.9929 0.0
C47 C 0.22302 0.50983 0.0905 0.0
C48 C 0.22965 0.49952 0.03488 0.0
C49 C 0.23478 0.5103 0.14724 0.0
C50 C 0.25388 0.50097 0.14765 0.0
C51 C 0.26109 0.49111 0.09127 0.0
C52 C 0.2487 0.49006 0.03563 0.0
N53 N 0.28043 0.48166 0.08929 0.0
C54 C 0.29528 0.48407 0.13683 0.0
H55 H 0.02136 0.20657 0.12506 0.0
H56 H 0.00769 0.26697 0.18795 0.0
H57 H 0.02295 0.2555 0.98663 0.0
C58 C 0.0202 0.22263 0.11411 0.0
C59 C 0.02315 0.22937 0.05013 0.0
C60 C 0.01449 0.23606 0.1635 0.0
C61 C 0.01223 0.25671 0.14944 0.0
C62 C 0.01572 0.26391 0.08564 0.0
C63 C 0.02073 0.25008 0.03598 0.0
N64 N 0.01413 0.28484 0.06986 0.0
C65 C 0.0121 0.30008 0.1163 0.0
H66 H 0.29919 0.02403 0.12731 0.0
H67 H 0.23903 0.00999 0.19197 0.0
H68 H 0.25049 0.02203 0.98848 0.0
C69 C 0.28317 0.0224 0.11664 0.0
C70 C 0.27646 0.02406 0.05217 0.0
C71 C 0.26981 0.01716 0.16691 0.0
C72 C 0.24924 0.01417 0.15294 0.0
C73 C 0.24209 0.01636 0.08851 0.0
C74 C 0.25586 0.02088 0.03826 0.0
N75 N 0.2213 0.0138 0.07246 0.0
C76 C 0.20591 0.01206 0.11845 0.0
H77 H 0.48724 0.30132 0.1279 0.0
H78 H 0.49992 0.24087 0.19265 0.0
H79 H 0.48623 0.25226 0.99011 0.0
C80 C 0.48832 0.28524 0.11729 0.0
C81 C 0.48575 0.27846 0.05322 0.0
C82 C 0.49359 0.27181 0.16726 0.0
C83 C 0.49574 0.25112 0.15369 0.0
C84 C 0.49266 0.24389 0.08976 0.0
C85 C 0.48811 0.25771 0.03956 0.0
N86 N 0.49428 0.22295 0.07423 0.0
C87 C 0.49584 0.20761 0.1206 0.0
Zn88 Zn 0.99548 0.02517 0.57399 0.0
Zn89 Zn 0.01025 0.98351 0.63327 0.0
C90 C 0.99578 0.05071 0.68247 0.0
O91 O 0.97645 0.05003 0.66732 0.0
C92 C 0.01221 0.95645 0.52977 0.0
O93 O 0.03123 0.95831 0.54778 0.0
O94 O 0.98629 0.04934 0.52195 0.0
O95 O 0.0169 0.01152 0.51932 0.0
O96 O 0.03425 1.00012 0.60296 0.0
C97 C 1.00085 0.06128 0.50858 0.0
O98 O 0.01938 0.05576 0.52393 0.0
O99 O 0.00803 0.0393 0.65172 0.0
C100 C 0.00721 0.94692 0.69853 0.0
O101 O 0.9886 0.95027 0.67843 0.0
O102 O 0.02059 0.96047 0.68857 0.0
O103 O 0.98756 0.99612 0.68545 0.0
O104 O 0.97087 0.00944 0.60313 0.0
O105 O 0.99904 0.96789 0.55627 0.0
C106 C 0.03375 0.00647 0.5445 0.0
C107 C 0.97096 0.00184 0.66004 0.0
Zn108 Zn 0.48058 0.9966 0.57608 0.0
Zn109 Zn 0.52301 0.0102 0.62849 0.0
C110 C 0.45603 0.99591 0.68612 0.0
O111 O 0.45671 0.97672 0.66909 0.0
C112 C 0.54638 0.01175 0.51573 0.0
O113 O 0.54561 0.03083 0.53388 0.0
O114 O 0.45566 0.98818 0.52628 0.0
O115 O 0.49359 0.01859 0.52174 0.0
O116 O 0.50682 0.03515 0.60423 0.0
C117 C 0.44357 0.00299 0.51812 0.0
O118 O 0.44947 0.02119 0.53595 0.0
O119 O 0.46733 0.00849 0.65625 0.0
C120 C 0.56127 0.0046 0.67919 0.0
O121 O 0.55643 0.98669 0.65581 0.0
O122 O 0.54811 0.01869 0.67759 0.0
O123 O 0.51057 0.98797 0.68313 0.0
O124 O 0.4963 0.97154 0.60211 0.0
O125 O 0.53568 0.99882 0.54637 0.0
C126 C 0.49936 0.0352 0.5471 0.0
C127 C 0.50428 0.97146 0.6585 0.0
Zn128 Zn 0.50975 0.4837 0.57128 0.0
Zn129 Zn 0.49512 0.52423 0.6319 0.0
C130 C 0.51125 0.45723 0.67709 0.0
O131 O 0.53032 0.45843 0.65905 0.0
C132 C 0.49456 0.55013 0.52407 0.0
O133 O 0.47534 0.54939 0.54056 0.0
O134 O 0.51925 0.46005 0.51741 0.0
O135 O 0.48733 0.49684 0.51903 0.0
O136 O 0.47049 0.50826 0.60364 0.0
C137 C 0.50487 0.44786 0.50451 0.0
O138 O 0.48631 0.45296 0.52092 0.0
O139 O 0.49835 0.46867 0.64927 0.0
C140 C 0.50072 0.56057 0.69485 0.0
O141 O 0.51909 0.5551 0.67749 0.0
O142 O 0.48612 0.5484 0.68432 0.0
O143 O 0.51721 0.5109 0.68495 0.0
O144 O 0.53412 0.50006 0.59973 0.0
O145 O 0.50703 0.53859 0.55345 0.0
C146 C 0.47061 0.50168 0.54545 0.0
C147 C 0.53399 0.50652 0.65806 0.0
Zn148 Zn 0.02267 0.51206 0.5666 0.0
Zn149 Zn 0.98289 0.49598 0.63007 0.0
C150 C 0.04923 0.51459 0.67168 0.0
O151 O 0.04726 0.53359 0.65347 0.0
C152 C 0.95581 0.49407 0.52628 0.0
O153 O 0.95758 0.475 0.54391 0.0
O154 O 0.04579 0.52256 0.51195 0.0
O155 O 0.01043 0.48911 0.51471 0.0
O156 O 0.9995 0.47201 0.59964 0.0
C157 C 0.05971 0.50944 0.50432 0.0
O158 O 0.05666 0.49092 0.52583 0.0
O159 O 0.03807 0.50127 0.64473 0.0
C160 C 0.94656 0.49912 0.69661 0.0
O161 O 0.94991 0.51773 0.67634 0.0
O162 O 0.95999 0.48568 0.68604 0.0
O163 O 0.99566 0.51877 0.68137 0.0
O164 O 0.00546 0.53583 0.59509 0.0
O165 O 0.96721 0.50717 0.55327 0.0
C166 C 0.00583 0.4723 0.54114 0.0
C167 C 0.9994 0.53562 0.65388 0.0
H168 H 0.20635 0.99535 0.23887 0.0
H169 H 0.1777 0.99326 0.31539 0.0
H170 H 0.13965 0.02418 0.17622 0.0
H171 H 0.1682 0.02613 0.09981 0.0
H172 H 0.15419 0.02523 0.36912 0.0
H173 H 0.10707 0.97293 0.22137 0.0
H174 H 0.13374 0.97674 0.20613 0.0
H175 H 0.11552 0.99499 0.17786 0.0
C176 C 0.19182 0.00163 0.22489 0.0
C177 C 0.18926 0.01081 0.16381 0.0
C178 C 0.17552 1.00046 0.26845 0.0
C179 C 0.15648 0.0083 0.25108 0.0
C180 C 0.15409 0.01769 0.19009 0.0
H181 H 0.03817 0.02166 0.42151 0.0
H182 H 0.06863 0.0219 0.35404 0.0
C183 C 0.17037 0.01889 0.1467 0.0
C184 C 0.13913 0.00701 0.29688 0.0
H185 H 0.09092 0.98878 0.31154 0.0
C186 C 0.14041 0.01712 0.35691 0.0
C187 C 0.1212 0.99639 0.28077 0.0
C188 C 0.11929 0.98448 0.21831 0.0
C189 C 0.12393 0.0175 0.40033 0.0
C190 C 0.10586 0.00718 0.38365 0.0
C191 C 0.10475 0.99675 0.32413 0.0
C192 C 0.08767 0.00744 0.42619 0.0
C193 C 0.12577 0.02952 0.46259 0.0
C194 C 0.08822 0.99915 0.48922 0.0
C195 C 0.07079 0.99903 0.52815 0.0
C196 C 0.05245 0.00705 0.50449 0.0
C197 C 0.052 0.01532 0.4413 0.0
C198 C 0.06941 0.01548 0.40259 0.0
H199 H 0.13861 0.04039 0.46081 0.0
H200 H 0.11161 0.03805 0.47265 0.0
H201 H 0.12844 0.01896 0.50382 0.0
H202 H 0.10204 0.99249 0.50796 0.0
H203 H 0.07163 0.99241 0.57638 0.0
H204 H 0.51324 0.20779 0.24007 0.0
H205 H 0.51497 0.17921 0.31709 0.0
H206 H 0.48217 0.14177 0.18074 0.0
H207 H 0.48058 0.17025 0.10383 0.0
H208 H 0.48289 0.1566 0.37376 0.0
H209 H 0.53269 0.10784 0.22285 0.0
H210 H 0.52948 0.13459 0.20732 0.0
H211 H 0.51057 0.11678 0.18079 0.0
C212 C 0.50646 0.19341 0.22681 0.0
C213 C 0.49686 0.19101 0.16635 0.0
C214 C 0.50743 0.17715 0.27067 0.0
C215 C 0.49896 0.15828 0.25424 0.0
C216 C 0.48915 0.15606 0.19391 0.0
H217 H 0.48299 0.04048 0.42612 0.0
H218 H 0.48316 0.07107 0.35916 0.0
C219 C 0.48816 0.17231 0.15021 0.0
C220 C 0.50009 0.14094 0.30029 0.0
H221 H 0.51691 0.09217 0.31417 0.0
C222 C 0.49048 0.14256 0.3611 0.0
C223 C 0.51004 0.12267 0.28365 0.0
C224 C 0.52145 0.12036 0.22037 0.0
C225 C 0.48991 0.12612 0.40476 0.0
C226 C 0.49952 0.10771 0.38749 0.0
C227 C 0.50948 0.10626 0.32722 0.0
C228 C 0.49891 0.0895 0.43009 0.0
C229 C 0.47846 0.12836 0.46795 0.0
C230 C 0.50775 0.08967 0.49236 0.0
C231 C 0.50765 0.07215 0.53103 0.0
C232 C 0.49884 0.0541 0.50786 0.0
C233 C 0.48994 0.05407 0.44555 0.0
C234 C 0.49003 0.07156 0.4071 0.0
H235 H 0.4681 0.14163 0.46713 0.0
H236 H 0.46944 0.11452 0.47854 0.0
H237 H 0.48941 0.13054 0.50837 0.0
H238 H 0.51503 0.10323 0.51062 0.0
H239 H 0.51475 0.07266 0.57857 0.0
H240 H 0.33453 0.47699 0.11218 0.0
H241 H 0.36308 0.48084 0.18783 0.0
H242 H 0.32185 0.50036 0.33844 0.0
H243 H 0.29324 0.4962 0.26282 0.0
H244 H 0.37576 0.51578 0.25191 0.0
H245 H 0.35446 0.45571 0.42927 0.0
H246 H 0.34313 0.45754 0.34941 0.0
H247 H 0.3352 0.47432 0.41345 0.0
C248 C 0.33163 0.48199 0.16161 0.0
C249 C 0.31185 0.48625 0.18216 0.0
C250 C 0.34789 0.48421 0.20468 0.0
C251 C 0.34458 0.49064 0.26904 0.0
C252 C 0.32472 0.49501 0.28943 0.0
H253 H 0.43199 0.51154 0.58426 0.0
H254 H 0.40086 0.5099 0.51917 0.0
C255 C 0.30843 0.49276 0.24624 0.0
C256 C 0.36207 0.49325 0.31381 0.0
H257 H 0.38322 0.47555 0.45486 0.0
C258 C 0.37737 0.50701 0.29633 0.0
C259 C 0.36409 0.48187 0.37194 0.0
C260 C 0.34846 0.4664 0.39211 0.0
C261 C 0.3947 0.50961 0.33513 0.0
C262 C 0.39694 0.49791 0.39247 0.0
C263 C 0.38144 0.48449 0.41084 0.0
C264 C 0.41568 0.49876 0.43229 0.0
C265 C 0.41044 0.52493 0.31457 0.0
C266 C 0.43424 0.49273 0.40532 0.0
C267 C 0.452 0.4936 0.44224 0.0
C268 C 0.45158 0.50048 0.50713 0.0
C269 C 0.43288 0.50624 0.5344 0.0
C270 C 0.41507 0.50531 0.49734 0.0
H271 H 0.40407 0.53633 0.28036 0.0
H272 H 0.41683 0.53295 0.35747 0.0
H273 H 0.423 0.51698 0.28936 0.0
H274 H 0.43499 0.48726 0.35562 0.0
H275 H 0.46608 0.4889 0.41975 0.0
H276 H 0.02842 0.30045 0.23667 0.0
H277 H 0.02672 0.32818 0.31658 0.0
H278 H 0.9911 0.36351 0.18162 0.0
H279 H 0.99264 0.3357 0.10221 0.0
H280 H 0.04071 0.36754 0.30235 0.0
H281 H 0.95802 0.36721 0.34963 0.0
H282 H 0.97085 0.34645 0.30983 0.0
H283 H 0.96433 0.3689 0.26471 0.0
C284 C 0.0201 0.31411 0.22463 0.0
C285 C 0.01056 0.31608 0.16395 0.0
C286 C 0.01915 0.32991 0.27007 0.0
C287 C 0.00853 0.34781 0.25547 0.0
C288 C 0.999 0.34969 0.19452 0.0
H289 H 0.02104 0.46746 0.41832 0.0
H290 H 0.02208 0.43655 0.35306 0.0
C291 C 0.99996 0.3339 0.14912 0.0
C292 C 0.00819 0.36487 0.30267 0.0
H293 H 0.97643 0.39601 0.38785 0.0
C294 C 0.02667 0.37366 0.32145 0.0
C295 C 0.98988 0.37269 0.32826 0.0
C296 C 0.96965 0.36322 0.31265 0.0
C297 C 0.02729 0.39046 0.36345 0.0
C298 C 0.00893 0.39886 0.3866 0.0
C299 C 0.99049 0.38967 0.36956 0.0
C300 C 0.00853 0.41751 0.42706 0.0
C301 C 0.04761 0.39903 0.38284 0.0
C302 C 1.00019 0.41719 0.49 0.0
C303 C 0.9995 0.43491 0.52754 0.0
C304 C 0.00696 0.45332 0.5025 0.0
C305 C 0.01521 0.45356 0.43927 0.0
C306 C 0.01594 0.43586 0.40196 0.0
H307 H 0.05995 0.38777 0.37623 0.0
H308 H 0.05109 0.41235 0.35171 0.0
H309 H 0.04753 0.40409 0.43444 0.0
H310 H 0.99426 0.40321 0.51013 0.0
H311 H 0.99295 0.4342 0.57587 0.0
H312 H 0.83376 0.97325 0.08871 0.0
H313 H 0.86208 0.97539 0.01141 0.0
H314 H 0.82583 0.01297 0.88474 0.0
H315 H 0.79767 0.01116 0.96275 0.0
H316 H 0.86398 0.96355 0.88211 0.0
H317 H 0.87738 0.0464 0.90541 0.0
H318 H 0.86177 0.03244 0.96202 0.0
H319 H 0.85193 0.03956 0.88361 0.0
C320 C 0.83194 0.98198 0.04434 0.0
C321 C 0.81372 0.99208 0.03134 0.0
C322 C 0.84805 0.98318 0.00028 0.0
C323 C 0.84617 0.99457 0.94273 0.0
C324 C 0.82776 0.00444 0.9294 0.0
H325 H 0.9336 0.01762 0.63016 0.0
H326 H 0.90248 0.01539 0.69503 0.0
C327 C 0.81166 0.00328 0.97364 0.0
C328 C 0.86346 0.99587 0.89664 0.0
H329 H 0.89678 0.02899 0.82639 0.0
C330 C 0.87114 0.97786 0.86989 0.0
C331 C 0.87275 0.01457 0.88058 0.0
C332 C 0.86569 0.03434 0.90975 0.0
C333 C 0.88787 0.97802 0.82764 0.0
C334 C 0.89733 0.99667 0.81242 0.0
C335 C 0.88945 0.01473 0.8381 0.0
C336 C 0.91599 0.99765 0.77232 0.0
C337 C 0.89523 0.95825 0.79932 0.0
C338 C 0.93392 0.98859 0.79466 0.0
C339 C 0.95169 0.98988 0.75796 0.0
C340 C 0.95193 1.0003 0.69812 0.0
C341 C 0.93392 0.00939 0.67584 0.0
C342 C 0.91614 0.00817 0.71286 0.0
H343 H 0.88336 0.94631 0.80159 0.0
H344 H 0.90001 0.9602 0.74782 0.0
H345 H 0.90851 0.95288 0.82765 0.0
H346 H 0.93422 0.98071 0.84097 0.0
H347 H 0.96527 0.98272 0.77666 0.0
H348 H 0.52618 0.83677 0.09909 0.0
H349 H 0.52484 0.86462 0.01973 0.0
H350 H 0.49087 0.82662 0.88799 0.0
H351 H 0.49195 0.79886 0.968 0.0
H352 H 0.53941 0.86558 0.89232 0.0
H353 H 0.45612 0.87786 0.89765 0.0
H354 H 0.46916 0.86309 0.95868 0.0
H355 H 0.4639 0.85236 0.88002 0.0
C356 C 0.51837 0.83448 0.05323 0.0
C357 C 0.50909 0.81588 0.03932 0.0
C358 C 0.51763 0.85032 0.00797 0.0
C359 C 0.50752 0.8478 0.94826 0.0
C360 C 0.4984 0.82904 0.93421 0.0
H361 H 0.48847 0.93406 0.62848 0.0
H362 H 0.48981 0.90312 0.6947 0.0
C363 C 0.49912 0.81319 0.97961 0.0
C364 C 0.5069 0.86476 0.90061 0.0
H365 H 0.47486 0.8973 0.82196 0.0
C366 C 0.5253 0.8725 0.87687 0.0
C367 C 0.48847 0.8737 0.88022 0.0
C368 C 0.46827 0.86648 0.90575 0.0
C369 C 0.52577 0.88898 0.83351 0.0
C370 C 0.50737 0.89819 0.8142 0.0
C371 C 0.48895 0.89019 0.8368 0.0
C372 C 0.50697 0.91673 0.77313 0.0
C373 C 0.54598 0.8963 0.80844 0.0
C374 C 0.51599 0.93468 0.79554 0.0
C375 C 0.51525 0.95234 0.75797 0.0
C376 C 0.50537 0.95247 0.6972 0.0
C377 C 0.49629 0.93446 0.67486 0.0
C378 C 0.497 0.91678 0.71268 0.0
H379 H 0.55778 0.88435 0.81236 0.0
H380 H 0.54488 0.90121 0.75679 0.0
H381 H 0.55101 0.90946 0.83795 0.0
H382 H 0.5234 0.93512 0.84262 0.0
H383 H 0.52236 0.96592 0.77686 0.0
H384 H 0.6713 0.53373 0.08571 0.0
H385 H 0.64259 0.53009 0.01052 0.0
H386 H 0.68354 0.51126 0.85826 0.0
H387 H 0.71227 0.51477 0.93387 0.0
H388 H 0.63647 0.55001 0.89027 0.0
H389 H 0.64013 0.46631 0.85968 0.0
H390 H 0.65305 0.47936 0.92491 0.0
H391 H 0.66327 0.47983 0.84383 0.0
C392 C 0.67408 0.52876 0.03619 0.0
C393 C 0.6938 0.52443 0.01523 0.0
C394 C 0.65774 0.52671 0.99336 0.0
C395 C 0.6609 0.52017 0.92905 0.0
C396 C 0.68073 0.51598 0.90798 0.0
H397 H 0.57268 0.49766 0.61791 0.0
H398 H 0.60416 0.50159 0.68008 0.0
C399 C 0.6971 0.51806 0.95093 0.0
C400 C 0.64339 0.51818 0.88411 0.0
H401 H 0.61552 0.48375 0.79786 0.0
C402 C 0.63191 0.53553 0.86993 0.0
C403 C 0.63755 0.49929 0.85735 0.0
C404 C 0.649 0.48007 0.87243 0.0
C405 C 0.61468 0.53452 0.82995 0.0
C406 C 0.60851 0.51555 0.80452 0.0
C407 C 0.62025 0.49826 0.81749 0.0
C408 C 0.5895 0.51324 0.76659 0.0
C409 C 0.60331 0.55381 0.81492 0.0
C410 C 0.57079 0.51818 0.79492 0.0
C411 C 0.55283 0.516 0.75961 0.0
C412 C 0.55315 0.50865 0.69526 0.0
C413 C 0.57189 0.50344 0.66723 0.0
C414 C 0.5899 0.50565 0.7027 0.0
H415 H 0.61307 0.5674 0.82139 0.0
H416 H 0.59737 0.55372 0.76429 0.0
H417 H 0.59029 0.55523 0.8488 0.0
H418 H 0.57007 0.52362 0.84465 0.0
H419 H 0.53868 0.52007 0.78291 0.0
H420 H 0.993 0.71269 0.9367 0.0
H421 H 0.99581 0.68413 0.86008 0.0
H422 H 0.97461 0.64331 0.00967 0.0
H423 H 0.97166 0.67182 0.0858 0.0
H424 H 0.01904 0.64838 0.8721 0.0
H425 H 0.93706 0.63078 0.85575 0.0
H426 H 0.94646 0.65439 0.88843 0.0
H427 H 0.9464 0.63186 0.93785 0.0
C428 C 0.9889 0.6976 0.95283 0.0
C429 C 0.98204 0.69429 0.01662 0.0
C430 C 0.99051 0.68134 0.90923 0.0
C431 C 0.98511 0.66164 0.92887 0.0
C432 C 0.97845 0.65842 0.99305 0.0
H433 H 0.98593 0.54023 0.77882 0.0
H434 H 0.98295 0.57156 0.84138 0.0
C435 C 0.97687 0.67464 0.03653 0.0
C436 C 0.98687 0.64432 0.88307 0.0
H437 H 0.95973 0.60592 0.8135 0.0
C438 C 0.00606 0.63921 0.85864 0.0
C439 C 0.96989 0.63241 0.86555 0.0
C440 C 0.94875 0.63771 0.88771 0.0
C441 C 0.00886 0.62201 0.8192 0.0
C442 C 0.99195 0.60983 0.80294 0.0
C443 C 0.97269 0.61523 0.82621 0.0
C444 C 0.99396 0.59096 0.76408 0.0
C445 C 0.03 0.61659 0.79732 0.0
C446 C 1.00095 0.59147 0.69947 0.0
C447 C 0.00271 0.57353 0.66342 0.0
C448 C 0.99742 0.55476 0.69131 0.0
C449 C 0.99022 0.55438 0.75584 0.0
C450 C 0.98847 0.57229 0.79171 0.0
H451 H 0.04176 0.62477 0.8258 0.0
H452 H 0.0327 0.60003 0.802 0.0
H453 H 0.03184 0.62077 0.74527 0.0
H454 H 0.0049 0.60575 0.67676 0.0
H455 H 0.00822 0.57438 0.61379 0.0
H456 H 0.97759 0.23459 0.22176 0.0
H457 H 0.96769 0.21102 0.30887 0.0
H458 H 0.03026 0.19359 0.3328 0.0
H459 H 0.04004 0.217 0.24623 0.0
H460 H 0.97469 0.17074 0.28568 0.0
H461 H 0.01005 0.19167 0.51964 0.0
H462 H 0.00596 0.20985 0.45498 0.0
H463 H 0.02791 0.19361 0.45412 0.0
C464 C 0.98925 0.22643 0.24805 0.0
C465 C 0.00955 0.22757 0.22797 0.0
C466 C 0.9836 0.21292 0.29743 0.0
C467 C 0.99825 0.20066 0.32769 0.0
C468 C 0.01875 0.2032 0.31132 0.0
H469 H 0.02907 0.08814 0.46611 0.0
H470 H 0.02384 0.12292 0.43011 0.0
C471 C 0.02435 0.21652 0.26175 0.0
C472 C 0.99219 0.18257 0.36571 0.0
H473 H 0.00575 0.15535 0.50005 0.0
C474 C 0.9809 0.16754 0.33355 0.0
C475 C 1.00031 0.17847 0.42802 0.0
C476 C 0.01155 0.19437 0.46641 0.0
C477 C 0.9792 0.1479 0.3592 0.0
C478 C 0.98876 0.14335 0.41907 0.0
C479 C 0.99859 0.15884 0.4538 0.0
C480 C 0.99127 0.1222 0.44174 0.0
C481 C 0.96862 0.13177 0.31962 0.0
C482 C 0.97461 0.11018 0.45971 0.0
C483 C 0.97755 0.0901 0.47984 0.0
C484 C 0.99719 0.08186 0.48272 0.0
C485 C 0.01375 0.09399 0.46442 0.0
C486 C 0.0108 0.11392 0.44418 0.0
H487 H 0.96441 0.13722 0.2702 0.0
H488 H 0.97846 0.11821 0.31446 0.0
H489 H 0.95457 0.12702 0.34508 0.0
H490 H 0.95943 0.11638 0.45877 0.0
H491 H 0.96452 0.08118 0.49433 0.0
H492 H 0.29116 0.04313 0.2427 0.0
H493 H 0.31439 0.0336 0.33031 0.0
H494 H 0.29218 0.97215 0.32282 0.0
H495 H 0.26883 0.9817 0.23469 0.0
H496 H 0.31301 0.01136 0.45684 0.0
H497 H 0.3521 0.97098 0.25354 0.0
H498 H 0.33226 0.98917 0.23825 0.0
H499 H 0.32612 0.96468 0.27079 0.0
C500 C 0.29067 0.0278 0.26168 0.0
C501 C 0.27838 0.01309 0.23203 0.0
C502 C 0.30392 0.02236 0.31162 0.0
C503 C 0.30518 0.00212 0.33218 0.0
C504 C 0.29147 0.98782 0.30719 0.0
H505 H 0.42409 0.96706 0.49143 0.0
H506 H 0.3886 0.96264 0.45821 0.0
C507 C 0.27808 0.9933 0.25732 0.0
C508 C 0.32305 0.9958 0.37052 0.0
H509 H 0.37057 0.97664 0.34861 0.0
C510 C 0.32545 0.00332 0.43394 0.0
C511 C 0.33921 0.98523 0.34047 0.0
C512 C 0.33749 0.97707 0.27194 0.0
C513 C 0.34403 0.00155 0.46676 0.0
C514 C 0.36069 0.99253 0.43442 0.0
C515 C 0.3578 0.98363 0.37309 0.0
C516 C 0.3817 0.99472 0.45875 0.0
C517 C 0.34583 0.00998 0.53485 0.0
C518 C 0.38967 0.01419 0.46842 0.0
C519 C 0.40981 0.01675 0.48686 0.0
C520 C 0.42255 0.99989 0.49544 0.0
C521 C 0.41466 0.98035 0.48499 0.0
C522 C 0.39439 0.97779 0.4665 0.0
H523 H 0.33109 0.00913 0.5609 0.0
H524 H 0.35743 0.00173 0.56372 0.0
H525 H 0.35024 0.02619 0.53213 0.0
H526 H 0.38039 0.02751 0.4605 0.0
H527 H 0.41539 0.03203 0.4942 0.0
H528 H 0.53031 0.27362 0.22643 0.0
H529 H 0.53985 0.2976 0.31269 0.0
H530 H 0.47709 0.31456 0.33474 0.0
H531 H 0.46767 0.29075 0.24898 0.0
H532 H 0.53246 0.33768 0.2869 0.0
H533 H 0.49709 0.3177 0.52176 0.0
H534 H 0.50146 0.2992 0.4583 0.0
H535 H 0.47934 0.31519 0.45613 0.0
C536 C 0.51852 0.28176 0.25222 0.0
C537 C 0.49828 0.28037 0.23179 0.0
C538 C 0.52397 0.2955 0.3011 0.0
C539 C 0.50917 0.30776 0.33049 0.0
C540 C 0.48872 0.30496 0.31393 0.0
H541 H 0.47703 0.42062 0.46212 0.0
H542 H 0.4827 0.38577 0.42772 0.0
C543 C 0.48332 0.2914 0.26484 0.0
C544 C 0.51502 0.32612 0.36748 0.0
H545 H 0.50107 0.35394 0.5 0.0
C546 C 0.52618 0.34108 0.3345 0.0
C547 C 0.50681 0.33048 0.42945 0.0
C548 C 0.49568 0.31467 0.46869 0.0
C549 C 0.52766 0.36088 0.35896 0.0
C550 C 0.518 0.36566 0.41844 0.0
C551 C 0.50831 0.35026 0.45405 0.0
C552 C 0.51525 0.3869 0.43977 0.0
C553 C 0.5381 0.37689 0.3185 0.0
C554 C 0.53174 0.39918 0.45732 0.0
C555 C 0.52856 0.41931 0.47652 0.0
C556 C 0.50882 0.42732 0.47887 0.0
C557 C 0.49242 0.41494 0.46081 0.0
C558 C 0.49562 0.39497 0.4415 0.0
H559 H 0.54244 0.37121 0.26949 0.0
H560 H 0.52812 0.3903 0.31234 0.0
H561 H 0.55206 0.38195 0.34384 0.0
H562 H 0.547 0.39315 0.4569 0.0
H563 H 0.54146 0.42842 0.49089 0.0
H564 H 0.22643 0.48927 0.25732 0.0
H565 H 0.20015 0.49805 0.3365 0.0
H566 H 0.19479 0.55747 0.25033 0.0
H567 H 0.22058 0.54841 0.16949 0.0
H568 H 0.18921 0.52787 0.42726 0.0
H569 H 0.1411 0.53068 0.20429 0.0
H570 H 0.16697 0.522 0.20244 0.0
H571 H 0.1615 0.54866 0.20702 0.0
C572 C 0.22025 0.50449 0.25715 0.0
C573 C 0.2253 0.51813 0.20725 0.0
C574 C 0.20518 0.50948 0.30217 0.0
C575 C 0.19513 0.5282 0.29796 0.0
C576 C 0.20204 0.54278 0.25335 0.0
H577 H 0.07129 0.54551 0.44833 0.0
H578 H 0.10491 0.55423 0.40524 0.0
C579 C 0.21688 0.53768 0.20769 0.0
C580 C 0.1756 0.53092 0.3324 0.0
H581 H 0.12461 0.53293 0.30454 0.0
C582 C 0.1751 0.52931 0.40057 0.0
C583 C 0.15716 0.53268 0.29734 0.0
C584 C 0.15657 0.53344 0.22376 0.0
C585 C 0.15662 0.52878 0.43447 0.0
C586 C 0.13825 0.52968 0.39908 0.0
C587 C 0.13876 0.53235 0.3314 0.0
C588 C 0.11844 0.52534 0.42975 0.0
C589 C 0.15688 0.52674 0.50768 0.0
C590 C 0.11489 0.50612 0.45659 0.0
C591 C 0.09577 0.50104 0.48031 0.0
C592 C 0.07974 0.51506 0.4776 0.0
C593 C 0.08332 0.53438 0.45096 0.0
C594 C 0.10251 0.53942 0.42672 0.0
H595 H 0.17125 0.53263 0.52864 0.0
H596 H 0.14396 0.53495 0.53015 0.0
H597 H 0.15563 0.51047 0.52091 0.0
H598 H 0.12682 0.49485 0.45782 0.0
H599 H 0.09358 0.48604 0.50068 0.0
H600 H 0.98638 0.7788 0.93869 0.0
H601 H 0.99546 0.80456 0.85842 0.0
H602 H 0.05395 0.8116 0.94977 0.0
H603 H 0.04452 0.78627 0.03153 0.0
H604 H 0.03359 0.84559 0.95254 0.0
H605 H 0.02923 0.81637 0.7013 0.0
H606 H 0.00699 0.80941 0.74607 0.0
H607 H 0.03134 0.79974 0.77096 0.0
C608 C 0.00154 0.78512 0.93955 0.0
C609 C 0.01476 0.78066 0.99109 0.0
C610 C 0.00677 0.79985 0.89353 0.0
C611 C 0.02544 0.81004 0.89785 0.0
C612 C 0.03949 0.80394 0.94539 0.0
H613 H 0.04431 0.93388 0.74276 0.0
H614 H 0.05274 0.9002 0.78603 0.0
C615 C 0.03415 0.78942 0.99186 0.0
C616 C 0.02836 0.82949 0.86266 0.0
H617 H 0.02161 0.8524 0.71505 0.0
C618 C 0.03157 0.847 0.90028 0.0
C619 C 0.02559 0.83139 0.79459 0.0
C620 C 0.02331 0.81316 0.75094 0.0
C621 C 0.0307 0.8664 0.87252 0.0
C622 C 0.02671 0.86832 0.8052 0.0
C623 C 0.02459 0.85083 0.7668 0.0
C624 C 0.02236 0.8883 0.77566 0.0
C625 C 0.0327 0.88472 0.91612 0.0
C626 C 0.00259 0.8926 0.75509 0.0
C627 C 0.99772 0.91173 0.73086 0.0
C628 C 0.01258 0.92695 0.72637 0.0
C629 C 0.0325 0.92254 0.7462 0.0
C630 C 0.03735 0.90332 0.77072 0.0
H631 H 0.03302 0.88057 0.96859 0.0
H632 H 0.04697 0.89284 0.90439 0.0
H633 H 0.01993 0.89537 0.90776 0.0
H634 H 0.9908 0.88121 0.75881 0.0
H635 H 0.98226 0.91453 0.71558 0.0
H636 H 0.73639 0.98909 0.93712 0.0
H637 H 0.71237 0.99195 0.84674 0.0
H638 H 0.68912 0.04747 0.92869 0.0
H639 H 0.71334 0.04486 0.01811 0.0
H640 H 0.6729 0.98953 0.88726 0.0
H641 H 0.68251 0.05801 0.73421 0.0
H642 H 0.7029 0.04743 0.78219 0.0
H643 H 0.68406 0.06324 0.81988 0.0
C644 C 0.72691 0.00245 0.93387 0.0
C645 C 0.72651 0.01664 0.98481 0.0
C646 C 0.71312 0.00403 0.88241 0.0
C647 C 0.69891 0.01989 0.88107 0.0
C648 C 0.70011 0.03528 0.92804 0.0
H649 H 0.57539 0.03614 0.75394 0.0
H650 H 0.60992 0.04046 0.79666 0.0
C651 C 0.71387 0.03371 0.97941 0.0
C652 C 0.68031 0.01793 0.84123 0.0
H653 H 0.64911 0.04315 0.73599 0.0
C654 C 0.6679 1.00106 0.85317 0.0
C655 C 0.67362 0.03322 0.79799 0.0
C656 C 0.68656 0.05142 0.78231 0.0
C657 C 0.64871 0.99932 0.82474 0.0
C658 C 0.6419 0.01466 0.78185 0.0
C659 C 0.6544 0.03143 0.76894 0.0
C660 C 0.62172 0.01339 0.75074 0.0
C661 C 0.63557 0.98144 0.84305 0.0
C662 C 0.61714 0.99706 0.7097 0.0
C663 C 0.5975 0.9944 0.68633 0.0
C664 C 0.5821 0.00821 0.70267 0.0
C665 C 0.58692 0.02517 0.7411 0.0
C666 C 0.60662 0.0277 0.76518 0.0
H667 H 0.64083 0.97404 0.88866 0.0
H668 H 0.61954 0.98613 0.84963 0.0
H669 H 0.63616 0.96999 0.8035 0.0
H670 H 0.62868 0.98608 0.69694 0.0
H671 H 0.59438 0.98141 0.65564 0.0
H672 H 0.47729 0.7355 0.9773 0.0
H673 H 0.46751 0.71169 0.89071 0.0
H674 H 0.52919 0.69037 0.87984 0.0
H675 H 0.53893 0.71407 0.9658 0.0
H676 H 0.50684 0.69097 0.75557 0.0
H677 H 0.4668 0.65206 0.96009 0.0
H678 H 0.46013 0.67788 0.94174 0.0
H679 H 0.48467 0.67224 0.97469 0.0
C680 C 0.48886 0.72634 0.95423 0.0
C681 C 0.50882 0.72644 0.97803 0.0
C682 C 0.48325 0.71266 0.9053 0.0
C683 C 0.49758 0.69908 0.87986 0.0
C684 C 0.51792 0.70073 0.89894 0.0
H685 H 0.52922 0.58886 0.72366 0.0
H686 H 0.52401 0.62376 0.75777 0.0
C687 C 0.52349 0.71425 0.9479 0.0
C688 C 0.49132 0.68105 0.84215 0.0
H689 H 0.47274 0.63331 0.86574 0.0
C690 C 0.49892 0.67852 0.77888 0.0
C691 C 0.48092 0.66485 0.87274 0.0
C692 C 0.47269 0.6667 0.94114 0.0
C693 C 0.49747 0.65978 0.7469 0.0
C694 C 0.48864 0.64311 0.77983 0.0
C695 C 0.4796 0.6461 0.84086 0.0
C696 C 0.49126 0.62205 0.75645 0.0
C697 C 0.50612 0.6578 0.67916 0.0
C698 C 0.47456 0.60919 0.74701 0.0
C699 C 0.47749 0.58899 0.72812 0.0
C700 C 0.4972 0.58137 0.71902 0.0
C701 C 0.51383 0.59424 0.72983 0.0
C702 C 0.51089 0.61431 0.74858 0.0
H703 H 0.50534 0.67245 0.65255 0.0
H704 H 0.52232 0.65341 0.68258 0.0
H705 H 0.49798 0.64607 0.65049 0.0
H706 H 0.45929 0.6148 0.75395 0.0
H707 H 0.46438 0.57945 0.72001 0.0
H708 H 0.77872 0.52052 0.93821 0.0
H709 H 0.80461 0.51143 0.85857 0.0
H710 H 0.81138 0.45288 0.95001 0.0
H711 H 0.7859 0.46232 0.03118 0.0
H712 H 0.84547 0.473 0.95277 0.0
H713 H 0.81628 0.4777 0.70156 0.0
H714 H 0.80946 0.49999 0.74627 0.0
H715 H 0.79964 0.47567 0.77116 0.0
C716 C 0.78502 0.50535 0.93923 0.0
C717 C 0.78041 0.49211 0.99062 0.0
C718 C 0.79983 0.50012 0.89357 0.0
C719 C 0.80996 0.48142 0.89806 0.0
C720 C 0.80377 0.46737 0.9455 0.0
H721 H 0.9334 0.46199 0.74059 0.0
H722 H 0.89983 0.45372 0.78497 0.0
C723 C 0.78916 0.4727 0.99162 0.0
C724 C 0.82939 0.47843 0.86293 0.0
H725 H 0.85232 0.48522 0.71541 0.0
C726 C 0.84689 0.47508 0.90053 0.0
C727 C 0.83131 0.48124 0.79488 0.0
C728 C 0.8131 0.48364 0.75118 0.0
C729 C 0.86627 0.47586 0.87278 0.0
C730 C 0.86821 0.47993 0.80552 0.0
C731 C 0.85074 0.48218 0.76713 0.0
C732 C 0.88819 0.48425 0.77602 0.0
C733 C 0.88459 0.47366 0.91629 0.0
C734 C 0.89261 0.50407 0.75607 0.0
C735 C 0.91168 0.50885 0.73123 0.0
C736 C 0.92671 0.49386 0.72546 0.0
C737 C 0.92219 0.47391 0.74494 0.0
C738 C 0.90305 0.46914 0.77009 0.0
H739 H 0.88046 0.47311 0.96875 0.0
H740 H 0.8927 0.45945 0.9039 0.0
H741 H 0.89523 0.48648 0.90846 0.0
H742 H 0.88136 0.51595 0.76059 0.0
H743 H 0.91457 0.52434 0.71635 0.0
H744 H 0.05239 0.20031 0.05085 0.0
H745 H 0.05411 0.17027 0.98121 0.0
H746 H 0.0042 0.19306 0.86693 0.0
H747 H 0.00262 0.2233 0.9362 0.0
H748 H 0.02269 0.14389 0.97653 0.0
H749 H 0.04107 0.16978 0.72659 0.0
H750 H 0.04546 0.18534 0.79766 0.0
H751 H 0.02051 0.18358 0.76275 0.0
C752 C 0.04221 0.19918 0.00958 0.0
C753 C 0.02735 0.21408 0.99889 0.0
C754 C 0.04317 0.18201 0.96995 0.0
C755 C 0.02933 0.1794 0.91873 0.0
C756 C 0.0153 0.1949 0.90535 0.0
H757 H 0.97375 0.07275 0.76899 0.0
H758 H 0.98439 0.10296 0.82856 0.0
C759 C 0.0144 0.21218 0.94491 0.0
C760 C 0.02778 0.15944 0.88556 0.0
H761 H 0.02647 0.13654 0.73634 0.0
C762 C 0.02381 0.14226 0.92405 0.0
C763 C 0.02937 0.15726 0.81719 0.0
C764 C 0.03454 0.17494 0.77363 0.0
C765 C 0.02061 0.12315 0.89591 0.0
C766 C 0.02117 0.12117 0.8274 0.0
C767 C 0.02594 0.13813 0.78892 0.0
C768 C 0.01542 0.10197 0.79477 0.0
C769 C 0.0164 0.10526 0.9397 0.0
C770 C 0.02939 0.0913 0.75627 0.0
C771 C 0.02337 0.07386 0.7224 0.0
C772 C 0.00319 0.06705 0.72576 0.0
C773 C 0.98941 0.07755 0.76558 0.0
C774 C 0.99547 0.09481 0.79974 0.0
H775 H 0.02185 0.10799 0.99018 0.0
H776 H 0.99981 0.1026 0.94179 0.0
H777 H 0.02371 0.09131 0.92064 0.0
H778 H 0.04484 0.09665 0.75166 0.0
H779 H 0.03428 0.06624 0.69152 0.0
H780 H 0.28292 1.00124 0.94321 0.0
H781 H 0.31331 0.0017 0.87429 0.0
H782 H 0.33507 0.05446 0.97664 0.0
H783 H 0.30491 0.05389 0.04608 0.0
H784 H 0.33445 0.03055 0.79343 0.0
H785 H 0.37711 0.00989 0.01755 0.0
H786 H 0.34982 0.00914 0.01348 0.0
H787 H 0.36273 0.03294 0.02297 0.0
C788 C 0.29388 0.0133 0.94949 0.0
C789 C 0.29171 0.02741 0.00026 0.0
C790 C 0.31126 0.01351 0.91035 0.0
C791 C 0.32662 0.02785 0.92141 0.0
C792 C 0.32357 0.04304 0.96818 0.0
H793 H 0.4402 0.03425 0.69685 0.0
H794 H 0.40913 0.04404 0.75466 0.0
C795 C 0.30632 0.04276 0.00753 0.0
C796 C 0.34663 0.02557 0.88938 0.0
H797 H 0.39611 0.01407 0.92143 0.0
C798 C 0.34798 0.02712 0.8213 0.0
C799 C 0.36418 0.02077 0.92597 0.0
C800 C 0.36347 0.01789 0.99896 0.0
C801 C 0.36648 0.02394 0.78881 0.0
C802 C 0.38402 0.01931 0.82558 0.0
C803 C 0.38266 0.01789 0.89358 0.0
C804 C 0.40355 0.01413 0.79417 0.0
C805 C 0.367 0.02483 0.71533 0.0
C806 C 0.41108 0.99433 0.79951 0.0
C807 C 0.42878 0.98874 0.76698 0.0
C808 C 0.43942 0.0029 0.72891 0.0
C809 C 0.43241 0.02303 0.72616 0.0
C810 C 0.41455 0.02858 0.75847 0.0
H811 H 0.35155 0.02521 0.69382 0.0
H812 H 0.37518 0.03871 0.69974 0.0
H813 H 0.37525 0.01155 0.6953 0.0
H814 H 0.40289 0.983 0.82724 0.0
H815 H 0.43381 0.97313 0.77013 0.0
H816 H 0.50711 0.28407 0.94055 0.0
H817 H 0.50643 0.31432 0.87074 0.0
H818 H 0.45603 0.33784 0.98085 0.0
H819 H 0.45678 0.3078 0.05094 0.0
H820 H 0.47627 0.33602 0.79419 0.0
H821 H 0.5027 0.37882 0.01159 0.0
H822 H 0.5028 0.35149 0.00825 0.0
H823 H 0.47953 0.36492 0.02244 0.0
C824 C 0.49549 0.2954 0.94842 0.0
C825 C 0.48212 0.29373 0.00143 0.0
C826 C 0.49517 0.3127 0.90878 0.0
C827 C 0.48145 0.32849 0.92159 0.0
C828 C 0.46696 0.326 0.97092 0.0
H829 H 0.47299 0.44169 0.69466 0.0
H830 H 0.46382 0.41082 0.7549 0.0
C831 C 0.46735 0.30881 0.01067 0.0
C832 C 0.48368 0.34833 0.88827 0.0
H833 H 0.49705 0.39764 0.91577 0.0
C834 C 0.48066 0.34954 0.82069 0.0
C835 C 0.48969 0.36588 0.92301 0.0
C836 C 0.49406 0.3653 0.99522 0.0
C837 C 0.48353 0.36788 0.78687 0.0
C838 C 0.4894 0.38544 0.82179 0.0
C839 C 0.49231 0.38421 0.88934 0.0
C840 C 0.4943 0.40479 0.78851 0.0
C841 C 0.48097 0.36823 0.71382 0.0
C842 C 0.51429 0.412 0.78959 0.0
C843 C 0.51953 0.42958 0.75568 0.0
C844 C 0.50485 0.44044 0.72037 0.0
C845 C 0.48462 0.43371 0.72165 0.0
C846 C 0.4794 0.41597 0.75541 0.0
H847 H 0.47985 0.35272 0.69302 0.0
H848 H 0.4669 0.37657 0.70134 0.0
H849 H 0.49386 0.37622 0.69039 0.0
H850 H 0.52599 0.40368 0.81523 0.0
H851 H 0.53522 0.43438 0.75583 0.0
H852 H 0.2166 0.4649 0.97492 0.0
H853 H 0.18796 0.46182 0.89889 0.0
H854 H 0.18167 0.5269 0.8966 0.0
H855 H 0.21021 0.53 0.9717 0.0
H856 H 0.14912 0.47524 0.93062 0.0
H857 H 0.17528 0.51257 0.70458 0.0
H858 H 0.19262 0.50356 0.7663 0.0
H859 H 0.1803 0.52776 0.77526 0.0
C860 C 0.20951 0.47853 0.95626 0.0
C861 C 0.21561 0.4977 0.97883 0.0
C862 C 0.19309 0.47675 0.91332 0.0
C863 C 0.18279 0.49413 0.89162 0.0
C864 C 0.18961 0.51331 0.91159 0.0
H865 H 0.07371 0.5396 0.74141 0.0
H866 H 0.10588 0.53123 0.79329 0.0
C867 C 0.20586 0.51507 0.9547 0.0
C868 C 0.16357 0.49247 0.85447 0.0
H869 H 0.13906 0.51183 0.72192 0.0
C870 C 0.14699 0.48282 0.8842 0.0
C871 C 0.16084 0.50234 0.79394 0.0
C872 C 0.17827 0.51196 0.75784 0.0
C873 C 0.12745 0.48398 0.85712 0.0
C874 C 0.12455 0.49494 0.79869 0.0
C875 C 0.14132 0.5036 0.76713 0.0
C876 C 0.10409 0.49916 0.77226 0.0
C877 C 0.10986 0.47454 0.89291 0.0
C878 C 0.09218 0.48378 0.74455 0.0
C879 C 0.07363 0.48852 0.71487 0.0
C880 C 0.06684 0.50873 0.71225 0.0
C881 C 0.07849 0.5239 0.74243 0.0
C882 C 0.09694 0.51916 0.77192 0.0
H883 H 0.11432 0.46863 0.94156 0.0
H884 H 0.09753 0.48581 0.89931 0.0
H885 H 0.10372 0.46178 0.86374 0.0
H886 H 0.09754 0.46827 0.74388 0.0
H887 H 0.0651 0.47652 0.69153 0.0
H888 H 0.96074 0.78912 0.22425 0.0
H889 H 0.95728 0.81788 0.2997 0.0
H890 H 0.02215 0.82575 0.29935 0.0
H891 H 0.02566 0.79705 0.22494 0.0
H892 H 0.00342 0.83113 0.42405 0.0
H893 H 0.96623 0.87602 0.22726 0.0
H894 H 0.9549 0.85215 0.24905 0.0
H895 H 0.97934 0.85258 0.2108 0.0
C896 C 0.97426 0.79666 0.24188 0.0
C897 C 0.99347 0.79098 0.21862 0.0
C898 C 0.97225 0.81319 0.2843 0.0
C899 C 0.98944 0.82416 0.30405 0.0
C900 C 0.00869 0.81757 0.28442 0.0
H901 H 0.03702 0.93083 0.46374 0.0
H902 H 0.02812 0.89867 0.41276 0.0
C903 C 0.01069 0.80118 0.24197 0.0
C904 C 0.98767 0.84338 0.34104 0.0
H905 H 0.97528 0.89339 0.32264 0.0
C906 C 0.99695 0.84467 0.40241 0.0
C907 C 0.9792 0.86103 0.31265 0.0
C908 C 0.96943 0.86057 0.24617 0.0
C909 C 0.9987 0.86328 0.43498 0.0
C910 C 0.99128 0.88109 0.40489 0.0
C911 C 0.98099 0.87968 0.34531 0.0
C912 C 0.996 0.90141 0.43152 0.0
C913 C 0.00902 0.86388 0.50058 0.0
C914 C 0.98073 0.91403 0.45634 0.0
C915 C 0.98577 0.93258 0.48555 0.0
C916 C 0.00615 0.93876 0.48987 0.0
C917 C 0.0212 0.92649 0.46171 0.0
C918 C 0.01617 0.90804 0.43285 0.0
H919 H 0.00884 0.84879 0.52465 0.0
H920 H 0.02506 0.86848 0.49395 0.0
H921 H 0.00165 0.87508 0.53326 0.0
H922 H 0.96504 0.90923 0.4551 0.0
H923 H 0.97383 0.94166 0.50694 0.0
H924 H 0.70432 0.03238 0.21115 0.0
H925 H 0.67378 0.02767 0.2769 0.0
H926 H 0.68747 0.96407 0.29691 0.0
H927 H 0.7182 0.96872 0.23062 0.0
H928 H 0.64349 0.9963 0.22716 0.0
H929 H 0.66818 0.98626 0.4851 0.0
H930 H 0.68307 1.00093 0.42812 0.0
H931 H 0.68193 0.97391 0.42029 0.0
C932 C 0.70113 0.01751 0.23118 0.0
C933 C 0.71355 1.0009 0.21579 0.0
C934 C 0.68368 0.01483 0.2685 0.0
C935 C 0.67838 0.99553 0.2914 0.0
C936 C 0.69144 0.97911 0.27998 0.0
H937 H 0.56489 0.9746 0.50796 0.0
H938 H 0.59613 0.96657 0.4482 0.0
C939 C 0.709 0.9818 0.24252 0.0
C940 C 0.65807 0.99247 0.32024 0.0
H941 H 0.63308 0.98816 0.46511 0.0
C942 C 0.64118 0.99423 0.27909 0.0
C943 C 0.65519 0.98952 0.38771 0.0
C944 C 0.67297 0.98755 0.43336 0.0
C945 C 0.62142 0.994 0.30407 0.0
C946 C 0.61851 0.99234 0.3721 0.0
C947 C 0.63537 0.98945 0.41293 0.0
C948 C 0.59844 0.99601 0.40226 0.0
C949 C 0.60383 0.996 0.25755 0.0
C950 C 0.58929 0.01508 0.39538 0.0
C951 C 0.57157 0.01969 0.42928 0.0
C952 C 0.56262 0.00531 0.47079 0.0
C953 C 0.57129 0.98589 0.47556 0.0
C954 C 0.5892 0.98133 0.44194 0.0
H955 H 0.60791 0.99054 0.20804 0.0
H956 H 0.59044 0.98739 0.27507 0.0
H957 H 0.59955 0.01222 0.25346 0.0
H958 H 0.59634 0.02675 0.36592 0.0
H959 H 0.56531 0.03481 0.42495 0.0
H960 H 0.49942 0.72318 0.26881 0.0
H961 H 0.5008 0.69313 0.33912 0.0
H962 H 0.55232 0.67102 0.23117 0.0
H963 H 0.5508 0.70086 0.16051 0.0
H964 H 0.521 0.64424 0.23249 0.0
H965 H 0.53661 0.67051 0.48405 0.0
H966 H 0.51633 0.68401 0.44509 0.0
H967 H 0.54164 0.68602 0.41324 0.0
C968 C 0.51149 0.71227 0.26179 0.0
C969 C 0.52497 0.71428 0.20923 0.0
C970 C 0.51228 0.69509 0.30194 0.0
C971 C 0.52671 0.67982 0.29053 0.0
C972 C 0.54107 0.68258 0.24089 0.0
H973 H 0.53278 0.56628 0.51537 0.0
H974 H 0.54282 0.59711 0.4564 0.0
C975 C 0.54022 0.69964 0.20068 0.0
C976 C 0.5251 0.65987 0.32376 0.0
H977 H 0.523 0.63694 0.47296 0.0
C978 C 0.52172 0.64263 0.28505 0.0
C979 C 0.52613 0.65773 0.39227 0.0
C980 C 0.53057 0.67552 0.43613 0.0
C981 C 0.51864 0.62347 0.31302 0.0
C982 C 0.51875 0.6215 0.38154 0.0
C983 C 0.52285 0.63854 0.42035 0.0
C984 C 0.51328 0.60214 0.41371 0.0
C985 C 0.51503 0.6055 0.26907 0.0
C986 C 0.49345 0.59468 0.40851 0.0
C987 C 0.48769 0.57718 0.44202 0.0
C988 C 0.50167 0.56673 0.48128 0.0
C989 C 0.52174 0.57386 0.48484 0.0
C990 C 0.52745 0.59154 0.45169 0.0
H991 H 0.52041 0.60843 0.21864 0.0
H992 H 0.52276 0.59178 0.28819 0.0
H993 H 0.49853 0.60229 0.26692 0.0
H994 H 0.48224 0.60276 0.37996 0.0
H995 H 0.4721 0.57214 0.43853 0.0
H996 H 0.79508 0.48088 0.22684 0.0
H997 H 0.82352 0.48391 0.3023 0.0
H998 H 0.81797 0.54905 0.29773 0.0
H999 H 0.78941 0.54603 0.22134 0.0
H1000 H 0.85671 0.53505 0.26704 0.0
H1001 H 0.82976 0.49881 0.49388 0.0
H1002 H 0.82461 0.48344 0.42373 0.0
H1003 H 0.81263 0.50784 0.43161 0.0
C1004 C 0.79956 0.49582 0.24342 0.0
C1005 C 0.79005 0.51322 0.21857 0.0
C1006 C 0.81576 0.49754 0.28673 0.0
C1007 C 0.82276 0.5167 0.30616 0.0
C1008 C 0.8127 0.53413 0.28373 0.0
H1009 H 0.94069 0.53245 0.5066 0.0
H1010 H 0.90842 0.54136 0.45428 0.0
C1011 C 0.79632 0.53239 0.24058 0.0
C1012 C 0.84194 0.51825 0.34353 0.0
H1013 H 0.86604 0.49878 0.47667 0.0
C1014 C 0.85869 0.52756 0.31368 0.0
C1015 C 0.84446 0.5085 0.40435 0.0
C1016 C 0.82684 0.49927 0.44057 0.0
C1017 C 0.87819 0.52612 0.34089 0.0
C1018 C 0.88087 0.51524 0.39954 0.0
C1019 C 0.86394 0.50696 0.43128 0.0
C1020 C 0.90124 0.5106 0.42595 0.0
C1021 C 0.89596 0.53518 0.30498 0.0
C1022 C 0.90798 0.49046 0.4263 0.0
C1023 C 0.92631 0.48535 0.45579 0.0
C1024 C 0.93827 0.50028 0.48594 0.0
C1025 C 0.9319 0.52062 0.48331 0.0
C1026 C 0.91346 0.52574 0.45363 0.0
H1027 H 0.89161 0.54119 0.25637 0.0
H1028 H 0.90242 0.54778 0.33412 0.0
H1029 H 0.90803 0.52362 0.2985 0.0
H1030 H 0.89878 0.47858 0.40494 0.0
H1031 H 0.93077 0.46955 0.45679 0.0
loop_
_geom_bond_atom_site_label_1
_geom_bond_atom_site_label_2
_geom_bond_distance
_geom_bond_site_symmetry_2
_ccdc_geom_bond_type
H0 C3 0.929 . S
H1 C6 0.929 . S
H2 C8 0.930 . S
C3 H0 0.929 . S
C3 C4 1.398 . S
C3 C5 1.396 1_554 S
C4 C3 1.398 . S
C4 C8 1.407 . S
C5 C3 1.396 1_556 S
C5 C6 1.394 . S
C6 H1 0.929 . S
C6 C5 1.394 . S
C6 C7 1.382 1_556 S
C7 C6 1.382 1_554 S
C7 C8 1.392 . S
C7 N9 1.420 . S
C8 H2 0.930 . S
C8 C4 1.407 . S
C8 C7 1.392 . S
N9 C7 1.420 . S
N9 C10 1.244 1_554 S
C10 N9 1.244 1_556 S
H11 C14 0.929 . S
H12 C17 0.929 . S
H13 C19 0.930 . S
C14 H11 0.929 . S
C14 C15 1.398 . S
C14 C16 1.396 1_554 S
C15 C14 1.398 . S
C15 C19 1.407 . S
C16 C14 1.396 1_556 S
C16 C17 1.394 . S
C17 H12 0.929 . S
C17 C16 1.394 . S
C17 C18 1.382 1_556 S
C18 C17 1.382 1_554 S
C18 C19 1.392 . S
C18 N20 1.420 . S
C19 H13 0.930 . S
C19 C15 1.407 . S
C19 C18 1.392 . S
N20 C18 1.420 . S
N20 C21 1.244 1_554 S
C21 N20 1.244 1_556 S
H22 C25 0.929 . S
H23 C28 0.929 . S
H24 C30 0.930 . S
C25 H22 0.929 . S
C25 C26 1.398 . S
C25 C27 1.396 1_554 S
C26 C25 1.398 . S
C26 C30 1.407 . S
C27 C25 1.396 1_556 S
C27 C28 1.394 . S
C28 H23 0.929 . S
C28 C27 1.394 . S
C28 C29 1.382 1_556 S
C29 C28 1.382 1_554 S
C29 C30 1.392 . S
C29 N31 1.420 . S
C30 H24 0.930 . S
C30 C26 1.407 . S
C30 C29 1.392 . S
N31 C29 1.420 . S
N31 C32 1.244 1_554 S
C32 N31 1.244 1_556 S
H33 C36 0.929 . S
H34 C39 0.929 . S
H35 C41 0.930 . S
C36 H33 0.929 . S
C36 C37 1.398 . S
C36 C38 1.396 1_554 S
C37 C36 1.398 . S
C37 C41 1.407 . S
C38 C36 1.396 1_556 S
C38 C39 1.394 . S
C39 H34 0.929 . S
C39 C38 1.394 . S
C39 C40 1.382 1_556 S
C40 C39 1.382 1_554 S
C40 C41 1.392 . S
C40 N42 1.420 . S
C41 H35 0.930 . S
C41 C37 1.407 . S
C41 C40 1.392 . S
N42 C40 1.420 . S
N42 C43 1.244 1_554 S
C43 N42 1.244 1_556 S
H44 C47 0.929 . S
H45 C50 0.929 . S
H46 C52 0.930 . S
C47 H44 0.929 . S
C47 C48 1.398 . S
C47 C49 1.396 . S
C48 C47 1.398 . S
C48 C52 1.407 . S
C49 C47 1.396 . S
C49 C50 1.394 . S
C50 H45 0.929 . S
C50 C49 1.394 . S
C50 C51 1.382 . S
C51 C50 1.382 . S
C51 C52 1.392 . S
C51 N53 1.420 . S
C52 H46 0.930 . S
C52 C48 1.407 . S
C52 C51 1.392 . S
N53 C51 1.420 . S
N53 C54 1.244 . S
C54 N53 1.244 . S
H55 C58 0.929 . S
H56 C61 0.929 . S
H57 C63 0.930 . S
C58 H55 0.929 . S
C58 C59 1.398 . S
C58 C60 1.396 . S
C59 C58 1.398 . S
C59 C63 1.407 . S
C60 C58 1.396 . S
C60 C61 1.394 . S
C61 H56 0.929 . S
C61 C60 1.394 . S
C61 C62 1.382 . S
C62 C61 1.382 . S
C62 C63 1.392 . S
C62 N64 1.420 . S
C63 H57 0.930 . S
C63 C59 1.407 . S
C63 C62 1.392 . S
N64 C62 1.420 . S
N64 C65 1.244 . S
C65 N64 1.244 . S
H66 C69 0.929 . S
H67 C72 0.929 . S
H68 C74 0.930 . S
C69 H66 0.929 . S
C69 C70 1.398 . S
C69 C71 1.396 . S
C70 C69 1.398 . S
C70 C74 1.407 . S
C71 C69 1.396 . S
C71 C72 1.394 . S
C72 H67 0.929 . S
C72 C71 1.394 . S
C72 C73 1.382 . S
C73 C72 1.382 . S
C73 C74 1.392 . S
C73 N75 1.420 . S
C74 H68 0.930 . S
C74 C70 1.407 . S
C74 C73 1.392 . S
N75 C73 1.420 . S
N75 C76 1.244 . S
C76 N75 1.244 . S
H77 C80 0.929 . S
H78 C83 0.929 . S
H79 C85 0.930 . S
C80 H77 0.929 . S
C80 C81 1.398 . S
C80 C82 1.396 . S
C81 C80 1.398 . S
C81 C85 1.407 . S
C82 C80 1.396 . S
C82 C83 1.394 . S
C83 H78 0.929 . S
C83 C82 1.394 . S
C83 C84 1.382 . S
C84 C83 1.382 . S
C84 C85 1.392 . S
C84 N86 1.420 . S
C85 H79 0.930 . S
C85 C81 1.407 . S
C85 C84 1.392 . S
N86 C84 1.420 . S
N86 C87 1.244 . S
C87 N86 1.244 . S
Zn88 O94 1.969 1_455 S
Zn88 O95 1.965 . S
Zn88 O99 2.024 . S
Zn88 O104 1.969 1_455 S
Zn89 O96 1.969 . S
Zn89 O102 1.969 . S
Zn89 O103 1.965 1_455 S
Zn89 O105 2.024 1_455 S
C90 O91 1.229 1_455 S
C90 O99 1.058 . S
O91 C90 1.229 1_655 S
C92 O93 1.229 1_655 S
C92 O105 1.058 . S
O93 C92 1.229 1_455 S
O94 Zn88 1.969 1_655 S
O94 C97 1.267 1_655 S
O95 Zn88 1.965 . S
O95 C106 1.260 . S
O96 Zn89 1.969 . S
O96 C106 1.258 1_565 S
C97 O94 1.267 1_455 S
C97 O98 1.228 . S
O98 C97 1.228 . S
O99 Zn88 2.024 . S
O99 C90 1.058 . S
C100 O101 1.228 1_455 S
C100 O102 1.267 . S
O101 C100 1.228 1_655 S
O102 Zn89 1.969 . S
O102 C100 1.267 . S
O103 Zn89 1.965 1_655 S
O103 C107 1.260 1_565 S
O104 Zn88 1.969 1_655 S
O104 C107 1.258 . S
O105 Zn89 2.024 1_655 S
O105 C92 1.058 . S
C106 O95 1.260 . S
C106 O96 1.258 1_545 S
C107 O103 1.260 1_545 S
C107 O104 1.258 . S
Zn108 O114 1.969 1_545 S
Zn108 O115 1.965 . S
Zn108 O119 2.024 . S
Zn108 O124 1.969 1_545 S
Zn109 O116 1.969 . S
Zn109 O122 1.969 . S
Zn109 O123 1.965 1_545 S
Zn109 O125 2.024 1_545 S
C110 O111 1.229 1_545 S
C110 O119 1.058 . S
O111 C110 1.229 1_565 S
C112 O113 1.229 1_565 S
C112 O125 1.058 . S
O113 C112 1.229 1_545 S
O114 Zn108 1.969 1_565 S
O114 C117 1.267 1_565 S
O115 Zn108 1.965 . S
O115 C126 1.260 . S
O116 Zn109 1.969 . S
O116 C126 1.258 . S
C117 O114 1.267 1_545 S
C117 O118 1.228 . S
O118 C117 1.228 . S
O119 Zn108 2.024 . S
O119 C110 1.058 . S
C120 O121 1.228 1_545 S
C120 O122 1.267 . S
O121 C120 1.228 1_565 S
O122 Zn109 1.969 . S
O122 C120 1.267 . S
O123 Zn109 1.965 1_565 S
O123 C127 1.260 . S
O124 Zn108 1.969 1_565 S
O124 C127 1.258 . S
O125 Zn109 2.024 1_565 S
O125 C112 1.058 . S
C126 O115 1.260 . S
C126 O116 1.258 . S
C127 O123 1.260 . S
C127 O124 1.258 . S
Zn128 O134 1.969 . S
Zn128 O135 1.965 . S
Zn128 O139 2.024 . S
Zn128 O144 1.969 . S
Zn129 O136 1.969 . S
Zn129 O142 1.969 . S
Zn129 O143 1.965 . S
Zn129 O145 2.024 . S
C130 O131 1.229 . S
C130 O139 1.058 . S
O131 C130 1.229 . S
C132 O133 1.229 . S
C132 O145 1.058 . S
O133 C132 1.229 . S
O134 Zn128 1.969 . S
O134 C137 1.267 . S
O135 Zn128 1.965 . S
O135 C146 1.260 . S
O136 Zn129 1.969 . S
O136 C146 1.258 . S
C137 O134 1.267 . S
C137 O138 1.228 . S
O138 C137 1.228 . S
O139 Zn128 2.024 . S
O139 C130 1.058 . S
C140 O141 1.228 . S
C140 O142 1.267 . S
O141 C140 1.228 . S
O142 Zn129 1.969 . S
O142 C140 1.267 . S
O143 Zn129 1.965 . S
O143 C147 1.260 . S
O144 Zn128 1.969 . S
O144 C147 1.258 . S
O145 Zn129 2.024 . S
O145 C132 1.058 . S
C146 O135 1.260 . S
C146 O136 1.258 . S
C147 O143 1.260 . S
C147 O144 1.258 . S
Zn148 O154 1.969 . S
Zn148 O155 1.965 . S
Zn148 O159 2.024 . S
Zn148 O164 1.969 . S
Zn149 O156 1.969 . S
Zn149 O162 1.969 . S
Zn149 O163 1.965 . S
Zn149 O165 2.024 . S
C150 O151 1.229 . S
C150 O159 1.058 . S
O151 C150 1.229 . S
C152 O153 1.229 . S
C152 O165 1.058 . S
O153 C152 1.229 . S
O154 Zn148 1.969 . S
O154 C157 1.267 . S
O155 Zn148 1.965 . S
O155 C166 1.297 . S
O156 Zn149 1.969 . S
O156 C166 1.205 1_655 S
C157 O154 1.267 . S
C157 O158 1.228 . S
O158 C157 1.228 . S
O159 Zn148 2.024 . S
O159 C150 1.058 . S
C160 O161 1.228 . S
C160 O162 1.267 . S
O161 C160 1.228 . S
O162 Zn149 1.969 . S
O162 C160 1.267 . S
O163 Zn149 1.965 . S
O163 C167 1.260 1_655 S
O164 Zn148 1.969 . S
O164 C167 1.258 . S
O165 Zn149 2.024 . S
O165 C152 1.058 . S
C166 O155 1.297 . S
C166 O156 1.205 1_455 S
C167 O163 1.260 1_455 S
C167 O164 1.258 . S
H168 C176 0.929 1_565 S
H169 C178 0.930 1_565 S
H170 C180 0.930 . S
H171 C183 0.929 . S
H172 C186 0.930 . S
H173 C188 0.960 . S
H174 C188 0.964 . S
H175 C188 0.960 . S
C176 H168 0.929 1_545 S
C176 C177 1.377 . S
C176 C178 1.384 . S
C177 C176 1.377 . S
C177 C183 1.390 . S
C178 H169 0.930 1_545 S
C178 C176 1.384 . S
C178 C179 1.372 . S
C179 C178 1.372 . S
C179 C180 1.400 . S
C179 C184 1.490 . S
C180 H170 0.930 . S
C180 C179 1.400 . S
C180 C183 1.386 . S
H181 C197 0.930 . S
H182 C198 0.931 . S
C183 H171 0.929 . S
C183 C177 1.390 . S
C183 C180 1.386 . S
C184 C179 1.490 . S
C184 C186 1.395 . S
C184 C187 1.403 . S
H185 C191 0.930 . S
C186 H172 0.930 . S
C186 C184 1.395 . S
C186 C189 1.403 . S
C187 C184 1.403 . S
C187 C188 1.524 . S
C187 C191 1.400 . S
C188 H173 0.960 . S
C188 H174 0.964 . S
C188 H175 0.960 . S
C188 C187 1.524 . S
C189 C186 1.403 . S
C189 C190 1.392 . S
C189 C193 1.495 . S
C190 C189 1.392 . S
C190 C191 1.385 . S
C190 C192 1.478 . S
C191 H185 0.930 . S
C191 C187 1.400 . S
C191 C190 1.385 . S
C192 C190 1.478 . S
C192 C194 1.381 1_545 S
C192 C198 1.383 . S
C193 C189 1.495 . S
C193 H199 0.959 . S
C193 H200 0.961 . S
C193 H201 0.960 . S
C194 C192 1.381 1_565 S
C194 C195 1.394 . S
C194 H202 0.930 . S
C195 C194 1.394 . S
C195 C196 1.383 1_565 S
C195 H203 0.929 . S
C196 C195 1.383 1_545 S
C196 C197 1.377 . S
C197 H181 0.930 . S
C197 C196 1.377 . S
C197 C198 1.379 . S
C198 H182 0.931 . S
C198 C192 1.383 . S
C198 C197 1.379 . S
H199 C193 0.959 . S
H200 C193 0.961 . S
H201 C193 0.960 . S
H202 C194 0.930 . S
H203 C195 0.929 . S
H204 C212 0.929 . S
H205 C214 0.930 . S
H206 C216 0.930 . S
H207 C219 0.929 . S
H208 C222 0.930 . S
H209 C224 0.960 . S
H210 C224 0.960 . S
H211 C224 0.960 . S
C212 H204 0.929 . S
C212 C213 1.377 . S
C212 C214 1.384 . S
C213 C212 1.377 . S
C213 C219 1.390 . S
C214 H205 0.930 . S
C214 C212 1.384 . S
C214 C215 1.372 . S
C215 C214 1.372 . S
C215 C216 1.400 . S
C215 C220 1.490 . S
C216 H206 0.930 . S
C216 C215 1.400 . S
C216 C219 1.386 . S
H217 C233 0.930 . S
H218 C234 0.931 . S
C219 H207 0.929 . S
C219 C213 1.390 . S
C219 C216 1.386 . S
C220 C215 1.490 . S
C220 C222 1.395 . S
C220 C223 1.403 . S
H221 C227 0.930 . S
C222 H208 0.930 . S
C222 C220 1.395 . S
C222 C225 1.403 . S
C223 C220 1.403 . S
C223 C224 1.524 . S
C223 C227 1.400 . S
C224 H209 0.960 . S
C224 H210 0.960 . S
C224 H211 0.960 . S
C224 C223 1.524 . S
C225 C222 1.403 . S
C225 C226 1.392 . S
C225 C229 1.495 . S
C226 C225 1.392 . S
C226 C227 1.385 . S
C226 C228 1.478 . S
C227 H221 0.930 . S
C227 C223 1.400 . S
C227 C226 1.385 . S
C228 C226 1.478 . S
C228 C230 1.381 . S
C228 C234 1.383 . S
C229 C225 1.495 . S
C229 H235 0.959 . S
C229 H236 0.961 . S
C229 H237 0.960 . S
C230 C228 1.381 . S
C230 C231 1.394 . S
C230 H238 0.930 . S
C231 C230 1.394 . S
C231 C232 1.383 . S
C231 H239 0.929 . S
C232 C231 1.383 . S
C232 C233 1.377 . S
C233 H217 0.930 . S
C233 C232 1.377 . S
C233 C234 1.379 . S
C234 H218 0.931 . S
C234 C228 1.383 . S
C234 C233 1.379 . S
H235 C229 0.959 . S
H236 C229 0.961 . S
H237 C229 0.960 . S
H238 C230 0.930 . S
H239 C231 0.929 . S
H240 C248 0.929 . S
H241 C250 0.930 . S
H242 C252 0.930 . S
H243 C255 0.929 . S
H244 C258 0.930 . S
H245 C260 0.960 . S
H246 C260 0.960 . S
H247 C260 0.960 . S
C248 H240 0.929 . S
C248 C249 1.377 . S
C248 C250 1.384 . S
C249 C248 1.377 . S
C249 C255 1.390 . S
C250 H241 0.930 . S
C250 C248 1.384 . S
C250 C251 1.372 . S
C251 C250 1.372 . S
C251 C252 1.400 . S
C251 C256 1.490 . S
C252 H242 0.930 . S
C252 C251 1.400 . S
C252 C255 1.386 . S
H253 C269 0.930 . S
H254 C270 0.931 . S
C255 H243 0.929 . S
C255 C249 1.390 . S
C255 C252 1.386 . S
C256 C251 1.490 . S
C256 C258 1.395 . S
C256 C259 1.403 . S
H257 C263 0.930 . S
C258 H244 0.930 . S
C258 C256 1.395 . S
C258 C261 1.403 . S
C259 C256 1.403 . S
C259 C260 1.524 . S
C259 C263 1.400 . S
C260 H245 0.960 . S
C260 H246 0.960 . S
C260 H247 0.960 . S
C260 C259 1.524 . S
C261 C258 1.403 . S
C261 C262 1.392 . S
C261 C265 1.495 . S
C262 C261 1.392 . S
C262 C263 1.385 . S
C262 C264 1.478 . S
C263 H257 0.930 . S
C263 C259 1.400 . S
C263 C262 1.385 . S
C264 C262 1.478 . S
C264 C266 1.381 . S
C264 C270 1.383 . S
C265 C261 1.495 . S
C265 H271 0.959 . S
C265 H272 0.961 . S
C265 H273 0.960 . S
C266 C264 1.381 . S
C266 C267 1.394 . S
C266 H274 0.930 . S
C267 C266 1.394 . S
C267 C268 1.383 . S
C267 H275 0.929 . S
C268 C267 1.383 . S
C268 C269 1.377 . S
C269 H253 0.930 . S
C269 C268 1.377 . S
C269 C270 1.379 . S
C270 H254 0.931 . S
C270 C264 1.383 . S
C270 C269 1.379 . S
H271 C265 0.959 . S
H272 C265 0.961 . S
H273 C265 0.960 . S
H274 C266 0.930 . S
H275 C267 0.929 . S
H276 C284 0.929 . S
H277 C286 0.930 . S
H278 C288 0.930 . S
H279 C291 0.929 . S
H280 C294 0.930 . S
H281 C296 0.960 . S
H282 C296 0.960 . S
H283 C296 0.960 . S
C284 H276 0.929 . S
C284 C285 1.377 . S
C284 C286 1.384 . S
C285 C284 1.377 . S
C285 C291 1.390 . S
C286 H277 0.930 . S
C286 C284 1.384 . S
C286 C287 1.372 . S
C287 C286 1.372 . S
C287 C288 1.400 . S
C287 C292 1.490 . S
C288 H278 0.930 . S
C288 C287 1.400 . S
C288 C291 1.386 . S
H289 C305 0.930 . S
H290 C306 0.931 . S
C291 H279 0.929 . S
C291 C285 1.390 . S
C291 C288 1.386 . S
C292 C287 1.490 . S
C292 C294 1.395 . S
C292 C295 1.403 1_455 S
H293 C299 0.930 . S
C294 H280 0.930 . S
C294 C292 1.395 . S
C294 C297 1.403 . S
C295 C292 1.403 1_655 S
C295 C296 1.524 . S
C295 C299 1.400 . S
C296 H281 0.960 . S
C296 H282 0.960 . S
C296 H283 0.960 . S
C296 C295 1.524 . S
C297 C294 1.403 . S
C297 C298 1.392 . S
C297 C301 1.495 . S
C298 C297 1.392 . S
C298 C299 1.385 1_455 S
C298 C300 1.478 . S
C299 H293 0.930 . S
C299 C295 1.400 . S
C299 C298 1.385 1_655 S
C300 C298 1.478 . S
C300 C302 1.381 . S
C300 C306 1.383 . S
C301 C297 1.495 . S
C301 H307 0.959 . S
C301 H308 0.961 . S
C301 H309 0.960 . S
C302 C300 1.381 . S
C302 C303 1.394 . S
C302 H310 0.930 . S
C303 C302 1.394 . S
C303 C304 1.383 . S
C303 H311 0.929 . S
C304 C303 1.383 . S
C304 C305 1.377 . S
C305 H289 0.930 . S
C305 C304 1.377 . S
C305 C306 1.379 . S
C306 H290 0.931 . S
C306 C300 1.383 . S
C306 C305 1.379 . S
H307 C301 0.959 . S
H308 C301 0.961 . S
H309 C301 0.960 . S
H310 C302 0.930 . S
H311 C303 0.929 . S
H312 C320 0.929 1_554 S
H313 C322 0.930 . S
H314 C324 0.930 1_545 S
H315 C327 0.929 1_545 S
H316 C330 0.930 . S
H317 C332 0.960 . S
H318 C332 0.960 . S
H319 C332 0.960 . S
C320 H312 0.929 1_556 S
C320 C321 1.377 . S
C320 C322 1.384 . S
C321 C320 1.377 . S
C321 C327 1.390 . S
C322 H313 0.930 . S
C322 C320 1.384 . S
C322 C323 1.372 . S
C323 C322 1.372 . S
C323 C324 1.400 . S
C323 C328 1.490 . S
C324 H314 0.930 1_565 S
C324 C323 1.400 . S
C324 C327 1.386 . S
H325 C341 0.930 . S
H326 C342 0.931 . S
C327 H315 0.929 1_565 S
C327 C321 1.390 . S
C327 C324 1.386 . S
C328 C323 1.490 . S
C328 C330 1.395 . S
C328 C331 1.403 1_565 S
H329 C335 0.930 . S
C330 H316 0.930 . S
C330 C328 1.395 . S
C330 C333 1.403 . S
C331 C328 1.403 1_545 S
C331 C332 1.524 . S
C331 C335 1.400 . S
C332 H317 0.960 . S
C332 H318 0.960 . S
C332 H319 0.960 . S
C332 C331 1.524 . S
C333 C330 1.403 . S
C333 C334 1.392 . S
C333 C337 1.495 . S
C334 C333 1.392 . S
C334 C335 1.385 1_565 S
C334 C336 1.478 . S
C335 H329 0.930 . S
C335 C331 1.400 . S
C335 C334 1.385 1_545 S
C336 C334 1.478 . S
C336 C338 1.381 . S
C336 C342 1.383 1_565 S
C337 C333 1.495 . S
C337 H343 0.959 . S
C337 H344 0.961 . S
C337 H345 0.960 . S
C338 C336 1.381 . S
C338 C339 1.394 . S
C338 H346 0.930 . S
C339 C338 1.394 . S
C339 C340 1.383 . S
C339 H347 0.929 . S
C340 C339 1.383 . S
C340 C341 1.377 1_565 S
C341 H325 0.930 . S
C341 C340 1.377 1_545 S
C341 C342 1.379 . S
C342 H326 0.931 . S
C342 C336 1.383 1_545 S
C342 C341 1.379 . S
H343 C337 0.959 . S
H344 C337 0.961 . S
H345 C337 0.960 . S
H346 C338 0.930 . S
H347 C339 0.929 . S
H348 C356 0.929 1_554 S
H349 C358 0.930 . S
H350 C360 0.930 . S
H351 C363 0.929 . S
H352 C366 0.930 . S
H353 C368 0.960 . S
H354 C368 0.960 . S
H355 C368 0.960 . S
C356 H348 0.929 1_556 S
C356 C357 1.377 . S
C356 C358 1.384 . S
C357 C356 1.377 . S
C357 C363 1.390 . S
C358 H349 0.930 . S
C358 C356 1.384 . S
C358 C359 1.372 . S
C359 C358 1.372 . S
C359 C360 1.400 . S
C359 C364 1.490 . S
C360 H350 0.930 . S
C360 C359 1.400 . S
C360 C363 1.386 . S
H361 C377 0.930 . S
H362 C378 0.931 . S
C363 H351 0.929 . S
C363 C357 1.390 . S
C363 C360 1.386 . S
C364 C359 1.490 . S
C364 C366 1.395 . S
C364 C367 1.403 . S
H365 C371 0.930 . S
C366 H352 0.930 . S
C366 C364 1.395 . S
C366 C369 1.403 . S
C367 C364 1.403 . S
C367 C368 1.524 . S
C367 C371 1.400 . S
C368 H353 0.960 . S
C368 H354 0.960 . S
C368 H355 0.960 . S
C368 C367 1.524 . S
C369 C366 1.403 . S
C369 C370 1.392 . S
C369 C373 1.495 . S
C370 C369 1.392 . S
C370 C371 1.385 . S
C370 C372 1.478 . S
C371 H365 0.930 . S
C371 C367 1.400 . S
C371 C370 1.385 . S
C372 C370 1.478 . S
C372 C374 1.381 . S
C372 C378 1.383 . S
C373 C369 1.495 . S
C373 H379 0.959 . S
C373 H380 0.961 . S
C373 H381 0.960 . S
C374 C372 1.381 . S
C374 C375 1.394 . S
C374 H382 0.930 . S
C375 C374 1.394 . S
C375 C376 1.383 . S
C375 H383 0.929 . S
C376 C375 1.383 . S
C376 C377 1.377 . S
C377 H361 0.930 . S
C377 C376 1.377 . S
C377 C378 1.379 . S
C378 H362 0.931 . S
C378 C372 1.383 . S
C378 C377 1.379 . S
H379 C373 0.959 . S
H380 C373 0.961 . S
H381 C373 0.960 . S
H382 C374 0.930 . S
H383 C375 0.929 . S
H384 C392 0.929 1_554 S
H385 C394 0.930 . S
H386 C396 0.930 . S
H387 C399 0.929 . S
H388 C402 0.930 . S
H389 C404 0.960 . S
H390 C404 0.960 . S
H391 C404 0.960 . S
C392 H384 0.929 1_556 S
C392 C393 1.377 . S
C392 C394 1.384 . S
C393 C392 1.377 . S
C393 C399 1.390 . S
C394 H385 0.930 . S
C394 C392 1.384 . S
C394 C395 1.372 . S
C395 C394 1.372 . S
C395 C396 1.400 . S
C395 C400 1.490 . S
C396 H386 0.930 . S
C396 C395 1.400 . S
C396 C399 1.386 . S
H397 C413 0.930 . S
H398 C414 0.931 . S
C399 H387 0.929 . S
C399 C393 1.390 . S
C399 C396 1.386 . S
C400 C395 1.490 . S
C400 C402 1.395 . S
C400 C403 1.403 . S
H401 C407 0.930 . S
C402 H388 0.930 . S
C402 C400 1.395 . S
C402 C405 1.403 . S
C403 C400 1.403 . S
C403 C404 1.524 . S
C403 C407 1.400 . S
C404 H389 0.960 . S
C404 H390 0.960 . S
C404 H391 0.960 . S
C404 C403 1.524 . S
C405 C402 1.403 . S
C405 C406 1.392 . S
C405 C409 1.495 . S
C406 C405 1.392 . S
C406 C407 1.385 . S
C406 C408 1.478 . S
C407 H401 0.930 . S
C407 C403 1.400 . S
C407 C406 1.385 . S
C408 C406 1.478 . S
C408 C410 1.381 . S
C408 C414 1.383 . S
C409 C405 1.495 . S
C409 H415 0.959 . S
C409 H416 0.961 . S
C409 H417 0.960 . S
C410 C408 1.381 . S
C410 C411 1.394 . S
C410 H418 0.930 . S
C411 C410 1.394 . S
C411 C412 1.383 . S
C411 H419 0.929 . S
C412 C411 1.383 . S
C412 C413 1.377 . S
C413 H397 0.930 . S
C413 C412 1.377 . S
C413 C414 1.379 . S
C414 H398 0.931 . S
C414 C408 1.383 . S
C414 C413 1.379 . S
H415 C409 0.959 . S
H416 C409 0.961 . S
H417 C409 0.960 . S
H418 C410 0.930 . S
H419 C411 0.929 . S
H420 C428 0.929 . S
H421 C430 0.930 . S
H422 C432 0.930 1_455 S
H423 C435 0.922 1_454 S
H424 C438 0.930 . S
H425 C440 0.960 . S
H426 C440 0.960 . S
H427 C440 0.960 . S
C428 H420 0.929 . S
C428 C429 1.377 . S
C428 C430 1.384 . S
C429 C428 1.377 . S
C429 C435 1.390 . S
C430 H421 0.930 . S
C430 C428 1.384 . S
C430 C431 1.372 . S
C431 C430 1.372 . S
C431 C432 1.400 . S
C431 C436 1.490 . S
C432 H422 0.930 1_655 S
C432 C431 1.400 . S
C432 C435 1.386 . S
H433 C449 0.930 . S
H434 C450 0.931 . S
C435 H423 0.922 1_656 S
C435 C429 1.390 . S
C435 C432 1.386 . S
C436 C431 1.490 . S
C436 C438 1.395 . S
C436 C439 1.403 . S
H437 C443 0.930 . S
C438 H424 0.930 . S
C438 C436 1.395 . S
C438 C441 1.403 . S
C439 C436 1.403 . S
C439 C440 1.524 . S
C439 C443 1.400 . S
C440 H425 0.960 . S
C440 H426 0.960 . S
C440 H427 0.960 . S
C440 C439 1.524 . S
C441 C438 1.403 . S
C441 C442 1.392 . S
C441 C445 1.495 1_655 S
C442 C441 1.392 . S
C442 C443 1.385 . S
C442 C444 1.478 . S
C443 H437 0.930 . S
C443 C439 1.400 . S
C443 C442 1.385 . S
C444 C442 1.478 . S
C444 C446 1.381 . S
C444 C450 1.383 1_655 S
C445 C441 1.495 1_455 S
C445 H451 0.959 . S
C445 H452 0.961 . S
C445 H453 0.960 1_455 S
C446 C444 1.381 . S
C446 C447 1.394 . S
C446 H454 0.930 . S
C447 C446 1.394 . S
C447 C448 1.406 . S
C447 H455 0.929 . S
C448 C447 1.406 . S
C448 C449 1.358 1_655 S
C449 H433 0.930 . S
C449 C448 1.358 1_455 S
C449 C450 1.379 . S
C450 H434 0.931 . S
C450 C444 1.383 1_455 S
C450 C449 1.379 . S
H451 C445 0.959 . S
H452 C445 0.961 . S
H453 C445 0.960 1_655 S
H454 C446 0.930 . S
H455 C447 0.929 . S
H456 C464 0.929 1_655 S
H457 C466 0.930 1_655 S
H458 C468 0.930 . S
H459 C471 0.929 . S
H460 C474 0.930 . S
H461 C476 0.960 . S
H462 C476 0.960 . S
H463 C476 0.960 . S
C464 H456 0.929 1_455 S
C464 C465 1.377 . S
C464 C466 1.384 . S
C465 C464 1.377 . S
C465 C471 1.390 . S
C466 H457 0.930 1_455 S
C466 C464 1.384 . S
C466 C467 1.372 . S
C467 C466 1.372 . S
C467 C468 1.400 . S
C467 C472 1.490 . S
C468 H458 0.930 . S
C468 C467 1.400 . S
C468 C471 1.386 . S
H469 C485 0.930 . S
H470 C486 0.931 . S
C471 H459 0.929 . S
C471 C465 1.390 . S
C471 C468 1.386 . S
C472 C467 1.490 . S
C472 C474 1.395 . S
C472 C475 1.403 . S
H473 C479 0.930 . S
C474 H460 0.930 . S
C474 C472 1.395 . S
C474 C477 1.403 . S
C475 C472 1.403 . S
C475 C476 1.524 . S
C475 C479 1.400 . S
C476 H461 0.960 . S
C476 H462 0.960 . S
C476 H463 0.960 . S
C476 C475 1.524 . S
C477 C474 1.403 . S
C477 C478 1.392 . S
C477 C481 1.495 1_455 S
C478 C477 1.392 . S
C478 C479 1.385 . S
C478 C480 1.478 . S
C479 H473 0.930 . S
C479 C475 1.400 . S
C479 C478 1.385 . S
C480 C478 1.478 . S
C480 C482 1.381 1_455 S
C480 C486 1.383 . S
C481 C477 1.495 1_655 S
C481 H487 0.959 . S
C481 H488 0.961 1_655 S
C481 H489 0.960 . S
C482 C480 1.381 1_655 S
C482 C483 1.394 . S
C482 H490 0.930 . S
C483 C482 1.394 . S
C483 C484 1.383 . S
C483 H491 0.929 . S
C484 C483 1.383 . S
C484 C485 1.377 1_655 S
C485 H469 0.930 . S
C485 C484 1.377 1_455 S
C485 C486 1.379 . S
C486 H470 0.931 . S
C486 C480 1.383 . S
C486 C485 1.379 . S
H487 C481 0.959 . S
H488 C481 0.961 1_455 S
H489 C481 0.960 . S
H490 C482 0.930 . S
H491 C483 0.929 . S
H492 C500 0.929 . S
H493 C502 0.930 . S
H494 C504 0.930 1_565 S
H495 C507 0.929 1_565 S
H496 C510 0.930 . S
H497 C512 0.960 . S
H498 C512 0.960 . S
H499 C512 0.960 . S
C500 H492 0.929 . S
C500 C501 1.377 . S
C500 C502 1.384 . S
C501 C500 1.377 . S
C501 C507 1.390 . S
C502 H493 0.930 . S
C502 C500 1.384 . S
C502 C503 1.372 . S
C503 C502 1.372 . S
C503 C504 1.400 . S
C503 C508 1.490 . S
C504 H494 0.930 1_545 S
C504 C503 1.400 . S
C504 C507 1.386 . S
H505 C521 0.930 . S
H506 C522 0.931 . S
C507 H495 0.929 1_545 S
C507 C501 1.390 . S
C507 C504 1.386 . S
C508 C503 1.490 . S
C508 C510 1.395 . S
C508 C511 1.403 . S
H509 C515 0.930 . S
C510 H496 0.930 . S
C510 C508 1.395 . S
C510 C513 1.403 . S
C511 C508 1.403 . S
C511 C512 1.524 . S
C511 C515 1.400 . S
C512 H497 0.960 . S
C512 H498 0.960 . S
C512 H499 0.960 . S
C512 C511 1.524 . S
C513 C510 1.403 . S
C513 C514 1.392 . S
C513 C517 1.495 . S
C514 C513 1.392 . S
C514 C515 1.385 . S
C514 C516 1.478 . S
C515 H509 0.930 . S
C515 C511 1.400 . S
C515 C514 1.385 . S
C516 C514 1.478 . S
C516 C518 1.381 . S
C516 C522 1.383 1_545 S
C517 C513 1.495 . S
C517 H523 0.959 . S
C517 H524 0.961 1_545 S
C517 H525 0.960 . S
C518 C516 1.381 . S
C518 C519 1.394 . S
C518 H526 0.930 . S
C519 C518 1.394 . S
C519 C520 1.364 1_545 S
C519 H527 0.929 . S
C520 C519 1.364 1_565 S
C520 C521 1.393 . S
C521 H505 0.930 . S
C521 C520 1.393 . S
C521 C522 1.379 . S
C522 H506 0.931 . S
C522 C516 1.383 1_565 S
C522 C521 1.379 . S
H523 C517 0.959 . S
H524 C517 0.961 1_565 S
H525 C517 0.960 . S
H526 C518 0.930 . S
H527 C519 0.929 . S
H528 C536 0.929 . S
H529 C538 0.930 . S
H530 C540 0.930 . S
H531 C543 0.929 . S
H532 C546 0.930 . S
H533 C548 0.960 . S
H534 C548 0.960 . S
H535 C548 0.960 . S
C536 H528 0.929 . S
C536 C537 1.377 . S
C536 C538 1.384 . S
C537 C536 1.377 . S
C537 C543 1.390 . S
C538 H529 0.930 . S
C538 C536 1.384 . S
C538 C539 1.372 . S
C539 C538 1.372 . S
C539 C540 1.400 . S
C539 C544 1.490 . S
C540 H530 0.930 . S
C540 C539 1.400 . S
C540 C543 1.386 . S
H541 C557 0.930 . S
H542 C558 0.931 . S
C543 H531 0.929 . S
C543 C537 1.390 . S
C543 C540 1.386 . S
C544 C539 1.490 . S
C544 C546 1.395 . S
C544 C547 1.403 . S
H545 C551 0.930 . S
C546 H532 0.930 . S
C546 C544 1.395 . S
C546 C549 1.403 . S
C547 C544 1.403 . S
C547 C548 1.524 . S
C547 C551 1.400 . S
C548 H533 0.960 . S
C548 H534 0.960 . S
C548 H535 0.960 . S
C548 C547 1.524 . S
C549 C546 1.403 . S
C549 C550 1.392 . S
C549 C553 1.495 . S
C550 C549 1.392 . S
C550 C551 1.385 . S
C550 C552 1.478 . S
C551 H545 0.930 . S
C551 C547 1.400 . S
C551 C550 1.385 . S
C552 C550 1.478 . S
C552 C554 1.381 . S
C552 C558 1.383 . S
C553 C549 1.495 . S
C553 H559 0.959 . S
C553 H560 0.961 . S
C553 H561 0.960 . S
C554 C552 1.381 . S
C554 C555 1.394 . S
C554 H562 0.930 . S
C555 C554 1.394 . S
C555 C556 1.383 . S
C555 H563 0.929 . S
C556 C555 1.383 . S
C556 C557 1.377 . S
C557 H541 0.930 . S
C557 C556 1.377 . S
C557 C558 1.379 . S
C558 H542 0.931 . S
C558 C552 1.383 . S
C558 C557 1.379 . S
H559 C553 0.959 . S
H560 C553 0.961 . S
H561 C553 0.960 . S
H562 C554 0.930 . S
H563 C555 0.929 . S
H564 C572 0.929 . S
H565 C574 0.930 . S
H566 C576 0.930 . S
H567 C579 0.929 . S
H568 C582 0.930 . S
H569 C584 0.960 . S
H570 C584 0.960 . S
H571 C584 0.960 . S
C572 H564 0.929 . S
C572 C573 1.377 . S
C572 C574 1.384 . S
C573 C572 1.377 . S
C573 C579 1.390 . S
C574 H565 0.930 . S
C574 C572 1.384 . S
C574 C575 1.372 . S
C575 C574 1.372 . S
C575 C576 1.400 . S
C575 C580 1.490 . S
C576 H566 0.930 . S
C576 C575 1.400 . S
C576 C579 1.386 . S
H577 C593 0.930 . S
H578 C594 0.931 . S
C579 H567 0.929 . S
C579 C573 1.390 . S
C579 C576 1.386 . S
C580 C575 1.490 . S
C580 C582 1.395 . S
C580 C583 1.403 . S
H581 C587 0.930 . S
C582 H568 0.930 . S
C582 C580 1.395 . S
C582 C585 1.403 . S
C583 C580 1.403 . S
C583 C584 1.524 . S
C583 C587 1.400 . S
C584 H569 0.960 . S
C584 H570 0.960 . S
C584 H571 0.960 . S
C584 C583 1.524 . S
C585 C582 1.403 . S
C585 C586 1.392 . S
C585 C589 1.495 . S
C586 C585 1.392 . S
C586 C587 1.385 . S
C586 C588 1.478 . S
C587 H581 0.930 . S
C587 C583 1.400 . S
C587 C586 1.385 . S
C588 C586 1.478 . S
C588 C590 1.381 . S
C588 C594 1.383 . S
C589 C585 1.495 . S
C589 H595 0.959 . S
C589 H596 0.961 . S
C589 H597 0.960 . S
C590 C588 1.381 . S
C590 C591 1.394 . S
C590 H598 0.930 . S
C591 C590 1.394 . S
C591 C592 1.383 . S
C591 H599 0.929 . S
C592 C591 1.383 . S
C592 C593 1.377 . S
C593 H577 0.930 . S
C593 C592 1.377 . S
C593 C594 1.379 . S
C594 H578 0.931 . S
C594 C588 1.383 . S
C594 C593 1.379 . S
H595 C589 0.959 . S
H596 C589 0.961 . S
H597 C589 0.960 . S
H598 C590 0.930 . S
H599 C591 0.929 . S
H600 C608 0.929 . S
H601 C610 0.930 . S
H602 C612 0.978 . S
H603 C615 0.929 1_455 S
H604 C618 0.930 . S
H605 C620 0.949 1_455 S
H606 C620 0.960 . S
H607 C620 0.960 1_455 S
C608 H600 0.929 . S
C608 C609 1.377 . S
C608 C610 1.384 . S
C609 C608 1.377 . S
C609 C615 1.390 . S
C610 H601 0.930 . S
C610 C608 1.384 . S
C610 C611 1.372 . S
C611 C610 1.372 . S
C611 C612 1.360 1_655 S
C611 C616 1.490 . S
C612 H602 0.978 . S
C612 C611 1.360 1_455 S
C612 C615 1.380 1_455 S
H613 C629 0.930 . S
H614 C630 0.931 . S
C615 H603 0.929 1_655 S
C615 C609 1.390 . S
C615 C612 1.380 1_655 S
C616 C611 1.490 . S
C616 C618 1.395 . S
C616 C619 1.403 . S
H617 C623 0.930 1_455 S
C618 H604 0.930 . S
C618 C616 1.395 . S
C618 C621 1.403 . S
C619 C616 1.403 . S
C619 C620 1.524 . S
C619 C623 1.400 . S
C620 H605 0.949 1_655 S
C620 H606 0.960 . S
C620 H607 0.960 1_655 S
C620 C619 1.524 . S
C621 C618 1.403 . S
C621 C622 1.392 . S
C621 C625 1.495 . S
C622 C621 1.392 . S
C622 C623 1.385 . S
C622 C624 1.478 . S
C623 H617 0.930 1_655 S
C623 C619 1.400 . S
C623 C622 1.385 . S
C624 C622 1.478 . S
C624 C626 1.381 . S
C624 C630 1.383 1_655 S
C625 C621 1.495 . S
C625 H631 0.959 . S
C625 H632 0.961 . S
C625 H633 0.960 . S
C626 C624 1.381 . S
C626 C627 1.394 . S
C626 H634 0.930 . S
C627 C626 1.394 . S
C627 C628 1.383 1_655 S
C627 H635 0.929 . S
C628 C627 1.383 1_455 S
C628 C629 1.377 . S
C629 H613 0.930 . S
C629 C628 1.377 . S
C629 C630 1.379 . S
C630 H614 0.931 . S
C630 C624 1.383 1_455 S
C630 C629 1.379 . S
H631 C625 0.959 . S
H632 C625 0.961 . S
H633 C625 0.960 . S
H634 C626 0.930 . S
H635 C627 0.929 . S
H636 C644 0.929 . S
H637 C646 0.930 . S
H638 C648 0.930 1_545 S
H639 C651 0.929 1_544 S
H640 C654 0.930 . S
H641 C656 0.960 . S
H642 C656 0.960 . S
H643 C656 0.960 . S
C644 H636 0.929 . S
C644 C645 1.377 . S
C644 C646 1.384 . S
C645 C644 1.377 . S
C645 C651 1.390 . S
C646 H637 0.930 . S
C646 C644 1.384 . S
C646 C647 1.372 . S
C647 C646 1.372 . S
C647 C648 1.400 . S
C647 C652 1.490 . S
C648 H638 0.930 1_565 S
C648 C647 1.400 . S
C648 C651 1.386 . S
H649 C665 0.930 . S
H650 C666 0.931 . S
C651 H639 0.929 1_566 S
C651 C645 1.390 . S
C651 C648 1.386 . S
C652 C647 1.490 . S
C652 C654 1.395 . S
C652 C655 1.403 1_565 S
H653 C659 0.930 . S
C654 H640 0.930 . S
C654 C652 1.395 . S
C654 C657 1.403 . S
C655 C652 1.403 1_545 S
C655 C656 1.524 . S
C655 C659 1.400 . S
C656 H641 0.960 . S
C656 H642 0.960 . S
C656 H643 0.960 . S
C656 C655 1.524 . S
C657 C654 1.403 . S
C657 C658 1.392 . S
C657 C661 1.495 . S
C658 C657 1.392 . S
C658 C659 1.385 1_565 S
C658 C660 1.478 . S
C659 H653 0.930 . S
C659 C655 1.400 . S
C659 C658 1.385 1_545 S
C660 C658 1.478 . S
C660 C662 1.381 . S
C660 C666 1.383 1_565 S
C661 C657 1.495 . S
C661 H667 0.959 . S
C661 H668 0.961 . S
C661 H669 0.960 . S
C662 C660 1.381 . S
C662 C663 1.394 . S
C662 H670 0.930 . S
C663 C662 1.394 . S
C663 C664 1.383 1_565 S
C663 H671 0.929 . S
C664 C663 1.383 1_545 S
C664 C665 1.377 . S
C665 H649 0.930 . S
C665 C664 1.377 . S
C665 C666 1.379 . S
C666 H650 0.931 . S
C666 C660 1.383 1_545 S
C666 C665 1.379 . S
H667 C661 0.959 . S
H668 C661 0.961 . S
H669 C661 0.960 . S
H670 C662 0.930 . S
H671 C663 0.929 . S
H672 C680 0.929 . S
H673 C682 0.930 . S
H674 C684 0.930 . S
H675 C687 0.929 1_554 S
H676 C690 0.930 . S
H677 C692 0.960 . S
H678 C692 0.960 . S
H679 C692 0.951 1_554 S
C680 H672 0.929 . S
C680 C681 1.377 . S
C680 C682 1.384 . S
C681 C680 1.377 . S
C681 C687 1.390 . S
C682 H673 0.930 . S
C682 C680 1.384 . S
C682 C683 1.372 . S
C683 C682 1.372 . S
C683 C684 1.400 . S
C683 C688 1.490 . S
C684 H674 0.930 . S
C684 C683 1.400 . S
C684 C687 1.386 . S
H685 C701 0.930 . S
H686 C702 0.931 . S
C687 H675 0.929 1_556 S
C687 C681 1.390 . S
C687 C684 1.386 . S
C688 C683 1.490 . S
C688 C690 1.395 . S
C688 C691 1.403 . S
H689 C695 0.930 . S
C690 H676 0.930 . S
C690 C688 1.395 . S
C690 C693 1.403 . S
C691 C688 1.403 . S
C691 C692 1.524 . S
C691 C695 1.400 . S
C692 H677 0.960 . S
C692 H678 0.960 . S
C692 H679 0.951 1_556 S
C692 C691 1.524 . S
C693 C690 1.403 . S
C693 C694 1.392 . S
C693 C697 1.495 . S
C694 C693 1.392 . S
C694 C695 1.385 . S
C694 C696 1.478 . S
C695 H689 0.930 . S
C695 C691 1.400 . S
C695 C694 1.385 . S
C696 C694 1.478 . S
C696 C698 1.381 . S
C696 C702 1.383 . S
C697 C693 1.495 . S
C697 H703 0.959 . S
C697 H704 0.961 . S
C697 H705 0.960 . S
C698 C696 1.381 . S
C698 C699 1.394 . S
C698 H706 0.930 . S
C699 C698 1.394 . S
C699 C700 1.383 . S
C699 H707 0.929 . S
C700 C699 1.383 . S
C700 C701 1.377 . S
C701 H685 0.930 . S
C701 C700 1.377 . S
C701 C702 1.379 . S
C702 H686 0.931 . S
C702 C696 1.383 . S
C702 C701 1.379 . S
H703 C697 0.959 . S
H704 C697 0.961 . S
H705 C697 0.960 . S
H706 C698 0.930 . S
H707 C699 0.929 . S
H708 C716 0.929 . S
H709 C718 0.930 . S
H710 C720 0.930 . S
H711 C723 0.929 . S
H712 C726 0.930 . S
H713 C728 0.960 . S
H714 C728 0.960 . S
H715 C728 0.960 . S
C716 H708 0.929 . S
C716 C717 1.377 . S
C716 C718 1.384 . S
C717 C716 1.377 . S
C717 C723 1.390 . S
C718 H709 0.930 . S
C718 C716 1.384 . S
C718 C719 1.372 . S
C719 C718 1.372 . S
C719 C720 1.400 . S
C719 C724 1.490 . S
C720 H710 0.930 . S
C720 C719 1.400 . S
C720 C723 1.386 . S
H721 C737 0.930 . S
H722 C738 0.931 . S
C723 H711 0.929 . S
C723 C717 1.390 . S
C723 C720 1.386 . S
C724 C719 1.490 . S
C724 C726 1.395 . S
C724 C727 1.403 . S
H725 C731 0.930 . S
C726 H712 0.930 . S
C726 C724 1.395 . S
C726 C729 1.403 . S
C727 C724 1.403 . S
C727 C728 1.524 . S
C727 C731 1.400 . S
C728 H713 0.960 . S
C728 H714 0.960 . S
C728 H715 0.960 . S
C728 C727 1.524 . S
C729 C726 1.403 . S
C729 C730 1.392 . S
C729 C733 1.495 . S
C730 C729 1.392 . S
C730 C731 1.385 . S
C730 C732 1.478 . S
C731 H725 0.930 . S
C731 C727 1.400 . S
C731 C730 1.385 . S
C732 C730 1.478 . S
C732 C734 1.381 . S
C732 C738 1.383 . S
C733 C729 1.495 . S
C733 H739 0.959 . S
C733 H740 0.961 . S
C733 H741 0.960 . S
C734 C732 1.381 . S
C734 C735 1.394 . S
C734 H742 0.930 . S
C735 C734 1.394 . S
C735 C736 1.383 . S
C735 H743 0.929 . S
C736 C735 1.383 . S
C736 C737 1.377 . S
C737 H721 0.930 . S
C737 C736 1.377 . S
C737 C738 1.379 . S
C738 H722 0.931 . S
C738 C732 1.383 . S
C738 C737 1.379 . S
H739 C733 0.959 . S
H740 C733 0.961 . S
H741 C733 0.960 . S
H742 C734 0.930 . S
H743 C735 0.929 . S
H744 C752 0.929 . S
H745 C754 0.930 . S
H746 C756 0.930 1_655 S
H747 C759 0.929 1_655 S
H748 C762 0.930 1_554 S
H749 C764 0.960 . S
H750 C764 0.960 . S
H751 C764 0.960 . S
C752 H744 0.929 . S
C752 C753 1.377 . S
C752 C754 1.384 1_554 S
C753 C752 1.377 . S
C753 C759 1.390 . S
C754 H745 0.930 . S
C754 C752 1.384 1_556 S
C754 C755 1.372 . S
C755 C754 1.372 . S
C755 C756 1.400 . S
C755 C760 1.490 . S
C756 H746 0.930 1_455 S
C756 C755 1.400 . S
C756 C759 1.386 1_556 S
H757 C773 0.930 . S
H758 C774 0.947 . S
C759 H747 0.929 1_455 S
C759 C753 1.390 . S
C759 C756 1.386 1_554 S
C760 C755 1.490 . S
C760 C762 1.395 . S
C760 C763 1.403 . S
H761 C767 0.930 . S
C762 H748 0.930 1_556 S
C762 C760 1.395 . S
C762 C765 1.403 . S
C763 C760 1.403 . S
C763 C764 1.524 . S
C763 C767 1.400 . S
C764 H749 0.960 . S
C764 H750 0.960 . S
C764 H751 0.960 . S
C764 C763 1.524 . S
C765 C762 1.403 . S
C765 C766 1.392 . S
C765 C769 1.495 . S
C766 C765 1.392 . S
C766 C767 1.385 . S
C766 C768 1.478 . S
C767 H761 0.930 . S
C767 C763 1.400 . S
C767 C766 1.385 . S
C768 C766 1.478 . S
C768 C770 1.381 . S
C768 C774 1.365 1_455 S
C769 C765 1.495 . S
C769 H775 0.959 1_556 S
C769 H776 0.961 . S
C769 H777 0.960 . S
C770 C768 1.381 . S
C770 C771 1.394 . S
C770 H778 0.930 . S
C771 C770 1.394 . S
C771 C772 1.383 . S
C771 H779 0.929 . S
C772 C771 1.383 . S
C772 C773 1.377 1_455 S
C773 H757 0.930 . S
C773 C772 1.377 1_655 S
C773 C774 1.381 . S
C774 H758 0.947 . S
C774 C768 1.365 1_655 S
C774 C773 1.381 . S
H775 C769 0.959 1_554 S
H776 C769 0.961 . S
H777 C769 0.960 . S
H778 C770 0.930 . S
H779 C771 0.929 . S
H780 C788 0.929 1_565 S
H781 C790 0.930 1_565 S
H782 C792 0.930 . S
H783 C795 0.929 . S
H784 C798 0.930 . S
H785 C800 0.960 . S
H786 C800 0.960 . S
H787 C800 0.960 . S
C788 H780 0.929 1_545 S
C788 C789 1.377 . S
C788 C790 1.384 1_554 S
C789 C788 1.377 . S
C789 C795 1.390 . S
C790 H781 0.930 1_545 S
C790 C788 1.384 1_556 S
C790 C791 1.372 . S
C791 C790 1.372 . S
C791 C792 1.400 . S
C791 C796 1.490 . S
C792 H782 0.930 . S
C792 C791 1.400 . S
C792 C795 1.386 1_556 S
H793 C809 0.930 . S
H794 C810 0.931 . S
C795 H783 0.929 . S
C795 C789 1.390 . S
C795 C792 1.386 1_554 S
C796 C791 1.490 . S
C796 C798 1.395 . S
C796 C799 1.403 . S
H797 C803 0.930 . S
C798 H784 0.930 . S
C798 C796 1.395 . S
C798 C801 1.403 . S
C799 C796 1.403 . S
C799 C800 1.524 1_556 S
C799 C803 1.400 . S
C800 H785 0.960 . S
C800 H786 0.960 . S
C800 H787 0.960 . S
C800 C799 1.524 1_554 S
C801 C798 1.403 . S
C801 C802 1.392 . S
C801 C805 1.495 . S
C802 C801 1.392 . S
C802 C803 1.385 . S
C802 C804 1.478 . S
C803 H797 0.930 . S
C803 C799 1.400 . S
C803 C802 1.385 . S
C804 C802 1.478 . S
C804 C806 1.381 1_545 S
C804 C810 1.383 . S
C805 C801 1.495 . S
C805 H811 0.959 . S
C805 H812 0.961 . S
C805 H813 0.960 1_545 S
C806 C804 1.381 1_565 S
C806 C807 1.394 . S
C806 H814 0.930 . S
C807 C806 1.394 . S
C807 C808 1.383 1_565 S
C807 H815 0.929 . S
C808 C807 1.383 1_545 S
C808 C809 1.377 . S
C809 H793 0.930 . S
C809 C808 1.377 . S
C809 C810 1.379 . S
C810 H794 0.931 . S
C810 C804 1.383 . S
C810 C809 1.379 . S
H811 C805 0.959 . S
H812 C805 0.961 . S
H813 C805 0.960 1_565 S
H814 C806 0.930 . S
H815 C807 0.929 . S
H816 C824 0.929 . S
H817 C826 0.930 . S
H818 C828 0.930 . S
H819 C831 0.929 . S
H820 C834 0.930 . S
H821 C836 0.960 . S
H822 C836 0.960 . S
H823 C836 0.960 . S
C824 H816 0.929 . S
C824 C825 1.377 1_556 S
C824 C826 1.384 . S
C825 C824 1.377 1_554 S
C825 C831 1.390 . S
C826 H817 0.930 . S
C826 C824 1.384 . S
C826 C827 1.372 . S
C827 C826 1.372 . S
C827 C828 1.400 1_556 S
C827 C832 1.490 . S
C828 H818 0.930 . S
C828 C827 1.400 1_554 S
C828 C831 1.386 . S
H829 C845 0.930 . S
H830 C846 0.931 . S
C831 H819 0.929 . S
C831 C825 1.390 . S
C831 C828 1.386 . S
C832 C827 1.490 . S
C832 C834 1.395 . S
C832 C835 1.403 . S
H833 C839 0.930 . S
C834 H820 0.930 . S
C834 C832 1.395 . S
C834 C837 1.403 . S
C835 C832 1.403 . S
C835 C836 1.524 1_556 S
C835 C839 1.400 . S
C836 H821 0.960 . S
C836 H822 0.960 . S
C836 H823 0.960 . S
C836 C835 1.524 1_554 S
C837 C834 1.403 . S
C837 C838 1.392 . S
C837 C841 1.495 . S
C838 C837 1.392 . S
C838 C839 1.385 . S
C838 C840 1.478 . S
C839 H833 0.930 . S
C839 C835 1.400 . S
C839 C838 1.385 . S
C840 C838 1.478 . S
C840 C842 1.381 . S
C840 C846 1.383 . S
C841 C837 1.495 . S
C841 H847 0.959 . S
C841 H848 0.961 . S
C841 H849 0.960 . S
C842 C840 1.381 . S
C842 C843 1.394 . S
C842 H850 0.930 . S
C843 C842 1.394 . S
C843 C844 1.383 . S
C843 H851 0.929 . S
C844 C843 1.383 . S
C844 C845 1.377 . S
C845 H829 0.930 . S
C845 C844 1.377 . S
C845 C846 1.379 . S
C846 H830 0.931 . S
C846 C840 1.383 . S
C846 C845 1.379 . S
H847 C841 0.959 . S
H848 C841 0.961 . S
H849 C841 0.960 . S
H850 C842 0.930 . S
H851 C843 0.929 . S
H852 C860 0.929 . S
H853 C862 0.930 . S
H854 C864 0.930 . S
H855 C867 0.929 . S
H856 C870 0.930 1_554 S
H857 C872 0.960 . S
H858 C872 0.960 . S
H859 C872 0.960 . S
C860 H852 0.929 . S
C860 C861 1.377 . S
C860 C862 1.384 1_554 S
C861 C860 1.377 . S
C861 C867 1.390 . S
C862 H853 0.930 . S
C862 C860 1.384 1_556 S
C862 C863 1.372 . S
C863 C862 1.372 . S
C863 C864 1.400 . S
C863 C868 1.490 . S
C864 H854 0.930 . S
C864 C863 1.400 . S
C864 C867 1.386 1_556 S
H865 C881 0.930 . S
H866 C882 0.931 . S
C867 H855 0.929 . S
C867 C861 1.390 . S
C867 C864 1.386 1_554 S
C868 C863 1.490 . S
C868 C870 1.395 . S
C868 C871 1.403 . S
H869 C875 0.930 . S
C870 H856 0.930 1_556 S
C870 C868 1.395 . S
C870 C873 1.403 . S
C871 C868 1.403 . S
C871 C872 1.524 . S
C871 C875 1.400 . S
C872 H857 0.960 . S
C872 H858 0.960 . S
C872 H859 0.960 . S
C872 C871 1.524 . S
C873 C870 1.403 . S
C873 C874 1.392 . S
C873 C877 1.495 . S
C874 C873 1.392 . S
C874 C875 1.385 . S
C874 C876 1.478 . S
C875 H869 0.930 . S
C875 C871 1.400 . S
C875 C874 1.385 . S
C876 C874 1.478 . S
C876 C878 1.381 . S
C876 C882 1.383 . S
C877 C873 1.495 . S
C877 H883 0.959 1_556 S
C877 H884 0.961 . S
C877 H885 0.960 . S
C878 C876 1.381 . S
C878 C879 1.394 . S
C878 H886 0.930 . S
C879 C878 1.394 . S
C879 C880 1.383 . S
C879 H887 0.929 . S
C880 C879 1.383 . S
C880 C881 1.377 . S
C881 H865 0.930 . S
C881 C880 1.377 . S
C881 C882 1.379 . S
C882 H866 0.931 . S
C882 C876 1.383 . S
C882 C881 1.379 . S
H883 C877 0.959 1_554 S
H884 C877 0.961 . S
H885 C877 0.960 . S
H886 C878 0.930 . S
H887 C879 0.929 . S
H888 C896 0.929 . S
H889 C898 0.930 . S
H890 C900 0.930 . S
H891 C903 0.929 . S
H892 C906 0.961 . S
H893 C908 0.960 . S
H894 C908 0.960 . S
H895 C908 0.960 . S
C896 H888 0.929 . S
C896 C897 1.377 . S
C896 C898 1.384 . S
C897 C896 1.377 . S
C897 C903 1.390 . S
C898 H889 0.930 . S
C898 C896 1.384 . S
C898 C899 1.372 . S
C899 C898 1.372 . S
C899 C900 1.400 . S
C899 C904 1.490 . S
C900 H890 0.930 . S
C900 C899 1.400 . S
C900 C903 1.386 . S
H901 C917 0.930 . S
H902 C918 0.931 . S
C903 H891 0.929 . S
C903 C897 1.390 . S
C903 C900 1.386 . S
C904 C899 1.490 . S
C904 C906 1.359 1_655 S
C904 C907 1.403 . S
H905 C911 0.930 . S
C906 H892 0.961 . S
C906 C904 1.359 1_455 S
C906 C909 1.410 . S
C907 C904 1.403 . S
C907 C908 1.524 . S
C907 C911 1.400 . S
C908 H893 0.960 . S
C908 H894 0.960 . S
C908 H895 0.960 . S
C908 C907 1.524 . S
C909 C906 1.410 . S
C909 C910 1.392 1_455 S
C909 C913 1.495 . S
C910 C909 1.392 1_655 S
C910 C911 1.385 . S
C910 C912 1.478 . S
C911 H905 0.930 . S
C911 C907 1.400 . S
C911 C910 1.385 . S
C912 C910 1.478 . S
C912 C914 1.381 . S
C912 C918 1.383 . S
C913 C909 1.495 . S
C913 H919 0.959 . S
C913 H920 0.961 . S
C913 H921 0.960 . S
C914 C912 1.381 . S
C914 C915 1.394 . S
C914 H922 0.930 . S
C915 C914 1.394 . S
C915 C916 1.383 . S
C915 H923 0.929 . S
C916 C915 1.383 . S
C916 C917 1.377 . S
C917 H901 0.930 . S
C917 C916 1.377 . S
C917 C918 1.379 . S
C918 H902 0.931 . S
C918 C912 1.383 . S
C918 C917 1.379 . S
H919 C913 0.959 . S
H920 C913 0.961 . S
H921 C913 0.960 . S
H922 C914 0.930 . S
H923 C915 0.929 . S
H924 C932 0.929 1_545 S
H925 C934 0.930 1_545 S
H926 C936 0.930 . S
H927 C939 0.929 . S
H928 C942 0.930 . S
H929 C944 0.960 . S
H930 C944 0.960 1_545 S
H931 C944 0.960 . S
C932 H924 0.929 1_565 S
C932 C933 1.377 . S
C932 C934 1.384 . S
C933 C932 1.377 . S
C933 C939 1.390 . S
C934 H925 0.930 1_565 S
C934 C932 1.384 . S
C934 C935 1.372 . S
C935 C934 1.372 . S
C935 C936 1.400 . S
C935 C940 1.490 . S
C936 H926 0.930 . S
C936 C935 1.400 . S
C936 C939 1.386 . S
H937 C953 0.930 . S
H938 C954 0.931 . S
C939 H927 0.929 . S
C939 C933 1.390 . S
C939 C936 1.386 . S
C940 C935 1.490 . S
C940 C942 1.395 . S
C940 C943 1.403 . S
H941 C947 0.930 . S
C942 H928 0.930 . S
C942 C940 1.395 . S
C942 C945 1.403 . S
C943 C940 1.403 . S
C943 C944 1.524 . S
C943 C947 1.400 . S
C944 H929 0.960 . S
C944 H930 0.960 1_565 S
C944 H931 0.960 . S
C944 C943 1.524 . S
C945 C942 1.403 . S
C945 C946 1.392 . S
C945 C949 1.495 . S
C946 C945 1.392 . S
C946 C947 1.385 . S
C946 C948 1.478 . S
C947 H941 0.930 . S
C947 C943 1.400 . S
C947 C946 1.385 . S
C948 C946 1.478 . S
C948 C950 1.381 1_565 S
C948 C954 1.383 . S
C949 C945 1.495 . S
C949 H955 0.959 . S
C949 H956 0.961 . S
C949 H957 0.960 . S
C950 C948 1.381 1_545 S
C950 C951 1.394 . S
C950 H958 0.930 . S
C951 C950 1.394 . S
C951 C952 1.383 1_545 S
C951 H959 0.929 . S
C952 C951 1.383 1_565 S
C952 C953 1.377 . S
C953 H937 0.930 . S
C953 C952 1.377 . S
C953 C954 1.379 . S
C954 H938 0.931 . S
C954 C948 1.383 . S
C954 C953 1.379 . S
H955 C949 0.959 . S
H956 C949 0.961 . S
H957 C949 0.960 . S
H958 C950 0.930 . S
H959 C951 0.929 . S
H960 C968 0.929 . S
H961 C970 0.930 . S
H962 C972 0.930 . S
H963 C975 0.929 . S
H964 C978 0.930 . S
H965 C980 0.960 . S
H966 C980 0.960 . S
H967 C980 0.960 . S
C968 H960 0.929 . S
C968 C969 1.377 . S
C968 C970 1.384 . S
C969 C968 1.377 . S
C969 C975 1.390 . S
C970 H961 0.930 . S
C970 C968 1.384 . S
C970 C971 1.372 . S
C971 C970 1.372 . S
C971 C972 1.400 . S
C971 C976 1.490 . S
C972 H962 0.930 . S
C972 C971 1.400 . S
C972 C975 1.386 . S
H973 C989 0.930 . S
H974 C990 0.931 . S
C975 H963 0.929 . S
C975 C969 1.390 . S
C975 C972 1.386 . S
C976 C971 1.490 . S
C976 C978 1.395 . S
C976 C979 1.403 . S
H977 C983 0.930 . S
C978 H964 0.930 . S
C978 C976 1.395 . S
C978 C981 1.403 . S
C979 C976 1.403 . S
C979 C980 1.524 . S
C979 C983 1.400 . S
C980 H965 0.960 . S
C980 H966 0.960 . S
C980 H967 0.960 . S
C980 C979 1.524 . S
C981 C978 1.403 . S
C981 C982 1.392 . S
C981 C985 1.495 . S
C982 C981 1.392 . S
C982 C983 1.385 . S
C982 C984 1.478 . S
C983 H977 0.930 . S
C983 C979 1.400 . S
C983 C982 1.385 . S
C984 C982 1.478 . S
C984 C986 1.381 . S
C984 C990 1.383 . S
C985 C981 1.495 . S
C985 H991 0.959 . S
C985 H992 0.961 . S
C985 H993 0.960 . S
C986 C984 1.381 . S
C986 C987 1.394 . S
C986 H994 0.930 . S
C987 C986 1.394 . S
C987 C988 1.383 . S
C987 H995 0.929 . S
C988 C987 1.383 . S
C988 C989 1.377 . S
C989 H973 0.930 . S
C989 C988 1.377 . S
C989 C990 1.379 . S
C990 H974 0.931 . S
C990 C984 1.383 . S
C990 C989 1.379 . S
H991 C985 0.959 . S
H992 C985 0.961 . S
H993 C985 0.960 . S
H994 C986 0.930 . S
H995 C987 0.929 . S
H996 C1004 0.929 . S
H997 C1006 0.930 . S
H998 C1008 0.930 . S
H999 C1011 0.929 . S
H1000 C1014 0.930 . S
H1001 C1016 0.960 . S
H1002 C1016 0.960 . S
H1003 C1016 0.960 . S
C1004 H996 0.929 . S
C1004 C1005 1.377 . S
C1004 C1006 1.384 . S
C1005 C1004 1.377 . S
C1005 C1011 1.390 . S
C1006 H997 0.930 . S
C1006 C1004 1.384 . S
C1006 C1007 1.372 . S
C1007 C1006 1.372 . S
C1007 C1008 1.400 . S
C1007 C1012 1.490 . S
C1008 H998 0.930 . S
C1008 C1007 1.400 . S
C1008 C1011 1.386 . S
H1009 C1025 0.930 . S
H1010 C1026 0.931 . S
C1011 H999 0.929 . S
C1011 C1005 1.390 . S
C1011 C1008 1.386 . S
C1012 C1007 1.490 . S
C1012 C1014 1.395 . S
C1012 C1015 1.403 . S
H1013 C1019 0.930 . S
C1014 H1000 0.930 . S
C1014 C1012 1.395 . S
C1014 C1017 1.403 . S
C1015 C1012 1.403 . S
C1015 C1016 1.524 . S
C1015 C1019 1.400 . S
C1016 H1001 0.960 . S
C1016 H1002 0.960 . S
C1016 H1003 0.960 . S
C1016 C1015 1.524 . S
C1017 C1014 1.403 . S
C1017 C1018 1.392 . S
C1017 C1021 1.495 . S
C1018 C1017 1.392 . S
C1018 C1019 1.385 . S
C1018 C1020 1.478 . S
C1019 H1013 0.930 . S
C1019 C1015 1.400 . S
C1019 C1018 1.385 . S
C1020 C1018 1.478 . S
C1020 C1022 1.381 . S
C1020 C1026 1.383 . S
C1021 C1017 1.495 . S
C1021 H1027 0.959 . S
C1021 H1028 0.961 . S
C1021 H1029 0.960 . S
C1022 C1020 1.381 . S
C1022 C1023 1.394 . S
C1022 H1030 0.930 . S
C1023 C1022 1.394 . S
C1023 C1024 1.383 . S
C1023 H1031 0.929 . S
C1024 C1023 1.383 . S
C1024 C1025 1.377 . S
C1025 H1009 0.930 . S
C1025 C1024 1.377 . S
C1025 C1026 1.379 . S
C1026 H1010 0.931 . S
C1026 C1020 1.383 . S
C1026 C1025 1.379 . S
H1027 C1021 0.959 . S
H1028 C1021 0.961 . S
H1029 C1021 0.960 . S
H1030 C1022 0.930 . S
H1031 C1023 0.929 . S
C177 C76 1.457 . S
C196 C106 1.480 . S
C232 C126 1.482 . S
C213 C87 1.456 . S
C268 C146 1.437 . S
C249 C54 1.460 . S
C304 C166 1.489 . S
C285 C65 1.452 . S
C340 C107 1.474 1_565 S
C321 C32 1.464 . S
C357 C43 1.460 . S
C376 C127 1.447 . S
C393 C10 1.457 . S
C412 C147 1.440 . S
C429 C21 1.461 . S
C448 C167 1.467 1_655 S
C484 C97 0.739 1_655 S
C465 C60 0.685 . S
C520 C117 0.640 1_565 S
C501 C71 0.678 . S
C556 C137 0.714 . S
C537 C82 0.680 . S
C573 C49 0.682 . S
C592 C157 0.675 . S
C609 C16 0.691 . S
C628 C100 0.724 . S
C664 C120 0.656 . S
C645 C27 0.691 . S
C700 C140 0.629 . S
C681 C38 0.676 . S
C717 C5 0.690 . S
C736 C160 0.726 . S
C753 C59 1.502 . S
C772 C90 1.484 . S
C789 C70 1.494 . S
C808 C110 1.412 . S
C844 C130 1.418 . S
C825 C81 1.496 . S
C880 C150 1.485 . S
C861 C48 1.502 . S
C897 C15 1.500 . S
C916 C92 1.417 . S
C952 C112 1.484 . S
C933 C26 1.496 . S
C988 C132 1.439 . S
C969 C37 1.502 . S
C1005 C4 1.492 . S
C1024 C152 1.484 . S
