# Generated by pormake.
# Topology apo, (3,6)-cn, num edge types: 1
# Building blocks:
#     Node 0, Type 0, BuildingBlock: ESEHIV_clean_linker_0, # of connection points: 3
#     Node 1, Type 0, BuildingBlock: ESEHIV_clean_linker_0, # of connection points: 3
#     Node 2, Type 0, BuildingBlock: ESEHIV_clean_linker_0, # of connection points: 3
#     Node 3, Type 0, BuildingBlock: ESEHIV_clean_linker_0, # of connection points: 3
#     Node 4, Type 0, BuildingBlock: ESEHIV_clean_linker_0, # of connection points: 3
#     Node 5, Type 0, BuildingBlock: ESEHIV_clean_linker_0, # of connection points: 3
#     Node 6, Type 0, BuildingBlock: ESEHIV_clean_linker_0, # of connection points: 3
#     Node 7, Type 0, BuildingBlock: ESEHIV_clean_linker_0, # of connection points: 3
#     Node 8, Type 1, BuildingBlock: KUMJIN_clean_sbu_1, # of connection points: 6
#     Node 9, Type 1, BuildingBlock: KUMJIN_clean_sbu_1, # of connection points: 6
#     Node 10, Type 1, BuildingBlock: KUMJIN_clean_sbu_1, # of connection points: 6
#     Node 11, Type 1, BuildingBlock: KUMJIN_clean_sbu_1, # of connection points: 6
#     Edge 12, Type (0, 1), None
#     Edge 13, Type (0, 1), None
#     Edge 14, Type (0, 1), None
#     Edge 15, Type (0, 1), None
#     Edge 16, Type (0, 1), None
#     Edge 17, Type (0, 1), None
#     Edge 18, Type (0, 1), None
#     Edge 19, Type (0, 1), None
#     Edge 20, Type (0, 1), None
#     Edge 21, Type (0, 1), None
#     Edge 22, Type (0, 1), None
#     Edge 23, Type (0, 1), None
#     Edge 24, Type (0, 1), None
#     Edge 25, Type (0, 1), None
#     Edge 26, Type (0, 1), None
#     Edge 27, Type (0, 1), None
#     Edge 28, Type (0, 1), None
#     Edge 29, Type (0, 1), None
#     Edge 30, Type (0, 1), None
#     Edge 31, Type (0, 1), None
#     Edge 32, Type (0, 1), None
#     Edge 33, Type (0, 1), None
#     Edge 34, Type (0, 1), None
#     Edge 35, Type (0, 1), None
# Relax obj value: 0.004
# Max RMSD: 0.211
# Mean RMSD: 0.150
data_MOF--net-apo--node1-KUMJIN_clean_sbu_1--node2-ESEHIV_clean_linker_0--edge1-none
_symmetry_space_group_name_H-M    P1
_symmetry_Int_Tables_number       1
_symmetry_cell_setting            triclinic
loop_
_symmetry_equiv_pos_as_xyz
'x, y, z'
_cell_length_a     11.245121
_cell_length_b     16.222324
_cell_length_c     23.811374
_cell_angle_alpha  89.43499
_cell_angle_beta   89.490602
_cell_angle_gamma 84.85262
loop_
_atom_site_label
_atom_site_type_symbol
_atom_site_fract_x
_atom_site_fract_y
_atom_site_fract_z
_atom_type_partial_charge
H0 H 0.30251 0.50237 0.45649 0.0
H1 H 0.24014 0.35942 0.30941 0.0
H2 H 0.09455 0.29586 0.47163 0.0
C3 C 0.26818 0.44934 0.43695 0.0
C4 C 0.20008 0.3998 0.47038 0.0
C5 C 0.28144 0.43746 0.37847 0.0
C6 C 0.23031 0.3696 0.35418 0.0
C7 C 0.16631 0.31512 0.38787 0.0
C8 C 0.14998 0.33259 0.44579 0.0
H9 H 0.09131 0.95376 0.94939 0.0
H10 H 0.13682 0.11484 0.80724 0.0
H11 H 0.26007 0.1763 0.97272 0.0
C12 C 0.11932 0.01077 0.93159 0.0
C13 C 0.17353 0.06349 0.96769 0.0
C14 C 0.10601 0.02717 0.87345 0.0
C15 C 0.14787 0.10075 0.85156 0.0
C16 C 0.20146 0.15696 0.88728 0.0
C17 C 0.21456 0.13671 0.94529 0.0
H18 H 0.69619 0.0326 0.62728 0.0
H19 H 0.59996 0.06302 0.80164 0.0
H20 H 0.52905 0.26435 0.6852 0.0
C21 C 0.66358 0.07129 0.66162 0.0
C22 C 0.61565 0.15274 0.64958 0.0
C23 C 0.66671 0.03958 0.71718 0.0
C24 C 0.60458 0.08717 0.75921 0.0
C25 C 0.54662 0.16596 0.74666 0.0
C26 C 0.56318 0.20083 0.69344 0.0
H27 H 0.65121 0.44226 0.12659 0.0
H28 H 0.74721 0.41374 0.3006 0.0
H29 H 0.80351 0.20775 0.19152 0.0
C30 C 0.68665 0.404 0.16083 0.0
C31 C 0.72568 0.31988 0.15124 0.0
C32 C 0.69015 0.43786 0.2153 0.0
C33 C 0.74414 0.38966 0.25846 0.0
C34 C 0.79662 0.3106 0.2479 0.0
C35 C 0.77493 0.27275 0.19674 0.0
H36 H 0.56004 0.46845 0.66957 0.0
H37 H 0.77106 0.67231 0.64577 0.0
H38 H 0.62283 0.62301 0.81027 0.0
C39 C 0.59527 0.52285 0.6868 0.0
C40 C 0.57975 0.54088 0.74433 0.0
C41 C 0.66425 0.56858 0.65119 0.0
C42 C 0.7147 0.63812 0.67285 0.0
C43 C 0.69832 0.66025 0.73022 0.0
C44 C 0.63335 0.60915 0.76598 0.0
H45 H 0.79463 0.01196 0.16434 0.0
H46 H 0.73478 0.86233 0.31078 0.0
H47 H 0.60487 0.79709 0.14764 0.0
C48 C 0.76233 0.95726 0.18359 0.0
C49 C 0.70179 0.90556 0.14934 0.0
C50 C 0.77315 0.94392 0.24212 0.0
C51 C 0.72584 0.87373 0.26604 0.0
C52 C 0.66783 0.81804 0.23211 0.0
C53 C 0.65476 0.83581 0.1738 0.0
H54 H 0.15863 0.94212 0.49531 0.0
H55 H 0.32127 0.71161 0.43124 0.0
H56 H 0.2581 0.91668 0.3206 0.0
C57 C 0.19634 0.90518 0.46108 0.0
C58 C 0.19665 0.93959 0.40591 0.0
C59 C 0.2409 0.82176 0.47128 0.0
C60 C 0.2925 0.77667 0.42614 0.0
C61 C 0.31369 0.8151 0.37487 0.0
C62 C 0.25625 0.89305 0.3632 0.0
H63 H 0.19479 0.54099 1.00208 0.0
H64 H 0.18413 0.61044 0.827 0.0
H65 H 0.08544 0.79144 0.95198 0.0
C66 C 0.17589 0.58644 0.96932 0.0
C67 C 0.13903 0.6692 0.98378 0.0
C68 C 0.1927 0.56301 0.91256 0.0
C69 C 0.16871 0.62517 0.8708 0.0
C70 C 0.11814 0.70503 0.88569 0.0
C71 C 0.11221 0.72743 0.94145 0.0
Eu72 Eu 0.0674 0.11188 0.26766 0.0
C73 C 0.61922 0.09203 0.40883 0.0
N74 N 0.67603 0.13731 0.37012 0.0
C75 C 0.49199 0.21866 0.35033 0.0
C76 C 0.49556 0.10877 0.41931 0.0
C77 C 0.61377 0.19916 0.34057 0.0
C78 C 0.43301 0.17374 0.3903 0.0
C79 C 0.63007 -0.00694 0.48602 0.0
C80 C 0.68593 0.03345 0.44187 0.0
C81 C 0.50597 0.00429 0.49277 0.0
C82 C 0.43876 0.06263 0.45995 0.0
Eu83 Eu 0.88553 0.12266 0.37959 0.0
N84 N 0.80635 0.02137 0.43444 0.0
C85 C 0.70147 0.94604 0.52418 0.0
C86 C 0.87483 0.96878 0.46808 0.0
C87 C 0.82374 0.93155 0.51426 0.0
H88 H 0.65681 0.2359 0.31089 0.0
H89 H 0.87843 0.89388 0.54327 0.0
H90 H 0.32638 0.03653 0.33401 0.0
H91 H 0.00312 0.33587 0.09855 0.0
H92 H -0.03047 0.96249 0.4624 0.0
H93 H 0.66271 0.92045 0.56155 0.0
H94 H 0.05139 0.22549 0.20881 0.0
H95 H 0.44408 0.26841 0.32698 0.0
H96 H 0.46171 0.96872 0.52383 0.0
H97 H 0.34349 0.07336 0.46749 0.0
H98 H 0.53725 0.01293 0.30673 0.0
H99 H 0.33899 0.18856 0.39812 0.0
H100 H 0.20288 0.29658 1.05945 0.0
N101 N 0.27724 0.11376 0.26473 0.0
C102 C 0.31692 0.15479 0.21913 0.0
C103 C 0.47605 0.05258 0.28143 0.0
C104 C 0.43763 0.14425 0.2022 0.0
C105 C 0.35525 0.06458 0.29638 0.0
C106 C 0.51766 0.09365 0.23455 0.0
N107 N 0.11528 0.21685 0.20518 0.0
C108 C 0.03037 0.26788 0.17553 0.0
C109 C 0.26899 0.23565 0.13516 0.0
C110 C 0.23571 0.20466 0.18729 0.0
C111 C 0.18111 0.2762 0.10149 0.0
C112 C 0.06653 0.29682 0.12309 0.0
H113 H 0.61129 0.08602 0.22346 0.0
H114 H 0.56467 0.17016 0.13717 0.0
H115 H 0.41247 0.24395 0.07615 0.0
O116 O 0.02264 0.08463 0.1812 0.0
O117 O 0.12426 0.22697 0.30912 0.0
O118 O 0.04919 0.19548 0.39604 0.0
O119 O 0.14867 -0.00077 0.22786 0.0
O120 O 0.89134 0.18753 0.29366 0.0
O121 O 0.88766 0.18919 0.29562 0.0
O122 O 0.898 0.14179 0.47008 0.0
O123 O 0.8283 0.01077 0.33069 0.0
O124 O 0.89568 0.05677 0.2461 0.0
O125 O 0.8153 0.23977 0.41541 0.0
O126 O 0.05561 0.03898 0.35698 0.0
O127 O 0.05961 0.03885 0.35353 0.0
C128 C 0.11046 0.24287 0.36295 0.0
C129 C 0.17452 0.009 0.12662 0.0
C130 C 0.20829 0.03036 1.02483 0.0
C131 C 0.29981 0.966 1.02691 0.0
C132 C 0.27129 0.9482 0.12678 0.0
C133 C 0.33048 0.92517 0.07713 0.0
C134 C 0.14331 0.05092 0.07498 0.0
C135 C 0.87022 0.26925 0.29239 0.0
C136 C 0.09979 0.01947 0.17877 0.0
C137 C 0.47305 0.17997 0.15158 0.0
C138 C 0.38756 0.2224 0.11708 0.0
C139 C 0.83625 0.00486 0.27536 0.0
C140 C 0.72127 0.22001 0.50401 0.0
C141 C 0.61577 0.18803 0.59129 0.0
C142 C 0.51345 0.23465 0.57097 0.0
C143 C 0.61779 0.26771 0.48584 0.0
C144 C 0.71875 0.17969 0.5568 0.0
C145 C 0.51462 0.27387 0.51872 0.0
C146 C 0.14115 0.02503 0.39371 0.0
C147 C 0.8295 0.21177 0.4672 0.0
H148 H 0.34915 0.94816 0.98919 0.0
H149 H 0.29853 0.91563 0.16511 0.0
H150 H 0.40212 0.876 0.07781 0.0
H151 H 0.06727 0.09674 0.07335 0.0
H152 H 0.4323 0.2414 0.59559 0.0
H153 H 0.61565 0.30004 0.44583 0.0
H154 H 0.79765 0.14452 0.57213 0.0
H155 H 0.43531 0.30957 0.50359 0.0
Eu156 Eu 0.27958 0.37631 0.77373 0.0
C157 C 0.73957 0.36766 0.90663 0.0
N158 N 0.67546 0.32511 0.87026 0.0
C159 C 0.85095 0.23462 0.84882 0.0
C160 C 0.86289 0.34521 0.91434 0.0
C161 C 0.72948 0.25822 0.84277 0.0
C162 C 0.91796 0.27913 0.88426 0.0
C163 C 0.74387 0.46444 0.98323 0.0
C164 C 0.68097 0.42918 0.94005 0.0
C165 C 0.86754 0.4459 0.9879 0.0
C166 C -0.07285 0.38685 0.95339 0.0
Eu167 Eu 0.46658 0.35492 0.8801 0.0
N168 N 0.56101 0.44798 0.93478 0.0
C169 C 0.67937 0.5125 1.02318 0.0
C170 C 0.49941 0.50101 0.97088 0.0
C171 C 0.55693 0.53196 1.0167 0.0
H172 H 0.68036 0.22001 0.81812 0.0
H173 H 0.50649 0.5684 1.04802 0.0
H174 H 0.06533 0.51121 0.83171 0.0
H175 H 0.23736 0.18076 0.60009 0.0
H176 H 0.4041 0.51147 0.9681 0.0
H177 H 0.72367 0.53376 1.05979 0.0
H178 H 0.33974 0.22683 0.68228 0.0
H179 H 0.89232 0.18151 0.82657 0.0
H180 H 0.9181 0.47557 1.01867 0.0
H181 H 0.02219 0.37138 0.95887 0.0
H182 H 0.84958 0.53197 0.8399 0.0
H183 H 0.01137 0.26107 0.88946 0.0
H184 H 0.01542 0.19999 0.59616 0.0
N185 N 0.07104 0.4003 0.78712 0.0
C186 C 0.00551 0.35288 0.75472 0.0
C187 C 0.89239 0.48073 0.81624 0.0
C188 C 0.8803 0.36742 0.75292 0.0
C189 C 0.01591 0.46654 0.81436 0.0
C190 C 0.82495 0.42901 0.78655 0.0
N191 N 0.18419 0.28162 0.72079 0.0
C192 C 0.24486 0.23438 0.68142 0.0
C193 C -0.00144 0.25885 0.67689 0.0
C194 C 0.06347 0.29512 0.71898 0.0
C195 C 0.06167 0.21872 0.6329 0.0
C196 C 0.18592 0.20733 0.63497 0.0
H197 H 0.73044 0.43657 0.7897 0.0
H198 H 0.71779 0.33339 0.71486 0.0
H199 H 0.82304 0.24237 0.64557 0.0
O200 O 0.33189 0.38816 0.68562 0.0
O201 O 0.23524 0.25312 0.81024 0.0
O202 O 0.29779 0.28655 0.89721 0.0
O203 O 0.21214 0.48481 0.72503 0.0
O204 O 0.45639 0.29295 0.79193 0.0
O205 O 0.46125 0.29143 0.79442 0.0
O206 O 0.44532 0.33894 0.97109 0.0
O207 O 0.52698 0.47026 0.83359 0.0
O208 O 0.44514 0.43635 0.75043 0.0
O209 O 0.52239 0.23659 0.91895 0.0
O210 O 0.30582 0.4496 0.86026 0.0
O211 O 0.30236 0.44981 0.85749 0.0
C212 C 0.2468 0.2353 0.86391 0.0
C213 C 0.1875 0.46155 0.62616 0.0
C214 C 0.15831 0.4324 0.52612 0.0
C215 C 0.05601 0.48817 0.52683 0.0
C216 C 0.08308 0.51587 0.62511 0.0
C217 C 0.02083 0.5311 0.57541 0.0
C218 C 0.22591 0.42028 0.57587 0.0
C219 C 0.47132 0.21061 0.79047 0.0
C220 C 0.2612 0.45575 0.67795 0.0
C221 C 0.81422 0.32275 0.71623 0.0
C222 C 0.87378 0.27056 0.67699 0.0
C223 C 0.51046 0.48347 0.77907 0.0
C224 C 0.61557 0.25487 1.00692 0.0
C225 C 0.72101 0.28073 0.09434 0.0
C226 C 0.81089 0.21899 0.07816 0.0
C227 C 0.70988 0.19632 0.99181 0.0
C228 C 0.62459 0.29974 1.05729 0.0
C229 C 0.80649 0.17882 1.02707 0.0
C230 C 0.22631 0.47283 0.89891 0.0
C231 C 0.50901 0.26696 0.9699 0.0
H232 H 0.00402 0.49941 0.48911 0.0
H233 H 0.0514 0.54931 0.66227 0.0
H234 H -0.05638 0.57585 0.57482 0.0
H235 H 0.30874 0.38089 0.57512 0.0
H236 H 0.88539 0.20043 0.10485 0.0
H237 H 0.70894 0.16277 0.95279 0.0
H238 H 0.55413 0.34622 0.06893 0.0
H239 H 0.87729 0.13243 1.01522 0.0
Eu240 Eu -0.02243 0.85066 0.73486 0.0
C241 C 0.56355 0.81029 0.8991 0.0
N242 N 0.59937 0.85284 0.85332 0.0
C243 C 0.39617 0.90564 0.83688 0.0
C244 C 0.44323 0.81732 0.91695 0.0
C245 C 0.51735 0.89987 0.82223 0.0
C246 C 0.35887 0.86387 0.88431 0.0
C247 C 0.61916 0.73152 0.98303 0.0
C248 C 0.64829 0.76239 0.93026 0.0
C249 C 0.50115 0.74279 1.0027 0.0
C250 C 0.41233 0.78223 0.96858 0.0
Eu251 Eu 0.80917 0.85936 0.84936 0.0
N252 N 0.7679 0.75208 0.91095 0.0
C253 C 0.71058 0.69238 1.01527 0.0
C254 C 0.85489 0.69931 0.93805 0.0
C255 C 0.82198 0.6692 0.99077 0.0
H256 H 0.54332 0.93348 0.78633 0.0
H257 H 0.88606 0.62857 1.01377 0.0
H258 H 0.21671 0.7156 0.76701 0.0
H259 H -0.04082 0.06181 0.56027 0.0
H260 H 0.83212 0.74468 0.90681 0.0
H261 H 0.69314 0.67397 1.05818 0.0
H262 H 0.87747 0.98618 0.64031 0.0
H263 H 0.33189 0.94351 0.81203 0.0
H264 H 0.47802 0.72096 1.04408 0.0
H265 H 0.32137 0.78993 0.98402 0.0
H266 H 0.43176 0.70429 0.75638 0.0
H267 H 0.26554 0.86963 0.89625 0.0
H268 H 0.17461 0.07032 0.5514 0.0
N269 N 0.18962 0.83766 0.7332 0.0
C270 C 0.23986 0.89428 0.70008 0.0
C271 C 0.38042 0.75936 0.74171 0.0
C272 C 0.3645 0.88743 0.68951 0.0
C273 C 0.25744 0.76813 0.75057 0.0
C274 C 0.4348 0.81977 0.71166 0.0
N275 N 0.045 0.95213 0.67537 0.0
C276 C -0.02934 -0.00602 0.63827 0.0
C277 C 0.21533 -0.00013 0.62752 0.0
C278 C 0.16567 0.95165 0.66968 0.0
C279 C 0.13942 0.03894 0.58747 0.0
C280 C 0.01692 0.03502 0.59253 0.0
H281 H 0.53005 0.81177 0.70357 0.0
H282 H 0.50947 0.94123 0.64633 0.0
H283 H 0.37772 0.04387 0.59444 0.0
O284 O -0.04603 0.82629 0.64598 0.0
O285 O 0.04887 0.9585 0.78474 0.0
O286 O -0.02578 0.9207 0.87007 0.0
O287 O 0.03567 0.72932 0.70213 0.0
O288 O 0.81273 0.93743 0.76223 0.0
O289 O 0.80898 0.93755 0.76559 0.0
O290 O 0.85361 0.88605 0.93613 0.0
O291 O 0.75399 0.74405 0.80823 0.0
O292 O 0.80707 0.78448 0.71994 0.0
O293 O 0.72404 0.96969 0.88995 0.0
O294 O -0.01869 0.77936 0.8196 0.0
O295 O -0.01406 0.77891 0.81753 0.0
C296 C 0.03974 0.9676 0.83999 0.0
C297 C 0.12672 0.74481 0.6129 0.0
C298 C 0.23604 0.77902 0.52752 0.0
C299 C 0.32426 0.71487 0.54213 0.0
C300 C 0.21805 0.6833 0.62627 0.0
C301 C 0.31637 0.66894 0.59129 0.0
C302 C 0.13893 0.79506 0.56462 0.0
C303 C 0.72158 0.95324 0.72855 0.0
C304 C 0.02048 0.75575 0.65003 0.0
C305 C 0.41406 0.94447 0.65369 0.0
C306 C 0.33928 0.00148 0.62326 0.0
C307 C 0.75593 0.73256 0.75376 0.0
C308 C 0.69945 0.95999 0.99084 0.0
C309 C 0.66538 0.93761 0.09231 0.0
C310 C 0.56994 -0.00099 0.09002 0.0
C311 C 0.60019 0.01888 0.99044 0.0
C312 C 0.73231 0.91924 1.04252 0.0
C313 C 0.5387 0.03992 1.03987 0.0
C314 C 0.08687 0.77095 0.84461 0.0
C315 C 0.77436 0.95021 0.93881 0.0
H316 H 0.39933 0.69767 0.51538 0.0
H317 H 0.2136 0.64558 0.66382 0.0
H318 H 0.38539 0.62043 0.60163 0.0
H319 H 0.07009 0.84333 0.55436 0.0
H320 H 0.51876 0.01494 0.12755 0.0
H321 H 0.57252 0.0515 0.95217 0.0
H322 H 0.8108 0.87587 1.04445 0.0
H323 H 0.46508 0.08766 1.03911 0.0
Eu324 Eu 0.39333 0.62634 0.24595 0.0
C325 C 0.83172 0.64469 0.39741 0.0
N326 N 0.78771 0.60539 0.35288 0.0
C327 C -0.0168 0.54014 0.33302 0.0
C328 C -0.04673 0.63182 0.41183 0.0
C329 C 0.86215 0.55524 0.32008 0.0
C330 C 0.02898 0.5796 0.37868 0.0
C331 C 0.79196 0.72307 0.48234 0.0
C332 C 0.7542 0.69485 0.43086 0.0
C333 C 0.91211 0.7096 0.49712 0.0
C334 C -0.00596 0.66725 0.46079 0.0
Eu335 Eu 0.57702 0.60897 0.35366 0.0
N336 N 0.63279 0.70955 0.41568 0.0
C337 C 0.70674 0.76057 0.51886 0.0
C338 C 0.55071 0.75895 0.448 0.0
C339 C 0.59058 0.78261 0.50042 0.0
H340 H 0.83047 0.52865 0.28311 0.0
H341 H 0.52894 0.81897 0.52744 0.0
H342 H 0.17213 0.73347 0.32466 0.0
H343 H 0.36138 0.40934 0.07813 0.0
H344 H 0.56903 0.71908 0.41351 0.0
H345 H 0.73164 0.77749 0.56077 0.0
H346 H 0.46261 0.4734 0.15638 0.0
H347 H 0.04154 0.49971 0.3069 0.0
H348 H -0.05903 0.73019 0.53716 0.0
H349 H 0.08691 0.65705 0.47288 0.0
H350 H -0.03802 0.77809 0.31107 0.0
H351 H 0.1229 0.57088 0.38774 0.0
H352 H 0.14379 0.43946 0.06656 0.0
N353 N 0.1846 0.64678 0.25858 0.0
C354 C 0.12306 0.60826 0.21911 0.0
C355 C 0.0065 0.73078 0.2846 0.0
C356 C 0.00025 0.63057 0.21096 0.0
C357 C 0.12713 0.70557 0.29208 0.0
C358 C -0.05641 0.69361 0.24335 0.0
N359 N 0.30399 0.53374 0.18912 0.0
C360 C 0.36747 0.48184 0.15321 0.0
C361 C 0.12197 0.51332 0.14119 0.0
C362 C 0.18373 0.54987 0.18418 0.0
C363 C 0.18746 0.46359 0.1024 0.0
C364 C 0.3105 0.44689 0.10866 0.0
H365 H 0.8505 0.7115 0.23783 0.0
H366 H 0.84276 0.60586 0.16447 0.0
H367 H -0.05151 0.5009 0.10537 0.0
O368 O 0.41372 0.65163 0.15669 0.0
O369 O 0.33719 0.50937 0.29065 0.0
O370 O 0.40543 0.55068 0.37485 0.0
O371 O 0.33176 0.74744 0.21348 0.0
O372 O 0.55982 0.53949 0.26587 0.0
O373 O 0.56295 0.53932 0.26858 0.0
O374 O 0.52626 0.57965 0.43953 0.0
O375 O 0.63231 0.726 0.31142 0.0
O376 O 0.56009 0.69409 0.22549 0.0
O377 O 0.65758 0.49601 0.39441 0.0
O378 O 0.40326 0.68968 0.33129 0.0
O379 O 0.39979 0.69114 0.32945 0.0
C380 C 0.34675 0.49943 0.34558 0.0
C381 C 0.23955 0.73247 0.12627 0.0
C382 C 0.13322 0.69962 1.04217 0.0
C383 C 0.03615 0.75446 1.05985 0.0
C384 C 0.13952 0.78449 0.14391 0.0
C385 C 0.03828 0.79499 0.11087 0.0
C386 C 0.234 0.68791 0.0762 0.0
C387 C 0.64142 0.5239 0.22706 0.0
C388 C 0.34686 0.7222 0.16138 0.0
C389 C -0.06231 0.59055 0.17032 0.0
C390 C -0.00174 0.53134 0.13609 0.0
C391 C 0.61757 0.74306 0.25762 0.0
C392 C 0.67323 0.5029 0.49582 0.0
C393 C 0.70222 0.52985 0.59641 0.0
C394 C 0.78445 0.45963 0.59852 0.0
C395 C 0.75994 0.4354 0.49954 0.0
C396 C 0.64457 0.55063 0.54488 0.0
C397 C 0.81301 0.41294 0.5507 0.0
C398 C 0.38728 0.77172 0.33124 0.0
C399 C 0.60389 0.51474 0.44278 0.0
H400 H -0.03937 0.76934 1.0331 0.0
H401 H 0.13944 0.81787 0.18306 0.0
H402 H -0.03716 0.83663 0.12404 0.0
H403 H 0.3098 0.64715 0.0623 0.0
H404 H 0.82843 0.44181 0.63748 0.0
H405 H 0.78412 0.3981 0.46305 0.0
H406 H 0.57524 0.6013 0.54365 0.0
H407 H 0.87776 0.35947 0.55323 0.0
loop_
_geom_bond_atom_site_label_1
_geom_bond_atom_site_label_2
_geom_bond_distance
_geom_bond_site_symmetry_2
_ccdc_geom_bond_type
H0 C3 0.931 . S
H1 C6 0.928 . S
H2 C8 0.930 . S
C3 H0 0.931 . S
C3 C4 1.413 . S
C3 C5 1.360 . S
C4 C3 1.413 . S
C4 C8 1.429 . S
C5 C3 1.360 . S
C5 C6 1.372 . S
C6 H1 0.928 . S
C6 C5 1.372 . S
C6 C7 1.404 . S
C7 C6 1.404 . S
C7 C8 1.391 . S
C8 H2 0.930 . S
C8 C4 1.429 . S
C8 C7 1.391 . S
H9 C12 0.931 . S
H10 C15 0.928 . S
H11 C17 0.930 . S
C12 H9 0.931 . S
C12 C13 1.413 . S
C12 C14 1.360 . S
C13 C12 1.413 . S
C13 C17 1.429 . S
C14 C12 1.360 . S
C14 C15 1.372 . S
C15 H10 0.928 . S
C15 C14 1.372 . S
C15 C16 1.404 . S
C16 C15 1.404 . S
C16 C17 1.391 . S
C17 H11 0.930 . S
C17 C13 1.429 . S
C17 C16 1.391 . S
H18 C21 0.931 . S
H19 C24 0.928 . S
H20 C26 0.930 . S
C21 H18 0.931 . S
C21 C22 1.413 . S
C21 C23 1.360 . S
C22 C21 1.413 . S
C22 C26 1.429 . S
C23 C21 1.360 . S
C23 C24 1.372 . S
C24 H19 0.928 . S
C24 C23 1.372 . S
C24 C25 1.404 . S
C25 C24 1.404 . S
C25 C26 1.391 . S
C26 H20 0.930 . S
C26 C22 1.429 . S
C26 C25 1.391 . S
H27 C30 0.931 . S
H28 C33 0.928 . S
H29 C35 0.930 . S
C30 H27 0.931 . S
C30 C31 1.413 . S
C30 C32 1.360 . S
C31 C30 1.413 . S
C31 C35 1.429 . S
C32 C30 1.360 . S
C32 C33 1.372 . S
C33 H28 0.928 . S
C33 C32 1.372 . S
C33 C34 1.404 . S
C34 C33 1.404 . S
C34 C35 1.391 . S
C35 H29 0.930 . S
C35 C31 1.429 . S
C35 C34 1.391 . S
H36 C39 0.931 . S
H37 C42 0.928 . S
H38 C44 0.930 . S
C39 H36 0.931 . S
C39 C40 1.413 . S
C39 C41 1.360 . S
C40 C39 1.413 . S
C40 C44 1.429 . S
C41 C39 1.360 . S
C41 C42 1.372 . S
C42 H37 0.928 . S
C42 C41 1.372 . S
C42 C43 1.404 . S
C43 C42 1.404 . S
C43 C44 1.391 . S
C44 H38 0.930 . S
C44 C40 1.429 . S
C44 C43 1.391 . S
H45 C48 0.931 . S
H46 C51 0.928 . S
H47 C53 0.930 . S
C48 H45 0.931 . S
C48 C49 1.413 . S
C48 C50 1.360 . S
C49 C48 1.413 . S
C49 C53 1.429 . S
C50 C48 1.360 . S
C50 C51 1.372 . S
C51 H46 0.928 . S
C51 C50 1.372 . S
C51 C52 1.404 . S
C52 C51 1.404 . S
C52 C53 1.391 . S
C53 H47 0.930 . S
C53 C49 1.429 . S
C53 C52 1.391 . S
H54 C57 0.931 . S
H55 C60 0.928 . S
H56 C62 0.930 . S
C57 H54 0.931 . S
C57 C58 1.413 . S
C57 C59 1.360 . S
C58 C57 1.413 . S
C58 C62 1.429 . S
C59 C57 1.360 . S
C59 C60 1.372 . S
C60 H55 0.928 . S
C60 C59 1.372 . S
C60 C61 1.404 . S
C61 C60 1.404 . S
C61 C62 1.391 . S
C62 H56 0.930 . S
C62 C58 1.429 . S
C62 C61 1.391 . S
H63 C66 0.931 . S
H64 C69 0.928 . S
H65 C71 0.930 . S
C66 H63 0.931 . S
C66 C67 1.413 . S
C66 C68 1.360 . S
C67 C66 1.413 . S
C67 C71 1.429 . S
C68 C66 1.360 . S
C68 C69 1.372 . S
C69 H64 0.928 . S
C69 C68 1.372 . S
C69 C70 1.404 . S
C70 C69 1.404 . S
C70 C71 1.391 . S
C71 H65 0.930 . S
C71 C67 1.429 . S
C71 C70 1.391 . S
Eu72 N101 2.600 . S
Eu72 N107 2.562 . S
Eu72 O116 2.462 . S
Eu72 O117 2.373 . S
Eu72 O119 2.432 . S
Eu72 O120 2.291 1_455 S
Eu72 O124 2.335 1_455 S
Eu72 O127 2.372 . S
Eu72 C136 2.787 . S
C73 N74 1.365 . S
C73 C76 1.405 . S
C73 C80 1.448 . S
N74 C73 1.365 . S
N74 C77 1.319 . S
N74 Eu83 2.600 . S
C75 C77 1.397 . S
C75 C78 1.367 . S
C75 H95 0.931 . S
C76 C73 1.405 . S
C76 C78 1.403 . S
C76 C82 1.439 1_545 S
C77 N74 1.319 . S
C77 C75 1.397 . S
C77 H88 0.930 . S
C78 C75 1.367 . S
C78 C76 1.403 . S
C78 H99 0.929 . S
C79 C80 1.430 1_565 S
C79 C81 1.387 . S
C79 C85 1.404 . S
C80 C73 1.448 . S
C80 C79 1.430 1_545 S
C80 N84 1.351 . S
C81 C79 1.387 . S
C81 C82 1.374 . S
C81 H96 0.931 . S
C82 C76 1.439 1_565 S
C82 C81 1.374 . S
C82 H97 0.931 . S
Eu83 N74 2.600 . S
Eu83 N84 2.562 . S
Eu83 O118 2.335 1_655 S
Eu83 O121 2.372 . S
Eu83 O122 2.462 . S
Eu83 O123 2.373 . S
Eu83 O125 2.432 . S
Eu83 O126 2.291 1_655 S
Eu83 C147 2.787 . S
N84 C80 1.351 . S
N84 Eu83 2.562 . S
N84 C86 1.325 1_545 S
C85 C79 1.404 . S
C85 C87 1.366 . S
C85 H93 0.930 . S
C86 N84 1.325 1_565 S
C86 C87 1.416 . S
C86 H92 0.929 . S
C87 C85 1.366 . S
C87 C86 1.416 . S
C87 H89 0.930 . S
H88 C77 0.930 . S
H89 C87 0.930 . S
H90 C105 0.930 . S
H91 C112 0.930 . S
H92 C86 0.929 . S
H93 C85 0.930 . S
H94 C108 0.929 . S
H95 C75 0.931 . S
H96 C81 0.931 . S
H97 C82 0.931 . S
H98 C103 0.931 . S
H99 C78 0.929 . S
H100 C111 0.930 . S
N101 Eu72 2.600 . S
N101 C102 1.365 . S
N101 C105 1.319 . S
C102 N101 1.365 . S
C102 C104 1.405 . S
C102 C110 1.448 . S
C103 H98 0.931 . S
C103 C105 1.397 . S
C103 C106 1.367 . S
C104 C102 1.405 . S
C104 C106 1.403 . S
C104 C137 1.439 . S
C105 H90 0.930 . S
C105 N101 1.319 . S
C105 C103 1.397 . S
C106 C103 1.367 . S
C106 C104 1.403 . S
C106 H113 0.929 . S
N107 Eu72 2.562 . S
N107 C108 1.325 . S
N107 C110 1.351 . S
C108 H94 0.929 . S
C108 N107 1.325 . S
C108 C112 1.416 . S
C109 C110 1.430 . S
C109 C111 1.404 . S
C109 C138 1.387 . S
C110 C102 1.448 . S
C110 N107 1.351 . S
C110 C109 1.430 . S
C111 H100 0.930 . S
C111 C109 1.404 . S
C111 C112 1.366 . S
C112 H91 0.930 . S
C112 C108 1.416 . S
C112 C111 1.366 . S
H113 C106 0.929 . S
H114 C137 0.931 . S
H115 C138 0.931 . S
O116 Eu72 2.462 . S
O116 C136 1.252 . S
O117 Eu72 2.373 . S
O117 C128 1.249 . S
O118 Eu83 2.335 1_455 S
O118 C128 1.264 . S
O119 Eu72 2.432 . S
O119 C136 1.268 . S
O120 Eu72 2.291 1_655 S
O120 C135 1.255 . S
O121 Eu83 2.372 . S
O121 C135 1.257 . S
O122 Eu83 2.462 . S
O122 C147 1.252 . S
O123 Eu83 2.373 . S
O123 C139 1.249 . S
O124 Eu72 2.335 1_655 S
O124 C139 1.264 . S
O125 Eu83 2.432 . S
O125 C147 1.268 . S
O126 Eu83 2.291 1_455 S
O126 C146 1.255 . S
O127 Eu72 2.372 . S
O127 C146 1.257 . S
C128 O117 1.249 . S
C128 O118 1.264 . S
C129 C132 1.382 . S
C129 C134 1.390 . S
C129 C136 1.506 . S
C130 C131 1.398 . S
C130 C134 1.392 1_556 S
C131 C130 1.398 . S
C131 C133 1.372 . S
C131 H148 0.931 . S
C132 C129 1.382 . S
C132 C133 1.390 1_554 S
C132 H149 0.931 1_545 S
C133 C131 1.372 . S
C133 C132 1.390 1_556 S
C133 H150 0.929 1_545 S
C134 C129 1.390 . S
C134 C130 1.392 1_554 S
C134 H151 0.930 . S
C135 O120 1.255 . S
C135 O121 1.257 . S
C136 Eu72 2.787 . S
C136 O116 1.252 . S
C136 O119 1.268 . S
C136 C129 1.506 . S
C137 C104 1.439 . S
C137 H114 0.931 . S
C137 C138 1.374 . S
C138 C109 1.387 . S
C138 H115 0.931 . S
C138 C137 1.374 . S
C139 O123 1.249 . S
C139 O124 1.264 . S
C140 C143 1.382 . S
C140 C144 1.390 . S
C140 C147 1.506 . S
C141 C142 1.398 . S
C141 C144 1.392 . S
C142 C141 1.398 . S
C142 C145 1.372 . S
C142 H152 0.931 . S
C143 C140 1.382 . S
C143 C145 1.390 . S
C143 H153 0.931 . S
C144 C140 1.390 . S
C144 C141 1.392 . S
C144 H154 0.930 . S
C145 C142 1.372 . S
C145 C143 1.390 . S
C145 H155 0.929 . S
C146 O126 1.255 . S
C146 O127 1.257 . S
C147 Eu83 2.787 . S
C147 O122 1.252 . S
C147 O125 1.268 . S
C147 C140 1.506 . S
H148 C131 0.931 . S
H149 C132 0.931 1_565 S
H150 C133 0.929 1_565 S
H151 C134 0.930 . S
H152 C142 0.931 . S
H153 C143 0.931 . S
H154 C144 0.930 . S
H155 C145 0.929 . S
Eu156 N185 2.600 . S
Eu156 N191 2.562 . S
Eu156 O200 2.462 . S
Eu156 O201 2.373 . S
Eu156 O203 2.432 . S
Eu156 O204 2.291 . S
Eu156 O208 2.335 . S
Eu156 O211 2.372 . S
Eu156 C220 2.787 . S
C157 N158 1.365 1_455 S
C157 C160 1.405 . S
C157 C164 1.448 1_455 S
N158 C157 1.365 1_655 S
N158 C161 1.319 1_655 S
N158 Eu167 2.600 . S
C159 C161 1.397 . S
C159 C162 1.367 . S
C159 H179 0.931 . S
C160 C157 1.405 . S
C160 C162 1.403 . S
C160 C166 1.439 . S
C161 N158 1.319 1_455 S
C161 C159 1.397 . S
C161 H172 0.930 1_455 S
C162 C159 1.367 . S
C162 C160 1.403 . S
C162 H183 0.929 . S
C163 C164 1.430 1_455 S
C163 C165 1.387 . S
C163 C169 1.404 1_455 S
C164 C157 1.448 1_655 S
C164 C163 1.430 1_655 S
C164 N168 1.351 . S
C165 C163 1.387 . S
C165 C166 1.374 . S
C165 H180 0.931 . S
C166 C160 1.439 . S
C166 C165 1.374 . S
C166 H181 0.931 . S
Eu167 N158 2.600 . S
Eu167 N168 2.562 . S
Eu167 O202 2.335 . S
Eu167 O205 2.372 . S
Eu167 O206 2.462 . S
Eu167 O207 2.373 . S
Eu167 O209 2.432 . S
Eu167 O210 2.291 . S
Eu167 C231 2.787 . S
N168 C164 1.351 . S
N168 Eu167 2.562 . S
N168 C170 1.325 . S
C169 C163 1.404 1_655 S
C169 C171 1.366 . S
C169 H177 0.930 1_655 S
C170 N168 1.325 . S
C170 C171 1.416 . S
C170 H176 0.929 . S
C171 C169 1.366 . S
C171 C170 1.416 . S
C171 H173 0.930 . S
H172 C161 0.930 1_655 S
H173 C171 0.930 . S
H174 C189 0.930 . S
H175 C196 0.930 . S
H176 C170 0.929 . S
H177 C169 0.930 1_455 S
H178 C192 0.929 . S
H179 C159 0.931 . S
H180 C165 0.931 . S
H181 C166 0.931 . S
H182 C187 0.931 . S
H183 C162 0.929 . S
H184 C195 0.930 1_655 S
N185 Eu156 2.600 . S
N185 C186 1.365 1_455 S
N185 C189 1.319 . S
C186 N185 1.365 1_655 S
C186 C188 1.405 . S
C186 C194 1.448 1_655 S
C187 H182 0.931 . S
C187 C189 1.397 1_655 S
C187 C190 1.367 . S
C188 C186 1.405 . S
C188 C190 1.403 . S
C188 C221 1.439 . S
C189 H174 0.930 . S
C189 N185 1.319 . S
C189 C187 1.397 1_455 S
C190 C187 1.367 . S
C190 C188 1.403 . S
C190 H197 0.929 . S
N191 Eu156 2.562 . S
N191 C192 1.325 . S
N191 C194 1.351 . S
C192 H178 0.929 . S
C192 N191 1.325 . S
C192 C196 1.416 . S
C193 C194 1.430 1_655 S
C193 C195 1.404 1_655 S
C193 C222 1.387 . S
C194 C186 1.448 1_455 S
C194 N191 1.351 . S
C194 C193 1.430 1_455 S
C195 H184 0.930 1_455 S
C195 C193 1.404 1_455 S
C195 C196 1.366 . S
C196 H175 0.930 . S
C196 C192 1.416 . S
C196 C195 1.366 . S
H197 C190 0.929 . S
H198 C221 0.931 . S
H199 C222 0.931 . S
O200 Eu156 2.462 . S
O200 C220 1.252 . S
O201 Eu156 2.373 . S
O201 C212 1.249 . S
O202 Eu167 2.335 . S
O202 C212 1.264 . S
O203 Eu156 2.432 . S
O203 C220 1.268 . S
O204 Eu156 2.291 . S
O204 C219 1.255 . S
O205 Eu167 2.372 . S
O205 C219 1.257 . S
O206 Eu167 2.462 . S
O206 C231 1.252 . S
O207 Eu167 2.373 . S
O207 C223 1.249 . S
O208 Eu156 2.335 . S
O208 C223 1.264 . S
O209 Eu167 2.432 . S
O209 C231 1.268 . S
O210 Eu167 2.291 . S
O210 C230 1.255 . S
O211 Eu156 2.372 . S
O211 C230 1.257 . S
C212 O201 1.249 . S
C212 O202 1.264 . S
C213 C216 1.382 . S
C213 C218 1.390 . S
C213 C220 1.506 . S
C214 C215 1.398 . S
C214 C218 1.392 . S
C215 C214 1.398 . S
C215 C217 1.372 . S
C215 H232 0.931 . S
C216 C213 1.382 . S
C216 C217 1.390 . S
C216 H233 0.931 . S
C217 C215 1.372 . S
C217 C216 1.390 . S
C217 H234 0.929 . S
C218 C213 1.390 . S
C218 C214 1.392 . S
C218 H235 0.930 . S
C219 O204 1.255 . S
C219 O205 1.257 . S
C220 Eu156 2.787 . S
C220 O200 1.252 . S
C220 O203 1.268 . S
C220 C213 1.506 . S
C221 C188 1.439 . S
C221 H198 0.931 . S
C221 C222 1.374 . S
C222 C193 1.387 . S
C222 H199 0.931 . S
C222 C221 1.374 . S
C223 O207 1.249 . S
C223 O208 1.264 . S
C224 C227 1.382 . S
C224 C228 1.390 . S
C224 C231 1.506 . S
C225 C226 1.398 . S
C225 C228 1.392 1_554 S
C226 C225 1.398 . S
C226 C229 1.372 . S
C226 H236 0.931 . S
C227 C224 1.382 . S
C227 C229 1.390 1_556 S
C227 H237 0.931 . S
C228 C224 1.390 . S
C228 C225 1.392 1_556 S
C228 H238 0.930 . S
C229 C226 1.372 . S
C229 C227 1.390 1_554 S
C229 H239 0.929 . S
C230 O210 1.255 . S
C230 O211 1.257 . S
C231 Eu167 2.787 . S
C231 O206 1.252 . S
C231 O209 1.268 . S
C231 C224 1.506 . S
H232 C215 0.931 . S
H233 C216 0.931 . S
H234 C217 0.929 . S
H235 C218 0.930 . S
H236 C226 0.931 . S
H237 C227 0.931 . S
H238 C228 0.930 . S
H239 C229 0.929 . S
Eu240 N269 2.600 . S
Eu240 N275 2.562 . S
Eu240 O284 2.462 . S
Eu240 O285 2.373 . S
Eu240 O287 2.432 . S
Eu240 O288 2.291 1_455 S
Eu240 O292 2.335 1_455 S
Eu240 O295 2.372 . S
Eu240 C304 2.787 . S
C241 N242 1.365 . S
C241 C244 1.405 . S
C241 C248 1.448 . S
N242 C241 1.365 . S
N242 C245 1.319 . S
N242 Eu251 2.600 . S
C243 C245 1.397 . S
C243 C246 1.367 . S
C243 H263 0.931 . S
C244 C241 1.405 . S
C244 C246 1.403 . S
C244 C250 1.439 . S
C245 N242 1.319 . S
C245 C243 1.397 . S
C245 H256 0.930 . S
C246 C243 1.367 . S
C246 C244 1.403 . S
C246 H267 0.929 . S
C247 C248 1.430 . S
C247 C249 1.387 . S
C247 C253 1.404 . S
C248 C241 1.448 . S
C248 C247 1.430 . S
C248 N252 1.351 . S
C249 C247 1.387 . S
C249 C250 1.374 . S
C249 H264 0.931 . S
C250 C244 1.439 . S
C250 C249 1.374 . S
C250 H265 0.931 . S
Eu251 N242 2.600 . S
Eu251 N252 2.562 . S
Eu251 O286 2.335 1_655 S
Eu251 O289 2.372 . S
Eu251 O290 2.462 . S
Eu251 O291 2.373 . S
Eu251 O293 2.432 . S
Eu251 O294 2.291 1_655 S
Eu251 C315 2.787 . S
N252 C248 1.351 . S
N252 Eu251 2.562 . S
N252 C254 1.325 . S
C253 C247 1.404 . S
C253 C255 1.366 . S
C253 H261 0.930 . S
C254 N252 1.325 . S
C254 C255 1.416 . S
C254 H260 0.929 . S
C255 C253 1.366 . S
C255 C254 1.416 . S
C255 H257 0.930 . S
H256 C245 0.930 . S
H257 C255 0.930 . S
H258 C273 0.930 . S
H259 C280 0.930 . S
H260 C254 0.929 . S
H261 C253 0.930 . S
H262 C276 0.929 . S
H263 C243 0.931 . S
H264 C249 0.931 . S
H265 C250 0.931 . S
H266 C271 0.931 . S
H267 C246 0.929 . S
H268 C279 0.930 . S
N269 Eu240 2.600 . S
N269 C270 1.365 . S
N269 C273 1.319 . S
C270 N269 1.365 . S
C270 C272 1.405 . S
C270 C278 1.448 . S
C271 H266 0.931 . S
C271 C273 1.397 . S
C271 C274 1.367 . S
C272 C270 1.405 . S
C272 C274 1.403 . S
C272 C305 1.439 1_565 S
C273 H258 0.930 . S
C273 N269 1.319 . S
C273 C271 1.397 . S
C274 C271 1.367 . S
C274 C272 1.403 . S
C274 H281 0.929 . S
N275 Eu240 2.562 . S
N275 C276 1.325 1_565 S
N275 C278 1.351 . S
C276 H262 0.929 . S
C276 N275 1.325 1_545 S
C276 C280 1.416 . S
C277 C278 1.430 1_545 S
C277 C279 1.404 . S
C277 C306 1.387 . S
C278 C270 1.448 . S
C278 N275 1.351 . S
C278 C277 1.430 1_565 S
C279 H268 0.930 . S
C279 C277 1.404 . S
C279 C280 1.366 . S
C280 H259 0.930 . S
C280 C276 1.416 . S
C280 C279 1.366 . S
H281 C274 0.929 . S
H282 C305 0.931 . S
H283 C306 0.931 . S
O284 Eu240 2.462 . S
O284 C304 1.252 . S
O285 Eu240 2.373 . S
O285 C296 1.249 . S
O286 Eu251 2.335 1_455 S
O286 C296 1.264 . S
O287 Eu240 2.432 . S
O287 C304 1.268 . S
O288 Eu240 2.291 1_655 S
O288 C303 1.255 . S
O289 Eu251 2.372 . S
O289 C303 1.257 . S
O290 Eu251 2.462 . S
O290 C315 1.252 . S
O291 Eu251 2.373 . S
O291 C307 1.249 . S
O292 Eu240 2.335 1_655 S
O292 C307 1.264 . S
O293 Eu251 2.432 . S
O293 C315 1.268 . S
O294 Eu251 2.291 1_455 S
O294 C314 1.255 . S
O295 Eu240 2.372 . S
O295 C314 1.257 . S
C296 O285 1.249 . S
C296 O286 1.264 . S
C297 C300 1.382 . S
C297 C302 1.390 . S
C297 C304 1.506 . S
C298 C299 1.398 . S
C298 C302 1.392 . S
C299 C298 1.398 . S
C299 C301 1.372 . S
C299 H316 0.931 . S
C300 C297 1.382 . S
C300 C301 1.390 . S
C300 H317 0.931 . S
C301 C299 1.372 . S
C301 C300 1.390 . S
C301 H318 0.929 . S
C302 C297 1.390 . S
C302 C298 1.392 . S
C302 H319 0.930 . S
C303 O288 1.255 . S
C303 O289 1.257 . S
C304 Eu240 2.787 . S
C304 O284 1.252 . S
C304 O287 1.268 . S
C304 C297 1.506 . S
C305 C272 1.439 1_545 S
C305 H282 0.931 . S
C305 C306 1.374 . S
C306 C277 1.387 . S
C306 H283 0.931 . S
C306 C305 1.374 . S
C307 O291 1.249 . S
C307 O292 1.264 . S
C308 C311 1.382 . S
C308 C312 1.390 . S
C308 C315 1.506 . S
C309 C310 1.398 . S
C309 C312 1.392 1_554 S
C310 C309 1.398 . S
C310 C313 1.372 . S
C310 H320 0.931 . S
C311 C308 1.382 . S
C311 C313 1.390 1_556 S
C311 H321 0.931 1_565 S
C312 C308 1.390 . S
C312 C309 1.392 1_556 S
C312 H322 0.930 . S
C313 C310 1.372 . S
C313 C311 1.390 1_554 S
C313 H323 0.929 1_565 S
C314 O294 1.255 . S
C314 O295 1.257 . S
C315 Eu251 2.787 . S
C315 O290 1.252 . S
C315 O293 1.268 . S
C315 C308 1.506 . S
H316 C299 0.931 . S
H317 C300 0.931 . S
H318 C301 0.929 . S
H319 C302 0.930 . S
H320 C310 0.931 . S
H321 C311 0.931 1_545 S
H322 C312 0.930 . S
H323 C313 0.929 1_545 S
Eu324 N353 2.600 . S
Eu324 N359 2.562 . S
Eu324 O368 2.462 . S
Eu324 O369 2.373 . S
Eu324 O371 2.432 . S
Eu324 O372 2.291 . S
Eu324 O376 2.335 . S
Eu324 O379 2.372 . S
Eu324 C388 2.787 . S
C325 N326 1.365 1_455 S
C325 C328 1.405 . S
C325 C332 1.448 1_455 S
N326 C325 1.365 1_655 S
N326 C329 1.319 1_655 S
N326 Eu335 2.600 . S
C327 C329 1.397 . S
C327 C330 1.367 . S
C327 H347 0.931 . S
C328 C325 1.405 . S
C328 C330 1.403 . S
C328 C334 1.439 . S
C329 N326 1.319 1_455 S
C329 C327 1.397 . S
C329 H340 0.930 1_455 S
C330 C327 1.367 . S
C330 C328 1.403 . S
C330 H351 0.929 . S
C331 C332 1.430 1_455 S
C331 C333 1.387 . S
C331 C337 1.404 1_455 S
C332 C325 1.448 1_655 S
C332 C331 1.430 1_655 S
C332 N336 1.351 . S
C333 C331 1.387 . S
C333 C334 1.374 . S
C333 H348 0.931 . S
C334 C328 1.439 . S
C334 C333 1.374 . S
C334 H349 0.931 . S
Eu335 N326 2.600 . S
Eu335 N336 2.562 . S
Eu335 O370 2.335 . S
Eu335 O373 2.372 . S
Eu335 O374 2.462 . S
Eu335 O375 2.373 . S
Eu335 O377 2.432 . S
Eu335 O378 2.291 . S
Eu335 C399 2.787 . S
N336 C332 1.351 . S
N336 Eu335 2.562 . S
N336 C338 1.325 . S
C337 C331 1.404 1_655 S
C337 C339 1.366 . S
C337 H345 0.930 1_655 S
C338 N336 1.325 . S
C338 C339 1.416 . S
C338 H344 0.929 . S
C339 C337 1.366 . S
C339 C338 1.416 . S
C339 H341 0.930 . S
H340 C329 0.930 1_655 S
H341 C339 0.930 . S
H342 C357 0.925 1_455 S
H343 C364 0.930 . S
H344 C338 0.929 . S
H345 C337 0.930 1_455 S
H346 C360 0.929 . S
H347 C327 0.931 . S
H348 C333 0.931 . S
H349 C334 0.931 . S
H350 C355 0.931 . S
H351 C330 0.929 . S
H352 C363 0.930 1_655 S
N353 Eu324 2.600 . S
N353 C354 1.365 1_455 S
N353 C357 1.315 1_455 S
C354 N353 1.365 1_655 S
C354 C356 1.405 . S
C354 C362 1.448 1_655 S
C355 H350 0.931 . S
C355 C357 1.405 . S
C355 C358 1.367 . S
C356 C354 1.405 . S
C356 C358 1.403 . S
C356 C389 1.439 . S
C357 H342 0.925 1_655 S
C357 N353 1.315 1_655 S
C357 C355 1.405 . S
C358 C355 1.367 . S
C358 C356 1.403 . S
C358 H365 0.929 . S
N359 Eu324 2.562 . S
N359 C360 1.325 . S
N359 C362 1.351 . S
C360 H346 0.929 . S
C360 N359 1.325 . S
C360 C364 1.416 . S
C361 C362 1.430 1_655 S
C361 C363 1.404 1_655 S
C361 C390 1.387 . S
C362 C354 1.448 1_455 S
C362 N359 1.351 . S
C362 C361 1.430 1_455 S
C363 H352 0.930 1_455 S
C363 C361 1.404 1_455 S
C363 C364 1.366 . S
C364 H343 0.930 . S
C364 C360 1.416 . S
C364 C363 1.366 . S
H365 C358 0.929 . S
H366 C389 0.931 . S
H367 C390 0.931 . S
O368 Eu324 2.462 . S
O368 C388 1.252 . S
O369 Eu324 2.373 . S
O369 C380 1.249 . S
O370 Eu335 2.335 . S
O370 C380 1.264 . S
O371 Eu324 2.432 . S
O371 C388 1.268 . S
O372 Eu324 2.291 . S
O372 C387 1.255 . S
O373 Eu335 2.372 . S
O373 C387 1.257 . S
O374 Eu335 2.462 . S
O374 C399 1.252 . S
O375 Eu335 2.373 . S
O375 C391 1.249 . S
O376 Eu324 2.335 . S
O376 C391 1.264 . S
O377 Eu335 2.432 . S
O377 C399 1.268 . S
O378 Eu335 2.291 . S
O378 C398 1.255 . S
O379 Eu324 2.372 . S
O379 C398 1.257 . S
C380 O369 1.249 . S
C380 O370 1.264 . S
C381 C384 1.382 . S
C381 C386 1.390 . S
C381 C388 1.506 . S
C382 C383 1.398 . S
C382 C386 1.392 1_556 S
C383 C382 1.398 . S
C383 C385 1.372 . S
C383 H400 0.931 . S
C384 C381 1.382 . S
C384 C385 1.390 1_554 S
C384 H401 0.931 . S
C385 C383 1.372 . S
C385 C384 1.390 1_556 S
C385 H402 0.929 . S
C386 C381 1.390 . S
C386 C382 1.392 1_554 S
C386 H403 0.930 . S
C387 O372 1.255 . S
C387 O373 1.257 . S
C388 Eu324 2.787 . S
C388 O368 1.252 . S
C388 O371 1.268 . S
C388 C381 1.506 . S
C389 C356 1.439 . S
C389 H366 0.931 . S
C389 C390 1.374 . S
C390 C361 1.387 . S
C390 H367 0.931 . S
C390 C389 1.374 . S
C391 O375 1.249 . S
C391 O376 1.264 . S
C392 C395 1.382 . S
C392 C396 1.390 . S
C392 C399 1.506 . S
C393 C394 1.398 . S
C393 C396 1.392 . S
C394 C393 1.398 . S
C394 C397 1.372 . S
C394 H404 0.931 . S
C395 C392 1.382 . S
C395 C397 1.390 . S
C395 H405 0.931 . S
C396 C392 1.390 . S
C396 C393 1.392 . S
C396 H406 0.930 . S
C397 C394 1.372 . S
C397 C395 1.390 . S
C397 H407 0.929 . S
C398 O378 1.255 . S
C398 O379 1.257 . S
C399 Eu335 2.787 . S
C399 O374 1.252 . S
C399 O377 1.268 . S
C399 C392 1.506 . S
H400 C383 0.931 . S
H401 C384 0.931 . S
H402 C385 0.929 . S
H403 C386 0.930 . S
H404 C394 0.931 . S
H405 C395 0.931 . S
H406 C396 0.930 . S
H407 C397 0.929 . S
C58 C146 1.439 1_565 S
C230 C68 1.439 . S
C223 C40 1.453 . S
C50 C139 1.455 1_565 S
C303 C23 1.442 1_565 S
C387 C32 1.441 . S
C5 C380 1.456 . S
C14 C296 1.455 1_545 S
C130 C13 1.272 . S
C214 C4 1.272 . S
C225 C31 1.534 . S
C141 C22 1.536 . S
C309 C49 1.279 . S
C41 C393 1.270 . S
C382 C67 1.536 . S
C59 C298 1.537 . S
C128 C7 1.518 . S
C212 C16 1.516 . S
C25 C219 1.495 . S
C135 C34 1.492 . S
C307 C43 1.519 . S
C52 C391 1.513 . S
C61 C398 1.503 . S
C70 C314 1.493 . S
