# Generated by pormake.
# Topology anh, (6,3)-cn, num edge types: 1
# Building blocks:
#     Node 0, Type 0, BuildingBlock: CUKXOW_clean_sbu_0, # of connection points: 6
#     Node 1, Type 0, BuildingBlock: CUKXOW_clean_sbu_0, # of connection points: 6
#     Node 2, Type 0, BuildingBlock: CUKXOW_clean_sbu_0, # of connection points: 6
#     Node 3, Type 1, BuildingBlock: KAKCAD_clean_linker_0, # of connection points: 3
#     Node 4, Type 1, BuildingBlock: KAKCAD_clean_linker_0, # of connection points: 3
#     Node 5, Type 1, BuildingBlock: KAKCAD_clean_linker_0, # of connection points: 3
#     Node 6, Type 1, BuildingBlock: KAKCAD_clean_linker_0, # of connection points: 3
#     Node 7, Type 1, BuildingBlock: KAKCAD_clean_linker_0, # of connection points: 3
#     Node 8, Type 1, BuildingBlock: KAKCAD_clean_linker_0, # of connection points: 3
#     Edge 9, Type (0, 1), BuildingBlock: XUDNAN_clean_linker_2, # of connection points: 2
#     Edge 10, Type (0, 1), BuildingBlock: XUDNAN_clean_linker_2, # of connection points: 2
#     Edge 11, Type (0, 1), BuildingBlock: XUDNAN_clean_linker_2, # of connection points: 2
#     Edge 12, Type (0, 1), BuildingBlock: XUDNAN_clean_linker_2, # of connection points: 2
#     Edge 13, Type (0, 1), BuildingBlock: XUDNAN_clean_linker_2, # of connection points: 2
#     Edge 14, Type (0, 1), BuildingBlock: XUDNAN_clean_linker_2, # of connection points: 2
#     Edge 15, Type (0, 1), BuildingBlock: XUDNAN_clean_linker_2, # of connection points: 2
#     Edge 16, Type (0, 1), BuildingBlock: XUDNAN_clean_linker_2, # of connection points: 2
#     Edge 17, Type (0, 1), BuildingBlock: XUDNAN_clean_linker_2, # of connection points: 2
#     Edge 18, Type (0, 1), BuildingBlock: XUDNAN_clean_linker_2, # of connection points: 2
#     Edge 19, Type (0, 1), BuildingBlock: XUDNAN_clean_linker_2, # of connection points: 2
#     Edge 20, Type (0, 1), BuildingBlock: XUDNAN_clean_linker_2, # of connection points: 2
#     Edge 21, Type (0, 1), BuildingBlock: XUDNAN_clean_linker_2, # of connection points: 2
#     Edge 22, Type (0, 1), BuildingBlock: XUDNAN_clean_linker_2, # of connection points: 2
#     Edge 23, Type (0, 1), BuildingBlock: XUDNAN_clean_linker_2, # of connection points: 2
#     Edge 24, Type (0, 1), BuildingBlock: XUDNAN_clean_linker_2, # of connection points: 2
#     Edge 25, Type (0, 1), BuildingBlock: XUDNAN_clean_linker_2, # of connection points: 2
#     Edge 26, Type (0, 1), BuildingBlock: XUDNAN_clean_linker_2, # of connection points: 2
# Relax obj value: 0.133
# Max RMSD: 0.194
# Mean RMSD: 0.139
data_MOF--net-anh--node1-CUKXOW_clean_sbu_0--node2-KAKCAD_clean_linker_0--edge1-XUDNAN_clean_linker_2
_symmetry_space_group_name_H-M    P1
_symmetry_Int_Tables_number       1
_symmetry_cell_setting            triclinic
loop_
_symmetry_equiv_pos_as_xyz
'x, y, z'
_cell_length_a     35.255961
_cell_length_b     34.338476
_cell_length_c     65.202863
_cell_angle_alpha  95.67993
_cell_angle_beta   90.081885
_cell_angle_gamma 115.45034
loop_
_atom_site_label
_atom_site_type_symbol
_atom_site_fract_x
_atom_site_fract_y
_atom_site_fract_z
_atom_type_partial_charge
Tb0 Tb 0.07978 0.54309 0.15096 0.0
C1 C 0.06024 0.50456 0.19429 0.0
Tb2 Tb 0.02389 0.44176 0.15308 0.0
O3 O 0.02742 0.5624 0.15101 0.0
O4 O 1.0156 0.49872 0.14998 0.0
O5 O 0.08488 0.53641 0.18363 0.0
C6 C 0.95583 0.36786 0.15499 0.0
O7 O 0.0317 0.46647 0.1856 0.0
C8 C 0.10678 0.46329 0.15376 0.0
C9 C 0.05222 0.47707 0.11065 0.0
O10 O 0.96675 0.40253 0.16792 0.0
O11 O 0.98347 0.37454 0.14099 0.0
O12 O 0.07784 0.42372 0.15415 0.0
O13 O 0.08701 0.48625 0.15343 0.0
O14 O 0.02136 0.44851 0.12044 0.0
O15 O 0.08177 0.51373 0.1201 0.0
C16 C 0.14566 0.61961 0.15078 0.0
O17 O 0.12395 0.59552 0.13441 0.0
O18 O 0.1301 0.60071 0.16706 0.0
C19 C 0.99729 0.52339 0.15052 0.0
Tb20 Tb 0.50399 0.00626 0.50242 0.0
C21 C 0.55949 0.047 0.46643 0.0
Tb22 Tb 0.59818 0.06318 0.51226 0.0
O23 O 0.4934 0.06106 0.49388 0.0
O24 O 0.54205 0.07108 0.51501 0.0
O25 O 0.52528 0.01345 0.47122 0.0
C26 C 0.67623 0.12707 0.51412 0.0
O27 O 0.58831 0.07392 0.4806 0.0
C28 C 0.57656 0.97964 0.5102 0.0
C29 C 0.54123 0.02595 0.5486 0.0
O30 O 0.65934 0.09648 0.49909 0.0
O31 O 0.64944 0.12129 0.52847 0.0
O32 O 0.61038 0.00899 0.51999 0.0
O33 O 0.56036 0.99814 0.49972 0.0
O34 O 0.57603 0.0585 0.54345 0.0
O35 O 0.51236 0.99818 0.53465 0.0
C36 C 0.42601 0.94259 0.498 0.0
O37 O 0.45814 0.94269 0.48835 0.0
O38 O 0.4375 0.97869 0.50991 0.0
C39 C 0.52647 0.08991 0.50444 0.0
Tb40 Tb 0.50025 0.55662 0.83044 0.0
C41 C 0.53683 0.56269 0.87472 0.0
Tb42 Tb 0.58738 0.56912 0.8337 0.0
O43 O 0.47775 0.49246 0.84091 0.0
O44 O 0.53075 0.51522 0.82303 0.0
O45 O 0.50667 0.566 0.86386 0.0
C46 C 0.66127 0.56664 0.83747 0.0
O47 O 0.57011 0.56071 0.86594 0.0
C48 C 0.58059 0.64277 0.83276 0.0
C49 C 0.55142 0.56603 0.79089 0.0
O50 O 0.62831 0.54393 0.84722 0.0
O51 O 0.65248 0.59033 0.82591 0.0
O52 O 0.61229 0.63616 0.82657 0.0
O53 O 0.55691 0.61049 0.84158 0.0
O54 O 0.57411 0.5508 0.80062 0.0
O55 O 0.52483 0.57757 0.8009 0.0
C56 C 0.43072 0.56252 0.81916 0.0
O57 O 0.44035 0.53121 0.81265 0.0
O58 O 0.45908 0.58926 0.83278 0.0
C59 C 0.50815 0.48479 0.83328 0.0
C60 C 0.56698 0.08776 0.30442 0.0
C61 C 0.55811 0.05274 0.31604 0.0
C62 C 0.56286 0.08104 0.2829 0.0
C63 C 0.54968 0.03915 0.27253 0.0
C64 C 0.53994 1.00399 0.28416 0.0
C65 C 0.54413 0.01072 0.30569 0.0
C66 C 0.5475 0.03232 0.24966 0.0
C67 C 0.57994 0.06062 0.23849 0.0
C68 C 0.57909 0.0534 0.21691 0.0
C69 C 0.54523 0.01794 0.20638 0.0
C70 C 0.51229 0.98968 0.21729 0.0
C71 C 0.51371 0.99693 0.23893 0.0
C72 C 0.47644 0.95248 0.2061 0.0
C73 C 0.45666 0.95802 0.18863 0.0
C74 C 0.46147 0.91128 0.21301 0.0
C75 C 0.42691 0.87641 0.20287 0.0
C76 C 0.40635 0.88207 0.18571 0.0
C77 C 0.61445 0.08222 0.20549 0.0
C78 C 0.62864 0.12732 0.20894 0.0
C79 C 0.63524 0.06486 0.19173 0.0
C80 C 0.6707 0.09231 0.18213 0.0
C81 C 0.68567 0.13762 0.18593 0.0
C82 C 0.66365 0.15475 0.19912 0.0
C83 C 0.42187 0.92314 0.17854 0.0
H84 H 0.5771 0.12042 0.31195 0.0
H85 H 0.56997 0.10867 0.27436 0.0
H86 H 0.53023 0.97141 0.2766 0.0
H87 H 0.53758 0.98314 0.31418 0.0
H88 H 0.60673 0.08745 0.24662 0.0
H89 H 0.48807 0.97544 0.24739 0.0
H90 H 0.54469 0.01224 0.18971 0.0
H91 H 0.46744 0.98958 0.18309 0.0
H92 H 0.47663 0.90598 0.22622 0.0
H93 H 0.41626 0.84495 0.20851 0.0
H94 H 0.61269 0.14134 0.21931 0.0
H95 H 0.62494 0.03009 0.18898 0.0
H96 H 0.40644 0.92863 0.1655 0.0
H97 H 0.67366 0.18943 0.20201 0.0
H98 H 0.68714 0.07799 0.1723 0.0
C99 C 0.52621 0.56774 0.62868 0.0
C100 C 0.554 0.55819 0.64043 0.0
C101 C 0.52497 0.56181 0.60719 0.0
C102 C 0.55122 0.54585 0.59694 0.0
C103 C 0.57771 0.53446 0.60862 0.0
C104 C 0.57916 0.54066 0.63019 0.0
C105 C 0.55242 0.54325 0.57416 0.0
C106 C 0.55572 0.57857 0.56399 0.0
C107 C 0.55847 0.57752 0.54246 0.0
C108 C 0.55729 0.54002 0.53098 0.0
C109 C 0.55336 0.50415 0.54103 0.0
C110 C 0.55115 0.50612 0.56259 0.0
C111 C 0.55281 0.46462 0.52952 0.0
C112 C 0.52042 0.42389 0.53227 0.0
C113 C 0.58712 0.46681 0.51799 0.0
C114 C 0.59035 0.42874 0.51056 0.0
C115 C 0.55901 0.38799 0.51431 0.0
C116 C 0.56185 0.61576 0.53238 0.0
C117 C 0.53623 0.61087 0.51489 0.0
C118 C 0.5881 0.65782 0.54148 0.0
C119 C 0.58687 0.69404 0.53413 0.0
C120 C 0.55963 0.68926 0.51731 0.0
C121 C 0.53512 0.64727 0.50743 0.0
C122 C 0.52334 0.38592 0.52463 0.0
H123 H 0.50563 0.58025 0.63611 0.0
H124 H 0.50371 0.5701 0.59855 0.0
H125 H 0.59846 0.52232 0.60107 0.0
H126 H 0.60106 0.53322 0.63879 0.0
H127 H 0.55636 0.60719 0.57295 0.0
H128 H 0.54863 0.47869 0.57038 0.0
H129 H 0.55951 0.53873 0.51437 0.0
H130 H 0.49368 0.42152 0.54113 0.0
H131 H 0.61257 0.49793 0.5158 0.0
H132 H 0.61806 0.43119 0.50255 0.0
H133 H 0.51562 0.57886 0.50756 0.0
H134 H 0.60869 0.66269 0.5548 0.0
H135 H 0.4989 0.35504 0.52793 0.0
H136 H 0.51428 0.64244 0.49423 0.0
H137 H 0.60591 0.72566 0.54232 0.0
C138 C 0.12629 0.50368 0.95605 0.0
C139 C 0.09023 0.47044 0.96297 0.0
C140 C 0.12414 0.52094 0.9378 0.0
C141 C 0.08592 0.50512 0.9262 0.0
C142 C 0.05105 0.46921 0.93208 0.0
C143 C 0.05313 0.45209 0.95031 0.0
C144 C 0.08083 0.52904 0.90957 0.0
C145 C 0.11116 0.54407 0.89477 0.0
C146 C 0.1062 0.56766 0.87936 0.0
C147 C 0.07119 0.57678 0.87914 0.0
C148 C 0.04088 0.56205 0.89387 0.0
C149 C 0.0457 0.53817 0.90899 0.0
C150 C 1.00298 0.56956 0.8925 0.0
C151 C 1.00651 0.61079 0.88939 0.0
C152 C 0.96307 0.53451 0.89211 0.0
C153 C 0.92734 0.53994 0.88714 0.0
C154 C 0.93112 0.58056 0.8826 0.0
C155 C 0.13679 0.58168 0.8631 0.0
C156 C 0.17995 0.60022 0.86828 0.0
C157 C 0.12297 0.57532 0.84226 0.0
C158 C 0.1519 0.5853 0.82677 0.0
C159 C 0.19507 0.60191 0.83191 0.0
C160 C 0.2088 0.6102 0.85287 0.0
C161 C 0.97079 0.6163 0.88455 0.0
H162 H 0.1555 0.518 0.96534 0.0
H163 H 0.15155 0.54852 0.93356 0.0
H164 H 0.02142 0.45588 0.92316 0.0
H165 H 0.02469 0.42665 0.95519 0.0
H166 H 0.13794 0.5364 0.89492 0.0
H167 H 0.02239 0.52742 0.92055 0.0
H168 H 0.06716 0.5948 0.86723 0.0
H169 H 0.03704 0.63837 0.88995 0.0
H170 H 0.95973 0.50236 0.89435 0.0
H171 H 0.89718 0.51177 0.88558 0.0
H172 H 0.1914 0.60598 0.88424 0.0
H173 H 0.08972 0.56089 0.83787 0.0
H174 H 0.97439 0.64813 0.88154 0.0
H175 H 0.24177 0.62204 0.85741 0.0
H176 H 0.14048 0.57845 0.81078 0.0
C177 C 0.01967 0.48657 0.35351 0.0
C178 C 0.0592 0.49925 0.34486 0.0
C179 C 1.01598 0.48458 0.37482 0.0
C180 C 0.05177 0.49521 0.38775 0.0
C181 C 0.09066 0.50502 0.37885 0.0
C182 C 0.09433 0.50706 0.35767 0.0
C183 C 0.04998 0.50042 0.41053 0.0
C184 C 0.01881 0.46902 0.42101 0.0
C185 C 0.01807 0.47459 0.44271 0.0
C186 C 0.0493 0.51218 0.45379 0.0
C187 C 0.08072 0.54385 0.44344 0.0
C188 C 0.08017 0.53781 0.42183 0.0
C189 C 0.11425 0.58365 0.45478 0.0
C190 C 0.10547 0.60603 0.47196 0.0
C191 C 0.15518 0.60098 0.44757 0.0
C192 C 0.18573 0.64085 0.45638 0.0
C193 C 0.17677 0.66419 0.47312 0.0
C194 C 0.98492 0.44102 0.45375 0.0
C195 C 0.9434 0.41936 0.44532 0.0
C196 C 0.99448 0.43015 0.47273 0.0
C197 C 0.96332 0.39844 0.48298 0.0
C198 C 0.92204 0.37655 0.47437 0.0
C199 C 0.9124 0.38737 0.45546 0.0
C200 C 0.13645 0.64572 0.48111 0.0
H201 H 0.99208 0.48039 0.34397 0.0
H202 H 0.98565 0.47701 0.3813 0.0
H203 H 0.11861 0.5125 0.38841 0.0
H204 H 0.12501 0.51592 0.35137 0.0
H205 H 0.99585 0.43982 0.41226 0.0
H206 H 0.10304 0.56285 0.41359 0.0
H207 H 0.04917 0.51681 0.47045 0.0
H208 H 0.0743 0.59372 0.47793 0.0
H209 H 0.16351 0.5842 0.4347 0.0
H210 H 0.21594 0.65387 0.44945 0.0
H211 H 0.93464 0.42741 0.43096 0.0
H212 H 0.02622 0.44557 0.47954 0.0
H213 H 0.1285 0.66216 0.49424 0.0
H214 H 0.88068 0.37145 0.44861 0.0
H215 H 0.97173 0.39041 0.49744 0.0
C216 C 0.51269 0.99802 0.71149 0.0
C217 C 0.53367 0.03282 0.69982 0.0
C218 C 0.51701 1.00404 0.73298 0.0
C219 C 0.54298 0.04491 0.74345 0.0
C220 C 0.56477 0.07957 0.73178 0.0
C221 C 0.56007 0.07363 0.71022 0.0
C222 C 0.54627 0.05121 0.76643 0.0
C223 C 0.54605 0.01826 0.7776 0.0
C224 C 0.54569 0.02187 0.79927 0.0
C225 C 0.54705 0.06041 0.80993 0.0
C226 C 0.54867 0.09451 0.79892 0.0
C227 C 0.548 0.08935 0.77727 0.0
C228 C 0.5494 0.13537 0.8094 0.0
C229 C 0.5167 0.1345 0.82184 0.0
C230 C 0.58005 0.17571 0.80473 0.0
C231 C 0.57738 0.21428 0.81181 0.0
C232 C 0.54355 0.21355 0.82348 0.0
C233 C 0.54492 0.98512 0.81011 0.0
C234 C 0.52045 0.94194 0.80163 0.0
C235 C 0.57176 0.99249 0.82746 0.0
C236 C 0.57624 0.95782 0.83514 0.0
C237 C 0.5542 0.91492 0.82559 0.0
C238 C 0.52521 0.90744 0.80914 0.0
C239 C 0.51361 0.17304 0.82868 0.0
H240 H 0.49271 0.96592 0.70404 0.0
H241 H 0.49924 0.97668 0.74139 0.0
H242 H 0.58547 0.11136 0.73929 0.0
H243 H 0.57647 0.10128 0.70177 0.0
H244 H 0.54677 0.98965 0.76931 0.0
H245 H 0.54732 0.11472 0.76883 0.0
H246 H 0.54684 0.06392 0.82662 0.0
H247 H 0.49228 0.10381 0.82538 0.0
H248 H 0.60566 0.1773 0.79516 0.0
H249 H 0.60167 0.24461 0.80787 0.0
H250 H 0.49872 0.93487 0.78853 0.0
H251 H 0.59096 0.02523 0.83444 0.0
H252 H 0.48669 0.17069 0.83734 0.0
H253 H 0.50767 0.87519 0.80124 0.0
H254 H 0.59807 0.96492 0.84819 0.0
C255 C 0.56053 0.50243 0.02821 0.0
C256 C 0.54868 0.53498 0.02358 0.0
C257 C 0.56369 0.49467 0.04873 0.0
C258 C 0.55492 0.51921 0.065 0.0
C259 C 0.54498 0.55297 0.06039 0.0
C260 C 0.54202 0.56082 0.03999 0.0
C261 C 0.5538 0.50852 0.08663 0.0
C262 C 0.58646 0.50183 0.09549 0.0
C263 C 0.58627 0.49277 0.11621 0.0
C264 C 0.55157 0.49113 0.12814 0.0
C265 C 0.5183 0.49812 0.11924 0.0
C266 C 0.52004 0.50615 0.09852 0.0
C267 C 0.48196 0.50022 0.13069 0.0
C268 C 0.44829 0.46284 0.13646 0.0
C269 C 0.47629 0.53846 0.13132 0.0
C270 C 0.43801 0.53916 0.13667 0.0
C271 C 0.40349 0.50167 0.14189 0.0
C272 C 0.62391 0.48769 0.1248 0.0
C273 C 0.64649 0.47048 0.11183 0.0
C274 C 0.64027 0.50336 0.14521 0.0
C275 C 0.67875 0.5041 0.15193 0.0
C276 C 0.70299 0.48992 0.13844 0.0
C277 C 0.68527 0.47206 0.11838 0.0
C278 C 0.40971 0.46358 0.14206 0.0
H279 H 0.56571 0.48181 0.01596 0.0
H280 H 0.57135 0.46839 0.05182 0.0
H281 H 0.53895 0.57306 0.07261 0.0
H282 H 0.53393 0.58689 0.03705 0.0
H283 H 0.61307 0.50559 0.08626 0.0
H284 H 0.49461 0.51093 0.09154 0.0
H285 H 0.55062 0.48504 0.14414 0.0
H286 H 0.45101 0.4325 0.13565 0.0
H287 H 0.50099 0.56759 0.12645 0.0
H288 H 0.4352 0.56907 0.13568 0.0
H289 H 0.63478 0.45655 0.09619 0.0
H290 H 0.62423 0.51666 0.15587 0.0
H291 H 0.38454 0.43397 0.14614 0.0
H292 H 0.70189 0.46053 0.10726 0.0
H293 H 0.68962 0.5166 0.16778 0.0
H294 H 0.14921 0.41324 0.14301 0.0
H295 H 0.1701 0.54523 0.16324 0.0
H296 H 0.24711 0.56837 0.16367 0.0
H297 H 0.23627 0.41241 0.17191 0.0
H298 H 0.24938 0.38137 0.1516 0.0
H299 H 0.19601 0.37483 0.15339 0.0
H300 H 0.19583 0.39308 0.11583 0.0
H301 H 0.24909 0.39936 0.11387 0.0
H302 H 0.23623 0.44294 0.10858 0.0
H303 H 0.32249 0.57624 0.16356 0.0
H304 H 0.38932 0.57105 0.15917 0.0
H305 H 0.32097 0.43501 0.13553 0.0
C306 C 0.17004 0.44703 0.14755 0.0
C307 C 0.1534 0.47743 0.15326 0.0
C308 C 0.18186 0.52137 0.15883 0.0
C309 C 0.22576 0.53474 0.15919 0.0
C310 C 0.24114 0.50397 0.15361 0.0
C311 C 0.21411 0.46111 0.14757 0.0
C312 C 0.2389 0.43499 0.14142 0.0
C313 C 0.22958 0.39875 0.15541 0.0
C314 C 0.22945 0.4165 0.11857 0.0
C315 C 0.28411 0.46967 0.14513 0.0
C316 C 0.28454 0.50907 0.15238 0.0
C317 C 0.32234 0.54567 0.15749 0.0
C318 C 0.36051 0.54235 0.15472 0.0
C319 C 0.36155 0.50287 0.14644 0.0
C320 C 0.32221 0.46587 0.1419 0.0
H321 H 0.72399 0.15006 0.48087 0.0
H322 H 0.7183 0.19136 0.54535 0.0
H323 H 0.78335 0.25872 0.54283 0.0
H324 H 0.83826 0.19457 0.47889 0.0
H325 H 0.83817 0.2108 0.45344 0.0
H326 H 0.79371 0.16451 0.46104 0.0
H327 H 0.74437 0.1992 0.4519 0.0
H328 H 0.78864 0.2457 0.4444 0.0
H329 H 0.75494 0.25282 0.4637 0.0
H330 H 0.84776 0.32287 0.53258 0.0
H331 H 0.90436 0.37943 0.51529 0.0
H332 H 0.8653 0.29635 0.45729 0.0
C333 C 0.7369 0.17291 0.49457 0.0
C334 C 0.71664 0.16546 0.51339 0.0
C335 C 0.73376 0.19646 0.53086 0.0
C336 C 0.7706 0.2347 0.52955 0.0
C337 C 0.78956 0.24138 0.51063 0.0
C338 C 0.77318 0.21132 0.49345 0.0
C339 C 0.79775 0.22722 0.4746 0.0
C340 C 0.81819 0.1975 0.46652 0.0
C341 C 0.76975 0.23149 0.45766 0.0
C342 C 0.83041 0.27115 0.48377 0.0
C343 C 0.82552 0.27862 0.50461 0.0
C344 C 0.85195 0.31726 0.51629 0.0
C345 C 0.88404 0.34911 0.50637 0.0
C346 C 0.88907 0.34226 0.48496 0.0
C347 C 0.86194 0.30264 0.47363 0.0
H348 H 0.51586 0.66731 0.82945 0.0
H349 H 0.6501 0.71787 0.84265 0.0
H350 H 0.65637 0.79256 0.84543 0.0
H351 H 0.52334 0.74529 0.79715 0.0
H352 H 0.47704 0.75143 0.80487 0.0
H353 H 0.47999 0.70083 0.80682 0.0
H354 H 0.46667 0.70422 0.84581 0.0
H355 H 0.4609 0.75341 0.84387 0.0
H356 H 0.49825 0.75265 0.86256 0.0
H357 H 0.64964 0.8614 0.84425 0.0
H358 H 0.63102 0.92047 0.83791 0.0
H359 H 0.50056 0.827 0.82544 0.0
C360 C 0.54623 0.6941 0.83354 0.0
C361 C 0.58238 0.68681 0.83624 0.0
C362 C 0.62197 0.72275 0.84071 0.0
C363 C 0.62584 0.7653 0.84239 0.0
C364 C 0.58983 0.77158 0.83938 0.0
C365 C 0.55074 0.73708 0.83501 0.0
C366 C 0.51788 0.75322 0.83065 0.0
C367 C 0.49841 0.73669 0.80857 0.0
C368 C 0.48391 0.7401 0.84668 0.0
C369 C 0.54477 0.80203 0.83306 0.0
C370 C 0.58606 0.81176 0.83829 0.0
C371 C 0.61726 0.85427 0.84047 0.0
C372 C 0.60619 0.8878 0.83699 0.0
C373 C 0.56415 0.87896 0.83136 0.0
C374 C 0.53303 0.83525 0.82965 0.0
H375 H 0.9211 0.46117 0.13049 0.0
H376 H 0.97279 0.56908 0.17865 0.0
H377 H 0.9032 0.56876 0.18214 0.0
H378 H 0.85461 0.49724 0.10622 0.0
H379 H 0.81079 0.44487 0.10008 0.0
H380 H 0.86327 0.44897 0.10278 0.0
H381 H 0.83971 0.39546 0.13053 0.0
H382 H 0.78697 0.39077 0.12774 0.0
H383 H 0.81417 0.40658 0.15277 0.0
H384 H 0.83097 0.56366 0.17791 0.0
H385 H 0.75956 0.55132 0.16784 0.0
H386 H 0.7493 0.44386 0.1232 0.0
C387 C 0.91727 0.48357 0.14226 0.0
C388 C 0.95262 0.51469 0.15463 0.0
C389 C 0.94639 0.54457 0.16924 0.0
C390 C 0.90683 0.54477 0.17129 0.0
C391 C 0.87301 0.51487 0.15858 0.0
C392 C 0.87742 0.48437 0.14449 0.0
C393 C 0.83585 0.45765 0.13204 0.0
C394 C 0.84148 0.46248 0.10891 0.0
C395 C 0.81812 0.40977 0.13601 0.0
C396 C 0.80811 0.47873 0.14099 0.0
C397 C 0.83041 0.51151 0.15633 0.0
C398 C 0.81287 0.53734 0.16622 0.0
C399 C 0.77157 0.52963 0.16043 0.0
C400 C 0.74703 0.49588 0.14487 0.0
C401 C 0.76621 0.47006 0.13512 0.0
H402 H 0.4071 0.85804 0.48604 0.0
H403 H 0.35137 0.94402 0.50802 0.0
H404 H 0.2811 0.88126 0.50606 0.0
H405 H 0.32486 0.78706 0.4505 0.0
H406 H 0.32912 0.73876 0.45622 0.0
H407 H 0.37455 0.79038 0.45967 0.0
H408 H 0.38432 0.77958 0.49776 0.0
H409 H 0.33881 0.72789 0.49446 0.0
H410 H 0.34135 0.76889 0.51466 0.0
H411 H 0.21654 0.80946 0.49895 0.0
H412 H 0.16338 0.73472 0.48877 0.0
H413 H 0.26323 0.69505 0.47538 0.0
C414 C 0.38003 0.86358 0.49039 0.0
C415 C 0.38422 0.90566 0.49694 0.0
C416 C 0.34847 0.91185 0.50287 0.0
C417 C 0.30859 0.87647 0.50184 0.0
C418 C 0.30543 0.83521 0.49529 0.0
C419 C 0.34032 0.82861 0.48992 0.0
C420 C 0.32868 0.78115 0.48357 0.0
C421 C 0.33996 0.77394 0.46116 0.0
C422 C 0.34953 0.76334 0.49851 0.0
C423 C 0.28158 0.76215 0.48562 0.0
C424 C 0.26871 0.79377 0.49235 0.0
C425 C 0.22632 0.78427 0.49404 0.0
C426 C 0.19629 0.74147 0.48837 0.0
C427 C 0.20875 0.70847 0.48126 0.0
C428 C 0.2522 0.71921 0.48043 0.0
H429 H 0.54804 0.44553 0.80827 0.0
H430 H 0.48063 0.4348 0.86457 0.0
H431 H 0.48651 0.36713 0.86936 0.0
H432 H 0.49773 0.33283 0.79044 0.0
H433 H 0.54367 0.3307 0.77931 0.0
H434 H 0.53795 0.38055 0.78129 0.0
H435 H 0.60989 0.42036 0.80161 0.0
H436 H 0.61582 0.37055 0.79972 0.0
H437 H 0.61891 0.3999 0.82465 0.0
H438 H 0.49805 0.29976 0.86775 0.0
H439 H 0.51059 0.23506 0.85885 0.0
H440 H 0.56536 0.28556 0.80198 0.0
C441 C 0.5351 0.42915 0.82172 0.0
C442 C 0.51409 0.44546 0.83614 0.0
C443 C 0.49683 0.4228 0.85336 0.0
C444 C 0.50016 0.38443 0.85625 0.0
C445 C 0.52047 0.36873 0.84166 0.0
C446 C 0.53743 0.39014 0.82465 0.0
C447 C 0.55502 0.36454 0.8106 0.0
C448 C 0.53222 0.35137 0.78914 0.0
C449 C 0.60275 0.39038 0.80906 0.0
C450 C 0.54485 0.32529 0.82226 0.0
C451 C 0.5255 0.32875 0.84028 0.0
C452 C 0.51298 0.29657 0.8536 0.0
C453 C 0.51992 0.2596 0.84827 0.0
C454 C 0.53868 0.25446 0.82958 0.0
C455 C 0.55152 0.28827 0.81654 0.0
H456 H 0.63 0.94222 0.51449 0.0
H457 H 0.49921 0.9115 0.50201 0.0
H458 H 0.48126 0.83333 0.49878 0.0
H459 H 0.63275 0.85208 0.48018 0.0
H460 H 0.66709 0.84344 0.49781 0.0
H461 H 0.66982 0.89695 0.49728 0.0
H462 H 0.65748 0.9012 0.53646 0.0
H463 H 0.65478 0.84782 0.53712 0.0
H464 H 0.61189 0.8592 0.54612 0.0
H465 H 0.47728 0.75857 0.49964 0.0
H466 H 0.48678 0.69335 0.50539 0.0
H467 H 0.62102 0.77271 0.51655 0.0
C468 C 0.59767 0.91898 0.5108 0.0
C469 C 0.56591 0.93284 0.50782 0.0
C470 C 0.52401 0.90159 0.50339 0.0
C471 C 0.5136 0.85708 0.50176 0.0
C472 C 0.54569 0.84443 0.50459 0.0
C473 C 0.58691 0.87448 0.50901 0.0
C474 C 0.61515 0.85247 0.51243 0.0
C475 C 0.64815 0.86179 0.49594 0.0
C476 C 0.63603 0.86597 0.53433 0.0
C477 C 0.58321 0.80538 0.50975 0.0
C478 C 0.54338 0.80138 0.50508 0.0
C479 C 0.50843 0.76122 0.50298 0.0
C480 C 0.51422 0.72426 0.50613 0.0
C481 C 0.5547 0.72766 0.51134 0.0
C482 C 0.58962 0.76884 0.51271 0.0
H483 H 0.68994 0.5323 0.86666 0.0
H484 H 0.72729 0.60744 0.81438 0.0
H485 H 0.80046 0.61881 0.82036 0.0
H486 H 0.78016 0.59789 0.89885 0.0
H487 H 0.78407 0.55368 0.91 0.0
H488 H 0.73364 0.54832 0.90088 0.0
H489 H 0.72249 0.47886 0.87703 0.0
H490 H 0.77268 0.48368 0.88626 0.0
H491 H 0.76179 0.48073 0.85899 0.0
H492 H 0.86908 0.62544 0.8327 0.0
H493 H 0.93036 0.62321 0.84971 0.0
H494 H 0.84965 0.54534 0.89467 0.0
C495 C 0.71351 0.55047 0.85633 0.0
C496 C 0.70335 0.56899 0.84008 0.0
C497 C 0.73474 0.59304 0.82692 0.0
C498 C 0.77629 0.59971 0.83019 0.0
C499 C 0.78567 0.58204 0.84665 0.0
C500 C 0.7553 0.55761 0.85942 0.0
C501 C 0.77434 0.54347 0.87634 0.0
C502 C 0.76765 0.56196 0.89778 0.0
C503 C 0.75678 0.49373 0.87454 0.0
C504 C 0.82012 0.56422 0.87115 0.0
C505 C 0.82582 0.58625 0.85396 0.0
C506 C 0.86519 0.60832 0.84619 0.0
C507 C 0.8998 0.60727 0.8561 0.0
C508 C 0.8947 0.58443 0.8736 0.0
C509 C 0.85436 0.56291 0.88128 0.0
H510 H 0.19089 0.67043 0.18468 0.0
H511 H 0.18567 0.66117 0.11784 0.0
H512 H 0.25154 0.72929 0.11919 0.0
H513 H 0.23128 0.78733 0.19405 0.0
H514 H 0.26394 0.79094 0.21612 0.0
H515 H 0.21579 0.7428 0.20957 0.0
H516 H 0.25724 0.69594 0.2082 0.0
H517 H 0.30554 0.74392 0.21462 0.0
H518 H 0.30079 0.70818 0.19157 0.0
H519 H 0.31984 0.79717 0.12831 0.0
H520 H 0.38399 0.85894 0.14427 0.0
H521 H 0.34183 0.82269 0.205 0.0
C522 C 0.2034 0.68293 0.17032 0.0
C523 C 0.18343 0.66089 0.15116 0.0
C524 C 0.20068 0.67792 0.13267 0.0
C525 C 0.23796 0.71645 0.1333 0.0
C526 C 0.25717 0.73728 0.15254 0.0
C527 C 0.24028 0.72111 0.17069 0.0
C528 C 0.26719 0.74873 0.18938 0.0
C529 C 0.24311 0.76864 0.20308 0.0
C530 C 0.28367 0.72263 0.20166 0.0
C531 C 0.3022 0.78287 0.17896 0.0
C532 C 0.29597 0.77593 0.15773 0.0
C533 C 0.32487 0.80306 0.14493 0.0
C534 C 0.36108 0.83811 0.15412 0.0
C535 C 0.36798 0.84551 0.17587 0.0
C536 C 0.33785 0.81757 0.18833 0.0
H537 H 0.4832 0.13303 0.49121 0.0
H538 H 0.6022 0.15333 0.5196 0.0
H539 H 0.62692 0.23261 0.52102 0.0
H540 H 0.52274 0.227 0.46131 0.0
H541 H 0.47838 0.23892 0.46642 0.0
H542 H 0.47212 0.1838 0.46519 0.0
H543 H 0.44277 0.17773 0.50176 0.0
H544 H 0.44872 0.23265 0.50304 0.0
H545 H 0.47333 0.21698 0.52287 0.0
H546 H 0.63709 0.30932 0.52098 0.0
H547 H 0.62958 0.37781 0.52311 0.0
H548 H 0.50227 0.30789 0.49646 0.0
C549 C 0.51469 0.15425 0.49742 0.0
C550 C 0.54125 0.13722 0.50504 0.0
C551 C 0.58177 0.16582 0.51351 0.0
C552 C 0.59604 0.21087 0.51429 0.0
C553 C 0.56906 0.22672 0.50673 0.0
C554 C 0.52903 0.19931 0.49868 0.0
C555 C 0.50479 0.22462 0.49352 0.0
C556 C 0.49388 0.2182 0.47022 0.0
C557 C 0.46507 0.21226 0.50605 0.0
C558 C 0.53713 0.27048 0.50033 0.0
C559 C 0.57429 0.27101 0.50748 0.0
C560 C 0.6083 0.30939 0.51526 0.0
C561 C 0.60384 0.34816 0.51628 0.0
C562 C 0.56545 0.34814 0.50983 0.0
C563 C 0.53201 0.30883 0.50141 0.0
H564 H 0.41713 0.63408 0.82684 0.0
H565 H 0.36565 0.50579 0.79311 0.0
H566 H 0.30341 0.51516 0.78198 0.0
H567 H 0.33245 0.62712 0.84882 0.0
H568 H 0.33905 0.68186 0.84743 0.0
H569 H 0.384 0.67055 0.84682 0.0
H570 H 0.40332 0.7044 0.81245 0.0
H571 H 0.35737 0.7148 0.81257 0.0
H572 H 0.36604 0.68381 0.79063 0.0
H573 H 0.24118 0.52868 0.78314 0.0
H574 H 0.18416 0.54132 0.79925 0.0
H575 H 0.27484 0.66426 0.82986 0.0
C576 C 0.39321 0.60862 0.81659 0.0
C577 C 0.3956 0.56919 0.81092 0.0
C578 C 0.36403 0.53624 0.79763 0.0
C579 C 0.32894 0.54158 0.791 0.0
C580 C 0.32656 0.58043 0.79747 0.0
C581 C 0.35822 0.61368 0.80981 0.0
C582 C 0.34502 0.64858 0.81784 0.0
C583 C 0.35039 0.65743 0.84161 0.0
C584 C 0.36937 0.69036 0.80775 0.0
C585 C 0.29928 0.62718 0.81031 0.0
C586 C 0.28976 0.5889 0.7977 0.0
C587 C 0.24832 0.55921 0.79235 0.0
C588 C 0.21593 0.56678 0.80153 0.0
C589 C 0.22539 0.60363 0.81598 0.0
C590 C 0.26711 0.63592 0.81883 0.0
H591 H 0.90312 0.34776 0.18648 0.0
H592 H 0.92092 0.29905 0.12508 0.0
H593 H 0.85302 0.23405 0.12599 0.0
H594 H 0.85694 0.24379 0.20664 0.0
H595 H 0.82128 0.25755 0.22218 0.0
H596 H 0.87122 0.2995 0.21645 0.0
H597 H 0.83297 0.34074 0.20124 0.0
H598 H 0.78286 0.29875 0.20671 0.0
H599 H 0.793 0.31344 0.18081 0.0
H600 H 0.7815 0.17609 0.13339 0.0
H601 H 0.71433 0.12784 0.14731 0.0
H602 H 0.74686 0.21389 0.20456 0.0
C603 C 0.89279 0.32329 0.17327 0.0
C604 C 0.9169 0.32814 0.1557 0.0
C605 C 0.90269 0.29559 0.1387 0.0
C606 C 0.86423 0.25876 0.13907 0.0
C607 C 0.8409 0.2551 0.15662 0.0
C608 C 0.85491 0.28633 0.17348 0.0
C609 C 0.82437 0.27476 0.19055 0.0
C610 C 0.84466 0.26852 0.21011 0.0
C611 C 0.80729 0.30895 0.19508 0.0
C612 C 0.79068 0.23228 0.18062 0.0
C613 C 0.80058 0.22149 0.16104 0.0
C614 C 0.77361 0.184 0.14879 0.0
C615 C 0.73564 0.15671 0.15688 0.0
C616 C 0.72519 0.16699 0.17705 0.0
C617 C 0.75335 0.20532 0.18897 0.0
H618 H 0.09859 0.53228 0.08327 0.0
H619 H 1.0131 0.39763 0.08794 0.0
H620 H 0.02087 0.37933 0.05109 0.0
H621 H 0.05938 0.53714 0.03428 0.0
H622 H 0.11002 0.57274 0.02578 0.0
H623 H 0.10008 0.57392 0.05282 0.0
H624 H 0.16501 0.55948 0.06009 0.0
H625 H 0.17467 0.5575 0.03296 0.0
H626 H 0.16824 0.51241 0.04688 0.0
H627 H 0.0359 0.3763 0.01349 0.0
H628 H 0.05074 0.39038 0.97723 0.0
H629 H 0.12449 0.52723 0.99746 0.0
C630 C 0.08174 0.49886 0.07661 0.0
C631 C 0.05538 0.46637 0.08847 0.0
C632 C 0.03338 0.42313 0.0791 0.0
C633 C 0.0379 0.41231 0.05825 0.0
C634 C 0.06446 0.44512 0.04703 0.0
C635 C 0.08563 0.48759 0.05583 0.0
C636 C 0.10961 0.51738 0.04009 0.0
C637 C 0.0938 0.55233 0.03812 0.0
C638 C 0.15721 0.53789 0.04532 0.0
C639 C 0.09798 0.48515 0.02096 0.0
C640 C 0.07253 0.44352 0.02531 0.0
C641 C 0.05602 0.40872 0.00989 0.0
C642 C 0.06454 0.41702 0.98936 0.0
C643 C 0.0889 0.45985 0.98451 0.0
C644 C 0.10672 0.49397 0.00064 0.0
H645 H 0.50883 0.99954 0.43227 0.0
H646 H 0.62462 0.11416 0.4512 0.0
H647 H 0.63589 0.12868 0.41495 0.0
H648 H 0.54608 0.96594 0.38598 0.0
H649 H 0.49693 0.94763 0.37135 0.0
H650 H 0.49722 0.94659 0.39891 0.0
H651 H 0.45569 0.99332 0.4023 0.0
H652 H 0.45521 0.99447 0.37474 0.0
H653 H 0.4761 0.04455 0.39165 0.0
H654 H 0.63552 0.13031 0.37675 0.0
H655 H 0.62362 0.11847 0.33889 0.0
H656 H 0.50773 1.00354 0.34474 0.0
C657 C 0.5365 0.02777 0.42883 0.0
C658 C 0.56579 0.05568 0.44463 0.0
C659 C 0.60165 0.09223 0.43941 0.0
C660 C 0.60838 0.10084 0.41885 0.0
C661 C 0.57897 0.07265 0.40367 0.0
C662 C 0.54374 0.03688 0.40837 0.0
C663 C 0.51732 0.01147 0.38907 0.0
C664 C 0.51423 0.96517 0.38616 0.0
C665 C 0.47349 0.01094 0.38947 0.0
C666 C 0.54337 0.03844 0.3728 0.0
C667 C 0.57872 0.07364 0.38157 0.0
C668 C 0.60781 0.10302 0.36968 0.0
C669 C 0.60063 0.09616 0.34821 0.0
C670 C 0.56465 0.06021 0.33885 0.0
C671 C 0.53568 0.03112 0.35141 0.0
H672 H 0.56425 0.51545 0.75861 0.0
H673 H 0.55128 0.63475 0.77441 0.0
H674 H 0.55603 0.64799 0.73786 0.0
H675 H 0.63582 0.5524 0.71579 0.0
H676 H 0.61046 0.50095 0.70011 0.0
H677 H 0.61113 0.50299 0.72784 0.0
H678 H 0.52987 0.46152 0.7262 0.0
H679 H 0.52892 0.45949 0.6985 0.0
H680 H 0.49894 0.4828 0.71315 0.0
H681 H 0.55802 0.64691 0.70014 0.0
H682 H 0.55482 0.63038 0.66243 0.0
H683 H 0.56232 0.50953 0.66995 0.0
C684 C 0.56335 0.54473 0.75431 0.0
C685 C 0.55772 0.5743 0.7692 0.0
C686 C 0.55557 0.61176 0.76313 0.0
C687 C 0.55844 0.61967 0.74246 0.0
C688 C 0.56309 0.5896 0.72803 0.0
C689 C 0.56541 0.55278 0.73356 0.0
C690 C 0.5669 0.52411 0.71461 0.0
C691 C 0.60856 0.51988 0.71459 0.0
C692 C 0.52889 0.47934 0.71303 0.0
C693 C 0.56439 0.55034 0.69767 0.0
C694 C 0.56277 0.58821 0.70586 0.0
C695 C 0.55929 0.61737 0.69348 0.0
C696 C 0.55708 0.60746 0.67208 0.0
C697 C 0.55785 0.56845 0.66321 0.0
C698 C 0.56201 0.53977 0.67625 0.0
H699 H 0.59618 0.06591 0.58248 0.0
H700 H 0.4672 0.9744 0.56462 0.0
H701 H 0.45173 0.96678 0.60115 0.0
H702 H 0.60769 0.01087 0.62507 0.0
H703 H 0.63931 0.06043 0.64113 0.0
H704 H 0.64059 0.05898 0.61346 0.0
H705 H 0.62034 0.12334 0.61509 0.0
H706 H 0.61881 0.12486 0.64276 0.0
H707 H 0.57344 0.11911 0.62769 0.0
H708 H 0.44901 0.97069 0.63931 0.0
H709 H 0.46023 0.98298 0.67708 0.0
H710 H 0.59181 0.06898 0.67067 0.0
C711 C 0.56471 0.04425 0.58626 0.0
C712 C 0.53292 0.02083 0.57064 0.0
C713 C 0.49219 0.99262 0.57625 0.0
C714 C 0.48298 0.98811 0.59699 0.0
C715 C 0.51488 0.01176 0.61197 0.0
C716 C 0.55501 0.03901 0.60694 0.0
C717 C 0.58355 0.06019 0.62616 0.0
C718 C 0.61993 0.0468 0.62647 0.0
C719 C 0.59999 0.10982 0.62803 0.0
C720 C 0.55302 0.04079 0.64273 0.0
C721 C 0.51358 0.0131 0.63416 0.0
C722 C 0.47988 0.99189 0.64624 0.0
C723 C 0.4867 0.99887 0.66771 0.0
C724 C 0.52705 0.02653 0.67696 0.0
C725 C 0.56053 0.04785 0.66418 0.0
H726 H 0.58789 0.54897 0.90257 0.0
H727 H 0.47653 0.57231 0.89813 0.0
H728 H 0.4682 0.56793 0.9354 0.0
H729 H 0.54934 0.4718 0.9397 0.0
H730 H 0.59936 0.49071 0.95362 0.0
H731 H 0.5975 0.49646 0.92652 0.0
H732 H 0.64392 0.57911 0.93404 0.0
H733 H 0.64605 0.57365 0.96116 0.0
H734 H 0.62765 0.61101 0.95244 0.0
H735 H 0.47077 0.5601 0.97279 0.0
H736 H 0.48441 0.5498 0.0084 0.0
H737 H 0.5946 0.53222 0.98942 0.0
C738 C 0.56188 0.5534 0.90944 0.0
C739 C 0.53291 0.56109 0.89732 0.0
C740 C 0.49918 0.5664 0.90698 0.0
C741 C 0.49413 0.56397 0.92819 0.0
C742 C 0.52302 0.55617 0.93962 0.0
C743 C 0.55628 0.55099 0.93067 0.0
C744 C 0.58255 0.54254 0.94658 0.0
C745 C 0.58214 0.49771 0.94128 0.0
C746 C 0.62772 0.57874 0.94868 0.0
C747 C 0.55876 0.54376 0.96585 0.0
C748 C 0.52458 0.55171 0.96141 0.0
C749 C 0.49761 0.55416 0.97651 0.0
C750 C 0.50584 0.54854 0.99675 0.0
C751 C 0.54086 0.54067 0.00185 0.0
C752 C 0.5675 0.53803 0.98606 0.0
H753 H 1.01233 0.45141 0.22253 0.0
H754 H 0.12085 0.57414 0.21775 0.0
H755 H 0.13109 0.58609 0.25558 0.0
H756 H 0.97359 0.48734 0.26854 0.0
H757 H 0.95692 0.43647 0.27929 0.0
H758 H 0.95749 0.43746 0.25171 0.0
H759 H 1.00538 0.39749 0.24935 0.0
H760 H 1.00499 0.39635 0.2769 0.0
H761 H 0.05428 0.42005 0.26456 0.0
H762 H 0.13103 0.58435 0.29358 0.0
H763 H 0.11988 0.56955 0.32985 0.0
H764 H 1.01116 0.44834 0.31049 0.0
C765 C 0.03823 0.48085 0.22941 0.0
C766 C 0.0658 0.5118 0.21708 0.0
C767 C 0.09921 0.54993 0.22678 0.0
C768 C 0.10535 0.55706 0.24829 0.0
C769 C 0.07773 0.52589 0.25994 0.0
C770 C 0.04474 0.48862 0.2509 0.0
C771 C 0.0198 0.46027 0.26706 0.0
C772 C 0.97425 0.4551 0.26662 0.0
C773 C 0.02122 0.41592 0.2643 0.0
C774 C 0.0442 0.48734 0.28657 0.0
C775 C 0.07748 0.52503 0.28204 0.0
C776 C 0.10509 0.55497 0.29735 0.0
C777 C 0.09864 0.54613 0.31787 0.0
C778 C 0.06484 0.50767 0.32295 0.0
C779 C 0.03709 0.47809 0.30705 0.0
loop_
_geom_bond_atom_site_label_1
_geom_bond_atom_site_label_2
_geom_bond_distance
_geom_bond_site_symmetry_2
_ccdc_geom_bond_type
Tb0 O3 2.453 1_455 S
Tb0 O4 2.596 1_455 S
Tb0 O5 2.374 . S
Tb0 O13 2.343 . S
Tb0 O15 2.353 . S
Tb0 O17 2.427 . S
Tb0 O18 2.513 . S
C1 O5 1.251 . S
C1 O7 1.263 . S
Tb2 O4 2.343 1_455 S
Tb2 O7 2.353 . S
Tb2 O10 2.427 1_455 S
Tb2 O11 2.513 1_455 S
Tb2 O12 2.453 . S
Tb2 O13 2.596 . S
Tb2 O14 2.374 . S
O3 Tb0 2.453 1_655 S
O3 C19 1.245 . S
O4 Tb0 2.596 1_655 S
O4 Tb2 2.343 1_655 S
O4 C19 1.259 . S
O5 Tb0 2.374 . S
O5 C1 1.251 . S
C6 O10 1.275 . S
C6 O11 1.246 . S
O7 C1 1.263 . S
O7 Tb2 2.353 . S
C8 O12 1.245 . S
C8 O13 1.259 . S
C9 O14 1.250 . S
C9 O15 1.263 . S
O10 Tb2 2.427 1_655 S
O10 C6 1.275 . S
O11 Tb2 2.513 1_655 S
O11 C6 1.246 . S
O12 Tb2 2.453 . S
O12 C8 1.245 . S
O13 Tb0 2.343 . S
O13 Tb2 2.596 . S
O13 C8 1.259 . S
O14 Tb2 2.374 . S
O14 C9 1.250 . S
O15 Tb0 2.353 . S
O15 C9 1.263 . S
C16 O17 1.275 . S
C16 O18 1.246 . S
O17 Tb0 2.427 . S
O17 C16 1.275 . S
O18 Tb0 2.513 . S
O18 C16 1.246 . S
C19 O3 1.245 . S
C19 O4 1.259 . S
Tb20 O23 2.453 . S
Tb20 O24 2.596 . S
Tb20 O25 2.374 . S
Tb20 O33 2.343 1_545 S
Tb20 O35 2.353 . S
Tb20 O37 2.427 1_545 S
Tb20 O38 2.513 1_545 S
C21 O25 1.251 . S
C21 O27 1.263 . S
Tb22 O24 2.343 . S
Tb22 O27 2.353 . S
Tb22 O30 2.427 . S
Tb22 O31 2.513 . S
Tb22 O32 2.453 1_545 S
Tb22 O33 2.596 1_545 S
Tb22 O34 2.374 . S
O23 Tb20 2.453 . S
O23 C39 1.245 . S
O24 Tb20 2.596 . S
O24 Tb22 2.343 . S
O24 C39 1.259 . S
O25 Tb20 2.374 . S
O25 C21 1.251 . S
C26 O30 1.275 . S
C26 O31 1.246 . S
O27 C21 1.263 . S
O27 Tb22 2.353 . S
C28 O32 1.245 . S
C28 O33 1.259 . S
C29 O34 1.250 . S
C29 O35 1.263 . S
O30 Tb22 2.427 . S
O30 C26 1.275 . S
O31 Tb22 2.513 . S
O31 C26 1.246 . S
O32 Tb22 2.453 1_565 S
O32 C28 1.245 . S
O33 Tb20 2.343 1_565 S
O33 Tb22 2.596 1_565 S
O33 C28 1.259 . S
O34 Tb22 2.374 . S
O34 C29 1.250 . S
O35 Tb20 2.353 . S
O35 C29 1.263 . S
C36 O37 1.275 . S
C36 O38 1.246 . S
O37 Tb20 2.427 1_565 S
O37 C36 1.275 . S
O38 Tb20 2.513 1_565 S
O38 C36 1.246 . S
C39 O23 1.245 . S
C39 O24 1.259 . S
Tb40 O43 2.453 . S
Tb40 O44 2.596 . S
Tb40 O45 2.374 . S
Tb40 O53 2.343 . S
Tb40 O55 2.353 . S
Tb40 O57 2.427 . S
Tb40 O58 2.513 . S
C41 O45 1.251 . S
C41 O47 1.263 . S
Tb42 O44 2.343 . S
Tb42 O47 2.353 . S
Tb42 O50 2.427 . S
Tb42 O51 2.513 . S
Tb42 O52 2.453 . S
Tb42 O53 2.596 . S
Tb42 O54 2.374 . S
O43 Tb40 2.453 . S
O43 C59 1.245 . S
O44 Tb40 2.596 . S
O44 Tb42 2.343 . S
O44 C59 1.259 . S
O45 Tb40 2.374 . S
O45 C41 1.251 . S
C46 O50 1.275 . S
C46 O51 1.246 . S
O47 C41 1.263 . S
O47 Tb42 2.353 . S
C48 O52 1.245 . S
C48 O53 1.259 . S
C49 O54 1.250 . S
C49 O55 1.263 . S
O50 Tb42 2.427 . S
O50 C46 1.275 . S
O51 Tb42 2.513 . S
O51 C46 1.246 . S
O52 Tb42 2.453 . S
O52 C48 1.245 . S
O53 Tb40 2.343 . S
O53 Tb42 2.596 . S
O53 C48 1.259 . S
O54 Tb42 2.374 . S
O54 C49 1.250 . S
O55 Tb40 2.353 . S
O55 C49 1.263 . S
C56 O57 1.275 . S
C56 O58 1.246 . S
O57 Tb40 2.427 . S
O57 C56 1.275 . S
O58 Tb40 2.513 . S
O58 C56 1.246 . S
C59 O43 1.245 . S
C59 O44 1.259 . S
C60 C61 1.386 . S
C60 C62 1.397 . S
C60 H84 0.931 . S
C61 C60 1.386 . S
C61 C65 1.397 . S
C62 C60 1.397 . S
C62 C63 1.384 . S
C62 H85 0.930 . S
C63 C62 1.384 . S
C63 C64 1.377 . S
C63 C66 1.481 . S
C64 C63 1.377 . S
C64 C65 1.389 . S
C64 H86 0.929 1_545 S
C65 C61 1.397 . S
C65 C64 1.389 . S
C65 H87 0.931 1_545 S
C66 C63 1.481 . S
C66 C67 1.387 . S
C66 C71 1.390 . S
C67 C66 1.387 . S
C67 C68 1.401 . S
C67 H88 0.930 . S
C68 C67 1.401 . S
C68 C69 1.376 . S
C68 C77 1.511 . S
C69 C68 1.376 . S
C69 C70 1.392 . S
C69 H90 0.931 . S
C70 C69 1.392 . S
C70 C71 1.361 . S
C70 C72 1.500 1_545 S
C71 C66 1.390 . S
C71 C70 1.361 . S
C71 H89 0.931 1_545 S
C72 C70 1.500 1_565 S
C72 C73 1.371 . S
C72 C74 1.365 . S
C73 C72 1.371 . S
C73 C83 1.386 . S
C73 H91 0.931 . S
C74 C72 1.365 . S
C74 C75 1.409 . S
C74 H92 0.929 . S
C75 C74 1.409 . S
C75 C76 1.380 . S
C75 H93 0.930 . S
C76 C75 1.380 . S
C76 C83 1.357 . S
C77 C68 1.511 . S
C77 C78 1.341 . S
C77 C79 1.371 . S
C78 C77 1.341 . S
C78 C82 1.394 . S
C78 H94 0.930 . S
C79 C77 1.371 . S
C79 C80 1.392 . S
C79 H95 0.931 . S
C80 C79 1.392 . S
C80 C81 1.331 . S
C80 H98 0.932 . S
C81 C80 1.331 . S
C81 C82 1.336 . S
C82 C78 1.394 . S
C82 C81 1.336 . S
C82 H97 0.929 . S
C83 C73 1.386 . S
C83 C76 1.357 . S
C83 H96 0.928 . S
H84 C60 0.931 . S
H85 C62 0.930 . S
H86 C64 0.929 1_565 S
H87 C65 0.931 1_565 S
H88 C67 0.930 . S
H89 C71 0.931 1_565 S
H90 C69 0.931 . S
H91 C73 0.931 . S
H92 C74 0.929 . S
H93 C75 0.930 . S
H94 C78 0.930 . S
H95 C79 0.931 . S
H96 C83 0.928 . S
H97 C82 0.929 . S
H98 C80 0.932 . S
C99 C100 1.386 . S
C99 C101 1.397 . S
C99 H123 0.931 . S
C100 C99 1.386 . S
C100 C104 1.397 . S
C101 C99 1.397 . S
C101 C102 1.384 . S
C101 H124 0.930 . S
C102 C101 1.384 . S
C102 C103 1.377 . S
C102 C105 1.481 . S
C103 C102 1.377 . S
C103 C104 1.389 . S
C103 H125 0.929 . S
C104 C100 1.397 . S
C104 C103 1.389 . S
C104 H126 0.931 . S
C105 C102 1.481 . S
C105 C106 1.387 . S
C105 C110 1.390 . S
C106 C105 1.387 . S
C106 C107 1.401 . S
C106 H127 0.930 . S
C107 C106 1.401 . S
C107 C108 1.376 . S
C107 C116 1.511 . S
C108 C107 1.376 . S
C108 C109 1.392 . S
C108 H129 0.931 . S
C109 C108 1.392 . S
C109 C110 1.361 . S
C109 C111 1.500 . S
C110 C105 1.390 . S
C110 C109 1.361 . S
C110 H128 0.931 . S
C111 C109 1.500 . S
C111 C112 1.371 . S
C111 C113 1.365 . S
C112 C111 1.371 . S
C112 C122 1.386 . S
C112 H130 0.931 . S
C113 C111 1.365 . S
C113 C114 1.409 . S
C113 H131 0.929 . S
C114 C113 1.409 . S
C114 C115 1.380 . S
C114 H132 0.930 . S
C115 C114 1.380 . S
C115 C122 1.357 . S
C116 C107 1.511 . S
C116 C117 1.341 . S
C116 C118 1.371 . S
C117 C116 1.341 . S
C117 C121 1.394 . S
C117 H133 0.930 . S
C118 C116 1.371 . S
C118 C119 1.392 . S
C118 H134 0.931 . S
C119 C118 1.392 . S
C119 C120 1.331 . S
C119 H137 0.932 . S
C120 C119 1.331 . S
C120 C121 1.336 . S
C121 C117 1.394 . S
C121 C120 1.336 . S
C121 H136 0.929 . S
C122 C112 1.386 . S
C122 C115 1.357 . S
C122 H135 0.928 . S
H123 C99 0.931 . S
H124 C101 0.930 . S
H125 C103 0.929 . S
H126 C104 0.931 . S
H127 C106 0.930 . S
H128 C110 0.931 . S
H129 C108 0.931 . S
H130 C112 0.931 . S
H131 C113 0.929 . S
H132 C114 0.930 . S
H133 C117 0.930 . S
H134 C118 0.931 . S
H135 C122 0.928 . S
H136 C121 0.929 . S
H137 C119 0.932 . S
C138 C139 1.386 . S
C138 C140 1.397 . S
C138 H162 0.931 . S
C139 C138 1.386 . S
C139 C143 1.397 . S
C140 C138 1.397 . S
C140 C141 1.384 . S
C140 H163 0.930 . S
C141 C140 1.384 . S
C141 C142 1.377 . S
C141 C144 1.481 . S
C142 C141 1.377 . S
C142 C143 1.389 . S
C142 H164 0.929 . S
C143 C139 1.397 . S
C143 C142 1.389 . S
C143 H165 0.931 . S
C144 C141 1.481 . S
C144 C145 1.387 . S
C144 C149 1.390 . S
C145 C144 1.387 . S
C145 C146 1.401 . S
C145 H166 0.930 . S
C146 C145 1.401 . S
C146 C147 1.376 . S
C146 C155 1.511 . S
C147 C146 1.376 . S
C147 C148 1.392 . S
C147 H168 0.931 . S
C148 C147 1.392 . S
C148 C149 1.361 . S
C148 C150 1.500 . S
C149 C144 1.390 . S
C149 C148 1.361 . S
C149 H167 0.931 . S
C150 C148 1.500 . S
C150 C151 1.371 . S
C150 C152 1.365 1_455 S
C151 C150 1.371 . S
C151 C161 1.386 1_455 S
C151 H169 0.931 . S
C152 C150 1.365 1_655 S
C152 C153 1.409 . S
C152 H170 0.929 . S
C153 C152 1.409 . S
C153 C154 1.380 . S
C153 H171 0.930 . S
C154 C153 1.380 . S
C154 C161 1.357 . S
C155 C146 1.511 . S
C155 C156 1.341 . S
C155 C157 1.371 . S
C156 C155 1.341 . S
C156 C160 1.394 . S
C156 H172 0.930 . S
C157 C155 1.371 . S
C157 C158 1.392 . S
C157 H173 0.931 . S
C158 C157 1.392 . S
C158 C159 1.331 . S
C158 H176 0.932 . S
C159 C158 1.331 . S
C159 C160 1.336 . S
C160 C156 1.394 . S
C160 C159 1.336 . S
C160 H175 0.929 . S
C161 C151 1.386 1_655 S
C161 C154 1.357 . S
C161 H174 0.928 . S
H162 C138 0.931 . S
H163 C140 0.930 . S
H164 C142 0.929 . S
H165 C143 0.931 . S
H166 C145 0.930 . S
H167 C149 0.931 . S
H168 C147 0.931 . S
H169 C151 0.931 . S
H170 C152 0.929 . S
H171 C153 0.930 . S
H172 C156 0.930 . S
H173 C157 0.931 . S
H174 C161 0.928 . S
H175 C160 0.929 . S
H176 C158 0.932 . S
C177 C178 1.386 . S
C177 C179 1.397 . S
C177 H201 0.931 . S
C178 C177 1.386 . S
C178 C182 1.397 1_655 S
C179 C177 1.397 . S
C179 C180 1.384 . S
C179 H202 0.930 . S
C180 C179 1.384 . S
C180 C181 1.377 1_655 S
C180 C183 1.481 . S
C181 C180 1.377 1_455 S
C181 C182 1.389 . S
C181 H203 0.929 . S
C182 C178 1.397 1_455 S
C182 C181 1.389 . S
C182 H204 0.931 . S
C183 C180 1.481 . S
C183 C184 1.387 . S
C183 C188 1.390 1_655 S
C184 C183 1.387 . S
C184 C185 1.401 . S
C184 H205 0.930 . S
C185 C184 1.401 . S
C185 C186 1.365 1_655 S
C185 C194 1.511 . S
C186 C185 1.365 1_455 S
C186 C187 1.406 . S
C186 H207 0.930 . S
C187 C186 1.406 . S
C187 C188 1.361 . S
C187 C189 1.500 . S
C188 C183 1.390 1_455 S
C188 C187 1.361 . S
C188 H206 0.931 . S
C189 C187 1.500 . S
C189 C190 1.371 . S
C189 C191 1.365 . S
C190 C189 1.371 . S
C190 C200 1.386 . S
C190 H208 0.931 . S
C191 C189 1.365 . S
C191 C192 1.409 . S
C191 H209 0.929 . S
C192 C191 1.409 . S
C192 C193 1.380 . S
C192 H210 0.930 . S
C193 C192 1.380 . S
C193 C200 1.357 . S
C194 C185 1.511 . S
C194 C195 1.341 . S
C194 C196 1.371 . S
C195 C194 1.341 . S
C195 C199 1.394 . S
C195 H211 0.930 . S
C196 C194 1.371 . S
C196 C197 1.392 . S
C196 H212 0.931 . S
C197 C196 1.392 . S
C197 C198 1.331 . S
C197 H215 0.932 . S
C198 C197 1.331 . S
C198 C199 1.336 . S
C199 C195 1.394 . S
C199 C198 1.336 . S
C199 H214 0.929 . S
C200 C190 1.386 . S
C200 C193 1.357 . S
C200 H213 0.928 . S
H201 C177 0.931 . S
H202 C179 0.930 . S
H203 C181 0.929 . S
H204 C182 0.931 . S
H205 C184 0.930 . S
H206 C188 0.931 . S
H207 C186 0.930 . S
H208 C190 0.931 . S
H209 C191 0.929 . S
H210 C192 0.930 . S
H211 C195 0.930 . S
H212 C196 0.931 . S
H213 C200 0.928 . S
H214 C199 0.929 . S
H215 C197 0.932 . S
C216 C217 1.386 1_565 S
C216 C218 1.397 . S
C216 H240 0.931 . S
C217 C216 1.386 1_545 S
C217 C221 1.397 . S
C218 C216 1.397 . S
C218 C219 1.384 1_565 S
C218 H241 0.930 . S
C219 C218 1.384 1_545 S
C219 C220 1.377 . S
C219 C222 1.481 . S
C220 C219 1.377 . S
C220 C221 1.389 . S
C220 H242 0.929 . S
C221 C217 1.397 . S
C221 C220 1.389 . S
C221 H243 0.931 . S
C222 C219 1.481 . S
C222 C223 1.387 1_545 S
C222 C227 1.390 . S
C223 C222 1.387 1_565 S
C223 C224 1.401 . S
C223 H244 0.930 . S
C224 C223 1.401 . S
C224 C225 1.376 1_565 S
C224 C233 1.511 . S
C225 C224 1.376 1_545 S
C225 C226 1.392 . S
C225 H246 0.931 . S
C226 C225 1.392 . S
C226 C227 1.361 . S
C226 C228 1.500 . S
C227 C222 1.390 . S
C227 C226 1.361 . S
C227 H245 0.931 . S
C228 C226 1.500 . S
C228 C229 1.371 . S
C228 C230 1.365 . S
C229 C228 1.371 . S
C229 C239 1.386 . S
C229 H247 0.931 . S
C230 C228 1.365 . S
C230 C231 1.409 . S
C230 H248 0.929 . S
C231 C230 1.409 . S
C231 C232 1.380 . S
C231 H249 0.930 . S
C232 C231 1.380 . S
C232 C239 1.357 . S
C233 C224 1.511 . S
C233 C234 1.341 . S
C233 C235 1.371 . S
C234 C233 1.341 . S
C234 C238 1.394 . S
C234 H250 0.930 . S
C235 C233 1.371 . S
C235 C236 1.392 . S
C235 H251 0.931 . S
C236 C235 1.392 . S
C236 C237 1.331 . S
C236 H254 0.932 . S
C237 C236 1.331 . S
C237 C238 1.336 . S
C238 C234 1.394 . S
C238 C237 1.336 . S
C238 H253 0.929 . S
C239 C229 1.386 . S
C239 C232 1.357 . S
C239 H252 0.928 . S
H240 C216 0.931 . S
H241 C218 0.930 . S
H242 C220 0.929 . S
H243 C221 0.931 . S
H244 C223 0.930 . S
H245 C227 0.931 . S
H246 C225 0.931 . S
H247 C229 0.931 . S
H248 C230 0.929 . S
H249 C231 0.930 . S
H250 C234 0.930 . S
H251 C235 0.931 . S
H252 C239 0.928 . S
H253 C238 0.929 . S
H254 C236 0.932 . S
C255 C256 1.386 . S
C255 C257 1.397 . S
C255 H279 0.931 . S
C256 C255 1.386 . S
C256 C260 1.397 . S
C257 C255 1.397 . S
C257 C258 1.384 . S
C257 H280 0.930 . S
C258 C257 1.384 . S
C258 C259 1.377 . S
C258 C261 1.481 . S
C259 C258 1.377 . S
C259 C260 1.389 . S
C259 H281 0.929 . S
C260 C256 1.397 . S
C260 C259 1.389 . S
C260 H282 0.931 . S
C261 C258 1.481 . S
C261 C262 1.387 . S
C261 C266 1.390 . S
C262 C261 1.387 . S
C262 C263 1.401 . S
C262 H283 0.930 . S
C263 C262 1.401 . S
C263 C264 1.376 . S
C263 C272 1.511 . S
C264 C263 1.376 . S
C264 C265 1.392 . S
C264 H285 0.931 . S
C265 C264 1.392 . S
C265 C266 1.361 . S
C265 C267 1.500 . S
C266 C261 1.390 . S
C266 C265 1.361 . S
C266 H284 0.931 . S
C267 C265 1.500 . S
C267 C268 1.371 . S
C267 C269 1.365 . S
C268 C267 1.371 . S
C268 C278 1.386 . S
C268 H286 0.931 . S
C269 C267 1.365 . S
C269 C270 1.409 . S
C269 H287 0.929 . S
C270 C269 1.409 . S
C270 C271 1.380 . S
C270 H288 0.930 . S
C271 C270 1.380 . S
C271 C278 1.357 . S
C272 C263 1.511 . S
C272 C273 1.341 . S
C272 C274 1.371 . S
C273 C272 1.341 . S
C273 C277 1.394 . S
C273 H289 0.930 . S
C274 C272 1.371 . S
C274 C275 1.392 . S
C274 H290 0.931 . S
C275 C274 1.392 . S
C275 C276 1.331 . S
C275 H293 0.932 . S
C276 C275 1.331 . S
C276 C277 1.336 . S
C277 C273 1.394 . S
C277 C276 1.336 . S
C277 H292 0.929 . S
C278 C268 1.386 . S
C278 C271 1.357 . S
C278 H291 0.928 . S
H279 C255 0.931 . S
H280 C257 0.930 . S
H281 C259 0.929 . S
H282 C260 0.931 . S
H283 C262 0.930 . S
H284 C266 0.931 . S
H285 C264 0.931 . S
H286 C268 0.931 . S
H287 C269 0.929 . S
H288 C270 0.930 . S
H289 C273 0.930 . S
H290 C274 0.931 . S
H291 C278 0.928 . S
H292 C277 0.929 . S
H293 C275 0.932 . S
H294 C306 0.930 . S
H295 C308 0.930 . S
H296 C309 0.930 . S
H297 C313 0.959 . S
H298 C313 0.959 . S
H299 C313 0.961 . S
H300 C314 0.960 . S
H301 C314 0.961 . S
H302 C314 0.959 . S
H303 C317 0.929 . S
H304 C318 0.931 . S
H305 C320 0.930 . S
C306 H294 0.930 . S
C306 C307 1.399 . S
C306 C311 1.399 . S
C307 C306 1.399 . S
C307 C308 1.376 . S
C308 H295 0.930 . S
C308 C307 1.376 . S
C308 C309 1.388 . S
C309 H296 0.930 . S
C309 C308 1.388 . S
C309 C310 1.390 . S
C310 C309 1.390 . S
C310 C311 1.394 . S
C310 C316 1.465 . S
C311 C306 1.399 . S
C311 C310 1.394 . S
C311 C312 1.516 . S
C312 C311 1.516 . S
C312 C313 1.502 . S
C312 C314 1.561 . S
C312 C315 1.526 . S
C313 H297 0.959 . S
C313 H298 0.959 . S
C313 H299 0.961 . S
C313 C312 1.502 . S
C314 H300 0.960 . S
C314 H301 0.961 . S
C314 H302 0.959 . S
C314 C312 1.561 . S
C315 C312 1.526 . S
C315 C316 1.396 . S
C315 C320 1.390 . S
C316 C310 1.465 . S
C316 C315 1.396 . S
C316 C317 1.399 . S
C317 H303 0.929 . S
C317 C316 1.399 . S
C317 C318 1.385 . S
C318 H304 0.931 . S
C318 C317 1.385 . S
C318 C319 1.389 . S
C319 C318 1.389 . S
C319 C320 1.387 . S
C320 H305 0.930 . S
C320 C315 1.390 . S
C320 C319 1.387 . S
H321 C333 0.930 . S
H322 C335 0.930 . S
H323 C336 0.930 . S
H324 C340 0.959 . S
H325 C340 0.959 . S
H326 C340 0.961 . S
H327 C341 0.960 . S
H328 C341 0.961 . S
H329 C341 0.959 . S
H330 C344 0.929 . S
H331 C345 0.931 . S
H332 C347 0.930 . S
C333 H321 0.930 . S
C333 C334 1.399 . S
C333 C338 1.399 . S
C334 C333 1.399 . S
C334 C335 1.376 . S
C335 H322 0.930 . S
C335 C334 1.376 . S
C335 C336 1.388 . S
C336 H323 0.930 . S
C336 C335 1.388 . S
C336 C337 1.390 . S
C337 C336 1.390 . S
C337 C338 1.394 . S
C337 C343 1.465 . S
C338 C333 1.399 . S
C338 C337 1.394 . S
C338 C339 1.516 . S
C339 C338 1.516 . S
C339 C340 1.502 . S
C339 C341 1.561 . S
C339 C342 1.526 . S
C340 H324 0.959 . S
C340 H325 0.959 . S
C340 H326 0.961 . S
C340 C339 1.502 . S
C341 H327 0.960 . S
C341 H328 0.961 . S
C341 H329 0.959 . S
C341 C339 1.561 . S
C342 C339 1.526 . S
C342 C343 1.396 . S
C342 C347 1.390 . S
C343 C337 1.465 . S
C343 C342 1.396 . S
C343 C344 1.399 . S
C344 H330 0.929 . S
C344 C343 1.399 . S
C344 C345 1.385 . S
C345 H331 0.931 . S
C345 C344 1.385 . S
C345 C346 1.389 . S
C346 C345 1.389 . S
C346 C347 1.387 . S
C347 H332 0.930 . S
C347 C342 1.390 . S
C347 C346 1.387 . S
H348 C360 0.930 . S
H349 C362 0.930 . S
H350 C363 0.930 . S
H351 C367 0.959 . S
H352 C367 0.959 . S
H353 C367 0.961 . S
H354 C368 0.960 . S
H355 C368 0.961 . S
H356 C368 0.959 . S
H357 C371 0.929 . S
H358 C372 0.931 . S
H359 C374 0.930 . S
C360 H348 0.930 . S
C360 C361 1.399 . S
C360 C365 1.399 . S
C361 C360 1.399 . S
C361 C362 1.376 . S
C362 H349 0.930 . S
C362 C361 1.376 . S
C362 C363 1.388 . S
C363 H350 0.930 . S
C363 C362 1.388 . S
C363 C364 1.390 . S
C364 C363 1.390 . S
C364 C365 1.394 . S
C364 C370 1.465 . S
C365 C360 1.399 . S
C365 C364 1.394 . S
C365 C366 1.516 . S
C366 C365 1.516 . S
C366 C367 1.502 . S
C366 C368 1.561 . S
C366 C369 1.526 . S
C367 H351 0.959 . S
C367 H352 0.959 . S
C367 H353 0.961 . S
C367 C366 1.502 . S
C368 H354 0.960 . S
C368 H355 0.961 . S
C368 H356 0.959 . S
C368 C366 1.561 . S
C369 C366 1.526 . S
C369 C370 1.396 . S
C369 C374 1.390 . S
C370 C364 1.465 . S
C370 C369 1.396 . S
C370 C371 1.399 . S
C371 H357 0.929 . S
C371 C370 1.399 . S
C371 C372 1.385 . S
C372 H358 0.931 . S
C372 C371 1.385 . S
C372 C373 1.389 . S
C373 C372 1.389 . S
C373 C374 1.387 . S
C374 H359 0.930 . S
C374 C369 1.390 . S
C374 C373 1.387 . S
H375 C387 0.930 . S
H376 C389 0.930 . S
H377 C390 0.930 . S
H378 C394 0.959 . S
H379 C394 0.959 . S
H380 C394 0.961 . S
H381 C395 0.960 . S
H382 C395 0.961 . S
H383 C395 0.959 . S
H384 C398 0.929 . S
H385 C399 0.931 . S
H386 C401 0.930 . S
C387 H375 0.930 . S
C387 C388 1.399 . S
C387 C392 1.399 . S
C388 C387 1.399 . S
C388 C389 1.376 . S
C389 H376 0.930 . S
C389 C388 1.376 . S
C389 C390 1.388 . S
C390 H377 0.930 . S
C390 C389 1.388 . S
C390 C391 1.390 . S
C391 C390 1.390 . S
C391 C392 1.394 . S
C391 C397 1.465 . S
C392 C387 1.399 . S
C392 C391 1.394 . S
C392 C393 1.516 . S
C393 C392 1.516 . S
C393 C394 1.502 . S
C393 C395 1.561 . S
C393 C396 1.526 . S
C394 H378 0.959 . S
C394 H379 0.959 . S
C394 H380 0.961 . S
C394 C393 1.502 . S
C395 H381 0.960 . S
C395 H382 0.961 . S
C395 H383 0.959 . S
C395 C393 1.561 . S
C396 C393 1.526 . S
C396 C397 1.396 . S
C396 C401 1.390 . S
C397 C391 1.465 . S
C397 C396 1.396 . S
C397 C398 1.399 . S
C398 H384 0.929 . S
C398 C397 1.399 . S
C398 C399 1.385 . S
C399 H385 0.931 . S
C399 C398 1.385 . S
C399 C400 1.389 . S
C400 C399 1.389 . S
C400 C401 1.387 . S
C401 H386 0.930 . S
C401 C396 1.390 . S
C401 C400 1.387 . S
H402 C414 0.930 . S
H403 C416 0.930 . S
H404 C417 0.930 . S
H405 C421 0.959 . S
H406 C421 0.959 . S
H407 C421 0.961 . S
H408 C422 0.960 . S
H409 C422 0.961 . S
H410 C422 0.959 . S
H411 C425 0.929 . S
H412 C426 0.931 . S
H413 C428 0.930 . S
C414 H402 0.930 . S
C414 C415 1.399 . S
C414 C419 1.399 . S
C415 C414 1.399 . S
C415 C416 1.376 . S
C416 H403 0.930 . S
C416 C415 1.376 . S
C416 C417 1.388 . S
C417 H404 0.930 . S
C417 C416 1.388 . S
C417 C418 1.390 . S
C418 C417 1.390 . S
C418 C419 1.394 . S
C418 C424 1.465 . S
C419 C414 1.399 . S
C419 C418 1.394 . S
C419 C420 1.516 . S
C420 C419 1.516 . S
C420 C421 1.502 . S
C420 C422 1.561 . S
C420 C423 1.526 . S
C421 H405 0.959 . S
C421 H406 0.959 . S
C421 H407 0.961 . S
C421 C420 1.502 . S
C422 H408 0.960 . S
C422 H409 0.961 . S
C422 H410 0.959 . S
C422 C420 1.561 . S
C423 C420 1.526 . S
C423 C424 1.396 . S
C423 C428 1.390 . S
C424 C418 1.465 . S
C424 C423 1.396 . S
C424 C425 1.399 . S
C425 H411 0.929 . S
C425 C424 1.399 . S
C425 C426 1.385 . S
C426 H412 0.931 . S
C426 C425 1.385 . S
C426 C427 1.389 . S
C427 C426 1.389 . S
C427 C428 1.387 . S
C428 H413 0.930 . S
C428 C423 1.390 . S
C428 C427 1.387 . S
H429 C441 0.930 . S
H430 C443 0.930 . S
H431 C444 0.930 . S
H432 C448 0.959 . S
H433 C448 0.959 . S
H434 C448 0.961 . S
H435 C449 0.960 . S
H436 C449 0.961 . S
H437 C449 0.959 . S
H438 C452 0.929 . S
H439 C453 0.931 . S
H440 C455 0.930 . S
C441 H429 0.930 . S
C441 C442 1.399 . S
C441 C446 1.399 . S
C442 C441 1.399 . S
C442 C443 1.376 . S
C443 H430 0.930 . S
C443 C442 1.376 . S
C443 C444 1.388 . S
C444 H431 0.930 . S
C444 C443 1.388 . S
C444 C445 1.390 . S
C445 C444 1.390 . S
C445 C446 1.394 . S
C445 C451 1.465 . S
C446 C441 1.399 . S
C446 C445 1.394 . S
C446 C447 1.516 . S
C447 C446 1.516 . S
C447 C448 1.502 . S
C447 C449 1.561 . S
C447 C450 1.526 . S
C448 H432 0.959 . S
C448 H433 0.959 . S
C448 H434 0.961 . S
C448 C447 1.502 . S
C449 H435 0.960 . S
C449 H436 0.961 . S
C449 H437 0.959 . S
C449 C447 1.561 . S
C450 C447 1.526 . S
C450 C451 1.396 . S
C450 C455 1.390 . S
C451 C445 1.465 . S
C451 C450 1.396 . S
C451 C452 1.399 . S
C452 H438 0.929 . S
C452 C451 1.399 . S
C452 C453 1.385 . S
C453 H439 0.931 . S
C453 C452 1.385 . S
C453 C454 1.389 . S
C454 C453 1.389 . S
C454 C455 1.387 . S
C455 H440 0.930 . S
C455 C450 1.390 . S
C455 C454 1.387 . S
H456 C468 0.930 . S
H457 C470 0.930 . S
H458 C471 0.930 . S
H459 C475 0.959 . S
H460 C475 0.959 . S
H461 C475 0.961 . S
H462 C476 0.960 . S
H463 C476 0.961 . S
H464 C476 0.959 . S
H465 C479 0.929 . S
H466 C480 0.931 . S
H467 C482 0.930 . S
C468 H456 0.930 . S
C468 C469 1.399 . S
C468 C473 1.399 . S
C469 C468 1.399 . S
C469 C470 1.376 . S
C470 H457 0.930 . S
C470 C469 1.376 . S
C470 C471 1.388 . S
C471 H458 0.930 . S
C471 C470 1.388 . S
C471 C472 1.390 . S
C472 C471 1.390 . S
C472 C473 1.394 . S
C472 C478 1.465 . S
C473 C468 1.399 . S
C473 C472 1.394 . S
C473 C474 1.516 . S
C474 C473 1.516 . S
C474 C475 1.502 . S
C474 C476 1.561 . S
C474 C477 1.526 . S
C475 H459 0.959 . S
C475 H460 0.959 . S
C475 H461 0.961 . S
C475 C474 1.502 . S
C476 H462 0.960 . S
C476 H463 0.961 . S
C476 H464 0.959 . S
C476 C474 1.561 . S
C477 C474 1.526 . S
C477 C478 1.396 . S
C477 C482 1.390 . S
C478 C472 1.465 . S
C478 C477 1.396 . S
C478 C479 1.399 . S
C479 H465 0.929 . S
C479 C478 1.399 . S
C479 C480 1.385 . S
C480 H466 0.931 . S
C480 C479 1.385 . S
C480 C481 1.389 . S
C481 C480 1.389 . S
C481 C482 1.387 . S
C482 H467 0.930 . S
C482 C477 1.390 . S
C482 C481 1.387 . S
H483 C495 0.930 . S
H484 C497 0.930 . S
H485 C498 0.930 . S
H486 C502 0.959 . S
H487 C502 0.959 . S
H488 C502 0.961 . S
H489 C503 0.960 . S
H490 C503 0.961 . S
H491 C503 0.959 . S
H492 C506 0.929 . S
H493 C507 0.931 . S
H494 C509 0.930 . S
C495 H483 0.930 . S
C495 C496 1.399 . S
C495 C500 1.399 . S
C496 C495 1.399 . S
C496 C497 1.376 . S
C497 H484 0.930 . S
C497 C496 1.376 . S
C497 C498 1.388 . S
C498 H485 0.930 . S
C498 C497 1.388 . S
C498 C499 1.390 . S
C499 C498 1.390 . S
C499 C500 1.394 . S
C499 C505 1.465 . S
C500 C495 1.399 . S
C500 C499 1.394 . S
C500 C501 1.516 . S
C501 C500 1.516 . S
C501 C502 1.502 . S
C501 C503 1.561 . S
C501 C504 1.526 . S
C502 H486 0.959 . S
C502 H487 0.959 . S
C502 H488 0.961 . S
C502 C501 1.502 . S
C503 H489 0.960 . S
C503 H490 0.961 . S
C503 H491 0.959 . S
C503 C501 1.561 . S
C504 C501 1.526 . S
C504 C505 1.396 . S
C504 C509 1.390 . S
C505 C499 1.465 . S
C505 C504 1.396 . S
C505 C506 1.399 . S
C506 H492 0.929 . S
C506 C505 1.399 . S
C506 C507 1.385 . S
C507 H493 0.931 . S
C507 C506 1.385 . S
C507 C508 1.389 . S
C508 C507 1.389 . S
C508 C509 1.387 . S
C509 H494 0.930 . S
C509 C504 1.390 . S
C509 C508 1.387 . S
H510 C522 0.930 . S
H511 C524 0.930 . S
H512 C525 0.930 . S
H513 C529 0.959 . S
H514 C529 0.959 . S
H515 C529 0.961 . S
H516 C530 0.960 . S
H517 C530 0.961 . S
H518 C530 0.959 . S
H519 C533 0.929 . S
H520 C534 0.931 . S
H521 C536 0.930 . S
C522 H510 0.930 . S
C522 C523 1.399 . S
C522 C527 1.399 . S
C523 C522 1.399 . S
C523 C524 1.376 . S
C524 H511 0.930 . S
C524 C523 1.376 . S
C524 C525 1.388 . S
C525 H512 0.930 . S
C525 C524 1.388 . S
C525 C526 1.390 . S
C526 C525 1.390 . S
C526 C527 1.394 . S
C526 C532 1.465 . S
C527 C522 1.399 . S
C527 C526 1.394 . S
C527 C528 1.516 . S
C528 C527 1.516 . S
C528 C529 1.502 . S
C528 C530 1.561 . S
C528 C531 1.526 . S
C529 H513 0.959 . S
C529 H514 0.959 . S
C529 H515 0.961 . S
C529 C528 1.502 . S
C530 H516 0.960 . S
C530 H517 0.961 . S
C530 H518 0.959 . S
C530 C528 1.561 . S
C531 C528 1.526 . S
C531 C532 1.396 . S
C531 C536 1.390 . S
C532 C526 1.465 . S
C532 C531 1.396 . S
C532 C533 1.399 . S
C533 H519 0.929 . S
C533 C532 1.399 . S
C533 C534 1.385 . S
C534 H520 0.931 . S
C534 C533 1.385 . S
C534 C535 1.389 . S
C535 C534 1.389 . S
C535 C536 1.387 . S
C536 H521 0.930 . S
C536 C531 1.390 . S
C536 C535 1.387 . S
H537 C549 0.930 . S
H538 C551 0.930 . S
H539 C552 0.930 . S
H540 C556 0.959 . S
H541 C556 0.959 . S
H542 C556 0.961 . S
H543 C557 0.960 . S
H544 C557 0.961 . S
H545 C557 0.959 . S
H546 C560 0.929 . S
H547 C561 0.931 . S
H548 C563 0.930 . S
C549 H537 0.930 . S
C549 C550 1.399 . S
C549 C554 1.399 . S
C550 C549 1.399 . S
C550 C551 1.376 . S
C551 H538 0.930 . S
C551 C550 1.376 . S
C551 C552 1.388 . S
C552 H539 0.930 . S
C552 C551 1.388 . S
C552 C553 1.390 . S
C553 C552 1.390 . S
C553 C554 1.394 . S
C553 C559 1.465 . S
C554 C549 1.399 . S
C554 C553 1.394 . S
C554 C555 1.516 . S
C555 C554 1.516 . S
C555 C556 1.502 . S
C555 C557 1.561 . S
C555 C558 1.526 . S
C556 H540 0.959 . S
C556 H541 0.959 . S
C556 H542 0.961 . S
C556 C555 1.502 . S
C557 H543 0.960 . S
C557 H544 0.961 . S
C557 H545 0.959 . S
C557 C555 1.561 . S
C558 C555 1.526 . S
C558 C559 1.396 . S
C558 C563 1.390 . S
C559 C553 1.465 . S
C559 C558 1.396 . S
C559 C560 1.399 . S
C560 H546 0.929 . S
C560 C559 1.399 . S
C560 C561 1.385 . S
C561 H547 0.931 . S
C561 C560 1.385 . S
C561 C562 1.389 . S
C562 C561 1.389 . S
C562 C563 1.387 . S
C563 H548 0.930 . S
C563 C558 1.390 . S
C563 C562 1.387 . S
H564 C576 0.930 . S
H565 C578 0.930 . S
H566 C579 0.930 . S
H567 C583 0.959 . S
H568 C583 0.959 . S
H569 C583 0.961 . S
H570 C584 0.960 . S
H571 C584 0.961 . S
H572 C584 0.959 . S
H573 C587 0.929 . S
H574 C588 0.931 . S
H575 C590 0.930 . S
C576 H564 0.930 . S
C576 C577 1.399 . S
C576 C581 1.399 . S
C577 C576 1.399 . S
C577 C578 1.376 . S
C578 H565 0.930 . S
C578 C577 1.376 . S
C578 C579 1.388 . S
C579 H566 0.930 . S
C579 C578 1.388 . S
C579 C580 1.390 . S
C580 C579 1.390 . S
C580 C581 1.394 . S
C580 C586 1.465 . S
C581 C576 1.399 . S
C581 C580 1.394 . S
C581 C582 1.516 . S
C582 C581 1.516 . S
C582 C583 1.502 . S
C582 C584 1.561 . S
C582 C585 1.526 . S
C583 H567 0.959 . S
C583 H568 0.959 . S
C583 H569 0.961 . S
C583 C582 1.502 . S
C584 H570 0.960 . S
C584 H571 0.961 . S
C584 H572 0.959 . S
C584 C582 1.561 . S
C585 C582 1.526 . S
C585 C586 1.396 . S
C585 C590 1.390 . S
C586 C580 1.465 . S
C586 C585 1.396 . S
C586 C587 1.399 . S
C587 H573 0.929 . S
C587 C586 1.399 . S
C587 C588 1.385 . S
C588 H574 0.931 . S
C588 C587 1.385 . S
C588 C589 1.389 . S
C589 C588 1.389 . S
C589 C590 1.387 . S
C590 H575 0.930 . S
C590 C585 1.390 . S
C590 C589 1.387 . S
H591 C603 0.930 . S
H592 C605 0.930 . S
H593 C606 0.930 . S
H594 C610 0.959 . S
H595 C610 0.959 . S
H596 C610 0.961 . S
H597 C611 0.960 . S
H598 C611 0.961 . S
H599 C611 0.959 . S
H600 C614 0.929 . S
H601 C615 0.931 . S
H602 C617 0.930 . S
C603 H591 0.930 . S
C603 C604 1.399 . S
C603 C608 1.399 . S
C604 C603 1.399 . S
C604 C605 1.376 . S
C605 H592 0.930 . S
C605 C604 1.376 . S
C605 C606 1.388 . S
C606 H593 0.930 . S
C606 C605 1.388 . S
C606 C607 1.390 . S
C607 C606 1.390 . S
C607 C608 1.394 . S
C607 C613 1.465 . S
C608 C603 1.399 . S
C608 C607 1.394 . S
C608 C609 1.516 . S
C609 C608 1.516 . S
C609 C610 1.502 . S
C609 C611 1.561 . S
C609 C612 1.526 . S
C610 H594 0.959 . S
C610 H595 0.959 . S
C610 H596 0.961 . S
C610 C609 1.502 . S
C611 H597 0.960 . S
C611 H598 0.961 . S
C611 H599 0.959 . S
C611 C609 1.561 . S
C612 C609 1.526 . S
C612 C613 1.396 . S
C612 C617 1.390 . S
C613 C607 1.465 . S
C613 C612 1.396 . S
C613 C614 1.399 . S
C614 H600 0.929 . S
C614 C613 1.399 . S
C614 C615 1.385 . S
C615 H601 0.931 . S
C615 C614 1.385 . S
C615 C616 1.389 . S
C616 C615 1.389 . S
C616 C617 1.387 . S
C617 H602 0.930 . S
C617 C612 1.390 . S
C617 C616 1.387 . S
H618 C630 0.930 . S
H619 C632 0.930 . S
H620 C633 0.930 . S
H621 C637 0.959 . S
H622 C637 0.959 . S
H623 C637 0.961 . S
H624 C638 0.960 . S
H625 C638 0.961 . S
H626 C638 0.959 . S
H627 C641 0.929 . S
H628 C642 0.931 . S
H629 C644 0.930 . S
C630 H618 0.930 . S
C630 C631 1.399 . S
C630 C635 1.399 . S
C631 C630 1.399 . S
C631 C632 1.376 . S
C632 H619 0.930 . S
C632 C631 1.376 . S
C632 C633 1.388 . S
C633 H620 0.930 . S
C633 C632 1.388 . S
C633 C634 1.390 . S
C634 C633 1.390 . S
C634 C635 1.394 . S
C634 C640 1.465 . S
C635 C630 1.399 . S
C635 C634 1.394 . S
C635 C636 1.516 . S
C636 C635 1.516 . S
C636 C637 1.502 . S
C636 C638 1.561 . S
C636 C639 1.526 . S
C637 H621 0.959 . S
C637 H622 0.959 . S
C637 H623 0.961 . S
C637 C636 1.502 . S
C638 H624 0.960 . S
C638 H625 0.961 . S
C638 H626 0.959 . S
C638 C636 1.561 . S
C639 C636 1.526 . S
C639 C640 1.396 . S
C639 C644 1.390 . S
C640 C634 1.465 . S
C640 C639 1.396 . S
C640 C641 1.399 . S
C641 H627 0.929 . S
C641 C640 1.399 . S
C641 C642 1.385 1_554 S
C642 H628 0.931 . S
C642 C641 1.385 1_556 S
C642 C643 1.389 . S
C643 C642 1.389 . S
C643 C644 1.387 1_556 S
C644 H629 0.930 . S
C644 C639 1.390 . S
C644 C643 1.387 1_554 S
H645 C657 0.930 . S
H646 C659 0.927 1_565 S
H647 C660 0.930 1_565 S
H648 C664 0.959 . S
H649 C664 0.959 . S
H650 C664 0.961 . S
H651 C665 0.960 . S
H652 C665 0.961 . S
H653 C665 0.959 . S
H654 C668 0.929 1_565 S
H655 C669 0.931 . S
H656 C671 0.930 . S
C657 H645 0.930 . S
C657 C658 1.399 . S
C657 C662 1.399 . S
C658 C657 1.399 . S
C658 C659 1.376 . S
C659 H646 0.927 1_545 S
C659 C658 1.376 . S
C659 C660 1.388 . S
C660 H647 0.930 1_545 S
C660 C659 1.388 . S
C660 C661 1.390 . S
C661 C660 1.390 . S
C661 C662 1.394 . S
C661 C667 1.465 . S
C662 C657 1.399 . S
C662 C661 1.394 . S
C662 C663 1.516 . S
C663 C662 1.516 . S
C663 C664 1.502 . S
C663 C665 1.561 . S
C663 C666 1.526 . S
C664 H648 0.959 . S
C664 H649 0.959 . S
C664 H650 0.961 . S
C664 C663 1.502 . S
C665 H651 0.960 . S
C665 H652 0.961 . S
C665 H653 0.959 . S
C665 C663 1.561 . S
C666 C663 1.526 . S
C666 C667 1.396 . S
C666 C671 1.390 . S
C667 C661 1.465 . S
C667 C666 1.396 . S
C667 C668 1.399 . S
C668 H654 0.929 1_545 S
C668 C667 1.399 . S
C668 C669 1.385 . S
C669 H655 0.931 . S
C669 C668 1.385 . S
C669 C670 1.389 . S
C670 C669 1.389 . S
C670 C671 1.387 . S
C671 H656 0.930 . S
C671 C666 1.390 . S
C671 C670 1.387 . S
H672 C684 0.930 . S
H673 C686 0.930 . S
H674 C687 0.930 . S
H675 C691 0.959 . S
H676 C691 0.959 . S
H677 C691 0.961 . S
H678 C692 0.960 . S
H679 C692 0.961 . S
H680 C692 0.959 . S
H681 C695 0.929 . S
H682 C696 0.931 . S
H683 C698 0.930 . S
C684 H672 0.930 . S
C684 C685 1.399 . S
C684 C689 1.399 . S
C685 C684 1.399 . S
C685 C686 1.376 . S
C686 H673 0.930 . S
C686 C685 1.376 . S
C686 C687 1.388 . S
C687 H674 0.930 . S
C687 C686 1.388 . S
C687 C688 1.390 . S
C688 C687 1.390 . S
C688 C689 1.394 . S
C688 C694 1.465 . S
C689 C684 1.399 . S
C689 C688 1.394 . S
C689 C690 1.516 . S
C690 C689 1.516 . S
C690 C691 1.502 . S
C690 C692 1.561 . S
C690 C693 1.526 . S
C691 H675 0.959 . S
C691 H676 0.959 . S
C691 H677 0.961 . S
C691 C690 1.502 . S
C692 H678 0.960 . S
C692 H679 0.961 . S
C692 H680 0.959 . S
C692 C690 1.561 . S
C693 C690 1.526 . S
C693 C694 1.396 . S
C693 C698 1.390 . S
C694 C688 1.465 . S
C694 C693 1.396 . S
C694 C695 1.399 . S
C695 H681 0.929 . S
C695 C694 1.399 . S
C695 C696 1.385 . S
C696 H682 0.931 . S
C696 C695 1.385 . S
C696 C697 1.389 . S
C697 C696 1.389 . S
C697 C698 1.387 . S
C698 H683 0.930 . S
C698 C693 1.390 . S
C698 C697 1.387 . S
H699 C711 0.930 . S
H700 C713 0.930 . S
H701 C714 0.930 . S
H702 C718 0.959 . S
H703 C718 0.959 . S
H704 C718 0.961 . S
H705 C719 0.960 . S
H706 C719 0.961 . S
H707 C719 0.959 . S
H708 C722 0.929 . S
H709 C723 0.931 . S
H710 C725 0.930 . S
C711 H699 0.930 . S
C711 C712 1.399 . S
C711 C716 1.399 . S
C712 C711 1.399 . S
C712 C713 1.376 1_545 S
C713 H700 0.930 . S
C713 C712 1.376 1_565 S
C713 C714 1.388 . S
C714 H701 0.930 . S
C714 C713 1.388 . S
C714 C715 1.390 1_565 S
C715 C714 1.390 1_545 S
C715 C716 1.394 . S
C715 C721 1.465 1_545 S
C716 C711 1.399 . S
C716 C715 1.394 . S
C716 C717 1.516 . S
C717 C716 1.516 . S
C717 C718 1.502 . S
C717 C719 1.561 . S
C717 C720 1.526 . S
C718 H702 0.959 . S
C718 H703 0.959 . S
C718 H704 0.961 . S
C718 C717 1.502 . S
C719 H705 0.960 . S
C719 H706 0.961 . S
C719 H707 0.959 . S
C719 C717 1.561 . S
C720 C717 1.526 . S
C720 C721 1.396 1_545 S
C720 C725 1.390 . S
C721 C715 1.465 1_565 S
C721 C720 1.396 1_565 S
C721 C722 1.399 . S
C722 H708 0.929 . S
C722 C721 1.399 . S
C722 C723 1.385 . S
C723 H709 0.931 . S
C723 C722 1.385 . S
C723 C724 1.389 1_565 S
C724 C723 1.389 1_545 S
C724 C725 1.387 . S
C725 H710 0.930 . S
C725 C720 1.390 . S
C725 C724 1.387 . S
H726 C738 0.930 . S
H727 C740 0.930 . S
H728 C741 0.930 . S
H729 C745 0.959 . S
H730 C745 0.959 . S
H731 C745 0.961 . S
H732 C746 0.960 . S
H733 C746 0.961 . S
H734 C746 0.959 . S
H735 C749 0.929 . S
H736 C750 0.931 . S
H737 C752 0.930 . S
C738 H726 0.930 . S
C738 C739 1.399 . S
C738 C743 1.399 . S
C739 C738 1.399 . S
C739 C740 1.376 . S
C740 H727 0.930 . S
C740 C739 1.376 . S
C740 C741 1.388 . S
C741 H728 0.930 . S
C741 C740 1.388 . S
C741 C742 1.390 . S
C742 C741 1.390 . S
C742 C743 1.394 . S
C742 C748 1.465 . S
C743 C738 1.399 . S
C743 C742 1.394 . S
C743 C744 1.516 . S
C744 C743 1.516 . S
C744 C745 1.502 . S
C744 C746 1.561 . S
C744 C747 1.526 . S
C745 H729 0.959 . S
C745 H730 0.959 . S
C745 H731 0.961 . S
C745 C744 1.502 . S
C746 H732 0.960 . S
C746 H733 0.961 . S
C746 H734 0.959 . S
C746 C744 1.561 . S
C747 C744 1.526 . S
C747 C748 1.396 . S
C747 C752 1.390 . S
C748 C742 1.465 . S
C748 C747 1.396 . S
C748 C749 1.399 . S
C749 H735 0.929 . S
C749 C748 1.399 . S
C749 C750 1.385 . S
C750 H736 0.931 . S
C750 C749 1.385 . S
C750 C751 1.389 . S
C751 C750 1.389 . S
C751 C752 1.387 . S
C752 H737 0.930 . S
C752 C747 1.390 . S
C752 C751 1.387 . S
H753 C765 0.930 . S
H754 C767 0.930 . S
H755 C768 0.930 . S
H756 C772 0.959 . S
H757 C772 0.959 . S
H758 C772 0.961 . S
H759 C773 0.960 . S
H760 C773 0.961 . S
H761 C773 0.959 1_455 S
H762 C776 0.929 . S
H763 C777 0.931 . S
H764 C779 0.930 . S
C765 H753 0.930 . S
C765 C766 1.399 1_655 S
C765 C770 1.399 1_655 S
C766 C765 1.399 1_455 S
C766 C767 1.376 . S
C767 H754 0.930 . S
C767 C766 1.376 . S
C767 C768 1.388 . S
C768 H755 0.930 . S
C768 C767 1.388 . S
C768 C769 1.390 . S
C769 C768 1.390 . S
C769 C770 1.394 . S
C769 C775 1.465 . S
C770 C765 1.399 1_455 S
C770 C769 1.394 . S
C770 C771 1.516 1_455 S
C771 C770 1.516 1_655 S
C771 C772 1.502 . S
C771 C773 1.561 . S
C771 C774 1.526 . S
C772 H756 0.959 . S
C772 H757 0.959 . S
C772 H758 0.961 . S
C772 C771 1.502 . S
C773 H759 0.960 . S
C773 H760 0.961 . S
C773 H761 0.959 1_655 S
C773 C771 1.561 . S
C774 C771 1.526 . S
C774 C775 1.396 1_655 S
C774 C779 1.390 . S
C775 C769 1.465 . S
C775 C774 1.396 1_455 S
C775 C776 1.399 . S
C776 H762 0.929 . S
C776 C775 1.399 . S
C776 C777 1.385 . S
C777 H763 0.931 . S
C777 C776 1.385 . S
C777 C778 1.389 . S
C778 C777 1.389 . S
C778 C779 1.387 1_455 S
C779 H764 0.930 . S
C779 C774 1.390 . S
C779 C778 1.387 1_655 S
C307 C8 2.038 . S
C319 C271 2.098 . S
C334 C26 1.362 . S
C346 C198 1.371 . S
C361 C48 1.500 . S
C373 C237 1.516 . S
C388 C19 1.817 . S
C400 C276 1.854 . S
C427 C193 1.486 . S
C415 C36 1.489 . S
C454 C232 1.782 . S
C442 C59 1.757 . S
C469 C28 1.519 . S
C481 C120 1.543 . S
C496 C46 1.250 . S
C508 C154 1.289 . S
C523 C16 1.613 . S
C535 C76 1.615 . S
C562 C115 1.688 . S
C550 C39 1.655 . S
C589 C159 1.011 . S
C577 C56 0.972 . S
C604 C6 1.397 . S
C616 C81 1.394 . S
C643 C139 1.426 . S
C631 C9 1.411 . S
C658 C21 1.479 . S
C670 C61 1.500 . S
C685 C49 1.486 . S
C697 C100 1.490 . S
C724 C217 1.473 . S
C712 C29 1.466 . S
C751 C256 1.591 1_556 S
C739 C41 1.556 . S
C766 C1 1.472 . S
C778 C178 1.502 1_455 S
