# Generated by pormake.
# Topology sit, (3,6)-cn, num edge types: 1
# Building blocks:
#     Node 0, Type 0, BuildingBlock: ESEHIV_clean_linker_0, # of connection points: 3
#     Node 1, Type 0, BuildingBlock: ESEHIV_clean_linker_0, # of connection points: 3
#     Node 2, Type 0, BuildingBlock: ESEHIV_clean_linker_0, # of connection points: 3
#     Node 3, Type 0, BuildingBlock: ESEHIV_clean_linker_0, # of connection points: 3
#     Node 4, Type 1, BuildingBlock: MIDCAF_clean_sbu_0, # of connection points: 6
#     Node 5, Type 1, BuildingBlock: MIDCAF_clean_sbu_0, # of connection points: 6
#     Edge 6, Type (0, 1), BuildingBlock: TEMPAE_clean_linker_10, # of connection points: 2
#     Edge 7, Type (0, 1), BuildingBlock: TEMPAE_clean_linker_10, # of connection points: 2
#     Edge 8, Type (0, 1), BuildingBlock: TEMPAE_clean_linker_10, # of connection points: 2
#     Edge 9, Type (0, 1), BuildingBlock: TEMPAE_clean_linker_10, # of connection points: 2
#     Edge 10, Type (0, 1), BuildingBlock: TEMPAE_clean_linker_10, # of connection points: 2
#     Edge 11, Type (0, 1), BuildingBlock: TEMPAE_clean_linker_10, # of connection points: 2
#     Edge 12, Type (0, 1), BuildingBlock: TEMPAE_clean_linker_10, # of connection points: 2
#     Edge 13, Type (0, 1), BuildingBlock: TEMPAE_clean_linker_10, # of connection points: 2
#     Edge 14, Type (0, 1), BuildingBlock: TEMPAE_clean_linker_10, # of connection points: 2
#     Edge 15, Type (0, 1), BuildingBlock: TEMPAE_clean_linker_10, # of connection points: 2
#     Edge 16, Type (0, 1), BuildingBlock: TEMPAE_clean_linker_10, # of connection points: 2
#     Edge 17, Type (0, 1), BuildingBlock: TEMPAE_clean_linker_10, # of connection points: 2
# Relax obj value: 0.110
# Max RMSD: 0.193
# Mean RMSD: 0.106
data_MOF--net-sit--node1-MIDCAF_clean_sbu_0--node2-ESEHIV_clean_linker_0--edge1-TEMPAE_clean_linker_10
_symmetry_space_group_name_H-M    P1
_symmetry_Int_Tables_number       1
_symmetry_cell_setting            triclinic
loop_
_symmetry_equiv_pos_as_xyz
'x, y, z'
_cell_length_a     22.860618
_cell_length_b     29.195215
_cell_length_c     34.090579
_cell_angle_alpha  90.033598
_cell_angle_beta   89.901021
_cell_angle_gamma 82.910442
loop_
_atom_site_label
_atom_site_type_symbol
_atom_site_fract_x
_atom_site_fract_y
_atom_site_fract_z
_atom_type_partial_charge
H0 H 0.07772 0.40039 -0.00634 0.0
H1 H 0.15596 0.27625 0.04985 0.0
H2 H 0.96744 0.31038 0.05 0.0
C3 C 0.07262 0.36979 0.01073 0.0
C4 C 0.01612 0.35931 0.02051 0.0
C5 C 0.12283 0.33986 0.02104 0.0
C6 C 0.11697 0.29929 0.04174 0.0
C7 C 0.06089 0.28855 0.05217 0.0
C8 C 0.01065 0.31845 0.04133 0.0
H9 H -0.00899 0.65256 -0.00813 0.0
H10 H 0.91069 0.7771 0.04678 0.0
H11 H 0.09927 0.74366 0.04865 0.0
C12 C -0.00449 0.68338 0.00881 0.0
C13 C 0.05167 0.69412 0.01906 0.0
C14 C 0.94488 0.71329 0.01848 0.0
C15 C 0.94998 0.75411 0.03907 0.0
C16 C 0.0057 0.76517 0.0499 0.0
C17 C 0.05637 0.7353 0.03967 0.0
H18 H 0.56695 0.87665 0.48198 0.0
H19 H 0.67624 0.76984 0.54444 0.0
H20 H 0.48899 0.76596 0.53446 0.0
C21 C 0.57231 0.84524 0.49924 0.0
C22 C 0.52241 0.82394 0.50754 0.0
C23 C 0.62826 0.82643 0.5124 0.0
C24 C 0.63364 0.78456 0.53338 0.0
C25 C 0.58374 0.76191 0.54078 0.0
C26 C 0.52817 0.78185 0.52751 0.0
H27 H 0.53851 0.15945 0.49441 0.0
H28 H 0.42086 0.28137 0.5254 0.0
H29 H 0.60702 0.27435 0.54754 0.0
C30 C 0.53061 0.19404 0.50643 0.0
C31 C 0.5786 0.21467 0.52006 0.0
C32 C 0.47349 0.21809 0.50676 0.0
C33 C 0.46456 0.26228 0.52417 0.0
C34 C 0.51242 0.28254 0.53948 0.0
C35 C 0.56961 0.25899 0.53624 0.0
Zn36 Zn 0.02019 0.10948 0.34856 0.0
Zn37 Zn 0.05867 0.9412 0.34551 0.0
Zn38 Zn 0.04486 0.02538 0.34596 0.0
C39 C 0.07156 0.96344 0.26926 0.0
C40 C 0.95182 0.95805 0.37558 0.0
O41 O 0.12145 0.05373 0.37204 0.0
O42 O 0.09998 0.12679 0.35509 0.0
C43 C 0.00298 0.08858 0.27224 0.0
O44 O 0.0476 1.00211 0.28367 0.0
O45 O 0.08985 0.93079 0.29203 0.0
O46 O -0.02153 0.92521 0.35606 0.0
O47 O -0.02727 0.99698 0.37762 0.0
O48 O -0.01641 0.11963 0.29635 0.0
O49 O 0.03152 0.05065 0.2849 0.0
O50 O 0.96686 0.04372 0.38421 0.0
O51 O 0.97012 0.11775 0.39576 0.0
C52 C 0.94858 0.08102 0.40304 0.0
O53 O 0.12958 1.00472 0.37561 0.0
O54 O 0.11543 0.93293 0.3892 0.0
C55 C 0.1354 0.09513 0.37012 0.0
C56 C 0.14516 0.96621 0.39333 0.0
Zn57 Zn 0.48516 0.61185 0.85047 0.0
Zn58 Zn 0.58385 0.43733 0.85285 0.0
Zn59 Zn 0.53466 0.52434 0.84958 0.0
C60 C 0.55795 0.45852 0.77385 0.0
C61 C 0.47919 0.44226 0.89445 0.0
O62 O 0.59418 0.56638 0.87947 0.0
O63 O 0.54411 0.63605 0.88542 0.0
C64 C 0.51177 0.58671 0.77216 0.0
O65 O 0.5417 0.49892 0.78828 0.0
O66 O 0.5772 0.42556 0.79613 0.0
O67 O 0.52537 0.41451 0.88896 0.0
O68 O 0.47487 0.48365 0.88072 0.0
O69 O 0.49159 0.6206 0.79328 0.0
O70 O 0.52851 0.54714 0.78786 0.0
O71 O 0.44827 0.52978 0.88069 0.0
O72 O 0.40813 0.60211 0.87232 0.0
C73 C 0.405 0.56207 0.88527 0.0
O74 O 0.62066 0.5203 0.88064 0.0
O75 O 0.66111 0.44781 0.87374 0.0
C76 C 0.59006 0.6084 0.89179 0.0
C77 C 0.66406 0.48829 0.88574 0.0
C78 C 0.01961 0.21434 0.06466 0.0
C79 C 0.0548 0.24779 0.07672 0.0
C80 C 0.00987 0.17771 0.08959 0.0
C81 C 0.03404 0.17586 0.12785 0.0
C82 C 0.07135 0.20881 0.13946 0.0
C83 C 0.08182 0.24402 0.1135 0.0
C84 C 0.97184 0.14235 0.07545 0.0
C85 C 0.09747 0.2086 0.18017 0.0
C86 C 0.95865 0.13643 0.21735 0.0
C87 C 0.00029 0.10025 0.23009 0.0
C88 C 0.96587 0.15876 0.18169 0.0
C89 C 0.01526 0.14375 0.15784 0.0
C90 C 0.05268 0.1032 0.16798 0.0
C91 C 0.04551 0.08237 0.20452 0.0
C92 C 0.92452 0.20167 0.17196 0.0
C93 C 0.10366 0.08441 0.14214 0.0
H94 H -0.00079 0.21716 0.03592 0.0
H95 H 0.10886 0.27009 0.12271 0.0
H96 H -0.01359 0.10775 0.08798 0.0
H97 H 0.9256 0.15277 0.08475 0.0
H98 H 0.97246 0.13976 0.04293 0.0
H99 H 0.12651 0.23608 0.18415 0.0
H100 H 0.06158 0.21376 0.2023 0.0
H101 H 0.12356 0.17477 0.18624 0.0
H102 H 0.92306 0.1499 0.23683 0.0
H103 H 0.07809 0.05459 0.2142 0.0
H104 H 0.9097 0.20075 0.14108 0.0
H105 H 0.94808 0.23248 0.17543 0.0
H106 H 0.88505 0.20588 0.1913 0.0
H107 H 0.09187 0.08848 0.11065 0.0
H108 H 0.11784 0.04732 0.14827 0.0
H109 H 0.14161 0.10379 0.14774 0.0
C110 C 0.04388 0.84078 0.06151 0.0
C111 C 0.01094 0.80621 0.07431 0.0
C112 C 0.05324 0.87765 0.08631 0.0
C113 C 0.03118 0.87858 0.12519 0.0
C114 C -0.00407 0.84451 0.13754 0.0
C115 C -0.01438 0.8091 0.1117 0.0
C116 C 0.08886 0.91422 0.07138 0.0
C117 C 0.97223 0.84364 0.17891 0.0
C118 C 0.11225 0.91769 0.21228 0.0
C119 C 0.07102 0.95311 0.2269 0.0
C120 C 0.10263 0.89574 0.17682 0.0
C121 C 0.05115 0.91044 0.15498 0.0
C122 C 0.01371 0.95035 0.16691 0.0
C123 C 0.02341 0.97078 0.20331 0.0
C124 C 0.14399 0.85344 0.1653 0.0
C125 C 0.96042 0.96888 0.14317 0.0
H126 H 0.06293 0.8386 0.03231 0.0
H127 H 0.96026 0.78217 0.12144 0.0
H128 H 0.07341 0.94848 0.08434 0.0
H129 H 0.13575 0.905 0.07959 0.0
H130 H 0.08659 0.91697 0.0389 0.0
H131 H 0.94425 0.81555 0.1834 0.0
H132 H 0.00942 0.83869 0.2 0.0
H133 H 0.9457 0.87701 0.18601 0.0
H134 H 0.14958 0.90438 0.2303 0.0
H135 H -0.00884 0.99797 0.21453 0.0
H136 H 0.15676 0.85522 0.13402 0.0
H137 H 0.12127 0.82223 0.16904 0.0
H138 H 0.18469 0.84921 0.18337 0.0
H139 H 0.96957 0.96525 0.11126 0.0
H140 H 0.9462 1.00581 0.14999 0.0
H141 H 0.92339 0.94903 0.15021 0.0
C142 C 0.61608 0.72076 0.60248 0.0
C143 C 0.58768 0.72043 0.56615 0.0
C144 C 0.60894 0.68714 0.63079 0.0
C145 C 0.57282 0.65227 0.62238 0.0
C146 C 0.5497 0.64872 0.58421 0.0
C147 C 0.55684 0.68325 0.55656 0.0
C148 C 0.63504 0.69188 0.67105 0.0
C149 C 0.51329 0.61082 0.57358 0.0
C150 C 0.56716 0.57174 0.70897 0.0
C151 C 0.51969 0.59504 0.72993 0.0
C152 C 0.58185 0.58693 0.6715 0.0
C153 C 0.54937 0.62707 0.65558 0.0
C154 C 0.49838 0.64806 0.67527 0.0
C155 C 0.48401 0.63153 0.71205 0.0
C156 C 0.63467 0.56205 0.65062 0.0
C157 C 0.46189 0.69066 0.65928 0.0
H158 H 0.63998 0.74938 0.61001 0.0
H159 H 0.53586 0.6824 0.52811 0.0
H160 H 0.59921 0.7031 0.69226 0.0
H161 H 0.65756 0.65818 0.68121 0.0
H162 H 0.66714 0.71751 0.67153 0.0
H163 H 0.5118 0.6057 0.54131 0.0
H164 H 0.53098 0.57771 0.58764 0.0
H165 H 0.46747 0.62012 0.5842 0.0
H166 H 0.59494 0.54348 0.72267 0.0
H167 H 0.44666 0.64911 0.72796 0.0
H168 H 0.67459 0.57781 0.659 0.0
H169 H 0.62979 0.56454 0.61828 0.0
H170 H 0.64175 0.52502 0.65907 0.0
H171 H 0.48849 0.72001 0.65937 0.0
H172 H 0.42132 0.70065 0.67683 0.0
H173 H 0.44887 0.68495 0.62853 0.0
C174 C 0.46478 0.32862 0.59475 0.0
C175 C 0.50306 0.32587 0.56251 0.0
C176 C 0.46744 0.36248 0.62365 0.0
C177 C 0.50887 0.39453 0.61978 0.0
C178 C 0.54148 0.39585 0.58459 0.0
C179 C 0.53898 0.3609 0.55653 0.0
C180 C 0.43104 0.36033 0.66043 0.0
C181 C 0.5833 0.43131 0.57834 0.0
C182 C 0.50925 0.47389 0.70818 0.0
C183 C 0.55196 0.44849 0.73162 0.0
C184 C 0.49798 0.45928 0.66989 0.0
C185 C 0.52834 0.41728 0.65568 0.0
C186 C 0.5738 0.39309 0.6785 0.0
C187 C 0.58545 0.40935 0.71587 0.0
C188 C 0.45141 0.48761 0.64589 0.0
C189 C 0.60762 0.34814 0.6647 0.0
H190 H 0.43674 0.30172 0.5993 0.0
H191 H 0.5677 0.35938 0.53109 0.0
H192 H 0.46014 0.347 0.68499 0.0
H193 H 0.41008 0.39528 0.66871 0.0
H194 H 0.39606 0.3374 0.6569 0.0
H195 H 0.59346 0.43525 0.54673 0.0
H196 H 0.56461 0.46537 0.59036 0.0
H197 H 0.62525 0.42035 0.59393 0.0
H198 H 0.48271 0.5039 0.72026 0.0
H199 H 0.61914 0.38992 0.73364 0.0
H200 H 0.40769 0.47686 0.65286 0.0
H201 H 0.4594 0.48297 0.61394 0.0
H202 H 0.44963 0.52488 0.65315 0.0
H203 H 0.57691 0.32189 0.66066 0.0
H204 H 0.6424 0.33427 0.68576 0.0
H205 H 0.6288 0.353 0.63598 0.0
C206 C 0.20251 0.39053 0.02155 0.0
C207 C 0.18108 0.35046 0.00822 0.0
C208 C 0.25471 0.40382 0.00616 0.0
C209 C 0.28469 0.37713 0.97596 0.0
C210 C 0.264 0.33583 0.96329 0.0
C211 C 0.21252 0.32271 0.97995 0.0
C212 C 0.27655 0.44733 0.021 0.0
C213 C 0.29449 0.3068 0.93082 0.0
C214 C 0.37189 0.44011 0.90367 0.0
C215 C 0.42971 0.42657 0.91602 0.0
C216 C 0.32423 0.42434 0.92306 0.0
C217 C 0.33495 0.39431 0.95557 0.0
C218 C 0.39338 0.38067 0.96829 0.0
C219 C 0.44027 0.3967 0.94805 0.0
C220 C 0.26254 0.43918 0.90835 0.0
C221 C 0.40629 0.34923 0.00317 0.0
H222 H 0.17778 0.41183 0.04348 0.0
H223 H 0.19523 0.29193 0.96959 0.0
H224 H 0.3238 0.4405 0.02907 0.0
H225 H 0.27287 0.47344 -0.00273 0.0
H226 H 0.25122 0.46198 0.04688 0.0
H227 H 0.27508 0.27415 0.92627 0.0
H228 H 0.29101 0.32666 0.903 0.0
H229 H 0.34208 0.29827 0.93742 0.0
H230 H 0.36406 0.46215 0.87816 0.0
H231 H 0.48522 0.38622 0.95746 0.0
H232 H 0.23495 0.45605 0.93228 0.0
H233 H 0.242 0.40847 0.89896 0.0
H234 H 0.26176 0.46354 0.88327 0.0
H235 H 0.38277 0.36458 0.02945 0.0
H236 H 0.45416 0.3428 0.00982 0.0
H237 H 0.38989 0.31561 -0.0024 0.0
C238 C 0.86523 0.66255 0.01875 0.0
C239 C 0.88705 0.70235 0.00516 0.0
C240 C 0.81339 0.649 0.00309 0.0
C241 C 0.78421 0.6751 0.97234 0.0
C242 C 0.8054 0.71606 0.9593 0.0
C243 C 0.85647 0.72949 0.97624 0.0
C244 C 0.79103 0.60588 0.01834 0.0
C245 C 0.77581 0.74446 0.92626 0.0
C246 C 0.69736 0.6108 0.90083 0.0
C247 C 0.63944 0.6248 0.91292 0.0
C248 C 0.74493 0.62696 0.91997 0.0
C249 C 0.73403 0.65777 0.952 0.0
C250 C 0.67548 0.67194 0.96439 0.0
C251 C 0.62869 0.65556 0.94438 0.0
C252 C 0.80674 0.61151 0.9056 0.0
C253 C 0.66234 0.70423 -0.00124 0.0
H254 H 0.88931 0.6417 0.04116 0.0
H255 H 0.87408 0.76004 0.96567 0.0
H256 H 0.74358 0.61296 0.02596 0.0
H257 H 0.79523 0.57926 -0.00501 0.0
H258 H 0.81565 0.59176 0.0446 0.0
H259 H 0.79569 0.77682 0.92127 0.0
H260 H 0.77955 0.72391 0.89877 0.0
H261 H 0.72815 0.75345 0.93252 0.0
H262 H 0.70535 0.58802 0.87576 0.0
H263 H 0.58368 0.66638 0.95359 0.0
H264 H 0.83348 0.5942 0.92965 0.0
H265 H 0.82817 0.64195 0.89659 0.0
H266 H 0.80758 0.58732 0.88038 0.0
H267 H 0.68513 0.68924 0.02536 0.0
H268 H 0.61438 0.71124 0.00507 0.0
H269 H 0.67941 0.73751 -0.00716 0.0
C270 C 0.91499 0.37064 -0.00829 0.0
C271 C 0.96321 0.38989 0.00705 0.0
C272 C 0.86691 0.39858 0.97553 0.0
C273 C 0.86717 0.44712 0.97422 0.0
C274 C 0.91505 0.46697 -0.0094 0.0
C275 C 0.96219 0.4381 0.00723 0.0
C276 C 0.81691 0.37577 0.95827 0.0
C277 C 0.91722 0.5184 -0.00921 0.0
C278 C 0.77156 0.48838 0.88936 0.0
C279 C 0.71666 0.49639 0.90786 0.0
C280 C 0.82321 0.47875 0.91142 0.0
C281 C 0.81908 0.47545 0.95272 0.0
C282 C 0.76453 0.48935 0.97158 0.0
C283 C 0.71357 0.49993 0.94875 0.0
C284 C 0.88109 0.46659 0.8903 0.0
C285 C 0.75865 0.48771 0.01559 0.0
H286 H 0.91573 0.33346 -0.00905 0.0
H287 H -0.00125 0.45332 0.0199 0.0
H288 H 0.77427 0.39093 0.97114 0.0
H289 H 0.81459 0.38192 0.92615 0.0
H290 H 0.82217 0.33791 0.96343 0.0
H291 H 0.9634 0.52663 -0.00881 0.0
H292 H 0.89445 0.53558 0.96511 0.0
H293 H 0.8952 0.53314 0.01776 0.0
H294 H 0.7736 0.486 0.85762 0.0
H295 H 0.67082 0.50619 0.96293 0.0
H296 H 0.89313 0.42857 0.89069 0.0
H297 H 0.91673 0.48239 0.90529 0.0
H298 H 0.87867 0.47828 0.85927 0.0
H299 H 0.75396 0.45186 0.0247 0.0
H300 H 0.71919 0.5106 0.02593 0.0
H301 H 0.79838 0.49802 0.03018 0.0
C302 C 0.15368 0.68251 -0.00875 0.0
C303 C 0.10506 0.66343 0.00631 0.0
C304 C 0.20208 0.65439 0.97547 0.0
C305 C 0.20179 0.60585 0.9743 0.0
C306 C 0.15362 0.58617 -0.00944 0.0
C307 C 0.10615 0.61521 0.00677 0.0
C308 C 0.2524 0.67701 0.95834 0.0
C309 C 0.15143 0.53474 -0.00902 0.0
C310 C 0.29733 0.5632 0.88937 0.0
C311 C 0.35221 0.55488 0.90774 0.0
C312 C 0.24577 0.57362 0.91152 0.0
C313 C 0.24992 0.57732 0.95279 0.0
C314 C 0.30436 0.5632 0.97158 0.0
C315 C 0.35526 0.5519 0.94866 0.0
C316 C 0.18798 0.58604 0.89048 0.0
C317 C 0.31026 0.5652 0.01555 0.0
H318 H 0.15296 0.71968 -0.00968 0.0
H319 H 0.06932 0.60011 0.01927 0.0
H320 H 0.29484 0.66179 0.97134 0.0
H321 H 0.25507 0.67074 0.92624 0.0
H322 H 0.24721 0.71488 0.96347 0.0
H323 H 0.10524 0.52652 -0.0088 0.0
H324 H 0.17464 0.5173 0.9655 0.0
H325 H 0.17297 0.52027 0.01813 0.0
H326 H 0.29529 0.56516 0.85762 0.0
H327 H 0.39798 0.54541 0.96274 0.0
H328 H 0.17616 0.62408 0.89097 0.0
H329 H 0.15219 0.57036 0.90548 0.0
H330 H 0.19037 0.57439 0.85942 0.0
H331 H 0.31559 0.60103 0.02444 0.0
H332 H 0.3494 0.54204 0.02592 0.0
H333 H 0.2703 0.55547 0.03032 0.0
C334 C 0.67347 0.89904 0.49969 0.0
C335 C 0.68015 0.85064 0.50287 0.0
C336 C 0.71717 0.92193 0.4824 0.0
C337 C 0.77044 0.89619 0.47024 0.0
C338 C 0.7803 0.84809 0.47749 0.0
C339 C 0.73458 0.82567 0.493 0.0
C340 C 0.7039 0.97289 0.47396 0.0
C341 C 0.8378 0.81981 0.46651 0.0
C342 C 0.85481 0.9295 0.38152 0.0
C343 C 0.90053 0.94971 0.39898 0.0
C344 C 0.80999 0.9146 0.40444 0.0
C345 C 0.81282 0.9182 0.44582 0.0
C346 C 0.85785 0.94033 0.46345 0.0
C347 C 0.90094 0.95649 0.4396 0.0
C348 C 0.76091 0.89338 0.38444 0.0
C349 C 0.86279 0.94423 0.50744 0.0
H350 H 0.63265 0.91906 0.50884 0.0
H351 H 0.74065 0.78839 0.49539 0.0
H352 H 0.74255 0.99113 0.48019 0.0
H353 H 0.69349 0.97768 0.44233 0.0
H354 H 0.66559 0.98926 0.49115 0.0
H355 H 0.84204 0.78481 0.47978 0.0
H356 H 0.84055 0.81596 0.43416 0.0
H357 H 0.87566 0.83747 0.47607 0.0
H358 H 0.85482 0.92458 0.34998 0.0
H359 H 0.93696 0.97188 0.45288 0.0
H360 H 0.71747 0.90873 0.39602 0.0
H361 H 0.7654 0.85581 0.39059 0.0
H362 H 0.76133 0.89832 0.35213 0.0
H363 H 0.81985 0.95819 0.52057 0.0
H364 H 0.89641 0.96668 0.5162 0.0
H365 H 0.87525 0.90934 0.52003 0.0
C366 C 0.43563 0.16945 0.45407 0.0
C367 C 0.42447 0.19721 0.48766 0.0
C368 C 0.39081 0.14868 0.43589 0.0
C369 C 0.33262 0.15762 0.45034 0.0
C370 C 0.32054 0.1859 0.48387 0.0
C371 C 0.36678 0.20477 0.50251 0.0
C372 C 0.40562 0.11781 0.40074 0.0
C373 C 0.25856 0.19706 0.49948 0.0
C374 C 0.21057 0.14917 0.37697 0.0
C375 C 0.1896 0.10796 0.38824 0.0
C376 C 0.25687 0.16578 0.39712 0.0
C377 C 0.2839 0.13992 0.4287 0.0
C378 C 0.26423 0.09756 0.43947 0.0
C379 C 0.21637 0.08258 0.41959 0.0
C380 C 0.27576 0.21163 0.38526 0.0
C381 C 0.29318 0.06845 0.47224 0.0
H382 H 0.47942 0.1643 0.4414 0.0
H383 H 0.35759 0.22547 0.52869 0.0
H384 H 0.38781 0.08443 0.40477 0.0
H385 H 0.38479 0.13428 0.37407 0.0
H386 H 0.45389 0.11072 0.39559 0.0
H387 H 0.25664 0.21926 0.52604 0.0
H388 H 0.22996 0.21509 0.47657 0.0
H389 H 0.23993 0.16481 0.50683 0.0
H390 H 0.18962 0.16922 0.35294 0.0
H391 H 0.19846 0.05211 0.42964 0.0
H392 H 0.3228 0.20701 0.37638 0.0
H393 H 0.27146 0.23568 0.41062 0.0
H394 H 0.24917 0.22792 0.36059 0.0
H395 H 0.3411 0.06069 0.46635 0.0
H396 H 0.2742 0.03545 0.47574 0.0
H397 H 0.28809 0.08771 0.50032 0.0
C398 C 0.44624 0.89206 0.51094 0.0
C399 C 0.46425 0.84763 0.49652 0.0
C400 C 0.39351 0.91717 0.49836 0.0
C401 C 0.35914 0.89774 0.46979 0.0
C402 C 0.37691 0.85245 0.45559 0.0
C403 C 0.42917 0.82767 0.4695 0.0
C404 C 0.37608 0.96483 0.51494 0.0
C405 C 0.34136 0.83056 0.42507 0.0
C406 C 0.19744 0.93427 0.45239 0.0
C407 C 0.19889 0.95841 0.41701 0.0
C408 C 0.24959 0.91737 0.47168 0.0
C409 C 0.30428 0.92406 0.45461 0.0
C410 C 0.30582 0.9515 0.42043 0.0
C411 C 0.25277 0.96836 0.40186 0.0
C412 C 0.24625 0.88999 0.509 0.0
C413 C 0.36344 0.96054 0.40218 0.0
H414 H 0.47384 0.90731 0.53189 0.0
H415 H 0.44375 0.79338 0.45827 0.0
H416 H 0.39177 0.99055 0.49484 0.0
H417 H 0.32758 0.97275 0.51802 0.0
H418 H 0.39658 0.9689 0.54406 0.0
H419 H 0.36164 0.79531 0.41684 0.0
H420 H 0.29619 0.82839 0.43626 0.0
H421 H 0.33717 0.8523 0.39828 0.0
H422 H 0.15544 0.92692 0.46409 0.0
H423 H 0.25356 0.98701 0.3744 0.0
H424 H 0.27557 0.9021 0.53167 0.0
H425 H 0.26168 0.85306 0.50321 0.0
H426 H 0.20067 0.89272 0.52089 0.0
H427 H 0.39192 0.97423 0.42454 0.0
H428 H 0.35695 0.98555 0.37755 0.0
H429 H 0.3872 0.92766 0.391 0.0
C430 C 0.67565 0.20969 0.48739 0.0
C431 C 0.63841 0.19091 0.51378 0.0
C432 C 0.72846 0.18428 0.47526 0.0
C433 C 0.74479 0.1394 0.49065 0.0
C434 C 0.7087 0.12135 0.51913 0.0
C435 C 0.65532 0.14723 0.52998 0.0
C436 C 0.76551 0.2048 0.44469 0.0
C437 C 0.72487 0.07483 0.53809 0.0
C438 C 0.84555 0.07024 0.41911 0.0
C439 C 0.89978 0.08285 0.43105 0.0
C440 C 0.79431 0.0847 0.44067 0.0
C441 C 0.79832 0.11155 0.47498 0.0
C442 C 0.85416 0.11873 0.48975 0.0
C443 C 0.9044 0.10509 0.46709 0.0
C444 C 0.73558 0.07577 0.4242 0.0
C445 C 0.86022 0.14446 0.52761 0.0
H446 H 0.66187 0.24334 0.47469 0.0
H447 H 0.62619 0.13292 0.55054 0.0
H448 H 0.81057 0.20651 0.45615 0.0
H449 H 0.76969 0.18249 0.41821 0.0
H450 H 0.74641 0.2401 0.4358 0.0
H451 H 0.73274 0.07992 0.56984 0.0
H452 H 0.68734 0.05421 0.5358 0.0
H453 H 0.76473 0.05474 0.52537 0.0
H454 H 0.84233 0.05293 0.39118 0.0
H455 H 0.94685 0.11412 0.47642 0.0
H456 H 0.71625 0.10659 0.40751 0.0
H457 H 0.70426 0.06964 0.44795 0.0
H458 H 0.74032 0.04564 0.40401 0.0
H459 H 0.8459 0.18179 0.52303 0.0
H460 H 0.90645 0.14028 0.53832 0.0
H461 H 0.83144 0.13213 0.55059 0.0
loop_
_geom_bond_atom_site_label_1
_geom_bond_atom_site_label_2
_geom_bond_distance
_geom_bond_site_symmetry_2
_ccdc_geom_bond_type
H0 C3 0.931 . S
H1 C6 0.928 . S
H2 C8 0.930 . S
C3 H0 0.931 . S
C3 C4 1.413 1_556 S
C3 C5 1.360 1_556 S
C4 C3 1.413 1_554 S
C4 C8 1.429 . S
C5 C3 1.360 1_554 S
C5 C6 1.372 . S
C6 H1 0.928 . S
C6 C5 1.372 . S
C6 C7 1.404 . S
C7 C6 1.404 . S
C7 C8 1.391 . S
C8 H2 0.930 . S
C8 C4 1.429 . S
C8 C7 1.391 . S
H9 C12 0.931 . S
H10 C15 0.928 . S
H11 C17 0.930 . S
C12 H9 0.931 . S
C12 C13 1.413 1_556 S
C12 C14 1.360 1_456 S
C13 C12 1.413 1_554 S
C13 C17 1.429 . S
C14 C12 1.360 1_654 S
C14 C15 1.372 . S
C15 H10 0.928 . S
C15 C14 1.372 . S
C15 C16 1.404 1_655 S
C16 C15 1.404 1_455 S
C16 C17 1.391 . S
C17 H11 0.930 . S
C17 C13 1.429 . S
C17 C16 1.391 . S
H18 C21 0.931 . S
H19 C24 0.928 . S
H20 C26 0.930 . S
C21 H18 0.931 . S
C21 C22 1.413 . S
C21 C23 1.360 . S
C22 C21 1.413 . S
C22 C26 1.429 . S
C23 C21 1.360 . S
C23 C24 1.372 . S
C24 H19 0.928 . S
C24 C23 1.372 . S
C24 C25 1.404 . S
C25 C24 1.404 . S
C25 C26 1.391 . S
C26 H20 0.930 . S
C26 C22 1.429 . S
C26 C25 1.391 . S
H27 C30 0.931 . S
H28 C33 0.928 . S
H29 C35 0.930 . S
C30 H27 0.931 . S
C30 C31 1.413 . S
C30 C32 1.360 . S
C31 C30 1.413 . S
C31 C35 1.429 . S
C32 C30 1.360 . S
C32 C33 1.372 . S
C33 H28 0.928 . S
C33 C32 1.372 . S
C33 C34 1.404 . S
C34 C33 1.404 . S
C34 C35 1.391 . S
C35 H29 0.930 . S
C35 C31 1.429 . S
C35 C34 1.391 . S
Zn36 O42 1.920 . S
Zn36 O48 1.898 . S
Zn36 O51 1.905 1_455 S
Zn37 O45 1.905 . S
Zn37 O46 1.898 . S
Zn37 O54 1.920 . S
Zn38 O41 2.080 . S
Zn38 O44 2.114 1_545 S
Zn38 O47 2.120 1_545 S
Zn38 O49 2.120 . S
Zn38 O50 2.114 1_455 S
Zn38 O53 2.080 1_545 S
C39 O44 1.166 . S
C39 O45 1.182 . S
C40 O46 1.167 . S
C40 O47 1.299 . S
O41 Zn38 2.080 . S
O41 C55 1.305 . S
O42 Zn36 1.920 . S
O42 C55 1.234 . S
C43 O48 1.167 . S
C43 O49 1.299 . S
O44 Zn38 2.114 1_565 S
O44 C39 1.166 . S
O45 Zn37 1.905 . S
O45 C39 1.182 . S
O46 Zn37 1.898 . S
O46 C40 1.167 . S
O47 Zn38 2.120 1_565 S
O47 C40 1.299 . S
O48 Zn36 1.898 . S
O48 C43 1.167 . S
O49 Zn38 2.120 . S
O49 C43 1.299 . S
O50 Zn38 2.114 1_655 S
O50 C52 1.166 . S
O51 Zn36 1.905 1_655 S
O51 C52 1.182 . S
C52 O50 1.166 . S
C52 O51 1.182 . S
O53 Zn38 2.080 1_565 S
O53 C56 1.305 . S
O54 Zn37 1.920 . S
O54 C56 1.234 . S
C55 O41 1.305 . S
C55 O42 1.234 . S
C56 O53 1.305 . S
C56 O54 1.234 . S
Zn57 O63 1.920 . S
Zn57 O69 1.898 . S
Zn57 O72 1.905 . S
Zn58 O66 1.905 . S
Zn58 O67 1.898 . S
Zn58 O75 1.920 . S
Zn59 O62 2.080 . S
Zn59 O65 2.114 . S
Zn59 O68 2.120 . S
Zn59 O70 2.120 . S
Zn59 O71 2.114 . S
Zn59 O74 2.080 . S
C60 O65 1.166 . S
C60 O66 1.182 . S
C61 O67 1.167 . S
C61 O68 1.299 . S
O62 Zn59 2.080 . S
O62 C76 1.305 . S
O63 Zn57 1.920 . S
O63 C76 1.234 . S
C64 O69 1.167 . S
C64 O70 1.299 . S
O65 Zn59 2.114 . S
O65 C60 1.166 . S
O66 Zn58 1.905 . S
O66 C60 1.182 . S
O67 Zn58 1.898 . S
O67 C61 1.167 . S
O68 Zn59 2.120 . S
O68 C61 1.299 . S
O69 Zn57 1.898 . S
O69 C64 1.167 . S
O70 Zn59 2.120 . S
O70 C64 1.299 . S
O71 Zn59 2.114 . S
O71 C73 1.166 . S
O72 Zn57 1.905 . S
O72 C73 1.182 . S
C73 O71 1.166 . S
C73 O72 1.182 . S
O74 Zn59 2.080 . S
O74 C77 1.305 . S
O75 Zn58 1.920 . S
O75 C77 1.234 . S
C76 O62 1.305 . S
C76 O63 1.234 . S
C77 O74 1.305 . S
C77 O75 1.234 . S
C78 C79 1.391 . S
C78 C80 1.394 . S
C78 H94 0.931 . S
C79 C78 1.391 . S
C79 C83 1.376 . S
C80 C78 1.394 . S
C80 C81 1.369 . S
C80 C84 1.531 . S
C81 C80 1.369 . S
C81 C82 1.410 . S
C81 C89 1.503 . S
C82 C81 1.410 . S
C82 C83 1.392 . S
C82 C85 1.511 . S
C83 C79 1.376 . S
C83 C82 1.392 . S
C83 H95 0.929 . S
C84 C80 1.531 . S
C84 H96 0.960 . S
C84 H97 0.962 . S
C84 H98 0.960 . S
C85 C82 1.511 . S
C85 H99 0.961 . S
C85 H100 0.961 . S
C85 H101 0.961 . S
C86 C87 1.370 . S
C86 C88 1.363 . S
C86 H102 0.931 . S
C87 C86 1.370 . S
C87 C91 1.408 . S
C88 C86 1.363 . S
C88 C89 1.370 . S
C88 C92 1.524 . S
C89 C81 1.503 . S
C89 C88 1.370 . S
C89 C90 1.403 . S
C90 C89 1.403 . S
C90 C91 1.404 . S
C90 C93 1.539 . S
C91 C87 1.408 . S
C91 C90 1.404 . S
C91 H103 0.930 . S
C92 C88 1.524 . S
C92 H104 0.953 1_455 S
C92 H105 0.961 . S
C92 H106 0.961 1_455 S
C93 C90 1.539 . S
C93 H107 0.958 . S
C93 H108 0.961 . S
C93 H109 0.960 . S
H94 C78 0.931 . S
H95 C83 0.929 . S
H96 C84 0.960 . S
H97 C84 0.962 . S
H98 C84 0.960 . S
H99 C85 0.961 . S
H100 C85 0.961 . S
H101 C85 0.961 . S
H102 C86 0.931 . S
H103 C91 0.930 . S
H104 C92 0.953 1_655 S
H105 C92 0.961 . S
H106 C92 0.961 1_655 S
H107 C93 0.958 . S
H108 C93 0.961 . S
H109 C93 0.960 . S
C110 C111 1.391 . S
C110 C112 1.394 . S
C110 H126 0.931 . S
C111 C110 1.391 . S
C111 C115 1.376 1_455 S
C112 C110 1.394 . S
C112 C113 1.369 . S
C112 C116 1.531 . S
C113 C112 1.369 . S
C113 C114 1.410 1_455 S
C113 C121 1.503 . S
C114 C113 1.410 1_655 S
C114 C115 1.392 . S
C114 C117 1.511 . S
C115 C111 1.376 1_655 S
C115 C114 1.392 . S
C115 H127 0.929 . S
C116 C112 1.531 . S
C116 H128 0.960 . S
C116 H129 0.962 . S
C116 H130 0.960 . S
C117 C114 1.511 . S
C117 H131 0.961 . S
C117 H132 0.961 . S
C117 H133 0.961 . S
C118 C119 1.370 . S
C118 C120 1.363 . S
C118 H134 0.931 . S
C119 C118 1.370 . S
C119 C123 1.408 1_455 S
C120 C118 1.363 . S
C120 C121 1.370 . S
C120 C124 1.524 . S
C121 C113 1.503 . S
C121 C120 1.370 . S
C121 C122 1.403 1_455 S
C122 C121 1.403 1_655 S
C122 C123 1.404 . S
C122 C125 1.539 . S
C123 C119 1.408 1_655 S
C123 C122 1.404 . S
C123 H135 0.930 . S
C124 C120 1.524 . S
C124 H136 0.956 . S
C124 H137 0.961 . S
C124 H138 0.961 . S
C125 C122 1.539 . S
C125 H139 0.958 . S
C125 H140 0.961 . S
C125 H141 0.960 . S
H126 C110 0.931 . S
H127 C115 0.929 . S
H128 C116 0.960 . S
H129 C116 0.962 . S
H130 C116 0.960 . S
H131 C117 0.961 . S
H132 C117 0.961 . S
H133 C117 0.961 . S
H134 C118 0.931 . S
H135 C123 0.930 . S
H136 C124 0.956 . S
H137 C124 0.961 . S
H138 C124 0.961 . S
H139 C125 0.958 . S
H140 C125 0.961 . S
H141 C125 0.960 . S
C142 C143 1.391 . S
C142 C144 1.394 . S
C142 H158 0.931 . S
C143 C142 1.391 . S
C143 C147 1.376 . S
C144 C142 1.394 . S
C144 C145 1.369 . S
C144 C148 1.531 . S
C145 C144 1.369 . S
C145 C146 1.410 . S
C145 C153 1.503 . S
C146 C145 1.410 . S
C146 C147 1.392 . S
C146 C149 1.511 . S
C147 C143 1.376 . S
C147 C146 1.392 . S
C147 H159 0.929 . S
C148 C144 1.531 . S
C148 H160 0.960 . S
C148 H161 0.962 . S
C148 H162 0.960 . S
C149 C146 1.511 . S
C149 H163 0.961 . S
C149 H164 0.961 . S
C149 H165 0.961 . S
C150 C151 1.370 . S
C150 C152 1.363 . S
C150 H166 0.931 . S
C151 C150 1.370 . S
C151 C155 1.408 . S
C152 C150 1.363 . S
C152 C153 1.370 . S
C152 C156 1.524 . S
C153 C145 1.503 . S
C153 C152 1.370 . S
C153 C154 1.403 . S
C154 C153 1.403 . S
C154 C155 1.404 . S
C154 C157 1.539 . S
C155 C151 1.408 . S
C155 C154 1.404 . S
C155 H167 0.930 . S
C156 C152 1.524 . S
C156 H168 0.956 . S
C156 H169 0.961 . S
C156 H170 0.961 . S
C157 C154 1.539 . S
C157 H171 0.958 . S
C157 H172 0.961 . S
C157 H173 0.960 . S
H158 C142 0.931 . S
H159 C147 0.929 . S
H160 C148 0.960 . S
H161 C148 0.962 . S
H162 C148 0.960 . S
H163 C149 0.961 . S
H164 C149 0.961 . S
H165 C149 0.961 . S
H166 C150 0.931 . S
H167 C155 0.930 . S
H168 C156 0.956 . S
H169 C156 0.961 . S
H170 C156 0.961 . S
H171 C157 0.958 . S
H172 C157 0.961 . S
H173 C157 0.960 . S
C174 C175 1.391 . S
C174 C176 1.394 . S
C174 H190 0.931 . S
C175 C174 1.391 . S
C175 C179 1.376 . S
C176 C174 1.394 . S
C176 C177 1.369 . S
C176 C180 1.531 . S
C177 C176 1.369 . S
C177 C178 1.410 . S
C177 C185 1.503 . S
C178 C177 1.410 . S
C178 C179 1.392 . S
C178 C181 1.511 . S
C179 C175 1.376 . S
C179 C178 1.392 . S
C179 H191 0.929 . S
C180 C176 1.531 . S
C180 H192 0.960 . S
C180 H193 0.962 . S
C180 H194 0.960 . S
C181 C178 1.511 . S
C181 H195 0.961 . S
C181 H196 0.961 . S
C181 H197 0.961 . S
C182 C183 1.370 . S
C182 C184 1.363 . S
C182 H198 0.931 . S
C183 C182 1.370 . S
C183 C187 1.408 . S
C184 C182 1.363 . S
C184 C185 1.370 . S
C184 C188 1.524 . S
C185 C177 1.503 . S
C185 C184 1.370 . S
C185 C186 1.403 . S
C186 C185 1.403 . S
C186 C187 1.404 . S
C186 C189 1.539 . S
C187 C183 1.408 . S
C187 C186 1.404 . S
C187 H199 0.930 . S
C188 C184 1.524 . S
C188 H200 0.956 . S
C188 H201 0.961 . S
C188 H202 0.961 . S
C189 C186 1.539 . S
C189 H203 0.958 . S
C189 H204 0.961 . S
C189 H205 0.960 . S
H190 C174 0.931 . S
H191 C179 0.929 . S
H192 C180 0.960 . S
H193 C180 0.962 . S
H194 C180 0.960 . S
H195 C181 0.961 . S
H196 C181 0.961 . S
H197 C181 0.961 . S
H198 C182 0.931 . S
H199 C187 0.930 . S
H200 C188 0.956 . S
H201 C188 0.961 . S
H202 C188 0.961 . S
H203 C189 0.958 . S
H204 C189 0.961 . S
H205 C189 0.960 . S
C206 C207 1.390 1_554 S
C206 C208 1.394 1_554 S
C206 H222 0.931 . S
C207 C206 1.390 1_556 S
C207 C211 1.377 . S
C208 C206 1.394 1_556 S
C208 C209 1.369 . S
C208 C212 1.530 . S
C209 C208 1.369 . S
C209 C210 1.410 . S
C209 C217 1.503 . S
C210 C209 1.410 . S
C210 C211 1.392 . S
C210 C213 1.511 . S
C211 C207 1.377 . S
C211 C210 1.392 . S
C211 H223 0.929 . S
C212 C208 1.530 . S
C212 H224 0.961 1_556 S
C212 H225 0.959 . S
C212 H226 0.963 1_556 S
C213 C210 1.511 . S
C213 H227 0.961 . S
C213 H228 0.961 . S
C213 H229 0.961 . S
C214 C215 1.370 . S
C214 C216 1.363 . S
C214 H230 0.931 . S
C215 C214 1.370 . S
C215 C219 1.408 . S
C216 C214 1.363 . S
C216 C217 1.370 . S
C216 C220 1.524 . S
C217 C209 1.503 . S
C217 C216 1.370 . S
C217 C218 1.403 . S
C218 C217 1.403 . S
C218 C219 1.404 . S
C218 C221 1.539 1_556 S
C219 C215 1.408 . S
C219 C218 1.404 . S
C219 H231 0.930 1_556 S
C220 C216 1.524 . S
C220 H232 0.956 . S
C220 H233 0.961 . S
C220 H234 0.961 . S
C221 C218 1.539 1_554 S
C221 H235 0.958 . S
C221 H236 0.961 . S
C221 H237 0.960 . S
H222 C206 0.931 . S
H223 C211 0.929 . S
H224 C212 0.961 1_554 S
H225 C212 0.959 . S
H226 C212 0.963 1_554 S
H227 C213 0.961 . S
H228 C213 0.961 . S
H229 C213 0.961 . S
H230 C214 0.931 . S
H231 C219 0.930 1_554 S
H232 C220 0.956 . S
H233 C220 0.961 . S
H234 C220 0.961 . S
H235 C221 0.958 . S
H236 C221 0.961 . S
H237 C221 0.960 . S
C238 C239 1.391 1_556 S
C238 C240 1.394 . S
C238 H254 0.931 . S
C239 C238 1.391 1_554 S
C239 C243 1.376 . S
C240 C238 1.394 . S
C240 C241 1.369 . S
C240 C244 1.531 . S
C241 C240 1.369 . S
C241 C242 1.410 1_556 S
C241 C249 1.503 . S
C242 C241 1.410 1_554 S
C242 C243 1.392 . S
C242 C245 1.511 . S
C243 C239 1.376 . S
C243 C242 1.392 . S
C243 H255 0.929 . S
C244 C240 1.531 . S
C244 H256 0.960 . S
C244 H257 0.962 . S
C244 H258 0.960 . S
C245 C242 1.511 . S
C245 H259 0.961 . S
C245 H260 0.961 1_554 S
C245 H261 0.961 . S
C246 C247 1.370 . S
C246 C248 1.363 . S
C246 H262 0.931 . S
C247 C246 1.370 . S
C247 C251 1.408 . S
C248 C246 1.363 . S
C248 C249 1.370 . S
C248 C252 1.524 . S
C249 C241 1.503 . S
C249 C248 1.370 . S
C249 C250 1.403 . S
C250 C249 1.403 . S
C250 C251 1.404 . S
C250 C253 1.539 1_556 S
C251 C247 1.408 . S
C251 C250 1.404 . S
C251 H263 0.930 1_556 S
C252 C248 1.524 . S
C252 H264 0.956 . S
C252 H265 0.961 . S
C252 H266 0.961 . S
C253 C250 1.539 1_554 S
C253 H267 0.958 . S
C253 H268 0.961 . S
C253 H269 0.960 . S
H254 C238 0.931 . S
H255 C243 0.929 . S
H256 C244 0.960 . S
H257 C244 0.962 . S
H258 C244 0.960 . S
H259 C245 0.961 . S
H260 C245 0.961 1_556 S
H261 C245 0.961 . S
H262 C246 0.931 . S
H263 C251 0.930 1_554 S
H264 C252 0.956 . S
H265 C252 0.961 . S
H266 C252 0.961 . S
H267 C253 0.958 . S
H268 C253 0.961 . S
H269 C253 0.960 . S
C270 C271 1.391 1_655 S
C270 C272 1.394 . S
C270 H286 0.931 . S
C271 C270 1.391 1_455 S
C271 C275 1.376 1_456 S
C272 C270 1.394 . S
C272 C273 1.369 . S
C272 C276 1.531 . S
C273 C272 1.369 . S
C273 C274 1.410 . S
C273 C281 1.503 . S
C274 C273 1.410 . S
C274 C275 1.392 1_556 S
C274 C277 1.511 1_556 S
C275 C271 1.376 1_654 S
C275 C274 1.392 1_554 S
C275 H287 0.929 . S
C276 C272 1.531 . S
C276 H288 0.960 . S
C276 H289 0.962 . S
C276 H290 0.960 . S
C277 C274 1.511 1_554 S
C277 H291 0.961 . S
C277 H292 0.961 1_554 S
C277 H293 0.961 . S
C278 C279 1.370 . S
C278 C280 1.363 . S
C278 H294 0.931 . S
C279 C278 1.370 . S
C279 C283 1.408 . S
C280 C278 1.363 . S
C280 C281 1.370 . S
C280 C284 1.524 . S
C281 C273 1.503 . S
C281 C280 1.370 . S
C281 C282 1.403 . S
C282 C281 1.403 . S
C282 C283 1.404 . S
C282 C285 1.539 . S
C283 C279 1.408 . S
C283 C282 1.404 . S
C283 H295 0.930 . S
C284 C280 1.524 . S
C284 H296 0.956 . S
C284 H297 0.961 . S
C284 H298 0.961 . S
C285 C282 1.539 . S
C285 H299 0.958 . S
C285 H300 0.961 . S
C285 H301 0.960 1_556 S
H286 C270 0.931 . S
H287 C275 0.929 . S
H288 C276 0.960 . S
H289 C276 0.962 . S
H290 C276 0.960 . S
H291 C277 0.961 . S
H292 C277 0.961 1_556 S
H293 C277 0.961 . S
H294 C278 0.931 . S
H295 C283 0.930 . S
H296 C284 0.956 . S
H297 C284 0.961 . S
H298 C284 0.961 . S
H299 C285 0.958 . S
H300 C285 0.961 . S
H301 C285 0.960 1_554 S
C302 C303 1.391 . S
C302 C304 1.394 . S
C302 H318 0.931 . S
C303 C302 1.391 . S
C303 C307 1.376 . S
C304 C302 1.394 . S
C304 C305 1.369 . S
C304 C308 1.531 . S
C305 C304 1.369 . S
C305 C306 1.410 . S
C305 C313 1.503 . S
C306 C305 1.410 . S
C306 C307 1.392 . S
C306 C309 1.511 . S
C307 C303 1.376 . S
C307 C306 1.392 . S
C307 H319 0.929 . S
C308 C304 1.531 . S
C308 H320 0.960 . S
C308 H321 0.962 . S
C308 H322 0.960 . S
C309 C306 1.511 . S
C309 H323 0.961 . S
C309 H324 0.961 . S
C309 H325 0.961 . S
C310 C311 1.370 . S
C310 C312 1.363 . S
C310 H326 0.931 . S
C311 C310 1.370 . S
C311 C315 1.408 . S
C312 C310 1.363 . S
C312 C313 1.370 . S
C312 C316 1.524 . S
C313 C305 1.503 . S
C313 C312 1.370 . S
C313 C314 1.403 . S
C314 C313 1.403 . S
C314 C315 1.404 . S
C314 C317 1.539 1_556 S
C315 C311 1.408 . S
C315 C314 1.404 . S
C315 H327 0.930 . S
C316 C312 1.524 . S
C316 H328 0.956 . S
C316 H329 0.961 . S
C316 H330 0.961 . S
C317 C314 1.539 1_554 S
C317 H331 0.958 . S
C317 H332 0.961 . S
C317 H333 0.960 . S
H318 C302 0.931 . S
H319 C307 0.929 . S
H320 C308 0.960 . S
H321 C308 0.962 . S
H322 C308 0.960 . S
H323 C309 0.961 . S
H324 C309 0.961 . S
H325 C309 0.961 . S
H326 C310 0.931 . S
H327 C315 0.930 . S
H328 C316 0.956 . S
H329 C316 0.961 . S
H330 C316 0.961 . S
H331 C317 0.958 . S
H332 C317 0.961 . S
H333 C317 0.960 . S
C334 C335 1.391 . S
C334 C336 1.394 . S
C334 H350 0.931 . S
C335 C334 1.391 . S
C335 C339 1.376 . S
C336 C334 1.394 . S
C336 C337 1.369 . S
C336 C340 1.531 . S
C337 C336 1.369 . S
C337 C338 1.410 . S
C337 C345 1.503 . S
C338 C337 1.410 . S
C338 C339 1.392 . S
C338 C341 1.511 . S
C339 C335 1.376 . S
C339 C338 1.392 . S
C339 H351 0.929 . S
C340 C336 1.531 . S
C340 H352 0.960 . S
C340 H353 0.962 . S
C340 H354 0.960 . S
C341 C338 1.511 . S
C341 H355 0.961 . S
C341 H356 0.961 . S
C341 H357 0.961 . S
C342 C343 1.370 . S
C342 C344 1.363 . S
C342 H358 0.931 . S
C343 C342 1.370 . S
C343 C347 1.408 . S
C344 C342 1.363 . S
C344 C345 1.370 . S
C344 C348 1.524 . S
C345 C337 1.503 . S
C345 C344 1.370 . S
C345 C346 1.403 . S
C346 C345 1.403 . S
C346 C347 1.404 . S
C346 C349 1.539 . S
C347 C343 1.408 . S
C347 C346 1.404 . S
C347 H359 0.930 . S
C348 C344 1.524 . S
C348 H360 0.956 . S
C348 H361 0.961 . S
C348 H362 0.961 . S
C349 C346 1.539 . S
C349 H363 0.958 . S
C349 H364 0.961 . S
C349 H365 0.960 . S
H350 C334 0.931 . S
H351 C339 0.929 . S
H352 C340 0.960 . S
H353 C340 0.962 . S
H354 C340 0.960 . S
H355 C341 0.961 . S
H356 C341 0.961 . S
H357 C341 0.961 . S
H358 C342 0.931 . S
H359 C347 0.930 . S
H360 C348 0.956 . S
H361 C348 0.961 . S
H362 C348 0.961 . S
H363 C349 0.958 . S
H364 C349 0.961 . S
H365 C349 0.960 . S
C366 C367 1.391 . S
C366 C368 1.394 . S
C366 H382 0.931 . S
C367 C366 1.391 . S
C367 C371 1.376 . S
C368 C366 1.394 . S
C368 C369 1.369 . S
C368 C372 1.531 . S
C369 C368 1.369 . S
C369 C370 1.410 . S
C369 C377 1.503 . S
C370 C369 1.410 . S
C370 C371 1.392 . S
C370 C373 1.511 . S
C371 C367 1.376 . S
C371 C370 1.392 . S
C371 H383 0.929 . S
C372 C368 1.531 . S
C372 H384 0.960 . S
C372 H385 0.962 . S
C372 H386 0.960 . S
C373 C370 1.511 . S
C373 H387 0.961 . S
C373 H388 0.961 . S
C373 H389 0.961 . S
C374 C375 1.370 . S
C374 C376 1.363 . S
C374 H390 0.931 . S
C375 C374 1.370 . S
C375 C379 1.408 . S
C376 C374 1.363 . S
C376 C377 1.370 . S
C376 C380 1.524 . S
C377 C369 1.503 . S
C377 C376 1.370 . S
C377 C378 1.403 . S
C378 C377 1.403 . S
C378 C379 1.404 . S
C378 C381 1.539 . S
C379 C375 1.408 . S
C379 C378 1.404 . S
C379 H391 0.930 . S
C380 C376 1.524 . S
C380 H392 0.956 . S
C380 H393 0.961 . S
C380 H394 0.961 . S
C381 C378 1.539 . S
C381 H395 0.958 . S
C381 H396 0.961 . S
C381 H397 0.960 . S
H382 C366 0.931 . S
H383 C371 0.929 . S
H384 C372 0.960 . S
H385 C372 0.962 . S
H386 C372 0.960 . S
H387 C373 0.961 . S
H388 C373 0.961 . S
H389 C373 0.961 . S
H390 C374 0.931 . S
H391 C379 0.930 . S
H392 C380 0.956 . S
H393 C380 0.961 . S
H394 C380 0.961 . S
H395 C381 0.958 . S
H396 C381 0.961 . S
H397 C381 0.960 . S
C398 C399 1.391 . S
C398 C400 1.394 . S
C398 H414 0.931 . S
C399 C398 1.391 . S
C399 C403 1.376 . S
C400 C398 1.394 . S
C400 C401 1.369 . S
C400 C404 1.531 . S
C401 C400 1.369 . S
C401 C402 1.410 . S
C401 C409 1.503 . S
C402 C401 1.410 . S
C402 C403 1.392 . S
C402 C405 1.511 . S
C403 C399 1.376 . S
C403 C402 1.392 . S
C403 H415 0.929 . S
C404 C400 1.531 . S
C404 H416 0.960 . S
C404 H417 0.962 . S
C404 H418 0.960 . S
C405 C402 1.511 . S
C405 H419 0.961 . S
C405 H420 0.961 . S
C405 H421 0.961 . S
C406 C407 1.370 . S
C406 C408 1.363 . S
C406 H422 0.931 . S
C407 C406 1.370 . S
C407 C411 1.408 . S
C408 C406 1.363 . S
C408 C409 1.370 . S
C408 C412 1.524 . S
C409 C401 1.503 . S
C409 C408 1.370 . S
C409 C410 1.403 . S
C410 C409 1.403 . S
C410 C411 1.404 . S
C410 C413 1.539 . S
C411 C407 1.408 . S
C411 C410 1.404 . S
C411 H423 0.930 . S
C412 C408 1.524 . S
C412 H424 0.956 . S
C412 H425 0.961 . S
C412 H426 0.961 . S
C413 C410 1.539 . S
C413 H427 0.958 . S
C413 H428 0.961 . S
C413 H429 0.960 . S
H414 C398 0.931 . S
H415 C403 0.929 . S
H416 C404 0.960 . S
H417 C404 0.962 . S
H418 C404 0.960 . S
H419 C405 0.961 . S
H420 C405 0.961 . S
H421 C405 0.961 . S
H422 C406 0.931 . S
H423 C411 0.930 . S
H424 C412 0.956 . S
H425 C412 0.961 . S
H426 C412 0.961 . S
H427 C413 0.958 . S
H428 C413 0.961 . S
H429 C413 0.960 . S
C430 C431 1.391 . S
C430 C432 1.394 . S
C430 H446 0.931 . S
C431 C430 1.391 . S
C431 C435 1.376 . S
C432 C430 1.394 . S
C432 C433 1.369 . S
C432 C436 1.531 . S
C433 C432 1.369 . S
C433 C434 1.410 . S
C433 C441 1.503 . S
C434 C433 1.410 . S
C434 C435 1.392 . S
C434 C437 1.511 . S
C435 C431 1.376 . S
C435 C434 1.392 . S
C435 H447 0.929 . S
C436 C432 1.531 . S
C436 H448 0.960 . S
C436 H449 0.962 . S
C436 H450 0.960 . S
C437 C434 1.511 . S
C437 H451 0.961 . S
C437 H452 0.961 . S
C437 H453 0.961 . S
C438 C439 1.370 . S
C438 C440 1.363 . S
C438 H454 0.931 . S
C439 C438 1.370 . S
C439 C443 1.408 . S
C440 C438 1.363 . S
C440 C441 1.370 . S
C440 C444 1.524 . S
C441 C433 1.503 . S
C441 C440 1.370 . S
C441 C442 1.403 . S
C442 C441 1.403 . S
C442 C443 1.404 . S
C442 C445 1.539 . S
C443 C439 1.408 . S
C443 C442 1.404 . S
C443 H455 0.930 . S
C444 C440 1.524 . S
C444 H456 0.956 . S
C444 H457 0.961 . S
C444 H458 0.961 . S
C445 C442 1.539 . S
C445 H459 0.958 . S
C445 H460 0.961 . S
C445 H461 0.960 . S
H446 C430 0.931 . S
H447 C435 0.929 . S
H448 C436 0.960 . S
H449 C436 0.962 . S
H450 C436 0.960 . S
H451 C437 0.961 . S
H452 C437 0.961 . S
H453 C437 0.961 . S
H454 C438 0.931 . S
H455 C443 0.930 . S
H456 C444 0.956 . S
H457 C444 0.961 . S
H458 C444 0.961 . S
H459 C445 0.958 . S
H460 C445 0.961 . S
H461 C445 0.960 . S
C87 C43 1.374 . S
C79 C7 1.491 . S
C119 C39 1.388 . S
C111 C16 1.494 . S
C151 C64 1.355 . S
C143 C25 1.475 . S
C175 C34 1.474 . S
C183 C60 1.363 . S
C207 C5 1.230 1_556 S
C215 C61 1.117 . S
C247 C76 1.150 . S
C239 C14 1.244 . S
C271 C4 1.642 1_556 S
C279 C77 1.507 . S
C311 C73 1.539 . S
C303 C13 1.650 1_556 S
C343 C40 1.113 1_655 S
C335 C23 1.234 . S
C367 C32 1.237 . S
C375 C55 1.155 . S
C407 C56 1.529 . S
C399 C22 1.632 . S
C439 C52 1.550 . S
C431 C31 1.645 . S
