# Generated by pormake.
# Topology nom, (4,4)-cn, num edge types: 1
# Building blocks:
#     Node 0, Type 0, BuildingBlock: MIFKUJ_clean_linker_1, # of connection points: 4
#     Node 1, Type 0, BuildingBlock: MIFKUJ_clean_linker_1, # of connection points: 4
#     Node 2, Type 0, BuildingBlock: MIFKUJ_clean_linker_1, # of connection points: 4
#     Node 3, Type 0, BuildingBlock: MIFKUJ_clean_linker_1, # of connection points: 4
#     Node 4, Type 0, BuildingBlock: MIFKUJ_clean_linker_1, # of connection points: 4
#     Node 5, Type 0, BuildingBlock: MIFKUJ_clean_linker_1, # of connection points: 4
#     Node 6, Type 1, BuildingBlock: TATPOV_clean_sbu_0, # of connection points: 4
#     Node 7, Type 1, BuildingBlock: TATPOV_clean_sbu_0, # of connection points: 4
#     Node 8, Type 1, BuildingBlock: TATPOV_clean_sbu_0, # of connection points: 4
#     Node 9, Type 1, BuildingBlock: TATPOV_clean_sbu_0, # of connection points: 4
#     Node 10, Type 1, BuildingBlock: TATPOV_clean_sbu_0, # of connection points: 4
#     Node 11, Type 1, BuildingBlock: TATPOV_clean_sbu_0, # of connection points: 4
#     Edge 12, Type (0, 1), BuildingBlock: ZUJKAS_clean_linker_0, # of connection points: 2
#     Edge 13, Type (0, 1), BuildingBlock: ZUJKAS_clean_linker_0, # of connection points: 2
#     Edge 14, Type (0, 1), BuildingBlock: ZUJKAS_clean_linker_0, # of connection points: 2
#     Edge 15, Type (0, 1), BuildingBlock: ZUJKAS_clean_linker_0, # of connection points: 2
#     Edge 16, Type (0, 1), BuildingBlock: ZUJKAS_clean_linker_0, # of connection points: 2
#     Edge 17, Type (0, 1), BuildingBlock: ZUJKAS_clean_linker_0, # of connection points: 2
#     Edge 18, Type (0, 1), BuildingBlock: ZUJKAS_clean_linker_0, # of connection points: 2
#     Edge 19, Type (0, 1), BuildingBlock: ZUJKAS_clean_linker_0, # of connection points: 2
#     Edge 20, Type (0, 1), BuildingBlock: ZUJKAS_clean_linker_0, # of connection points: 2
#     Edge 21, Type (0, 1), BuildingBlock: ZUJKAS_clean_linker_0, # of connection points: 2
#     Edge 22, Type (0, 1), BuildingBlock: ZUJKAS_clean_linker_0, # of connection points: 2
#     Edge 23, Type (0, 1), BuildingBlock: ZUJKAS_clean_linker_0, # of connection points: 2
#     Edge 24, Type (0, 1), BuildingBlock: ZUJKAS_clean_linker_0, # of connection points: 2
#     Edge 25, Type (0, 1), BuildingBlock: ZUJKAS_clean_linker_0, # of connection points: 2
#     Edge 26, Type (0, 1), BuildingBlock: ZUJKAS_clean_linker_0, # of connection points: 2
#     Edge 27, Type (0, 1), BuildingBlock: ZUJKAS_clean_linker_0, # of connection points: 2
#     Edge 28, Type (0, 1), BuildingBlock: ZUJKAS_clean_linker_0, # of connection points: 2
#     Edge 29, Type (0, 1), BuildingBlock: ZUJKAS_clean_linker_0, # of connection points: 2
#     Edge 30, Type (0, 1), BuildingBlock: ZUJKAS_clean_linker_0, # of connection points: 2
#     Edge 31, Type (0, 1), BuildingBlock: ZUJKAS_clean_linker_0, # of connection points: 2
#     Edge 32, Type (0, 1), BuildingBlock: ZUJKAS_clean_linker_0, # of connection points: 2
#     Edge 33, Type (0, 1), BuildingBlock: ZUJKAS_clean_linker_0, # of connection points: 2
#     Edge 34, Type (0, 1), BuildingBlock: ZUJKAS_clean_linker_0, # of connection points: 2
#     Edge 35, Type (0, 1), BuildingBlock: ZUJKAS_clean_linker_0, # of connection points: 2
# Relax obj value: 0.019
# Max RMSD: 0.115
# Mean RMSD: 0.104
data_MOF--net-nom--node1-TATPOV_clean_sbu_0--node2-MIFKUJ_clean_linker_1--edge1-ZUJKAS_clean_linker_0
_symmetry_space_group_name_H-M    P1
_symmetry_Int_Tables_number       1
_symmetry_cell_setting            triclinic
loop_
_symmetry_equiv_pos_as_xyz
'x, y, z'
_cell_length_a     65.827917
_cell_length_b     66.709184
_cell_length_c     69.912522
_cell_angle_alpha  90.613624
_cell_angle_beta   90.573727
_cell_angle_gamma 119.99861
loop_
_atom_site_label
_atom_site_type_symbol
_atom_site_fract_x
_atom_site_fract_y
_atom_site_fract_z
_atom_type_partial_charge
H0 H 0.98352 0.44258 0.28355 0.0
H1 H 0.95399 0.42918 0.25769 0.0
H2 H 0.93183 0.47663 0.27777 0.0
H3 H 0.96187 0.4905 0.30302 0.0
H4 H 0.02073 0.48736 0.28977 0.0
H5 H 0.95055 0.43257 0.32588 0.0
H6 H 0.91013 0.41873 0.33614 0.0
H7 H 0.9313 0.48671 0.35956 0.0
H8 H 0.97137 0.50042 0.3492 0.0
H9 H 0.03337 0.52949 0.36472 0.0
H10 H 0.0631 0.54852 0.38986 0.0
H11 H 0.09928 0.51362 0.36936 0.0
H12 H 0.0688 0.49381 0.34461 0.0
H13 H 0.00264 0.48702 0.3585 0.0
H14 H 0.06309 0.54486 0.32335 0.0
H15 H 0.10186 0.56992 0.31034 0.0
H16 H 0.09985 0.51065 0.2828 0.0
H17 H 0.06104 0.48544 0.29628 0.0
C18 C 0.97469 0.46731 0.29536 0.0
C19 C 0.97222 0.45001 0.28238 0.0
C20 C 0.95523 0.44226 0.2677 0.0
C21 C 0.94053 0.45183 0.26566 0.0
C22 C 0.94301 0.46907 0.27879 0.0
C23 C 0.96 0.47683 0.29339 0.0
C24 C 0.9933 0.47622 0.31045 0.0
C25 C 0.01681 0.48673 0.30486 0.0
C26 C 0.98819 0.47657 0.33002 0.0
C27 C 0.96391 0.46754 0.33673 0.0
C28 C 0.94642 0.44443 0.33325 0.0
C29 C 0.92343 0.43653 0.33918 0.0
C30 C 0.91759 0.45171 0.34853 0.0
C31 C 0.93523 0.47472 0.35217 0.0
C32 C 0.95816 0.48252 0.34641 0.0
C33 C 0.04883 0.51022 0.35274 0.0
C34 C 0.04764 0.52583 0.36567 0.0
C35 C 0.06483 0.53692 0.37992 0.0
C36 C 0.08368 0.53271 0.38157 0.0
C37 C 0.08491 0.51711 0.36857 0.0
C38 C 0.06761 0.50594 0.35431 0.0
C39 C 0.03015 0.49826 0.33785 0.0
C40 C 0.00665 0.4871 0.34347 0.0
C41 C 0.03528 0.49844 0.31822 0.0
C42 C 0.05931 0.51324 0.31098 0.0
C43 C 0.07112 0.53718 0.31476 0.0
C44 C 0.09317 0.55152 0.30714 0.0
C45 C 0.10384 0.54226 0.29546 0.0
C46 C 0.09213 0.51823 0.29187 0.0
C47 C 0.06996 0.50385 0.29947 0.0
H48 H 0.46868 0.97484 0.51131 0.0
H49 H 0.4463 0.93463 0.52134 0.0
H50 H 0.49853 0.92119 0.49716 0.0
H51 H 0.52098 0.96169 0.48701 0.0
H52 H 0.51463 0.00877 0.52088 0.0
H53 H 0.46755 0.96735 0.46503 0.0
H54 H 0.45317 0.93792 0.43948 0.0
H55 H 0.52395 0.96568 0.41938 0.0
H56 H 0.5383 0.99481 0.44531 0.0
H57 H 0.56322 0.06974 0.45627 0.0
H58 H 0.57224 0.10788 0.44487 0.0
H59 H 0.51741 0.1052 0.48015 0.0
H60 H 0.50793 0.06688 0.49082 0.0
H61 H 0.52424 0.02865 0.45215 0.0
H62 H 0.56911 0.07618 0.50543 0.0
H63 H 0.58127 0.10526 0.53118 0.0
H64 H 0.51333 0.06524 0.55691 0.0
H65 H 0.501 0.03688 0.53079 0.0
C66 C 0.49643 0.97119 0.49839 0.0
C67 C 0.47538 0.96327 0.50823 0.0
C68 C 0.46254 0.94029 0.51383 0.0
C69 C 0.47064 0.92481 0.50991 0.0
C70 C 0.49197 0.93282 0.50038 0.0
C71 C 0.50472 0.95585 0.49454 0.0
C72 C 0.50922 0.99548 0.49201 0.0
C73 C 0.51676 0.01321 0.50586 0.0
C74 C 0.51264 0.00116 0.47245 0.0
C75 C 0.50402 0.98309 0.45717 0.0
C76 C 0.48 0.96691 0.45526 0.0
C77 C 0.47179 0.95023 0.44056 0.0
C78 C 0.48743 0.94949 0.42741 0.0
C79 C 0.51151 0.96564 0.42943 0.0
C80 C 0.51971 0.98238 0.44413 0.0
C81 C 0.53514 0.06558 0.47461 0.0
C82 C 0.55317 0.07741 0.46152 0.0
C83 C 0.5584 0.09926 0.45512 0.0
C84 C 0.54555 0.10961 0.4616 0.0
C85 C 0.52747 0.09765 0.47468 0.0
C86 C 0.52224 0.07584 0.48101 0.0
C87 C 0.52894 0.04208 0.48105 0.0
C88 C 0.52272 0.02444 0.46721 0.0
C89 C 0.52664 0.03646 0.50068 0.0
C90 C 0.53409 0.05438 0.51611 0.0
C91 C 0.55675 0.07385 0.51649 0.0
C92 C 0.56376 0.09035 0.53132 0.0
C93 C 0.54827 0.08762 0.54609 0.0
C94 C 0.52559 0.06811 0.54561 0.0
C95 C 0.51859 0.05171 0.53079 0.0
H96 H 0.52288 0.56107 0.69378 0.0
H97 H 0.5092 0.57612 0.71965 0.0
H98 H 0.43749 0.53043 0.70103 0.0
H99 H 0.45128 0.5151 0.67545 0.0
H100 H 0.51179 0.5152 0.68924 0.0
H101 H 0.49959 0.57104 0.65324 0.0
H102 H 0.47541 0.58695 0.64167 0.0
H103 H 0.42733 0.52091 0.61493 0.0
H104 H 0.45154 0.50518 0.6265 0.0
H105 H 0.48689 0.4755 0.61182 0.0
H106 H 0.50081 0.45784 0.58833 0.0
H107 H 0.57 0.49443 0.6144 0.0
H108 H 0.55623 0.5125 0.63755 0.0
H109 H 0.49608 0.5168 0.6199 0.0
H110 H 0.50073 0.45911 0.65333 0.0
H111 H 0.51665 0.43561 0.66564 0.0
H112 H 0.5681 0.49409 0.69925 0.0
H113 H 0.55252 0.51792 0.68642 0.0
C114 C 0.48811 0.53708 0.68264 0.0
C115 C 0.50422 0.55444 0.69521 0.0
C116 C 0.49639 0.56314 0.70988 0.0
C117 C 0.47226 0.55447 0.71237 0.0
C118 C 0.45617 0.53732 0.69956 0.0
C119 C 0.46403 0.52868 0.68485 0.0
C120 C 0.49651 0.52693 0.6679 0.0
C121 C 0.50881 0.51596 0.67404 0.0
C122 C 0.49137 0.52676 0.64818 0.0
C123 C 0.47727 0.53687 0.64086 0.0
C124 C 0.48379 0.55999 0.64495 0.0
C125 C 0.46994 0.56904 0.63835 0.0
C126 C 0.44944 0.55518 0.62739 0.0
C127 C 0.44317 0.53213 0.62311 0.0
C128 C 0.45697 0.5231 0.62975 0.0
C129 C 0.52043 0.49518 0.6266 0.0
C130 C 0.50511 0.4799 0.61239 0.0
C131 C 0.51305 0.46976 0.59901 0.0
C132 C 0.53642 0.47461 0.59967 0.0
C133 C 0.55179 0.49007 0.61377 0.0
C134 C 0.54394 0.50042 0.62698 0.0
C135 C 0.5118 0.5054 0.64118 0.0
C136 C 0.49939 0.51629 0.63507 0.0
C137 C 0.51592 0.50461 0.66102 0.0
C138 C 0.52572 0.49044 0.66864 0.0
C139 C 0.51572 0.46706 0.66307 0.0
C140 C 0.5248 0.45362 0.67012 0.0
C141 C 0.54375 0.46312 0.68324 0.0
C142 C 0.55349 0.48638 0.68915 0.0
C143 C 0.54459 0.49995 0.68185 0.0
H144 H 0.02086 0.53027 0.77582 0.0
H145 H 0.05154 0.55006 0.75232 0.0
H146 H 0.08763 0.51555 0.77386 0.0
H147 H 0.05689 0.49591 0.79744 0.0
H148 H 0.99096 0.48346 0.78141 0.0
H149 H 0.05361 0.54944 0.8184 0.0
H150 H 0.09459 0.57199 0.82965 0.0
H151 H 0.08857 0.51069 0.85535 0.0
H152 H 0.04781 0.4883 0.84403 0.0
H153 H 0.97746 0.45227 0.86062 0.0
H154 H 0.94736 0.43904 0.88517 0.0
H155 H 0.91392 0.47153 0.85533 0.0
H156 H 0.94431 0.48516 0.83115 0.0
H157 H 0.00926 0.49501 0.85107 0.0
H158 H 0.94901 0.42971 0.81922 0.0
H159 H 0.90922 0.40265 0.80786 0.0
H160 H 0.9111 0.45539 0.77131 0.0
H161 H 0.95068 0.48271 0.78333 0.0
C162 C 0.03669 0.51179 0.78847 0.0
C163 C 0.03533 0.5269 0.77541 0.0
C164 C 0.05286 0.53815 0.76196 0.0
C165 C 0.07206 0.5344 0.76122 0.0
C166 C 0.07327 0.51908 0.77424 0.0
C167 C 0.05569 0.5078 0.78768 0.0
C168 C 0.0182 0.50036 0.80294 0.0
C169 C 0.99488 0.48621 0.79665 0.0
C170 C 0.02347 0.5031 0.82278 0.0
C171 C 0.0478 0.51719 0.83027 0.0
C172 C 0.06116 0.54093 0.8265 0.0
C173 C 0.08446 0.55379 0.833 0.0
C174 C 0.09476 0.54302 0.84324 0.0
C175 C 0.08117 0.51935 0.84727 0.0
C176 C 0.05786 0.50659 0.84094 0.0
C177 C 0.96307 0.46959 0.844 0.0
C178 C 0.9636 0.45648 0.85937 0.0
C179 C 0.9463 0.44878 0.87329 0.0
C180 C 0.92827 0.45425 0.87218 0.0
C181 C 0.92769 0.46721 0.85668 0.0
C182 C 0.94494 0.47484 0.84276 0.0
C183 C 0.98185 0.47855 0.82958 0.0
C184 C 0.00524 0.49223 0.83585 0.0
C185 C 0.97669 0.47487 0.80971 0.0
C186 C 0.95272 0.45835 0.80233 0.0
C187 C 0.94079 0.43552 0.80888 0.0
C188 C 0.91813 0.41997 0.80219 0.0
C189 C 0.90696 0.42684 0.78866 0.0
C190 C 0.91908 0.44963 0.78191 0.0
C191 C 0.94177 0.46521 0.78864 0.0
H192 H 0.58838 0.05272 0.02016 0.0
H193 H 0.60936 0.09269 0.03226 0.0
H194 H 0.55781 0.10536 0.00486 0.0
H195 H 0.53686 0.06532 0.99284 0.0
H196 H 0.54435 0.0176 0.02588 0.0
H197 H 0.58859 0.06253 0.97135 0.0
H198 H 0.60048 0.09267 0.94732 0.0
H199 H 0.52835 0.06221 0.92792 0.0
H200 H 0.51664 0.03219 0.95185 0.0
H201 H 0.48602 0.9627 0.96135 0.0
H202 H 0.46779 0.92284 0.94904 0.0
H203 H 0.52148 0.91456 0.97789 0.0
H204 H 0.53925 0.95416 0.99037 0.0
H205 H 0.52918 0.99968 0.95637 0.0
H206 H 0.48318 0.95857 0.00923 0.0
H207 H 0.46645 0.92893 0.03353 0.0
H208 H 0.53617 0.95113 0.05592 0.0
H209 H 0.55266 0.9813 0.03184 0.0
C210 C 0.56123 0.05611 0.00539 0.0
C211 C 0.58152 0.06407 0.01686 0.0
C212 C 0.59346 0.0869 0.02381 0.0
C213 C 0.5853 0.10222 0.01946 0.0
C214 C 0.56475 0.09409 0.00821 0.0
C215 C 0.55275 0.07122 0.00134 0.0
C216 C 0.54899 0.03197 0.99772 0.0
C217 C 0.54138 0.01373 0.01066 0.0
C218 C 0.54423 0.02682 0.97792 0.0
C219 C 0.5517 0.04519 0.96345 0.0
C220 C 0.57535 0.06246 0.96198 0.0
C221 C 0.58211 0.07969 0.94828 0.0
C222 C 0.56536 0.07979 0.93569 0.0
C223 C 0.54173 0.06242 0.9372 0.0
C224 C 0.53499 0.04528 0.95091 0.0
C225 C 0.51384 0.96131 0.97694 0.0
C226 C 0.49382 0.95225 0.96499 0.0
C227 C 0.48349 0.92949 0.95791 0.0
C228 C 0.4931 0.91542 0.96252 0.0
C229 C 0.51332 0.9247 0.97435 0.0
C230 C 0.52356 0.94739 0.98146 0.0
C231 C 0.52486 0.98543 0.9845 0.0
C232 C 0.53226 0.00361 0.97158 0.0
C233 C 0.52901 0.99055 0.00431 0.0
C234 C 0.51915 0.97205 0.0187 0.0
C235 C 0.49485 0.95691 0.0193 0.0
C236 C 0.48534 0.93986 0.03316 0.0
C237 C 0.49994 0.93752 0.0467 0.0
C238 C 0.52435 0.95261 0.04591 0.0
C239 C 0.53384 0.96982 0.03212 0.0
H240 H 0.48895 0.46986 0.20335 0.0
H241 H 0.501 0.45107 0.22716 0.0
H242 H 0.572 0.4887 0.20659 0.0
H243 H 0.56005 0.50814 0.18347 0.0
H244 H 0.50336 0.51548 0.19941 0.0
H245 H 0.50683 0.45586 0.16076 0.0
H246 H 0.52663 0.43582 0.14811 0.0
H247 H 0.57948 0.49976 0.12357 0.0
H248 H 0.55967 0.51957 0.13616 0.0
H249 H 0.53094 0.55989 0.1264 0.0
H250 H 0.51809 0.57764 0.10227 0.0
H251 H 0.44664 0.53626 0.12124 0.0
H252 H 0.45984 0.51935 0.1457 0.0
H253 H 0.51704 0.51371 0.1299 0.0
H254 H 0.51951 0.57401 0.16734 0.0
H255 H 0.50545 0.59912 0.17974 0.0
H256 H 0.44865 0.54067 0.20751 0.0
H257 H 0.46247 0.51542 0.1945 0.0
C258 C 0.52354 0.49024 0.19151 0.0
C259 C 0.50712 0.47406 0.20402 0.0
C260 C 0.51399 0.46317 0.21749 0.0
C261 C 0.53746 0.46832 0.21876 0.0
C262 C 0.55384 0.4845 0.20615 0.0
C263 C 0.54698 0.49546 0.19277 0.0
C264 C 0.51626 0.50201 0.17742 0.0
C265 C 0.50595 0.51473 0.18418 0.0
C266 C 0.52058 0.50188 0.15762 0.0
C267 C 0.53188 0.48927 0.14953 0.0
C268 C 0.5227 0.46553 0.15267 0.0
C269 C 0.53403 0.45411 0.14545 0.0
C270 C 0.5546 0.46618 0.13479 0.0
C271 C 0.56347 0.48985 0.13143 0.0
C272 C 0.55221 0.50124 0.13869 0.0
C273 C 0.49634 0.53836 0.13783 0.0
C274 C 0.51254 0.55483 0.1254 0.0
C275 C 0.50513 0.56487 0.11157 0.0
C276 C 0.48128 0.55837 0.10972 0.0
C277 C 0.46518 0.54206 0.12243 0.0
C278 C 0.47266 0.53222 0.13637 0.0
C279 C 0.50397 0.5269 0.15189 0.0
C280 C 0.51427 0.51425 0.14513 0.0
C281 C 0.50021 0.52756 0.1717 0.0
C282 C 0.49184 0.54277 0.17977 0.0
C283 C 0.50392 0.56655 0.17598 0.0
C284 C 0.49601 0.58095 0.18327 0.0
C285 C 0.47592 0.57191 0.19463 0.0
C286 C 0.46402 0.54812 0.19862 0.0
C287 C 0.47198 0.5337 0.19132 0.0
Zn288 Zn 0.66685 0.4376 0.41061 0.0
Zn289 Zn 0.64289 0.39122 0.41183 0.0
O290 O 0.67748 0.4003 0.40857 0.0
O291 O 0.69779 0.43833 0.40902 0.0
O292 O 0.62815 0.35668 0.41409 0.0
O293 O 0.65369 0.43925 0.43609 0.0
O294 O 0.63413 0.4012 0.43707 0.0
C295 C 0.69709 0.41905 0.40784 0.0
C296 C 0.63269 0.41519 0.37945 0.0
O297 O 0.62796 0.39646 0.38777 0.0
O298 O 0.64849 0.4345 0.3863 0.0
C299 C 0.60637 0.34213 0.41505 0.0
O300 O 0.59118 0.34943 0.41416 0.0
C301 C 0.63972 0.42084 0.44458 0.0
Zn302 Zn 0.24279 0.68225 0.57698 0.0
Zn303 Zn 0.26401 0.65653 0.57845 0.0
O304 O 0.29099 0.68998 0.57557 0.0
O305 O 0.2744 0.71157 0.57589 0.0
O306 O 0.28133 0.63899 0.58141 0.0
O307 O 0.22749 0.6694 0.60236 0.0
O308 O 0.24503 0.64868 0.60315 0.0
C309 C 0.29266 0.70982 0.57491 0.0
C310 C 0.22995 0.6485 0.54561 0.0
O311 O 0.24362 0.64303 0.5542 0.0
O312 O 0.22699 0.66459 0.55231 0.0
C313 C 0.29803 0.64242 0.57046 0.0
O314 O 0.30326 0.65687 0.55627 0.0
C315 C 0.23139 0.65484 0.61067 0.0
Zn316 Zn 0.56737 0.23535 0.74925 0.0
Zn317 Zn 0.61455 0.2596 0.74762 0.0
O318 O 0.60456 0.28424 0.74596 0.0
O319 O 0.56621 0.26504 0.74899 0.0
O320 O 0.64972 0.27908 0.74776 0.0
O321 O 0.56968 0.22182 0.77431 0.0
O322 O 0.60818 0.24192 0.77285 0.0
C323 C 0.58512 0.284 0.74694 0.0
C324 C 0.58655 0.22411 0.71614 0.0
O325 O 0.60626 0.23894 0.72357 0.0
O326 O 0.56764 0.21981 0.72418 0.0
C327 C 0.66306 0.27041 0.74792 0.0
O328 O 0.65368 0.24779 0.74749 0.0
C329 C 0.58966 0.22757 0.78145 0.0
Zn330 Zn 0.34762 0.58253 0.91259 0.0
Zn331 Zn 0.37384 0.62894 0.91264 0.0
O332 O 0.33988 0.62249 0.90924 0.0
O333 O 0.31821 0.58452 0.91007 0.0
O334 O 0.39253 0.66372 0.9149 0.0
O335 O 0.36003 0.58141 0.93875 0.0
O336 O 0.38236 0.61932 0.93812 0.0
C337 C 0.31981 0.60416 0.90862 0.0
C338 C 0.38079 0.60086 0.8814 0.0
O339 O 0.38634 0.62049 0.88889 0.0
O340 O 0.36505 0.58242 0.88886 0.0
C341 C 0.39009 0.67701 0.90338 0.0
O342 O 0.37546 0.66793 0.88873 0.0
C343 C 0.37546 0.60019 0.94657 0.0
Zn344 Zn 0.78111 0.43657 0.07161 0.0
Zn345 Zn 0.75704 0.38998 0.07026 0.0
O346 O 0.73142 0.39875 0.07441 0.0
O347 O 0.75085 0.43684 0.07502 0.0
O348 O 0.73861 0.35524 0.06709 0.0
O349 O 0.79378 0.43762 0.04523 0.0
O350 O 0.77473 0.39954 0.04483 0.0
C351 C 0.73165 0.41792 0.07603 0.0
C352 C 0.79395 0.41506 0.10181 0.0
O353 O 0.77837 0.39617 0.0939 0.0
O354 O 0.79831 0.4343 0.09495 0.0
C355 C 0.72108 0.34213 0.0772 0.0
O356 O 0.71479 0.35129 0.09102 0.0
C357 C 0.78837 0.41865 0.03682 0.0
Zn358 Zn 0.34972 0.77877 0.23498 0.0
Zn359 Zn 0.37611 0.75823 0.23657 0.0
O360 O 0.34193 0.73151 0.23833 0.0
O361 O 0.32006 0.74782 0.23676 0.0
O362 O 0.39426 0.74125 0.23584 0.0
O363 O 0.36321 0.79195 0.20922 0.0
O364 O 0.38565 0.77628 0.21147 0.0
C365 C 0.32178 0.72983 0.23827 0.0
C366 C 0.38269 0.79366 0.26742 0.0
O367 O 0.38834 0.77941 0.26046 0.0
O368 O 0.36691 0.7963 0.25926 0.0
C369 C 0.38908 0.72401 0.24642 0.0
O370 O 0.37228 0.71786 0.25891 0.0
C371 C 0.37907 0.78861 0.20244 0.0
H372 H 0.11754 0.58351 0.27836 0.0
H373 H 0.15589 0.61032 0.26544 0.0
H374 H 0.18049 0.56319 0.27951 0.0
H375 H 0.14207 0.53632 0.2929 0.0
H376 H 0.2105 0.60913 0.29204 0.0
H377 H 0.18593 0.606 0.21569 0.0
H378 H 0.16746 0.61108 0.23134 0.0
H379 H 0.16741 0.58411 0.23237 0.0
C380 C 0.13109 0.57881 0.27871 0.0
C381 C 0.12683 0.55785 0.28672 0.0
C382 C 0.1529 0.59402 0.2711 0.0
C383 C 0.17089 0.58856 0.27124 0.0
C384 C 0.16672 0.56759 0.2791 0.0
H385 H 0.31866 0.68788 0.24495 0.0
H386 H 0.28316 0.65105 0.25148 0.0
C387 C 0.14479 0.55225 0.28667 0.0
C388 C 0.19443 0.60563 0.26432 0.0
H389 H 0.22216 0.63936 0.22612 0.0
C390 C 0.21325 0.61546 0.27753 0.0
C391 C 0.1979 0.61377 0.24537 0.0
C392 C 0.17865 0.60303 0.23032 0.0
C393 C 0.23508 0.63425 0.27262 0.0
C394 C 0.23818 0.64314 0.25393 0.0
C395 C 0.21969 0.63256 0.24046 0.0
C396 C 0.25963 0.66472 0.24865 0.0
C397 C 0.2542 0.6453 0.28777 0.0
C398 C 0.25802 0.68436 0.24431 0.0
C399 C 0.27817 0.70533 0.24051 0.0
C400 C 0.30037 0.70709 0.2409 0.0
C401 C 0.30185 0.68716 0.24463 0.0
C402 C 0.28162 0.66613 0.24845 0.0
H403 H 0.24763 0.63884 0.30229 0.0
H404 H 0.26828 0.64132 0.28451 0.0
H405 H 0.26207 0.66441 0.28791 0.0
H406 H 0.24119 0.68361 0.24434 0.0
H407 H 0.27633 0.72028 0.23761 0.0
H408 H 0.51439 0.12386 0.45188 0.0
H409 H 0.52314 0.16238 0.44196 0.0
H410 H 0.59721 0.1862 0.44579 0.0
H411 H 0.58867 0.14783 0.45599 0.0
H412 H 0.54977 0.20439 0.46289 0.0
H413 H 0.58869 0.20679 0.39228 0.0
H414 H 0.57117 0.1802 0.4049 0.0
H415 H 0.60131 0.19919 0.41184 0.0
C416 C 0.53256 0.1373 0.45068 0.0
C417 C 0.55084 0.13275 0.45477 0.0
C418 C 0.53751 0.15925 0.4449 0.0
C419 C 0.56079 0.17703 0.44292 0.0
C420 C 0.5791 0.17257 0.44685 0.0
H421 H 0.63373 0.32234 0.41936 0.0
H422 H 0.62114 0.2819 0.42556 0.0
C423 C 0.57418 0.15062 0.45268 0.0
C424 C 0.56596 0.20054 0.43759 0.0
H425 H 0.59292 0.24226 0.40412 0.0
C426 C 0.55902 0.21263 0.44996 0.0
C427 C 0.57803 0.21119 0.42072 0.0
C428 C 0.58508 0.19864 0.40656 0.0
C429 C 0.56452 0.23543 0.44625 0.0
C430 C 0.57685 0.24621 0.42948 0.0
C431 C 0.58345 0.23395 0.41695 0.0
C432 C 0.58407 0.27057 0.42515 0.0
C433 C 0.55782 0.24805 0.46065 0.0
C434 C 0.56737 0.27758 0.42254 0.0
C435 C 0.57452 0.3008 0.41907 0.0
C436 C 0.59851 0.31735 0.41799 0.0
C437 C 0.61512 0.3101 0.42015 0.0
C438 C 0.60796 0.28696 0.42367 0.0
H439 H 0.55356 0.23941 0.47472 0.0
H440 H 0.57221 0.26621 0.4628 0.0
H441 H 0.54208 0.24839 0.45528 0.0
H442 H 0.54881 0.26511 0.42322 0.0
H443 H 0.56128 0.30578 0.41734 0.0
H444 H 0.43669 0.58266 0.64722 0.0
H445 H 0.4108 0.5969 0.63636 0.0
H446 H 0.40224 0.56307 0.58155 0.0
H447 H 0.42819 0.54886 0.59224 0.0
H448 H 0.41506 0.62473 0.60522 0.0
H449 H 0.33447 0.53842 0.59874 0.0
H450 H 0.36053 0.543 0.6114 0.0
H451 H 0.35904 0.54103 0.58571 0.0
C452 C 0.42947 0.57842 0.6328 0.0
C453 C 0.43439 0.56452 0.62063 0.0
C454 C 0.4146 0.58647 0.62665 0.0
C455 C 0.40431 0.58071 0.60827 0.0
C456 C 0.40957 0.56727 0.59594 0.0
H457 H 0.33617 0.64757 0.55097 0.0
H458 H 0.36184 0.63216 0.55939 0.0
C459 C 0.42441 0.55918 0.60207 0.0
C460 C 0.38823 0.58895 0.60198 0.0
H461 H 0.33186 0.57039 0.58726 0.0
C462 C 0.39686 0.61288 0.60129 0.0
C463 C 0.36445 0.5734 0.59707 0.0
C464 C 0.35394 0.54753 0.59841 0.0
C465 C 0.38239 0.62171 0.59567 0.0
C466 C 0.35875 0.60617 0.59032 0.0
C467 C 0.35006 0.58224 0.59117 0.0
C468 C 0.34254 0.61445 0.58451 0.0
C469 C 0.39236 0.6476 0.59593 0.0
C470 C 0.32272 0.60889 0.59545 0.0
C471 C 0.30793 0.61752 0.59062 0.0
C472 C 0.31265 0.63182 0.57469 0.0
C473 C 0.33211 0.63673 0.56339 0.0
C474 C 0.34689 0.62806 0.56824 0.0
H475 H 0.40883 0.65674 0.60463 0.0
H476 H 0.39641 0.65402 0.58109 0.0
H477 H 0.37953 0.65217 0.60172 0.0
H478 H 0.31899 0.5983 0.608 0.0
H479 H 0.29305 0.61333 0.59959 0.0
H480 H 0.88781 0.38074 0.77966 0.0
H481 H 0.84722 0.35326 0.7701 0.0
H482 H 0.83052 0.40802 0.77278 0.0
H483 H 0.87096 0.43555 0.78258 0.0
H484 H 0.80698 0.34265 0.79131 0.0
H485 H 0.80396 0.37719 0.72013 0.0
H486 H 0.83117 0.38466 0.73243 0.0
H487 H 0.81478 0.39848 0.73918 0.0
C488 C 0.87551 0.38694 0.77823 0.0
C489 C 0.88264 0.41036 0.78189 0.0
C490 C 0.85237 0.37125 0.77266 0.0
C491 C 0.83598 0.37868 0.77049 0.0
C492 C 0.84304 0.40204 0.77397 0.0
H493 H 0.68759 0.31763 0.751 0.0
H494 H 0.72985 0.34276 0.75567 0.0
C495 C 0.86617 0.41775 0.77957 0.0
C496 C 0.81117 0.36179 0.76564 0.0
H497 H 0.76733 0.34937 0.73302 0.0
C498 C 0.79833 0.34394 0.77847 0.0
C499 C 0.8 0.36359 0.7489 0.0
C500 C 0.8132 0.38188 0.73426 0.0
C501 C 0.77436 0.32827 0.77535 0.0
C502 C 0.76308 0.33026 0.75874 0.0
C503 C 0.77603 0.34789 0.74574 0.0
C504 C 0.73762 0.31485 0.75503 0.0
C505 C 0.76113 0.31027 0.79021 0.0
C506 C 0.72803 0.29084 0.75274 0.0
C507 C 0.70381 0.27637 0.75014 0.0
C508 C 0.68881 0.2857 0.74965 0.0
C509 C 0.69861 0.30984 0.75138 0.0
C510 C 0.72278 0.32426 0.75402 0.0
H511 H 0.77096 0.3145 0.80406 0.0
H512 H 0.7437 0.30854 0.79273 0.0
H513 H 0.7583 0.29326 0.78505 0.0
H514 H 0.73925 0.28328 0.75309 0.0
H515 H 0.69686 0.25788 0.74871 0.0
H516 H 0.47412 0.89878 0.92674 0.0
H517 H 0.45684 0.85898 0.91441 0.0
H518 H 0.47077 0.83763 0.9686 0.0
H519 H 0.48754 0.87716 0.98125 0.0
H520 H 0.48617 0.82344 0.93396 0.0
H521 H 0.39281 0.80189 0.93075 0.0
H522 H 0.41411 0.82863 0.92021 0.0
H523 H 0.4146 0.82525 0.9456 0.0
C524 C 0.47321 0.88557 0.93615 0.0
C525 C 0.48223 0.89121 0.95501 0.0
C526 C 0.4634 0.86287 0.92904 0.0
C527 C 0.46244 0.84541 0.94065 0.0
C528 C 0.47141 0.85091 0.95943 0.0
H529 H 0.41847 0.70063 0.93402 0.0
H530 H 0.43686 0.74193 0.94145 0.0
C531 C 0.4811 0.87355 0.96658 0.0
C532 C 0.45251 0.82143 0.93318 0.0
H533 H 0.4011 0.77325 0.91984 0.0
C534 C 0.46759 0.81245 0.93081 0.0
C535 C 0.42832 0.80729 0.92893 0.0
C536 C 0.41139 0.81608 0.93157 0.0
C537 C 0.45908 0.78957 0.92438 0.0
C538 C 0.43474 0.77515 0.92071 0.0
C539 C 0.41974 0.78432 0.92268 0.0
C540 C 0.4243 0.75022 0.91567 0.0
C541 C 0.47628 0.78117 0.92142 0.0
C542 C 0.41069 0.74101 0.89889 0.0
C543 C 0.3999 0.71728 0.89467 0.0
C544 C 0.40247 0.70232 0.90722 0.0
C545 C 0.41626 0.71166 0.92395 0.0
C546 C 0.42693 0.73532 0.92818 0.0
H547 H 0.49423 0.79579 0.91888 0.0
H548 H 0.47709 0.77226 0.93448 0.0
H549 H 0.47088 0.76877 0.90914 0.0
H550 H 0.40831 0.75217 0.8891 0.0
H551 H 0.38936 0.71065 0.88169 0.0
H552 H 0.57499 0.47086 0.09998 0.0
H553 H 0.59982 0.45532 0.08976 0.0
H554 H 0.58762 0.41926 0.14299 0.0
H555 H 0.56338 0.43543 0.15363 0.0
H556 H 0.63373 0.44503 0.13543 0.0
H557 H 0.58696 0.39225 0.07121 0.0
H558 H 0.59129 0.42097 0.07004 0.0
H559 H 0.57308 0.4018 0.08834 0.0
C560 C 0.57745 0.45948 0.10947 0.0
C561 C 0.56733 0.4545 0.12767 0.0
C562 C 0.59137 0.45033 0.10348 0.0
C563 C 0.5953 0.43583 0.11548 0.0
C564 C 0.58464 0.43023 0.13343 0.0
H565 H 0.68754 0.38109 0.08221 0.0
H566 H 0.65267 0.3827 0.09208 0.0
C567 C 0.5707 0.43941 0.13945 0.0
C568 C 0.61257 0.42874 0.11013 0.0
H569 H 0.62826 0.40466 0.07391 0.0
C570 C 0.63231 0.43585 0.12213 0.0
C571 C 0.61063 0.41655 0.09288 0.0
C572 C 0.58921 0.40724 0.07998 0.0
C573 C 0.65071 0.43219 0.11687 0.0
C574 C 0.64949 0.42144 0.09903 0.0
C575 C 0.62924 0.41318 0.08748 0.0
C576 C 0.6698 0.42007 0.09175 0.0
C577 C 0.67154 0.44028 0.1303 0.0
C578 C 0.69065 0.4405 0.08778 0.0
C579 C 0.71048 0.43967 0.08214 0.0
C580 C 0.70986 0.41835 0.08028 0.0
C581 C 0.68863 0.39779 0.08355 0.0
C582 C 0.66871 0.39866 0.0892 0.0
H583 H 0.66711 0.44236 0.14522 0.0
H584 H 0.67822 0.42793 0.13018 0.0
H585 H 0.68585 0.45733 0.12562 0.0
H586 H 0.6917 0.45716 0.08937 0.0
H587 H 0.72644 0.45584 0.07961 0.0
H588 H 0.48545 0.89908 0.52963 0.0
H589 H 0.46101 0.85963 0.54159 0.0
H590 H 0.39982 0.85648 0.51552 0.0
H591 H 0.42401 0.89569 0.5036 0.0
H592 H 0.4206 0.84626 0.56639 0.0
H593 H 0.39709 0.79477 0.49874 0.0
H594 H 0.42251 0.8234 0.50119 0.0
H595 H 0.39384 0.81992 0.49762 0.0
C596 C 0.46685 0.88976 0.52622 0.0
C597 C 0.45656 0.90039 0.51575 0.0
C598 C 0.45294 0.86734 0.53309 0.0
C599 C 0.4287 0.85514 0.52926 0.0
C600 C 0.41855 0.86552 0.5184 0.0
H601 H 0.30367 0.755 0.57798 0.0
H602 H 0.34018 0.78926 0.56905 0.0
C603 C 0.43234 0.88794 0.51173 0.0
C604 C 0.41343 0.83221 0.53764 0.0
H605 H 0.37206 0.77679 0.5254 0.0
C606 C 0.4103 0.83092 0.55751 0.0
C607 C 0.40023 0.81223 0.52602 0.0
C608 C 0.40369 0.8125 0.50472 0.0
C609 C 0.39316 0.81047 0.56591 0.0
C610 C 0.37879 0.79098 0.5541 0.0
C611 C 0.383 0.79184 0.53441 0.0
C612 C 0.35788 0.77039 0.56152 0.0
C613 C 0.39008 0.81007 0.58727 0.0
C614 C 0.35575 0.74842 0.56026 0.0
C615 C 0.33487 0.72874 0.56542 0.0
C616 C 0.31565 0.73072 0.5716 0.0
C617 C 0.31811 0.75286 0.57327 0.0
C618 C 0.33903 0.77249 0.56828 0.0
H619 H 0.40629 0.82347 0.59473 0.0
H620 H 0.37574 0.81367 0.59055 0.0
H621 H 0.38528 0.79284 0.59305 0.0
H622 H 0.37007 0.74647 0.55491 0.0
H623 H 0.33351 0.71194 0.56389 0.0
H624 H 0.55479 0.43458 0.66343 0.0
H625 H 0.56554 0.4072 0.6765 0.0
H626 H 0.56308 0.43064 0.73372 0.0
H627 H 0.55274 0.45843 0.72067 0.0
H628 H 0.60002 0.42227 0.72903 0.0
H629 H 0.5164 0.34834 0.70157 0.0
H630 H 0.53367 0.36778 0.68318 0.0
H631 H 0.52197 0.3777 0.70181 0.0
C632 C 0.5567 0.43398 0.67879 0.0
C633 C 0.55266 0.44839 0.69107 0.0
C634 C 0.56279 0.41833 0.68623 0.0
C635 C 0.56455 0.41653 0.70609 0.0
C636 C 0.56167 0.43168 0.71836 0.0
H637 H 0.54955 0.29186 0.75624 0.0
H638 H 0.54615 0.32575 0.74882 0.0
C639 C 0.55581 0.44754 0.7109 0.0
C640 C 0.56819 0.39803 0.71402 0.0
H641 H 0.54456 0.33942 0.71398 0.0
C642 C 0.58787 0.40413 0.72585 0.0
C643 C 0.55204 0.37437 0.71015 0.0
C644 C 0.52971 0.3666 0.69865 0.0
C645 C 0.59212 0.38716 0.73355 0.0
C646 C 0.57649 0.36355 0.72896 0.0
C647 C 0.55662 0.35752 0.71742 0.0
C648 C 0.58021 0.34461 0.73576 0.0
C649 C 0.61305 0.39467 0.74675 0.0
C650 C 0.60069 0.34411 0.73124 0.0
C651 C 0.60281 0.32484 0.7357 0.0
C652 C 0.58427 0.30555 0.74441 0.0
C653 C 0.56409 0.30639 0.74942 0.0
C654 C 0.56212 0.32576 0.7452 0.0
H655 H 0.61873 0.4119 0.75344 0.0
H656 H 0.60917 0.38197 0.75825 0.0
H657 H 0.62794 0.39608 0.73839 0.0
H658 H 0.61464 0.35818 0.72355 0.0
H659 H 0.6185 0.32463 0.73153 0.0
H660 H 0.11804 0.58542 0.8614 0.0
H661 H 0.159 0.60594 0.87305 0.0
H662 H 0.16835 0.55057 0.85087 0.0
H663 H 0.12771 0.53015 0.83917 0.0
H664 H 0.1788 0.58725 0.89964 0.0
H665 H 0.22557 0.61034 0.8309 0.0
H666 H 0.19537 0.60333 0.83296 0.0
H667 H 0.20253 0.58064 0.83154 0.0
C668 C 0.12899 0.57784 0.8588 0.0
C669 C 0.11973 0.55618 0.84945 0.0
C670 C 0.15229 0.58952 0.86549 0.0
C671 C 0.16672 0.57988 0.86258 0.0
C672 C 0.15759 0.55846 0.85297 0.0
H673 H 0.27476 0.57032 0.91433 0.0
H674 H 0.23895 0.57028 0.90517 0.0
C675 C 0.13433 0.54672 0.84647 0.0
C676 C 0.19086 0.59112 0.87066 0.0
H677 H 0.24713 0.60834 0.85821 0.0
C678 C 0.19387 0.59239 0.89061 0.0
C679 C 0.21051 0.59814 0.85886 0.0
C680 C 0.20843 0.59829 0.83736 0.0
C681 C 0.21576 0.59876 0.89905 0.0
C682 C 0.23494 0.60377 0.88718 0.0
C683 C 0.23234 0.60431 0.86728 0.0
C684 C 0.25675 0.60537 0.89485 0.0
C685 C 0.21797 0.59922 0.92056 0.0
C686 C 0.27869 0.62515 0.89207 0.0
C687 C 0.29933 0.62526 0.89736 0.0
C688 C 0.29826 0.60539 0.90514 0.0
C689 C 0.2762 0.58588 0.90834 0.0
C690 C 0.25568 0.58589 0.90325 0.0
H691 H 0.2047 0.60245 0.92743 0.0
H692 H 0.21496 0.58216 0.92537 0.0
H693 H 0.23574 0.61273 0.92555 0.0
H694 H 0.27985 0.64027 0.88542 0.0
H695 H 0.31607 0.64051 0.89464 0.0
H696 H 0.59516 0.14119 -0.00027 0.0
H697 H 0.61776 0.1815 0.01094 0.0
H698 H 0.62756 0.1589 0.06608 0.0
H699 H 0.60497 0.11854 0.05499 0.0
H700 H 0.61024 0.2041 0.04134 0.0
H701 H 0.69463 0.20511 0.05059 0.0
H702 H 0.66985 0.18228 0.03763 0.0
H703 H 0.67062 0.18266 0.06334 0.0
C704 C 0.60196 0.14479 0.01429 0.0
C705 C 0.59839 0.12667 0.02644 0.0
C706 C 0.61494 0.16782 0.02065 0.0
C707 C 0.62465 0.1732 0.03924 0.0
C708 C 0.62068 0.15516 0.05154 0.0
H709 H 0.68227 0.30905 0.09546 0.0
H710 H 0.65864 0.26784 0.08704 0.0
C711 C 0.60776 0.13212 0.04518 0.0
C712 C 0.63891 0.19771 0.04569 0.0
H713 H 0.69373 0.23842 0.06142 0.0
C714 C 0.62849 0.21163 0.04576 0.0
C715 C 0.66279 0.20752 0.05122 0.0
C716 C 0.67525 0.19372 0.05056 0.0
C717 C 0.64128 0.2351 0.05129 0.0
C718 C 0.66502 0.24478 0.0572 0.0
C719 C 0.67546 0.23088 0.05706 0.0
C720 C 0.67963 0.26956 0.06281 0.0
C721 C 0.62944 0.24947 0.05026 0.0
C722 C 0.69967 0.28403 0.05236 0.0
C723 C 0.71331 0.30752 0.05721 0.0
C724 C 0.70721 0.317 0.07268 0.0
C725 C 0.68738 0.30234 0.0834 0.0
C726 C 0.67377 0.27881 0.07854 0.0
H727 H 0.61327 0.241 0.04116 0.0
H728 H 0.62441 0.25181 0.06486 0.0
H729 H 0.64147 0.26686 0.04451 0.0
H730 H 0.70457 0.27721 0.04023 0.0
H731 H 0.72848 0.31827 0.04867 0.0
H732 H 0.43052 0.56278 0.19621 0.0
H733 H 0.41664 0.58883 0.20693 0.0
H734 H 0.48787 0.64197 0.21983 0.0
H735 H 0.50185 0.61581 0.20969 0.0
H736 H 0.45584 0.63732 0.24824 0.0
H737 H 0.42487 0.64425 0.17574 0.0
H738 H 0.41295 0.61512 0.18393 0.0
H739 H 0.44387 0.63236 0.17971 0.0
C740 C 0.44321 0.5799 0.20156 0.0
C741 C 0.46731 0.58728 0.20196 0.0
C742 C 0.43527 0.59484 0.20749 0.0
C743 C 0.45128 0.61745 0.21386 0.0
C744 C 0.47526 0.62464 0.21482 0.0
H745 H 0.42403 0.73168 0.2216 0.0
H746 H 0.44037 0.70658 0.21492 0.0
C747 C 0.48322 0.60973 0.20889 0.0
C748 C 0.44309 0.63376 0.21921 0.0
H749 H 0.41552 0.66154 0.20139 0.0
C750 C 0.44704 0.64266 0.23802 0.0
C751 C 0.43196 0.64095 0.20575 0.0
C752 C 0.42832 0.63288 0.1851 0.0
C753 C 0.4398 0.65831 0.24381 0.0
C754 C 0.42804 0.66496 0.23048 0.0
C755 C 0.42441 0.6563 0.21161 0.0
C756 C 0.41934 0.68091 0.2357 0.0
C757 C 0.44514 0.66789 0.26403 0.0
C758 C 0.40219 0.67487 0.24968 0.0
C759 C 0.39284 0.68922 0.25359 0.0
C760 C 0.40035 0.7098 0.24345 0.0
C761 C 0.41785 0.71598 0.22968 0.0
C762 C 0.42719 0.70164 0.22582 0.0
H763 H 0.45946 0.66601 0.27074 0.0
H764 H 0.45023 0.68647 0.26444 0.0
H765 H 0.42922 0.65824 0.27276 0.0
H766 H 0.39554 0.65874 0.25722 0.0
H767 H 0.37931 0.68388 0.26421 0.0
H768 H 0.89266 0.47368 0.34293 0.0
H769 H 0.85336 0.46226 0.35427 0.0
H770 H 0.84802 0.40069 0.37854 0.0
H771 H 0.88757 0.41211 0.36728 0.0
H772 H 0.80883 0.41704 0.34675 0.0
H773 H 0.83674 0.43794 0.42337 0.0
H774 H 0.85735 0.45015 0.40415 0.0
H775 H 0.84558 0.42034 0.41012 0.0
C776 C 0.88312 0.45771 0.35069 0.0
C777 C 0.89321 0.44386 0.35437 0.0
C778 C 0.86067 0.45116 0.35706 0.0
C779 C 0.84797 0.43077 0.36735 0.0
C780 C 0.8577 0.41658 0.37071 0.0
H781 H 0.70153 0.38138 0.39869 0.0
H782 H 0.73744 0.38124 0.39 0.0
C783 C 0.88016 0.42304 0.36419 0.0
C784 C 0.82479 0.42488 0.37486 0.0
H785 H 0.79757 0.42669 0.41563 0.0
C786 C 0.80619 0.41877 0.36183 0.0
C787 C 0.82162 0.42741 0.39452 0.0
C788 C 0.84133 0.43442 0.40895 0.0
C789 C 0.78456 0.41564 0.36792 0.0
C790 C 0.78155 0.41865 0.38753 0.0
C791 C 0.79998 0.42425 0.40063 0.0
C792 C 0.76011 0.41812 0.39436 0.0
C793 C 0.7654 0.41014 0.35327 0.0
C794 C 0.76118 0.43881 0.40015 0.0
C795 C 0.74077 0.43899 0.40506 0.0
C796 C 0.71892 0.41842 0.4044 0.0
C797 C 0.71806 0.39753 0.39932 0.0
C798 C 0.73852 0.3974 0.39429 0.0
H799 H 0.77162 0.41136 0.33838 0.0
H800 H 0.75072 0.39227 0.35539 0.0
H801 H 0.75842 0.42212 0.35508 0.0
H802 H 0.77774 0.45496 0.40031 0.0
H803 H 0.74209 0.45535 0.409 0.0
H804 H 0.10433 0.51398 0.40387 0.0
H805 H 0.13154 0.53238 0.43106 0.0
H806 H 0.13019 0.59549 0.42198 0.0
H807 H 0.10355 0.57756 0.39453 0.0
H808 H 0.17843 0.57991 0.43258 0.0
H809 H 0.10649 0.5717 0.47891 0.0
H810 H 0.10114 0.55348 0.45798 0.0
H811 H 0.10788 0.58289 0.45534 0.0
C812 C 0.11016 0.53191 0.40742 0.0
C813 C 0.10158 0.54423 0.39712 0.0
C814 C 0.12562 0.54233 0.423 0.0
C815 C 0.13261 0.56516 0.42855 0.0
C816 C 0.12475 0.57776 0.41796 0.0
H817 H 0.20392 0.6593 0.52178 0.0
H818 H 0.18164 0.63823 0.4932 0.0
C819 C 0.10942 0.56743 0.40237 0.0
C820 C 0.14725 0.57563 0.44595 0.0
H821 H 0.14516 0.59383 0.49127 0.0
C822 C 0.17123 0.58283 0.44551 0.0
C823 C 0.13766 0.57932 0.46269 0.0
C824 C 0.11185 0.57134 0.46395 0.0
C825 C 0.18613 0.59448 0.46127 0.0
C826 C 0.17658 0.59852 0.47794 0.0
C827 C 0.15245 0.59077 0.47846 0.0
C828 C 0.19131 0.61168 0.49477 0.0
C829 C 0.21203 0.60311 0.45966 0.0
C830 C 0.20421 0.60377 0.50517 0.0
C831 C 0.21715 0.61591 0.52153 0.0
C832 C 0.21715 0.63599 0.52789 0.0
C833 C 0.20427 0.64387 0.51735 0.0
C834 C 0.19151 0.63184 0.50098 0.0
H835 H 0.21727 0.60352 0.44455 0.0
H836 H 0.22256 0.62076 0.46607 0.0
H837 H 0.21641 0.59137 0.46753 0.0
H838 H 0.20391 0.58799 0.50085 0.0
H839 H 0.22677 0.60931 0.52939 0.0
H840 H 0.52261 0.10422 0.56378 0.0
H841 H 0.53362 0.12943 0.59218 0.0
H842 H 0.60182 0.13522 0.59329 0.0
H843 H 0.59079 0.10943 0.56514 0.0
H844 H 0.55303 0.11741 0.6291 0.0
H845 H 0.60951 0.20429 0.59777 0.0
H846 H 0.58626 0.18088 0.58392 0.0
H847 H 0.6123 0.17996 0.58984 0.0
C848 C 0.53995 0.1108 0.57005 0.0
C849 C 0.55575 0.10464 0.56226 0.0
C850 C 0.54625 0.12532 0.58617 0.0
C851 C 0.56852 0.13417 0.5947 0.0
C852 C 0.58462 0.12868 0.58674 0.0
H853 H 0.62302 0.22526 0.69642 0.0
H854 H 0.62049 0.20334 0.66722 0.0
C855 C 0.5783 0.11403 0.57063 0.0
C856 C 0.57414 0.14783 0.61269 0.0
H857 H 0.60223 0.20308 0.6308 0.0
C858 C 0.56391 0.13613 0.62955 0.0
C859 C 0.58857 0.17215 0.61314 0.0
C860 C 0.59985 0.18525 0.59525 0.0
C861 C 0.56734 0.14821 0.6469 0.0
C862 C 0.58086 0.17268 0.64724 0.0
C863 C 0.59178 0.18433 0.63047 0.0
C864 C 0.58267 0.18641 0.66462 0.0
C865 C 0.55643 0.13463 0.66471 0.0
C866 C 0.56232 0.18451 0.67256 0.0
C867 C 0.56367 0.19685 0.68921 0.0
C868 C 0.58547 0.2116 0.69818 0.0
C869 C 0.60595 0.21398 0.68991 0.0
C870 C 0.60455 0.2015 0.67323 0.0
H871 H 0.55318 0.11664 0.66337 0.0
H872 H 0.56779 0.14306 0.67753 0.0
H873 H 0.53929 0.13363 0.66698 0.0
H874 H 0.54531 0.1734 0.66587 0.0
H875 H 0.54755 0.19477 0.69504 0.0
H876 H 0.43633 0.52793 0.73612 0.0
H877 H 0.42381 0.5405 0.76439 0.0
H878 H 0.47719 0.61121 0.75481 0.0
H879 H 0.48963 0.59882 0.72623 0.0
H880 H 0.45509 0.56581 0.79691 0.0
H881 H 0.4148 0.61295 0.7626 0.0
H882 H 0.41884 0.59159 0.74974 0.0
H883 H 0.44355 0.61965 0.75504 0.0
C884 C 0.44514 0.54621 0.73981 0.0
C885 C 0.46391 0.56239 0.72889 0.0
C886 C 0.43808 0.55333 0.75603 0.0
C887 C 0.44948 0.57677 0.76157 0.0
C888 C 0.46802 0.59306 0.75062 0.0
H889 H 0.41523 0.63625 0.86079 0.0
H890 H 0.4345 0.63276 0.83207 0.0
C891 C 0.4752 0.58594 0.73441 0.0
C892 C 0.44252 0.58379 0.77935 0.0
H893 H 0.41406 0.61117 0.79624 0.0
C894 C 0.44627 0.57587 0.7968 0.0
C895 C 0.43128 0.59713 0.77912 0.0
C896 C 0.42669 0.60579 0.76066 0.0
C897 C 0.43856 0.58047 0.81404 0.0
C898 C 0.42633 0.59288 0.81374 0.0
C899 C 0.42338 0.6016 0.79639 0.0
C900 C 0.41489 0.59532 0.83105 0.0
C901 C 0.44345 0.57185 0.83242 0.0
C902 C 0.39726 0.57546 0.83973 0.0
C903 C 0.38629 0.57736 0.85604 0.0
C904 C 0.39258 0.59922 0.86399 0.0
C905 C 0.41005 0.61917 0.85509 0.0
C906 C 0.42105 0.61722 0.83869 0.0
H907 H 0.45879 0.56925 0.83111 0.0
H908 H 0.4468 0.58412 0.84451 0.0
H909 H 0.42797 0.55493 0.83587 0.0
H910 H 0.39188 0.55842 0.83382 0.0
H911 H 0.37281 0.56162 0.86239 0.0
H912 H 0.90489 0.41239 0.88993 0.0
H913 H 0.87665 0.4015 0.91585 0.0
H914 H 0.88413 0.46952 0.91515 0.0
H915 H 0.91215 0.48043 0.88929 0.0
H916 H 0.88359 0.42073 0.95147 0.0
H917 H 0.81359 0.42868 0.91404 0.0
H918 H 0.83702 0.42792 0.90146 0.0
H919 H 0.84162 0.45449 0.91235 0.0
C920 C 0.90043 0.42497 0.89528 0.0
C921 C 0.91062 0.44722 0.88748 0.0
C922 C 0.88423 0.4187 0.91001 0.0
C923 C 0.87791 0.43454 0.91716 0.0
C924 C 0.88818 0.45678 0.90947 0.0
H925 H 0.81392 0.45582 0.01414 0.0
H926 H 0.83347 0.45674 0.98438 0.0
C927 C 0.90425 0.46301 0.89471 0.0
C928 C 0.86173 0.42844 0.93346 0.0
H929 H 0.81271 0.42886 0.94845 0.0
C930 C 0.86786 0.42211 0.95073 0.0
C931 C 0.84117 0.43017 0.93244 0.0
C932 C 0.83282 0.43545 0.91401 0.0
C933 C 0.85463 0.41859 0.96726 0.0
C934 C 0.8347 0.42133 0.96642 0.0
C935 C 0.82809 0.42689 0.94903 0.0
C936 C 0.8215 0.42008 0.98378 0.0
C937 C 0.8626 0.41296 0.98573 0.0
C938 C 0.80792 0.39903 0.99306 0.0
C939 C 0.79661 0.39839 0.01007 0.0
C940 C 0.7988 0.41884 0.0181 0.0
C941 C 0.81196 0.43977 0.00843 0.0
C942 C 0.82311 0.44035 0.9914 0.0
H943 H 0.88016 0.41455 0.98456 0.0
H944 H 0.86325 0.42462 0.99748 0.0
H945 H 0.84983 0.39493 0.98971 0.0
H946 H 0.80633 0.38317 0.98725 0.0
H947 H 0.78659 0.38198 0.01713 0.0
H948 H 0.51406 0.94199 0.0843 0.0
H949 H 0.49573 0.91414 0.10976 0.0
H950 H 0.44305 0.86624 0.06971 0.0
H951 H 0.4621 0.8934 0.04391 0.0
H952 H 0.45334 0.89894 0.12319 0.0
H953 H 0.45943 0.82354 0.0971 0.0
H954 H 0.47575 0.85175 0.0866 0.0
H955 H 0.44547 0.8327 0.07992 0.0
C956 C 0.49897 0.92529 0.08075 0.0
C957 C 0.48961 0.91999 0.06199 0.0
C958 C 0.48838 0.90944 0.09538 0.0
C959 C 0.46816 0.88796 0.09163 0.0
C960 C 0.45893 0.88247 0.0729 0.0
H961 H 0.36486 0.80971 0.1766 0.0
H962 H 0.38638 0.83258 0.1492 0.0
C963 C 0.46965 0.89822 0.0582 0.0
C964 C 0.45574 0.87219 0.10759 0.0
H965 H 0.43268 0.81651 0.12258 0.0
C966 C 0.44901 0.88097 0.1231 0.0
C967 C 0.45031 0.8488 0.10762 0.0
C968 C 0.45833 0.8387 0.09201 0.0
C969 C 0.43662 0.86695 0.13843 0.0
C970 C 0.43014 0.84327 0.13799 0.0
C971 C 0.43734 0.83457 0.12273 0.0
C972 C 0.41607 0.82742 0.15338 0.0
C973 C 0.43094 0.87779 0.15508 0.0
C974 C 0.42502 0.81588 0.1642 0.0
C975 C 0.41257 0.80245 0.17974 0.0
C976 C 0.39098 0.80044 0.18473 0.0
C977 C 0.38159 0.81116 0.1733 0.0
C978 C 0.39392 0.82435 0.15769 0.0
H979 H 0.44284 0.89685 0.15585 0.0
H980 H 0.41273 0.87446 0.1533 0.0
H981 H 0.43226 0.87036 0.16886 0.0
H982 H 0.442 0.81786 0.16102 0.0
H983 H 0.42026 0.79437 0.18822 0.0
H984 H 0.57772 0.489 0.24053 0.0
H985 H 0.59017 0.47164 0.26515 0.0
H986 H 0.52677 0.40611 0.25591 0.0
H987 H 0.51424 0.42329 0.23086 0.0
H988 H 0.5374 0.42036 0.29485 0.0
H989 H 0.61417 0.42576 0.25845 0.0
H990 H 0.61431 0.45273 0.25835 0.0
H991 H 0.5913 0.42793 0.24579 0.0
C992 C 0.56658 0.47078 0.24343 0.0
C993 C 0.54506 0.4575 0.23358 0.0
C994 C 0.57373 0.46089 0.25753 0.0
C995 C 0.55959 0.4375 0.26209 0.0
C996 C 0.538 0.42416 0.25247 0.0
H997 H 0.59488 0.37802 0.36159 0.0
H998 H 0.57442 0.37849 0.3321 0.0
C999 C 0.53083 0.43405 0.23826 0.0
C1000 C 0.56714 0.42759 0.2776 0.0
H1001 H 0.61405 0.42308 0.29286 0.0
C1002 C 0.55386 0.42038 0.2943 0.0
C1003 C 0.58852 0.42746 0.27675 0.0
C1004 C 0.60278 0.43366 0.25878 0.0
C1005 C 0.56237 0.41479 0.31072 0.0
C1006 C 0.58456 0.41631 0.31025 0.0
C1007 C 0.59708 0.42205 0.29316 0.0
C1008 C 0.59654 0.41528 0.3279 0.0
C1009 C 0.5484 0.4088 0.32882 0.0
C1010 C 0.61576 0.43572 0.33508 0.0
C1011 C 0.62735 0.43554 0.35179 0.0
C1012 C 0.62008 0.41484 0.36166 0.0
C1013 C 0.60089 0.39424 0.35434 0.0
C1014 C 0.58916 0.39448 0.33756 0.0
H1015 H 0.5322 0.40993 0.32716 0.0
H1016 H 0.54334 0.39091 0.33296 0.0
H1017 H 0.55928 0.42064 0.34069 0.0
H1018 H 0.62169 0.45194 0.32781 0.0
H1019 H 0.6421 0.45173 0.35693 0.0
H1020 H 0.50565 0.92318 0.41371 0.0
H1021 H 0.49113 0.89578 0.38644 0.0
H1022 H 0.43449 0.90975 0.37764 0.0
H1023 H 0.44903 0.93733 0.40455 0.0
H1024 H 0.44426 0.85517 0.3806 0.0
H1025 H 0.46751 0.92164 0.32505 0.0
H1026 H 0.48026 0.92855 0.34889 0.0
H1027 H 0.4513 0.92407 0.34459 0.0
C1028 C 0.49019 0.92049 0.40587 0.0
C1029 C 0.47851 0.93244 0.41125 0.0
C1030 C 0.48187 0.90477 0.3904 0.0
C1031 C 0.46192 0.90099 0.37994 0.0
C1032 C 0.45008 0.91266 0.38541 0.0
H1033 H 0.37291 0.82352 0.28663 0.0
H1034 H 0.39378 0.8483 0.31415 0.0
C1035 C 0.45829 0.92825 0.4009 0.0
C1036 C 0.45325 0.88485 0.36327 0.0
H1037 H 0.44138 0.8825 0.31544 0.0
C1038 C 0.44388 0.86108 0.36628 0.0
C1039 C 0.45294 0.89272 0.34465 0.0
C1040 C 0.46373 0.91816 0.34049 0.0
C1041 C 0.43304 0.84483 0.35125 0.0
C1042 C 0.43194 0.85268 0.33276 0.0
C1043 C 0.44214 0.87652 0.32966 0.0
C1044 C 0.41892 0.83654 0.31665 0.0
C1045 C 0.42193 0.81937 0.35541 0.0
C1046 C 0.42608 0.82159 0.30895 0.0
C1047 C 0.41409 0.80725 0.29314 0.0
C1048 C 0.39486 0.80779 0.28473 0.0
C1049 C 0.38766 0.82266 0.29268 0.0
C1050 C 0.39958 0.83688 0.30843 0.0
H1051 H 0.42045 0.81606 0.37101 0.0
H1052 H 0.40417 0.80958 0.34868 0.0
H1053 H 0.43283 0.81258 0.34927 0.0
H1054 H 0.4412 0.82134 0.31491 0.0
H1055 H 0.42015 0.79609 0.28732 0.0
H1056 H 0.52949 0.47132 0.56098 0.0
H1057 H 0.54544 0.45585 0.53739 0.0
H1058 H 0.57834 0.43816 0.58272 0.0
H1059 H 0.56283 0.45418 0.60637 0.0
H1060 H 0.60842 0.45987 0.55571 0.0
H1061 H 0.52712 0.39125 0.52115 0.0
H1062 H 0.52777 0.41843 0.52077 0.0
H1063 H 0.52696 0.40526 0.54334 0.0
C1064 C 0.53981 0.46379 0.56592 0.0
C1065 C 0.54492 0.46393 0.58549 0.0
C1066 C 0.5488 0.45481 0.55244 0.0
C1067 C 0.5627 0.44538 0.55828 0.0
C1068 C 0.56754 0.44521 0.57787 0.0
H1069 H 0.60984 0.38549 0.46782 0.0
H1070 H 0.59186 0.38883 0.49738 0.0
C1071 C 0.55877 0.45443 0.59135 0.0
C1072 C 0.57377 0.43756 0.54383 0.0
H1073 H 0.56243 0.40566 0.50253 0.0
C1074 C 0.59829 0.4477 0.54428 0.0
C1075 C 0.56061 0.42129 0.52912 0.0
C1076 C 0.53414 0.40825 0.52869 0.0
C1077 C 0.61008 0.44309 0.52981 0.0
C1078 C 0.59705 0.42847 0.51419 0.0
C1079 C 0.57245 0.41719 0.51434 0.0
C1080 C 0.60867 0.4262 0.49689 0.0
C1081 C 0.63642 0.4542 0.53133 0.0
C1082 C 0.62387 0.44604 0.48674 0.0
C1083 C 0.63422 0.44422 0.47002 0.0
C1084 C 0.62936 0.42246 0.46285 0.0
C1085 C 0.61404 0.40252 0.47299 0.0
C1086 C 0.60373 0.40439 0.48986 0.0
H1087 H 0.64254 0.4576 0.54651 0.0
H1088 H 0.64266 0.44317 0.52456 0.0
H1089 H 0.64462 0.47109 0.52403 0.0
H1090 H 0.62741 0.46299 0.49157 0.0
H1091 H 0.64574 0.45994 0.46252 0.0
H1092 H 0.1197 0.55414 0.76625 0.0
H1093 H 0.15013 0.57437 0.7425 0.0
H1094 H 0.09696 0.56254 0.70021 0.0
H1095 H 0.06645 0.54167 0.72361 0.0
H1096 H 0.13104 0.55306 0.68676 0.0
H1097 H 0.17119 0.63956 0.72279 0.0
H1098 H 0.16917 0.61652 0.73723 0.0
H1099 H 0.14286 0.6159 0.72918 0.0
C1100 C 0.11448 0.55566 0.75184 0.0
C1101 C 0.09064 0.54641 0.74685 0.0
C1102 C 0.1319 0.56744 0.73836 0.0
C1103 C 0.1258 0.57025 0.7197 0.0
C1104 C 0.10204 0.56069 0.71459 0.0
H1105 H 0.20013 0.663 0.62978 0.0
H1106 H 0.17667 0.64244 0.65727 0.0
C1107 C 0.08464 0.54892 0.72802 0.0
C1108 C 0.14402 0.58306 0.70533 0.0
H1109 H 0.18893 0.63677 0.69448 0.0
C1110 C 0.14383 0.57133 0.68848 0.0
C1111 C 0.16051 0.60693 0.70759 0.0
C1112 C 0.16094 0.62059 0.72508 0.0
C1113 C 0.15944 0.58289 0.67367 0.0
C1114 C 0.17596 0.60676 0.67593 0.0
C1115 C 0.17638 0.61843 0.69289 0.0
C1116 C 0.1917 0.62025 0.66026 0.0
C1117 C 0.15751 0.56967 0.65544 0.0
C1118 C 0.20837 0.61499 0.65313 0.0
C1119 C 0.2218 0.62667 0.63733 0.0
C1120 C 0.21886 0.64391 0.62846 0.0
C1121 C 0.2028 0.64975 0.63618 0.0
C1122 C 0.18938 0.63805 0.65193 0.0
H1123 H 0.14079 0.55288 0.65447 0.0
H1124 H 0.1587 0.58 0.64272 0.0
H1125 H 0.17219 0.56601 0.65499 0.0
H1126 H 0.21073 0.60159 0.6596 0.0
H1127 H 0.23412 0.62184 0.63185 0.0
H1128 H 0.59641 0.12642 0.93938 0.0
H1129 H 0.60673 0.15601 0.91501 0.0
H1130 H 0.56016 0.10345 0.87445 0.0
H1131 H 0.55032 0.07378 0.89844 0.0
H1132 H 0.60394 0.13529 0.85938 0.0
H1133 H 0.56227 0.1791 0.89703 0.0
H1134 H 0.58396 0.17605 0.91048 0.0
H1135 H 0.55687 0.15075 0.90349 0.0
C1136 C 0.58858 0.12116 0.9252 0.0
C1137 C 0.57239 0.09778 0.92088 0.0
C1138 C 0.59433 0.1381 0.91136 0.0
C1139 C 0.58395 0.13193 0.89303 0.0
C1140 C 0.56827 0.10857 0.88855 0.0
H1141 H 0.5536 0.19751 0.80364 0.0
H1142 H 0.55565 0.1772 0.8317 0.0
C1143 C 0.56252 0.09167 0.90233 0.0
C1144 C 0.58887 0.14966 0.87844 0.0
H1145 H 0.579 0.1938 0.86722 0.0
C1146 C 0.59878 0.14829 0.86114 0.0
C1147 C 0.58193 0.16645 0.8808 0.0
C1148 C 0.5705 0.16819 0.89887 0.0
C1149 C 0.60129 0.16282 0.84588 0.0
C1150 C 0.59399 0.17936 0.84813 0.0
C1151 C 0.58473 0.1812 0.86563 0.0
C1152 C 0.59347 0.19315 0.83187 0.0
C1153 C 0.61063 0.15958 0.82718 0.0
C1154 C 0.61414 0.20923 0.82287 0.0
C1155 C 0.61305 0.2209 0.8067 0.0
C1156 C 0.59125 0.21669 0.79935 0.0
C1157 C 0.57068 0.20111 0.80883 0.0
C1158 C 0.5718 0.18951 0.82493 0.0
H1159 H 0.6115 0.14337 0.82676 0.0
H1160 H 0.59948 0.15918 0.81499 0.0
H1161 H 0.62861 0.17436 0.82516 0.0
H1162 H 0.63106 0.21255 0.8282 0.0
H1163 H 0.62922 0.23287 0.79979 0.0
H1164 H 0.44649 0.56972 0.11065 0.0
H1165 H 0.42988 0.58015 0.08371 0.0
H1166 H 0.48137 0.5795 0.04647 0.0
H1167 H 0.49716 0.56769 0.07294 0.0
H1168 H 0.44687 0.61594 0.05864 0.0
H1169 H 0.42057 0.5331 0.02022 0.0
H1170 H 0.4309 0.5383 0.04474 0.0
H1171 H 0.45144 0.54963 0.02553 0.0
C1172 C 0.4542 0.57163 0.09671 0.0
C1173 C 0.47295 0.56747 0.09396 0.0
C1174 C 0.44483 0.57783 0.08136 0.0
C1175 C 0.45407 0.58011 0.06301 0.0
C1176 C 0.47363 0.57731 0.06043 0.0
H1177 H 0.41731 0.63322 0.96258 0.0
H1178 H 0.43648 0.62986 0.9916 0.0
C1179 C 0.48284 0.57086 0.07569 0.0
C1180 C 0.44253 0.58424 0.04641 0.0
H1181 H 0.41585 0.56106 0.00331 0.0
C1182 C 0.44003 0.60395 0.04653 0.0
C1183 C 0.43328 0.56835 0.03079 0.0
C1184 C 0.43394 0.54604 0.03034 0.0
C1185 C 0.42867 0.6083 0.03136 0.0
C1186 C 0.42008 0.59276 0.01548 0.0
C1187 C 0.42256 0.57304 0.01543 0.0
C1188 C 0.40788 0.59603 0.99887 0.0
C1189 C 0.42548 0.62914 0.03272 0.0
C1190 C 0.38553 0.5781 0.99321 0.0
C1191 C 0.37479 0.57978 0.97649 0.0
C1192 C 0.38608 0.59953 0.96512 0.0
C1193 C 0.40811 0.61786 0.97113 0.0
C1194 C 0.41902 0.61602 0.98777 0.0
H1195 H 0.42684 0.63528 0.04776 0.0
H1196 H 0.43944 0.64348 0.02452 0.0
H1197 H 0.40821 0.62523 0.02663 0.0
H1198 H 0.37659 0.56252 0.00154 0.0
H1199 H 0.35776 0.56542 0.97231 0.0
H1200 H 0.93039 0.47921 0.24344 0.0
H1201 H 0.90184 0.46736 0.21715 0.0
H1202 H 0.88321 0.39615 0.22465 0.0
H1203 H 0.91169 0.40785 0.25126 0.0
H1204 H 0.89099 0.41067 0.18622 0.0
H1205 H 0.83015 0.43373 0.22119 0.0
H1206 H 0.86003 0.45694 0.22203 0.0
H1207 H 0.85206 0.43057 0.23441 0.0
C1208 C 0.91999 0.46097 0.23973 0.0
C1209 C 0.92316 0.44445 0.2496 0.0
C1210 C 0.90369 0.45424 0.22468 0.0
C1211 C 0.89011 0.43084 0.2192 0.0
C1212 C 0.89343 0.41428 0.22876 0.0
H1213 H 0.79118 0.37752 0.12024 0.0
H1214 H 0.81277 0.37801 0.14926 0.0
C1215 C 0.90977 0.42101 0.24389 0.0
C1216 C 0.87304 0.42402 0.20307 0.0
H1217 H 0.82674 0.42913 0.187 0.0
C1218 C 0.87666 0.41428 0.18646 0.0
C1219 C 0.85429 0.42863 0.20351 0.0
C1220 C 0.84872 0.43783 0.22131 0.0
C1221 C 0.86286 0.41037 0.16985 0.0
C1222 C 0.84491 0.41613 0.17003 0.0
C1223 C 0.84061 0.42484 0.18691 0.0
C1224 C 0.83183 0.41533 0.15243 0.0
C1225 C 0.86831 0.40124 0.15196 0.0
C1226 C 0.83526 0.4361 0.14479 0.0
C1227 C 0.82304 0.43591 0.12832 0.0
C1228 C 0.80697 0.41488 0.11917 0.0
C1229 C 0.80347 0.39401 0.1269 0.0
C1230 C 0.81583 0.39424 0.14343 0.0
H1231 H 0.88473 0.4005 0.15351 0.0
H1232 H 0.85366 0.38351 0.14865 0.0
H1233 H 0.86999 0.41229 0.13962 0.0
H1234 H 0.84751 0.45254 0.15157 0.0
H1235 H 0.82617 0.45232 0.12283 0.0
loop_
_geom_bond_atom_site_label_1
_geom_bond_atom_site_label_2
_geom_bond_distance
_geom_bond_site_symmetry_2
_ccdc_geom_bond_type
H0 C19 0.949 . S
H1 C20 0.950 . S
H2 C22 0.950 . S
H3 C23 0.950 . S
H4 C25 0.950 . S
H5 C28 0.950 . S
H6 C29 0.950 . S
H7 C31 0.951 . S
H8 C32 0.949 . S
H9 C34 0.949 . S
H10 C35 0.950 . S
H11 C37 0.950 . S
H12 C38 0.950 . S
H13 C40 0.934 1_655 S
H14 C43 0.950 . S
H15 C44 0.950 . S
H16 C46 0.951 . S
H17 C47 0.949 . S
C18 C19 1.376 . S
C18 C23 1.386 . S
C18 C24 1.483 . S
C19 H0 0.949 . S
C19 C18 1.376 . S
C19 C20 1.397 . S
C20 H1 0.950 . S
C20 C19 1.397 . S
C20 C21 1.391 . S
C21 C20 1.391 . S
C21 C22 1.405 . S
C22 H2 0.950 . S
C22 C21 1.405 . S
C22 C23 1.367 . S
C23 H3 0.950 . S
C23 C18 1.386 . S
C23 C22 1.367 . S
C24 C18 1.483 . S
C24 C25 1.382 1_655 S
C24 C26 1.403 . S
C25 H4 0.950 . S
C25 C24 1.382 1_455 S
C25 C41 1.411 . S
C26 C24 1.403 . S
C26 C27 1.489 . S
C26 C40 1.411 1_655 S
C27 C26 1.489 . S
C27 C28 1.383 . S
C27 C32 1.382 . S
C28 H5 0.950 . S
C28 C27 1.383 . S
C28 C29 1.395 . S
C29 H6 0.950 . S
C29 C28 1.395 . S
C29 C30 1.288 . S
C30 C29 1.288 . S
C30 C31 1.392 . S
C31 H7 0.951 . S
C31 C30 1.392 . S
C31 C32 1.392 . S
C32 H8 0.949 . S
C32 C27 1.382 . S
C32 C31 1.392 . S
C33 C34 1.376 . S
C33 C38 1.386 . S
C33 C39 1.483 . S
C34 H9 0.949 . S
C34 C33 1.376 . S
C34 C35 1.397 . S
C35 H10 0.950 . S
C35 C34 1.397 . S
C35 C36 1.391 . S
C36 C35 1.391 . S
C36 C37 1.405 . S
C37 H11 0.950 . S
C37 C36 1.405 . S
C37 C38 1.367 . S
C38 H12 0.950 . S
C38 C33 1.386 . S
C38 C37 1.367 . S
C39 C33 1.483 . S
C39 C40 1.382 . S
C39 C41 1.403 . S
C40 H13 0.934 1_455 S
C40 C26 1.411 1_455 S
C40 C39 1.382 . S
C41 C25 1.411 . S
C41 C39 1.403 . S
C41 C42 1.489 . S
C42 C41 1.489 . S
C42 C43 1.383 . S
C42 C47 1.382 . S
C43 H14 0.950 . S
C43 C42 1.383 . S
C43 C44 1.395 . S
C44 H15 0.950 . S
C44 C43 1.395 . S
C44 C45 1.288 . S
C45 C44 1.288 . S
C45 C46 1.392 . S
C46 H16 0.951 . S
C46 C45 1.392 . S
C46 C47 1.392 . S
C47 H17 0.949 . S
C47 C42 1.382 . S
C47 C46 1.392 . S
H48 C67 0.949 . S
H49 C68 0.950 . S
H50 C70 0.950 . S
H51 C71 0.950 . S
H52 C73 0.950 . S
H53 C76 0.950 . S
H54 C77 0.950 . S
H55 C79 0.951 . S
H56 C80 0.949 . S
H57 C82 0.949 . S
H58 C83 0.950 . S
H59 C85 0.950 . S
H60 C86 0.950 . S
H61 C88 0.950 . S
H62 C91 0.950 . S
H63 C92 0.950 . S
H64 C94 0.951 . S
H65 C95 0.949 . S
C66 C67 1.376 . S
C66 C71 1.386 . S
C66 C72 1.483 . S
C67 H48 0.949 . S
C67 C66 1.376 . S
C67 C68 1.397 . S
C68 H49 0.950 . S
C68 C67 1.397 . S
C68 C69 1.391 . S
C69 C68 1.391 . S
C69 C70 1.405 . S
C70 H50 0.950 . S
C70 C69 1.405 . S
C70 C71 1.367 . S
C71 H51 0.950 . S
C71 C66 1.386 . S
C71 C70 1.367 . S
C72 C66 1.483 . S
C72 C73 1.382 . S
C72 C74 1.403 . S
C73 H52 0.950 . S
C73 C72 1.382 . S
C73 C89 1.411 1_565 S
C74 C72 1.403 . S
C74 C75 1.489 . S
C74 C88 1.411 1_565 S
C75 C74 1.489 . S
C75 C76 1.383 . S
C75 C80 1.382 . S
C76 H53 0.950 . S
C76 C75 1.383 . S
C76 C77 1.395 . S
C77 H54 0.950 . S
C77 C76 1.395 . S
C77 C78 1.288 . S
C78 C77 1.288 . S
C78 C79 1.392 . S
C79 H55 0.951 . S
C79 C78 1.392 . S
C79 C80 1.392 . S
C80 H56 0.949 . S
C80 C75 1.382 . S
C80 C79 1.392 . S
C81 C82 1.376 . S
C81 C86 1.386 . S
C81 C87 1.483 . S
C82 H57 0.949 . S
C82 C81 1.376 . S
C82 C83 1.397 . S
C83 H58 0.950 . S
C83 C82 1.397 . S
C83 C84 1.391 . S
C84 C83 1.391 . S
C84 C85 1.405 . S
C85 H59 0.950 . S
C85 C84 1.405 . S
C85 C86 1.367 . S
C86 H60 0.950 . S
C86 C81 1.386 . S
C86 C85 1.367 . S
C87 C81 1.483 . S
C87 C88 1.382 . S
C87 C89 1.403 . S
C88 H61 0.950 . S
C88 C74 1.411 1_545 S
C88 C87 1.382 . S
C89 C73 1.411 1_545 S
C89 C87 1.403 . S
C89 C90 1.489 . S
C90 C89 1.489 . S
C90 C91 1.383 . S
C90 C95 1.382 . S
C91 H62 0.950 . S
C91 C90 1.383 . S
C91 C92 1.395 . S
C92 H63 0.950 . S
C92 C91 1.395 . S
C92 C93 1.288 . S
C93 C92 1.288 . S
C93 C94 1.392 . S
C94 H64 0.951 . S
C94 C93 1.392 . S
C94 C95 1.392 . S
C95 H65 0.949 . S
C95 C90 1.382 . S
C95 C94 1.392 . S
H96 C115 0.949 . S
H97 C116 0.950 . S
H98 C118 0.950 . S
H99 C119 0.950 . S
H100 C121 0.950 . S
H101 C124 0.950 . S
H102 C125 0.950 . S
H103 C127 0.951 . S
H104 C128 0.949 . S
H105 C130 0.949 . S
H106 C131 0.950 . S
H107 C133 0.950 . S
H108 C134 0.950 . S
H109 C136 0.950 . S
H110 C139 0.950 . S
H111 C140 0.950 . S
H112 C142 0.951 . S
H113 C143 0.949 . S
C114 C115 1.376 . S
C114 C119 1.386 . S
C114 C120 1.483 . S
C115 H96 0.949 . S
C115 C114 1.376 . S
C115 C116 1.397 . S
C116 H97 0.950 . S
C116 C115 1.397 . S
C116 C117 1.391 . S
C117 C116 1.391 . S
C117 C118 1.405 . S
C118 H98 0.950 . S
C118 C117 1.405 . S
C118 C119 1.367 . S
C119 H99 0.950 . S
C119 C114 1.386 . S
C119 C118 1.367 . S
C120 C114 1.483 . S
C120 C121 1.382 . S
C120 C122 1.403 . S
C121 H100 0.950 . S
C121 C120 1.382 . S
C121 C137 1.411 . S
C122 C120 1.403 . S
C122 C123 1.489 . S
C122 C136 1.411 . S
C123 C122 1.489 . S
C123 C124 1.383 . S
C123 C128 1.382 . S
C124 H101 0.950 . S
C124 C123 1.383 . S
C124 C125 1.395 . S
C125 H102 0.950 . S
C125 C124 1.395 . S
C125 C126 1.288 . S
C126 C125 1.288 . S
C126 C127 1.392 . S
C127 H103 0.951 . S
C127 C126 1.392 . S
C127 C128 1.392 . S
C128 H104 0.949 . S
C128 C123 1.382 . S
C128 C127 1.392 . S
C129 C130 1.376 . S
C129 C134 1.386 . S
C129 C135 1.483 . S
C130 H105 0.949 . S
C130 C129 1.376 . S
C130 C131 1.397 . S
C131 H106 0.950 . S
C131 C130 1.397 . S
C131 C132 1.391 . S
C132 C131 1.391 . S
C132 C133 1.405 . S
C133 H107 0.950 . S
C133 C132 1.405 . S
C133 C134 1.367 . S
C134 H108 0.950 . S
C134 C129 1.386 . S
C134 C133 1.367 . S
C135 C129 1.483 . S
C135 C136 1.382 . S
C135 C137 1.403 . S
C136 H109 0.950 . S
C136 C122 1.411 . S
C136 C135 1.382 . S
C137 C121 1.411 . S
C137 C135 1.403 . S
C137 C138 1.489 . S
C138 C137 1.489 . S
C138 C139 1.383 . S
C138 C143 1.382 . S
C139 H110 0.950 . S
C139 C138 1.383 . S
C139 C140 1.395 . S
C140 H111 0.950 . S
C140 C139 1.395 . S
C140 C141 1.288 . S
C141 C140 1.288 . S
C141 C142 1.392 . S
C142 H112 0.951 . S
C142 C141 1.392 . S
C142 C143 1.392 . S
C143 H113 0.949 . S
C143 C138 1.382 . S
C143 C142 1.392 . S
H144 C163 0.949 . S
H145 C164 0.950 . S
H146 C166 0.950 . S
H147 C167 0.950 . S
H148 C169 0.950 . S
H149 C172 0.950 . S
H150 C173 0.950 . S
H151 C175 0.951 . S
H152 C176 0.949 . S
H153 C178 0.949 . S
H154 C179 0.950 . S
H155 C181 0.950 . S
H156 C182 0.950 . S
H157 C184 0.950 . S
H158 C187 0.950 . S
H159 C188 0.950 . S
H160 C190 0.951 . S
H161 C191 0.949 . S
C162 C163 1.376 . S
C162 C167 1.386 . S
C162 C168 1.483 . S
C163 H144 0.949 . S
C163 C162 1.376 . S
C163 C164 1.397 . S
C164 H145 0.950 . S
C164 C163 1.397 . S
C164 C165 1.391 . S
C165 C164 1.391 . S
C165 C166 1.405 . S
C166 H146 0.950 . S
C166 C165 1.405 . S
C166 C167 1.367 . S
C167 H147 0.950 . S
C167 C162 1.386 . S
C167 C166 1.367 . S
C168 C162 1.483 . S
C168 C169 1.382 . S
C168 C170 1.403 . S
C169 H148 0.950 . S
C169 C168 1.382 . S
C169 C185 1.411 1_455 S
C170 C168 1.403 . S
C170 C171 1.489 . S
C170 C184 1.411 . S
C171 C170 1.489 . S
C171 C172 1.383 . S
C171 C176 1.382 . S
C172 H149 0.950 . S
C172 C171 1.383 . S
C172 C173 1.395 . S
C173 H150 0.950 . S
C173 C172 1.395 . S
C173 C174 1.288 . S
C174 C173 1.288 . S
C174 C175 1.392 . S
C175 H151 0.951 . S
C175 C174 1.392 . S
C175 C176 1.392 . S
C176 H152 0.949 . S
C176 C171 1.382 . S
C176 C175 1.392 . S
C177 C178 1.376 . S
C177 C182 1.386 . S
C177 C183 1.483 . S
C178 H153 0.949 . S
C178 C177 1.376 . S
C178 C179 1.397 . S
C179 H154 0.950 . S
C179 C178 1.397 . S
C179 C180 1.391 . S
C180 C179 1.391 . S
C180 C181 1.405 . S
C181 H155 0.950 . S
C181 C180 1.405 . S
C181 C182 1.367 . S
C182 H156 0.950 . S
C182 C177 1.386 . S
C182 C181 1.367 . S
C183 C177 1.483 . S
C183 C184 1.382 1_655 S
C183 C185 1.403 . S
C184 H157 0.950 . S
C184 C170 1.411 . S
C184 C183 1.382 1_455 S
C185 C169 1.411 1_655 S
C185 C183 1.403 . S
C185 C186 1.489 . S
C186 C185 1.489 . S
C186 C187 1.383 . S
C186 C191 1.382 . S
C187 H158 0.950 . S
C187 C186 1.383 . S
C187 C188 1.395 . S
C188 H159 0.950 . S
C188 C187 1.395 . S
C188 C189 1.288 . S
C189 C188 1.288 . S
C189 C190 1.392 . S
C190 H160 0.951 . S
C190 C189 1.392 . S
C190 C191 1.392 . S
C191 H161 0.949 . S
C191 C186 1.382 . S
C191 C190 1.392 . S
H192 C211 0.949 . S
H193 C212 0.950 . S
H194 C214 0.949 . S
H195 C215 0.950 . S
H196 C217 0.950 . S
H197 C220 0.950 . S
H198 C221 0.950 . S
H199 C223 0.951 . S
H200 C224 0.949 . S
H201 C226 0.949 . S
H202 C227 0.950 . S
H203 C229 0.950 . S
H204 C230 0.950 . S
H205 C232 0.951 . S
H206 C235 0.950 . S
H207 C236 0.950 . S
H208 C238 0.951 . S
H209 C239 0.949 . S
C210 C211 1.395 . S
C210 C215 1.378 1_554 S
C210 C216 1.474 1_554 S
C211 H192 0.949 . S
C211 C210 1.395 . S
C211 C212 1.397 . S
C212 H193 0.950 . S
C212 C211 1.397 . S
C212 C213 1.391 . S
C213 C212 1.391 . S
C213 C214 1.405 . S
C214 H194 0.949 . S
C214 C213 1.405 . S
C214 C215 1.367 1_554 S
C215 H195 0.950 . S
C215 C210 1.378 1_556 S
C215 C214 1.367 1_556 S
C216 C210 1.474 1_556 S
C216 C217 1.382 1_556 S
C216 C218 1.403 . S
C217 H196 0.950 . S
C217 C216 1.382 1_554 S
C217 C233 1.411 1_545 S
C218 C216 1.403 . S
C218 C219 1.489 . S
C218 C232 1.407 1_545 S
C219 C218 1.489 . S
C219 C220 1.383 . S
C219 C224 1.382 . S
C220 H197 0.950 . S
C220 C219 1.383 . S
C220 C221 1.395 . S
C221 H198 0.950 . S
C221 C220 1.395 . S
C221 C222 1.288 . S
C222 C221 1.288 . S
C222 C223 1.392 . S
C223 H199 0.951 . S
C223 C222 1.392 . S
C223 C224 1.392 . S
C224 H200 0.949 . S
C224 C219 1.382 . S
C224 C223 1.392 . S
C225 C226 1.376 . S
C225 C230 1.386 . S
C225 C231 1.483 . S
C226 H201 0.949 . S
C226 C225 1.376 . S
C226 C227 1.397 . S
C227 H202 0.950 . S
C227 C226 1.397 . S
C227 C228 1.391 . S
C228 C227 1.391 . S
C228 C229 1.405 . S
C229 H203 0.950 . S
C229 C228 1.405 . S
C229 C230 1.367 . S
C230 H204 0.950 . S
C230 C225 1.386 . S
C230 C229 1.367 . S
C231 C225 1.483 . S
C231 C232 1.385 . S
C231 C233 1.403 1_556 S
C232 H205 0.951 . S
C232 C218 1.407 1_565 S
C232 C231 1.385 . S
C233 C217 1.411 1_565 S
C233 C231 1.403 1_554 S
C233 C234 1.489 . S
C234 C233 1.489 . S
C234 C235 1.383 . S
C234 C239 1.382 . S
C235 H206 0.950 . S
C235 C234 1.383 . S
C235 C236 1.395 . S
C236 H207 0.950 . S
C236 C235 1.395 . S
C236 C237 1.288 . S
C237 C236 1.288 . S
C237 C238 1.392 . S
C238 H208 0.951 . S
C238 C237 1.392 . S
C238 C239 1.392 . S
C239 H209 0.949 . S
C239 C234 1.382 . S
C239 C238 1.392 . S
H240 C259 0.949 . S
H241 C260 0.950 . S
H242 C262 0.950 . S
H243 C263 0.950 . S
H244 C265 0.950 . S
H245 C268 0.950 . S
H246 C269 0.950 . S
H247 C271 0.951 . S
H248 C272 0.949 . S
H249 C274 0.949 . S
H250 C275 0.950 . S
H251 C277 0.950 . S
H252 C278 0.950 . S
H253 C280 0.950 . S
H254 C283 0.950 . S
H255 C284 0.950 . S
H256 C286 0.951 . S
H257 C287 0.949 . S
C258 C259 1.376 . S
C258 C263 1.386 . S
C258 C264 1.483 . S
C259 H240 0.949 . S
C259 C258 1.376 . S
C259 C260 1.397 . S
C260 H241 0.950 . S
C260 C259 1.397 . S
C260 C261 1.391 . S
C261 C260 1.391 . S
C261 C262 1.405 . S
C262 H242 0.950 . S
C262 C261 1.405 . S
C262 C263 1.367 . S
C263 H243 0.950 . S
C263 C258 1.386 . S
C263 C262 1.367 . S
C264 C258 1.483 . S
C264 C265 1.382 . S
C264 C266 1.403 . S
C265 H244 0.950 . S
C265 C264 1.382 . S
C265 C281 1.411 . S
C266 C264 1.403 . S
C266 C267 1.489 . S
C266 C280 1.411 . S
C267 C266 1.489 . S
C267 C268 1.383 . S
C267 C272 1.382 . S
C268 H245 0.950 . S
C268 C267 1.383 . S
C268 C269 1.395 . S
C269 H246 0.950 . S
C269 C268 1.395 . S
C269 C270 1.288 . S
C270 C269 1.288 . S
C270 C271 1.392 . S
C271 H247 0.951 . S
C271 C270 1.392 . S
C271 C272 1.392 . S
C272 H248 0.949 . S
C272 C267 1.382 . S
C272 C271 1.392 . S
C273 C274 1.376 . S
C273 C278 1.386 . S
C273 C279 1.483 . S
C274 H249 0.949 . S
C274 C273 1.376 . S
C274 C275 1.397 . S
C275 H250 0.950 . S
C275 C274 1.397 . S
C275 C276 1.391 . S
C276 C275 1.391 . S
C276 C277 1.405 . S
C277 H251 0.950 . S
C277 C276 1.405 . S
C277 C278 1.367 . S
C278 H252 0.950 . S
C278 C273 1.386 . S
C278 C277 1.367 . S
C279 C273 1.483 . S
C279 C280 1.382 . S
C279 C281 1.403 . S
C280 H253 0.950 . S
C280 C266 1.411 . S
C280 C279 1.382 . S
C281 C265 1.411 . S
C281 C279 1.403 . S
C281 C282 1.489 . S
C282 C281 1.489 . S
C282 C283 1.383 . S
C282 C287 1.382 . S
C283 H254 0.950 . S
C283 C282 1.383 . S
C283 C284 1.395 . S
C284 H255 0.950 . S
C284 C283 1.395 . S
C284 C285 1.288 . S
C285 C284 1.288 . S
C285 C286 1.392 . S
C286 H256 0.951 . S
C286 C285 1.392 . S
C286 C287 1.392 . S
C287 H257 0.949 . S
C287 C282 1.382 . S
C287 C286 1.392 . S
Zn288 O291 2.031 . S
Zn288 O293 2.049 . S
Zn288 O298 2.067 . S
Zn289 O290 1.962 . S
Zn289 O292 1.986 . S
Zn289 O294 1.996 . S
Zn289 O297 1.943 . S
O290 Zn289 1.962 . S
O290 C295 1.254 . S
O291 Zn288 2.031 . S
O291 C295 1.269 . S
O292 Zn289 1.986 . S
O292 C299 1.262 . S
O293 Zn288 2.049 . S
O293 C301 1.260 . S
O294 Zn289 1.996 . S
O294 C301 1.257 . S
C295 O290 1.254 . S
C295 O291 1.269 . S
C296 O297 1.249 . S
C296 O298 1.270 . S
O297 Zn289 1.943 . S
O297 C296 1.249 . S
O298 Zn288 2.067 . S
O298 C296 1.270 . S
C299 O292 1.262 . S
C299 O300 1.232 . S
O300 C299 1.232 . S
C301 O293 1.260 . S
C301 O294 1.257 . S
Zn302 O305 2.031 . S
Zn302 O307 2.049 . S
Zn302 O312 2.067 . S
Zn303 O304 1.962 . S
Zn303 O306 1.986 . S
Zn303 O308 1.996 . S
Zn303 O311 1.943 . S
O304 Zn303 1.962 . S
O304 C309 1.254 . S
O305 Zn302 2.031 . S
O305 C309 1.269 . S
O306 Zn303 1.986 . S
O306 C313 1.262 . S
O307 Zn302 2.049 . S
O307 C315 1.260 . S
O308 Zn303 1.996 . S
O308 C315 1.257 . S
C309 O304 1.254 . S
C309 O305 1.269 . S
C310 O311 1.249 . S
C310 O312 1.270 . S
O311 Zn303 1.943 . S
O311 C310 1.249 . S
O312 Zn302 2.067 . S
O312 C310 1.270 . S
C313 O306 1.262 . S
C313 O314 1.232 . S
O314 C313 1.232 . S
C315 O307 1.260 . S
C315 O308 1.257 . S
Zn316 O319 2.031 . S
Zn316 O321 2.049 . S
Zn316 O326 2.067 . S
Zn317 O318 1.962 . S
Zn317 O320 1.986 . S
Zn317 O322 1.996 . S
Zn317 O325 1.943 . S
O318 Zn317 1.962 . S
O318 C323 1.254 . S
O319 Zn316 2.031 . S
O319 C323 1.269 . S
O320 Zn317 1.986 . S
O320 C327 1.262 . S
O321 Zn316 2.049 . S
O321 C329 1.260 . S
O322 Zn317 1.996 . S
O322 C329 1.257 . S
C323 O318 1.254 . S
C323 O319 1.269 . S
C324 O325 1.249 . S
C324 O326 1.270 . S
O325 Zn317 1.943 . S
O325 C324 1.249 . S
O326 Zn316 2.067 . S
O326 C324 1.270 . S
C327 O320 1.262 . S
C327 O328 1.232 . S
O328 C327 1.232 . S
C329 O321 1.260 . S
C329 O322 1.257 . S
Zn330 O333 2.031 . S
Zn330 O335 2.049 . S
Zn330 O340 2.067 . S
Zn331 O332 1.962 . S
Zn331 O334 1.986 . S
Zn331 O336 1.996 . S
Zn331 O339 1.943 . S
O332 Zn331 1.962 . S
O332 C337 1.254 . S
O333 Zn330 2.031 . S
O333 C337 1.269 . S
O334 Zn331 1.986 . S
O334 C341 1.262 . S
O335 Zn330 2.049 . S
O335 C343 1.260 . S
O336 Zn331 1.996 . S
O336 C343 1.257 . S
C337 O332 1.254 . S
C337 O333 1.269 . S
C338 O339 1.249 . S
C338 O340 1.270 . S
O339 Zn331 1.943 . S
O339 C338 1.249 . S
O340 Zn330 2.067 . S
O340 C338 1.270 . S
C341 O334 1.262 . S
C341 O342 1.232 . S
O342 C341 1.232 . S
C343 O335 1.260 . S
C343 O336 1.257 . S
Zn344 O347 2.031 . S
Zn344 O349 2.049 . S
Zn344 O354 2.067 . S
Zn345 O346 1.962 . S
Zn345 O348 1.986 . S
Zn345 O350 1.996 . S
Zn345 O353 1.943 . S
O346 Zn345 1.962 . S
O346 C351 1.254 . S
O347 Zn344 2.031 . S
O347 C351 1.269 . S
O348 Zn345 1.986 . S
O348 C355 1.262 . S
O349 Zn344 2.049 . S
O349 C357 1.260 . S
O350 Zn345 1.996 . S
O350 C357 1.257 . S
C351 O346 1.254 . S
C351 O347 1.269 . S
C352 O353 1.249 . S
C352 O354 1.270 . S
O353 Zn345 1.943 . S
O353 C352 1.249 . S
O354 Zn344 2.067 . S
O354 C352 1.270 . S
C355 O348 1.262 . S
C355 O356 1.232 . S
O356 C355 1.232 . S
C357 O349 1.260 . S
C357 O350 1.257 . S
Zn358 O361 2.031 . S
Zn358 O363 2.049 . S
Zn358 O368 2.067 . S
Zn359 O360 1.962 . S
Zn359 O362 1.986 . S
Zn359 O364 1.996 . S
Zn359 O367 1.943 . S
O360 Zn359 1.962 . S
O360 C365 1.254 . S
O361 Zn358 2.031 . S
O361 C365 1.269 . S
O362 Zn359 1.986 . S
O362 C369 1.262 . S
O363 Zn358 2.049 . S
O363 C371 1.260 . S
O364 Zn359 1.996 . S
O364 C371 1.257 . S
C365 O360 1.254 . S
C365 O361 1.269 . S
C366 O367 1.249 . S
C366 O368 1.270 . S
O367 Zn359 1.943 . S
O367 C366 1.249 . S
O368 Zn358 2.067 . S
O368 C366 1.270 . S
C369 O362 1.262 . S
C369 O370 1.232 . S
O370 C369 1.232 . S
C371 O363 1.260 . S
C371 O364 1.257 . S
H372 C380 0.929 . S
H373 C382 0.930 . S
H374 C384 0.930 . S
H375 C387 0.929 . S
H376 C390 0.930 . S
H377 C392 0.960 . S
H378 C392 0.960 . S
H379 C392 0.960 . S
C380 H372 0.929 . S
C380 C381 1.377 . S
C380 C382 1.384 . S
C381 C380 1.377 . S
C381 C387 1.390 . S
C382 H373 0.930 . S
C382 C380 1.384 . S
C382 C383 1.372 . S
C383 C382 1.372 . S
C383 C384 1.400 . S
C383 C388 1.490 . S
C384 H374 0.930 . S
C384 C383 1.400 . S
C384 C387 1.386 . S
H385 C401 0.930 . S
H386 C402 0.931 . S
C387 H375 0.929 . S
C387 C381 1.390 . S
C387 C384 1.386 . S
C388 C383 1.490 . S
C388 C390 1.395 . S
C388 C391 1.403 . S
H389 C395 0.930 . S
C390 H376 0.930 . S
C390 C388 1.395 . S
C390 C393 1.403 . S
C391 C388 1.403 . S
C391 C392 1.524 . S
C391 C395 1.400 . S
C392 H377 0.960 . S
C392 H378 0.960 . S
C392 H379 0.960 . S
C392 C391 1.524 . S
C393 C390 1.403 . S
C393 C394 1.392 . S
C393 C397 1.495 . S
C394 C393 1.392 . S
C394 C395 1.385 . S
C394 C396 1.478 . S
C395 H389 0.930 . S
C395 C391 1.400 . S
C395 C394 1.385 . S
C396 C394 1.478 . S
C396 C398 1.381 . S
C396 C402 1.383 . S
C397 C393 1.495 . S
C397 H403 0.959 . S
C397 H404 0.961 . S
C397 H405 0.960 . S
C398 C396 1.381 . S
C398 C399 1.394 . S
C398 H406 0.930 . S
C399 C398 1.394 . S
C399 C400 1.383 . S
C399 H407 0.929 . S
C400 C399 1.383 . S
C400 C401 1.377 . S
C401 H385 0.930 . S
C401 C400 1.377 . S
C401 C402 1.379 . S
C402 H386 0.931 . S
C402 C396 1.383 . S
C402 C401 1.379 . S
H403 C397 0.959 . S
H404 C397 0.961 . S
H405 C397 0.960 . S
H406 C398 0.930 . S
H407 C399 0.929 . S
H408 C416 0.929 . S
H409 C418 0.930 . S
H410 C420 0.930 . S
H411 C423 0.929 . S
H412 C426 0.930 . S
H413 C428 0.960 . S
H414 C428 0.960 . S
H415 C428 0.960 . S
C416 H408 0.929 . S
C416 C417 1.377 . S
C416 C418 1.384 . S
C417 C416 1.377 . S
C417 C423 1.390 . S
C418 H409 0.930 . S
C418 C416 1.384 . S
C418 C419 1.372 . S
C419 C418 1.372 . S
C419 C420 1.400 . S
C419 C424 1.490 . S
C420 H410 0.930 . S
C420 C419 1.400 . S
C420 C423 1.386 . S
H421 C437 0.930 . S
H422 C438 0.931 . S
C423 H411 0.929 . S
C423 C417 1.390 . S
C423 C420 1.386 . S
C424 C419 1.490 . S
C424 C426 1.395 . S
C424 C427 1.403 . S
H425 C431 0.930 . S
C426 H412 0.930 . S
C426 C424 1.395 . S
C426 C429 1.403 . S
C427 C424 1.403 . S
C427 C428 1.524 . S
C427 C431 1.400 . S
C428 H413 0.960 . S
C428 H414 0.960 . S
C428 H415 0.960 . S
C428 C427 1.524 . S
C429 C426 1.403 . S
C429 C430 1.392 . S
C429 C433 1.495 . S
C430 C429 1.392 . S
C430 C431 1.385 . S
C430 C432 1.478 . S
C431 H425 0.930 . S
C431 C427 1.400 . S
C431 C430 1.385 . S
C432 C430 1.478 . S
C432 C434 1.381 . S
C432 C438 1.383 . S
C433 C429 1.495 . S
C433 H439 0.959 . S
C433 H440 0.961 . S
C433 H441 0.960 . S
C434 C432 1.381 . S
C434 C435 1.394 . S
C434 H442 0.930 . S
C435 C434 1.394 . S
C435 C436 1.383 . S
C435 H443 0.929 . S
C436 C435 1.383 . S
C436 C437 1.377 . S
C437 H421 0.930 . S
C437 C436 1.377 . S
C437 C438 1.379 . S
C438 H422 0.931 . S
C438 C432 1.383 . S
C438 C437 1.379 . S
H439 C433 0.959 . S
H440 C433 0.961 . S
H441 C433 0.960 . S
H442 C434 0.930 . S
H443 C435 0.929 . S
H444 C452 0.929 . S
H445 C454 0.930 . S
H446 C456 0.930 . S
H447 C459 0.929 . S
H448 C462 0.930 . S
H449 C464 0.960 . S
H450 C464 0.960 . S
H451 C464 0.960 . S
C452 H444 0.929 . S
C452 C453 1.377 . S
C452 C454 1.384 . S
C453 C452 1.377 . S
C453 C459 1.390 . S
C454 H445 0.930 . S
C454 C452 1.384 . S
C454 C455 1.372 . S
C455 C454 1.372 . S
C455 C456 1.400 . S
C455 C460 1.490 . S
C456 H446 0.930 . S
C456 C455 1.400 . S
C456 C459 1.386 . S
H457 C473 0.930 . S
H458 C474 0.931 . S
C459 H447 0.929 . S
C459 C453 1.390 . S
C459 C456 1.386 . S
C460 C455 1.490 . S
C460 C462 1.395 . S
C460 C463 1.403 . S
H461 C467 0.930 . S
C462 H448 0.930 . S
C462 C460 1.395 . S
C462 C465 1.403 . S
C463 C460 1.403 . S
C463 C464 1.524 . S
C463 C467 1.400 . S
C464 H449 0.960 . S
C464 H450 0.960 . S
C464 H451 0.960 . S
C464 C463 1.524 . S
C465 C462 1.403 . S
C465 C466 1.392 . S
C465 C469 1.495 . S
C466 C465 1.392 . S
C466 C467 1.385 . S
C466 C468 1.478 . S
C467 H461 0.930 . S
C467 C463 1.400 . S
C467 C466 1.385 . S
C468 C466 1.478 . S
C468 C470 1.381 . S
C468 C474 1.383 . S
C469 C465 1.495 . S
C469 H475 0.959 . S
C469 H476 0.961 . S
C469 H477 0.960 . S
C470 C468 1.381 . S
C470 C471 1.394 . S
C470 H478 0.930 . S
C471 C470 1.394 . S
C471 C472 1.383 . S
C471 H479 0.929 . S
C472 C471 1.383 . S
C472 C473 1.377 . S
C473 H457 0.930 . S
C473 C472 1.377 . S
C473 C474 1.379 . S
C474 H458 0.931 . S
C474 C468 1.383 . S
C474 C473 1.379 . S
H475 C469 0.959 . S
H476 C469 0.961 . S
H477 C469 0.960 . S
H478 C470 0.930 . S
H479 C471 0.929 . S
H480 C488 0.929 . S
H481 C490 0.930 . S
H482 C492 0.930 . S
H483 C495 0.929 . S
H484 C498 0.930 . S
H485 C500 0.960 . S
H486 C500 0.960 . S
H487 C500 0.960 . S
C488 H480 0.929 . S
C488 C489 1.377 . S
C488 C490 1.384 . S
C489 C488 1.377 . S
C489 C495 1.390 . S
C490 H481 0.930 . S
C490 C488 1.384 . S
C490 C491 1.372 . S
C491 C490 1.372 . S
C491 C492 1.400 . S
C491 C496 1.490 . S
C492 H482 0.930 . S
C492 C491 1.400 . S
C492 C495 1.386 . S
H493 C509 0.930 . S
H494 C510 0.931 . S
C495 H483 0.929 . S
C495 C489 1.390 . S
C495 C492 1.386 . S
C496 C491 1.490 . S
C496 C498 1.395 . S
C496 C499 1.403 . S
H497 C503 0.930 . S
C498 H484 0.930 . S
C498 C496 1.395 . S
C498 C501 1.403 . S
C499 C496 1.403 . S
C499 C500 1.524 . S
C499 C503 1.400 . S
C500 H485 0.960 . S
C500 H486 0.960 . S
C500 H487 0.960 . S
C500 C499 1.524 . S
C501 C498 1.403 . S
C501 C502 1.392 . S
C501 C505 1.495 . S
C502 C501 1.392 . S
C502 C503 1.385 . S
C502 C504 1.478 . S
C503 H497 0.930 . S
C503 C499 1.400 . S
C503 C502 1.385 . S
C504 C502 1.478 . S
C504 C506 1.381 . S
C504 C510 1.383 . S
C505 C501 1.495 . S
C505 H511 0.959 . S
C505 H512 0.961 . S
C505 H513 0.960 . S
C506 C504 1.381 . S
C506 C507 1.394 . S
C506 H514 0.930 . S
C507 C506 1.394 . S
C507 C508 1.383 . S
C507 H515 0.929 . S
C508 C507 1.383 . S
C508 C509 1.377 . S
C509 H493 0.930 . S
C509 C508 1.377 . S
C509 C510 1.379 . S
C510 H494 0.931 . S
C510 C504 1.383 . S
C510 C509 1.379 . S
H511 C505 0.959 . S
H512 C505 0.961 . S
H513 C505 0.960 . S
H514 C506 0.930 . S
H515 C507 0.929 . S
H516 C524 0.929 . S
H517 C526 0.930 . S
H518 C528 0.930 . S
H519 C531 0.929 . S
H520 C534 0.930 . S
H521 C536 0.960 . S
H522 C536 0.960 . S
H523 C536 0.960 . S
C524 H516 0.929 . S
C524 C525 1.377 . S
C524 C526 1.384 . S
C525 C524 1.377 . S
C525 C531 1.390 . S
C526 H517 0.930 . S
C526 C524 1.384 . S
C526 C527 1.372 . S
C527 C526 1.372 . S
C527 C528 1.400 . S
C527 C532 1.490 . S
C528 H518 0.930 . S
C528 C527 1.400 . S
C528 C531 1.386 . S
H529 C545 0.930 . S
H530 C546 0.931 . S
C531 H519 0.929 . S
C531 C525 1.390 . S
C531 C528 1.386 . S
C532 C527 1.490 . S
C532 C534 1.395 . S
C532 C535 1.403 . S
H533 C539 0.930 . S
C534 H520 0.930 . S
C534 C532 1.395 . S
C534 C537 1.403 . S
C535 C532 1.403 . S
C535 C536 1.524 . S
C535 C539 1.400 . S
C536 H521 0.960 . S
C536 H522 0.960 . S
C536 H523 0.960 . S
C536 C535 1.524 . S
C537 C534 1.403 . S
C537 C538 1.392 . S
C537 C541 1.495 . S
C538 C537 1.392 . S
C538 C539 1.385 . S
C538 C540 1.478 . S
C539 H533 0.930 . S
C539 C535 1.400 . S
C539 C538 1.385 . S
C540 C538 1.478 . S
C540 C542 1.381 . S
C540 C546 1.383 . S
C541 C537 1.495 . S
C541 H547 0.959 . S
C541 H548 0.961 . S
C541 H549 0.960 . S
C542 C540 1.381 . S
C542 C543 1.394 . S
C542 H550 0.930 . S
C543 C542 1.394 . S
C543 C544 1.383 . S
C543 H551 0.929 . S
C544 C543 1.383 . S
C544 C545 1.377 . S
C545 H529 0.930 . S
C545 C544 1.377 . S
C545 C546 1.379 . S
C546 H530 0.931 . S
C546 C540 1.383 . S
C546 C545 1.379 . S
H547 C541 0.959 . S
H548 C541 0.961 . S
H549 C541 0.960 . S
H550 C542 0.930 . S
H551 C543 0.929 . S
H552 C560 0.929 . S
H553 C562 0.930 . S
H554 C564 0.930 . S
H555 C567 0.929 . S
H556 C570 0.930 . S
H557 C572 0.960 . S
H558 C572 0.960 . S
H559 C572 0.960 . S
C560 H552 0.929 . S
C560 C561 1.377 . S
C560 C562 1.384 . S
C561 C560 1.377 . S
C561 C567 1.390 . S
C562 H553 0.930 . S
C562 C560 1.384 . S
C562 C563 1.372 . S
C563 C562 1.372 . S
C563 C564 1.400 . S
C563 C568 1.490 . S
C564 H554 0.930 . S
C564 C563 1.400 . S
C564 C567 1.386 . S
H565 C581 0.930 . S
H566 C582 0.931 . S
C567 H555 0.929 . S
C567 C561 1.390 . S
C567 C564 1.386 . S
C568 C563 1.490 . S
C568 C570 1.395 . S
C568 C571 1.403 . S
H569 C575 0.930 . S
C570 H556 0.930 . S
C570 C568 1.395 . S
C570 C573 1.403 . S
C571 C568 1.403 . S
C571 C572 1.524 . S
C571 C575 1.400 . S
C572 H557 0.960 . S
C572 H558 0.960 . S
C572 H559 0.960 . S
C572 C571 1.524 . S
C573 C570 1.403 . S
C573 C574 1.392 . S
C573 C577 1.495 . S
C574 C573 1.392 . S
C574 C575 1.385 . S
C574 C576 1.478 . S
C575 H569 0.930 . S
C575 C571 1.400 . S
C575 C574 1.385 . S
C576 C574 1.478 . S
C576 C578 1.381 . S
C576 C582 1.383 . S
C577 C573 1.495 . S
C577 H583 0.959 . S
C577 H584 0.961 . S
C577 H585 0.960 . S
C578 C576 1.381 . S
C578 C579 1.394 . S
C578 H586 0.930 . S
C579 C578 1.394 . S
C579 C580 1.383 . S
C579 H587 0.929 . S
C580 C579 1.383 . S
C580 C581 1.377 . S
C581 H565 0.930 . S
C581 C580 1.377 . S
C581 C582 1.379 . S
C582 H566 0.931 . S
C582 C576 1.383 . S
C582 C581 1.379 . S
H583 C577 0.959 . S
H584 C577 0.961 . S
H585 C577 0.960 . S
H586 C578 0.930 . S
H587 C579 0.929 . S
H588 C596 0.929 . S
H589 C598 0.930 . S
H590 C600 0.930 . S
H591 C603 0.929 . S
H592 C606 0.930 . S
H593 C608 0.960 . S
H594 C608 0.960 . S
H595 C608 0.960 . S
C596 H588 0.929 . S
C596 C597 1.377 . S
C596 C598 1.384 . S
C597 C596 1.377 . S
C597 C603 1.390 . S
C598 H589 0.930 . S
C598 C596 1.384 . S
C598 C599 1.372 . S
C599 C598 1.372 . S
C599 C600 1.400 . S
C599 C604 1.490 . S
C600 H590 0.930 . S
C600 C599 1.400 . S
C600 C603 1.386 . S
H601 C617 0.930 . S
H602 C618 0.931 . S
C603 H591 0.929 . S
C603 C597 1.390 . S
C603 C600 1.386 . S
C604 C599 1.490 . S
C604 C606 1.395 . S
C604 C607 1.403 . S
H605 C611 0.930 . S
C606 H592 0.930 . S
C606 C604 1.395 . S
C606 C609 1.403 . S
C607 C604 1.403 . S
C607 C608 1.524 . S
C607 C611 1.400 . S
C608 H593 0.960 . S
C608 H594 0.960 . S
C608 H595 0.960 . S
C608 C607 1.524 . S
C609 C606 1.403 . S
C609 C610 1.392 . S
C609 C613 1.495 . S
C610 C609 1.392 . S
C610 C611 1.385 . S
C610 C612 1.478 . S
C611 H605 0.930 . S
C611 C607 1.400 . S
C611 C610 1.385 . S
C612 C610 1.478 . S
C612 C614 1.381 . S
C612 C618 1.383 . S
C613 C609 1.495 . S
C613 H619 0.959 . S
C613 H620 0.961 . S
C613 H621 0.960 . S
C614 C612 1.381 . S
C614 C615 1.394 . S
C614 H622 0.930 . S
C615 C614 1.394 . S
C615 C616 1.383 . S
C615 H623 0.929 . S
C616 C615 1.383 . S
C616 C617 1.377 . S
C617 H601 0.930 . S
C617 C616 1.377 . S
C617 C618 1.379 . S
C618 H602 0.931 . S
C618 C612 1.383 . S
C618 C617 1.379 . S
H619 C613 0.959 . S
H620 C613 0.961 . S
H621 C613 0.960 . S
H622 C614 0.930 . S
H623 C615 0.929 . S
H624 C632 0.929 . S
H625 C634 0.930 . S
H626 C636 0.930 . S
H627 C639 0.929 . S
H628 C642 0.930 . S
H629 C644 0.960 . S
H630 C644 0.960 . S
H631 C644 0.960 . S
C632 H624 0.929 . S
C632 C633 1.377 . S
C632 C634 1.384 . S
C633 C632 1.377 . S
C633 C639 1.390 . S
C634 H625 0.930 . S
C634 C632 1.384 . S
C634 C635 1.372 . S
C635 C634 1.372 . S
C635 C636 1.400 . S
C635 C640 1.490 . S
C636 H626 0.930 . S
C636 C635 1.400 . S
C636 C639 1.386 . S
H637 C653 0.930 . S
H638 C654 0.931 . S
C639 H627 0.929 . S
C639 C633 1.390 . S
C639 C636 1.386 . S
C640 C635 1.490 . S
C640 C642 1.395 . S
C640 C643 1.403 . S
H641 C647 0.930 . S
C642 H628 0.930 . S
C642 C640 1.395 . S
C642 C645 1.403 . S
C643 C640 1.403 . S
C643 C644 1.524 . S
C643 C647 1.400 . S
C644 H629 0.960 . S
C644 H630 0.960 . S
C644 H631 0.960 . S
C644 C643 1.524 . S
C645 C642 1.403 . S
C645 C646 1.392 . S
C645 C649 1.495 . S
C646 C645 1.392 . S
C646 C647 1.385 . S
C646 C648 1.478 . S
C647 H641 0.930 . S
C647 C643 1.400 . S
C647 C646 1.385 . S
C648 C646 1.478 . S
C648 C650 1.381 . S
C648 C654 1.383 . S
C649 C645 1.495 . S
C649 H655 0.959 . S
C649 H656 0.961 . S
C649 H657 0.960 . S
C650 C648 1.381 . S
C650 C651 1.394 . S
C650 H658 0.930 . S
C651 C650 1.394 . S
C651 C652 1.383 . S
C651 H659 0.929 . S
C652 C651 1.383 . S
C652 C653 1.377 . S
C653 H637 0.930 . S
C653 C652 1.377 . S
C653 C654 1.379 . S
C654 H638 0.931 . S
C654 C648 1.383 . S
C654 C653 1.379 . S
H655 C649 0.959 . S
H656 C649 0.961 . S
H657 C649 0.960 . S
H658 C650 0.930 . S
H659 C651 0.929 . S
H660 C668 0.929 . S
H661 C670 0.930 . S
H662 C672 0.930 . S
H663 C675 0.929 . S
H664 C678 0.930 . S
H665 C680 0.960 . S
H666 C680 0.960 . S
H667 C680 0.960 . S
C668 H660 0.929 . S
C668 C669 1.377 . S
C668 C670 1.384 . S
C669 C668 1.377 . S
C669 C675 1.390 . S
C670 H661 0.930 . S
C670 C668 1.384 . S
C670 C671 1.372 . S
C671 C670 1.372 . S
C671 C672 1.400 . S
C671 C676 1.490 . S
C672 H662 0.930 . S
C672 C671 1.400 . S
C672 C675 1.386 . S
H673 C689 0.930 . S
H674 C690 0.931 . S
C675 H663 0.929 . S
C675 C669 1.390 . S
C675 C672 1.386 . S
C676 C671 1.490 . S
C676 C678 1.395 . S
C676 C679 1.403 . S
H677 C683 0.930 . S
C678 H664 0.930 . S
C678 C676 1.395 . S
C678 C681 1.403 . S
C679 C676 1.403 . S
C679 C680 1.524 . S
C679 C683 1.400 . S
C680 H665 0.960 . S
C680 H666 0.960 . S
C680 H667 0.960 . S
C680 C679 1.524 . S
C681 C678 1.403 . S
C681 C682 1.392 . S
C681 C685 1.495 . S
C682 C681 1.392 . S
C682 C683 1.385 . S
C682 C684 1.478 . S
C683 H677 0.930 . S
C683 C679 1.400 . S
C683 C682 1.385 . S
C684 C682 1.478 . S
C684 C686 1.381 . S
C684 C690 1.383 . S
C685 C681 1.495 . S
C685 H691 0.959 . S
C685 H692 0.961 . S
C685 H693 0.960 . S
C686 C684 1.381 . S
C686 C687 1.394 . S
C686 H694 0.930 . S
C687 C686 1.394 . S
C687 C688 1.383 . S
C687 H695 0.929 . S
C688 C687 1.383 . S
C688 C689 1.377 . S
C689 H673 0.930 . S
C689 C688 1.377 . S
C689 C690 1.379 . S
C690 H674 0.931 . S
C690 C684 1.383 . S
C690 C689 1.379 . S
H691 C685 0.959 . S
H692 C685 0.961 . S
H693 C685 0.960 . S
H694 C686 0.930 . S
H695 C687 0.929 . S
H696 C704 0.929 1_556 S
H697 C706 0.930 . S
H698 C708 0.930 . S
H699 C711 0.929 . S
H700 C714 0.930 . S
H701 C716 0.960 . S
H702 C716 0.960 . S
H703 C716 0.960 . S
C704 H696 0.929 1_554 S
C704 C705 1.377 . S
C704 C706 1.384 . S
C705 C704 1.377 . S
C705 C711 1.390 . S
C706 H697 0.930 . S
C706 C704 1.384 . S
C706 C707 1.372 . S
C707 C706 1.372 . S
C707 C708 1.400 . S
C707 C712 1.490 . S
C708 H698 0.930 . S
C708 C707 1.400 . S
C708 C711 1.386 . S
H709 C725 0.930 . S
H710 C726 0.931 . S
C711 H699 0.929 . S
C711 C705 1.390 . S
C711 C708 1.386 . S
C712 C707 1.490 . S
C712 C714 1.395 . S
C712 C715 1.403 . S
H713 C719 0.930 . S
C714 H700 0.930 . S
C714 C712 1.395 . S
C714 C717 1.403 . S
C715 C712 1.403 . S
C715 C716 1.524 . S
C715 C719 1.400 . S
C716 H701 0.960 . S
C716 H702 0.960 . S
C716 H703 0.960 . S
C716 C715 1.524 . S
C717 C714 1.403 . S
C717 C718 1.392 . S
C717 C721 1.495 . S
C718 C717 1.392 . S
C718 C719 1.385 . S
C718 C720 1.478 . S
C719 H713 0.930 . S
C719 C715 1.400 . S
C719 C718 1.385 . S
C720 C718 1.478 . S
C720 C722 1.381 . S
C720 C726 1.383 . S
C721 C717 1.495 . S
C721 H727 0.959 . S
C721 H728 0.961 . S
C721 H729 0.960 . S
C722 C720 1.381 . S
C722 C723 1.394 . S
C722 H730 0.930 . S
C723 C722 1.394 . S
C723 C724 1.383 . S
C723 H731 0.929 . S
C724 C723 1.383 . S
C724 C725 1.377 . S
C725 H709 0.930 . S
C725 C724 1.377 . S
C725 C726 1.379 . S
C726 H710 0.931 . S
C726 C720 1.383 . S
C726 C725 1.379 . S
H727 C721 0.959 . S
H728 C721 0.961 . S
H729 C721 0.960 . S
H730 C722 0.930 . S
H731 C723 0.929 . S
H732 C740 0.929 . S
H733 C742 0.930 . S
H734 C744 0.930 . S
H735 C747 0.929 . S
H736 C750 0.930 . S
H737 C752 0.960 . S
H738 C752 0.960 . S
H739 C752 0.960 . S
C740 H732 0.929 . S
C740 C741 1.377 . S
C740 C742 1.384 . S
C741 C740 1.377 . S
C741 C747 1.390 . S
C742 H733 0.930 . S
C742 C740 1.384 . S
C742 C743 1.372 . S
C743 C742 1.372 . S
C743 C744 1.400 . S
C743 C748 1.490 . S
C744 H734 0.930 . S
C744 C743 1.400 . S
C744 C747 1.386 . S
H745 C761 0.930 . S
H746 C762 0.931 . S
C747 H735 0.929 . S
C747 C741 1.390 . S
C747 C744 1.386 . S
C748 C743 1.490 . S
C748 C750 1.395 . S
C748 C751 1.403 . S
H749 C755 0.930 . S
C750 H736 0.930 . S
C750 C748 1.395 . S
C750 C753 1.403 . S
C751 C748 1.403 . S
C751 C752 1.524 . S
C751 C755 1.400 . S
C752 H737 0.960 . S
C752 H738 0.960 . S
C752 H739 0.960 . S
C752 C751 1.524 . S
C753 C750 1.403 . S
C753 C754 1.392 . S
C753 C757 1.495 . S
C754 C753 1.392 . S
C754 C755 1.385 . S
C754 C756 1.478 . S
C755 H749 0.930 . S
C755 C751 1.400 . S
C755 C754 1.385 . S
C756 C754 1.478 . S
C756 C758 1.381 . S
C756 C762 1.383 . S
C757 C753 1.495 . S
C757 H763 0.959 . S
C757 H764 0.961 . S
C757 H765 0.960 . S
C758 C756 1.381 . S
C758 C759 1.394 . S
C758 H766 0.930 . S
C759 C758 1.394 . S
C759 C760 1.383 . S
C759 H767 0.929 . S
C760 C759 1.383 . S
C760 C761 1.377 . S
C761 H745 0.930 . S
C761 C760 1.377 . S
C761 C762 1.379 . S
C762 H746 0.931 . S
C762 C756 1.383 . S
C762 C761 1.379 . S
H763 C757 0.959 . S
H764 C757 0.961 . S
H765 C757 0.960 . S
H766 C758 0.930 . S
H767 C759 0.929 . S
H768 C776 0.929 . S
H769 C778 0.930 . S
H770 C780 0.930 . S
H771 C783 0.929 . S
H772 C786 0.930 . S
H773 C788 0.960 . S
H774 C788 0.960 . S
H775 C788 0.960 . S
C776 H768 0.929 . S
C776 C777 1.377 . S
C776 C778 1.384 . S
C777 C776 1.377 . S
C777 C783 1.390 . S
C778 H769 0.930 . S
C778 C776 1.384 . S
C778 C779 1.372 . S
C779 C778 1.372 . S
C779 C780 1.400 . S
C779 C784 1.490 . S
C780 H770 0.930 . S
C780 C779 1.400 . S
C780 C783 1.386 . S
H781 C797 0.930 . S
H782 C798 0.931 . S
C783 H771 0.929 . S
C783 C777 1.390 . S
C783 C780 1.386 . S
C784 C779 1.490 . S
C784 C786 1.395 . S
C784 C787 1.403 . S
H785 C791 0.930 . S
C786 H772 0.930 . S
C786 C784 1.395 . S
C786 C789 1.403 . S
C787 C784 1.403 . S
C787 C788 1.524 . S
C787 C791 1.400 . S
C788 H773 0.960 . S
C788 H774 0.960 . S
C788 H775 0.960 . S
C788 C787 1.524 . S
C789 C786 1.403 . S
C789 C790 1.392 . S
C789 C793 1.495 . S
C790 C789 1.392 . S
C790 C791 1.385 . S
C790 C792 1.478 . S
C791 H785 0.930 . S
C791 C787 1.400 . S
C791 C790 1.385 . S
C792 C790 1.478 . S
C792 C794 1.381 . S
C792 C798 1.383 . S
C793 C789 1.495 . S
C793 H799 0.959 . S
C793 H800 0.961 . S
C793 H801 0.960 . S
C794 C792 1.381 . S
C794 C795 1.394 . S
C794 H802 0.930 . S
C795 C794 1.394 . S
C795 C796 1.383 . S
C795 H803 0.929 . S
C796 C795 1.383 . S
C796 C797 1.377 . S
C797 H781 0.930 . S
C797 C796 1.377 . S
C797 C798 1.379 . S
C798 H782 0.931 . S
C798 C792 1.383 . S
C798 C797 1.379 . S
H799 C793 0.959 . S
H800 C793 0.961 . S
H801 C793 0.960 . S
H802 C794 0.930 . S
H803 C795 0.929 . S
H804 C812 0.929 . S
H805 C814 0.930 . S
H806 C816 0.930 . S
H807 C819 0.929 . S
H808 C822 0.930 . S
H809 C824 0.960 . S
H810 C824 0.960 . S
H811 C824 0.960 . S
C812 H804 0.929 . S
C812 C813 1.377 . S
C812 C814 1.384 . S
C813 C812 1.377 . S
C813 C819 1.390 . S
C814 H805 0.930 . S
C814 C812 1.384 . S
C814 C815 1.372 . S
C815 C814 1.372 . S
C815 C816 1.400 . S
C815 C820 1.490 . S
C816 H806 0.930 . S
C816 C815 1.400 . S
C816 C819 1.386 . S
H817 C833 0.930 . S
H818 C834 0.931 . S
C819 H807 0.929 . S
C819 C813 1.390 . S
C819 C816 1.386 . S
C820 C815 1.490 . S
C820 C822 1.395 . S
C820 C823 1.403 . S
H821 C827 0.930 . S
C822 H808 0.930 . S
C822 C820 1.395 . S
C822 C825 1.403 . S
C823 C820 1.403 . S
C823 C824 1.524 . S
C823 C827 1.400 . S
C824 H809 0.960 . S
C824 H810 0.960 . S
C824 H811 0.960 . S
C824 C823 1.524 . S
C825 C822 1.403 . S
C825 C826 1.392 . S
C825 C829 1.495 . S
C826 C825 1.392 . S
C826 C827 1.385 . S
C826 C828 1.478 . S
C827 H821 0.930 . S
C827 C823 1.400 . S
C827 C826 1.385 . S
C828 C826 1.478 . S
C828 C830 1.381 . S
C828 C834 1.383 . S
C829 C825 1.495 . S
C829 H835 0.959 . S
C829 H836 0.961 . S
C829 H837 0.960 . S
C830 C828 1.381 . S
C830 C831 1.394 . S
C830 H838 0.930 . S
C831 C830 1.394 . S
C831 C832 1.383 . S
C831 H839 0.929 . S
C832 C831 1.383 . S
C832 C833 1.377 . S
C833 H817 0.930 . S
C833 C832 1.377 . S
C833 C834 1.379 . S
C834 H818 0.931 . S
C834 C828 1.383 . S
C834 C833 1.379 . S
H835 C829 0.959 . S
H836 C829 0.961 . S
H837 C829 0.960 . S
H838 C830 0.930 . S
H839 C831 0.929 . S
H840 C848 0.929 . S
H841 C850 0.930 . S
H842 C852 0.930 . S
H843 C855 0.929 . S
H844 C858 0.930 . S
H845 C860 0.960 . S
H846 C860 0.960 . S
H847 C860 0.960 . S
C848 H840 0.929 . S
C848 C849 1.377 . S
C848 C850 1.384 . S
C849 C848 1.377 . S
C849 C855 1.390 . S
C850 H841 0.930 . S
C850 C848 1.384 . S
C850 C851 1.372 . S
C851 C850 1.372 . S
C851 C852 1.400 . S
C851 C856 1.490 . S
C852 H842 0.930 . S
C852 C851 1.400 . S
C852 C855 1.386 . S
H853 C869 0.930 . S
H854 C870 0.931 . S
C855 H843 0.929 . S
C855 C849 1.390 . S
C855 C852 1.386 . S
C856 C851 1.490 . S
C856 C858 1.395 . S
C856 C859 1.403 . S
H857 C863 0.930 . S
C858 H844 0.930 . S
C858 C856 1.395 . S
C858 C861 1.403 . S
C859 C856 1.403 . S
C859 C860 1.524 . S
C859 C863 1.400 . S
C860 H845 0.960 . S
C860 H846 0.960 . S
C860 H847 0.960 . S
C860 C859 1.524 . S
C861 C858 1.403 . S
C861 C862 1.392 . S
C861 C865 1.495 . S
C862 C861 1.392 . S
C862 C863 1.385 . S
C862 C864 1.478 . S
C863 H857 0.930 . S
C863 C859 1.400 . S
C863 C862 1.385 . S
C864 C862 1.478 . S
C864 C866 1.381 . S
C864 C870 1.383 . S
C865 C861 1.495 . S
C865 H871 0.959 . S
C865 H872 0.961 . S
C865 H873 0.960 . S
C866 C864 1.381 . S
C866 C867 1.394 . S
C866 H874 0.930 . S
C867 C866 1.394 . S
C867 C868 1.383 . S
C867 H875 0.929 . S
C868 C867 1.383 . S
C868 C869 1.377 . S
C869 H853 0.930 . S
C869 C868 1.377 . S
C869 C870 1.379 . S
C870 H854 0.931 . S
C870 C864 1.383 . S
C870 C869 1.379 . S
H871 C865 0.959 . S
H872 C865 0.961 . S
H873 C865 0.960 . S
H874 C866 0.930 . S
H875 C867 0.929 . S
H876 C884 0.929 . S
H877 C886 0.930 . S
H878 C888 0.930 . S
H879 C891 0.929 . S
H880 C894 0.930 . S
H881 C896 0.960 . S
H882 C896 0.960 . S
H883 C896 0.960 . S
C884 H876 0.929 . S
C884 C885 1.377 . S
C884 C886 1.384 . S
C885 C884 1.377 . S
C885 C891 1.390 . S
C886 H877 0.930 . S
C886 C884 1.384 . S
C886 C887 1.372 . S
C887 C886 1.372 . S
C887 C888 1.400 . S
C887 C892 1.490 . S
C888 H878 0.930 . S
C888 C887 1.400 . S
C888 C891 1.386 . S
H889 C905 0.930 . S
H890 C906 0.931 . S
C891 H879 0.929 . S
C891 C885 1.390 . S
C891 C888 1.386 . S
C892 C887 1.490 . S
C892 C894 1.395 . S
C892 C895 1.403 . S
H893 C899 0.930 . S
C894 H880 0.930 . S
C894 C892 1.395 . S
C894 C897 1.403 . S
C895 C892 1.403 . S
C895 C896 1.524 . S
C895 C899 1.400 . S
C896 H881 0.960 . S
C896 H882 0.960 . S
C896 H883 0.960 . S
C896 C895 1.524 . S
C897 C894 1.403 . S
C897 C898 1.392 . S
C897 C901 1.495 . S
C898 C897 1.392 . S
C898 C899 1.385 . S
C898 C900 1.478 . S
C899 H893 0.930 . S
C899 C895 1.400 . S
C899 C898 1.385 . S
C900 C898 1.478 . S
C900 C902 1.381 . S
C900 C906 1.383 . S
C901 C897 1.495 . S
C901 H907 0.959 . S
C901 H908 0.961 . S
C901 H909 0.960 . S
C902 C900 1.381 . S
C902 C903 1.394 . S
C902 H910 0.930 . S
C903 C902 1.394 . S
C903 C904 1.383 . S
C903 H911 0.929 . S
C904 C903 1.383 . S
C904 C905 1.377 . S
C905 H889 0.930 . S
C905 C904 1.377 . S
C905 C906 1.379 . S
C906 H890 0.931 . S
C906 C900 1.383 . S
C906 C905 1.379 . S
H907 C901 0.959 . S
H908 C901 0.961 . S
H909 C901 0.960 . S
H910 C902 0.930 . S
H911 C903 0.929 . S
H912 C920 0.929 . S
H913 C922 0.930 . S
H914 C924 0.930 . S
H915 C927 0.929 . S
H916 C930 0.930 . S
H917 C932 0.960 . S
H918 C932 0.960 . S
H919 C932 0.960 . S
C920 H912 0.929 . S
C920 C921 1.377 . S
C920 C922 1.384 . S
C921 C920 1.377 . S
C921 C927 1.390 . S
C922 H913 0.930 . S
C922 C920 1.384 . S
C922 C923 1.372 . S
C923 C922 1.372 . S
C923 C924 1.400 . S
C923 C928 1.490 . S
C924 H914 0.930 . S
C924 C923 1.400 . S
C924 C927 1.386 . S
H925 C941 0.930 . S
H926 C942 0.931 . S
C927 H915 0.929 . S
C927 C921 1.390 . S
C927 C924 1.386 . S
C928 C923 1.490 . S
C928 C930 1.395 . S
C928 C931 1.403 . S
H929 C935 0.930 . S
C930 H916 0.930 . S
C930 C928 1.395 . S
C930 C933 1.403 . S
C931 C928 1.403 . S
C931 C932 1.524 . S
C931 C935 1.400 . S
C932 H917 0.960 . S
C932 H918 0.960 . S
C932 H919 0.960 . S
C932 C931 1.524 . S
C933 C930 1.403 . S
C933 C934 1.392 . S
C933 C937 1.495 . S
C934 C933 1.392 . S
C934 C935 1.385 . S
C934 C936 1.478 . S
C935 H929 0.930 . S
C935 C931 1.400 . S
C935 C934 1.385 . S
C936 C934 1.478 . S
C936 C938 1.386 . S
C936 C942 1.383 1_556 S
C937 C933 1.495 . S
C937 H943 0.959 . S
C937 H944 0.961 1_556 S
C937 H945 0.960 . S
C938 C936 1.386 . S
C938 C939 1.362 1_556 S
C938 H946 0.960 . S
C939 C938 1.362 1_554 S
C939 C940 1.383 . S
C939 H947 0.929 . S
C940 C939 1.383 . S
C940 C941 1.377 . S
C941 H925 0.930 . S
C941 C940 1.377 . S
C941 C942 1.379 . S
C942 H926 0.931 . S
C942 C936 1.383 1_554 S
C942 C941 1.379 . S
H943 C937 0.959 . S
H944 C937 0.961 1_554 S
H945 C937 0.960 . S
H946 C938 0.960 . S
H947 C939 0.929 . S
H948 C956 0.929 . S
H949 C958 0.930 . S
H950 C960 0.930 . S
H951 C963 0.929 . S
H952 C966 0.930 . S
H953 C968 0.960 . S
H954 C968 0.960 . S
H955 C968 0.960 . S
C956 H948 0.929 . S
C956 C957 1.377 . S
C956 C958 1.384 . S
C957 C956 1.377 . S
C957 C963 1.390 . S
C958 H949 0.930 . S
C958 C956 1.384 . S
C958 C959 1.372 . S
C959 C958 1.372 . S
C959 C960 1.400 . S
C959 C964 1.490 . S
C960 H950 0.930 . S
C960 C959 1.400 . S
C960 C963 1.386 . S
H961 C977 0.930 . S
H962 C978 0.931 . S
C963 H951 0.929 . S
C963 C957 1.390 . S
C963 C960 1.386 . S
C964 C959 1.490 . S
C964 C966 1.395 . S
C964 C967 1.403 . S
H965 C971 0.930 . S
C966 H952 0.930 . S
C966 C964 1.395 . S
C966 C969 1.403 . S
C967 C964 1.403 . S
C967 C968 1.524 . S
C967 C971 1.400 . S
C968 H953 0.960 . S
C968 H954 0.960 . S
C968 H955 0.960 . S
C968 C967 1.524 . S
C969 C966 1.403 . S
C969 C970 1.392 . S
C969 C973 1.495 . S
C970 C969 1.392 . S
C970 C971 1.385 . S
C970 C972 1.478 . S
C971 H965 0.930 . S
C971 C967 1.400 . S
C971 C970 1.385 . S
C972 C970 1.478 . S
C972 C974 1.381 . S
C972 C978 1.383 . S
C973 C969 1.495 . S
C973 H979 0.959 . S
C973 H980 0.961 . S
C973 H981 0.960 . S
C974 C972 1.381 . S
C974 C975 1.394 . S
C974 H982 0.930 . S
C975 C974 1.394 . S
C975 C976 1.383 . S
C975 H983 0.929 . S
C976 C975 1.383 . S
C976 C977 1.377 . S
C977 H961 0.930 . S
C977 C976 1.377 . S
C977 C978 1.379 . S
C978 H962 0.931 . S
C978 C972 1.383 . S
C978 C977 1.379 . S
H979 C973 0.959 . S
H980 C973 0.961 . S
H981 C973 0.960 . S
H982 C974 0.930 . S
H983 C975 0.929 . S
H984 C992 0.929 . S
H985 C994 0.930 . S
H986 C996 0.930 . S
H987 C999 0.929 . S
H988 C1002 0.930 . S
H989 C1004 0.960 . S
H990 C1004 0.960 . S
H991 C1004 0.960 . S
C992 H984 0.929 . S
C992 C993 1.377 . S
C992 C994 1.384 . S
C993 C992 1.377 . S
C993 C999 1.390 . S
C994 H985 0.930 . S
C994 C992 1.384 . S
C994 C995 1.372 . S
C995 C994 1.372 . S
C995 C996 1.400 . S
C995 C1000 1.490 . S
C996 H986 0.930 . S
C996 C995 1.400 . S
C996 C999 1.386 . S
H997 C1013 0.930 . S
H998 C1014 0.931 . S
C999 H987 0.929 . S
C999 C993 1.390 . S
C999 C996 1.386 . S
C1000 C995 1.490 . S
C1000 C1002 1.395 . S
C1000 C1003 1.403 . S
H1001 C1007 0.930 . S
C1002 H988 0.930 . S
C1002 C1000 1.395 . S
C1002 C1005 1.403 . S
C1003 C1000 1.403 . S
C1003 C1004 1.524 . S
C1003 C1007 1.400 . S
C1004 H989 0.960 . S
C1004 H990 0.960 . S
C1004 H991 0.960 . S
C1004 C1003 1.524 . S
C1005 C1002 1.403 . S
C1005 C1006 1.392 . S
C1005 C1009 1.495 . S
C1006 C1005 1.392 . S
C1006 C1007 1.385 . S
C1006 C1008 1.478 . S
C1007 H1001 0.930 . S
C1007 C1003 1.400 . S
C1007 C1006 1.385 . S
C1008 C1006 1.478 . S
C1008 C1010 1.381 . S
C1008 C1014 1.383 . S
C1009 C1005 1.495 . S
C1009 H1015 0.959 . S
C1009 H1016 0.961 . S
C1009 H1017 0.960 . S
C1010 C1008 1.381 . S
C1010 C1011 1.394 . S
C1010 H1018 0.930 . S
C1011 C1010 1.394 . S
C1011 C1012 1.383 . S
C1011 H1019 0.929 . S
C1012 C1011 1.383 . S
C1012 C1013 1.377 . S
C1013 H997 0.930 . S
C1013 C1012 1.377 . S
C1013 C1014 1.379 . S
C1014 H998 0.931 . S
C1014 C1008 1.383 . S
C1014 C1013 1.379 . S
H1015 C1009 0.959 . S
H1016 C1009 0.961 . S
H1017 C1009 0.960 . S
H1018 C1010 0.930 . S
H1019 C1011 0.929 . S
H1020 C1028 0.929 . S
H1021 C1030 0.930 . S
H1022 C1032 0.930 . S
H1023 C1035 0.929 . S
H1024 C1038 0.930 . S
H1025 C1040 0.960 . S
H1026 C1040 0.960 . S
H1027 C1040 0.960 . S
C1028 H1020 0.929 . S
C1028 C1029 1.377 . S
C1028 C1030 1.384 . S
C1029 C1028 1.377 . S
C1029 C1035 1.390 . S
C1030 H1021 0.930 . S
C1030 C1028 1.384 . S
C1030 C1031 1.372 . S
C1031 C1030 1.372 . S
C1031 C1032 1.400 . S
C1031 C1036 1.490 . S
C1032 H1022 0.930 . S
C1032 C1031 1.400 . S
C1032 C1035 1.386 . S
H1033 C1049 0.930 . S
H1034 C1050 0.931 . S
C1035 H1023 0.929 . S
C1035 C1029 1.390 . S
C1035 C1032 1.386 . S
C1036 C1031 1.490 . S
C1036 C1038 1.395 . S
C1036 C1039 1.403 . S
H1037 C1043 0.930 . S
C1038 H1024 0.930 . S
C1038 C1036 1.395 . S
C1038 C1041 1.403 . S
C1039 C1036 1.403 . S
C1039 C1040 1.524 . S
C1039 C1043 1.400 . S
C1040 H1025 0.960 . S
C1040 H1026 0.960 . S
C1040 H1027 0.960 . S
C1040 C1039 1.524 . S
C1041 C1038 1.403 . S
C1041 C1042 1.392 . S
C1041 C1045 1.495 . S
C1042 C1041 1.392 . S
C1042 C1043 1.385 . S
C1042 C1044 1.478 . S
C1043 H1037 0.930 . S
C1043 C1039 1.400 . S
C1043 C1042 1.385 . S
C1044 C1042 1.478 . S
C1044 C1046 1.381 . S
C1044 C1050 1.383 . S
C1045 C1041 1.495 . S
C1045 H1051 0.959 . S
C1045 H1052 0.961 . S
C1045 H1053 0.960 . S
C1046 C1044 1.381 . S
C1046 C1047 1.394 . S
C1046 H1054 0.930 . S
C1047 C1046 1.394 . S
C1047 C1048 1.383 . S
C1047 H1055 0.929 . S
C1048 C1047 1.383 . S
C1048 C1049 1.377 . S
C1049 H1033 0.930 . S
C1049 C1048 1.377 . S
C1049 C1050 1.379 . S
C1050 H1034 0.931 . S
C1050 C1044 1.383 . S
C1050 C1049 1.379 . S
H1051 C1045 0.959 . S
H1052 C1045 0.961 . S
H1053 C1045 0.960 . S
H1054 C1046 0.930 . S
H1055 C1047 0.929 . S
H1056 C1064 0.929 . S
H1057 C1066 0.930 . S
H1058 C1068 0.930 . S
H1059 C1071 0.929 . S
H1060 C1074 0.930 . S
H1061 C1076 0.960 . S
H1062 C1076 0.960 . S
H1063 C1076 0.960 . S
C1064 H1056 0.929 . S
C1064 C1065 1.377 . S
C1064 C1066 1.384 . S
C1065 C1064 1.377 . S
C1065 C1071 1.390 . S
C1066 H1057 0.930 . S
C1066 C1064 1.384 . S
C1066 C1067 1.372 . S
C1067 C1066 1.372 . S
C1067 C1068 1.400 . S
C1067 C1072 1.490 . S
C1068 H1058 0.930 . S
C1068 C1067 1.400 . S
C1068 C1071 1.386 . S
H1069 C1085 0.930 . S
H1070 C1086 0.931 . S
C1071 H1059 0.929 . S
C1071 C1065 1.390 . S
C1071 C1068 1.386 . S
C1072 C1067 1.490 . S
C1072 C1074 1.395 . S
C1072 C1075 1.403 . S
H1073 C1079 0.930 . S
C1074 H1060 0.930 . S
C1074 C1072 1.395 . S
C1074 C1077 1.403 . S
C1075 C1072 1.403 . S
C1075 C1076 1.524 . S
C1075 C1079 1.400 . S
C1076 H1061 0.960 . S
C1076 H1062 0.960 . S
C1076 H1063 0.960 . S
C1076 C1075 1.524 . S
C1077 C1074 1.403 . S
C1077 C1078 1.392 . S
C1077 C1081 1.495 . S
C1078 C1077 1.392 . S
C1078 C1079 1.385 . S
C1078 C1080 1.478 . S
C1079 H1073 0.930 . S
C1079 C1075 1.400 . S
C1079 C1078 1.385 . S
C1080 C1078 1.478 . S
C1080 C1082 1.381 . S
C1080 C1086 1.383 . S
C1081 C1077 1.495 . S
C1081 H1087 0.959 . S
C1081 H1088 0.961 . S
C1081 H1089 0.960 . S
C1082 C1080 1.381 . S
C1082 C1083 1.394 . S
C1082 H1090 0.930 . S
C1083 C1082 1.394 . S
C1083 C1084 1.383 . S
C1083 H1091 0.929 . S
C1084 C1083 1.383 . S
C1084 C1085 1.377 . S
C1085 H1069 0.930 . S
C1085 C1084 1.377 . S
C1085 C1086 1.379 . S
C1086 H1070 0.931 . S
C1086 C1080 1.383 . S
C1086 C1085 1.379 . S
H1087 C1081 0.959 . S
H1088 C1081 0.961 . S
H1089 C1081 0.960 . S
H1090 C1082 0.930 . S
H1091 C1083 0.929 . S
H1092 C1100 0.929 . S
H1093 C1102 0.930 . S
H1094 C1104 0.930 . S
H1095 C1107 0.929 . S
H1096 C1110 0.930 . S
H1097 C1112 0.960 . S
H1098 C1112 0.960 . S
H1099 C1112 0.960 . S
C1100 H1092 0.929 . S
C1100 C1101 1.377 . S
C1100 C1102 1.384 . S
C1101 C1100 1.377 . S
C1101 C1107 1.390 . S
C1102 H1093 0.930 . S
C1102 C1100 1.384 . S
C1102 C1103 1.372 . S
C1103 C1102 1.372 . S
C1103 C1104 1.400 . S
C1103 C1108 1.490 . S
C1104 H1094 0.930 . S
C1104 C1103 1.400 . S
C1104 C1107 1.386 . S
H1105 C1121 0.930 . S
H1106 C1122 0.931 . S
C1107 H1095 0.929 . S
C1107 C1101 1.390 . S
C1107 C1104 1.386 . S
C1108 C1103 1.490 . S
C1108 C1110 1.395 . S
C1108 C1111 1.403 . S
H1109 C1115 0.930 . S
C1110 H1096 0.930 . S
C1110 C1108 1.395 . S
C1110 C1113 1.403 . S
C1111 C1108 1.403 . S
C1111 C1112 1.524 . S
C1111 C1115 1.400 . S
C1112 H1097 0.960 . S
C1112 H1098 0.960 . S
C1112 H1099 0.960 . S
C1112 C1111 1.524 . S
C1113 C1110 1.403 . S
C1113 C1114 1.392 . S
C1113 C1117 1.495 . S
C1114 C1113 1.392 . S
C1114 C1115 1.385 . S
C1114 C1116 1.478 . S
C1115 H1109 0.930 . S
C1115 C1111 1.400 . S
C1115 C1114 1.385 . S
C1116 C1114 1.478 . S
C1116 C1118 1.381 . S
C1116 C1122 1.383 . S
C1117 C1113 1.495 . S
C1117 H1123 0.959 . S
C1117 H1124 0.961 . S
C1117 H1125 0.960 . S
C1118 C1116 1.381 . S
C1118 C1119 1.394 . S
C1118 H1126 0.930 . S
C1119 C1118 1.394 . S
C1119 C1120 1.383 . S
C1119 H1127 0.929 . S
C1120 C1119 1.383 . S
C1120 C1121 1.377 . S
C1121 H1105 0.930 . S
C1121 C1120 1.377 . S
C1121 C1122 1.379 . S
C1122 H1106 0.931 . S
C1122 C1116 1.383 . S
C1122 C1121 1.379 . S
H1123 C1117 0.959 . S
H1124 C1117 0.961 . S
H1125 C1117 0.960 . S
H1126 C1118 0.930 . S
H1127 C1119 0.929 . S
H1128 C1136 0.929 . S
H1129 C1138 0.930 . S
H1130 C1140 0.930 . S
H1131 C1143 0.929 . S
H1132 C1146 0.930 . S
H1133 C1148 0.960 . S
H1134 C1148 0.960 . S
H1135 C1148 0.960 . S
C1136 H1128 0.929 . S
C1136 C1137 1.377 . S
C1136 C1138 1.384 . S
C1137 C1136 1.377 . S
C1137 C1143 1.390 . S
C1138 H1129 0.930 . S
C1138 C1136 1.384 . S
C1138 C1139 1.372 . S
C1139 C1138 1.372 . S
C1139 C1140 1.400 . S
C1139 C1144 1.490 . S
C1140 H1130 0.930 . S
C1140 C1139 1.400 . S
C1140 C1143 1.386 . S
H1141 C1157 0.930 . S
H1142 C1158 0.931 . S
C1143 H1131 0.929 . S
C1143 C1137 1.390 . S
C1143 C1140 1.386 . S
C1144 C1139 1.490 . S
C1144 C1146 1.395 . S
C1144 C1147 1.403 . S
H1145 C1151 0.930 . S
C1146 H1132 0.930 . S
C1146 C1144 1.395 . S
C1146 C1149 1.403 . S
C1147 C1144 1.403 . S
C1147 C1148 1.524 . S
C1147 C1151 1.400 . S
C1148 H1133 0.960 . S
C1148 H1134 0.960 . S
C1148 H1135 0.960 . S
C1148 C1147 1.524 . S
C1149 C1146 1.403 . S
C1149 C1150 1.392 . S
C1149 C1153 1.495 . S
C1150 C1149 1.392 . S
C1150 C1151 1.385 . S
C1150 C1152 1.478 . S
C1151 H1145 0.930 . S
C1151 C1147 1.400 . S
C1151 C1150 1.385 . S
C1152 C1150 1.478 . S
C1152 C1154 1.381 . S
C1152 C1158 1.383 . S
C1153 C1149 1.495 . S
C1153 H1159 0.959 . S
C1153 H1160 0.961 . S
C1153 H1161 0.960 . S
C1154 C1152 1.381 . S
C1154 C1155 1.394 . S
C1154 H1162 0.930 . S
C1155 C1154 1.394 . S
C1155 C1156 1.383 . S
C1155 H1163 0.929 . S
C1156 C1155 1.383 . S
C1156 C1157 1.377 . S
C1157 H1141 0.930 . S
C1157 C1156 1.377 . S
C1157 C1158 1.379 . S
C1158 H1142 0.931 . S
C1158 C1152 1.383 . S
C1158 C1157 1.379 . S
H1159 C1153 0.959 . S
H1160 C1153 0.961 . S
H1161 C1153 0.960 . S
H1162 C1154 0.930 . S
H1163 C1155 0.929 . S
H1164 C1172 0.929 . S
H1165 C1174 0.930 . S
H1166 C1176 0.930 . S
H1167 C1179 0.929 . S
H1168 C1182 0.930 . S
H1169 C1184 0.960 1_556 S
H1170 C1184 0.960 . S
H1171 C1184 0.960 . S
C1172 H1164 0.929 . S
C1172 C1173 1.377 . S
C1172 C1174 1.384 . S
C1173 C1172 1.377 . S
C1173 C1179 1.390 . S
C1174 H1165 0.930 . S
C1174 C1172 1.384 . S
C1174 C1175 1.372 . S
C1175 C1174 1.372 . S
C1175 C1176 1.400 . S
C1175 C1180 1.490 . S
C1176 H1166 0.930 . S
C1176 C1175 1.400 . S
C1176 C1179 1.386 . S
H1177 C1193 0.930 . S
H1178 C1194 0.931 . S
C1179 H1167 0.929 . S
C1179 C1173 1.390 . S
C1179 C1176 1.386 . S
C1180 C1175 1.490 . S
C1180 C1182 1.395 . S
C1180 C1183 1.403 . S
H1181 C1187 0.930 1_556 S
C1182 H1168 0.930 . S
C1182 C1180 1.395 . S
C1182 C1185 1.403 . S
C1183 C1180 1.403 . S
C1183 C1184 1.524 . S
C1183 C1187 1.400 . S
C1184 H1169 0.960 1_554 S
C1184 H1170 0.960 . S
C1184 H1171 0.960 . S
C1184 C1183 1.524 . S
C1185 C1182 1.403 . S
C1185 C1186 1.392 . S
C1185 C1189 1.495 . S
C1186 C1185 1.392 . S
C1186 C1187 1.385 . S
C1186 C1188 1.478 1_554 S
C1187 H1181 0.930 1_554 S
C1187 C1183 1.400 . S
C1187 C1186 1.385 . S
C1188 C1186 1.478 1_556 S
C1188 C1190 1.381 . S
C1188 C1194 1.383 . S
C1189 C1185 1.495 . S
C1189 H1195 0.959 . S
C1189 H1196 0.961 . S
C1189 H1197 0.960 . S
C1190 C1188 1.381 . S
C1190 C1191 1.394 . S
C1190 H1198 0.930 . S
C1191 C1190 1.394 . S
C1191 C1192 1.383 . S
C1191 H1199 0.929 . S
C1192 C1191 1.383 . S
C1192 C1193 1.377 . S
C1193 H1177 0.930 . S
C1193 C1192 1.377 . S
C1193 C1194 1.379 . S
C1194 H1178 0.931 . S
C1194 C1188 1.383 . S
C1194 C1193 1.379 . S
H1195 C1189 0.959 . S
H1196 C1189 0.961 . S
H1197 C1189 0.960 . S
H1198 C1190 0.930 . S
H1199 C1191 0.929 . S
H1200 C1208 0.929 . S
H1201 C1210 0.930 . S
H1202 C1212 0.930 . S
H1203 C1215 0.929 . S
H1204 C1218 0.930 . S
H1205 C1220 0.960 . S
H1206 C1220 0.960 . S
H1207 C1220 0.960 . S
C1208 H1200 0.929 . S
C1208 C1209 1.377 . S
C1208 C1210 1.384 . S
C1209 C1208 1.377 . S
C1209 C1215 1.390 . S
C1210 H1201 0.930 . S
C1210 C1208 1.384 . S
C1210 C1211 1.372 . S
C1211 C1210 1.372 . S
C1211 C1212 1.400 . S
C1211 C1216 1.490 . S
C1212 H1202 0.930 . S
C1212 C1211 1.400 . S
C1212 C1215 1.386 . S
H1213 C1229 0.930 . S
H1214 C1230 0.931 . S
C1215 H1203 0.929 . S
C1215 C1209 1.390 . S
C1215 C1212 1.386 . S
C1216 C1211 1.490 . S
C1216 C1218 1.395 . S
C1216 C1219 1.403 . S
H1217 C1223 0.930 . S
C1218 H1204 0.930 . S
C1218 C1216 1.395 . S
C1218 C1221 1.403 . S
C1219 C1216 1.403 . S
C1219 C1220 1.524 . S
C1219 C1223 1.400 . S
C1220 H1205 0.960 . S
C1220 H1206 0.960 . S
C1220 H1207 0.960 . S
C1220 C1219 1.524 . S
C1221 C1218 1.403 . S
C1221 C1222 1.392 . S
C1221 C1225 1.495 . S
C1222 C1221 1.392 . S
C1222 C1223 1.385 . S
C1222 C1224 1.478 . S
C1223 H1217 0.930 . S
C1223 C1219 1.400 . S
C1223 C1222 1.385 . S
C1224 C1222 1.478 . S
C1224 C1226 1.381 . S
C1224 C1230 1.383 . S
C1225 C1221 1.495 . S
C1225 H1231 0.959 . S
C1225 H1232 0.961 . S
C1225 H1233 0.960 . S
C1226 C1224 1.381 . S
C1226 C1227 1.394 . S
C1226 H1234 0.930 . S
C1227 C1226 1.394 . S
C1227 C1228 1.383 . S
C1227 H1235 0.929 . S
C1228 C1227 1.383 . S
C1228 C1229 1.377 . S
C1229 H1213 0.930 . S
C1229 C1228 1.377 . S
C1229 C1230 1.379 . S
C1230 H1214 0.931 . S
C1230 C1224 1.383 . S
C1230 C1229 1.379 . S
H1231 C1225 0.959 . S
H1232 C1225 0.961 . S
H1233 C1225 0.960 . S
H1234 C1226 0.930 . S
H1235 C1227 0.929 . S
C400 C365 1.555 . S
C381 C45 1.558 . S
C417 C84 1.445 . S
C436 C299 1.441 . S
C453 C126 1.340 . S
C472 C313 1.333 . S
C489 C189 1.453 . S
C508 C327 1.439 . S
C544 C341 1.495 . S
C525 C228 1.496 . S
C561 C270 1.476 . S
C580 C351 1.506 . S
C597 C69 1.551 . S
C616 C309 1.563 . S
C633 C141 1.649 . S
C652 C323 1.649 . S
C669 C174 1.537 . S
C688 C337 1.567 . S
C724 C355 1.438 . S
C705 C213 1.453 . S
C760 C369 1.491 . S
C741 C285 1.511 . S
C796 C295 1.530 . S
C777 C30 1.510 . S
C813 C36 1.499 . S
C832 C310 1.464 . S
C849 C93 1.587 . S
C868 C324 1.500 . S
C904 C338 1.506 . S
C885 C117 1.590 . S
C921 C180 1.468 . S
C940 C357 1.413 . S
C976 C371 1.332 . S
C957 C237 1.438 . S
C1012 C296 1.380 . S
C993 C261 1.464 . S
C1048 C366 1.432 . S
C1029 C78 1.455 . S
C1065 C132 1.347 . S
C1084 C301 1.252 . S
C1120 C315 1.324 . S
C1101 C165 1.345 . S
C1137 C222 1.440 . S
C1156 C329 1.397 . S
C1173 C276 1.470 . S
C1192 C343 1.423 . S
C1209 C21 1.500 . S
C1228 C352 1.430 . S
