# Generated by pormake.
# Topology anh, (6,3)-cn, num edge types: 1
# Building blocks:
#     Node 0, Type 0, BuildingBlock: BETDAH_clean_sbu_0, # of connection points: 6
#     Node 1, Type 0, BuildingBlock: BETDAH_clean_sbu_0, # of connection points: 6
#     Node 2, Type 0, BuildingBlock: BETDAH_clean_sbu_0, # of connection points: 6
#     Node 3, Type 1, BuildingBlock: BETDIP_clean_linker_0, # of connection points: 3
#     Node 4, Type 1, BuildingBlock: BETDIP_clean_linker_0, # of connection points: 3
#     Node 5, Type 1, BuildingBlock: BETDIP_clean_linker_0, # of connection points: 3
#     Node 6, Type 1, BuildingBlock: BETDIP_clean_linker_0, # of connection points: 3
#     Node 7, Type 1, BuildingBlock: BETDIP_clean_linker_0, # of connection points: 3
#     Node 8, Type 1, BuildingBlock: BETDIP_clean_linker_0, # of connection points: 3
#     Edge 9, Type (0, 1), BuildingBlock: MIFKUJ_clean_linker_0, # of connection points: 2
#     Edge 10, Type (0, 1), BuildingBlock: MIFKUJ_clean_linker_0, # of connection points: 2
#     Edge 11, Type (0, 1), BuildingBlock: MIFKUJ_clean_linker_0, # of connection points: 2
#     Edge 12, Type (0, 1), BuildingBlock: MIFKUJ_clean_linker_0, # of connection points: 2
#     Edge 13, Type (0, 1), BuildingBlock: MIFKUJ_clean_linker_0, # of connection points: 2
#     Edge 14, Type (0, 1), BuildingBlock: MIFKUJ_clean_linker_0, # of connection points: 2
#     Edge 15, Type (0, 1), BuildingBlock: MIFKUJ_clean_linker_0, # of connection points: 2
#     Edge 16, Type (0, 1), BuildingBlock: MIFKUJ_clean_linker_0, # of connection points: 2
#     Edge 17, Type (0, 1), BuildingBlock: MIFKUJ_clean_linker_0, # of connection points: 2
#     Edge 18, Type (0, 1), BuildingBlock: MIFKUJ_clean_linker_0, # of connection points: 2
#     Edge 19, Type (0, 1), BuildingBlock: MIFKUJ_clean_linker_0, # of connection points: 2
#     Edge 20, Type (0, 1), BuildingBlock: MIFKUJ_clean_linker_0, # of connection points: 2
#     Edge 21, Type (0, 1), BuildingBlock: MIFKUJ_clean_linker_0, # of connection points: 2
#     Edge 22, Type (0, 1), BuildingBlock: MIFKUJ_clean_linker_0, # of connection points: 2
#     Edge 23, Type (0, 1), BuildingBlock: MIFKUJ_clean_linker_0, # of connection points: 2
#     Edge 24, Type (0, 1), BuildingBlock: MIFKUJ_clean_linker_0, # of connection points: 2
#     Edge 25, Type (0, 1), BuildingBlock: MIFKUJ_clean_linker_0, # of connection points: 2
#     Edge 26, Type (0, 1), BuildingBlock: MIFKUJ_clean_linker_0, # of connection points: 2
# Relax obj value: 0.126
# Max RMSD: 0.169
# Mean RMSD: 0.121
data_MOF--net-anh--node1-BETDAH_clean_sbu_0--node2-BETDIP_clean_linker_0--edge1-MIFKUJ_clean_linker_0
_symmetry_space_group_name_H-M    P1
_symmetry_Int_Tables_number       1
_symmetry_cell_setting            triclinic
loop_
_symmetry_equiv_pos_as_xyz
'x, y, z'
_cell_length_a     40.023501
_cell_length_b     46.747311
_cell_length_c     64.294327
_cell_angle_alpha  95.267914
_cell_angle_beta   89.446132
_cell_angle_gamma 127.76038
loop_
_atom_site_label
_atom_site_type_symbol
_atom_site_fract_x
_atom_site_fract_y
_atom_site_fract_z
_atom_type_partial_charge
Ho0 Ho 0.11913 0.55003 0.14838 0.0
Ho1 Ho 0.07638 0.58129 0.16841 0.0
C2 C 0.17366 0.63823 0.16064 0.0
C3 C 0.16153 0.53596 0.12533 0.0
C4 C 0.20359 0.5448 0.12681 0.0
C5 C 0.22719 0.55376 0.10901 0.0
C6 C 0.26519 0.55853 0.10948 0.0
C7 C 0.27995 0.55401 0.12772 0.0
C8 C 0.25741 0.54715 0.1459 0.0
C9 C 0.21963 0.54274 0.14547 0.0
C10 C 0.11783 0.55239 0.19034 0.0
C11 C 1.02094 0.49371 0.15507 0.0
C12 C 1.03318 0.59407 0.19182 0.0
C13 C 0.98749 0.57296 0.19462 0.0
C14 C 0.96266 0.53587 0.19752 0.0
C15 C 0.91858 0.51451 0.19628 0.0
C16 C 0.89858 0.52986 0.19204 0.0
C17 C 0.92353 0.56749 0.19059 0.0
C18 C 0.96765 0.58886 0.19188 0.0
C19 C 0.07829 0.57819 0.12624 0.0
O20 O 0.16993 0.61127 0.14909 0.0
O21 O 0.14299 0.63233 0.17226 0.0
O22 O 0.13456 0.51432 0.13852 0.0
O23 O 0.16065 0.56297 0.12295 0.0
O24 O 0.11696 0.52802 0.17848 0.0
O25 O 0.12385 0.5762 0.17963 0.0
O26 O 1.02564 0.52021 0.16766 0.0
O27 O 1.05119 0.50032 0.14279 0.0
O28 O 1.04495 0.60571 0.17342 0.0
O29 O 1.05161 0.58094 0.19849 0.0
O30 O 0.08045 0.60359 0.13779 0.0
O31 O 0.07175 0.55476 0.13738 0.0
H32 H 0.21556 0.55594 0.09456 0.0
H33 H 0.28227 0.56451 0.09533 0.0
H34 H 0.26765 0.54319 0.16015 0.0
H35 H 0.2022 0.53635 0.15952 0.0
H36 H 0.97718 0.52296 0.19982 0.0
H37 H 0.90024 0.48557 0.19736 0.0
H38 H 0.90892 0.58014 0.18765 0.0
H39 H 0.98624 0.61745 0.18971 0.0
Ho40 Ho 0.63388 0.05474 0.48367 0.0
Ho41 Ho 0.57654 0.07624 0.47756 0.0
C42 C 0.53132 0.9924 0.47661 0.0
C43 C 0.66826 0.02589 0.4949 0.0
C44 C 0.6547 0.98944 0.498 0.0
C45 C 0.61568 0.95771 0.4894 0.0
C46 C 0.60443 0.92336 0.49184 0.0
C47 C 0.63203 0.92024 0.50296 0.0
C48 C 0.67087 0.95223 0.51167 0.0
C49 C 0.68201 0.98643 0.50923 0.0
C50 C 0.625 0.06585 0.4444 0.0
C51 C 0.67966 0.13944 0.48647 0.0
C52 C 0.54359 0.10556 0.46515 0.0
C53 C 0.55436 0.14209 0.4681 0.0
C54 C 0.59648 0.17387 0.46849 0.0
C55 C 0.60601 0.20817 0.4725 0.0
C56 C 0.57361 0.21136 0.47614 0.0
C57 C 0.53146 0.17942 0.47537 0.0
C58 C 0.52199 0.14518 0.4714 0.0
C59 C 0.58496 0.0653 0.51685 0.0
O60 O 0.56739 1.00231 0.48525 0.0
O61 O 0.52868 0.01622 0.46882 0.0
O62 O 0.66561 0.03137 0.47562 0.0
O63 O 0.65559 0.03985 0.50822 0.0
O64 O 0.66015 0.07497 0.45265 0.0
O65 O 0.59597 0.04972 0.4569 0.0
O66 O 0.64247 0.13044 0.48037 0.0
O67 O 0.68427 0.11484 0.49072 0.0
O68 O 0.53247 0.08831 0.48184 0.0
O69 O 0.56863 0.10206 0.45394 0.0
O70 O 0.55026 0.05733 0.50875 0.0
O71 O 0.61403 0.08105 0.50434 0.0
H72 H 0.59417 0.95949 0.48062 0.0
H73 H 0.57415 0.8993 0.48509 0.0
H74 H 0.69323 0.95093 0.51999 0.0
H75 H 0.71234 0.01061 0.51587 0.0
H76 H 0.62207 0.17226 0.4659 0.0
H77 H 0.63875 0.23218 0.47279 0.0
H78 H 0.50578 0.18078 0.47842 0.0
H79 H 0.48934 0.12102 0.47127 0.0
Ho80 Ho 0.62692 0.55893 0.85079 0.0
Ho81 Ho 0.56594 0.47702 0.84968 0.0
C82 C 0.5238 0.51746 0.85213 0.0
C83 C 0.66664 0.62606 0.84414 0.0
C84 C 0.65617 0.65016 0.83937 0.0
C85 C 0.63201 0.64305 0.82112 0.0
C86 C 0.62398 0.66713 0.81665 0.0
C87 C 0.63967 0.69856 0.83038 0.0
C88 C 0.66322 0.7053 0.84875 0.0
C89 C 0.67155 0.68143 0.85314 0.0
C90 C 0.6164 0.53269 0.88778 0.0
C91 C 0.66962 0.51881 0.84777 0.0
C92 C 0.52784 0.41044 0.85718 0.0
C93 C 0.5371 0.38439 0.85488 0.0
C94 C 0.5789 0.39624 0.85479 0.0
C95 C 0.58697 0.37102 0.85169 0.0
C96 C 0.55331 0.33347 0.84875 0.0
C97 C 0.51151 0.3218 0.84934 0.0
C98 C 0.50353 0.34705 0.85229 0.0
C99 C 0.57662 0.50229 0.81233 0.0
O100 O 0.56182 0.54662 0.84767 0.0
O101 O 0.5184 0.48759 0.85624 0.0
O102 O 0.65851 0.61516 0.86283 0.0
O103 O 0.65723 0.60033 0.82952 0.0
O104 O 0.65262 0.56035 0.88219 0.0
O105 O 0.58762 0.5215 0.87397 0.0
O106 O 0.6307 0.48835 0.84957 0.0
O107 O 0.67626 0.55007 0.84647 0.0
O108 O 0.52168 0.4193 0.83972 0.0
O109 O 0.55129 0.43846 0.8713 0.0
O110 O 0.54082 0.47401 0.81784 0.0
O111 O 0.60541 0.51425 0.82633 0.0
H112 H 0.61954 0.61908 0.81022 0.0
H113 H 0.60534 0.66111 0.80249 0.0
H114 H 0.67604 0.7295 0.85951 0.0
H115 H 0.69041 0.68759 0.86724 0.0
H116 H 0.60529 0.42491 0.85701 0.0
H117 H 0.61951 0.38098 0.85123 0.0
H118 H 0.48488 0.29309 0.84753 0.0
H119 H 0.47107 0.3374 0.85246 0.0
H120 H 0.56244 0.03519 0.16184 0.0
H121 H 0.62635 0.10742 0.21848 0.0
H122 H 0.5207 0.99531 0.22186 0.0
H123 H 0.6169 0.14186 0.19381 0.0
C124 C 0.63646 0.13957 0.18302 0.0
C125 C 0.56589 0.03973 0.17878 0.0
C126 C 0.53718 0.01114 0.19073 0.0
C127 C 0.59754 0.0748 0.18876 0.0
C128 C 0.60168 0.08057 0.21076 0.0
C129 C 0.57412 0.05206 0.22282 0.0
C130 C 0.54194 0.01759 0.21265 0.0
N131 N 0.6248 0.10437 0.17676 0.0
H132 H 0.61238 0.55168 0.53393 0.0
H133 H 0.60905 0.59456 0.59546 0.0
H134 H 0.62455 0.51117 0.58856 0.0
H135 H 0.5887 0.58163 0.52289 0.0
C136 C 0.59815 0.6035 0.53497 0.0
C137 C 0.61327 0.55194 0.55076 0.0
C138 C 0.61906 0.52868 0.55966 0.0
C139 C 0.60998 0.57602 0.56378 0.0
C140 C 0.61169 0.57608 0.58551 0.0
C141 C 0.61714 0.55296 0.59453 0.0
C142 C 0.62122 0.52962 0.58157 0.0
N143 N 0.60652 0.60169 0.55604 0.0
H144 H 0.06361 0.51571 0.84006 0.0
H145 H 0.12576 0.52872 0.89864 0.0
H146 H 1.02238 0.53401 0.89846 0.0
H147 H 0.18607 0.5675 0.87479 0.0
C148 C 0.17381 0.54238 0.86497 0.0
C149 C 0.06653 0.5201 0.85698 0.0
C150 C 1.03838 0.52445 0.86805 0.0
C151 C 0.09967 0.52304 0.86804 0.0
C152 C 0.10225 0.52825 0.89006 0.0
C153 C 0.07405 0.53145 0.90113 0.0
C154 C 1.04319 0.53026 0.88995 0.0
N155 N 0.12985 0.52015 0.85753 0.0
H156 H 0.13227 0.59916 0.47492 0.0
H157 H 0.05989 0.52675 0.41955 0.0
H158 H 0.16882 0.63705 0.41415 0.0
H159 H 1.00723 0.52403 0.44993 0.0
C160 C 1.01896 0.51181 0.45773 0.0
C161 C 0.12736 0.59423 0.45803 0.0
C162 C 0.15464 0.62255 0.44561 0.0
C163 C 0.09229 0.55998 0.44862 0.0
C164 C 0.08596 0.55357 0.4267 0.0
C165 C 0.11403 0.58098 0.41408 0.0
C166 C 0.14765 0.61544 0.42374 0.0
N167 N 0.06349 0.5318 0.46111 0.0
H168 H 0.60486 0.04253 0.79679 0.0
H169 H 0.60672 0.99771 0.7357 0.0
H170 H 0.60731 0.09038 0.74227 0.0
H171 H 0.56554 0.94514 0.75263 0.0
C172 C 0.5856 0.95472 0.76686 0.0
C173 C 0.60602 0.04333 0.77999 0.0
C174 C 0.60529 0.06915 0.77092 0.0
C175 C 0.60573 0.01708 0.76736 0.0
C176 C 0.60658 0.01773 0.7455 0.0
C177 C 0.60696 0.04399 0.73621 0.0
C178 C 0.60647 0.06963 0.74913 0.0
N179 N 0.60438 0.9902 0.77695 0.0
H180 H 0.43869 0.35119 0.12203 0.0
H181 H 0.49953 0.32563 0.07723 0.0
H182 H 0.52317 0.42856 0.07973 0.0
H183 H 0.4497 0.25592 0.10761 0.0
C184 C 0.46607 0.28478 0.11185 0.0
C185 C 0.46029 0.35926 0.10958 0.0
C186 C 0.48087 0.3936 0.10233 0.0
C187 C 0.46765 0.33509 0.10092 0.0
C188 C 0.49519 0.34487 0.08458 0.0
C189 C 0.51558 0.37881 0.0771 0.0
C190 C 0.5087 0.40307 0.08621 0.0
N191 N 0.44553 0.30015 0.10797 0.0
H192 H 0.29538 0.5212 0.0963 0.0
H193 H 0.34643 0.50934 0.09677 0.0
H194 H 0.39512 0.56825 0.15833 0.0
H195 H 0.34378 0.58068 0.15791 0.0
H196 H 0.42964 0.54771 0.10009 0.0
H197 H 0.41782 0.51969 0.18534 0.0
H198 H 0.37131 0.50588 0.21458 0.0
H199 H 0.26377 0.45321 0.17095 0.0
H200 H 0.30957 0.46632 0.14151 0.0
H201 H 0.53457 0.4685 0.10832 0.0
H202 H 0.51591 0.50889 0.11708 0.0
H203 H 0.38599 0.41572 0.12214 0.0
H204 H 0.40405 0.37518 0.11312 0.0
H205 H 0.40904 0.46777 0.15274 0.0
H206 H 0.41601 0.45918 0.07705 0.0
H207 H 0.44594 0.46602 0.04247 0.0
H208 H 0.5451 0.57927 0.06139 0.0
H209 H 0.51546 0.57311 0.09604 0.0
C210 C 0.3177 0.53268 0.10971 0.0
C211 C 0.31542 0.55186 0.12708 0.0
C212 C 0.34686 0.52574 0.10999 0.0
C213 C 0.37434 0.53766 0.12765 0.0
C214 C 0.37384 0.55849 0.14464 0.0
C215 C 0.34447 0.56546 0.14439 0.0
C216 C 0.40034 0.52507 0.12851 0.0
C217 C 0.42601 0.53091 0.11187 0.0
C218 C 0.3951 0.50283 0.14375 0.0
C219 C 0.36719 0.49445 0.16128 0.0
C220 C 0.38423 0.50513 0.18203 0.0
C221 C 0.358 0.49741 0.19862 0.0
C222 C 0.31464 0.47882 0.19462 0.0
C223 C 0.29738 0.46774 0.17402 0.0
C224 C 0.32346 0.47533 0.15739 0.0
C225 C 0.50204 0.45654 0.11144 0.0
C226 C 0.47084 0.41844 0.11004 0.0
C227 C 0.49149 0.47974 0.11644 0.0
C228 C 0.44954 0.46531 0.12015 0.0
C229 C 0.41866 0.42745 0.1195 0.0
C230 C 0.42913 0.40426 0.11445 0.0
C231 C 0.43688 0.48915 0.12376 0.0
C232 C 0.41414 0.48572 0.14139 0.0
C233 C 0.44358 0.51267 0.10904 0.0
C234 C 0.46396 0.51556 0.08919 0.0
C235 C 0.44456 0.48539 0.07393 0.0
C236 C 0.46116 0.48925 0.05425 0.0
C237 C 0.49725 0.5231 0.04971 0.0
C238 C 0.51706 0.55311 0.06491 0.0
C239 C 0.50037 0.54946 0.08455 0.0
H240 H 0.51006 0.52602 0.03446 0.0
H241 H 0.2944 0.47291 0.20749 0.0
H242 H 0.68093 0.19836 0.49495 0.0
H243 H 0.74121 0.26255 0.49469 0.0
H244 H 0.82303 0.23311 0.4812 0.0
H245 H 0.7629 0.16875 0.48234 0.0
H246 H 0.86427 0.29613 0.50678 0.0
H247 H 0.77506 0.24638 0.4427 0.0
H248 H 0.70476 0.21347 0.42469 0.0
H249 H 0.69816 0.29872 0.44838 0.0
H250 H 0.76774 0.33143 0.46735 0.0
H251 H 1.02885 0.45986 0.46416 0.0
H252 H 0.97361 0.39728 0.47183 0.0
H253 H 0.88358 0.41956 0.47544 0.0
H254 H 0.93804 0.48106 0.46638 0.0
H255 H 0.84655 0.35922 0.45521 0.0
H256 H 0.93026 0.40844 0.5201 0.0
H257 H 0.99494 0.43958 0.54318 0.0
H258 H 1.00896 0.35799 0.52148 0.0
H259 H 0.94463 0.3266 0.49808 0.0
C260 C 0.71183 0.20556 0.49213 0.0
C261 C 0.71705 0.17844 0.48835 0.0
C262 C 0.74633 0.24232 0.49199 0.0
C263 C 0.78659 0.25274 0.48738 0.0
C264 C 0.7923 0.22582 0.48467 0.0
C265 C 0.75788 0.18902 0.48526 0.0
C266 C 0.82176 0.29115 0.48383 0.0
C267 C 0.86063 0.30988 0.49536 0.0
C268 C 0.81676 0.30947 0.46928 0.0
C269 C 0.77654 0.29127 0.45654 0.0
C270 C 0.75867 0.25815 0.44405 0.0
C271 C 0.71884 0.23945 0.43374 0.0
C272 C 0.69708 0.25409 0.43528 0.0
C273 C 0.71512 0.28748 0.44715 0.0
C274 C 0.75469 0.30604 0.45776 0.0
C275 C 0.99737 0.45142 0.46687 0.0
C276 C 0.9877 0.47532 0.46482 0.0
C277 C 0.96573 0.41562 0.47136 0.0
C278 C 0.92414 0.4034 0.47454 0.0
C279 C 0.9151 0.42789 0.473 0.0
C280 C 0.94634 0.4632 0.46796 0.0
C281 C 0.88941 0.36485 0.47841 0.0
C282 C 0.8505 0.34582 0.46675 0.0
C283 C 0.89419 0.34657 0.49314 0.0
C284 C 0.93288 0.36539 0.50718 0.0
C285 C 0.94731 0.39729 0.52014 0.0
C286 C 0.98388 0.41496 0.5333 0.0
C287 C 1.00611 0.40083 0.53375 0.0
C288 C 0.99175 0.36894 0.52109 0.0
C289 C 0.95522 0.35118 0.50789 0.0
H290 H 1.03441 0.41455 0.54395 0.0
H291 H 0.66617 0.23953 0.42734 0.0
H292 H 0.65017 0.72634 0.79324 0.0
H293 H 0.64093 0.77146 0.78529 0.0
H294 H 0.60408 0.77528 0.84813 0.0
H295 H 0.61326 0.73011 0.85618 0.0
H296 H 0.55159 0.77124 0.81747 0.0
H297 H 0.69904 0.8419 0.83761 0.0
H298 H 0.77067 0.85879 0.83671 0.0
H299 H 0.77559 0.87748 0.77221 0.0
H300 H 0.70367 0.86015 0.77263 0.0
H301 H 0.63758 0.96889 0.80048 0.0
H302 H 0.64601 0.92635 0.81433 0.0
H303 H 0.55361 0.84138 0.76732 0.0
H304 H 0.54513 0.88376 0.75342 0.0
H305 H 0.67239 0.88916 0.79457 0.0
H306 H 0.49659 0.76071 0.78906 0.0
H307 H 0.42573 0.74512 0.79176 0.0
H308 H 0.47927 0.84511 0.83085 0.0
H309 H 0.55032 0.86106 0.82863 0.0
C310 C 0.63975 0.73659 0.8053 0.0
C311 C 0.63249 0.7248 0.82534 0.0
C312 C 0.63476 0.76249 0.80078 0.0
C313 C 0.62214 0.77686 0.81618 0.0
C314 C 0.61394 0.76455 0.83606 0.0
C315 C 0.6194 0.73895 0.84066 0.0
C316 C 0.61785 0.80497 0.81152 0.0
C317 C 0.57797 0.79704 0.81248 0.0
C318 C 0.65251 0.83887 0.80541 0.0
C319 C 0.69581 0.8494 0.8051 0.0
C320 C 0.71524 0.84931 0.82318 0.0
C321 C 0.75593 0.85902 0.82277 0.0
C322 C 0.77763 0.86912 0.8044 0.0
C323 C 0.75872 0.86961 0.78642 0.0
C324 C 0.71801 0.85988 0.78674 0.0
C325 C 0.6189 0.94109 0.79319 0.0
C326 C 0.59054 0.92948 0.77592 0.0
C327 C 0.62385 0.91688 0.80107 0.0
C328 C 0.60018 0.88066 0.79196 0.0
C329 C 0.57178 0.86908 0.77475 0.0
C330 C 0.56706 0.8933 0.7668 0.0
C331 C 0.60586 0.85507 0.8 0.0
C332 C 0.64601 0.86343 0.79964 0.0
C333 C 0.57153 0.82174 0.80687 0.0
C334 C 0.52884 0.81221 0.80851 0.0
C335 C 0.49321 0.7793 0.7983 0.0
C336 C 0.45302 0.77041 0.79974 0.0
C337 C 0.44802 0.79416 0.81141 0.0
C338 C 0.4832 0.8268 0.82174 0.0
C339 C 0.52345 0.8358 0.82037 0.0
H340 H 0.41688 0.78724 0.81249 0.0
H341 H 0.80913 0.87664 0.80411 0.0
H342 H 0.83518 0.47233 0.21203 0.0
H343 H 0.75972 0.42981 0.20092 0.0
H344 H 0.7829 0.49055 0.14877 0.0
H345 H 0.85784 0.53305 0.15984 0.0
H346 H 0.71305 0.47152 0.16558 0.0
H347 H 0.77305 0.41144 0.14288 0.0
H348 H 0.81185 0.38684 0.14764 0.0
H349 H 0.72092 0.31535 0.19004 0.0
H350 H 0.68178 0.33974 0.18568 0.0
H351 H 0.53339 0.2873 0.10074 0.0
H352 H 0.606 0.32919 0.11642 0.0
H353 H 0.56546 0.37268 0.16331 0.0
H354 H 0.49404 0.33298 0.14655 0.0
H355 H 0.644 0.33981 0.15044 0.0
H356 H 0.64186 0.45798 0.18138 0.0
H357 H 0.6069 0.48503 0.17385 0.0
H358 H 0.58816 0.44416 0.10908 0.0
H359 H 0.62287 0.41669 0.11617 0.0
C360 C 0.82402 0.47667 0.19829 0.0
C361 C 0.85236 0.50606 0.18684 0.0
C362 C 0.781 0.45236 0.19193 0.0
C363 C 0.76581 0.45678 0.17387 0.0
C364 C 0.79389 0.48668 0.16279 0.0
C365 C 0.83671 0.51107 0.1692 0.0
C366 C 0.72093 0.42998 0.16604 0.0
C367 C 0.69787 0.44268 0.16231 0.0
C368 C 0.70135 0.39246 0.16156 0.0
C369 C 0.72469 0.37761 0.16409 0.0
C370 C 0.76146 0.3906 0.1533 0.0
C371 C 0.78346 0.37664 0.15588 0.0
C372 C 0.76878 0.3495 0.16909 0.0
C373 C 0.73214 0.33628 0.17976 0.0
C374 C 0.71003 0.35013 0.17723 0.0
C375 C 0.54032 0.30595 0.11437 0.0
C376 C 0.50876 0.30754 0.12233 0.0
C377 C 0.58164 0.32978 0.12337 0.0
C378 C 0.59162 0.35485 0.14079 0.0
C379 C 0.55915 0.35471 0.14944 0.0
C380 C 0.51829 0.33182 0.14 0.0
C381 C 0.63602 0.38136 0.14966 0.0
C382 C 0.659 0.3686 0.15372 0.0
C383 C 0.65595 0.41906 0.15395 0.0
C384 C 0.63464 0.43505 0.14936 0.0
C385 C 0.63025 0.45475 0.16552 0.0
C386 C 0.61038 0.47005 0.16133 0.0
C387 C 0.59508 0.46609 0.141 0.0
C388 C 0.59965 0.44684 0.12481 0.0
C389 C 0.61936 0.43135 0.12891 0.0
H390 H 0.57991 0.47813 0.13781 0.0
H391 H 0.78573 0.33869 0.17102 0.0
H392 H 0.52081 0.93839 0.49675 0.0
H393 H 0.45722 0.8754 0.49662 0.0
H394 H 0.39145 0.89559 0.45503 0.0
H395 H 0.4546 0.95893 0.45555 0.0
H396 H 0.34186 0.85749 0.4847 0.0
H397 H 0.43267 0.84854 0.43826 0.0
H398 H 0.49937 0.85875 0.4301 0.0
H399 H 0.4848 0.79741 0.47994 0.0
H400 H 0.41813 0.78708 0.48851 0.0
H401 H 0.17402 0.68641 0.43605 0.0
H402 H 0.23784 0.74788 0.44653 0.0
H403 H 0.28082 0.70566 0.48645 0.0
H404 H 0.21684 0.64335 0.47539 0.0
H405 H 0.34346 0.75359 0.46353 0.0
H406 H 0.24887 0.75553 0.50734 0.0
H407 H 0.18323 0.74611 0.51692 0.0
H408 H 0.20568 0.82111 0.47438 0.0
H409 H 0.27116 0.83061 0.4643 0.0
C410 C 0.4929 0.92944 0.48748 0.0
C411 C 0.49297 0.95378 0.47606 0.0
C412 C 0.4565 0.89329 0.48739 0.0
C413 C 0.41951 0.88043 0.4756 0.0
C414 C 0.4195 0.90475 0.46427 0.0
C415 C 0.45575 0.941 0.46451 0.0
C416 C 0.38069 0.84179 0.47503 0.0
C417 C 0.34217 0.8348 0.47987 0.0
C418 C 0.38122 0.81197 0.46965 0.0
C419 C 0.42062 0.8173 0.46413 0.0
C420 C 0.44376 0.83732 0.44751 0.0
C421 C 0.48154 0.84312 0.44282 0.0
C422 C 0.49633 0.82879 0.45452 0.0
C423 C 0.47328 0.80849 0.47089 0.0
C424 C 0.43546 0.8026 0.47565 0.0
C425 C 0.19682 0.69017 0.44724 0.0
C426 C 0.19046 0.65998 0.45482 0.0
C427 C 0.23326 0.72545 0.45335 0.0
C428 C 0.2642 0.73165 0.46744 0.0
C429 C 0.25742 0.70163 0.47558 0.0
C430 C 0.2207 0.66609 0.46943 0.0
C431 C 0.30434 0.76935 0.47252 0.0
C432 C 0.34314 0.77621 0.46859 0.0
C433 C 0.30417 0.7991 0.47891 0.0
C434 C 0.26484 0.79361 0.48497 0.0
C435 C 0.23967 0.76983 0.49992 0.0
C436 C 0.20251 0.76451 0.50546 0.0
C437 C 0.19026 0.78296 0.49625 0.0
C438 C 0.21521 0.80683 0.4815 0.0
C439 C 0.25239 0.81224 0.4759 0.0
H440 H 0.16147 0.77879 0.50056 0.0
H441 H 0.52561 0.83335 0.45087 0.0
H442 H 0.51009 0.27251 0.82069 0.0
H443 H 0.52239 0.22764 0.81381 0.0
H444 H 0.62788 0.28854 0.85969 0.0
H445 H 0.61559 0.33372 0.86675 0.0
H446 H 0.64704 0.26619 0.82466 0.0
H447 H 0.53586 0.21001 0.87111 0.0
H448 H 0.46764 0.18901 0.88524 0.0
H449 H 0.40156 0.11761 0.82884 0.0
H450 H 0.46942 0.13857 0.81423 0.0
H451 H 0.65199 0.11396 0.80658 0.0
H452 H 0.64667 0.15877 0.82609 0.0
H453 H 0.54342 0.1259 0.78347 0.0
H454 H 0.54854 0.0814 0.76414 0.0
H455 H 0.52855 0.13455 0.82477 0.0
H456 H 0.64141 0.19948 0.77688 0.0
H457 H 0.70991 0.22135 0.7627 0.0
H458 H 0.77305 0.27641 0.82302 0.0
H459 H 0.70475 0.25442 0.83762 0.0
C460 C 0.53555 0.27618 0.82957 0.0
C461 C 0.56146 0.30649 0.84451 0.0
C462 C 0.5426 0.2505 0.82558 0.0
C463 C 0.57551 0.25432 0.83654 0.0
C464 C 0.60209 0.28491 0.85117 0.0
C465 C 0.59508 0.31075 0.85515 0.0
C466 C 0.58228 0.22654 0.83218 0.0
C467 C 0.62144 0.23745 0.82516 0.0
C468 C 0.54884 0.18902 0.83275 0.0
C469 C 0.50782 0.17602 0.84153 0.0
C470 C 0.50681 0.18999 0.86166 0.0
C471 C 0.46819 0.17808 0.86977 0.0
C472 C 0.4303 0.15203 0.85794 0.0
C473 C 0.43094 0.13778 0.83799 0.0
C474 C 0.46948 0.14963 0.8298 0.0
C475 C 0.62794 0.11615 0.80159 0.0
C476 C 0.60093 0.09454 0.78377 0.0
C477 C 0.62504 0.14176 0.81265 0.0
C478 C 0.59482 0.14576 0.80611 0.0
C479 C 0.56695 0.12326 0.78877 0.0
C480 C 0.57008 0.09804 0.77766 0.0
C481 C 0.59272 0.17418 0.81658 0.0
C482 C 0.55442 0.16334 0.82477 0.0
C483 C 0.62698 0.21171 0.81718 0.0
C484 C 0.66795 0.2249 0.8084 0.0
C485 C 0.66985 0.21597 0.78716 0.0
C486 C 0.70864 0.22844 0.77904 0.0
C487 C 0.74579 0.25014 0.79197 0.0
C488 C 0.74423 0.25951 0.81303 0.0
C489 C 0.70551 0.24706 0.82124 0.0
H490 H 0.77579 0.25979 0.78565 0.0
H491 H 0.40043 0.14285 0.86424 0.0
H492 H 0.64524 0.8975 0.53748 0.0
H493 H 0.63534 0.841 0.53993 0.0
H494 H 0.58415 0.80398 0.47602 0.0
H495 H 0.59465 0.86095 0.4733 0.0
H496 H 0.54067 0.74841 0.5024 0.0
H497 H 0.68303 0.83817 0.48508 0.0
H498 H 0.75349 0.89815 0.48847 0.0
H499 H 0.77391 0.88201 0.55035 0.0
H500 H 0.70325 0.82214 0.54747 0.0
H501 H 0.57196 0.61098 0.49822 0.0
H502 H 0.57338 0.66204 0.48989 0.0
H503 H 0.62818 0.71624 0.55184 0.0
H504 H 0.62692 0.66581 0.56018 0.0
H505 H 0.66975 0.7619 0.52181 0.0
H506 H 0.52512 0.67379 0.53975 0.0
H507 H 0.45435 0.61407 0.53634 0.0
H508 H 0.43848 0.62686 0.47275 0.0
H509 H 0.50947 0.68649 0.4757 0.0
C510 C 0.63189 0.87741 0.52391 0.0
C511 C 0.62137 0.88405 0.50508 0.0
C512 C 0.62609 0.84504 0.52537 0.0
C513 C 0.60971 0.81856 0.50805 0.0
C514 C 0.59699 0.82412 0.48955 0.0
C515 C 0.6029 0.85665 0.48805 0.0
C516 C 0.60813 0.78614 0.50912 0.0
C517 C 0.56896 0.75125 0.50629 0.0
C518 C 0.645 0.78989 0.51436 0.0
C519 C 0.68769 0.82578 0.51611 0.0
C520 C 0.70241 0.84752 0.49947 0.0
C521 C 0.74241 0.88149 0.50129 0.0
C522 C 0.76813 0.89392 0.51963 0.0
C523 C 0.75394 0.87236 0.53616 0.0
C524 C 0.71393 0.83839 0.53444 0.0
C525 C 0.58424 0.63383 0.51001 0.0
C526 C 0.59915 0.63429 0.52983 0.0
C527 C 0.5849 0.66286 0.50529 0.0
C528 C 0.60067 0.69286 0.5203 0.0
C529 C 0.61588 0.6934 0.54002 0.0
C530 C 0.61499 0.66442 0.54478 0.0
C531 C 0.60215 0.72416 0.51564 0.0
C532 C 0.64146 0.75894 0.51772 0.0
C533 C 0.56544 0.72019 0.50965 0.0
C534 C 0.52281 0.68437 0.50786 0.0
C535 C 0.50671 0.66371 0.52497 0.0
C536 C 0.46652 0.62991 0.52314 0.0
C537 C 0.44199 0.61662 0.50432 0.0
C538 C 0.45756 0.63716 0.48731 0.0
C539 C 0.49776 0.67096 0.48905 0.0
H540 H 0.41087 0.59046 0.50293 0.0
H541 H 0.79909 0.92022 0.52101 0.0
H542 H 0.67036 0.46027 0.83723 0.0
H543 H 0.73073 0.4592 0.83645 0.0
H544 H 0.81465 0.57409 0.85728 0.0
H545 H 0.75449 0.57546 0.85694 0.0
H546 H 0.85513 0.5642 0.8319 0.0
H547 H 0.77605 0.49477 0.8894 0.0
H548 H 0.71218 0.44478 0.9051 0.0
H549 H 0.70757 0.36634 0.86209 0.0
H550 H 0.77125 0.41594 0.84601 0.0
H551 H 1.03365 0.58036 0.86954 0.0
H552 H 0.97159 0.57746 0.86311 0.0
H553 H 0.89977 0.46404 0.83985 0.0
H554 H 0.96225 0.4669 0.84695 0.0
H555 H 0.8515 0.46979 0.86372 0.0
H556 H 0.93167 0.537 0.80771 0.0
H557 H 0.99399 0.58555 0.79044 0.0
H558 H 0.9951 0.66643 0.82869 0.0
H559 H 0.93309 0.61839 0.84639 0.0
C560 C 0.70161 0.48535 0.84174 0.0
C561 C 0.70695 0.51791 0.84729 0.0
C562 C 0.73654 0.48471 0.84145 0.0
C563 C 0.77822 0.51639 0.84734 0.0
C564 C 0.78345 0.54899 0.85267 0.0
C565 C 0.74867 0.54977 0.85253 0.0
C566 C 0.81627 0.51603 0.84778 0.0
C567 C 0.8542 0.54374 0.83919 0.0
C568 C 0.81583 0.4888 0.85645 0.0
C569 C 0.77819 0.45905 0.86642 0.0
C570 C 0.76134 0.46686 0.88328 0.0
C571 C 0.72517 0.43858 0.89223 0.0
C572 C 0.70582 0.40239 0.88458 0.0
C573 C 0.72263 0.39439 0.86799 0.0
C574 C 0.75878 0.42256 0.85898 0.0
C575 C 1.00512 0.55505 0.86233 0.0
C576 C 1.00383 0.52418 0.85821 0.0
C577 C 0.96916 0.55331 0.8587 0.0
C578 C 0.93012 0.52061 0.85065 0.0
C579 C 0.92902 0.48983 0.84597 0.0
C580 C 0.9652 0.49158 0.84968 0.0
C581 C 0.89055 0.51842 0.84825 0.0
C582 C 0.8524 0.49026 0.85645 0.0
C583 C 0.89068 0.5451 0.8391 0.0
C584 C 0.92794 0.57409 0.8285 0.0
C585 C 0.94538 0.56515 0.81254 0.0
C586 C 0.98063 0.59258 0.80266 0.0
C587 C 0.99855 0.62906 0.8085 0.0
C588 C 0.98121 0.63817 0.8242 0.0
C589 C 0.94598 0.61085 0.83414 0.0
H590 H 1.02584 0.65025 0.80083 0.0
H591 H 0.6779 0.38051 0.89152 0.0
H592 H 0.24618 0.66214 0.14046 0.0
H593 H 0.31028 0.72504 0.1399 0.0
H594 H 0.25473 0.76293 0.17999 0.0
H595 H 0.19072 0.7005 0.18054 0.0
H596 H 0.29119 0.80368 0.1477 0.0
H597 H 0.32939 0.75692 0.19901 0.0
H598 H 0.34012 0.71435 0.21107 0.0
H599 H 0.43009 0.74214 0.16439 0.0
H600 H 0.41946 0.78456 0.15187 0.0
H601 H 0.45456 0.97428 0.19881 0.0
H602 H 0.39572 0.911 0.18734 0.0
H603 H 0.47861 0.90114 0.14961 0.0
H604 H 0.53822 0.96505 0.16137 0.0
H605 H 0.43219 0.84516 0.17381 0.0
H606 H 0.40175 0.89882 0.12596 0.0
H607 H 0.39148 0.94179 0.11417 0.0
H608 H 0.2873 0.9013 0.15369 0.0
H609 H 0.29732 0.85843 0.16597 0.0
C610 C 0.24763 0.68384 0.14921 0.0
C611 C 0.21322 0.67614 0.16059 0.0
C612 C 0.28437 0.71981 0.1489 0.0
C613 C 0.28744 0.74877 0.15997 0.0
C614 C 0.2531 0.7411 0.17127 0.0
C615 C 0.21653 0.70527 0.17164 0.0
C616 C 0.32619 0.78718 0.15995 0.0
C617 C 0.32198 0.81278 0.1535 0.0
C618 C 0.36674 0.79892 0.16677 0.0
C619 C 0.37324 0.77355 0.17434 0.0
C620 C 0.35119 0.75372 0.1912 0.0
C621 C 0.35731 0.72967 0.19815 0.0
C622 C 0.38566 0.72545 0.18846 0.0
C623 C 0.40807 0.74537 0.17185 0.0
C624 C 0.40203 0.76943 0.16483 0.0
C625 C 0.46012 0.95881 0.1878 0.0
C626 C 0.50092 0.97454 0.18097 0.0
C627 C 0.42641 0.92264 0.18118 0.0
C628 C 0.43256 0.90126 0.16748 0.0
C629 C 0.47309 0.91715 0.16013 0.0
C630 C 0.50699 0.95366 0.1667 0.0
C631 C 0.39692 0.86186 0.16216 0.0
C632 C 0.40162 0.83603 0.1676 0.0
C633 C 0.35679 0.84986 0.15437 0.0
C634 C 0.35046 0.87552 0.14698 0.0
C635 C 0.37683 0.89924 0.13226 0.0
C636 C 0.37102 0.92356 0.12547 0.0
C637 C 0.33879 0.92431 0.1332 0.0
C638 C 0.31225 0.90069 0.14771 0.0
C639 C 0.31794 0.87632 0.15457 0.0
H640 H 0.33435 0.94316 0.12792 0.0
H641 H 0.39036 0.70682 0.19385 0.0
H642 H 0.53036 0.23524 0.46296 0.0
H643 H 0.54335 0.29281 0.4742 0.0
H644 H 0.6528 0.32758 0.51236 0.0
H645 H 0.63923 0.26958 0.50172 0.0
H646 H 0.60328 0.33839 0.53393 0.0
H647 H 0.66294 0.36456 0.46697 0.0
H648 H 0.66375 0.35352 0.4288 0.0
H649 H 0.56003 0.3567 0.41942 0.0
H650 H 0.55817 0.36722 0.45758 0.0
H651 H 0.67717 0.51667 0.56356 0.0
H652 H 0.67475 0.46681 0.54587 0.0
H653 H 0.56334 0.43029 0.50882 0.0
H654 H 0.56603 0.48065 0.52635 0.0
H655 H 0.61523 0.42133 0.48605 0.0
H656 H 0.55377 0.39264 0.55287 0.0
H657 H 0.55252 0.40343 0.59106 0.0
H658 H 0.65902 0.40406 0.60057 0.0
H659 H 0.66136 0.39389 0.56241 0.0
C660 C 0.55721 0.25512 0.47375 0.0
C661 C 0.58362 0.24765 0.48151 0.0
C662 C 0.56486 0.28821 0.48 0.0
C663 C 0.59923 0.31467 0.49403 0.0
C664 C 0.62613 0.30761 0.50149 0.0
C665 C 0.61852 0.27453 0.49525 0.0
C666 C 0.60579 0.34885 0.5018 0.0
C667 C 0.60661 0.35681 0.52346 0.0
C668 C 0.60892 0.3724 0.48812 0.0
C669 C 0.61018 0.36636 0.46516 0.0
C670 C 0.64009 0.36263 0.45678 0.0
C671 C 0.64077 0.35651 0.43514 0.0
C672 C 0.6119 0.35433 0.42169 0.0
C673 C 0.58235 0.35836 0.42986 0.0
C674 C 0.58149 0.36444 0.45149 0.0
C675 C 0.65252 0.49831 0.55142 0.0
C676 C 0.62148 0.50225 0.54649 0.0
C677 C 0.65113 0.46982 0.54135 0.0
C678 C 0.61831 0.44433 0.52635 0.0
C679 C 0.58884 0.44954 0.52041 0.0
C680 C 0.59042 0.47832 0.5304 0.0
C681 C 0.61304 0.4109 0.51816 0.0
C682 C 0.61217 0.40297 0.49648 0.0
C683 C 0.60973 0.38722 0.5318 0.0
C684 C 0.60798 0.39284 0.55477 0.0
C685 C 0.5771 0.39532 0.5631 0.0
C686 C 0.57618 0.40131 0.58474 0.0
C687 C 0.60573 0.40451 0.59822 0.0
C688 C 0.63619 0.40163 0.5901 0.0
C689 C 0.63731 0.39573 0.56847 0.0
H690 H 0.605 0.40913 0.61497 0.0
H691 H 0.61248 0.34959 0.40494 0.0
H692 H 0.4384 0.46056 0.85432 0.0
H693 H 0.37815 0.46201 0.85488 0.0
H694 H 0.46297 0.57775 0.8516 0.0
H695 H 0.52334 0.57641 0.85083 0.0
H696 H 0.40485 0.56118 0.88047 0.0
H697 H 0.39733 0.51609 0.80896 0.0
H698 H 0.39283 0.47426 0.7807 0.0
H699 H 0.27533 0.38453 0.80237 0.0
H700 H 0.27943 0.42577 0.83095 0.0
H701 H 0.25822 0.59358 0.86316 0.0
H702 H 0.31386 0.58701 0.85926 0.0
H703 H 0.21993 0.47026 0.85257 0.0
H704 H 0.1634 0.47708 0.85539 0.0
H705 H 0.28074 0.48419 0.82957 0.0
H706 H 0.28627 0.52603 0.90072 0.0
H707 H 0.28954 0.56527 0.93036 0.0
H708 H 0.40889 0.65731 0.91168 0.0
H709 H 0.40607 0.61871 0.88177 0.0
C710 C 0.44446 0.48643 0.85367 0.0
C711 C 0.48638 0.51836 0.85252 0.0
C712 C 0.40962 0.48719 0.85389 0.0
C713 C 0.41519 0.51996 0.85312 0.0
C714 C 0.45709 0.55194 0.85219 0.0
C715 C 0.4919 0.55112 0.8517 0.0
C716 C 0.37783 0.52112 0.85363 0.0
C717 C 0.37808 0.54464 0.8691 0.0
C718 C 0.34152 0.49875 0.83943 0.0
C719 C 0.33892 0.47396 0.82222 0.0
C720 C 0.37071 0.48739 0.8078 0.0
C721 C 0.3682 0.4638 0.7917 0.0
C722 C 0.33387 0.42675 0.78977 0.0
C723 C 0.30193 0.41323 0.8039 0.0
C724 C 0.30432 0.43671 0.82004 0.0
C725 C 0.24911 0.56636 0.86052 0.0
C726 C 0.20592 0.53596 0.85952 0.0
C727 C 0.28135 0.56257 0.85858 0.0
C728 C 0.27216 0.52807 0.85633 0.0
C729 C 0.22872 0.49738 0.85448 0.0
C730 C 0.1961 0.50124 0.85601 0.0
C731 C 0.30794 0.52467 0.8563 0.0
C732 C 0.30742 0.50072 0.84097 0.0
C733 C 0.34383 0.54624 0.87087 0.0
C734 C 0.34576 0.56953 0.88889 0.0
C735 C 0.31309 0.55468 0.90286 0.0
C736 C 0.31487 0.57681 0.91972 0.0
C737 C 0.34935 0.61378 0.92287 0.0
C738 C 0.38218 0.62868 0.90921 0.0
C739 C 0.38053 0.60668 0.89231 0.0
H740 H 0.35067 0.63086 0.93593 0.0
H741 H 0.33198 0.40852 0.7773 0.0
H742 H 1.00306 0.43007 0.13635 0.0
H743 H 0.93836 0.36788 0.13816 0.0
H744 H 0.88309 0.40994 0.17453 0.0
H745 H 0.94747 0.47181 0.17292 0.0
H746 H 0.87401 0.35699 0.19253 0.0
H747 H 0.85201 0.37431 0.12279 0.0
H748 H 0.86752 0.38691 0.0861 0.0
H749 H 0.86991 0.2963 0.07425 0.0
H750 H 0.85509 0.28351 0.11098 0.0
H751 H 0.66028 0.20725 0.19201 0.0
H752 H 0.72619 0.26487 0.18454 0.0
H753 H 0.76753 0.20713 0.15275 0.0
H754 H 0.70081 0.14889 0.15999 0.0
H755 H 0.78711 0.26497 0.132 0.0
H756 H 0.80612 0.2471 0.20223 0.0
H757 H 0.78604 0.23357 0.23846 0.0
H758 H 0.78664 0.32595 0.24887 0.0
H759 H 0.80618 0.33975 0.21261 0.0
C760 C 0.97697 0.4261 0.14458 0.0
C761 C 0.98071 0.45605 0.15469 0.0
C762 C 0.93992 0.39048 0.14554 0.0
C763 C 0.90573 0.38411 0.15649 0.0
C764 C 0.90908 0.41404 0.16612 0.0
C765 C 0.94604 0.44953 0.16521 0.0
C766 C 0.86724 0.34642 0.15891 0.0
C767 C 0.85494 0.33702 0.17924 0.0
C768 C 0.84281 0.31986 0.14165 0.0
C769 C 0.85285 0.32818 0.11971 0.0
C770 C 0.8563 0.35732 0.11244 0.0
C771 C 0.86485 0.36443 0.09161 0.0
C772 C 0.86964 0.34238 0.07785 0.0
C773 C 0.86616 0.31333 0.08492 0.0
C774 C 0.85771 0.30615 0.10574 0.0
C775 C 0.68324 0.20677 0.18326 0.0
C776 C 0.67549 0.17362 0.17668 0.0
C777 C 0.721 0.23976 0.17908 0.0
C778 C 0.75221 0.24045 0.16841 0.0
C779 C 0.744 0.20727 0.16111 0.0
C780 C 0.70592 0.17404 0.16526 0.0
C781 C 0.79362 0.27602 0.16555 0.0
C782 C 0.80658 0.2849 0.14523 0.0
C783 C 0.81864 0.30231 0.18279 0.0
C784 C 0.80746 0.29435 0.20468 0.0
C785 C 0.80179 0.26442 0.21222 0.0
C786 C 0.79051 0.25672 0.23276 0.0
C787 C 0.78503 0.27887 0.24595 0.0
C788 C 0.79091 0.30883 0.23864 0.0
C789 C 0.80216 0.31664 0.21811 0.0
H790 H 0.77627 0.27284 0.26185 0.0
H791 H 0.87596 0.34776 0.06169 0.0
H792 H 0.07475 0.61753 0.09862 0.0
H793 H 0.07522 0.61027 0.06036 0.0
H794 H 0.09175 0.52788 0.06444 0.0
H795 H 0.08744 0.53282 0.10225 0.0
H796 H 0.12658 0.61947 0.03324 0.0
H797 H 1.04853 0.46577 0.02396 0.0
H798 H 1.00008 0.4121 0.04287 0.0
H799 H 0.9434 0.46006 0.06885 0.0
H800 H 0.99115 0.51383 0.04989 0.0
H801 H 0.14487 0.57117 0.92838 0.0
H802 H 0.14755 0.57918 0.96659 0.0
H803 H 1.01115 0.51171 0.96489 0.0
H804 H 1.00809 0.50133 0.92697 0.0
H805 H 1.03487 0.49567 0.99479 0.0
H806 H 0.07834 0.60863 0.97321 0.0
H807 H 0.12115 0.6638 0.95488 0.0
H808 H 0.23321 0.69849 0.98993 0.0
H809 H 0.19112 0.64326 0.00828 0.0
C810 C 0.07826 0.59777 0.09125 0.0
C811 C 0.08087 0.57562 0.10334 0.0
C812 C 0.07878 0.59377 0.06942 0.0
C813 C 0.08267 0.56798 0.05937 0.0
C814 C 0.08737 0.54715 0.07165 0.0
C815 C 0.08543 0.5503 0.09333 0.0
C816 C 0.08076 0.56215 0.0361 0.0
C817 C 0.10647 0.5924 0.02485 0.0
C818 C 1.05395 0.52689 0.02499 0.0
C819 C 1.02369 0.49394 0.03566 0.0
C820 C 1.02549 0.46472 0.03357 0.0
C821 C 0.99822 0.43434 0.04433 0.0
C822 C 0.96885 0.43279 0.05713 0.0
C823 C 0.9663 0.4614 0.059 0.0
C824 C 0.99345 0.49183 0.04825 0.0
C825 C 0.11541 0.55754 0.93614 0.0
C826 C 0.07627 0.5359 0.92448 0.0
C827 C 0.11701 0.56258 0.95802 0.0
C828 C 0.07958 0.54669 0.96869 0.0
C829 C 1.04053 0.52448 0.9571 0.0
C830 C 1.03887 0.51894 0.93532 0.0
C831 C 0.08074 0.553 0.9919 0.0
C832 C 1.05494 0.52278 0.00316 0.0
C833 C 0.10627 0.58836 0.00291 0.0
C834 C 0.13165 0.62164 0.99196 0.0
C835 C 0.11216 0.6279 0.9769 0.0
C836 C 0.13628 0.6592 0.96653 0.0
C837 C 0.17989 0.68459 0.9712 0.0
C838 C 0.19944 0.67877 0.9863 0.0
C839 C 0.17546 0.64749 -0.00329 0.0
H840 H 0.19851 0.7088 0.96315 0.0
H841 H 0.94815 0.40945 0.06562 0.0
H842 H 0.6853 0.10209 0.41643 0.0
H843 H 0.67456 0.10458 0.37943 0.0
H844 H 0.53988 0.04032 0.38603 0.0
H845 H 0.55051 0.03772 0.42309 0.0
H846 H 0.55803 0.01291 0.35313 0.0
H847 H 0.59555 0.12887 0.37807 0.0
H848 H 0.63677 0.191 0.39625 0.0
H849 H 0.74319 0.22338 0.35995 0.0
H850 H 0.70262 0.16131 0.3416 0.0
H851 H 0.51158 0.02747 0.25034 0.0
H852 H 0.51877 0.03344 0.28851 0.0
H853 H 0.65418 0.09596 0.28605 0.0
H854 H 0.64721 0.08992 0.2478 0.0
H855 H 0.63243 0.12481 0.31709 0.0
H856 H 0.59388 0.00693 0.29295 0.0
H857 H 0.54966 0.94583 0.27326 0.0
H858 H 0.44297 0.91738 0.30815 0.0
H859 H 0.48644 0.97854 0.32785 0.0
C860 C 0.65346 0.0888 0.41002 0.0
C861 C 0.6187 0.06952 0.42253 0.0
C862 C 0.64738 0.09044 0.38892 0.0
C863 C 0.60643 0.07279 0.37999 0.0
C864 C 0.57174 0.05414 0.39261 0.0
C865 C 0.57783 0.0527 0.41375 0.0
C866 C 0.59969 0.07157 0.35717 0.0
C867 C 0.57373 0.03741 0.34531 0.0
C868 C 0.62093 0.10349 0.34689 0.0
C869 C 0.64615 0.14034 0.35859 0.0
C870 C 0.62791 0.1491 0.37414 0.0
C871 C 0.6511 0.18438 0.3844 0.0
C872 C 0.69257 0.21115 0.37924 0.0
C873 C 0.71104 0.20263 0.3639 0.0
C874 C 0.68794 0.16743 0.35354 0.0
C875 C 0.54289 0.04242 0.25792 0.0
C876 C 0.5788 0.05793 0.24604 0.0
C877 C 0.54694 0.04587 0.27972 0.0
C878 C 0.58694 0.06469 0.29008 0.0
C879 C 0.623 0.08128 0.27834 0.0
C880 C 0.61899 0.07789 0.25651 0.0
C881 C 0.59108 0.06625 0.31313 0.0
C882 C 0.61662 0.10039 0.32498 0.0
C883 C 0.56937 0.03432 0.32343 0.0
C884 C 0.5433 0.99743 0.31172 0.0
C885 C 0.56091 0.98774 0.29632 0.0
C886 C 0.53599 0.95308 0.28517 0.0
C887 C 0.4935 0.92777 0.28941 0.0
C888 C 0.47587 0.93703 0.30486 0.0
C889 C 0.50064 0.97168 0.31603 0.0
H890 H 0.47426 0.90096 0.28076 0.0
H891 H 0.7104 0.23851 0.38709 0.0
H892 H 0.6521 0.54535 0.79408 0.0
H893 H 0.66267 0.55817 0.75749 0.0
H894 H 0.5278 0.49721 0.74611 0.0
H895 H 0.51715 0.48322 0.78239 0.0
H896 H 0.555 0.47743 0.71651 0.0
H897 H 0.60013 0.59345 0.74836 0.0
H898 H 0.64087 0.64925 0.77311 0.0
H899 H 0.75705 0.67742 0.74932 0.0
H900 H 0.71695 0.6217 0.72438 0.0
H901 H 0.55742 0.54339 0.6202 0.0
H902 H 0.55513 0.53904 0.65799 0.0
H903 H 0.67449 0.55712 0.65841 0.0
H904 H 0.67642 0.56059 0.62042 0.0
H905 H 0.65833 0.59983 0.69295 0.0
H906 H 0.60751 0.48061 0.66017 0.0
H907 H 0.56234 0.42658 0.63447 0.0
H908 H 0.4511 0.40605 0.66037 0.0
H909 H 0.49568 0.46045 0.68599 0.0
C910 C 0.62483 0.53502 0.78377 0.0
C911 C 0.5838 0.51314 0.79096 0.0
C912 C 0.63087 0.54249 0.76289 0.0
C913 C 0.59604 0.52884 0.749 0.0
C914 C 0.55516 0.50787 0.75644 0.0
C915 C 0.5491 0.49998 0.77719 0.0
C916 C 0.60174 0.53475 0.72648 0.0
C917 C 0.57732 0.50431 0.71146 0.0
C918 C 0.63132 0.56969 0.71973 0.0
C919 C 0.65556 0.60323 0.73466 0.0
C920 C 0.63438 0.61142 0.7485 0.0
C921 C 0.65735 0.64305 0.76255 0.0
C922 C 0.70153 0.66675 0.7629 0.0
C923 C 0.72282 0.65899 0.74908 0.0
C924 C 0.69999 0.62744 0.73494 0.0
C925 C 0.58332 0.54675 0.62841 0.0
C926 C 0.61707 0.55227 0.61749 0.0
C927 C 0.58198 0.54427 0.64992 0.0
C928 C 0.6147 0.54788 0.66088 0.0
C929 C 0.6491 0.55446 0.65016 0.0
C930 C 0.65003 0.5562 0.62853 0.0
C931 C 0.6115 0.54262 0.68333 0.0
C932 C 0.63628 0.57308 0.69821 0.0
C933 C 0.58177 0.50784 0.69 0.0
C934 C 0.55493 0.47482 0.67484 0.0
C935 C 0.57343 0.46479 0.66025 0.0
C936 C 0.54793 0.43406 0.64572 0.0
C937 C 0.50388 0.41294 0.64575 0.0
C938 C 0.48523 0.42246 0.66035 0.0
C939 C 0.51059 0.45323 0.67488 0.0
H940 H 0.4842 0.38916 0.63449 0.0
H941 H 0.71923 0.6912 0.77381 0.0
H942 H 0.523 0.02258 0.54262 0.0
H943 H 0.53137 0.01635 0.57923 0.0
H944 H 0.66716 0.08981 0.57631 0.0
H945 H 0.65895 0.09576 0.5395 0.0
H946 H 0.57507 0.99469 0.59964 0.0
H947 H 0.7018 0.14718 0.62337 0.0
H948 H 0.72841 0.20611 0.6114 0.0
H949 H 0.60495 0.15848 0.58404 0.0
H950 H 0.57754 0.09948 0.59611 0.0
H951 H 0.64956 0.0307 0.70815 0.0
H952 H 0.64924 0.03194 0.67014 0.0
H953 H 0.56519 0.0605 0.67402 0.0
H954 H 0.56376 0.05783 0.71173 0.0
H955 H 0.63637 0.10496 0.64991 0.0
H956 H 0.52463 0.97789 0.65775 0.0
H957 H 0.49563 0.91853 0.66981 0.0
H958 H 0.584 0.91402 0.63428 0.0
H959 H 0.61395 0.97366 0.62225 0.0
C960 C 0.55462 0.03711 0.54975 0.0
C961 C 0.59035 0.05988 0.53838 0.0
C962 C 0.55934 0.03333 0.57057 0.0
C963 C 0.59984 0.05272 0.58043 0.0
C964 C 0.63564 0.07471 0.56893 0.0
C965 C 0.63093 0.07811 0.54798 0.0
C966 C 0.60426 0.05192 0.60313 0.0
C967 C 0.58885 0.01884 0.61064 0.0
C968 C 0.62193 0.0834 0.61743 0.0
C969 C 0.63781 0.11886 0.61042 0.0
C970 C 0.68034 0.14935 0.61485 0.0
C971 C 0.69556 0.18275 0.60805 0.0
C972 C 0.66843 0.186 0.59689 0.0
C973 C 0.62598 0.1559 0.5926 0.0
C974 C 0.6106 0.12246 0.5994 0.0
C975 C 0.63055 0.03677 0.7009 0.0
C976 C 0.60685 0.04435 0.71308 0.0
C977 C 0.63066 0.0377 0.67921 0.0
C978 C 0.60735 0.04648 0.66936 0.0
C979 C 0.58372 0.05404 0.6814 0.0
C980 C 0.58315 0.05267 0.70299 0.0
C981 C 0.60716 0.04772 0.64647 0.0
C982 C 0.62333 0.08093 0.63891 0.0
C983 C 0.59 0.01632 0.63217 0.0
C984 C 0.57185 0.98041 0.63931 0.0
C985 C 0.53814 0.9644 0.65267 0.0
C986 C 0.52147 0.93067 0.65946 0.0
C987 C 0.53805 0.91257 0.65287 0.0
C988 C 0.57124 0.92811 0.63941 0.0
C989 C 0.58806 0.96186 0.63259 0.0
H990 H 0.5251 0.88646 0.65815 0.0
H991 H 0.68028 0.21186 0.59162 0.0
H992 H 0.67608 0.53733 0.91128 0.0
H993 H 0.66566 0.50734 0.94281 0.0
H994 H 0.53299 0.45891 0.93875 0.0
H995 H 0.54291 0.48783 0.90684 0.0
H996 H 0.58849 0.50283 0.98066 0.0
H997 H 0.53959 0.40215 0.92725 0.0
H998 H 0.54368 0.36906 0.89653 0.0
H999 H 0.65401 0.38956 0.92506 0.0
H1000 H 0.65077 0.42305 0.95588 0.0
H1001 H 0.48605 0.33987 0.03891 0.0
H1002 H 0.51391 0.36384 0.00549 0.0
H1003 H 0.62469 0.4619 0.0382 0.0
H1004 H 0.59623 0.4384 0.07166 0.0
H1005 H 0.58426 0.39458 0.98196 0.0
H1006 H 0.63732 0.53252 0.01962 0.0
H1007 H 0.62946 0.55746 0.05322 0.0
H1008 H 0.50473 0.45731 0.05663 0.0
H1009 H 0.5114 0.4322 0.02284 0.0
C1010 C 0.64472 0.52022 0.91713 0.0
C1011 C 0.61029 0.51494 0.90676 0.0
C1012 C 0.63881 0.50306 0.93503 0.0
C1013 C 0.59859 0.48097 0.943 0.0
C1014 C 0.56424 0.47585 0.93275 0.0
C1015 C 0.56993 0.49234 0.91459 0.0
C1016 C 0.59256 0.46412 0.96244 0.0
C1017 C 0.58782 0.47931 0.98097 0.0
C1018 C 0.59169 0.43348 0.96281 0.0
C1019 C 0.59542 0.41569 0.94367 0.0
C1020 C 0.5653 0.40033 0.92675 0.0
C1021 C 0.5674 0.3814 0.90933 0.0
C1022 C 0.59949 0.3777 0.90865 0.0
C1023 C 0.62948 0.39282 0.92544 0.0
C1024 C 0.62751 0.41175 0.9429 0.0
C1025 C 0.51716 0.36586 0.0389 0.0
C1026 C 0.53881 0.38754 0.05778 0.0
C1027 C 0.53305 0.37956 0.01981 0.0
C1028 C 0.57083 0.415 0.01943 0.0
C1029 C 0.59511 0.43473 0.0382 0.0
C1030 C 0.57893 0.42127 0.05729 0.0
C1031 C 0.58042 0.43334 0.00018 0.0
C1032 C 0.58568 0.41848 0.98171 0.0
C1033 C 0.5814 0.46413 -0.0002 0.0
C1034 C 0.57508 0.48041 0.01883 0.0
C1035 C 0.60799 0.51607 0.0274 0.0
C1036 C 0.60379 0.53017 0.04652 0.0
C1037 C 0.5668 0.50884 0.05717 0.0
C1038 C 0.53348 0.47372 0.04845 0.0
C1039 C 0.53735 0.45962 0.02927 0.0
H1040 H 0.5638 0.51959 0.0721 0.0
H1041 H 0.60082 0.36275 0.89524 0.0
H1042 H 0.09194 0.49701 0.21334 0.0
H1043 H 0.08258 0.49558 0.25096 0.0
H1044 H 0.12342 0.60562 0.25615 0.0
H1045 H 0.13176 0.60673 0.21837 0.0
H1046 H 0.13587 0.53217 0.2826 0.0
H1047 H 0.07797 0.62004 0.29406 0.0
H1048 H 1.0343 0.63044 0.27434 0.0
H1049 H 0.96708 0.52377 0.24092 0.0
H1050 H 1.01044 0.51285 0.26031 0.0
H1051 H 0.17672 0.60522 0.38673 0.0
H1052 H 0.16986 0.59551 0.34874 0.0
H1053 H 1.03391 0.52896 0.35041 0.0
H1054 H 1.04066 0.54045 0.38867 0.0
H1055 H 1.05836 0.57077 0.3202 0.0
H1056 H 0.0841 0.49041 0.34006 0.0
H1057 H 0.11949 0.47099 0.35872 0.0
H1058 H 0.23435 0.54544 0.32871 0.0
H1059 H 0.19983 0.5657 0.31008 0.0
C1060 C 0.09876 0.52082 0.22252 0.0
C1061 C 0.11249 0.55196 0.21302 0.0
C1062 C 0.09342 0.51999 0.244 0.0
C1063 C 0.10186 0.55033 0.25639 0.0
C1064 C 0.11585 0.58159 0.24688 0.0
C1065 C 0.12086 0.58231 0.22534 0.0
C1066 C 0.09766 0.5498 0.27935 0.0
C1067 C 0.11879 0.54049 0.2908 0.0
C1068 C 0.07425 0.55948 0.29002 0.0
C1069 C 1.04767 0.56577 0.27854 0.0
C1070 C 1.0538 0.5988 0.28253 0.0
C1071 C 1.02921 0.60484 0.27134 0.0
C1072 C 0.99813 0.57789 0.25626 0.0
C1073 C 0.99145 0.54479 0.25241 0.0
C1074 C 1.01609 0.5387 0.26346 0.0
C1075 C 0.1453 0.58892 0.37909 0.0
C1076 C 0.10924 0.57377 0.39083 0.0
C1077 C 0.14141 0.58297 0.35731 0.0
C1078 C 0.10134 0.56103 0.34669 0.0
C1079 C 0.06517 0.54588 0.35827 0.0
C1080 C 0.06906 0.55216 0.38016 0.0
C1081 C 0.09771 0.55423 0.32348 0.0
C1082 C 0.07515 0.56217 0.31199 0.0
C1083 C 0.11849 0.54193 0.31267 0.0
C1084 C 0.13943 0.52976 0.32378 0.0
C1085 C 0.11699 0.50282 0.33754 0.0
C1086 C 0.13689 0.49164 0.3481 0.0
C1087 C 0.17917 0.50702 0.34493 0.0
C1088 C 0.20161 0.53356 0.33116 0.0
C1089 C 0.18187 0.54488 0.32057 0.0
H1090 H 0.19452 0.49832 0.35312 0.0
H1091 H 0.97913 0.5826 0.2476 0.0
loop_
_geom_bond_atom_site_label_1
_geom_bond_atom_site_label_2
_geom_bond_distance
_geom_bond_site_symmetry_2
_ccdc_geom_bond_type
Ho0 C3 2.811 . S
Ho0 O20 2.322 . S
Ho0 O22 2.378 . S
Ho0 O23 2.524 . S
Ho0 O24 2.381 . S
Ho0 O25 2.669 . S
Ho0 O27 2.346 . S
Ho0 O31 2.305 . S
Ho1 C12 2.811 1_455 S
Ho1 O21 2.346 . S
Ho1 O25 2.305 . S
Ho1 O26 2.322 1_455 S
Ho1 O28 2.378 1_455 S
Ho1 O29 2.524 1_455 S
Ho1 O30 2.381 . S
Ho1 O31 2.669 . S
C2 O20 1.259 . S
C2 O21 1.268 . S
C3 Ho0 2.811 . S
C3 C4 1.488 . S
C3 O22 1.215 . S
C3 O23 1.289 . S
C4 C3 1.488 . S
C4 C5 1.348 . S
C4 C9 1.413 . S
C5 C4 1.348 . S
C5 C6 1.442 . S
C5 H32 0.930 . S
C6 C5 1.442 . S
C6 C7 1.381 . S
C6 H33 0.931 . S
C7 C6 1.381 . S
C7 C8 1.321 . S
C8 C7 1.321 . S
C8 C9 1.403 . S
C8 H34 0.934 . S
C9 C4 1.413 . S
C9 C8 1.403 . S
C9 H35 0.930 . S
C10 O24 1.275 . S
C10 O25 1.256 . S
C11 O26 1.259 . S
C11 O27 1.268 1_655 S
C12 Ho1 2.811 1_655 S
C12 C13 1.488 . S
C12 O28 1.215 . S
C12 O29 1.289 . S
C13 C12 1.488 . S
C13 C14 1.348 . S
C13 C18 1.413 . S
C14 C13 1.348 . S
C14 C15 1.442 . S
C14 H36 0.930 . S
C15 C14 1.442 . S
C15 C16 1.381 . S
C15 H37 0.931 . S
C16 C15 1.381 . S
C16 C17 1.321 . S
C17 C16 1.321 . S
C17 C18 1.403 . S
C17 H38 0.934 . S
C18 C13 1.413 . S
C18 C17 1.403 . S
C18 H39 0.930 . S
C19 O30 1.275 . S
C19 O31 1.256 . S
O20 Ho0 2.322 . S
O20 C2 1.259 . S
O21 Ho1 2.346 . S
O21 C2 1.268 . S
O22 Ho0 2.378 . S
O22 C3 1.215 . S
O23 Ho0 2.524 . S
O23 C3 1.289 . S
O24 Ho0 2.381 . S
O24 C10 1.275 . S
O25 Ho0 2.669 . S
O25 Ho1 2.305 . S
O25 C10 1.256 . S
O26 Ho1 2.322 1_655 S
O26 C11 1.259 . S
O27 Ho0 2.346 . S
O27 C11 1.268 1_455 S
O28 Ho1 2.378 1_655 S
O28 C12 1.215 . S
O29 Ho1 2.524 1_655 S
O29 C12 1.289 . S
O30 Ho1 2.381 . S
O30 C19 1.275 . S
O31 Ho0 2.305 . S
O31 Ho1 2.669 . S
O31 C19 1.256 . S
H32 C5 0.930 . S
H33 C6 0.931 . S
H34 C8 0.934 . S
H35 C9 0.930 . S
H36 C14 0.930 . S
H37 C15 0.931 . S
H38 C17 0.934 . S
H39 C18 0.930 . S
Ho40 C43 2.811 1_545 S
Ho40 O60 2.322 1_545 S
Ho40 O62 2.378 1_545 S
Ho40 O63 2.524 1_545 S
Ho40 O64 2.381 . S
Ho40 O65 2.669 . S
Ho40 O67 2.346 . S
Ho40 O71 2.305 . S
Ho41 C52 2.811 . S
Ho41 O61 2.346 1_545 S
Ho41 O65 2.305 . S
Ho41 O66 2.322 . S
Ho41 O68 2.378 . S
Ho41 O69 2.524 . S
Ho41 O70 2.381 . S
Ho41 O71 2.669 . S
C42 O60 1.259 . S
C42 O61 1.268 . S
C43 Ho40 2.811 1_565 S
C43 C44 1.488 . S
C43 O62 1.215 . S
C43 O63 1.289 . S
C44 C43 1.488 . S
C44 C45 1.348 . S
C44 C49 1.413 . S
C45 C44 1.348 . S
C45 C46 1.442 . S
C45 H72 0.930 . S
C46 C45 1.442 . S
C46 C47 1.381 . S
C46 H73 0.931 . S
C47 C46 1.381 . S
C47 C48 1.321 . S
C48 C47 1.321 . S
C48 C49 1.403 . S
C48 H74 0.934 . S
C49 C44 1.413 . S
C49 C48 1.403 . S
C49 H75 0.930 . S
C50 O64 1.275 . S
C50 O65 1.256 . S
C51 O66 1.259 . S
C51 O67 1.268 . S
C52 Ho41 2.811 . S
C52 C53 1.488 . S
C52 O68 1.215 . S
C52 O69 1.289 . S
C53 C52 1.488 . S
C53 C54 1.348 . S
C53 C58 1.413 . S
C54 C53 1.348 . S
C54 C55 1.442 . S
C54 H76 0.930 . S
C55 C54 1.442 . S
C55 C56 1.381 . S
C55 H77 0.931 . S
C56 C55 1.381 . S
C56 C57 1.321 . S
C57 C56 1.321 . S
C57 C58 1.403 . S
C57 H78 0.934 . S
C58 C53 1.413 . S
C58 C57 1.403 . S
C58 H79 0.930 . S
C59 O70 1.275 . S
C59 O71 1.256 . S
O60 Ho40 2.322 1_565 S
O60 C42 1.259 . S
O61 Ho41 2.346 1_565 S
O61 C42 1.268 . S
O62 Ho40 2.378 1_565 S
O62 C43 1.215 . S
O63 Ho40 2.524 1_565 S
O63 C43 1.289 . S
O64 Ho40 2.381 . S
O64 C50 1.275 . S
O65 Ho40 2.669 . S
O65 Ho41 2.305 . S
O65 C50 1.256 . S
O66 Ho41 2.322 . S
O66 C51 1.259 . S
O67 Ho40 2.346 . S
O67 C51 1.268 . S
O68 Ho41 2.378 . S
O68 C52 1.215 . S
O69 Ho41 2.524 . S
O69 C52 1.289 . S
O70 Ho41 2.381 . S
O70 C59 1.275 . S
O71 Ho40 2.305 . S
O71 Ho41 2.669 . S
O71 C59 1.256 . S
H72 C45 0.930 . S
H73 C46 0.931 . S
H74 C48 0.934 . S
H75 C49 0.930 . S
H76 C54 0.930 . S
H77 C55 0.931 . S
H78 C57 0.934 . S
H79 C58 0.930 . S
Ho80 C83 2.811 . S
Ho80 O100 2.322 . S
Ho80 O102 2.378 . S
Ho80 O103 2.524 . S
Ho80 O104 2.381 . S
Ho80 O105 2.669 . S
Ho80 O107 2.346 . S
Ho80 O111 2.305 . S
Ho81 C92 2.811 . S
Ho81 O101 2.346 . S
Ho81 O105 2.305 . S
Ho81 O106 2.322 . S
Ho81 O108 2.378 . S
Ho81 O109 2.524 . S
Ho81 O110 2.381 . S
Ho81 O111 2.669 . S
C82 O100 1.259 . S
C82 O101 1.268 . S
C83 Ho80 2.811 . S
C83 C84 1.488 . S
C83 O102 1.215 . S
C83 O103 1.289 . S
C84 C83 1.488 . S
C84 C85 1.348 . S
C84 C89 1.413 . S
C85 C84 1.348 . S
C85 C86 1.442 . S
C85 H112 0.930 . S
C86 C85 1.442 . S
C86 C87 1.381 . S
C86 H113 0.931 . S
C87 C86 1.381 . S
C87 C88 1.321 . S
C88 C87 1.321 . S
C88 C89 1.403 . S
C88 H114 0.934 . S
C89 C84 1.413 . S
C89 C88 1.403 . S
C89 H115 0.930 . S
C90 O104 1.275 . S
C90 O105 1.256 . S
C91 O106 1.259 . S
C91 O107 1.268 . S
C92 Ho81 2.811 . S
C92 C93 1.488 . S
C92 O108 1.215 . S
C92 O109 1.289 . S
C93 C92 1.488 . S
C93 C94 1.348 . S
C93 C98 1.413 . S
C94 C93 1.348 . S
C94 C95 1.442 . S
C94 H116 0.930 . S
C95 C94 1.442 . S
C95 C96 1.381 . S
C95 H117 0.931 . S
C96 C95 1.381 . S
C96 C97 1.321 . S
C97 C96 1.321 . S
C97 C98 1.403 . S
C97 H118 0.934 . S
C98 C93 1.413 . S
C98 C97 1.403 . S
C98 H119 0.930 . S
C99 O110 1.275 . S
C99 O111 1.256 . S
O100 Ho80 2.322 . S
O100 C82 1.259 . S
O101 Ho81 2.346 . S
O101 C82 1.268 . S
O102 Ho80 2.378 . S
O102 C83 1.215 . S
O103 Ho80 2.524 . S
O103 C83 1.289 . S
O104 Ho80 2.381 . S
O104 C90 1.275 . S
O105 Ho80 2.669 . S
O105 Ho81 2.305 . S
O105 C90 1.256 . S
O106 Ho81 2.322 . S
O106 C91 1.259 . S
O107 Ho80 2.346 . S
O107 C91 1.268 . S
O108 Ho81 2.378 . S
O108 C92 1.215 . S
O109 Ho81 2.524 . S
O109 C92 1.289 . S
O110 Ho81 2.381 . S
O110 C99 1.275 . S
O111 Ho80 2.305 . S
O111 Ho81 2.669 . S
O111 C99 1.256 . S
H112 C85 0.930 . S
H113 C86 0.931 . S
H114 C88 0.934 . S
H115 C89 0.930 . S
H116 C94 0.930 . S
H117 C95 0.931 . S
H118 C97 0.934 . S
H119 C98 0.930 . S
H120 C125 0.930 . S
H121 C128 0.930 . S
H122 C130 0.930 1_565 S
H123 C124 1.016 . S
C124 H123 1.016 . S
C124 N131 1.286 . S
C125 H120 0.930 . S
C125 C126 1.397 . S
C125 C127 1.361 . S
C126 C125 1.397 . S
C126 C130 1.390 . S
C127 C125 1.361 . S
C127 C128 1.393 . S
C127 N131 1.413 . S
C128 H121 0.930 . S
C128 C127 1.393 . S
C128 C129 1.399 . S
C129 C128 1.399 . S
C129 C130 1.381 . S
C130 H122 0.930 1_545 S
C130 C126 1.390 . S
C130 C129 1.381 . S
N131 C124 1.286 . S
N131 C127 1.413 . S
H132 C137 0.930 . S
H133 C140 0.930 . S
H134 C142 0.930 . S
H135 C136 1.016 . S
C136 H135 1.016 . S
C136 N143 1.286 . S
C137 H132 0.930 . S
C137 C138 1.397 . S
C137 C139 1.361 . S
C138 C137 1.397 . S
C138 C142 1.390 . S
C139 C137 1.361 . S
C139 C140 1.393 . S
C139 N143 1.413 . S
C140 H133 0.930 . S
C140 C139 1.393 . S
C140 C141 1.399 . S
C141 C140 1.399 . S
C141 C142 1.381 . S
C142 H134 0.930 . S
C142 C138 1.390 . S
C142 C141 1.381 . S
N143 C136 1.286 . S
N143 C139 1.413 . S
H144 C149 0.930 . S
H145 C152 0.930 . S
H146 C154 0.930 . S
H147 C148 1.016 . S
C148 H147 1.016 . S
C148 N155 1.286 . S
C149 H144 0.930 . S
C149 C150 1.397 . S
C149 C151 1.361 . S
C150 C149 1.397 . S
C150 C154 1.390 . S
C151 C149 1.361 . S
C151 C152 1.393 . S
C151 N155 1.413 . S
C152 H145 0.930 . S
C152 C151 1.393 . S
C152 C153 1.399 . S
C153 C152 1.399 . S
C153 C154 1.381 . S
C154 H146 0.930 . S
C154 C150 1.390 . S
C154 C153 1.381 . S
N155 C148 1.286 . S
N155 C151 1.413 . S
H156 C161 0.930 . S
H157 C164 0.930 . S
H158 C166 0.930 . S
H159 C160 1.016 . S
C160 H159 1.016 . S
C160 N167 1.286 . S
C161 H156 0.930 . S
C161 C162 1.397 . S
C161 C163 1.361 1_455 S
C162 C161 1.397 . S
C162 C166 1.390 . S
C163 C161 1.361 1_655 S
C163 C164 1.393 . S
C163 N167 1.413 . S
C164 H157 0.930 . S
C164 C163 1.393 . S
C164 C165 1.399 1_655 S
C165 C164 1.399 1_455 S
C165 C166 1.381 . S
C166 H158 0.930 . S
C166 C162 1.390 . S
C166 C165 1.381 . S
N167 C160 1.286 . S
N167 C163 1.413 . S
H168 C173 0.930 . S
H169 C176 0.930 . S
H170 C178 0.930 . S
H171 C172 1.016 . S
C172 H171 1.016 . S
C172 N179 1.286 . S
C173 H168 0.930 . S
C173 C174 1.397 . S
C173 C175 1.361 . S
C174 C173 1.397 . S
C174 C178 1.390 . S
C175 C173 1.361 . S
C175 C176 1.393 1_545 S
C175 N179 1.413 1_545 S
C176 H169 0.930 . S
C176 C175 1.393 1_565 S
C176 C177 1.399 1_565 S
C177 C176 1.399 1_545 S
C177 C178 1.381 . S
C178 H170 0.930 . S
C178 C174 1.390 . S
C178 C177 1.381 . S
N179 C172 1.286 . S
N179 C175 1.413 1_565 S
H180 C185 0.930 . S
H181 C188 0.930 . S
H182 C190 0.930 . S
H183 C184 1.016 . S
C184 H183 1.016 . S
C184 N191 1.286 . S
C185 H180 0.930 . S
C185 C186 1.397 . S
C185 C187 1.361 . S
C186 C185 1.397 . S
C186 C190 1.390 . S
C187 C185 1.361 . S
C187 C188 1.393 . S
C187 N191 1.413 . S
C188 H181 0.930 . S
C188 C187 1.393 . S
C188 C189 1.399 . S
C189 C188 1.399 . S
C189 C190 1.381 . S
C190 H182 0.930 . S
C190 C186 1.390 . S
C190 C189 1.381 . S
N191 C184 1.286 . S
N191 C187 1.413 . S
H192 C210 0.951 . S
H193 C212 0.951 . S
H194 C214 0.950 . S
H195 C215 0.950 . S
H196 C217 0.950 . S
H197 C220 0.950 . S
H198 C221 0.950 . S
H199 C223 0.950 . S
H200 C224 0.950 . S
H201 C225 0.951 . S
H202 C227 0.951 . S
H203 C229 0.950 . S
H204 C230 0.950 . S
H205 C232 0.950 . S
H206 C235 0.950 . S
H207 C236 0.950 . S
H208 C238 0.950 . S
H209 C239 0.950 . S
C210 H192 0.951 . S
C210 C211 1.366 . S
C210 C212 1.388 . S
C211 C210 1.366 . S
C211 C215 1.385 . S
C212 H193 0.951 . S
C212 C210 1.388 . S
C212 C213 1.366 . S
C213 C212 1.366 . S
C213 C214 1.414 . S
C213 C216 1.499 . S
C214 H194 0.950 . S
C214 C213 1.414 . S
C214 C215 1.374 . S
C215 H195 0.950 . S
C215 C211 1.385 . S
C215 C214 1.374 . S
C216 C213 1.499 . S
C216 C217 1.373 . S
C216 C218 1.389 . S
C217 H196 0.950 . S
C217 C216 1.373 . S
C217 C233 1.377 . S
C218 C216 1.389 . S
C218 C219 1.524 . S
C218 C232 1.377 . S
C219 C218 1.524 . S
C219 C220 1.397 . S
C219 C224 1.363 . S
C220 H197 0.950 . S
C220 C219 1.397 . S
C220 C221 1.334 . S
C221 H198 0.950 . S
C221 C220 1.334 . S
C221 C222 1.287 . S
C222 C221 1.287 . S
C222 C223 1.524 . S
C222 H241 0.913 . S
C223 H199 0.950 . S
C223 C222 1.524 . S
C223 C224 1.415 . S
C224 H200 0.950 . S
C224 C219 1.363 . S
C224 C223 1.415 . S
C225 H201 0.951 . S
C225 C226 1.366 . S
C225 C227 1.388 . S
C226 C225 1.366 . S
C226 C230 1.385 . S
C227 H202 0.951 . S
C227 C225 1.388 . S
C227 C228 1.366 . S
C228 C227 1.366 . S
C228 C229 1.414 . S
C228 C231 1.499 . S
C229 H203 0.950 . S
C229 C228 1.414 . S
C229 C230 1.374 . S
C230 H204 0.950 . S
C230 C226 1.385 . S
C230 C229 1.374 . S
C231 C228 1.499 . S
C231 C232 1.373 . S
C231 C233 1.389 . S
C232 H205 0.950 . S
C232 C218 1.377 . S
C232 C231 1.373 . S
C233 C217 1.377 . S
C233 C231 1.389 . S
C233 C234 1.524 . S
C234 C233 1.524 . S
C234 C235 1.397 . S
C234 C239 1.363 . S
C235 H206 0.950 . S
C235 C234 1.397 . S
C235 C236 1.334 . S
C236 H207 0.950 . S
C236 C235 1.334 . S
C236 C237 1.287 . S
C237 C236 1.287 . S
C237 C238 1.524 . S
C237 H240 0.999 . S
C238 H208 0.950 . S
C238 C237 1.524 . S
C238 C239 1.415 . S
C239 H209 0.950 . S
C239 C234 1.363 . S
C239 C238 1.415 . S
H240 C237 0.999 . S
H241 C222 0.913 . S
H242 C260 0.951 . S
H243 C262 0.951 . S
H244 C264 0.950 . S
H245 C265 0.950 . S
H246 C267 0.950 . S
H247 C270 0.950 . S
H248 C271 0.950 . S
H249 C273 0.950 . S
H250 C274 0.950 . S
H251 C275 0.951 . S
H252 C277 0.951 . S
H253 C279 0.950 . S
H254 C280 0.950 . S
H255 C282 0.950 . S
H256 C285 0.950 . S
H257 C286 0.950 . S
H258 C288 0.950 . S
H259 C289 0.950 . S
C260 H242 0.951 . S
C260 C261 1.366 . S
C260 C262 1.388 . S
C261 C260 1.366 . S
C261 C265 1.385 . S
C262 H243 0.951 . S
C262 C260 1.388 . S
C262 C263 1.366 . S
C263 C262 1.366 . S
C263 C264 1.414 . S
C263 C266 1.499 . S
C264 H244 0.950 . S
C264 C263 1.414 . S
C264 C265 1.374 . S
C265 H245 0.950 . S
C265 C261 1.385 . S
C265 C264 1.374 . S
C266 C263 1.499 . S
C266 C267 1.373 . S
C266 C268 1.389 . S
C267 H246 0.950 . S
C267 C266 1.373 . S
C267 C283 1.377 . S
C268 C266 1.389 . S
C268 C269 1.524 . S
C268 C282 1.377 . S
C269 C268 1.524 . S
C269 C270 1.397 . S
C269 C274 1.363 . S
C270 H247 0.950 . S
C270 C269 1.397 . S
C270 C271 1.334 . S
C271 H248 0.950 . S
C271 C270 1.334 . S
C271 C272 1.287 . S
C272 C271 1.287 . S
C272 C273 1.524 . S
C272 H291 0.913 . S
C273 H249 0.950 . S
C273 C272 1.524 . S
C273 C274 1.415 . S
C274 H250 0.950 . S
C274 C269 1.363 . S
C274 C273 1.415 . S
C275 H251 0.951 . S
C275 C276 1.366 . S
C275 C277 1.388 . S
C276 C275 1.366 . S
C276 C280 1.385 . S
C277 H252 0.951 . S
C277 C275 1.388 . S
C277 C278 1.366 . S
C278 C277 1.366 . S
C278 C279 1.414 . S
C278 C281 1.499 . S
C279 H253 0.950 . S
C279 C278 1.414 . S
C279 C280 1.374 . S
C280 H254 0.950 . S
C280 C276 1.385 . S
C280 C279 1.374 . S
C281 C278 1.499 . S
C281 C282 1.373 . S
C281 C283 1.389 . S
C282 H255 0.950 . S
C282 C268 1.377 . S
C282 C281 1.373 . S
C283 C267 1.377 . S
C283 C281 1.389 . S
C283 C284 1.524 . S
C284 C283 1.524 . S
C284 C285 1.397 . S
C284 C289 1.363 . S
C285 H256 0.950 . S
C285 C284 1.397 . S
C285 C286 1.334 . S
C286 H257 0.950 . S
C286 C285 1.334 . S
C286 C287 1.287 . S
C287 C286 1.287 . S
C287 C288 1.524 . S
C287 H290 0.999 . S
C288 H258 0.950 . S
C288 C287 1.524 . S
C288 C289 1.415 . S
C289 H259 0.950 . S
C289 C284 1.363 . S
C289 C288 1.415 . S
H290 C287 0.999 . S
H291 C272 0.913 . S
H292 C310 0.951 . S
H293 C312 0.951 . S
H294 C314 0.950 . S
H295 C315 0.950 . S
H296 C317 0.950 . S
H297 C320 0.950 . S
H298 C321 0.950 . S
H299 C323 0.950 . S
H300 C324 0.950 . S
H301 C325 0.951 . S
H302 C327 0.951 . S
H303 C329 0.950 . S
H304 C330 0.950 . S
H305 C332 0.950 . S
H306 C335 0.950 . S
H307 C336 0.950 . S
H308 C338 0.950 . S
H309 C339 0.950 . S
C310 H292 0.951 . S
C310 C311 1.366 . S
C310 C312 1.388 . S
C311 C310 1.366 . S
C311 C315 1.385 . S
C312 H293 0.951 . S
C312 C310 1.388 . S
C312 C313 1.366 . S
C313 C312 1.366 . S
C313 C314 1.414 . S
C313 C316 1.499 . S
C314 H294 0.950 . S
C314 C313 1.414 . S
C314 C315 1.374 . S
C315 H295 0.950 . S
C315 C311 1.385 . S
C315 C314 1.374 . S
C316 C313 1.499 . S
C316 C317 1.373 . S
C316 C318 1.389 . S
C317 H296 0.950 . S
C317 C316 1.373 . S
C317 C333 1.377 . S
C318 C316 1.389 . S
C318 C319 1.524 . S
C318 C332 1.377 . S
C319 C318 1.524 . S
C319 C320 1.397 . S
C319 C324 1.363 . S
C320 H297 0.950 . S
C320 C319 1.397 . S
C320 C321 1.334 . S
C321 H298 0.950 . S
C321 C320 1.334 . S
C321 C322 1.287 . S
C322 C321 1.287 . S
C322 C323 1.524 . S
C322 H341 0.913 . S
C323 H299 0.950 . S
C323 C322 1.524 . S
C323 C324 1.415 . S
C324 H300 0.950 . S
C324 C319 1.363 . S
C324 C323 1.415 . S
C325 H301 0.951 . S
C325 C326 1.366 . S
C325 C327 1.388 . S
C326 C325 1.366 . S
C326 C330 1.385 . S
C327 H302 0.951 . S
C327 C325 1.388 . S
C327 C328 1.366 . S
C328 C327 1.366 . S
C328 C329 1.414 . S
C328 C331 1.499 . S
C329 H303 0.950 . S
C329 C328 1.414 . S
C329 C330 1.374 . S
C330 H304 0.950 . S
C330 C326 1.385 . S
C330 C329 1.374 . S
C331 C328 1.499 . S
C331 C332 1.373 . S
C331 C333 1.389 . S
C332 H305 0.950 . S
C332 C318 1.377 . S
C332 C331 1.373 . S
C333 C317 1.377 . S
C333 C331 1.389 . S
C333 C334 1.524 . S
C334 C333 1.524 . S
C334 C335 1.397 . S
C334 C339 1.363 . S
C335 H306 0.950 . S
C335 C334 1.397 . S
C335 C336 1.334 . S
C336 H307 0.950 . S
C336 C335 1.334 . S
C336 C337 1.287 . S
C337 C336 1.287 . S
C337 C338 1.524 . S
C337 H340 0.999 . S
C338 H308 0.950 . S
C338 C337 1.524 . S
C338 C339 1.415 . S
C339 H309 0.950 . S
C339 C334 1.363 . S
C339 C338 1.415 . S
H340 C337 0.999 . S
H341 C322 0.913 . S
H342 C360 0.951 . S
H343 C362 0.951 . S
H344 C364 0.950 . S
H345 C365 0.950 . S
H346 C367 0.950 . S
H347 C370 0.950 . S
H348 C371 0.950 . S
H349 C373 0.950 . S
H350 C374 0.950 . S
H351 C375 0.951 . S
H352 C377 0.951 . S
H353 C379 0.950 . S
H354 C380 0.950 . S
H355 C382 0.950 . S
H356 C385 0.950 . S
H357 C386 0.950 . S
H358 C388 0.950 . S
H359 C389 0.950 . S
C360 H342 0.951 . S
C360 C361 1.366 . S
C360 C362 1.388 . S
C361 C360 1.366 . S
C361 C365 1.385 . S
C362 H343 0.951 . S
C362 C360 1.388 . S
C362 C363 1.366 . S
C363 C362 1.366 . S
C363 C364 1.414 . S
C363 C366 1.499 . S
C364 H344 0.950 . S
C364 C363 1.414 . S
C364 C365 1.374 . S
C365 H345 0.950 . S
C365 C361 1.385 . S
C365 C364 1.374 . S
C366 C363 1.499 . S
C366 C367 1.373 . S
C366 C368 1.389 . S
C367 H346 0.950 . S
C367 C366 1.373 . S
C367 C383 1.377 . S
C368 C366 1.389 . S
C368 C369 1.524 . S
C368 C382 1.377 . S
C369 C368 1.524 . S
C369 C370 1.397 . S
C369 C374 1.363 . S
C370 H347 0.950 . S
C370 C369 1.397 . S
C370 C371 1.334 . S
C371 H348 0.950 . S
C371 C370 1.334 . S
C371 C372 1.287 . S
C372 C371 1.287 . S
C372 C373 1.524 . S
C372 H391 0.913 . S
C373 H349 0.950 . S
C373 C372 1.524 . S
C373 C374 1.415 . S
C374 H350 0.950 . S
C374 C369 1.363 . S
C374 C373 1.415 . S
C375 H351 0.951 . S
C375 C376 1.366 . S
C375 C377 1.388 . S
C376 C375 1.366 . S
C376 C380 1.385 . S
C377 H352 0.951 . S
C377 C375 1.388 . S
C377 C378 1.366 . S
C378 C377 1.366 . S
C378 C379 1.414 . S
C378 C381 1.499 . S
C379 H353 0.950 . S
C379 C378 1.414 . S
C379 C380 1.374 . S
C380 H354 0.950 . S
C380 C376 1.385 . S
C380 C379 1.374 . S
C381 C378 1.499 . S
C381 C382 1.373 . S
C381 C383 1.389 . S
C382 H355 0.950 . S
C382 C368 1.377 . S
C382 C381 1.373 . S
C383 C367 1.377 . S
C383 C381 1.389 . S
C383 C384 1.524 . S
C384 C383 1.524 . S
C384 C385 1.397 . S
C384 C389 1.363 . S
C385 H356 0.950 . S
C385 C384 1.397 . S
C385 C386 1.334 . S
C386 H357 0.950 . S
C386 C385 1.334 . S
C386 C387 1.287 . S
C387 C386 1.287 . S
C387 C388 1.524 . S
C387 H390 0.999 . S
C388 H358 0.950 . S
C388 C387 1.524 . S
C388 C389 1.415 . S
C389 H359 0.950 . S
C389 C384 1.363 . S
C389 C388 1.415 . S
H390 C387 0.999 . S
H391 C372 0.913 . S
H392 C410 0.951 . S
H393 C412 0.951 . S
H394 C414 0.950 . S
H395 C415 0.950 . S
H396 C417 0.950 . S
H397 C420 0.950 . S
H398 C421 0.950 . S
H399 C423 0.950 . S
H400 C424 0.950 . S
H401 C425 0.951 . S
H402 C427 0.951 . S
H403 C429 0.950 . S
H404 C430 0.950 . S
H405 C432 0.950 . S
H406 C435 0.950 . S
H407 C436 0.950 . S
H408 C438 0.950 . S
H409 C439 0.950 . S
C410 H392 0.951 . S
C410 C411 1.366 . S
C410 C412 1.388 . S
C411 C410 1.366 . S
C411 C415 1.385 . S
C412 H393 0.951 . S
C412 C410 1.388 . S
C412 C413 1.366 . S
C413 C412 1.366 . S
C413 C414 1.414 . S
C413 C416 1.499 . S
C414 H394 0.950 . S
C414 C413 1.414 . S
C414 C415 1.374 . S
C415 H395 0.950 . S
C415 C411 1.385 . S
C415 C414 1.374 . S
C416 C413 1.499 . S
C416 C417 1.373 . S
C416 C418 1.389 . S
C417 H396 0.950 . S
C417 C416 1.373 . S
C417 C433 1.377 . S
C418 C416 1.389 . S
C418 C419 1.524 . S
C418 C432 1.377 . S
C419 C418 1.524 . S
C419 C420 1.397 . S
C419 C424 1.363 . S
C420 H397 0.950 . S
C420 C419 1.397 . S
C420 C421 1.334 . S
C421 H398 0.950 . S
C421 C420 1.334 . S
C421 C422 1.287 . S
C422 C421 1.287 . S
C422 C423 1.524 . S
C422 H441 0.913 . S
C423 H399 0.950 . S
C423 C422 1.524 . S
C423 C424 1.415 . S
C424 H400 0.950 . S
C424 C419 1.363 . S
C424 C423 1.415 . S
C425 H401 0.951 . S
C425 C426 1.366 . S
C425 C427 1.388 . S
C426 C425 1.366 . S
C426 C430 1.385 . S
C427 H402 0.951 . S
C427 C425 1.388 . S
C427 C428 1.366 . S
C428 C427 1.366 . S
C428 C429 1.414 . S
C428 C431 1.499 . S
C429 H403 0.950 . S
C429 C428 1.414 . S
C429 C430 1.374 . S
C430 H404 0.950 . S
C430 C426 1.385 . S
C430 C429 1.374 . S
C431 C428 1.499 . S
C431 C432 1.373 . S
C431 C433 1.389 . S
C432 H405 0.950 . S
C432 C418 1.377 . S
C432 C431 1.373 . S
C433 C417 1.377 . S
C433 C431 1.389 . S
C433 C434 1.524 . S
C434 C433 1.524 . S
C434 C435 1.397 . S
C434 C439 1.363 . S
C435 H406 0.950 . S
C435 C434 1.397 . S
C435 C436 1.334 . S
C436 H407 0.950 . S
C436 C435 1.334 . S
C436 C437 1.287 . S
C437 C436 1.287 . S
C437 C438 1.524 . S
C437 H440 0.999 . S
C438 H408 0.950 . S
C438 C437 1.524 . S
C438 C439 1.415 . S
C439 H409 0.950 . S
C439 C434 1.363 . S
C439 C438 1.415 . S
H440 C437 0.999 . S
H441 C422 0.913 . S
H442 C460 0.951 . S
H443 C462 0.951 . S
H444 C464 0.950 . S
H445 C465 0.950 . S
H446 C467 0.950 . S
H447 C470 0.950 . S
H448 C471 0.950 . S
H449 C473 0.950 . S
H450 C474 0.950 . S
H451 C475 0.951 . S
H452 C477 0.951 . S
H453 C479 0.950 . S
H454 C480 0.950 . S
H455 C482 0.950 . S
H456 C485 0.950 . S
H457 C486 0.950 . S
H458 C488 0.950 . S
H459 C489 0.950 . S
C460 H442 0.951 . S
C460 C461 1.366 . S
C460 C462 1.388 . S
C461 C460 1.366 . S
C461 C465 1.385 . S
C462 H443 0.951 . S
C462 C460 1.388 . S
C462 C463 1.366 . S
C463 C462 1.366 . S
C463 C464 1.414 . S
C463 C466 1.499 . S
C464 H444 0.950 . S
C464 C463 1.414 . S
C464 C465 1.374 . S
C465 H445 0.950 . S
C465 C461 1.385 . S
C465 C464 1.374 . S
C466 C463 1.499 . S
C466 C467 1.373 . S
C466 C468 1.389 . S
C467 H446 0.950 . S
C467 C466 1.373 . S
C467 C483 1.377 . S
C468 C466 1.389 . S
C468 C469 1.524 . S
C468 C482 1.377 . S
C469 C468 1.524 . S
C469 C470 1.397 . S
C469 C474 1.363 . S
C470 H447 0.950 . S
C470 C469 1.397 . S
C470 C471 1.334 . S
C471 H448 0.950 . S
C471 C470 1.334 . S
C471 C472 1.287 . S
C472 C471 1.287 . S
C472 C473 1.524 . S
C472 H491 0.913 . S
C473 H449 0.950 . S
C473 C472 1.524 . S
C473 C474 1.415 . S
C474 H450 0.950 . S
C474 C469 1.363 . S
C474 C473 1.415 . S
C475 H451 0.951 . S
C475 C476 1.366 . S
C475 C477 1.388 . S
C476 C475 1.366 . S
C476 C480 1.385 . S
C477 H452 0.951 . S
C477 C475 1.388 . S
C477 C478 1.366 . S
C478 C477 1.366 . S
C478 C479 1.414 . S
C478 C481 1.499 . S
C479 H453 0.950 . S
C479 C478 1.414 . S
C479 C480 1.374 . S
C480 H454 0.950 . S
C480 C476 1.385 . S
C480 C479 1.374 . S
C481 C478 1.499 . S
C481 C482 1.373 . S
C481 C483 1.389 . S
C482 H455 0.950 . S
C482 C468 1.377 . S
C482 C481 1.373 . S
C483 C467 1.377 . S
C483 C481 1.389 . S
C483 C484 1.524 . S
C484 C483 1.524 . S
C484 C485 1.397 . S
C484 C489 1.363 . S
C485 H456 0.950 . S
C485 C484 1.397 . S
C485 C486 1.334 . S
C486 H457 0.950 . S
C486 C485 1.334 . S
C486 C487 1.287 . S
C487 C486 1.287 . S
C487 C488 1.524 . S
C487 H490 0.999 . S
C488 H458 0.950 . S
C488 C487 1.524 . S
C488 C489 1.415 . S
C489 H459 0.950 . S
C489 C484 1.363 . S
C489 C488 1.415 . S
H490 C487 0.999 . S
H491 C472 0.913 . S
H492 C510 0.951 . S
H493 C512 0.951 . S
H494 C514 0.950 . S
H495 C515 0.950 . S
H496 C517 0.950 . S
H497 C520 0.950 . S
H498 C521 0.950 . S
H499 C523 0.950 . S
H500 C524 0.950 . S
H501 C525 0.951 . S
H502 C527 0.951 . S
H503 C529 0.950 . S
H504 C530 0.950 . S
H505 C532 0.950 . S
H506 C535 0.950 . S
H507 C536 0.950 . S
H508 C538 0.950 . S
H509 C539 0.950 . S
C510 H492 0.951 . S
C510 C511 1.366 . S
C510 C512 1.388 . S
C511 C510 1.366 . S
C511 C515 1.385 . S
C512 H493 0.951 . S
C512 C510 1.388 . S
C512 C513 1.366 . S
C513 C512 1.366 . S
C513 C514 1.414 . S
C513 C516 1.499 . S
C514 H494 0.950 . S
C514 C513 1.414 . S
C514 C515 1.374 . S
C515 H495 0.950 . S
C515 C511 1.385 . S
C515 C514 1.374 . S
C516 C513 1.499 . S
C516 C517 1.373 . S
C516 C518 1.389 . S
C517 H496 0.950 . S
C517 C516 1.373 . S
C517 C533 1.377 . S
C518 C516 1.389 . S
C518 C519 1.524 . S
C518 C532 1.377 . S
C519 C518 1.524 . S
C519 C520 1.397 . S
C519 C524 1.363 . S
C520 H497 0.950 . S
C520 C519 1.397 . S
C520 C521 1.334 . S
C521 H498 0.950 . S
C521 C520 1.334 . S
C521 C522 1.287 . S
C522 C521 1.287 . S
C522 C523 1.524 . S
C522 H541 0.913 . S
C523 H499 0.950 . S
C523 C522 1.524 . S
C523 C524 1.415 . S
C524 H500 0.950 . S
C524 C519 1.363 . S
C524 C523 1.415 . S
C525 H501 0.951 . S
C525 C526 1.366 . S
C525 C527 1.388 . S
C526 C525 1.366 . S
C526 C530 1.385 . S
C527 H502 0.951 . S
C527 C525 1.388 . S
C527 C528 1.366 . S
C528 C527 1.366 . S
C528 C529 1.414 . S
C528 C531 1.499 . S
C529 H503 0.950 . S
C529 C528 1.414 . S
C529 C530 1.374 . S
C530 H504 0.950 . S
C530 C526 1.385 . S
C530 C529 1.374 . S
C531 C528 1.499 . S
C531 C532 1.373 . S
C531 C533 1.389 . S
C532 H505 0.950 . S
C532 C518 1.377 . S
C532 C531 1.373 . S
C533 C517 1.377 . S
C533 C531 1.389 . S
C533 C534 1.524 . S
C534 C533 1.524 . S
C534 C535 1.397 . S
C534 C539 1.363 . S
C535 H506 0.950 . S
C535 C534 1.397 . S
C535 C536 1.334 . S
C536 H507 0.950 . S
C536 C535 1.334 . S
C536 C537 1.287 . S
C537 C536 1.287 . S
C537 C538 1.524 . S
C537 H540 0.999 . S
C538 H508 0.950 . S
C538 C537 1.524 . S
C538 C539 1.415 . S
C539 H509 0.950 . S
C539 C534 1.363 . S
C539 C538 1.415 . S
H540 C537 0.999 . S
H541 C522 0.913 . S
H542 C560 0.951 . S
H543 C562 0.951 . S
H544 C564 0.950 . S
H545 C565 0.950 . S
H546 C567 0.950 . S
H547 C570 0.950 . S
H548 C571 0.950 . S
H549 C573 0.950 . S
H550 C574 0.950 . S
H551 C575 0.951 . S
H552 C577 0.951 . S
H553 C579 0.950 . S
H554 C580 0.950 . S
H555 C582 0.950 . S
H556 C585 0.950 . S
H557 C586 0.950 . S
H558 C588 0.950 . S
H559 C589 0.950 . S
C560 H542 0.951 . S
C560 C561 1.366 . S
C560 C562 1.388 . S
C561 C560 1.366 . S
C561 C565 1.385 . S
C562 H543 0.951 . S
C562 C560 1.388 . S
C562 C563 1.366 . S
C563 C562 1.366 . S
C563 C564 1.414 . S
C563 C566 1.499 . S
C564 H544 0.950 . S
C564 C563 1.414 . S
C564 C565 1.374 . S
C565 H545 0.950 . S
C565 C561 1.385 . S
C565 C564 1.374 . S
C566 C563 1.499 . S
C566 C567 1.373 . S
C566 C568 1.389 . S
C567 H546 0.950 . S
C567 C566 1.373 . S
C567 C583 1.377 . S
C568 C566 1.389 . S
C568 C569 1.524 . S
C568 C582 1.377 . S
C569 C568 1.524 . S
C569 C570 1.397 . S
C569 C574 1.363 . S
C570 H547 0.950 . S
C570 C569 1.397 . S
C570 C571 1.334 . S
C571 H548 0.950 . S
C571 C570 1.334 . S
C571 C572 1.287 . S
C572 C571 1.287 . S
C572 C573 1.524 . S
C572 H591 0.913 . S
C573 H549 0.950 . S
C573 C572 1.524 . S
C573 C574 1.415 . S
C574 H550 0.950 . S
C574 C569 1.363 . S
C574 C573 1.415 . S
C575 H551 0.951 . S
C575 C576 1.366 . S
C575 C577 1.388 . S
C576 C575 1.366 . S
C576 C580 1.385 . S
C577 H552 0.951 . S
C577 C575 1.388 . S
C577 C578 1.366 . S
C578 C577 1.366 . S
C578 C579 1.414 . S
C578 C581 1.499 . S
C579 H553 0.950 . S
C579 C578 1.414 . S
C579 C580 1.374 . S
C580 H554 0.950 . S
C580 C576 1.385 . S
C580 C579 1.374 . S
C581 C578 1.499 . S
C581 C582 1.373 . S
C581 C583 1.389 . S
C582 H555 0.950 . S
C582 C568 1.377 . S
C582 C581 1.373 . S
C583 C567 1.377 . S
C583 C581 1.389 . S
C583 C584 1.524 . S
C584 C583 1.524 . S
C584 C585 1.397 . S
C584 C589 1.363 . S
C585 H556 0.950 . S
C585 C584 1.397 . S
C585 C586 1.334 . S
C586 H557 0.950 . S
C586 C585 1.334 . S
C586 C587 1.287 . S
C587 C586 1.287 . S
C587 C588 1.524 . S
C587 H590 0.999 . S
C588 H558 0.950 . S
C588 C587 1.524 . S
C588 C589 1.415 . S
C589 H559 0.950 . S
C589 C584 1.363 . S
C589 C588 1.415 . S
H590 C587 0.999 . S
H591 C572 0.913 . S
H592 C610 0.951 . S
H593 C612 0.951 . S
H594 C614 0.950 . S
H595 C615 0.950 . S
H596 C617 0.950 . S
H597 C620 0.950 . S
H598 C621 0.950 . S
H599 C623 0.950 . S
H600 C624 0.950 . S
H601 C625 0.951 . S
H602 C627 0.951 . S
H603 C629 0.950 . S
H604 C630 0.950 . S
H605 C632 0.950 . S
H606 C635 0.950 . S
H607 C636 0.950 . S
H608 C638 0.950 . S
H609 C639 0.950 . S
C610 H592 0.951 . S
C610 C611 1.366 . S
C610 C612 1.388 . S
C611 C610 1.366 . S
C611 C615 1.385 . S
C612 H593 0.951 . S
C612 C610 1.388 . S
C612 C613 1.366 . S
C613 C612 1.366 . S
C613 C614 1.414 . S
C613 C616 1.499 . S
C614 H594 0.950 . S
C614 C613 1.414 . S
C614 C615 1.374 . S
C615 H595 0.950 . S
C615 C611 1.385 . S
C615 C614 1.374 . S
C616 C613 1.499 . S
C616 C617 1.373 . S
C616 C618 1.389 . S
C617 H596 0.950 . S
C617 C616 1.373 . S
C617 C633 1.377 . S
C618 C616 1.389 . S
C618 C619 1.524 . S
C618 C632 1.377 . S
C619 C618 1.524 . S
C619 C620 1.397 . S
C619 C624 1.363 . S
C620 H597 0.950 . S
C620 C619 1.397 . S
C620 C621 1.334 . S
C621 H598 0.950 . S
C621 C620 1.334 . S
C621 C622 1.287 . S
C622 C621 1.287 . S
C622 C623 1.524 . S
C622 H641 0.913 . S
C623 H599 0.950 . S
C623 C622 1.524 . S
C623 C624 1.415 . S
C624 H600 0.950 . S
C624 C619 1.363 . S
C624 C623 1.415 . S
C625 H601 0.951 . S
C625 C626 1.366 . S
C625 C627 1.388 . S
C626 C625 1.366 . S
C626 C630 1.385 . S
C627 H602 0.951 . S
C627 C625 1.388 . S
C627 C628 1.366 . S
C628 C627 1.366 . S
C628 C629 1.414 . S
C628 C631 1.499 . S
C629 H603 0.950 . S
C629 C628 1.414 . S
C629 C630 1.374 . S
C630 H604 0.950 . S
C630 C626 1.385 . S
C630 C629 1.374 . S
C631 C628 1.499 . S
C631 C632 1.373 . S
C631 C633 1.389 . S
C632 H605 0.950 . S
C632 C618 1.377 . S
C632 C631 1.373 . S
C633 C617 1.377 . S
C633 C631 1.389 . S
C633 C634 1.524 . S
C634 C633 1.524 . S
C634 C635 1.397 . S
C634 C639 1.363 . S
C635 H606 0.950 . S
C635 C634 1.397 . S
C635 C636 1.334 . S
C636 H607 0.950 . S
C636 C635 1.334 . S
C636 C637 1.287 . S
C637 C636 1.287 . S
C637 C638 1.524 . S
C637 H640 0.999 . S
C638 H608 0.950 . S
C638 C637 1.524 . S
C638 C639 1.415 . S
C639 H609 0.950 . S
C639 C634 1.363 . S
C639 C638 1.415 . S
H640 C637 0.999 . S
H641 C622 0.913 . S
H642 C660 0.951 . S
H643 C662 0.951 . S
H644 C664 0.950 . S
H645 C665 0.950 . S
H646 C667 0.950 . S
H647 C670 0.950 . S
H648 C671 0.950 . S
H649 C673 0.950 . S
H650 C674 0.950 . S
H651 C675 0.951 . S
H652 C677 0.951 . S
H653 C679 0.950 . S
H654 C680 0.950 . S
H655 C682 0.950 . S
H656 C685 0.950 . S
H657 C686 0.950 . S
H658 C688 0.950 . S
H659 C689 0.950 . S
C660 H642 0.951 . S
C660 C661 1.366 . S
C660 C662 1.388 . S
C661 C660 1.366 . S
C661 C665 1.385 . S
C662 H643 0.951 . S
C662 C660 1.388 . S
C662 C663 1.366 . S
C663 C662 1.366 . S
C663 C664 1.414 . S
C663 C666 1.499 . S
C664 H644 0.950 . S
C664 C663 1.414 . S
C664 C665 1.374 . S
C665 H645 0.950 . S
C665 C661 1.385 . S
C665 C664 1.374 . S
C666 C663 1.499 . S
C666 C667 1.373 . S
C666 C668 1.389 . S
C667 H646 0.950 . S
C667 C666 1.373 . S
C667 C683 1.377 . S
C668 C666 1.389 . S
C668 C669 1.524 . S
C668 C682 1.377 . S
C669 C668 1.524 . S
C669 C670 1.397 . S
C669 C674 1.363 . S
C670 H647 0.950 . S
C670 C669 1.397 . S
C670 C671 1.334 . S
C671 H648 0.950 . S
C671 C670 1.334 . S
C671 C672 1.287 . S
C672 C671 1.287 . S
C672 C673 1.524 . S
C672 H691 0.913 . S
C673 H649 0.950 . S
C673 C672 1.524 . S
C673 C674 1.415 . S
C674 H650 0.950 . S
C674 C669 1.363 . S
C674 C673 1.415 . S
C675 H651 0.951 . S
C675 C676 1.366 . S
C675 C677 1.388 . S
C676 C675 1.366 . S
C676 C680 1.385 . S
C677 H652 0.951 . S
C677 C675 1.388 . S
C677 C678 1.366 . S
C678 C677 1.366 . S
C678 C679 1.414 . S
C678 C681 1.499 . S
C679 H653 0.950 . S
C679 C678 1.414 . S
C679 C680 1.374 . S
C680 H654 0.950 . S
C680 C676 1.385 . S
C680 C679 1.374 . S
C681 C678 1.499 . S
C681 C682 1.373 . S
C681 C683 1.389 . S
C682 H655 0.950 . S
C682 C668 1.377 . S
C682 C681 1.373 . S
C683 C667 1.377 . S
C683 C681 1.389 . S
C683 C684 1.524 . S
C684 C683 1.524 . S
C684 C685 1.397 . S
C684 C689 1.363 . S
C685 H656 0.950 . S
C685 C684 1.397 . S
C685 C686 1.334 . S
C686 H657 0.950 . S
C686 C685 1.334 . S
C686 C687 1.287 . S
C687 C686 1.287 . S
C687 C688 1.524 . S
C687 H690 0.999 . S
C688 H658 0.950 . S
C688 C687 1.524 . S
C688 C689 1.415 . S
C689 H659 0.950 . S
C689 C684 1.363 . S
C689 C688 1.415 . S
H690 C687 0.999 . S
H691 C672 0.913 . S
H692 C710 0.951 . S
H693 C712 0.951 . S
H694 C714 0.950 . S
H695 C715 0.950 . S
H696 C717 0.950 . S
H697 C720 0.950 . S
H698 C721 0.950 . S
H699 C723 0.950 . S
H700 C724 0.950 . S
H701 C725 0.951 . S
H702 C727 0.951 . S
H703 C729 0.950 . S
H704 C730 0.950 . S
H705 C732 0.950 . S
H706 C735 0.950 . S
H707 C736 0.950 . S
H708 C738 0.950 . S
H709 C739 0.950 . S
C710 H692 0.951 . S
C710 C711 1.366 . S
C710 C712 1.388 . S
C711 C710 1.366 . S
C711 C715 1.385 . S
C712 H693 0.951 . S
C712 C710 1.388 . S
C712 C713 1.366 . S
C713 C712 1.366 . S
C713 C714 1.414 . S
C713 C716 1.499 . S
C714 H694 0.950 . S
C714 C713 1.414 . S
C714 C715 1.374 . S
C715 H695 0.950 . S
C715 C711 1.385 . S
C715 C714 1.374 . S
C716 C713 1.499 . S
C716 C717 1.373 . S
C716 C718 1.389 . S
C717 H696 0.950 . S
C717 C716 1.373 . S
C717 C733 1.377 . S
C718 C716 1.389 . S
C718 C719 1.524 . S
C718 C732 1.377 . S
C719 C718 1.524 . S
C719 C720 1.397 . S
C719 C724 1.363 . S
C720 H697 0.950 . S
C720 C719 1.397 . S
C720 C721 1.334 . S
C721 H698 0.950 . S
C721 C720 1.334 . S
C721 C722 1.287 . S
C722 C721 1.287 . S
C722 C723 1.524 . S
C722 H741 0.913 . S
C723 H699 0.950 . S
C723 C722 1.524 . S
C723 C724 1.415 . S
C724 H700 0.950 . S
C724 C719 1.363 . S
C724 C723 1.415 . S
C725 H701 0.951 . S
C725 C726 1.366 . S
C725 C727 1.388 . S
C726 C725 1.366 . S
C726 C730 1.385 . S
C727 H702 0.951 . S
C727 C725 1.388 . S
C727 C728 1.366 . S
C728 C727 1.366 . S
C728 C729 1.414 . S
C728 C731 1.499 . S
C729 H703 0.950 . S
C729 C728 1.414 . S
C729 C730 1.374 . S
C730 H704 0.950 . S
C730 C726 1.385 . S
C730 C729 1.374 . S
C731 C728 1.499 . S
C731 C732 1.373 . S
C731 C733 1.389 . S
C732 H705 0.950 . S
C732 C718 1.377 . S
C732 C731 1.373 . S
C733 C717 1.377 . S
C733 C731 1.389 . S
C733 C734 1.524 . S
C734 C733 1.524 . S
C734 C735 1.397 . S
C734 C739 1.363 . S
C735 H706 0.950 . S
C735 C734 1.397 . S
C735 C736 1.334 . S
C736 H707 0.950 . S
C736 C735 1.334 . S
C736 C737 1.287 . S
C737 C736 1.287 . S
C737 C738 1.524 . S
C737 H740 0.999 . S
C738 H708 0.950 . S
C738 C737 1.524 . S
C738 C739 1.415 . S
C739 H709 0.950 . S
C739 C734 1.363 . S
C739 C738 1.415 . S
H740 C737 0.999 . S
H741 C722 0.913 . S
H742 C760 0.951 . S
H743 C762 0.951 . S
H744 C764 0.950 . S
H745 C765 0.950 . S
H746 C767 0.950 . S
H747 C770 0.950 . S
H748 C771 0.950 . S
H749 C773 0.950 . S
H750 C774 0.950 . S
H751 C775 0.951 . S
H752 C777 0.951 . S
H753 C779 0.950 . S
H754 C780 0.950 . S
H755 C782 0.950 . S
H756 C785 0.950 . S
H757 C786 0.950 . S
H758 C788 0.950 . S
H759 C789 0.950 . S
C760 H742 0.951 . S
C760 C761 1.366 . S
C760 C762 1.388 . S
C761 C760 1.366 . S
C761 C765 1.385 . S
C762 H743 0.951 . S
C762 C760 1.388 . S
C762 C763 1.366 . S
C763 C762 1.366 . S
C763 C764 1.414 . S
C763 C766 1.499 . S
C764 H744 0.950 . S
C764 C763 1.414 . S
C764 C765 1.374 . S
C765 H745 0.950 . S
C765 C761 1.385 . S
C765 C764 1.374 . S
C766 C763 1.499 . S
C766 C767 1.373 . S
C766 C768 1.389 . S
C767 H746 0.950 . S
C767 C766 1.373 . S
C767 C783 1.377 . S
C768 C766 1.389 . S
C768 C769 1.524 . S
C768 C782 1.377 . S
C769 C768 1.524 . S
C769 C770 1.397 . S
C769 C774 1.363 . S
C770 H747 0.950 . S
C770 C769 1.397 . S
C770 C771 1.334 . S
C771 H748 0.950 . S
C771 C770 1.334 . S
C771 C772 1.287 . S
C772 C771 1.287 . S
C772 C773 1.524 . S
C772 H791 0.913 . S
C773 H749 0.950 . S
C773 C772 1.524 . S
C773 C774 1.415 . S
C774 H750 0.950 . S
C774 C769 1.363 . S
C774 C773 1.415 . S
C775 H751 0.951 . S
C775 C776 1.366 . S
C775 C777 1.388 . S
C776 C775 1.366 . S
C776 C780 1.385 . S
C777 H752 0.951 . S
C777 C775 1.388 . S
C777 C778 1.366 . S
C778 C777 1.366 . S
C778 C779 1.414 . S
C778 C781 1.499 . S
C779 H753 0.950 . S
C779 C778 1.414 . S
C779 C780 1.374 . S
C780 H754 0.950 . S
C780 C776 1.385 . S
C780 C779 1.374 . S
C781 C778 1.499 . S
C781 C782 1.373 . S
C781 C783 1.389 . S
C782 H755 0.950 . S
C782 C768 1.377 . S
C782 C781 1.373 . S
C783 C767 1.377 . S
C783 C781 1.389 . S
C783 C784 1.524 . S
C784 C783 1.524 . S
C784 C785 1.397 . S
C784 C789 1.363 . S
C785 H756 0.950 . S
C785 C784 1.397 . S
C785 C786 1.334 . S
C786 H757 0.950 . S
C786 C785 1.334 . S
C786 C787 1.287 . S
C787 C786 1.287 . S
C787 C788 1.524 . S
C787 H790 0.999 . S
C788 H758 0.950 . S
C788 C787 1.524 . S
C788 C789 1.415 . S
C789 H759 0.950 . S
C789 C784 1.363 . S
C789 C788 1.415 . S
H790 C787 0.999 . S
H791 C772 0.913 . S
H792 C810 0.951 . S
H793 C812 0.951 . S
H794 C814 0.950 . S
H795 C815 0.950 . S
H796 C817 0.950 . S
H797 C820 0.950 . S
H798 C821 0.950 . S
H799 C823 0.950 . S
H800 C824 0.950 . S
H801 C825 0.951 . S
H802 C827 0.951 . S
H803 C829 0.950 1_655 S
H804 C830 0.950 1_655 S
H805 C832 0.950 1_556 S
H806 C835 0.950 . S
H807 C836 0.950 . S
H808 C838 0.949 1_554 S
H809 C839 0.950 . S
C810 H792 0.951 . S
C810 C811 1.366 . S
C810 C812 1.388 . S
C811 C810 1.366 . S
C811 C815 1.385 . S
C812 H793 0.951 . S
C812 C810 1.388 . S
C812 C813 1.366 . S
C813 C812 1.366 . S
C813 C814 1.414 . S
C813 C816 1.499 . S
C814 H794 0.950 . S
C814 C813 1.414 . S
C814 C815 1.374 . S
C815 H795 0.950 . S
C815 C811 1.385 . S
C815 C814 1.374 . S
C816 C813 1.499 . S
C816 C817 1.373 . S
C816 C818 1.389 . S
C817 H796 0.950 . S
C817 C816 1.373 . S
C817 C833 1.377 . S
C818 C816 1.389 . S
C818 C819 1.524 . S
C818 C832 1.377 . S
C819 C818 1.524 . S
C819 C820 1.397 . S
C819 C824 1.363 1_455 S
C820 H797 0.950 . S
C820 C819 1.397 . S
C820 C821 1.334 . S
C821 H798 0.950 . S
C821 C820 1.334 . S
C821 C822 1.287 . S
C822 C821 1.287 . S
C822 C823 1.524 1_455 S
C822 H841 0.913 . S
C823 H799 0.950 . S
C823 C822 1.524 1_655 S
C823 C824 1.415 . S
C824 H800 0.950 . S
C824 C819 1.363 1_655 S
C824 C823 1.415 . S
C825 H801 0.951 . S
C825 C826 1.366 . S
C825 C827 1.388 . S
C826 C825 1.366 . S
C826 C830 1.385 . S
C827 H802 0.951 . S
C827 C825 1.388 . S
C827 C828 1.366 . S
C828 C827 1.366 . S
C828 C829 1.414 . S
C828 C831 1.499 . S
C829 H803 0.950 1_455 S
C829 C828 1.414 . S
C829 C830 1.374 . S
C830 H804 0.950 1_455 S
C830 C826 1.385 . S
C830 C829 1.374 . S
C831 C828 1.499 . S
C831 C832 1.373 1_556 S
C831 C833 1.389 1_556 S
C832 H805 0.950 1_554 S
C832 C818 1.377 . S
C832 C831 1.373 1_554 S
C833 C817 1.377 . S
C833 C831 1.389 1_554 S
C833 C834 1.530 . S
C834 C833 1.530 . S
C834 C835 1.390 1_554 S
C834 C839 1.365 . S
C835 H806 0.950 . S
C835 C834 1.390 1_556 S
C835 C836 1.334 . S
C836 H807 0.950 . S
C836 C835 1.334 . S
C836 C837 1.287 . S
C837 C836 1.287 . S
C837 C838 1.529 . S
C837 H840 0.999 . S
C838 H808 0.949 1_556 S
C838 C837 1.529 . S
C838 C839 1.411 1_556 S
C839 H809 0.950 . S
C839 C834 1.365 . S
C839 C838 1.411 1_554 S
H840 C837 0.999 . S
H841 C822 0.913 . S
H842 C860 0.951 . S
H843 C862 0.951 . S
H844 C864 0.950 . S
H845 C865 0.950 . S
H846 C867 0.950 1_565 S
H847 C870 0.950 . S
H848 C871 0.950 . S
H849 C873 0.950 . S
H850 C874 0.950 . S
H851 C875 0.951 . S
H852 C877 0.951 . S
H853 C879 0.950 . S
H854 C880 0.950 . S
H855 C882 0.950 . S
H856 C885 0.950 . S
H857 C886 0.950 . S
H858 C888 0.950 . S
H859 C889 0.950 . S
C860 H842 0.951 . S
C860 C861 1.366 . S
C860 C862 1.388 . S
C861 C860 1.366 . S
C861 C865 1.385 . S
C862 H843 0.951 . S
C862 C860 1.388 . S
C862 C863 1.366 . S
C863 C862 1.366 . S
C863 C864 1.414 . S
C863 C866 1.499 . S
C864 H844 0.950 . S
C864 C863 1.414 . S
C864 C865 1.374 . S
C865 H845 0.950 . S
C865 C861 1.385 . S
C865 C864 1.374 . S
C866 C863 1.499 . S
C866 C867 1.373 . S
C866 C868 1.389 . S
C867 H846 0.950 1_545 S
C867 C866 1.373 . S
C867 C883 1.377 . S
C868 C866 1.389 . S
C868 C869 1.524 . S
C868 C882 1.377 . S
C869 C868 1.524 . S
C869 C870 1.397 . S
C869 C874 1.363 . S
C870 H847 0.950 . S
C870 C869 1.397 . S
C870 C871 1.334 . S
C871 H848 0.950 . S
C871 C870 1.334 . S
C871 C872 1.287 . S
C872 C871 1.287 . S
C872 C873 1.524 . S
C872 H891 0.913 . S
C873 H849 0.950 . S
C873 C872 1.524 . S
C873 C874 1.415 . S
C874 H850 0.950 . S
C874 C869 1.363 . S
C874 C873 1.415 . S
C875 H851 0.951 . S
C875 C876 1.366 . S
C875 C877 1.388 . S
C876 C875 1.366 . S
C876 C880 1.385 . S
C877 H852 0.951 . S
C877 C875 1.388 . S
C877 C878 1.366 . S
C878 C877 1.366 . S
C878 C879 1.414 . S
C878 C881 1.499 . S
C879 H853 0.950 . S
C879 C878 1.414 . S
C879 C880 1.374 . S
C880 H854 0.950 . S
C880 C876 1.385 . S
C880 C879 1.374 . S
C881 C878 1.499 . S
C881 C882 1.373 . S
C881 C883 1.389 . S
C882 H855 0.950 . S
C882 C868 1.377 . S
C882 C881 1.373 . S
C883 C867 1.377 . S
C883 C881 1.389 . S
C883 C884 1.524 1_545 S
C884 C883 1.524 1_565 S
C884 C885 1.397 . S
C884 C889 1.363 . S
C885 H856 0.950 . S
C885 C884 1.397 . S
C885 C886 1.334 . S
C886 H857 0.950 . S
C886 C885 1.334 . S
C886 C887 1.287 . S
C887 C886 1.287 . S
C887 C888 1.524 . S
C887 H890 0.999 . S
C888 H858 0.950 . S
C888 C887 1.524 . S
C888 C889 1.415 . S
C889 H859 0.950 . S
C889 C884 1.363 . S
C889 C888 1.415 . S
H890 C887 0.999 . S
H891 C872 0.913 . S
H892 C910 0.951 . S
H893 C912 0.951 . S
H894 C914 0.950 . S
H895 C915 0.950 . S
H896 C917 0.950 . S
H897 C920 0.950 . S
H898 C921 0.950 . S
H899 C923 0.950 . S
H900 C924 0.950 . S
H901 C925 0.951 . S
H902 C927 0.951 . S
H903 C929 0.950 . S
H904 C930 0.950 . S
H905 C932 0.950 . S
H906 C935 0.950 . S
H907 C936 0.950 . S
H908 C938 0.950 . S
H909 C939 0.950 . S
C910 H892 0.951 . S
C910 C911 1.366 . S
C910 C912 1.388 . S
C911 C910 1.366 . S
C911 C915 1.385 . S
C912 H893 0.951 . S
C912 C910 1.388 . S
C912 C913 1.366 . S
C913 C912 1.366 . S
C913 C914 1.414 . S
C913 C916 1.499 . S
C914 H894 0.950 . S
C914 C913 1.414 . S
C914 C915 1.374 . S
C915 H895 0.950 . S
C915 C911 1.385 . S
C915 C914 1.374 . S
C916 C913 1.499 . S
C916 C917 1.373 . S
C916 C918 1.389 . S
C917 H896 0.950 . S
C917 C916 1.373 . S
C917 C933 1.377 . S
C918 C916 1.389 . S
C918 C919 1.524 . S
C918 C932 1.377 . S
C919 C918 1.524 . S
C919 C920 1.397 . S
C919 C924 1.363 . S
C920 H897 0.950 . S
C920 C919 1.397 . S
C920 C921 1.334 . S
C921 H898 0.950 . S
C921 C920 1.334 . S
C921 C922 1.287 . S
C922 C921 1.287 . S
C922 C923 1.524 . S
C922 H941 0.913 . S
C923 H899 0.950 . S
C923 C922 1.524 . S
C923 C924 1.415 . S
C924 H900 0.950 . S
C924 C919 1.363 . S
C924 C923 1.415 . S
C925 H901 0.951 . S
C925 C926 1.366 . S
C925 C927 1.388 . S
C926 C925 1.366 . S
C926 C930 1.385 . S
C927 H902 0.951 . S
C927 C925 1.388 . S
C927 C928 1.366 . S
C928 C927 1.366 . S
C928 C929 1.414 . S
C928 C931 1.499 . S
C929 H903 0.950 . S
C929 C928 1.414 . S
C929 C930 1.374 . S
C930 H904 0.950 . S
C930 C926 1.385 . S
C930 C929 1.374 . S
C931 C928 1.499 . S
C931 C932 1.373 . S
C931 C933 1.389 . S
C932 H905 0.950 . S
C932 C918 1.377 . S
C932 C931 1.373 . S
C933 C917 1.377 . S
C933 C931 1.389 . S
C933 C934 1.524 . S
C934 C933 1.524 . S
C934 C935 1.397 . S
C934 C939 1.363 . S
C935 H906 0.950 . S
C935 C934 1.397 . S
C935 C936 1.334 . S
C936 H907 0.950 . S
C936 C935 1.334 . S
C936 C937 1.287 . S
C937 C936 1.287 . S
C937 C938 1.524 . S
C937 H940 0.999 . S
C938 H908 0.950 . S
C938 C937 1.524 . S
C938 C939 1.415 . S
C939 H909 0.950 . S
C939 C934 1.363 . S
C939 C938 1.415 . S
H940 C937 0.999 . S
H941 C922 0.913 . S
H942 C960 0.951 . S
H943 C962 0.951 . S
H944 C964 0.950 1_565 S
H945 C965 0.950 1_565 S
H946 C967 0.950 . S
H947 C970 0.950 . S
H948 C971 0.950 . S
H949 C973 0.950 . S
H950 C974 0.950 . S
H951 C975 0.951 . S
H952 C977 0.951 . S
H953 C979 0.950 . S
H954 C980 0.950 . S
H955 C982 0.950 . S
H956 C985 0.950 . S
H957 C986 0.950 . S
H958 C988 0.950 . S
H959 C989 0.950 . S
C960 H942 0.951 . S
C960 C961 1.366 . S
C960 C962 1.388 . S
C961 C960 1.366 . S
C961 C965 1.385 . S
C962 H943 0.951 . S
C962 C960 1.388 . S
C962 C963 1.366 . S
C963 C962 1.366 . S
C963 C964 1.414 . S
C963 C966 1.499 . S
C964 H944 0.950 1_545 S
C964 C963 1.414 . S
C964 C965 1.374 . S
C965 H945 0.950 1_545 S
C965 C961 1.385 . S
C965 C964 1.374 . S
C966 C963 1.499 . S
C966 C967 1.373 1_545 S
C966 C968 1.389 . S
C967 H946 0.950 . S
C967 C966 1.373 1_565 S
C967 C983 1.377 . S
C968 C966 1.389 . S
C968 C969 1.524 . S
C968 C982 1.377 . S
C969 C968 1.524 . S
C969 C970 1.397 . S
C969 C974 1.363 . S
C970 H947 0.950 . S
C970 C969 1.397 . S
C970 C971 1.334 . S
C971 H948 0.950 . S
C971 C970 1.334 . S
C971 C972 1.287 . S
C972 C971 1.287 . S
C972 C973 1.524 . S
C972 H991 0.913 . S
C973 H949 0.950 . S
C973 C972 1.524 . S
C973 C974 1.415 . S
C974 H950 0.950 . S
C974 C969 1.363 . S
C974 C973 1.415 . S
C975 H951 0.951 . S
C975 C976 1.366 1_565 S
C975 C977 1.388 . S
C976 C975 1.366 1_545 S
C976 C980 1.385 . S
C977 H952 0.951 . S
C977 C975 1.388 . S
C977 C978 1.366 1_565 S
C978 C977 1.366 1_545 S
C978 C979 1.414 . S
C978 C981 1.499 . S
C979 H953 0.950 . S
C979 C978 1.414 . S
C979 C980 1.374 . S
C980 H954 0.950 . S
C980 C976 1.385 . S
C980 C979 1.374 . S
C981 C978 1.499 . S
C981 C982 1.373 . S
C981 C983 1.389 1_545 S
C982 H955 0.950 . S
C982 C968 1.377 . S
C982 C981 1.373 . S
C983 C967 1.377 . S
C983 C981 1.389 1_565 S
C983 C984 1.524 . S
C984 C983 1.524 . S
C984 C985 1.397 . S
C984 C989 1.363 . S
C985 H956 0.950 . S
C985 C984 1.397 . S
C985 C986 1.334 . S
C986 H957 0.950 . S
C986 C985 1.334 . S
C986 C987 1.287 . S
C987 C986 1.287 . S
C987 C988 1.524 . S
C987 H990 0.999 . S
C988 H958 0.950 . S
C988 C987 1.524 . S
C988 C989 1.415 . S
C989 H959 0.950 . S
C989 C984 1.363 . S
C989 C988 1.415 . S
H990 C987 0.999 . S
H991 C972 0.913 . S
H992 C1010 0.951 . S
H993 C1012 0.951 . S
H994 C1014 0.950 . S
H995 C1015 0.950 . S
H996 C1017 0.950 . S
H997 C1020 0.950 . S
H998 C1021 0.950 . S
H999 C1023 0.950 . S
H1000 C1024 0.950 . S
H1001 C1025 0.951 . S
H1002 C1027 0.951 . S
H1003 C1029 0.950 . S
H1004 C1030 0.950 . S
H1005 C1032 0.963 . S
H1006 C1035 0.950 . S
H1007 C1036 0.950 . S
H1008 C1038 0.950 . S
H1009 C1039 0.950 . S
C1010 H992 0.951 . S
C1010 C1011 1.366 . S
C1010 C1012 1.388 . S
C1011 C1010 1.366 . S
C1011 C1015 1.385 . S
C1012 H993 0.951 . S
C1012 C1010 1.388 . S
C1012 C1013 1.366 . S
C1013 C1012 1.366 . S
C1013 C1014 1.414 . S
C1013 C1016 1.499 . S
C1014 H994 0.950 . S
C1014 C1013 1.414 . S
C1014 C1015 1.374 . S
C1015 H995 0.950 . S
C1015 C1011 1.385 . S
C1015 C1014 1.374 . S
C1016 C1013 1.499 . S
C1016 C1017 1.373 . S
C1016 C1018 1.389 . S
C1017 H996 0.950 . S
C1017 C1016 1.373 . S
C1017 C1033 1.377 . S
C1018 C1016 1.389 . S
C1018 C1019 1.524 . S
C1018 C1032 1.377 . S
C1019 C1018 1.524 . S
C1019 C1020 1.397 . S
C1019 C1024 1.363 . S
C1020 H997 0.950 . S
C1020 C1019 1.397 . S
C1020 C1021 1.334 . S
C1021 H998 0.950 . S
C1021 C1020 1.334 . S
C1021 C1022 1.287 . S
C1022 C1021 1.287 . S
C1022 C1023 1.524 . S
C1022 H1041 0.913 . S
C1023 H999 0.950 . S
C1023 C1022 1.524 . S
C1023 C1024 1.415 . S
C1024 H1000 0.950 . S
C1024 C1019 1.363 . S
C1024 C1023 1.415 . S
C1025 H1001 0.951 . S
C1025 C1026 1.366 . S
C1025 C1027 1.388 . S
C1026 C1025 1.366 . S
C1026 C1030 1.385 . S
C1027 H1002 0.951 . S
C1027 C1025 1.388 . S
C1027 C1028 1.366 . S
C1028 C1027 1.366 . S
C1028 C1029 1.414 . S
C1028 C1031 1.499 . S
C1029 H1003 0.950 . S
C1029 C1028 1.414 . S
C1029 C1030 1.374 . S
C1030 H1004 0.950 . S
C1030 C1026 1.385 . S
C1030 C1029 1.374 . S
C1031 C1028 1.499 . S
C1031 C1032 1.373 1_554 S
C1031 C1033 1.389 1_554 S
C1032 H1005 0.963 . S
C1032 C1018 1.377 . S
C1032 C1031 1.373 1_556 S
C1033 C1017 1.377 . S
C1033 C1031 1.389 1_556 S
C1033 C1034 1.524 1_556 S
C1034 C1033 1.524 1_554 S
C1034 C1035 1.397 . S
C1034 C1039 1.363 1_554 S
C1035 H1006 0.950 . S
C1035 C1034 1.397 . S
C1035 C1036 1.334 . S
C1036 H1007 0.950 . S
C1036 C1035 1.334 . S
C1036 C1037 1.287 . S
C1037 C1036 1.287 . S
C1037 C1038 1.524 . S
C1037 H1040 0.999 . S
C1038 H1008 0.950 . S
C1038 C1037 1.524 . S
C1038 C1039 1.415 1_554 S
C1039 H1009 0.950 . S
C1039 C1034 1.363 1_556 S
C1039 C1038 1.415 1_556 S
H1040 C1037 0.999 . S
H1041 C1022 0.913 . S
H1042 C1060 0.951 . S
H1043 C1062 0.951 1_655 S
H1044 C1064 0.950 . S
H1045 C1065 0.950 . S
H1046 C1067 0.950 . S
H1047 C1070 0.950 . S
H1048 C1071 0.950 . S
H1049 C1073 0.950 . S
H1050 C1074 0.950 . S
H1051 C1075 0.951 . S
H1052 C1077 0.951 . S
H1053 C1079 0.950 . S
H1054 C1080 0.950 . S
H1055 C1082 0.950 . S
H1056 C1085 0.919 1_655 S
H1057 C1086 0.950 . S
H1058 C1088 0.950 . S
H1059 C1089 0.950 . S
C1060 H1042 0.951 . S
C1060 C1061 1.366 . S
C1060 C1062 1.388 . S
C1061 C1060 1.366 . S
C1061 C1065 1.385 . S
C1062 H1043 0.951 1_455 S
C1062 C1060 1.388 . S
C1062 C1063 1.366 . S
C1063 C1062 1.366 . S
C1063 C1064 1.414 . S
C1063 C1066 1.499 . S
C1064 H1044 0.950 . S
C1064 C1063 1.414 . S
C1064 C1065 1.374 . S
C1065 H1045 0.950 . S
C1065 C1061 1.385 . S
C1065 C1064 1.374 . S
C1066 C1063 1.499 . S
C1066 C1067 1.373 . S
C1066 C1068 1.389 . S
C1067 H1046 0.950 . S
C1067 C1066 1.373 . S
C1067 C1083 1.377 . S
C1068 C1066 1.389 . S
C1068 C1069 1.524 . S
C1068 C1082 1.377 . S
C1069 C1068 1.524 . S
C1069 C1070 1.397 . S
C1069 C1074 1.363 1_455 S
C1070 H1047 0.950 . S
C1070 C1069 1.397 . S
C1070 C1071 1.334 . S
C1071 H1048 0.950 . S
C1071 C1070 1.334 . S
C1071 C1072 1.287 . S
C1072 C1071 1.287 . S
C1072 C1073 1.524 1_455 S
C1072 H1091 0.913 . S
C1073 H1049 0.950 . S
C1073 C1072 1.524 1_655 S
C1073 C1074 1.415 . S
C1074 H1050 0.950 . S
C1074 C1069 1.363 1_655 S
C1074 C1073 1.415 . S
C1075 H1051 0.951 . S
C1075 C1076 1.366 . S
C1075 C1077 1.388 . S
C1076 C1075 1.366 . S
C1076 C1080 1.385 1_455 S
C1077 H1052 0.951 . S
C1077 C1075 1.388 . S
C1077 C1078 1.366 . S
C1078 C1077 1.366 . S
C1078 C1079 1.414 1_455 S
C1078 C1081 1.499 . S
C1079 H1053 0.950 . S
C1079 C1078 1.414 1_655 S
C1079 C1080 1.374 . S
C1080 H1054 0.950 . S
C1080 C1076 1.385 1_655 S
C1080 C1079 1.374 . S
C1081 C1078 1.499 . S
C1081 C1082 1.373 . S
C1081 C1083 1.389 . S
C1082 H1055 0.950 . S
C1082 C1068 1.377 . S
C1082 C1081 1.373 . S
C1083 C1067 1.377 . S
C1083 C1081 1.389 . S
C1083 C1084 1.524 . S
C1084 C1083 1.524 . S
C1084 C1085 1.397 . S
C1084 C1089 1.363 . S
C1085 H1056 0.919 1_455 S
C1085 C1084 1.397 . S
C1085 C1086 1.334 . S
C1086 H1057 0.950 . S
C1086 C1085 1.334 . S
C1086 C1087 1.287 . S
C1087 C1086 1.287 . S
C1087 C1088 1.524 . S
C1087 H1090 0.999 . S
C1088 H1058 0.950 . S
C1088 C1087 1.524 . S
C1088 C1089 1.415 . S
C1089 H1059 0.950 . S
C1089 C1084 1.363 . S
C1089 C1088 1.415 . S
H1090 C1087 0.999 . S
H1091 C1072 0.913 . S
C211 C7 0.746 . S
C226 C186 0.746 . S
C261 C51 1.934 . S
C276 C160 1.874 . S
C311 C87 1.238 . S
C326 C172 1.220 . S
C361 C16 0.299 . S
C376 C184 0.391 . S
C426 C162 1.818 . S
C411 C42 1.841 . S
C476 C174 1.100 . S
C461 C96 1.107 . S
C511 C47 1.265 . S
C526 C136 1.247 . S
C561 C91 3.401 . S
C576 C150 3.374 1_655 S
C611 C2 1.855 . S
C626 C126 1.842 1_565 S
C676 C138 1.106 . S
C661 C56 1.109 . S
C726 C148 2.588 . S
C711 C82 2.674 . S
C761 C11 1.934 . S
C776 C124 1.882 . S
C826 C153 1.747 . S
C811 C19 1.684 . S
C861 C50 1.433 . S
C876 C129 1.486 . S
C911 C99 1.510 . S
C926 C141 1.528 . S
C976 C177 1.537 . S
C961 C59 1.526 . S
C1026 C189 1.283 . S
C1011 C90 1.249 . S
C1061 C10 1.418 . S
C1076 C165 1.452 . S
