# Generated by pormake.
# Topology ptr, (4,4)-cn, num edge types: 1
# Building blocks:
#     Node 0, Type 0, BuildingBlock: TATPOV_clean_sbu_0, # of connection points: 4
#     Node 1, Type 0, BuildingBlock: TATPOV_clean_sbu_0, # of connection points: 4
#     Node 2, Type 0, BuildingBlock: TATPOV_clean_sbu_0, # of connection points: 4
#     Node 3, Type 0, BuildingBlock: TATPOV_clean_sbu_0, # of connection points: 4
#     Node 4, Type 0, BuildingBlock: TATPOV_clean_sbu_0, # of connection points: 4
#     Node 5, Type 0, BuildingBlock: TATPOV_clean_sbu_0, # of connection points: 4
#     Node 6, Type 0, BuildingBlock: TATPOV_clean_sbu_0, # of connection points: 4
#     Node 7, Type 0, BuildingBlock: TATPOV_clean_sbu_0, # of connection points: 4
#     Node 8, Type 0, BuildingBlock: TATPOV_clean_sbu_0, # of connection points: 4
#     Node 9, Type 0, BuildingBlock: TATPOV_clean_sbu_0, # of connection points: 4
#     Node 10, Type 0, BuildingBlock: TATPOV_clean_sbu_0, # of connection points: 4
#     Node 11, Type 0, BuildingBlock: TATPOV_clean_sbu_0, # of connection points: 4
#     Node 12, Type 0, BuildingBlock: TATPOV_clean_sbu_0, # of connection points: 4
#     Node 13, Type 0, BuildingBlock: TATPOV_clean_sbu_0, # of connection points: 4
#     Node 14, Type 0, BuildingBlock: TATPOV_clean_sbu_0, # of connection points: 4
#     Node 15, Type 0, BuildingBlock: TATPOV_clean_sbu_0, # of connection points: 4
#     Node 16, Type 0, BuildingBlock: TATPOV_clean_sbu_0, # of connection points: 4
#     Node 17, Type 0, BuildingBlock: TATPOV_clean_sbu_0, # of connection points: 4
#     Node 18, Type 1, BuildingBlock: GIZVER_clean_linker_0, # of connection points: 4
#     Node 19, Type 1, BuildingBlock: GIZVER_clean_linker_0, # of connection points: 4
#     Node 20, Type 1, BuildingBlock: GIZVER_clean_linker_0, # of connection points: 4
#     Node 21, Type 1, BuildingBlock: GIZVER_clean_linker_0, # of connection points: 4
#     Node 22, Type 1, BuildingBlock: GIZVER_clean_linker_0, # of connection points: 4
#     Node 23, Type 1, BuildingBlock: GIZVER_clean_linker_0, # of connection points: 4
#     Node 24, Type 1, BuildingBlock: GIZVER_clean_linker_0, # of connection points: 4
#     Node 25, Type 1, BuildingBlock: GIZVER_clean_linker_0, # of connection points: 4
#     Node 26, Type 1, BuildingBlock: GIZVER_clean_linker_0, # of connection points: 4
#     Node 27, Type 1, BuildingBlock: GIZVER_clean_linker_0, # of connection points: 4
#     Node 28, Type 1, BuildingBlock: GIZVER_clean_linker_0, # of connection points: 4
#     Node 29, Type 1, BuildingBlock: GIZVER_clean_linker_0, # of connection points: 4
#     Node 30, Type 1, BuildingBlock: GIZVER_clean_linker_0, # of connection points: 4
#     Node 31, Type 1, BuildingBlock: GIZVER_clean_linker_0, # of connection points: 4
#     Node 32, Type 1, BuildingBlock: GIZVER_clean_linker_0, # of connection points: 4
#     Node 33, Type 1, BuildingBlock: GIZVER_clean_linker_0, # of connection points: 4
#     Node 34, Type 1, BuildingBlock: GIZVER_clean_linker_0, # of connection points: 4
#     Node 35, Type 1, BuildingBlock: GIZVER_clean_linker_0, # of connection points: 4
#     Edge 36, Type (0, 1), BuildingBlock: CIFDUS_clean_linker_0, # of connection points: 2
#     Edge 37, Type (0, 1), BuildingBlock: CIFDUS_clean_linker_0, # of connection points: 2
#     Edge 38, Type (0, 1), BuildingBlock: CIFDUS_clean_linker_0, # of connection points: 2
#     Edge 39, Type (0, 1), BuildingBlock: CIFDUS_clean_linker_0, # of connection points: 2
#     Edge 40, Type (0, 1), BuildingBlock: CIFDUS_clean_linker_0, # of connection points: 2
#     Edge 41, Type (0, 1), BuildingBlock: CIFDUS_clean_linker_0, # of connection points: 2
#     Edge 42, Type (0, 1), BuildingBlock: CIFDUS_clean_linker_0, # of connection points: 2
#     Edge 43, Type (0, 1), BuildingBlock: CIFDUS_clean_linker_0, # of connection points: 2
#     Edge 44, Type (0, 1), BuildingBlock: CIFDUS_clean_linker_0, # of connection points: 2
#     Edge 45, Type (0, 1), BuildingBlock: CIFDUS_clean_linker_0, # of connection points: 2
#     Edge 46, Type (0, 1), BuildingBlock: CIFDUS_clean_linker_0, # of connection points: 2
#     Edge 47, Type (0, 1), BuildingBlock: CIFDUS_clean_linker_0, # of connection points: 2
#     Edge 48, Type (0, 1), BuildingBlock: CIFDUS_clean_linker_0, # of connection points: 2
#     Edge 49, Type (0, 1), BuildingBlock: CIFDUS_clean_linker_0, # of connection points: 2
#     Edge 50, Type (0, 1), BuildingBlock: CIFDUS_clean_linker_0, # of connection points: 2
#     Edge 51, Type (0, 1), BuildingBlock: CIFDUS_clean_linker_0, # of connection points: 2
#     Edge 52, Type (0, 1), BuildingBlock: CIFDUS_clean_linker_0, # of connection points: 2
#     Edge 53, Type (0, 1), BuildingBlock: CIFDUS_clean_linker_0, # of connection points: 2
#     Edge 54, Type (0, 1), BuildingBlock: CIFDUS_clean_linker_0, # of connection points: 2
#     Edge 55, Type (0, 1), BuildingBlock: CIFDUS_clean_linker_0, # of connection points: 2
#     Edge 56, Type (0, 1), BuildingBlock: CIFDUS_clean_linker_0, # of connection points: 2
#     Edge 57, Type (0, 1), BuildingBlock: CIFDUS_clean_linker_0, # of connection points: 2
#     Edge 58, Type (0, 1), BuildingBlock: CIFDUS_clean_linker_0, # of connection points: 2
#     Edge 59, Type (0, 1), BuildingBlock: CIFDUS_clean_linker_0, # of connection points: 2
#     Edge 60, Type (0, 1), BuildingBlock: CIFDUS_clean_linker_0, # of connection points: 2
#     Edge 61, Type (0, 1), BuildingBlock: CIFDUS_clean_linker_0, # of connection points: 2
#     Edge 62, Type (0, 1), BuildingBlock: CIFDUS_clean_linker_0, # of connection points: 2
#     Edge 63, Type (0, 1), BuildingBlock: CIFDUS_clean_linker_0, # of connection points: 2
#     Edge 64, Type (0, 1), BuildingBlock: CIFDUS_clean_linker_0, # of connection points: 2
#     Edge 65, Type (0, 1), BuildingBlock: CIFDUS_clean_linker_0, # of connection points: 2
#     Edge 66, Type (0, 1), BuildingBlock: CIFDUS_clean_linker_0, # of connection points: 2
#     Edge 67, Type (0, 1), BuildingBlock: CIFDUS_clean_linker_0, # of connection points: 2
#     Edge 68, Type (0, 1), BuildingBlock: CIFDUS_clean_linker_0, # of connection points: 2
#     Edge 69, Type (0, 1), BuildingBlock: CIFDUS_clean_linker_0, # of connection points: 2
#     Edge 70, Type (0, 1), BuildingBlock: CIFDUS_clean_linker_0, # of connection points: 2
#     Edge 71, Type (0, 1), BuildingBlock: CIFDUS_clean_linker_0, # of connection points: 2
#     Edge 72, Type (0, 1), BuildingBlock: CIFDUS_clean_linker_0, # of connection points: 2
#     Edge 73, Type (0, 1), BuildingBlock: CIFDUS_clean_linker_0, # of connection points: 2
#     Edge 74, Type (0, 1), BuildingBlock: CIFDUS_clean_linker_0, # of connection points: 2
#     Edge 75, Type (0, 1), BuildingBlock: CIFDUS_clean_linker_0, # of connection points: 2
#     Edge 76, Type (0, 1), BuildingBlock: CIFDUS_clean_linker_0, # of connection points: 2
#     Edge 77, Type (0, 1), BuildingBlock: CIFDUS_clean_linker_0, # of connection points: 2
#     Edge 78, Type (0, 1), BuildingBlock: CIFDUS_clean_linker_0, # of connection points: 2
#     Edge 79, Type (0, 1), BuildingBlock: CIFDUS_clean_linker_0, # of connection points: 2
#     Edge 80, Type (0, 1), BuildingBlock: CIFDUS_clean_linker_0, # of connection points: 2
#     Edge 81, Type (0, 1), BuildingBlock: CIFDUS_clean_linker_0, # of connection points: 2
#     Edge 82, Type (0, 1), BuildingBlock: CIFDUS_clean_linker_0, # of connection points: 2
#     Edge 83, Type (0, 1), BuildingBlock: CIFDUS_clean_linker_0, # of connection points: 2
#     Edge 84, Type (0, 1), BuildingBlock: CIFDUS_clean_linker_0, # of connection points: 2
#     Edge 85, Type (0, 1), BuildingBlock: CIFDUS_clean_linker_0, # of connection points: 2
#     Edge 86, Type (0, 1), BuildingBlock: CIFDUS_clean_linker_0, # of connection points: 2
#     Edge 87, Type (0, 1), BuildingBlock: CIFDUS_clean_linker_0, # of connection points: 2
#     Edge 88, Type (0, 1), BuildingBlock: CIFDUS_clean_linker_0, # of connection points: 2
#     Edge 89, Type (0, 1), BuildingBlock: CIFDUS_clean_linker_0, # of connection points: 2
#     Edge 90, Type (0, 1), BuildingBlock: CIFDUS_clean_linker_0, # of connection points: 2
#     Edge 91, Type (0, 1), BuildingBlock: CIFDUS_clean_linker_0, # of connection points: 2
#     Edge 92, Type (0, 1), BuildingBlock: CIFDUS_clean_linker_0, # of connection points: 2
#     Edge 93, Type (0, 1), BuildingBlock: CIFDUS_clean_linker_0, # of connection points: 2
#     Edge 94, Type (0, 1), BuildingBlock: CIFDUS_clean_linker_0, # of connection points: 2
#     Edge 95, Type (0, 1), BuildingBlock: CIFDUS_clean_linker_0, # of connection points: 2
#     Edge 96, Type (0, 1), BuildingBlock: CIFDUS_clean_linker_0, # of connection points: 2
#     Edge 97, Type (0, 1), BuildingBlock: CIFDUS_clean_linker_0, # of connection points: 2
#     Edge 98, Type (0, 1), BuildingBlock: CIFDUS_clean_linker_0, # of connection points: 2
#     Edge 99, Type (0, 1), BuildingBlock: CIFDUS_clean_linker_0, # of connection points: 2
#     Edge 100, Type (0, 1), BuildingBlock: CIFDUS_clean_linker_0, # of connection points: 2
#     Edge 101, Type (0, 1), BuildingBlock: CIFDUS_clean_linker_0, # of connection points: 2
#     Edge 102, Type (0, 1), BuildingBlock: CIFDUS_clean_linker_0, # of connection points: 2
#     Edge 103, Type (0, 1), BuildingBlock: CIFDUS_clean_linker_0, # of connection points: 2
#     Edge 104, Type (0, 1), BuildingBlock: CIFDUS_clean_linker_0, # of connection points: 2
#     Edge 105, Type (0, 1), BuildingBlock: CIFDUS_clean_linker_0, # of connection points: 2
#     Edge 106, Type (0, 1), BuildingBlock: CIFDUS_clean_linker_0, # of connection points: 2
#     Edge 107, Type (0, 1), BuildingBlock: CIFDUS_clean_linker_0, # of connection points: 2
# Relax obj value: 0.071
# Max RMSD: 0.190
# Mean RMSD: 0.114
data_MOF--net-ptr--node1-TATPOV_clean_sbu_0--node2-GIZVER_clean_linker_0--edge1-CIFDUS_clean_linker_0
_symmetry_space_group_name_H-M    P1
_symmetry_Int_Tables_number       1
_symmetry_cell_setting            triclinic
loop_
_symmetry_equiv_pos_as_xyz
'x, y, z'
_cell_length_a     69.809033
_cell_length_b     70.619778
_cell_length_c     41.791307
_cell_angle_alpha  89.561005
_cell_angle_beta   91.725093
_cell_angle_gamma 121.50917
loop_
_atom_site_label
_atom_site_type_symbol
_atom_site_fract_x
_atom_site_fract_y
_atom_site_fract_z
_atom_type_partial_charge
Zn0 Zn 0.94527 0.39504 0.02347 0.0
Zn1 Zn 0.98284 0.39293 0.01276 0.0
O2 O 0.95665 0.36052 0.01333 0.0
O3 O 0.92582 0.36091 0.02125 0.0
O4 O 0.00966 0.38911 0.00851 0.0
O5 O 0.95993 0.41172 0.06572 0.0
O6 O 0.98958 0.4097 0.05558 0.0
C7 C 0.93543 0.35015 0.01659 0.0
C8 C 0.96857 0.4166 0.9644 0.0
O9 O 0.98198 0.41017 0.97301 0.0
O10 O 0.95222 0.41241 0.98177 0.0
C11 C 0.0296 0.40382 0.01751 0.0
O12 O 0.03356 0.42309 0.02793 0.0
C13 C 0.97949 0.41598 0.07363 0.0
Zn14 Zn 0.63364 0.57391 0.03948 0.0
Zn15 Zn 0.63988 0.61443 0.0327 0.0
O16 O 0.67225 0.6205 0.03233 0.0
O17 O 0.66723 0.5876 0.04241 0.0
O18 O 0.64351 0.64481 0.02899 0.0
O19 O 0.61578 0.56845 0.07866 0.0
O20 O 0.62386 0.60305 0.07579 0.0
C21 C 0.68031 0.60812 0.03727 0.0
C22 C 0.61338 0.57807 0.98145 0.0
O23 O 0.62056 0.59753 0.99248 0.0
O24 O 0.61739 0.56493 -0.00323 0.0
C25 C 0.65956 0.66141 0.01514 0.0
O26 O 0.67513 0.65925 0.0018 0.0
C27 C 0.61472 0.5844 0.09003 0.0
Zn28 Zn 0.40092 0.97025 0.99327 0.0
Zn29 Zn 0.40495 0.0083 -0.00023 0.0
O30 O 0.37006 0.98606 -0.00302 0.0
O31 O 0.36768 0.95442 0.98674 0.0
O32 O 0.40811 0.03868 -0.0025 0.0
O33 O 0.42068 0.97778 0.95644 0.0
O34 O 0.42346 0.01017 0.95969 0.0
C35 C 0.35813 0.96521 0.99106 0.0
C36 C 0.42095 0.99027 0.0543 0.0
O37 O 0.41909 1.00631 0.04374 0.0
O38 O 0.41405 0.97309 0.03712 0.0
C39 C 0.39789 0.04605 0.01306 0.0
O40 O 0.3841 0.03374 0.03546 0.0
C41 C 0.42848 0.99723 0.94607 0.0
Zn42 Zn 0.06823 0.63278 0.99298 0.0
Zn43 Zn 0.02702 0.62892 -0.00453 0.0
O44 O 0.04981 0.66234 -0.00586 0.0
O45 O 0.08313 0.66622 0.99221 0.0
O46 O 0.99747 0.62763 -0.0024 0.0
O47 O 0.05746 0.6153 0.95169 0.0
O48 O 0.02432 0.61193 0.95454 0.0
C49 C 0.07107 0.67476 0.99288 0.0
C50 C 0.04302 0.60994 0.0488 0.0
O51 O 0.02852 0.61374 0.03627 0.0
O52 O 0.0614 0.61645 0.03516 0.0
C53 C 0.99625 0.64166 0.01498 0.0
O54 O 0.01398 0.65608 0.03218 0.0
C55 C 0.03779 0.60803 0.94026 0.0
Zn56 Zn 0.38956 0.43553 0.01731 0.0
Zn57 Zn 0.38447 0.39517 0.00651 0.0
O58 O 0.35213 0.38926 0.00934 0.0
O59 O 0.3559 0.42185 0.01713 0.0
O60 O 0.37985 0.36425 -0.00078 0.0
O61 O 0.40638 0.44681 0.97691 0.0
O62 O 0.40273 0.41435 0.96775 0.0
C63 C 0.34338 0.40103 0.01331 0.0
C64 C 0.41038 0.42296 0.06651 0.0
O65 O 0.40238 0.40531 0.04959 0.0
O66 O 0.4072 0.43836 0.05788 0.0
C67 C 0.36194 0.34865 0.9857 0.0
O68 O 0.34654 0.35282 0.97544 0.0
C69 C 0.41018 0.43451 0.95976 0.0
Zn70 Zn 0.60535 0.01778 0.99163 0.0
Zn71 Zn 0.60763 0.98026 0.98907 0.0
O72 O 0.64055 1.00473 0.98294 0.0
O73 O 0.63928 0.0352 0.9867 0.0
O74 O 0.60751 0.95153 0.99404 0.0
O75 O 0.59321 0.01111 0.036 0.0
O76 O 0.59641 0.98179 0.03323 0.0
C77 C 0.65046 0.02587 0.98329 0.0
C78 C 0.57874 0.98751 0.93932 0.0
O79 O 0.58673 0.97596 0.95004 0.0
O80 O 0.58393 1.0056 0.95304 0.0
C81 C 0.61979 0.94562 0.9808 0.0
O82 O 0.63408 0.95856 0.9593 0.0
C83 C 0.59147 0.99402 0.04882 0.0
Zn84 Zn 0.62219 0.72886 0.35191 0.0
Zn85 Zn 0.65428 0.71765 0.35564 0.0
O86 O 0.62564 0.68658 0.3529 0.0
O87 O 0.59958 0.69534 0.3492 0.0
O88 O 0.68093 0.71319 0.35827 0.0
O89 O 0.63318 0.74517 0.39449 0.0
O90 O 0.65734 0.73398 0.39802 0.0
C91 C 0.60501 0.68076 0.35011 0.0
C92 C 0.65117 0.74513 0.29905 0.0
O93 O 0.65965 0.73511 0.31356 0.0
O94 O 0.63495 0.74555 0.31098 0.0
C95 C 0.70029 0.73083 0.36061 0.0
O96 O 0.7016 0.75008 0.361 0.0
C97 C 0.64851 0.74416 0.40986 0.0
Zn98 Zn 0.29809 0.92152 0.34697 0.0
Zn99 Zn 0.31075 0.96511 0.35237 0.0
O100 O 0.34078 0.96709 0.351 0.0
O101 O 0.33166 0.93224 0.34776 0.0
O102 O 0.32 0.99707 0.35649 0.0
O103 O 0.28099 0.91492 0.38764 0.0
O104 O 0.29231 0.95039 0.39237 0.0
C105 C 0.34655 0.95279 0.34912 0.0
C106 C 0.28323 0.93753 0.29392 0.0
O107 O 0.294 0.95587 0.30918 0.0
O108 O 0.28198 0.9202 0.30505 0.0
C109 C 0.30778 1.00467 0.34734 0.0
O110 O 0.28756 0.99104 0.33506 0.0
C111 C 0.28139 0.93058 0.40281 0.0
Zn112 Zn 0.0915 0.32718 0.35783 0.0
Zn113 Zn 0.07708 0.35587 0.36147 0.0
O114 O 0.04727 0.32542 0.36103 0.0
O115 O 0.05887 0.30185 0.35939 0.0
O116 O 0.06814 0.37905 0.36051 0.0
O117 O 0.10556 0.3393 0.31546 0.0
O118 O 0.09494 0.36349 0.31981 0.0
C119 C 0.04293 0.30549 0.36051 0.0
C120 C 0.10774 0.35464 0.41481 0.0
O121 O 0.09525 0.36162 0.40401 0.0
O122 O 0.10978 0.34061 0.39894 0.0
C123 C 0.04825 0.37492 0.36384 0.0
O124 O 0.03215 0.35456 0.37021 0.0
C125 C 0.10487 0.35568 0.30446 0.0
Zn126 Zn 0.73353 0.95312 0.32948 0.0
Zn127 Zn 0.69602 0.95657 0.33035 0.0
O128 O 0.72182 0.98887 0.33299 0.0
O129 O 0.75233 0.98711 0.33065 0.0
O130 O 0.66781 0.95813 0.33089 0.0
O131 O 0.72175 0.93634 0.28724 0.0
O132 O 0.69344 0.94191 0.28702 0.0
C133 C 0.74314 0.99852 0.33259 0.0
C134 C 0.70614 0.9322 0.38393 0.0
O135 O 0.69399 0.93876 0.3705 0.0
O136 O 0.72416 0.93627 0.37128 0.0
C137 C 0.66732 0.97401 0.34421 0.0
O138 O 0.68555 0.98989 0.35888 0.0
C139 C 0.7044 0.9345 0.27361 0.0
Zn140 Zn 0.0572 0.77126 0.32511 0.0
Zn141 Zn 0.0551 0.73144 0.32849 0.0
O142 O 0.02266 0.72447 0.33322 0.0
O143 O 0.02326 0.75583 0.32894 0.0
O144 O 0.05122 0.70058 0.32839 0.0
O145 O 0.07158 0.77685 0.28205 0.0
O146 O 0.06982 0.74481 0.28523 0.0
C147 C 0.01235 0.73498 0.33275 0.0
C148 C 0.08327 0.76781 0.37852 0.0
O149 O 0.07591 0.74828 0.36756 0.0
O150 O 0.07755 0.7803 0.3649 0.0
C151 C 0.03424 0.68518 0.31291 0.0
O152 O 0.02049 0.69 0.29802 0.0
C153 C 0.07546 0.76275 0.27028 0.0
Zn154 Zn 0.27153 0.36527 0.32688 0.0
Zn155 Zn 0.27957 0.33183 0.32083 0.0
O156 O 0.31192 0.35905 0.32093 0.0
O157 O 0.30539 0.38632 0.3246 0.0
O158 O 0.28182 0.30444 0.32125 0.0
O159 O 0.25741 0.35416 0.36966 0.0
O160 O 0.26442 0.32747 0.36375 0.0
C161 C 0.31913 0.37978 0.32263 0.0
C162 C 0.24993 0.33794 0.27072 0.0
O163 O 0.26008 0.32817 0.28031 0.0
O164 O 0.25184 0.35405 0.2867 0.0
C165 C 0.29753 0.30157 0.31305 0.0
O166 O 0.3157 0.31815 0.30065 0.0
C167 C 0.25664 0.33692 0.38015 0.0
Zn168 Zn 0.28454 0.06341 0.68863 0.0
Zn169 Zn 0.31947 0.0571 0.68177 0.0
O170 O 0.29216 0.02476 0.67747 0.0
O171 O 0.26384 0.02999 0.68179 0.0
O172 O 0.34781 0.05556 0.68159 0.0
O173 O 0.29576 0.07733 0.7328 0.0
O174 O 0.32399 0.07252 0.72546 0.0
C175 C 0.27104 0.01703 0.67755 0.0
C176 C 0.31185 0.08627 0.63415 0.0
O177 O 0.3225 0.07683 0.64302 0.0
O178 O 0.29533 0.08344 0.64992 0.0
C179 C 0.35079 0.04008 0.67272 0.0
O180 O 0.33371 0.02162 0.66063 0.0
C181 C 0.31418 0.0796 0.74263 0.0
Zn182 Zn 0.98517 0.26208 0.71527 0.0
Zn183 Zn 0.97674 0.29464 0.70179 0.0
O184 O 0.01102 0.31013 0.69842 0.0
O185 O 0.01858 0.28504 0.71539 0.0
O186 O 0.96958 0.31884 0.69665 0.0
O187 O 0.96736 0.2537 0.75517 0.0
O188 O 0.96322 0.28215 0.74569 0.0
C189 C 0.02522 0.30442 0.70531 0.0
C190 C 0.95889 0.25512 0.65638 0.0
O191 O 0.96011 0.27313 0.66424 0.0
O192 O 0.96857 0.24755 0.67367 0.0
C193 C 0.98029 0.33696 0.68137 0.0
O194 O 0.99814 0.34131 0.66565 0.0
C195 C 0.96004 0.26594 0.76313 0.0
Zn196 Zn 0.72443 0.63637 0.6691 0.0
Zn197 Zn 0.7289 0.67503 0.67218 0.0
O198 O 0.69385 0.65284 0.67184 0.0
O199 O 0.69117 0.62074 0.66434 0.0
O200 O 0.73305 0.70571 0.66732 0.0
O201 O 0.74289 0.64205 0.63124 0.0
O202 O 0.74653 0.67487 0.63252 0.0
C203 C 0.68178 0.63178 0.66777 0.0
C204 C 0.74665 0.6597 0.72765 0.0
O205 O 0.74436 0.67512 0.71562 0.0
O206 O 0.73911 0.64161 0.71245 0.0
C207 C 0.72579 0.71547 0.68421 0.0
O208 O 0.71404 0.70549 0.70953 0.0
C209 C 0.75089 0.66122 0.6197 0.0
Zn210 Zn 0.40299 0.30084 0.66553 0.0
Zn211 Zn 0.36453 0.30107 0.66488 0.0
O212 O 0.39023 0.33421 0.66332 0.0
O213 O 0.42162 0.33401 0.66301 0.0
O214 O 0.33597 0.30239 0.66376 0.0
O215 O 0.39261 0.28269 0.62547 0.0
O216 O 0.36101 0.28262 0.62445 0.0
C217 C 0.41163 0.34467 0.66243 0.0
C218 C 0.37679 0.27997 0.7206 0.0
O219 O 0.36339 0.28498 0.70707 0.0
O220 O 0.39514 0.28533 0.70781 0.0
C221 C 0.33593 0.31945 0.67337 0.0
O222 O 0.35454 0.33635 0.68565 0.0
C223 C 0.37373 0.27679 0.61228 0.0
Zn224 Zn 0.7225 0.10812 0.65405 0.0
Zn225 Zn 0.71821 0.06825 0.66173 0.0
O226 O 0.68563 0.0625 0.66423 0.0
O227 O 0.68933 0.09522 0.65828 0.0
O228 O 0.71324 0.03692 0.66279 0.0
O229 O 0.73539 0.11179 0.61051 0.0
O230 O 0.73527 0.08091 0.61939 0.0
C231 C 0.67691 0.07454 0.66267 0.0
C232 C 0.74696 0.10538 0.71013 0.0
O233 O 0.73821 0.08512 0.70148 0.0
O234 O 0.74308 0.11825 0.6937 0.0
C235 C 0.69781 0.0227 0.64388 0.0
O236 O 0.68633 0.02902 0.62611 0.0
C237 C 0.74027 0.09772 0.60196 0.0
Zn238 Zn 0.94948 0.70795 0.67303 0.0
Zn239 Zn 0.95267 0.67211 0.66372 0.0
O240 O 0.98578 0.6984 0.6596 0.0
O241 O 0.98279 0.72761 0.66689 0.0
O242 O 0.95406 0.64386 0.66115 0.0
O243 O 0.93763 0.69862 0.7169 0.0
O244 O 0.94023 0.66926 0.70914 0.0
C245 C 0.99483 0.71947 0.66161 0.0
C246 C 0.92224 0.68129 0.61924 0.0
O247 O 0.93084 0.66957 0.62623 0.0
O248 O 0.92752 0.69836 0.63583 0.0
C249 C 0.93645 0.62553 0.66811 0.0
O250 O 0.91812 0.62559 0.67417 0.0
C251 C 0.93512 0.68053 0.72684 0.0
H252 H 0.16605 0.36787 0.11771 0.0
H253 H 0.13771 0.3769 0.02994 0.0
H254 H 0.11995 0.39038 0.12046 0.0
H255 H 0.14733 0.34123 0.04763 0.0
H256 H 0.16529 0.3658 0.02698 0.0
H257 H 0.16365 0.3361 0.10455 0.0
H258 H 0.2322 0.35358 0.09741 0.0
H259 H 0.20352 0.37637 0.02633 0.0
C260 C 0.15523 0.37208 0.10497 0.0
C261 C 0.14262 0.37818 0.12314 0.0
C262 C 0.15305 0.37061 0.07127 0.0
C263 C 0.13978 0.3779 0.0558 0.0
C264 C 0.12889 0.38618 0.07359 0.0
C265 C 0.13 0.38578 0.10709 0.0
C266 C 0.16161 0.35857 0.05139 0.0
C267 C 0.18153 0.35741 0.06484 0.0
C268 C 0.17944 0.34478 0.09233 0.0
C269 C 0.19797 0.34419 0.10512 0.0
C270 C 0.21768 0.3537 0.08772 0.0
C271 C 0.2196 0.36471 0.05892 0.0
C272 C 0.20182 0.3673 0.04815 0.0
H273 H 0.67569 0.81948 0.11927 0.0
H274 H 0.66878 0.78994 0.02607 0.0
H275 H 0.64986 0.75008 0.11078 0.0
H276 H 0.70214 0.83888 0.06024 0.0
H277 H 0.68214 0.82849 0.02796 0.0
H278 H 0.69526 0.85496 0.10924 0.0
H279 H 0.65448 0.88344 0.09392 0.0
H280 H 0.65846 0.84366 0.02028 0.0
C281 C 0.67036 0.80536 0.10388 0.0
C282 C 0.6624 0.78473 0.11849 0.0
C283 C 0.67248 0.80763 0.0703 0.0
C284 C 0.66652 0.78856 0.0517 0.0
C285 C 0.65808 0.76775 0.06625 0.0
C286 C 0.65598 0.76605 0.09948 0.0
C287 C 0.68382 0.83039 0.05447 0.0
C288 C 0.67567 0.84547 0.06516 0.0
C289 C 0.68283 0.85633 0.09505 0.0
C290 C 0.67442 0.86914 0.10658 0.0
C291 C 0.66067 0.87314 0.08593 0.0
C292 C 0.65584 0.86506 0.05425 0.0
C293 C 0.66262 0.85046 0.04439 0.0
H294 H 0.17679 0.83597 0.12928 0.0
H295 H 0.17783 0.81577 0.03273 0.0
H296 H 0.11788 0.78033 0.08705 0.0
H297 H 0.21249 0.83838 0.09948 0.0
H298 H 0.21195 0.84099 0.05741 0.0
H299 H 0.21073 0.86551 0.13497 0.0
H300 H 0.24924 0.9319 0.10022 0.0
H301 H 0.22378 0.87625 0.03522 0.0
C302 C 0.16818 0.82595 0.1083 0.0
C303 C 0.14567 0.80865 0.11071 0.0
C304 C 0.17996 0.82884 0.08006 0.0
C305 C 0.1687 0.81427 0.05406 0.0
C306 C 0.14641 0.79649 0.05647 0.0
C307 C 0.1349 0.79427 0.08456 0.0
C308 C 0.20533 0.84368 0.07972 0.0
C309 C 0.21429 0.86821 0.08415 0.0
C310 C 0.21652 0.87681 0.11503 0.0
C311 C 0.22846 0.89978 0.12098 0.0
C312 C 0.23905 0.91427 0.09537 0.0
C313 C 0.23873 0.90605 0.0646 0.0
C314 C 0.22479 0.88299 0.05882 0.0
H315 H 0.38628 0.20957 0.89345 0.0
H316 H 0.37414 0.22635 0.98657 0.0
H317 H 0.365 0.25616 0.90236 0.0
H318 H 0.40532 0.20841 0.95149 0.0
H319 H 0.38698 0.20174 0.98393 0.0
H320 H 0.35879 0.17495 0.90417 0.0
H321 H 0.35915 0.11557 0.92373 0.0
H322 H 0.39205 0.17001 0.99022 0.0
C323 C 0.38002 0.2176 0.90818 0.0
C324 C 0.37376 0.23171 0.89377 0.0
C325 C 0.37863 0.21414 0.94155 0.0
C326 C 0.37343 0.22727 0.96071 0.0
C327 C 0.36857 0.24254 0.94661 0.0
C328 C 0.36807 0.24395 0.91324 0.0
C329 C 0.38731 0.20039 0.95746 0.0
C330 C 0.37633 0.17573 0.94869 0.0
C331 C 0.36374 0.166 0.91989 0.0
C332 C 0.35816 0.14458 0.9103 0.0
C333 C 0.36382 0.13227 0.93063 0.0
C334 C 0.37574 0.14117 0.95948 0.0
C335 C 0.38197 0.16283 0.96845 0.0
H336 H 0.86099 0.18203 0.90138 0.0
H337 H 0.84032 0.20283 0.98298 0.0
H338 H 0.88016 0.25025 0.91201 0.0
H339 H 0.84706 0.15926 0.95114 0.0
H340 H 0.83297 0.16568 0.97998 0.0
H341 H 0.827 0.15372 0.88907 0.0
H342 H 0.7587 0.10067 0.89632 0.0
H343 H 0.79445 0.13907 0.98021 0.0
C344 C 0.85944 0.19465 0.9134 0.0
C345 C 0.87135 0.21658 0.9022 0.0
C346 C 0.84684 0.18913 0.9413 0.0
C347 C 0.84808 0.2064 0.95988 0.0
C348 C 0.86072 0.22851 0.94955 0.0
C349 C 0.87108 0.23318 0.92 0.0
C350 C 0.83555 0.16557 0.95385 0.0
C351 C 0.81342 0.14914 0.93667 0.0
C352 C 0.81246 0.14444 0.90358 0.0
C353 C 0.79276 0.12689 0.88913 0.0
C354 C 0.77403 0.11398 0.90768 0.0
C355 C 0.77446 0.11827 0.94036 0.0
C356 C 0.79405 0.13603 0.95475 0.0
H357 H 0.85098 0.64693 0.88905 0.0
H358 H 0.85928 0.62347 0.98107 0.0
H359 H 0.91489 0.65741 0.91864 0.0
H360 H 0.8191 0.6079 0.92578 0.0
H361 H 0.8232 0.61622 0.96644 0.0
H362 H 0.81478 0.63131 0.88324 0.0
H363 H 0.77734 0.65956 0.91505 0.0
H364 H 0.81041 0.63964 0.98387 0.0
C365 C 0.86138 0.64588 0.90765 0.0
C366 C 0.88385 0.65369 0.90094 0.0
C367 C 0.85219 0.63521 0.93678 0.0
C368 C 0.86619 0.63268 0.95928 0.0
C369 C 0.88887 0.64104 0.95297 0.0
C370 C 0.89759 0.65172 0.92401 0.0
C371 C 0.82701 0.62282 0.94168 0.0
C372 C 0.8157 0.63587 0.9343 0.0
C373 C 0.81004 0.63805 0.90247 0.0
C374 C 0.79713 0.64761 0.89529 0.0
C375 C 0.78898 0.65411 0.92052 0.0
C376 C 0.79312 0.65075 0.95255 0.0
C377 C 0.80733 0.64252 0.95926 0.0
H378 H 0.83088 0.68827 0.45628 0.0
H379 H 0.80409 0.69058 0.36288 0.0
H380 H 0.78876 0.71529 0.44542 0.0
H381 H 0.81563 0.65752 0.3976 0.0
H382 H 0.82862 0.67662 0.36637 0.0
H383 H 0.83832 0.66093 0.44925 0.0
H384 H 0.90748 0.68437 0.43233 0.0
H385 H 0.86902 0.69725 0.36316 0.0
C386 C 0.82196 0.69346 0.4406 0.0
C387 C 0.8106 0.70276 0.45445 0.0
C388 C 0.82024 0.68933 0.40735 0.0
C389 C 0.80684 0.69486 0.38813 0.0
C390 C 0.79597 0.70484 0.40169 0.0
C391 C 0.79844 0.70913 0.43466 0.0
C392 C 0.82849 0.67518 0.3929 0.0
C393 C 0.85115 0.67943 0.40535 0.0
C394 C 0.85288 0.67009 0.43455 0.0
C395 C 0.87327 0.67211 0.44453 0.0
C396 C 0.89164 0.68259 0.42455 0.0
C397 C 0.89026 0.69149 0.39515 0.0
C398 C 0.87017 0.69045 0.38597 0.0
H399 H 0.35438 0.16917 0.46365 0.0
H400 H 0.33183 0.14255 0.3678 0.0
H401 H 0.32599 0.0999 0.44546 0.0
H402 H 0.36861 0.19297 0.41225 0.0
H403 H 0.35376 0.18168 0.37515 0.0
H404 H 0.34127 0.1907 0.45961 0.0
H405 H 0.31362 0.2293 0.42781 0.0
H406 H 0.33334 0.19841 0.35877 0.0
C407 C 0.34581 0.15526 0.44719 0.0
C408 C 0.33929 0.13403 0.45852 0.0
C409 C 0.34243 0.15852 0.41452 0.0
C410 C 0.33342 0.14024 0.3932 0.0
C411 C 0.32807 0.11931 0.40434 0.0
C412 C 0.3305 0.11625 0.43694 0.0
C413 C 0.35157 0.18172 0.4014 0.0
C414 C 0.33742 0.19172 0.40839 0.0
C415 C 0.33499 0.19624 0.44018 0.0
C416 C 0.32665 0.20991 0.44741 0.0
C417 C 0.31909 0.21788 0.42242 0.0
C418 C 0.32126 0.21369 0.39036 0.0
C419 C 0.33053 0.20066 0.38344 0.0
H420 H 0.85812 0.15036 0.48489 0.0
H421 H 0.86131 0.13231 0.38782 0.0
H422 H 0.79848 0.10048 0.43599 0.0
H423 H 0.8941 0.1525 0.45767 0.0
H424 H 0.89523 0.15576 0.41554 0.0
H425 H 0.89086 0.18006 0.4925 0.0
H426 H 0.93246 0.24675 0.4604 0.0
H427 H 0.91116 0.19231 0.3947 0.0
C428 C 0.84997 0.14157 0.4629 0.0
C429 C 0.82671 0.12625 0.46266 0.0
C430 C 0.86262 0.14454 0.43558 0.0
C431 C 0.85162 0.13116 0.40832 0.0
C432 C 0.82849 0.11507 0.40828 0.0
C433 C 0.81612 0.11336 0.43518 0.0
C434 C 0.88814 0.15851 0.43727 0.0
C435 C 0.89791 0.18321 0.44222 0.0
C436 C 0.89841 0.19144 0.47294 0.0
C437 C 0.91041 0.21433 0.47949 0.0
C438 C 0.9219 0.22918 0.45482 0.0
C439 C 0.92259 0.22145 0.42429 0.0
C440 C 0.91013 0.19842 0.41791 0.0
H441 H 0.05808 0.54572 0.22383 0.0
H442 H 0.04611 0.56266 0.31696 0.0
H443 H 0.03761 0.59294 0.23261 0.0
H444 H 0.07568 0.54218 0.27936 0.0
H445 H 0.05946 0.53825 0.31365 0.0
H446 H 0.02875 0.51161 0.23413 0.0
H447 H 0.02051 0.44879 0.25748 0.0
H448 H 0.05867 0.50402 0.32169 0.0
C449 C 0.0522 0.5541 0.23859 0.0
C450 C 0.04623 0.56836 0.22426 0.0
C451 C 0.05062 0.55057 0.27185 0.0
C452 C 0.04564 0.56379 0.29111 0.0
C453 C 0.04107 0.57926 0.27701 0.0
C454 C 0.0407 0.58077 0.24362 0.0
C455 C 0.05831 0.53596 0.2872 0.0
C456 C 0.04469 0.51104 0.27958 0.0
C457 C 0.03178 0.50173 0.25087 0.0
C458 C 0.02351 0.47942 0.24253 0.0
C459 C 0.02678 0.46595 0.26396 0.0
C460 C 0.03913 0.47459 0.2927 0.0
C461 C 0.04825 0.49713 0.30012 0.0
H462 H 0.53438 0.50801 0.24772 0.0
H463 H 0.52168 0.52978 0.33582 0.0
H464 H 0.55363 0.57605 0.25973 0.0
H465 H 0.52267 0.48457 0.29786 0.0
H466 H 0.511 0.49158 0.32981 0.0
H467 H 0.50078 0.48028 0.2392 0.0
H468 H 0.43025 0.43549 0.24845 0.0
H469 H 0.47137 0.4676 0.33249 0.0
C470 C 0.53381 0.52068 0.26121 0.0
C471 C 0.54394 0.54229 0.24891 0.0
C472 C 0.52393 0.51551 0.29138 0.0
C473 C 0.52726 0.53305 0.31138 0.0
C474 C 0.53868 0.55501 0.30015 0.0
C475 C 0.54563 0.55918 0.26843 0.0
C476 C 0.51224 0.49174 0.30332 0.0
C477 C 0.48905 0.47669 0.28775 0.0
C478 C 0.48651 0.47258 0.25439 0.0
C479 C 0.46539 0.45789 0.24013 0.0
C480 C 0.44671 0.4467 0.25937 0.0
C481 C 0.44877 0.45005 0.29248 0.0
C482 C 0.46987 0.46511 0.30677 0.0
H483 H 0.5168 0.96727 0.21416 0.0
H484 H 0.52706 0.94701 0.30747 0.0
H485 H 0.58283 0.98627 0.24683 0.0
H486 H 0.48754 0.92798 0.24798 0.0
H487 H 0.48965 0.93372 0.28957 0.0
H488 H 0.48138 0.95211 0.20824 0.0
H489 H 0.43925 0.97413 0.24316 0.0
H490 H 0.47158 0.95175 0.30922 0.0
C491 C 0.52764 0.96815 0.23365 0.0
C492 C 0.55061 0.97868 0.22802 0.0
C493 C 0.51874 0.95693 0.26248 0.0
C494 C 0.53361 0.95662 0.28589 0.0
C495 C 0.55683 0.96759 0.28062 0.0
C496 C 0.56515 0.97883 0.25181 0.0
C497 C 0.49349 0.94175 0.26569 0.0
C498 C 0.48001 0.95282 0.25967 0.0
C499 C 0.47521 0.95678 0.22822 0.0
C500 C 0.46148 0.96558 0.22212 0.0
C501 C 0.45132 0.96912 0.24791 0.0
C502 C 0.45433 0.96352 0.27922 0.0
C503 C 0.46937 0.95621 0.28511 0.0
H504 H 0.49987 0.02375 0.77335 0.0
H505 H 0.46383 0.01393 0.6831 0.0
H506 H 0.44843 0.03934 0.76475 0.0
H507 H 0.48036 0.9878 0.7081 0.0
H508 H 0.49813 0.01152 0.68588 0.0
H509 H 0.49624 0.98937 0.77039 0.0
H510 H 0.56364 1.00287 0.76599 0.0
H511 H 0.53573 0.02092 0.6873 0.0
C512 C 0.48756 0.02475 0.75848 0.0
C513 C 0.47463 0.03222 0.77269 0.0
C514 C 0.48362 0.01768 0.72614 0.0
C515 C 0.46739 0.01964 0.70779 0.0
C516 C 0.45528 0.02831 0.72126 0.0
C517 C 0.45907 0.03447 0.75366 0.0
C518 C 0.49392 1.00555 0.71088 0.0
C519 C 0.51397 1.00624 0.72766 0.0
C520 C 0.51185 0.99633 0.75787 0.0
C521 C 0.52994 0.99561 0.7722 0.0
C522 C 0.54951 1.00312 0.75496 0.0
C523 C 0.55164 0.01191 0.72426 0.0
C524 C 0.53408 0.01404 0.71104 0.0
H525 H 0.99428 0.49131 0.78953 0.0
H526 H 0.98621 0.46789 0.69181 0.0
H527 H 0.97751 0.42518 0.77088 0.0
H528 H 0.01683 0.51587 0.73282 0.0
H529 H 0.9984 0.50524 0.69889 0.0
H530 H 1.0025 0.5242 0.78412 0.0
H531 H 0.96664 0.55683 0.76372 0.0
H532 H 0.97552 0.52075 0.68909 0.0
C533 C 0.98951 0.47837 0.77214 0.0
C534 C 0.98506 0.45775 0.7836 0.0
C535 C 0.98956 0.48236 0.73881 0.0
C536 C 0.98511 0.465 0.71738 0.0
C537 C 0.9805 0.44426 0.72879 0.0
C538 C 0.98022 0.44082 0.76185 0.0
C539 C 0.99874 0.50574 0.72551 0.0
C540 C 0.98763 0.51819 0.73648 0.0
C541 C 0.99167 0.52661 0.76791 0.0
C542 C 0.98335 0.53973 0.77816 0.0
C543 C 0.97177 0.54549 0.75626 0.0
C544 C 0.96939 0.53928 0.72395 0.0
C545 C 0.97693 0.52522 0.71417 0.0
H546 H 0.50272 0.4917 0.81036 0.0
H547 H 0.49684 0.48346 0.70776 0.0
H548 H 0.43986 0.44383 0.76604 0.0
H549 H 0.53528 0.49804 0.77208 0.0
H550 H 0.53273 0.50364 0.73139 0.0
H551 H 0.53437 0.52357 0.81529 0.0
H552 H 0.58178 0.59066 0.79057 0.0
H553 H 0.54816 0.54097 0.71647 0.0
C554 C 0.49255 0.48496 0.78869 0.0
C555 C 0.46993 0.46805 0.79134 0.0
C556 C 0.50243 0.49122 0.75845 0.0
C557 C 0.48914 0.48007 0.73091 0.0
C558 C 0.46659 0.46283 0.73346 0.0
C559 C 0.457 0.4576 0.76364 0.0
C560 C 0.52779 0.50521 0.75586 0.0
C561 C 0.53866 0.52961 0.76468 0.0
C562 C 0.54202 0.53604 0.79705 0.0
C563 C 0.55716 0.55816 0.80645 0.0
C564 C 0.56872 0.57411 0.78295 0.0
C565 C 0.56597 0.5682 0.75032 0.0
C566 C 0.55016 0.54598 0.74137 0.0
H567 H 0.70367 0.86711 0.5683 0.0
H568 H 0.69421 0.89275 0.65648 0.0
H569 H 0.70472 0.92805 0.56843 0.0
H570 H 0.70008 0.86075 0.65742 0.0
H571 H 0.67335 0.84732 0.63842 0.0
H572 H 0.6739 0.83216 0.5769 0.0
H573 H 0.7037 0.79218 0.5839 0.0
H574 H 0.71294 0.83608 0.66091 0.0
C575 C 0.70223 0.87925 0.58169 0.0
C576 C 0.70375 0.89723 0.56487 0.0
C577 C 0.69795 0.87686 0.61482 0.0
C578 C 0.69744 0.89415 0.6311 0.0
C579 C 0.70007 0.91275 0.6145 0.0
C580 C 0.70299 0.91392 0.58147 0.0
C581 C 0.69153 0.85566 0.63341 0.0
C582 C 0.69546 0.83829 0.61861 0.0
C583 C 0.68489 0.82776 0.5892 0.0
C584 C 0.68835 0.81159 0.57575 0.0
C585 C 0.70092 0.80465 0.59365 0.0
C586 C 0.70883 0.81247 0.62488 0.0
C587 C 0.70663 0.82978 0.6369 0.0
H588 H 0.19903 0.84783 0.55415 0.0
H589 H 0.19304 0.86698 0.64879 0.0
H590 H 0.21958 0.91541 0.57426 0.0
H591 H 0.19468 0.82503 0.60514 0.0
H592 H 0.18276 0.82952 0.63909 0.0
H593 H 0.17036 0.81458 0.54984 0.0
H594 H 0.10201 0.76433 0.56573 0.0
H595 H 0.14319 0.80599 0.64426 0.0
C596 C 0.19942 0.85999 0.57004 0.0
C597 C 0.20927 0.88206 0.55971 0.0
C598 C 0.19194 0.85392 0.60149 0.0
C599 C 0.19661 0.8709 0.62374 0.0
C600 C 0.20703 0.89316 0.61392 0.0
C601 C 0.21199 0.89827 0.58164 0.0
C602 C 0.18288 0.83019 0.61249 0.0
C603 C 0.15965 0.81316 0.59863 0.0
C604 C 0.1566 0.80675 0.56598 0.0
C605 C 0.13581 0.7893 0.55408 0.0
C606 C 0.11815 0.77777 0.57493 0.0
C607 C 0.12067 0.78366 0.60727 0.0
C608 C 0.14127 0.8016 0.61908 0.0
H609 H 0.17635 0.30306 0.55145 0.0
H610 H 0.19949 0.30342 0.64831 0.0
H611 H 0.24333 0.31733 0.5699 0.0
H612 H 0.14975 0.28628 0.59772 0.0
H613 H 0.16098 0.29261 0.63786 0.0
H614 H 0.16846 0.32772 0.56369 0.0
H615 H 0.14505 0.36524 0.60964 0.0
H616 H 0.14363 0.31036 0.65798 0.0
C617 C 0.18974 0.30633 0.5685 0.0
C618 C 0.21066 0.31184 0.55704 0.0
C619 C 0.18592 0.30476 0.60152 0.0
C620 C 0.2026 0.30599 0.62294 0.0
C621 C 0.22308 0.30991 0.61134 0.0
C622 C 0.22722 0.31354 0.57861 0.0
C623 C 0.16328 0.29949 0.61328 0.0
C624 C 0.15984 0.31915 0.61292 0.0
C625 C 0.16301 0.33165 0.58501 0.0
C626 C 0.15697 0.34777 0.58318 0.0
C627 C 0.14852 0.352 0.61044 0.0
C628 C 0.14219 0.3378 0.63703 0.0
C629 C 0.14871 0.32192 0.63836 0.0
H630 H 0.96771 0.43925 0.11241 0.0
H631 H 0.01657 0.41977 0.10337 0.0
H632 H 0.03467 0.43827 0.15395 0.0
H633 H 0.03623 0.45906 0.20148 0.0
H634 H 0.98847 0.47967 0.21108 0.0
H635 H 0.97054 0.46198 0.15936 0.0
C636 C 0.98232 0.43907 0.12152 0.0
C637 C 0.99062 0.42793 0.10412 0.0
C638 C 0.99289 0.45001 0.15067 0.0
C639 C 0.00975 0.42812 0.11615 0.0
C640 C 0.02014 0.4387 0.14515 0.0
C641 C 0.02186 0.45966 0.19224 0.0
C642 C 0.01346 0.47037 0.21021 0.0
C643 C 0.01178 0.44953 0.16268 0.0
C644 C 0.99518 0.47147 0.19767 0.0
C645 C 0.9849 0.46127 0.16821 0.0
H646 H 0.57674 0.54748 0.10787 0.0
H647 H 0.62657 0.61387 0.13936 0.0
H648 H 0.60911 0.60664 0.19164 0.0
H649 H 0.58134 0.58063 0.22897 0.0
H650 H 0.52884 0.51556 0.19525 0.0
H651 H 0.54618 0.52295 0.14333 0.0
C652 C 0.58364 0.56039 0.12617 0.0
C653 C 0.60298 0.58107 0.12011 0.0
C654 C 0.57329 0.55625 0.15576 0.0
C655 C 0.61164 0.59784 0.14363 0.0
C656 C 0.60175 0.59366 0.17349 0.0
C657 C 0.57321 0.56817 0.2102 0.0
C658 C 0.55381 0.54741 0.21648 0.0
C659 C 0.58274 0.57281 0.17992 0.0
C660 C 0.54407 0.53145 0.19166 0.0
C661 C 0.55385 0.53573 0.16176 0.0
H662 H 0.43034 0.96033 0.07793 0.0
H663 H 0.43341 0.02099 0.10346 0.0
H664 H 0.44723 0.01927 0.15755 0.0
H665 H 0.45704 0.99943 0.19801 0.0
H666 H 0.45174 0.93787 0.17101 0.0
H667 H 0.44045 0.9413 0.11685 0.0
C668 C 0.43403 0.9733 0.09516 0.0
C669 C 0.43066 0.99071 0.08661 0.0
C670 C 0.44166 0.97206 0.12598 0.0
C671 C 0.43581 0.00739 0.10936 0.0
C672 C 0.44365 1.00636 0.1403 0.0
C673 C 0.4534 0.98678 0.18024 0.0
C674 C 0.45551 0.96853 0.18866 0.0
C675 C 0.44639 0.98859 0.14898 0.0
C676 C 0.45085 0.95236 0.16523 0.0
C677 C 0.44414 0.95418 0.13423 0.0
H678 H 0.44377 0.03512 0.91066 0.0
H679 H 0.44499 0.97467 0.9169 0.0
H680 H 0.46351 0.98256 0.86602 0.0
H681 H 0.47394 1.00334 0.81627 0.0
H682 H 0.47243 0.06349 0.80851 0.0
H683 H 0.45986 0.05918 0.86354 0.0
C684 C 0.44839 0.02386 0.9011 0.0
C685 C 0.44249 1.00408 0.91732 0.0
C686 C 0.45889 0.02835 0.8714 0.0
C687 C 0.44888 0.98981 0.90472 0.0
C688 C 0.45955 0.99431 0.87558 0.0
C689 C 0.47166 0.01597 0.82691 0.0
C690 C 0.4738 0.03352 0.80811 0.0
C691 C 0.46391 0.0131 0.8582 0.0
C692 C 0.47057 0.04962 0.82234 0.0
C693 C 0.46326 0.0471 0.85375 0.0
H694 H 0.99903 0.42535 0.9182 0.0
H695 H 0.9437 0.43346 0.94035 0.0
H696 H 0.9454 0.44917 0.88762 0.0
H697 H 0.96057 0.45785 0.83316 0.0
H698 H 0.01487 0.44845 0.81065 0.0
H699 H 0.01583 0.4364 0.86536 0.0
C700 C 0.98748 0.43076 0.91166 0.0
C701 C 0.97115 0.428 0.93328 0.0
C702 C 0.98835 0.43959 0.88103 0.0
C703 C 0.95638 0.4352 0.92424 0.0
C704 C 0.95731 0.44421 0.894 0.0
C705 C 0.97286 0.45357 0.84056 0.0
C706 C 0.98762 0.45401 0.81806 0.0
C707 C 0.97295 0.44612 0.87194 0.0
C708 C 1.00334 0.4482 0.82769 0.0
C709 C 1.00383 0.44122 0.8589 0.0
H710 H 0.59929 0.60019 0.94257 0.0
H711 H 0.59901 0.53898 0.95045 0.0
H712 H 0.58002 0.52687 0.89839 0.0
H713 H 0.56599 0.53451 0.84918 0.0
H714 H 0.5655 0.59514 0.84004 0.0
H715 H 0.58237 0.60662 0.89403 0.0
C716 C 0.59497 0.58416 0.93295 0.0
C717 C 0.60079 0.57065 0.95038 0.0
C718 C 0.58396 0.57718 0.90276 0.0
C719 C 0.59488 0.54983 0.93761 0.0
C720 C 0.58399 0.54283 0.90777 0.0
C721 C 0.56894 0.54996 0.85923 0.0
C722 C 0.56434 0.56387 0.84065 0.0
C723 C 0.57871 0.55646 0.89001 0.0
C724 C 0.56895 0.58415 0.85385 0.0
C725 C 0.57862 0.59073 0.88467 0.0
H726 H 0.99582 0.58553 0.91244 0.0
H727 H 0.06392 0.60145 0.90029 0.0
H728 H 0.05274 0.58088 0.84987 0.0
H729 H 0.02421 0.55981 0.80826 0.0
H730 H 0.95595 0.54317 0.82 0.0
H731 H 0.96669 0.56279 0.87159 0.0
C732 C 1.0082 0.58447 0.89879 0.0
C733 C 0.03068 0.59511 0.91006 0.0
C734 C 1.00167 0.57255 0.86978 0.0
C735 C 0.04649 0.59345 0.89218 0.0
C736 C 0.04015 0.5817 0.86332 0.0
C737 C 0.01156 0.56004 0.82241 0.0
C738 C 0.9893 0.54994 0.81052 0.0
C739 C 0.01784 0.57131 0.85184 0.0
C740 C 0.97323 0.55092 0.82871 0.0
C741 C 0.97935 0.5621 0.85815 0.0
H742 H 0.4176 0.41302 0.91194 0.0
H743 H 0.43316 0.47799 0.94241 0.0
H744 H 0.45437 0.49437 0.89439 0.0
H745 H 0.46722 0.49023 0.84214 0.0
H746 H 0.45076 0.42531 0.81071 0.0
H747 H 0.43151 0.40906 0.86052 0.0
C748 C 0.42572 0.43076 0.90814 0.0
C749 C 0.42359 0.44414 0.93073 0.0
C750 C 0.4378 0.44017 0.88017 0.0
C751 C 0.43428 0.46716 0.92536 0.0
C752 C 0.44651 0.47663 0.89788 0.0
C753 C 0.45961 0.4726 0.84649 0.0
C754 C 0.46022 0.45895 0.82287 0.0
C755 C 0.44821 0.46329 0.87494 0.0
C756 C 0.45026 0.43608 0.82856 0.0
C757 C 0.43926 0.42678 0.85699 0.0
H758 H 0.55039 1.00093 0.91906 0.0
H759 H 0.57636 0.95996 0.89167 0.0
H760 H 0.55958 0.95542 0.83793 0.0
H761 H 0.5428 0.968 0.7968 0.0
H762 H 0.51784 0.00983 0.82392 0.0
H763 H 0.52822 0.00848 0.87992 0.0
C764 C 0.55207 0.99069 0.90148 0.0
C765 C 0.56501 0.98117 0.90915 0.0
C766 C 0.54255 0.98833 0.87058 0.0
C767 C 0.56664 0.9676 0.88634 0.0
C768 C 0.55712 0.96508 0.85555 0.0
C769 C 0.53918 0.97638 0.81513 0.0
C770 C 0.52994 0.98931 0.8062 0.0
C771 C 0.54581 0.97607 0.8471 0.0
C772 C 0.52494 0.99978 0.83017 0.0
C773 C 0.53113 0.99924 0.86214 0.0
H774 H 0.57318 0.01176 0.08589 0.0
H775 H 0.59503 0.9647 0.08742 0.0
H776 H 0.58563 0.95707 0.1436 0.0
H777 H 0.57083 0.96332 0.19206 0.0
H778 H 0.54695 0.00858 0.1905 0.0
H779 H 0.55769 0.01757 0.13448 0.0
C780 C 0.57587 0.99983 0.09852 0.0
C781 C 0.58481 0.98884 0.08248 0.0
C782 C 0.57024 0.99535 0.1308 0.0
C783 C 0.58807 0.97332 0.09912 0.0
C784 C 0.5828 0.96901 0.1313 0.0
C785 C 0.56833 0.97542 0.17951 0.0
C786 C 0.55857 0.98565 0.19526 0.0
C787 C 0.57393 0.97994 0.14734 0.0
C788 C 0.55472 1.00078 0.17872 0.0
C789 C 0.56076 1.0058 0.14679 0.0
H790 H 0.07021 0.59939 0.0822 0.0
H791 H 1.00613 0.59487 0.0854 0.0
H792 H 1.0004 0.57898 0.13876 0.0
H793 H 0.01493 0.56937 0.18609 0.0
H794 H 0.07965 0.57546 0.18423 0.0
H795 H 0.0835 0.58713 0.12832 0.0
C796 C 0.0549 0.59478 0.09444 0.0
C797 C 0.03877 0.5986 0.07996 0.0
C798 C 0.05179 0.58585 0.12527 0.0
C799 C 0.01893 0.59231 0.09606 0.0
C800 C 0.01561 0.5832 0.12658 0.0
C801 C 0.02979 0.57309 0.1733 0.0
C802 C 0.04709 0.57181 0.18925 0.0
C803 C 0.03214 0.58037 0.14164 0.0
C804 C 0.06608 0.57624 0.17237 0.0
C805 C 0.06837 0.58312 0.14054 0.0
H806 H 0.44226 0.4613 0.09519 0.0
H807 H 0.40603 0.39015 0.10632 0.0
H808 H 0.42235 0.39469 0.16046 0.0
H809 H 0.44335 0.41908 0.20657 0.0
H810 H 0.47965 0.49018 0.19514 0.0
H811 H 0.46735 0.4855 0.13879 0.0
C812 C 0.43815 0.44679 0.10936 0.0
C813 C 0.42266 0.42544 0.0971 0.0
C814 C 0.44761 0.44954 0.14032 0.0
C815 C 0.41781 0.40675 0.11536 0.0
C816 C 0.42708 0.40935 0.14632 0.0
C817 C 0.44885 0.43351 0.19151 0.0
C818 C 0.46209 0.45493 0.20495 0.0
C819 C 0.44146 0.43067 0.15934 0.0
C820 C 0.46945 0.47353 0.18525 0.0
C821 C 0.46225 0.47086 0.15315 0.0
H822 H 0.65656 0.78421 0.43045 0.0
H823 H 0.6554 0.72536 0.46198 0.0
H824 H 0.66501 0.74001 0.51673 0.0
H825 H 0.67352 0.76918 0.55519 0.0
H826 H 0.68122 0.83102 0.52276 0.0
H827 H 0.6681 0.81511 0.46912 0.0
C828 C 0.65848 0.7747 0.44941 0.0
C829 C 0.65526 0.75374 0.4424 0.0
C830 C 0.66481 0.7836 0.48064 0.0
C831 C 0.65796 0.74158 0.4669 0.0
C832 C 0.66332 0.7499 0.49817 0.0
C833 C 0.67299 0.77959 0.53644 0.0
C834 C 0.67881 0.80153 0.54336 0.0
C835 C 0.66688 0.77091 0.50525 0.0
C836 C 0.6767 0.81404 0.51859 0.0
C837 C 0.66944 0.80504 0.4877 0.0
H838 H 0.24242 0.89323 0.41763 0.0
H839 H 0.29387 0.95708 0.4557 0.0
H840 H 0.27592 0.94774 0.5076 0.0
H841 H 0.24724 0.92061 0.54258 0.0
H842 H 0.19331 0.85816 0.5033 0.0
H843 H 0.21102 0.86763 0.45142 0.0
C844 C 0.24959 0.90511 0.43731 0.0
C845 C 0.26952 0.9257 0.43312 0.0
C846 C 0.23893 0.89981 0.46679 0.0
C847 C 0.27852 0.94114 0.45848 0.0
C848 C 0.26832 0.93576 0.48812 0.0
C849 C 0.23884 0.90922 0.52263 0.0
C850 C 0.21889 0.88859 0.52721 0.0
C851 C 0.24867 0.91505 0.49261 0.0
C852 C 0.20887 0.87396 0.50088 0.0
C853 C 0.2189 0.87942 0.47108 0.0
H854 H 0.14764 0.36049 0.43597 0.0
H855 H 0.08974 0.36126 0.46717 0.0
H856 H 0.10163 0.3622 0.52306 0.0
H857 H 0.12487 0.3565 0.56206 0.0
H858 H 0.18466 0.35881 0.53169 0.0
H859 H 0.17554 0.3629 0.47622 0.0
C860 C 0.13795 0.36139 0.45506 0.0
C861 C 0.11768 0.36048 0.44758 0.0
C862 C 0.14497 0.36207 0.48713 0.0
C863 C 0.10539 0.36195 0.47238 0.0
C864 C 0.1121 0.36232 0.50433 0.0
C865 C 0.13651 0.35874 0.54372 0.0
C866 C 0.15512 0.35656 0.55124 0.0
C867 C 0.13141 0.36154 0.51194 0.0
C868 C 0.16974 0.35948 0.52662 0.0
C869 C 0.16461 0.36196 0.49485 0.0
H870 H 0.12047 0.33847 0.26199 0.0
H871 H 0.11108 0.39357 0.27598 0.0
H872 H 0.12467 0.40702 0.22231 0.0
H873 H 0.13686 0.40169 0.17026 0.0
H874 H 0.14207 0.34402 0.15544 0.0
H875 H 0.13354 0.33375 0.21094 0.0
C876 C 0.12157 0.35355 0.2535 0.0
C877 C 0.11462 0.3649 0.27296 0.0
C878 C 0.1289 0.3609 0.22246 0.0
C879 C 0.11617 0.3844 0.26144 0.0
C880 C 0.12396 0.39212 0.23075 0.0
C881 C 0.13608 0.38683 0.17904 0.0
C882 C 0.14022 0.37378 0.15829 0.0
C883 C 0.12996 0.38024 0.21081 0.0
C884 C 0.13958 0.35484 0.17065 0.0
C885 C 0.13432 0.34867 0.20244 0.0
H886 H 0.64086 0.77192 0.26512 0.0
H887 H 0.6784 0.73913 0.26025 0.0
H888 H 0.68651 0.74998 0.2044 0.0
H889 H 0.68009 0.76582 0.15571 0.0
H890 H 0.64291 0.79884 0.1602 0.0
H891 H 0.63772 0.79112 0.21762 0.0
C892 C 0.65103 0.76735 0.25196 0.0
C893 C 0.65875 0.75446 0.26678 0.0
C894 C 0.65556 0.77357 0.21977 0.0
C895 C 0.67215 0.74895 0.24947 0.0
C896 C 0.67673 0.75507 0.21746 0.0
C897 C 0.67097 0.77142 0.16938 0.0
C898 C 0.66154 0.78252 0.1538 0.0
C899 C 0.66804 0.76687 0.20219 0.0
C900 C 0.65019 0.79016 0.17175 0.0
C901 C 0.64716 0.78566 0.20449 0.0
H902 H 0.24113 0.90923 0.27056 0.0
H903 H 0.30593 0.96428 0.24501 0.0
H904 H 0.2939 0.95903 0.18851 0.0
H905 H 0.26704 0.93538 0.14675 0.0
H906 H 0.20048 0.88274 0.17202 0.0
H907 H 0.21121 0.89049 0.22862 0.0
C908 C 0.25235 0.9203 0.25256 0.0
C909 C 0.27439 0.93688 0.26148 0.0
C910 C 0.24517 0.91745 0.2203 0.0
C911 C 0.28887 0.9514 0.23838 0.0
C912 C 0.28204 0.94833 0.20616 0.0
C913 C 0.25443 0.92606 0.1643 0.0
C914 C 0.2331 0.90804 0.15479 0.0
C915 C 0.26046 0.93095 0.19679 0.0
C916 C 0.2173 0.8962 0.17849 0.0
C917 C 0.22336 0.90067 0.21093 0.0
H918 H 0.70136 0.89688 0.2526 0.0
H919 H 0.69213 0.9502 0.2227 0.0
H920 H 0.68313 0.93536 0.16792 0.0
H921 H 0.67929 0.90811 0.12864 0.0
H922 H 0.68279 0.85148 0.1603 0.0
H923 H 0.69338 0.86718 0.21407 0.0
C924 C 0.69726 0.90512 0.23402 0.0
C925 C 0.69751 0.92461 0.24136 0.0
C926 C 0.69142 0.89611 0.20291 0.0
C927 C 0.69194 0.9351 0.21742 0.0
C928 C 0.68691 0.92669 0.18615 0.0
C929 C 0.68178 0.89876 0.14722 0.0
C930 C 0.68036 0.8786 0.13983 0.0
C931 C 0.68669 0.90724 0.17861 0.0
C932 C 0.68435 0.86732 0.16464 0.0
C933 C 0.69016 0.87615 0.19566 0.0
H934 H 0.09883 0.80269 0.24071 0.0
H935 H 0.07918 0.73394 0.23138 0.0
H936 H 0.09929 0.74222 0.1814 0.0
H937 H 0.12254 0.76894 0.14057 0.0
H938 H 0.14301 0.83783 0.15029 0.0
H939 H 0.12274 0.8296 0.20031 0.0
C940 C 0.09883 0.78947 0.22768 0.0
C941 C 0.08736 0.76767 0.2397 0.0
C942 C 0.11068 0.79441 0.19919 0.0
C943 C 0.08782 0.75083 0.22269 0.0
C944 C 0.09933 0.75556 0.19411 0.0
C945 C 0.12239 0.78213 0.1535 0.0
C946 C 0.134 0.80392 0.14156 0.0
C947 C 0.1108 0.77727 0.18216 0.0
C948 C 0.13418 0.82093 0.159 0.0
C949 C 0.12253 0.81621 0.18749 0.0
H950 H 0.21816 0.34709 0.25164 0.0
H951 H 0.25235 0.31454 0.22067 0.0
H952 H 0.23532 0.30957 0.16699 0.0
H953 H 0.21529 0.31949 0.12728 0.0
H954 H 0.18291 0.35381 0.15826 0.0
H955 H 0.19376 0.35215 0.21367 0.0
C956 C 0.22167 0.33863 0.23327 0.0
C957 C 0.23689 0.33162 0.23994 0.0
C958 C 0.212 0.33604 0.20245 0.0
C959 C 0.24087 0.32028 0.21608 0.0
C960 C 0.23116 0.31748 0.18536 0.0
C961 C 0.21021 0.32619 0.14628 0.0
C962 C 0.19856 0.33704 0.13853 0.0
C963 C 0.21736 0.32601 0.17801 0.0
C964 C 0.19171 0.34524 0.16345 0.0
C965 C 0.19825 0.34461 0.19516 0.0
H966 H 0.23196 0.34773 0.41623 0.0
H967 H 0.26097 0.30668 0.41564 0.0
H968 H 0.24832 0.2944 0.46986 0.0
H969 H 0.23066 0.29676 0.51845 0.0
H970 H 0.20154 0.3376 0.51882 0.0
H971 H 0.21228 0.34828 0.46349 0.0
C972 C 0.23544 0.33602 0.4279 0.0
C973 C 0.24757 0.32831 0.41204 0.0
C974 C 0.22807 0.32898 0.45902 0.0
C975 C 0.25169 0.31292 0.42734 0.0
C976 C 0.24452 0.30592 0.45838 0.0
C977 C 0.22666 0.30796 0.50633 0.0
C978 C 0.21549 0.31654 0.52268 0.0
C979 C 0.23297 0.31408 0.4746 0.0
C980 C 0.21002 0.33072 0.50661 0.0
C981 C 0.21628 0.33693 0.47507 0.0
H982 H 0.72861 0.91708 0.42012 0.0
H983 H 0.67029 0.92341 0.41948 0.0
H984 H 0.66316 0.91066 0.47458 0.0
H985 H 0.67562 0.90154 0.5245 0.0
H986 H 0.73414 0.89584 0.52645 0.0
H987 H 0.73887 0.90411 0.46901 0.0
C988 C 0.71417 0.91541 0.43187 0.0
C989 C 0.7002 0.92153 0.41574 0.0
C990 C 0.71027 0.90826 0.4638 0.0
C991 C 0.68144 0.91903 0.43131 0.0
C992 C 0.67735 0.91176 0.46288 0.0
C993 C 0.68926 0.90187 0.51218 0.0
C994 C 0.70473 0.89845 0.52954 0.0
C995 C 0.692 0.90695 0.47957 0.0
C996 C 0.7221 0.8985 0.51344 0.0
C997 C 0.72485 0.90336 0.48073 0.0
H998 H 0.0925 0.74402 0.42152 0.0
H999 H 0.10718 0.81031 0.40149 0.0
H1000 H 0.12818 0.82365 0.45221 0.0
H1001 H 0.1386 0.81569 0.50512 0.0
H1002 H 0.12194 0.74914 0.52677 0.0
H1003 H 0.10603 0.73682 0.47254 0.0
C1004 C 0.10054 0.76144 0.42805 0.0
C1005 C 0.09796 0.77603 0.40785 0.0
C1006 C 0.11232 0.76899 0.45765 0.0
C1007 C 0.10859 0.79859 0.41672 0.0
C1008 C 0.12068 0.80629 0.44575 0.0
C1009 C 0.13208 0.79867 0.49753 0.0
C1010 C 0.13147 0.78334 0.51965 0.0
C1011 C 0.12216 0.79155 0.46678 0.0
C1012 C 0.12263 0.76121 0.50992 0.0
C1013 C 0.11338 0.75414 0.47906 0.0
H1014 H 0.3016 0.10213 0.78143 0.0
H1015 H 0.35109 0.08339 0.77304 0.0
H1016 H 0.36947 0.10286 0.82293 0.0
H1017 H 0.37148 0.12476 0.86907 0.0
H1018 H 0.32218 0.14342 0.87917 0.0
H1019 H 0.30409 0.12494 0.82798 0.0
C1020 C 0.31635 0.10223 0.79058 0.0
C1021 C 0.32483 0.09114 0.77349 0.0
C1022 C 0.327 0.11362 0.81939 0.0
C1023 C 0.34412 0.09167 0.78561 0.0
C1024 C 0.3547 0.10286 0.81416 0.0
C1025 C 0.35667 0.12469 0.8602 0.0
C1026 C 0.34798 0.13517 0.87813 0.0
C1027 C 0.34626 0.11381 0.83123 0.0
C1028 C 0.3292 0.13548 0.86583 0.0
C1029 C 0.31877 0.12477 0.8367 0.0
H1030 H 0.92196 0.22726 0.77382 0.0
H1031 H 0.9671 0.29214 0.81475 0.0
H1032 H 0.944 0.28218 0.86225 0.0
H1033 H 0.91162 0.25483 0.89196 0.0
H1034 H 0.86344 0.19166 0.84765 0.0
H1035 H 0.88749 0.20092 0.8018 0.0
C1036 C 0.92665 0.23912 0.79327 0.0
C1037 C 0.94618 0.26024 0.79134 0.0
C1038 C 0.91289 0.23354 0.81976 0.0
C1039 C 0.95209 0.27576 0.81609 0.0
C1040 C 0.93893 0.27006 0.84312 0.0
C1041 C 0.90591 0.2432 0.87205 0.0
C1042 C 0.88556 0.22252 0.87352 0.0
C1043 C 0.91929 0.249 0.84514 0.0
C1044 C 0.87913 0.20753 0.84765 0.0
C1045 C 0.89279 0.21288 0.82124 0.0
H1046 H 0.7558 0.63056 0.7552 0.0
H1047 H 0.76323 0.69444 0.77114 0.0
H1048 H 0.78084 0.69698 0.82396 0.0
H1049 H 0.79293 0.6802 0.86614 0.0
H1050 H 0.78322 0.61538 0.84937 0.0
H1051 H 0.76814 0.61439 0.7959 0.0
C1052 C 0.76125 0.64514 0.77007 0.0
C1053 C 0.75803 0.66223 0.75924 0.0
C1054 C 0.77114 0.64639 0.80018 0.0
C1055 C 0.76543 0.681 0.7789 0.0
C1056 C 0.77549 0.68245 0.80908 0.0
C1057 C 0.78752 0.66588 0.85074 0.0
C1058 C 0.78945 0.64799 0.86181 0.0
C1059 C 0.77824 0.66511 0.82008 0.0
C1060 C 0.78251 0.62964 0.84141 0.0
C1061 C 0.7736 0.62891 0.81088 0.0
H1062 H 0.77356 0.70145 0.5897 0.0
H1063 H 0.76025 0.63447 0.58579 0.0
H1064 H 0.78116 0.64286 0.53702 0.0
H1065 H 0.79926 0.66753 0.49227 0.0
H1066 H 0.81224 0.73429 0.49442 0.0
H1067 H 0.79587 0.7278 0.54734 0.0
C1068 C 0.77538 0.68876 0.57828 0.0
C1069 C 0.76499 0.66727 0.59118 0.0
C1070 C 0.78745 0.69364 0.54995 0.0
C1071 C 0.7678 0.6511 0.57629 0.0
C1072 C 0.77984 0.65587 0.54836 0.0
C1073 C 0.79926 0.68095 0.50475 0.0
C1074 C 0.80687 0.70132 0.4894 0.0
C1075 C 0.78928 0.67689 0.5346 0.0
C1076 C 0.80637 0.7184 0.50574 0.0
C1077 C 0.79685 0.71464 0.53585 0.0
H1078 H 0.34229 0.09186 0.58967 0.0
H1079 H 0.29508 0.11145 0.61232 0.0
H1080 H 0.3021 0.131 0.5617 0.0
H1081 H 0.31853 0.13919 0.50831 0.0
H1082 H 0.36405 0.11794 0.48443 0.0
H1083 H 0.36123 0.10288 0.53821 0.0
C1084 C 0.33374 0.10062 0.58372 0.0
C1085 C 0.31797 0.09989 0.60469 0.0
C1086 C 0.33759 0.11163 0.55424 0.0
C1087 C 0.30712 0.11146 0.59655 0.0
C1088 C 0.31114 0.12272 0.56757 0.0
C1089 C 0.32828 0.13181 0.51532 0.0
C1090 C 0.34154 0.12973 0.49271 0.0
C1091 C 0.32593 0.12248 0.54588 0.0
C1092 C 0.35383 0.11979 0.50167 0.0
C1093 C 0.35207 0.11103 0.53228 0.0
H1094 H 0.94018 0.26826 0.60956 0.0
H1095 H 0.95091 0.21511 0.63577 0.0
H1096 H 0.93466 0.19679 0.58455 0.0
H1097 H 0.9209 0.19754 0.53072 0.0
H1098 H 0.91026 0.25041 0.50311 0.0
H1099 H 0.92301 0.26718 0.55656 0.0
C1100 C 0.93873 0.25256 0.60419 0.0
C1101 C 0.94702 0.24325 0.62638 0.0
C1102 C 0.92952 0.24211 0.57442 0.0
C1103 C 0.94491 0.22282 0.61907 0.0
C1104 C 0.93559 0.21227 0.58976 0.0
C1105 C 0.92071 0.21236 0.5366 0.0
C1106 C 0.91457 0.22267 0.51302 0.0
C1107 C 0.92829 0.22199 0.56705 0.0
C1108 C 0.91502 0.24223 0.52086 0.0
C1109 C 0.92233 0.25182 0.55137 0.0
H1110 H 0.33365 0.25822 0.57803 0.0
H1111 H 0.39887 0.26485 0.57976 0.0
H1112 H 0.38923 0.2436 0.53044 0.0
H1113 H 0.36367 0.2251 0.48547 0.0
H1114 H 0.29811 0.21734 0.48196 0.0
H1115 H 0.30661 0.23725 0.53328 0.0
C1116 C 0.34569 0.25494 0.56763 0.0
C1117 C 0.367 0.26329 0.58258 0.0
C1118 C 0.34005 0.24256 0.53897 0.0
C1119 C 0.38236 0.25876 0.56885 0.0
C1120 C 0.3769 0.24656 0.54058 0.0
C1121 C 0.3509 0.22714 0.49625 0.0
C1122 C 0.33017 0.21948 0.4801 0.0
C1123 C 0.35592 0.23857 0.52536 0.0
C1124 C 0.31421 0.22307 0.49398 0.0
C1125 C 0.31908 0.23445 0.52326 0.0
H1126 H 0.77847 0.09727 0.59529 0.0
H1127 H 0.73106 0.10859 0.54366 0.0
H1128 H 0.75373 0.11865 0.49583 0.0
H1129 H 0.78747 0.12488 0.46904 0.0
H1130 H 0.83643 0.1164 0.52186 0.0
H1131 H 0.81309 0.10504 0.56909 0.0
C1132 C 0.77304 0.10166 0.57337 0.0
C1133 C 0.753 0.10183 0.57261 0.0
C1134 C 0.78665 0.10832 0.54645 0.0
C1135 C 0.74635 0.10815 0.54451 0.0
C1136 C 0.75935 0.114 0.51728 0.0
C1137 C 0.79303 0.12066 0.491 0.0
C1138 C 0.81363 0.12154 0.49209 0.0
C1139 C 0.77962 0.11433 0.51806 0.0
C1140 C 0.82076 0.11613 0.52064 0.0
C1141 C 0.80733 0.10943 0.54752 0.0
H1142 H 0.91654 0.6557 0.5666 0.0
H1143 H 0.89324 0.69549 0.60845 0.0
H1144 H 0.8723 0.69259 0.55925 0.0
H1145 H 0.86525 0.68363 0.50188 0.0
H1146 H 0.89 0.64562 0.45875 0.0
H1147 H 0.90519 0.64249 0.51071 0.0
C1148 C 0.90652 0.66334 0.56513 0.0
C1149 C 0.90683 0.67611 0.59101 0.0
C1150 C 0.89481 0.66202 0.53635 0.0
C1151 C 0.89367 0.68588 0.58871 0.0
C1152 C 0.88162 0.68422 0.56056 0.0
C1153 C 0.8733 0.67404 0.50413 0.0
C1154 C 0.87662 0.66497 0.47662 0.0
C1155 C 0.88271 0.67302 0.53385 0.0
C1156 C 0.88735 0.65281 0.4797 0.0
C1157 C 0.89618 0.65117 0.50935 0.0
H1158 H 0.91475 0.69558 0.76446 0.0
H1159 H 0.93544 0.64771 0.76155 0.0
H1160 H 0.92166 0.63552 0.81544 0.0
H1161 H 0.90394 0.63862 0.86337 0.0
H1162 H 0.88205 0.68548 0.86567 0.0
H1163 H 0.89606 0.69793 0.81174 0.0
C1164 C 0.91629 0.6825 0.77561 0.0
C1165 C 0.92626 0.67267 0.75909 0.0
C1166 C 0.90815 0.67544 0.8064 0.0
C1167 C 0.92787 0.65556 0.77374 0.0
C1168 C 0.92003 0.64861 0.80456 0.0
C1169 C 0.90244 0.6517 0.8521 0.0
C1170 C 0.89231 0.6614 0.86846 0.0
C1171 C 0.91024 0.65851 0.82112 0.0
C1172 C 0.8899 0.6779 0.85346 0.0
C1173 C 0.89791 0.685 0.82273 0.0
H1174 H 0.40146 0.26643 0.75391 0.0
H1175 H 0.33964 0.2664 0.75654 0.0
H1176 H 0.33182 0.24845 0.80876 0.0
H1177 H 0.34395 0.23542 0.85518 0.0
H1178 H 0.40699 0.23783 0.85388 0.0
H1179 H 0.41247 0.2514 0.79896 0.0
C1180 C 0.3862 0.26242 0.76576 0.0
C1181 C 0.37129 0.26803 0.75145 0.0
C1182 C 0.38193 0.25233 0.79587 0.0
C1183 C 0.3515 0.26247 0.76709 0.0
C1184 C 0.34699 0.25217 0.79693 0.0
C1185 C 0.35883 0.23878 0.84278 0.0
C1186 C 0.37515 0.23584 0.85875 0.0
C1187 C 0.3623 0.24741 0.81175 0.0
C1188 C 0.39408 0.23978 0.84215 0.0
C1189 C 0.39737 0.24782 0.81087 0.0
H1190 H 0.75674 0.08259 0.75432 0.0
H1191 H 0.76836 0.14776 0.7338 0.0
H1192 H 0.78725 0.16132 0.78583 0.0
H1193 H 0.7962 0.15353 0.83994 0.0
H1194 H 0.78317 0.08816 0.8614 0.0
H1195 H 0.76969 0.07601 0.80627 0.0
C1196 C 0.76366 0.09983 0.76104 0.0
C1197 C 0.76075 0.11397 0.74027 0.0
C1198 C 0.77434 0.10755 0.7913 0.0
C1199 C 0.77004 0.13634 0.74937 0.0
C1200 C 0.78091 0.14419 0.77919 0.0
C1201 C 0.79109 0.13688 0.83214 0.0
C1202 C 0.79069 0.12176 0.85448 0.0
C1203 C 0.78261 0.1298 0.80071 0.0
C1204 C 0.78368 0.10007 0.84441 0.0
C1205 C 0.77578 0.09308 0.81301 0.0
H1206 H 0.07259 0.43019 0.04048 0.0
H1207 H 0.0268 0.36495 0.0006 0.0
H1208 H 0.05473 0.35451 0.01075 0.0
H1209 H 0.09088 0.36271 0.0361 0.0
H1210 H 0.13548 0.42733 0.0782 0.0
H1211 H 0.10956 0.43931 0.06171 0.0
C1212 C 0.06877 0.41377 0.0336 0.0
C1213 C 0.04749 0.39835 0.02004 0.0
C1214 C 0.08478 0.40774 0.04 0.0
C1215 C 0.04296 0.37716 0.01124 0.0
C1216 C 0.05894 0.37114 0.01709 0.0
C1217 C 0.09508 0.37956 0.04088 0.0
C1218 C 0.11506 0.39421 0.05812 0.0
C1219 C 0.07973 0.38612 0.03213 0.0
C1220 C 0.12022 0.41587 0.06478 0.0
C1221 C 0.10535 0.42266 0.05553 0.0
H1222 H 0.62732 0.67015 0.03024 0.0
H1223 H 0.69647 0.70211 0.00282 0.0
H1224 H 0.70118 0.73855 0.01115 0.0
H1225 H 0.6869 0.7612 0.0329 0.0
H1226 H 0.61809 0.72892 0.06146 0.0
H1227 H 0.6118 0.69284 0.04534 0.0
C1228 C 0.64336 0.68508 0.02575 0.0
C1229 C 0.66161 0.68338 0.01645 0.0
C1230 C 0.64597 0.70597 0.03069 0.0
C1231 C 0.68217 0.70291 0.01023 0.0
C1232 C 0.6849 0.72379 0.01503 0.0
C1233 C 0.67037 0.74631 0.03448 0.0
C1234 C 0.65294 0.74761 0.04817 0.0
C1235 C 0.66709 0.72553 0.02607 0.0
C1236 C 0.63167 0.72823 0.05076 0.0
C1237 C 0.62815 0.70761 0.04186 0.0
H1238 H 0.3307 0.98003 0.01034 0.0
H1239 H 0.32936 0.92166 0.97649 0.0
H1240 H 0.29052 0.89842 0.99149 0.0
H1241 H 0.26004 0.89389 0.02307 0.0
H1242 H 0.25902 0.95152 0.05454 0.0
H1243 H 0.2957 0.97568 0.03148 0.0
C1244 C 0.32174 0.96231 0.00553 0.0
C1245 C 0.33326 0.95261 0.99318 0.0
C1246 C 0.29914 0.94877 0.01435 0.0
C1247 C 0.3212 0.92962 0.98664 0.0
C1248 C 0.2989 0.91622 -0.00476 0.0
C1249 C 0.26709 0.91166 0.02397 0.0
C1250 C 0.2568 0.92062 0.04182 0.0
C1251 C 0.28807 0.92549 0.01044 0.0
C1252 C 0.2668 0.94392 0.04229 0.0
C1253 C 0.28783 0.95784 0.02894 0.0
H1254 H 0.37906 0.06749 0.04067 0.0
H1255 H 0.42026 0.07204 0.96238 0.0
H1256 H 0.41924 0.10372 0.94124 0.0
H1257 H 0.40339 0.1276 0.9415 0.0
H1258 H 0.36222 0.12362 0.01897 0.0
H1259 H 0.36678 0.09461 0.04423 0.0
C1260 C 0.38805 0.07558 0.01922 0.0
C1261 C 0.39946 0.06709 0.00297 0.0
C1262 C 0.38739 0.09393 0.007 0.0
C1263 C 0.41119 0.078 0.97534 0.0
C1264 C 0.41061 0.09616 0.96314 0.0
C1265 C 0.3959 0.12072 0.96434 0.0
C1266 C 0.38254 0.12768 0.97847 0.0
C1267 C 0.39833 0.1039 0.9783 0.0
C1268 C 0.37277 0.11864 0.00791 0.0
C1269 C 0.37519 0.10191 0.02211 0.0
H1270 H 0.89072 0.32339 0.00017 0.0
H1271 H 0.95038 0.32171 0.02426 0.0
H1272 H 0.93043 0.28216 0.01147 0.0
H1273 H 0.89793 0.24943 0.9865 0.0
H1274 H 0.83937 0.25139 0.95737 0.0
H1275 H 0.85658 0.28914 0.97971 0.0
C1276 C 0.8992 0.31426 0.0032 0.0
C1277 C 0.9221 0.32559 0.0129 0.0
C1278 C 0.88775 0.29151 -0.0051 0.0
C1279 C 0.93287 0.31351 0.01652 0.0
C1280 C 0.92145 0.29085 0.00925 0.0
C1281 C 0.88866 0.25789 0.9862 0.0
C1282 C 0.8673 0.24764 0.97101 0.0
C1283 C 0.89914 0.27985 -0.00247 0.0
C1284 C 0.85562 0.25886 0.96967 0.0
C1285 C 0.86563 0.28052 0.98202 0.0
H1286 H 0.71252 0.64886 0.01537 0.0
H1287 H 0.70265 0.58666 0.04994 0.0
H1288 H 0.7397 0.59689 0.03227 0.0
H1289 H 0.77117 0.61986 -0.00201 0.0
H1290 H 0.78123 0.68173 0.96199 0.0
H1291 H 0.74807 0.67543 0.98975 0.0
C1292 C 0.71868 0.63778 0.01973 0.0
C1293 C 0.70453 0.61677 0.0332 0.0
C1294 C 0.73997 0.64358 0.00894 0.0
C1295 C 0.71295 0.60275 0.03904 0.0
C1296 C 0.73418 0.60857 0.02892 0.0
C1297 C 0.76674 0.63246 -0.00277 0.0
C1298 C 0.77845 0.65104 0.97742 0.0
C1299 C 0.74736 0.62845 0.01252 0.0
C1300 C 0.77225 0.66708 0.97663 0.0
C1301 C 0.75321 0.66343 0.99236 0.0
H1302 H 0.95314 0.60948 -0.00066 0.0
H1303 H 0.9949 0.67895 0.02442 0.0
H1304 H 0.96369 0.68435 0.01205 0.0
H1305 H 0.92626 0.67037 0.98685 0.0
H1306 H 0.88411 0.60091 0.9629 0.0
H1307 H 0.91345 0.59425 0.98275 0.0
C1308 C 0.95524 0.6257 0.00255 0.0
C1309 C 0.97635 0.64386 0.01222 0.0
C1310 C 0.93715 0.62866 -0.00435 0.0
C1311 C 0.97882 0.66473 0.01684 0.0
C1312 C 0.96101 0.66786 0.00968 0.0
C1313 C 0.9233 0.65368 0.98712 0.0
C1314 C 0.90318 0.63612 0.97367 0.0
C1315 C 0.94033 0.6501 -0.00185 0.0
C1316 C 0.89943 0.61457 0.97362 0.0
C1317 C 0.9163 0.61084 0.98456 0.0
H1318 H 0.3885 0.33255 0.00674 0.0
H1319 H 0.32709 0.31383 0.95332 0.0
H1320 H 0.32173 0.2777 0.94133 0.0
H1321 H 0.33622 0.25276 0.94113 0.0
H1322 H 0.39801 0.27118 0.99261 0.0
H1323 H 0.40102 0.30552 0.01118 0.0
C1324 C 0.37387 0.32051 0.99267 0.0
C1325 C 0.35842 0.32617 0.98057 0.0
C1326 C 0.37082 0.29953 0.98573 0.0
C1327 C 0.33942 0.31017 0.96271 0.0
C1328 C 0.33626 0.28939 0.95586 0.0
C1329 C 0.35005 0.26405 0.9571 0.0
C1330 C 0.36688 0.25944 0.96542 0.0
C1331 C 0.35206 0.28406 0.96666 0.0
C1332 C 0.38469 0.27418 0.98615 0.0
C1333 C 0.38659 0.29401 -0.00366 0.0
H1334 H 0.67795 0.07008 -0.00411 0.0
H1335 H 0.67824 0.0128 0.9611 0.0
H1336 H 0.71798 0.0363 0.94902 0.0
H1337 H 0.75137 0.07352 0.94309 0.0
H1338 H 0.75115 0.13091 0.9768 0.0
H1339 H 0.71278 0.1069 -0.00454 0.0
C1340 C 0.68674 0.0627 0.98587 0.0
C1341 C 0.67502 0.03976 0.97887 0.0
C1342 C 0.7096 0.07631 0.97897 0.0
C1343 C 0.68678 0.03041 0.96647 0.0
C1344 C 0.70951 0.04384 0.95954 0.0
C1345 C 0.74302 0.08068 0.95512 0.0
C1346 C 0.75388 0.10389 0.95839 0.0
C1347 C 0.7209 0.06685 0.96499 0.0
C1348 C 0.74311 0.11307 0.97421 0.0
C1349 C 0.72111 0.09936 0.98451 0.0
H1350 H 0.64514 0.92894 0.9607 0.0
H1351 H 0.59489 0.91776 0.0286 0.0
H1352 H 0.59899 0.88894 0.05424 0.0
H1353 H 0.62019 0.87031 0.0618 0.0
H1354 H 0.67131 0.88217 -0.00464 0.0
H1355 H 0.66297 0.9066 0.96423 0.0
C1356 C 0.63484 0.91998 0.9808 0.0
C1357 C 0.62002 0.92587 0.99297 0.0
C1358 C 0.6374 0.90344 -0.00425 0.0
C1359 C 0.60663 0.91384 0.01885 0.0
C1360 C 0.60896 0.89731 0.03361 0.0
C1361 C 0.62919 0.8779 0.04013 0.0
C1362 C 0.64651 0.87459 0.03114 0.0
C1363 C 0.62478 0.89247 0.02292 0.0
C1364 C 0.6578 0.8843 0.00275 0.0
C1365 C 0.65324 0.89853 0.98515 0.0
H1366 H 0.11562 0.70583 0.99082 0.0
H1367 H 0.05072 0.69856 0.00099 0.0
H1368 H 0.0689 0.73777 0.01544 0.0
H1369 H 0.10301 0.77227 0.03353 0.0
H1370 H 0.16752 0.77805 0.02765 0.0
H1371 H 0.14978 0.74176 0.00189 0.0
C1372 C 0.10541 0.71287 -0.00433 0.0
C1373 C 0.08186 0.69914 -0.00444 0.0
C1374 C 0.11595 0.73528 0.0047 0.0
C1375 C 0.06891 0.70866 0.00135 0.0
C1376 C 0.07929 0.7311 0.00968 0.0
C1377 C 0.11322 0.76572 0.0261 0.0
C1378 C 0.1365 0.77776 0.03305 0.0
C1379 C 0.10278 0.7443 0.01274 0.0
C1380 C 0.14958 0.7693 0.02254 0.0
C1381 C 0.1394 0.74834 0.00818 0.0
H1382 H 0.3191 0.42125 0.01406 0.0
H1383 H 0.31198 0.35673 0.01753 0.0
H1384 H 0.27204 0.33948 0.0277 0.0
H1385 H 0.2402 0.34318 0.04143 0.0
H1386 H 0.24713 0.40749 0.03918 0.0
H1387 H 0.28597 0.42435 0.02192 0.0
C1388 C 0.30878 0.40338 0.01671 0.0
C1389 C 0.31866 0.39036 0.01552 0.0
C1390 C 0.28578 0.39355 0.02272 0.0
C1391 C 0.30492 0.3672 0.01855 0.0
C1392 C 0.28205 0.3573 0.02442 0.0
C1393 C 0.25013 0.36084 0.03655 0.0
C1394 C 0.24096 0.37415 0.04177 0.0
C1395 C 0.27247 0.37038 0.02737 0.0
C1396 C 0.25382 0.39693 0.03515 0.0
C1397 C 0.27607 0.40657 0.02563 0.0
H1398 H 0.7061 0.69581 0.34972 0.0
H1399 H 0.74151 0.76435 0.38103 0.0
H1400 H 0.77534 0.76327 0.39208 0.0
H1401 H 0.79395 0.74202 0.39785 0.0
H1402 H 0.75928 0.67364 0.36685 0.0
H1403 H 0.72647 0.67565 0.34981 0.0
C1404 C 0.72127 0.71053 0.35875 0.0
C1405 C 0.72109 0.73003 0.36494 0.0
C1406 C 0.74093 0.70989 0.36488 0.0
C1407 C 0.74103 0.74905 0.3762 0.0
C1408 C 0.76047 0.74849 0.38254 0.0
C1409 C 0.7794 0.72775 0.38657 0.0
C1410 C 0.77903 0.70774 0.38356 0.0
C1411 C 0.76049 0.72891 0.37756 0.0
C1412 C 0.76008 0.68932 0.36903 0.0
C1413 C 0.7412 0.69039 0.35973 0.0
H1414 H 0.28394 0.02532 0.34136 0.0
H1415 H 0.35028 0.03755 0.36414 0.0
H1416 H 0.36338 0.07591 0.3781 0.0
H1417 H 0.35484 0.10437 0.39062 0.0
H1418 H 0.28836 0.09218 0.37173 0.0
H1419 H 0.2765 0.05561 0.34858 0.0
C1420 C 0.30133 0.03648 0.34895 0.0
C1421 C 0.316 0.02846 0.35222 0.0
C1422 C 0.30871 0.05852 0.35752 0.0
C1423 C 0.33853 0.04316 0.3619 0.0
C1424 C 0.34608 0.06514 0.36981 0.0
C1425 C 0.33797 0.09391 0.38046 0.0
C1426 C 0.32247 0.10075 0.38252 0.0
C1427 C 0.33117 0.07277 0.36861 0.0
C1428 C 0.30056 0.08718 0.36987 0.0
C1429 C 0.29376 0.06623 0.35708 0.0
H1430 H 1.00473 0.30663 0.36829 0.0
H1431 H 0.02838 0.26131 0.36045 0.0
H1432 H 0.99144 0.23033 0.37394 0.0
H1433 H 0.95429 0.21697 0.39563 0.0
H1434 H 0.93081 0.26218 0.40549 0.0
H1435 H 0.96554 0.29215 0.38296 0.0
C1436 C 1.00173 0.28995 0.36902 0.0
C1437 C 0.01952 0.28647 0.36391 0.0
C1438 C 0.98042 0.27212 0.37726 0.0
C1439 C 0.01517 0.26463 0.36467 0.0
C1440 C 0.99399 0.24683 0.3724 0.0
C1441 C 0.95641 0.23317 0.39175 0.0
C1442 C 0.94003 0.23737 0.40231 0.0
C1443 C 0.97672 0.25047 0.37976 0.0
C1444 C 0.94322 0.25857 0.39761 0.0
C1445 C 0.96316 0.27575 0.38498 0.0
H1446 H 0.07742 0.41937 0.35568 0.0
H1447 H 1.00667 0.36925 0.35515 0.0
H1448 H 0.99749 0.39639 0.33611 0.0
H1449 H 0.00967 0.43336 0.31454 0.0
H1450 H 0.08023 0.48357 0.31497 0.0
H1451 H 0.08935 0.45757 0.33964 0.0
C1452 C 0.05998 0.41444 0.35176 0.0
C1453 C 0.04279 0.3922 0.35643 0.0
C1454 C 0.05478 0.43016 0.34073 0.0
C1455 C 0.02027 0.38619 0.3516 0.0
C1456 C 0.01498 0.4017 0.34061 0.0
C1457 C 0.02701 0.43866 0.32052 0.0
C1458 C 0.04426 0.46027 0.3128 0.0
C1459 C 0.03211 0.42357 0.33434 0.0
C1460 C 0.06665 0.46706 0.32089 0.0
C1461 C 0.07188 0.45214 0.33472 0.0
H1462 H 0.60526 0.64397 0.37026 0.0
H1463 H 0.56504 0.66448 0.31783 0.0
H1464 H 0.53816 0.62608 0.30203 0.0
H1465 H 0.52909 0.58754 0.29673 0.0
H1466 H 0.56847 0.56658 0.34996 0.0
H1467 H 0.59222 0.604 0.37264 0.0
C1468 C 0.59043 0.63995 0.35578 0.0
C1469 C 0.58738 0.6571 0.34477 0.0
C1470 C 0.57481 0.61771 0.34705 0.0
C1471 C 0.56788 0.65162 0.32649 0.0
C1472 C 0.55248 0.62965 0.31737 0.0
C1473 C 0.54233 0.59103 0.31429 0.0
C1474 C 0.54704 0.57443 0.32179 0.0
C1475 C 0.55613 0.61266 0.32671 0.0
C1476 C 0.56437 0.57908 0.34424 0.0
C1477 C 0.57817 0.60056 0.35678 0.0
H1478 H 0.36638 0.9283 0.35392 0.0
H1479 H 0.3804 0.99429 0.33326 0.0
H1480 H 0.41744 1.00491 0.31466 0.0
H1481 H 0.44311 0.99356 0.29609 0.0
H1482 H 0.42884 0.92749 0.316 0.0
H1483 H 0.39509 0.91906 0.34388 0.0
C1484 C 0.3777 0.94513 0.34592 0.0
C1485 C 0.37041 0.9603 0.34432 0.0
C1486 C 0.39898 0.95113 0.33502 0.0
C1487 C 0.38546 0.98217 0.33445 0.0
C1488 C 0.40666 0.98828 0.32368 0.0
C1489 C 0.4329 0.97755 0.30734 0.0
C1490 C 0.4383 0.96112 0.30372 0.0
C1491 C 0.41321 0.97263 0.32265 0.0
C1492 C 0.42511 0.94048 0.31861 0.0
C1493 C 0.40563 0.93554 0.3342 0.0
H1494 H 0.62388 0.9407 0.33319 0.0
H1495 H 0.66588 0.01174 0.34586 0.0
H1496 H 0.63405 0.01584 0.33183 0.0
H1497 H 0.59559 0.99966 0.30924 0.0
H1498 H 0.5533 0.92871 0.29743 0.0
H1499 H 0.58364 0.92403 0.31864 0.0
C1500 C 0.62595 0.95703 0.33327 0.0
C1501 C 0.64728 0.97592 0.33999 0.0
C1502 C 0.60749 0.95927 0.32544 0.0
C1503 C 0.64967 0.99695 0.34059 0.0
C1504 C 0.63148 0.99933 0.3325 0.0
C1505 C 0.59288 0.98316 0.31231 0.0
C1506 C 0.57234 0.96455 0.30185 0.0
C1507 C 0.61049 0.98067 0.32402 0.0
C1508 C 0.56891 0.94323 0.30571 0.0
C1509 C 0.58636 0.9406 0.31741 0.0
H1510 H 0.06062 0.66929 0.3358 0.0
H1511 H 0.99872 0.64957 0.28302 0.0
H1512 H 0.99334 0.61331 0.27228 0.0
H1513 H 1.00827 0.58878 0.27205 0.0
H1514 H 0.07061 0.60817 0.32262 0.0
H1515 H 0.07335 0.64244 0.34096 0.0
C1516 C 0.04583 0.65696 0.32229 0.0
C1517 C 0.03033 0.66242 0.30979 0.0
C1518 C 0.04282 0.63594 0.31592 0.0
C1519 C 0.01114 0.64609 0.29259 0.0
C1520 C 1.00797 0.62523 0.28646 0.0
C1521 C 0.02214 0.60025 0.28783 0.0
C1522 C 0.03924 0.59599 0.29589 0.0
C1523 C 0.02398 0.6202 0.29723 0.0
C1524 C 0.05711 0.61095 0.31635 0.0
C1525 C 0.05884 0.63072 0.32642 0.0
H1526 H 0.35444 0.37359 0.33264 0.0
H1527 H 0.33873 0.42392 0.31067 0.0
H1528 H 0.37848 0.45147 0.30532 0.0
H1529 H 0.41728 0.46033 0.30063 0.0
H1530 H 0.43341 0.4104 0.32148 0.0
H1531 H 0.39418 0.38383 0.33446 0.0
C1532 C 0.35975 0.39062 0.32691 0.0
C1533 C 0.34354 0.39655 0.32157 0.0
C1534 C 0.38279 0.40654 0.32403 0.0
C1535 C 0.35076 0.4188 0.31467 0.0
C1536 C 0.37354 0.43463 0.31165 0.0
C1537 C 0.41229 0.4439 0.30933 0.0
C1538 C 0.42811 0.43735 0.31076 0.0
C1539 C 0.38964 0.4286 0.31562 0.0
C1540 C 0.42151 0.41587 0.32103 0.0
C1541 C 0.39903 0.4006 0.32789 0.0
H1542 H 0.32924 0.2904 0.30486 0.0
H1543 H 0.26308 0.26543 0.34154 0.0
H1544 H 0.26313 0.23367 0.36431 0.0
H1545 H 0.28398 0.21582 0.38041 0.0
H1546 H 0.35036 0.24082 0.34534 0.0
H1547 H 0.34796 0.26923 0.31468 0.0
C1548 C 0.31468 0.27782 0.31736 0.0
C1549 C 0.2964 0.28062 0.32197 0.0
C1550 C 0.31485 0.25954 0.33076 0.0
C1551 C 0.27756 0.26396 0.33794 0.0
C1552 C 0.27753 0.24573 0.35104 0.0
C1553 C 0.29764 0.22714 0.36533 0.0
C1554 C 0.31733 0.22634 0.36523 0.0
C1555 C 0.29638 0.24376 0.34854 0.0
C1556 C 0.33494 0.241 0.34558 0.0
C1557 C 0.33369 0.25744 0.32838 0.0
H1558 H 0.78886 0.02422 0.33743 0.0
H1559 H 0.72896 0.02774 0.33927 0.0
H1560 H 0.7513 0.06633 0.35717 0.0
H1561 H 0.78676 0.09699 0.38014 0.0
H1562 H 0.84604 0.09241 0.3817 0.0
H1563 H 0.82527 0.05686 0.35347 0.0
C1564 C 0.78071 0.03352 0.3412 0.0
C1565 C 0.75718 0.02289 0.33769 0.0
C1566 C 0.7936 0.05563 0.3521 0.0
C1567 C 0.74699 0.03534 0.34226 0.0
C1568 C 0.75976 0.05745 0.35253 0.0
C1569 C 0.79522 0.08839 0.37372 0.0
C1570 C 0.81782 0.09722 0.38347 0.0
C1571 C 0.78292 0.06746 0.35873 0.0
C1572 C 0.8287 0.08612 0.37442 0.0
C1573 C 0.81673 0.06558 0.35864 0.0
H1574 H 0.98502 0.75203 0.33564 0.0
H1575 H 0.98441 0.69066 0.34309 0.0
H1576 H 0.94534 0.67124 0.35868 0.0
H1577 H 0.91273 0.67237 0.37577 0.0
H1578 H 0.91302 0.73344 0.37029 0.0
H1579 H 0.95059 0.75219 0.34755 0.0
C1580 C 0.97628 0.73436 0.34031 0.0
C1581 C 0.98785 0.72294 0.33863 0.0
C1582 C 0.95372 0.72323 0.34957 0.0
C1583 C 0.97611 0.69997 0.34449 0.0
C1584 C 0.95371 0.68881 0.35341 0.0
C1585 C 0.92089 0.6897 0.369 0.0
C1586 C 0.91029 0.7016 0.37486 0.0
C1587 C 0.94257 0.70037 0.35682 0.0
C1588 C 0.92085 0.72395 0.36582 0.0
C1589 C 0.9424 0.73469 0.35317 0.0
H1590 H 0.36305 0.00974 0.6606 0.0
H1591 H 0.38888 0.07585 0.69823 0.0
H1592 H 0.4244 0.07892 0.71291 0.0
H1593 H 0.44706 0.06184 0.71949 0.0
H1594 H 0.4214 0.99548 0.68371 0.0
H1595 H 0.38729 0.99377 0.66315 0.0
C1596 C 0.37652 0.02491 0.67172 0.0
C1597 C 0.37307 0.04242 0.67861 0.0
C1598 C 0.39704 0.02657 0.68039 0.0
C1599 C 0.39086 0.062 0.69284 0.0
C1600 C 0.41126 0.06381 0.70127 0.0
C1601 C 0.43411 0.0471 0.70681 0.0
C1602 C 0.43673 0.02877 0.70334 0.0
C1603 C 0.41436 0.04605 0.69581 0.0
C1604 C 0.41993 0.0099 0.68651 0.0
C1605 C 0.40029 0.00883 0.67506 0.0
H1606 H 1.00331 0.38017 0.66145 0.0
H1607 H 0.94316 0.33201 0.70922 0.0
H1608 H 0.93556 0.36089 0.72272 0.0
H1609 H 0.94884 0.40041 0.72795 0.0
H1610 H 0.0099 0.44909 0.68315 0.0
H1611 H 0.01386 0.41946 0.66054 0.0
C1612 C 0.98833 0.37592 0.67432 0.0
C1613 C 0.97408 0.35398 0.68482 0.0
C1614 C 0.9842 0.39275 0.68253 0.0
C1615 C 0.95464 0.34878 0.70124 0.0
C1616 C 0.95023 0.3653 0.70898 0.0
C1617 C 0.96268 0.40446 0.7125 0.0
C1618 C 0.97914 0.42686 0.70743 0.0
C1619 C 0.9653 0.38742 0.70075 0.0
C1620 C 0.99693 0.43196 0.68723 0.0
C1621 C 0.99936 0.41502 0.67469 0.0
H1622 H 0.65544 0.6454 0.69481 0.0
H1623 H 0.65231 0.58951 0.64799 0.0
H1624 H 0.61405 0.56522 0.66507 0.0
H1625 H 0.58488 0.55852 0.70177 0.0
H1626 H 0.58634 0.61385 0.74763 0.0
H1627 H 0.62173 0.63957 0.72228 0.0
C1628 C 0.64614 0.62806 0.68756 0.0
C1629 C 0.65701 0.61922 0.67089 0.0
C1630 C 0.62399 0.61392 0.69784 0.0
C1631 C 0.64459 0.59671 0.66144 0.0
C1632 C 0.62266 0.58272 0.67125 0.0
C1633 C 0.59227 0.57621 0.70538 0.0
C1634 C 0.5831 0.58403 0.7275 0.0
C1635 C 0.61262 0.59092 0.69077 0.0
C1636 C 0.59331 0.60718 0.7316 0.0
C1637 C 0.6136 0.62197 0.71706 0.0
H1638 H 0.70926 0.73938 0.71049 0.0
H1639 H 0.74954 0.74028 0.63338 0.0
H1640 H 0.75127 0.77316 0.61139 0.0
H1641 H 0.73768 0.79891 0.61025 0.0
H1642 H 0.69573 0.79702 0.68535 0.0
H1643 H 0.69912 0.76806 0.7125 0.0
C1644 C 0.71866 0.74692 0.68912 0.0
C1645 C 0.72893 0.73704 0.6734 0.0
C1646 C 0.71941 0.76581 0.67625 0.0
C1647 C 0.74121 0.74726 0.64585 0.0
C1648 C 0.74226 0.76614 0.63321 0.0
C1649 C 0.72962 0.79244 0.63288 0.0
C1650 C 0.71626 0.79998 0.64551 0.0
C1651 C 0.73089 0.77516 0.64766 0.0
C1652 C 0.70624 0.79168 0.67514 0.0
C1653 C 0.7079 0.77484 0.69045 0.0
H1654 H 0.27559 0.98101 0.68681 0.0
H1655 H 0.22939 0.99977 0.65029 0.0
H1656 H 0.20352 0.96191 0.63141 0.0
H1657 H 0.196 0.9245 0.61955 0.0
H1658 H 0.24103 0.90489 0.65744 0.0
H1659 H 0.26498 0.94166 0.6822 0.0
C1660 C 0.25973 0.97671 0.67507 0.0
C1661 C 0.25462 0.99331 0.6696 0.0
C1662 C 0.24461 0.95466 0.66467 0.0
C1663 C 0.23384 0.98738 0.65475 0.0
C1664 C 0.21899 0.9657 0.64387 0.0
C1665 C 0.21061 0.92808 0.63426 0.0
C1666 C 0.21667 0.91203 0.63696 0.0
C1667 C 0.22441 0.94932 0.64804 0.0
C1668 C 0.23583 0.91689 0.65558 0.0
C1669 C 0.24971 0.93803 0.6693 0.0
H1670 H 0.06207 0.30505 0.73045 0.0
H1671 H 0.04121 0.33528 0.65839 0.0
H1672 H 0.07729 0.35092 0.63292 0.0
H1673 H 0.11081 0.34969 0.62562 0.0
H1674 H 0.13433 0.32293 0.69991 0.0
H1675 H 0.10068 0.3119 0.72973 0.0
C1676 C 0.0657 0.31557 0.70966 0.0
C1677 C 0.04884 0.31863 0.69594 0.0
C1678 C 0.08657 0.32458 0.69507 0.0
C1679 C 0.05384 0.33257 0.66936 0.0
C1680 C 0.07442 0.34137 0.6546 0.0
C1681 C 0.1095 0.34235 0.64888 0.0
C1682 C 0.12518 0.33657 0.65956 0.0
C1683 C 0.09046 0.33662 0.66646 0.0
C1684 C 0.12228 0.32676 0.68997 0.0
C1685 C 0.10305 0.32059 0.70733 0.0
H1686 H 0.29178 0.28618 0.66849 0.0
H1687 H 0.33556 0.3574 0.66468 0.0
H1688 H 0.30376 0.36113 0.64885 0.0
H1689 H 0.26417 0.34382 0.63043 0.0
H1690 H 0.21996 0.27292 0.63609 0.0
H1691 H 0.25101 0.26933 0.65745 0.0
C1692 C 0.29426 0.3025 0.66452 0.0
C1693 C 0.31604 0.32145 0.6673 0.0
C1694 C 0.27579 0.30457 0.65589 0.0
C1695 C 0.31898 0.34254 0.6626 0.0
C1696 C 0.30081 0.3447 0.65348 0.0
C1697 C 0.26128 0.32771 0.63737 0.0
C1698 C 0.23991 0.30867 0.63205 0.0
C1699 C 0.27923 0.32582 0.64938 0.0
C1700 C 0.23627 0.2878 0.64054 0.0
C1701 C 0.25406 0.28574 0.65236 0.0
H1702 H 0.72028 1.00396 0.67218 0.0
H1703 H 0.66518 0.9896 0.6066 0.0
H1704 H 0.65927 0.95323 0.59517 0.0
H1705 H 0.67173 0.92678 0.5995 0.0
H1706 H 0.72693 0.94026 0.66365 0.0
H1707 H 0.73047 0.97527 0.68052 0.0
C1708 C 0.70684 0.99277 0.65567 0.0
C1709 C 0.69342 0.99978 0.63998 0.0
C1710 C 0.70349 0.97162 0.64897 0.0
C1711 C 0.67598 0.98491 0.61881 0.0
C1712 C 0.67251 0.964 0.61224 0.0
C1713 C 0.68423 0.93719 0.61768 0.0
C1714 C 0.69907 0.93102 0.63029 0.0
C1715 C 0.68644 0.95738 0.6266 0.0
C1716 C 0.71519 0.94459 0.65383 0.0
C1717 C 0.71736 0.96471 0.66317 0.0
H1718 H 0.02747 0.70924 0.65592 0.0
H1719 H 0.01737 0.76457 0.65724 0.0
H1720 H 0.05675 0.79007 0.64598 0.0
H1721 H 0.09321 0.79634 0.62978 0.0
H1722 H 0.1033 0.74126 0.62672 0.0
H1723 H 0.0652 0.71619 0.64538 0.0
C1724 C 0.03393 0.72689 0.654 0.0
C1725 C 0.0193 0.73483 0.65699 0.0
C1726 C 0.05675 0.74162 0.64746 0.0
C1727 C 0.0281 0.75785 0.65479 0.0
C1728 C 0.0507 0.77254 0.64839 0.0
C1729 C 0.08726 0.77901 0.63441 0.0
C1730 C 0.101 0.77064 0.62746 0.0
C1731 C 0.06509 0.76459 0.64402 0.0
C1732 C 0.09303 0.74805 0.63255 0.0
C1733 C 0.07117 0.73369 0.64278 0.0
H1734 H 0.96915 0.6169 0.65202 0.0
H1735 H 0.90509 0.5878 0.69728 0.0
H1736 H 0.90771 0.5561 0.71372 0.0
H1737 H 0.93048 0.53912 0.72185 0.0
H1738 H 0.99434 0.56753 0.67689 0.0
H1739 H 0.98924 0.59646 0.65298 0.0
C1740 C 0.95563 0.60347 0.66506 0.0
C1741 C 0.93714 0.60503 0.67383 0.0
C1742 C 0.95715 0.58502 0.67443 0.0
C1743 C 0.91963 0.58726 0.69037 0.0
C1744 C 0.92108 0.56904 0.69986 0.0
C1745 C 0.94285 0.55117 0.7058 0.0
C1746 C 0.96269 0.55115 0.70102 0.0
C1747 C 0.94004 0.56804 0.69285 0.0
C1748 C 0.97876 0.56699 0.68052 0.0
C1749 C 0.97601 0.58377 0.66729 0.0
H1750 H 0.39684 0.37338 0.66955 0.0
H1751 H 0.4571 0.3714 0.65863 0.0
H1752 H 0.48015 0.41067 0.67235 0.0
H1753 H 0.48288 0.44294 0.69805 0.0
H1754 H 0.42295 0.44481 0.71184 0.0
H1755 H 0.40016 0.40851 0.68555 0.0
C1756 C 0.415 0.38164 0.66952 0.0
C1757 C 0.42517 0.36926 0.664 0.0
C1758 C 0.42826 0.40424 0.67809 0.0
C1759 C 0.44876 0.38036 0.66348 0.0
C1760 C 0.46202 0.40287 0.67131 0.0
C1761 C 0.46498 0.4359 0.694 0.0
C1762 C 0.45456 0.44637 0.70724 0.0
C1763 C 0.45193 0.41467 0.68016 0.0
C1764 C 0.43129 0.43692 0.70205 0.0
C1765 C 0.41824 0.41606 0.68735 0.0
H1766 H 0.64518 0.03163 0.67724 0.0
H1767 H 0.65372 0.09594 0.66009 0.0
H1768 H 0.61491 0.08166 0.67409 0.0
H1769 H 0.57942 0.05182 0.69624 0.0
H1770 H 0.57118 0.98787 0.71452 0.0
H1771 H 0.60865 1.00094 0.69478 0.0
C1772 C 0.6385 0.04246 0.67621 0.0
C1773 C 0.65255 0.0649 0.66795 0.0
C1774 C 0.61611 0.03421 0.68464 0.0
C1775 C 0.64345 0.07863 0.66661 0.0
C1776 C 0.62119 0.07049 0.67464 0.0
C1777 C 0.58568 0.04066 0.69519 0.0
C1778 C 0.57264 0.01898 0.70699 0.0
C1779 C 0.60748 0.04843 0.68437 0.0
C1780 C 0.58102 1.00471 0.70579 0.0
C1781 C 0.60247 0.01219 0.69459 0.0
loop_
_geom_bond_atom_site_label_1
_geom_bond_atom_site_label_2
_geom_bond_distance
_geom_bond_site_symmetry_2
_ccdc_geom_bond_type
Zn0 O3 2.031 1_554 S
Zn0 O5 2.049 . S
Zn0 O10 2.067 1_554 S
Zn1 O2 1.962 1_455 S
Zn1 O4 1.986 . S
Zn1 O6 1.996 1_455 S
Zn1 O9 1.943 1_554 S
O2 Zn1 1.962 1_655 S
O2 C7 1.254 1_554 S
O3 Zn0 2.031 1_556 S
O3 C7 1.269 . S
O4 Zn1 1.986 . S
O4 C11 1.262 . S
O5 Zn0 2.049 . S
O5 C13 1.260 . S
O6 Zn1 1.996 1_655 S
O6 C13 1.257 . S
C7 O2 1.254 1_556 S
C7 O3 1.269 . S
C8 O9 1.249 . S
C8 O10 1.270 1_455 S
O9 Zn1 1.943 1_556 S
O9 C8 1.249 . S
O10 Zn0 2.067 1_556 S
O10 C8 1.270 1_655 S
C11 O4 1.262 . S
C11 O12 1.232 . S
O12 C11 1.232 . S
C13 O5 1.260 . S
C13 O6 1.257 . S
Zn14 O17 2.031 1_554 S
Zn14 O19 2.049 . S
Zn14 O24 2.067 1_554 S
Zn15 O16 1.962 . S
Zn15 O18 1.986 . S
Zn15 O20 1.996 . S
Zn15 O23 1.943 1_554 S
O16 Zn15 1.962 . S
O16 C21 1.254 1_554 S
O17 Zn14 2.031 1_556 S
O17 C21 1.269 . S
O18 Zn15 1.986 . S
O18 C25 1.262 . S
O19 Zn14 2.049 . S
O19 C27 1.260 . S
O20 Zn15 1.996 . S
O20 C27 1.257 . S
C21 O16 1.254 1_556 S
C21 O17 1.269 . S
C22 O23 1.249 . S
C22 O24 1.270 . S
O23 Zn15 1.943 1_556 S
O23 C22 1.249 . S
O24 Zn14 2.067 1_556 S
O24 C22 1.270 . S
C25 O18 1.262 . S
C25 O26 1.232 . S
O26 C25 1.232 . S
C27 O19 1.260 . S
C27 O20 1.257 . S
Zn28 O31 2.031 . S
Zn28 O33 2.049 1_554 S
Zn28 O38 2.067 . S
Zn29 O30 1.962 1_545 S
Zn29 O32 1.986 1_554 S
Zn29 O34 1.996 1_544 S
Zn29 O37 1.943 . S
O30 Zn29 1.962 1_565 S
O30 C35 1.254 . S
O31 Zn28 2.031 . S
O31 C35 1.269 . S
O32 Zn29 1.986 1_556 S
O32 C39 1.262 . S
O33 Zn28 2.049 1_556 S
O33 C41 1.260 . S
O34 Zn29 1.996 1_566 S
O34 C41 1.257 . S
C35 O30 1.254 . S
C35 O31 1.269 . S
C36 O37 1.249 . S
C36 O38 1.270 1_545 S
O37 Zn29 1.943 . S
O37 C36 1.249 . S
O38 Zn28 2.067 . S
O38 C36 1.270 1_565 S
C39 O32 1.262 . S
C39 O40 1.232 1_556 S
O40 C39 1.232 1_554 S
C41 O33 1.260 . S
C41 O34 1.257 . S
Zn42 O45 2.031 . S
Zn42 O47 2.049 1_554 S
Zn42 O52 2.067 . S
Zn43 O44 1.962 1_655 S
Zn43 O46 1.986 1_554 S
Zn43 O48 1.996 1_654 S
Zn43 O51 1.943 . S
O44 Zn43 1.962 1_455 S
O44 C49 1.254 . S
O45 Zn42 2.031 . S
O45 C49 1.269 . S
O46 Zn43 1.986 1_556 S
O46 C53 1.262 . S
O47 Zn42 2.049 1_556 S
O47 C55 1.260 . S
O48 Zn43 1.996 1_456 S
O48 C55 1.257 . S
C49 O44 1.254 . S
C49 O45 1.269 . S
C50 O51 1.249 . S
C50 O52 1.270 1_655 S
O51 Zn43 1.943 . S
O51 C50 1.249 . S
O52 Zn42 2.067 . S
O52 C50 1.270 1_455 S
C53 O46 1.262 . S
C53 O54 1.232 1_556 S
O54 C53 1.232 1_554 S
C55 O47 1.260 . S
C55 O48 1.257 . S
Zn56 O59 2.031 . S
Zn56 O61 2.049 1_554 S
Zn56 O66 2.067 . S
Zn57 O58 1.962 . S
Zn57 O60 1.986 1_554 S
Zn57 O62 1.996 1_554 S
Zn57 O65 1.943 . S
O58 Zn57 1.962 . S
O58 C63 1.254 . S
O59 Zn56 2.031 . S
O59 C63 1.269 . S
O60 Zn57 1.986 1_556 S
O60 C67 1.262 . S
O61 Zn56 2.049 1_556 S
O61 C69 1.260 . S
O62 Zn57 1.996 1_556 S
O62 C69 1.257 . S
C63 O58 1.254 . S
C63 O59 1.269 . S
C64 O65 1.249 . S
C64 O66 1.270 . S
O65 Zn57 1.943 . S
O65 C64 1.249 . S
O66 Zn56 2.067 . S
O66 C64 1.270 . S
C67 O60 1.262 . S
C67 O68 1.232 1_556 S
O68 C67 1.232 1_554 S
C69 O61 1.260 . S
C69 O62 1.257 . S
Zn70 O73 2.031 1_554 S
Zn70 O75 2.049 . S
Zn70 O80 2.067 1_554 S
Zn71 O72 1.962 1_565 S
Zn71 O74 1.986 . S
Zn71 O76 1.996 1_565 S
Zn71 O79 1.943 1_554 S
O72 Zn71 1.962 1_545 S
O72 C77 1.236 1_554 S
O73 Zn70 2.031 1_556 S
O73 C77 1.279 . S
O74 Zn71 1.986 . S
O74 C81 1.262 . S
O75 Zn70 2.049 . S
O75 C83 1.260 . S
O76 Zn71 1.996 1_545 S
O76 C83 1.257 . S
C77 O72 1.236 1_556 S
C77 O73 1.279 . S
C78 O79 1.249 . S
C78 O80 1.270 1_565 S
O79 Zn71 1.943 1_556 S
O79 C78 1.249 . S
O80 Zn70 2.067 1_556 S
O80 C78 1.270 1_545 S
C81 O74 1.262 . S
C81 O82 1.232 . S
O82 C81 1.232 . S
C83 O75 1.260 . S
C83 O76 1.257 . S
Zn84 O87 2.031 . S
Zn84 O89 2.049 . S
Zn84 O94 2.067 . S
Zn85 O86 1.962 . S
Zn85 O88 1.986 . S
Zn85 O90 1.996 . S
Zn85 O93 1.943 . S
O86 Zn85 1.962 . S
O86 C91 1.254 . S
O87 Zn84 2.031 . S
O87 C91 1.269 . S
O88 Zn85 1.986 . S
O88 C95 1.262 . S
O89 Zn84 2.049 . S
O89 C97 1.260 . S
O90 Zn85 1.996 . S
O90 C97 1.257 . S
C91 O86 1.254 . S
C91 O87 1.269 . S
C92 O93 1.249 . S
C92 O94 1.270 . S
O93 Zn85 1.943 . S
O93 C92 1.249 . S
O94 Zn84 2.067 . S
O94 C92 1.270 . S
C95 O88 1.262 . S
C95 O96 1.232 . S
O96 C95 1.232 . S
C97 O89 1.260 . S
C97 O90 1.257 . S
Zn98 O101 2.031 . S
Zn98 O103 2.049 . S
Zn98 O108 2.067 . S
Zn99 O100 1.962 . S
Zn99 O102 1.986 1_565 S
Zn99 O104 1.996 . S
Zn99 O107 1.943 . S
O100 Zn99 1.962 . S
O100 C105 1.254 . S
O101 Zn98 2.031 . S
O101 C105 1.269 . S
O102 Zn99 1.986 1_545 S
O102 C109 1.262 . S
O103 Zn98 2.049 . S
O103 C111 1.260 . S
O104 Zn99 1.996 . S
O104 C111 1.257 . S
C105 O100 1.254 . S
C105 O101 1.269 . S
C106 O107 1.249 . S
C106 O108 1.270 . S
O107 Zn99 1.943 . S
O107 C106 1.249 . S
O108 Zn98 2.067 . S
O108 C106 1.270 . S
C109 O102 1.262 . S
C109 O110 1.232 . S
O110 C109 1.232 . S
C111 O103 1.260 . S
C111 O104 1.257 . S
Zn112 O115 2.031 . S
Zn112 O117 2.049 . S
Zn112 O122 2.067 . S
Zn113 O114 1.962 1_455 S
Zn113 O116 1.986 . S
Zn113 O118 1.996 . S
Zn113 O121 1.943 . S
O114 Zn113 1.962 1_655 S
O114 C119 1.254 . S
O115 Zn112 2.031 . S
O115 C119 1.269 1_455 S
O116 Zn113 1.986 . S
O116 C123 1.262 . S
O117 Zn112 2.049 . S
O117 C125 1.260 . S
O118 Zn113 1.996 . S
O118 C125 1.257 . S
C119 O114 1.254 . S
C119 O115 1.269 1_655 S
C120 O121 1.249 . S
C120 O122 1.270 . S
O121 Zn113 1.943 . S
O121 C120 1.249 . S
O122 Zn112 2.067 . S
O122 C120 1.270 . S
C123 O116 1.262 . S
C123 O124 1.232 . S
O124 C123 1.232 . S
C125 O117 1.260 . S
C125 O118 1.257 . S
Zn126 O129 1.982 1_565 S
Zn126 O131 2.049 . S
Zn126 O136 2.067 . S
Zn127 O128 1.962 1_565 S
Zn127 O130 1.986 . S
Zn127 O132 1.996 . S
Zn127 O135 1.943 . S
O128 Zn127 1.962 1_545 S
O128 C133 1.254 . S
O129 Zn126 1.982 1_545 S
O129 C133 1.325 . S
O130 Zn127 1.986 . S
O130 C137 1.262 . S
O131 Zn126 2.049 . S
O131 C139 1.260 . S
O132 Zn127 1.996 . S
O132 C139 1.257 . S
C133 O128 1.254 . S
C133 O129 1.325 . S
C134 O135 1.249 . S
C134 O136 1.270 . S
O135 Zn127 1.943 . S
O135 C134 1.249 . S
O136 Zn126 2.067 . S
O136 C134 1.270 . S
C137 O130 1.262 . S
C137 O138 1.232 . S
O138 C137 1.232 . S
C139 O131 1.260 . S
C139 O132 1.257 . S
Zn140 O143 2.031 1_455 S
Zn140 O145 2.049 . S
Zn140 O150 2.067 . S
Zn141 O142 1.962 1_455 S
Zn141 O144 1.986 . S
Zn141 O146 1.996 . S
Zn141 O149 1.943 . S
O142 Zn141 1.962 1_655 S
O142 C147 1.254 . S
O143 Zn140 2.031 1_655 S
O143 C147 1.269 . S
O144 Zn141 1.986 . S
O144 C151 1.262 . S
O145 Zn140 2.049 . S
O145 C153 1.260 . S
O146 Zn141 1.996 . S
O146 C153 1.257 . S
C147 O142 1.254 . S
C147 O143 1.269 . S
C148 O149 1.249 . S
C148 O150 1.270 . S
O149 Zn141 1.943 . S
O149 C148 1.249 . S
O150 Zn140 2.067 . S
O150 C148 1.270 . S
C151 O144 1.262 . S
C151 O152 1.232 . S
O152 C151 1.232 . S
C153 O145 1.260 . S
C153 O146 1.257 . S
Zn154 O157 2.031 . S
Zn154 O159 2.049 . S
Zn154 O164 2.067 . S
Zn155 O156 1.962 . S
Zn155 O158 1.986 . S
Zn155 O160 1.996 . S
Zn155 O163 1.943 . S
O156 Zn155 1.962 . S
O156 C161 1.254 . S
O157 Zn154 2.031 . S
O157 C161 1.269 . S
O158 Zn155 1.986 . S
O158 C165 1.262 . S
O159 Zn154 2.049 . S
O159 C167 1.260 . S
O160 Zn155 1.996 . S
O160 C167 1.257 . S
C161 O156 1.254 . S
C161 O157 1.269 . S
C162 O163 1.249 . S
C162 O164 1.270 . S
O163 Zn155 1.943 . S
O163 C162 1.249 . S
O164 Zn154 2.067 . S
O164 C162 1.270 . S
C165 O158 1.262 . S
C165 O166 1.232 . S
O166 C165 1.232 . S
C167 O159 1.260 . S
C167 O160 1.257 . S
Zn168 O171 2.031 . S
Zn168 O173 2.049 . S
Zn168 O178 2.067 . S
Zn169 O170 1.962 1_545 S
Zn169 O172 1.986 . S
Zn169 O174 1.996 . S
Zn169 O177 1.943 . S
O170 Zn169 1.962 1_565 S
O170 C175 1.254 . S
O171 Zn168 2.031 . S
O171 C175 1.269 1_545 S
O172 Zn169 1.986 . S
O172 C179 1.262 . S
O173 Zn168 2.049 . S
O173 C181 1.260 . S
O174 Zn169 1.996 . S
O174 C181 1.257 . S
C175 O170 1.254 . S
C175 O171 1.269 1_565 S
C176 O177 1.249 . S
C176 O178 1.270 . S
O177 Zn169 1.943 . S
O177 C176 1.249 . S
O178 Zn168 2.067 . S
O178 C176 1.270 . S
C179 O172 1.262 . S
C179 O180 1.232 . S
O180 C179 1.232 . S
C181 O173 1.260 . S
C181 O174 1.257 . S
Zn182 O185 2.031 1_655 S
Zn182 O187 2.049 . S
Zn182 O192 2.067 . S
Zn183 O184 1.962 1_655 S
Zn183 O186 1.986 . S
Zn183 O188 1.996 . S
Zn183 O191 1.943 . S
O184 Zn183 1.962 1_455 S
O184 C189 1.254 . S
O185 Zn182 2.031 1_455 S
O185 C189 1.269 . S
O186 Zn183 1.986 . S
O186 C193 1.262 . S
O187 Zn182 2.049 . S
O187 C195 1.260 . S
O188 Zn183 1.996 . S
O188 C195 1.257 . S
C189 O184 1.254 . S
C189 O185 1.269 . S
C190 O191 1.249 . S
C190 O192 1.270 . S
O191 Zn183 1.943 . S
O191 C190 1.249 . S
O192 Zn182 2.067 . S
O192 C190 1.270 . S
C193 O186 1.262 . S
C193 O194 1.232 . S
O194 C193 1.232 . S
C195 O187 1.260 . S
C195 O188 1.257 . S
Zn196 O199 2.031 . S
Zn196 O201 2.049 . S
Zn196 O206 2.067 . S
Zn197 O198 1.962 . S
Zn197 O200 1.986 . S
Zn197 O202 1.996 . S
Zn197 O205 1.943 . S
O198 Zn197 1.962 . S
O198 C203 1.254 . S
O199 Zn196 2.031 . S
O199 C203 1.269 . S
O200 Zn197 1.986 . S
O200 C207 1.262 . S
O201 Zn196 2.049 . S
O201 C209 1.260 . S
O202 Zn197 1.996 . S
O202 C209 1.257 . S
C203 O198 1.254 . S
C203 O199 1.269 . S
C204 O205 1.249 . S
C204 O206 1.270 . S
O205 Zn197 1.943 . S
O205 C204 1.249 . S
O206 Zn196 2.067 . S
O206 C204 1.270 . S
C207 O200 1.262 . S
C207 O208 1.232 . S
O208 C207 1.232 . S
C209 O201 1.260 . S
C209 O202 1.257 . S
Zn210 O213 2.031 . S
Zn210 O215 2.049 . S
Zn210 O220 2.067 . S
Zn211 O212 1.962 . S
Zn211 O214 1.986 . S
Zn211 O216 1.996 . S
Zn211 O219 1.943 . S
O212 Zn211 1.962 . S
O212 C217 1.254 . S
O213 Zn210 2.031 . S
O213 C217 1.269 . S
O214 Zn211 1.986 . S
O214 C221 1.262 . S
O215 Zn210 2.049 . S
O215 C223 1.260 . S
O216 Zn211 1.996 . S
O216 C223 1.257 . S
C217 O212 1.254 . S
C217 O213 1.269 . S
C218 O219 1.249 . S
C218 O220 1.270 . S
O219 Zn211 1.943 . S
O219 C218 1.249 . S
O220 Zn210 2.067 . S
O220 C218 1.270 . S
C221 O214 1.262 . S
C221 O222 1.232 . S
O222 C221 1.232 . S
C223 O215 1.260 . S
C223 O216 1.257 . S
Zn224 O227 2.031 . S
Zn224 O229 2.049 . S
Zn224 O234 2.067 . S
Zn225 O226 1.962 . S
Zn225 O228 1.986 1_545 S
Zn225 O230 1.996 . S
Zn225 O233 1.943 . S
O226 Zn225 1.962 . S
O226 C231 1.254 . S
O227 Zn224 2.031 . S
O227 C231 1.269 . S
O228 Zn225 1.986 1_565 S
O228 C235 1.262 . S
O229 Zn224 2.049 . S
O229 C237 1.260 . S
O230 Zn225 1.996 . S
O230 C237 1.257 . S
C231 O226 1.254 . S
C231 O227 1.269 . S
C232 O233 1.249 . S
C232 O234 1.270 . S
O233 Zn225 1.943 . S
O233 C232 1.249 . S
O234 Zn224 2.067 . S
O234 C232 1.270 . S
C235 O228 1.262 . S
C235 O236 1.232 . S
O236 C235 1.232 . S
C237 O229 1.260 . S
C237 O230 1.257 . S
Zn238 O241 2.058 . S
Zn238 O243 2.049 . S
Zn238 O248 2.067 . S
Zn239 O240 1.962 1_655 S
Zn239 O242 1.986 . S
Zn239 O244 1.996 . S
Zn239 O247 1.943 . S
O240 Zn239 1.962 1_455 S
O240 C245 1.254 . S
O241 Zn238 2.058 . S
O241 C245 1.240 1_655 S
O242 Zn239 1.986 . S
O242 C249 1.262 . S
O243 Zn238 2.049 . S
O243 C251 1.260 . S
O244 Zn239 1.996 . S
O244 C251 1.257 . S
C245 O240 1.254 . S
C245 O241 1.240 1_455 S
C246 O247 1.249 . S
C246 O248 1.270 . S
O247 Zn239 1.943 . S
O247 C246 1.249 . S
O248 Zn238 2.067 . S
O248 C246 1.270 . S
C249 O242 1.262 . S
C249 O250 1.232 . S
O250 C249 1.232 . S
C251 O243 1.260 . S
C251 O244 1.257 . S
H252 C260 0.930 . S
H253 C263 0.930 . S
H254 C265 0.930 . S
H255 C266 0.970 . S
H256 C266 0.970 . S
H257 C268 0.930 . S
H258 C270 0.930 . S
H259 C272 0.930 . S
C260 H252 0.930 . S
C260 C261 1.382 . S
C260 C262 1.426 . S
C261 C260 1.382 . S
C261 C265 1.389 . S
C262 C260 1.426 . S
C262 C263 1.375 . S
C262 C266 1.532 . S
C263 H253 0.930 . S
C263 C262 1.375 . S
C263 C264 1.416 . S
C264 C263 1.416 . S
C264 C265 1.371 . S
C265 H254 0.930 . S
C265 C261 1.389 . S
C265 C264 1.371 . S
C266 H255 0.970 . S
C266 H256 0.970 . S
C266 C262 1.532 . S
C266 C267 1.499 . S
C267 C266 1.499 . S
C267 C268 1.370 . S
C267 C272 1.415 . S
C268 H257 0.930 . S
C268 C267 1.370 . S
C268 C269 1.407 . S
C269 C268 1.407 . S
C269 C270 1.365 . S
C270 H258 0.930 . S
C270 C269 1.365 . S
C270 C271 1.393 . S
C271 C270 1.393 . S
C271 C272 1.387 . S
C272 H259 0.930 . S
C272 C267 1.415 . S
C272 C271 1.387 . S
H273 C281 0.930 . S
H274 C284 0.930 . S
H275 C286 0.930 . S
H276 C287 0.970 . S
H277 C287 0.970 . S
H278 C289 0.930 . S
H279 C291 0.930 . S
H280 C293 0.930 . S
C281 H273 0.930 . S
C281 C282 1.382 . S
C281 C283 1.426 . S
C282 C281 1.382 . S
C282 C286 1.389 . S
C283 C281 1.426 . S
C283 C284 1.375 . S
C283 C287 1.532 . S
C284 H274 0.930 . S
C284 C283 1.375 . S
C284 C285 1.416 . S
C285 C284 1.416 . S
C285 C286 1.371 . S
C286 H275 0.930 . S
C286 C282 1.389 . S
C286 C285 1.371 . S
C287 H276 0.970 . S
C287 H277 0.970 . S
C287 C283 1.532 . S
C287 C288 1.499 . S
C288 C287 1.499 . S
C288 C289 1.370 . S
C288 C293 1.415 . S
C289 H278 0.930 . S
C289 C288 1.370 . S
C289 C290 1.407 . S
C290 C289 1.407 . S
C290 C291 1.365 . S
C291 H279 0.930 . S
C291 C290 1.365 . S
C291 C292 1.393 . S
C292 C291 1.393 . S
C292 C293 1.387 . S
C293 H280 0.930 . S
C293 C288 1.415 . S
C293 C292 1.387 . S
H294 C302 0.930 . S
H295 C305 0.930 . S
H296 C307 0.930 . S
H297 C308 0.970 . S
H298 C308 0.970 . S
H299 C310 0.930 . S
H300 C312 0.930 . S
H301 C314 0.930 . S
C302 H294 0.930 . S
C302 C303 1.382 . S
C302 C304 1.426 . S
C303 C302 1.382 . S
C303 C307 1.389 . S
C304 C302 1.426 . S
C304 C305 1.375 . S
C304 C308 1.532 . S
C305 H295 0.930 . S
C305 C304 1.375 . S
C305 C306 1.416 . S
C306 C305 1.416 . S
C306 C307 1.371 . S
C307 H296 0.930 . S
C307 C303 1.389 . S
C307 C306 1.371 . S
C308 H297 0.970 . S
C308 H298 0.970 . S
C308 C304 1.532 . S
C308 C309 1.499 . S
C309 C308 1.499 . S
C309 C310 1.370 . S
C309 C314 1.415 . S
C310 H299 0.930 . S
C310 C309 1.370 . S
C310 C311 1.407 . S
C311 C310 1.407 . S
C311 C312 1.365 . S
C312 H300 0.930 . S
C312 C311 1.365 . S
C312 C313 1.393 . S
C313 C312 1.393 . S
C313 C314 1.387 . S
C314 H301 0.930 . S
C314 C309 1.415 . S
C314 C313 1.387 . S
H315 C323 0.930 . S
H316 C326 0.930 . S
H317 C328 0.930 . S
H318 C329 0.970 . S
H319 C329 0.970 . S
H320 C331 0.930 . S
H321 C333 0.930 . S
H322 C335 0.930 . S
C323 H315 0.930 . S
C323 C324 1.382 . S
C323 C325 1.426 . S
C324 C323 1.382 . S
C324 C328 1.389 . S
C325 C323 1.426 . S
C325 C326 1.375 . S
C325 C329 1.532 . S
C326 H316 0.930 . S
C326 C325 1.375 . S
C326 C327 1.416 . S
C327 C326 1.416 . S
C327 C328 1.371 . S
C328 H317 0.930 . S
C328 C324 1.389 . S
C328 C327 1.371 . S
C329 H318 0.970 . S
C329 H319 0.970 . S
C329 C325 1.532 . S
C329 C330 1.499 . S
C330 C329 1.499 . S
C330 C331 1.370 . S
C330 C335 1.415 . S
C331 H320 0.930 . S
C331 C330 1.370 . S
C331 C332 1.407 . S
C332 C331 1.407 . S
C332 C333 1.365 . S
C333 H321 0.930 . S
C333 C332 1.365 . S
C333 C334 1.393 . S
C334 C333 1.393 . S
C334 C335 1.387 . S
C335 H322 0.930 . S
C335 C330 1.415 . S
C335 C334 1.387 . S
H336 C344 0.930 . S
H337 C347 0.930 . S
H338 C349 0.930 . S
H339 C350 0.970 . S
H340 C350 0.970 . S
H341 C352 0.930 . S
H342 C354 0.930 . S
H343 C356 0.930 . S
C344 H336 0.930 . S
C344 C345 1.382 . S
C344 C346 1.426 . S
C345 C344 1.382 . S
C345 C349 1.389 . S
C346 C344 1.426 . S
C346 C347 1.375 . S
C346 C350 1.532 . S
C347 H337 0.930 . S
C347 C346 1.375 . S
C347 C348 1.416 . S
C348 C347 1.416 . S
C348 C349 1.371 . S
C349 H338 0.930 . S
C349 C345 1.389 . S
C349 C348 1.371 . S
C350 H339 0.970 . S
C350 H340 0.970 . S
C350 C346 1.532 . S
C350 C351 1.499 . S
C351 C350 1.499 . S
C351 C352 1.370 . S
C351 C356 1.415 . S
C352 H341 0.930 . S
C352 C351 1.370 . S
C352 C353 1.407 . S
C353 C352 1.407 . S
C353 C354 1.365 . S
C354 H342 0.930 . S
C354 C353 1.365 . S
C354 C355 1.393 . S
C355 C354 1.393 . S
C355 C356 1.387 . S
C356 H343 0.930 . S
C356 C351 1.415 . S
C356 C355 1.387 . S
H357 C365 0.930 . S
H358 C368 0.930 . S
H359 C370 0.930 . S
H360 C371 0.970 . S
H361 C371 0.970 . S
H362 C373 0.930 . S
H363 C375 0.930 . S
H364 C377 0.930 . S
C365 H357 0.930 . S
C365 C366 1.382 . S
C365 C367 1.426 . S
C366 C365 1.382 . S
C366 C370 1.389 . S
C367 C365 1.426 . S
C367 C368 1.375 . S
C367 C371 1.532 . S
C368 H358 0.930 . S
C368 C367 1.375 . S
C368 C369 1.416 . S
C369 C368 1.416 . S
C369 C370 1.371 . S
C370 H359 0.930 . S
C370 C366 1.389 . S
C370 C369 1.371 . S
C371 H360 0.970 . S
C371 H361 0.970 . S
C371 C367 1.532 . S
C371 C372 1.499 . S
C372 C371 1.499 . S
C372 C373 1.370 . S
C372 C377 1.415 . S
C373 H362 0.930 . S
C373 C372 1.370 . S
C373 C374 1.407 . S
C374 C373 1.407 . S
C374 C375 1.365 . S
C375 H363 0.930 . S
C375 C374 1.365 . S
C375 C376 1.393 . S
C376 C375 1.393 . S
C376 C377 1.387 . S
C377 H364 0.930 . S
C377 C372 1.415 . S
C377 C376 1.387 . S
H378 C386 0.930 . S
H379 C389 0.930 . S
H380 C391 0.930 . S
H381 C392 0.970 . S
H382 C392 0.970 . S
H383 C394 0.930 . S
H384 C396 0.930 . S
H385 C398 0.930 . S
C386 H378 0.930 . S
C386 C387 1.382 . S
C386 C388 1.426 . S
C387 C386 1.382 . S
C387 C391 1.389 . S
C388 C386 1.426 . S
C388 C389 1.375 . S
C388 C392 1.532 . S
C389 H379 0.930 . S
C389 C388 1.375 . S
C389 C390 1.416 . S
C390 C389 1.416 . S
C390 C391 1.371 . S
C391 H380 0.930 . S
C391 C387 1.389 . S
C391 C390 1.371 . S
C392 H381 0.970 . S
C392 H382 0.970 . S
C392 C388 1.532 . S
C392 C393 1.499 . S
C393 C392 1.499 . S
C393 C394 1.370 . S
C393 C398 1.415 . S
C394 H383 0.930 . S
C394 C393 1.370 . S
C394 C395 1.407 . S
C395 C394 1.407 . S
C395 C396 1.365 . S
C396 H384 0.930 . S
C396 C395 1.365 . S
C396 C397 1.393 . S
C397 C396 1.393 . S
C397 C398 1.387 . S
C398 H385 0.930 . S
C398 C393 1.415 . S
C398 C397 1.387 . S
H399 C407 0.930 . S
H400 C410 0.930 . S
H401 C412 0.930 . S
H402 C413 0.970 . S
H403 C413 0.970 . S
H404 C415 0.930 . S
H405 C417 0.930 . S
H406 C419 0.930 . S
C407 H399 0.930 . S
C407 C408 1.382 . S
C407 C409 1.426 . S
C408 C407 1.382 . S
C408 C412 1.389 . S
C409 C407 1.426 . S
C409 C410 1.375 . S
C409 C413 1.532 . S
C410 H400 0.930 . S
C410 C409 1.375 . S
C410 C411 1.416 . S
C411 C410 1.416 . S
C411 C412 1.371 . S
C412 H401 0.930 . S
C412 C408 1.389 . S
C412 C411 1.371 . S
C413 H402 0.970 . S
C413 H403 0.970 . S
C413 C409 1.532 . S
C413 C414 1.499 . S
C414 C413 1.499 . S
C414 C415 1.370 . S
C414 C419 1.415 . S
C415 H404 0.930 . S
C415 C414 1.370 . S
C415 C416 1.407 . S
C416 C415 1.407 . S
C416 C417 1.365 . S
C417 H405 0.930 . S
C417 C416 1.365 . S
C417 C418 1.393 . S
C418 C417 1.393 . S
C418 C419 1.387 . S
C419 H406 0.930 . S
C419 C414 1.415 . S
C419 C418 1.387 . S
H420 C428 0.930 . S
H421 C431 0.930 . S
H422 C433 0.930 . S
H423 C434 0.970 . S
H424 C434 0.970 . S
H425 C436 0.930 . S
H426 C438 0.930 . S
H427 C440 0.930 . S
C428 H420 0.930 . S
C428 C429 1.382 . S
C428 C430 1.426 . S
C429 C428 1.382 . S
C429 C433 1.389 . S
C430 C428 1.426 . S
C430 C431 1.375 . S
C430 C434 1.532 . S
C431 H421 0.930 . S
C431 C430 1.375 . S
C431 C432 1.416 . S
C432 C431 1.416 . S
C432 C433 1.371 . S
C433 H422 0.930 . S
C433 C429 1.389 . S
C433 C432 1.371 . S
C434 H423 0.970 . S
C434 H424 0.970 . S
C434 C430 1.532 . S
C434 C435 1.499 . S
C435 C434 1.499 . S
C435 C436 1.370 . S
C435 C440 1.415 . S
C436 H425 0.930 . S
C436 C435 1.370 . S
C436 C437 1.407 . S
C437 C436 1.407 . S
C437 C438 1.365 . S
C438 H426 0.930 . S
C438 C437 1.365 . S
C438 C439 1.393 . S
C439 C438 1.393 . S
C439 C440 1.387 . S
C440 H427 0.930 . S
C440 C435 1.415 . S
C440 C439 1.387 . S
H441 C449 0.930 . S
H442 C452 0.930 . S
H443 C454 0.930 . S
H444 C455 0.970 . S
H445 C455 0.970 . S
H446 C457 0.930 . S
H447 C459 0.930 . S
H448 C461 0.930 . S
C449 H441 0.930 . S
C449 C450 1.382 . S
C449 C451 1.426 . S
C450 C449 1.382 . S
C450 C454 1.389 1_455 S
C451 C449 1.426 . S
C451 C452 1.375 . S
C451 C455 1.532 . S
C452 H442 0.930 . S
C452 C451 1.375 . S
C452 C453 1.416 . S
C453 C452 1.416 . S
C453 C454 1.371 1_455 S
C454 H443 0.930 . S
C454 C450 1.389 1_655 S
C454 C453 1.371 1_655 S
C455 H444 0.970 . S
C455 H445 0.970 . S
C455 C451 1.532 . S
C455 C456 1.499 . S
C456 C455 1.499 . S
C456 C457 1.370 . S
C456 C461 1.415 . S
C457 H446 0.930 . S
C457 C456 1.370 . S
C457 C458 1.409 . S
C458 C457 1.409 . S
C458 C459 1.370 1_455 S
C459 H447 0.930 . S
C459 C458 1.370 1_655 S
C459 C460 1.393 1_655 S
C460 C459 1.393 1_455 S
C460 C461 1.387 . S
C461 H448 0.930 . S
C461 C456 1.415 . S
C461 C460 1.387 . S
H462 C470 0.930 . S
H463 C473 0.930 . S
H464 C475 0.930 . S
H465 C476 0.970 . S
H466 C476 0.970 . S
H467 C478 0.930 . S
H468 C480 0.930 . S
H469 C482 0.930 . S
C470 H462 0.930 . S
C470 C471 1.382 . S
C470 C472 1.426 . S
C471 C470 1.382 . S
C471 C475 1.389 . S
C472 C470 1.426 . S
C472 C473 1.375 . S
C472 C476 1.532 . S
C473 H463 0.930 . S
C473 C472 1.375 . S
C473 C474 1.416 . S
C474 C473 1.416 . S
C474 C475 1.371 . S
C475 H464 0.930 . S
C475 C471 1.389 . S
C475 C474 1.371 . S
C476 H465 0.970 . S
C476 H466 0.970 . S
C476 C472 1.532 . S
C476 C477 1.499 . S
C477 C476 1.499 . S
C477 C478 1.370 . S
C477 C482 1.415 . S
C478 H467 0.930 . S
C478 C477 1.370 . S
C478 C479 1.407 . S
C479 C478 1.407 . S
C479 C480 1.365 . S
C480 H468 0.930 . S
C480 C479 1.365 . S
C480 C481 1.393 . S
C481 C480 1.393 . S
C481 C482 1.387 . S
C482 H469 0.930 . S
C482 C477 1.415 . S
C482 C481 1.387 . S
H483 C491 0.930 . S
H484 C494 0.930 . S
H485 C496 0.930 . S
H486 C497 0.970 . S
H487 C497 0.970 . S
H488 C499 0.930 . S
H489 C501 0.930 . S
H490 C503 0.930 . S
C491 H483 0.930 . S
C491 C492 1.382 . S
C491 C493 1.426 . S
C492 C491 1.382 . S
C492 C496 1.389 1_565 S
C493 C491 1.426 . S
C493 C494 1.375 . S
C493 C497 1.532 . S
C494 H484 0.930 . S
C494 C493 1.375 . S
C494 C495 1.416 . S
C495 C494 1.416 . S
C495 C496 1.371 1_565 S
C496 H485 0.930 . S
C496 C492 1.389 1_545 S
C496 C495 1.371 1_545 S
C497 H486 0.970 . S
C497 H487 0.970 . S
C497 C493 1.532 . S
C497 C498 1.499 . S
C498 C497 1.499 . S
C498 C499 1.370 . S
C498 C503 1.415 . S
C499 H488 0.930 . S
C499 C498 1.370 . S
C499 C500 1.402 . S
C500 C499 1.402 . S
C500 C501 1.366 1_565 S
C501 H489 0.930 . S
C501 C500 1.366 1_545 S
C501 C502 1.393 1_545 S
C502 C501 1.393 1_565 S
C502 C503 1.387 . S
C503 H490 0.930 . S
C503 C498 1.415 . S
C503 C502 1.387 . S
H504 C512 0.930 . S
H505 C515 0.930 . S
H506 C517 0.930 . S
H507 C518 0.970 . S
H508 C518 0.970 . S
H509 C520 0.930 . S
H510 C522 0.930 . S
H511 C524 0.930 . S
C512 H504 0.930 . S
C512 C513 1.382 . S
C512 C514 1.426 . S
C513 C512 1.382 . S
C513 C517 1.389 1_565 S
C514 C512 1.426 . S
C514 C515 1.375 . S
C514 C518 1.532 . S
C515 H505 0.930 . S
C515 C514 1.375 . S
C515 C516 1.460 . S
C516 C515 1.460 . S
C516 C517 1.354 1_565 S
C517 H506 0.930 . S
C517 C513 1.389 1_545 S
C517 C516 1.354 1_545 S
C518 H507 0.970 . S
C518 H508 0.970 . S
C518 C514 1.532 . S
C518 C519 1.499 . S
C519 C518 1.499 . S
C519 C520 1.370 . S
C519 C524 1.415 . S
C520 H509 0.930 . S
C520 C519 1.370 . S
C520 C521 1.407 . S
C521 C520 1.407 . S
C521 C522 1.365 1_565 S
C522 H510 0.930 . S
C522 C521 1.365 1_545 S
C522 C523 1.393 1_545 S
C523 C522 1.393 1_565 S
C523 C524 1.387 . S
C524 H511 0.930 . S
C524 C519 1.415 . S
C524 C523 1.387 . S
H525 C533 0.930 . S
H526 C536 0.930 . S
H527 C538 0.930 . S
H528 C539 0.970 . S
H529 C539 0.970 . S
H530 C541 0.930 . S
H531 C543 0.930 . S
H532 C545 0.930 . S
C533 H525 0.930 . S
C533 C534 1.382 . S
C533 C535 1.426 . S
C534 C533 1.382 . S
C534 C538 1.389 1_455 S
C535 C533 1.426 . S
C535 C536 1.375 . S
C535 C539 1.532 . S
C536 H526 0.930 . S
C536 C535 1.375 . S
C536 C537 1.416 . S
C537 C536 1.416 . S
C537 C538 1.371 1_455 S
C538 H527 0.930 . S
C538 C534 1.389 1_655 S
C538 C537 1.371 1_655 S
C539 H528 0.970 . S
C539 H529 0.970 . S
C539 C535 1.532 . S
C539 C540 1.499 . S
C540 C539 1.499 . S
C540 C541 1.370 . S
C540 C545 1.415 . S
C541 H530 0.930 . S
C541 C540 1.370 . S
C541 C542 1.407 . S
C542 C541 1.407 . S
C542 C543 1.365 1_455 S
C543 H531 0.930 . S
C543 C542 1.365 1_655 S
C543 C544 1.393 1_655 S
C544 C543 1.393 1_455 S
C544 C545 1.387 . S
C545 H532 0.930 . S
C545 C540 1.415 . S
C545 C544 1.387 . S
H546 C554 0.930 . S
H547 C557 0.930 . S
H548 C559 0.930 . S
H549 C560 0.970 . S
H550 C560 0.970 . S
H551 C562 0.930 . S
H552 C564 0.930 . S
H553 C566 0.930 . S
C554 H546 0.930 . S
C554 C555 1.382 . S
C554 C556 1.426 . S
C555 C554 1.382 . S
C555 C559 1.389 . S
C556 C554 1.426 . S
C556 C557 1.375 . S
C556 C560 1.532 . S
C557 H547 0.930 . S
C557 C556 1.375 . S
C557 C558 1.416 . S
C558 C557 1.416 . S
C558 C559 1.371 . S
C559 H548 0.930 . S
C559 C555 1.389 . S
C559 C558 1.371 . S
C560 H549 0.970 . S
C560 H550 0.970 . S
C560 C556 1.532 . S
C560 C561 1.499 . S
C561 C560 1.499 . S
C561 C562 1.370 . S
C561 C566 1.415 . S
C562 H551 0.930 . S
C562 C561 1.370 . S
C562 C563 1.407 . S
C563 C562 1.407 . S
C563 C564 1.365 . S
C564 H552 0.930 . S
C564 C563 1.365 . S
C564 C565 1.393 . S
C565 C564 1.393 . S
C565 C566 1.387 . S
C566 H553 0.930 . S
C566 C561 1.415 . S
C566 C565 1.387 . S
H567 C575 0.930 . S
H568 C578 0.930 . S
H569 C580 0.930 . S
H570 C581 0.970 . S
H571 C581 0.970 . S
H572 C583 0.930 . S
H573 C585 0.930 . S
H574 C587 0.930 . S
C575 H567 0.930 . S
C575 C576 1.382 . S
C575 C577 1.426 . S
C576 C575 1.382 . S
C576 C580 1.389 . S
C577 C575 1.426 . S
C577 C578 1.375 . S
C577 C581 1.532 . S
C578 H568 0.930 . S
C578 C577 1.375 . S
C578 C579 1.416 . S
C579 C578 1.416 . S
C579 C580 1.371 . S
C580 H569 0.930 . S
C580 C576 1.389 . S
C580 C579 1.371 . S
C581 H570 0.970 . S
C581 H571 0.970 . S
C581 C577 1.532 . S
C581 C582 1.499 . S
C582 C581 1.499 . S
C582 C583 1.370 . S
C582 C587 1.415 . S
C583 H572 0.930 . S
C583 C582 1.370 . S
C583 C584 1.407 . S
C584 C583 1.407 . S
C584 C585 1.365 . S
C585 H573 0.930 . S
C585 C584 1.365 . S
C585 C586 1.393 . S
C586 C585 1.393 . S
C586 C587 1.387 . S
C587 H574 0.930 . S
C587 C582 1.415 . S
C587 C586 1.387 . S
H588 C596 0.930 . S
H589 C599 0.930 . S
H590 C601 0.930 . S
H591 C602 0.970 . S
H592 C602 0.970 . S
H593 C604 0.930 . S
H594 C606 0.930 . S
H595 C608 0.930 . S
C596 H588 0.930 . S
C596 C597 1.382 . S
C596 C598 1.426 . S
C597 C596 1.382 . S
C597 C601 1.389 . S
C598 C596 1.426 . S
C598 C599 1.375 . S
C598 C602 1.532 . S
C599 H589 0.930 . S
C599 C598 1.375 . S
C599 C600 1.416 . S
C600 C599 1.416 . S
C600 C601 1.371 . S
C601 H590 0.930 . S
C601 C597 1.389 . S
C601 C600 1.371 . S
C602 H591 0.970 . S
C602 H592 0.970 . S
C602 C598 1.532 . S
C602 C603 1.499 . S
C603 C602 1.499 . S
C603 C604 1.370 . S
C603 C608 1.415 . S
C604 H593 0.930 . S
C604 C603 1.370 . S
C604 C605 1.407 . S
C605 C604 1.407 . S
C605 C606 1.365 . S
C606 H594 0.930 . S
C606 C605 1.365 . S
C606 C607 1.393 . S
C607 C606 1.393 . S
C607 C608 1.387 . S
C608 H595 0.930 . S
C608 C603 1.415 . S
C608 C607 1.387 . S
H609 C617 0.930 . S
H610 C620 0.930 . S
H611 C622 0.930 . S
H612 C623 0.970 . S
H613 C623 0.970 . S
H614 C625 0.930 . S
H615 C627 0.930 . S
H616 C629 0.930 . S
C617 H609 0.930 . S
C617 C618 1.382 . S
C617 C619 1.426 . S
C618 C617 1.382 . S
C618 C622 1.389 . S
C619 C617 1.426 . S
C619 C620 1.375 . S
C619 C623 1.532 . S
C620 H610 0.930 . S
C620 C619 1.375 . S
C620 C621 1.416 . S
C621 C620 1.416 . S
C621 C622 1.371 . S
C622 H611 0.930 . S
C622 C618 1.389 . S
C622 C621 1.371 . S
C623 H612 0.970 . S
C623 H613 0.970 . S
C623 C619 1.532 . S
C623 C624 1.499 . S
C624 C623 1.499 . S
C624 C625 1.370 . S
C624 C629 1.415 . S
C625 H614 0.930 . S
C625 C624 1.370 . S
C625 C626 1.407 . S
C626 C625 1.407 . S
C626 C627 1.365 . S
C627 H615 0.930 . S
C627 C626 1.365 . S
C627 C628 1.393 . S
C628 C627 1.393 . S
C628 C629 1.387 . S
C629 H616 0.930 . S
C629 C624 1.415 . S
C629 C628 1.387 . S
H630 C636 0.930 . S
H631 C639 0.930 . S
H632 C640 0.930 . S
H633 C641 0.930 1_455 S
H634 C644 0.930 . S
H635 C645 0.930 . S
C636 H630 0.930 . S
C636 C637 1.355 . S
C636 C638 1.415 . S
C637 C636 1.355 . S
C637 C639 1.419 1_655 S
C638 C636 1.415 . S
C638 C643 1.425 . S
C638 C645 1.409 . S
C639 H631 0.930 . S
C639 C637 1.419 1_455 S
C639 C640 1.362 . S
C640 H632 0.930 . S
C640 C639 1.362 . S
C640 C643 1.409 1_455 S
C641 H633 0.930 1_655 S
C641 C642 1.353 . S
C641 C643 1.415 . S
C642 C641 1.353 . S
C642 C644 1.419 . S
C643 C638 1.425 . S
C643 C640 1.409 1_655 S
C643 C641 1.415 . S
C644 H634 0.930 . S
C644 C642 1.419 . S
C644 C645 1.362 . S
C645 H635 0.930 . S
C645 C638 1.409 . S
C645 C644 1.362 . S
H646 C652 0.930 . S
H647 C655 0.930 . S
H648 C656 0.930 . S
H649 C657 0.930 . S
H650 C660 0.930 . S
H651 C661 0.930 . S
C652 H646 0.930 . S
C652 C653 1.355 . S
C652 C654 1.415 . S
C653 C652 1.355 . S
C653 C655 1.419 . S
C654 C652 1.415 . S
C654 C659 1.425 . S
C654 C661 1.409 . S
C655 H647 0.930 . S
C655 C653 1.419 . S
C655 C656 1.362 . S
C656 H648 0.930 . S
C656 C655 1.362 . S
C656 C659 1.409 . S
C657 H649 0.930 . S
C657 C658 1.355 . S
C657 C659 1.415 . S
C658 C657 1.355 . S
C658 C660 1.419 . S
C659 C654 1.425 . S
C659 C656 1.409 . S
C659 C657 1.415 . S
C660 H650 0.930 . S
C660 C658 1.419 . S
C660 C661 1.362 . S
C661 H651 0.930 . S
C661 C654 1.409 . S
C661 C660 1.362 . S
H662 C668 0.930 . S
H663 C671 0.930 . S
H664 C672 0.930 . S
H665 C673 0.930 . S
H666 C676 0.930 . S
H667 C677 0.930 . S
C668 H662 0.930 . S
C668 C669 1.355 1_565 S
C668 C670 1.415 . S
C669 C668 1.355 1_545 S
C669 C671 1.419 . S
C670 C668 1.415 . S
C670 C675 1.425 1_565 S
C670 C677 1.409 . S
C671 H663 0.930 . S
C671 C669 1.419 . S
C671 C672 1.362 . S
C672 H664 0.930 . S
C672 C671 1.362 . S
C672 C675 1.409 . S
C673 H665 0.930 . S
C673 C674 1.355 . S
C673 C675 1.415 . S
C674 C673 1.355 . S
C674 C676 1.419 1_545 S
C675 C670 1.425 1_545 S
C675 C672 1.409 . S
C675 C673 1.415 . S
C676 H666 0.930 . S
C676 C674 1.419 1_565 S
C676 C677 1.362 . S
C677 H667 0.930 . S
C677 C670 1.409 . S
C677 C676 1.362 . S
H678 C684 0.930 . S
H679 C687 0.930 . S
H680 C688 0.930 . S
H681 C689 0.930 . S
H682 C692 0.930 . S
H683 C693 0.930 . S
C684 H678 0.930 . S
C684 C685 1.355 1_545 S
C684 C686 1.415 . S
C685 C684 1.355 1_565 S
C685 C687 1.419 . S
C686 C684 1.415 . S
C686 C691 1.425 1_545 S
C686 C693 1.409 . S
C687 H679 0.930 . S
C687 C685 1.419 . S
C687 C688 1.362 . S
C688 H680 0.930 . S
C688 C687 1.362 . S
C688 C691 1.409 . S
C689 H681 0.930 . S
C689 C690 1.355 . S
C689 C691 1.415 . S
C690 C689 1.355 . S
C690 C692 1.419 1_565 S
C691 C686 1.425 1_565 S
C691 C688 1.409 . S
C691 C689 1.415 . S
C692 H682 0.930 . S
C692 C690 1.419 1_545 S
C692 C693 1.362 . S
C693 H683 0.930 . S
C693 C686 1.409 . S
C693 C692 1.362 . S
H694 C700 0.930 . S
H695 C703 0.930 . S
H696 C704 0.930 . S
H697 C705 0.930 . S
H698 C708 0.930 . S
H699 C709 0.930 . S
C700 H694 0.930 . S
C700 C701 1.355 . S
C700 C702 1.415 . S
C701 C700 1.355 . S
C701 C703 1.419 1_455 S
C702 C700 1.415 . S
C702 C707 1.425 1_455 S
C702 C709 1.409 . S
C703 H695 0.930 . S
C703 C701 1.419 1_655 S
C703 C704 1.362 . S
C704 H696 0.930 . S
C704 C703 1.362 . S
C704 C707 1.409 . S
C705 H697 0.930 . S
C705 C706 1.355 1_655 S
C705 C707 1.415 . S
C706 C705 1.355 1_455 S
C706 C708 1.419 . S
C707 C702 1.425 1_655 S
C707 C704 1.409 . S
C707 C705 1.415 . S
C708 H698 0.930 . S
C708 C706 1.419 . S
C708 C709 1.362 . S
C709 H699 0.930 . S
C709 C702 1.409 . S
C709 C708 1.362 . S
H710 C716 0.930 . S
H711 C719 0.930 . S
H712 C720 0.930 . S
H713 C721 0.930 . S
H714 C724 0.930 . S
H715 C725 0.930 . S
C716 H710 0.930 . S
C716 C717 1.355 . S
C716 C718 1.415 . S
C717 C716 1.355 . S
C717 C719 1.419 . S
C718 C716 1.415 . S
C718 C723 1.425 . S
C718 C725 1.409 . S
C719 H711 0.930 . S
C719 C717 1.419 . S
C719 C720 1.362 . S
C720 H712 0.930 . S
C720 C719 1.362 . S
C720 C723 1.409 . S
C721 H713 0.930 . S
C721 C722 1.355 . S
C721 C723 1.415 . S
C722 C721 1.355 . S
C722 C724 1.419 . S
C723 C718 1.425 . S
C723 C720 1.409 . S
C723 C721 1.415 . S
C724 H714 0.930 . S
C724 C722 1.419 . S
C724 C725 1.362 . S
C725 H715 0.930 . S
C725 C718 1.409 . S
C725 C724 1.362 . S
H726 C732 0.930 . S
H727 C735 0.930 . S
H728 C736 0.930 . S
H729 C737 0.930 . S
H730 C740 0.930 . S
H731 C741 0.930 . S
C732 H726 0.930 . S
C732 C733 1.355 1_655 S
C732 C734 1.415 . S
C733 C732 1.355 1_455 S
C733 C735 1.419 . S
C734 C732 1.415 . S
C734 C739 1.425 1_655 S
C734 C741 1.409 . S
C735 H727 0.930 . S
C735 C733 1.419 . S
C735 C736 1.362 . S
C736 H728 0.930 . S
C736 C735 1.362 . S
C736 C739 1.409 . S
C737 H729 0.930 . S
C737 C738 1.357 . S
C737 C739 1.415 . S
C738 C737 1.357 . S
C738 C740 1.415 1_455 S
C739 C734 1.425 1_455 S
C739 C736 1.409 . S
C739 C737 1.415 . S
C740 H730 0.930 . S
C740 C738 1.415 1_655 S
C740 C741 1.362 . S
C741 H731 0.930 . S
C741 C734 1.409 . S
C741 C740 1.362 . S
H742 C748 0.930 . S
H743 C751 0.930 . S
H744 C752 0.930 . S
H745 C753 0.930 . S
H746 C756 0.930 . S
H747 C757 0.930 . S
C748 H742 0.930 . S
C748 C749 1.355 . S
C748 C750 1.415 . S
C749 C748 1.355 . S
C749 C751 1.419 . S
C750 C748 1.415 . S
C750 C755 1.425 . S
C750 C757 1.409 . S
C751 H743 0.930 . S
C751 C749 1.419 . S
C751 C752 1.362 . S
C752 H744 0.930 . S
C752 C751 1.362 . S
C752 C755 1.409 . S
C753 H745 0.930 . S
C753 C754 1.355 . S
C753 C755 1.415 . S
C754 C753 1.355 . S
C754 C756 1.419 . S
C755 C750 1.425 . S
C755 C752 1.409 . S
C755 C753 1.415 . S
C756 H746 0.930 . S
C756 C754 1.419 . S
C756 C757 1.362 . S
C757 H747 0.930 . S
C757 C750 1.409 . S
C757 C756 1.362 . S
H758 C764 0.930 . S
H759 C767 0.931 1_545 S
H760 C768 0.930 . S
H761 C769 0.933 . S
H762 C772 0.930 . S
H763 C773 0.930 . S
C764 H758 0.930 . S
C764 C765 1.355 . S
C764 C766 1.415 . S
C765 C764 1.355 . S
C765 C767 1.419 . S
C766 C764 1.415 . S
C766 C771 1.425 . S
C766 C773 1.409 . S
C767 H759 0.931 1_565 S
C767 C765 1.419 . S
C767 C768 1.356 1_565 S
C768 H760 0.930 . S
C768 C767 1.356 1_545 S
C768 C771 1.416 1_545 S
C769 H761 0.933 . S
C769 C770 1.382 1_545 S
C769 C771 1.388 1_545 S
C770 C769 1.382 1_565 S
C770 C772 1.419 . S
C771 C766 1.425 . S
C771 C768 1.416 1_565 S
C771 C769 1.388 1_565 S
C772 H762 0.930 . S
C772 C770 1.419 . S
C772 C773 1.362 . S
C773 H763 0.930 . S
C773 C766 1.409 . S
C773 C772 1.362 . S
H774 C780 0.930 . S
H775 C783 0.930 . S
H776 C784 0.930 . S
H777 C785 0.930 . S
H778 C788 0.930 . S
H779 C789 0.930 . S
C780 H774 0.930 . S
C780 C781 1.355 . S
C780 C782 1.415 . S
C781 C780 1.355 . S
C781 C783 1.419 1_545 S
C782 C780 1.415 . S
C782 C787 1.402 1_545 S
C782 C789 1.409 . S
C783 H775 0.930 . S
C783 C781 1.419 1_565 S
C783 C784 1.362 . S
C784 H776 0.930 . S
C784 C783 1.362 . S
C784 C787 1.443 . S
C785 H777 0.930 . S
C785 C786 1.355 1_565 S
C785 C787 1.405 . S
C786 C785 1.355 1_545 S
C786 C788 1.419 . S
C787 C782 1.402 1_565 S
C787 C784 1.443 . S
C787 C785 1.405 . S
C788 H778 0.930 . S
C788 C786 1.419 . S
C788 C789 1.362 . S
C789 H779 0.930 . S
C789 C782 1.409 . S
C789 C788 1.362 . S
H790 C796 0.930 . S
H791 C799 0.930 . S
H792 C800 0.930 . S
H793 C801 0.930 . S
H794 C804 0.930 . S
H795 C805 0.930 . S
C796 H790 0.930 . S
C796 C797 1.355 1_455 S
C796 C798 1.415 . S
C797 C796 1.355 1_655 S
C797 C799 1.419 . S
C798 C796 1.415 . S
C798 C803 1.425 1_455 S
C798 C805 1.409 . S
C799 H791 0.930 . S
C799 C797 1.419 . S
C799 C800 1.362 . S
C800 H792 0.930 . S
C800 C799 1.362 . S
C800 C803 1.409 . S
C801 H793 0.930 . S
C801 C802 1.357 1_655 S
C801 C803 1.415 . S
C802 C801 1.357 1_455 S
C802 C804 1.418 . S
C803 C798 1.425 1_655 S
C803 C800 1.409 . S
C803 C801 1.415 . S
C804 H794 0.930 . S
C804 C802 1.418 . S
C804 C805 1.362 . S
C805 H795 0.930 . S
C805 C798 1.409 . S
C805 C804 1.362 . S
H806 C812 0.930 . S
H807 C815 0.930 . S
H808 C816 0.930 . S
H809 C817 0.930 . S
H810 C820 0.930 . S
H811 C821 0.930 . S
C812 H806 0.930 . S
C812 C813 1.355 . S
C812 C814 1.415 . S
C813 C812 1.355 . S
C813 C815 1.419 . S
C814 C812 1.415 . S
C814 C819 1.425 . S
C814 C821 1.409 . S
C815 H807 0.930 . S
C815 C813 1.419 . S
C815 C816 1.362 . S
C816 H808 0.930 . S
C816 C815 1.362 . S
C816 C819 1.409 . S
C817 H809 0.930 . S
C817 C818 1.355 . S
C817 C819 1.415 . S
C818 C817 1.355 . S
C818 C820 1.419 . S
C819 C814 1.425 . S
C819 C816 1.409 . S
C819 C817 1.415 . S
C820 H810 0.930 . S
C820 C818 1.419 . S
C820 C821 1.362 . S
C821 H811 0.930 . S
C821 C814 1.409 . S
C821 C820 1.362 . S
H822 C828 0.930 . S
H823 C831 0.930 . S
H824 C832 0.930 . S
H825 C833 0.930 . S
H826 C836 0.930 . S
H827 C837 0.930 . S
C828 H822 0.930 . S
C828 C829 1.355 . S
C828 C830 1.415 . S
C829 C828 1.355 . S
C829 C831 1.419 . S
C830 C828 1.415 . S
C830 C835 1.425 . S
C830 C837 1.409 . S
C831 H823 0.930 . S
C831 C829 1.419 . S
C831 C832 1.362 . S
C832 H824 0.930 . S
C832 C831 1.362 . S
C832 C835 1.409 . S
C833 H825 0.930 . S
C833 C834 1.355 . S
C833 C835 1.415 . S
C834 C833 1.355 . S
C834 C836 1.419 . S
C835 C830 1.425 . S
C835 C832 1.409 . S
C835 C833 1.415 . S
C836 H826 0.930 . S
C836 C834 1.419 . S
C836 C837 1.362 . S
C837 H827 0.930 . S
C837 C830 1.409 . S
C837 C836 1.362 . S
H838 C844 0.930 . S
H839 C847 0.930 . S
H840 C848 0.930 . S
H841 C849 0.930 . S
H842 C852 0.930 . S
H843 C853 0.930 . S
C844 H838 0.930 . S
C844 C845 1.355 . S
C844 C846 1.415 . S
C845 C844 1.355 . S
C845 C847 1.419 . S
C846 C844 1.415 . S
C846 C851 1.425 . S
C846 C853 1.409 . S
C847 H839 0.930 . S
C847 C845 1.419 . S
C847 C848 1.362 . S
C848 H840 0.930 . S
C848 C847 1.362 . S
C848 C851 1.409 . S
C849 H841 0.930 . S
C849 C850 1.355 . S
C849 C851 1.415 . S
C850 C849 1.355 . S
C850 C852 1.419 . S
C851 C846 1.425 . S
C851 C848 1.409 . S
C851 C849 1.415 . S
C852 H842 0.930 . S
C852 C850 1.419 . S
C852 C853 1.362 . S
C853 H843 0.930 . S
C853 C846 1.409 . S
C853 C852 1.362 . S
H854 C860 0.930 . S
H855 C863 0.930 . S
H856 C864 0.930 . S
H857 C865 0.930 . S
H858 C868 0.930 . S
H859 C869 0.930 . S
C860 H854 0.930 . S
C860 C861 1.355 . S
C860 C862 1.415 . S
C861 C860 1.355 . S
C861 C863 1.419 . S
C862 C860 1.415 . S
C862 C867 1.425 . S
C862 C869 1.409 . S
C863 H855 0.930 . S
C863 C861 1.419 . S
C863 C864 1.362 . S
C864 H856 0.930 . S
C864 C863 1.362 . S
C864 C867 1.409 . S
C865 H857 0.930 . S
C865 C866 1.355 . S
C865 C867 1.415 . S
C866 C865 1.355 . S
C866 C868 1.419 . S
C867 C862 1.425 . S
C867 C864 1.409 . S
C867 C865 1.415 . S
C868 H858 0.930 . S
C868 C866 1.419 . S
C868 C869 1.362 . S
C869 H859 0.930 . S
C869 C862 1.409 . S
C869 C868 1.362 . S
H870 C876 0.930 . S
H871 C879 0.930 . S
H872 C880 0.930 . S
H873 C881 0.930 . S
H874 C884 0.930 . S
H875 C885 0.930 . S
C876 H870 0.930 . S
C876 C877 1.355 . S
C876 C878 1.415 . S
C877 C876 1.355 . S
C877 C879 1.419 . S
C878 C876 1.415 . S
C878 C883 1.425 . S
C878 C885 1.409 . S
C879 H871 0.930 . S
C879 C877 1.419 . S
C879 C880 1.362 . S
C880 H872 0.930 . S
C880 C879 1.362 . S
C880 C883 1.409 . S
C881 H873 0.930 . S
C881 C882 1.355 . S
C881 C883 1.415 . S
C882 C881 1.355 . S
C882 C884 1.419 . S
C883 C878 1.425 . S
C883 C880 1.409 . S
C883 C881 1.415 . S
C884 H874 0.930 . S
C884 C882 1.419 . S
C884 C885 1.362 . S
C885 H875 0.930 . S
C885 C878 1.409 . S
C885 C884 1.362 . S
H886 C892 0.930 . S
H887 C895 0.930 . S
H888 C896 0.930 . S
H889 C897 0.930 . S
H890 C900 0.930 . S
H891 C901 0.930 . S
C892 H886 0.930 . S
C892 C893 1.355 . S
C892 C894 1.415 . S
C893 C892 1.355 . S
C893 C895 1.419 . S
C894 C892 1.415 . S
C894 C899 1.425 . S
C894 C901 1.409 . S
C895 H887 0.930 . S
C895 C893 1.419 . S
C895 C896 1.362 . S
C896 H888 0.930 . S
C896 C895 1.362 . S
C896 C899 1.409 . S
C897 H889 0.930 . S
C897 C898 1.355 . S
C897 C899 1.415 . S
C898 C897 1.355 . S
C898 C900 1.419 . S
C899 C894 1.425 . S
C899 C896 1.409 . S
C899 C897 1.415 . S
C900 H890 0.930 . S
C900 C898 1.419 . S
C900 C901 1.362 . S
C901 H891 0.930 . S
C901 C894 1.409 . S
C901 C900 1.362 . S
H902 C908 0.930 . S
H903 C911 0.930 . S
H904 C912 0.930 . S
H905 C913 0.930 . S
H906 C916 0.930 . S
H907 C917 0.930 . S
C908 H902 0.930 . S
C908 C909 1.355 . S
C908 C910 1.415 . S
C909 C908 1.355 . S
C909 C911 1.419 . S
C910 C908 1.415 . S
C910 C915 1.425 . S
C910 C917 1.409 . S
C911 H903 0.930 . S
C911 C909 1.419 . S
C911 C912 1.362 . S
C912 H904 0.930 . S
C912 C911 1.362 . S
C912 C915 1.409 . S
C913 H905 0.930 . S
C913 C914 1.355 . S
C913 C915 1.415 . S
C914 C913 1.355 . S
C914 C916 1.419 . S
C915 C910 1.425 . S
C915 C912 1.409 . S
C915 C913 1.415 . S
C916 H906 0.930 . S
C916 C914 1.419 . S
C916 C917 1.362 . S
C917 H907 0.930 . S
C917 C910 1.409 . S
C917 C916 1.362 . S
H918 C924 0.930 . S
H919 C927 0.930 . S
H920 C928 0.930 . S
H921 C929 0.930 . S
H922 C932 0.930 . S
H923 C933 0.930 . S
C924 H918 0.930 . S
C924 C925 1.355 . S
C924 C926 1.415 . S
C925 C924 1.355 . S
C925 C927 1.419 . S
C926 C924 1.415 . S
C926 C931 1.425 . S
C926 C933 1.409 . S
C927 H919 0.930 . S
C927 C925 1.419 . S
C927 C928 1.362 . S
C928 H920 0.930 . S
C928 C927 1.362 . S
C928 C931 1.409 . S
C929 H921 0.930 . S
C929 C930 1.355 . S
C929 C931 1.415 . S
C930 C929 1.355 . S
C930 C932 1.419 . S
C931 C926 1.425 . S
C931 C928 1.409 . S
C931 C929 1.415 . S
C932 H922 0.930 . S
C932 C930 1.419 . S
C932 C933 1.362 . S
C933 H923 0.930 . S
C933 C926 1.409 . S
C933 C932 1.362 . S
H934 C940 0.930 . S
H935 C943 0.930 . S
H936 C944 0.930 . S
H937 C945 0.930 . S
H938 C948 0.930 . S
H939 C949 0.930 . S
C940 H934 0.930 . S
C940 C941 1.355 . S
C940 C942 1.415 . S
C941 C940 1.355 . S
C941 C943 1.419 . S
C942 C940 1.415 . S
C942 C947 1.425 . S
C942 C949 1.409 . S
C943 H935 0.930 . S
C943 C941 1.419 . S
C943 C944 1.362 . S
C944 H936 0.930 . S
C944 C943 1.362 . S
C944 C947 1.409 . S
C945 H937 0.930 . S
C945 C946 1.355 . S
C945 C947 1.415 . S
C946 C945 1.355 . S
C946 C948 1.419 . S
C947 C942 1.425 . S
C947 C944 1.409 . S
C947 C945 1.415 . S
C948 H938 0.930 . S
C948 C946 1.419 . S
C948 C949 1.362 . S
C949 H939 0.930 . S
C949 C942 1.409 . S
C949 C948 1.362 . S
H950 C956 0.930 . S
H951 C959 0.930 . S
H952 C960 0.930 . S
H953 C961 0.930 . S
H954 C964 0.930 . S
H955 C965 0.930 . S
C956 H950 0.930 . S
C956 C957 1.355 . S
C956 C958 1.415 . S
C957 C956 1.355 . S
C957 C959 1.419 . S
C958 C956 1.415 . S
C958 C963 1.425 . S
C958 C965 1.409 . S
C959 H951 0.930 . S
C959 C957 1.419 . S
C959 C960 1.362 . S
C960 H952 0.930 . S
C960 C959 1.362 . S
C960 C963 1.409 . S
C961 H953 0.930 . S
C961 C962 1.355 . S
C961 C963 1.415 . S
C962 C961 1.355 . S
C962 C964 1.419 . S
C963 C958 1.425 . S
C963 C960 1.409 . S
C963 C961 1.415 . S
C964 H954 0.930 . S
C964 C962 1.419 . S
C964 C965 1.362 . S
C965 H955 0.930 . S
C965 C958 1.409 . S
C965 C964 1.362 . S
H966 C972 0.930 . S
H967 C975 0.930 . S
H968 C976 0.930 . S
H969 C977 0.930 . S
H970 C980 0.930 . S
H971 C981 0.930 . S
C972 H966 0.930 . S
C972 C973 1.355 . S
C972 C974 1.415 . S
C973 C972 1.355 . S
C973 C975 1.419 . S
C974 C972 1.415 . S
C974 C979 1.425 . S
C974 C981 1.409 . S
C975 H967 0.930 . S
C975 C973 1.419 . S
C975 C976 1.362 . S
C976 H968 0.930 . S
C976 C975 1.362 . S
C976 C979 1.409 . S
C977 H969 0.930 . S
C977 C978 1.355 . S
C977 C979 1.415 . S
C978 C977 1.355 . S
C978 C980 1.419 . S
C979 C974 1.425 . S
C979 C976 1.409 . S
C979 C977 1.415 . S
C980 H970 0.930 . S
C980 C978 1.419 . S
C980 C981 1.362 . S
C981 H971 0.930 . S
C981 C974 1.409 . S
C981 C980 1.362 . S
H982 C988 0.930 . S
H983 C991 0.930 . S
H984 C992 0.930 . S
H985 C993 0.930 . S
H986 C996 0.930 . S
H987 C997 0.930 . S
C988 H982 0.930 . S
C988 C989 1.355 . S
C988 C990 1.415 . S
C989 C988 1.355 . S
C989 C991 1.419 . S
C990 C988 1.415 . S
C990 C995 1.425 . S
C990 C997 1.409 . S
C991 H983 0.930 . S
C991 C989 1.419 . S
C991 C992 1.362 . S
C992 H984 0.930 . S
C992 C991 1.362 . S
C992 C995 1.409 . S
C993 H985 0.930 . S
C993 C994 1.355 . S
C993 C995 1.415 . S
C994 C993 1.355 . S
C994 C996 1.419 . S
C995 C990 1.425 . S
C995 C992 1.409 . S
C995 C993 1.415 . S
C996 H986 0.930 . S
C996 C994 1.419 . S
C996 C997 1.362 . S
C997 H987 0.930 . S
C997 C990 1.409 . S
C997 C996 1.362 . S
H998 C1004 0.930 . S
H999 C1007 0.930 . S
H1000 C1008 0.930 . S
H1001 C1009 0.930 . S
H1002 C1012 0.930 . S
H1003 C1013 0.930 . S
C1004 H998 0.930 . S
C1004 C1005 1.355 . S
C1004 C1006 1.415 . S
C1005 C1004 1.355 . S
C1005 C1007 1.419 . S
C1006 C1004 1.415 . S
C1006 C1011 1.425 . S
C1006 C1013 1.409 . S
C1007 H999 0.930 . S
C1007 C1005 1.419 . S
C1007 C1008 1.362 . S
C1008 H1000 0.930 . S
C1008 C1007 1.362 . S
C1008 C1011 1.409 . S
C1009 H1001 0.930 . S
C1009 C1010 1.355 . S
C1009 C1011 1.415 . S
C1010 C1009 1.355 . S
C1010 C1012 1.419 . S
C1011 C1006 1.425 . S
C1011 C1008 1.409 . S
C1011 C1009 1.415 . S
C1012 H1002 0.930 . S
C1012 C1010 1.419 . S
C1012 C1013 1.362 . S
C1013 H1003 0.930 . S
C1013 C1006 1.409 . S
C1013 C1012 1.362 . S
H1014 C1020 0.930 . S
H1015 C1023 0.930 . S
H1016 C1024 0.930 . S
H1017 C1025 0.930 . S
H1018 C1028 0.930 . S
H1019 C1029 0.930 . S
C1020 H1014 0.930 . S
C1020 C1021 1.355 . S
C1020 C1022 1.415 . S
C1021 C1020 1.355 . S
C1021 C1023 1.419 . S
C1022 C1020 1.415 . S
C1022 C1027 1.425 . S
C1022 C1029 1.409 . S
C1023 H1015 0.930 . S
C1023 C1021 1.419 . S
C1023 C1024 1.362 . S
C1024 H1016 0.930 . S
C1024 C1023 1.362 . S
C1024 C1027 1.409 . S
C1025 H1017 0.930 . S
C1025 C1026 1.355 . S
C1025 C1027 1.415 . S
C1026 C1025 1.355 . S
C1026 C1028 1.419 . S
C1027 C1022 1.425 . S
C1027 C1024 1.409 . S
C1027 C1025 1.415 . S
C1028 H1018 0.930 . S
C1028 C1026 1.419 . S
C1028 C1029 1.362 . S
C1029 H1019 0.930 . S
C1029 C1022 1.409 . S
C1029 C1028 1.362 . S
H1030 C1036 0.930 . S
H1031 C1039 0.930 . S
H1032 C1040 0.930 . S
H1033 C1041 0.930 . S
H1034 C1044 0.930 . S
H1035 C1045 0.930 . S
C1036 H1030 0.930 . S
C1036 C1037 1.355 . S
C1036 C1038 1.415 . S
C1037 C1036 1.355 . S
C1037 C1039 1.419 . S
C1038 C1036 1.415 . S
C1038 C1043 1.425 . S
C1038 C1045 1.409 . S
C1039 H1031 0.930 . S
C1039 C1037 1.419 . S
C1039 C1040 1.362 . S
C1040 H1032 0.930 . S
C1040 C1039 1.362 . S
C1040 C1043 1.409 . S
C1041 H1033 0.930 . S
C1041 C1042 1.355 . S
C1041 C1043 1.415 . S
C1042 C1041 1.355 . S
C1042 C1044 1.419 . S
C1043 C1038 1.425 . S
C1043 C1040 1.409 . S
C1043 C1041 1.415 . S
C1044 H1034 0.930 . S
C1044 C1042 1.419 . S
C1044 C1045 1.362 . S
C1045 H1035 0.930 . S
C1045 C1038 1.409 . S
C1045 C1044 1.362 . S
H1046 C1052 0.930 . S
H1047 C1055 0.930 . S
H1048 C1056 0.930 . S
H1049 C1057 0.930 . S
H1050 C1060 0.930 . S
H1051 C1061 0.930 . S
C1052 H1046 0.930 . S
C1052 C1053 1.355 . S
C1052 C1054 1.415 . S
C1053 C1052 1.355 . S
C1053 C1055 1.419 . S
C1054 C1052 1.415 . S
C1054 C1059 1.425 . S
C1054 C1061 1.409 . S
C1055 H1047 0.930 . S
C1055 C1053 1.419 . S
C1055 C1056 1.362 . S
C1056 H1048 0.930 . S
C1056 C1055 1.362 . S
C1056 C1059 1.409 . S
C1057 H1049 0.930 . S
C1057 C1058 1.355 . S
C1057 C1059 1.415 . S
C1058 C1057 1.355 . S
C1058 C1060 1.419 . S
C1059 C1054 1.425 . S
C1059 C1056 1.409 . S
C1059 C1057 1.415 . S
C1060 H1050 0.930 . S
C1060 C1058 1.419 . S
C1060 C1061 1.362 . S
C1061 H1051 0.930 . S
C1061 C1054 1.409 . S
C1061 C1060 1.362 . S
H1062 C1068 0.930 . S
H1063 C1071 0.930 . S
H1064 C1072 0.930 . S
H1065 C1073 0.930 . S
H1066 C1076 0.930 . S
H1067 C1077 0.930 . S
C1068 H1062 0.930 . S
C1068 C1069 1.355 . S
C1068 C1070 1.415 . S
C1069 C1068 1.355 . S
C1069 C1071 1.419 . S
C1070 C1068 1.415 . S
C1070 C1075 1.425 . S
C1070 C1077 1.409 . S
C1071 H1063 0.930 . S
C1071 C1069 1.419 . S
C1071 C1072 1.362 . S
C1072 H1064 0.930 . S
C1072 C1071 1.362 . S
C1072 C1075 1.409 . S
C1073 H1065 0.930 . S
C1073 C1074 1.355 . S
C1073 C1075 1.415 . S
C1074 C1073 1.355 . S
C1074 C1076 1.419 . S
C1075 C1070 1.425 . S
C1075 C1072 1.409 . S
C1075 C1073 1.415 . S
C1076 H1066 0.930 . S
C1076 C1074 1.419 . S
C1076 C1077 1.362 . S
C1077 H1067 0.930 . S
C1077 C1070 1.409 . S
C1077 C1076 1.362 . S
H1078 C1084 0.930 . S
H1079 C1087 0.930 . S
H1080 C1088 0.930 . S
H1081 C1089 0.930 . S
H1082 C1092 0.930 . S
H1083 C1093 0.930 . S
C1084 H1078 0.930 . S
C1084 C1085 1.355 . S
C1084 C1086 1.415 . S
C1085 C1084 1.355 . S
C1085 C1087 1.419 . S
C1086 C1084 1.415 . S
C1086 C1091 1.425 . S
C1086 C1093 1.409 . S
C1087 H1079 0.930 . S
C1087 C1085 1.419 . S
C1087 C1088 1.362 . S
C1088 H1080 0.930 . S
C1088 C1087 1.362 . S
C1088 C1091 1.409 . S
C1089 H1081 0.930 . S
C1089 C1090 1.355 . S
C1089 C1091 1.415 . S
C1090 C1089 1.355 . S
C1090 C1092 1.419 . S
C1091 C1086 1.425 . S
C1091 C1088 1.409 . S
C1091 C1089 1.415 . S
C1092 H1082 0.930 . S
C1092 C1090 1.419 . S
C1092 C1093 1.362 . S
C1093 H1083 0.930 . S
C1093 C1086 1.409 . S
C1093 C1092 1.362 . S
H1094 C1100 0.930 . S
H1095 C1103 0.930 . S
H1096 C1104 0.930 . S
H1097 C1105 0.930 . S
H1098 C1108 0.930 . S
H1099 C1109 0.930 . S
C1100 H1094 0.930 . S
C1100 C1101 1.355 . S
C1100 C1102 1.415 . S
C1101 C1100 1.355 . S
C1101 C1103 1.419 . S
C1102 C1100 1.415 . S
C1102 C1107 1.425 . S
C1102 C1109 1.409 . S
C1103 H1095 0.930 . S
C1103 C1101 1.419 . S
C1103 C1104 1.362 . S
C1104 H1096 0.930 . S
C1104 C1103 1.362 . S
C1104 C1107 1.409 . S
C1105 H1097 0.930 . S
C1105 C1106 1.355 . S
C1105 C1107 1.415 . S
C1106 C1105 1.355 . S
C1106 C1108 1.419 . S
C1107 C1102 1.425 . S
C1107 C1104 1.409 . S
C1107 C1105 1.415 . S
C1108 H1098 0.930 . S
C1108 C1106 1.419 . S
C1108 C1109 1.362 . S
C1109 H1099 0.930 . S
C1109 C1102 1.409 . S
C1109 C1108 1.362 . S
H1110 C1116 0.930 . S
H1111 C1119 0.930 . S
H1112 C1120 0.930 . S
H1113 C1121 0.930 . S
H1114 C1124 0.930 . S
H1115 C1125 0.930 . S
C1116 H1110 0.930 . S
C1116 C1117 1.355 . S
C1116 C1118 1.415 . S
C1117 C1116 1.355 . S
C1117 C1119 1.419 . S
C1118 C1116 1.415 . S
C1118 C1123 1.425 . S
C1118 C1125 1.409 . S
C1119 H1111 0.930 . S
C1119 C1117 1.419 . S
C1119 C1120 1.362 . S
C1120 H1112 0.930 . S
C1120 C1119 1.362 . S
C1120 C1123 1.409 . S
C1121 H1113 0.930 . S
C1121 C1122 1.355 . S
C1121 C1123 1.415 . S
C1122 C1121 1.355 . S
C1122 C1124 1.419 . S
C1123 C1118 1.425 . S
C1123 C1120 1.409 . S
C1123 C1121 1.415 . S
C1124 H1114 0.930 . S
C1124 C1122 1.419 . S
C1124 C1125 1.362 . S
C1125 H1115 0.930 . S
C1125 C1118 1.409 . S
C1125 C1124 1.362 . S
H1126 C1132 0.930 . S
H1127 C1135 0.930 . S
H1128 C1136 0.930 . S
H1129 C1137 0.930 . S
H1130 C1140 0.930 . S
H1131 C1141 0.930 . S
C1132 H1126 0.930 . S
C1132 C1133 1.355 . S
C1132 C1134 1.415 . S
C1133 C1132 1.355 . S
C1133 C1135 1.419 . S
C1134 C1132 1.415 . S
C1134 C1139 1.425 . S
C1134 C1141 1.409 . S
C1135 H1127 0.930 . S
C1135 C1133 1.419 . S
C1135 C1136 1.362 . S
C1136 H1128 0.930 . S
C1136 C1135 1.362 . S
C1136 C1139 1.409 . S
C1137 H1129 0.930 . S
C1137 C1138 1.355 . S
C1137 C1139 1.415 . S
C1138 C1137 1.355 . S
C1138 C1140 1.419 . S
C1139 C1134 1.425 . S
C1139 C1136 1.409 . S
C1139 C1137 1.415 . S
C1140 H1130 0.930 . S
C1140 C1138 1.419 . S
C1140 C1141 1.362 . S
C1141 H1131 0.930 . S
C1141 C1134 1.409 . S
C1141 C1140 1.362 . S
H1142 C1148 0.930 . S
H1143 C1151 0.930 . S
H1144 C1152 0.930 . S
H1145 C1153 0.930 . S
H1146 C1156 0.930 . S
H1147 C1157 0.930 . S
C1148 H1142 0.930 . S
C1148 C1149 1.355 . S
C1148 C1150 1.415 . S
C1149 C1148 1.355 . S
C1149 C1151 1.419 . S
C1150 C1148 1.415 . S
C1150 C1155 1.425 . S
C1150 C1157 1.409 . S
C1151 H1143 0.930 . S
C1151 C1149 1.419 . S
C1151 C1152 1.362 . S
C1152 H1144 0.930 . S
C1152 C1151 1.362 . S
C1152 C1155 1.409 . S
C1153 H1145 0.930 . S
C1153 C1154 1.355 . S
C1153 C1155 1.415 . S
C1154 C1153 1.355 . S
C1154 C1156 1.419 . S
C1155 C1150 1.425 . S
C1155 C1152 1.409 . S
C1155 C1153 1.415 . S
C1156 H1146 0.930 . S
C1156 C1154 1.419 . S
C1156 C1157 1.362 . S
C1157 H1147 0.930 . S
C1157 C1150 1.409 . S
C1157 C1156 1.362 . S
H1158 C1164 0.930 . S
H1159 C1167 0.930 . S
H1160 C1168 0.930 . S
H1161 C1169 0.930 . S
H1162 C1172 0.930 . S
H1163 C1173 0.930 . S
C1164 H1158 0.930 . S
C1164 C1165 1.355 . S
C1164 C1166 1.415 . S
C1165 C1164 1.355 . S
C1165 C1167 1.419 . S
C1166 C1164 1.415 . S
C1166 C1171 1.425 . S
C1166 C1173 1.409 . S
C1167 H1159 0.930 . S
C1167 C1165 1.419 . S
C1167 C1168 1.362 . S
C1168 H1160 0.930 . S
C1168 C1167 1.362 . S
C1168 C1171 1.409 . S
C1169 H1161 0.930 . S
C1169 C1170 1.355 . S
C1169 C1171 1.415 . S
C1170 C1169 1.355 . S
C1170 C1172 1.419 . S
C1171 C1166 1.425 . S
C1171 C1168 1.409 . S
C1171 C1169 1.415 . S
C1172 H1162 0.930 . S
C1172 C1170 1.419 . S
C1172 C1173 1.362 . S
C1173 H1163 0.930 . S
C1173 C1166 1.409 . S
C1173 C1172 1.362 . S
H1174 C1180 0.930 . S
H1175 C1183 0.930 . S
H1176 C1184 0.930 . S
H1177 C1185 0.930 . S
H1178 C1188 0.930 . S
H1179 C1189 0.930 . S
C1180 H1174 0.930 . S
C1180 C1181 1.355 . S
C1180 C1182 1.415 . S
C1181 C1180 1.355 . S
C1181 C1183 1.419 . S
C1182 C1180 1.415 . S
C1182 C1187 1.425 . S
C1182 C1189 1.409 . S
C1183 H1175 0.930 . S
C1183 C1181 1.419 . S
C1183 C1184 1.362 . S
C1184 H1176 0.930 . S
C1184 C1183 1.362 . S
C1184 C1187 1.409 . S
C1185 H1177 0.930 . S
C1185 C1186 1.355 . S
C1185 C1187 1.415 . S
C1186 C1185 1.355 . S
C1186 C1188 1.419 . S
C1187 C1182 1.425 . S
C1187 C1184 1.409 . S
C1187 C1185 1.415 . S
C1188 H1178 0.930 . S
C1188 C1186 1.419 . S
C1188 C1189 1.362 . S
C1189 H1179 0.930 . S
C1189 C1182 1.409 . S
C1189 C1188 1.362 . S
H1190 C1196 0.930 . S
H1191 C1199 0.930 . S
H1192 C1200 0.930 . S
H1193 C1201 0.930 . S
H1194 C1204 0.930 . S
H1195 C1205 0.930 . S
C1196 H1190 0.930 . S
C1196 C1197 1.355 . S
C1196 C1198 1.415 . S
C1197 C1196 1.355 . S
C1197 C1199 1.419 . S
C1198 C1196 1.415 . S
C1198 C1203 1.425 . S
C1198 C1205 1.409 . S
C1199 H1191 0.930 . S
C1199 C1197 1.419 . S
C1199 C1200 1.362 . S
C1200 H1192 0.930 . S
C1200 C1199 1.362 . S
C1200 C1203 1.409 . S
C1201 H1193 0.930 . S
C1201 C1202 1.355 . S
C1201 C1203 1.415 . S
C1202 C1201 1.355 . S
C1202 C1204 1.419 . S
C1203 C1198 1.425 . S
C1203 C1200 1.409 . S
C1203 C1201 1.415 . S
C1204 H1194 0.930 . S
C1204 C1202 1.419 . S
C1204 C1205 1.362 . S
C1205 H1195 0.930 . S
C1205 C1198 1.409 . S
C1205 C1204 1.362 . S
H1206 C1212 0.930 . S
H1207 C1215 0.930 . S
H1208 C1216 0.930 . S
H1209 C1217 0.930 . S
H1210 C1220 0.930 . S
H1211 C1221 0.930 . S
C1212 H1206 0.930 . S
C1212 C1213 1.355 . S
C1212 C1214 1.415 . S
C1213 C1212 1.355 . S
C1213 C1215 1.419 . S
C1214 C1212 1.415 . S
C1214 C1219 1.425 . S
C1214 C1221 1.409 . S
C1215 H1207 0.930 . S
C1215 C1213 1.419 . S
C1215 C1216 1.362 . S
C1216 H1208 0.930 . S
C1216 C1215 1.362 . S
C1216 C1219 1.409 . S
C1217 H1209 0.930 . S
C1217 C1218 1.355 . S
C1217 C1219 1.415 . S
C1218 C1217 1.355 . S
C1218 C1220 1.419 . S
C1219 C1214 1.425 . S
C1219 C1216 1.409 . S
C1219 C1217 1.415 . S
C1220 H1210 0.930 . S
C1220 C1218 1.419 . S
C1220 C1221 1.362 . S
C1221 H1211 0.930 . S
C1221 C1214 1.409 . S
C1221 C1220 1.362 . S
H1222 C1228 0.930 . S
H1223 C1231 0.930 . S
H1224 C1232 0.930 . S
H1225 C1233 0.930 . S
H1226 C1236 0.930 . S
H1227 C1237 0.930 . S
C1228 H1222 0.930 . S
C1228 C1229 1.355 . S
C1228 C1230 1.415 . S
C1229 C1228 1.355 . S
C1229 C1231 1.419 . S
C1230 C1228 1.415 . S
C1230 C1235 1.425 . S
C1230 C1237 1.409 . S
C1231 H1223 0.930 . S
C1231 C1229 1.419 . S
C1231 C1232 1.362 . S
C1232 H1224 0.930 . S
C1232 C1231 1.362 . S
C1232 C1235 1.409 . S
C1233 H1225 0.930 . S
C1233 C1234 1.355 . S
C1233 C1235 1.415 . S
C1234 C1233 1.355 . S
C1234 C1236 1.419 . S
C1235 C1230 1.425 . S
C1235 C1232 1.409 . S
C1235 C1233 1.415 . S
C1236 H1226 0.930 . S
C1236 C1234 1.419 . S
C1236 C1237 1.362 . S
C1237 H1227 0.930 . S
C1237 C1230 1.409 . S
C1237 C1236 1.362 . S
H1238 C1244 0.930 . S
H1239 C1247 0.930 . S
H1240 C1248 0.930 . S
H1241 C1249 0.930 . S
H1242 C1252 0.930 . S
H1243 C1253 0.930 . S
C1244 H1238 0.930 . S
C1244 C1245 1.355 . S
C1244 C1246 1.415 . S
C1245 C1244 1.355 . S
C1245 C1247 1.419 . S
C1246 C1244 1.415 . S
C1246 C1251 1.425 . S
C1246 C1253 1.409 . S
C1247 H1239 0.930 . S
C1247 C1245 1.419 . S
C1247 C1248 1.362 . S
C1248 H1240 0.930 . S
C1248 C1247 1.362 . S
C1248 C1251 1.409 . S
C1249 H1241 0.930 . S
C1249 C1250 1.355 . S
C1249 C1251 1.415 . S
C1250 C1249 1.355 . S
C1250 C1252 1.419 . S
C1251 C1246 1.425 . S
C1251 C1248 1.409 . S
C1251 C1249 1.415 . S
C1252 H1242 0.930 . S
C1252 C1250 1.419 . S
C1252 C1253 1.362 . S
C1253 H1243 0.930 . S
C1253 C1246 1.409 . S
C1253 C1252 1.362 . S
H1254 C1260 0.930 1_554 S
H1255 C1263 0.930 . S
H1256 C1264 0.930 . S
H1257 C1265 0.930 . S
H1258 C1268 0.930 . S
H1259 C1269 0.931 1_554 S
C1260 H1254 0.930 1_556 S
C1260 C1261 1.355 . S
C1260 C1262 1.415 . S
C1261 C1260 1.355 . S
C1261 C1263 1.419 . S
C1262 C1260 1.415 . S
C1262 C1267 1.425 . S
C1262 C1269 1.409 . S
C1263 H1255 0.930 . S
C1263 C1261 1.419 . S
C1263 C1264 1.362 . S
C1264 H1256 0.930 . S
C1264 C1263 1.362 . S
C1264 C1267 1.409 . S
C1265 H1257 0.930 . S
C1265 C1266 1.355 . S
C1265 C1267 1.415 . S
C1266 C1265 1.355 . S
C1266 C1268 1.419 . S
C1267 C1262 1.425 . S
C1267 C1264 1.409 . S
C1267 C1265 1.415 . S
C1268 H1258 0.930 . S
C1268 C1266 1.419 . S
C1268 C1269 1.362 . S
C1269 H1259 0.931 1_556 S
C1269 C1262 1.409 . S
C1269 C1268 1.362 . S
H1270 C1276 0.930 . S
H1271 C1279 0.930 . S
H1272 C1280 0.930 . S
H1273 C1281 0.930 . S
H1274 C1284 0.930 . S
H1275 C1285 0.930 . S
C1276 H1270 0.930 . S
C1276 C1277 1.355 . S
C1276 C1278 1.415 . S
C1277 C1276 1.355 . S
C1277 C1279 1.419 . S
C1278 C1276 1.415 . S
C1278 C1283 1.425 . S
C1278 C1285 1.409 . S
C1279 H1271 0.930 . S
C1279 C1277 1.419 . S
C1279 C1280 1.362 . S
C1280 H1272 0.930 . S
C1280 C1279 1.362 . S
C1280 C1283 1.409 . S
C1281 H1273 0.930 . S
C1281 C1282 1.355 . S
C1281 C1283 1.415 . S
C1282 C1281 1.355 . S
C1282 C1284 1.419 . S
C1283 C1278 1.425 . S
C1283 C1280 1.409 . S
C1283 C1281 1.415 . S
C1284 H1274 0.930 . S
C1284 C1282 1.419 . S
C1284 C1285 1.362 . S
C1285 H1275 0.930 . S
C1285 C1278 1.409 . S
C1285 C1284 1.362 . S
H1286 C1292 0.930 . S
H1287 C1295 0.930 . S
H1288 C1296 0.930 . S
H1289 C1297 0.930 . S
H1290 C1300 0.930 . S
H1291 C1301 0.930 . S
C1292 H1286 0.930 . S
C1292 C1293 1.355 . S
C1292 C1294 1.415 . S
C1293 C1292 1.355 . S
C1293 C1295 1.419 1_556 S
C1294 C1292 1.415 . S
C1294 C1299 1.425 . S
C1294 C1301 1.409 . S
C1295 H1287 0.930 . S
C1295 C1293 1.419 1_554 S
C1295 C1296 1.362 . S
C1296 H1288 0.930 . S
C1296 C1295 1.362 . S
C1296 C1299 1.409 1_554 S
C1297 H1289 0.930 . S
C1297 C1298 1.355 . S
C1297 C1299 1.415 . S
C1298 C1297 1.355 . S
C1298 C1300 1.419 . S
C1299 C1294 1.425 . S
C1299 C1296 1.409 1_556 S
C1299 C1297 1.415 . S
C1300 H1290 0.930 . S
C1300 C1298 1.419 . S
C1300 C1301 1.362 . S
C1301 H1291 0.930 . S
C1301 C1294 1.409 . S
C1301 C1300 1.362 . S
H1302 C1308 0.930 . S
H1303 C1311 0.930 . S
H1304 C1312 0.948 . S
H1305 C1313 0.930 . S
H1306 C1316 0.930 . S
H1307 C1317 0.930 . S
C1308 H1302 0.930 . S
C1308 C1309 1.355 . S
C1308 C1310 1.415 . S
C1309 C1308 1.355 . S
C1309 C1311 1.419 1_556 S
C1310 C1308 1.415 . S
C1310 C1315 1.425 . S
C1310 C1317 1.409 . S
C1311 H1303 0.930 . S
C1311 C1309 1.419 1_554 S
C1311 C1312 1.368 . S
C1312 H1304 0.948 . S
C1312 C1311 1.368 . S
C1312 C1315 1.387 1_554 S
C1313 H1305 0.930 . S
C1313 C1314 1.355 . S
C1313 C1315 1.415 . S
C1314 C1313 1.355 . S
C1314 C1316 1.419 . S
C1315 C1310 1.425 . S
C1315 C1312 1.387 1_556 S
C1315 C1313 1.415 . S
C1316 H1306 0.930 . S
C1316 C1314 1.419 . S
C1316 C1317 1.362 . S
C1317 H1307 0.930 . S
C1317 C1310 1.409 . S
C1317 C1316 1.362 . S
H1318 C1324 0.930 . S
H1319 C1327 0.930 . S
H1320 C1328 0.930 1_554 S
H1321 C1329 0.930 . S
H1322 C1332 0.930 . S
H1323 C1333 0.930 . S
C1324 H1318 0.930 . S
C1324 C1325 1.355 . S
C1324 C1326 1.415 . S
C1325 C1324 1.355 . S
C1325 C1327 1.419 1_556 S
C1326 C1324 1.415 . S
C1326 C1331 1.425 . S
C1326 C1333 1.409 . S
C1327 H1319 0.930 . S
C1327 C1325 1.419 1_554 S
C1327 C1328 1.362 1_554 S
C1328 H1320 0.930 1_556 S
C1328 C1327 1.362 1_556 S
C1328 C1331 1.409 . S
C1329 H1321 0.930 . S
C1329 C1330 1.355 . S
C1329 C1331 1.415 . S
C1330 C1329 1.355 . S
C1330 C1332 1.419 . S
C1331 C1326 1.425 . S
C1331 C1328 1.409 . S
C1331 C1329 1.415 . S
C1332 H1322 0.930 . S
C1332 C1330 1.419 . S
C1332 C1333 1.362 . S
C1333 H1323 0.930 . S
C1333 C1326 1.409 . S
C1333 C1332 1.362 . S
H1334 C1340 0.930 . S
H1335 C1343 0.930 . S
H1336 C1344 0.930 . S
H1337 C1345 0.930 . S
H1338 C1348 0.930 . S
H1339 C1349 0.930 . S
C1340 H1334 0.930 . S
C1340 C1341 1.355 . S
C1340 C1342 1.415 . S
C1341 C1340 1.355 . S
C1341 C1343 1.419 . S
C1342 C1340 1.415 . S
C1342 C1347 1.425 . S
C1342 C1349 1.409 . S
C1343 H1335 0.930 . S
C1343 C1341 1.419 . S
C1343 C1344 1.362 . S
C1344 H1336 0.930 . S
C1344 C1343 1.362 . S
C1344 C1347 1.409 . S
C1345 H1337 0.930 . S
C1345 C1346 1.355 . S
C1345 C1347 1.415 . S
C1346 C1345 1.355 . S
C1346 C1348 1.419 . S
C1347 C1342 1.425 . S
C1347 C1344 1.409 . S
C1347 C1345 1.415 . S
C1348 H1338 0.930 . S
C1348 C1346 1.419 . S
C1348 C1349 1.362 . S
C1349 H1339 0.930 . S
C1349 C1342 1.409 . S
C1349 C1348 1.362 . S
H1350 C1356 0.930 . S
H1351 C1359 0.930 . S
H1352 C1360 0.930 . S
H1353 C1361 0.930 . S
H1354 C1364 0.930 . S
H1355 C1365 0.930 . S
C1356 H1350 0.930 . S
C1356 C1357 1.355 . S
C1356 C1358 1.415 . S
C1357 C1356 1.355 . S
C1357 C1359 1.419 . S
C1358 C1356 1.415 . S
C1358 C1363 1.425 . S
C1358 C1365 1.409 . S
C1359 H1351 0.930 . S
C1359 C1357 1.419 . S
C1359 C1360 1.362 . S
C1360 H1352 0.930 . S
C1360 C1359 1.362 . S
C1360 C1363 1.409 . S
C1361 H1353 0.930 . S
C1361 C1362 1.355 . S
C1361 C1363 1.415 . S
C1362 C1361 1.355 . S
C1362 C1364 1.419 . S
C1363 C1358 1.425 . S
C1363 C1360 1.409 . S
C1363 C1361 1.415 . S
C1364 H1354 0.930 . S
C1364 C1362 1.419 . S
C1364 C1365 1.362 . S
C1365 H1355 0.930 . S
C1365 C1358 1.409 . S
C1365 C1364 1.362 . S
H1366 C1372 0.930 . S
H1367 C1375 0.930 . S
H1368 C1376 0.930 . S
H1369 C1377 0.930 . S
H1370 C1380 0.930 . S
H1371 C1381 0.930 . S
C1372 H1366 0.930 . S
C1372 C1373 1.355 . S
C1372 C1374 1.415 . S
C1373 C1372 1.355 . S
C1373 C1375 1.419 . S
C1374 C1372 1.415 . S
C1374 C1379 1.425 . S
C1374 C1381 1.409 . S
C1375 H1367 0.930 . S
C1375 C1373 1.419 . S
C1375 C1376 1.362 . S
C1376 H1368 0.930 . S
C1376 C1375 1.362 . S
C1376 C1379 1.409 . S
C1377 H1369 0.930 . S
C1377 C1378 1.355 . S
C1377 C1379 1.415 . S
C1378 C1377 1.355 . S
C1378 C1380 1.419 . S
C1379 C1374 1.425 . S
C1379 C1376 1.409 . S
C1379 C1377 1.415 . S
C1380 H1370 0.930 . S
C1380 C1378 1.419 . S
C1380 C1381 1.362 . S
C1381 H1371 0.930 . S
C1381 C1374 1.409 . S
C1381 C1380 1.362 . S
H1382 C1388 0.930 . S
H1383 C1391 0.930 . S
H1384 C1392 0.930 . S
H1385 C1393 0.930 . S
H1386 C1396 0.930 . S
H1387 C1397 0.930 . S
C1388 H1382 0.930 . S
C1388 C1389 1.355 . S
C1388 C1390 1.415 . S
C1389 C1388 1.355 . S
C1389 C1391 1.419 . S
C1390 C1388 1.415 . S
C1390 C1395 1.425 . S
C1390 C1397 1.409 . S
C1391 H1383 0.930 . S
C1391 C1389 1.419 . S
C1391 C1392 1.362 . S
C1392 H1384 0.930 . S
C1392 C1391 1.362 . S
C1392 C1395 1.409 . S
C1393 H1385 0.930 . S
C1393 C1394 1.355 . S
C1393 C1395 1.415 . S
C1394 C1393 1.355 . S
C1394 C1396 1.419 . S
C1395 C1390 1.425 . S
C1395 C1392 1.409 . S
C1395 C1393 1.415 . S
C1396 H1386 0.930 . S
C1396 C1394 1.419 . S
C1396 C1397 1.362 . S
C1397 H1387 0.930 . S
C1397 C1390 1.409 . S
C1397 C1396 1.362 . S
H1398 C1404 0.930 . S
H1399 C1407 0.930 . S
H1400 C1408 0.930 . S
H1401 C1409 0.930 . S
H1402 C1412 0.930 . S
H1403 C1413 0.930 . S
C1404 H1398 0.930 . S
C1404 C1405 1.355 . S
C1404 C1406 1.415 . S
C1405 C1404 1.355 . S
C1405 C1407 1.419 . S
C1406 C1404 1.415 . S
C1406 C1411 1.425 . S
C1406 C1413 1.409 . S
C1407 H1399 0.930 . S
C1407 C1405 1.419 . S
C1407 C1408 1.362 . S
C1408 H1400 0.930 . S
C1408 C1407 1.362 . S
C1408 C1411 1.409 . S
C1409 H1401 0.930 . S
C1409 C1410 1.355 . S
C1409 C1411 1.415 . S
C1410 C1409 1.355 . S
C1410 C1412 1.419 . S
C1411 C1406 1.425 . S
C1411 C1408 1.409 . S
C1411 C1409 1.415 . S
C1412 H1402 0.930 . S
C1412 C1410 1.419 . S
C1412 C1413 1.362 . S
C1413 H1403 0.930 . S
C1413 C1406 1.409 . S
C1413 C1412 1.362 . S
H1414 C1420 0.930 . S
H1415 C1423 0.930 . S
H1416 C1424 0.930 . S
H1417 C1425 0.930 . S
H1418 C1428 0.930 . S
H1419 C1429 0.930 . S
C1420 H1414 0.930 . S
C1420 C1421 1.355 . S
C1420 C1422 1.415 . S
C1421 C1420 1.355 . S
C1421 C1423 1.419 . S
C1422 C1420 1.415 . S
C1422 C1427 1.425 . S
C1422 C1429 1.409 . S
C1423 H1415 0.930 . S
C1423 C1421 1.419 . S
C1423 C1424 1.362 . S
C1424 H1416 0.930 . S
C1424 C1423 1.362 . S
C1424 C1427 1.409 . S
C1425 H1417 0.930 . S
C1425 C1426 1.355 . S
C1425 C1427 1.415 . S
C1426 C1425 1.355 . S
C1426 C1428 1.419 . S
C1427 C1422 1.425 . S
C1427 C1424 1.409 . S
C1427 C1425 1.415 . S
C1428 H1418 0.930 . S
C1428 C1426 1.419 . S
C1428 C1429 1.362 . S
C1429 H1419 0.930 . S
C1429 C1422 1.409 . S
C1429 C1428 1.362 . S
H1430 C1436 0.930 . S
H1431 C1439 0.930 . S
H1432 C1440 0.930 . S
H1433 C1441 0.930 . S
H1434 C1444 0.930 . S
H1435 C1445 0.930 . S
C1436 H1430 0.930 . S
C1436 C1437 1.355 . S
C1436 C1438 1.415 . S
C1437 C1436 1.355 . S
C1437 C1439 1.419 . S
C1438 C1436 1.415 . S
C1438 C1443 1.425 . S
C1438 C1445 1.409 . S
C1439 H1431 0.930 . S
C1439 C1437 1.419 . S
C1439 C1440 1.362 . S
C1440 H1432 0.930 . S
C1440 C1439 1.362 . S
C1440 C1443 1.409 . S
C1441 H1433 0.930 . S
C1441 C1442 1.355 . S
C1441 C1443 1.415 . S
C1442 C1441 1.355 . S
C1442 C1444 1.419 . S
C1443 C1438 1.425 . S
C1443 C1440 1.409 . S
C1443 C1441 1.415 . S
C1444 H1434 0.930 . S
C1444 C1442 1.419 . S
C1444 C1445 1.362 . S
C1445 H1435 0.930 . S
C1445 C1438 1.409 . S
C1445 C1444 1.362 . S
H1446 C1452 0.930 . S
H1447 C1455 0.930 . S
H1448 C1456 0.930 . S
H1449 C1457 0.930 . S
H1450 C1460 0.930 . S
H1451 C1461 0.930 . S
C1452 H1446 0.930 . S
C1452 C1453 1.355 . S
C1452 C1454 1.415 . S
C1453 C1452 1.355 . S
C1453 C1455 1.419 1_455 S
C1454 C1452 1.415 . S
C1454 C1459 1.425 . S
C1454 C1461 1.409 . S
C1455 H1447 0.930 . S
C1455 C1453 1.419 1_655 S
C1455 C1456 1.362 . S
C1456 H1448 0.930 . S
C1456 C1455 1.362 . S
C1456 C1459 1.409 1_655 S
C1457 H1449 0.930 . S
C1457 C1458 1.355 1_655 S
C1457 C1459 1.415 1_655 S
C1458 C1457 1.355 1_455 S
C1458 C1460 1.419 . S
C1459 C1454 1.425 . S
C1459 C1456 1.409 1_455 S
C1459 C1457 1.415 1_455 S
C1460 H1450 0.930 . S
C1460 C1458 1.419 . S
C1460 C1461 1.362 . S
C1461 H1451 0.930 . S
C1461 C1454 1.409 . S
C1461 C1460 1.362 . S
H1462 C1468 0.930 . S
H1463 C1471 0.930 . S
H1464 C1472 0.930 . S
H1465 C1473 0.930 . S
H1466 C1476 0.930 . S
H1467 C1477 0.930 . S
C1468 H1462 0.930 . S
C1468 C1469 1.355 . S
C1468 C1470 1.415 . S
C1469 C1468 1.355 . S
C1469 C1471 1.419 . S
C1470 C1468 1.415 . S
C1470 C1475 1.425 . S
C1470 C1477 1.409 . S
C1471 H1463 0.930 . S
C1471 C1469 1.419 . S
C1471 C1472 1.362 . S
C1472 H1464 0.930 . S
C1472 C1471 1.362 . S
C1472 C1475 1.409 . S
C1473 H1465 0.930 . S
C1473 C1474 1.355 . S
C1473 C1475 1.415 . S
C1474 C1473 1.355 . S
C1474 C1476 1.419 . S
C1475 C1470 1.425 . S
C1475 C1472 1.409 . S
C1475 C1473 1.415 . S
C1476 H1466 0.930 . S
C1476 C1474 1.419 . S
C1476 C1477 1.362 . S
C1477 H1467 0.930 . S
C1477 C1470 1.409 . S
C1477 C1476 1.362 . S
H1478 C1484 0.930 . S
H1479 C1487 0.930 . S
H1480 C1488 0.930 . S
H1481 C1489 0.930 . S
H1482 C1492 0.930 . S
H1483 C1493 0.930 . S
C1484 H1478 0.930 . S
C1484 C1485 1.355 . S
C1484 C1486 1.415 . S
C1485 C1484 1.355 . S
C1485 C1487 1.419 . S
C1486 C1484 1.415 . S
C1486 C1491 1.425 . S
C1486 C1493 1.409 . S
C1487 H1479 0.930 . S
C1487 C1485 1.419 . S
C1487 C1488 1.362 . S
C1488 H1480 0.930 . S
C1488 C1487 1.362 . S
C1488 C1491 1.409 . S
C1489 H1481 0.930 . S
C1489 C1490 1.355 . S
C1489 C1491 1.415 . S
C1490 C1489 1.355 . S
C1490 C1492 1.419 . S
C1491 C1486 1.425 . S
C1491 C1488 1.409 . S
C1491 C1489 1.415 . S
C1492 H1482 0.930 . S
C1492 C1490 1.419 . S
C1492 C1493 1.362 . S
C1493 H1483 0.930 . S
C1493 C1486 1.409 . S
C1493 C1492 1.362 . S
H1494 C1500 0.930 . S
H1495 C1503 0.930 . S
H1496 C1504 0.930 . S
H1497 C1505 0.930 . S
H1498 C1508 0.930 . S
H1499 C1509 0.930 . S
C1500 H1494 0.930 . S
C1500 C1501 1.355 . S
C1500 C1502 1.415 . S
C1501 C1500 1.355 . S
C1501 C1503 1.419 1_565 S
C1502 C1500 1.415 . S
C1502 C1507 1.425 1_565 S
C1502 C1509 1.409 . S
C1503 H1495 0.930 . S
C1503 C1501 1.419 1_545 S
C1503 C1504 1.362 . S
C1504 H1496 0.930 . S
C1504 C1503 1.362 . S
C1504 C1507 1.409 . S
C1505 H1497 0.930 . S
C1505 C1506 1.355 1_545 S
C1505 C1507 1.415 . S
C1506 C1505 1.355 1_565 S
C1506 C1508 1.419 . S
C1507 C1502 1.425 1_545 S
C1507 C1504 1.409 . S
C1507 C1505 1.415 . S
C1508 H1498 0.930 . S
C1508 C1506 1.419 . S
C1508 C1509 1.362 . S
C1509 H1499 0.930 . S
C1509 C1502 1.409 . S
C1509 C1508 1.362 . S
H1510 C1516 0.930 . S
H1511 C1519 0.930 . S
H1512 C1520 0.932 1_655 S
H1513 C1521 0.938 1_655 S
H1514 C1524 0.930 . S
H1515 C1525 0.930 . S
C1516 H1510 0.930 . S
C1516 C1517 1.355 . S
C1516 C1518 1.415 . S
C1517 C1516 1.355 . S
C1517 C1519 1.419 . S
C1518 C1516 1.415 . S
C1518 C1523 1.425 . S
C1518 C1525 1.409 . S
C1519 H1511 0.930 . S
C1519 C1517 1.419 . S
C1519 C1520 1.362 . S
C1520 H1512 0.932 1_455 S
C1520 C1519 1.362 . S
C1520 C1523 1.409 . S
C1521 H1513 0.938 1_455 S
C1521 C1522 1.355 . S
C1521 C1523 1.415 . S
C1522 C1521 1.355 . S
C1522 C1524 1.419 . S
C1523 C1518 1.425 . S
C1523 C1520 1.409 . S
C1523 C1521 1.415 . S
C1524 H1514 0.930 . S
C1524 C1522 1.419 . S
C1524 C1525 1.362 . S
C1525 H1515 0.930 . S
C1525 C1518 1.409 . S
C1525 C1524 1.362 . S
H1526 C1532 0.930 . S
H1527 C1535 0.930 . S
H1528 C1536 0.930 . S
H1529 C1537 0.930 . S
H1530 C1540 0.930 . S
H1531 C1541 0.930 . S
C1532 H1526 0.930 . S
C1532 C1533 1.355 . S
C1532 C1534 1.415 . S
C1533 C1532 1.355 . S
C1533 C1535 1.419 . S
C1534 C1532 1.415 . S
C1534 C1539 1.425 . S
C1534 C1541 1.409 . S
C1535 H1527 0.930 . S
C1535 C1533 1.419 . S
C1535 C1536 1.362 . S
C1536 H1528 0.930 . S
C1536 C1535 1.362 . S
C1536 C1539 1.409 . S
C1537 H1529 0.930 . S
C1537 C1538 1.355 . S
C1537 C1539 1.415 . S
C1538 C1537 1.355 . S
C1538 C1540 1.419 . S
C1539 C1534 1.425 . S
C1539 C1536 1.409 . S
C1539 C1537 1.415 . S
C1540 H1530 0.930 . S
C1540 C1538 1.419 . S
C1540 C1541 1.362 . S
C1541 H1531 0.930 . S
C1541 C1534 1.409 . S
C1541 C1540 1.362 . S
H1542 C1548 0.930 . S
H1543 C1551 0.930 . S
H1544 C1552 0.930 . S
H1545 C1553 0.930 . S
H1546 C1556 0.930 . S
H1547 C1557 0.930 . S
C1548 H1542 0.930 . S
C1548 C1549 1.355 . S
C1548 C1550 1.415 . S
C1549 C1548 1.355 . S
C1549 C1551 1.419 . S
C1550 C1548 1.415 . S
C1550 C1555 1.425 . S
C1550 C1557 1.409 . S
C1551 H1543 0.930 . S
C1551 C1549 1.419 . S
C1551 C1552 1.362 . S
C1552 H1544 0.930 . S
C1552 C1551 1.362 . S
C1552 C1555 1.409 . S
C1553 H1545 0.930 . S
C1553 C1554 1.355 . S
C1553 C1555 1.415 . S
C1554 C1553 1.355 . S
C1554 C1556 1.419 . S
C1555 C1550 1.425 . S
C1555 C1552 1.409 . S
C1555 C1553 1.415 . S
C1556 H1546 0.930 . S
C1556 C1554 1.419 . S
C1556 C1557 1.362 . S
C1557 H1547 0.930 . S
C1557 C1550 1.409 . S
C1557 C1556 1.362 . S
H1558 C1564 0.930 . S
H1559 C1567 0.930 . S
H1560 C1568 0.930 . S
H1561 C1569 0.930 . S
H1562 C1572 0.930 . S
H1563 C1573 0.930 . S
C1564 H1558 0.930 . S
C1564 C1565 1.355 . S
C1564 C1566 1.415 . S
C1565 C1564 1.355 . S
C1565 C1567 1.419 . S
C1566 C1564 1.415 . S
C1566 C1571 1.425 . S
C1566 C1573 1.409 . S
C1567 H1559 0.930 . S
C1567 C1565 1.419 . S
C1567 C1568 1.362 . S
C1568 H1560 0.930 . S
C1568 C1567 1.362 . S
C1568 C1571 1.409 . S
C1569 H1561 0.930 . S
C1569 C1570 1.355 . S
C1569 C1571 1.415 . S
C1570 C1569 1.355 . S
C1570 C1572 1.419 . S
C1571 C1566 1.425 . S
C1571 C1568 1.409 . S
C1571 C1569 1.415 . S
C1572 H1562 0.930 . S
C1572 C1570 1.419 . S
C1572 C1573 1.362 . S
C1573 H1563 0.930 . S
C1573 C1566 1.409 . S
C1573 C1572 1.362 . S
H1574 C1580 0.930 . S
H1575 C1583 0.930 . S
H1576 C1584 0.930 . S
H1577 C1585 0.930 . S
H1578 C1588 0.930 . S
H1579 C1589 0.930 . S
C1580 H1574 0.930 . S
C1580 C1581 1.355 . S
C1580 C1582 1.415 . S
C1581 C1580 1.355 . S
C1581 C1583 1.419 . S
C1582 C1580 1.415 . S
C1582 C1587 1.425 . S
C1582 C1589 1.409 . S
C1583 H1575 0.930 . S
C1583 C1581 1.419 . S
C1583 C1584 1.362 . S
C1584 H1576 0.930 . S
C1584 C1583 1.362 . S
C1584 C1587 1.409 . S
C1585 H1577 0.930 . S
C1585 C1586 1.355 . S
C1585 C1587 1.415 . S
C1586 C1585 1.355 . S
C1586 C1588 1.419 . S
C1587 C1582 1.425 . S
C1587 C1584 1.409 . S
C1587 C1585 1.415 . S
C1588 H1578 0.930 . S
C1588 C1586 1.419 . S
C1588 C1589 1.362 . S
C1589 H1579 0.930 . S
C1589 C1582 1.409 . S
C1589 C1588 1.362 . S
H1590 C1596 0.930 . S
H1591 C1599 0.930 . S
H1592 C1600 0.930 . S
H1593 C1601 0.930 . S
H1594 C1604 0.930 . S
H1595 C1605 0.930 . S
C1596 H1590 0.930 . S
C1596 C1597 1.354 1_565 S
C1596 C1598 1.441 1_565 S
C1597 C1596 1.354 1_545 S
C1597 C1599 1.419 . S
C1598 C1596 1.441 1_545 S
C1598 C1603 1.457 . S
C1598 C1605 1.354 1_545 S
C1599 H1591 0.930 . S
C1599 C1597 1.419 . S
C1599 C1600 1.362 . S
C1600 H1592 0.930 . S
C1600 C1599 1.362 . S
C1600 C1603 1.409 . S
C1601 H1593 0.930 . S
C1601 C1602 1.355 . S
C1601 C1603 1.415 . S
C1602 C1601 1.355 . S
C1602 C1604 1.419 1_545 S
C1603 C1598 1.457 . S
C1603 C1600 1.409 . S
C1603 C1601 1.415 . S
C1604 H1594 0.930 . S
C1604 C1602 1.419 1_565 S
C1604 C1605 1.362 . S
C1605 H1595 0.930 . S
C1605 C1598 1.354 1_565 S
C1605 C1604 1.362 . S
H1606 C1612 0.930 . S
H1607 C1615 0.930 . S
H1608 C1616 0.930 . S
H1609 C1617 0.930 . S
H1610 C1620 0.930 . S
H1611 C1621 0.930 . S
C1612 H1606 0.930 . S
C1612 C1613 1.355 1_455 S
C1612 C1614 1.415 . S
C1613 C1612 1.355 1_655 S
C1613 C1615 1.419 . S
C1614 C1612 1.415 . S
C1614 C1619 1.425 1_455 S
C1614 C1621 1.409 . S
C1615 H1607 0.930 . S
C1615 C1613 1.419 . S
C1615 C1616 1.362 . S
C1616 H1608 0.930 . S
C1616 C1615 1.362 . S
C1616 C1619 1.409 . S
C1617 H1609 0.930 . S
C1617 C1618 1.355 . S
C1617 C1619 1.415 . S
C1618 C1617 1.355 . S
C1618 C1620 1.419 1_655 S
C1619 C1614 1.425 1_655 S
C1619 C1616 1.409 . S
C1619 C1617 1.415 . S
C1620 H1610 0.930 . S
C1620 C1618 1.419 1_455 S
C1620 C1621 1.362 . S
C1621 H1611 0.930 . S
C1621 C1614 1.409 . S
C1621 C1620 1.362 . S
H1622 C1628 0.930 . S
H1623 C1631 0.930 . S
H1624 C1632 0.930 . S
H1625 C1633 0.930 . S
H1626 C1636 0.930 . S
H1627 C1637 0.930 . S
C1628 H1622 0.930 . S
C1628 C1629 1.355 . S
C1628 C1630 1.415 . S
C1629 C1628 1.355 . S
C1629 C1631 1.419 . S
C1630 C1628 1.415 . S
C1630 C1635 1.425 . S
C1630 C1637 1.409 . S
C1631 H1623 0.930 . S
C1631 C1629 1.419 . S
C1631 C1632 1.362 . S
C1632 H1624 0.930 . S
C1632 C1631 1.362 . S
C1632 C1635 1.409 . S
C1633 H1625 0.930 . S
C1633 C1634 1.355 . S
C1633 C1635 1.415 . S
C1634 C1633 1.355 . S
C1634 C1636 1.419 . S
C1635 C1630 1.425 . S
C1635 C1632 1.409 . S
C1635 C1633 1.415 . S
C1636 H1626 0.930 . S
C1636 C1634 1.419 . S
C1636 C1637 1.362 . S
C1637 H1627 0.930 . S
C1637 C1630 1.409 . S
C1637 C1636 1.362 . S
H1638 C1644 0.930 . S
H1639 C1647 0.930 . S
H1640 C1648 0.930 . S
H1641 C1649 0.930 . S
H1642 C1652 0.930 . S
H1643 C1653 0.930 . S
C1644 H1638 0.930 . S
C1644 C1645 1.355 . S
C1644 C1646 1.415 . S
C1645 C1644 1.355 . S
C1645 C1647 1.419 . S
C1646 C1644 1.415 . S
C1646 C1651 1.425 . S
C1646 C1653 1.409 . S
C1647 H1639 0.930 . S
C1647 C1645 1.419 . S
C1647 C1648 1.362 . S
C1648 H1640 0.930 . S
C1648 C1647 1.362 . S
C1648 C1651 1.409 . S
C1649 H1641 0.930 . S
C1649 C1650 1.355 . S
C1649 C1651 1.415 . S
C1650 C1649 1.355 . S
C1650 C1652 1.419 . S
C1651 C1646 1.425 . S
C1651 C1648 1.409 . S
C1651 C1649 1.415 . S
C1652 H1642 0.930 . S
C1652 C1650 1.419 . S
C1652 C1653 1.362 . S
C1653 H1643 0.930 . S
C1653 C1646 1.409 . S
C1653 C1652 1.362 . S
H1654 C1660 0.930 . S
H1655 C1663 0.930 . S
H1656 C1664 0.930 . S
H1657 C1665 0.930 . S
H1658 C1668 0.930 . S
H1659 C1669 0.930 . S
C1660 H1654 0.930 . S
C1660 C1661 1.355 . S
C1660 C1662 1.415 . S
C1661 C1660 1.355 . S
C1661 C1663 1.419 . S
C1662 C1660 1.415 . S
C1662 C1667 1.425 . S
C1662 C1669 1.409 . S
C1663 H1655 0.930 . S
C1663 C1661 1.419 . S
C1663 C1664 1.362 . S
C1664 H1656 0.930 . S
C1664 C1663 1.362 . S
C1664 C1667 1.409 . S
C1665 H1657 0.930 . S
C1665 C1666 1.355 . S
C1665 C1667 1.415 . S
C1666 C1665 1.355 . S
C1666 C1668 1.419 . S
C1667 C1662 1.425 . S
C1667 C1664 1.409 . S
C1667 C1665 1.415 . S
C1668 H1658 0.930 . S
C1668 C1666 1.419 . S
C1668 C1669 1.362 . S
C1669 H1659 0.930 . S
C1669 C1662 1.409 . S
C1669 C1668 1.362 . S
H1670 C1676 0.930 . S
H1671 C1679 0.930 . S
H1672 C1680 0.930 . S
H1673 C1681 0.930 . S
H1674 C1684 0.930 . S
H1675 C1685 0.930 . S
C1676 H1670 0.930 . S
C1676 C1677 1.355 . S
C1676 C1678 1.415 . S
C1677 C1676 1.355 . S
C1677 C1679 1.419 . S
C1678 C1676 1.415 . S
C1678 C1683 1.425 . S
C1678 C1685 1.409 . S
C1679 H1671 0.930 . S
C1679 C1677 1.419 . S
C1679 C1680 1.362 . S
C1680 H1672 0.930 . S
C1680 C1679 1.362 . S
C1680 C1683 1.409 . S
C1681 H1673 0.930 . S
C1681 C1682 1.355 . S
C1681 C1683 1.415 . S
C1682 C1681 1.355 . S
C1682 C1684 1.419 . S
C1683 C1678 1.425 . S
C1683 C1680 1.409 . S
C1683 C1681 1.415 . S
C1684 H1674 0.930 . S
C1684 C1682 1.419 . S
C1684 C1685 1.362 . S
C1685 H1675 0.930 . S
C1685 C1678 1.409 . S
C1685 C1684 1.362 . S
H1686 C1692 0.930 . S
H1687 C1695 0.930 . S
H1688 C1696 0.930 . S
H1689 C1697 0.930 . S
H1690 C1700 0.930 . S
H1691 C1701 0.930 . S
C1692 H1686 0.930 . S
C1692 C1693 1.355 . S
C1692 C1694 1.415 . S
C1693 C1692 1.355 . S
C1693 C1695 1.419 . S
C1694 C1692 1.415 . S
C1694 C1699 1.425 . S
C1694 C1701 1.409 . S
C1695 H1687 0.930 . S
C1695 C1693 1.419 . S
C1695 C1696 1.362 . S
C1696 H1688 0.930 . S
C1696 C1695 1.362 . S
C1696 C1699 1.409 . S
C1697 H1689 0.930 . S
C1697 C1698 1.355 . S
C1697 C1699 1.415 . S
C1698 C1697 1.355 . S
C1698 C1700 1.419 . S
C1699 C1694 1.425 . S
C1699 C1696 1.409 . S
C1699 C1697 1.415 . S
C1700 H1690 0.930 . S
C1700 C1698 1.419 . S
C1700 C1701 1.362 . S
C1701 H1691 0.930 . S
C1701 C1694 1.409 . S
C1701 C1700 1.362 . S
H1702 C1708 0.930 . S
H1703 C1711 0.930 . S
H1704 C1712 0.930 . S
H1705 C1713 0.930 . S
H1706 C1716 0.930 . S
H1707 C1717 0.930 . S
C1708 H1702 0.930 . S
C1708 C1709 1.355 . S
C1708 C1710 1.415 . S
C1709 C1708 1.355 . S
C1709 C1711 1.419 . S
C1710 C1708 1.415 . S
C1710 C1715 1.425 . S
C1710 C1717 1.409 . S
C1711 H1703 0.930 . S
C1711 C1709 1.419 . S
C1711 C1712 1.362 . S
C1712 H1704 0.930 . S
C1712 C1711 1.362 . S
C1712 C1715 1.409 . S
C1713 H1705 0.930 . S
C1713 C1714 1.355 . S
C1713 C1715 1.415 . S
C1714 C1713 1.355 . S
C1714 C1716 1.419 . S
C1715 C1710 1.425 . S
C1715 C1712 1.409 . S
C1715 C1713 1.415 . S
C1716 H1706 0.930 . S
C1716 C1714 1.419 . S
C1716 C1717 1.362 . S
C1717 H1707 0.930 . S
C1717 C1710 1.409 . S
C1717 C1716 1.362 . S
H1718 C1724 0.930 . S
H1719 C1727 0.930 . S
H1720 C1728 0.930 . S
H1721 C1729 0.930 . S
H1722 C1732 0.930 . S
H1723 C1733 0.930 . S
C1724 H1718 0.930 . S
C1724 C1725 1.355 . S
C1724 C1726 1.415 . S
C1725 C1724 1.355 . S
C1725 C1727 1.419 . S
C1726 C1724 1.415 . S
C1726 C1731 1.425 . S
C1726 C1733 1.409 . S
C1727 H1719 0.930 . S
C1727 C1725 1.419 . S
C1727 C1728 1.362 . S
C1728 H1720 0.930 . S
C1728 C1727 1.362 . S
C1728 C1731 1.409 . S
C1729 H1721 0.930 . S
C1729 C1730 1.355 . S
C1729 C1731 1.415 . S
C1730 C1729 1.355 . S
C1730 C1732 1.419 . S
C1731 C1726 1.425 . S
C1731 C1728 1.409 . S
C1731 C1729 1.415 . S
C1732 H1722 0.930 . S
C1732 C1730 1.419 . S
C1732 C1733 1.362 . S
C1733 H1723 0.930 . S
C1733 C1726 1.409 . S
C1733 C1732 1.362 . S
H1734 C1740 0.930 1_455 S
H1735 C1743 0.930 . S
H1736 C1744 0.930 . S
H1737 C1745 0.930 . S
H1738 C1748 0.930 . S
H1739 C1749 0.930 . S
C1740 H1734 0.930 1_655 S
C1740 C1741 1.355 . S
C1740 C1742 1.415 . S
C1741 C1740 1.355 . S
C1741 C1743 1.419 . S
C1742 C1740 1.415 . S
C1742 C1747 1.425 . S
C1742 C1749 1.409 1_655 S
C1743 H1735 0.930 . S
C1743 C1741 1.419 . S
C1743 C1744 1.362 . S
C1744 H1736 0.930 . S
C1744 C1743 1.362 . S
C1744 C1747 1.409 . S
C1745 H1737 0.930 . S
C1745 C1746 1.355 . S
C1745 C1747 1.415 . S
C1746 C1745 1.355 . S
C1746 C1748 1.419 1_655 S
C1747 C1742 1.425 . S
C1747 C1744 1.409 . S
C1747 C1745 1.415 . S
C1748 H1738 0.930 . S
C1748 C1746 1.419 1_455 S
C1748 C1749 1.362 . S
C1749 H1739 0.930 . S
C1749 C1742 1.409 1_455 S
C1749 C1748 1.362 . S
H1750 C1756 0.930 . S
H1751 C1759 0.930 . S
H1752 C1760 0.930 . S
H1753 C1761 0.930 . S
H1754 C1764 0.930 . S
H1755 C1765 0.930 . S
C1756 H1750 0.930 . S
C1756 C1757 1.355 . S
C1756 C1758 1.415 . S
C1757 C1756 1.355 . S
C1757 C1759 1.419 . S
C1758 C1756 1.415 . S
C1758 C1763 1.425 . S
C1758 C1765 1.409 . S
C1759 H1751 0.930 . S
C1759 C1757 1.419 . S
C1759 C1760 1.362 . S
C1760 H1752 0.930 . S
C1760 C1759 1.362 . S
C1760 C1763 1.409 . S
C1761 H1753 0.930 . S
C1761 C1762 1.355 . S
C1761 C1763 1.415 . S
C1762 C1761 1.355 . S
C1762 C1764 1.419 . S
C1763 C1758 1.425 . S
C1763 C1760 1.409 . S
C1763 C1761 1.415 . S
C1764 H1754 0.930 . S
C1764 C1762 1.419 . S
C1764 C1765 1.362 . S
C1765 H1755 0.930 . S
C1765 C1758 1.409 . S
C1765 C1764 1.362 . S
H1766 C1772 0.930 . S
H1767 C1775 0.930 . S
H1768 C1776 0.930 . S
H1769 C1777 0.930 . S
H1770 C1780 0.930 . S
H1771 C1781 0.923 1_565 S
C1772 H1766 0.930 . S
C1772 C1773 1.355 . S
C1772 C1774 1.415 . S
C1773 C1772 1.355 . S
C1773 C1775 1.419 . S
C1774 C1772 1.415 . S
C1774 C1779 1.425 . S
C1774 C1781 1.410 . S
C1775 H1767 0.930 . S
C1775 C1773 1.419 . S
C1775 C1776 1.362 . S
C1776 H1768 0.930 . S
C1776 C1775 1.362 . S
C1776 C1779 1.409 . S
C1777 H1769 0.930 . S
C1777 C1778 1.355 . S
C1777 C1779 1.415 . S
C1778 C1777 1.355 . S
C1778 C1780 1.419 1_545 S
C1779 C1774 1.425 . S
C1779 C1776 1.409 . S
C1779 C1777 1.415 . S
C1780 H1770 0.930 . S
C1780 C1778 1.419 1_565 S
C1780 C1781 1.369 1_565 S
C1781 H1771 0.923 1_545 S
C1781 C1774 1.410 . S
C1781 C1780 1.369 1_545 S
C637 C13 1.538 . S
C642 C458 1.565 1_655 S
C653 C27 1.439 . S
C658 C471 1.469 . S
C674 C500 1.505 1_545 S
C669 C36 1.507 . S
C685 C41 1.409 . S
C690 C513 1.494 . S
C701 C8 1.538 . S
C706 C534 1.601 . S
C717 C22 1.420 . S
C722 C563 1.503 . S
C733 C55 1.456 . S
C738 C542 1.507 . S
C754 C555 1.415 . S
C749 C69 1.380 . S
C770 C521 1.550 . S
C765 C78 1.512 . S
C781 C83 1.499 . S
C786 C492 1.528 1_545 S
C802 C450 1.571 . S
C797 C50 1.545 . S
C813 C64 1.491 . S
C818 C479 1.528 . S
C829 C97 1.485 . S
C834 C584 1.512 . S
C845 C111 1.439 . S
C850 C597 1.495 . S
C866 C626 1.554 . S
C861 C120 1.533 . S
C877 C125 1.489 . S
C882 C261 1.510 . S
C893 C92 1.602 . S
C898 C282 1.654 . S
C909 C106 1.461 . S
C914 C311 1.535 . S
C925 C139 1.468 . S
C930 C290 1.563 . S
C941 C153 1.455 . S
C946 C303 1.477 . S
C962 C269 1.570 . S
C957 C162 1.531 . S
C978 C618 1.535 . S
C973 C167 1.502 . S
C994 C576 1.582 . S
C989 C134 1.613 . S
C1010 C605 1.529 . S
C1005 C148 1.488 . S
C1021 C181 1.546 . S
C1026 C332 1.564 . S
C1037 C195 1.433 . S
C1042 C345 1.488 . S
C1053 C204 1.494 . S
C1058 C374 1.484 . S
C1069 C209 1.429 . S
C1074 C387 1.530 . S
C1090 C408 1.650 . S
C1085 C176 1.594 . S
C1106 C437 1.498 . S
C1101 C190 1.442 . S
C1122 C416 1.540 . S
C1117 C223 1.464 . S
C1138 C429 1.425 . S
C1133 C237 1.383 . S
C1149 C246 1.468 . S
C1154 C395 1.521 . S
C1170 C366 1.511 . S
C1165 C251 1.481 . S
C1181 C218 1.588 . S
C1186 C324 1.573 . S
C1202 C353 1.518 . S
C1197 C232 1.469 . S
C1218 C264 1.365 . S
C1213 C11 1.391 . S
C1229 C25 1.294 . S
C1234 C285 1.212 . S
C1250 C313 1.290 . S
C1245 C35 1.378 . S
C1266 C334 1.335 . S
C1261 C39 1.389 . S
C1282 C348 1.385 . S
C1277 C7 1.480 . S
C1298 C376 1.242 . S
C1293 C21 1.372 . S
C1309 C53 1.417 . S
C1314 C369 1.226 . S
C1325 C67 1.303 . S
C1330 C327 1.124 . S
C1341 C77 1.406 . S
C1346 C355 1.339 . S
C1357 C81 1.433 . S
C1362 C292 1.361 . S
C1378 C306 1.379 . S
C1373 C49 1.486 . S
C1389 C63 1.395 . S
C1394 C271 1.347 . S
C1410 C390 1.245 . S
C1405 C95 1.409 . S
C1421 C109 1.315 . S
C1426 C411 1.299 . S
C1437 C119 1.416 . S
C1442 C439 1.368 . S
C1458 C460 1.180 . S
C1453 C123 1.326 . S
C1469 C91 1.457 . S
C1474 C474 1.289 . S
C1485 C105 1.345 . S
C1490 C502 1.293 . S
C1501 C137 1.371 . S
C1506 C495 1.256 . S
C1517 C151 1.270 . S
C1522 C453 1.090 . S
C1538 C481 1.290 . S
C1533 C161 1.392 . S
C1549 C165 1.423 . S
C1554 C418 1.359 . S
C1565 C133 1.502 . S
C1570 C432 1.390 . S
C1586 C397 1.399 . S
C1581 C147 1.436 . S
C1602 C516 1.245 1_545 S
C1597 C179 1.394 . S
C1613 C193 1.269 . S
C1618 C537 1.156 1_655 S
C1629 C203 1.375 . S
C1634 C565 1.331 . S
C1650 C586 1.291 . S
C1645 C207 1.398 . S
C1666 C600 1.314 . S
C1661 C175 1.482 . S
C1677 C189 1.418 . S
C1682 C628 1.347 . S
C1693 C221 1.405 . S
C1698 C621 1.218 . S
C1709 C235 1.330 . S
C1714 C579 1.187 . S
C1730 C607 1.301 . S
C1725 C245 1.428 . S
C1746 C544 1.198 1_655 S
C1741 C249 1.339 . S
C1762 C558 1.317 . S
C1757 C217 1.474 . S
C1773 C231 1.361 . S
C1778 C523 1.238 1_545 S
