# Generated by pormake.
# Topology eea, (3,6)-cn, num edge types: 1
# Building blocks:
#     Node 0, Type 0, BuildingBlock: PAMTOO_clean_linker_0, # of connection points: 3
#     Node 1, Type 0, BuildingBlock: PAMTOO_clean_linker_0, # of connection points: 3
#     Node 2, Type 0, BuildingBlock: PAMTOO_clean_linker_0, # of connection points: 3
#     Node 3, Type 0, BuildingBlock: PAMTOO_clean_linker_0, # of connection points: 3
#     Node 4, Type 0, BuildingBlock: PAMTOO_clean_linker_0, # of connection points: 3
#     Node 5, Type 0, BuildingBlock: PAMTOO_clean_linker_0, # of connection points: 3
#     Node 6, Type 0, BuildingBlock: PAMTOO_clean_linker_0, # of connection points: 3
#     Node 7, Type 0, BuildingBlock: PAMTOO_clean_linker_0, # of connection points: 3
#     Node 8, Type 0, BuildingBlock: PAMTOO_clean_linker_0, # of connection points: 3
#     Node 9, Type 0, BuildingBlock: PAMTOO_clean_linker_0, # of connection points: 3
#     Node 10, Type 0, BuildingBlock: PAMTOO_clean_linker_0, # of connection points: 3
#     Node 11, Type 0, BuildingBlock: PAMTOO_clean_linker_0, # of connection points: 3
#     Node 12, Type 0, BuildingBlock: PAMTOO_clean_linker_0, # of connection points: 3
#     Node 13, Type 0, BuildingBlock: PAMTOO_clean_linker_0, # of connection points: 3
#     Node 14, Type 0, BuildingBlock: PAMTOO_clean_linker_0, # of connection points: 3
#     Node 15, Type 0, BuildingBlock: PAMTOO_clean_linker_0, # of connection points: 3
#     Node 16, Type 0, BuildingBlock: PAMTOO_clean_linker_0, # of connection points: 3
#     Node 17, Type 0, BuildingBlock: PAMTOO_clean_linker_0, # of connection points: 3
#     Node 18, Type 1, BuildingBlock: CUWYAW_clean_sbu_0, # of connection points: 6
#     Node 19, Type 1, BuildingBlock: CUWYAW_clean_sbu_0, # of connection points: 6
#     Node 20, Type 1, BuildingBlock: CUWYAW_clean_sbu_0, # of connection points: 6
#     Node 21, Type 1, BuildingBlock: CUWYAW_clean_sbu_0, # of connection points: 6
#     Node 22, Type 1, BuildingBlock: CUWYAW_clean_sbu_0, # of connection points: 6
#     Node 23, Type 1, BuildingBlock: CUWYAW_clean_sbu_0, # of connection points: 6
#     Node 24, Type 1, BuildingBlock: CUWYAW_clean_sbu_0, # of connection points: 6
#     Node 25, Type 1, BuildingBlock: CUWYAW_clean_sbu_0, # of connection points: 6
#     Node 26, Type 1, BuildingBlock: CUWYAW_clean_sbu_0, # of connection points: 6
#     Edge 27, Type (0, 1), BuildingBlock: ZUJKAS_clean_linker_0, # of connection points: 2
#     Edge 28, Type (0, 1), BuildingBlock: ZUJKAS_clean_linker_0, # of connection points: 2
#     Edge 29, Type (0, 1), BuildingBlock: ZUJKAS_clean_linker_0, # of connection points: 2
#     Edge 30, Type (0, 1), BuildingBlock: ZUJKAS_clean_linker_0, # of connection points: 2
#     Edge 31, Type (0, 1), BuildingBlock: ZUJKAS_clean_linker_0, # of connection points: 2
#     Edge 32, Type (0, 1), BuildingBlock: ZUJKAS_clean_linker_0, # of connection points: 2
#     Edge 33, Type (0, 1), BuildingBlock: ZUJKAS_clean_linker_0, # of connection points: 2
#     Edge 34, Type (0, 1), BuildingBlock: ZUJKAS_clean_linker_0, # of connection points: 2
#     Edge 35, Type (0, 1), BuildingBlock: ZUJKAS_clean_linker_0, # of connection points: 2
#     Edge 36, Type (0, 1), BuildingBlock: ZUJKAS_clean_linker_0, # of connection points: 2
#     Edge 37, Type (0, 1), BuildingBlock: ZUJKAS_clean_linker_0, # of connection points: 2
#     Edge 38, Type (0, 1), BuildingBlock: ZUJKAS_clean_linker_0, # of connection points: 2
#     Edge 39, Type (0, 1), BuildingBlock: ZUJKAS_clean_linker_0, # of connection points: 2
#     Edge 40, Type (0, 1), BuildingBlock: ZUJKAS_clean_linker_0, # of connection points: 2
#     Edge 41, Type (0, 1), BuildingBlock: ZUJKAS_clean_linker_0, # of connection points: 2
#     Edge 42, Type (0, 1), BuildingBlock: ZUJKAS_clean_linker_0, # of connection points: 2
#     Edge 43, Type (0, 1), BuildingBlock: ZUJKAS_clean_linker_0, # of connection points: 2
#     Edge 44, Type (0, 1), BuildingBlock: ZUJKAS_clean_linker_0, # of connection points: 2
#     Edge 45, Type (0, 1), BuildingBlock: ZUJKAS_clean_linker_0, # of connection points: 2
#     Edge 46, Type (0, 1), BuildingBlock: ZUJKAS_clean_linker_0, # of connection points: 2
#     Edge 47, Type (0, 1), BuildingBlock: ZUJKAS_clean_linker_0, # of connection points: 2
#     Edge 48, Type (0, 1), BuildingBlock: ZUJKAS_clean_linker_0, # of connection points: 2
#     Edge 49, Type (0, 1), BuildingBlock: ZUJKAS_clean_linker_0, # of connection points: 2
#     Edge 50, Type (0, 1), BuildingBlock: ZUJKAS_clean_linker_0, # of connection points: 2
#     Edge 51, Type (0, 1), BuildingBlock: ZUJKAS_clean_linker_0, # of connection points: 2
#     Edge 52, Type (0, 1), BuildingBlock: ZUJKAS_clean_linker_0, # of connection points: 2
#     Edge 53, Type (0, 1), BuildingBlock: ZUJKAS_clean_linker_0, # of connection points: 2
#     Edge 54, Type (0, 1), BuildingBlock: ZUJKAS_clean_linker_0, # of connection points: 2
#     Edge 55, Type (0, 1), BuildingBlock: ZUJKAS_clean_linker_0, # of connection points: 2
#     Edge 56, Type (0, 1), BuildingBlock: ZUJKAS_clean_linker_0, # of connection points: 2
#     Edge 57, Type (0, 1), BuildingBlock: ZUJKAS_clean_linker_0, # of connection points: 2
#     Edge 58, Type (0, 1), BuildingBlock: ZUJKAS_clean_linker_0, # of connection points: 2
#     Edge 59, Type (0, 1), BuildingBlock: ZUJKAS_clean_linker_0, # of connection points: 2
#     Edge 60, Type (0, 1), BuildingBlock: ZUJKAS_clean_linker_0, # of connection points: 2
#     Edge 61, Type (0, 1), BuildingBlock: ZUJKAS_clean_linker_0, # of connection points: 2
#     Edge 62, Type (0, 1), BuildingBlock: ZUJKAS_clean_linker_0, # of connection points: 2
#     Edge 63, Type (0, 1), BuildingBlock: ZUJKAS_clean_linker_0, # of connection points: 2
#     Edge 64, Type (0, 1), BuildingBlock: ZUJKAS_clean_linker_0, # of connection points: 2
#     Edge 65, Type (0, 1), BuildingBlock: ZUJKAS_clean_linker_0, # of connection points: 2
#     Edge 66, Type (0, 1), BuildingBlock: ZUJKAS_clean_linker_0, # of connection points: 2
#     Edge 67, Type (0, 1), BuildingBlock: ZUJKAS_clean_linker_0, # of connection points: 2
#     Edge 68, Type (0, 1), BuildingBlock: ZUJKAS_clean_linker_0, # of connection points: 2
#     Edge 69, Type (0, 1), BuildingBlock: ZUJKAS_clean_linker_0, # of connection points: 2
#     Edge 70, Type (0, 1), BuildingBlock: ZUJKAS_clean_linker_0, # of connection points: 2
#     Edge 71, Type (0, 1), BuildingBlock: ZUJKAS_clean_linker_0, # of connection points: 2
#     Edge 72, Type (0, 1), BuildingBlock: ZUJKAS_clean_linker_0, # of connection points: 2
#     Edge 73, Type (0, 1), BuildingBlock: ZUJKAS_clean_linker_0, # of connection points: 2
#     Edge 74, Type (0, 1), BuildingBlock: ZUJKAS_clean_linker_0, # of connection points: 2
#     Edge 75, Type (0, 1), BuildingBlock: ZUJKAS_clean_linker_0, # of connection points: 2
#     Edge 76, Type (0, 1), BuildingBlock: ZUJKAS_clean_linker_0, # of connection points: 2
#     Edge 77, Type (0, 1), BuildingBlock: ZUJKAS_clean_linker_0, # of connection points: 2
#     Edge 78, Type (0, 1), BuildingBlock: ZUJKAS_clean_linker_0, # of connection points: 2
#     Edge 79, Type (0, 1), BuildingBlock: ZUJKAS_clean_linker_0, # of connection points: 2
#     Edge 80, Type (0, 1), BuildingBlock: ZUJKAS_clean_linker_0, # of connection points: 2
# Relax obj value: 0.055
# Max RMSD: 0.195
# Mean RMSD: 0.136
data_MOF--net-eea--node1-CUWYAW_clean_sbu_0--node2-PAMTOO_clean_linker_0--edge1-ZUJKAS_clean_linker_0
_symmetry_space_group_name_H-M    P1
_symmetry_Int_Tables_number       1
_symmetry_cell_setting            triclinic
loop_
_symmetry_equiv_pos_as_xyz
'x, y, z'
_cell_length_a     71.367725
_cell_length_b     71.091639
_cell_length_c     85.77911
_cell_angle_alpha  93.343975
_cell_angle_beta   93.427688
_cell_angle_gamma 119.86301
loop_
_atom_site_label
_atom_site_type_symbol
_atom_site_fract_x
_atom_site_fract_y
_atom_site_fract_z
_atom_type_partial_charge
H0 H 0.24028 0.08893 0.42482 0.0
H1 H 0.2397 0.14901 0.42267 0.0
H2 H 0.21421 0.10151 0.38262 0.0
H3 H 0.23609 0.14638 0.37334 0.0
C4 C 0.2363 0.1549 0.3847 0.0
O5 O 0.22193 0.1399 0.39381 0.0
H6 H 0.25314 0.16305 0.39068 0.0
C7 C 0.23646 0.09944 0.41836 0.0
C8 C 0.22682 0.09257 0.40275 0.0
C9 C 0.24101 0.11965 0.42579 0.0
C10 C 0.23612 0.13325 0.4173 0.0
C11 C 0.22675 0.12674 0.40175 0.0
C12 C 0.22196 0.10645 0.39454 0.0
H13 H 0.93527 0.16101 0.43369 0.0
H14 H 0.87707 0.09807 0.42497 0.0
H15 H 0.91911 0.12325 0.38869 0.0
H16 H 0.87262 0.09606 0.37515 0.0
C17 C 0.86625 0.08893 0.38618 0.0
O18 O 0.88306 0.09065 0.39615 0.0
H19 H 0.85909 0.09822 0.39159 0.0
C20 C 0.92468 0.14633 0.42595 0.0
C21 C 0.92972 0.14431 0.41054 0.0
C22 C 0.90567 0.12982 0.43131 0.0
C23 C 0.89165 0.11114 0.42106 0.0
C24 C 0.89649 0.10893 0.40574 0.0
C25 C 0.91545 0.1254 0.40051 0.0
H26 H 0.85395 0.76629 0.43821 0.0
H27 H 0.91672 0.77135 0.43925 0.0
H28 H 0.89217 0.78906 0.39925 0.0
H29 H 0.91414 0.76542 0.39082 0.0
C30 C 0.9253 0.76955 0.40171 0.0
O31 O 0.92442 0.78516 0.41146 0.0
H32 H 0.91982 0.75435 0.40758 0.0
C33 C 0.86846 0.77 0.4326 0.0
C34 C 0.8709 0.7778 0.41774 0.0
C35 C 0.88492 0.76777 0.44056 0.0
C36 C 0.90394 0.77322 0.4334 0.0
C37 C 0.90639 0.78067 0.41848 0.0
C38 C 0.89006 0.78325 0.41078 0.0
H39 H 0.07771 0.24047 0.58637 0.0
H40 H 0.1347 0.23391 0.58985 0.0
H41 H 0.09417 0.21739 0.62742 0.0
H42 H 0.14132 0.23975 0.63847 0.0
C43 C 0.1472 0.23619 0.62758 0.0
O44 O 0.12957 0.22056 0.6177 0.0
H45 H 0.15592 0.25155 0.62189 0.0
C46 C 0.08836 0.23618 0.59278 0.0
C47 C 0.08349 0.22848 0.6076 0.0
C48 C 0.10682 0.23827 0.58618 0.0
C49 C 0.12051 0.2327 0.5947 0.0
C50 C 0.11599 0.22538 0.60954 0.0
C51 C 0.09745 0.22308 0.6159 0.0
H52 H 0.78363 0.85387 0.6016 0.0
H53 H 0.78442 0.91496 0.60663 0.0
H54 H 0.80062 0.89095 0.64687 0.0
H55 H 0.777 0.91517 0.65473 0.0
C56 C 0.77975 0.92362 0.64387 0.0
O57 O 0.7961 0.92266 0.63671 0.0
H58 H 0.76425 0.91516 0.636 0.0
C59 C 0.78647 0.86825 0.60882 0.0
C60 C 0.7927 0.87049 0.62499 0.0
C61 C 0.78316 0.88403 0.60202 0.0
C62 C 0.78645 0.90236 0.61162 0.0
C63 C 0.79261 0.90473 0.62772 0.0
C64 C 0.79564 0.88881 0.63441 0.0
H65 H 0.15704 0.9285 0.59175 0.0
H66 H 0.09675 0.86767 0.58918 0.0
H67 H 0.11854 0.9121 0.63097 0.0
H68 H 0.0972 0.86678 0.63808 0.0
C69 C 0.08749 0.85869 0.6266 0.0
O70 O 0.08799 0.87424 0.61743 0.0
H71 H 0.09476 0.84988 0.62063 0.0
C72 C 0.14262 0.9175 0.59705 0.0
C73 C 0.13986 0.92301 0.61243 0.0
C74 C 0.12717 0.89768 0.5885 0.0
C75 C 0.10895 0.88296 0.59561 0.0
C76 C 0.10601 0.88817 0.61092 0.0
C77 C 0.12134 0.90815 0.61927 0.0
H78 H 0.90112 0.422 0.761 0.0
H79 H 0.89748 0.48049 0.75929 0.0
H80 H 0.877 0.43522 0.71817 0.0
H81 H 0.90309 0.48291 0.71217 0.0
C82 C 0.89905 0.48984 0.72255 0.0
O83 O 0.88319 0.47294 0.72964 0.0
H84 H 0.91399 0.49936 0.73087 0.0
C85 C 0.89671 0.43214 0.75459 0.0
C86 C 0.88817 0.42568 0.73873 0.0
C87 C 0.89999 0.45174 0.76224 0.0
C88 C 0.89529 0.46538 0.75366 0.0
C89 C 0.88749 0.45956 0.73775 0.0
C90 C 0.88374 0.43972 0.73035 0.0
H91 H 0.60099 0.5001 0.76709 0.0
H92 H 0.54401 0.43606 0.75958 0.0
H93 H 0.58661 0.45987 0.7235 0.0
H94 H 0.54088 0.43041 0.70928 0.0
C95 C 0.53418 0.42476 0.72056 0.0
O96 O 0.55072 0.42735 0.7313 0.0
H97 H 0.52719 0.4348 0.72489 0.0
C98 C 0.5908 0.4849 0.75978 0.0
C99 C 0.59633 0.48209 0.74468 0.0
C100 C 0.57191 0.46848 0.76535 0.0
C101 C 0.55845 0.44913 0.75553 0.0
C102 C 0.56369 0.44621 0.74047 0.0
C103 C 0.58259 0.46257 0.73509 0.0
H104 H 0.52203 0.10307 0.77194 0.0
H105 H 0.58205 0.1027 0.77046 0.0
H106 H 0.55761 0.122 0.73137 0.0
H107 H 0.5767 0.0943 0.72276 0.0
C108 C 0.58885 0.09932 0.73317 0.0
O109 O 0.58886 0.11583 0.74246 0.0
H110 H 0.58425 0.08493 0.73985 0.0
C111 C 0.53587 0.10573 0.76582 0.0
C112 C 0.5378 0.11308 0.75081 0.0
C113 C 0.55169 0.10192 0.77305 0.0
C114 C 0.56967 0.10557 0.76511 0.0
C115 C 0.57156 0.11249 0.75003 0.0
C116 C 0.5557 0.11625 0.74292 0.0
H117 H 0.74492 0.57119 0.91719 0.0
H118 H 0.80213 0.5651 0.92133 0.0
H119 H 0.76182 0.54973 0.95898 0.0
H120 H 0.80958 0.5725 0.96997 0.0
C121 C 0.81511 0.56862 0.95902 0.0
O122 O 0.79723 0.55275 0.94946 0.0
H123 H 0.82361 0.58378 0.95307 0.0
C124 C 0.75548 0.5669 0.92373 0.0
C125 C 0.75081 0.55994 0.93877 0.0
C126 C 0.77404 0.56902 0.91728 0.0
C127 C 0.78792 0.56398 0.92609 0.0
C128 C 0.78361 0.55735 0.94113 0.0
C129 C 0.76512 0.55528 0.94743 0.0
H130 H 0.44267 0.18099 0.93642 0.0
H131 H 0.44758 0.24395 0.94093 0.0
H132 H 0.46936 0.22262 0.98006 0.0
H133 H 0.45048 0.24976 0.99085 0.0
C134 C 0.44975 0.25587 0.97933 0.0
O135 O 0.46403 0.25383 0.97017 0.0
H136 H 0.43276 0.24586 0.97367 0.0
C137 C 0.44724 0.19607 0.94346 0.0
C138 C 0.45635 0.19955 0.95913 0.0
C139 C 0.44428 0.21206 0.93668 0.0
C140 C 0.44997 0.23151 0.94586 0.0
C141 C 0.45862 0.23502 0.9615 0.0
C142 C 0.46201 0.21925 0.96806 0.0
H143 H 0.8285 0.2592 0.92754 0.0
H144 H 0.76709 0.19928 0.92434 0.0
H145 H 0.79068 0.24208 0.96705 0.0
H146 H 0.7691 0.19612 0.97245 0.0
C147 C 0.75826 0.18881 0.96129 0.0
O148 O 0.75903 0.20516 0.95295 0.0
H149 H 0.76422 0.1794 0.95444 0.0
C150 C 0.81414 0.24801 0.93282 0.0
C151 C 0.8117 0.25314 0.94837 0.0
C152 C 0.79821 0.22867 0.92396 0.0
C153 C 0.77968 0.21421 0.93094 0.0
C154 C 0.77704 0.2191 0.94643 0.0
C155 C 0.79291 0.23856 0.95507 0.0
H156 H 0.57283 0.7553 0.09122 0.0
H157 H 0.57216 0.81543 0.08957 0.0
H158 H 0.55078 0.77013 0.04832 0.0
H159 H 0.5725 0.8152 0.04056 0.0
C160 C 0.57147 0.82318 0.05177 0.0
O161 O 0.55646 0.80757 0.06019 0.0
H162 H 0.58785 0.83152 0.05851 0.0
C163 C 0.56996 0.76638 0.0847 0.0
C164 C 0.56172 0.76035 0.06879 0.0
C165 C 0.57377 0.78616 0.09242 0.0
C166 C 0.56916 0.79999 0.08397 0.0
C167 C 0.56089 0.79414 0.06814 0.0
C168 C 0.55706 0.77435 0.0606 0.0
H169 H 0.26897 0.83289 0.09903 0.0
H170 H 0.21117 0.76941 0.09176 0.0
H171 H 0.2532 0.79253 0.0553 0.0
H172 H 0.2068 0.76495 0.04191 0.0
C173 C 0.20035 0.75826 0.05303 0.0
O174 O 0.21714 0.76049 0.0633 0.0
H175 H 0.19306 0.76769 0.058 0.0
C176 C 0.25846 0.81775 0.09173 0.0
C177 C 0.26364 0.81478 0.07653 0.0
C178 C 0.23951 0.80158 0.09741 0.0
C179 C 0.22567 0.7823 0.08762 0.0
C180 C 0.23054 0.77924 0.07247 0.0
C181 C 0.24947 0.79536 0.06696 0.0
H182 H 0.18976 0.43689 0.10741 0.0
H183 H 0.25132 0.43941 0.10675 0.0
H184 H 0.22793 0.46118 0.06865 0.0
H185 H 0.25078 0.43959 0.05789 0.0
C186 C 0.2604 0.44109 0.06905 0.0
O187 O 0.25967 0.45578 0.0799 0.0
H188 H 0.25315 0.42476 0.07354 0.0
C189 C 0.20406 0.44038 0.1016 0.0
C190 C 0.20664 0.44909 0.08707 0.0
C191 C 0.22009 0.43692 0.10895 0.0
C192 C 0.23886 0.44221 0.10147 0.0
C193 C 0.2416 0.45089 0.08699 0.0
C194 C 0.22564 0.45453 0.07989 0.0
H195 H 0.41268 0.90771 0.25291 0.0
H196 H 0.46876 0.89961 0.25562 0.0
H197 H 0.4291 0.88418 0.2937 0.0
H198 H 0.47624 0.90581 0.30421 0.0
C199 C 0.4818 0.90191 0.29328 0.0
O200 O 0.46391 0.88644 0.28354 0.0
H201 H 0.4907 0.91716 0.28749 0.0
C202 C 0.42318 0.90309 0.25916 0.0
C203 C 0.41847 0.89554 0.27403 0.0
C204 C 0.44129 0.90469 0.25233 0.0
C205 C 0.45481 0.89875 0.26065 0.0
C206 C 0.45045 0.89154 0.27553 0.0
C207 C 0.43224 0.88975 0.28214 0.0
H208 H 0.10841 0.51437 0.26957 0.0
H209 H 0.11341 0.57747 0.27445 0.0
H210 H 0.13128 0.55384 0.31412 0.0
H211 H 0.11284 0.58162 0.32419 0.0
C212 C 0.11292 0.58803 0.31266 0.0
O213 O 0.1277 0.58605 0.30408 0.0
H214 H 0.0962 0.57824 0.30649 0.0
C215 C 0.11236 0.52919 0.27673 0.0
C216 C 0.12023 0.53202 0.29263 0.0
C217 C 0.10976 0.54542 0.26996 0.0
C218 C 0.11495 0.56456 0.27939 0.0
C219 C 0.12261 0.56746 0.29523 0.0
C220 C 0.12536 0.55134 0.30181 0.0
H221 H 0.49047 0.59303 0.25945 0.0
H222 H 0.43014 0.53214 0.25704 0.0
H223 H 0.45174 0.57704 0.2985 0.0
H224 H 0.43241 0.53037 0.30422 0.0
C225 C 0.42068 0.52282 0.29348 0.0
O226 O 0.42125 0.53908 0.28512 0.0
H227 H 0.42555 0.51275 0.28626 0.0
C228 C 0.47614 0.58191 0.26478 0.0
C229 C 0.47321 0.58767 0.28004 0.0
C230 C 0.46073 0.56199 0.25626 0.0
C231 C 0.44216 0.54767 0.26327 0.0
C232 C 0.43916 0.55304 0.27852 0.0
C233 C 0.45457 0.57298 0.28684 0.0
C234 C 0.52819 0.01143 0.06012 0.0
Eu235 Eu 0.51535 0.01388 0.03161 0.0
C236 C 0.51831 1.00131 0.07429 0.0
C237 C 0.51783 0.01431 0.08706 0.0
C238 C 0.50909 0.00515 0.10069 0.0
C239 C 0.50085 0.98282 0.10192 0.0
C240 C 0.50131 0.96979 0.08916 0.0
C241 C 0.50993 0.97892 0.07547 0.0
C242 C 0.50329 0.04247 0.02268 0.0
C243 C 0.46306 0.97942 0.02383 0.0
C244 C 0.48088 0.00712 0.96972 0.0
Eu245 Eu 0.49399 0.00436 0.99806 0.0
C246 C 0.49037 0.01594 0.95519 0.0
C247 C 0.50501 0.01085 0.94848 0.0
C248 C 0.51331 0.01907 0.93448 0.0
C249 C 0.50732 0.03267 0.92704 0.0
C250 C 0.49294 0.03798 0.93393 0.0
C251 C 0.48451 0.02963 0.94784 0.0
C252 C 0.50625 0.97589 0.00702 0.0
C253 C 0.54657 0.03834 0.00578 0.0
O254 O 0.5265 0.9984 0.048 0.0
O255 O 0.52553 0.02747 0.05608 0.0
O256 O 0.52085 0.04807 0.03173 0.0
O257 O 0.4924 0.02207 0.0194 0.0
O258 O 0.48107 0.98591 0.03319 0.0
O259 O 0.46351 0.98689 0.01002 0.0
O260 O 0.48498 0.02146 0.9816 0.0
O261 O 0.48165 0.99009 0.97391 0.0
O262 O 0.48877 0.97017 0.99782 0.0
O263 O 0.51696 0.99628 0.01023 0.0
O264 O 0.52866 0.0316 0.99619 0.0
O265 O 0.54592 0.03141 0.0198 0.0
H266 H 0.5244 0.03165 0.08657 0.0
H267 H 0.50925 0.01568 0.11042 0.0
H268 H 0.49493 0.95249 0.08973 0.0
H269 H 0.51012 0.96843 0.06588 0.0
H270 H 0.50997 1.00048 0.95399 0.0
H271 H 0.52452 0.01488 0.9295 0.0
H272 H 0.48784 0.04822 0.92838 0.0
H273 H 0.47325 0.03376 0.95281 0.0
C274 C 0.01144 0.52548 0.05964 0.0
Eu275 Eu 0.00505 0.50693 0.0312 0.0
C276 C 0.01933 0.52464 0.07573 0.0
C277 C 0.00616 0.52212 0.08783 0.0
C278 C 0.01346 0.52226 0.10331 0.0
C279 C 0.03423 0.5251 0.10708 0.0
C280 C 0.04729 0.52722 0.09487 0.0
C281 C 0.0399 0.52696 0.07932 0.0
C282 C 0.9751 0.46491 0.02119 0.0
C283 C 0.03748 0.48754 0.02612 0.0
C284 C 1.00109 0.47206 0.97008 0.0
Eu285 Eu 0.00853 0.49138 0.99837 0.0
C286 C 0.99336 0.47373 0.95425 0.0
C287 C 0.99506 0.49328 0.95007 0.0
C288 C 0.98822 0.49466 0.93476 0.0
C289 C 0.97946 0.47648 0.92342 0.0
C290 C 0.97738 0.45682 0.92785 0.0
C291 C 0.98432 0.4555 0.94311 0.0
C292 C 0.03855 0.5334 0.00825 0.0
C293 C 0.9767 0.51169 0.00349 0.0
O294 O 0.02568 0.53323 0.04939 0.0
O295 O 0.99296 0.50867 0.05367 0.0
O296 O 0.971 0.47774 0.02981 0.0
O297 O 0.9949 0.47432 0.01902 0.0
O298 O 0.03316 0.50056 0.0349 0.0
O299 O 0.02701 0.47866 0.01206 0.0
O300 O 0.98676 0.46533 0.98029 0.0
O301 O 0.02006 0.48817 0.97603 0.0
O302 O 0.04246 0.52064 0.99934 0.0
O303 O 0.01879 0.52401 0.01053 0.0
O304 O 0.9811 0.4989 0.99448 0.0
O305 O 0.9868 0.51991 0.01771 0.0
H306 H 0.99022 0.52024 0.08531 0.0
H307 H 1.0028 0.52015 0.11235 0.0
H308 H 0.06343 0.52963 0.09735 0.0
H309 H 0.0504 0.52888 0.0702 0.0
H310 H 1.00189 0.5075 0.95859 0.0
H311 H 0.99019 0.51008 0.93174 0.0
H312 H 0.97029 0.44238 0.91955 0.0
H313 H 0.98271 0.44023 0.9462 0.0
C314 C 0.48676 0.48799 0.96479 0.0
Eu315 Eu 0.5012 0.50647 0.99343 0.0
C316 C 0.49531 0.48805 0.94955 0.0
C317 C 0.48456 0.4899 0.93603 0.0
C318 C 0.49199 0.4896 0.92137 0.0
C319 C 0.51032 0.48732 0.9199 0.0
C320 C 0.52125 0.48575 0.93354 0.0
C321 C 0.51384 0.48614 0.94823 0.0
C322 C 0.51264 0.54791 0.00349 0.0
C323 C 0.55395 0.5272 0.99927 0.0
C324 C 0.53843 0.54059 0.05517 0.0
Eu325 Eu 0.52415 0.5223 0.02647 0.0
C326 C 0.52983 0.53981 0.0705 0.0
C327 C 0.54007 0.53654 0.08367 0.0
C328 C 0.53254 0.53601 0.09839 0.0
C329 C 0.51465 0.5389 0.1003 0.0
C330 C 0.50427 0.54197 0.08702 0.0
C331 C 0.51176 0.54238 0.07225 0.0
C332 C 0.51257 0.48077 0.01641 0.0
C333 C 0.47135 0.50138 0.0206 0.0
O334 O 0.49203 0.47911 0.97593 0.0
O335 O 0.48721 0.50589 0.96995 0.0
O336 O 0.49476 0.53458 0.9948 0.0
O337 O 0.52413 0.53925 0.00581 0.0
O338 O 0.53567 0.51421 0.99023 0.0
O339 O 0.5539 0.53539 0.01348 0.0
O340 O 0.53259 0.54924 0.04419 0.0
O341 O 0.53874 0.52317 0.04979 0.0
O342 O 0.53039 0.49402 0.02518 0.0
O343 O 0.50118 0.48953 0.01413 0.0
O344 O 0.48959 0.5145 0.02966 0.0
O345 O 0.47152 0.49319 0.00643 0.0
H346 H 0.47031 0.49151 0.9368 0.0
H347 H 0.48341 0.49126 0.91118 0.0
H348 H 0.53528 0.48376 0.93285 0.0
H349 H 0.52247 0.48473 0.9585 0.0
H350 H 0.55397 0.53442 0.08257 0.0
H351 H 0.54069 0.53321 0.10826 0.0
H352 H 0.49061 0.54449 0.08806 0.0
H353 H 0.5035 0.54488 0.06227 0.0
C354 C 0.19406 0.34854 0.39484 0.0
Eu355 Eu 0.17991 0.34784 0.36596 0.0
C356 C 0.18543 0.33825 0.40912 0.0
C357 C 0.19493 0.35018 0.42378 0.0
C358 C 0.18715 0.34084 0.43756 0.0
C359 C 0.16969 0.31933 0.43696 0.0
C360 C 0.16002 0.30746 0.42219 0.0
C361 C 0.16783 0.31685 0.40839 0.0
C362 C 0.16768 0.37554 0.35534 0.0
C363 C 0.12792 0.31231 0.35889 0.0
C364 C 0.14398 0.33545 0.30368 0.0
Eu365 Eu 0.15816 0.33583 0.33247 0.0
C366 C 0.15275 0.34367 0.28885 0.0
C367 C 0.14326 0.32997 0.27484 0.0
C368 C 0.15091 0.33738 0.26053 0.0
C369 C 0.16817 0.35874 0.25993 0.0
C370 C 0.17788 0.37237 0.27407 0.0
C371 C 0.17027 0.36489 0.28841 0.0
C372 C 0.17062 0.30821 0.34301 0.0
C373 C 0.21047 0.371 0.33948 0.0
O374 O 0.19422 0.336 0.38312 0.0
O375 O 0.18804 0.36214 0.39032 0.0
O376 O 0.18549 0.38182 0.36429 0.0
O377 O 0.15671 0.35503 0.35296 0.0
O378 O 0.14611 0.31946 0.36819 0.0
O379 O 0.128 0.31898 0.34483 0.0
O380 O 0.14665 0.34988 0.3151 0.0
O381 O 0.14698 0.31998 0.30854 0.0
O382 O 0.15292 0.30189 0.33391 0.0
O383 O 0.18142 0.32871 0.34542 0.0
O384 O 0.19244 0.36326 0.32985 0.0
O385 O 0.21017 0.36518 0.35385 0.0
H386 H 0.20842 0.36677 0.42456 0.0
H387 H 0.19472 0.35058 0.4487 0.0
H388 H 0.14668 0.29081 0.42131 0.0
H389 H 0.16024 0.30736 0.39716 0.0
H390 H 0.12984 0.3135 0.27495 0.0
H391 H 0.14332 0.32629 0.24994 0.0
H392 H 0.19106 0.38897 0.27405 0.0
H393 H 0.17795 0.37575 0.2991 0.0
C394 C 0.67943 0.8587 0.39257 0.0
Eu395 Eu 0.67126 0.83845 0.36449 0.0
C396 C 0.68922 0.8598 0.40837 0.0
C397 C 0.69404 0.84382 0.41269 0.0
C398 C 0.70255 0.84491 0.42808 0.0
C399 C 0.70632 0.86198 0.43934 0.0
C400 C 0.70185 0.87814 0.43475 0.0
C401 C 0.69336 0.87702 0.41943 0.0
C402 C 0.64058 0.79657 0.35496 0.0
C403 C 0.7024 0.81774 0.35863 0.0
C404 C 0.66561 0.80359 0.30281 0.0
Eu405 Eu 0.67336 0.82232 0.33133 0.0
C406 C 0.65898 0.80613 0.28677 0.0
C407 C 0.67336 0.81066 0.27522 0.0
C408 C 0.66724 0.81225 0.25981 0.0
C409 C 0.64647 0.80912 0.25553 0.0
C410 C 0.63216 0.80487 0.26717 0.0
C411 C 0.63835 0.80342 0.28264 0.0
C412 C 0.7036 0.86443 0.34083 0.0
C413 C 0.64154 0.8424 0.33726 0.0
O414 O 0.69264 0.86605 0.38165 0.0
O415 O 0.66124 0.8408 0.38765 0.0
O416 O 0.63723 0.80959 0.36406 0.0
O417 O 0.66018 0.80564 0.35223 0.0
O418 O 0.69895 0.83133 0.36755 0.0
O419 O 0.69131 0.80883 0.34475 0.0
O420 O 0.6511 0.79729 0.31291 0.0
O421 O 0.68496 0.81858 0.30907 0.0
O422 O 0.70726 0.85158 0.33184 0.0
O423 O 0.68398 0.85502 0.34345 0.0
O424 O 0.64586 0.82975 0.32802 0.0
O425 O 0.65191 0.85064 0.35141 0.0
H426 H 0.69098 0.83042 0.40423 0.0
H427 H 0.7057 0.83215 0.43125 0.0
H428 H 0.70497 0.89174 0.44301 0.0
H429 H 0.68986 0.88956 0.41623 0.0
H430 H 0.68935 0.81281 0.2781 0.0
H431 H 0.67883 0.81593 0.25124 0.0
H432 H 0.61595 0.80212 0.26427 0.0
H433 H 0.62686 0.79988 0.29127 0.0
C434 C 0.15346 0.82093 0.29655 0.0
Eu435 Eu 0.16705 0.83937 0.32527 0.0
C436 C 0.16235 0.8212 0.28142 0.0
C437 C 0.15187 0.82321 0.26781 0.0
C438 C 0.15956 0.82301 0.25324 0.0
C439 C 0.17788 0.82067 0.25194 0.0
C440 C 0.18856 0.81896 0.26566 0.0
C441 C 0.18089 0.81925 0.28027 0.0
C442 C 0.17832 0.88085 0.3351 0.0
C443 C 0.2197 0.86031 0.33197 0.0
C444 C 0.20256 0.87323 0.38739 0.0
Eu445 Eu 0.18911 0.85517 0.35858 0.0
C446 C 0.19348 0.87204 0.40256 0.0
C447 C 0.20345 0.86872 0.41587 0.0
C448 C 0.19555 0.86806 0.43047 0.0
C449 C 0.17758 0.87088 0.43206 0.0
C450 C 0.16746 0.87399 0.41868 0.0
C451 C 0.17528 0.87449 0.40405 0.0
C452 C 0.17769 0.81364 0.34865 0.0
C453 C 0.13637 0.83411 0.35195 0.0
O454 O 0.15872 0.81221 0.3078 0.0
O455 O 0.15347 0.83864 0.30161 0.0
O456 O 0.16076 0.86759 0.32607 0.0
O457 O 0.18968 0.87215 0.33781 0.0
O458 O 0.20165 0.84694 0.32282 0.0
O459 O 0.21919 0.86877 0.34595 0.0
O460 O 0.19667 0.88175 0.37636 0.0
O461 O 0.20345 0.85612 0.38203 0.0
O462 O 0.19534 0.82686 0.3576 0.0
O463 O 0.1664 0.82244 0.3461 0.0
O464 O 0.1544 0.84717 0.36124 0.0
O465 O 0.13693 0.82608 0.33782 0.0
H466 H 0.13762 0.82485 0.26845 0.0
H467 H 0.15117 0.82478 0.24299 0.0
H468 H 0.20257 0.81693 0.2651 0.0
H469 H 0.18932 0.81772 0.2906 0.0
H470 H 0.21753 0.86684 0.415 0.0
H471 H 0.20385 0.8659 0.44058 0.0
H472 H 0.15345 0.87599 0.41952 0.0
H473 H 0.16717 0.87695 0.39396 0.0
C474 C 0.86187 0.68199 0.72685 0.0
Eu475 Eu 0.8472 0.68266 0.69845 0.0
C476 C 0.85324 0.67137 0.74103 0.0
C477 C 0.86306 0.68281 0.75578 0.0
C478 C 0.85523 0.67316 0.76946 0.0
C479 C 0.83742 0.65181 0.76865 0.0
C480 C 0.82746 0.64044 0.75379 0.0
C481 C 0.8353 0.65014 0.74009 0.0
C482 C 0.83604 0.71169 0.68901 0.0
C483 C 0.7947 0.64858 0.69211 0.0
C484 C 0.81003 0.67403 0.63721 0.0
Eu485 Eu 0.82423 0.67208 0.66541 0.0
C486 C 0.81937 0.68297 0.62269 0.0
C487 C 0.83619 0.68049 0.61707 0.0
C488 C 0.84443 0.68871 0.60306 0.0
C489 C 0.83619 0.69978 0.59453 0.0
C490 C 0.81964 0.70258 0.60036 0.0
C491 C 0.81127 0.69418 0.61428 0.0
C492 C 0.83568 0.64315 0.67463 0.0
C493 C 0.87708 0.70541 0.67164 0.0
O494 O 0.8612 0.66951 0.71473 0.0
O495 O 0.85653 0.69634 0.72295 0.0
O496 O 0.85413 0.71724 0.69736 0.0
O497 O 0.8244 0.69124 0.68655 0.0
O498 O 0.81309 0.65496 0.70098 0.0
O499 O 0.79452 0.65573 0.67827 0.0
O500 O 0.81377 0.68828 0.64907 0.0
O501 O 0.81156 0.6574 0.64141 0.0
O502 O 0.81782 0.63755 0.66595 0.0
O503 O 0.84708 0.66358 0.67724 0.0
O504 O 0.85882 0.6987 0.66249 0.0
O505 O 0.87703 0.69899 0.68577 0.0
H506 H 0.8768 0.69927 0.75672 0.0
H507 H 0.86303 0.68254 0.78068 0.0
H508 H 0.81384 0.62392 0.75273 0.0
H509 H 0.82744 0.64103 0.72879 0.0
H510 H 0.84292 0.67214 0.62346 0.0
H511 H 0.85735 0.68653 0.59893 0.0
H512 H 0.81284 0.71086 0.59397 0.0
H513 H 0.79835 0.69632 0.61844 0.0
C514 C 0.34459 0.1909 0.72721 0.0
Eu515 Eu 0.3375 0.17321 0.69841 0.0
C516 C 0.35295 0.18942 0.74298 0.0
C517 C 0.33948 0.18459 0.75518 0.0
C518 C 0.34717 0.18401 0.77039 0.0
C519 C 0.36858 0.18845 0.77377 0.0
C520 C 0.38202 0.19308 0.76152 0.0
C521 C 0.37426 0.19348 0.74624 0.0
C522 C 0.30707 0.13163 0.68783 0.0
C523 C 0.36922 0.15328 0.69217 0.0
C524 C 0.33379 0.14129 0.63636 0.0
Eu525 Eu 0.34065 0.15893 0.66515 0.0
C526 C 0.32729 0.14383 0.62031 0.0
C527 C 0.34118 0.14688 0.60863 0.0
C528 C 0.33507 0.14818 0.59314 0.0
C529 C 0.31479 0.14625 0.58895 0.0
C530 C 0.30103 0.14362 0.60075 0.0
C531 C 0.30722 0.14245 0.6163 0.0
C532 C 0.37083 0.2007 0.67571 0.0
C533 C 0.30884 0.17888 0.67138 0.0
O534 O 0.35849 0.19907 0.71678 0.0
O535 O 0.32598 0.17427 0.72124 0.0
O536 O 0.30343 0.14428 0.69707 0.0
O537 O 0.32681 0.14088 0.68541 0.0
O538 O 0.36516 0.16607 0.70145 0.0
O539 O 0.35872 0.14518 0.67805 0.0
O540 O 0.31903 0.13435 0.64627 0.0
O541 O 0.35286 0.15657 0.64285 0.0
O542 O 0.37462 0.18821 0.66642 0.0
O543 O 0.3511 0.19121 0.67806 0.0
O544 O 0.31324 0.1665 0.66193 0.0
O545 O 0.31896 0.18654 0.68566 0.0
H546 H 0.32305 0.18155 0.75297 0.0
H547 H 0.33652 0.18067 0.77961 0.0
H548 H 0.39853 0.19637 0.76376 0.0
H549 H 0.38501 0.19717 0.73707 0.0
H550 H 0.35675 0.14802 0.61145 0.0
H551 H 0.34625 0.15063 0.58444 0.0
H552 H 0.28521 0.14187 0.59793 0.0
H553 H 0.29615 0.14012 0.62507 0.0
C554 C 0.82111 0.16048 0.6277 0.0
Eu555 Eu 0.83264 0.17516 0.65722 0.0
C556 C 0.82968 0.15472 0.61415 0.0
C557 C 0.85161 0.16731 0.61149 0.0
C558 C 0.8588 0.16325 0.59755 0.0
C559 C 0.84423 0.14645 0.58606 0.0
C560 C 0.82254 0.13321 0.58919 0.0
C561 C 0.81534 0.13738 0.60307 0.0
C562 C 0.84172 0.2151 0.66951 0.0
C563 C 0.88446 0.1931 0.666 0.0
C564 C 0.86892 0.21381 0.72005 0.0
Eu565 Eu 0.85416 0.19057 0.69299 0.0
C566 C 0.8634 0.21163 0.73632 0.0
C567 C 0.8489 0.19127 0.74117 0.0
C568 C 0.84292 0.18973 0.7565 0.0
C569 C 0.85126 0.20855 0.7672 0.0
C570 C 0.86588 0.22887 0.76222 0.0
C571 C 0.87188 0.23037 0.74693 0.0
C572 C 0.83979 0.14732 0.68552 0.0
C573 C 0.80119 0.16645 0.68429 0.0
O574 O 0.81568 0.14765 0.63899 0.0
O575 O 0.8309 0.1812 0.63286 0.0
O576 O 0.82478 0.20232 0.65975 0.0
O577 O 0.85334 0.2066 0.67185 0.0
O578 O 0.86669 0.18085 0.65622 0.0
O579 O 0.88402 0.20129 0.68016 0.0
O580 O 0.85484 0.21476 0.71007 0.0
O581 O 0.87638 0.20153 0.71439 0.0
O582 O 0.84907 0.15749 0.69931 0.0
O583 O 0.83868 0.16067 0.67714 0.0
O584 O 0.8185 0.17966 0.69426 0.0
O585 O 0.80255 0.16011 0.66977 0.0
H586 H 0.86303 0.18075 0.61992 0.0
H587 H 0.87557 0.17387 0.59553 0.0
H588 H 0.81098 0.11982 0.58079 0.0
H589 H 0.79839 0.12742 0.60496 0.0
H590 H 0.84206 0.17663 0.73306 0.0
H591 H 0.83181 0.17381 0.75998 0.0
H592 H 0.87231 0.24375 0.77 0.0
H593 H 0.88289 0.24624 0.74331 0.0
H594 H 0.26897 0.82966 0.04741 0.0
H595 H 0.30249 0.85748 0.0379 0.0
H596 H 0.3374 0.86675 0.0831 0.0
H597 H 0.30416 0.83865 0.09258 0.0
H598 H 0.32977 0.90198 0.05024 0.0
H599 H 0.37365 0.85583 0.05198 0.0
H600 H 0.34465 0.84297 0.05271 0.0
H601 H 0.36289 0.85795 0.06998 0.0
C602 C 0.28384 0.83746 0.05527 0.0
C603 C 0.2839 0.83185 0.07074 0.0
C604 C 0.30293 0.85345 0.04985 0.0
C605 C 0.32248 0.86398 0.05973 0.0
C606 C 0.32257 0.85859 0.0752 0.0
H607 H 0.4556 0.96247 0.05214 0.0
H608 H 0.4211 0.9351 0.06046 0.0
C609 C 0.30349 0.84267 0.08065 0.0
C610 C 0.34276 0.88082 0.05395 0.0
H611 H 0.39417 0.89304 0.04741 0.0
C612 C 0.34383 0.90001 0.04952 0.0
C613 C 0.36105 0.87819 0.05304 0.0
C614 C 0.36054 0.85755 0.05704 0.0
C615 C 0.36294 0.91691 0.0446 0.0
C616 C 0.38131 0.91434 0.04379 0.0
C617 C 0.38012 0.89503 0.04808 0.0
C618 C 0.40205 0.93154 0.03875 0.0
C619 C 0.36347 0.93761 0.04077 0.0
C620 C 0.40287 0.93861 0.02372 0.0
C621 C 0.4226 0.95439 0.01892 0.0
C622 C 0.44196 0.96324 0.02902 0.0
C623 C 0.44105 0.95606 0.04405 0.0
C624 C 0.42132 0.94037 0.04884 0.0
H625 H 0.3504 0.93929 0.04592 0.0
H626 H 0.37938 0.95217 0.04511 0.0
H627 H 0.36103 0.93732 0.02784 0.0
H628 H 0.3883 0.93168 0.01559 0.0
H629 H 0.42271 0.95939 0.00723 0.0
H630 H 0.2115 0.48523 0.07388 0.0
H631 H 0.18274 0.49158 0.06311 0.0
H632 H 0.13434 0.42694 0.07229 0.0
H633 H 0.16294 0.42068 0.0833 0.0
H634 H 0.15116 0.47121 0.03879 0.0
H635 H 0.11377 0.46391 0.09455 0.0
H636 H 0.13989 0.46595 0.09359 0.0
H637 H 0.1153 0.44025 0.08828 0.0
C638 C 0.19472 0.47235 0.0735 0.0
C639 C 0.18944 0.45255 0.07959 0.0
C640 C 0.17832 0.476 0.06739 0.0
C641 C 0.15636 0.45992 0.06723 0.0
C642 C 0.15112 0.43983 0.07273 0.0
H643 H 0.04743 0.45762 0.01357 0.0
H644 H 0.0762 0.45087 0.02337 0.0
C645 C 0.16747 0.43624 0.07896 0.0
C646 C 0.13895 0.46416 0.06135 0.0
H647 H 0.09384 0.46492 0.0717 0.0
C648 C 0.13867 0.46992 0.046 0.0
C649 C 0.12285 0.46281 0.07085 0.0
C650 C 0.12304 0.45812 0.08778 0.0
C651 C 0.12253 0.47403 0.03979 0.0
C652 C 0.10593 0.4718 0.04909 0.0
C653 C 0.10641 0.46636 0.06452 0.0
C654 C 0.08817 0.47555 0.0432 0.0
C655 C 0.12374 0.48119 0.02348 0.0
C656 C 0.08478 0.4911 0.0514 0.0
C657 C 0.06813 0.49476 0.04597 0.0
C658 C 0.05452 0.48295 0.0322 0.0
C659 C 0.05773 0.46714 0.02413 0.0
C660 C 0.07429 0.46337 0.02966 0.0
H661 H 0.14041 0.48809 0.01984 0.0
H662 H 0.11268 0.46688 0.01502 0.0
H663 H 0.11869 0.4936 0.02273 0.0
H664 H 0.0952 0.50061 0.06193 0.0
H665 H 0.06614 0.50707 0.05247 0.0
H666 H 0.52659 0.73036 0.04875 0.0
H667 H 0.51953 0.69486 0.03706 0.0
H668 H 0.58101 0.70741 0.05933 0.0
H669 H 0.58818 0.74286 0.07102 0.0
H670 H 0.54324 0.68389 0.01721 0.0
H671 H 0.53785 0.64885 0.07408 0.0
H672 H 0.53715 0.67366 0.07223 0.0
H673 H 0.56258 0.67406 0.07299 0.0
C674 C 0.53869 0.72564 0.05103 0.0
C675 C 0.55785 0.73933 0.06094 0.0
C676 C 0.53459 0.70532 0.04441 0.0
C677 C 0.54955 0.69832 0.04759 0.0
C678 C 0.56899 0.71225 0.05705 0.0
H679 H 0.55033 0.57852 0.02071 0.0
H680 H 0.55999 0.61554 0.03098 0.0
C681 C 0.57307 0.73251 0.0637 0.0
C682 C 0.54479 0.67643 0.04105 0.0
H683 H 0.53724 0.62766 0.05148 0.0
C684 C 0.54186 0.67156 0.02469 0.0
C685 C 0.54305 0.6604 0.05085 0.0
C686 C 0.54512 0.66436 0.06851 0.0
C687 C 0.53749 0.65116 0.01785 0.0
C688 C 0.53567 0.63512 0.02765 0.0
C689 C 0.53873 0.64003 0.04401 0.0
C690 C 0.53003 0.61292 0.02118 0.0
C691 C 0.53519 0.64705 1.0002 0.0
C692 C 0.5099 0.59914 0.01245 0.0
C693 C 0.50434 0.57804 0.00664 0.0
C694 C 0.51877 0.57031 0.00953 0.0
C695 C 0.5389 0.58408 0.01832 0.0
C696 C 0.54443 0.60519 0.02417 0.0
H697 H 0.54258 0.66252 0.99457 0.0
H698 H 0.54288 0.6375 0.99645 0.0
H699 H 0.51768 0.63753 0.99583 0.0
H700 H 0.49837 0.60462 0.01028 0.0
H701 H 0.48867 0.56772 0.99998 0.0
H702 H 0.80616 0.28193 0.96752 0.0
H703 H 0.83437 0.31723 0.98081 0.0
H704 H 0.88383 0.30656 0.96287 0.0
H705 H 0.85583 0.27126 0.94967 0.0
H706 H 0.87027 0.32814 0.00325 0.0
H707 H 0.89709 0.36548 0.94777 0.0
H708 H 0.87178 0.34042 0.94843 0.0
H709 H 0.89694 0.3403 0.9492 0.0
C710 C 0.82305 0.28698 0.96655 0.0
C711 C 0.82873 0.27388 0.95738 0.0
C712 C 0.83914 0.30719 0.9741 0.0
C713 C 0.86116 0.31469 0.97256 0.0
C714 C 0.86691 0.30132 0.96389 0.0
H715 H 0.98158 0.43545 0.00396 0.0
H716 H 0.95406 0.39852 0.99276 0.0
C717 C 0.85087 0.28115 0.95635 0.0
C718 C 0.87815 0.33659 0.97989 0.0
H719 H 0.91821 0.38623 0.97133 0.0
C720 C 0.88072 0.34088 0.99629 0.0
C721 C 0.89178 0.35315 0.97076 0.0
C722 C 0.88921 0.34976 0.95306 0.0
C723 C 0.8968 0.36122 0.00384 0.0
C724 C 0.91039 0.37781 0.99471 0.0
C725 C 0.90783 0.37347 0.97831 0.0
C726 C 0.9271 0.39993 0.00189 0.0
C727 C 0.89939 0.3646 0.02154 0.0
C728 C 0.92107 0.41305 0.01059 0.0
C729 C 0.93674 0.4341 0.01698 0.0
C730 C 0.95871 0.44248 0.01469 0.0
C731 C 0.96476 0.42938 0.00593 0.0
C732 C 0.94906 0.40831 0.99953 0.0
H733 H 0.8921 0.34884 0.02679 0.0
H734 H 0.91679 0.37453 0.02616 0.0
H735 H 0.891 0.37339 0.02542 0.0
H736 H 0.90418 0.40713 0.01225 0.0
H737 H 0.9316 0.4439 0.02358 0.0
H738 H 0.74675 0.57201 0.96877 0.0
H739 H 0.71375 0.56707 0.9796 0.0
H740 H 0.67719 0.53776 0.93444 0.0
H741 H 0.70991 0.54215 0.92362 0.0
H742 H 0.68596 0.5832 0.96942 0.0
H743 H 0.64259 0.49274 0.96488 0.0
H744 H 0.67146 0.50907 0.96367 0.0
H745 H 0.65259 0.50424 0.94699 0.0
C746 C 0.73164 0.56432 0.96119 0.0
C747 C 0.73094 0.55737 0.94535 0.0
C748 C 0.71285 0.56164 0.96736 0.0
C749 C 0.693 0.5518 0.95787 0.0
C750 C 0.69229 0.5451 0.94203 0.0
H751 H 0.56057 0.5165 0.96978 0.0
H752 H 0.59479 0.52369 0.96015 0.0
C753 C 0.71105 0.54782 0.93583 0.0
C754 C 0.67302 0.54868 0.96446 0.0
H755 H 0.62215 0.50958 0.97132 0.0
C756 C 0.67203 0.56712 0.96994 0.0
C757 C 0.65492 0.52767 0.96511 0.0
C758 C 0.65541 0.50726 0.95999 0.0
C759 C 0.65314 0.56514 0.97566 0.0
C760 C 0.63495 0.54411 0.97618 0.0
C761 C 0.63607 0.52568 0.97085 0.0
C762 C 0.61445 0.54077 0.982 0.0
C763 C 0.65262 0.58556 0.98067 0.0
C764 C 0.6141 0.54796 0.99752 0.0
C765 C 0.59453 0.54394 0.00308 0.0
C766 C 0.57489 0.53245 0.99325 0.0
C767 C 0.57535 0.52536 0.97769 0.0
C768 C 0.59491 0.52945 0.97215 0.0
H769 H 0.66547 0.60004 0.97577 0.0
H770 H 0.63659 0.58375 0.97691 0.0
H771 H 0.6554 0.58866 0.99366 0.0
H772 H 0.62891 0.55632 0.00544 0.0
H773 H 0.59475 0.5495 0.01516 0.0
H774 H 0.45209 0.18777 0.98927 0.0
H775 H 0.45997 0.16142 1.00061 0.0
H776 H 0.47594 0.14604 0.95572 0.0
H777 H 0.46961 0.17336 0.94456 0.0
H778 H 0.44229 0.11861 0.99446 0.0
H779 H 0.52869 0.1581 0.98319 0.0
H780 H 0.51285 0.17128 0.98072 0.0
H781 H 0.51103 0.15169 0.96552 0.0
C782 C 0.45766 0.17909 0.98185 0.0
C783 C 0.46036 0.18291 0.96599 0.0
C784 C 0.46195 0.16384 0.98833 0.0
C785 C 0.46895 0.15202 0.9791 0.0
C786 C 0.47109 0.15534 0.96319 0.0
H787 H 0.46708 0.03359 0.00365 0.0
H788 H 0.45829 0.05989 0.99315 0.0
C789 C 0.46709 0.17077 0.95675 0.0
C790 C 0.47383 0.13608 0.98608 0.0
H791 H 0.51297 0.12202 0.99075 0.0
C792 C 0.45779 0.11942 0.99374 0.0
C793 C 0.49419 0.13733 0.98538 0.0
C794 C 0.51274 0.1557 0.97841 0.0
C795 C 0.46143 0.10383 1.00049 0.0
C796 C 0.48143 0.1045 0.99914 0.0
C797 C 0.49754 0.12132 0.99165 0.0
C798 C 0.48631 0.08829 0.00565 0.0
C799 C 0.44397 0.08716 0.00932 0.0
C800 C 0.50527 0.09544 0.01582 0.0
C801 C 0.51063 0.08048 0.02143 0.0
C802 C 0.49707 0.05804 0.01706 0.0
C803 C 0.47791 0.05081 0.0071 0.0
C804 C 0.47273 0.06582 0.00127 0.0
H805 H 0.43306 0.09294 0.01345 0.0
H806 H 0.43388 0.07195 0.00139 0.0
H807 H 0.45108 0.08325 0.01963 0.0
H808 H 0.51604 0.11266 0.01937 0.0
H809 H 0.52548 0.08652 0.02913 0.0
H810 H 0.72725 0.15072 0.94442 0.0
H811 H 0.69028 0.12558 0.9507 0.0
H812 H 0.70075 0.16816 0.99228 0.0
H813 H 0.73764 0.19338 0.98592 0.0
H814 H 0.67878 0.10393 0.97766 0.0
H815 H 0.64222 0.15642 0.97142 0.0
H816 H 0.6674 0.16247 0.96368 0.0
H817 H 0.66708 0.16883 0.98422 0.0
C818 C 0.72156 0.15469 0.95485 0.0
C819 C 0.73531 0.17377 0.96483 0.0
C820 C 0.70049 0.14038 0.95842 0.0
C821 C 0.69269 0.14506 0.9719 0.0
C822 C 0.70629 0.16436 0.9817 0.0
H823 H 0.58693 0.05529 0.02176 0.0
H824 H 0.62201 0.08082 0.01308 0.0
C825 C 0.72737 0.17867 0.97814 0.0
C826 C 0.67074 0.12926 0.97608 0.0
H827 H 0.62176 0.12368 0.98338 0.0
C828 C 0.66627 0.10821 0.97884 0.0
C829 C 0.65436 0.13478 0.97744 0.0
C830 C 0.65787 0.15678 0.9739 0.0
C831 C 0.64604 0.0927 0.98326 0.0
C832 C 0.62993 0.09848 0.98517 0.0
C833 C 0.63421 0.11935 0.98206 0.0
C834 C 0.60858 0.08308 0.99045 0.0
C835 C 0.642 0.07017 0.98568 0.0
C836 C 0.58931 0.07623 0.98075 0.0
C837 C 0.56917 0.06166 0.98569 0.0
C838 C 0.56791 0.05377 1.0005 0.0
C839 C 0.58726 0.0609 0.01025 0.0
C840 C 0.60737 0.07543 0.00529 0.0
H841 H 0.65358 0.06664 0.97988 0.0
H842 H 0.64412 0.06897 0.99844 0.0
H843 H 0.62519 0.05751 0.98107 0.0
H844 H 0.58987 0.08202 0.96929 0.0
H845 H 0.55462 0.0566 0.97788 0.0
H846 H 0.83456 0.56921 0.98775 0.0
H847 H 0.86162 0.55827 0.99346 0.0
H848 H 0.85834 0.53978 0.94413 0.0
H849 H 0.83165 0.55128 0.93835 0.0
H850 H 0.85866 0.5185 0.988 0.0
H851 H 0.9231 0.57961 0.95546 0.0
H852 H 0.89942 0.58114 0.95975 0.0
H853 H 0.89761 0.56252 0.94382 0.0
C854 C 0.83958 0.56274 0.97815 0.0
C855 C 0.83089 0.56085 0.96263 0.0
C856 C 0.85503 0.55652 0.98141 0.0
C857 C 0.8622 0.54845 0.96921 0.0
C858 C 0.85337 0.54634 0.9537 0.0
H859 H 0.95559 0.50219 0.97378 0.0
H860 H 0.92724 0.5101 0.96459 0.0
C861 C 0.83799 0.55269 0.95042 0.0
C862 C 0.87876 0.54208 0.97285 0.0
H863 H 0.93007 0.55362 0.96642 0.0
C864 C 0.87426 0.52616 0.98326 0.0
C865 C 0.89909 0.55207 0.96662 0.0
C866 C 0.90524 0.56992 0.95591 0.0
C867 C 0.88957 0.52006 0.98768 0.0
C868 C 0.90997 0.53026 0.98164 0.0
C869 C 0.91435 0.54581 0.97097 0.0
C870 C 0.92737 0.52583 0.98698 0.0
C871 C 0.88387 0.50276 0.99883 0.0
C872 C 0.93702 0.53242 0.00251 0.0
C873 C 0.95324 0.52808 0.00776 0.0
C874 C 0.96012 0.517 0.99759 0.0
C875 C 0.95061 0.51067 0.98194 0.0
C876 C 0.93445 0.51518 0.97666 0.0
H877 H 0.86608 0.49307 0.99956 0.0
H878 H 0.88975 0.49153 0.99514 0.0
H879 H 0.89189 0.51069 0.01075 0.0
H880 H 0.93195 0.54091 0.01059 0.0
H881 H 0.96019 0.5332 0.01988 0.0
H882 H 0.48531 0.28902 0.99697 0.0
H883 H 0.4953 0.32749 0.00161 0.0
H884 H 0.43832 0.31417 0.97184 0.0
H885 H 0.42834 0.27576 0.96715 0.0
H886 H 0.50173 0.35811 0.97807 0.0
H887 H 0.43463 0.3434 0.01451 0.0
H888 H 0.44325 0.32369 0.01106 0.0
H889 H 0.42707 0.32712 0.99591 0.0
C890 C 0.47497 0.29439 0.99145 0.0
C891 C 0.45595 0.27947 0.98189 0.0
C892 C 0.48067 0.31628 0.99407 0.0
C893 C 0.46738 0.32356 0.98723 0.0
C894 C 0.44859 0.30877 0.97742 0.0
H895 H 0.4746 0.45008 0.99949 0.0
H896 H 0.46361 0.41212 0.991 0.0
C897 C 0.44294 0.2869 0.97473 0.0
C898 C 0.47321 0.34664 0.9904 0.0
H899 H 0.45759 0.37957 0.00904 0.0
C900 C 0.49209 0.36284 0.98482 0.0
C901 C 0.46048 0.35268 0.99909 0.0
C902 C 0.44029 0.33589 0.00562 0.0
C903 C 0.49861 0.38501 0.98771 0.0
C904 C 0.48619 0.39113 0.99677 0.0
C905 C 0.4671 0.37486 0.00211 0.0
C906 C 0.49314 0.41432 0.00135 0.0
C907 C 0.51858 0.40163 0.98086 0.0
C908 C 0.51327 0.42808 0.0101 0.0
C909 C 0.51961 0.44973 0.01485 0.0
C910 C 0.50582 0.45797 0.0111 0.0
C911 C 0.48559 0.44417 0.00245 0.0
C912 C 0.47929 0.42251 0.99763 0.0
H913 H 0.52208 0.39425 0.97046 0.0
H914 H 0.51675 0.41546 0.97732 0.0
H915 H 0.53281 0.40814 0.9898 0.0
H916 H 0.52398 0.42199 0.01347 0.0
H917 H 0.53524 0.45997 0.02159 0.0
H918 H 0.20239 0.72665 0.03477 0.0
H919 H 0.17431 0.68808 0.02865 0.0
H920 H 0.13226 0.69796 0.05791 0.0
H921 H 0.16028 0.73647 0.06406 0.0
H922 H 0.15289 0.65528 0.05024 0.0
H923 H 0.09565 0.6713 0.01444 0.0
H924 H 0.12405 0.69144 0.01902 0.0
H925 H 0.10552 0.68601 0.03366 0.0
C926 C 0.18712 0.72051 0.03986 0.0
C927 C 0.1833 0.73452 0.04965 0.0
C928 C 0.17115 0.69855 0.03639 0.0
C929 C 0.1511 0.69028 0.04263 0.0
C930 C 0.14748 0.70412 0.05276 0.0
H931 H 0.03251 0.56279 0.02602 0.0
H932 H 0.05981 0.60059 0.03556 0.0
C933 C 0.16347 0.72606 0.05628 0.0
C934 C 0.13397 0.66718 0.03848 0.0
H935 H 0.08368 0.63471 0.01866 0.0
C936 C 0.13774 0.65074 0.04334 0.0
C937 C 0.11419 0.66136 0.02958 0.0
C938 C 0.10955 0.67839 0.02374 0.0
C939 C 0.1222 0.62858 0.03957 0.0
C940 C 0.10258 0.62273 0.03036 0.0
C941 C 0.09871 0.6392 0.0257 0.0
C942 C 0.08618 0.59966 0.025 0.0
C943 C 0.1268 0.61167 0.0457 0.0
C944 C 0.09186 0.58667 0.01576 0.0
C945 C 0.07635 0.56511 0.0104 0.0
C946 C 0.05481 0.55619 0.01402 0.0
C947 C 0.04903 0.56923 0.02313 0.0
C948 C 0.06459 0.59081 0.02855 0.0
H949 H 0.13888 0.6185 0.05624 0.0
H950 H 0.11175 0.59738 0.04877 0.0
H951 H 0.13363 0.60594 0.0365 0.0
H952 H 0.10825 0.59328 0.01253 0.0
H953 H 0.08123 0.55546 0.00333 0.0
H954 H 0.28099 0.41729 0.06718 0.0
H955 H 0.31776 0.42917 0.06027 0.0
H956 H 0.32838 0.49388 0.05613 0.0
H957 H 0.29131 0.48183 0.06263 0.0
H958 H 0.3413 0.47971 0.03158 0.0
H959 H 0.37534 0.4659 0.08656 0.0
H960 H 0.35093 0.44198 0.07799 0.0
H961 H 0.34995 0.46579 0.08504 0.0
C962 C 0.29129 0.43412 0.065 0.0
C963 C 0.28352 0.4488 0.06579 0.0
C964 C 0.31234 0.44093 0.06114 0.0
C965 C 0.32604 0.46256 0.05805 0.0
C966 C 0.3182 0.47718 0.05866 0.0
H967 H 0.46428 0.51789 0.04786 0.0
H968 H 0.42938 0.50946 0.05701 0.0
C969 C 0.29709 0.47034 0.06243 0.0
C970 C 0.3481 0.46957 0.05335 0.0
H971 H 0.39578 0.47136 0.06447 0.0
C972 C 0.35327 0.47805 0.03884 0.0
C973 C 0.36385 0.46771 0.06291 0.0
C974 C 0.35985 0.46007 0.07907 0.0
C975 C 0.37352 0.48414 0.03342 0.0
C976 C 0.38883 0.4812 0.04261 0.0
C977 C 0.38392 0.47333 0.05733 0.0
C978 C 0.40999 0.4861 0.03712 0.0
C979 C 0.37837 0.49391 0.01799 0.0
C980 C 0.4107 0.47548 0.02304 0.0
C981 C 0.43061 0.48034 0.01772 0.0
C982 C 0.45025 0.49575 0.02649 0.0
C983 C 0.44949 0.50598 0.04079 0.0
C984 C 0.42954 0.50118 0.04605 0.0
H985 H 0.36802 0.501 0.01485 0.0
H986 H 0.39568 0.50684 0.01834 0.0
H987 H 0.37498 0.48095 0.00854 0.0
H988 H 0.39583 0.46337 0.01615 0.0
H989 H 0.43057 0.472 0.00674 0.0
H990 H 0.53562 0.81607 0.03325 0.0
H991 H 0.52467 0.84268 0.02671 0.0
H992 H 0.58083 0.8933 0.0557 0.0
H993 H 0.59176 0.86677 0.06228 0.0
H994 H 0.51702 0.87118 0.04836 0.0
H995 H 0.58433 0.91656 0.01165 0.0
H996 H 0.57634 0.88934 0.01647 0.0
H997 H 0.59207 0.91228 0.03088 0.0
C998 C 0.54555 0.83289 0.03821 0.0
C999 C 0.56458 0.83945 0.04815 0.0
C1000 C 0.53931 0.84802 0.03451 0.0
C1001 C 0.5521 0.86997 0.04058 0.0
C1002 C 0.57092 0.87649 0.05072 0.0
H1003 H 0.54399 0.98574 0.02428 0.0
H1004 H 0.5548 0.96016 0.03345 0.0
C1005 C 0.5771 0.86134 0.0545 0.0
C1006 C 0.54577 0.88607 0.03625 0.0
H1007 H 0.56114 0.93066 0.01606 0.0
C1008 C 0.52663 0.88419 0.04129 0.0
C1009 C 0.55844 0.90306 0.02711 0.0
C1010 C 0.57887 0.90545 0.02108 0.0
C1011 C 0.51987 0.89901 0.03753 0.0
C1012 C 0.53234 0.91581 0.02815 0.0
C1013 C 0.5516 0.91777 0.02324 0.0
C1014 C 0.52548 0.93124 0.023 0.0
C1015 C 0.49966 0.89677 0.04389 0.0
C1016 C 0.50553 0.9235 0.01394 0.0
C1017 C 0.49928 0.93806 0.0088 0.0
C1018 C 0.51296 0.96063 0.0125 0.0
C1019 C 0.53304 0.9684 0.02139 0.0
C1020 C 0.53925 0.95382 0.0266 0.0
H1021 H 0.4958 0.88757 0.05439 0.0
H1022 H 0.50145 0.91299 0.04709 0.0
H1023 H 0.48569 0.8877 0.03476 0.0
H1024 H 0.49488 0.90619 0.01068 0.0
H1025 H 0.48377 0.93163 0.00187 0.0
H1026 H 0.97033 0.16782 0.42653 0.0
H1027 H 0.00326 0.19701 0.41748 0.0
H1028 H 0.96793 0.18931 0.37277 0.0
H1029 H 0.93473 0.16055 0.38189 0.0
H1030 H 0.02456 0.19471 0.39172 0.0
H1031 H 0.9973 0.25499 0.38571 0.0
H1032 H 0.98338 0.23153 0.39647 0.0
H1033 H 0.97939 0.22857 0.37538 0.0
C1034 C 0.96947 0.17252 0.41485 0.0
C1035 C 0.94984 0.16191 0.40497 0.0
C1036 C 0.98835 0.18912 0.40966 0.0
C1037 C 0.98798 0.19555 0.39454 0.0
C1038 C 0.96849 0.18488 0.38459 0.0
H1039 H 0.08749 0.29107 0.34241 0.0
H1040 H 0.05357 0.26269 0.35097 0.0
C1041 C 0.94959 0.16826 0.38976 0.0
C1042 C 0.00816 0.21301 0.38908 0.0
H1043 H 0.03098 0.26372 0.3763 0.0
C1044 C 0.026 0.20984 0.3884 0.0
C1045 C 0.00995 0.23268 0.38468 0.0
C1046 C 0.99158 0.23732 0.3857 0.0
C1047 C 0.04553 0.22569 0.38328 0.0
C1048 C 0.0474 0.24545 0.37902 0.0
C1049 C 0.02951 0.24857 0.37959 0.0
C1050 C 0.06787 0.26311 0.37404 0.0
C1051 C 0.06384 0.22096 0.38219 0.0
C1052 C 0.08706 0.2731 0.3843 0.0
C1053 C 0.10648 0.28929 0.37945 0.0
C1054 C 0.10707 0.29595 0.36426 0.0
C1055 C 0.08766 0.28632 0.35417 0.0
C1056 C 0.06824 0.27009 0.35903 0.0
H1057 H 0.05793 0.2032 0.38176 0.0
H1058 H 0.07237 0.22721 0.37163 0.0
H1059 H 0.07576 0.22915 0.39271 0.0
H1060 H 0.08705 0.26833 0.39606 0.0
H1061 H 0.12103 0.29647 0.3876 0.0
H1062 H 0.82736 0.74868 0.41409 0.0
H1063 H 0.7983 0.75391 0.40255 0.0
H1064 H 0.84589 0.81838 0.3924 0.0
H1065 H 0.87504 0.81302 0.40366 0.0
H1066 H 0.7876 0.78324 0.4123 0.0
H1067 H 0.8085 0.79474 0.3511 0.0
H1068 H 0.82067 0.78451 0.36472 0.0
H1069 H 0.83062 0.81333 0.36525 0.0
C1070 C 0.83161 0.76389 0.40927 0.0
C1071 C 0.85345 0.78044 0.40975 0.0
C1072 C 0.81502 0.76685 0.40266 0.0
C1073 C 0.8199 0.78643 0.39643 0.0
C1074 C 0.84173 0.80292 0.39676 0.0
H1075 H 0.73151 0.83621 0.38486 0.0
H1076 H 0.75955 0.82808 0.3939 0.0
C1077 C 0.85837 0.79988 0.40324 0.0
C1078 C 0.80206 0.79001 0.39048 0.0
H1079 H 0.78244 0.80429 0.35879 0.0
C1080 C 0.7864 0.7877 0.40056 0.0
C1081 C 0.80031 0.79555 0.37509 0.0
C1082 C 0.81579 0.79696 0.36336 0.0
C1083 C 0.76928 0.79114 0.39579 0.0
C1084 C 0.7681 0.79765 0.38065 0.0
C1085 C 0.7835 0.79955 0.37045 0.0
C1086 C 0.75102 0.80256 0.37517 0.0
C1087 C 0.75245 0.78742 0.40694 0.0
C1088 C 0.73725 0.79134 0.36138 0.0
C1089 C 0.72135 0.79614 0.35605 0.0
C1090 C 0.71891 0.81228 0.36442 0.0
C1091 C 0.73278 0.82353 0.3782 0.0
C1092 C 0.74877 0.81883 0.38345 0.0
H1093 H 0.75192 0.77638 0.41577 0.0
H1094 H 0.75663 0.80324 0.41336 0.0
H1095 H 0.73601 0.7803 0.40054 0.0
H1096 H 0.73875 0.77879 0.35477 0.0
H1097 H 0.71098 0.78719 0.34538 0.0
H1098 H 0.23022 0.08175 0.37216 0.0
H1099 H 0.22141 0.04607 0.35981 0.0
H1100 H 0.20452 0.01896 0.40397 0.0
H1101 H 0.21183 0.05408 0.41614 0.0
H1102 H 0.23865 0.02123 0.36524 0.0
H1103 H 0.15197 0.97575 0.37568 0.0
H1104 H 0.168 0.00508 0.37883 0.0
H1105 H 0.16933 0.98865 0.39359 0.0
C1106 C 0.22421 0.06812 0.37919 0.0
C1107 C 0.22165 0.07087 0.39516 0.0
C1108 C 0.21939 0.04775 0.37213 0.0
C1109 C 0.21194 0.02971 0.38088 0.0
C1110 C 0.20972 0.03248 0.39686 0.0
H1111 H 0.21397 0.9104 0.35476 0.0
H1112 H 0.22246 0.9467 0.36565 0.0
C1113 C 0.21428 0.05273 0.40388 0.0
C1114 C 0.20696 0.00811 0.37339 0.0
H1115 H 0.16769 0.95434 0.36786 0.0
C1116 C 0.22307 0.00662 0.3657 0.0
C1117 C 0.18651 0.98908 0.37377 0.0
C1118 C 0.1679 0.98973 0.38076 0.0
C1119 C 0.21946 0.98659 0.35865 0.0
C1120 C 0.1994 0.9674 0.35972 0.0
C1121 C 0.18317 0.96898 0.36718 0.0
C1122 C 0.19463 0.94552 0.353 0.0
C1123 C 0.23704 0.98636 0.34984 0.0
C1124 C 0.17584 0.93245 0.34262 0.0
C1125 C 0.17067 0.9115 0.33675 0.0
C1126 C 0.18425 0.90322 0.34107 0.0
C1127 C 0.20318 0.91634 0.35129 0.0
C1128 C 0.20818 0.93721 0.35737 0.0
H1129 H 0.24801 0.00259 0.34592 0.0
H1130 H 0.24705 0.98219 0.35772 0.0
H1131 H 0.23005 0.97411 0.3394 0.0
H1132 H 0.1651 0.93845 0.3391 0.0
H1133 H 0.15598 0.90174 0.32888 0.0
H1134 H 0.48822 0.59661 0.3114 0.0
H1135 H 0.51554 0.6317 0.32538 0.0
H1136 H 0.52362 0.66185 0.2822 0.0
H1137 H 0.49557 0.62727 0.26835 0.0
H1138 H 0.55779 0.65707 0.32161 0.0
H1139 H 0.51555 0.7033 0.31094 0.0
H1140 H 0.50208 0.67403 0.30701 0.0
H1141 H 0.51866 0.69131 0.29302 0.0
C1142 C 0.4955 0.61079 0.30493 0.0
C1143 C 0.4896 0.60905 0.28873 0.0
C1144 C 0.51126 0.63081 0.31292 0.0
C1145 C 0.52142 0.64951 0.3049 0.0
C1146 C 0.51569 0.64779 0.28873 0.0
H1147 H 0.64457 0.7679 0.3347 0.0
H1148 H 0.61571 0.73189 0.32304 0.0
C1149 C 0.49984 0.62787 0.28077 0.0
C1150 C 0.53847 0.67069 0.3133 0.0
H1151 H 0.5533 0.72436 0.32008 0.0
C1152 C 0.55674 0.67176 0.32139 0.0
C1153 C 0.53697 0.68981 0.31323 0.0
C1154 C 0.51715 0.68955 0.30573 0.0
C1155 C 0.57375 0.69148 0.32907 0.0
C1156 C 0.57274 0.71081 0.32831 0.0
C1157 C 0.55424 0.70962 0.32052 0.0
C1158 C 0.59051 0.73243 0.33561 0.0
C1159 C 0.59242 0.69129 0.33815 0.0
C1160 C 0.58591 0.74502 0.34623 0.0
C1161 C 0.60227 0.76577 0.35262 0.0
C1162 C 0.62358 0.77433 0.34855 0.0
C1163 C 0.62827 0.76169 0.33805 0.0
C1164 C 0.61183 0.74101 0.33151 0.0
H1165 H 0.58763 0.6748 0.34163 0.0
H1166 H 0.60588 0.69597 0.33062 0.0
H1167 H 0.59857 0.70301 0.34888 0.0
H1168 H 0.56959 0.73881 0.34955 0.0
H1169 H 0.59818 0.77516 0.36069 0.0
H1170 H 0.40497 0.92542 0.27556 0.0
H1171 H 0.37266 0.92193 0.2866 0.0
H1172 H 0.35579 0.85778 0.29891 0.0
H1173 H 0.38825 0.86135 0.28814 0.0
H1174 H 0.33078 0.89329 0.2779 0.0
H1175 H 0.35045 0.88505 0.33961 0.0
H1176 H 0.37027 0.89372 0.32556 0.0
H1177 H 0.35111 0.86519 0.32613 0.0
C1178 C 0.39439 0.9106 0.28067 0.0
C1179 C 0.39917 0.89368 0.28104 0.0
C1180 C 0.37598 0.90866 0.28701 0.0
C1181 C 0.36198 0.88975 0.29383 0.0
C1182 C 0.36666 0.87277 0.29412 0.0
H1183 H 0.22698 0.84156 0.30608 0.0
H1184 H 0.2618 0.84996 0.29702 0.0
C1185 C 0.38517 0.87479 0.28791 0.0
C1186 C 0.34196 0.88737 0.29996 0.0
H1187 H 0.31361 0.87522 0.33213 0.0
C1188 C 0.32712 0.88953 0.2898 0.0
C1189 C 0.33733 0.88282 0.31557 0.0
C1190 C 0.35324 0.88179 0.3274 0.0
C1191 C 0.3075 0.88664 0.29468 0.0
C1192 C 0.30232 0.88087 0.31 0.0
C1193 C 0.31745 0.87937 0.32032 0.0
C1194 C 0.28115 0.87596 0.31549 0.0
C1195 C 0.29266 0.89003 0.28338 0.0
C1196 C 0.28041 0.88731 0.32918 0.0
C1197 C 0.26046 0.88233 0.33453 0.0
C1198 C 0.24088 0.86589 0.32628 0.0
C1199 C 0.24171 0.85449 0.31262 0.0
C1200 C 0.26164 0.85937 0.30736 0.0
H1201 H 0.30176 0.90088 0.27444 0.0
H1202 H 0.28028 0.87408 0.27709 0.0
H1203 H 0.28414 0.89722 0.28963 0.0
H1204 H 0.29528 0.90009 0.3357 0.0
H1205 H 0.26041 0.89139 0.34511 0.0
H1206 H 0.15464 0.5377 0.31234 0.0
H1207 H 0.16032 0.50956 0.32303 0.0
H1208 H 0.09877 0.45969 0.29927 0.0
H1209 H 0.09293 0.48775 0.28856 0.0
H1210 H 0.13506 0.47731 0.34195 0.0
H1211 H 0.14098 0.44073 0.28472 0.0
H1212 H 0.14256 0.4669 0.28696 0.0
H1213 H 0.11669 0.44222 0.28581 0.0
C1214 C 0.14223 0.52075 0.30949 0.0
C1215 C 0.12339 0.51496 0.29952 0.0
C1216 C 0.14555 0.50469 0.31555 0.0
C1217 C 0.13014 0.48253 0.31173 0.0
C1218 C 0.11111 0.47668 0.30206 0.0
H1219 H 0.12969 0.36515 0.33806 0.0
H1220 H 0.11928 0.39049 0.32767 0.0
C1221 C 0.10779 0.49273 0.29596 0.0
C1222 C 0.13402 0.46562 0.318 0.0
H1223 H 0.14167 0.42312 0.30712 0.0
C1224 C 0.1365 0.46546 0.33434 0.0
C1225 C 0.1358 0.45012 0.30804 0.0
C1226 C 0.13406 0.45003 0.29041 0.0
C1227 C 0.14073 0.45021 0.34099 0.0
C1228 C 0.14286 0.43494 0.33104 0.0
C1229 C 0.13999 0.43484 0.3147 0.0
C1230 C 0.14897 0.41958 0.33737 0.0
C1231 C 0.14275 0.45045 0.35863 0.0
C1232 C 0.16921 0.42755 0.34606 0.0
C1233 C 0.1752 0.41317 0.35191 0.0
C1234 C 0.1611 0.39054 0.34912 0.0
C1235 C 0.14089 0.38253 0.34034 0.0
C1236 C 0.13492 0.39696 0.33443 0.0
H1237 H 0.13501 0.45893 0.36429 0.0
H1238 H 0.13522 0.43361 0.36215 0.0
H1239 H 0.1602 0.45922 0.36315 0.0
H1240 H 0.18046 0.44494 0.3482 0.0
H1241 H 0.19093 0.41979 0.35856 0.0
H1242 H 0.40763 0.51122 0.32261 0.0
H1243 H 0.37108 0.48568 0.32923 0.0
H1244 H 0.34619 0.4758 0.28056 0.0
H1245 H 0.3829 0.50099 0.27385 0.0
H1246 H 0.3332 0.48684 0.32551 0.0
H1247 H 0.32417 0.41372 0.29099 0.0
H1248 H 0.3499 0.43875 0.295 0.0
H1249 H 0.33015 0.43621 0.27973 0.0
C1250 C 0.39433 0.50364 0.31335 0.0
C1251 C 0.39801 0.50814 0.29773 0.0
C1252 C 0.37347 0.48905 0.31713 0.0
C1253 C 0.35594 0.47858 0.30537 0.0
C1254 C 0.35953 0.48334 0.28978 0.0
H1255 H 0.21854 0.38451 0.31004 0.0
H1256 H 0.25338 0.41105 0.30142 0.0
C1257 C 0.38042 0.49786 0.28598 0.0
C1258 C 0.33395 0.46278 0.3095 0.0
H1259 H 0.29331 0.40952 0.3028 0.0
C1260 C 0.32449 0.46993 0.32055 0.0
C1261 C 0.32257 0.44071 0.30301 0.0
C1262 C 0.33226 0.43178 0.29163 0.0
C1263 C 0.30399 0.45565 0.32524 0.0
C1264 C 0.29273 0.43358 0.31885 0.0
C1265 C 0.30199 0.42647 0.30764 0.0
C1266 C 0.27164 0.41747 0.32405 0.0
C1267 C 0.29442 0.46432 0.33691 0.0
C1268 C 0.27046 0.41206 0.33956 0.0
C1269 C 0.25064 0.39686 0.34453 0.0
C1270 C 0.23157 0.38673 0.33405 0.0
C1271 C 0.23287 0.39203 0.31844 0.0
C1272 C 0.25276 0.40719 0.31347 0.0
H1273 H 0.30247 0.48239 0.33775 0.0
H1274 H 0.27674 0.45731 0.33367 0.0
H1275 H 0.29663 0.45961 0.34869 0.0
H1276 H 0.28492 0.41956 0.34784 0.0
H1277 H 0.25029 0.39316 0.35661 0.0
H1278 H 0.50068 0.90185 0.32206 0.0
H1279 H 0.52722 0.89026 0.32784 0.0
H1280 H 0.52411 0.87195 0.27849 0.0
H1281 H 0.49795 0.88409 0.27265 0.0
H1282 H 0.52379 0.85024 0.32227 0.0
H1283 H 0.5889 0.91128 0.29014 0.0
H1284 H 0.56533 0.91305 0.29438 0.0
H1285 H 0.56345 0.89449 0.27838 0.0
C1286 C 0.50561 0.89526 0.31247 0.0
C1287 C 0.49714 0.89362 0.29693 0.0
C1288 C 0.52076 0.88867 0.31577 0.0
C1289 C 0.52784 0.88048 0.30358 0.0
C1290 C 0.51919 0.87859 0.28805 0.0
H1291 H 0.6201 0.83302 0.30771 0.0
H1292 H 0.59185 0.84117 0.29879 0.0
C1293 C 0.50412 0.88531 0.28474 0.0
C1294 C 0.54418 0.87386 0.30725 0.0
H1295 H 0.59539 0.88492 0.30096 0.0
C1296 C 0.53943 0.85781 0.31759 0.0
C1297 C 0.56458 0.88374 0.30111 0.0
C1298 C 0.57102 0.90173 0.2905 0.0
C1299 C 0.55454 0.85145 0.32202 0.0
C1300 C 0.57499 0.86152 0.31604 0.0
C1301 C 0.57963 0.87722 0.30546 0.0
C1302 C 0.59215 0.85673 0.32131 0.0
C1303 C 0.54857 0.83401 0.33307 0.0
C1304 C 0.60184 0.8631 0.33683 0.0
C1305 C 0.61802 0.85863 0.34194 0.0
C1306 C 0.62482 0.84764 0.33161 0.0
C1307 C 0.6152 0.84145 0.31598 0.0
C1308 C 0.59908 0.84609 0.31085 0.0
H1309 H 0.53077 0.82452 0.33379 0.0
H1310 H 0.55422 0.82262 0.3293 0.0
H1311 H 0.55664 0.84178 0.345 0.0
H1312 H 0.59687 0.87158 0.34501 0.0
H1313 H 0.62505 0.86364 0.35404 0.0
H1314 H 0.14792 0.62069 0.33106 0.0
H1315 H 0.15836 0.65929 0.33564 0.0
H1316 H 0.10288 0.64703 0.3045 0.0
H1317 H 0.09246 0.60849 0.29987 0.0
H1318 H 0.16631 0.6901 0.31183 0.0
H1319 H 0.09815 0.67653 0.34678 0.0
H1320 H 0.10652 0.65653 0.34384 0.0
H1321 H 0.09105 0.66016 0.32826 0.0
C1322 C 0.138 0.62631 0.32525 0.0
C1323 C 0.11928 0.61167 0.31529 0.0
C1324 C 0.14396 0.64828 0.32782 0.0
C1325 C 0.13122 0.65589 0.32056 0.0
C1326 C 0.11272 0.64137 0.3104 0.0
H1327 H 0.14008 0.78315 0.33128 0.0
H1328 H 0.1289 0.74506 0.32311 0.0
C1329 C 0.10682 0.61942 0.30775 0.0
C1330 C 0.13737 0.67907 0.32361 0.0
H1331 H 0.12186 0.71259 0.34145 0.0
C1332 C 0.15661 0.69506 0.31829 0.0
C1333 C 0.12457 0.68541 0.33193 0.0
C1334 C 0.10397 0.66884 0.33816 0.0
C1335 C 0.1634 0.71731 0.32105 0.0
C1336 C 0.15088 0.72372 0.32972 0.0
C1337 C 0.13145 0.70766 0.33482 0.0
C1338 C 0.15799 0.74699 0.33411 0.0
C1339 C 0.18376 0.7337 0.31446 0.0
C1340 C 0.17795 0.76065 0.34311 0.0
C1341 C 0.1844 0.78238 0.34768 0.0
C1342 C 0.1709 0.79079 0.34349 0.0
C1343 C 0.15086 0.7771 0.33458 0.0
C1344 C 0.14445 0.75536 0.32994 0.0
H1345 H 0.18746 0.72616 0.30428 0.0
H1346 H 0.1823 0.74764 0.31069 0.0
H1347 H 0.1977 0.7401 0.32364 0.0
H1348 H 0.18841 0.75442 0.34682 0.0
H1349 H 0.19988 0.79253 0.35463 0.0
H1350 H 0.82547 0.06711 0.39612 0.0
H1351 H 0.79757 0.02862 0.38957 0.0
H1352 H 0.84083 0.01912 0.36141 0.0
H1353 H 0.86876 0.05763 0.36793 0.0
H1354 H 0.77908 0.00683 0.35846 0.0
H1355 H 0.82003 0.9696 0.39085 0.0
H1356 H 0.82765 0.99788 0.39486 0.0
H1357 H 0.83637 0.98927 0.37804 0.0
C1358 C 0.82898 0.05676 0.38855 0.0
C1359 C 0.84915 0.06527 0.38241 0.0
C1360 C 0.81309 0.03483 0.38483 0.0
C1361 C 0.81722 0.021 0.37512 0.0
C1362 C 0.83743 0.02945 0.3691 0.0
H1363 H 0.74612 0.8865 0.33547 0.0
H1364 H 0.77305 0.92461 0.34407 0.0
C1365 C 0.85329 0.0514 0.37274 0.0
C1366 C 0.80015 0.99792 0.37086 0.0
H1367 H 0.78847 0.94556 0.37374 0.0
C1368 C 0.78102 0.9934 0.36188 0.0
C1369 C 0.80281 0.98049 0.37532 0.0
C1370 C 0.82273 0.98445 0.38541 0.0
C1371 C 0.76469 0.97187 0.35684 0.0
C1372 C 0.76738 0.95439 0.36124 0.0
C1373 C 0.78644 0.95895 0.37038 0.0
C1374 C 0.75089 0.93128 0.35615 0.0
C1375 C 0.74506 0.96808 0.34644 0.0
C1376 C 0.72952 0.92227 0.36022 0.0
C1377 C 0.71406 0.90054 0.35519 0.0
C1378 C 0.71979 0.88737 0.3462 0.0
C1379 C 0.74124 0.8963 0.34234 0.0
C1380 C 0.75665 0.91804 0.34729 0.0
H1381 H 0.74815 0.98292 0.34082 0.0
H1382 H 0.7401 0.95452 0.33709 0.0
H1383 H 0.73131 0.96367 0.35364 0.0
H1384 H 0.72482 0.93203 0.36733 0.0
H1385 H 0.69765 0.89405 0.35836 0.0
H1386 H 0.95775 0.76607 0.41748 0.0
H1387 H 0.9947 0.77872 0.41036 0.0
H1388 H 0.98109 0.80474 0.36979 0.0
H1389 H 0.94424 0.7923 0.377 0.0
H1390 H 0.00589 0.76617 0.38269 0.0
H1391 H 0.03922 0.85561 0.39009 0.0
H1392 H 0.0147 0.83664 0.39815 0.0
H1393 H 0.01403 0.84083 0.3777 0.0
C1394 C 0.96276 0.77458 0.40709 0.0
C1395 C 0.94816 0.77795 0.39763 0.0
C1396 C 0.98381 0.7818 0.40305 0.0
C1397 C 0.99069 0.7928 0.38961 0.0
C1398 C 0.97624 0.79658 0.38033 0.0
H1399 H 0.09582 0.80741 0.33656 0.0
H1400 H 0.0608 0.79745 0.34613 0.0
C1401 C 0.95518 0.78935 0.38438 0.0
C1402 C 0.0126 0.79934 0.38487 0.0
H1403 H 0.06015 0.84315 0.37701 0.0
C1404 C 0.0178 0.78301 0.38153 0.0
C1405 C 0.02819 0.82134 0.38353 0.0
C1406 C 0.02389 0.83966 0.38769 0.0
C1407 C 0.03801 0.78804 0.37654 0.0
C1408 C 0.0533 0.80994 0.37463 0.0
C1409 C 0.04831 0.82634 0.37832 0.0
C1410 C 0.07457 0.81614 0.3688 0.0
C1411 C 0.04292 0.76988 0.3735 0.0
C1412 C 0.09394 0.83035 0.37824 0.0
C1413 C 0.11402 0.83616 0.37279 0.0
C1414 C 0.11509 0.82796 0.35773 0.0
C1415 C 0.09562 0.81392 0.34824 0.0
C1416 C 0.07556 0.80812 0.35372 0.0
H1417 H 0.03206 0.75528 0.37934 0.0
H1418 H 0.04042 0.76499 0.36069 0.0
H1419 H 0.06004 0.77529 0.37768 0.0
H1420 H 0.09352 0.8368 0.38989 0.0
H1421 H 0.12867 0.84706 0.3804 0.0
H1422 H 0.25783 0.19862 0.39501 0.0
H1423 H 0.24697 0.22553 0.38947 0.0
H1424 H 0.18899 0.17531 0.36187 0.0
H1425 H 0.19984 0.14836 0.36739 0.0
H1426 H 0.23839 0.23595 0.35876 0.0
H1427 H 0.16689 0.20522 0.39297 0.0
H1428 H 0.18773 0.19807 0.39613 0.0
H1429 H 0.16736 0.18498 0.37968 0.0
C1430 C 0.24275 0.19336 0.3878 0.0
C1431 C 0.22965 0.17148 0.38157 0.0
C1432 C 0.23657 0.20871 0.38465 0.0
C1433 C 0.21708 0.20235 0.37541 0.0
C1434 C 0.20393 0.18047 0.36923 0.0
H1435 H 0.1488 0.26398 0.33826 0.0
H1436 H 0.16099 0.23919 0.34668 0.0
C1437 C 0.21016 0.16515 0.37231 0.0
C1438 C 0.21084 0.21872 0.37174 0.0
H1439 H 0.17168 0.23229 0.37613 0.0
C1440 C 0.22391 0.2353 0.36265 0.0
C1441 C 0.19192 0.21773 0.37682 0.0
C1442 C 0.17771 0.20067 0.38705 0.0
C1443 C 0.2182 0.25058 0.35806 0.0
C1444 C 0.19916 0.24951 0.36304 0.0
C1445 C 0.18627 0.23309 0.37233 0.0
C1446 C 0.19187 0.26477 0.35825 0.0
C1447 C 0.23218 0.26721 0.34747 0.0
C1448 C 0.20506 0.28738 0.36214 0.0
C1449 C 0.19819 0.30159 0.35721 0.0
C1450 C 0.17791 0.29339 0.34851 0.0
C1451 C 0.16456 0.27075 0.34491 0.0
C1452 C 0.17147 0.25658 0.34975 0.0
H1453 H 0.24276 0.26235 0.34153 0.0
H1454 H 0.22206 0.26964 0.33837 0.0
H1455 H 0.24283 0.28306 0.35459 0.0
H1456 H 0.22066 0.29403 0.36898 0.0
H1457 H 0.2088 0.31898 0.36015 0.0
H1458 H 0.63658 0.50659 0.76098 0.0
H1459 H 0.66963 0.53544 0.75178 0.0
H1460 H 0.63505 0.52542 0.7063 0.0
H1461 H 0.60176 0.49687 0.71552 0.0
H1462 H 0.69138 0.53191 0.72612 0.0
H1463 H 0.66381 0.5917 0.71833 0.0
H1464 H 0.65014 0.56884 0.72969 0.0
H1465 H 0.64599 0.56482 0.70862 0.0
C1466 C 0.63592 0.51069 0.74908 0.0
C1467 C 0.61648 0.4995 0.73902 0.0
C1468 C 0.65486 0.52709 0.74381 0.0
C1469 C 0.65472 0.53277 0.72843 0.0
C1470 C 0.63542 0.52154 0.7183 0.0
H1471 H 0.75409 0.62761 0.67596 0.0
H1472 H 0.72024 0.59946 0.68474 0.0
C1473 C 0.61647 0.50507 0.72354 0.0
C1474 C 0.67494 0.55008 0.72292 0.0
H1475 H 0.69779 0.60043 0.70957 0.0
C1476 C 0.69282 0.54693 0.72254 0.0
C1477 C 0.67672 0.5696 0.71819 0.0
C1478 C 0.65823 0.57412 0.71882 0.0
C1479 C 0.71239 0.56266 0.71739 0.0
C1480 C 0.71428 0.58231 0.71282 0.0
C1481 C 0.69633 0.58539 0.7131 0.0
C1482 C 0.73475 0.59985 0.70772 0.0
C1483 C 0.73069 0.55786 0.71655 0.0
C1484 C 0.75408 0.60978 0.71785 0.0
C1485 C 0.77347 0.62581 0.71286 0.0
C1486 C 0.7739 0.63243 0.69768 0.0
C1487 C 0.75437 0.6229 0.68772 0.0
C1488 C 0.735 0.60679 0.69271 0.0
H1489 H 0.72471 0.5401 0.71617 0.0
H1490 H 0.73942 0.56406 0.70606 0.0
H1491 H 0.74244 0.56603 0.72716 0.0
H1492 H 0.75418 0.60508 0.72963 0.0
H1493 H 0.78813 0.63293 0.72091 0.0
H1494 H 0.51941 0.13446 0.7649 0.0
H1495 H 0.49088 0.14055 0.75351 0.0
H1496 H 0.49045 0.10873 0.70902 0.0
H1497 H 0.51872 0.1021 0.72044 0.0
H1498 H 0.49148 0.16326 0.72711 0.0
H1499 H 0.42612 0.07613 0.71842 0.0
H1500 H 0.45095 0.08553 0.73101 0.0
H1501 H 0.4509 0.08255 0.71008 0.0
C1502 C 0.51312 0.12858 0.75272 0.0
C1503 C 0.52117 0.1176 0.74361 0.0
C1504 C 0.49693 0.1322 0.74621 0.0
C1505 C 0.48835 0.12481 0.7305 0.0
C1506 C 0.49662 0.11424 0.72125 0.0
H1507 H 0.38412 0.12991 0.67589 0.0
H1508 H 0.41332 0.12321 0.68469 0.0
C1509 C 0.5129 0.11066 0.72774 0.0
C1510 C 0.47084 0.12837 0.72389 0.0
H1511 H 0.41726 0.10186 0.70963 0.0
C1512 C 0.47525 0.14986 0.72326 0.0
C1513 C 0.44973 0.11082 0.71884 0.0
C1514 C 0.44398 0.08743 0.71969 0.0
C1515 C 0.45911 0.1543 0.71768 0.0
C1516 C 0.43786 0.13676 0.71294 0.0
C1517 C 0.43354 0.11526 0.71333 0.0
C1518 C 0.41983 0.14043 0.70778 0.0
C1519 C 0.46503 0.17773 0.71673 0.0
C1520 C 0.41348 0.15193 0.71797 0.0
C1521 C 0.39684 0.15584 0.71298 0.0
C1522 C 0.38607 0.14814 0.69773 0.0
C1523 C 0.39208 0.13611 0.6877 0.0
C1524 C 0.40878 0.13226 0.69269 0.0
H1525 H 0.48281 0.18855 0.71648 0.0
H1526 H 0.45648 0.1794 0.70613 0.0
H1527 H 0.46019 0.18346 0.72723 0.0
H1528 H 0.42144 0.15792 0.7298 0.0
H1529 H 0.39254 0.16502 0.72107 0.0
H1530 H 0.87315 0.38719 0.75202 0.0
H1531 H 0.86694 0.35239 0.74016 0.0
H1532 H 0.8844 0.37953 0.69606 0.0
H1533 H 0.89235 0.41501 0.70818 0.0
H1534 H 0.83896 0.32537 0.71771 0.0
H1535 H 0.92097 0.35186 0.69963 0.0
H1536 H 0.91538 0.36931 0.7122 0.0
H1537 H 0.90915 0.36656 0.69124 0.0
C1538 C 0.87622 0.38602 0.73989 0.0
C1539 C 0.88362 0.40416 0.73117 0.0
C1540 C 0.87239 0.36595 0.73306 0.0
C1541 C 0.87559 0.36336 0.71728 0.0
C1542 C 0.8824 0.38122 0.70838 0.0
H1543 H 0.81839 0.23534 0.66464 0.0
H1544 H 0.82682 0.27139 0.67594 0.0
C1545 C 0.88658 0.40146 0.71528 0.0
C1546 C 0.87109 0.34174 0.71014 0.0
H1547 H 0.89302 0.31606 0.68964 0.0
C1548 C 0.85085 0.32335 0.71164 0.0
C1549 C 0.8867 0.33897 0.70244 0.0
C1550 C 0.90934 0.35769 0.70142 0.0
C1551 C 0.84571 0.30238 0.70559 0.0
C1552 C 0.86092 0.29975 0.69724 0.0
C1553 C 0.88125 0.31809 0.69587 0.0
C1554 C 0.85613 0.2781 0.68997 0.0
C1555 C 0.82425 0.28322 0.70862 0.0
C1556 C 0.8703 0.27022 0.69352 0.0
C1557 C 0.86577 0.24982 0.68675 0.0
C1558 C 0.84686 0.23683 0.67648 0.0
C1559 C 0.83291 0.24487 0.67272 0.0
C1560 C 0.83763 0.26541 0.67927 0.0
H1561 H 0.81793 0.28705 0.71915 0.0
H1562 H 0.81211 0.27918 0.69842 0.0
H1563 H 0.82569 0.26862 0.71036 0.0
H1564 H 0.88479 0.27979 0.70162 0.0
H1565 H 0.87701 0.24418 0.68962 0.0
H1566 H 0.1552 0.93174 0.64372 0.0
H1567 H 0.18269 0.96677 0.65771 0.0
H1568 H 0.19015 0.9972 0.6147 0.0
H1569 H 0.16197 0.9627 0.60086 0.0
H1570 H 0.22496 0.99229 0.65357 0.0
H1571 H 0.18226 0.03832 0.64398 0.0
H1572 H 0.16884 0.00907 0.63997 0.0
H1573 H 0.18509 0.02645 0.6259 0.0
C1574 C 0.16238 0.94597 0.6373 0.0
C1575 C 0.15628 0.94434 0.62115 0.0
C1576 C 0.17825 0.96595 0.64529 0.0
C1577 C 0.18829 0.98471 0.63732 0.0
C1578 C 0.18233 0.9831 0.6212 0.0
H1579 H 0.31138 0.10356 0.66712 0.0
H1580 H 0.28271 0.06754 0.65526 0.0
C1581 C 0.16639 0.96322 0.61324 0.0
C1582 C 0.2054 0.00586 0.6457 0.0
H1583 H 0.22008 0.05943 0.65284 0.0
C1584 C 0.22383 0.00695 0.65353 0.0
C1585 C 0.2038 0.02493 0.64584 0.0
C1586 C 0.18383 0.02462 0.63862 0.0
C1587 C 0.2409 0.02667 0.66119 0.0
C1588 C 0.23975 0.04595 0.66066 0.0
C1589 C 0.22111 0.04473 0.6531 0.0
C1590 C 0.25745 0.06753 0.66807 0.0
C1591 C 0.25976 0.02652 0.66999 0.0
C1592 C 0.25274 0.0798 0.6789 0.0
C1593 C 0.26897 0.10053 0.6854 0.0
C1594 C 0.29027 0.10941 0.68124 0.0
C1595 C 0.29509 0.09709 0.67053 0.0
C1596 C 0.27876 0.07641 0.66388 0.0
H1597 H 0.25517 0.00998 0.67329 0.0
H1598 H 0.27314 0.03147 0.66236 0.0
H1599 H 0.26594 0.03806 0.68082 0.0
H1600 H 0.23644 0.07336 0.68229 0.0
H1601 H 0.26478 0.10966 0.69362 0.0
H1602 H 0.0534 0.19357 0.62117 0.0
H1603 H 0.02032 0.18893 0.63161 0.0
H1604 H 0.03636 0.2532 0.62013 0.0
H1605 H 0.0692 0.25772 0.60935 0.0
H1606 H 0.01389 0.21092 0.65518 0.0
H1607 H 0.97532 0.21717 0.59917 0.0
H1608 H 0.99918 0.21448 0.60012 0.0
H1609 H 1.00156 0.24058 0.60508 0.0
C1610 C 0.04987 0.20672 0.62091 0.0
C1611 C 0.06377 0.22594 0.61433 0.0
C1612 C 0.03097 0.20405 0.62686 0.0
C1613 C 0.02563 0.22055 0.62639 0.0
C1614 C 0.0398 0.24 0.62021 0.0
H1615 H 0.92548 0.22292 0.67957 0.0
H1616 H 0.96014 0.2304 0.6704 0.0
C1617 C 0.05859 0.24259 0.61411 0.0
C1618 C 0.00525 0.21734 0.63243 0.0
H1619 H 0.95795 0.2166 0.62198 0.0
C1620 C 1.00163 0.21213 0.64792 0.0
C1621 C 0.98913 0.21864 0.62288 0.0
C1622 C 0.99134 0.2228 0.60585 0.0
C1623 C 0.98238 0.20822 0.65414 0.0
C1624 C 0.96654 0.21014 0.64473 0.0
C1625 C 0.97017 0.21534 0.62924 0.0
C1626 C 0.94564 0.20587 0.65042 0.0
C1627 C 0.97894 0.20141 0.67055 0.0
C1628 C 0.92595 0.19008 0.642 0.0
C1629 C 0.90616 0.18603 0.64706 0.0
C1630 C 0.90559 0.19764 0.66071 0.0
C1631 C 0.92533 0.21354 0.6691 0.0
C1632 C 0.94517 0.21774 0.66393 0.0
H1633 H 0.98954 0.19487 0.67441 0.0
H1634 H 0.98302 0.2158 0.67883 0.0
H1635 H 0.96178 0.1888 0.67134 0.0
H1636 H 0.92588 0.18076 0.63152 0.0
H1637 H 0.8913 0.17365 0.64029 0.0
H1638 H 0.81599 0.8524 0.61424 0.0
H1639 H 0.82144 0.82446 0.62551 0.0
H1640 H 0.78225 0.8223 0.66252 0.0
H1641 H 0.77728 0.85076 0.6515 0.0
H1642 H 0.81725 0.82231 0.67414 0.0
H1643 H 0.77988 0.76031 0.62279 0.0
H1644 H 0.80161 0.78552 0.6177 0.0
H1645 H 0.77764 0.78451 0.62427 0.0
C1646 C 0.80843 0.84585 0.62473 0.0
C1647 C 0.79611 0.85365 0.63195 0.0
C1648 C 0.81144 0.82978 0.6311 0.0
C1649 C 0.80182 0.82085 0.64465 0.0
C1650 C 0.78971 0.82882 0.652 0.0
H1651 H 0.79661 0.7032 0.67552 0.0
H1652 H 0.78724 0.7294 0.66548 0.0
C1653 C 0.78693 0.84511 0.64573 0.0
C1654 C 0.80502 0.80375 0.65145 0.0
H1655 H 0.80141 0.75455 0.64234 0.0
C1656 C 0.8136 0.80741 0.66722 0.0
C1657 C 0.79987 0.78407 0.64254 0.0
C1658 C 0.78902 0.77825 0.62595 0.0
C1659 C 0.81776 0.79228 0.67416 0.0
C1660 C 0.81389 0.77325 0.66496 0.0
C1661 C 0.8047 0.76927 0.64934 0.0
C1662 C 0.81949 0.75741 0.67124 0.0
C1663 C 0.82598 0.79675 0.69137 0.0
C1664 C 0.84078 0.76434 0.6776 0.0
C1665 C 0.84606 0.74946 0.6835 0.0
C1666 C 0.83027 0.72729 0.68286 0.0
C1667 C 0.80908 0.72023 0.67619 0.0
C1668 C 0.80373 0.73518 0.67045 0.0
H1669 H 0.82127 0.8076 0.6977 0.0
H1670 H 0.81963 0.78142 0.6971 0.0
H1671 H 0.84398 0.8051 0.6926 0.0
H1672 H 0.85339 0.78125 0.6779 0.0
H1673 H 0.86259 0.75529 0.68839 0.0
H1674 H 0.06833 0.81445 0.62704 0.0
H1675 H 0.03173 0.78878 0.63341 0.0
H1676 H 0.01845 0.84151 0.63982 0.0
H1677 H 0.05534 0.86733 0.63391 0.0
H1678 H 0.00571 0.81623 0.66327 0.0
H1679 H 0.97435 0.76353 0.60693 0.0
H1680 H 0.99903 0.76572 0.61543 0.0
H1681 H 0.99922 0.78954 0.60917 0.0
C1682 C 0.05747 0.82048 0.62959 0.0
C1683 C 0.06445 0.84278 0.62955 0.0
C1684 C 0.03652 0.8058 0.63315 0.0
C1685 C 0.0221 0.8131 0.6367 0.0
C1686 C 0.02917 0.83544 0.63691 0.0
H1687 H 0.88395 0.72611 0.64478 0.0
H1688 H 0.91875 0.75274 0.63621 0.0
C1689 C 0.05019 0.85016 0.63346 0.0
C1690 C 1.00007 0.79763 0.64101 0.0
H1691 H 0.95357 0.74957 0.62862 0.0
C1692 C 0.99425 0.80174 0.65563 0.0
C1693 C 0.98496 0.77888 0.63096 0.0
C1694 C 0.9896 0.77425 0.61468 0.0
C1695 C 0.97401 0.78737 0.66065 0.0
C1696 C 0.95936 0.76805 0.65095 0.0
C1697 C 0.96491 0.76423 0.63614 0.0
C1698 C 0.93827 0.75156 0.65602 0.0
C1699 C 0.96843 0.79322 0.67622 0.0
C1700 C 0.93767 0.74168 0.66982 0.0
C1701 C 0.91782 0.72657 0.67481 0.0
C1702 C 0.89813 0.72078 0.66598 0.0
C1703 C 0.89879 0.73023 0.6519 0.0
C1704 C 0.91867 0.74546 0.64697 0.0
H1705 H 0.97813 0.81104 0.67981 0.0
H1706 H 0.95092 0.78804 0.67578 0.0
H1707 H 0.97213 0.78483 0.68539 0.0
H1708 H 0.95258 0.74567 0.67677 0.0
H1709 H 0.91796 0.71947 0.68562 0.0
H1710 H 0.16634 0.23675 0.65642 0.0
H1711 H 0.19346 0.22595 0.66235 0.0
H1712 H 0.19066 0.20744 0.61309 0.0
H1713 H 0.16392 0.21881 0.60709 0.0
H1714 H 0.19087 0.18632 0.65705 0.0
H1715 H 0.25529 0.24767 0.62465 0.0
H1716 H 0.23145 0.24898 0.62879 0.0
H1717 H 0.22993 0.23047 0.6129 0.0
C1718 C 0.17147 0.23029 0.64688 0.0
C1719 C 0.16289 0.22835 0.63132 0.0
C1720 C 0.18695 0.22415 0.65027 0.0
C1721 C 0.19429 0.21614 0.63815 0.0
C1722 C 0.18555 0.21396 0.62259 0.0
H1723 H 0.28754 0.17012 0.64184 0.0
H1724 H 0.25926 0.17833 0.63316 0.0
C1725 C 0.17015 0.22023 0.61919 0.0
C1726 C 0.21094 0.20994 0.6419 0.0
H1727 H 0.26229 0.22162 0.63549 0.0
C1728 C 0.20648 0.19405 0.65233 0.0
C1729 C 0.2313 0.22001 0.63571 0.0
C1730 C 0.23742 0.23787 0.62501 0.0
C1731 C 0.22183 0.18798 0.65675 0.0
C1732 C 0.24222 0.19821 0.6507 0.0
C1733 C 0.24658 0.2138 0.64006 0.0
C1734 C 0.25954 0.19355 0.65582 0.0
C1735 C 0.21613 0.17063 0.66785 0.0
C1736 C 0.26926 0.19975 0.67134 0.0
C1737 C 0.28546 0.19523 0.67632 0.0
C1738 C 0.29225 0.18438 0.66585 0.0
C1739 C 0.28265 0.17844 0.65022 0.0
C1740 C 0.26652 0.18311 0.64523 0.0
H1741 H 0.19835 0.16097 0.66863 0.0
H1742 H 0.22195 0.15937 0.66409 0.0
H1743 H 0.22422 0.1785 0.67977 0.0
H1744 H 0.26427 0.20809 0.67962 0.0
H1745 H 0.29248 0.20006 0.68843 0.0
H1746 H 0.79763 0.9491 0.67194 0.0
H1747 H 0.80758 0.98731 0.67805 0.0
H1748 H 0.787 0.98936 0.63017 0.0
H1749 H 0.77676 0.95104 0.62412 0.0
H1750 H 0.83713 0.02425 0.66482 0.0
H1751 H 0.75382 0.01169 0.65534 0.0
H1752 H 0.75889 0.98942 0.65727 0.0
H1753 H 0.76202 1.00146 0.63906 0.0
C1754 C 0.79509 0.95771 0.66279 0.0
C1755 C 0.786 0.94709 0.64766 0.0
C1756 C 0.80082 0.9795 0.66626 0.0
C1757 C 0.79761 0.99105 0.65465 0.0
C1758 C 0.78909 0.98061 0.63941 0.0
H1759 H 0.82393 0.12509 0.65628 0.0
H1760 H 0.81393 0.08729 0.64828 0.0
C1761 C 0.78334 0.95881 0.63594 0.0
C1762 C 0.80356 0.01412 0.65848 0.0
H1763 H 0.78273 0.04822 0.66017 0.0
C1764 C 0.82523 0.02949 0.66383 0.0
C1765 C 0.78802 0.02093 0.65713 0.0
C1766 C 0.76434 0.00502 0.65202 0.0
C1767 C 0.83182 0.0515 0.66778 0.0
C1768 C 0.81625 0.05826 0.66659 0.0
C1769 C 0.79463 0.04297 0.66106 0.0
C1770 C 0.82199 0.08104 0.6714 0.0
C1771 C 0.85546 0.06742 0.67301 0.0
C1772 C 0.82947 0.08992 0.68707 0.0
C1773 C 0.83505 0.11143 0.69162 0.0
C1774 C 0.83314 0.12441 0.68061 0.0
C1775 C 0.82539 0.11542 0.66499 0.0
C1776 C 0.81975 0.09386 0.66042 0.0
H1777 H 0.86606 0.06096 0.66941 0.0
H1778 H 0.86084 0.08323 0.66811 0.0
H1779 H 0.85774 0.07049 0.68601 0.0
H1780 H 0.83095 0.08019 0.6958 0.0
H1781 H 0.84093 0.11791 0.70377 0.0
H1782 H 0.4905 0.4083 0.71436 0.0
H1783 H 0.46177 0.37011 0.70807 0.0
H1784 H 0.50945 0.34992 0.71297 0.0
H1785 H 0.53828 0.38809 0.71911 0.0
H1786 H 0.46068 0.34055 0.68232 0.0
H1787 H 0.46049 0.31114 0.74104 0.0
H1788 H 0.47141 0.33965 0.73841 0.0
H1789 H 0.48663 0.32652 0.73386 0.0
C1790 C 0.49479 0.39567 0.71431 0.0
C1791 C 0.51653 0.40111 0.71766 0.0
C1792 C 0.4784 0.37392 0.71068 0.0
C1793 C 0.48346 0.3572 0.71034 0.0
C1794 C 0.50518 0.36256 0.71351 0.0
H1795 H 0.41281 0.22365 0.66919 0.0
H1796 H 0.43953 0.26184 0.67789 0.0
C1797 C 0.5216 0.38434 0.71702 0.0
C1798 C 0.46616 0.33426 0.70592 0.0
H1799 H 0.43912 0.28437 0.71982 0.0
C1800 C 0.45589 0.32828 0.69053 0.0
C1801 C 0.45989 0.31836 0.71669 0.0
C1802 C 0.47001 0.32416 0.73348 0.0
C1803 C 0.43982 0.30665 0.68553 0.0
C1804 C 0.4339 0.29067 0.6962 0.0
C1805 C 0.44381 0.2967 0.71168 0.0
C1806 C 0.41777 0.2675 0.69128 0.0
C1807 C 0.42925 0.30093 0.66887 0.0
C1808 C 0.39678 0.25807 0.69608 0.0
C1809 C 0.38141 0.23629 0.69102 0.0
C1810 C 0.38694 0.22362 0.68125 0.0
C1811 C 0.40808 0.23305 0.67668 0.0
C1812 C 0.42335 0.25483 0.68162 0.0
H1813 H 0.43319 0.31567 0.66281 0.0
H1814 H 0.43498 0.29125 0.66219 0.0
H1815 H 0.41133 0.29076 0.66866 0.0
H1816 H 0.39222 0.26764 0.70355 0.0
H1817 H 0.36521 0.22943 0.69469 0.0
H1818 H 0.60047 0.09768 0.70338 0.0
H1819 H 0.63672 0.10876 0.69552 0.0
H1820 H 0.66371 0.12917 0.74393 0.0
H1821 H 0.62735 0.11755 0.75185 0.0
H1822 H 0.67371 0.14881 0.69918 0.0
H1823 H 0.68718 0.08989 0.73067 0.0
H1824 H 0.6609 0.08775 0.72786 0.0
H1825 H 0.68096 0.10679 0.74313 0.0
C1826 C 0.61417 0.10455 0.71232 0.0
C1827 C 0.61121 0.10693 0.7282 0.0
C1828 C 0.63484 0.11086 0.70783 0.0
C1829 C 0.65288 0.11951 0.71915 0.0
C1830 C 0.64997 0.12211 0.73502 0.0
H1831 H 0.79111 0.17237 0.71383 0.0
H1832 H 0.75514 0.16109 0.72218 0.0
C1833 C 0.62928 0.11568 0.73952 0.0
C1834 C 0.67476 0.12612 0.71428 0.0
H1835 H 0.71743 0.11716 0.71943 0.0
C1836 C 0.68322 0.14182 0.70355 0.0
C1837 C 0.68716 0.11697 0.72 0.0
C1838 C 0.67854 0.09927 0.73094 0.0
C1839 C 0.70386 0.14883 0.69856 0.0
C1840 C 0.71625 0.13974 0.70432 0.0
C1841 C 0.70787 0.12411 0.71508 0.0
C1842 C 0.73793 0.14618 0.69924 0.0
C1843 C 0.71243 0.16617 0.68734 0.0
C1844 C 0.74009 0.1412 0.68362 0.0
C1845 C 0.76059 0.14753 0.6788 0.0
C1846 C 0.77935 0.159 0.68952 0.0
C1847 C 0.77705 0.16366 0.70523 0.0
C1848 C 0.75651 0.15721 0.71005 0.0
H1849 H 0.70306 0.1748 0.68669 0.0
H1850 H 0.7298 0.17833 0.6909 0.0
H1851 H 0.71122 0.15846 0.67541 0.0
H1852 H 0.72588 0.13241 0.67516 0.0
H1853 H 0.76172 0.14362 0.66662 0.0
H1854 H 0.91182 0.51532 0.69842 0.0
H1855 H 0.90172 0.54205 0.69088 0.0
H1856 H 0.85967 0.52605 0.72802 0.0
H1857 H 0.8704 0.49998 0.73597 0.0
H1858 H 0.86348 0.53713 0.68051 0.0
H1859 H 0.89422 0.59126 0.73625 0.0
H1860 H 0.90047 0.56994 0.73205 0.0
H1861 H 0.87485 0.56361 0.739 0.0
C1862 C 0.90034 0.51747 0.7049 0.0
C1863 C 0.89152 0.5052 0.71752 0.0
C1864 C 0.89461 0.53276 0.70063 0.0
C1865 C 0.8801 0.53626 0.70898 0.0
C1866 C 0.87121 0.52397 0.72158 0.0
H1867 H 0.81059 0.59904 0.67326 0.0
H1868 H 0.82132 0.57321 0.68183 0.0
C1869 C 0.87712 0.50884 0.72597 0.0
C1870 C 0.87398 0.55243 0.70425 0.0
H1871 H 0.87207 0.59753 0.71783 0.0
C1872 C 0.86545 0.55039 0.68866 0.0
C1873 C 0.87688 0.56996 0.71481 0.0
C1874 C 0.88731 0.574 0.73141 0.0
C1875 C 0.85944 0.56516 0.6834 0.0
C1876 C 0.86144 0.58212 0.69413 0.0
C1877 C 0.87029 0.58438 0.70966 0.0
C1878 C 0.85469 0.59783 0.68943 0.0
C1879 C 0.85148 0.5627 0.66629 0.0
C1880 C 0.86962 0.62035 0.69142 0.0
C1881 C 0.86341 0.63516 0.68675 0.0
C1882 C 0.84218 0.62768 0.67998 0.0
C1883 C 0.82715 0.60521 0.67827 0.0
C1884 C 0.8333 0.59044 0.68307 0.0
H1885 H 0.85706 0.55344 0.65891 0.0
H1886 H 0.83346 0.55356 0.66489 0.0
H1887 H 0.85718 0.57883 0.66181 0.0
H1888 H 0.88617 0.62645 0.6964 0.0
H1889 H 0.8753 0.65242 0.68825 0.0
H1890 H 0.48102 0.93222 0.24264 0.0
H1891 H 0.48902 0.94472 0.21664 0.0
H1892 H 0.4207 0.9083 0.20049 0.0
H1893 H 0.4126 0.89495 0.22629 0.0
H1894 H 0.44544 0.90277 0.17962 0.0
H1895 H 0.4794 0.99068 0.19783 0.0
H1896 H 0.49268 0.979 0.20867 0.0
H1897 H 0.46448 0.96981 0.21044 0.0
C1898 C 0.46768 0.92672 0.23353 0.0
C1899 C 0.44615 0.91261 0.23658 0.0
C1900 C 0.47227 0.93412 0.21873 0.0
C1901 C 0.45542 0.92776 0.20672 0.0
C1902 C 0.43393 0.91355 0.20965 0.0
H1903 H 0.47399 0.98987 0.11977 0.0
H1904 H 0.46132 0.97544 0.14467 0.0
C1905 C 0.42932 0.90608 0.22444 0.0
C1906 C 0.4603 0.93548 0.19097 0.0
H1907 H 0.48532 0.98148 0.1721 0.0
C1908 C 0.45403 0.91997 0.17794 0.0
C1909 C 0.47118 0.95792 0.18878 0.0
C1910 C 0.47714 0.97531 0.20214 0.0
C1911 C 0.45888 0.92631 0.16282 0.0
C1912 C 0.47071 0.94877 0.16076 0.0
C1913 C 0.47645 0.96426 0.17372 0.0
C1914 C 0.47757 0.95662 0.1453 0.0
C1915 C 0.45107 0.90888 0.1492 0.0
C1916 C 0.49098 0.9509 0.13742 0.0
C1917 C 0.49818 0.95906 0.12318 0.0
C1918 C 0.49234 0.97334 0.11666 0.0
C1919 C 0.4789 0.97904 0.12457 0.0
C1920 C 0.47159 0.97076 0.13876 0.0
H1921 H 0.43704 0.8933 0.15188 0.0
H1922 H 0.44624 0.91405 0.13845 0.0
H1923 H 0.4644 0.90572 0.14673 0.0
H1924 H 0.49627 0.94049 0.14245 0.0
H1925 H 0.50882 0.95468 0.1175 0.0
H1926 H 0.12077 0.5281 0.24514 0.0
H1927 H 0.10826 0.52393 0.21729 0.0
H1928 H 0.0691 0.55241 0.22855 0.0
H1929 H 0.08109 0.55623 0.25645 0.0
H1930 H 0.06355 0.50101 0.2024 0.0
H1931 H 0.10798 0.58955 0.19508 0.0
H1932 H 0.11482 0.57834 0.21137 0.0
H1933 H 0.09163 0.58195 0.21125 0.0
C1934 C 0.1093 0.53326 0.24173 0.0
C1935 C 0.10198 0.54257 0.25304 0.0
C1936 C 0.10228 0.53097 0.22581 0.0
C1937 C 0.088 0.53812 0.22089 0.0
C1938 C 0.08043 0.54715 0.23212 0.0
H1939 H 0.02868 0.54559 0.13288 0.0
H1940 H 0.04153 0.54749 0.16024 0.0
C1941 C 0.08735 0.54937 0.24804 0.0
C1942 C 0.08091 0.53606 0.20401 0.0
H1943 H 0.08318 0.56593 0.17372 0.0
C1944 C 0.06791 0.51516 0.19606 0.0
C1945 C 0.08666 0.55459 0.19585 0.0
C1946 C 0.10119 0.57741 0.20374 0.0
C1947 C 0.05996 0.51228 0.18021 0.0
C1948 C 0.06561 0.53083 0.17205 0.0
C1949 C 0.07885 0.55173 0.17999 0.0
C1950 C 0.0575 0.52903 0.15539 0.0
C1951 C 0.04502 0.48943 0.1725 0.0
C1952 C 0.06236 0.51814 0.14354 0.0
C1953 C 0.05477 0.51675 0.12785 0.0
C1954 C 0.04235 0.52642 0.12372 0.0
C1955 C 0.03781 0.53756 0.13565 0.0
C1956 C 0.0453 0.53884 0.1513 0.0
H1957 H 0.03784 0.47756 0.1813 0.0
H1958 H 0.03163 0.48867 0.16469 0.0
H1959 H 0.0544 0.4843 0.16528 0.0
H1960 H 0.07214 0.51083 0.14639 0.0
H1961 H 0.05848 0.50796 0.11899 0.0
H1962 H 0.49855 0.56858 0.24523 0.0
H1963 H 0.50457 0.56184 0.21825 0.0
H1964 H 0.43645 0.53502 0.20371 0.0
H1965 H 0.43043 0.54262 0.23057 0.0
H1966 H 0.4876 0.52405 0.19859 0.0
H1967 H 0.46478 0.58116 0.17366 0.0
H1968 H 0.46936 0.58074 0.19451 0.0
H1969 H 0.44419 0.5604 0.18373 0.0
C1970 C 0.48486 0.56146 0.23627 0.0
C1971 C 0.46405 0.55643 0.24004 0.0
C1972 C 0.48831 0.55745 0.22088 0.0
C1973 C 0.47104 0.5483 0.20891 0.0
C1974 C 0.4501 0.54253 0.21269 0.0
H1975 H 0.47273 0.52151 0.10805 0.0
H1976 H 0.46079 0.52225 0.13416 0.0
C1977 C 0.44664 0.54664 0.2281 0.0
C1978 C 0.47518 0.54504 0.19249 0.0
H1979 H 0.47354 0.56085 0.1558 0.0
C1980 C 0.48446 0.53204 0.18923 0.0
C1981 C 0.47106 0.55547 0.18028 0.0
C1982 C 0.46198 0.57038 0.18318 0.0
C1983 C 0.48989 0.52934 0.17413 0.0
C1984 C 0.48611 0.54006 0.16201 0.0
C1985 C 0.47635 0.55262 0.16514 0.0
C1986 C 0.49324 0.53939 0.14623 0.0
C1987 C 0.49965 0.51504 0.17122 0.0
C1988 C 0.51543 0.54909 0.14438 0.0
C1989 C 0.52233 0.54895 0.1295 0.0
C1990 C 0.50716 0.53906 0.11612 0.0
C1991 C 0.48488 0.52946 0.11804 0.0
C1992 C 0.478 0.52973 0.13295 0.0
H1993 H 0.49656 0.50384 0.18049 0.0
H1994 H 0.49303 0.50522 0.15963 0.0
H1995 H 0.51749 0.52548 0.17119 0.0
H1996 H 0.52746 0.55703 0.15445 0.0
H1997 H 0.53961 0.55692 0.12846 0.0
H1998 H 0.88856 0.42482 0.78573 0.0
H1999 H 0.90289 0.43403 0.81332 0.0
H2000 H 0.94332 0.50133 0.8051 0.0
H2001 H 0.92976 0.49205 0.7772 0.0
H2002 H 0.96574 0.48702 0.8222 0.0
H2003 H 0.88906 0.46451 0.84795 0.0
H2004 H 0.88655 0.44242 0.83507 0.0
H2005 H 0.89163 0.46736 0.82729 0.0
C2006 C 0.90059 0.44158 0.78973 0.0
C2007 C 0.90806 0.45768 0.77921 0.0
C2008 C 0.90852 0.44688 0.80559 0.0
C2009 C 0.92385 0.46844 0.81135 0.0
C2010 C 0.93132 0.48461 0.80093 0.0
H2011 H 0.95855 0.49787 0.91328 0.0
H2012 H 0.94694 0.49952 0.8862 0.0
C2013 C 0.92346 0.47931 0.78501 0.0
C2014 C 0.93286 0.47372 0.82808 0.0
H2015 H 0.91804 0.46673 0.86535 0.0
C2016 C 0.95535 0.48288 0.83165 0.0
C2017 C 0.91939 0.46874 0.84045 0.0
C2018 C 0.89535 0.46044 0.83751 0.0
C2019 C 0.96457 0.48613 0.84719 0.0
C2020 C 0.95086 0.47954 0.85943 0.0
C2021 C 0.92853 0.47147 0.85595 0.0
C2022 C 0.95911 0.47978 0.87578 0.0
C2023 C 0.9889 0.4965 0.8503 0.0
C2024 C 0.96972 0.46806 0.87893 0.0
C2025 C 0.97658 0.4673 0.89434 0.0
C2026 C 0.9727 0.47796 0.907 0.0
C2027 C 0.96207 0.48971 0.90381 0.0
C2028 C 0.9553 0.49056 0.88835 0.0
H2029 H 0.9973 0.50712 0.84104 0.0
H2030 H 0.99505 0.50639 0.86188 0.0
H2031 H 0.99325 0.48353 0.85021 0.0
H2032 H 0.97238 0.45917 0.86947 0.0
H2033 H 0.98495 0.45832 0.89632 0.0
H2034 H 0.59945 0.487 0.79249 0.0
H2035 H 0.59003 0.49106 0.81896 0.0
H2036 H 0.52249 0.46041 0.8012 0.0
H2037 H 0.53174 0.45668 0.77465 0.0
H2038 H 0.56683 0.51269 0.82973 0.0
H2039 H 0.52419 0.42422 0.83724 0.0
H2040 H 0.54262 0.43579 0.82244 0.0
H2041 H 0.51551 0.43132 0.81954 0.0
C2042 C 0.58261 0.48134 0.79416 0.0
C2043 C 0.56634 0.4714 0.78142 0.0
C2044 C 0.57726 0.48357 0.80932 0.0
C2045 C 0.55555 0.47576 0.81204 0.0
C2046 C 0.5393 0.46618 0.79936 0.0
H2047 H 0.48517 0.46635 0.89222 0.0
H2048 H 0.49709 0.46481 0.86634 0.0
C2049 C 0.54463 0.46401 0.78421 0.0
C2050 C 0.54982 0.47764 0.82814 0.0
H2051 H 0.52151 0.4474 0.85683 0.0
C2052 C 0.55703 0.49846 0.83573 0.0
C2053 C 0.53704 0.45902 0.83588 0.0
C2054 C 0.5295 0.4363 0.82845 0.0
C2055 C 0.55126 0.50114 0.85074 0.0
C2056 C 0.53835 0.48248 0.85845 0.0
C2057 C 0.53137 0.46168 0.8509 0.0
C2058 C 0.5314 0.48407 0.87421 0.0
C2059 C 0.55846 0.52387 0.85795 0.0
C2060 C 0.54673 0.49528 0.88729 0.0
C2061 C 0.53995 0.49644 0.90211 0.0
C2062 C 0.51769 0.48622 0.90417 0.0
C2063 C 0.50242 0.47477 0.89104 0.0
C2064 C 0.50921 0.47371 0.87624 0.0
H2065 H 0.56318 0.53569 0.84899 0.0
H2066 H 0.54541 0.52423 0.86416 0.0
H2067 H 0.57282 0.52938 0.86662 0.0
H2068 H 0.56395 0.50301 0.88606 0.0
H2069 H 0.55216 0.5055 0.91192 0.0
H2070 H 0.51541 0.06946 0.78369 0.0
H2071 H 0.5107 0.0585 0.81032 0.0
H2072 H 0.57776 0.10615 0.82498 0.0
H2073 H 0.58265 0.11709 0.79825 0.0
H2074 H 0.56474 0.06668 0.8371 0.0
H2075 H 0.50612 0.09477 0.84679 0.0
H2076 H 0.49804 0.0756 0.82971 0.0
H2077 H 0.52232 0.10182 0.83043 0.0
C2078 C 0.52914 0.07763 0.7926 0.0
C2079 C 0.54933 0.09431 0.78895 0.0
C2080 C 0.52642 0.07138 0.8078 0.0
C2081 C 0.54375 0.08185 0.8197 0.0
C2082 C 0.56415 0.09796 0.81598 0.0
H2083 H 0.5231 0.074 0.91865 0.0
H2084 H 0.53429 0.08691 0.89312 0.0
C2085 C 0.56693 0.10415 0.80072 0.0
C2086 C 0.54041 0.07618 0.83606 0.0
H2087 H 0.50945 0.07311 0.86568 0.0
C2088 C 0.55276 0.0682 0.84341 0.0
C2089 C 0.52505 0.07856 0.84436 0.0
C2090 C 0.51228 0.08836 0.83749 0.0
C2091 C 0.54971 0.06194 0.85872 0.0
C2092 C 0.53359 0.06333 0.86673 0.0
C2093 C 0.52167 0.07186 0.8595 0.0
C2094 C 0.52854 0.05586 0.88253 0.0
C2095 C 0.56395 0.05416 0.86622 0.0
C2096 C 0.52166 0.03414 0.88509 0.0
C2097 C 0.51536 0.02676 0.89969 0.0
C2098 C 0.51551 0.04089 0.91193 0.0
C2099 C 0.52263 0.06269 0.90939 0.0
C2100 C 0.52909 0.0701 0.89484 0.0
H2101 H 0.57941 0.0603 0.86073 0.0
H2102 H 0.56783 0.05947 0.879 0.0
H2103 H 0.5553 0.03608 0.86459 0.0
H2104 H 0.52054 0.0227 0.87566 0.0
H2105 H 0.50964 0.00979 0.90123 0.0
H2106 H 0.14656 0.2665 0.57687 0.0
H2107 H 0.15496 0.27857 0.55079 0.0
H2108 H 0.08705 0.24035 0.53377 0.0
H2109 H 0.07848 0.22784 0.55978 0.0
H2110 H 0.14502 0.25095 0.52194 0.0
H2111 H 0.10634 0.30224 0.52042 0.0
H2112 H 0.1131 0.29409 0.53848 0.0
H2113 H 0.08973 0.27491 0.52547 0.0
C2114 C 0.1334 0.26054 0.56758 0.0
C2115 C 0.11183 0.24617 0.57043 0.0
C2116 C 0.13823 0.26756 0.5527 0.0
C2117 C 0.12161 0.26052 0.54042 0.0
C2118 C 0.10006 0.24626 0.54318 0.0
H2119 H 0.12758 0.29312 0.44334 0.0
H2120 H 0.11496 0.27714 0.46785 0.0
C2121 C 0.0952 0.23917 0.55806 0.0
C2122 C 0.12702 0.26765 0.52461 0.0
H2123 H 0.12147 0.29839 0.49756 0.0
C2124 C 0.13986 0.2613 0.51659 0.0
C2125 C 0.12009 0.28098 0.51763 0.0
C2126 C 0.10668 0.28864 0.52594 0.0
C2127 C 0.14605 0.268 0.50175 0.0
C2128 C 0.13962 0.28183 0.49494 0.0
C2129 C 0.12639 0.28781 0.50283 0.0
C2130 C 0.1472 0.29098 0.47995 0.0
C2131 C 0.15924 0.26004 0.49346 0.0
C2132 C 0.16948 0.3042 0.47869 0.0
C2133 C 0.17673 0.31318 0.4647 0.0
C2134 C 0.16184 0.30934 0.45172 0.0
C2135 C 0.13949 0.29616 0.45304 0.0
C2136 C 0.13224 0.28714 0.46706 0.0
H2137 H 0.15717 0.24477 0.49784 0.0
H2138 H 0.15464 0.25704 0.48059 0.0
H2139 H 0.17671 0.27261 0.49569 0.0
H2140 H 0.1813 0.30773 0.48858 0.0
H2141 H 0.19406 0.32306 0.46405 0.0
H2142 H 0.75261 0.89186 0.58798 0.0
H2143 H 0.74075 0.88716 0.55998 0.0
H2144 H 0.78551 0.86521 0.54951 0.0
H2145 H 0.79756 0.86995 0.57751 0.0
H2146 H 0.76568 0.90713 0.53567 0.0
H2147 H 0.72787 0.81701 0.52631 0.0
H2148 H 0.73473 0.83164 0.54562 0.0
H2149 H 0.75554 0.8313 0.53502 0.0
C2150 C 0.76003 0.88615 0.57972 0.0
C2151 C 0.77601 0.88124 0.58499 0.0
C2152 C 0.75315 0.88337 0.56374 0.0
C2153 C 0.76202 0.87553 0.55269 0.0
C2154 C 0.77811 0.8708 0.55786 0.0
H2155 H 0.73795 0.85324 0.45016 0.0
H2156 H 0.75222 0.85634 0.47751 0.0
C2157 C 0.78498 0.87354 0.57387 0.0
C2158 C 0.75478 0.87293 0.53575 0.0
H2159 H 0.72958 0.8353 0.50377 0.0
C2160 C 0.75779 0.89143 0.5287 0.0
C2161 C 0.74459 0.85244 0.52667 0.0
C2162 C 0.74029 0.8319 0.53377 0.0
C2163 C 0.75085 0.89 0.5128 0.0
C2164 C 0.74033 0.86946 0.50379 0.0
C2165 C 0.73767 0.85101 0.51074 0.0
C2166 C 0.73124 0.86676 0.4873 0.0
C2167 C 0.75496 0.91051 0.50574 0.0
C2168 C 0.71439 0.87108 0.48382 0.0
C2169 C 0.70615 0.86922 0.46829 0.0
C2170 C 0.71456 0.86294 0.45588 0.0
C2171 C 0.73105 0.85802 0.45944 0.0
C2172 C 0.73929 0.85987 0.47503 0.0
H2173 H 0.76799 0.92537 0.51289 0.0
H2174 H 0.75958 0.91046 0.49361 0.0
H2175 H 0.73988 0.91146 0.50521 0.0
H2176 H 0.70762 0.87594 0.49316 0.0
H2177 H 0.69309 0.87262 0.46601 0.0
H2178 H 0.13841 0.9247 0.56524 0.0
H2179 H 0.14466 0.91741 0.53843 0.0
H2180 H 0.12916 0.85252 0.54781 0.0
H2181 H 0.12254 0.85964 0.57466 0.0
H2182 H 0.17482 0.90795 0.5293 0.0
H2183 H 0.09249 0.84033 0.50659 0.0
H2184 H 0.09757 0.85712 0.52471 0.0
H2185 H 0.10375 0.83548 0.52414 0.0
C2186 C 0.13627 0.90885 0.56157 0.0
C2187 C 0.13003 0.89275 0.57205 0.0
C2188 C 0.13978 0.90468 0.54624 0.0
C2189 C 0.13715 0.88434 0.54104 0.0
C2190 C 0.1308 0.86815 0.55144 0.0
H2191 H 0.17161 0.84328 0.45468 0.0
H2192 H 0.16122 0.84561 0.48118 0.0
C2193 C 0.1271 0.87226 0.56679 0.0
C2194 C 0.14216 0.88067 0.52498 0.0
H2195 H 0.12059 0.8487 0.49003 0.0
C2196 C 0.16293 0.89501 0.52072 0.0
C2197 C 0.12664 0.86375 0.51379 0.0
C2198 C 0.1038 0.8484 0.51745 0.0
C2199 C 0.16858 0.89293 0.5056 0.0
C2200 C 0.15307 0.87613 0.49444 0.0
C2201 C 0.13241 0.86155 0.49869 0.0
C2202 C 0.15802 0.8739 0.47818 0.0
C2203 C 0.19114 0.90867 0.50162 0.0
C2204 C 0.15932 0.88886 0.46774 0.0
C2205 C 0.16519 0.88757 0.45263 0.0
C2206 C 0.16998 0.87133 0.44775 0.0
C2207 C 0.16824 0.8561 0.45817 0.0
C2208 C 0.16219 0.85731 0.47325 0.0
H2209 H 0.20225 0.91859 0.51221 0.0
H2210 H 0.19812 0.89973 0.49552 0.0
H2211 H 0.19027 0.9199 0.49352 0.0
H2212 H 0.1561 0.90175 0.47138 0.0
H2213 H 0.16658 0.89965 0.44493 0.0
H2214 H 0.6053 0.78071 0.10762 0.0
H2215 H 0.61744 0.78796 0.13566 0.0
H2216 H 0.57455 0.81318 0.14346 0.0
H2217 H 0.56159 0.80509 0.11548 0.0
H2218 H 0.63705 0.82612 0.15538 0.0
H2219 H 0.55689 0.76707 0.17416 0.0
H2220 H 0.56258 0.76758 0.15392 0.0
H2221 H 0.55677 0.78742 0.16276 0.0
C2222 C 0.59827 0.7876 0.1153 0.0
C2223 C 0.58225 0.79205 0.10931 0.0
C2224 C 0.60537 0.7919 0.13131 0.0
C2225 C 0.59662 0.80075 0.14168 0.0
C2226 C 0.58119 0.80593 0.13571 0.0
H2227 H 0.62177 0.82619 0.2443 0.0
H2228 H 0.60993 0.82606 0.21686 0.0
C2229 C 0.57399 0.80154 0.11968 0.0
C2230 C 0.6036 0.80424 0.15875 0.0
H2231 H 0.58541 0.78776 0.19419 0.0
C2232 C 0.62575 0.81781 0.16388 0.0
C2233 C 0.58881 0.79338 0.16981 0.0
C2234 C 0.56496 0.77789 0.16493 0.0
C2235 C 0.63354 0.82064 0.17975 0.0
C2236 C 0.61882 0.80944 0.19073 0.0
C2237 C 0.59661 0.79635 0.18571 0.0
C2238 C 0.62633 0.81003 0.2073 0.0
C2239 C 0.65747 0.83551 0.18466 0.0
C2240 C 0.6392 0.80079 0.21097 0.0
C2241 C 0.64576 0.80058 0.22659 0.0
C2242 C 0.63961 0.80965 0.2389 0.0
C2243 C 0.62664 0.81888 0.23515 0.0
C2244 C 0.61997 0.81895 0.21949 0.0
H2245 H 0.66556 0.84699 0.17579 0.0
H2246 H 0.66015 0.84505 0.19612 0.0
H2247 H 0.66534 0.82552 0.186 0.0
H2248 H 0.64389 0.7934 0.20173 0.0
H2249 H 0.65531 0.7929 0.22901 0.0
H2250 H 0.26734 0.81987 0.12446 0.0
H2251 H 0.25825 0.82408 0.15104 0.0
H2252 H 0.19069 0.79434 0.13357 0.0
H2253 H 0.19961 0.79047 0.10694 0.0
H2254 H 0.23548 0.84618 0.16213 0.0
H2255 H 0.19218 0.75764 0.16937 0.0
H2256 H 0.2106 0.76916 0.15456 0.0
H2257 H 0.18357 0.76492 0.15173 0.0
C2258 C 0.25057 0.81444 0.12622 0.0
C2259 C 0.23418 0.8047 0.11355 0.0
C2260 C 0.24541 0.81676 0.14144 0.0
C2261 C 0.22377 0.80924 0.14427 0.0
C2262 C 0.20744 0.79988 0.13165 0.0
H2263 H 0.15306 0.79994 0.2241 0.0
H2264 H 0.16532 0.79845 0.19834 0.0
C2265 C 0.21257 0.79763 0.11645 0.0
C2266 C 0.21819 0.81112 0.16043 0.0
H2267 H 0.18959 0.78085 0.18901 0.0
C2268 C 0.22557 0.83194 0.16809 0.0
C2269 C 0.20527 0.79249 0.16812 0.0
C2270 C 0.19755 0.76976 0.16062 0.0
C2271 C 0.21978 0.83461 0.18309 0.0
C2272 C 0.20668 0.81594 0.19074 0.0
C2273 C 0.1996 0.79514 0.18313 0.0
C2274 C 0.19956 0.81751 0.20644 0.0
C2275 C 0.22714 0.85735 0.19037 0.0
C2276 C 0.21474 0.82859 0.21962 0.0
C2277 C 0.20778 0.82971 0.23438 0.0
C2278 C 0.18547 0.81961 0.23627 0.0
C2279 C 0.17035 0.80829 0.22305 0.0
C2280 C 0.17732 0.80726 0.20832 0.0
H2281 H 0.23209 0.86925 0.18146 0.0
H2282 H 0.21408 0.85782 0.1965 0.0
H2283 H 0.24138 0.86267 0.19912 0.0
H2284 H 0.23199 0.83623 0.21852 0.0
H2285 H 0.21987 0.83867 0.24427 0.0
H2286 H 0.18294 0.4044 0.11886 0.0
H2287 H 0.17752 0.39171 0.14495 0.0
H2288 H 0.24531 0.43586 0.16012 0.0
H2289 H 0.2507 0.44935 0.13421 0.0
H2290 H 0.19612 0.37244 0.16188 0.0
H2291 H 0.21549 0.45176 0.1931 0.0
H2292 H 0.21088 0.44649 0.17198 0.0
H2293 H 0.23647 0.45274 0.18201 0.0
C2294 C 0.19668 0.41158 0.12778 0.0
C2295 C 0.2172 0.4281 0.12449 0.0
C2296 C 0.19358 0.40418 0.14265 0.0
C2297 C 0.21091 0.41311 0.15456 0.0
C2298 C 0.2316 0.42907 0.1512 0.0
H2299 H 0.20999 0.38523 0.25291 0.0
H2300 H 0.22191 0.39843 0.22753 0.0
C2301 C 0.23471 0.43656 0.13632 0.0
C2302 C 0.20711 0.40573 0.17048 0.0
H2303 H 0.20779 0.42292 0.20866 0.0
C2304 C 0.19875 0.3835 0.17212 0.0
C2305 C 0.21057 0.4202 0.18383 0.0
C2306 C 0.21867 0.44409 0.1827 0.0
C2307 C 0.19357 0.3753 0.18671 0.0
C2308 C 0.19664 0.38968 0.19996 0.0
C2309 C 0.20552 0.41199 0.19845 0.0
C2310 C 0.18956 0.38166 0.2153 0.0
C2311 C 0.18478 0.35129 0.18785 0.0
C2312 C 0.16742 0.36819 0.21684 0.0
C2313 C 0.16053 0.36084 0.23131 0.0
C2314 C 0.17566 0.36679 0.24457 0.0
C2315 C 0.19788 0.38049 0.243 0.0
C2316 C 0.20474 0.38794 0.22849 0.0
H2317 H 0.18845 0.34357 0.17775 0.0
H2318 H 0.19163 0.34859 0.1989 0.0
H2319 H 0.16687 0.34299 0.18789 0.0
H2320 H 0.15542 0.36355 0.20685 0.0
H2321 H 0.14328 0.35075 0.23214 0.0
H2322 H 0.81378 0.5972 0.90793 0.0
H2323 H 0.82216 0.60921 0.88184 0.0
H2324 H 0.7543 0.57065 0.86476 0.0
H2325 H 0.74574 0.55813 0.89077 0.0
H2326 H 0.81194 0.58136 0.85269 0.0
H2327 H 0.77373 0.63312 0.85199 0.0
H2328 H 0.78079 0.62497 0.86994 0.0
H2329 H 0.75725 0.60578 0.85709 0.0
C2330 C 0.80062 0.5911 0.89862 0.0
C2331 C 0.77907 0.57666 0.90146 0.0
C2332 C 0.80544 0.5981 0.88374 0.0
C2333 C 0.78883 0.59097 0.87144 0.0
C2334 C 0.7673 0.57659 0.87418 0.0
H2335 H 0.79522 0.626 0.77501 0.0
H2336 H 0.78244 0.60943 0.7993 0.0
C2337 C 0.76245 0.56951 0.88906 0.0
C2338 C 0.79422 0.59828 0.85568 0.0
H2339 H 0.78908 0.62979 0.82913 0.0
C2340 C 0.80692 0.59191 0.8475 0.0
C2341 C 0.78747 0.61188 0.84894 0.0
C2342 C 0.77417 0.61953 0.85743 0.0
C2343 C 0.81316 0.59886 0.83273 0.0
C2344 C 0.80695 0.613 0.82616 0.0
C2345 C 0.79384 0.61899 0.83421 0.0
C2346 C 0.81463 0.62246 0.81128 0.0
C2347 C 0.82617 0.59084 0.82425 0.0
C2348 C 0.83695 0.63541 0.81002 0.0
C2349 C 0.84429 0.64472 0.79615 0.0
C2350 C 0.82947 0.64148 0.78328 0.0
C2351 C 0.80708 0.62857 0.78461 0.0
C2352 C 0.79974 0.61921 0.79851 0.0
H2353 H 0.82381 0.57534 0.82837 0.0
H2354 H 0.82166 0.58824 0.81137 0.0
H2355 H 0.8437 0.60319 0.82661 0.0
H2356 H 0.84872 0.63851 0.81983 0.0
H2357 H 0.86163 0.65437 0.79549 0.0
H2358 H 0.45988 0.24094 0.91466 0.0
H2359 H 0.44638 0.23521 0.88686 0.0
H2360 H 0.39643 0.16983 0.89292 0.0
H2361 H 0.40969 0.17549 0.92081 0.0
H2362 H 0.44123 0.19938 0.86394 0.0
H2363 H 0.36456 0.19985 0.87171 0.0
H2364 H 0.38734 0.21187 0.8867 0.0
H2365 H 0.37028 0.1828 0.88346 0.0
C2366 C 0.44587 0.22543 0.91011 0.0
C2367 C 0.43578 0.20869 0.91992 0.0
C2368 C 0.43829 0.22214 0.89423 0.0
C2369 C 0.42036 0.20217 0.88792 0.0
C2370 C 0.41019 0.18542 0.89764 0.0
H2371 H 0.34854 0.15924 0.79503 0.0
H2372 H 0.36158 0.1614 0.82251 0.0
C2373 C 0.41786 0.18864 0.91352 0.0
C2374 C 0.41255 0.19878 0.87107 0.0
H2375 H 0.37062 0.19269 0.84589 0.0
C2376 C 0.42579 0.1979 0.85995 0.0
C2377 C 0.39236 0.19672 0.86599 0.0
C2378 C 0.37778 0.19798 0.87753 0.0
C2379 C 0.4193 0.19487 0.84379 0.0
C2380 C 0.39928 0.19327 0.83866 0.0
C2381 C 0.38595 0.19393 0.84984 0.0
C2382 C 0.39201 0.19138 0.82178 0.0
C2383 C 0.43377 0.19303 0.83241 0.0
C2384 C 0.40476 0.20752 0.81225 0.0
C2385 C 0.39741 0.20625 0.79654 0.0
C2386 C 0.37699 0.18899 0.79013 0.0
C2387 C 0.36427 0.1728 0.79968 0.0
C2388 C 0.37172 0.17399 0.81536 0.0
H2389 H 0.44463 0.18782 0.83806 0.0
H2390 H 0.42407 0.18124 0.82205 0.0
H2391 H 0.44418 0.20922 0.82825 0.0
H2392 H 0.4202 0.22139 0.81705 0.0
H2393 H 0.40739 0.21916 0.78955 0.0
H2394 H 0.78982 0.18956 0.90911 0.0
H2395 H 0.79598 0.18229 0.88216 0.0
H2396 H 0.81963 0.2496 0.8747 0.0
H2397 H 0.81285 0.25681 0.90134 0.0
H2398 H 0.79152 0.22084 0.84983 0.0
H2399 H 0.85589 0.20162 0.86737 0.0
H2400 H 0.83042 0.1855 0.87519 0.0
H2401 H 0.84627 0.21428 0.88109 0.0
C2402 C 0.79611 0.20275 0.90166 0.0
C2403 C 0.80105 0.22383 0.90743 0.0
C2404 C 0.79984 0.19862 0.88633 0.0
C2405 C 0.80864 0.2155 0.87652 0.0
C2406 C 0.813 0.23637 0.88211 0.0
H2407 H 0.87636 0.23127 0.79461 0.0
H2408 H 0.8646 0.23113 0.82078 0.0
C2409 C 0.80927 0.24051 0.89739 0.0
C2410 C 0.81349 0.21166 0.86045 0.0
H2411 H 0.84592 0.19858 0.84021 0.0
C2412 C 0.80331 0.21584 0.84769 0.0
C2413 C 0.82906 0.20538 0.85774 0.0
C2414 C 0.84122 0.2016 0.87105 0.0
C2415 C 0.80847 0.21418 0.83232 0.0
C2416 C 0.82394 0.20775 0.82958 0.0
C2417 C 0.83393 0.20332 0.84232 0.0
C2418 C 0.83097 0.20686 0.81374 0.0
C2419 C 0.7979 0.22013 0.81923 0.0
C2420 C 0.81607 0.19294 0.80113 0.0
C2421 C 0.82269 0.19318 0.78608 0.0
C2422 C 0.84442 0.20722 0.78337 0.0
C2423 C 0.85943 0.22057 0.79618 0.0
C2424 C 0.85277 0.22038 0.81119 0.0
H2425 H 0.79049 0.2296 0.82379 0.0
H2426 H 0.80986 0.22985 0.8111 0.0
H2427 H 0.78483 0.20499 0.81243 0.0
H2428 H 0.79925 0.18206 0.80289 0.0
H2429 H 0.81066 0.18277 0.7765 0.0
H2430 H 0.22988 0.13942 0.44889 0.0
H2431 H 0.24402 0.14857 0.47664 0.0
H2432 H 0.28634 0.12278 0.46841 0.0
H2433 H 0.27303 0.11447 0.44058 0.0
H2434 H 0.24121 0.12042 0.49761 0.0
H2435 H 0.32772 0.1804 0.49356 0.0
H2436 H 0.3071 0.17209 0.47727 0.0
H2437 H 0.31874 0.15534 0.48155 0.0
C2438 C 0.24256 0.13614 0.45291 0.0
C2439 C 0.25034 0.12622 0.44249 0.0
C2440 C 0.2505 0.14125 0.4688 0.0
C2441 C 0.26645 0.13665 0.47456 0.0
C2442 C 0.27438 0.12693 0.46418 0.0
H2443 H 0.32132 0.12707 0.56287 0.0
H2444 H 0.30967 0.12673 0.53546 0.0
C2445 C 0.26652 0.12189 0.44829 0.0
C2446 C 0.27378 0.14066 0.49159 0.0
H2447 H 0.31906 0.16467 0.51799 0.0
C2448 C 0.25819 0.13036 0.5021 0.0
C2449 C 0.29595 0.15367 0.49743 0.0
C2450 C 0.31331 0.16619 0.48688 0.0
C2451 C 0.26427 0.13198 0.51821 0.0
C2452 C 0.28649 0.14436 0.52393 0.0
C2453 C 0.30204 0.15512 0.51352 0.0
C2454 C 0.29399 0.14539 0.54057 0.0
C2455 C 0.24702 0.1198 0.52892 0.0
C2456 C 0.28921 0.15623 0.55249 0.0
C2457 C 0.29605 0.15667 0.56821 0.0
C2458 C 0.3078 0.14626 0.57226 0.0
C2459 C 0.31264 0.13556 0.56019 0.0
C2460 C 0.3059 0.13523 0.54452 0.0
H2461 H 0.23105 0.10824 0.52228 0.0
H2462 H 0.25193 0.11058 0.53657 0.0
H2463 H 0.24503 0.13164 0.53663 0.0
H2464 H 0.28025 0.16438 0.54963 0.0
H2465 H 0.29231 0.16532 0.57717 0.0
H2466 H 0.8664 0.1206 0.44094 0.0
H2467 H 0.85765 0.12358 0.46778 0.0
H2468 H 0.92418 0.14659 0.48532 0.0
H2469 H 0.93308 0.14381 0.45847 0.0
H2470 H 0.86083 0.10268 0.49269 0.0
H2471 H 0.91331 0.19227 0.50655 0.0
H2472 H 0.9073 0.17908 0.48682 0.0
H2473 H 0.92753 0.17877 0.50018 0.0
C2474 C 0.87917 0.12629 0.45052 0.0
C2475 C 0.90045 0.13204 0.44759 0.0
C2476 C 0.87416 0.12805 0.46584 0.0
C2477 C 0.89032 0.1356 0.47855 0.0
C2478 C 0.91156 0.14123 0.47568 0.0
H2479 H 0.8833 0.15032 0.57969 0.0
H2480 H 0.8951 0.14714 0.5539 0.0
C2481 C 0.91662 0.1396 0.46034 0.0
C2482 C 0.88468 0.13692 0.49479 0.0
H2483 H 0.89593 0.17208 0.5275 0.0
C2484 C 0.86849 0.11786 0.50029 0.0
C2485 C 0.89474 0.15674 0.50472 0.0
C2486 C 0.91155 0.17793 0.49926 0.0
C2487 C 0.8621 0.11809 0.51542 0.0
C2488 C 0.87202 0.13791 0.52527 0.0
C2489 C 0.88844 0.1569 0.51991 0.0
C2490 C 0.86483 0.13945 0.54089 0.0
C2491 C 0.84483 0.0971 0.52081 0.0
C2492 C 0.844 0.13637 0.54205 0.0
C2493 C 0.83729 0.13839 0.5567 0.0
C2494 C 0.85127 0.14351 0.57054 0.0
C2495 C 0.87217 0.14655 0.5693 0.0
C2496 C 0.87892 0.14464 0.55459 0.0
H2497 H 0.84254 0.08259 0.51343 0.0
H2498 H 0.84899 0.09578 0.53323 0.0
H2499 H 0.82915 0.0969 0.52003 0.0
H2500 H 0.83305 0.13275 0.53158 0.0
H2501 H 0.8213 0.13646 0.55713 0.0
H2502 H 0.84943 0.73308 0.45015 0.0
H2503 H 0.84372 0.72214 0.47675 0.0
H2504 H 0.90827 0.7743 0.49345 0.0
H2505 H 0.91421 0.78513 0.46675 0.0
H2506 H 0.89811 0.73644 0.50652 0.0
H2507 H 0.832 0.75535 0.51114 0.0
H2508 H 0.82683 0.73618 0.4946 0.0
H2509 H 0.84938 0.7636 0.49548 0.0
C2510 C 0.86241 0.7422 0.4595 0.0
C2511 C 0.88218 0.7601 0.45643 0.0
C2512 C 0.85911 0.73597 0.47469 0.0
C2513 C 0.87538 0.74773 0.48715 0.0
C2514 C 0.89545 0.7651 0.48402 0.0
H2515 H 0.8474 0.73959 0.5847 0.0
H2516 H 0.85906 0.75229 0.5592 0.0
C2517 C 0.89884 0.77123 0.46878 0.0
C2518 C 0.87123 0.74213 0.50346 0.0
H2519 H 0.83669 0.73581 0.53115 0.0
C2520 C 0.88477 0.73641 0.51196 0.0
C2521 C 0.85407 0.74252 0.51065 0.0
C2522 C 0.83987 0.74996 0.50257 0.0
C2523 C 0.88124 0.73051 0.52732 0.0
C2524 C 0.86341 0.72987 0.53421 0.0
C2525 C 0.85022 0.7361 0.52583 0.0
C2526 C 0.85793 0.72267 0.55005 0.0
C2527 C 0.89682 0.72534 0.53608 0.0
C2528 C 0.85344 0.70181 0.5534 0.0
C2529 C 0.84691 0.69459 0.568 0.0
C2530 C 0.84441 0.70796 0.57942 0.0
C2531 C 0.84903 0.72887 0.57607 0.0
C2532 C 0.85575 0.73616 0.56154 0.0
H2533 H 0.91285 0.73302 0.5313 0.0
H2534 H 0.89934 0.73096 0.54878 0.0
H2535 H 0.89008 0.70744 0.5348 0.0
H2536 H 0.8544 0.69087 0.54459 0.0
H2537 H 0.84314 0.67827 0.57016 0.0
loop_
_geom_bond_atom_site_label_1
_geom_bond_atom_site_label_2
_geom_bond_distance
_geom_bond_site_symmetry_2
_ccdc_geom_bond_type
H0 C7 0.929 . S
H1 C10 0.930 . S
H2 C12 0.929 . S
H3 C4 0.969 . S
C4 H3 0.969 . S
C4 O5 1.550 . S
C4 H6 0.973 . S
O5 C4 1.550 . S
O5 C11 1.412 . S
H6 C4 0.973 . S
C7 H0 0.929 . S
C7 C8 1.400 . S
C7 C9 1.364 . S
C8 C7 1.400 . S
C8 C12 1.377 . S
C9 C7 1.364 . S
C9 C10 1.374 . S
C10 H1 0.930 . S
C10 C9 1.374 . S
C10 C11 1.383 . S
C11 O5 1.412 . S
C11 C10 1.383 . S
C11 C12 1.394 . S
C12 H2 0.929 . S
C12 C8 1.377 . S
C12 C11 1.394 . S
H13 C20 0.929 . S
H14 C23 0.930 . S
H15 C25 0.929 . S
H16 C17 0.969 . S
C17 H16 0.969 . S
C17 O18 1.550 . S
C17 H19 0.973 . S
O18 C17 1.550 . S
O18 C24 1.412 . S
H19 C17 0.973 . S
C20 H13 0.929 . S
C20 C21 1.400 . S
C20 C22 1.364 . S
C21 C20 1.400 . S
C21 C25 1.377 . S
C22 C20 1.364 . S
C22 C23 1.374 . S
C23 H14 0.930 . S
C23 C22 1.374 . S
C23 C24 1.383 . S
C24 O18 1.412 . S
C24 C23 1.383 . S
C24 C25 1.394 . S
C25 H15 0.929 . S
C25 C21 1.377 . S
C25 C24 1.394 . S
H26 C33 0.929 . S
H27 C36 0.930 . S
H28 C38 0.929 . S
H29 C30 0.969 . S
C30 H29 0.969 . S
C30 O31 1.550 . S
C30 H32 0.973 . S
O31 C30 1.550 . S
O31 C37 1.412 . S
H32 C30 0.973 . S
C33 H26 0.929 . S
C33 C34 1.400 . S
C33 C35 1.364 . S
C34 C33 1.400 . S
C34 C38 1.377 . S
C35 C33 1.364 . S
C35 C36 1.374 . S
C36 H27 0.930 . S
C36 C35 1.374 . S
C36 C37 1.383 . S
C37 O31 1.412 . S
C37 C36 1.383 . S
C37 C38 1.394 . S
C38 H28 0.929 . S
C38 C34 1.377 . S
C38 C37 1.394 . S
H39 C46 0.929 . S
H40 C49 0.930 . S
H41 C51 0.929 . S
H42 C43 0.969 . S
C43 H42 0.969 . S
C43 O44 1.550 . S
C43 H45 0.973 . S
O44 C43 1.550 . S
O44 C50 1.412 . S
H45 C43 0.973 . S
C46 H39 0.929 . S
C46 C47 1.400 . S
C46 C48 1.364 . S
C47 C46 1.400 . S
C47 C51 1.377 . S
C48 C46 1.364 . S
C48 C49 1.374 . S
C49 H40 0.930 . S
C49 C48 1.374 . S
C49 C50 1.383 . S
C50 O44 1.412 . S
C50 C49 1.383 . S
C50 C51 1.394 . S
C51 H41 0.929 . S
C51 C47 1.377 . S
C51 C50 1.394 . S
H52 C59 0.929 . S
H53 C62 0.930 . S
H54 C64 0.929 . S
H55 C56 0.969 . S
C56 H55 0.969 . S
C56 O57 1.550 . S
C56 H58 0.973 . S
O57 C56 1.550 . S
O57 C63 1.412 . S
H58 C56 0.973 . S
C59 H52 0.929 . S
C59 C60 1.400 . S
C59 C61 1.364 . S
C60 C59 1.400 . S
C60 C64 1.377 . S
C61 C59 1.364 . S
C61 C62 1.374 . S
C62 H53 0.930 . S
C62 C61 1.374 . S
C62 C63 1.383 . S
C63 O57 1.412 . S
C63 C62 1.383 . S
C63 C64 1.394 . S
C64 H54 0.929 . S
C64 C60 1.377 . S
C64 C63 1.394 . S
H65 C72 0.929 . S
H66 C75 0.930 . S
H67 C77 0.929 . S
H68 C69 0.969 . S
C69 H68 0.969 . S
C69 O70 1.550 . S
C69 H71 0.973 . S
O70 C69 1.550 . S
O70 C76 1.412 . S
H71 C69 0.973 . S
C72 H65 0.929 . S
C72 C73 1.400 . S
C72 C74 1.364 . S
C73 C72 1.400 . S
C73 C77 1.377 . S
C74 C72 1.364 . S
C74 C75 1.374 . S
C75 H66 0.930 . S
C75 C74 1.374 . S
C75 C76 1.383 . S
C76 O70 1.412 . S
C76 C75 1.383 . S
C76 C77 1.394 . S
C77 H67 0.929 . S
C77 C73 1.377 . S
C77 C76 1.394 . S
H78 C85 0.929 . S
H79 C88 0.930 . S
H80 C90 0.929 . S
H81 C82 0.969 . S
C82 H81 0.969 . S
C82 O83 1.550 . S
C82 H84 0.973 . S
O83 C82 1.550 . S
O83 C89 1.412 . S
H84 C82 0.973 . S
C85 H78 0.929 . S
C85 C86 1.400 . S
C85 C87 1.364 . S
C86 C85 1.400 . S
C86 C90 1.377 . S
C87 C85 1.364 . S
C87 C88 1.374 . S
C88 H79 0.930 . S
C88 C87 1.374 . S
C88 C89 1.383 . S
C89 O83 1.412 . S
C89 C88 1.383 . S
C89 C90 1.394 . S
C90 H80 0.929 . S
C90 C86 1.377 . S
C90 C89 1.394 . S
H91 C98 0.929 . S
H92 C101 0.930 . S
H93 C103 0.929 . S
H94 C95 0.969 . S
C95 H94 0.969 . S
C95 O96 1.550 . S
C95 H97 0.973 . S
O96 C95 1.550 . S
O96 C102 1.412 . S
H97 C95 0.973 . S
C98 H91 0.929 . S
C98 C99 1.400 . S
C98 C100 1.364 . S
C99 C98 1.400 . S
C99 C103 1.377 . S
C100 C98 1.364 . S
C100 C101 1.374 . S
C101 H92 0.930 . S
C101 C100 1.374 . S
C101 C102 1.383 . S
C102 O96 1.412 . S
C102 C101 1.383 . S
C102 C103 1.394 . S
C103 H93 0.929 . S
C103 C99 1.377 . S
C103 C102 1.394 . S
H104 C111 0.929 . S
H105 C114 0.930 . S
H106 C116 0.929 . S
H107 C108 0.969 . S
C108 H107 0.969 . S
C108 O109 1.550 . S
C108 H110 0.973 . S
O109 C108 1.550 . S
O109 C115 1.412 . S
H110 C108 0.973 . S
C111 H104 0.929 . S
C111 C112 1.400 . S
C111 C113 1.364 . S
C112 C111 1.400 . S
C112 C116 1.377 . S
C113 C111 1.364 . S
C113 C114 1.374 . S
C114 H105 0.930 . S
C114 C113 1.374 . S
C114 C115 1.383 . S
C115 O109 1.412 . S
C115 C114 1.383 . S
C115 C116 1.394 . S
C116 H106 0.929 . S
C116 C112 1.377 . S
C116 C115 1.394 . S
H117 C124 0.929 . S
H118 C127 0.930 . S
H119 C129 0.929 . S
H120 C121 0.969 . S
C121 H120 0.969 . S
C121 O122 1.550 . S
C121 H123 0.973 . S
O122 C121 1.550 . S
O122 C128 1.412 . S
H123 C121 0.973 . S
C124 H117 0.929 . S
C124 C125 1.400 . S
C124 C126 1.364 . S
C125 C124 1.400 . S
C125 C129 1.377 . S
C126 C124 1.364 . S
C126 C127 1.374 . S
C127 H118 0.930 . S
C127 C126 1.374 . S
C127 C128 1.383 . S
C128 O122 1.412 . S
C128 C127 1.383 . S
C128 C129 1.394 . S
C129 H119 0.929 . S
C129 C125 1.377 . S
C129 C128 1.394 . S
H130 C137 0.929 . S
H131 C140 0.930 . S
H132 C142 0.929 . S
H133 C134 0.969 . S
C134 H133 0.969 . S
C134 O135 1.550 . S
C134 H136 0.973 . S
O135 C134 1.550 . S
O135 C141 1.412 . S
H136 C134 0.973 . S
C137 H130 0.929 . S
C137 C138 1.400 . S
C137 C139 1.364 . S
C138 C137 1.400 . S
C138 C142 1.377 . S
C139 C137 1.364 . S
C139 C140 1.374 . S
C140 H131 0.930 . S
C140 C139 1.374 . S
C140 C141 1.383 . S
C141 O135 1.412 . S
C141 C140 1.383 . S
C141 C142 1.394 . S
C142 H132 0.929 . S
C142 C138 1.377 . S
C142 C141 1.394 . S
H143 C150 0.929 . S
H144 C153 0.930 . S
H145 C155 0.929 . S
H146 C147 0.969 . S
C147 H146 0.969 . S
C147 O148 1.550 . S
C147 H149 0.973 . S
O148 C147 1.550 . S
O148 C154 1.412 . S
H149 C147 0.973 . S
C150 H143 0.929 . S
C150 C151 1.400 . S
C150 C152 1.364 . S
C151 C150 1.400 . S
C151 C155 1.377 . S
C152 C150 1.364 . S
C152 C153 1.374 . S
C153 H144 0.930 . S
C153 C152 1.374 . S
C153 C154 1.383 . S
C154 O148 1.412 . S
C154 C153 1.383 . S
C154 C155 1.394 . S
C155 H145 0.929 . S
C155 C151 1.377 . S
C155 C154 1.394 . S
H156 C163 0.929 . S
H157 C166 0.930 . S
H158 C168 0.929 . S
H159 C160 0.969 . S
C160 H159 0.969 . S
C160 O161 1.550 . S
C160 H162 0.973 . S
O161 C160 1.550 . S
O161 C167 1.412 . S
H162 C160 0.973 . S
C163 H156 0.929 . S
C163 C164 1.400 . S
C163 C165 1.364 . S
C164 C163 1.400 . S
C164 C168 1.377 . S
C165 C163 1.364 . S
C165 C166 1.374 . S
C166 H157 0.930 . S
C166 C165 1.374 . S
C166 C167 1.383 . S
C167 O161 1.412 . S
C167 C166 1.383 . S
C167 C168 1.394 . S
C168 H158 0.929 . S
C168 C164 1.377 . S
C168 C167 1.394 . S
H169 C176 0.929 . S
H170 C179 0.930 . S
H171 C181 0.929 . S
H172 C173 0.969 . S
C173 H172 0.969 . S
C173 O174 1.550 . S
C173 H175 0.973 . S
O174 C173 1.550 . S
O174 C180 1.412 . S
H175 C173 0.973 . S
C176 H169 0.929 . S
C176 C177 1.400 . S
C176 C178 1.364 . S
C177 C176 1.400 . S
C177 C181 1.377 . S
C178 C176 1.364 . S
C178 C179 1.374 . S
C179 H170 0.930 . S
C179 C178 1.374 . S
C179 C180 1.383 . S
C180 O174 1.412 . S
C180 C179 1.383 . S
C180 C181 1.394 . S
C181 H171 0.929 . S
C181 C177 1.377 . S
C181 C180 1.394 . S
H182 C189 0.929 . S
H183 C192 0.930 . S
H184 C194 0.929 . S
H185 C186 0.969 . S
C186 H185 0.969 . S
C186 O187 1.550 . S
C186 H188 0.973 . S
O187 C186 1.550 . S
O187 C193 1.412 . S
H188 C186 0.973 . S
C189 H182 0.929 . S
C189 C190 1.400 . S
C189 C191 1.364 . S
C190 C189 1.400 . S
C190 C194 1.377 . S
C191 C189 1.364 . S
C191 C192 1.374 . S
C192 H183 0.930 . S
C192 C191 1.374 . S
C192 C193 1.383 . S
C193 O187 1.412 . S
C193 C192 1.383 . S
C193 C194 1.394 . S
C194 H184 0.929 . S
C194 C190 1.377 . S
C194 C193 1.394 . S
H195 C202 0.929 . S
H196 C205 0.930 . S
H197 C207 0.929 . S
H198 C199 0.969 . S
C199 H198 0.969 . S
C199 O200 1.550 . S
C199 H201 0.973 . S
O200 C199 1.550 . S
O200 C206 1.412 . S
H201 C199 0.973 . S
C202 H195 0.929 . S
C202 C203 1.400 . S
C202 C204 1.364 . S
C203 C202 1.400 . S
C203 C207 1.377 . S
C204 C202 1.364 . S
C204 C205 1.374 . S
C205 H196 0.930 . S
C205 C204 1.374 . S
C205 C206 1.383 . S
C206 O200 1.412 . S
C206 C205 1.383 . S
C206 C207 1.394 . S
C207 H197 0.929 . S
C207 C203 1.377 . S
C207 C206 1.394 . S
H208 C215 0.929 . S
H209 C218 0.930 . S
H210 C220 0.929 . S
H211 C212 0.969 . S
C212 H211 0.969 . S
C212 O213 1.550 . S
C212 H214 0.973 . S
O213 C212 1.550 . S
O213 C219 1.412 . S
H214 C212 0.973 . S
C215 H208 0.929 . S
C215 C216 1.400 . S
C215 C217 1.364 . S
C216 C215 1.400 . S
C216 C220 1.377 . S
C217 C215 1.364 . S
C217 C218 1.374 . S
C218 H209 0.930 . S
C218 C217 1.374 . S
C218 C219 1.383 . S
C219 O213 1.412 . S
C219 C218 1.383 . S
C219 C220 1.394 . S
C220 H210 0.929 . S
C220 C216 1.377 . S
C220 C219 1.394 . S
H221 C228 0.929 . S
H222 C231 0.930 . S
H223 C233 0.929 . S
H224 C225 0.969 . S
C225 H224 0.969 . S
C225 O226 1.550 . S
C225 H227 0.973 . S
O226 C225 1.550 . S
O226 C232 1.412 . S
H227 C225 0.973 . S
C228 H221 0.929 . S
C228 C229 1.400 . S
C228 C230 1.364 . S
C229 C228 1.400 . S
C229 C233 1.377 . S
C230 C228 1.364 . S
C230 C231 1.374 . S
C231 H222 0.930 . S
C231 C230 1.374 . S
C231 C232 1.383 . S
C232 O226 1.412 . S
C232 C231 1.383 . S
C232 C233 1.394 . S
C233 H223 0.929 . S
C233 C229 1.377 . S
C233 C232 1.394 . S
C234 Eu235 2.849 . S
C234 C236 1.488 1_545 S
C234 O254 1.216 1_545 S
C234 O255 1.315 . S
Eu235 C234 2.849 . S
Eu235 O254 2.473 1_545 S
Eu235 O255 2.480 . S
Eu235 O256 2.430 . S
Eu235 O257 2.670 . S
Eu235 O258 2.394 1_545 S
Eu235 O263 2.355 1_545 S
Eu235 O265 2.374 . S
C236 C234 1.488 1_565 S
C236 C237 1.377 1_565 S
C236 C241 1.377 . S
C237 C236 1.377 1_545 S
C237 C238 1.395 1_545 S
C237 H266 0.931 . S
C238 C237 1.395 1_565 S
C238 C239 1.383 . S
C238 H267 0.931 1_565 S
C239 C238 1.383 . S
C239 C240 1.394 . S
C240 C239 1.394 . S
C240 C241 1.378 . S
C240 H268 0.931 . S
C241 C236 1.377 . S
C241 C240 1.378 . S
C241 H269 0.931 . S
C242 O256 1.259 . S
C242 O257 1.270 . S
C243 O258 1.251 . S
C243 O259 1.251 . S
C244 Eu245 2.835 1_545 S
C244 C246 1.500 . S
C244 O260 1.257 . S
C244 O261 1.260 1_545 S
Eu245 C244 2.835 1_565 S
Eu245 O257 2.355 1_566 S
Eu245 O259 2.374 1_556 S
Eu245 O260 2.473 1_565 S
Eu245 O261 2.480 . S
Eu245 O262 2.430 . S
Eu245 O263 2.670 1_556 S
Eu245 O264 2.394 1_565 S
C246 C244 1.500 . S
C246 C247 1.377 . S
C246 C251 1.377 . S
C247 C246 1.377 . S
C247 C248 1.395 . S
C247 H270 0.931 1_545 S
C248 C247 1.395 . S
C248 C249 1.383 . S
C248 H271 0.931 . S
C249 C248 1.383 . S
C249 C250 1.394 . S
C250 C249 1.394 . S
C250 C251 1.378 . S
C250 H272 0.931 . S
C251 C246 1.377 . S
C251 C250 1.378 . S
C251 H273 0.931 . S
C252 O262 1.259 1_554 S
C252 O263 1.270 . S
C253 O264 1.251 1_554 S
C253 O265 1.251 . S
O254 C234 1.216 1_565 S
O254 Eu235 2.473 1_565 S
O255 C234 1.315 . S
O255 Eu235 2.480 . S
O256 Eu235 2.430 . S
O256 C242 1.259 . S
O257 Eu235 2.670 . S
O257 C242 1.270 . S
O257 Eu245 2.355 1_544 S
O258 Eu235 2.394 1_565 S
O258 C243 1.251 . S
O259 C243 1.251 . S
O259 Eu245 2.374 1_554 S
O260 C244 1.257 . S
O260 Eu245 2.473 1_545 S
O261 C244 1.260 1_565 S
O261 Eu245 2.480 . S
O262 Eu245 2.430 . S
O262 C252 1.259 1_556 S
O263 Eu235 2.355 1_565 S
O263 Eu245 2.670 1_554 S
O263 C252 1.270 . S
O264 Eu245 2.394 1_545 S
O264 C253 1.251 1_556 S
O265 Eu235 2.374 . S
O265 C253 1.251 . S
H266 C237 0.931 . S
H267 C238 0.931 1_545 S
H268 C240 0.931 . S
H269 C241 0.931 . S
H270 C247 0.931 1_565 S
H271 C248 0.931 . S
H272 C250 0.931 . S
H273 C251 0.931 . S
C274 Eu275 2.835 1_455 S
C274 C276 1.500 . S
C274 O294 1.257 . S
C274 O295 1.260 1_455 S
Eu275 C274 2.835 1_655 S
Eu275 O294 2.473 1_655 S
Eu275 O295 2.480 . S
Eu275 O296 2.430 . S
Eu275 O297 2.670 . S
Eu275 O298 2.394 1_655 S
Eu275 O303 2.355 1_655 S
Eu275 O305 2.374 . S
C276 C274 1.500 . S
C276 C277 1.377 . S
C276 C281 1.377 . S
C277 C276 1.377 . S
C277 C278 1.395 . S
C277 H306 0.931 1_455 S
C278 C277 1.395 . S
C278 C279 1.383 . S
C278 H307 0.931 . S
C279 C278 1.383 . S
C279 C280 1.394 . S
C280 C279 1.394 . S
C280 C281 1.378 . S
C280 H308 0.931 . S
C281 C276 1.377 . S
C281 C280 1.378 . S
C281 H309 0.931 . S
C282 O296 1.259 . S
C282 O297 1.270 . S
C283 O298 1.251 . S
C283 O299 1.251 . S
C284 Eu285 2.835 1_655 S
C284 C286 1.500 . S
C284 O300 1.257 . S
C284 O301 1.260 1_655 S
Eu285 C284 2.835 1_455 S
Eu285 O297 2.355 1_456 S
Eu285 O299 2.374 1_556 S
Eu285 O300 2.473 1_455 S
Eu285 O301 2.480 . S
Eu285 O302 2.430 . S
Eu285 O303 2.670 1_556 S
Eu285 O304 2.394 1_455 S
C286 C284 1.500 . S
C286 C287 1.364 1_655 S
C286 C291 1.377 . S
C287 C286 1.364 1_455 S
C287 C288 1.381 1_455 S
C287 H310 0.962 . S
C288 C287 1.381 1_655 S
C288 C289 1.383 . S
C288 H311 0.931 1_655 S
C289 C288 1.383 . S
C289 C290 1.394 . S
C290 C289 1.394 . S
C290 C291 1.378 . S
C290 H312 0.931 . S
C291 C286 1.377 . S
C291 C290 1.378 . S
C291 H313 0.931 . S
C292 O302 1.259 1_554 S
C292 O303 1.270 . S
C293 O304 1.289 . S
C293 O305 1.189 1_556 S
O294 C274 1.257 . S
O294 Eu275 2.473 1_455 S
O295 C274 1.260 1_655 S
O295 Eu275 2.480 . S
O296 Eu275 2.430 . S
O296 C282 1.259 . S
O297 Eu275 2.670 . S
O297 C282 1.270 . S
O297 Eu285 2.355 1_654 S
O298 Eu275 2.394 1_455 S
O298 C283 1.251 . S
O299 C283 1.251 . S
O299 Eu285 2.374 1_554 S
O300 C284 1.257 . S
O300 Eu285 2.473 1_655 S
O301 C284 1.260 1_455 S
O301 Eu285 2.480 . S
O302 Eu285 2.430 . S
O302 C292 1.259 1_556 S
O303 Eu275 2.355 1_455 S
O303 Eu285 2.670 1_554 S
O303 C292 1.270 . S
O304 Eu285 2.394 1_655 S
O304 C293 1.289 . S
O305 Eu275 2.374 . S
O305 C293 1.189 1_554 S
H306 C277 0.931 1_655 S
H307 C278 0.931 . S
H308 C280 0.931 . S
H309 C281 0.931 . S
H310 C287 0.962 . S
H311 C288 0.931 1_455 S
H312 C290 0.931 . S
H313 C291 0.931 . S
C314 Eu315 2.835 . S
C314 C316 1.500 . S
C314 O334 1.257 . S
C314 O335 1.260 . S
Eu315 C314 2.835 . S
Eu315 O334 2.473 . S
Eu315 O335 2.480 . S
Eu315 O336 2.430 1_556 S
Eu315 O337 2.670 1_556 S
Eu315 O338 2.394 . S
Eu315 O343 2.355 1_556 S
Eu315 O345 2.374 1_556 S
C316 C314 1.500 . S
C316 C317 1.377 . S
C316 C321 1.377 . S
C317 C316 1.377 . S
C317 C318 1.395 . S
C317 H346 0.931 . S
C318 C317 1.395 . S
C318 C319 1.383 . S
C318 H347 0.931 . S
C319 C318 1.383 . S
C319 C320 1.394 . S
C320 C319 1.394 . S
C320 C321 1.378 . S
C320 H348 0.931 . S
C321 C316 1.377 . S
C321 C320 1.378 . S
C321 H349 0.931 . S
C322 O336 1.259 . S
C322 O337 1.270 . S
C323 O338 1.251 1_554 S
C323 O339 1.251 . S
C324 Eu325 2.835 . S
C324 C326 1.500 . S
C324 O340 1.257 . S
C324 O341 1.260 . S
Eu325 C324 2.835 . S
Eu325 O337 2.355 . S
Eu325 O339 2.374 . S
Eu325 O340 2.473 . S
Eu325 O341 2.480 . S
Eu325 O342 2.430 . S
Eu325 O343 2.670 . S
Eu325 O344 2.394 . S
C326 C324 1.500 . S
C326 C327 1.377 . S
C326 C331 1.377 . S
C327 C326 1.377 . S
C327 C328 1.395 . S
C327 H350 0.931 . S
C328 C327 1.395 . S
C328 C329 1.383 . S
C328 H351 0.931 . S
C329 C328 1.383 . S
C329 C330 1.394 . S
C330 C329 1.394 . S
C330 C331 1.378 . S
C330 H352 0.931 . S
C331 C326 1.377 . S
C331 C330 1.378 . S
C331 H353 0.931 . S
C332 O342 1.259 . S
C332 O343 1.270 . S
C333 O344 1.251 . S
C333 O345 1.251 . S
O334 C314 1.257 . S
O334 Eu315 2.473 . S
O335 C314 1.260 . S
O335 Eu315 2.480 . S
O336 Eu315 2.430 1_554 S
O336 C322 1.259 . S
O337 Eu315 2.670 1_554 S
O337 C322 1.270 . S
O337 Eu325 2.355 . S
O338 Eu315 2.394 . S
O338 C323 1.251 1_556 S
O339 C323 1.251 . S
O339 Eu325 2.374 . S
O340 C324 1.257 . S
O340 Eu325 2.473 . S
O341 C324 1.260 . S
O341 Eu325 2.480 . S
O342 Eu325 2.430 . S
O342 C332 1.259 . S
O343 Eu315 2.355 1_554 S
O343 Eu325 2.670 . S
O343 C332 1.270 . S
O344 Eu325 2.394 . S
O344 C333 1.251 . S
O345 Eu315 2.374 1_554 S
O345 C333 1.251 . S
H346 C317 0.931 . S
H347 C318 0.931 . S
H348 C320 0.931 . S
H349 C321 0.931 . S
H350 C327 0.931 . S
H351 C328 0.931 . S
H352 C330 0.931 . S
H353 C331 0.931 . S
C354 Eu355 2.835 . S
C354 C356 1.500 . S
C354 O374 1.257 . S
C354 O375 1.260 . S
Eu355 C354 2.835 . S
Eu355 O374 2.473 . S
Eu355 O375 2.480 . S
Eu355 O376 2.430 . S
Eu355 O377 2.670 . S
Eu355 O378 2.394 . S
Eu355 O383 2.355 . S
Eu355 O385 2.374 . S
C356 C354 1.500 . S
C356 C357 1.377 . S
C356 C361 1.377 . S
C357 C356 1.377 . S
C357 C358 1.395 . S
C357 H386 0.931 . S
C358 C357 1.395 . S
C358 C359 1.383 . S
C358 H387 0.931 . S
C359 C358 1.383 . S
C359 C360 1.394 . S
C360 C359 1.394 . S
C360 C361 1.378 . S
C360 H388 0.931 . S
C361 C356 1.377 . S
C361 C360 1.378 . S
C361 H389 0.931 . S
C362 O376 1.259 . S
C362 O377 1.270 . S
C363 O378 1.251 . S
C363 O379 1.251 . S
C364 Eu365 2.835 . S
C364 C366 1.500 . S
C364 O380 1.257 . S
C364 O381 1.260 . S
Eu365 C364 2.835 . S
Eu365 O377 2.355 . S
Eu365 O379 2.374 . S
Eu365 O380 2.473 . S
Eu365 O381 2.480 . S
Eu365 O382 2.430 . S
Eu365 O383 2.670 . S
Eu365 O384 2.394 . S
C366 C364 1.500 . S
C366 C367 1.377 . S
C366 C371 1.377 . S
C367 C366 1.377 . S
C367 C368 1.395 . S
C367 H390 0.931 . S
C368 C367 1.395 . S
C368 C369 1.383 . S
C368 H391 0.931 . S
C369 C368 1.383 . S
C369 C370 1.394 . S
C370 C369 1.394 . S
C370 C371 1.378 . S
C370 H392 0.931 . S
C371 C366 1.377 . S
C371 C370 1.378 . S
C371 H393 0.931 . S
C372 O382 1.259 . S
C372 O383 1.270 . S
C373 O384 1.251 . S
C373 O385 1.251 . S
O374 C354 1.257 . S
O374 Eu355 2.473 . S
O375 C354 1.260 . S
O375 Eu355 2.480 . S
O376 Eu355 2.430 . S
O376 C362 1.259 . S
O377 Eu355 2.670 . S
O377 C362 1.270 . S
O377 Eu365 2.355 . S
O378 Eu355 2.394 . S
O378 C363 1.251 . S
O379 C363 1.251 . S
O379 Eu365 2.374 . S
O380 C364 1.257 . S
O380 Eu365 2.473 . S
O381 C364 1.260 . S
O381 Eu365 2.480 . S
O382 Eu365 2.430 . S
O382 C372 1.259 . S
O383 Eu355 2.355 . S
O383 Eu365 2.670 . S
O383 C372 1.270 . S
O384 Eu365 2.394 . S
O384 C373 1.251 . S
O385 Eu355 2.374 . S
O385 C373 1.251 . S
H386 C357 0.931 . S
H387 C358 0.931 . S
H388 C360 0.931 . S
H389 C361 0.931 . S
H390 C367 0.931 . S
H391 C368 0.931 . S
H392 C370 0.931 . S
H393 C371 0.931 . S
C394 Eu395 2.835 . S
C394 C396 1.500 . S
C394 O414 1.257 . S
C394 O415 1.260 . S
Eu395 C394 2.835 . S
Eu395 O414 2.473 . S
Eu395 O415 2.480 . S
Eu395 O416 2.430 . S
Eu395 O417 2.670 . S
Eu395 O418 2.394 . S
Eu395 O423 2.355 . S
Eu395 O425 2.374 . S
C396 C394 1.500 . S
C396 C397 1.377 . S
C396 C401 1.377 . S
C397 C396 1.377 . S
C397 C398 1.395 . S
C397 H426 0.931 . S
C398 C397 1.395 . S
C398 C399 1.383 . S
C398 H427 0.931 . S
C399 C398 1.383 . S
C399 C400 1.394 . S
C400 C399 1.394 . S
C400 C401 1.378 . S
C400 H428 0.931 . S
C401 C396 1.377 . S
C401 C400 1.378 . S
C401 H429 0.931 . S
C402 O416 1.259 . S
C402 O417 1.270 . S
C403 O418 1.251 . S
C403 O419 1.251 . S
C404 Eu405 2.835 . S
C404 C406 1.500 . S
C404 O420 1.257 . S
C404 O421 1.260 . S
Eu405 C404 2.835 . S
Eu405 O417 2.355 . S
Eu405 O419 2.374 . S
Eu405 O420 2.473 . S
Eu405 O421 2.480 . S
Eu405 O422 2.430 . S
Eu405 O423 2.670 . S
Eu405 O424 2.394 . S
C406 C404 1.500 . S
C406 C407 1.377 . S
C406 C411 1.377 . S
C407 C406 1.377 . S
C407 C408 1.395 . S
C407 H430 0.931 . S
C408 C407 1.395 . S
C408 C409 1.383 . S
C408 H431 0.931 . S
C409 C408 1.383 . S
C409 C410 1.394 . S
C410 C409 1.394 . S
C410 C411 1.378 . S
C410 H432 0.931 . S
C411 C406 1.377 . S
C411 C410 1.378 . S
C411 H433 0.931 . S
C412 O422 1.259 . S
C412 O423 1.270 . S
C413 O424 1.251 . S
C413 O425 1.251 . S
O414 C394 1.257 . S
O414 Eu395 2.473 . S
O415 C394 1.260 . S
O415 Eu395 2.480 . S
O416 Eu395 2.430 . S
O416 C402 1.259 . S
O417 Eu395 2.670 . S
O417 C402 1.270 . S
O417 Eu405 2.355 . S
O418 Eu395 2.394 . S
O418 C403 1.251 . S
O419 C403 1.251 . S
O419 Eu405 2.374 . S
O420 C404 1.257 . S
O420 Eu405 2.473 . S
O421 C404 1.260 . S
O421 Eu405 2.480 . S
O422 Eu405 2.430 . S
O422 C412 1.259 . S
O423 Eu395 2.355 . S
O423 Eu405 2.670 . S
O423 C412 1.270 . S
O424 Eu405 2.394 . S
O424 C413 1.251 . S
O425 Eu395 2.374 . S
O425 C413 1.251 . S
H426 C397 0.931 . S
H427 C398 0.931 . S
H428 C400 0.931 . S
H429 C401 0.931 . S
H430 C407 0.931 . S
H431 C408 0.931 . S
H432 C410 0.931 . S
H433 C411 0.931 . S
C434 Eu435 2.835 . S
C434 C436 1.500 . S
C434 O454 1.257 . S
C434 O455 1.260 . S
Eu435 C434 2.835 . S
Eu435 O454 2.473 . S
Eu435 O455 2.480 . S
Eu435 O456 2.430 . S
Eu435 O457 2.670 . S
Eu435 O458 2.394 . S
Eu435 O463 2.355 . S
Eu435 O465 2.374 . S
C436 C434 1.500 . S
C436 C437 1.377 . S
C436 C441 1.377 . S
C437 C436 1.377 . S
C437 C438 1.395 . S
C437 H466 0.931 . S
C438 C437 1.395 . S
C438 C439 1.383 . S
C438 H467 0.931 . S
C439 C438 1.383 . S
C439 C440 1.394 . S
C440 C439 1.394 . S
C440 C441 1.378 . S
C440 H468 0.931 . S
C441 C436 1.377 . S
C441 C440 1.378 . S
C441 H469 0.931 . S
C442 O456 1.259 . S
C442 O457 1.270 . S
C443 O458 1.251 . S
C443 O459 1.251 . S
C444 Eu445 2.835 . S
C444 C446 1.500 . S
C444 O460 1.257 . S
C444 O461 1.260 . S
Eu445 C444 2.835 . S
Eu445 O457 2.355 . S
Eu445 O459 2.374 . S
Eu445 O460 2.473 . S
Eu445 O461 2.480 . S
Eu445 O462 2.430 . S
Eu445 O463 2.670 . S
Eu445 O464 2.394 . S
C446 C444 1.500 . S
C446 C447 1.377 . S
C446 C451 1.377 . S
C447 C446 1.377 . S
C447 C448 1.395 . S
C447 H470 0.931 . S
C448 C447 1.395 . S
C448 C449 1.383 . S
C448 H471 0.931 . S
C449 C448 1.383 . S
C449 C450 1.394 . S
C450 C449 1.394 . S
C450 C451 1.378 . S
C450 H472 0.931 . S
C451 C446 1.377 . S
C451 C450 1.378 . S
C451 H473 0.931 . S
C452 O462 1.259 . S
C452 O463 1.270 . S
C453 O464 1.251 . S
C453 O465 1.251 . S
O454 C434 1.257 . S
O454 Eu435 2.473 . S
O455 C434 1.260 . S
O455 Eu435 2.480 . S
O456 Eu435 2.430 . S
O456 C442 1.259 . S
O457 Eu435 2.670 . S
O457 C442 1.270 . S
O457 Eu445 2.355 . S
O458 Eu435 2.394 . S
O458 C443 1.251 . S
O459 C443 1.251 . S
O459 Eu445 2.374 . S
O460 C444 1.257 . S
O460 Eu445 2.473 . S
O461 C444 1.260 . S
O461 Eu445 2.480 . S
O462 Eu445 2.430 . S
O462 C452 1.259 . S
O463 Eu435 2.355 . S
O463 Eu445 2.670 . S
O463 C452 1.270 . S
O464 Eu445 2.394 . S
O464 C453 1.251 . S
O465 Eu435 2.374 . S
O465 C453 1.251 . S
H466 C437 0.931 . S
H467 C438 0.931 . S
H468 C440 0.931 . S
H469 C441 0.931 . S
H470 C447 0.931 . S
H471 C448 0.931 . S
H472 C450 0.931 . S
H473 C451 0.931 . S
C474 Eu475 2.835 . S
C474 C476 1.500 . S
C474 O494 1.257 . S
C474 O495 1.260 . S
Eu475 C474 2.835 . S
Eu475 O494 2.473 . S
Eu475 O495 2.480 . S
Eu475 O496 2.430 . S
Eu475 O497 2.670 . S
Eu475 O498 2.394 . S
Eu475 O503 2.355 . S
Eu475 O505 2.374 . S
C476 C474 1.500 . S
C476 C477 1.377 . S
C476 C481 1.377 . S
C477 C476 1.377 . S
C477 C478 1.395 . S
C477 H506 0.931 . S
C478 C477 1.395 . S
C478 C479 1.383 . S
C478 H507 0.931 . S
C479 C478 1.383 . S
C479 C480 1.394 . S
C480 C479 1.394 . S
C480 C481 1.378 . S
C480 H508 0.931 . S
C481 C476 1.377 . S
C481 C480 1.378 . S
C481 H509 0.931 . S
C482 O496 1.259 . S
C482 O497 1.270 . S
C483 O498 1.251 . S
C483 O499 1.251 . S
C484 Eu485 2.835 . S
C484 C486 1.500 . S
C484 O500 1.257 . S
C484 O501 1.260 . S
Eu485 C484 2.835 . S
Eu485 O497 2.355 . S
Eu485 O499 2.374 . S
Eu485 O500 2.473 . S
Eu485 O501 2.480 . S
Eu485 O502 2.430 . S
Eu485 O503 2.670 . S
Eu485 O504 2.394 . S
C486 C484 1.500 . S
C486 C487 1.377 . S
C486 C491 1.377 . S
C487 C486 1.377 . S
C487 C488 1.395 . S
C487 H510 0.931 . S
C488 C487 1.395 . S
C488 C489 1.383 . S
C488 H511 0.931 . S
C489 C488 1.383 . S
C489 C490 1.394 . S
C490 C489 1.394 . S
C490 C491 1.378 . S
C490 H512 0.931 . S
C491 C486 1.377 . S
C491 C490 1.378 . S
C491 H513 0.931 . S
C492 O502 1.259 . S
C492 O503 1.270 . S
C493 O504 1.251 . S
C493 O505 1.251 . S
O494 C474 1.257 . S
O494 Eu475 2.473 . S
O495 C474 1.260 . S
O495 Eu475 2.480 . S
O496 Eu475 2.430 . S
O496 C482 1.259 . S
O497 Eu475 2.670 . S
O497 C482 1.270 . S
O497 Eu485 2.355 . S
O498 Eu475 2.394 . S
O498 C483 1.251 . S
O499 C483 1.251 . S
O499 Eu485 2.374 . S
O500 C484 1.257 . S
O500 Eu485 2.473 . S
O501 C484 1.260 . S
O501 Eu485 2.480 . S
O502 Eu485 2.430 . S
O502 C492 1.259 . S
O503 Eu475 2.355 . S
O503 Eu485 2.670 . S
O503 C492 1.270 . S
O504 Eu485 2.394 . S
O504 C493 1.251 . S
O505 Eu475 2.374 . S
O505 C493 1.251 . S
H506 C477 0.931 . S
H507 C478 0.931 . S
H508 C480 0.931 . S
H509 C481 0.931 . S
H510 C487 0.931 . S
H511 C488 0.931 . S
H512 C490 0.931 . S
H513 C491 0.931 . S
C514 Eu515 2.835 . S
C514 C516 1.500 . S
C514 O534 1.257 . S
C514 O535 1.260 . S
Eu515 C514 2.835 . S
Eu515 O534 2.473 . S
Eu515 O535 2.480 . S
Eu515 O536 2.430 . S
Eu515 O537 2.670 . S
Eu515 O538 2.394 . S
Eu515 O543 2.355 . S
Eu515 O545 2.374 . S
C516 C514 1.500 . S
C516 C517 1.377 . S
C516 C521 1.377 . S
C517 C516 1.377 . S
C517 C518 1.395 . S
C517 H546 0.931 . S
C518 C517 1.395 . S
C518 C519 1.383 . S
C518 H547 0.931 . S
C519 C518 1.383 . S
C519 C520 1.394 . S
C520 C519 1.394 . S
C520 C521 1.378 . S
C520 H548 0.931 . S
C521 C516 1.377 . S
C521 C520 1.378 . S
C521 H549 0.931 . S
C522 O536 1.259 . S
C522 O537 1.270 . S
C523 O538 1.251 . S
C523 O539 1.251 . S
C524 Eu525 2.835 . S
C524 C526 1.500 . S
C524 O540 1.257 . S
C524 O541 1.260 . S
Eu525 C524 2.835 . S
Eu525 O537 2.355 . S
Eu525 O539 2.374 . S
Eu525 O540 2.473 . S
Eu525 O541 2.480 . S
Eu525 O542 2.430 . S
Eu525 O543 2.670 . S
Eu525 O544 2.394 . S
C526 C524 1.500 . S
C526 C527 1.377 . S
C526 C531 1.377 . S
C527 C526 1.377 . S
C527 C528 1.395 . S
C527 H550 0.931 . S
C528 C527 1.395 . S
C528 C529 1.383 . S
C528 H551 0.931 . S
C529 C528 1.383 . S
C529 C530 1.394 . S
C530 C529 1.394 . S
C530 C531 1.378 . S
C530 H552 0.931 . S
C531 C526 1.377 . S
C531 C530 1.378 . S
C531 H553 0.931 . S
C532 O542 1.259 . S
C532 O543 1.270 . S
C533 O544 1.251 . S
C533 O545 1.251 . S
O534 C514 1.257 . S
O534 Eu515 2.473 . S
O535 C514 1.260 . S
O535 Eu515 2.480 . S
O536 Eu515 2.430 . S
O536 C522 1.259 . S
O537 Eu515 2.670 . S
O537 C522 1.270 . S
O537 Eu525 2.355 . S
O538 Eu515 2.394 . S
O538 C523 1.251 . S
O539 C523 1.251 . S
O539 Eu525 2.374 . S
O540 C524 1.257 . S
O540 Eu525 2.473 . S
O541 C524 1.260 . S
O541 Eu525 2.480 . S
O542 Eu525 2.430 . S
O542 C532 1.259 . S
O543 Eu515 2.355 . S
O543 Eu525 2.670 . S
O543 C532 1.270 . S
O544 Eu525 2.394 . S
O544 C533 1.251 . S
O545 Eu515 2.374 . S
O545 C533 1.251 . S
H546 C517 0.931 . S
H547 C518 0.931 . S
H548 C520 0.931 . S
H549 C521 0.931 . S
H550 C527 0.931 . S
H551 C528 0.931 . S
H552 C530 0.931 . S
H553 C531 0.931 . S
C554 Eu555 2.835 . S
C554 C556 1.500 . S
C554 O574 1.257 . S
C554 O575 1.260 . S
Eu555 C554 2.835 . S
Eu555 O574 2.473 . S
Eu555 O575 2.480 . S
Eu555 O576 2.430 . S
Eu555 O577 2.670 . S
Eu555 O578 2.394 . S
Eu555 O583 2.355 . S
Eu555 O585 2.374 . S
C556 C554 1.500 . S
C556 C557 1.377 . S
C556 C561 1.377 . S
C557 C556 1.377 . S
C557 C558 1.395 . S
C557 H586 0.931 . S
C558 C557 1.395 . S
C558 C559 1.383 . S
C558 H587 0.931 . S
C559 C558 1.383 . S
C559 C560 1.394 . S
C560 C559 1.394 . S
C560 C561 1.378 . S
C560 H588 0.931 . S
C561 C556 1.377 . S
C561 C560 1.378 . S
C561 H589 0.931 . S
C562 O576 1.259 . S
C562 O577 1.270 . S
C563 O578 1.251 . S
C563 O579 1.251 . S
C564 Eu565 2.835 . S
C564 C566 1.500 . S
C564 O580 1.257 . S
C564 O581 1.260 . S
Eu565 C564 2.835 . S
Eu565 O577 2.355 . S
Eu565 O579 2.374 . S
Eu565 O580 2.473 . S
Eu565 O581 2.480 . S
Eu565 O582 2.430 . S
Eu565 O583 2.670 . S
Eu565 O584 2.394 . S
C566 C564 1.500 . S
C566 C567 1.377 . S
C566 C571 1.377 . S
C567 C566 1.377 . S
C567 C568 1.395 . S
C567 H590 0.931 . S
C568 C567 1.395 . S
C568 C569 1.383 . S
C568 H591 0.931 . S
C569 C568 1.383 . S
C569 C570 1.394 . S
C570 C569 1.394 . S
C570 C571 1.378 . S
C570 H592 0.931 . S
C571 C566 1.377 . S
C571 C570 1.378 . S
C571 H593 0.931 . S
C572 O582 1.259 . S
C572 O583 1.270 . S
C573 O584 1.251 . S
C573 O585 1.251 . S
O574 C554 1.257 . S
O574 Eu555 2.473 . S
O575 C554 1.260 . S
O575 Eu555 2.480 . S
O576 Eu555 2.430 . S
O576 C562 1.259 . S
O577 Eu555 2.670 . S
O577 C562 1.270 . S
O577 Eu565 2.355 . S
O578 Eu555 2.394 . S
O578 C563 1.251 . S
O579 C563 1.251 . S
O579 Eu565 2.374 . S
O580 C564 1.257 . S
O580 Eu565 2.473 . S
O581 C564 1.260 . S
O581 Eu565 2.480 . S
O582 Eu565 2.430 . S
O582 C572 1.259 . S
O583 Eu555 2.355 . S
O583 Eu565 2.670 . S
O583 C572 1.270 . S
O584 Eu565 2.394 . S
O584 C573 1.251 . S
O585 Eu555 2.374 . S
O585 C573 1.251 . S
H586 C557 0.931 . S
H587 C558 0.931 . S
H588 C560 0.931 . S
H589 C561 0.931 . S
H590 C567 0.931 . S
H591 C568 0.931 . S
H592 C570 0.931 . S
H593 C571 0.931 . S
H594 C602 0.929 . S
H595 C604 0.930 . S
H596 C606 0.930 . S
H597 C609 0.929 . S
H598 C612 0.930 . S
H599 C614 0.960 . S
H600 C614 0.960 . S
H601 C614 0.960 . S
C602 H594 0.929 . S
C602 C603 1.377 . S
C602 C604 1.384 . S
C603 C602 1.377 . S
C603 C609 1.390 . S
C604 H595 0.930 . S
C604 C602 1.384 . S
C604 C605 1.372 . S
C605 C604 1.372 . S
C605 C606 1.400 . S
C605 C610 1.490 . S
C606 H596 0.930 . S
C606 C605 1.400 . S
C606 C609 1.386 . S
H607 C623 0.930 . S
H608 C624 0.931 . S
C609 H597 0.929 . S
C609 C603 1.390 . S
C609 C606 1.386 . S
C610 C605 1.490 . S
C610 C612 1.395 . S
C610 C613 1.403 . S
H611 C617 0.930 . S
C612 H598 0.930 . S
C612 C610 1.395 . S
C612 C615 1.403 . S
C613 C610 1.403 . S
C613 C614 1.524 . S
C613 C617 1.400 . S
C614 H599 0.960 . S
C614 H600 0.960 . S
C614 H601 0.960 . S
C614 C613 1.524 . S
C615 C612 1.403 . S
C615 C616 1.392 . S
C615 C619 1.495 . S
C616 C615 1.392 . S
C616 C617 1.385 . S
C616 C618 1.478 . S
C617 H611 0.930 . S
C617 C613 1.400 . S
C617 C616 1.385 . S
C618 C616 1.478 . S
C618 C620 1.381 . S
C618 C624 1.383 . S
C619 C615 1.495 . S
C619 H625 0.959 . S
C619 H626 0.961 . S
C619 H627 0.960 . S
C620 C618 1.381 . S
C620 C621 1.394 . S
C620 H628 0.930 . S
C621 C620 1.394 . S
C621 C622 1.383 . S
C621 H629 0.931 . S
C622 C621 1.383 . S
C622 C623 1.377 . S
C623 H607 0.930 . S
C623 C622 1.377 . S
C623 C624 1.379 . S
C624 H608 0.931 . S
C624 C618 1.383 . S
C624 C623 1.379 . S
H625 C619 0.959 . S
H626 C619 0.961 . S
H627 C619 0.960 . S
H628 C620 0.930 . S
H629 C621 0.931 . S
H630 C638 0.929 . S
H631 C640 0.930 . S
H632 C642 0.930 . S
H633 C645 0.929 . S
H634 C648 0.930 . S
H635 C650 0.960 . S
H636 C650 0.960 . S
H637 C650 0.960 . S
C638 H630 0.929 . S
C638 C639 1.377 . S
C638 C640 1.384 . S
C639 C638 1.377 . S
C639 C645 1.390 . S
C640 H631 0.930 . S
C640 C638 1.384 . S
C640 C641 1.372 . S
C641 C640 1.372 . S
C641 C642 1.400 . S
C641 C646 1.490 . S
C642 H632 0.930 . S
C642 C641 1.400 . S
C642 C645 1.386 . S
H643 C659 0.930 . S
H644 C660 0.931 . S
C645 H633 0.929 . S
C645 C639 1.390 . S
C645 C642 1.386 . S
C646 C641 1.490 . S
C646 C648 1.395 . S
C646 C649 1.403 . S
H647 C653 0.930 . S
C648 H634 0.930 . S
C648 C646 1.395 . S
C648 C651 1.403 . S
C649 C646 1.403 . S
C649 C650 1.524 . S
C649 C653 1.400 . S
C650 H635 0.960 . S
C650 H636 0.960 . S
C650 H637 0.960 . S
C650 C649 1.524 . S
C651 C648 1.403 . S
C651 C652 1.392 . S
C651 C655 1.495 . S
C652 C651 1.392 . S
C652 C653 1.385 . S
C652 C654 1.478 . S
C653 H647 0.930 . S
C653 C649 1.400 . S
C653 C652 1.385 . S
C654 C652 1.478 . S
C654 C656 1.381 . S
C654 C660 1.383 . S
C655 C651 1.495 . S
C655 H661 0.959 . S
C655 H662 0.961 . S
C655 H663 0.960 . S
C656 C654 1.381 . S
C656 C657 1.394 . S
C656 H664 0.930 . S
C657 C656 1.394 . S
C657 C658 1.383 . S
C657 H665 0.929 . S
C658 C657 1.383 . S
C658 C659 1.377 . S
C659 H643 0.930 . S
C659 C658 1.377 . S
C659 C660 1.379 . S
C660 H644 0.931 . S
C660 C654 1.383 . S
C660 C659 1.379 . S
H661 C655 0.959 . S
H662 C655 0.961 . S
H663 C655 0.960 . S
H664 C656 0.930 . S
H665 C657 0.929 . S
H666 C674 0.929 . S
H667 C676 0.930 . S
H668 C678 0.930 . S
H669 C681 0.929 . S
H670 C684 0.930 . S
H671 C686 0.960 . S
H672 C686 0.960 . S
H673 C686 0.960 . S
C674 H666 0.929 . S
C674 C675 1.377 . S
C674 C676 1.384 . S
C675 C674 1.377 . S
C675 C681 1.390 . S
C676 H667 0.930 . S
C676 C674 1.384 . S
C676 C677 1.372 . S
C677 C676 1.372 . S
C677 C678 1.400 . S
C677 C682 1.490 . S
C678 H668 0.930 . S
C678 C677 1.400 . S
C678 C681 1.386 . S
H679 C695 0.930 . S
H680 C696 0.931 . S
C681 H669 0.929 . S
C681 C675 1.390 . S
C681 C678 1.386 . S
C682 C677 1.490 . S
C682 C684 1.395 . S
C682 C685 1.403 . S
H683 C689 0.930 . S
C684 H670 0.930 . S
C684 C682 1.395 . S
C684 C687 1.403 . S
C685 C682 1.403 . S
C685 C686 1.524 . S
C685 C689 1.400 . S
C686 H671 0.960 . S
C686 H672 0.960 . S
C686 H673 0.960 . S
C686 C685 1.524 . S
C687 C684 1.403 . S
C687 C688 1.392 . S
C687 C691 1.495 1_554 S
C688 C687 1.392 . S
C688 C689 1.385 . S
C688 C690 1.478 . S
C689 H683 0.930 . S
C689 C685 1.400 . S
C689 C688 1.385 . S
C690 C688 1.478 . S
C690 C692 1.381 . S
C690 C696 1.383 . S
C691 C687 1.495 1_556 S
C691 H697 0.959 . S
C691 H698 0.963 . S
C691 H699 0.960 . S
C692 C690 1.381 . S
C692 C693 1.394 . S
C692 H700 0.930 . S
C693 C692 1.394 . S
C693 C694 1.383 . S
C693 H701 0.929 . S
C694 C693 1.383 . S
C694 C695 1.377 . S
C695 H679 0.930 . S
C695 C694 1.377 . S
C695 C696 1.379 . S
C696 H680 0.931 . S
C696 C690 1.383 . S
C696 C695 1.379 . S
H697 C691 0.959 . S
H698 C691 0.963 . S
H699 C691 0.960 . S
H700 C692 0.930 . S
H701 C693 0.929 . S
H702 C710 0.929 . S
H703 C712 0.930 . S
H704 C714 0.930 . S
H705 C717 0.929 . S
H706 C720 0.930 1_554 S
H707 C722 0.960 . S
H708 C722 0.960 . S
H709 C722 0.960 . S
C710 H702 0.929 . S
C710 C711 1.377 . S
C710 C712 1.384 . S
C711 C710 1.377 . S
C711 C717 1.390 . S
C712 H703 0.930 . S
C712 C710 1.384 . S
C712 C713 1.372 . S
C713 C712 1.372 . S
C713 C714 1.400 . S
C713 C718 1.490 . S
C714 H704 0.930 . S
C714 C713 1.400 . S
C714 C717 1.386 . S
H715 C731 0.938 . S
H716 C732 0.931 . S
C717 H705 0.929 . S
C717 C711 1.390 . S
C717 C714 1.386 . S
C718 C713 1.490 . S
C718 C720 1.395 . S
C718 C721 1.403 . S
H719 C725 0.930 . S
C720 H706 0.930 1_556 S
C720 C718 1.395 . S
C720 C723 1.403 1_556 S
C721 C718 1.403 . S
C721 C722 1.524 . S
C721 C725 1.400 . S
C722 H707 0.960 . S
C722 H708 0.960 . S
C722 H709 0.960 . S
C722 C721 1.524 . S
C723 C720 1.403 1_554 S
C723 C724 1.392 1_554 S
C723 C727 1.495 . S
C724 C723 1.392 1_556 S
C724 C725 1.385 . S
C724 C726 1.478 . S
C725 H719 0.930 . S
C725 C721 1.400 . S
C725 C724 1.385 . S
C726 C724 1.478 . S
C726 C728 1.388 . S
C726 C732 1.383 . S
C727 C723 1.495 . S
C727 H733 0.959 . S
C727 H734 0.961 . S
C727 H735 0.960 . S
C728 C726 1.388 . S
C728 C729 1.393 1_556 S
C728 H736 0.928 . S
C729 C728 1.393 1_554 S
C729 C730 1.383 . S
C729 H737 0.929 . S
C730 C729 1.383 . S
C730 C731 1.368 1_554 S
C731 H715 0.938 . S
C731 C730 1.368 1_556 S
C731 C732 1.385 . S
C732 H716 0.931 . S
C732 C726 1.383 . S
C732 C731 1.385 . S
H733 C727 0.959 . S
H734 C727 0.961 . S
H735 C727 0.960 . S
H736 C728 0.928 . S
H737 C729 0.929 . S
H738 C746 0.929 . S
H739 C748 0.930 . S
H740 C750 0.930 . S
H741 C753 0.929 . S
H742 C756 0.930 . S
H743 C758 0.960 . S
H744 C758 0.960 . S
H745 C758 0.960 . S
C746 H738 0.929 . S
C746 C747 1.377 . S
C746 C748 1.384 . S
C747 C746 1.377 . S
C747 C753 1.390 . S
C748 H739 0.930 . S
C748 C746 1.384 . S
C748 C749 1.372 . S
C749 C748 1.372 . S
C749 C750 1.400 . S
C749 C754 1.490 . S
C750 H740 0.930 . S
C750 C749 1.400 . S
C750 C753 1.386 . S
H751 C767 0.930 . S
H752 C768 0.931 . S
C753 H741 0.929 . S
C753 C747 1.390 . S
C753 C750 1.386 . S
C754 C749 1.490 . S
C754 C756 1.395 . S
C754 C757 1.403 . S
H755 C761 0.930 . S
C756 H742 0.930 . S
C756 C754 1.395 . S
C756 C759 1.403 . S
C757 C754 1.403 . S
C757 C758 1.524 . S
C757 C761 1.400 . S
C758 H743 0.960 . S
C758 H744 0.960 . S
C758 H745 0.960 . S
C758 C757 1.524 . S
C759 C756 1.403 . S
C759 C760 1.392 . S
C759 C763 1.495 1_556 S
C760 C759 1.392 . S
C760 C761 1.385 . S
C760 C762 1.478 . S
C761 H755 0.930 . S
C761 C757 1.400 . S
C761 C760 1.385 . S
C762 C760 1.478 . S
C762 C764 1.381 1_556 S
C762 C768 1.383 . S
C763 C759 1.495 1_554 S
C763 H769 0.959 . S
C763 H770 0.961 . S
C763 H771 0.960 . S
C764 C762 1.381 1_554 S
C764 C765 1.394 . S
C764 H772 0.930 . S
C765 C764 1.394 . S
C765 C766 1.351 1_554 S
C765 H773 0.929 . S
C766 C765 1.351 1_556 S
C766 C767 1.434 . S
C767 H751 0.930 . S
C767 C766 1.434 . S
C767 C768 1.379 . S
C768 H752 0.931 . S
C768 C762 1.383 . S
C768 C767 1.379 . S
H769 C763 0.959 . S
H770 C763 0.961 . S
H771 C763 0.960 . S
H772 C764 0.930 . S
H773 C765 0.929 . S
H774 C782 0.929 1_554 S
H775 C784 0.930 1_554 S
H776 C786 0.930 . S
H777 C789 0.929 . S
H778 C792 0.930 . S
H779 C794 0.960 . S
H780 C794 0.960 1_554 S
H781 C794 0.960 . S
C782 H774 0.929 1_556 S
C782 C783 1.377 . S
C782 C784 1.384 . S
C783 C782 1.377 . S
C783 C789 1.390 . S
C784 H775 0.930 1_556 S
C784 C782 1.384 . S
C784 C785 1.372 . S
C785 C784 1.372 . S
C785 C786 1.400 . S
C785 C790 1.490 . S
C786 H776 0.930 . S
C786 C785 1.400 . S
C786 C789 1.386 . S
H787 C803 0.930 . S
H788 C804 0.931 . S
C789 H777 0.929 . S
C789 C783 1.390 . S
C789 C786 1.386 . S
C790 C785 1.490 . S
C790 C792 1.395 . S
C790 C793 1.403 . S
H791 C797 0.930 . S
C792 H778 0.930 . S
C792 C790 1.395 . S
C792 C795 1.403 . S
C793 C790 1.403 . S
C793 C794 1.524 . S
C793 C797 1.400 . S
C794 H779 0.960 . S
C794 H780 0.960 1_556 S
C794 H781 0.960 . S
C794 C793 1.524 . S
C795 C792 1.403 . S
C795 C796 1.392 . S
C795 C799 1.495 . S
C796 C795 1.392 . S
C796 C797 1.385 . S
C796 C798 1.479 . S
C797 H791 0.930 . S
C797 C793 1.400 . S
C797 C796 1.385 . S
C798 C796 1.479 . S
C798 C800 1.372 1_556 S
C798 C804 1.390 . S
C799 C795 1.495 . S
C799 H805 0.959 . S
C799 H806 0.961 . S
C799 H807 0.960 1_556 S
C800 C798 1.372 1_554 S
C800 C801 1.394 . S
C800 H808 0.930 . S
C801 C800 1.394 . S
C801 C802 1.383 . S
C801 H809 0.929 . S
C802 C801 1.383 . S
C802 C803 1.377 1_554 S
C803 H787 0.930 . S
C803 C802 1.377 1_556 S
C803 C804 1.379 . S
C804 H788 0.931 . S
C804 C798 1.390 . S
C804 C803 1.379 . S
H805 C799 0.959 . S
H806 C799 0.961 . S
H807 C799 0.960 1_554 S
H808 C800 0.930 . S
H809 C801 0.929 . S
H810 C818 0.929 . S
H811 C820 0.930 . S
H812 C822 0.930 . S
H813 C825 0.929 . S
H814 C828 0.930 . S
H815 C830 0.960 . S
H816 C830 0.960 . S
H817 C830 0.960 . S
C818 H810 0.929 . S
C818 C819 1.377 . S
C818 C820 1.384 . S
C819 C818 1.377 . S
C819 C825 1.390 . S
C820 H811 0.930 . S
C820 C818 1.384 . S
C820 C821 1.372 . S
C821 C820 1.372 . S
C821 C822 1.400 . S
C821 C826 1.490 . S
C822 H812 0.930 . S
C822 C821 1.400 . S
C822 C825 1.386 . S
H823 C839 0.930 . S
H824 C840 0.931 . S
C825 H813 0.929 . S
C825 C819 1.390 . S
C825 C822 1.386 . S
C826 C821 1.490 . S
C826 C828 1.395 . S
C826 C829 1.403 . S
H827 C833 0.930 . S
C828 H814 0.930 . S
C828 C826 1.395 . S
C828 C831 1.403 . S
C829 C826 1.403 . S
C829 C830 1.524 . S
C829 C833 1.400 . S
C830 H815 0.960 . S
C830 H816 0.960 . S
C830 H817 0.960 . S
C830 C829 1.524 . S
C831 C828 1.403 . S
C831 C832 1.392 . S
C831 C835 1.505 . S
C832 C831 1.392 . S
C832 C833 1.385 . S
C832 C834 1.478 . S
C833 H827 0.930 . S
C833 C829 1.400 . S
C833 C832 1.385 . S
C834 C832 1.478 . S
C834 C836 1.381 . S
C834 C840 1.383 1_556 S
C835 C831 1.505 . S
C835 H841 0.958 1_556 S
C835 H842 0.943 1_556 S
C835 H843 0.969 . S
C836 C834 1.381 . S
C836 C837 1.394 . S
C836 H844 0.930 . S
C837 C836 1.394 . S
C837 C838 1.383 . S
C837 H845 0.929 . S
C838 C837 1.383 . S
C838 C839 1.377 1_556 S
C839 H823 0.930 . S
C839 C838 1.377 1_554 S
C839 C840 1.379 . S
C840 H824 0.931 . S
C840 C834 1.383 1_554 S
C840 C839 1.379 . S
H841 C835 0.958 1_554 S
H842 C835 0.943 1_554 S
H843 C835 0.969 . S
H844 C836 0.930 . S
H845 C837 0.929 . S
H846 C854 0.929 . S
H847 C856 0.930 . S
H848 C858 0.930 . S
H849 C861 0.929 . S
H850 C864 0.930 . S
H851 C866 0.960 . S
H852 C866 0.960 . S
H853 C866 0.960 . S
C854 H846 0.929 . S
C854 C855 1.377 . S
C854 C856 1.384 . S
C855 C854 1.377 . S
C855 C861 1.390 . S
C856 H847 0.930 . S
C856 C854 1.384 . S
C856 C857 1.372 . S
C857 C856 1.372 . S
C857 C858 1.400 . S
C857 C862 1.490 . S
C858 H848 0.930 . S
C858 C857 1.400 . S
C858 C861 1.386 . S
H859 C875 0.930 . S
H860 C876 0.931 . S
C861 H849 0.929 . S
C861 C855 1.390 . S
C861 C858 1.386 . S
C862 C857 1.490 . S
C862 C864 1.395 . S
C862 C865 1.403 . S
H863 C869 0.930 . S
C864 H850 0.930 . S
C864 C862 1.395 . S
C864 C867 1.403 . S
C865 C862 1.403 . S
C865 C866 1.524 . S
C865 C869 1.400 . S
C866 H851 0.960 . S
C866 H852 0.960 . S
C866 H853 0.960 . S
C866 C865 1.524 . S
C867 C864 1.403 . S
C867 C868 1.392 . S
C867 C871 1.495 1_556 S
C868 C867 1.392 . S
C868 C869 1.385 . S
C868 C870 1.478 . S
C869 H863 0.930 . S
C869 C865 1.400 . S
C869 C868 1.385 . S
C870 C868 1.478 . S
C870 C872 1.376 1_556 S
C870 C876 1.383 . S
C871 C867 1.495 1_554 S
C871 H877 0.959 . S
C871 H878 0.961 . S
C871 H879 0.960 . S
C872 C870 1.376 1_554 S
C872 C873 1.395 . S
C872 H880 0.934 . S
C873 C872 1.395 . S
C873 C874 1.383 1_554 S
C873 H881 0.929 . S
C874 C873 1.383 1_556 S
C874 C875 1.377 . S
C875 H859 0.930 . S
C875 C874 1.377 . S
C875 C876 1.379 . S
C876 H860 0.931 . S
C876 C870 1.383 . S
C876 C875 1.379 . S
H877 C871 0.959 . S
H878 C871 0.961 . S
H879 C871 0.960 . S
H880 C872 0.934 . S
H881 C873 0.929 . S
H882 C890 0.929 . S
H883 C892 0.930 . S
H884 C894 0.930 . S
H885 C897 0.929 . S
H886 C900 0.930 . S
H887 C902 0.960 . S
H888 C902 0.960 . S
H889 C902 0.960 . S
C890 H882 0.929 . S
C890 C891 1.377 1_554 S
C890 C892 1.384 . S
C891 C890 1.377 1_556 S
C891 C897 1.390 . S
C892 H883 0.930 . S
C892 C890 1.384 . S
C892 C893 1.372 1_554 S
C893 C892 1.372 1_556 S
C893 C894 1.400 . S
C893 C898 1.490 . S
C894 H884 0.930 . S
C894 C893 1.400 . S
C894 C897 1.386 . S
H895 C911 0.930 . S
H896 C912 0.931 . S
C897 H885 0.929 . S
C897 C891 1.390 . S
C897 C894 1.386 . S
C898 C893 1.490 . S
C898 C900 1.395 1_556 S
C898 C901 1.403 . S
H899 C905 0.930 . S
C900 H886 0.930 . S
C900 C898 1.395 1_554 S
C900 C903 1.403 . S
C901 C898 1.403 . S
C901 C902 1.524 . S
C901 C905 1.400 . S
C902 H887 0.960 . S
C902 H888 0.960 . S
C902 H889 0.960 . S
C902 C901 1.524 . S
C903 C900 1.403 . S
C903 C904 1.392 . S
C903 C907 1.495 . S
C904 C903 1.392 . S
C904 C905 1.385 1_554 S
C904 C906 1.478 . S
C905 H899 0.930 . S
C905 C901 1.400 . S
C905 C904 1.385 1_556 S
C906 C904 1.478 . S
C906 C908 1.381 . S
C906 C912 1.383 1_554 S
C907 C903 1.495 . S
C907 H913 0.959 . S
C907 H914 0.961 . S
C907 H915 0.960 . S
C908 C906 1.381 . S
C908 C909 1.394 . S
C908 H916 0.930 . S
C909 C908 1.394 . S
C909 C910 1.383 . S
C909 H917 0.929 . S
C910 C909 1.383 . S
C910 C911 1.377 1_554 S
C911 H895 0.930 . S
C911 C910 1.377 1_556 S
C911 C912 1.379 . S
C912 H896 0.931 . S
C912 C906 1.383 1_556 S
C912 C911 1.379 . S
H913 C907 0.959 . S
H914 C907 0.961 . S
H915 C907 0.960 . S
H916 C908 0.930 . S
H917 C909 0.929 . S
H918 C926 0.929 . S
H919 C928 0.930 . S
H920 C930 0.930 . S
H921 C933 0.929 . S
H922 C936 0.930 . S
H923 C938 0.960 . S
H924 C938 0.960 . S
H925 C938 0.960 . S
C926 H918 0.929 . S
C926 C927 1.377 . S
C926 C928 1.384 . S
C927 C926 1.377 . S
C927 C933 1.390 . S
C928 H919 0.930 . S
C928 C926 1.384 . S
C928 C929 1.372 . S
C929 C928 1.372 . S
C929 C930 1.400 . S
C929 C934 1.490 . S
C930 H920 0.930 . S
C930 C929 1.400 . S
C930 C933 1.386 . S
H931 C947 0.930 . S
H932 C948 0.931 . S
C933 H921 0.929 . S
C933 C927 1.390 . S
C933 C930 1.386 . S
C934 C929 1.490 . S
C934 C936 1.395 . S
C934 C937 1.403 . S
H935 C941 0.930 . S
C936 H922 0.930 . S
C936 C934 1.395 . S
C936 C939 1.403 . S
C937 C934 1.403 . S
C937 C938 1.524 . S
C937 C941 1.400 . S
C938 H923 0.960 . S
C938 H924 0.960 . S
C938 H925 0.960 . S
C938 C937 1.524 . S
C939 C936 1.403 . S
C939 C940 1.392 . S
C939 C943 1.495 . S
C940 C939 1.392 . S
C940 C941 1.385 . S
C940 C942 1.478 . S
C941 H935 0.930 . S
C941 C937 1.400 . S
C941 C940 1.385 . S
C942 C940 1.478 . S
C942 C944 1.381 . S
C942 C948 1.383 . S
C943 C939 1.495 . S
C943 H949 0.959 . S
C943 H950 0.961 . S
C943 H951 0.960 . S
C944 C942 1.381 . S
C944 C945 1.394 . S
C944 H952 0.930 . S
C945 C944 1.394 . S
C945 C946 1.383 . S
C945 H953 0.929 . S
C946 C945 1.383 . S
C946 C947 1.377 . S
C947 H931 0.930 . S
C947 C946 1.377 . S
C947 C948 1.379 . S
C948 H932 0.931 . S
C948 C942 1.383 . S
C948 C947 1.379 . S
H949 C943 0.959 . S
H950 C943 0.961 . S
H951 C943 0.960 . S
H952 C944 0.930 . S
H953 C945 0.929 . S
H954 C962 0.929 . S
H955 C964 0.930 . S
H956 C966 0.930 . S
H957 C969 0.929 . S
H958 C972 0.930 . S
H959 C974 0.960 . S
H960 C974 0.960 . S
H961 C974 0.960 . S
C962 H954 0.929 . S
C962 C963 1.377 . S
C962 C964 1.384 . S
C963 C962 1.377 . S
C963 C969 1.390 . S
C964 H955 0.930 . S
C964 C962 1.384 . S
C964 C965 1.372 . S
C965 C964 1.372 . S
C965 C966 1.400 . S
C965 C970 1.490 . S
C966 H956 0.930 . S
C966 C965 1.400 . S
C966 C969 1.386 . S
H967 C983 0.930 . S
H968 C984 0.931 . S
C969 H957 0.929 . S
C969 C963 1.390 . S
C969 C966 1.386 . S
C970 C965 1.490 . S
C970 C972 1.395 . S
C970 C973 1.403 . S
H971 C977 0.930 . S
C972 H958 0.930 . S
C972 C970 1.395 . S
C972 C975 1.403 . S
C973 C970 1.403 . S
C973 C974 1.524 . S
C973 C977 1.400 . S
C974 H959 0.960 . S
C974 H960 0.960 . S
C974 H961 0.960 . S
C974 C973 1.524 . S
C975 C972 1.403 . S
C975 C976 1.392 . S
C975 C979 1.495 . S
C976 C975 1.392 . S
C976 C977 1.385 . S
C976 C978 1.478 . S
C977 H971 0.930 . S
C977 C973 1.400 . S
C977 C976 1.385 . S
C978 C976 1.478 . S
C978 C980 1.381 . S
C978 C984 1.383 . S
C979 C975 1.495 . S
C979 H985 0.959 . S
C979 H986 0.961 . S
C979 H987 0.960 . S
C980 C978 1.381 . S
C980 C981 1.394 . S
C980 H988 0.930 . S
C981 C980 1.394 . S
C981 C982 1.383 . S
C981 H989 0.929 . S
C982 C981 1.383 . S
C982 C983 1.377 . S
C983 H967 0.930 . S
C983 C982 1.377 . S
C983 C984 1.379 . S
C984 H968 0.931 . S
C984 C978 1.383 . S
C984 C983 1.379 . S
H985 C979 0.959 . S
H986 C979 0.961 . S
H987 C979 0.960 . S
H988 C980 0.930 . S
H989 C981 0.929 . S
H990 C998 0.929 . S
H991 C1000 0.930 . S
H992 C1002 0.930 . S
H993 C1005 0.929 . S
H994 C1008 0.930 . S
H995 C1010 0.960 . S
H996 C1010 0.960 . S
H997 C1010 0.960 . S
C998 H990 0.929 . S
C998 C999 1.377 . S
C998 C1000 1.384 . S
C999 C998 1.377 . S
C999 C1005 1.390 . S
C1000 H991 0.930 . S
C1000 C998 1.384 . S
C1000 C1001 1.372 . S
C1001 C1000 1.372 . S
C1001 C1002 1.400 . S
C1001 C1006 1.490 . S
C1002 H992 0.930 . S
C1002 C1001 1.400 . S
C1002 C1005 1.386 . S
H1003 C1019 0.930 . S
H1004 C1020 0.931 . S
C1005 H993 0.929 . S
C1005 C999 1.390 . S
C1005 C1002 1.386 . S
C1006 C1001 1.490 . S
C1006 C1008 1.395 . S
C1006 C1009 1.403 . S
H1007 C1013 0.930 . S
C1008 H994 0.930 . S
C1008 C1006 1.395 . S
C1008 C1011 1.403 . S
C1009 C1006 1.403 . S
C1009 C1010 1.524 . S
C1009 C1013 1.400 . S
C1010 H995 0.960 . S
C1010 H996 0.960 . S
C1010 H997 0.960 . S
C1010 C1009 1.524 . S
C1011 C1008 1.403 . S
C1011 C1012 1.392 . S
C1011 C1015 1.495 . S
C1012 C1011 1.392 . S
C1012 C1013 1.385 . S
C1012 C1014 1.478 . S
C1013 H1007 0.930 . S
C1013 C1009 1.400 . S
C1013 C1012 1.385 . S
C1014 C1012 1.478 . S
C1014 C1016 1.381 . S
C1014 C1020 1.383 . S
C1015 C1011 1.495 . S
C1015 H1021 0.959 . S
C1015 H1022 0.961 . S
C1015 H1023 0.960 . S
C1016 C1014 1.381 . S
C1016 C1017 1.394 . S
C1016 H1024 0.930 1_554 S
C1017 C1016 1.394 . S
C1017 C1018 1.383 . S
C1017 H1025 0.929 1_554 S
C1018 C1017 1.383 . S
C1018 C1019 1.377 . S
C1019 H1003 0.930 . S
C1019 C1018 1.377 . S
C1019 C1020 1.379 . S
C1020 H1004 0.931 . S
C1020 C1014 1.383 . S
C1020 C1019 1.379 . S
H1021 C1015 0.959 . S
H1022 C1015 0.961 . S
H1023 C1015 0.960 . S
H1024 C1016 0.930 1_556 S
H1025 C1017 0.929 1_556 S
H1026 C1034 0.929 . S
H1027 C1036 0.930 . S
H1028 C1038 0.930 . S
H1029 C1041 0.929 . S
H1030 C1044 0.930 . S
H1031 C1046 0.960 . S
H1032 C1046 0.960 . S
H1033 C1046 0.960 . S
C1034 H1026 0.929 . S
C1034 C1035 1.377 . S
C1034 C1036 1.384 . S
C1035 C1034 1.377 . S
C1035 C1041 1.390 . S
C1036 H1027 0.930 . S
C1036 C1034 1.384 . S
C1036 C1037 1.372 . S
C1037 C1036 1.372 . S
C1037 C1038 1.400 . S
C1037 C1042 1.490 . S
C1038 H1028 0.930 . S
C1038 C1037 1.400 . S
C1038 C1041 1.386 . S
H1039 C1055 0.930 . S
H1040 C1056 0.931 . S
C1041 H1029 0.929 . S
C1041 C1035 1.390 . S
C1041 C1038 1.386 . S
C1042 C1037 1.490 . S
C1042 C1044 1.395 . S
C1042 C1045 1.403 . S
H1043 C1049 0.930 . S
C1044 H1030 0.930 . S
C1044 C1042 1.395 . S
C1044 C1047 1.403 1_655 S
C1045 C1042 1.403 . S
C1045 C1046 1.524 . S
C1045 C1049 1.400 1_655 S
C1046 H1031 0.960 . S
C1046 H1032 0.960 . S
C1046 H1033 0.960 . S
C1046 C1045 1.524 . S
C1047 C1044 1.403 1_455 S
C1047 C1048 1.392 . S
C1047 C1051 1.495 . S
C1048 C1047 1.392 . S
C1048 C1049 1.385 . S
C1048 C1050 1.478 . S
C1049 H1043 0.930 . S
C1049 C1045 1.400 1_455 S
C1049 C1048 1.385 . S
C1050 C1048 1.478 . S
C1050 C1052 1.381 . S
C1050 C1056 1.383 . S
C1051 C1047 1.495 . S
C1051 H1057 0.959 . S
C1051 H1058 0.961 . S
C1051 H1059 0.960 . S
C1052 C1050 1.381 . S
C1052 C1053 1.394 . S
C1052 H1060 0.930 . S
C1053 C1052 1.394 . S
C1053 C1054 1.383 . S
C1053 H1061 0.929 . S
C1054 C1053 1.383 . S
C1054 C1055 1.377 . S
C1055 H1039 0.930 . S
C1055 C1054 1.377 . S
C1055 C1056 1.379 . S
C1056 H1040 0.931 . S
C1056 C1050 1.383 . S
C1056 C1055 1.379 . S
H1057 C1051 0.959 . S
H1058 C1051 0.961 . S
H1059 C1051 0.960 . S
H1060 C1052 0.930 . S
H1061 C1053 0.929 . S
H1062 C1070 0.929 . S
H1063 C1072 0.930 . S
H1064 C1074 0.930 . S
H1065 C1077 0.929 . S
H1066 C1080 0.930 . S
H1067 C1082 0.960 . S
H1068 C1082 0.960 . S
H1069 C1082 0.960 . S
C1070 H1062 0.929 . S
C1070 C1071 1.377 . S
C1070 C1072 1.384 . S
C1071 C1070 1.377 . S
C1071 C1077 1.390 . S
C1072 H1063 0.930 . S
C1072 C1070 1.384 . S
C1072 C1073 1.372 . S
C1073 C1072 1.372 . S
C1073 C1074 1.400 . S
C1073 C1078 1.490 . S
C1074 H1064 0.930 . S
C1074 C1073 1.400 . S
C1074 C1077 1.386 . S
H1075 C1091 0.930 . S
H1076 C1092 0.931 . S
C1077 H1065 0.929 . S
C1077 C1071 1.390 . S
C1077 C1074 1.386 . S
C1078 C1073 1.490 . S
C1078 C1080 1.395 . S
C1078 C1081 1.403 . S
H1079 C1085 0.930 . S
C1080 H1066 0.930 . S
C1080 C1078 1.395 . S
C1080 C1083 1.403 . S
C1081 C1078 1.403 . S
C1081 C1082 1.524 . S
C1081 C1085 1.400 . S
C1082 H1067 0.960 . S
C1082 H1068 0.960 . S
C1082 H1069 0.960 . S
C1082 C1081 1.524 . S
C1083 C1080 1.403 . S
C1083 C1084 1.392 . S
C1083 C1087 1.495 . S
C1084 C1083 1.392 . S
C1084 C1085 1.385 . S
C1084 C1086 1.478 . S
C1085 H1079 0.930 . S
C1085 C1081 1.400 . S
C1085 C1084 1.385 . S
C1086 C1084 1.478 . S
C1086 C1088 1.381 . S
C1086 C1092 1.383 . S
C1087 C1083 1.495 . S
C1087 H1093 0.959 . S
C1087 H1094 0.961 . S
C1087 H1095 0.960 . S
C1088 C1086 1.381 . S
C1088 C1089 1.394 . S
C1088 H1096 0.930 . S
C1089 C1088 1.394 . S
C1089 C1090 1.383 . S
C1089 H1097 0.929 . S
C1090 C1089 1.383 . S
C1090 C1091 1.377 . S
C1091 H1075 0.930 . S
C1091 C1090 1.377 . S
C1091 C1092 1.379 . S
C1092 H1076 0.931 . S
C1092 C1086 1.383 . S
C1092 C1091 1.379 . S
H1093 C1087 0.959 . S
H1094 C1087 0.961 . S
H1095 C1087 0.960 . S
H1096 C1088 0.930 . S
H1097 C1089 0.929 . S
H1098 C1106 0.929 . S
H1099 C1108 0.930 . S
H1100 C1110 0.930 . S
H1101 C1113 0.929 . S
H1102 C1116 0.930 . S
H1103 C1118 0.960 . S
H1104 C1118 0.960 . S
H1105 C1118 0.960 . S
C1106 H1098 0.929 . S
C1106 C1107 1.377 . S
C1106 C1108 1.384 . S
C1107 C1106 1.377 . S
C1107 C1113 1.390 . S
C1108 H1099 0.930 . S
C1108 C1106 1.384 . S
C1108 C1109 1.372 . S
C1109 C1108 1.372 . S
C1109 C1110 1.400 . S
C1109 C1114 1.490 . S
C1110 H1100 0.930 . S
C1110 C1109 1.400 . S
C1110 C1113 1.386 . S
H1111 C1127 0.930 . S
H1112 C1128 0.931 . S
C1113 H1101 0.929 . S
C1113 C1107 1.390 . S
C1113 C1110 1.386 . S
C1114 C1109 1.490 . S
C1114 C1116 1.395 . S
C1114 C1117 1.403 . S
H1115 C1121 0.910 1_565 S
C1116 H1102 0.930 . S
C1116 C1114 1.395 . S
C1116 C1119 1.403 . S
C1117 C1114 1.403 . S
C1117 C1118 1.524 . S
C1117 C1121 1.448 . S
C1118 H1103 0.960 . S
C1118 H1104 0.960 . S
C1118 H1105 0.960 . S
C1118 C1117 1.524 . S
C1119 C1116 1.403 . S
C1119 C1120 1.392 1_545 S
C1119 C1123 1.495 . S
C1120 C1119 1.392 1_565 S
C1120 C1121 1.358 1_565 S
C1120 C1122 1.478 . S
C1121 H1115 0.910 1_545 S
C1121 C1117 1.448 . S
C1121 C1120 1.358 1_545 S
C1122 C1120 1.478 . S
C1122 C1124 1.381 . S
C1122 C1128 1.383 . S
C1123 C1119 1.495 . S
C1123 H1129 0.959 . S
C1123 H1130 0.961 . S
C1123 H1131 0.961 1_545 S
C1124 C1122 1.381 . S
C1124 C1125 1.394 . S
C1124 H1132 0.930 . S
C1125 C1124 1.394 . S
C1125 C1126 1.383 . S
C1125 H1133 0.929 . S
C1126 C1125 1.383 . S
C1126 C1127 1.377 . S
C1127 H1111 0.930 . S
C1127 C1126 1.377 . S
C1127 C1128 1.379 . S
C1128 H1112 0.931 . S
C1128 C1122 1.383 . S
C1128 C1127 1.379 . S
H1129 C1123 0.959 . S
H1130 C1123 0.961 . S
H1131 C1123 0.961 1_565 S
H1132 C1124 0.930 . S
H1133 C1125 0.929 . S
H1134 C1142 0.929 . S
H1135 C1144 0.930 . S
H1136 C1146 0.930 . S
H1137 C1149 0.929 . S
H1138 C1152 0.930 . S
H1139 C1154 0.960 . S
H1140 C1154 0.960 . S
H1141 C1154 0.960 . S
C1142 H1134 0.929 . S
C1142 C1143 1.377 . S
C1142 C1144 1.384 . S
C1143 C1142 1.377 . S
C1143 C1149 1.390 . S
C1144 H1135 0.930 . S
C1144 C1142 1.384 . S
C1144 C1145 1.372 . S
C1145 C1144 1.372 . S
C1145 C1146 1.400 . S
C1145 C1150 1.490 . S
C1146 H1136 0.930 . S
C1146 C1145 1.400 . S
C1146 C1149 1.386 . S
H1147 C1163 0.930 . S
H1148 C1164 0.931 . S
C1149 H1137 0.929 . S
C1149 C1143 1.390 . S
C1149 C1146 1.386 . S
C1150 C1145 1.490 . S
C1150 C1152 1.395 . S
C1150 C1153 1.403 . S
H1151 C1157 0.930 . S
C1152 H1138 0.930 . S
C1152 C1150 1.395 . S
C1152 C1155 1.403 . S
C1153 C1150 1.403 . S
C1153 C1154 1.524 . S
C1153 C1157 1.400 . S
C1154 H1139 0.960 . S
C1154 H1140 0.960 . S
C1154 H1141 0.960 . S
C1154 C1153 1.524 . S
C1155 C1152 1.403 . S
C1155 C1156 1.392 . S
C1155 C1159 1.495 . S
C1156 C1155 1.392 . S
C1156 C1157 1.385 . S
C1156 C1158 1.478 . S
C1157 H1151 0.930 . S
C1157 C1153 1.400 . S
C1157 C1156 1.385 . S
C1158 C1156 1.478 . S
C1158 C1160 1.381 . S
C1158 C1164 1.383 . S
C1159 C1155 1.495 . S
C1159 H1165 0.959 . S
C1159 H1166 0.961 . S
C1159 H1167 0.960 . S
C1160 C1158 1.381 . S
C1160 C1161 1.394 . S
C1160 H1168 0.930 . S
C1161 C1160 1.394 . S
C1161 C1162 1.383 . S
C1161 H1169 0.929 . S
C1162 C1161 1.383 . S
C1162 C1163 1.377 . S
C1163 H1147 0.930 . S
C1163 C1162 1.377 . S
C1163 C1164 1.379 . S
C1164 H1148 0.931 . S
C1164 C1158 1.383 . S
C1164 C1163 1.379 . S
H1165 C1159 0.959 . S
H1166 C1159 0.961 . S
H1167 C1159 0.960 . S
H1168 C1160 0.930 . S
H1169 C1161 0.929 . S
H1170 C1178 0.929 . S
H1171 C1180 0.930 . S
H1172 C1182 0.930 . S
H1173 C1185 0.929 . S
H1174 C1188 0.930 . S
H1175 C1190 0.960 . S
H1176 C1190 0.960 . S
H1177 C1190 0.960 . S
C1178 H1170 0.929 . S
C1178 C1179 1.377 . S
C1178 C1180 1.384 . S
C1179 C1178 1.377 . S
C1179 C1185 1.390 . S
C1180 H1171 0.930 . S
C1180 C1178 1.384 . S
C1180 C1181 1.372 . S
C1181 C1180 1.372 . S
C1181 C1182 1.400 . S
C1181 C1186 1.490 . S
C1182 H1172 0.930 . S
C1182 C1181 1.400 . S
C1182 C1185 1.386 . S
H1183 C1199 0.930 . S
H1184 C1200 0.931 . S
C1185 H1173 0.929 . S
C1185 C1179 1.390 . S
C1185 C1182 1.386 . S
C1186 C1181 1.490 . S
C1186 C1188 1.395 . S
C1186 C1189 1.403 . S
H1187 C1193 0.930 . S
C1188 H1174 0.930 . S
C1188 C1186 1.395 . S
C1188 C1191 1.403 . S
C1189 C1186 1.403 . S
C1189 C1190 1.524 . S
C1189 C1193 1.400 . S
C1190 H1175 0.960 . S
C1190 H1176 0.960 . S
C1190 H1177 0.960 . S
C1190 C1189 1.524 . S
C1191 C1188 1.403 . S
C1191 C1192 1.392 . S
C1191 C1195 1.495 . S
C1192 C1191 1.392 . S
C1192 C1193 1.385 . S
C1192 C1194 1.478 . S
C1193 H1187 0.930 . S
C1193 C1189 1.400 . S
C1193 C1192 1.385 . S
C1194 C1192 1.478 . S
C1194 C1196 1.381 . S
C1194 C1200 1.383 . S
C1195 C1191 1.495 . S
C1195 H1201 0.959 . S
C1195 H1202 0.961 . S
C1195 H1203 0.960 . S
C1196 C1194 1.381 . S
C1196 C1197 1.394 . S
C1196 H1204 0.930 . S
C1197 C1196 1.394 . S
C1197 C1198 1.383 . S
C1197 H1205 0.929 . S
C1198 C1197 1.383 . S
C1198 C1199 1.377 . S
C1199 H1183 0.930 . S
C1199 C1198 1.377 . S
C1199 C1200 1.379 . S
C1200 H1184 0.931 . S
C1200 C1194 1.383 . S
C1200 C1199 1.379 . S
H1201 C1195 0.959 . S
H1202 C1195 0.961 . S
H1203 C1195 0.960 . S
H1204 C1196 0.930 . S
H1205 C1197 0.929 . S
H1206 C1214 0.929 . S
H1207 C1216 0.930 . S
H1208 C1218 0.930 . S
H1209 C1221 0.929 . S
H1210 C1224 0.930 . S
H1211 C1226 0.960 . S
H1212 C1226 0.960 . S
H1213 C1226 0.960 . S
C1214 H1206 0.929 . S
C1214 C1215 1.377 . S
C1214 C1216 1.384 . S
C1215 C1214 1.377 . S
C1215 C1221 1.390 . S
C1216 H1207 0.930 . S
C1216 C1214 1.384 . S
C1216 C1217 1.372 . S
C1217 C1216 1.372 . S
C1217 C1218 1.400 . S
C1217 C1222 1.490 . S
C1218 H1208 0.930 . S
C1218 C1217 1.400 . S
C1218 C1221 1.386 . S
H1219 C1235 0.930 . S
H1220 C1236 0.931 . S
C1221 H1209 0.929 . S
C1221 C1215 1.390 . S
C1221 C1218 1.386 . S
C1222 C1217 1.490 . S
C1222 C1224 1.395 . S
C1222 C1225 1.403 . S
H1223 C1229 0.930 . S
C1224 H1210 0.930 . S
C1224 C1222 1.395 . S
C1224 C1227 1.403 . S
C1225 C1222 1.403 . S
C1225 C1226 1.524 . S
C1225 C1229 1.400 . S
C1226 H1211 0.960 . S
C1226 H1212 0.960 . S
C1226 H1213 0.960 . S
C1226 C1225 1.524 . S
C1227 C1224 1.403 . S
C1227 C1228 1.392 . S
C1227 C1231 1.495 . S
C1228 C1227 1.392 . S
C1228 C1229 1.385 . S
C1228 C1230 1.478 . S
C1229 H1223 0.930 . S
C1229 C1225 1.400 . S
C1229 C1228 1.385 . S
C1230 C1228 1.478 . S
C1230 C1232 1.381 . S
C1230 C1236 1.383 . S
C1231 C1227 1.495 . S
C1231 H1237 0.959 . S
C1231 H1238 0.961 . S
C1231 H1239 0.960 . S
C1232 C1230 1.381 . S
C1232 C1233 1.394 . S
C1232 H1240 0.930 . S
C1233 C1232 1.394 . S
C1233 C1234 1.383 . S
C1233 H1241 0.929 . S
C1234 C1233 1.383 . S
C1234 C1235 1.377 . S
C1235 H1219 0.930 . S
C1235 C1234 1.377 . S
C1235 C1236 1.379 . S
C1236 H1220 0.931 . S
C1236 C1230 1.383 . S
C1236 C1235 1.379 . S
H1237 C1231 0.959 . S
H1238 C1231 0.961 . S
H1239 C1231 0.960 . S
H1240 C1232 0.930 . S
H1241 C1233 0.929 . S
H1242 C1250 0.929 . S
H1243 C1252 0.930 . S
H1244 C1254 0.930 . S
H1245 C1257 0.929 . S
H1246 C1260 0.930 . S
H1247 C1262 0.960 . S
H1248 C1262 0.960 . S
H1249 C1262 0.960 . S
C1250 H1242 0.929 . S
C1250 C1251 1.377 . S
C1250 C1252 1.384 . S
C1251 C1250 1.377 . S
C1251 C1257 1.390 . S
C1252 H1243 0.930 . S
C1252 C1250 1.384 . S
C1252 C1253 1.372 . S
C1253 C1252 1.372 . S
C1253 C1254 1.400 . S
C1253 C1258 1.490 . S
C1254 H1244 0.930 . S
C1254 C1253 1.400 . S
C1254 C1257 1.386 . S
H1255 C1271 0.930 . S
H1256 C1272 0.931 . S
C1257 H1245 0.929 . S
C1257 C1251 1.390 . S
C1257 C1254 1.386 . S
C1258 C1253 1.490 . S
C1258 C1260 1.395 . S
C1258 C1261 1.403 . S
H1259 C1265 0.930 . S
C1260 H1246 0.930 . S
C1260 C1258 1.395 . S
C1260 C1263 1.403 . S
C1261 C1258 1.403 . S
C1261 C1262 1.524 . S
C1261 C1265 1.400 . S
C1262 H1247 0.960 . S
C1262 H1248 0.960 . S
C1262 H1249 0.960 . S
C1262 C1261 1.524 . S
C1263 C1260 1.403 . S
C1263 C1264 1.392 . S
C1263 C1267 1.495 . S
C1264 C1263 1.392 . S
C1264 C1265 1.385 . S
C1264 C1266 1.478 . S
C1265 H1259 0.930 . S
C1265 C1261 1.400 . S
C1265 C1264 1.385 . S
C1266 C1264 1.478 . S
C1266 C1268 1.381 . S
C1266 C1272 1.383 . S
C1267 C1263 1.495 . S
C1267 H1273 0.959 . S
C1267 H1274 0.961 . S
C1267 H1275 0.960 . S
C1268 C1266 1.381 . S
C1268 C1269 1.394 . S
C1268 H1276 0.930 . S
C1269 C1268 1.394 . S
C1269 C1270 1.383 . S
C1269 H1277 0.929 . S
C1270 C1269 1.383 . S
C1270 C1271 1.377 . S
C1271 H1255 0.930 . S
C1271 C1270 1.377 . S
C1271 C1272 1.379 . S
C1272 H1256 0.931 . S
C1272 C1266 1.383 . S
C1272 C1271 1.379 . S
H1273 C1267 0.959 . S
H1274 C1267 0.961 . S
H1275 C1267 0.960 . S
H1276 C1268 0.930 . S
H1277 C1269 0.929 . S
H1278 C1286 0.929 . S
H1279 C1288 0.930 . S
H1280 C1290 0.930 . S
H1281 C1293 0.929 . S
H1282 C1296 0.930 . S
H1283 C1298 0.960 . S
H1284 C1298 0.960 . S
H1285 C1298 0.960 . S
C1286 H1278 0.929 . S
C1286 C1287 1.377 . S
C1286 C1288 1.384 . S
C1287 C1286 1.377 . S
C1287 C1293 1.390 . S
C1288 H1279 0.930 . S
C1288 C1286 1.384 . S
C1288 C1289 1.372 . S
C1289 C1288 1.372 . S
C1289 C1290 1.400 . S
C1289 C1294 1.490 . S
C1290 H1280 0.930 . S
C1290 C1289 1.400 . S
C1290 C1293 1.386 . S
H1291 C1307 0.930 . S
H1292 C1308 0.931 . S
C1293 H1281 0.929 . S
C1293 C1287 1.390 . S
C1293 C1290 1.386 . S
C1294 C1289 1.490 . S
C1294 C1296 1.395 . S
C1294 C1297 1.403 . S
H1295 C1301 0.930 . S
C1296 H1282 0.930 . S
C1296 C1294 1.395 . S
C1296 C1299 1.403 . S
C1297 C1294 1.403 . S
C1297 C1298 1.524 . S
C1297 C1301 1.400 . S
C1298 H1283 0.960 . S
C1298 H1284 0.960 . S
C1298 H1285 0.960 . S
C1298 C1297 1.524 . S
C1299 C1296 1.403 . S
C1299 C1300 1.392 . S
C1299 C1303 1.495 . S
C1300 C1299 1.392 . S
C1300 C1301 1.385 . S
C1300 C1302 1.478 . S
C1301 H1295 0.930 . S
C1301 C1297 1.400 . S
C1301 C1300 1.385 . S
C1302 C1300 1.478 . S
C1302 C1304 1.381 . S
C1302 C1308 1.383 . S
C1303 C1299 1.495 . S
C1303 H1309 0.959 . S
C1303 H1310 0.961 . S
C1303 H1311 0.960 . S
C1304 C1302 1.381 . S
C1304 C1305 1.394 . S
C1304 H1312 0.930 . S
C1305 C1304 1.394 . S
C1305 C1306 1.383 . S
C1305 H1313 0.929 . S
C1306 C1305 1.383 . S
C1306 C1307 1.377 . S
C1307 H1291 0.930 . S
C1307 C1306 1.377 . S
C1307 C1308 1.379 . S
C1308 H1292 0.931 . S
C1308 C1302 1.383 . S
C1308 C1307 1.379 . S
H1309 C1303 0.959 . S
H1310 C1303 0.961 . S
H1311 C1303 0.960 . S
H1312 C1304 0.930 . S
H1313 C1305 0.929 . S
H1314 C1322 0.929 . S
H1315 C1324 0.930 . S
H1316 C1326 0.930 . S
H1317 C1329 0.929 . S
H1318 C1332 0.930 . S
H1319 C1334 0.960 . S
H1320 C1334 0.960 . S
H1321 C1334 0.960 . S
C1322 H1314 0.929 . S
C1322 C1323 1.377 . S
C1322 C1324 1.384 . S
C1323 C1322 1.377 . S
C1323 C1329 1.390 . S
C1324 H1315 0.930 . S
C1324 C1322 1.384 . S
C1324 C1325 1.372 . S
C1325 C1324 1.372 . S
C1325 C1326 1.400 . S
C1325 C1330 1.490 . S
C1326 H1316 0.930 . S
C1326 C1325 1.400 . S
C1326 C1329 1.386 . S
H1327 C1343 0.930 . S
H1328 C1344 0.931 . S
C1329 H1317 0.929 . S
C1329 C1323 1.390 . S
C1329 C1326 1.386 . S
C1330 C1325 1.490 . S
C1330 C1332 1.395 . S
C1330 C1333 1.403 . S
H1331 C1337 0.930 . S
C1332 H1318 0.930 . S
C1332 C1330 1.395 . S
C1332 C1335 1.403 . S
C1333 C1330 1.403 . S
C1333 C1334 1.524 . S
C1333 C1337 1.400 . S
C1334 H1319 0.960 . S
C1334 H1320 0.960 . S
C1334 H1321 0.960 . S
C1334 C1333 1.524 . S
C1335 C1332 1.403 . S
C1335 C1336 1.392 . S
C1335 C1339 1.495 . S
C1336 C1335 1.392 . S
C1336 C1337 1.385 . S
C1336 C1338 1.478 . S
C1337 H1331 0.930 . S
C1337 C1333 1.400 . S
C1337 C1336 1.385 . S
C1338 C1336 1.478 . S
C1338 C1340 1.381 . S
C1338 C1344 1.383 . S
C1339 C1335 1.495 . S
C1339 H1345 0.959 . S
C1339 H1346 0.961 . S
C1339 H1347 0.960 . S
C1340 C1338 1.381 . S
C1340 C1341 1.394 . S
C1340 H1348 0.930 . S
C1341 C1340 1.394 . S
C1341 C1342 1.383 . S
C1341 H1349 0.929 . S
C1342 C1341 1.383 . S
C1342 C1343 1.377 . S
C1343 H1327 0.930 . S
C1343 C1342 1.377 . S
C1343 C1344 1.379 . S
C1344 H1328 0.931 . S
C1344 C1338 1.383 . S
C1344 C1343 1.379 . S
H1345 C1339 0.959 . S
H1346 C1339 0.961 . S
H1347 C1339 0.960 . S
H1348 C1340 0.930 . S
H1349 C1341 0.929 . S
H1350 C1358 0.929 . S
H1351 C1360 0.930 . S
H1352 C1362 0.930 . S
H1353 C1365 0.929 . S
H1354 C1368 0.930 . S
H1355 C1370 0.960 . S
H1356 C1370 0.960 . S
H1357 C1370 0.960 . S
C1358 H1350 0.929 . S
C1358 C1359 1.377 . S
C1358 C1360 1.384 . S
C1359 C1358 1.377 . S
C1359 C1365 1.390 . S
C1360 H1351 0.930 . S
C1360 C1358 1.384 . S
C1360 C1361 1.372 . S
C1361 C1360 1.372 . S
C1361 C1362 1.400 . S
C1361 C1366 1.490 1_545 S
C1362 H1352 0.930 . S
C1362 C1361 1.400 . S
C1362 C1365 1.386 . S
H1363 C1379 0.930 . S
H1364 C1380 0.931 . S
C1365 H1353 0.929 . S
C1365 C1359 1.390 . S
C1365 C1362 1.386 . S
C1366 C1361 1.490 1_565 S
C1366 C1368 1.395 . S
C1366 C1369 1.403 . S
H1367 C1373 0.930 . S
C1368 H1354 0.930 . S
C1368 C1366 1.395 . S
C1368 C1371 1.403 . S
C1369 C1366 1.403 . S
C1369 C1370 1.524 . S
C1369 C1373 1.400 . S
C1370 H1355 0.960 . S
C1370 H1356 0.960 . S
C1370 H1357 0.960 . S
C1370 C1369 1.524 . S
C1371 C1368 1.403 . S
C1371 C1372 1.392 . S
C1371 C1375 1.495 . S
C1372 C1371 1.392 . S
C1372 C1373 1.385 . S
C1372 C1374 1.478 . S
C1373 H1367 0.930 . S
C1373 C1369 1.400 . S
C1373 C1372 1.385 . S
C1374 C1372 1.478 . S
C1374 C1376 1.381 . S
C1374 C1380 1.383 . S
C1375 C1371 1.495 . S
C1375 H1381 0.959 . S
C1375 H1382 0.961 . S
C1375 H1383 0.960 . S
C1376 C1374 1.381 . S
C1376 C1377 1.394 . S
C1376 H1384 0.930 . S
C1377 C1376 1.394 . S
C1377 C1378 1.383 . S
C1377 H1385 0.929 . S
C1378 C1377 1.383 . S
C1378 C1379 1.377 . S
C1379 H1363 0.930 . S
C1379 C1378 1.377 . S
C1379 C1380 1.379 . S
C1380 H1364 0.931 . S
C1380 C1374 1.383 . S
C1380 C1379 1.379 . S
H1381 C1375 0.959 . S
H1382 C1375 0.961 . S
H1383 C1375 0.960 . S
H1384 C1376 0.930 . S
H1385 C1377 0.929 . S
H1386 C1394 0.929 . S
H1387 C1396 0.930 . S
H1388 C1398 0.930 1_455 S
H1389 C1401 0.929 . S
H1390 C1404 0.930 . S
H1391 C1406 0.960 . S
H1392 C1406 0.960 . S
H1393 C1406 0.960 . S
C1394 H1386 0.929 . S
C1394 C1395 1.377 . S
C1394 C1396 1.384 1_655 S
C1395 C1394 1.377 . S
C1395 C1401 1.390 . S
C1396 H1387 0.930 . S
C1396 C1394 1.384 1_455 S
C1396 C1397 1.372 . S
C1397 C1396 1.372 . S
C1397 C1398 1.400 1_455 S
C1397 C1402 1.490 . S
C1398 H1388 0.930 1_655 S
C1398 C1397 1.400 1_655 S
C1398 C1401 1.386 . S
H1399 C1415 0.930 . S
H1400 C1416 0.931 . S
C1401 H1389 0.929 . S
C1401 C1395 1.390 . S
C1401 C1398 1.386 . S
C1402 C1397 1.490 . S
C1402 C1404 1.395 . S
C1402 C1405 1.403 . S
H1403 C1409 0.930 . S
C1404 H1390 0.930 . S
C1404 C1402 1.395 . S
C1404 C1407 1.403 . S
C1405 C1402 1.403 . S
C1405 C1406 1.524 . S
C1405 C1409 1.400 . S
C1406 H1391 0.960 . S
C1406 H1392 0.960 . S
C1406 H1393 0.960 . S
C1406 C1405 1.524 . S
C1407 C1404 1.403 . S
C1407 C1408 1.392 . S
C1407 C1411 1.495 . S
C1408 C1407 1.392 . S
C1408 C1409 1.385 . S
C1408 C1410 1.478 . S
C1409 H1403 0.930 . S
C1409 C1405 1.400 . S
C1409 C1408 1.385 . S
C1410 C1408 1.478 . S
C1410 C1412 1.381 . S
C1410 C1416 1.383 . S
C1411 C1407 1.495 . S
C1411 H1417 0.959 . S
C1411 H1418 0.961 . S
C1411 H1419 0.960 . S
C1412 C1410 1.381 . S
C1412 C1413 1.394 . S
C1412 H1420 0.930 . S
C1413 C1412 1.394 . S
C1413 C1414 1.383 . S
C1413 H1421 0.929 . S
C1414 C1413 1.383 . S
C1414 C1415 1.377 . S
C1415 H1399 0.930 . S
C1415 C1414 1.377 . S
C1415 C1416 1.379 . S
C1416 H1400 0.931 . S
C1416 C1410 1.383 . S
C1416 C1415 1.379 . S
H1417 C1411 0.959 . S
H1418 C1411 0.961 . S
H1419 C1411 0.960 . S
H1420 C1412 0.930 . S
H1421 C1413 0.929 . S
H1422 C1430 0.929 . S
H1423 C1432 0.930 . S
H1424 C1434 0.930 . S
H1425 C1437 0.929 . S
H1426 C1440 0.930 . S
H1427 C1442 0.960 . S
H1428 C1442 0.960 . S
H1429 C1442 0.960 . S
C1430 H1422 0.929 . S
C1430 C1431 1.377 . S
C1430 C1432 1.384 . S
C1431 C1430 1.377 . S
C1431 C1437 1.390 . S
C1432 H1423 0.930 . S
C1432 C1430 1.384 . S
C1432 C1433 1.372 . S
C1433 C1432 1.372 . S
C1433 C1434 1.400 . S
C1433 C1438 1.490 . S
C1434 H1424 0.930 . S
C1434 C1433 1.400 . S
C1434 C1437 1.386 . S
H1435 C1451 0.930 . S
H1436 C1452 0.931 . S
C1437 H1425 0.929 . S
C1437 C1431 1.390 . S
C1437 C1434 1.386 . S
C1438 C1433 1.490 . S
C1438 C1440 1.395 . S
C1438 C1441 1.403 . S
H1439 C1445 0.930 . S
C1440 H1426 0.930 . S
C1440 C1438 1.395 . S
C1440 C1443 1.403 . S
C1441 C1438 1.403 . S
C1441 C1442 1.524 . S
C1441 C1445 1.400 . S
C1442 H1427 0.960 . S
C1442 H1428 0.960 . S
C1442 H1429 0.960 . S
C1442 C1441 1.524 . S
C1443 C1440 1.403 . S
C1443 C1444 1.392 . S
C1443 C1447 1.495 . S
C1444 C1443 1.392 . S
C1444 C1445 1.385 . S
C1444 C1446 1.478 . S
C1445 H1439 0.930 . S
C1445 C1441 1.400 . S
C1445 C1444 1.385 . S
C1446 C1444 1.478 . S
C1446 C1448 1.381 . S
C1446 C1452 1.383 . S
C1447 C1443 1.495 . S
C1447 H1453 0.959 . S
C1447 H1454 0.961 . S
C1447 H1455 0.960 . S
C1448 C1446 1.381 . S
C1448 C1449 1.394 . S
C1448 H1456 0.930 . S
C1449 C1448 1.394 . S
C1449 C1450 1.383 . S
C1449 H1457 0.929 . S
C1450 C1449 1.383 . S
C1450 C1451 1.377 . S
C1451 H1435 0.930 . S
C1451 C1450 1.377 . S
C1451 C1452 1.379 . S
C1452 H1436 0.931 . S
C1452 C1446 1.383 . S
C1452 C1451 1.379 . S
H1453 C1447 0.959 . S
H1454 C1447 0.961 . S
H1455 C1447 0.960 . S
H1456 C1448 0.930 . S
H1457 C1449 0.929 . S
H1458 C1466 0.929 . S
H1459 C1468 0.930 . S
H1460 C1470 0.930 . S
H1461 C1473 0.929 . S
H1462 C1476 0.930 . S
H1463 C1478 0.960 . S
H1464 C1478 0.960 . S
H1465 C1478 0.960 . S
C1466 H1458 0.929 . S
C1466 C1467 1.377 . S
C1466 C1468 1.384 . S
C1467 C1466 1.377 . S
C1467 C1473 1.390 . S
C1468 H1459 0.930 . S
C1468 C1466 1.384 . S
C1468 C1469 1.372 . S
C1469 C1468 1.372 . S
C1469 C1470 1.400 . S
C1469 C1474 1.490 . S
C1470 H1460 0.930 . S
C1470 C1469 1.400 . S
C1470 C1473 1.386 . S
H1471 C1487 0.930 . S
H1472 C1488 0.931 . S
C1473 H1461 0.929 . S
C1473 C1467 1.390 . S
C1473 C1470 1.386 . S
C1474 C1469 1.490 . S
C1474 C1476 1.395 . S
C1474 C1477 1.403 . S
H1475 C1481 0.930 . S
C1476 H1462 0.930 . S
C1476 C1474 1.395 . S
C1476 C1479 1.403 . S
C1477 C1474 1.403 . S
C1477 C1478 1.524 . S
C1477 C1481 1.400 . S
C1478 H1463 0.960 . S
C1478 H1464 0.960 . S
C1478 H1465 0.960 . S
C1478 C1477 1.524 . S
C1479 C1476 1.403 . S
C1479 C1480 1.392 . S
C1479 C1483 1.495 . S
C1480 C1479 1.392 . S
C1480 C1481 1.385 . S
C1480 C1482 1.478 . S
C1481 H1475 0.930 . S
C1481 C1477 1.400 . S
C1481 C1480 1.385 . S
C1482 C1480 1.478 . S
C1482 C1484 1.381 . S
C1482 C1488 1.383 . S
C1483 C1479 1.495 . S
C1483 H1489 0.959 . S
C1483 H1490 0.961 . S
C1483 H1491 0.960 . S
C1484 C1482 1.381 . S
C1484 C1485 1.394 . S
C1484 H1492 0.930 . S
C1485 C1484 1.394 . S
C1485 C1486 1.383 . S
C1485 H1493 0.929 . S
C1486 C1485 1.383 . S
C1486 C1487 1.377 . S
C1487 H1471 0.930 . S
C1487 C1486 1.377 . S
C1487 C1488 1.379 . S
C1488 H1472 0.931 . S
C1488 C1482 1.383 . S
C1488 C1487 1.379 . S
H1489 C1483 0.959 . S
H1490 C1483 0.961 . S
H1491 C1483 0.960 . S
H1492 C1484 0.930 . S
H1493 C1485 0.929 . S
H1494 C1502 0.929 . S
H1495 C1504 0.930 . S
H1496 C1506 0.930 . S
H1497 C1509 0.929 . S
H1498 C1512 0.930 . S
H1499 C1514 0.960 . S
H1500 C1514 0.960 . S
H1501 C1514 0.960 . S
C1502 H1494 0.929 . S
C1502 C1503 1.377 . S
C1502 C1504 1.384 . S
C1503 C1502 1.377 . S
C1503 C1509 1.390 . S
C1504 H1495 0.930 . S
C1504 C1502 1.384 . S
C1504 C1505 1.372 . S
C1505 C1504 1.372 . S
C1505 C1506 1.400 . S
C1505 C1510 1.490 . S
C1506 H1496 0.930 . S
C1506 C1505 1.400 . S
C1506 C1509 1.386 . S
H1507 C1523 0.930 . S
H1508 C1524 0.931 . S
C1509 H1497 0.929 . S
C1509 C1503 1.390 . S
C1509 C1506 1.386 . S
C1510 C1505 1.490 . S
C1510 C1512 1.395 . S
C1510 C1513 1.403 . S
H1511 C1517 0.930 . S
C1512 H1498 0.930 . S
C1512 C1510 1.395 . S
C1512 C1515 1.403 . S
C1513 C1510 1.403 . S
C1513 C1514 1.524 . S
C1513 C1517 1.400 . S
C1514 H1499 0.960 . S
C1514 H1500 0.960 . S
C1514 H1501 0.960 . S
C1514 C1513 1.524 . S
C1515 C1512 1.403 . S
C1515 C1516 1.392 . S
C1515 C1519 1.495 . S
C1516 C1515 1.392 . S
C1516 C1517 1.385 . S
C1516 C1518 1.478 . S
C1517 H1511 0.930 . S
C1517 C1513 1.400 . S
C1517 C1516 1.385 . S
C1518 C1516 1.478 . S
C1518 C1520 1.381 . S
C1518 C1524 1.383 . S
C1519 C1515 1.495 . S
C1519 H1525 0.959 . S
C1519 H1526 0.961 . S
C1519 H1527 0.960 . S
C1520 C1518 1.381 . S
C1520 C1521 1.394 . S
C1520 H1528 0.930 . S
C1521 C1520 1.394 . S
C1521 C1522 1.383 . S
C1521 H1529 0.929 . S
C1522 C1521 1.383 . S
C1522 C1523 1.377 . S
C1523 H1507 0.930 . S
C1523 C1522 1.377 . S
C1523 C1524 1.379 . S
C1524 H1508 0.931 . S
C1524 C1518 1.383 . S
C1524 C1523 1.379 . S
H1525 C1519 0.959 . S
H1526 C1519 0.961 . S
H1527 C1519 0.960 . S
H1528 C1520 0.930 . S
H1529 C1521 0.929 . S
H1530 C1538 0.929 . S
H1531 C1540 0.930 . S
H1532 C1542 0.930 . S
H1533 C1545 0.929 . S
H1534 C1548 0.930 . S
H1535 C1550 0.960 . S
H1536 C1550 0.960 . S
H1537 C1550 0.960 . S
C1538 H1530 0.929 . S
C1538 C1539 1.377 . S
C1538 C1540 1.384 . S
C1539 C1538 1.377 . S
C1539 C1545 1.390 . S
C1540 H1531 0.930 . S
C1540 C1538 1.384 . S
C1540 C1541 1.372 . S
C1541 C1540 1.372 . S
C1541 C1542 1.400 . S
C1541 C1546 1.490 . S
C1542 H1532 0.930 . S
C1542 C1541 1.400 . S
C1542 C1545 1.386 . S
H1543 C1559 0.930 . S
H1544 C1560 0.931 . S
C1545 H1533 0.929 . S
C1545 C1539 1.390 . S
C1545 C1542 1.386 . S
C1546 C1541 1.490 . S
C1546 C1548 1.395 . S
C1546 C1549 1.403 . S
H1547 C1553 0.930 . S
C1548 H1534 0.930 . S
C1548 C1546 1.395 . S
C1548 C1551 1.403 . S
C1549 C1546 1.403 . S
C1549 C1550 1.524 . S
C1549 C1553 1.400 . S
C1550 H1535 0.960 . S
C1550 H1536 0.960 . S
C1550 H1537 0.960 . S
C1550 C1549 1.524 . S
C1551 C1548 1.403 . S
C1551 C1552 1.392 . S
C1551 C1555 1.495 . S
C1552 C1551 1.392 . S
C1552 C1553 1.385 . S
C1552 C1554 1.478 . S
C1553 H1547 0.930 . S
C1553 C1549 1.400 . S
C1553 C1552 1.385 . S
C1554 C1552 1.478 . S
C1554 C1556 1.381 . S
C1554 C1560 1.383 . S
C1555 C1551 1.495 . S
C1555 H1561 0.959 . S
C1555 H1562 0.961 . S
C1555 H1563 0.960 . S
C1556 C1554 1.381 . S
C1556 C1557 1.394 . S
C1556 H1564 0.930 . S
C1557 C1556 1.394 . S
C1557 C1558 1.383 . S
C1557 H1565 0.929 . S
C1558 C1557 1.383 . S
C1558 C1559 1.377 . S
C1559 H1543 0.930 . S
C1559 C1558 1.377 . S
C1559 C1560 1.379 . S
C1560 H1544 0.931 . S
C1560 C1554 1.383 . S
C1560 C1559 1.379 . S
H1561 C1555 0.959 . S
H1562 C1555 0.961 . S
H1563 C1555 0.960 . S
H1564 C1556 0.930 . S
H1565 C1557 0.929 . S
H1566 C1574 0.929 . S
H1567 C1576 0.930 . S
H1568 C1578 0.930 . S
H1569 C1581 0.929 . S
H1570 C1584 0.930 . S
H1571 C1586 0.960 1_545 S
H1572 C1586 0.960 . S
H1573 C1586 0.960 . S
C1574 H1566 0.929 . S
C1574 C1575 1.377 . S
C1574 C1576 1.384 . S
C1575 C1574 1.377 . S
C1575 C1581 1.390 . S
C1576 H1567 0.930 . S
C1576 C1574 1.384 . S
C1576 C1577 1.372 . S
C1577 C1576 1.372 . S
C1577 C1578 1.400 . S
C1577 C1582 1.490 . S
C1578 H1568 0.930 . S
C1578 C1577 1.400 . S
C1578 C1581 1.386 . S
H1579 C1595 0.930 . S
H1580 C1596 0.931 . S
C1581 H1569 0.929 . S
C1581 C1575 1.390 . S
C1581 C1578 1.386 . S
C1582 C1577 1.490 . S
C1582 C1584 1.395 . S
C1582 C1585 1.403 . S
H1583 C1589 0.930 . S
C1584 H1570 0.930 . S
C1584 C1582 1.395 . S
C1584 C1587 1.403 . S
C1585 C1582 1.403 . S
C1585 C1586 1.524 . S
C1585 C1589 1.400 1_565 S
C1586 H1571 0.960 1_565 S
C1586 H1572 0.960 . S
C1586 H1573 0.960 . S
C1586 C1585 1.524 . S
C1587 C1584 1.403 . S
C1587 C1588 1.392 1_565 S
C1587 C1591 1.508 1_565 S
C1588 C1587 1.392 1_545 S
C1588 C1589 1.385 . S
C1588 C1590 1.478 . S
C1589 H1583 0.930 . S
C1589 C1585 1.400 1_545 S
C1589 C1588 1.385 . S
C1590 C1588 1.478 . S
C1590 C1592 1.381 . S
C1590 C1596 1.383 . S
C1591 C1587 1.508 1_545 S
C1591 H1597 0.926 1_545 S
C1591 H1598 0.965 . S
C1591 H1599 0.977 . S
C1592 C1590 1.381 . S
C1592 C1593 1.394 . S
C1592 H1600 0.930 . S
C1593 C1592 1.394 . S
C1593 C1594 1.383 . S
C1593 H1601 0.929 . S
C1594 C1593 1.383 . S
C1594 C1595 1.377 . S
C1595 H1579 0.930 . S
C1595 C1594 1.377 . S
C1595 C1596 1.379 . S
C1596 H1580 0.931 . S
C1596 C1590 1.383 . S
C1596 C1595 1.379 . S
H1597 C1591 0.926 1_565 S
H1598 C1591 0.965 . S
H1599 C1591 0.977 . S
H1600 C1592 0.930 . S
H1601 C1593 0.929 . S
H1602 C1610 0.929 . S
H1603 C1612 0.930 . S
H1604 C1614 0.930 . S
H1605 C1617 0.929 . S
H1606 C1620 0.930 . S
H1607 C1622 0.960 1_655 S
H1608 C1622 0.960 . S
H1609 C1622 0.960 . S
C1610 H1602 0.929 . S
C1610 C1611 1.377 . S
C1610 C1612 1.384 . S
C1611 C1610 1.377 . S
C1611 C1617 1.390 . S
C1612 H1603 0.930 . S
C1612 C1610 1.384 . S
C1612 C1613 1.372 . S
C1613 C1612 1.372 . S
C1613 C1614 1.400 . S
C1613 C1618 1.490 . S
C1614 H1604 0.930 . S
C1614 C1613 1.400 . S
C1614 C1617 1.386 . S
H1615 C1631 0.930 . S
H1616 C1632 0.931 . S
C1617 H1605 0.929 . S
C1617 C1611 1.390 . S
C1617 C1614 1.386 . S
C1618 C1613 1.490 . S
C1618 C1620 1.395 . S
C1618 C1621 1.403 . S
H1619 C1625 0.930 . S
C1620 H1606 0.930 . S
C1620 C1618 1.395 . S
C1620 C1623 1.403 1_455 S
C1621 C1618 1.403 . S
C1621 C1622 1.524 . S
C1621 C1625 1.400 1_455 S
C1622 H1607 0.960 1_455 S
C1622 H1608 0.960 . S
C1622 H1609 0.960 . S
C1622 C1621 1.524 . S
C1623 C1620 1.403 1_655 S
C1623 C1624 1.392 . S
C1623 C1627 1.495 . S
C1624 C1623 1.392 . S
C1624 C1625 1.385 . S
C1624 C1626 1.478 . S
C1625 H1619 0.930 . S
C1625 C1621 1.400 1_655 S
C1625 C1624 1.385 . S
C1626 C1624 1.478 . S
C1626 C1628 1.381 . S
C1626 C1632 1.383 . S
C1627 C1623 1.495 . S
C1627 H1633 0.959 1_655 S
C1627 H1634 0.961 . S
C1627 H1635 0.960 . S
C1628 C1626 1.381 . S
C1628 C1629 1.394 . S
C1628 H1636 0.930 . S
C1629 C1628 1.394 . S
C1629 C1630 1.383 . S
C1629 H1637 0.929 . S
C1630 C1629 1.383 . S
C1630 C1631 1.377 . S
C1631 H1615 0.930 . S
C1631 C1630 1.377 . S
C1631 C1632 1.379 . S
C1632 H1616 0.931 . S
C1632 C1626 1.383 . S
C1632 C1631 1.379 . S
H1633 C1627 0.959 1_455 S
H1634 C1627 0.961 . S
H1635 C1627 0.960 . S
H1636 C1628 0.930 . S
H1637 C1629 0.929 . S
H1638 C1646 0.929 . S
H1639 C1648 0.930 . S
H1640 C1650 0.930 . S
H1641 C1653 0.929 . S
H1642 C1656 0.930 . S
H1643 C1658 0.960 . S
H1644 C1658 0.960 . S
H1645 C1658 0.960 . S
C1646 H1638 0.929 . S
C1646 C1647 1.377 . S
C1646 C1648 1.384 . S
C1647 C1646 1.377 . S
C1647 C1653 1.390 . S
C1648 H1639 0.930 . S
C1648 C1646 1.384 . S
C1648 C1649 1.372 . S
C1649 C1648 1.372 . S
C1649 C1650 1.400 . S
C1649 C1654 1.490 . S
C1650 H1640 0.930 . S
C1650 C1649 1.400 . S
C1650 C1653 1.386 . S
H1651 C1667 0.930 . S
H1652 C1668 0.931 . S
C1653 H1641 0.929 . S
C1653 C1647 1.390 . S
C1653 C1650 1.386 . S
C1654 C1649 1.490 . S
C1654 C1656 1.395 . S
C1654 C1657 1.403 . S
H1655 C1661 0.930 . S
C1656 H1642 0.930 . S
C1656 C1654 1.395 . S
C1656 C1659 1.403 . S
C1657 C1654 1.403 . S
C1657 C1658 1.524 . S
C1657 C1661 1.400 . S
C1658 H1643 0.960 . S
C1658 H1644 0.960 . S
C1658 H1645 0.960 . S
C1658 C1657 1.524 . S
C1659 C1656 1.403 . S
C1659 C1660 1.392 . S
C1659 C1663 1.495 . S
C1660 C1659 1.392 . S
C1660 C1661 1.385 . S
C1660 C1662 1.478 . S
C1661 H1655 0.930 . S
C1661 C1657 1.400 . S
C1661 C1660 1.385 . S
C1662 C1660 1.478 . S
C1662 C1664 1.381 . S
C1662 C1668 1.383 . S
C1663 C1659 1.495 . S
C1663 H1669 0.959 . S
C1663 H1670 0.961 . S
C1663 H1671 0.960 . S
C1664 C1662 1.381 . S
C1664 C1665 1.394 . S
C1664 H1672 0.930 . S
C1665 C1664 1.394 . S
C1665 C1666 1.383 . S
C1665 H1673 0.929 . S
C1666 C1665 1.383 . S
C1666 C1667 1.377 . S
C1667 H1651 0.930 . S
C1667 C1666 1.377 . S
C1667 C1668 1.379 . S
C1668 H1652 0.931 . S
C1668 C1662 1.383 . S
C1668 C1667 1.379 . S
H1669 C1663 0.959 . S
H1670 C1663 0.961 . S
H1671 C1663 0.960 . S
H1672 C1664 0.930 . S
H1673 C1665 0.929 . S
H1674 C1682 0.929 . S
H1675 C1684 0.930 . S
H1676 C1686 0.930 . S
H1677 C1689 0.929 . S
H1678 C1692 0.930 . S
H1679 C1694 0.960 . S
H1680 C1694 0.960 . S
H1681 C1694 0.960 . S
C1682 H1674 0.929 . S
C1682 C1683 1.377 . S
C1682 C1684 1.384 . S
C1683 C1682 1.377 . S
C1683 C1689 1.390 . S
C1684 H1675 0.930 . S
C1684 C1682 1.384 . S
C1684 C1685 1.372 . S
C1685 C1684 1.372 . S
C1685 C1686 1.400 . S
C1685 C1690 1.490 1_455 S
C1686 H1676 0.930 . S
C1686 C1685 1.400 . S
C1686 C1689 1.386 . S
H1687 C1703 0.930 . S
H1688 C1704 0.931 . S
C1689 H1677 0.929 . S
C1689 C1683 1.390 . S
C1689 C1686 1.386 . S
C1690 C1685 1.490 1_655 S
C1690 C1692 1.395 . S
C1690 C1693 1.403 . S
H1691 C1697 0.930 . S
C1692 H1678 0.930 . S
C1692 C1690 1.395 . S
C1692 C1695 1.403 . S
C1693 C1690 1.403 . S
C1693 C1694 1.524 . S
C1693 C1697 1.400 . S
C1694 H1679 0.960 . S
C1694 H1680 0.960 . S
C1694 H1681 0.960 . S
C1694 C1693 1.524 . S
C1695 C1692 1.403 . S
C1695 C1696 1.392 . S
C1695 C1699 1.495 . S
C1696 C1695 1.392 . S
C1696 C1697 1.385 . S
C1696 C1698 1.478 . S
C1697 H1691 0.930 . S
C1697 C1693 1.400 . S
C1697 C1696 1.385 . S
C1698 C1696 1.478 . S
C1698 C1700 1.381 . S
C1698 C1704 1.383 . S
C1699 C1695 1.495 . S
C1699 H1705 0.959 . S
C1699 H1706 0.961 . S
C1699 H1707 0.960 . S
C1700 C1698 1.381 . S
C1700 C1701 1.394 . S
C1700 H1708 0.930 . S
C1701 C1700 1.394 . S
C1701 C1702 1.383 . S
C1701 H1709 0.929 . S
C1702 C1701 1.383 . S
C1702 C1703 1.377 . S
C1703 H1687 0.930 . S
C1703 C1702 1.377 . S
C1703 C1704 1.379 . S
C1704 H1688 0.931 . S
C1704 C1698 1.383 . S
C1704 C1703 1.379 . S
H1705 C1699 0.959 . S
H1706 C1699 0.961 . S
H1707 C1699 0.960 . S
H1708 C1700 0.930 . S
H1709 C1701 0.929 . S
H1710 C1718 0.929 . S
H1711 C1720 0.930 . S
H1712 C1722 0.930 . S
H1713 C1725 0.929 . S
H1714 C1728 0.930 . S
H1715 C1730 0.960 . S
H1716 C1730 0.960 . S
H1717 C1730 0.960 . S
C1718 H1710 0.929 . S
C1718 C1719 1.377 . S
C1718 C1720 1.384 . S
C1719 C1718 1.377 . S
C1719 C1725 1.390 . S
C1720 H1711 0.930 . S
C1720 C1718 1.384 . S
C1720 C1721 1.372 . S
C1721 C1720 1.372 . S
C1721 C1722 1.400 . S
C1721 C1726 1.490 . S
C1722 H1712 0.930 . S
C1722 C1721 1.400 . S
C1722 C1725 1.386 . S
H1723 C1739 0.930 . S
H1724 C1740 0.931 . S
C1725 H1713 0.929 . S
C1725 C1719 1.390 . S
C1725 C1722 1.386 . S
C1726 C1721 1.490 . S
C1726 C1728 1.395 . S
C1726 C1729 1.403 . S
H1727 C1733 0.930 . S
C1728 H1714 0.930 . S
C1728 C1726 1.395 . S
C1728 C1731 1.403 . S
C1729 C1726 1.403 . S
C1729 C1730 1.524 . S
C1729 C1733 1.400 . S
C1730 H1715 0.960 . S
C1730 H1716 0.960 . S
C1730 H1717 0.960 . S
C1730 C1729 1.524 . S
C1731 C1728 1.403 . S
C1731 C1732 1.392 . S
C1731 C1735 1.495 . S
C1732 C1731 1.392 . S
C1732 C1733 1.385 . S
C1732 C1734 1.478 . S
C1733 H1727 0.930 . S
C1733 C1729 1.400 . S
C1733 C1732 1.385 . S
C1734 C1732 1.478 . S
C1734 C1736 1.381 . S
C1734 C1740 1.383 . S
C1735 C1731 1.495 . S
C1735 H1741 0.959 . S
C1735 H1742 0.961 . S
C1735 H1743 0.960 . S
C1736 C1734 1.381 . S
C1736 C1737 1.394 . S
C1736 H1744 0.930 . S
C1737 C1736 1.394 . S
C1737 C1738 1.383 . S
C1737 H1745 0.929 . S
C1738 C1737 1.383 . S
C1738 C1739 1.377 . S
C1739 H1723 0.930 . S
C1739 C1738 1.377 . S
C1739 C1740 1.379 . S
C1740 H1724 0.931 . S
C1740 C1734 1.383 . S
C1740 C1739 1.379 . S
H1741 C1735 0.959 . S
H1742 C1735 0.961 . S
H1743 C1735 0.960 . S
H1744 C1736 0.930 . S
H1745 C1737 0.929 . S
H1746 C1754 0.929 . S
H1747 C1756 0.930 . S
H1748 C1758 0.930 . S
H1749 C1761 0.929 . S
H1750 C1764 0.930 . S
H1751 C1766 0.960 . S
H1752 C1766 0.960 . S
H1753 C1766 0.960 . S
C1754 H1746 0.929 . S
C1754 C1755 1.377 . S
C1754 C1756 1.384 . S
C1755 C1754 1.377 . S
C1755 C1761 1.390 . S
C1756 H1747 0.930 . S
C1756 C1754 1.384 . S
C1756 C1757 1.372 . S
C1757 C1756 1.372 . S
C1757 C1758 1.400 . S
C1757 C1762 1.490 1_565 S
C1758 H1748 0.930 . S
C1758 C1757 1.400 . S
C1758 C1761 1.386 . S
H1759 C1775 0.930 . S
H1760 C1776 0.931 . S
C1761 H1749 0.929 . S
C1761 C1755 1.390 . S
C1761 C1758 1.386 . S
C1762 C1757 1.490 1_545 S
C1762 C1764 1.395 . S
C1762 C1765 1.403 . S
H1763 C1769 0.930 . S
C1764 H1750 0.930 . S
C1764 C1762 1.395 . S
C1764 C1767 1.403 . S
C1765 C1762 1.403 . S
C1765 C1766 1.524 . S
C1765 C1769 1.400 . S
C1766 H1751 0.960 . S
C1766 H1752 0.960 . S
C1766 H1753 0.960 . S
C1766 C1765 1.524 . S
C1767 C1764 1.403 . S
C1767 C1768 1.392 . S
C1767 C1771 1.495 . S
C1768 C1767 1.392 . S
C1768 C1769 1.385 . S
C1768 C1770 1.478 . S
C1769 H1763 0.930 . S
C1769 C1765 1.400 . S
C1769 C1768 1.385 . S
C1770 C1768 1.478 . S
C1770 C1772 1.381 . S
C1770 C1776 1.383 . S
C1771 C1767 1.495 . S
C1771 H1777 0.959 . S
C1771 H1778 0.961 . S
C1771 H1779 0.960 . S
C1772 C1770 1.381 . S
C1772 C1773 1.394 . S
C1772 H1780 0.930 . S
C1773 C1772 1.394 . S
C1773 C1774 1.383 . S
C1773 H1781 0.929 . S
C1774 C1773 1.383 . S
C1774 C1775 1.377 . S
C1775 H1759 0.930 . S
C1775 C1774 1.377 . S
C1775 C1776 1.379 . S
C1776 H1760 0.931 . S
C1776 C1770 1.383 . S
C1776 C1775 1.379 . S
H1777 C1771 0.959 . S
H1778 C1771 0.961 . S
H1779 C1771 0.960 . S
H1780 C1772 0.930 . S
H1781 C1773 0.929 . S
H1782 C1790 0.929 . S
H1783 C1792 0.930 . S
H1784 C1794 0.930 . S
H1785 C1797 0.929 . S
H1786 C1800 0.930 . S
H1787 C1802 0.960 . S
H1788 C1802 0.960 . S
H1789 C1802 0.960 . S
C1790 H1782 0.929 . S
C1790 C1791 1.377 . S
C1790 C1792 1.384 . S
C1791 C1790 1.377 . S
C1791 C1797 1.390 . S
C1792 H1783 0.930 . S
C1792 C1790 1.384 . S
C1792 C1793 1.372 . S
C1793 C1792 1.372 . S
C1793 C1794 1.400 . S
C1793 C1798 1.490 . S
C1794 H1784 0.930 . S
C1794 C1793 1.400 . S
C1794 C1797 1.386 . S
H1795 C1811 0.930 . S
H1796 C1812 0.931 . S
C1797 H1785 0.929 . S
C1797 C1791 1.390 . S
C1797 C1794 1.386 . S
C1798 C1793 1.490 . S
C1798 C1800 1.395 . S
C1798 C1801 1.403 . S
H1799 C1805 0.930 . S
C1800 H1786 0.930 . S
C1800 C1798 1.395 . S
C1800 C1803 1.403 . S
C1801 C1798 1.403 . S
C1801 C1802 1.524 . S
C1801 C1805 1.400 . S
C1802 H1787 0.960 . S
C1802 H1788 0.960 . S
C1802 H1789 0.960 . S
C1802 C1801 1.524 . S
C1803 C1800 1.403 . S
C1803 C1804 1.392 . S
C1803 C1807 1.495 . S
C1804 C1803 1.392 . S
C1804 C1805 1.385 . S
C1804 C1806 1.478 . S
C1805 H1799 0.930 . S
C1805 C1801 1.400 . S
C1805 C1804 1.385 . S
C1806 C1804 1.478 . S
C1806 C1808 1.381 . S
C1806 C1812 1.383 . S
C1807 C1803 1.495 . S
C1807 H1813 0.959 . S
C1807 H1814 0.961 . S
C1807 H1815 0.960 . S
C1808 C1806 1.381 . S
C1808 C1809 1.394 . S
C1808 H1816 0.930 . S
C1809 C1808 1.394 . S
C1809 C1810 1.383 . S
C1809 H1817 0.929 . S
C1810 C1809 1.383 . S
C1810 C1811 1.377 . S
C1811 H1795 0.930 . S
C1811 C1810 1.377 . S
C1811 C1812 1.379 . S
C1812 H1796 0.931 . S
C1812 C1806 1.383 . S
C1812 C1811 1.379 . S
H1813 C1807 0.959 . S
H1814 C1807 0.961 . S
H1815 C1807 0.960 . S
H1816 C1808 0.930 . S
H1817 C1809 0.929 . S
H1818 C1826 0.929 . S
H1819 C1828 0.930 . S
H1820 C1830 0.930 . S
H1821 C1833 0.929 . S
H1822 C1836 0.930 . S
H1823 C1838 0.960 . S
H1824 C1838 0.960 . S
H1825 C1838 0.960 . S
C1826 H1818 0.929 . S
C1826 C1827 1.377 . S
C1826 C1828 1.384 . S
C1827 C1826 1.377 . S
C1827 C1833 1.390 . S
C1828 H1819 0.930 . S
C1828 C1826 1.384 . S
C1828 C1829 1.372 . S
C1829 C1828 1.372 . S
C1829 C1830 1.400 . S
C1829 C1834 1.490 . S
C1830 H1820 0.930 . S
C1830 C1829 1.400 . S
C1830 C1833 1.386 . S
H1831 C1847 0.930 . S
H1832 C1848 0.931 . S
C1833 H1821 0.929 . S
C1833 C1827 1.390 . S
C1833 C1830 1.386 . S
C1834 C1829 1.490 . S
C1834 C1836 1.395 . S
C1834 C1837 1.403 . S
H1835 C1841 0.930 . S
C1836 H1822 0.930 . S
C1836 C1834 1.395 . S
C1836 C1839 1.403 . S
C1837 C1834 1.403 . S
C1837 C1838 1.524 . S
C1837 C1841 1.400 . S
C1838 H1823 0.960 . S
C1838 H1824 0.960 . S
C1838 H1825 0.960 . S
C1838 C1837 1.524 . S
C1839 C1836 1.403 . S
C1839 C1840 1.392 . S
C1839 C1843 1.495 . S
C1840 C1839 1.392 . S
C1840 C1841 1.385 . S
C1840 C1842 1.478 . S
C1841 H1835 0.930 . S
C1841 C1837 1.400 . S
C1841 C1840 1.385 . S
C1842 C1840 1.478 . S
C1842 C1844 1.381 . S
C1842 C1848 1.383 . S
C1843 C1839 1.495 . S
C1843 H1849 0.959 . S
C1843 H1850 0.961 . S
C1843 H1851 0.960 . S
C1844 C1842 1.381 . S
C1844 C1845 1.394 . S
C1844 H1852 0.930 . S
C1845 C1844 1.394 . S
C1845 C1846 1.383 . S
C1845 H1853 0.929 . S
C1846 C1845 1.383 . S
C1846 C1847 1.377 . S
C1847 H1831 0.930 . S
C1847 C1846 1.377 . S
C1847 C1848 1.379 . S
C1848 H1832 0.931 . S
C1848 C1842 1.383 . S
C1848 C1847 1.379 . S
H1849 C1843 0.959 . S
H1850 C1843 0.961 . S
H1851 C1843 0.960 . S
H1852 C1844 0.930 . S
H1853 C1845 0.929 . S
H1854 C1862 0.929 . S
H1855 C1864 0.930 . S
H1856 C1866 0.930 . S
H1857 C1869 0.929 . S
H1858 C1872 0.930 . S
H1859 C1874 0.960 . S
H1860 C1874 0.960 . S
H1861 C1874 0.960 . S
C1862 H1854 0.929 . S
C1862 C1863 1.377 . S
C1862 C1864 1.384 . S
C1863 C1862 1.377 . S
C1863 C1869 1.390 . S
C1864 H1855 0.930 . S
C1864 C1862 1.384 . S
C1864 C1865 1.372 . S
C1865 C1864 1.372 . S
C1865 C1866 1.400 . S
C1865 C1870 1.490 . S
C1866 H1856 0.930 . S
C1866 C1865 1.400 . S
C1866 C1869 1.386 . S
H1867 C1883 0.930 . S
H1868 C1884 0.931 . S
C1869 H1857 0.929 . S
C1869 C1863 1.390 . S
C1869 C1866 1.386 . S
C1870 C1865 1.490 . S
C1870 C1872 1.395 . S
C1870 C1873 1.403 . S
H1871 C1877 0.930 . S
C1872 H1858 0.930 . S
C1872 C1870 1.395 . S
C1872 C1875 1.403 . S
C1873 C1870 1.403 . S
C1873 C1874 1.524 . S
C1873 C1877 1.400 . S
C1874 H1859 0.960 . S
C1874 H1860 0.960 . S
C1874 H1861 0.960 . S
C1874 C1873 1.524 . S
C1875 C1872 1.403 . S
C1875 C1876 1.392 . S
C1875 C1879 1.495 . S
C1876 C1875 1.392 . S
C1876 C1877 1.385 . S
C1876 C1878 1.478 . S
C1877 H1871 0.930 . S
C1877 C1873 1.400 . S
C1877 C1876 1.385 . S
C1878 C1876 1.478 . S
C1878 C1880 1.381 . S
C1878 C1884 1.383 . S
C1879 C1875 1.495 . S
C1879 H1885 0.959 . S
C1879 H1886 0.961 . S
C1879 H1887 0.960 . S
C1880 C1878 1.381 . S
C1880 C1881 1.394 . S
C1880 H1888 0.930 . S
C1881 C1880 1.394 . S
C1881 C1882 1.383 . S
C1881 H1889 0.929 . S
C1882 C1881 1.383 . S
C1882 C1883 1.377 . S
C1883 H1867 0.930 . S
C1883 C1882 1.377 . S
C1883 C1884 1.379 . S
C1884 H1868 0.931 . S
C1884 C1878 1.383 . S
C1884 C1883 1.379 . S
H1885 C1879 0.959 . S
H1886 C1879 0.961 . S
H1887 C1879 0.960 . S
H1888 C1880 0.930 . S
H1889 C1881 0.929 . S
H1890 C1898 0.929 . S
H1891 C1900 0.930 . S
H1892 C1902 0.930 . S
H1893 C1905 0.929 . S
H1894 C1908 0.930 . S
H1895 C1910 0.960 . S
H1896 C1910 0.960 . S
H1897 C1910 0.960 . S
C1898 H1890 0.929 . S
C1898 C1899 1.377 . S
C1898 C1900 1.384 . S
C1899 C1898 1.377 . S
C1899 C1905 1.390 . S
C1900 H1891 0.930 . S
C1900 C1898 1.384 . S
C1900 C1901 1.372 . S
C1901 C1900 1.372 . S
C1901 C1902 1.400 . S
C1901 C1906 1.490 . S
C1902 H1892 0.930 . S
C1902 C1901 1.400 . S
C1902 C1905 1.386 . S
H1903 C1919 0.930 . S
H1904 C1920 0.931 . S
C1905 H1893 0.929 . S
C1905 C1899 1.390 . S
C1905 C1902 1.386 . S
C1906 C1901 1.490 . S
C1906 C1908 1.395 . S
C1906 C1909 1.403 . S
H1907 C1913 0.930 . S
C1908 H1894 0.930 . S
C1908 C1906 1.395 . S
C1908 C1911 1.403 . S
C1909 C1906 1.403 . S
C1909 C1910 1.524 . S
C1909 C1913 1.400 . S
C1910 H1895 0.960 . S
C1910 H1896 0.960 . S
C1910 H1897 0.960 . S
C1910 C1909 1.524 . S
C1911 C1908 1.403 . S
C1911 C1912 1.392 . S
C1911 C1915 1.495 . S
C1912 C1911 1.392 . S
C1912 C1913 1.385 . S
C1912 C1914 1.478 . S
C1913 H1907 0.930 . S
C1913 C1909 1.400 . S
C1913 C1912 1.385 . S
C1914 C1912 1.478 . S
C1914 C1916 1.381 . S
C1914 C1920 1.383 . S
C1915 C1911 1.495 . S
C1915 H1921 0.959 . S
C1915 H1922 0.961 . S
C1915 H1923 0.960 . S
C1916 C1914 1.381 . S
C1916 C1917 1.394 . S
C1916 H1924 0.930 . S
C1917 C1916 1.394 . S
C1917 C1918 1.383 . S
C1917 H1925 0.929 . S
C1918 C1917 1.383 . S
C1918 C1919 1.377 . S
C1919 H1903 0.930 . S
C1919 C1918 1.377 . S
C1919 C1920 1.379 . S
C1920 H1904 0.931 . S
C1920 C1914 1.383 . S
C1920 C1919 1.379 . S
H1921 C1915 0.959 . S
H1922 C1915 0.961 . S
H1923 C1915 0.960 . S
H1924 C1916 0.930 . S
H1925 C1917 0.929 . S
H1926 C1934 0.929 . S
H1927 C1936 0.930 . S
H1928 C1938 0.930 . S
H1929 C1941 0.929 . S
H1930 C1944 0.930 . S
H1931 C1946 0.960 . S
H1932 C1946 0.960 . S
H1933 C1946 0.960 . S
C1934 H1926 0.929 . S
C1934 C1935 1.377 . S
C1934 C1936 1.384 . S
C1935 C1934 1.377 . S
C1935 C1941 1.390 . S
C1936 H1927 0.930 . S
C1936 C1934 1.384 . S
C1936 C1937 1.372 . S
C1937 C1936 1.372 . S
C1937 C1938 1.400 . S
C1937 C1942 1.490 . S
C1938 H1928 0.930 . S
C1938 C1937 1.400 . S
C1938 C1941 1.386 . S
H1939 C1955 0.930 . S
H1940 C1956 0.931 . S
C1941 H1929 0.929 . S
C1941 C1935 1.390 . S
C1941 C1938 1.386 . S
C1942 C1937 1.490 . S
C1942 C1944 1.395 . S
C1942 C1945 1.403 . S
H1943 C1949 0.930 . S
C1944 H1930 0.930 . S
C1944 C1942 1.395 . S
C1944 C1947 1.403 . S
C1945 C1942 1.403 . S
C1945 C1946 1.524 . S
C1945 C1949 1.400 . S
C1946 H1931 0.960 . S
C1946 H1932 0.960 . S
C1946 H1933 0.960 . S
C1946 C1945 1.524 . S
C1947 C1944 1.403 . S
C1947 C1948 1.392 . S
C1947 C1951 1.495 . S
C1948 C1947 1.392 . S
C1948 C1949 1.385 . S
C1948 C1950 1.478 . S
C1949 H1943 0.930 . S
C1949 C1945 1.400 . S
C1949 C1948 1.385 . S
C1950 C1948 1.478 . S
C1950 C1952 1.381 . S
C1950 C1956 1.383 . S
C1951 C1947 1.495 . S
C1951 H1957 0.959 . S
C1951 H1958 0.961 . S
C1951 H1959 0.960 . S
C1952 C1950 1.381 . S
C1952 C1953 1.394 . S
C1952 H1960 0.930 . S
C1953 C1952 1.394 . S
C1953 C1954 1.383 . S
C1953 H1961 0.929 . S
C1954 C1953 1.383 . S
C1954 C1955 1.377 . S
C1955 H1939 0.930 . S
C1955 C1954 1.377 . S
C1955 C1956 1.379 . S
C1956 H1940 0.931 . S
C1956 C1950 1.383 . S
C1956 C1955 1.379 . S
H1957 C1951 0.959 . S
H1958 C1951 0.961 . S
H1959 C1951 0.960 . S
H1960 C1952 0.930 . S
H1961 C1953 0.929 . S
H1962 C1970 0.929 . S
H1963 C1972 0.930 . S
H1964 C1974 0.930 . S
H1965 C1977 0.929 . S
H1966 C1980 0.930 . S
H1967 C1982 0.960 . S
H1968 C1982 0.960 . S
H1969 C1982 0.960 . S
C1970 H1962 0.929 . S
C1970 C1971 1.377 . S
C1970 C1972 1.384 . S
C1971 C1970 1.377 . S
C1971 C1977 1.390 . S
C1972 H1963 0.930 . S
C1972 C1970 1.384 . S
C1972 C1973 1.372 . S
C1973 C1972 1.372 . S
C1973 C1974 1.400 . S
C1973 C1978 1.490 . S
C1974 H1964 0.930 . S
C1974 C1973 1.400 . S
C1974 C1977 1.386 . S
H1975 C1991 0.930 . S
H1976 C1992 0.931 . S
C1977 H1965 0.929 . S
C1977 C1971 1.390 . S
C1977 C1974 1.386 . S
C1978 C1973 1.490 . S
C1978 C1980 1.395 . S
C1978 C1981 1.403 . S
H1979 C1985 0.930 . S
C1980 H1966 0.930 . S
C1980 C1978 1.395 . S
C1980 C1983 1.403 . S
C1981 C1978 1.403 . S
C1981 C1982 1.524 . S
C1981 C1985 1.400 . S
C1982 H1967 0.960 . S
C1982 H1968 0.960 . S
C1982 H1969 0.960 . S
C1982 C1981 1.524 . S
C1983 C1980 1.403 . S
C1983 C1984 1.392 . S
C1983 C1987 1.495 . S
C1984 C1983 1.392 . S
C1984 C1985 1.385 . S
C1984 C1986 1.478 . S
C1985 H1979 0.930 . S
C1985 C1981 1.400 . S
C1985 C1984 1.385 . S
C1986 C1984 1.478 . S
C1986 C1988 1.381 . S
C1986 C1992 1.383 . S
C1987 C1983 1.495 . S
C1987 H1993 0.959 . S
C1987 H1994 0.961 . S
C1987 H1995 0.960 . S
C1988 C1986 1.381 . S
C1988 C1989 1.394 . S
C1988 H1996 0.930 . S
C1989 C1988 1.394 . S
C1989 C1990 1.383 . S
C1989 H1997 0.929 . S
C1990 C1989 1.383 . S
C1990 C1991 1.377 . S
C1991 H1975 0.930 . S
C1991 C1990 1.377 . S
C1991 C1992 1.379 . S
C1992 H1976 0.931 . S
C1992 C1986 1.383 . S
C1992 C1991 1.379 . S
H1993 C1987 0.959 . S
H1994 C1987 0.961 . S
H1995 C1987 0.960 . S
H1996 C1988 0.930 . S
H1997 C1989 0.929 . S
H1998 C2006 0.929 . S
H1999 C2008 0.930 . S
H2000 C2010 0.930 . S
H2001 C2013 0.929 . S
H2002 C2016 0.930 . S
H2003 C2018 0.960 . S
H2004 C2018 0.960 . S
H2005 C2018 0.960 . S
C2006 H1998 0.929 . S
C2006 C2007 1.377 . S
C2006 C2008 1.384 . S
C2007 C2006 1.377 . S
C2007 C2013 1.390 . S
C2008 H1999 0.930 . S
C2008 C2006 1.384 . S
C2008 C2009 1.372 . S
C2009 C2008 1.372 . S
C2009 C2010 1.400 . S
C2009 C2014 1.490 . S
C2010 H2000 0.930 . S
C2010 C2009 1.400 . S
C2010 C2013 1.386 . S
H2011 C2027 0.930 . S
H2012 C2028 0.931 . S
C2013 H2001 0.929 . S
C2013 C2007 1.390 . S
C2013 C2010 1.386 . S
C2014 C2009 1.490 . S
C2014 C2016 1.395 . S
C2014 C2017 1.403 . S
H2015 C2021 0.930 . S
C2016 H2002 0.930 . S
C2016 C2014 1.395 . S
C2016 C2019 1.403 . S
C2017 C2014 1.403 . S
C2017 C2018 1.524 . S
C2017 C2021 1.400 . S
C2018 H2003 0.960 . S
C2018 H2004 0.960 . S
C2018 H2005 0.960 . S
C2018 C2017 1.524 . S
C2019 C2016 1.403 . S
C2019 C2020 1.392 . S
C2019 C2023 1.495 1_655 S
C2020 C2019 1.392 . S
C2020 C2021 1.385 . S
C2020 C2022 1.478 . S
C2021 H2015 0.930 . S
C2021 C2017 1.400 . S
C2021 C2020 1.385 . S
C2022 C2020 1.478 . S
C2022 C2024 1.381 . S
C2022 C2028 1.383 . S
C2023 C2019 1.495 1_455 S
C2023 H2029 0.959 . S
C2023 H2030 0.961 . S
C2023 H2031 0.959 1_455 S
C2024 C2022 1.381 . S
C2024 C2025 1.394 . S
C2024 H2032 0.930 . S
C2025 C2024 1.394 . S
C2025 C2026 1.383 . S
C2025 H2033 0.929 . S
C2026 C2025 1.383 . S
C2026 C2027 1.377 . S
C2027 H2011 0.930 . S
C2027 C2026 1.377 . S
C2027 C2028 1.379 . S
C2028 H2012 0.931 . S
C2028 C2022 1.383 . S
C2028 C2027 1.379 . S
H2029 C2023 0.959 . S
H2030 C2023 0.961 . S
H2031 C2023 0.959 1_655 S
H2032 C2024 0.930 . S
H2033 C2025 0.929 . S
H2034 C2042 0.929 . S
H2035 C2044 0.930 . S
H2036 C2046 0.930 . S
H2037 C2049 0.929 . S
H2038 C2052 0.930 . S
H2039 C2054 0.960 . S
H2040 C2054 0.960 . S
H2041 C2054 0.960 . S
C2042 H2034 0.929 . S
C2042 C2043 1.377 . S
C2042 C2044 1.384 . S
C2043 C2042 1.377 . S
C2043 C2049 1.390 . S
C2044 H2035 0.930 . S
C2044 C2042 1.384 . S
C2044 C2045 1.372 . S
C2045 C2044 1.372 . S
C2045 C2046 1.400 . S
C2045 C2050 1.490 . S
C2046 H2036 0.930 . S
C2046 C2045 1.400 . S
C2046 C2049 1.386 . S
H2047 C2063 0.930 . S
H2048 C2064 0.931 . S
C2049 H2037 0.929 . S
C2049 C2043 1.390 . S
C2049 C2046 1.386 . S
C2050 C2045 1.490 . S
C2050 C2052 1.395 . S
C2050 C2053 1.403 . S
H2051 C2057 0.930 . S
C2052 H2038 0.930 . S
C2052 C2050 1.395 . S
C2052 C2055 1.403 . S
C2053 C2050 1.403 . S
C2053 C2054 1.524 . S
C2053 C2057 1.400 . S
C2054 H2039 0.960 . S
C2054 H2040 0.960 . S
C2054 H2041 0.960 . S
C2054 C2053 1.524 . S
C2055 C2052 1.403 . S
C2055 C2056 1.392 . S
C2055 C2059 1.495 . S
C2056 C2055 1.392 . S
C2056 C2057 1.385 . S
C2056 C2058 1.478 . S
C2057 H2051 0.930 . S
C2057 C2053 1.400 . S
C2057 C2056 1.385 . S
C2058 C2056 1.478 . S
C2058 C2060 1.381 . S
C2058 C2064 1.383 . S
C2059 C2055 1.495 . S
C2059 H2065 0.959 . S
C2059 H2066 0.961 . S
C2059 H2067 0.960 . S
C2060 C2058 1.381 . S
C2060 C2061 1.394 . S
C2060 H2068 0.930 . S
C2061 C2060 1.394 . S
C2061 C2062 1.383 . S
C2061 H2069 0.929 . S
C2062 C2061 1.383 . S
C2062 C2063 1.377 . S
C2063 H2047 0.930 . S
C2063 C2062 1.377 . S
C2063 C2064 1.379 . S
C2064 H2048 0.931 . S
C2064 C2058 1.383 . S
C2064 C2063 1.379 . S
H2065 C2059 0.959 . S
H2066 C2059 0.961 . S
H2067 C2059 0.960 . S
H2068 C2060 0.930 . S
H2069 C2061 0.929 . S
H2070 C2078 0.929 . S
H2071 C2080 0.930 . S
H2072 C2082 0.930 . S
H2073 C2085 0.929 . S
H2074 C2088 0.930 . S
H2075 C2090 0.960 . S
H2076 C2090 0.960 . S
H2077 C2090 0.960 . S
C2078 H2070 0.929 . S
C2078 C2079 1.377 . S
C2078 C2080 1.384 . S
C2079 C2078 1.377 . S
C2079 C2085 1.390 . S
C2080 H2071 0.930 . S
C2080 C2078 1.384 . S
C2080 C2081 1.372 . S
C2081 C2080 1.372 . S
C2081 C2082 1.400 . S
C2081 C2086 1.490 . S
C2082 H2072 0.930 . S
C2082 C2081 1.400 . S
C2082 C2085 1.386 . S
H2083 C2099 0.930 . S
H2084 C2100 0.931 . S
C2085 H2073 0.929 . S
C2085 C2079 1.390 . S
C2085 C2082 1.386 . S
C2086 C2081 1.490 . S
C2086 C2088 1.395 . S
C2086 C2089 1.403 . S
H2087 C2093 0.930 . S
C2088 H2074 0.930 . S
C2088 C2086 1.395 . S
C2088 C2091 1.403 . S
C2089 C2086 1.403 . S
C2089 C2090 1.524 . S
C2089 C2093 1.400 . S
C2090 H2075 0.960 . S
C2090 H2076 0.960 . S
C2090 H2077 0.960 . S
C2090 C2089 1.524 . S
C2091 C2088 1.403 . S
C2091 C2092 1.392 . S
C2091 C2095 1.495 . S
C2092 C2091 1.392 . S
C2092 C2093 1.385 . S
C2092 C2094 1.478 . S
C2093 H2087 0.930 . S
C2093 C2089 1.400 . S
C2093 C2092 1.385 . S
C2094 C2092 1.478 . S
C2094 C2096 1.381 . S
C2094 C2100 1.383 . S
C2095 C2091 1.495 . S
C2095 H2101 0.959 . S
C2095 H2102 0.961 . S
C2095 H2103 0.960 . S
C2096 C2094 1.381 . S
C2096 C2097 1.394 . S
C2096 H2104 0.930 . S
C2097 C2096 1.394 . S
C2097 C2098 1.383 . S
C2097 H2105 0.929 . S
C2098 C2097 1.383 . S
C2098 C2099 1.377 . S
C2099 H2083 0.930 . S
C2099 C2098 1.377 . S
C2099 C2100 1.379 . S
C2100 H2084 0.931 . S
C2100 C2094 1.383 . S
C2100 C2099 1.379 . S
H2101 C2095 0.959 . S
H2102 C2095 0.961 . S
H2103 C2095 0.960 . S
H2104 C2096 0.930 . S
H2105 C2097 0.929 . S
H2106 C2114 0.929 . S
H2107 C2116 0.930 . S
H2108 C2118 0.930 . S
H2109 C2121 0.929 . S
H2110 C2124 0.930 . S
H2111 C2126 0.960 . S
H2112 C2126 0.960 . S
H2113 C2126 0.960 . S
C2114 H2106 0.929 . S
C2114 C2115 1.377 . S
C2114 C2116 1.384 . S
C2115 C2114 1.377 . S
C2115 C2121 1.390 . S
C2116 H2107 0.930 . S
C2116 C2114 1.384 . S
C2116 C2117 1.372 . S
C2117 C2116 1.372 . S
C2117 C2118 1.400 . S
C2117 C2122 1.490 . S
C2118 H2108 0.930 . S
C2118 C2117 1.400 . S
C2118 C2121 1.386 . S
H2119 C2135 0.930 . S
H2120 C2136 0.931 . S
C2121 H2109 0.929 . S
C2121 C2115 1.390 . S
C2121 C2118 1.386 . S
C2122 C2117 1.490 . S
C2122 C2124 1.395 . S
C2122 C2125 1.403 . S
H2123 C2129 0.930 . S
C2124 H2110 0.930 . S
C2124 C2122 1.395 . S
C2124 C2127 1.403 . S
C2125 C2122 1.403 . S
C2125 C2126 1.524 . S
C2125 C2129 1.400 . S
C2126 H2111 0.960 . S
C2126 H2112 0.960 . S
C2126 H2113 0.960 . S
C2126 C2125 1.524 . S
C2127 C2124 1.403 . S
C2127 C2128 1.392 . S
C2127 C2131 1.495 . S
C2128 C2127 1.392 . S
C2128 C2129 1.385 . S
C2128 C2130 1.478 . S
C2129 H2123 0.930 . S
C2129 C2125 1.400 . S
C2129 C2128 1.385 . S
C2130 C2128 1.478 . S
C2130 C2132 1.381 . S
C2130 C2136 1.383 . S
C2131 C2127 1.495 . S
C2131 H2137 0.959 . S
C2131 H2138 0.961 . S
C2131 H2139 0.960 . S
C2132 C2130 1.381 . S
C2132 C2133 1.394 . S
C2132 H2140 0.930 . S
C2133 C2132 1.394 . S
C2133 C2134 1.383 . S
C2133 H2141 0.929 . S
C2134 C2133 1.383 . S
C2134 C2135 1.377 . S
C2135 H2119 0.930 . S
C2135 C2134 1.377 . S
C2135 C2136 1.379 . S
C2136 H2120 0.931 . S
C2136 C2130 1.383 . S
C2136 C2135 1.379 . S
H2137 C2131 0.959 . S
H2138 C2131 0.961 . S
H2139 C2131 0.960 . S
H2140 C2132 0.930 . S
H2141 C2133 0.929 . S
H2142 C2150 0.929 . S
H2143 C2152 0.930 . S
H2144 C2154 0.930 . S
H2145 C2157 0.929 . S
H2146 C2160 0.930 . S
H2147 C2162 0.960 . S
H2148 C2162 0.960 . S
H2149 C2162 0.960 . S
C2150 H2142 0.929 . S
C2150 C2151 1.377 . S
C2150 C2152 1.384 . S
C2151 C2150 1.377 . S
C2151 C2157 1.390 . S
C2152 H2143 0.930 . S
C2152 C2150 1.384 . S
C2152 C2153 1.372 . S
C2153 C2152 1.372 . S
C2153 C2154 1.400 . S
C2153 C2158 1.490 . S
C2154 H2144 0.930 . S
C2154 C2153 1.400 . S
C2154 C2157 1.386 . S
H2155 C2171 0.930 . S
H2156 C2172 0.931 . S
C2157 H2145 0.929 . S
C2157 C2151 1.390 . S
C2157 C2154 1.386 . S
C2158 C2153 1.490 . S
C2158 C2160 1.395 . S
C2158 C2161 1.403 . S
H2159 C2165 0.930 . S
C2160 H2146 0.930 . S
C2160 C2158 1.395 . S
C2160 C2163 1.403 . S
C2161 C2158 1.403 . S
C2161 C2162 1.524 . S
C2161 C2165 1.400 . S
C2162 H2147 0.960 . S
C2162 H2148 0.960 . S
C2162 H2149 0.960 . S
C2162 C2161 1.524 . S
C2163 C2160 1.403 . S
C2163 C2164 1.392 . S
C2163 C2167 1.495 . S
C2164 C2163 1.392 . S
C2164 C2165 1.385 . S
C2164 C2166 1.478 . S
C2165 H2159 0.930 . S
C2165 C2161 1.400 . S
C2165 C2164 1.385 . S
C2166 C2164 1.478 . S
C2166 C2168 1.381 . S
C2166 C2172 1.383 . S
C2167 C2163 1.495 . S
C2167 H2173 0.959 . S
C2167 H2174 0.961 . S
C2167 H2175 0.960 . S
C2168 C2166 1.381 . S
C2168 C2169 1.394 . S
C2168 H2176 0.930 . S
C2169 C2168 1.394 . S
C2169 C2170 1.383 . S
C2169 H2177 0.929 . S
C2170 C2169 1.383 . S
C2170 C2171 1.377 . S
C2171 H2155 0.930 . S
C2171 C2170 1.377 . S
C2171 C2172 1.379 . S
C2172 H2156 0.931 . S
C2172 C2166 1.383 . S
C2172 C2171 1.379 . S
H2173 C2167 0.959 . S
H2174 C2167 0.961 . S
H2175 C2167 0.960 . S
H2176 C2168 0.930 . S
H2177 C2169 0.929 . S
H2178 C2186 0.929 . S
H2179 C2188 0.930 . S
H2180 C2190 0.930 . S
H2181 C2193 0.929 . S
H2182 C2196 0.930 . S
H2183 C2198 0.960 . S
H2184 C2198 0.960 . S
H2185 C2198 0.960 . S
C2186 H2178 0.929 . S
C2186 C2187 1.377 . S
C2186 C2188 1.384 . S
C2187 C2186 1.377 . S
C2187 C2193 1.390 . S
C2188 H2179 0.930 . S
C2188 C2186 1.384 . S
C2188 C2189 1.372 . S
C2189 C2188 1.372 . S
C2189 C2190 1.400 . S
C2189 C2194 1.490 . S
C2190 H2180 0.930 . S
C2190 C2189 1.400 . S
C2190 C2193 1.386 . S
H2191 C2207 0.930 . S
H2192 C2208 0.931 . S
C2193 H2181 0.929 . S
C2193 C2187 1.390 . S
C2193 C2190 1.386 . S
C2194 C2189 1.490 . S
C2194 C2196 1.395 . S
C2194 C2197 1.403 . S
H2195 C2201 0.930 . S
C2196 H2182 0.930 . S
C2196 C2194 1.395 . S
C2196 C2199 1.403 . S
C2197 C2194 1.403 . S
C2197 C2198 1.524 . S
C2197 C2201 1.400 . S
C2198 H2183 0.960 . S
C2198 H2184 0.960 . S
C2198 H2185 0.960 . S
C2198 C2197 1.524 . S
C2199 C2196 1.403 . S
C2199 C2200 1.392 . S
C2199 C2203 1.495 . S
C2200 C2199 1.392 . S
C2200 C2201 1.385 . S
C2200 C2202 1.478 . S
C2201 H2195 0.930 . S
C2201 C2197 1.400 . S
C2201 C2200 1.385 . S
C2202 C2200 1.478 . S
C2202 C2204 1.381 . S
C2202 C2208 1.383 . S
C2203 C2199 1.495 . S
C2203 H2209 0.959 . S
C2203 H2210 0.961 . S
C2203 H2211 0.960 . S
C2204 C2202 1.381 . S
C2204 C2205 1.394 . S
C2204 H2212 0.930 . S
C2205 C2204 1.394 . S
C2205 C2206 1.383 . S
C2205 H2213 0.929 . S
C2206 C2205 1.383 . S
C2206 C2207 1.377 . S
C2207 H2191 0.930 . S
C2207 C2206 1.377 . S
C2207 C2208 1.379 . S
C2208 H2192 0.931 . S
C2208 C2202 1.383 . S
C2208 C2207 1.379 . S
H2209 C2203 0.959 . S
H2210 C2203 0.961 . S
H2211 C2203 0.960 . S
H2212 C2204 0.930 . S
H2213 C2205 0.929 . S
H2214 C2222 0.929 . S
H2215 C2224 0.930 . S
H2216 C2226 0.930 . S
H2217 C2229 0.929 . S
H2218 C2232 0.930 . S
H2219 C2234 0.960 . S
H2220 C2234 0.960 . S
H2221 C2234 0.960 . S
C2222 H2214 0.929 . S
C2222 C2223 1.377 . S
C2222 C2224 1.384 . S
C2223 C2222 1.377 . S
C2223 C2229 1.390 . S
C2224 H2215 0.930 . S
C2224 C2222 1.384 . S
C2224 C2225 1.372 . S
C2225 C2224 1.372 . S
C2225 C2226 1.400 . S
C2225 C2230 1.490 . S
C2226 H2216 0.930 . S
C2226 C2225 1.400 . S
C2226 C2229 1.386 . S
H2227 C2243 0.930 . S
H2228 C2244 0.931 . S
C2229 H2217 0.929 . S
C2229 C2223 1.390 . S
C2229 C2226 1.386 . S
C2230 C2225 1.490 . S
C2230 C2232 1.395 . S
C2230 C2233 1.403 . S
H2231 C2237 0.930 . S
C2232 H2218 0.930 . S
C2232 C2230 1.395 . S
C2232 C2235 1.403 . S
C2233 C2230 1.403 . S
C2233 C2234 1.524 . S
C2233 C2237 1.400 . S
C2234 H2219 0.960 . S
C2234 H2220 0.960 . S
C2234 H2221 0.960 . S
C2234 C2233 1.524 . S
C2235 C2232 1.403 . S
C2235 C2236 1.392 . S
C2235 C2239 1.495 . S
C2236 C2235 1.392 . S
C2236 C2237 1.385 . S
C2236 C2238 1.478 . S
C2237 H2231 0.930 . S
C2237 C2233 1.400 . S
C2237 C2236 1.385 . S
C2238 C2236 1.478 . S
C2238 C2240 1.381 . S
C2238 C2244 1.383 . S
C2239 C2235 1.495 . S
C2239 H2245 0.959 . S
C2239 H2246 0.961 . S
C2239 H2247 0.960 . S
C2240 C2238 1.381 . S
C2240 C2241 1.394 . S
C2240 H2248 0.930 . S
C2241 C2240 1.394 . S
C2241 C2242 1.383 . S
C2241 H2249 0.929 . S
C2242 C2241 1.383 . S
C2242 C2243 1.377 . S
C2243 H2227 0.930 . S
C2243 C2242 1.377 . S
C2243 C2244 1.379 . S
C2244 H2228 0.931 . S
C2244 C2238 1.383 . S
C2244 C2243 1.379 . S
H2245 C2239 0.959 . S
H2246 C2239 0.961 . S
H2247 C2239 0.960 . S
H2248 C2240 0.930 . S
H2249 C2241 0.929 . S
H2250 C2258 0.929 . S
H2251 C2260 0.930 . S
H2252 C2262 0.930 . S
H2253 C2265 0.929 . S
H2254 C2268 0.930 . S
H2255 C2270 0.960 . S
H2256 C2270 0.960 . S
H2257 C2270 0.960 . S
C2258 H2250 0.929 . S
C2258 C2259 1.377 . S
C2258 C2260 1.384 . S
C2259 C2258 1.377 . S
C2259 C2265 1.390 . S
C2260 H2251 0.930 . S
C2260 C2258 1.384 . S
C2260 C2261 1.372 . S
C2261 C2260 1.372 . S
C2261 C2262 1.400 . S
C2261 C2266 1.490 . S
C2262 H2252 0.930 . S
C2262 C2261 1.400 . S
C2262 C2265 1.386 . S
H2263 C2279 0.930 . S
H2264 C2280 0.931 . S
C2265 H2253 0.929 . S
C2265 C2259 1.390 . S
C2265 C2262 1.386 . S
C2266 C2261 1.490 . S
C2266 C2268 1.395 . S
C2266 C2269 1.403 . S
H2267 C2273 0.930 . S
C2268 H2254 0.930 . S
C2268 C2266 1.395 . S
C2268 C2271 1.403 . S
C2269 C2266 1.403 . S
C2269 C2270 1.524 . S
C2269 C2273 1.400 . S
C2270 H2255 0.960 . S
C2270 H2256 0.960 . S
C2270 H2257 0.960 . S
C2270 C2269 1.524 . S
C2271 C2268 1.403 . S
C2271 C2272 1.392 . S
C2271 C2275 1.495 . S
C2272 C2271 1.392 . S
C2272 C2273 1.385 . S
C2272 C2274 1.478 . S
C2273 H2267 0.930 . S
C2273 C2269 1.400 . S
C2273 C2272 1.385 . S
C2274 C2272 1.478 . S
C2274 C2276 1.381 . S
C2274 C2280 1.383 . S
C2275 C2271 1.495 . S
C2275 H2281 0.959 . S
C2275 H2282 0.961 . S
C2275 H2283 0.960 . S
C2276 C2274 1.381 . S
C2276 C2277 1.394 . S
C2276 H2284 0.930 . S
C2277 C2276 1.394 . S
C2277 C2278 1.383 . S
C2277 H2285 0.929 . S
C2278 C2277 1.383 . S
C2278 C2279 1.377 . S
C2279 H2263 0.930 . S
C2279 C2278 1.377 . S
C2279 C2280 1.379 . S
C2280 H2264 0.931 . S
C2280 C2274 1.383 . S
C2280 C2279 1.379 . S
H2281 C2275 0.959 . S
H2282 C2275 0.961 . S
H2283 C2275 0.960 . S
H2284 C2276 0.930 . S
H2285 C2277 0.929 . S
H2286 C2294 0.929 . S
H2287 C2296 0.930 . S
H2288 C2298 0.930 . S
H2289 C2301 0.929 . S
H2290 C2304 0.930 . S
H2291 C2306 0.960 . S
H2292 C2306 0.960 . S
H2293 C2306 0.960 . S
C2294 H2286 0.929 . S
C2294 C2295 1.377 . S
C2294 C2296 1.384 . S
C2295 C2294 1.377 . S
C2295 C2301 1.390 . S
C2296 H2287 0.930 . S
C2296 C2294 1.384 . S
C2296 C2297 1.372 . S
C2297 C2296 1.372 . S
C2297 C2298 1.400 . S
C2297 C2302 1.490 . S
C2298 H2288 0.930 . S
C2298 C2297 1.400 . S
C2298 C2301 1.386 . S
H2299 C2315 0.930 . S
H2300 C2316 0.931 . S
C2301 H2289 0.929 . S
C2301 C2295 1.390 . S
C2301 C2298 1.386 . S
C2302 C2297 1.490 . S
C2302 C2304 1.395 . S
C2302 C2305 1.403 . S
H2303 C2309 0.930 . S
C2304 H2290 0.930 . S
C2304 C2302 1.395 . S
C2304 C2307 1.403 . S
C2305 C2302 1.403 . S
C2305 C2306 1.524 . S
C2305 C2309 1.400 . S
C2306 H2291 0.960 . S
C2306 H2292 0.960 . S
C2306 H2293 0.960 . S
C2306 C2305 1.524 . S
C2307 C2304 1.403 . S
C2307 C2308 1.392 . S
C2307 C2311 1.495 . S
C2308 C2307 1.392 . S
C2308 C2309 1.385 . S
C2308 C2310 1.478 . S
C2309 H2303 0.930 . S
C2309 C2305 1.400 . S
C2309 C2308 1.385 . S
C2310 C2308 1.478 . S
C2310 C2312 1.381 . S
C2310 C2316 1.383 . S
C2311 C2307 1.495 . S
C2311 H2317 0.959 . S
C2311 H2318 0.961 . S
C2311 H2319 0.960 . S
C2312 C2310 1.381 . S
C2312 C2313 1.394 . S
C2312 H2320 0.930 . S
C2313 C2312 1.394 . S
C2313 C2314 1.383 . S
C2313 H2321 0.929 . S
C2314 C2313 1.383 . S
C2314 C2315 1.377 . S
C2315 H2299 0.930 . S
C2315 C2314 1.377 . S
C2315 C2316 1.379 . S
C2316 H2300 0.931 . S
C2316 C2310 1.383 . S
C2316 C2315 1.379 . S
H2317 C2311 0.959 . S
H2318 C2311 0.961 . S
H2319 C2311 0.960 . S
H2320 C2312 0.930 . S
H2321 C2313 0.929 . S
H2322 C2330 0.929 . S
H2323 C2332 0.930 . S
H2324 C2334 0.930 . S
H2325 C2337 0.929 . S
H2326 C2340 0.930 . S
H2327 C2342 0.960 . S
H2328 C2342 0.960 . S
H2329 C2342 0.960 . S
C2330 H2322 0.929 . S
C2330 C2331 1.377 . S
C2330 C2332 1.384 . S
C2331 C2330 1.377 . S
C2331 C2337 1.390 . S
C2332 H2323 0.930 . S
C2332 C2330 1.384 . S
C2332 C2333 1.372 . S
C2333 C2332 1.372 . S
C2333 C2334 1.400 . S
C2333 C2338 1.490 . S
C2334 H2324 0.930 . S
C2334 C2333 1.400 . S
C2334 C2337 1.386 . S
H2335 C2351 0.930 . S
H2336 C2352 0.931 . S
C2337 H2325 0.929 . S
C2337 C2331 1.390 . S
C2337 C2334 1.386 . S
C2338 C2333 1.490 . S
C2338 C2340 1.395 . S
C2338 C2341 1.403 . S
H2339 C2345 0.930 . S
C2340 H2326 0.930 . S
C2340 C2338 1.395 . S
C2340 C2343 1.403 . S
C2341 C2338 1.403 . S
C2341 C2342 1.524 . S
C2341 C2345 1.400 . S
C2342 H2327 0.960 . S
C2342 H2328 0.960 . S
C2342 H2329 0.960 . S
C2342 C2341 1.524 . S
C2343 C2340 1.403 . S
C2343 C2344 1.392 . S
C2343 C2347 1.495 . S
C2344 C2343 1.392 . S
C2344 C2345 1.385 . S
C2344 C2346 1.478 . S
C2345 H2339 0.930 . S
C2345 C2341 1.400 . S
C2345 C2344 1.385 . S
C2346 C2344 1.478 . S
C2346 C2348 1.381 . S
C2346 C2352 1.383 . S
C2347 C2343 1.495 . S
C2347 H2353 0.959 . S
C2347 H2354 0.961 . S
C2347 H2355 0.960 . S
C2348 C2346 1.381 . S
C2348 C2349 1.394 . S
C2348 H2356 0.930 . S
C2349 C2348 1.394 . S
C2349 C2350 1.383 . S
C2349 H2357 0.929 . S
C2350 C2349 1.383 . S
C2350 C2351 1.377 . S
C2351 H2335 0.930 . S
C2351 C2350 1.377 . S
C2351 C2352 1.379 . S
C2352 H2336 0.931 . S
C2352 C2346 1.383 . S
C2352 C2351 1.379 . S
H2353 C2347 0.959 . S
H2354 C2347 0.961 . S
H2355 C2347 0.960 . S
H2356 C2348 0.930 . S
H2357 C2349 0.929 . S
H2358 C2366 0.929 . S
H2359 C2368 0.930 . S
H2360 C2370 0.930 . S
H2361 C2373 0.929 . S
H2362 C2376 0.930 . S
H2363 C2378 0.960 . S
H2364 C2378 0.960 . S
H2365 C2378 0.960 . S
C2366 H2358 0.929 . S
C2366 C2367 1.377 . S
C2366 C2368 1.384 . S
C2367 C2366 1.377 . S
C2367 C2373 1.390 . S
C2368 H2359 0.930 . S
C2368 C2366 1.384 . S
C2368 C2369 1.372 . S
C2369 C2368 1.372 . S
C2369 C2370 1.400 . S
C2369 C2374 1.490 . S
C2370 H2360 0.930 . S
C2370 C2369 1.400 . S
C2370 C2373 1.386 . S
H2371 C2387 0.930 . S
H2372 C2388 0.931 . S
C2373 H2361 0.929 . S
C2373 C2367 1.390 . S
C2373 C2370 1.386 . S
C2374 C2369 1.490 . S
C2374 C2376 1.395 . S
C2374 C2377 1.403 . S
H2375 C2381 0.930 . S
C2376 H2362 0.930 . S
C2376 C2374 1.395 . S
C2376 C2379 1.403 . S
C2377 C2374 1.403 . S
C2377 C2378 1.524 . S
C2377 C2381 1.400 . S
C2378 H2363 0.960 . S
C2378 H2364 0.960 . S
C2378 H2365 0.960 . S
C2378 C2377 1.524 . S
C2379 C2376 1.403 . S
C2379 C2380 1.392 . S
C2379 C2383 1.495 . S
C2380 C2379 1.392 . S
C2380 C2381 1.385 . S
C2380 C2382 1.478 . S
C2381 H2375 0.930 . S
C2381 C2377 1.400 . S
C2381 C2380 1.385 . S
C2382 C2380 1.478 . S
C2382 C2384 1.381 . S
C2382 C2388 1.383 . S
C2383 C2379 1.495 . S
C2383 H2389 0.959 . S
C2383 H2390 0.961 . S
C2383 H2391 0.960 . S
C2384 C2382 1.381 . S
C2384 C2385 1.394 . S
C2384 H2392 0.930 . S
C2385 C2384 1.394 . S
C2385 C2386 1.383 . S
C2385 H2393 0.929 . S
C2386 C2385 1.383 . S
C2386 C2387 1.377 . S
C2387 H2371 0.930 . S
C2387 C2386 1.377 . S
C2387 C2388 1.379 . S
C2388 H2372 0.931 . S
C2388 C2382 1.383 . S
C2388 C2387 1.379 . S
H2389 C2383 0.959 . S
H2390 C2383 0.961 . S
H2391 C2383 0.960 . S
H2392 C2384 0.930 . S
H2393 C2385 0.929 . S
H2394 C2402 0.929 . S
H2395 C2404 0.930 . S
H2396 C2406 0.930 . S
H2397 C2409 0.929 . S
H2398 C2412 0.930 . S
H2399 C2414 0.960 . S
H2400 C2414 0.960 . S
H2401 C2414 0.960 . S
C2402 H2394 0.929 . S
C2402 C2403 1.377 . S
C2402 C2404 1.384 . S
C2403 C2402 1.377 . S
C2403 C2409 1.390 . S
C2404 H2395 0.930 . S
C2404 C2402 1.384 . S
C2404 C2405 1.372 . S
C2405 C2404 1.372 . S
C2405 C2406 1.400 . S
C2405 C2410 1.490 . S
C2406 H2396 0.930 . S
C2406 C2405 1.400 . S
C2406 C2409 1.386 . S
H2407 C2423 0.930 . S
H2408 C2424 0.931 . S
C2409 H2397 0.929 . S
C2409 C2403 1.390 . S
C2409 C2406 1.386 . S
C2410 C2405 1.490 . S
C2410 C2412 1.395 . S
C2410 C2413 1.403 . S
H2411 C2417 0.930 . S
C2412 H2398 0.930 . S
C2412 C2410 1.395 . S
C2412 C2415 1.403 . S
C2413 C2410 1.403 . S
C2413 C2414 1.524 . S
C2413 C2417 1.400 . S
C2414 H2399 0.960 . S
C2414 H2400 0.960 . S
C2414 H2401 0.960 . S
C2414 C2413 1.524 . S
C2415 C2412 1.403 . S
C2415 C2416 1.392 . S
C2415 C2419 1.495 . S
C2416 C2415 1.392 . S
C2416 C2417 1.385 . S
C2416 C2418 1.478 . S
C2417 H2411 0.930 . S
C2417 C2413 1.400 . S
C2417 C2416 1.385 . S
C2418 C2416 1.478 . S
C2418 C2420 1.381 . S
C2418 C2424 1.383 . S
C2419 C2415 1.495 . S
C2419 H2425 0.959 . S
C2419 H2426 0.961 . S
C2419 H2427 0.960 . S
C2420 C2418 1.381 . S
C2420 C2421 1.394 . S
C2420 H2428 0.930 . S
C2421 C2420 1.394 . S
C2421 C2422 1.383 . S
C2421 H2429 0.929 . S
C2422 C2421 1.383 . S
C2422 C2423 1.377 . S
C2423 H2407 0.930 . S
C2423 C2422 1.377 . S
C2423 C2424 1.379 . S
C2424 H2408 0.931 . S
C2424 C2418 1.383 . S
C2424 C2423 1.379 . S
H2425 C2419 0.959 . S
H2426 C2419 0.961 . S
H2427 C2419 0.960 . S
H2428 C2420 0.930 . S
H2429 C2421 0.929 . S
H2430 C2438 0.929 . S
H2431 C2440 0.930 . S
H2432 C2442 0.930 . S
H2433 C2445 0.929 . S
H2434 C2448 0.930 . S
H2435 C2450 0.960 . S
H2436 C2450 0.960 . S
H2437 C2450 0.960 . S
C2438 H2430 0.929 . S
C2438 C2439 1.377 . S
C2438 C2440 1.384 . S
C2439 C2438 1.377 . S
C2439 C2445 1.390 . S
C2440 H2431 0.930 . S
C2440 C2438 1.384 . S
C2440 C2441 1.372 . S
C2441 C2440 1.372 . S
C2441 C2442 1.400 . S
C2441 C2446 1.490 . S
C2442 H2432 0.930 . S
C2442 C2441 1.400 . S
C2442 C2445 1.386 . S
H2443 C2459 0.930 . S
H2444 C2460 0.931 . S
C2445 H2433 0.929 . S
C2445 C2439 1.390 . S
C2445 C2442 1.386 . S
C2446 C2441 1.490 . S
C2446 C2448 1.395 . S
C2446 C2449 1.403 . S
H2447 C2453 0.930 . S
C2448 H2434 0.930 . S
C2448 C2446 1.395 . S
C2448 C2451 1.403 . S
C2449 C2446 1.403 . S
C2449 C2450 1.524 . S
C2449 C2453 1.400 . S
C2450 H2435 0.960 . S
C2450 H2436 0.960 . S
C2450 H2437 0.960 . S
C2450 C2449 1.524 . S
C2451 C2448 1.403 . S
C2451 C2452 1.392 . S
C2451 C2455 1.495 . S
C2452 C2451 1.392 . S
C2452 C2453 1.385 . S
C2452 C2454 1.478 . S
C2453 H2447 0.930 . S
C2453 C2449 1.400 . S
C2453 C2452 1.385 . S
C2454 C2452 1.478 . S
C2454 C2456 1.381 . S
C2454 C2460 1.383 . S
C2455 C2451 1.495 . S
C2455 H2461 0.959 . S
C2455 H2462 0.961 . S
C2455 H2463 0.960 . S
C2456 C2454 1.381 . S
C2456 C2457 1.394 . S
C2456 H2464 0.930 . S
C2457 C2456 1.394 . S
C2457 C2458 1.383 . S
C2457 H2465 0.929 . S
C2458 C2457 1.383 . S
C2458 C2459 1.377 . S
C2459 H2443 0.930 . S
C2459 C2458 1.377 . S
C2459 C2460 1.379 . S
C2460 H2444 0.931 . S
C2460 C2454 1.383 . S
C2460 C2459 1.379 . S
H2461 C2455 0.959 . S
H2462 C2455 0.961 . S
H2463 C2455 0.960 . S
H2464 C2456 0.930 . S
H2465 C2457 0.929 . S
H2466 C2474 0.929 . S
H2467 C2476 0.930 . S
H2468 C2478 0.930 . S
H2469 C2481 0.929 . S
H2470 C2484 0.930 . S
H2471 C2486 0.960 . S
H2472 C2486 0.960 . S
H2473 C2486 0.960 . S
C2474 H2466 0.929 . S
C2474 C2475 1.377 . S
C2474 C2476 1.384 . S
C2475 C2474 1.377 . S
C2475 C2481 1.390 . S
C2476 H2467 0.930 . S
C2476 C2474 1.384 . S
C2476 C2477 1.372 . S
C2477 C2476 1.372 . S
C2477 C2478 1.400 . S
C2477 C2482 1.490 . S
C2478 H2468 0.930 . S
C2478 C2477 1.400 . S
C2478 C2481 1.386 . S
H2479 C2495 0.930 . S
H2480 C2496 0.931 . S
C2481 H2469 0.929 . S
C2481 C2475 1.390 . S
C2481 C2478 1.386 . S
C2482 C2477 1.490 . S
C2482 C2484 1.395 . S
C2482 C2485 1.403 . S
H2483 C2489 0.930 . S
C2484 H2470 0.930 . S
C2484 C2482 1.395 . S
C2484 C2487 1.403 . S
C2485 C2482 1.403 . S
C2485 C2486 1.524 . S
C2485 C2489 1.400 . S
C2486 H2471 0.960 . S
C2486 H2472 0.960 . S
C2486 H2473 0.960 . S
C2486 C2485 1.524 . S
C2487 C2484 1.403 . S
C2487 C2488 1.392 . S
C2487 C2491 1.495 . S
C2488 C2487 1.392 . S
C2488 C2489 1.385 . S
C2488 C2490 1.478 . S
C2489 H2483 0.930 . S
C2489 C2485 1.400 . S
C2489 C2488 1.385 . S
C2490 C2488 1.478 . S
C2490 C2492 1.381 . S
C2490 C2496 1.383 . S
C2491 C2487 1.495 . S
C2491 H2497 0.959 . S
C2491 H2498 0.961 . S
C2491 H2499 0.960 . S
C2492 C2490 1.381 . S
C2492 C2493 1.394 . S
C2492 H2500 0.930 . S
C2493 C2492 1.394 . S
C2493 C2494 1.383 . S
C2493 H2501 0.929 . S
C2494 C2493 1.383 . S
C2494 C2495 1.377 . S
C2495 H2479 0.930 . S
C2495 C2494 1.377 . S
C2495 C2496 1.379 . S
C2496 H2480 0.931 . S
C2496 C2490 1.383 . S
C2496 C2495 1.379 . S
H2497 C2491 0.959 . S
H2498 C2491 0.961 . S
H2499 C2491 0.960 . S
H2500 C2492 0.930 . S
H2501 C2493 0.929 . S
H2502 C2510 0.929 . S
H2503 C2512 0.930 . S
H2504 C2514 0.930 . S
H2505 C2517 0.929 . S
H2506 C2520 0.930 . S
H2507 C2522 0.960 . S
H2508 C2522 0.960 . S
H2509 C2522 0.960 . S
C2510 H2502 0.929 . S
C2510 C2511 1.377 . S
C2510 C2512 1.384 . S
C2511 C2510 1.377 . S
C2511 C2517 1.390 . S
C2512 H2503 0.930 . S
C2512 C2510 1.384 . S
C2512 C2513 1.372 . S
C2513 C2512 1.372 . S
C2513 C2514 1.400 . S
C2513 C2518 1.490 . S
C2514 H2504 0.930 . S
C2514 C2513 1.400 . S
C2514 C2517 1.386 . S
H2515 C2531 0.930 . S
H2516 C2532 0.931 . S
C2517 H2505 0.929 . S
C2517 C2511 1.390 . S
C2517 C2514 1.386 . S
C2518 C2513 1.490 . S
C2518 C2520 1.395 . S
C2518 C2521 1.403 . S
H2519 C2525 0.930 . S
C2520 H2506 0.930 . S
C2520 C2518 1.395 . S
C2520 C2523 1.403 . S
C2521 C2518 1.403 . S
C2521 C2522 1.524 . S
C2521 C2525 1.400 . S
C2522 H2507 0.960 . S
C2522 H2508 0.960 . S
C2522 H2509 0.960 . S
C2522 C2521 1.524 . S
C2523 C2520 1.403 . S
C2523 C2524 1.392 . S
C2523 C2527 1.495 . S
C2524 C2523 1.392 . S
C2524 C2525 1.385 . S
C2524 C2526 1.478 . S
C2525 H2519 0.930 . S
C2525 C2521 1.400 . S
C2525 C2524 1.385 . S
C2526 C2524 1.478 . S
C2526 C2528 1.381 . S
C2526 C2532 1.383 . S
C2527 C2523 1.495 . S
C2527 H2533 0.959 . S
C2527 H2534 0.961 . S
C2527 H2535 0.960 . S
C2528 C2526 1.381 . S
C2528 C2529 1.394 . S
C2528 H2536 0.930 . S
C2529 C2528 1.394 . S
C2529 C2530 1.383 . S
C2529 H2537 0.929 . S
C2530 C2529 1.383 . S
C2530 C2531 1.377 . S
C2531 H2515 0.930 . S
C2531 C2530 1.377 . S
C2531 C2532 1.379 . S
C2532 H2516 0.931 . S
C2532 C2526 1.383 . S
C2532 C2531 1.379 . S
H2533 C2527 0.959 . S
H2534 C2527 0.961 . S
H2535 C2527 0.960 . S
H2536 C2528 0.930 . S
H2537 C2529 0.929 . S
C603 C177 1.677 . S
C622 C243 1.659 . S
C639 C190 1.828 . S
C658 C283 1.811 . S
C675 C164 1.603 . S
C694 C322 1.557 . S
C711 C151 1.463 . S
C730 C282 1.401 . S
C766 C323 1.448 1_556 S
C747 C125 1.489 . S
C783 C138 1.320 . S
C802 C242 1.313 . S
C838 C253 1.620 1_556 S
C819 C147 1.629 . S
C874 C293 1.690 . S
C855 C121 1.638 . S
C891 C134 1.626 . S
C910 C332 1.657 . S
C927 C173 1.461 . S
C946 C292 1.495 . S
C963 C186 1.406 . S
C982 C333 1.402 . S
C1018 C252 1.425 . S
C999 C160 1.401 . S
C1054 C363 1.682 . S
C1035 C21 1.677 . S
C1071 C34 1.830 . S
C1090 C403 1.822 . S
C1107 C8 1.605 . S
C1126 C442 1.576 . S
C1143 C229 1.467 . S
C1162 C402 1.430 . S
C1179 C203 1.490 . S
C1198 C443 1.483 . S
C1215 C216 1.315 . S
C1234 C362 1.279 . S
C1251 C225 1.636 . S
C1270 C373 1.659 . S
C1287 C199 1.641 . S
C1306 C413 1.682 . S
C1342 C452 1.682 . S
C1323 C212 1.631 . S
C1359 C17 1.455 . S
C1378 C412 1.504 . S
C1414 C453 1.398 . S
C1395 C30 1.407 . S
C1431 C4 1.392 . S
C1450 C372 1.429 . S
C1486 C483 1.681 . S
C1467 C99 1.677 . S
C1503 C112 1.829 . S
C1522 C523 1.827 . S
C1558 C562 1.559 . S
C1539 C86 1.603 . S
C1594 C522 1.433 . S
C1575 C73 1.467 . S
C1630 C563 1.480 . S
C1611 C47 1.488 . S
C1647 C60 1.315 . S
C1666 C482 1.275 . S
C1683 C69 1.629 . S
C1702 C493 1.629 . S
C1719 C43 1.642 . S
C1738 C533 1.683 . S
C1774 C572 1.667 . S
C1755 C56 1.630 . S
C1791 C95 1.449 . S
C1810 C532 1.463 . S
C1827 C108 1.409 . S
C1846 C573 1.422 . S
C1863 C82 1.393 . S
C1882 C492 1.409 . S
C1899 C204 1.421 . S
C1918 C239 1.398 . S
C1954 C279 1.983 . S
C1935 C217 1.975 . S
C1971 C230 1.562 . S
C1990 C329 1.571 . S
C2007 C87 1.822 . S
C2026 C289 1.833 . S
C2043 C100 1.685 . S
C2062 C319 1.693 . S
C2098 C249 1.257 . S
C2079 C113 1.253 . S
C2115 C48 1.420 . S
C2134 C359 1.395 . S
C2151 C61 1.977 . S
C2170 C399 1.967 . S
C2187 C74 1.563 . S
C2206 C449 1.582 . S
C2223 C165 1.823 . S
C2242 C409 1.831 . S
C2278 C439 1.694 . S
C2259 C178 1.685 . S
C2295 C191 1.251 . S
C2314 C369 1.261 . S
C2331 C126 1.418 . S
C2350 C479 1.394 . S
C2367 C139 1.977 . S
C2386 C519 1.975 . S
C2422 C569 1.572 . S
C2403 C152 1.566 . S
C2439 C9 1.826 . S
C2458 C529 1.843 . S
C2475 C22 1.688 . S
C2494 C559 1.682 . S
C2511 C35 1.253 . S
C2530 C489 1.258 . S
