# Generated by pormake.
# Topology wbl, (4,4)-cn, num edge types: 1
# Building blocks:
#     Node 0, Type 0, BuildingBlock: MIFKUJ_clean_linker_1, # of connection points: 4
#     Node 1, Type 0, BuildingBlock: MIFKUJ_clean_linker_1, # of connection points: 4
#     Node 2, Type 0, BuildingBlock: MIFKUJ_clean_linker_1, # of connection points: 4
#     Node 3, Type 0, BuildingBlock: MIFKUJ_clean_linker_1, # of connection points: 4
#     Node 4, Type 0, BuildingBlock: MIFKUJ_clean_linker_1, # of connection points: 4
#     Node 5, Type 0, BuildingBlock: MIFKUJ_clean_linker_1, # of connection points: 4
#     Node 6, Type 0, BuildingBlock: MIFKUJ_clean_linker_1, # of connection points: 4
#     Node 7, Type 0, BuildingBlock: MIFKUJ_clean_linker_1, # of connection points: 4
#     Node 8, Type 1, BuildingBlock: NAHDIM_clean_sbu_0, # of connection points: 4
#     Node 9, Type 1, BuildingBlock: NAHDIM_clean_sbu_0, # of connection points: 4
#     Node 10, Type 1, BuildingBlock: NAHDIM_clean_sbu_0, # of connection points: 4
#     Node 11, Type 1, BuildingBlock: NAHDIM_clean_sbu_0, # of connection points: 4
#     Node 12, Type 1, BuildingBlock: NAHDIM_clean_sbu_0, # of connection points: 4
#     Node 13, Type 1, BuildingBlock: NAHDIM_clean_sbu_0, # of connection points: 4
#     Node 14, Type 1, BuildingBlock: NAHDIM_clean_sbu_0, # of connection points: 4
#     Node 15, Type 1, BuildingBlock: NAHDIM_clean_sbu_0, # of connection points: 4
#     Edge 16, Type (0, 1), BuildingBlock: UVAHIK_clean_linker_0, # of connection points: 2
#     Edge 17, Type (0, 1), BuildingBlock: UVAHIK_clean_linker_0, # of connection points: 2
#     Edge 18, Type (0, 1), BuildingBlock: UVAHIK_clean_linker_0, # of connection points: 2
#     Edge 19, Type (0, 1), BuildingBlock: UVAHIK_clean_linker_0, # of connection points: 2
#     Edge 20, Type (0, 1), BuildingBlock: UVAHIK_clean_linker_0, # of connection points: 2
#     Edge 21, Type (0, 1), BuildingBlock: UVAHIK_clean_linker_0, # of connection points: 2
#     Edge 22, Type (0, 1), BuildingBlock: UVAHIK_clean_linker_0, # of connection points: 2
#     Edge 23, Type (0, 1), BuildingBlock: UVAHIK_clean_linker_0, # of connection points: 2
#     Edge 24, Type (0, 1), BuildingBlock: UVAHIK_clean_linker_0, # of connection points: 2
#     Edge 25, Type (0, 1), BuildingBlock: UVAHIK_clean_linker_0, # of connection points: 2
#     Edge 26, Type (0, 1), BuildingBlock: UVAHIK_clean_linker_0, # of connection points: 2
#     Edge 27, Type (0, 1), BuildingBlock: UVAHIK_clean_linker_0, # of connection points: 2
#     Edge 28, Type (0, 1), BuildingBlock: UVAHIK_clean_linker_0, # of connection points: 2
#     Edge 29, Type (0, 1), BuildingBlock: UVAHIK_clean_linker_0, # of connection points: 2
#     Edge 30, Type (0, 1), BuildingBlock: UVAHIK_clean_linker_0, # of connection points: 2
#     Edge 31, Type (0, 1), BuildingBlock: UVAHIK_clean_linker_0, # of connection points: 2
#     Edge 32, Type (0, 1), BuildingBlock: UVAHIK_clean_linker_0, # of connection points: 2
#     Edge 33, Type (0, 1), BuildingBlock: UVAHIK_clean_linker_0, # of connection points: 2
#     Edge 34, Type (0, 1), BuildingBlock: UVAHIK_clean_linker_0, # of connection points: 2
#     Edge 35, Type (0, 1), BuildingBlock: UVAHIK_clean_linker_0, # of connection points: 2
#     Edge 36, Type (0, 1), BuildingBlock: UVAHIK_clean_linker_0, # of connection points: 2
#     Edge 37, Type (0, 1), BuildingBlock: UVAHIK_clean_linker_0, # of connection points: 2
#     Edge 38, Type (0, 1), BuildingBlock: UVAHIK_clean_linker_0, # of connection points: 2
#     Edge 39, Type (0, 1), BuildingBlock: UVAHIK_clean_linker_0, # of connection points: 2
#     Edge 40, Type (0, 1), BuildingBlock: UVAHIK_clean_linker_0, # of connection points: 2
#     Edge 41, Type (0, 1), BuildingBlock: UVAHIK_clean_linker_0, # of connection points: 2
#     Edge 42, Type (0, 1), BuildingBlock: UVAHIK_clean_linker_0, # of connection points: 2
#     Edge 43, Type (0, 1), BuildingBlock: UVAHIK_clean_linker_0, # of connection points: 2
#     Edge 44, Type (0, 1), BuildingBlock: UVAHIK_clean_linker_0, # of connection points: 2
#     Edge 45, Type (0, 1), BuildingBlock: UVAHIK_clean_linker_0, # of connection points: 2
#     Edge 46, Type (0, 1), BuildingBlock: UVAHIK_clean_linker_0, # of connection points: 2
#     Edge 47, Type (0, 1), BuildingBlock: UVAHIK_clean_linker_0, # of connection points: 2
# Relax obj value: 0.144
# Max RMSD: 0.133
# Mean RMSD: 0.124
data_MOF--net-wbl--node1-NAHDIM_clean_sbu_0--node2-MIFKUJ_clean_linker_1--edge1-UVAHIK_clean_linker_0
_symmetry_space_group_name_H-M    P1
_symmetry_Int_Tables_number       1
_symmetry_cell_setting            triclinic
loop_
_symmetry_equiv_pos_as_xyz
'x, y, z'
_cell_length_a     58.388552
_cell_length_b     56.562138
_cell_length_c     90.377395
_cell_angle_alpha  90.007348
_cell_angle_beta   90.000413
_cell_angle_gamma 90.027242
loop_
_atom_site_label
_atom_site_type_symbol
_atom_site_fract_x
_atom_site_fract_y
_atom_site_fract_z
_atom_type_partial_charge
H0 H 0.99263 0.04383 0.35792 0.0
H1 H 0.96951 0.06982 0.37341 0.0
H2 H 0.90859 0.0474 0.35011 0.0
H3 H 0.93182 0.02068 0.33499 0.0
H4 H 0.99146 0.99717 0.35618 0.0
H5 H 0.98023 0.06211 0.32262 0.0
H6 H 0.95702 0.09066 0.30887 0.0
H7 H 0.9242 0.03324 0.28549 0.0
H8 H 0.94735 0.00482 0.2993 0.0
H9 H 0.00698 0.9327 0.32299 0.0
H10 H 0.03319 0.90574 0.31025 0.0
H11 H 0.06256 0.96485 0.28666 0.0
H12 H 0.03671 0.99175 0.29962 0.0
H13 H 0.9924 0.9975 0.3013 0.0
H14 H 0.99192 0.94792 0.35646 0.0
H15 H 0.01608 0.92317 0.37225 0.0
H16 H 0.07651 0.95418 0.35263 0.0
H17 H 0.05219 0.97903 0.33689 0.0
C18 C 0.96398 0.03038 0.34527 0.0
C19 C 0.97429 0.04454 0.35614 0.0
C20 C 0.96106 0.05958 0.36488 0.0
C21 C 0.93719 0.06078 0.36297 0.0
C22 C 0.9269 0.04675 0.35195 0.0
C23 C 0.94017 0.03163 0.34321 0.0
C24 C 0.97817 0.01373 0.33652 0.0
C25 C 0.99162 0.99725 0.34418 0.0
C26 C 0.97854 0.01391 0.32086 0.0
C27 C 0.96526 0.03133 0.31213 0.0
C28 C 0.96797 0.05569 0.31456 0.0
C29 C 0.95474 0.07197 0.30669 0.0
C30 C 0.93876 0.06418 0.29613 0.0
C31 C 0.93656 0.0398 0.29343 0.0
C32 C 0.9497 0.02354 0.30135 0.0
C33 C 0.02016 0.9643 0.31245 0.0
C34 C 0.0191 0.93985 0.3151 0.0
C35 C 0.034 0.92447 0.30779 0.0
C36 C 0.04992 0.93323 0.2975 0.0
C37 C 0.05029 0.95757 0.29441 0.0
C38 C 0.03557 0.97297 0.30184 0.0
C39 C 0.0057 0.98099 0.32099 0.0
C40 C 0.99215 0.9974 0.3133 0.0
C41 C 0.00552 0.98107 0.33664 0.0
C42 C 0.02028 0.9652 0.3455 0.0
C43 C 0.01037 0.94924 0.3555 0.0
C44 C 0.02418 0.93502 0.36442 0.0
C45 C 0.04817 0.93674 0.36364 0.0
C46 C 0.05807 0.95259 0.35351 0.0
C47 C 0.04423 0.96667 0.34448 0.0
H48 H 0.99297 0.45272 0.55339 0.0
H49 H 0.96468 0.42737 0.54122 0.0
H50 H 0.91014 0.46885 0.56047 0.0
H51 H 0.93848 0.49399 0.57264 0.0
H52 H 0.00298 0.50014 0.5531 0.0
H53 H 0.97991 0.44252 0.58902 0.0
H54 H 0.95364 0.41869 0.60398 0.0
H55 H 0.92428 0.48249 0.62214 0.0
H56 H 0.95051 0.50625 0.60707 0.0
H57 H 0.00632 0.55373 0.60711 0.0
H58 H 0.03297 0.57533 0.62303 0.0
H59 H 0.08925 0.53475 0.6052 0.0
H60 H 0.06242 0.5129 0.58948 0.0
H61 H -0.00198 0.50604 0.60782 0.0
H62 H 0.02011 0.56341 0.57068 0.0
H63 H 0.04863 0.58687 0.55732 0.0
H64 H 0.08151 0.52271 0.54248 0.0
H65 H 0.05272 0.49925 0.55584 0.0
C66 C 0.96781 0.47498 0.56409 0.0
C67 C 0.97492 0.45652 0.55481 0.0
C68 C 0.95873 0.4421 0.54784 0.0
C69 C 0.93517 0.44599 0.55 0.0
C70 C 0.92815 0.46514 0.55881 0.0
C71 C 0.94432 0.47954 0.56574 0.0
C72 C 0.9848 0.48884 0.57263 0.0
C73 C 0.00206 0.50119 0.56507 0.0
C74 C 0.98348 0.49047 0.58822 0.0
C75 C 0.96706 0.47613 0.59691 0.0
C76 C 0.96767 0.45136 0.59612 0.0
C77 C 0.95277 0.43778 0.60472 0.0
C78 C 0.93694 0.44876 0.61421 0.0
C79 C 0.93615 0.47358 0.61481 0.0
C80 C 0.9512 0.48715 0.60631 0.0
C81 C 0.03241 0.53181 0.59707 0.0
C82 C 0.02443 0.54963 0.60655 0.0
C83 C 0.03969 0.56205 0.61556 0.0
C84 C 0.06321 0.55673 0.61535 0.0
C85 C 0.07121 0.53911 0.60567 0.0
C86 C 0.05594 0.52677 0.5966 0.0
C87 C 0.01595 0.51762 0.5883 0.0
C88 C -0.00113 0.50505 0.59584 0.0
C89 C 0.01756 0.51567 0.57274 0.0
C90 C 0.03441 0.52965 0.56426 0.0
C91 C 0.0334 0.55441 0.56449 0.0
C92 C 0.0496 0.56776 0.55682 0.0
C93 C 0.06721 0.55656 0.54887 0.0
C94 C 0.06815 0.53174 0.54859 0.0
C95 C 0.05171 0.51837 0.55612 0.0
H96 H 0.48956 0.53976 0.85841 0.0
H97 H 0.46558 0.56545 0.87356 0.0
H98 H 0.40601 0.54365 0.84864 0.0
H99 H 0.43011 0.51734 0.83377 0.0
H100 H 0.48825 0.49291 0.85602 0.0
H101 H 0.47981 0.55943 0.82348 0.0
H102 H 0.45769 0.58888 0.80974 0.0
H103 H 0.42607 0.53302 0.78428 0.0
H104 H 0.44816 0.50369 0.79809 0.0
H105 H 0.50757 0.43032 0.82205 0.0
H106 H 0.53519 0.4047 0.80946 0.0
H107 H 0.56485 0.4658 0.78811 0.0
H108 H 0.53758 0.49134 0.8009 0.0
H109 H 0.49331 0.49613 0.80127 0.0
H110 H 0.48938 0.44409 0.85575 0.0
H111 H 0.51272 0.41962 0.87218 0.0
H112 H 0.57405 0.45154 0.85435 0.0
H113 H 0.55053 0.47622 0.83805 0.0
C114 C 0.46164 0.52669 0.84494 0.0
C115 C 0.47133 0.54054 0.85619 0.0
C116 C 0.45763 0.55539 0.86475 0.0
C117 C 0.43389 0.55668 0.86227 0.0
C118 C 0.42421 0.54292 0.8509 0.0
C119 C 0.43797 0.52803 0.84232 0.0
C120 C 0.47635 0.51039 0.83631 0.0
C121 C 0.48928 0.49356 0.84404 0.0
C122 C 0.47789 0.51139 0.8207 0.0
C123 C 0.46534 0.52935 0.81196 0.0
C124 C 0.46805 0.55355 0.81497 0.0
C125 C 0.45544 0.57034 0.8071 0.0
C126 C 0.44009 0.56325 0.79597 0.0
C127 C 0.43795 0.53905 0.79268 0.0
C128 C 0.45048 0.52226 0.80059 0.0
C129 C 0.52073 0.4628 0.8126 0.0
C130 C 0.52006 0.43819 0.81468 0.0
C131 C 0.53577 0.42357 0.80746 0.0
C132 C 0.55216 0.43328 0.79783 0.0
C133 C 0.55223 0.4578 0.79533 0.0
C134 C 0.53669 0.47241 0.80266 0.0
C135 C 0.50529 0.47868 0.82101 0.0
C136 C 0.49215 0.49536 0.81324 0.0
C137 C 0.50389 0.4779 0.83663 0.0
C138 C 0.51824 0.46186 0.84566 0.0
C139 C 0.50786 0.44565 0.8553 0.0
C140 C 0.52122 0.43158 0.8646 0.0
C141 C 0.54521 0.43367 0.86454 0.0
C142 C 0.55559 0.44967 0.8547 0.0
C143 C 0.54221 0.46364 0.84532 0.0
H144 H 0.4969 0.94868 0.05775 0.0
H145 H 0.47153 0.9202 0.04568 0.0
H146 H 0.41272 0.95786 0.06268 0.0
H147 H 0.43815 0.98681 0.07412 0.0
H148 H 0.5036 0.99483 0.05494 0.0
H149 H 0.47925 0.94334 0.09409 0.0
H150 H 0.45431 0.92214 0.11133 0.0
H151 H 0.42424 0.98846 0.12496 0.0
H152 H 0.44932 0.00954 0.10779 0.0
H153 H 0.50026 0.05804 0.10502 0.0
H154 H 0.52443 0.08431 0.11971 0.0
H155 H 0.58452 0.04665 0.10472 0.0
H156 H 0.56011 0.01987 0.09047 0.0
H157 H 0.495 0.0114 0.10857 0.0
H158 H 0.5168 0.06231 0.06801 0.0
H159 H 0.54551 0.08454 0.05405 0.0
H160 H 0.58134 0.01958 0.04428 0.0
H161 H 0.55245 0.99736 0.05831 0.0
C162 C 0.46944 0.96966 0.06702 0.0
C163 C 0.47854 0.95092 0.05873 0.0
C164 C 0.46401 0.93455 0.05195 0.0
C165 C 0.44009 0.93663 0.05332 0.0
C166 C 0.43104 0.95582 0.06129 0.0
C167 C 0.44557 0.97224 0.068 0.0
C168 C 0.48487 0.98634 0.07482 0.0
C169 C 0.50185 0.99822 0.0667 0.0
C170 C 0.48243 0.99111 0.09011 0.0
C171 C 0.4661 0.97802 0.09964 0.0
C172 C 0.46702 0.95326 0.10063 0.0
C173 C 0.45274 0.94116 0.11047 0.0
C174 C 0.43739 0.95364 0.11957 0.0
C175 C 0.43613 0.97838 0.11827 0.0
C176 C 0.45038 0.99044 0.10844 0.0
C177 C 0.52837 0.03708 0.09659 0.0
C178 C 0.51865 0.05554 0.10484 0.0
C179 C 0.53252 0.07067 0.11312 0.0
C180 C 0.55643 0.0676 0.11337 0.0
C181 C 0.56616 0.04935 0.10487 0.0
C182 C 0.55225 0.03419 0.0966 0.0
C183 C 0.51337 0.02009 0.08867 0.0
C184 C 0.49659 0.00805 0.09679 0.0
C185 C 0.516 0.01514 0.07343 0.0
C186 C 0.53263 0.02826 0.06423 0.0
C187 C 0.53075 0.05286 0.06277 0.0
C188 C 0.54707 0.06549 0.05473 0.0
C189 C 0.56562 0.05375 0.04808 0.0
C190 C 0.56727 0.02905 0.04937 0.0
C191 C 0.55076 0.01636 0.05729 0.0
H192 H 0.00162 0.55645 0.90151 0.0
H193 H 0.02781 0.58156 0.8873 0.0
H194 H 0.08554 0.54799 0.90852 0.0
H195 H 0.05921 0.52301 0.92281 0.0
H196 H 0.00188 0.50619 0.90018 0.0
H197 H 0.00923 0.56879 0.93566 0.0
H198 H 0.03165 0.59654 0.95051 0.0
H199 H 0.06268 0.5379 0.9737 0.0
H200 H 0.04017 0.51025 0.95882 0.0
H201 H 0.99269 0.45675 0.95653 0.0
H202 H 0.96621 0.42821 0.96781 0.0
H203 H 0.91188 0.45369 0.93962 0.0
H204 H 0.93799 0.48263 0.92878 0.0
H205 H 0.99462 0.50333 0.95486 0.0
H206 H 0.98787 0.44055 0.91903 0.0
H207 H 0.96788 0.4128 0.90271 0.0
H208 H 0.93726 0.47156 0.87944 0.0
H209 H 0.95683 0.49913 0.89598 0.0
C210 C 0.02852 0.53796 0.9132 0.0
C211 C 0.01991 0.55473 0.90322 0.0
C212 C 0.03485 0.56912 0.89519 0.0
C213 C 0.05866 0.56667 0.89684 0.0
C214 C 0.06725 0.55014 0.90703 0.0
C215 C 0.05227 0.53597 0.91522 0.0
C216 C 0.01269 0.52154 0.9208 0.0
C217 C 3e-05 0.50574 0.91212 0.0
C218 C 0.01083 0.52062 0.93638 0.0
C219 C 0.02333 0.53746 0.94598 0.0
C220 C 0.02089 0.56193 0.94394 0.0
C221 C 0.03368 0.57776 0.95244 0.0
C222 C 0.04902 0.5694 0.96322 0.0
C223 C 0.05083 0.5449 0.96559 0.0
C224 C 0.03806 0.52907 0.95706 0.0
C225 C 0.96745 0.47149 0.94159 0.0
C226 C 0.97501 0.45634 0.9529 0.0
C227 C 0.95994 0.44006 0.95931 0.0
C228 C 0.93717 0.43859 0.95439 0.0
C229 C 0.92949 0.45419 0.94338 0.0
C230 C 0.94441 0.47067 0.93717 0.0
C231 C 0.98361 0.48795 0.93422 0.0
C232 C 0.99642 0.50371 0.94292 0.0
C233 C 0.98571 0.4888 0.91861 0.0
C234 C 0.97368 0.47189 0.90878 0.0
C235 C 0.9767 0.44741 0.91048 0.0
C236 C 0.96541 0.4316 0.90109 0.0
C237 C 0.95094 0.44 0.88983 0.0
C238 C 0.94802 0.46453 0.88815 0.0
C239 C 0.95934 0.48031 0.8975 0.0
H240 H 0.49017 0.54393 0.20159 0.0
H241 H 0.46172 0.5693 0.21358 0.0
H242 H 0.40749 0.53038 0.19199 0.0
H243 H 0.43596 0.50506 0.1801 0.0
H244 H 0.49976 0.49779 0.20152 0.0
H245 H 0.47802 0.55474 0.16595 0.0
H246 H 0.45347 0.57924 0.15033 0.0
H247 H 0.42697 0.51638 0.1292 0.0
H248 H 0.45105 0.49192 0.14519 0.0
H249 H 0.50126 0.44128 0.14943 0.0
H250 H 0.52642 0.41587 0.13483 0.0
H251 H 0.5853 0.45425 0.15107 0.0
H252 H 0.5599 0.47998 0.16545 0.0
H253 H 0.49632 0.48972 0.14687 0.0
H254 H 0.51628 0.43356 0.18607 0.0
H255 H 0.545 0.41088 0.19978 0.0
H256 H 0.57897 0.47579 0.21216 0.0
H257 H 0.55005 0.49845 0.19844 0.0
C258 C 0.4652 0.52288 0.18977 0.0
C259 C 0.47214 0.54069 0.1996 0.0
C260 C 0.45587 0.55512 0.20647 0.0
C261 C 0.43239 0.55193 0.20362 0.0
C262 C 0.42547 0.53351 0.19419 0.0
C263 C 0.44172 0.51904 0.1874 0.0
C264 C 0.48239 0.50872 0.18159 0.0
C265 C 0.49915 0.49629 0.18956 0.0
C266 C 0.48168 0.50671 0.16599 0.0
C267 C 0.46624 0.52149 0.15681 0.0
C268 C 0.46667 0.54622 0.1581 0.0
C269 C 0.45279 0.56021 0.14908 0.0
C270 C 0.43831 0.54975 0.13851 0.0
C271 C 0.43773 0.52496 0.13735 0.0
C272 C 0.45162 0.51097 0.14638 0.0
C273 C 0.52872 0.46241 0.15857 0.0
C274 C 0.51959 0.44415 0.14989 0.0
C275 C 0.53401 0.42953 0.14165 0.0
C276 C 0.55786 0.43301 0.14185 0.0
C277 C 0.56699 0.45124 0.15064 0.0
C278 C 0.55253 0.46582 0.15894 0.0
C279 C 0.51314 0.47835 0.16681 0.0
C280 C 0.49681 0.49125 0.15883 0.0
C281 C 0.51451 0.48113 0.18232 0.0
C282 C 0.53116 0.46761 0.19123 0.0
C283 C 0.52983 0.44288 0.19183 0.0
C284 C 0.54615 0.42999 0.1997 0.0
C285 C 0.56416 0.44163 0.20702 0.0
C286 C 0.56531 0.46643 0.20654 0.0
C287 C 0.54879 0.47935 0.1988 0.0
H288 H 0.509 0.93897 0.40292 0.0
H289 H 0.48729 0.91149 0.38749 0.0
H290 H 0.42406 0.93996 0.40482 0.0
H291 H 0.44595 0.9673 0.42036 0.0
H292 H 0.50744 0.98645 0.40098 0.0
H293 H 0.49287 0.9278 0.4379 0.0
H294 H 0.46767 0.90117 0.45168 0.0
H295 H 0.43211 0.96141 0.47 0.0
H296 H 0.45717 0.98796 0.45606 0.0
H297 H 0.50195 0.04269 0.4549 0.0
H298 H 0.5245 0.07333 0.46745 0.0
H299 H 0.58573 0.04742 0.44615 0.0
H300 H 0.56341 0.01649 0.43401 0.0
H301 H 0.50203 0.9962 0.45541 0.0
H302 H 0.51555 0.05461 0.4172 0.0
H303 H 0.53651 0.08025 0.40006 0.0
H304 H 0.57392 0.01962 0.38384 0.0
H305 H 0.55276 0.99415 0.40084 0.0
C306 C 0.4791 0.95514 0.4128 0.0
C307 C 0.49046 0.93914 0.40349 0.0
C308 C 0.47803 0.92352 0.39464 0.0
C309 C 0.45395 0.92369 0.39484 0.0
C310 C 0.44259 0.93924 0.40452 0.0
C311 C 0.45507 0.95489 0.41339 0.0
C312 C 0.49243 0.97313 0.42105 0.0
C313 C 0.50654 0.98836 0.41292 0.0
C314 C 0.49071 0.97599 0.43656 0.0
C315 C 0.47663 0.95987 0.44575 0.0
C316 C 0.47961 0.93527 0.44486 0.0
C317 C 0.46525 0.92008 0.45275 0.0
C318 C 0.44786 0.92922 0.46185 0.0
C319 C 0.4455 0.95386 0.46318 0.0
C320 C 0.45976 0.96905 0.4552 0.0
C321 C 0.53091 0.02757 0.44328 0.0
C322 C 0.52026 0.04351 0.45303 0.0
C323 C 0.53311 0.06098 0.46018 0.0
C324 C 0.55676 0.06288 0.4576 0.0
C325 C 0.56744 0.04662 0.4481 0.0
C326 C 0.55468 0.02899 0.44113 0.0
C327 C 0.51723 0.00948 0.43532 0.0
C328 C 0.503 0.99427 0.44349 0.0
C329 C 0.51885 0.00655 0.4198 0.0
C330 C 0.53262 0.02248 0.41028 0.0
C331 C 0.52848 0.04693 0.41007 0.0
C332 C 0.54049 0.06156 0.4003 0.0
C333 C 0.55676 0.05193 0.39051 0.0
C334 C 0.56121 0.02752 0.39104 0.0
C335 C 0.54921 0.01295 0.40078 0.0
H336 H 0.98666 0.04446 0.69617 0.0
H337 H 0.95925 0.07023 0.7088 0.0
H338 H 0.90331 0.03 0.69016 0.0
H339 H 0.93077 0.00424 0.67765 0.0
H340 H 0.99522 0.99719 0.6971 0.0
H341 H 0.97104 0.0534 0.65905 0.0
H342 H 0.94452 0.07472 0.6429 0.0
H343 H 0.91533 0.00813 0.62877 0.0
H344 H 0.94244 0.98706 0.64453 0.0
H345 H 0.99697 0.94206 0.64376 0.0
H346 H 0.02286 0.91739 0.62918 0.0
H347 H 0.08084 0.9556 0.64686 0.0
H348 H 0.05474 0.98055 0.66127 0.0
H349 H 0.99012 0.98912 0.64251 0.0
H350 H 0.01292 0.9326 0.67796 0.0
H351 H 0.0408 0.90837 0.69113 0.0
H352 H 0.06964 0.97113 0.71101 0.0
H353 H 0.04177 0.99551 0.69753 0.0
C354 C 0.96074 0.02272 0.68577 0.0
C355 C 0.96849 0.04106 0.69494 0.0
C356 C 0.95282 0.05571 0.70218 0.0
C357 C 0.92913 0.05222 0.70038 0.0
C358 C 0.92145 0.03335 0.69156 0.0
C359 C 0.93712 0.01865 0.6844 0.0
C360 C 0.97732 0.00811 0.67739 0.0
C361 C 0.99436 0.99573 0.68514 0.0
C362 C 0.97578 0.00562 0.66185 0.0
C363 C 0.95871 0.01868 0.65292 0.0
C364 C 0.95879 0.04347 0.65254 0.0
C365 C 0.94352 0.05562 0.64335 0.0
C366 C 0.92785 0.04315 0.63443 0.0
C367 C 0.92746 0.0183 0.63522 0.0
C368 C 0.94286 0.00621 0.64428 0.0
C369 C 0.02394 0.96307 0.65362 0.0
C370 C 0.01526 0.94512 0.6445 0.0
C371 C 0.03008 0.93091 0.63628 0.0
C372 C 0.05389 0.9345 0.63694 0.0
C373 C 0.06257 0.95251 0.64608 0.0
C374 C 0.04771 0.96666 0.65438 0.0
C375 C 0.008 0.9782 0.66218 0.0
C376 C 0.99111 0.99071 0.65446 0.0
C377 C 0.00949 0.98049 0.67774 0.0
C378 C 0.02559 0.96589 0.68652 0.0
C379 C 0.02535 0.9412 0.68505 0.0
C380 C 0.04128 0.92738 0.69258 0.0
C381 C 0.05758 0.93793 0.70191 0.0
C382 C 0.05727 0.96258 0.70386 0.0
C383 C 0.04139 0.97648 0.69619 0.0
C384 C 0.24585 0.68604 0.0133 0.0
O385 O 0.25625 0.68262 0.02601 0.0
O386 O 0.30468 0.67782 0.02018 0.0
Zn387 Zn 0.29185 0.69478 0.00244 0.0
O388 O 0.30448 0.67942 0.98408 0.0
C389 C 0.29749 0.74135 0.01456 0.0
O390 O 0.28582 0.73214 0.02557 0.0
O391 O 0.25758 0.69186 0.00202 0.0
C392 C 0.32241 0.68701 0.97768 0.0
O393 O 0.33302 0.70559 0.9831 0.0
C394 C 0.32475 0.68259 0.02473 0.0
O395 O 0.33685 0.69863 0.0177 0.0
O396 O 0.30145 0.72882 0.00318 0.0
C397 C 0.2613 0.82863 0.258 0.0
O398 O 0.27814 0.84394 0.25907 0.0
O399 O 0.31428 0.81479 0.23851 0.0
Zn400 Zn 0.29962 0.79891 0.25616 0.0
O401 O 0.31411 0.81095 0.27496 0.0
C402 C 0.30042 0.75264 0.24285 0.0
O403 O 0.29119 0.76388 0.23162 0.0
O404 O 0.26609 0.80685 0.25652 0.0
C405 C 0.33078 0.80034 0.28109 0.0
O406 O 0.33862 0.78073 0.27518 0.0
C407 C 0.32575 0.83378 0.23987 0.0
O408 O 0.32827 0.84318 0.25306 0.0
O409 O 0.3047 0.76395 0.25467 0.0
C410 C 0.24804 0.80969 0.50921 0.0
O411 O 0.238 0.81241 0.5221 0.0
O412 O 0.18957 0.8139 0.51787 0.0
Zn413 Zn 0.20212 0.79828 0.49942 0.0
O414 O 0.18744 0.81343 0.48166 0.0
C415 C 0.20574 0.74743 0.50508 0.0
O416 O 0.22541 0.75264 0.51134 0.0
O417 O 0.2362 0.80314 0.49814 0.0
C418 C 0.16625 0.81853 0.48195 0.0
O419 O 0.15434 0.81382 0.49392 0.0
C420 C 0.17701 0.80289 0.52707 0.0
O421 O 0.17215 0.78054 0.52469 0.0
O422 O 0.1939 0.76381 0.49925 0.0
C423 C 0.24867 0.6902 0.74546 0.0
O424 O 0.23952 0.68952 0.73218 0.0
O425 O 0.18919 0.68401 0.73694 0.0
Zn426 Zn 0.20193 0.69879 0.75544 0.0
O427 O 0.18778 0.68264 0.7731 0.0
C428 C 0.17231 0.73805 0.7552 0.0
O429 O 0.15747 0.7206 0.75588 0.0
O430 O 0.23601 0.69443 0.75658 0.0
C431 C 0.1827 0.69349 0.78498 0.0
O432 O 0.18669 0.71628 0.78601 0.0
C433 C 0.19095 0.66207 0.73414 0.0
O434 O 0.2019 0.64836 0.74351 0.0
O435 O 0.19356 0.73323 0.75512 0.0
C436 C 0.74361 0.19371 0.50944 0.0
O437 O 0.75194 0.19236 0.52291 0.0
O438 O 0.80227 0.18544 0.51917 0.0
Zn439 Zn 0.79108 0.20168 0.50072 0.0
O440 O 0.80558 0.18608 0.48304 0.0
C441 C 0.79588 0.24856 0.51259 0.0
O442 O 0.78407 0.23943 0.52357 0.0
O443 O 0.75702 0.19813 0.49871 0.0
C444 C 0.82448 0.19294 0.47755 0.0
O445 O 0.83512 0.21108 0.4835 0.0
C446 C 0.80525 0.16319 0.51915 0.0
O447 O 0.80051 0.15116 0.50709 0.0
O448 O 0.80034 0.23581 0.50139 0.0
C449 C 0.76569 0.33204 0.75718 0.0
O450 O 0.78278 0.34699 0.75865 0.0
O451 O 0.81784 0.31657 0.73501 0.0
Zn452 Zn 0.8035 0.30212 0.75319 0.0
O453 O 0.81933 0.31529 0.77111 0.0
C454 C 0.80219 0.2549 0.74152 0.0
O455 O 0.79134 0.26535 0.73059 0.0
O456 O 0.77013 0.31047 0.7545 0.0
C457 C 0.83942 0.30886 0.77469 0.0
O458 O 0.85006 0.29308 0.76653 0.0
C459 C 0.8064 0.32503 0.72428 0.0
O460 O 0.78392 0.3244 0.72472 0.0
O461 O 0.80833 0.26709 0.75263 0.0
C462 C 0.74581 0.30873 0.00801 0.0
O463 O 0.73821 0.31245 0.02149 0.0
O464 O 0.68771 0.31195 0.0202 0.0
Zn465 Zn 0.69835 0.2965 0.00121 0.0
O466 O 0.68215 0.31164 0.98403 0.0
C467 C 0.70267 0.24584 0.00686 0.0
O468 O 0.72226 0.25144 0.01309 0.0
O469 O 0.73205 0.30142 0.99812 0.0
C470 C 0.66115 0.31741 0.98467 0.0
O471 O 0.64966 0.31353 0.99693 0.0
C472 C 0.6747 0.3012 0.02927 0.0
O473 O 0.66838 0.2794 0.02637 0.0
O474 O 0.69045 0.26199 0.00112 0.0
C475 C 0.74558 0.18906 0.2448 0.0
O476 O 0.73575 0.18594 0.23187 0.0
O477 O 0.68667 0.18619 0.23592 0.0
Zn478 Zn 0.69953 0.20088 0.25454 0.0
O479 O 0.68526 0.18474 0.27204 0.0
C480 C 0.7033 0.25157 0.2492 0.0
O481 O 0.72239 0.24605 0.24232 0.0
O482 O 0.73356 0.19593 0.25571 0.0
C483 C 0.66454 0.18855 0.27561 0.0
O484 O 0.6523 0.20335 0.26767 0.0
C485 C 0.67167 0.19662 0.22809 0.0
O486 O 0.66441 0.21764 0.23211 0.0
O487 O 0.6916 0.23536 0.25531 0.0
C488 C 0.07249 0.91922 0.27559 0.0
C489 C 0.06715 0.91739 0.2907 0.0
C490 C 0.09051 0.90611 0.26957 0.0
C491 C 0.13143 0.85706 0.2776 0.0
H492 H 0.17179 0.89327 0.25217 0.0
C493 C 0.21898 0.82066 0.25799 0.0
C494 C 0.23729 0.83673 0.25901 0.0
C495 C 0.19637 0.82847 0.25955 0.0
C496 C 0.16072 0.88291 0.25926 0.0
H497 H 0.07598 0.89996 0.31127 0.0
H498 H 0.10765 0.87747 0.3009 0.0
H499 H 0.13509 0.90979 0.25943 0.0
H500 H 0.24621 0.87362 0.26224 0.0
H501 H 0.20705 0.8871 0.26521 0.0
H502 H 0.15777 0.83078 0.27813 0.0
C503 C 0.09768 0.88857 0.29357 0.0
C504 C 0.13949 0.89224 0.26327 0.0
C505 C 0.07956 0.90152 0.29955 0.0
C506 C 0.23252 0.86077 0.26136 0.0
C507 C 0.21 0.86855 0.26295 0.0
C508 C 0.15276 0.84777 0.27366 0.0
C509 C 0.1037 0.89108 0.27858 0.0
C510 C 0.12481 0.87969 0.27278 0.0
C511 C 0.19165 0.8525 0.26215 0.0
C512 C 0.16788 0.86087 0.26476 0.0
H513 H 0.06298 0.9311 0.26848 0.0
H514 H 0.0944 0.90813 0.25793 0.0
H515 H 0.12038 0.84675 0.28475 0.0
H516 H 0.2221 0.80202 0.25612 0.0
H517 H 0.1826 0.81571 0.25875 0.0
C518 C 0.10815 0.56649 0.54333 0.0
C519 C 0.08471 0.57093 0.54117 0.0
C520 C 0.12461 0.58149 0.53714 0.0
C521 C 0.13357 0.62743 0.50871 0.0
H522 H 0.17698 0.654 0.53661 0.0
C523 C 0.17402 0.71865 0.50063 0.0
C524 C 0.19608 0.7233 0.50613 0.0
C525 C 0.16375 0.69668 0.50287 0.0
C526 C 0.16539 0.64643 0.52854 0.0
H527 H 0.06008 0.59371 0.53031 0.0
H528 H 0.0888 0.61982 0.51942 0.0
H529 H 0.15281 0.62101 0.5441 0.0
H530 H 0.22512 0.70809 0.51767 0.0
H531 H 0.20726 0.66947 0.52139 0.0
H532 H 0.14578 0.6531 0.49323 0.0
C533 C 0.09448 0.60481 0.52589 0.0
C534 C 0.1515 0.62753 0.53287 0.0
C535 C 0.07805 0.59002 0.53222 0.0
C536 C 0.20804 0.70512 0.51338 0.0
C537 C 0.19777 0.68303 0.51557 0.0
C538 C 0.14759 0.64618 0.50434 0.0
C539 C 0.11791 0.60095 0.52851 0.0
C540 C 0.13498 0.61834 0.52314 0.0
C541 C 0.17532 0.67871 0.51058 0.0
C542 C 0.16316 0.65641 0.51436 0.0
H543 H 0.1137 0.55194 0.55025 0.0
H544 H 0.14257 0.57809 0.53928 0.0
H545 H 0.1212 0.62042 0.50093 0.0
H546 H 0.16429 0.73225 0.495 0.0
H547 H 0.14633 0.69418 0.49907 0.0
C548 C 0.42161 0.57925 0.77297 0.0
C549 C 0.42554 0.58087 0.78828 0.0
C550 C 0.40642 0.59475 0.76599 0.0
C551 C 0.37388 0.65071 0.77134 0.0
H552 H 0.32995 0.62099 0.74507 0.0
C553 C 0.28295 0.68591 0.76179 0.0
C554 C 0.27287 0.68346 0.74775 0.0
C555 C 0.30483 0.67703 0.76452 0.0
C556 C 0.34234 0.62973 0.75213 0.0
H557 H 0.41697 0.60025 0.80822 0.0
H558 H 0.39036 0.62708 0.79612 0.0
H559 H 0.36259 0.59842 0.75399 0.0
H560 H 0.27832 0.67084 0.72535 0.0
H561 H 0.31661 0.65519 0.73018 0.0
H562 H 0.35295 0.68173 0.76995 0.0
C563 C 0.39931 0.61419 0.78942 0.0
C564 C 0.36108 0.61677 0.75725 0.0
C565 C 0.41453 0.59876 0.79637 0.0
C566 C 0.28558 0.67292 0.73631 0.0
C567 C 0.30745 0.66387 0.73908 0.0
C568 C 0.35507 0.66364 0.76626 0.0
C569 C 0.39479 0.61214 0.77419 0.0
C570 C 0.37675 0.62692 0.76721 0.0
C571 C 0.31709 0.6654 0.7533 0.0
C572 C 0.3388 0.65308 0.7569 0.0
H573 H 0.43012 0.56585 0.76641 0.0
H574 H 0.40358 0.59293 0.7542 0.0
H575 H 0.38588 0.65919 0.77878 0.0
H576 H 0.27365 0.69404 0.77082 0.0
H577 H 0.31167 0.67827 0.77563 0.0
C578 C 0.43045 0.89433 0.04784 0.0
C579 C 0.42466 0.9184 0.04694 0.0
C580 C 0.41559 0.87704 0.04243 0.0
C581 C 0.35501 0.86616 0.03442 0.0
H582 H 0.37876 0.81131 0.01376 0.0
C583 C 0.30597 0.77789 0.02922 0.0
C584 C 0.30836 0.76485 0.01608 0.0
C585 C 0.31834 0.79879 0.03131 0.0
C586 C 0.37178 0.82665 0.01933 0.0
H587 H 0.39889 0.94319 0.03928 0.0
H588 H 0.3728 0.91287 0.02996 0.0
H589 H 0.4045 0.84363 0.02018 0.0
H590 H 0.32469 0.76415 0.99451 0.0
H591 H 0.34612 0.80067 0.99814 0.0
H592 H 0.32229 0.84903 0.03367 0.0
C593 C 0.3888 0.90745 0.03498 0.0
C594 C 0.38658 0.84504 0.02315 0.0
C595 C 0.40373 0.92478 0.04034 0.0
C596 C 0.32258 0.77369 0.00481 0.0
C597 C 0.33496 0.79455 0.00691 0.0
C598 C 0.34019 0.8477 0.03064 0.0
C599 C 0.39454 0.88339 0.03604 0.0
C600 C 0.37844 0.86482 0.03093 0.0
C601 C 0.33336 0.80705 0.0203 0.0
C602 C 0.34849 0.82761 0.02322 0.0
H603 H 0.44622 0.88875 0.0531 0.0
H604 H 0.42033 0.85863 0.04363 0.0
H605 H 0.34826 0.88113 0.04049 0.0
H606 H 0.29514 0.77159 0.03812 0.0
H607 H 0.31688 0.8079 0.04181 0.0
C608 C 0.07504 0.60456 0.96382 0.0
C609 C 0.06404 0.58606 0.97138 0.0
C610 C 0.09073 0.61906 0.97112 0.0
C611 C 0.13046 0.61761 0.00244 0.0
H612 H 0.1394 0.68354 0.99214 0.0
C613 C 0.20913 0.66913 0.02302 0.0
C614 C 0.22124 0.6805 0.01161 0.0
C615 C 0.18675 0.66117 0.02068 0.0
C616 C 0.13706 0.66516 0.99516 0.0
H617 H 0.06002 0.569 0.9927 0.0
H618 H 0.08747 0.59442 0.00549 0.0
H619 H 0.10537 0.66271 0.98335 0.0
H620 H 0.21887 0.69376 0.98914 0.0
H621 H 0.17998 0.67982 0.98505 0.0
H622 H 0.16247 0.61982 0.01383 0.0
C623 C 0.08418 0.59746 0.99385 0.0
C624 C 0.11762 0.65322 0.99011 0.0
C625 C 0.06849 0.5829 0.98654 0.0
C626 C 0.21007 0.68494 0.99813 0.0
C627 C 0.18769 0.67711 0.99582 0.0
C628 C 0.14985 0.62956 0.00752 0.0
C629 C 0.09578 0.61544 0.98615 0.0
C630 C 0.11444 0.62912 0.99333 0.0
C631 C 0.176 0.6646 0.00693 0.0
C632 C 0.15368 0.65327 0.00358 0.0
H633 H 0.07224 0.60725 0.95209 0.0
H634 H 0.09965 0.63245 0.96477 0.0
H635 H 0.12871 0.59899 0.00499 0.0
H636 H 0.21722 0.66555 0.03357 0.0
H637 H 0.17805 0.65181 0.0295 0.0
C638 C 0.41675 0.57617 0.22459 0.0
C639 C 0.41525 0.56853 0.20983 0.0
C640 C 0.40139 0.59296 0.23008 0.0
C641 C 0.34618 0.62324 0.22196 0.0
H642 H 0.37302 0.67408 0.24493 0.0
C643 C 0.30595 0.716 0.22768 0.0
C644 C 0.30846 0.72798 0.24121 0.0
C645 C 0.31608 0.69387 0.22558 0.0
C646 C 0.36513 0.65982 0.23876 0.0
H647 H 0.39639 0.5723 0.1893 0.0
H648 H 0.36981 0.60174 0.19879 0.0
H649 H 0.39636 0.6402 0.23816 0.0
H650 H 0.32241 0.7255 0.26343 0.0
H651 H 0.33997 0.68689 0.25974 0.0
H652 H 0.31513 0.64343 0.22218 0.0
C653 C 0.38249 0.59444 0.20625 0.0
C654 C 0.37851 0.64036 0.23488 0.0
C655 C 0.39777 0.5776 0.20079 0.0
C656 C 0.32031 0.71684 0.25282 0.0
C657 C 0.33046 0.69476 0.2507 0.0
C658 C 0.3328 0.64279 0.2258 0.0
C659 C 0.38429 0.60255 0.22091 0.0
C660 C 0.36932 0.62201 0.22623 0.0
C661 C 0.32894 0.68331 0.23694 0.0
C662 C 0.34224 0.66145 0.23406 0.0
H663 H 0.42987 0.56925 0.23187 0.0
H664 H 0.40302 0.59857 0.24149 0.0
H665 H 0.33847 0.60922 0.2155 0.0
H666 H 0.29688 0.72406 0.21853 0.0
H667 H 0.31475 0.68557 0.21481 0.0
C668 C 0.42157 0.89429 0.46147 0.0
C669 C 0.43145 0.91316 0.46931 0.0
C670 C 0.40476 0.88021 0.46804 0.0
C671 C 0.36125 0.88256 0.49746 0.0
H672 H 0.35404 0.81613 0.48788 0.0
C673 C 0.28402 0.82888 0.51838 0.0
C674 C 0.27225 0.81664 0.50717 0.0
C675 C 0.30596 0.83787 0.5158 0.0
C676 C 0.35588 0.83466 0.49066 0.0
H677 H 0.43225 0.93146 0.49037 0.0
H678 H 0.40307 0.90665 0.50195 0.0
H679 H 0.38833 0.8372 0.47978 0.0
H680 H 0.27478 0.80309 0.48477 0.0
H681 H 0.31304 0.81873 0.4803 0.0
H682 H 0.32863 0.8801 0.50811 0.0
C683 C 0.40797 0.90303 0.49062 0.0
C684 C 0.37546 0.84676 0.48599 0.0
C685 C 0.4247 0.91721 0.48401 0.0
C686 C 0.28334 0.81254 0.49361 0.0
C687 C 0.30533 0.82137 0.49108 0.0
C688 C 0.34177 0.87042 0.5022 0.0
C689 C 0.39753 0.8846 0.48263 0.0
C690 C 0.37813 0.871 0.48905 0.0
C691 C 0.31665 0.83459 0.50202 0.0
C692 C 0.33864 0.84649 0.49858 0.0
H693 H 0.4262 0.89095 0.45006 0.0
H694 H 0.39683 0.86648 0.46145 0.0
H695 H 0.36254 0.90128 0.49983 0.0
H696 H 0.27599 0.83226 0.52897 0.0
H697 H 0.31439 0.84779 0.52449 0.0
C698 C 0.08629 0.90527 0.70148 0.0
C699 C 0.07484 0.92301 0.70944 0.0
C700 C 0.10107 0.88971 0.70866 0.0
C701 C 0.13828 0.86391 0.72531 0.0
H702 H 0.11284 0.83428 0.76034 0.0
C703 C 0.17979 0.78124 0.75108 0.0
C704 C 0.16425 0.76271 0.75369 0.0
C705 C 0.17185 0.80415 0.74837 0.0
C706 C 0.12024 0.84248 0.75062 0.0
H707 H 0.07053 0.93901 0.73104 0.0
H708 H 0.09652 0.91166 0.74369 0.0
H709 H 0.09423 0.86908 0.74989 0.0
H710 H 0.12829 0.7539 0.75619 0.0
H711 H 0.11449 0.79366 0.75132 0.0
H712 H 0.16351 0.83654 0.72553 0.0
C713 C 0.09391 0.90978 0.73189 0.0
C714 C 0.10973 0.86256 0.74472 0.0
C715 C 0.07918 0.9255 0.72465 0.0
C716 C 0.14071 0.76775 0.75415 0.0
C717 C 0.1328 0.79062 0.75149 0.0
C718 C 0.14881 0.84386 0.73121 0.0
C719 C 0.10472 0.89149 0.72399 0.0
C720 C 0.1182 0.87301 0.73172 0.0
C721 C 0.14824 0.809 0.74829 0.0
C722 C 0.13945 0.83247 0.74364 0.0
H723 H 0.08346 0.90314 0.6897 0.0
H724 H 0.1089 0.87566 0.70228 0.0
H725 H 0.14538 0.87179 0.71539 0.0
H726 H 0.19806 0.77794 0.75074 0.0
H727 H 0.18417 0.818 0.74608 0.0
C728 C 0.58218 0.40189 0.79976 0.0
C729 C 0.57007 0.41822 0.79106 0.0
C730 C 0.60086 0.38967 0.79389 0.0
C731 C 0.64442 0.39614 0.76484 0.0
H732 H 0.662 0.33327 0.77761 0.0
C733 C 0.73735 0.36401 0.76237 0.0
C734 C 0.74181 0.34029 0.75881 0.0
C735 C 0.71492 0.37186 0.76436 0.0
C736 C 0.6572 0.35071 0.77375 0.0
H737 H 0.56706 0.43349 0.76916 0.0
H738 H 0.59948 0.41185 0.7588 0.0
H739 H 0.62437 0.34871 0.78421 0.0
H740 H 0.72618 0.30624 0.75427 0.0
H741 H 0.68687 0.32006 0.75761 0.0
H742 H 0.67717 0.39816 0.75435 0.0
C743 C 0.5949 0.4089 0.77026 0.0
C744 C 0.63574 0.35966 0.77768 0.0
C745 C 0.57632 0.42125 0.77617 0.0
C746 C 0.7233 0.32462 0.75707 0.0
C747 C 0.7008 0.3325 0.75905 0.0
C748 C 0.6658 0.38717 0.76087 0.0
C749 C 0.60775 0.3934 0.77916 0.0
C750 C 0.6293 0.38268 0.77354 0.0
C751 C 0.69638 0.3562 0.76278 0.0
C752 C 0.67267 0.36458 0.76557 0.0
H753 H 0.5779 0.3994 0.81132 0.0
H754 H 0.61053 0.37814 0.80113 0.0
H755 H 0.64016 0.41402 0.76157 0.0
H756 H 0.7512 0.37653 0.76383 0.0
H757 H 0.71218 0.39012 0.76748 0.0
C758 C 0.57741 0.08564 0.0305 0.0
C759 C 0.58354 0.06753 0.04035 0.0
C760 C 0.59414 0.10028 0.02436 0.0
C761 C 0.64998 0.12466 0.03325 0.0
H762 H 0.64687 0.14933 0.99328 0.0
C763 C 0.70577 0.20358 0.01515 0.0
C764 C 0.69368 0.22142 0.00766 0.0
C765 C 0.69607 0.18115 0.01704 0.0
C766 C 0.64797 0.14262 0.00448 0.0
H767 H 0.61199 0.04999 0.05115 0.0
H768 H 0.64133 0.07574 0.04044 0.0
H769 H 0.62259 0.11605 0.00037 0.0
H770 H 0.66234 0.22938 0.99573 0.0
H771 H 0.64537 0.19066 0.99923 0.0
H772 H 0.67444 0.15189 0.03763 0.0
C773 C 0.62357 0.07856 0.03748 0.0
C774 C 0.63411 0.12355 0.00851 0.0
C775 C 0.60682 0.06376 0.04352 0.0
C776 C 0.67213 0.21608 0.00159 0.0
C777 C 0.66246 0.19375 0.00348 0.0
C778 C 0.66374 0.14382 0.02925 0.0
C779 C 0.61734 0.09723 0.02804 0.0
C780 C 0.63452 0.11481 0.02306 0.0
C781 C 0.6741 0.17613 0.01146 0.0
C782 C 0.66239 0.15347 0.01494 0.0
H783 H 0.5596 0.0888 0.02778 0.0
H784 H 0.58879 0.11466 0.01724 0.0
H785 H 0.65051 0.11846 0.04459 0.0
H786 H 0.72247 0.2071 0.01989 0.0
H787 H 0.7056 0.16788 0.02309 0.0
C788 C 0.9189 0.07868 0.27322 0.0
C789 C 0.92369 0.08128 0.28838 0.0
C790 C 0.90327 0.09367 0.26623 0.0
C791 C 0.87097 0.1499 0.27081 0.0
H792 H 0.82586 0.11848 0.24621 0.0
C793 C 0.78022 0.18586 0.26094 0.0
C794 C 0.76971 0.18208 0.24716 0.0
C795 C 0.80201 0.17682 0.26383 0.0
C796 C 0.83855 0.12767 0.25279 0.0
H797 H 0.91618 0.10188 0.30802 0.0
H798 H 0.88879 0.12787 0.29589 0.0
H799 H 0.85872 0.09641 0.25525 0.0
H800 H 0.77433 0.16693 0.2253 0.0
H801 H 0.81245 0.15112 0.23037 0.0
H802 H 0.85021 0.18095 0.26877 0.0
C803 C 0.8974 0.11457 0.28931 0.0
C804 C 0.85743 0.115 0.25799 0.0
C805 C 0.91307 0.09963 0.29628 0.0
C806 C 0.78191 0.17004 0.23607 0.0
C807 C 0.80369 0.16088 0.23898 0.0
C808 C 0.85204 0.16256 0.26564 0.0
C809 C 0.89203 0.11153 0.27426 0.0
C810 C 0.87359 0.12582 0.26733 0.0
C811 C 0.81374 0.16373 0.253 0.0
C812 C 0.83538 0.15143 0.25684 0.0
H813 H 0.9271 0.06492 0.2668 0.0
H814 H 0.89977 0.0911 0.25458 0.0
H815 H 0.88334 0.15886 0.27777 0.0
H816 H 0.77134 0.19516 0.26971 0.0
H817 H 0.80917 0.17913 0.27479 0.0
C818 C 0.9204 0.4203 0.5294 0.0
C819 C 0.918 0.42936 0.5438 0.0
C820 C 0.90493 0.40352 0.52399 0.0
C821 C 0.84795 0.37641 0.53103 0.0
H822 H 0.87445 0.3221 0.51125 0.0
C823 C 0.80282 0.28592 0.52678 0.0
C824 C 0.80598 0.27246 0.51388 0.0
C825 C 0.8143 0.3074 0.52862 0.0
C826 C 0.86668 0.33731 0.51651 0.0
H827 H 0.89745 0.428 0.56377 0.0
H828 H 0.87062 0.39871 0.5544 0.0
H829 H 0.89871 0.35552 0.51768 0.0
H830 H 0.82277 0.27158 0.49245 0.0
H831 H 0.84265 0.30913 0.49564 0.0
H832 H 0.81601 0.3578 0.53021 0.0
C833 C 0.88414 0.40488 0.54716 0.0
C834 C 0.8806 0.3565 0.5202 0.0
C835 C 0.89955 0.42166 0.55254 0.0
C836 C 0.82009 0.28143 0.50258 0.0
C837 C 0.83157 0.30289 0.50443 0.0
C838 C 0.83402 0.35718 0.52736 0.0
C839 C 0.88679 0.39539 0.53289 0.0
C840 C 0.87148 0.37611 0.52771 0.0
C841 C 0.82917 0.31587 0.51759 0.0
C842 C 0.84332 0.33726 0.52027 0.0
H843 H 0.93427 0.42614 0.52233 0.0
H844 H 0.90726 0.39679 0.51287 0.0
H845 H 0.84033 0.39142 0.5366 0.0
H846 H 0.79204 0.27954 0.53568 0.0
H847 H 0.81224 0.31688 0.53895 0.0
C848 C 0.56905 0.0858 0.48 0.0
C849 C 0.57044 0.08176 0.46469 0.0
C850 C 0.58341 0.10241 0.48676 0.0
C851 C 0.6211 0.15351 0.47918 0.0
H852 H 0.65766 0.12947 0.51167 0.0
C853 C 0.71112 0.18772 0.49184 0.0
C854 C 0.71944 0.18745 0.50643 0.0
C855 C 0.68927 0.17917 0.48862 0.0
C856 C 0.64728 0.13677 0.50286 0.0
H857 H 0.58699 0.09262 0.44433 0.0
H858 H 0.61197 0.12162 0.45609 0.0
H859 H 0.62538 0.1064 0.50255 0.0
H860 H 0.71083 0.17925 0.5292 0.0
H861 H 0.67247 0.16453 0.52358 0.0
H862 H 0.64333 0.18359 0.4792 0.0
C863 C 0.59985 0.11201 0.46289 0.0
C864 C 0.62879 0.1235 0.49762 0.0
C865 C 0.58574 0.09525 0.45618 0.0
C866 C 0.70498 0.17955 0.51783 0.0
C867 C 0.68305 0.171 0.5146 0.0
C868 C 0.63948 0.16686 0.48449 0.0
C869 C 0.59912 0.11549 0.47828 0.0
C870 C 0.61601 0.13138 0.48541 0.0
C871 C 0.67515 0.17023 0.49991 0.0
C872 C 0.65327 0.15826 0.49605 0.0
H873 H 0.55742 0.07556 0.48679 0.0
H874 H 0.58246 0.10481 0.49864 0.0
H875 H 0.61129 0.16017 0.46991 0.0
H876 H 0.72177 0.19374 0.48278 0.0
H877 H 0.68393 0.17856 0.47715 0.0
C878 C 0.91556 0.07709 0.72164 0.0
C879 C 0.91254 0.06889 0.7071 0.0
C880 C 0.90076 0.09404 0.72755 0.0
C881 C 0.84482 0.12407 0.72148 0.0
H882 H 0.87428 0.17594 0.74209 0.0
C883 C 0.80558 0.21725 0.72709 0.0
C884 C 0.80981 0.23007 0.74013 0.0
C885 C 0.8153 0.19491 0.72504 0.0
C886 C 0.86567 0.1614 0.73661 0.0
H887 H 0.89149 0.07177 0.68741 0.0
H888 H 0.86587 0.1015 0.69763 0.0
H889 H 0.89672 0.14165 0.73491 0.0
H890 H 0.82637 0.22889 0.76162 0.0
H891 H 0.84319 0.18989 0.75805 0.0
H892 H 0.8139 0.14437 0.72276 0.0
C893 C 0.87934 0.09453 0.7046 0.0
C894 C 0.87855 0.14171 0.73249 0.0
C895 C 0.89407 0.07752 0.69872 0.0
C896 C 0.82295 0.21957 0.75139 0.0
C897 C 0.83267 0.19727 0.74933 0.0
C898 C 0.83193 0.14385 0.72556 0.0
C899 C 0.8827 0.10324 0.71901 0.0
C900 C 0.86838 0.12298 0.72466 0.0
C901 C 0.82944 0.18497 0.73598 0.0
C902 C 0.84232 0.16289 0.73296 0.0
H903 H 0.92945 0.07049 0.72842 0.0
H904 H 0.90359 0.10012 0.73877 0.0
H905 H 0.83639 0.10976 0.71566 0.0
H906 H 0.79548 0.22481 0.71822 0.0
H907 H 0.81263 0.18596 0.71459 0.0
C908 C 0.9084 0.4065 0.95093 0.0
C909 C 0.92131 0.42073 0.96052 0.0
C910 C 0.89207 0.3909 0.95652 0.0
C911 C 0.87066 0.36219 0.99091 0.0
H912 H 0.81367 0.361 0.9689 0.0
C913 C 0.78345 0.32815 0.01371 0.0
C914 C 0.76928 0.31586 0.00375 0.0
C915 C 0.80429 0.33773 0.00895 0.0
C916 C 0.82957 0.36084 0.97507 0.0
H917 H 0.92793 0.42937 0.98347 0.0
H918 H 0.89881 0.40252 0.99331 0.0
H919 H 0.84565 0.38397 0.95963 0.0
H920 H 0.76664 0.30249 0.9813 0.0
H921 H 0.8029 0.31911 0.97307 0.0
H922 H 0.85397 0.33952 0.00663 0.0
C923 C 0.90159 0.40306 0.98147 0.0
C924 C 0.84797 0.37399 0.96974 0.0
C925 C 0.91819 0.4185 0.97586 0.0
C926 C 0.77699 0.31213 0.98921 0.0
C927 C 0.79773 0.3217 0.98446 0.0
C928 C 0.8521 0.34911 0.99633 0.0
C929 C 0.88802 0.38942 0.97183 0.0
C930 C 0.86878 0.37482 0.97755 0.0
C931 C 0.81126 0.33521 0.99415 0.0
C932 C 0.83139 0.34828 0.98842 0.0
H933 H 0.91081 0.40763 0.93906 0.0
H934 H 0.88236 0.38022 0.94879 0.0
H935 H 0.8865 0.36229 0.99714 0.0
H936 H 0.77804 0.33125 0.02501 0.0
H937 H 0.81435 0.34813 0.01664 0.0
C938 C 0.57579 0.40908 0.22416 0.0
C939 C 0.582 0.42772 0.21472 0.0
C940 C 0.59253 0.3946 0.23041 0.0
C941 C 0.64909 0.37162 0.22243 0.0
H942 H 0.64534 0.34695 0.26238 0.0
C943 C 0.70585 0.29389 0.24099 0.0
C944 C 0.69402 0.27588 0.2485 0.0
C945 C 0.69579 0.31613 0.23905 0.0
C946 C 0.64661 0.35364 0.25119 0.0
H947 H 0.61054 0.44629 0.20471 0.0
H948 H 0.63992 0.42073 0.21558 0.0
H949 H 0.62053 0.37958 0.25495 0.0
H950 H 0.66281 0.2674 0.26043 0.0
H951 H 0.64519 0.30574 0.2568 0.0
H952 H 0.67422 0.34496 0.21835 0.0
C953 C 0.62208 0.41742 0.21815 0.0
C954 C 0.63245 0.37235 0.24696 0.0
C955 C 0.60532 0.43209 0.21202 0.0
C956 C 0.6724 0.28086 0.25457 0.0
C957 C 0.66235 0.30299 0.25259 0.0
C958 C 0.66312 0.35278 0.22661 0.0
C959 C 0.61581 0.39834 0.22724 0.0
C960 C 0.63313 0.3811 0.23243 0.0
C961 C 0.6737 0.32076 0.24456 0.0
C962 C 0.66158 0.34312 0.24092 0.0
H963 H 0.55793 0.40546 0.22649 0.0
H964 H 0.58717 0.37987 0.23725 0.0
H965 H 0.64983 0.37786 0.21111 0.0
H966 H 0.72261 0.29066 0.23627 0.0
H967 H 0.70514 0.32954 0.233 0.0
C968 C 0.08048 0.9338 0.38177 0.0
C969 C 0.06266 0.92282 0.3739 0.0
C970 C 0.0929 0.92125 0.39238 0.0
C971 C 0.0879 0.86887 0.41661 0.0
H972 H 0.15227 0.88103 0.4239 0.0
C973 C 0.13241 0.83772 0.46995 0.0
C974 C 0.15509 0.82958 0.46898 0.0
C975 C 0.12181 0.8482 0.45775 0.0
C976 C 0.13435 0.8772 0.42192 0.0
H977 H 0.04455 0.88984 0.37046 0.0
H978 H 0.06653 0.86771 0.38877 0.0
H979 H 0.13329 0.90005 0.40307 0.0
H980 H 0.18438 0.8259 0.4544 0.0
H981 H 0.16572 0.84375 0.43301 0.0
H982 H 0.08905 0.84563 0.43524 0.0
C983 C 0.07054 0.8862 0.38704 0.0
C984 C 0.12339 0.88835 0.41007 0.0
C985 C 0.058 0.89882 0.37651 0.0
C986 C 0.16692 0.83209 0.45553 0.0
C987 C 0.15625 0.84245 0.44329 0.0
C988 C 0.09888 0.85762 0.42839 0.0
C989 C 0.08788 0.89736 0.3953 0.0
C990 C 0.09996 0.8845 0.40736 0.0
C991 C 0.13356 0.85064 0.44425 0.0
C992 C 0.12218 0.86185 0.4313 0.0
H993 H 0.08425 0.95237 0.38011 0.0
H994 H 0.10588 0.93053 0.39867 0.0
H995 H 0.06978 0.86569 0.41499 0.0
H996 H 0.12286 0.83619 0.48018 0.0
H997 H 0.10447 0.8547 0.45899 0.0
C998 C 0.07735 0.59319 0.62829 0.0
C999 C 0.07907 0.56875 0.62575 0.0
C1000 C 0.09117 0.60418 0.63888 0.0
C1001 C 0.14331 0.59584 0.6619 0.0
H1002 H 0.11377 0.64176 0.6874 0.0
C1003 C 0.18228 0.62794 0.71731 0.0
C1004 C 0.18013 0.65208 0.72071 0.0
C1005 C 0.1713 0.61843 0.70491 0.0
C1006 C 0.12237 0.6292 0.68026 0.0
H1007 H 0.09683 0.53671 0.6322 0.0
H1008 H 0.12078 0.5558 0.65077 0.0
H1009 H 0.09237 0.62418 0.66708 0.0
H1010 H 0.16514 0.68528 0.71355 0.0
H1011 H 0.14606 0.6687 0.69195 0.0
H1012 H 0.1732 0.60062 0.67534 0.0
C1013 C 0.10905 0.56659 0.64441 0.0
C1014 C 0.11011 0.61914 0.66858 0.0
C1015 C 0.09531 0.55563 0.63377 0.0
C1016 C 0.16708 0.66658 0.7113 0.0
C1017 C 0.15604 0.65707 0.69895 0.0
C1018 C 0.15555 0.60585 0.67363 0.0
C1019 C 0.10693 0.59095 0.64724 0.0
C1020 C 0.12039 0.60228 0.65928 0.0
C1021 C 0.15786 0.63285 0.69568 0.0
C1022 C 0.14518 0.62259 0.68297 0.0
H1023 H 0.06523 0.60382 0.62212 0.0
H1024 H 0.0894 0.62304 0.64057 0.0
H1025 H 0.15184 0.58314 0.65483 0.0
H1026 H 0.19223 0.61629 0.72432 0.0
H1027 H 0.17286 0.59966 0.70275 0.0
C1028 C 0.42691 0.59411 0.87648 0.0
C1029 C 0.41933 0.57166 0.87194 0.0
C1030 C 0.41419 0.60737 0.88659 0.0
C1031 C 0.37183 0.5998 0.91633 0.0
H1032 H 0.36747 0.66812 0.91405 0.0
C1033 C 0.32078 0.65421 0.95906 0.0
C1034 C 0.33153 0.67471 0.96448 0.0
C1035 C 0.32977 0.64219 0.94687 0.0
C1036 C 0.36867 0.64906 0.91488 0.0
H1037 H 0.39209 0.54582 0.87416 0.0
H1038 H 0.36962 0.56919 0.89159 0.0
H1039 H 0.3858 0.64624 0.89401 0.0
H1040 H 0.35998 0.69883 0.96121 0.0
H1041 H 0.37576 0.67774 0.94001 0.0
H1042 H 0.35496 0.60262 0.93726 0.0
C1043 C 0.38559 0.57638 0.88748 0.0
C1044 C 0.37916 0.63652 0.9034 0.0
C1045 C 0.39833 0.56311 0.87736 0.0
C1046 C 0.35127 0.6831 0.95731 0.0
C1047 C 0.36024 0.67111 0.9451 0.0
C1048 C 0.36131 0.61232 0.92778 0.0
C1049 C 0.39356 0.5985 0.89239 0.0
C1050 C 0.38107 0.61177 0.90406 0.0
C1051 C 0.34968 0.65042 0.93981 0.0
C1052 C 0.35982 0.6371 0.92726 0.0
H1053 H 0.44287 0.60132 0.87236 0.0
H1054 H 0.42092 0.62424 0.89023 0.0
H1055 H 0.37335 0.58078 0.91732 0.0
H1056 H 0.30548 0.64731 0.9643 0.0
H1057 H 0.32109 0.62646 0.94295 0.0
C1058 C 0.42147 0.95067 0.14522 0.0
C1059 C 0.42363 0.9411 0.13095 0.0
C1060 C 0.40917 0.93872 0.15614 0.0
C1061 C 0.38857 0.87948 0.1666 0.0
H1062 H 0.35138 0.91492 0.19438 0.0
C1063 C 0.33447 0.83491 0.21268 0.0
C1064 C 0.33579 0.84547 0.22674 0.0
C1065 C 0.34391 0.84616 0.20031 0.0
C1066 C 0.36181 0.9048 0.18676 0.0
H1067 H 0.41429 0.91158 0.11687 0.0
H1068 H 0.39266 0.89067 0.13599 0.0
H1069 H 0.36972 0.93537 0.17383 0.0
H1070 H 0.34808 0.8761 0.23883 0.0
H1071 H 0.36453 0.89562 0.21731 0.0
H1072 H 0.38071 0.84891 0.17965 0.0
C1073 C 0.40075 0.90732 0.13876 0.0
C1074 C 0.37233 0.91651 0.17499 0.0
C1075 C 0.41311 0.9193 0.12781 0.0
C1076 C 0.34672 0.86749 0.22816 0.0
C1077 C 0.35603 0.87876 0.21581 0.0
C1078 C 0.37797 0.86773 0.17837 0.0
C1079 C 0.39868 0.9169 0.15306 0.0
C1080 C 0.38613 0.90407 0.1649 0.0
C1081 C 0.3547 0.86825 0.20175 0.0
C1082 C 0.36476 0.88034 0.1887 0.0
H1083 H 0.42976 0.96718 0.14809 0.0
H1084 H 0.40833 0.94637 0.16711 0.0
H1085 H 0.39928 0.86941 0.15912 0.0
H1086 H 0.32616 0.81795 0.2112 0.0
H1087 H 0.34249 0.83771 0.18959 0.0
C1088 C 0.07131 0.6047 0.88517 0.0
C1089 C 0.07438 0.58029 0.88721 0.0
C1090 C 0.08501 0.61711 0.87513 0.0
C1091 C 0.11627 0.60852 0.84089 0.0
H1092 H 0.14565 0.66825 0.85001 0.0
C1093 C 0.17294 0.65579 0.798 0.0
C1094 C 0.17199 0.68058 0.7974 0.0
C1095 C 0.1625 0.64352 0.80959 0.0
C1096 C 0.1373 0.65176 0.8472 0.0
H1097 H 0.09425 0.54974 0.88054 0.0
H1098 H 0.11801 0.5714 0.86285 0.0
H1099 H 0.12471 0.64715 0.86932 0.0
H1100 H 0.15935 0.71198 0.80845 0.0
H1101 H 0.14037 0.69061 0.82837 0.0
H1102 H 0.12791 0.61333 0.81871 0.0
C1103 C 0.10512 0.58092 0.86908 0.0
C1104 C 0.12543 0.63964 0.8583 0.0
C1105 C 0.09167 0.56859 0.87926 0.0
C1106 C 0.16048 0.69287 0.80866 0.0
C1107 C 0.14973 0.68059 0.82015 0.0
C1108 C 0.12782 0.62077 0.82975 0.0
C1109 C 0.10175 0.60523 0.8668 0.0
C1110 C 0.11484 0.6179 0.85523 0.0
C1111 C 0.15053 0.65573 0.82075 0.0
C1112 C 0.13852 0.64256 0.83274 0.0
H1113 H 0.05814 0.61412 0.89121 0.0
H1114 H 0.082 0.63583 0.87352 0.0
H1115 H 0.10794 0.59195 0.83819 0.0
H1116 H 0.18189 0.64583 0.78955 0.0
H1117 H 0.16394 0.62444 0.80982 0.0
C1118 C 0.43423 0.58489 0.12182 0.0
C1119 C 0.42454 0.56466 0.12833 0.0
C1120 C 0.42172 0.5984 0.11173 0.0
C1121 C 0.37326 0.5942 0.08581 0.0
H1122 H 0.37849 0.66255 0.08511 0.0
C1123 C 0.32213 0.65197 0.04472 0.0
C1124 C 0.33452 0.67001 0.03761 0.0
C1125 C 0.33166 0.63972 0.05665 0.0
C1126 C 0.37698 0.64346 0.08511 0.0
H1127 H 0.39387 0.54315 0.12969 0.0
H1128 H 0.37195 0.5668 0.11208 0.0
H1129 H 0.39756 0.64012 0.10459 0.0
H1130 H 0.3665 0.68957 0.03761 0.0
H1131 H 0.38314 0.66811 0.05835 0.0
H1132 H 0.35287 0.59753 0.06625 0.0
C1133 C 0.38938 0.57199 0.11461 0.0
C1134 C 0.3879 0.63061 0.09627 0.0
C1135 C 0.40191 0.55845 0.1247 0.0
C1136 C 0.35649 0.67576 0.04283 0.0
C1137 C 0.36598 0.66357 0.05479 0.0
C1138 C 0.3623 0.60705 0.07468 0.0
C1139 C 0.3992 0.59202 0.10793 0.0
C1140 C 0.38639 0.60581 0.09665 0.0
C1141 C 0.35373 0.64532 0.06178 0.0
C1142 C 0.36426 0.63181 0.0741 0.0
H1143 H 0.45174 0.58994 0.1242 0.0
H1144 H 0.42995 0.61348 0.10661 0.0
H1145 H 0.37201 0.57509 0.08566 0.0
H1146 H 0.30511 0.64717 0.041 0.0
H1147 H 0.3217 0.62592 0.06191 0.0
C1148 C 0.44812 0.90647 0.36961 0.0
C1149 C 0.44085 0.90865 0.38437 0.0
C1150 C 0.43571 0.89284 0.35956 0.0
C1151 C 0.37834 0.86816 0.35274 0.0
H1152 H 0.41076 0.83087 0.32345 0.0
C1153 C 0.33515 0.83282 0.29972 0.0
C1154 C 0.34186 0.81055 0.29436 0.0
C1155 C 0.34637 0.843 0.3118 0.0
C1156 C 0.4014 0.84093 0.33166 0.0
H1157 H 0.4149 0.89802 0.40019 0.0
H1158 H 0.39314 0.87405 0.38257 0.0
H1159 H 0.43221 0.85132 0.34266 0.0
H1160 H 0.36515 0.78118 0.29775 0.0
H1161 H 0.38452 0.7988 0.31895 0.0
H1162 H 0.34749 0.85759 0.34176 0.0
C1163 C 0.40837 0.88314 0.37877 0.0
C1164 C 0.41373 0.8529 0.34256 0.0
C1165 C 0.42082 0.89684 0.38885 0.0
C1166 C 0.35967 0.79844 0.30155 0.0
C1167 C 0.37084 0.80858 0.31366 0.0
C1168 C 0.36599 0.85615 0.34182 0.0
C1169 C 0.41569 0.881 0.364 0.0
C1170 C 0.40238 0.86693 0.3531 0.0
C1171 C 0.36451 0.83111 0.31882 0.0
C1172 C 0.3774 0.84262 0.33104 0.0
H1173 H 0.46319 0.91575 0.36571 0.0
H1174 H 0.44156 0.892 0.3482 0.0
H1175 H 0.36909 0.87895 0.36063 0.0
H1176 H 0.32152 0.84265 0.29442 0.0
H1177 H 0.34125 0.8605 0.31536 0.0
C1178 C 0.0659 0.89539 0.62649 0.0
C1179 C 0.06942 0.91988 0.62773 0.0
C1180 C 0.07937 0.88186 0.61694 0.0
C1181 C 0.13312 0.88228 0.59501 0.0
H1182 H 0.10071 0.83629 0.57103 0.0
C1183 C 0.17159 0.83947 0.54238 0.0
C1184 C 0.16698 0.81539 0.53991 0.0
C1185 C 0.16115 0.85148 0.55409 0.0
C1186 C 0.1101 0.84881 0.57777 0.0
H1187 H 0.09013 0.94932 0.62019 0.0
H1188 H 0.11355 0.92574 0.6034 0.0
H1189 H 0.08003 0.85848 0.5898 0.0
H1190 H 0.14828 0.78489 0.54808 0.0
H1191 H 0.13019 0.80583 0.56852 0.0
H1192 H 0.16314 0.8728 0.58271 0.0
C1193 C 0.10059 0.91691 0.60996 0.0
C1194 C 0.09825 0.86153 0.58856 0.0
C1195 C 0.08717 0.93044 0.61957 0.0
C1196 C 0.15211 0.80347 0.5496 0.0
C1197 C 0.14165 0.81549 0.56128 0.0
C1198 C 0.14499 0.86957 0.58417 0.0
C1199 C 0.0966 0.89252 0.60836 0.0
C1200 C 0.10958 0.87846 0.59728 0.0
C1201 C 0.14584 0.83969 0.56356 0.0
C1202 C 0.13357 0.85275 0.5754 0.0
H1203 H 0.05261 0.8867 0.63284 0.0
H1204 H 0.07616 0.86303 0.6162 0.0
H1205 H 0.14242 0.89499 0.60166 0.0
H1206 H 0.18299 0.84916 0.53512 0.0
H1207 H 0.16457 0.87018 0.55547 0.0
C1208 C 0.55445 0.39615 0.8781 0.0
C1209 C 0.55916 0.4201 0.8753 0.0
C1210 C 0.5665 0.38389 0.88903 0.0
C1211 C 0.61857 0.38664 0.91262 0.0
H1212 H 0.5837 0.3446 0.93794 0.0
C1213 C 0.66149 0.33046 0.95818 0.0
C1214 C 0.64982 0.32833 0.97172 0.0
C1215 C 0.65081 0.34076 0.94594 0.0
C1216 C 0.59366 0.35641 0.93104 0.0
H1217 H 0.58031 0.44992 0.88167 0.0
H1218 H 0.60114 0.42866 0.90085 0.0
H1219 H 0.5648 0.36432 0.91737 0.0
H1220 H 0.6178 0.33546 0.98305 0.0
H1221 H 0.59933 0.35384 0.9618 0.0
H1222 H 0.64723 0.37941 0.92663 0.0
C1223 C 0.58847 0.41917 0.89442 0.0
C1224 C 0.58289 0.36746 0.9191 0.0
C1225 C 0.57652 0.43138 0.88343 0.0
C1226 C 0.62724 0.33674 0.97276 0.0
C1227 C 0.6166 0.34714 0.96054 0.0
C1228 C 0.62932 0.37566 0.9246 0.0
C1229 C 0.58343 0.39535 0.89747 0.0
C1230 C 0.59518 0.38281 0.90978 0.0
C1231 C 0.62825 0.34928 0.94698 0.0
C1232 C 0.61696 0.36051 0.93401 0.0
H1233 H 0.54136 0.38693 0.87186 0.0
H1234 H 0.56248 0.36543 0.89089 0.0
H1235 H 0.62862 0.39814 0.90557 0.0
H1236 H 0.67887 0.32405 0.95698 0.0
H1237 H 0.66017 0.3418 0.93562 0.0
C1238 C 0.58869 0.07255 0.13147 0.0
C1239 C 0.57092 0.08264 0.12308 0.0
C1240 C 0.60117 0.08627 0.14149 0.0
C1241 C 0.59581 0.13995 0.16403 0.0
H1242 H 0.66117 0.13212 0.16986 0.0
C1243 C 0.64578 0.19672 0.206 0.0
C1244 C 0.66191 0.18492 0.21486 0.0
C1245 C 0.63589 0.18541 0.19383 0.0
C1246 C 0.64288 0.13437 0.16845 0.0
H1247 H 0.55305 0.11531 0.11816 0.0
H1248 H 0.5748 0.13925 0.1357 0.0
H1249 H 0.6419 0.11037 0.15011 0.0
H1250 H 0.68059 0.15209 0.21774 0.0
H1251 H 0.66308 0.13224 0.19665 0.0
H1252 H 0.59662 0.16355 0.18249 0.0
C1253 C 0.57882 0.12063 0.13468 0.0
C1254 C 0.63186 0.12194 0.15712 0.0
C1255 C 0.56636 0.10692 0.12464 0.0
C1256 C 0.66823 0.16169 0.21113 0.0
C1257 C 0.65829 0.15036 0.19898 0.0
C1258 C 0.6068 0.15232 0.17536 0.0
C1259 C 0.59614 0.11038 0.14337 0.0
C1260 C 0.60817 0.12448 0.15485 0.0
C1261 C 0.64186 0.16202 0.19025 0.0
C1262 C 0.63044 0.14956 0.17778 0.0
H1263 H 0.59242 0.05384 0.13071 0.0
H1264 H 0.6142 0.07778 0.14815 0.0
H1265 H 0.57748 0.142 0.16274 0.0
H1266 H 0.64064 0.21468 0.2085 0.0
H1267 H 0.62356 0.19503 0.18721 0.0
C1268 C 0.90228 0.06752 0.37864 0.0
C1269 C 0.92313 0.07589 0.37288 0.0
C1270 C 0.88995 0.08095 0.38888 0.0
C1271 C 0.88434 0.14133 0.40462 0.0
H1272 H 0.85949 0.10785 0.43845 0.0
C1273 C 0.85475 0.1885 0.45807 0.0
C1274 C 0.8345 0.18033 0.46475 0.0
C1275 C 0.86438 0.17631 0.44614 0.0
C1276 C 0.86608 0.11743 0.42899 0.0
H1277 H 0.94683 0.10543 0.37289 0.0
H1278 H 0.92565 0.12858 0.39101 0.0
H1279 H 0.87803 0.08574 0.41869 0.0
H1280 H 0.80834 0.15307 0.46402 0.0
H1281 H 0.82514 0.13187 0.44321 0.0
H1282 H 0.8727 0.17308 0.41513 0.0
C1283 C 0.9187 0.11172 0.38753 0.0
C1284 C 0.87667 0.10476 0.41763 0.0
C1285 C 0.93099 0.09832 0.37727 0.0
C1286 C 0.82399 0.15982 0.45916 0.0
C1287 C 0.83367 0.14759 0.44728 0.0
C1288 C 0.87381 0.15402 0.41602 0.0
C1289 C 0.8982 0.10305 0.39362 0.0
C1290 C 0.88603 0.11655 0.40534 0.0
C1291 C 0.85402 0.15564 0.44068 0.0
C1292 C 0.86466 0.14221 0.42836 0.0
H1293 H 0.89581 0.05024 0.37559 0.0
H1294 H 0.87405 0.0739 0.3932 0.0
H1295 H 0.89109 0.15094 0.39522 0.0
H1296 H 0.86328 0.20425 0.46211 0.0
H1297 H 0.88021 0.18281 0.44139 0.0
C1298 C 0.93109 0.41557 0.63211 0.0
C1299 C 0.92193 0.43438 0.62389 0.0
C1300 C 0.91728 0.40266 0.6418 0.0
C1301 C 0.86284 0.40686 0.66266 0.0
H1302 H 0.8733 0.33991 0.66901 0.0
C1303 C 0.80628 0.34996 0.70136 0.0
C1304 C 0.81836 0.33603 0.71161 0.0
C1305 C 0.81778 0.36108 0.68971 0.0
C1306 C 0.87025 0.35862 0.66737 0.0
H1307 H 0.891 0.454 0.61899 0.0
H1308 H 0.86666 0.43113 0.63565 0.0
H1309 H 0.89511 0.36078 0.65005 0.0
H1310 H 0.85188 0.3224 0.71747 0.0
H1311 H 0.87188 0.34162 0.69704 0.0
H1312 H 0.83785 0.40453 0.67996 0.0
C1313 C 0.88466 0.42668 0.63491 0.0
C1314 C 0.88279 0.37062 0.65655 0.0
C1315 C 0.89855 0.43975 0.62533 0.0
C1316 C 0.84209 0.33307 0.70979 0.0
C1317 C 0.85353 0.34394 0.69805 0.0
C1318 C 0.85014 0.39478 0.67337 0.0
C1319 C 0.8939 0.40812 0.64339 0.0
C1320 C 0.87948 0.39498 0.6542 0.0
C1321 C 0.84153 0.35822 0.68797 0.0
C1322 C 0.85394 0.37062 0.67596 0.0
H1323 H 0.94913 0.41125 0.63137 0.0
H1324 H 0.92512 0.38881 0.64833 0.0
H1325 H 0.86007 0.42566 0.66135 0.0
H1326 H 0.78798 0.35259 0.70247 0.0
H1327 H 0.8081 0.37186 0.68204 0.0
C1328 C 0.57639 0.08974 0.38307 0.0
C1329 C 0.56843 0.06703 0.37938 0.0
C1330 C 0.58739 0.10376 0.37247 0.0
C1331 C 0.61826 0.09957 0.33692 0.0
H1332 H 0.6041 0.1663 0.3334 0.0
C1333 C 0.66742 0.16023 0.29683 0.0
C1334 C 0.65427 0.17608 0.28838 0.0
C1335 C 0.65761 0.14792 0.30862 0.0
C1336 C 0.60816 0.14767 0.33421 0.0
H1337 H 0.56514 0.04156 0.36155 0.0
H1338 H 0.58432 0.0659 0.34315 0.0
H1339 H 0.58544 0.1427 0.35257 0.0
H1340 H 0.62055 0.19169 0.28587 0.0
H1341 H 0.60336 0.16997 0.30638 0.0
H1342 H 0.64051 0.1043 0.31837 0.0
C1343 C 0.5825 0.07272 0.35429 0.0
C1344 C 0.59767 0.13422 0.34529 0.0
C1345 C 0.57151 0.05875 0.36485 0.0
C1346 C 0.63116 0.17961 0.29215 0.0
C1347 C 0.62134 0.16728 0.30396 0.0
C1348 C 0.62877 0.113 0.32588 0.0
C1349 C 0.59065 0.09534 0.35798 0.0
C1350 C 0.60246 0.10996 0.34667 0.0
C1351 C 0.63441 0.15114 0.31225 0.0
C1352 C 0.62374 0.13716 0.32434 0.0
H1353 H 0.57445 0.09653 0.3942 0.0
H1354 H 0.59368 0.12103 0.37568 0.0
H1355 H 0.62253 0.08099 0.3378 0.0
H1356 H 0.68531 0.1572 0.29428 0.0
H1357 H 0.66822 0.13587 0.31492 0.0
C1358 C 0.90283 0.0778 0.62758 0.0
C1359 C 0.91265 0.05586 0.62388 0.0
C1360 C 0.8891 0.08989 0.61739 0.0
C1361 C 0.85402 0.08102 0.58402 0.0
H1362 H 0.86675 0.14706 0.57597 0.0
C1363 C 0.82126 0.12722 0.53147 0.0
C1364 C 0.81487 0.15112 0.53227 0.0
C1365 C 0.83124 0.116 0.54363 0.0
C1366 C 0.86265 0.12874 0.57825 0.0
H1367 H 0.91589 0.02969 0.60641 0.0
H1368 H 0.89161 0.05049 0.58888 0.0
H1369 H 0.88749 0.12678 0.59567 0.0
H1370 H 0.81344 0.18187 0.54659 0.0
H1371 H 0.83046 0.16215 0.56793 0.0
H1372 H 0.82924 0.08284 0.56664 0.0
C1373 C 0.89435 0.0582 0.59971 0.0
C1374 C 0.87459 0.11713 0.58952 0.0
C1375 C 0.90823 0.04625 0.6098 0.0
C1376 C 0.8183 0.16346 0.54559 0.0
C1377 C 0.82817 0.15219 0.5578 0.0
C1378 C 0.84197 0.09265 0.57284 0.0
C1379 C 0.88472 0.08017 0.60337 0.0
C1380 C 0.87067 0.09305 0.59233 0.0
C1381 C 0.83493 0.12836 0.55693 0.0
C1382 C 0.84642 0.11654 0.56962 0.0
H1383 H 0.90562 0.08558 0.63837 0.0
H1384 H 0.88174 0.10673 0.62053 0.0
H1385 H 0.85041 0.06253 0.58611 0.0
H1386 H 0.81895 0.11723 0.52136 0.0
H1387 H 0.83658 0.09777 0.54245 0.0
C1388 C 0.95107 0.40405 0.87354 0.0
C1389 C 0.93922 0.42337 0.87963 0.0
C1390 C 0.94039 0.3892 0.86329 0.0
C1391 C 0.88365 0.37132 0.84888 0.0
H1392 H 0.91751 0.35565 0.81329 0.0
C1393 C 0.83965 0.33699 0.79607 0.0
C1394 C 0.85082 0.31951 0.78771 0.0
C1395 C 0.85058 0.34757 0.80811 0.0
C1396 C 0.90792 0.35953 0.82326 0.0
H1397 H 0.90665 0.44174 0.88016 0.0
H1398 H 0.8881 0.41604 0.86213 0.0
H1399 H 0.93631 0.37765 0.83304 0.0
H1400 H 0.88212 0.29911 0.78561 0.0
H1401 H 0.90113 0.31746 0.80674 0.0
H1402 H 0.85516 0.35347 0.83901 0.0
C1403 C 0.9056 0.41228 0.86533 0.0
C1404 C 0.9187 0.37214 0.83458 0.0
C1405 C 0.9163 0.42716 0.87553 0.0
C1406 C 0.87307 0.31261 0.79178 0.0
C1407 C 0.88401 0.32319 0.80385 0.0
C1408 C 0.87287 0.35868 0.83757 0.0
C1409 C 0.9176 0.39329 0.85896 0.0
C1410 C 0.9066 0.37844 0.84743 0.0
C1411 C 0.87292 0.34089 0.8121 0.0
C1412 C 0.8848 0.35291 0.82454 0.0
H1413 H 0.9688 0.40077 0.87641 0.0
H1414 H 0.95 0.37457 0.85868 0.0
H1415 H 0.87398 0.37558 0.85875 0.0
H1416 H 0.82252 0.34277 0.79322 0.0
H1417 H 0.84168 0.36138 0.8141 0.0
C1418 C 0.56912 0.39374 0.1312 0.0
C1419 C 0.57293 0.41819 0.13241 0.0
C1420 C 0.58205 0.38009 0.12141 0.0
C1421 C 0.63494 0.37992 0.09862 0.0
H1422 H 0.60095 0.33487 0.07486 0.0
C1423 C 0.67095 0.33737 0.04517 0.0
C1424 C 0.66559 0.31352 0.04246 0.0
C1425 C 0.66119 0.34931 0.05717 0.0
C1426 C 0.61079 0.34711 0.08154 0.0
H1427 H 0.59364 0.44742 0.12454 0.0
H1428 H 0.61616 0.42363 0.10737 0.0
H1429 H 0.58132 0.35705 0.0941 0.0
H1430 H 0.64638 0.28331 0.05053 0.0
H1431 H 0.62955 0.30406 0.07148 0.0
H1432 H 0.66435 0.37015 0.08583 0.0
C1433 C 0.60338 0.41493 0.11413 0.0
C1434 C 0.59953 0.35983 0.09259 0.0
C1435 C 0.59046 0.42857 0.12397 0.0
C1436 C 0.65075 0.30172 0.05223 0.0
C1437 C 0.641 0.31365 0.0642 0.0
C1438 C 0.64622 0.36719 0.08753 0.0
C1439 C 0.59906 0.3906 0.11256 0.0
C1440 C 0.61143 0.37645 0.10123 0.0
C1441 C 0.64586 0.33766 0.0667 0.0
C1442 C 0.63423 0.3507 0.07883 0.0
H1443 H 0.55598 0.38517 0.13775 0.0
H1444 H 0.5786 0.36131 0.12068 0.0
H1445 H 0.64466 0.3924 0.1052 0.0
H1446 H 0.68233 0.34698 0.03786 0.0
H1447 H 0.66512 0.36786 0.0587 0.0
loop_
_geom_bond_atom_site_label_1
_geom_bond_atom_site_label_2
_geom_bond_distance
_geom_bond_site_symmetry_2
_ccdc_geom_bond_type
H0 C19 0.949 . S
H1 C20 0.950 . S
H2 C22 0.950 . S
H3 C23 0.950 . S
H4 C25 0.950 . S
H5 C28 0.950 . S
H6 C29 0.950 . S
H7 C31 0.951 . S
H8 C32 0.949 1_565 S
H9 C34 0.949 . S
H10 C35 0.950 . S
H11 C37 0.950 . S
H12 C38 0.950 . S
H13 C40 0.950 . S
H14 C43 0.950 . S
H15 C44 0.950 . S
H16 C46 0.951 . S
H17 C47 0.949 1_545 S
C18 C19 1.376 . S
C18 C23 1.386 . S
C18 C24 1.483 . S
C19 H0 0.949 . S
C19 C18 1.376 . S
C19 C20 1.397 . S
C20 H1 0.950 . S
C20 C19 1.397 . S
C20 C21 1.391 . S
C21 C20 1.391 . S
C21 C22 1.405 . S
C22 H2 0.950 . S
C22 C21 1.405 . S
C22 C23 1.367 . S
C23 H3 0.950 . S
C23 C18 1.386 . S
C23 C22 1.367 . S
C24 C18 1.483 . S
C24 C25 1.382 1_655 S
C24 C26 1.403 . S
C25 H4 0.950 . S
C25 C24 1.382 1_455 S
C25 C41 1.411 1_545 S
C26 C24 1.403 . S
C26 C27 1.489 . S
C26 C40 1.411 1_545 S
C27 C26 1.489 . S
C27 C28 1.383 . S
C27 C32 1.382 . S
C28 H5 0.950 . S
C28 C27 1.383 . S
C28 C29 1.395 . S
C29 H6 0.950 . S
C29 C28 1.395 . S
C29 C30 1.288 . S
C30 C29 1.288 . S
C30 C31 1.392 . S
C31 H7 0.951 . S
C31 C30 1.392 . S
C31 C32 1.392 . S
C32 H8 0.949 1_545 S
C32 C27 1.382 . S
C32 C31 1.392 . S
C33 C34 1.376 . S
C33 C38 1.386 . S
C33 C39 1.483 . S
C34 H9 0.949 . S
C34 C33 1.376 . S
C34 C35 1.397 . S
C35 H10 0.950 . S
C35 C34 1.397 . S
C35 C36 1.391 . S
C36 C35 1.391 . S
C36 C37 1.405 . S
C37 H11 0.950 . S
C37 C36 1.405 . S
C37 C38 1.367 . S
C38 H12 0.950 . S
C38 C33 1.386 . S
C38 C37 1.367 . S
C39 C33 1.483 . S
C39 C40 1.382 1_455 S
C39 C41 1.403 . S
C40 H13 0.950 . S
C40 C26 1.411 1_565 S
C40 C39 1.382 1_655 S
C41 C25 1.411 1_565 S
C41 C39 1.403 . S
C41 C42 1.489 . S
C42 C41 1.489 . S
C42 C43 1.383 . S
C42 C47 1.382 . S
C43 H14 0.950 . S
C43 C42 1.383 . S
C43 C44 1.395 . S
C44 H15 0.950 . S
C44 C43 1.395 . S
C44 C45 1.288 . S
C45 C44 1.288 . S
C45 C46 1.392 . S
C46 H16 0.951 . S
C46 C45 1.392 . S
C46 C47 1.392 . S
C47 H17 0.949 1_565 S
C47 C42 1.382 . S
C47 C46 1.392 . S
H48 C67 0.949 1_455 S
H49 C68 0.950 . S
H50 C70 0.950 . S
H51 C71 0.950 . S
H52 C73 0.950 . S
H53 C76 0.950 . S
H54 C77 0.950 . S
H55 C79 0.951 . S
H56 C80 0.949 . S
H57 C82 0.949 1_655 S
H58 C83 0.950 . S
H59 C85 0.950 . S
H60 C86 0.950 . S
H61 C88 0.950 . S
H62 C91 0.950 . S
H63 C92 0.950 . S
H64 C94 0.951 . S
H65 C95 0.949 . S
C66 C67 1.376 . S
C66 C71 1.386 . S
C66 C72 1.483 . S
C67 H48 0.949 1_655 S
C67 C66 1.376 . S
C67 C68 1.397 . S
C68 H49 0.950 . S
C68 C67 1.397 . S
C68 C69 1.391 . S
C69 C68 1.391 . S
C69 C70 1.405 . S
C70 H50 0.950 . S
C70 C69 1.405 . S
C70 C71 1.367 . S
C71 H51 0.950 . S
C71 C66 1.386 . S
C71 C70 1.367 . S
C72 C66 1.483 . S
C72 C73 1.382 1_655 S
C72 C74 1.403 . S
C73 H52 0.950 . S
C73 C72 1.382 1_455 S
C73 C89 1.411 . S
C74 C72 1.403 . S
C74 C75 1.489 . S
C74 C88 1.411 . S
C75 C74 1.489 . S
C75 C76 1.383 . S
C75 C80 1.382 . S
C76 H53 0.950 . S
C76 C75 1.383 . S
C76 C77 1.395 . S
C77 H54 0.950 . S
C77 C76 1.395 . S
C77 C78 1.288 . S
C78 C77 1.288 . S
C78 C79 1.392 . S
C79 H55 0.951 . S
C79 C78 1.392 . S
C79 C80 1.392 . S
C80 H56 0.949 . S
C80 C75 1.382 . S
C80 C79 1.392 . S
C81 C82 1.376 . S
C81 C86 1.386 . S
C81 C87 1.483 . S
C82 H57 0.949 1_455 S
C82 C81 1.376 . S
C82 C83 1.397 . S
C83 H58 0.950 . S
C83 C82 1.397 . S
C83 C84 1.391 . S
C84 C83 1.391 . S
C84 C85 1.405 . S
C85 H59 0.950 . S
C85 C84 1.405 . S
C85 C86 1.367 . S
C86 H60 0.950 . S
C86 C81 1.386 . S
C86 C85 1.367 . S
C87 C81 1.483 . S
C87 C88 1.382 1_455 S
C87 C89 1.403 . S
C88 H61 0.950 . S
C88 C74 1.411 . S
C88 C87 1.382 1_655 S
C89 C73 1.411 . S
C89 C87 1.403 . S
C89 C90 1.489 . S
C90 C89 1.489 . S
C90 C91 1.383 . S
C90 C95 1.382 . S
C91 H62 0.950 . S
C91 C90 1.383 . S
C91 C92 1.395 . S
C92 H63 0.950 . S
C92 C91 1.395 . S
C92 C93 1.288 . S
C93 C92 1.288 . S
C93 C94 1.392 . S
C94 H64 0.951 . S
C94 C93 1.392 . S
C94 C95 1.392 . S
C95 H65 0.949 . S
C95 C90 1.382 . S
C95 C94 1.392 . S
H96 C115 0.949 . S
H97 C116 0.950 . S
H98 C118 0.950 . S
H99 C119 0.950 . S
H100 C121 0.950 . S
H101 C124 0.950 . S
H102 C125 0.950 . S
H103 C127 0.951 . S
H104 C128 0.949 . S
H105 C130 0.949 . S
H106 C131 0.950 . S
H107 C133 0.950 . S
H108 C134 0.950 . S
H109 C136 0.950 . S
H110 C139 0.950 . S
H111 C140 0.950 . S
H112 C142 0.951 . S
H113 C143 0.949 . S
C114 C115 1.376 . S
C114 C119 1.386 . S
C114 C120 1.483 . S
C115 H96 0.949 . S
C115 C114 1.376 . S
C115 C116 1.397 . S
C116 H97 0.950 . S
C116 C115 1.397 . S
C116 C117 1.391 . S
C117 C116 1.391 . S
C117 C118 1.405 . S
C118 H98 0.950 . S
C118 C117 1.405 . S
C118 C119 1.367 . S
C119 H99 0.950 . S
C119 C114 1.386 . S
C119 C118 1.367 . S
C120 C114 1.483 . S
C120 C121 1.382 . S
C120 C122 1.403 . S
C121 H100 0.950 . S
C121 C120 1.382 . S
C121 C137 1.411 . S
C122 C120 1.403 . S
C122 C123 1.489 . S
C122 C136 1.411 . S
C123 C122 1.489 . S
C123 C124 1.383 . S
C123 C128 1.382 . S
C124 H101 0.950 . S
C124 C123 1.383 . S
C124 C125 1.395 . S
C125 H102 0.950 . S
C125 C124 1.395 . S
C125 C126 1.288 . S
C126 C125 1.288 . S
C126 C127 1.392 . S
C127 H103 0.951 . S
C127 C126 1.392 . S
C127 C128 1.392 . S
C128 H104 0.949 . S
C128 C123 1.382 . S
C128 C127 1.392 . S
C129 C130 1.376 . S
C129 C134 1.386 . S
C129 C135 1.483 . S
C130 H105 0.949 . S
C130 C129 1.376 . S
C130 C131 1.397 . S
C131 H106 0.950 . S
C131 C130 1.397 . S
C131 C132 1.391 . S
C132 C131 1.391 . S
C132 C133 1.405 . S
C133 H107 0.950 . S
C133 C132 1.405 . S
C133 C134 1.367 . S
C134 H108 0.950 . S
C134 C129 1.386 . S
C134 C133 1.367 . S
C135 C129 1.483 . S
C135 C136 1.382 . S
C135 C137 1.403 . S
C136 H109 0.950 . S
C136 C122 1.411 . S
C136 C135 1.382 . S
C137 C121 1.411 . S
C137 C135 1.403 . S
C137 C138 1.489 . S
C138 C137 1.489 . S
C138 C139 1.383 . S
C138 C143 1.382 . S
C139 H110 0.950 . S
C139 C138 1.383 . S
C139 C140 1.395 . S
C140 H111 0.950 . S
C140 C139 1.395 . S
C140 C141 1.288 . S
C141 C140 1.288 . S
C141 C142 1.392 . S
C142 H112 0.951 . S
C142 C141 1.392 . S
C142 C143 1.392 . S
C143 H113 0.949 . S
C143 C138 1.382 . S
C143 C142 1.392 . S
H144 C163 0.949 . S
H145 C164 0.950 . S
H146 C166 0.950 . S
H147 C167 0.950 . S
H148 C169 0.950 . S
H149 C172 0.950 . S
H150 C173 0.950 . S
H151 C175 0.951 . S
H152 C176 0.949 . S
H153 C178 0.949 . S
H154 C179 0.950 . S
H155 C181 0.950 . S
H156 C182 0.950 . S
H157 C184 0.950 . S
H158 C187 0.950 . S
H159 C188 0.950 . S
H160 C190 0.951 . S
H161 C191 0.949 . S
C162 C163 1.376 . S
C162 C167 1.386 . S
C162 C168 1.483 . S
C163 H144 0.949 . S
C163 C162 1.376 . S
C163 C164 1.397 . S
C164 H145 0.950 . S
C164 C163 1.397 . S
C164 C165 1.391 . S
C165 C164 1.391 . S
C165 C166 1.405 . S
C166 H146 0.950 . S
C166 C165 1.405 . S
C166 C167 1.367 . S
C167 H147 0.950 . S
C167 C162 1.386 . S
C167 C166 1.367 . S
C168 C162 1.483 . S
C168 C169 1.382 . S
C168 C170 1.403 . S
C169 H148 0.950 . S
C169 C168 1.382 . S
C169 C185 1.411 1_565 S
C170 C168 1.403 . S
C170 C171 1.489 . S
C170 C184 1.411 1_565 S
C171 C170 1.489 . S
C171 C172 1.383 . S
C171 C176 1.382 . S
C172 H149 0.950 . S
C172 C171 1.383 . S
C172 C173 1.395 . S
C173 H150 0.950 . S
C173 C172 1.395 . S
C173 C174 1.288 . S
C174 C173 1.288 . S
C174 C175 1.392 . S
C175 H151 0.951 . S
C175 C174 1.392 . S
C175 C176 1.392 . S
C176 H152 0.949 . S
C176 C171 1.382 . S
C176 C175 1.392 . S
C177 C178 1.376 . S
C177 C182 1.386 . S
C177 C183 1.483 . S
C178 H153 0.949 . S
C178 C177 1.376 . S
C178 C179 1.397 . S
C179 H154 0.950 . S
C179 C178 1.397 . S
C179 C180 1.391 . S
C180 C179 1.391 . S
C180 C181 1.405 . S
C181 H155 0.950 . S
C181 C180 1.405 . S
C181 C182 1.367 . S
C182 H156 0.950 . S
C182 C177 1.386 . S
C182 C181 1.367 . S
C183 C177 1.483 . S
C183 C184 1.382 . S
C183 C185 1.403 . S
C184 H157 0.950 . S
C184 C170 1.411 1_545 S
C184 C183 1.382 . S
C185 C169 1.411 1_545 S
C185 C183 1.403 . S
C185 C186 1.489 . S
C186 C185 1.489 . S
C186 C187 1.383 . S
C186 C191 1.382 . S
C187 H158 0.950 . S
C187 C186 1.383 . S
C187 C188 1.395 . S
C188 H159 0.950 . S
C188 C187 1.395 . S
C188 C189 1.288 . S
C189 C188 1.288 . S
C189 C190 1.392 . S
C190 H160 0.951 . S
C190 C189 1.392 . S
C190 C191 1.392 . S
C191 H161 0.949 . S
C191 C186 1.382 . S
C191 C190 1.392 . S
H192 C211 0.949 . S
H193 C212 0.950 . S
H194 C214 0.950 . S
H195 C215 0.950 . S
H196 C217 0.950 . S
H197 C220 0.950 . S
H198 C221 0.950 . S
H199 C223 0.951 . S
H200 C224 0.949 . S
H201 C226 0.949 . S
H202 C227 0.950 . S
H203 C229 0.950 . S
H204 C230 0.950 . S
H205 C232 0.950 . S
H206 C235 0.950 . S
H207 C236 0.950 . S
H208 C238 0.951 . S
H209 C239 0.949 . S
C210 C211 1.376 . S
C210 C215 1.386 . S
C210 C216 1.483 . S
C211 H192 0.949 . S
C211 C210 1.376 . S
C211 C212 1.397 . S
C212 H193 0.950 . S
C212 C211 1.397 . S
C212 C213 1.391 . S
C213 C212 1.391 . S
C213 C214 1.405 . S
C214 H194 0.950 . S
C214 C213 1.405 . S
C214 C215 1.367 . S
C215 H195 0.950 . S
C215 C210 1.386 . S
C215 C214 1.367 . S
C216 C210 1.483 . S
C216 C217 1.382 1_455 S
C216 C218 1.403 . S
C217 H196 0.950 . S
C217 C216 1.382 1_655 S
C217 C233 1.411 . S
C218 C216 1.403 . S
C218 C219 1.489 . S
C218 C232 1.411 . S
C219 C218 1.489 . S
C219 C220 1.383 . S
C219 C224 1.382 . S
C220 H197 0.950 . S
C220 C219 1.383 . S
C220 C221 1.395 . S
C221 H198 0.950 . S
C221 C220 1.395 . S
C221 C222 1.288 . S
C222 C221 1.288 . S
C222 C223 1.392 . S
C223 H199 0.951 . S
C223 C222 1.392 . S
C223 C224 1.392 . S
C224 H200 0.949 . S
C224 C219 1.382 . S
C224 C223 1.392 . S
C225 C226 1.376 . S
C225 C230 1.386 . S
C225 C231 1.483 . S
C226 H201 0.949 . S
C226 C225 1.376 . S
C226 C227 1.397 . S
C227 H202 0.950 . S
C227 C226 1.397 . S
C227 C228 1.391 . S
C228 C227 1.391 . S
C228 C229 1.405 . S
C229 H203 0.950 . S
C229 C228 1.405 . S
C229 C230 1.367 . S
C230 H204 0.950 . S
C230 C225 1.386 . S
C230 C229 1.367 . S
C231 C225 1.483 . S
C231 C232 1.382 1_655 S
C231 C233 1.403 . S
C232 H205 0.950 . S
C232 C218 1.411 . S
C232 C231 1.382 1_455 S
C233 C217 1.411 . S
C233 C231 1.403 . S
C233 C234 1.489 . S
C234 C233 1.489 . S
C234 C235 1.383 . S
C234 C239 1.382 . S
C235 H206 0.950 . S
C235 C234 1.383 . S
C235 C236 1.395 . S
C236 H207 0.950 . S
C236 C235 1.395 . S
C236 C237 1.288 . S
C237 C236 1.288 . S
C237 C238 1.392 . S
C238 H208 0.951 . S
C238 C237 1.392 . S
C238 C239 1.392 . S
C239 H209 0.949 . S
C239 C234 1.382 . S
C239 C238 1.392 . S
H240 C259 0.949 . S
H241 C260 0.950 . S
H242 C262 0.950 . S
H243 C263 0.950 . S
H244 C265 0.950 . S
H245 C268 0.950 . S
H246 C269 0.950 . S
H247 C271 0.951 . S
H248 C272 0.949 . S
H249 C274 0.949 . S
H250 C275 0.950 . S
H251 C277 0.950 . S
H252 C278 0.950 . S
H253 C280 0.950 . S
H254 C283 0.950 . S
H255 C284 0.950 . S
H256 C286 0.951 . S
H257 C287 0.949 . S
C258 C259 1.376 . S
C258 C263 1.386 . S
C258 C264 1.483 . S
C259 H240 0.949 . S
C259 C258 1.376 . S
C259 C260 1.397 . S
C260 H241 0.950 . S
C260 C259 1.397 . S
C260 C261 1.391 . S
C261 C260 1.391 . S
C261 C262 1.405 . S
C262 H242 0.950 . S
C262 C261 1.405 . S
C262 C263 1.367 . S
C263 H243 0.950 . S
C263 C258 1.386 . S
C263 C262 1.367 . S
C264 C258 1.483 . S
C264 C265 1.382 . S
C264 C266 1.403 . S
C265 H244 0.950 . S
C265 C264 1.382 . S
C265 C281 1.411 . S
C266 C264 1.403 . S
C266 C267 1.489 . S
C266 C280 1.411 . S
C267 C266 1.489 . S
C267 C268 1.383 . S
C267 C272 1.382 . S
C268 H245 0.950 . S
C268 C267 1.383 . S
C268 C269 1.395 . S
C269 H246 0.950 . S
C269 C268 1.395 . S
C269 C270 1.288 . S
C270 C269 1.288 . S
C270 C271 1.392 . S
C271 H247 0.951 . S
C271 C270 1.392 . S
C271 C272 1.392 . S
C272 H248 0.949 . S
C272 C267 1.382 . S
C272 C271 1.392 . S
C273 C274 1.376 . S
C273 C278 1.386 . S
C273 C279 1.483 . S
C274 H249 0.949 . S
C274 C273 1.376 . S
C274 C275 1.397 . S
C275 H250 0.950 . S
C275 C274 1.397 . S
C275 C276 1.391 . S
C276 C275 1.391 . S
C276 C277 1.405 . S
C277 H251 0.950 . S
C277 C276 1.405 . S
C277 C278 1.367 . S
C278 H252 0.950 . S
C278 C273 1.386 . S
C278 C277 1.367 . S
C279 C273 1.483 . S
C279 C280 1.382 . S
C279 C281 1.403 . S
C280 H253 0.950 . S
C280 C266 1.411 . S
C280 C279 1.382 . S
C281 C265 1.411 . S
C281 C279 1.403 . S
C281 C282 1.489 . S
C282 C281 1.489 . S
C282 C283 1.383 . S
C282 C287 1.382 . S
C283 H254 0.950 . S
C283 C282 1.383 . S
C283 C284 1.395 . S
C284 H255 0.950 . S
C284 C283 1.395 . S
C284 C285 1.288 . S
C285 C284 1.288 . S
C285 C286 1.392 . S
C286 H256 0.951 . S
C286 C285 1.392 . S
C286 C287 1.392 . S
C287 H257 0.949 . S
C287 C282 1.382 . S
C287 C286 1.392 . S
H288 C307 0.949 . S
H289 C308 0.950 . S
H290 C310 0.950 . S
H291 C311 0.950 . S
H292 C313 0.950 . S
H293 C316 0.950 . S
H294 C317 0.950 . S
H295 C319 0.951 . S
H296 C320 0.949 1_545 S
H297 C322 0.949 . S
H298 C323 0.950 . S
H299 C325 0.950 . S
H300 C326 0.950 . S
H301 C328 0.950 . S
H302 C331 0.950 . S
H303 C332 0.950 . S
H304 C334 0.951 . S
H305 C335 0.949 1_565 S
C306 C307 1.376 . S
C306 C311 1.386 . S
C306 C312 1.483 . S
C307 H288 0.949 . S
C307 C306 1.376 . S
C307 C308 1.397 . S
C308 H289 0.950 . S
C308 C307 1.397 . S
C308 C309 1.391 . S
C309 C308 1.391 . S
C309 C310 1.405 . S
C310 H290 0.950 . S
C310 C309 1.405 . S
C310 C311 1.367 . S
C311 H291 0.950 . S
C311 C306 1.386 . S
C311 C310 1.367 . S
C312 C306 1.483 . S
C312 C313 1.382 . S
C312 C314 1.403 . S
C313 H292 0.950 . S
C313 C312 1.382 . S
C313 C329 1.411 1_565 S
C314 C312 1.403 . S
C314 C315 1.489 . S
C314 C328 1.411 1_565 S
C315 C314 1.489 . S
C315 C316 1.383 . S
C315 C320 1.382 . S
C316 H293 0.950 . S
C316 C315 1.383 . S
C316 C317 1.395 . S
C317 H294 0.950 . S
C317 C316 1.395 . S
C317 C318 1.288 . S
C318 C317 1.288 . S
C318 C319 1.392 . S
C319 H295 0.951 . S
C319 C318 1.392 . S
C319 C320 1.392 . S
C320 H296 0.949 1_565 S
C320 C315 1.382 . S
C320 C319 1.392 . S
C321 C322 1.376 . S
C321 C326 1.386 . S
C321 C327 1.483 . S
C322 H297 0.949 . S
C322 C321 1.376 . S
C322 C323 1.397 . S
C323 H298 0.950 . S
C323 C322 1.397 . S
C323 C324 1.391 . S
C324 C323 1.391 . S
C324 C325 1.405 . S
C325 H299 0.950 . S
C325 C324 1.405 . S
C325 C326 1.367 . S
C326 H300 0.950 . S
C326 C321 1.386 . S
C326 C325 1.367 . S
C327 C321 1.483 . S
C327 C328 1.382 . S
C327 C329 1.403 . S
C328 H301 0.950 . S
C328 C314 1.411 1_545 S
C328 C327 1.382 . S
C329 C313 1.411 1_545 S
C329 C327 1.403 . S
C329 C330 1.489 . S
C330 C329 1.489 . S
C330 C331 1.383 . S
C330 C335 1.382 . S
C331 H302 0.950 . S
C331 C330 1.383 . S
C331 C332 1.395 . S
C332 H303 0.950 . S
C332 C331 1.395 . S
C332 C333 1.288 . S
C333 C332 1.288 . S
C333 C334 1.392 . S
C334 H304 0.951 . S
C334 C333 1.392 . S
C334 C335 1.392 . S
C335 H305 0.949 1_545 S
C335 C330 1.382 . S
C335 C334 1.392 . S
H336 C355 0.949 1_455 S
H337 C356 0.950 . S
H338 C358 0.950 . S
H339 C359 0.950 . S
H340 C361 0.950 . S
H341 C364 0.950 . S
H342 C365 0.950 . S
H343 C367 0.951 . S
H344 C368 0.949 . S
H345 C370 0.949 1_655 S
H346 C371 0.950 . S
H347 C373 0.950 . S
H348 C374 0.950 . S
H349 C376 0.950 . S
H350 C379 0.950 . S
H351 C380 0.950 . S
H352 C382 0.951 . S
H353 C383 0.949 . S
C354 C355 1.376 . S
C354 C359 1.386 . S
C354 C360 1.483 . S
C355 H336 0.949 1_655 S
C355 C354 1.376 . S
C355 C356 1.397 . S
C356 H337 0.950 . S
C356 C355 1.397 . S
C356 C357 1.391 . S
C357 C356 1.391 . S
C357 C358 1.405 . S
C358 H338 0.950 . S
C358 C357 1.405 . S
C358 C359 1.367 . S
C359 H339 0.950 . S
C359 C354 1.386 . S
C359 C358 1.367 . S
C360 C354 1.483 . S
C360 C361 1.382 1_655 S
C360 C362 1.403 . S
C361 H340 0.950 . S
C361 C360 1.382 1_455 S
C361 C377 1.411 1_545 S
C362 C360 1.403 . S
C362 C363 1.489 . S
C362 C376 1.411 1_545 S
C363 C362 1.489 . S
C363 C364 1.383 . S
C363 C368 1.382 . S
C364 H341 0.950 . S
C364 C363 1.383 . S
C364 C365 1.395 . S
C365 H342 0.950 . S
C365 C364 1.395 . S
C365 C366 1.288 . S
C366 C365 1.288 . S
C366 C367 1.392 . S
C367 H343 0.951 . S
C367 C366 1.392 . S
C367 C368 1.392 . S
C368 H344 0.949 . S
C368 C363 1.382 . S
C368 C367 1.392 . S
C369 C370 1.376 . S
C369 C374 1.386 . S
C369 C375 1.483 . S
C370 H345 0.949 1_455 S
C370 C369 1.376 . S
C370 C371 1.397 . S
C371 H346 0.950 . S
C371 C370 1.397 . S
C371 C372 1.391 . S
C372 C371 1.391 . S
C372 C373 1.405 . S
C373 H347 0.950 . S
C373 C372 1.405 . S
C373 C374 1.367 . S
C374 H348 0.950 . S
C374 C369 1.386 . S
C374 C373 1.367 . S
C375 C369 1.483 . S
C375 C376 1.382 1_455 S
C375 C377 1.403 . S
C376 H349 0.950 . S
C376 C362 1.411 1_565 S
C376 C375 1.382 1_655 S
C377 C361 1.411 1_565 S
C377 C375 1.403 . S
C377 C378 1.489 . S
C378 C377 1.489 . S
C378 C379 1.383 . S
C378 C383 1.382 . S
C379 H350 0.950 . S
C379 C378 1.383 . S
C379 C380 1.395 . S
C380 H351 0.950 . S
C380 C379 1.395 . S
C380 C381 1.288 . S
C381 C380 1.288 . S
C381 C382 1.392 . S
C382 H352 0.951 . S
C382 C381 1.392 . S
C382 C383 1.392 . S
C383 H353 0.949 . S
C383 C378 1.382 . S
C383 C382 1.392 . S
C384 O385 1.162 . S
C384 O391 1.184 1_554 S
O385 C384 1.162 . S
O386 Zn387 1.899 . S
O386 C394 1.284 . S
Zn387 O386 1.899 . S
Zn387 O388 2.032 1_554 S
Zn387 O391 2.086 1_554 S
Zn387 O396 1.977 . S
O388 Zn387 2.032 1_556 S
O388 C392 1.278 . S
C389 O390 1.203 . S
C389 O396 1.267 . S
O390 C389 1.203 . S
O391 C384 1.184 1_556 S
O391 Zn387 2.086 1_556 S
C392 O388 1.278 . S
C392 O393 1.211 . S
O393 C392 1.211 . S
C394 O386 1.284 . S
C394 O395 1.273 . S
O395 C394 1.273 . S
O396 Zn387 1.977 . S
O396 C389 1.267 . S
C397 O398 1.160 . S
C397 O404 1.185 . S
O398 C397 1.160 . S
O399 Zn400 1.899 . S
O399 C407 1.284 . S
Zn400 O399 1.899 . S
Zn400 O401 2.032 . S
Zn400 O404 2.086 . S
Zn400 O409 1.977 . S
O401 Zn400 2.032 . S
O401 C405 1.278 . S
C402 O403 1.203 . S
C402 O409 1.267 . S
O403 C402 1.203 . S
O404 C397 1.185 . S
O404 Zn400 2.086 . S
C405 O401 1.278 . S
C405 O406 1.211 . S
O406 C405 1.211 . S
C407 O399 1.284 . S
C407 O408 1.273 . S
O408 C407 1.273 . S
O409 Zn400 1.977 . S
O409 C402 1.267 . S
C410 O411 1.160 . S
C410 O417 1.185 . S
O411 C410 1.160 . S
O412 Zn413 1.899 . S
O412 C420 1.284 . S
Zn413 O412 1.899 . S
Zn413 O414 2.032 . S
Zn413 O417 2.086 . S
Zn413 O422 1.977 . S
O414 Zn413 2.032 . S
O414 C418 1.278 . S
C415 O416 1.203 . S
C415 O422 1.267 . S
O416 C415 1.203 . S
O417 C410 1.185 . S
O417 Zn413 2.086 . S
C418 O414 1.278 . S
C418 O419 1.211 . S
O419 C418 1.211 . S
C420 O412 1.284 . S
C420 O421 1.273 . S
O421 C420 1.273 . S
O422 Zn413 1.977 . S
O422 C415 1.267 . S
C423 O424 1.160 . S
C423 O430 1.185 . S
O424 C423 1.160 . S
O425 Zn426 1.899 . S
O425 C433 1.284 . S
Zn426 O425 1.899 . S
Zn426 O427 2.032 . S
Zn426 O430 2.086 . S
Zn426 O435 1.977 . S
O427 Zn426 2.032 . S
O427 C431 1.278 . S
C428 O429 1.203 . S
C428 O435 1.267 . S
O429 C428 1.203 . S
O430 C423 1.185 . S
O430 Zn426 2.086 . S
C431 O427 1.278 . S
C431 O432 1.211 . S
O432 C431 1.211 . S
C433 O425 1.284 . S
C433 O434 1.273 . S
O434 C433 1.273 . S
O435 Zn426 1.977 . S
O435 C428 1.267 . S
C436 O437 1.160 . S
C436 O443 1.185 . S
O437 C436 1.160 . S
O438 Zn439 1.899 . S
O438 C446 1.284 . S
Zn439 O438 1.899 . S
Zn439 O440 2.032 . S
Zn439 O443 2.086 . S
Zn439 O448 1.977 . S
O440 Zn439 2.032 . S
O440 C444 1.278 . S
C441 O442 1.203 . S
C441 O448 1.267 . S
O442 C441 1.203 . S
O443 C436 1.185 . S
O443 Zn439 2.086 . S
C444 O440 1.278 . S
C444 O445 1.211 . S
O445 C444 1.211 . S
C446 O438 1.284 . S
C446 O447 1.273 . S
O447 C446 1.273 . S
O448 Zn439 1.977 . S
O448 C441 1.267 . S
C449 O450 1.160 . S
C449 O456 1.185 . S
O450 C449 1.160 . S
O451 Zn452 1.899 . S
O451 C459 1.284 . S
Zn452 O451 1.899 . S
Zn452 O453 2.032 . S
Zn452 O456 2.086 . S
Zn452 O461 1.977 . S
O453 Zn452 2.032 . S
O453 C457 1.278 . S
C454 O455 1.203 . S
C454 O461 1.267 . S
O455 C454 1.203 . S
O456 C449 1.185 . S
O456 Zn452 2.086 . S
C457 O453 1.278 . S
C457 O458 1.211 . S
O458 C457 1.211 . S
C459 O451 1.284 . S
C459 O460 1.273 . S
O460 C459 1.273 . S
O461 Zn452 1.977 . S
O461 C454 1.267 . S
C462 O463 1.163 . S
C462 O469 1.184 1_554 S
O463 C462 1.163 . S
O464 Zn465 1.899 . S
O464 C472 1.284 . S
Zn465 O464 1.899 . S
Zn465 O466 2.032 1_554 S
Zn465 O469 2.086 1_554 S
Zn465 O474 1.977 . S
O466 Zn465 2.032 1_556 S
O466 C470 1.278 . S
C467 O468 1.203 . S
C467 O474 1.267 . S
O468 C467 1.203 . S
O469 C462 1.184 1_556 S
O469 Zn465 2.086 1_556 S
C470 O466 1.278 . S
C470 O471 1.211 . S
O471 C470 1.211 . S
C472 O464 1.284 . S
C472 O473 1.273 . S
O473 C472 1.273 . S
O474 Zn465 1.977 . S
O474 C467 1.267 . S
C475 O476 1.160 . S
C475 O482 1.185 . S
O476 C475 1.160 . S
O477 Zn478 1.899 . S
O477 C485 1.284 . S
Zn478 O477 1.899 . S
Zn478 O479 2.032 . S
Zn478 O482 2.086 . S
Zn478 O487 1.977 . S
O479 Zn478 2.032 . S
O479 C483 1.278 . S
C480 O481 1.203 . S
C480 O487 1.267 . S
O481 C480 1.203 . S
O482 C475 1.185 . S
O482 Zn478 2.086 . S
C483 O479 1.278 . S
C483 O484 1.211 . S
O484 C483 1.211 . S
C485 O477 1.284 . S
C485 O486 1.273 . S
O486 C485 1.273 . S
O487 Zn478 1.977 . S
O487 C480 1.267 . S
C488 C489 1.349 . S
C488 C490 1.327 . S
C488 H513 0.950 . S
C489 C488 1.349 . S
C489 C505 1.349 . S
C490 C488 1.327 . S
C490 C509 1.429 . S
C490 H514 0.950 . S
C491 C508 1.574 . S
C491 C510 1.368 . S
C491 H515 0.949 . S
H492 C496 0.949 . S
C493 C494 1.349 . S
C493 C495 1.327 . S
C493 H516 0.950 . S
C494 C493 1.349 . S
C494 C506 1.349 . S
C495 C493 1.327 . S
C495 C511 1.429 . S
C495 H517 0.950 . S
C496 H492 0.949 . S
C496 C504 1.574 . S
C496 C512 1.368 . S
H497 C505 0.950 . S
H498 C503 0.950 . S
H499 C504 0.949 . S
H500 C506 0.950 . S
H501 C507 0.950 . S
H502 C508 0.949 . S
C503 H498 0.950 . S
C503 C505 1.327 . S
C503 C509 1.429 . S
C504 C496 1.574 . S
C504 H499 0.949 . S
C504 C510 1.368 . S
C505 C489 1.349 . S
C505 H497 0.950 . S
C505 C503 1.327 . S
C506 C494 1.349 . S
C506 H500 0.950 . S
C506 C507 1.327 . S
C507 H501 0.950 . S
C507 C506 1.327 . S
C507 C511 1.429 . S
C508 C491 1.574 . S
C508 H502 0.949 . S
C508 C512 1.368 . S
C509 C490 1.429 . S
C509 C503 1.429 . S
C509 C510 1.523 . S
C510 C491 1.368 . S
C510 C504 1.368 . S
C510 C509 1.523 . S
C511 C495 1.429 . S
C511 C507 1.429 . S
C511 C512 1.523 . S
C512 C496 1.368 . S
C512 C508 1.368 . S
C512 C511 1.523 . S
H513 C488 0.950 . S
H514 C490 0.950 . S
H515 C491 0.949 . S
H516 C493 0.950 . S
H517 C495 0.950 . S
C518 C519 1.349 . S
C518 C520 1.327 . S
C518 H543 0.950 . S
C519 C518 1.349 . S
C519 C535 1.349 . S
C520 C518 1.327 . S
C520 C539 1.429 . S
C520 H544 0.950 . S
C521 C538 1.574 . S
C521 C540 1.368 . S
C521 H545 0.949 . S
H522 C526 0.949 . S
C523 C524 1.349 . S
C523 C525 1.327 . S
C523 H546 0.950 . S
C524 C523 1.349 . S
C524 C536 1.349 . S
C525 C523 1.327 . S
C525 C541 1.429 . S
C525 H547 0.950 . S
C526 H522 0.949 . S
C526 C534 1.574 . S
C526 C542 1.368 . S
H527 C535 0.950 . S
H528 C533 0.950 . S
H529 C534 0.949 . S
H530 C536 0.950 . S
H531 C537 0.950 . S
H532 C538 0.949 . S
C533 H528 0.950 . S
C533 C535 1.327 . S
C533 C539 1.429 . S
C534 C526 1.574 . S
C534 H529 0.949 . S
C534 C540 1.368 . S
C535 C519 1.349 . S
C535 H527 0.950 . S
C535 C533 1.327 . S
C536 C524 1.349 . S
C536 H530 0.950 . S
C536 C537 1.327 . S
C537 H531 0.950 . S
C537 C536 1.327 . S
C537 C541 1.429 . S
C538 C521 1.574 . S
C538 H532 0.949 . S
C538 C542 1.368 . S
C539 C520 1.429 . S
C539 C533 1.429 . S
C539 C540 1.523 . S
C540 C521 1.368 . S
C540 C534 1.368 . S
C540 C539 1.523 . S
C541 C525 1.429 . S
C541 C537 1.429 . S
C541 C542 1.523 . S
C542 C526 1.368 . S
C542 C538 1.368 . S
C542 C541 1.523 . S
H543 C518 0.950 . S
H544 C520 0.950 . S
H545 C521 0.949 . S
H546 C523 0.950 . S
H547 C525 0.950 . S
C548 C549 1.349 . S
C548 C550 1.327 . S
C548 H573 0.950 . S
C549 C548 1.349 . S
C549 C565 1.349 . S
C550 C548 1.327 . S
C550 C569 1.429 . S
C550 H574 0.950 . S
C551 C568 1.574 . S
C551 C570 1.368 . S
C551 H575 0.949 . S
H552 C556 0.949 . S
C553 C554 1.349 . S
C553 C555 1.327 . S
C553 H576 0.950 . S
C554 C553 1.349 . S
C554 C566 1.349 . S
C555 C553 1.327 . S
C555 C571 1.429 . S
C555 H577 0.950 . S
C556 H552 0.949 . S
C556 C564 1.574 . S
C556 C572 1.368 . S
H557 C565 0.950 . S
H558 C563 0.950 . S
H559 C564 0.949 . S
H560 C566 0.950 . S
H561 C567 0.950 . S
H562 C568 0.949 . S
C563 H558 0.950 . S
C563 C565 1.327 . S
C563 C569 1.429 . S
C564 C556 1.574 . S
C564 H559 0.949 . S
C564 C570 1.368 . S
C565 C549 1.349 . S
C565 H557 0.950 . S
C565 C563 1.327 . S
C566 C554 1.349 . S
C566 H560 0.950 . S
C566 C567 1.327 . S
C567 H561 0.950 . S
C567 C566 1.327 . S
C567 C571 1.429 . S
C568 C551 1.574 . S
C568 H562 0.949 . S
C568 C572 1.368 . S
C569 C550 1.429 . S
C569 C563 1.429 . S
C569 C570 1.523 . S
C570 C551 1.368 . S
C570 C564 1.368 . S
C570 C569 1.523 . S
C571 C555 1.429 . S
C571 C567 1.429 . S
C571 C572 1.523 . S
C572 C556 1.368 . S
C572 C568 1.368 . S
C572 C571 1.523 . S
H573 C548 0.950 . S
H574 C550 0.950 . S
H575 C551 0.949 . S
H576 C553 0.950 . S
H577 C555 0.950 . S
C578 C579 1.349 . S
C578 C580 1.327 . S
C578 H603 0.950 . S
C579 C578 1.349 . S
C579 C595 1.349 . S
C580 C578 1.327 . S
C580 C599 1.429 . S
C580 H604 0.950 . S
C581 C598 1.574 . S
C581 C600 1.368 . S
C581 H605 0.949 . S
H582 C586 0.949 . S
C583 C584 1.349 . S
C583 C585 1.327 . S
C583 H606 0.950 . S
C584 C583 1.349 . S
C584 C596 1.349 . S
C585 C583 1.327 . S
C585 C601 1.429 . S
C585 H607 0.950 . S
C586 H582 0.949 . S
C586 C594 1.574 . S
C586 C602 1.368 . S
H587 C595 0.950 . S
H588 C593 0.950 . S
H589 C594 0.949 . S
H590 C596 0.950 . S
H591 C597 0.950 . S
H592 C598 0.949 . S
C593 H588 0.950 . S
C593 C595 1.327 . S
C593 C599 1.429 . S
C594 C586 1.574 . S
C594 H589 0.949 . S
C594 C600 1.368 . S
C595 C579 1.349 . S
C595 H587 0.950 . S
C595 C593 1.327 . S
C596 C584 1.349 . S
C596 H590 0.950 . S
C596 C597 1.327 . S
C597 H591 0.950 . S
C597 C596 1.327 . S
C597 C601 1.429 . S
C598 C581 1.574 . S
C598 H592 0.949 . S
C598 C602 1.368 . S
C599 C580 1.429 . S
C599 C593 1.429 . S
C599 C600 1.523 . S
C600 C581 1.368 . S
C600 C594 1.368 . S
C600 C599 1.523 . S
C601 C585 1.429 . S
C601 C597 1.429 . S
C601 C602 1.523 . S
C602 C586 1.368 . S
C602 C598 1.368 . S
C602 C601 1.523 . S
H603 C578 0.950 . S
H604 C580 0.950 . S
H605 C581 0.949 . S
H606 C583 0.950 . S
H607 C585 0.950 . S
C608 C609 1.349 . S
C608 C610 1.327 . S
C608 H633 0.950 . S
C609 C608 1.349 . S
C609 C625 1.349 . S
C610 C608 1.327 . S
C610 C629 1.429 . S
C610 H634 0.950 . S
C611 C628 1.574 . S
C611 C630 1.368 . S
C611 H635 0.949 . S
H612 C616 0.949 . S
C613 C614 1.349 1_554 S
C613 C615 1.327 . S
C613 H636 0.950 . S
C614 C613 1.349 1_556 S
C614 C626 1.349 . S
C615 C613 1.327 . S
C615 C631 1.429 1_554 S
C615 H637 0.950 . S
C616 H612 0.949 . S
C616 C624 1.574 . S
C616 C632 1.368 . S
H617 C625 0.950 . S
H618 C623 0.950 . S
H619 C624 0.949 . S
H620 C626 0.950 . S
H621 C627 0.950 . S
H622 C628 0.949 1_554 S
C623 H618 0.950 . S
C623 C625 1.327 . S
C623 C629 1.429 . S
C624 C616 1.574 . S
C624 H619 0.949 . S
C624 C630 1.368 . S
C625 C609 1.349 . S
C625 H617 0.950 . S
C625 C623 1.327 . S
C626 C614 1.349 . S
C626 H620 0.950 . S
C626 C627 1.327 . S
C627 H621 0.950 . S
C627 C626 1.327 . S
C627 C631 1.429 . S
C628 C611 1.574 . S
C628 H622 0.949 1_556 S
C628 C632 1.368 . S
C629 C610 1.429 . S
C629 C623 1.429 . S
C629 C630 1.523 . S
C630 C611 1.368 . S
C630 C624 1.368 . S
C630 C629 1.523 . S
C631 C615 1.429 1_556 S
C631 C627 1.429 . S
C631 C632 1.523 . S
C632 C616 1.368 . S
C632 C628 1.368 . S
C632 C631 1.523 . S
H633 C608 0.950 . S
H634 C610 0.950 . S
H635 C611 0.949 . S
H636 C613 0.950 . S
H637 C615 0.950 . S
C638 C639 1.349 . S
C638 C640 1.327 . S
C638 H663 0.950 . S
C639 C638 1.349 . S
C639 C655 1.349 . S
C640 C638 1.327 . S
C640 C659 1.429 . S
C640 H664 0.950 . S
C641 C658 1.574 . S
C641 C660 1.368 . S
C641 H665 0.949 . S
H642 C646 0.949 . S
C643 C644 1.349 . S
C643 C645 1.327 . S
C643 H666 0.950 . S
C644 C643 1.349 . S
C644 C656 1.349 . S
C645 C643 1.327 . S
C645 C661 1.429 . S
C645 H667 0.950 . S
C646 H642 0.949 . S
C646 C654 1.574 . S
C646 C662 1.368 . S
H647 C655 0.950 . S
H648 C653 0.950 . S
H649 C654 0.949 . S
H650 C656 0.950 . S
H651 C657 0.950 . S
H652 C658 0.949 . S
C653 H648 0.950 . S
C653 C655 1.327 . S
C653 C659 1.429 . S
C654 C646 1.574 . S
C654 H649 0.949 . S
C654 C660 1.368 . S
C655 C639 1.349 . S
C655 H647 0.950 . S
C655 C653 1.327 . S
C656 C644 1.349 . S
C656 H650 0.950 . S
C656 C657 1.327 . S
C657 H651 0.950 . S
C657 C656 1.327 . S
C657 C661 1.429 . S
C658 C641 1.574 . S
C658 H652 0.949 . S
C658 C662 1.368 . S
C659 C640 1.429 . S
C659 C653 1.429 . S
C659 C660 1.523 . S
C660 C641 1.368 . S
C660 C654 1.368 . S
C660 C659 1.523 . S
C661 C645 1.429 . S
C661 C657 1.429 . S
C661 C662 1.523 . S
C662 C646 1.368 . S
C662 C658 1.368 . S
C662 C661 1.523 . S
H663 C638 0.950 . S
H664 C640 0.950 . S
H665 C641 0.949 . S
H666 C643 0.950 . S
H667 C645 0.950 . S
C668 C669 1.349 . S
C668 C670 1.327 . S
C668 H693 0.950 . S
C669 C668 1.349 . S
C669 C685 1.349 . S
C670 C668 1.327 . S
C670 C689 1.429 . S
C670 H694 0.950 . S
C671 C688 1.574 . S
C671 C690 1.368 . S
C671 H695 0.949 . S
H672 C676 0.949 . S
C673 C674 1.349 . S
C673 C675 1.327 . S
C673 H696 0.950 . S
C674 C673 1.349 . S
C674 C686 1.349 . S
C675 C673 1.327 . S
C675 C691 1.429 . S
C675 H697 0.950 . S
C676 H672 0.949 . S
C676 C684 1.574 . S
C676 C692 1.368 . S
H677 C685 0.950 . S
H678 C683 0.950 . S
H679 C684 0.949 . S
H680 C686 0.950 . S
H681 C687 0.950 . S
H682 C688 0.949 . S
C683 H678 0.950 . S
C683 C685 1.327 . S
C683 C689 1.429 . S
C684 C676 1.574 . S
C684 H679 0.949 . S
C684 C690 1.368 . S
C685 C669 1.349 . S
C685 H677 0.950 . S
C685 C683 1.327 . S
C686 C674 1.349 . S
C686 H680 0.950 . S
C686 C687 1.327 . S
C687 H681 0.950 . S
C687 C686 1.327 . S
C687 C691 1.429 . S
C688 C671 1.574 . S
C688 H682 0.949 . S
C688 C692 1.368 . S
C689 C670 1.429 . S
C689 C683 1.429 . S
C689 C690 1.523 . S
C690 C671 1.368 . S
C690 C684 1.368 . S
C690 C689 1.523 . S
C691 C675 1.429 . S
C691 C687 1.429 . S
C691 C692 1.523 . S
C692 C676 1.368 . S
C692 C688 1.368 . S
C692 C691 1.523 . S
H693 C668 0.950 . S
H694 C670 0.950 . S
H695 C671 0.949 . S
H696 C673 0.950 . S
H697 C675 0.950 . S
C698 C699 1.349 . S
C698 C700 1.327 . S
C698 H723 0.950 . S
C699 C698 1.349 . S
C699 C715 1.349 . S
C700 C698 1.327 . S
C700 C719 1.429 . S
C700 H724 0.950 . S
C701 C718 1.574 . S
C701 C720 1.368 . S
C701 H725 0.949 . S
H702 C706 0.949 . S
C703 C704 1.349 . S
C703 C705 1.327 . S
C703 H726 0.950 . S
C704 C703 1.349 . S
C704 C716 1.349 . S
C705 C703 1.327 . S
C705 C721 1.429 . S
C705 H727 0.950 . S
C706 H702 0.949 . S
C706 C714 1.574 . S
C706 C722 1.368 . S
H707 C715 0.950 . S
H708 C713 0.950 . S
H709 C714 0.949 . S
H710 C716 0.950 . S
H711 C717 0.950 . S
H712 C718 0.949 . S
C713 H708 0.950 . S
C713 C715 1.327 . S
C713 C719 1.429 . S
C714 C706 1.574 . S
C714 H709 0.949 . S
C714 C720 1.368 . S
C715 C699 1.349 . S
C715 H707 0.950 . S
C715 C713 1.327 . S
C716 C704 1.349 . S
C716 H710 0.950 . S
C716 C717 1.327 . S
C717 H711 0.950 . S
C717 C716 1.327 . S
C717 C721 1.429 . S
C718 C701 1.574 . S
C718 H712 0.949 . S
C718 C722 1.368 . S
C719 C700 1.429 . S
C719 C713 1.429 . S
C719 C720 1.523 . S
C720 C701 1.368 . S
C720 C714 1.368 . S
C720 C719 1.523 . S
C721 C705 1.429 . S
C721 C717 1.429 . S
C721 C722 1.523 . S
C722 C706 1.368 . S
C722 C718 1.368 . S
C722 C721 1.523 . S
H723 C698 0.950 . S
H724 C700 0.950 . S
H725 C701 0.949 . S
H726 C703 0.950 . S
H727 C705 0.950 . S
C728 C729 1.349 . S
C728 C730 1.327 . S
C728 H753 0.950 . S
C729 C728 1.349 . S
C729 C745 1.349 . S
C730 C728 1.327 . S
C730 C749 1.429 . S
C730 H754 0.950 . S
C731 C748 1.574 . S
C731 C750 1.368 . S
C731 H755 0.949 . S
H732 C736 0.949 . S
C733 C734 1.349 . S
C733 C735 1.327 . S
C733 H756 0.950 . S
C734 C733 1.349 . S
C734 C746 1.349 . S
C735 C733 1.327 . S
C735 C751 1.429 . S
C735 H757 0.950 . S
C736 H732 0.949 . S
C736 C744 1.574 . S
C736 C752 1.368 . S
H737 C745 0.950 . S
H738 C743 0.950 . S
H739 C744 0.949 . S
H740 C746 0.950 . S
H741 C747 0.950 . S
H742 C748 0.949 . S
C743 H738 0.950 . S
C743 C745 1.327 . S
C743 C749 1.429 . S
C744 C736 1.574 . S
C744 H739 0.949 . S
C744 C750 1.368 . S
C745 C729 1.349 . S
C745 H737 0.950 . S
C745 C743 1.327 . S
C746 C734 1.349 . S
C746 H740 0.950 . S
C746 C747 1.327 . S
C747 H741 0.950 . S
C747 C746 1.327 . S
C747 C751 1.429 . S
C748 C731 1.574 . S
C748 H742 0.949 . S
C748 C752 1.368 . S
C749 C730 1.429 . S
C749 C743 1.429 . S
C749 C750 1.523 . S
C750 C731 1.368 . S
C750 C744 1.368 . S
C750 C749 1.523 . S
C751 C735 1.429 . S
C751 C747 1.429 . S
C751 C752 1.523 . S
C752 C736 1.368 . S
C752 C748 1.368 . S
C752 C751 1.523 . S
H753 C728 0.950 . S
H754 C730 0.950 . S
H755 C731 0.949 . S
H756 C733 0.950 . S
H757 C735 0.950 . S
C758 C759 1.349 . S
C758 C760 1.327 . S
C758 H783 0.950 . S
C759 C758 1.349 . S
C759 C775 1.349 . S
C760 C758 1.327 . S
C760 C779 1.429 . S
C760 H784 0.950 . S
C761 C778 1.574 . S
C761 C780 1.368 . S
C761 H785 0.949 . S
H762 C766 0.949 . S
C763 C764 1.349 . S
C763 C765 1.327 . S
C763 H786 0.950 . S
C764 C763 1.349 . S
C764 C776 1.349 . S
C765 C763 1.327 . S
C765 C781 1.429 . S
C765 H787 0.950 . S
C766 H762 0.949 . S
C766 C774 1.574 . S
C766 C782 1.368 . S
H767 C775 0.950 . S
H768 C773 0.950 . S
H769 C774 0.949 . S
H770 C776 0.950 1_556 S
H771 C777 0.950 1_556 S
H772 C778 0.949 . S
C773 H768 0.950 . S
C773 C775 1.327 . S
C773 C779 1.429 . S
C774 C766 1.574 . S
C774 H769 0.949 . S
C774 C780 1.368 . S
C775 C759 1.349 . S
C775 H767 0.950 . S
C775 C773 1.327 . S
C776 C764 1.349 . S
C776 H770 0.950 1_554 S
C776 C777 1.327 . S
C777 H771 0.950 1_554 S
C777 C776 1.327 . S
C777 C781 1.429 . S
C778 C761 1.574 . S
C778 H772 0.949 . S
C778 C782 1.368 . S
C779 C760 1.429 . S
C779 C773 1.429 . S
C779 C780 1.523 . S
C780 C761 1.368 . S
C780 C774 1.368 . S
C780 C779 1.523 . S
C781 C765 1.429 . S
C781 C777 1.429 . S
C781 C782 1.523 . S
C782 C766 1.368 . S
C782 C778 1.368 . S
C782 C781 1.523 . S
H783 C758 0.950 . S
H784 C760 0.950 . S
H785 C761 0.949 . S
H786 C763 0.950 . S
H787 C765 0.950 . S
C788 C789 1.349 . S
C788 C790 1.327 . S
C788 H813 0.950 . S
C789 C788 1.349 . S
C789 C805 1.349 . S
C790 C788 1.327 . S
C790 C809 1.429 . S
C790 H814 0.950 . S
C791 C808 1.574 . S
C791 C810 1.368 . S
C791 H815 0.949 . S
H792 C796 0.949 . S
C793 C794 1.349 . S
C793 C795 1.327 . S
C793 H816 0.950 . S
C794 C793 1.349 . S
C794 C806 1.349 . S
C795 C793 1.327 . S
C795 C811 1.429 . S
C795 H817 0.950 . S
C796 H792 0.949 . S
C796 C804 1.574 . S
C796 C812 1.368 . S
H797 C805 0.950 . S
H798 C803 0.950 . S
H799 C804 0.949 . S
H800 C806 0.950 . S
H801 C807 0.950 . S
H802 C808 0.949 . S
C803 H798 0.950 . S
C803 C805 1.327 . S
C803 C809 1.429 . S
C804 C796 1.574 . S
C804 H799 0.949 . S
C804 C810 1.368 . S
C805 C789 1.349 . S
C805 H797 0.950 . S
C805 C803 1.327 . S
C806 C794 1.349 . S
C806 H800 0.950 . S
C806 C807 1.327 . S
C807 H801 0.950 . S
C807 C806 1.327 . S
C807 C811 1.429 . S
C808 C791 1.574 . S
C808 H802 0.949 . S
C808 C812 1.368 . S
C809 C790 1.429 . S
C809 C803 1.429 . S
C809 C810 1.523 . S
C810 C791 1.368 . S
C810 C804 1.368 . S
C810 C809 1.523 . S
C811 C795 1.429 . S
C811 C807 1.429 . S
C811 C812 1.523 . S
C812 C796 1.368 . S
C812 C808 1.368 . S
C812 C811 1.523 . S
H813 C788 0.950 . S
H814 C790 0.950 . S
H815 C791 0.949 . S
H816 C793 0.950 . S
H817 C795 0.950 . S
C818 C819 1.349 . S
C818 C820 1.327 . S
C818 H843 0.950 . S
C819 C818 1.349 . S
C819 C835 1.349 . S
C820 C818 1.327 . S
C820 C839 1.429 . S
C820 H844 0.950 . S
C821 C838 1.574 . S
C821 C840 1.368 . S
C821 H845 0.949 . S
H822 C826 0.949 . S
C823 C824 1.349 . S
C823 C825 1.327 . S
C823 H846 0.950 . S
C824 C823 1.349 . S
C824 C836 1.349 . S
C825 C823 1.327 . S
C825 C841 1.429 . S
C825 H847 0.950 . S
C826 H822 0.949 . S
C826 C834 1.574 . S
C826 C842 1.368 . S
H827 C835 0.950 . S
H828 C833 0.950 . S
H829 C834 0.949 . S
H830 C836 0.950 . S
H831 C837 0.950 . S
H832 C838 0.949 . S
C833 H828 0.950 . S
C833 C835 1.327 . S
C833 C839 1.429 . S
C834 C826 1.574 . S
C834 H829 0.949 . S
C834 C840 1.368 . S
C835 C819 1.349 . S
C835 H827 0.950 . S
C835 C833 1.327 . S
C836 C824 1.349 . S
C836 H830 0.950 . S
C836 C837 1.327 . S
C837 H831 0.950 . S
C837 C836 1.327 . S
C837 C841 1.429 . S
C838 C821 1.574 . S
C838 H832 0.949 . S
C838 C842 1.368 . S
C839 C820 1.429 . S
C839 C833 1.429 . S
C839 C840 1.523 . S
C840 C821 1.368 . S
C840 C834 1.368 . S
C840 C839 1.523 . S
C841 C825 1.429 . S
C841 C837 1.429 . S
C841 C842 1.523 . S
C842 C826 1.368 . S
C842 C838 1.368 . S
C842 C841 1.523 . S
H843 C818 0.950 . S
H844 C820 0.950 . S
H845 C821 0.949 . S
H846 C823 0.950 . S
H847 C825 0.950 . S
C848 C849 1.349 . S
C848 C850 1.327 . S
C848 H873 0.950 . S
C849 C848 1.349 . S
C849 C865 1.349 . S
C850 C848 1.327 . S
C850 C869 1.429 . S
C850 H874 0.950 . S
C851 C868 1.574 . S
C851 C870 1.368 . S
C851 H875 0.949 . S
H852 C856 0.949 . S
C853 C854 1.349 . S
C853 C855 1.327 . S
C853 H876 0.950 . S
C854 C853 1.349 . S
C854 C866 1.349 . S
C855 C853 1.327 . S
C855 C871 1.429 . S
C855 H877 0.950 . S
C856 H852 0.949 . S
C856 C864 1.574 . S
C856 C872 1.368 . S
H857 C865 0.950 . S
H858 C863 0.950 . S
H859 C864 0.949 . S
H860 C866 0.950 . S
H861 C867 0.950 . S
H862 C868 0.949 . S
C863 H858 0.950 . S
C863 C865 1.327 . S
C863 C869 1.429 . S
C864 C856 1.574 . S
C864 H859 0.949 . S
C864 C870 1.368 . S
C865 C849 1.349 . S
C865 H857 0.950 . S
C865 C863 1.327 . S
C866 C854 1.349 . S
C866 H860 0.950 . S
C866 C867 1.327 . S
C867 H861 0.950 . S
C867 C866 1.327 . S
C867 C871 1.429 . S
C868 C851 1.574 . S
C868 H862 0.949 . S
C868 C872 1.368 . S
C869 C850 1.429 . S
C869 C863 1.429 . S
C869 C870 1.523 . S
C870 C851 1.368 . S
C870 C864 1.368 . S
C870 C869 1.523 . S
C871 C855 1.429 . S
C871 C867 1.429 . S
C871 C872 1.523 . S
C872 C856 1.368 . S
C872 C868 1.368 . S
C872 C871 1.523 . S
H873 C848 0.950 . S
H874 C850 0.950 . S
H875 C851 0.949 . S
H876 C853 0.950 . S
H877 C855 0.950 . S
C878 C879 1.349 . S
C878 C880 1.327 . S
C878 H903 0.950 . S
C879 C878 1.349 . S
C879 C895 1.349 . S
C880 C878 1.327 . S
C880 C899 1.429 . S
C880 H904 0.950 . S
C881 C898 1.574 . S
C881 C900 1.368 . S
C881 H905 0.949 . S
H882 C886 0.949 . S
C883 C884 1.349 . S
C883 C885 1.327 . S
C883 H906 0.950 . S
C884 C883 1.349 . S
C884 C896 1.349 . S
C885 C883 1.327 . S
C885 C901 1.429 . S
C885 H907 0.950 . S
C886 H882 0.949 . S
C886 C894 1.574 . S
C886 C902 1.368 . S
H887 C895 0.950 . S
H888 C893 0.950 . S
H889 C894 0.949 . S
H890 C896 0.950 . S
H891 C897 0.950 . S
H892 C898 0.949 . S
C893 H888 0.950 . S
C893 C895 1.327 . S
C893 C899 1.429 . S
C894 C886 1.574 . S
C894 H889 0.949 . S
C894 C900 1.368 . S
C895 C879 1.349 . S
C895 H887 0.950 . S
C895 C893 1.327 . S
C896 C884 1.349 . S
C896 H890 0.950 . S
C896 C897 1.327 . S
C897 H891 0.950 . S
C897 C896 1.327 . S
C897 C901 1.429 . S
C898 C881 1.574 . S
C898 H892 0.949 . S
C898 C902 1.368 . S
C899 C880 1.429 . S
C899 C893 1.429 . S
C899 C900 1.523 . S
C900 C881 1.368 . S
C900 C894 1.368 . S
C900 C899 1.523 . S
C901 C885 1.429 . S
C901 C897 1.429 . S
C901 C902 1.523 . S
C902 C886 1.368 . S
C902 C898 1.368 . S
C902 C901 1.523 . S
H903 C878 0.950 . S
H904 C880 0.950 . S
H905 C881 0.949 . S
H906 C883 0.950 . S
H907 C885 0.950 . S
C908 C909 1.349 . S
C908 C910 1.327 . S
C908 H933 0.950 . S
C909 C908 1.349 . S
C909 C925 1.349 . S
C910 C908 1.327 . S
C910 C929 1.429 . S
C910 H934 0.950 . S
C911 C928 1.574 . S
C911 C930 1.368 . S
C911 H935 0.949 . S
H912 C916 0.949 . S
C913 C914 1.349 1_554 S
C913 C915 1.327 . S
C913 H936 0.950 . S
C914 C913 1.349 1_556 S
C914 C926 1.349 . S
C915 C913 1.327 . S
C915 C931 1.429 1_554 S
C915 H937 0.950 . S
C916 H912 0.949 . S
C916 C924 1.574 . S
C916 C932 1.368 . S
H917 C925 0.950 . S
H918 C923 0.950 . S
H919 C924 0.949 . S
H920 C926 0.950 . S
H921 C927 0.950 . S
H922 C928 0.949 1_554 S
C923 H918 0.950 . S
C923 C925 1.327 . S
C923 C929 1.429 . S
C924 C916 1.574 . S
C924 H919 0.949 . S
C924 C930 1.368 . S
C925 C909 1.349 . S
C925 H917 0.950 . S
C925 C923 1.327 . S
C926 C914 1.349 . S
C926 H920 0.950 . S
C926 C927 1.327 . S
C927 H921 0.950 . S
C927 C926 1.327 . S
C927 C931 1.429 . S
C928 C911 1.574 . S
C928 H922 0.949 1_556 S
C928 C932 1.368 . S
C929 C910 1.429 . S
C929 C923 1.429 . S
C929 C930 1.523 . S
C930 C911 1.368 . S
C930 C924 1.368 . S
C930 C929 1.523 . S
C931 C915 1.429 1_556 S
C931 C927 1.429 . S
C931 C932 1.523 . S
C932 C916 1.368 . S
C932 C928 1.368 . S
C932 C931 1.523 . S
H933 C908 0.950 . S
H934 C910 0.950 . S
H935 C911 0.949 . S
H936 C913 0.950 . S
H937 C915 0.950 . S
C938 C939 1.349 . S
C938 C940 1.327 . S
C938 H963 0.950 . S
C939 C938 1.349 . S
C939 C955 1.349 . S
C940 C938 1.327 . S
C940 C959 1.429 . S
C940 H964 0.950 . S
C941 C958 1.574 . S
C941 C960 1.368 . S
C941 H965 0.949 . S
H942 C946 0.949 . S
C943 C944 1.349 . S
C943 C945 1.327 . S
C943 H966 0.950 . S
C944 C943 1.349 . S
C944 C956 1.349 . S
C945 C943 1.327 . S
C945 C961 1.429 . S
C945 H967 0.950 . S
C946 H942 0.949 . S
C946 C954 1.574 . S
C946 C962 1.368 . S
H947 C955 0.950 . S
H948 C953 0.950 . S
H949 C954 0.949 . S
H950 C956 0.950 . S
H951 C957 0.950 . S
H952 C958 0.949 . S
C953 H948 0.950 . S
C953 C955 1.327 . S
C953 C959 1.429 . S
C954 C946 1.574 . S
C954 H949 0.949 . S
C954 C960 1.368 . S
C955 C939 1.349 . S
C955 H947 0.950 . S
C955 C953 1.327 . S
C956 C944 1.349 . S
C956 H950 0.950 . S
C956 C957 1.327 . S
C957 H951 0.950 . S
C957 C956 1.327 . S
C957 C961 1.429 . S
C958 C941 1.574 . S
C958 H952 0.949 . S
C958 C962 1.368 . S
C959 C940 1.429 . S
C959 C953 1.429 . S
C959 C960 1.523 . S
C960 C941 1.368 . S
C960 C954 1.368 . S
C960 C959 1.523 . S
C961 C945 1.429 . S
C961 C957 1.429 . S
C961 C962 1.523 . S
C962 C946 1.368 . S
C962 C958 1.368 . S
C962 C961 1.523 . S
H963 C938 0.950 . S
H964 C940 0.950 . S
H965 C941 0.949 . S
H966 C943 0.950 . S
H967 C945 0.950 . S
C968 C969 1.349 . S
C968 C970 1.327 . S
C968 H993 0.950 . S
C969 C968 1.349 . S
C969 C985 1.349 . S
C970 C968 1.327 . S
C970 C989 1.429 . S
C970 H994 0.950 . S
C971 C988 1.574 . S
C971 C990 1.368 . S
C971 H995 0.949 . S
H972 C976 0.949 . S
C973 C974 1.349 . S
C973 C975 1.327 . S
C973 H996 0.950 . S
C974 C973 1.349 . S
C974 C986 1.349 . S
C975 C973 1.327 . S
C975 C991 1.429 . S
C975 H997 0.950 . S
C976 H972 0.949 . S
C976 C984 1.574 . S
C976 C992 1.368 . S
H977 C985 0.950 . S
H978 C983 0.950 . S
H979 C984 0.949 . S
H980 C986 0.950 . S
H981 C987 0.950 . S
H982 C988 0.949 . S
C983 H978 0.950 . S
C983 C985 1.327 . S
C983 C989 1.429 . S
C984 C976 1.574 . S
C984 H979 0.949 . S
C984 C990 1.368 . S
C985 C969 1.349 . S
C985 H977 0.950 . S
C985 C983 1.327 . S
C986 C974 1.349 . S
C986 H980 0.950 . S
C986 C987 1.327 . S
C987 H981 0.950 . S
C987 C986 1.327 . S
C987 C991 1.429 . S
C988 C971 1.574 . S
C988 H982 0.949 . S
C988 C992 1.368 . S
C989 C970 1.429 . S
C989 C983 1.429 . S
C989 C990 1.523 . S
C990 C971 1.368 . S
C990 C984 1.368 . S
C990 C989 1.523 . S
C991 C975 1.429 . S
C991 C987 1.429 . S
C991 C992 1.523 . S
C992 C976 1.368 . S
C992 C988 1.368 . S
C992 C991 1.523 . S
H993 C968 0.950 . S
H994 C970 0.950 . S
H995 C971 0.949 . S
H996 C973 0.950 . S
H997 C975 0.950 . S
C998 C999 1.349 . S
C998 C1000 1.327 . S
C998 H1023 0.950 . S
C999 C998 1.349 . S
C999 C1015 1.349 . S
C1000 C998 1.327 . S
C1000 C1019 1.429 . S
C1000 H1024 0.950 . S
C1001 C1018 1.574 . S
C1001 C1020 1.368 . S
C1001 H1025 0.949 . S
H1002 C1006 0.949 . S
C1003 C1004 1.349 . S
C1003 C1005 1.327 . S
C1003 H1026 0.950 . S
C1004 C1003 1.349 . S
C1004 C1016 1.349 . S
C1005 C1003 1.327 . S
C1005 C1021 1.429 . S
C1005 H1027 0.950 . S
C1006 H1002 0.949 . S
C1006 C1014 1.574 . S
C1006 C1022 1.368 . S
H1007 C1015 0.950 . S
H1008 C1013 0.950 . S
H1009 C1014 0.949 . S
H1010 C1016 0.950 . S
H1011 C1017 0.950 . S
H1012 C1018 0.949 . S
C1013 H1008 0.950 . S
C1013 C1015 1.327 . S
C1013 C1019 1.429 . S
C1014 C1006 1.574 . S
C1014 H1009 0.949 . S
C1014 C1020 1.368 . S
C1015 C999 1.349 . S
C1015 H1007 0.950 . S
C1015 C1013 1.327 . S
C1016 C1004 1.349 . S
C1016 H1010 0.950 . S
C1016 C1017 1.327 . S
C1017 H1011 0.950 . S
C1017 C1016 1.327 . S
C1017 C1021 1.429 . S
C1018 C1001 1.574 . S
C1018 H1012 0.949 . S
C1018 C1022 1.368 . S
C1019 C1000 1.429 . S
C1019 C1013 1.429 . S
C1019 C1020 1.523 . S
C1020 C1001 1.368 . S
C1020 C1014 1.368 . S
C1020 C1019 1.523 . S
C1021 C1005 1.429 . S
C1021 C1017 1.429 . S
C1021 C1022 1.523 . S
C1022 C1006 1.368 . S
C1022 C1018 1.368 . S
C1022 C1021 1.523 . S
H1023 C998 0.950 . S
H1024 C1000 0.950 . S
H1025 C1001 0.949 . S
H1026 C1003 0.950 . S
H1027 C1005 0.950 . S
C1028 C1029 1.349 . S
C1028 C1030 1.327 . S
C1028 H1053 0.950 . S
C1029 C1028 1.349 . S
C1029 C1045 1.349 . S
C1030 C1028 1.327 . S
C1030 C1049 1.429 . S
C1030 H1054 0.950 . S
C1031 C1048 1.574 . S
C1031 C1050 1.368 . S
C1031 H1055 0.949 . S
H1032 C1036 0.949 . S
C1033 C1034 1.349 . S
C1033 C1035 1.327 . S
C1033 H1056 0.950 . S
C1034 C1033 1.349 . S
C1034 C1046 1.349 . S
C1035 C1033 1.327 . S
C1035 C1051 1.429 . S
C1035 H1057 0.950 . S
C1036 H1032 0.949 . S
C1036 C1044 1.574 . S
C1036 C1052 1.368 . S
H1037 C1045 0.950 . S
H1038 C1043 0.950 . S
H1039 C1044 0.949 . S
H1040 C1046 0.950 . S
H1041 C1047 0.950 . S
H1042 C1048 0.949 . S
C1043 H1038 0.950 . S
C1043 C1045 1.327 . S
C1043 C1049 1.429 . S
C1044 C1036 1.574 . S
C1044 H1039 0.949 . S
C1044 C1050 1.368 . S
C1045 C1029 1.349 . S
C1045 H1037 0.950 . S
C1045 C1043 1.327 . S
C1046 C1034 1.349 . S
C1046 H1040 0.950 . S
C1046 C1047 1.327 . S
C1047 H1041 0.950 . S
C1047 C1046 1.327 . S
C1047 C1051 1.429 . S
C1048 C1031 1.574 . S
C1048 H1042 0.949 . S
C1048 C1052 1.368 . S
C1049 C1030 1.429 . S
C1049 C1043 1.429 . S
C1049 C1050 1.523 . S
C1050 C1031 1.368 . S
C1050 C1044 1.368 . S
C1050 C1049 1.523 . S
C1051 C1035 1.429 . S
C1051 C1047 1.429 . S
C1051 C1052 1.523 . S
C1052 C1036 1.368 . S
C1052 C1048 1.368 . S
C1052 C1051 1.523 . S
H1053 C1028 0.950 . S
H1054 C1030 0.950 . S
H1055 C1031 0.949 . S
H1056 C1033 0.950 . S
H1057 C1035 0.950 . S
C1058 C1059 1.349 . S
C1058 C1060 1.327 . S
C1058 H1083 0.950 . S
C1059 C1058 1.349 . S
C1059 C1075 1.349 . S
C1060 C1058 1.327 . S
C1060 C1079 1.429 . S
C1060 H1084 0.950 . S
C1061 C1078 1.574 . S
C1061 C1080 1.368 . S
C1061 H1085 0.949 . S
H1062 C1066 0.949 . S
C1063 C1064 1.349 . S
C1063 C1065 1.327 . S
C1063 H1086 0.950 . S
C1064 C1063 1.349 . S
C1064 C1076 1.349 . S
C1065 C1063 1.327 . S
C1065 C1081 1.429 . S
C1065 H1087 0.950 . S
C1066 H1062 0.949 . S
C1066 C1074 1.574 . S
C1066 C1082 1.368 . S
H1067 C1075 0.950 . S
H1068 C1073 0.950 . S
H1069 C1074 0.949 . S
H1070 C1076 0.950 . S
H1071 C1077 0.950 . S
H1072 C1078 0.949 . S
C1073 H1068 0.950 . S
C1073 C1075 1.327 . S
C1073 C1079 1.429 . S
C1074 C1066 1.574 . S
C1074 H1069 0.949 . S
C1074 C1080 1.368 . S
C1075 C1059 1.349 . S
C1075 H1067 0.950 . S
C1075 C1073 1.327 . S
C1076 C1064 1.349 . S
C1076 H1070 0.950 . S
C1076 C1077 1.327 . S
C1077 H1071 0.950 . S
C1077 C1076 1.327 . S
C1077 C1081 1.429 . S
C1078 C1061 1.574 . S
C1078 H1072 0.949 . S
C1078 C1082 1.368 . S
C1079 C1060 1.429 . S
C1079 C1073 1.429 . S
C1079 C1080 1.523 . S
C1080 C1061 1.368 . S
C1080 C1074 1.368 . S
C1080 C1079 1.523 . S
C1081 C1065 1.429 . S
C1081 C1077 1.429 . S
C1081 C1082 1.523 . S
C1082 C1066 1.368 . S
C1082 C1078 1.368 . S
C1082 C1081 1.523 . S
H1083 C1058 0.950 . S
H1084 C1060 0.950 . S
H1085 C1061 0.949 . S
H1086 C1063 0.950 . S
H1087 C1065 0.950 . S
C1088 C1089 1.349 . S
C1088 C1090 1.327 . S
C1088 H1113 0.950 . S
C1089 C1088 1.349 . S
C1089 C1105 1.349 . S
C1090 C1088 1.327 . S
C1090 C1109 1.429 . S
C1090 H1114 0.950 . S
C1091 C1108 1.574 . S
C1091 C1110 1.368 . S
C1091 H1115 0.949 . S
H1092 C1096 0.949 . S
C1093 C1094 1.349 . S
C1093 C1095 1.327 . S
C1093 H1116 0.950 . S
C1094 C1093 1.349 . S
C1094 C1106 1.349 . S
C1095 C1093 1.327 . S
C1095 C1111 1.429 . S
C1095 H1117 0.950 . S
C1096 H1092 0.949 . S
C1096 C1104 1.574 . S
C1096 C1112 1.368 . S
H1097 C1105 0.950 . S
H1098 C1103 0.950 . S
H1099 C1104 0.949 . S
H1100 C1106 0.950 . S
H1101 C1107 0.950 . S
H1102 C1108 0.949 . S
C1103 H1098 0.950 . S
C1103 C1105 1.327 . S
C1103 C1109 1.429 . S
C1104 C1096 1.574 . S
C1104 H1099 0.949 . S
C1104 C1110 1.368 . S
C1105 C1089 1.349 . S
C1105 H1097 0.950 . S
C1105 C1103 1.327 . S
C1106 C1094 1.349 . S
C1106 H1100 0.950 . S
C1106 C1107 1.327 . S
C1107 H1101 0.950 . S
C1107 C1106 1.327 . S
C1107 C1111 1.429 . S
C1108 C1091 1.574 . S
C1108 H1102 0.949 . S
C1108 C1112 1.368 . S
C1109 C1090 1.429 . S
C1109 C1103 1.429 . S
C1109 C1110 1.523 . S
C1110 C1091 1.368 . S
C1110 C1104 1.368 . S
C1110 C1109 1.523 . S
C1111 C1095 1.429 . S
C1111 C1107 1.429 . S
C1111 C1112 1.523 . S
C1112 C1096 1.368 . S
C1112 C1108 1.368 . S
C1112 C1111 1.523 . S
H1113 C1088 0.950 . S
H1114 C1090 0.950 . S
H1115 C1091 0.949 . S
H1116 C1093 0.950 . S
H1117 C1095 0.950 . S
C1118 C1119 1.349 . S
C1118 C1120 1.327 . S
C1118 H1143 0.950 . S
C1119 C1118 1.349 . S
C1119 C1135 1.349 . S
C1120 C1118 1.327 . S
C1120 C1139 1.429 . S
C1120 H1144 0.950 . S
C1121 C1138 1.574 . S
C1121 C1140 1.368 . S
C1121 H1145 0.949 . S
H1122 C1126 0.949 . S
C1123 C1124 1.349 . S
C1123 C1125 1.327 . S
C1123 H1146 0.950 . S
C1124 C1123 1.349 . S
C1124 C1136 1.349 . S
C1125 C1123 1.327 . S
C1125 C1141 1.429 . S
C1125 H1147 0.950 . S
C1126 H1122 0.949 . S
C1126 C1134 1.574 . S
C1126 C1142 1.368 . S
H1127 C1135 0.950 . S
H1128 C1133 0.950 . S
H1129 C1134 0.949 . S
H1130 C1136 0.950 . S
H1131 C1137 0.950 . S
H1132 C1138 0.949 . S
C1133 H1128 0.950 . S
C1133 C1135 1.327 . S
C1133 C1139 1.429 . S
C1134 C1126 1.574 . S
C1134 H1129 0.949 . S
C1134 C1140 1.368 . S
C1135 C1119 1.349 . S
C1135 H1127 0.950 . S
C1135 C1133 1.327 . S
C1136 C1124 1.349 . S
C1136 H1130 0.950 . S
C1136 C1137 1.327 . S
C1137 H1131 0.950 . S
C1137 C1136 1.327 . S
C1137 C1141 1.429 . S
C1138 C1121 1.574 . S
C1138 H1132 0.949 . S
C1138 C1142 1.368 . S
C1139 C1120 1.429 . S
C1139 C1133 1.429 . S
C1139 C1140 1.523 . S
C1140 C1121 1.368 . S
C1140 C1134 1.368 . S
C1140 C1139 1.523 . S
C1141 C1125 1.429 . S
C1141 C1137 1.429 . S
C1141 C1142 1.523 . S
C1142 C1126 1.368 . S
C1142 C1138 1.368 . S
C1142 C1141 1.523 . S
H1143 C1118 0.950 . S
H1144 C1120 0.950 . S
H1145 C1121 0.949 . S
H1146 C1123 0.950 . S
H1147 C1125 0.950 . S
C1148 C1149 1.349 . S
C1148 C1150 1.327 . S
C1148 H1173 0.950 . S
C1149 C1148 1.349 . S
C1149 C1165 1.349 . S
C1150 C1148 1.327 . S
C1150 C1169 1.429 . S
C1150 H1174 0.950 . S
C1151 C1168 1.574 . S
C1151 C1170 1.368 . S
C1151 H1175 0.949 . S
H1152 C1156 0.949 . S
C1153 C1154 1.349 . S
C1153 C1155 1.327 . S
C1153 H1176 0.950 . S
C1154 C1153 1.349 . S
C1154 C1166 1.349 . S
C1155 C1153 1.327 . S
C1155 C1171 1.429 . S
C1155 H1177 0.950 . S
C1156 H1152 0.949 . S
C1156 C1164 1.574 . S
C1156 C1172 1.368 . S
H1157 C1165 0.950 . S
H1158 C1163 0.950 . S
H1159 C1164 0.949 . S
H1160 C1166 0.950 . S
H1161 C1167 0.950 . S
H1162 C1168 0.949 . S
C1163 H1158 0.950 . S
C1163 C1165 1.327 . S
C1163 C1169 1.429 . S
C1164 C1156 1.574 . S
C1164 H1159 0.949 . S
C1164 C1170 1.368 . S
C1165 C1149 1.349 . S
C1165 H1157 0.950 . S
C1165 C1163 1.327 . S
C1166 C1154 1.349 . S
C1166 H1160 0.950 . S
C1166 C1167 1.327 . S
C1167 H1161 0.950 . S
C1167 C1166 1.327 . S
C1167 C1171 1.429 . S
C1168 C1151 1.574 . S
C1168 H1162 0.949 . S
C1168 C1172 1.368 . S
C1169 C1150 1.429 . S
C1169 C1163 1.429 . S
C1169 C1170 1.523 . S
C1170 C1151 1.368 . S
C1170 C1164 1.368 . S
C1170 C1169 1.523 . S
C1171 C1155 1.429 . S
C1171 C1167 1.429 . S
C1171 C1172 1.523 . S
C1172 C1156 1.368 . S
C1172 C1168 1.368 . S
C1172 C1171 1.523 . S
H1173 C1148 0.950 . S
H1174 C1150 0.950 . S
H1175 C1151 0.949 . S
H1176 C1153 0.950 . S
H1177 C1155 0.950 . S
C1178 C1179 1.349 . S
C1178 C1180 1.327 . S
C1178 H1203 0.950 . S
C1179 C1178 1.349 . S
C1179 C1195 1.349 . S
C1180 C1178 1.327 . S
C1180 C1199 1.429 . S
C1180 H1204 0.950 . S
C1181 C1198 1.574 . S
C1181 C1200 1.368 . S
C1181 H1205 0.949 . S
H1182 C1186 0.949 . S
C1183 C1184 1.349 . S
C1183 C1185 1.327 . S
C1183 H1206 0.950 . S
C1184 C1183 1.349 . S
C1184 C1196 1.349 . S
C1185 C1183 1.327 . S
C1185 C1201 1.429 . S
C1185 H1207 0.950 . S
C1186 H1182 0.949 . S
C1186 C1194 1.574 . S
C1186 C1202 1.368 . S
H1187 C1195 0.950 . S
H1188 C1193 0.950 . S
H1189 C1194 0.949 . S
H1190 C1196 0.950 . S
H1191 C1197 0.950 . S
H1192 C1198 0.949 . S
C1193 H1188 0.950 . S
C1193 C1195 1.327 . S
C1193 C1199 1.429 . S
C1194 C1186 1.574 . S
C1194 H1189 0.949 . S
C1194 C1200 1.368 . S
C1195 C1179 1.349 . S
C1195 H1187 0.950 . S
C1195 C1193 1.327 . S
C1196 C1184 1.349 . S
C1196 H1190 0.950 . S
C1196 C1197 1.327 . S
C1197 H1191 0.950 . S
C1197 C1196 1.327 . S
C1197 C1201 1.429 . S
C1198 C1181 1.574 . S
C1198 H1192 0.949 . S
C1198 C1202 1.368 . S
C1199 C1180 1.429 . S
C1199 C1193 1.429 . S
C1199 C1200 1.523 . S
C1200 C1181 1.368 . S
C1200 C1194 1.368 . S
C1200 C1199 1.523 . S
C1201 C1185 1.429 . S
C1201 C1197 1.429 . S
C1201 C1202 1.523 . S
C1202 C1186 1.368 . S
C1202 C1198 1.368 . S
C1202 C1201 1.523 . S
H1203 C1178 0.950 . S
H1204 C1180 0.950 . S
H1205 C1181 0.949 . S
H1206 C1183 0.950 . S
H1207 C1185 0.950 . S
C1208 C1209 1.349 . S
C1208 C1210 1.327 . S
C1208 H1233 0.950 . S
C1209 C1208 1.349 . S
C1209 C1225 1.349 . S
C1210 C1208 1.327 . S
C1210 C1229 1.429 . S
C1210 H1234 0.950 . S
C1211 C1228 1.574 . S
C1211 C1230 1.368 . S
C1211 H1235 0.949 . S
H1212 C1216 0.949 . S
C1213 C1214 1.349 . S
C1213 C1215 1.327 . S
C1213 H1236 0.950 . S
C1214 C1213 1.349 . S
C1214 C1226 1.349 . S
C1215 C1213 1.327 . S
C1215 C1231 1.429 . S
C1215 H1237 0.950 . S
C1216 H1212 0.949 . S
C1216 C1224 1.574 . S
C1216 C1232 1.368 . S
H1217 C1225 0.950 . S
H1218 C1223 0.950 . S
H1219 C1224 0.949 . S
H1220 C1226 0.950 . S
H1221 C1227 0.950 . S
H1222 C1228 0.949 . S
C1223 H1218 0.950 . S
C1223 C1225 1.327 . S
C1223 C1229 1.429 . S
C1224 C1216 1.574 . S
C1224 H1219 0.949 . S
C1224 C1230 1.368 . S
C1225 C1209 1.349 . S
C1225 H1217 0.950 . S
C1225 C1223 1.327 . S
C1226 C1214 1.349 . S
C1226 H1220 0.950 . S
C1226 C1227 1.327 . S
C1227 H1221 0.950 . S
C1227 C1226 1.327 . S
C1227 C1231 1.429 . S
C1228 C1211 1.574 . S
C1228 H1222 0.949 . S
C1228 C1232 1.368 . S
C1229 C1210 1.429 . S
C1229 C1223 1.429 . S
C1229 C1230 1.523 . S
C1230 C1211 1.368 . S
C1230 C1224 1.368 . S
C1230 C1229 1.523 . S
C1231 C1215 1.429 . S
C1231 C1227 1.429 . S
C1231 C1232 1.523 . S
C1232 C1216 1.368 . S
C1232 C1228 1.368 . S
C1232 C1231 1.523 . S
H1233 C1208 0.950 . S
H1234 C1210 0.950 . S
H1235 C1211 0.949 . S
H1236 C1213 0.950 . S
H1237 C1215 0.950 . S
C1238 C1239 1.349 . S
C1238 C1240 1.327 . S
C1238 H1263 0.950 . S
C1239 C1238 1.349 . S
C1239 C1255 1.349 . S
C1240 C1238 1.327 . S
C1240 C1259 1.429 . S
C1240 H1264 0.950 . S
C1241 C1258 1.574 . S
C1241 C1260 1.368 . S
C1241 H1265 0.949 . S
H1242 C1246 0.949 . S
C1243 C1244 1.349 . S
C1243 C1245 1.327 . S
C1243 H1266 0.950 . S
C1244 C1243 1.349 . S
C1244 C1256 1.349 . S
C1245 C1243 1.327 . S
C1245 C1261 1.429 . S
C1245 H1267 0.950 . S
C1246 H1242 0.949 . S
C1246 C1254 1.574 . S
C1246 C1262 1.368 . S
H1247 C1255 0.950 . S
H1248 C1253 0.950 . S
H1249 C1254 0.949 . S
H1250 C1256 0.950 . S
H1251 C1257 0.950 . S
H1252 C1258 0.949 . S
C1253 H1248 0.950 . S
C1253 C1255 1.327 . S
C1253 C1259 1.429 . S
C1254 C1246 1.574 . S
C1254 H1249 0.949 . S
C1254 C1260 1.368 . S
C1255 C1239 1.349 . S
C1255 H1247 0.950 . S
C1255 C1253 1.327 . S
C1256 C1244 1.349 . S
C1256 H1250 0.950 . S
C1256 C1257 1.327 . S
C1257 H1251 0.950 . S
C1257 C1256 1.327 . S
C1257 C1261 1.429 . S
C1258 C1241 1.574 . S
C1258 H1252 0.949 . S
C1258 C1262 1.368 . S
C1259 C1240 1.429 . S
C1259 C1253 1.429 . S
C1259 C1260 1.523 . S
C1260 C1241 1.368 . S
C1260 C1254 1.368 . S
C1260 C1259 1.523 . S
C1261 C1245 1.429 . S
C1261 C1257 1.429 . S
C1261 C1262 1.523 . S
C1262 C1246 1.368 . S
C1262 C1258 1.368 . S
C1262 C1261 1.523 . S
H1263 C1238 0.950 . S
H1264 C1240 0.950 . S
H1265 C1241 0.949 . S
H1266 C1243 0.950 . S
H1267 C1245 0.950 . S
C1268 C1269 1.349 . S
C1268 C1270 1.327 . S
C1268 H1293 0.950 . S
C1269 C1268 1.349 . S
C1269 C1285 1.349 . S
C1270 C1268 1.327 . S
C1270 C1289 1.429 . S
C1270 H1294 0.950 . S
C1271 C1288 1.574 . S
C1271 C1290 1.368 . S
C1271 H1295 0.949 . S
H1272 C1276 0.949 . S
C1273 C1274 1.349 . S
C1273 C1275 1.327 . S
C1273 H1296 0.950 . S
C1274 C1273 1.349 . S
C1274 C1286 1.349 . S
C1275 C1273 1.327 . S
C1275 C1291 1.429 . S
C1275 H1297 0.950 . S
C1276 H1272 0.949 . S
C1276 C1284 1.574 . S
C1276 C1292 1.368 . S
H1277 C1285 0.950 . S
H1278 C1283 0.950 . S
H1279 C1284 0.949 . S
H1280 C1286 0.950 . S
H1281 C1287 0.950 . S
H1282 C1288 0.949 . S
C1283 H1278 0.950 . S
C1283 C1285 1.327 . S
C1283 C1289 1.429 . S
C1284 C1276 1.574 . S
C1284 H1279 0.949 . S
C1284 C1290 1.368 . S
C1285 C1269 1.349 . S
C1285 H1277 0.950 . S
C1285 C1283 1.327 . S
C1286 C1274 1.349 . S
C1286 H1280 0.950 . S
C1286 C1287 1.327 . S
C1287 H1281 0.950 . S
C1287 C1286 1.327 . S
C1287 C1291 1.429 . S
C1288 C1271 1.574 . S
C1288 H1282 0.949 . S
C1288 C1292 1.368 . S
C1289 C1270 1.429 . S
C1289 C1283 1.429 . S
C1289 C1290 1.523 . S
C1290 C1271 1.368 . S
C1290 C1284 1.368 . S
C1290 C1289 1.523 . S
C1291 C1275 1.429 . S
C1291 C1287 1.429 . S
C1291 C1292 1.523 . S
C1292 C1276 1.368 . S
C1292 C1288 1.368 . S
C1292 C1291 1.523 . S
H1293 C1268 0.950 . S
H1294 C1270 0.950 . S
H1295 C1271 0.949 . S
H1296 C1273 0.950 . S
H1297 C1275 0.950 . S
C1298 C1299 1.349 . S
C1298 C1300 1.327 . S
C1298 H1323 0.950 . S
C1299 C1298 1.349 . S
C1299 C1315 1.349 . S
C1300 C1298 1.327 . S
C1300 C1319 1.429 . S
C1300 H1324 0.950 . S
C1301 C1318 1.574 . S
C1301 C1320 1.368 . S
C1301 H1325 0.949 . S
H1302 C1306 0.949 . S
C1303 C1304 1.349 . S
C1303 C1305 1.327 . S
C1303 H1326 0.950 . S
C1304 C1303 1.349 . S
C1304 C1316 1.349 . S
C1305 C1303 1.327 . S
C1305 C1321 1.429 . S
C1305 H1327 0.950 . S
C1306 H1302 0.949 . S
C1306 C1314 1.574 . S
C1306 C1322 1.368 . S
H1307 C1315 0.950 . S
H1308 C1313 0.950 . S
H1309 C1314 0.949 . S
H1310 C1316 0.950 . S
H1311 C1317 0.950 . S
H1312 C1318 0.949 . S
C1313 H1308 0.950 . S
C1313 C1315 1.327 . S
C1313 C1319 1.429 . S
C1314 C1306 1.574 . S
C1314 H1309 0.949 . S
C1314 C1320 1.368 . S
C1315 C1299 1.349 . S
C1315 H1307 0.950 . S
C1315 C1313 1.327 . S
C1316 C1304 1.349 . S
C1316 H1310 0.950 . S
C1316 C1317 1.327 . S
C1317 H1311 0.950 . S
C1317 C1316 1.327 . S
C1317 C1321 1.429 . S
C1318 C1301 1.574 . S
C1318 H1312 0.949 . S
C1318 C1322 1.368 . S
C1319 C1300 1.429 . S
C1319 C1313 1.429 . S
C1319 C1320 1.523 . S
C1320 C1301 1.368 . S
C1320 C1314 1.368 . S
C1320 C1319 1.523 . S
C1321 C1305 1.429 . S
C1321 C1317 1.429 . S
C1321 C1322 1.523 . S
C1322 C1306 1.368 . S
C1322 C1318 1.368 . S
C1322 C1321 1.523 . S
H1323 C1298 0.950 . S
H1324 C1300 0.950 . S
H1325 C1301 0.949 . S
H1326 C1303 0.950 . S
H1327 C1305 0.950 . S
C1328 C1329 1.349 . S
C1328 C1330 1.327 . S
C1328 H1353 0.950 . S
C1329 C1328 1.349 . S
C1329 C1345 1.349 . S
C1330 C1328 1.327 . S
C1330 C1349 1.429 . S
C1330 H1354 0.950 . S
C1331 C1348 1.574 . S
C1331 C1350 1.368 . S
C1331 H1355 0.949 . S
H1332 C1336 0.949 . S
C1333 C1334 1.349 . S
C1333 C1335 1.327 . S
C1333 H1356 0.950 . S
C1334 C1333 1.349 . S
C1334 C1346 1.349 . S
C1335 C1333 1.327 . S
C1335 C1351 1.429 . S
C1335 H1357 0.950 . S
C1336 H1332 0.949 . S
C1336 C1344 1.574 . S
C1336 C1352 1.368 . S
H1337 C1345 0.950 . S
H1338 C1343 0.950 . S
H1339 C1344 0.949 . S
H1340 C1346 0.950 . S
H1341 C1347 0.950 . S
H1342 C1348 0.949 . S
C1343 H1338 0.950 . S
C1343 C1345 1.327 . S
C1343 C1349 1.429 . S
C1344 C1336 1.574 . S
C1344 H1339 0.949 . S
C1344 C1350 1.368 . S
C1345 C1329 1.349 . S
C1345 H1337 0.950 . S
C1345 C1343 1.327 . S
C1346 C1334 1.349 . S
C1346 H1340 0.950 . S
C1346 C1347 1.327 . S
C1347 H1341 0.950 . S
C1347 C1346 1.327 . S
C1347 C1351 1.429 . S
C1348 C1331 1.574 . S
C1348 H1342 0.949 . S
C1348 C1352 1.368 . S
C1349 C1330 1.429 . S
C1349 C1343 1.429 . S
C1349 C1350 1.523 . S
C1350 C1331 1.368 . S
C1350 C1344 1.368 . S
C1350 C1349 1.523 . S
C1351 C1335 1.429 . S
C1351 C1347 1.429 . S
C1351 C1352 1.523 . S
C1352 C1336 1.368 . S
C1352 C1348 1.368 . S
C1352 C1351 1.523 . S
H1353 C1328 0.950 . S
H1354 C1330 0.950 . S
H1355 C1331 0.949 . S
H1356 C1333 0.950 . S
H1357 C1335 0.950 . S
C1358 C1359 1.349 . S
C1358 C1360 1.327 . S
C1358 H1383 0.950 . S
C1359 C1358 1.349 . S
C1359 C1375 1.349 . S
C1360 C1358 1.327 . S
C1360 C1379 1.429 . S
C1360 H1384 0.950 . S
C1361 C1378 1.574 . S
C1361 C1380 1.368 . S
C1361 H1385 0.949 . S
H1362 C1366 0.949 . S
C1363 C1364 1.349 . S
C1363 C1365 1.327 . S
C1363 H1386 0.950 . S
C1364 C1363 1.349 . S
C1364 C1376 1.349 . S
C1365 C1363 1.327 . S
C1365 C1381 1.429 . S
C1365 H1387 0.950 . S
C1366 H1362 0.949 . S
C1366 C1374 1.574 . S
C1366 C1382 1.368 . S
H1367 C1375 0.950 . S
H1368 C1373 0.950 . S
H1369 C1374 0.949 . S
H1370 C1376 0.950 . S
H1371 C1377 0.950 . S
H1372 C1378 0.949 . S
C1373 H1368 0.950 . S
C1373 C1375 1.327 . S
C1373 C1379 1.429 . S
C1374 C1366 1.574 . S
C1374 H1369 0.949 . S
C1374 C1380 1.368 . S
C1375 C1359 1.349 . S
C1375 H1367 0.950 . S
C1375 C1373 1.327 . S
C1376 C1364 1.349 . S
C1376 H1370 0.950 . S
C1376 C1377 1.327 . S
C1377 H1371 0.950 . S
C1377 C1376 1.327 . S
C1377 C1381 1.429 . S
C1378 C1361 1.574 . S
C1378 H1372 0.949 . S
C1378 C1382 1.368 . S
C1379 C1360 1.429 . S
C1379 C1373 1.429 . S
C1379 C1380 1.523 . S
C1380 C1361 1.368 . S
C1380 C1374 1.368 . S
C1380 C1379 1.523 . S
C1381 C1365 1.429 . S
C1381 C1377 1.429 . S
C1381 C1382 1.523 . S
C1382 C1366 1.368 . S
C1382 C1378 1.368 . S
C1382 C1381 1.523 . S
H1383 C1358 0.950 . S
H1384 C1360 0.950 . S
H1385 C1361 0.949 . S
H1386 C1363 0.950 . S
H1387 C1365 0.950 . S
C1388 C1389 1.349 . S
C1388 C1390 1.327 . S
C1388 H1413 0.950 . S
C1389 C1388 1.349 . S
C1389 C1405 1.349 . S
C1390 C1388 1.327 . S
C1390 C1409 1.429 . S
C1390 H1414 0.950 . S
C1391 C1408 1.574 . S
C1391 C1410 1.368 . S
C1391 H1415 0.949 . S
H1392 C1396 0.949 . S
C1393 C1394 1.349 . S
C1393 C1395 1.327 . S
C1393 H1416 0.950 . S
C1394 C1393 1.349 . S
C1394 C1406 1.349 . S
C1395 C1393 1.327 . S
C1395 C1411 1.429 . S
C1395 H1417 0.950 . S
C1396 H1392 0.949 . S
C1396 C1404 1.574 . S
C1396 C1412 1.368 . S
H1397 C1405 0.950 . S
H1398 C1403 0.950 . S
H1399 C1404 0.949 . S
H1400 C1406 0.950 . S
H1401 C1407 0.950 . S
H1402 C1408 0.949 . S
C1403 H1398 0.950 . S
C1403 C1405 1.327 . S
C1403 C1409 1.429 . S
C1404 C1396 1.574 . S
C1404 H1399 0.949 . S
C1404 C1410 1.368 . S
C1405 C1389 1.349 . S
C1405 H1397 0.950 . S
C1405 C1403 1.327 . S
C1406 C1394 1.349 . S
C1406 H1400 0.950 . S
C1406 C1407 1.327 . S
C1407 H1401 0.950 . S
C1407 C1406 1.327 . S
C1407 C1411 1.429 . S
C1408 C1391 1.574 . S
C1408 H1402 0.949 . S
C1408 C1412 1.368 . S
C1409 C1390 1.429 . S
C1409 C1403 1.429 . S
C1409 C1410 1.523 . S
C1410 C1391 1.368 . S
C1410 C1404 1.368 . S
C1410 C1409 1.523 . S
C1411 C1395 1.429 . S
C1411 C1407 1.429 . S
C1411 C1412 1.523 . S
C1412 C1396 1.368 . S
C1412 C1408 1.368 . S
C1412 C1411 1.523 . S
H1413 C1388 0.950 . S
H1414 C1390 0.950 . S
H1415 C1391 0.949 . S
H1416 C1393 0.950 . S
H1417 C1395 0.950 . S
C1418 C1419 1.349 . S
C1418 C1420 1.327 . S
C1418 H1443 0.950 . S
C1419 C1418 1.349 . S
C1419 C1435 1.349 . S
C1420 C1418 1.327 . S
C1420 C1439 1.429 . S
C1420 H1444 0.950 . S
C1421 C1438 1.574 . S
C1421 C1440 1.368 . S
C1421 H1445 0.949 . S
H1422 C1426 0.949 . S
C1423 C1424 1.349 . S
C1423 C1425 1.327 . S
C1423 H1446 0.950 . S
C1424 C1423 1.349 . S
C1424 C1436 1.349 . S
C1425 C1423 1.327 . S
C1425 C1441 1.429 . S
C1425 H1447 0.950 . S
C1426 H1422 0.949 . S
C1426 C1434 1.574 . S
C1426 C1442 1.368 . S
H1427 C1435 0.950 . S
H1428 C1433 0.950 . S
H1429 C1434 0.949 . S
H1430 C1436 0.950 . S
H1431 C1437 0.950 . S
H1432 C1438 0.949 . S
C1433 H1428 0.950 . S
C1433 C1435 1.327 . S
C1433 C1439 1.429 . S
C1434 C1426 1.574 . S
C1434 H1429 0.949 . S
C1434 C1440 1.368 . S
C1435 C1419 1.349 . S
C1435 H1427 0.950 . S
C1435 C1433 1.327 . S
C1436 C1424 1.349 . S
C1436 H1430 0.950 . S
C1436 C1437 1.327 . S
C1437 H1431 0.950 . S
C1437 C1436 1.327 . S
C1437 C1441 1.429 . S
C1438 C1421 1.574 . S
C1438 H1432 0.949 . S
C1438 C1442 1.368 . S
C1439 C1420 1.429 . S
C1439 C1433 1.429 . S
C1439 C1440 1.523 . S
C1440 C1421 1.368 . S
C1440 C1434 1.368 . S
C1440 C1439 1.523 . S
C1441 C1425 1.429 . S
C1441 C1437 1.429 . S
C1441 C1442 1.523 . S
C1442 C1426 1.368 . S
C1442 C1438 1.368 . S
C1442 C1441 1.523 . S
H1443 C1418 0.950 . S
H1444 C1420 0.950 . S
H1445 C1421 0.949 . S
H1446 C1423 0.950 . S
H1447 C1425 0.950 . S
C494 C397 1.258 . S
C489 C36 1.292 . S
C524 C415 1.237 . S
C519 C93 1.296 . S
C554 C423 1.258 . S
C549 C126 1.295 . S
C579 C165 1.281 . S
C584 C389 1.236 . S
C609 C222 1.295 . S
C614 C384 1.255 1_556 S
C639 C261 1.282 . S
C644 C402 1.237 . S
C674 C410 1.257 . S
C669 C318 1.294 . S
C704 C428 1.238 . S
C699 C381 1.297 . S
C729 C132 1.290 . S
C734 C449 1.257 . S
C764 C467 1.238 . S
C759 C189 1.297 . S
C789 C30 1.295 . S
C794 C475 1.256 . S
C824 C441 1.237 . S
C819 C69 1.281 . S
C849 C324 1.290 . S
C854 C436 1.258 . S
C879 C357 1.281 . S
C884 C454 1.237 . S
C914 C462 1.253 1_556 S
C909 C228 1.289 . S
C939 C285 1.297 . S
C944 C480 1.238 . S
C974 C418 1.502 . S
C969 C45 1.496 . S
C1004 C433 1.474 . S
C999 C84 1.505 . S
C1029 C117 1.495 . S
C1034 C392 1.503 . S
C1059 C174 1.477 . S
C1064 C407 1.474 . S
C1089 C213 1.496 . S
C1094 C431 1.503 . S
C1124 C394 1.474 . S
C1119 C270 1.478 . S
C1154 C405 1.503 . S
C1149 C309 1.496 . S
C1184 C420 1.474 . S
C1179 C372 1.504 . S
C1214 C470 1.503 . S
C1209 C141 1.495 . S
C1244 C485 1.474 . S
C1239 C180 1.504 . S
C1269 C21 1.496 . S
C1274 C444 1.501 . S
C1304 C459 1.474 . S
C1299 C78 1.477 . S
C1334 C483 1.502 . S
C1329 C333 1.494 . S
C1359 C366 1.477 . S
C1364 C446 1.474 . S
C1394 C457 1.502 . S
C1389 C237 1.494 . S
C1424 C472 1.474 . S
C1419 C276 1.504 . S
