# Generated by pormake.
# Topology apo, (3,6)-cn, num edge types: 1
# Building blocks:
#     Node 0, Type 0, BuildingBlock: KAKCAD_clean_linker_0, # of connection points: 3
#     Node 1, Type 0, BuildingBlock: KAKCAD_clean_linker_0, # of connection points: 3
#     Node 2, Type 0, BuildingBlock: KAKCAD_clean_linker_0, # of connection points: 3
#     Node 3, Type 0, BuildingBlock: KAKCAD_clean_linker_0, # of connection points: 3
#     Node 4, Type 0, BuildingBlock: KAKCAD_clean_linker_0, # of connection points: 3
#     Node 5, Type 0, BuildingBlock: KAKCAD_clean_linker_0, # of connection points: 3
#     Node 6, Type 0, BuildingBlock: KAKCAD_clean_linker_0, # of connection points: 3
#     Node 7, Type 0, BuildingBlock: KAKCAD_clean_linker_0, # of connection points: 3
#     Node 8, Type 1, BuildingBlock: MIDCAF_clean_sbu_0, # of connection points: 6
#     Node 9, Type 1, BuildingBlock: MIDCAF_clean_sbu_0, # of connection points: 6
#     Node 10, Type 1, BuildingBlock: MIDCAF_clean_sbu_0, # of connection points: 6
#     Node 11, Type 1, BuildingBlock: MIDCAF_clean_sbu_0, # of connection points: 6
#     Edge 12, Type (0, 1), BuildingBlock: ZUJKAS_clean_linker_0, # of connection points: 2
#     Edge 13, Type (0, 1), BuildingBlock: ZUJKAS_clean_linker_0, # of connection points: 2
#     Edge 14, Type (0, 1), BuildingBlock: ZUJKAS_clean_linker_0, # of connection points: 2
#     Edge 15, Type (0, 1), BuildingBlock: ZUJKAS_clean_linker_0, # of connection points: 2
#     Edge 16, Type (0, 1), BuildingBlock: ZUJKAS_clean_linker_0, # of connection points: 2
#     Edge 17, Type (0, 1), BuildingBlock: ZUJKAS_clean_linker_0, # of connection points: 2
#     Edge 18, Type (0, 1), BuildingBlock: ZUJKAS_clean_linker_0, # of connection points: 2
#     Edge 19, Type (0, 1), BuildingBlock: ZUJKAS_clean_linker_0, # of connection points: 2
#     Edge 20, Type (0, 1), BuildingBlock: ZUJKAS_clean_linker_0, # of connection points: 2
#     Edge 21, Type (0, 1), BuildingBlock: ZUJKAS_clean_linker_0, # of connection points: 2
#     Edge 22, Type (0, 1), BuildingBlock: ZUJKAS_clean_linker_0, # of connection points: 2
#     Edge 23, Type (0, 1), BuildingBlock: ZUJKAS_clean_linker_0, # of connection points: 2
#     Edge 24, Type (0, 1), BuildingBlock: ZUJKAS_clean_linker_0, # of connection points: 2
#     Edge 25, Type (0, 1), BuildingBlock: ZUJKAS_clean_linker_0, # of connection points: 2
#     Edge 26, Type (0, 1), BuildingBlock: ZUJKAS_clean_linker_0, # of connection points: 2
#     Edge 27, Type (0, 1), BuildingBlock: ZUJKAS_clean_linker_0, # of connection points: 2
#     Edge 28, Type (0, 1), BuildingBlock: ZUJKAS_clean_linker_0, # of connection points: 2
#     Edge 29, Type (0, 1), BuildingBlock: ZUJKAS_clean_linker_0, # of connection points: 2
#     Edge 30, Type (0, 1), BuildingBlock: ZUJKAS_clean_linker_0, # of connection points: 2
#     Edge 31, Type (0, 1), BuildingBlock: ZUJKAS_clean_linker_0, # of connection points: 2
#     Edge 32, Type (0, 1), BuildingBlock: ZUJKAS_clean_linker_0, # of connection points: 2
#     Edge 33, Type (0, 1), BuildingBlock: ZUJKAS_clean_linker_0, # of connection points: 2
#     Edge 34, Type (0, 1), BuildingBlock: ZUJKAS_clean_linker_0, # of connection points: 2
#     Edge 35, Type (0, 1), BuildingBlock: ZUJKAS_clean_linker_0, # of connection points: 2
# Relax obj value: 0.086
# Max RMSD: 0.099
# Mean RMSD: 0.089
data_MOF--net-apo--node1-MIDCAF_clean_sbu_0--node2-KAKCAD_clean_linker_0--edge1-ZUJKAS_clean_linker_0
_symmetry_space_group_name_H-M    P1
_symmetry_Int_Tables_number       1
_symmetry_cell_setting            triclinic
loop_
_symmetry_equiv_pos_as_xyz
'x, y, z'
_cell_length_a     52.84925
_cell_length_b     63.011256
_cell_length_c     56.431859
_cell_angle_alpha  89.961119
_cell_angle_beta   90.002825
_cell_angle_gamma 90.254341
loop_
_atom_site_label
_atom_site_type_symbol
_atom_site_fract_x
_atom_site_fract_y
_atom_site_fract_z
_atom_type_partial_charge
C0 C 0.36933 0.39655 0.34294 0.0
C1 C 0.3949 0.39992 0.34886 0.0
C2 C 0.35512 0.38076 0.35421 0.0
C3 C 0.36612 0.36767 0.37154 0.0
C4 C 0.39184 0.37073 0.37714 0.0
C5 C 0.40601 0.38669 0.36602 0.0
C6 C 0.3507 0.35113 0.3839 0.0
C7 C 0.33202 0.33966 0.37157 0.0
C8 C 0.31666 0.32461 0.38317 0.0
C9 C 0.32073 0.32062 0.40743 0.0
C10 C 0.33966 0.33162 0.42005 0.0
C11 C 0.35427 0.34701 0.40815 0.0
C12 C 0.34435 0.32719 0.44566 0.0
C13 C 0.3242 0.32388 0.46156 0.0
C14 C 0.36923 0.32661 0.45446 0.0
C15 C 0.37386 0.32321 0.47853 0.0
C16 C 0.35376 0.32013 0.49453 0.0
C17 C 0.29638 0.31323 0.36979 0.0
C18 C 0.28187 0.32401 0.3527 0.0
C19 C 0.29149 0.29155 0.37374 0.0
C20 C 0.27267 0.28093 0.36086 0.0
C21 C 0.25838 0.2917 0.34364 0.0
C22 C 0.2632 0.31336 0.33973 0.0
C23 C 0.32885 0.32041 0.48571 0.0
H24 H 0.36018 0.40615 0.32955 0.0
H25 H 0.33532 0.3791 0.34959 0.0
H26 H 0.4011 0.36077 0.39013 0.0
H27 H 0.42555 0.38891 0.37126 0.0
H28 H 0.32969 0.34219 0.35271 0.0
H29 H 0.36806 0.35622 0.418 0.0
H30 H 0.30917 0.30894 0.41652 0.0
H31 H 0.30478 0.32439 0.45545 0.0
H32 H 0.38523 0.3288 0.44271 0.0
H33 H 0.39328 0.32343 0.48464 0.0
H34 H 0.28473 0.3408 0.34949 0.0
H35 H 0.3025 0.28266 0.38649 0.0
H36 H 0.3129 0.31791 0.49745 0.0
H37 H 0.25224 0.32219 0.32688 0.0
H38 H 0.26959 0.26418 0.36412 0.0
C39 C 0.14508 0.09864 0.84592 0.0
C40 C 0.11908 0.09601 0.85033 0.0
C41 C 0.15901 0.11423 0.85781 0.0
C42 C 0.14727 0.12765 0.87437 0.0
C43 C 0.12122 0.12509 0.8787 0.0
C44 C 0.1073 0.10944 0.86684 0.0
C45 C 0.16219 0.14425 0.88698 0.0
C46 C 0.18061 0.15611 0.87481 0.0
C47 C 0.19513 0.17165 0.88647 0.0
C48 C 0.19078 0.17547 0.91071 0.0
C49 C 0.17225 0.1639 0.92322 0.0
C50 C 0.15818 0.14825 0.91119 0.0
C51 C 0.16744 0.16808 0.94883 0.0
C52 C 0.18754 0.17154 0.96473 0.0
C53 C 0.14255 0.16833 0.95762 0.0
C54 C 0.13787 0.1717 0.98169 0.0
C55 C 0.15794 0.17498 0.99767 0.0
C56 C 0.21452 0.18397 0.87307 0.0
C57 C 0.23006 0.17386 0.85631 0.0
C58 C 0.21721 0.20597 0.87641 0.0
C59 C 0.23476 0.2176 0.86308 0.0
C60 C 0.25007 0.20753 0.84609 0.0
C61 C 0.24758 0.18549 0.84298 0.0
C62 C 0.18285 0.17492 0.98887 0.0
H63 H 0.15484 0.08831 0.83364 0.0
H64 H 0.17911 0.11552 0.85433 0.0
H65 H 0.11151 0.13536 0.89107 0.0
H66 H 0.08724 0.10797 0.87044 0.0
H67 H 0.18325 0.15359 0.85598 0.0
H68 H 0.14445 0.13879 0.92084 0.0
H69 H 0.20177 0.18751 0.91981 0.0
H70 H 0.20696 0.17127 0.95861 0.0
H71 H 0.12659 0.16598 0.94586 0.0
H72 H 0.11846 0.17135 0.98783 0.0
H73 H 0.2287 0.15689 0.8535 0.0
H74 H 0.20541 0.21429 0.88901 0.0
H75 H 0.19875 0.17756 1.00063 0.0
H76 H 0.25891 0.17722 0.82996 0.0
H77 H 0.23644 0.23451 0.86621 0.0
C78 C 0.85522 0.09529 0.66333 0.0
C79 C 0.88175 0.09432 0.66211 0.0
C80 C 0.8421 0.11159 0.65199 0.0
C81 C 0.85519 0.12718 0.63899 0.0
C82 C 0.88173 0.12626 0.6378 0.0
C83 C 0.8949 0.11007 0.64938 0.0
C84 C 0.84106 0.14424 0.62665 0.0
C85 C 0.82158 0.15503 0.63838 0.0
C86 C 0.80753 0.17085 0.62681 0.0
C87 C 0.81331 0.17582 0.60307 0.0
C88 C 0.83295 0.16529 0.59107 0.0
C89 C 0.8467 0.14952 0.60307 0.0
C90 C 0.83918 0.17056 0.566 0.0
C91 C 0.81999 0.17357 0.54906 0.0
C92 C 0.86455 0.17209 0.55872 0.0
C93 C 0.87063 0.17616 0.53506 0.0
C94 C 0.8515 0.17886 0.518 0.0
C95 C 0.78715 0.18225 0.63981 0.0
C96 C 0.77136 0.1713 0.65582 0.0
C97 C 0.7838 0.20424 0.63693 0.0
C98 C 0.76535 0.21502 0.64993 0.0
C99 C 0.74993 0.20409 0.66622 0.0
C100 C 0.75307 0.18211 0.66894 0.0
C101 C 0.82609 0.1776 0.5253 0.0
H102 H 0.84461 0.08346 0.67315 0.0
H103 H 0.82163 0.11181 0.65308 0.0
H104 H 0.89231 0.13816 0.62805 0.0
H105 H 0.91534 0.10962 0.648 0.0
H106 H 0.81779 0.15139 0.65682 0.0
H107 H 0.8614 0.14089 0.59383 0.0
H108 H 0.80258 0.18793 0.59392 0.0
H109 H 0.80025 0.17233 0.55404 0.0
H110 H 0.8798 0.17009 0.57135 0.0
H111 H 0.89041 0.17671 0.53007 0.0
H112 H 0.77304 0.15431 0.65817 0.0
H113 H 0.79584 0.21324 0.62505 0.0
H114 H 0.81089 0.17975 0.51266 0.0
H115 H 0.74119 0.17321 0.68106 0.0
H116 H 0.76352 0.23201 0.64761 0.0
C117 C 0.63909 0.3983 0.16324 0.0
C118 C 0.61325 0.40093 0.1581 0.0
C119 C 0.65285 0.38181 0.15294 0.0
C120 C 0.64112 0.3675 0.13726 0.0
C121 C 0.61513 0.36981 0.13256 0.0
C122 C 0.60136 0.38632 0.14288 0.0
C123 C 0.65612 0.35061 0.12539 0.0
C124 C 0.67462 0.3393 0.13798 0.0
C125 C 0.68937 0.32372 0.12677 0.0
C126 C 0.68527 0.31942 0.10258 0.0
C127 C 0.66672 0.33046 0.08969 0.0
C128 C 0.65232 0.34605 0.10127 0.0
C129 C 0.66233 0.32596 0.0641 0.0
C130 C 0.68273 0.32331 0.04837 0.0
C131 C 0.63756 0.32483 0.0551 0.0
C132 C 0.63325 0.32142 0.03097 0.0
C133 C 0.6536 0.31906 0.01514 0.0
C134 C 0.7089 0.31195 0.14048 0.0
C135 C 0.72445 0.32261 0.15689 0.0
C136 C 0.7119 0.28994 0.13758 0.0
C137 C 0.72985 0.27885 0.1509 0.0
C138 C 0.74529 0.2895 0.16743 0.0
C139 C 0.74241 0.31153 0.17018 0.0
C140 C 0.67841 0.31996 0.02415 0.0
H141 H 0.64878 0.40912 0.17511 0.0
H142 H 0.67287 0.38061 0.15683 0.0
H143 H 0.60544 0.35891 0.12079 0.0
H144 H 0.58154 0.38797 0.13838 0.0
H145 H 0.67719 0.34233 0.15672 0.0
H146 H 0.63859 0.35512 0.09127 0.0
H147 H 0.69653 0.30745 0.09377 0.0
H148 H 0.70205 0.32426 0.05468 0.0
H149 H 0.62141 0.32659 0.06675 0.0
H150 H 0.61391 0.3211 0.02465 0.0
H151 H 0.72284 0.33959 0.15938 0.0
H152 H 0.7001 0.2812 0.12527 0.0
H153 H 0.69451 0.31805 0.01248 0.0
H154 H 0.75382 0.32022 0.18286 0.0
H155 H 0.73178 0.26194 0.14809 0.0
C156 C 0.62151 0.61653 0.67191 0.0
C157 C 0.61702 0.5969 0.66084 0.0
C158 C 0.63575 0.63228 0.66052 0.0
C159 C 0.6459 0.62874 0.63782 0.0
C160 C 0.64142 0.60908 0.62679 0.0
C161 C 0.62716 0.59337 0.63814 0.0
C162 C 0.66117 0.64543 0.62572 0.0
C163 C 0.67889 0.65756 0.63848 0.0
C164 C 0.6935 0.67331 0.62722 0.0
C165 C 0.69011 0.67694 0.6028 0.0
C166 C 0.6726 0.66485 0.58972 0.0
C167 C 0.65824 0.64916 0.60132 0.0
C168 C 0.66896 0.66855 0.56394 0.0
C169 C 0.6648 0.68911 0.55512 0.0
C170 C 0.66854 0.65135 0.54812 0.0
C171 C 0.66358 0.65455 0.52405 0.0
C172 C 0.6586 0.675 0.51532 0.0
C173 C 0.71267 0.68551 0.64099 0.0
C174 C 0.7071 0.69293 0.66389 0.0
C175 C 0.73694 0.68923 0.63166 0.0
C176 C 0.75528 0.69993 0.64501 0.0
C177 C 0.74978 0.70724 0.66799 0.0
C178 C 0.72541 0.70368 0.67722 0.0
C179 C 0.65946 0.69228 0.53107 0.0
H180 H 0.61373 0.61983 0.68927 0.0
H181 H 0.63854 0.64735 0.66939 0.0
H182 H 0.64932 0.60568 0.6095 0.0
H183 H 0.62446 0.57828 0.6293 0.0
H184 H 0.68188 0.65428 0.65712 0.0
H185 H 0.6443 0.64018 0.59138 0.0
H186 H 0.70117 0.6891 0.59393 0.0
H187 H 0.6649 0.70264 0.56696 0.0
H188 H 0.67185 0.63535 0.55442 0.0
H189 H 0.66282 0.64091 0.5124 0.0
H190 H 0.68847 0.69056 0.67147 0.0
H191 H 0.74197 0.68343 0.61423 0.0
H192 H 0.65581 0.70823 0.52481 0.0
H193 H 0.72036 0.70941 0.69467 0.0
H194 H 0.77395 0.70209 0.63746 0.0
C195 C 0.82366 0.82081 0.02315 0.0
C196 C 0.84884 0.82103 0.01499 0.0
C197 C 0.81817 0.82439 0.04712 0.0
C198 C 0.83772 0.82834 0.06349 0.0
C199 C 0.86288 0.82819 0.05537 0.0
C200 C 0.86835 0.82465 0.03148 0.0
C201 C 0.83206 0.83321 0.0888 0.0
C202 C 0.81302 0.8221 0.10121 0.0
C203 C 0.80815 0.82657 0.12521 0.0
C204 C 0.82213 0.84255 0.13666 0.0
C205 C 0.84086 0.85404 0.12449 0.0
C206 C 0.8458 0.84919 0.10066 0.0
C207 C 0.85475 0.87152 0.13649 0.0
C208 C 0.84154 0.88674 0.14976 0.0
C209 C 0.88119 0.87336 0.13444 0.0
C210 C 0.89411 0.89015 0.14532 0.0
C211 C 0.88082 0.9056 0.1582 0.0
C212 C 0.78843 0.81473 0.13853 0.0
C213 C 0.76367 0.81304 0.12966 0.0
C214 C 0.79404 0.80578 0.16073 0.0
C215 C 0.77524 0.79545 0.17388 0.0
C216 C 0.75034 0.79417 0.16528 0.0
C217 C 0.74474 0.80302 0.14301 0.0
C218 C 0.85442 0.90365 0.16039 0.0
H219 H 0.80817 0.81787 0.01102 0.0
H220 H 0.79857 0.82454 0.05271 0.0
H221 H 0.87844 0.83087 0.0675 0.0
H222 H 0.88793 0.82523 0.02587 0.0
H223 H 0.80246 0.80959 0.09246 0.0
H224 H 0.85988 0.85838 0.09112 0.0
H225 H 0.81829 0.84614 0.1551 0.0
H226 H 0.82116 0.88582 0.1515 0.0
H227 H 0.89186 0.86177 0.12445 0.0
H228 H 0.91444 0.89134 0.14321 0.0
H229 H 0.75883 0.81991 0.11266 0.0
H230 H 0.81302 0.80681 0.16792 0.0
H231 H 0.8437 0.91524 0.17035 0.0
H232 H 0.72573 0.8021 0.13589 0.0
H233 H 0.78005 0.78884 0.19102 0.0
C234 C 0.12721 0.88678 0.34183 0.0
C235 C 0.12929 0.90774 0.35009 0.0
C236 C 0.14011 0.87036 0.35331 0.0
C237 C 0.15484 0.87458 0.37353 0.0
C238 C 0.15657 0.89549 0.38197 0.0
C239 C 0.14409 0.91193 0.37025 0.0
C240 C 0.16874 0.85731 0.38565 0.0
C241 C 0.18465 0.84386 0.37271 0.0
C242 C 0.19885 0.82809 0.38417 0.0
C243 C 0.19631 0.82538 0.40883 0.0
C244 C 0.18011 0.83855 0.422 0.0
C245 C 0.16667 0.85465 0.41027 0.0
C246 C 0.17664 0.83543 0.4479 0.0
C247 C 0.1707 0.8153 0.45711 0.0
C248 C 0.17759 0.85285 0.46339 0.0
C249 C 0.17188 0.85035 0.48743 0.0
C250 C 0.16466 0.83041 0.49655 0.0
C251 C 0.21715 0.81527 0.37036 0.0
C252 C 0.20993 0.80584 0.34881 0.0
C253 C 0.24239 0.81351 0.37789 0.0
C254 C 0.2602 0.80303 0.36384 0.0
C255 C 0.25305 0.79383 0.34214 0.0
C256 C 0.22766 0.79508 0.33493 0.0
C257 C 0.16464 0.81283 0.48112 0.0
H258 H 0.11595 0.88317 0.3263 0.0
H259 H 0.13842 0.85434 0.34653 0.0
H260 H 0.16792 0.89916 0.39743 0.0
H261 H 0.14582 0.92794 0.37707 0.0
H262 H 0.1868 0.84627 0.35378 0.0
H263 H 0.15405 0.86481 0.42024 0.0
H264 H 0.20704 0.81313 0.41778 0.0
H265 H 0.16964 0.80162 0.44552 0.0
H266 H 0.18247 0.8685 0.45683 0.0
H267 H 0.17277 0.86417 0.49878 0.0
H268 H 0.19057 0.80693 0.34262 0.0
H269 H 0.24851 0.82079 0.39432 0.0
H270 H 0.1589 0.79727 0.48732 0.0
H271 H 0.22164 0.78818 0.31827 0.0
H272 H 0.27961 0.80213 0.36993 0.0
C273 C 0.32365 0.67619 0.98557 0.0
C274 C 0.3487 0.67544 0.99399 0.0
C275 C 0.31837 0.67322 0.96144 0.0
C276 C 0.33802 0.66936 0.9452 0.0
C277 C 0.36304 0.66877 0.95365 0.0
C278 C 0.36829 0.6717 0.97767 0.0
C279 C 0.33274 0.66583 0.91954 0.0
C280 C 0.31467 0.67809 0.90743 0.0
C281 C 0.3109 0.67546 0.88295 0.0
C282 C 0.32522 0.6604 0.87057 0.0
C283 C 0.34268 0.6474 0.88242 0.0
C284 C 0.34624 0.65027 0.90693 0.0
C285 C 0.35669 0.63052 0.86936 0.0
C286 C 0.34493 0.61914 0.85092 0.0
C287 C 0.3817 0.6253 0.87551 0.0
C288 C 0.39431 0.60877 0.86404 0.0
C289 C 0.38241 0.59718 0.84583 0.0
C290 C 0.29167 0.68806 0.87011 0.0
C291 C 0.26635 0.68794 0.87763 0.0
C292 C 0.29824 0.69921 0.84941 0.0
C293 C 0.27977 0.70991 0.83636 0.0
C294 C 0.25432 0.7093 0.8435 0.0
C295 C 0.24779 0.6983 0.86431 0.0
C296 C 0.35769 0.60287 0.83918 0.0
H297 H 0.30811 0.67919 0.9976 0.0
H298 H 0.29887 0.67363 0.95558 0.0
H299 H 0.3787 0.66613 0.94163 0.0
H300 H 0.38778 0.67069 0.98349 0.0
H301 H 0.30404 0.69011 0.91682 0.0
H302 H 0.35915 0.64003 0.91643 0.0
H303 H 0.32243 0.65867 0.85165 0.0
H304 H 0.3256 0.62243 0.8458 0.0
H305 H 0.3916 0.63391 0.88931 0.0
H306 H 0.41319 0.60477 0.86993 0.0
H307 H 0.26081 0.67931 0.89343 0.0
H308 H 0.31766 0.69953 0.84328 0.0
H309 H 0.34799 0.59463 0.82499 0.0
H310 H 0.22831 0.69775 0.87028 0.0
H311 H 0.28527 0.71824 0.82035 0.0
Zn312 Zn 0.02459 0.14383 0.29729 0.0
Zn313 Zn 0.98236 0.14772 0.21325 0.0
Zn314 Zn 0.00364 0.14553 0.25565 0.0
C315 C 0.02963 0.16673 0.20876 0.0
C316 C 0.98581 0.10463 0.2248 0.0
O317 O 0.97806 0.16149 0.28159 0.0
O318 O 1.00058 0.16203 0.31462 0.0
C319 C 0.05951 0.16405 0.2685 0.0
O320 O 0.0307 0.16134 0.2308 0.0
O321 O 0.00987 0.16309 0.19684 0.0
O322 O 0.9789 0.11667 0.20813 0.0
O323 O 0.99555 0.11256 0.24381 0.0
O324 O 0.05786 0.15605 0.28895 0.0
O325 O 0.04095 0.16222 0.25377 0.0
O326 O 0.0093 0.1116 0.26524 0.0
O327 O 0.02269 0.11282 0.30237 0.0
C328 C 0.01646 0.10215 0.28437 0.0
O329 O 0.96753 0.16352 0.25896 0.0
O330 O 0.95209 0.16396 0.22246 0.0
C331 C 0.98065 0.16678 0.30354 0.0
C332 C 0.95031 0.16902 0.244 0.0
Zn333 Zn 0.52516 0.35739 0.71316 0.0
Zn334 Zn 0.48231 0.3552 0.79747 0.0
Zn335 Zn 0.50365 0.35547 0.75534 0.0
C336 C 0.4887 0.3974 0.7861 0.0
C337 C 0.44863 0.33519 0.76669 0.0
O338 O 0.5402 0.33832 0.75764 0.0
O339 O 0.55741 0.3439 0.72241 0.0
C340 C 0.51821 0.39899 0.72674 0.0
O341 O 0.49657 0.38864 0.76683 0.0
O342 O 0.48247 0.38613 0.80365 0.0
O343 O 0.44999 0.34196 0.78769 0.0
O344 O 0.46707 0.3382 0.7521 0.0
O345 O 0.52491 0.38858 0.70872 0.0
O346 O 0.5102 0.38923 0.74541 0.0
O347 O 0.4779 0.33961 0.72946 0.0
O348 O 0.49975 0.33999 0.69603 0.0
C349 C 0.48002 0.33487 0.70732 0.0
O350 O 0.52977 0.33928 0.78061 0.0
O351 O 0.50769 0.33753 0.81385 0.0
C352 C 0.55867 0.33602 0.74294 0.0
C353 C 0.52768 0.33355 0.80249 0.0
Zn354 Zn 0.02448 0.85689 0.79701 0.0
Zn355 Zn 0.98082 0.85659 0.71268 0.0
Zn356 Zn 0.00219 0.8557 0.75493 0.0
C357 C 0.98688 0.89851 0.7255 0.0
C358 C 0.94715 0.83573 0.74324 0.0
O359 O 0.03862 0.83843 0.75198 0.0
O360 O 0.05645 0.84327 0.78708 0.0
C361 C 0.01828 0.89863 0.7839 0.0
O362 O 0.99517 0.88914 0.74429 0.0
O363 O 0.98049 0.88774 0.70761 0.0
O364 O 0.94876 0.84297 0.72243 0.0
O365 O 0.96549 0.83846 0.75802 0.0
O366 O 0.02493 0.88803 0.80181 0.0
O367 O 0.00969 0.88915 0.76529 0.0
O368 O 0.97642 0.83986 0.78076 0.0
O369 O 0.99871 0.83964 0.81395 0.0
C370 C 0.97872 0.83492 0.80284 0.0
O371 O 0.02783 0.83957 0.72931 0.0
O372 O 0.00616 0.83914 0.69576 0.0
C373 C 0.05734 0.83584 0.76633 0.0
C374 C 0.0258 0.83438 0.70729 0.0
Zn375 Zn 0.52622 0.64466 0.21472 0.0
Zn376 Zn 0.47589 0.6414 0.29561 0.0
Zn377 Zn 0.50109 0.6431 0.25508 0.0
C378 C 0.52201 0.66218 0.30469 0.0
C379 C 0.48414 0.59966 0.28215 0.0
O380 O 0.47596 0.65839 0.22858 0.0
O381 O 0.4994 0.65907 0.1961 0.0
C382 C 0.55524 0.66723 0.24662 0.0
O383 O 0.52512 0.65856 0.28239 0.0
O384 O 0.50172 0.65666 0.31485 0.0
O385 O 0.47316 0.61021 0.29808 0.0
O386 O 0.49573 0.60916 0.26502 0.0
O387 O 0.5556 0.66131 0.22529 0.0
O388 O 0.53663 0.66203 0.26027 0.0
O389 O 0.50863 0.60988 0.24337 0.0
O390 O 0.53127 0.61386 0.21064 0.0
C391 C 0.52104 0.60189 0.22584 0.0
O392 O 0.46441 0.66037 0.2509 0.0
O393 O 0.44538 0.6567 0.28562 0.0
C394 C 0.47877 0.66304 0.20647 0.0
C395 C 0.4454 0.6638 0.26472 0.0
H396 H 0.07927 0.91016 0.33814 0.0
H397 H 0.05695 0.94079 0.32155 0.0
H398 H 0.12756 0.97527 0.3174 0.0
H399 H 0.14964 0.94502 0.33481 0.0
H400 H 0.0938 0.99804 0.33853 0.0
H401 H 0.05004 0.96609 0.25681 0.0
H402 H 0.04157 0.95101 0.28261 0.0
H403 H 0.07406 0.95189 0.27304 0.0
C404 C 0.09 0.92419 0.3333 0.0
C405 C 0.11612 0.92532 0.33784 0.0
C406 C 0.07729 0.94163 0.32365 0.0
C407 C 0.09059 0.9603 0.31788 0.0
C408 C 0.11686 0.96107 0.32166 0.0
H409 H 0.03758 0.07652 0.25083 0.0
H410 H 0.0531 0.04024 0.25721 0.0
C411 C 0.12947 0.94382 0.33166 0.0
C412 C 0.077 0.97979 0.31031 0.0
H413 H 0.03467 0.99976 0.27028 0.0
C414 C 0.08103 0.99838 0.32348 0.0
C415 C 0.06046 0.98037 0.29055 0.0
C416 C 0.05646 0.96132 0.27479 0.0
C417 C 0.06894 0.01741 0.31768 0.0
C418 C 0.05149 0.01777 0.29864 0.0
C419 C 0.04769 0.99933 0.28513 0.0
C420 C 0.03758 0.03744 0.29258 0.0
C421 C 0.07541 0.03706 0.3318 0.0
C422 C 0.02247 0.04732 0.30974 0.0
C423 C 0.01402 0.06803 0.30629 0.0
C424 C 0.0199 0.07898 0.28532 0.0
C425 C 0.03278 0.06834 0.26712 0.0
C426 C 0.04165 0.04766 0.27076 0.0
H427 H 0.09392 0.03551 0.34097 0.0
H428 H 0.07615 0.05133 0.32026 0.0
H429 H 0.06071 0.03958 0.34553 0.0
H430 H 0.01857 0.0395 0.32646 0.0
H431 H 0.00395 0.07588 0.3205 0.0
H432 H 0.43314 0.59203 0.83589 0.0
H433 H 0.45412 0.56013 0.82143 0.0
H434 H 0.38176 0.52881 0.81463 0.0
H435 H 0.36083 0.55989 0.83072 0.0
H436 H 0.41295 0.50488 0.83766 0.0
H437 H 0.46251 0.53381 0.75737 0.0
H438 H 0.4706 0.54882 0.78329 0.0
H439 H 0.43863 0.54922 0.7723 0.0
C440 C 0.42164 0.57836 0.83139 0.0
C441 C 0.3952 0.57864 0.83465 0.0
C442 C 0.43368 0.56022 0.82267 0.0
C443 C 0.41952 0.54214 0.81655 0.0
C444 C 0.39311 0.54261 0.81907 0.0
H445 H 0.46875 0.42361 0.75251 0.0
H446 H 0.4544 0.46025 0.75849 0.0
C447 C 0.38111 0.56056 0.8281 0.0
C448 C 0.43218 0.52198 0.80988 0.0
H449 H 0.47488 0.49963 0.77189 0.0
C450 C 0.42635 0.50377 0.82316 0.0
C451 C 0.44954 0.52042 0.79082 0.0
C452 C 0.4555 0.53907 0.77497 0.0
C453 C 0.43741 0.48415 0.81811 0.0
C454 C 0.45562 0.48276 0.79979 0.0
C455 C 0.46126 0.50084 0.78619 0.0
C456 C 0.46842 0.46243 0.79446 0.0
C457 C 0.42903 0.46498 0.83222 0.0
C458 C 0.48215 0.45198 0.81223 0.0
C459 C 0.49001 0.43108 0.80896 0.0
C460 C 0.48488 0.4205 0.78761 0.0
C461 C 0.47302 0.43153 0.76907 0.0
C462 C 0.46483 0.4524 0.77248 0.0
H463 H 0.41028 0.46749 0.84064 0.0
H464 H 0.42786 0.45063 0.82086 0.0
H465 H 0.44293 0.46194 0.84655 0.0
H466 H 0.48564 0.45962 0.82911 0.0
H467 H 0.49927 0.42291 0.82344 0.0
H468 H 0.58113 0.57068 0.64158 0.0
H469 H 0.55916 0.54108 0.66063 0.0
H470 H 0.59682 0.55531 0.72656 0.0
H471 H 0.61949 0.58466 0.70741 0.0
H472 H 0.60091 0.51369 0.71389 0.0
H473 H 0.50086 0.53817 0.70754 0.0
H474 H 0.51667 0.53988 0.67947 0.0
H475 H 0.52681 0.55659 0.70357 0.0
C476 C 0.58468 0.56759 0.66016 0.0
C477 C 0.60215 0.57999 0.67295 0.0
C478 C 0.57181 0.55085 0.67113 0.0
C479 C 0.57599 0.54622 0.69514 0.0
C480 C 0.59308 0.55878 0.70809 0.0
H481 H 0.53288 0.42502 0.76304 0.0
H482 H 0.54365 0.4629 0.76036 0.0
C483 C 0.60595 0.57558 0.69713 0.0
C484 C 0.56445 0.52698 0.70587 0.0
H485 H 0.5083 0.50053 0.71223 0.0
C486 C 0.58063 0.51097 0.71405 0.0
C487 C 0.53798 0.5235 0.70613 0.0
C488 C 0.51957 0.54056 0.69893 0.0
C489 C 0.57119 0.49105 0.72093 0.0
C490 C 0.54482 0.48718 0.71992 0.0
C491 C 0.52851 0.50355 0.71294 0.0
C492 C 0.53435 0.46553 0.72312 0.0
C493 C 0.58963 0.47388 0.7278 0.0
C494 C 0.5245 0.45479 0.70339 0.0
C495 C 0.51811 0.43334 0.70496 0.0
C496 C 0.5212 0.42228 0.72636 0.0
C497 C 0.52987 0.43328 0.74645 0.0
C498 C 0.53626 0.45483 0.74488 0.0
H499 H 0.60957 0.47856 0.72428 0.0
H500 H 0.58772 0.47044 0.74701 0.0
H501 H 0.58546 0.45901 0.71796 0.0
H502 H 0.52291 0.46276 0.68643 0.0
H503 H 0.51151 0.4252 0.6892 0.0
H504 H 0.86754 0.94723 0.15541 0.0
H505 H 0.88988 0.97791 0.17178 0.0
H506 H 0.94643 0.93649 0.20151 0.0
H507 H 0.92437 0.90569 0.18458 0.0
H508 H 0.90064 0.98869 0.21648 0.0
H509 H 0.99017 0.97832 0.16626 0.0
H510 H 0.96191 0.96336 0.15956 0.0
H511 H 0.98134 0.95608 0.1844 0.0
C512 C 0.88469 0.94466 0.1655 0.0
C513 C 0.89427 0.92408 0.16865 0.0
C514 C 0.89748 0.9622 0.17483 0.0
C515 C 0.92004 0.95957 0.18762 0.0
C516 C 0.92941 0.93898 0.19122 0.0
H517 H 0.97525 0.07543 0.2596 0.0
H518 H 0.96352 0.03805 0.25422 0.0
C519 C 0.91676 0.9214 0.18162 0.0
C520 C 0.93346 0.97854 0.19706 0.0
H521 H 0.98837 0.00711 0.19276 0.0
C522 C 0.9199 0.99266 0.21146 0.0
C523 C 0.95858 0.98371 0.19041 0.0
C524 C 0.97383 0.9697 0.17415 0.0
C525 C 0.93031 0.01217 0.2186 0.0
C526 C 0.95534 0.01745 0.21176 0.0
C527 C 0.96928 0.00295 0.19815 0.0
C528 C 0.96618 0.03893 0.21592 0.0
C529 C 0.91384 0.02741 0.23223 0.0
C530 C 0.973 0.05148 0.19638 0.0
C531 C 0.9805 0.07254 0.19951 0.0
C532 C 0.98137 0.08155 0.22227 0.0
C533 C 0.97548 0.06877 0.24194 0.0
C534 C 0.96827 0.04753 0.23882 0.0
H535 H 0.89353 0.0228 0.23155 0.0
H536 H 0.91975 0.02753 0.25109 0.0
H537 H 0.91579 0.04379 0.22516 0.0
H538 H 0.97159 0.04523 0.17854 0.0
H539 H 0.98491 0.08199 0.18399 0.0
H540 H 0.87045 0.05219 0.65989 0.0
H541 H 0.893 0.02279 0.67831 0.0
H542 H 0.94661 0.0668 0.7088 0.0
H543 H 0.92431 0.09639 0.68982 0.0
H544 H 0.97049 0.03376 0.69081 0.0
H545 H 0.89211 0.00353 0.7458 0.0
H546 H 0.88218 0.00518 0.71552 0.0
H547 H 0.8908 0.02903 0.73129 0.0
C548 C 0.88687 0.05563 0.67074 0.0
C549 C 0.8955 0.07659 0.67359 0.0
C550 C 0.89968 0.03882 0.68139 0.0
C551 C 0.92112 0.0426 0.69551 0.0
C552 C 0.92997 0.06352 0.69819 0.0
H553 H 0.97315 0.92462 0.76195 0.0
H554 H 0.96264 0.96242 0.75954 0.0
C555 C 0.91728 0.08038 0.68729 0.0
C556 C 0.93482 0.02447 0.70631 0.0
H557 H 0.92459 0.97789 0.73566 0.0
C558 C 0.96057 0.02174 0.70102 0.0
C559 C 0.92224 0.00907 0.72034 0.0
C560 C 0.89539 0.012 0.72879 0.0
C561 C 0.97344 0.00322 0.70773 0.0
C562 C 0.95998 0.98677 0.71934 0.0
C563 C 0.93485 0.99028 0.72633 0.0
C564 C 0.97044 0.96506 0.72197 0.0
C565 C 1.00119 0.00134 0.70191 0.0
C566 C 0.97864 0.95402 0.70179 0.0
C567 C 0.98509 0.93262 0.70326 0.0
C568 C 0.98328 0.92172 0.7249 0.0
C569 C 0.97546 0.9328 0.7452 0.0
C570 C 0.96924 0.95433 0.74379 0.0
H571 H 0.01055 0.01716 0.70206 0.0
H572 H 0.01112 0.9908 0.71463 0.0
H573 H 0.0033 0.9947 0.68381 0.0
H574 H 0.97894 0.96168 0.68461 0.0
H575 H 0.99074 0.9244 0.68727 0.0
H576 H 0.56469 0.40203 0.17571 0.0
H577 H 0.54111 0.43328 0.18924 0.0
H578 H 0.60643 0.4727 0.17584 0.0
H579 H 0.62982 0.44188 0.16185 0.0
H580 H 0.55337 0.46425 0.2264 0.0
H581 H 0.54838 0.49999 0.13685 0.0
H582 H 0.55552 0.4723 0.14162 0.0
H583 H 0.57983 0.49215 0.14497 0.0
C584 C 0.57398 0.41738 0.17558 0.0
C585 C 0.59913 0.41946 0.16761 0.0
C586 C 0.56053 0.43516 0.18345 0.0
C587 C 0.57195 0.4553 0.18324 0.0
C588 C 0.59719 0.45732 0.17586 0.0
H589 H 0.56499 0.58275 0.21567 0.0
H590 H 0.57224 0.5453 0.20729 0.0
C591 C 0.61062 0.43963 0.16808 0.0
C592 C 0.55768 0.4745 0.19021 0.0
H593 H 0.54196 0.52361 0.16966 0.0
C594 C 0.55032 0.4771 0.21395 0.0
C595 C 0.55339 0.49108 0.17383 0.0
C596 C 0.55945 0.48871 0.14784 0.0
C597 C 0.5406 0.49656 0.22207 0.0
C598 C 0.53827 0.51364 0.20599 0.0
C599 C 0.54397 0.5105 0.18198 0.0
C600 C 0.53356 0.53564 0.21396 0.0
C601 C 0.5343 0.49924 0.24793 0.0
C602 C 0.50941 0.54256 0.22084 0.0
C603 C 0.50521 0.56413 0.22565 0.0
C604 C 0.52515 0.57886 0.22367 0.0
C605 C 0.54933 0.57169 0.21737 0.0
C606 C 0.5535 0.55032 0.21263 0.0
H607 H 0.53792 0.48459 0.25834 0.0
H608 H 0.5457 0.51243 0.25552 0.0
H609 H 0.51404 0.50349 0.24981 0.0
H610 H 0.49373 0.53146 0.22172 0.0
H611 H 0.48631 0.5694 0.23007 0.0
H612 H 0.37809 0.4396 0.33708 0.0
H613 H 0.40184 0.46858 0.31897 0.0
H614 H 0.46907 0.43016 0.31826 0.0
H615 H 0.44518 0.40053 0.33564 0.0
H616 H 0.47315 0.47375 0.33889 0.0
H617 H 0.43056 0.47201 0.24919 0.0
H618 H 0.4079 0.47002 0.27286 0.0
H619 H 0.43063 0.44922 0.26869 0.0
C620 C 0.39777 0.43702 0.33265 0.0
C621 C 0.40958 0.41756 0.33768 0.0
C622 C 0.41135 0.45369 0.32237 0.0
C623 C 0.43708 0.45138 0.317 0.0
C624 C 0.44915 0.43216 0.32215 0.0
H625 H 0.5214 0.56948 0.27993 0.0
H626 H 0.51579 0.53084 0.28493 0.0
C627 C 0.43548 0.41532 0.33226 0.0
C628 C 0.45127 0.46965 0.30708 0.0
H629 H 0.44947 0.50503 0.26135 0.0
C630 C 0.46858 0.48037 0.32168 0.0
C631 C 0.44535 0.47808 0.28456 0.0
C632 C 0.42777 0.46665 0.26778 0.0
C633 C 0.47836 0.50034 0.31521 0.0
C634 C 0.47083 0.50955 0.29346 0.0
C635 C 0.45515 0.49797 0.27805 0.0
C636 C 0.47503 0.53238 0.28843 0.0
C637 C 0.49503 0.51218 0.33248 0.0
C638 C 0.45403 0.54589 0.28837 0.0
C639 C 0.45721 0.5677 0.28571 0.0
C640 C 0.48143 0.57644 0.28267 0.0
C641 C 0.50253 0.56297 0.28205 0.0
C642 C 0.49934 0.541 0.28497 0.0
H643 H 0.49704 0.50364 0.3496 0.0
H644 H 0.51414 0.51431 0.32468 0.0
H645 H 0.48717 0.52818 0.33602 0.0
H646 H 0.43514 0.5396 0.29113 0.0
H647 H 0.44071 0.57783 0.28634 0.0
H648 H 0.08394 0.06912 0.86968 0.0
H649 H 0.06244 0.03928 0.85055 0.0
H650 H 0.09979 0.05417 0.78464 0.0
H651 H 0.12142 0.08412 0.80366 0.0
H652 H 0.03044 0.03625 0.81008 0.0
H653 H 0.12105 0.99275 0.79799 0.0
H654 H 0.11856 0.01572 0.81689 0.0
H655 H 0.11969 0.01887 0.78527 0.0
C656 C 0.08731 0.06626 0.85103 0.0
C657 C 0.10458 0.07888 0.83825 0.0
C658 C 0.07503 0.04918 0.84013 0.0
C659 C 0.07979 0.04435 0.81628 0.0
C660 C 0.09622 0.0574 0.80319 0.0
H661 H 0.03623 0.92397 0.74839 0.0
H662 H 0.04783 0.96171 0.75132 0.0
C663 C 0.10859 0.07446 0.8141 0.0
C664 C 0.06856 0.02495 0.80568 0.0
H665 H 0.08385 0.97534 0.78625 0.0
C666 C 0.0421 0.02301 0.8046 0.0
C667 C 0.08384 0.00775 0.7984 0.0
C668 C 0.11235 0.00869 0.7998 0.0
C669 C 0.03051 0.00405 0.79713 0.0
C670 C 0.0458 0.98657 0.79098 0.0
C671 C 0.07221 0.98884 0.79093 0.0
C672 C 0.03511 0.96504 0.78756 0.0
C673 C 0.00203 0.00267 0.79629 0.0
C674 C 0.02392 0.95457 0.80687 0.0
C675 C 0.01749 0.93312 0.80528 0.0
C676 C 0.02192 0.92182 0.78428 0.0
C677 C 0.03229 0.93246 0.76464 0.0
C678 C 0.03894 0.95394 0.76631 0.0
H679 H 0.99334 0.01864 0.79488 0.0
H680 H 0.99564 0.99284 0.78106 0.0
H681 H 0.99504 0.99511 0.81282 0.0
H682 H 0.0213 0.96272 0.82358 0.0
H683 H 0.0097 0.9252 0.8207 0.0
H684 H 0.18416 0.15881 0.03565 0.0
H685 H 0.17348 0.16172 0.07774 0.0
H686 H 0.10886 0.20013 0.06006 0.0
H687 H 0.11992 0.19804 0.01812 0.0
H688 H 0.13482 0.21464 0.10034 0.0
H689 H 0.11457 0.12793 0.10574 0.0
H690 H 0.14582 0.13529 0.09615 0.0
H691 H 0.11902 0.14139 0.07782 0.0
C692 C 0.16793 0.1682 0.04073 0.0
C693 C 0.15272 0.17798 0.02342 0.0
C694 C 0.16172 0.16967 0.06481 0.0
C695 C 0.14011 0.18082 0.07202 0.0
C696 C 0.12554 0.19133 0.0549 0.0
H697 H 0.02967 0.19592 0.17365 0.0
H698 H 0.06323 0.2022 0.1449 0.0
C699 C 0.13176 0.18993 0.03088 0.0
C700 C 0.13159 0.18067 0.09712 0.0
H701 H 0.10552 0.14834 0.1392 0.0
C702 C 0.12877 0.20011 0.109 0.0
C703 C 0.12387 0.16169 0.10851 0.0
C704 C 0.12575 0.14038 0.09643 0.0
C705 C 0.11743 0.20115 0.1315 0.0
C706 C 0.10835 0.18231 0.14224 0.0
C707 C 0.1126 0.16277 0.13102 0.0
C708 C 0.09084 0.18262 0.16283 0.0
C709 C 0.11462 0.22248 0.14328 0.0
C710 C 0.09531 0.16997 0.18293 0.0
C711 C 0.076 0.16641 0.19955 0.0
C712 C 0.0519 0.17518 0.19601 0.0
C713 C 0.04812 0.18904 0.17685 0.0
C714 C 0.06738 0.19274 0.16045 0.0
H715 H 0.12998 0.23351 0.13774 0.0
H716 H 0.09636 0.22961 0.13784 0.0
H717 H 0.11482 0.22103 0.16289 0.0
H718 H 0.1132 0.16186 0.18501 0.0
H719 H 0.0793 0.15542 0.21398 0.0
H720 H 0.32721 0.33612 0.53244 0.0
H721 H 0.33804 0.33371 0.5745 0.0
H722 H 0.40345 0.29615 0.55713 0.0
H723 H 0.3921 0.29753 0.51525 0.0
H724 H 0.3796 0.28178 0.59752 0.0
H725 H 0.39503 0.36916 0.6019 0.0
H726 H 0.36388 0.36085 0.5931 0.0
H727 H 0.39046 0.35541 0.57422 0.0
C728 C 0.34362 0.32698 0.53757 0.0
C729 C 0.35898 0.31728 0.52033 0.0
C730 C 0.34995 0.32583 0.56165 0.0
C731 C 0.37188 0.31515 0.56895 0.0
C732 C 0.38655 0.30463 0.55192 0.0
H733 H 0.48335 0.30675 0.67129 0.0
H734 H 0.45087 0.29877 0.64193 0.0
C735 C 0.38016 0.30564 0.52792 0.0
C736 C 0.38061 0.31583 0.594 0.0
H737 H 0.40462 0.34949 0.63585 0.0
C738 C 0.38473 0.29661 0.60604 0.0
C739 C 0.38722 0.33519 0.60521 0.0
C740 C 0.38415 0.35633 0.59296 0.0
C741 C 0.39621 0.29621 0.62851 0.0
C742 C 0.40397 0.31548 0.63913 0.0
C743 C 0.3985 0.33473 0.62774 0.0
C744 C 0.42125 0.31609 0.65988 0.0
C745 C 0.40058 0.27511 0.64043 0.0
C746 C 0.41529 0.32802 0.68016 0.0
C747 C 0.43393 0.33249 0.69717 0.0
C748 C 0.45885 0.32542 0.69381 0.0
C749 C 0.46426 0.31231 0.67435 0.0
C750 C 0.44564 0.30765 0.6576 0.0
H751 H 0.38649 0.2631 0.63452 0.0
H752 H 0.41966 0.26923 0.63559 0.0
H753 H 0.39962 0.27657 0.66002 0.0
H754 H 0.39664 0.33486 0.68214 0.0
H755 H 0.42936 0.34292 0.71179 0.0
H756 H 0.61717 0.29454 0.99394 0.0
H757 H 0.60639 0.29282 0.95195 0.0
H758 H 0.66838 0.33508 0.9356 0.0
H759 H 0.67879 0.33748 0.97781 0.0
H760 H 0.62462 0.34812 0.91603 0.0
H761 H 0.63709 0.26319 0.89551 0.0
H762 H 0.6175 0.26675 0.92112 0.0
H763 H 0.65008 0.27527 0.92189 0.0
C764 C 0.62863 0.30339 0.98142 0.0
C765 C 0.64877 0.31624 0.9893 0.0
C766 C 0.62268 0.30212 0.95733 0.0
C767 C 0.63685 0.3135 0.9405 0.0
C768 C 0.65735 0.32596 0.94822 0.0
H769 H 0.57831 0.34234 0.7974 0.0
H770 H 0.6114 0.33509 0.82688 0.0
C771 C 0.66334 0.32724 0.97236 0.0
C772 C 0.62841 0.31414 0.91536 0.0
H773 H 0.60834 0.28251 0.86986 0.0
C774 C 0.62166 0.33383 0.90566 0.0
C775 C 0.62463 0.2955 0.90179 0.0
C776 C 0.63297 0.27402 0.91054 0.0
C777 C 0.60947 0.33526 0.8836 0.0
C778 C 0.60426 0.31648 0.87069 0.0
C779 C 0.61236 0.29689 0.87974 0.0
C780 C 0.58698 0.31668 0.84993 0.0
C781 C 0.60065 0.35673 0.87512 0.0
C782 C 0.56289 0.30751 0.8523 0.0
C783 C 0.54416 0.31147 0.83548 0.0
C784 C 0.54918 0.32455 0.81585 0.0
C785 C 0.57397 0.33206 0.81225 0.0
C786 C 0.59279 0.32813 0.82921 0.0
H787 H 0.60309 0.36923 0.88881 0.0
H788 H 0.61172 0.36147 0.85926 0.0
H789 H 0.58037 0.35605 0.86999 0.0
H790 H 0.558 0.29855 0.86806 0.0
H791 H 0.52524 0.30541 0.83865 0.0
H792 H 0.88945 0.20383 0.50005 0.0
H793 H 0.90406 0.2059 0.45903 0.0
H794 H 0.84375 0.16396 0.43733 0.0
H795 H 0.82921 0.16142 0.4785 0.0
H796 H 0.91777 0.16613 0.43426 0.0
H797 H 0.8456 0.21403 0.3864 0.0
H798 H 0.85077 0.21662 0.41795 0.0
H799 H 0.83489 0.19364 0.4065 0.0
C800 C 0.87915 0.19514 0.48657 0.0
C801 C 0.85831 0.18227 0.49265 0.0
C802 C 0.8874 0.1965 0.4631 0.0
C803 C 0.87487 0.18522 0.44515 0.0
C804 C 0.85342 0.17307 0.45088 0.0
H805 H 0.93061 0.15559 0.30309 0.0
H806 H 0.90062 0.16215 0.33559 0.0
C807 C 0.84516 0.17164 0.47443 0.0
C808 C 0.88626 0.18417 0.42119 0.0
H809 H 0.87969 0.20065 0.36373 0.0
C810 C 0.9094 0.17362 0.41884 0.0
C811 C 0.87509 0.19373 0.40108 0.0
C812 C 0.85025 0.20526 0.40292 0.0
C813 C 0.92194 0.17263 0.39702 0.0
C814 C 0.91135 0.18289 0.37705 0.0
C815 C 0.88781 0.19296 0.37913 0.0
C816 C 0.92546 0.18372 0.35436 0.0
C817 C 0.94658 0.16065 0.39554 0.0
C818 C 0.94856 0.19473 0.35348 0.0
C819 C 0.96568 0.19085 0.3352 0.0
C820 C 0.9598 0.17619 0.31728 0.0
C821 C 0.93547 0.16711 0.31661 0.0
C822 C 0.91839 0.17077 0.3352 0.0
H823 H 0.94895 0.14953 0.41066 0.0
H824 H 0.94775 0.15149 0.37877 0.0
H825 H 0.96257 0.17212 0.39589 0.0
H826 H 0.95425 0.20492 0.36801 0.0
H827 H 0.98431 0.19805 0.33608 0.0
H828 H 0.88833 0.79905 0.99541 0.0
H829 H 0.90087 0.79762 0.95381 0.0
H830 H 0.83518 0.83411 0.93456 0.0
H831 H 0.82308 0.83649 0.97633 0.0
H832 H 0.87786 0.7826 0.91296 0.0
H833 H 0.89254 0.87005 0.9081 0.0
H834 H 0.88765 0.8564 0.93582 0.0
H835 H 0.86134 0.86153 0.91651 0.0
C836 C 0.87658 0.80689 0.98239 0.0
C837 C 0.8549 0.81819 0.98935 0.0
C838 C 0.88365 0.80587 0.95855 0.0
C839 C 0.86922 0.81607 0.94108 0.0
C840 C 0.84688 0.82647 0.94777 0.0
H841 H 0.92815 0.84351 0.79862 0.0
H842 H 0.89544 0.83577 0.82839 0.0
C843 C 0.83984 0.8276 0.97167 0.0
C844 C 0.87853 0.81667 0.91621 0.0
H845 H 0.90287 0.85027 0.87442 0.0
C846 C 0.88302 0.79742 0.9044 0.0
C847 C 0.88516 0.83601 0.90495 0.0
C848 C 0.88165 0.85719 0.91699 0.0
C849 C 0.8948 0.79697 0.88206 0.0
C850 C 0.90253 0.81624 0.87138 0.0
C851 C 0.89679 0.83551 0.88257 0.0
C852 C 0.91989 0.81684 0.85067 0.0
C853 C 0.89941 0.77583 0.87035 0.0
C854 C 0.9442 0.80823 0.85292 0.0
C855 C 0.96281 0.81268 0.83607 0.0
C856 C 0.95749 0.82578 0.81656 0.0
C857 C 0.93266 0.8331 0.8133 0.0
C858 C 0.91402 0.82881 0.83036 0.0
H859 H 0.88521 0.76384 0.8761 0.0
H860 H 0.89881 0.7772 0.85074 0.0
H861 H 0.91838 0.76997 0.87555 0.0
H862 H 0.94938 0.79933 0.8686 0.0
H863 H 0.98183 0.80693 0.83908 0.0
H864 H 0.61896 0.69797 0.49812 0.0
H865 H 0.60391 0.69985 0.45718 0.0
H866 H 0.66651 0.66108 0.43461 0.0
H867 H 0.68124 0.65867 0.4757 0.0
H868 H 0.62326 0.71388 0.41547 0.0
H869 H 0.60747 0.62666 0.41113 0.0
H870 H 0.61501 0.64007 0.43843 0.0
H871 H 0.63952 0.63436 0.41728 0.0
C872 C 0.62969 0.69006 0.48438 0.0
C873 C 0.65113 0.67799 0.49014 0.0
C874 C 0.62106 0.69112 0.46098 0.0
C875 C 0.63376 0.68024 0.44284 0.0
C876 C 0.65597 0.66912 0.44837 0.0
H877 H 0.57306 0.65593 0.30017 0.0
H878 H 0.60537 0.66349 0.33037 0.0
C879 C 0.66443 0.66781 0.47183 0.0
C880 C 0.62289 0.67978 0.41852 0.0
H881 H 0.59717 0.64639 0.37725 0.0
C882 C 0.6178 0.6991 0.40702 0.0
C883 C 0.61575 0.66049 0.40741 0.0
C884 C 0.61948 0.63922 0.41923 0.0
C885 C 0.60513 0.69965 0.38511 0.0
C886 C 0.59733 0.68042 0.37446 0.0
C887 C 0.60343 0.6611 0.38537 0.0
C888 C 0.57976 0.67987 0.35397 0.0
C889 C 0.59968 0.7208 0.37374 0.0
C890 C 0.55489 0.68705 0.35696 0.0
C891 C 0.53648 0.68261 0.33992 0.0
C892 C 0.5426 0.67102 0.31946 0.0
C893 C 0.5679 0.66515 0.31561 0.0
C894 C 0.58632 0.66935 0.3329 0.0
H895 H 0.61289 0.73331 0.38016 0.0
H896 H 0.60106 0.71977 0.35414 0.0
H897 H 0.58014 0.72569 0.37835 0.0
H898 H 0.5493 0.69486 0.37322 0.0
H899 H 0.51712 0.68728 0.34336 0.0
H900 H 0.38844 0.6971 0.01383 0.0
H901 H 0.40072 0.69844 0.05547 0.0
H902 H 0.33421 0.66232 0.07432 0.0
H903 H 0.32234 0.66005 0.03244 0.0
H904 H 0.37768 0.71368 0.09599 0.0
H905 H 0.3907 0.62615 0.10137 0.0
H906 H 0.38626 0.6397 0.07354 0.0
H907 H 0.35974 0.63493 0.09278 0.0
C908 C 0.37646 0.68931 0.02677 0.0
C909 C 0.35462 0.67814 0.01966 0.0
C910 C 0.38338 0.69028 0.05064 0.0
C911 C 0.36863 0.68017 0.06801 0.0
C912 C 0.34615 0.66989 0.06119 0.0
H913 H 0.42811 0.65423 0.21079 0.0
H914 H 0.3953 0.66133 0.18099 0.0
C915 C 0.33925 0.66881 0.03723 0.0
C916 C 0.37778 0.6796 0.09292 0.0
H917 H 0.40193 0.64609 0.13472 0.0
C918 C 0.38264 0.69888 0.10461 0.0
C919 C 0.38414 0.66028 0.10426 0.0
C920 C 0.38016 0.63907 0.09236 0.0
C921 C 0.39464 0.69938 0.12683 0.0
C922 C 0.40221 0.68013 0.13753 0.0
C923 C 0.396 0.66083 0.12654 0.0
C924 C 0.41989 0.6796 0.15798 0.0
C925 C 0.39976 0.72055 0.13837 0.0
C926 C 0.44435 0.68797 0.15524 0.0
C927 C 0.46302 0.68385 0.17208 0.0
C928 C 0.45763 0.67135 0.19208 0.0
C929 C 0.4327 0.66417 0.19571 0.0
C930 C 0.414 0.66811 0.17864 0.0
H931 H 0.3858 0.73262 0.1326 0.0
H932 H 0.39923 0.71928 0.158 0.0
H933 H 0.41884 0.72623 0.13306 0.0
H934 H 0.44951 0.69651 0.13928 0.0
H935 H 0.48209 0.68954 0.1688 0.0
H936 H 0.17143 0.79701 0.52764 0.0
H937 H 0.15262 0.79251 0.56704 0.0
H938 H 0.11953 0.85474 0.56192 0.0
H939 H 0.13692 0.85895 0.52229 0.0
H940 H 0.15528 0.8153 0.60991 0.0
H941 H 0.05842 0.81651 0.57262 0.0
H942 H 0.08617 0.814 0.55426 0.0
H943 H 0.07636 0.83968 0.5647 0.0
C944 C 0.16004 0.80971 0.53482 0.0
C945 C 0.15556 0.82827 0.52153 0.0
C946 C 0.14952 0.80718 0.55747 0.0
C947 C 0.13432 0.82314 0.56727 0.0
C948 C 0.13084 0.84205 0.55456 0.0
H949 H 0.07447 0.84857 0.70572 0.0
H950 H 0.10437 0.8417 0.67351 0.0
C951 C 0.14112 0.84453 0.53193 0.0
C952 C 0.12087 0.81978 0.59011 0.0
H953 H 0.06185 0.82077 0.61438 0.0
C954 C 0.13482 0.81625 0.61094 0.0
C955 C 0.09416 0.82052 0.59138 0.0
C956 C 0.07788 0.82266 0.56952 0.0
C957 C 0.12277 0.81433 0.63314 0.0
C958 C 0.09613 0.81641 0.63453 0.0
C959 C 0.08226 0.81921 0.61351 0.0
C960 C 0.08188 0.81675 0.65735 0.0
C961 C 0.1387 0.80997 0.65476 0.0
C962 C 0.05964 0.8046 0.65963 0.0
C963 C 0.04228 0.80897 0.67761 0.0
C964 C 0.04711 0.82519 0.69404 0.0
C965 C 0.07053 0.83576 0.69343 0.0
C966 C 0.08768 0.83179 0.67501 0.0
H967 H 0.15629 0.80138 0.64998 0.0
H968 H 0.14434 0.82527 0.66297 0.0
H969 H 0.12815 0.80046 0.66811 0.0
H970 H 0.05475 0.79283 0.64639 0.0
H971 H 0.02428 0.80067 0.67769 0.0
H972 H 0.2487 0.2941 0.29597 0.0
H973 H 0.21532 0.27573 0.27363 0.0
H974 H 0.18976 0.24541 0.33787 0.0
H975 H 0.22281 0.26382 0.36033 0.0
H976 H 0.20655 0.23008 0.27043 0.0
H977 H 0.12527 0.27339 0.30894 0.0
H978 H 0.15734 0.28341 0.3102 0.0
H979 H 0.14697 0.2633 0.33068 0.0
C980 C 0.23582 0.28364 0.30536 0.0
C981 C 0.23835 0.28045 0.32994 0.0
C982 C 0.21687 0.2731 0.29255 0.0
C983 C 0.19991 0.25943 0.30416 0.0
C984 C 0.20247 0.25612 0.32864 0.0
H985 H 0.10755 0.15562 0.28166 0.0
H986 H 0.14295 0.18051 0.28262 0.0
C987 C 0.2215 0.2665 0.34141 0.0
C988 C 0.17977 0.24815 0.29081 0.0
H989 H 0.11586 0.24034 0.28981 0.0
C990 C 0.18668 0.23256 0.27431 0.0
C991 C 0.15386 0.2517 0.29552 0.0
C992 C 0.14533 0.269 0.31213 0.0
C993 C 0.16838 0.21938 0.2637 0.0
C994 C 0.14263 0.22181 0.26991 0.0
C995 C 0.13562 0.23842 0.28508 0.0
C996 C 0.12325 0.20553 0.26402 0.0
C997 C 0.17683 0.20252 0.24653 0.0
C998 C 0.10053 0.21107 0.25264 0.0
C999 C 0.0802 0.19669 0.25191 0.0
C1000 C 0.08225 0.17681 0.26301 0.0
C1001 C 0.10553 0.17084 0.27293 0.0
C1002 C 0.12583 0.18503 0.27337 0.0
H1003 H 0.19474 0.20716 0.23757 0.0
H1004 H 0.18035 0.18756 0.25637 0.0
H1005 H 0.16215 0.19937 0.23288 0.0
H1006 H 0.09809 0.22689 0.24548 0.0
H1007 H 0.06236 0.20173 0.24438 0.0
H1008 H 0.29832 0.19637 0.83326 0.0
H1009 H 0.32921 0.21762 0.81114 0.0
H1010 H 0.27488 0.26809 0.80456 0.0
H1011 H 0.24368 0.24686 0.82625 0.0
H1012 H 0.32522 0.2397 0.76327 0.0
H1013 H 0.33829 0.29286 0.84112 0.0
H1014 H 0.32441 0.26672 0.84365 0.0
H1015 H 0.30623 0.28821 0.83171 0.0
C1016 C 0.29276 0.21184 0.82678 0.0
C1017 C 0.26856 0.21998 0.83174 0.0
C1018 C 0.31045 0.22395 0.81414 0.0
C1019 C 0.30432 0.24442 0.80634 0.0
C1020 C 0.28 0.25236 0.81061 0.0
H1021 H 0.40038 0.34883 0.76599 0.0
H1022 H 0.36272 0.32635 0.76925 0.0
C1023 C 0.26228 0.24027 0.82318 0.0
C1024 C 0.32392 0.25811 0.79537 0.0
H1025 H 0.3607 0.30148 0.80658 0.0
C1026 C 0.33298 0.25329 0.77261 0.0
C1027 C 0.33396 0.27574 0.80767 0.0
C1028 C 0.32544 0.28121 0.83246 0.0
C1029 C 0.35171 0.2659 0.76169 0.0
C1030 C 0.3619 0.28347 0.77412 0.0
C1031 C 0.35271 0.28819 0.79688 0.0
C1032 C 0.38295 0.29681 0.76481 0.0
C1033 C 0.36012 0.26046 0.7369 0.0
C1034 C 0.40663 0.2878 0.75966 0.0
C1035 C 0.42808 0.30075 0.75713 0.0
C1036 C 0.42613 0.32277 0.76021 0.0
C1037 C 0.40221 0.33187 0.76332 0.0
C1038 C 0.38075 0.31902 0.76534 0.0
H1039 H 0.34524 0.25149 0.7272 0.0
H1040 H 0.365 0.27495 0.72663 0.0
H1041 H 0.37717 0.25027 0.73787 0.0
H1042 H 0.40899 0.27074 0.75963 0.0
H1043 H 0.44648 0.29342 0.75519 0.0
H1044 H 0.73984 0.20029 0.71365 0.0
H1045 H 0.70773 0.21929 0.73675 0.0
H1046 H 0.68459 0.25285 0.67384 0.0
H1047 H 0.71644 0.2339 0.65065 0.0
H1048 H 0.70222 0.26609 0.74088 0.0
H1049 H 0.61839 0.2255 0.70247 0.0
H1050 H 0.64982 0.21434 0.70136 0.0
H1051 H 0.64087 0.23485 0.68091 0.0
C1052 C 0.72776 0.21161 0.70473 0.0
C1053 C 0.7306 0.21558 0.68031 0.0
C1054 C 0.70955 0.22249 0.71796 0.0
C1055 C 0.69368 0.23727 0.70692 0.0
C1056 C 0.69652 0.24132 0.68261 0.0
H1057 H 0.60713 0.34318 0.72991 0.0
H1058 H 0.64131 0.31737 0.72924 0.0
C1059 C 0.71483 0.23061 0.66943 0.0
C1060 C 0.67431 0.24889 0.72067 0.0
H1061 H 0.61089 0.25845 0.72224 0.0
C1062 C 0.6822 0.26418 0.73719 0.0
C1063 C 0.64822 0.24607 0.71616 0.0
C1064 C 0.63871 0.22917 0.69942 0.0
C1065 C 0.66469 0.27782 0.74802 0.0
C1066 C 0.63878 0.27614 0.742 0.0
C1067 C 0.63077 0.25978 0.72684 0.0
C1068 C 0.62034 0.29299 0.74794 0.0
C1069 C 0.67416 0.29439 0.76515 0.0
C1070 C 0.59735 0.2881 0.75929 0.0
C1071 C 0.57773 0.303 0.75983 0.0
C1072 C 0.58077 0.32275 0.7486 0.0
C1073 C 0.60436 0.32807 0.73874 0.0
C1074 C 0.62397 0.31336 0.73848 0.0
H1075 H 0.69184 0.28917 0.77403 0.0
H1076 H 0.67846 0.30922 0.7553 0.0
H1077 H 0.65974 0.298 0.77888 0.0
H1078 H 0.59411 0.27239 0.76651 0.0
H1079 H 0.55962 0.29846 0.76732 0.0
H1080 H 0.74026 0.25038 0.18829 0.0
H1081 H 0.77228 0.23043 0.21019 0.0
H1082 H 0.8255 0.28177 0.2006 0.0
H1083 H 0.79371 0.30176 0.17855 0.0
H1084 H 0.81817 0.21748 0.19251 0.0
H1085 H 0.83319 0.26863 0.27113 0.0
H1086 H 0.80599 0.27123 0.25198 0.0
H1087 H 0.83593 0.28259 0.2435 0.0
C1088 C 0.75877 0.25745 0.19085 0.0
C1089 C 0.7644 0.27768 0.18162 0.0
C1090 C 0.77698 0.24609 0.20354 0.0
C1091 C 0.80115 0.25475 0.20742 0.0
C1092 C 0.80678 0.275 0.19842 0.0
H1093 H 0.94831 0.21169 0.24255 0.0
H1094 H 0.90959 0.23264 0.23873 0.0
C1095 C 0.78858 0.28639 0.18573 0.0
C1096 C 0.82112 0.24188 0.21901 0.0
H1097 H 0.86455 0.24202 0.26394 0.0
C1098 C 0.82804 0.22267 0.20835 0.0
C1099 C 0.83406 0.24875 0.23961 0.0
C1100 C 0.82679 0.26883 0.25238 0.0
C1101 C 0.84821 0.21055 0.21708 0.0
C1102 C 0.86149 0.21757 0.23746 0.0
C1103 C 0.85423 0.23657 0.24847 0.0
C1104 C 0.88436 0.20629 0.246 0.0
C1105 C 0.8559 0.19088 0.20366 0.0
C1106 C 0.88306 0.18488 0.25293 0.0
C1107 C 0.9052 0.17292 0.25509 0.0
C1108 C 0.92885 0.18236 0.25085 0.0
C1109 C 0.93025 0.20422 0.24635 0.0
C1110 C 0.90814 0.21615 0.24402 0.0
H1111 H 0.84726 0.19022 0.18572 0.0
H1112 H 0.87679 0.19013 0.2017 0.0
H1113 H 0.84959 0.17661 0.21359 0.0
H1114 H 0.8649 0.17706 0.25493 0.0
H1115 H 0.90374 0.15599 0.25819 0.0
H1116 H 0.75967 0.70356 0.71566 0.0
H1117 H 0.79205 0.72233 0.73877 0.0
H1118 H 0.81681 0.75496 0.67569 0.0
H1119 H 0.78435 0.73664 0.65256 0.0
H1120 H 0.85638 0.73561 0.70384 0.0
H1121 H 0.79187 0.78678 0.75676 0.0
H1122 H 0.78559 0.75868 0.75613 0.0
H1123 H 0.78181 0.77408 0.72964 0.0
C1124 C 0.77181 0.71492 0.70675 0.0
C1125 C 0.76936 0.71859 0.68222 0.0
C1126 C 0.79033 0.72558 0.71999 0.0
C1127 C 0.8067 0.74011 0.70895 0.0
C1128 C 0.80438 0.74375 0.68452 0.0
H1129 H 0.89923 0.84319 0.72926 0.0
H1130 H 0.86439 0.81775 0.72854 0.0
C1131 C 0.78589 0.73318 0.6713 0.0
C1132 C 0.82654 0.75153 0.72253 0.0
H1133 H 0.83555 0.79276 0.76092 0.0
C1134 C 0.85193 0.74784 0.71669 0.0
C1135 C 0.82056 0.76743 0.73926 0.0
C1136 C 0.79351 0.77218 0.74585 0.0
C1137 C 0.87147 0.76038 0.72617 0.0
C1138 C 0.86544 0.77692 0.74215 0.0
C1139 C 0.84013 0.7799 0.74892 0.0
C1140 C 0.88434 0.79354 0.74818 0.0
C1141 C 0.89822 0.7568 0.7177 0.0
C1142 C 0.90664 0.78885 0.76072 0.0
C1143 C 0.92669 0.80353 0.76125 0.0
C1144 C 0.92456 0.82294 0.74915 0.0
C1145 C 0.90138 0.82827 0.7386 0.0
C1146 C 0.88143 0.81376 0.73821 0.0
H1147 H 0.89917 0.74495 0.70316 0.0
H1148 H 0.90668 0.77192 0.71131 0.0
H1149 H 0.90992 0.75097 0.73265 0.0
H1150 H 0.90911 0.77341 0.7688 0.0
H1151 H 0.94441 0.79904 0.76943 0.0
H1152 H 0.75192 0.75534 0.18672 0.0
H1153 H 0.71822 0.73761 0.20913 0.0
H1154 H 0.67033 0.79223 0.1996 0.0
H1155 H 0.70365 0.80964 0.17639 0.0
H1156 H 0.69334 0.74624 0.24923 0.0
H1157 H 0.62531 0.74662 0.17425 0.0
H1158 H 0.65805 0.754 0.17062 0.0
H1159 H 0.63576 0.77265 0.18266 0.0
C1160 C 0.73418 0.76353 0.18943 0.0
C1161 C 0.73025 0.78373 0.17956 0.0
C1162 C 0.71496 0.75343 0.20229 0.0
C1163 C 0.69151 0.76339 0.2057 0.0
C1164 C 0.68794 0.78394 0.19663 0.0
H1165 H 0.55108 0.70832 0.26039 0.0
H1166 H 0.58509 0.7349 0.25707 0.0
C1167 C 0.707 0.7939 0.18343 0.0
C1168 C 0.67067 0.75195 0.21812 0.0
H1169 H 0.61046 0.73318 0.21059 0.0
C1170 C 0.67516 0.74351 0.24083 0.0
C1171 C 0.6469 0.7483 0.20718 0.0
C1172 C 0.64124 0.75568 0.18226 0.0
C1173 C 0.65674 0.73124 0.25261 0.0
C1174 C 0.63324 0.72744 0.24149 0.0
C1175 C 0.62841 0.73644 0.21922 0.0
C1176 C 0.6146 0.71188 0.2508 0.0
C1177 C 0.66262 0.72209 0.27666 0.0
C1178 C 0.62017 0.69018 0.24945 0.0
C1179 C 0.6008 0.67511 0.25106 0.0
C1180 C 0.57565 0.6815 0.2544 0.0
C1181 C 0.57043 0.70304 0.25828 0.0
C1182 C 0.5898 0.7182 0.25623 0.0
H1183 H 0.67872 0.73047 0.28526 0.0
H1184 H 0.64582 0.72294 0.28844 0.0
H1185 H 0.66775 0.70512 0.27466 0.0
H1186 H 0.63907 0.68497 0.24489 0.0
H1187 H 0.60513 0.6586 0.24762 0.0
H1188 H 0.29957 0.80876 0.32904 0.0
H1189 H 0.33155 0.79079 0.30502 0.0
H1190 H 0.28192 0.73659 0.29794 0.0
H1191 H 0.24962 0.75484 0.32123 0.0
H1192 H 0.35602 0.75665 0.31495 0.0
H1193 H 0.30535 0.7412 0.23121 0.0
H1194 H 0.29317 0.759 0.25346 0.0
H1195 H 0.28786 0.73079 0.25584 0.0
C1196 C 0.29544 0.79308 0.32214 0.0
C1197 C 0.27212 0.78318 0.32698 0.0
C1198 C 0.31366 0.78286 0.30832 0.0
C1199 C 0.30905 0.76246 0.29919 0.0
C1200 C 0.28569 0.75258 0.30401 0.0
H1201 H 0.39578 0.65605 0.27197 0.0
H1202 H 0.36229 0.68261 0.27337 0.0
C1203 C 0.26731 0.76294 0.31753 0.0
C1204 C 0.32949 0.75071 0.28671 0.0
H1205 H 0.34151 0.71855 0.23921 0.0
C1206 C 0.353 0.74878 0.2981 0.0
C1207 C 0.32571 0.74045 0.26462 0.0
C1208 C 0.30173 0.74317 0.25048 0.0
C1209 C 0.37219 0.73594 0.28878 0.0
C1210 C 0.36782 0.72469 0.2675 0.0
C1211 C 0.34479 0.72725 0.25552 0.0
C1212 C 0.38566 0.70806 0.25969 0.0
C1213 C 0.39658 0.73352 0.30245 0.0
C1214 C 0.40944 0.71332 0.25013 0.0
C1215 C 0.42858 0.69799 0.24896 0.0
C1216 C 0.42412 0.67744 0.25772 0.0
C1217 C 0.39962 0.6718 0.2651 0.0
C1218 C 0.38049 0.68696 0.26591 0.0
H1219 H 0.39643 0.74245 0.31941 0.0
H1220 H 0.40002 0.7165 0.30637 0.0
H1221 H 0.41262 0.73938 0.29154 0.0
H1222 H 0.41374 0.72957 0.24529 0.0
H1223 H 0.4474 0.70273 0.24341 0.0
H1224 H 0.25423 0.75015 0.82747 0.0
H1225 H 0.22078 0.76816 0.80524 0.0
H1226 H 0.17727 0.71005 0.80378 0.0
H1227 H 0.21022 0.6923 0.82692 0.0
H1228 H 0.19964 0.76284 0.76276 0.0
H1229 H 0.12664 0.74923 0.83202 0.0
H1230 H 0.15958 0.74347 0.83688 0.0
H1231 H 0.13992 0.72522 0.82054 0.0
C1232 C 0.2375 0.74127 0.82237 0.0
C1233 C 0.23459 0.71995 0.82917 0.0
C1234 C 0.21844 0.75152 0.80962 0.0
C1235 C 0.19623 0.7406 0.80321 0.0
C1236 C 0.19383 0.71902 0.80912 0.0
H1237 H 0.05735 0.79675 0.74555 0.0
H1238 H 0.09223 0.77107 0.74757 0.0
C1239 C 0.21268 0.70887 0.82227 0.0
C1240 C 0.17537 0.75209 0.79109 0.0
H1241 H 0.11353 0.76664 0.79735 0.0
C1242 C 0.18076 0.76351 0.77023 0.0
C1243 C 0.15066 0.75302 0.80081 0.0
C1244 C 0.14385 0.74226 0.8239 0.0
C1245 C 0.16236 0.77625 0.7593 0.0
C1246 C 0.13797 0.77745 0.76934 0.0
C1247 C 0.13221 0.76538 0.78952 0.0
C1248 C 0.11932 0.79354 0.76178 0.0
C1249 C 0.1692 0.78883 0.73748 0.0
C1250 C 0.12335 0.81475 0.7683 0.0
C1251 C 0.10346 0.8292 0.76758 0.0
C1252 C 0.07933 0.82277 0.75999 0.0
C1253 C 0.07589 0.8021 0.75123 0.0
C1254 C 0.09573 0.78744 0.75245 0.0
H1255 H 0.18661 0.78271 0.72888 0.0
H1256 H 0.15343 0.78849 0.72446 0.0
H1257 H 0.17256 0.80563 0.74253 0.0
H1258 H 0.1413 0.81969 0.77583 0.0
H1259 H 0.10649 0.84504 0.77453 0.0
loop_
_geom_bond_atom_site_label_1
_geom_bond_atom_site_label_2
_geom_bond_distance
_geom_bond_site_symmetry_2
_ccdc_geom_bond_type
C0 C1 1.386 . S
C0 C2 1.397 . S
C0 H24 0.931 . S
C1 C0 1.386 . S
C1 C5 1.397 . S
C2 C0 1.397 . S
C2 C3 1.384 . S
C2 H25 0.930 . S
C3 C2 1.384 . S
C3 C4 1.377 . S
C3 C6 1.481 . S
C4 C3 1.377 . S
C4 C5 1.389 . S
C4 H26 0.929 . S
C5 C1 1.397 . S
C5 C4 1.389 . S
C5 H27 0.931 . S
C6 C3 1.481 . S
C6 C7 1.387 . S
C6 C11 1.390 . S
C7 C6 1.387 . S
C7 C8 1.401 . S
C7 H28 0.930 . S
C8 C7 1.401 . S
C8 C9 1.376 . S
C8 C17 1.511 . S
C9 C8 1.376 . S
C9 C10 1.392 . S
C9 H30 0.931 . S
C10 C9 1.392 . S
C10 C11 1.361 . S
C10 C12 1.500 . S
C11 C6 1.390 . S
C11 C10 1.361 . S
C11 H29 0.931 . S
C12 C10 1.500 . S
C12 C13 1.371 . S
C12 C14 1.365 . S
C13 C12 1.371 . S
C13 C23 1.386 . S
C13 H31 0.931 . S
C14 C12 1.365 . S
C14 C15 1.409 . S
C14 H32 0.929 . S
C15 C14 1.409 . S
C15 C16 1.380 . S
C15 H33 0.930 . S
C16 C15 1.380 . S
C16 C23 1.357 . S
C17 C8 1.511 . S
C17 C18 1.341 . S
C17 C19 1.371 . S
C18 C17 1.341 . S
C18 C22 1.394 . S
C18 H34 0.930 . S
C19 C17 1.371 . S
C19 C20 1.392 . S
C19 H35 0.931 . S
C20 C19 1.392 . S
C20 C21 1.331 . S
C20 H38 0.932 . S
C21 C20 1.331 . S
C21 C22 1.336 . S
C22 C18 1.394 . S
C22 C21 1.336 . S
C22 H37 0.929 . S
C23 C13 1.386 . S
C23 C16 1.357 . S
C23 H36 0.928 . S
H24 C0 0.931 . S
H25 C2 0.930 . S
H26 C4 0.929 . S
H27 C5 0.931 . S
H28 C7 0.930 . S
H29 C11 0.931 . S
H30 C9 0.931 . S
H31 C13 0.931 . S
H32 C14 0.929 . S
H33 C15 0.930 . S
H34 C18 0.930 . S
H35 C19 0.931 . S
H36 C23 0.928 . S
H37 C22 0.929 . S
H38 C20 0.932 . S
C39 C40 1.386 . S
C39 C41 1.397 . S
C39 H63 0.931 . S
C40 C39 1.386 . S
C40 C44 1.397 . S
C41 C39 1.397 . S
C41 C42 1.384 . S
C41 H64 0.930 . S
C42 C41 1.384 . S
C42 C43 1.377 . S
C42 C45 1.481 . S
C43 C42 1.377 . S
C43 C44 1.389 . S
C43 H65 0.929 . S
C44 C40 1.397 . S
C44 C43 1.389 . S
C44 H66 0.931 . S
C45 C42 1.481 . S
C45 C46 1.387 . S
C45 C50 1.390 . S
C46 C45 1.387 . S
C46 C47 1.401 . S
C46 H67 0.930 . S
C47 C46 1.401 . S
C47 C48 1.376 . S
C47 C56 1.511 . S
C48 C47 1.376 . S
C48 C49 1.392 . S
C48 H69 0.931 . S
C49 C48 1.392 . S
C49 C50 1.361 . S
C49 C51 1.500 . S
C50 C45 1.390 . S
C50 C49 1.361 . S
C50 H68 0.931 . S
C51 C49 1.500 . S
C51 C52 1.371 . S
C51 C53 1.365 . S
C52 C51 1.371 . S
C52 C62 1.386 . S
C52 H70 0.931 . S
C53 C51 1.365 . S
C53 C54 1.409 . S
C53 H71 0.929 . S
C54 C53 1.409 . S
C54 C55 1.380 . S
C54 H72 0.930 . S
C55 C54 1.380 . S
C55 C62 1.357 . S
C56 C47 1.511 . S
C56 C57 1.341 . S
C56 C58 1.371 . S
C57 C56 1.341 . S
C57 C61 1.394 . S
C57 H73 0.930 . S
C58 C56 1.371 . S
C58 C59 1.392 . S
C58 H74 0.931 . S
C59 C58 1.392 . S
C59 C60 1.331 . S
C59 H77 0.932 . S
C60 C59 1.331 . S
C60 C61 1.336 . S
C61 C57 1.394 . S
C61 C60 1.336 . S
C61 H76 0.929 . S
C62 C52 1.386 . S
C62 C55 1.357 . S
C62 H75 0.928 . S
H63 C39 0.931 . S
H64 C41 0.930 . S
H65 C43 0.929 . S
H66 C44 0.931 . S
H67 C46 0.930 . S
H68 C50 0.931 . S
H69 C48 0.931 . S
H70 C52 0.931 . S
H71 C53 0.929 . S
H72 C54 0.930 . S
H73 C57 0.930 . S
H74 C58 0.931 . S
H75 C62 0.928 . S
H76 C61 0.929 . S
H77 C59 0.932 . S
C78 C79 1.386 . S
C78 C80 1.397 . S
C78 H102 0.931 . S
C79 C78 1.386 . S
C79 C83 1.397 . S
C80 C78 1.397 . S
C80 C81 1.384 . S
C80 H103 0.930 . S
C81 C80 1.384 . S
C81 C82 1.377 . S
C81 C84 1.481 . S
C82 C81 1.377 . S
C82 C83 1.389 . S
C82 H104 0.929 . S
C83 C79 1.397 . S
C83 C82 1.389 . S
C83 H105 0.931 . S
C84 C81 1.481 . S
C84 C85 1.387 . S
C84 C89 1.390 . S
C85 C84 1.387 . S
C85 C86 1.401 . S
C85 H106 0.930 . S
C86 C85 1.401 . S
C86 C87 1.376 . S
C86 C95 1.511 . S
C87 C86 1.376 . S
C87 C88 1.392 . S
C87 H108 0.931 . S
C88 C87 1.392 . S
C88 C89 1.361 . S
C88 C90 1.500 . S
C89 C84 1.390 . S
C89 C88 1.361 . S
C89 H107 0.931 . S
C90 C88 1.500 . S
C90 C91 1.371 . S
C90 C92 1.365 . S
C91 C90 1.371 . S
C91 C101 1.386 . S
C91 H109 0.931 . S
C92 C90 1.365 . S
C92 C93 1.409 . S
C92 H110 0.929 . S
C93 C92 1.409 . S
C93 C94 1.380 . S
C93 H111 0.930 . S
C94 C93 1.380 . S
C94 C101 1.357 . S
C95 C86 1.511 . S
C95 C96 1.341 . S
C95 C97 1.371 . S
C96 C95 1.341 . S
C96 C100 1.394 . S
C96 H112 0.930 . S
C97 C95 1.371 . S
C97 C98 1.392 . S
C97 H113 0.931 . S
C98 C97 1.392 . S
C98 C99 1.331 . S
C98 H116 0.932 . S
C99 C98 1.331 . S
C99 C100 1.336 . S
C100 C96 1.394 . S
C100 C99 1.336 . S
C100 H115 0.929 . S
C101 C91 1.386 . S
C101 C94 1.357 . S
C101 H114 0.928 . S
H102 C78 0.931 . S
H103 C80 0.930 . S
H104 C82 0.929 . S
H105 C83 0.931 . S
H106 C85 0.930 . S
H107 C89 0.931 . S
H108 C87 0.931 . S
H109 C91 0.931 . S
H110 C92 0.929 . S
H111 C93 0.930 . S
H112 C96 0.930 . S
H113 C97 0.931 . S
H114 C101 0.928 . S
H115 C100 0.929 . S
H116 C98 0.932 . S
C117 C118 1.386 . S
C117 C119 1.397 . S
C117 H141 0.931 . S
C118 C117 1.386 . S
C118 C122 1.397 . S
C119 C117 1.397 . S
C119 C120 1.384 . S
C119 H142 0.930 . S
C120 C119 1.384 . S
C120 C121 1.377 . S
C120 C123 1.481 . S
C121 C120 1.377 . S
C121 C122 1.389 . S
C121 H143 0.929 . S
C122 C118 1.397 . S
C122 C121 1.389 . S
C122 H144 0.931 . S
C123 C120 1.481 . S
C123 C124 1.387 . S
C123 C128 1.390 . S
C124 C123 1.387 . S
C124 C125 1.401 . S
C124 H145 0.930 . S
C125 C124 1.401 . S
C125 C126 1.376 . S
C125 C134 1.511 . S
C126 C125 1.376 . S
C126 C127 1.392 . S
C126 H147 0.931 . S
C127 C126 1.392 . S
C127 C128 1.361 . S
C127 C129 1.500 . S
C128 C123 1.390 . S
C128 C127 1.361 . S
C128 H146 0.931 . S
C129 C127 1.500 . S
C129 C130 1.371 . S
C129 C131 1.365 . S
C130 C129 1.371 . S
C130 C140 1.386 . S
C130 H148 0.931 . S
C131 C129 1.365 . S
C131 C132 1.409 . S
C131 H149 0.929 . S
C132 C131 1.409 . S
C132 C133 1.380 . S
C132 H150 0.930 . S
C133 C132 1.380 . S
C133 C140 1.357 . S
C134 C125 1.511 . S
C134 C135 1.341 . S
C134 C136 1.371 . S
C135 C134 1.341 . S
C135 C139 1.394 . S
C135 H151 0.930 . S
C136 C134 1.371 . S
C136 C137 1.392 . S
C136 H152 0.931 . S
C137 C136 1.392 . S
C137 C138 1.331 . S
C137 H155 0.932 . S
C138 C137 1.331 . S
C138 C139 1.336 . S
C139 C135 1.394 . S
C139 C138 1.336 . S
C139 H154 0.929 . S
C140 C130 1.386 . S
C140 C133 1.357 . S
C140 H153 0.928 . S
H141 C117 0.931 . S
H142 C119 0.930 . S
H143 C121 0.929 . S
H144 C122 0.931 . S
H145 C124 0.930 . S
H146 C128 0.931 . S
H147 C126 0.931 . S
H148 C130 0.931 . S
H149 C131 0.929 . S
H150 C132 0.930 . S
H151 C135 0.930 . S
H152 C136 0.931 . S
H153 C140 0.928 . S
H154 C139 0.929 . S
H155 C137 0.932 . S
C156 C157 1.386 . S
C156 C158 1.397 . S
C156 H180 0.931 . S
C157 C156 1.386 . S
C157 C161 1.397 . S
C158 C156 1.397 . S
C158 C159 1.384 . S
C158 H181 0.930 . S
C159 C158 1.384 . S
C159 C160 1.377 . S
C159 C162 1.481 . S
C160 C159 1.377 . S
C160 C161 1.389 . S
C160 H182 0.929 . S
C161 C157 1.397 . S
C161 C160 1.389 . S
C161 H183 0.931 . S
C162 C159 1.481 . S
C162 C163 1.387 . S
C162 C167 1.390 . S
C163 C162 1.387 . S
C163 C164 1.401 . S
C163 H184 0.930 . S
C164 C163 1.401 . S
C164 C165 1.376 . S
C164 C173 1.511 . S
C165 C164 1.376 . S
C165 C166 1.392 . S
C165 H186 0.931 . S
C166 C165 1.392 . S
C166 C167 1.361 . S
C166 C168 1.500 . S
C167 C162 1.390 . S
C167 C166 1.361 . S
C167 H185 0.931 . S
C168 C166 1.500 . S
C168 C169 1.371 . S
C168 C170 1.365 . S
C169 C168 1.371 . S
C169 C179 1.386 . S
C169 H187 0.931 . S
C170 C168 1.365 . S
C170 C171 1.409 . S
C170 H188 0.929 . S
C171 C170 1.409 . S
C171 C172 1.380 . S
C171 H189 0.930 . S
C172 C171 1.380 . S
C172 C179 1.357 . S
C173 C164 1.511 . S
C173 C174 1.341 . S
C173 C175 1.371 . S
C174 C173 1.341 . S
C174 C178 1.394 . S
C174 H190 0.930 . S
C175 C173 1.371 . S
C175 C176 1.392 . S
C175 H191 0.931 . S
C176 C175 1.392 . S
C176 C177 1.331 . S
C176 H194 0.932 . S
C177 C176 1.331 . S
C177 C178 1.336 . S
C178 C174 1.394 . S
C178 C177 1.336 . S
C178 H193 0.929 . S
C179 C169 1.386 . S
C179 C172 1.357 . S
C179 H192 0.928 . S
H180 C156 0.931 . S
H181 C158 0.930 . S
H182 C160 0.929 . S
H183 C161 0.931 . S
H184 C163 0.930 . S
H185 C167 0.931 . S
H186 C165 0.931 . S
H187 C169 0.931 . S
H188 C170 0.929 . S
H189 C171 0.930 . S
H190 C174 0.930 . S
H191 C175 0.931 . S
H192 C179 0.928 . S
H193 C178 0.929 . S
H194 C176 0.932 . S
C195 C196 1.386 . S
C195 C197 1.397 . S
C195 H219 0.931 . S
C196 C195 1.386 . S
C196 C200 1.397 . S
C197 C195 1.397 . S
C197 C198 1.384 . S
C197 H220 0.930 . S
C198 C197 1.384 . S
C198 C199 1.377 . S
C198 C201 1.481 . S
C199 C198 1.377 . S
C199 C200 1.389 . S
C199 H221 0.929 . S
C200 C196 1.397 . S
C200 C199 1.389 . S
C200 H222 0.931 . S
C201 C198 1.481 . S
C201 C202 1.387 . S
C201 C206 1.390 . S
C202 C201 1.387 . S
C202 C203 1.401 . S
C202 H223 0.930 . S
C203 C202 1.401 . S
C203 C204 1.376 . S
C203 C212 1.511 . S
C204 C203 1.376 . S
C204 C205 1.392 . S
C204 H225 0.931 . S
C205 C204 1.392 . S
C205 C206 1.361 . S
C205 C207 1.500 . S
C206 C201 1.390 . S
C206 C205 1.361 . S
C206 H224 0.931 . S
C207 C205 1.500 . S
C207 C208 1.371 . S
C207 C209 1.365 . S
C208 C207 1.371 . S
C208 C218 1.386 . S
C208 H226 0.931 . S
C209 C207 1.365 . S
C209 C210 1.409 . S
C209 H227 0.929 . S
C210 C209 1.409 . S
C210 C211 1.380 . S
C210 H228 0.930 . S
C211 C210 1.380 . S
C211 C218 1.357 . S
C212 C203 1.511 . S
C212 C213 1.341 . S
C212 C214 1.371 . S
C213 C212 1.341 . S
C213 C217 1.394 . S
C213 H229 0.930 . S
C214 C212 1.371 . S
C214 C215 1.392 . S
C214 H230 0.931 . S
C215 C214 1.392 . S
C215 C216 1.331 . S
C215 H233 0.932 . S
C216 C215 1.331 . S
C216 C217 1.336 . S
C217 C213 1.394 . S
C217 C216 1.336 . S
C217 H232 0.929 . S
C218 C208 1.386 . S
C218 C211 1.357 . S
C218 H231 0.928 . S
H219 C195 0.931 . S
H220 C197 0.930 . S
H221 C199 0.929 . S
H222 C200 0.931 . S
H223 C202 0.930 . S
H224 C206 0.931 . S
H225 C204 0.931 . S
H226 C208 0.931 . S
H227 C209 0.929 . S
H228 C210 0.930 . S
H229 C213 0.930 . S
H230 C214 0.931 . S
H231 C218 0.928 . S
H232 C217 0.929 . S
H233 C215 0.932 . S
C234 C235 1.386 . S
C234 C236 1.397 . S
C234 H258 0.931 . S
C235 C234 1.386 . S
C235 C239 1.397 . S
C236 C234 1.397 . S
C236 C237 1.384 . S
C236 H259 0.930 . S
C237 C236 1.384 . S
C237 C238 1.377 . S
C237 C240 1.481 . S
C238 C237 1.377 . S
C238 C239 1.389 . S
C238 H260 0.929 . S
C239 C235 1.397 . S
C239 C238 1.389 . S
C239 H261 0.931 . S
C240 C237 1.481 . S
C240 C241 1.387 . S
C240 C245 1.390 . S
C241 C240 1.387 . S
C241 C242 1.401 . S
C241 H262 0.930 . S
C242 C241 1.401 . S
C242 C243 1.376 . S
C242 C251 1.511 . S
C243 C242 1.376 . S
C243 C244 1.392 . S
C243 H264 0.931 . S
C244 C243 1.392 . S
C244 C245 1.361 . S
C244 C246 1.500 . S
C245 C240 1.390 . S
C245 C244 1.361 . S
C245 H263 0.931 . S
C246 C244 1.500 . S
C246 C247 1.371 . S
C246 C248 1.365 . S
C247 C246 1.371 . S
C247 C257 1.386 . S
C247 H265 0.931 . S
C248 C246 1.365 . S
C248 C249 1.409 . S
C248 H266 0.929 . S
C249 C248 1.409 . S
C249 C250 1.380 . S
C249 H267 0.930 . S
C250 C249 1.380 . S
C250 C257 1.357 . S
C251 C242 1.511 . S
C251 C252 1.341 . S
C251 C253 1.371 . S
C252 C251 1.341 . S
C252 C256 1.394 . S
C252 H268 0.930 . S
C253 C251 1.371 . S
C253 C254 1.392 . S
C253 H269 0.931 . S
C254 C253 1.392 . S
C254 C255 1.331 . S
C254 H272 0.932 . S
C255 C254 1.331 . S
C255 C256 1.336 . S
C256 C252 1.394 . S
C256 C255 1.336 . S
C256 H271 0.929 . S
C257 C247 1.386 . S
C257 C250 1.357 . S
C257 H270 0.928 . S
H258 C234 0.931 . S
H259 C236 0.930 . S
H260 C238 0.929 . S
H261 C239 0.931 . S
H262 C241 0.930 . S
H263 C245 0.931 . S
H264 C243 0.931 . S
H265 C247 0.931 . S
H266 C248 0.929 . S
H267 C249 0.930 . S
H268 C252 0.930 . S
H269 C253 0.931 . S
H270 C257 0.928 . S
H271 C256 0.929 . S
H272 C254 0.932 . S
C273 C274 1.386 . S
C273 C275 1.397 . S
C273 H297 0.931 . S
C274 C273 1.386 . S
C274 C278 1.397 . S
C275 C273 1.397 . S
C275 C276 1.384 . S
C275 H298 0.930 . S
C276 C275 1.384 . S
C276 C277 1.377 . S
C276 C279 1.481 . S
C277 C276 1.377 . S
C277 C278 1.389 . S
C277 H299 0.929 . S
C278 C274 1.397 . S
C278 C277 1.389 . S
C278 H300 0.931 . S
C279 C276 1.481 . S
C279 C280 1.387 . S
C279 C284 1.390 . S
C280 C279 1.387 . S
C280 C281 1.401 . S
C280 H301 0.930 . S
C281 C280 1.401 . S
C281 C282 1.376 . S
C281 C290 1.511 . S
C282 C281 1.376 . S
C282 C283 1.392 . S
C282 H303 0.931 . S
C283 C282 1.392 . S
C283 C284 1.361 . S
C283 C285 1.500 . S
C284 C279 1.390 . S
C284 C283 1.361 . S
C284 H302 0.931 . S
C285 C283 1.500 . S
C285 C286 1.371 . S
C285 C287 1.365 . S
C286 C285 1.371 . S
C286 C296 1.386 . S
C286 H304 0.931 . S
C287 C285 1.365 . S
C287 C288 1.409 . S
C287 H305 0.929 . S
C288 C287 1.409 . S
C288 C289 1.380 . S
C288 H306 0.930 . S
C289 C288 1.380 . S
C289 C296 1.357 . S
C290 C281 1.511 . S
C290 C291 1.341 . S
C290 C292 1.371 . S
C291 C290 1.341 . S
C291 C295 1.394 . S
C291 H307 0.930 . S
C292 C290 1.371 . S
C292 C293 1.392 . S
C292 H308 0.931 . S
C293 C292 1.392 . S
C293 C294 1.331 . S
C293 H311 0.932 . S
C294 C293 1.331 . S
C294 C295 1.336 . S
C295 C291 1.394 . S
C295 C294 1.336 . S
C295 H310 0.929 . S
C296 C286 1.386 . S
C296 C289 1.357 . S
C296 H309 0.928 . S
H297 C273 0.931 . S
H298 C275 0.930 . S
H299 C277 0.929 . S
H300 C278 0.931 . S
H301 C280 0.930 . S
H302 C284 0.931 . S
H303 C282 0.931 . S
H304 C286 0.931 . S
H305 C287 0.929 . S
H306 C288 0.930 . S
H307 C291 0.930 . S
H308 C292 0.931 . S
H309 C296 0.928 . S
H310 C295 0.929 . S
H311 C293 0.932 . S
Zn312 O318 1.920 1_455 S
Zn312 O324 1.898 . S
Zn312 O327 1.905 . S
Zn313 O321 1.905 1_655 S
Zn313 O322 1.898 . S
Zn313 O330 1.920 . S
Zn314 O317 2.060 1_455 S
Zn314 O320 2.135 . S
Zn314 O323 2.091 1_455 S
Zn314 O325 2.145 . S
Zn314 O326 2.142 . S
Zn314 O329 2.056 1_455 S
C315 O320 1.166 . S
C315 O321 1.182 . S
C316 O322 1.167 . S
C316 O323 1.299 . S
O317 Zn314 2.060 1_655 S
O317 C331 1.305 . S
O318 Zn312 1.920 1_655 S
O318 C331 1.234 . S
C319 O324 1.167 . S
C319 O325 1.299 . S
O320 Zn314 2.135 . S
O320 C315 1.166 . S
O321 Zn313 1.905 1_455 S
O321 C315 1.182 . S
O322 Zn313 1.898 . S
O322 C316 1.167 . S
O323 Zn314 2.091 1_655 S
O323 C316 1.299 . S
O324 Zn312 1.898 . S
O324 C319 1.167 . S
O325 Zn314 2.145 . S
O325 C319 1.299 . S
O326 Zn314 2.142 . S
O326 C328 1.166 . S
O327 Zn312 1.905 . S
O327 C328 1.182 . S
C328 O326 1.166 . S
C328 O327 1.182 . S
O329 Zn314 2.056 1_655 S
O329 C332 1.305 . S
O330 Zn313 1.920 . S
O330 C332 1.234 . S
C331 O317 1.305 . S
C331 O318 1.234 . S
C332 O329 1.305 . S
C332 O330 1.234 . S
Zn333 O339 1.920 . S
Zn333 O345 1.898 . S
Zn333 O348 1.905 . S
Zn334 O342 1.905 . S
Zn334 O343 1.898 . S
Zn334 O351 1.920 . S
Zn335 O338 2.080 . S
Zn335 O341 2.114 . S
Zn335 O344 2.120 . S
Zn335 O346 2.120 . S
Zn335 O347 2.114 . S
Zn335 O350 2.080 . S
C336 O341 1.166 . S
C336 O342 1.182 . S
C337 O343 1.167 . S
C337 O344 1.299 . S
O338 Zn335 2.080 . S
O338 C352 1.305 . S
O339 Zn333 1.920 . S
O339 C352 1.234 . S
C340 O345 1.167 . S
C340 O346 1.299 . S
O341 Zn335 2.114 . S
O341 C336 1.166 . S
O342 Zn334 1.905 . S
O342 C336 1.182 . S
O343 Zn334 1.898 . S
O343 C337 1.167 . S
O344 Zn335 2.120 . S
O344 C337 1.299 . S
O345 Zn333 1.898 . S
O345 C340 1.167 . S
O346 Zn335 2.120 . S
O346 C340 1.299 . S
O347 Zn335 2.114 . S
O347 C349 1.166 . S
O348 Zn333 1.905 . S
O348 C349 1.182 . S
C349 O347 1.166 . S
C349 O348 1.182 . S
O350 Zn335 2.080 . S
O350 C353 1.305 . S
O351 Zn334 1.920 . S
O351 C353 1.234 . S
C352 O338 1.305 . S
C352 O339 1.234 . S
C353 O350 1.305 . S
C353 O351 1.234 . S
Zn354 O360 1.920 . S
Zn354 O366 1.898 . S
Zn354 O369 1.905 1_455 S
Zn355 O363 1.905 . S
Zn355 O364 1.898 . S
Zn355 O372 1.920 1_655 S
Zn356 O359 2.098 . S
Zn356 O362 2.094 1_455 S
Zn356 O365 2.103 1_455 S
Zn356 O367 2.140 . S
Zn356 O368 2.099 1_455 S
Zn356 O371 2.095 . S
C357 O362 1.166 . S
C357 O363 1.182 . S
C358 O364 1.167 . S
C358 O365 1.299 . S
O359 Zn356 2.098 . S
O359 C373 1.305 . S
O360 Zn354 1.920 . S
O360 C373 1.234 . S
C361 O366 1.167 . S
C361 O367 1.299 . S
O362 Zn356 2.094 1_655 S
O362 C357 1.166 . S
O363 Zn355 1.905 . S
O363 C357 1.182 . S
O364 Zn355 1.898 . S
O364 C358 1.167 . S
O365 Zn356 2.103 1_655 S
O365 C358 1.299 . S
O366 Zn354 1.898 . S
O366 C361 1.167 . S
O367 Zn356 2.140 . S
O367 C361 1.299 . S
O368 Zn356 2.099 1_655 S
O368 C370 1.166 . S
O369 Zn354 1.905 1_655 S
O369 C370 1.182 . S
C370 O368 1.166 . S
C370 O369 1.182 . S
O371 Zn356 2.095 . S
O371 C374 1.305 . S
O372 Zn355 1.920 1_455 S
O372 C374 1.234 . S
C373 O359 1.305 . S
C373 O360 1.234 . S
C374 O371 1.305 . S
C374 O372 1.234 . S
Zn375 O381 1.920 . S
Zn375 O387 1.898 . S
Zn375 O390 1.905 . S
Zn376 O384 1.905 . S
Zn376 O385 1.898 . S
Zn376 O393 1.920 . S
Zn377 O380 2.080 . S
Zn377 O383 2.114 . S
Zn377 O386 2.120 . S
Zn377 O388 2.120 . S
Zn377 O389 2.114 . S
Zn377 O392 2.080 . S
C378 O383 1.166 . S
C378 O384 1.182 . S
C379 O385 1.167 . S
C379 O386 1.299 . S
O380 Zn377 2.080 . S
O380 C394 1.305 . S
O381 Zn375 1.920 . S
O381 C394 1.234 . S
C382 O387 1.167 . S
C382 O388 1.299 . S
O383 Zn377 2.114 . S
O383 C378 1.166 . S
O384 Zn376 1.905 . S
O384 C378 1.182 . S
O385 Zn376 1.898 . S
O385 C379 1.167 . S
O386 Zn377 2.120 . S
O386 C379 1.299 . S
O387 Zn375 1.898 . S
O387 C382 1.167 . S
O388 Zn377 2.120 . S
O388 C382 1.299 . S
O389 Zn377 2.114 . S
O389 C391 1.166 . S
O390 Zn375 1.905 . S
O390 C391 1.182 . S
C391 O389 1.166 . S
C391 O390 1.182 . S
O392 Zn377 2.080 . S
O392 C395 1.305 . S
O393 Zn376 1.920 . S
O393 C395 1.234 . S
C394 O380 1.305 . S
C394 O381 1.234 . S
C395 O392 1.305 . S
C395 O393 1.234 . S
H396 C404 0.929 . S
H397 C406 0.930 . S
H398 C408 0.930 . S
H399 C411 0.929 . S
H400 C414 0.930 1_565 S
H401 C416 0.960 1_545 S
H402 C416 0.960 . S
H403 C416 0.960 . S
C404 H396 0.929 . S
C404 C405 1.377 . S
C404 C406 1.384 . S
C405 C404 1.377 . S
C405 C411 1.390 . S
C406 H397 0.930 . S
C406 C404 1.384 . S
C406 C407 1.372 . S
C407 C406 1.372 . S
C407 C408 1.400 . S
C407 C412 1.490 . S
C408 H398 0.930 . S
C408 C407 1.400 . S
C408 C411 1.386 . S
H409 C425 0.930 . S
H410 C426 0.931 . S
C411 H399 0.929 . S
C411 C405 1.390 . S
C411 C408 1.386 . S
C412 C407 1.490 . S
C412 C414 1.395 1_565 S
C412 C415 1.403 1_565 S
H413 C419 0.930 . S
C414 H400 0.930 1_545 S
C414 C412 1.395 1_545 S
C414 C417 1.403 . S
C415 C412 1.403 1_545 S
C415 C416 1.524 1_545 S
C415 C419 1.400 . S
C416 H401 0.960 1_565 S
C416 H402 0.960 . S
C416 H403 0.960 . S
C416 C415 1.524 1_565 S
C417 C414 1.403 . S
C417 C418 1.392 . S
C417 C421 1.495 . S
C418 C417 1.392 . S
C418 C419 1.385 . S
C418 C420 1.478 . S
C419 H413 0.930 . S
C419 C415 1.400 . S
C419 C418 1.385 . S
C420 C418 1.478 . S
C420 C422 1.381 . S
C420 C426 1.383 . S
C421 C417 1.495 . S
C421 H427 0.959 . S
C421 H428 0.961 . S
C421 H429 0.960 . S
C422 C420 1.381 . S
C422 C423 1.394 . S
C422 H430 0.930 . S
C423 C422 1.394 . S
C423 C424 1.383 . S
C423 H431 0.929 . S
C424 C423 1.383 . S
C424 C425 1.377 . S
C425 H409 0.930 . S
C425 C424 1.377 . S
C425 C426 1.379 . S
C426 H410 0.931 . S
C426 C420 1.383 . S
C426 C425 1.379 . S
H427 C421 0.959 . S
H428 C421 0.961 . S
H429 C421 0.960 . S
H430 C422 0.930 . S
H431 C423 0.929 . S
H432 C440 0.929 . S
H433 C442 0.930 . S
H434 C444 0.930 . S
H435 C447 0.929 . S
H436 C450 0.930 . S
H437 C452 0.960 . S
H438 C452 0.960 . S
H439 C452 0.960 . S
C440 H432 0.929 . S
C440 C441 1.377 . S
C440 C442 1.384 . S
C441 C440 1.377 . S
C441 C447 1.390 . S
C442 H433 0.930 . S
C442 C440 1.384 . S
C442 C443 1.372 . S
C443 C442 1.372 . S
C443 C444 1.400 . S
C443 C448 1.490 . S
C444 H434 0.930 . S
C444 C443 1.400 . S
C444 C447 1.386 . S
H445 C461 0.930 . S
H446 C462 0.931 . S
C447 H435 0.929 . S
C447 C441 1.390 . S
C447 C444 1.386 . S
C448 C443 1.490 . S
C448 C450 1.395 . S
C448 C451 1.403 . S
H449 C455 0.930 . S
C450 H436 0.930 . S
C450 C448 1.395 . S
C450 C453 1.403 . S
C451 C448 1.403 . S
C451 C452 1.524 . S
C451 C455 1.400 . S
C452 H437 0.960 . S
C452 H438 0.960 . S
C452 H439 0.960 . S
C452 C451 1.524 . S
C453 C450 1.403 . S
C453 C454 1.392 . S
C453 C457 1.495 . S
C454 C453 1.392 . S
C454 C455 1.385 . S
C454 C456 1.478 . S
C455 H449 0.930 . S
C455 C451 1.400 . S
C455 C454 1.385 . S
C456 C454 1.478 . S
C456 C458 1.381 . S
C456 C462 1.383 . S
C457 C453 1.495 . S
C457 H463 0.959 . S
C457 H464 0.961 . S
C457 H465 0.960 . S
C458 C456 1.381 . S
C458 C459 1.394 . S
C458 H466 0.930 . S
C459 C458 1.394 . S
C459 C460 1.383 . S
C459 H467 0.929 . S
C460 C459 1.383 . S
C460 C461 1.377 . S
C461 H445 0.930 . S
C461 C460 1.377 . S
C461 C462 1.379 . S
C462 H446 0.931 . S
C462 C456 1.383 . S
C462 C461 1.379 . S
H463 C457 0.959 . S
H464 C457 0.961 . S
H465 C457 0.960 . S
H466 C458 0.930 . S
H467 C459 0.929 . S
H468 C476 0.929 . S
H469 C478 0.930 . S
H470 C480 0.930 . S
H471 C483 0.929 . S
H472 C486 0.930 . S
H473 C488 0.960 . S
H474 C488 0.960 . S
H475 C488 0.960 . S
C476 H468 0.929 . S
C476 C477 1.377 . S
C476 C478 1.384 . S
C477 C476 1.377 . S
C477 C483 1.390 . S
C478 H469 0.930 . S
C478 C476 1.384 . S
C478 C479 1.372 . S
C479 C478 1.372 . S
C479 C480 1.400 . S
C479 C484 1.490 . S
C480 H470 0.930 . S
C480 C479 1.400 . S
C480 C483 1.386 . S
H481 C497 0.930 . S
H482 C498 0.931 . S
C483 H471 0.929 . S
C483 C477 1.390 . S
C483 C480 1.386 . S
C484 C479 1.490 . S
C484 C486 1.395 . S
C484 C487 1.403 . S
H485 C491 0.930 . S
C486 H472 0.930 . S
C486 C484 1.395 . S
C486 C489 1.403 . S
C487 C484 1.403 . S
C487 C488 1.524 . S
C487 C491 1.400 . S
C488 H473 0.960 . S
C488 H474 0.960 . S
C488 H475 0.960 . S
C488 C487 1.524 . S
C489 C486 1.403 . S
C489 C490 1.392 . S
C489 C493 1.495 . S
C490 C489 1.392 . S
C490 C491 1.385 . S
C490 C492 1.478 . S
C491 H485 0.930 . S
C491 C487 1.400 . S
C491 C490 1.385 . S
C492 C490 1.478 . S
C492 C494 1.381 . S
C492 C498 1.383 . S
C493 C489 1.495 . S
C493 H499 0.959 . S
C493 H500 0.961 . S
C493 H501 0.960 . S
C494 C492 1.381 . S
C494 C495 1.394 . S
C494 H502 0.930 . S
C495 C494 1.394 . S
C495 C496 1.383 . S
C495 H503 0.929 . S
C496 C495 1.383 . S
C496 C497 1.377 . S
C497 H481 0.930 . S
C497 C496 1.377 . S
C497 C498 1.379 . S
C498 H482 0.931 . S
C498 C492 1.383 . S
C498 C497 1.379 . S
H499 C493 0.959 . S
H500 C493 0.961 . S
H501 C493 0.960 . S
H502 C494 0.930 . S
H503 C495 0.929 . S
H504 C512 0.929 . S
H505 C514 0.930 . S
H506 C516 0.930 . S
H507 C519 0.929 . S
H508 C522 0.930 . S
H509 C524 0.960 . S
H510 C524 0.960 . S
H511 C524 0.960 . S
C512 H504 0.929 . S
C512 C513 1.377 . S
C512 C514 1.384 . S
C513 C512 1.377 . S
C513 C519 1.390 . S
C514 H505 0.930 . S
C514 C512 1.384 . S
C514 C515 1.372 . S
C515 C514 1.372 . S
C515 C516 1.400 . S
C515 C520 1.490 . S
C516 H506 0.930 . S
C516 C515 1.400 . S
C516 C519 1.386 . S
H517 C533 0.930 . S
H518 C534 0.931 . S
C519 H507 0.929 . S
C519 C513 1.390 . S
C519 C516 1.386 . S
C520 C515 1.490 . S
C520 C522 1.395 1_565 S
C520 C523 1.403 . S
H521 C527 0.930 . S
C522 H508 0.930 . S
C522 C520 1.395 1_545 S
C522 C525 1.403 . S
C523 C520 1.403 . S
C523 C524 1.524 . S
C523 C527 1.400 1_565 S
C524 H509 0.960 . S
C524 H510 0.960 . S
C524 H511 0.960 . S
C524 C523 1.524 . S
C525 C522 1.403 . S
C525 C526 1.392 . S
C525 C529 1.495 . S
C526 C525 1.392 . S
C526 C527 1.385 . S
C526 C528 1.478 . S
C527 H521 0.930 . S
C527 C523 1.400 1_545 S
C527 C526 1.385 . S
C528 C526 1.478 . S
C528 C530 1.381 . S
C528 C534 1.383 . S
C529 C525 1.495 . S
C529 H535 0.959 . S
C529 H536 0.961 . S
C529 H537 0.960 . S
C530 C528 1.381 . S
C530 C531 1.394 . S
C530 H538 0.930 . S
C531 C530 1.394 . S
C531 C532 1.383 . S
C531 H539 0.929 . S
C532 C531 1.383 . S
C532 C533 1.377 . S
C533 H517 0.930 . S
C533 C532 1.377 . S
C533 C534 1.379 . S
C534 H518 0.931 . S
C534 C528 1.383 . S
C534 C533 1.379 . S
H535 C529 0.959 . S
H536 C529 0.961 . S
H537 C529 0.960 . S
H538 C530 0.930 . S
H539 C531 0.929 . S
H540 C548 0.929 . S
H541 C550 0.930 . S
H542 C552 0.930 . S
H543 C555 0.929 . S
H544 C558 0.930 1_545 S
H545 C560 0.960 . S
H546 C560 0.960 . S
H547 C560 0.960 1_545 S
C548 H540 0.929 . S
C548 C549 1.377 . S
C548 C550 1.384 . S
C549 C548 1.377 . S
C549 C555 1.390 . S
C550 H541 0.930 . S
C550 C548 1.384 . S
C550 C551 1.372 . S
C551 C550 1.372 . S
C551 C552 1.400 . S
C551 C556 1.490 . S
C552 H542 0.930 . S
C552 C551 1.400 . S
C552 C555 1.386 . S
H553 C569 0.930 . S
H554 C570 0.931 . S
C555 H543 0.929 . S
C555 C549 1.390 . S
C555 C552 1.386 . S
C556 C551 1.490 . S
C556 C558 1.395 1_545 S
C556 C559 1.403 1_545 S
H557 C563 0.930 . S
C558 H544 0.930 1_565 S
C558 C556 1.395 1_565 S
C558 C561 1.403 . S
C559 C556 1.403 1_565 S
C559 C560 1.524 . S
C559 C563 1.400 . S
C560 H545 0.960 . S
C560 H546 0.960 . S
C560 H547 0.960 1_565 S
C560 C559 1.524 . S
C561 C558 1.403 . S
C561 C562 1.392 . S
C561 C565 1.495 . S
C562 C561 1.392 . S
C562 C563 1.385 . S
C562 C564 1.478 . S
C563 H557 0.930 . S
C563 C559 1.400 . S
C563 C562 1.385 . S
C564 C562 1.478 . S
C564 C566 1.381 . S
C564 C570 1.383 . S
C565 C561 1.495 . S
C565 H571 0.959 . S
C565 H572 0.961 . S
C565 H573 0.960 . S
C566 C564 1.381 . S
C566 C567 1.394 . S
C566 H574 0.930 . S
C567 C566 1.394 . S
C567 C568 1.383 . S
C567 H575 0.929 . S
C568 C567 1.383 . S
C568 C569 1.377 . S
C569 H553 0.930 . S
C569 C568 1.377 . S
C569 C570 1.379 . S
C570 H554 0.931 . S
C570 C564 1.383 . S
C570 C569 1.379 . S
H571 C565 0.959 . S
H572 C565 0.961 . S
H573 C565 0.960 . S
H574 C566 0.930 . S
H575 C567 0.929 . S
H576 C584 0.929 . S
H577 C586 0.930 . S
H578 C588 0.930 . S
H579 C591 0.929 . S
H580 C594 0.930 . S
H581 C596 0.960 . S
H582 C596 0.960 . S
H583 C596 0.960 . S
C584 H576 0.929 . S
C584 C585 1.377 . S
C584 C586 1.384 . S
C585 C584 1.377 . S
C585 C591 1.390 . S
C586 H577 0.930 . S
C586 C584 1.384 . S
C586 C587 1.372 . S
C587 C586 1.372 . S
C587 C588 1.400 . S
C587 C592 1.490 . S
C588 H578 0.930 . S
C588 C587 1.400 . S
C588 C591 1.386 . S
H589 C605 0.930 . S
H590 C606 0.931 . S
C591 H579 0.929 . S
C591 C585 1.390 . S
C591 C588 1.386 . S
C592 C587 1.490 . S
C592 C594 1.395 . S
C592 C595 1.403 . S
H593 C599 0.930 . S
C594 H580 0.930 . S
C594 C592 1.395 . S
C594 C597 1.403 . S
C595 C592 1.403 . S
C595 C596 1.524 . S
C595 C599 1.400 . S
C596 H581 0.960 . S
C596 H582 0.960 . S
C596 H583 0.960 . S
C596 C595 1.524 . S
C597 C594 1.403 . S
C597 C598 1.392 . S
C597 C601 1.495 . S
C598 C597 1.392 . S
C598 C599 1.385 . S
C598 C600 1.478 . S
C599 H593 0.930 . S
C599 C595 1.400 . S
C599 C598 1.385 . S
C600 C598 1.478 . S
C600 C602 1.381 . S
C600 C606 1.383 . S
C601 C597 1.495 . S
C601 H607 0.959 . S
C601 H608 0.961 . S
C601 H609 0.960 . S
C602 C600 1.381 . S
C602 C603 1.394 . S
C602 H610 0.930 . S
C603 C602 1.394 . S
C603 C604 1.383 . S
C603 H611 0.929 . S
C604 C603 1.383 . S
C604 C605 1.377 . S
C605 H589 0.930 . S
C605 C604 1.377 . S
C605 C606 1.379 . S
C606 H590 0.931 . S
C606 C600 1.383 . S
C606 C605 1.379 . S
H607 C601 0.959 . S
H608 C601 0.961 . S
H609 C601 0.960 . S
H610 C602 0.930 . S
H611 C603 0.929 . S
H612 C620 0.929 . S
H613 C622 0.930 . S
H614 C624 0.930 . S
H615 C627 0.929 . S
H616 C630 0.930 . S
H617 C632 0.960 . S
H618 C632 0.960 . S
H619 C632 0.960 . S
C620 H612 0.929 . S
C620 C621 1.377 . S
C620 C622 1.384 . S
C621 C620 1.377 . S
C621 C627 1.390 . S
C622 H613 0.930 . S
C622 C620 1.384 . S
C622 C623 1.372 . S
C623 C622 1.372 . S
C623 C624 1.400 . S
C623 C628 1.490 . S
C624 H614 0.930 . S
C624 C623 1.400 . S
C624 C627 1.386 . S
H625 C641 0.930 . S
H626 C642 0.931 . S
C627 H615 0.929 . S
C627 C621 1.390 . S
C627 C624 1.386 . S
C628 C623 1.490 . S
C628 C630 1.395 . S
C628 C631 1.403 . S
H629 C635 0.930 . S
C630 H616 0.930 . S
C630 C628 1.395 . S
C630 C633 1.403 . S
C631 C628 1.403 . S
C631 C632 1.524 . S
C631 C635 1.400 . S
C632 H617 0.960 . S
C632 H618 0.960 . S
C632 H619 0.960 . S
C632 C631 1.524 . S
C633 C630 1.403 . S
C633 C634 1.392 . S
C633 C637 1.495 . S
C634 C633 1.392 . S
C634 C635 1.385 . S
C634 C636 1.478 . S
C635 H629 0.930 . S
C635 C631 1.400 . S
C635 C634 1.385 . S
C636 C634 1.478 . S
C636 C638 1.381 . S
C636 C642 1.383 . S
C637 C633 1.495 . S
C637 H643 0.959 . S
C637 H644 0.961 . S
C637 H645 0.960 . S
C638 C636 1.381 . S
C638 C639 1.394 . S
C638 H646 0.930 . S
C639 C638 1.394 . S
C639 C640 1.383 . S
C639 H647 0.929 . S
C640 C639 1.383 . S
C640 C641 1.377 . S
C641 H625 0.930 . S
C641 C640 1.377 . S
C641 C642 1.379 . S
C642 H626 0.931 . S
C642 C636 1.383 . S
C642 C641 1.379 . S
H643 C637 0.959 . S
H644 C637 0.961 . S
H645 C637 0.960 . S
H646 C638 0.930 . S
H647 C639 0.929 . S
H648 C656 0.929 . S
H649 C658 0.930 . S
H650 C660 0.930 . S
H651 C663 0.929 . S
H652 C666 0.930 . S
H653 C668 0.960 . S
H654 C668 0.960 . S
H655 C668 0.960 . S
C656 H648 0.929 . S
C656 C657 1.377 . S
C656 C658 1.384 . S
C657 C656 1.377 . S
C657 C663 1.390 . S
C658 H649 0.930 . S
C658 C656 1.384 . S
C658 C659 1.372 . S
C659 C658 1.372 . S
C659 C660 1.400 . S
C659 C664 1.490 . S
C660 H650 0.930 . S
C660 C659 1.400 . S
C660 C663 1.386 . S
H661 C677 0.930 . S
H662 C678 0.931 . S
C663 H651 0.929 . S
C663 C657 1.390 . S
C663 C660 1.386 . S
C664 C659 1.490 . S
C664 C666 1.395 . S
C664 C667 1.403 1_545 S
H665 C671 0.930 . S
C666 H652 0.930 . S
C666 C664 1.395 . S
C666 C669 1.403 1_545 S
C667 C664 1.403 1_565 S
C667 C668 1.524 . S
C667 C671 1.400 . S
C668 H653 0.960 . S
C668 H654 0.960 . S
C668 H655 0.960 . S
C668 C667 1.524 . S
C669 C666 1.403 1_565 S
C669 C670 1.392 . S
C669 C673 1.495 . S
C670 C669 1.392 . S
C670 C671 1.385 . S
C670 C672 1.478 . S
C671 H665 0.930 . S
C671 C667 1.400 . S
C671 C670 1.385 . S
C672 C670 1.478 . S
C672 C674 1.381 . S
C672 C678 1.383 . S
C673 C669 1.495 . S
C673 H679 0.959 1_565 S
C673 H680 0.961 . S
C673 H681 0.960 . S
C674 C672 1.381 . S
C674 C675 1.394 . S
C674 H682 0.930 . S
C675 C674 1.394 . S
C675 C676 1.383 . S
C675 H683 0.929 . S
C676 C675 1.383 . S
C676 C677 1.377 . S
C677 H661 0.930 . S
C677 C676 1.377 . S
C677 C678 1.379 . S
C678 H662 0.931 . S
C678 C672 1.383 . S
C678 C677 1.379 . S
H679 C673 0.959 1_545 S
H680 C673 0.961 . S
H681 C673 0.960 . S
H682 C674 0.930 . S
H683 C675 0.929 . S
H684 C692 0.929 . S
H685 C694 0.930 . S
H686 C696 0.930 . S
H687 C699 0.929 1_556 S
H688 C702 0.930 . S
H689 C704 0.960 . S
H690 C704 0.960 . S
H691 C704 0.960 . S
C692 H684 0.929 . S
C692 C693 1.377 . S
C692 C694 1.384 . S
C693 C692 1.377 . S
C693 C699 1.390 . S
C694 H685 0.930 . S
C694 C692 1.384 . S
C694 C695 1.372 . S
C695 C694 1.372 . S
C695 C696 1.400 . S
C695 C700 1.490 . S
C696 H686 0.930 . S
C696 C695 1.400 . S
C696 C699 1.386 . S
H697 C713 0.930 . S
H698 C714 0.931 . S
C699 H687 0.929 1_554 S
C699 C693 1.390 . S
C699 C696 1.386 . S
C700 C695 1.490 . S
C700 C702 1.395 . S
C700 C703 1.403 . S
H701 C707 0.930 . S
C702 H688 0.930 . S
C702 C700 1.395 . S
C702 C705 1.403 . S
C703 C700 1.403 . S
C703 C704 1.524 . S
C703 C707 1.400 . S
C704 H689 0.960 . S
C704 H690 0.960 . S
C704 H691 0.960 . S
C704 C703 1.524 . S
C705 C702 1.403 . S
C705 C706 1.392 . S
C705 C709 1.495 . S
C706 C705 1.392 . S
C706 C707 1.385 . S
C706 C708 1.478 . S
C707 H701 0.930 . S
C707 C703 1.400 . S
C707 C706 1.385 . S
C708 C706 1.478 . S
C708 C710 1.381 . S
C708 C714 1.383 . S
C709 C705 1.495 . S
C709 H715 0.959 . S
C709 H716 0.961 . S
C709 H717 0.960 . S
C710 C708 1.381 . S
C710 C711 1.394 . S
C710 H718 0.930 . S
C711 C710 1.394 . S
C711 C712 1.383 . S
C711 H719 0.929 . S
C712 C711 1.383 . S
C712 C713 1.377 . S
C713 H697 0.930 . S
C713 C712 1.377 . S
C713 C714 1.379 . S
C714 H698 0.931 . S
C714 C708 1.383 . S
C714 C713 1.379 . S
H715 C709 0.959 . S
H716 C709 0.961 . S
H717 C709 0.960 . S
H718 C710 0.930 . S
H719 C711 0.929 . S
H720 C728 0.929 . S
H721 C730 0.930 . S
H722 C732 0.930 . S
H723 C735 0.929 . S
H724 C738 0.930 . S
H725 C740 0.960 . S
H726 C740 0.960 . S
H727 C740 0.960 . S
C728 H720 0.929 . S
C728 C729 1.377 . S
C728 C730 1.384 . S
C729 C728 1.377 . S
C729 C735 1.390 . S
C730 H721 0.930 . S
C730 C728 1.384 . S
C730 C731 1.372 . S
C731 C730 1.372 . S
C731 C732 1.400 . S
C731 C736 1.490 . S
C732 H722 0.930 . S
C732 C731 1.400 . S
C732 C735 1.386 . S
H733 C749 0.930 . S
H734 C750 0.931 . S
C735 H723 0.929 . S
C735 C729 1.390 . S
C735 C732 1.386 . S
C736 C731 1.490 . S
C736 C738 1.395 . S
C736 C739 1.403 . S
H737 C743 0.930 . S
C738 H724 0.930 . S
C738 C736 1.395 . S
C738 C741 1.403 . S
C739 C736 1.403 . S
C739 C740 1.524 . S
C739 C743 1.400 . S
C740 H725 0.960 . S
C740 H726 0.960 . S
C740 H727 0.960 . S
C740 C739 1.524 . S
C741 C738 1.403 . S
C741 C742 1.392 . S
C741 C745 1.495 . S
C742 C741 1.392 . S
C742 C743 1.385 . S
C742 C744 1.478 . S
C743 H737 0.930 . S
C743 C739 1.400 . S
C743 C742 1.385 . S
C744 C742 1.478 . S
C744 C746 1.381 . S
C744 C750 1.383 . S
C745 C741 1.495 . S
C745 H751 0.959 . S
C745 H752 0.961 . S
C745 H753 0.960 . S
C746 C744 1.381 . S
C746 C747 1.394 . S
C746 H754 0.930 . S
C747 C746 1.394 . S
C747 C748 1.383 . S
C747 H755 0.929 . S
C748 C747 1.383 . S
C748 C749 1.377 . S
C749 H733 0.930 . S
C749 C748 1.377 . S
C749 C750 1.379 . S
C750 H734 0.931 . S
C750 C744 1.383 . S
C750 C749 1.379 . S
H751 C745 0.959 . S
H752 C745 0.961 . S
H753 C745 0.960 . S
H754 C746 0.930 . S
H755 C747 0.929 . S
H756 C764 0.929 1_554 S
H757 C766 0.930 . S
H758 C768 0.930 . S
H759 C771 0.929 . S
H760 C774 0.930 . S
H761 C776 0.960 . S
H762 C776 0.960 . S
H763 C776 0.960 . S
C764 H756 0.929 1_556 S
C764 C765 1.377 . S
C764 C766 1.384 . S
C765 C764 1.377 . S
C765 C771 1.390 . S
C766 H757 0.930 . S
C766 C764 1.384 . S
C766 C767 1.372 . S
C767 C766 1.372 . S
C767 C768 1.400 . S
C767 C772 1.490 . S
C768 H758 0.930 . S
C768 C767 1.400 . S
C768 C771 1.386 . S
H769 C785 0.930 . S
H770 C786 0.931 . S
C771 H759 0.929 . S
C771 C765 1.390 . S
C771 C768 1.386 . S
C772 C767 1.490 . S
C772 C774 1.395 . S
C772 C775 1.403 . S
H773 C779 0.930 . S
C774 H760 0.930 . S
C774 C772 1.395 . S
C774 C777 1.403 . S
C775 C772 1.403 . S
C775 C776 1.524 . S
C775 C779 1.400 . S
C776 H761 0.960 . S
C776 H762 0.960 . S
C776 H763 0.960 . S
C776 C775 1.524 . S
C777 C774 1.403 . S
C777 C778 1.392 . S
C777 C781 1.495 . S
C778 C777 1.392 . S
C778 C779 1.385 . S
C778 C780 1.478 . S
C779 H773 0.930 . S
C779 C775 1.400 . S
C779 C778 1.385 . S
C780 C778 1.478 . S
C780 C782 1.381 . S
C780 C786 1.383 . S
C781 C777 1.495 . S
C781 H787 0.959 . S
C781 H788 0.961 . S
C781 H789 0.960 . S
C782 C780 1.381 . S
C782 C783 1.394 . S
C782 H790 0.930 . S
C783 C782 1.394 . S
C783 C784 1.383 . S
C783 H791 0.929 . S
C784 C783 1.383 . S
C784 C785 1.377 . S
C785 H769 0.930 . S
C785 C784 1.377 . S
C785 C786 1.379 . S
C786 H770 0.931 . S
C786 C780 1.383 . S
C786 C785 1.379 . S
H787 C781 0.959 . S
H788 C781 0.961 . S
H789 C781 0.960 . S
H790 C782 0.930 . S
H791 C783 0.929 . S
H792 C800 0.929 . S
H793 C802 0.930 . S
H794 C804 0.930 . S
H795 C807 0.929 . S
H796 C810 0.930 . S
H797 C812 0.960 . S
H798 C812 0.960 . S
H799 C812 0.960 . S
C800 H792 0.929 . S
C800 C801 1.377 . S
C800 C802 1.384 . S
C801 C800 1.377 . S
C801 C807 1.390 . S
C802 H793 0.930 . S
C802 C800 1.384 . S
C802 C803 1.372 . S
C803 C802 1.372 . S
C803 C804 1.400 . S
C803 C808 1.490 . S
C804 H794 0.930 . S
C804 C803 1.400 . S
C804 C807 1.386 . S
H805 C821 0.930 . S
H806 C822 0.931 . S
C807 H795 0.929 . S
C807 C801 1.390 . S
C807 C804 1.386 . S
C808 C803 1.490 . S
C808 C810 1.395 . S
C808 C811 1.403 . S
H809 C815 0.930 . S
C810 H796 0.930 . S
C810 C808 1.395 . S
C810 C813 1.403 . S
C811 C808 1.403 . S
C811 C812 1.524 . S
C811 C815 1.400 . S
C812 H797 0.960 . S
C812 H798 0.960 . S
C812 H799 0.960 . S
C812 C811 1.524 . S
C813 C810 1.403 . S
C813 C814 1.392 . S
C813 C817 1.495 . S
C814 C813 1.392 . S
C814 C815 1.385 . S
C814 C816 1.478 . S
C815 H809 0.930 . S
C815 C811 1.400 . S
C815 C814 1.385 . S
C816 C814 1.478 . S
C816 C818 1.381 . S
C816 C822 1.383 . S
C817 C813 1.495 . S
C817 H823 0.959 . S
C817 H824 0.961 . S
C817 H825 0.960 . S
C818 C816 1.381 . S
C818 C819 1.394 . S
C818 H826 0.930 . S
C819 C818 1.394 . S
C819 C820 1.383 . S
C819 H827 0.929 . S
C820 C819 1.383 . S
C820 C821 1.377 . S
C821 H805 0.930 . S
C821 C820 1.377 . S
C821 C822 1.379 . S
C822 H806 0.931 . S
C822 C816 1.383 . S
C822 C821 1.379 . S
H823 C817 0.959 . S
H824 C817 0.961 . S
H825 C817 0.960 . S
H826 C818 0.930 . S
H827 C819 0.929 . S
H828 C836 0.929 1_554 S
H829 C838 0.930 . S
H830 C840 0.930 . S
H831 C843 0.929 . S
H832 C846 0.930 . S
H833 C848 0.960 . S
H834 C848 0.960 . S
H835 C848 0.960 . S
C836 H828 0.929 1_556 S
C836 C837 1.377 . S
C836 C838 1.384 . S
C837 C836 1.377 . S
C837 C843 1.390 . S
C838 H829 0.930 . S
C838 C836 1.384 . S
C838 C839 1.372 . S
C839 C838 1.372 . S
C839 C840 1.400 . S
C839 C844 1.490 . S
C840 H830 0.930 . S
C840 C839 1.400 . S
C840 C843 1.386 . S
H841 C857 0.930 . S
H842 C858 0.931 . S
C843 H831 0.929 . S
C843 C837 1.390 . S
C843 C840 1.386 . S
C844 C839 1.490 . S
C844 C846 1.395 . S
C844 C847 1.403 . S
H845 C851 0.930 . S
C846 H832 0.930 . S
C846 C844 1.395 . S
C846 C849 1.403 . S
C847 C844 1.403 . S
C847 C848 1.524 . S
C847 C851 1.400 . S
C848 H833 0.960 . S
C848 H834 0.960 . S
C848 H835 0.960 . S
C848 C847 1.524 . S
C849 C846 1.403 . S
C849 C850 1.392 . S
C849 C853 1.495 . S
C850 C849 1.392 . S
C850 C851 1.385 . S
C850 C852 1.478 . S
C851 H845 0.930 . S
C851 C847 1.400 . S
C851 C850 1.385 . S
C852 C850 1.478 . S
C852 C854 1.381 . S
C852 C858 1.383 . S
C853 C849 1.495 . S
C853 H859 0.959 . S
C853 H860 0.961 . S
C853 H861 0.960 . S
C854 C852 1.381 . S
C854 C855 1.394 . S
C854 H862 0.930 . S
C855 C854 1.394 . S
C855 C856 1.383 . S
C855 H863 0.929 . S
C856 C855 1.383 . S
C856 C857 1.377 . S
C857 H841 0.930 . S
C857 C856 1.377 . S
C857 C858 1.379 . S
C858 H842 0.931 . S
C858 C852 1.383 . S
C858 C857 1.379 . S
H859 C853 0.959 . S
H860 C853 0.961 . S
H861 C853 0.960 . S
H862 C854 0.930 . S
H863 C855 0.929 . S
H864 C872 0.929 . S
H865 C874 0.930 . S
H866 C876 0.930 . S
H867 C879 0.929 . S
H868 C882 0.930 . S
H869 C884 0.960 . S
H870 C884 0.960 . S
H871 C884 0.960 . S
C872 H864 0.929 . S
C872 C873 1.377 . S
C872 C874 1.384 . S
C873 C872 1.377 . S
C873 C879 1.390 . S
C874 H865 0.930 . S
C874 C872 1.384 . S
C874 C875 1.372 . S
C875 C874 1.372 . S
C875 C876 1.400 . S
C875 C880 1.490 . S
C876 H866 0.930 . S
C876 C875 1.400 . S
C876 C879 1.386 . S
H877 C893 0.930 . S
H878 C894 0.931 . S
C879 H867 0.929 . S
C879 C873 1.390 . S
C879 C876 1.386 . S
C880 C875 1.490 . S
C880 C882 1.395 . S
C880 C883 1.403 . S
H881 C887 0.930 . S
C882 H868 0.930 . S
C882 C880 1.395 . S
C882 C885 1.403 . S
C883 C880 1.403 . S
C883 C884 1.524 . S
C883 C887 1.400 . S
C884 H869 0.960 . S
C884 H870 0.960 . S
C884 H871 0.960 . S
C884 C883 1.524 . S
C885 C882 1.403 . S
C885 C886 1.392 . S
C885 C889 1.495 . S
C886 C885 1.392 . S
C886 C887 1.385 . S
C886 C888 1.478 . S
C887 H881 0.930 . S
C887 C883 1.400 . S
C887 C886 1.385 . S
C888 C886 1.478 . S
C888 C890 1.381 . S
C888 C894 1.383 . S
C889 C885 1.495 . S
C889 H895 0.959 . S
C889 H896 0.961 . S
C889 H897 0.960 . S
C890 C888 1.381 . S
C890 C891 1.394 . S
C890 H898 0.930 . S
C891 C890 1.394 . S
C891 C892 1.383 . S
C891 H899 0.929 . S
C892 C891 1.383 . S
C892 C893 1.377 . S
C893 H877 0.930 . S
C893 C892 1.377 . S
C893 C894 1.379 . S
C894 H878 0.931 . S
C894 C888 1.383 . S
C894 C893 1.379 . S
H895 C889 0.959 . S
H896 C889 0.961 . S
H897 C889 0.960 . S
H898 C890 0.930 . S
H899 C891 0.929 . S
H900 C908 0.929 1_556 S
H901 C910 0.930 . S
H902 C912 0.930 . S
H903 C915 0.929 . S
H904 C918 0.930 . S
H905 C920 0.960 . S
H906 C920 0.960 . S
H907 C920 0.960 . S
C908 H900 0.929 1_554 S
C908 C909 1.377 . S
C908 C910 1.384 . S
C909 C908 1.377 . S
C909 C915 1.390 . S
C910 H901 0.930 . S
C910 C908 1.384 . S
C910 C911 1.372 . S
C911 C910 1.372 . S
C911 C912 1.400 . S
C911 C916 1.490 . S
C912 H902 0.930 . S
C912 C911 1.400 . S
C912 C915 1.386 . S
H913 C929 0.930 . S
H914 C930 0.931 . S
C915 H903 0.929 . S
C915 C909 1.390 . S
C915 C912 1.386 . S
C916 C911 1.490 . S
C916 C918 1.395 . S
C916 C919 1.403 . S
H917 C923 0.930 . S
C918 H904 0.930 . S
C918 C916 1.395 . S
C918 C921 1.403 . S
C919 C916 1.403 . S
C919 C920 1.524 . S
C919 C923 1.400 . S
C920 H905 0.960 . S
C920 H906 0.960 . S
C920 H907 0.960 . S
C920 C919 1.524 . S
C921 C918 1.403 . S
C921 C922 1.392 . S
C921 C925 1.495 . S
C922 C921 1.392 . S
C922 C923 1.385 . S
C922 C924 1.478 . S
C923 H917 0.930 . S
C923 C919 1.400 . S
C923 C922 1.385 . S
C924 C922 1.478 . S
C924 C926 1.381 . S
C924 C930 1.383 . S
C925 C921 1.495 . S
C925 H931 0.959 . S
C925 H932 0.961 . S
C925 H933 0.960 . S
C926 C924 1.381 . S
C926 C927 1.394 . S
C926 H934 0.930 . S
C927 C926 1.394 . S
C927 C928 1.383 . S
C927 H935 0.929 . S
C928 C927 1.383 . S
C928 C929 1.377 . S
C929 H913 0.930 . S
C929 C928 1.377 . S
C929 C930 1.379 . S
C930 H914 0.931 . S
C930 C924 1.383 . S
C930 C929 1.379 . S
H931 C925 0.959 . S
H932 C925 0.961 . S
H933 C925 0.960 . S
H934 C926 0.930 . S
H935 C927 0.929 . S
H936 C944 0.929 . S
H937 C946 0.930 . S
H938 C948 0.930 . S
H939 C951 0.929 . S
H940 C954 0.930 . S
H941 C956 0.960 . S
H942 C956 0.960 . S
H943 C956 0.960 . S
C944 H936 0.929 . S
C944 C945 1.377 . S
C944 C946 1.384 . S
C945 C944 1.377 . S
C945 C951 1.390 . S
C946 H937 0.930 . S
C946 C944 1.384 . S
C946 C947 1.372 . S
C947 C946 1.372 . S
C947 C948 1.400 . S
C947 C952 1.490 . S
C948 H938 0.930 . S
C948 C947 1.400 . S
C948 C951 1.386 . S
H949 C965 0.930 . S
H950 C966 0.931 . S
C951 H939 0.929 . S
C951 C945 1.390 . S
C951 C948 1.386 . S
C952 C947 1.490 . S
C952 C954 1.395 . S
C952 C955 1.403 . S
H953 C959 0.930 . S
C954 H940 0.930 . S
C954 C952 1.395 . S
C954 C957 1.403 . S
C955 C952 1.403 . S
C955 C956 1.524 . S
C955 C959 1.400 . S
C956 H941 0.960 . S
C956 H942 0.960 . S
C956 H943 0.960 . S
C956 C955 1.524 . S
C957 C954 1.403 . S
C957 C958 1.392 . S
C957 C961 1.495 . S
C958 C957 1.392 . S
C958 C959 1.385 . S
C958 C960 1.478 . S
C959 H953 0.930 . S
C959 C955 1.400 . S
C959 C958 1.385 . S
C960 C958 1.478 . S
C960 C962 1.381 . S
C960 C966 1.383 . S
C961 C957 1.495 . S
C961 H967 0.959 . S
C961 H968 0.961 . S
C961 H969 0.960 . S
C962 C960 1.381 . S
C962 C963 1.394 . S
C962 H970 0.930 . S
C963 C962 1.394 . S
C963 C964 1.383 . S
C963 H971 0.929 . S
C964 C963 1.383 . S
C964 C965 1.377 . S
C965 H949 0.930 . S
C965 C964 1.377 . S
C965 C966 1.379 . S
C966 H950 0.931 . S
C966 C960 1.383 . S
C966 C965 1.379 . S
H967 C961 0.959 . S
H968 C961 0.961 . S
H969 C961 0.960 . S
H970 C962 0.930 . S
H971 C963 0.929 . S
H972 C980 0.929 . S
H973 C982 0.930 . S
H974 C984 0.930 . S
H975 C987 0.929 . S
H976 C990 0.930 . S
H977 C992 0.960 . S
H978 C992 0.960 . S
H979 C992 0.960 . S
C980 H972 0.929 . S
C980 C981 1.377 . S
C980 C982 1.384 . S
C981 C980 1.377 . S
C981 C987 1.390 . S
C982 H973 0.930 . S
C982 C980 1.384 . S
C982 C983 1.372 . S
C983 C982 1.372 . S
C983 C984 1.400 . S
C983 C988 1.490 . S
C984 H974 0.930 . S
C984 C983 1.400 . S
C984 C987 1.386 . S
H985 C1001 0.930 . S
H986 C1002 0.931 . S
C987 H975 0.929 . S
C987 C981 1.390 . S
C987 C984 1.386 . S
C988 C983 1.490 . S
C988 C990 1.395 . S
C988 C991 1.403 . S
H989 C995 0.930 . S
C990 H976 0.930 . S
C990 C988 1.395 . S
C990 C993 1.403 . S
C991 C988 1.403 . S
C991 C992 1.524 . S
C991 C995 1.400 . S
C992 H977 0.960 . S
C992 H978 0.960 . S
C992 H979 0.960 . S
C992 C991 1.524 . S
C993 C990 1.403 . S
C993 C994 1.392 . S
C993 C997 1.495 . S
C994 C993 1.392 . S
C994 C995 1.385 . S
C994 C996 1.478 . S
C995 H989 0.930 . S
C995 C991 1.400 . S
C995 C994 1.385 . S
C996 C994 1.478 . S
C996 C998 1.381 . S
C996 C1002 1.383 . S
C997 C993 1.495 . S
C997 H1003 0.959 . S
C997 H1004 0.961 . S
C997 H1005 0.960 . S
C998 C996 1.381 . S
C998 C999 1.394 . S
C998 H1006 0.930 . S
C999 C998 1.394 . S
C999 C1000 1.383 . S
C999 H1007 0.929 . S
C1000 C999 1.383 . S
C1000 C1001 1.377 . S
C1001 H985 0.930 . S
C1001 C1000 1.377 . S
C1001 C1002 1.379 . S
C1002 H986 0.931 . S
C1002 C996 1.383 . S
C1002 C1001 1.379 . S
H1003 C997 0.959 . S
H1004 C997 0.961 . S
H1005 C997 0.960 . S
H1006 C998 0.930 . S
H1007 C999 0.929 . S
H1008 C1016 0.929 . S
H1009 C1018 0.930 . S
H1010 C1020 0.930 . S
H1011 C1023 0.929 . S
H1012 C1026 0.930 . S
H1013 C1028 0.960 . S
H1014 C1028 0.960 . S
H1015 C1028 0.960 . S
C1016 H1008 0.929 . S
C1016 C1017 1.377 . S
C1016 C1018 1.384 . S
C1017 C1016 1.377 . S
C1017 C1023 1.390 . S
C1018 H1009 0.930 . S
C1018 C1016 1.384 . S
C1018 C1019 1.372 . S
C1019 C1018 1.372 . S
C1019 C1020 1.400 . S
C1019 C1024 1.490 . S
C1020 H1010 0.930 . S
C1020 C1019 1.400 . S
C1020 C1023 1.386 . S
H1021 C1037 0.930 . S
H1022 C1038 0.931 . S
C1023 H1011 0.929 . S
C1023 C1017 1.390 . S
C1023 C1020 1.386 . S
C1024 C1019 1.490 . S
C1024 C1026 1.395 . S
C1024 C1027 1.403 . S
H1025 C1031 0.930 . S
C1026 H1012 0.930 . S
C1026 C1024 1.395 . S
C1026 C1029 1.403 . S
C1027 C1024 1.403 . S
C1027 C1028 1.524 . S
C1027 C1031 1.400 . S
C1028 H1013 0.960 . S
C1028 H1014 0.960 . S
C1028 H1015 0.960 . S
C1028 C1027 1.524 . S
C1029 C1026 1.403 . S
C1029 C1030 1.392 . S
C1029 C1033 1.495 . S
C1030 C1029 1.392 . S
C1030 C1031 1.385 . S
C1030 C1032 1.478 . S
C1031 H1025 0.930 . S
C1031 C1027 1.400 . S
C1031 C1030 1.385 . S
C1032 C1030 1.478 . S
C1032 C1034 1.381 . S
C1032 C1038 1.383 . S
C1033 C1029 1.495 . S
C1033 H1039 0.959 . S
C1033 H1040 0.961 . S
C1033 H1041 0.960 . S
C1034 C1032 1.381 . S
C1034 C1035 1.394 . S
C1034 H1042 0.930 . S
C1035 C1034 1.394 . S
C1035 C1036 1.383 . S
C1035 H1043 0.929 . S
C1036 C1035 1.383 . S
C1036 C1037 1.377 . S
C1037 H1021 0.930 . S
C1037 C1036 1.377 . S
C1037 C1038 1.379 . S
C1038 H1022 0.931 . S
C1038 C1032 1.383 . S
C1038 C1037 1.379 . S
H1039 C1033 0.959 . S
H1040 C1033 0.961 . S
H1041 C1033 0.960 . S
H1042 C1034 0.930 . S
H1043 C1035 0.929 . S
H1044 C1052 0.929 . S
H1045 C1054 0.930 . S
H1046 C1056 0.930 . S
H1047 C1059 0.929 . S
H1048 C1062 0.930 . S
H1049 C1064 0.960 . S
H1050 C1064 0.960 . S
H1051 C1064 0.960 . S
C1052 H1044 0.929 . S
C1052 C1053 1.377 . S
C1052 C1054 1.384 . S
C1053 C1052 1.377 . S
C1053 C1059 1.390 . S
C1054 H1045 0.930 . S
C1054 C1052 1.384 . S
C1054 C1055 1.372 . S
C1055 C1054 1.372 . S
C1055 C1056 1.400 . S
C1055 C1060 1.490 . S
C1056 H1046 0.930 . S
C1056 C1055 1.400 . S
C1056 C1059 1.386 . S
H1057 C1073 0.930 . S
H1058 C1074 0.931 . S
C1059 H1047 0.929 . S
C1059 C1053 1.390 . S
C1059 C1056 1.386 . S
C1060 C1055 1.490 . S
C1060 C1062 1.395 . S
C1060 C1063 1.403 . S
H1061 C1067 0.930 . S
C1062 H1048 0.930 . S
C1062 C1060 1.395 . S
C1062 C1065 1.403 . S
C1063 C1060 1.403 . S
C1063 C1064 1.524 . S
C1063 C1067 1.400 . S
C1064 H1049 0.960 . S
C1064 H1050 0.960 . S
C1064 H1051 0.960 . S
C1064 C1063 1.524 . S
C1065 C1062 1.403 . S
C1065 C1066 1.392 . S
C1065 C1069 1.495 . S
C1066 C1065 1.392 . S
C1066 C1067 1.385 . S
C1066 C1068 1.478 . S
C1067 H1061 0.930 . S
C1067 C1063 1.400 . S
C1067 C1066 1.385 . S
C1068 C1066 1.478 . S
C1068 C1070 1.381 . S
C1068 C1074 1.383 . S
C1069 C1065 1.495 . S
C1069 H1075 0.959 . S
C1069 H1076 0.961 . S
C1069 H1077 0.960 . S
C1070 C1068 1.381 . S
C1070 C1071 1.394 . S
C1070 H1078 0.930 . S
C1071 C1070 1.394 . S
C1071 C1072 1.383 . S
C1071 H1079 0.929 . S
C1072 C1071 1.383 . S
C1072 C1073 1.377 . S
C1073 H1057 0.930 . S
C1073 C1072 1.377 . S
C1073 C1074 1.379 . S
C1074 H1058 0.931 . S
C1074 C1068 1.383 . S
C1074 C1073 1.379 . S
H1075 C1069 0.959 . S
H1076 C1069 0.961 . S
H1077 C1069 0.960 . S
H1078 C1070 0.930 . S
H1079 C1071 0.929 . S
H1080 C1088 0.929 . S
H1081 C1090 0.930 . S
H1082 C1092 0.930 . S
H1083 C1095 0.929 . S
H1084 C1098 0.930 . S
H1085 C1100 0.960 . S
H1086 C1100 0.960 . S
H1087 C1100 0.960 . S
C1088 H1080 0.929 . S
C1088 C1089 1.377 . S
C1088 C1090 1.384 . S
C1089 C1088 1.377 . S
C1089 C1095 1.390 . S
C1090 H1081 0.930 . S
C1090 C1088 1.384 . S
C1090 C1091 1.372 . S
C1091 C1090 1.372 . S
C1091 C1092 1.400 . S
C1091 C1096 1.490 . S
C1092 H1082 0.930 . S
C1092 C1091 1.400 . S
C1092 C1095 1.386 . S
H1093 C1109 0.930 . S
H1094 C1110 0.931 . S
C1095 H1083 0.929 . S
C1095 C1089 1.390 . S
C1095 C1092 1.386 . S
C1096 C1091 1.490 . S
C1096 C1098 1.395 . S
C1096 C1099 1.403 . S
H1097 C1103 0.930 . S
C1098 H1084 0.930 . S
C1098 C1096 1.395 . S
C1098 C1101 1.403 . S
C1099 C1096 1.403 . S
C1099 C1100 1.524 . S
C1099 C1103 1.400 . S
C1100 H1085 0.960 . S
C1100 H1086 0.960 . S
C1100 H1087 0.960 . S
C1100 C1099 1.524 . S
C1101 C1098 1.403 . S
C1101 C1102 1.392 . S
C1101 C1105 1.495 . S
C1102 C1101 1.392 . S
C1102 C1103 1.385 . S
C1102 C1104 1.478 . S
C1103 H1097 0.930 . S
C1103 C1099 1.400 . S
C1103 C1102 1.385 . S
C1104 C1102 1.478 . S
C1104 C1106 1.381 . S
C1104 C1110 1.383 . S
C1105 C1101 1.495 . S
C1105 H1111 0.959 . S
C1105 H1112 0.961 . S
C1105 H1113 0.960 . S
C1106 C1104 1.381 . S
C1106 C1107 1.394 . S
C1106 H1114 0.930 . S
C1107 C1106 1.394 . S
C1107 C1108 1.383 . S
C1107 H1115 0.929 . S
C1108 C1107 1.383 . S
C1108 C1109 1.377 . S
C1109 H1093 0.930 . S
C1109 C1108 1.377 . S
C1109 C1110 1.379 . S
C1110 H1094 0.931 . S
C1110 C1104 1.383 . S
C1110 C1109 1.379 . S
H1111 C1105 0.959 . S
H1112 C1105 0.961 . S
H1113 C1105 0.960 . S
H1114 C1106 0.930 . S
H1115 C1107 0.929 . S
H1116 C1124 0.929 . S
H1117 C1126 0.930 . S
H1118 C1128 0.930 . S
H1119 C1131 0.929 . S
H1120 C1134 0.930 . S
H1121 C1136 0.960 . S
H1122 C1136 0.960 . S
H1123 C1136 0.960 . S
C1124 H1116 0.929 . S
C1124 C1125 1.377 . S
C1124 C1126 1.384 . S
C1125 C1124 1.377 . S
C1125 C1131 1.390 . S
C1126 H1117 0.930 . S
C1126 C1124 1.384 . S
C1126 C1127 1.372 . S
C1127 C1126 1.372 . S
C1127 C1128 1.400 . S
C1127 C1132 1.490 . S
C1128 H1118 0.930 . S
C1128 C1127 1.400 . S
C1128 C1131 1.386 . S
H1129 C1145 0.930 . S
H1130 C1146 0.931 . S
C1131 H1119 0.929 . S
C1131 C1125 1.390 . S
C1131 C1128 1.386 . S
C1132 C1127 1.490 . S
C1132 C1134 1.395 . S
C1132 C1135 1.403 . S
H1133 C1139 0.930 . S
C1134 H1120 0.930 . S
C1134 C1132 1.395 . S
C1134 C1137 1.403 . S
C1135 C1132 1.403 . S
C1135 C1136 1.524 . S
C1135 C1139 1.400 . S
C1136 H1121 0.960 . S
C1136 H1122 0.960 . S
C1136 H1123 0.960 . S
C1136 C1135 1.524 . S
C1137 C1134 1.403 . S
C1137 C1138 1.392 . S
C1137 C1141 1.495 . S
C1138 C1137 1.392 . S
C1138 C1139 1.385 . S
C1138 C1140 1.478 . S
C1139 H1133 0.930 . S
C1139 C1135 1.400 . S
C1139 C1138 1.385 . S
C1140 C1138 1.478 . S
C1140 C1142 1.381 . S
C1140 C1146 1.383 . S
C1141 C1137 1.495 . S
C1141 H1147 0.959 . S
C1141 H1148 0.961 . S
C1141 H1149 0.960 . S
C1142 C1140 1.381 . S
C1142 C1143 1.394 . S
C1142 H1150 0.930 . S
C1143 C1142 1.394 . S
C1143 C1144 1.383 . S
C1143 H1151 0.929 . S
C1144 C1143 1.383 . S
C1144 C1145 1.377 . S
C1145 H1129 0.930 . S
C1145 C1144 1.377 . S
C1145 C1146 1.379 . S
C1146 H1130 0.931 . S
C1146 C1140 1.383 . S
C1146 C1145 1.379 . S
H1147 C1141 0.959 . S
H1148 C1141 0.961 . S
H1149 C1141 0.960 . S
H1150 C1142 0.930 . S
H1151 C1143 0.929 . S
H1152 C1160 0.929 . S
H1153 C1162 0.930 . S
H1154 C1164 0.930 . S
H1155 C1167 0.929 . S
H1156 C1170 0.930 . S
H1157 C1172 0.960 . S
H1158 C1172 0.960 . S
H1159 C1172 0.960 . S
C1160 H1152 0.929 . S
C1160 C1161 1.377 . S
C1160 C1162 1.384 . S
C1161 C1160 1.377 . S
C1161 C1167 1.390 . S
C1162 H1153 0.930 . S
C1162 C1160 1.384 . S
C1162 C1163 1.372 . S
C1163 C1162 1.372 . S
C1163 C1164 1.400 . S
C1163 C1168 1.490 . S
C1164 H1154 0.930 . S
C1164 C1163 1.400 . S
C1164 C1167 1.386 . S
H1165 C1181 0.930 . S
H1166 C1182 0.931 . S
C1167 H1155 0.929 . S
C1167 C1161 1.390 . S
C1167 C1164 1.386 . S
C1168 C1163 1.490 . S
C1168 C1170 1.395 . S
C1168 C1171 1.403 . S
H1169 C1175 0.930 . S
C1170 H1156 0.930 . S
C1170 C1168 1.395 . S
C1170 C1173 1.403 . S
C1171 C1168 1.403 . S
C1171 C1172 1.524 . S
C1171 C1175 1.400 . S
C1172 H1157 0.960 . S
C1172 H1158 0.960 . S
C1172 H1159 0.960 . S
C1172 C1171 1.524 . S
C1173 C1170 1.403 . S
C1173 C1174 1.392 . S
C1173 C1177 1.495 . S
C1174 C1173 1.392 . S
C1174 C1175 1.385 . S
C1174 C1176 1.478 . S
C1175 H1169 0.930 . S
C1175 C1171 1.400 . S
C1175 C1174 1.385 . S
C1176 C1174 1.478 . S
C1176 C1178 1.381 . S
C1176 C1182 1.383 . S
C1177 C1173 1.495 . S
C1177 H1183 0.959 . S
C1177 H1184 0.961 . S
C1177 H1185 0.960 . S
C1178 C1176 1.381 . S
C1178 C1179 1.394 . S
C1178 H1186 0.930 . S
C1179 C1178 1.394 . S
C1179 C1180 1.383 . S
C1179 H1187 0.929 . S
C1180 C1179 1.383 . S
C1180 C1181 1.377 . S
C1181 H1165 0.930 . S
C1181 C1180 1.377 . S
C1181 C1182 1.379 . S
C1182 H1166 0.931 . S
C1182 C1176 1.383 . S
C1182 C1181 1.379 . S
H1183 C1177 0.959 . S
H1184 C1177 0.961 . S
H1185 C1177 0.960 . S
H1186 C1178 0.930 . S
H1187 C1179 0.929 . S
H1188 C1196 0.929 . S
H1189 C1198 0.930 . S
H1190 C1200 0.930 . S
H1191 C1203 0.929 . S
H1192 C1206 0.930 . S
H1193 C1208 0.960 . S
H1194 C1208 0.960 . S
H1195 C1208 0.960 . S
C1196 H1188 0.929 . S
C1196 C1197 1.377 . S
C1196 C1198 1.384 . S
C1197 C1196 1.377 . S
C1197 C1203 1.390 . S
C1198 H1189 0.930 . S
C1198 C1196 1.384 . S
C1198 C1199 1.372 . S
C1199 C1198 1.372 . S
C1199 C1200 1.400 . S
C1199 C1204 1.490 . S
C1200 H1190 0.930 . S
C1200 C1199 1.400 . S
C1200 C1203 1.386 . S
H1201 C1217 0.930 . S
H1202 C1218 0.931 . S
C1203 H1191 0.929 . S
C1203 C1197 1.390 . S
C1203 C1200 1.386 . S
C1204 C1199 1.490 . S
C1204 C1206 1.395 . S
C1204 C1207 1.403 . S
H1205 C1211 0.930 . S
C1206 H1192 0.930 . S
C1206 C1204 1.395 . S
C1206 C1209 1.403 . S
C1207 C1204 1.403 . S
C1207 C1208 1.524 . S
C1207 C1211 1.400 . S
C1208 H1193 0.960 . S
C1208 H1194 0.960 . S
C1208 H1195 0.960 . S
C1208 C1207 1.524 . S
C1209 C1206 1.403 . S
C1209 C1210 1.392 . S
C1209 C1213 1.495 . S
C1210 C1209 1.392 . S
C1210 C1211 1.385 . S
C1210 C1212 1.478 . S
C1211 H1205 0.930 . S
C1211 C1207 1.400 . S
C1211 C1210 1.385 . S
C1212 C1210 1.478 . S
C1212 C1214 1.381 . S
C1212 C1218 1.383 . S
C1213 C1209 1.495 . S
C1213 H1219 0.959 . S
C1213 H1220 0.961 . S
C1213 H1221 0.960 . S
C1214 C1212 1.381 . S
C1214 C1215 1.394 . S
C1214 H1222 0.930 . S
C1215 C1214 1.394 . S
C1215 C1216 1.383 . S
C1215 H1223 0.929 . S
C1216 C1215 1.383 . S
C1216 C1217 1.377 . S
C1217 H1201 0.930 . S
C1217 C1216 1.377 . S
C1217 C1218 1.379 . S
C1218 H1202 0.931 . S
C1218 C1212 1.383 . S
C1218 C1217 1.379 . S
H1219 C1213 0.959 . S
H1220 C1213 0.961 . S
H1221 C1213 0.960 . S
H1222 C1214 0.930 . S
H1223 C1215 0.929 . S
H1224 C1232 0.929 . S
H1225 C1234 0.930 . S
H1226 C1236 0.930 . S
H1227 C1239 0.929 . S
H1228 C1242 0.930 . S
H1229 C1244 0.960 . S
H1230 C1244 0.960 . S
H1231 C1244 0.960 . S
C1232 H1224 0.929 . S
C1232 C1233 1.377 . S
C1232 C1234 1.384 . S
C1233 C1232 1.377 . S
C1233 C1239 1.390 . S
C1234 H1225 0.930 . S
C1234 C1232 1.384 . S
C1234 C1235 1.372 . S
C1235 C1234 1.372 . S
C1235 C1236 1.400 . S
C1235 C1240 1.490 . S
C1236 H1226 0.930 . S
C1236 C1235 1.400 . S
C1236 C1239 1.386 . S
H1237 C1253 0.930 . S
H1238 C1254 0.931 . S
C1239 H1227 0.929 . S
C1239 C1233 1.390 . S
C1239 C1236 1.386 . S
C1240 C1235 1.490 . S
C1240 C1242 1.395 . S
C1240 C1243 1.403 . S
H1241 C1247 0.930 . S
C1242 H1228 0.930 . S
C1242 C1240 1.395 . S
C1242 C1245 1.403 . S
C1243 C1240 1.403 . S
C1243 C1244 1.524 . S
C1243 C1247 1.400 . S
C1244 H1229 0.960 . S
C1244 H1230 0.960 . S
C1244 H1231 0.960 . S
C1244 C1243 1.524 . S
C1245 C1242 1.403 . S
C1245 C1246 1.392 . S
C1245 C1249 1.495 . S
C1246 C1245 1.392 . S
C1246 C1247 1.385 . S
C1246 C1248 1.478 . S
C1247 H1241 0.930 . S
C1247 C1243 1.400 . S
C1247 C1246 1.385 . S
C1248 C1246 1.478 . S
C1248 C1250 1.381 . S
C1248 C1254 1.383 . S
C1249 C1245 1.495 . S
C1249 H1255 0.959 . S
C1249 H1256 0.961 . S
C1249 H1257 0.960 . S
C1250 C1248 1.381 . S
C1250 C1251 1.394 . S
C1250 H1258 0.930 . S
C1251 C1250 1.394 . S
C1251 C1252 1.383 . S
C1251 H1259 0.929 . S
C1252 C1251 1.383 . S
C1252 C1253 1.377 . S
C1253 H1237 0.930 . S
C1253 C1252 1.377 . S
C1253 C1254 1.379 . S
C1254 H1238 0.931 . S
C1254 C1248 1.383 . S
C1254 C1253 1.379 . S
H1255 C1249 0.959 . S
H1256 C1249 0.961 . S
H1257 C1249 0.960 . S
H1258 C1250 0.930 . S
H1259 C1251 0.929 . S
C405 C235 1.372 . S
C424 C328 1.286 . S
C460 C336 1.271 . S
C441 C289 1.360 . S
C496 C340 1.259 . S
C477 C157 1.357 . S
C513 C211 1.344 . S
C532 C316 1.264 . S
C568 C357 1.294 . S
C549 C79 1.365 . S
C604 C391 1.339 . S
C585 C118 1.364 . S
C621 C1 1.357 . S
C640 C379 1.251 . S
C657 C40 1.353 . S
C676 C361 1.318 . S
C712 C315 1.286 . S
C693 C55 1.409 1_554 S
C748 C349 1.290 . S
C729 C16 1.411 . S
C784 C353 1.223 . S
C765 C133 1.416 1_556 S
C820 C331 1.216 . S
C801 C94 1.419 . S
C856 C370 1.292 . S
C837 C196 1.416 1_556 S
C873 C172 1.416 . S
C892 C378 1.311 . S
C928 C394 1.298 . S
C909 C274 1.421 1_554 S
C945 C250 1.421 . S
C964 C374 1.317 . S
C1000 C319 1.308 . S
C981 C21 1.489 . S
C1036 C337 1.345 . S
C1017 C60 1.493 . S
C1053 C99 1.474 . S
C1072 C352 1.299 . S
C1108 C332 1.271 . S
C1089 C138 1.479 . S
C1144 C358 1.294 . S
C1125 C177 1.500 . S
C1161 C216 1.493 . S
C1180 C382 1.350 . S
C1197 C255 1.484 . S
C1216 C395 1.263 . S
C1233 C294 1.478 . S
C1252 C373 1.335 . S
