# Generated by pormake.
# Topology cml, (3,6)-cn, num edge types: 1
# Building blocks:
#     Node 0, Type 0, BuildingBlock: BETDIP_clean_linker_0, # of connection points: 3
#     Node 1, Type 0, BuildingBlock: BETDIP_clean_linker_0, # of connection points: 3
#     Node 2, Type 0, BuildingBlock: BETDIP_clean_linker_0, # of connection points: 3
#     Node 3, Type 0, BuildingBlock: BETDIP_clean_linker_0, # of connection points: 3
#     Node 4, Type 0, BuildingBlock: BETDIP_clean_linker_0, # of connection points: 3
#     Node 5, Type 0, BuildingBlock: BETDIP_clean_linker_0, # of connection points: 3
#     Node 6, Type 0, BuildingBlock: BETDIP_clean_linker_0, # of connection points: 3
#     Node 7, Type 0, BuildingBlock: BETDIP_clean_linker_0, # of connection points: 3
#     Node 8, Type 1, BuildingBlock: OJICUG_clean_sbu_0, # of connection points: 6
#     Node 9, Type 1, BuildingBlock: OJICUG_clean_sbu_0, # of connection points: 6
#     Node 10, Type 1, BuildingBlock: OJICUG_clean_sbu_0, # of connection points: 6
#     Node 11, Type 1, BuildingBlock: OJICUG_clean_sbu_0, # of connection points: 6
#     Edge 12, Type (0, 1), BuildingBlock: UVAHIK_clean_linker_0, # of connection points: 2
#     Edge 13, Type (0, 1), BuildingBlock: UVAHIK_clean_linker_0, # of connection points: 2
#     Edge 14, Type (0, 1), BuildingBlock: UVAHIK_clean_linker_0, # of connection points: 2
#     Edge 15, Type (0, 1), BuildingBlock: UVAHIK_clean_linker_0, # of connection points: 2
#     Edge 16, Type (0, 1), BuildingBlock: UVAHIK_clean_linker_0, # of connection points: 2
#     Edge 17, Type (0, 1), BuildingBlock: UVAHIK_clean_linker_0, # of connection points: 2
#     Edge 18, Type (0, 1), BuildingBlock: UVAHIK_clean_linker_0, # of connection points: 2
#     Edge 19, Type (0, 1), BuildingBlock: UVAHIK_clean_linker_0, # of connection points: 2
#     Edge 20, Type (0, 1), BuildingBlock: UVAHIK_clean_linker_0, # of connection points: 2
#     Edge 21, Type (0, 1), BuildingBlock: UVAHIK_clean_linker_0, # of connection points: 2
#     Edge 22, Type (0, 1), BuildingBlock: UVAHIK_clean_linker_0, # of connection points: 2
#     Edge 23, Type (0, 1), BuildingBlock: UVAHIK_clean_linker_0, # of connection points: 2
#     Edge 24, Type (0, 1), BuildingBlock: UVAHIK_clean_linker_0, # of connection points: 2
#     Edge 25, Type (0, 1), BuildingBlock: UVAHIK_clean_linker_0, # of connection points: 2
#     Edge 26, Type (0, 1), BuildingBlock: UVAHIK_clean_linker_0, # of connection points: 2
#     Edge 27, Type (0, 1), BuildingBlock: UVAHIK_clean_linker_0, # of connection points: 2
#     Edge 28, Type (0, 1), BuildingBlock: UVAHIK_clean_linker_0, # of connection points: 2
#     Edge 29, Type (0, 1), BuildingBlock: UVAHIK_clean_linker_0, # of connection points: 2
#     Edge 30, Type (0, 1), BuildingBlock: UVAHIK_clean_linker_0, # of connection points: 2
#     Edge 31, Type (0, 1), BuildingBlock: UVAHIK_clean_linker_0, # of connection points: 2
#     Edge 32, Type (0, 1), BuildingBlock: UVAHIK_clean_linker_0, # of connection points: 2
#     Edge 33, Type (0, 1), BuildingBlock: UVAHIK_clean_linker_0, # of connection points: 2
#     Edge 34, Type (0, 1), BuildingBlock: UVAHIK_clean_linker_0, # of connection points: 2
#     Edge 35, Type (0, 1), BuildingBlock: UVAHIK_clean_linker_0, # of connection points: 2
# Relax obj value: 0.006
# Max RMSD: 0.053
# Mean RMSD: 0.045
data_MOF--net-cml--node1-OJICUG_clean_sbu_0--node2-BETDIP_clean_linker_0--edge1-UVAHIK_clean_linker_0
_symmetry_space_group_name_H-M    P1
_symmetry_Int_Tables_number       1
_symmetry_cell_setting            triclinic
loop_
_symmetry_equiv_pos_as_xyz
'x, y, z'
_cell_length_a     52.296608
_cell_length_b     50.727183
_cell_length_c     45.755586
_cell_angle_alpha  90.028793
_cell_angle_beta   89.966773
_cell_angle_gamma 89.999519
loop_
_atom_site_label
_atom_site_type_symbol
_atom_site_fract_x
_atom_site_fract_y
_atom_site_fract_z
_atom_type_partial_charge
H0 H 0.2505 0.36202 0.04507 0.0
H1 H 0.24853 0.40922 0.96701 0.0
H2 H 0.3019 0.4276 0.03525 0.0
H3 H 0.20562 0.39543 0.96861 0.0
C4 C 0.20871 0.37472 0.97352 0.0
C5 C 0.25752 0.37867 0.03259 0.0
C6 C 0.27712 0.39458 0.04388 0.0
C7 C 0.24665 0.38422 0.00531 0.0
C8 C 0.25606 0.40542 0.98864 0.0
C9 C 0.27581 0.42132 -0.00045 0.0
C10 C 0.28599 0.41594 0.02727 0.0
N11 N 0.22726 0.36725 0.99458 0.0
H12 H 0.75434 0.62703 0.55194 0.0
H13 H 0.74881 0.58293 0.47171 0.0
H14 H 0.69797 0.56592 0.54262 0.0
H15 H 0.78662 0.5995 0.46184 0.0
C16 C 0.78825 0.61811 0.47338 0.0
C17 C 0.74564 0.6114 0.53921 0.0
C18 C 0.72541 0.59667 0.55101 0.0
C19 C 0.75466 0.60634 0.51091 0.0
C20 C 0.74288 0.58656 0.49398 0.0
C21 C 0.72273 0.57159 0.50558 0.0
C22 C 0.7143 0.57664 0.53412 0.0
N23 N 0.77458 0.62254 0.49978 0.0
H24 H 0.74841 0.36527 0.04753 0.0
H25 H 0.74764 0.41074 0.96809 0.0
H26 H 0.69858 0.4322 0.03928 0.0
H27 H 0.76238 0.37484 0.94789 0.0
C28 C 0.77271 0.36358 0.9642 0.0
C29 C 0.74129 0.38182 0.03497 0.0
C30 C 0.72311 0.39892 0.04722 0.0
C31 C 0.74993 0.38552 0.00628 0.0
C32 C 0.74066 0.40702 0.98993 0.0
C33 C 0.72215 0.42402 0.00172 0.0
C34 C 0.71367 0.4199 0.03045 0.0
N35 N 0.76745 0.36693 0.99447 0.0
H36 H 0.24419 0.62548 0.55168 0.0
H37 H 0.24474 0.5826 0.47039 0.0
H38 H 0.29845 0.56309 0.53764 0.0
H39 H 0.20605 0.59871 0.46473 0.0
C40 C 0.20576 0.61765 0.47576 0.0
C41 C 0.25186 0.60986 0.53808 0.0
C42 C 0.27218 0.59434 0.54826 0.0
C43 C 0.24133 0.60543 0.51035 0.0
C44 C 0.25184 0.58568 0.4923 0.0
C45 C 0.27221 0.57005 0.50222 0.0
C46 C 0.28204 0.57437 0.53031 0.0
N47 N 0.2212 0.62216 0.5008 0.0
H48 H 0.74375 0.86837 0.05169 0.0
H49 H 0.75134 0.90647 0.96812 0.0
H50 H 0.80599 0.92191 0.03591 0.0
H51 H 0.70684 0.89833 0.96729 0.0
C52 C 0.70773 0.87812 0.97508 0.0
C53 C 0.75366 0.88213 0.03755 0.0
C54 C 0.77564 0.89515 0.04752 0.0
C55 C 0.74437 0.88661 0.00928 0.0
C56 C 0.75755 0.9039 0.9905 0.0
C57 C 0.77996 0.91644 -1e-05 0.0
C58 C 0.78857 0.91234 0.02863 0.0
N59 N 0.72314 0.87163 -0.00045 0.0
H60 H 0.25489 0.13085 0.55124 0.0
H61 H 0.24072 0.09203 0.46904 0.0
H62 H 0.19097 0.07829 0.54192 0.0
H63 H 0.28043 0.10349 0.45825 0.0
C64 C 0.28447 0.12133 0.4705 0.0
C65 C 0.24379 0.1172 0.53814 0.0
C66 C 0.22225 0.10485 0.55017 0.0
C67 C 0.2511 0.11222 0.50918 0.0
C68 C 0.23622 0.09512 0.49184 0.0
C69 C 0.21441 0.08295 0.50356 0.0
C70 C 0.20786 0.08759 0.53282 0.0
N71 N 0.27249 0.12612 0.49787 0.0
H72 H 0.25397 0.87032 0.05317 0.0
H73 H 0.25287 0.91393 0.97243 0.0
H74 H 0.19944 0.93264 0.04037 0.0
H75 H 0.29226 0.89888 0.96726 0.0
C76 C 0.29219 0.87947 0.97722 0.0
C77 C 0.24619 0.88605 0.03983 0.0
C78 C 0.2259 0.90144 0.05038 0.0
C79 C 0.25655 0.89079 0.01206 0.0
C80 C 0.24587 0.91067 0.99435 0.0
C81 C 0.22547 0.9261 0.0046 0.0
C82 C 0.21584 0.92151 0.03274 0.0
N83 N 0.27665 0.87424 0.00204 0.0
H84 H 0.74523 0.12615 0.55221 0.0
H85 H 0.7459 0.08375 0.47061 0.0
H86 H 0.79851 0.06283 0.53845 0.0
H87 H 0.70813 0.10142 0.46374 0.0
C88 C 0.7079 0.12008 0.47534 0.0
C89 C 0.75275 0.11045 0.53861 0.0
C90 C 0.77267 0.09448 0.54897 0.0
C91 C 0.74248 0.10644 0.51067 0.0
C92 C 0.75281 0.08656 0.49263 0.0
C93 C 0.77277 0.07047 0.50273 0.0
C94 C 0.78237 0.07444 0.53099 0.0
N95 N 0.72286 0.12371 0.50094 0.0
Sc96 Sc -0.00103 0.82913 0.30709 0.0
Sc97 Sc 0.99743 0.89854 0.3116 0.0
Sc98 Sc 0.99752 0.86053 0.37592 0.0
O99 O 0.998 0.8627 0.33155 0.0
C100 C 0.96064 0.81296 0.3584 0.0
C101 C 0.95983 0.86489 0.27122 0.0
C102 C 0.95808 0.90741 0.36395 0.0
C103 C 0.03714 0.86675 0.27201 0.0
C104 C 0.0368 0.81466 0.35938 0.0
C105 C 0.03506 0.90922 0.36514 0.0
O106 O 0.96969 0.81019 0.33278 0.0
O107 O 0.9683 0.88657 0.28121 0.0
O108 O 0.9671 0.88904 0.37978 0.0
O109 O 0.02867 0.84404 0.27873 0.0
O110 O 0.02764 0.83156 0.37706 0.0
O111 O 0.02642 0.91457 0.33988 0.0
O112 O 0.02847 0.8117 0.33348 0.0
O113 O 0.02761 0.88792 0.28207 0.0
O114 O 0.02641 0.89043 0.38063 0.0
O115 O 0.96915 0.84266 0.27833 0.0
O116 O 0.96871 0.83032 0.37618 0.0
O117 O 0.96722 0.91317 0.33902 0.0
Sc118 Sc 0.99795 0.16549 0.80773 0.0
Sc119 Sc 0.00167 0.09616 0.8102 0.0
Sc120 Sc -0.00152 0.13252 0.87567 0.0
O121 O -0.00063 0.13142 0.83122 0.0
C122 C 0.03434 0.18163 0.86076 0.0
C123 C 0.03932 0.13192 0.77229 0.0
C124 C 0.03963 0.08724 0.86387 0.0
C125 C 0.962 0.12763 0.77022 0.0
C126 C 0.95821 0.17733 0.85919 0.0
C127 C 0.9626 0.08309 0.86165 0.0
O128 O 0.02627 0.18433 0.83473 0.0
O129 O 0.03151 0.10975 0.78164 0.0
O130 O 0.02977 0.10511 0.87979 0.0
O131 O 0.96929 0.15043 0.7782 0.0
O132 O 0.9674 0.16023 0.87656 0.0
O133 O 0.97211 0.07877 0.83655 0.0
O134 O 0.96723 0.18139 0.83377 0.0
O135 O 0.97223 0.10657 0.77961 0.0
O136 O 0.97043 0.10148 0.87829 0.0
O137 O 0.0288 0.1536 0.77935 0.0
O138 O 0.02601 0.16399 0.87806 0.0
O139 O 0.03127 0.08168 0.83854 0.0
Sc140 Sc 0.50014 0.32978 0.30686 0.0
Sc141 Sc 0.49808 0.39923 0.3118 0.0
Sc142 Sc 0.49703 0.36078 0.37577 0.0
O143 O 0.49841 0.36323 0.33147 0.0
C144 C 0.46089 0.31302 0.35699 0.0
C145 C 0.46155 0.36552 0.27012 0.0
C146 C 0.45765 0.40755 0.36321 0.0
C147 C 0.53871 0.36785 0.273 0.0
C148 C 0.53707 0.3154 0.36 0.0
C149 C 0.5347 0.40957 0.36632 0.0
O150 O 0.47046 0.31045 0.3316 0.0
O151 O 0.46957 0.38723 0.28058 0.0
O152 O 0.46641 0.38905 0.37905 0.0
O153 O 0.53025 0.34507 0.27943 0.0
O154 O 0.52734 0.3321 0.3775 0.0
O155 O 0.52655 0.41521 0.34091 0.0
O156 O 0.52928 0.31241 0.33389 0.0
O157 O 0.52888 0.38895 0.2829 0.0
O158 O 0.52569 0.3907 0.38138 0.0
O159 O 0.47091 0.34333 0.27734 0.0
O160 O 0.46847 0.33037 0.37506 0.0
O161 O 0.46726 0.41358 0.3386 0.0
Sc162 Sc 0.49834 0.66739 0.80567 0.0
Sc163 Sc 0.49907 0.59804 0.81156 0.0
Sc164 Sc 0.49775 0.63715 0.87507 0.0
O165 O 0.49839 0.63423 0.83077 0.0
C166 C 0.53532 0.68427 0.85768 0.0
C167 C 0.5378 0.63048 0.77142 0.0
C168 C 0.53722 0.59 0.86529 0.0
C169 C 0.46048 0.62972 0.77039 0.0
C170 C 0.45932 0.68293 0.85671 0.0
C171 C 0.46009 0.58852 0.86403 0.0
O172 O 0.52787 0.68597 0.8313 0.0
O173 O 0.52937 0.60907 0.78216 0.0
O174 O 0.52839 0.60907 0.88028 0.0
O175 O 0.46861 0.6525 0.77738 0.0
O176 O 0.46732 0.66565 0.87461 0.0
O177 O 0.46886 0.58289 0.83888 0.0
O178 O 0.46889 0.68602 0.83138 0.0
O179 O 0.47004 0.6086 0.78057 0.0
O180 O 0.46903 0.60712 0.87957 0.0
O181 O 0.52811 0.65283 0.7774 0.0
O182 O 0.52596 0.66791 0.87578 0.0
O183 O 0.52815 0.58352 0.84055 0.0
C184 C 0.16871 0.36267 0.94722 0.0
C185 C 0.19152 0.35478 0.96074 0.0
C186 C 0.15202 0.34388 0.93562 0.0
C187 C 0.14917 0.27742 0.90582 0.0
H188 H 0.07799 0.27836 0.92981 0.0
C189 C 0.06918 0.21462 0.85217 0.0
C190 C 0.05367 0.20042 0.87173 0.0
C191 C 0.08677 0.23309 0.86259 0.0
C192 C 0.09783 0.2779 0.92298 0.0
H193 H 0.21527 0.32123 0.97207 0.0
H194 H 0.18628 0.28843 0.95126 0.0
H195 H 0.10736 0.31202 0.94837 0.0
H196 H 0.04451 0.19438 0.91752 0.0
H197 H 0.07493 0.22707 0.93559 0.0
H198 H 0.13953 0.24343 0.8802 0.0
C199 C 0.18122 0.30911 0.94991 0.0
C200 C 0.11453 0.2972 0.9334 0.0
C201 C 0.19769 0.32785 0.96195 0.0
C202 C 0.05624 0.20493 0.9019 0.0
C203 C 0.07351 0.22372 0.91226 0.0
C204 C 0.13235 0.25838 0.895 0.0
C205 C 0.15816 0.31696 0.93686 0.0
C206 C 0.14036 0.29701 0.92506 0.0
C207 C 0.08884 0.23801 0.89269 0.0
C208 C 0.1066 0.25836 0.90368 0.0
H209 H 0.16364 0.38335 0.94598 0.0
H210 H 0.13439 0.35039 0.92549 0.0
H211 H 0.16901 0.27697 0.89901 0.0
H212 H 0.06771 0.21148 0.82881 0.0
H213 H 0.09836 0.24396 0.8471 0.0
C214 C 0.80921 0.6625 0.47635 0.0
C215 C 0.80529 0.63864 0.46141 0.0
C216 C 0.8252 0.68183 0.46461 0.0
C217 C 0.8535 0.70476 0.39554 0.0
H218 H 0.90204 0.73997 0.44632 0.0
C219 C 0.93424 0.77204 0.35201 0.0
C220 C 0.94055 0.7945 0.36852 0.0
C221 C 0.91662 0.75369 0.36264 0.0
C222 C 0.88835 0.73061 0.43192 0.0
H223 H 0.81484 0.61623 0.42264 0.0
H224 H 0.84293 0.65005 0.40207 0.0
H225 H 0.87369 0.70647 0.46639 0.0
H226 H 0.93241 0.81581 0.40864 0.0
H227 H 0.90142 0.78409 0.42685 0.0
H228 H 0.86812 0.72897 0.36106 0.0
C229 C 0.83349 0.65387 0.42272 0.0
C230 C 0.87215 0.71138 0.44342 0.0
C231 C 0.81758 0.63448 0.43454 0.0
C232 C 0.92823 0.7986 0.39547 0.0
C233 C 0.91055 0.78033 0.40601 0.0
C234 C 0.86965 0.7241 0.38404 0.0
C235 C 0.83749 0.67773 0.43767 0.0
C236 C 0.85458 0.69822 0.42536 0.0
C237 C 0.90483 0.75746 0.38995 0.0
C238 C 0.88727 0.73723 0.4021 0.0
H239 H 0.79994 0.66633 0.49709 0.0
H240 H 0.82771 0.70013 0.47647 0.0
H241 H 0.83992 0.69517 0.38118 0.0
H242 H 0.94339 0.76822 0.33119 0.0
H243 H 0.91282 0.73616 0.34984 0.0
C244 C 0.80279 0.326 0.97379 0.0
C245 C 0.79093 0.34332 0.95407 0.0
C246 C 0.81976 0.30678 0.96367 0.0
C247 C 0.83903 0.27084 0.89663 0.0
H248 H 0.9009 0.25687 0.94064 0.0
C249 C 0.92472 0.21191 0.85062 0.0
C250 C 0.93677 0.19397 0.86957 0.0
C251 C 0.90558 0.22872 0.86095 0.0
C252 C 0.88356 0.26034 0.9283 0.0
H253 H 0.78745 0.35431 0.90854 0.0
H254 H 0.81751 0.32114 0.89086 0.0
H255 H 0.87039 0.28928 0.95875 0.0
H256 H 0.93757 0.17919 0.91412 0.0
H257 H 0.90421 0.20854 0.93202 0.0
H258 H 0.85258 0.24218 0.86589 0.0
C259 C 0.81339 0.322 0.91403 0.0
C260 C 0.86605 0.27888 0.93868 0.0
C261 C 0.79633 0.34112 0.92415 0.0
C262 C 0.9288 0.19281 0.89891 0.0
C263 C 0.90978 0.20972 0.90925 0.0
C264 C 0.85663 0.2524 0.88616 0.0
C265 C 0.82529 0.30458 0.93367 0.0
C266 C 0.84361 0.28442 0.92292 0.0
C267 C 0.89819 0.22804 0.89047 0.0
C268 C 0.8791 0.24702 0.90187 0.0
H269 H 0.79888 0.32713 -0.003 0.0
H270 H 0.82832 0.29344 0.97934 0.0
H271 H 0.82174 0.27432 0.88421 0.0
H272 H 0.93032 0.21329 0.82788 0.0
H273 H 0.89709 0.24278 0.84602 0.0
C274 C 0.18586 0.6626 0.47904 0.0
C275 C 0.18905 0.63861 0.46414 0.0
C276 C 0.1702 0.6823 0.46745 0.0
C277 C 0.11789 0.69262 0.41414 0.0
H278 H 0.13775 0.76609 0.42036 0.0
C279 C 0.06417 0.77453 0.35311 0.0
C280 C 0.05701 0.79655 0.36992 0.0
C281 C 0.0815 0.75611 0.36407 0.0
C282 C 0.13193 0.74566 0.41864 0.0
H283 H 0.17868 0.61637 0.42555 0.0
H284 H 0.15177 0.65093 0.40491 0.0
H285 H 0.16543 0.73195 0.44073 0.0
H286 H 0.06334 0.81701 0.41099 0.0
H287 H 0.09375 0.78481 0.43 0.0
H288 H 0.08455 0.70635 0.39177 0.0
C289 C 0.16088 0.65441 0.4258 0.0
C290 C 0.1477 0.7261 0.43038 0.0
C291 C 0.17638 0.63467 0.43751 0.0
C292 C 0.06834 0.80022 0.39751 0.0
C293 C 0.08585 0.78187 0.40837 0.0
C294 C 0.10226 0.71213 0.40222 0.0
C295 C 0.15755 0.67846 0.44066 0.0
C296 C 0.14085 0.69934 0.42826 0.0
C297 C 0.09221 0.75939 0.39197 0.0
C298 C 0.10912 0.73883 0.40434 0.0
H299 H 0.19533 0.66616 0.49971 0.0
H300 H 0.16775 0.70041 0.47968 0.0
H301 H 0.11175 0.67228 0.41262 0.0
H302 H 0.05591 0.77109 0.33175 0.0
H303 H 0.08635 0.73914 0.35081 0.0
C304 C 0.69676 0.83095 0.96571 0.0
C305 C 0.69148 0.8578 0.96148 0.0
C306 C 0.6814 0.81174 0.95279 0.0
C307 C 0.6314 0.80187 0.89578 0.0
H308 H 0.61868 0.73805 0.94 0.0
C309 C 0.57113 0.71622 0.84874 0.0
C310 C 0.55497 0.70288 0.86832 0.0
C311 C 0.58913 0.73435 0.85907 0.0
C312 C 0.62178 0.75585 0.92743 0.0
H313 H 0.66635 0.88577 0.94036 0.0
H314 H 0.63863 0.85225 0.91879 0.0
H315 H 0.64634 0.77171 0.96017 0.0
H316 H 0.5448 0.69833 0.91403 0.0
H317 H 0.57533 0.73045 0.93186 0.0
H318 H 0.60557 0.78657 0.8638 0.0
C319 C 0.65502 0.84591 0.93139 0.0
C320 C 0.63806 0.77504 0.93882 0.0
C321 C 0.67072 0.86515 0.94393 0.0
C322 C 0.55717 0.70803 0.89838 0.0
C323 C 0.57484 0.7264 0.90864 0.0
C324 C 0.61477 0.78282 0.88457 0.0
C325 C 0.66012 0.81893 0.93575 0.0
C326 C 0.64307 0.79835 0.9232 0.0
C327 C 0.59109 0.73979 0.88916 0.0
C328 C 0.60963 0.75962 0.90035 0.0
H329 H 0.71294 0.82472 0.97875 0.0
H330 H 0.68635 0.79123 0.95606 0.0
H331 H 0.63509 0.81935 0.88289 0.0
H332 H 0.56997 0.71254 0.82546 0.0
H333 H 0.60159 0.74397 0.84347 0.0
C334 C 0.30905 0.16362 0.47392 0.0
C335 C 0.30281 0.14059 0.45843 0.0
C336 C 0.326 0.18195 0.46206 0.0
C337 C 0.35331 0.20475 0.39245 0.0
H338 H 0.40438 0.23673 0.44261 0.0
C339 C 0.43436 0.27232 0.34933 0.0
C340 C 0.44086 0.29427 0.3666 0.0
C341 C 0.41687 0.25363 0.35955 0.0
C342 C 0.39003 0.22822 0.42839 0.0
H343 H 0.30933 0.11859 0.41857 0.0
H344 H 0.33923 0.15066 0.39779 0.0
H345 H 0.37566 0.20349 0.46247 0.0
H346 H 0.43319 0.3143 0.40765 0.0
H347 H 0.40256 0.28194 0.42518 0.0
H348 H 0.3677 0.22961 0.35838 0.0
C349 C 0.33081 0.15461 0.41898 0.0
C350 C 0.37361 0.20915 0.43976 0.0
C351 C 0.31387 0.13621 0.43091 0.0
C352 C 0.42886 0.29752 0.39387 0.0
C353 C 0.41139 0.27888 0.40403 0.0
C354 C 0.36975 0.22389 0.38106 0.0
C355 C 0.33705 0.17767 0.43446 0.0
C356 C 0.35497 0.19732 0.42198 0.0
C357 C 0.40551 0.25652 0.38721 0.0
C358 C 0.38817 0.23596 0.39898 0.0
H359 H 0.30076 0.16764 0.49516 0.0
H360 H 0.33017 0.19969 0.47435 0.0
H361 H 0.33893 0.19618 0.37831 0.0
H362 H 0.44323 0.26919 0.32822 0.0
H363 H 0.41285 0.23651 0.34616 0.0
C364 C 0.31083 0.83387 0.9777 0.0
C365 C 0.30841 0.85867 0.96436 0.0
C366 C 0.326 0.81434 0.96492 0.0
C367 C 0.37855 0.80517 0.91169 0.0
H368 H 0.35676 0.73209 0.91353 0.0
C369 C 0.43314 0.72389 0.85006 0.0
C370 C 0.43896 0.70123 0.86646 0.0
C371 C 0.41566 0.74241 0.86059 0.0
C372 C 0.36311 0.75241 0.91299 0.0
H373 H 0.31965 0.88254 0.92733 0.0
H374 H 0.34576 0.84831 0.90464 0.0
H375 H 0.32949 0.76609 0.93492 0.0
H376 H 0.43005 0.67974 0.90623 0.0
H377 H 0.3995 0.71208 0.92448 0.0
H378 H 0.41211 0.79147 0.88966 0.0
C379 C 0.33639 0.84404 0.92521 0.0
C380 C 0.34757 0.77187 0.92532 0.0
C381 C 0.32136 0.8636 0.93809 0.0
C382 C 0.42613 0.69703 0.89309 0.0
C383 C 0.40851 0.71547 0.9035 0.0
C384 C 0.39398 0.78575 0.89921 0.0
C385 C 0.33893 0.81917 0.93849 0.0
C386 C 0.35517 0.79848 0.92494 0.0
C387 C 0.40347 0.73857 0.88761 0.0
C388 C 0.38648 0.75917 0.89984 0.0
H389 H 0.30113 0.82953 -0.00195 0.0
H390 H 0.32786 0.79557 0.97598 0.0
H391 H 0.38522 0.82538 0.91147 0.0
H392 H 0.44259 0.72774 0.82943 0.0
H393 H 0.41187 0.75989 0.84772 0.0
C394 C 0.68875 0.16531 0.47947 0.0
C395 C 0.6917 0.14158 0.46398 0.0
C396 C 0.67352 0.18551 0.46818 0.0
C397 C 0.64659 0.21083 0.39958 0.0
H398 H 0.597 0.24507 0.4499 0.0
C399 C 0.56541 0.27587 0.35452 0.0
C400 C 0.55762 0.29791 0.37091 0.0
C401 C 0.58351 0.25833 0.36567 0.0
C402 C 0.61105 0.23606 0.43565 0.0
H403 H 0.68126 0.12028 0.42475 0.0
H404 H 0.65466 0.15565 0.40494 0.0
H405 H 0.62523 0.21144 0.47001 0.0
H406 H 0.56357 0.31933 0.41143 0.0
H407 H 0.59551 0.289 0.43058 0.0
H408 H 0.63251 0.23543 0.36522 0.0
C409 C 0.66421 0.15869 0.42567 0.0
C410 C 0.62715 0.21673 0.44718 0.0
C411 C 0.67926 0.13842 0.43706 0.0
C412 C 0.56894 0.30242 0.39834 0.0
C413 C 0.58716 0.28495 0.4094 0.0
C414 C 0.63061 0.23029 0.38809 0.0
C415 C 0.66117 0.18242 0.44113 0.0
C416 C 0.64489 0.20374 0.42919 0.0
C417 C 0.59439 0.2625 0.39338 0.0
C418 C 0.61246 0.24294 0.40592 0.0
H419 H 0.69814 0.16832 0.50029 0.0
H420 H 0.67165 0.20368 0.48045 0.0
H421 H 0.66037 0.20139 0.38532 0.0
H422 H 0.55705 0.27172 0.33337 0.0
H423 H 0.58837 0.24106 0.3529 0.0
C424 C 0.29594 0.4368 0.95296 0.0
C425 C 0.28756 0.44228 0.9815 0.0
C426 C 0.31121 0.45493 0.93794 0.0
C427 C 0.35739 0.50694 0.95478 0.0
H428 H 0.35625 0.52039 0.87138 0.0
C429 C 0.42661 0.58055 0.90214 0.0
C430 C 0.43834 0.57306 0.87575 0.0
C431 C 0.40629 0.566 0.9135 0.0
C432 C 0.3569 0.51664 0.89466 0.0
H433 H 0.28666 0.47172 0.01578 0.0
H434 H 0.31296 0.50356 0.98944 0.0
H435 H 0.32274 0.49324 0.8935 0.0
H436 H 0.43751 0.54452 0.84038 0.0
H437 H 0.40224 0.51883 0.86059 0.0
H438 H 0.39165 0.52977 0.95605 0.0
C439 C 0.30833 0.48503 0.97893 0.0
C440 C 0.3377 0.50117 0.90732 0.0
C441 C 0.2932 0.4669 0.99395 0.0
C442 C 0.42896 0.55084 0.86078 0.0
C443 C 0.40863 0.53621 0.87224 0.0
C444 C 0.37652 0.52231 0.94217 0.0
C445 C 0.31827 0.47886 0.95121 0.0
C446 C 0.33775 0.49618 0.93754 0.0
C447 C 0.39722 0.54352 0.89887 0.0
C448 C 0.37653 0.52735 0.91199 0.0
H449 H 0.29201 0.41787 0.94296 0.0
H450 H 0.31867 0.44954 0.91668 0.0
H451 H 0.35837 0.50294 0.978 0.0
H452 H 0.43309 0.59771 0.91413 0.0
H453 H 0.39763 0.57244 0.9338 0.0
C454 C 0.70213 0.52746 0.49958 0.0
C455 C 0.70896 0.55193 0.48755 0.0
C456 C 0.68589 0.51047 0.48446 0.0
C457 C 0.65634 0.49641 0.41268 0.0
H458 H 0.60123 0.46886 0.4605 0.0
C459 C 0.56551 0.44759 0.3642 0.0
C460 C 0.55589 0.42532 0.37887 0.0
C461 C 0.58551 0.46231 0.37626 0.0
C462 C 0.61666 0.47607 0.44688 0.0
H463 H 0.70519 0.57728 0.44967 0.0
H464 H 0.67668 0.54752 0.42316 0.0
H465 H 0.63488 0.49483 0.48308 0.0
H466 H 0.56022 0.40082 0.41749 0.0
H467 H 0.5951 0.42624 0.43819 0.0
H468 H 0.63786 0.47768 0.37639 0.0
C469 C 0.68406 0.54142 0.44421 0.0
C470 C 0.63598 0.49094 0.45983 0.0
C471 C 0.70039 0.55843 0.45936 0.0
C472 C 0.56692 0.41798 0.40568 0.0
C473 C 0.5869 0.43263 0.41765 0.0
C474 C 0.63697 0.48143 0.39967 0.0
C475 C 0.67605 0.51761 0.457 0.0
C476 C 0.65607 0.50123 0.44293 0.0
C477 C 0.59632 0.45506 0.40321 0.0
C478 C 0.61694 0.47106 0.41668 0.0
H479 H 0.70879 0.5218 0.5211 0.0
H480 H 0.68049 0.49199 0.4946 0.0
H481 H 0.67166 0.50399 0.39913 0.0
H482 H 0.55749 0.4538 0.3435 0.0
H483 H 0.59217 0.47965 0.36475 0.0
C484 C 0.70293 0.46903 0.9954 0.0
C485 C 0.7097 0.44448 0.98339 0.0
C486 C 0.68773 0.48663 0.97963 0.0
C487 C 0.63915 0.48542 0.92188 0.0
H488 H 0.64414 0.56157 0.92684 0.0
C489 C 0.5692 0.5534 0.86095 0.0
C490 C 0.55911 0.57471 0.87693 0.0
C491 C 0.58964 0.53877 0.8719 0.0
C492 C 0.64245 0.54032 0.92542 0.0
H493 H 0.70699 0.41982 0.94475 0.0
H494 H 0.68115 0.45085 0.91696 0.0
H495 H 0.67751 0.53416 0.94862 0.0
H496 H 0.56302 0.59754 0.91684 0.0
H497 H 0.59858 0.57174 0.93605 0.0
H498 H 0.60398 0.49148 0.89909 0.0
C499 C 0.68714 0.45625 0.93881 0.0
C500 C 0.66155 0.52464 0.93784 0.0
C501 C 0.70225 0.43861 0.95461 0.0
C502 C 0.57024 0.58123 0.90397 0.0
C503 C 0.59076 0.56658 0.91489 0.0
C504 C 0.62013 0.50107 0.90943 0.0
C505 C 0.67905 0.4801 0.95147 0.0
C506 C 0.65999 0.497 0.93642 0.0
C507 C 0.60054 0.54508 0.89907 0.0
C508 C 0.62144 0.52867 0.91127 0.0
H509 H 0.70868 0.47428 0.01738 0.0
H510 H 0.68177 0.50477 0.9901 0.0
H511 H 0.63704 0.4642 0.92092 0.0
H512 H 0.56126 0.54789 0.83996 0.0
H513 H 0.59698 0.52251 0.85903 0.0
C514 C 0.29103 0.5571 0.45386 0.0
C515 C 0.28468 0.55047 0.48279 0.0
C516 C 0.30587 0.54004 0.43688 0.0
C517 C 0.33168 0.47183 0.43303 0.0
H518 H 0.38869 0.50564 0.39385 0.0
C519 C 0.42352 0.41629 0.40057 0.0
C520 C 0.43524 0.42269 0.37382 0.0
C521 C 0.40262 0.43078 0.41073 0.0
C522 C 0.37266 0.49588 0.40424 0.0
H523 H 0.28747 0.52013 0.51596 0.0
H524 H 0.31371 0.49059 0.4866 0.0
H525 H 0.35563 0.53257 0.41643 0.0
H526 H 0.43373 0.44914 0.33653 0.0
H527 H 0.39724 0.47433 0.35431 0.0
H528 H 0.3492 0.43511 0.42146 0.0
C529 C 0.30714 0.50884 0.4769 0.0
C530 C 0.35366 0.51132 0.41714 0.0
C531 C 0.29233 0.52587 0.49384 0.0
C532 C 0.42531 0.44373 0.35732 0.0
C533 C 0.40443 0.45824 0.36752 0.0
C534 C 0.35073 0.45637 0.42015 0.0
C535 C 0.31463 0.51602 0.44848 0.0
C536 C 0.33317 0.49948 0.4321 0.0
C537 C 0.39295 0.45202 0.39441 0.0
C538 C 0.37164 0.46825 0.40603 0.0
H539 H 0.28555 0.57599 0.44479 0.0
H540 H 0.31103 0.54597 0.41492 0.0
H541 H 0.31594 0.46212 0.44403 0.0
H542 H 0.4306 0.40021 0.41386 0.0
H543 H 0.3944 0.42572 0.43173 0.0
C544 C 0.78466 0.95249 0.96275 0.0
C545 C 0.79562 0.93235 0.97965 0.0
C546 C 0.80012 0.96848 0.94514 0.0
C547 C 0.84077 0.00967 0.92954 0.0
H548 H 0.89826 0.98042 0.88684 0.0
C549 C 0.92961 0.07066 0.89903 0.0
C550 C 0.94121 0.06621 0.87173 0.0
C551 C 0.90945 0.05477 0.90849 0.0
C552 C 0.88212 0.98892 0.8983 0.0
H553 H 0.83093 0.91217 0.99033 0.0
H554 H 0.85783 0.94002 0.95989 0.0
H555 H 0.86671 0.95095 0.90851 0.0
H556 H 0.94029 0.04172 0.83277 0.0
H557 H 0.9051 0.01406 0.84936 0.0
H558 H 0.8564 0.04766 0.91965 0.0
C559 C 0.83741 0.94357 0.96012 0.0
C560 C 0.86417 0.97204 0.91091 0.0
C561 C 0.82206 0.92781 0.9778 0.0
C562 C 0.93196 0.04564 0.85401 0.0
C563 C 0.91181 0.02973 0.86351 0.0
C564 C 0.85878 0.02658 0.91698 0.0
C565 C 0.82669 0.96429 0.94389 0.0
C566 C 0.84364 0.98222 0.92721 0.0
C567 C 0.90041 0.03406 0.8909 0.0
C568 C 0.87993 0.01635 0.90175 0.0
H569 H 0.76431 0.95634 0.96382 0.0
H570 H 0.79135 0.98423 0.9327 0.0
H571 H 0.82523 0.01808 0.94212 0.0
H572 H 0.93618 0.08634 0.91324 0.0
H573 H 0.90131 0.05836 0.9299 0.0
C574 C 0.17095 0.06947 0.48673 0.0
C575 C 0.19759 0.06625 0.48523 0.0
C576 C 0.15474 0.05248 0.47162 0.0
C577 C 0.15099 0.00411 0.41191 0.0
H578 H 0.09328 0.97803 0.45671 0.0
C579 C 0.06597 0.94695 0.36106 0.0
C580 C 0.05588 0.92576 0.37723 0.0
C581 C 0.08494 0.9631 0.373 0.0
C582 C 0.10942 0.98492 0.44397 0.0
H583 H 0.22823 0.04349 0.46573 0.0
H584 H 0.19971 0.01356 0.43914 0.0
H585 H 0.12324 0.00852 0.47925 0.0
H586 H 0.05852 0.90451 0.41832 0.0
H587 H 0.09158 0.93261 0.43897 0.0
H588 H 0.13709 0.98022 0.37665 0.0
C589 C 0.19146 0.02932 0.45203 0.0
C590 C 0.12641 0.00264 0.45677 0.0
C591 C 0.20776 0.0464 0.46722 0.0
C592 C 0.06565 0.92076 0.40531 0.0
C593 C 0.08455 0.93692 0.41722 0.0
C594 C 0.13386 0.98639 0.39902 0.0
C595 C 0.16478 0.03188 0.45463 0.0
C596 C 0.14727 0.01257 0.44085 0.0
C597 C 0.09417 0.95845 0.40135 0.0
C598 C 0.11287 0.97668 0.41494 0.0
H599 H 0.16259 0.08501 0.49988 0.0
H600 H 0.13427 0.05533 0.47348 0.0
H601 H 0.16686 0.01152 0.39911 0.0
H602 H 0.05898 0.95134 0.33933 0.0
H603 H 0.09183 0.97968 0.36034 0.0
C604 C 0.20471 0.97006 0.99683 0.0
C605 C 0.21275 0.9457 0.98544 0.0
C606 C 0.18969 0.98704 0.98009 0.0
C607 C 0.14366 0.98451 0.91978 0.0
H608 H 0.14677 0.06072 0.92544 0.0
C609 C 0.07265 0.05167 0.85871 0.0
C610 C 0.06187 0.0723 0.87518 0.0
C611 C 0.09341 0.03736 0.86947 0.0
C612 C 0.14562 0.03945 0.92376 0.0
H613 H 0.21237 0.92061 0.94705 0.0
H614 H 0.18665 0.95058 0.91753 0.0
H615 H 0.18014 0.03402 0.94817 0.0
H616 H 0.06487 0.09428 0.91578 0.0
H617 H 0.10094 0.06911 0.93461 0.0
H618 H 0.10896 0.98988 0.89583 0.0
C619 C 0.1916 0.95633 0.93961 0.0
C620 C 0.16473 0.02417 0.93675 0.0
C621 C 0.2066 0.93931 0.9564 0.0
C622 C 0.07261 0.07849 0.90251 0.0
C623 C 0.09344 0.06422 0.91322 0.0
C624 C 0.12463 -0.00023 0.90675 0.0
C625 C 0.18243 0.98008 0.95154 0.0
C626 C 0.16374 0.99651 0.93528 0.0
C627 C 0.10395 0.04339 0.8969 0.0
C628 C 0.12519 0.02739 0.90897 0.0
H629 H 0.20942 0.97565 0.01904 0.0
H630 H 0.18282 0.00508 0.99004 0.0
H631 H 0.14206 0.96324 0.91867 0.0
H632 H 0.06499 0.04641 0.8375 0.0
H633 H 0.10128 0.02159 0.85626 0.0
C634 C 0.79193 0.05753 0.45455 0.0
C635 C 0.78517 0.05082 0.48333 0.0
C636 C 0.80684 0.04042 0.43772 0.0
C637 C 0.83243 0.97206 0.43404 0.0
H638 H 0.88985 0.00583 0.39561 0.0
C639 C 0.92429 0.91632 0.40168 0.0
C640 C 0.93589 0.92271 0.37487 0.0
C641 C 0.90349 0.93089 0.412 0.0
C642 C 0.87372 0.99609 0.40581 0.0
H643 H 0.78724 0.02026 0.51634 0.0
H644 H 0.81364 0.99066 0.48726 0.0
H645 H 0.8567 0.03278 0.41794 0.0
H646 H 0.93434 0.94928 0.33767 0.0
H647 H 0.89808 0.9746 0.35573 0.0
H648 H 0.84997 0.93533 0.42254 0.0
C649 C 0.80734 0.00901 0.47755 0.0
C650 C 0.85466 0.01154 0.41856 0.0
C651 C 0.79243 0.02608 0.49434 0.0
C652 C 0.926 0.94386 0.3585 0.0
C653 C 0.90525 0.95845 0.36886 0.0
C654 C 0.85156 0.9566 0.42134 0.0
C655 C 0.81528 0.01628 0.44933 0.0
C656 C 0.83398 -0.00028 0.43319 0.0
C657 C 0.89385 0.95221 0.39578 0.0
C658 C 0.87259 0.96846 0.40746 0.0
H659 H 0.78676 0.07652 0.44551 0.0
H660 H 0.81234 0.04642 0.41589 0.0
H661 H 0.81656 0.96236 0.4448 0.0
H662 H 0.93134 0.90015 0.41486 0.0
H663 H 0.89531 0.92581 0.43301 0.0
C664 C 0.29713 0.36228 0.0785 0.0
C665 C 0.28967 0.38825 0.07206 0.0
C666 C 0.3121 0.35697 0.1031 0.0
C667 C 0.33631 0.3859 0.17249 0.0
H668 H 0.39548 0.34192 0.15711 0.0
C669 C 0.42759 0.38993 0.2425 0.0
C670 C 0.44 0.36607 0.24911 0.0
C671 C 0.40702 0.39043 0.22308 0.0
C672 C 0.37887 0.35391 0.16194 0.0
H673 H 0.29053 0.4287 0.08733 0.0
H674 H 0.31699 0.41957 0.12986 0.0
H675 H 0.36228 0.34615 0.12013 0.0
H676 H 0.44031 0.32396 0.24047 0.0
H677 H 0.40443 0.32493 0.20652 0.0
H678 H 0.35337 0.39424 0.214 0.0
C679 C 0.31122 0.40324 0.1161 0.0
C680 C 0.35978 0.35628 0.14078 0.0
C681 C 0.29628 0.40854 0.09155 0.0
C682 C 0.43129 0.34272 0.23583 0.0
C683 C 0.41077 0.34325 0.2163 0.0
C684 C 0.35544 0.38358 0.19362 0.0
C685 C 0.31985 0.37751 0.12176 0.0
C686 C 0.3385 0.37266 0.14561 0.0
C687 C 0.39842 0.36711 0.20973 0.0
C688 C 0.37713 0.36792 0.18835 0.0
H689 H 0.29242 0.34625 0.06381 0.0
H690 H 0.31815 0.33687 0.10711 0.0
H691 H 0.31996 0.39834 0.17705 0.0
H692 H 0.43371 0.4083 0.25234 0.0
H693 H 0.39813 0.40919 0.21812 0.0
C694 C 0.7082 0.62956 0.58687 0.0
C695 C 0.71413 0.6033 0.57983 0.0
C696 C 0.69348 0.63534 0.61157 0.0
C697 C 0.66615 0.60668 0.67968 0.0
H698 H 0.60932 0.65335 0.66275 0.0
C699 C 0.57229 0.60525 0.74548 0.0
C700 C 0.56024 0.62941 0.75164 0.0
C701 C 0.59366 0.60427 0.72719 0.0
C702 C 0.62528 0.64062 0.66806 0.0
H703 H 0.71108 0.56274 0.59427 0.0
H704 H 0.6851 0.57272 0.63702 0.0
H705 H 0.64355 0.64833 0.62717 0.0
H706 H 0.56151 0.67158 0.74349 0.0
H707 H 0.59878 0.66978 0.7116 0.0
H708 H 0.64735 0.59841 0.72024 0.0
C709 C 0.69184 0.5889 0.62365 0.0
C710 C 0.64497 0.63779 0.64769 0.0
C711 C 0.70653 0.58314 0.599 0.0
C712 C 0.57018 0.65259 0.73913 0.0
C713 C 0.59152 0.65159 0.72078 0.0
C714 C 0.64641 0.60949 0.70004 0.0
C715 C 0.68445 0.61498 0.6297 0.0
C716 C 0.6654 0.62043 0.65302 0.0
C717 C 0.60347 0.62741 0.71458 0.0
C718 C 0.62553 0.62612 0.6942 0.0
H719 H 0.7137 0.64551 0.57245 0.0
H720 H 0.68842 0.65568 0.61591 0.0
H721 H 0.6818 0.59343 0.68461 0.0
H722 H 0.56523 0.587 0.75473 0.0
H723 H 0.60219 0.58528 0.72248 0.0
C724 C 0.70784 0.41486 0.09588 0.0
C725 C 0.71195 0.39386 0.07644 0.0
C726 C 0.69316 0.41125 0.12102 0.0
C727 C 0.66241 0.36159 0.16902 0.0
H728 H 0.61035 0.41559 0.17677 0.0
C729 C 0.57042 0.348 0.23804 0.0
C730 C 0.56111 0.37007 0.25332 0.0
C731 C 0.59121 0.35046 0.21899 0.0
C732 C 0.62498 0.40053 0.1753 0.0
H733 H 0.70532 0.35223 0.06891 0.0
H734 H 0.67953 0.34589 0.11287 0.0
H735 H 0.6437 0.42056 0.14031 0.0
H736 H 0.56702 0.41184 0.26132 0.0
H737 H 0.60333 0.41597 0.22855 0.0
H738 H 0.6433 0.3414 0.20389 0.0
C739 C 0.68782 0.36511 0.1088 0.0
C740 C 0.64415 0.40341 0.15439 0.0
C741 C 0.70259 0.36872 0.08364 0.0
C742 C 0.57343 0.39448 0.24963 0.0
C743 C 0.59424 0.39689 0.23075 0.0
C744 C 0.64321 0.35874 0.19009 0.0
C745 C 0.68221 0.38657 0.12718 0.0
C746 C 0.66302 0.38394 0.15089 0.0
C747 C 0.60318 0.375 0.21492 0.0
C748 C 0.6242 0.37814 0.19335 0.0
H749 H 0.71517 0.43436 0.09104 0.0
H750 H 0.68963 0.42802 0.13512 0.0
H751 H 0.67679 0.34633 0.16692 0.0
H752 H 0.56141 0.32889 0.24039 0.0
H753 H 0.59745 0.33327 0.20688 0.0
C754 C 0.29124 0.57894 0.59526 0.0
C755 C 0.28469 0.59984 0.57663 0.0
C756 C 0.30704 0.58325 0.61933 0.0
C757 C 0.33677 0.63407 0.66648 0.0
H758 H 0.39195 0.58311 0.67033 0.0
C759 C 0.42881 0.64965 0.73539 0.0
C760 C 0.43867 0.62742 0.74989 0.0
C761 C 0.40835 0.6471 0.71589 0.0
C762 C 0.37651 0.59733 0.66988 0.0
H763 H 0.28816 0.64191 0.56947 0.0
H764 H 0.31597 0.6495 0.6116 0.0
H765 H 0.35795 0.57719 0.63487 0.0
H766 H 0.43413 0.58518 0.75586 0.0
H767 H 0.39849 0.58088 0.72233 0.0
H768 H 0.35566 0.65431 0.70151 0.0
C769 C 0.30874 0.6298 0.6077 0.0
C770 C 0.35697 0.59391 0.64956 0.0
C771 C 0.29281 0.62548 0.58362 0.0
C772 C 0.42731 0.60271 0.74484 0.0
C773 C 0.40687 0.6002 0.72551 0.0
C774 C 0.35637 0.63748 0.68696 0.0
C775 C 0.31672 0.60855 0.62518 0.0
C776 C 0.33684 0.61216 0.64766 0.0
C777 C 0.39731 0.62228 0.71057 0.0
C778 C 0.37642 0.61907 0.68891 0.0
H779 H 0.2849 0.55904 0.59058 0.0
H780 H 0.31239 0.56659 0.6328 0.0
H781 H 0.32145 0.64842 0.66555 0.0
H782 H 0.43707 0.66899 0.73881 0.0
H783 H 0.40155 0.66446 0.70452 0.0
C784 C 0.79026 0.86344 0.08598 0.0
C785 C 0.78655 0.88956 0.07672 0.0
C786 C 0.8044 0.85814 0.11122 0.0
C787 C 0.83313 0.88883 0.17723 0.0
H788 H 0.88734 0.83795 0.16432 0.0
C789 C 0.92658 0.88978 0.24305 0.0
C790 C 0.93763 0.86558 0.25112 0.0
C791 C 0.90532 0.89049 0.22466 0.0
C792 C 0.87208 0.85188 0.16855 0.0
H793 H 0.79298 0.9306 0.08759 0.0
H794 H 0.81783 0.92142 0.13141 0.0
H795 H 0.85355 0.84274 0.12817 0.0
H796 H 0.93473 0.82309 0.24625 0.0
H797 H 0.89757 0.82441 0.21417 0.0
H798 H 0.85213 0.89848 0.21724 0.0
C799 C 0.80982 0.905 0.11935 0.0
C800 C 0.85266 0.85458 0.14785 0.0
C801 C 0.79579 0.91028 0.09412 0.0
C802 C 0.92684 0.84209 0.24036 0.0
C803 C 0.90555 0.84282 0.22193 0.0
C804 C 0.85255 0.88612 0.19794 0.0
C805 C 0.81494 0.87887 0.12769 0.0
C806 C 0.83329 0.87349 0.15165 0.0
C807 C 0.89457 0.86703 0.21389 0.0
C808 C 0.87255 0.86803 0.19349 0.0
H809 H 0.78343 0.84709 0.0729 0.0
H810 H 0.80778 0.83781 0.11732 0.0
H811 H 0.81826 0.90331 0.18095 0.0
H812 H 0.93435 0.90827 0.25088 0.0
H813 H 0.89758 0.90948 0.21845 0.0
C814 C 0.20947 0.13749 0.58852 0.0
C815 C 0.21321 0.11116 0.58002 0.0
C816 C 0.19616 0.14334 0.61423 0.0
C817 C 0.16911 0.11399 0.68208 0.0
H818 H 0.11295 0.1622 0.66769 0.0
C819 C 0.07473 0.1089 0.74561 0.0
C820 C 0.06216 0.13247 0.75309 0.0
C821 C 0.09652 0.10931 0.72802 0.0
C822 C 0.12877 0.14908 0.67235 0.0
H823 H 0.208 0.07039 0.59272 0.0
H824 H 0.18469 0.0805 0.63741 0.0
H825 H 0.14705 0.15807 0.63178 0.0
H826 H 0.06292 0.17503 0.74806 0.0
H827 H 0.10101 0.17566 0.71727 0.0
H828 H 0.15027 0.10431 0.7222 0.0
C829 C 0.19199 0.09668 0.62441 0.0
C830 C 0.14838 0.14676 0.65179 0.0
C831 C 0.20515 0.09085 0.5987 0.0
C832 C 0.07201 0.15649 0.74261 0.0
C833 C 0.09382 0.15687 0.72494 0.0
C834 C 0.14949 0.11631 0.70265 0.0
C835 C 0.18654 0.12296 0.63192 0.0
C836 C 0.16839 0.12866 0.65605 0.0
C837 C 0.1063 0.13328 0.71745 0.0
C838 C 0.12875 0.13334 0.6976 0.0
H839 H 0.21542 0.15351 0.57442 0.0
H840 H 0.19251 0.16378 0.61967 0.0
H841 H 0.18448 0.10016 0.68616 0.0
H842 H 0.06774 0.09003 0.75327 0.0
H843 H 0.1054 0.09075 0.72221 0.0
C844 C 0.20747 0.91657 0.09783 0.0
C845 C 0.21363 0.89577 0.07885 0.0
C846 C 0.19176 0.91222 0.12197 0.0
C847 C 0.16133 0.86138 0.16855 0.0
H848 H 0.107 0.91326 0.17333 0.0
C849 C 0.06889 0.84661 0.23716 0.0
C850 C 0.05927 0.86886 0.25189 0.0
C851 C 0.08952 0.84903 0.21785 0.0
C852 C 0.12221 0.89878 0.17264 0.0
H853 H 0.20958 0.85384 0.07113 0.0
H854 H 0.18187 0.8462 0.11339 0.0
H855 H 0.14104 0.91898 0.13786 0.0
H856 H 0.06446 0.91094 0.25854 0.0
H857 H 0.10041 0.91499 0.22534 0.0
H858 H 0.14213 0.84108 0.20333 0.0
C859 C 0.18936 0.86583 0.10972 0.0
C860 C 0.14177 0.90208 0.1523 0.0
C861 C 0.20522 0.87017 0.08556 0.0
C862 C 0.07109 0.89342 0.24731 0.0
C863 C 0.0917 0.89578 0.22818 0.0
C864 C 0.14169 0.85809 0.18905 0.0
C865 C 0.18174 0.88701 0.12754 0.0
C866 C 0.1616 0.8835 0.15005 0.0
C867 C 0.10098 0.87371 0.21295 0.0
C868 C 0.12195 0.87682 0.19133 0.0
H869 H 0.21403 0.93642 0.09334 0.0
H870 H 0.1867 0.92882 0.13572 0.0
H871 H 0.1764 0.84678 0.16736 0.0
H872 H 0.06027 0.82739 0.24021 0.0
H873 H 0.0961 0.83168 0.20626 0.0
C874 C 0.79341 0.12513 0.58477 0.0
C875 C 0.78506 0.09963 0.57749 0.0
C876 C 0.80935 0.12909 0.60892 0.0
C877 C 0.85748 0.0925 0.64998 0.0
H878 H 0.85669 0.15226 0.70284 0.0
C879 C 0.92921 0.10049 0.74415 0.0
C880 C 0.94022 0.12528 0.74967 0.0
C881 C 0.9086 0.09803 0.72504 0.0
C882 C 0.85727 0.1356 0.68803 0.0
H883 H 0.78485 0.05872 0.59106 0.0
H884 H 0.81243 0.06564 0.63335 0.0
H885 H 0.82219 0.14685 0.66718 0.0
H886 H 0.93793 0.16702 0.73955 0.0
H887 H 0.90221 0.16258 0.70558 0.0
H888 H 0.89268 0.08144 0.6701 0.0
C889 C 0.80721 0.08246 0.62006 0.0
C890 C 0.83749 0.13247 0.66773 0.0
C891 C 0.79137 0.07851 0.59595 0.0
C892 C 0.92994 0.14762 0.73577 0.0
C893 C 0.90934 0.14512 0.71646 0.0
C894 C 0.87723 0.09566 0.67009 0.0
C895 C 0.81714 0.10761 0.62616 0.0
C896 C 0.83738 0.11082 0.64857 0.0
C897 C 0.89855 0.12025 0.71076 0.0
C898 C 0.87736 0.11719 0.68942 0.0
H899 H 0.78896 0.14173 0.57078 0.0
H900 H 0.81678 0.14868 0.61302 0.0
H901 H 0.8583 0.07596 0.63502 0.0
H902 H 0.93637 0.08289 0.75474 0.0
H903 H 0.90044 0.07866 0.72157 0.0
loop_
_geom_bond_atom_site_label_1
_geom_bond_atom_site_label_2
_geom_bond_distance
_geom_bond_site_symmetry_2
_ccdc_geom_bond_type
H0 C5 0.930 . S
H1 C8 0.930 . S
H2 C10 0.930 . S
H3 C4 1.016 . S
C4 H3 1.016 . S
C4 N11 1.289 . S
C5 H0 0.930 . S
C5 C6 1.397 . S
C5 C7 1.361 . S
C6 C5 1.397 . S
C6 C10 1.390 . S
C7 C5 1.361 . S
C7 C8 1.393 1_554 S
C7 N11 1.411 1_554 S
C8 H1 0.930 . S
C8 C7 1.393 1_556 S
C8 C9 1.399 . S
C9 C8 1.399 . S
C9 C10 1.381 1_556 S
C10 H2 0.930 . S
C10 C6 1.390 . S
C10 C9 1.381 1_554 S
N11 C4 1.289 . S
N11 C7 1.411 1_556 S
H12 C17 0.930 . S
H13 C20 0.930 . S
H14 C22 0.930 . S
H15 C16 1.016 . S
C16 H15 1.016 . S
C16 N23 1.286 . S
C17 H12 0.930 . S
C17 C18 1.397 . S
C17 C19 1.361 . S
C18 C17 1.397 . S
C18 C22 1.390 . S
C19 C17 1.361 . S
C19 C20 1.393 . S
C19 N23 1.413 . S
C20 H13 0.930 . S
C20 C19 1.393 . S
C20 C21 1.399 . S
C21 C20 1.399 . S
C21 C22 1.381 . S
C22 H14 0.930 . S
C22 C18 1.390 . S
C22 C21 1.381 . S
N23 C16 1.286 . S
N23 C19 1.413 . S
H24 C29 0.930 . S
H25 C32 0.930 . S
H26 C34 0.930 . S
H27 C28 1.016 . S
C28 H27 1.016 . S
C28 N35 1.286 1_556 S
C29 H24 0.930 . S
C29 C30 1.397 . S
C29 C31 1.361 . S
C30 C29 1.397 . S
C30 C34 1.390 . S
C31 C29 1.361 . S
C31 C32 1.393 1_554 S
C31 N35 1.413 . S
C32 H25 0.930 . S
C32 C31 1.393 1_556 S
C32 C33 1.399 . S
C33 C32 1.399 . S
C33 C34 1.381 1_556 S
C34 H26 0.930 . S
C34 C30 1.390 . S
C34 C33 1.381 1_554 S
N35 C28 1.286 1_554 S
N35 C31 1.413 . S
H36 C41 0.930 . S
H37 C44 0.930 . S
H38 C46 0.930 . S
H39 C40 1.016 . S
C40 H39 1.016 . S
C40 N47 1.286 . S
C41 H36 0.930 . S
C41 C42 1.397 . S
C41 C43 1.361 . S
C42 C41 1.397 . S
C42 C46 1.390 . S
C43 C41 1.361 . S
C43 C44 1.393 . S
C43 N47 1.413 . S
C44 H37 0.930 . S
C44 C43 1.393 . S
C44 C45 1.399 . S
C45 C44 1.399 . S
C45 C46 1.381 . S
C46 H38 0.930 . S
C46 C42 1.390 . S
C46 C45 1.381 . S
N47 C40 1.286 . S
N47 C43 1.413 . S
H48 C53 0.930 . S
H49 C56 0.930 . S
H50 C58 0.930 . S
H51 C52 1.016 . S
C52 H51 1.016 . S
C52 N59 1.289 . S
C53 H48 0.930 . S
C53 C54 1.397 . S
C53 C55 1.361 . S
C54 C53 1.397 . S
C54 C58 1.390 . S
C55 C53 1.361 . S
C55 C56 1.393 1_554 S
C55 N59 1.411 1_554 S
C56 H49 0.930 . S
C56 C55 1.393 1_556 S
C56 C57 1.399 . S
C57 C56 1.399 . S
C57 C58 1.381 1_556 S
C58 H50 0.930 . S
C58 C54 1.390 . S
C58 C57 1.381 1_554 S
N59 C52 1.289 . S
N59 C55 1.411 1_556 S
H60 C65 0.930 . S
H61 C68 0.930 . S
H62 C70 0.930 . S
H63 C64 1.016 . S
C64 H63 1.016 . S
C64 N71 1.286 . S
C65 H60 0.930 . S
C65 C66 1.397 . S
C65 C67 1.361 . S
C66 C65 1.397 . S
C66 C70 1.390 . S
C67 C65 1.361 . S
C67 C68 1.393 . S
C67 N71 1.413 . S
C68 H61 0.930 . S
C68 C67 1.393 . S
C68 C69 1.399 . S
C69 C68 1.399 . S
C69 C70 1.381 . S
C70 H62 0.930 . S
C70 C66 1.390 . S
C70 C69 1.381 . S
N71 C64 1.286 . S
N71 C67 1.413 . S
H72 C77 0.930 . S
H73 C80 0.930 . S
H74 C82 0.930 . S
H75 C76 1.016 . S
C76 H75 1.016 . S
C76 N83 1.286 1_556 S
C77 H72 0.930 . S
C77 C78 1.397 . S
C77 C79 1.361 . S
C78 C77 1.397 . S
C78 C82 1.390 . S
C79 C77 1.361 . S
C79 C80 1.393 1_554 S
C79 N83 1.413 . S
C80 H73 0.930 . S
C80 C79 1.393 1_556 S
C80 C81 1.399 . S
C81 C80 1.399 . S
C81 C82 1.381 1_556 S
C82 H74 0.930 . S
C82 C78 1.390 . S
C82 C81 1.381 1_554 S
N83 C76 1.286 1_554 S
N83 C79 1.413 . S
H84 C89 0.930 . S
H85 C92 0.930 . S
H86 C94 0.930 . S
H87 C88 1.016 . S
C88 H87 1.016 . S
C88 N95 1.286 . S
C89 H84 0.930 . S
C89 C90 1.397 . S
C89 C91 1.361 . S
C90 C89 1.397 . S
C90 C94 1.390 . S
C91 C89 1.361 . S
C91 C92 1.393 . S
C91 N95 1.413 . S
C92 H85 0.930 . S
C92 C91 1.393 . S
C92 C93 1.399 . S
C93 C92 1.399 . S
C93 C94 1.381 . S
C94 H86 0.930 . S
C94 C90 1.390 . S
C94 C93 1.381 . S
N95 C88 1.286 . S
N95 C91 1.413 . S
Sc96 O99 2.025 . S
Sc96 O106 2.105 1_455 S
Sc96 O109 2.105 . S
Sc96 O112 2.105 . S
Sc96 O115 2.105 1_455 S
Sc97 O99 2.025 . S
Sc97 O107 2.105 1_455 S
Sc97 O111 2.105 . S
Sc97 O113 2.105 . S
Sc97 O117 2.105 1_455 S
Sc98 O99 2.025 . S
Sc98 O108 2.105 1_455 S
Sc98 O110 2.105 . S
Sc98 O114 2.105 . S
Sc98 O116 2.105 1_455 S
O99 Sc96 2.025 . S
O99 Sc97 2.025 . S
O99 Sc98 2.025 . S
C100 O106 1.268 . S
C100 O116 1.268 . S
C101 O107 1.268 . S
C101 O115 1.268 . S
C102 O108 1.268 . S
C102 O117 1.268 . S
C103 O109 1.268 . S
C103 O113 1.268 . S
C104 O110 1.268 . S
C104 O112 1.268 . S
C105 O111 1.268 . S
C105 O114 1.268 . S
O106 Sc96 2.105 1_655 S
O106 C100 1.268 . S
O107 Sc97 2.105 1_655 S
O107 C101 1.268 . S
O108 Sc98 2.105 1_655 S
O108 C102 1.268 . S
O109 Sc96 2.105 . S
O109 C103 1.268 . S
O110 Sc98 2.105 . S
O110 C104 1.268 . S
O111 Sc97 2.105 . S
O111 C105 1.268 . S
O112 Sc96 2.105 . S
O112 C104 1.268 . S
O113 Sc97 2.105 . S
O113 C103 1.268 . S
O114 Sc98 2.105 . S
O114 C105 1.268 . S
O115 Sc96 2.105 1_655 S
O115 C101 1.268 . S
O116 Sc98 2.105 1_655 S
O116 C100 1.268 . S
O117 Sc97 2.105 1_655 S
O117 C102 1.268 . S
Sc118 O121 2.025 . S
Sc118 O128 2.105 . S
Sc118 O131 2.105 1_455 S
Sc118 O134 2.105 1_455 S
Sc118 O137 2.105 . S
Sc119 O121 2.025 . S
Sc119 O129 2.105 . S
Sc119 O133 2.105 1_455 S
Sc119 O135 2.105 1_455 S
Sc119 O139 2.105 . S
Sc120 O121 2.025 . S
Sc120 O130 2.105 . S
Sc120 O132 2.105 1_455 S
Sc120 O136 2.105 1_455 S
Sc120 O138 2.105 . S
O121 Sc118 2.025 . S
O121 Sc119 2.025 . S
O121 Sc120 2.025 . S
C122 O128 1.268 . S
C122 O138 1.268 . S
C123 O129 1.268 . S
C123 O137 1.268 . S
C124 O130 1.268 . S
C124 O139 1.268 . S
C125 O131 1.268 . S
C125 O135 1.268 . S
C126 O132 1.268 . S
C126 O134 1.268 . S
C127 O133 1.268 . S
C127 O136 1.268 . S
O128 Sc118 2.105 . S
O128 C122 1.268 . S
O129 Sc119 2.105 . S
O129 C123 1.268 . S
O130 Sc120 2.105 . S
O130 C124 1.268 . S
O131 Sc118 2.105 1_655 S
O131 C125 1.268 . S
O132 Sc120 2.105 1_655 S
O132 C126 1.268 . S
O133 Sc119 2.105 1_655 S
O133 C127 1.268 . S
O134 Sc118 2.105 1_655 S
O134 C126 1.268 . S
O135 Sc119 2.105 1_655 S
O135 C125 1.268 . S
O136 Sc120 2.105 1_655 S
O136 C127 1.268 . S
O137 Sc118 2.105 . S
O137 C123 1.268 . S
O138 Sc120 2.105 . S
O138 C122 1.268 . S
O139 Sc119 2.105 . S
O139 C124 1.268 . S
Sc140 O143 2.025 . S
Sc140 O150 2.105 . S
Sc140 O153 2.105 . S
Sc140 O156 2.105 . S
Sc140 O159 2.105 . S
Sc141 O143 2.025 . S
Sc141 O151 2.105 . S
Sc141 O155 2.105 . S
Sc141 O157 2.105 . S
Sc141 O161 2.105 . S
Sc142 O143 2.025 . S
Sc142 O152 2.105 . S
Sc142 O154 2.105 . S
Sc142 O158 2.105 . S
Sc142 O160 2.105 . S
O143 Sc140 2.025 . S
O143 Sc141 2.025 . S
O143 Sc142 2.025 . S
C144 O150 1.268 . S
C144 O160 1.268 . S
C145 O151 1.268 . S
C145 O159 1.268 . S
C146 O152 1.268 . S
C146 O161 1.268 . S
C147 O153 1.268 . S
C147 O157 1.268 . S
C148 O154 1.268 . S
C148 O156 1.268 . S
C149 O155 1.268 . S
C149 O158 1.268 . S
O150 Sc140 2.105 . S
O150 C144 1.268 . S
O151 Sc141 2.105 . S
O151 C145 1.268 . S
O152 Sc142 2.105 . S
O152 C146 1.268 . S
O153 Sc140 2.105 . S
O153 C147 1.268 . S
O154 Sc142 2.105 . S
O154 C148 1.268 . S
O155 Sc141 2.105 . S
O155 C149 1.268 . S
O156 Sc140 2.105 . S
O156 C148 1.268 . S
O157 Sc141 2.105 . S
O157 C147 1.268 . S
O158 Sc142 2.105 . S
O158 C149 1.268 . S
O159 Sc140 2.105 . S
O159 C145 1.268 . S
O160 Sc142 2.105 . S
O160 C144 1.268 . S
O161 Sc141 2.105 . S
O161 C146 1.268 . S
Sc162 O165 2.025 . S
Sc162 O172 2.105 . S
Sc162 O175 2.105 . S
Sc162 O178 2.105 . S
Sc162 O181 2.105 . S
Sc163 O165 2.025 . S
Sc163 O173 2.105 . S
Sc163 O177 2.105 . S
Sc163 O179 2.105 . S
Sc163 O183 2.105 . S
Sc164 O165 2.025 . S
Sc164 O174 2.105 . S
Sc164 O176 2.105 . S
Sc164 O180 2.105 . S
Sc164 O182 2.105 . S
O165 Sc162 2.025 . S
O165 Sc163 2.025 . S
O165 Sc164 2.025 . S
C166 O172 1.268 . S
C166 O182 1.268 . S
C167 O173 1.268 . S
C167 O181 1.268 . S
C168 O174 1.268 . S
C168 O183 1.268 . S
C169 O175 1.268 . S
C169 O179 1.268 . S
C170 O176 1.268 . S
C170 O178 1.268 . S
C171 O177 1.268 . S
C171 O180 1.268 . S
O172 Sc162 2.105 . S
O172 C166 1.268 . S
O173 Sc163 2.105 . S
O173 C167 1.268 . S
O174 Sc164 2.105 . S
O174 C168 1.268 . S
O175 Sc162 2.105 . S
O175 C169 1.268 . S
O176 Sc164 2.105 . S
O176 C170 1.268 . S
O177 Sc163 2.105 . S
O177 C171 1.268 . S
O178 Sc162 2.105 . S
O178 C170 1.268 . S
O179 Sc163 2.105 . S
O179 C169 1.268 . S
O180 Sc164 2.105 . S
O180 C171 1.268 . S
O181 Sc162 2.105 . S
O181 C167 1.268 . S
O182 Sc164 2.105 . S
O182 C166 1.268 . S
O183 Sc163 2.105 . S
O183 C168 1.268 . S
C184 C185 1.349 . S
C184 C186 1.327 . S
C184 H209 0.950 . S
C185 C184 1.349 . S
C185 C201 1.349 . S
C186 C184 1.327 . S
C186 C205 1.429 . S
C186 H210 0.950 . S
C187 C204 1.574 . S
C187 C206 1.368 . S
C187 H211 0.949 . S
H188 C192 0.949 . S
C189 C190 1.349 . S
C189 C191 1.327 . S
C189 H212 0.950 . S
C190 C189 1.349 . S
C190 C202 1.349 . S
C191 C189 1.327 . S
C191 C207 1.429 . S
C191 H213 0.950 . S
C192 H188 0.949 . S
C192 C200 1.574 . S
C192 C208 1.368 . S
H193 C201 0.950 . S
H194 C199 0.950 . S
H195 C200 0.949 . S
H196 C202 0.950 . S
H197 C203 0.950 . S
H198 C204 0.949 . S
C199 H194 0.950 . S
C199 C201 1.327 . S
C199 C205 1.429 . S
C200 C192 1.574 . S
C200 H195 0.949 . S
C200 C206 1.368 . S
C201 C185 1.349 . S
C201 H193 0.950 . S
C201 C199 1.327 . S
C202 C190 1.349 . S
C202 H196 0.950 . S
C202 C203 1.327 . S
C203 H197 0.950 . S
C203 C202 1.327 . S
C203 C207 1.429 . S
C204 C187 1.574 . S
C204 H198 0.949 . S
C204 C208 1.368 . S
C205 C186 1.429 . S
C205 C199 1.429 . S
C205 C206 1.523 . S
C206 C187 1.368 . S
C206 C200 1.368 . S
C206 C205 1.523 . S
C207 C191 1.429 . S
C207 C203 1.429 . S
C207 C208 1.523 . S
C208 C192 1.368 . S
C208 C204 1.368 . S
C208 C207 1.523 . S
H209 C184 0.950 . S
H210 C186 0.950 . S
H211 C187 0.949 . S
H212 C189 0.950 . S
H213 C191 0.950 . S
C214 C215 1.349 . S
C214 C216 1.327 . S
C214 H239 0.950 . S
C215 C214 1.349 . S
C215 C231 1.349 . S
C216 C214 1.327 . S
C216 C235 1.429 . S
C216 H240 0.950 . S
C217 C234 1.574 . S
C217 C236 1.368 . S
C217 H241 0.949 . S
H218 C222 0.949 . S
C219 C220 1.349 . S
C219 C221 1.327 . S
C219 H242 0.950 . S
C220 C219 1.349 . S
C220 C232 1.349 . S
C221 C219 1.327 . S
C221 C237 1.429 . S
C221 H243 0.950 . S
C222 H218 0.949 . S
C222 C230 1.574 . S
C222 C238 1.368 . S
H223 C231 0.950 . S
H224 C229 0.950 . S
H225 C230 0.949 . S
H226 C232 0.950 . S
H227 C233 0.950 . S
H228 C234 0.949 . S
C229 H224 0.950 . S
C229 C231 1.327 . S
C229 C235 1.429 . S
C230 C222 1.574 . S
C230 H225 0.949 . S
C230 C236 1.368 . S
C231 C215 1.349 . S
C231 H223 0.950 . S
C231 C229 1.327 . S
C232 C220 1.349 . S
C232 H226 0.950 . S
C232 C233 1.327 . S
C233 H227 0.950 . S
C233 C232 1.327 . S
C233 C237 1.429 . S
C234 C217 1.574 . S
C234 H228 0.949 . S
C234 C238 1.368 . S
C235 C216 1.429 . S
C235 C229 1.429 . S
C235 C236 1.523 . S
C236 C217 1.368 . S
C236 C230 1.368 . S
C236 C235 1.523 . S
C237 C221 1.429 . S
C237 C233 1.429 . S
C237 C238 1.523 . S
C238 C222 1.368 . S
C238 C234 1.368 . S
C238 C237 1.523 . S
H239 C214 0.950 . S
H240 C216 0.950 . S
H241 C217 0.949 . S
H242 C219 0.950 . S
H243 C221 0.950 . S
C244 C245 1.349 . S
C244 C246 1.327 . S
C244 H269 0.950 . S
C245 C244 1.349 . S
C245 C261 1.349 . S
C246 C244 1.327 . S
C246 C265 1.429 . S
C246 H270 0.950 . S
C247 C264 1.574 . S
C247 C266 1.368 . S
C247 H271 0.949 . S
H248 C252 0.949 . S
C249 C250 1.349 . S
C249 C251 1.327 . S
C249 H272 0.950 . S
C250 C249 1.349 . S
C250 C262 1.349 . S
C251 C249 1.327 . S
C251 C267 1.429 . S
C251 H273 0.950 . S
C252 H248 0.949 . S
C252 C260 1.574 . S
C252 C268 1.368 . S
H253 C261 0.950 . S
H254 C259 0.950 . S
H255 C260 0.949 . S
H256 C262 0.950 . S
H257 C263 0.950 . S
H258 C264 0.949 . S
C259 H254 0.950 . S
C259 C261 1.327 . S
C259 C265 1.429 . S
C260 C252 1.574 . S
C260 H255 0.949 . S
C260 C266 1.368 . S
C261 C245 1.349 . S
C261 H253 0.950 . S
C261 C259 1.327 . S
C262 C250 1.349 . S
C262 H256 0.950 . S
C262 C263 1.327 . S
C263 H257 0.950 . S
C263 C262 1.327 . S
C263 C267 1.429 . S
C264 C247 1.574 . S
C264 H258 0.949 . S
C264 C268 1.368 . S
C265 C246 1.429 . S
C265 C259 1.429 . S
C265 C266 1.523 . S
C266 C247 1.368 . S
C266 C260 1.368 . S
C266 C265 1.523 . S
C267 C251 1.429 . S
C267 C263 1.429 . S
C267 C268 1.523 . S
C268 C252 1.368 . S
C268 C264 1.368 . S
C268 C267 1.523 . S
H269 C244 0.950 . S
H270 C246 0.950 . S
H271 C247 0.949 . S
H272 C249 0.950 . S
H273 C251 0.950 . S
C274 C275 1.349 . S
C274 C276 1.327 . S
C274 H299 0.950 . S
C275 C274 1.349 . S
C275 C291 1.349 . S
C276 C274 1.327 . S
C276 C295 1.429 . S
C276 H300 0.950 . S
C277 C294 1.574 . S
C277 C296 1.368 . S
C277 H301 0.949 . S
H278 C282 0.949 . S
C279 C280 1.349 . S
C279 C281 1.327 . S
C279 H302 0.950 . S
C280 C279 1.349 . S
C280 C292 1.349 . S
C281 C279 1.327 . S
C281 C297 1.429 . S
C281 H303 0.950 . S
C282 H278 0.949 . S
C282 C290 1.574 . S
C282 C298 1.368 . S
H283 C291 0.950 . S
H284 C289 0.950 . S
H285 C290 0.949 . S
H286 C292 0.950 . S
H287 C293 0.950 . S
H288 C294 0.949 . S
C289 H284 0.950 . S
C289 C291 1.327 . S
C289 C295 1.429 . S
C290 C282 1.574 . S
C290 H285 0.949 . S
C290 C296 1.368 . S
C291 C275 1.349 . S
C291 H283 0.950 . S
C291 C289 1.327 . S
C292 C280 1.349 . S
C292 H286 0.950 . S
C292 C293 1.327 . S
C293 H287 0.950 . S
C293 C292 1.327 . S
C293 C297 1.429 . S
C294 C277 1.574 . S
C294 H288 0.949 . S
C294 C298 1.368 . S
C295 C276 1.429 . S
C295 C289 1.429 . S
C295 C296 1.523 . S
C296 C277 1.368 . S
C296 C290 1.368 . S
C296 C295 1.523 . S
C297 C281 1.429 . S
C297 C293 1.429 . S
C297 C298 1.523 . S
C298 C282 1.368 . S
C298 C294 1.368 . S
C298 C297 1.523 . S
H299 C274 0.950 . S
H300 C276 0.950 . S
H301 C277 0.949 . S
H302 C279 0.950 . S
H303 C281 0.950 . S
C304 C305 1.349 . S
C304 C306 1.327 . S
C304 H329 0.950 . S
C305 C304 1.349 . S
C305 C321 1.349 . S
C306 C304 1.327 . S
C306 C325 1.429 . S
C306 H330 0.950 . S
C307 C324 1.574 . S
C307 C326 1.368 . S
C307 H331 0.949 . S
H308 C312 0.949 . S
C309 C310 1.349 . S
C309 C311 1.327 . S
C309 H332 0.950 . S
C310 C309 1.349 . S
C310 C322 1.349 . S
C311 C309 1.327 . S
C311 C327 1.429 . S
C311 H333 0.950 . S
C312 H308 0.949 . S
C312 C320 1.574 . S
C312 C328 1.368 . S
H313 C321 0.950 . S
H314 C319 0.950 . S
H315 C320 0.949 . S
H316 C322 0.950 . S
H317 C323 0.950 . S
H318 C324 0.949 . S
C319 H314 0.950 . S
C319 C321 1.327 . S
C319 C325 1.429 . S
C320 C312 1.574 . S
C320 H315 0.949 . S
C320 C326 1.368 . S
C321 C305 1.349 . S
C321 H313 0.950 . S
C321 C319 1.327 . S
C322 C310 1.349 . S
C322 H316 0.950 . S
C322 C323 1.327 . S
C323 H317 0.950 . S
C323 C322 1.327 . S
C323 C327 1.429 . S
C324 C307 1.574 . S
C324 H318 0.949 . S
C324 C328 1.368 . S
C325 C306 1.429 . S
C325 C319 1.429 . S
C325 C326 1.523 . S
C326 C307 1.368 . S
C326 C320 1.368 . S
C326 C325 1.523 . S
C327 C311 1.429 . S
C327 C323 1.429 . S
C327 C328 1.523 . S
C328 C312 1.368 . S
C328 C324 1.368 . S
C328 C327 1.523 . S
H329 C304 0.950 . S
H330 C306 0.950 . S
H331 C307 0.949 . S
H332 C309 0.950 . S
H333 C311 0.950 . S
C334 C335 1.349 . S
C334 C336 1.327 . S
C334 H359 0.950 . S
C335 C334 1.349 . S
C335 C351 1.349 . S
C336 C334 1.327 . S
C336 C355 1.429 . S
C336 H360 0.950 . S
C337 C354 1.574 . S
C337 C356 1.368 . S
C337 H361 0.949 . S
H338 C342 0.949 . S
C339 C340 1.349 . S
C339 C341 1.327 . S
C339 H362 0.950 . S
C340 C339 1.349 . S
C340 C352 1.349 . S
C341 C339 1.327 . S
C341 C357 1.429 . S
C341 H363 0.950 . S
C342 H338 0.949 . S
C342 C350 1.574 . S
C342 C358 1.368 . S
H343 C351 0.950 . S
H344 C349 0.950 . S
H345 C350 0.949 . S
H346 C352 0.950 . S
H347 C353 0.950 . S
H348 C354 0.949 . S
C349 H344 0.950 . S
C349 C351 1.327 . S
C349 C355 1.429 . S
C350 C342 1.574 . S
C350 H345 0.949 . S
C350 C356 1.368 . S
C351 C335 1.349 . S
C351 H343 0.950 . S
C351 C349 1.327 . S
C352 C340 1.349 . S
C352 H346 0.950 . S
C352 C353 1.327 . S
C353 H347 0.950 . S
C353 C352 1.327 . S
C353 C357 1.429 . S
C354 C337 1.574 . S
C354 H348 0.949 . S
C354 C358 1.368 . S
C355 C336 1.429 . S
C355 C349 1.429 . S
C355 C356 1.523 . S
C356 C337 1.368 . S
C356 C350 1.368 . S
C356 C355 1.523 . S
C357 C341 1.429 . S
C357 C353 1.429 . S
C357 C358 1.523 . S
C358 C342 1.368 . S
C358 C354 1.368 . S
C358 C357 1.523 . S
H359 C334 0.950 . S
H360 C336 0.950 . S
H361 C337 0.949 . S
H362 C339 0.950 . S
H363 C341 0.950 . S
C364 C365 1.349 . S
C364 C366 1.327 . S
C364 H389 0.950 . S
C365 C364 1.349 . S
C365 C381 1.349 . S
C366 C364 1.327 . S
C366 C385 1.429 . S
C366 H390 0.950 . S
C367 C384 1.574 . S
C367 C386 1.368 . S
C367 H391 0.949 . S
H368 C372 0.949 . S
C369 C370 1.349 . S
C369 C371 1.327 . S
C369 H392 0.950 . S
C370 C369 1.349 . S
C370 C382 1.349 . S
C371 C369 1.327 . S
C371 C387 1.429 . S
C371 H393 0.950 . S
C372 H368 0.949 . S
C372 C380 1.574 . S
C372 C388 1.368 . S
H373 C381 0.950 . S
H374 C379 0.950 . S
H375 C380 0.949 . S
H376 C382 0.950 . S
H377 C383 0.950 . S
H378 C384 0.949 . S
C379 H374 0.950 . S
C379 C381 1.327 . S
C379 C385 1.429 . S
C380 C372 1.574 . S
C380 H375 0.949 . S
C380 C386 1.368 . S
C381 C365 1.349 . S
C381 H373 0.950 . S
C381 C379 1.327 . S
C382 C370 1.349 . S
C382 H376 0.950 . S
C382 C383 1.327 . S
C383 H377 0.950 . S
C383 C382 1.327 . S
C383 C387 1.429 . S
C384 C367 1.574 . S
C384 H378 0.949 . S
C384 C388 1.368 . S
C385 C366 1.429 . S
C385 C379 1.429 . S
C385 C386 1.523 . S
C386 C367 1.368 . S
C386 C380 1.368 . S
C386 C385 1.523 . S
C387 C371 1.429 . S
C387 C383 1.429 . S
C387 C388 1.523 . S
C388 C372 1.368 . S
C388 C384 1.368 . S
C388 C387 1.523 . S
H389 C364 0.950 . S
H390 C366 0.950 . S
H391 C367 0.949 . S
H392 C369 0.950 . S
H393 C371 0.950 . S
C394 C395 1.349 . S
C394 C396 1.327 . S
C394 H419 0.950 . S
C395 C394 1.349 . S
C395 C411 1.349 . S
C396 C394 1.327 . S
C396 C415 1.429 . S
C396 H420 0.950 . S
C397 C414 1.574 . S
C397 C416 1.368 . S
C397 H421 0.949 . S
H398 C402 0.949 . S
C399 C400 1.349 . S
C399 C401 1.327 . S
C399 H422 0.950 . S
C400 C399 1.349 . S
C400 C412 1.349 . S
C401 C399 1.327 . S
C401 C417 1.429 . S
C401 H423 0.950 . S
C402 H398 0.949 . S
C402 C410 1.574 . S
C402 C418 1.368 . S
H403 C411 0.950 . S
H404 C409 0.950 . S
H405 C410 0.949 . S
H406 C412 0.950 . S
H407 C413 0.950 . S
H408 C414 0.949 . S
C409 H404 0.950 . S
C409 C411 1.327 . S
C409 C415 1.429 . S
C410 C402 1.574 . S
C410 H405 0.949 . S
C410 C416 1.368 . S
C411 C395 1.349 . S
C411 H403 0.950 . S
C411 C409 1.327 . S
C412 C400 1.349 . S
C412 H406 0.950 . S
C412 C413 1.327 . S
C413 H407 0.950 . S
C413 C412 1.327 . S
C413 C417 1.429 . S
C414 C397 1.574 . S
C414 H408 0.949 . S
C414 C418 1.368 . S
C415 C396 1.429 . S
C415 C409 1.429 . S
C415 C416 1.523 . S
C416 C397 1.368 . S
C416 C410 1.368 . S
C416 C415 1.523 . S
C417 C401 1.429 . S
C417 C413 1.429 . S
C417 C418 1.523 . S
C418 C402 1.368 . S
C418 C414 1.368 . S
C418 C417 1.523 . S
H419 C394 0.950 . S
H420 C396 0.950 . S
H421 C397 0.949 . S
H422 C399 0.950 . S
H423 C401 0.950 . S
C424 C425 1.349 . S
C424 C426 1.327 . S
C424 H449 0.950 . S
C425 C424 1.349 . S
C425 C441 1.349 . S
C426 C424 1.327 . S
C426 C445 1.429 . S
C426 H450 0.950 . S
C427 C444 1.574 . S
C427 C446 1.368 . S
C427 H451 0.949 . S
H428 C432 0.949 . S
C429 C430 1.349 . S
C429 C431 1.327 . S
C429 H452 0.950 . S
C430 C429 1.349 . S
C430 C442 1.349 . S
C431 C429 1.327 . S
C431 C447 1.429 . S
C431 H453 0.950 . S
C432 H428 0.949 . S
C432 C440 1.574 . S
C432 C448 1.368 . S
H433 C441 0.950 1_554 S
H434 C439 0.950 . S
H435 C440 0.949 . S
H436 C442 0.950 . S
H437 C443 0.950 . S
H438 C444 0.949 . S
C439 H434 0.950 . S
C439 C441 1.327 . S
C439 C445 1.429 . S
C440 C432 1.574 . S
C440 H435 0.949 . S
C440 C446 1.368 . S
C441 C425 1.349 . S
C441 H433 0.950 1_556 S
C441 C439 1.327 . S
C442 C430 1.349 . S
C442 H436 0.950 . S
C442 C443 1.327 . S
C443 H437 0.950 . S
C443 C442 1.327 . S
C443 C447 1.429 . S
C444 C427 1.574 . S
C444 H438 0.949 . S
C444 C448 1.368 . S
C445 C426 1.429 . S
C445 C439 1.429 . S
C445 C446 1.523 . S
C446 C427 1.368 . S
C446 C440 1.368 . S
C446 C445 1.523 . S
C447 C431 1.429 . S
C447 C443 1.429 . S
C447 C448 1.523 . S
C448 C432 1.368 . S
C448 C444 1.368 . S
C448 C447 1.523 . S
H449 C424 0.950 . S
H450 C426 0.950 . S
H451 C427 0.949 . S
H452 C429 0.950 . S
H453 C431 0.950 . S
C454 C455 1.349 . S
C454 C456 1.327 . S
C454 H479 0.950 . S
C455 C454 1.349 . S
C455 C471 1.349 . S
C456 C454 1.327 . S
C456 C475 1.429 . S
C456 H480 0.950 . S
C457 C474 1.574 . S
C457 C476 1.368 . S
C457 H481 0.949 . S
H458 C462 0.949 . S
C459 C460 1.349 . S
C459 C461 1.327 . S
C459 H482 0.950 . S
C460 C459 1.349 . S
C460 C472 1.349 . S
C461 C459 1.327 . S
C461 C477 1.429 . S
C461 H483 0.950 . S
C462 H458 0.949 . S
C462 C470 1.574 . S
C462 C478 1.368 . S
H463 C471 0.950 . S
H464 C469 0.950 . S
H465 C470 0.949 . S
H466 C472 0.950 . S
H467 C473 0.950 . S
H468 C474 0.949 . S
C469 H464 0.950 . S
C469 C471 1.327 . S
C469 C475 1.429 . S
C470 C462 1.574 . S
C470 H465 0.949 . S
C470 C476 1.368 . S
C471 C455 1.349 . S
C471 H463 0.950 . S
C471 C469 1.327 . S
C472 C460 1.349 . S
C472 H466 0.950 . S
C472 C473 1.327 . S
C473 H467 0.950 . S
C473 C472 1.327 . S
C473 C477 1.429 . S
C474 C457 1.574 . S
C474 H468 0.949 . S
C474 C478 1.368 . S
C475 C456 1.429 . S
C475 C469 1.429 . S
C475 C476 1.523 . S
C476 C457 1.368 . S
C476 C470 1.368 . S
C476 C475 1.523 . S
C477 C461 1.429 . S
C477 C473 1.429 . S
C477 C478 1.523 . S
C478 C462 1.368 . S
C478 C474 1.368 . S
C478 C477 1.523 . S
H479 C454 0.950 . S
H480 C456 0.950 . S
H481 C457 0.949 . S
H482 C459 0.950 . S
H483 C461 0.950 . S
C484 C485 1.349 . S
C484 C486 1.327 . S
C484 H509 0.950 . S
C485 C484 1.349 . S
C485 C501 1.349 . S
C486 C484 1.327 . S
C486 C505 1.429 . S
C486 H510 0.950 . S
C487 C504 1.574 . S
C487 C506 1.368 . S
C487 H511 0.949 . S
H488 C492 0.949 . S
C489 C490 1.349 . S
C489 C491 1.327 . S
C489 H512 0.950 . S
C490 C489 1.349 . S
C490 C502 1.349 . S
C491 C489 1.327 . S
C491 C507 1.429 . S
C491 H513 0.950 . S
C492 H488 0.949 . S
C492 C500 1.574 . S
C492 C508 1.368 . S
H493 C501 0.950 . S
H494 C499 0.950 . S
H495 C500 0.949 . S
H496 C502 0.950 . S
H497 C503 0.950 . S
H498 C504 0.949 . S
C499 H494 0.950 . S
C499 C501 1.327 . S
C499 C505 1.429 . S
C500 C492 1.574 . S
C500 H495 0.949 . S
C500 C506 1.368 . S
C501 C485 1.349 . S
C501 H493 0.950 . S
C501 C499 1.327 . S
C502 C490 1.349 . S
C502 H496 0.950 . S
C502 C503 1.327 . S
C503 H497 0.950 . S
C503 C502 1.327 . S
C503 C507 1.429 . S
C504 C487 1.574 . S
C504 H498 0.949 . S
C504 C508 1.368 . S
C505 C486 1.429 . S
C505 C499 1.429 . S
C505 C506 1.523 . S
C506 C487 1.368 . S
C506 C500 1.368 . S
C506 C505 1.523 . S
C507 C491 1.429 . S
C507 C503 1.429 . S
C507 C508 1.523 . S
C508 C492 1.368 . S
C508 C504 1.368 . S
C508 C507 1.523 . S
H509 C484 0.950 . S
H510 C486 0.950 . S
H511 C487 0.949 . S
H512 C489 0.950 . S
H513 C491 0.950 . S
C514 C515 1.349 . S
C514 C516 1.327 . S
C514 H539 0.950 . S
C515 C514 1.349 . S
C515 C531 1.349 . S
C516 C514 1.327 . S
C516 C535 1.429 . S
C516 H540 0.950 . S
C517 C534 1.574 . S
C517 C536 1.368 . S
C517 H541 0.949 . S
H518 C522 0.949 . S
C519 C520 1.349 . S
C519 C521 1.327 . S
C519 H542 0.950 . S
C520 C519 1.349 . S
C520 C532 1.349 . S
C521 C519 1.327 . S
C521 C537 1.429 . S
C521 H543 0.950 . S
C522 H518 0.949 . S
C522 C530 1.574 . S
C522 C538 1.368 . S
H523 C531 0.950 . S
H524 C529 0.950 . S
H525 C530 0.949 . S
H526 C532 0.950 . S
H527 C533 0.950 . S
H528 C534 0.949 . S
C529 H524 0.950 . S
C529 C531 1.327 . S
C529 C535 1.429 . S
C530 C522 1.574 . S
C530 H525 0.949 . S
C530 C536 1.368 . S
C531 C515 1.349 . S
C531 H523 0.950 . S
C531 C529 1.327 . S
C532 C520 1.349 . S
C532 H526 0.950 . S
C532 C533 1.327 . S
C533 H527 0.950 . S
C533 C532 1.327 . S
C533 C537 1.429 . S
C534 C517 1.574 . S
C534 H528 0.949 . S
C534 C538 1.368 . S
C535 C516 1.429 . S
C535 C529 1.429 . S
C535 C536 1.523 . S
C536 C517 1.368 . S
C536 C530 1.368 . S
C536 C535 1.523 . S
C537 C521 1.429 . S
C537 C533 1.429 . S
C537 C538 1.523 . S
C538 C522 1.368 . S
C538 C534 1.368 . S
C538 C537 1.523 . S
H539 C514 0.950 . S
H540 C516 0.950 . S
H541 C517 0.949 . S
H542 C519 0.950 . S
H543 C521 0.950 . S
C544 C545 1.349 . S
C544 C546 1.327 . S
C544 H569 0.950 . S
C545 C544 1.349 . S
C545 C561 1.349 . S
C546 C544 1.327 . S
C546 C565 1.429 . S
C546 H570 0.950 . S
C547 C564 1.552 1_565 S
C547 C566 1.368 . S
C547 H571 0.949 . S
H548 C552 0.949 . S
C549 C550 1.349 . S
C549 C551 1.327 . S
C549 H572 0.950 . S
C550 C549 1.349 . S
C550 C562 1.349 . S
C551 C549 1.327 . S
C551 C567 1.429 . S
C551 H573 0.950 . S
C552 H548 0.949 . S
C552 C560 1.574 1_545 S
C552 C568 1.368 . S
H553 C561 0.950 1_554 S
H554 C559 0.950 . S
H555 C560 0.949 . S
H556 C562 0.950 . S
H557 C563 0.950 . S
H558 C564 0.953 . S
C559 H554 0.950 . S
C559 C561 1.327 . S
C559 C565 1.429 . S
C560 C552 1.574 1_565 S
C560 H555 0.949 . S
C560 C566 1.368 . S
C561 C545 1.349 . S
C561 H553 0.950 1_556 S
C561 C559 1.327 . S
C562 C550 1.349 . S
C562 H556 0.950 . S
C562 C563 1.327 . S
C563 H557 0.950 . S
C563 C562 1.327 . S
C563 C567 1.429 . S
C564 C547 1.552 1_545 S
C564 H558 0.953 . S
C564 C568 1.387 . S
C565 C546 1.429 . S
C565 C559 1.429 . S
C565 C566 1.523 . S
C566 C547 1.368 . S
C566 C560 1.368 . S
C566 C565 1.523 . S
C567 C551 1.429 . S
C567 C563 1.429 . S
C567 C568 1.523 . S
C568 C552 1.368 . S
C568 C564 1.387 . S
C568 C567 1.523 . S
H569 C544 0.950 . S
H570 C546 0.950 . S
H571 C547 0.949 . S
H572 C549 0.950 . S
H573 C551 0.950 . S
C574 C575 1.349 . S
C574 C576 1.327 . S
C574 H599 0.950 . S
C575 C574 1.349 . S
C575 C591 1.349 . S
C576 C574 1.327 . S
C576 C595 1.429 . S
C576 H600 0.950 . S
C577 C594 1.574 1_545 S
C577 C596 1.368 . S
C577 H601 0.949 . S
H578 C582 0.949 . S
C579 C580 1.349 . S
C579 C581 1.327 . S
C579 H602 0.950 . S
C580 C579 1.349 . S
C580 C592 1.349 . S
C581 C579 1.327 . S
C581 C597 1.429 . S
C581 H603 0.950 . S
C582 H578 0.949 . S
C582 C590 1.574 1_565 S
C582 C598 1.368 . S
H583 C591 0.950 . S
H584 C589 0.950 . S
H585 C590 0.949 . S
H586 C592 0.950 . S
H587 C593 0.950 . S
H588 C594 0.949 . S
C589 H584 0.950 . S
C589 C591 1.327 . S
C589 C595 1.429 . S
C590 C582 1.574 1_545 S
C590 H585 0.949 . S
C590 C596 1.368 . S
C591 C575 1.349 . S
C591 H583 0.950 . S
C591 C589 1.327 . S
C592 C580 1.349 . S
C592 H586 0.950 . S
C592 C593 1.327 . S
C593 H587 0.950 . S
C593 C592 1.327 . S
C593 C597 1.429 . S
C594 C577 1.574 1_565 S
C594 H588 0.949 . S
C594 C598 1.368 . S
C595 C576 1.429 . S
C595 C589 1.429 . S
C595 C596 1.523 . S
C596 C577 1.368 . S
C596 C590 1.368 . S
C596 C595 1.523 . S
C597 C581 1.429 . S
C597 C593 1.429 . S
C597 C598 1.523 . S
C598 C582 1.368 . S
C598 C594 1.368 . S
C598 C597 1.523 . S
H599 C574 0.950 . S
H600 C576 0.950 . S
H601 C577 0.949 . S
H602 C579 0.950 . S
H603 C581 0.950 . S
C604 C605 1.349 . S
C604 C606 1.327 . S
C604 H629 0.950 . S
C605 C604 1.349 . S
C605 C621 1.349 . S
C606 C604 1.327 . S
C606 C625 1.429 . S
C606 H630 0.950 . S
C607 C624 1.574 . S
C607 C626 1.368 . S
C607 H631 0.949 . S
H608 C612 0.949 . S
C609 C610 1.349 . S
C609 C611 1.327 . S
C609 H632 0.950 . S
C610 C609 1.349 . S
C610 C622 1.349 . S
C611 C609 1.327 . S
C611 C627 1.429 . S
C611 H633 0.950 . S
C612 H608 0.949 . S
C612 C620 1.574 . S
C612 C628 1.368 . S
H613 C621 0.950 . S
H614 C619 0.950 . S
H615 C620 0.949 . S
H616 C622 0.950 . S
H617 C623 0.950 . S
H618 C624 0.949 . S
C619 H614 0.950 . S
C619 C621 1.327 . S
C619 C625 1.429 . S
C620 C612 1.574 . S
C620 H615 0.949 . S
C620 C626 1.368 1_545 S
C621 C605 1.349 . S
C621 H613 0.950 . S
C621 C619 1.327 . S
C622 C610 1.349 . S
C622 H616 0.950 . S
C622 C623 1.327 . S
C623 H617 0.950 . S
C623 C622 1.327 . S
C623 C627 1.429 . S
C624 C607 1.574 . S
C624 H618 0.949 . S
C624 C628 1.368 1_565 S
C625 C606 1.429 . S
C625 C619 1.429 . S
C625 C626 1.523 . S
C626 C607 1.368 . S
C626 C620 1.368 1_565 S
C626 C625 1.523 . S
C627 C611 1.429 . S
C627 C623 1.429 . S
C627 C628 1.523 . S
C628 C612 1.368 . S
C628 C624 1.368 1_545 S
C628 C627 1.523 . S
H629 C604 0.950 . S
H630 C606 0.950 . S
H631 C607 0.949 . S
H632 C609 0.950 . S
H633 C611 0.950 . S
C634 C635 1.349 . S
C634 C636 1.327 . S
C634 H659 0.950 . S
C635 C634 1.349 . S
C635 C651 1.349 . S
C636 C634 1.327 . S
C636 C655 1.429 . S
C636 H660 0.950 . S
C637 C654 1.574 . S
C637 C656 1.368 1_565 S
C637 H661 0.949 . S
H638 C642 0.949 . S
C639 C640 1.349 . S
C639 C641 1.327 . S
C639 H662 0.950 . S
C640 C639 1.349 . S
C640 C652 1.349 . S
C641 C639 1.327 . S
C641 C657 1.429 . S
C641 H663 0.950 . S
C642 H638 0.949 . S
C642 C650 1.574 . S
C642 C658 1.368 1_545 S
H643 C651 0.950 . S
H644 C649 0.950 . S
H645 C650 0.949 . S
H646 C652 0.950 . S
H647 C653 0.950 . S
H648 C654 0.949 . S
C649 H644 0.950 . S
C649 C651 1.327 . S
C649 C655 1.429 . S
C650 C642 1.574 . S
C650 H645 0.949 . S
C650 C656 1.368 . S
C651 C635 1.349 . S
C651 H643 0.950 . S
C651 C649 1.327 . S
C652 C640 1.349 . S
C652 H646 0.950 . S
C652 C653 1.327 . S
C653 H647 0.950 . S
C653 C652 1.327 . S
C653 C657 1.429 . S
C654 C637 1.574 . S
C654 H648 0.949 . S
C654 C658 1.368 . S
C655 C636 1.429 . S
C655 C649 1.429 . S
C655 C656 1.523 . S
C656 C637 1.368 1_545 S
C656 C650 1.368 . S
C656 C655 1.523 . S
C657 C641 1.429 . S
C657 C653 1.429 . S
C657 C658 1.523 . S
C658 C642 1.368 1_565 S
C658 C654 1.368 . S
C658 C657 1.523 . S
H659 C634 0.950 . S
H660 C636 0.950 . S
H661 C637 0.949 . S
H662 C639 0.950 . S
H663 C641 0.950 . S
C664 C665 1.349 . S
C664 C666 1.327 . S
C664 H689 0.950 . S
C665 C664 1.349 . S
C665 C681 1.349 . S
C666 C664 1.327 . S
C666 C685 1.429 . S
C666 H690 0.950 . S
C667 C684 1.574 . S
C667 C686 1.368 . S
C667 H691 0.949 . S
H668 C672 0.949 . S
C669 C670 1.349 . S
C669 C671 1.327 . S
C669 H692 0.950 . S
C670 C669 1.349 . S
C670 C682 1.349 . S
C671 C669 1.327 . S
C671 C687 1.429 . S
C671 H693 0.950 . S
C672 H668 0.949 . S
C672 C680 1.574 . S
C672 C688 1.368 . S
H673 C681 0.950 . S
H674 C679 0.950 . S
H675 C680 0.949 . S
H676 C682 0.950 . S
H677 C683 0.950 . S
H678 C684 0.949 . S
C679 H674 0.950 . S
C679 C681 1.327 . S
C679 C685 1.429 . S
C680 C672 1.574 . S
C680 H675 0.949 . S
C680 C686 1.368 . S
C681 C665 1.349 . S
C681 H673 0.950 . S
C681 C679 1.327 . S
C682 C670 1.349 . S
C682 H676 0.950 . S
C682 C683 1.327 . S
C683 H677 0.950 . S
C683 C682 1.327 . S
C683 C687 1.429 . S
C684 C667 1.574 . S
C684 H678 0.949 . S
C684 C688 1.368 . S
C685 C666 1.429 . S
C685 C679 1.429 . S
C685 C686 1.523 . S
C686 C667 1.368 . S
C686 C680 1.368 . S
C686 C685 1.523 . S
C687 C671 1.429 . S
C687 C683 1.429 . S
C687 C688 1.523 . S
C688 C672 1.368 . S
C688 C684 1.368 . S
C688 C687 1.523 . S
H689 C664 0.950 . S
H690 C666 0.950 . S
H691 C667 0.949 . S
H692 C669 0.950 . S
H693 C671 0.950 . S
C694 C695 1.349 . S
C694 C696 1.327 . S
C694 H719 0.950 . S
C695 C694 1.349 . S
C695 C711 1.349 . S
C696 C694 1.327 . S
C696 C715 1.429 . S
C696 H720 0.950 . S
C697 C714 1.574 . S
C697 C716 1.368 . S
C697 H721 0.949 . S
H698 C702 0.949 . S
C699 C700 1.349 . S
C699 C701 1.327 . S
C699 H722 0.950 . S
C700 C699 1.349 . S
C700 C712 1.349 . S
C701 C699 1.327 . S
C701 C717 1.429 . S
C701 H723 0.950 . S
C702 H698 0.949 . S
C702 C710 1.574 . S
C702 C718 1.368 . S
H703 C711 0.950 . S
H704 C709 0.950 . S
H705 C710 0.949 . S
H706 C712 0.950 . S
H707 C713 0.950 . S
H708 C714 0.949 . S
C709 H704 0.950 . S
C709 C711 1.327 . S
C709 C715 1.429 . S
C710 C702 1.574 . S
C710 H705 0.949 . S
C710 C716 1.368 . S
C711 C695 1.349 . S
C711 H703 0.950 . S
C711 C709 1.327 . S
C712 C700 1.349 . S
C712 H706 0.950 . S
C712 C713 1.327 . S
C713 H707 0.950 . S
C713 C712 1.327 . S
C713 C717 1.429 . S
C714 C697 1.574 . S
C714 H708 0.949 . S
C714 C718 1.368 . S
C715 C696 1.429 . S
C715 C709 1.429 . S
C715 C716 1.523 . S
C716 C697 1.368 . S
C716 C710 1.368 . S
C716 C715 1.523 . S
C717 C701 1.429 . S
C717 C713 1.429 . S
C717 C718 1.523 . S
C718 C702 1.368 . S
C718 C714 1.368 . S
C718 C717 1.523 . S
H719 C694 0.950 . S
H720 C696 0.950 . S
H721 C697 0.949 . S
H722 C699 0.950 . S
H723 C701 0.950 . S
C724 C725 1.349 . S
C724 C726 1.327 . S
C724 H749 0.950 . S
C725 C724 1.349 . S
C725 C741 1.349 . S
C726 C724 1.327 . S
C726 C745 1.429 . S
C726 H750 0.950 . S
C727 C744 1.574 . S
C727 C746 1.368 . S
C727 H751 0.949 . S
H728 C732 0.949 . S
C729 C730 1.349 . S
C729 C731 1.327 . S
C729 H752 0.950 . S
C730 C729 1.349 . S
C730 C742 1.349 . S
C731 C729 1.327 . S
C731 C747 1.429 . S
C731 H753 0.950 . S
C732 H728 0.949 . S
C732 C740 1.574 . S
C732 C748 1.368 . S
H733 C741 0.950 . S
H734 C739 0.950 . S
H735 C740 0.949 . S
H736 C742 0.950 . S
H737 C743 0.950 . S
H738 C744 0.949 . S
C739 H734 0.950 . S
C739 C741 1.327 . S
C739 C745 1.429 . S
C740 C732 1.574 . S
C740 H735 0.949 . S
C740 C746 1.368 . S
C741 C725 1.349 . S
C741 H733 0.950 . S
C741 C739 1.327 . S
C742 C730 1.349 . S
C742 H736 0.950 . S
C742 C743 1.327 . S
C743 H737 0.950 . S
C743 C742 1.327 . S
C743 C747 1.429 . S
C744 C727 1.574 . S
C744 H738 0.949 . S
C744 C748 1.368 . S
C745 C726 1.429 . S
C745 C739 1.429 . S
C745 C746 1.523 . S
C746 C727 1.368 . S
C746 C740 1.368 . S
C746 C745 1.523 . S
C747 C731 1.429 . S
C747 C743 1.429 . S
C747 C748 1.523 . S
C748 C732 1.368 . S
C748 C744 1.368 . S
C748 C747 1.523 . S
H749 C724 0.950 . S
H750 C726 0.950 . S
H751 C727 0.949 . S
H752 C729 0.950 . S
H753 C731 0.950 . S
C754 C755 1.349 . S
C754 C756 1.327 . S
C754 H779 0.950 . S
C755 C754 1.349 . S
C755 C771 1.349 . S
C756 C754 1.327 . S
C756 C775 1.429 . S
C756 H780 0.950 . S
C757 C774 1.574 . S
C757 C776 1.368 . S
C757 H781 0.949 . S
H758 C762 0.949 . S
C759 C760 1.349 . S
C759 C761 1.327 . S
C759 H782 0.950 . S
C760 C759 1.349 . S
C760 C772 1.349 . S
C761 C759 1.327 . S
C761 C777 1.429 . S
C761 H783 0.950 . S
C762 H758 0.949 . S
C762 C770 1.574 . S
C762 C778 1.368 . S
H763 C771 0.950 . S
H764 C769 0.950 . S
H765 C770 0.949 . S
H766 C772 0.950 . S
H767 C773 0.950 . S
H768 C774 0.949 . S
C769 H764 0.950 . S
C769 C771 1.327 . S
C769 C775 1.429 . S
C770 C762 1.574 . S
C770 H765 0.949 . S
C770 C776 1.368 . S
C771 C755 1.349 . S
C771 H763 0.950 . S
C771 C769 1.327 . S
C772 C760 1.349 . S
C772 H766 0.950 . S
C772 C773 1.327 . S
C773 H767 0.950 . S
C773 C772 1.327 . S
C773 C777 1.429 . S
C774 C757 1.574 . S
C774 H768 0.949 . S
C774 C778 1.368 . S
C775 C756 1.429 . S
C775 C769 1.429 . S
C775 C776 1.523 . S
C776 C757 1.368 . S
C776 C770 1.368 . S
C776 C775 1.523 . S
C777 C761 1.429 . S
C777 C773 1.429 . S
C777 C778 1.523 . S
C778 C762 1.368 . S
C778 C774 1.368 . S
C778 C777 1.523 . S
H779 C754 0.950 . S
H780 C756 0.950 . S
H781 C757 0.949 . S
H782 C759 0.950 . S
H783 C761 0.950 . S
C784 C785 1.349 . S
C784 C786 1.327 . S
C784 H809 0.950 . S
C785 C784 1.349 . S
C785 C801 1.349 . S
C786 C784 1.327 . S
C786 C805 1.429 . S
C786 H810 0.950 . S
C787 C804 1.574 . S
C787 C806 1.368 . S
C787 H811 0.949 . S
H788 C792 0.949 . S
C789 C790 1.349 . S
C789 C791 1.327 . S
C789 H812 0.950 . S
C790 C789 1.349 . S
C790 C802 1.349 . S
C791 C789 1.327 . S
C791 C807 1.429 . S
C791 H813 0.950 . S
C792 H788 0.949 . S
C792 C800 1.574 . S
C792 C808 1.368 . S
H793 C801 0.950 . S
H794 C799 0.950 . S
H795 C800 0.949 . S
H796 C802 0.950 . S
H797 C803 0.950 . S
H798 C804 0.949 . S
C799 H794 0.950 . S
C799 C801 1.327 . S
C799 C805 1.429 . S
C800 C792 1.574 . S
C800 H795 0.949 . S
C800 C806 1.368 . S
C801 C785 1.349 . S
C801 H793 0.950 . S
C801 C799 1.327 . S
C802 C790 1.349 . S
C802 H796 0.950 . S
C802 C803 1.327 . S
C803 H797 0.950 . S
C803 C802 1.327 . S
C803 C807 1.429 . S
C804 C787 1.574 . S
C804 H798 0.949 . S
C804 C808 1.368 . S
C805 C786 1.429 . S
C805 C799 1.429 . S
C805 C806 1.523 . S
C806 C787 1.368 . S
C806 C800 1.368 . S
C806 C805 1.523 . S
C807 C791 1.429 . S
C807 C803 1.429 . S
C807 C808 1.523 . S
C808 C792 1.368 . S
C808 C804 1.368 . S
C808 C807 1.523 . S
H809 C784 0.950 . S
H810 C786 0.950 . S
H811 C787 0.949 . S
H812 C789 0.950 . S
H813 C791 0.950 . S
C814 C815 1.349 . S
C814 C816 1.327 . S
C814 H839 0.950 . S
C815 C814 1.349 . S
C815 C831 1.349 . S
C816 C814 1.327 . S
C816 C835 1.429 . S
C816 H840 0.950 . S
C817 C834 1.574 . S
C817 C836 1.368 . S
C817 H841 0.949 . S
H818 C822 0.949 . S
C819 C820 1.349 . S
C819 C821 1.327 . S
C819 H842 0.950 . S
C820 C819 1.349 . S
C820 C832 1.349 . S
C821 C819 1.327 . S
C821 C837 1.429 . S
C821 H843 0.950 . S
C822 H818 0.949 . S
C822 C830 1.574 . S
C822 C838 1.368 . S
H823 C831 0.950 . S
H824 C829 0.950 . S
H825 C830 0.949 . S
H826 C832 0.950 . S
H827 C833 0.950 . S
H828 C834 0.949 . S
C829 H824 0.950 . S
C829 C831 1.327 . S
C829 C835 1.429 . S
C830 C822 1.574 . S
C830 H825 0.949 . S
C830 C836 1.368 . S
C831 C815 1.349 . S
C831 H823 0.950 . S
C831 C829 1.327 . S
C832 C820 1.349 . S
C832 H826 0.950 . S
C832 C833 1.327 . S
C833 H827 0.950 . S
C833 C832 1.327 . S
C833 C837 1.429 . S
C834 C817 1.574 . S
C834 H828 0.949 . S
C834 C838 1.368 . S
C835 C816 1.429 . S
C835 C829 1.429 . S
C835 C836 1.523 . S
C836 C817 1.368 . S
C836 C830 1.368 . S
C836 C835 1.523 . S
C837 C821 1.429 . S
C837 C833 1.429 . S
C837 C838 1.523 . S
C838 C822 1.368 . S
C838 C834 1.368 . S
C838 C837 1.523 . S
H839 C814 0.950 . S
H840 C816 0.950 . S
H841 C817 0.949 . S
H842 C819 0.950 . S
H843 C821 0.950 . S
C844 C845 1.349 . S
C844 C846 1.327 . S
C844 H869 0.950 . S
C845 C844 1.349 . S
C845 C861 1.349 . S
C846 C844 1.327 . S
C846 C865 1.429 . S
C846 H870 0.950 . S
C847 C864 1.574 . S
C847 C866 1.368 . S
C847 H871 0.949 . S
H848 C852 0.949 . S
C849 C850 1.349 . S
C849 C851 1.327 . S
C849 H872 0.950 . S
C850 C849 1.349 . S
C850 C862 1.349 . S
C851 C849 1.327 . S
C851 C867 1.429 . S
C851 H873 0.950 . S
C852 H848 0.949 . S
C852 C860 1.574 . S
C852 C868 1.368 . S
H853 C861 0.950 . S
H854 C859 0.950 . S
H855 C860 0.949 . S
H856 C862 0.950 . S
H857 C863 0.950 . S
H858 C864 0.949 . S
C859 H854 0.950 . S
C859 C861 1.327 . S
C859 C865 1.429 . S
C860 C852 1.574 . S
C860 H855 0.949 . S
C860 C866 1.368 . S
C861 C845 1.349 . S
C861 H853 0.950 . S
C861 C859 1.327 . S
C862 C850 1.349 . S
C862 H856 0.950 . S
C862 C863 1.327 . S
C863 H857 0.950 . S
C863 C862 1.327 . S
C863 C867 1.429 . S
C864 C847 1.574 . S
C864 H858 0.949 . S
C864 C868 1.368 . S
C865 C846 1.429 . S
C865 C859 1.429 . S
C865 C866 1.523 . S
C866 C847 1.368 . S
C866 C860 1.368 . S
C866 C865 1.523 . S
C867 C851 1.429 . S
C867 C863 1.429 . S
C867 C868 1.523 . S
C868 C852 1.368 . S
C868 C864 1.368 . S
C868 C867 1.523 . S
H869 C844 0.950 . S
H870 C846 0.950 . S
H871 C847 0.949 . S
H872 C849 0.950 . S
H873 C851 0.950 . S
C874 C875 1.349 . S
C874 C876 1.327 . S
C874 H899 0.950 . S
C875 C874 1.349 . S
C875 C891 1.349 . S
C876 C874 1.327 . S
C876 C895 1.429 . S
C876 H900 0.950 . S
C877 C894 1.574 . S
C877 C896 1.368 . S
C877 H901 0.949 . S
H878 C882 0.949 . S
C879 C880 1.349 . S
C879 C881 1.327 . S
C879 H902 0.950 . S
C880 C879 1.349 . S
C880 C892 1.349 . S
C881 C879 1.327 . S
C881 C897 1.429 . S
C881 H903 0.950 . S
C882 H878 0.949 . S
C882 C890 1.574 . S
C882 C898 1.368 . S
H883 C891 0.950 . S
H884 C889 0.950 . S
H885 C890 0.949 . S
H886 C892 0.950 . S
H887 C893 0.950 . S
H888 C894 0.949 . S
C889 H884 0.950 . S
C889 C891 1.327 . S
C889 C895 1.429 . S
C890 C882 1.574 . S
C890 H885 0.949 . S
C890 C896 1.368 . S
C891 C875 1.349 . S
C891 H883 0.950 . S
C891 C889 1.327 . S
C892 C880 1.349 . S
C892 H886 0.950 . S
C892 C893 1.327 . S
C893 H887 0.950 . S
C893 C892 1.327 . S
C893 C897 1.429 . S
C894 C877 1.574 . S
C894 H888 0.949 . S
C894 C898 1.368 . S
C895 C876 1.429 . S
C895 C889 1.429 . S
C895 C896 1.523 . S
C896 C877 1.368 . S
C896 C890 1.368 . S
C896 C895 1.523 . S
C897 C881 1.429 . S
C897 C893 1.429 . S
C897 C898 1.523 . S
C898 C882 1.368 . S
C898 C894 1.368 . S
C898 C897 1.523 . S
H899 C874 0.950 . S
H900 C876 0.950 . S
H901 C877 0.949 . S
H902 C879 0.950 . S
H903 C881 0.950 . S
C185 C4 1.545 . S
C190 C122 1.528 . S
C220 C100 1.529 . S
C215 C16 1.546 . S
C250 C126 1.529 . S
C245 C28 1.539 . S
C280 C104 1.529 . S
C275 C40 1.537 . S
C310 C166 1.529 . S
C305 C52 1.545 . S
C340 C144 1.529 . S
C335 C64 1.545 . S
C365 C76 1.538 . S
C370 C170 1.529 . S
C400 C148 1.529 . S
C395 C88 1.538 . S
C425 C9 1.491 . S
C430 C171 1.507 . S
C460 C149 1.508 . S
C455 C21 1.491 . S
C485 C33 1.497 . S
C490 C168 1.507 . S
C515 C45 1.497 . S
C520 C146 1.508 . S
C550 C127 1.507 . S
C545 C57 1.491 . S
C575 C69 1.491 . S
C580 C105 1.507 . S
C610 C124 1.507 . S
C605 C81 1.496 . S
C640 C102 1.508 . S
C635 C93 1.497 . S
C670 C145 1.471 . S
C665 C6 1.472 . S
C700 C167 1.471 . S
C695 C18 1.472 . S
C725 C30 1.483 . S
C730 C147 1.471 . S
C760 C169 1.471 . S
C755 C42 1.483 . S
C790 C101 1.471 . S
C785 C54 1.473 . S
C815 C66 1.472 . S
C820 C123 1.470 . S
C845 C78 1.483 . S
C850 C103 1.470 . S
C875 C90 1.483 . S
C880 C125 1.472 . S
