# Generated by pormake.
# Topology zzz, (3,6)-cn, num edge types: 1
# Building blocks:
#     Node 0, Type 0, BuildingBlock: CUQRIR_clean_linker_1, # of connection points: 3
#     Node 1, Type 0, BuildingBlock: CUQRIR_clean_linker_1, # of connection points: 3
#     Node 2, Type 0, BuildingBlock: CUQRIR_clean_linker_1, # of connection points: 3
#     Node 3, Type 0, BuildingBlock: CUQRIR_clean_linker_1, # of connection points: 3
#     Node 4, Type 0, BuildingBlock: CUQRIR_clean_linker_1, # of connection points: 3
#     Node 5, Type 0, BuildingBlock: CUQRIR_clean_linker_1, # of connection points: 3
#     Node 6, Type 0, BuildingBlock: CUQRIR_clean_linker_1, # of connection points: 3
#     Node 7, Type 0, BuildingBlock: CUQRIR_clean_linker_1, # of connection points: 3
#     Node 8, Type 1, BuildingBlock: BETFAJ_clean_sbu_0, # of connection points: 6
#     Node 9, Type 1, BuildingBlock: BETFAJ_clean_sbu_0, # of connection points: 6
#     Node 10, Type 1, BuildingBlock: BETFAJ_clean_sbu_0, # of connection points: 6
#     Node 11, Type 1, BuildingBlock: BETFAJ_clean_sbu_0, # of connection points: 6
#     Edge 12, Type (0, 1), BuildingBlock: UVAHIK_clean_linker_0, # of connection points: 2
#     Edge 13, Type (0, 1), BuildingBlock: UVAHIK_clean_linker_0, # of connection points: 2
#     Edge 14, Type (0, 1), BuildingBlock: UVAHIK_clean_linker_0, # of connection points: 2
#     Edge 15, Type (0, 1), BuildingBlock: UVAHIK_clean_linker_0, # of connection points: 2
#     Edge 16, Type (0, 1), BuildingBlock: UVAHIK_clean_linker_0, # of connection points: 2
#     Edge 17, Type (0, 1), BuildingBlock: UVAHIK_clean_linker_0, # of connection points: 2
#     Edge 18, Type (0, 1), BuildingBlock: UVAHIK_clean_linker_0, # of connection points: 2
#     Edge 19, Type (0, 1), BuildingBlock: UVAHIK_clean_linker_0, # of connection points: 2
#     Edge 20, Type (0, 1), BuildingBlock: UVAHIK_clean_linker_0, # of connection points: 2
#     Edge 21, Type (0, 1), BuildingBlock: UVAHIK_clean_linker_0, # of connection points: 2
#     Edge 22, Type (0, 1), BuildingBlock: UVAHIK_clean_linker_0, # of connection points: 2
#     Edge 23, Type (0, 1), BuildingBlock: UVAHIK_clean_linker_0, # of connection points: 2
#     Edge 24, Type (0, 1), BuildingBlock: UVAHIK_clean_linker_0, # of connection points: 2
#     Edge 25, Type (0, 1), BuildingBlock: UVAHIK_clean_linker_0, # of connection points: 2
#     Edge 26, Type (0, 1), BuildingBlock: UVAHIK_clean_linker_0, # of connection points: 2
#     Edge 27, Type (0, 1), BuildingBlock: UVAHIK_clean_linker_0, # of connection points: 2
#     Edge 28, Type (0, 1), BuildingBlock: UVAHIK_clean_linker_0, # of connection points: 2
#     Edge 29, Type (0, 1), BuildingBlock: UVAHIK_clean_linker_0, # of connection points: 2
#     Edge 30, Type (0, 1), BuildingBlock: UVAHIK_clean_linker_0, # of connection points: 2
#     Edge 31, Type (0, 1), BuildingBlock: UVAHIK_clean_linker_0, # of connection points: 2
#     Edge 32, Type (0, 1), BuildingBlock: UVAHIK_clean_linker_0, # of connection points: 2
#     Edge 33, Type (0, 1), BuildingBlock: UVAHIK_clean_linker_0, # of connection points: 2
#     Edge 34, Type (0, 1), BuildingBlock: UVAHIK_clean_linker_0, # of connection points: 2
#     Edge 35, Type (0, 1), BuildingBlock: UVAHIK_clean_linker_0, # of connection points: 2
# Relax obj value: 0.249
# Max RMSD: 0.178
# Mean RMSD: 0.159
data_MOF--net-zzz--node1-BETFAJ_clean_sbu_0--node2-CUQRIR_clean_linker_1--edge1-UVAHIK_clean_linker_0
_symmetry_space_group_name_H-M    P1
_symmetry_Int_Tables_number       1
_symmetry_cell_setting            triclinic
loop_
_symmetry_equiv_pos_as_xyz
'x, y, z'
_cell_length_a     64.178705
_cell_length_b     64.073058
_cell_length_c     15.630617
_cell_angle_alpha  89.851076
_cell_angle_beta   89.964301
_cell_angle_gamma 89.9025
loop_
_atom_site_label
_atom_site_type_symbol
_atom_site_fract_x
_atom_site_fract_y
_atom_site_fract_z
_atom_type_partial_charge
C0 C 0.74622 0.51066 0.3362 0.0
N1 N 0.76302 0.50061 0.36839 0.0
N2 N 0.7319 0.49678 0.30733 0.0
C3 C 0.7444 0.53393 0.32813 0.0
C4 C 0.74083 0.47791 0.32239 0.0
N5 N 0.7597 0.48025 0.35982 0.0
C6 C 0.73187 0.45742 0.29368 0.0
H7 H 0.75228 0.54172 0.38253 0.0
H8 H 0.72781 0.53882 0.32559 0.0
H9 H 0.7522 0.53898 0.2682 0.0
H10 H 0.73068 0.45737 0.22285 0.0
H11 H 0.71592 0.45555 0.31975 0.0
H12 H 0.7415 0.444 0.315 0.0
C13 C 0.02531 0.74652 0.33518 0.0
N14 N 0.03526 0.76433 0.35738 0.0
N15 N 0.03809 0.73397 0.28859 0.0
C16 C 1.00312 0.74164 0.35767 0.0
C17 C 0.05599 0.74511 0.28204 0.0
N18 N 0.0543 0.7634 0.32442 0.0
C19 C 0.07454 0.73876 0.22909 0.0
H20 H 0.99879 0.74906 0.41926 0.0
H21 H 1.00068 0.72453 0.36177 0.0
H22 H 0.99279 0.74804 0.30705 0.0
H23 H 0.06933 0.73166 0.16805 0.0
H24 H 0.08364 0.72686 0.26476 0.0
H25 H 0.08496 0.75212 0.21524 0.0
C26 C 0.78501 0.0238 0.32452 0.0
N27 N 0.76808 0.03438 0.35267 0.0
N28 N 0.79869 0.03697 0.28558 0.0
C29 C 0.78773 1.00061 0.3323 0.0
C30 C 0.78918 0.05589 0.29045 0.0
N31 N 0.77073 0.05429 0.33174 0.0
C32 C 0.79726 0.07555 0.24938 0.0
H33 H 0.78031 0.99481 0.3919 0.0
H34 H 0.80449 0.99631 0.33191 0.0
H35 H 0.77996 0.99297 0.27731 0.0
H36 H 0.80312 0.07215 0.18406 0.0
H37 H 0.81047 0.08158 0.28768 0.0
H38 H 0.78519 0.08791 0.24601 0.0
C39 C 0.50568 0.78721 0.34858 0.0
N40 N 0.49724 0.76828 0.36581 0.0
N41 N 0.49415 0.79754 0.2888 0.0
C42 C 0.52505 0.7955 0.38983 0.0
C43 C 0.4787 0.7839 0.26945 0.0
N44 N 0.48048 0.76634 0.31682 0.0
C45 C 0.46304 0.78693 0.19887 0.0
H46 H 0.52694 0.78891 0.4551 0.0
H47 H 0.5246 0.8128 0.39292 0.0
H48 H 0.53873 0.79076 0.351 0.0
H49 H 0.47013 0.79549 0.14436 0.0
H50 H 0.44983 0.79634 0.22356 0.0
H51 H 0.4568 0.77181 0.17595 0.0
C52 C 0.28763 0.52734 0.08028 0.0
N53 N 0.27009 0.53783 0.05836 0.0
N54 N 0.30104 0.54009 0.12223 0.0
C55 C 0.29131 0.5046 0.06338 0.0
C56 C 0.29074 0.55855 0.12656 0.0
N57 N 0.27203 0.55722 0.08723 0.0
C58 C 0.29822 0.57718 0.17609 0.0
H59 H 0.30824 0.50123 0.05833 0.0
H60 H 0.28327 0.49972 0.00388 0.0
H61 H 0.28484 0.49538 0.11738 0.0
H62 H 0.31234 0.58361 0.14478 0.0
H63 H 0.30267 0.57229 0.24177 0.0
H64 H 0.28626 0.58966 0.17945 0.0
C65 C 1.00215 0.28624 0.10368 0.0
N66 N 0.99142 0.26854 0.0862 0.0
N67 N 0.99087 0.29894 0.15582 0.0
C68 C 0.02348 0.29109 0.06985 0.0
C69 C 0.97312 0.28804 0.17048 0.0
N70 N 0.97336 0.26977 0.12749 0.0
C71 C 0.9564 0.29443 0.2328 0.0
H72 H 0.03528 0.28468 0.11468 0.0
H73 H 0.02581 0.3082 0.06459 0.0
H74 H 0.02587 0.28369 0.00646 0.0
H75 H 0.94611 0.30612 0.20175 0.0
H76 H 0.96344 0.30176 0.29015 0.0
H77 H 0.94667 0.281 0.25293 0.0
C78 C 0.24348 1.00639 0.08054 0.0
N79 N 0.26098 0.99594 0.05794 0.0
N80 N 0.23012 0.99355 0.1227 0.0
C81 C 0.23977 0.02916 0.0641 0.0
C82 C 0.24042 0.97508 0.12646 0.0
N83 N 0.25908 0.9765 0.08661 0.0
C84 C 0.23301 0.95634 0.1759 0.0
H85 H 0.22283 0.03254 0.05961 0.0
H86 H 0.24772 0.03417 0.00442 0.0
H87 H 0.24632 0.03826 0.11803 0.0
H88 H 0.21887 0.94996 0.14479 0.0
H89 H 0.22862 0.96109 0.24174 0.0
H90 H 0.24498 0.94386 0.17883 0.0
C91 C 0.52411 0.24331 0.08015 0.0
N92 N 0.53336 0.26183 0.06243 0.0
N93 N 0.53502 0.23274 0.1411 0.0
C94 C 0.50447 0.23572 0.03877 0.0
C95 C 0.55092 0.2458 0.16071 0.0
N96 N 0.55001 0.26327 0.11236 0.0
C97 C 0.56621 0.2423 0.2323 0.0
H98 H 0.50414 0.21841 0.03702 0.0
H99 H 0.50302 0.2421 0.97295 0.0
H100 H 0.49094 0.24125 0.07671 0.0
H101 H 0.5787 0.23167 0.20969 0.0
H102 H 0.55838 0.23478 0.28768 0.0
H103 H 0.57352 0.2571 0.25319 0.0
Sm104 Sm 0.02307 1.01078 0.80614 0.0
Sm105 Sm 1.01015 0.02454 0.61479 0.0
C106 C 0.02801 1.00546 0.9727 0.0
C107 C 0.03959 0.99201 0.03175 0.0
C108 C 0.05506 0.97849 0.00128 0.0
C109 C 0.06514 0.96482 0.05738 0.0
C110 C 0.05981 0.9644 0.14474 0.0
C111 C 0.04473 0.97849 0.1753 0.0
C112 C 0.03471 0.99221 0.11911 0.0
C113 C 0.05462 1.0103 0.68618 0.0
C114 C 0.01568 0.97469 0.66666 0.0
C115 C 1.00898 0.03393 0.45006 0.0
C116 C 0.99482 0.04623 0.39636 0.0
C117 C 0.97933 0.0585 0.43456 0.0
C118 C 0.96662 0.07127 0.38445 0.0
C119 C 0.9691 0.07197 0.29498 0.0
C120 C 0.98417 0.05898 0.25669 0.0
C121 C 0.99694 0.04621 0.30716 0.0
C122 C 0.97518 0.02071 0.72011 0.0
C123 C 1.01417 0.06095 0.75832 0.0
O124 O 1.01315 0.99642 0.9288 0.0
O125 O 0.03917 0.0185 0.92713 0.0
O126 O 0.04015 0.02361 0.69045 0.0
O127 O 0.0538 0.9976 0.75102 0.0
O128 O 1.01311 0.97926 0.7487 0.0
O129 O 0.01859 0.98937 0.60784 0.0
O130 O 0.01978 0.04458 0.50608 0.0
O131 O 1.00119 0.01667 0.48164 0.0
O132 O 0.99393 0.0172 0.73646 0.0
O133 O 0.9741 0.02692 0.64109 0.0
O134 O 1.01423 0.05698 0.6752 0.0
O135 O 1.01507 0.04599 0.81699 0.0
H136 H 0.05896 0.97814 0.93382 0.0
H137 H 0.07641 0.95391 0.03158 0.0
H138 H 0.04038 0.97858 0.24228 0.0
H139 H 0.02284 1.00267 0.14353 0.0
H140 H 0.97746 0.05864 0.50348 0.0
H141 H 0.95552 0.08132 0.41646 0.0
H142 H 0.98636 0.05902 0.18799 0.0
H143 H 1.00874 0.03665 0.27674 0.0
Sm144 Sm 0.5229 0.02235 0.81817 0.0
Sm145 Sm 0.5083 1.00931 0.61886 0.0
C146 C 0.53382 0.02094 0.98096 0.0
C147 C 0.54825 0.03059 0.04314 0.0
C148 C 0.5674 0.02092 0.06113 0.0
C149 C 0.58109 0.02961 0.12025 0.0
C150 C 0.57591 0.04808 0.16382 0.0
C151 C 0.55657 0.0576 0.14711 0.0
C152 C 0.54283 0.04889 0.08756 0.0
C153 C 0.5201 0.05638 0.70693 0.0
C154 C 0.55846 0.01632 0.66804 0.0
C155 C 0.49843 1.0099 0.45499 0.0
C156 C 0.48517 0.99806 0.3965 0.0
C157 C 0.48451 1.00343 0.30965 0.0
C158 C 0.47096 0.99304 0.25435 0.0
C159 C 0.45787 0.97713 0.28534 0.0
C160 C 0.45918 0.97134 0.37212 0.0
C161 C 0.47273 0.98174 0.42726 0.0
C162 C 0.51027 0.97524 0.73021 0.0
C163 C 0.47285 0.0164 0.76773 0.0
O164 O 0.54217 1.00899 0.92193 0.0
O165 O 0.5182 0.03231 0.95267 0.0
O166 O 0.51648 0.03748 0.69354 0.0
O167 O 0.52548 0.05827 0.78691 0.0
O168 O 0.55451 0.01637 0.75156 0.0
O169 O 0.54359 1.01606 0.60896 0.0
O170 O 0.48863 0.02109 0.51276 0.0
O171 O 0.5147 0.99989 0.48523 0.0
O172 O 0.51472 0.99401 0.74343 0.0
O173 O 0.50449 0.97363 0.65066 0.0
O174 O 0.47701 0.01719 0.68446 0.0
O175 O 0.48754 1.01545 0.82757 0.0
H176 H 0.57193 1.00664 0.02904 0.0
H177 H 0.596 0.02205 0.13024 0.0
H178 H 0.55204 0.07173 0.18016 0.0
H179 H 0.52801 0.05651 0.07634 0.0
H180 H 0.49417 1.01593 0.28498 0.0
H181 H 0.47041 0.99773 0.18775 0.0
H182 H 0.44908 0.95941 0.39835 0.0
H183 H 0.47312 0.97742 0.49433 0.0
Sm184 Sm 0.50864 0.51943 0.79963 0.0
Sm185 Sm 0.52386 0.50997 0.62383 0.0
C186 C 0.49956 0.52198 0.96478 0.0
C187 C 0.48739 0.53589 0.01974 0.0
C188 C 0.47982 0.55483 0.98743 0.0
C189 C 0.46902 0.5685 0.0407 0.0
C190 C 0.46545 0.56343 0.12726 0.0
C191 C 0.47252 0.54406 0.15855 0.0
C192 C 0.48344 0.53039 0.10504 0.0
C193 C 0.47779 0.52108 0.67712 0.0
C194 C 0.51558 0.55909 0.67923 0.0
C195 C 0.53293 0.50751 0.45865 0.0
C196 C 0.54521 0.49371 0.40373 0.0
C197 C 0.55305 0.4749 0.43626 0.0
C198 C 0.56391 0.46128 0.383 0.0
C199 C 0.56726 0.46628 0.29623 0.0
C200 C 0.55998 0.48555 0.26476 0.0
C201 C 0.549 0.49916 0.31827 0.0
C202 C 0.55475 0.50835 0.74623 0.0
C203 C 0.51698 0.47035 0.74428 0.0
O204 O 0.51639 0.53 0.93084 0.0
O205 O 0.48881 0.51086 0.91062 0.0
O206 O 0.49189 0.50736 0.68139 0.0
O207 O 0.47902 0.53392 0.74087 0.0
O208 O 0.5161 0.55323 0.76024 0.0
O209 O 0.51504 0.54506 0.61744 0.0
O210 O 0.51616 0.49935 0.49261 0.0
O211 O 0.5436 0.51869 0.51283 0.0
O212 O 0.54066 0.52209 0.74196 0.0
O213 O 0.55349 0.49552 0.6824 0.0
O214 O 0.51625 0.4762 0.66329 0.0
O215 O 0.51765 0.48437 0.80607 0.0
H216 H 0.48271 0.55924 0.92149 0.0
H217 H 0.46425 0.58344 0.0147 0.0
H218 H 0.46992 0.53963 0.2246 0.0
H219 H 0.48907 0.51569 0.13058 0.0
H220 H 0.5503 0.47054 0.50235 0.0
H221 H 0.56886 0.44642 0.40915 0.0
H222 H 0.56241 0.48992 0.19853 0.0
H223 H 0.54317 0.51377 0.29259 0.0
Sm224 Sm 1.00814 0.50974 0.821 0.0
Sm225 Sm 0.02317 0.52287 0.62196 0.0
C226 C 0.99671 0.50921 0.98311 0.0
C227 C 0.98157 0.49768 0.03573 0.0
C228 C 0.96189 0.4926 0.00298 0.0
C229 C 0.94746 0.48203 0.05367 0.0
C230 C 0.95246 0.47598 0.13791 0.0
C231 C 0.97236 0.4808 0.17002 0.0
C232 C 0.98677 0.4916 0.11931 0.0
C233 C 1.01077 0.47579 0.7097 0.0
C234 C 0.97293 0.5165 0.67076 0.0
C235 C 0.03303 0.52258 0.45802 0.0
C236 C 0.0462 0.5346 0.3995 0.0
C237 C 0.05863 0.55087 0.43035 0.0
C238 C 0.0721 0.56145 0.37516 0.0
C239 C 0.07335 0.55589 0.28823 0.0
C240 C 0.06027 0.54003 0.25715 0.0
C241 C 0.04679 0.52946 0.31251 0.0
C242 C 0.02113 0.55683 0.73308 0.0
C243 C 0.05823 0.51575 0.77196 0.0
O244 O 0.98891 0.52224 0.92647 0.0
O245 O 1.01259 0.4984 0.9542 0.0
O246 O 1.01481 0.49463 0.69653 0.0
O247 O 1.00501 0.47398 0.78918 0.0
O248 O 0.97679 0.51661 0.75428 0.0
O249 O 0.98784 0.51629 0.6118 0.0
O250 O 0.04289 0.51137 0.5157 0.0
O251 O 0.0167 0.53244 0.4884 0.0
O252 O 0.01618 0.53816 0.74573 0.0
O253 O 0.02754 0.5584 0.65428 0.0
O254 O 0.05422 0.51475 0.68864 0.0
O255 O 0.04343 0.51687 0.83138 0.0
H256 H 0.95755 0.49701 0.93843 0.0
H257 H 0.93217 0.47903 0.02717 0.0
H258 H 0.97683 0.47621 0.23416 0.0
H259 H 1.00197 0.49527 0.14543 0.0
H260 H 0.0583 0.55502 0.49752 0.0
H261 H 0.0822 0.57334 0.40145 0.0
H262 H 0.06076 0.53552 0.19044 0.0
H263 H 0.03713 0.51701 0.28776 0.0
C264 C 0.20999 1.01305 0.23116 0.0
C265 C 0.21068 0.99852 0.16425 0.0
C266 C 0.19169 1.01581 0.27892 0.0
C267 C 0.14338 0.9874 0.33722 0.0
H268 H 0.12705 0.0405 0.4351 0.0
C269 C 0.08537 0.99308 0.61817 0.0
C270 C 0.07092 1.00956 0.61903 0.0
C271 C 0.10114 0.99233 0.55646 0.0
C272 C 0.13125 0.02558 0.40758 0.0
H273 H 0.19279 0.97622 0.0918 0.0
H274 H 0.16064 0.98118 0.17364 0.0
H275 H 0.15652 0.03891 0.33637 0.0
H276 H 0.06153 0.03812 0.55542 0.0
H277 H 0.0891 0.03682 0.44693 0.0
H278 H 0.11806 0.97408 0.40777 0.0
C279 C 0.17427 0.99017 0.19097 0.0
C280 C 0.14832 0.02462 0.35166 0.0
C281 C 0.19258 0.98739 0.14366 0.0
C282 C 0.07246 0.02523 0.55629 0.0
C283 C 0.08833 0.02453 0.49454 0.0
C284 C 0.12635 0.98835 0.39305 0.0
C285 C 0.17367 1.00408 0.26055 0.0
C286 C 0.15476 1.00547 0.31634 0.0
C287 C 0.10292 1.00808 0.49396 0.0
C288 C 0.1202 1.0074 0.42991 0.0
H289 H 0.22388 0.02159 0.2487 0.0
H290 H 0.19195 0.02649 0.33247 0.0
H291 H 0.14793 0.97232 0.31225 0.0
H292 H 0.08459 0.98076 0.66567 0.0
H293 H 0.11223 0.97958 0.55889 0.0
C294 C 0.54574 0.19744 0.18678 0.0
C295 C 0.53039 0.21303 0.18201 0.0
C296 C 0.54256 0.17943 0.23601 0.0
C297 C 0.51166 0.16049 0.42088 0.0
H298 H 0.53541 0.10694 0.35873 0.0
C299 C 0.52264 0.09425 0.6689 0.0
C300 C 0.51944 0.07354 0.643 0.0
C301 C 0.52243 0.11058 0.60911 0.0
C302 C 0.52846 0.12169 0.3769 0.0
H303 H 0.49945 0.22183 0.22288 0.0
H304 H 0.49352 0.19011 0.30769 0.0
H305 H 0.53692 0.13596 0.25772 0.0
H306 H 0.51377 0.05365 0.53389 0.0
H307 H 0.51303 0.08213 0.42926 0.0
H308 H 0.50303 0.1462 0.53967 0.0
C309 C 0.5082 0.19188 0.27435 0.0
C310 C 0.52954 0.13846 0.31917 0.0
C311 C 0.51143 0.20992 0.22493 0.0
C312 C 0.51606 0.06947 0.55584 0.0
C313 C 0.51585 0.08581 0.49582 0.0
C314 C 0.51058 0.14374 0.47854 0.0
C315 C 0.52389 0.17654 0.2819 0.0
C316 C 0.52138 0.15819 0.34067 0.0
C317 C 0.51903 0.10663 0.52162 0.0
C318 C 0.51919 0.12415 0.45792 0.0
H319 H 0.56047 0.1995 0.15407 0.0
H320 H 0.55512 0.16818 0.24069 0.0
H321 H 0.50538 0.17543 0.44039 0.0
H322 H 0.52543 0.09787 0.73557 0.0
H323 H 0.52533 0.12629 0.63147 0.0
C324 C 0.32128 0.52026 0.22958 0.0
C325 C 0.32052 0.53499 0.16314 0.0
C326 C 0.33968 0.51727 0.27646 0.0
C327 C 0.38828 0.5452 0.33341 0.0
H328 H 0.40447 0.49168 0.42893 0.0
C329 C 0.44666 0.53832 0.61206 0.0
C330 C 0.46114 0.52187 0.61154 0.0
C331 C 0.43074 0.53928 0.55113 0.0
C332 C 0.40031 0.50671 0.40204 0.0
H333 H 0.33835 0.55744 0.09062 0.0
H334 H 0.37065 0.55207 0.17091 0.0
H335 H 0.37481 0.49377 0.3314 0.0
H336 H 0.47047 0.49359 0.54615 0.0
H337 H 0.44257 0.49522 0.43919 0.0
H338 H 0.41383 0.55813 0.40338 0.0
C339 C 0.35702 0.5431 0.18856 0.0
C340 C 0.38313 0.50795 0.34683 0.0
C341 C 0.33862 0.54612 0.14214 0.0
C342 C 0.45946 0.50641 0.5483 0.0
C343 C 0.44343 0.50731 0.48734 0.0
C344 C 0.40541 0.54395 0.38851 0.0
C345 C 0.35771 0.52895 0.25762 0.0
C346 C 0.37674 0.52726 0.31245 0.0
C347 C 0.42886 0.52377 0.48804 0.0
C348 C 0.4115 0.52475 0.42455 0.0
H349 H 0.30739 0.51172 0.24742 0.0
H350 H 0.33948 0.50642 0.32967 0.0
H351 H 0.38377 0.56039 0.30913 0.0
H352 H 0.44756 0.55049 0.65992 0.0
H353 H 0.41966 0.55201 0.55452 0.0
C354 C 0.98323 0.33569 0.19097 0.0
C355 C 0.99675 0.31847 0.19488 0.0
C356 C 0.98724 0.3537 0.23864 0.0
C357 C 0.01612 0.37075 0.43192 0.0
H358 H 0.99803 0.42571 0.35863 0.0
C359 C 1.00625 0.43823 0.67202 0.0
C360 C 1.01113 0.45864 0.6462 0.0
C361 C 1.00624 0.42184 0.61304 0.0
C362 C 1.00343 0.41055 0.37996 0.0
H363 H 0.02549 0.30684 0.24901 0.0
H364 H 0.03306 0.33857 0.33023 0.0
H365 H 0.99608 0.39649 0.25953 0.0
H366 H 0.01961 0.47795 0.53802 0.0
H367 H 0.0201 0.44928 0.43478 0.0
H368 H 0.02383 0.38483 0.5517 0.0
C369 C 0.01904 0.33806 0.29183 0.0
C370 C 1.00206 0.39367 0.32328 0.0
C371 C 1.01492 0.31997 0.24437 0.0
C372 C 0.01598 0.46235 0.55987 0.0
C373 C 0.01605 0.44591 0.50063 0.0
C374 C 0.01759 0.38762 0.48834 0.0
C375 C 1.005 0.35503 0.29124 0.0
C376 C 1.0081 0.37344 0.34882 0.0
C377 C 1.0112 0.42538 0.52644 0.0
C378 C 1.01095 0.40772 0.4638 0.0
H379 H 0.96919 0.33492 0.15281 0.0
H380 H 0.97591 0.36623 0.23682 0.0
H381 H 0.02073 0.35545 0.45468 0.0
H382 H 1.00228 0.43489 0.73804 0.0
H383 H 1.00198 0.40641 0.63534 0.0
C384 C 0.83589 0.04314 0.25341 0.0
C385 C 0.81744 0.03199 0.23856 0.0
C386 C 0.85344 0.04007 0.20167 0.0
C387 C 0.8683 0.01954 0.98703 0.0
H388 H 0.92437 0.02726 0.07315 0.0
C389 C 0.9382 0.0288 0.75764 0.0
C390 C 0.95763 0.0206 0.78176 0.0
C391 C 0.92152 0.02907 0.81536 0.0
C392 C 0.90886 0.02479 0.04794 0.0
H393 H 0.80304 1.00847 0.15945 0.0
H394 H 0.83389 1.00224 0.07147 0.0
H395 H 0.89502 0.02843 0.17165 0.0
H396 H 0.97478 1.00605 0.88495 0.0
H397 H 0.94558 1.00596 0.98552 0.0
H398 H 0.88213 1.01523 0.8639 0.0
C399 C 0.83476 1.01383 0.12157 0.0
C400 C 0.89192 0.02576 0.1045 0.0
C401 C 0.81713 0.01711 0.17285 0.0
C402 C 0.96002 1.01256 0.86481 0.0
C403 C 0.94326 1.01264 0.92255 0.0
C404 C 0.88523 0.01837 0.93071 0.0
C405 C 0.85308 0.02556 0.13405 0.0
C406 C 0.87134 0.02337 0.0748 0.0
C407 C 0.92374 0.02092 0.89868 0.0
C408 C 0.90577 0.02123 0.95999 0.0
H409 H 0.83656 0.05456 0.30423 0.0
H410 H 0.86706 0.0496 0.21316 0.0
H411 H 0.85277 0.01789 0.96099 0.0
H412 H 0.93591 0.03524 0.69419 0.0
H413 H 0.90696 0.03599 0.79477 0.0
C414 C 0.5167 0.82214 0.20825 0.0
C415 C 0.49774 0.81764 0.24929 0.0
C416 C 0.51899 0.84053 0.16 0.0
C417 C 0.48724 0.87772 0.03639 0.0
H418 H 0.53673 0.91235 0.03388 0.0
C419 C 0.50303 0.93809 0.76914 0.0
C420 C 0.50972 0.95804 0.79405 0.0
C421 C 0.50201 0.92172 0.82847 0.0
C422 C 0.52277 0.90289 0.03421 0.0
H423 H 0.4668 0.82925 0.27606 0.0
H424 H 0.47061 0.8612 0.19149 0.0
H425 H 0.53448 0.88276 0.13345 0.0
H426 H 0.52039 0.97645 0.90105 0.0
H427 H 0.51911 0.9477 0.00487 0.0
H428 H 0.4756 0.89757 0.93673 0.0
C429 C 0.48366 0.85049 0.19552 0.0
C430 C 0.52154 0.88585 0.09076 0.0
C431 C 0.48146 0.83226 0.24411 0.0
C432 C 0.51548 0.96122 0.87973 0.0
C433 C 0.51472 0.94474 0.93911 0.0
C434 C 0.48858 0.89452 0.97925 0.0
C435 C 0.50229 0.85468 0.1513 0.0
C436 C 0.50373 0.87307 0.09258 0.0
C437 C 0.50784 0.92481 0.91424 0.0
C438 C 0.50637 0.90729 0.97717 0.0
H439 H 0.52939 0.811 0.21037 0.0
H440 H 0.53351 0.8432 0.12638 0.0
H441 H 0.47338 0.8681 0.03537 0.0
H442 H 0.49847 0.93511 0.70359 0.0
H443 H 0.49682 0.90654 0.80694 0.0
C444 C 0.694 0.49327 0.28447 0.0
C445 C 0.71343 0.50084 0.25752 0.0
C446 C 0.67634 0.49569 0.2327 0.0
C447 C 0.66168 0.50362 0.00616 0.0
H448 H 0.60665 0.51445 0.09881 0.0
C449 C 0.58766 0.49284 0.80324 0.0
C450 C 0.57205 0.50816 0.80897 0.0
C451 C 0.60441 0.4927 0.86036 0.0
C452 C 0.62194 0.51158 0.07185 0.0
H453 H 0.72972 0.51721 0.15682 0.0
H454 H 0.69888 0.52188 0.06651 0.0
H455 H 0.63684 0.51386 0.19426 0.0
H456 H 0.56147 0.53511 0.88032 0.0
H457 H 0.59086 0.53493 0.98054 0.0
H458 H 0.6469 0.50149 0.88387 0.0
C459 C 0.69722 0.5138 0.12707 0.0
C460 C 0.63923 0.51103 0.12668 0.0
C461 C 0.71484 0.51137 0.17896 0.0
C462 C 0.57332 0.52315 0.87424 0.0
C463 C 0.59009 0.52297 0.93184 0.0
C464 C 0.64444 0.5041 0.95156 0.0
C465 C 0.67778 0.50573 0.15265 0.0
C466 C 0.65933 0.50699 0.09454 0.0
C467 C 0.60597 0.50786 0.92497 0.0
C468 C 0.62432 0.50796 0.98363 0.0
H469 H 0.69259 0.48522 0.34518 0.0
H470 H 0.66171 0.48913 0.25428 0.0
H471 H 0.67684 0.5002 0.97913 0.0
H472 H 0.58702 0.48096 0.75412 0.0
H473 H 0.61612 0.48061 0.8541 0.0
C474 C 0.01687 0.71234 0.1905 0.0
C475 C 0.03361 0.71427 0.24777 0.0
C476 C 1.01424 0.69401 0.14269 0.0
C477 C 0.04516 0.65097 0.05354 0.0
H478 H 0.99186 0.62471 0.009 0.0
C479 C 0.03284 0.59227 0.77831 0.0
C480 C 0.02196 0.57382 0.79724 0.0
C481 C 0.03385 0.60852 0.83781 0.0
C482 C 1.00687 0.63181 0.02128 0.0
H483 H 0.06001 0.69828 0.30342 0.0
H484 H 0.0557 0.66639 0.21937 0.0
H485 H 0.99379 0.6545 0.10699 0.0
H486 H 1.00334 0.5581 0.89281 0.0
H487 H 1.00478 0.58667 0.99694 0.0
H488 H 0.05821 0.62859 0.96699 0.0
C489 C 0.0447 0.67906 0.21057 0.0
C490 C 1.00794 0.64895 0.07685 0.0
C491 C 0.04717 0.69726 0.25875 0.0
C492 C 1.01192 0.57205 0.87679 0.0
C493 C 1.01265 0.58847 0.93606 0.0
C494 C 0.04403 0.63407 0.99721 0.0
C495 C 0.02844 0.67734 0.15069 0.0
C496 C 0.02712 0.65875 0.09357 0.0
C497 C 0.02374 0.60686 0.91735 0.0
C498 C 0.02488 0.62433 0.98006 0.0
H499 H 1.00637 0.72534 0.18009 0.0
H500 H 1.00164 0.69326 0.09674 0.0
H501 H 0.06014 0.65825 0.06429 0.0
H502 H 0.04072 0.59414 0.71745 0.0
H503 H 0.04234 0.62255 0.82104 0.0
C504 C 0.96473 0.23895 0.21234 0.0
C505 C 0.96017 0.25214 0.14347 0.0
C506 C 0.95493 0.21966 0.21962 0.0
C507 C 0.93696 0.17894 0.08237 0.0
H508 H 0.92571 0.15204 0.29985 0.0
C509 C 0.96828 0.09986 0.18236 0.0
C510 C 0.95768 0.08799 0.24435 0.0
C511 C 0.95945 0.11817 0.15004 0.0
C512 C 0.92826 0.15925 0.23797 0.0
H513 H 0.94115 0.25657 0.031 0.0
H514 H 0.92419 0.2222 0.0418 0.0
H515 H 0.9258 0.18995 0.29069 0.0
H516 H 0.92836 0.0845 0.31201 0.0
H517 H 0.91315 0.1168 0.25694 0.0
H518 H 0.94118 0.1482 0.03128 0.0
C519 C 0.93518 0.22688 0.09065 0.0
C520 C 0.92844 0.18098 0.233 0.0
C521 C 0.94478 0.24643 0.08444 0.0
C522 C 0.93717 0.09364 0.26621 0.0
C523 C 0.92839 0.11205 0.23434 0.0
C524 C 0.9371 0.15715 0.08757 0.0
C525 C 0.94058 0.21311 0.15726 0.0
C526 C 0.93394 0.191 0.15633 0.0
C527 C 0.9399 0.12503 0.17941 0.0
C528 C 0.93377 0.14714 0.1665 0.0
H529 H 0.97675 0.24318 0.2577 0.0
H530 H 0.9597 0.20927 0.27082 0.0
H531 H 0.94102 0.1863 0.02223 0.0
H532 H 0.98412 0.09605 0.16412 0.0
H533 H 0.96879 0.12789 0.10814 0.0
C534 C 0.28732 0.96254 0.17419 0.0
C535 C 0.27648 0.96263 0.09657 0.0
C536 C 0.30747 0.95447 0.17834 0.0
C537 C 0.35239 0.95297 0.04198 0.0
H538 H 0.37793 0.92893 0.24422 0.0
C539 C 0.43608 0.94688 0.23638 0.0
C540 C 0.44134 0.96812 0.23042 0.0
C541 C 0.41803 0.93935 0.19719 0.0
C542 C 0.37121 0.93518 0.186 0.0
H543 H 0.27696 0.95284 0.96458 0.0
H544 H 0.31265 0.93896 0.97073 0.0
H545 H 0.34051 0.92584 0.22346 0.0
H546 H 0.43258 0.9978 0.17364 0.0
H547 H 0.40115 0.98483 0.10679 0.0
H548 H 0.38292 0.96324 0.00652 0.0
C549 C 0.30559 0.94508 0.02842 0.0
C550 C 0.34971 0.93354 0.1746 0.0
C551 C 0.28525 0.95289 0.02486 0.0
C552 C 0.42909 0.98131 0.17899 0.0
C553 C 0.41105 0.97383 0.1402 0.0
C554 C 0.37392 0.9546 0.05331 0.0
C555 C 0.31716 0.94657 0.10444 0.0
C556 C 0.34 0.94325 0.10459 0.0
C557 C 0.40486 0.95296 0.15159 0.0
C558 C 0.38341 0.94659 0.12756 0.0
H559 H 0.28081 0.97029 0.22963 0.0
H560 H 0.31606 0.95608 0.2376 0.0
H561 H 0.34532 0.96076 0.98764 0.0
H562 H 0.44546 0.93625 0.27425 0.0
H563 H 0.41388 0.92311 0.2059 0.0
C564 C 0.55087 0.29712 0.18217 0.0
C565 C 0.56046 0.28262 0.12828 0.0
C566 C 0.557 0.31792 0.18047 0.0
C567 C 0.59693 0.35539 0.1237 0.0
H568 H 0.54901 0.392 0.10234 0.0
C569 C 0.59154 0.43642 0.2673 0.0
C570 C 0.57608 0.45025 0.23797 0.0
C571 C 0.59541 0.41779 0.22408 0.0
C572 C 0.56272 0.38216 0.10607 0.0
H573 H 0.58455 0.27769 0.03401 0.0
H574 H 0.59583 0.31447 0.03191 0.0
H575 H 0.54432 0.35461 0.09368 0.0
H576 H 0.5549 0.45689 0.13304 0.0
H577 H 0.56225 0.4248 0.05606 0.0
H578 H 0.61522 0.38307 0.14005 0.0
C579 C 0.58356 0.3097 0.07534 0.0
C580 C 0.55993 0.36067 0.10237 0.0
C581 C 0.5773 0.28877 0.07697 0.0
C582 C 0.56675 0.4465 0.15812 0.0
C583 C 0.57082 0.42797 0.11428 0.0
C584 C 0.59975 0.37703 0.12815 0.0
C585 C 0.57285 0.32454 0.12466 0.0
C586 C 0.57683 0.3471 0.11463 0.0
C587 C 0.58404 0.41275 0.15012 0.0
C588 C 0.58251 0.39062 0.12286 0.0
H589 H 0.53765 0.29255 0.22099 0.0
H590 H 0.54873 0.32904 0.22012 0.0
H591 H 0.61022 0.34516 0.13251 0.0
H592 H 0.59949 0.43921 0.32728 0.0
H593 H 0.60581 0.40655 0.25346 0.0
C594 C 0.24385 0.571 0.1755 0.0
C595 C 0.25464 0.57108 0.09772 0.0
C596 C 0.22369 0.57904 0.18007 0.0
C597 C 0.1787 0.58079 0.04421 0.0
H598 H 0.15319 0.60429 0.24719 0.0
C599 C 0.10204 0.55204 0.18121 0.0
C600 C 0.08982 0.56507 0.23319 0.0
C601 C 0.12007 0.55965 0.14237 0.0
C602 C 0.15991 0.59819 0.18878 0.0
H603 H 0.25407 0.58114 0.96586 0.0
H604 H 0.21838 0.59499 0.97276 0.0
H605 H 0.1906 0.60747 0.22616 0.0
H606 H 0.08569 0.59682 0.27788 0.0
H607 H 0.11724 0.61018 0.20945 0.0
H608 H 0.14817 0.57059 0.00879 0.0
C609 C 0.22548 0.58875 0.03026 0.0
C610 C 0.1814 0.59988 0.17723 0.0
C611 C 0.24582 0.58095 0.02628 0.0
C612 C 0.09506 0.58631 0.23961 0.0
C613 C 0.11309 0.59395 0.20037 0.0
C614 C 0.15718 0.57911 0.05569 0.0
C615 C 0.21395 0.58708 0.10642 0.0
C616 C 0.19111 0.59037 0.10691 0.0
C617 C 0.12625 0.58048 0.15426 0.0
C618 C 0.1477 0.58693 0.13019 0.0
H619 H 0.2504 0.56313 0.23073 0.0
H620 H 0.21514 0.57729 0.23942 0.0
H621 H 0.18577 0.57314 0.98964 0.0
H622 H 0.09856 0.53557 0.17547 0.0
H623 H 0.12994 0.54874 0.1085 0.0
C624 C 0.07739 0.78931 0.3904 0.0
C625 C 0.06775 0.78119 0.3173 0.0
C626 C 0.08534 0.8096 0.38965 0.0
C627 C 0.09832 0.85433 0.24868 0.0
H628 H 0.07037 0.8877 0.42091 0.0
C629 C 0.08916 0.94147 0.19466 0.0
C630 C 0.0682 0.94769 0.20075 0.0
C631 C 0.09589 0.92298 0.23348 0.0
C632 C 0.07853 0.87863 0.37298 0.0
H633 H 0.05996 0.78684 0.18505 0.0
H634 H 0.0744 0.82207 0.18198 0.0
H635 H 0.07101 0.84979 0.43502 0.0
H636 H 0.03831 0.94037 0.25815 0.0
H637 H 0.04986 0.90815 0.32428 0.0
H638 H 0.10432 0.88285 0.18266 0.0
C639 C 0.07592 0.81293 0.24006 0.0
C640 C 0.07909 0.85692 0.38155 0.0
C641 C 0.06772 0.79281 0.24141 0.0
C642 C 0.05459 0.93607 0.25258 0.0
C643 C 0.06127 0.91757 0.29091 0.0
C644 C 0.09775 0.87599 0.24003 0.0
C645 C 0.08403 0.82184 0.31511 0.0
C646 C 0.08819 0.84454 0.31743 0.0
C647 C 0.08174 0.91031 0.27858 0.0
C648 C 0.08701 0.88832 0.30003 0.0
H649 H 0.07745 0.78045 0.44946 0.0
H650 H 0.09159 0.81607 0.4482 0.0
H651 H 0.10558 0.84514 0.19875 0.0
H652 H 0.1001 0.95038 0.15651 0.0
H653 H 0.11188 0.91804 0.22432 0.0
C654 C 0.74333 0.07449 0.26139 0.0
C655 C 0.7543 0.0695 0.33602 0.0
C656 C 0.72318 0.08257 0.26654 0.0
C657 C 0.67924 0.07639 0.41167 0.0
H658 H 0.65088 0.10329 0.22254 0.0
C659 C 0.59504 0.0794 0.2197 0.0
C660 C 0.59134 0.05779 0.22227 0.0
C661 C 0.61228 0.08789 0.26171 0.0
C662 C 0.65831 0.09617 0.2775 0.0
H663 H 0.75409 0.07082 0.47392 0.0
H664 H 0.71897 0.0856 0.48381 0.0
H665 H 0.68795 0.10864 0.24167 0.0
H666 H 0.60133 0.02856 0.27934 0.0
H667 H 0.63177 0.04299 0.34854 0.0
H668 H 0.6497 0.06359 0.44672 0.0
C669 C 0.72567 0.08297 0.42116 0.0
C670 C 0.67972 0.09905 0.28773 0.0
C671 C 0.74582 0.07479 0.41573 0.0
C672 C 0.60409 0.04519 0.27411 0.0
C673 C 0.62142 0.0536 0.3152 0.0
C674 C 0.65778 0.07372 0.40217 0.0
C675 C 0.71367 0.08581 0.34671 0.0
C676 C 0.69064 0.08816 0.35171 0.0
C677 C 0.62627 0.07491 0.30643 0.0
C678 C 0.64728 0.08254 0.33184 0.0
H679 H 0.74949 0.07005 0.19953 0.0
H680 H 0.71444 0.08427 0.20772 0.0
H681 H 0.68705 0.06779 0.46196 0.0
H682 H 0.58545 0.08959 0.18076 0.0
H683 H 0.61525 0.10445 0.25527 0.0
C684 C 0.45333 0.74059 0.35116 0.0
C685 C 0.47048 0.74673 0.30154 0.0
C686 C 0.44721 0.71962 0.35306 0.0
C687 C 0.47119 0.66864 0.33105 0.0
H688 H 0.41652 0.64607 0.28174 0.0
C689 C 0.46545 0.58293 0.2662 0.0
C690 C 0.45649 0.5794 0.18547 0.0
C691 C 0.4611 0.6013 0.31079 0.0
C692 C 0.43183 0.65214 0.29671 0.0
H693 H 0.49407 0.73669 0.21241 0.0
H694 H 0.48333 0.70009 0.21407 0.0
H695 H 0.42124 0.68396 0.29159 0.0
H696 H 0.43345 0.59067 0.09499 0.0
H697 H 0.4267 0.62305 0.16997 0.0
H698 H 0.48233 0.63739 0.33105 0.0
C699 C 0.47467 0.71127 0.25203 0.0
C700 C 0.43446 0.67379 0.30264 0.0
C701 C 0.48063 0.73212 0.2499 0.0
C702 C 0.44114 0.5933 0.15567 0.0
C703 C 0.43702 0.61177 0.1996 0.0
C704 C 0.46859 0.64714 0.32543 0.0
C705 C 0.45841 0.70471 0.30592 0.0
C706 C 0.45438 0.68215 0.31581 0.0
C707 C 0.44798 0.61659 0.27486 0.0
C708 C 0.44908 0.63862 0.30418 0.0
H709 H 0.44565 0.75176 0.39246 0.0
H710 H 0.43462 0.71488 0.39494 0.0
H711 H 0.48663 0.67478 0.3428 0.0
H712 H 0.47718 0.57247 0.29169 0.0
H713 H 0.46934 0.60426 0.36999 0.0
C714 C 0.78455 0.45532 0.29859 0.0
C715 C 0.77575 0.46477 0.37087 0.0
C716 C 0.80446 0.44654 0.30299 0.0
C717 C 0.84814 0.4286 0.33069 0.0
H718 H 0.88087 0.47649 0.39953 0.0
C719 C 0.92215 0.45167 0.15566 0.0
C720 C 0.93648 0.46558 0.1923 0.0
C721 C 0.90496 0.44467 0.20208 0.0
C722 C 0.87236 0.46256 0.38218 0.0
H723 H 0.77947 0.47049 0.50604 0.0
H724 H 0.81458 0.45552 0.51386 0.0
H725 H 0.84467 0.47426 0.44064 0.0
H726 H 0.94498 0.48139 0.30988 0.0
H727 H 0.91565 0.46826 0.39238 0.0
H728 H 0.87576 0.4169 0.27117 0.0
C729 C 0.80612 0.45475 0.45401 0.0
C730 C 0.85143 0.46137 0.40573 0.0
C731 C 0.78608 0.46322 0.44972 0.0
C732 C 0.93423 0.47077 0.27923 0.0
C733 C 0.91719 0.46343 0.32634 0.0
C734 C 0.86926 0.42949 0.30879 0.0
C735 C 0.81591 0.44737 0.37957 0.0
C736 C 0.83886 0.44499 0.3763 0.0
C737 C 0.90181 0.45102 0.28726 0.0
C738 C 0.88134 0.44711 0.32984 0.0
H739 H 0.77698 0.45668 0.23694 0.0
H740 H 0.81167 0.44116 0.24436 0.0
H741 H 0.83882 0.41565 0.30811 0.0
H742 H 0.92371 0.44683 0.08962 0.0
H743 H 0.89355 0.4353 0.16883 0.0
C744 C 1.01479 0.23797 0.06902 0.0
C745 C 0.99822 0.25035 0.03916 0.0
C746 C 0.01852 0.21817 0.03355 0.0
C747 C 0.9902 0.1749 0.94508 0.0
H748 H 0.04169 0.15481 0.84461 0.0
C749 C 1.0056 0.08754 0.87096 0.0
C750 C 1.01291 0.08297 0.78814 0.0
C751 C 1.00457 0.10817 0.90009 0.0
C752 C 0.02721 0.16024 0.87248 0.0
H753 H 0.9735 0.25249 0.94595 0.0
H754 H 0.97941 0.21763 0.88616 0.0
H755 H 0.03944 0.19091 0.8973 0.0
H756 H 0.0251 0.09664 0.67146 0.0
H757 H 0.02377 0.13273 0.72334 0.0
H758 H 0.97802 0.14426 0.92249 0.0
C759 C 0.98956 0.22319 0.93653 0.0
C760 C 0.02598 0.18082 0.90296 0.0
C761 C 0.98618 0.24307 0.97057 0.0
C762 C 0.01932 0.0996 0.7354 0.0
C763 C 0.01869 0.12025 0.76528 0.0
C764 C 0.99155 0.15425 0.91655 0.0
C765 C 1.00548 0.21034 0.96879 0.0
C766 C 1.00737 0.1884 0.93874 0.0
C767 C 1.01122 0.12477 0.84785 0.0
C768 C 1.01001 0.14671 0.8792 0.0
H769 H 0.02409 0.24318 0.1226 0.0
H770 H 0.03087 0.20854 0.05972 0.0
H771 H 0.97575 0.18033 0.97283 0.0
H772 H 1.00047 0.07515 0.91326 0.0
H773 H 0.99879 0.11114 0.96408 0.0
C774 C 0.28601 0.99751 0.93914 0.0
C775 C 0.27985 1.00415 0.02061 0.0
C776 C 0.30639 1.00079 0.91024 0.0
C777 C 0.35982 1.01331 0.99323 0.0
H778 H 0.3727 1.01493 0.75124 0.0
C779 C 0.44502 1.00652 0.87343 0.0
C780 C 0.4507 0.0161 0.79585 0.0
C781 C 0.42415 1.00599 0.8999 0.0
C782 C 0.36955 1.01487 0.81924 0.0
H783 H 0.28959 0.0204 0.13438 0.0
H784 H 0.32485 0.02769 0.08222 0.0
H785 H 0.33673 1.01461 0.79712 0.0
H786 H 0.4389 0.03303 0.68607 0.0
H787 H 0.40279 0.0332 0.73382 0.0
H788 H 0.39261 1.01507 0.01537 0.0
C789 C 0.31434 0.01909 0.04133 0.0
C790 C 0.3487 1.01426 0.84581 0.0
C791 C 0.294 1.01538 0.07078 0.0
C792 C 0.43503 0.02535 0.7458 0.0
C793 C 0.4142 0.02528 0.77319 0.0
C794 C 0.38066 1.01447 0.96668 0.0
C795 C 0.32109 1.01129 0.96151 0.0
C796 C 0.34343 1.01322 0.93326 0.0
C797 C 0.40835 1.01548 0.85053 0.0
C798 C 0.38594 1.01499 0.87915 0.0
H799 H 0.27534 0.9886 0.90002 0.0
H800 H 0.31078 0.99415 0.84927 0.0
H801 H 0.35669 1.01215 0.0611 0.0
H802 H 0.45668 0.99902 0.91314 0.0
H803 H 0.42048 0.99781 0.95863 0.0
C804 C 0.53955 0.28522 0.94046 0.0
C805 C 0.52644 0.27856 0.00701 0.0
C806 C 0.53699 0.30493 0.90311 0.0
C807 C 0.5015 0.34959 0.87137 0.0
H808 H 0.55214 0.38259 0.87413 0.0
C809 C 0.50966 0.43234 0.71373 0.0
C810 C 0.51787 0.44781 0.76777 0.0
C811 C 0.50984 0.41124 0.73867 0.0
C812 C 0.53789 0.37357 0.8726 0.0
H813 H 0.49972 0.28678 0.08386 0.0
H814 H 0.49451 0.32111 0.01583 0.0
H815 H 0.55311 0.34614 0.92064 0.0
H816 H 0.53316 0.45308 0.88955 0.0
H817 H 0.53407 0.41632 0.93141 0.0
H818 H 0.4864 0.37706 0.82177 0.0
C819 C 0.50689 0.31108 0.99288 0.0
C820 C 0.53845 0.35265 0.89888 0.0
C821 C 0.50969 0.29138 0.03119 0.0
C822 C 0.52661 0.44161 0.84645 0.0
C823 C 0.52722 0.42053 0.87041 0.0
C824 C 0.50105 0.37042 0.84292 0.0
C825 C 0.52102 0.31838 0.93062 0.0
C826 C 0.52025 0.34043 0.89933 0.0
C827 C 0.5187 0.40509 0.81721 0.0
C828 C 0.51921 0.3827 0.84393 0.0
H829 H 0.55272 0.27568 0.92171 0.0
H830 H 0.548 0.30998 0.85478 0.0
H831 H 0.48724 0.34058 0.87081 0.0
H832 H 0.50276 0.43659 0.6529 0.0
H833 H 0.50327 0.39968 0.69611 0.0
C834 C 0.23717 0.51827 0.07228 0.0
C835 C 0.25117 0.52967 0.02171 0.0
C836 C 0.21682 0.51448 0.04346 0.0
C837 C 0.18226 0.51909 0.84887 0.0
H838 H 0.13849 0.51804 0.01933 0.0
C839 C 0.09608 0.50689 0.75085 0.0
C840 C 0.08034 0.51616 0.80039 0.0
C841 C 0.11689 0.50719 0.77811 0.0
C842 C 0.15039 0.51868 0.97041 0.0
H843 H 0.25539 0.54546 0.90111 0.0
H844 H 0.21991 0.53974 0.8514 0.0
H845 H 0.17444 0.5213 0.06426 0.0
H846 H 0.0742 0.53344 0.91671 0.0
H847 H 0.1104 0.53501 0.96202 0.0
H848 H 0.15819 0.5181 0.75481 0.0
C849 C 0.22444 0.53305 0.91222 0.0
C850 C 0.17124 0.52006 0.9965 0.0
C851 C 0.24483 0.53642 0.94051 0.0
C852 C 0.08592 0.52593 0.87743 0.0
C853 C 0.10678 0.52668 0.90377 0.0
C854 C 0.1614 0.51825 0.82275 0.0
C855 C 0.20991 0.52235 0.96387 0.0
C856 C 0.18757 0.52025 0.93618 0.0
C857 C 0.12266 0.51723 0.85478 0.0
C858 C 0.14506 0.51801 0.88299 0.0
H859 H 0.24172 0.51316 0.13568 0.0
H860 H 0.20642 0.50575 0.0846 0.0
H861 H 0.19419 0.51883 0.79998 0.0
H862 H 0.09227 0.49907 0.69155 0.0
H863 H 0.12837 0.49928 0.73913 0.0
C864 C 0.01619 0.79767 0.3484 0.0
C865 C 0.02676 0.78273 0.39762 0.0
C866 C 1.01269 0.81781 0.38049 0.0
C867 C 0.01644 0.85041 0.58065 0.0
H868 H 0.01974 0.89563 0.41646 0.0
C869 C 1.00592 0.93683 0.68537 0.0
C870 C 0.01632 0.95248 0.63907 0.0
C871 C 1.00611 0.91605 0.657 0.0
C872 C 0.01911 0.88331 0.46382 0.0
H873 H 0.04146 0.77668 0.5191 0.0
H874 H 0.03596 0.81176 0.57518 0.0
H875 H 0.02197 0.85992 0.36732 0.0
H876 H 0.03573 0.95839 0.52815 0.0
H877 H 0.03704 0.92232 0.48131 0.0
H878 H 1.01502 0.87381 0.6777 0.0
C879 C 0.02975 0.8081 0.51267 0.0
C880 C 0.01991 0.86261 0.43513 0.0
C881 C 0.03292 0.78791 0.48087 0.0
C882 C 0.02729 0.94678 0.56479 0.0
C883 C 0.02788 0.92598 0.53746 0.0
C884 C 0.01605 0.87112 0.60952 0.0
C885 C 0.02003 0.82358 0.46223 0.0
C886 C 0.01854 0.84577 0.49298 0.0
C887 C 0.01711 0.91023 0.58246 0.0
C888 C 0.01738 0.88798 0.55165 0.0
H889 H 1.01164 0.79405 0.28341 0.0
H890 H 1.00471 0.82899 0.34008 0.0
H891 H 1.01505 0.83804 0.62757 0.0
H892 H 0.99721 0.94072 0.74255 0.0
H893 H 0.99728 0.90465 0.69305 0.0
C894 C 0.7455 0.02324 0.4719 0.0
C895 C 0.74866 0.02594 0.38385 0.0
C896 C 0.72536 0.02014 0.50453 0.0
C897 C 0.67059 1.00749 0.4409 0.0
H898 H 0.65648 0.03741 0.64832 0.0
C899 C 0.5851 0.01816 0.54998 0.0
C900 C 0.58054 0.01685 0.638 0.0
C901 C 0.60573 0.01853 0.52085 0.0
C902 C 0.66017 0.0287 0.59099 0.0
H903 H 0.73362 0.02725 0.26061 0.0
H904 H 0.69844 0.02193 0.31656 0.0
H905 H 0.69213 0.03819 0.59482 0.0
H906 H 0.59443 1.01501 0.76426 0.0
H907 H 0.63042 1.01542 0.71336 0.0
H908 H 0.63859 0.99817 0.43656 0.0
C909 C 0.71138 0.0217 0.36092 0.0
C910 C 0.6807 0.0291 0.5603 0.0
C911 C 0.73151 0.02467 0.32856 0.0
C912 C 0.59728 1.01606 0.69608 0.0
C913 C 0.61797 0.01641 0.66682 0.0
C914 C 0.65008 1.00707 0.47162 0.0
C915 C 0.70793 0.01983 0.44964 0.0
C916 C 0.68621 0.01858 0.48454 0.0
C917 C 0.62249 0.01758 0.5787 0.0
C918 C 0.64452 0.01774 0.54694 0.0
H919 H 0.7585 0.02463 0.51562 0.0
H920 H 0.72342 0.01848 0.57302 0.0
H921 H 0.67422 0.99894 0.38312 0.0
H922 H 0.57272 0.01896 0.50303 0.0
H923 H 0.60851 0.01979 0.45272 0.0
C924 C 0.52226 0.73974 0.3939 0.0
C925 C 0.50502 0.75165 0.41972 0.0
C926 C 0.52608 0.72005 0.43061 0.0
C927 C 0.50933 0.68401 0.60893 0.0
H928 H 0.52649 0.64106 0.4497 0.0
C929 C 0.52025 0.5973 0.71472 0.0
C930 C 0.51505 0.58166 0.65554 0.0
C931 C 0.52044 0.61843 0.69021 0.0
C932 C 0.5215 0.65276 0.49517 0.0
H933 H 0.47881 0.75286 0.50586 0.0
H934 H 0.48514 0.7187 0.56975 0.0
H935 H 0.52508 0.67716 0.40272 0.0
H936 H 0.50531 0.5762 0.52459 0.0
H937 H 0.50498 0.61273 0.48296 0.0
H938 H 0.50488 0.65944 0.70029 0.0
C939 C 0.49609 0.72443 0.52258 0.0
C940 C 0.52105 0.67367 0.46846 0.0
C941 C 0.49243 0.74409 0.48628 0.0
C942 C 0.50965 0.58774 0.57182 0.0
C943 C 0.50963 0.60881 0.54762 0.0
C944 C 0.5097 0.66307 0.63558 0.0
C945 C 0.51261 0.71178 0.4936 0.0
C946 C 0.51474 0.68964 0.52456 0.0
C947 C 0.51524 0.62453 0.60604 0.0
C948 C 0.51559 0.64705 0.57888 0.0
H949 H 0.53191 0.74506 0.34139 0.0
H950 H 0.53918 0.71104 0.40744 0.0
H951 H 0.50466 0.69577 0.65469 0.0
H952 H 0.52456 0.59321 0.77961 0.0
H953 H 0.52507 0.62995 0.73704 0.0
C954 C 0.79989 0.50784 0.33765 0.0
C955 C 0.78274 0.50952 0.39291 0.0
C956 C 0.82011 0.5114 0.36763 0.0
C957 C 0.85015 0.50906 0.56863 0.0
H958 H 0.89412 0.53339 0.43091 0.0
C959 C 0.93428 0.51972 0.69799 0.0
C960 C 0.95088 0.5164 0.64079 0.0
C961 C 0.91362 0.52002 0.66875 0.0
C962 C 0.88209 0.52633 0.46997 0.0
H963 H 0.77295 0.51692 0.52129 0.0
H964 H 0.80831 0.52379 0.57414 0.0
H965 H 0.85842 0.5335 0.37778 0.0
H966 H 0.95853 0.51027 0.50782 0.0
H967 H 0.9227 0.51036 0.45759 0.0
H968 H 0.87384 0.50151 0.66006 0.0
C969 C 0.80623 0.51948 0.50776 0.0
C970 C 0.86156 0.52648 0.43954 0.0
C971 C 0.78599 0.51592 0.47749 0.0
C972 C 0.94623 0.51311 0.55383 0.0
C973 C 0.92561 0.51328 0.52475 0.0
C974 C 0.87069 0.50885 0.59895 0.0
C975 C 0.82362 0.51669 0.45381 0.0
C976 C 0.84531 0.5178 0.48832 0.0
C977 C 0.90899 0.51689 0.58161 0.0
C978 C 0.88698 0.51741 0.54995 0.0
H979 H 0.79766 0.50248 0.27265 0.0
H980 H 0.83305 0.5088 0.32447 0.0
H981 H 0.83815 0.50176 0.60712 0.0
H982 H 0.93722 0.52235 0.76532 0.0
H983 H 0.90129 0.52306 0.71439 0.0
loop_
_geom_bond_atom_site_label_1
_geom_bond_atom_site_label_2
_geom_bond_distance
_geom_bond_site_symmetry_2
_ccdc_geom_bond_type
C0 N1 1.317 . S
C0 N2 1.348 . S
C0 C3 1.485 . S
N1 C0 1.317 . S
N1 N5 1.370 . S
N2 C0 1.348 . S
N2 C4 1.346 . S
C3 C0 1.485 . S
C3 H7 0.960 . S
C3 H8 0.961 . S
C3 H9 0.960 . S
C4 N2 1.346 . S
C4 N5 1.307 . S
C4 C6 1.486 . S
N5 N1 1.370 . S
N5 C4 1.307 . S
C6 C4 1.486 . S
C6 H10 0.960 . S
C6 H11 0.960 . S
C6 H12 0.959 . S
H7 C3 0.960 . S
H8 C3 0.961 . S
H9 C3 0.960 . S
H10 C6 0.960 . S
H11 C6 0.960 . S
H12 C6 0.959 . S
C13 N14 1.317 . S
C13 N15 1.350 . S
C13 C16 1.485 . S
N14 C13 1.317 . S
N14 N18 1.371 . S
N15 C13 1.350 . S
N15 C17 1.345 1_655 S
C16 C13 1.485 . S
C16 H20 0.960 1_655 S
C16 H21 0.961 . S
C16 H22 0.960 . S
C17 N15 1.345 1_455 S
C17 N18 1.307 1_455 S
C17 C19 1.486 . S
N18 N14 1.371 . S
N18 C17 1.307 1_655 S
C19 C17 1.486 . S
C19 H23 0.925 1_455 S
C19 H24 0.989 . S
C19 H25 0.967 . S
H20 C16 0.960 1_455 S
H21 C16 0.961 . S
H22 C16 0.960 . S
H23 C19 0.925 1_655 S
H24 C19 0.989 . S
H25 C19 0.967 . S
C26 N27 1.317 . S
C26 N28 1.350 . S
C26 C29 1.485 . S
N27 C26 1.317 . S
N27 N31 1.371 . S
N28 C26 1.350 . S
N28 C30 1.345 1_565 S
C29 C26 1.485 . S
C29 H33 0.960 1_565 S
C29 H34 0.961 . S
C29 H35 0.960 . S
C30 N28 1.345 1_545 S
C30 N31 1.307 1_545 S
C30 C32 1.486 . S
N31 N27 1.371 . S
N31 C30 1.307 1_565 S
C32 C30 1.486 . S
C32 H36 0.925 1_545 S
C32 H37 0.989 . S
C32 H38 0.967 . S
H33 C29 0.960 1_545 S
H34 C29 0.961 . S
H35 C29 0.960 . S
H36 C32 0.925 1_565 S
H37 C32 0.989 . S
H38 C32 0.967 . S
C39 N40 1.317 . S
C39 N41 1.348 . S
C39 C42 1.485 . S
N40 C39 1.317 . S
N40 N44 1.370 . S
N41 C39 1.348 . S
N41 C43 1.346 . S
C42 C39 1.485 . S
C42 H46 0.960 . S
C42 H47 0.961 . S
C42 H48 0.960 . S
C43 N41 1.346 . S
C43 N44 1.307 . S
C43 C45 1.486 . S
N44 N40 1.370 . S
N44 C43 1.307 . S
C45 C43 1.486 . S
C45 H49 0.960 . S
C45 H50 0.960 . S
C45 H51 0.959 . S
H46 C42 0.960 . S
H47 C42 0.961 . S
H48 C42 0.960 . S
H49 C45 0.960 . S
H50 C45 0.960 . S
H51 C45 0.959 . S
C52 N53 1.317 . S
C52 N54 1.348 1_556 S
C52 C55 1.485 . S
N53 C52 1.317 . S
N53 N57 1.370 1_556 S
N54 C52 1.348 1_554 S
N54 C56 1.346 . S
C55 C52 1.485 . S
C55 H59 0.960 . S
C55 H60 0.961 . S
C55 H61 0.960 . S
C56 N54 1.346 . S
C56 N57 1.307 . S
C56 C58 1.486 . S
N57 N53 1.370 1_554 S
N57 C56 1.307 . S
C58 C56 1.486 . S
C58 H62 0.960 . S
C58 H63 0.960 . S
C58 H64 0.959 . S
H59 C55 0.960 . S
H60 C55 0.961 . S
H61 C55 0.960 . S
H62 C58 0.960 . S
H63 C58 0.960 . S
H64 C58 0.959 . S
C65 N66 1.317 . S
C65 N67 1.350 1_556 S
C65 C68 1.485 . S
N66 C65 1.317 . S
N66 N70 1.370 1_556 S
N67 C65 1.350 1_554 S
N67 C69 1.345 1_655 S
C68 C65 1.485 . S
C68 H72 0.960 1_655 S
C68 H73 0.961 . S
C68 H74 0.960 . S
C69 N67 1.345 1_455 S
C69 N70 1.307 1_455 S
C69 C71 1.485 . S
N70 N66 1.370 1_554 S
N70 C69 1.307 1_655 S
C71 C69 1.485 . S
C71 H75 0.913 1_455 S
C71 H76 0.999 . S
C71 H77 0.970 . S
H72 C68 0.960 1_455 S
H73 C68 0.961 . S
H74 C68 0.960 . S
H75 C71 0.913 1_655 S
H76 C71 0.999 . S
H77 C71 0.970 . S
C78 N79 1.317 . S
C78 N80 1.350 1_556 S
C78 C81 1.485 . S
N79 C78 1.317 . S
N79 N83 1.370 1_556 S
N80 C78 1.350 1_554 S
N80 C82 1.345 1_565 S
C81 C78 1.485 . S
C81 H85 0.960 1_565 S
C81 H86 0.961 . S
C81 H87 0.960 . S
C82 N80 1.345 1_545 S
C82 N83 1.307 1_545 S
C82 C84 1.485 . S
N83 N79 1.370 1_554 S
N83 C82 1.307 1_565 S
C84 C82 1.485 . S
C84 H88 0.913 1_545 S
C84 H89 0.999 . S
C84 H90 0.970 . S
H85 C81 0.960 1_545 S
H86 C81 0.961 . S
H87 C81 0.960 . S
H88 C84 0.913 1_565 S
H89 C84 0.999 . S
H90 C84 0.970 . S
C91 N92 1.317 . S
C91 N93 1.348 1_556 S
C91 C94 1.485 . S
N92 C91 1.317 . S
N92 N96 1.370 1_556 S
N93 C91 1.348 1_554 S
N93 C95 1.346 . S
C94 C91 1.485 . S
C94 H98 0.960 . S
C94 H99 0.961 . S
C94 H100 0.960 . S
C95 N93 1.346 . S
C95 N96 1.307 . S
C95 C97 1.486 . S
N96 N92 1.370 1_554 S
N96 C95 1.307 . S
C97 C95 1.486 . S
C97 H101 0.960 . S
C97 H102 0.960 . S
C97 H103 0.959 . S
H98 C94 0.960 . S
H99 C94 0.961 . S
H100 C94 0.960 . S
H101 C97 0.960 . S
H102 C97 0.960 . S
H103 C97 0.959 . S
Sm104 C106 2.846 . S
Sm104 O124 2.544 . S
Sm104 O125 2.450 . S
Sm104 O126 2.681 1_565 S
Sm104 O127 2.464 . S
Sm104 O128 2.396 . S
Sm104 O132 2.386 1_455 S
Sm104 O135 2.408 1_565 S
Sm105 C115 2.846 . S
Sm105 O126 2.386 1_655 S
Sm105 O129 2.408 1_545 S
Sm105 O130 2.544 1_655 S
Sm105 O131 2.450 . S
Sm105 O132 2.681 1_545 S
Sm105 O133 2.464 . S
Sm105 O134 2.396 . S
C106 Sm104 2.846 . S
C106 C107 1.506 . S
C106 O124 1.265 . S
C106 O125 1.242 . S
C107 C106 1.506 . S
C107 C108 1.358 . S
C107 C112 1.382 . S
C108 C107 1.358 . S
C108 C109 1.385 1_556 S
C108 H136 0.930 1_455 S
C109 C108 1.385 1_554 S
C109 C110 1.395 . S
C109 H137 0.929 1_455 S
C110 C109 1.395 . S
C110 C111 1.335 1_554 S
C111 C110 1.335 1_556 S
C111 C112 1.398 . S
C111 H138 0.930 1_556 S
C112 C107 1.382 . S
C112 C111 1.398 . S
C112 H139 0.929 . S
C113 O126 1.256 1_565 S
C113 O127 1.279 . S
C114 O128 1.252 1_655 S
C114 O129 1.272 . S
C115 Sm105 2.846 . S
C115 C116 1.506 . S
C115 O130 1.265 1_655 S
C115 O131 1.242 . S
C116 C115 1.506 . S
C116 C117 1.358 . S
C116 C121 1.382 . S
C117 C116 1.358 . S
C117 C118 1.385 . S
C117 H140 0.930 1_655 S
C118 C117 1.385 . S
C118 C119 1.395 . S
C118 H141 0.929 1_655 S
C119 C118 1.395 . S
C119 C120 1.335 . S
C120 C119 1.335 . S
C120 C121 1.398 . S
C120 H142 0.930 . S
C121 C116 1.382 . S
C121 C120 1.398 . S
C121 H143 0.929 . S
C122 O132 1.271 1_545 S
C122 O133 1.251 . S
C123 O134 1.252 1_455 S
C123 O135 1.272 . S
O124 Sm104 2.544 . S
O124 C106 1.265 . S
O125 Sm104 2.450 . S
O125 C106 1.242 . S
O126 Sm104 2.681 1_545 S
O126 Sm105 2.386 1_455 S
O126 C113 1.256 1_545 S
O127 Sm104 2.464 . S
O127 C113 1.279 . S
O128 Sm104 2.396 . S
O128 C114 1.252 1_455 S
O129 Sm105 2.408 1_565 S
O129 C114 1.272 . S
O130 Sm105 2.544 1_455 S
O130 C115 1.265 1_455 S
O131 Sm105 2.450 . S
O131 C115 1.242 . S
O132 Sm104 2.386 1_655 S
O132 Sm105 2.681 1_565 S
O132 C122 1.271 1_565 S
O133 Sm105 2.464 . S
O133 C122 1.251 . S
O134 Sm105 2.396 . S
O134 C123 1.252 1_655 S
O135 Sm104 2.408 1_545 S
O135 C123 1.272 . S
H136 C108 0.930 1_655 S
H137 C109 0.929 1_655 S
H138 C111 0.930 1_554 S
H139 C112 0.929 . S
H140 C117 0.930 1_455 S
H141 C118 0.929 1_455 S
H142 C120 0.930 . S
H143 C121 0.929 . S
Sm144 C146 2.846 . S
Sm144 O164 2.544 . S
Sm144 O165 2.450 . S
Sm144 O166 2.681 . S
Sm144 O167 2.464 . S
Sm144 O168 2.396 . S
Sm144 O172 2.386 1_545 S
Sm144 O175 2.408 . S
Sm145 C155 2.846 . S
Sm145 O166 2.386 1_565 S
Sm145 O169 2.408 . S
Sm145 O170 2.544 1_565 S
Sm145 O171 2.450 . S
Sm145 O172 2.681 . S
Sm145 O173 2.464 . S
Sm145 O174 2.396 . S
C146 Sm144 2.846 . S
C146 C147 1.506 . S
C146 O164 1.264 . S
C146 O165 1.242 . S
C147 C146 1.506 . S
C147 C148 1.358 . S
C147 C152 1.382 . S
C148 C147 1.358 . S
C148 C149 1.385 1_556 S
C148 H176 0.930 1_545 S
C149 C148 1.385 1_554 S
C149 C150 1.395 . S
C149 H177 0.929 1_545 S
C150 C149 1.395 . S
C150 C151 1.335 1_554 S
C151 C150 1.335 1_556 S
C151 C152 1.398 . S
C151 H178 0.930 1_556 S
C152 C147 1.382 . S
C152 C151 1.398 . S
C152 H179 0.929 . S
C153 O166 1.271 . S
C153 O167 1.251 . S
C154 O168 1.252 1_565 S
C154 O169 1.272 . S
C155 Sm145 2.846 . S
C155 C156 1.506 . S
C155 O170 1.264 1_565 S
C155 O171 1.242 . S
C156 C155 1.506 . S
C156 C157 1.358 . S
C156 C161 1.382 . S
C157 C156 1.358 . S
C157 C158 1.385 . S
C157 H180 0.930 1_565 S
C158 C157 1.385 . S
C158 C159 1.395 . S
C158 H181 0.929 1_565 S
C159 C158 1.395 . S
C159 C160 1.335 . S
C160 C159 1.335 . S
C160 C161 1.398 . S
C160 H182 0.930 . S
C161 C156 1.382 . S
C161 C160 1.398 . S
C161 H183 0.929 . S
C162 O172 1.271 . S
C162 O173 1.251 . S
C163 O174 1.252 1_545 S
C163 O175 1.272 . S
O164 Sm144 2.544 . S
O164 C146 1.264 . S
O165 Sm144 2.450 . S
O165 C146 1.242 . S
O166 Sm144 2.681 . S
O166 Sm145 2.386 1_545 S
O166 C153 1.271 . S
O167 Sm144 2.464 . S
O167 C153 1.251 . S
O168 Sm144 2.396 . S
O168 C154 1.252 1_545 S
O169 Sm145 2.408 . S
O169 C154 1.272 . S
O170 Sm145 2.544 1_545 S
O170 C155 1.264 1_545 S
O171 Sm145 2.450 . S
O171 C155 1.242 . S
O172 Sm144 2.386 1_565 S
O172 Sm145 2.681 . S
O172 C162 1.271 . S
O173 Sm145 2.464 . S
O173 C162 1.251 . S
O174 Sm145 2.396 . S
O174 C163 1.252 1_565 S
O175 Sm144 2.408 . S
O175 C163 1.272 . S
H176 C148 0.930 1_565 S
H177 C149 0.929 1_565 S
H178 C151 0.930 1_554 S
H179 C152 0.929 . S
H180 C157 0.930 1_545 S
H181 C158 0.929 1_545 S
H182 C160 0.930 . S
H183 C161 0.929 . S
Sm184 C186 2.846 . S
Sm184 O204 2.543 . S
Sm184 O205 2.450 . S
Sm184 O206 2.681 . S
Sm184 O207 2.464 . S
Sm184 O208 2.396 . S
Sm184 O212 2.386 . S
Sm184 O215 2.408 . S
Sm185 C195 2.846 . S
Sm185 O206 2.386 . S
Sm185 O209 2.408 . S
Sm185 O210 2.543 . S
Sm185 O211 2.450 . S
Sm185 O212 2.681 . S
Sm185 O213 2.464 . S
Sm185 O214 2.396 . S
C186 Sm184 2.846 . S
C186 C187 1.506 . S
C186 O204 1.261 . S
C186 O205 1.242 . S
C187 C186 1.506 . S
C187 C188 1.358 . S
C187 C192 1.382 . S
C188 C187 1.358 . S
C188 C189 1.385 1_556 S
C188 H216 0.930 . S
C189 C188 1.385 1_554 S
C189 C190 1.395 . S
C189 H217 0.929 . S
C190 C189 1.395 . S
C190 C191 1.335 1_554 S
C191 C190 1.335 1_556 S
C191 C192 1.398 . S
C191 H218 0.930 1_556 S
C192 C187 1.382 . S
C192 C191 1.398 . S
C192 H219 0.929 . S
C193 O206 1.271 . S
C193 O207 1.251 . S
C194 O208 1.252 . S
C194 O209 1.272 . S
C195 Sm185 2.846 . S
C195 C196 1.506 . S
C195 O210 1.261 . S
C195 O211 1.242 . S
C196 C195 1.506 . S
C196 C197 1.358 . S
C196 C201 1.382 . S
C197 C196 1.358 . S
C197 C198 1.385 . S
C197 H220 0.930 . S
C198 C197 1.385 . S
C198 C199 1.395 . S
C198 H221 0.929 . S
C199 C198 1.395 . S
C199 C200 1.335 . S
C200 C199 1.335 . S
C200 C201 1.398 . S
C200 H222 0.930 . S
C201 C196 1.382 . S
C201 C200 1.398 . S
C201 H223 0.929 . S
C202 O212 1.271 . S
C202 O213 1.251 . S
C203 O214 1.252 . S
C203 O215 1.272 . S
O204 Sm184 2.543 . S
O204 C186 1.261 . S
O205 Sm184 2.450 . S
O205 C186 1.242 . S
O206 Sm184 2.681 . S
O206 Sm185 2.386 . S
O206 C193 1.271 . S
O207 Sm184 2.464 . S
O207 C193 1.251 . S
O208 Sm184 2.396 . S
O208 C194 1.252 . S
O209 Sm185 2.408 . S
O209 C194 1.272 . S
O210 Sm185 2.543 . S
O210 C195 1.261 . S
O211 Sm185 2.450 . S
O211 C195 1.242 . S
O212 Sm184 2.386 . S
O212 Sm185 2.681 . S
O212 C202 1.271 . S
O213 Sm185 2.464 . S
O213 C202 1.251 . S
O214 Sm185 2.396 . S
O214 C203 1.252 . S
O215 Sm184 2.408 . S
O215 C203 1.272 . S
H216 C188 0.930 . S
H217 C189 0.929 . S
H218 C191 0.930 1_554 S
H219 C192 0.929 . S
H220 C197 0.930 . S
H221 C198 0.929 . S
H222 C200 0.930 . S
H223 C201 0.929 . S
Sm224 C226 2.846 . S
Sm224 O244 2.543 . S
Sm224 O245 2.450 . S
Sm224 O246 2.681 1_655 S
Sm224 O247 2.464 . S
Sm224 O248 2.396 . S
Sm224 O252 2.386 . S
Sm224 O255 2.408 1_655 S
Sm225 C235 2.846 . S
Sm225 O246 2.386 . S
Sm225 O249 2.408 1_455 S
Sm225 O250 2.543 . S
Sm225 O251 2.450 . S
Sm225 O252 2.681 1_455 S
Sm225 O253 2.464 . S
Sm225 O254 2.396 . S
C226 Sm224 2.846 . S
C226 C227 1.506 . S
C226 O244 1.261 . S
C226 O245 1.242 . S
C227 C226 1.506 . S
C227 C228 1.358 . S
C227 C232 1.382 . S
C228 C227 1.358 . S
C228 C229 1.385 1_556 S
C228 H256 0.930 . S
C229 C228 1.385 1_554 S
C229 C230 1.395 . S
C229 H257 0.929 . S
C230 C229 1.395 . S
C230 C231 1.335 1_554 S
C231 C230 1.335 1_556 S
C231 C232 1.398 . S
C231 H258 0.930 1_556 S
C232 C227 1.382 . S
C232 C231 1.398 . S
C232 H259 0.929 . S
C233 O246 1.257 1_655 S
C233 O247 1.276 . S
C234 O248 1.252 . S
C234 O249 1.272 . S
C235 Sm225 2.846 . S
C235 C236 1.506 . S
C235 O250 1.261 . S
C235 O251 1.242 . S
C236 C235 1.506 . S
C236 C237 1.358 . S
C236 C241 1.382 . S
C237 C236 1.358 . S
C237 C238 1.385 . S
C237 H260 0.930 . S
C238 C237 1.385 . S
C238 C239 1.395 . S
C238 H261 0.929 . S
C239 C238 1.395 . S
C239 C240 1.335 . S
C240 C239 1.335 . S
C240 C241 1.398 . S
C240 H262 0.930 . S
C241 C236 1.382 . S
C241 C240 1.398 . S
C241 H263 0.929 . S
C242 O252 1.271 1_455 S
C242 O253 1.251 . S
C243 O254 1.252 . S
C243 O255 1.272 . S
O244 Sm224 2.543 . S
O244 C226 1.261 . S
O245 Sm224 2.450 . S
O245 C226 1.242 . S
O246 Sm224 2.681 1_455 S
O246 Sm225 2.386 . S
O246 C233 1.257 1_455 S
O247 Sm224 2.464 . S
O247 C233 1.276 . S
O248 Sm224 2.396 . S
O248 C234 1.252 . S
O249 Sm225 2.408 1_655 S
O249 C234 1.272 . S
O250 Sm225 2.543 . S
O250 C235 1.261 . S
O251 Sm225 2.450 . S
O251 C235 1.242 . S
O252 Sm224 2.386 . S
O252 Sm225 2.681 1_655 S
O252 C242 1.271 1_655 S
O253 Sm225 2.464 . S
O253 C242 1.251 . S
O254 Sm225 2.396 . S
O254 C243 1.252 . S
O255 Sm224 2.408 1_455 S
O255 C243 1.272 . S
H256 C228 0.930 . S
H257 C229 0.929 . S
H258 C231 0.930 1_554 S
H259 C232 0.929 . S
H260 C237 0.930 . S
H261 C238 0.929 . S
H262 C240 0.930 . S
H263 C241 0.929 . S
C264 C265 1.353 . S
C264 C266 1.327 . S
C264 H289 0.950 . S
C265 C264 1.353 . S
C265 C281 1.344 1_545 S
C266 C264 1.327 . S
C266 C285 1.444 . S
C266 H290 0.950 . S
C267 C284 1.574 . S
C267 C286 1.345 1_565 S
C267 H291 0.949 . S
H268 C272 0.949 . S
C269 C270 1.349 1_565 S
C269 C271 1.327 . S
C269 H292 0.950 . S
C270 C269 1.349 1_545 S
C270 C282 1.349 . S
C271 C269 1.327 . S
C271 C287 1.392 1_565 S
C271 H293 0.950 . S
C272 H268 0.949 . S
C272 C280 1.574 . S
C272 C288 1.403 . S
H273 C281 0.950 . S
H274 C279 0.950 . S
H275 C280 0.949 . S
H276 C282 0.950 . S
H277 C283 0.950 . S
H278 C284 0.949 . S
C279 H274 0.950 . S
C279 C281 1.327 . S
C279 C285 1.414 1_565 S
C280 C272 1.574 . S
C280 H275 0.949 . S
C280 C286 1.392 . S
C281 C265 1.344 1_565 S
C281 H273 0.950 . S
C281 C279 1.327 . S
C282 C270 1.349 . S
C282 H276 0.950 . S
C282 C283 1.327 . S
C283 H277 0.950 . S
C283 C282 1.327 . S
C283 C287 1.466 . S
C284 C267 1.574 . S
C284 H278 0.949 . S
C284 C288 1.334 1_565 S
C285 C266 1.444 . S
C285 C279 1.414 1_545 S
C285 C286 1.523 . S
C286 C267 1.345 1_545 S
C286 C280 1.392 . S
C286 C285 1.523 . S
C287 C271 1.392 1_545 S
C287 C283 1.466 . S
C287 C288 1.523 . S
C288 C272 1.403 . S
C288 C284 1.334 1_545 S
C288 C287 1.523 . S
H289 C264 0.950 . S
H290 C266 0.950 . S
H291 C267 0.949 . S
H292 C269 0.950 . S
H293 C271 0.950 . S
C294 C295 1.349 . S
C294 C296 1.327 . S
C294 H319 0.950 . S
C295 C294 1.349 . S
C295 C311 1.349 . S
C296 C294 1.327 . S
C296 C315 1.429 . S
C296 H320 0.950 . S
C297 C314 1.574 . S
C297 C316 1.368 . S
C297 H321 0.949 . S
H298 C302 0.949 . S
C299 C300 1.349 . S
C299 C301 1.327 . S
C299 H322 0.950 . S
C300 C299 1.349 . S
C300 C312 1.349 . S
C301 C299 1.327 . S
C301 C317 1.429 . S
C301 H323 0.950 . S
C302 H298 0.949 . S
C302 C310 1.574 . S
C302 C318 1.368 . S
H303 C311 0.950 . S
H304 C309 0.950 . S
H305 C310 0.949 . S
H306 C312 0.950 . S
H307 C313 0.950 . S
H308 C314 0.949 . S
C309 H304 0.950 . S
C309 C311 1.327 . S
C309 C315 1.429 . S
C310 C302 1.574 . S
C310 H305 0.949 . S
C310 C316 1.368 . S
C311 C295 1.349 . S
C311 H303 0.950 . S
C311 C309 1.327 . S
C312 C300 1.349 . S
C312 H306 0.950 . S
C312 C313 1.327 . S
C313 H307 0.950 . S
C313 C312 1.327 . S
C313 C317 1.429 . S
C314 C297 1.574 . S
C314 H308 0.949 . S
C314 C318 1.368 . S
C315 C296 1.429 . S
C315 C309 1.429 . S
C315 C316 1.523 . S
C316 C297 1.368 . S
C316 C310 1.368 . S
C316 C315 1.523 . S
C317 C301 1.429 . S
C317 C313 1.429 . S
C317 C318 1.523 . S
C318 C302 1.368 . S
C318 C314 1.368 . S
C318 C317 1.523 . S
H319 C294 0.950 . S
H320 C296 0.950 . S
H321 C297 0.949 . S
H322 C299 0.950 . S
H323 C301 0.950 . S
C324 C325 1.349 . S
C324 C326 1.327 . S
C324 H349 0.950 . S
C325 C324 1.349 . S
C325 C341 1.349 . S
C326 C324 1.327 . S
C326 C345 1.429 . S
C326 H350 0.950 . S
C327 C344 1.574 . S
C327 C346 1.368 . S
C327 H351 0.949 . S
H328 C332 0.949 . S
C329 C330 1.349 . S
C329 C331 1.327 . S
C329 H352 0.950 . S
C330 C329 1.349 . S
C330 C342 1.349 . S
C331 C329 1.327 . S
C331 C347 1.429 . S
C331 H353 0.950 . S
C332 H328 0.949 . S
C332 C340 1.574 . S
C332 C348 1.368 . S
H333 C341 0.950 . S
H334 C339 0.950 . S
H335 C340 0.949 . S
H336 C342 0.950 . S
H337 C343 0.950 . S
H338 C344 0.949 . S
C339 H334 0.950 . S
C339 C341 1.327 . S
C339 C345 1.429 . S
C340 C332 1.574 . S
C340 H335 0.949 . S
C340 C346 1.368 . S
C341 C325 1.349 . S
C341 H333 0.950 . S
C341 C339 1.327 . S
C342 C330 1.349 . S
C342 H336 0.950 . S
C342 C343 1.327 . S
C343 H337 0.950 . S
C343 C342 1.327 . S
C343 C347 1.429 . S
C344 C327 1.574 . S
C344 H338 0.949 . S
C344 C348 1.368 . S
C345 C326 1.429 . S
C345 C339 1.429 . S
C345 C346 1.523 . S
C346 C327 1.368 . S
C346 C340 1.368 . S
C346 C345 1.523 . S
C347 C331 1.429 . S
C347 C343 1.429 . S
C347 C348 1.523 . S
C348 C332 1.368 . S
C348 C344 1.368 . S
C348 C347 1.523 . S
H349 C324 0.950 . S
H350 C326 0.950 . S
H351 C327 0.949 . S
H352 C329 0.950 . S
H353 C331 0.950 . S
C354 C355 1.347 1_655 S
C354 C356 1.327 . S
C354 H379 0.950 . S
C355 C354 1.347 1_455 S
C355 C371 1.351 . S
C356 C354 1.327 . S
C356 C375 1.421 1_655 S
C356 H380 0.950 . S
C357 C374 1.574 . S
C357 C376 1.381 . S
C357 H381 0.949 . S
H358 C362 0.949 . S
C359 C360 1.349 . S
C359 C361 1.327 . S
C359 H382 0.950 . S
C360 C359 1.349 . S
C360 C372 1.349 1_455 S
C361 C359 1.327 . S
C361 C377 1.450 . S
C361 H383 0.950 . S
C362 H358 0.949 . S
C362 C370 1.574 . S
C362 C378 1.351 1_655 S
H363 C371 0.950 . S
H364 C369 0.950 . S
H365 C370 0.949 . S
H366 C372 0.950 . S
H367 C373 0.950 . S
H368 C374 0.949 . S
C369 H364 0.950 . S
C369 C371 1.327 . S
C369 C375 1.437 . S
C370 C362 1.574 . S
C370 H365 0.949 . S
C370 C376 1.356 1_655 S
C371 C355 1.351 . S
C371 H363 0.950 . S
C371 C369 1.327 . S
C372 C360 1.349 1_655 S
C372 H366 0.950 . S
C372 C373 1.327 . S
C373 H367 0.950 . S
C373 C372 1.327 . S
C373 C377 1.410 1_655 S
C374 C357 1.574 . S
C374 H368 0.949 . S
C374 C378 1.387 . S
C375 C356 1.421 1_455 S
C375 C369 1.437 . S
C375 C376 1.523 . S
C376 C357 1.381 . S
C376 C370 1.356 1_455 S
C376 C375 1.523 . S
C377 C361 1.450 . S
C377 C373 1.410 1_455 S
C377 C378 1.523 . S
C378 C362 1.351 1_455 S
C378 C374 1.387 . S
C378 C377 1.523 . S
H379 C354 0.950 . S
H380 C356 0.950 . S
H381 C357 0.949 . S
H382 C359 0.950 . S
H383 C361 0.950 . S
C384 C385 1.344 . S
C384 C386 1.327 . S
C384 H409 0.950 . S
C385 C384 1.344 . S
C385 C401 1.353 1_545 S
C386 C384 1.327 . S
C386 C405 1.422 1_545 S
C386 H410 0.950 . S
C387 C404 1.574 . S
C387 C406 1.382 . S
C387 H411 0.949 . S
H388 C392 0.949 . S
C389 C390 1.389 . S
C389 C391 1.327 . S
C389 H412 0.950 . S
C390 C389 1.389 . S
C390 C402 1.309 1_565 S
C391 C389 1.327 . S
C391 C407 1.457 . S
C391 H413 0.950 . S
C392 H388 0.949 . S
C392 C400 1.574 . S
C392 C408 1.344 1_545 S
H393 C401 0.950 . S
H394 C399 0.950 . S
H395 C400 0.949 . S
H396 C402 0.950 . S
H397 C403 0.950 1_554 S
H398 C404 0.949 1_556 S
C399 H394 0.950 . S
C399 C401 1.327 . S
C399 C405 1.435 . S
C400 C392 1.574 . S
C400 H395 0.949 . S
C400 C406 1.355 1_545 S
C401 C385 1.353 1_565 S
C401 H393 0.950 . S
C401 C399 1.327 . S
C402 C390 1.309 1_545 S
C402 H396 0.950 . S
C402 C403 1.327 . S
C403 H397 0.950 1_556 S
C403 C402 1.327 . S
C403 C407 1.401 1_545 S
C404 C387 1.574 . S
C404 H398 0.949 1_554 S
C404 C408 1.393 . S
C405 C386 1.422 1_565 S
C405 C399 1.435 . S
C405 C406 1.523 . S
C406 C387 1.382 . S
C406 C400 1.355 1_565 S
C406 C405 1.523 . S
C407 C391 1.457 . S
C407 C403 1.401 1_565 S
C407 C408 1.523 1_556 S
C408 C392 1.344 1_565 S
C408 C404 1.393 . S
C408 C407 1.523 1_554 S
H409 C384 0.950 . S
H410 C386 0.950 . S
H411 C387 0.949 . S
H412 C389 0.950 . S
H413 C391 0.950 . S
C414 C415 1.349 . S
C414 C416 1.327 . S
C414 H439 0.950 . S
C415 C414 1.349 . S
C415 C431 1.349 . S
C416 C414 1.327 . S
C416 C435 1.429 . S
C416 H440 0.950 . S
C417 C434 1.574 . S
C417 C436 1.368 . S
C417 H441 0.949 . S
H418 C422 0.949 . S
C419 C420 1.349 . S
C419 C421 1.327 . S
C419 H442 0.950 . S
C420 C419 1.349 . S
C420 C432 1.349 . S
C421 C419 1.327 . S
C421 C437 1.429 . S
C421 H443 0.950 . S
C422 H418 0.949 . S
C422 C430 1.574 . S
C422 C438 1.368 . S
H423 C431 0.950 . S
H424 C429 0.950 . S
H425 C430 0.949 . S
H426 C432 0.950 . S
H427 C433 0.950 1_554 S
H428 C434 0.949 1_556 S
C429 H424 0.950 . S
C429 C431 1.327 . S
C429 C435 1.429 . S
C430 C422 1.574 . S
C430 H425 0.949 . S
C430 C436 1.368 . S
C431 C415 1.349 . S
C431 H423 0.950 . S
C431 C429 1.327 . S
C432 C420 1.349 . S
C432 H426 0.950 . S
C432 C433 1.327 . S
C433 H427 0.950 1_556 S
C433 C432 1.327 . S
C433 C437 1.429 . S
C434 C417 1.574 . S
C434 H428 0.949 1_554 S
C434 C438 1.368 . S
C435 C416 1.429 . S
C435 C429 1.429 . S
C435 C436 1.523 . S
C436 C417 1.368 . S
C436 C430 1.368 . S
C436 C435 1.523 . S
C437 C421 1.429 . S
C437 C433 1.429 . S
C437 C438 1.523 1_556 S
C438 C422 1.368 . S
C438 C434 1.368 . S
C438 C437 1.523 1_554 S
H439 C414 0.950 . S
H440 C416 0.950 . S
H441 C417 0.949 . S
H442 C419 0.950 . S
H443 C421 0.950 . S
C444 C445 1.349 . S
C444 C446 1.327 . S
C444 H469 0.950 . S
C445 C444 1.349 . S
C445 C461 1.349 . S
C446 C444 1.327 . S
C446 C465 1.429 . S
C446 H470 0.950 . S
C447 C464 1.574 . S
C447 C466 1.368 . S
C447 H471 0.949 . S
H448 C452 0.949 . S
C449 C450 1.349 . S
C449 C451 1.327 . S
C449 H472 0.950 . S
C450 C449 1.349 . S
C450 C462 1.349 . S
C451 C449 1.327 . S
C451 C467 1.429 . S
C451 H473 0.950 . S
C452 H448 0.949 . S
C452 C460 1.574 . S
C452 C468 1.368 . S
H453 C461 0.950 . S
H454 C459 0.950 . S
H455 C460 0.949 . S
H456 C462 0.950 . S
H457 C463 0.950 1_554 S
H458 C464 0.949 1_556 S
C459 H454 0.950 . S
C459 C461 1.327 . S
C459 C465 1.429 . S
C460 C452 1.574 . S
C460 H455 0.949 . S
C460 C466 1.368 . S
C461 C445 1.349 . S
C461 H453 0.950 . S
C461 C459 1.327 . S
C462 C450 1.349 . S
C462 H456 0.950 . S
C462 C463 1.327 . S
C463 H457 0.950 1_556 S
C463 C462 1.327 . S
C463 C467 1.429 . S
C464 C447 1.574 . S
C464 H458 0.949 1_554 S
C464 C468 1.368 . S
C465 C446 1.429 . S
C465 C459 1.429 . S
C465 C466 1.523 . S
C466 C447 1.368 . S
C466 C460 1.368 . S
C466 C465 1.523 . S
C467 C451 1.429 . S
C467 C463 1.429 . S
C467 C468 1.523 1_556 S
C468 C452 1.368 . S
C468 C464 1.368 . S
C468 C467 1.523 1_554 S
H469 C444 0.950 . S
H470 C446 0.950 . S
H471 C447 0.949 . S
H472 C449 0.950 . S
H473 C451 0.950 . S
C474 C475 1.352 . S
C474 C476 1.327 . S
C474 H499 0.950 . S
C475 C474 1.352 . S
C475 C491 1.346 1_655 S
C476 C474 1.327 . S
C476 C495 1.440 . S
C476 H500 0.950 . S
C477 C494 1.574 . S
C477 C496 1.351 1_455 S
C477 H501 0.949 . S
H478 C482 0.949 . S
C479 C480 1.349 1_455 S
C479 C481 1.327 . S
C479 H502 0.950 . S
C480 C479 1.349 1_655 S
C480 C492 1.349 . S
C481 C479 1.327 . S
C481 C497 1.402 1_455 S
C481 H503 0.950 . S
C482 H478 0.949 . S
C482 C490 1.574 . S
C482 C498 1.395 . S
H483 C491 0.950 . S
H484 C489 0.950 . S
H485 C490 0.949 . S
H486 C492 0.950 . S
H487 C493 0.950 1_554 S
H488 C494 0.949 1_556 S
C489 H484 0.950 . S
C489 C491 1.327 . S
C489 C495 1.417 1_455 S
C490 C482 1.574 . S
C490 H485 0.949 . S
C490 C496 1.386 . S
C491 C475 1.346 1_455 S
C491 H483 0.950 . S
C491 C489 1.327 . S
C492 C480 1.349 . S
C492 H486 0.950 . S
C492 C493 1.327 . S
C493 H487 0.950 1_556 S
C493 C492 1.327 . S
C493 C497 1.457 . S
C494 C477 1.574 . S
C494 H488 0.949 1_554 S
C494 C498 1.343 1_455 S
C495 C476 1.440 . S
C495 C489 1.417 1_655 S
C495 C496 1.523 . S
C496 C477 1.351 1_655 S
C496 C490 1.386 . S
C496 C495 1.523 . S
C497 C481 1.402 1_655 S
C497 C493 1.457 . S
C497 C498 1.523 1_556 S
C498 C482 1.395 . S
C498 C494 1.343 1_655 S
C498 C497 1.523 1_554 S
H499 C474 0.950 . S
H500 C476 0.950 . S
H501 C477 0.949 . S
H502 C479 0.950 . S
H503 C481 0.950 . S
C504 C505 1.349 . S
C504 C506 1.327 . S
C504 H529 0.950 . S
C505 C504 1.349 . S
C505 C521 1.349 1_455 S
C506 C504 1.327 . S
C506 C525 1.429 1_455 S
C506 H530 0.950 . S
C507 C524 1.574 . S
C507 C526 1.368 . S
C507 H531 0.949 . S
H508 C512 0.949 . S
C509 C510 1.349 . S
C509 C511 1.327 . S
C509 H532 0.950 . S
C510 C509 1.349 . S
C510 C522 1.349 . S
C511 C509 1.327 . S
C511 C527 1.429 . S
C511 H533 0.950 . S
C512 H508 0.949 . S
C512 C520 1.574 . S
C512 C528 1.368 1_455 S
H513 C521 0.950 . S
H514 C519 0.950 . S
H515 C520 0.949 . S
H516 C522 0.951 . S
H517 C523 0.950 1_455 S
H518 C524 0.949 . S
C519 H514 0.950 . S
C519 C521 1.327 . S
C519 C525 1.429 . S
C520 C512 1.574 . S
C520 H515 0.949 . S
C520 C526 1.368 1_455 S
C521 C505 1.349 1_655 S
C521 H513 0.950 . S
C521 C519 1.327 . S
C522 C510 1.349 . S
C522 H516 0.951 . S
C522 C523 1.327 . S
C523 H517 0.950 1_655 S
C523 C522 1.327 . S
C523 C527 1.429 . S
C524 C507 1.574 . S
C524 H518 0.949 . S
C524 C528 1.368 . S
C525 C506 1.429 1_655 S
C525 C519 1.429 . S
C525 C526 1.523 . S
C526 C507 1.368 . S
C526 C520 1.368 1_655 S
C526 C525 1.523 . S
C527 C511 1.429 . S
C527 C523 1.429 . S
C527 C528 1.523 . S
C528 C512 1.368 1_655 S
C528 C524 1.368 . S
C528 C527 1.523 . S
H529 C504 0.950 . S
H530 C506 0.950 . S
H531 C507 0.949 . S
H532 C509 0.950 . S
H533 C511 0.950 . S
C534 C535 1.349 . S
C534 C536 1.327 . S
C534 H559 0.950 . S
C535 C534 1.349 . S
C535 C551 1.349 1_545 S
C536 C534 1.327 . S
C536 C555 1.429 1_545 S
C536 H560 0.950 . S
C537 C554 1.574 . S
C537 C556 1.368 . S
C537 H561 0.949 . S
H538 C542 0.949 . S
C539 C540 1.349 . S
C539 C541 1.327 . S
C539 H562 0.950 . S
C540 C539 1.349 . S
C540 C552 1.349 . S
C541 C539 1.327 . S
C541 C557 1.429 . S
C541 H563 0.950 . S
C542 H538 0.949 . S
C542 C550 1.574 . S
C542 C558 1.368 . S
H543 C551 0.950 1_556 S
H544 C549 0.950 . S
H545 C550 0.947 . S
H546 C552 0.950 . S
H547 C553 0.950 . S
H548 C554 0.949 . S
C549 H544 0.950 . S
C549 C551 1.327 . S
C549 C555 1.429 . S
C550 C542 1.574 . S
C550 H545 0.947 . S
C550 C556 1.368 . S
C551 C535 1.349 1_565 S
C551 H543 0.950 1_554 S
C551 C549 1.327 . S
C552 C540 1.349 . S
C552 H546 0.950 . S
C552 C553 1.327 . S
C553 H547 0.950 . S
C553 C552 1.327 . S
C553 C557 1.429 . S
C554 C537 1.574 . S
C554 H548 0.949 . S
C554 C558 1.368 . S
C555 C536 1.429 1_565 S
C555 C549 1.429 . S
C555 C556 1.523 . S
C556 C537 1.368 . S
C556 C550 1.368 . S
C556 C555 1.523 . S
C557 C541 1.429 . S
C557 C553 1.429 . S
C557 C558 1.523 . S
C558 C542 1.368 . S
C558 C554 1.368 . S
C558 C557 1.523 . S
H559 C534 0.950 . S
H560 C536 0.950 . S
H561 C537 0.949 . S
H562 C539 0.950 . S
H563 C541 0.950 . S
C564 C565 1.349 . S
C564 C566 1.327 . S
C564 H589 0.950 1_554 S
C565 C564 1.349 . S
C565 C581 1.349 . S
C566 C564 1.327 . S
C566 C585 1.429 . S
C566 H590 0.950 . S
C567 C584 1.574 . S
C567 C586 1.368 . S
C567 H591 0.949 . S
H568 C572 0.949 . S
C569 C570 1.349 . S
C569 C571 1.327 . S
C569 H592 0.950 . S
C570 C569 1.349 . S
C570 C582 1.349 . S
C571 C569 1.327 . S
C571 C587 1.429 . S
C571 H593 0.950 . S
C572 H568 0.949 . S
C572 C580 1.574 . S
C572 C588 1.368 . S
H573 C581 0.950 . S
H574 C579 0.950 . S
H575 C580 0.949 . S
H576 C582 0.950 . S
H577 C583 0.950 . S
H578 C584 0.949 . S
C579 H574 0.950 . S
C579 C581 1.327 . S
C579 C585 1.429 . S
C580 C572 1.574 . S
C580 H575 0.949 . S
C580 C586 1.368 . S
C581 C565 1.349 . S
C581 H573 0.950 . S
C581 C579 1.327 . S
C582 C570 1.349 . S
C582 H576 0.950 . S
C582 C583 1.327 . S
C583 H577 0.950 . S
C583 C582 1.327 . S
C583 C587 1.429 . S
C584 C567 1.574 . S
C584 H578 0.949 . S
C584 C588 1.368 . S
C585 C566 1.429 . S
C585 C579 1.429 . S
C585 C586 1.523 . S
C586 C567 1.368 . S
C586 C580 1.368 . S
C586 C585 1.523 . S
C587 C571 1.429 . S
C587 C583 1.429 . S
C587 C588 1.523 . S
C588 C572 1.368 . S
C588 C584 1.368 . S
C588 C587 1.523 . S
H589 C564 0.950 1_556 S
H590 C566 0.950 . S
H591 C567 0.949 . S
H592 C569 0.950 . S
H593 C571 0.950 . S
C594 C595 1.349 . S
C594 C596 1.327 . S
C594 H619 0.950 . S
C595 C594 1.349 . S
C595 C611 1.349 . S
C596 C594 1.327 . S
C596 C615 1.429 . S
C596 H620 0.950 . S
C597 C614 1.574 . S
C597 C616 1.368 . S
C597 H621 0.949 . S
H598 C602 0.949 . S
C599 C600 1.349 . S
C599 C601 1.327 . S
C599 H622 0.950 . S
C600 C599 1.349 . S
C600 C612 1.349 . S
C601 C599 1.327 . S
C601 C617 1.429 . S
C601 H623 0.950 . S
C602 H598 0.949 . S
C602 C610 1.574 . S
C602 C618 1.368 . S
H603 C611 0.950 1_556 S
H604 C609 0.950 . S
H605 C610 0.949 . S
H606 C612 0.950 . S
H607 C613 0.950 . S
H608 C614 0.949 . S
C609 H604 0.950 . S
C609 C611 1.327 . S
C609 C615 1.429 . S
C610 C602 1.574 . S
C610 H605 0.949 . S
C610 C616 1.368 . S
C611 C595 1.349 . S
C611 H603 0.950 1_554 S
C611 C609 1.327 . S
C612 C600 1.349 . S
C612 H606 0.950 . S
C612 C613 1.327 . S
C613 H607 0.950 . S
C613 C612 1.327 . S
C613 C617 1.429 . S
C614 C597 1.574 . S
C614 H608 0.949 . S
C614 C618 1.368 . S
C615 C596 1.429 . S
C615 C609 1.429 . S
C615 C616 1.523 . S
C616 C597 1.368 . S
C616 C610 1.368 . S
C616 C615 1.523 . S
C617 C601 1.429 . S
C617 C613 1.429 . S
C617 C618 1.523 . S
C618 C602 1.368 . S
C618 C614 1.368 . S
C618 C617 1.523 . S
H619 C594 0.950 . S
H620 C596 0.950 . S
H621 C597 0.949 . S
H622 C599 0.950 . S
H623 C601 0.950 . S
C624 C625 1.349 1_455 S
C624 C626 1.327 . S
C624 H649 0.950 . S
C625 C624 1.349 1_655 S
C625 C641 1.349 . S
C626 C624 1.327 . S
C626 C645 1.429 . S
C626 H650 0.950 . S
C627 C644 1.574 1_655 S
C627 C646 1.368 1_655 S
C627 H651 0.949 . S
H628 C632 0.949 . S
C629 C630 1.349 1_556 S
C629 C631 1.327 1_556 S
C629 H652 0.950 . S
C630 C629 1.349 1_554 S
C630 C642 1.349 . S
C631 C629 1.327 1_554 S
C631 C647 1.429 . S
C631 H653 0.937 1_455 S
C632 H628 0.949 . S
C632 C640 1.574 . S
C632 C648 1.368 . S
H633 C641 0.950 . S
H634 C639 0.950 . S
H635 C640 0.949 . S
H636 C642 0.950 . S
H637 C643 0.950 . S
H638 C644 0.949 1_655 S
C639 H634 0.950 . S
C639 C641 1.327 . S
C639 C645 1.429 1_655 S
C640 C632 1.574 . S
C640 H635 0.949 . S
C640 C646 1.368 . S
C641 C625 1.349 . S
C641 H633 0.950 . S
C641 C639 1.327 . S
C642 C630 1.349 . S
C642 H636 0.950 . S
C642 C643 1.327 . S
C643 H637 0.950 . S
C643 C642 1.327 . S
C643 C647 1.429 . S
C644 C627 1.574 1_455 S
C644 H638 0.949 1_455 S
C644 C648 1.368 . S
C645 C626 1.429 . S
C645 C639 1.429 1_455 S
C645 C646 1.523 . S
C646 C627 1.368 1_455 S
C646 C640 1.368 . S
C646 C645 1.523 . S
C647 C631 1.429 . S
C647 C643 1.429 . S
C647 C648 1.523 . S
C648 C632 1.368 . S
C648 C644 1.368 . S
C648 C647 1.523 . S
H649 C624 0.950 . S
H650 C626 0.950 . S
H651 C627 0.949 . S
H652 C629 0.950 . S
H653 C631 0.937 1_655 S
C654 C655 1.349 . S
C654 C656 1.327 . S
C654 H679 0.950 . S
C655 C654 1.349 . S
C655 C671 1.349 1_565 S
C656 C654 1.327 . S
C656 C675 1.429 1_565 S
C656 H680 0.950 . S
C657 C674 1.574 . S
C657 C676 1.368 . S
C657 H681 0.949 . S
H658 C662 0.949 . S
C659 C660 1.349 . S
C659 C661 1.327 . S
C659 H682 0.950 . S
C660 C659 1.349 . S
C660 C672 1.349 . S
C661 C659 1.327 . S
C661 C677 1.429 . S
C661 H683 0.950 . S
C662 H658 0.949 . S
C662 C670 1.574 . S
C662 C678 1.368 1_565 S
H663 C671 0.950 . S
H664 C669 0.950 . S
H665 C670 0.949 . S
H666 C672 0.950 1_565 S
H667 C673 0.950 1_565 S
H668 C674 0.949 . S
C669 H664 0.950 . S
C669 C671 1.327 . S
C669 C675 1.429 . S
C670 C662 1.574 . S
C670 H665 0.949 . S
C670 C676 1.368 1_565 S
C671 C655 1.349 1_545 S
C671 H663 0.950 . S
C671 C669 1.327 . S
C672 C660 1.349 . S
C672 H666 0.950 1_545 S
C672 C673 1.327 . S
C673 H667 0.950 1_545 S
C673 C672 1.327 . S
C673 C677 1.429 . S
C674 C657 1.574 . S
C674 H668 0.949 . S
C674 C678 1.368 . S
C675 C656 1.429 1_545 S
C675 C669 1.429 . S
C675 C676 1.523 . S
C676 C657 1.368 . S
C676 C670 1.368 1_545 S
C676 C675 1.523 . S
C677 C661 1.429 . S
C677 C673 1.429 . S
C677 C678 1.523 . S
C678 C662 1.368 1_545 S
C678 C674 1.368 . S
C678 C677 1.523 . S
H679 C654 0.950 . S
H680 C656 0.950 . S
H681 C657 0.949 . S
H682 C659 0.950 . S
H683 C661 0.950 . S
C684 C685 1.349 . S
C684 C686 1.327 . S
C684 H709 0.950 . S
C685 C684 1.349 . S
C685 C701 1.349 . S
C686 C684 1.327 . S
C686 C705 1.429 . S
C686 H710 0.950 . S
C687 C704 1.574 . S
C687 C706 1.368 . S
C687 H711 0.949 . S
H688 C692 0.949 . S
C689 C690 1.349 . S
C689 C691 1.327 . S
C689 H712 0.950 . S
C690 C689 1.349 . S
C690 C702 1.349 . S
C691 C689 1.327 . S
C691 C707 1.429 . S
C691 H713 0.950 . S
C692 H688 0.949 . S
C692 C700 1.574 . S
C692 C708 1.368 . S
H693 C701 0.950 . S
H694 C699 0.950 . S
H695 C700 0.949 . S
H696 C702 0.950 . S
H697 C703 0.950 . S
H698 C704 0.949 . S
C699 H694 0.950 . S
C699 C701 1.327 . S
C699 C705 1.429 . S
C700 C692 1.574 . S
C700 H695 0.949 . S
C700 C706 1.368 . S
C701 C685 1.349 . S
C701 H693 0.950 . S
C701 C699 1.327 . S
C702 C690 1.349 . S
C702 H696 0.950 . S
C702 C703 1.327 . S
C703 H697 0.950 . S
C703 C702 1.327 . S
C703 C707 1.429 . S
C704 C687 1.574 . S
C704 H698 0.949 . S
C704 C708 1.368 . S
C705 C686 1.429 . S
C705 C699 1.429 . S
C705 C706 1.523 . S
C706 C687 1.368 . S
C706 C700 1.368 . S
C706 C705 1.523 . S
C707 C691 1.429 . S
C707 C703 1.429 . S
C707 C708 1.523 . S
C708 C692 1.368 . S
C708 C704 1.368 . S
C708 C707 1.523 . S
H709 C684 0.950 . S
H710 C686 0.950 . S
H711 C687 0.949 . S
H712 C689 0.950 . S
H713 C691 0.950 . S
C714 C715 1.349 . S
C714 C716 1.327 . S
C714 H739 0.950 . S
C715 C714 1.349 . S
C715 C731 1.349 . S
C716 C714 1.327 . S
C716 C735 1.429 . S
C716 H740 0.950 . S
C717 C734 1.574 . S
C717 C736 1.368 . S
C717 H741 0.949 . S
H718 C722 0.949 . S
C719 C720 1.349 . S
C719 C721 1.327 . S
C719 H742 0.950 1_554 S
C720 C719 1.349 . S
C720 C732 1.349 . S
C721 C719 1.327 . S
C721 C737 1.429 . S
C721 H743 0.950 . S
C722 H718 0.949 . S
C722 C730 1.574 . S
C722 C738 1.368 . S
H723 C731 0.950 . S
H724 C729 0.950 . S
H725 C730 0.949 . S
H726 C732 0.950 . S
H727 C733 0.950 . S
H728 C734 0.949 . S
C729 H724 0.950 . S
C729 C731 1.327 . S
C729 C735 1.429 . S
C730 C722 1.574 . S
C730 H725 0.949 . S
C730 C736 1.368 . S
C731 C715 1.349 . S
C731 H723 0.950 . S
C731 C729 1.327 . S
C732 C720 1.349 . S
C732 H726 0.950 . S
C732 C733 1.327 . S
C733 H727 0.950 . S
C733 C732 1.327 . S
C733 C737 1.429 . S
C734 C717 1.574 . S
C734 H728 0.949 . S
C734 C738 1.368 . S
C735 C716 1.429 . S
C735 C729 1.429 . S
C735 C736 1.523 . S
C736 C717 1.368 . S
C736 C730 1.368 . S
C736 C735 1.523 . S
C737 C721 1.429 . S
C737 C733 1.429 . S
C737 C738 1.523 . S
C738 C722 1.368 . S
C738 C734 1.368 . S
C738 C737 1.523 . S
H739 C714 0.950 . S
H740 C716 0.950 . S
H741 C717 0.949 . S
H742 C719 0.950 1_556 S
H743 C721 0.950 . S
C744 C745 1.349 . S
C744 C746 1.327 . S
C744 H769 0.950 . S
C745 C744 1.349 . S
C745 C761 1.349 1_455 S
C746 C744 1.327 . S
C746 C765 1.429 . S
C746 H770 0.950 . S
C747 C764 1.574 . S
C747 C766 1.368 1_655 S
C747 H771 0.949 . S
H748 C752 0.949 . S
C749 C750 1.349 1_655 S
C749 C751 1.327 . S
C749 H772 0.950 . S
C750 C749 1.349 1_455 S
C750 C762 1.349 . S
C751 C749 1.327 . S
C751 C767 1.429 1_655 S
C751 H773 0.950 . S
C752 H748 0.949 . S
C752 C760 1.574 . S
C752 C768 1.368 . S
H753 C761 0.950 1_554 S
H754 C759 0.950 . S
H755 C760 0.949 . S
H756 C762 0.950 . S
H757 C763 0.950 . S
H758 C764 0.949 . S
C759 H754 0.950 . S
C759 C761 1.327 . S
C759 C765 1.429 1_655 S
C760 C752 1.574 . S
C760 H755 0.949 . S
C760 C766 1.368 . S
C761 C745 1.349 1_655 S
C761 H753 0.950 1_556 S
C761 C759 1.327 . S
C762 C750 1.349 . S
C762 H756 0.950 . S
C762 C763 1.327 . S
C763 H757 0.950 . S
C763 C762 1.327 . S
C763 C767 1.429 . S
C764 C747 1.574 . S
C764 H758 0.949 . S
C764 C768 1.368 1_655 S
C765 C746 1.429 . S
C765 C759 1.429 1_455 S
C765 C766 1.523 . S
C766 C747 1.368 1_455 S
C766 C760 1.368 . S
C766 C765 1.523 . S
C767 C751 1.429 1_455 S
C767 C763 1.429 . S
C767 C768 1.523 . S
C768 C752 1.368 . S
C768 C764 1.368 1_455 S
C768 C767 1.523 . S
H769 C744 0.950 . S
H770 C746 0.950 . S
H771 C747 0.949 . S
H772 C749 0.950 . S
H773 C751 0.950 . S
C774 C775 1.349 1_565 S
C774 C776 1.327 . S
C774 H799 0.950 . S
C775 C774 1.349 1_545 S
C775 C791 1.349 . S
C776 C774 1.327 . S
C776 C795 1.429 1_565 S
C776 H800 0.950 . S
C777 C794 1.574 . S
C777 C796 1.368 . S
C777 H801 0.949 . S
H778 C782 0.949 . S
C779 C780 1.349 . S
C779 C781 1.327 . S
C779 H802 0.950 . S
C780 C779 1.349 . S
C780 C792 1.349 1_545 S
C781 C779 1.327 . S
C781 C797 1.429 . S
C781 H803 0.950 . S
C782 H778 0.949 . S
C782 C790 1.574 . S
C782 C798 1.368 1_565 S
H783 C791 0.950 1_554 S
H784 C789 0.950 . S
H785 C790 0.949 . S
H786 C792 0.950 . S
H787 C793 0.950 . S
H788 C794 0.949 . S
C789 H784 0.950 . S
C789 C791 1.327 . S
C789 C795 1.429 . S
C790 C782 1.574 . S
C790 H785 0.949 . S
C790 C796 1.368 1_565 S
C791 C775 1.349 . S
C791 H783 0.950 1_556 S
C791 C789 1.327 . S
C792 C780 1.349 1_565 S
C792 H786 0.950 . S
C792 C793 1.327 . S
C793 H787 0.950 . S
C793 C792 1.327 . S
C793 C797 1.429 1_565 S
C794 C777 1.574 . S
C794 H788 0.949 . S
C794 C798 1.368 . S
C795 C776 1.429 1_545 S
C795 C789 1.429 . S
C795 C796 1.523 . S
C796 C777 1.368 . S
C796 C790 1.368 1_545 S
C796 C795 1.523 . S
C797 C781 1.429 . S
C797 C793 1.429 1_545 S
C797 C798 1.523 . S
C798 C782 1.368 1_545 S
C798 C794 1.368 . S
C798 C797 1.523 . S
H799 C774 0.950 . S
H800 C776 0.950 . S
H801 C777 0.949 . S
H802 C779 0.950 . S
H803 C781 0.950 . S
C804 C805 1.349 . S
C804 C806 1.327 . S
C804 H829 0.950 1_556 S
C805 C804 1.349 . S
C805 C821 1.349 . S
C806 C804 1.327 . S
C806 C825 1.429 . S
C806 H830 0.950 . S
C807 C824 1.574 . S
C807 C826 1.368 . S
C807 H831 0.949 . S
H808 C812 0.949 . S
C809 C810 1.349 . S
C809 C811 1.327 . S
C809 H832 0.950 . S
C810 C809 1.349 . S
C810 C822 1.349 . S
C811 C809 1.327 . S
C811 C827 1.429 . S
C811 H833 0.950 . S
C812 H808 0.949 . S
C812 C820 1.574 . S
C812 C828 1.368 . S
H813 C821 0.950 . S
H814 C819 0.950 . S
H815 C820 0.949 . S
H816 C822 0.950 . S
H817 C823 0.950 . S
H818 C824 0.949 . S
C819 H814 0.950 . S
C819 C821 1.327 . S
C819 C825 1.429 . S
C820 C812 1.574 . S
C820 H815 0.949 . S
C820 C826 1.368 . S
C821 C805 1.349 . S
C821 H813 0.950 . S
C821 C819 1.327 . S
C822 C810 1.349 . S
C822 H816 0.950 . S
C822 C823 1.327 . S
C823 H817 0.950 . S
C823 C822 1.327 . S
C823 C827 1.429 . S
C824 C807 1.574 . S
C824 H818 0.949 . S
C824 C828 1.368 . S
C825 C806 1.429 . S
C825 C819 1.429 . S
C825 C826 1.523 . S
C826 C807 1.368 . S
C826 C820 1.368 . S
C826 C825 1.523 . S
C827 C811 1.429 . S
C827 C823 1.429 . S
C827 C828 1.523 . S
C828 C812 1.368 . S
C828 C824 1.368 . S
C828 C827 1.523 . S
H829 C804 0.950 1_554 S
H830 C806 0.950 . S
H831 C807 0.949 . S
H832 C809 0.950 . S
H833 C811 0.950 . S
C834 C835 1.349 . S
C834 C836 1.327 . S
C834 H859 0.950 1_556 S
C835 C834 1.349 . S
C835 C851 1.349 . S
C836 C834 1.327 . S
C836 C855 1.429 . S
C836 H860 0.950 . S
C837 C854 1.574 . S
C837 C856 1.368 . S
C837 H861 0.949 . S
H838 C842 0.949 . S
C839 C840 1.349 . S
C839 C841 1.327 . S
C839 H862 0.950 . S
C840 C839 1.349 . S
C840 C852 1.349 . S
C841 C839 1.327 . S
C841 C857 1.429 . S
C841 H863 0.950 . S
C842 H838 0.949 . S
C842 C850 1.574 . S
C842 C858 1.368 . S
H843 C851 0.950 . S
H844 C849 0.950 . S
H845 C850 0.949 . S
H846 C852 0.950 . S
H847 C853 0.950 . S
H848 C854 0.949 . S
C849 H844 0.950 . S
C849 C851 1.327 . S
C849 C855 1.429 . S
C850 C842 1.574 . S
C850 H845 0.949 . S
C850 C856 1.368 . S
C851 C835 1.349 . S
C851 H843 0.950 . S
C851 C849 1.327 . S
C852 C840 1.349 . S
C852 H846 0.950 . S
C852 C853 1.327 . S
C853 H847 0.950 . S
C853 C852 1.327 . S
C853 C857 1.429 . S
C854 C837 1.574 . S
C854 H848 0.949 . S
C854 C858 1.368 . S
C855 C836 1.429 . S
C855 C849 1.429 . S
C855 C856 1.523 . S
C856 C837 1.368 . S
C856 C850 1.368 . S
C856 C855 1.523 . S
C857 C841 1.429 . S
C857 C853 1.429 . S
C857 C858 1.523 . S
C858 C842 1.368 . S
C858 C854 1.368 . S
C858 C857 1.523 . S
H859 C834 0.950 1_554 S
H860 C836 0.950 . S
H861 C837 0.949 . S
H862 C839 0.950 . S
H863 C841 0.950 . S
C864 C865 1.349 . S
C864 C866 1.327 . S
C864 H889 0.950 . S
C865 C864 1.349 . S
C865 C881 1.349 1_655 S
C866 C864 1.327 . S
C866 C885 1.429 . S
C866 H890 0.950 . S
C867 C884 1.574 . S
C867 C886 1.368 1_455 S
C867 H891 0.949 . S
H868 C872 0.949 . S
C869 C870 1.338 1_455 S
C869 C871 1.329 . S
C869 H892 0.960 . S
C870 C869 1.338 1_655 S
C870 C882 1.349 . S
C871 C869 1.329 . S
C871 C887 1.429 1_455 S
C871 H893 0.950 . S
C872 H868 0.949 . S
C872 C880 1.574 . S
C872 C888 1.368 . S
H873 C881 0.950 . S
H874 C879 0.950 . S
H875 C880 0.949 . S
H876 C882 0.950 . S
H877 C883 0.950 . S
H878 C884 0.949 . S
C879 H874 0.950 . S
C879 C881 1.327 . S
C879 C885 1.429 1_455 S
C880 C872 1.574 . S
C880 H875 0.949 . S
C880 C886 1.368 . S
C881 C865 1.349 1_455 S
C881 H873 0.950 . S
C881 C879 1.327 . S
C882 C870 1.349 . S
C882 H876 0.950 . S
C882 C883 1.327 . S
C883 H877 0.950 . S
C883 C882 1.327 . S
C883 C887 1.429 . S
C884 C867 1.574 . S
C884 H878 0.949 . S
C884 C888 1.368 1_455 S
C885 C866 1.429 . S
C885 C879 1.429 1_655 S
C885 C886 1.523 . S
C886 C867 1.368 1_655 S
C886 C880 1.368 . S
C886 C885 1.523 . S
C887 C871 1.429 1_655 S
C887 C883 1.429 . S
C887 C888 1.523 . S
C888 C872 1.368 . S
C888 C884 1.368 1_655 S
C888 C887 1.523 . S
H889 C864 0.950 . S
H890 C866 0.950 . S
H891 C867 0.949 . S
H892 C869 0.960 . S
H893 C871 0.950 . S
C894 C895 1.310 1_545 S
C894 C896 1.327 . S
C894 H919 0.950 . S
C895 C894 1.310 1_565 S
C895 C911 1.391 . S
C896 C894 1.327 . S
C896 C915 1.429 1_545 S
C896 H920 0.950 . S
C897 C914 1.574 . S
C897 C916 1.368 . S
C897 H921 0.949 . S
H898 C902 0.949 . S
C899 C900 1.349 . S
C899 C901 1.327 . S
C899 H922 0.950 . S
C900 C899 1.349 . S
C900 C912 1.349 1_565 S
C901 C899 1.327 . S
C901 C917 1.429 . S
C901 H923 0.950 . S
C902 H898 0.949 . S
C902 C910 1.574 . S
C902 C918 1.368 1_545 S
H903 C911 0.950 . S
H904 C909 0.950 . S
H905 C910 0.949 . S
H906 C912 0.950 . S
H907 C913 0.950 . S
H908 C914 0.949 . S
C909 H904 0.950 . S
C909 C911 1.327 . S
C909 C915 1.429 . S
C910 C902 1.574 . S
C910 H905 0.949 . S
C910 C916 1.368 1_545 S
C911 C895 1.391 . S
C911 H903 0.950 . S
C911 C909 1.327 . S
C912 C900 1.349 1_545 S
C912 H906 0.950 . S
C912 C913 1.327 . S
C913 H907 0.950 . S
C913 C912 1.327 . S
C913 C917 1.429 1_545 S
C914 C897 1.574 . S
C914 H908 0.949 . S
C914 C918 1.368 . S
C915 C896 1.429 1_565 S
C915 C909 1.429 . S
C915 C916 1.523 . S
C916 C897 1.368 . S
C916 C910 1.368 1_565 S
C916 C915 1.523 . S
C917 C901 1.429 . S
C917 C913 1.429 1_565 S
C917 C918 1.523 . S
C918 C902 1.368 1_565 S
C918 C914 1.368 . S
C918 C917 1.523 . S
H919 C894 0.950 . S
H920 C896 0.950 . S
H921 C897 0.949 . S
H922 C899 0.950 . S
H923 C901 0.950 . S
C924 C925 1.349 . S
C924 C926 1.327 . S
C924 H949 0.950 . S
C925 C924 1.349 . S
C925 C941 1.349 . S
C926 C924 1.327 . S
C926 C945 1.429 . S
C926 H950 0.950 . S
C927 C944 1.574 . S
C927 C946 1.368 . S
C927 H951 0.949 . S
H928 C932 0.949 . S
C929 C930 1.349 . S
C929 C931 1.327 . S
C929 H952 0.950 . S
C930 C929 1.349 . S
C930 C942 1.349 . S
C931 C929 1.327 . S
C931 C947 1.429 . S
C931 H953 0.950 . S
C932 H928 0.949 . S
C932 C940 1.574 . S
C932 C948 1.368 . S
H933 C941 0.950 . S
H934 C939 0.950 . S
H935 C940 0.949 . S
H936 C942 0.950 . S
H937 C943 0.950 . S
H938 C944 0.949 . S
C939 H934 0.950 . S
C939 C941 1.327 . S
C939 C945 1.429 . S
C940 C932 1.574 . S
C940 H935 0.949 . S
C940 C946 1.368 . S
C941 C925 1.349 . S
C941 H933 0.950 . S
C941 C939 1.327 . S
C942 C930 1.349 . S
C942 H936 0.950 . S
C942 C943 1.327 . S
C943 H937 0.950 . S
C943 C942 1.327 . S
C943 C947 1.429 . S
C944 C927 1.574 . S
C944 H938 0.949 . S
C944 C948 1.368 . S
C945 C926 1.429 . S
C945 C939 1.429 . S
C945 C946 1.523 . S
C946 C927 1.368 . S
C946 C940 1.368 . S
C946 C945 1.523 . S
C947 C931 1.429 . S
C947 C943 1.429 . S
C947 C948 1.523 . S
C948 C932 1.368 . S
C948 C944 1.368 . S
C948 C947 1.523 . S
H949 C924 0.950 . S
H950 C926 0.950 . S
H951 C927 0.949 . S
H952 C929 0.950 . S
H953 C931 0.950 . S
C954 C955 1.349 . S
C954 C956 1.327 . S
C954 H979 0.950 . S
C955 C954 1.349 . S
C955 C971 1.349 . S
C956 C954 1.327 . S
C956 C975 1.429 . S
C956 H980 0.950 . S
C957 C974 1.574 . S
C957 C976 1.368 . S
C957 H981 0.949 . S
H958 C962 0.949 . S
C959 C960 1.349 . S
C959 C961 1.327 . S
C959 H982 0.950 . S
C960 C959 1.349 . S
C960 C972 1.349 . S
C961 C959 1.327 . S
C961 C977 1.429 . S
C961 H983 0.950 . S
C962 H958 0.949 . S
C962 C970 1.574 . S
C962 C978 1.368 . S
H963 C971 0.950 . S
H964 C969 0.950 . S
H965 C970 0.949 . S
H966 C972 0.950 . S
H967 C973 0.950 . S
H968 C974 0.949 . S
C969 H964 0.950 . S
C969 C971 1.327 . S
C969 C975 1.429 . S
C970 C962 1.574 . S
C970 H965 0.949 . S
C970 C976 1.368 . S
C971 C955 1.349 . S
C971 H963 0.950 . S
C971 C969 1.327 . S
C972 C960 1.349 . S
C972 H966 0.950 . S
C972 C973 1.327 . S
C973 H967 0.950 . S
C973 C972 1.327 . S
C973 C977 1.429 . S
C974 C957 1.574 . S
C974 H968 0.949 . S
C974 C978 1.368 . S
C975 C956 1.429 . S
C975 C969 1.429 . S
C975 C976 1.523 . S
C976 C957 1.368 . S
C976 C970 1.368 . S
C976 C975 1.523 . S
C977 C961 1.429 . S
C977 C973 1.429 . S
C977 C978 1.523 . S
C978 C962 1.368 . S
C978 C974 1.368 . S
C978 C977 1.523 . S
H979 C954 0.950 . S
H980 C956 0.950 . S
H981 C957 0.949 . S
H982 C959 0.950 . S
H983 C961 0.950 . S
C265 N80 1.795 1_545 S
C270 C113 1.826 1_545 S
C300 C153 1.836 . S
C295 N93 1.793 . S
C330 C193 1.837 . S
C325 N54 1.799 . S
C360 C233 1.832 1_455 S
C355 N67 1.796 1_455 S
C390 C122 1.831 1_565 S
C385 N28 1.801 1_545 S
C415 N41 1.796 . S
C420 C162 1.839 . S
C445 N2 1.798 . S
C450 C202 1.837 . S
C475 N15 1.797 . S
C480 C242 1.837 1_655 S
C510 C119 0.288 . S
C505 N70 0.239 1_455 S
C540 C159 0.289 . S
C535 N83 0.246 1_545 S
C570 C199 0.290 . S
C565 N96 0.247 . S
C595 N57 0.245 . S
C600 C239 0.285 . S
C625 N18 0.238 . S
C630 C110 0.283 . S
C660 C150 0.289 . S
C655 N31 0.237 . S
C690 C190 0.290 . S
C685 N44 0.238 . S
C715 N5 0.235 . S
C720 C230 0.293 . S
C745 N66 1.983 1_455 S
C750 C123 2.034 . S
C775 N79 1.979 1_545 S
C780 C163 2.036 . S
C810 C203 2.034 . S
C805 N92 1.977 . S
C840 C243 2.038 . S
C835 N53 1.975 . S
C865 N14 1.979 . S
C870 C114 2.049 . S
C900 C154 2.036 . S
C895 N27 1.976 . S
C930 C194 2.033 . S
C925 N40 1.971 . S
C955 N1 1.977 . S
C960 C234 2.045 . S
