# Generated by pormake.
# Topology pyr, (3,6)-cn, num edge types: 1
# Building blocks:
#     Node 0, Type 0, BuildingBlock: ESEHIV_clean_linker_0, # of connection points: 3
#     Node 1, Type 0, BuildingBlock: ESEHIV_clean_linker_0, # of connection points: 3
#     Node 2, Type 0, BuildingBlock: ESEHIV_clean_linker_0, # of connection points: 3
#     Node 3, Type 0, BuildingBlock: ESEHIV_clean_linker_0, # of connection points: 3
#     Node 4, Type 0, BuildingBlock: ESEHIV_clean_linker_0, # of connection points: 3
#     Node 5, Type 0, BuildingBlock: ESEHIV_clean_linker_0, # of connection points: 3
#     Node 6, Type 0, BuildingBlock: ESEHIV_clean_linker_0, # of connection points: 3
#     Node 7, Type 0, BuildingBlock: ESEHIV_clean_linker_0, # of connection points: 3
#     Node 8, Type 1, BuildingBlock: MIDCAF_clean_sbu_0, # of connection points: 6
#     Node 9, Type 1, BuildingBlock: MIDCAF_clean_sbu_0, # of connection points: 6
#     Node 10, Type 1, BuildingBlock: MIDCAF_clean_sbu_0, # of connection points: 6
#     Node 11, Type 1, BuildingBlock: MIDCAF_clean_sbu_0, # of connection points: 6
#     Edge 12, Type (0, 1), BuildingBlock: OJICUG_clean_linker_0, # of connection points: 2
#     Edge 13, Type (0, 1), BuildingBlock: OJICUG_clean_linker_0, # of connection points: 2
#     Edge 14, Type (0, 1), BuildingBlock: OJICUG_clean_linker_0, # of connection points: 2
#     Edge 15, Type (0, 1), BuildingBlock: OJICUG_clean_linker_0, # of connection points: 2
#     Edge 16, Type (0, 1), BuildingBlock: OJICUG_clean_linker_0, # of connection points: 2
#     Edge 17, Type (0, 1), BuildingBlock: OJICUG_clean_linker_0, # of connection points: 2
#     Edge 18, Type (0, 1), BuildingBlock: OJICUG_clean_linker_0, # of connection points: 2
#     Edge 19, Type (0, 1), BuildingBlock: OJICUG_clean_linker_0, # of connection points: 2
#     Edge 20, Type (0, 1), BuildingBlock: OJICUG_clean_linker_0, # of connection points: 2
#     Edge 21, Type (0, 1), BuildingBlock: OJICUG_clean_linker_0, # of connection points: 2
#     Edge 22, Type (0, 1), BuildingBlock: OJICUG_clean_linker_0, # of connection points: 2
#     Edge 23, Type (0, 1), BuildingBlock: OJICUG_clean_linker_0, # of connection points: 2
#     Edge 24, Type (0, 1), BuildingBlock: OJICUG_clean_linker_0, # of connection points: 2
#     Edge 25, Type (0, 1), BuildingBlock: OJICUG_clean_linker_0, # of connection points: 2
#     Edge 26, Type (0, 1), BuildingBlock: OJICUG_clean_linker_0, # of connection points: 2
#     Edge 27, Type (0, 1), BuildingBlock: OJICUG_clean_linker_0, # of connection points: 2
#     Edge 28, Type (0, 1), BuildingBlock: OJICUG_clean_linker_0, # of connection points: 2
#     Edge 29, Type (0, 1), BuildingBlock: OJICUG_clean_linker_0, # of connection points: 2
#     Edge 30, Type (0, 1), BuildingBlock: OJICUG_clean_linker_0, # of connection points: 2
#     Edge 31, Type (0, 1), BuildingBlock: OJICUG_clean_linker_0, # of connection points: 2
#     Edge 32, Type (0, 1), BuildingBlock: OJICUG_clean_linker_0, # of connection points: 2
#     Edge 33, Type (0, 1), BuildingBlock: OJICUG_clean_linker_0, # of connection points: 2
#     Edge 34, Type (0, 1), BuildingBlock: OJICUG_clean_linker_0, # of connection points: 2
#     Edge 35, Type (0, 1), BuildingBlock: OJICUG_clean_linker_0, # of connection points: 2
# Relax obj value: 0.019
# Max RMSD: 0.063
# Mean RMSD: 0.024
data_MOF--net-pyr--node1-MIDCAF_clean_sbu_0--node2-ESEHIV_clean_linker_0--edge1-OJICUG_clean_linker_0
_symmetry_space_group_name_H-M    P1
_symmetry_Int_Tables_number       1
_symmetry_cell_setting            triclinic
loop_
_symmetry_equiv_pos_as_xyz
'x, y, z'
_cell_length_a     23.908158
_cell_length_b     23.804604
_cell_length_c     23.848312
_cell_angle_alpha  90.055208
_cell_angle_beta   90.045324
_cell_angle_gamma 90.251241
loop_
_atom_site_label
_atom_site_type_symbol
_atom_site_fract_x
_atom_site_fract_y
_atom_site_fract_z
_atom_type_partial_charge
H0 H 0.16176 0.27856 0.30123 0.0
H1 H 0.29542 0.16174 0.27602 0.0
H2 H 0.27582 0.30138 0.16435 0.0
C3 C 0.19828 0.26548 0.27819 0.0
C4 C 0.21464 0.29596 0.23016 0.0
C5 C 0.22617 0.21619 0.29468 0.0
C6 C 0.27378 0.19957 0.26404 0.0
C7 C 0.29173 0.22926 0.21621 0.0
C8 C 0.26262 0.27834 0.20097 0.0
H9 H 0.22618 0.86321 0.80187 0.0
H10 H 0.37614 0.76562 0.78497 0.0
H11 H 0.24032 0.74166 0.67015 0.0
C12 C 0.25052 0.83175 0.78027 0.0
C13 C 0.22848 0.80742 0.73122 0.0
C14 C 0.30468 0.8186 0.79954 0.0
C15 C 0.33354 0.77458 0.77285 0.0
C16 C 0.30963 0.74456 0.72769 0.0
C17 C 0.25737 0.76205 0.70685 0.0
H18 H 0.79642 0.25277 0.86576 0.0
H19 H 0.79202 0.38319 0.74186 0.0
H20 H 0.6673 0.2527 0.74064 0.0
C21 C 0.77789 0.27094 0.82865 0.0
C22 C 0.72939 0.24615 0.80594 0.0
C23 C 0.8008 0.32062 0.80606 0.0
C24 C 0.77528 0.34443 0.75856 0.0
C25 C 0.72684 0.32052 0.73442 0.0
C26 C 0.70496 0.27087 0.75813 0.0
H27 H 0.736 0.80154 0.3758 0.0
H28 H 0.87107 0.77936 0.26024 0.0
H29 H 0.7206 0.68127 0.24289 0.0
C30 C 0.75271 0.78155 0.33883 0.0
C31 C 0.72353 0.73627 0.31416 0.0
C32 C 0.80487 0.79948 0.31795 0.0
C33 C 0.82854 0.76994 0.27249 0.0
C34 C 0.7994 0.72594 0.24557 0.0
C35 C 0.74523 0.7125 0.26481 0.0
H36 H 0.89274 0.01442 0.87367 0.0
H37 H 0.00632 0.87611 0.89419 0.0
H38 H 0.86937 0.89725 0.00898 0.0
C39 C 0.90649 0.97782 0.89685 0.0
C40 C 0.87618 0.96017 0.94396 0.0
C41 C 0.95377 0.9478 0.87887 0.0
C42 C 0.9704 0.89982 0.90844 0.0
C43 C 0.9402 0.88168 0.95565 0.0
C44 C 0.89319 0.91187 0.97312 0.0
H45 H 0.53596 0.17593 0.38592 0.0
H46 H 0.65298 0.04029 0.36963 0.0
H47 H 0.66562 0.15479 0.50916 0.0
C48 C 0.57151 0.15277 0.40195 0.0
C49 C 0.59792 0.17018 0.45175 0.0
C50 C 0.59105 0.10597 0.37237 0.0
C51 C 0.63753 0.07632 0.39266 0.0
C52 C 0.66459 0.09343 0.44208 0.0
C53 C 0.64459 0.14064 0.47137 0.0
H54 H 0.36599 0.66022 0.0373 0.0
H55 H 0.38454 0.54171 0.17188 0.0
H56 H 0.50555 0.67432 0.15079 0.0
C57 C 0.38947 0.64455 0.0729 0.0
C58 C 0.43839 0.67241 0.08995 0.0
C59 C 0.37014 0.59718 0.10224 0.0
C60 C 0.40008 0.57773 0.14873 0.0
C61 C 0.44932 0.60512 0.16609 0.0
C62 C 0.46819 0.65248 0.13671 0.0
H63 H 0.02904 0.37349 0.65741 0.0
H64 H 0.16492 0.39054 0.54052 0.0
H65 H 0.1431 0.51354 0.67073 0.0
C66 C 0.06492 0.39678 0.64195 0.0
C67 C 0.08187 0.44631 0.66922 0.0
C68 C 0.09477 0.37667 0.59535 0.0
C69 C 0.14153 0.4065 0.57603 0.0
C70 C 0.15874 0.4563 0.60276 0.0
C71 C 0.129 0.47579 0.6494 0.0
Zn72 Zn 0.95461 0.08432 0.58654 0.0
Zn73 Zn 0.06574 0.95576 0.46973 0.0
Zn74 Zn 0.01048 0.02693 0.52964 0.0
C75 C 0.11044 0.06385 0.44722 0.0
C76 C 0.95799 0.9473 0.43094 0.0
O77 O 0.02003 1.00186 0.6197 0.0
O78 O 0.98923 0.07839 0.66086 0.0
C79 C 0.01316 0.16112 0.53088 0.0
O80 O 0.07192 0.07946 0.48172 0.0
O81 O 0.11764 0.01214 0.43783 0.0
O82 O 0.00598 0.92901 0.41925 0.0
O83 O 0.95152 0.98301 0.47114 0.0
O84 O 0.96443 0.15756 0.55058 0.0
O85 O 0.04097 0.11572 0.52128 0.0
O86 O 0.92001 0.02096 0.50411 0.0
O87 O 0.87913 0.0523 0.58052 0.0
C88 C 0.87502 0.03123 0.53224 0.0
O89 O 0.05293 0.96589 0.5863 0.0
O90 O 0.09207 0.90401 0.52952 0.0
C91 C 0.01125 0.03062 0.66473 0.0
C92 C 0.08155 0.9207 0.57861 0.0
Zn93 Zn 0.47477 0.08121 0.95538 0.0
Zn94 Zn 0.58355 0.96337 0.08055 0.0
Zn95 Zn 0.52778 0.01998 0.02285 0.0
C96 C 0.66299 0.01808 0.02697 0.0
C97 C 0.5268 0.88476 0.02715 0.0
O98 O 0.48038 0.08066 0.0767 0.0
O99 O 0.43876 0.13039 0.01096 0.0
C100 C 0.58107 0.09675 0.92108 0.0
O101 O 0.61822 0.028 0.99836 0.0
O102 O 0.65872 0.99571 0.07456 0.0
O103 O 0.57495 0.88831 0.04829 0.0
O104 O 0.49953 0.93017 0.0161 0.0
O105 O 0.53303 0.11235 0.90626 0.0
O106 O 0.58691 0.06331 0.96329 0.0
O107 O 0.46739 0.96284 0.9771 0.0
O108 O 0.42626 0.02427 0.92174 0.0
C109 C 0.43125 0.97435 0.93854 0.0
O110 O 0.51972 0.04952 0.11198 0.0
O111 O 0.54924 0.97298 0.15425 0.0
C112 C 0.4465 0.1202 0.06231 0.0
C113 C 0.52958 0.02183 0.15748 0.0
Zn114 Zn 0.56912 0.58023 0.57646 0.0
Zn115 Zn 0.44634 0.45644 0.45462 0.0
Zn116 Zn 0.50387 0.51531 0.51267 0.0
C117 C 0.50423 0.37954 0.51104 0.0
C118 C 0.5031 0.5144 0.3775 0.0
O119 O 0.44934 0.56109 0.57212 0.0
O120 O 0.50883 0.60422 0.62906 0.0
C121 C 0.60706 0.46973 0.58822 0.0
O122 O 0.53067 0.42565 0.52197 0.0
O123 O 0.45714 0.38173 0.48743 0.0
O124 O 0.47919 0.46722 0.37999 0.0
O125 O 0.51355 0.54145 0.42324 0.0
O126 O 0.62163 0.51944 0.59995 0.0
O127 O 0.56349 0.46037 0.55769 0.0
O128 O 0.54777 0.5758 0.45746 0.0
O129 O 0.59188 0.6334 0.5157 0.0
C130 C 0.5785 0.61955 0.46633 0.0
O131 O 0.41484 0.52476 0.53945 0.0
O132 O 0.37213 0.48944 0.46553 0.0
C133 C 0.45915 0.59253 0.61508 0.0
C134 C 0.36935 0.51367 0.51242 0.0
Zn135 Zn 0.07838 0.59083 0.96128 0.0
Zn136 Zn 0.95665 0.46655 0.06857 0.0
Zn137 Zn 0.02174 0.53312 0.01824 0.0
C138 C 0.06233 0.44592 0.11356 0.0
C139 C 0.94383 0.43386 0.96142 0.0
O140 O 0.99385 0.62232 0.02813 0.0
O141 O 0.06947 0.66452 0.99618 0.0
C142 C 0.15554 0.53623 0.01985 0.0
O143 O 0.07624 0.48513 0.07876 0.0
O144 O 0.01182 0.43094 0.11711 0.0
O145 O 0.92568 0.41889 0.00867 0.0
O146 O 0.97887 0.47508 0.9575 0.0
O147 O 0.15208 0.55729 0.97159 0.0
O148 O 0.11037 0.52542 0.04757 0.0
O149 O 0.01557 0.50923 0.92687 0.0
O150 O 0.04823 0.5849 0.88504 0.0
C151 C 0.02621 0.53692 0.88148 0.0
O152 O 0.96075 0.58751 0.06498 0.0
O153 O 0.90786 0.52244 0.1042 0.0
C154 C 0.0217 0.6678 0.01803 0.0
C155 C 0.9195 0.57371 0.09714 0.0
C156 C 0.2073 0.11969 0.33451 0.0
C157 C 0.2013 0.17837 0.33875 0.0
H158 H 0.18558 0.03886 0.36564 0.0
C159 C 0.16735 0.19937 0.38242 0.0
H160 H 0.23101 0.10069 0.30095 0.0
C161 C 0.13828 0.16279 0.41837 0.0
C162 C 0.14411 0.10439 0.4134 0.0
H163 H 0.16197 0.24408 0.38836 0.0
H164 H 0.11018 0.18025 0.44881 0.0
C165 C 0.1801 0.08361 0.37163 0.0
C166 C 0.37905 0.83667 0.87467 0.0
C167 C 0.33346 0.85561 0.842 0.0
H168 H 0.44759 0.85942 0.92848 0.0
C169 C 0.31852 0.91261 0.84648 0.0
H170 H 0.39187 0.79316 0.87359 0.0
C171 C 0.34833 0.94927 0.88086 0.0
C172 C 0.3956 0.93122 0.91076 0.0
H173 H 0.28539 0.93049 0.82142 0.0
H174 H 0.33553 0.99286 0.88185 0.0
C175 C 0.41038 0.87432 0.90775 0.0
C176 C 0.72501 0.38622 0.65092 0.0
C177 C 0.69613 0.35097 0.6887 0.0
H178 H 0.71923 0.45212 0.58984 0.0
C179 C 0.63712 0.34952 0.68568 0.0
H180 H 0.77025 0.38738 0.64999 0.0
C181 C 0.60814 0.38468 0.64878 0.0
C182 C 0.63729 0.42326 0.61533 0.0
H183 H 0.6127 0.32397 0.71413 0.0
H184 H 0.56282 0.38477 0.64964 0.0
C185 C 0.6959 0.4228 0.61562 0.0
C186 C 0.8727 0.70902 0.16944 0.0
C187 C 0.82755 0.68949 0.20243 0.0
H188 H 0.93901 0.68768 0.1129 0.0
C189 C 0.81195 0.63259 0.19703 0.0
H190 H 0.88615 0.75243 0.17135 0.0
C191 C 0.8401 0.5968 0.16062 0.0
C192 C 0.88645 0.61558 0.12951 0.0
H193 H 0.77932 0.61419 0.22251 0.0
H194 H 0.82651 0.55335 0.15875 0.0
C195 C 0.90245 0.67221 0.13438 0.0
C196 C 0.37811 0.16919 0.19853 0.0
C197 C 0.33594 0.20531 0.1783 0.0
H198 H 0.44352 0.11173 0.17811 0.0
C199 C 0.33358 0.21489 0.12006 0.0
H200 H 0.38254 0.16089 0.24289 0.0
C201 C 0.37139 0.18949 0.08369 0.0
C202 C 0.41182 0.15164 0.10357 0.0
H203 H 0.30109 0.24018 0.1014 0.0
H204 H 0.36701 0.19792 0.03928 0.0
C205 C 0.41455 0.14176 0.16147 0.0
C206 C 0.17358 0.89373 0.70357 0.0
C207 C 0.18067 0.83483 0.70093 0.0
H208 H 0.13527 0.96676 0.66788 0.0
C209 C 0.14666 0.80428 0.66332 0.0
H210 H 0.19905 0.91954 0.73095 0.0
C211 C 0.11153 0.83213 0.62559 0.0
C212 C 0.10782 0.89096 0.62602 0.0
H213 H 0.14889 0.75896 0.66099 0.0
H214 H 0.08885 0.80779 0.59454 0.0
C215 C 0.13706 0.92129 0.66703 0.0
C216 C 0.84766 0.41003 0.83973 0.0
C217 C 0.84695 0.3508 0.83638 0.0
H218 H 0.88111 0.48301 0.88102 0.0
C219 C 0.88694 0.32075 0.86761 0.0
H220 H 0.81742 0.43509 0.81723 0.0
C221 C 0.92203 0.34849 0.90562 0.0
C222 C 0.91958 0.407 0.91148 0.0
H223 H 0.88929 0.27542 0.86497 0.0
H224 H 0.94918 0.32398 0.93242 0.0
C225 C 0.88413 0.43782 0.87648 0.0
C226 C 0.64273 0.73796 0.38319 0.0
C227 C 0.67593 0.70823 0.34446 0.0
H228 H 0.58623 0.73286 0.45294 0.0
C229 C 0.66844 0.64938 0.34077 0.0
H230 H 0.64519 0.78323 0.38634 0.0
C231 C 0.63242 0.62104 0.3773 0.0
C232 C 0.60416 0.65047 0.41937 0.0
H233 H 0.69328 0.62413 0.31256 0.0
H234 H 0.63029 0.57559 0.37556 0.0
C235 C 0.6082 0.70926 0.421 0.0
C236 C 0.11918 0.33788 0.21433 0.0
C237 C 0.1774 0.34068 0.20592 0.0
H238 H 0.03875 0.36958 0.19439 0.0
C239 C 0.19806 0.38292 0.16964 0.0
H240 H 0.10018 0.3056 0.23994 0.0
C241 C 0.16139 0.41823 0.14018 0.0
C242 C 0.10342 0.41415 0.14806 0.0
H243 H 0.24244 0.38795 0.1624 0.0
H244 H 0.17835 0.44684 0.10969 0.0
C245 C 0.08318 0.3745 0.18688 0.0
C246 C 0.6676 0.15956 0.80569 0.0
C247 C 0.7005 0.19863 0.83563 0.0
H248 H 0.60355 0.0963 0.80976 0.0
C249 C 0.70074 0.19531 0.89481 0.0
H250 H 0.66744 0.15912 0.76031 0.0
C251 C 0.66606 0.1571 0.92294 0.0
C252 C 0.62941 0.12248 0.89267 0.0
H253 H 0.72457 0.22475 0.91992 0.0
H254 H 0.66432 0.15819 0.96834 0.0
C255 C 0.63166 0.12272 0.83392 0.0
C256 C 0.83426 0.85336 0.40523 0.0
C257 C 0.83732 0.84535 0.3466 0.0
H258 H 0.86893 0.89428 0.47774 0.0
C259 C 0.87458 0.87942 0.31585 0.0
H260 H 0.80702 0.82778 0.43097 0.0
C261 C 0.91117 0.91627 0.34325 0.0
C262 C 0.91002 0.92157 0.40179 0.0
H263 H 0.87717 0.87609 0.27065 0.0
H264 H 0.94216 0.93887 0.31885 0.0
C265 C 0.86979 0.89162 0.43238 0.0
C266 C 0.33796 0.68947 0.64099 0.0
C267 C 0.34194 0.69863 0.69939 0.0
H268 H 0.37076 0.64679 0.5689 0.0
C269 C 0.37982 0.66553 0.7302 0.0
H270 H 0.31031 0.71425 0.61513 0.0
C271 C 0.41583 0.62827 0.70302 0.0
C272 C 0.41344 0.62149 0.64466 0.0
H273 H 0.38311 0.66964 0.7753 0.0
H274 H 0.44687 0.60603 0.72746 0.0
C275 C 0.3728 0.65073 0.61413 0.0
C276 C 0.99909 0.02177 0.82052 0.0
C277 C 0.98336 0.96542 0.82733 0.0
H278 H 0.02329 0.08621 0.7632 0.0
C279 C 0.98968 0.92796 0.78217 0.0
H280 H 0.99549 0.05118 0.85503 0.0
C281 C 0.00546 0.94802 0.72925 0.0
C282 C 0.01535 0.00568 0.72121 0.0
H283 H 0.97792 0.88419 0.78658 0.0
H284 H 0.00464 0.91942 0.69392 0.0
C285 C 0.01534 0.04163 0.76804 0.0
C286 C 0.56353 0.12469 0.27283 0.0
C287 C 0.56418 0.08849 0.31933 0.0
H288 H 0.55145 0.13179 0.1839 0.0
C289 C 0.54372 0.03357 0.31352 0.0
H290 H 0.57929 0.16727 0.27655 0.0
C291 C 0.52639 0.01385 0.26121 0.0
C292 C 0.53009 0.04838 0.2135 0.0
H293 H 0.54346 0.00517 0.349 0.0
H294 H 0.5137 0.97026 0.25739 0.0
C295 C 0.54716 0.10459 0.22005 0.0
C296 C 0.48617 0.62119 0.26312 0.0
C297 C 0.47864 0.58531 0.21685 0.0
H298 H 0.50079 0.62655 0.35167 0.0
C299 C 0.49209 0.52833 0.22201 0.0
H300 H 0.47608 0.6654 0.25994 0.0
C301 C 0.50716 0.50636 0.27395 0.0
C302 C 0.50826 0.54087 0.32182 0.0
H303 H 0.48738 0.5001 0.18662 0.0
H304 H 0.51329 0.46143 0.2775 0.0
C305 C 0.50076 0.59903 0.31549 0.0
C306 C 0.03957 0.52335 0.72574 0.0
C307 C 0.05292 0.46631 0.72032 0.0
H308 H 0.01819 0.5902 0.78137 0.0
C309 C 0.04517 0.43042 0.76652 0.0
H310 H 0.04421 0.55166 0.69048 0.0
C311 C 0.03023 0.45251 0.81887 0.0
C312 C 0.02269 0.51066 0.82543 0.0
H313 H 0.05513 0.38619 0.76332 0.0
H314 H 0.02971 0.42487 0.8549 0.0
C315 C 0.02437 0.54527 0.77772 0.0
C316 C 0.81825 0.00463 0.01827 0.0
C317 C 0.82505 0.98999 0.96178 0.0
H318 H 0.76119 0.02797 0.08287 0.0
C319 C 0.78022 0.99755 0.92436 0.0
H320 H 0.85253 1.0001 0.04766 0.0
C321 C 0.72755 0.01344 0.94452 0.0
C322 C 0.71945 0.02207 0.00224 0.0
H323 H 0.78466 0.98668 0.88048 0.0
H324 H 0.69239 0.01368 0.91585 0.0
C325 C 0.76604 0.0209 0.03824 0.0
C326 C 0.76075 0.05423 0.42635 0.0
C327 C 0.71518 0.06392 0.46234 0.0
H328 H 0.84812 0.03488 0.42038 0.0
C329 C 0.72033 0.05053 0.51933 0.0
H330 H 0.75771 0.064 0.3821 0.0
C331 C 0.77157 0.03319 0.541 0.0
C332 C 0.81891 0.02949 0.50623 0.0
H333 H 0.68547 0.0564 0.54772 0.0
H334 H 0.7751 0.02689 0.58586 0.0
C335 C 0.8124 0.03715 0.44818 0.0
C336 C 0.27137 0.56836 0.12185 0.0
C337 C 0.31736 0.56973 0.08522 0.0
H338 H 0.18274 0.55594 0.12964 0.0
C339 C 0.31112 0.54983 0.0303 0.0
H340 H 0.27547 0.58368 0.16445 0.0
C341 C 0.25877 0.53258 0.01094 0.0
C342 C 0.21152 0.53586 0.04588 0.0
H343 H 0.34624 0.55014 1.0016 0.0
H344 H 0.25451 0.5205 0.96732 0.0
C345 C 0.21856 0.55206 0.10213 0.0
C346 C 0.255 0.49551 0.61872 0.0
C347 C 0.20928 0.48608 0.58272 0.0
H348 H 0.34294 0.51312 0.62441 0.0
C349 C 0.21452 0.49898 0.52567 0.0
H350 H 0.25171 0.48606 0.66302 0.0
C351 C 0.26608 0.51534 0.50385 0.0
C352 C 0.3136 0.51822 0.53855 0.0
H353 H 0.17951 0.49302 0.49735 0.0
H354 H 0.26973 0.52099 0.45892 0.0
C355 C 0.30705 0.51144 0.59671 0.0
C356 C 0.91989 0.78373 0.98817 0.0
C357 C 0.95687 0.82967 0.98481 0.0
H358 H 0.91161 0.69506 0.0024 0.0
C359 C 0.01193 0.82371 0.00389 0.0
H360 H 0.87714 0.78758 0.97364 0.0
C361 C 0.03117 0.77147 0.02159 0.0
C362 C 0.99597 0.72401 0.01957 0.0
H363 H 0.04089 0.85882 0.00226 0.0
H364 H 0.07494 0.76731 0.0326 0.0
C365 C 0.93945 0.73101 0.00508 0.0
C366 C 0.42166 0.77045 0.05599 0.0
C367 C 0.45739 0.72399 0.06111 0.0
H368 H 0.41583 0.85898 0.0403 0.0
C369 C 0.51325 0.72904 0.04408 0.0
H370 H 0.37832 0.7674 0.06892 0.0
C371 C 0.53432 0.78083 0.02667 0.0
C372 C 0.50011 0.82874 0.02674 0.0
H373 H 0.54133 0.69354 0.04697 0.0
H374 H 0.57851 0.78423 0.01709 0.0
C375 C 0.44299 0.82269 0.03925 0.0
C376 C 0.02382 0.31737 0.54643 0.0
C377 C 0.07792 0.32341 0.56822 0.0
H378 H 0.96189 0.26094 0.51422 0.0
C379 C 0.11416 0.27709 0.56798 0.0
H380 H 0.99543 0.35272 0.54582 0.0
C381 C 0.09483 0.22423 0.55058 0.0
C382 C 0.03943 0.21741 0.53193 0.0
H383 H 0.15612 0.281 0.58474 0.0
H384 H 0.12191 0.18817 0.55536 0.0
C385 C 0.00494 0.265 0.52795 0.0
C386 C 0.61222 0.26699 0.49126 0.0
C387 C 0.57712 0.2204 0.48166 0.0
H388 H 0.61642 0.35522 0.50941 0.0
C389 C 0.52013 0.22439 0.49466 0.0
H390 H 0.65644 0.2647 0.48171 0.0
C391 C 0.49752 0.27554 0.51147 0.0
C392 C 0.5313 0.32397 0.51473 0.0
H393 H 0.49247 0.18872 0.48854 0.0
H394 H 0.45265 0.27818 0.51729 0.0
C395 C 0.5894 0.31864 0.50761 0.0
loop_
_geom_bond_atom_site_label_1
_geom_bond_atom_site_label_2
_geom_bond_distance
_geom_bond_site_symmetry_2
_ccdc_geom_bond_type
H0 C3 0.931 . S
H1 C6 0.928 . S
H2 C8 0.930 . S
C3 H0 0.931 . S
C3 C4 1.413 . S
C3 C5 1.360 . S
C4 C3 1.413 . S
C4 C8 1.429 . S
C5 C3 1.360 . S
C5 C6 1.372 . S
C6 H1 0.928 . S
C6 C5 1.372 . S
C6 C7 1.404 . S
C7 C6 1.404 . S
C7 C8 1.391 . S
C8 H2 0.930 . S
C8 C4 1.429 . S
C8 C7 1.391 . S
H9 C12 0.931 . S
H10 C15 0.928 . S
H11 C17 0.930 . S
C12 H9 0.931 . S
C12 C13 1.413 . S
C12 C14 1.360 . S
C13 C12 1.413 . S
C13 C17 1.429 . S
C14 C12 1.360 . S
C14 C15 1.372 . S
C15 H10 0.928 . S
C15 C14 1.372 . S
C15 C16 1.404 . S
C16 C15 1.404 . S
C16 C17 1.391 . S
C17 H11 0.930 . S
C17 C13 1.429 . S
C17 C16 1.391 . S
H18 C21 0.931 . S
H19 C24 0.928 . S
H20 C26 0.930 . S
C21 H18 0.931 . S
C21 C22 1.413 . S
C21 C23 1.360 . S
C22 C21 1.413 . S
C22 C26 1.429 . S
C23 C21 1.360 . S
C23 C24 1.372 . S
C24 H19 0.928 . S
C24 C23 1.372 . S
C24 C25 1.404 . S
C25 C24 1.404 . S
C25 C26 1.391 . S
C26 H20 0.930 . S
C26 C22 1.429 . S
C26 C25 1.391 . S
H27 C30 0.931 . S
H28 C33 0.928 . S
H29 C35 0.930 . S
C30 H27 0.931 . S
C30 C31 1.413 . S
C30 C32 1.360 . S
C31 C30 1.413 . S
C31 C35 1.429 . S
C32 C30 1.360 . S
C32 C33 1.372 . S
C33 H28 0.928 . S
C33 C32 1.372 . S
C33 C34 1.404 . S
C34 C33 1.404 . S
C34 C35 1.391 . S
C35 H29 0.930 . S
C35 C31 1.429 . S
C35 C34 1.391 . S
H36 C39 0.931 1_545 S
H37 C42 0.928 1_455 S
H38 C44 0.930 1_554 S
C39 H36 0.931 1_565 S
C39 C40 1.413 . S
C39 C41 1.360 . S
C40 C39 1.413 . S
C40 C44 1.429 . S
C41 C39 1.360 . S
C41 C42 1.372 . S
C42 H37 0.928 1_655 S
C42 C41 1.372 . S
C42 C43 1.404 . S
C43 C42 1.404 . S
C43 C44 1.391 . S
C44 H38 0.930 1_556 S
C44 C40 1.429 . S
C44 C43 1.391 . S
H45 C48 0.931 . S
H46 C51 0.928 . S
H47 C53 0.930 . S
C48 H45 0.931 . S
C48 C49 1.413 . S
C48 C50 1.360 . S
C49 C48 1.413 . S
C49 C53 1.429 . S
C50 C48 1.360 . S
C50 C51 1.372 . S
C51 H46 0.928 . S
C51 C50 1.372 . S
C51 C52 1.404 . S
C52 C51 1.404 . S
C52 C53 1.391 . S
C53 H47 0.930 . S
C53 C49 1.429 . S
C53 C52 1.391 . S
H54 C57 0.931 . S
H55 C60 0.928 . S
H56 C62 0.930 . S
C57 H54 0.931 . S
C57 C58 1.413 . S
C57 C59 1.360 . S
C58 C57 1.413 . S
C58 C62 1.429 . S
C59 C57 1.360 . S
C59 C60 1.372 . S
C60 H55 0.928 . S
C60 C59 1.372 . S
C60 C61 1.404 . S
C61 C60 1.404 . S
C61 C62 1.391 . S
C62 H56 0.930 . S
C62 C58 1.429 . S
C62 C61 1.391 . S
H63 C66 0.931 . S
H64 C69 0.928 . S
H65 C71 0.930 . S
C66 H63 0.931 . S
C66 C67 1.413 . S
C66 C68 1.360 . S
C67 C66 1.413 . S
C67 C71 1.429 . S
C68 C66 1.360 . S
C68 C69 1.372 . S
C69 H64 0.928 . S
C69 C68 1.372 . S
C69 C70 1.404 . S
C70 C69 1.404 . S
C70 C71 1.391 . S
C71 H65 0.930 . S
C71 C67 1.429 . S
C71 C70 1.391 . S
Zn72 O78 1.920 . S
Zn72 O84 1.898 . S
Zn72 O87 1.905 . S
Zn73 O81 1.905 1_565 S
Zn73 O82 1.898 . S
Zn73 O90 1.920 . S
Zn74 O77 2.080 1_455 S
Zn74 O80 2.114 . S
Zn74 O83 2.120 1_445 S
Zn74 O85 2.120 . S
Zn74 O86 2.114 1_455 S
Zn74 O89 2.080 . S
C75 O80 1.166 . S
C75 O81 1.182 . S
C76 O82 1.167 1_655 S
C76 O83 1.299 . S
O77 Zn74 2.080 1_655 S
O77 C91 1.305 . S
O78 Zn72 1.920 . S
O78 C91 1.234 . S
C79 O84 1.167 1_455 S
C79 O85 1.299 . S
O80 Zn74 2.114 . S
O80 C75 1.166 . S
O81 Zn73 1.905 1_545 S
O81 C75 1.182 . S
O82 Zn73 1.898 . S
O82 C76 1.167 1_455 S
O83 Zn74 2.120 1_665 S
O83 C76 1.299 . S
O84 Zn72 1.898 . S
O84 C79 1.167 1_655 S
O85 Zn74 2.120 . S
O85 C79 1.299 . S
O86 Zn74 2.114 1_655 S
O86 C88 1.166 . S
O87 Zn72 1.905 . S
O87 C88 1.182 . S
C88 O86 1.166 . S
C88 O87 1.182 . S
O89 Zn74 2.080 . S
O89 C92 1.305 1_545 S
O90 Zn73 1.920 . S
O90 C92 1.234 . S
C91 O77 1.305 . S
C91 O78 1.234 . S
C92 O89 1.305 1_565 S
C92 O90 1.234 . S
Zn93 O99 1.920 1_556 S
Zn93 O105 1.898 . S
Zn93 O108 1.905 . S
Zn94 O102 1.905 . S
Zn94 O103 1.898 . S
Zn94 O111 1.920 . S
Zn95 O98 2.080 . S
Zn95 O101 2.114 1_545 S
Zn95 O104 2.120 1_545 S
Zn95 O106 2.120 . S
Zn95 O107 2.114 1_544 S
Zn95 O110 2.080 . S
C96 O101 1.166 . S
C96 O102 1.182 . S
C97 O103 1.167 . S
C97 O104 1.299 . S
O98 Zn95 2.080 . S
O98 C112 1.305 . S
O99 Zn93 1.920 1_554 S
O99 C112 1.234 . S
C100 O105 1.167 . S
C100 O106 1.299 1_556 S
O101 Zn95 2.114 1_565 S
O101 C96 1.166 . S
O102 Zn94 1.905 . S
O102 C96 1.182 . S
O103 Zn94 1.898 . S
O103 C97 1.167 . S
O104 Zn95 2.120 1_565 S
O104 C97 1.299 . S
O105 Zn93 1.898 . S
O105 C100 1.167 . S
O106 Zn95 2.120 . S
O106 C100 1.299 1_554 S
O107 Zn95 2.114 1_566 S
O107 C109 1.166 . S
O108 Zn93 1.905 . S
O108 C109 1.182 1_545 S
C109 O107 1.166 . S
C109 O108 1.182 1_565 S
O110 Zn95 2.080 . S
O110 C113 1.305 . S
O111 Zn94 1.920 . S
O111 C113 1.234 1_565 S
C112 O98 1.305 . S
C112 O99 1.234 . S
C113 O110 1.305 . S
C113 O111 1.234 1_545 S
Zn114 O120 1.920 . S
Zn114 O126 1.898 . S
Zn114 O129 1.905 . S
Zn115 O123 1.905 . S
Zn115 O124 1.898 . S
Zn115 O132 1.920 . S
Zn116 O119 2.080 . S
Zn116 O122 2.114 . S
Zn116 O125 2.120 . S
Zn116 O127 2.120 . S
Zn116 O128 2.114 . S
Zn116 O131 2.080 . S
C117 O122 1.166 . S
C117 O123 1.182 . S
C118 O124 1.167 . S
C118 O125 1.299 . S
O119 Zn116 2.080 . S
O119 C133 1.305 . S
O120 Zn114 1.920 . S
O120 C133 1.234 . S
C121 O126 1.167 . S
C121 O127 1.299 . S
O122 Zn116 2.114 . S
O122 C117 1.166 . S
O123 Zn115 1.905 . S
O123 C117 1.182 . S
O124 Zn115 1.898 . S
O124 C118 1.167 . S
O125 Zn116 2.120 . S
O125 C118 1.299 . S
O126 Zn114 1.898 . S
O126 C121 1.167 . S
O127 Zn116 2.120 . S
O127 C121 1.299 . S
O128 Zn116 2.114 . S
O128 C130 1.166 . S
O129 Zn114 1.905 . S
O129 C130 1.182 . S
C130 O128 1.166 . S
C130 O129 1.182 . S
O131 Zn116 2.080 . S
O131 C134 1.305 . S
O132 Zn115 1.920 . S
O132 C134 1.234 . S
C133 O119 1.305 . S
C133 O120 1.234 . S
C134 O131 1.305 . S
C134 O132 1.234 . S
Zn135 O141 1.920 . S
Zn135 O147 1.898 . S
Zn135 O150 1.905 . S
Zn136 O144 1.905 1_655 S
Zn136 O145 1.898 . S
Zn136 O153 1.920 . S
Zn137 O140 2.080 1_554 S
Zn137 O143 2.114 . S
Zn137 O146 2.120 1_454 S
Zn137 O148 2.120 . S
Zn137 O149 2.114 1_554 S
Zn137 O152 2.080 . S
C138 O143 1.166 . S
C138 O144 1.182 . S
C139 O145 1.167 1_556 S
C139 O146 1.299 . S
O140 Zn137 2.080 1_556 S
O140 C154 1.305 . S
O141 Zn135 1.920 . S
O141 C154 1.234 . S
C142 O147 1.167 1_554 S
C142 O148 1.299 . S
O143 Zn137 2.114 . S
O143 C138 1.166 . S
O144 Zn136 1.905 1_455 S
O144 C138 1.182 . S
O145 Zn136 1.898 . S
O145 C139 1.167 1_554 S
O146 Zn137 2.120 1_656 S
O146 C139 1.299 . S
O147 Zn135 1.898 . S
O147 C142 1.167 1_556 S
O148 Zn137 2.120 . S
O148 C142 1.299 . S
O149 Zn137 2.114 1_556 S
O149 C151 1.166 . S
O150 Zn135 1.905 . S
O150 C151 1.182 . S
C151 O149 1.166 . S
C151 O150 1.182 . S
O152 Zn137 2.080 . S
O152 C155 1.305 1_455 S
O153 Zn136 1.920 . S
O153 C155 1.234 . S
C154 O140 1.305 . S
C154 O141 1.234 . S
C155 O152 1.305 1_655 S
C155 O153 1.234 . S
C156 C157 1.387 . S
C156 H160 0.950 . S
C156 C165 1.390 . S
C157 C156 1.387 . S
C157 C159 1.387 . S
H158 C165 0.950 . S
C159 C157 1.387 . S
C159 C161 1.390 . S
C159 H163 0.950 . S
H160 C156 0.950 . S
C161 C159 1.390 . S
C161 C162 1.387 . S
C161 H164 0.950 . S
C162 C161 1.387 . S
C162 C165 1.387 . S
H163 C159 0.950 . S
H164 C161 0.950 . S
C165 C156 1.390 . S
C165 H158 0.950 . S
C165 C162 1.387 . S
C166 C167 1.387 . S
C166 H170 0.950 . S
C166 C175 1.390 . S
C167 C166 1.387 . S
C167 C169 1.387 . S
H168 C175 0.950 . S
C169 C167 1.387 . S
C169 C171 1.390 . S
C169 H173 0.950 . S
H170 C166 0.950 . S
C171 C169 1.390 . S
C171 C172 1.387 . S
C171 H174 0.950 1_565 S
C172 C171 1.387 . S
C172 C175 1.387 . S
H173 C169 0.950 . S
H174 C171 0.950 1_545 S
C175 C166 1.390 . S
C175 H168 0.950 . S
C175 C172 1.387 . S
C176 C177 1.387 . S
C176 H180 0.950 . S
C176 C185 1.390 . S
C177 C176 1.387 . S
C177 C179 1.387 . S
H178 C185 0.950 . S
C179 C177 1.387 . S
C179 C181 1.390 . S
C179 H183 0.950 . S
H180 C176 0.950 . S
C181 C179 1.390 . S
C181 C182 1.387 . S
C181 H184 0.950 . S
C182 C181 1.387 . S
C182 C185 1.387 . S
H183 C179 0.950 . S
H184 C181 0.950 . S
C185 C176 1.390 . S
C185 H178 0.950 . S
C185 C182 1.387 . S
C186 C187 1.387 . S
C186 H190 0.950 . S
C186 C195 1.390 . S
C187 C186 1.387 . S
C187 C189 1.387 . S
H188 C195 0.950 . S
C189 C187 1.387 . S
C189 C191 1.390 . S
C189 H193 0.950 . S
H190 C186 0.950 . S
C191 C189 1.390 . S
C191 C192 1.387 . S
C191 H194 0.950 . S
C192 C191 1.387 . S
C192 C195 1.387 . S
H193 C189 0.950 . S
H194 C191 0.950 . S
C195 C186 1.390 . S
C195 H188 0.950 . S
C195 C192 1.387 . S
C196 C197 1.387 . S
C196 H200 0.950 . S
C196 C205 1.390 . S
C197 C196 1.387 . S
C197 C199 1.387 . S
H198 C205 0.950 . S
C199 C197 1.387 . S
C199 C201 1.390 . S
C199 H203 0.950 . S
H200 C196 0.950 . S
C201 C199 1.390 . S
C201 C202 1.387 . S
C201 H204 0.950 . S
C202 C201 1.387 . S
C202 C205 1.387 . S
H203 C199 0.950 . S
H204 C201 0.950 . S
C205 C196 1.390 . S
C205 H198 0.950 . S
C205 C202 1.387 . S
C206 C207 1.387 . S
C206 H210 0.950 . S
C206 C215 1.390 . S
C207 C206 1.387 . S
C207 C209 1.387 . S
H208 C215 0.950 1_545 S
C209 C207 1.387 . S
C209 C211 1.390 . S
C209 H213 0.950 . S
H210 C206 0.950 . S
C211 C209 1.390 . S
C211 C212 1.387 . S
C211 H214 0.950 . S
C212 C211 1.387 . S
C212 C215 1.387 . S
H213 C209 0.950 . S
H214 C211 0.950 . S
C215 C206 1.390 . S
C215 H208 0.950 1_565 S
C215 C212 1.387 . S
C216 C217 1.387 . S
C216 H220 0.950 . S
C216 C225 1.390 . S
C217 C216 1.387 . S
C217 C219 1.387 . S
H218 C225 0.950 . S
C219 C217 1.387 . S
C219 C221 1.390 . S
C219 H223 0.950 . S
H220 C216 0.950 . S
C221 C219 1.390 . S
C221 C222 1.387 . S
C221 H224 0.950 . S
C222 C221 1.387 . S
C222 C225 1.387 . S
H223 C219 0.950 . S
H224 C221 0.950 . S
C225 C216 1.390 . S
C225 H218 0.950 . S
C225 C222 1.387 . S
C226 C227 1.387 . S
C226 H230 0.950 . S
C226 C235 1.390 . S
C227 C226 1.387 . S
C227 C229 1.387 . S
H228 C235 0.950 . S
C229 C227 1.387 . S
C229 C231 1.390 . S
C229 H233 0.950 . S
H230 C226 0.950 . S
C231 C229 1.390 . S
C231 C232 1.387 . S
C231 H234 0.950 . S
C232 C231 1.387 . S
C232 C235 1.387 . S
H233 C229 0.950 . S
H234 C231 0.950 . S
C235 C226 1.390 . S
C235 H228 0.950 . S
C235 C232 1.387 . S
C236 C237 1.387 . S
C236 H240 0.950 . S
C236 C245 1.390 . S
C237 C236 1.387 . S
C237 C239 1.387 . S
H238 C245 0.950 . S
C239 C237 1.387 . S
C239 C241 1.390 . S
C239 H243 0.950 . S
H240 C236 0.950 . S
C241 C239 1.390 . S
C241 C242 1.387 . S
C241 H244 0.950 . S
C242 C241 1.387 . S
C242 C245 1.387 . S
H243 C239 0.950 . S
H244 C241 0.950 . S
C245 C236 1.390 . S
C245 H238 0.950 . S
C245 C242 1.387 . S
C246 C247 1.387 . S
C246 H250 0.950 . S
C246 C255 1.390 . S
C247 C246 1.387 . S
C247 C249 1.387 . S
H248 C255 0.950 . S
C249 C247 1.387 . S
C249 C251 1.390 . S
C249 H253 0.950 . S
H250 C246 0.950 . S
C251 C249 1.390 . S
C251 C252 1.387 . S
C251 H254 0.950 1_556 S
C252 C251 1.387 . S
C252 C255 1.387 . S
H253 C249 0.950 . S
H254 C251 0.950 1_554 S
C255 C246 1.390 . S
C255 H248 0.950 . S
C255 C252 1.387 . S
C256 C257 1.387 . S
C256 H260 0.950 . S
C256 C265 1.390 . S
C257 C256 1.387 . S
C257 C259 1.387 . S
H258 C265 0.950 . S
C259 C257 1.387 . S
C259 C261 1.390 . S
C259 H263 0.950 . S
H260 C256 0.950 . S
C261 C259 1.390 . S
C261 C262 1.387 . S
C261 H264 0.950 . S
C262 C261 1.387 . S
C262 C265 1.387 . S
H263 C259 0.950 . S
H264 C261 0.950 . S
C265 C256 1.390 . S
C265 H258 0.950 . S
C265 C262 1.387 . S
C266 C267 1.387 . S
C266 H270 0.950 . S
C266 C275 1.390 . S
C267 C266 1.387 . S
C267 C269 1.387 . S
H268 C275 0.950 . S
C269 C267 1.387 . S
C269 C271 1.390 . S
C269 H273 0.950 . S
H270 C266 0.950 . S
C271 C269 1.390 . S
C271 C272 1.387 . S
C271 H274 0.950 . S
C272 C271 1.387 . S
C272 C275 1.387 . S
H273 C269 0.950 . S
H274 C271 0.950 . S
C275 C266 1.390 . S
C275 H268 0.950 . S
C275 C272 1.387 . S
C276 C277 1.387 1_455 S
C276 H280 0.950 1_565 S
C276 C285 1.390 1_565 S
C277 C276 1.387 1_655 S
C277 C279 1.387 . S
H278 C285 0.950 . S
C279 C277 1.387 . S
C279 C281 1.390 . S
C279 H283 0.950 . S
H280 C276 0.950 1_545 S
C281 C279 1.390 . S
C281 C282 1.393 . S
C281 H284 0.950 . S
C282 C281 1.393 . S
C282 C285 1.385 1_665 S
H283 C279 0.950 . S
H284 C281 0.950 . S
C285 C276 1.390 1_545 S
C285 H278 0.950 . S
C285 C282 1.385 1_445 S
C286 C287 1.387 . S
C286 H290 0.950 . S
C286 C295 1.390 . S
C287 C286 1.387 . S
C287 C289 1.387 . S
H288 C295 0.950 . S
C289 C287 1.387 . S
C289 C291 1.390 . S
C289 H293 0.950 . S
H290 C286 0.950 . S
C291 C289 1.390 . S
C291 C292 1.387 . S
C291 H294 0.950 . S
C292 C291 1.387 . S
C292 C295 1.387 . S
H293 C289 0.950 . S
H294 C291 0.950 . S
C295 C286 1.390 . S
C295 H288 0.950 . S
C295 C292 1.387 . S
C296 C297 1.387 . S
C296 H300 0.950 . S
C296 C305 1.390 . S
C297 C296 1.387 . S
C297 C299 1.387 . S
H298 C305 0.950 . S
C299 C297 1.387 . S
C299 C301 1.390 . S
C299 H303 0.950 . S
H300 C296 0.950 . S
C301 C299 1.390 . S
C301 C302 1.387 . S
C301 H304 0.950 . S
C302 C301 1.387 . S
C302 C305 1.387 . S
H303 C299 0.950 . S
H304 C301 0.950 . S
C305 C296 1.390 . S
C305 H298 0.950 . S
C305 C302 1.387 . S
C306 C307 1.387 . S
C306 H310 0.950 1_455 S
C306 C315 1.390 . S
C307 C306 1.387 . S
C307 C309 1.387 . S
H308 C315 0.950 1_655 S
C309 C307 1.387 . S
C309 C311 1.390 . S
C309 H313 0.950 . S
H310 C306 0.950 1_655 S
C311 C309 1.390 . S
C311 C312 1.387 . S
C311 H314 0.950 . S
C312 C311 1.387 . S
C312 C315 1.387 . S
H313 C309 0.950 . S
H314 C311 0.950 . S
C315 C306 1.390 . S
C315 H308 0.950 1_455 S
C315 C312 1.387 . S
C316 C317 1.387 1_545 S
C316 H320 0.950 . S
C316 C325 1.390 . S
C317 C316 1.387 1_565 S
C317 C319 1.387 1_556 S
H318 C325 0.950 . S
C319 C317 1.387 1_554 S
C319 C321 1.390 . S
C319 H323 0.950 . S
H320 C316 0.950 . S
C321 C319 1.390 . S
C321 C322 1.387 1_554 S
C321 H324 0.950 . S
C322 C321 1.387 1_556 S
C322 C325 1.387 1_565 S
H323 C319 0.950 . S
H324 C321 0.950 . S
C325 C316 1.390 . S
C325 H318 0.950 . S
C325 C322 1.387 1_545 S
C326 C327 1.387 . S
C326 H330 0.950 . S
C326 C335 1.390 . S
C327 C326 1.387 . S
C327 C329 1.387 . S
H328 C335 0.950 . S
C329 C327 1.387 . S
C329 C331 1.390 . S
C329 H333 0.950 1_545 S
H330 C326 0.950 . S
C331 C329 1.390 . S
C331 C332 1.387 . S
C331 H334 0.950 1_545 S
C332 C331 1.387 . S
C332 C335 1.387 . S
H333 C329 0.950 1_565 S
H334 C331 0.950 1_565 S
C335 C326 1.390 . S
C335 H328 0.950 . S
C335 C332 1.387 . S
C336 C337 1.387 . S
C336 H340 0.950 . S
C336 C345 1.390 . S
C337 C336 1.387 . S
C337 C339 1.387 . S
H338 C345 0.950 . S
C339 C337 1.387 . S
C339 C341 1.390 . S
C339 H343 0.950 . S
H340 C336 0.950 . S
C341 C339 1.390 . S
C341 C342 1.387 . S
C341 H344 0.950 . S
C342 C341 1.387 . S
C342 C345 1.387 . S
H343 C339 0.950 . S
H344 C341 0.950 . S
C345 C336 1.390 . S
C345 H338 0.950 . S
C345 C342 1.387 . S
C346 C347 1.387 . S
C346 H350 0.950 . S
C346 C355 1.390 . S
C347 C346 1.387 . S
C347 C349 1.387 . S
H348 C355 0.950 . S
C349 C347 1.387 . S
C349 C351 1.390 . S
C349 H353 0.950 . S
H350 C346 0.950 . S
C351 C349 1.390 . S
C351 C352 1.387 . S
C351 H354 0.950 . S
C352 C351 1.387 . S
C352 C355 1.387 . S
H353 C349 0.950 . S
H354 C351 0.950 . S
C355 C346 1.390 . S
C355 H348 0.950 . S
C355 C352 1.387 . S
C356 C357 1.387 . S
C356 H360 0.950 . S
C356 C365 1.390 . S
C357 C356 1.387 . S
C357 C359 1.387 1_556 S
H358 C365 0.950 1_455 S
C359 C357 1.387 1_554 S
C359 C361 1.390 . S
C359 H363 0.950 . S
H360 C356 0.950 . S
C361 C359 1.390 . S
C361 C362 1.387 1_554 S
C361 H364 0.950 . S
C362 C361 1.387 1_556 S
C362 C365 1.387 . S
H363 C359 0.950 . S
H364 C361 0.950 . S
C365 C356 1.390 . S
C365 H358 0.950 1_655 S
C365 C362 1.387 . S
C366 C367 1.387 . S
C366 H370 0.950 . S
C366 C375 1.390 . S
C367 C366 1.387 . S
C367 C369 1.387 . S
H368 C375 0.950 . S
C369 C367 1.387 . S
C369 C371 1.390 . S
C369 H373 0.950 1_554 S
H370 C366 0.950 . S
C371 C369 1.390 . S
C371 C372 1.387 . S
C371 H374 0.950 1_554 S
C372 C371 1.387 . S
C372 C375 1.387 . S
H373 C369 0.950 1_556 S
H374 C371 0.950 1_556 S
C375 C366 1.390 . S
C375 H368 0.950 . S
C375 C372 1.387 . S
C376 C377 1.387 . S
C376 H380 0.950 . S
C376 C385 1.390 . S
C377 C376 1.387 . S
C377 C379 1.387 . S
H378 C385 0.950 . S
C379 C377 1.387 . S
C379 C381 1.390 . S
C379 H383 0.950 . S
H380 C376 0.950 . S
C381 C379 1.390 . S
C381 C382 1.387 . S
C381 H384 0.950 . S
C382 C381 1.387 . S
C382 C385 1.387 . S
H383 C379 0.950 . S
H384 C381 0.950 . S
C385 C376 1.390 . S
C385 H378 0.950 . S
C385 C382 1.387 . S
C386 C387 1.387 . S
C386 H390 0.950 . S
C386 C395 1.390 . S
C387 C386 1.387 . S
C387 C389 1.387 . S
H388 C395 0.950 . S
C389 C387 1.387 . S
C389 C391 1.390 . S
C389 H393 0.950 . S
H390 C386 0.950 . S
C391 C389 1.390 . S
C391 C392 1.387 . S
C391 H394 0.950 . S
C392 C391 1.387 . S
C392 C395 1.387 . S
H393 C389 0.950 . S
H394 C391 0.950 . S
C395 C386 1.390 . S
C395 H388 0.950 . S
C395 C392 1.387 . S
C157 C5 1.541 . S
C162 C75 1.440 . S
C167 C14 1.515 . S
C172 C109 1.415 . S
C182 C121 1.400 . S
C177 C25 1.495 . S
C187 C34 1.502 . S
C192 C155 1.404 . S
C202 C112 1.416 . S
C197 C7 1.517 . S
C212 C92 1.417 . S
C207 C13 1.522 . S
C222 C139 1.394 . S
C217 C23 1.495 . S
C232 C130 1.413 . S
C227 C31 1.510 . S
C237 C4 1.529 . S
C242 C138 1.427 . S
C252 C100 1.402 . S
C247 C22 1.499 . S
C257 C32 1.515 . S
C262 C76 1.404 . S
C267 C16 1.509 . S
C272 C133 1.407 . S
C282 C91 1.451 1_565 S
C277 C41 1.540 . S
C287 C50 1.552 . S
C292 C113 1.460 . S
C297 C61 1.537 . S
C302 C118 1.450 . S
C307 C67 1.558 . S
C312 C151 1.484 . S
C317 C40 1.558 . S
C322 C96 1.478 1_556 S
C332 C88 1.473 . S
C327 C52 1.558 . S
C342 C142 1.457 . S
C337 C59 1.546 . S
C352 C134 1.451 . S
C347 C70 1.530 . S
C357 C43 1.535 . S
C362 C154 1.456 1_655 S
C372 C97 1.461 . S
C367 C58 1.548 . S
C382 C79 1.445 . S
C377 C68 1.532 . S
C387 C49 1.555 . S
C392 C117 1.473 . S
