# Generated by pormake.
# Topology zzz, (3,6)-cn, num edge types: 1
# Building blocks:
#     Node 0, Type 0, BuildingBlock: QEWDON_clean_linker_0, # of connection points: 3
#     Node 1, Type 0, BuildingBlock: QEWDON_clean_linker_0, # of connection points: 3
#     Node 2, Type 0, BuildingBlock: QEWDON_clean_linker_0, # of connection points: 3
#     Node 3, Type 0, BuildingBlock: QEWDON_clean_linker_0, # of connection points: 3
#     Node 4, Type 0, BuildingBlock: QEWDON_clean_linker_0, # of connection points: 3
#     Node 5, Type 0, BuildingBlock: QEWDON_clean_linker_0, # of connection points: 3
#     Node 6, Type 0, BuildingBlock: QEWDON_clean_linker_0, # of connection points: 3
#     Node 7, Type 0, BuildingBlock: QEWDON_clean_linker_0, # of connection points: 3
#     Node 8, Type 1, BuildingBlock: NUHQIS_clean_sbu_0, # of connection points: 6
#     Node 9, Type 1, BuildingBlock: NUHQIS_clean_sbu_0, # of connection points: 6
#     Node 10, Type 1, BuildingBlock: NUHQIS_clean_sbu_0, # of connection points: 6
#     Node 11, Type 1, BuildingBlock: NUHQIS_clean_sbu_0, # of connection points: 6
#     Edge 12, Type (0, 1), BuildingBlock: OJICUG_clean_linker_0, # of connection points: 2
#     Edge 13, Type (0, 1), BuildingBlock: OJICUG_clean_linker_0, # of connection points: 2
#     Edge 14, Type (0, 1), BuildingBlock: OJICUG_clean_linker_0, # of connection points: 2
#     Edge 15, Type (0, 1), BuildingBlock: OJICUG_clean_linker_0, # of connection points: 2
#     Edge 16, Type (0, 1), BuildingBlock: OJICUG_clean_linker_0, # of connection points: 2
#     Edge 17, Type (0, 1), BuildingBlock: OJICUG_clean_linker_0, # of connection points: 2
#     Edge 18, Type (0, 1), BuildingBlock: OJICUG_clean_linker_0, # of connection points: 2
#     Edge 19, Type (0, 1), BuildingBlock: OJICUG_clean_linker_0, # of connection points: 2
#     Edge 20, Type (0, 1), BuildingBlock: OJICUG_clean_linker_0, # of connection points: 2
#     Edge 21, Type (0, 1), BuildingBlock: OJICUG_clean_linker_0, # of connection points: 2
#     Edge 22, Type (0, 1), BuildingBlock: OJICUG_clean_linker_0, # of connection points: 2
#     Edge 23, Type (0, 1), BuildingBlock: OJICUG_clean_linker_0, # of connection points: 2
#     Edge 24, Type (0, 1), BuildingBlock: OJICUG_clean_linker_0, # of connection points: 2
#     Edge 25, Type (0, 1), BuildingBlock: OJICUG_clean_linker_0, # of connection points: 2
#     Edge 26, Type (0, 1), BuildingBlock: OJICUG_clean_linker_0, # of connection points: 2
#     Edge 27, Type (0, 1), BuildingBlock: OJICUG_clean_linker_0, # of connection points: 2
#     Edge 28, Type (0, 1), BuildingBlock: OJICUG_clean_linker_0, # of connection points: 2
#     Edge 29, Type (0, 1), BuildingBlock: OJICUG_clean_linker_0, # of connection points: 2
#     Edge 30, Type (0, 1), BuildingBlock: OJICUG_clean_linker_0, # of connection points: 2
#     Edge 31, Type (0, 1), BuildingBlock: OJICUG_clean_linker_0, # of connection points: 2
#     Edge 32, Type (0, 1), BuildingBlock: OJICUG_clean_linker_0, # of connection points: 2
#     Edge 33, Type (0, 1), BuildingBlock: OJICUG_clean_linker_0, # of connection points: 2
#     Edge 34, Type (0, 1), BuildingBlock: OJICUG_clean_linker_0, # of connection points: 2
#     Edge 35, Type (0, 1), BuildingBlock: OJICUG_clean_linker_0, # of connection points: 2
# Relax obj value: 0.225
# Max RMSD: 0.158
# Mean RMSD: 0.099
data_MOF--net-zzz--node1-NUHQIS_clean_sbu_0--node2-QEWDON_clean_linker_0--edge1-OJICUG_clean_linker_0
_symmetry_space_group_name_H-M    P1
_symmetry_Int_Tables_number       1
_symmetry_cell_setting            triclinic
loop_
_symmetry_equiv_pos_as_xyz
'x, y, z'
_cell_length_a     41.009355
_cell_length_b     41.099224
_cell_length_c     10.243954
_cell_angle_alpha  90.113636
_cell_angle_beta   89.877146
_cell_angle_gamma 90.082975
loop_
_atom_site_label
_atom_site_type_symbol
_atom_site_fract_x
_atom_site_fract_y
_atom_site_fract_z
_atom_type_partial_charge
H0 H 0.76687 0.47942 0.26796 0.0
C1 C 0.78612 0.48933 0.3284 0.0
C2 C 0.8169 0.47468 0.32441 0.0
C3 C 0.78004 0.51572 0.41349 0.0
H4 H 0.86602 0.47516 0.39806 0.0
C5 C 0.84209 0.48639 0.40373 0.0
C6 C 0.83756 0.51286 0.48689 0.0
C7 C 0.80646 0.5278 0.49122 0.0
C8 C 0.74571 0.52853 0.4284 0.0
H9 H 0.80291 0.54839 0.55569 0.0
C10 C 0.72265 0.52862 0.32384 0.0
C11 C 0.68972 0.53852 0.34411 0.0
C12 C 0.73505 0.53864 0.55249 0.0
H13 H 0.75119 0.53804 0.63587 0.0
C14 C 0.70297 0.54841 0.57304 0.0
H15 H 0.73037 0.52141 0.22697 0.0
C16 C 0.68061 0.54824 0.471 0.0
H17 H 0.65582 0.55521 0.49338 0.0
H18 H 0.69518 0.55566 0.66986 0.0
H19 H 0.07941 0.76584 0.26875 0.0
C20 C 0.06962 0.78511 0.32941 0.0
C21 C 0.08448 0.81579 0.32535 0.0
C22 C 0.0432 0.77919 0.41478 0.0
H23 H 0.08435 0.86485 0.39931 0.0
C24 C 0.07295 0.84101 0.40498 0.0
C25 C 0.04646 0.83661 0.48845 0.0
C26 C 0.03131 0.80564 0.49279 0.0
C27 C 1.03012 0.745 0.4295 0.0
H28 H 1.01068 0.80222 0.55744 0.0
C29 C 1.02992 0.72191 0.32486 0.0
C30 C 1.01975 0.6891 0.34487 0.0
C31 C 1.01982 0.7345 0.55344 0.0
H32 H 1.0205 0.75066 0.63693 0.0
C33 C 1.00973 0.70257 0.57371 0.0
H34 H 0.03725 0.72951 0.22811 0.0
C35 C 1.00979 0.68018 0.47157 0.0
H36 H 1.00257 0.65551 0.49381 0.0
H37 H 1.00231 0.6949 0.6704 0.0
H38 H 0.7958 0.07681 0.2748 0.0
C39 C 0.77639 0.06746 0.336 0.0
C40 C 0.74591 0.08266 0.33162 0.0
C41 C 0.78195 0.04124 0.42195 0.0
H42 H 0.69681 0.08345 0.40595 0.0
C43 C 0.72051 0.0718 0.412 0.0
C44 C 0.7245 0.04549 0.49605 0.0
C45 C 0.75526 0.02989 0.50024 0.0
C46 C 0.81602 1.02778 0.43649 0.0
H47 H 0.75834 1.00938 0.56511 0.0
C48 C 0.83918 1.02751 0.33195 0.0
C49 C 0.87198 1.01726 0.35174 0.0
C50 C 0.82641 1.01726 0.56007 0.0
H51 H 0.81021 1.01794 0.64356 0.0
C52 C 0.85832 1.00695 0.58004 0.0
H53 H 0.83165 0.03491 0.23536 0.0
C54 C 0.88081 1.00707 0.47802 0.0
H55 H 0.90548 0.99975 0.5001 0.0
H56 H 0.8659 0.99937 0.67646 0.0
H57 H 0.48541 0.79412 0.28238 0.0
C58 C 0.49488 0.77504 0.34368 0.0
C59 C 0.47699 0.74595 0.35007 0.0
C60 C 0.5243 0.7789 0.41463 0.0
H61 H 0.47408 0.69788 0.43217 0.0
C62 C 0.48768 0.72057 0.42992 0.0
C63 C 0.51694 0.72251 0.4978 0.0
C64 C 0.53565 0.75133 0.48782 0.0
C65 C 0.54286 0.81119 0.41267 0.0
H66 H 0.55887 0.75162 0.53715 0.0
C67 C 0.53642 0.83678 0.32099 0.0
C68 C 0.55391 0.86682 0.32402 0.0
C69 C 0.56703 0.81722 0.50758 0.0
H70 H 0.57222 0.8002 0.58475 0.0
C71 C 0.58514 0.84585 0.50742 0.0
H72 H 0.51779 0.83387 0.24793 0.0
C73 C 0.57906 0.87008 0.41639 0.0
H74 H 0.59442 0.89148 0.41925 0.0
H75 H 0.60405 0.8494 0.57968 0.0
H76 H 0.29603 0.58057 0.31153 0.0
C77 C 0.2766 0.57043 0.25258 0.0
C78 C 0.24556 0.58434 0.2603 0.0
C79 C 0.28274 0.54453 0.16545 0.0
H80 H 0.19593 0.58287 0.19258 0.0
C81 C 0.22005 0.5722 0.18363 0.0
C82 C 0.22473 0.54629 0.09764 0.0
C83 C 0.25627 0.53241 0.08808 0.0
C84 C 0.31722 0.53252 0.14803 0.0
H85 H 0.26002 0.51225 0.02158 0.0
C86 C 0.34032 0.53153 0.25248 0.0
C87 C 0.37354 0.52281 0.23006 0.0
C88 C 0.32795 0.52435 0.02194 0.0
H89 H 0.31165 0.52562 0.93913 0.0
C90 C 0.36025 0.51586 0.99896 0.0
H91 H 0.33233 0.53718 0.35062 0.0
C92 C 0.3827 0.5153 0.10064 0.0
H93 H 0.40754 0.50942 0.07554 0.0
H94 H 0.36816 0.5102 0.9006 0.0
H95 H 0.98091 0.29461 0.31875 0.0
C96 C 0.99109 0.27514 0.26009 0.0
C97 C 0.9777 0.24396 0.27079 0.0
C98 C 1.01646 0.28134 0.17038 0.0
H99 H 0.97949 0.1942 0.20556 0.0
C100 C 0.98984 0.21839 0.19452 0.0
C101 C 1.01516 0.22315 0.10557 0.0
C102 C 1.02851 0.25484 0.09295 0.0
C103 C 1.02797 0.31587 0.15066 0.0
H104 H 0.04821 0.25867 0.02418 0.0
C105 C 1.02918 0.33927 0.25424 0.0
C106 C 0.03732 0.37248 0.23004 0.0
C107 C 0.03536 0.32632 0.0236 0.0
H108 H 0.03388 0.30977 0.94146 0.0
C109 C 0.04332 0.35861 0.99889 0.0
H110 H 1.02414 0.33151 0.35308 0.0
C111 C 0.04408 0.38134 0.09977 0.0
H112 H 0.04948 0.40614 0.07343 0.0
H113 H 0.04838 0.36629 0.89983 0.0
H114 H 0.26442 0.97856 0.30946 0.0
C115 C 0.28404 0.9887 0.25136 0.0
C116 C 0.31497 0.97453 0.25877 0.0
C117 C 0.27831 1.01494 0.1659 0.0
H118 H 0.3648 0.976 0.19264 0.0
C119 C 0.34073 0.98678 0.18355 0.0
C120 C 0.33648 1.01307 0.0997 0.0
C121 C 0.30507 1.02719 0.09023 0.0
C122 C 0.24399 1.02733 0.14869 0.0
H123 H 0.30165 0.04766 0.02539 0.0
C124 C 0.22068 1.02819 0.2528 0.0
C125 C 0.18758 0.03726 0.2305 0.0
C126 C 0.23361 0.03604 0.02305 0.0
H127 H 0.25008 0.03491 0.94045 0.0
C128 C 0.20144 0.04492 1.00016 0.0
H129 H 0.22845 1.02216 0.35061 0.0
C130 C 0.17877 0.04532 0.10149 0.0
H131 H 0.15403 0.05148 0.07629 0.0
H132 H 0.1938 0.051 0.90209 0.0
H133 H 0.57497 0.26237 0.29868 0.0
C134 C 0.56514 0.28165 0.23913 0.0
C135 C 0.58313 0.31061 0.22987 0.0
C136 C 0.53513 0.27798 0.17249 0.0
H137 H 0.58554 0.35871 0.14723 0.0
C138 C 0.57187 0.33608 0.15156 0.0
C139 C 0.54205 0.3342 0.08757 0.0
C140 C 0.52336 0.3054 0.09981 0.0
C141 C 0.51666 0.24578 0.17689 0.0
H142 H 0.49972 0.30497 0.0536 0.0
C143 C 0.52236 0.22116 0.27341 0.0
C144 C 0.50576 0.19069 0.26944 0.0
C145 C 0.4937 0.23871 0.0785 0.0
H146 H 0.48917 0.25524 0.99882 0.0
C147 C 0.47632 0.20962 0.078 0.0
H148 H 0.53983 0.22511 0.35051 0.0
C149 C 0.48205 0.18603 0.1722 0.0
H150 H 0.46778 0.16387 0.16797 0.0
H151 H 0.45847 0.20508 1.00235 0.0
Tb152 Tb 0.05421 1.02049 0.90844 0.0
Eu153 Eu 1.0029 0.03963 0.67913 0.0
C154 C 0.08074 0.03297 0.61539 0.0
C155 C 0.0323 0.09539 0.87055 0.0
C156 C 0.11711 0.97727 0.08795 0.0
C157 C 0.13724 0.92857 0.98 0.0
C158 C 0.12491 0.96022 0.97304 0.0
C159 C 0.12538 0.96405 0.20882 0.0
C160 C 0.13797 0.93262 0.21597 0.0
C161 C 0.14174 0.91364 0.102 0.0
C162 C 0.09415 1.00452 0.08359 0.0
O163 O 1.00527 1.00871 0.98425 0.0
O164 O 0.97643 0.04623 0.87052 0.0
O165 O 1.00557 0.98424 0.67435 0.0
O166 O 0.05146 0.97518 0.79707 0.0
C167 C 0.97872 1.02625 0.96916 0.0
O168 O 0.95271 0.03517 0.61143 0.0
O169 O 0.98805 0.06163 0.49535 0.0
O170 O 0.05103 0.03768 0.57077 0.0
O171 O 0.08655 1.02702 0.73943 0.0
O172 O 0.04345 0.07209 0.94684 0.0
O173 O 1.01929 0.08878 0.75612 0.0
C174 C 1.02848 0.96465 0.71802 0.0
O175 O 0.09993 1.02691 0.99693 0.0
O176 O 0.06366 0.9957 0.08298 0.0
C177 C 0.936 0.08386 0.51118 0.0
C178 C 0.91509 0.14879 0.49715 0.0
C179 C 0.91912 0.13376 0.6192 0.0
C180 C 0.92968 0.1015 0.62616 0.0
C181 C 0.92807 0.09742 0.39055 0.0
C182 C 0.91732 0.1295 0.38341 0.0
C183 C 0.95724 0.05524 0.51461 0.0
H184 H 0.1401 0.91473 0.89062 0.0
H185 H 0.11861 0.9701 0.87843 0.0
H186 H 0.11902 0.97664 0.29824 0.0
H187 H 0.14077 0.922 0.31196 0.0
H188 H 0.91738 0.14785 0.70841 0.0
H189 H 0.93581 0.09146 0.72067 0.0
H190 H 0.93349 0.08446 0.30112 0.0
H191 H 0.91486 0.14016 0.28735 0.0
Tb192 Tb 0.53935 0.0538 0.9106 0.0
Eu193 Eu 0.52149 1.00288 0.67823 0.0
C194 C 0.52537 0.08017 0.62412 0.0
C195 C 0.46556 0.03091 0.87615 0.0
C196 C 0.58499 0.11703 0.08192 0.0
C197 C 0.63488 0.13443 0.97448 0.0
C198 C 0.6029 0.12275 0.9672 0.0
C199 C 0.59768 0.12693 0.20203 0.0
C200 C 0.62955 0.13865 0.20947 0.0
C201 C 0.64934 0.1402 0.09672 0.0
C202 C 0.55697 0.09487 0.07982 0.0
O203 O 0.54869 1.00534 0.99441 0.0
O204 O 0.51674 0.97369 0.86291 0.0
O205 O 0.57686 1.00341 0.68361 0.0
O206 O 0.58397 0.05162 0.79249 0.0
C207 C 0.53386 0.97753 0.96944 0.0
O208 O 0.52583 0.95403 0.59632 0.0
O209 O 0.49765 0.99062 0.49478 0.0
O210 O 0.53034 0.05093 0.5755 0.0
O211 O 0.52227 0.08465 0.75059 0.0
O212 O 0.48873 0.04088 0.95593 0.0
O213 O 0.47249 1.01984 0.75839 0.0
C214 C 0.59572 1.02749 0.72201 0.0
O215 O 0.53474 0.10056 0.99251 0.0
O216 O 0.56469 0.06422 0.08334 0.0
C217 C 0.47625 0.93811 0.50043 0.0
C218 C 0.41175 0.91544 0.4845 0.0
C219 C 0.42624 0.92074 0.60697 0.0
C220 C 0.45821 0.93232 0.6148 0.0
C221 C 0.46352 0.92868 0.37979 0.0
C222 C 0.43154 0.91726 0.37174 0.0
C223 C 0.50463 0.95975 0.50451 0.0
H224 H 0.64925 0.13579 0.88581 0.0
H225 H 0.5933 0.11544 0.87314 0.0
H226 H 0.58422 0.12265 0.2915 0.0
H227 H 0.63967 0.14265 0.30572 0.0
H228 H 0.41189 0.91914 0.69563 0.0
H229 H 0.46774 0.93945 0.7092 0.0
H230 H 0.47712 0.93303 0.29067 0.0
H231 H 0.42138 0.91363 0.27533 0.0
Tb232 Tb 0.50725 0.53821 0.90659 0.0
Eu233 Eu 0.55799 0.51814 0.67378 0.0
C234 C 0.47998 0.52611 0.61499 0.0
C235 C 0.52712 0.46306 0.8651 0.0
C236 C 0.44679 0.58399 0.09446 0.0
C237 C 0.42723 0.6339 0.99488 0.0
C238 C 0.43935 0.60223 0.9826 0.0
C239 C 0.43877 0.59629 0.21757 0.0
C240 C 0.42648 0.62777 0.23004 0.0
C241 C 0.42257 0.64773 0.11924 0.0
C242 C 0.46858 0.55582 0.08527 0.0
O243 O 0.55672 0.54891 0.97909 0.0
O244 O 0.58485 0.51096 0.86343 0.0
O245 O 0.55698 0.57359 0.67272 0.0
O246 O 0.51061 0.58298 0.79317 0.0
C247 C 0.58296 0.53091 0.9627 0.0
O248 O 0.60819 0.51974 0.60311 0.0
O249 O 0.57087 0.49654 0.48623 0.0
O250 O 0.50963 0.52177 0.56865 0.0
O251 O 0.47432 0.53139 0.73987 0.0
O252 O 0.51664 0.48637 0.94337 0.0
O253 O 0.54012 0.46962 0.75048 0.0
C254 C 0.53409 0.59336 0.71599 0.0
O255 O 0.46146 0.53404 0.99748 0.0
O256 O 0.49942 0.56325 0.08251 0.0
C257 C 0.62184 0.47149 0.49032 0.0
C258 C 0.64291 0.4068 0.45866 0.0
C259 C 0.63959 0.42024 0.5844 0.0
C260 C 0.62897 0.45235 0.60013 0.0
C261 C 0.62834 0.4593 0.36566 0.0
C262 C 0.63907 0.42738 0.34973 0.0
C263 C 0.60205 0.50104 0.50313 0.0
H264 H 0.42427 0.64847 0.90772 0.0
H265 H 0.44544 0.59308 0.88635 0.0
H266 H 0.44481 0.58274 0.30477 0.0
H267 H 0.42365 0.63751 0.32769 0.0
H268 H 0.64249 0.40517 0.67019 0.0
H269 H 0.62387 0.46128 0.69764 0.0
H270 H 0.62222 0.47341 0.28013 0.0
H271 H 0.64076 0.41797 0.25113 0.0
Tb272 Tb 1.02174 0.50678 0.90499 0.0
Eu273 Eu 0.04082 0.55748 0.67346 0.0
C274 C 0.03401 0.47964 0.61263 0.0
C275 C 0.09676 0.52869 0.86485 0.0
C276 C 0.97881 0.4439 0.08683 0.0
C277 C 0.9304 0.4229 0.97932 0.0
C278 C 0.96194 0.43571 0.97208 0.0
C279 C 0.96559 0.4355 0.20787 0.0
C280 C 0.93426 0.42245 0.21529 0.0
C281 C 0.91537 0.41831 0.10142 0.0
C282 C 1.00576 0.4673 0.08199 0.0
O283 O 1.01028 0.55578 0.97991 0.0
O284 O 0.04764 0.58448 0.86337 0.0
O285 O 0.98529 0.5548 0.67081 0.0
O286 O 0.9764 0.50896 0.79366 0.0
C287 C 1.02785 0.5823 0.96313 0.0
O288 O 0.03616 0.60727 0.60298 0.0
O289 O 0.06296 0.57183 0.48879 0.0
O290 O 0.03844 0.50923 0.56674 0.0
O291 O 1.02843 0.47408 0.73726 0.0
O292 O 0.07343 0.51771 0.94209 0.0
O293 O 0.0901 0.5414 0.75008 0.0
C294 C 0.96574 0.53181 0.71481 0.0
O295 O 1.02858 0.46163 0.9965 0.0
O296 O 0.99643 0.49754 0.0791 0.0
C297 C 0.08485 0.62405 0.5009 0.0
C298 C 0.14962 0.64596 0.48454 0.0
C299 C 0.13459 0.64221 0.60705 0.0
C300 C 0.1024 0.63117 0.61519 0.0
C301 C 0.09839 0.63158 0.37953 0.0
C302 C 0.13038 0.64283 0.3712 0.0
C303 C 0.05633 0.60257 0.5062 0.0
H304 H 0.91664 0.41974 0.89001 0.0
H305 H 0.97184 0.44208 0.87736 0.0
H306 H 0.97807 0.44208 0.29716 0.0
H307 H 0.92358 0.41955 0.31135 0.0
H308 H 0.14866 0.6446 0.69595 0.0
H309 H 0.09238 0.62534 0.71026 0.0
H310 H 0.0855 0.62554 0.29067 0.0
H311 H 0.14106 0.64503 0.27484 0.0
C312 C 0.13354 0.05749 0.32461 0.0
C313 C 0.16163 0.03773 0.33704 0.0
H314 H 0.08633 0.07076 0.39785 0.0
C315 C 0.16329 1.01746 0.44815 0.0
H316 H 0.13124 0.07473 0.24561 0.0
C317 C 0.13752 1.01635 0.53991 0.0
C318 C 0.10895 0.03488 0.52209 0.0
H319 H 0.18396 1.00157 0.46274 0.0
H320 H 0.13953 1.00015 0.62276 0.0
C321 C 0.10753 0.05557 0.41349 0.0
C322 C 0.51953 0.16783 0.49537 0.0
C323 C 0.51297 0.16292 0.36179 0.0
H324 H 0.52814 0.1459 0.6829 0.0
C325 C 0.51168 0.13048 0.3163 0.0
H326 H 0.52045 0.19223 0.53519 0.0
C327 C 0.51637 0.10398 0.40022 0.0
C328 C 0.52199 0.10877 0.53404 0.0
H329 H 0.50685 0.12538 0.21467 0.0
H330 H 0.51492 0.07962 0.36008 0.0
C331 C 0.5237 0.14114 0.58044 0.0
C332 C 0.4273 0.50222 0.32372 0.0
C333 C 0.39928 0.52207 0.33691 0.0
H334 H 0.47436 0.48866 0.3964 0.0
C335 C 0.39753 0.54214 0.44896 0.0
H336 H 0.42964 0.48514 0.24388 0.0
C337 C 0.42319 0.54297 0.54095 0.0
C338 C 0.45172 0.52439 0.52229 0.0
H339 H 0.37687 0.55805 0.46411 0.0
H340 H 0.42116 0.55904 0.62452 0.0
C341 C 0.45319 0.50389 0.41277 0.0
C342 C 1.01848 0.39674 0.44925 0.0
C343 C 0.03814 0.3985 0.33598 0.0
H344 H 1.00184 0.4205 0.62505 0.0
C345 C 0.05756 0.42678 0.32068 0.0
H346 H 1.00288 0.37591 0.46597 0.0
C347 C 0.05586 0.45284 0.40916 0.0
C348 C 0.03577 0.45133 0.52002 0.0
H349 H 0.07429 0.42918 0.23957 0.0
H350 H 0.07075 0.47417 0.39128 0.0
C351 C 1.0176 0.4226 0.54048 0.0
C352 C 0.89757 0.04178 0.14625 0.0
C353 C 0.8977 1.01798 0.24523 0.0
H354 H 0.92274 0.06334 0.98368 0.0
C355 C 0.9242 0.99597 0.24694 0.0
H356 H 0.87809 0.05946 0.14104 0.0
C357 C 0.95025 0.99869 0.15834 0.0
C358 C 0.95059 1.02309 0.06256 0.0
H359 H 0.92511 0.97644 0.3175 0.0
H360 H 0.97018 0.98152 0.16517 0.0
C361 C 0.92356 0.04427 0.05641 0.0
C362 C 0.53436 0.89062 0.10635 0.0
C363 C 0.54666 0.89515 0.23359 0.0
H364 H 0.5206 0.91261 0.92436 0.0
C365 C 0.55322 0.92752 0.27334 0.0
H366 H 0.52919 0.86643 0.06992 0.0
C367 C 0.54892 0.95397 0.1887 0.0
C368 C 0.53733 0.94932 0.06127 0.0
H369 H 0.5617 0.9328 0.37095 0.0
H370 H 0.55464 0.9782 0.22376 0.0
C371 C 0.52961 0.91727 0.02195 0.0
C372 C 0.63781 0.56035 0.24038 0.0
C373 C 0.66412 0.53813 0.23751 0.0
H374 H 0.59196 0.57527 0.16004 0.0
C375 C 0.66413 0.5145 0.13749 0.0
H376 H 0.63702 0.57975 0.31184 0.0
C377 C 0.63813 0.51237 0.04774 0.0
C378 C 0.61123 0.53371 0.05529 0.0
H379 H 0.68351 0.49672 0.13135 0.0
H380 H 0.63881 0.49342 0.97418 0.0
C381 C 0.61177 0.55797 0.15207 0.0
C382 C 0.99804 0.63703 0.241 0.0
C383 C 1.02021 0.66344 0.23825 0.0
H384 H 0.98328 0.5911 0.16047 0.0
C385 C 0.04392 0.6635 0.13832 0.0
H386 H 0.97856 0.6362 0.3123 0.0
C387 C 0.04618 0.63749 0.04865 0.0
C388 C 1.02489 0.61051 0.05602 0.0
H389 H 0.06169 0.68293 0.13224 0.0
H390 H 0.0652 0.63822 0.97518 0.0
C391 C 1.00055 0.61097 0.15269 0.0
C392 C 0.92155 0.22604 0.31631 0.0
C393 C 0.95189 0.23601 0.36529 0.0
H394 H 0.88395 0.19003 0.32682 0.0
C395 C 0.96166 0.22535 0.48888 0.0
H396 H 0.91351 0.23423 0.2212 0.0
C397 C 0.94509 0.19967 0.54849 0.0
C398 C 0.91879 0.18458 0.48385 0.0
H399 H 0.98497 0.23289 0.52852 0.0
H400 H 0.9563 0.1885 0.63285 0.0
C401 C 0.90479 0.20051 0.37638 0.0
C402 C 0.33275 0.95828 0.47677 0.0
C403 C 0.32285 0.94856 0.35193 0.0
H404 H 0.36972 0.95445 0.62099 0.0
C405 C 0.33424 0.91889 0.30142 0.0
H406 H 0.32405 0.981 0.51789 0.0
C407 C 0.36056 0.90332 0.36076 0.0
C408 C 0.37577 0.91776 0.46934 0.0
H409 H 0.32658 0.91079 0.20553 0.0
H410 H 0.372 0.88313 0.31028 0.0
C411 C 0.35925 0.94295 0.53558 0.0
C412 C 0.60215 0.32661 0.44702 0.0
C413 C 0.61042 0.31819 0.31849 0.0
H414 H 0.60672 0.36252 0.59586 0.0
C415 C 0.63926 0.33085 0.26437 0.0
H416 H 0.58023 0.31685 0.49152 0.0
C417 C 0.6548 0.35717 0.32458 0.0
C418 C 0.64126 0.37098 0.43815 0.0
H419 H 0.6464 0.32429 0.16589 0.0
H420 H 0.67403 0.36966 0.27199 0.0
C421 C 0.61741 0.35313 0.50669 0.0
C422 C 0.22709 0.60099 0.47796 0.0
C423 C 0.23753 0.6104 0.35338 0.0
H424 H 0.19013 0.60623 0.62242 0.0
C425 C 0.2271 0.64034 0.30287 0.0
H426 H 0.23502 0.57803 0.51889 0.0
C427 C 0.20129 0.65683 0.36247 0.0
C428 C 0.18556 0.64297 0.47108 0.0
H429 H 0.23513 0.64814 0.20703 0.0
H430 H 0.19044 0.67723 0.31183 0.0
C431 C 0.20113 0.61729 0.53713 0.0
C432 C 0.10034 0.8341 0.10694 0.0
C433 C 0.11033 0.82411 0.23122 0.0
H434 H 0.10361 0.87141 0.96375 0.0
C435 C 0.14004 0.8358 0.28081 0.0
H436 H 0.07762 0.82518 0.06637 0.0
C437 C 0.15519 0.86249 0.22195 0.0
C438 C 0.14038 0.87764 0.11441 0.0
H439 H 0.14837 0.82811 0.37619 0.0
H440 H 0.17518 0.87425 0.27248 0.0
C441 C 0.11533 0.86089 0.04836 0.0
C442 C 0.72648 0.138 0.28203 0.0
C443 C 0.73789 0.10794 0.23537 0.0
H444 H 0.68886 0.17378 0.26778 0.0
C445 C 0.72818 0.09736 0.11134 0.0
H446 H 0.73399 0.14677 0.37716 0.0
C447 C 0.70186 0.11237 0.04983 0.0
C448 C 0.68531 0.13807 0.11257 0.0
H449 H 0.7369 0.07435 0.07305 0.0
H450 H 0.69149 0.10033 0.96542 0.0
C451 C 0.70035 0.15324 0.21994 0.0
C452 C 0.46032 0.72938 0.13066 0.0
C453 C 0.45061 0.73804 0.25735 0.0
H454 H 0.45841 0.69265 0.98405 0.0
C455 C 0.42159 0.72475 0.30757 0.0
H456 H 0.48235 0.73964 0.08887 0.0
C457 C 0.40766 0.69753 0.24748 0.0
C458 C 0.42275 0.68368 0.13721 0.0
H459 H 0.41329 0.73149 0.4044 0.0
H460 H 0.38843 0.68457 0.29826 0.0
C461 C 0.44657 0.70206 0.07083 0.0
C462 C 0.83726 0.41937 0.28062 0.0
C463 C 0.82538 0.44885 0.2306 0.0
H464 H 0.87603 0.38467 0.27269 0.0
C465 C 0.83536 0.45875 0.10598 0.0
H466 H 0.82956 0.4111 0.37625 0.0
C467 C 0.86233 0.44398 0.04746 0.0
C468 C 0.87927 0.41924 0.1139 0.0
H469 H 0.82629 0.48128 0.06503 0.0
H470 H 0.87283 0.45567 0.96249 0.0
C471 C 0.86413 0.40444 0.22182 0.0
C472 C 1.01385 0.18677 0.90624 0.0
C473 C 1.02653 0.19384 0.03075 0.0
H474 H 1.00565 0.15058 0.75771 0.0
C475 C 0.04323 0.16895 0.09688 0.0
H476 H 0.99993 0.20501 0.85447 0.0
C477 C 0.04625 0.13763 0.04252 0.0
C478 C 0.03235 0.12996 0.92043 0.0
H479 H 0.05245 0.17327 0.19443 0.0
H480 H 0.05843 0.11905 0.09913 0.0
C481 C 1.01682 0.15533 0.85155 0.0
C482 C 0.39095 0.04083 0.09827 0.0
C483 C 0.36617 1.02483 0.02818 0.0
H484 H 0.44111 0.05548 0.10631 0.0
C485 C 0.37373 1.01286 0.90286 0.0
H486 H 0.38624 0.04942 0.19657 0.0
C487 C 0.40552 1.01591 0.851 0.0
C488 C 0.43075 0.0307 0.92377 0.0
H489 H 0.35556 0.99943 0.84812 0.0
H490 H 0.41063 1.00534 0.75621 0.0
C491 C 0.42264 0.04385 0.04686 0.0
C492 C 0.51321 0.38816 0.08122 0.0
C493 C 0.53116 0.36396 0.01572 0.0
H494 H 0.49772 0.43806 0.08597 0.0
C495 C 0.54568 0.372 0.89539 0.0
H496 H 0.50266 0.38307 0.17605 0.0
C497 C 0.54311 0.40361 0.84368 0.0
C498 C 0.52641 0.42836 0.912 0.0
H499 H 0.56056 0.35425 0.8446 0.0
H500 H 0.55562 0.409 0.753 0.0
C501 C 0.51081 0.41987 0.03011 0.0
C502 C 0.1706 0.51782 0.08924 0.0
C503 C 0.19543 0.53479 0.02308 0.0
H504 H 0.12064 0.50232 0.09209 0.0
C505 C 0.18824 0.54768 0.8992 0.0
H506 H 0.175 0.50847 0.18642 0.0
C507 C 0.15674 0.54458 0.84504 0.0
C508 C 0.13142 0.52877 0.91397 0.0
H509 H 0.20644 0.56183 0.84753 0.0
H510 H 0.1519 0.5559 0.75168 0.0
C511 C 0.1392 0.51471 0.03547 0.0
C512 C 0.05697 0.87678 0.66819 0.0
C513 C 0.03627 0.86543 0.56857 0.0
H514 H 0.07076 0.9163 0.79347 0.0
C515 C 1.01124 0.88614 0.52533 0.0
H516 H 0.07705 0.86181 0.70118 0.0
C517 C 1.0078 0.91782 0.57701 0.0
C518 C 1.02952 0.92976 0.67264 0.0
H519 H 0.99556 0.87856 0.44592 0.0
H520 H 0.98897 0.93342 0.53776 0.0
C521 C 0.05358 0.90833 0.71985 0.0
C522 C 0.67567 1.0094 0.5391 0.0
C523 C 0.69545 0.03583 0.57636 0.0
H524 H 0.62891 0.98589 0.55497 0.0
C525 C 0.68306 0.05779 0.66963 0.0
H526 H 0.68409 0.99261 0.46476 0.0
C527 C 0.65138 0.05427 0.72032 0.0
C528 C 0.63081 1.0288 0.67847 0.0
H529 H 0.69734 0.07883 0.69818 0.0
H530 H 0.64261 0.07236 0.78879 0.0
C531 C 0.64382 1.00586 0.58977 0.0
C532 C 0.55184 0.6723 0.52765 0.0
C533 C 0.52695 0.69296 0.57336 0.0
H534 H 0.57375 0.62476 0.53579 0.0
C535 C 0.50647 0.68146 0.67359 0.0
H536 H 0.56747 0.68008 0.44824 0.0
C537 C 0.50973 0.64979 0.72276 0.0
C538 C 0.53347 0.62833 0.6727 0.0
H539 H 0.48667 0.69651 0.70928 0.0
H540 H 0.49268 0.64178 0.79698 0.0
C541 C 0.55513 0.64039 0.5769 0.0
C542 C 0.87786 0.50264 0.66596 0.0
C543 C 0.86636 0.52326 0.56671 0.0
H544 H 0.91753 0.48915 0.79053 0.0
C545 C 0.88697 0.54845 0.52346 0.0
H546 H 0.86298 0.48245 0.69896 0.0
C547 C 0.91869 0.55214 0.57472 0.0
C548 C 0.93079 0.53051 0.66995 0.0
H549 H 0.87928 0.56409 0.44432 0.0
H550 H 0.93421 0.57109 0.53546 0.0
C551 C 0.90944 0.50628 0.71722 0.0
loop_
_geom_bond_atom_site_label_1
_geom_bond_atom_site_label_2
_geom_bond_distance
_geom_bond_site_symmetry_2
_ccdc_geom_bond_type
H0 C1 0.949 . S
C1 H0 0.949 . S
C1 C2 1.395 . S
C1 C3 1.391 . S
C2 C1 1.395 . S
C2 C5 1.390 . S
C3 C1 1.391 . S
C3 C7 1.387 . S
C3 C8 1.491 . S
H4 C5 0.950 . S
C5 C2 1.390 . S
C5 H4 0.950 . S
C5 C6 1.378 . S
C6 C5 1.378 . S
C6 C7 1.409 . S
C7 C3 1.387 . S
C7 C6 1.409 . S
C7 H9 0.951 . S
C8 C3 1.491 . S
C8 C10 1.382 . S
C8 C12 1.404 . S
H9 C7 0.951 . S
C10 C8 1.382 . S
C10 C11 1.390 . S
C10 H15 0.949 . S
C11 C10 1.390 . S
C11 C16 1.399 . S
C12 C8 1.404 . S
C12 H13 0.950 . S
C12 C14 1.375 . S
H13 C12 0.950 . S
C14 C12 1.375 . S
C14 C16 1.382 . S
C14 H18 0.950 . S
H15 C10 0.949 . S
C16 C11 1.399 . S
C16 C14 1.382 . S
C16 H17 0.952 . S
H17 C16 0.952 . S
H18 C14 0.950 . S
H19 C20 0.949 . S
C20 H19 0.949 . S
C20 C21 1.395 . S
C20 C22 1.391 . S
C21 C20 1.395 . S
C21 C24 1.390 1_655 S
C22 C20 1.391 . S
C22 C26 1.387 . S
C22 C27 1.491 . S
H23 C24 0.950 . S
C24 C21 1.390 1_455 S
C24 H23 0.950 . S
C24 C25 1.377 1_455 S
C25 C24 1.377 1_655 S
C25 C26 1.413 . S
C26 C22 1.387 . S
C26 C25 1.413 . S
C26 H28 0.951 . S
C27 C22 1.491 . S
C27 C29 1.382 . S
C27 C31 1.404 . S
H28 C26 0.951 . S
C29 C27 1.382 . S
C29 C30 1.390 . S
C29 H34 0.949 1_655 S
C30 C29 1.390 . S
C30 C35 1.399 . S
C31 C27 1.404 . S
C31 H32 0.950 . S
C31 C33 1.375 . S
H32 C31 0.950 . S
C33 C31 1.375 . S
C33 C35 1.382 . S
C33 H37 0.950 . S
H34 C29 0.949 1_455 S
C35 C30 1.399 . S
C35 C33 1.382 . S
C35 H36 0.952 . S
H36 C35 0.952 . S
H37 C33 0.950 . S
H38 C39 0.949 . S
C39 H38 0.949 . S
C39 C40 1.395 . S
C39 C41 1.391 . S
C40 C39 1.395 . S
C40 C43 1.390 1_565 S
C41 C39 1.391 . S
C41 C45 1.387 . S
C41 C46 1.491 . S
H42 C43 0.950 . S
C43 C40 1.390 1_545 S
C43 H42 0.950 . S
C43 C44 1.377 1_545 S
C44 C43 1.377 1_565 S
C44 C45 1.413 . S
C45 C41 1.387 . S
C45 C44 1.413 . S
C45 H47 0.951 . S
C46 C41 1.491 . S
C46 C48 1.382 . S
C46 C50 1.404 . S
H47 C45 0.951 . S
C48 C46 1.382 . S
C48 C49 1.390 . S
C48 H53 0.949 1_565 S
C49 C48 1.390 . S
C49 C54 1.399 . S
C50 C46 1.404 . S
C50 H51 0.950 . S
C50 C52 1.375 . S
H51 C50 0.950 . S
C52 C50 1.375 . S
C52 C54 1.382 . S
C52 H56 0.950 . S
H53 C48 0.949 1_545 S
C54 C49 1.399 . S
C54 C52 1.382 . S
C54 H55 0.952 . S
H55 C54 0.952 . S
H56 C52 0.950 . S
H57 C58 0.949 . S
C58 H57 0.949 . S
C58 C59 1.395 . S
C58 C60 1.391 . S
C59 C58 1.395 . S
C59 C62 1.390 . S
C60 C58 1.391 . S
C60 C64 1.387 . S
C60 C65 1.491 . S
H61 C62 0.950 . S
C62 C59 1.390 . S
C62 H61 0.950 . S
C62 C63 1.378 . S
C63 C62 1.378 . S
C63 C64 1.409 . S
C64 C60 1.387 . S
C64 C63 1.409 . S
C64 H66 0.951 . S
C65 C60 1.491 . S
C65 C67 1.382 . S
C65 C69 1.404 . S
H66 C64 0.951 . S
C67 C65 1.382 . S
C67 C68 1.390 . S
C67 H72 0.949 . S
C68 C67 1.390 . S
C68 C73 1.399 . S
C69 C65 1.404 . S
C69 H70 0.950 . S
C69 C71 1.375 . S
H70 C69 0.950 . S
C71 C69 1.375 . S
C71 C73 1.382 . S
C71 H75 0.950 . S
H72 C67 0.949 . S
C73 C68 1.399 . S
C73 C71 1.382 . S
C73 H74 0.952 . S
H74 C73 0.952 . S
H75 C71 0.950 . S
H76 C77 0.949 . S
C77 H76 0.949 . S
C77 C78 1.395 . S
C77 C79 1.391 1_554 S
C78 C77 1.395 . S
C78 C81 1.390 1_554 S
C79 C77 1.391 1_556 S
C79 C83 1.387 . S
C79 C84 1.491 . S
H80 C81 0.950 . S
C81 C78 1.390 1_556 S
C81 H80 0.950 . S
C81 C82 1.378 . S
C82 C81 1.378 . S
C82 C83 1.409 . S
C83 C79 1.387 . S
C83 C82 1.409 . S
C83 H85 0.951 . S
C84 C79 1.491 . S
C84 C86 1.379 1_556 S
C84 C88 1.406 . S
H85 C83 0.951 . S
C86 C84 1.379 1_554 S
C86 C87 1.390 . S
C86 H91 0.949 . S
C87 C86 1.390 . S
C87 C92 1.399 . S
C88 C84 1.406 . S
C88 H89 0.950 . S
C88 C90 1.375 . S
H89 C88 0.950 . S
C90 C88 1.375 . S
C90 C92 1.382 1_556 S
C90 H94 0.950 . S
H91 C86 0.949 . S
C92 C87 1.399 . S
C92 C90 1.382 1_554 S
C92 H93 0.952 . S
H93 C92 0.952 . S
H94 C90 0.950 . S
H95 C96 0.949 . S
C96 H95 0.949 . S
C96 C97 1.394 . S
C96 C98 1.394 . S
C97 C96 1.394 . S
C97 C100 1.390 1_654 S
C98 C96 1.394 . S
C98 C102 1.385 1_554 S
C98 C103 1.491 . S
H99 C100 0.950 . S
C100 C97 1.390 1_456 S
C100 H99 0.950 . S
C100 C101 1.377 1_455 S
C101 C100 1.377 1_655 S
C101 C102 1.411 . S
C102 C98 1.385 1_556 S
C102 C101 1.411 . S
C102 H104 0.951 . S
C103 C98 1.491 . S
C103 C105 1.382 . S
C103 C107 1.404 1_554 S
H104 C102 0.951 . S
C105 C103 1.382 . S
C105 C106 1.390 . S
C105 H110 0.949 1_655 S
C106 C105 1.390 . S
C106 C111 1.399 . S
C107 C103 1.404 1_556 S
C107 H108 0.950 . S
C107 C109 1.375 . S
H108 C107 0.950 . S
C109 C107 1.375 . S
C109 C111 1.382 1_556 S
C109 H113 0.950 . S
H110 C105 0.949 1_455 S
C111 C106 1.399 . S
C111 C109 1.382 1_554 S
C111 H112 0.952 . S
H112 C111 0.952 . S
H113 C109 0.950 . S
H114 C115 0.949 . S
C115 H114 0.949 . S
C115 C116 1.394 . S
C115 C117 1.391 1_554 S
C116 C115 1.394 . S
C116 C119 1.390 1_564 S
C117 C115 1.391 1_556 S
C117 C121 1.387 . S
C117 C122 1.491 1_556 S
H118 C119 0.950 . S
C119 C116 1.390 1_546 S
C119 H118 0.950 . S
C119 C120 1.377 1_545 S
C120 C119 1.377 1_565 S
C120 C121 1.411 . S
C121 C117 1.387 . S
C121 C120 1.411 . S
C121 H123 0.951 . S
C122 C117 1.491 1_554 S
C122 C124 1.382 . S
C122 C126 1.404 1_554 S
H123 C121 0.951 . S
C124 C122 1.382 . S
C124 C125 1.390 . S
C124 H129 0.949 1_565 S
C125 C124 1.390 . S
C125 C130 1.399 . S
C126 C122 1.404 1_556 S
C126 H127 0.950 . S
C126 C128 1.375 . S
H127 C126 0.950 . S
C128 C126 1.375 . S
C128 C130 1.382 1_556 S
C128 H132 0.950 . S
H129 C124 0.949 1_545 S
C130 C125 1.399 . S
C130 C128 1.382 1_554 S
C130 H131 0.952 . S
H131 C130 0.952 . S
H132 C128 0.950 . S
H133 C134 0.949 . S
C134 H133 0.949 . S
C134 C135 1.395 . S
C134 C136 1.391 1_554 S
C135 C134 1.395 . S
C135 C138 1.390 1_554 S
C136 C134 1.391 1_556 S
C136 C140 1.387 . S
C136 C141 1.491 . S
H137 C138 0.950 . S
C138 C135 1.390 1_556 S
C138 H137 0.950 . S
C138 C139 1.378 . S
C139 C138 1.378 . S
C139 C140 1.409 . S
C140 C136 1.387 . S
C140 C139 1.409 . S
C140 H142 0.951 . S
C141 C136 1.491 . S
C141 C143 1.382 1_556 S
C141 C145 1.404 . S
H142 C140 0.951 . S
C143 C141 1.382 1_554 S
C143 C144 1.390 . S
C143 H148 0.949 . S
C144 C143 1.390 . S
C144 C149 1.399 . S
C145 C141 1.404 . S
C145 H146 0.950 . S
C145 C147 1.375 . S
H146 C145 0.950 . S
C147 C145 1.375 . S
C147 C149 1.382 1_556 S
C147 H151 0.950 . S
H148 C143 0.949 . S
C149 C144 1.399 . S
C149 C147 1.382 1_554 S
C149 H150 0.952 . S
H150 C149 0.952 . S
H151 C147 0.950 . S
Tb152 C162 2.825 1_556 S
Tb152 O163 2.347 1_455 S
Tb152 O166 2.366 . S
Tb152 O171 2.418 . S
Tb152 O172 2.384 1_565 S
Tb152 O175 2.479 1_556 S
Tb152 O176 2.471 1_556 S
Eu153 O164 2.418 . S
Eu153 O165 2.384 1_545 S
Eu153 O168 2.479 . S
Eu153 O169 2.471 . S
Eu153 O170 2.347 1_655 S
Eu153 O173 2.366 . S
Eu153 C183 2.825 . S
C154 O170 1.259 1_565 S
C154 O171 1.265 . S
C155 O172 1.255 . S
C155 O173 1.265 1_455 S
C156 C158 1.380 . S
C156 C159 1.374 . S
C156 C162 1.507 . S
C157 C158 1.384 . S
C157 C161 1.387 . S
C157 H184 0.930 . S
C158 C156 1.380 . S
C158 C157 1.384 . S
C158 H185 0.931 . S
C159 C156 1.374 . S
C159 C160 1.390 . S
C159 H186 0.930 1_455 S
C160 C159 1.390 . S
C160 C161 1.391 . S
C160 H187 0.930 1_455 S
C161 C157 1.387 . S
C161 C160 1.391 . S
C162 Tb152 2.825 1_554 S
C162 C156 1.507 . S
C162 O175 1.238 . S
C162 O176 1.247 . S
O163 Tb152 2.347 1_655 S
O163 C167 1.259 1_565 S
O164 Eu153 2.418 . S
O164 C167 1.265 . S
O165 Eu153 2.384 1_565 S
O165 C174 1.255 . S
O166 Tb152 2.366 . S
O166 C174 1.265 1_455 S
C167 O163 1.259 1_545 S
C167 O164 1.265 . S
O168 Eu153 2.479 . S
O168 C183 1.238 . S
O169 Eu153 2.471 . S
O169 C183 1.247 . S
O170 Eu153 2.347 1_455 S
O170 C154 1.259 1_545 S
O171 Tb152 2.418 . S
O171 C154 1.265 . S
O172 Tb152 2.384 1_545 S
O172 C155 1.255 . S
O173 Eu153 2.366 . S
O173 C155 1.265 1_655 S
C174 O165 1.255 . S
C174 O166 1.265 1_655 S
O175 Tb152 2.479 1_554 S
O175 C162 1.238 . S
O176 Tb152 2.471 1_554 S
O176 C162 1.247 . S
C177 C180 1.380 . S
C177 C181 1.374 . S
C177 C183 1.507 . S
C178 C179 1.387 . S
C178 C182 1.391 . S
C179 C178 1.387 . S
C179 C180 1.384 . S
C179 H188 0.930 . S
C180 C177 1.380 . S
C180 C179 1.384 . S
C180 H189 0.931 . S
C181 C177 1.374 . S
C181 C182 1.390 . S
C181 H190 0.930 1_655 S
C182 C178 1.391 . S
C182 C181 1.390 . S
C182 H191 0.930 1_655 S
C183 Eu153 2.825 . S
C183 O168 1.238 . S
C183 O169 1.247 . S
C183 C177 1.507 . S
H184 C157 0.930 . S
H185 C158 0.931 . S
H186 C159 0.930 1_655 S
H187 C160 0.930 1_655 S
H188 C179 0.930 . S
H189 C180 0.931 . S
H190 C181 0.930 1_455 S
H191 C182 0.930 1_455 S
Tb192 C202 2.825 1_556 S
Tb192 O203 2.347 1_545 S
Tb192 O206 2.366 . S
Tb192 O211 2.418 . S
Tb192 O212 2.384 . S
Tb192 O215 2.479 1_556 S
Tb192 O216 2.471 1_556 S
Eu193 O204 2.418 . S
Eu193 O205 2.384 . S
Eu193 O208 2.479 . S
Eu193 O209 2.471 . S
Eu193 O210 2.347 1_565 S
Eu193 O213 2.366 . S
Eu193 C223 2.825 . S
C194 O210 1.259 . S
C194 O211 1.265 . S
C195 O212 1.255 . S
C195 O213 1.265 1_545 S
C196 C198 1.380 . S
C196 C199 1.374 . S
C196 C202 1.507 . S
C197 C198 1.384 . S
C197 C201 1.387 . S
C197 H224 0.930 . S
C198 C196 1.380 . S
C198 C197 1.384 . S
C198 H225 0.931 . S
C199 C196 1.374 . S
C199 C200 1.390 . S
C199 H226 0.930 1_545 S
C200 C199 1.390 . S
C200 C201 1.391 . S
C200 H227 0.930 1_545 S
C201 C197 1.387 . S
C201 C200 1.391 . S
C202 Tb192 2.825 1_554 S
C202 C196 1.507 . S
C202 O215 1.238 . S
C202 O216 1.247 . S
O203 Tb192 2.347 1_565 S
O203 C207 1.259 . S
O204 Eu193 2.418 . S
O204 C207 1.265 . S
O205 Eu193 2.384 . S
O205 C214 1.255 . S
O206 Tb192 2.366 . S
O206 C214 1.265 1_545 S
C207 O203 1.259 . S
C207 O204 1.265 . S
O208 Eu193 2.479 . S
O208 C223 1.238 . S
O209 Eu193 2.471 . S
O209 C223 1.247 . S
O210 Eu193 2.347 1_545 S
O210 C194 1.259 . S
O211 Tb192 2.418 . S
O211 C194 1.265 . S
O212 Tb192 2.384 . S
O212 C195 1.255 . S
O213 Eu193 2.366 . S
O213 C195 1.265 1_565 S
C214 O205 1.255 . S
C214 O206 1.265 1_565 S
O215 Tb192 2.479 1_554 S
O215 C202 1.238 . S
O216 Tb192 2.471 1_554 S
O216 C202 1.247 . S
C217 C220 1.380 . S
C217 C221 1.374 . S
C217 C223 1.507 . S
C218 C219 1.387 . S
C218 C222 1.391 . S
C219 C218 1.387 . S
C219 C220 1.384 . S
C219 H228 0.930 . S
C220 C217 1.380 . S
C220 C219 1.384 . S
C220 H229 0.931 . S
C221 C217 1.374 . S
C221 C222 1.390 . S
C221 H230 0.930 1_565 S
C222 C218 1.391 . S
C222 C221 1.390 . S
C222 H231 0.930 1_565 S
C223 Eu193 2.825 . S
C223 O208 1.238 . S
C223 O209 1.247 . S
C223 C217 1.507 . S
H224 C197 0.930 . S
H225 C198 0.931 . S
H226 C199 0.930 1_565 S
H227 C200 0.930 1_565 S
H228 C219 0.930 . S
H229 C220 0.931 . S
H230 C221 0.930 1_545 S
H231 C222 0.930 1_545 S
Tb232 C242 2.825 1_556 S
Tb232 O243 2.347 . S
Tb232 O246 2.366 . S
Tb232 O251 2.418 . S
Tb232 O252 2.384 . S
Tb232 O255 2.479 1_556 S
Tb232 O256 2.471 1_556 S
Eu233 O244 2.418 . S
Eu233 O245 2.384 . S
Eu233 O248 2.479 . S
Eu233 O249 2.471 . S
Eu233 O250 2.347 . S
Eu233 O253 2.366 . S
Eu233 C263 2.825 . S
C234 O250 1.259 . S
C234 O251 1.265 . S
C235 O252 1.255 . S
C235 O253 1.265 . S
C236 C238 1.380 . S
C236 C239 1.374 . S
C236 C242 1.507 . S
C237 C238 1.384 . S
C237 C241 1.387 . S
C237 H264 0.930 . S
C238 C236 1.380 . S
C238 C237 1.384 . S
C238 H265 0.931 . S
C239 C236 1.374 . S
C239 C240 1.390 . S
C239 H266 0.930 . S
C240 C239 1.390 . S
C240 C241 1.391 . S
C240 H267 0.930 . S
C241 C237 1.387 . S
C241 C240 1.391 . S
C242 Tb232 2.825 1_554 S
C242 C236 1.507 . S
C242 O255 1.238 . S
C242 O256 1.247 . S
O243 Tb232 2.347 . S
O243 C247 1.259 . S
O244 Eu233 2.418 . S
O244 C247 1.265 . S
O245 Eu233 2.384 . S
O245 C254 1.255 . S
O246 Tb232 2.366 . S
O246 C254 1.265 . S
C247 O243 1.259 . S
C247 O244 1.265 . S
O248 Eu233 2.479 . S
O248 C263 1.238 . S
O249 Eu233 2.471 . S
O249 C263 1.247 . S
O250 Eu233 2.347 . S
O250 C234 1.259 . S
O251 Tb232 2.418 . S
O251 C234 1.265 . S
O252 Tb232 2.384 . S
O252 C235 1.255 . S
O253 Eu233 2.366 . S
O253 C235 1.265 . S
C254 O245 1.255 . S
C254 O246 1.265 . S
O255 Tb232 2.479 1_554 S
O255 C242 1.238 . S
O256 Tb232 2.471 1_554 S
O256 C242 1.247 . S
C257 C260 1.380 . S
C257 C261 1.374 . S
C257 C263 1.507 . S
C258 C259 1.387 . S
C258 C262 1.391 . S
C259 C258 1.387 . S
C259 C260 1.384 . S
C259 H268 0.930 . S
C260 C257 1.380 . S
C260 C259 1.384 . S
C260 H269 0.931 . S
C261 C257 1.374 . S
C261 C262 1.390 . S
C261 H270 0.930 . S
C262 C258 1.391 . S
C262 C261 1.390 . S
C262 H271 0.930 . S
C263 Eu233 2.825 . S
C263 O248 1.238 . S
C263 O249 1.247 . S
C263 C257 1.507 . S
H264 C237 0.930 . S
H265 C238 0.931 . S
H266 C239 0.930 . S
H267 C240 0.930 . S
H268 C259 0.930 . S
H269 C260 0.931 . S
H270 C261 0.930 . S
H271 C262 0.930 . S
Tb272 C282 2.825 1_556 S
Tb272 O283 2.347 . S
Tb272 O286 2.366 . S
Tb272 O291 2.418 . S
Tb272 O292 2.384 1_655 S
Tb272 O295 2.479 1_556 S
Tb272 O296 2.471 1_556 S
Eu273 O284 2.418 . S
Eu273 O285 2.384 1_455 S
Eu273 O288 2.479 . S
Eu273 O289 2.471 . S
Eu273 O290 2.347 . S
Eu273 O293 2.366 . S
Eu273 C303 2.825 . S
C274 O290 1.259 1_655 S
C274 O291 1.265 . S
C275 O292 1.255 . S
C275 O293 1.265 . S
C276 C278 1.380 . S
C276 C279 1.374 . S
C276 C282 1.507 . S
C277 C278 1.384 . S
C277 C281 1.387 . S
C277 H304 0.930 . S
C278 C276 1.380 . S
C278 C277 1.384 . S
C278 H305 0.931 . S
C279 C276 1.374 . S
C279 C280 1.390 . S
C279 H306 0.930 . S
C280 C279 1.390 . S
C280 C281 1.391 . S
C280 H307 0.930 . S
C281 C277 1.387 . S
C281 C280 1.391 . S
C282 Tb272 2.825 1_554 S
C282 C276 1.507 . S
C282 O295 1.238 . S
C282 O296 1.247 . S
O283 Tb272 2.347 . S
O283 C287 1.259 1_655 S
O284 Eu273 2.418 . S
O284 C287 1.265 . S
O285 Eu273 2.384 1_655 S
O285 C294 1.255 . S
O286 Tb272 2.366 . S
O286 C294 1.265 . S
C287 O283 1.259 1_455 S
C287 O284 1.265 . S
O288 Eu273 2.479 . S
O288 C303 1.238 . S
O289 Eu273 2.471 . S
O289 C303 1.247 . S
O290 Eu273 2.347 . S
O290 C274 1.259 1_455 S
O291 Tb272 2.418 . S
O291 C274 1.265 . S
O292 Tb272 2.384 1_455 S
O292 C275 1.255 . S
O293 Eu273 2.366 . S
O293 C275 1.265 . S
C294 O285 1.255 . S
C294 O286 1.265 . S
O295 Tb272 2.479 1_554 S
O295 C282 1.238 . S
O296 Tb272 2.471 1_554 S
O296 C282 1.247 . S
C297 C300 1.380 . S
C297 C301 1.374 . S
C297 C303 1.507 . S
C298 C299 1.387 . S
C298 C302 1.391 . S
C299 C298 1.387 . S
C299 C300 1.384 . S
C299 H308 0.930 . S
C300 C297 1.380 . S
C300 C299 1.384 . S
C300 H309 0.931 . S
C301 C297 1.374 . S
C301 C302 1.390 . S
C301 H310 0.930 . S
C302 C298 1.391 . S
C302 C301 1.390 . S
C302 H311 0.930 . S
C303 Eu273 2.825 . S
C303 O288 1.238 . S
C303 O289 1.247 . S
C303 C297 1.507 . S
H304 C277 0.930 . S
H305 C278 0.931 . S
H306 C279 0.930 . S
H307 C280 0.930 . S
H308 C299 0.930 . S
H309 C300 0.931 . S
H310 C301 0.930 . S
H311 C302 0.930 . S
C312 C313 1.385 . S
C312 H316 0.950 . S
C312 C321 1.390 . S
C313 C312 1.385 . S
C313 C315 1.390 1_545 S
H314 C321 0.950 . S
C315 C313 1.390 1_565 S
C315 C317 1.390 . S
C315 H319 0.950 . S
H316 C312 0.950 . S
C317 C315 1.390 . S
C317 C318 1.387 . S
C317 H320 0.950 . S
C318 C317 1.387 . S
C318 C321 1.388 1_565 S
H319 C315 0.950 . S
H320 C317 0.950 . S
C321 C312 1.390 . S
C321 H314 0.950 . S
C321 C318 1.388 1_545 S
C322 C323 1.387 . S
C322 H326 0.950 . S
C322 C331 1.390 . S
C323 C322 1.387 . S
C323 C325 1.387 . S
H324 C331 0.950 . S
C325 C323 1.387 . S
C325 C327 1.390 . S
C325 H329 0.950 . S
H326 C322 0.950 . S
C327 C325 1.390 . S
C327 C328 1.387 . S
C327 H330 0.950 . S
C328 C327 1.387 . S
C328 C331 1.387 . S
H329 C325 0.950 . S
H330 C327 0.950 . S
C331 C322 1.390 . S
C331 H324 0.950 . S
C331 C328 1.387 . S
C332 C333 1.387 . S
C332 H336 0.950 . S
C332 C341 1.390 . S
C333 C332 1.387 . S
C333 C335 1.387 . S
H334 C341 0.950 . S
C335 C333 1.387 . S
C335 C337 1.390 . S
C335 H339 0.950 . S
H336 C332 0.950 . S
C337 C335 1.390 . S
C337 C338 1.387 . S
C337 H340 0.950 . S
C338 C337 1.387 . S
C338 C341 1.387 . S
H339 C335 0.950 . S
H340 C337 0.950 . S
C341 C332 1.390 . S
C341 H334 0.950 . S
C341 C338 1.387 . S
C342 C343 1.379 1_655 S
C342 H346 0.950 . S
C342 C351 1.390 . S
C343 C342 1.379 1_455 S
C343 C345 1.397 . S
H344 C351 0.950 . S
C345 C343 1.397 . S
C345 C347 1.390 . S
C345 H349 0.950 . S
H346 C342 0.950 . S
C347 C345 1.390 . S
C347 C348 1.415 . S
C347 H350 0.950 . S
C348 C347 1.415 . S
C348 C351 1.360 1_455 S
H349 C345 0.950 . S
H350 C347 0.950 . S
C351 C342 1.390 . S
C351 H344 0.950 . S
C351 C348 1.360 1_655 S
C352 C353 1.390 . S
C352 H356 0.950 . S
C352 C361 1.390 . S
C353 C352 1.390 . S
C353 C355 1.385 1_545 S
H354 C361 0.950 . S
C355 C353 1.385 1_565 S
C355 C357 1.390 . S
C355 H359 0.950 . S
H356 C352 0.950 . S
C357 C355 1.390 . S
C357 C358 1.381 1_565 S
C357 H360 0.950 . S
C358 C357 1.381 1_545 S
C358 C361 1.394 . S
H359 C355 0.950 . S
H360 C357 0.950 . S
C361 C352 1.390 . S
C361 H354 0.950 . S
C361 C358 1.394 . S
C362 C363 1.387 . S
C362 H366 0.950 . S
C362 C371 1.390 . S
C363 C362 1.387 . S
C363 C365 1.387 . S
H364 C371 0.950 . S
C365 C363 1.387 . S
C365 C367 1.390 . S
C365 H369 0.950 . S
H366 C362 0.950 . S
C367 C365 1.390 . S
C367 C368 1.387 . S
C367 H370 0.950 . S
C368 C367 1.387 . S
C368 C371 1.387 . S
H369 C365 0.950 . S
H370 C367 0.950 . S
C371 C362 1.390 . S
C371 H364 0.950 . S
C371 C368 1.387 . S
C372 C373 1.387 . S
C372 H376 0.950 . S
C372 C381 1.390 . S
C373 C372 1.387 . S
C373 C375 1.387 . S
H374 C381 0.950 . S
C375 C373 1.387 . S
C375 C377 1.390 . S
C375 H379 0.950 . S
H376 C372 0.950 . S
C377 C375 1.390 . S
C377 C378 1.387 . S
C377 H380 0.950 . S
C378 C377 1.387 . S
C378 C381 1.387 . S
H379 C375 0.950 . S
H380 C377 0.950 . S
C381 C372 1.390 . S
C381 H374 0.950 . S
C381 C378 1.387 . S
C382 C383 1.396 . S
C382 H386 0.950 . S
C382 C391 1.390 . S
C383 C382 1.396 . S
C383 C385 1.379 1_655 S
H384 C391 0.950 . S
C385 C383 1.379 1_455 S
C385 C387 1.390 . S
C385 H389 0.950 . S
H386 C382 0.950 . S
C387 C385 1.390 . S
C387 C388 1.359 1_455 S
C387 H390 0.950 . S
C388 C387 1.359 1_655 S
C388 C391 1.415 . S
H389 C385 0.950 . S
H390 C387 0.950 . S
C391 C382 1.390 . S
C391 H384 0.950 . S
C391 C388 1.415 . S
C392 C393 1.385 . S
C392 H396 0.950 . S
C392 C401 1.390 . S
C393 C392 1.385 . S
C393 C395 1.388 1_655 S
H394 C401 0.950 . S
C395 C393 1.388 1_455 S
C395 C397 1.390 1_455 S
C395 H399 0.950 . S
H396 C392 0.950 . S
C397 C395 1.390 1_655 S
C397 C398 1.387 . S
C397 H400 0.950 1_655 S
C398 C397 1.387 . S
C398 C401 1.387 . S
H399 C395 0.950 . S
H400 C397 0.950 1_455 S
C401 C392 1.390 . S
C401 H394 0.950 . S
C401 C398 1.387 . S
C402 C403 1.388 1_545 S
C402 H406 0.950 . S
C402 C411 1.390 1_545 S
C403 C402 1.388 1_565 S
C403 C405 1.384 . S
H404 C411 0.950 . S
C405 C403 1.384 . S
C405 C407 1.390 . S
C405 H409 0.950 . S
H406 C402 0.950 . S
C407 C405 1.390 . S
C407 C408 1.387 . S
C407 H410 0.950 . S
C408 C407 1.387 . S
C408 C411 1.387 . S
H409 C405 0.950 . S
H410 C407 0.950 . S
C411 C402 1.390 1_565 S
C411 H404 0.950 . S
C411 C408 1.387 . S
C412 C413 1.387 . S
C412 H416 0.950 . S
C412 C421 1.390 . S
C413 C412 1.387 . S
C413 C415 1.387 . S
H414 C421 0.950 . S
C415 C413 1.387 . S
C415 C417 1.390 . S
C415 H419 0.950 1_554 S
H416 C412 0.950 . S
C417 C415 1.390 . S
C417 C418 1.387 . S
C417 H420 0.950 . S
C418 C417 1.387 . S
C418 C421 1.387 . S
H419 C415 0.950 1_556 S
H420 C417 0.950 . S
C421 C412 1.390 . S
C421 H414 0.950 . S
C421 C418 1.387 . S
C422 C423 1.387 . S
C422 H426 0.950 . S
C422 C431 1.390 . S
C423 C422 1.387 . S
C423 C425 1.387 . S
H424 C431 0.950 . S
C425 C423 1.387 . S
C425 C427 1.390 . S
C425 H429 0.950 . S
H426 C422 0.950 . S
C427 C425 1.390 . S
C427 C428 1.387 . S
C427 H430 0.950 . S
C428 C427 1.387 . S
C428 C431 1.387 . S
H429 C425 0.950 . S
H430 C427 0.950 . S
C431 C422 1.390 . S
C431 H424 0.950 . S
C431 C428 1.387 . S
C432 C433 1.388 . S
C432 H436 0.950 1_455 S
C432 C441 1.390 . S
C433 C432 1.388 . S
C433 C435 1.388 . S
H434 C441 0.950 . S
C435 C433 1.388 . S
C435 C437 1.390 . S
C435 H439 0.950 . S
H436 C432 0.950 1_655 S
C437 C435 1.390 . S
C437 C438 1.387 . S
C437 H440 0.950 . S
C438 C437 1.387 . S
C438 C441 1.387 . S
H439 C435 0.950 . S
H440 C437 0.950 . S
C441 C432 1.390 . S
C441 H434 0.950 . S
C441 C438 1.387 . S
C442 C443 1.390 . S
C442 H446 0.950 . S
C442 C451 1.390 . S
C443 C442 1.390 . S
C443 C445 1.387 1_545 S
H444 C451 0.950 . S
C445 C443 1.387 1_565 S
C445 C447 1.390 1_565 S
C445 H449 0.950 . S
H446 C442 0.950 . S
C447 C445 1.390 1_545 S
C447 C448 1.387 . S
C447 H450 0.950 . S
C448 C447 1.387 . S
C448 C451 1.387 . S
H449 C445 0.950 . S
H450 C447 0.950 . S
C451 C442 1.390 . S
C451 H444 0.950 . S
C451 C448 1.387 . S
C452 C453 1.387 . S
C452 H456 0.950 . S
C452 C461 1.390 . S
C453 C452 1.387 . S
C453 C455 1.387 . S
H454 C461 0.950 . S
C455 C453 1.387 . S
C455 C457 1.390 . S
C455 H459 0.950 . S
H456 C452 0.950 . S
C457 C455 1.390 . S
C457 C458 1.387 . S
C457 H460 0.950 . S
C458 C457 1.387 . S
C458 C461 1.387 . S
H459 C455 0.950 . S
H460 C457 0.950 . S
C461 C452 1.390 . S
C461 H454 0.950 . S
C461 C458 1.387 . S
C462 C463 1.387 . S
C462 H466 0.950 . S
C462 C471 1.390 . S
C463 C462 1.387 . S
C463 C465 1.387 . S
H464 C471 0.950 . S
C465 C463 1.387 . S
C465 C467 1.390 . S
C465 H469 0.950 . S
H466 C462 0.950 . S
C467 C465 1.390 . S
C467 C468 1.387 . S
C467 H470 0.950 . S
C468 C467 1.387 . S
C468 C471 1.387 . S
H469 C465 0.950 . S
H470 C467 0.950 . S
C471 C462 1.390 . S
C471 H464 0.950 . S
C471 C468 1.387 . S
C472 C473 1.387 . S
C472 H476 0.950 1_456 S
C472 C481 1.390 . S
C473 C472 1.387 . S
C473 C475 1.387 . S
H474 C481 0.950 1_554 S
C475 C473 1.387 . S
C475 C477 1.390 . S
C475 H479 0.950 . S
H476 C472 0.950 1_654 S
C477 C475 1.390 . S
C477 C478 1.387 . S
C477 H480 0.950 . S
C478 C477 1.387 . S
C478 C481 1.387 . S
H479 C475 0.950 . S
H480 C477 0.950 . S
C481 C472 1.390 . S
C481 H474 0.950 1_556 S
C481 C478 1.387 . S
C482 C483 1.387 . S
C482 H486 0.950 . S
C482 C491 1.390 . S
C483 C482 1.387 . S
C483 C485 1.387 1_545 S
H484 C491 0.950 . S
C485 C483 1.387 1_565 S
C485 C487 1.390 . S
C485 H489 0.950 . S
H486 C482 0.950 . S
C487 C485 1.390 . S
C487 C488 1.387 1_565 S
C487 H490 0.950 . S
C488 C487 1.387 1_545 S
C488 C491 1.387 . S
H489 C485 0.950 . S
H490 C487 0.950 . S
C491 C482 1.390 . S
C491 H484 0.950 . S
C491 C488 1.387 . S
C492 C493 1.387 . S
C492 H496 0.950 . S
C492 C501 1.390 . S
C493 C492 1.387 . S
C493 C495 1.387 . S
H494 C501 0.950 . S
C495 C493 1.387 . S
C495 C497 1.390 . S
C495 H499 0.950 . S
H496 C492 0.950 . S
C497 C495 1.390 . S
C497 C498 1.387 . S
C497 H500 0.950 . S
C498 C497 1.387 . S
C498 C501 1.387 . S
H499 C495 0.950 . S
H500 C497 0.950 . S
C501 C492 1.390 . S
C501 H494 0.950 . S
C501 C498 1.387 . S
C502 C503 1.387 . S
C502 H506 0.950 . S
C502 C511 1.390 . S
C503 C502 1.387 . S
C503 C505 1.387 . S
H504 C511 0.950 . S
C505 C503 1.387 . S
C505 C507 1.390 . S
C505 H509 0.950 1_556 S
H506 C502 0.950 . S
C507 C505 1.390 . S
C507 C508 1.387 . S
C507 H510 0.950 1_556 S
C508 C507 1.387 . S
C508 C511 1.387 . S
H509 C505 0.950 1_554 S
H510 C507 0.950 1_554 S
C511 C502 1.390 . S
C511 H504 0.950 . S
C511 C508 1.387 . S
C512 C513 1.387 . S
C512 H516 0.950 . S
C512 C521 1.390 . S
C513 C512 1.387 . S
C513 C515 1.387 . S
H514 C521 0.950 . S
C515 C513 1.387 . S
C515 C517 1.390 . S
C515 H519 0.950 . S
H516 C512 0.950 . S
C517 C515 1.390 . S
C517 C518 1.387 . S
C517 H520 0.950 . S
C518 C517 1.387 . S
C518 C521 1.387 . S
H519 C515 0.950 . S
H520 C517 0.950 . S
C521 C512 1.390 . S
C521 H514 0.950 . S
C521 C518 1.387 . S
C522 C523 1.387 . S
C522 H526 0.950 . S
C522 C531 1.390 . S
C523 C522 1.387 . S
C523 C525 1.387 1_565 S
H524 C531 0.950 . S
C525 C523 1.387 1_545 S
C525 C527 1.390 . S
C525 H529 0.950 . S
H526 C522 0.950 . S
C527 C525 1.390 . S
C527 C528 1.387 1_545 S
C527 H530 0.950 . S
C528 C527 1.387 1_565 S
C528 C531 1.387 . S
H529 C525 0.950 . S
H530 C527 0.950 . S
C531 C522 1.390 . S
C531 H524 0.950 . S
C531 C528 1.387 . S
C532 C533 1.387 . S
C532 H536 0.950 . S
C532 C541 1.390 . S
C533 C532 1.387 . S
C533 C535 1.387 . S
H534 C541 0.950 . S
C535 C533 1.387 . S
C535 C537 1.390 . S
C535 H539 0.950 . S
H536 C532 0.950 . S
C537 C535 1.390 . S
C537 C538 1.387 . S
C537 H540 0.950 . S
C538 C537 1.387 . S
C538 C541 1.387 . S
H539 C535 0.950 . S
H540 C537 0.950 . S
C541 C532 1.390 . S
C541 H534 0.950 . S
C541 C538 1.387 . S
C542 C543 1.387 . S
C542 H546 0.950 . S
C542 C551 1.390 . S
C543 C542 1.387 . S
C543 C545 1.387 . S
H544 C551 0.950 . S
C545 C543 1.387 . S
C545 C547 1.390 . S
C545 H549 0.950 . S
H546 C542 0.950 . S
C547 C545 1.390 . S
C547 C548 1.387 . S
C547 H550 0.950 . S
C548 C547 1.387 . S
C548 C551 1.387 . S
H549 C545 0.950 . S
H550 C547 0.950 . S
C551 C542 1.390 . S
C551 H544 0.950 . S
C551 C548 1.387 . S
C313 C125 2.114 1_545 S
C318 C154 2.165 . S
C328 C194 2.180 . S
C323 C144 2.141 . S
C338 C234 2.189 . S
C333 C87 2.155 . S
C348 C274 2.175 1_455 S
C343 C106 2.123 1_455 S
C358 C167 2.168 1_554 S
C353 C49 2.117 1_545 S
C363 C68 2.114 . S
C368 C207 2.183 1_554 S
C373 C11 2.122 . S
C378 C247 2.189 1_554 S
C383 C30 2.123 . S
C388 C287 2.175 1_654 S
C398 C178 0.757 . S
C393 C97 0.757 . S
C408 C218 0.764 . S
C403 C116 0.760 . S
C418 C258 0.761 . S
C413 C135 0.759 . S
C423 C78 0.751 . S
C428 C298 0.750 . S
C433 C21 0.754 1_455 S
C438 C161 0.757 . S
C448 C201 0.765 . S
C443 C40 0.761 1_545 S
C458 C241 0.755 . S
C453 C59 0.756 . S
C463 C2 0.749 . S
C468 C281 0.756 . S
C473 C101 2.238 1_455 S
C478 C155 2.542 . S
C483 C120 2.207 1_545 S
C488 C195 2.516 . S
C498 C235 2.506 . S
C493 C139 2.196 . S
C508 C275 2.537 . S
C503 C82 2.223 . S
C513 C25 2.238 . S
C518 C174 2.552 . S
C528 C214 2.515 . S
C523 C44 2.202 . S
C538 C254 2.504 . S
C533 C63 2.189 . S
C543 C6 2.224 . S
C548 C294 2.542 . S
