# Generated by pormake.
# Topology dag, (6,3)-cn, num edge types: 1
# Building blocks:
#     Node 0, Type 0, BuildingBlock: OJICUG_clean_sbu_0, # of connection points: 6
#     Node 1, Type 0, BuildingBlock: OJICUG_clean_sbu_0, # of connection points: 6
#     Node 2, Type 0, BuildingBlock: OJICUG_clean_sbu_0, # of connection points: 6
#     Node 3, Type 0, BuildingBlock: OJICUG_clean_sbu_0, # of connection points: 6
#     Node 4, Type 1, BuildingBlock: VETTIZ_charged_linker_0, # of connection points: 3
#     Node 5, Type 1, BuildingBlock: VETTIZ_charged_linker_0, # of connection points: 3
#     Node 6, Type 1, BuildingBlock: VETTIZ_charged_linker_0, # of connection points: 3
#     Node 7, Type 1, BuildingBlock: VETTIZ_charged_linker_0, # of connection points: 3
#     Node 8, Type 1, BuildingBlock: VETTIZ_charged_linker_0, # of connection points: 3
#     Node 9, Type 1, BuildingBlock: VETTIZ_charged_linker_0, # of connection points: 3
#     Node 10, Type 1, BuildingBlock: VETTIZ_charged_linker_0, # of connection points: 3
#     Node 11, Type 1, BuildingBlock: VETTIZ_charged_linker_0, # of connection points: 3
#     Edge 12, Type (0, 1), BuildingBlock: EZIPEK_clean_linker_0, # of connection points: 2
#     Edge 13, Type (0, 1), BuildingBlock: EZIPEK_clean_linker_0, # of connection points: 2
#     Edge 14, Type (0, 1), BuildingBlock: EZIPEK_clean_linker_0, # of connection points: 2
#     Edge 15, Type (0, 1), BuildingBlock: EZIPEK_clean_linker_0, # of connection points: 2
#     Edge 16, Type (0, 1), BuildingBlock: EZIPEK_clean_linker_0, # of connection points: 2
#     Edge 17, Type (0, 1), BuildingBlock: EZIPEK_clean_linker_0, # of connection points: 2
#     Edge 18, Type (0, 1), BuildingBlock: EZIPEK_clean_linker_0, # of connection points: 2
#     Edge 19, Type (0, 1), BuildingBlock: EZIPEK_clean_linker_0, # of connection points: 2
#     Edge 20, Type (0, 1), BuildingBlock: EZIPEK_clean_linker_0, # of connection points: 2
#     Edge 21, Type (0, 1), BuildingBlock: EZIPEK_clean_linker_0, # of connection points: 2
#     Edge 22, Type (0, 1), BuildingBlock: EZIPEK_clean_linker_0, # of connection points: 2
#     Edge 23, Type (0, 1), BuildingBlock: EZIPEK_clean_linker_0, # of connection points: 2
#     Edge 24, Type (0, 1), BuildingBlock: EZIPEK_clean_linker_0, # of connection points: 2
#     Edge 25, Type (0, 1), BuildingBlock: EZIPEK_clean_linker_0, # of connection points: 2
#     Edge 26, Type (0, 1), BuildingBlock: EZIPEK_clean_linker_0, # of connection points: 2
#     Edge 27, Type (0, 1), BuildingBlock: EZIPEK_clean_linker_0, # of connection points: 2
#     Edge 28, Type (0, 1), BuildingBlock: EZIPEK_clean_linker_0, # of connection points: 2
#     Edge 29, Type (0, 1), BuildingBlock: EZIPEK_clean_linker_0, # of connection points: 2
#     Edge 30, Type (0, 1), BuildingBlock: EZIPEK_clean_linker_0, # of connection points: 2
#     Edge 31, Type (0, 1), BuildingBlock: EZIPEK_clean_linker_0, # of connection points: 2
#     Edge 32, Type (0, 1), BuildingBlock: EZIPEK_clean_linker_0, # of connection points: 2
#     Edge 33, Type (0, 1), BuildingBlock: EZIPEK_clean_linker_0, # of connection points: 2
#     Edge 34, Type (0, 1), BuildingBlock: EZIPEK_clean_linker_0, # of connection points: 2
#     Edge 35, Type (0, 1), BuildingBlock: EZIPEK_clean_linker_0, # of connection points: 2
# Relax obj value: 0.268
# Max RMSD: 0.196
# Mean RMSD: 0.162
data_MOF--net-dag--node1-OJICUG_clean_sbu_0--node2-VETTIZ_charged_linker_0--edge1-EZIPEK_clean_linker_0
_symmetry_space_group_name_H-M    P1
_symmetry_Int_Tables_number       1
_symmetry_cell_setting            triclinic
loop_
_symmetry_equiv_pos_as_xyz
'x, y, z'
_cell_length_a     35.725438
_cell_length_b     35.745821
_cell_length_c     37.523932
_cell_angle_alpha  90.285179
_cell_angle_beta   89.915328
_cell_angle_gamma 89.990278
loop_
_atom_site_label
_atom_site_type_symbol
_atom_site_fract_x
_atom_site_fract_y
_atom_site_fract_z
_atom_type_partial_charge
Sc0 Sc 0.15235 0.84451 0.97646 0.0
Sc1 Sc 0.16267 0.74678 0.97983 0.0
Sc2 Sc 0.23969 0.80614 -0.00078 0.0
O3 O 0.18493 0.79908 0.98522 0.0
C4 C 0.2295 0.87129 0.94282 0.0
C5 C 0.12301 0.78919 0.9156 0.0
C6 C 0.24317 0.73874 0.94358 0.0
C7 C 0.0964 0.79108 0.01812 0.0
C8 C 0.19976 0.86989 0.04462 0.0
C9 C 0.21558 0.73655 0.04673 0.0
O10 O 0.19396 0.87098 0.94403 0.0
O11 O 0.13555 0.75969 0.93001 0.0
O12 O 0.25794 0.76681 0.95905 0.0
O13 O 0.10764 0.8231 0.00837 0.0
O14 O 0.22638 0.84657 0.04059 0.0
O15 O 0.18713 0.72712 0.02861 0.0
O16 O 0.17252 0.87273 0.02315 0.0
O17 O 0.11295 0.7607 0.01 0.0
O18 O 0.23698 0.76351 0.03881 0.0
O19 O 0.12748 0.82155 0.92906 0.0
O20 O 0.24986 0.84999 0.96145 0.0
O21 O 0.20979 0.72787 0.94908 0.0
Sc22 Sc 0.72548 0.68795 0.49098 0.0
Sc23 Sc 0.66297 0.76447 0.48082 0.0
Sc24 Sc 0.62867 0.67462 0.50059 0.0
O25 O 0.67243 0.70906 0.49069 0.0
C26 C 0.68004 0.62313 0.45166 0.0
C27 C 0.72897 0.74465 0.4263 0.0
C28 C 0.59712 0.72556 0.43771 0.0
C29 C 0.73422 0.76602 0.53182 0.0
C30 C 0.68892 0.64378 0.55576 0.0
C31 C 0.60404 0.74801 0.54261 0.0
O32 O 0.71052 0.64027 0.45814 0.0
O33 O 0.70179 0.76488 0.43673 0.0
O34 O 0.59688 0.69661 0.45711 0.0
O35 O 0.74534 0.73318 0.524 0.0
O36 O 0.65558 0.64813 0.54484 0.0
O37 O 0.62295 0.77084 0.52398 0.0
O38 O 0.71691 0.65663 0.53905 0.0
O39 O 0.70533 0.78115 0.51837 0.0
O40 O 0.60416 0.71295 0.53751 0.0
O41 O 0.74074 0.71628 0.443 0.0
O42 O 0.64872 0.63253 0.46485 0.0
O43 O 0.61928 0.75296 0.44243 0.0
Sc44 Sc 0.82868 0.25249 -0.00056 0.0
Sc45 Sc 0.75253 0.18912 -0.00722 0.0
Sc46 Sc 0.84363 0.15597 0.0091 0.0
O47 O 0.80817 0.19923 0.00052 0.0
C48 C 0.89241 0.20862 0.95828 0.0
C49 C 0.76831 0.25357 0.93697 0.0
C50 C 0.79124 0.12345 0.9482 0.0
C51 C 0.75271 0.26206 0.04224 0.0
C52 C 0.87525 0.21629 0.06348 0.0
C53 C 0.77098 0.129 0.05196 0.0
O54 O 0.87322 0.23805 0.96333 0.0
O55 O 0.75 0.22543 0.94769 0.0
O56 O 0.82221 0.12537 0.96458 0.0
O57 O 0.78593 0.27198 0.03493 0.0
O58 O 0.86849 0.1827 0.05446 0.0
O59 O 0.74818 0.15111 0.03696 0.0
O60 O 0.86387 0.24442 0.04587 0.0
O61 O 0.73668 0.23355 0.02877 0.0
O62 O 0.80568 0.12793 0.04457 0.0
O63 O 0.79642 0.26709 0.95319 0.0
O64 O 0.88583 0.17791 0.97397 0.0
O65 O 0.76289 0.14353 0.9558 0.0
Sc66 Sc 0.36189 0.32267 0.48556 0.0
Sc67 Sc 0.26632 0.30659 0.50103 0.0
Sc68 Sc 0.32995 0.23056 0.49688 0.0
O69 O 0.31931 0.28654 0.4944 0.0
C70 C 0.38358 0.25441 0.43409 0.0
C71 C 0.29779 0.35859 0.43902 0.0
C72 C 0.25266 0.23372 0.45419 0.0
C73 C 0.31338 0.36738 0.54348 0.0
C74 C 0.3998 0.26519 0.53823 0.0
C75 C 0.271 0.24215 0.5589 0.0
O76 O 0.3867 0.28774 0.44546 0.0
O77 O 0.27121 0.34629 0.45819 0.0
O78 O 0.28165 0.21686 0.4653 0.0
O79 O 0.34253 0.36218 0.52471 0.0
O80 O 0.37966 0.23755 0.52892 0.0
O81 O 0.25506 0.27008 0.54481 0.0
O82 O 0.39574 0.29801 0.52614 0.0
O83 O 0.28378 0.34795 0.53996 0.0
O84 O 0.29916 0.22551 0.54563 0.0
O85 O 0.33199 0.35085 0.44423 0.0
O86 O 0.36226 0.23025 0.44827 0.0
O87 O 0.24399 0.26698 0.4631 0.0
C88 C 0.16953 0.99658 0.17522 0.0
C89 C 0.15647 0.9817 0.14285 0.0
C90 C 0.12374 0.9962 0.12741 0.0
C91 C 0.11793 0.04097 0.1757 0.0
C92 C 0.14974 0.02617 0.19121 0.0
C93 C 0.15983 0.04616 0.22528 0.0
H94 H 0.12797 0.18977 0.34003 0.0
C95 C 0.10471 0.07228 0.19821 0.0
C96 C 0.12888 0.07531 0.22753 0.0
H97 H 0.21675 0.10808 0.34352 0.0
H98 H 0.19033 0.07567 0.29252 0.0
H99 H 0.13098 0.20178 0.25839 0.0
H100 H 0.06015 0.1304 0.32118 0.0
H101 H 0.03197 0.14988 0.28772 0.0
H102 H 0.05426 0.18023 0.31993 0.0
H103 H 0.09324 0.21968 0.28509 0.0
H104 H 0.08605 0.20427 0.23981 0.0
C105 C 0.19889 0.06423 0.22024 0.0
C106 C 0.15754 0.01772 0.2562 0.0
C107 C 0.99561 0.15182 0.15682 0.0
C108 C 0.97832 0.18382 0.17095 0.0
C109 C 0.98972 0.19795 0.20421 0.0
C110 C 0.01884 0.18061 0.22298 0.0
C111 C 0.03674 0.14908 0.20805 0.0
C112 C 0.02465 0.13492 0.17573 0.0
C113 C 0.04692 0.10145 0.16379 0.0
C114 C 0.07476 0.09802 0.19408 0.0
C115 C 0.0688 0.12609 0.21974 0.0
C116 C 0.06633 0.11136 0.12807 0.0
C117 C 0.02019 0.06733 0.16179 0.0
C118 C 0.14112 0.16448 0.33003 0.0
C119 C 0.17413 0.15106 0.34543 0.0
C120 C 0.19111 0.11849 0.33181 0.0
C121 C 0.17586 0.1 0.30218 0.0
C122 C 0.14357 0.11457 0.28596 0.0
C123 C 0.12642 0.14592 0.30031 0.0
C124 C 0.09305 0.15814 0.27907 0.0
C125 C 0.09309 0.12915 0.24945 0.0
C126 C 0.1228 0.10377 0.25348 0.0
C127 C 0.10081 0.19811 0.26492 0.0
C128 C 0.05788 0.15485 0.30307 0.0
H129 H 0.07974 0.03567 0.13045 0.0
H130 H 0.19475 0.98578 0.18742 0.0
H131 H 0.13416 -0.00237 0.25192 0.0
H132 H 0.15147 0.03106 0.28218 0.0
H133 H 0.18381 0.00125 0.25833 0.0
H134 H 0.20221 0.07504 0.19265 0.0
H135 H 0.22156 0.04356 0.22487 0.0
H136 H 0.2035 0.08876 0.23763 0.0
H137 H 0.98713 0.14065 0.13116 0.0
H138 H 0.97652 0.22272 0.21526 0.0
H139 H 0.02672 0.19282 0.24803 0.0
H140 H 0.07612 0.14091 0.1283 0.0
H141 H 0.04677 0.10801 0.10529 0.0
H142 H 0.09171 0.09464 0.12278 0.0
H143 H 0.99734 0.06968 0.18186 0.0
H144 H 0.03432 0.04066 0.16812 0.0
H145 H 0.00691 0.06502 0.13512 0.0
H146 H 0.11347 0.9849 0.10242 0.0
C147 C 0.10432 0.02566 0.1437 0.0
C148 C 0.33949 0.50846 0.65999 0.0
C149 C 0.35291 0.49474 0.62731 0.0
C150 C 0.38107 0.51442 0.60908 0.0
C151 C 0.38155 0.56172 0.65558 0.0
C152 C 0.35428 0.54188 0.67367 0.0
C153 C 0.34321 0.56061 0.70806 0.0
H154 H 0.35419 0.71107 0.8176 0.0
C155 C 0.39007 0.59584 0.67645 0.0
C156 C 0.36782 0.59522 0.70733 0.0
H157 H 0.28732 0.6117 0.83141 0.0
H158 H 0.3143 0.58444 0.77788 0.0
H159 H 0.43015 0.66702 0.79508 0.0
H160 H 0.34192 0.71943 0.73565 0.0
H161 H 0.38395 0.73035 0.71378 0.0
H162 H 0.37691 0.74574 0.75915 0.0
H163 H 0.42615 0.71686 0.79127 0.0
H164 H 0.45158 0.68932 0.75885 0.0
C165 C 0.35353 0.53422 0.7392 0.0
C166 C 0.30107 0.57057 0.70584 0.0
C167 C 0.48382 0.69083 0.6298 0.0
C168 C 0.49639 0.7254 0.643 0.0
C169 C 0.48151 0.73973 0.67494 0.0
C170 C 0.45464 0.71936 0.69395 0.0
C171 C 0.44252 0.68447 0.68069 0.0
C172 C 0.45693 0.67086 0.649 0.0
C173 C 0.44051 0.63354 0.6388 0.0
C174 C 0.41422 0.62668 0.66991 0.0
C175 C 0.4156 0.65659 0.69425 0.0
C176 C 0.47261 0.60442 0.63735 0.0
C177 C 0.41909 0.63838 0.60324 0.0
C178 C 0.34587 0.68326 0.80913 0.0
C179 C 0.31885 0.66326 0.82819 0.0
C180 C 0.30832 0.62724 0.8168 0.0
C181 C 0.32382 0.61172 0.78574 0.0
C182 C 0.35001 0.63258 0.76607 0.0
C183 C 0.36114 0.66739 0.7783 0.0
C184 C 0.38952 0.68539 0.7544 0.0
C185 C 0.39323 0.65594 0.72543 0.0
C186 C 0.36983 0.62523 0.73218 0.0
C187 C 0.4263 0.69028 0.77582 0.0
C188 C 0.37259 0.72232 0.74003 0.0
H189 H 0.41681 0.56172 0.60786 0.0
H190 H 0.3179 0.49355 0.67442 0.0
H191 H 0.29396 0.58129 0.67889 0.0
H192 H 0.2927 0.593 0.72448 0.0
H193 H 0.28339 0.54558 0.71086 0.0
H194 H 0.37862 0.51706 0.73259 0.0
H195 H 0.33025 0.51467 0.74529 0.0
H196 H 0.36134 0.54958 0.76373 0.0
H197 H 0.495 0.67948 0.60515 0.0
H198 H 0.49104 0.76644 0.68524 0.0
H199 H 0.44442 0.73155 0.71826 0.0
H200 H 0.49365 0.61008 0.65854 0.0
H201 H 0.48738 0.60526 0.61129 0.0
H202 H 0.46294 0.57558 0.64233 0.0
H203 H 0.40508 0.66616 0.6022 0.0
H204 H 0.39627 0.6179 0.5997 0.0
H205 H 0.43842 0.63648 0.58009 0.0
H206 H 0.39163 0.50398 0.58384 0.0
C207 C 0.3955 0.54786 0.62304 0.0
C208 C 0.77685 0.82132 0.2773 0.0
C209 C 0.79194 0.78871 0.29194 0.0
C210 C 0.82094 0.76963 0.27421 0.0
C211 C 0.82058 0.81669 0.22802 0.0
C212 C 0.79148 0.83474 0.24531 0.0
C213 C 0.77908 0.86944 0.22627 0.0
H214 H 0.80542 0.99213 0.09229 0.0
C215 C 0.83004 0.83858 0.19607 0.0
C216 C 0.80559 0.8693 0.1947 0.0
H217 H 0.724 -0.00148 0.1771 0.0
H218 H 0.74478 0.93837 0.19958 0.0
H219 H 0.8718 0.96508 0.14021 0.0
H220 H 0.7943 0.90444 0.0741 0.0
H221 H 0.83792 0.88239 0.06895 0.0
H222 H 0.83256 0.93066 0.05586 0.0
H223 H 0.87414 0.96558 0.09244 0.0
H224 H 0.89762 0.93022 0.11815 0.0
C225 C 0.78584 0.90338 0.25134 0.0
C226 C 0.73782 0.86407 0.21464 0.0
C227 C 0.94226 0.80174 0.12044 0.0
C228 C 0.95856 0.81804 0.09027 0.0
C229 C 0.94148 0.84907 0.07419 0.0
C230 C 0.90889 0.86461 0.08868 0.0
C231 C 0.89343 0.849 0.11967 0.0
C232 C 0.90968 0.81769 0.13468 0.0
C233 C 0.88913 0.80489 0.16741 0.0
C234 C 0.85834 0.83409 0.16986 0.0
C235 C 0.86122 0.85994 0.14202 0.0
C236 C 0.91646 0.8073 0.19938 0.0
C237 C 0.87334 0.7652 0.16005 0.0
C238 C 0.79191 0.98016 0.11546 0.0
C239 C 0.76322 -0.00053 0.13314 0.0
C240 C 0.74616 0.98367 0.16329 0.0
C241 C 0.7584 0.94898 0.17622 0.0
C242 C 0.78809 0.93036 0.15885 0.0
C243 C 0.80397 0.94586 0.12875 0.0
C244 C 0.83573 0.9229 0.11416 0.0
C245 C 0.83648 0.89093 0.1405 0.0
C246 C 0.80868 0.8955 0.16663 0.0
C247 C 0.87181 0.94699 0.11598 0.0
C248 C 0.82497 0.90947 0.07618 0.0
H249 H 0.85773 0.76803 0.22993 0.0
H250 H 0.75441 0.8362 0.29071 0.0
H251 H 0.73236 0.83447 0.20694 0.0
H252 H 0.73049 0.88049 0.1908 0.0
H253 H 0.71826 0.8714 0.23663 0.0
H254 H 0.81177 0.89945 0.26729 0.0
H255 H 0.76221 0.90707 0.2703 0.0
H256 H 0.79033 0.9298 0.23688 0.0
H257 H 0.95508 0.77773 0.13301 0.0
H258 H 0.95388 0.8617 0.05078 0.0
H259 H 0.89742 0.8886 0.07555 0.0
H260 H 0.93387 0.83304 0.19775 0.0
H261 H 0.93572 0.7829 0.1997 0.0
H262 H 0.90214 0.80919 0.22538 0.0
H263 H 0.86676 0.76124 0.1313 0.0
H264 H 0.84653 0.76005 0.17393 0.0
H265 H 0.89379 0.74324 0.16762 0.0
H266 H 0.83263 0.74434 0.28546 0.0
C267 C 0.83537 0.78347 0.24218 0.0
C268 C 0.6917 0.30166 0.78537 0.0
C269 C 0.71831 0.32048 0.80623 0.0
C270 C 0.73022 0.35649 0.79663 0.0
C271 C 0.68753 0.35556 0.74662 0.0
C272 C 0.67642 0.31985 0.75589 0.0
C273 C 0.64548 0.30532 0.7325 0.0
H274 H 0.52271 0.3366 0.59867 0.0
C275 C 0.6646 0.36745 0.71612 0.0
C276 C 0.63979 0.33826 0.70776 0.0
H277 H 0.53302 0.23735 0.66285 0.0
H278 H 0.58529 0.26511 0.69484 0.0
H279 H 0.53296 0.39514 0.6619 0.0
H280 H 0.61031 0.34833 0.58593 0.0
H281 H 0.62278 0.3955 0.59132 0.0
H282 H 0.57709 0.38377 0.57409 0.0
H283 H 0.53314 0.40806 0.61575 0.0
H284 H 0.56223 0.43173 0.64798 0.0
C285 C 0.61066 0.29805 0.7562 0.0
C286 C 0.66015 0.27038 0.71233 0.0
C287 C 0.68455 0.49618 0.66293 0.0
C288 C 0.6675 0.51473 0.63443 0.0
C289 C 0.63812 0.49746 0.61571 0.0
C290 C 0.62602 0.46158 0.62496 0.0
C291 C 0.64356 0.44292 0.65327 0.0
C292 C 0.67222 0.46026 0.67177 0.0
C293 C 0.68757 0.4361 0.70094 0.0
C294 C 0.66368 0.40127 0.69659 0.0
C295 C 0.63793 0.40551 0.66875 0.0
C296 C 0.68035 0.45617 0.73707 0.0
C297 C 0.72936 0.42823 0.69267 0.0
C298 C 0.53642 0.321 0.61963 0.0
C299 C 0.52413 0.28509 0.62866 0.0
C300 C 0.54233 0.2652 0.65584 0.0
C301 C 0.57249 0.28139 0.67423 0.0
C302 C 0.58425 0.31777 0.66526 0.0
C303 C 0.56636 0.33678 0.6382 0.0
C304 C 0.58242 0.37502 0.63212 0.0
C305 C 0.61275 0.37614 0.66027 0.0
C306 C 0.61372 0.34262 0.6796 0.0
C307 C 0.55123 0.40424 0.63951 0.0
C308 C 0.59885 0.37611 0.59386 0.0
H309 H 0.72493 0.40175 0.7609 0.0
H310 H 0.68196 0.27407 0.79279 0.0
H311 H 0.6899 0.27422 0.7043 0.0
H312 H 0.645 0.26491 0.68722 0.0
H313 H 0.65863 0.2451 0.72937 0.0
H314 H 0.60882 0.31898 0.77819 0.0
H315 H 0.61189 0.26986 0.76847 0.0
H316 H 0.584 0.30091 0.74165 0.0
H317 H 0.70723 0.50919 0.67758 0.0
H318 H 0.62484 0.51168 0.59364 0.0
H319 H 0.60364 0.44974 0.60959 0.0
H320 H 0.65468 0.47377 0.73599 0.0
H321 H 0.70407 0.47476 0.74435 0.0
H322 H 0.67504 0.43647 0.75912 0.0
H323 H 0.73374 0.42398 0.66355 0.0
H324 H 0.73981 0.40235 0.70512 0.0
H325 H 0.74727 0.45203 0.70119 0.0
H326 H 0.75068 0.37119 0.81274 0.0
C327 C 0.7151 0.37411 0.76673 0.0
C328 C 0.66534 0.47826 0.33836 0.0
C329 C 0.65217 0.4895 0.37195 0.0
C330 C 0.62522 0.46778 0.38969 0.0
C331 C 0.62366 0.42461 0.33983 0.0
C332 C 0.65067 0.44578 0.3228 0.0
C333 C 0.66104 0.42992 0.28697 0.0
H334 H 0.63927 0.29405 0.16281 0.0
C335 C 0.61372 0.3931 0.31615 0.0
C336 C 0.63554 0.39602 0.28517 0.0
H337 H 0.71798 0.38557 0.16212 0.0
H338 H 0.69173 0.40955 0.2173 0.0
H339 H 0.65122 0.27313 0.23926 0.0
H340 H 0.56582 0.34315 0.19409 0.0
H341 H 0.54417 0.31343 0.2251 0.0
H342 H 0.56798 0.29348 0.18714 0.0
H343 H 0.61104 0.25377 0.21728 0.0
H344 H 0.61059 0.26486 0.26428 0.0
C345 C 0.70298 0.41878 0.28793 0.0
C346 C 0.65101 0.45925 0.25825 0.0
C347 C 0.51185 0.30207 0.35242 0.0
C348 C 0.49634 0.27056 0.33569 0.0
C349 C 0.51104 0.25781 0.30309 0.0
C350 C 0.54022 0.27741 0.28654 0.0
C351 C 0.55481 0.30973 0.30308 0.0
C352 C 0.54104 0.32115 0.33577 0.0
C353 C 0.56029 0.35561 0.34974 0.0
C354 C 0.58751 0.3635 0.31968 0.0
C355 C 0.58392 0.33675 0.29241 0.0
C356 C 0.58068 0.34524 0.38477 0.0
C357 C 0.53061 0.38699 0.35379 0.0
C358 C 0.65005 0.31976 0.17429 0.0
C359 C 0.68026 0.33834 0.15852 0.0
C360 C 0.69442 0.37125 0.1741 0.0
C361 C 0.67939 0.38477 0.20616 0.0
C362 C 0.65028 0.36482 0.22273 0.0
C363 C 0.63581 0.33318 0.2065 0.0
C364 C 0.6064 0.31439 0.22866 0.0
C365 C 0.60583 0.33972 0.2611 0.0
C366 C 0.63139 0.36926 0.25744 0.0
C367 C 0.62013 0.27435 0.23778 0.0
C368 C 0.56904 0.31581 0.2078 0.0
H369 H 0.59012 0.42008 0.38844 0.0
H370 H 0.68608 0.49475 0.32439 0.0
H371 H 0.62419 0.47351 0.26493 0.0
H372 H 0.64651 0.4468 0.23163 0.0
H373 H 0.67304 0.48107 0.2563 0.0
H374 H 0.71143 0.40967 0.31507 0.0
H375 H 0.72118 0.44267 0.28041 0.0
H376 H 0.70949 0.39459 0.27056 0.0
H377 H 0.50092 0.31203 0.37771 0.0
H378 H 0.49928 0.23336 0.29013 0.0
H379 H 0.54998 0.26686 0.26139 0.0
H380 H 0.59055 0.31571 0.38408 0.0
H381 H 0.56183 0.34836 0.40816 0.0
H382 H 0.6063 0.36192 0.38927 0.0
H383 H 0.51022 0.386 0.33141 0.0
H384 H 0.54272 0.41537 0.35283 0.0
H385 H 0.51462 0.38391 0.37901 0.0
H386 H 0.61488 0.47638 0.41563 0.0
C387 C 0.61088 0.43532 0.37381 0.0
C388 C 0.18979 0.20147 0.71292 0.0
C389 C 0.22281 0.19027 0.69572 0.0
C390 C 0.24604 0.16317 0.71112 0.0
C391 C 0.20205 0.15656 0.75961 0.0
C392 C 0.1799 0.18414 0.74488 0.0
C393 C 0.14485 0.19101 0.76616 0.0
H394 H 0.03541 0.14491 0.90673 0.0
C395 C 0.18284 0.1424 0.79143 0.0
C396 C 0.14941 0.1625 0.79567 0.0
H397 H 0.01525 0.22993 0.82782 0.0
H398 H 0.07367 0.21431 0.79826 0.0
H399 H 0.06085 0.08365 0.8523 0.0
H400 H 0.12498 0.15982 0.91688 0.0
H401 H 0.14596 0.11533 0.91965 0.0
H402 H 0.09845 0.12157 0.93473 0.0
H403 H 0.0696 0.07483 0.89854 0.0
H404 H 0.10161 0.05947 0.86417 0.0
C405 C 0.11072 0.18218 0.74207 0.0
C406 C 0.1461 0.23167 0.78057 0.0
C407 C 0.23603 0.02951 0.85444 0.0
C408 C 0.22178 0.00699 0.88163 0.0
C409 C 0.18925 0.01793 0.9001 0.0
C410 C 0.16995 0.05035 0.89044 0.0
C411 C 0.18328 0.07174 0.86184 0.0
C412 C 0.21609 0.0615 0.84472 0.0
C413 C 0.22496 0.08639 0.81381 0.0
C414 C 0.19182 0.11289 0.81491 0.0
C415 C 0.1676 0.10429 0.84309 0.0
C416 C 0.22535 0.06191 0.77948 0.0
C417 C 0.26228 0.10684 0.82194 0.0
C418 C 0.04389 0.16009 0.88313 0.0
C419 C 0.02143 0.18875 0.86948 0.0
C420 C 0.03259 0.20784 0.83856 0.0
C421 C 0.06641 0.19874 0.82164 0.0
C422 C 0.08885 0.17001 0.83565 0.0
C423 C 0.07733 0.15109 0.86578 0.0
C424 C 0.10399 0.12053 0.87617 0.0
C425 C 0.134 0.12489 0.8479 0.0
C426 C 0.12496 0.15385 0.82426 0.0
C427 C 0.08315 0.08256 0.87295 0.0
C428 C 0.11913 0.12939 0.91393 0.0
H429 H 0.25448 0.12545 0.75343 0.0
H430 H 0.17171 0.2224 0.70121 0.0
H431 H 0.17517 0.23975 0.78793 0.0
H432 H 0.12963 0.23555 0.80523 0.0
H433 H 0.13614 0.25178 0.76019 0.0
H434 H 0.11686 0.15825 0.7239 0.0
H435 H 0.10331 0.20659 0.72528 0.0
H436 H 0.08576 0.17339 0.75724 0.0
H437 H 0.26102 0.02133 0.83996 0.0
H438 H 0.17826 0.0007 0.92137 0.0
H439 H 0.14492 0.05694 0.905 0.0
H440 H 0.20492 0.0385 0.78145 0.0
H441 H 0.25341 0.04943 0.77482 0.0
H442 H 0.21669 0.07726 0.75542 0.0
H443 H 0.26527 0.11251 0.85099 0.0
H444 H 0.26401 0.1347 0.80938 0.0
H445 H 0.28672 0.08976 0.81347 0.0
H446 H 0.27167 0.15461 0.69792 0.0
C447 C 0.23593 0.14634 0.74318 0.0
C448 C 0.27709 0.64411 0.18784 0.0
C449 C 0.28646 0.67629 0.1688 0.0
C450 C 0.31845 0.69704 0.17813 0.0
C451 C 0.33213 0.65265 0.22481 0.0
C452 C 0.30052 0.63257 0.21538 0.0
C453 C 0.2959 0.59762 0.23679 0.0
H454 H 0.3567 0.48506 0.36791 0.0
C455 C 0.35098 0.63227 0.25374 0.0
C456 C 0.3301 0.59979 0.26048 0.0
H457 H 0.25718 0.473 0.30384 0.0
H458 H 0.27406 0.52809 0.2701 0.0
H459 H 0.41348 0.50994 0.30324 0.0
H460 H 0.34772 0.56976 0.38078 0.0
H461 H 0.38973 0.59462 0.37646 0.0
H462 H 0.39082 0.54701 0.39211 0.0
H463 H 0.42566 0.51205 0.34959 0.0
H464 H 0.44108 0.54735 0.31862 0.0
C465 C 0.29757 0.56364 0.21095 0.0
C466 C 0.259 0.60108 0.25839 0.0
C467 C 0.46482 0.68825 0.31537 0.0
C468 C 0.48646 0.67581 0.34415 0.0
C469 C 0.48003 0.64017 0.35857 0.0
C470 C 0.45139 0.61744 0.34536 0.0
C471 C 0.42875 0.63067 0.31759 0.0
C472 C 0.43602 0.66519 0.30254 0.0
C473 C 0.40897 0.67427 0.2731 0.0
C474 C 0.38364 0.64011 0.27393 0.0
C475 C 0.39539 0.61481 0.3001 0.0
C476 C 0.43122 0.67694 0.23772 0.0
C477 C 0.38771 0.71047 0.28352 0.0
C478 C 0.33905 0.49415 0.34613 0.0
C479 C 0.30592 0.47497 0.33793 0.0
C480 C 0.283 0.48751 0.31006 0.0
C481 C 0.2928 0.51951 0.29081 0.0
C482 C 0.32561 0.53918 0.29994 0.0
C483 C 0.34826 0.5262 0.32698 0.0
C484 C 0.38103 0.55149 0.33411 0.0
C485 C 0.37442 0.58185 0.30675 0.0
C486 C 0.34199 0.57442 0.28694 0.0
C487 C 0.41739 0.52923 0.3263 0.0
C488 C 0.37759 0.56647 0.37287 0.0
H489 H 0.36556 0.7021 0.21212 0.0
H490 H 0.25269 0.62773 0.18068 0.0
H491 H 0.25376 0.63059 0.26657 0.0
H492 H 0.2596 0.58538 0.28366 0.0
H493 H 0.23461 0.59168 0.24236 0.0
H494 H 0.31707 0.56909 0.18841 0.0
H495 H 0.2696 0.55753 0.19943 0.0
H496 H 0.30859 0.53807 0.2236 0.0
H497 H 0.46951 0.71563 0.30397 0.0
H498 H 0.49673 0.63035 0.38073 0.0
H499 H 0.44748 0.59081 0.35784 0.0
H500 H 0.45626 0.65842 0.23803 0.0
H501 H 0.44113 0.70594 0.23297 0.0
H502 H 0.41484 0.66731 0.21444 0.0
H503 H 0.37951 0.70983 0.31214 0.0
H504 H 0.36137 0.71421 0.26869 0.0
H505 H 0.40553 0.73554 0.27938 0.0
H506 H 0.3258 0.72197 0.16337 0.0
C507 C 0.3414 0.6854 0.2062 0.0
C508 C 0.81514 0.99446 0.8193 0.0
C509 C 0.83026 0.01084 0.85011 0.0
C510 C 0.86526 -0.00108 0.86282 0.0
C511 C 0.86956 0.95393 0.81467 0.0
C512 C 0.83539 0.96617 0.80192 0.0
C513 C 0.82367 0.94535 0.76887 0.0
H514 H 0.8589 0.81063 0.64592 0.0
C515 C 0.88297 0.92368 0.79104 0.0
C516 C 0.85646 0.91874 0.76394 0.0
H517 H 0.76139 0.88131 0.65518 0.0
H518 H 0.78847 0.9128 0.70618 0.0
H519 H 0.92273 0.87487 0.66591 0.0
H520 H 0.86273 0.79282 0.72729 0.0
H521 H 0.90843 0.79446 0.74416 0.0
H522 H 0.90091 0.78018 0.69856 0.0
H523 H 0.9307 0.82546 0.66148 0.0
H524 H 0.95467 0.85295 0.69479 0.0
C525 C 0.82086 0.97387 0.73802 0.0
C526 C 0.78674 0.92428 0.77716 0.0
C527 C 0.00074 0.85272 0.82326 0.0
C528 C 0.01896 0.82192 0.8079 0.0
C529 C 0.00641 0.80743 0.77512 0.0
C530 C 0.97493 0.82292 0.75836 0.0
C531 C 0.95594 0.85296 0.77479 0.0
C532 C 0.96939 0.86771 0.80639 0.0
C533 C 0.94573 0.89929 0.82031 0.0
C534 C 0.91522 0.90057 0.79232 0.0
C535 C 0.92123 0.87337 0.7658 0.0
C536 C 0.96983 0.93539 0.82048 0.0
C537 C 0.93026 0.88786 0.85733 0.0
C538 C 0.84387 0.83328 0.65884 0.0
C539 C 0.80831 0.84398 0.64683 0.0
C540 C 0.78892 0.87298 0.66428 0.0
C541 C 0.80466 0.89105 0.69382 0.0
C542 C 0.83993 0.87956 0.70622 0.0
C543 C 0.85894 0.85113 0.68881 0.0
C544 C 0.89495 0.8411 0.70714 0.0
C545 C 0.8947 0.86865 0.73803 0.0
C546 C 0.86247 0.89115 0.73723 0.0
C547 C 0.92767 0.84866 0.68108 0.0
C548 C 0.89202 0.79998 0.71985 0.0
H549 H 0.91147 0.96256 0.85634 0.0
H550 H 0.78815 0.00329 0.80925 0.0
H551 H 0.78562 0.91552 0.80556 0.0
H552 H 0.78383 0.89794 0.76189 0.0
H553 H 0.76196 0.94225 0.77211 0.0
H554 H 0.84354 0.99511 0.73995 0.0
H555 H 0.7937 0.98899 0.73881 0.0
H556 H 0.82446 0.96093 0.71147 0.0
H557 H 0.01015 0.86418 0.8485 0.0
H558 H 0.02041 0.78364 0.76307 0.0
H559 H 0.96615 0.81047 0.73367 0.0
H560 H 0.99157 0.93453 0.79922 0.0
H561 H 0.98446 0.93914 0.84635 0.0
H562 H 0.95328 0.96079 0.81466 0.0
H563 H 0.92248 0.85771 0.85752 0.0
H564 H 0.90441 0.90283 0.86485 0.0
H565 H 0.95152 0.89236 0.87849 0.0
H566 H 0.87708 0.01142 0.88665 0.0
C567 C 0.88506 0.97061 0.84522 0.0
C568 C 0.20927 0.93449 0.06826 0.0
C569 C 0.20022 0.89654 0.07483 0.0
C570 C 0.1701 0.91374 0.1312 0.0
C571 C 0.17729 0.95192 0.1236 0.0
N572 N 0.21205 -0.00182 0.09098 0.0
N573 N 0.18189 0.8486 0.11596 0.0
C574 C 0.19992 0.96208 0.09415 0.0
C575 C 0.18412 0.88569 0.10769 0.0
N576 N 0.22515 0.94419 0.03645 0.0
N577 N 0.14815 0.90457 0.15971 0.0
H578 H 0.19198 0.82776 0.09893 0.0
H579 H 0.17317 0.83865 0.14063 0.0
H580 H 0.13844 0.9244 0.178 0.0
H581 H 0.13806 0.87772 0.16436 0.0
H582 H 0.22845 0.97165 0.02792 0.0
H583 H 0.23367 0.92428 0.01772 0.0
H584 H 0.23115 0.00693 0.07179 0.0
H585 H 0.2054 0.0189 0.10964 0.0
C586 C 0.59191 0.75009 0.60704 0.0
C587 C 0.58096 0.76142 0.57266 0.0
C588 C 0.51585 0.76578 0.59212 0.0
C589 C 0.52584 0.7457 0.6232 0.0
N590 N 0.57313 0.72198 0.66296 0.0
N591 N 0.53553 0.78903 0.53407 0.0
C592 C 0.56397 0.73977 0.63202 0.0
C593 C 0.54383 0.77296 0.566 0.0
N594 N 0.62915 0.74846 0.61495 0.0
N595 N 0.47957 0.77686 0.58755 0.0
H596 H 0.55649 0.79644 0.51603 0.0
H597 H 0.5086 0.79532 0.52548 0.0
H598 H 0.45895 0.77191 0.60669 0.0
H599 H 0.47017 0.79268 0.56619 0.0
H600 H 0.63964 0.74267 0.64019 0.0
H601 H 0.64947 0.75628 0.59638 0.0
H602 H 0.60009 0.71315 0.66916 0.0
H603 H 0.55327 0.71478 0.68213 0.0
C604 C 0.73286 0.07233 0.0683 0.0
C605 C 0.75714 0.10196 0.07868 0.0
C606 C 0.77469 0.06823 0.13267 0.0
C607 C 0.75346 0.0373 0.12048 0.0
N608 N 0.7038 0.0131 0.08411 0.0
N609 N 0.79047 0.13373 0.12539 0.0
C610 C 0.72934 0.04068 0.09085 0.0
C611 C 0.77435 0.10176 0.11265 0.0
N612 N 0.71541 0.07311 0.03592 0.0
N613 N 0.79692 0.06465 0.16207 0.0
H614 H 0.79015 0.15855 0.11094 0.0
H615 H 0.8008 0.13662 0.15118 0.0
H616 H 0.79657 0.04088 0.17809 0.0
H617 H 0.81673 0.08443 0.16981 0.0
H618 H 0.70142 0.05033 0.02486 0.0
H619 H 0.71624 0.0961 0.01902 0.0
H620 H 0.68312 0.01496 0.06469 0.0
H621 H 0.70123 0.98962 0.10036 0.0
C622 C 0.46697 0.25182 0.55077 0.0
C623 C 0.43044 0.25929 0.56373 0.0
C624 C 0.45512 0.27482 0.62265 0.0
C625 C 0.49184 0.26918 0.60922 0.0
N626 N 0.53283 0.2433 0.56456 0.0
N627 N 0.38825 0.26743 0.61314 0.0
C628 C 0.49773 0.2544 0.57457 0.0
C629 C 0.42404 0.26714 0.60023 0.0
N630 N 0.47226 0.24412 0.51539 0.0
N631 N 0.45013 0.28951 0.65602 0.0
H632 H 0.36511 0.26183 0.59702 0.0
H633 H 0.38164 0.27002 0.64007 0.0
H634 H 0.47227 0.29433 0.67354 0.0
H635 H 0.42439 0.29865 0.66576 0.0
H636 H 0.49842 0.24267 0.50323 0.0
H637 H 0.45006 0.24081 0.49762 0.0
H638 H 0.5387 0.22948 0.54072 0.0
H639 H 0.5558 0.24512 0.58164 0.0
C640 C 0.65761 0.59262 0.39599 0.0
C641 C 0.67993 0.59071 0.42717 0.0
C642 C 0.69181 0.52423 0.41589 0.0
C643 C 0.66494 0.52505 0.38816 0.0
N644 N 0.62049 0.55902 0.35236 0.0
N645 N 0.71635 0.55457 0.46883 0.0
C646 C 0.6477 0.55908 0.37798 0.0
C647 C 0.69711 0.55662 0.43741 0.0
N648 N 0.64603 0.62663 0.38365 0.0
N649 N 0.71221 0.49245 0.42152 0.0
H650 H 0.72101 0.57766 0.48532 0.0
H651 H 0.72555 0.52954 0.47986 0.0
H652 H 0.70865 0.46819 0.40631 0.0
H653 H 0.73477 0.49112 0.439 0.0
H654 H 0.63296 0.6304 0.35915 0.0
H655 H 0.65238 0.65169 0.39662 0.0
H656 H 0.60362 0.58202 0.34686 0.0
H657 H 0.61295 0.53515 0.33799 0.0
C658 C 0.95507 0.23173 0.93696 0.0
C659 C 0.92291 0.20905 0.93157 0.0
C660 C 0.95373 0.17655 0.88196 0.0
C661 C 0.98618 0.19851 0.88797 0.0
N662 N 0.01606 0.25162 0.91566 0.0
N663 N 0.88755 0.16754 0.89366 0.0
C664 C 0.9862 0.22775 0.91363 0.0
C665 C 0.92101 0.18378 0.90235 0.0
N666 N 0.95662 0.25565 0.96543 0.0
N667 N 0.95465 0.1481 0.85746 0.0
H668 H 0.86289 0.17299 0.90769 0.0
H669 H 0.88329 0.15154 0.87078 0.0
H670 H 0.97753 0.14322 0.84077 0.0
H671 H 0.93364 0.1281 0.85488 0.0
H672 H 0.98094 0.26894 0.97397 0.0
H673 H 0.9337 0.26114 0.98173 0.0
H674 H 0.01625 0.27594 0.93101 0.0
H675 H 0.03995 0.24868 0.89989 0.0
C676 C 0.28352 0.42451 0.4226 0.0
C677 C 0.28952 0.38691 0.41187 0.0
C678 C 0.29915 0.40632 0.35024 0.0
C679 C 0.29406 0.44399 0.36119 0.0
N680 N 0.2704 0.48811 0.40442 0.0
N681 N 0.29147 0.34077 0.36515 0.0
C682 C 0.28233 0.45273 0.39631 0.0
C683 C 0.29347 0.3774 0.37543 0.0
N684 N 0.28141 0.43355 0.45799 0.0
N685 N 0.31131 0.39837 0.3165 0.0
H686 H 0.28642 0.31939 0.38337 0.0
H687 H 0.29108 0.33207 0.33863 0.0
H688 H 0.31515 0.41891 0.29719 0.0
H689 H 0.31966 0.37177 0.3083 0.0
H690 H 0.28163 0.46094 0.46758 0.0
H691 H 0.28198 0.41355 0.47806 0.0
H692 H 0.25835 0.49537 0.42877 0.0
H693 H 0.26925 0.5094 0.38551 0.0
C694 C 0.06734 0.76663 0.88005 0.0
C695 C 0.10161 0.78681 0.88171 0.0
C696 C 0.08605 0.81949 0.82631 0.0
C697 C 0.04965 0.80394 0.82803 0.0
N698 N 0.00512 0.76176 0.85436 0.0
N699 N 0.14872 0.82245 0.85129 0.0
C700 C 0.0405 0.77642 0.85372 0.0
C701 C 0.11258 0.81007 0.85301 0.0
N702 N 0.06037 0.73827 0.90346 0.0
N703 N 0.09424 0.84492 0.80033 0.0
H704 H 0.16864 0.81514 0.8703 0.0
H705 H 0.15987 0.83714 0.82993 0.0
H706 H 0.07577 0.85094 0.77961 0.0
H707 H 0.11857 0.86086 0.79957 0.0
H708 H 0.03758 0.72027 0.90155 0.0
H709 H 0.07891 0.73011 0.92324 0.0
H710 H 0.99448 0.74572 0.87508 0.0
H711 H 0.98538 0.76705 0.83455 0.0
C712 C 0.79886 0.10577 0.88452 0.0
C713 C 0.78871 0.09531 0.91954 0.0
C714 C 0.79205 0.02922 0.90283 0.0
C715 C 0.80949 0.03968 0.87047 0.0
N716 N 0.82915 0.08733 0.82924 0.0
N717 N 0.77439 0.04784 0.96275 0.0
C718 C 0.81208 0.07784 0.86053 0.0
C719 C 0.78419 0.05718 0.92872 0.0
N720 N 0.7964 0.14243 0.87465 0.0
N721 N 0.78348 0.9925 0.90874 0.0
H722 H 0.7674 0.06788 0.98193 0.0
H723 H 0.7749 0.02064 0.9725 0.0
H724 H 0.78908 0.97151 0.89004 0.0
H725 H 0.76798 0.98329 0.9305 0.0
H726 H 0.80067 0.15173 0.84872 0.0
H727 H 0.78687 0.16324 0.89203 0.0
H728 H 0.83596 0.11467 0.82237 0.0
H729 H 0.8383 0.06748 0.81071 0.0
C730 C 0.39905 0.26489 0.37036 0.0
C731 C 0.40575 0.24471 0.40216 0.0
C732 C 0.46886 0.22887 0.38199 0.0
C733 C 0.46349 0.2527 0.3524 0.0
N734 N 0.4215 0.28336 0.31192 0.0
N735 N 0.44148 0.1982 0.43348 0.0
C736 C 0.42761 0.26691 0.34419 0.0
C737 C 0.43872 0.2231 0.40612 0.0
N738 N 0.36625 0.28408 0.36649 0.0
N739 N 0.50345 0.21384 0.38794 0.0
H740 H 0.41982 0.19381 0.45162 0.0
H741 H 0.46376 0.17977 0.43664 0.0
H742 H 0.52533 0.21649 0.36966 0.0
H743 H 0.51088 0.19982 0.41111 0.0
H744 H 0.36108 0.30305 0.34615 0.0
H745 H 0.34448 0.28195 0.38487 0.0
H746 H 0.39528 0.29185 0.30302 0.0
H747 H 0.44237 0.28562 0.2926 0.0
C748 C 0.26501 0.93096 0.93667 0.0
C749 C 0.24689 0.90019 0.92027 0.0
C750 C 0.22848 0.93854 0.86987 0.0
C751 C 0.23908 0.9706 0.88994 0.0
N752 N 0.27311 -0.00144 0.93846 0.0
N753 N 0.22765 0.87056 0.86621 0.0
C754 C 0.26009 0.96709 0.92175 0.0
C755 C 0.23433 0.90273 0.88484 0.0
N756 N 0.28639 0.92544 0.9663 0.0
N757 N 0.21007 0.94254 0.83821 0.0
H758 H 0.23235 0.84433 0.87756 0.0
H759 H 0.22122 0.86978 0.83918 0.0
H760 H 0.20589 0.96843 0.82619 0.0
H761 H 0.19774 0.92045 0.8244 0.0
H762 H 0.30166 0.94632 0.97904 0.0
H763 H 0.2914 0.89891 0.9766 0.0
H764 H 0.28532 -0.00114 0.96359 0.0
H765 H 0.27105 0.02502 0.92697 0.0
C766 C 0.58015 0.71377 0.37435 0.0
C767 C 0.56939 0.72657 0.40862 0.0
C768 C 0.50337 0.72057 0.39243 0.0
C769 C 0.51435 0.70038 0.36158 0.0
N770 N 0.56229 0.67924 0.3211 0.0
N771 N 0.52162 0.74523 0.45021 0.0
C772 C 0.55253 0.69812 0.35148 0.0
C773 C 0.53114 0.73166 0.41733 0.0
N774 N 0.6168 0.71609 0.36421 0.0
N775 N 0.46636 0.72834 0.39805 0.0
H776 H 0.54164 0.75503 0.46814 0.0
H777 H 0.49444 0.74557 0.46023 0.0
H778 H 0.44548 0.72015 0.38024 0.0
H779 H 0.45658 0.74545 0.41857 0.0
H780 H 0.62639 0.70964 0.33871 0.0
H781 H 0.63722 0.72771 0.38073 0.0
H782 H 0.58975 0.67268 0.31421 0.0
H783 H 0.54244 0.66878 0.30327 0.0
C784 C 0.34455 0.3934 0.59778 0.0
C785 C 0.31586 0.39647 0.57175 0.0
C786 C 0.30696 0.4626 0.58702 0.0
C787 C 0.33716 0.46008 0.61141 0.0
N788 N 0.37928 0.42255 0.64622 0.0
N789 N 0.26257 0.43016 0.54899 0.0
C790 C 0.35411 0.42515 0.61891 0.0
C791 C 0.29456 0.42982 0.56891 0.0
N792 N 0.36316 0.36019 0.60149 0.0
N793 N 0.29127 0.4967 0.58006 0.0
H794 H 0.25258 0.40671 0.53549 0.0
H795 H 0.24398 0.45256 0.54837 0.0
H796 H 0.29857 0.52102 0.59388 0.0
H797 H 0.27256 0.50147 0.55935 0.0
H798 H 0.38729 0.35675 0.6166 0.0
H799 H 0.35472 0.33576 0.58848 0.0
H800 H 0.3905 0.39749 0.65527 0.0
H801 H 0.38724 0.44551 0.66172 0.0
C802 C 0.0629 0.80751 0.07414 0.0
C803 C 0.06224 0.78997 0.0402 0.0
C804 C 0.99448 0.78116 0.0451 0.0
C805 C 0.99454 0.80409 0.07598 0.0
N806 N 0.02797 0.8404 0.11998 0.0
N807 N 0.02778 0.76145 0.99195 0.0
C808 C 0.02859 0.8172 0.09089 0.0
C809 C 0.02821 0.77649 0.02551 0.0
N810 N 0.09645 0.81467 0.09028 0.0
N811 N 0.9621 0.76399 0.0346 0.0
H812 H 0.05198 0.75723 0.97697 0.0
H813 H 0.00334 0.75534 0.97801 0.0
H814 H 0.93691 0.76722 0.04839 0.0
H815 H 0.96086 0.74411 0.01427 0.0
H816 H 0.09899 0.82422 0.11642 0.0
H817 H 0.12203 0.80783 0.07848 0.0
H818 H 0.0514 0.85459 0.12947 0.0
H819 H 0.00342 0.84737 0.13356 0.0
C820 C 0.72135 0.58982 0.58526 0.0
C821 C 0.69451 0.61896 0.58709 0.0
C822 C 0.66002 0.58422 0.63273 0.0
C823 C 0.68079 0.55193 0.62307 0.0
N824 N 0.73212 0.52334 0.59104 0.0
N825 N 0.64515 0.64924 0.61972 0.0
C826 C 0.7122 0.55463 0.60012 0.0
C827 C 0.66626 0.61796 0.61368 0.0
N828 N 0.75569 0.5959 0.5704 0.0
N829 N 0.63421 0.58213 0.65958 0.0
H830 H 0.65181 0.67479 0.60792 0.0
H831 H 0.62167 0.65024 0.63605 0.0
H832 H 0.62954 0.55761 0.67389 0.0
H833 H 0.61895 0.60482 0.66923 0.0
H834 H 0.77703 0.57601 0.57042 0.0
H835 H 0.76491 0.62239 0.56307 0.0
H836 H 0.7522 0.52296 0.57091 0.0
H837 H 0.72686 0.49709 0.60199 0.0
C838 C 0.93642 0.2332 0.0923 0.0
C839 C 0.89856 0.22182 0.09569 0.0
C840 C 0.9113 0.19499 0.15421 0.0
C841 C 0.94974 0.20321 0.14935 0.0
N842 N -0.00257 0.23951 0.12025 0.0
N843 N 0.8476 0.20574 0.13427 0.0
C844 C 0.96174 0.22573 0.12055 0.0
C845 C 0.88524 0.20732 0.1283 0.0
N846 N 0.9485 0.24913 0.06139 0.0
N847 N 0.90006 0.17366 0.18237 0.0
H848 H 0.82841 0.21562 0.11559 0.0
H849 H 0.83584 0.19859 0.15871 0.0
H850 H 0.91839 0.16503 0.20233 0.0
H851 H 0.87306 0.163 0.18498 0.0
H852 H 0.97655 0.25343 0.05509 0.0
H853 H 0.93011 0.25737 0.04148 0.0
H854 H 0.0072 0.25864 0.10162 0.0
H855 H 0.01648 0.23419 0.14067 0.0
C856 C 0.21506 0.72713 0.1121 0.0
C857 C 0.22603 0.71435 0.07795 0.0
C858 C 0.27053 0.67056 0.10427 0.0
C859 C 0.26357 0.68742 0.13797 0.0
N860 N 0.22934 0.7307 0.17523 0.0
N861 N 0.26133 0.6728 0.04017 0.0
C862 C 0.23549 0.71514 0.14236 0.0
C863 C 0.25253 0.68522 0.07369 0.0
N864 N 0.1849 0.75045 0.11528 0.0
N865 N 0.29442 0.64074 0.10166 0.0
H866 H 0.24659 0.68126 0.01762 0.0
H867 H 0.28358 0.65501 0.03434 0.0
H868 H 0.30935 0.63025 0.12329 0.0
H869 H 0.29807 0.62482 0.07864 0.0
H870 H 0.17333 0.75882 0.1395 0.0
H871 H 0.16934 0.759 0.09326 0.0
H872 H 0.21228 0.75385 0.17968 0.0
H873 H 0.24282 0.72146 0.19822 0.0
C874 C 0.77246 0.82026 0.55397 0.0
C875 C 0.75361 0.78611 0.56091 0.0
C876 C 0.77309 0.78863 0.62349 0.0
C877 C 0.79036 0.82368 0.61697 0.0
N878 N 0.80444 0.87492 0.57765 0.0
N879 N 0.72985 0.741 0.603 0.0
C880 C 0.78946 0.8401 0.58263 0.0
C881 C 0.75244 0.771 0.59584 0.0
N882 N 0.77499 0.83309 0.51979 0.0
N883 N 0.77654 0.77212 0.65615 0.0
H884 H 0.71374 0.72749 0.58369 0.0
H885 H 0.72429 0.73134 0.62858 0.0
H886 H 0.78932 0.7851 0.6779 0.0
H887 H 0.76889 0.74456 0.66124 0.0
H888 H 0.79198 0.85523 0.51201 0.0
H889 H 0.76148 0.82018 0.49847 0.0
H890 H 0.80089 0.89055 0.55459 0.0
H891 H 0.81904 0.88934 0.59747 0.0
C892 C 0.735 0.26637 0.10607 0.0
C893 C 0.73371 0.28193 0.07144 0.0
C894 C 0.69638 0.33456 0.09348 0.0
C895 C 0.69997 0.32028 0.12848 0.0
N896 N 0.72918 0.27739 0.16947 0.0
N897 N 0.71901 0.33331 0.03251 0.0
C898 C 0.72115 0.2875 0.13519 0.0
C899 C 0.71619 0.31687 0.0652 0.0
N900 N 0.74916 0.23124 0.1111 0.0
N901 N 0.67315 0.36418 0.08718 0.0
H902 H 0.73295 0.32079 0.01113 0.0
H903 H 0.71009 0.36047 0.02729 0.0
H904 H 0.65852 0.378 0.10741 0.0
H905 H 0.66622 0.37335 0.06174 0.0
H906 H 0.74681 0.21673 0.13499 0.0
H907 H 0.76091 0.21529 0.09061 0.0
H908 H 0.74785 0.25611 0.17594 0.0
H909 H 0.72001 0.29251 0.19168 0.0
C910 C 0.23484 0.19725 0.59592 0.0
C911 C 0.25731 0.22979 0.59373 0.0
C912 C 0.25629 0.23726 0.65856 0.0
C913 C 0.23268 0.20551 0.66061 0.0
N914 N 0.19455 0.15832 0.63228 0.0
N915 N 0.28624 0.28371 0.62125 0.0
C916 C 0.22041 0.18641 0.62954 0.0
C917 C 0.26699 0.2508 0.62458 0.0
N918 N 0.228 0.17639 0.56595 0.0
N919 N 0.26935 0.25361 0.68916 0.0
H920 H 0.29626 0.2936 0.59695 0.0
H921 H 0.29061 0.30246 0.64213 0.0
H922 H 0.26088 0.24528 0.71453 0.0
H923 H 0.29012 0.27401 0.68973 0.0
H924 H 0.21537 0.15017 0.56622 0.0
H925 H 0.23712 0.18423 0.54064 0.0
H926 H 0.18144 0.14589 0.6105 0.0
H927 H 0.18396 0.14908 0.65661 0.0
C928 C 0.73503 0.73578 0.36063 0.0
C929 C 0.74722 0.75384 0.39226 0.0
C930 C 0.79303 0.7902 0.35842 0.0
C931 C 0.77783 0.7752 0.3265 0.0
N932 N 0.73275 0.73638 0.29608 0.0
N933 N 0.78737 0.79769 0.42252 0.0
C934 C 0.74849 0.74854 0.32726 0.0
C935 C 0.77623 0.78086 0.39152 0.0
N936 N 0.7113 0.70586 0.36266 0.0
N937 N 0.82396 0.81272 0.35695 0.0
H938 H 0.77761 0.78924 0.44738 0.0
H939 H 0.80507 0.82077 0.42374 0.0
H940 H 0.8366 0.82059 0.33305 0.0
H941 H 0.83877 0.82173 0.37924 0.0
H942 H 0.70434 0.68899 0.34097 0.0
H943 H 0.70076 0.69598 0.38675 0.0
H944 H 0.7084 0.72042 0.29489 0.0
H945 H 0.74261 0.74433 0.27105 0.0
C946 C 0.72229 0.29211 0.90344 0.0
C947 C 0.75614 0.27141 0.90372 0.0
C948 C 0.76655 0.28495 0.84056 0.0
C949 C 0.73157 0.30368 0.83978 0.0
N950 N 0.67421 0.32281 0.86868 0.0
N951 N 0.80846 0.24367 0.87266 0.0
C952 C 0.70886 0.30662 0.87074 0.0
C953 C 0.77789 0.26675 0.87234 0.0
N954 N 0.70369 0.29886 0.93473 0.0
N955 N 0.78902 0.28495 0.81101 0.0
H956 H 0.81788 0.23024 0.89558 0.0
H957 H 0.82308 0.23557 0.84988 0.0
H958 H 0.78086 0.29655 0.78677 0.0
H959 H 0.81659 0.27557 0.81092 0.0
H960 H 0.68134 0.31736 0.93724 0.0
H961 H 0.71216 0.2878 0.95907 0.0
H962 H 0.65438 0.32172 0.88898 0.0
H963 H 0.66415 0.33571 0.84574 0.0
C964 C 0.19922 0.19265 0.43595 0.0
C965 C 0.23048 0.21483 0.42634 0.0
C966 C 0.22182 0.19848 0.36347 0.0
C967 C 0.19299 0.17333 0.37345 0.0
N968 N 0.15568 0.14359 0.41872 0.0
N969 N 0.27437 0.23653 0.38217 0.0
C970 C 0.18192 0.1697 0.4096 0.0
C971 C 0.24251 0.21719 0.39039 0.0
N972 N 0.18592 0.19397 0.47012 0.0
N973 N 0.22874 0.20517 0.32819 0.0
H974 H 0.28947 0.25173 0.40106 0.0
H975 H 0.28725 0.23564 0.35728 0.0
H976 H 0.2146 0.19154 0.30758 0.0
H977 H 0.24637 0.2263 0.31919 0.0
H978 H 0.16117 0.18125 0.47826 0.0
H979 H 0.19829 0.21032 0.48998 0.0
H980 H 0.14909 0.13669 0.4449 0.0
H981 H 0.14204 0.12685 0.39995 0.0
C982 C 0.29584 0.69809 0.92172 0.0
C983 C 0.26395 0.72036 0.91437 0.0
C984 C 0.26646 0.70248 0.85137 0.0
C985 C 0.29941 0.68167 0.8583 0.0
N986 N 0.34856 0.66274 0.89825 0.0
N987 N 0.22341 0.75033 0.87179 0.0
C988 C 0.31505 0.68035 0.89301 0.0
C989 C 0.25044 0.72433 0.87906 0.0
N990 N 0.30702 0.69307 0.9562 0.0
N991 N 0.25023 0.701 0.81838 0.0
H992 H 0.2115 0.76746 0.89132 0.0
H993 H 0.21521 0.75752 0.84611 0.0
H994 H 0.26184 0.68644 0.79689 0.0
H995 H 0.22385 0.71189 0.81288 0.0
H996 H 0.32726 0.6738 0.96389 0.0
H997 H 0.29447 0.70684 0.97766 0.0
H998 H 0.36362 0.66421 0.92193 0.0
H999 H 0.36261 0.64828 0.87805 0.0
loop_
_geom_bond_atom_site_label_1
_geom_bond_atom_site_label_2
_geom_bond_distance
_geom_bond_site_symmetry_2
_ccdc_geom_bond_type
Sc0 O3 2.025 . S
Sc0 O10 2.105 1_554 S
Sc0 O13 2.105 . S
Sc0 O16 2.105 . S
Sc0 O19 2.105 1_554 S
Sc1 O3 2.025 . S
Sc1 O11 2.105 1_554 S
Sc1 O15 2.105 . S
Sc1 O17 2.105 . S
Sc1 O21 2.105 1_554 S
Sc2 O3 2.025 . S
Sc2 O12 2.105 1_554 S
Sc2 O14 2.105 . S
Sc2 O18 2.105 . S
Sc2 O20 2.105 1_554 S
O3 Sc0 2.025 . S
O3 Sc1 2.025 . S
O3 Sc2 2.025 . S
C4 O10 1.268 . S
C4 O20 1.268 . S
C5 O11 1.268 . S
C5 O19 1.268 . S
C6 O12 1.268 . S
C6 O21 1.268 . S
C7 O13 1.268 . S
C7 O17 1.268 . S
C8 O14 1.268 . S
C8 O16 1.268 . S
C9 O15 1.268 . S
C9 O18 1.268 . S
O10 Sc0 2.105 1_556 S
O10 C4 1.268 . S
O11 Sc1 2.105 1_556 S
O11 C5 1.268 . S
O12 Sc2 2.105 1_556 S
O12 C6 1.268 . S
O13 Sc0 2.105 . S
O13 C7 1.268 . S
O14 Sc2 2.105 . S
O14 C8 1.268 . S
O15 Sc1 2.105 . S
O15 C9 1.268 . S
O16 Sc0 2.105 . S
O16 C8 1.268 . S
O17 Sc1 2.105 . S
O17 C7 1.268 . S
O18 Sc2 2.105 . S
O18 C9 1.268 . S
O19 Sc0 2.105 1_556 S
O19 C5 1.268 . S
O20 Sc2 2.105 1_556 S
O20 C4 1.268 . S
O21 Sc1 2.105 1_556 S
O21 C6 1.268 . S
Sc22 O25 2.025 . S
Sc22 O32 2.105 . S
Sc22 O35 2.105 . S
Sc22 O38 2.105 . S
Sc22 O41 2.105 . S
Sc23 O25 2.025 . S
Sc23 O33 2.105 . S
Sc23 O37 2.105 . S
Sc23 O39 2.105 . S
Sc23 O43 2.105 . S
Sc24 O25 2.025 . S
Sc24 O34 2.105 . S
Sc24 O36 2.105 . S
Sc24 O40 2.105 . S
Sc24 O42 2.105 . S
O25 Sc22 2.025 . S
O25 Sc23 2.025 . S
O25 Sc24 2.025 . S
C26 O32 1.268 . S
C26 O42 1.268 . S
C27 O33 1.268 . S
C27 O41 1.268 . S
C28 O34 1.268 . S
C28 O43 1.268 . S
C29 O35 1.268 . S
C29 O39 1.268 . S
C30 O36 1.268 . S
C30 O38 1.268 . S
C31 O37 1.268 . S
C31 O40 1.268 . S
O32 Sc22 2.105 . S
O32 C26 1.268 . S
O33 Sc23 2.105 . S
O33 C27 1.268 . S
O34 Sc24 2.105 . S
O34 C28 1.268 . S
O35 Sc22 2.105 . S
O35 C29 1.268 . S
O36 Sc24 2.105 . S
O36 C30 1.268 . S
O37 Sc23 2.105 . S
O37 C31 1.268 . S
O38 Sc22 2.105 . S
O38 C30 1.268 . S
O39 Sc23 2.105 . S
O39 C29 1.268 . S
O40 Sc24 2.105 . S
O40 C31 1.268 . S
O41 Sc22 2.105 . S
O41 C27 1.268 . S
O42 Sc24 2.105 . S
O42 C26 1.268 . S
O43 Sc23 2.105 . S
O43 C28 1.268 . S
Sc44 O47 2.025 . S
Sc44 O54 2.105 1_554 S
Sc44 O57 2.105 . S
Sc44 O60 2.105 . S
Sc44 O63 2.105 1_554 S
Sc45 O47 2.025 . S
Sc45 O55 2.105 1_554 S
Sc45 O59 2.105 . S
Sc45 O61 2.105 . S
Sc45 O65 2.105 1_554 S
Sc46 O47 2.025 . S
Sc46 O56 2.105 1_554 S
Sc46 O58 2.105 . S
Sc46 O62 2.105 . S
Sc46 O64 2.105 1_554 S
O47 Sc44 2.025 . S
O47 Sc45 2.025 . S
O47 Sc46 2.025 . S
C48 O54 1.268 . S
C48 O64 1.268 . S
C49 O55 1.268 . S
C49 O63 1.268 . S
C50 O56 1.268 . S
C50 O65 1.268 . S
C51 O57 1.268 . S
C51 O61 1.268 . S
C52 O58 1.268 . S
C52 O60 1.268 . S
C53 O59 1.268 . S
C53 O62 1.268 . S
O54 Sc44 2.105 1_556 S
O54 C48 1.268 . S
O55 Sc45 2.105 1_556 S
O55 C49 1.268 . S
O56 Sc46 2.105 1_556 S
O56 C50 1.268 . S
O57 Sc44 2.105 . S
O57 C51 1.268 . S
O58 Sc46 2.105 . S
O58 C52 1.268 . S
O59 Sc45 2.105 . S
O59 C53 1.268 . S
O60 Sc44 2.105 . S
O60 C52 1.268 . S
O61 Sc45 2.105 . S
O61 C51 1.268 . S
O62 Sc46 2.105 . S
O62 C53 1.268 . S
O63 Sc44 2.105 1_556 S
O63 C49 1.268 . S
O64 Sc46 2.105 1_556 S
O64 C48 1.268 . S
O65 Sc45 2.105 1_556 S
O65 C50 1.268 . S
Sc66 O69 2.025 . S
Sc66 O76 2.105 . S
Sc66 O79 2.105 . S
Sc66 O82 2.105 . S
Sc66 O85 2.105 . S
Sc67 O69 2.025 . S
Sc67 O77 2.105 . S
Sc67 O81 2.105 . S
Sc67 O83 2.105 . S
Sc67 O87 2.105 . S
Sc68 O69 2.025 . S
Sc68 O78 2.105 . S
Sc68 O80 2.105 . S
Sc68 O84 2.105 . S
Sc68 O86 2.105 . S
O69 Sc66 2.025 . S
O69 Sc67 2.025 . S
O69 Sc68 2.025 . S
C70 O76 1.268 . S
C70 O86 1.268 . S
C71 O77 1.268 . S
C71 O85 1.268 . S
C72 O78 1.268 . S
C72 O87 1.268 . S
C73 O79 1.268 . S
C73 O83 1.268 . S
C74 O80 1.268 . S
C74 O82 1.268 . S
C75 O81 1.268 . S
C75 O84 1.268 . S
O76 Sc66 2.105 . S
O76 C70 1.268 . S
O77 Sc67 2.105 . S
O77 C71 1.268 . S
O78 Sc68 2.105 . S
O78 C72 1.268 . S
O79 Sc66 2.105 . S
O79 C73 1.268 . S
O80 Sc68 2.105 . S
O80 C74 1.268 . S
O81 Sc67 2.105 . S
O81 C75 1.268 . S
O82 Sc66 2.105 . S
O82 C74 1.268 . S
O83 Sc67 2.105 . S
O83 C73 1.268 . S
O84 Sc68 2.105 . S
O84 C75 1.268 . S
O85 Sc66 2.105 . S
O85 C71 1.268 . S
O86 Sc68 2.105 . S
O86 C70 1.268 . S
O87 Sc67 2.105 . S
O87 C72 1.268 . S
C88 C89 1.391 . S
C88 C92 1.391 . S
C88 H130 0.948 . S
C89 C88 1.391 . S
C89 C90 1.391 . S
C90 C89 1.391 . S
C90 H146 0.947 . S
C90 C147 1.392 . S
C91 C92 1.391 . S
C91 C95 1.397 . S
C91 C147 1.419 . S
C92 C88 1.391 . S
C92 C91 1.391 . S
C92 C93 1.399 . S
C93 C92 1.399 . S
C93 C96 1.396 . S
C93 C105 1.453 . S
C93 C106 1.684 . S
H94 C118 0.948 . S
C95 C91 1.397 . S
C95 C96 1.394 . S
C95 C114 1.723 . S
C96 C93 1.396 . S
C96 C95 1.394 . S
C96 C126 1.723 . S
H97 C120 0.947 . S
H98 C121 0.948 . S
H99 C127 0.982 . S
H100 C128 0.979 . S
H101 C128 0.980 . S
H102 C128 0.983 . S
H103 C127 0.979 . S
H104 C127 0.977 . S
C105 C93 1.453 . S
C105 H134 0.982 . S
C105 H135 0.979 . S
C105 H136 0.977 . S
C106 C93 1.684 . S
C106 H131 0.979 . S
C106 H132 0.980 . S
C106 H133 0.983 . S
C107 C108 1.391 . S
C107 C112 1.391 . S
C107 H137 0.948 . S
C108 C107 1.391 . S
C108 C109 1.391 . S
C109 C108 1.391 . S
C109 C110 1.392 . S
C109 H138 0.947 . S
C110 C109 1.392 . S
C110 C111 1.419 . S
C110 H139 0.948 . S
C111 C110 1.419 . S
C111 C112 1.391 . S
C111 C115 1.397 . S
C112 C107 1.391 . S
C112 C111 1.391 . S
C112 C113 1.399 . S
C113 C112 1.399 . S
C113 C114 1.396 . S
C113 C116 1.453 . S
C113 C117 1.684 . S
C114 C95 1.723 . S
C114 C113 1.396 . S
C114 C115 1.394 . S
C115 C111 1.397 . S
C115 C114 1.394 . S
C115 C125 1.723 . S
C116 C113 1.453 . S
C116 H140 0.982 . S
C116 H141 0.979 . S
C116 H142 0.977 . S
C117 C113 1.684 . S
C117 H143 0.979 . S
C117 H144 0.980 . S
C117 H145 0.983 . S
C118 H94 0.948 . S
C118 C119 1.391 . S
C118 C123 1.391 . S
C119 C118 1.391 . S
C119 C120 1.391 . S
C120 H97 0.947 . S
C120 C119 1.391 . S
C120 C121 1.392 . S
C121 H98 0.948 . S
C121 C120 1.392 . S
C121 C122 1.419 . S
C122 C121 1.419 . S
C122 C123 1.391 . S
C122 C126 1.397 . S
C123 C118 1.391 . S
C123 C122 1.391 . S
C123 C124 1.399 . S
C124 C123 1.399 . S
C124 C125 1.396 . S
C124 C127 1.453 . S
C124 C128 1.684 . S
C125 C115 1.723 . S
C125 C124 1.396 . S
C125 C126 1.394 . S
C126 C96 1.723 . S
C126 C122 1.397 . S
C126 C125 1.394 . S
C127 H99 0.982 . S
C127 H103 0.979 . S
C127 H104 0.977 . S
C127 C124 1.453 . S
C128 H100 0.979 . S
C128 H101 0.980 . S
C128 H102 0.983 . S
C128 C124 1.684 . S
H129 C147 0.948 . S
H130 C88 0.948 . S
H131 C106 0.979 . S
H132 C106 0.980 . S
H133 C106 0.983 . S
H134 C105 0.982 . S
H135 C105 0.979 . S
H136 C105 0.977 . S
H137 C107 0.948 . S
H138 C109 0.947 . S
H139 C110 0.948 . S
H140 C116 0.982 . S
H141 C116 0.979 . S
H142 C116 0.977 . S
H143 C117 0.979 . S
H144 C117 0.980 . S
H145 C117 0.983 . S
H146 C90 0.947 . S
C147 C90 1.392 . S
C147 C91 1.419 . S
C147 H129 0.948 . S
C148 C149 1.391 . S
C148 C152 1.391 . S
C148 H190 0.948 . S
C149 C148 1.391 . S
C149 C150 1.391 . S
C150 C149 1.391 . S
C150 H206 0.947 . S
C150 C207 1.392 . S
C151 C152 1.391 . S
C151 C155 1.397 . S
C151 C207 1.419 . S
C152 C148 1.391 . S
C152 C151 1.391 . S
C152 C153 1.399 . S
C153 C152 1.399 . S
C153 C156 1.396 . S
C153 C165 1.453 . S
C153 C166 1.684 . S
H154 C178 0.948 . S
C155 C151 1.397 . S
C155 C156 1.394 . S
C155 C174 1.723 . S
C156 C153 1.396 . S
C156 C155 1.394 . S
C156 C186 1.723 . S
H157 C180 0.947 . S
H158 C181 0.948 . S
H159 C187 0.982 . S
H160 C188 0.979 . S
H161 C188 0.980 . S
H162 C188 0.983 . S
H163 C187 0.979 . S
H164 C187 0.977 . S
C165 C153 1.453 . S
C165 H194 0.982 . S
C165 H195 0.979 . S
C165 H196 0.977 . S
C166 C153 1.684 . S
C166 H191 0.979 . S
C166 H192 0.980 . S
C166 H193 0.983 . S
C167 C168 1.391 . S
C167 C172 1.391 . S
C167 H197 0.948 . S
C168 C167 1.391 . S
C168 C169 1.391 . S
C169 C168 1.391 . S
C169 C170 1.392 . S
C169 H198 0.947 . S
C170 C169 1.392 . S
C170 C171 1.419 . S
C170 H199 0.948 . S
C171 C170 1.419 . S
C171 C172 1.391 . S
C171 C175 1.397 . S
C172 C167 1.391 . S
C172 C171 1.391 . S
C172 C173 1.399 . S
C173 C172 1.399 . S
C173 C174 1.396 . S
C173 C176 1.453 . S
C173 C177 1.684 . S
C174 C155 1.723 . S
C174 C173 1.396 . S
C174 C175 1.394 . S
C175 C171 1.397 . S
C175 C174 1.394 . S
C175 C185 1.723 . S
C176 C173 1.453 . S
C176 H200 0.982 . S
C176 H201 0.979 . S
C176 H202 0.977 . S
C177 C173 1.684 . S
C177 H203 0.979 . S
C177 H204 0.980 . S
C177 H205 0.983 . S
C178 H154 0.948 . S
C178 C179 1.391 . S
C178 C183 1.391 . S
C179 C178 1.391 . S
C179 C180 1.391 . S
C180 H157 0.947 . S
C180 C179 1.391 . S
C180 C181 1.392 . S
C181 H158 0.948 . S
C181 C180 1.392 . S
C181 C182 1.419 . S
C182 C181 1.419 . S
C182 C183 1.391 . S
C182 C186 1.397 . S
C183 C178 1.391 . S
C183 C182 1.391 . S
C183 C184 1.399 . S
C184 C183 1.399 . S
C184 C185 1.396 . S
C184 C187 1.453 . S
C184 C188 1.684 . S
C185 C175 1.723 . S
C185 C184 1.396 . S
C185 C186 1.394 . S
C186 C156 1.723 . S
C186 C182 1.397 . S
C186 C185 1.394 . S
C187 H159 0.982 . S
C187 H163 0.979 . S
C187 H164 0.977 . S
C187 C184 1.453 . S
C188 H160 0.979 . S
C188 H161 0.980 . S
C188 H162 0.983 . S
C188 C184 1.684 . S
H189 C207 0.948 . S
H190 C148 0.948 . S
H191 C166 0.979 . S
H192 C166 0.980 . S
H193 C166 0.983 . S
H194 C165 0.982 . S
H195 C165 0.979 . S
H196 C165 0.977 . S
H197 C167 0.948 . S
H198 C169 0.947 . S
H199 C170 0.948 . S
H200 C176 0.982 . S
H201 C176 0.979 . S
H202 C176 0.977 . S
H203 C177 0.979 . S
H204 C177 0.980 . S
H205 C177 0.983 . S
H206 C150 0.947 . S
C207 C150 1.392 . S
C207 C151 1.419 . S
C207 H189 0.948 . S
C208 C209 1.391 . S
C208 C212 1.391 . S
C208 H250 0.948 . S
C209 C208 1.391 . S
C209 C210 1.391 . S
C210 C209 1.391 . S
C210 H266 0.947 . S
C210 C267 1.392 . S
C211 C212 1.391 . S
C211 C215 1.397 . S
C211 C267 1.419 . S
C212 C208 1.391 . S
C212 C211 1.391 . S
C212 C213 1.399 . S
C213 C212 1.399 . S
C213 C216 1.396 . S
C213 C225 1.453 . S
C213 C226 1.684 . S
H214 C238 0.948 . S
C215 C211 1.397 . S
C215 C216 1.394 . S
C215 C234 1.723 . S
C216 C213 1.396 . S
C216 C215 1.394 . S
C216 C246 1.723 . S
H217 C240 0.947 . S
H218 C241 0.948 . S
H219 C247 0.982 . S
H220 C248 0.979 . S
H221 C248 0.980 . S
H222 C248 0.983 . S
H223 C247 0.979 . S
H224 C247 0.977 . S
C225 C213 1.453 . S
C225 H254 0.982 . S
C225 H255 0.979 . S
C225 H256 0.977 . S
C226 C213 1.684 . S
C226 H251 0.979 . S
C226 H252 0.980 . S
C226 H253 0.983 . S
C227 C228 1.391 . S
C227 C232 1.391 . S
C227 H257 0.948 . S
C228 C227 1.391 . S
C228 C229 1.391 . S
C229 C228 1.391 . S
C229 C230 1.392 . S
C229 H258 0.947 . S
C230 C229 1.392 . S
C230 C231 1.419 . S
C230 H259 0.948 . S
C231 C230 1.419 . S
C231 C232 1.391 . S
C231 C235 1.397 . S
C232 C227 1.391 . S
C232 C231 1.391 . S
C232 C233 1.399 . S
C233 C232 1.399 . S
C233 C234 1.396 . S
C233 C236 1.453 . S
C233 C237 1.684 . S
C234 C215 1.723 . S
C234 C233 1.396 . S
C234 C235 1.394 . S
C235 C231 1.397 . S
C235 C234 1.394 . S
C235 C245 1.723 . S
C236 C233 1.453 . S
C236 H260 0.982 . S
C236 H261 0.979 . S
C236 H262 0.977 . S
C237 C233 1.684 . S
C237 H263 0.979 . S
C237 H264 0.980 . S
C237 H265 0.983 . S
C238 H214 0.948 . S
C238 C239 1.391 . S
C238 C243 1.391 . S
C239 C238 1.391 . S
C239 C240 1.391 . S
C240 H217 0.947 . S
C240 C239 1.391 . S
C240 C241 1.392 . S
C241 H218 0.948 . S
C241 C240 1.392 . S
C241 C242 1.419 . S
C242 C241 1.419 . S
C242 C243 1.391 . S
C242 C246 1.397 . S
C243 C238 1.391 . S
C243 C242 1.391 . S
C243 C244 1.399 . S
C244 C243 1.399 . S
C244 C245 1.396 . S
C244 C247 1.453 . S
C244 C248 1.684 . S
C245 C235 1.723 . S
C245 C244 1.396 . S
C245 C246 1.394 . S
C246 C216 1.723 . S
C246 C242 1.397 . S
C246 C245 1.394 . S
C247 H219 0.982 . S
C247 H223 0.979 . S
C247 H224 0.977 . S
C247 C244 1.453 . S
C248 H220 0.979 . S
C248 H221 0.980 . S
C248 H222 0.983 . S
C248 C244 1.684 . S
H249 C267 0.948 . S
H250 C208 0.948 . S
H251 C226 0.979 . S
H252 C226 0.980 . S
H253 C226 0.983 . S
H254 C225 0.982 . S
H255 C225 0.979 . S
H256 C225 0.977 . S
H257 C227 0.948 . S
H258 C229 0.947 . S
H259 C230 0.948 . S
H260 C236 0.982 . S
H261 C236 0.979 . S
H262 C236 0.977 . S
H263 C237 0.979 . S
H264 C237 0.980 . S
H265 C237 0.983 . S
H266 C210 0.947 . S
C267 C210 1.392 . S
C267 C211 1.419 . S
C267 H249 0.948 . S
C268 C269 1.391 . S
C268 C272 1.391 . S
C268 H310 0.948 . S
C269 C268 1.391 . S
C269 C270 1.391 . S
C270 C269 1.391 . S
C270 H326 0.947 . S
C270 C327 1.392 . S
C271 C272 1.391 . S
C271 C275 1.397 . S
C271 C327 1.419 . S
C272 C268 1.391 . S
C272 C271 1.391 . S
C272 C273 1.399 . S
C273 C272 1.399 . S
C273 C276 1.396 . S
C273 C285 1.453 . S
C273 C286 1.684 . S
H274 C298 0.948 . S
C275 C271 1.397 . S
C275 C276 1.394 . S
C275 C294 1.723 . S
C276 C273 1.396 . S
C276 C275 1.394 . S
C276 C306 1.723 . S
H277 C300 0.947 . S
H278 C301 0.948 . S
H279 C307 0.982 . S
H280 C308 0.979 . S
H281 C308 0.980 . S
H282 C308 0.983 . S
H283 C307 0.979 . S
H284 C307 0.977 . S
C285 C273 1.453 . S
C285 H314 0.982 . S
C285 H315 0.979 . S
C285 H316 0.977 . S
C286 C273 1.684 . S
C286 H311 0.979 . S
C286 H312 0.980 . S
C286 H313 0.983 . S
C287 C288 1.391 . S
C287 C292 1.391 . S
C287 H317 0.948 . S
C288 C287 1.391 . S
C288 C289 1.391 . S
C289 C288 1.391 . S
C289 C290 1.392 . S
C289 H318 0.947 . S
C290 C289 1.392 . S
C290 C291 1.419 . S
C290 H319 0.948 . S
C291 C290 1.419 . S
C291 C292 1.391 . S
C291 C295 1.397 . S
C292 C287 1.391 . S
C292 C291 1.391 . S
C292 C293 1.399 . S
C293 C292 1.399 . S
C293 C294 1.396 . S
C293 C296 1.453 . S
C293 C297 1.684 . S
C294 C275 1.723 . S
C294 C293 1.396 . S
C294 C295 1.394 . S
C295 C291 1.397 . S
C295 C294 1.394 . S
C295 C305 1.723 . S
C296 C293 1.453 . S
C296 H320 0.982 . S
C296 H321 0.979 . S
C296 H322 0.977 . S
C297 C293 1.684 . S
C297 H323 0.979 . S
C297 H324 0.980 . S
C297 H325 0.983 . S
C298 H274 0.948 . S
C298 C299 1.391 . S
C298 C303 1.391 . S
C299 C298 1.391 . S
C299 C300 1.391 . S
C300 H277 0.947 . S
C300 C299 1.391 . S
C300 C301 1.392 . S
C301 H278 0.948 . S
C301 C300 1.392 . S
C301 C302 1.419 . S
C302 C301 1.419 . S
C302 C303 1.391 . S
C302 C306 1.397 . S
C303 C298 1.391 . S
C303 C302 1.391 . S
C303 C304 1.399 . S
C304 C303 1.399 . S
C304 C305 1.396 . S
C304 C307 1.453 . S
C304 C308 1.684 . S
C305 C295 1.723 . S
C305 C304 1.396 . S
C305 C306 1.394 . S
C306 C276 1.723 . S
C306 C302 1.397 . S
C306 C305 1.394 . S
C307 H279 0.982 . S
C307 H283 0.979 . S
C307 H284 0.977 . S
C307 C304 1.453 . S
C308 H280 0.979 . S
C308 H281 0.980 . S
C308 H282 0.983 . S
C308 C304 1.684 . S
H309 C327 0.948 . S
H310 C268 0.948 . S
H311 C286 0.979 . S
H312 C286 0.980 . S
H313 C286 0.983 . S
H314 C285 0.982 . S
H315 C285 0.979 . S
H316 C285 0.977 . S
H317 C287 0.948 . S
H318 C289 0.947 . S
H319 C290 0.948 . S
H320 C296 0.982 . S
H321 C296 0.979 . S
H322 C296 0.977 . S
H323 C297 0.979 . S
H324 C297 0.980 . S
H325 C297 0.983 . S
H326 C270 0.947 . S
C327 C270 1.392 . S
C327 C271 1.419 . S
C327 H309 0.948 . S
C328 C329 1.391 . S
C328 C332 1.391 . S
C328 H370 0.948 . S
C329 C328 1.391 . S
C329 C330 1.391 . S
C330 C329 1.391 . S
C330 H386 0.947 . S
C330 C387 1.392 . S
C331 C332 1.391 . S
C331 C335 1.397 . S
C331 C387 1.419 . S
C332 C328 1.391 . S
C332 C331 1.391 . S
C332 C333 1.399 . S
C333 C332 1.399 . S
C333 C336 1.396 . S
C333 C345 1.453 . S
C333 C346 1.684 . S
H334 C358 0.948 . S
C335 C331 1.397 . S
C335 C336 1.394 . S
C335 C354 1.723 . S
C336 C333 1.396 . S
C336 C335 1.394 . S
C336 C366 1.723 . S
H337 C360 0.947 . S
H338 C361 0.948 . S
H339 C367 0.982 . S
H340 C368 0.979 . S
H341 C368 0.980 . S
H342 C368 0.983 . S
H343 C367 0.979 . S
H344 C367 0.977 . S
C345 C333 1.453 . S
C345 H374 0.982 . S
C345 H375 0.979 . S
C345 H376 0.977 . S
C346 C333 1.684 . S
C346 H371 0.979 . S
C346 H372 0.980 . S
C346 H373 0.983 . S
C347 C348 1.391 . S
C347 C352 1.391 . S
C347 H377 0.948 . S
C348 C347 1.391 . S
C348 C349 1.391 . S
C349 C348 1.391 . S
C349 C350 1.392 . S
C349 H378 0.947 . S
C350 C349 1.392 . S
C350 C351 1.419 . S
C350 H379 0.948 . S
C351 C350 1.419 . S
C351 C352 1.391 . S
C351 C355 1.397 . S
C352 C347 1.391 . S
C352 C351 1.391 . S
C352 C353 1.399 . S
C353 C352 1.399 . S
C353 C354 1.396 . S
C353 C356 1.453 . S
C353 C357 1.684 . S
C354 C335 1.723 . S
C354 C353 1.396 . S
C354 C355 1.394 . S
C355 C351 1.397 . S
C355 C354 1.394 . S
C355 C365 1.723 . S
C356 C353 1.453 . S
C356 H380 0.982 . S
C356 H381 0.979 . S
C356 H382 0.977 . S
C357 C353 1.684 . S
C357 H383 0.979 . S
C357 H384 0.980 . S
C357 H385 0.983 . S
C358 H334 0.948 . S
C358 C359 1.391 . S
C358 C363 1.391 . S
C359 C358 1.391 . S
C359 C360 1.391 . S
C360 H337 0.947 . S
C360 C359 1.391 . S
C360 C361 1.392 . S
C361 H338 0.948 . S
C361 C360 1.392 . S
C361 C362 1.419 . S
C362 C361 1.419 . S
C362 C363 1.391 . S
C362 C366 1.397 . S
C363 C358 1.391 . S
C363 C362 1.391 . S
C363 C364 1.399 . S
C364 C363 1.399 . S
C364 C365 1.396 . S
C364 C367 1.453 . S
C364 C368 1.684 . S
C365 C355 1.723 . S
C365 C364 1.396 . S
C365 C366 1.394 . S
C366 C336 1.723 . S
C366 C362 1.397 . S
C366 C365 1.394 . S
C367 H339 0.982 . S
C367 H343 0.979 . S
C367 H344 0.977 . S
C367 C364 1.453 . S
C368 H340 0.979 . S
C368 H341 0.980 . S
C368 H342 0.983 . S
C368 C364 1.684 . S
H369 C387 0.948 . S
H370 C328 0.948 . S
H371 C346 0.979 . S
H372 C346 0.980 . S
H373 C346 0.983 . S
H374 C345 0.982 . S
H375 C345 0.979 . S
H376 C345 0.977 . S
H377 C347 0.948 . S
H378 C349 0.947 . S
H379 C350 0.948 . S
H380 C356 0.982 . S
H381 C356 0.979 . S
H382 C356 0.977 . S
H383 C357 0.979 . S
H384 C357 0.980 . S
H385 C357 0.983 . S
H386 C330 0.947 . S
C387 C330 1.392 . S
C387 C331 1.419 . S
C387 H369 0.948 . S
C388 C389 1.391 . S
C388 C392 1.391 . S
C388 H430 0.948 . S
C389 C388 1.391 . S
C389 C390 1.391 . S
C390 C389 1.391 . S
C390 H446 0.947 . S
C390 C447 1.392 . S
C391 C392 1.391 . S
C391 C395 1.397 . S
C391 C447 1.419 . S
C392 C388 1.391 . S
C392 C391 1.391 . S
C392 C393 1.399 . S
C393 C392 1.399 . S
C393 C396 1.396 . S
C393 C405 1.453 . S
C393 C406 1.684 . S
H394 C418 0.948 . S
C395 C391 1.397 . S
C395 C396 1.394 . S
C395 C414 1.723 . S
C396 C393 1.396 . S
C396 C395 1.394 . S
C396 C426 1.723 . S
H397 C420 0.947 . S
H398 C421 0.948 . S
H399 C427 0.982 . S
H400 C428 0.979 . S
H401 C428 0.980 . S
H402 C428 0.983 . S
H403 C427 0.979 . S
H404 C427 0.977 . S
C405 C393 1.453 . S
C405 H434 0.982 . S
C405 H435 0.979 . S
C405 H436 0.977 . S
C406 C393 1.684 . S
C406 H431 0.979 . S
C406 H432 0.980 . S
C406 H433 0.983 . S
C407 C408 1.391 . S
C407 C412 1.391 . S
C407 H437 0.948 . S
C408 C407 1.391 . S
C408 C409 1.391 . S
C409 C408 1.391 . S
C409 C410 1.392 . S
C409 H438 0.947 . S
C410 C409 1.392 . S
C410 C411 1.419 . S
C410 H439 0.948 . S
C411 C410 1.419 . S
C411 C412 1.391 . S
C411 C415 1.397 . S
C412 C407 1.391 . S
C412 C411 1.391 . S
C412 C413 1.399 . S
C413 C412 1.399 . S
C413 C414 1.396 . S
C413 C416 1.453 . S
C413 C417 1.684 . S
C414 C395 1.723 . S
C414 C413 1.396 . S
C414 C415 1.394 . S
C415 C411 1.397 . S
C415 C414 1.394 . S
C415 C425 1.723 . S
C416 C413 1.453 . S
C416 H440 0.982 . S
C416 H441 0.979 . S
C416 H442 0.977 . S
C417 C413 1.684 . S
C417 H443 0.979 . S
C417 H444 0.980 . S
C417 H445 0.983 . S
C418 H394 0.948 . S
C418 C419 1.391 . S
C418 C423 1.391 . S
C419 C418 1.391 . S
C419 C420 1.391 . S
C420 H397 0.947 . S
C420 C419 1.391 . S
C420 C421 1.392 . S
C421 H398 0.948 . S
C421 C420 1.392 . S
C421 C422 1.419 . S
C422 C421 1.419 . S
C422 C423 1.391 . S
C422 C426 1.397 . S
C423 C418 1.391 . S
C423 C422 1.391 . S
C423 C424 1.399 . S
C424 C423 1.399 . S
C424 C425 1.396 . S
C424 C427 1.453 . S
C424 C428 1.684 . S
C425 C415 1.723 . S
C425 C424 1.396 . S
C425 C426 1.394 . S
C426 C396 1.723 . S
C426 C422 1.397 . S
C426 C425 1.394 . S
C427 H399 0.982 . S
C427 H403 0.979 . S
C427 H404 0.977 . S
C427 C424 1.453 . S
C428 H400 0.979 . S
C428 H401 0.980 . S
C428 H402 0.983 . S
C428 C424 1.684 . S
H429 C447 0.948 . S
H430 C388 0.948 . S
H431 C406 0.979 . S
H432 C406 0.980 . S
H433 C406 0.983 . S
H434 C405 0.982 . S
H435 C405 0.979 . S
H436 C405 0.977 . S
H437 C407 0.948 . S
H438 C409 0.947 . S
H439 C410 0.948 . S
H440 C416 0.982 . S
H441 C416 0.979 . S
H442 C416 0.977 . S
H443 C417 0.979 . S
H444 C417 0.980 . S
H445 C417 0.983 . S
H446 C390 0.947 . S
C447 C390 1.392 . S
C447 C391 1.419 . S
C447 H429 0.948 . S
C448 C449 1.391 . S
C448 C452 1.391 . S
C448 H490 0.948 . S
C449 C448 1.391 . S
C449 C450 1.391 . S
C450 C449 1.391 . S
C450 H506 0.947 . S
C450 C507 1.392 . S
C451 C452 1.391 . S
C451 C455 1.397 . S
C451 C507 1.419 . S
C452 C448 1.391 . S
C452 C451 1.391 . S
C452 C453 1.399 . S
C453 C452 1.399 . S
C453 C456 1.396 . S
C453 C465 1.453 . S
C453 C466 1.684 . S
H454 C478 0.948 . S
C455 C451 1.397 . S
C455 C456 1.394 . S
C455 C474 1.723 . S
C456 C453 1.396 . S
C456 C455 1.394 . S
C456 C486 1.723 . S
H457 C480 0.947 . S
H458 C481 0.948 . S
H459 C487 0.982 . S
H460 C488 0.979 . S
H461 C488 0.980 . S
H462 C488 0.983 . S
H463 C487 0.979 . S
H464 C487 0.977 . S
C465 C453 1.453 . S
C465 H494 0.982 . S
C465 H495 0.979 . S
C465 H496 0.977 . S
C466 C453 1.684 . S
C466 H491 0.979 . S
C466 H492 0.980 . S
C466 H493 0.983 . S
C467 C468 1.391 . S
C467 C472 1.391 . S
C467 H497 0.948 . S
C468 C467 1.391 . S
C468 C469 1.391 . S
C469 C468 1.391 . S
C469 C470 1.392 . S
C469 H498 0.947 . S
C470 C469 1.392 . S
C470 C471 1.419 . S
C470 H499 0.948 . S
C471 C470 1.419 . S
C471 C472 1.391 . S
C471 C475 1.397 . S
C472 C467 1.391 . S
C472 C471 1.391 . S
C472 C473 1.399 . S
C473 C472 1.399 . S
C473 C474 1.396 . S
C473 C476 1.453 . S
C473 C477 1.684 . S
C474 C455 1.723 . S
C474 C473 1.396 . S
C474 C475 1.394 . S
C475 C471 1.397 . S
C475 C474 1.394 . S
C475 C485 1.723 . S
C476 C473 1.453 . S
C476 H500 0.982 . S
C476 H501 0.979 . S
C476 H502 0.977 . S
C477 C473 1.684 . S
C477 H503 0.979 . S
C477 H504 0.980 . S
C477 H505 0.983 . S
C478 H454 0.948 . S
C478 C479 1.391 . S
C478 C483 1.391 . S
C479 C478 1.391 . S
C479 C480 1.391 . S
C480 H457 0.947 . S
C480 C479 1.391 . S
C480 C481 1.392 . S
C481 H458 0.948 . S
C481 C480 1.392 . S
C481 C482 1.419 . S
C482 C481 1.419 . S
C482 C483 1.391 . S
C482 C486 1.397 . S
C483 C478 1.391 . S
C483 C482 1.391 . S
C483 C484 1.399 . S
C484 C483 1.399 . S
C484 C485 1.396 . S
C484 C487 1.453 . S
C484 C488 1.684 . S
C485 C475 1.723 . S
C485 C484 1.396 . S
C485 C486 1.394 . S
C486 C456 1.723 . S
C486 C482 1.397 . S
C486 C485 1.394 . S
C487 H459 0.982 . S
C487 H463 0.979 . S
C487 H464 0.977 . S
C487 C484 1.453 . S
C488 H460 0.979 . S
C488 H461 0.980 . S
C488 H462 0.983 . S
C488 C484 1.684 . S
H489 C507 0.948 . S
H490 C448 0.948 . S
H491 C466 0.979 . S
H492 C466 0.980 . S
H493 C466 0.983 . S
H494 C465 0.982 . S
H495 C465 0.979 . S
H496 C465 0.977 . S
H497 C467 0.948 . S
H498 C469 0.947 . S
H499 C470 0.948 . S
H500 C476 0.982 . S
H501 C476 0.979 . S
H502 C476 0.977 . S
H503 C477 0.979 . S
H504 C477 0.980 . S
H505 C477 0.983 . S
H506 C450 0.947 . S
C507 C450 1.392 . S
C507 C451 1.419 . S
C507 H489 0.948 . S
C508 C509 1.391 . S
C508 C512 1.391 . S
C508 H550 0.948 . S
C509 C508 1.391 . S
C509 C510 1.391 . S
C510 C509 1.391 . S
C510 H566 0.947 . S
C510 C567 1.392 . S
C511 C512 1.391 . S
C511 C515 1.397 . S
C511 C567 1.419 . S
C512 C508 1.391 . S
C512 C511 1.391 . S
C512 C513 1.399 . S
C513 C512 1.399 . S
C513 C516 1.396 . S
C513 C525 1.453 . S
C513 C526 1.684 . S
H514 C538 0.948 . S
C515 C511 1.397 . S
C515 C516 1.394 . S
C515 C534 1.723 . S
C516 C513 1.396 . S
C516 C515 1.394 . S
C516 C546 1.723 . S
H517 C540 0.947 . S
H518 C541 0.948 . S
H519 C547 0.982 . S
H520 C548 0.979 . S
H521 C548 0.980 . S
H522 C548 0.983 . S
H523 C547 0.979 . S
H524 C547 0.977 . S
C525 C513 1.453 . S
C525 H554 0.982 . S
C525 H555 0.979 . S
C525 H556 0.977 . S
C526 C513 1.684 . S
C526 H551 0.979 . S
C526 H552 0.980 . S
C526 H553 0.983 . S
C527 C528 1.391 . S
C527 C532 1.391 . S
C527 H557 0.948 . S
C528 C527 1.391 . S
C528 C529 1.391 . S
C529 C528 1.391 . S
C529 C530 1.392 . S
C529 H558 0.947 . S
C530 C529 1.392 . S
C530 C531 1.419 . S
C530 H559 0.948 . S
C531 C530 1.419 . S
C531 C532 1.391 . S
C531 C535 1.397 . S
C532 C527 1.391 . S
C532 C531 1.391 . S
C532 C533 1.399 . S
C533 C532 1.399 . S
C533 C534 1.396 . S
C533 C536 1.453 . S
C533 C537 1.684 . S
C534 C515 1.723 . S
C534 C533 1.396 . S
C534 C535 1.394 . S
C535 C531 1.397 . S
C535 C534 1.394 . S
C535 C545 1.723 . S
C536 C533 1.453 . S
C536 H560 0.982 . S
C536 H561 0.979 . S
C536 H562 0.977 . S
C537 C533 1.684 . S
C537 H563 0.979 . S
C537 H564 0.980 . S
C537 H565 0.983 . S
C538 H514 0.948 . S
C538 C539 1.391 . S
C538 C543 1.391 . S
C539 C538 1.391 . S
C539 C540 1.391 . S
C540 H517 0.947 . S
C540 C539 1.391 . S
C540 C541 1.392 . S
C541 H518 0.948 . S
C541 C540 1.392 . S
C541 C542 1.419 . S
C542 C541 1.419 . S
C542 C543 1.391 . S
C542 C546 1.397 . S
C543 C538 1.391 . S
C543 C542 1.391 . S
C543 C544 1.399 . S
C544 C543 1.399 . S
C544 C545 1.396 . S
C544 C547 1.453 . S
C544 C548 1.684 . S
C545 C535 1.723 . S
C545 C544 1.396 . S
C545 C546 1.394 . S
C546 C516 1.723 . S
C546 C542 1.397 . S
C546 C545 1.394 . S
C547 H519 0.982 . S
C547 H523 0.979 . S
C547 H524 0.977 . S
C547 C544 1.453 . S
C548 H520 0.979 . S
C548 H521 0.980 . S
C548 H522 0.983 . S
C548 C544 1.684 . S
H549 C567 0.948 . S
H550 C508 0.948 . S
H551 C526 0.979 . S
H552 C526 0.980 . S
H553 C526 0.983 . S
H554 C525 0.982 . S
H555 C525 0.979 . S
H556 C525 0.977 . S
H557 C527 0.948 . S
H558 C529 0.947 . S
H559 C530 0.948 . S
H560 C536 0.982 . S
H561 C536 0.979 . S
H562 C536 0.977 . S
H563 C537 0.979 . S
H564 C537 0.980 . S
H565 C537 0.983 . S
H566 C510 0.947 . S
C567 C510 1.392 . S
C567 C511 1.419 . S
C567 H549 0.948 . S
C568 C569 1.363 . S
C568 C574 1.379 . S
C568 N576 1.356 . S
C569 C568 1.363 . S
C569 C575 1.363 . S
C570 C571 1.363 . S
C570 C575 1.379 . S
C570 N577 1.356 . S
C571 C570 1.363 . S
C571 C574 1.363 . S
N572 C574 1.356 1_545 S
N572 H584 0.984 . S
N572 H585 0.985 . S
N573 C575 1.356 . S
N573 H578 0.984 . S
N573 H579 0.985 . S
C574 C568 1.379 . S
C574 C571 1.363 . S
C574 N572 1.356 1_565 S
C575 C569 1.363 . S
C575 C570 1.379 . S
C575 N573 1.356 . S
N576 C568 1.356 . S
N576 H582 0.984 . S
N576 H583 0.984 . S
N577 C570 1.356 . S
N577 H580 0.984 . S
N577 H581 0.985 . S
H578 N573 0.984 . S
H579 N573 0.985 . S
H580 N577 0.984 . S
H581 N577 0.985 . S
H582 N576 0.984 . S
H583 N576 0.984 . S
H584 N572 0.984 . S
H585 N572 0.985 . S
C586 C587 1.363 . S
C586 C592 1.379 . S
C586 N594 1.356 . S
C587 C586 1.363 . S
C587 C593 1.363 . S
C588 C589 1.363 . S
C588 C593 1.379 . S
C588 N595 1.356 . S
C589 C588 1.363 . S
C589 C592 1.363 . S
N590 C592 1.356 . S
N590 H602 0.984 . S
N590 H603 0.985 . S
N591 C593 1.356 . S
N591 H596 0.984 . S
N591 H597 0.985 . S
C592 C586 1.379 . S
C592 C589 1.363 . S
C592 N590 1.356 . S
C593 C587 1.363 . S
C593 C588 1.379 . S
C593 N591 1.356 . S
N594 C586 1.356 . S
N594 H600 0.984 . S
N594 H601 0.984 . S
N595 C588 1.356 . S
N595 H598 0.984 . S
N595 H599 0.985 . S
H596 N591 0.984 . S
H597 N591 0.985 . S
H598 N595 0.984 . S
H599 N595 0.985 . S
H600 N594 0.984 . S
H601 N594 0.984 . S
H602 N590 0.984 . S
H603 N590 0.985 . S
C604 C605 1.363 . S
C604 C610 1.379 . S
C604 N612 1.356 . S
C605 C604 1.363 . S
C605 C611 1.363 . S
C606 C607 1.363 . S
C606 C611 1.379 . S
C606 N613 1.356 . S
C607 C606 1.363 . S
C607 C610 1.363 . S
N608 C610 1.356 1_565 S
N608 H620 0.984 . S
N608 H621 0.985 . S
N609 C611 1.356 . S
N609 H614 0.984 . S
N609 H615 0.985 . S
C610 C604 1.379 . S
C610 C607 1.363 . S
C610 N608 1.356 1_545 S
C611 C605 1.363 . S
C611 C606 1.379 . S
C611 N609 1.356 . S
N612 C604 1.356 . S
N612 H618 0.984 . S
N612 H619 0.984 . S
N613 C606 1.356 . S
N613 H616 0.984 . S
N613 H617 0.985 . S
H614 N609 0.984 . S
H615 N609 0.985 . S
H616 N613 0.984 . S
H617 N613 0.985 . S
H618 N612 0.984 . S
H619 N612 0.984 . S
H620 N608 0.984 . S
H621 N608 0.985 . S
C622 C623 1.363 . S
C622 C628 1.379 . S
C622 N630 1.356 . S
C623 C622 1.363 . S
C623 C629 1.363 . S
C624 C625 1.363 . S
C624 C629 1.379 . S
C624 N631 1.356 . S
C625 C624 1.363 . S
C625 C628 1.363 . S
N626 C628 1.356 . S
N626 H638 0.984 . S
N626 H639 0.985 . S
N627 C629 1.356 . S
N627 H632 0.984 . S
N627 H633 0.985 . S
C628 C622 1.379 . S
C628 C625 1.363 . S
C628 N626 1.356 . S
C629 C623 1.363 . S
C629 C624 1.379 . S
C629 N627 1.356 . S
N630 C622 1.356 . S
N630 H636 0.984 . S
N630 H637 0.984 . S
N631 C624 1.356 . S
N631 H634 0.984 . S
N631 H635 0.985 . S
H632 N627 0.984 . S
H633 N627 0.985 . S
H634 N631 0.984 . S
H635 N631 0.985 . S
H636 N630 0.984 . S
H637 N630 0.984 . S
H638 N626 0.984 . S
H639 N626 0.985 . S
C640 C641 1.363 . S
C640 C646 1.379 . S
C640 N648 1.356 . S
C641 C640 1.363 . S
C641 C647 1.363 . S
C642 C643 1.363 . S
C642 C647 1.379 . S
C642 N649 1.356 . S
C643 C642 1.363 . S
C643 C646 1.363 . S
N644 C646 1.356 . S
N644 H656 0.984 . S
N644 H657 0.985 . S
N645 C647 1.356 . S
N645 H650 0.984 . S
N645 H651 0.985 . S
C646 C640 1.379 . S
C646 C643 1.363 . S
C646 N644 1.356 . S
C647 C641 1.363 . S
C647 C642 1.379 . S
C647 N645 1.356 . S
N648 C640 1.356 . S
N648 H654 0.984 . S
N648 H655 0.984 . S
N649 C642 1.356 . S
N649 H652 0.984 . S
N649 H653 0.985 . S
H650 N645 0.984 . S
H651 N645 0.985 . S
H652 N649 0.984 . S
H653 N649 0.985 . S
H654 N648 0.984 . S
H655 N648 0.984 . S
H656 N644 0.984 . S
H657 N644 0.985 . S
C658 C659 1.363 . S
C658 C664 1.379 . S
C658 N666 1.356 . S
C659 C658 1.363 . S
C659 C665 1.363 . S
C660 C661 1.363 . S
C660 C665 1.379 . S
C660 N667 1.356 . S
C661 C660 1.363 . S
C661 C664 1.363 . S
N662 C664 1.356 1_455 S
N662 H674 0.984 . S
N662 H675 0.985 . S
N663 C665 1.356 . S
N663 H668 0.984 . S
N663 H669 0.985 . S
C664 C658 1.379 . S
C664 C661 1.363 . S
C664 N662 1.356 1_655 S
C665 C659 1.363 . S
C665 C660 1.379 . S
C665 N663 1.356 . S
N666 C658 1.356 . S
N666 H672 0.984 . S
N666 H673 0.984 . S
N667 C660 1.356 . S
N667 H670 0.984 . S
N667 H671 0.985 . S
H668 N663 0.984 . S
H669 N663 0.985 . S
H670 N667 0.984 . S
H671 N667 0.985 . S
H672 N666 0.984 . S
H673 N666 0.984 . S
H674 N662 0.984 . S
H675 N662 0.985 . S
C676 C677 1.363 . S
C676 C682 1.379 . S
C676 N684 1.356 . S
C677 C676 1.363 . S
C677 C683 1.363 . S
C678 C679 1.363 . S
C678 C683 1.379 . S
C678 N685 1.356 . S
C679 C678 1.363 . S
C679 C682 1.363 . S
N680 C682 1.356 . S
N680 H692 0.984 . S
N680 H693 0.985 . S
N681 C683 1.356 . S
N681 H686 0.984 . S
N681 H687 0.985 . S
C682 C676 1.379 . S
C682 C679 1.363 . S
C682 N680 1.356 . S
C683 C677 1.363 . S
C683 C678 1.379 . S
C683 N681 1.356 . S
N684 C676 1.356 . S
N684 H690 0.984 . S
N684 H691 0.984 . S
N685 C678 1.356 . S
N685 H688 0.984 . S
N685 H689 0.985 . S
H686 N681 0.984 . S
H687 N681 0.985 . S
H688 N685 0.984 . S
H689 N685 0.985 . S
H690 N684 0.984 . S
H691 N684 0.984 . S
H692 N680 0.984 . S
H693 N680 0.985 . S
C694 C695 1.363 . S
C694 C700 1.379 . S
C694 N702 1.356 . S
C695 C694 1.363 . S
C695 C701 1.363 . S
C696 C697 1.363 . S
C696 C701 1.379 . S
C696 N703 1.356 1_455 S
C697 C696 1.363 . S
C697 C700 1.363 . S
N698 C700 1.356 . S
N698 H710 0.984 . S
N698 H711 0.985 . S
N699 C701 1.356 . S
N699 H704 0.984 . S
N699 H705 0.985 . S
C700 C694 1.379 . S
C700 C697 1.363 . S
C700 N698 1.356 . S
C701 C695 1.363 . S
C701 C696 1.379 . S
C701 N699 1.356 . S
N702 C694 1.356 . S
N702 H708 0.984 . S
N702 H709 0.984 . S
N703 C696 1.356 1_655 S
N703 H706 0.984 . S
N703 H707 0.985 . S
H704 N699 0.984 . S
H705 N699 0.985 . S
H706 N703 0.984 . S
H707 N703 0.985 . S
H708 N702 0.984 . S
H709 N702 0.984 . S
H710 N698 0.984 . S
H711 N698 0.985 . S
C712 C713 1.363 . S
C712 C718 1.379 . S
C712 N720 1.356 . S
C713 C712 1.363 . S
C713 C719 1.363 . S
C714 C715 1.363 . S
C714 C719 1.379 . S
C714 N721 1.356 1_545 S
C715 C714 1.363 . S
C715 C718 1.363 . S
N716 C718 1.356 . S
N716 H728 0.984 . S
N716 H729 0.985 . S
N717 C719 1.356 . S
N717 H722 0.984 . S
N717 H723 0.985 . S
C718 C712 1.379 . S
C718 C715 1.363 . S
C718 N716 1.356 . S
C719 C713 1.363 . S
C719 C714 1.379 . S
C719 N717 1.356 . S
N720 C712 1.356 . S
N720 H726 0.984 . S
N720 H727 0.984 . S
N721 C714 1.356 1_565 S
N721 H724 0.984 . S
N721 H725 0.985 . S
H722 N717 0.984 . S
H723 N717 0.985 . S
H724 N721 0.984 . S
H725 N721 0.985 . S
H726 N720 0.984 . S
H727 N720 0.984 . S
H728 N716 0.984 . S
H729 N716 0.985 . S
C730 C731 1.363 . S
C730 C736 1.379 . S
C730 N738 1.356 . S
C731 C730 1.363 . S
C731 C737 1.363 . S
C732 C733 1.363 . S
C732 C737 1.379 . S
C732 N739 1.356 . S
C733 C732 1.363 . S
C733 C736 1.363 . S
N734 C736 1.356 . S
N734 H746 0.984 . S
N734 H747 0.985 . S
N735 C737 1.356 . S
N735 H740 0.984 . S
N735 H741 0.985 . S
C736 C730 1.379 . S
C736 C733 1.363 . S
C736 N734 1.356 . S
C737 C731 1.363 . S
C737 C732 1.379 . S
C737 N735 1.356 . S
N738 C730 1.356 . S
N738 H744 0.984 . S
N738 H745 0.984 . S
N739 C732 1.356 . S
N739 H742 0.984 . S
N739 H743 0.985 . S
H740 N735 0.984 . S
H741 N735 0.985 . S
H742 N739 0.984 . S
H743 N739 0.985 . S
H744 N738 0.984 . S
H745 N738 0.984 . S
H746 N734 0.984 . S
H747 N734 0.985 . S
C748 C749 1.363 . S
C748 C754 1.379 . S
C748 N756 1.356 . S
C749 C748 1.363 . S
C749 C755 1.363 . S
C750 C751 1.363 . S
C750 C755 1.379 . S
C750 N757 1.356 . S
C751 C750 1.363 . S
C751 C754 1.363 . S
N752 C754 1.356 1_545 S
N752 H764 0.984 . S
N752 H765 0.985 . S
N753 C755 1.356 . S
N753 H758 0.984 . S
N753 H759 0.985 . S
C754 C748 1.379 . S
C754 C751 1.363 . S
C754 N752 1.356 1_565 S
C755 C749 1.363 . S
C755 C750 1.379 . S
C755 N753 1.356 . S
N756 C748 1.356 . S
N756 H762 0.984 . S
N756 H763 0.984 . S
N757 C750 1.356 . S
N757 H760 0.984 . S
N757 H761 0.985 . S
H758 N753 0.984 . S
H759 N753 0.985 . S
H760 N757 0.984 . S
H761 N757 0.985 . S
H762 N756 0.984 . S
H763 N756 0.984 . S
H764 N752 0.984 . S
H765 N752 0.985 . S
C766 C767 1.363 . S
C766 C772 1.379 . S
C766 N774 1.356 . S
C767 C766 1.363 . S
C767 C773 1.363 . S
C768 C769 1.363 . S
C768 C773 1.379 . S
C768 N775 1.356 . S
C769 C768 1.363 . S
C769 C772 1.363 . S
N770 C772 1.356 . S
N770 H782 0.984 . S
N770 H783 0.985 . S
N771 C773 1.356 . S
N771 H776 0.984 . S
N771 H777 0.985 . S
C772 C766 1.379 . S
C772 C769 1.363 . S
C772 N770 1.356 . S
C773 C767 1.363 . S
C773 C768 1.379 . S
C773 N771 1.356 . S
N774 C766 1.356 . S
N774 H780 0.984 . S
N774 H781 0.984 . S
N775 C768 1.356 . S
N775 H778 0.984 . S
N775 H779 0.985 . S
H776 N771 0.984 . S
H777 N771 0.985 . S
H778 N775 0.984 . S
H779 N775 0.985 . S
H780 N774 0.984 . S
H781 N774 0.984 . S
H782 N770 0.984 . S
H783 N770 0.985 . S
C784 C785 1.363 . S
C784 C790 1.379 . S
C784 N792 1.356 . S
C785 C784 1.363 . S
C785 C791 1.363 . S
C786 C787 1.363 . S
C786 C791 1.379 . S
C786 N793 1.356 . S
C787 C786 1.363 . S
C787 C790 1.363 . S
N788 C790 1.356 . S
N788 H800 0.984 . S
N788 H801 0.985 . S
N789 C791 1.356 . S
N789 H794 0.984 . S
N789 H795 0.985 . S
C790 C784 1.379 . S
C790 C787 1.363 . S
C790 N788 1.356 . S
C791 C785 1.363 . S
C791 C786 1.379 . S
C791 N789 1.356 . S
N792 C784 1.356 . S
N792 H798 0.984 . S
N792 H799 0.984 . S
N793 C786 1.356 . S
N793 H796 0.984 . S
N793 H797 0.985 . S
H794 N789 0.984 . S
H795 N789 0.985 . S
H796 N793 0.984 . S
H797 N793 0.985 . S
H798 N792 0.984 . S
H799 N792 0.984 . S
H800 N788 0.984 . S
H801 N788 0.985 . S
C802 C803 1.363 . S
C802 C808 1.379 . S
C802 N810 1.356 . S
C803 C802 1.363 . S
C803 C809 1.363 . S
C804 C805 1.363 . S
C804 C809 1.379 . S
C804 N811 1.356 1_455 S
C805 C804 1.363 . S
C805 C808 1.363 . S
N806 C808 1.356 . S
N806 H818 0.984 . S
N806 H819 0.985 . S
N807 C809 1.356 . S
N807 H812 0.984 . S
N807 H813 0.985 . S
C808 C802 1.379 . S
C808 C805 1.363 . S
C808 N806 1.356 . S
C809 C803 1.363 . S
C809 C804 1.379 . S
C809 N807 1.356 . S
N810 C802 1.356 . S
N810 H816 0.984 . S
N810 H817 0.984 . S
N811 C804 1.356 1_655 S
N811 H814 0.984 . S
N811 H815 0.985 . S
H812 N807 0.984 . S
H813 N807 0.985 . S
H814 N811 0.984 . S
H815 N811 0.985 . S
H816 N810 0.984 . S
H817 N810 0.984 . S
H818 N806 0.984 . S
H819 N806 0.985 . S
C820 C821 1.363 . S
C820 C826 1.379 . S
C820 N828 1.356 . S
C821 C820 1.363 . S
C821 C827 1.363 . S
C822 C823 1.363 . S
C822 C827 1.379 . S
C822 N829 1.356 . S
C823 C822 1.363 . S
C823 C826 1.363 . S
N824 C826 1.356 . S
N824 H836 0.984 . S
N824 H837 0.985 . S
N825 C827 1.356 . S
N825 H830 0.984 . S
N825 H831 0.985 . S
C826 C820 1.379 . S
C826 C823 1.363 . S
C826 N824 1.356 . S
C827 C821 1.363 . S
C827 C822 1.379 . S
C827 N825 1.356 . S
N828 C820 1.356 . S
N828 H834 0.984 . S
N828 H835 0.984 . S
N829 C822 1.356 . S
N829 H832 0.984 . S
N829 H833 0.985 . S
H830 N825 0.984 . S
H831 N825 0.985 . S
H832 N829 0.984 . S
H833 N829 0.985 . S
H834 N828 0.984 . S
H835 N828 0.984 . S
H836 N824 0.984 . S
H837 N824 0.985 . S
C838 C839 1.363 . S
C838 C844 1.379 . S
C838 N846 1.356 . S
C839 C838 1.363 . S
C839 C845 1.363 . S
C840 C841 1.363 . S
C840 C845 1.379 . S
C840 N847 1.356 . S
C841 C840 1.363 . S
C841 C844 1.363 . S
N842 C844 1.356 . S
N842 H854 0.985 . S
N842 H855 0.985 1_655 S
N843 C845 1.356 . S
N843 H848 0.984 . S
N843 H849 0.985 . S
C844 C838 1.379 . S
C844 C841 1.363 . S
C844 N842 1.356 . S
C845 C839 1.363 . S
C845 C840 1.379 . S
C845 N843 1.356 . S
N846 C838 1.356 . S
N846 H852 0.984 . S
N846 H853 0.984 . S
N847 C840 1.356 . S
N847 H850 0.984 . S
N847 H851 0.985 . S
H848 N843 0.984 . S
H849 N843 0.985 . S
H850 N847 0.984 . S
H851 N847 0.985 . S
H852 N846 0.984 . S
H853 N846 0.984 . S
H854 N842 0.985 . S
H855 N842 0.985 1_455 S
C856 C857 1.363 . S
C856 C862 1.379 . S
C856 N864 1.356 . S
C857 C856 1.363 . S
C857 C863 1.363 . S
C858 C859 1.363 . S
C858 C863 1.379 . S
C858 N865 1.356 . S
C859 C858 1.363 . S
C859 C862 1.363 . S
N860 C862 1.356 . S
N860 H872 0.984 . S
N860 H873 0.985 . S
N861 C863 1.356 . S
N861 H866 0.984 . S
N861 H867 0.985 . S
C862 C856 1.379 . S
C862 C859 1.363 . S
C862 N860 1.356 . S
C863 C857 1.363 . S
C863 C858 1.379 . S
C863 N861 1.356 . S
N864 C856 1.356 . S
N864 H870 0.984 . S
N864 H871 0.984 . S
N865 C858 1.356 . S
N865 H868 0.984 . S
N865 H869 0.985 . S
H866 N861 0.984 . S
H867 N861 0.985 . S
H868 N865 0.984 . S
H869 N865 0.985 . S
H870 N864 0.984 . S
H871 N864 0.984 . S
H872 N860 0.984 . S
H873 N860 0.985 . S
C874 C875 1.363 . S
C874 C880 1.379 . S
C874 N882 1.356 . S
C875 C874 1.363 . S
C875 C881 1.363 . S
C876 C877 1.363 . S
C876 C881 1.379 . S
C876 N883 1.356 . S
C877 C876 1.363 . S
C877 C880 1.363 . S
N878 C880 1.356 . S
N878 H890 0.984 . S
N878 H891 0.985 . S
N879 C881 1.356 . S
N879 H884 0.984 . S
N879 H885 0.985 . S
C880 C874 1.379 . S
C880 C877 1.363 . S
C880 N878 1.356 . S
C881 C875 1.363 . S
C881 C876 1.379 . S
C881 N879 1.356 . S
N882 C874 1.356 . S
N882 H888 0.984 . S
N882 H889 0.984 . S
N883 C876 1.356 . S
N883 H886 0.984 . S
N883 H887 0.985 . S
H884 N879 0.984 . S
H885 N879 0.985 . S
H886 N883 0.984 . S
H887 N883 0.985 . S
H888 N882 0.984 . S
H889 N882 0.984 . S
H890 N878 0.984 . S
H891 N878 0.985 . S
C892 C893 1.363 . S
C892 C898 1.379 . S
C892 N900 1.356 . S
C893 C892 1.363 . S
C893 C899 1.363 . S
C894 C895 1.363 . S
C894 C899 1.379 . S
C894 N901 1.356 . S
C895 C894 1.363 . S
C895 C898 1.363 . S
N896 C898 1.356 . S
N896 H908 0.984 . S
N896 H909 0.985 . S
N897 C899 1.356 . S
N897 H902 0.984 . S
N897 H903 0.985 . S
C898 C892 1.379 . S
C898 C895 1.363 . S
C898 N896 1.356 . S
C899 C893 1.363 . S
C899 C894 1.379 . S
C899 N897 1.356 . S
N900 C892 1.356 . S
N900 H906 0.984 . S
N900 H907 0.984 . S
N901 C894 1.356 . S
N901 H904 0.984 . S
N901 H905 0.985 . S
H902 N897 0.984 . S
H903 N897 0.985 . S
H904 N901 0.984 . S
H905 N901 0.985 . S
H906 N900 0.984 . S
H907 N900 0.984 . S
H908 N896 0.984 . S
H909 N896 0.985 . S
C910 C911 1.363 . S
C910 C916 1.379 . S
C910 N918 1.356 . S
C911 C910 1.363 . S
C911 C917 1.363 . S
C912 C913 1.363 . S
C912 C917 1.379 . S
C912 N919 1.356 . S
C913 C912 1.363 . S
C913 C916 1.363 . S
N914 C916 1.356 . S
N914 H926 0.984 . S
N914 H927 0.985 . S
N915 C917 1.356 . S
N915 H920 0.984 . S
N915 H921 0.985 . S
C916 C910 1.379 . S
C916 C913 1.363 . S
C916 N914 1.356 . S
C917 C911 1.363 . S
C917 C912 1.379 . S
C917 N915 1.356 . S
N918 C910 1.356 . S
N918 H924 0.984 . S
N918 H925 0.984 . S
N919 C912 1.356 . S
N919 H922 0.984 . S
N919 H923 0.985 . S
H920 N915 0.984 . S
H921 N915 0.985 . S
H922 N919 0.984 . S
H923 N919 0.985 . S
H924 N918 0.984 . S
H925 N918 0.984 . S
H926 N914 0.984 . S
H927 N914 0.985 . S
C928 C929 1.363 . S
C928 C934 1.379 . S
C928 N936 1.356 . S
C929 C928 1.363 . S
C929 C935 1.363 . S
C930 C931 1.363 . S
C930 C935 1.379 . S
C930 N937 1.356 . S
C931 C930 1.363 . S
C931 C934 1.363 . S
N932 C934 1.356 . S
N932 H944 0.984 . S
N932 H945 0.985 . S
N933 C935 1.356 . S
N933 H938 0.984 . S
N933 H939 0.985 . S
C934 C928 1.379 . S
C934 C931 1.363 . S
C934 N932 1.356 . S
C935 C929 1.363 . S
C935 C930 1.379 . S
C935 N933 1.356 . S
N936 C928 1.356 . S
N936 H942 0.984 . S
N936 H943 0.984 . S
N937 C930 1.356 . S
N937 H940 0.984 . S
N937 H941 0.985 . S
H938 N933 0.984 . S
H939 N933 0.985 . S
H940 N937 0.984 . S
H941 N937 0.985 . S
H942 N936 0.984 . S
H943 N936 0.984 . S
H944 N932 0.984 . S
H945 N932 0.985 . S
C946 C947 1.363 . S
C946 C952 1.379 . S
C946 N954 1.356 . S
C947 C946 1.363 . S
C947 C953 1.363 . S
C948 C949 1.363 . S
C948 C953 1.379 . S
C948 N955 1.356 . S
C949 C948 1.363 . S
C949 C952 1.363 . S
N950 C952 1.356 . S
N950 H962 0.984 . S
N950 H963 0.985 . S
N951 C953 1.356 . S
N951 H956 0.984 . S
N951 H957 0.985 . S
C952 C946 1.379 . S
C952 C949 1.363 . S
C952 N950 1.356 . S
C953 C947 1.363 . S
C953 C948 1.379 . S
C953 N951 1.356 . S
N954 C946 1.356 . S
N954 H960 0.984 . S
N954 H961 0.984 . S
N955 C948 1.356 . S
N955 H958 0.984 . S
N955 H959 0.985 . S
H956 N951 0.984 . S
H957 N951 0.985 . S
H958 N955 0.984 . S
H959 N955 0.985 . S
H960 N954 0.984 . S
H961 N954 0.984 . S
H962 N950 0.984 . S
H963 N950 0.985 . S
C964 C965 1.363 . S
C964 C970 1.379 . S
C964 N972 1.356 . S
C965 C964 1.363 . S
C965 C971 1.363 . S
C966 C967 1.363 . S
C966 C971 1.379 . S
C966 N973 1.356 . S
C967 C966 1.363 . S
C967 C970 1.363 . S
N968 C970 1.356 . S
N968 H980 0.984 . S
N968 H981 0.985 . S
N969 C971 1.356 . S
N969 H974 0.984 . S
N969 H975 0.985 . S
C970 C964 1.379 . S
C970 C967 1.363 . S
C970 N968 1.356 . S
C971 C965 1.363 . S
C971 C966 1.379 . S
C971 N969 1.356 . S
N972 C964 1.356 . S
N972 H978 0.984 . S
N972 H979 0.984 . S
N973 C966 1.356 . S
N973 H976 0.984 . S
N973 H977 0.985 . S
H974 N969 0.984 . S
H975 N969 0.985 . S
H976 N973 0.984 . S
H977 N973 0.985 . S
H978 N972 0.984 . S
H979 N972 0.984 . S
H980 N968 0.984 . S
H981 N968 0.985 . S
C982 C983 1.363 . S
C982 C988 1.379 . S
C982 N990 1.356 . S
C983 C982 1.363 . S
C983 C989 1.363 . S
C984 C985 1.363 . S
C984 C989 1.379 . S
C984 N991 1.356 . S
C985 C984 1.363 . S
C985 C988 1.363 . S
N986 C988 1.356 . S
N986 H998 0.984 . S
N986 H999 0.985 . S
N987 C989 1.356 . S
N987 H992 0.984 . S
N987 H993 0.985 . S
C988 C982 1.379 . S
C988 C985 1.363 . S
C988 N986 1.356 . S
C989 C983 1.363 . S
C989 C984 1.379 . S
C989 N987 1.356 . S
N990 C982 1.356 . S
N990 H996 0.984 . S
N990 H997 0.984 . S
N991 C984 1.356 . S
N991 H994 0.984 . S
N991 H995 0.985 . S
H992 N987 0.984 . S
H993 N987 0.985 . S
H994 N991 0.984 . S
H995 N991 0.985 . S
H996 N990 0.984 . S
H997 N990 0.984 . S
H998 N986 0.984 . S
H999 N986 0.985 . S
C569 C8 1.503 . S
C571 C89 1.338 1_565 S
C587 C31 1.503 . S
C589 C168 1.490 . S
C605 C53 1.503 . S
C607 C239 1.488 1_545 S
C625 C299 1.490 . S
C623 C74 1.503 . S
C643 C329 1.340 . S
C641 C26 1.503 . S
C659 C48 1.503 . S
C661 C419 1.492 1_655 S
C677 C71 1.503 . S
C679 C479 1.490 . S
C695 C5 1.503 . S
C697 C528 1.492 1_455 S
C713 C50 1.503 . S
C715 C509 1.341 1_545 S
C733 C348 1.490 . S
C731 C70 1.503 . S
C751 C408 1.340 1_565 S
C749 C4 1.506 . S
C767 C28 1.503 . S
C769 C468 1.340 . S
C787 C149 1.340 . S
C785 C73 1.503 . S
C803 C7 1.503 . S
C805 C228 1.339 1_455 S
C823 C288 1.340 . S
C821 C30 1.503 . S
C841 C108 1.490 1_655 S
C839 C52 1.500 . S
C859 C449 1.142 . S
C857 C9 1.151 . S
C877 C539 1.142 . S
C875 C29 1.154 . S
C893 C51 1.154 . S
C895 C359 1.122 . S
C913 C389 1.142 . S
C911 C75 1.154 . S
C931 C209 1.142 . S
C929 C27 1.154 . S
C947 C49 1.154 . S
C949 C269 1.144 . S
C967 C119 1.125 . S
C965 C72 1.154 . S
C985 C179 1.142 . S
C983 C6 1.157 . S
