# Generated by pormake.
# Topology ftw, (4,12)-cn, num edge types: 1
# Building blocks:
#     Node 0, Type 0, BuildingBlock: AZAVOO_clean_linker_0, # of connection points: 4
#     Node 1, Type 0, BuildingBlock: AZAVOO_clean_linker_0, # of connection points: 4
#     Node 2, Type 0, BuildingBlock: AZAVOO_clean_linker_0, # of connection points: 4
#     Node 3, Type 1, BuildingBlock: EZIPEK_clean_sbu_0, # of connection points: 12
#     Edge 4, Type (0, 1), BuildingBlock: XIVTED_clean_linker_0, # of connection points: 2
#     Edge 5, Type (0, 1), BuildingBlock: XIVTED_clean_linker_0, # of connection points: 2
#     Edge 6, Type (0, 1), BuildingBlock: XIVTED_clean_linker_0, # of connection points: 2
#     Edge 7, Type (0, 1), BuildingBlock: XIVTED_clean_linker_0, # of connection points: 2
#     Edge 8, Type (0, 1), BuildingBlock: XIVTED_clean_linker_0, # of connection points: 2
#     Edge 9, Type (0, 1), BuildingBlock: XIVTED_clean_linker_0, # of connection points: 2
#     Edge 10, Type (0, 1), BuildingBlock: XIVTED_clean_linker_0, # of connection points: 2
#     Edge 11, Type (0, 1), BuildingBlock: XIVTED_clean_linker_0, # of connection points: 2
#     Edge 12, Type (0, 1), BuildingBlock: XIVTED_clean_linker_0, # of connection points: 2
#     Edge 13, Type (0, 1), BuildingBlock: XIVTED_clean_linker_0, # of connection points: 2
#     Edge 14, Type (0, 1), BuildingBlock: XIVTED_clean_linker_0, # of connection points: 2
#     Edge 15, Type (0, 1), BuildingBlock: XIVTED_clean_linker_0, # of connection points: 2
# Relax obj value: 0.053
# Max RMSD: 0.221
# Mean RMSD: 0.170
data_MOF--net-ftw--node1-EZIPEK_clean_sbu_0--node2-AZAVOO_clean_linker_0--edge1-XIVTED_clean_linker_0
_symmetry_space_group_name_H-M    P1
_symmetry_Int_Tables_number       1
_symmetry_cell_setting            triclinic
loop_
_symmetry_equiv_pos_as_xyz
'x, y, z'
_cell_length_a     28.362628
_cell_length_b     28.351637
_cell_length_c     28.321969
_cell_angle_alpha  91.614062
_cell_angle_beta   88.355035
_cell_angle_gamma 91.515804
loop_
_atom_site_label
_atom_site_type_symbol
_atom_site_fract_x
_atom_site_fract_y
_atom_site_fract_z
_atom_type_partial_charge
H0 H 0.02828 0.19519 0.40081 0.0
H1 H 0.93406 0.60303 0.79846 0.0
H2 H 0.05603 0.4624 0.39784 0.0
H3 H 0.06012 0.40483 0.33234 0.0
H4 H 0.90862 0.38487 0.34125 0.0
H5 H 0.90489 0.44301 0.40669 0.0
H6 H 0.05811 0.39132 0.46489 0.0
H7 H 0.06018 0.30882 0.43721 0.0
H8 H 0.90961 0.2948 0.46383 0.0
H9 H 0.90808 0.37752 0.4911 0.0
H10 H 0.05732 0.41005 0.56367 0.0
H11 H 0.06361 0.35105 0.62458 0.0
H12 H 0.9157 0.36595 0.6613 0.0
H13 H 0.90967 0.42461 0.5999 0.0
H14 H 0.05204 0.52664 0.605 0.0
H15 H 0.05256 0.55947 0.68592 0.0
H16 H 0.90001 0.55194 0.69198 0.0
H17 H 0.9001 0.51921 0.61105 0.0
H18 H 0.04925 0.59861 0.52647 0.0
H19 H 0.05068 0.66684 0.58106 0.0
H20 H 0.89877 0.65697 0.59658 0.0
H21 H 0.8978 0.58858 0.54192 0.0
H22 H 0.05069 0.54881 0.40951 0.0
H23 H 0.05195 0.60715 0.34737 0.0
H24 H 0.90615 0.63742 0.38112 0.0
H25 H 0.90503 0.57833 0.4428 0.0
O26 O 0.0269 0.22732 0.41317 0.0
O27 O 0.94979 0.22134 0.42924 0.0
O28 O 0.01338 0.59037 0.76274 0.0
O29 O 0.93494 0.58869 0.76703 0.0
C30 C 0.97984 0.47493 0.45628 0.0
C31 C 0.98104 0.44144 0.49234 0.0
C32 C 0.97944 0.45637 0.54008 0.0
C33 C 0.97593 0.50463 0.552 0.0
C34 C 0.97467 0.53823 0.51602 0.0
C35 C 0.97718 0.52357 0.46797 0.0
C36 C 0.98014 0.45716 0.4067 0.0
C37 C 0.02349 0.44778 0.38381 0.0
C38 C 0.02578 0.41435 0.34676 0.0
C39 C 0.98474 0.3897 0.33245 0.0
C40 C 0.94084 0.40281 0.3522 0.0
C41 C 0.93855 0.4366 0.38894 0.0
C42 C 0.98294 0.39028 0.47978 0.0
C43 C 0.02571 0.37021 0.46503 0.0
C44 C 0.02675 0.32314 0.44914 0.0
C45 C 0.98501 0.29527 0.44807 0.0
C46 C 0.94237 0.3153 0.4641 0.0
C47 C 0.9414 0.36242 0.47988 0.0
C48 C 0.98308 0.42147 0.57757 0.0
C49 C 0.02633 0.40044 0.58487 0.0
C50 C 0.0298 0.36677 0.61948 0.0
C51 C 0.99012 0.35399 0.64759 0.0
C52 C 0.94692 0.37555 0.64046 0.0
C53 C 0.94339 0.4089 0.60548 0.0
C54 C 0.97606 0.52057 0.60238 0.0
C55 C 0.01884 0.53164 0.62414 0.0
C56 C 0.019 0.55053 0.67024 0.0
C57 C 0.97628 0.55849 0.69537 0.0
C58 C 0.9335 0.54631 0.67365 0.0
C59 C 0.93343 0.52746 0.62754 0.0
C60 C 0.97347 0.5887 0.53046 0.0
C61 C 0.01613 0.6128 0.53962 0.0
C62 C 0.01687 0.65153 0.57118 0.0
C63 C 0.97488 0.66642 0.59389 0.0
C64 C 0.93169 0.64562 0.5802 0.0
C65 C 0.93099 0.6071 0.54841 0.0
C66 C 0.97762 0.55892 0.43029 0.0
C67 C 0.01884 0.56754 0.40302 0.0
C68 C 0.01951 0.6009 0.36759 0.0
C69 C 0.97909 0.62676 0.35922 0.0
C70 C 0.93793 0.6183 0.38695 0.0
C71 C 0.93717 0.58454 0.42207 0.0
C72 C 0.98599 0.24573 0.42974 0.0
C73 C 0.97619 0.58003 0.74375 0.0
H74 H 0.58896 0.94234 0.2055 0.0
H75 H 0.20781 0.10235 0.58088 0.0
H76 H 0.59302 0.93394 0.46336 0.0
H77 H 0.66022 0.92755 0.4079 0.0
H78 H 0.68238 0.07878 0.41693 0.0
H79 H 0.6152 0.08478 0.47297 0.0
H80 H 0.50843 0.93669 0.39792 0.0
H81 H 0.53699 0.92537 0.31604 0.0
H82 H 0.58244 0.07213 0.31376 0.0
H83 H 0.55353 0.08292 0.39547 0.0
H84 H 0.3976 0.95479 0.45496 0.0
H85 H 0.33623 0.95166 0.39675 0.0
H86 H 0.39688 0.07795 0.3342 0.0
H87 H 0.45471 0.0834 0.39613 0.0
H88 H 0.39283 0.96245 0.55456 0.0
H89 H 0.31123 0.97435 0.58163 0.0
H90 H 0.32016 0.11712 0.5316 0.0
H91 H 0.40207 0.10494 0.50539 0.0
H92 H 0.47881 0.95407 0.6107 0.0
H93 H 0.42242 0.95186 0.67741 0.0
H94 H 0.40246 0.1017 0.66636 0.0
H95 H 0.4588 0.10339 0.59941 0.0
H96 H 0.58964 0.94412 0.55591 0.0
H97 H 0.65031 0.93936 0.61517 0.0
H98 H 0.62434 0.08337 0.66039 0.0
H99 H 0.56414 0.08809 0.60037 0.0
O100 O 0.57691 0.94782 0.23744 0.0
O101 O 0.60037 0.0233 0.23848 0.0
O102 O 0.2373 0.02301 0.59553 0.0
O103 O 0.23982 0.09651 0.56996 0.0
C104 C 0.54961 0.01521 0.48824 0.0
C105 C 0.51498 0.01636 0.45327 0.0
C106 C 0.46713 0.02146 0.46647 0.0
C107 C 0.45393 0.02664 0.51463 0.0
C108 C 0.48855 0.02586 0.54976 0.0
C109 C 0.53653 0.01948 0.53671 0.0
C110 C 0.59938 0.00979 0.47224 0.0
C111 C 0.61401 0.96536 0.45546 0.0
C112 C 0.65212 0.96185 0.42339 0.0
C113 C 0.67581 0.00281 0.40748 0.0
C114 C 0.66421 0.04677 0.4282 0.0
C115 C 0.62641 0.05018 0.46077 0.0
C116 C 0.5291 0.01054 0.40253 0.0
C117 C 0.52417 0.96639 0.37945 0.0
C118 C 0.54068 0.96002 0.33279 0.0
C119 C 0.56228 -0.00222 0.30844 0.0
C120 C 0.56618 0.04226 0.33151 0.0
C121 C 0.54966 0.04855 0.37813 0.0
C122 C 0.43054 0.0194 0.42994 0.0
C123 C 0.39704 0.98219 0.42911 0.0
C124 C 0.36239 0.98008 0.39512 0.0
C125 C 0.3614 0.01435 0.36011 0.0
C126 C 0.3956 0.05134 0.36087 0.0
C127 C 0.42933 0.05419 0.39586 0.0
C128 C 0.40343 0.03298 0.52843 0.0
C129 C 0.3771 -0.00372 0.54956 0.0
C130 C 0.33047 0.00314 0.56487 0.0
C131 C 0.3092 0.04676 0.5589 0.0
C132 C 0.33548 0.08314 0.53684 0.0
C133 C 0.3822 0.07627 0.5217 0.0
C134 C 0.47245 0.02876 0.59998 0.0
C135 C 0.46418 0.98683 0.62429 0.0
C136 C 0.43156 0.98561 0.66218 0.0
C137 C 0.407 0.0264 0.67621 0.0
C138 C 0.41999 0.06951 0.65555 0.0
C139 C 0.45276 0.07072 0.61785 0.0
C140 C 0.57272 0.01659 0.57342 0.0
C141 C 0.59737 0.97481 0.57826 0.0
C142 C 0.632 0.97214 0.61215 0.0
C143 C 0.64227 0.01105 0.64235 0.0
C144 C 0.617 0.05268 0.6379 0.0
C145 C 0.58268 0.05547 0.60361 0.0
C146 C 0.58099 0.99062 0.25935 0.0
C147 C 0.25994 0.0545 0.57589 0.0
H148 H 0.40507 0.19012 0.95063 0.0
H149 H 0.79192 0.60579 0.04664 0.0
H150 H 0.40915 0.44576 0.90932 0.0
H151 H 0.34335 0.38817 0.90911 0.0
H152 H 0.32771 0.40575 0.06073 0.0
H153 H 0.39348 0.46318 0.0605 0.0
H154 H 0.48113 0.37989 0.91465 0.0
H155 H 0.45212 0.29781 0.91549 0.0
H156 H 0.43988 0.30675 0.06803 0.0
H157 H 0.46905 0.3888 0.06658 0.0
H158 H 0.57339 0.39996 0.92179 0.0
H159 H 0.63299 0.33934 0.92601 0.0
H160 H 0.64545 0.37027 0.0755 0.0
H161 H 0.58535 0.43054 0.07098 0.0
H162 H 0.61517 0.51111 0.92197 0.0
H163 H 0.69621 0.54293 0.92492 0.0
H164 H 0.68052 0.56152 0.07661 0.0
H165 H 0.59964 0.52955 0.07305 0.0
H166 H 0.54155 0.58615 0.9145 0.0
H167 H 0.59809 0.65283 0.91324 0.0
H168 H 0.58668 0.66528 0.06549 0.0
H169 H 0.53048 0.59863 0.06635 0.0
H170 H 0.41082 0.54409 0.91707 0.0
H171 H 0.35043 0.60446 0.91679 0.0
H172 H 0.38267 0.64479 0.06078 0.0
H173 H 0.44233 0.58405 0.06094 0.0
O174 O 0.4179 0.22211 0.95119 0.0
O175 O 0.41359 0.22803 0.02965 0.0
O176 O 0.76734 0.58017 0.96676 0.0
O177 O 0.76058 0.59161 0.04464 0.0
C178 C 0.45565 0.47528 0.98735 0.0
C179 C 0.49084 0.441 0.98976 0.0
C180 C 0.53847 0.45509 0.99353 0.0
C181 C 0.55122 0.50329 0.99472 0.0
C182 C 0.51617 0.53768 0.9923 0.0
C183 C 0.46812 0.52384 0.98917 0.0
C184 C 0.40598 0.4585 0.98493 0.0
C185 C 0.38988 0.43897 0.94212 0.0
C186 C 0.35291 0.4055 0.94218 0.0
C187 C 0.33125 0.39173 0.98502 0.0
C188 C 0.34377 0.41567 0.02718 0.0
C189 C 0.38101 0.44888 0.02711 0.0
C190 C 0.47721 0.39008 0.99055 0.0
C191 C 0.4727 0.3638 0.9482 0.0
C192 C 0.45594 0.31703 0.9488 0.0
C193 C 0.44351 0.29576 0.99183 0.0
C194 C 0.44908 0.32206 0.03429 0.0
C195 C 0.46589 0.36882 0.03361 0.0
C196 C 0.5751 0.41925 0.99612 0.0
C197 C 0.5889 0.39341 0.95542 0.0
C198 C 0.62276 0.35888 0.95792 0.0
C199 C 0.64363 0.35012 0.00112 0.0
C200 C 0.63014 0.37662 0.04173 0.0
C201 C 0.59588 0.41084 0.03926 0.0
C202 C 0.60171 0.51814 0.99728 0.0
C203 C 0.6296 0.52152 0.95582 0.0
C204 C 0.67574 0.53989 0.95761 0.0
C205 C 0.69476 0.55502 0.00101 0.0
C206 C 0.66696 0.55036 0.04262 0.0
C207 C 0.62085 0.53195 0.04075 0.0
C208 C 0.53184 0.58775 0.99049 0.0
C209 C 0.54935 0.60494 0.94732 0.0
C210 C 0.58224 0.64242 0.94674 0.0
C211 C 0.59749 0.66345 0.98934 0.0
C212 C 0.57551 0.64982 0.03211 0.0
C213 C 0.54292 0.61207 0.03267 0.0
C214 C 0.43121 0.55993 0.9889 0.0
C215 C 0.40461 0.56583 0.94859 0.0
C216 C 0.37013 0.60023 0.94853 0.0
C217 C 0.362 0.62955 0.98869 0.0
C218 C 0.38862 0.62328 0.02906 0.0
C219 C 0.4227 0.58862 0.02922 0.0
C220 C 0.42419 0.2466 0.99224 0.0
C221 C 0.74311 0.57621 0.00292 0.0
C222 C 0.00414 0.10699 0.89256 0.0
C223 C 0.00459 0.10306 0.12 0.0
C224 C 0.0017 0.87946 0.88048 0.0
C225 C 0.9969 0.87336 0.11041 0.0
C226 C 0.11366 0.87655 0.99519 0.0
C227 C 0.1167 0.1064 0.00398 0.0
C228 C 0.88397 0.87674 0.00132 0.0
C229 C 0.88961 0.10397 0.00899 0.0
C230 C 0.8874 0.98689 0.11896 0.0
C231 C 0.11477 0.99133 0.11418 0.0
C232 C 0.88902 0.99269 0.88929 0.0
C233 C 0.11902 0.99166 0.88681 0.0
Eu234 Eu 0.00291 0.07897 0.00534 0.0
O235 O 0.04372 0.03175 0.0448 0.0
O236 O 0.96105 0.03262 0.96184 0.0
Eu237 Eu 0.09095 0.99119 0.00063 0.0
Eu238 Eu 0.91277 0.99032 0.00356 0.0
O239 O 0.04551 0.03362 0.96072 0.0
O240 O 0.96001 0.03143 0.04698 0.0
Eu241 Eu 0.00357 0.99249 0.9121 0.0
Eu242 Eu 0.00114 0.98856 0.09099 0.0
O243 O 0.04324 0.94965 0.95733 0.0
O244 O 0.04217 0.94734 0.04066 0.0
O245 O 0.95909 0.94757 0.04193 0.0
O246 O 0.95959 0.94936 0.95816 0.0
Eu247 Eu -0.0005 0.90049 0.99677 0.0
O248 O 0.00293 0.12031 0.93813 0.0
O249 O 0.00535 0.11723 0.07559 0.0
O250 O -0.00151 0.86303 0.92433 0.0
O251 O -0.00216 0.85967 0.06482 0.0
O252 O 0.12876 0.92153 -0.00097 0.0
O253 O 0.13156 0.06198 0.00062 0.0
O254 O 0.87166 0.92172 0.00384 0.0
O255 O 0.8744 0.05912 0.00643 0.0
O256 O 0.93213 0.98558 0.13172 0.0
O257 O 0.06996 0.98726 0.12938 0.0
O258 O 0.93407 0.99259 0.87394 0.0
O259 O 0.07479 0.99442 0.87198 0.0
O260 O 0.9281 0.86122 0.99734 0.0
O261 O 0.06859 0.86184 0.99304 0.0
O262 O 0.93467 0.11857 0.0098 0.0
O263 O 0.07191 0.11926 0.00613 0.0
O264 O 0.00197 0.05822 0.13363 0.0
O265 O -0.00214 0.91802 0.12678 0.0
O266 O 0.00511 0.06255 0.87589 0.0
O267 O 0.00441 0.92474 0.86919 0.0
O268 O 0.1316 0.98949 0.93157 0.0
O269 O 0.12973 0.99444 0.06931 0.0
O270 O 0.87425 0.99176 0.93451 0.0
O271 O 0.87266 0.99 0.07471 0.0
H272 H 0.03824 0.37853 0.25119 0.0
H273 H 0.96681 0.10492 0.21093 0.0
H274 H 0.94117 0.30352 0.34413 0.0
H275 H 0.0469 0.18904 0.11076 0.0
H276 H 0.96367 0.1742 0.26523 0.0
H277 H 0.0476 0.30631 0.20323 0.0
C278 C 0.01877 0.34685 0.26134 0.0
C279 C 0.98849 0.34712 0.30127 0.0
C280 C 0.98216 0.17721 0.23142 0.0
C281 C -0.00083 0.26415 0.24687 0.0
C282 C 0.98424 0.13767 0.20069 0.0
C283 C 0.00671 0.14146 0.15616 0.0
C284 C 0.0031 0.22036 0.21743 0.0
C285 C 0.02861 0.18471 0.14446 0.0
C286 C 0.02409 0.3056 0.23403 0.0
C287 C 0.96413 0.30504 0.31297 0.0
N288 N 0.02608 0.22239 0.17475 0.0
N289 N 0.97001 0.26517 0.28589 0.0
H290 H 0.74777 0.94173 0.38957 0.0
H291 H 0.79978 0.02655 0.12515 0.0
H292 H 0.67518 0.05629 0.32897 0.0
H293 H 0.89516 0.94335 0.20235 0.0
H294 H 0.74656 0.02936 0.19526 0.0
H295 H 0.79627 0.93433 0.31693 0.0
C296 C 0.7423 0.96546 0.36103 0.0
C297 C 0.70793 4e-05 0.36543 0.0
C298 C 0.77909 0.01035 0.1966 0.0
C299 C 0.76253 0.99136 0.28207 0.0
C300 C 0.80918 0.00844 0.15657 0.0
C301 C 0.85205 0.98509 0.15818 0.0
C302 C 0.79184 0.98819 0.23802 0.0
C303 C 0.86272 0.96233 0.19981 0.0
C304 C 0.76986 0.96124 0.31961 0.0
C305 C 0.70197 0.02976 0.3273 0.0
N306 N 0.8329 0.9645 0.23802 0.0
N307 N 0.72889 0.02464 0.28711 0.0
H308 H 0.94419 0.71596 0.36517 0.0
H309 H 0.01411 0.77872 0.09788 0.0
H310 H 0.0166 0.61988 0.269 0.0
H311 H 0.97283 0.88264 0.20455 0.0
H312 H 0.00886 0.71811 0.15781 0.0
H313 H 0.94757 0.77547 0.30419 0.0
C314 C 0.96053 0.70729 0.33109 0.0
C315 C 0.98018 0.6629 0.32217 0.0
C316 C 0.00103 0.75422 0.16803 0.0
C317 C 0.98437 0.73094 0.25223 0.0
C318 C 0.00387 0.78885 0.1338 0.0
C319 C 0.99405 0.83599 0.14611 0.0
C320 C 0.98777 0.76665 0.21482 0.0
C321 C 0.98109 0.84691 0.19336 0.0
C322 C 0.96273 0.74137 0.29641 0.0
C323 C 0.00144 0.65381 0.27754 0.0
N324 N 0.97819 0.81253 0.22586 0.0
N325 N 0.00286 0.68747 0.2442 0.0
H326 H 0.32058 0.0872 0.31451 0.0
H327 H 0.11834 0.93926 0.19337 0.0
H328 H 0.31829 0.93479 0.32059 0.0
H329 H 0.19288 0.0489 0.11675 0.0
H330 H 0.17945 0.9443 0.25337 0.0
H331 H 0.2618 0.08101 0.25324 0.0
C332 C 0.30825 0.05242 0.30301 0.0
C333 C 0.32497 0.01143 0.3231 0.0
C334 C 0.18224 0.96711 0.22331 0.0
C335 C 0.25607 0.00471 0.25439 0.0
C336 C 0.14751 0.96442 0.18938 0.0
C337 C 0.15099 0.99358 0.15023 0.0
C338 C 0.21959 0.00019 0.21859 0.0
C339 C 0.18936 0.02557 0.14636 0.0
C340 C 0.27439 0.04912 0.26826 0.0
C341 C 0.30605 0.96754 0.30729 0.0
N342 N 0.22204 0.02848 0.18051 0.0
N343 N 0.27228 0.96537 0.2742 0.0
H344 H 0.92849 0.65643 0.67893 0.0
H345 H 0.04066 0.89258 0.793 0.0
H346 H 0.02724 0.74847 0.60507 0.0
H347 H 0.96234 0.78962 0.87534 0.0
H348 H 0.03424 0.84071 0.7236 0.0
H349 H 0.93725 0.70591 0.75037 0.0
C350 C 0.95151 0.68748 0.67758 0.0
C351 C 0.97691 0.69865 0.63588 0.0
C352 C 0.01864 0.8292 0.7568 0.0
C353 C 0.98756 0.75499 0.71767 0.0
C354 C 0.02222 0.85885 0.79653 0.0
C355 C 0.00168 0.84551 0.83999 0.0
C356 C 0.99395 0.78588 0.76021 0.0
C357 C 0.97877 0.80117 0.84253 0.0
C358 C 0.95686 0.71538 0.71852 0.0
C359 C 0.00705 0.73861 0.63644 0.0
N360 N 0.97512 0.77302 0.80297 0.0
N361 N 0.01141 0.76542 0.67665 0.0
H362 H 0.32183 0.06733 0.6655 0.0
H363 H 0.20337 0.95029 0.89467 0.0
H364 H 0.39407 0.97566 0.75692 0.0
H365 H 0.12531 0.03336 0.79989 0.0
H366 H 0.27269 0.95808 0.84286 0.0
H367 H 0.24963 0.05598 0.71349 0.0
C368 C 0.32269 0.04531 0.69607 0.0
C369 C 0.36423 0.02268 0.70745 0.0
C370 C 0.24046 0.97445 0.83305 0.0
C371 C 0.2814 0.00891 0.76203 0.0
C372 C 0.20075 0.97001 0.86266 0.0
C373 C 0.15859 0.9916 0.85176 0.0
C374 C 0.2384 0.00103 0.79219 0.0
C375 C 0.15712 0.01611 0.80952 0.0
C376 C 0.28129 0.03846 0.72313 0.0
C377 C 0.36291 0.99368 0.74677 0.0
N378 N 0.19671 0.0206 0.78141 0.0
N379 N 0.32223 0.98773 0.77265 0.0
H380 H 0.03284 0.26886 0.63866 0.0
H381 H 0.98039 0.19949 0.90702 0.0
H382 H 0.95554 0.35694 0.73879 0.0
H383 H 0.02692 0.10017 0.79805 0.0
H384 H 0.97818 0.26038 0.84785 0.0
H385 H 0.03812 0.20926 0.69889 0.0
C386 C 0.01721 0.27571 0.67345 0.0
C387 C 0.99371 0.31781 0.68384 0.0
C388 C 0.98887 0.22524 0.83696 0.0
C389 C -0.00056 0.24985 0.75276 0.0
C390 C 0.99036 0.19049 0.87074 0.0
C391 C 0.00376 0.14457 0.85748 0.0
C392 C 0.00127 0.21413 0.78969 0.0
C393 C 0.01605 0.13497 0.80987 0.0
C394 C 0.01998 0.24161 0.70769 0.0
C395 C 0.97357 0.32472 0.72926 0.0
N396 N 0.01459 0.16948 0.77772 0.0
N397 N 0.97701 0.2911 0.76214 0.0
H398 H 0.7302 0.97365 0.63149 0.0
H399 H 0.79575 0.0142 0.90282 0.0
H400 H 0.63848 0.04171 0.73511 0.0
H401 H 0.89804 0.9762 0.79331 0.0
H402 H 0.73591 0.01857 0.84296 0.0
H403 H 0.79025 0.96849 0.69139 0.0
C404 C 0.72263 0.98734 0.66691 0.0
C405 C 0.67922 0.00813 0.67831 0.0
C406 C 0.77145 0.0093 0.83202 0.0
C407 C 0.74786 0.0024 0.74706 0.0
C408 C 0.80569 0.00655 0.86624 0.0
C409 C 0.85218 0.99475 0.85321 0.0
C410 C 0.78349 -0.00022 0.78433 0.0
C411 C 0.8628 0.98561 0.8051 0.0
C412 C 0.75702 0.98463 0.701 0.0
C413 C 0.67159 0.02581 0.72464 0.0
N414 N 0.82872 0.98816 0.77248 0.0
N415 N 0.70546 0.02236 0.75733 0.0
H416 H 0.34483 0.30617 0.94047 0.0
H417 H 0.10494 0.19283 0.04496 0.0
H418 H 0.24771 0.37979 0.03456 0.0
H419 H 0.20763 0.11035 0.96616 0.0
H420 H 0.15789 0.26111 0.04125 0.0
H421 H 0.29564 0.23434 0.94776 0.0
C422 C 0.3128 0.30735 0.96219 0.0
C423 C 0.3 0.34912 0.98663 0.0
C424 C 0.16921 0.22815 0.02494 0.0
C425 C 0.24407 0.267 0.99562 0.0
C426 C 0.1389 0.18899 0.02703 0.0
C427 C 0.15173 0.14583 0.00552 0.0
C428 C 0.21281 0.22461 0.00074 0.0
C429 C 0.19642 0.14296 0.98325 0.0
C430 C 0.28506 0.26622 0.9667 0.0
C431 C 0.25884 0.34839 0.01514 0.0
N432 N 0.22531 0.18209 0.98099 0.0
N433 N 0.2323 0.30805 0.01869 0.0
H434 H 0.36991 0.72088 0.02208 0.0
H435 H 0.10238 0.78207 0.97278 0.0
H436 H 0.27219 0.62269 0.95523 0.0
H437 H 0.20813 0.88693 0.01304 0.0
H438 H 0.1628 0.72221 0.97018 0.0
H439 H 0.30973 0.78112 0.0232 0.0
C440 C 0.3357 0.71197 0.00777 0.0
C441 C 0.32601 0.66666 0.98863 0.0
C442 C 0.17276 0.75835 0.97948 0.0
C443 C 0.25695 0.7355 0.98965 0.0
C444 C 0.13823 0.79261 0.98115 0.0
C445 C 0.15003 0.83979 0.99322 0.0
C446 C 0.21946 0.77113 0.99033 0.0
C447 C 0.19725 0.85114 0.00344 0.0
C448 C 0.30146 0.74644 0.00817 0.0
C449 C 0.28129 0.65727 0.96996 0.0
N450 N 0.23013 0.81706 0.00194 0.0
N451 N 0.24834 0.69132 0.97116 0.0
H452 H 0.63909 0.26046 0.96374 0.0
H453 H 0.89989 0.19765 0.03442 0.0
H454 H 0.72864 0.35591 0.04442 0.0
H455 H 0.79684 0.09357 0.98604 0.0
H456 H 0.83957 0.25761 0.03412 0.0
H457 H 0.69876 0.20012 0.96704 0.0
C458 C 0.67144 0.26868 0.98204 0.0
C459 C 0.67912 0.31316 0.00373 0.0
C460 C 0.8302 0.22158 0.02379 0.0
C461 C 0.74738 0.24444 0.00779 0.0
C462 C 0.86463 0.18737 0.02376 0.0
C463 C 0.85343 0.14049 0.01021 0.0
C464 C 0.78444 0.20892 0.00966 0.0
C465 C 0.80707 0.12919 0.997 0.0
C466 C 0.70532 0.2342 0.98417 0.0
C467 C 0.7213 0.32188 0.02753 0.0
N468 N 0.77436 0.16323 0.99682 0.0
N469 N 0.75404 0.28786 0.02871 0.0
H470 H 0.68126 0.65086 0.94128 0.0
H471 H 0.79945 0.88831 0.04643 0.0
H472 H 0.61111 0.74615 0.04001 0.0
H473 H 0.87779 0.78695 0.96141 0.0
H474 H 0.73056 0.83575 0.04429 0.0
H475 H 0.75324 0.69993 0.9467 0.0
C476 C 0.68084 0.68252 0.96359 0.0
C477 C 0.64 0.69485 0.98985 0.0
C478 C 0.76275 0.8247 0.02624 0.0
C479 C 0.72239 0.7506 0.99678 0.0
C480 C 0.80218 0.85477 0.02735 0.0
C481 C 0.84428 0.84214 0.00361 0.0
C482 C 0.76504 0.78163 0.00084 0.0
C483 C 0.84597 0.79796 0.98017 0.0
C484 C 0.72208 0.71018 0.96705 0.0
C485 C 0.64177 0.73545 0.01914 0.0
N486 N 0.80663 0.76936 0.97896 0.0
N487 N 0.68224 0.76195 0.02168 0.0
loop_
_geom_bond_atom_site_label_1
_geom_bond_atom_site_label_2
_geom_bond_distance
_geom_bond_site_symmetry_2
_ccdc_geom_bond_type
H0 O26 0.856 . S
H1 O29 0.854 . S
H2 C37 0.930 . S
H3 C38 0.930 . S
H4 C40 0.930 . S
H5 C41 0.930 . S
H6 C43 0.931 . S
H7 C44 0.930 . S
H8 C46 0.930 . S
H9 C47 0.929 . S
H10 C49 0.930 . S
H11 C50 0.931 . S
H12 C52 0.930 . S
H13 C53 0.929 . S
H14 C55 0.931 . S
H15 C56 0.930 . S
H16 C58 0.930 . S
H17 C59 0.932 . S
H18 C61 0.930 . S
H19 C62 0.929 . S
H20 C64 0.931 . S
H21 C65 0.930 . S
H22 C67 0.929 . S
H23 C68 0.931 . S
H24 C70 0.930 . S
H25 C71 0.929 . S
O26 H0 0.856 . S
O26 C72 1.300 1_455 S
O27 C72 1.209 . S
O28 C73 1.199 1_455 S
O29 H1 0.854 . S
O29 C73 1.297 . S
C30 C31 1.404 . S
C30 C35 1.397 1_655 S
C30 C36 1.492 1_655 S
C31 C30 1.404 . S
C31 C32 1.396 . S
C31 C42 1.492 . S
C32 C31 1.396 . S
C32 C33 1.397 . S
C32 C48 1.509 . S
C33 C32 1.397 . S
C33 C34 1.413 . S
C33 C54 1.485 . S
C34 C33 1.413 . S
C34 C35 1.389 1_655 S
C34 C60 1.490 1_655 S
C35 C30 1.397 1_455 S
C35 C34 1.389 1_455 S
C35 C66 1.519 1_455 S
C36 C30 1.492 1_455 S
C36 C37 1.363 . S
C36 C41 1.390 1_455 S
C37 H2 0.930 . S
C37 C36 1.363 . S
C37 C38 1.372 . S
C38 H3 0.930 . S
C38 C37 1.372 . S
C38 C39 1.383 . S
C39 C38 1.383 . S
C39 C40 1.395 1_455 S
C40 H4 0.930 . S
C40 C39 1.395 1_655 S
C40 C41 1.362 . S
C41 H5 0.930 . S
C41 C36 1.390 1_655 S
C41 C40 1.362 . S
C42 C31 1.492 . S
C42 C43 1.377 1_655 S
C42 C47 1.397 . S
C43 H6 0.931 . S
C43 C42 1.377 1_455 S
C43 C44 1.376 . S
C44 H7 0.930 . S
C44 C43 1.376 . S
C44 C45 1.376 1_455 S
C45 C44 1.376 1_655 S
C45 C46 1.378 . S
C45 C72 1.486 . S
C46 H8 0.930 . S
C46 C45 1.378 . S
C46 C47 1.376 . S
C47 H9 0.929 . S
C47 C42 1.397 . S
C47 C46 1.376 . S
C48 C32 1.509 . S
C48 C49 1.391 1_655 S
C48 C53 1.386 . S
C49 H10 0.930 . S
C49 C48 1.391 1_455 S
C49 C50 1.375 . S
C50 H11 0.931 . S
C50 C49 1.375 . S
C50 C51 1.375 1_455 S
C51 C50 1.375 1_655 S
C51 C52 1.361 . S
C52 H12 0.930 . S
C52 C51 1.361 . S
C52 C53 1.399 . S
C53 H13 0.929 . S
C53 C48 1.386 . S
C53 C52 1.399 . S
C54 C33 1.485 . S
C54 C55 1.394 1_655 S
C54 C59 1.360 . S
C55 H14 0.931 . S
C55 C54 1.394 1_455 S
C55 C56 1.372 . S
C56 H15 0.930 . S
C56 C55 1.372 . S
C56 C57 1.397 1_455 S
C57 C56 1.397 1_655 S
C57 C58 1.390 . S
C57 C73 1.476 . S
C58 H16 0.930 . S
C58 C57 1.390 . S
C58 C59 1.366 . S
C59 H17 0.932 . S
C59 C54 1.360 . S
C59 C58 1.366 . S
C60 C34 1.490 1_455 S
C60 C61 1.380 . S
C60 C65 1.386 1_455 S
C61 H18 0.930 . S
C61 C60 1.380 . S
C61 C62 1.381 . S
C62 H19 0.929 . S
C62 C61 1.381 . S
C62 C63 1.371 . S
C63 C62 1.371 . S
C63 C64 1.380 1_455 S
C64 H20 0.931 . S
C64 C63 1.380 1_655 S
C64 C65 1.387 . S
C65 H21 0.930 . S
C65 C60 1.386 1_655 S
C65 C64 1.387 . S
C66 C35 1.519 1_655 S
C66 C67 1.377 1_655 S
C66 C71 1.361 . S
C67 H22 0.929 . S
C67 C66 1.377 1_455 S
C67 C68 1.386 . S
C68 H23 0.931 . S
C68 C67 1.386 . S
C68 C69 1.363 1_455 S
C69 C68 1.363 1_655 S
C69 C70 1.385 . S
C70 H24 0.930 . S
C70 C69 1.385 . S
C70 C71 1.396 . S
C71 H25 0.929 . S
C71 C66 1.361 . S
C71 C70 1.396 . S
C72 O26 1.300 1_655 S
C72 O27 1.209 . S
C72 C45 1.486 . S
C73 O28 1.199 1_655 S
C73 O29 1.297 . S
C73 C57 1.476 . S
H74 O100 0.856 1_545 S
H75 O103 0.854 . S
H76 C111 0.930 . S
H77 C112 0.930 . S
H78 C114 0.930 . S
H79 C115 0.930 . S
H80 C117 0.931 . S
H81 C118 0.930 . S
H82 C120 0.930 . S
H83 C121 0.929 . S
H84 C123 0.930 . S
H85 C124 0.931 . S
H86 C126 0.930 . S
H87 C127 0.929 . S
H88 C129 0.931 . S
H89 C130 0.930 . S
H90 C132 0.930 . S
H91 C133 0.932 . S
H92 C135 0.930 . S
H93 C136 0.929 . S
H94 C138 0.931 . S
H95 C139 0.930 . S
H96 C141 0.929 . S
H97 C142 0.931 . S
H98 C144 0.930 . S
H99 C145 0.929 . S
O100 H74 0.856 1_565 S
O100 C146 1.300 1_565 S
O101 C146 1.209 . S
O102 C147 1.199 1_565 S
O103 H75 0.854 . S
O103 C147 1.297 . S
C104 C105 1.404 . S
C104 C109 1.397 . S
C104 C110 1.492 . S
C105 C104 1.404 . S
C105 C106 1.396 . S
C105 C116 1.492 . S
C106 C105 1.396 . S
C106 C107 1.397 . S
C106 C122 1.509 . S
C107 C106 1.397 . S
C107 C108 1.412 . S
C107 C128 1.485 . S
C108 C107 1.412 . S
C108 C109 1.388 . S
C108 C134 1.490 . S
C109 C104 1.397 . S
C109 C108 1.388 . S
C109 C140 1.519 . S
C110 C104 1.492 . S
C110 C111 1.363 1_545 S
C110 C115 1.390 . S
C111 H76 0.930 . S
C111 C110 1.363 1_565 S
C111 C112 1.372 . S
C112 H77 0.930 . S
C112 C111 1.372 . S
C112 C113 1.383 . S
C113 C112 1.383 . S
C113 C114 1.395 1_565 S
C114 H78 0.930 . S
C114 C113 1.395 1_545 S
C114 C115 1.362 . S
C115 H79 0.930 . S
C115 C110 1.390 . S
C115 C114 1.362 . S
C116 C105 1.492 . S
C116 C117 1.377 1_545 S
C116 C121 1.397 . S
C117 H80 0.931 . S
C117 C116 1.377 1_565 S
C117 C118 1.376 . S
C118 H81 0.930 . S
C118 C117 1.376 . S
C118 C119 1.376 1_565 S
C119 C118 1.376 1_545 S
C119 C120 1.378 . S
C119 C146 1.486 . S
C120 H82 0.930 . S
C120 C119 1.378 . S
C120 C121 1.376 . S
C121 H83 0.929 . S
C121 C116 1.397 . S
C121 C120 1.376 . S
C122 C106 1.509 . S
C122 C123 1.391 1_545 S
C122 C127 1.386 . S
C123 H84 0.930 . S
C123 C122 1.391 1_565 S
C123 C124 1.375 . S
C124 H85 0.931 . S
C124 C123 1.375 . S
C124 C125 1.375 1_565 S
C125 C124 1.375 1_545 S
C125 C126 1.361 . S
C126 H86 0.930 . S
C126 C125 1.361 . S
C126 C127 1.399 . S
C127 H87 0.929 . S
C127 C122 1.386 . S
C127 C126 1.399 . S
C128 C107 1.485 . S
C128 C129 1.394 1_545 S
C128 C133 1.360 . S
C129 H88 0.931 . S
C129 C128 1.394 1_565 S
C129 C130 1.372 . S
C130 H89 0.930 . S
C130 C129 1.372 . S
C130 C131 1.397 1_565 S
C131 C130 1.397 1_545 S
C131 C132 1.390 . S
C131 C147 1.476 . S
C132 H90 0.930 . S
C132 C131 1.390 . S
C132 C133 1.366 . S
C133 H91 0.932 . S
C133 C128 1.360 . S
C133 C132 1.366 . S
C134 C108 1.490 . S
C134 C135 1.380 1_545 S
C134 C139 1.386 . S
C135 H92 0.930 . S
C135 C134 1.380 1_565 S
C135 C136 1.381 . S
C136 H93 0.929 . S
C136 C135 1.381 . S
C136 C137 1.371 . S
C137 C136 1.371 . S
C137 C138 1.380 1_565 S
C138 H94 0.931 . S
C138 C137 1.380 1_545 S
C138 C139 1.387 . S
C139 H95 0.930 . S
C139 C134 1.386 . S
C139 C138 1.387 . S
C140 C109 1.519 . S
C140 C141 1.377 1_545 S
C140 C145 1.361 . S
C141 H96 0.929 . S
C141 C140 1.377 1_565 S
C141 C142 1.386 . S
C142 H97 0.931 . S
C142 C141 1.386 . S
C142 C143 1.363 1_565 S
C143 C142 1.363 1_545 S
C143 C144 1.385 . S
C144 H98 0.930 . S
C144 C143 1.385 . S
C144 C145 1.396 . S
C145 H99 0.929 . S
C145 C140 1.361 . S
C145 C144 1.396 . S
C146 O100 1.300 1_545 S
C146 O101 1.209 . S
C146 C119 1.486 . S
C147 O102 1.199 1_545 S
C147 O103 1.297 . S
C147 C131 1.476 . S
H148 O174 0.856 . S
H149 O177 0.854 . S
H150 C185 0.930 . S
H151 C186 0.930 . S
H152 C188 0.930 . S
H153 C189 0.930 . S
H154 C191 0.931 . S
H155 C192 0.930 . S
H156 C194 0.930 . S
H157 C195 0.929 . S
H158 C197 0.930 . S
H159 C198 0.931 . S
H160 C200 0.930 . S
H161 C201 0.929 . S
H162 C203 0.931 . S
H163 C204 0.930 . S
H164 C206 0.930 . S
H165 C207 0.932 . S
H166 C209 0.930 . S
H167 C210 0.929 . S
H168 C212 0.931 . S
H169 C213 0.930 . S
H170 C215 0.929 . S
H171 C216 0.931 . S
H172 C218 0.930 . S
H173 C219 0.929 . S
O174 H148 0.856 . S
O174 C220 1.300 1_556 S
O175 C220 1.209 . S
O176 C221 1.199 1_556 S
O177 H149 0.854 . S
O177 C221 1.297 . S
C178 C179 1.404 . S
C178 C183 1.397 . S
C178 C184 1.492 1_554 S
C179 C178 1.404 . S
C179 C180 1.396 . S
C179 C190 1.492 . S
C180 C179 1.396 . S
C180 C181 1.397 . S
C180 C196 1.509 . S
C181 C180 1.397 . S
C181 C182 1.412 . S
C181 C202 1.485 . S
C182 C181 1.412 . S
C182 C183 1.388 . S
C182 C208 1.490 1_554 S
C183 C178 1.397 . S
C183 C182 1.388 . S
C183 C214 1.519 . S
C184 C178 1.492 1_556 S
C184 C185 1.363 . S
C184 C189 1.390 1_556 S
C185 H150 0.930 . S
C185 C184 1.363 . S
C185 C186 1.372 . S
C186 H151 0.930 . S
C186 C185 1.372 . S
C186 C187 1.383 . S
C187 C186 1.383 . S
C187 C188 1.395 1_556 S
C188 H152 0.930 . S
C188 C187 1.395 1_554 S
C188 C189 1.362 . S
C189 H153 0.930 . S
C189 C184 1.390 1_554 S
C189 C188 1.362 . S
C190 C179 1.492 . S
C190 C191 1.377 1_554 S
C190 C195 1.397 . S
C191 H154 0.931 . S
C191 C190 1.377 1_556 S
C191 C192 1.376 . S
C192 H155 0.930 . S
C192 C191 1.376 . S
C192 C193 1.376 1_556 S
C193 C192 1.376 1_554 S
C193 C194 1.378 . S
C193 C220 1.486 . S
C194 H156 0.930 . S
C194 C193 1.378 . S
C194 C195 1.376 . S
C195 H157 0.929 . S
C195 C190 1.397 . S
C195 C194 1.376 . S
C196 C180 1.509 . S
C196 C197 1.391 1_554 S
C196 C201 1.386 . S
C197 H158 0.930 . S
C197 C196 1.391 1_556 S
C197 C198 1.375 . S
C198 H159 0.931 . S
C198 C197 1.375 . S
C198 C199 1.375 1_556 S
C199 C198 1.375 1_554 S
C199 C200 1.361 . S
C200 H160 0.930 . S
C200 C199 1.361 . S
C200 C201 1.399 . S
C201 H161 0.929 . S
C201 C196 1.386 . S
C201 C200 1.399 . S
C202 C181 1.485 . S
C202 C203 1.394 1_554 S
C202 C207 1.360 . S
C203 H162 0.931 . S
C203 C202 1.394 1_556 S
C203 C204 1.372 . S
C204 H163 0.930 . S
C204 C203 1.372 . S
C204 C205 1.397 1_556 S
C205 C204 1.397 1_554 S
C205 C206 1.390 . S
C205 C221 1.476 . S
C206 H164 0.930 . S
C206 C205 1.390 . S
C206 C207 1.366 . S
C207 H165 0.932 . S
C207 C202 1.360 . S
C207 C206 1.366 . S
C208 C182 1.490 1_556 S
C208 C209 1.380 . S
C208 C213 1.386 1_556 S
C209 H166 0.930 . S
C209 C208 1.380 . S
C209 C210 1.381 . S
C210 H167 0.929 . S
C210 C209 1.381 . S
C210 C211 1.371 . S
C211 C210 1.371 . S
C211 C212 1.380 1_556 S
C212 H168 0.931 . S
C212 C211 1.380 1_554 S
C212 C213 1.387 . S
C213 H169 0.930 . S
C213 C208 1.386 1_554 S
C213 C212 1.387 . S
C214 C183 1.519 . S
C214 C215 1.377 1_554 S
C214 C219 1.361 . S
C215 H170 0.929 . S
C215 C214 1.377 1_556 S
C215 C216 1.386 . S
C216 H171 0.931 . S
C216 C215 1.386 . S
C216 C217 1.363 1_556 S
C217 C216 1.363 1_554 S
C217 C218 1.385 . S
C218 H172 0.930 . S
C218 C217 1.385 . S
C218 C219 1.396 . S
C219 H173 0.929 . S
C219 C214 1.361 . S
C219 C218 1.396 . S
C220 O174 1.300 1_554 S
C220 O175 1.209 . S
C220 C193 1.486 . S
C221 O176 1.199 1_554 S
C221 O177 1.297 . S
C221 C205 1.476 . S
C222 O248 1.283 . S
C222 O266 1.283 . S
C223 O249 1.283 . S
C223 O264 1.284 . S
C224 O250 1.284 . S
C224 O267 1.283 . S
C225 O251 1.283 . S
C225 O265 1.283 . S
C226 O252 1.283 . S
C226 O261 1.283 . S
C227 O253 1.283 . S
C227 O263 1.283 . S
C228 O254 1.283 . S
C228 O260 1.283 . S
C229 O255 1.283 . S
C229 O262 1.283 . S
C230 O256 1.283 . S
C230 O271 1.283 . S
C231 O257 1.283 . S
C231 O269 1.283 . S
C232 O258 1.283 . S
C232 O270 1.283 . S
C233 O259 1.283 . S
C233 O268 1.283 . S
Eu234 O235 2.370 . S
Eu234 O236 2.370 1_454 S
Eu234 O239 2.370 1_554 S
Eu234 O240 2.370 1_455 S
Eu234 O248 2.363 1_554 S
Eu234 O249 2.363 . S
Eu234 O262 2.363 1_455 S
Eu234 O263 2.363 . S
O235 Eu234 2.370 . S
O235 Eu237 2.372 . S
O235 Eu242 2.366 1_455 S
O236 Eu234 2.370 1_656 S
O236 Eu238 2.370 1_556 S
O236 Eu241 2.370 1_655 S
Eu237 O235 2.372 . S
Eu237 O239 2.368 1_554 S
Eu237 O243 2.368 1_544 S
Eu237 O244 2.372 1_545 S
Eu237 O252 2.363 1_544 S
Eu237 O253 2.363 . S
Eu237 O268 2.360 1_554 S
Eu237 O269 2.366 . S
Eu238 O236 2.370 1_554 S
Eu238 O240 2.370 . S
Eu238 O245 2.370 1_545 S
Eu238 O246 2.370 1_544 S
Eu238 O254 2.363 1_545 S
Eu238 O255 2.363 . S
Eu238 O270 2.363 1_554 S
Eu238 O271 2.363 . S
O239 Eu234 2.370 1_556 S
O239 Eu237 2.368 1_556 S
O239 Eu241 2.370 . S
O240 Eu234 2.370 1_655 S
O240 Eu238 2.370 . S
O240 Eu242 2.375 . S
Eu241 O236 2.370 1_455 S
Eu241 O239 2.370 . S
Eu241 O243 2.370 1_545 S
Eu241 O246 2.370 1_445 S
Eu241 O258 2.363 1_455 S
Eu241 O259 2.363 . S
Eu241 O266 2.363 . S
Eu241 O267 2.363 1_545 S
Eu242 O235 2.366 1_655 S
Eu242 O240 2.375 . S
Eu242 O244 2.366 1_645 S
Eu242 O245 2.375 1_545 S
Eu242 O256 2.371 . S
Eu242 O257 2.355 1_655 S
Eu242 O264 2.363 1_655 S
Eu242 O265 2.363 1_545 S
O243 Eu237 2.368 1_566 S
O243 Eu241 2.370 1_565 S
O243 Eu247 2.364 1_456 S
O244 Eu237 2.372 1_565 S
O244 Eu242 2.366 1_465 S
O244 Eu247 2.367 1_455 S
O245 Eu238 2.370 1_565 S
O245 Eu242 2.375 1_565 S
O245 Eu247 2.376 . S
O246 Eu238 2.370 1_566 S
O246 Eu241 2.370 1_665 S
O246 Eu247 2.373 1_556 S
Eu247 O243 2.364 1_654 S
Eu247 O244 2.367 1_655 S
Eu247 O245 2.376 . S
Eu247 O246 2.373 1_554 S
Eu247 O250 2.360 1_654 S
Eu247 O251 2.366 . S
Eu247 O260 2.371 . S
Eu247 O261 2.355 1_654 S
O248 C222 1.283 . S
O248 Eu234 2.363 1_556 S
O249 C223 1.283 . S
O249 Eu234 2.363 . S
O250 C224 1.284 . S
O250 Eu247 2.360 1_456 S
O251 C225 1.283 . S
O251 Eu247 2.366 . S
O252 C226 1.283 . S
O252 Eu237 2.363 1_566 S
O253 C227 1.283 . S
O253 Eu237 2.363 . S
O254 C228 1.283 . S
O254 Eu238 2.363 1_565 S
O255 C229 1.283 . S
O255 Eu238 2.363 . S
O256 C230 1.283 . S
O256 Eu242 2.371 . S
O257 C231 1.283 . S
O257 Eu242 2.355 1_455 S
O258 C232 1.283 . S
O258 Eu241 2.363 1_655 S
O259 C233 1.283 . S
O259 Eu241 2.363 . S
O260 C228 1.283 . S
O260 Eu247 2.371 . S
O261 C226 1.283 . S
O261 Eu247 2.355 1_456 S
O262 C229 1.283 . S
O262 Eu234 2.363 1_655 S
O263 C227 1.283 . S
O263 Eu234 2.363 . S
O264 C223 1.284 . S
O264 Eu242 2.363 1_455 S
O265 C225 1.283 . S
O265 Eu242 2.363 1_565 S
O266 C222 1.283 . S
O266 Eu241 2.363 . S
O267 C224 1.283 . S
O267 Eu241 2.363 1_565 S
O268 C233 1.283 . S
O268 Eu237 2.360 1_556 S
O269 C231 1.283 . S
O269 Eu237 2.366 . S
O270 C232 1.283 . S
O270 Eu238 2.363 1_556 S
O271 C230 1.283 . S
O271 Eu238 2.363 . S
H272 C278 0.930 . S
H273 C282 0.930 . S
H274 C287 0.929 . S
H275 C285 0.929 . S
H276 C280 0.929 . S
H277 C286 0.929 . S
C278 H272 0.930 . S
C278 C279 1.367 . S
C278 C286 1.378 . S
C279 C278 1.367 . S
C279 C287 1.433 1_455 S
C280 H276 0.929 . S
C280 C282 1.378 . S
C280 C284 1.350 1_655 S
C281 C284 1.463 . S
C281 C286 1.350 . S
C281 N289 1.427 1_455 S
C282 H273 0.930 . S
C282 C280 1.378 . S
C282 C283 1.367 1_655 S
C283 C282 1.367 1_455 S
C283 C285 1.433 . S
C284 C280 1.350 1_455 S
C284 C281 1.463 . S
C284 N288 1.427 . S
C285 H275 0.929 . S
C285 C283 1.433 . S
C285 N288 1.384 . S
C286 H277 0.929 . S
C286 C278 1.378 . S
C286 C281 1.350 . S
C287 H274 0.929 . S
C287 C279 1.433 1_655 S
C287 N289 1.384 . S
N288 C284 1.427 . S
N288 C285 1.384 . S
N289 C281 1.427 1_655 S
N289 C287 1.384 . S
H290 C296 0.930 . S
H291 C300 0.930 . S
H292 C305 0.929 . S
H293 C303 0.929 . S
H294 C298 0.929 . S
H295 C304 0.929 . S
C296 H290 0.930 . S
C296 C297 1.367 . S
C296 C304 1.378 . S
C297 C296 1.367 . S
C297 C305 1.433 1_565 S
C298 H294 0.929 . S
C298 C300 1.378 . S
C298 C302 1.358 . S
C299 C302 1.461 1_565 S
C299 C304 1.350 . S
C299 N307 1.427 1_565 S
C300 H291 0.930 . S
C300 C298 1.378 . S
C300 C301 1.367 . S
C301 C300 1.367 . S
C301 C303 1.433 1_545 S
C302 C298 1.358 . S
C302 C299 1.461 1_545 S
C302 N306 1.421 1_545 S
C303 H293 0.929 . S
C303 C301 1.433 1_565 S
C303 N306 1.384 . S
C304 H295 0.929 . S
C304 C296 1.378 . S
C304 C299 1.350 . S
C305 H292 0.929 . S
C305 C297 1.433 1_545 S
C305 N307 1.384 . S
N306 C302 1.421 1_565 S
N306 C303 1.384 . S
N307 C299 1.427 1_545 S
N307 C305 1.384 . S
H308 C314 0.930 . S
H309 C318 0.930 . S
H310 C323 0.929 . S
H311 C321 0.929 . S
H312 C316 0.929 . S
H313 C322 0.929 . S
C314 H308 0.930 . S
C314 C315 1.367 . S
C314 C322 1.378 . S
C315 C314 1.367 . S
C315 C323 1.433 1_655 S
C316 H312 0.929 . S
C316 C318 1.378 . S
C316 C320 1.350 1_455 S
C317 C320 1.463 . S
C317 C322 1.350 . S
C317 N325 1.427 1_655 S
C318 H309 0.930 . S
C318 C316 1.378 . S
C318 C319 1.367 1_455 S
C319 C318 1.367 1_655 S
C319 C321 1.433 . S
C320 C316 1.350 1_655 S
C320 C317 1.463 . S
C320 N324 1.427 . S
C321 H311 0.929 . S
C321 C319 1.433 . S
C321 N324 1.384 . S
C322 H313 0.929 . S
C322 C314 1.378 . S
C322 C317 1.350 . S
C323 H310 0.929 . S
C323 C315 1.433 1_455 S
C323 N325 1.384 . S
N324 C320 1.427 . S
N324 C321 1.384 . S
N325 C317 1.427 1_455 S
N325 C323 1.384 . S
H326 C332 0.930 . S
H327 C336 0.930 . S
H328 C341 0.929 . S
H329 C339 0.929 . S
H330 C334 0.929 . S
H331 C340 0.929 . S
C332 H326 0.930 . S
C332 C333 1.367 . S
C332 C340 1.378 . S
C333 C332 1.367 . S
C333 C341 1.433 1_545 S
C334 H330 0.929 . S
C334 C336 1.378 . S
C334 C338 1.350 1_565 S
C335 C338 1.463 . S
C335 C340 1.350 . S
C335 N343 1.427 1_545 S
C336 H327 0.930 . S
C336 C334 1.378 . S
C336 C337 1.367 1_565 S
C337 C336 1.367 1_545 S
C337 C339 1.433 . S
C338 C334 1.350 1_545 S
C338 C335 1.463 . S
C338 N342 1.427 . S
C339 H329 0.929 . S
C339 C337 1.433 . S
C339 N342 1.384 . S
C340 H331 0.929 . S
C340 C332 1.378 . S
C340 C335 1.350 . S
C341 H328 0.929 . S
C341 C333 1.433 1_565 S
C341 N343 1.384 . S
N342 C338 1.427 . S
N342 C339 1.384 . S
N343 C335 1.427 1_565 S
N343 C341 1.384 . S
H344 C350 0.926 1_655 S
H345 C354 0.930 . S
H346 C359 0.929 . S
H347 C357 0.929 . S
H348 C352 0.929 . S
H349 C358 0.929 . S
C350 H344 0.926 1_455 S
C350 C351 1.373 . S
C350 C358 1.377 1_455 S
C351 C350 1.373 . S
C351 C359 1.433 . S
C352 H348 0.929 . S
C352 C354 1.378 . S
C352 C356 1.350 . S
C353 C356 1.463 . S
C353 C358 1.350 1_455 S
C353 N361 1.427 . S
C354 H345 0.930 . S
C354 C352 1.378 . S
C354 C355 1.367 . S
C355 C354 1.367 . S
C355 C357 1.433 1_455 S
C356 C352 1.350 . S
C356 C353 1.463 . S
C356 N360 1.427 1_455 S
C357 H347 0.929 . S
C357 C355 1.433 1_655 S
C357 N360 1.384 . S
C358 H349 0.929 . S
C358 C350 1.377 1_655 S
C358 C353 1.350 1_655 S
C359 H346 0.929 . S
C359 C351 1.433 . S
C359 N361 1.384 . S
N360 C356 1.427 1_655 S
N360 C357 1.384 . S
N361 C353 1.427 . S
N361 C359 1.384 . S
H362 C368 0.930 . S
H363 C372 0.930 . S
H364 C377 0.929 . S
H365 C375 0.929 . S
H366 C370 0.929 . S
H367 C376 0.929 . S
C368 H362 0.930 . S
C368 C369 1.367 1_545 S
C368 C376 1.378 . S
C369 C368 1.367 1_565 S
C369 C377 1.433 . S
C370 H366 0.929 . S
C370 C372 1.378 . S
C370 C374 1.358 . S
C371 C374 1.463 . S
C371 C376 1.350 1_565 S
C371 N379 1.427 . S
C372 H363 0.930 . S
C372 C370 1.378 . S
C372 C373 1.367 1_565 S
C373 C372 1.367 1_545 S
C373 C375 1.433 . S
C374 C370 1.358 . S
C374 C371 1.463 . S
C374 N378 1.419 1_565 S
C375 H365 0.929 . S
C375 C373 1.433 . S
C375 N378 1.384 . S
C376 H367 0.929 . S
C376 C368 1.378 . S
C376 C371 1.350 1_545 S
C377 H364 0.929 . S
C377 C369 1.433 . S
C377 N379 1.384 . S
N378 C374 1.419 1_545 S
N378 C375 1.384 . S
N379 C371 1.427 . S
N379 C377 1.384 . S
H380 C386 0.930 1_455 S
H381 C390 0.930 . S
H382 C395 0.929 . S
H383 C393 0.929 . S
H384 C388 0.929 . S
H385 C394 0.929 . S
C386 H380 0.930 1_655 S
C386 C387 1.367 . S
C386 C394 1.378 1_655 S
C387 C386 1.367 . S
C387 C395 1.433 . S
C388 H384 0.929 . S
C388 C390 1.378 . S
C388 C392 1.350 . S
C389 C392 1.463 . S
C389 C394 1.350 1_655 S
C389 N397 1.427 . S
C390 H381 0.930 . S
C390 C388 1.378 . S
C390 C391 1.367 1_655 S
C391 C390 1.367 1_455 S
C391 C393 1.433 . S
C392 C388 1.350 . S
C392 C389 1.463 . S
C392 N396 1.427 1_655 S
C393 H383 0.929 . S
C393 C391 1.433 . S
C393 N396 1.384 . S
C394 H385 0.929 . S
C394 C386 1.378 1_455 S
C394 C389 1.350 1_455 S
C395 H382 0.929 . S
C395 C387 1.433 . S
C395 N397 1.384 . S
N396 C392 1.427 1_455 S
N396 C393 1.384 . S
N397 C389 1.427 . S
N397 C395 1.384 . S
H398 C404 0.929 1_565 S
H399 C408 0.930 . S
H400 C413 0.929 . S
H401 C411 0.929 . S
H402 C406 0.929 . S
H403 C412 0.929 . S
C404 H398 0.929 1_545 S
C404 C405 1.369 . S
C404 C412 1.377 1_545 S
C405 C404 1.369 . S
C405 C413 1.433 . S
C406 H402 0.929 . S
C406 C408 1.378 . S
C406 C410 1.350 . S
C407 C410 1.463 . S
C407 C412 1.350 1_545 S
C407 N415 1.427 . S
C408 H399 0.930 . S
C408 C406 1.378 . S
C408 C409 1.367 . S
C409 C408 1.367 . S
C409 C411 1.433 1_545 S
C410 C406 1.350 . S
C410 C407 1.463 . S
C410 N414 1.427 1_545 S
C411 H401 0.929 . S
C411 C409 1.433 1_565 S
C411 N414 1.384 . S
C412 H403 0.929 . S
C412 C404 1.377 1_565 S
C412 C407 1.350 1_565 S
C413 H400 0.929 . S
C413 C405 1.433 . S
C413 N415 1.384 . S
N414 C410 1.427 1_565 S
N414 C411 1.384 . S
N415 C407 1.427 . S
N415 C413 1.384 . S
H416 C422 0.930 . S
H417 C426 0.930 . S
H418 C431 0.929 . S
H419 C429 0.929 . S
H420 C424 0.929 . S
H421 C430 0.929 . S
C422 H416 0.930 . S
C422 C423 1.367 . S
C422 C430 1.378 . S
C423 C422 1.367 . S
C423 C431 1.433 1_556 S
C424 H420 0.929 . S
C424 C426 1.378 . S
C424 C428 1.350 1_554 S
C425 C428 1.463 . S
C425 C430 1.350 . S
C425 N433 1.427 1_556 S
C426 H417 0.930 . S
C426 C424 1.378 . S
C426 C427 1.371 . S
C427 C426 1.371 . S
C427 C429 1.429 1_554 S
C428 C424 1.350 1_556 S
C428 C425 1.463 . S
C428 N432 1.427 . S
C429 H419 0.929 . S
C429 C427 1.429 1_556 S
C429 N432 1.384 . S
C430 H421 0.929 . S
C430 C422 1.378 . S
C430 C425 1.350 . S
C431 H418 0.929 . S
C431 C423 1.433 1_554 S
C431 N433 1.384 . S
N432 C428 1.427 . S
N432 C429 1.384 . S
N433 C425 1.427 1_554 S
N433 C431 1.384 . S
H434 C440 0.930 . S
H435 C444 0.930 . S
H436 C449 0.929 . S
H437 C447 0.929 . S
H438 C442 0.929 . S
H439 C448 0.929 . S
C440 H434 0.930 . S
C440 C441 1.367 . S
C440 C448 1.378 . S
C441 C440 1.367 . S
C441 C449 1.433 1_554 S
C442 H438 0.929 . S
C442 C444 1.378 . S
C442 C446 1.350 1_556 S
C443 C446 1.463 . S
C443 C448 1.350 . S
C443 N451 1.427 1_554 S
C444 H435 0.930 . S
C444 C442 1.378 . S
C444 C445 1.367 1_556 S
C445 C444 1.367 1_554 S
C445 C447 1.433 . S
C446 C442 1.350 1_554 S
C446 C443 1.463 . S
C446 N450 1.427 . S
C447 H437 0.929 . S
C447 C445 1.433 . S
C447 N450 1.384 . S
C448 H439 0.929 . S
C448 C440 1.378 . S
C448 C443 1.350 . S
C449 H436 0.929 . S
C449 C441 1.433 1_556 S
C449 N451 1.384 . S
N450 C446 1.427 . S
N450 C447 1.384 . S
N451 C443 1.427 1_556 S
N451 C449 1.384 . S
H452 C458 0.930 . S
H453 C462 0.930 . S
H454 C467 0.929 . S
H455 C465 0.929 . S
H456 C460 0.929 . S
H457 C466 0.929 . S
C458 H452 0.930 . S
C458 C459 1.367 1_556 S
C458 C466 1.378 . S
C459 C458 1.367 1_554 S
C459 C467 1.433 . S
C460 H456 0.929 . S
C460 C462 1.378 . S
C460 C464 1.350 . S
C461 C464 1.463 . S
C461 C466 1.350 1_554 S
C461 N469 1.427 . S
C462 H453 0.930 . S
C462 C460 1.378 . S
C462 C463 1.367 . S
C463 C462 1.367 . S
C463 C465 1.433 1_554 S
C464 C460 1.350 . S
C464 C461 1.463 . S
C464 N468 1.427 1_554 S
C465 H455 0.929 . S
C465 C463 1.433 1_556 S
C465 N468 1.384 . S
C466 H457 0.929 . S
C466 C458 1.378 . S
C466 C461 1.350 1_556 S
C467 H454 0.929 . S
C467 C459 1.433 . S
C467 N469 1.384 . S
N468 C464 1.427 1_556 S
N468 C465 1.384 . S
N469 C461 1.427 . S
N469 C467 1.384 . S
H470 C476 0.930 . S
H471 C480 0.930 . S
H472 C485 0.929 . S
H473 C483 0.929 . S
H474 C478 0.929 . S
H475 C484 0.929 . S
C476 H470 0.930 . S
C476 C477 1.367 . S
C476 C484 1.378 . S
C477 C476 1.367 . S
C477 C485 1.433 1_556 S
C478 H474 0.929 . S
C478 C480 1.378 . S
C478 C482 1.350 1_554 S
C479 C482 1.463 . S
C479 C484 1.350 . S
C479 N487 1.427 1_556 S
C480 H471 0.930 . S
C480 C478 1.378 . S
C480 C481 1.366 1_554 S
C481 C480 1.366 1_556 S
C481 C483 1.434 . S
C482 C478 1.350 1_556 S
C482 C479 1.463 . S
C482 N486 1.427 . S
C483 H473 0.929 . S
C483 C481 1.434 . S
C483 N486 1.384 . S
C484 H475 0.929 . S
C484 C476 1.378 . S
C484 C479 1.350 . S
C485 H472 0.929 . S
C485 C477 1.433 1_554 S
C485 N487 1.384 . S
N486 C482 1.427 . S
N486 C483 1.384 . S
N487 C479 1.427 1_554 S
N487 C485 1.384 . S
C283 C223 1.720 . S
C279 C39 1.611 . S
C301 C230 1.732 . S
C297 C113 1.624 . S
C319 C225 2.079 . S
C315 C69 2.073 . S
C337 C231 0.821 . S
C333 C125 0.823 . S
C351 C63 1.561 . S
C355 C224 1.669 . S
C373 C233 1.681 . S
C369 C137 1.574 . S
C387 C51 0.814 . S
C391 C222 0.815 . S
C405 C143 2.089 . S
C409 C232 2.096 . S
C423 C187 1.607 . S
C427 C227 1.721 . S
C441 C217 2.083 . S
C445 C226 2.090 1_554 S
C463 C229 0.811 . S
C459 C199 0.807 . S
C481 C228 1.676 1_556 S
C477 C211 1.571 . S
