# Generated by pormake.
# Topology eea, (3,6)-cn, num edge types: 1
# Building blocks:
#     Node 0, Type 0, BuildingBlock: KAKCAD_clean_linker_0, # of connection points: 3
#     Node 1, Type 0, BuildingBlock: KAKCAD_clean_linker_0, # of connection points: 3
#     Node 2, Type 0, BuildingBlock: KAKCAD_clean_linker_0, # of connection points: 3
#     Node 3, Type 0, BuildingBlock: KAKCAD_clean_linker_0, # of connection points: 3
#     Node 4, Type 0, BuildingBlock: KAKCAD_clean_linker_0, # of connection points: 3
#     Node 5, Type 0, BuildingBlock: KAKCAD_clean_linker_0, # of connection points: 3
#     Node 6, Type 0, BuildingBlock: KAKCAD_clean_linker_0, # of connection points: 3
#     Node 7, Type 0, BuildingBlock: KAKCAD_clean_linker_0, # of connection points: 3
#     Node 8, Type 0, BuildingBlock: KAKCAD_clean_linker_0, # of connection points: 3
#     Node 9, Type 0, BuildingBlock: KAKCAD_clean_linker_0, # of connection points: 3
#     Node 10, Type 0, BuildingBlock: KAKCAD_clean_linker_0, # of connection points: 3
#     Node 11, Type 0, BuildingBlock: KAKCAD_clean_linker_0, # of connection points: 3
#     Node 12, Type 0, BuildingBlock: KAKCAD_clean_linker_0, # of connection points: 3
#     Node 13, Type 0, BuildingBlock: KAKCAD_clean_linker_0, # of connection points: 3
#     Node 14, Type 0, BuildingBlock: KAKCAD_clean_linker_0, # of connection points: 3
#     Node 15, Type 0, BuildingBlock: KAKCAD_clean_linker_0, # of connection points: 3
#     Node 16, Type 0, BuildingBlock: KAKCAD_clean_linker_0, # of connection points: 3
#     Node 17, Type 0, BuildingBlock: KAKCAD_clean_linker_0, # of connection points: 3
#     Node 18, Type 1, BuildingBlock: CUKXOW_clean_sbu_0, # of connection points: 6
#     Node 19, Type 1, BuildingBlock: CUKXOW_clean_sbu_0, # of connection points: 6
#     Node 20, Type 1, BuildingBlock: CUKXOW_clean_sbu_0, # of connection points: 6
#     Node 21, Type 1, BuildingBlock: CUKXOW_clean_sbu_0, # of connection points: 6
#     Node 22, Type 1, BuildingBlock: CUKXOW_clean_sbu_0, # of connection points: 6
#     Node 23, Type 1, BuildingBlock: CUKXOW_clean_sbu_0, # of connection points: 6
#     Node 24, Type 1, BuildingBlock: CUKXOW_clean_sbu_0, # of connection points: 6
#     Node 25, Type 1, BuildingBlock: CUKXOW_clean_sbu_0, # of connection points: 6
#     Node 26, Type 1, BuildingBlock: CUKXOW_clean_sbu_0, # of connection points: 6
#     Edge 27, Type (0, 1), BuildingBlock: EZIPEK_clean_linker_0, # of connection points: 2
#     Edge 28, Type (0, 1), BuildingBlock: EZIPEK_clean_linker_0, # of connection points: 2
#     Edge 29, Type (0, 1), BuildingBlock: EZIPEK_clean_linker_0, # of connection points: 2
#     Edge 30, Type (0, 1), BuildingBlock: EZIPEK_clean_linker_0, # of connection points: 2
#     Edge 31, Type (0, 1), BuildingBlock: EZIPEK_clean_linker_0, # of connection points: 2
#     Edge 32, Type (0, 1), BuildingBlock: EZIPEK_clean_linker_0, # of connection points: 2
#     Edge 33, Type (0, 1), BuildingBlock: EZIPEK_clean_linker_0, # of connection points: 2
#     Edge 34, Type (0, 1), BuildingBlock: EZIPEK_clean_linker_0, # of connection points: 2
#     Edge 35, Type (0, 1), BuildingBlock: EZIPEK_clean_linker_0, # of connection points: 2
#     Edge 36, Type (0, 1), BuildingBlock: EZIPEK_clean_linker_0, # of connection points: 2
#     Edge 37, Type (0, 1), BuildingBlock: EZIPEK_clean_linker_0, # of connection points: 2
#     Edge 38, Type (0, 1), BuildingBlock: EZIPEK_clean_linker_0, # of connection points: 2
#     Edge 39, Type (0, 1), BuildingBlock: EZIPEK_clean_linker_0, # of connection points: 2
#     Edge 40, Type (0, 1), BuildingBlock: EZIPEK_clean_linker_0, # of connection points: 2
#     Edge 41, Type (0, 1), BuildingBlock: EZIPEK_clean_linker_0, # of connection points: 2
#     Edge 42, Type (0, 1), BuildingBlock: EZIPEK_clean_linker_0, # of connection points: 2
#     Edge 43, Type (0, 1), BuildingBlock: EZIPEK_clean_linker_0, # of connection points: 2
#     Edge 44, Type (0, 1), BuildingBlock: EZIPEK_clean_linker_0, # of connection points: 2
#     Edge 45, Type (0, 1), BuildingBlock: EZIPEK_clean_linker_0, # of connection points: 2
#     Edge 46, Type (0, 1), BuildingBlock: EZIPEK_clean_linker_0, # of connection points: 2
#     Edge 47, Type (0, 1), BuildingBlock: EZIPEK_clean_linker_0, # of connection points: 2
#     Edge 48, Type (0, 1), BuildingBlock: EZIPEK_clean_linker_0, # of connection points: 2
#     Edge 49, Type (0, 1), BuildingBlock: EZIPEK_clean_linker_0, # of connection points: 2
#     Edge 50, Type (0, 1), BuildingBlock: EZIPEK_clean_linker_0, # of connection points: 2
#     Edge 51, Type (0, 1), BuildingBlock: EZIPEK_clean_linker_0, # of connection points: 2
#     Edge 52, Type (0, 1), BuildingBlock: EZIPEK_clean_linker_0, # of connection points: 2
#     Edge 53, Type (0, 1), BuildingBlock: EZIPEK_clean_linker_0, # of connection points: 2
#     Edge 54, Type (0, 1), BuildingBlock: EZIPEK_clean_linker_0, # of connection points: 2
#     Edge 55, Type (0, 1), BuildingBlock: EZIPEK_clean_linker_0, # of connection points: 2
#     Edge 56, Type (0, 1), BuildingBlock: EZIPEK_clean_linker_0, # of connection points: 2
#     Edge 57, Type (0, 1), BuildingBlock: EZIPEK_clean_linker_0, # of connection points: 2
#     Edge 58, Type (0, 1), BuildingBlock: EZIPEK_clean_linker_0, # of connection points: 2
#     Edge 59, Type (0, 1), BuildingBlock: EZIPEK_clean_linker_0, # of connection points: 2
#     Edge 60, Type (0, 1), BuildingBlock: EZIPEK_clean_linker_0, # of connection points: 2
#     Edge 61, Type (0, 1), BuildingBlock: EZIPEK_clean_linker_0, # of connection points: 2
#     Edge 62, Type (0, 1), BuildingBlock: EZIPEK_clean_linker_0, # of connection points: 2
#     Edge 63, Type (0, 1), BuildingBlock: EZIPEK_clean_linker_0, # of connection points: 2
#     Edge 64, Type (0, 1), BuildingBlock: EZIPEK_clean_linker_0, # of connection points: 2
#     Edge 65, Type (0, 1), BuildingBlock: EZIPEK_clean_linker_0, # of connection points: 2
#     Edge 66, Type (0, 1), BuildingBlock: EZIPEK_clean_linker_0, # of connection points: 2
#     Edge 67, Type (0, 1), BuildingBlock: EZIPEK_clean_linker_0, # of connection points: 2
#     Edge 68, Type (0, 1), BuildingBlock: EZIPEK_clean_linker_0, # of connection points: 2
#     Edge 69, Type (0, 1), BuildingBlock: EZIPEK_clean_linker_0, # of connection points: 2
#     Edge 70, Type (0, 1), BuildingBlock: EZIPEK_clean_linker_0, # of connection points: 2
#     Edge 71, Type (0, 1), BuildingBlock: EZIPEK_clean_linker_0, # of connection points: 2
#     Edge 72, Type (0, 1), BuildingBlock: EZIPEK_clean_linker_0, # of connection points: 2
#     Edge 73, Type (0, 1), BuildingBlock: EZIPEK_clean_linker_0, # of connection points: 2
#     Edge 74, Type (0, 1), BuildingBlock: EZIPEK_clean_linker_0, # of connection points: 2
#     Edge 75, Type (0, 1), BuildingBlock: EZIPEK_clean_linker_0, # of connection points: 2
#     Edge 76, Type (0, 1), BuildingBlock: EZIPEK_clean_linker_0, # of connection points: 2
#     Edge 77, Type (0, 1), BuildingBlock: EZIPEK_clean_linker_0, # of connection points: 2
#     Edge 78, Type (0, 1), BuildingBlock: EZIPEK_clean_linker_0, # of connection points: 2
#     Edge 79, Type (0, 1), BuildingBlock: EZIPEK_clean_linker_0, # of connection points: 2
#     Edge 80, Type (0, 1), BuildingBlock: EZIPEK_clean_linker_0, # of connection points: 2
# Relax obj value: 0.017
# Max RMSD: 0.126
# Mean RMSD: 0.058
data_MOF--net-eea--node1-CUKXOW_clean_sbu_0--node2-KAKCAD_clean_linker_0--edge1-EZIPEK_clean_linker_0
_symmetry_space_group_name_H-M    P1
_symmetry_Int_Tables_number       1
_symmetry_cell_setting            triclinic
loop_
_symmetry_equiv_pos_as_xyz
'x, y, z'
_cell_length_a     53.391071
_cell_length_b     50.213978
_cell_length_c     56.751604
_cell_angle_alpha  93.460804
_cell_angle_beta   93.092325
_cell_angle_gamma 120.02577
loop_
_atom_site_label
_atom_site_type_symbol
_atom_site_fract_x
_atom_site_fract_y
_atom_site_fract_z
_atom_type_partial_charge
C0 C 0.28948 0.17615 0.53334 0.0
C1 C 0.31311 0.17148 0.53741 0.0
C2 C 0.27592 0.17097 0.51034 0.0
C3 C 0.28564 0.16076 0.49112 0.0
C4 C 0.31001 0.15727 0.49523 0.0
C5 C 0.32363 0.16263 0.51814 0.0
C6 C 0.26961 0.15211 0.46708 0.0
C7 C 0.26054 0.17122 0.45704 0.0
C8 C 0.24602 0.16312 0.43404 0.0
C9 C 0.24007 0.13539 0.42134 0.0
C10 C 0.24843 0.11576 0.43124 0.0
C11 C 0.26329 0.12436 0.45406 0.0
C12 C 0.24134 0.08615 0.41778 0.0
C13 C 0.23039 0.05884 0.42908 0.0
C14 C 0.24523 0.08494 0.39348 0.0
C15 C 0.23846 0.05704 0.38081 0.0
C16 C 0.22763 0.02995 0.39221 0.0
C17 C 0.23689 0.18337 0.42303 0.0
C18 C 0.22215 0.19532 0.43564 0.0
C19 C 0.24214 0.19008 0.39947 0.0
C20 C 0.23286 0.2084 0.38875 0.0
C21 C 0.21791 0.22004 0.40131 0.0
C22 C 0.21259 0.21337 0.42482 0.0
C23 C 0.22355 0.03095 0.41638 0.0
H24 H 0.28097 0.18279 0.54805 0.0
H25 H 0.25712 0.17372 0.50773 0.0
H26 H 0.31826 0.14986 0.48075 0.0
H27 H 0.34182 0.15888 0.52097 0.0
H28 H 0.26552 0.19278 0.46682 0.0
H29 H 0.26993 0.10935 0.46175 0.0
H30 H 0.22815 0.12866 0.40389 0.0
H31 H 0.2268 0.05896 0.44768 0.0
H32 H 0.25389 0.10564 0.38435 0.0
H33 H 0.24188 0.0566 0.36218 0.0
H34 H 0.21759 0.19027 0.45373 0.0
H35 H 0.25367 0.18138 0.3894 0.0
H36 H 0.21521 0.01016 0.42539 0.0
H37 H 0.20118 0.22232 0.4348 0.0
H38 H 0.2374 0.21358 0.37068 0.0
C39 C 0.86297 0.18507 0.52603 0.0
C40 C 0.85802 0.16472 0.54349 0.0
C41 C 0.86862 0.17827 0.50329 0.0
C42 C 0.86872 0.15071 0.49761 0.0
C43 C 0.8642 0.13067 0.51521 0.0
C44 C 0.85916 0.13774 0.53799 0.0
C45 C 0.87224 0.1418 0.47321 0.0
C46 C 0.89721 0.16075 0.46215 0.0
C47 C 0.90154 0.15045 0.43999 0.0
C48 C 0.88046 0.12134 0.42883 0.0
C49 C 0.8546 0.10267 0.43906 0.0
C50 C 0.85083 0.11328 0.46138 0.0
C51 C 0.83192 0.07209 0.42662 0.0
C52 C 0.82834 0.06698 0.40163 0.0
C53 C 0.81387 0.0475 0.43956 0.0
C54 C 0.79302 0.01885 0.42791 0.0
C55 C 0.79041 0.01365 0.40309 0.0
C56 C 0.92807 0.16974 0.42828 0.0
C57 C 0.93627 0.20034 0.42458 0.0
C58 C 0.94451 0.15711 0.41966 0.0
C59 C 0.96869 0.17474 0.40751 0.0
C60 C 0.97656 0.20511 0.40346 0.0
C61 C 0.9602 0.21781 0.41209 0.0
C62 C 0.80825 0.03794 0.39006 0.0
H63 H 0.86204 0.20593 0.52993 0.0
H64 H 0.87196 0.19397 0.48994 0.0
H65 H 0.86436 0.10938 0.51125 0.0
H66 H 0.85541 0.12177 0.55121 0.0
H67 H 0.91374 0.18286 0.47117 0.0
H68 H 0.83111 0.09963 0.4697 0.0
H69 H 0.88443 0.1134 0.41204 0.0
H70 H 0.84101 0.08532 0.39085 0.0
H71 H 0.81614 0.04993 0.45874 0.0
H72 H 0.77948 1.00036 0.43832 0.0
H73 H 0.92379 0.21046 0.43087 0.0
H74 H 0.93866 0.1336 0.4224 0.0
H75 H 0.80657 0.03443 0.37088 0.0
H76 H 0.96607 0.24128 0.40921 0.0
H77 H 0.98122 0.16468 0.40118 0.0
C78 C 0.86333 0.71679 0.54361 0.0
C79 C 0.86095 0.68769 0.54399 0.0
C80 C 0.87221 0.73309 0.52373 0.0
C81 C 0.87927 0.72079 0.50399 0.0
C82 C 0.87788 0.69216 0.50469 0.0
C83 C 0.8685 0.67556 0.52447 0.0
C84 C 0.88609 0.73693 0.4822 0.0
C85 C 0.91163 0.74412 0.47159 0.0
C86 C 0.91788 0.75955 0.4509 0.0
C87 C 0.89805 0.76739 0.44085 0.0
C88 C 0.87226 0.75995 0.45111 0.0
C89 C 0.86657 0.74491 0.47187 0.0
C90 C 0.85101 0.76739 0.4399 0.0
C91 C 0.8604 0.79648 0.43166 0.0
C92 C 0.82117 0.74518 0.43702 0.0
C93 C 0.80121 0.75179 0.42587 0.0
C94 C 0.81073 0.78076 0.41758 0.0
C95 C 0.94503 0.76765 0.43968 0.0
C96 C 0.97189 0.78061 0.45353 0.0
C97 C 0.94435 0.76337 0.41486 0.0
C98 C 0.96996 0.77229 0.40412 0.0
C99 C 0.99672 0.78568 0.41796 0.0
C100 C 0.99756 0.78962 0.44274 0.0
C101 C 0.84038 0.80314 0.42065 0.0
H102 H 0.85757 0.72649 0.5585 0.0
H103 H 0.87322 0.75518 0.52362 0.0
H104 H 0.883 0.68213 0.48958 0.0
H105 H 0.86661 0.65305 0.52441 0.0
H106 H 0.92658 0.73772 0.47944 0.0
H107 H 0.8468 0.73924 0.47999 0.0
H108 H 0.90262 0.77921 0.4249 0.0
H109 H 0.8832 0.81412 0.43383 0.0
H110 H 0.81334 0.72247 0.44296 0.0
H111 H 0.77838 0.73425 0.4235 0.0
H112 H 0.97316 0.78444 0.47265 0.0
H113 H 0.92398 0.75306 0.40373 0.0
H114 H 0.84802 0.82561 0.4143 0.0
H115 H 0.01809 0.79989 0.45365 0.0
H116 H 0.96895 0.76893 0.38498 0.0
C117 C 0.17001 0.31353 0.48727 0.0
C118 C 0.16232 0.33563 0.48217 0.0
C119 C 0.16539 0.3014 0.50915 0.0
C120 C 0.15306 0.31118 0.52654 0.0
C121 C 0.14604 0.33396 0.52155 0.0
C122 C 0.15056 0.34602 0.49952 0.0
C123 C 0.14698 0.29694 0.54942 0.0
C124 C 0.16649 0.2893 0.56047 0.0
C125 C 0.16041 0.27432 0.58129 0.0
C126 C 0.13483 0.26774 0.59154 0.0
C127 C 0.11505 0.27517 0.58092 0.0
C128 C 0.12116 0.28962 0.5598 0.0
C129 C 0.08744 0.2663 0.59154 0.0
C130 C 0.06058 0.24934 0.57765 0.0
C131 C 0.08772 0.27304 0.61601 0.0
C132 C 0.06169 0.26265 0.62644 0.0
C133 C 0.03493 0.24497 0.61266 0.0
C134 C 0.17992 0.26401 0.59169 0.0
C135 C 0.19101 0.24961 0.57696 0.0
C136 C 0.18662 0.2673 0.6164 0.0
C137 C 0.20373 0.2561 0.62616 0.0
C138 C 0.21432 0.24135 0.61139 0.0
C139 C 0.20803 0.23833 0.58675 0.0
C140 C 0.03452 0.23856 0.58818 0.0
H141 H 0.17863 0.30484 0.47392 0.0
H142 H 0.17059 0.28353 0.5121 0.0
H143 H 0.13682 0.34229 0.53459 0.0
H144 H 0.14414 0.36277 0.49575 0.0
H145 H 0.1866 0.29512 0.55289 0.0
H146 H 0.10558 0.29472 0.55131 0.0
H147 H 0.12961 0.25551 0.60729 0.0
H148 H 0.05974 0.24356 0.55882 0.0
H149 H 0.10811 0.28616 0.62709 0.0
H150 H 0.06237 0.26785 0.64535 0.0
H151 H 0.18592 0.24634 0.5579 0.0
H152 H 0.1786 0.2785 0.62817 0.0
H153 H 0.01402 0.22494 0.5773 0.0
H154 H 0.21603 0.22693 0.57514 0.0
H155 H 0.20849 0.25864 0.64523 0.0
C156 C 0.68878 0.81681 0.49313 0.0
C157 C 0.70439 0.83723 0.47655 0.0
C158 C 0.70087 0.82166 0.51664 0.0
C159 C 0.72846 0.84733 0.52396 0.0
C160 C 0.74437 0.86712 0.50718 0.0
C161 C 0.73258 0.86193 0.48364 0.0
C162 C 0.7402 0.85482 0.54926 0.0
C163 C 0.74551 0.83431 0.56129 0.0
C164 C 0.75863 0.8426 0.58478 0.0
C165 C 0.7664 0.87187 0.59601 0.0
C166 C 0.76019 0.89242 0.58461 0.0
C167 C 0.7468 0.88324 0.56114 0.0
C168 C 0.76807 0.92344 0.59694 0.0
C169 C 0.77167 0.9289 0.62195 0.0
C170 C 0.77234 0.94818 0.58383 0.0
C171 C 0.77948 0.97688 0.59522 0.0
C172 C 0.78417 0.98243 0.62004 0.0
C173 C 0.76479 0.82109 0.59757 0.0
C174 C 0.77524 0.80365 0.58581 0.0
C175 C 0.76063 0.81814 0.6218 0.0
C176 C 0.76706 0.79855 0.63399 0.0
C177 C 0.77769 0.78148 0.62218 0.0
C178 C 0.78159 0.78401 0.59801 0.0
C179 C 0.78028 0.95816 0.63329 0.0
H180 H 0.66694 0.79773 0.48804 0.0
H181 H 0.68822 0.80616 0.52932 0.0
H182 H 0.76577 0.88695 0.51243 0.0
H183 H 0.74497 0.87793 0.47113 0.0
H184 H 0.73967 0.81206 0.55222 0.0
H185 H 0.74099 0.89783 0.55181 0.0
H186 H 0.77807 0.87875 0.61349 0.0
H187 H 0.76783 0.9107 0.63304 0.0
H188 H 0.77083 0.94596 0.56468 0.0
H189 H 0.78236 0.99523 0.58455 0.0
H190 H 0.77906 0.8056 0.56728 0.0
H191 H 0.75223 0.83086 0.63133 0.0
H192 H 0.78373 0.9618 0.65248 0.0
H193 H 0.78984 0.77101 0.58865 0.0
H194 H 0.7638 0.79673 0.65263 0.0
C195 C 0.12894 0.84504 0.47346 0.0
C196 C 0.15429 0.84375 0.47073 0.0
C197 C 0.12122 0.84846 0.49617 0.0
C198 C 0.1391 0.85125 0.51639 0.0
C199 C 0.16382 0.8487 0.51357 0.0
C200 C 0.1712 0.84467 0.49091 0.0
C201 C 0.13354 0.85963 0.54022 0.0
C202 C 0.10643 0.84188 0.549 0.0
C203 C 0.10129 0.8504 0.57155 0.0
C204 C 0.12316 0.87765 0.58472 0.0
C205 C 0.15015 0.8955 0.57606 0.0
C206 C 0.15543 0.8862 0.55403 0.0
C207 C 0.1726 0.92436 0.58984 0.0
C208 C 0.16903 0.95022 0.59193 0.0
C209 C 0.19765 0.92622 0.60087 0.0
C210 C 0.2189 0.95366 0.61392 0.0
C211 C 0.21567 0.97981 0.61559 0.0
C212 C 0.07348 0.8308 0.58176 0.0
C213 C 0.04663 0.818 0.56792 0.0
C214 C 0.0737 0.82514 0.60573 0.0
C215 C 0.04773 0.80747 0.61574 0.0
C216 C 0.02104 0.79513 0.60199 0.0
C217 C 0.02058 0.80034 0.578 0.0
C218 C 0.19055 0.97786 0.60454 0.0
H219 H 0.11575 0.84453 0.45805 0.0
H220 H 0.10215 0.85054 0.49793 0.0
H221 H 0.17785 0.85068 0.52891 0.0
H222 H 0.19091 0.84386 0.48909 0.0
H223 H 0.08973 0.82103 0.53857 0.0
H224 H 0.17628 0.90025 0.54728 0.0
H225 H 0.11926 0.88506 0.60178 0.0
H226 H 0.1498 0.94913 0.58351 0.0
H227 H 0.20064 0.9064 0.59949 0.0
H228 H 0.2381 0.95472 0.62238 0.0
H229 H 0.04576 0.82212 0.54946 0.0
H230 H 0.09402 0.83425 0.61676 0.0
H231 H 0.1877 0.99778 0.60562 0.0
H232 H 1.00008 0.79088 0.56716 0.0
H233 H 0.04841 0.80349 0.63426 0.0
C234 C 0.95815 0.51125 0.86163 0.0
C235 C 0.97875 0.50301 0.86875 0.0
C236 C 0.94723 0.50605 0.83773 0.0
C237 C 0.95664 0.49235 0.82064 0.0
C238 C 0.97825 0.48548 0.82781 0.0
C239 C 0.98913 0.4907 0.85161 0.0
C240 C 0.94278 0.4833 0.79576 0.0
C241 C 0.93691 0.50328 0.78324 0.0
C242 C 0.92404 0.49449 0.75961 0.0
C243 C 0.91694 0.46536 0.74872 0.0
C244 C 0.92233 0.44509 0.76101 0.0
C245 C 0.93514 0.45415 0.78448 0.0
C246 C 0.91437 0.41432 0.74928 0.0
C247 C 0.89856 0.38751 0.76074 0.0
C248 C 0.92245 0.41158 0.72648 0.0
C249 C 0.91515 0.38262 0.71547 0.0
C250 C 0.89928 0.35593 0.72694 0.0
C251 C 0.91733 0.51516 0.74621 0.0
C252 C 0.90564 0.53177 0.75726 0.0
C253 C 0.92134 0.5173 0.7219 0.0
C254 C 0.91324 0.53502 0.70887 0.0
C255 C 0.90114 0.55105 0.71992 0.0
C256 C 0.89766 0.54959 0.74422 0.0
C257 C 0.89091 0.3585 0.74958 0.0
H258 H 0.94972 0.52054 0.87469 0.0
H259 H 0.93051 0.51144 0.83281 0.0
H260 H 0.98632 0.4754 0.81506 0.0
H261 H 0.00497 0.48414 0.85681 0.0
H262 H 0.94296 0.52588 0.79169 0.0
H263 H 0.93914 0.43836 0.79401 0.0
H264 H 0.9063 0.45792 0.73081 0.0
H265 H 0.89186 0.38896 0.77823 0.0
H266 H 0.9348 0.43192 0.71733 0.0
H267 H 0.92189 0.38099 0.69803 0.0
H268 H 0.90196 0.53039 0.77584 0.0
H269 H 0.93072 0.50524 0.7129 0.0
H270 H 0.87873 0.33808 0.75868 0.0
H271 H 0.88843 0.56198 0.75301 0.0
H272 H 0.91635 0.5362 0.69017 0.0
C273 C 0.52996 0.51463 0.85965 0.0
C274 C 0.52628 0.49513 0.87753 0.0
C275 C 0.53718 0.50859 0.83736 0.0
C276 C 0.54027 0.48268 0.83258 0.0
C277 C 0.5375 0.46381 0.85069 0.0
C278 C 0.53087 0.47017 0.87306 0.0
C279 C 0.54408 0.47369 0.80834 0.0
C280 C 0.56976 0.49189 0.79789 0.0
C281 C 0.57373 0.48216 0.77534 0.0
C282 C 0.55167 0.45387 0.76348 0.0
C283 C 0.52532 0.4357 0.77335 0.0
C284 C 0.52187 0.44615 0.79588 0.0
C285 C 0.50183 0.4057 0.76041 0.0
C286 C 0.49903 0.40068 0.73541 0.0
C287 C 0.48217 0.38149 0.77291 0.0
C288 C 0.46064 0.35341 0.7609 0.0
C289 C 0.45889 0.34814 0.73614 0.0
C290 C 0.60096 0.50114 0.76407 0.0
C291 C 0.6283 0.51512 0.77732 0.0
C292 C 0.59975 0.50482 0.73971 0.0
C293 C 0.62524 0.52172 0.72881 0.0
C294 C 0.65239 0.53524 0.74203 0.0
C295 C 0.65382 0.532 0.76637 0.0
C296 C 0.47823 0.37207 0.7235 0.0
H297 H 0.52637 0.53391 0.86274 0.0
H298 H 0.5391 0.52332 0.82356 0.0
H299 H 0.53985 0.44373 0.84733 0.0
H300 H 0.52814 0.45488 0.88662 0.0
H301 H 0.5866 0.51345 0.80739 0.0
H302 H 0.50178 0.43322 0.80392 0.0
H303 H 0.55559 0.44576 0.74676 0.0
H304 H 0.51287 0.41872 0.72485 0.0
H305 H 0.48365 0.38366 0.79208 0.0
H306 H 0.44595 0.33526 0.77105 0.0
H307 H 0.62999 0.51248 0.79604 0.0
H308 H 0.57906 0.49472 0.72907 0.0
H309 H 0.47724 0.3686 0.70437 0.0
H310 H 0.67467 0.54234 0.7768 0.0
H311 H 0.6238 0.52416 0.71002 0.0
C312 C 0.53173 0.9994 0.85604 0.0
C313 C 0.52102 0.01113 0.8734 0.0
C314 C 0.53992 0.01351 0.83503 0.0
C315 C 0.53723 0.03938 0.83092 0.0
C316 C 0.52659 0.05106 0.84845 0.0
C317 C 0.51861 0.0371 0.86947 0.0
C318 C 0.54483 0.05383 0.80827 0.0
C319 C 0.5706 0.05968 0.79851 0.0
C320 C 0.57782 0.07366 0.77722 0.0
C321 C 0.55897 0.08181 0.76579 0.0
C322 C 0.5332 0.0762 0.77524 0.0
C323 C 0.52626 0.0621 0.79643 0.0
C324 C 0.51376 0.08546 0.76307 0.0
C325 C 0.52547 0.11433 0.75392 0.0
C326 C 0.48342 0.06553 0.76045 0.0
C327 C 0.46525 0.07426 0.74888 0.0
C328 C 0.47709 0.10307 0.73981 0.0
C329 C 0.60529 0.08059 0.76698 0.0
C330 C 0.63185 0.09464 0.78137 0.0
C331 C 0.60533 0.07478 0.7424 0.0
C332 C 0.63137 0.08359 0.73237 0.0
C333 C 0.65786 0.09842 0.74669 0.0
C334 C 0.65795 0.10357 0.77128 0.0
C335 C 0.50728 0.12306 0.74241 0.0
H336 H 0.53366 0.97931 0.85877 0.0
H337 H 0.54779 0.00382 0.82179 0.0
H338 H 0.52459 0.07116 0.84597 0.0
H339 H 0.51046 0.04651 0.88269 0.0
H340 H 0.58511 0.05351 0.80753 0.0
H341 H 0.5064 0.05772 0.80383 0.0
H342 H 0.56448 0.09276 0.74948 0.0
H343 H 0.54869 0.13036 0.75592 0.0
H344 H 0.47377 0.04304 0.76709 0.0
H345 H 0.44195 0.0586 0.747 0.0
H346 H 0.63255 0.09966 0.80031 0.0
H347 H 0.58521 0.06367 0.73089 0.0
H348 H 0.51672 0.14544 0.7356 0.0
H349 H 0.67826 0.11504 0.78257 0.0
H350 H 0.63094 0.07937 0.71336 0.0
C351 C 0.84121 0.64876 0.81864 0.0
C352 C 0.8248 0.6604 0.80808 0.0
C353 C 0.83532 0.63693 0.84053 0.0
C354 C 0.81373 0.63777 0.8533 0.0
C355 C 0.7985 0.65131 0.84321 0.0
C356 C 0.80351 0.66183 0.82063 0.0
C357 C 0.80644 0.62323 0.87627 0.0
C358 C 0.82679 0.61874 0.88981 0.0
C359 C 0.81925 0.60211 0.90978 0.0
C360 C 0.79167 0.59183 0.91748 0.0
C361 C 0.77125 0.59684 0.90496 0.0
C362 C 0.77859 0.61201 0.8842 0.0
C363 C 0.74214 0.58589 0.91356 0.0
C364 C 0.72722 0.55701 0.92266 0.0
C365 C 0.72963 0.60479 0.91371 0.0
C366 C 0.7033 0.59545 0.92345 0.0
C367 C 0.68906 0.56709 0.93319 0.0
C368 C 0.8394 0.59352 0.92158 0.0
C369 C 0.85358 0.5818 0.90784 0.0
C370 C 0.84323 0.59507 0.94646 0.0
C371 C 0.86045 0.58463 0.95731 0.0
C372 C 0.87394 0.57232 0.94345 0.0
C373 C 0.87062 0.57122 0.91869 0.0
C374 C 0.70097 0.54775 0.93244 0.0
H375 H 0.85766 0.64721 0.80925 0.0
H376 H 0.84717 0.62606 0.84672 0.0
H377 H 0.78231 0.65347 0.85243 0.0
H378 H 0.79046 0.67058 0.8128 0.0
H379 H 0.84872 0.62796 0.88496 0.0
H380 H 0.76203 0.61396 0.87392 0.0
H381 H 0.78594 0.57945 0.93313 0.0
H382 H 0.73596 0.54165 0.92241 0.0
H383 H 0.74065 0.62723 0.90701 0.0
H384 H 0.69436 0.61064 0.92391 0.0
H385 H 0.85074 0.57988 0.88865 0.0
H386 H 0.83277 0.60416 0.95752 0.0
H387 H 0.69017 0.52573 0.9398 0.0
H388 H 0.88087 0.56171 0.90777 0.0
H389 H 0.86288 0.58566 0.97647 0.0
C390 C 0.35313 0.14867 0.82578 0.0
C391 C 0.36592 0.17002 0.80908 0.0
C392 C 0.36557 0.15571 0.8493 0.0
C393 C 0.39063 0.18441 0.85652 0.0
C394 C 0.40347 0.20559 0.8397 0.0
C395 C 0.39135 0.19836 0.81616 0.0
C396 C 0.40346 0.19267 0.88153 0.0
C397 C 0.41003 0.17282 0.89325 0.0
C398 C 0.4239 0.18158 0.91644 0.0
C399 C 0.43138 0.21063 0.92776 0.0
C400 C 0.42435 0.23068 0.91656 0.0
C401 C 0.40998 0.22105 0.89343 0.0
C402 C 0.43257 0.26178 0.92866 0.0
C403 C 0.43617 0.26736 0.95364 0.0
C404 C 0.43736 0.28647 0.91534 0.0
C405 C 0.44507 0.31542 0.92654 0.0
C406 C 0.4496 0.32104 0.95135 0.0
C407 C 0.43113 0.16067 0.92875 0.0
C408 C 0.44364 0.14551 0.91684 0.0
C409 C 0.42563 0.15579 0.95255 0.0
C410 C 0.43237 0.13605 0.96414 0.0
C411 C 0.44497 0.12112 0.9522 0.0
C412 C 0.45056 0.12597 0.9285 0.0
C413 C 0.44521 0.29678 0.9648 0.0
H414 H 0.33342 0.12675 0.82062 0.0
H415 H 0.35526 0.13906 0.86197 0.0
H416 H 0.42298 0.22773 0.84478 0.0
H417 H 0.40151 0.21509 0.80351 0.0
H418 H 0.40461 0.15069 0.8842 0.0
H419 H 0.40344 0.23533 0.88448 0.0
H420 H 0.44349 0.21776 0.94508 0.0
H421 H 0.432 0.24912 0.96478 0.0
H422 H 0.43582 0.28395 0.89618 0.0
H423 H 0.44842 0.33383 0.91577 0.0
H424 H 0.4484 0.14907 0.89861 0.0
H425 H 0.41576 0.16693 0.96209 0.0
H426 H 0.4486 0.30057 0.98398 0.0
H427 H 0.46027 0.11459 0.91904 0.0
H428 H 0.42776 0.13238 0.9824 0.0
C429 C 0.79454 0.1594 0.81398 0.0
C430 C 0.82287 0.16548 0.8114 0.0
C431 C 0.78698 0.16516 0.8362 0.0
C432 C 0.80773 0.17733 0.85612 0.0
C433 C 0.83571 0.18209 0.85355 0.0
C434 C 0.84319 0.17621 0.83142 0.0
C435 C 0.80096 0.18686 0.87915 0.0
C436 C 0.77455 0.1678 0.88856 0.0
C437 C 0.76838 0.17701 0.9104 0.0
C438 C 0.78889 0.20583 0.92253 0.0
C439 C 0.81541 0.2251 0.91352 0.0
C440 C 0.82118 0.21545 0.89177 0.0
C441 C 0.83734 0.25473 0.92741 0.0
C442 C 0.82884 0.27362 0.93955 0.0
C443 C 0.86697 0.26417 0.92897 0.0
C444 C 0.88724 0.29063 0.94356 0.0
C445 C 0.87851 0.30772 0.95831 0.0
C446 C 0.74079 0.15678 0.9209 0.0
C447 C 0.71423 0.13956 0.90655 0.0
C448 C 0.74068 0.15551 0.94564 0.0
C449 C 0.71467 0.13864 0.95583 0.0
C450 C 0.68827 0.12214 0.94152 0.0
C451 C 0.68821 0.12224 0.91678 0.0
C452 C 0.84913 0.29999 0.95423 0.0
H453 H 0.77866 0.15133 0.79866 0.0
H454 H 0.76531 0.16141 0.83758 0.0
H455 H 0.85204 0.19098 0.86861 0.0
H456 H 0.86517 0.18109 0.82972 0.0
H457 H 0.75921 0.14546 0.87918 0.0
H458 H 0.84126 0.23054 0.88436 0.0
H459 H 0.78433 0.21326 0.93925 0.0
H460 H 0.80642 0.26816 0.93757 0.0
H461 H 0.8746 0.25088 0.91917 0.0
H462 H 0.9097 0.29736 0.94259 0.0
H463 H 0.71341 0.14016 0.8875 0.0
H464 H 0.76071 0.16773 0.95724 0.0
H465 H 0.84136 0.31434 0.96199 0.0
H466 H 0.66794 0.10958 0.90549 0.0
H467 H 0.71511 0.13857 0.97494 0.0
C468 C 0.61639 0.83595 0.2009 0.0
C469 C 0.63991 0.83125 0.20566 0.0
C470 C 0.60425 0.83194 0.17753 0.0
C471 C 0.61521 0.82275 0.15867 0.0
C472 C 0.63947 0.81927 0.16348 0.0
C473 C 0.65178 0.82363 0.18674 0.0
C474 C 0.60025 0.81452 0.1343 0.0
C475 C 0.59303 0.83454 0.12341 0.0
C476 C 0.5789 0.82641 0.10025 0.0
C477 C 0.57198 0.79796 0.08814 0.0
C478 C 0.57863 0.77756 0.09889 0.0
C479 C 0.59283 0.78604 0.12193 0.0
C480 C 0.57051 0.7473 0.08606 0.0
C481 C 0.55683 0.72008 0.09744 0.0
C482 C 0.57617 0.74541 0.06228 0.0
C483 C 0.56861 0.71691 0.05021 0.0
C484 C 0.55501 0.68987 0.06167 0.0
C485 C 0.57108 0.84727 0.08848 0.0
C486 C 0.59088 0.87924 0.08972 0.0
C487 C 0.54387 0.83507 0.07531 0.0
C488 C 0.53667 0.8543 0.06354 0.0
C489 C 0.5565 0.88609 0.06475 0.0
C490 C 0.58364 0.89851 0.0779 0.0
C491 C 0.54904 0.69156 0.08529 0.0
H492 H 0.60684 0.84163 0.21533 0.0
H493 H 0.58548 0.8346 0.17431 0.0
H494 H 0.64849 0.81247 0.14926 0.0
H495 H 0.66987 0.81984 0.1901 0.0
H496 H 0.59839 0.85636 0.13298 0.0
H497 H 0.59811 0.77037 0.1303 0.0
H498 H 0.56119 0.79154 0.07028 0.0
H499 H 0.55193 0.72083 0.11566 0.0
H500 H 0.58689 0.76604 0.05314 0.0
H501 H 0.57354 0.71594 0.03202 0.0
H502 H 0.61209 0.88927 0.09952 0.0
H503 H 0.52797 0.81063 0.07429 0.0
H504 H 0.53866 0.67084 0.09437 0.0
H505 H 0.5991 0.92309 0.0791 0.0
H506 H 0.5155 0.84446 0.05369 0.0
C507 C 0.19521 0.8513 0.18836 0.0
C508 C 0.19123 0.83166 0.2062 0.0
C509 C 0.20142 0.84462 0.16579 0.0
C510 C 0.20315 0.81791 0.16068 0.0
C511 C 0.20003 0.79884 0.17874 0.0
C512 C 0.19443 0.80582 0.20136 0.0
C513 C 0.20607 0.80842 0.13624 0.0
C514 C 0.23117 0.82649 0.12501 0.0
C515 C 0.23454 0.816 0.10251 0.0
C516 C 0.21228 0.78734 0.09132 0.0
C517 C 0.18635 0.7694 0.10182 0.0
C518 C 0.18366 0.78045 0.12442 0.0
C519 C 0.16249 0.73917 0.08938 0.0
C520 C 0.15911 0.73344 0.06439 0.0
C521 C 0.14306 0.71538 0.10233 0.0
C522 C 0.12129 0.68705 0.09078 0.0
C523 C 0.11909 0.68105 0.06605 0.0
C524 C 0.26093 0.83479 0.09019 0.0
C525 C 0.2725 0.86666 0.08954 0.0
C526 C 0.2743 0.82072 0.07829 0.0
C527 C 0.29687 0.83745 0.06435 0.0
C528 C 0.30582 0.86846 0.06054 0.0
C529 C 0.29509 0.88335 0.07551 0.0
C530 C 0.13814 0.70458 0.05296 0.0
H531 H 0.19268 0.87126 0.19171 0.0
H532 H 0.20364 0.85955 0.15207 0.0
H533 H 0.20137 0.77816 0.17517 0.0
H534 H 0.19147 0.79041 0.21487 0.0
H535 H 0.24838 0.84815 0.13412 0.0
H536 H 0.16398 0.76769 0.13299 0.0
H537 H 0.21537 0.77919 0.07426 0.0
H538 H 0.17263 0.75111 0.05344 0.0
H539 H 0.1449 0.71804 0.1215 0.0
H540 H 0.10683 0.66926 0.1013 0.0
H541 H 0.26368 0.87866 0.09946 0.0
H542 H 0.2673 0.79662 0.07976 0.0
H543 H 0.13683 0.70057 0.03384 0.0
H544 H 0.30393 0.90801 0.07689 0.0
H545 H 0.30717 0.82556 0.05687 0.0
C546 C 0.20867 0.35573 0.19757 0.0
C547 C 0.17959 0.337 0.20206 0.0
C548 C 0.21548 0.36688 0.17544 0.0
C549 C 0.19335 0.3592 0.15717 0.0
C550 C 0.16431 0.33869 0.16133 0.0
C551 C 0.15749 0.3279 0.18363 0.0
C552 C 0.20042 0.37427 0.13461 0.0
C553 C 0.22664 0.3818 0.12489 0.0
C554 C 0.2343 0.39798 0.10465 0.0
C555 C 0.21517 0.40611 0.0938 0.0
C556 C 0.18894 0.39897 0.10314 0.0
C557 C 0.18177 0.38306 0.12354 0.0
C558 C 0.16962 0.40917 0.09204 0.0
C559 C 0.18152 0.43849 0.0836 0.0
C560 C 0.1392 0.38975 0.08974 0.0
C561 C 0.12118 0.3994 0.07918 0.0
C562 C 0.13326 0.42858 0.07067 0.0
C563 C 0.26285 0.4078 0.09534 0.0
C564 C 0.28854 0.42146 0.11084 0.0
C565 C 0.26481 0.40522 0.07076 0.0
C566 C 0.29185 0.41657 0.06188 0.0
C567 C 0.3174 0.43078 0.07737 0.0
C568 C 0.31562 0.43292 0.10192 0.0
C569 C 0.16352 0.44804 0.07295 0.0
H570 H 0.22601 0.36327 0.21168 0.0
H571 H 0.23802 0.38287 0.17319 0.0
H572 H 0.14672 0.33167 0.14757 0.0
H573 H 0.13492 0.3136 0.1868 0.0
H574 H 0.24116 0.37498 0.13296 0.0
H575 H 0.16219 0.37877 0.13138 0.0
H576 H 0.221 0.41859 0.0782 0.0
H577 H 0.20478 0.45429 0.08546 0.0
H578 H 0.12933 0.36694 0.09584 0.0
H579 H 0.09783 0.38411 0.07757 0.0
H580 H 0.28777 0.4241 0.12983 0.0
H581 H 0.24541 0.39455 0.05839 0.0
H582 H 0.17318 0.47071 0.0666 0.0
H583 H 0.33519 0.44379 0.1141 0.0
H584 H 0.29289 0.41459 0.04288 0.0
C585 C 0.49003 0.9648 0.13736 0.0
C586 C 0.48572 0.99001 0.13558 0.0
C587 C 0.48431 0.94953 0.1579 0.0
C588 C 0.47405 0.95913 0.17702 0.0
C589 C 0.46986 0.98451 0.17521 0.0
C590 C 0.47582 0.99994 0.1547 0.0
C591 C 0.46732 0.94244 0.19866 0.0
C592 C 0.48645 0.93383 0.20897 0.0
C593 C 0.48018 0.91827 0.22955 0.0
C594 C 0.45424 0.91092 0.23954 0.0
C595 C 0.43474 0.91903 0.22935 0.0
C596 C 0.44154 0.93494 0.20899 0.0
C597 C 0.40734 0.91093 0.24009 0.0
C598 C 0.39069 0.88175 0.24835 0.0
C599 C 0.39788 0.93247 0.24254 0.0
C600 C 0.3726 0.92515 0.25334 0.0
C601 C 0.35637 0.8962 0.26184 0.0
C602 C 0.50066 0.90983 0.2409 0.0
C603 C 0.51339 0.89633 0.2272 0.0
C604 C 0.50704 0.91455 0.26571 0.0
C605 C 0.5254 0.90562 0.27659 0.0
C606 C 0.53764 0.89173 0.2629 0.0
C607 C 0.53168 0.88725 0.23814 0.0
C608 C 0.36542 0.87447 0.25914 0.0
H609 H 0.49779 0.95692 0.12278 0.0
H610 H 0.4875 0.92991 0.15868 0.0
H611 H 0.46229 0.99265 0.18976 0.0
H612 H 0.47268 0.01957 0.15371 0.0
H613 H 0.50663 0.94001 0.20136 0.0
H614 H 0.42635 0.94078 0.20078 0.0
H615 H 0.44923 0.89885 0.25536 0.0
H616 H 0.39716 0.86451 0.24642 0.0
H617 H 0.41037 0.95522 0.23657 0.0
H618 H 0.36587 0.94218 0.25537 0.0
H619 H 0.50871 0.89219 0.2081 0.0
H620 H 0.4979 0.92527 0.27672 0.0
H621 H 0.35306 0.85199 0.26559 0.0
H622 H 0.54103 0.87657 0.22735 0.0
H623 H 0.52993 0.90936 0.29572 0.0
C624 C 0.01632 0.4841 0.16036 0.0
C625 C 0.02854 0.50499 0.14325 0.0
C626 C 0.02957 0.49158 0.18366 0.0
C627 C 0.05486 0.5203 0.19025 0.0
C628 C 0.06716 0.54097 0.17302 0.0
C629 C 0.05425 0.53329 0.1497 0.0
C630 C 0.06839 0.52932 0.21508 0.0
C631 C 0.07588 0.51022 0.22696 0.0
C632 C 0.09116 0.52027 0.24966 0.0
C633 C 0.09878 0.54963 0.2604 0.0
C634 C 0.09047 0.56869 0.24919 0.0
C635 C 0.075 0.55796 0.22651 0.0
C636 C 0.09849 0.5999 0.26084 0.0
C637 C 0.1029 0.60623 0.28577 0.0
C638 C 0.10233 0.62396 0.24714 0.0
C639 C 0.11009 0.65311 0.25794 0.0
C640 C 0.11561 0.65954 0.28268 0.0
C641 C 0.09962 0.50036 0.26211 0.0
C642 C 0.0794 0.46887 0.263 0.0
C643 C 0.12788 0.51277 0.2734 0.0
C644 C 0.13583 0.49399 0.28509 0.0
C645 C 0.11559 0.46258 0.28585 0.0
C646 C 0.08729 0.45017 0.27485 0.0
C647 C 0.11199 0.63585 0.2965 0.0
H648 H 0.99643 0.46219 0.1557 0.0
H649 H 0.01968 0.47531 0.19666 0.0
H650 H 0.08681 0.56313 0.17761 0.0
H651 H 0.06401 0.54967 0.13675 0.0
H652 H 0.07082 0.48809 0.21816 0.0
H653 H 0.0677 0.57164 0.21754 0.0
H654 H 0.1113 0.55746 0.27755 0.0
H655 H 0.0994 0.58844 0.2972 0.0
H656 H 0.10006 0.62079 0.22797 0.0
H657 H 0.11282 0.67108 0.2469 0.0
H658 H 0.05742 0.45876 0.25468 0.0
H659 H 0.14401 0.53688 0.2728 0.0
H660 H 0.11612 0.64027 0.31564 0.0
H661 H 0.07146 0.42589 0.27517 0.0
H662 H 0.15784 0.50383 0.29328 0.0
C663 C 0.45757 0.50434 0.14414 0.0
C664 C 0.4827 0.50273 0.14093 0.0
C665 C 0.45033 0.50779 0.16705 0.0
C666 C 0.46845 0.51028 0.18698 0.0
C667 C 0.49291 0.50739 0.18367 0.0
C668 C 0.49982 0.50335 0.16083 0.0
C669 C 0.46367 0.51894 0.21104 0.0
C670 C 0.43714 0.5011 0.22065 0.0
C671 C 0.43323 0.50964 0.24364 0.0
C672 C 0.45559 0.53671 0.2565 0.0
C673 C 0.48173 0.55538 0.24679 0.0
C674 C 0.48583 0.54597 0.22423 0.0
C675 C 0.50393 0.58545 0.25975 0.0
C676 C 0.49529 0.60482 0.27113 0.0
C677 C 0.53375 0.59543 0.26039 0.0
C678 C 0.55446 0.62433 0.27193 0.0
C679 C 0.54562 0.64361 0.28294 0.0
C680 C 0.4058 0.49099 0.25448 0.0
C681 C 0.3789 0.48303 0.2425 0.0
C682 C 0.40667 0.483 0.27772 0.0
C683 C 0.38119 0.4677 0.28889 0.0
C684 C 0.35443 0.46047 0.27714 0.0
C685 C 0.35341 0.46806 0.25382 0.0
C686 C 0.51596 0.63362 0.28262 0.0
H687 H 0.44425 0.50411 0.12895 0.0
H688 H 0.43148 0.51016 0.16919 0.0
H689 H 0.50715 0.50921 0.19879 0.0
H690 H 0.51937 0.50234 0.15866 0.0
H691 H 0.41993 0.48031 0.21053 0.0
H692 H 0.50583 0.56036 0.21642 0.0
H693 H 0.45238 0.54354 0.27405 0.0
H694 H 0.47256 0.59808 0.27064 0.0
H695 H 0.54105 0.58093 0.25195 0.0
H696 H 0.57735 0.63187 0.27197 0.0
H697 H 0.37773 0.48922 0.22468 0.0
H698 H 0.42714 0.48878 0.28729 0.0
H699 H 0.50886 0.64843 0.29086 0.0
H700 H 0.33289 0.4625 0.24446 0.0
H701 H 0.38234 0.46176 0.3068 0.0
Tb702 Tb 0.52967 0.02563 1.00248 0.0
C703 C 0.51672 0.96028 0.01937 0.0
Tb704 Tb 0.46695 0.97381 0.00642 0.0
O705 O 0.5295 0.05256 0.03415 0.0
O706 O 0.50402 0.00446 0.03007 0.0
O707 O 0.53499 0.9858 0.00977 0.0
C708 C 0.41336 0.93916 0.01948 0.0
O709 O 0.48947 0.95245 0.02217 0.0
C710 C 0.48861 0.97287 0.96578 0.0
C711 C 0.47922 0.03975 0.99243 0.0
O712 O 0.43542 0.96095 0.03292 0.0
O713 O 0.42141 0.9369 0.99864 0.0
O714 O 0.46874 0.94821 0.97411 0.0
O715 O 0.49279 0.99585 0.9791 0.0
O716 O 0.46061 0.01283 1.00001 0.0
O717 O 0.50697 0.04889 0.99045 0.0
C718 C 0.58094 0.0581 0.98541 0.0
O719 O 0.55597 0.04385 0.97294 0.0
O720 O 0.57729 0.05441 0.00767 0.0
C721 C 0.50944 0.02843 0.04299 0.0
Tb722 Tb 0.97354 0.50059 1.00322 0.0
C723 C 0.0382 0.55722 0.02077 0.0
Tb724 Tb 0.02445 0.48887 0.0094 0.0
O725 O 0.95751 0.48219 0.03675 0.0
O726 O 1.00123 0.50201 0.03165 0.0
O727 O 0.01045 0.54784 0.01396 0.0
C728 C 0.05973 0.47033 0.02755 0.0
O729 O 0.04844 0.53797 0.02086 0.0
C730 C 0.01412 0.50213 0.9671 0.0
C731 C 0.96037 0.43218 0.99578 0.0
O732 O 0.04293 0.4767 0.03929 0.0
O733 O 0.05684 0.47453 0.00541 0.0
O734 O 0.03969 0.50807 0.97571 0.0
O735 O 0.99597 0.48658 0.98106 0.0
O736 O 0.98671 0.44199 0.00639 0.0
O737 O 0.95184 0.45174 0.98945 0.0
C738 C 0.94099 0.52205 0.98475 0.0
O739 O 0.9341 0.50391 1.00163 0.0
O740 O 0.96603 0.52791 0.97822 0.0
C741 C 0.98258 0.48668 0.04541 0.0
Tb742 Tb 0.47429 0.49709 0.01329 0.0
C743 C 0.48833 0.44587 0.99323 0.0
Tb744 Tb 0.53827 0.51661 1.00387 0.0
O745 O 0.45952 0.48924 0.97534 0.0
O746 O 0.50289 0.51845 0.98758 0.0
O747 O 0.46847 0.45211 1.00086 0.0
C748 C 0.58539 0.53022 0.98158 0.0
O749 O 0.51632 0.46702 0.99361 0.0
C750 C 0.52552 0.50933 0.04801 0.0
C751 C 0.52457 0.56778 0.02113 0.0
O752 O 0.55997 0.52226 0.97145 0.0
O753 O 0.58425 0.53014 1.0044 0.0
O754 O 0.5518 0.52686 0.04226 0.0
O755 O 0.50928 0.49456 0.02937 0.0
O756 O 0.54069 0.56124 0.00761 0.0
O757 O 0.49953 0.54589 0.02794 0.0
C758 C 0.42671 0.47951 0.03569 0.0
O759 O 0.44636 0.47209 0.04037 0.0
O760 O 0.43399 0.49729 0.01854 0.0
C761 C 0.48584 0.50448 0.96909 0.0
Tb762 Tb 0.19739 0.36437 0.34195 0.0
C763 C 0.18209 0.29986 0.35948 0.0
Tb764 Tb 0.1326 0.31428 0.34161 0.0
O765 O 0.20628 0.37248 0.38042 0.0
O766 O 0.16388 0.35378 0.36479 0.0
O767 O 0.20258 0.32647 0.353 0.0
C768 C 0.07916 0.27923 0.35548 0.0
O769 O 0.15405 0.29101 0.35744 0.0
C770 C 0.15231 0.32039 0.29948 0.0
C771 C 0.14792 0.38005 0.32712 0.0
O772 O 0.09578 0.269 0.34813 0.0
O773 O 0.09241 0.30877 0.35434 0.0
O774 O 0.12486 0.30648 0.30271 0.0
O775 O 0.16633 0.32489 0.31937 0.0
O776 O 0.12751 0.35313 0.33309 0.0
O777 O 0.17591 0.3889 0.3287 0.0
C778 C 0.2492 0.39648 0.32474 0.0
O779 O 0.23554 0.40851 0.33527 0.0
O780 O 0.23387 0.36674 0.32453 0.0
C781 C 0.17897 0.35872 0.38441 0.0
Tb782 Tb 0.64484 0.83885 0.33687 0.0
C783 C 0.70836 0.89019 0.35798 0.0
Tb784 Tb 0.69219 0.81998 0.34543 0.0
O785 O 0.64244 0.84726 0.37466 0.0
O786 O 0.6571 0.81787 0.36251 0.0
O787 O 0.68207 0.88406 0.34949 0.0
C788 C 0.72908 0.80678 0.36791 0.0
O789 O 0.71639 0.86905 0.35791 0.0
C790 C 0.68209 0.82777 0.30156 0.0
C791 C 0.62837 0.76841 0.32487 0.0
O792 O 0.73369 0.82097 0.34883 0.0
O793 O 0.70366 0.79978 0.37419 0.0
O794 O 0.69477 0.81239 0.30748 0.0
O795 O 0.68023 0.84146 0.32025 0.0
O796 O 0.65484 0.77466 0.33299 0.0
O797 O 0.62023 0.78949 0.32515 0.0
C798 C 0.61059 0.85438 0.31292 0.0
O799 O 0.60416 0.8395 0.33171 0.0
O800 O 0.63612 0.86039 0.30767 0.0
C801 C 0.65539 0.83225 0.38095 0.0
Tb802 Tb 0.14509 0.83805 0.34387 0.0
C803 C 0.1567 0.78537 0.32328 0.0
Tb804 Tb 0.20832 0.85556 0.33339 0.0
O805 O 0.12923 0.82983 0.30615 0.0
O806 O 0.17305 0.85803 0.31751 0.0
O807 O 0.13761 0.79235 0.33163 0.0
C808 C 0.25466 0.86683 0.31084 0.0
O809 O 0.18471 0.80601 0.32283 0.0
C810 C 0.19659 0.84966 0.37778 0.0
C811 C 0.19702 0.90834 0.35105 0.0
O812 O 0.25228 0.86263 0.33317 0.0
O813 O 0.23098 0.86453 0.30133 0.0
O814 O 0.22273 0.86679 0.3716 0.0
O815 O 0.17985 0.8347 0.35941 0.0
O816 O 0.21289 0.90112 0.33776 0.0
O817 O 0.17154 0.88708 0.35768 0.0
C818 C 0.09938 0.82329 0.3682 0.0
O819 O 0.11825 0.81456 0.37195 0.0
O820 O 0.10624 0.84055 0.35073 0.0
C821 C 0.15534 0.84408 0.29933 0.0
Tb822 Tb 0.86701 0.69026 0.66738 0.0
C823 C 0.85915 0.62503 0.67811 0.0
Tb824 Tb 0.80588 0.6365 0.67468 0.0
O825 O 0.87194 0.71188 0.70386 0.0
O826 O 0.84548 0.66496 0.69532 0.0
O827 O 0.87517 0.65161 0.66897 0.0
C828 C 0.75732 0.60345 0.69539 0.0
O829 O 0.83233 0.61588 0.68393 0.0
C830 C 0.82123 0.6386 0.63145 0.0
C831 C 0.81418 0.70164 0.66189 0.0
O832 O 0.77925 0.62987 0.70416 0.0
O833 O 0.76259 0.59555 0.67482 0.0
O834 O 0.80149 0.6133 0.6392 0.0
O835 O 0.82751 0.66096 0.64647 0.0
O836 O 0.79807 0.67555 0.67173 0.0
O837 O 0.84074 0.71006 0.65603 0.0
C838 C 0.91623 0.72426 0.6478 0.0
O839 O 0.90862 0.73333 0.66665 0.0
O840 O 0.89634 0.69624 0.64024 0.0
C841 C 0.85243 0.68632 0.71143 0.0
Tb842 Tb 0.31463 0.16932 0.66911 0.0
C843 C 0.37851 0.22572 0.68841 0.0
Tb844 Tb 0.36577 0.15785 0.67513 0.0
O845 O 0.29775 0.14911 0.70186 0.0
O846 O 0.34174 0.16965 0.6975 0.0
O847 O 0.35089 0.21638 0.68124 0.0
C848 C 0.40131 0.13999 0.69381 0.0
O849 O 0.3889 0.20657 0.68811 0.0
C850 C 0.35662 0.17359 0.63352 0.0
C851 C 0.30225 0.10122 0.65883 0.0
O852 O 0.40089 0.14736 0.67227 0.0
O853 O 0.38175 0.14258 0.70457 0.0
O854 O 0.38194 0.17884 0.64217 0.0
O855 O 0.33808 0.15697 0.64682 0.0
O856 O 0.32861 0.11042 0.66918 0.0
O857 O 0.29332 0.121 0.65425 0.0
C858 C 0.28211 0.19095 0.65093 0.0
O859 O 0.27514 0.17253 0.66763 0.0
O860 O 0.30722 0.19702 0.64444 0.0
C861 C 0.32272 0.15353 0.71073 0.0
Tb862 Tb 0.81407 0.16274 0.68123 0.0
C863 C 0.82478 0.10709 0.66379 0.0
Tb864 Tb 0.87629 0.17607 0.67499 0.0
O865 O 0.81091 0.18065 0.64755 0.0
O866 O 0.83784 0.16234 0.65304 0.0
O867 O 0.80621 0.11591 0.67051 0.0
C868 C 0.9269 0.19625 0.65647 0.0
O869 O 0.85309 0.12681 0.66364 0.0
C870 C 0.85803 0.1624 0.71714 0.0
C871 C 0.86574 0.23167 0.68959 0.0
O872 O 0.90277 0.19057 0.64512 0.0
O873 O 0.92267 0.19041 0.67837 0.0
O874 O 0.878 0.15768 0.70905 0.0
O875 O 0.85258 0.17744 0.70296 0.0
O876 O 0.88225 0.22275 0.67889 0.0
O877 O 0.83935 0.21147 0.69521 0.0
C878 C 0.76435 0.14158 0.70117 0.0
O879 O 0.77165 0.15905 0.68383 0.0
O880 O 0.78493 0.13595 0.70714 0.0
C881 C 0.83161 0.17734 0.63927 0.0
C882 C 0.33964 0.87075 0.02899 0.0
C883 C 0.3283 0.88566 0.04323 0.0
C884 C 0.36846 0.9357 0.03466 0.0
C885 C 0.38341 0.9207 0.02644 0.0
N886 N 0.38269 0.87292 0.01566 0.0
N887 N 0.32103 0.92883 0.03957 0.0
C888 C 0.36874 0.88792 0.02324 0.0
C889 C 0.33951 0.9175 0.04072 0.0
N890 N 0.32146 0.84187 0.01785 0.0
N891 N 0.38146 0.96716 0.03628 0.0
H892 H 0.29856 0.91421 0.03894 0.0
H893 H 0.32731 0.95119 0.0356 0.0
H894 H 0.40148 0.9813 0.02998 0.0
H895 H 0.37271 0.97914 0.04485 0.0
H896 H 0.32814 0.83101 0.00554 0.0
H897 H 0.29898 0.831 0.01844 0.0
H898 H 0.37344 0.84902 0.01535 0.0
H899 H 0.40425 0.88442 0.01169 0.0
C900 C 0.09938 0.42566 0.03669 0.0
C901 C 0.11424 0.43904 0.05954 0.0
C902 C 0.09645 0.47553 0.05975 0.0
C903 C 0.07905 0.45997 0.03809 0.0
N904 N 0.05932 0.41591 0.00854 0.0
N905 N 0.12244 0.47264 0.09489 0.0
C906 C 0.07928 0.43389 0.02717 0.0
C907 C 0.11144 0.46279 0.0717 0.0
N908 N 0.10499 0.40567 0.02379 0.0
N909 N 0.09985 0.50329 0.06839 0.0
H910 H 0.13346 0.46375 0.10431 0.0
H911 H 0.11826 0.48745 0.10539 0.0
H912 H 0.09047 0.51432 0.05966 0.0
H913 H 0.11451 0.51703 0.08286 0.0
H914 H 0.09717 0.39785 0.00604 0.0
H915 H 0.11956 0.39905 0.03013 0.0
H916 H 0.0566 0.39485 1.00158 0.0
H917 H 0.04341 0.42026 1.00157 0.0
C918 C 0.56867 0.64981 0.05211 0.0
C919 C 0.54826 0.65982 0.04928 0.0
C920 C 0.51407 0.61131 0.02506 0.0
C921 C 0.53418 0.60078 0.02852 0.0
N922 N 0.58374 0.61345 0.04015 0.0
N923 N 0.50356 0.65309 0.03083 0.0
C924 C 0.56249 0.62111 0.04028 0.0
C925 C 0.52152 0.64142 0.03503 0.0
N926 N 0.59358 0.66723 0.06701 0.0
N927 N 0.488 0.59256 0.0119 0.0
H928 H 0.50812 0.6747 0.03836 0.0
H929 H 0.48483 0.64237 0.0191 0.0
H930 H 0.48343 0.57241 1.00166 0.0
H931 H 0.4707 0.5966 0.01101 0.0
H932 H 0.60731 0.65926 0.07268 0.0
H933 H 0.59969 0.68907 0.07517 0.0
H934 H 0.6056 0.62925 0.04523 0.0
H935 H 0.58043 0.59203 0.03371 0.0
C936 C 0.93034 0.34644 0.97689 0.0
C937 C 0.90017 0.3354 0.97553 0.0
C938 C 0.91091 0.38461 0.99664 0.0
C939 C 0.9401 0.39823 0.99054 0.0
N940 N 0.97758 0.39021 0.97447 0.0
N941 N 0.86697 0.33676 1.00177 0.0
C942 C 0.95 0.37864 0.98085 0.0
C943 C 0.89147 0.35236 0.99046 0.0
N944 N 0.9403 0.32631 0.97852 0.0
N945 N 0.90177 0.40211 0.00861 0.0
H946 H 0.85525 0.31262 1.00045 0.0
H947 H 0.86061 0.3472 0.01466 0.0
H948 H 0.9159 0.42458 0.01628 0.0
H949 H 0.87994 0.3944 0.01047 0.0
H950 H 0.96232 0.33357 0.98174 0.0
H951 H 0.92618 0.30293 0.98022 0.0
H952 H 0.98407 0.37629 0.96543 0.0
H953 H 0.9932 0.41357 0.97617 0.0
C954 C 0.66427 0.57353 0.96761 0.0
C955 C 0.66231 0.55814 0.94521 0.0
C956 C 0.61044 0.52251 0.94769 0.0
C957 C 0.61184 0.53978 0.96903 0.0
N958 N 0.63879 0.58674 0.99566 0.0
N959 N 0.63262 0.52207 0.91161 0.0
C960 C 0.6384 0.56668 0.97805 0.0
C961 C 0.63508 0.53386 0.93452 0.0
N962 N 0.69085 0.59415 0.97926 0.0
N963 N 0.58619 0.49451 0.94056 0.0
H964 H 0.65025 0.52979 0.90146 0.0
H965 H 0.61272 0.50675 0.90203 0.0
H966 H 0.56821 0.48449 0.95027 0.0
H967 H 0.58505 0.47969 0.92636 0.0
H968 H 0.69352 0.60343 0.99676 0.0
H969 H 0.7104 0.59984 0.97228 0.0
H970 H 0.6571 0.60818 1.00117 0.0
H971 H 0.62014 0.5838 1.0029 0.0
C972 C 0.43547 0.06769 0.9572 0.0
C973 C 0.45198 0.09988 0.96428 0.0
C974 C 0.48185 0.09109 0.99357 0.0
C975 C 0.46817 0.05971 0.98402 0.0
N976 N 0.4348 0.01914 0.95397 0.0
N977 N 0.49331 0.14311 0.98718 0.0
C978 C 0.44554 0.04814 0.96521 0.0
C979 C 0.47578 0.11186 0.98203 0.0
N980 N 0.4099 0.05572 0.94308 0.0
N981 N 0.49999 0.10082 0.01408 0.0
H982 H 0.48966 0.15912 0.97909 0.0
H983 H 0.51281 0.15318 0.99803 0.0
H984 H 0.5042 0.08596 0.02335 0.0
H985 H 0.50842 0.12269 0.02314 0.0
H986 H 0.39546 0.03206 0.93937 0.0
H987 H 0.40176 0.06935 0.93695 0.0
H988 H 0.42075 0.01096 0.93844 0.0
H989 H 0.44193 0.00419 0.95879 0.0
C990 C 0.64319 0.11934 0.9554 0.0
C991 C 0.6606 0.1055 0.95269 0.0
C992 C 0.6258 0.06057 0.97181 0.0
C993 C 0.6091 0.07503 0.97535 0.0
N994 N 0.60286 0.11913 0.97351 0.0
N995 N 0.67048 0.06463 0.95981 0.0
C996 C 0.61801 0.10466 0.96789 0.0
C997 C 0.65247 0.07657 0.96137 0.0
N998 N 0.65065 0.14641 0.94583 0.0
N999 N 0.61557 0.03108 0.97771 0.0
H1000 H 0.68926 0.07469 0.951 0.0
H1001 H 0.66778 0.04563 0.9682 0.0
H1002 H 0.59667 0.01911 0.98614 0.0
H1003 H 0.62468 0.01764 0.97311 0.0
H1004 H 0.63729 0.15593 0.94462 0.0
H1005 H 0.66977 0.1588 0.93777 0.0
H1006 H 0.60965 0.142 0.97088 0.0
H1007 H 0.58424 0.10893 0.98253 0.0
C1008 C 0.87721 0.5275 0.9572 0.0
C1009 C 0.89091 0.55963 0.95479 0.0
C1010 C 0.93639 0.56746 0.97459 0.0
C1011 C 0.92351 0.53495 0.97487 0.0
N1012 N 0.8832 0.48352 0.96302 0.0
N1013 N 0.93424 0.60988 0.95822 0.0
C1014 C 0.89426 0.51479 0.96539 0.0
C1015 C 0.92073 0.57954 0.96263 0.0
N1016 N 0.84781 0.5092 0.95196 0.0
N1017 N 0.96304 0.58688 0.98669 0.0
H1018 H 0.92328 0.61974 0.9501 0.0
H1019 H 0.95665 0.6247 0.96097 0.0
H1020 H 0.97488 0.57903 0.99624 0.0
H1021 H 0.97225 0.61078 0.98918 0.0
H1022 H 0.83607 0.48636 0.95589 0.0
H1023 H 0.8347 0.51753 0.9454 0.0
H1024 H 0.86315 0.46783 0.95384 0.0
H1025 H 0.89511 0.47325 0.96834 0.0
C1026 C 0.48557 0.37817 0.95636 0.0
C1027 C 0.45998 0.35272 0.96302 0.0
C1028 C 0.45637 0.38774 0.99281 0.0
C1029 C 0.47879 0.41369 0.98315 0.0
N1030 N 0.50872 0.43201 0.95033 0.0
N1031 N 0.41717 0.33488 0.9842 0.0
C1032 C 0.4918 0.40855 0.96341 0.0
C1033 C 0.44419 0.35791 0.98028 0.0
N1034 N 0.50441 0.37354 0.94379 0.0
N1035 N 0.44753 0.39103 0.01438 0.0
H1036 H 0.40682 0.31309 0.97466 0.0
H1037 H 0.40387 0.3386 0.9951 0.0
H1038 H 0.45743 0.41185 0.02521 0.0
H1039 H 0.43287 0.37222 0.02279 0.0
H1040 H 0.52456 0.39165 0.94033 0.0
H1041 H 0.50146 0.35164 0.93927 0.0
H1042 H 0.51629 0.42827 0.93462 0.0
H1043 H 0.51213 0.45429 0.95317 0.0
C1044 C 0.07668 0.64522 0.03568 0.0
C1045 C 0.09788 0.64954 0.05414 0.0
C1046 C 0.0753 0.5935 0.0536 0.0
C1047 C 0.05756 0.5892 0.03248 0.0
N1048 N 0.04494 0.61239 1.00125 0.0
N1049 N 0.12159 0.627 0.076 0.0
C1050 C 0.05914 0.61545 0.02288 0.0
C1051 C 0.09848 0.62345 0.06171 0.0
N1052 N 0.07244 0.6691 0.03092 0.0
N1053 N 0.06924 0.56941 0.06677 0.0
H1054 H 0.13999 0.64849 0.08129 0.0
H1055 H 0.12382 0.60832 0.08025 0.0
H1056 H 0.05084 0.54756 0.06287 0.0
H1057 H 0.08036 0.57232 0.08327 0.0
H1058 H 0.0554 0.66632 0.0192 0.0
H1059 H 0.084 0.69086 0.04049 0.0
H1060 H 0.04779 0.63126 0.99254 0.0
H1061 H 0.03252 0.59128 0.99097 0.0
C1062 C 0.36293 0.47576 0.06553 0.0
C1063 C 0.34608 0.44359 0.06771 0.0
C1064 C 0.38102 0.43483 0.04735 0.0
C1065 C 0.39907 0.46727 0.04685 0.0
N1066 N 0.40999 0.51904 0.05939 0.0
N1067 N 0.3414 0.39319 0.06479 0.0
C1068 C 0.39079 0.4879 0.05699 0.0
C1069 C 0.35588 0.42334 0.05989 0.0
N1070 N 0.35197 0.49457 0.07103 0.0
N1071 N 0.38692 0.41485 0.03474 0.0
H1072 H 0.32268 0.38387 0.07371 0.0
H1073 H 0.34931 0.37819 0.06191 0.0
H1074 H 0.40443 0.42211 0.02452 0.0
H1075 H 0.37285 0.39102 0.03242 0.0
H1076 H 0.36172 0.5175 0.06725 0.0
H1077 H 0.33189 0.48664 0.07773 0.0
H1078 H 0.4064 0.53501 0.06892 0.0
H1079 H 0.43078 0.5288 0.05375 0.0
C1080 C 0.54783 0.90734 0.02817 0.0
C1081 C 0.548 0.90648 0.05313 0.0
C1082 C 0.53088 0.94346 0.05593 0.0
C1083 C 0.52817 0.94221 0.03077 0.0
N1084 N 0.52876 0.91859 0.99276 0.0
N1085 N 0.53564 0.91981 0.09056 0.0
C1086 C 0.53536 0.92308 0.01679 0.0
C1087 C 0.5385 0.92356 0.06699 0.0
N1088 N 0.55992 0.89345 0.01542 0.0
N1089 N 0.52674 0.9642 0.06934 0.0
H1090 H 0.54132 0.90573 0.09945 0.0
H1091 H 0.52549 0.92869 0.10096 0.0
H1092 H 0.52023 0.97845 0.06193 0.0
H1093 H 0.53192 0.96902 0.08763 0.0
H1094 H 0.56315 0.89593 0.99756 0.0
H1095 H 0.56899 0.8815 0.02319 0.0
H1096 H 0.53084 0.90259 0.98176 0.0
H1097 H 0.51842 0.92868 0.98408 0.0
C1098 C 0.00277 0.21638 0.3664 0.0
C1099 C 1.00256 0.22409 0.39085 0.0
C1100 C 0.05007 0.27084 0.39079 0.0
C1101 C 0.05209 0.26116 0.36715 0.0
N1102 N 0.03103 0.22333 0.33289 0.0
N1103 N 0.02871 0.25476 0.42757 0.0
C1104 C 0.0287 0.23336 0.35515 0.0
C1105 C 0.02695 0.25025 0.40338 0.0
N1106 N 0.97781 0.19374 0.35368 0.0
N1107 N 0.06982 0.29967 0.40141 0.0
H1108 H 0.01255 0.23982 0.4376 0.0
H1109 H 0.04747 0.27145 0.43789 0.0
H1110 H 0.08771 0.31589 0.39371 0.0
H1111 H 0.06701 0.30869 0.41741 0.0
H1112 H 0.97567 0.18923 0.33531 0.0
H1113 H 0.95832 0.18117 0.36122 0.0
H1114 H 0.01637 0.20141 0.32451 0.0
H1115 H 0.04845 0.23629 0.32316 0.0
C1116 C 0.78297 0.77951 0.38008 0.0
C1117 C 0.78967 0.78732 0.40494 0.0
C1118 C 0.75834 0.81004 0.40524 0.0
C1119 C 0.74979 0.79994 0.38071 0.0
N1120 N 0.74962 0.77004 0.3457 0.0
N1121 N 0.7808 0.80571 0.44201 0.0
C1122 C 0.761 0.7834 0.36832 0.0
C1123 C 0.77642 0.80127 0.41779 0.0
N1124 N 0.79792 0.76879 0.36764 0.0
N1125 N 0.75046 0.82933 0.41628 0.0
H1126 H 0.79459 0.8004 0.45174 0.0
H1127 H 0.76912 0.81241 0.45253 0.0
H1128 H 0.73786 0.83697 0.40762 0.0
H1129 H 0.75844 0.84001 0.43347 0.0
H1130 H 0.79646 0.76616 0.34918 0.0
H1131 H 0.81354 0.76471 0.3757 0.0
H1132 H 0.75467 0.75492 0.33668 0.0
H1133 H 0.73299 0.77165 0.33664 0.0
C1134 C 0.24259 0.99143 0.38046 0.0
C1135 C 0.22135 1.0005 0.37904 0.0
C1136 C 0.18729 0.95217 0.35477 0.0
C1137 C 0.20719 0.94147 0.35832 0.0
N1138 N 0.25659 0.95365 0.36967 0.0
N1139 N 0.17302 0.98954 0.36649 0.0
C1140 C 0.23577 0.96195 0.36958 0.0
C1141 C 0.19367 0.98101 0.36644 0.0
N1142 N 0.26875 0.01044 0.39346 0.0
N1143 N 0.16308 0.93551 0.33902 0.0
H1144 H 0.17715 0.01092 0.3742 0.0
H1145 H 0.15128 0.97475 0.36033 0.0
H1146 H 0.1586 0.91521 0.32903 0.0
H1147 H 0.1491 0.94334 0.33381 0.0
H1148 H 0.2838 0.00388 0.39829 0.0
H1149 H 0.27505 0.03275 0.40066 0.0
H1150 H 0.2786 0.96896 0.37443 0.0
H1151 H 0.25265 0.93175 0.36393 0.0
C1152 C 0.57352 0.7006 0.28056 0.0
C1153 C 0.56736 0.67524 0.2936 0.0
C1154 C 0.60165 0.71038 0.32687 0.0
C1155 C 0.60672 0.73624 0.31439 0.0
N1156 N 0.59315 0.75541 0.28041 0.0
N1157 N 0.57187 0.65523 0.33002 0.0
C1158 C 0.59127 0.73121 0.29164 0.0
C1159 C 0.58054 0.6799 0.31695 0.0
N1160 N 0.56327 0.69539 0.25711 0.0
N1161 N 0.61664 0.7148 0.34841 0.0
H1162 H 0.55692 0.63256 0.32316 0.0
H1163 H 0.57776 0.65723 0.3481 0.0
H1164 H 0.62931 0.7363 0.358 0.0
H1165 H 0.61734 0.69714 0.35658 0.0
H1166 H 0.56974 0.7127 0.24574 0.0
H1167 H 0.55007 0.67331 0.24831 0.0
H1168 H 0.57868 0.75264 0.26612 0.0
H1169 H 0.60814 0.77852 0.28555 0.0
C1170 C 0.30215 0.86858 0.26255 0.0
C1171 C 0.33025 0.88889 0.27423 0.0
C1172 C 0.30863 0.89748 0.30874 0.0
C1173 C 0.28067 0.87432 0.29826 0.0
N1174 N 0.25129 0.83384 0.26677 0.0
N1175 N 0.36063 0.9187 0.30992 0.0
C1176 C 0.27749 0.85883 0.27553 0.0
C1177 C 0.33361 0.90216 0.29779 0.0
N1178 N 0.29899 0.85912 0.23894 0.0
N1179 N 0.31137 0.91628 0.32836 0.0
H1180 H 0.37955 0.92285 0.30248 0.0
H1181 H 0.36399 0.92596 0.32798 0.0
H1182 H 0.29365 0.91488 0.33629 0.0
H1183 H 0.33107 0.93553 0.33521 0.0
H1184 H 0.27892 0.84716 0.22885 0.0
H1185 H 0.31661 0.8656 0.22891 0.0
H1186 H 0.24843 0.81992 0.25134 0.0
H1187 H 0.23295 0.82499 0.27608 0.0
C1188 C 0.12731 0.42022 0.28192 0.0
C1189 C 0.12446 0.44205 0.29681 0.0
C1190 C 0.139 0.42466 0.33184 0.0
C1191 C 0.13893 0.40086 0.31701 0.0
N1192 N 0.12702 0.37197 0.27853 0.0
N1193 N 0.12364 0.46265 0.33608 0.0
C1194 C 0.13134 0.39748 0.29222 0.0
C1195 C 0.12929 0.4437 0.32186 0.0
N1196 N 0.12711 0.42183 0.25794 0.0
N1197 N 0.14861 0.42924 0.35536 0.0
H1198 H 0.11654 0.47688 0.32936 0.0
H1199 H 0.12381 0.46255 0.35442 0.0
H1200 H 0.15489 0.41503 0.36334 0.0
H1201 H 0.1522 0.44825 0.36658 0.0
H1202 H 0.13237 0.40872 0.24653 0.0
H1203 H 0.1245 0.4384 0.24967 0.0
H1204 H 0.1187 0.36673 0.26077 0.0
H1205 H 0.12891 0.35439 0.28556 0.0
C1206 C 0.30592 0.41371 0.28081 0.0
C1207 C 0.32739 0.4444 0.28921 0.0
C1208 C 0.29926 0.44254 0.3225 0.0
C1209 C 0.27608 0.41325 0.31244 0.0
N1210 N 0.2553 0.37476 0.27816 0.0
N1211 N 0.34191 0.49045 0.31539 0.0
C1212 C 0.27879 0.39982 0.29053 0.0
C1213 C 0.32328 0.45958 0.30927 0.0
N1214 N 0.31165 0.39731 0.264 0.0
N1215 N 0.29928 0.45349 0.34514 0.0
H1216 H 0.35957 0.50379 0.30598 0.0
H1217 H 0.33821 0.50334 0.32836 0.0
H1218 H 0.28305 0.44112 0.35604 0.0
H1219 H 0.31702 0.47328 0.35403 0.0
H1220 H 0.29787 0.37372 0.25918 0.0
H1221 H 0.33142 0.40643 0.2566 0.0
H1222 H 0.25571 0.36661 0.26093 0.0
H1223 H 0.23454 0.36407 0.28367 0.0
C1224 C 0.5862 0.90387 0.28188 0.0
C1225 C 0.55665 0.88177 0.27473 0.0
C1226 C 0.56341 0.84104 0.29031 0.0
C1227 C 0.59204 0.86374 0.29969 0.0
N1228 N 0.62944 0.91746 0.30764 0.0
N1229 N 0.51575 0.83015 0.27451 0.0
C1230 C 0.60321 0.89536 0.29623 0.0
C1231 C 0.54485 0.85055 0.27959 0.0
N1232 N 0.59813 0.93287 0.2746 0.0
N1233 N 0.5544 0.81034 0.29065 0.0
H1234 H 0.50158 0.83605 0.26615 0.0
H1235 H 0.50527 0.80808 0.28012 0.0
H1236 H 0.56754 0.80243 0.29791 0.0
H1237 H 0.53495 0.7927 0.28182 0.0
H1238 H 0.62029 0.94895 0.27698 0.0
H1239 H 0.58619 0.94005 0.26437 0.0
H1240 H 0.63728 0.94109 0.30787 0.0
H1241 H 0.64233 0.91236 0.31876 0.0
C1242 C 0.15173 0.71653 0.28645 0.0
C1243 C 0.12643 0.6915 0.29386 0.0
C1244 C 0.12424 0.72743 0.32368 0.0
C1245 C 0.14631 0.75294 0.31336 0.0
N1246 N 0.17493 0.77012 0.27967 0.0
N1247 N 0.08467 0.6746 0.31625 0.0
C1248 C 0.15841 0.74711 0.29325 0.0
C1249 C 0.11146 0.69733 0.31153 0.0
N1250 N 0.16994 0.71133 0.27343 0.0
N1251 N 0.11639 0.73138 0.34556 0.0
H1252 H 0.07393 0.65259 0.30705 0.0
H1253 H 0.07191 0.67874 0.3275 0.0
H1254 H 0.12683 0.75241 0.35613 0.0
H1255 H 0.10204 0.7129 0.35441 0.0
H1256 H 0.18994 0.72917 0.26942 0.0
H1257 H 0.16672 0.68928 0.26908 0.0
H1258 H 0.18179 0.76586 0.26374 0.0
H1259 H 0.17869 0.79253 0.28241 0.0
C1260 C 0.74774 0.9778 0.37336 0.0
C1261 C 0.76981 0.98232 0.39092 0.0
C1262 C 0.74922 0.92644 0.38914 0.0
C1263 C 0.72976 0.92206 0.36907 0.0
N1264 N 0.71728 0.94615 0.33831 0.0
N1265 N 0.79632 0.96095 0.41015 0.0
C1266 C 0.73089 0.94846 0.36005 0.0
C1267 C 0.77208 0.95666 0.39712 0.0
N1268 N 0.74216 1.00106 0.36978 0.0
N1269 N 0.74523 0.9024 0.40164 0.0
H1270 H 0.81425 0.98277 0.41549 0.0
H1271 H 0.79986 0.94277 0.41324 0.0
H1272 H 0.72747 0.88014 0.39822 0.0
H1273 H 0.7576 0.90555 0.41752 0.0
H1274 H 0.72445 0.99779 0.35865 0.0
H1275 H 0.75326 0.02257 0.37976 0.0
H1276 H 0.71964 0.96537 0.33038 0.0
H1277 H 0.70679 0.92583 0.32691 0.0
C1278 C 0.04199 0.82728 0.40287 0.0
C1279 C 0.02386 0.79567 0.40628 0.0
C1280 C 0.05408 0.782 0.38328 0.0
C1281 C 0.07345 0.81387 0.38136 0.0
N1282 N 0.08914 0.86725 0.39338 0.0
N1283 N 0.01533 0.74366 0.40375 0.0
C1284 C 0.06831 0.83667 0.39224 0.0
C1285 C 0.03077 0.77324 0.39772 0.0
N1286 N 0.03367 0.8482 0.40919 0.0
N1287 N 0.05698 0.75999 0.37033 0.0
H1288 H 0.99792 0.73634 0.41411 0.0
H1289 H 0.02134 0.72712 0.40026 0.0
H1290 H 0.07314 0.76528 0.35891 0.0
H1291 H 0.04172 0.73647 0.36907 0.0
H1292 H 0.04424 0.87083 0.40467 0.0
H1293 H 0.01481 0.84233 0.41741 0.0
H1294 H 0.08797 0.88467 0.4033 0.0
H1295 H 0.10896 0.87506 0.38626 0.0
C1296 C 0.18629 0.22806 0.37128 0.0
C1297 C 0.20884 0.24033 0.39017 0.0
C1298 C 0.21128 0.29028 0.39062 0.0
C1299 C 0.19109 0.27918 0.37005 0.0
N1300 N 0.16329 0.23892 0.33818 0.0
N1301 N 0.24723 0.28493 0.41429 0.0
C1302 C 0.17961 0.2484 0.35963 0.0
C1303 C 0.22268 0.272 0.39877 0.0
N1304 N 0.17066 0.19689 0.36494 0.0
N1305 N 0.21841 0.31752 0.40325 0.0
H1306 H 0.25657 0.27243 0.42049 0.0
H1307 H 0.25989 0.30865 0.41914 0.0
H1308 H 0.20931 0.33075 0.39868 0.0
H1309 H 0.23063 0.32508 0.41971 0.0
H1310 H 0.15202 0.18632 0.35301 0.0
H1311 H 0.17479 0.18127 0.37315 0.0
H1312 H 0.15688 0.21779 0.3286 0.0
H1313 H 0.15843 0.2533 0.32885 0.0
C1314 C 0.68982 0.58425 0.72688 0.0
C1315 C 0.67938 0.55274 0.73021 0.0
C1316 C 0.72059 0.55481 0.71143 0.0
C1317 C 0.73023 0.58579 0.70694 0.0
N1318 N 0.72133 0.62838 0.70638 0.0
N1319 N 0.68492 0.50764 0.7249 0.0
C1320 C 0.71422 0.60018 0.71371 0.0
C1321 C 0.69457 0.53795 0.72222 0.0
N1322 N 0.67686 0.59916 0.73687 0.0
N1323 N 0.73643 0.54119 0.70575 0.0
H1324 H 0.66598 0.49319 0.73255 0.0
H1325 H 0.66598 0.49319 0.73255 0.0
H1326 H 0.75636 0.55277 0.69867 0.0
H1327 H 0.7299 0.51842 0.70882 0.0
H1328 H 0.68541 0.62294 0.73754 0.0
H1329 H 0.65861 0.58809 0.74621 0.0
H1330 H 0.7087 0.63864 0.70848 0.0
H1331 H 0.73848 0.64043 0.69615 0.0
C1332 C 0.44581 0.10066 0.70406 0.0
C1333 C 0.45782 0.1126 0.72781 0.0
C1334 C 0.4361 0.14553 0.72782 0.0
C1335 C 0.42151 0.13118 0.705 0.0
N1336 N 0.40827 0.09092 0.67318 0.0
N1337 N 0.46053 0.14233 0.76385 0.0
C1338 C 0.42531 0.1077 0.6935 0.0
C1339 C 0.45181 0.13384 0.74016 0.0
N1340 N 0.45441 0.08308 0.69143 0.0
N1341 N 0.4362 0.17131 0.73727 0.0
H1342 H 0.47236 0.13451 0.77347 0.0
H1343 H 0.45387 0.15492 0.77437 0.0
H1344 H 0.42622 0.18165 0.72838 0.0
H1345 H 0.44879 0.18444 0.75279 0.0
H1346 H 0.44891 0.07662 0.67328 0.0
H1347 H 0.46908 0.07709 0.69868 0.0
H1348 H 0.40793 0.07138 0.66546 0.0
H1349 H 0.39236 0.0946 0.6652 0.0
C1350 C 0.90999 0.31282 0.72197 0.0
C1351 C 0.89218 0.32524 0.71555 0.0
C1352 C 0.85951 0.27803 0.68934 0.0
C1353 C 0.877 0.26522 0.69617 0.0
N1354 N 0.92308 0.27377 0.71416 0.0
N1355 N 0.85254 0.32243 0.69105 0.0
C1356 C 0.90357 0.28363 0.71092 0.0
C1357 C 0.8677 0.30865 0.69853 0.0
N1358 N 0.93262 0.32859 0.73929 0.0
N1359 N 0.83507 0.2608 0.67393 0.0
H1360 H 0.85724 0.34428 0.69811 0.0
H1361 H 0.83621 0.3132 0.67707 0.0
H1362 H 0.8304 0.24008 0.66455 0.0
H1363 H 0.81913 0.26655 0.67049 0.0
H1364 H 0.94377 0.31896 0.74737 0.0
H1365 H 0.93918 0.35082 0.74686 0.0
H1366 H 0.94419 0.2879 0.72212 0.0
H1367 H 0.9196 0.25243 0.70732 0.0
C1368 C 0.23313 0.02215 0.64916 0.0
C1369 C 0.23888 0.00952 0.62849 0.0
C1370 C 0.2893 0.05227 0.63342 0.0
C1371 C 0.28206 0.06784 0.65111 0.0
N1372 N 0.24709 0.06736 0.67654 0.0
N1373 N 0.2713 0.01548 0.59854 0.0
C1374 C 0.25392 0.05266 0.65919 0.0
C1375 C 0.26671 0.02526 0.62003 0.0
N1376 N 0.20828 0.00457 0.65964 0.0
N1377 N 0.31758 0.06267 0.62949 0.0
H1378 H 0.25515 0.99637 0.58768 0.0
H1379 H 0.29027 0.02823 0.59039 0.0
H1380 H 0.3351 0.08163 0.63928 0.0
H1381 H 0.32382 0.05029 0.61826 0.0
H1382 H 0.20411 0.0113 0.67599 0.0
H1383 H 0.19293 0.98192 0.65306 0.0
H1384 H 0.22599 0.05937 0.68099 0.0
H1385 H 0.26252 0.08829 0.68597 0.0
C1386 C 0.9972 0.20513 0.63565 0.0
C1387 C 0.00731 0.23252 0.62407 0.0
C1388 C 0.96642 0.23776 0.63618 0.0
C1389 C 0.95509 0.20911 0.64611 0.0
N1390 N 0.95711 0.16318 0.65255 0.0
N1391 N 1.00023 0.27317 0.61072 0.0
C1392 C 0.96988 0.19223 0.64527 0.0
C1393 C 0.99146 0.24828 0.62353 0.0
N1394 N 0.01384 0.19156 0.63758 0.0
N1395 N 0.95405 0.25564 0.63987 0.0
H1396 H 0.01922 0.2825 0.60218 0.0
H1397 H 0.98773 0.28333 0.60717 0.0
H1398 H 0.93617 0.24915 0.64957 0.0
H1399 H 0.96295 0.27814 0.63522 0.0
H1400 H 0.00954 0.17387 0.64825 0.0
H1401 H 0.03317 0.19925 0.62966 0.0
H1402 H 0.96509 0.14821 0.64992 0.0
H1403 H 0.9371 0.1529 0.65962 0.0
C1404 C 0.76554 0.72868 0.63251 0.0
C1405 C 0.78508 0.76102 0.6351 0.0
C1406 C 0.81912 0.75385 0.6609 0.0
C1407 C 0.80184 0.72132 0.65518 0.0
N1408 N 0.75941 0.67772 0.63323 0.0
N1409 N 0.83161 0.80475 0.65016 0.0
C1410 C 0.77502 0.70861 0.64065 0.0
C1411 C 0.81212 0.77376 0.64902 0.0
N1412 N 0.73779 0.71715 0.6224 0.0
N1413 N 0.84187 0.76568 0.67818 0.0
H1414 H 0.8271 0.82019 0.64207 0.0
H1415 H 0.85301 0.81483 0.65764 0.0
H1416 H 0.84721 0.75175 0.68762 0.0
H1417 H 0.85353 0.78891 0.68481 0.0
H1418 H 0.72152 0.69414 0.62238 0.0
H1419 H 0.73028 0.73118 0.61597 0.0
H1420 H 0.7419 0.66803 0.62019 0.0
H1421 H 0.76506 0.66184 0.63855 0.0
C1422 C 0.97741 0.79067 0.62023 0.0
C1423 C 0.99359 0.77675 0.61298 0.0
C1424 C 0.96079 0.72982 0.63085 0.0
C1425 C 0.94318 0.74272 0.63632 0.0
N1426 N 0.93141 0.78286 0.63185 0.0
N1427 N 0.99809 0.73141 0.60744 0.0
C1428 C 0.9506 0.77251 0.62989 0.0
C1429 C 0.98446 0.74577 0.61709 0.0
N1430 N 0.98801 0.82145 0.61841 0.0
N1431 N 0.95582 0.70307 0.63979 0.0
H1432 H 0.01569 0.74249 0.59742 0.0
H1433 H 0.9904 0.70784 0.60759 0.0
H1434 H 0.93937 0.69118 0.65067 0.0
H1435 H 0.96974 0.69427 0.63842 0.0
H1436 H 0.97888 0.83367 0.62589 0.0
H1437 H 0.00731 0.83541 0.61102 0.0
H1438 H 0.9343 0.8029 0.62503 0.0
H1439 H 0.91119 0.77001 0.63823 0.0
C1440 C 0.218 0.19639 0.62428 0.0
C1441 C 0.23163 0.22849 0.62178 0.0
C1442 C 0.27746 0.23631 0.64077 0.0
C1443 C 0.26458 0.20382 0.64117 0.0
N1444 N 0.22414 0.1524 0.62949 0.0
N1445 N 0.27514 0.27851 0.62421 0.0
C1446 C 0.23521 0.18367 0.63199 0.0
C1447 C 0.26163 0.24833 0.62902 0.0
N1448 N 0.1885 0.17816 0.61974 0.0
N1449 N 0.30426 0.2558 0.6526 0.0
H1450 H 0.26414 0.28827 0.616 0.0
H1451 H 0.29759 0.2932 0.62659 0.0
H1452 H 0.31621 0.24803 0.6621 0.0
H1453 H 0.31348 0.27971 0.65499 0.0
H1454 H 0.17693 0.15536 0.62378 0.0
H1455 H 0.17521 0.18655 0.61371 0.0
H1456 H 0.20393 0.13676 0.62053 0.0
H1457 H 0.23618 0.14212 0.6344 0.0
C1458 C 0.81926 0.03987 0.62479 0.0
C1459 C 0.79429 0.01408 0.63189 0.0
C1460 C 0.79062 0.04883 0.66212 0.0
C1461 C 0.81317 0.07486 0.65267 0.0
N1462 N 0.84073 0.09366 0.61878 0.0
N1463 N 0.75188 0.99558 0.65365 0.0
C1464 C 0.82516 0.07002 0.63218 0.0
C1465 C 0.77865 0.01895 0.64953 0.0
N1466 N 0.83795 0.03586 0.61153 0.0
N1467 N 0.7812 0.05215 0.6834 0.0
H1468 H 0.74172 0.97382 0.64407 0.0
H1469 H 0.73852 0.99888 0.66474 0.0
H1470 H 0.78989 0.07326 0.69367 0.0
H1471 H 0.76677 0.03338 0.69196 0.0
H1472 H 0.85762 0.05435 0.60763 0.0
H1473 H 0.8355 0.01421 0.60689 0.0
H1474 H 0.84783 0.09026 0.60271 0.0
H1475 H 0.84305 0.1155 0.62187 0.0
C1476 C 0.41659 0.31336 0.70547 0.0
C1477 C 0.43772 0.317 0.72371 0.0
C1478 C 0.41505 0.26086 0.72194 0.0
C1479 C 0.3975 0.25733 0.70091 0.0
N1480 N 0.38483 0.28179 0.6707 0.0
N1481 N 0.46113 0.29364 0.74486 0.0
C1482 C 0.39906 0.28401 0.6921 0.0
C1483 C 0.43819 0.29058 0.73062 0.0
N1484 N 0.41244 0.33749 0.70145 0.0
N1485 N 0.40883 0.23621 0.73449 0.0
H1486 H 0.47946 0.315 0.75062 0.0
H1487 H 0.46331 0.27478 0.74861 0.0
H1488 H 0.3904 0.21447 0.73019 0.0
H1489 H 0.4198 0.23849 0.75093 0.0
H1490 H 0.39542 0.33516 0.68995 0.0
H1491 H 0.42407 0.35898 0.71141 0.0
H1492 H 0.38779 0.30105 0.6625 0.0
H1493 H 0.37215 0.26103 0.66009 0.0
C1494 C 0.70221 0.14117 0.73151 0.0
C1495 C 0.6856 0.10961 0.73565 0.0
C1496 C 0.71934 0.09855 0.71542 0.0
C1497 C 0.7372 0.13056 0.71297 0.0
N1498 N 0.74884 0.18316 0.72314 0.0
N1499 N 0.68049 0.05912 0.73518 0.0
C1500 C 0.7295 0.15213 0.72218 0.0
C1501 C 0.69484 0.08854 0.7287 0.0
N1502 N 0.69159 0.16054 0.73596 0.0
N1503 N 0.72493 0.07753 0.70409 0.0
H1504 H 0.66224 0.05091 0.74464 0.0
H1505 H 0.68803 0.04369 0.73295 0.0
H1506 H 0.74219 0.08377 0.69369 0.0
H1507 H 0.71099 0.05371 0.70315 0.0
H1508 H 0.70108 0.18281 0.73072 0.0
H1509 H 0.67193 0.15357 0.74319 0.0
H1510 H 0.7457 0.19988 0.73198 0.0
H1511 H 0.7694 0.19223 0.71714 0.0
C1512 C 0.911 0.60221 0.70763 0.0
C1513 C 0.89233 0.56979 0.70618 0.0
C1514 C 0.85649 0.57401 0.68028 0.0
C1515 C 0.87272 0.60668 0.68528 0.0
N1516 N 0.9148 0.65199 0.70645 0.0
N1517 N 0.84641 0.52436 0.69234 0.0
C1518 C 0.90008 0.62096 0.69935 0.0
C1519 C 0.86488 0.5555 0.69269 0.0
N1520 N 0.93926 0.61511 0.71694 0.0
N1521 N 0.83351 0.56076 0.66316 0.0
H1522 H 0.85206 0.50994 0.70077 0.0
H1523 H 0.82483 0.5132 0.68513 0.0
H1524 H 0.82749 0.57376 0.65312 0.0
H1525 H 0.82243 0.53731 0.65719 0.0
H1526 H 0.95485 0.63818 0.71599 0.0
H1527 H 0.94783 0.60208 0.72355 0.0
H1528 H 0.93279 0.6625 0.71904 0.0
H1529 H 0.90784 0.66713 0.70188 0.0
C1530 C 0.46995 0.00272 0.09718 0.0
C1531 C 0.49257 0.00636 0.11378 0.0
C1532 C 0.52829 0.03174 0.08543 0.0
C1533 C 0.50547 0.02739 0.06864 0.0
N1534 N 0.45742 0.01959 0.06156 0.0
N1535 N 0.54376 0.03256 0.12658 0.0
C1536 C 0.47718 0.01643 0.07556 0.0
C1537 C 0.52196 0.02375 0.10885 0.0
N1538 N 0.44155 0.98478 0.10139 0.0
N1539 N 0.55547 0.04123 0.07868 0.0
H1540 H 0.53973 0.02704 0.14394 0.0
H1541 H 0.56556 0.04779 0.12467 0.0
H1542 H 0.56134 0.04739 0.06181 0.0
H1543 H 0.57173 0.04078 0.08934 0.0
H1544 H 0.42422 0.97851 0.08865 0.0
H1545 H 0.43529 0.97425 0.11699 0.0
H1546 H 0.4372 0.0146 0.0667 0.0
H1547 H 0.46264 0.0303 0.04592 0.0
C1548 C 0.01241 0.4741 0.10305 0.0
C1549 C 0.01398 0.49811 0.11874 0.0
C1550 C 0.994 0.51424 0.08633 0.0
C1551 C 0.99057 0.4889 0.07112 0.0
N1552 N 0.98961 0.44043 0.06657 0.0
N1553 N 0.99965 0.53611 0.12679 0.0
C1554 C 0.99761 0.46745 0.07999 0.0
C1555 C 0.00271 0.51669 0.11082 0.0
N1556 N 0.02621 0.45862 0.10969 0.0
N1557 N 0.99009 0.53668 0.0773 0.0
H1558 H 0.00521 0.53805 0.14497 0.0
H1559 H 0.98893 0.54792 0.12233 0.0
H1560 H 0.98331 0.53569 0.05953 0.0
H1561 H 0.99581 0.5575 0.08705 0.0
H1562 H 0.0285 0.44334 0.09798 0.0
H1563 H 0.03767 0.4631 0.12629 0.0
H1564 H 0.99197 0.42267 0.07288 0.0
H1565 H 0.97782 0.43453 0.04997 0.0
C1566 C 0.51501 0.53326 0.11061 0.0
C1567 C 0.49326 0.50435 0.11702 0.0
C1568 C 0.49593 0.47855 0.07992 0.0
C1569 C 0.51566 0.50778 0.07235 0.0
N1570 N 0.54108 0.56361 0.07969 0.0
N1571 N 0.45975 0.45004 0.10665 0.0
C1572 C 0.5246 0.5353 0.08756 0.0
C1573 C 0.48265 0.47718 0.10127 0.0
N1574 N 0.5268 0.55892 0.1267 0.0
N1575 N 0.49121 0.45201 0.06746 0.0
H1576 H 0.45021 0.44797 0.12251 0.0
H1577 H 0.44877 0.4303 0.09463 0.0
H1578 H 0.50185 0.45198 0.0526 0.0
H1579 H 0.47924 0.43018 0.07326 0.0
H1580 H 0.54553 0.57957 0.12444 0.0
H1581 H 0.51903 0.55915 0.14314 0.0
H1582 H 0.54456 0.58419 0.08843 0.0
H1583 H 0.54966 0.56661 0.06352 0.0
C1584 C 0.97392 0.47593 0.90523 0.0
C1585 C 0.9872 0.50385 0.89433 0.0
C1586 C 0.01764 0.53141 0.93158 0.0
C1587 C 0.00608 0.50286 0.94171 0.0
N1588 N 0.9789 0.4471 0.93582 0.0
N1589 N 0.02391 0.55763 0.89584 0.0
C1590 C 0.98566 0.47488 0.92792 0.0
C1591 C 0.00969 0.53151 0.90716 0.0
N1592 N 0.94978 0.4504 0.89398 0.0
N1593 N 0.03554 0.55844 0.94546 0.0
H1594 H 0.0181 0.55863 0.8782 0.0
H1595 H 0.04255 0.57763 0.90335 0.0
H1596 H 0.04243 0.55911 0.96315 0.0
H1597 H 0.04205 0.5802 0.93999 0.0
H1598 H 0.93731 0.43047 0.9022 0.0
H1599 H 0.94059 0.4501 0.8772 0.0
H1600 H 0.96625 0.42596 0.9256 0.0
H1601 H 0.98888 0.44541 0.95144 0.0
C1602 C 0.4873 0.47539 0.90538 0.0
C1603 C 0.515 0.49888 0.90019 0.0
C1604 C 0.51936 0.52895 0.93735 0.0
C1605 C 0.49458 0.50294 0.94467 0.0
N1606 N 0.45794 0.44842 0.93605 0.0
N1607 N 0.55976 0.54619 0.91329 0.0
C1608 C 0.4791 0.47538 0.92875 0.0
C1609 C 0.53175 0.52522 0.91674 0.0
N1610 N 0.46853 0.45326 0.88791 0.0
N1611 N 0.53046 0.55751 0.94942 0.0
H1612 H 0.56975 0.54402 0.89858 0.0
H1613 H 0.5738 0.56401 0.92616 0.0
H1614 H 0.52055 0.56176 0.96334 0.0
H1615 H 0.54722 0.57751 0.9437 0.0
H1616 H 0.44698 0.43746 0.89026 0.0
H1617 H 0.47345 0.45281 0.8704 0.0
H1618 H 0.44865 0.42729 0.92564 0.0
H1619 H 0.45202 0.44584 0.95325 0.0
C1620 C 0.48203 0.9799 0.89943 0.0
C1621 C 0.51196 0.99626 0.89574 0.0
C1622 C 0.52411 0.98642 0.93528 0.0
C1623 C 0.49509 0.97532 0.94056 0.0
N1624 N 0.44597 0.96202 0.92773 0.0
N1625 N 0.5621 0.01772 0.91101 0.0
C1626 C 0.47378 0.97178 0.92255 0.0
C1627 C 0.53318 0.99992 0.91379 0.0
N1628 N 0.46152 0.97181 0.88072 0.0
N1629 N 0.54294 0.98361 0.9507 0.0
H1630 H 0.56974 0.02814 0.89558 0.0
H1631 H 0.57846 0.02422 0.92472 0.0
H1632 H 0.53679 0.97372 0.9665 0.0
H1633 H 0.56347 0.98822 0.94672 0.0
H1634 H 0.43935 0.95725 0.88167 0.0
H1635 H 0.46689 0.97734 0.86358 0.0
H1636 H 0.43054 0.96291 0.91629 0.0
H1637 H 0.43865 0.95475 0.94408 0.0
C1638 C 0.14226 0.32244 0.43971 0.0
C1639 C 0.16314 0.34443 0.45752 0.0
C1640 C 0.18665 0.37971 0.4273 0.0
C1641 C 0.1693 0.35548 0.4091 0.0
N1642 N 0.13029 0.30334 0.39858 0.0
N1643 N 0.20612 0.39395 0.4687 0.0
C1644 C 0.14676 0.3269 0.41553 0.0
C1645 C 0.18545 0.37325 0.45149 0.0
N1646 N 0.11779 0.29739 0.44595 0.0
N1647 N 0.20361 0.40912 0.42144 0.0
H1648 H 0.20553 0.39015 0.48659 0.0
H1649 H 0.22481 0.41382 0.46507 0.0
H1650 H 0.20359 0.41476 0.40403 0.0
H1651 H 0.21497 0.4283 0.43393 0.0
H1652 H 0.10043 0.28188 0.43381 0.0
H1653 H 0.11358 0.29354 0.46354 0.0
H1654 H 0.11731 0.28035 0.40184 0.0
H1655 H 0.1298 0.30763 0.38116 0.0
C1656 C 0.68224 0.80916 0.43564 0.0
C1657 C 0.69038 0.83484 0.45245 0.0
C1658 C 0.67742 0.85986 0.42223 0.0
C1659 C 0.66672 0.83289 0.40586 0.0
N1660 N 0.65028 0.7783 0.40087 0.0
N1661 N 0.68744 0.8803 0.46347 0.0
C1662 C 0.66669 0.80647 0.41363 0.0
C1663 C 0.68535 0.85881 0.44628 0.0
N1664 N 0.68983 0.78765 0.44035 0.0
N1665 N 0.68183 0.88719 0.41489 0.0
H1666 H 0.69247 0.87995 0.48143 0.0
H1667 H 0.68103 0.89634 0.46021 0.0
H1668 H 0.67832 0.89042 0.3974 0.0
H1669 H 0.69258 0.90796 0.42582 0.0
H1670 H 0.68695 0.77024 0.42762 0.0
H1671 H 0.70152 0.78902 0.45616 0.0
H1672 H 0.64783 0.75792 0.40674 0.0
H1673 H 0.63617 0.77478 0.38608 0.0
C1674 C 0.15454 0.81789 0.43137 0.0
C1675 C 0.16514 0.84517 0.44699 0.0
C1676 C 0.1965 0.87592 0.41746 0.0
C1677 C 0.18735 0.84832 0.4023 0.0
N1678 N 0.16301 0.79256 0.39762 0.0
N1679 N 0.19873 0.89975 0.45653 0.0
C1680 C 0.16774 0.81915 0.41 0.0
C1681 C 0.18692 0.87402 0.44052 0.0
N1682 N 0.13171 0.79078 0.43686 0.0
N1683 N 0.21314 0.90416 0.40955 0.0
H1684 H 0.19096 0.90009 0.47295 0.0
H1685 H 0.21746 0.92038 0.45422 0.0
H1686 H 0.22191 0.90704 0.39346 0.0
H1687 H 0.2167 0.92482 0.4182 0.0
H1688 H 0.12072 0.77097 0.42491 0.0
H1689 H 0.12226 0.78875 0.45276 0.0
H1690 H 0.15112 0.77077 0.40351 0.0
H1691 H 0.17358 0.79246 0.38272 0.0
C1692 C 0.64345 0.80219 0.23868 0.0
C1693 C 0.65027 0.83091 0.23047 0.0
C1694 C 0.67787 0.85794 0.26884 0.0
C1695 C 0.67204 0.82911 0.27676 0.0
N1696 N 0.65408 0.77433 0.26682 0.0
N1697 N 0.67655 0.88647 0.23604 0.0
C1698 C 0.65659 0.80151 0.26089 0.0
C1699 C 0.668 0.85891 0.24517 0.0
N1700 N 0.62309 0.77526 0.2257 0.0
N1701 N 0.69368 0.88458 0.28368 0.0
H1702 H 0.66959 0.88793 0.21888 0.0
H1703 H 0.69188 0.90791 0.24469 0.0
H1704 H 0.70534 0.88587 0.29944 0.0
H1705 H 0.69497 0.90544 0.28064 0.0
H1706 H 0.6147 0.75358 0.23187 0.0
H1707 H 0.61239 0.7746 0.20956 0.0
H1708 H 0.64738 0.75523 0.2545 0.0
H1709 H 0.65953 0.77064 0.28364 0.0
C1710 C 0.15343 0.8137 0.23516 0.0
C1711 C 0.18116 0.83631 0.22929 0.0
C1712 C 0.18795 0.86716 0.26671 0.0
C1713 C 0.16306 0.84185 0.27459 0.0
N1714 N 0.1249 0.78784 0.26657 0.0
N1715 N 0.22713 0.88264 0.24149 0.0
C1716 C 0.1463 0.81431 0.25885 0.0
C1717 C 0.19912 0.86257 0.24562 0.0
N1718 N 0.13361 0.79183 0.21803 0.0
N1719 N 0.20029 0.89594 0.27869 0.0
H1720 H 0.23625 0.8798 0.22642 0.0
H1721 H 0.24197 0.9003 0.25412 0.0
H1722 H 0.19137 0.90089 0.29303 0.0
H1723 H 0.21715 0.91551 0.27257 0.0
H1724 H 0.11207 0.77674 0.22092 0.0
H1725 H 0.13773 0.79098 0.20032 0.0
H1726 H 0.1146 0.76662 0.25621 0.0
H1727 H 0.11974 0.78564 0.28398 0.0
C1728 C 0.17863 0.357 0.24304 0.0
C1729 C 0.17248 0.33141 0.22694 0.0
C1730 C 0.15453 0.29753 0.25905 0.0
C1731 C 0.16349 0.3239 0.27549 0.0
N1732 N 0.19344 0.37896 0.28341 0.0
N1733 N 0.15823 0.27767 0.21996 0.0
C1734 C 0.17823 0.35369 0.26752 0.0
C1735 C 0.16141 0.30166 0.23501 0.0
N1736 N 0.18437 0.38444 0.235 0.0
N1737 N 0.13956 0.26866 0.2664 0.0
H1738 H 0.16287 0.28 0.20233 0.0
H1739 H 0.15301 0.25617 0.22534 0.0
H1740 H 0.13625 0.26502 0.28416 0.0
H1741 H 0.1295 0.24846 0.25484 0.0
H1742 H 0.1861 0.40276 0.24606 0.0
H1743 H 0.18426 0.38776 0.21703 0.0
H1744 H 0.20616 0.40136 0.27876 0.0
H1745 H 0.1976 0.376 0.3007 0.0
C1746 C 0.83782 0.69761 0.776 0.0
C1747 C 0.82827 0.66746 0.78288 0.0
C1748 C 0.83963 0.65292 0.74516 0.0
C1749 C 0.84535 0.68119 0.73656 0.0
N1750 N 0.84376 0.72835 0.74314 0.0
N1751 N 0.81062 0.61376 0.77001 0.0
C1752 C 0.84262 0.70303 0.75176 0.0
C1753 C 0.82568 0.64417 0.76598 0.0
N1754 N 0.84349 0.72128 0.79256 0.0
N1755 N 0.85045 0.63595 0.73517 0.0
H1756 H 0.79926 0.60634 0.78492 0.0
H1757 H 0.80695 0.59604 0.75721 0.0
H1758 H 0.86615 0.64514 0.72335 0.0
H1759 H 0.848 0.61591 0.74177 0.0
H1760 H 0.85325 0.74424 0.78881 0.0
H1761 H 0.84075 0.71836 0.81045 0.0
H1762 H 0.83925 0.74336 0.75303 0.0
H1763 H 0.84636 0.73264 0.72546 0.0
C1764 C 0.34071 0.18199 0.7764 0.0
C1765 C 0.35212 0.16358 0.78435 0.0
C1766 C 0.33731 0.13389 0.74523 0.0
C1767 C 0.33008 0.15524 0.73647 0.0
N1768 N 0.32869 0.2025 0.74293 0.0
N1769 N 0.36533 0.12485 0.77534 0.0
C1770 C 0.33268 0.18004 0.75184 0.0
C1771 C 0.35139 0.14012 0.76854 0.0
N1772 N 0.33683 0.20078 0.7924 0.0
N1773 N 0.33027 0.10741 0.73143 0.0
H1774 H 0.37627 0.12906 0.79214 0.0
H1775 H 0.36825 0.11005 0.76363 0.0
H1776 H 0.31944 0.10202 0.71445 0.0
H1777 H 0.33266 0.08962 0.73763 0.0
H1778 H 0.32593 0.21237 0.78785 0.0
H1779 H 0.34191 0.20237 0.81063 0.0
H1780 H 0.33389 0.22301 0.75291 0.0
H1781 H 0.32241 0.2019 0.72511 0.0
C1782 C 0.82575 0.13517 0.77546 0.0
C1783 C 0.8324 0.16395 0.78745 0.0
C1784 C 0.8615 0.19112 0.75575 0.0
C1785 C 0.85199 0.1624 0.74237 0.0
N1786 N 0.82437 0.10683 0.73862 0.0
N1787 N 0.8528 0.21907 0.78738 0.0
C1788 C 0.83405 0.13428 0.75206 0.0
C1789 C 0.84924 0.19188 0.77713 0.0
N1790 N 0.81208 0.10888 0.78669 0.0
N1791 N 0.88328 0.21764 0.74846 0.0
H1792 H 0.84416 0.22071 0.80309 0.0
H1793 H 0.86208 0.23948 0.77921 0.0
H1794 H 0.89393 0.21742 0.73368 0.0
H1795 H 0.89302 0.23908 0.75845 0.0
H1796 H 0.80912 0.08764 0.77998 0.0
H1797 H 0.80534 0.10876 0.80362 0.0
H1798 H 0.80846 0.08559 0.74334 0.0
H1799 H 0.83141 0.10553 0.72202 0.0
C1800 C 0.34421 0.20175 0.57534 0.0
C1801 C 0.32518 0.17284 0.562 0.0
C1802 C 0.33293 0.14588 0.59356 0.0
C1803 C 0.34887 0.17424 0.60813 0.0
N1804 N 0.36944 0.22935 0.61368 0.0
N1805 N 0.29752 0.11711 0.55997 0.0
C1806 C 0.35459 0.20231 0.59919 0.0
C1807 C 0.31845 0.14481 0.57156 0.0
N1808 N 0.35289 0.22851 0.56498 0.0
N1809 N 0.3328 0.12019 0.60033 0.0
H1810 H 0.28615 0.11524 0.54384 0.0
H1811 H 0.28952 0.09623 0.56742 0.0
H1812 H 0.34492 0.12096 0.61564 0.0
H1813 H 0.32377 0.09942 0.58951 0.0
H1814 H 0.3689 0.25018 0.57283 0.0
H1815 H 0.34544 0.22884 0.54769 0.0
H1816 H 0.37139 0.25014 0.60942 0.0
H1817 H 0.37883 0.23058 0.63061 0.0
C1818 C 0.87047 0.19553 0.58357 0.0
C1819 C 0.84998 0.1704 0.56723 0.0
C1820 C 0.81628 0.15073 0.59791 0.0
C1821 C 0.83615 0.17672 0.61381 0.0
N1822 N 0.87828 0.22774 0.61994 0.0
N1823 N 0.8006 0.12881 0.557 0.0
C1824 C 0.86203 0.20041 0.60603 0.0
C1825 C 0.82198 0.14944 0.57384 0.0
N1826 N 0.89837 0.21377 0.57821 0.0
N1827 N 0.79251 0.1267 0.60592 0.0
H1828 H 0.80376 0.1277 0.53907 0.0
H1829 H 0.77903 0.11502 0.56041 0.0
H1830 H 0.78704 0.12699 0.62326 0.0
H1831 H 0.77939 0.10555 0.59583 0.0
H1832 H 0.91497 0.2302 0.59052 0.0
H1833 H 0.90557 0.21068 0.56212 0.0
H1834 H 0.89612 0.24691 0.61436 0.0
H1835 H 0.87199 0.23222 0.63609 0.0
C1836 C 0.8193 0.65861 0.56825 0.0
C1837 C 0.84879 0.66939 0.56436 0.0
C1838 C 0.8546 0.64719 0.60005 0.0
C1839 C 0.82759 0.64258 0.60641 0.0
N1840 N 0.78293 0.64192 0.59636 0.0
N1841 N 0.89552 0.67598 0.57758 0.0
C1842 C 0.80938 0.64739 0.5903 0.0
C1843 C 0.86668 0.66387 0.58036 0.0
N1844 N 0.80073 0.65856 0.55066 0.0
N1845 N 0.8684 0.63518 0.6127 0.0
H1846 H 0.90535 0.68871 0.56357 0.0
H1847 H 0.91016 0.67554 0.59025 0.0
H1848 H 0.85901 0.62161 0.62644 0.0
H1849 H 0.88723 0.63578 0.60792 0.0
H1850 H 0.77843 0.64851 0.55158 0.0
H1851 H 0.80721 0.66607 0.53414 0.0
H1852 H 0.77025 0.64889 0.58697 0.0
H1853 H 0.77409 0.63119 0.6114 0.0
loop_
_geom_bond_atom_site_label_1
_geom_bond_atom_site_label_2
_geom_bond_distance
_geom_bond_site_symmetry_2
_ccdc_geom_bond_type
C0 C1 1.386 . S
C0 C2 1.397 . S
C0 H24 0.931 . S
C1 C0 1.386 . S
C1 C5 1.397 . S
C2 C0 1.397 . S
C2 C3 1.384 . S
C2 H25 0.930 . S
C3 C2 1.384 . S
C3 C4 1.377 . S
C3 C6 1.481 . S
C4 C3 1.377 . S
C4 C5 1.389 . S
C4 H26 0.929 . S
C5 C1 1.397 . S
C5 C4 1.389 . S
C5 H27 0.931 . S
C6 C3 1.481 . S
C6 C7 1.387 . S
C6 C11 1.390 . S
C7 C6 1.387 . S
C7 C8 1.401 . S
C7 H28 0.930 . S
C8 C7 1.401 . S
C8 C9 1.376 . S
C8 C17 1.511 . S
C9 C8 1.376 . S
C9 C10 1.392 . S
C9 H30 0.931 . S
C10 C9 1.392 . S
C10 C11 1.361 . S
C10 C12 1.500 . S
C11 C6 1.390 . S
C11 C10 1.361 . S
C11 H29 0.931 . S
C12 C10 1.500 . S
C12 C13 1.371 . S
C12 C14 1.365 . S
C13 C12 1.371 . S
C13 C23 1.386 . S
C13 H31 0.931 . S
C14 C12 1.365 . S
C14 C15 1.409 . S
C14 H32 0.929 . S
C15 C14 1.409 . S
C15 C16 1.380 . S
C15 H33 0.930 . S
C16 C15 1.380 . S
C16 C23 1.357 . S
C17 C8 1.511 . S
C17 C18 1.341 . S
C17 C19 1.371 . S
C18 C17 1.341 . S
C18 C22 1.394 . S
C18 H34 0.930 . S
C19 C17 1.371 . S
C19 C20 1.392 . S
C19 H35 0.931 . S
C20 C19 1.392 . S
C20 C21 1.331 . S
C20 H38 0.932 . S
C21 C20 1.331 . S
C21 C22 1.336 . S
C22 C18 1.394 . S
C22 C21 1.336 . S
C22 H37 0.929 . S
C23 C13 1.386 . S
C23 C16 1.357 . S
C23 H36 0.928 . S
H24 C0 0.931 . S
H25 C2 0.930 . S
H26 C4 0.929 . S
H27 C5 0.931 . S
H28 C7 0.930 . S
H29 C11 0.931 . S
H30 C9 0.931 . S
H31 C13 0.931 . S
H32 C14 0.929 . S
H33 C15 0.930 . S
H34 C18 0.930 . S
H35 C19 0.931 . S
H36 C23 0.928 . S
H37 C22 0.929 . S
H38 C20 0.932 . S
C39 C40 1.386 . S
C39 C41 1.397 . S
C39 H63 0.931 . S
C40 C39 1.386 . S
C40 C44 1.397 . S
C41 C39 1.397 . S
C41 C42 1.384 . S
C41 H64 0.930 . S
C42 C41 1.384 . S
C42 C43 1.377 . S
C42 C45 1.481 . S
C43 C42 1.377 . S
C43 C44 1.389 . S
C43 H65 0.929 . S
C44 C40 1.397 . S
C44 C43 1.389 . S
C44 H66 0.931 . S
C45 C42 1.481 . S
C45 C46 1.387 . S
C45 C50 1.390 . S
C46 C45 1.387 . S
C46 C47 1.401 . S
C46 H67 0.930 . S
C47 C46 1.401 . S
C47 C48 1.376 . S
C47 C56 1.511 . S
C48 C47 1.376 . S
C48 C49 1.392 . S
C48 H69 0.931 . S
C49 C48 1.392 . S
C49 C50 1.361 . S
C49 C51 1.500 . S
C50 C45 1.390 . S
C50 C49 1.361 . S
C50 H68 0.931 . S
C51 C49 1.500 . S
C51 C52 1.371 . S
C51 C53 1.365 . S
C52 C51 1.371 . S
C52 C62 1.386 . S
C52 H70 0.931 . S
C53 C51 1.365 . S
C53 C54 1.409 . S
C53 H71 0.929 . S
C54 C53 1.409 . S
C54 C55 1.380 . S
C54 H72 0.930 . S
C55 C54 1.380 . S
C55 C62 1.357 . S
C56 C47 1.511 . S
C56 C57 1.341 . S
C56 C58 1.371 . S
C57 C56 1.341 . S
C57 C61 1.394 . S
C57 H73 0.930 . S
C58 C56 1.371 . S
C58 C59 1.392 . S
C58 H74 0.931 . S
C59 C58 1.392 . S
C59 C60 1.331 . S
C59 H77 0.932 . S
C60 C59 1.331 . S
C60 C61 1.336 . S
C61 C57 1.394 . S
C61 C60 1.336 . S
C61 H76 0.929 . S
C62 C52 1.386 . S
C62 C55 1.357 . S
C62 H75 0.928 . S
H63 C39 0.931 . S
H64 C41 0.930 . S
H65 C43 0.929 . S
H66 C44 0.931 . S
H67 C46 0.930 . S
H68 C50 0.931 . S
H69 C48 0.931 . S
H70 C52 0.931 . S
H71 C53 0.929 . S
H72 C54 0.930 . S
H73 C57 0.930 . S
H74 C58 0.931 . S
H75 C62 0.928 . S
H76 C61 0.929 . S
H77 C59 0.932 . S
C78 C79 1.386 . S
C78 C80 1.397 . S
C78 H102 0.931 . S
C79 C78 1.386 . S
C79 C83 1.397 . S
C80 C78 1.397 . S
C80 C81 1.384 . S
C80 H103 0.930 . S
C81 C80 1.384 . S
C81 C82 1.377 . S
C81 C84 1.481 . S
C82 C81 1.377 . S
C82 C83 1.389 . S
C82 H104 0.929 . S
C83 C79 1.397 . S
C83 C82 1.389 . S
C83 H105 0.931 . S
C84 C81 1.481 . S
C84 C85 1.387 . S
C84 C89 1.390 . S
C85 C84 1.387 . S
C85 C86 1.401 . S
C85 H106 0.930 . S
C86 C85 1.401 . S
C86 C87 1.376 . S
C86 C95 1.511 . S
C87 C86 1.376 . S
C87 C88 1.392 . S
C87 H108 0.931 . S
C88 C87 1.392 . S
C88 C89 1.361 . S
C88 C90 1.500 . S
C89 C84 1.390 . S
C89 C88 1.361 . S
C89 H107 0.931 . S
C90 C88 1.500 . S
C90 C91 1.371 . S
C90 C92 1.365 . S
C91 C90 1.371 . S
C91 C101 1.386 . S
C91 H109 0.931 . S
C92 C90 1.365 . S
C92 C93 1.409 . S
C92 H110 0.929 . S
C93 C92 1.409 . S
C93 C94 1.380 . S
C93 H111 0.930 . S
C94 C93 1.380 . S
C94 C101 1.357 . S
C95 C86 1.511 . S
C95 C96 1.341 . S
C95 C97 1.371 . S
C96 C95 1.341 . S
C96 C100 1.394 . S
C96 H112 0.930 . S
C97 C95 1.371 . S
C97 C98 1.392 . S
C97 H113 0.931 . S
C98 C97 1.392 . S
C98 C99 1.331 . S
C98 H116 0.932 . S
C99 C98 1.331 . S
C99 C100 1.336 . S
C100 C96 1.394 . S
C100 C99 1.336 . S
C100 H115 0.929 . S
C101 C91 1.386 . S
C101 C94 1.357 . S
C101 H114 0.928 . S
H102 C78 0.931 . S
H103 C80 0.930 . S
H104 C82 0.929 . S
H105 C83 0.931 . S
H106 C85 0.930 . S
H107 C89 0.931 . S
H108 C87 0.931 . S
H109 C91 0.931 . S
H110 C92 0.929 . S
H111 C93 0.930 . S
H112 C96 0.930 . S
H113 C97 0.931 . S
H114 C101 0.928 . S
H115 C100 0.929 . S
H116 C98 0.932 . S
C117 C118 1.386 . S
C117 C119 1.397 . S
C117 H141 0.931 . S
C118 C117 1.386 . S
C118 C122 1.397 . S
C119 C117 1.397 . S
C119 C120 1.384 . S
C119 H142 0.930 . S
C120 C119 1.384 . S
C120 C121 1.377 . S
C120 C123 1.481 . S
C121 C120 1.377 . S
C121 C122 1.389 . S
C121 H143 0.929 . S
C122 C118 1.397 . S
C122 C121 1.389 . S
C122 H144 0.931 . S
C123 C120 1.481 . S
C123 C124 1.387 . S
C123 C128 1.390 . S
C124 C123 1.387 . S
C124 C125 1.401 . S
C124 H145 0.930 . S
C125 C124 1.401 . S
C125 C126 1.376 . S
C125 C134 1.511 . S
C126 C125 1.376 . S
C126 C127 1.392 . S
C126 H147 0.931 . S
C127 C126 1.392 . S
C127 C128 1.361 . S
C127 C129 1.500 . S
C128 C123 1.390 . S
C128 C127 1.361 . S
C128 H146 0.931 . S
C129 C127 1.500 . S
C129 C130 1.371 . S
C129 C131 1.365 . S
C130 C129 1.371 . S
C130 C140 1.386 . S
C130 H148 0.931 . S
C131 C129 1.365 . S
C131 C132 1.409 . S
C131 H149 0.929 . S
C132 C131 1.409 . S
C132 C133 1.380 . S
C132 H150 0.930 . S
C133 C132 1.380 . S
C133 C140 1.357 . S
C134 C125 1.511 . S
C134 C135 1.341 . S
C134 C136 1.371 . S
C135 C134 1.341 . S
C135 C139 1.394 . S
C135 H151 0.930 . S
C136 C134 1.371 . S
C136 C137 1.392 . S
C136 H152 0.931 . S
C137 C136 1.392 . S
C137 C138 1.331 . S
C137 H155 0.932 . S
C138 C137 1.331 . S
C138 C139 1.336 . S
C139 C135 1.394 . S
C139 C138 1.336 . S
C139 H154 0.929 . S
C140 C130 1.386 . S
C140 C133 1.357 . S
C140 H153 0.928 . S
H141 C117 0.931 . S
H142 C119 0.930 . S
H143 C121 0.929 . S
H144 C122 0.931 . S
H145 C124 0.930 . S
H146 C128 0.931 . S
H147 C126 0.931 . S
H148 C130 0.931 . S
H149 C131 0.929 . S
H150 C132 0.930 . S
H151 C135 0.930 . S
H152 C136 0.931 . S
H153 C140 0.928 . S
H154 C139 0.929 . S
H155 C137 0.932 . S
C156 C157 1.386 . S
C156 C158 1.397 . S
C156 H180 0.931 . S
C157 C156 1.386 . S
C157 C161 1.397 . S
C158 C156 1.397 . S
C158 C159 1.384 . S
C158 H181 0.930 . S
C159 C158 1.384 . S
C159 C160 1.377 . S
C159 C162 1.481 . S
C160 C159 1.377 . S
C160 C161 1.389 . S
C160 H182 0.929 . S
C161 C157 1.397 . S
C161 C160 1.389 . S
C161 H183 0.931 . S
C162 C159 1.481 . S
C162 C163 1.387 . S
C162 C167 1.390 . S
C163 C162 1.387 . S
C163 C164 1.401 . S
C163 H184 0.930 . S
C164 C163 1.401 . S
C164 C165 1.376 . S
C164 C173 1.511 . S
C165 C164 1.376 . S
C165 C166 1.392 . S
C165 H186 0.931 . S
C166 C165 1.392 . S
C166 C167 1.361 . S
C166 C168 1.500 . S
C167 C162 1.390 . S
C167 C166 1.361 . S
C167 H185 0.931 . S
C168 C166 1.500 . S
C168 C169 1.371 . S
C168 C170 1.365 . S
C169 C168 1.371 . S
C169 C179 1.386 . S
C169 H187 0.931 . S
C170 C168 1.365 . S
C170 C171 1.409 . S
C170 H188 0.929 . S
C171 C170 1.409 . S
C171 C172 1.380 . S
C171 H189 0.930 . S
C172 C171 1.380 . S
C172 C179 1.357 . S
C173 C164 1.511 . S
C173 C174 1.341 . S
C173 C175 1.371 . S
C174 C173 1.341 . S
C174 C178 1.394 . S
C174 H190 0.930 . S
C175 C173 1.371 . S
C175 C176 1.392 . S
C175 H191 0.931 . S
C176 C175 1.392 . S
C176 C177 1.331 . S
C176 H194 0.932 . S
C177 C176 1.331 . S
C177 C178 1.336 . S
C178 C174 1.394 . S
C178 C177 1.336 . S
C178 H193 0.929 . S
C179 C169 1.386 . S
C179 C172 1.357 . S
C179 H192 0.928 . S
H180 C156 0.931 . S
H181 C158 0.930 . S
H182 C160 0.929 . S
H183 C161 0.931 . S
H184 C163 0.930 . S
H185 C167 0.931 . S
H186 C165 0.931 . S
H187 C169 0.931 . S
H188 C170 0.929 . S
H189 C171 0.930 . S
H190 C174 0.930 . S
H191 C175 0.931 . S
H192 C179 0.928 . S
H193 C178 0.929 . S
H194 C176 0.932 . S
C195 C196 1.386 . S
C195 C197 1.397 . S
C195 H219 0.931 . S
C196 C195 1.386 . S
C196 C200 1.397 . S
C197 C195 1.397 . S
C197 C198 1.384 . S
C197 H220 0.930 . S
C198 C197 1.384 . S
C198 C199 1.377 . S
C198 C201 1.481 . S
C199 C198 1.377 . S
C199 C200 1.389 . S
C199 H221 0.929 . S
C200 C196 1.397 . S
C200 C199 1.389 . S
C200 H222 0.931 . S
C201 C198 1.481 . S
C201 C202 1.387 . S
C201 C206 1.390 . S
C202 C201 1.387 . S
C202 C203 1.401 . S
C202 H223 0.930 . S
C203 C202 1.401 . S
C203 C204 1.376 . S
C203 C212 1.511 . S
C204 C203 1.376 . S
C204 C205 1.392 . S
C204 H225 0.931 . S
C205 C204 1.392 . S
C205 C206 1.361 . S
C205 C207 1.500 . S
C206 C201 1.390 . S
C206 C205 1.361 . S
C206 H224 0.931 . S
C207 C205 1.500 . S
C207 C208 1.371 . S
C207 C209 1.365 . S
C208 C207 1.371 . S
C208 C218 1.386 . S
C208 H226 0.931 . S
C209 C207 1.365 . S
C209 C210 1.409 . S
C209 H227 0.929 . S
C210 C209 1.409 . S
C210 C211 1.380 . S
C210 H228 0.930 . S
C211 C210 1.380 . S
C211 C218 1.357 . S
C212 C203 1.511 . S
C212 C213 1.341 . S
C212 C214 1.371 . S
C213 C212 1.341 . S
C213 C217 1.394 . S
C213 H229 0.930 . S
C214 C212 1.371 . S
C214 C215 1.392 . S
C214 H230 0.931 . S
C215 C214 1.392 . S
C215 C216 1.331 . S
C215 H233 0.932 . S
C216 C215 1.331 . S
C216 C217 1.336 . S
C217 C213 1.394 . S
C217 C216 1.336 . S
C217 H232 0.929 . S
C218 C208 1.386 . S
C218 C211 1.357 . S
C218 H231 0.928 . S
H219 C195 0.931 . S
H220 C197 0.930 . S
H221 C199 0.929 . S
H222 C200 0.931 . S
H223 C202 0.930 . S
H224 C206 0.931 . S
H225 C204 0.931 . S
H226 C208 0.931 . S
H227 C209 0.929 . S
H228 C210 0.930 . S
H229 C213 0.930 . S
H230 C214 0.931 . S
H231 C218 0.928 . S
H232 C217 0.929 . S
H233 C215 0.932 . S
C234 C235 1.386 . S
C234 C236 1.397 . S
C234 H258 0.931 . S
C235 C234 1.386 . S
C235 C239 1.397 . S
C236 C234 1.397 . S
C236 C237 1.384 . S
C236 H259 0.930 . S
C237 C236 1.384 . S
C237 C238 1.377 . S
C237 C240 1.481 . S
C238 C237 1.377 . S
C238 C239 1.389 . S
C238 H260 0.929 . S
C239 C235 1.397 . S
C239 C238 1.389 . S
C239 H261 0.931 1_655 S
C240 C237 1.481 . S
C240 C241 1.387 . S
C240 C245 1.390 . S
C241 C240 1.387 . S
C241 C242 1.401 . S
C241 H262 0.930 . S
C242 C241 1.401 . S
C242 C243 1.376 . S
C242 C251 1.511 . S
C243 C242 1.376 . S
C243 C244 1.392 . S
C243 H264 0.931 . S
C244 C243 1.392 . S
C244 C245 1.361 . S
C244 C246 1.500 . S
C245 C240 1.390 . S
C245 C244 1.361 . S
C245 H263 0.931 . S
C246 C244 1.500 . S
C246 C247 1.371 . S
C246 C248 1.365 . S
C247 C246 1.371 . S
C247 C257 1.386 . S
C247 H265 0.931 . S
C248 C246 1.365 . S
C248 C249 1.409 . S
C248 H266 0.929 . S
C249 C248 1.409 . S
C249 C250 1.380 . S
C249 H267 0.930 . S
C250 C249 1.380 . S
C250 C257 1.357 . S
C251 C242 1.511 . S
C251 C252 1.341 . S
C251 C253 1.371 . S
C252 C251 1.341 . S
C252 C256 1.394 . S
C252 H268 0.930 . S
C253 C251 1.371 . S
C253 C254 1.392 . S
C253 H269 0.931 . S
C254 C253 1.392 . S
C254 C255 1.331 . S
C254 H272 0.932 . S
C255 C254 1.331 . S
C255 C256 1.336 . S
C256 C252 1.394 . S
C256 C255 1.336 . S
C256 H271 0.929 . S
C257 C247 1.386 . S
C257 C250 1.357 . S
C257 H270 0.928 . S
H258 C234 0.931 . S
H259 C236 0.930 . S
H260 C238 0.929 . S
H261 C239 0.931 1_455 S
H262 C241 0.930 . S
H263 C245 0.931 . S
H264 C243 0.931 . S
H265 C247 0.931 . S
H266 C248 0.929 . S
H267 C249 0.930 . S
H268 C252 0.930 . S
H269 C253 0.931 . S
H270 C257 0.928 . S
H271 C256 0.929 . S
H272 C254 0.932 . S
C273 C274 1.386 . S
C273 C275 1.397 . S
C273 H297 0.931 . S
C274 C273 1.386 . S
C274 C278 1.397 . S
C275 C273 1.397 . S
C275 C276 1.384 . S
C275 H298 0.930 . S
C276 C275 1.384 . S
C276 C277 1.377 . S
C276 C279 1.481 . S
C277 C276 1.377 . S
C277 C278 1.389 . S
C277 H299 0.929 . S
C278 C274 1.397 . S
C278 C277 1.389 . S
C278 H300 0.931 . S
C279 C276 1.481 . S
C279 C280 1.387 . S
C279 C284 1.390 . S
C280 C279 1.387 . S
C280 C281 1.401 . S
C280 H301 0.930 . S
C281 C280 1.401 . S
C281 C282 1.376 . S
C281 C290 1.511 . S
C282 C281 1.376 . S
C282 C283 1.392 . S
C282 H303 0.931 . S
C283 C282 1.392 . S
C283 C284 1.361 . S
C283 C285 1.500 . S
C284 C279 1.390 . S
C284 C283 1.361 . S
C284 H302 0.931 . S
C285 C283 1.500 . S
C285 C286 1.371 . S
C285 C287 1.365 . S
C286 C285 1.371 . S
C286 C296 1.386 . S
C286 H304 0.931 . S
C287 C285 1.365 . S
C287 C288 1.409 . S
C287 H305 0.929 . S
C288 C287 1.409 . S
C288 C289 1.380 . S
C288 H306 0.930 . S
C289 C288 1.380 . S
C289 C296 1.357 . S
C290 C281 1.511 . S
C290 C291 1.341 . S
C290 C292 1.371 . S
C291 C290 1.341 . S
C291 C295 1.394 . S
C291 H307 0.930 . S
C292 C290 1.371 . S
C292 C293 1.392 . S
C292 H308 0.931 . S
C293 C292 1.392 . S
C293 C294 1.331 . S
C293 H311 0.932 . S
C294 C293 1.331 . S
C294 C295 1.336 . S
C295 C291 1.394 . S
C295 C294 1.336 . S
C295 H310 0.929 . S
C296 C286 1.386 . S
C296 C289 1.357 . S
C296 H309 0.928 . S
H297 C273 0.931 . S
H298 C275 0.930 . S
H299 C277 0.929 . S
H300 C278 0.931 . S
H301 C280 0.930 . S
H302 C284 0.931 . S
H303 C282 0.931 . S
H304 C286 0.931 . S
H305 C287 0.929 . S
H306 C288 0.930 . S
H307 C291 0.930 . S
H308 C292 0.931 . S
H309 C296 0.928 . S
H310 C295 0.929 . S
H311 C293 0.932 . S
C312 C313 1.386 . S
C312 C314 1.397 . S
C312 H336 0.931 . S
C313 C312 1.386 . S
C313 C317 1.397 . S
C314 C312 1.397 . S
C314 C315 1.384 . S
C314 H337 0.930 . S
C315 C314 1.384 . S
C315 C316 1.377 . S
C315 C318 1.481 . S
C316 C315 1.377 . S
C316 C317 1.389 . S
C316 H338 0.929 . S
C317 C313 1.397 . S
C317 C316 1.389 . S
C317 H339 0.937 . S
C318 C315 1.481 . S
C318 C319 1.387 . S
C318 C323 1.390 . S
C319 C318 1.387 . S
C319 C320 1.401 . S
C319 H340 0.930 . S
C320 C319 1.401 . S
C320 C321 1.376 . S
C320 C329 1.511 . S
C321 C320 1.376 . S
C321 C322 1.392 . S
C321 H342 0.931 . S
C322 C321 1.392 . S
C322 C323 1.361 . S
C322 C324 1.500 . S
C323 C318 1.390 . S
C323 C322 1.361 . S
C323 H341 0.931 . S
C324 C322 1.500 . S
C324 C325 1.371 . S
C324 C326 1.365 . S
C325 C324 1.371 . S
C325 C335 1.386 . S
C325 H343 0.931 . S
C326 C324 1.365 . S
C326 C327 1.409 . S
C326 H344 0.929 . S
C327 C326 1.409 . S
C327 C328 1.380 . S
C327 H345 0.930 . S
C328 C327 1.380 . S
C328 C335 1.357 . S
C329 C320 1.511 . S
C329 C330 1.341 . S
C329 C331 1.371 . S
C330 C329 1.341 . S
C330 C334 1.394 . S
C330 H346 0.930 . S
C331 C329 1.371 . S
C331 C332 1.392 . S
C331 H347 0.931 . S
C332 C331 1.392 . S
C332 C333 1.331 . S
C332 H350 0.932 . S
C333 C332 1.331 . S
C333 C334 1.336 . S
C334 C330 1.394 . S
C334 C333 1.336 . S
C334 H349 0.929 . S
C335 C325 1.386 . S
C335 C328 1.357 . S
C335 H348 0.928 . S
H336 C312 0.931 . S
H337 C314 0.930 . S
H338 C316 0.929 . S
H339 C317 0.937 . S
H340 C319 0.930 . S
H341 C323 0.931 . S
H342 C321 0.931 . S
H343 C325 0.931 . S
H344 C326 0.929 . S
H345 C327 0.930 . S
H346 C330 0.930 . S
H347 C331 0.931 . S
H348 C335 0.928 . S
H349 C334 0.929 . S
H350 C332 0.932 . S
C351 C352 1.386 . S
C351 C353 1.397 . S
C351 H375 0.931 . S
C352 C351 1.386 . S
C352 C356 1.397 . S
C353 C351 1.397 . S
C353 C354 1.384 . S
C353 H376 0.930 . S
C354 C353 1.384 . S
C354 C355 1.377 . S
C354 C357 1.481 . S
C355 C354 1.377 . S
C355 C356 1.389 . S
C355 H377 0.929 . S
C356 C352 1.397 . S
C356 C355 1.389 . S
C356 H378 0.931 . S
C357 C354 1.481 . S
C357 C358 1.387 . S
C357 C362 1.390 . S
C358 C357 1.387 . S
C358 C359 1.401 . S
C358 H379 0.930 . S
C359 C358 1.401 . S
C359 C360 1.376 . S
C359 C368 1.511 . S
C360 C359 1.376 . S
C360 C361 1.392 . S
C360 H381 0.931 . S
C361 C360 1.392 . S
C361 C362 1.361 . S
C361 C363 1.500 . S
C362 C357 1.390 . S
C362 C361 1.361 . S
C362 H380 0.931 . S
C363 C361 1.500 . S
C363 C364 1.371 . S
C363 C365 1.365 . S
C364 C363 1.371 . S
C364 C374 1.386 . S
C364 H382 0.931 . S
C365 C363 1.365 . S
C365 C366 1.409 . S
C365 H383 0.929 . S
C366 C365 1.409 . S
C366 C367 1.380 . S
C366 H384 0.930 . S
C367 C366 1.380 . S
C367 C374 1.357 . S
C368 C359 1.511 . S
C368 C369 1.341 . S
C368 C370 1.371 . S
C369 C368 1.341 . S
C369 C373 1.394 . S
C369 H385 0.930 . S
C370 C368 1.371 . S
C370 C371 1.392 . S
C370 H386 0.931 . S
C371 C370 1.392 . S
C371 C372 1.331 . S
C371 H389 0.932 . S
C372 C371 1.331 . S
C372 C373 1.336 . S
C373 C369 1.394 . S
C373 C372 1.336 . S
C373 H388 0.929 . S
C374 C364 1.386 . S
C374 C367 1.357 . S
C374 H387 0.928 . S
H375 C351 0.931 . S
H376 C353 0.930 . S
H377 C355 0.929 . S
H378 C356 0.931 . S
H379 C358 0.930 . S
H380 C362 0.931 . S
H381 C360 0.931 . S
H382 C364 0.931 . S
H383 C365 0.929 . S
H384 C366 0.930 . S
H385 C369 0.930 . S
H386 C370 0.931 . S
H387 C374 0.928 . S
H388 C373 0.929 . S
H389 C371 0.932 . S
C390 C391 1.386 . S
C390 C392 1.397 . S
C390 H414 0.931 . S
C391 C390 1.386 . S
C391 C395 1.397 . S
C392 C390 1.397 . S
C392 C393 1.384 . S
C392 H415 0.930 . S
C393 C392 1.384 . S
C393 C394 1.377 . S
C393 C396 1.481 . S
C394 C393 1.377 . S
C394 C395 1.389 . S
C394 H416 0.929 . S
C395 C391 1.397 . S
C395 C394 1.389 . S
C395 H417 0.931 . S
C396 C393 1.481 . S
C396 C397 1.387 . S
C396 C401 1.390 . S
C397 C396 1.387 . S
C397 C398 1.401 . S
C397 H418 0.930 . S
C398 C397 1.401 . S
C398 C399 1.376 . S
C398 C407 1.511 . S
C399 C398 1.376 . S
C399 C400 1.392 . S
C399 H420 0.931 . S
C400 C399 1.392 . S
C400 C401 1.361 . S
C400 C402 1.500 . S
C401 C396 1.390 . S
C401 C400 1.361 . S
C401 H419 0.931 . S
C402 C400 1.500 . S
C402 C403 1.371 . S
C402 C404 1.365 . S
C403 C402 1.371 . S
C403 C413 1.386 . S
C403 H421 0.931 . S
C404 C402 1.365 . S
C404 C405 1.409 . S
C404 H422 0.929 . S
C405 C404 1.409 . S
C405 C406 1.380 . S
C405 H423 0.930 . S
C406 C405 1.380 . S
C406 C413 1.357 . S
C407 C398 1.511 . S
C407 C408 1.341 . S
C407 C409 1.371 . S
C408 C407 1.341 . S
C408 C412 1.394 . S
C408 H424 0.930 . S
C409 C407 1.371 . S
C409 C410 1.392 . S
C409 H425 0.931 . S
C410 C409 1.392 . S
C410 C411 1.331 . S
C410 H428 0.932 . S
C411 C410 1.331 . S
C411 C412 1.336 . S
C412 C408 1.394 . S
C412 C411 1.336 . S
C412 H427 0.929 . S
C413 C403 1.386 . S
C413 C406 1.357 . S
C413 H426 0.928 . S
H414 C390 0.931 . S
H415 C392 0.930 . S
H416 C394 0.929 . S
H417 C395 0.931 . S
H418 C397 0.930 . S
H419 C401 0.931 . S
H420 C399 0.931 . S
H421 C403 0.931 . S
H422 C404 0.929 . S
H423 C405 0.930 . S
H424 C408 0.930 . S
H425 C409 0.931 . S
H426 C413 0.928 . S
H427 C412 0.929 . S
H428 C410 0.932 . S
C429 C430 1.386 . S
C429 C431 1.397 . S
C429 H453 0.931 . S
C430 C429 1.386 . S
C430 C434 1.397 . S
C431 C429 1.397 . S
C431 C432 1.384 . S
C431 H454 0.930 . S
C432 C431 1.384 . S
C432 C433 1.377 . S
C432 C435 1.481 . S
C433 C432 1.377 . S
C433 C434 1.389 . S
C433 H455 0.929 . S
C434 C430 1.397 . S
C434 C433 1.389 . S
C434 H456 0.931 . S
C435 C432 1.481 . S
C435 C436 1.387 . S
C435 C440 1.390 . S
C436 C435 1.387 . S
C436 C437 1.401 . S
C436 H457 0.930 . S
C437 C436 1.401 . S
C437 C438 1.376 . S
C437 C446 1.511 . S
C438 C437 1.376 . S
C438 C439 1.392 . S
C438 H459 0.931 . S
C439 C438 1.392 . S
C439 C440 1.361 . S
C439 C441 1.500 . S
C440 C435 1.390 . S
C440 C439 1.361 . S
C440 H458 0.931 . S
C441 C439 1.500 . S
C441 C442 1.371 . S
C441 C443 1.365 . S
C442 C441 1.371 . S
C442 C452 1.386 . S
C442 H460 0.931 . S
C443 C441 1.365 . S
C443 C444 1.409 . S
C443 H461 0.929 . S
C444 C443 1.409 . S
C444 C445 1.380 . S
C444 H462 0.930 . S
C445 C444 1.380 . S
C445 C452 1.357 . S
C446 C437 1.511 . S
C446 C447 1.341 . S
C446 C448 1.371 . S
C447 C446 1.341 . S
C447 C451 1.394 . S
C447 H463 0.930 . S
C448 C446 1.371 . S
C448 C449 1.392 . S
C448 H464 0.931 . S
C449 C448 1.392 . S
C449 C450 1.331 . S
C449 H467 0.932 . S
C450 C449 1.331 . S
C450 C451 1.336 . S
C451 C447 1.394 . S
C451 C450 1.336 . S
C451 H466 0.929 . S
C452 C442 1.386 . S
C452 C445 1.357 . S
C452 H465 0.928 . S
H453 C429 0.931 . S
H454 C431 0.930 . S
H455 C433 0.929 . S
H456 C434 0.931 . S
H457 C436 0.930 . S
H458 C440 0.931 . S
H459 C438 0.931 . S
H460 C442 0.931 . S
H461 C443 0.929 . S
H462 C444 0.930 . S
H463 C447 0.930 . S
H464 C448 0.931 . S
H465 C452 0.928 . S
H466 C451 0.929 . S
H467 C449 0.932 . S
C468 C469 1.386 . S
C468 C470 1.397 . S
C468 H492 0.931 . S
C469 C468 1.386 . S
C469 C473 1.397 . S
C470 C468 1.397 . S
C470 C471 1.384 . S
C470 H493 0.930 . S
C471 C470 1.384 . S
C471 C472 1.377 . S
C471 C474 1.481 . S
C472 C471 1.377 . S
C472 C473 1.389 . S
C472 H494 0.929 . S
C473 C469 1.397 . S
C473 C472 1.389 . S
C473 H495 0.931 . S
C474 C471 1.481 . S
C474 C475 1.387 . S
C474 C479 1.390 . S
C475 C474 1.387 . S
C475 C476 1.401 . S
C475 H496 0.930 . S
C476 C475 1.401 . S
C476 C477 1.376 . S
C476 C485 1.511 . S
C477 C476 1.376 . S
C477 C478 1.392 . S
C477 H498 0.931 . S
C478 C477 1.392 . S
C478 C479 1.361 . S
C478 C480 1.500 . S
C479 C474 1.390 . S
C479 C478 1.361 . S
C479 H497 0.931 . S
C480 C478 1.500 . S
C480 C481 1.371 . S
C480 C482 1.365 . S
C481 C480 1.371 . S
C481 C491 1.386 . S
C481 H499 0.931 . S
C482 C480 1.365 . S
C482 C483 1.409 . S
C482 H500 0.929 . S
C483 C482 1.409 . S
C483 C484 1.380 . S
C483 H501 0.930 . S
C484 C483 1.380 . S
C484 C491 1.357 . S
C485 C476 1.511 . S
C485 C486 1.341 . S
C485 C487 1.371 . S
C486 C485 1.341 . S
C486 C490 1.394 . S
C486 H502 0.930 . S
C487 C485 1.371 . S
C487 C488 1.392 . S
C487 H503 0.931 . S
C488 C487 1.392 . S
C488 C489 1.331 . S
C488 H506 0.932 . S
C489 C488 1.331 . S
C489 C490 1.336 . S
C490 C486 1.394 . S
C490 C489 1.336 . S
C490 H505 0.929 . S
C491 C481 1.386 . S
C491 C484 1.357 . S
C491 H504 0.928 . S
H492 C468 0.931 . S
H493 C470 0.930 . S
H494 C472 0.929 . S
H495 C473 0.931 . S
H496 C475 0.930 . S
H497 C479 0.931 . S
H498 C477 0.931 . S
H499 C481 0.931 . S
H500 C482 0.929 . S
H501 C483 0.930 . S
H502 C486 0.930 . S
H503 C487 0.931 . S
H504 C491 0.928 . S
H505 C490 0.929 . S
H506 C488 0.932 . S
C507 C508 1.386 . S
C507 C509 1.397 . S
C507 H531 0.931 . S
C508 C507 1.386 . S
C508 C512 1.397 . S
C509 C507 1.397 . S
C509 C510 1.384 . S
C509 H532 0.930 . S
C510 C509 1.384 . S
C510 C511 1.377 . S
C510 C513 1.481 . S
C511 C510 1.377 . S
C511 C512 1.389 . S
C511 H533 0.929 . S
C512 C508 1.397 . S
C512 C511 1.389 . S
C512 H534 0.931 . S
C513 C510 1.481 . S
C513 C514 1.387 . S
C513 C518 1.390 . S
C514 C513 1.387 . S
C514 C515 1.401 . S
C514 H535 0.930 . S
C515 C514 1.401 . S
C515 C516 1.376 . S
C515 C524 1.511 . S
C516 C515 1.376 . S
C516 C517 1.392 . S
C516 H537 0.931 . S
C517 C516 1.392 . S
C517 C518 1.361 . S
C517 C519 1.500 . S
C518 C513 1.390 . S
C518 C517 1.361 . S
C518 H536 0.931 . S
C519 C517 1.500 . S
C519 C520 1.371 . S
C519 C521 1.365 . S
C520 C519 1.371 . S
C520 C530 1.386 . S
C520 H538 0.931 . S
C521 C519 1.365 . S
C521 C522 1.409 . S
C521 H539 0.929 . S
C522 C521 1.409 . S
C522 C523 1.380 . S
C522 H540 0.930 . S
C523 C522 1.380 . S
C523 C530 1.357 . S
C524 C515 1.511 . S
C524 C525 1.341 . S
C524 C526 1.371 . S
C525 C524 1.341 . S
C525 C529 1.394 . S
C525 H541 0.930 . S
C526 C524 1.371 . S
C526 C527 1.392 . S
C526 H542 0.931 . S
C527 C526 1.392 . S
C527 C528 1.331 . S
C527 H545 0.932 . S
C528 C527 1.331 . S
C528 C529 1.336 . S
C529 C525 1.394 . S
C529 C528 1.336 . S
C529 H544 0.929 . S
C530 C520 1.386 . S
C530 C523 1.357 . S
C530 H543 0.928 . S
H531 C507 0.931 . S
H532 C509 0.930 . S
H533 C511 0.929 . S
H534 C512 0.931 . S
H535 C514 0.930 . S
H536 C518 0.931 . S
H537 C516 0.931 . S
H538 C520 0.931 . S
H539 C521 0.929 . S
H540 C522 0.930 . S
H541 C525 0.930 . S
H542 C526 0.931 . S
H543 C530 0.928 . S
H544 C529 0.929 . S
H545 C527 0.932 . S
C546 C547 1.386 . S
C546 C548 1.397 . S
C546 H570 0.931 . S
C547 C546 1.386 . S
C547 C551 1.397 . S
C548 C546 1.397 . S
C548 C549 1.384 . S
C548 H571 0.930 . S
C549 C548 1.384 . S
C549 C550 1.377 . S
C549 C552 1.481 . S
C550 C549 1.377 . S
C550 C551 1.389 . S
C550 H572 0.929 . S
C551 C547 1.397 . S
C551 C550 1.389 . S
C551 H573 0.931 . S
C552 C549 1.481 . S
C552 C553 1.387 . S
C552 C557 1.390 . S
C553 C552 1.387 . S
C553 C554 1.401 . S
C553 H574 0.930 . S
C554 C553 1.401 . S
C554 C555 1.376 . S
C554 C563 1.511 . S
C555 C554 1.376 . S
C555 C556 1.392 . S
C555 H576 0.931 . S
C556 C555 1.392 . S
C556 C557 1.361 . S
C556 C558 1.500 . S
C557 C552 1.390 . S
C557 C556 1.361 . S
C557 H575 0.931 . S
C558 C556 1.500 . S
C558 C559 1.371 . S
C558 C560 1.365 . S
C559 C558 1.371 . S
C559 C569 1.386 . S
C559 H577 0.931 . S
C560 C558 1.365 . S
C560 C561 1.409 . S
C560 H578 0.929 . S
C561 C560 1.409 . S
C561 C562 1.380 . S
C561 H579 0.930 . S
C562 C561 1.380 . S
C562 C569 1.357 . S
C563 C554 1.511 . S
C563 C564 1.341 . S
C563 C565 1.371 . S
C564 C563 1.341 . S
C564 C568 1.394 . S
C564 H580 0.930 . S
C565 C563 1.371 . S
C565 C566 1.392 . S
C565 H581 0.931 . S
C566 C565 1.392 . S
C566 C567 1.331 . S
C566 H584 0.932 . S
C567 C566 1.331 . S
C567 C568 1.336 . S
C568 C564 1.394 . S
C568 C567 1.336 . S
C568 H583 0.929 . S
C569 C559 1.386 . S
C569 C562 1.357 . S
C569 H582 0.928 . S
H570 C546 0.931 . S
H571 C548 0.930 . S
H572 C550 0.929 . S
H573 C551 0.931 . S
H574 C553 0.930 . S
H575 C557 0.931 . S
H576 C555 0.931 . S
H577 C559 0.931 . S
H578 C560 0.929 . S
H579 C561 0.930 . S
H580 C564 0.930 . S
H581 C565 0.931 . S
H582 C569 0.928 . S
H583 C568 0.929 . S
H584 C566 0.932 . S
C585 C586 1.386 . S
C585 C587 1.397 . S
C585 H609 0.931 . S
C586 C585 1.386 . S
C586 C590 1.397 . S
C587 C585 1.397 . S
C587 C588 1.384 . S
C587 H610 0.930 . S
C588 C587 1.384 . S
C588 C589 1.377 . S
C588 C591 1.481 . S
C589 C588 1.377 . S
C589 C590 1.389 . S
C589 H611 0.929 . S
C590 C586 1.397 . S
C590 C589 1.389 . S
C590 H612 0.931 1_565 S
C591 C588 1.481 . S
C591 C592 1.387 . S
C591 C596 1.390 . S
C592 C591 1.387 . S
C592 C593 1.401 . S
C592 H613 0.930 . S
C593 C592 1.401 . S
C593 C594 1.376 . S
C593 C602 1.511 . S
C594 C593 1.376 . S
C594 C595 1.392 . S
C594 H615 0.931 . S
C595 C594 1.392 . S
C595 C596 1.361 . S
C595 C597 1.500 . S
C596 C591 1.390 . S
C596 C595 1.361 . S
C596 H614 0.931 . S
C597 C595 1.500 . S
C597 C598 1.371 . S
C597 C599 1.365 . S
C598 C597 1.371 . S
C598 C608 1.386 . S
C598 H616 0.931 . S
C599 C597 1.365 . S
C599 C600 1.409 . S
C599 H617 0.929 . S
C600 C599 1.409 . S
C600 C601 1.380 . S
C600 H618 0.930 . S
C601 C600 1.380 . S
C601 C608 1.357 . S
C602 C593 1.511 . S
C602 C603 1.341 . S
C602 C604 1.371 . S
C603 C602 1.341 . S
C603 C607 1.394 . S
C603 H619 0.930 . S
C604 C602 1.371 . S
C604 C605 1.392 . S
C604 H620 0.931 . S
C605 C604 1.392 . S
C605 C606 1.331 . S
C605 H623 0.932 . S
C606 C605 1.331 . S
C606 C607 1.336 . S
C607 C603 1.394 . S
C607 C606 1.336 . S
C607 H622 0.929 . S
C608 C598 1.386 . S
C608 C601 1.357 . S
C608 H621 0.928 . S
H609 C585 0.931 . S
H610 C587 0.930 . S
H611 C589 0.929 . S
H612 C590 0.931 1_545 S
H613 C592 0.930 . S
H614 C596 0.931 . S
H615 C594 0.931 . S
H616 C598 0.931 . S
H617 C599 0.929 . S
H618 C600 0.930 . S
H619 C603 0.930 . S
H620 C604 0.931 . S
H621 C608 0.928 . S
H622 C607 0.929 . S
H623 C605 0.932 . S
C624 C625 1.386 . S
C624 C626 1.397 . S
C624 H648 0.931 1_455 S
C625 C624 1.386 . S
C625 C629 1.397 . S
C626 C624 1.397 . S
C626 C627 1.384 . S
C626 H649 0.930 . S
C627 C626 1.384 . S
C627 C628 1.377 . S
C627 C630 1.481 . S
C628 C627 1.377 . S
C628 C629 1.389 . S
C628 H650 0.929 . S
C629 C625 1.397 . S
C629 C628 1.389 . S
C629 H651 0.931 . S
C630 C627 1.481 . S
C630 C631 1.387 . S
C630 C635 1.390 . S
C631 C630 1.387 . S
C631 C632 1.401 . S
C631 H652 0.930 . S
C632 C631 1.401 . S
C632 C633 1.376 . S
C632 C641 1.511 . S
C633 C632 1.376 . S
C633 C634 1.392 . S
C633 H654 0.931 . S
C634 C633 1.392 . S
C634 C635 1.361 . S
C634 C636 1.500 . S
C635 C630 1.390 . S
C635 C634 1.361 . S
C635 H653 0.931 . S
C636 C634 1.500 . S
C636 C637 1.371 . S
C636 C638 1.365 . S
C637 C636 1.371 . S
C637 C647 1.386 . S
C637 H655 0.931 . S
C638 C636 1.365 . S
C638 C639 1.409 . S
C638 H656 0.929 . S
C639 C638 1.409 . S
C639 C640 1.380 . S
C639 H657 0.930 . S
C640 C639 1.380 . S
C640 C647 1.357 . S
C641 C632 1.511 . S
C641 C642 1.341 . S
C641 C643 1.371 . S
C642 C641 1.341 . S
C642 C646 1.394 . S
C642 H658 0.930 . S
C643 C641 1.371 . S
C643 C644 1.392 . S
C643 H659 0.931 . S
C644 C643 1.392 . S
C644 C645 1.331 . S
C644 H662 0.932 . S
C645 C644 1.331 . S
C645 C646 1.336 . S
C646 C642 1.394 . S
C646 C645 1.336 . S
C646 H661 0.929 . S
C647 C637 1.386 . S
C647 C640 1.357 . S
C647 H660 0.928 . S
H648 C624 0.931 1_655 S
H649 C626 0.930 . S
H650 C628 0.929 . S
H651 C629 0.931 . S
H652 C631 0.930 . S
H653 C635 0.931 . S
H654 C633 0.931 . S
H655 C637 0.931 . S
H656 C638 0.929 . S
H657 C639 0.930 . S
H658 C642 0.930 . S
H659 C643 0.931 . S
H660 C647 0.928 . S
H661 C646 0.929 . S
H662 C644 0.932 . S
C663 C664 1.386 . S
C663 C665 1.397 . S
C663 H687 0.931 . S
C664 C663 1.386 . S
C664 C668 1.397 . S
C665 C663 1.397 . S
C665 C666 1.384 . S
C665 H688 0.930 . S
C666 C665 1.384 . S
C666 C667 1.377 . S
C666 C669 1.481 . S
C667 C666 1.377 . S
C667 C668 1.389 . S
C667 H689 0.929 . S
C668 C664 1.397 . S
C668 C667 1.389 . S
C668 H690 0.931 . S
C669 C666 1.481 . S
C669 C670 1.387 . S
C669 C674 1.390 . S
C670 C669 1.387 . S
C670 C671 1.401 . S
C670 H691 0.930 . S
C671 C670 1.401 . S
C671 C672 1.376 . S
C671 C680 1.511 . S
C672 C671 1.376 . S
C672 C673 1.392 . S
C672 H693 0.931 . S
C673 C672 1.392 . S
C673 C674 1.361 . S
C673 C675 1.500 . S
C674 C669 1.390 . S
C674 C673 1.361 . S
C674 H692 0.931 . S
C675 C673 1.500 . S
C675 C676 1.371 . S
C675 C677 1.365 . S
C676 C675 1.371 . S
C676 C686 1.386 . S
C676 H694 0.931 . S
C677 C675 1.365 . S
C677 C678 1.409 . S
C677 H695 0.929 . S
C678 C677 1.409 . S
C678 C679 1.380 . S
C678 H696 0.930 . S
C679 C678 1.380 . S
C679 C686 1.357 . S
C680 C671 1.511 . S
C680 C681 1.341 . S
C680 C682 1.371 . S
C681 C680 1.341 . S
C681 C685 1.394 . S
C681 H697 0.930 . S
C682 C680 1.371 . S
C682 C683 1.392 . S
C682 H698 0.931 . S
C683 C682 1.392 . S
C683 C684 1.331 . S
C683 H701 0.932 . S
C684 C683 1.331 . S
C684 C685 1.336 . S
C685 C681 1.394 . S
C685 C684 1.336 . S
C685 H700 0.929 . S
C686 C676 1.386 . S
C686 C679 1.357 . S
C686 H699 0.928 . S
H687 C663 0.931 . S
H688 C665 0.930 . S
H689 C667 0.929 . S
H690 C668 0.931 . S
H691 C670 0.930 . S
H692 C674 0.931 . S
H693 C672 0.931 . S
H694 C676 0.931 . S
H695 C677 0.929 . S
H696 C678 0.930 . S
H697 C681 0.930 . S
H698 C682 0.931 . S
H699 C686 0.928 . S
H700 C685 0.929 . S
H701 C683 0.932 . S
Tb702 O705 2.453 . S
Tb702 O706 2.596 1_545 S
Tb702 O707 2.374 1_545 S
Tb702 O715 2.343 1_554 S
Tb702 O717 2.353 . S
Tb702 O719 2.427 1_554 S
Tb702 O720 2.513 1_554 S
C703 O707 1.251 . S
C703 O709 1.255 1_554 S
Tb704 O706 2.343 1_556 S
Tb704 O709 2.357 . S
Tb704 O712 2.427 1_556 S
Tb704 O713 2.513 1_556 S
Tb704 O714 2.453 . S
Tb704 O715 2.596 1_565 S
Tb704 O716 2.374 1_565 S
O705 Tb702 2.453 . S
O705 C721 1.245 . S
O706 Tb702 2.596 1_565 S
O706 Tb704 2.343 1_554 S
O706 C721 1.259 1_565 S
O707 Tb702 2.374 1_565 S
O707 C703 1.251 . S
C708 O712 1.275 . S
C708 O713 1.246 . S
O709 C703 1.255 1_556 S
O709 Tb704 2.357 . S
C710 O714 1.245 . S
C710 O715 1.259 1_565 S
C711 O716 1.250 . S
C711 O717 1.263 1_556 S
O712 Tb704 2.427 1_554 S
O712 C708 1.275 . S
O713 Tb704 2.513 1_554 S
O713 C708 1.246 . S
O714 Tb704 2.453 . S
O714 C710 1.245 . S
O715 Tb702 2.343 1_556 S
O715 Tb704 2.596 1_545 S
O715 C710 1.259 1_545 S
O716 Tb704 2.374 1_545 S
O716 C711 1.250 . S
O717 Tb702 2.353 . S
O717 C711 1.263 1_554 S
C718 O719 1.275 . S
C718 O720 1.246 . S
O719 Tb702 2.427 1_556 S
O719 C718 1.275 . S
O720 Tb702 2.513 1_556 S
O720 C718 1.246 . S
C721 O705 1.245 . S
C721 O706 1.259 1_545 S
Tb722 O725 2.453 . S
Tb722 O726 2.596 1_655 S
Tb722 O727 2.374 1_655 S
Tb722 O735 2.343 1_554 S
Tb722 O737 2.353 . S
Tb722 O739 2.427 1_554 S
Tb722 O740 2.513 1_554 S
C723 O727 1.251 . S
C723 O729 1.263 . S
Tb724 O726 2.343 1_556 S
Tb724 O729 2.353 1_556 S
Tb724 O732 2.427 1_556 S
Tb724 O733 2.513 1_556 S
Tb724 O734 2.453 . S
Tb724 O735 2.596 1_455 S
Tb724 O736 2.374 1_455 S
O725 Tb722 2.453 . S
O725 C741 1.245 1_655 S
O726 Tb722 2.596 1_455 S
O726 Tb724 2.343 1_554 S
O726 C741 1.259 . S
O727 Tb722 2.374 1_455 S
O727 C723 1.251 . S
C728 O732 1.275 . S
C728 O733 1.246 . S
O729 C723 1.263 . S
O729 Tb724 2.353 1_554 S
C730 O734 1.237 1_655 S
C730 O735 1.262 . S
C731 O736 1.250 . S
C731 O737 1.263 1_556 S
O732 Tb724 2.427 1_554 S
O732 C728 1.275 . S
O733 Tb724 2.513 1_554 S
O733 C728 1.246 . S
O734 Tb724 2.453 . S
O734 C730 1.237 1_455 S
O735 Tb722 2.343 1_556 S
O735 Tb724 2.596 1_655 S
O735 C730 1.262 . S
O736 Tb724 2.374 1_655 S
O736 C731 1.250 . S
O737 Tb722 2.353 . S
O737 C731 1.263 1_554 S
C738 O739 1.275 . S
C738 O740 1.246 . S
O739 Tb722 2.427 1_556 S
O739 C738 1.275 . S
O740 Tb722 2.513 1_556 S
O740 C738 1.246 . S
C741 O725 1.245 1_455 S
C741 O726 1.259 . S
Tb742 O745 2.453 . S
Tb742 O746 2.596 . S
Tb742 O747 2.374 . S
Tb742 O755 2.343 1_556 S
Tb742 O757 2.353 1_556 S
Tb742 O759 2.427 1_556 S
Tb742 O760 2.513 1_556 S
C743 O747 1.251 . S
C743 O749 1.263 1_556 S
Tb744 O746 2.343 1_554 S
Tb744 O749 2.353 . S
Tb744 O752 2.427 1_554 S
Tb744 O753 2.513 1_554 S
Tb744 O754 2.453 . S
Tb744 O755 2.596 . S
Tb744 O756 2.374 . S
O745 Tb742 2.453 . S
O745 C761 1.245 . S
O746 Tb742 2.596 . S
O746 Tb744 2.343 1_556 S
O746 C761 1.259 . S
O747 Tb742 2.374 . S
O747 C743 1.251 . S
C748 O752 1.275 . S
C748 O753 1.246 . S
O749 C743 1.263 1_554 S
O749 Tb744 2.353 . S
C750 O754 1.245 . S
C750 O755 1.259 . S
C751 O756 1.250 . S
C751 O757 1.263 . S
O752 Tb744 2.427 1_556 S
O752 C748 1.275 . S
O753 Tb744 2.513 1_556 S
O753 C748 1.246 . S
O754 Tb744 2.453 . S
O754 C750 1.245 . S
O755 Tb742 2.343 1_554 S
O755 Tb744 2.596 . S
O755 C750 1.259 . S
O756 Tb744 2.374 . S
O756 C751 1.250 . S
O757 Tb742 2.353 1_554 S
O757 C751 1.263 . S
C758 O759 1.275 . S
C758 O760 1.246 . S
O759 Tb742 2.427 1_554 S
O759 C758 1.275 . S
O760 Tb742 2.513 1_554 S
O760 C758 1.246 . S
C761 O745 1.245 . S
C761 O746 1.259 . S
Tb762 O765 2.453 . S
Tb762 O766 2.596 . S
Tb762 O767 2.374 . S
Tb762 O775 2.343 . S
Tb762 O777 2.353 . S
Tb762 O779 2.427 . S
Tb762 O780 2.513 . S
C763 O767 1.251 . S
C763 O769 1.263 . S
Tb764 O766 2.343 . S
Tb764 O769 2.353 . S
Tb764 O772 2.427 . S
Tb764 O773 2.513 . S
Tb764 O774 2.453 . S
Tb764 O775 2.596 . S
Tb764 O776 2.374 . S
O765 Tb762 2.453 . S
O765 C781 1.245 . S
O766 Tb762 2.596 . S
O766 Tb764 2.343 . S
O766 C781 1.259 . S
O767 Tb762 2.374 . S
O767 C763 1.251 . S
C768 O772 1.275 . S
C768 O773 1.246 . S
O769 C763 1.263 . S
O769 Tb764 2.353 . S
C770 O774 1.245 . S
C770 O775 1.259 . S
C771 O776 1.250 . S
C771 O777 1.263 . S
O772 Tb764 2.427 . S
O772 C768 1.275 . S
O773 Tb764 2.513 . S
O773 C768 1.246 . S
O774 Tb764 2.453 . S
O774 C770 1.245 . S
O775 Tb762 2.343 . S
O775 Tb764 2.596 . S
O775 C770 1.259 . S
O776 Tb764 2.374 . S
O776 C771 1.250 . S
O777 Tb762 2.353 . S
O777 C771 1.263 . S
C778 O779 1.275 . S
C778 O780 1.246 . S
O779 Tb762 2.427 . S
O779 C778 1.275 . S
O780 Tb762 2.513 . S
O780 C778 1.246 . S
C781 O765 1.245 . S
C781 O766 1.259 . S
Tb782 O785 2.453 . S
Tb782 O786 2.596 . S
Tb782 O787 2.374 . S
Tb782 O795 2.343 . S
Tb782 O797 2.353 . S
Tb782 O799 2.427 . S
Tb782 O800 2.513 . S
C783 O787 1.251 . S
C783 O789 1.263 . S
Tb784 O786 2.343 . S
Tb784 O789 2.353 . S
Tb784 O792 2.427 . S
Tb784 O793 2.513 . S
Tb784 O794 2.453 . S
Tb784 O795 2.596 . S
Tb784 O796 2.374 . S
O785 Tb782 2.453 . S
O785 C801 1.245 . S
O786 Tb782 2.596 . S
O786 Tb784 2.343 . S
O786 C801 1.259 . S
O787 Tb782 2.374 . S
O787 C783 1.251 . S
C788 O792 1.275 . S
C788 O793 1.246 . S
O789 C783 1.263 . S
O789 Tb784 2.353 . S
C790 O794 1.245 . S
C790 O795 1.259 . S
C791 O796 1.250 . S
C791 O797 1.263 . S
O792 Tb784 2.427 . S
O792 C788 1.275 . S
O793 Tb784 2.513 . S
O793 C788 1.246 . S
O794 Tb784 2.453 . S
O794 C790 1.245 . S
O795 Tb782 2.343 . S
O795 Tb784 2.596 . S
O795 C790 1.259 . S
O796 Tb784 2.374 . S
O796 C791 1.250 . S
O797 Tb782 2.353 . S
O797 C791 1.263 . S
C798 O799 1.275 . S
C798 O800 1.246 . S
O799 Tb782 2.427 . S
O799 C798 1.275 . S
O800 Tb782 2.513 . S
O800 C798 1.246 . S
C801 O785 1.245 . S
C801 O786 1.259 . S
Tb802 O805 2.453 . S
Tb802 O806 2.596 . S
Tb802 O807 2.374 . S
Tb802 O815 2.343 . S
Tb802 O817 2.353 . S
Tb802 O819 2.427 . S
Tb802 O820 2.513 . S
C803 O807 1.251 . S
C803 O809 1.263 . S
Tb804 O806 2.343 . S
Tb804 O809 2.353 . S
Tb804 O812 2.427 . S
Tb804 O813 2.513 . S
Tb804 O814 2.453 . S
Tb804 O815 2.596 . S
Tb804 O816 2.374 . S
O805 Tb802 2.453 . S
O805 C821 1.245 . S
O806 Tb802 2.596 . S
O806 Tb804 2.343 . S
O806 C821 1.259 . S
O807 Tb802 2.374 . S
O807 C803 1.251 . S
C808 O812 1.275 . S
C808 O813 1.246 . S
O809 C803 1.263 . S
O809 Tb804 2.353 . S
C810 O814 1.245 . S
C810 O815 1.259 . S
C811 O816 1.250 . S
C811 O817 1.263 . S
O812 Tb804 2.427 . S
O812 C808 1.275 . S
O813 Tb804 2.513 . S
O813 C808 1.246 . S
O814 Tb804 2.453 . S
O814 C810 1.245 . S
O815 Tb802 2.343 . S
O815 Tb804 2.596 . S
O815 C810 1.259 . S
O816 Tb804 2.374 . S
O816 C811 1.250 . S
O817 Tb802 2.353 . S
O817 C811 1.263 . S
C818 O819 1.275 . S
C818 O820 1.246 . S
O819 Tb802 2.427 . S
O819 C818 1.275 . S
O820 Tb802 2.513 . S
O820 C818 1.246 . S
C821 O805 1.245 . S
C821 O806 1.259 . S
Tb822 O825 2.453 . S
Tb822 O826 2.596 . S
Tb822 O827 2.374 . S
Tb822 O835 2.343 . S
Tb822 O837 2.353 . S
Tb822 O839 2.427 . S
Tb822 O840 2.513 . S
C823 O827 1.251 . S
C823 O829 1.263 . S
Tb824 O826 2.343 . S
Tb824 O829 2.353 . S
Tb824 O832 2.427 . S
Tb824 O833 2.513 . S
Tb824 O834 2.453 . S
Tb824 O835 2.596 . S
Tb824 O836 2.374 . S
O825 Tb822 2.453 . S
O825 C841 1.245 . S
O826 Tb822 2.596 . S
O826 Tb824 2.343 . S
O826 C841 1.259 . S
O827 Tb822 2.374 . S
O827 C823 1.251 . S
C828 O832 1.275 . S
C828 O833 1.246 . S
O829 C823 1.263 . S
O829 Tb824 2.353 . S
C830 O834 1.245 . S
C830 O835 1.259 . S
C831 O836 1.250 . S
C831 O837 1.263 . S
O832 Tb824 2.427 . S
O832 C828 1.275 . S
O833 Tb824 2.513 . S
O833 C828 1.246 . S
O834 Tb824 2.453 . S
O834 C830 1.245 . S
O835 Tb822 2.343 . S
O835 Tb824 2.596 . S
O835 C830 1.259 . S
O836 Tb824 2.374 . S
O836 C831 1.250 . S
O837 Tb822 2.353 . S
O837 C831 1.263 . S
C838 O839 1.275 . S
C838 O840 1.246 . S
O839 Tb822 2.427 . S
O839 C838 1.275 . S
O840 Tb822 2.513 . S
O840 C838 1.246 . S
C841 O825 1.245 . S
C841 O826 1.259 . S
Tb842 O845 2.453 . S
Tb842 O846 2.596 . S
Tb842 O847 2.374 . S
Tb842 O855 2.343 . S
Tb842 O857 2.353 . S
Tb842 O859 2.427 . S
Tb842 O860 2.513 . S
C843 O847 1.251 . S
C843 O849 1.263 . S
Tb844 O846 2.343 . S
Tb844 O849 2.353 . S
Tb844 O852 2.427 . S
Tb844 O853 2.513 . S
Tb844 O854 2.453 . S
Tb844 O855 2.596 . S
Tb844 O856 2.374 . S
O845 Tb842 2.453 . S
O845 C861 1.245 . S
O846 Tb842 2.596 . S
O846 Tb844 2.343 . S
O846 C861 1.259 . S
O847 Tb842 2.374 . S
O847 C843 1.251 . S
C848 O852 1.275 . S
C848 O853 1.246 . S
O849 C843 1.263 . S
O849 Tb844 2.353 . S
C850 O854 1.245 . S
C850 O855 1.259 . S
C851 O856 1.250 . S
C851 O857 1.263 . S
O852 Tb844 2.427 . S
O852 C848 1.275 . S
O853 Tb844 2.513 . S
O853 C848 1.246 . S
O854 Tb844 2.453 . S
O854 C850 1.245 . S
O855 Tb842 2.343 . S
O855 Tb844 2.596 . S
O855 C850 1.259 . S
O856 Tb844 2.374 . S
O856 C851 1.250 . S
O857 Tb842 2.353 . S
O857 C851 1.263 . S
C858 O859 1.275 . S
C858 O860 1.246 . S
O859 Tb842 2.427 . S
O859 C858 1.275 . S
O860 Tb842 2.513 . S
O860 C858 1.246 . S
C861 O845 1.245 . S
C861 O846 1.259 . S
Tb862 O865 2.453 . S
Tb862 O866 2.596 . S
Tb862 O867 2.374 . S
Tb862 O875 2.343 . S
Tb862 O877 2.353 . S
Tb862 O879 2.427 . S
Tb862 O880 2.513 . S
C863 O867 1.251 . S
C863 O869 1.263 . S
Tb864 O866 2.343 . S
Tb864 O869 2.353 . S
Tb864 O872 2.427 . S
Tb864 O873 2.513 . S
Tb864 O874 2.453 . S
Tb864 O875 2.596 . S
Tb864 O876 2.374 . S
O865 Tb862 2.453 . S
O865 C881 1.245 . S
O866 Tb862 2.596 . S
O866 Tb864 2.343 . S
O866 C881 1.259 . S
O867 Tb862 2.374 . S
O867 C863 1.251 . S
C868 O872 1.275 . S
C868 O873 1.246 . S
O869 C863 1.263 . S
O869 Tb864 2.353 . S
C870 O874 1.245 . S
C870 O875 1.259 . S
C871 O876 1.250 . S
C871 O877 1.263 . S
O872 Tb864 2.427 . S
O872 C868 1.275 . S
O873 Tb864 2.513 . S
O873 C868 1.246 . S
O874 Tb864 2.453 . S
O874 C870 1.245 . S
O875 Tb862 2.343 . S
O875 Tb864 2.596 . S
O875 C870 1.259 . S
O876 Tb864 2.374 . S
O876 C871 1.250 . S
O877 Tb862 2.353 . S
O877 C871 1.263 . S
C878 O879 1.275 . S
C878 O880 1.246 . S
O879 Tb862 2.427 . S
O879 C878 1.275 . S
O880 Tb862 2.513 . S
O880 C878 1.246 . S
C881 O865 1.245 . S
C881 O866 1.259 . S
C882 C883 1.363 . S
C882 C888 1.379 . S
C882 N890 1.356 . S
C883 C882 1.363 . S
C883 C889 1.363 . S
C884 C885 1.363 . S
C884 C889 1.379 . S
C884 N891 1.356 . S
C885 C884 1.363 . S
C885 C888 1.363 . S
N886 C888 1.356 . S
N886 H898 0.984 . S
N886 H899 0.985 . S
N887 C889 1.356 . S
N887 H892 0.984 . S
N887 H893 0.985 . S
C888 C882 1.379 . S
C888 C885 1.363 . S
C888 N886 1.356 . S
C889 C883 1.363 . S
C889 C884 1.379 . S
C889 N887 1.356 . S
N890 C882 1.356 . S
N890 H896 0.984 . S
N890 H897 0.984 . S
N891 C884 1.356 . S
N891 H894 0.984 . S
N891 H895 0.985 . S
H892 N887 0.984 . S
H893 N887 0.985 . S
H894 N891 0.984 . S
H895 N891 0.985 . S
H896 N890 0.984 . S
H897 N890 0.984 . S
H898 N886 0.984 . S
H899 N886 0.985 . S
C900 C901 1.363 . S
C900 C906 1.379 . S
C900 N908 1.356 . S
C901 C900 1.363 . S
C901 C907 1.363 . S
C902 C903 1.363 . S
C902 C907 1.379 . S
C902 N909 1.356 . S
C903 C902 1.363 . S
C903 C906 1.363 . S
N904 C906 1.356 . S
N904 H916 0.984 . S
N904 H917 0.985 . S
N905 C907 1.356 . S
N905 H910 0.984 . S
N905 H911 0.985 . S
C906 C900 1.379 . S
C906 C903 1.363 . S
C906 N904 1.356 . S
C907 C901 1.363 . S
C907 C902 1.379 . S
C907 N905 1.356 . S
N908 C900 1.356 . S
N908 H914 0.984 . S
N908 H915 0.984 . S
N909 C902 1.356 . S
N909 H912 0.984 . S
N909 H913 0.985 . S
H910 N905 0.984 . S
H911 N905 0.985 . S
H912 N909 0.984 . S
H913 N909 0.985 . S
H914 N908 0.984 . S
H915 N908 0.984 . S
H916 N904 0.984 . S
H917 N904 0.985 . S
C918 C919 1.363 . S
C918 C924 1.379 . S
C918 N926 1.356 . S
C919 C918 1.363 . S
C919 C925 1.363 . S
C920 C921 1.363 . S
C920 C925 1.379 . S
C920 N927 1.356 1_554 S
C921 C920 1.363 . S
C921 C924 1.363 . S
N922 C924 1.356 . S
N922 H934 0.984 . S
N922 H935 0.985 . S
N923 C925 1.356 . S
N923 H928 0.984 . S
N923 H929 0.985 1_554 S
C924 C918 1.379 . S
C924 C921 1.363 . S
C924 N922 1.356 . S
C925 C919 1.363 . S
C925 C920 1.379 . S
C925 N923 1.356 . S
N926 C918 1.356 . S
N926 H932 0.984 . S
N926 H933 0.984 . S
N927 C920 1.356 1_556 S
N927 H930 0.984 . S
N927 H931 0.985 . S
H928 N923 0.984 . S
H929 N923 0.985 1_556 S
H930 N927 0.984 . S
H931 N927 0.985 . S
H932 N926 0.984 . S
H933 N926 0.984 . S
H934 N922 0.984 . S
H935 N922 0.985 . S
C936 C937 1.363 . S
C936 C942 1.379 . S
C936 N944 1.356 . S
C937 C936 1.363 . S
C937 C943 1.363 . S
C938 C939 1.363 . S
C938 C943 1.379 . S
C938 N945 1.356 . S
C939 C938 1.363 . S
C939 C942 1.363 . S
N940 C942 1.356 . S
N940 H952 0.984 . S
N940 H953 0.985 . S
N941 C943 1.356 . S
N941 H946 0.984 . S
N941 H947 0.985 . S
C942 C936 1.379 . S
C942 C939 1.363 . S
C942 N940 1.356 . S
C943 C937 1.363 . S
C943 C938 1.379 . S
C943 N941 1.356 . S
N944 C936 1.356 . S
N944 H950 0.984 . S
N944 H951 0.984 . S
N945 C938 1.356 . S
N945 H948 0.986 1_556 S
N945 H949 0.985 1_556 S
H946 N941 0.984 . S
H947 N941 0.985 . S
H948 N945 0.986 1_554 S
H949 N945 0.985 1_554 S
H950 N944 0.984 . S
H951 N944 0.984 . S
H952 N940 0.984 . S
H953 N940 0.985 . S
C954 C955 1.363 . S
C954 C960 1.379 . S
C954 N962 1.356 . S
C955 C954 1.363 . S
C955 C961 1.363 . S
C956 C957 1.363 . S
C956 C961 1.379 . S
C956 N963 1.356 . S
C957 C956 1.363 . S
C957 C960 1.363 . S
N958 C960 1.356 . S
N958 H970 0.984 . S
N958 H971 0.985 . S
N959 C961 1.356 . S
N959 H964 0.984 . S
N959 H965 0.985 . S
C960 C954 1.379 . S
C960 C957 1.363 . S
C960 N958 1.356 . S
C961 C955 1.363 . S
C961 C956 1.379 . S
C961 N959 1.356 . S
N962 C954 1.356 . S
N962 H968 0.984 . S
N962 H969 0.984 . S
N963 C956 1.356 . S
N963 H966 0.984 . S
N963 H967 0.985 . S
H964 N959 0.984 . S
H965 N959 0.985 . S
H966 N963 0.984 . S
H967 N963 0.985 . S
H968 N962 0.984 . S
H969 N962 0.984 . S
H970 N958 0.984 . S
H971 N958 0.985 . S
C972 C973 1.363 . S
C972 C978 1.379 . S
C972 N980 1.356 . S
C973 C972 1.363 . S
C973 C979 1.363 . S
C974 C975 1.363 . S
C974 C979 1.379 . S
C974 N981 1.334 1_556 S
C975 C974 1.363 . S
C975 C978 1.363 . S
N976 C978 1.356 . S
N976 H988 0.984 1_545 S
N976 H989 0.985 . S
N977 C979 1.356 . S
N977 H982 0.984 . S
N977 H983 0.985 . S
C978 C972 1.379 . S
C978 C975 1.363 . S
C978 N976 1.356 . S
C979 C973 1.363 . S
C979 C974 1.379 . S
C979 N977 1.356 . S
N980 C972 1.356 . S
N980 H986 0.984 . S
N980 H987 0.984 . S
N981 C974 1.334 1_554 S
N981 H984 0.995 . S
N981 H985 1.000 . S
H982 N977 0.984 . S
H983 N977 0.985 . S
H984 N981 0.995 . S
H985 N981 1.000 . S
H986 N980 0.984 . S
H987 N980 0.984 . S
H988 N976 0.984 1_565 S
H989 N976 0.985 . S
C990 C991 1.363 . S
C990 C996 1.379 . S
C990 N998 1.356 . S
C991 C990 1.363 . S
C991 C997 1.363 . S
C992 C993 1.363 . S
C992 C997 1.379 . S
C992 N999 1.356 . S
C993 C992 1.363 . S
C993 C996 1.363 . S
N994 C996 1.356 . S
N994 H1006 0.984 . S
N994 H1007 0.985 . S
N995 C997 1.356 . S
N995 H1000 0.984 . S
N995 H1001 0.985 . S
C996 C990 1.379 . S
C996 C993 1.363 . S
C996 N994 1.356 . S
C997 C991 1.363 . S
C997 C992 1.379 . S
C997 N995 1.356 . S
N998 C990 1.356 . S
N998 H1004 0.984 . S
N998 H1005 0.984 . S
N999 C992 1.356 . S
N999 H1002 0.984 . S
N999 H1003 0.985 . S
H1000 N995 0.984 . S
H1001 N995 0.985 . S
H1002 N999 0.984 . S
H1003 N999 0.985 . S
H1004 N998 0.984 . S
H1005 N998 0.984 . S
H1006 N994 0.984 . S
H1007 N994 0.985 . S
C1008 C1009 1.363 . S
C1008 C1014 1.379 . S
C1008 N1016 1.356 . S
C1009 C1008 1.363 . S
C1009 C1015 1.363 . S
C1010 C1011 1.363 . S
C1010 C1015 1.379 . S
C1010 N1017 1.356 . S
C1011 C1010 1.363 . S
C1011 C1014 1.363 . S
N1012 C1014 1.356 . S
N1012 H1024 0.984 . S
N1012 H1025 0.985 . S
N1013 C1015 1.356 . S
N1013 H1018 0.984 . S
N1013 H1019 0.985 . S
C1014 C1008 1.379 . S
C1014 C1011 1.363 . S
C1014 N1012 1.356 . S
C1015 C1009 1.363 . S
C1015 C1010 1.379 . S
C1015 N1013 1.356 . S
N1016 C1008 1.356 . S
N1016 H1022 0.984 . S
N1016 H1023 0.984 . S
N1017 C1010 1.356 . S
N1017 H1020 0.984 . S
N1017 H1021 0.985 . S
H1018 N1013 0.984 . S
H1019 N1013 0.985 . S
H1020 N1017 0.984 . S
H1021 N1017 0.985 . S
H1022 N1016 0.984 . S
H1023 N1016 0.984 . S
H1024 N1012 0.984 . S
H1025 N1012 0.985 . S
C1026 C1027 1.363 . S
C1026 C1032 1.379 . S
C1026 N1034 1.356 . S
C1027 C1026 1.363 . S
C1027 C1033 1.363 . S
C1028 C1029 1.363 . S
C1028 C1033 1.379 . S
C1028 N1035 1.356 1_556 S
C1029 C1028 1.363 . S
C1029 C1032 1.363 . S
N1030 C1032 1.356 . S
N1030 H1042 0.984 . S
N1030 H1043 0.985 . S
N1031 C1033 1.356 . S
N1031 H1036 0.984 . S
N1031 H1037 0.985 1_556 S
C1032 C1026 1.379 . S
C1032 C1029 1.363 . S
C1032 N1030 1.356 . S
C1033 C1027 1.363 . S
C1033 C1028 1.379 . S
C1033 N1031 1.356 . S
N1034 C1026 1.356 . S
N1034 H1040 0.984 . S
N1034 H1041 0.984 . S
N1035 C1028 1.356 1_554 S
N1035 H1038 0.984 . S
N1035 H1039 0.985 . S
H1036 N1031 0.984 . S
H1037 N1031 0.985 1_554 S
H1038 N1035 0.984 . S
H1039 N1035 0.985 . S
H1040 N1034 0.984 . S
H1041 N1034 0.984 . S
H1042 N1030 0.984 . S
H1043 N1030 0.985 . S
C1044 C1045 1.363 . S
C1044 C1050 1.379 . S
C1044 N1052 1.356 . S
C1045 C1044 1.363 . S
C1045 C1051 1.363 . S
C1046 C1047 1.363 . S
C1046 C1051 1.379 . S
C1046 N1053 1.356 . S
C1047 C1046 1.363 . S
C1047 C1050 1.363 . S
N1048 C1050 1.356 1_556 S
N1048 H1060 0.984 . S
N1048 H1061 0.985 . S
N1049 C1051 1.356 . S
N1049 H1054 0.984 . S
N1049 H1055 0.985 . S
C1050 C1044 1.379 . S
C1050 C1047 1.363 . S
C1050 N1048 1.356 1_554 S
C1051 C1045 1.363 . S
C1051 C1046 1.379 . S
C1051 N1049 1.356 . S
N1052 C1044 1.356 . S
N1052 H1058 0.984 1_554 S
N1052 H1059 0.984 . S
N1053 C1046 1.356 . S
N1053 H1056 0.984 . S
N1053 H1057 0.985 . S
H1054 N1049 0.984 . S
H1055 N1049 0.985 . S
H1056 N1053 0.984 . S
H1057 N1053 0.985 . S
H1058 N1052 0.984 1_556 S
H1059 N1052 0.984 . S
H1060 N1048 0.984 . S
H1061 N1048 0.985 . S
C1062 C1063 1.363 . S
C1062 C1068 1.379 . S
C1062 N1070 1.356 . S
C1063 C1062 1.363 . S
C1063 C1069 1.363 . S
C1064 C1065 1.363 . S
C1064 C1069 1.379 . S
C1064 N1071 1.356 . S
C1065 C1064 1.363 . S
C1065 C1068 1.363 . S
N1066 C1068 1.356 . S
N1066 H1078 0.984 . S
N1066 H1079 0.985 . S
N1067 C1069 1.356 . S
N1067 H1072 0.984 . S
N1067 H1073 0.985 . S
C1068 C1062 1.379 . S
C1068 C1065 1.363 . S
C1068 N1066 1.356 . S
C1069 C1063 1.363 . S
C1069 C1064 1.379 . S
C1069 N1067 1.356 . S
N1070 C1062 1.356 . S
N1070 H1076 0.984 . S
N1070 H1077 0.984 . S
N1071 C1064 1.356 . S
N1071 H1074 0.984 . S
N1071 H1075 0.985 . S
H1072 N1067 0.984 . S
H1073 N1067 0.985 . S
H1074 N1071 0.984 . S
H1075 N1071 0.985 . S
H1076 N1070 0.984 . S
H1077 N1070 0.984 . S
H1078 N1066 0.984 . S
H1079 N1066 0.985 . S
C1080 C1081 1.363 . S
C1080 C1086 1.379 . S
C1080 N1088 1.356 . S
C1081 C1080 1.363 . S
C1081 C1087 1.363 . S
C1082 C1083 1.363 . S
C1082 C1087 1.379 . S
C1082 N1089 1.356 . S
C1083 C1082 1.363 . S
C1083 C1086 1.363 . S
N1084 C1086 1.356 1_556 S
N1084 H1096 0.984 . S
N1084 H1097 0.985 . S
N1085 C1087 1.356 . S
N1085 H1090 0.984 . S
N1085 H1091 0.985 . S
C1086 C1080 1.379 . S
C1086 C1083 1.363 . S
C1086 N1084 1.356 1_554 S
C1087 C1081 1.363 . S
C1087 C1082 1.379 . S
C1087 N1085 1.356 . S
N1088 C1080 1.356 . S
N1088 H1094 0.984 1_554 S
N1088 H1095 0.984 . S
N1089 C1082 1.356 . S
N1089 H1092 0.984 . S
N1089 H1093 0.985 . S
H1090 N1085 0.984 . S
H1091 N1085 0.985 . S
H1092 N1089 0.984 . S
H1093 N1089 0.985 . S
H1094 N1088 0.984 1_556 S
H1095 N1088 0.984 . S
H1096 N1084 0.984 . S
H1097 N1084 0.985 . S
C1098 C1099 1.363 . S
C1098 C1104 1.379 . S
C1098 N1106 1.356 1_455 S
C1099 C1098 1.363 . S
C1099 C1105 1.363 . S
C1100 C1101 1.363 . S
C1100 C1105 1.379 . S
C1100 N1107 1.356 . S
C1101 C1100 1.363 . S
C1101 C1104 1.363 . S
N1102 C1104 1.356 . S
N1102 H1114 0.984 . S
N1102 H1115 0.985 . S
N1103 C1105 1.356 . S
N1103 H1108 0.984 1_455 S
N1103 H1109 0.985 . S
C1104 C1098 1.379 . S
C1104 C1101 1.363 . S
C1104 N1102 1.356 . S
C1105 C1099 1.363 . S
C1105 C1100 1.379 . S
C1105 N1103 1.356 . S
N1106 C1098 1.356 1_655 S
N1106 H1112 0.984 . S
N1106 H1113 0.984 . S
N1107 C1100 1.356 . S
N1107 H1110 0.984 . S
N1107 H1111 0.985 . S
H1108 N1103 0.984 1_655 S
H1109 N1103 0.985 . S
H1110 N1107 0.984 . S
H1111 N1107 0.985 . S
H1112 N1106 0.984 . S
H1113 N1106 0.984 . S
H1114 N1102 0.984 . S
H1115 N1102 0.985 . S
C1116 C1117 1.363 . S
C1116 C1122 1.379 . S
C1116 N1124 1.356 . S
C1117 C1116 1.363 . S
C1117 C1123 1.363 . S
C1118 C1119 1.363 . S
C1118 C1123 1.379 . S
C1118 N1125 1.356 . S
C1119 C1118 1.363 . S
C1119 C1122 1.363 . S
N1120 C1122 1.356 . S
N1120 H1132 0.984 . S
N1120 H1133 0.985 . S
N1121 C1123 1.356 . S
N1121 H1126 0.984 . S
N1121 H1127 0.985 . S
C1122 C1116 1.379 . S
C1122 C1119 1.363 . S
C1122 N1120 1.356 . S
C1123 C1117 1.363 . S
C1123 C1118 1.379 . S
C1123 N1121 1.356 . S
N1124 C1116 1.356 . S
N1124 H1130 0.984 . S
N1124 H1131 0.984 . S
N1125 C1118 1.356 . S
N1125 H1128 0.984 . S
N1125 H1129 0.985 . S
H1126 N1121 0.984 . S
H1127 N1121 0.985 . S
H1128 N1125 0.984 . S
H1129 N1125 0.985 . S
H1130 N1124 0.984 . S
H1131 N1124 0.984 . S
H1132 N1120 0.984 . S
H1133 N1120 0.985 . S
C1134 C1135 1.363 . S
C1134 C1140 1.379 . S
C1134 N1142 1.356 . S
C1135 C1134 1.363 . S
C1135 C1141 1.363 . S
C1136 C1137 1.363 . S
C1136 C1141 1.379 . S
C1136 N1143 1.356 . S
C1137 C1136 1.363 . S
C1137 C1140 1.363 . S
N1138 C1140 1.356 . S
N1138 H1150 0.984 . S
N1138 H1151 0.985 . S
N1139 C1141 1.356 1_545 S
N1139 H1144 0.984 . S
N1139 H1145 0.985 . S
C1140 C1134 1.379 . S
C1140 C1137 1.363 . S
C1140 N1138 1.356 . S
C1141 C1135 1.363 . S
C1141 C1136 1.379 . S
C1141 N1139 1.356 1_565 S
N1142 C1134 1.356 . S
N1142 H1148 0.984 . S
N1142 H1149 0.984 1_565 S
N1143 C1136 1.356 . S
N1143 H1146 0.984 . S
N1143 H1147 0.985 . S
H1144 N1139 0.984 . S
H1145 N1139 0.985 . S
H1146 N1143 0.984 . S
H1147 N1143 0.985 . S
H1148 N1142 0.984 . S
H1149 N1142 0.984 1_545 S
H1150 N1138 0.984 . S
H1151 N1138 0.985 . S
C1152 C1153 1.363 . S
C1152 C1158 1.379 . S
C1152 N1160 1.356 . S
C1153 C1152 1.363 . S
C1153 C1159 1.363 . S
C1154 C1155 1.363 . S
C1154 C1159 1.379 . S
C1154 N1161 1.356 . S
C1155 C1154 1.363 . S
C1155 C1158 1.363 . S
N1156 C1158 1.356 . S
N1156 H1168 0.984 . S
N1156 H1169 0.985 . S
N1157 C1159 1.356 . S
N1157 H1162 0.984 . S
N1157 H1163 0.985 . S
C1158 C1152 1.379 . S
C1158 C1155 1.363 . S
C1158 N1156 1.356 . S
C1159 C1153 1.363 . S
C1159 C1154 1.379 . S
C1159 N1157 1.356 . S
N1160 C1152 1.356 . S
N1160 H1166 0.984 . S
N1160 H1167 0.984 . S
N1161 C1154 1.356 . S
N1161 H1164 0.984 . S
N1161 H1165 0.985 . S
H1162 N1157 0.984 . S
H1163 N1157 0.985 . S
H1164 N1161 0.984 . S
H1165 N1161 0.985 . S
H1166 N1160 0.984 . S
H1167 N1160 0.984 . S
H1168 N1156 0.984 . S
H1169 N1156 0.985 . S
C1170 C1171 1.363 . S
C1170 C1176 1.379 . S
C1170 N1178 1.356 . S
C1171 C1170 1.363 . S
C1171 C1177 1.363 . S
C1172 C1173 1.363 . S
C1172 C1177 1.379 . S
C1172 N1179 1.356 . S
C1173 C1172 1.363 . S
C1173 C1176 1.363 . S
N1174 C1176 1.356 . S
N1174 H1186 0.984 . S
N1174 H1187 0.985 . S
N1175 C1177 1.356 . S
N1175 H1180 0.984 . S
N1175 H1181 0.985 . S
C1176 C1170 1.379 . S
C1176 C1173 1.363 . S
C1176 N1174 1.356 . S
C1177 C1171 1.363 . S
C1177 C1172 1.379 . S
C1177 N1175 1.356 . S
N1178 C1170 1.356 . S
N1178 H1184 0.984 . S
N1178 H1185 0.984 . S
N1179 C1172 1.356 . S
N1179 H1182 0.984 . S
N1179 H1183 0.985 . S
H1180 N1175 0.984 . S
H1181 N1175 0.985 . S
H1182 N1179 0.984 . S
H1183 N1179 0.985 . S
H1184 N1178 0.984 . S
H1185 N1178 0.984 . S
H1186 N1174 0.984 . S
H1187 N1174 0.985 . S
C1188 C1189 1.363 . S
C1188 C1194 1.379 . S
C1188 N1196 1.356 . S
C1189 C1188 1.363 . S
C1189 C1195 1.363 . S
C1190 C1191 1.363 . S
C1190 C1195 1.379 . S
C1190 N1197 1.356 . S
C1191 C1190 1.363 . S
C1191 C1194 1.363 . S
N1192 C1194 1.356 . S
N1192 H1204 0.984 . S
N1192 H1205 0.985 . S
N1193 C1195 1.356 . S
N1193 H1198 0.984 . S
N1193 H1199 0.985 . S
C1194 C1188 1.379 . S
C1194 C1191 1.363 . S
C1194 N1192 1.356 . S
C1195 C1189 1.363 . S
C1195 C1190 1.379 . S
C1195 N1193 1.356 . S
N1196 C1188 1.356 . S
N1196 H1202 0.984 . S
N1196 H1203 0.984 . S
N1197 C1190 1.356 . S
N1197 H1200 0.984 . S
N1197 H1201 0.985 . S
H1198 N1193 0.984 . S
H1199 N1193 0.985 . S
H1200 N1197 0.984 . S
H1201 N1197 0.985 . S
H1202 N1196 0.984 . S
H1203 N1196 0.984 . S
H1204 N1192 0.984 . S
H1205 N1192 0.985 . S
C1206 C1207 1.363 . S
C1206 C1212 1.379 . S
C1206 N1214 1.356 . S
C1207 C1206 1.363 . S
C1207 C1213 1.363 . S
C1208 C1209 1.363 . S
C1208 C1213 1.379 . S
C1208 N1215 1.356 . S
C1209 C1208 1.363 . S
C1209 C1212 1.363 . S
N1210 C1212 1.356 . S
N1210 H1222 0.984 . S
N1210 H1223 0.985 . S
N1211 C1213 1.356 . S
N1211 H1216 0.984 . S
N1211 H1217 0.985 . S
C1212 C1206 1.379 . S
C1212 C1209 1.363 . S
C1212 N1210 1.356 . S
C1213 C1207 1.363 . S
C1213 C1208 1.379 . S
C1213 N1211 1.356 . S
N1214 C1206 1.356 . S
N1214 H1220 0.984 . S
N1214 H1221 0.984 . S
N1215 C1208 1.356 . S
N1215 H1218 0.984 . S
N1215 H1219 0.985 . S
H1216 N1211 0.984 . S
H1217 N1211 0.985 . S
H1218 N1215 0.984 . S
H1219 N1215 0.985 . S
H1220 N1214 0.984 . S
H1221 N1214 0.984 . S
H1222 N1210 0.984 . S
H1223 N1210 0.985 . S
C1224 C1225 1.363 . S
C1224 C1230 1.379 . S
C1224 N1232 1.356 . S
C1225 C1224 1.363 . S
C1225 C1231 1.363 . S
C1226 C1227 1.363 . S
C1226 C1231 1.379 . S
C1226 N1233 1.356 . S
C1227 C1226 1.363 . S
C1227 C1230 1.363 . S
N1228 C1230 1.356 . S
N1228 H1240 0.984 . S
N1228 H1241 0.985 . S
N1229 C1231 1.356 . S
N1229 H1234 0.984 . S
N1229 H1235 0.985 . S
C1230 C1224 1.379 . S
C1230 C1227 1.363 . S
C1230 N1228 1.356 . S
C1231 C1225 1.363 . S
C1231 C1226 1.379 . S
C1231 N1229 1.356 . S
N1232 C1224 1.356 . S
N1232 H1238 0.984 . S
N1232 H1239 0.984 . S
N1233 C1226 1.356 . S
N1233 H1236 0.984 . S
N1233 H1237 0.985 . S
H1234 N1229 0.984 . S
H1235 N1229 0.985 . S
H1236 N1233 0.984 . S
H1237 N1233 0.985 . S
H1238 N1232 0.984 . S
H1239 N1232 0.984 . S
H1240 N1228 0.984 . S
H1241 N1228 0.985 . S
C1242 C1243 1.363 . S
C1242 C1248 1.379 . S
C1242 N1250 1.356 . S
C1243 C1242 1.363 . S
C1243 C1249 1.363 . S
C1244 C1245 1.363 . S
C1244 C1249 1.379 . S
C1244 N1251 1.356 . S
C1245 C1244 1.363 . S
C1245 C1248 1.363 . S
N1246 C1248 1.356 . S
N1246 H1258 0.984 . S
N1246 H1259 0.985 . S
N1247 C1249 1.356 . S
N1247 H1252 0.984 . S
N1247 H1253 0.985 . S
C1248 C1242 1.379 . S
C1248 C1245 1.363 . S
C1248 N1246 1.356 . S
C1249 C1243 1.363 . S
C1249 C1244 1.379 . S
C1249 N1247 1.356 . S
N1250 C1242 1.356 . S
N1250 H1256 0.984 . S
N1250 H1257 0.984 . S
N1251 C1244 1.356 . S
N1251 H1254 0.984 . S
N1251 H1255 0.985 . S
H1252 N1247 0.984 . S
H1253 N1247 0.985 . S
H1254 N1251 0.984 . S
H1255 N1251 0.985 . S
H1256 N1250 0.984 . S
H1257 N1250 0.984 . S
H1258 N1246 0.984 . S
H1259 N1246 0.985 . S
C1260 C1261 1.363 . S
C1260 C1266 1.379 . S
C1260 N1268 1.356 1_565 S
C1261 C1260 1.363 . S
C1261 C1267 1.363 . S
C1262 C1263 1.363 . S
C1262 C1267 1.379 . S
C1262 N1269 1.356 . S
C1263 C1262 1.363 . S
C1263 C1266 1.363 . S
N1264 C1266 1.356 . S
N1264 H1276 0.984 . S
N1264 H1277 0.985 . S
N1265 C1267 1.356 . S
N1265 H1270 0.984 1_565 S
N1265 H1271 0.985 . S
C1266 C1260 1.379 . S
C1266 C1263 1.363 . S
C1266 N1264 1.356 . S
C1267 C1261 1.363 . S
C1267 C1262 1.379 . S
C1267 N1265 1.356 . S
N1268 C1260 1.356 1_545 S
N1268 H1274 0.984 . S
N1268 H1275 0.984 . S
N1269 C1262 1.356 . S
N1269 H1272 0.984 . S
N1269 H1273 0.985 . S
H1270 N1265 0.984 1_545 S
H1271 N1265 0.985 . S
H1272 N1269 0.984 . S
H1273 N1269 0.985 . S
H1274 N1268 0.984 . S
H1275 N1268 0.984 . S
H1276 N1264 0.984 . S
H1277 N1264 0.985 . S
C1278 C1279 1.363 . S
C1278 C1284 1.379 . S
C1278 N1286 1.356 . S
C1279 C1278 1.363 . S
C1279 C1285 1.363 . S
C1280 C1281 1.363 . S
C1280 C1285 1.379 . S
C1280 N1287 1.356 . S
C1281 C1280 1.363 . S
C1281 C1284 1.363 . S
N1282 C1284 1.356 . S
N1282 H1294 0.984 . S
N1282 H1295 0.985 . S
N1283 C1285 1.356 . S
N1283 H1288 0.984 1_455 S
N1283 H1289 0.985 . S
C1284 C1278 1.379 . S
C1284 C1281 1.363 . S
C1284 N1282 1.356 . S
C1285 C1279 1.363 . S
C1285 C1280 1.379 . S
C1285 N1283 1.356 . S
N1286 C1278 1.356 . S
N1286 H1292 0.984 . S
N1286 H1293 0.984 1_455 S
N1287 C1280 1.356 . S
N1287 H1290 0.984 . S
N1287 H1291 0.985 . S
H1288 N1283 0.984 1_655 S
H1289 N1283 0.985 . S
H1290 N1287 0.984 . S
H1291 N1287 0.985 . S
H1292 N1286 0.984 . S
H1293 N1286 0.984 1_655 S
H1294 N1282 0.984 . S
H1295 N1282 0.985 . S
C1296 C1297 1.363 . S
C1296 C1302 1.379 . S
C1296 N1304 1.356 . S
C1297 C1296 1.363 . S
C1297 C1303 1.363 . S
C1298 C1299 1.363 . S
C1298 C1303 1.379 . S
C1298 N1305 1.356 . S
C1299 C1298 1.363 . S
C1299 C1302 1.363 . S
N1300 C1302 1.356 . S
N1300 H1312 0.984 . S
N1300 H1313 0.985 . S
N1301 C1303 1.356 . S
N1301 H1306 0.984 . S
N1301 H1307 0.985 . S
C1302 C1296 1.379 . S
C1302 C1299 1.363 . S
C1302 N1300 1.356 . S
C1303 C1297 1.363 . S
C1303 C1298 1.379 . S
C1303 N1301 1.356 . S
N1304 C1296 1.356 . S
N1304 H1310 0.984 . S
N1304 H1311 0.984 . S
N1305 C1298 1.356 . S
N1305 H1308 0.984 . S
N1305 H1309 0.985 . S
H1306 N1301 0.984 . S
H1307 N1301 0.985 . S
H1308 N1305 0.984 . S
H1309 N1305 0.985 . S
H1310 N1304 0.984 . S
H1311 N1304 0.984 . S
H1312 N1300 0.984 . S
H1313 N1300 0.985 . S
C1314 C1315 1.363 . S
C1314 C1320 1.379 . S
C1314 N1322 1.356 . S
C1315 C1314 1.363 . S
C1315 C1321 1.363 . S
C1316 C1317 1.363 . S
C1316 C1321 1.379 . S
C1316 N1323 1.356 . S
C1317 C1316 1.363 . S
C1317 C1320 1.363 . S
N1318 C1320 1.356 . S
N1318 H1330 0.984 . S
N1318 H1331 0.985 . S
N1319 C1321 1.356 . S
N1319 H1324 0.984 . S
N1319 H1325 0.985 . S
C1320 C1314 1.379 . S
C1320 C1317 1.363 . S
C1320 N1318 1.356 . S
C1321 C1315 1.363 . S
C1321 C1316 1.379 . S
C1321 N1319 1.356 . S
N1322 C1314 1.356 . S
N1322 H1328 0.984 . S
N1322 H1329 0.984 . S
N1323 C1316 1.356 . S
N1323 H1326 0.984 . S
N1323 H1327 0.985 . S
H1324 N1319 0.984 . S
H1325 N1319 0.985 . S
H1326 N1323 0.984 . S
H1327 N1323 0.985 . S
H1328 N1322 0.984 . S
H1329 N1322 0.984 . S
H1330 N1318 0.984 . S
H1331 N1318 0.985 . S
C1332 C1333 1.363 . S
C1332 C1338 1.379 . S
C1332 N1340 1.356 . S
C1333 C1332 1.363 . S
C1333 C1339 1.363 . S
C1334 C1335 1.363 . S
C1334 C1339 1.379 . S
C1334 N1341 1.356 . S
C1335 C1334 1.363 . S
C1335 C1338 1.363 . S
N1336 C1338 1.356 . S
N1336 H1348 0.984 . S
N1336 H1349 0.985 . S
N1337 C1339 1.356 . S
N1337 H1342 0.984 . S
N1337 H1343 0.985 . S
C1338 C1332 1.379 . S
C1338 C1335 1.363 . S
C1338 N1336 1.356 . S
C1339 C1333 1.363 . S
C1339 C1334 1.379 . S
C1339 N1337 1.356 . S
N1340 C1332 1.356 . S
N1340 H1346 0.984 . S
N1340 H1347 0.984 . S
N1341 C1334 1.356 . S
N1341 H1344 0.984 . S
N1341 H1345 0.985 . S
H1342 N1337 0.984 . S
H1343 N1337 0.985 . S
H1344 N1341 0.984 . S
H1345 N1341 0.985 . S
H1346 N1340 0.984 . S
H1347 N1340 0.984 . S
H1348 N1336 0.984 . S
H1349 N1336 0.985 . S
C1350 C1351 1.363 . S
C1350 C1356 1.379 . S
C1350 N1358 1.356 . S
C1351 C1350 1.363 . S
C1351 C1357 1.363 . S
C1352 C1353 1.363 . S
C1352 C1357 1.379 . S
C1352 N1359 1.356 . S
C1353 C1352 1.363 . S
C1353 C1356 1.363 . S
N1354 C1356 1.356 . S
N1354 H1366 0.984 . S
N1354 H1367 0.985 . S
N1355 C1357 1.356 . S
N1355 H1360 0.984 . S
N1355 H1361 0.985 . S
C1356 C1350 1.379 . S
C1356 C1353 1.363 . S
C1356 N1354 1.356 . S
C1357 C1351 1.363 . S
C1357 C1352 1.379 . S
C1357 N1355 1.356 . S
N1358 C1350 1.356 . S
N1358 H1364 0.984 . S
N1358 H1365 0.984 . S
N1359 C1352 1.356 . S
N1359 H1362 0.984 . S
N1359 H1363 0.985 . S
H1360 N1355 0.984 . S
H1361 N1355 0.985 . S
H1362 N1359 0.984 . S
H1363 N1359 0.985 . S
H1364 N1358 0.984 . S
H1365 N1358 0.984 . S
H1366 N1354 0.984 . S
H1367 N1354 0.985 . S
C1368 C1369 1.363 . S
C1368 C1374 1.379 . S
C1368 N1376 1.351 1_545 S
C1369 C1368 1.363 . S
C1369 C1375 1.363 . S
C1370 C1371 1.363 . S
C1370 C1375 1.379 . S
C1370 N1377 1.356 . S
C1371 C1370 1.363 . S
C1371 C1374 1.363 . S
N1372 C1374 1.356 . S
N1372 H1384 0.984 . S
N1372 H1385 0.985 . S
N1373 C1375 1.356 . S
N1373 H1378 0.984 1_545 S
N1373 H1379 0.985 . S
C1374 C1368 1.379 . S
C1374 C1371 1.363 . S
C1374 N1372 1.356 . S
C1375 C1369 1.363 . S
C1375 C1370 1.379 . S
C1375 N1373 1.356 . S
N1376 C1368 1.351 1_565 S
N1376 H1382 0.980 1_565 S
N1376 H1383 0.994 . S
N1377 C1370 1.356 . S
N1377 H1380 0.984 . S
N1377 H1381 0.985 . S
H1378 N1373 0.984 1_565 S
H1379 N1373 0.985 . S
H1380 N1377 0.984 . S
H1381 N1377 0.985 . S
H1382 N1376 0.980 1_545 S
H1383 N1376 0.994 . S
H1384 N1372 0.984 . S
H1385 N1372 0.985 . S
C1386 C1387 1.363 . S
C1386 C1392 1.379 . S
C1386 N1394 1.356 1_655 S
C1387 C1386 1.363 . S
C1387 C1393 1.363 . S
C1388 C1389 1.363 . S
C1388 C1393 1.379 . S
C1388 N1395 1.356 . S
C1389 C1388 1.363 . S
C1389 C1392 1.363 . S
N1390 C1392 1.356 . S
N1390 H1402 0.984 . S
N1390 H1403 0.985 . S
N1391 C1393 1.356 . S
N1391 H1396 0.984 1_655 S
N1391 H1397 0.985 . S
C1392 C1386 1.379 . S
C1392 C1389 1.363 . S
C1392 N1390 1.356 . S
C1393 C1387 1.363 . S
C1393 C1388 1.379 . S
C1393 N1391 1.356 . S
N1394 C1386 1.356 1_455 S
N1394 H1400 0.984 . S
N1394 H1401 0.984 . S
N1395 C1388 1.356 . S
N1395 H1398 0.984 . S
N1395 H1399 0.985 . S
H1396 N1391 0.984 1_455 S
H1397 N1391 0.985 . S
H1398 N1395 0.984 . S
H1399 N1395 0.985 . S
H1400 N1394 0.984 . S
H1401 N1394 0.984 . S
H1402 N1390 0.984 . S
H1403 N1390 0.985 . S
C1404 C1405 1.363 . S
C1404 C1410 1.379 . S
C1404 N1412 1.356 . S
C1405 C1404 1.363 . S
C1405 C1411 1.363 . S
C1406 C1407 1.363 . S
C1406 C1411 1.379 . S
C1406 N1413 1.356 . S
C1407 C1406 1.363 . S
C1407 C1410 1.363 . S
N1408 C1410 1.356 . S
N1408 H1420 0.984 . S
N1408 H1421 0.985 . S
N1409 C1411 1.356 . S
N1409 H1414 0.984 . S
N1409 H1415 0.985 . S
C1410 C1404 1.379 . S
C1410 C1407 1.363 . S
C1410 N1408 1.356 . S
C1411 C1405 1.363 . S
C1411 C1406 1.379 . S
C1411 N1409 1.356 . S
N1412 C1404 1.356 . S
N1412 H1418 0.984 . S
N1412 H1419 0.984 . S
N1413 C1406 1.356 . S
N1413 H1416 0.984 . S
N1413 H1417 0.985 . S
H1414 N1409 0.984 . S
H1415 N1409 0.985 . S
H1416 N1413 0.984 . S
H1417 N1413 0.985 . S
H1418 N1412 0.984 . S
H1419 N1412 0.984 . S
H1420 N1408 0.984 . S
H1421 N1408 0.985 . S
C1422 C1423 1.362 . S
C1422 C1428 1.379 . S
C1422 N1430 1.356 . S
C1423 C1422 1.362 . S
C1423 C1429 1.363 . S
C1424 C1425 1.363 . S
C1424 C1429 1.379 . S
C1424 N1431 1.356 . S
C1425 C1424 1.363 . S
C1425 C1428 1.363 . S
N1426 C1428 1.356 . S
N1426 H1438 0.984 . S
N1426 H1439 0.985 . S
N1427 C1429 1.356 1_455 S
N1427 H1432 0.984 . S
N1427 H1433 0.985 . S
C1428 C1422 1.379 . S
C1428 C1425 1.363 . S
C1428 N1426 1.356 . S
C1429 C1423 1.363 . S
C1429 C1424 1.379 . S
C1429 N1427 1.356 1_655 S
N1430 C1422 1.356 . S
N1430 H1436 0.984 . S
N1430 H1437 0.984 1_655 S
N1431 C1424 1.356 . S
N1431 H1434 0.984 . S
N1431 H1435 0.985 . S
H1432 N1427 0.984 . S
H1433 N1427 0.985 . S
H1434 N1431 0.984 . S
H1435 N1431 0.985 . S
H1436 N1430 0.984 . S
H1437 N1430 0.984 1_455 S
H1438 N1426 0.984 . S
H1439 N1426 0.985 . S
C1440 C1441 1.363 . S
C1440 C1446 1.379 . S
C1440 N1448 1.356 . S
C1441 C1440 1.363 . S
C1441 C1447 1.363 . S
C1442 C1443 1.363 . S
C1442 C1447 1.379 . S
C1442 N1449 1.356 . S
C1443 C1442 1.363 . S
C1443 C1446 1.363 . S
N1444 C1446 1.356 . S
N1444 H1456 0.984 . S
N1444 H1457 0.985 . S
N1445 C1447 1.356 . S
N1445 H1450 0.984 . S
N1445 H1451 0.985 . S
C1446 C1440 1.379 . S
C1446 C1443 1.363 . S
C1446 N1444 1.356 . S
C1447 C1441 1.363 . S
C1447 C1442 1.379 . S
C1447 N1445 1.356 . S
N1448 C1440 1.356 . S
N1448 H1454 0.984 . S
N1448 H1455 0.984 . S
N1449 C1442 1.356 . S
N1449 H1452 0.984 . S
N1449 H1453 0.985 . S
H1450 N1445 0.984 . S
H1451 N1445 0.985 . S
H1452 N1449 0.984 . S
H1453 N1449 0.985 . S
H1454 N1448 0.984 . S
H1455 N1448 0.984 . S
H1456 N1444 0.984 . S
H1457 N1444 0.985 . S
C1458 C1459 1.363 . S
C1458 C1464 1.379 . S
C1458 N1466 1.356 . S
C1459 C1458 1.363 . S
C1459 C1465 1.363 . S
C1460 C1461 1.363 . S
C1460 C1465 1.379 . S
C1460 N1467 1.356 . S
C1461 C1460 1.363 . S
C1461 C1464 1.363 . S
N1462 C1464 1.356 . S
N1462 H1474 0.984 . S
N1462 H1475 0.985 . S
N1463 C1465 1.356 1_565 S
N1463 H1468 0.984 . S
N1463 H1469 0.989 . S
C1464 C1458 1.379 . S
C1464 C1461 1.363 . S
C1464 N1462 1.356 . S
C1465 C1459 1.363 . S
C1465 C1460 1.379 . S
C1465 N1463 1.356 1_545 S
N1466 C1458 1.356 . S
N1466 H1472 0.984 . S
N1466 H1473 0.984 1_545 S
N1467 C1460 1.356 . S
N1467 H1470 0.984 . S
N1467 H1471 0.985 . S
H1468 N1463 0.984 . S
H1469 N1463 0.989 . S
H1470 N1467 0.984 . S
H1471 N1467 0.985 . S
H1472 N1466 0.984 . S
H1473 N1466 0.984 1_565 S
H1474 N1462 0.984 . S
H1475 N1462 0.985 . S
C1476 C1477 1.363 . S
C1476 C1482 1.379 . S
C1476 N1484 1.356 . S
C1477 C1476 1.363 . S
C1477 C1483 1.363 . S
C1478 C1479 1.363 . S
C1478 C1483 1.379 . S
C1478 N1485 1.356 . S
C1479 C1478 1.363 . S
C1479 C1482 1.363 . S
N1480 C1482 1.356 . S
N1480 H1492 0.984 . S
N1480 H1493 0.985 . S
N1481 C1483 1.356 . S
N1481 H1486 0.984 . S
N1481 H1487 0.985 . S
C1482 C1476 1.379 . S
C1482 C1479 1.363 . S
C1482 N1480 1.356 . S
C1483 C1477 1.363 . S
C1483 C1478 1.379 . S
C1483 N1481 1.356 . S
N1484 C1476 1.356 . S
N1484 H1490 0.984 . S
N1484 H1491 0.984 . S
N1485 C1478 1.356 . S
N1485 H1488 0.984 . S
N1485 H1489 0.985 . S
H1486 N1481 0.984 . S
H1487 N1481 0.985 . S
H1488 N1485 0.984 . S
H1489 N1485 0.985 . S
H1490 N1484 0.984 . S
H1491 N1484 0.984 . S
H1492 N1480 0.984 . S
H1493 N1480 0.985 . S
C1494 C1495 1.363 . S
C1494 C1500 1.379 . S
C1494 N1502 1.356 . S
C1495 C1494 1.363 . S
C1495 C1501 1.363 . S
C1496 C1497 1.363 . S
C1496 C1501 1.379 . S
C1496 N1503 1.356 . S
C1497 C1496 1.363 . S
C1497 C1500 1.363 . S
N1498 C1500 1.356 . S
N1498 H1510 0.984 . S
N1498 H1511 0.985 . S
N1499 C1501 1.356 . S
N1499 H1504 0.984 . S
N1499 H1505 0.985 . S
C1500 C1494 1.379 . S
C1500 C1497 1.363 . S
C1500 N1498 1.356 . S
C1501 C1495 1.363 . S
C1501 C1496 1.379 . S
C1501 N1499 1.356 . S
N1502 C1494 1.356 . S
N1502 H1508 0.984 . S
N1502 H1509 0.984 . S
N1503 C1496 1.356 . S
N1503 H1506 0.984 . S
N1503 H1507 0.985 . S
H1504 N1499 0.984 . S
H1505 N1499 0.985 . S
H1506 N1503 0.984 . S
H1507 N1503 0.985 . S
H1508 N1502 0.984 . S
H1509 N1502 0.984 . S
H1510 N1498 0.984 . S
H1511 N1498 0.985 . S
C1512 C1513 1.363 . S
C1512 C1518 1.379 . S
C1512 N1520 1.356 . S
C1513 C1512 1.363 . S
C1513 C1519 1.363 . S
C1514 C1515 1.363 . S
C1514 C1519 1.379 . S
C1514 N1521 1.356 . S
C1515 C1514 1.363 . S
C1515 C1518 1.363 . S
N1516 C1518 1.356 . S
N1516 H1528 0.984 . S
N1516 H1529 0.985 . S
N1517 C1519 1.356 . S
N1517 H1522 0.984 . S
N1517 H1523 0.985 . S
C1518 C1512 1.379 . S
C1518 C1515 1.363 . S
C1518 N1516 1.356 . S
C1519 C1513 1.363 . S
C1519 C1514 1.379 . S
C1519 N1517 1.356 . S
N1520 C1512 1.356 . S
N1520 H1526 0.984 . S
N1520 H1527 0.984 . S
N1521 C1514 1.356 . S
N1521 H1524 0.984 . S
N1521 H1525 0.985 . S
H1522 N1517 0.984 . S
H1523 N1517 0.985 . S
H1524 N1521 0.984 . S
H1525 N1521 0.985 . S
H1526 N1520 0.984 . S
H1527 N1520 0.984 . S
H1528 N1516 0.984 . S
H1529 N1516 0.985 . S
C1530 C1531 1.363 . S
C1530 C1536 1.379 . S
C1530 N1538 1.356 . S
C1531 C1530 1.363 . S
C1531 C1537 1.363 1_565 S
C1532 C1533 1.363 1_545 S
C1532 C1537 1.379 . S
C1532 N1539 1.356 . S
C1533 C1532 1.363 1_565 S
C1533 C1536 1.363 . S
N1534 C1536 1.356 . S
N1534 H1546 0.984 . S
N1534 H1547 0.985 . S
N1535 C1537 1.356 . S
N1535 H1540 0.984 . S
N1535 H1541 0.985 . S
C1536 C1530 1.379 . S
C1536 C1533 1.363 . S
C1536 N1534 1.356 . S
C1537 C1531 1.363 1_545 S
C1537 C1532 1.379 . S
C1537 N1535 1.356 . S
N1538 C1530 1.356 . S
N1538 H1544 0.984 . S
N1538 H1545 0.984 . S
N1539 C1532 1.356 . S
N1539 H1542 0.984 . S
N1539 H1543 0.985 . S
H1540 N1535 0.984 . S
H1541 N1535 0.985 . S
H1542 N1539 0.984 . S
H1543 N1539 0.985 . S
H1544 N1538 0.984 . S
H1545 N1538 0.984 . S
H1546 N1534 0.984 . S
H1547 N1534 0.985 . S
C1548 C1549 1.363 . S
C1548 C1554 1.379 . S
C1548 N1556 1.356 . S
C1549 C1548 1.363 . S
C1549 C1555 1.363 . S
C1550 C1551 1.363 . S
C1550 C1555 1.379 . S
C1550 N1557 1.356 . S
C1551 C1550 1.363 . S
C1551 C1554 1.363 . S
N1552 C1554 1.356 . S
N1552 H1564 0.984 . S
N1552 H1565 0.985 . S
N1553 C1555 1.356 . S
N1553 H1558 0.984 . S
N1553 H1559 0.985 . S
C1554 C1548 1.379 . S
C1554 C1551 1.363 . S
C1554 N1552 1.356 . S
C1555 C1549 1.363 . S
C1555 C1550 1.379 . S
C1555 N1553 1.356 . S
N1556 C1548 1.356 . S
N1556 H1562 0.984 . S
N1556 H1563 0.984 . S
N1557 C1550 1.356 . S
N1557 H1560 0.984 . S
N1557 H1561 0.985 . S
H1558 N1553 0.984 . S
H1559 N1553 0.985 . S
H1560 N1557 0.984 . S
H1561 N1557 0.985 . S
H1562 N1556 0.984 . S
H1563 N1556 0.984 . S
H1564 N1552 0.984 . S
H1565 N1552 0.985 . S
C1566 C1567 1.363 . S
C1566 C1572 1.379 . S
C1566 N1574 1.356 . S
C1567 C1566 1.363 . S
C1567 C1573 1.363 . S
C1568 C1569 1.363 . S
C1568 C1573 1.379 . S
C1568 N1575 1.356 . S
C1569 C1568 1.363 . S
C1569 C1572 1.363 . S
N1570 C1572 1.356 . S
N1570 H1582 0.984 . S
N1570 H1583 0.985 . S
N1571 C1573 1.356 . S
N1571 H1576 0.984 . S
N1571 H1577 0.985 . S
C1572 C1566 1.379 . S
C1572 C1569 1.363 . S
C1572 N1570 1.356 . S
C1573 C1567 1.363 . S
C1573 C1568 1.379 . S
C1573 N1571 1.356 . S
N1574 C1566 1.356 . S
N1574 H1580 0.984 . S
N1574 H1581 0.984 . S
N1575 C1568 1.356 . S
N1575 H1578 0.984 . S
N1575 H1579 0.985 . S
H1576 N1571 0.984 . S
H1577 N1571 0.985 . S
H1578 N1575 0.984 . S
H1579 N1575 0.985 . S
H1580 N1574 0.984 . S
H1581 N1574 0.984 . S
H1582 N1570 0.984 . S
H1583 N1570 0.985 . S
C1584 C1585 1.363 . S
C1584 C1590 1.379 . S
C1584 N1592 1.356 . S
C1585 C1584 1.363 . S
C1585 C1591 1.363 1_655 S
C1586 C1587 1.363 1_455 S
C1586 C1591 1.379 . S
C1586 N1593 1.356 . S
C1587 C1586 1.363 1_655 S
C1587 C1590 1.363 . S
N1588 C1590 1.356 . S
N1588 H1600 0.984 . S
N1588 H1601 0.985 . S
N1589 C1591 1.356 . S
N1589 H1594 0.984 . S
N1589 H1595 0.985 . S
C1590 C1584 1.379 . S
C1590 C1587 1.363 . S
C1590 N1588 1.356 . S
C1591 C1585 1.363 1_455 S
C1591 C1586 1.379 . S
C1591 N1589 1.356 . S
N1592 C1584 1.356 . S
N1592 H1598 0.984 . S
N1592 H1599 0.984 . S
N1593 C1586 1.356 . S
N1593 H1596 0.984 . S
N1593 H1597 0.985 . S
H1594 N1589 0.984 . S
H1595 N1589 0.985 . S
H1596 N1593 0.984 . S
H1597 N1593 0.985 . S
H1598 N1592 0.984 . S
H1599 N1592 0.984 . S
H1600 N1588 0.984 . S
H1601 N1588 0.985 . S
C1602 C1603 1.363 . S
C1602 C1608 1.379 . S
C1602 N1610 1.356 . S
C1603 C1602 1.363 . S
C1603 C1609 1.363 . S
C1604 C1605 1.363 . S
C1604 C1609 1.379 . S
C1604 N1611 1.356 . S
C1605 C1604 1.363 . S
C1605 C1608 1.363 . S
N1606 C1608 1.356 . S
N1606 H1618 0.984 . S
N1606 H1619 0.985 . S
N1607 C1609 1.356 . S
N1607 H1612 0.984 . S
N1607 H1613 0.985 . S
C1608 C1602 1.379 . S
C1608 C1605 1.363 . S
C1608 N1606 1.356 . S
C1609 C1603 1.363 . S
C1609 C1604 1.379 . S
C1609 N1607 1.356 . S
N1610 C1602 1.356 . S
N1610 H1616 0.984 . S
N1610 H1617 0.984 . S
N1611 C1604 1.356 . S
N1611 H1614 0.984 . S
N1611 H1615 0.985 . S
H1612 N1607 0.984 . S
H1613 N1607 0.985 . S
H1614 N1611 0.984 . S
H1615 N1611 0.985 . S
H1616 N1610 0.984 . S
H1617 N1610 0.984 . S
H1618 N1606 0.984 . S
H1619 N1606 0.985 . S
C1620 C1621 1.363 1_565 S
C1620 C1626 1.379 . S
C1620 N1628 1.356 . S
C1621 C1620 1.363 1_545 S
C1621 C1627 1.363 . S
C1622 C1623 1.363 . S
C1622 C1627 1.379 . S
C1622 N1629 1.356 . S
C1623 C1622 1.363 . S
C1623 C1626 1.363 1_545 S
N1624 C1626 1.356 . S
N1624 H1636 0.984 . S
N1624 H1637 0.985 . S
N1625 C1627 1.356 . S
N1625 H1630 0.984 . S
N1625 H1631 0.985 . S
C1626 C1620 1.379 . S
C1626 C1623 1.363 1_565 S
C1626 N1624 1.356 . S
C1627 C1621 1.363 . S
C1627 C1622 1.379 . S
C1627 N1625 1.356 . S
N1628 C1620 1.356 . S
N1628 H1634 0.984 . S
N1628 H1635 0.984 . S
N1629 C1622 1.356 . S
N1629 H1632 0.984 . S
N1629 H1633 0.985 . S
H1630 N1625 0.984 . S
H1631 N1625 0.985 . S
H1632 N1629 0.984 . S
H1633 N1629 0.985 . S
H1634 N1628 0.984 . S
H1635 N1628 0.984 . S
H1636 N1624 0.984 . S
H1637 N1624 0.985 . S
C1638 C1639 1.363 . S
C1638 C1644 1.379 . S
C1638 N1646 1.356 . S
C1639 C1638 1.363 . S
C1639 C1645 1.363 . S
C1640 C1641 1.363 . S
C1640 C1645 1.379 . S
C1640 N1647 1.356 . S
C1641 C1640 1.363 . S
C1641 C1644 1.363 . S
N1642 C1644 1.356 . S
N1642 H1654 0.984 . S
N1642 H1655 0.985 . S
N1643 C1645 1.356 . S
N1643 H1648 0.984 . S
N1643 H1649 0.985 . S
C1644 C1638 1.379 . S
C1644 C1641 1.363 . S
C1644 N1642 1.356 . S
C1645 C1639 1.363 . S
C1645 C1640 1.379 . S
C1645 N1643 1.356 . S
N1646 C1638 1.356 . S
N1646 H1652 0.984 . S
N1646 H1653 0.984 . S
N1647 C1640 1.356 . S
N1647 H1650 0.984 . S
N1647 H1651 0.985 . S
H1648 N1643 0.984 . S
H1649 N1643 0.985 . S
H1650 N1647 0.984 . S
H1651 N1647 0.985 . S
H1652 N1646 0.984 . S
H1653 N1646 0.984 . S
H1654 N1642 0.984 . S
H1655 N1642 0.985 . S
C1656 C1657 1.363 . S
C1656 C1662 1.379 . S
C1656 N1664 1.356 . S
C1657 C1656 1.363 . S
C1657 C1663 1.363 . S
C1658 C1659 1.363 . S
C1658 C1663 1.379 . S
C1658 N1665 1.356 . S
C1659 C1658 1.363 . S
C1659 C1662 1.363 . S
N1660 C1662 1.356 . S
N1660 H1672 0.984 . S
N1660 H1673 0.985 . S
N1661 C1663 1.356 . S
N1661 H1666 0.984 . S
N1661 H1667 0.985 . S
C1662 C1656 1.379 . S
C1662 C1659 1.363 . S
C1662 N1660 1.356 . S
C1663 C1657 1.363 . S
C1663 C1658 1.379 . S
C1663 N1661 1.356 . S
N1664 C1656 1.356 . S
N1664 H1670 0.984 . S
N1664 H1671 0.984 . S
N1665 C1658 1.356 . S
N1665 H1668 0.984 . S
N1665 H1669 0.985 . S
H1666 N1661 0.984 . S
H1667 N1661 0.985 . S
H1668 N1665 0.984 . S
H1669 N1665 0.985 . S
H1670 N1664 0.984 . S
H1671 N1664 0.984 . S
H1672 N1660 0.984 . S
H1673 N1660 0.985 . S
C1674 C1675 1.363 . S
C1674 C1680 1.379 . S
C1674 N1682 1.356 . S
C1675 C1674 1.363 . S
C1675 C1681 1.363 . S
C1676 C1677 1.363 . S
C1676 C1681 1.379 . S
C1676 N1683 1.356 . S
C1677 C1676 1.363 . S
C1677 C1680 1.363 . S
N1678 C1680 1.356 . S
N1678 H1690 0.984 . S
N1678 H1691 0.985 . S
N1679 C1681 1.356 . S
N1679 H1684 0.984 . S
N1679 H1685 0.985 . S
C1680 C1674 1.379 . S
C1680 C1677 1.363 . S
C1680 N1678 1.356 . S
C1681 C1675 1.363 . S
C1681 C1676 1.379 . S
C1681 N1679 1.356 . S
N1682 C1674 1.356 . S
N1682 H1688 0.984 . S
N1682 H1689 0.984 . S
N1683 C1676 1.356 . S
N1683 H1686 0.984 . S
N1683 H1687 0.985 . S
H1684 N1679 0.984 . S
H1685 N1679 0.985 . S
H1686 N1683 0.984 . S
H1687 N1683 0.985 . S
H1688 N1682 0.984 . S
H1689 N1682 0.984 . S
H1690 N1678 0.984 . S
H1691 N1678 0.985 . S
C1692 C1693 1.363 . S
C1692 C1698 1.379 . S
C1692 N1700 1.356 . S
C1693 C1692 1.363 . S
C1693 C1699 1.363 . S
C1694 C1695 1.363 . S
C1694 C1699 1.379 . S
C1694 N1701 1.356 . S
C1695 C1694 1.363 . S
C1695 C1698 1.363 . S
N1696 C1698 1.356 . S
N1696 H1708 0.984 . S
N1696 H1709 0.985 . S
N1697 C1699 1.356 . S
N1697 H1702 0.984 . S
N1697 H1703 0.985 . S
C1698 C1692 1.379 . S
C1698 C1695 1.363 . S
C1698 N1696 1.356 . S
C1699 C1693 1.363 . S
C1699 C1694 1.379 . S
C1699 N1697 1.356 . S
N1700 C1692 1.356 . S
N1700 H1706 0.984 . S
N1700 H1707 0.984 . S
N1701 C1694 1.356 . S
N1701 H1704 0.984 . S
N1701 H1705 0.985 . S
H1702 N1697 0.984 . S
H1703 N1697 0.985 . S
H1704 N1701 0.984 . S
H1705 N1701 0.985 . S
H1706 N1700 0.984 . S
H1707 N1700 0.984 . S
H1708 N1696 0.984 . S
H1709 N1696 0.985 . S
C1710 C1711 1.363 . S
C1710 C1716 1.379 . S
C1710 N1718 1.356 . S
C1711 C1710 1.363 . S
C1711 C1717 1.363 . S
C1712 C1713 1.363 . S
C1712 C1717 1.379 . S
C1712 N1719 1.356 . S
C1713 C1712 1.363 . S
C1713 C1716 1.363 . S
N1714 C1716 1.356 . S
N1714 H1726 0.984 . S
N1714 H1727 0.985 . S
N1715 C1717 1.356 . S
N1715 H1720 0.984 . S
N1715 H1721 0.985 . S
C1716 C1710 1.379 . S
C1716 C1713 1.363 . S
C1716 N1714 1.356 . S
C1717 C1711 1.363 . S
C1717 C1712 1.379 . S
C1717 N1715 1.356 . S
N1718 C1710 1.356 . S
N1718 H1724 0.984 . S
N1718 H1725 0.984 . S
N1719 C1712 1.356 . S
N1719 H1722 0.984 . S
N1719 H1723 0.985 . S
H1720 N1715 0.984 . S
H1721 N1715 0.985 . S
H1722 N1719 0.984 . S
H1723 N1719 0.985 . S
H1724 N1718 0.984 . S
H1725 N1718 0.984 . S
H1726 N1714 0.984 . S
H1727 N1714 0.985 . S
C1728 C1729 1.363 . S
C1728 C1734 1.379 . S
C1728 N1736 1.356 . S
C1729 C1728 1.363 . S
C1729 C1735 1.363 . S
C1730 C1731 1.363 . S
C1730 C1735 1.379 . S
C1730 N1737 1.356 . S
C1731 C1730 1.363 . S
C1731 C1734 1.363 . S
N1732 C1734 1.356 . S
N1732 H1744 0.984 . S
N1732 H1745 0.985 . S
N1733 C1735 1.356 . S
N1733 H1738 0.984 . S
N1733 H1739 0.985 . S
C1734 C1728 1.379 . S
C1734 C1731 1.363 . S
C1734 N1732 1.356 . S
C1735 C1729 1.363 . S
C1735 C1730 1.379 . S
C1735 N1733 1.356 . S
N1736 C1728 1.356 . S
N1736 H1742 0.984 . S
N1736 H1743 0.984 . S
N1737 C1730 1.356 . S
N1737 H1740 0.984 . S
N1737 H1741 0.985 . S
H1738 N1733 0.984 . S
H1739 N1733 0.985 . S
H1740 N1737 0.984 . S
H1741 N1737 0.985 . S
H1742 N1736 0.984 . S
H1743 N1736 0.984 . S
H1744 N1732 0.984 . S
H1745 N1732 0.985 . S
C1746 C1747 1.363 . S
C1746 C1752 1.379 . S
C1746 N1754 1.356 . S
C1747 C1746 1.363 . S
C1747 C1753 1.363 . S
C1748 C1749 1.363 . S
C1748 C1753 1.379 . S
C1748 N1755 1.356 . S
C1749 C1748 1.363 . S
C1749 C1752 1.363 . S
N1750 C1752 1.356 . S
N1750 H1762 0.984 . S
N1750 H1763 0.985 . S
N1751 C1753 1.356 . S
N1751 H1756 0.984 . S
N1751 H1757 0.985 . S
C1752 C1746 1.379 . S
C1752 C1749 1.363 . S
C1752 N1750 1.356 . S
C1753 C1747 1.363 . S
C1753 C1748 1.379 . S
C1753 N1751 1.356 . S
N1754 C1746 1.356 . S
N1754 H1760 0.984 . S
N1754 H1761 0.984 . S
N1755 C1748 1.356 . S
N1755 H1758 0.984 . S
N1755 H1759 0.985 . S
H1756 N1751 0.984 . S
H1757 N1751 0.985 . S
H1758 N1755 0.984 . S
H1759 N1755 0.985 . S
H1760 N1754 0.984 . S
H1761 N1754 0.984 . S
H1762 N1750 0.984 . S
H1763 N1750 0.985 . S
C1764 C1765 1.363 . S
C1764 C1770 1.379 . S
C1764 N1772 1.356 . S
C1765 C1764 1.363 . S
C1765 C1771 1.363 . S
C1766 C1767 1.363 . S
C1766 C1771 1.379 . S
C1766 N1773 1.356 . S
C1767 C1766 1.363 . S
C1767 C1770 1.363 . S
N1768 C1770 1.356 . S
N1768 H1780 0.984 . S
N1768 H1781 0.985 . S
N1769 C1771 1.356 . S
N1769 H1774 0.984 . S
N1769 H1775 0.985 . S
C1770 C1764 1.379 . S
C1770 C1767 1.363 . S
C1770 N1768 1.356 . S
C1771 C1765 1.363 . S
C1771 C1766 1.379 . S
C1771 N1769 1.356 . S
N1772 C1764 1.356 . S
N1772 H1778 0.984 . S
N1772 H1779 0.984 . S
N1773 C1766 1.356 . S
N1773 H1776 0.984 . S
N1773 H1777 0.985 . S
H1774 N1769 0.984 . S
H1775 N1769 0.985 . S
H1776 N1773 0.984 . S
H1777 N1773 0.985 . S
H1778 N1772 0.984 . S
H1779 N1772 0.984 . S
H1780 N1768 0.984 . S
H1781 N1768 0.985 . S
C1782 C1783 1.363 . S
C1782 C1788 1.379 . S
C1782 N1790 1.356 . S
C1783 C1782 1.363 . S
C1783 C1789 1.363 . S
C1784 C1785 1.363 . S
C1784 C1789 1.379 . S
C1784 N1791 1.356 . S
C1785 C1784 1.363 . S
C1785 C1788 1.363 . S
N1786 C1788 1.356 . S
N1786 H1798 0.984 . S
N1786 H1799 0.985 . S
N1787 C1789 1.356 . S
N1787 H1792 0.984 . S
N1787 H1793 0.985 . S
C1788 C1782 1.379 . S
C1788 C1785 1.363 . S
C1788 N1786 1.356 . S
C1789 C1783 1.363 . S
C1789 C1784 1.379 . S
C1789 N1787 1.356 . S
N1790 C1782 1.356 . S
N1790 H1796 0.984 . S
N1790 H1797 0.984 . S
N1791 C1784 1.356 . S
N1791 H1794 0.984 . S
N1791 H1795 0.985 . S
H1792 N1787 0.984 . S
H1793 N1787 0.985 . S
H1794 N1791 0.984 . S
H1795 N1791 0.985 . S
H1796 N1790 0.984 . S
H1797 N1790 0.984 . S
H1798 N1786 0.984 . S
H1799 N1786 0.985 . S
C1800 C1801 1.363 . S
C1800 C1806 1.379 . S
C1800 N1808 1.356 . S
C1801 C1800 1.363 . S
C1801 C1807 1.363 . S
C1802 C1803 1.363 . S
C1802 C1807 1.379 . S
C1802 N1809 1.356 . S
C1803 C1802 1.363 . S
C1803 C1806 1.363 . S
N1804 C1806 1.356 . S
N1804 H1816 0.984 . S
N1804 H1817 0.985 . S
N1805 C1807 1.356 . S
N1805 H1810 0.984 . S
N1805 H1811 0.985 . S
C1806 C1800 1.379 . S
C1806 C1803 1.363 . S
C1806 N1804 1.356 . S
C1807 C1801 1.363 . S
C1807 C1802 1.379 . S
C1807 N1805 1.356 . S
N1808 C1800 1.356 . S
N1808 H1814 0.984 . S
N1808 H1815 0.984 . S
N1809 C1802 1.356 . S
N1809 H1812 0.984 . S
N1809 H1813 0.985 . S
H1810 N1805 0.984 . S
H1811 N1805 0.985 . S
H1812 N1809 0.984 . S
H1813 N1809 0.985 . S
H1814 N1808 0.984 . S
H1815 N1808 0.984 . S
H1816 N1804 0.984 . S
H1817 N1804 0.985 . S
C1818 C1819 1.363 . S
C1818 C1824 1.379 . S
C1818 N1826 1.356 . S
C1819 C1818 1.363 . S
C1819 C1825 1.363 . S
C1820 C1821 1.363 . S
C1820 C1825 1.379 . S
C1820 N1827 1.356 . S
C1821 C1820 1.363 . S
C1821 C1824 1.363 . S
N1822 C1824 1.356 . S
N1822 H1834 0.984 . S
N1822 H1835 0.985 . S
N1823 C1825 1.356 . S
N1823 H1828 0.984 . S
N1823 H1829 0.985 . S
C1824 C1818 1.379 . S
C1824 C1821 1.363 . S
C1824 N1822 1.356 . S
C1825 C1819 1.363 . S
C1825 C1820 1.379 . S
C1825 N1823 1.356 . S
N1826 C1818 1.356 . S
N1826 H1832 0.984 . S
N1826 H1833 0.984 . S
N1827 C1820 1.356 . S
N1827 H1830 0.984 . S
N1827 H1831 0.985 . S
H1828 N1823 0.984 . S
H1829 N1823 0.985 . S
H1830 N1827 0.984 . S
H1831 N1827 0.985 . S
H1832 N1826 0.984 . S
H1833 N1826 0.984 . S
H1834 N1822 0.984 . S
H1835 N1822 0.985 . S
C1836 C1837 1.363 . S
C1836 C1842 1.379 . S
C1836 N1844 1.356 . S
C1837 C1836 1.363 . S
C1837 C1843 1.363 . S
C1838 C1839 1.363 . S
C1838 C1843 1.379 . S
C1838 N1845 1.356 . S
C1839 C1838 1.363 . S
C1839 C1842 1.363 . S
N1840 C1842 1.356 . S
N1840 H1852 0.984 . S
N1840 H1853 0.985 . S
N1841 C1843 1.356 . S
N1841 H1846 0.984 . S
N1841 H1847 0.985 . S
C1842 C1836 1.379 . S
C1842 C1839 1.363 . S
C1842 N1840 1.356 . S
C1843 C1837 1.363 . S
C1843 C1838 1.379 . S
C1843 N1841 1.356 . S
N1844 C1836 1.356 . S
N1844 H1850 0.984 . S
N1844 H1851 0.984 . S
N1845 C1838 1.356 . S
N1845 H1848 0.984 . S
N1845 H1849 0.985 . S
H1846 N1841 0.984 . S
H1847 N1841 0.985 . S
H1848 N1845 0.984 . S
H1849 N1845 0.985 . S
H1850 N1844 0.984 . S
H1851 N1844 0.984 . S
H1852 N1840 0.984 . S
H1853 N1840 0.985 . S
C883 C528 1.585 . S
C885 C708 1.559 . S
C901 C562 1.534 . S
C903 C728 1.499 . S
C919 C484 1.581 . S
C921 C751 1.573 . S
C937 C445 1.500 . S
C939 C731 1.492 . S
C957 C748 1.486 . S
C955 C367 1.499 . S
C973 C411 1.518 . S
C975 C711 1.507 . S
C993 C718 1.574 . S
C991 C450 1.587 . S
C1011 C738 1.486 . S
C1009 C372 1.517 . S
C1027 C406 1.578 . S
C1029 C743 1.573 . S
C1045 C523 1.496 . S
C1047 C723 1.492 . S
C1063 C567 1.478 . S
C1065 C758 1.471 . S
C1083 C703 1.522 . S
C1081 C489 1.522 . S
C1101 C768 1.559 . S
C1099 C60 1.585 1_455 S
C1117 C94 1.534 . S
C1119 C788 1.499 . S
C1135 C16 1.581 1_565 S
C1137 C811 1.573 . S
C1153 C679 1.500 . S
C1155 C791 1.492 . S
C1171 C601 1.499 . S
C1173 C808 1.486 . S
C1189 C645 1.518 . S
C1191 C771 1.507 . S
C1207 C684 1.587 . S
C1209 C778 1.574 . S
C1225 C606 1.517 . S
C1227 C798 1.486 . S
C1245 C803 1.573 . S
C1243 C640 1.577 . S
C1261 C55 1.496 1_565 S
C1263 C783 1.492 . S
C1281 C818 1.471 . S
C1279 C99 1.478 1_455 S
C1297 C21 1.522 . S
C1299 C763 1.522 . S
C1317 C828 1.559 . S
C1315 C294 1.585 . S
C1333 C328 1.534 . S
C1335 C848 1.499 . S
C1353 C871 1.574 . S
C1351 C250 1.581 . S
C1371 C851 1.492 . S
C1369 C211 1.500 1_545 S
C1389 C868 1.486 . S
C1387 C133 1.499 1_655 S
C1405 C177 1.519 . S
C1407 C831 1.507 . S
C1423 C216 1.587 1_655 S
C1425 C838 1.574 . S
C1441 C138 1.517 . S
C1443 C858 1.486 . S
C1461 C863 1.573 . S
C1459 C172 1.578 1_545 S
C1477 C289 1.496 . S
C1479 C843 1.491 . S
C1495 C333 1.478 . S
C1497 C878 1.471 . S
C1513 C255 1.522 . S
C1515 C823 1.523 . S
C1531 C586 1.343 . S
C1533 C721 1.315 1_565 S
C1551 C741 1.581 . S
C1549 C625 1.652 . S
C1567 C664 1.520 . S
C1569 C750 1.474 . S
C1585 C235 1.661 . S
C1587 C730 1.598 . S
C1603 C274 1.509 . S
C1605 C761 1.458 . S
C1623 C710 1.308 1_545 S
C1621 C313 1.340 . S
C1639 C118 1.343 . S
C1641 C781 1.315 . S
C1657 C157 1.652 . S
C1659 C801 1.581 . S
C1675 C196 1.520 . S
C1677 C810 1.474 . S
C1693 C469 1.661 . S
C1695 C790 1.595 . S
C1713 C821 1.458 . S
C1711 C508 1.509 . S
C1729 C547 1.340 . S
C1731 C770 1.308 . S
C1747 C352 1.343 . S
C1749 C841 1.315 . S
C1765 C391 1.652 . S
C1767 C861 1.581 . S
C1785 C870 1.474 . S
C1783 C430 1.520 . S
C1801 C1 1.660 . S
C1803 C850 1.595 . S
C1819 C40 1.509 . S
C1821 C881 1.458 . S
C1837 C79 1.340 . S
C1839 C830 1.308 . S
