# Generated by pormake.
# Topology ptr, (4,4)-cn, num edge types: 1
# Building blocks:
#     Node 0, Type 0, BuildingBlock: KUFVIS_clean_sbu_0, # of connection points: 4
#     Node 1, Type 0, BuildingBlock: KUFVIS_clean_sbu_0, # of connection points: 4
#     Node 2, Type 0, BuildingBlock: KUFVIS_clean_sbu_0, # of connection points: 4
#     Node 3, Type 0, BuildingBlock: KUFVIS_clean_sbu_0, # of connection points: 4
#     Node 4, Type 0, BuildingBlock: KUFVIS_clean_sbu_0, # of connection points: 4
#     Node 5, Type 0, BuildingBlock: KUFVIS_clean_sbu_0, # of connection points: 4
#     Node 6, Type 0, BuildingBlock: KUFVIS_clean_sbu_0, # of connection points: 4
#     Node 7, Type 0, BuildingBlock: KUFVIS_clean_sbu_0, # of connection points: 4
#     Node 8, Type 0, BuildingBlock: KUFVIS_clean_sbu_0, # of connection points: 4
#     Node 9, Type 0, BuildingBlock: KUFVIS_clean_sbu_0, # of connection points: 4
#     Node 10, Type 0, BuildingBlock: KUFVIS_clean_sbu_0, # of connection points: 4
#     Node 11, Type 0, BuildingBlock: KUFVIS_clean_sbu_0, # of connection points: 4
#     Node 12, Type 0, BuildingBlock: KUFVIS_clean_sbu_0, # of connection points: 4
#     Node 13, Type 0, BuildingBlock: KUFVIS_clean_sbu_0, # of connection points: 4
#     Node 14, Type 0, BuildingBlock: KUFVIS_clean_sbu_0, # of connection points: 4
#     Node 15, Type 0, BuildingBlock: KUFVIS_clean_sbu_0, # of connection points: 4
#     Node 16, Type 0, BuildingBlock: KUFVIS_clean_sbu_0, # of connection points: 4
#     Node 17, Type 0, BuildingBlock: KUFVIS_clean_sbu_0, # of connection points: 4
#     Node 18, Type 1, BuildingBlock: MIFKUJ_clean_linker_1, # of connection points: 4
#     Node 19, Type 1, BuildingBlock: MIFKUJ_clean_linker_1, # of connection points: 4
#     Node 20, Type 1, BuildingBlock: MIFKUJ_clean_linker_1, # of connection points: 4
#     Node 21, Type 1, BuildingBlock: MIFKUJ_clean_linker_1, # of connection points: 4
#     Node 22, Type 1, BuildingBlock: MIFKUJ_clean_linker_1, # of connection points: 4
#     Node 23, Type 1, BuildingBlock: MIFKUJ_clean_linker_1, # of connection points: 4
#     Node 24, Type 1, BuildingBlock: MIFKUJ_clean_linker_1, # of connection points: 4
#     Node 25, Type 1, BuildingBlock: MIFKUJ_clean_linker_1, # of connection points: 4
#     Node 26, Type 1, BuildingBlock: MIFKUJ_clean_linker_1, # of connection points: 4
#     Node 27, Type 1, BuildingBlock: MIFKUJ_clean_linker_1, # of connection points: 4
#     Node 28, Type 1, BuildingBlock: MIFKUJ_clean_linker_1, # of connection points: 4
#     Node 29, Type 1, BuildingBlock: MIFKUJ_clean_linker_1, # of connection points: 4
#     Node 30, Type 1, BuildingBlock: MIFKUJ_clean_linker_1, # of connection points: 4
#     Node 31, Type 1, BuildingBlock: MIFKUJ_clean_linker_1, # of connection points: 4
#     Node 32, Type 1, BuildingBlock: MIFKUJ_clean_linker_1, # of connection points: 4
#     Node 33, Type 1, BuildingBlock: MIFKUJ_clean_linker_1, # of connection points: 4
#     Node 34, Type 1, BuildingBlock: MIFKUJ_clean_linker_1, # of connection points: 4
#     Node 35, Type 1, BuildingBlock: MIFKUJ_clean_linker_1, # of connection points: 4
#     Edge 36, Type (0, 1), BuildingBlock: XIVTED_clean_linker_0, # of connection points: 2
#     Edge 37, Type (0, 1), BuildingBlock: XIVTED_clean_linker_0, # of connection points: 2
#     Edge 38, Type (0, 1), BuildingBlock: XIVTED_clean_linker_0, # of connection points: 2
#     Edge 39, Type (0, 1), BuildingBlock: XIVTED_clean_linker_0, # of connection points: 2
#     Edge 40, Type (0, 1), BuildingBlock: XIVTED_clean_linker_0, # of connection points: 2
#     Edge 41, Type (0, 1), BuildingBlock: XIVTED_clean_linker_0, # of connection points: 2
#     Edge 42, Type (0, 1), BuildingBlock: XIVTED_clean_linker_0, # of connection points: 2
#     Edge 43, Type (0, 1), BuildingBlock: XIVTED_clean_linker_0, # of connection points: 2
#     Edge 44, Type (0, 1), BuildingBlock: XIVTED_clean_linker_0, # of connection points: 2
#     Edge 45, Type (0, 1), BuildingBlock: XIVTED_clean_linker_0, # of connection points: 2
#     Edge 46, Type (0, 1), BuildingBlock: XIVTED_clean_linker_0, # of connection points: 2
#     Edge 47, Type (0, 1), BuildingBlock: XIVTED_clean_linker_0, # of connection points: 2
#     Edge 48, Type (0, 1), BuildingBlock: XIVTED_clean_linker_0, # of connection points: 2
#     Edge 49, Type (0, 1), BuildingBlock: XIVTED_clean_linker_0, # of connection points: 2
#     Edge 50, Type (0, 1), BuildingBlock: XIVTED_clean_linker_0, # of connection points: 2
#     Edge 51, Type (0, 1), BuildingBlock: XIVTED_clean_linker_0, # of connection points: 2
#     Edge 52, Type (0, 1), BuildingBlock: XIVTED_clean_linker_0, # of connection points: 2
#     Edge 53, Type (0, 1), BuildingBlock: XIVTED_clean_linker_0, # of connection points: 2
#     Edge 54, Type (0, 1), BuildingBlock: XIVTED_clean_linker_0, # of connection points: 2
#     Edge 55, Type (0, 1), BuildingBlock: XIVTED_clean_linker_0, # of connection points: 2
#     Edge 56, Type (0, 1), BuildingBlock: XIVTED_clean_linker_0, # of connection points: 2
#     Edge 57, Type (0, 1), BuildingBlock: XIVTED_clean_linker_0, # of connection points: 2
#     Edge 58, Type (0, 1), BuildingBlock: XIVTED_clean_linker_0, # of connection points: 2
#     Edge 59, Type (0, 1), BuildingBlock: XIVTED_clean_linker_0, # of connection points: 2
#     Edge 60, Type (0, 1), BuildingBlock: XIVTED_clean_linker_0, # of connection points: 2
#     Edge 61, Type (0, 1), BuildingBlock: XIVTED_clean_linker_0, # of connection points: 2
#     Edge 62, Type (0, 1), BuildingBlock: XIVTED_clean_linker_0, # of connection points: 2
#     Edge 63, Type (0, 1), BuildingBlock: XIVTED_clean_linker_0, # of connection points: 2
#     Edge 64, Type (0, 1), BuildingBlock: XIVTED_clean_linker_0, # of connection points: 2
#     Edge 65, Type (0, 1), BuildingBlock: XIVTED_clean_linker_0, # of connection points: 2
#     Edge 66, Type (0, 1), BuildingBlock: XIVTED_clean_linker_0, # of connection points: 2
#     Edge 67, Type (0, 1), BuildingBlock: XIVTED_clean_linker_0, # of connection points: 2
#     Edge 68, Type (0, 1), BuildingBlock: XIVTED_clean_linker_0, # of connection points: 2
#     Edge 69, Type (0, 1), BuildingBlock: XIVTED_clean_linker_0, # of connection points: 2
#     Edge 70, Type (0, 1), BuildingBlock: XIVTED_clean_linker_0, # of connection points: 2
#     Edge 71, Type (0, 1), BuildingBlock: XIVTED_clean_linker_0, # of connection points: 2
#     Edge 72, Type (0, 1), BuildingBlock: XIVTED_clean_linker_0, # of connection points: 2
#     Edge 73, Type (0, 1), BuildingBlock: XIVTED_clean_linker_0, # of connection points: 2
#     Edge 74, Type (0, 1), BuildingBlock: XIVTED_clean_linker_0, # of connection points: 2
#     Edge 75, Type (0, 1), BuildingBlock: XIVTED_clean_linker_0, # of connection points: 2
#     Edge 76, Type (0, 1), BuildingBlock: XIVTED_clean_linker_0, # of connection points: 2
#     Edge 77, Type (0, 1), BuildingBlock: XIVTED_clean_linker_0, # of connection points: 2
#     Edge 78, Type (0, 1), BuildingBlock: XIVTED_clean_linker_0, # of connection points: 2
#     Edge 79, Type (0, 1), BuildingBlock: XIVTED_clean_linker_0, # of connection points: 2
#     Edge 80, Type (0, 1), BuildingBlock: XIVTED_clean_linker_0, # of connection points: 2
#     Edge 81, Type (0, 1), BuildingBlock: XIVTED_clean_linker_0, # of connection points: 2
#     Edge 82, Type (0, 1), BuildingBlock: XIVTED_clean_linker_0, # of connection points: 2
#     Edge 83, Type (0, 1), BuildingBlock: XIVTED_clean_linker_0, # of connection points: 2
#     Edge 84, Type (0, 1), BuildingBlock: XIVTED_clean_linker_0, # of connection points: 2
#     Edge 85, Type (0, 1), BuildingBlock: XIVTED_clean_linker_0, # of connection points: 2
#     Edge 86, Type (0, 1), BuildingBlock: XIVTED_clean_linker_0, # of connection points: 2
#     Edge 87, Type (0, 1), BuildingBlock: XIVTED_clean_linker_0, # of connection points: 2
#     Edge 88, Type (0, 1), BuildingBlock: XIVTED_clean_linker_0, # of connection points: 2
#     Edge 89, Type (0, 1), BuildingBlock: XIVTED_clean_linker_0, # of connection points: 2
#     Edge 90, Type (0, 1), BuildingBlock: XIVTED_clean_linker_0, # of connection points: 2
#     Edge 91, Type (0, 1), BuildingBlock: XIVTED_clean_linker_0, # of connection points: 2
#     Edge 92, Type (0, 1), BuildingBlock: XIVTED_clean_linker_0, # of connection points: 2
#     Edge 93, Type (0, 1), BuildingBlock: XIVTED_clean_linker_0, # of connection points: 2
#     Edge 94, Type (0, 1), BuildingBlock: XIVTED_clean_linker_0, # of connection points: 2
#     Edge 95, Type (0, 1), BuildingBlock: XIVTED_clean_linker_0, # of connection points: 2
#     Edge 96, Type (0, 1), BuildingBlock: XIVTED_clean_linker_0, # of connection points: 2
#     Edge 97, Type (0, 1), BuildingBlock: XIVTED_clean_linker_0, # of connection points: 2
#     Edge 98, Type (0, 1), BuildingBlock: XIVTED_clean_linker_0, # of connection points: 2
#     Edge 99, Type (0, 1), BuildingBlock: XIVTED_clean_linker_0, # of connection points: 2
#     Edge 100, Type (0, 1), BuildingBlock: XIVTED_clean_linker_0, # of connection points: 2
#     Edge 101, Type (0, 1), BuildingBlock: XIVTED_clean_linker_0, # of connection points: 2
#     Edge 102, Type (0, 1), BuildingBlock: XIVTED_clean_linker_0, # of connection points: 2
#     Edge 103, Type (0, 1), BuildingBlock: XIVTED_clean_linker_0, # of connection points: 2
#     Edge 104, Type (0, 1), BuildingBlock: XIVTED_clean_linker_0, # of connection points: 2
#     Edge 105, Type (0, 1), BuildingBlock: XIVTED_clean_linker_0, # of connection points: 2
#     Edge 106, Type (0, 1), BuildingBlock: XIVTED_clean_linker_0, # of connection points: 2
#     Edge 107, Type (0, 1), BuildingBlock: XIVTED_clean_linker_0, # of connection points: 2
# Relax obj value: 0.041
# Max RMSD: 0.153
# Mean RMSD: 0.069
data_MOF--net-ptr--node1-KUFVIS_clean_sbu_0--node2-MIFKUJ_clean_linker_1--edge1-XIVTED_clean_linker_0
_symmetry_space_group_name_H-M    P1
_symmetry_Int_Tables_number       1
_symmetry_cell_setting            triclinic
loop_
_symmetry_equiv_pos_as_xyz
'x, y, z'
_cell_length_a     89.565743
_cell_length_b     89.163807
_cell_length_c     62.057114
_cell_angle_alpha  89.809882
_cell_angle_beta   90.544805
_cell_angle_gamma 119.47162
loop_
_atom_site_label
_atom_site_type_symbol
_atom_site_fract_x
_atom_site_fract_y
_atom_site_fract_z
_atom_type_partial_charge
Mn0 Mn 0.99745 0.3503 0.00448 0.0
Mn1 Mn 0.03506 0.3874 0.00138 0.0
C2 C 0.00043 0.37096 0.97978 0.0
C3 C 0.98077 0.32164 0.99394 0.0
C4 C 0.00907 0.37951 0.037 0.0
O5 O 0.01405 0.3451 0.02105 0.0
O6 O 0.03905 0.36915 0.01409 0.0
C7 C 0.0525 0.37717 0.96908 0.0
N8 N 0.0468 0.38804 0.97555 0.0
C9 C 0.05803 0.40545 0.94378 0.0
C10 C 0.06419 0.39455 0.93689 0.0
C11 C 0.06135 0.38031 0.94956 0.0
C12 C 0.04937 0.40171 0.96343 0.0
H13 H 0.05025 0.36616 0.97872 0.0
C14 C 0.03038 0.35393 0.02187 0.0
O15 O 0.97771 0.32723 0.01177 0.0
O16 O 0.99367 0.33259 0.98266 0.0
N17 N 0.0332 0.40616 0.98915 0.0
C18 C 0.02546 0.41474 0.99738 0.0
C19 C 0.02651 0.42895 0.98621 0.0
C20 C 0.03564 0.4343 0.96684 0.0
C21 C 0.04367 0.42541 0.95882 0.0
C22 C 0.04226 0.41139 0.9707 0.0
H23 H 0.01846 0.41073 0.01228 0.0
O24 O 0.98529 0.35904 0.9855 0.0
O25 O 0.01335 0.3702 0.98834 0.0
O26 O 0.99731 0.36515 0.02954 0.0
O27 O 0.02376 0.38823 0.02823 0.0
C28 C 0.0527 0.42965 0.93925 0.0
C29 C 0.05984 0.41966 0.93171 0.0
H30 H 0.07094 0.39688 0.92178 0.0
H31 H 0.06595 0.37176 0.94427 0.0
H32 H 0.02027 0.43575 0.99251 0.0
H33 H 0.03629 0.44517 0.95817 0.0
H34 H 0.05395 0.44039 0.92968 0.0
H35 H 0.06648 0.42287 0.91646 0.0
Mn36 Mn 0.64805 0.64752 0.01657 0.0
Mn37 Mn 0.6503 0.61095 0.02056 0.0
C38 C 0.63173 0.62716 0.04195 0.0
C39 C 0.6591 0.67635 0.02584 0.0
C40 C 0.63058 0.61756 0.98503 0.0
O41 O 0.66929 0.65276 0.99933 0.0
O42 O 0.67158 0.62923 0.00698 0.0
C43 C 0.67873 0.62274 0.05232 0.0
N44 N 0.66229 0.61139 0.04639 0.0
C45 C 0.65757 0.5954 0.07932 0.0
C46 C 0.67452 0.60681 0.08568 0.0
C47 C 0.68512 0.62057 0.07215 0.0
C48 C 0.65193 0.5982 0.05937 0.0
H49 H 0.68688 0.6334 0.04203 0.0
C50 C 0.67721 0.64417 0.99853 0.0
O51 O 0.64993 0.67003 0.00845 0.0
O52 O 0.66214 0.66604 0.0375 0.0
N53 N 0.63069 0.59213 0.03353 0.0
C54 C 0.61455 0.58251 0.02526 0.0
C55 C 0.60227 0.56836 0.03696 0.0
C56 C 0.60674 0.56413 0.05692 0.0
C57 C 0.62352 0.57401 0.06491 0.0
C58 C 0.63525 0.58788 0.05245 0.0
H59 H 0.61103 0.58564 0.0099 0.0
O60 O 0.62791 0.63886 0.03613 0.0
O61 O 0.64529 0.62805 0.03323 0.0
O62 O 0.63278 0.6319 0.99226 0.0
O63 O 0.63725 0.6092 0.99381 0.0
C64 C 0.62899 0.57079 0.0849 0.0
C65 C 0.64599 0.58151 0.09213 0.0
H66 H 0.67948 0.60522 0.10099 0.0
H67 H 0.69818 0.62951 0.07701 0.0
H68 H 0.58937 0.56076 0.03064 0.0
H69 H 0.59719 0.55331 0.06599 0.0
H70 H 0.62017 0.56023 0.09495 0.0
H71 H 0.64998 0.57904 0.10764 0.0
Mn72 Mn 0.34872 0.99886 0.01884 0.0
Mn73 Mn 0.38717 0.0353 0.02077 0.0
C74 C 0.3696 0.00085 0.04269 0.0
C75 C 0.32032 0.98315 0.03012 0.0
C76 C 0.37685 0.00843 0.98543 0.0
O77 O 0.34419 0.01628 0.00288 0.0
O78 O 0.36977 0.04024 0.00753 0.0
C79 C 0.37885 0.05485 0.05232 0.0
N80 N 0.38884 0.04805 0.04621 0.0
C81 C 0.40679 0.05946 0.07773 0.0
C82 C 0.39675 0.06668 0.08431 0.0
C83 C 0.38269 0.06432 0.07158 0.0
C84 C 0.40235 0.05018 0.05838 0.0
H85 H 0.36803 0.05304 0.04257 0.0
C86 C 0.35424 0.03243 1.00062 0.0
O87 O 0.32516 0.97979 0.01196 0.0
O88 O 0.33186 0.99589 0.04135 0.0
N89 N 0.40537 0.03263 0.03315 0.0
C90 C 0.41326 0.02416 0.02502 0.0
C91 C 0.42734 0.02488 0.0361 0.0
C92 C 0.4333 0.03445 0.05526 0.0
C93 C 0.42514 0.04327 0.06313 0.0
C94 C 0.41121 0.04215 0.05134 0.0
H95 H 0.40878 0.01685 0.01025 0.0
O96 O 0.35701 0.98592 0.03712 0.0
O97 O 0.36946 0.01422 0.03445 0.0
O98 O 0.36224 0.99757 0.993 0.0
O99 O 0.38681 0.02293 0.99433 0.0
C100 C 0.43007 0.05287 0.08242 0.0
C101 C 0.42086 0.06089 0.08977 0.0
H102 H 0.39964 0.07395 0.09919 0.0
H103 H 0.37484 0.06978 0.0766 0.0
H104 H 0.43358 0.01805 0.0299 0.0
H105 H 0.44406 0.03485 0.06386 0.0
H106 H 0.44076 0.05393 0.09191 0.0
H107 H 0.42461 0.06801 0.1048 0.0
Mn108 Mn 0.99983 0.6505 1.00017 0.0
Mn109 Mn 0.03707 0.64958 1.00032 0.0
C110 C 0.0032 0.63244 0.97654 0.0
C111 C 0.98362 0.66299 0.98856 0.0
C112 C 0.0096 0.63217 0.0343 0.0
O113 O 0.0162 0.67199 0.01722 0.0
O114 O 0.04105 0.67187 0.01244 0.0
C115 C 0.05622 0.67704 0.9684 0.0
N116 N 0.04992 0.66045 0.97505 0.0
C117 C 0.06209 0.65388 0.94455 0.0
C118 C 0.06884 0.67093 0.93746 0.0
C119 C 0.06585 0.68254 0.94941 0.0
C120 C 0.05265 0.64916 0.96364 0.0
H121 H 0.05389 0.68597 0.9775 0.0
C122 C 0.03245 0.67889 0.01923 0.0
O123 O 0.98018 0.65431 0.00639 0.0
O124 O 0.99672 0.66474 0.97775 0.0
N125 N 0.03527 0.62883 0.9889 0.0
C126 C 0.02709 0.61262 0.99731 0.0
C127 C 0.02838 0.59934 0.98693 0.0
C128 C 0.0382 0.60288 0.96816 0.0
C129 C 0.04669 0.6197 0.95997 0.0
C130 C 0.04502 0.63244 0.97108 0.0
H131 H 0.01957 0.60982 0.01176 0.0
O132 O 0.98801 0.62985 0.98113 0.0
O133 O 0.01603 0.64584 0.98545 0.0
O134 O 0.99841 0.63521 0.02557 0.0
O135 O 0.02464 0.63769 0.02678 0.0
C136 C 0.05646 0.62425 0.94099 0.0
C137 C 0.0641 0.64132 0.93324 0.0
H138 H 0.07621 0.67521 0.92277 0.0
H139 H 0.07093 0.69569 0.94397 0.0
H140 H 0.02179 0.58639 0.99335 0.0
H141 H 0.03902 0.59256 0.96008 0.0
H142 H 0.05794 0.61467 0.93203 0.0
H143 H 0.07134 0.64459 0.91844 0.0
Mn144 Mn 0.35148 0.35507 0.01858 0.0
Mn145 Mn 0.38819 0.35323 0.02151 0.0
C146 C 0.37295 0.37276 0.04241 0.0
C147 C 0.32336 0.34458 0.03027 0.0
C148 C 0.38002 0.37128 0.98532 0.0
O149 O 0.34539 0.33266 0.00293 0.0
O150 O 0.36958 0.33139 0.00915 0.0
C151 C 0.37774 0.32585 0.05442 0.0
N152 N 0.38874 0.34216 0.04769 0.0
C153 C 0.40593 0.34813 0.0799 0.0
C154 C 0.39487 0.33134 0.0871 0.0
C155 C 0.38069 0.32018 0.07433 0.0
C156 C 0.40235 0.35305 0.05992 0.0
H157 H 0.36679 0.31726 0.0447 0.0
C158 C 0.3542 0.32498 0.00187 0.0
O159 O 0.32838 0.35247 0.01189 0.0
O160 O 0.33447 0.34236 0.04128 0.0
N161 N 0.40733 0.37342 0.03332 0.0
C162 C 0.41649 0.38934 0.02433 0.0
C163 C 0.43097 0.40213 0.03523 0.0
C164 C 0.43598 0.39838 0.05513 0.0
C165 C 0.42653 0.38182 0.06388 0.0
C166 C 0.4123 0.36955 0.05221 0.0
H167 H 0.41276 0.3923 0.00901 0.0
O168 O 0.36116 0.37643 0.03666 0.0
O169 O 0.37163 0.35873 0.03436 0.0
O170 O 0.36578 0.36903 0.99271 0.0
O171 O 0.38886 0.36529 0.99443 0.0
C172 C 0.43053 0.37707 0.08389 0.0
C173 C 0.4202 0.36026 0.09192 0.0
H174 H 0.39706 0.32694 0.10248 0.0
H175 H 0.37203 0.30724 0.07983 0.0
H176 H 0.43823 0.41487 0.02833 0.0
H177 H 0.44706 0.40832 0.06358 0.0
H178 H 0.44139 0.38631 0.09335 0.0
H179 H 0.42328 0.35682 0.10745 0.0
Mn180 Mn 0.65076 0.00336 0.00567 0.0
Mn181 Mn 0.61267 0.96659 0.00282 0.0
C182 C 0.63038 0.00096 0.98081 0.0
C183 C 0.67926 0.01938 0.99501 0.0
C184 C 0.6216 0.9936 0.03765 0.0
O185 O 0.65536 0.98634 0.02226 0.0
O186 O 0.62993 0.96221 0.01757 0.0
C187 C 0.62233 0.94693 0.97314 0.0
N188 N 0.61195 0.95356 0.97809 0.0
C189 C 0.59464 0.94099 0.94635 0.0
C190 C 0.60507 0.93394 0.94096 0.0
C191 C 0.61902 0.93698 0.95438 0.0
C192 C 0.59857 0.9508 0.96524 0.0
H193 H 0.63303 0.94921 0.98346 0.0
C194 C 0.64537 0.97022 0.02477 0.0
O195 O 0.67408 0.0228 0.01288 0.0
O196 O 0.66802 0.00639 0.98384 0.0
N197 N 0.59464 0.96871 0.98893 0.0
C198 C 0.58647 0.97728 0.99576 0.0
C199 C 0.57259 0.97612 0.9837 0.0
C200 C 0.56708 0.96594 0.96497 0.0
C201 C 0.57553 0.95704 0.95844 0.0
C202 C 0.58931 0.95872 0.97108 0.0
H203 H 0.59059 0.98503 0.01022 0.0
O204 O 0.64262 0.01598 0.98672 0.0
O205 O 0.63052 0.98769 0.98938 0.0
O206 O 0.63651 0.00445 0.03086 0.0
O207 O 0.61198 0.97916 0.02845 0.0
C208 C 0.57102 0.9468 0.9397 0.0
C209 C 0.58062 0.93886 0.93359 0.0
H210 H 0.60258 0.92628 0.92649 0.0
H211 H 0.62717 0.93164 0.95028 0.0
H212 H 0.56613 0.98303 0.98884 0.0
H213 H 0.55643 0.96515 0.95564 0.0
H214 H 0.56035 0.94516 0.92969 0.0
H215 H 0.57721 0.93127 0.91894 0.0
Mn216 Mn 0.66418 0.68626 0.34113 0.0
Mn217 Mn 0.70146 0.72397 0.33961 0.0
C218 C 0.66787 0.7067 0.31568 0.0
C219 C 0.64764 0.65754 0.33099 0.0
C220 C 0.67377 0.71603 0.37265 0.0
O221 O 0.6803 0.68122 0.3591 0.0
O222 O 0.70486 0.70634 0.35512 0.0
C223 C 0.72105 0.71322 0.31152 0.0
N224 N 0.71476 0.72404 0.3157 0.0
C225 C 0.72782 0.74063 0.28383 0.0
C226 C 0.73453 0.72973 0.27925 0.0
C227 C 0.73108 0.71593 0.29313 0.0
C228 C 0.71793 0.73731 0.30241 0.0
H229 H 0.71841 0.7026 0.32215 0.0
C230 C 0.69637 0.69089 0.36224 0.0
O231 O 0.6442 0.66347 0.34821 0.0
O232 O 0.66095 0.66817 0.32002 0.0
N233 N 0.70026 0.7423 0.32502 0.0
C234 C 0.69219 0.75113 0.33122 0.0
C235 C 0.69399 0.7651 0.31877 0.0
C236 C 0.7042 0.76996 0.30024 0.0
C237 C 0.71259 0.76084 0.29438 0.0
C238 C 0.71039 0.74708 0.30747 0.0
H239 H 0.68438 0.7475 0.34549 0.0
O240 O 0.6526 0.69476 0.32088 0.0
O241 O 0.68061 0.70621 0.32526 0.0
O242 O 0.66296 0.70114 0.36548 0.0
O243 O 0.68855 0.72533 0.3644 0.0
C244 C 0.72279 0.76466 0.27585 0.0
C245 C 0.73034 0.75452 0.27053 0.0
H246 H 0.74223 0.73175 0.26505 0.0
H247 H 0.73615 0.70741 0.28965 0.0
H248 H 0.68748 0.77208 0.32341 0.0
H249 H 0.70543 0.78064 0.29057 0.0
H250 H 0.72471 0.7752 0.2654 0.0
H251 H 0.73795 0.75742 0.25606 0.0
Mn252 Mn 0.31431 0.98039 0.35206 0.0
Mn253 Mn 0.31213 0.94147 0.3538 0.0
C254 C 0.29645 0.95998 0.37649 0.0
C255 C 0.32716 0.00909 0.3631 0.0
C256 C 0.29418 0.95141 0.31954 0.0
O257 O 0.33544 0.98444 0.33537 0.0
O258 O 0.33357 0.95846 0.33927 0.0
C259 C 0.34133 0.95033 0.38356 0.0
N260 N 0.32442 0.94028 0.37848 0.0
C261 C 0.31959 0.92311 0.41035 0.0
C262 C 0.33699 0.9332 0.41587 0.0
C263 C 0.34789 0.9469 0.40244 0.0
C264 C 0.3138 0.92712 0.39132 0.0
H265 H 0.34973 0.96089 0.37329 0.0
C266 C 0.34118 0.97404 0.33247 0.0
O267 O 0.31847 0.00401 0.34518 0.0
O268 O 0.32881 0.99761 0.37416 0.0
N269 N 0.29215 0.92364 0.36741 0.0
C270 C 0.27557 0.91566 0.3603 0.0
C271 C 0.26293 0.90192 0.3722 0.0
C272 C 0.2675 0.89639 0.3911 0.0
C273 C 0.28469 0.90461 0.3979 0.0
C274 C 0.29674 0.91818 0.38533 0.0
H275 H 0.27198 0.91982 0.34574 0.0
O276 O 0.29397 0.97263 0.37101 0.0
O277 O 0.30952 0.95975 0.3678 0.0
O278 O 0.29872 0.96648 0.32672 0.0
O279 O 0.2988 0.94132 0.32826 0.0
C280 C 0.29029 0.90013 0.41691 0.0
C281 C 0.30772 0.9094 0.42316 0.0
H282 H 0.34208 0.93063 0.43045 0.0
H283 H 0.36131 0.9548 0.40664 0.0
H284 H 0.24969 0.89564 0.36683 0.0
H285 H 0.25769 0.8859 0.40035 0.0
H286 H 0.28125 0.88975 0.42702 0.0
H287 H 0.31182 0.906 0.43797 0.0
Mn288 Mn 0.01397 0.32959 0.34804 0.0
Mn289 Mn 0.05265 0.3657 0.3502 0.0
C290 C 0.03481 0.33101 0.37148 0.0
C291 C 0.98566 0.31431 0.35975 0.0
C292 C 0.04183 0.33916 0.3143 0.0
O293 O 0.00973 0.34735 0.33247 0.0
O294 O 0.03536 0.37112 0.33775 0.0
C295 C 0.04477 0.3848 0.38292 0.0
N296 N 0.05458 0.37796 0.3762 0.0
C297 C 0.07235 0.3881 0.40804 0.0
C298 C 0.06251 0.39536 0.41525 0.0
C299 C 0.04864 0.39366 0.40265 0.0
C300 C 0.0679 0.37944 0.38823 0.0
H301 H 0.03408 0.38348 0.3733 0.0
C302 C 0.01985 0.36354 0.33074 0.0
O303 O 0.99016 0.31081 0.34142 0.0
O304 O 0.99748 0.32693 0.37085 0.0
N305 N 0.07078 0.36256 0.36187 0.0
C306 C 0.07874 0.35447 0.35284 0.0
C307 C 0.09282 0.35483 0.36349 0.0
C308 C 0.09869 0.36365 0.38317 0.0
C309 C 0.09048 0.37213 0.39196 0.0
C310 C 0.07662 0.37146 0.38051 0.0
H311 H 0.07434 0.34774 0.33767 0.0
O312 O 0.02201 0.31622 0.36593 0.0
O313 O 0.03485 0.34454 0.36351 0.0
O314 O 0.02727 0.32824 0.32197 0.0
O315 O 0.05187 0.35362 0.32326 0.0
C316 C 0.09535 0.38098 0.41179 0.0
C317 C 0.08625 0.38891 0.41986 0.0
H318 H 0.06541 0.40216 0.43049 0.0
H319 H 0.04093 0.39916 0.40816 0.0
H320 H 0.09911 0.34829 0.35658 0.0
H321 H 0.10944 0.36374 0.39145 0.0
H322 H 0.10593 0.3816 0.42109 0.0
H323 H 0.08998 0.3955 0.43524 0.0
Mn324 Mn 0.66789 0.98112 0.3362 0.0
Mn325 Mn 0.70484 0.97951 0.33499 0.0
C326 C 0.67106 0.96362 0.31141 0.0
C327 C 0.65112 0.99329 0.3259 0.0
C328 C 0.67724 0.96073 0.36827 0.0
O329 O 0.68435 0.00234 0.35354 0.0
O330 O 0.70845 0.00056 0.35038 0.0
C331 C 0.72453 0.00958 0.30667 0.0
N332 N 0.7182 0.99254 0.31102 0.0
C333 C 0.73129 0.98877 0.27934 0.0
C334 C 0.73805 0.0063 0.27458 0.0
C335 C 0.7346 0.01673 0.28827 0.0
C336 C 0.72134 0.98237 0.29789 0.0
H337 H 0.72191 0.01763 0.31716 0.0
C338 C 0.70031 0.00807 0.35709 0.0
O339 O 0.64812 0.98436 0.34347 0.0
O340 O 0.66425 0.99567 0.31464 0.0
N341 N 0.70359 0.95995 0.32065 0.0
C342 C 0.69565 0.94319 0.32715 0.0
C343 C 0.69755 0.93099 0.31499 0.0
C344 C 0.70779 0.93618 0.29648 0.0
C345 C 0.7161 0.95355 0.29035 0.0
C346 C 0.71378 0.96514 0.30315 0.0
H347 H 0.68784 0.93914 0.34143 0.0
O348 O 0.65593 0.96082 0.3167 0.0
O349 O 0.68403 0.97683 0.32046 0.0
O350 O 0.66679 0.96543 0.36108 0.0
O351 O 0.69185 0.96544 0.35985 0.0
C352 C 0.72634 0.95978 0.27183 0.0
C353 C 0.73387 0.97736 0.26628 0.0
H354 H 0.7458 0.01187 0.26039 0.0
H355 H 0.73971 0.03026 0.28466 0.0
H356 H 0.69112 0.91761 0.31986 0.0
H357 H 0.7091 0.9267 0.28704 0.0
H358 H 0.72833 0.95111 0.2616 0.0
H359 H 0.74153 0.98194 0.25185 0.0
Mn360 Mn 0.01607 0.68871 0.34829 0.0
Mn361 Mn 0.0546 0.69033 0.34903 0.0
C362 C 0.03681 0.70617 0.37301 0.0
C363 C 0.98758 0.67617 0.35929 0.0
C364 C 0.04439 0.70856 0.31554 0.0
O365 O 0.01163 0.66755 0.3307 0.0
O366 O 0.03726 0.66881 0.33472 0.0
C367 C 0.04633 0.66121 0.37857 0.0
N368 N 0.05626 0.67815 0.37347 0.0
C369 C 0.07417 0.68314 0.40478 0.0
C370 C 0.06419 0.66571 0.41032 0.0
C371 C 0.05019 0.65471 0.39718 0.0
C372 C 0.06973 0.68886 0.38603 0.0
H373 H 0.03556 0.65273 0.36851 0.0
C374 C 0.02175 0.66149 0.32772 0.0
O375 O 0.99273 0.68514 0.34168 0.0
O376 O 0.99884 0.67397 0.37006 0.0
N377 N 0.0727 0.71047 0.36242 0.0
C378 C 0.08049 0.72709 0.35539 0.0
C379 C 0.09449 0.73983 0.36704 0.0
C380 C 0.10045 0.73533 0.38564 0.0
C381 C 0.09238 0.7181 0.39238 0.0
C382 C 0.07854 0.70595 0.38006 0.0
H383 H 0.07601 0.73061 0.34106 0.0
O384 O 0.02427 0.70892 0.36803 0.0
O385 O 0.03673 0.69308 0.36366 0.0
O386 O 0.0298 0.70464 0.3234 0.0
O387 O 0.05433 0.70348 0.32352 0.0
C388 C 0.09731 0.71256 0.41106 0.0
C389 C 0.08818 0.69511 0.41731 0.0
H390 H 0.06709 0.66066 0.42469 0.0
H391 H 0.04238 0.64127 0.4014 0.0
H392 H 0.10065 0.7531 0.36173 0.0
H393 H 0.11115 0.74522 0.39469 0.0
H394 H 0.10795 0.72167 0.42093 0.0
H395 H 0.09193 0.69106 0.43189 0.0
Mn396 Mn 0.3191 0.33884 0.33813 0.0
Mn397 Mn 0.281 0.30219 0.33476 0.0
C398 C 0.29893 0.33673 0.31309 0.0
C399 C 0.34771 0.35455 0.32787 0.0
C400 C 0.29034 0.32873 0.37048 0.0
O401 O 0.32326 0.32148 0.35466 0.0
O402 O 0.29838 0.29713 0.34783 0.0
C403 C 0.28957 0.283 0.30295 0.0
N404 N 0.27954 0.28973 0.30912 0.0
C405 C 0.26173 0.27851 0.27746 0.0
C406 C 0.27178 0.27132 0.27085 0.0
C407 C 0.2858 0.27363 0.28362 0.0
C408 C 0.26606 0.28765 0.29692 0.0
H409 H 0.30038 0.28478 0.3127 0.0
C410 C 0.31365 0.30516 0.35561 0.0
O411 O 0.34248 0.35798 0.34569 0.0
O412 O 0.33644 0.34177 0.31646 0.0
N413 N 0.26304 0.30518 0.32219 0.0
C414 C 0.25547 0.31404 0.33001 0.0
C415 C 0.24169 0.31372 0.31863 0.0
C416 C 0.23572 0.30416 0.29947 0.0
C417 C 0.24361 0.295 0.29184 0.0
C418 C 0.25727 0.29577 0.3039 0.0
H419 H 0.25997 0.32138 0.34476 0.0
O420 O 0.31122 0.35171 0.31907 0.0
O421 O 0.29893 0.32343 0.32175 0.0
O422 O 0.30488 0.33997 0.36316 0.0
O423 O 0.28095 0.31413 0.36149 0.0
C424 C 0.23873 0.28549 0.27249 0.0
C425 C 0.24781 0.27728 0.26527 0.0
H426 H 0.26897 0.26416 0.25589 0.0
H427 H 0.29368 0.26821 0.27856 0.0
H428 H 0.23568 0.32084 0.32461 0.0
H429 H 0.22518 0.30406 0.29064 0.0
H430 H 0.22822 0.28467 0.26282 0.0
H431 H 0.24414 0.27028 0.25016 0.0
Mn432 Mn 0.32774 0.01707 0.67303 0.0
Mn433 Mn 0.36486 0.05483 0.67362 0.0
C434 C 0.33149 0.03839 0.64897 0.0
C435 C 0.31192 0.98865 0.6613 0.0
C436 C 0.33693 0.04473 0.70706 0.0
O437 O 0.34396 0.0119 0.69074 0.0
O438 O 0.36896 0.03645 0.68559 0.0
C439 C 0.38455 0.04704 0.64183 0.0
N440 N 0.37802 0.05716 0.64852 0.0
C441 C 0.39034 0.07622 0.61832 0.0
C442 C 0.39737 0.06612 0.61126 0.0
C443 C 0.39441 0.05143 0.62302 0.0
C444 C 0.3807 0.07125 0.63725 0.0
H445 H 0.38219 0.03567 0.65075 0.0
C446 C 0.36024 0.02097 0.69255 0.0
O447 O 0.30807 0.99375 0.67893 0.0
O448 O 0.32521 0.99994 0.65086 0.0
N449 N 0.36277 0.07369 0.6622 0.0
C450 C 0.35408 0.08134 0.67034 0.0
C451 C 0.35511 0.09582 0.65993 0.0
C452 C 0.36516 0.10239 0.6414 0.0
C453 C 0.37412 0.09441 0.63345 0.0
C454 C 0.37268 0.08007 0.64456 0.0
H455 H 0.34636 0.0764 0.6846 0.0
O456 O 0.3162 0.026 0.65327 0.0
O457 O 0.34412 0.0377 0.65851 0.0
O458 O 0.32579 0.03082 0.69801 0.0
O459 O 0.35215 0.054 0.69999 0.0
C460 C 0.38412 0.0999 0.61467 0.0
C461 C 0.39219 0.09079 0.60708 0.0
H462 H 0.4049 0.06941 0.59668 0.0
H463 H 0.39967 0.04349 0.61757 0.0
H464 H 0.34814 0.1019 0.66616 0.0
H465 H 0.36579 0.11347 0.63331 0.0
H466 H 0.38544 0.11093 0.60571 0.0
H467 H 0.39958 0.09495 0.5924 0.0
Mn468 Mn 0.98234 0.314 0.68356 0.0
Mn469 Mn 0.9817 0.27585 0.6869 0.0
C470 C 0.96459 0.29354 0.7081 0.0
C471 C 0.99401 0.34279 0.69364 0.0
C472 C 0.96349 0.2844 0.65145 0.0
O473 O 0.00392 0.3186 0.66738 0.0
O474 O 0.00317 0.29328 0.67296 0.0
C475 C 0.01037 0.28627 0.71804 0.0
N476 N 0.99368 0.27561 0.71243 0.0
C477 C 0.98862 0.25935 0.74518 0.0
C478 C 0.00579 0.27009 0.75126 0.0
C479 C 0.01669 0.28364 0.73765 0.0
C480 C 0.98304 0.26263 0.72548 0.0
H481 H 0.01879 0.29672 0.70764 0.0
C482 C 0.01037 0.30869 0.6656 0.0
O483 O 0.98545 0.33704 0.67574 0.0
O484 O 0.99629 0.33197 0.70531 0.0
N485 N 0.96178 0.25759 0.70008 0.0
C486 C 0.94556 0.24842 0.69188 0.0
C487 C 0.93306 0.23437 0.7035 0.0
C488 C 0.93741 0.22974 0.72326 0.0
C489 C 0.95426 0.23914 0.73117 0.0
C490 C 0.96621 0.25293 0.71879 0.0
H491 H 0.94216 0.25183 0.67662 0.0
O492 O 0.96169 0.30583 0.70216 0.0
O493 O 0.97803 0.29378 0.69992 0.0
O494 O 0.96728 0.29933 0.65841 0.0
O495 O 0.96866 0.27485 0.66053 0.0
C496 C 0.95963 0.23546 0.75093 0.0
C497 C 0.97678 0.24561 0.75798 0.0
H498 H 0.01071 0.26811 0.76637 0.0
H499 H 0.02994 0.29203 0.74227 0.0
H500 H 0.9201 0.22713 0.69724 0.0
H501 H 0.9277 0.21896 0.73224 0.0
H502 H 0.95065 0.22497 0.76093 0.0
H503 H 0.98072 0.24277 0.77331 0.0
Mn504 Mn 0.68094 0.66279 0.6794 0.0
Mn505 Mn 0.71799 0.70076 0.68175 0.0
C506 C 0.70199 0.66649 0.70405 0.0
C507 C 0.65256 0.64552 0.69 0.0
C508 C 0.71024 0.6738 0.64719 0.0
O509 O 0.67513 0.67897 0.66259 0.0
O510 O 0.69982 0.70388 0.66735 0.0
C511 C 0.70677 0.71881 0.71196 0.0
N512 N 0.71794 0.7132 0.70673 0.0
C513 C 0.73457 0.72555 0.73902 0.0
C514 C 0.72331 0.73155 0.7447 0.0
C515 C 0.70933 0.72812 0.73114 0.0
C516 C 0.73135 0.71631 0.71973 0.0
H517 H 0.696 0.71617 0.70159 0.0
C518 C 0.68441 0.69522 0.66016 0.0
O519 O 0.65821 0.64248 0.67228 0.0
O520 O 0.66323 0.65884 0.70118 0.0
N521 N 0.7369 0.69999 0.69525 0.0
C522 C 0.74642 0.69309 0.68758 0.0
C523 C 0.76085 0.69528 0.69931 0.0
C524 C 0.76549 0.70474 0.71862 0.0
C525 C 0.75572 0.71205 0.72594 0.0
C526 C 0.74154 0.70953 0.71349 0.0
H527 H 0.743 0.6859 0.67268 0.0
O528 O 0.69015 0.65115 0.69854 0.0
O529 O 0.70099 0.67926 0.69536 0.0
O530 O 0.69563 0.66246 0.65429 0.0
O531 O 0.71928 0.68857 0.65597 0.0
C532 C 0.75935 0.72152 0.74526 0.0
C533 C 0.74874 0.7282 0.75184 0.0
H534 H 0.72522 0.73872 0.75949 0.0
H535 H 0.70054 0.73265 0.73546 0.0
H536 H 0.76836 0.68965 0.69351 0.0
H537 H 0.77653 0.70627 0.72772 0.0
H538 H 0.77015 0.72356 0.75531 0.0
H539 H 0.75154 0.73529 0.76685 0.0
Mn540 Mn 0.33119 0.31494 0.66827 0.0
Mn541 Mn 0.36727 0.31176 0.66924 0.0
C542 C 0.33419 0.29699 0.64407 0.0
C543 C 0.31617 0.32873 0.65677 0.0
C544 C 0.33876 0.29439 0.70185 0.0
O545 O 0.34786 0.33576 0.68613 0.0
O546 O 0.3718 0.33365 0.68314 0.0
C547 C 0.3885 0.34049 0.63981 0.0
N548 N 0.38124 0.32351 0.64507 0.0
C549 C 0.39391 0.31774 0.61443 0.0
C550 C 0.40162 0.33519 0.60875 0.0
C551 C 0.39886 0.3466 0.62146 0.0
C552 C 0.38375 0.31241 0.63291 0.0
H553 H 0.3864 0.34929 0.64955 0.0
C554 C 0.36382 0.34139 0.6896 0.0
O555 O 0.31209 0.31963 0.6743 0.0
O556 O 0.32923 0.33014 0.64618 0.0
N557 N 0.36489 0.29123 0.6563 0.0
C558 C 0.35582 0.27466 0.66338 0.0
C559 C 0.3568 0.26155 0.65211 0.0
C560 C 0.36723 0.26562 0.63384 0.0
C561 C 0.37664 0.28279 0.62705 0.0
C562 C 0.37522 0.29533 0.63898 0.0
H563 H 0.34783 0.27147 0.67745 0.0
O564 O 0.31912 0.29485 0.64839 0.0
O565 O 0.34712 0.30978 0.65374 0.0
O566 O 0.32847 0.29877 0.69331 0.0
O567 O 0.35368 0.29899 0.69454 0.0
C568 C 0.38707 0.28792 0.60862 0.0
C569 C 0.39566 0.30537 0.60229 0.0
H570 H 0.40957 0.33995 0.59456 0.0
H571 H 0.4047 0.36008 0.61712 0.0
H572 H 0.3495 0.24832 0.65746 0.0
H573 H 0.36782 0.25544 0.62507 0.0
H574 H 0.38836 0.2785 0.59901 0.0
H575 H 0.40344 0.30911 0.58791 0.0
Mn576 Mn 0.68196 0.02132 0.68253 0.0
Mn577 Mn 0.72001 0.02201 0.68167 0.0
C578 C 0.70368 0.03916 0.70591 0.0
C579 C 0.654 0.00964 0.69527 0.0
C580 C 0.70932 0.03989 0.64826 0.0
O581 O 0.67643 0.9995 0.6658 0.0
O582 O 0.70192 0.00031 0.66839 0.0
C583 C 0.71203 0.99338 0.71196 0.0
N584 N 0.72206 0.01018 0.70625 0.0
C585 C 0.74056 0.01553 0.73704 0.0
C586 C 0.73048 0.99825 0.74318 0.0
C587 C 0.71614 0.98715 0.73061 0.0
C588 C 0.73588 0.02098 0.71824 0.0
H589 H 0.70097 0.98482 0.70235 0.0
C590 C 0.68616 0.99305 0.66241 0.0
O591 O 0.65847 0.0179 0.6771 0.0
O592 O 0.66558 0.00764 0.70554 0.0
N593 N 0.73872 0.04222 0.69408 0.0
C594 C 0.74653 0.05871 0.68658 0.0
C595 C 0.76082 0.07156 0.6977 0.0
C596 C 0.76702 0.06731 0.71626 0.0
C597 C 0.75892 0.05021 0.72351 0.0
C598 C 0.74479 0.03793 0.7117 0.0
H599 H 0.74182 0.06205 0.6723 0.0
O600 O 0.69124 0.04217 0.70132 0.0
O601 O 0.70294 0.02565 0.69691 0.0
O602 O 0.69499 0.03633 0.65665 0.0
O603 O 0.71932 0.03478 0.65599 0.0
C604 C 0.76405 0.04494 0.74226 0.0
C605 C 0.75486 0.02762 0.74904 0.0
H606 H 0.73356 0.99342 0.75761 0.0
H607 H 0.70825 0.97382 0.7353 0.0
H608 H 0.767 0.08473 0.692 0.0
H609 H 0.77794 0.07729 0.72491 0.0
H610 H 0.77489 0.05416 0.75178 0.0
H611 H 0.75879 0.02378 0.76366 0.0
Mn612 Mn 0.9833 0.6713 0.67324 0.0
Mn613 Mn 0.94431 0.63555 0.67366 0.0
C614 C 0.96252 0.66861 0.64885 0.0
C615 C 0.01158 0.68595 0.66159 0.0
C616 C 0.95595 0.66415 0.70681 0.0
O617 O 0.98736 0.65428 0.69083 0.0
O618 O 0.96145 0.63048 0.68735 0.0
C619 C 0.9508 0.61353 0.64395 0.0
N620 N 0.94154 0.62131 0.64934 0.0
C621 C 0.92257 0.6086 0.61895 0.0
C622 C 0.93184 0.60036 0.61312 0.0
C623 C 0.94605 0.60289 0.62565 0.0
C624 C 0.92789 0.61903 0.63737 0.0
H625 H 0.96171 0.61543 0.65358 0.0
C626 C 0.97707 0.63828 0.69395 0.0
O627 O 0.00699 0.69027 0.67927 0.0
O628 O 0.99985 0.67279 0.65111 0.0
N629 N 0.92649 0.6386 0.66082 0.0
C630 C 0.91968 0.64841 0.66779 0.0
C631 C 0.90577 0.64792 0.65652 0.0
C632 C 0.89889 0.6372 0.63839 0.0
C633 C 0.906 0.62709 0.63166 0.0
C634 C 0.91986 0.62812 0.64352 0.0
H635 H 0.92488 0.65661 0.68176 0.0
O636 O 0.97533 0.68367 0.65349 0.0
O637 O 0.96233 0.65553 0.65847 0.0
O638 O 0.97037 0.6744 0.69837 0.0
O639 O 0.94561 0.64926 0.6992 0.0
C640 C 0.9001 0.61627 0.61343 0.0
C641 C 0.90842 0.60709 0.60701 0.0
H642 H 0.92824 0.59218 0.59898 0.0
H643 H 0.95331 0.59663 0.62121 0.0
H644 H 0.90037 0.65578 0.6618 0.0
H645 H 0.88823 0.63693 0.62966 0.0
H646 H 0.88937 0.61516 0.60398 0.0
H647 H 0.90397 0.59907 0.59273 0.0
H648 H 0.14735 0.33593 0.1908 0.0
H649 H 0.12626 0.33829 0.21278 0.0
H650 H 0.08589 0.29173 0.18395 0.0
H651 H 0.10733 0.28926 0.16197 0.0
H652 H 0.15671 0.31225 0.18919 0.0
H653 H 0.13103 0.33554 0.14372 0.0
H654 H 0.10851 0.33766 0.12384 0.0
H655 H 0.10022 0.29455 0.08414 0.0
H656 H 0.12218 0.29172 0.10499 0.0
H657 H 0.17128 0.29471 0.10455 0.0
H658 H 0.19632 0.29932 0.08365 0.0
H659 H 0.22799 0.34585 0.11974 0.0
H660 H 0.20293 0.34157 0.14002 0.0
H661 H 0.15535 0.31325 0.10936 0.0
H662 H 0.18979 0.29783 0.15739 0.0
H663 H 0.2152 0.30364 0.17869 0.0
H664 H 0.21049 0.34276 0.21426 0.0
H665 H 0.18628 0.33793 0.19188 0.0
C666 C 0.12894 0.31244 0.1747 0.0
C667 C 0.13399 0.32614 0.18926 0.0
C668 C 0.12188 0.32758 0.20166 0.0
C669 C 0.10438 0.31531 0.1999 0.0
C670 C 0.09929 0.30136 0.18563 0.0
C671 C 0.11149 0.29998 0.17303 0.0
C672 C 0.14218 0.31172 0.16121 0.0
C673 C 0.15644 0.31247 0.17171 0.0
C674 C 0.14172 0.31191 0.13841 0.0
C675 C 0.12796 0.31311 0.12633 0.0
C676 C 0.12405 0.32617 0.13122 0.0
C677 C 0.11126 0.32746 0.11978 0.0
C678 C 0.10257 0.31613 0.10271 0.0
C679 C 0.10672 0.30334 0.09738 0.0
C680 C 0.11925 0.30176 0.10922 0.0
C681 C 0.18528 0.31755 0.12425 0.0
C682 C 0.18359 0.30599 0.10782 0.0
C683 C 0.19787 0.30864 0.09588 0.0
C684 C 0.2141 0.32284 0.10026 0.0
C685 C 0.21567 0.33465 0.11627 0.0
C686 C 0.20137 0.33216 0.12793 0.0
C687 C 0.17023 0.31442 0.13742 0.0
C688 C 0.15551 0.31268 0.12682 0.0
C689 C 0.1707 0.31437 0.16026 0.0
C690 C 0.18614 0.3175 0.17291 0.0
C691 C 0.19447 0.30787 0.16953 0.0
C692 C 0.2089 0.31108 0.18192 0.0
C693 C 0.21506 0.32375 0.19822 0.0
C694 C 0.20653 0.33322 0.20157 0.0
C695 C 0.19241 0.33026 0.18896 0.0
H696 H 0.71924 0.88433 0.18408 0.0
H697 H 0.71481 0.90369 0.20793 0.0
H698 H 0.66257 0.88169 0.18483 0.0
H699 H 0.66709 0.86246 0.161 0.0
H700 H 0.69775 0.84645 0.18534 0.0
H701 H 0.71278 0.8947 0.13596 0.0
H702 H 0.70548 0.91497 0.11847 0.0
H703 H 0.6614 0.87224 0.08841 0.0
H704 H 0.66826 0.85216 0.1066 0.0
H705 H 0.67173 0.81563 0.10111 0.0
H706 H 0.66808 0.79145 0.07953 0.0
H707 H 0.70845 0.78955 0.11626 0.0
H708 H 0.71326 0.81501 0.1362 0.0
H709 H 0.69338 0.84578 0.10562 0.0
H710 H 0.66788 0.80066 0.15757 0.0
H711 H 0.66278 0.77668 0.18143 0.0
H712 H 0.7139 0.80663 0.20791 0.0
H713 H 0.7189 0.83065 0.18408 0.0
C714 C 0.69354 0.8721 0.1707 0.0
C715 C 0.70691 0.88384 0.18403 0.0
C716 C 0.70439 0.89491 0.19754 0.0
C717 C 0.68834 0.89416 0.19821 0.0
C718 C 0.67502 0.88246 0.18471 0.0
C719 C 0.67762 0.87156 0.17103 0.0
C720 C 0.69578 0.85965 0.15733 0.0
C721 C 0.69724 0.8465 0.16786 0.0
C722 C 0.69424 0.85931 0.13464 0.0
C723 C 0.69096 0.8719 0.12279 0.0
C724 C 0.70152 0.88974 0.12565 0.0
C725 C 0.69742 0.9013 0.1155 0.0
C726 C 0.68274 0.8952 0.10225 0.0
C727 C 0.67258 0.87736 0.09887 0.0
C728 C 0.67661 0.86586 0.10906 0.0
C729 C 0.69267 0.81716 0.12056 0.0
C730 C 0.68003 0.81023 0.10431 0.0
C731 C 0.67775 0.79611 0.09215 0.0
C732 C 0.68777 0.78821 0.09621 0.0
C733 C 0.70056 0.79528 0.11237 0.0
C734 C 0.70313 0.80973 0.12416 0.0
C735 C 0.6947 0.83206 0.13362 0.0
C736 C 0.6943 0.84583 0.12307 0.0
C737 C 0.69606 0.83241 0.1564 0.0
C738 C 0.69381 0.81734 0.169 0.0
C739 C 0.67809 0.80193 0.16825 0.0
C740 C 0.67515 0.78831 0.18194 0.0
C741 C 0.68795 0.78985 0.19649 0.0
C742 C 0.7039 0.80508 0.19669 0.0
C743 C 0.70674 0.81879 0.18319 0.0
H744 H 0.11119 0.83414 0.17891 0.0
H745 H 0.09076 0.81099 0.20207 0.0
H746 H 0.11752 0.78249 0.1906 0.0
H747 H 0.1371 0.80522 0.16662 0.0
H748 H 0.1508 0.85054 0.18663 0.0
H749 H 0.10495 0.82016 0.13148 0.0
H750 H 0.08536 0.79466 0.11042 0.0
H751 H 0.12811 0.78781 0.09215 0.0
H752 H 0.14751 0.81346 0.1126 0.0
H753 H 0.18658 0.85743 0.10682 0.0
H754 H 0.2111 0.87936 0.08714 0.0
H755 H 0.20347 0.919 0.11633 0.0
H756 H 0.179 0.89694 0.13618 0.0
H757 H 0.15423 0.84688 0.10727 0.0
H758 H 0.1987 0.86969 0.15682 0.0
H759 H 0.22242 0.88814 0.18061 0.0
H760 H 0.18928 0.90214 0.21489 0.0
H761 H 0.16569 0.88424 0.19019 0.0
C762 C 0.12553 0.82128 0.17101 0.0
C763 C 0.11241 0.82274 0.18121 0.0
C764 C 0.10085 0.80953 0.1946 0.0
C765 C 0.10242 0.79477 0.1984 0.0
C766 C 0.11556 0.79339 0.18783 0.0
C767 C 0.1269 0.80645 0.17419 0.0
C768 C 0.13859 0.8357 0.15818 0.0
C769 C 0.15133 0.8501 0.16919 0.0
C770 C 0.13982 0.83438 0.13568 0.0
C771 C 0.12768 0.81873 0.12352 0.0
C772 C 0.11003 0.8131 0.12295 0.0
C773 C 0.09885 0.79848 0.11096 0.0
C774 C 0.10515 0.78922 0.09938 0.0
C775 C 0.12283 0.79482 0.10037 0.0
C776 C 0.13396 0.80944 0.11218 0.0
C777 C 0.18097 0.87551 0.12308 0.0
C778 C 0.19007 0.87083 0.10883 0.0
C779 C 0.20408 0.8834 0.09752 0.0
C780 C 0.20928 0.90097 0.10013 0.0
C781 C 0.19997 0.90562 0.11417 0.0
C782 C 0.18595 0.89302 0.12549 0.0
C783 C 0.16647 0.86207 0.13562 0.0
C784 C 0.15351 0.84777 0.12462 0.0
C785 C 0.16562 0.86301 0.15834 0.0
C786 C 0.18041 0.87572 0.17148 0.0
C787 C 0.19662 0.87712 0.16901 0.0
C788 C 0.21015 0.8875 0.18287 0.0
C789 C 0.20773 0.89649 0.19983 0.0
C790 C 0.19164 0.89553 0.20189 0.0
C791 C 0.1781 0.8852 0.18787 0.0
H792 H 0.27699 0.16949 0.83967 0.0
H793 H 0.27997 0.19272 0.81581 0.0
H794 H 0.3343 0.22103 0.83071 0.0
H795 H 0.33088 0.19827 0.85525 0.0
H796 H 0.29872 0.15227 0.83431 0.0
H797 H 0.28481 0.18378 0.88823 0.0
H798 H 0.29022 0.20935 0.90899 0.0
H799 H 0.33968 0.21625 0.92856 0.0
H800 H 0.33401 0.19063 0.90831 0.0
H801 H 0.33374 0.15043 0.91122 0.0
H802 H 0.34069 0.13095 0.93079 0.0
H803 H 0.29503 0.08734 0.9049 0.0
H804 H 0.28763 0.10705 0.88623 0.0
H805 H 0.3098 0.15791 0.91312 0.0
H806 H 0.33238 0.14007 0.85503 0.0
H807 H 0.33651 0.12065 0.8315 0.0
H808 H 0.28198 0.09294 0.8177 0.0
H809 H 0.27827 0.11324 0.84041 0.0
C810 C 0.30368 0.18228 0.84932 0.0
C811 C 0.28944 0.18088 0.83798 0.0
C812 C 0.29123 0.19413 0.82421 0.0
C813 C 0.3074 0.20886 0.82117 0.0
C814 C 0.32156 0.21018 0.83288 0.0
C815 C 0.31968 0.1971 0.84687 0.0
C816 C 0.30237 0.16782 0.86244 0.0
C817 C 0.30054 0.15319 0.85166 0.0
C818 C 0.30575 0.16954 0.88484 0.0
C819 C 0.30896 0.18524 0.89684 0.0
C820 C 0.29682 0.19087 0.89698 0.0
C821 C 0.29996 0.20551 0.90879 0.0
C822 C 0.31531 0.21478 0.92066 0.0
C823 C 0.32753 0.20922 0.9201 0.0
C824 C 0.32435 0.19459 0.90842 0.0
C825 C 0.31022 0.13025 0.89708 0.0
C826 C 0.3251 0.13668 0.90991 0.0
C827 C 0.32917 0.12548 0.9209 0.0
C828 C 0.31854 0.10753 0.91923 0.0
C829 C 0.30347 0.10108 0.90665 0.0
C830 C 0.29932 0.11234 0.89575 0.0
C831 C 0.30639 0.14241 0.88497 0.0
C832 C 0.30727 0.1566 0.8959 0.0
C833 C 0.30308 0.14078 0.86253 0.0
C834 C 0.30503 0.12801 0.84947 0.0
C835 C 0.32133 0.12972 0.84701 0.0
C836 C 0.32361 0.11847 0.83364 0.0
C837 C 0.30958 0.10508 0.82262 0.0
C838 C 0.29316 0.10323 0.82555 0.0
C839 C 0.29095 0.11472 0.83866 0.0
H840 H 0.82937 0.11881 0.83528 0.0
H841 H 0.80608 0.0995 0.81098 0.0
H842 H 0.77373 0.11832 0.83674 0.0
H843 H 0.79702 0.13753 0.86107 0.0
H844 H 0.84366 0.15484 0.83428 0.0
H845 H 0.81689 0.10872 0.88553 0.0
H846 H 0.79329 0.08681 0.90663 0.0
H847 H 0.7852 0.12639 0.93515 0.0
H848 H 0.80899 0.14822 0.91426 0.0
H849 H 0.85322 0.1913 0.91371 0.0
H850 H 0.87567 0.21509 0.9343 0.0
H851 H 0.91357 0.20439 0.90661 0.0
H852 H 0.89098 0.18071 0.88575 0.0
H853 H 0.8423 0.15773 0.91394 0.0
H854 H 0.86896 0.20408 0.86426 0.0
H855 H 0.88932 0.22624 0.83995 0.0
H856 H 0.89522 0.18757 0.80548 0.0
H857 H 0.87556 0.16551 0.83042 0.0
C858 C 0.81487 0.12951 0.85002 0.0
C859 C 0.81716 0.11856 0.83591 0.0
C860 C 0.80385 0.10751 0.82212 0.0
C861 C 0.78815 0.10749 0.82195 0.0
C862 C 0.78575 0.11818 0.83646 0.0
C863 C 0.79898 0.12905 0.85045 0.0
C864 C 0.82952 0.14256 0.86285 0.0
C865 C 0.84365 0.15531 0.85176 0.0
C866 C 0.82901 0.14342 0.88553 0.0
C867 C 0.8146 0.13008 0.89819 0.0
C868 C 0.80995 0.11264 0.89625 0.0
C869 C 0.79645 0.10013 0.90832 0.0
C870 C 0.78731 0.10482 0.9226 0.0
C871 C 0.79211 0.12234 0.92459 0.0
C872 C 0.80565 0.13484 0.91256 0.0
C873 C 0.87044 0.18433 0.89807 0.0
C874 C 0.86636 0.19402 0.91217 0.0
C875 C 0.87921 0.20756 0.92403 0.0
C876 C 0.89644 0.21164 0.92216 0.0
C877 C 0.90047 0.20174 0.90822 0.0
C878 C 0.88758 0.1882 0.89631 0.0
C879 C 0.85665 0.17013 0.88538 0.0
C880 C 0.84259 0.15718 0.8965 0.0
C881 C 0.85718 0.16924 0.86262 0.0
C882 C 0.87083 0.18308 0.84942 0.0
C883 C 0.87505 0.2004 0.85198 0.0
C884 C 0.88659 0.21306 0.838 0.0
C885 C 0.89374 0.20854 0.82088 0.0
C886 C 0.88979 0.19133 0.81853 0.0
C887 C 0.87856 0.17875 0.83276 0.0
H888 H 0.81536 0.66613 0.8304 0.0
H889 H 0.79226 0.66133 0.80551 0.0
H890 H 0.79292 0.70711 0.82963 0.0
H891 H 0.81586 0.71151 0.85514 0.0
H892 H 0.84766 0.6942 0.83194 0.0
H893 H 0.79729 0.66581 0.87511 0.0
H894 H 0.77173 0.66107 0.89457 0.0
H895 H 0.80288 0.70508 0.93492 0.0
H896 H 0.8284 0.71047 0.91462 0.0
H897 H 0.8932 0.71776 0.88665 0.0
H898 H 0.91554 0.71571 0.9073 0.0
H899 H 0.87719 0.6671 0.93373 0.0
H900 H 0.85498 0.66928 0.91312 0.0
H901 H 0.84328 0.69192 0.91161 0.0
H902 H 0.887 0.72125 0.84126 0.0
H903 H 0.90892 0.7198 0.81956 0.0
H904 H 0.88587 0.66535 0.83378 0.0
H905 H 0.86486 0.66735 0.85642 0.0
C906 C 0.81736 0.68922 0.84452 0.0
C907 C 0.81052 0.67514 0.83034 0.0
C908 C 0.79736 0.67247 0.81603 0.0
C909 C 0.79086 0.68397 0.81533 0.0
C910 C 0.79754 0.69794 0.82984 0.0
C911 C 0.81069 0.70054 0.84435 0.0
C912 C 0.83176 0.69199 0.85896 0.0
C913 C 0.84677 0.69402 0.84938 0.0
C914 C 0.83051 0.69148 0.88173 0.0
C915 C 0.81479 0.68877 0.893 0.0
C916 C 0.79862 0.67481 0.88764 0.0
C917 C 0.78402 0.67201 0.89887 0.0
C918 C 0.78539 0.68278 0.91611 0.0
C919 C 0.80153 0.69662 0.92165 0.0
C920 C 0.81608 0.69967 0.91009 0.0
C921 C 0.87245 0.69359 0.89818 0.0
C922 C 0.88963 0.70668 0.89691 0.0
C923 C 0.90238 0.70547 0.9087 0.0
C924 C 0.89817 0.6912 0.9221 0.0
C925 C 0.88086 0.67837 0.9238 0.0
C926 C 0.86814 0.67957 0.91198 0.0
C927 C 0.85902 0.69407 0.88449 0.0
C928 C 0.84428 0.69269 0.89419 0.0
C929 C 0.86026 0.69485 0.86182 0.0
C930 C 0.87445 0.69443 0.85045 0.0
C931 C 0.88697 0.70912 0.83995 0.0
C932 C 0.89938 0.70819 0.82739 0.0
C933 C 0.89919 0.69241 0.82466 0.0
C934 C 0.88675 0.67782 0.83572 0.0
C935 C 0.87459 0.67886 0.84858 0.0
H936 H 0.7988 0.66617 0.48867 0.0
H937 H 0.77935 0.67091 0.51127 0.0
H938 H 0.766 0.62377 0.54566 0.0
H939 H 0.78496 0.61876 0.5223 0.0
H940 H 0.81964 0.64047 0.52029 0.0
H941 H 0.81311 0.66409 0.43796 0.0
H942 H 0.79286 0.67053 0.41951 0.0
H943 H 0.75082 0.62759 0.45147 0.0
H944 H 0.77124 0.62067 0.4693 0.0
H945 H 0.83729 0.61747 0.44478 0.0
H946 H 0.86245 0.62163 0.42445 0.0
H947 H 0.89043 0.67438 0.44649 0.0
H948 H 0.86535 0.67006 0.46701 0.0
H949 H 0.82065 0.63985 0.44046 0.0
H950 H 0.85362 0.62509 0.49122 0.0
H951 H 0.87877 0.63143 0.51313 0.0
H952 H 0.87268 0.6702 0.54763 0.0
H953 H 0.84897 0.66513 0.52419 0.0
C954 C 0.79316 0.64197 0.50357 0.0
C955 C 0.79135 0.65663 0.5007 0.0
C956 C 0.78038 0.65943 0.51385 0.0
C957 C 0.77117 0.64778 0.53042 0.0
C958 C 0.7727 0.6329 0.53291 0.0
C959 C 0.78363 0.63006 0.51966 0.0
C960 C 0.8062 0.63996 0.49121 0.0
C961 C 0.81979 0.64015 0.50282 0.0
C962 C 0.8065 0.63989 0.46839 0.0
C963 C 0.79374 0.64202 0.45523 0.0
C964 C 0.79952 0.65578 0.44066 0.0
C965 C 0.78793 0.65959 0.43032 0.0
C966 C 0.77027 0.6498 0.4344 0.0
C967 C 0.76436 0.63539 0.44804 0.0
C968 C 0.77601 0.6315 0.45833 0.0
C969 C 0.84954 0.64343 0.45747 0.0
C970 C 0.84888 0.6299 0.44525 0.0
C971 C 0.86324 0.63227 0.43375 0.0
C972 C 0.87836 0.64833 0.4339 0.0
C973 C 0.8789 0.66191 0.44598 0.0
C974 C 0.86464 0.65944 0.45776 0.0
C975 C 0.83434 0.64096 0.46961 0.0
C976 C 0.82031 0.63977 0.45794 0.0
C977 C 0.83423 0.64142 0.4924 0.0
C978 C 0.84943 0.64475 0.5058 0.0
C979 C 0.858 0.63527 0.50312 0.0
C980 C 0.87227 0.63874 0.51599 0.0
C981 C 0.87796 0.65141 0.53227 0.0
C982 C 0.86915 0.66068 0.53499 0.0
C983 C 0.85526 0.65755 0.52178 0.0
H984 H 0.38103 0.21596 0.5181 0.0
H985 H 0.3766 0.23528 0.54199 0.0
H986 H 0.32515 0.215 0.51668 0.0
H987 H 0.32963 0.19574 0.49294 0.0
H988 H 0.36033 0.17929 0.51914 0.0
H989 H 0.37678 0.22564 0.46635 0.0
H990 H 0.37225 0.24651 0.4456 0.0
H991 H 0.3239 0.2051 0.42199 0.0
H992 H 0.32879 0.18443 0.44218 0.0
H993 H 0.3319 0.14341 0.43918 0.0
H994 H 0.32946 0.11875 0.41922 0.0
H995 H 0.37675 0.12656 0.4485 0.0
H996 H 0.37901 0.15115 0.4686 0.0
H997 H 0.35414 0.17631 0.43952 0.0
H998 H 0.33105 0.13263 0.49233 0.0
H999 H 0.32667 0.10922 0.51675 0.0
H1000 H 0.37765 0.14068 0.54297 0.0
H1001 H 0.38194 0.16416 0.51854 0.0
C1002 C 0.35572 0.20455 0.50364 0.0
C1003 C 0.36889 0.21587 0.51753 0.0
C1004 C 0.36637 0.22692 0.53108 0.0
C1005 C 0.35051 0.22659 0.53121 0.0
C1006 C 0.33745 0.21543 0.51702 0.0
C1007 C 0.34005 0.20454 0.50333 0.0
C1008 C 0.35773 0.19172 0.49071 0.0
C1009 C 0.35953 0.17892 0.50167 0.0
C1010 C 0.35574 0.19074 0.46806 0.0
C1011 C 0.35314 0.20351 0.45571 0.0
C1012 C 0.36523 0.22113 0.45666 0.0
C1013 C 0.36258 0.23303 0.44487 0.0
C1014 C 0.34776 0.22749 0.432 0.0
C1015 C 0.33565 0.20981 0.4313 0.0
C1016 C 0.33837 0.19795 0.44292 0.0
C1017 C 0.35558 0.14908 0.45551 0.0
C1018 C 0.34181 0.13989 0.44119 0.0
C1019 C 0.34047 0.12582 0.42971 0.0
C1020 C 0.35291 0.12066 0.43223 0.0
C1021 C 0.36681 0.13002 0.44641 0.0
C1022 C 0.36813 0.1441 0.4579 0.0
C1023 C 0.35672 0.16381 0.46796 0.0
C1024 C 0.35552 0.17695 0.45694 0.0
C1025 C 0.35854 0.16474 0.49065 0.0
C1026 C 0.35686 0.15005 0.50357 0.0
C1027 C 0.3414 0.13436 0.50306 0.0
C1028 C 0.33887 0.12107 0.51708 0.0
C1029 C 0.35181 0.12321 0.53174 0.0
C1030 C 0.36753 0.13869 0.53169 0.0
C1031 C 0.36998 0.15209 0.51784 0.0
H1032 H 0.77998 0.16613 0.51442 0.0
H1033 H 0.75928 0.14278 0.53709 0.0
H1034 H 0.78517 0.11364 0.52417 0.0
H1035 H 0.80503 0.13662 0.50063 0.0
H1036 H 0.81967 0.1822 0.52072 0.0
H1037 H 0.77209 0.14979 0.46956 0.0
H1038 H 0.75216 0.12266 0.45167 0.0
H1039 H 0.79515 0.11996 0.42486 0.0
H1040 H 0.81487 0.14647 0.44352 0.0
H1041 H 0.85335 0.18834 0.43951 0.0
H1042 H 0.87724 0.20993 0.41863 0.0
H1043 H 0.87087 0.25011 0.44855 0.0
H1044 H 0.84703 0.22839 0.46962 0.0
H1045 H 0.82111 0.17831 0.44115 0.0
H1046 H 0.86679 0.20078 0.48961 0.0
H1047 H 0.89092 0.21912 0.51302 0.0
H1048 H 0.85869 0.23402 0.54782 0.0
H1049 H 0.83469 0.21612 0.52368 0.0
C1050 C 0.79391 0.153 0.50582 0.0
C1051 C 0.781 0.15459 0.51638 0.0
C1052 C 0.76927 0.14125 0.52947 0.0
C1053 C 0.77047 0.12621 0.53262 0.0
C1054 C 0.7835 0.12477 0.52187 0.0
C1055 C 0.79501 0.13797 0.50852 0.0
C1056 C 0.80673 0.16729 0.4926 0.0
C1057 C 0.81979 0.18168 0.50326 0.0
C1058 C 0.80736 0.16587 0.46999 0.0
C1059 C 0.795 0.15007 0.45815 0.0
C1060 C 0.77719 0.14326 0.45997 0.0
C1061 C 0.76581 0.12784 0.44954 0.0
C1062 C 0.77205 0.11902 0.43701 0.0
C1063 C 0.78988 0.12619 0.43475 0.0
C1064 C 0.8012 0.14148 0.44523 0.0
C1065 C 0.84843 0.20673 0.45623 0.0
C1066 C 0.857 0.20179 0.44146 0.0
C1067 C 0.87064 0.21416 0.42945 0.0
C1068 C 0.87598 0.23178 0.43187 0.0
C1069 C 0.86724 0.23668 0.4465 0.0
C1070 C 0.85359 0.22428 0.45854 0.0
C1071 C 0.83414 0.19346 0.46922 0.0
C1072 C 0.82082 0.17922 0.45855 0.0
C1073 C 0.83384 0.19448 0.49198 0.0
C1074 C 0.84893 0.20721 0.50468 0.0
C1075 C 0.86501 0.20837 0.50186 0.0
C1076 C 0.87876 0.21869 0.51548 0.0
C1077 C 0.87672 0.22794 0.53243 0.0
C1078 C 0.86077 0.22721 0.5348 0.0
C1079 C 0.847 0.2169 0.5211 0.0
H1080 H 0.94966 0.50593 0.16979 0.0
H1081 H 0.95328 0.52959 0.14637 0.0
H1082 H 0.00788 0.55586 0.15973 0.0
H1083 H 0.00382 0.53267 0.18404 0.0
H1084 H 0.97233 0.48799 0.16403 0.0
H1085 H 0.95722 0.52073 0.21426 0.0
H1086 H 0.96391 0.54783 0.2321 0.0
H1087 H 0.00936 0.55025 0.26029 0.0
H1088 H 0.00307 0.52375 0.24172 0.0
H1089 H 0.00163 0.48403 0.24511 0.0
H1090 H 0.00732 0.46394 0.26526 0.0
H1091 H 0.96348 0.4212 0.23484 0.0
H1092 H 0.95725 0.44151 0.21548 0.0
H1093 H 0.97837 0.49207 0.2436 0.0
H1094 H 0.00161 0.46956 0.19397 0.0
H1095 H 0.00621 0.44995 0.17132 0.0
H1096 H 0.95773 0.43425 0.13908 0.0
H1097 H 0.95285 0.45338 0.16257 0.0
C1098 C 0.97645 0.51767 0.17867 0.0
C1099 C 0.96234 0.51694 0.1678 0.0
C1100 C 0.9645 0.53044 0.15427 0.0
C1101 C 0.98092 0.54474 0.15096 0.0
C1102 C 0.99499 0.54535 0.16212 0.0
C1103 C 0.99274 0.53202 0.17592 0.0
C1104 C 0.97451 0.50308 0.19203 0.0
C1105 C 0.97312 0.48855 0.18149 0.0
C1106 C 0.97653 0.50445 0.21466 0.0
C1107 C 0.97975 0.52029 0.2264 0.0
C1108 C 0.9687 0.52719 0.22415 0.0
C1109 C 0.97244 0.54259 0.23455 0.0
C1110 C 0.98727 0.55132 0.24747 0.0
C1111 C 0.99803 0.54409 0.25012 0.0
C1112 C 0.99433 0.5288 0.23969 0.0
C1113 C 0.97908 0.46433 0.2286 0.0
C1114 C 0.99304 0.47034 0.24299 0.0
C1115 C 0.99643 0.4588 0.25432 0.0
C1116 C 0.98603 0.44092 0.25143 0.0
C1117 C 0.97172 0.43487 0.23751 0.0
C1118 C 0.96824 0.44647 0.22627 0.0
C1119 C 0.97643 0.47691 0.21563 0.0
C1120 C 0.97696 0.49109 0.2262 0.0
C1121 C 0.97468 0.47574 0.19287 0.0
C1122 C 0.97676 0.46277 0.18022 0.0
C1123 C 0.99176 0.46158 0.18241 0.0
C1124 C 0.99448 0.45051 0.16922 0.0
C1125 C 0.98239 0.44057 0.15325 0.0
C1126 C 0.96721 0.44153 0.15137 0.0
C1127 C 0.96445 0.45256 0.16468 0.0
H1128 H 0.5017 0.45721 0.16553 0.0
H1129 H 0.47877 0.43763 0.14113 0.0
H1130 H 0.44227 0.44597 0.17661 0.0
H1131 H 0.46529 0.46605 0.20051 0.0
H1132 H 0.51328 0.48977 0.16974 0.0
H1133 H 0.48772 0.44206 0.22018 0.0
H1134 H 0.46401 0.41962 0.24072 0.0
H1135 H 0.45547 0.45849 0.27056 0.0
H1136 H 0.47929 0.48077 0.25028 0.0
H1137 H 0.52037 0.52142 0.25321 0.0
H1138 H 0.54111 0.54533 0.27478 0.0
H1139 H 0.58233 0.54554 0.23868 0.0
H1140 H 0.56143 0.5203 0.2187 0.0
H1141 H 0.51245 0.49076 0.2495 0.0
H1142 H 0.53641 0.53833 0.19913 0.0
H1143 H 0.55678 0.56094 0.17517 0.0
H1144 H 0.56589 0.52351 0.14269 0.0
H1145 H 0.54607 0.50108 0.16709 0.0
C1146 C 0.48524 0.46301 0.18505 0.0
C1147 C 0.48875 0.45475 0.16818 0.0
C1148 C 0.47567 0.44359 0.15424 0.0
C1149 C 0.45879 0.44033 0.15702 0.0
C1150 C 0.45515 0.44813 0.17429 0.0
C1151 C 0.46829 0.45953 0.18802 0.0
C1152 C 0.49956 0.4764 0.19815 0.0
C1153 C 0.51331 0.48982 0.18723 0.0
C1154 C 0.4993 0.47676 0.22092 0.0
C1155 C 0.4852 0.46307 0.2336 0.0
C1156 C 0.48072 0.44571 0.23116 0.0
C1157 C 0.46714 0.4329 0.24288 0.0
C1158 C 0.45782 0.43724 0.25731 0.0
C1159 C 0.46254 0.45469 0.2599 0.0
C1160 C 0.47611 0.46745 0.24823 0.0
C1161 C 0.53923 0.51912 0.23402 0.0
C1162 C 0.53389 0.52642 0.25012 0.0
C1163 C 0.54584 0.54037 0.26227 0.0
C1164 C 0.56352 0.54774 0.25834 0.0
C1165 C 0.56889 0.54023 0.2424 0.0
C1166 C 0.55689 0.52592 0.23062 0.0
C1167 C 0.52617 0.50438 0.22108 0.0
C1168 C 0.51263 0.49066 0.23202 0.0
C1169 C 0.52653 0.50388 0.19826 0.0
C1170 C 0.53983 0.51801 0.18509 0.0
C1171 C 0.54311 0.53506 0.18723 0.0
C1172 C 0.55468 0.54795 0.1735 0.0
C1173 C 0.56282 0.5439 0.15709 0.0
C1174 C 0.55968 0.52691 0.15513 0.0
C1175 C 0.54838 0.51413 0.16906 0.0
H1176 H 0.54633 0.04563 0.16553 0.0
H1177 H 0.56562 0.04151 0.14172 0.0
H1178 H 0.55475 0.99512 0.17633 0.0
H1179 H 0.53491 0.99887 0.19933 0.0
H1180 H 0.5127 0.02467 0.16838 0.0
H1181 H 0.56068 0.04353 0.2167 0.0
H1182 H 0.58274 0.04021 0.23576 0.0
H1183 H 0.54351 0.99937 0.27399 0.0
H1184 H 0.5216 0.00143 0.25318 0.0
H1185 H 0.47985 0.99538 0.24776 0.0
H1186 H 0.45364 0.98849 0.26685 0.0
H1187 H 0.4527 0.03172 0.23647 0.0
H1188 H 0.47953 0.03907 0.21815 0.0
H1189 H 0.51084 0.02138 0.24813 0.0
H1190 H 0.467 0.99354 0.19226 0.0
H1191 H 0.44313 0.98911 0.16848 0.0
H1192 H 0.4722 0.04188 0.14704 0.0
H1193 H 0.49608 0.04618 0.17073 0.0
C1194 C 0.53925 0.02264 0.18433 0.0
C1195 C 0.54824 0.03466 0.16808 0.0
C1196 C 0.55938 0.03236 0.1546 0.0
C1197 C 0.56171 0.01795 0.15704 0.0
C1198 C 0.5531 0.00624 0.17379 0.0
C1199 C 0.54188 0.00848 0.18715 0.0
C1200 C 0.52608 0.02407 0.19715 0.0
C1201 C 0.51255 0.02436 0.18586 0.0
C1202 C 0.52562 0.02316 0.21999 0.0
C1203 C 0.53935 0.02248 0.23304 0.0
C1204 C 0.55681 0.03365 0.22893 0.0
C1205 C 0.5695 0.03192 0.24019 0.0
C1206 C 0.56506 0.01934 0.25639 0.0
C1207 C 0.54757 0.00883 0.26122 0.0
C1208 C 0.53492 0.01022 0.24953 0.0
C1209 C 0.48162 0.01765 0.23133 0.0
C1210 C 0.47414 0.00351 0.24537 0.0
C1211 C 0.459 0.99946 0.25609 0.0
C1212 C 0.4509 0.00941 0.25299 0.0
C1213 C 0.45862 0.02383 0.23931 0.0
C1214 C 0.47387 0.02794 0.22864 0.0
C1215 C 0.49728 0.02117 0.21926 0.0
C1216 C 0.5113 0.02202 0.23067 0.0
C1217 C 0.49803 0.02252 0.19655 0.0
C1218 C 0.48322 0.02021 0.18331 0.0
C1219 C 0.46814 0.00418 0.18259 0.0
C1220 C 0.45458 0.00165 0.16894 0.0
C1221 C 0.45584 0.01516 0.15595 0.0
C1222 C 0.47083 0.0313 0.15704 0.0
C1223 C 0.48448 0.03375 0.17046 0.0
H1224 H 0.48177 0.00729 0.85767 0.0
H1225 H 0.46114 0.01008 0.88012 0.0
H1226 H 0.42019 0.96306 0.85296 0.0
H1227 H 0.44116 0.96019 0.83048 0.0
H1228 H 0.49047 0.98274 0.8567 0.0
H1229 H 0.46474 0.00613 0.81082 0.0
H1230 H 0.44188 0.00783 0.79118 0.0
H1231 H 0.43307 0.964 0.75262 0.0
H1232 H 0.45536 0.96161 0.77323 0.0
H1233 H 0.50327 0.96336 0.77225 0.0
H1234 H 0.52779 0.9665 0.75141 0.0
H1235 H 0.5612 0.0129 0.78676 0.0
H1236 H 0.53666 0.01008 0.807 0.0
H1237 H 0.48853 0.98294 0.77686 0.0
H1238 H 0.52184 0.9662 0.8241 0.0
H1239 H 0.5469 0.9706 0.84505 0.0
H1240 H 0.54402 0.01013 0.88216 0.0
H1241 H 0.52039 0.0069 0.85983 0.0
C1242 C 0.46302 0.98356 0.84236 0.0
C1243 C 0.46837 0.99752 0.85656 0.0
C1244 C 0.45653 0.99919 0.86924 0.0
C1245 C 0.43901 0.98689 0.86813 0.0
C1246 C 0.43362 0.97272 0.85415 0.0
C1247 C 0.44554 0.97111 0.84127 0.0
C1248 C 0.47599 0.98243 0.8288 0.0
C1249 C 0.49012 0.98284 0.83921 0.0
C1250 C 0.47531 0.98233 0.806 0.0
C1251 C 0.46146 0.98341 0.79397 0.0
C1252 C 0.45759 0.99653 0.79861 0.0
C1253 C 0.4446 0.99758 0.78731 0.0
C1254 C 0.43565 0.98592 0.77063 0.0
C1255 C 0.43976 0.97306 0.76555 0.0
C1256 C 0.45249 0.97173 0.77724 0.0
C1257 C 0.51816 0.98626 0.79155 0.0
C1258 C 0.51585 0.9743 0.77536 0.0
C1259 C 0.52984 0.9761 0.76347 0.0
C1260 C 0.5464 0.98983 0.76768 0.0
C1261 C 0.54861 0.00204 0.78345 0.0
C1262 C 0.5346 0.0004 0.79506 0.0
C1263 C 0.50343 0.98391 0.80483 0.0
C1264 C 0.48884 0.98259 0.79433 0.0
C1265 C 0.50405 0.98402 0.82767 0.0
C1266 C 0.51927 0.98631 0.84021 0.0
C1267 C 0.5269 0.97608 0.83644 0.0
C1268 C 0.54112 0.97846 0.84869 0.0
C1269 C 0.54769 0.9908 0.86538 0.0
C1270 C 0.53981 0.00085 0.86915 0.0
C1271 C 0.52598 0.99878 0.85658 0.0
H1272 H 0.04891 0.54948 0.85066 0.0
H1273 H 0.0453 0.56932 0.87459 0.0
H1274 H 0.99294 0.5483 0.8524 0.0
H1275 H 0.99665 0.52861 0.82844 0.0
H1276 H 0.02666 0.51171 0.8524 0.0
H1277 H 0.04259 0.55985 0.80273 0.0
H1278 H 0.03585 0.58059 0.78546 0.0
H1279 H 0.99092 0.53852 0.75588 0.0
H1280 H 0.99727 0.51797 0.77384 0.0
H1281 H 0.00106 0.48053 0.76773 0.0
H1282 H 0.99799 0.45639 0.74648 0.0
H1283 H 0.03824 0.4552 0.78434 0.0
H1284 H 0.04251 0.4806 0.80387 0.0
H1285 H 0.02218 0.51085 0.77267 0.0
H1286 H 0.9967 0.46581 0.82458 0.0
H1287 H 0.99161 0.4418 0.84839 0.0
H1288 H 0.04264 0.47184 0.8751 0.0
H1289 H 0.04762 0.49589 0.85135 0.0
C1290 C 0.02309 0.5377 0.8377 0.0
C1291 C 0.03673 0.54931 0.85081 0.0
C1292 C 0.03467 0.56065 0.86438 0.0
C1293 C 0.01883 0.56031 0.86534 0.0
C1294 C 0.00524 0.54875 0.85206 0.0
C1295 C 0.00738 0.53759 0.8383 0.0
C1296 C 0.02486 0.52495 0.82435 0.0
C1297 C 0.02612 0.51171 0.83491 0.0
C1298 C 0.02325 0.52454 0.80165 0.0
C1299 C 0.02032 0.53735 0.7898 0.0
C1300 C 0.03127 0.55513 0.79256 0.0
C1301 C 0.02749 0.56696 0.78253 0.0
C1302 C 0.01274 0.56119 0.7695 0.0
C1303 C 0.00218 0.54339 0.76617 0.0
C1304 C 0.00591 0.53161 0.77624 0.0
C1305 C 0.02188 0.48238 0.78772 0.0
C1306 C 0.00946 0.47529 0.77125 0.0
C1307 C 0.0075 0.46119 0.75927 0.0
C1308 C 0.01766 0.45348 0.76375 0.0
C1309 C 0.03025 0.46076 0.78011 0.0
C1310 C 0.0325 0.47518 0.79169 0.0
C1311 C 0.02355 0.4972 0.80071 0.0
C1312 C 0.02311 0.51094 0.79011 0.0
C1313 C 0.02486 0.49758 0.82349 0.0
C1314 C 0.02258 0.48253 0.83615 0.0
C1315 C 0.00688 0.4671 0.83532 0.0
C1316 C 0.00395 0.45347 0.84898 0.0
C1317 C 0.01673 0.45503 0.86355 0.0
C1318 C 0.03264 0.47029 0.86386 0.0
C1319 C 0.03548 0.48401 0.85041 0.0
H1320 H 0.45349 0.49893 0.85683 0.0
H1321 H 0.43467 0.47562 0.88097 0.0
H1322 H 0.44856 0.4413 0.84897 0.0
H1323 H 0.46787 0.46482 0.8256 0.0
H1324 H 0.4882 0.51245 0.85425 0.0
H1325 H 0.43934 0.48145 0.80451 0.0
H1326 H 0.41894 0.45468 0.78613 0.0
H1327 H 0.46115 0.45317 0.75503 0.0
H1328 H 0.48134 0.47929 0.77398 0.0
H1329 H 0.5177 0.51908 0.76911 0.0
H1330 H 0.54107 0.53988 0.74735 0.0
H1331 H 0.54324 0.58123 0.78603 0.0
H1332 H 0.51853 0.56034 0.80626 0.0
H1333 H 0.48776 0.5108 0.77445 0.0
H1334 H 0.53477 0.53145 0.82375 0.0
H1335 H 0.55885 0.55017 0.84723 0.0
H1336 H 0.52629 0.56536 0.88076 0.0
H1337 H 0.50243 0.54701 0.85676 0.0
C1338 C 0.46196 0.4836 0.83924 0.0
C1339 C 0.45236 0.48633 0.85493 0.0
C1340 C 0.4415 0.47295 0.86861 0.0
C1341 C 0.4401 0.45656 0.86696 0.0
C1342 C 0.44947 0.45379 0.85089 0.0
C1343 C 0.46038 0.46719 0.83731 0.0
C1344 C 0.47459 0.4982 0.82601 0.0
C1345 C 0.48794 0.51232 0.83676 0.0
C1346 C 0.47464 0.49757 0.80322 0.0
C1347 C 0.4619 0.48229 0.79084 0.0
C1348 C 0.44416 0.47531 0.79374 0.0
C1349 C 0.43251 0.4601 0.7831 0.0
C1350 C 0.43844 0.45167 0.76934 0.0
C1351 C 0.45616 0.45911 0.76588 0.0
C1352 C 0.46774 0.47419 0.77652 0.0
C1353 C 0.51633 0.538 0.7896 0.0
C1354 C 0.52298 0.53264 0.77274 0.0
C1355 C 0.53666 0.54464 0.76046 0.0
C1356 C 0.54441 0.56238 0.76498 0.0
C1357 C 0.53762 0.56775 0.78178 0.0
C1358 C 0.5236 0.55574 0.79371 0.0
C1359 C 0.50182 0.52492 0.80267 0.0
C1360 C 0.48797 0.51119 0.79192 0.0
C1361 C 0.50183 0.52536 0.82551 0.0
C1362 C 0.51684 0.53796 0.83835 0.0
C1363 C 0.53293 0.53911 0.83584 0.0
C1364 C 0.54663 0.54968 0.84944 0.0
C1365 C 0.54448 0.55921 0.86595 0.0
C1366 C 0.52846 0.55837 0.86806 0.0
C1367 C 0.51477 0.5478 0.85445 0.0
H1368 H 0.61149 0.83416 0.49918 0.0
H1369 H 0.61877 0.85804 0.47421 0.0
H1370 H 0.66711 0.8881 0.50766 0.0
H1371 H 0.66004 0.86401 0.53194 0.0
H1372 H 0.63025 0.8176 0.50233 0.0
H1373 H 0.61536 0.85092 0.55154 0.0
H1374 H 0.62313 0.87825 0.56961 0.0
H1375 H 0.66492 0.87616 0.60221 0.0
H1376 H 0.65765 0.84949 0.58352 0.0
H1377 H 0.65687 0.81165 0.58349 0.0
H1378 H 0.66366 0.79154 0.60168 0.0
H1379 H 0.62072 0.74897 0.56973 0.0
H1380 H 0.61344 0.76925 0.55217 0.0
H1381 H 0.63292 0.81895 0.58215 0.0
H1382 H 0.65836 0.79875 0.53228 0.0
H1383 H 0.66411 0.78041 0.50871 0.0
H1384 H 0.61606 0.76457 0.47529 0.0
H1385 H 0.61005 0.78247 0.49964 0.0
C1386 C 0.63511 0.84735 0.51759 0.0
C1387 C 0.62353 0.846 0.50129 0.0
C1388 C 0.62769 0.8597 0.48711 0.0
C1389 C 0.64357 0.87496 0.48887 0.0
C1390 C 0.65487 0.87646 0.50568 0.0
C1391 C 0.65074 0.86276 0.51978 0.0
C1392 C 0.6318 0.8321 0.53073 0.0
C1393 C 0.63026 0.81763 0.51982 0.0
C1394 C 0.63272 0.83259 0.55353 0.0
C1395 C 0.63601 0.84819 0.56597 0.0
C1396 C 0.62619 0.85637 0.5626 0.0
C1397 C 0.63056 0.87192 0.57306 0.0
C1398 C 0.64479 0.87952 0.58714 0.0
C1399 C 0.65411 0.87089 0.59112 0.0
C1400 C 0.64981 0.85547 0.58063 0.0
C1401 C 0.63472 0.79202 0.56627 0.0
C1402 C 0.64865 0.79798 0.58069 0.0
C1403 C 0.65268 0.78646 0.59088 0.0
C1404 C 0.64293 0.76867 0.58684 0.0
C1405 C 0.62848 0.76259 0.57318 0.0
C1406 C 0.62438 0.77418 0.56302 0.0
C1407 C 0.63199 0.80473 0.5537 0.0
C1408 C 0.63221 0.8186 0.56468 0.0
C1409 C 0.63106 0.80429 0.5309 0.0
C1410 C 0.63364 0.79179 0.51796 0.0
C1411 C 0.64883 0.79098 0.52028 0.0
C1412 C 0.65221 0.78064 0.50658 0.0
C1413 C 0.64061 0.77111 0.48999 0.0
C1414 C 0.62518 0.77159 0.48804 0.0
C1415 C 0.62176 0.78189 0.50185 0.0
H1416 H 0.16253 0.78378 0.5027 0.0
H1417 H 0.13895 0.76436 0.47876 0.0
H1418 H 0.10712 0.78376 0.50458 0.0
H1419 H 0.13065 0.80303 0.52858 0.0
H1420 H 0.1771 0.82036 0.50182 0.0
H1421 H 0.1501 0.7736 0.55229 0.0
H1422 H 0.12625 0.75149 0.57291 0.0
H1423 H 0.11858 0.79092 0.60269 0.0
H1424 H 0.14251 0.81293 0.58218 0.0
H1425 H 0.18544 0.85616 0.58163 0.0
H1426 H 0.20761 0.88067 0.60162 0.0
H1427 H 0.24645 0.87197 0.57274 0.0
H1428 H 0.22416 0.84756 0.5526 0.0
H1429 H 0.17551 0.82275 0.58157 0.0
H1430 H 0.19543 0.86746 0.52862 0.0
H1431 H 0.21502 0.89085 0.50502 0.0
H1432 H 0.23308 0.85782 0.47905 0.0
H1433 H 0.21338 0.83441 0.50266 0.0
C1434 C 0.14827 0.79474 0.51746 0.0
C1435 C 0.15038 0.78364 0.5034 0.0
C1436 C 0.13691 0.77253 0.48983 0.0
C1437 C 0.12126 0.77262 0.48982 0.0
C1438 C 0.11909 0.78352 0.50421 0.0
C1439 C 0.13246 0.79443 0.51799 0.0
C1440 C 0.16296 0.80767 0.53033 0.0
C1441 C 0.17698 0.82065 0.5193 0.0
C1442 C 0.16242 0.80838 0.55305 0.0
C1443 C 0.14801 0.79491 0.56558 0.0
C1444 C 0.14321 0.77746 0.56318 0.0
C1445 C 0.12957 0.76483 0.57497 0.0
C1446 C 0.12051 0.76943 0.58947 0.0
C1447 C 0.12545 0.78694 0.59194 0.0
C1448 C 0.13908 0.79955 0.58015 0.0
C1449 C 0.20315 0.85012 0.5655 0.0
C1450 C 0.19872 0.85947 0.57972 0.0
C1451 C 0.21142 0.87344 0.5912 0.0
C1452 C 0.22883 0.8783 0.5888 0.0
C1453 C 0.2332 0.86874 0.57474 0.0
C1454 C 0.22048 0.85477 0.56323 0.0
C1455 C 0.1896 0.83553 0.55303 0.0
C1456 C 0.17581 0.82227 0.56412 0.0
C1457 C 0.19011 0.83474 0.53031 0.0
C1458 C 0.20305 0.84926 0.51744 0.0
C1459 C 0.20379 0.86534 0.51807 0.0
C1460 C 0.21488 0.87864 0.50451 0.0
C1461 C 0.22552 0.87611 0.49021 0.0
C1462 C 0.22512 0.86015 0.49006 0.0
C1463 C 0.21385 0.84677 0.50343 0.0
H1464 H 0.14702 0.328 0.49837 0.0
H1465 H 0.12308 0.32243 0.47451 0.0
H1466 H 0.12573 0.36988 0.49567 0.0
H1467 H 0.14932 0.37493 0.52023 0.0
H1468 H 0.17972 0.35574 0.49767 0.0
H1469 H 0.13301 0.3273 0.54539 0.0
H1470 H 0.10708 0.3211 0.56492 0.0
H1471 H 0.13415 0.37096 0.59578 0.0
H1472 H 0.16007 0.37726 0.57569 0.0
H1473 H 0.22745 0.38309 0.54882 0.0
H1474 H 0.25057 0.38255 0.56956 0.0
H1475 H 0.21317 0.33702 0.60294 0.0
H1476 H 0.19023 0.33773 0.58235 0.0
H1477 H 0.17807 0.35903 0.5773 0.0
H1478 H 0.2132 0.37929 0.49487 0.0
H1479 H 0.23337 0.37548 0.47244 0.0
H1480 H 0.22551 0.33196 0.51141 0.0
H1481 H 0.20483 0.33541 0.53317 0.0
C1482 C 0.14996 0.35189 0.51098 0.0
C1483 C 0.14239 0.33716 0.49789 0.0
C1484 C 0.12876 0.33407 0.48415 0.0
C1485 C 0.12254 0.34579 0.48293 0.0
C1486 C 0.13003 0.36046 0.49634 0.0
C1487 C 0.14358 0.36344 0.5103 0.0
C1488 C 0.16481 0.35524 0.52489 0.0
C1489 C 0.17952 0.35675 0.51507 0.0
C1490 C 0.16428 0.35614 0.54758 0.0
C1491 C 0.14843 0.35282 0.5589 0.0
C1492 C 0.13331 0.33702 0.5561 0.0
C1493 C 0.11854 0.33342 0.56745 0.0
C1494 C 0.11858 0.34551 0.58198 0.0
C1495 C 0.13367 0.36145 0.58456 0.0
C1496 C 0.1485 0.36502 0.57321 0.0
C1497 C 0.20711 0.36038 0.56392 0.0
C1498 C 0.22425 0.37308 0.56073 0.0
C1499 C 0.23745 0.37272 0.57254 0.0
C1500 C 0.23374 0.3597 0.58787 0.0
C1501 C 0.2165 0.34738 0.59152 0.0
C1502 C 0.20334 0.34774 0.57971 0.0
C1503 C 0.19312 0.35955 0.55006 0.0
C1504 C 0.17857 0.3586 0.55987 0.0
C1505 C 0.19355 0.35857 0.52732 0.0
C1506 C 0.20757 0.35771 0.51579 0.0
C1507 C 0.21601 0.36907 0.49874 0.0
C1508 C 0.22765 0.36695 0.48603 0.0
C1509 C 0.23102 0.35335 0.49005 0.0
C1510 C 0.22305 0.34242 0.50769 0.0
C1511 C 0.21137 0.34451 0.52033 0.0
H1512 H 0.03142 0.40845 0.05939 0.0
H1513 H 0.96024 0.40846 0.13646 0.0
H1514 H 0.97844 0.36812 0.05826 0.0
H1515 H 0.01307 0.44898 0.13449 0.0
H1516 H 0.9667 0.39244 0.10957 0.0
H1517 H 0.02504 0.42217 0.0889 0.0
C1518 C 0.01843 0.40239 0.0654 0.0
C1519 C 0.00543 0.3871 0.05615 0.0
C1520 C 0.97688 0.40479 0.11515 0.0
C1521 C 0.99799 0.40295 0.09011 0.0
C1522 C 0.97319 0.41399 0.13042 0.0
C1523 C 0.98612 0.43012 0.13781 0.0
C1524 C 0.99361 0.41179 0.10715 0.0
C1525 C 0.00272 0.4365 0.12959 0.0
C1526 C 0.01479 0.41028 0.08231 0.0
C1527 C 0.98888 0.37989 0.06482 0.0
N1528 N 0.00594 0.42737 0.1147 0.0
N1529 N 0.9856 0.38793 0.08124 0.0
H1530 H 0.64467 0.62455 0.08067 0.0
H1531 H 0.58985 0.57616 0.16497 0.0
H1532 H 0.59767 0.6044 0.04395 0.0
H1533 H 0.56056 0.5416 0.11334 0.0
H1534 H 0.60773 0.59775 0.13812 0.0
H1535 H 0.62874 0.60533 0.11058 0.0
C1536 C 0.63099 0.61599 0.07897 0.0
C1537 C 0.62245 0.61553 0.05976 0.0
C1538 C 0.5975 0.58537 0.13272 0.0
C1539 C 0.60417 0.59403 0.09378 0.0
C1540 C 0.58725 0.57315 0.14798 0.0
C1541 C 0.57385 0.55709 0.14128 0.0
C1542 C 0.59408 0.58154 0.11067 0.0
C1543 C 0.57092 0.55377 0.11912 0.0
C1544 C 0.62189 0.60524 0.09607 0.0
C1545 C 0.60467 0.60475 0.05842 0.0
N1546 N 0.58086 0.56596 0.10459 0.0
N1547 N 0.59613 0.59414 0.07508 0.0
H1548 H 0.38781 0.98392 0.04543 0.0
H1549 H 0.44086 0.03521 0.14955 0.0
H1550 H 0.37692 0.01921 0.07993 0.0
H1551 H 0.43924 0.98863 0.12741 0.0
H1552 H 0.41856 0.03069 0.12304 0.0
H1553 H 0.40773 0.98625 0.07436 0.0
C1554 C 0.38971 0.9922 0.05912 0.0
C1555 C 0.38143 0.00202 0.05999 0.0
C1556 C 0.42303 0.02142 0.12406 0.0
C1557 C 0.40378 0.00451 0.09318 0.0
C1558 C 0.43578 0.02403 0.1391 0.0
C1559 C 0.44186 0.01226 0.14065 0.0
C1560 C 0.41656 0.00712 0.11019 0.0
C1561 C 0.43478 0.99792 0.12685 0.0
C1562 C 0.40099 0.99349 0.07563 0.0
C1563 C 0.38375 0.01208 0.07832 0.0
N1564 N 0.42262 0.99583 0.11205 0.0
N1565 N 0.3949 0.01327 0.09411 0.0
H1566 H 0.3669 0.97646 0.96785 0.0
H1567 H 0.43734 0.01621 0.87493 0.0
H1568 H 0.401 0.03077 0.95776 0.0
H1569 H 0.41271 0.96251 0.8926 0.0
H1570 H 0.4198 0.02072 0.90107 0.0
H1571 H 0.37952 0.9702 0.93649 0.0
C1572 C 0.37687 0.98705 0.95892 0.0
C1573 C 0.38302 0.00416 0.96557 0.0
C1574 C 0.41812 0.0079 0.89918 0.0
C1575 C 0.39738 0.99711 0.92976 0.0
C1576 C 0.42816 0.00533 0.88427 0.0
C1577 C 0.4267 0.98903 0.88187 0.0
C1578 C 0.40649 0.99409 0.9119 0.0
C1579 C 0.41427 0.9753 0.89401 0.0
C1580 C 0.3841 0.98347 0.9411 0.0
C1581 C 0.39599 0.01738 0.95343 0.0
N1582 N 0.40475 0.97818 0.90872 0.0
N1583 N 0.40273 0.01357 0.93621 0.0
H1584 H 0.01805 0.37548 0.94281 0.0
H1585 H 0.98904 0.4388 0.88975 0.0
H1586 H 0.98547 0.39091 0.97525 0.0
H1587 H 0.03636 0.44012 0.87332 0.0
H1588 H 0.98391 0.417 0.91718 0.0
H1589 H 0.02112 0.39487 0.9129 0.0
C1590 C 0.01173 0.38315 0.94366 0.0
C1591 C 0.0022 0.38238 0.96179 0.0
C1592 C 0.99536 0.42201 0.90749 0.0
C1593 C 0.00503 0.40387 0.92759 0.0
C1594 C 0.99824 0.43433 0.89178 0.0
C1595 C 0.01313 0.44121 0.8793 0.0
C1596 C 0.00734 0.41637 0.91049 0.0
C1597 C 0.02477 0.43518 0.88272 0.0
C1598 C 0.01336 0.39406 0.92661 0.0
C1599 C 0.99338 0.39168 0.96175 0.0
N1600 N 0.0216 0.42303 0.89798 0.0
N1601 N 0.99513 0.40223 0.94496 0.0
H1602 H 0.623 0.58761 0.96397 0.0
H1603 H 0.55438 0.59109 0.88349 0.0
H1604 H 0.61212 0.62973 0.9625 0.0
H1605 H 0.56647 0.54983 0.88469 0.0
H1606 H 0.57628 0.60611 0.91132 0.0
H1607 H 0.60327 0.57434 0.93377 0.0
C1608 C 0.61655 0.59414 0.95727 0.0
C1609 C 0.61924 0.60983 0.96593 0.0
C1610 C 0.57421 0.59382 0.90538 0.0
C1611 C 0.59646 0.59456 0.93122 0.0
C1612 C 0.56165 0.5852 0.88956 0.0
C1613 C 0.55853 0.56914 0.88174 0.0
C1614 C 0.58368 0.5863 0.91355 0.0
C1615 C 0.56854 0.56226 0.89001 0.0
C1616 C 0.60524 0.58652 0.93997 0.0
C1617 C 0.61046 0.61763 0.95643 0.0
N1618 N 0.58057 0.57083 0.90551 0.0
N1619 N 0.59942 0.60988 0.93967 0.0
H1620 H 0.98742 0.59756 0.97461 0.0
H1621 H 0.03949 0.5949 0.87262 0.0
H1622 H 0.0222 0.64335 0.94 0.0
H1623 H 0.99242 0.55096 0.89339 0.0
H1624 H 0.03515 0.6128 0.89903 0.0
H1625 H 0.99056 0.57997 0.94662 0.0
C1626 C 0.99579 0.60386 0.96112 0.0
C1627 C 0.00518 0.62185 0.95995 0.0
C1628 C 0.02575 0.59925 0.89773 0.0
C1629 C 0.00859 0.60198 0.92778 0.0
C1630 C 0.02826 0.58905 0.88276 0.0
C1631 C 0.01626 0.57146 0.88081 0.0
C1632 C 0.01133 0.59173 0.91111 0.0
C1633 C 0.00188 0.56451 0.89424 0.0
C1634 C 0.99754 0.59387 0.94514 0.0
C1635 C 0.01539 0.62948 0.94186 0.0
N1636 N 0.99988 0.57463 0.90894 0.0
N1637 N 0.01702 0.61951 0.92656 0.0
H1638 H 0.40818 0.37642 0.96261 0.0
H1639 H 0.40865 0.44815 0.88421 0.0
H1640 H 0.36882 0.39105 0.96363 0.0
H1641 H 0.44799 0.43352 0.88592 0.0
H1642 H 0.39281 0.42628 0.91161 0.0
H1643 H 0.4216 0.39593 0.93261 0.0
C1644 C 0.40226 0.38365 0.95647 0.0
C1645 C 0.38734 0.3821 0.96584 0.0
C1646 C 0.40486 0.4278 0.90586 0.0
C1647 C 0.40286 0.40472 0.9313 0.0
C1648 C 0.41396 0.44034 0.8903 0.0
C1649 C 0.42972 0.44273 0.88269 0.0
C1650 C 0.41157 0.41759 0.91394 0.0
C1651 C 0.43581 0.43204 0.89099 0.0
C1652 C 0.40998 0.39484 0.93928 0.0
C1653 C 0.3803 0.39181 0.95698 0.0
N1654 N 0.42678 0.42003 0.90617 0.0
N1655 N 0.38819 0.40279 0.94029 0.0
H1656 H 0.61357 0.01901 0.97566 0.0
H1657 H 0.55619 0.96609 0.8778 0.0
H1658 H 0.62302 0.98145 0.94445 0.0
H1659 H 0.57257 0.02024 0.88536 0.0
H1660 H 0.57832 0.96942 0.90366 0.0
H1661 H 0.59529 0.01751 0.9451 0.0
C1662 C 0.61163 0.01034 0.9624 0.0
C1663 C 0.61905 0.99972 0.96286 0.0
C1664 C 0.57695 0.9805 0.89962 0.0
C1665 C 0.59857 0.99814 0.92795 0.0
C1666 C 0.56444 0.9787 0.88464 0.0
C1667 C 0.56214 0.99282 0.87952 0.0
C1668 C 0.58685 0.99634 0.91006 0.0
C1669 C 0.57327 0.00877 0.88929 0.0
C1670 C 0.60134 0.00956 0.94498 0.0
C1671 C 0.61673 0.98915 0.94505 0.0
N1672 N 0.58488 0.01 0.90438 0.0
N1673 N 0.60641 0.98837 0.92838 0.0
H1674 H 0.6338 0.0248 0.05877 0.0
H1675 H 0.55442 0.98687 0.13983 0.0
H1676 H 0.59327 0.97177 0.0605 0.0
H1677 H 0.59224 0.0409 0.13778 0.0
H1678 H 0.57033 0.98116 0.11269 0.0
H1679 H 0.62047 0.03103 0.08936 0.0
C1680 C 0.62221 0.01446 0.06562 0.0
C1681 C 0.61461 0.99776 0.05689 0.0
C1682 C 0.57525 0.99428 0.1182 0.0
C1683 C 0.59935 0.00479 0.0918 0.0
C1684 C 0.56622 0.99754 0.1339 0.0
C1685 C 0.57199 0.01441 0.14123 0.0
C1686 C 0.5902 0.00796 0.10952 0.0
C1687 C 0.5872 0.02772 0.13246 0.0
C1688 C 0.61459 0.01804 0.08304 0.0
C1689 C 0.59957 0.98488 0.06646 0.0
N1690 N 0.59576 0.02423 0.11701 0.0
N1691 N 0.59247 0.98868 0.08328 0.0
H1692 H 0.0305 0.63193 0.06651 0.0
H1693 H 0.96336 0.54171 0.113 0.0
H1694 H 0.97762 0.60653 0.04539 0.0
H1695 H 0.00463 0.57944 0.15269 0.0
H1696 H 0.9692 0.56409 0.08642 0.0
H1697 H 0.02246 0.61159 0.09655 0.0
C1698 C 0.01719 0.62214 0.06829 0.0
C1699 C 0.0047 0.6209 0.05346 0.0
C1700 C 0.97686 0.56745 0.10107 0.0
C1701 C 0.99552 0.59747 0.08748 0.0
C1702 C 0.97348 0.55469 0.11638 0.0
C1703 C 0.98356 0.55854 0.13524 0.0
C1704 C 0.99062 0.58412 0.10434 0.0
C1705 C 0.99676 0.57564 0.13824 0.0
C1706 C 0.01261 0.6106 0.08546 0.0
C1707 C 0.98763 0.60799 0.05654 0.0
N1708 N 1.00005 0.58773 0.12284 0.0
N1709 N 0.98357 0.59661 0.07305 0.0
H1710 H 0.37561 0.35982 0.0809 0.0
H1711 H 0.42659 0.4136 0.16507 0.0
H1712 H 0.39595 0.40703 0.04472 0.0
H1713 H 0.46011 0.4429 0.11322 0.0
H1714 H 0.40419 0.39643 0.13847 0.0
H1715 H 0.3954 0.37555 0.11064 0.0
C1716 C 0.3843 0.37354 0.07932 0.0
C1717 C 0.38465 0.38216 0.06028 0.0
C1718 C 0.41652 0.40649 0.13294 0.0
C1719 C 0.40686 0.40023 0.09415 0.0
C1720 C 0.42922 0.41635 0.14808 0.0
C1721 C 0.44522 0.42955 0.14127 0.0
C1722 C 0.41982 0.41007 0.11089 0.0
C1723 C 0.44801 0.43266 0.11909 0.0
C1724 C 0.39539 0.38252 0.09633 0.0
C1725 C 0.39566 0.39996 0.05907 0.0
N1726 N 0.43537 0.42308 0.10468 0.0
N1727 N 0.40662 0.4084 0.07566 0.0
H1728 H 0.69399 0.74622 0.39408 0.0
H1729 H 0.61983 0.73935 0.4714 0.0
H1730 H 0.64269 0.70255 0.3934 0.0
H1731 H 0.67181 0.7817 0.47155 0.0
H1732 H 0.62775 0.7251 0.44361 0.0
H1733 H 0.68594 0.75872 0.42336 0.0
C1734 C 0.68101 0.73919 0.4001 0.0
C1735 C 0.669 0.72328 0.39112 0.0
C1736 C 0.63742 0.73746 0.44985 0.0
C1737 C 0.65963 0.73769 0.42487 0.0
C1738 C 0.6329 0.74564 0.46563 0.0
C1739 C 0.64518 0.76174 0.4739 0.0
C1740 C 0.65432 0.74549 0.4422 0.0
C1741 C 0.66196 0.76919 0.46597 0.0
C1742 C 0.67642 0.74638 0.4169 0.0
C1743 C 0.65239 0.71484 0.39978 0.0
N1744 N 0.66599 0.76105 0.45056 0.0
N1745 N 0.64818 0.72218 0.41612 0.0
H1746 H 0.30859 0.95282 0.41317 0.0
H1747 H 0.216 0.89469 0.46414 0.0
H1748 H 0.26182 0.94259 0.38064 0.0
H1749 H 0.25943 0.88834 0.48081 0.0
H1750 H 0.23356 0.91638 0.43744 0.0
H1751 H 0.29159 0.93339 0.44239 0.0
C1752 C 0.29472 0.94628 0.41214 0.0
C1753 C 0.28647 0.94851 0.39414 0.0
C1754 C 0.23925 0.91028 0.44701 0.0
C1755 C 0.26709 0.92699 0.42759 0.0
C1756 C 0.22929 0.89801 0.46232 0.0
C1757 C 0.2363 0.88975 0.47468 0.0
C1758 C 0.25641 0.91451 0.44426 0.0
C1759 C 0.25353 0.89435 0.47149 0.0
C1760 C 0.28506 0.93535 0.42881 0.0
C1761 C 0.26855 0.94066 0.39401 0.0
N1762 N 0.26304 0.90649 0.45662 0.0
N1763 N 0.25941 0.93008 0.4104 0.0
H1764 H 0.05429 0.3154 0.37208 0.0
H1765 H 0.09599 0.35276 0.48794 0.0
H1766 H 0.04113 0.34753 0.40997 0.0
H1767 H 0.11736 0.33229 0.44209 0.0
H1768 H 0.07357 0.34807 0.46165 0.0
H1769 H 0.07471 0.31772 0.4003 0.0
C1770 C 0.05577 0.32294 0.38641 0.0
C1771 C 0.04672 0.33192 0.38847 0.0
C1772 C 0.08314 0.34454 0.45745 0.0
C1773 C 0.06954 0.33431 0.42089 0.0
C1774 C 0.09603 0.34732 0.47238 0.0
C1775 C 0.10862 0.34288 0.46733 0.0
C1776 C 0.08273 0.33711 0.43738 0.0
C1777 C 0.10778 0.33562 0.44697 0.0
C1778 C 0.06737 0.32428 0.40246 0.0
C1779 C 0.04849 0.34102 0.40754 0.0
N1780 N 0.09507 0.33295 0.43279 0.0
N1781 N 0.05983 0.34212 0.42301 0.0
H1782 H 0.06499 0.3616 0.28582 0.0
H1783 H 0.07747 0.29071 0.2234 0.0
H1784 H 0.03287 0.30719 0.29755 0.0
H1785 H 0.10266 0.3446 0.20665 0.0
H1786 H 0.05941 0.29561 0.24878 0.0
H1787 H 0.07749 0.35497 0.25524 0.0
C1788 C 0.06047 0.34822 0.28186 0.0
C1789 C 0.04796 0.33494 0.29439 0.0
C1790 C 0.06876 0.3063 0.23935 0.0
C1791 C 0.06242 0.32719 0.25932 0.0
C1792 C 0.07901 0.3035 0.22481 0.0
C1793 C 0.09177 0.31733 0.21317 0.0
C1794 C 0.07135 0.32306 0.24222 0.0
C1795 C 0.09325 0.33364 0.21566 0.0
C1796 C 0.0676 0.34442 0.26431 0.0
C1797 C 0.04249 0.31783 0.28831 0.0
N1798 N 0.08331 0.33607 0.23002 0.0
N1799 N 0.04993 0.31443 0.27135 0.0
H1800 H 0.65218 0.72577 0.30932 0.0
H1801 H 0.70744 0.77487 0.20677 0.0
H1802 H 0.68727 0.71214 0.28002 0.0
H1803 H 0.66023 0.77395 0.2227 0.0
H1804 H 0.7016 0.7532 0.23474 0.0
H1805 H 0.65601 0.74485 0.27878 0.0
C1806 C 0.66074 0.72691 0.29642 0.0
C1807 C 0.67005 0.71811 0.29747 0.0
C1808 C 0.69248 0.75768 0.23201 0.0
C1809 C 0.67425 0.73946 0.26248 0.0
C1810 C 0.69584 0.77005 0.21613 0.0
C1811 C 0.68427 0.77613 0.21244 0.0
C1812 C 0.67766 0.75167 0.24456 0.0
C1813 C 0.66938 0.76945 0.22493 0.0
C1814 C 0.66288 0.73769 0.27901 0.0
C1815 C 0.68052 0.71941 0.28013 0.0
N1816 N 0.66658 0.7577 0.24058 0.0
N1817 N 0.68255 0.73012 0.26342 0.0
H1818 H 0.27689 0.96583 0.29868 0.0
H1819 H 0.22919 0.88608 0.21743 0.0
H1820 H 0.28476 0.92178 0.29699 0.0
H1821 H 0.21755 0.92762 0.21994 0.0
H1822 H 0.25111 0.90045 0.24498 0.0
H1823 H 0.25655 0.95344 0.26847 0.0
C1824 C 0.27446 0.95364 0.29192 0.0
C1825 C 0.28254 0.94483 0.30052 0.0
C1826 C 0.24385 0.90652 0.2395 0.0
C1827 C 0.25929 0.93061 0.266 0.0
C1828 C 0.23138 0.89836 0.22357 0.0
C1829 C 0.22153 0.90568 0.2162 0.0
C1830 C 0.24656 0.92215 0.24833 0.0
C1831 C 0.22473 0.92143 0.22526 0.0
C1832 C 0.26281 0.94657 0.27471 0.0
C1833 C 0.27883 0.92905 0.29107 0.0
N1834 N 0.23697 0.92915 0.24087 0.0
N1835 N 0.2675 0.92249 0.27443 0.0
H1836 H 0.65469 0.92883 0.3076 0.0
H1837 H 0.70829 0.92877 0.20597 0.0
H1838 H 0.69018 0.97547 0.27505 0.0
H1839 H 0.66145 0.88404 0.22565 0.0
H1840 H 0.70316 0.94609 0.23241 0.0
H1841 H 0.6579 0.91195 0.27872 0.0
C1842 C 0.6632 0.93546 0.29434 0.0
C1843 C 0.67281 0.95346 0.29404 0.0
C1844 C 0.69398 0.9325 0.23086 0.0
C1845 C 0.67632 0.93442 0.26088 0.0
C1846 C 0.69694 0.92262 0.21587 0.0
C1847 C 0.68526 0.90498 0.21363 0.0
C1848 C 0.6794 0.92459 0.24397 0.0
C1849 C 0.67068 0.89764 0.22674 0.0
C1850 C 0.66499 0.92588 0.27785 0.0
C1851 C 0.6832 0.96156 0.27623 0.0
N1852 N 0.66824 0.90744 0.24147 0.0
N1853 N 0.68489 0.95197 0.26044 0.0
H1854 H 0.06473 0.70818 0.28349 0.0
H1855 H 0.08835 0.79882 0.23585 0.0
H1856 H 0.03822 0.73484 0.30439 0.0
H1857 H 0.0905 0.75975 0.19705 0.0
H1858 H 0.07178 0.77686 0.26261 0.0
H1859 H 0.07661 0.72828 0.25334 0.0
C1860 C 0.06134 0.71822 0.28164 0.0
C1861 C 0.0505 0.71988 0.29644 0.0
C1862 C 0.07577 0.77313 0.24811 0.0
C1863 C 0.06426 0.74306 0.26222 0.0
C1864 C 0.08518 0.78564 0.2327 0.0
C1865 C 0.09107 0.78128 0.21407 0.0
C1866 C 0.07249 0.75619 0.24515 0.0
C1867 C 0.08673 0.76394 0.21133 0.0
C1868 C 0.06806 0.72962 0.2644 0.0
C1869 C 0.04647 0.73308 0.29326 0.0
N1870 N 0.07793 0.75211 0.22681 0.0
N1871 N 0.05356 0.74436 0.27664 0.0
H1872 H 0.29301 0.31759 0.27681 0.0
H1873 H 0.23967 0.35432 0.2161 0.0
H1874 H 0.2816 0.35426 0.30676 0.0
H1875 H 0.22445 0.30022 0.21272 0.0
H1876 H 0.26144 0.35833 0.2429 0.0
H1877 H 0.27413 0.31512 0.24635 0.0
C1878 C 0.28633 0.32494 0.27701 0.0
C1879 C 0.28799 0.33541 0.29466 0.0
C1880 C 0.25337 0.34565 0.23609 0.0
C1881 C 0.26742 0.33345 0.2597 0.0
C1882 C 0.24084 0.34326 0.22089 0.0
C1883 C 0.22984 0.32679 0.21235 0.0
C1884 C 0.25528 0.3316 0.24239 0.0
C1885 C 0.23259 0.31316 0.21867 0.0
C1886 C 0.27578 0.32367 0.25963 0.0
C1887 C 0.28009 0.34559 0.29369 0.0
N1888 N 0.24504 0.31587 0.23335 0.0
N1889 N 0.26999 0.34427 0.27651 0.0
H1890 H 0.30232 0.35996 0.39123 0.0
H1891 H 0.2251 0.32196 0.4755 0.0
H1892 H 0.26268 0.30662 0.39435 0.0
H1893 H 0.26079 0.37636 0.46945 0.0
H1894 H 0.24104 0.31607 0.44848 0.0
H1895 H 0.28939 0.36616 0.4222 0.0
C1896 C 0.29101 0.34953 0.39848 0.0
C1897 C 0.28354 0.33276 0.39003 0.0
C1898 C 0.24548 0.32931 0.45311 0.0
C1899 C 0.26872 0.33977 0.42543 0.0
C1900 C 0.23646 0.33269 0.46874 0.0
C1901 C 0.24158 0.3497 0.47482 0.0
C1902 C 0.25977 0.34302 0.44332 0.0
C1903 C 0.25623 0.36306 0.46508 0.0
C1904 C 0.28362 0.3531 0.41613 0.0
C1905 C 0.26886 0.31978 0.40012 0.0
N1906 N 0.26478 0.35944 0.44975 0.0
N1907 N 0.26194 0.32357 0.41718 0.0
H1908 H 0.64663 0.94577 0.3901 0.0
H1909 H 0.67504 0.89362 0.47031 0.0
H1910 H 0.69623 0.9487 0.38936 0.0
H1911 H 0.62414 0.88751 0.46948 0.0
H1912 H 0.6834 0.91529 0.44217 0.0
H1913 H 0.63849 0.92572 0.4204 0.0
C1914 C 0.65585 0.94228 0.39631 0.0
C1915 C 0.67215 0.94895 0.38706 0.0
C1916 C 0.67041 0.90929 0.44816 0.0
C1917 C 0.66288 0.92598 0.42178 0.0
C1918 C 0.66566 0.89698 0.4644 0.0
C1919 C 0.64886 0.88874 0.47237 0.0
C1920 C 0.6583 0.91344 0.4397 0.0
C1921 C 0.63718 0.89341 0.46368 0.0
C1922 C 0.65117 0.9308 0.41362 0.0
C1923 C 0.68351 0.94391 0.39586 0.0
N1924 N 0.64211 0.90543 0.44779 0.0
N1925 N 0.67865 0.93274 0.41266 0.0
H1926 H 0.05472 0.74089 0.37807 0.0
H1927 H 0.10792 0.73838 0.48018 0.0
H1928 H 0.04421 0.6934 0.40892 0.0
H1929 H 0.10386 0.78319 0.46321 0.0
H1930 H 0.08614 0.72177 0.45268 0.0
H1931 H 0.07431 0.75699 0.40781 0.0
C1932 C 0.05665 0.73391 0.39113 0.0
C1933 C 0.04856 0.71591 0.39073 0.0
C1934 C 0.08997 0.73522 0.45506 0.0
C1935 C 0.07053 0.73404 0.42484 0.0
C1936 C 0.10241 0.74469 0.47067 0.0
C1937 C 0.10762 0.76214 0.47396 0.0
C1938 C 0.083 0.74339 0.44237 0.0
C1939 C 0.10005 0.76971 0.4613 0.0
C1940 C 0.06773 0.74304 0.40809 0.0
C1941 C 0.05091 0.70734 0.40828 0.0
N1942 N 0.08824 0.76033 0.44592 0.0
N1943 N 0.06189 0.71649 0.42454 0.0
H1944 H 0.30479 0.03871 0.71721 0.0
H1945 H 0.33309 0.09363 0.82572 0.0
H1946 H 0.35732 0.06543 0.73971 0.0
H1947 H 0.2923 0.09033 0.78468 0.0
H1948 H 0.3391 0.07737 0.7989 0.0
H1949 H 0.29697 0.05153 0.7469 0.0
C1950 C 0.31462 0.04707 0.72857 0.0
C1951 C 0.33175 0.05108 0.72597 0.0
C1952 C 0.32877 0.08015 0.79593 0.0
C1953 C 0.32285 0.06559 0.75992 0.0
C1954 C 0.32537 0.08954 0.81115 0.0
C1955 C 0.31229 0.09367 0.80746 0.0
C1956 C 0.31882 0.0745 0.77704 0.0
C1957 C 0.30239 0.0874 0.78849 0.0
C1958 C 0.31016 0.05444 0.74538 0.0
C1959 C 0.34399 0.0621 0.74105 0.0
N1960 N 0.30588 0.07816 0.774 0.0
N1961 N 0.3393 0.06895 0.75743 0.0
H1962 H 0.9759 0.28913 0.74716 0.0
H1963 H 0.88849 0.20674 0.77755 0.0
H1964 H 0.93013 0.27233 0.70865 0.0
H1965 H 0.9228 0.23967 0.82727 0.0
H1966 H 0.90563 0.22843 0.75056 0.0
H1967 H 0.95851 0.26921 0.77585 0.0
C1968 C 0.96218 0.28114 0.74478 0.0
C1969 C 0.9544 0.28178 0.72538 0.0
C1970 C 0.90938 0.23091 0.76738 0.0
C1971 C 0.9346 0.25929 0.75783 0.0
C1972 C 0.89971 0.21853 0.78272 0.0
C1973 C 0.90431 0.22149 0.80458 0.0
C1974 C 0.92395 0.24619 0.77392 0.0
C1975 C 0.91886 0.237 0.81053 0.0
C1976 C 0.95229 0.26995 0.76115 0.0
C1977 C 0.93657 0.27177 0.72324 0.0
N1978 N 0.92831 0.24875 0.79523 0.0
N1979 N 0.92727 0.26064 0.73912 0.0
H1980 H 0.70718 0.68339 0.7422 0.0
H1981 H 0.78825 0.67335 0.77344 0.0
H1982 H 0.72351 0.65328 0.70536 0.0
H1983 H 0.76304 0.68904 0.81997 0.0
H1984 H 0.76575 0.66809 0.74734 0.0
H1985 H 0.72819 0.68714 0.77045 0.0
C1986 C 0.71531 0.67768 0.74009 0.0
C1987 C 0.71425 0.66863 0.72121 0.0
C1988 C 0.76507 0.67258 0.7633 0.0
C1989 C 0.73796 0.67261 0.75325 0.0
C1990 C 0.7779 0.67555 0.77828 0.0
C1991 C 0.77747 0.68143 0.79911 0.0
C1992 C 0.75169 0.67564 0.76901 0.0
C1993 C 0.76397 0.68458 0.80411 0.0
C1994 C 0.72715 0.67968 0.75622 0.0
C1995 C 0.72439 0.66078 0.71949 0.0
N1996 N 0.75161 0.68165 0.78915 0.0
N1997 N 0.73606 0.6632 0.73515 0.0
H1998 H 0.69819 0.64269 0.62603 0.0
H1999 H 0.77931 0.67907 0.54786 0.0
H2000 H 0.73932 0.69547 0.6252 0.0
H2001 H 0.73996 0.62557 0.54874 0.0
H2002 H 0.7634 0.68537 0.57447 0.0
H2003 H 0.71195 0.63622 0.59625 0.0
C2004 C 0.71002 0.65294 0.61954 0.0
C2005 C 0.71761 0.66964 0.62828 0.0
C2006 C 0.75816 0.67225 0.56881 0.0
C2007 C 0.73342 0.6623 0.59424 0.0
C2008 C 0.7672 0.66865 0.55342 0.0
C2009 C 0.76098 0.65175 0.54593 0.0
C2010 C 0.74275 0.65887 0.57696 0.0
C2011 C 0.74536 0.63876 0.55421 0.0
C2012 C 0.71788 0.64922 0.60256 0.0
C2013 C 0.73297 0.68238 0.61916 0.0
N2014 N 0.7368 0.64257 0.56931 0.0
N2015 N 0.74034 0.67842 0.60275 0.0
H2016 H 0.31615 0.05795 0.64391 0.0
H2017 H 0.37187 0.10893 0.54231 0.0
H2018 H 0.35125 0.04483 0.61355 0.0
H2019 H 0.32431 0.10728 0.55825 0.0
H2020 H 0.36627 0.08728 0.57024 0.0
H2021 H 0.32044 0.07797 0.61429 0.0
C2022 C 0.32482 0.0594 0.63099 0.0
C2023 C 0.33396 0.05042 0.63144 0.0
C2024 C 0.35704 0.09161 0.56753 0.0
C2025 C 0.33868 0.07284 0.59755 0.0
C2026 C 0.36026 0.10397 0.5517 0.0
C2027 C 0.34849 0.10978 0.54798 0.0
C2028 C 0.34214 0.08535 0.58 0.0
C2029 C 0.33361 0.10297 0.56049 0.0
C2030 C 0.32722 0.07072 0.61411 0.0
C2031 C 0.34459 0.05218 0.61411 0.0
N2032 N 0.33092 0.0912 0.57608 0.0
N2033 N 0.34686 0.06339 0.59793 0.0
H2034 H 0.94657 0.2985 0.62929 0.0
H2035 H 0.89824 0.21752 0.55002 0.0
H2036 H 0.95394 0.25412 0.63006 0.0
H2037 H 0.88709 0.25941 0.55171 0.0
H2038 H 0.9204 0.23213 0.57738 0.0
H2039 H 0.92639 0.28568 0.59915 0.0
C2040 C 0.94406 0.28613 0.62308 0.0
C2041 C 0.95197 0.27738 0.63236 0.0
C2042 C 0.91318 0.2382 0.57173 0.0
C2043 C 0.92883 0.26263 0.59783 0.0
C2044 C 0.90059 0.22991 0.55594 0.0
C2045 C 0.89078 0.23725 0.54845 0.0
C2046 C 0.91607 0.25399 0.58024 0.0
C2047 C 0.89421 0.25319 0.55714 0.0
C2048 C 0.9325 0.27881 0.60588 0.0
C2049 C 0.94815 0.26137 0.62356 0.0
N2050 N 0.90655 0.26101 0.5726 0.0
N2051 N 0.93686 0.25453 0.60688 0.0
H2052 H 0.35436 0.30934 0.60873 0.0
H2053 H 0.32266 0.21639 0.55705 0.0
H2054 H 0.31725 0.26221 0.63893 0.0
H2055 H 0.37106 0.2608 0.54111 0.0
H2056 H 0.31776 0.23374 0.58353 0.0
H2057 H 0.35771 0.29245 0.57988 0.0
C2058 C 0.34708 0.2954 0.60933 0.0
C2059 C 0.33614 0.28703 0.6266 0.0
C2060 C 0.32942 0.2397 0.57419 0.0
C2061 C 0.3394 0.26774 0.59354 0.0
C2062 C 0.33218 0.22985 0.55899 0.0
C2063 C 0.34728 0.2372 0.54685 0.0
C2064 C 0.34174 0.25709 0.57709 0.0
C2065 C 0.3593 0.25463 0.55025 0.0
C2066 C 0.34889 0.2858 0.59286 0.0
C2067 C 0.32622 0.26905 0.62615 0.0
N2068 N 0.35625 0.26402 0.56501 0.0
N2069 N 0.32821 0.25995 0.60999 0.0
H2070 H 0.70346 0.06645 0.63776 0.0
H2071 H 0.7578 0.09113 0.52955 0.0
H2072 H 0.72898 0.03915 0.61549 0.0
H2073 H 0.75604 0.12952 0.57018 0.0
H2074 H 0.74089 0.06918 0.55615 0.0
H2075 H 0.71626 0.08689 0.60784 0.0
C2076 C 0.71151 0.0646 0.62638 0.0
C2077 C 0.71525 0.05116 0.62911 0.0
C2078 C 0.74414 0.08242 0.55908 0.0
C2079 C 0.7297 0.07427 0.59495 0.0
C2080 C 0.75391 0.09502 0.54399 0.0
C2081 C 0.75869 0.11239 0.54764 0.0
C2082 C 0.73877 0.08706 0.57781 0.0
C2083 C 0.75264 0.11637 0.56643 0.0
C2084 C 0.71887 0.0763 0.60945 0.0
C2085 C 0.72588 0.04942 0.61403 0.0
N2086 N 0.74303 0.10382 0.58081 0.0
N2087 N 0.73271 0.06082 0.59757 0.0
H2088 H 0.94603 0.68684 0.64151 0.0
H2089 H 0.8882 0.62838 0.54639 0.0
H2090 H 0.95453 0.64734 0.61425 0.0
H2091 H 0.90138 0.68186 0.55186 0.0
H2092 H 0.91075 0.63363 0.57249 0.0
H2093 H 0.92717 0.6837 0.61085 0.0
C2094 C 0.94379 0.67744 0.62908 0.0
C2095 C 0.95109 0.66675 0.63073 0.0
C2096 C 0.90859 0.64415 0.56797 0.0
C2097 C 0.92996 0.66329 0.59569 0.0
C2098 C 0.89583 0.64125 0.55283 0.0
C2099 C 0.89254 0.65461 0.54696 0.0
C2100 C 0.91779 0.66034 0.57786 0.0
C2101 C 0.90287 0.67094 0.55632 0.0
C2102 C 0.93316 0.67571 0.6116 0.0
C2103 C 0.94838 0.65518 0.61395 0.0
N2104 N 0.9148 0.67326 0.57156 0.0
N2105 N 0.93777 0.65353 0.59723 0.0
H2106 H 0.93726 0.64415 0.74023 0.0
H2107 H 0.91198 0.70984 0.7865 0.0
H2108 H 0.96214 0.69657 0.71727 0.0
H2109 H 0.91348 0.67118 0.82728 0.0
H2110 H 0.92883 0.70479 0.7598 0.0
H2111 H 0.92633 0.65283 0.77096 0.0
C2112 C 0.9405 0.65752 0.74176 0.0
C2113 C 0.95057 0.66967 0.72622 0.0
C2114 C 0.92561 0.69759 0.77474 0.0
C2115 C 0.9379 0.67959 0.76106 0.0
C2116 C 0.91605 0.70051 0.79013 0.0
C2117 C 0.91104 0.69081 0.80926 0.0
C2118 C 0.9299 0.68463 0.77824 0.0
C2119 C 0.91653 0.67866 0.8126 0.0
C2120 C 0.93435 0.66247 0.75934 0.0
C2121 C 0.95447 0.68684 0.72899 0.0
N2122 N 0.92541 0.67572 0.79711 0.0
N2123 N 0.94788 0.69126 0.74593 0.0
H2124 H 0.35857 0.29397 0.73516 0.0
H2125 H 0.29051 0.20482 0.78234 0.0
H2126 H 0.30629 0.26903 0.71184 0.0
H2127 H 0.32996 0.24382 0.82283 0.0
H2128 H 0.2967 0.22666 0.75477 0.0
H2129 H 0.34947 0.27409 0.76574 0.0
C2130 C 0.34516 0.28434 0.73654 0.0
C2131 C 0.33315 0.28311 0.72098 0.0
C2132 C 0.30385 0.2304 0.76981 0.0
C2133 C 0.32274 0.26022 0.75566 0.0
C2134 C 0.30027 0.21796 0.78568 0.0
C2135 C 0.30983 0.22233 0.80503 0.0
C2136 C 0.31729 0.24725 0.77307 0.0
C2137 C 0.32256 0.23963 0.80803 0.0
C2138 C 0.33998 0.27308 0.75403 0.0
C2139 C 0.31592 0.27045 0.72358 0.0
N2140 N 0.32608 0.25137 0.79211 0.0
N2141 N 0.31125 0.25929 0.74045 0.0
H2142 H 0.71106 0.02625 0.74163 0.0
H2143 H 0.77052 0.11809 0.79575 0.0
H2144 H 0.72227 0.07392 0.71072 0.0
H2145 H 0.77548 0.07352 0.81116 0.0
H2146 H 0.74922 0.10129 0.768 0.0
H2147 H 0.73107 0.04264 0.77094 0.0
C2148 C 0.71797 0.04019 0.74094 0.0
C2149 C 0.71575 0.04884 0.72339 0.0
C2150 C 0.75494 0.09518 0.77751 0.0
C2151 C 0.73794 0.06758 0.75704 0.0
C2152 C 0.76698 0.1047 0.79343 0.0
C2153 C 0.77471 0.09714 0.80578 0.0
C2154 C 0.75041 0.0779 0.77412 0.0
C2155 C 0.76985 0.07983 0.8019 0.0
C2156 C 0.72923 0.04951 0.75767 0.0
C2157 C 0.72412 0.06686 0.72373 0.0
N2158 N 0.75794 0.07074 0.78645 0.0
N2159 N 0.73498 0.07569 0.74023 0.0
H2160 H 0.0629 0.36062 0.01332 0.0
H2161 H 0.07398 0.31629 0.11705 0.0
H2162 H 0.01968 0.32999 0.05425 0.0
H2163 H 0.10279 0.32166 0.05953 0.0
H2164 H 0.05485 0.32332 0.09605 0.0
H2165 H 0.07907 0.34881 0.03177 0.0
C2166 C 0.0568 0.35138 0.02616 0.0
C2167 C 0.03995 0.34631 0.03233 0.0
C2168 C 0.06522 0.32272 0.088 0.0
C2169 C 0.05844 0.33295 0.0536 0.0
C2170 C 0.07611 0.31877 0.09994 0.0
C2171 C 0.08989 0.31841 0.0899 0.0
C2172 C 0.06846 0.32677 0.06606 0.0
C2173 C 0.09221 0.32173 0.06775 0.0
C2174 C 0.066 0.34458 0.03656 0.0
C2175 C 0.03264 0.3342 0.04898 0.0
N2176 N 0.08175 0.32604 0.05659 0.0
N2177 N 0.04202 0.3281 0.05928 0.0
H2178 H 0.64518 0.69672 0.01564 0.0
H2179 H 0.7111 0.77788 0.08458 0.0
H2180 H 0.68596 0.69623 0.05266 0.0
H2181 H 0.65722 0.76241 0.0796 0.0
H2182 H 0.70521 0.7515 0.06566 0.0
H2183 H 0.65302 0.72498 0.03114 0.0
C2184 C 0.65595 0.70269 0.02675 0.0
C2185 C 0.66489 0.69415 0.033 0.0
C2186 C 0.69477 0.75405 0.06866 0.0
C2187 C 0.67396 0.72634 0.05053 0.0
C2188 C 0.69804 0.76903 0.07964 0.0
C2189 C 0.68465 0.77253 0.08391 0.0
C2190 C 0.67807 0.74264 0.06146 0.0
C2191 C 0.66809 0.76063 0.07642 0.0
C2192 C 0.66032 0.71871 0.03566 0.0
C2193 C 0.67867 0.70238 0.04756 0.0
N2194 N 0.6653 0.74628 0.06551 0.0
N2195 N 0.68283 0.71807 0.05582 0.0
H2196 H 0.29361 0.95447 0.01157 0.0
H2197 H 0.2343 0.93216 0.11568 0.0
H2198 H 0.30715 0.98697 0.06792 0.0
H2199 H 0.21947 0.90029 0.05864 0.0
H2200 H 0.26022 0.95326 0.09742 0.0
H2201 H 0.26563 0.93534 0.02747 0.0
C2202 C 0.29065 0.95767 0.02719 0.0
C2203 C 0.30278 0.97229 0.03848 0.0
C2204 C 0.25126 0.9417 0.08883 0.0
C2205 C 0.27084 0.9504 0.05685 0.0
C2206 C 0.23637 0.92967 0.09923 0.0
C2207 C 0.22467 0.91435 0.08874 0.0
C2208 C 0.25456 0.93842 0.06779 0.0
C2209 C 0.22825 0.91176 0.0675 0.0
C2210 C 0.27468 0.94672 0.03628 0.0
C2211 C 0.29823 0.97581 0.05866 0.0
N2212 N 0.24289 0.92362 0.05778 0.0
N2213 N 0.28269 0.96489 0.06724 0.0
H2214 H 0.32121 0.02316 0.98765 0.0
H2215 H 0.35061 0.11125 0.92398 0.0
H2216 H 0.37321 0.06554 0.98643 0.0
H2217 H 0.29762 0.07675 0.93976 0.0
H2218 H 0.35875 0.09273 0.9437 0.0
H2219 H 0.31194 0.04085 0.96727 0.0
C2220 C 0.33067 0.03615 0.98315 0.0
C2221 C 0.34803 0.04284 0.98882 0.0
C2222 C 0.34533 0.0892 0.9429 0.0
C2223 C 0.33753 0.06301 0.96538 0.0
C2224 C 0.34066 0.09984 0.93171 0.0
C2225 C 0.3234 0.09573 0.93041 0.0
C2226 C 0.33268 0.07418 0.95281 0.0
C2227 C 0.31107 0.08041 0.94023 0.0
C2228 C 0.32535 0.04622 0.97155 0.0
C2229 C 0.35969 0.05978 0.98255 0.0
N2230 N 0.31595 0.0702 0.95107 0.0
N2231 N 0.35424 0.0692 0.97113 0.0
H2232 H 0.95104 0.29612 0.01165 0.0
H2233 H 0.92845 0.23534 0.90812 0.0
H2234 H 0.98481 0.307 0.95759 0.0
H2235 H 0.89566 0.22199 0.96364 0.0
H2236 H 0.95006 0.26071 0.92726 0.0
H2237 H 0.93135 0.26802 0.99565 0.0
C2238 C 0.95439 0.29253 0.99655 0.0
C2239 C 0.96951 0.30396 0.98586 0.0
C2240 C 0.93819 0.25218 0.93534 0.0
C2241 C 0.94705 0.27197 0.9674 0.0
C2242 C 0.92586 0.23761 0.92444 0.0
C2243 C 0.91014 0.22652 0.93421 0.0
C2244 C 0.93478 0.25582 0.95616 0.0
C2245 C 0.90745 0.23033 0.95531 0.0
C2246 C 0.94314 0.27651 0.9874 0.0
C2247 C 0.97324 0.29865 0.96634 0.0
N2248 N 0.9196 0.2447 0.96552 0.0
N2249 N 0.96204 0.28311 0.95768 0.0
H2250 H 0.68766 0.66638 0.96425 0.0
H2251 H 0.78151 0.67791 0.95947 0.0
H2252 H 0.70426 0.63888 0.00669 0.0
H2253 H 0.75468 0.67887 0.90188 0.0
H2254 H 0.75551 0.66985 0.98038 0.0
H2255 H 0.71463 0.67728 0.94435 0.0
C2256 C 0.69704 0.66279 0.9695 0.0
C2257 C 0.69372 0.65166 0.98707 0.0
C2258 C 0.75538 0.67194 0.96319 0.0
C2259 C 0.7245 0.66423 0.96469 0.0
C2260 C 0.77018 0.6766 0.95132 0.0
C2261 C 0.77013 0.67898 0.92898 0.0
C2262 C 0.74058 0.66999 0.95269 0.0
C2263 C 0.75513 0.67703 0.91909 0.0
C2264 C 0.71233 0.66892 0.9581 0.0
C2265 C 0.70626 0.64733 0.99314 0.0
N2266 N 0.74092 0.67271 0.93104 0.0
N2267 N 0.72114 0.6537 0.98204 0.0
H2268 H 0.98739 0.68108 0.95141 0.0
H2269 H 0.89764 0.67942 0.96321 0.0
H2270 H 0.95448 0.66004 0.00656 0.0
H2271 H 0.92971 0.69845 0.90705 0.0
H2272 H 0.91937 0.6744 0.98066 0.0
H2273 H 0.96761 0.68991 0.93638 0.0
C2274 C 0.97607 0.67843 0.96045 0.0
C2275 C 0.97253 0.66971 0.98022 0.0
C2276 C 0.9217 0.67977 0.96457 0.0
C2277 C 0.94975 0.67971 0.96302 0.0
C2278 C 0.90926 0.68257 0.95456 0.0
C2279 C 0.91178 0.68927 0.93357 0.0
C2280 C 0.9368 0.68366 0.95352 0.0
C2281 C 0.92725 0.69341 0.9233 0.0
C2282 C 0.96476 0.68346 0.95183 0.0
C2283 C 0.95768 0.66667 0.99123 0.0
N2284 N 0.9391 0.69044 0.93332 0.0
N2285 N 0.94679 0.67157 0.98243 0.0
H2286 H 0.36348 0.30038 0.00785 0.0
H2287 H 0.3075 0.24039 0.91095 0.0
H2288 H 0.3277 0.31046 0.97227 0.0
H2289 H 0.33081 0.22422 0.96035 0.0
H2290 H 0.31502 0.26641 0.93202 0.0
H2291 H 0.35229 0.27288 0.98931 0.0
C2292 C 0.35321 0.29678 0.99616 0.0
C2293 C 0.34657 0.3078 0.99155 0.0
C2294 C 0.31837 0.25707 0.93826 0.0
C2295 C 0.33374 0.27624 0.97005 0.0
C2296 C 0.31403 0.24218 0.92629 0.0
C2297 C 0.31872 0.23015 0.93371 0.0
C2298 C 0.32756 0.26 0.95769 0.0
C2299 C 0.32731 0.2333 0.95365 0.0
C2300 C 0.34677 0.28102 0.98562 0.0
C2301 C 0.33316 0.30235 0.97635 0.0
N2302 N 0.33157 0.24794 0.9648 0.0
N2303 N 0.3273 0.287 0.96595 0.0
H2304 H 0.69329 0.01428 0.95891 0.0
H2305 H 0.77831 0.10644 0.96446 0.0
H2306 H 0.70483 0.04991 0.01161 0.0
H2307 H 0.76271 0.07273 0.90907 0.0
H2308 H 0.75321 0.08481 0.98378 0.0
H2309 H 0.72065 0.03421 0.94264 0.0
C2310 C 0.70166 0.02624 0.96719 0.0
C2311 C 0.6967 0.0305 0.98658 0.0
C2312 C 0.75535 0.08213 0.96744 0.0
C2313 C 0.72807 0.05351 0.96787 0.0
C2314 C 0.76962 0.09451 0.95634 0.0
C2315 C 0.77262 0.09148 0.93502 0.0
C2316 C 0.74397 0.06656 0.9572 0.0
C2317 C 0.76107 0.07561 0.92552 0.0
C2318 C 0.71728 0.03765 0.95784 0.0
C2319 C 0.70813 0.04615 0.99661 0.0
N2320 N 0.74726 0.06382 0.93663 0.0
N2321 N 0.72324 0.05717 0.98704 0.0
H2322 H 0.67848 0.97988 0.0375 0.0
H2323 H 0.6505 0.89096 0.09853 0.0
H2324 H 0.62659 0.93735 0.03974 0.0
H2325 H 0.70331 0.92686 0.08361 0.0
H2326 H 0.64186 0.90974 0.08044 0.0
H2327 H 0.68815 0.9624 0.05755 0.0
C2328 C 0.66913 0.96692 0.04221 0.0
C2329 C 0.65169 0.96008 0.03686 0.0
C2330 C 0.65535 0.91354 0.08108 0.0
C2331 C 0.66265 0.94015 0.05985 0.0
C2332 C 0.66029 0.90277 0.09134 0.0
C2333 C 0.67764 0.90719 0.0923 0.0
C2334 C 0.66781 0.92897 0.07176 0.0
C2335 C 0.6898 0.92295 0.08327 0.0
C2336 C 0.67467 0.95696 0.05361 0.0
C2337 C 0.64016 0.94318 0.04337 0.0
N2338 N 0.68464 0.93327 0.07327 0.0
N2339 N 0.64585 0.93386 0.05453 0.0
H2340 H 0.02046 0.6943 0.0473 0.0
H2341 H 0.11156 0.77951 0.06021 0.0
H2342 H 0.0665 0.70221 0.01567 0.0
H2343 H 0.07204 0.76388 0.1082 0.0
H2344 H 0.09326 0.75335 0.03993 0.0
H2345 H 0.03737 0.72196 0.06604 0.0
C2346 C 0.03407 0.70188 0.04418 0.0
C2347 C 0.04209 0.69587 0.02999 0.0
C2348 C 0.08858 0.75566 0.05489 0.0
C2349 C 0.06138 0.72747 0.05117 0.0
C2350 C 0.09906 0.77056 0.06658 0.0
C2351 C 0.0935 0.77384 0.0862 0.0
C2352 C 0.07226 0.74392 0.06266 0.0
C2353 C 0.07689 0.76197 0.09316 0.0
C2354 C 0.04369 0.7176 0.05493 0.0
C2355 C 0.05978 0.70622 0.02659 0.0
N2356 N 0.06687 0.7475 0.08143 0.0
N2357 N 0.06879 0.72149 0.03706 0.0
H2358 H 0.312 0.33212 0.07042 0.0
H2359 H 0.21862 0.32161 0.05669 0.0
H2360 H 0.29588 0.34545 0.01103 0.0
H2361 H 0.24455 0.329 0.11789 0.0
H2362 H 0.24465 0.3257 0.03843 0.0
H2363 H 0.28491 0.32586 0.08667 0.0
C2364 C 0.3027 0.3336 0.06069 0.0
C2365 C 0.30627 0.33942 0.03933 0.0
C2366 C 0.24459 0.32642 0.05585 0.0
C2367 C 0.27512 0.33224 0.05798 0.0
C2368 C 0.22977 0.32402 0.06625 0.0
C2369 C 0.22951 0.32507 0.0888 0.0
C2370 C 0.25907 0.32954 0.06816 0.0
C2371 C 0.24428 0.32828 0.10046 0.0
C2372 C 0.28725 0.33009 0.07006 0.0
C2373 C 0.29367 0.34106 0.02757 0.0
N2374 N 0.25842 0.33032 0.09002 0.0
N2375 N 0.27861 0.33749 0.03707 0.0
H2376 H 0.68607 0.65724 0.37344 0.0
H2377 H 0.7754 0.68249 0.43194 0.0
H2378 H 0.72875 0.70901 0.3789 0.0
H2379 H 0.73795 0.62987 0.41679 0.0
H2380 H 0.75667 0.69202 0.41582 0.0
H2381 H 0.70316 0.64659 0.39248 0.0
C2382 C 0.69896 0.66637 0.37873 0.0
C2383 C 0.706 0.68405 0.37446 0.0
C2384 C 0.7525 0.67838 0.41596 0.0
C2385 C 0.72551 0.67197 0.39621 0.0
C2386 C 0.76325 0.67292 0.42506 0.0
C2387 C 0.75838 0.65537 0.42536 0.0
C2388 C 0.73664 0.66623 0.40707 0.0
C2389 C 0.74222 0.64353 0.41685 0.0
C2390 C 0.7087 0.66027 0.38952 0.0
C2391 C 0.72278 0.69527 0.38165 0.0
N2392 N 0.73194 0.64918 0.40791 0.0
N2393 N 0.73192 0.68904 0.39213 0.0
H2394 H 0.34538 0.02282 0.40024 0.0
H2395 H 0.34205 0.11069 0.3905 0.0
H2396 H 0.32368 0.03548 0.34544 0.0
H2397 H 0.35966 0.09558 0.44719 0.0
H2398 H 0.33769 0.08455 0.37231 0.0
H2399 H 0.35352 0.05089 0.41596 0.0
C2400 C 0.34247 0.03158 0.3914 0.0
C2401 C 0.33373 0.02675 0.37154 0.0
C2402 C 0.3426 0.087 0.38869 0.0
C2403 C 0.34291 0.05891 0.38958 0.0
C2404 C 0.345 0.10189 0.39914 0.0
C2405 C 0.35114 0.10533 0.42049 0.0
C2406 C 0.34634 0.07542 0.39963 0.0
C2407 C 0.35506 0.09359 0.43069 0.0
C2408 C 0.34708 0.0476 0.40043 0.0
C2409 C 0.33034 0.03865 0.36081 0.0
N2410 N 0.35252 0.07914 0.42021 0.0
N2411 N 0.33484 0.05414 0.37003 0.0
H2412 H 0.97304 0.31941 0.39717 0.0
H2413 H 0.88455 0.2304 0.38976 0.0
H2414 H 0.9587 0.28496 0.34267 0.0
H2415 H 0.90159 0.26319 0.446 0.0
H2416 H 0.91021 0.25141 0.37078 0.0
H2417 H 0.9454 0.30037 0.41353 0.0
C2418 C 0.96401 0.3079 0.38854 0.0
C2419 C 0.96824 0.30371 0.36857 0.0
C2420 C 0.90828 0.25405 0.38723 0.0
C2421 C 0.93653 0.28172 0.38735 0.0
C2422 C 0.89367 0.24201 0.39813 0.0
C2423 C 0.89093 0.24494 0.4196 0.0
C2424 C 0.92027 0.26916 0.39784 0.0
C2425 C 0.90304 0.26041 0.42944 0.0
C2426 C 0.94822 0.297 0.39793 0.0
C2427 C 0.95599 0.28866 0.35811 0.0
N2428 N 0.9172 0.27186 0.41853 0.0
N2429 N 0.94072 0.27814 0.3677 0.0
H2430 H 0.98712 0.3545 0.31661 0.0
H2431 H 0.01798 0.44486 0.25803 0.0
H2432 H 0.03894 0.39723 0.31883 0.0
H2433 H 0.96448 0.40927 0.26971 0.0
H2434 H 0.02559 0.42581 0.27738 0.0
H2435 H 0.97824 0.37278 0.29685 0.0
C2436 C 0.99661 0.36768 0.31301 0.0
C2437 C 0.01382 0.37429 0.31942 0.0
C2438 C 0.01217 0.42215 0.27579 0.0
C2439 C 0.00377 0.39514 0.29672 0.0
C2440 C 0.0078 0.43309 0.26481 0.0
C2441 C 0.99055 0.42884 0.26248 0.0
C2442 C 0.99923 0.40667 0.28445 0.0
C2443 C 0.97793 0.41307 0.27105 0.0
C2444 C 0.99153 0.37809 0.30177 0.0
C2445 C 0.02554 0.3915 0.31432 0.0
N2446 N 0.98253 0.40255 0.28171 0.0
N2447 N 0.02031 0.40124 0.30323 0.0
H2448 H 0.65513 0.63835 0.30343 0.0
H2449 H 0.55924 0.57421 0.27411 0.0
H2450 H 0.61378 0.63698 0.34007 0.0
H2451 H 0.5969 0.55733 0.27039 0.0
H2452 H 0.57975 0.59936 0.29438 0.0
H2453 H 0.63478 0.61045 0.28727 0.0
C2454 C 0.64181 0.63208 0.30822 0.0
C2455 C 0.63608 0.63994 0.32306 0.0
C2456 C 0.58343 0.59005 0.28921 0.0
C2457 C 0.61284 0.60845 0.30435 0.0
C2458 C 0.57169 0.57557 0.27771 0.0
C2459 C 0.57615 0.56334 0.27057 0.0
C2460 C 0.59997 0.59269 0.29318 0.0
C2461 C 0.59285 0.56641 0.27519 0.0
C2462 C 0.63026 0.6162 0.29905 0.0
C2463 C 0.61872 0.63131 0.32875 0.0
N2464 N 0.60421 0.58087 0.28604 0.0
N2465 N 0.60764 0.61615 0.31911 0.0
H2466 H 0.36429 0.00698 0.31923 0.0
H2467 H 0.42389 0.97696 0.25913 0.0
H2468 H 0.35503 0.95464 0.31807 0.0
H2469 H 0.43993 0.03047 0.2712 0.0
H2470 H 0.39731 0.96876 0.27808 0.0
H2471 H 0.39085 0.01604 0.29916 0.0
C2472 C 0.36779 0.99739 0.31477 0.0
C2473 C 0.35736 0.98001 0.32041 0.0
C2474 C 0.40663 0.98231 0.27663 0.0
C2475 C 0.38765 0.99029 0.29738 0.0
C2476 C 0.42189 0.98702 0.26588 0.0
C2477 C 0.43432 0.00445 0.26376 0.0
C2478 C 0.40361 0.99509 0.28529 0.0
C2479 C 0.4307 0.01688 0.27234 0.0
C2480 C 0.38297 0.00259 0.30335 0.0
C2481 C 0.36261 0.96818 0.3142 0.0
N2482 N 0.41569 0.01196 0.28278 0.0
N2483 N 0.37731 0.97354 0.30301 0.0
H2484 H 0.61781 0.98082 0.3373 0.0
H2485 H 0.59882 0.04348 0.26603 0.0
H2486 H 0.65711 0.01863 0.29644 0.0
H2487 H 0.56217 0.98927 0.27283 0.0
H2488 H 0.62043 0.03844 0.28392 0.0
H2489 H 0.59715 0.9882 0.32139 0.0
C2490 C 0.62215 0.99086 0.32522 0.0
C2491 C 0.63917 0.99908 0.31808 0.0
C2492 C 0.60758 0.02775 0.28151 0.0
C2493 C 0.61566 0.00763 0.30004 0.0
C2494 C 0.59522 0.03054 0.27115 0.0
C2495 C 0.57844 0.01681 0.26781 0.0
C2496 C 0.60306 0.01124 0.28907 0.0
C2497 C 0.57466 0.00042 0.27541 0.0
C2498 C 0.61034 0.99497 0.31609 0.0
C2499 C 0.64408 0.01193 0.30228 0.0
N2500 N 0.5868 0.99815 0.28578 0.0
N2501 N 0.63236 0.01587 0.29379 0.0
H2502 H 0.98866 0.63779 0.3152 0.0
H2503 H 0.01905 0.57969 0.25145 0.0
H2504 H 0.04108 0.6483 0.31156 0.0
H2505 H 0.96596 0.56131 0.26701 0.0
H2506 H 0.02684 0.60649 0.27019 0.0
H2507 H 0.97959 0.61114 0.29456 0.0
C2508 C 0.99825 0.63455 0.31006 0.0
C2509 C 0.01566 0.64532 0.31522 0.0
C2510 C 0.01347 0.59661 0.26956 0.0
C2511 C 0.0054 0.61501 0.29155 0.0
C2512 C 0.00901 0.58124 0.25892 0.0
C2513 C 0.99184 0.56807 0.2579 0.0
C2514 C 0.0007 0.59902 0.27924 0.0
C2515 C 0.97936 0.57111 0.26735 0.0
C2516 C 0.99306 0.61933 0.29833 0.0
C2517 C 0.02751 0.64043 0.30814 0.0
N2518 N 0.98404 0.58625 0.27771 0.0
N2519 N 0.02216 0.62572 0.29668 0.0
H2520 H 0.37395 0.38377 0.3462 0.0
H2521 H 0.43325 0.40563 0.24237 0.0
H2522 H 0.36158 0.35008 0.29118 0.0
H2523 H 0.44814 0.43788 0.29908 0.0
H2524 H 0.4078 0.38429 0.26113 0.0
H2525 H 0.402 0.40295 0.33042 0.0
C2526 C 0.3772 0.38031 0.33093 0.0
C2527 C 0.36536 0.36538 0.31991 0.0
C2528 C 0.41668 0.39598 0.26955 0.0
C2529 C 0.39732 0.38728 0.3017 0.0
C2530 C 0.4313 0.40815 0.25887 0.0
C2531 C 0.44286 0.42365 0.26909 0.0
C2532 C 0.41347 0.39933 0.29061 0.0
C2533 C 0.43945 0.42627 0.2904 0.0
C2534 C 0.3932 0.39128 0.32191 0.0
C2535 C 0.37025 0.36152 0.30019 0.0
N2536 N 0.42502 0.41429 0.3004 0.0
N2537 N 0.38579 0.37245 0.29165 0.0
H2538 H 0.33997 0.31561 0.38518 0.0
H2539 H 0.33371 0.22328 0.39155 0.0
H2540 H 0.30268 0.271 0.34978 0.0
H2541 H 0.35505 0.26024 0.4435 0.0
H2542 H 0.32674 0.24289 0.37218 0.0
H2543 H 0.35002 0.29752 0.403 0.0
C2544 C 0.33398 0.30207 0.38106 0.0
C2545 C 0.3204 0.29478 0.36607 0.0
C2546 C 0.33299 0.24671 0.3878 0.0
C2547 C 0.33192 0.27419 0.38615 0.0
C2548 C 0.3369 0.23549 0.39894 0.0
C2549 C 0.34474 0.23997 0.41938 0.0
C2550 C 0.33709 0.26264 0.39699 0.0
C2551 C 0.34907 0.25625 0.42777 0.0
C2552 C 0.33967 0.29178 0.39128 0.0
C2553 C 0.31308 0.27715 0.36136 0.0
N2554 N 0.34512 0.267 0.41657 0.0
N2555 N 0.31896 0.26749 0.37132 0.0
H2556 H 0.73237 0.02073 0.37443 0.0
H2557 H 0.74101 0.10912 0.41671 0.0
H2558 H 0.69087 0.03212 0.36868 0.0
H2559 H 0.77594 0.09058 0.43362 0.0
H2560 H 0.72259 0.08173 0.39822 0.0
H2561 H 0.74885 0.04717 0.39475 0.0
C2562 C 0.72668 0.02879 0.37742 0.0
C2563 C 0.71017 0.02414 0.36974 0.0
C2564 C 0.73427 0.08369 0.40606 0.0
C2565 C 0.72915 0.05468 0.39318 0.0
C2566 C 0.74476 0.09928 0.41669 0.0
C2567 C 0.76018 0.10227 0.42654 0.0
C2568 C 0.73929 0.07105 0.40522 0.0
C2569 C 0.76442 0.08907 0.42584 0.0
C2570 C 0.73612 0.04391 0.38914 0.0
C2571 C 0.70353 0.03516 0.3743 0.0
N2572 N 0.7541 0.07413 0.41528 0.0
N2573 N 0.71309 0.04998 0.38564 0.0
H2574 H 0.96413 0.68566 0.34638 0.0
H2575 H 0.89355 0.62814 0.43339 0.0
H2576 H 0.97142 0.65296 0.3917 0.0
H2577 H 0.89761 0.67454 0.40612 0.0
H2578 H 0.91922 0.63336 0.41345 0.0
H2579 H 0.93661 0.67776 0.3632 0.0
C2580 C 0.95985 0.67664 0.35968 0.0
C2581 C 0.97012 0.67002 0.36772 0.0
C2582 C 0.91444 0.64235 0.4118 0.0
C2583 C 0.93867 0.66093 0.387 0.0
C2584 C 0.89978 0.63935 0.42307 0.0
C2585 C 0.89353 0.65099 0.42145 0.0
C2586 C 0.92271 0.65694 0.39854 0.0
C2587 C 0.90213 0.66536 0.40798 0.0
C2588 C 0.9442 0.67223 0.36934 0.0
C2589 C 0.96394 0.65843 0.38506 0.0
N2590 N 0.91625 0.66791 0.39699 0.0
N2591 N 0.94862 0.65426 0.39414 0.0
H2592 H 0.34948 0.99696 0.7249 0.0
H2593 H 0.43498 0.99024 0.72728 0.0
H2594 H 0.39271 0.02766 0.68402 0.0
H2595 H 0.40725 0.98635 0.78534 0.0
H2596 H 0.41512 0.99664 0.70696 0.0
H2597 H 0.36652 0.98586 0.74329 0.0
C2598 C 0.36246 0.0012 0.71966 0.0
C2599 C 0.36976 0.01332 0.70304 0.0
C2600 C 0.4133 0.99418 0.72411 0.0
C2601 C 0.38902 0.0005 0.72358 0.0
C2602 C 0.42452 0.99045 0.73563 0.0
C2603 C 0.4227 0.98786 0.75794 0.0
C2604 C 0.40003 0.99499 0.73496 0.0
C2605 C 0.40906 0.9884 0.76813 0.0
C2606 C 0.37214 0.99493 0.73017 0.0
C2607 C 0.38664 0.01845 0.69688 0.0
N2608 N 0.39818 0.9919 0.75654 0.0
N2609 N 0.39568 0.01196 0.7071 0.0
H2610 H 0.01957 0.3618 0.72267 0.0
H2611 H 0.98748 0.42745 0.74652 0.0
H2612 H 0.98075 0.36357 0.68281 0.0
H2613 H 0.04133 0.44323 0.75342 0.0
H2614 H 0.98318 0.40196 0.72705 0.0
H2615 H 0.02645 0.38981 0.73819 0.0
C2616 C 0.01262 0.36817 0.71705 0.0
C2617 C 0.99959 0.36041 0.70143 0.0
C2618 C 0.99594 0.4111 0.73276 0.0
C2619 C 0.00707 0.39205 0.71944 0.0
C2620 C 0.99849 0.42579 0.7438 0.0
C2621 C 0.01487 0.43779 0.75169 0.0
C2622 C 0.00971 0.40804 0.72999 0.0
C2623 C 0.0284 0.43433 0.74812 0.0
C2624 C 0.01657 0.38411 0.72587 0.0
C2625 C 0.99095 0.36917 0.69472 0.0
N2626 N 0.02549 0.4197 0.73773 0.0
N2627 N 0.99465 0.38441 0.70402 0.0
H2628 H 0.63207 0.6115 0.6801 0.0
H2629 H 0.55409 0.5962 0.75464 0.0
H2630 H 0.6338 0.65248 0.71872 0.0
H2631 H 0.56981 0.55783 0.74647 0.0
H2632 H 0.57954 0.61676 0.73491 0.0
H2633 H 0.60482 0.59125 0.69705 0.0
C2634 C 0.62657 0.61628 0.69188 0.0
C2635 C 0.63521 0.63365 0.69812 0.0
C2636 C 0.57726 0.60377 0.73741 0.0
C2637 C 0.60411 0.61066 0.71735 0.0
C2638 C 0.5628 0.59202 0.74885 0.0
C2639 C 0.55962 0.57509 0.75242 0.0
C2640 C 0.58844 0.59852 0.72905 0.0
C2641 C 0.57133 0.5705 0.74386 0.0
C2642 C 0.61112 0.60472 0.70162 0.0
C2643 C 0.62758 0.63915 0.71357 0.0
N2644 N 0.58512 0.58209 0.73251 0.0
N2645 N 0.61242 0.62769 0.72265 0.0
H2646 H 0.65082 0.68444 0.64816 0.0
H2647 H 0.67552 0.7739 0.59012 0.0
H2648 H 0.702 0.72811 0.64503 0.0
H2649 H 0.6231 0.73627 0.6043 0.0
H2650 H 0.68502 0.75535 0.60689 0.0
H2651 H 0.64001 0.70143 0.62904 0.0
C2652 C 0.65978 0.69753 0.64342 0.0
C2653 C 0.67735 0.70485 0.64831 0.0
C2654 C 0.67142 0.7511 0.6064 0.0
C2655 C 0.6651 0.72422 0.62641 0.0
C2656 C 0.66598 0.76176 0.59691 0.0
C2657 C 0.6485 0.7568 0.59614 0.0
C2658 C 0.65933 0.73524 0.6152 0.0
C2659 C 0.63671 0.74062 0.60457 0.0
C2660 C 0.65359 0.70721 0.63257 0.0
C2661 C 0.68835 0.72189 0.6418 0.0
N2662 N 0.64235 0.73042 0.61388 0.0
N2663 N 0.68205 0.73092 0.63121 0.0
H2664 H 0.28284 0.96229 0.67889 0.0
H2665 H 0.26012 0.903 0.57388 0.0
H2666 H 0.31596 0.97516 0.62377 0.0
H2667 H 0.22833 0.88838 0.63045 0.0
H2668 H 0.28152 0.92868 0.59281 0.0
H2669 H 0.26352 0.93437 0.66239 0.0
C2670 C 0.28613 0.95918 0.66341 0.0
C2671 C 0.30098 0.97111 0.65262 0.0
C2672 C 0.26991 0.91981 0.60114 0.0
C2673 C 0.27887 0.93926 0.63358 0.0
C2674 C 0.25771 0.90507 0.59037 0.0
C2675 C 0.24234 0.89352 0.60053 0.0
C2676 C 0.26673 0.9231 0.62224 0.0
C2677 C 0.23985 0.89706 0.62183 0.0
C2678 C 0.27508 0.94325 0.65398 0.0
C2679 C 0.30462 0.96638 0.63263 0.0
N2680 N 0.25187 0.91157 0.63193 0.0
N2681 N 0.29358 0.95089 0.62369 0.0
H2682 H 0.02855 0.29177 0.66035 0.0
H2683 H 0.10417 0.36581 0.59139 0.0
H2684 H 0.03014 0.33985 0.64503 0.0
H2685 H 0.09781 0.31519 0.60239 0.0
H2686 H 0.07828 0.3577 0.6126 0.0
H2687 H 0.05505 0.30133 0.64089 0.0
C2688 C 0.03445 0.30438 0.65291 0.0
C2689 C 0.02694 0.31496 0.65428 0.0
C2690 C 0.08257 0.3484 0.61034 0.0
C2691 C 0.0576 0.32605 0.63176 0.0
C2692 C 0.09738 0.35303 0.59833 0.0
C2693 C 0.10309 0.34111 0.59497 0.0
C2694 C 0.07353 0.33177 0.61917 0.0
C2695 C 0.09374 0.3247 0.60422 0.0
C2696 C 0.04966 0.30984 0.64174 0.0
C2697 C 0.0354 0.33122 0.64436 0.0
N2698 N 0.07947 0.32055 0.61586 0.0
N2699 N 0.05027 0.33626 0.63346 0.0
H2700 H 0.2886 0.32848 0.67578 0.0
H2701 H 0.26429 0.36497 0.57141 0.0
H2702 H 0.31982 0.34584 0.61877 0.0
H2703 H 0.23504 0.35107 0.63014 0.0
H2704 H 0.2859 0.36012 0.58941 0.0
H2705 H 0.26992 0.33855 0.66028 0.0
C2706 C 0.29162 0.33455 0.66008 0.0
C2707 C 0.30573 0.33621 0.64848 0.0
C2708 C 0.27482 0.35826 0.59842 0.0
C2709 C 0.28432 0.34767 0.63056 0.0
C2710 C 0.26251 0.36115 0.58819 0.0
C2711 C 0.24773 0.35832 0.59922 0.0
C2712 C 0.27233 0.35242 0.61984 0.0
C2713 C 0.24606 0.35311 0.62086 0.0
C2714 C 0.28094 0.34029 0.65122 0.0
C2715 C 0.30904 0.34423 0.62824 0.0
N2716 N 0.25813 0.35022 0.6304 0.0
N2717 N 0.29834 0.34953 0.61984 0.0
H2718 H 0.65259 0.97045 0.65053 0.0
H2719 H 0.67757 0.90591 0.59231 0.0
H2720 H 0.70386 0.97756 0.64764 0.0
H2721 H 0.62503 0.89239 0.60436 0.0
H2722 H 0.6871 0.93345 0.61001 0.0
H2723 H 0.64193 0.94296 0.63132 0.0
C2724 C 0.66161 0.96629 0.64586 0.0
C2725 C 0.67917 0.97638 0.65078 0.0
C2726 C 0.67347 0.92449 0.60886 0.0
C2727 C 0.66706 0.94505 0.62875 0.0
C2728 C 0.66801 0.90868 0.59882 0.0
C2729 C 0.65046 0.89666 0.59712 0.0
C2730 C 0.66135 0.9285 0.61726 0.0
C2731 C 0.63868 0.90127 0.60529 0.0
C2732 C 0.6555 0.95059 0.63493 0.0
C2733 C 0.69022 0.97028 0.64434 0.0
N2734 N 0.64434 0.91681 0.6151 0.0
N2735 N 0.68399 0.95509 0.63368 0.0
H2736 H 0.02427 0.68065 0.62426 0.0
H2737 H 0.11194 0.77043 0.6316 0.0
H2738 H 0.03844 0.71524 0.67859 0.0
H2739 H 0.09534 0.73786 0.57515 0.0
H2740 H 0.08658 0.74897 0.6506 0.0
H2741 H 0.0519 0.69985 0.60783 0.0
C2742 C 0.03327 0.6922 0.63285 0.0
C2743 C 0.02899 0.69642 0.65276 0.0
C2744 C 0.08854 0.74648 0.63409 0.0
C2745 C 0.06061 0.71855 0.63394 0.0
C2746 C 0.10296 0.75877 0.62318 0.0
C2747 C 0.10572 0.75603 0.60166 0.0
C2748 C 0.07674 0.7313 0.62343 0.0
C2749 C 0.09383 0.74049 0.59176 0.0
C2750 C 0.04903 0.70319 0.62342 0.0
C2751 C 0.04117 0.71153 0.66318 0.0
N2752 N 0.07982 0.72878 0.60268 0.0
N2753 N 0.05638 0.72212 0.65357 0.0
H2754 H 0.01024 0.64702 0.70535 0.0
H2755 H 0.98083 0.55786 0.76666 0.0
H2756 H 0.9578 0.60589 0.71012 0.0
H2757 H 0.03368 0.59265 0.75066 0.0
H2758 H 0.97265 0.57724 0.74923 0.0
H2759 H 0.01955 0.62907 0.72499 0.0
C2760 C 0.00069 0.63428 0.71055 0.0
C2761 C 0.9832 0.62795 0.70599 0.0
C2762 C 0.98605 0.58067 0.74948 0.0
C2763 C 0.99376 0.60748 0.72849 0.0
C2764 C 0.99073 0.56955 0.75935 0.0
C2765 C 0.00794 0.57349 0.75983 0.0
C2766 C 0.99866 0.59596 0.74003 0.0
C2767 C 0.02026 0.58911 0.75067 0.0
C2768 C 0.00603 0.62405 0.7217 0.0
C2769 C 0.97142 0.61133 0.7131 0.0
N2770 N 0.01538 0.59977 0.74104 0.0
N2771 N 0.97691 0.60173 0.72398 0.0
H2772 H 0.35424 0.36518 0.70195 0.0
H2773 H 0.44269 0.42359 0.76484 0.0
H2774 H 0.39634 0.35457 0.70566 0.0
H2775 H 0.40672 0.44139 0.75072 0.0
H2776 H 0.42398 0.39675 0.74621 0.0
H2777 H 0.37156 0.39184 0.7225 0.0
C2778 C 0.36706 0.3684 0.70708 0.0
C2779 C 0.37383 0.35759 0.70199 0.0
C2780 C 0.42014 0.4065 0.74712 0.0
C2781 C 0.39358 0.38793 0.72555 0.0
C2782 C 0.43087 0.42189 0.7577 0.0
C2783 C 0.42643 0.43491 0.75905 0.0
C2784 C 0.40471 0.40394 0.73782 0.0
C2785 C 0.41066 0.4317 0.75006 0.0
C2786 C 0.37693 0.38362 0.71877 0.0
C2787 C 0.39055 0.36247 0.70905 0.0
N2788 N 0.40038 0.41655 0.73971 0.0
N2789 N 0.39978 0.3772 0.72046 0.0
H2790 H 0.64356 0.99741 0.73588 0.0
H2791 H 0.55024 0.98774 0.72415 0.0
H2792 H 0.62591 0.00951 0.67683 0.0
H2793 H 0.57667 0.995 0.78494 0.0
H2794 H 0.57568 0.99076 0.70554 0.0
H2795 H 0.61667 0.99115 0.75299 0.0
C2796 C 0.63395 0.99857 0.72642 0.0
C2797 C 0.63703 0.00409 0.70491 0.0
C2798 C 0.57586 0.99166 0.72295 0.0
C2799 C 0.6062 0.99695 0.72447 0.0
C2800 C 0.56136 0.98987 0.73355 0.0
C2801 C 0.56144 0.99124 0.75609 0.0
C2802 C 0.59038 0.99452 0.73502 0.0
C2803 C 0.57618 0.99407 0.76753 0.0
C2804 C 0.61864 0.99508 0.73625 0.0
C2805 C 0.62409 0.00537 0.69347 0.0
N2806 N 0.59003 0.99556 0.75689 0.0
N2807 N 0.60923 0.00185 0.70341 0.0
loop_
_geom_bond_atom_site_label_1
_geom_bond_atom_site_label_2
_geom_bond_distance
_geom_bond_site_symmetry_2
_ccdc_geom_bond_type
Mn0 O5 2.095 1_655 S
Mn0 O15 2.162 . S
Mn0 O16 2.297 1_554 S
Mn0 O24 2.385 1_554 S
Mn0 O25 2.209 1_654 S
Mn0 O26 2.094 . S
Mn1 O6 2.121 . S
Mn1 N8 2.257 1_554 S
Mn1 N17 2.282 . S
Mn1 O25 2.215 1_554 S
Mn1 O27 2.117 . S
C2 O24 1.234 1_455 S
C2 O25 1.283 . S
C3 O15 1.281 1_556 S
C3 O16 1.236 . S
C4 O26 1.251 . S
C4 O27 1.238 1_655 S
O5 Mn0 2.095 1_455 S
O5 C14 1.250 . S
O6 Mn1 2.121 . S
O6 C14 1.258 . S
C7 N8 1.326 . S
C7 C11 1.460 . S
C7 H13 0.929 . S
N8 Mn1 2.257 1_556 S
N8 C7 1.326 . S
N8 C12 1.362 . S
C9 C10 1.258 . S
C9 C12 1.431 . S
C9 C29 1.449 . S
C10 C9 1.258 . S
C10 C11 1.477 . S
C10 H30 0.931 . S
C11 C7 1.460 . S
C11 C10 1.477 . S
C11 H31 0.930 . S
C12 N8 1.362 . S
C12 C9 1.431 . S
C12 C22 1.476 . S
H13 C7 0.929 . S
C14 O5 1.250 . S
C14 O6 1.258 . S
O15 Mn0 2.162 . S
O15 C3 1.281 1_554 S
O16 Mn0 2.297 1_556 S
O16 C3 1.236 . S
N17 Mn1 2.282 . S
N17 C18 1.328 . S
N17 C22 1.318 1_554 S
C18 N17 1.328 . S
C18 C19 1.457 1_554 S
C18 H23 0.929 . S
C19 C18 1.457 1_556 S
C19 C20 1.291 . S
C19 H32 0.932 1_556 S
C20 C19 1.291 . S
C20 C21 1.373 . S
C20 H33 0.929 . S
C21 C20 1.373 . S
C21 C22 1.396 . S
C21 C28 1.403 . S
C22 C12 1.476 . S
C22 N17 1.318 1_556 S
C22 C21 1.396 . S
H23 C18 0.929 . S
O24 Mn0 2.385 1_556 S
O24 C2 1.234 1_655 S
O25 Mn0 2.209 1_456 S
O25 Mn1 2.215 1_556 S
O25 C2 1.283 . S
O26 Mn0 2.094 . S
O26 C4 1.251 . S
O27 Mn1 2.117 . S
O27 C4 1.238 1_455 S
C28 C21 1.403 . S
C28 C29 1.399 . S
C28 H34 0.929 . S
C29 C9 1.449 . S
C29 C28 1.399 . S
C29 H35 0.930 . S
H30 C10 0.931 . S
H31 C11 0.930 . S
H32 C19 0.932 1_554 S
H33 C20 0.929 . S
H34 C28 0.929 . S
H35 C29 0.930 . S
Mn36 O41 2.095 1_554 S
Mn36 O51 2.162 . S
Mn36 O52 2.297 . S
Mn36 O60 2.385 . S
Mn36 O61 2.209 . S
Mn36 O62 2.094 1_554 S
Mn37 O42 2.121 . S
Mn37 N44 2.257 1_556 S
Mn37 N53 2.282 1_556 S
Mn37 O61 2.215 1_556 S
Mn37 O63 2.117 . S
C38 O60 1.234 . S
C38 O61 1.283 . S
C39 O51 1.281 . S
C39 O52 1.236 . S
C40 O62 1.240 . S
C40 O63 1.264 . S
O41 Mn36 2.095 1_556 S
O41 C50 1.250 . S
O42 Mn37 2.121 . S
O42 C50 1.258 . S
C43 N44 1.326 . S
C43 C47 1.460 . S
C43 H49 0.929 . S
N44 Mn37 2.257 1_554 S
N44 C43 1.326 . S
N44 C48 1.362 . S
C45 C46 1.258 . S
C45 C48 1.431 . S
C45 C65 1.449 . S
C46 C45 1.258 . S
C46 C47 1.477 . S
C46 H66 0.931 . S
C47 C43 1.460 . S
C47 C46 1.477 . S
C47 H67 0.930 . S
C48 N44 1.362 . S
C48 C45 1.431 . S
C48 C58 1.476 . S
H49 C43 0.929 . S
C50 O41 1.250 . S
C50 O42 1.258 . S
O51 Mn36 2.162 . S
O51 C39 1.281 . S
O52 Mn36 2.297 . S
O52 C39 1.236 . S
N53 Mn37 2.282 1_554 S
N53 C54 1.328 . S
N53 C58 1.318 . S
C54 N53 1.328 . S
C54 C55 1.457 . S
C54 H59 0.917 1_554 S
C55 C54 1.457 . S
C55 C56 1.291 . S
C55 H68 0.931 . S
C56 C55 1.291 . S
C56 C57 1.373 . S
C56 H69 0.929 . S
C57 C56 1.373 . S
C57 C58 1.396 . S
C57 C64 1.403 . S
C58 C48 1.476 . S
C58 N53 1.318 . S
C58 C57 1.396 . S
H59 C54 0.917 1_556 S
O60 Mn36 2.385 . S
O60 C38 1.234 . S
O61 Mn36 2.209 . S
O61 Mn37 2.215 1_554 S
O61 C38 1.283 . S
O62 Mn36 2.094 1_556 S
O62 C40 1.240 . S
O63 Mn37 2.117 . S
O63 C40 1.264 . S
C64 C57 1.403 . S
C64 C65 1.399 . S
C64 H70 0.929 . S
C65 C45 1.449 . S
C65 C64 1.399 . S
C65 H71 0.930 . S
H66 C46 0.931 . S
H67 C47 0.930 . S
H68 C55 0.931 . S
H69 C56 0.929 . S
H70 C64 0.929 . S
H71 C65 0.930 . S
Mn72 O77 2.095 1_564 S
Mn72 O87 2.162 . S
Mn72 O88 2.297 . S
Mn72 O96 2.385 . S
Mn72 O97 2.209 1_565 S
Mn72 O98 2.094 1_554 S
Mn73 O78 2.121 1_554 S
Mn73 N80 2.257 . S
Mn73 N89 2.282 . S
Mn73 O97 2.215 . S
Mn73 O99 2.117 1_554 S
C74 O96 1.234 1_545 S
C74 O97 1.283 . S
C75 O87 1.281 . S
C75 O88 1.236 . S
C76 O98 1.240 . S
C76 O99 1.264 1_565 S
O77 Mn72 2.095 1_546 S
O77 C86 1.250 . S
O78 Mn73 2.121 1_556 S
O78 C86 1.258 . S
C79 N80 1.326 . S
C79 C83 1.460 . S
C79 H85 0.929 . S
N80 Mn73 2.257 . S
N80 C79 1.326 . S
N80 C84 1.362 . S
C81 C82 1.258 . S
C81 C84 1.431 . S
C81 C101 1.449 . S
C82 C81 1.258 . S
C82 C83 1.477 . S
C82 H102 0.931 . S
C83 C79 1.460 . S
C83 C82 1.477 . S
C83 H103 0.930 . S
C84 N80 1.362 . S
C84 C81 1.431 . S
C84 C94 1.476 . S
H85 C79 0.929 . S
C86 O77 1.250 . S
C86 O78 1.258 . S
O87 Mn72 2.162 . S
O87 C75 1.281 . S
O88 Mn72 2.297 . S
O88 C75 1.236 . S
N89 Mn73 2.282 . S
N89 C90 1.328 . S
N89 C94 1.318 . S
C90 N89 1.328 . S
C90 C91 1.457 . S
C90 H95 0.929 . S
C91 C90 1.457 . S
C91 C92 1.291 . S
C91 H104 0.931 . S
C92 C91 1.291 . S
C92 C93 1.373 . S
C92 H105 0.929 . S
C93 C92 1.373 . S
C93 C94 1.396 . S
C93 C100 1.403 . S
C94 C84 1.476 . S
C94 N89 1.318 . S
C94 C93 1.396 . S
H95 C90 0.929 . S
O96 Mn72 2.385 . S
O96 C74 1.234 1_565 S
O97 Mn72 2.209 1_545 S
O97 Mn73 2.215 . S
O97 C74 1.283 . S
O98 Mn72 2.094 1_556 S
O98 C76 1.240 . S
O99 Mn73 2.117 1_556 S
O99 C76 1.264 1_545 S
C100 C93 1.403 . S
C100 C101 1.399 . S
C100 H106 0.929 . S
C101 C81 1.449 . S
C101 C100 1.399 . S
C101 H107 0.930 . S
H102 C82 0.931 . S
H103 C83 0.930 . S
H104 C91 0.931 . S
H105 C92 0.929 . S
H106 C100 0.929 . S
H107 C101 0.930 . S
Mn108 O113 2.095 1_655 S
Mn108 O123 2.162 . S
Mn108 O124 2.297 1_554 S
Mn108 O132 2.385 1_554 S
Mn108 O133 2.209 1_654 S
Mn108 O134 2.094 . S
Mn109 O114 2.121 . S
Mn109 N116 2.257 1_554 S
Mn109 N125 2.282 . S
Mn109 O133 2.215 1_554 S
Mn109 O135 2.117 . S
C110 O132 1.234 1_455 S
C110 O133 1.283 . S
C111 O123 1.281 1_556 S
C111 O124 1.236 . S
C112 O134 1.240 . S
C112 O135 1.264 1_655 S
O113 Mn108 2.095 1_455 S
O113 C122 1.250 . S
O114 Mn109 2.121 . S
O114 C122 1.258 . S
C115 N116 1.326 . S
C115 C119 1.460 . S
C115 H121 0.929 . S
N116 Mn109 2.257 1_556 S
N116 C115 1.326 . S
N116 C120 1.362 . S
C117 C118 1.258 . S
C117 C120 1.431 . S
C117 C137 1.449 . S
C118 C117 1.258 . S
C118 C119 1.477 . S
C118 H138 0.931 . S
C119 C115 1.460 . S
C119 C118 1.477 . S
C119 H139 0.930 . S
C120 N116 1.362 . S
C120 C117 1.431 . S
C120 C130 1.476 . S
H121 C115 0.929 . S
C122 O113 1.250 . S
C122 O114 1.258 . S
O123 Mn108 2.162 . S
O123 C111 1.281 1_554 S
O124 Mn108 2.297 1_556 S
O124 C111 1.236 . S
N125 Mn109 2.282 . S
N125 C126 1.328 . S
N125 C130 1.318 1_554 S
C126 N125 1.328 . S
C126 C127 1.457 1_554 S
C126 H131 0.929 . S
C127 C126 1.457 1_556 S
C127 C128 1.291 . S
C127 H140 0.930 1_556 S
C128 C127 1.291 . S
C128 C129 1.373 . S
C128 H141 0.929 . S
C129 C128 1.373 . S
C129 C130 1.396 . S
C129 C136 1.403 . S
C130 C120 1.476 . S
C130 N125 1.318 1_556 S
C130 C129 1.396 . S
H131 C126 0.929 . S
O132 Mn108 2.385 1_556 S
O132 C110 1.234 1_655 S
O133 Mn108 2.209 1_456 S
O133 Mn109 2.215 1_556 S
O133 C110 1.283 . S
O134 Mn108 2.094 . S
O134 C112 1.240 . S
O135 Mn109 2.117 . S
O135 C112 1.264 1_455 S
C136 C129 1.403 . S
C136 C137 1.399 . S
C136 H142 0.929 . S
C137 C117 1.449 . S
C137 C136 1.399 . S
C137 H143 0.930 . S
H138 C118 0.931 . S
H139 C119 0.930 . S
H140 C127 0.930 1_554 S
H141 C128 0.929 . S
H142 C136 0.929 . S
H143 C137 0.930 . S
Mn144 O149 2.095 1_554 S
Mn144 O159 2.162 . S
Mn144 O160 2.297 . S
Mn144 O168 2.385 . S
Mn144 O169 2.209 . S
Mn144 O170 2.094 1_554 S
Mn145 O150 2.121 1_554 S
Mn145 N152 2.256 . S
Mn145 N161 2.282 . S
Mn145 O169 2.214 . S
Mn145 O171 2.118 1_554 S
C146 O168 1.234 . S
C146 O169 1.283 . S
C147 O159 1.281 . S
C147 O160 1.236 . S
C148 O170 1.240 . S
C148 O171 1.264 . S
O149 Mn144 2.095 1_556 S
O149 C158 1.250 . S
O150 Mn145 2.121 1_556 S
O150 C158 1.258 . S
C151 N152 1.326 . S
C151 C155 1.460 . S
C151 H157 0.929 . S
N152 Mn145 2.256 . S
N152 C151 1.326 . S
N152 C156 1.362 . S
C153 C154 1.258 . S
C153 C156 1.431 . S
C153 C173 1.449 . S
C154 C153 1.258 . S
C154 C155 1.477 . S
C154 H174 0.931 . S
C155 C151 1.460 . S
C155 C154 1.477 . S
C155 H175 0.930 . S
C156 N152 1.362 . S
C156 C153 1.431 . S
C156 C166 1.476 . S
H157 C151 0.929 . S
C158 O149 1.250 . S
C158 O150 1.258 . S
O159 Mn144 2.162 . S
O159 C147 1.281 . S
O160 Mn144 2.297 . S
O160 C147 1.236 . S
N161 Mn145 2.282 . S
N161 C162 1.328 . S
N161 C166 1.318 . S
C162 N161 1.328 . S
C162 C163 1.457 . S
C162 H167 0.959 . S
C163 C162 1.457 . S
C163 C164 1.291 . S
C163 H176 0.931 . S
C164 C163 1.291 . S
C164 C165 1.373 . S
C164 H177 0.929 . S
C165 C164 1.373 . S
C165 C166 1.396 . S
C165 C172 1.403 . S
C166 C156 1.476 . S
C166 N161 1.318 . S
C166 C165 1.396 . S
H167 C162 0.959 . S
O168 Mn144 2.385 . S
O168 C146 1.234 . S
O169 Mn144 2.209 . S
O169 Mn145 2.214 . S
O169 C146 1.283 . S
O170 Mn144 2.094 1_556 S
O170 C148 1.240 . S
O171 Mn145 2.118 1_556 S
O171 C148 1.264 . S
C172 C165 1.403 . S
C172 C173 1.399 . S
C172 H178 0.929 . S
C173 C153 1.449 . S
C173 C172 1.399 . S
C173 H179 0.930 . S
H174 C154 0.931 . S
H175 C155 0.930 . S
H176 C163 0.931 . S
H177 C164 0.929 . S
H178 C172 0.929 . S
H179 C173 0.930 . S
Mn180 O185 2.095 1_545 S
Mn180 O195 2.162 . S
Mn180 O196 2.297 1_554 S
Mn180 O204 2.385 1_554 S
Mn180 O205 2.209 1_544 S
Mn180 O206 2.094 . S
Mn181 O186 2.121 . S
Mn181 N188 2.257 1_554 S
Mn181 N197 2.282 . S
Mn181 O205 2.215 1_554 S
Mn181 O207 2.117 . S
C182 O204 1.213 1_565 S
C182 O205 1.303 . S
C183 O195 1.281 1_556 S
C183 O196 1.236 . S
C184 O206 1.240 . S
C184 O207 1.264 1_545 S
O185 Mn180 2.095 1_565 S
O185 C194 1.250 . S
O186 Mn181 2.121 . S
O186 C194 1.258 . S
C187 N188 1.326 . S
C187 C191 1.460 . S
C187 H193 0.929 . S
N188 Mn181 2.257 1_556 S
N188 C187 1.326 . S
N188 C192 1.362 . S
C189 C190 1.258 . S
C189 C192 1.431 . S
C189 C209 1.449 . S
C190 C189 1.258 . S
C190 C191 1.477 . S
C190 H210 0.931 . S
C191 C187 1.460 . S
C191 C190 1.477 . S
C191 H211 0.930 . S
C192 N188 1.362 . S
C192 C189 1.431 . S
C192 C202 1.476 . S
H193 C187 0.929 . S
C194 O185 1.250 . S
C194 O186 1.258 . S
O195 Mn180 2.162 . S
O195 C183 1.281 1_554 S
O196 Mn180 2.297 1_556 S
O196 C183 1.236 . S
N197 Mn181 2.282 . S
N197 C198 1.328 . S
N197 C202 1.318 1_554 S
C198 N197 1.328 . S
C198 C199 1.457 1_554 S
C198 H203 0.929 . S
C199 C198 1.457 1_556 S
C199 C200 1.291 . S
C199 H212 0.931 . S
C200 C199 1.291 . S
C200 C201 1.373 . S
C200 H213 0.929 . S
C201 C200 1.373 . S
C201 C202 1.396 . S
C201 C208 1.403 . S
C202 C192 1.476 . S
C202 N197 1.318 1_556 S
C202 C201 1.396 . S
H203 C198 0.929 . S
O204 Mn180 2.385 1_556 S
O204 C182 1.213 1_545 S
O205 Mn180 2.209 1_566 S
O205 Mn181 2.215 1_556 S
O205 C182 1.303 . S
O206 Mn180 2.094 . S
O206 C184 1.240 . S
O207 Mn181 2.117 . S
O207 C184 1.264 1_565 S
C208 C201 1.403 . S
C208 C209 1.399 . S
C208 H214 0.929 . S
C209 C189 1.449 . S
C209 C208 1.399 . S
C209 H215 0.930 . S
H210 C190 0.931 . S
H211 C191 0.930 . S
H212 C199 0.931 . S
H213 C200 0.929 . S
H214 C208 0.929 . S
H215 C209 0.930 . S
Mn216 O221 2.095 . S
Mn216 O231 2.162 . S
Mn216 O232 2.297 . S
Mn216 O240 2.385 . S
Mn216 O241 2.209 . S
Mn216 O242 2.094 . S
Mn217 O222 2.121 . S
Mn217 N224 2.257 . S
Mn217 N233 2.282 . S
Mn217 O241 2.215 . S
Mn217 O243 2.117 . S
C218 O240 1.234 . S
C218 O241 1.283 . S
C219 O231 1.281 . S
C219 O232 1.236 . S
C220 O242 1.240 . S
C220 O243 1.264 . S
O221 Mn216 2.095 . S
O221 C230 1.250 . S
O222 Mn217 2.121 . S
O222 C230 1.258 . S
C223 N224 1.326 . S
C223 C227 1.460 . S
C223 H229 0.929 . S
N224 Mn217 2.257 . S
N224 C223 1.326 . S
N224 C228 1.362 . S
C225 C226 1.258 . S
C225 C228 1.431 . S
C225 C245 1.449 . S
C226 C225 1.258 . S
C226 C227 1.477 . S
C226 H246 0.931 . S
C227 C223 1.460 . S
C227 C226 1.477 . S
C227 H247 0.930 . S
C228 N224 1.362 . S
C228 C225 1.431 . S
C228 C238 1.476 . S
H229 C223 0.929 . S
C230 O221 1.250 . S
C230 O222 1.258 . S
O231 Mn216 2.162 . S
O231 C219 1.281 . S
O232 Mn216 2.297 . S
O232 C219 1.236 . S
N233 Mn217 2.282 . S
N233 C234 1.328 . S
N233 C238 1.318 . S
C234 N233 1.328 . S
C234 C235 1.457 . S
C234 H239 0.929 . S
C235 C234 1.457 . S
C235 C236 1.291 . S
C235 H248 0.931 . S
C236 C235 1.291 . S
C236 C237 1.373 . S
C236 H249 0.929 . S
C237 C236 1.373 . S
C237 C238 1.396 . S
C237 C244 1.403 . S
C238 C228 1.476 . S
C238 N233 1.318 . S
C238 C237 1.396 . S
H239 C234 0.929 . S
O240 Mn216 2.385 . S
O240 C218 1.234 . S
O241 Mn216 2.209 . S
O241 Mn217 2.215 . S
O241 C218 1.283 . S
O242 Mn216 2.094 . S
O242 C220 1.240 . S
O243 Mn217 2.117 . S
O243 C220 1.264 . S
C244 C237 1.403 . S
C244 C245 1.399 . S
C244 H250 0.929 . S
C245 C225 1.449 . S
C245 C244 1.399 . S
C245 H251 0.930 . S
H246 C226 0.931 . S
H247 C227 0.930 . S
H248 C235 0.931 . S
H249 C236 0.929 . S
H250 C244 0.929 . S
H251 C245 0.930 . S
Mn252 O257 2.095 . S
Mn252 O267 2.162 1_565 S
Mn252 O268 2.297 1_565 S
Mn252 O276 2.385 . S
Mn252 O277 2.209 . S
Mn252 O278 2.094 . S
Mn253 O258 2.121 . S
Mn253 N260 2.257 . S
Mn253 N269 2.282 . S
Mn253 O277 2.215 . S
Mn253 O279 2.117 . S
C254 O276 1.234 . S
C254 O277 1.283 . S
C255 O267 1.281 . S
C255 O268 1.236 . S
C256 O278 1.240 . S
C256 O279 1.264 . S
O257 Mn252 2.095 . S
O257 C266 1.250 . S
O258 Mn253 2.121 . S
O258 C266 1.258 . S
C259 N260 1.326 . S
C259 C263 1.460 . S
C259 H265 0.929 . S
N260 Mn253 2.257 . S
N260 C259 1.326 . S
N260 C264 1.362 . S
C261 C262 1.258 . S
C261 C264 1.431 . S
C261 C281 1.449 . S
C262 C261 1.258 . S
C262 C263 1.477 . S
C262 H282 0.931 . S
C263 C259 1.460 . S
C263 C262 1.477 . S
C263 H283 0.930 . S
C264 N260 1.362 . S
C264 C261 1.431 . S
C264 C274 1.476 . S
H265 C259 0.929 . S
C266 O257 1.250 . S
C266 O258 1.258 . S
O267 Mn252 2.162 1_545 S
O267 C255 1.281 . S
O268 Mn252 2.297 1_545 S
O268 C255 1.236 . S
N269 Mn253 2.282 . S
N269 C270 1.328 . S
N269 C274 1.318 . S
C270 N269 1.328 . S
C270 C271 1.457 . S
C270 H275 0.929 . S
C271 C270 1.457 . S
C271 C272 1.291 . S
C271 H284 0.931 . S
C272 C271 1.291 . S
C272 C273 1.373 . S
C272 H285 0.929 . S
C273 C272 1.373 . S
C273 C274 1.396 . S
C273 C280 1.403 . S
C274 C264 1.476 . S
C274 N269 1.318 . S
C274 C273 1.396 . S
H275 C270 0.929 . S
O276 Mn252 2.385 . S
O276 C254 1.234 . S
O277 Mn252 2.209 . S
O277 Mn253 2.215 . S
O277 C254 1.283 . S
O278 Mn252 2.094 . S
O278 C256 1.240 . S
O279 Mn253 2.117 . S
O279 C256 1.264 . S
C280 C273 1.403 . S
C280 C281 1.399 . S
C280 H286 0.929 . S
C281 C261 1.449 . S
C281 C280 1.399 . S
C281 H287 0.930 . S
H282 C262 0.931 . S
H283 C263 0.930 . S
H284 C271 0.931 . S
H285 C272 0.929 . S
H286 C280 0.929 . S
H287 C281 0.930 . S
Mn288 O293 2.095 . S
Mn288 O303 2.162 1_455 S
Mn288 O304 2.297 1_455 S
Mn288 O312 2.385 . S
Mn288 O313 2.209 . S
Mn288 O314 2.094 . S
Mn289 O294 2.121 . S
Mn289 N296 2.257 . S
Mn289 N305 2.282 . S
Mn289 O313 2.215 . S
Mn289 O315 2.117 . S
C290 O312 1.234 . S
C290 O313 1.283 . S
C291 O303 1.281 . S
C291 O304 1.236 . S
C292 O314 1.240 . S
C292 O315 1.264 . S
O293 Mn288 2.095 . S
O293 C302 1.250 . S
O294 Mn289 2.121 . S
O294 C302 1.258 . S
C295 N296 1.326 . S
C295 C299 1.460 . S
C295 H301 0.929 . S
N296 Mn289 2.257 . S
N296 C295 1.326 . S
N296 C300 1.362 . S
C297 C298 1.258 . S
C297 C300 1.431 . S
C297 C317 1.449 . S
C298 C297 1.258 . S
C298 C299 1.477 . S
C298 H318 0.931 . S
C299 C295 1.460 . S
C299 C298 1.477 . S
C299 H319 0.930 . S
C300 N296 1.362 . S
C300 C297 1.431 . S
C300 C310 1.476 . S
H301 C295 0.929 . S
C302 O293 1.250 . S
C302 O294 1.258 . S
O303 Mn288 2.162 1_655 S
O303 C291 1.281 . S
O304 Mn288 2.297 1_655 S
O304 C291 1.236 . S
N305 Mn289 2.282 . S
N305 C306 1.328 . S
N305 C310 1.318 . S
C306 N305 1.328 . S
C306 C307 1.457 . S
C306 H311 0.929 . S
C307 C306 1.457 . S
C307 C308 1.291 . S
C307 H320 0.931 . S
C308 C307 1.291 . S
C308 C309 1.373 . S
C308 H321 0.929 . S
C309 C308 1.373 . S
C309 C310 1.396 . S
C309 C316 1.403 . S
C310 C300 1.476 . S
C310 N305 1.318 . S
C310 C309 1.396 . S
H311 C306 0.929 . S
O312 Mn288 2.385 . S
O312 C290 1.234 . S
O313 Mn288 2.209 . S
O313 Mn289 2.215 . S
O313 C290 1.283 . S
O314 Mn288 2.094 . S
O314 C292 1.240 . S
O315 Mn289 2.117 . S
O315 C292 1.264 . S
C316 C309 1.403 . S
C316 C317 1.399 . S
C316 H322 0.929 . S
C317 C297 1.449 . S
C317 C316 1.399 . S
C317 H323 0.930 . S
H318 C298 0.931 . S
H319 C299 0.930 . S
H320 C307 0.931 . S
H321 C308 0.929 . S
H322 C316 0.929 . S
H323 C317 0.930 . S
Mn324 O329 2.103 . S
Mn324 O339 2.162 . S
Mn324 O340 2.297 . S
Mn324 O348 2.385 . S
Mn324 O349 2.209 . S
Mn324 O350 2.094 . S
Mn325 O330 2.121 1_565 S
Mn325 N332 2.257 . S
Mn325 N341 2.282 . S
Mn325 O349 2.215 . S
Mn325 O351 2.117 . S
C326 O348 1.234 . S
C326 O349 1.283 . S
C327 O339 1.281 . S
C327 O340 1.236 . S
C328 O350 1.240 . S
C328 O351 1.264 . S
O329 Mn324 2.103 . S
O329 C338 1.247 1_565 S
O330 Mn325 2.121 1_545 S
O330 C338 1.258 . S
C331 N332 1.326 1_545 S
C331 C335 1.460 . S
C331 H337 0.929 . S
N332 Mn325 2.257 . S
N332 C331 1.326 1_565 S
N332 C336 1.362 . S
C333 C334 1.294 . S
C333 C336 1.431 . S
C333 C353 1.449 . S
C334 C333 1.294 . S
C334 C335 1.431 1_565 S
C334 H354 0.942 1_565 S
C335 C331 1.460 . S
C335 C334 1.431 1_545 S
C335 H355 0.930 . S
C336 N332 1.362 . S
C336 C333 1.431 . S
C336 C346 1.476 . S
H337 C331 0.929 . S
C338 O329 1.247 1_545 S
C338 O330 1.258 . S
O339 Mn324 2.162 . S
O339 C327 1.281 . S
O340 Mn324 2.297 . S
O340 C327 1.236 . S
N341 Mn325 2.282 . S
N341 C342 1.328 . S
N341 C346 1.318 . S
C342 N341 1.328 . S
C342 C343 1.457 . S
C342 H347 0.929 . S
C343 C342 1.457 . S
C343 C344 1.291 . S
C343 H356 0.931 . S
C344 C343 1.291 . S
C344 C345 1.373 . S
C344 H357 0.929 . S
C345 C344 1.373 . S
C345 C346 1.396 . S
C345 C352 1.403 . S
C346 C336 1.476 . S
C346 N341 1.318 . S
C346 C345 1.396 . S
H347 C342 0.929 . S
O348 Mn324 2.385 . S
O348 C326 1.234 . S
O349 Mn324 2.209 . S
O349 Mn325 2.215 . S
O349 C326 1.283 . S
O350 Mn324 2.094 . S
O350 C328 1.240 . S
O351 Mn325 2.117 . S
O351 C328 1.264 . S
C352 C345 1.403 . S
C352 C353 1.399 . S
C352 H358 0.929 . S
C353 C333 1.449 . S
C353 C352 1.399 . S
C353 H359 0.930 . S
H354 C334 0.942 1_545 S
H355 C335 0.930 . S
H356 C343 0.931 . S
H357 C344 0.929 . S
H358 C352 0.929 . S
H359 C353 0.930 . S
Mn360 O365 2.095 . S
Mn360 O375 2.162 1_455 S
Mn360 O376 2.297 1_455 S
Mn360 O384 2.385 . S
Mn360 O385 2.209 . S
Mn360 O386 2.094 . S
Mn361 O366 2.121 . S
Mn361 N368 2.257 . S
Mn361 N377 2.282 . S
Mn361 O385 2.215 . S
Mn361 O387 2.117 . S
C362 O384 1.234 . S
C362 O385 1.283 . S
C363 O375 1.281 . S
C363 O376 1.236 . S
C364 O386 1.240 . S
C364 O387 1.264 . S
O365 Mn360 2.095 . S
O365 C374 1.250 . S
O366 Mn361 2.121 . S
O366 C374 1.258 . S
C367 N368 1.326 . S
C367 C371 1.460 . S
C367 H373 0.929 . S
N368 Mn361 2.257 . S
N368 C367 1.326 . S
N368 C372 1.362 . S
C369 C370 1.258 . S
C369 C372 1.431 . S
C369 C389 1.449 . S
C370 C369 1.258 . S
C370 C371 1.477 . S
C370 H390 0.931 . S
C371 C367 1.460 . S
C371 C370 1.477 . S
C371 H391 0.930 . S
C372 N368 1.362 . S
C372 C369 1.431 . S
C372 C382 1.476 . S
H373 C367 0.929 . S
C374 O365 1.250 . S
C374 O366 1.258 . S
O375 Mn360 2.162 1_655 S
O375 C363 1.281 . S
O376 Mn360 2.297 1_655 S
O376 C363 1.236 . S
N377 Mn361 2.282 . S
N377 C378 1.328 . S
N377 C382 1.318 . S
C378 N377 1.328 . S
C378 C379 1.457 . S
C378 H383 0.929 . S
C379 C378 1.457 . S
C379 C380 1.291 . S
C379 H392 0.931 . S
C380 C379 1.291 . S
C380 C381 1.373 . S
C380 H393 0.929 . S
C381 C380 1.373 . S
C381 C382 1.396 . S
C381 C388 1.403 . S
C382 C372 1.476 . S
C382 N377 1.318 . S
C382 C381 1.396 . S
H383 C378 0.929 . S
O384 Mn360 2.385 . S
O384 C362 1.234 . S
O385 Mn360 2.209 . S
O385 Mn361 2.215 . S
O385 C362 1.283 . S
O386 Mn360 2.094 . S
O386 C364 1.240 . S
O387 Mn361 2.117 . S
O387 C364 1.264 . S
C388 C381 1.403 . S
C388 C389 1.399 . S
C388 H394 0.929 . S
C389 C369 1.449 . S
C389 C388 1.399 . S
C389 H395 0.930 . S
H390 C370 0.931 . S
H391 C371 0.930 . S
H392 C379 0.931 . S
H393 C380 0.929 . S
H394 C388 0.929 . S
H395 C389 0.930 . S
Mn396 O401 2.095 . S
Mn396 O411 2.162 . S
Mn396 O412 2.297 . S
Mn396 O420 2.385 . S
Mn396 O421 2.209 . S
Mn396 O422 2.094 . S
Mn397 O402 2.121 . S
Mn397 N404 2.257 . S
Mn397 N413 2.282 . S
Mn397 O421 2.215 . S
Mn397 O423 2.117 . S
C398 O420 1.234 . S
C398 O421 1.283 . S
C399 O411 1.281 . S
C399 O412 1.236 . S
C400 O422 1.240 . S
C400 O423 1.264 . S
O401 Mn396 2.095 . S
O401 C410 1.250 . S
O402 Mn397 2.121 . S
O402 C410 1.258 . S
C403 N404 1.326 . S
C403 C407 1.460 . S
C403 H409 0.929 . S
N404 Mn397 2.257 . S
N404 C403 1.326 . S
N404 C408 1.362 . S
C405 C406 1.258 . S
C405 C408 1.431 . S
C405 C425 1.449 . S
C406 C405 1.258 . S
C406 C407 1.477 . S
C406 H426 0.931 . S
C407 C403 1.460 . S
C407 C406 1.477 . S
C407 H427 0.930 . S
C408 N404 1.362 . S
C408 C405 1.431 . S
C408 C418 1.476 . S
H409 C403 0.929 . S
C410 O401 1.250 . S
C410 O402 1.258 . S
O411 Mn396 2.162 . S
O411 C399 1.281 . S
O412 Mn396 2.297 . S
O412 C399 1.236 . S
N413 Mn397 2.282 . S
N413 C414 1.328 . S
N413 C418 1.318 . S
C414 N413 1.328 . S
C414 C415 1.457 . S
C414 H419 0.929 . S
C415 C414 1.457 . S
C415 C416 1.291 . S
C415 H428 0.931 . S
C416 C415 1.291 . S
C416 C417 1.373 . S
C416 H429 0.929 . S
C417 C416 1.373 . S
C417 C418 1.396 . S
C417 C424 1.403 . S
C418 C408 1.476 . S
C418 N413 1.318 . S
C418 C417 1.396 . S
H419 C414 0.929 . S
O420 Mn396 2.385 . S
O420 C398 1.234 . S
O421 Mn396 2.209 . S
O421 Mn397 2.215 . S
O421 C398 1.283 . S
O422 Mn396 2.094 . S
O422 C400 1.240 . S
O423 Mn397 2.117 . S
O423 C400 1.264 . S
C424 C417 1.403 . S
C424 C425 1.399 . S
C424 H430 0.929 . S
C425 C405 1.449 . S
C425 C424 1.399 . S
C425 H431 0.930 . S
H426 C406 0.931 . S
H427 C407 0.930 . S
H428 C415 0.931 . S
H429 C416 0.929 . S
H430 C424 0.929 . S
H431 C425 0.930 . S
Mn432 O437 2.095 . S
Mn432 O447 2.162 1_545 S
Mn432 O448 2.297 1_545 S
Mn432 O456 2.385 . S
Mn432 O457 2.209 . S
Mn432 O458 2.094 . S
Mn433 O438 2.121 . S
Mn433 N440 2.257 . S
Mn433 N449 2.282 . S
Mn433 O457 2.215 . S
Mn433 O459 2.117 . S
C434 O456 1.234 . S
C434 O457 1.283 . S
C435 O447 1.281 . S
C435 O448 1.236 . S
C436 O458 1.240 . S
C436 O459 1.264 . S
O437 Mn432 2.095 . S
O437 C446 1.250 . S
O438 Mn433 2.121 . S
O438 C446 1.258 . S
C439 N440 1.326 . S
C439 C443 1.460 . S
C439 H445 0.929 . S
N440 Mn433 2.257 . S
N440 C439 1.326 . S
N440 C444 1.362 . S
C441 C442 1.258 . S
C441 C444 1.431 . S
C441 C461 1.449 . S
C442 C441 1.258 . S
C442 C443 1.477 . S
C442 H462 0.931 . S
C443 C439 1.460 . S
C443 C442 1.477 . S
C443 H463 0.930 . S
C444 N440 1.362 . S
C444 C441 1.431 . S
C444 C454 1.476 . S
H445 C439 0.929 . S
C446 O437 1.250 . S
C446 O438 1.258 . S
O447 Mn432 2.162 1_565 S
O447 C435 1.281 . S
O448 Mn432 2.297 1_565 S
O448 C435 1.236 . S
N449 Mn433 2.282 . S
N449 C450 1.328 . S
N449 C454 1.318 . S
C450 N449 1.328 . S
C450 C451 1.457 . S
C450 H455 0.929 . S
C451 C450 1.457 . S
C451 C452 1.291 . S
C451 H464 0.931 . S
C452 C451 1.291 . S
C452 C453 1.373 . S
C452 H465 0.929 . S
C453 C452 1.373 . S
C453 C454 1.396 . S
C453 C460 1.403 . S
C454 C444 1.476 . S
C454 N449 1.318 . S
C454 C453 1.396 . S
H455 C450 0.929 . S
O456 Mn432 2.385 . S
O456 C434 1.234 . S
O457 Mn432 2.209 . S
O457 Mn433 2.215 . S
O457 C434 1.283 . S
O458 Mn432 2.094 . S
O458 C436 1.240 . S
O459 Mn433 2.117 . S
O459 C436 1.264 . S
C460 C453 1.403 . S
C460 C461 1.399 . S
C460 H466 0.929 . S
C461 C441 1.449 . S
C461 C460 1.399 . S
C461 H467 0.930 . S
H462 C442 0.931 . S
H463 C443 0.930 . S
H464 C451 0.931 . S
H465 C452 0.929 . S
H466 C460 0.929 . S
H467 C461 0.930 . S
Mn468 O473 2.095 . S
Mn468 O483 2.162 . S
Mn468 O484 2.297 . S
Mn468 O492 2.385 . S
Mn468 O493 2.209 . S
Mn468 O494 2.094 . S
Mn469 O474 2.121 1_655 S
Mn469 N476 2.257 . S
Mn469 N485 2.282 . S
Mn469 O493 2.215 . S
Mn469 O495 2.117 . S
C470 O492 1.234 . S
C470 O493 1.283 . S
C471 O483 1.281 . S
C471 O484 1.236 . S
C472 O494 1.240 . S
C472 O495 1.264 . S
O473 Mn468 2.095 . S
O473 C482 1.250 1_655 S
O474 Mn469 2.121 1_455 S
O474 C482 1.258 . S
C475 N476 1.326 1_455 S
C475 C479 1.460 . S
C475 H481 0.929 . S
N476 Mn469 2.257 . S
N476 C475 1.326 1_655 S
N476 C480 1.362 . S
C477 C478 1.324 . S
C477 C480 1.431 . S
C477 C497 1.449 . S
C478 C477 1.324 . S
C478 C479 1.456 1_655 S
C478 H498 0.889 1_655 S
C479 C475 1.460 . S
C479 C478 1.456 1_455 S
C479 H499 0.930 . S
C480 N476 1.362 . S
C480 C477 1.431 . S
C480 C490 1.476 . S
H481 C475 0.929 . S
C482 O473 1.250 1_455 S
C482 O474 1.258 . S
O483 Mn468 2.162 . S
O483 C471 1.281 . S
O484 Mn468 2.297 . S
O484 C471 1.236 . S
N485 Mn469 2.282 . S
N485 C486 1.328 . S
N485 C490 1.318 . S
C486 N485 1.328 . S
C486 C487 1.457 . S
C486 H491 0.929 . S
C487 C486 1.457 . S
C487 C488 1.291 . S
C487 H500 0.931 . S
C488 C487 1.291 . S
C488 C489 1.373 . S
C488 H501 0.929 . S
C489 C488 1.373 . S
C489 C490 1.396 . S
C489 C496 1.403 . S
C490 C480 1.476 . S
C490 N485 1.318 . S
C490 C489 1.396 . S
H491 C486 0.929 . S
O492 Mn468 2.385 . S
O492 C470 1.234 . S
O493 Mn468 2.209 . S
O493 Mn469 2.215 . S
O493 C470 1.283 . S
O494 Mn468 2.094 . S
O494 C472 1.240 . S
O495 Mn469 2.117 . S
O495 C472 1.264 . S
C496 C489 1.403 . S
C496 C497 1.399 . S
C496 H502 0.929 . S
C497 C477 1.449 . S
C497 C496 1.399 . S
C497 H503 0.930 . S
H498 C478 0.889 1_455 S
H499 C479 0.930 . S
H500 C487 0.931 . S
H501 C488 0.929 . S
H502 C496 0.929 . S
H503 C497 0.930 . S
Mn504 O509 2.095 . S
Mn504 O519 2.162 . S
Mn504 O520 2.297 . S
Mn504 O528 2.385 . S
Mn504 O529 2.209 . S
Mn504 O530 2.094 . S
Mn505 O510 2.121 . S
Mn505 N512 2.257 . S
Mn505 N521 2.282 . S
Mn505 O529 2.215 . S
Mn505 O531 2.117 . S
C506 O528 1.234 . S
C506 O529 1.283 . S
C507 O519 1.281 . S
C507 O520 1.236 . S
C508 O530 1.240 . S
C508 O531 1.264 . S
O509 Mn504 2.095 . S
O509 C518 1.250 . S
O510 Mn505 2.121 . S
O510 C518 1.258 . S
C511 N512 1.326 . S
C511 C515 1.460 . S
C511 H517 0.929 . S
N512 Mn505 2.257 . S
N512 C511 1.326 . S
N512 C516 1.362 . S
C513 C514 1.258 . S
C513 C516 1.431 . S
C513 C533 1.449 . S
C514 C513 1.258 . S
C514 C515 1.477 . S
C514 H534 0.931 . S
C515 C511 1.460 . S
C515 C514 1.477 . S
C515 H535 0.930 . S
C516 N512 1.362 . S
C516 C513 1.431 . S
C516 C526 1.476 . S
H517 C511 0.929 . S
C518 O509 1.250 . S
C518 O510 1.258 . S
O519 Mn504 2.162 . S
O519 C507 1.281 . S
O520 Mn504 2.297 . S
O520 C507 1.236 . S
N521 Mn505 2.282 . S
N521 C522 1.328 . S
N521 C526 1.318 . S
C522 N521 1.328 . S
C522 C523 1.457 . S
C522 H527 0.929 . S
C523 C522 1.457 . S
C523 C524 1.291 . S
C523 H536 0.931 . S
C524 C523 1.291 . S
C524 C525 1.373 . S
C524 H537 0.929 . S
C525 C524 1.373 . S
C525 C526 1.396 . S
C525 C532 1.403 . S
C526 C516 1.476 . S
C526 N521 1.318 . S
C526 C525 1.396 . S
H527 C522 0.929 . S
O528 Mn504 2.385 . S
O528 C506 1.234 . S
O529 Mn504 2.209 . S
O529 Mn505 2.215 . S
O529 C506 1.283 . S
O530 Mn504 2.094 . S
O530 C508 1.240 . S
O531 Mn505 2.117 . S
O531 C508 1.264 . S
C532 C525 1.403 . S
C532 C533 1.399 . S
C532 H538 0.929 . S
C533 C513 1.449 . S
C533 C532 1.399 . S
C533 H539 0.930 . S
H534 C514 0.931 . S
H535 C515 0.930 . S
H536 C523 0.931 . S
H537 C524 0.929 . S
H538 C532 0.929 . S
H539 C533 0.930 . S
Mn540 O545 2.095 . S
Mn540 O555 2.162 . S
Mn540 O556 2.297 . S
Mn540 O564 2.385 . S
Mn540 O565 2.209 . S
Mn540 O566 2.094 . S
Mn541 O546 2.121 . S
Mn541 N548 2.257 . S
Mn541 N557 2.282 . S
Mn541 O565 2.215 . S
Mn541 O567 2.117 . S
C542 O564 1.234 . S
C542 O565 1.283 . S
C543 O555 1.281 . S
C543 O556 1.236 . S
C544 O566 1.240 . S
C544 O567 1.264 . S
O545 Mn540 2.095 . S
O545 C554 1.250 . S
O546 Mn541 2.121 . S
O546 C554 1.258 . S
C547 N548 1.326 . S
C547 C551 1.460 . S
C547 H553 0.929 . S
N548 Mn541 2.257 . S
N548 C547 1.326 . S
N548 C552 1.362 . S
C549 C550 1.258 . S
C549 C552 1.431 . S
C549 C569 1.449 . S
C550 C549 1.258 . S
C550 C551 1.477 . S
C550 H570 0.931 . S
C551 C547 1.460 . S
C551 C550 1.477 . S
C551 H571 0.930 . S
C552 N548 1.362 . S
C552 C549 1.431 . S
C552 C562 1.476 . S
H553 C547 0.929 . S
C554 O545 1.250 . S
C554 O546 1.258 . S
O555 Mn540 2.162 . S
O555 C543 1.281 . S
O556 Mn540 2.297 . S
O556 C543 1.236 . S
N557 Mn541 2.282 . S
N557 C558 1.328 . S
N557 C562 1.318 . S
C558 N557 1.328 . S
C558 C559 1.457 . S
C558 H563 0.929 . S
C559 C558 1.457 . S
C559 C560 1.291 . S
C559 H572 0.931 . S
C560 C559 1.291 . S
C560 C561 1.373 . S
C560 H573 0.929 . S
C561 C560 1.373 . S
C561 C562 1.396 . S
C561 C568 1.403 . S
C562 C552 1.476 . S
C562 N557 1.318 . S
C562 C561 1.396 . S
H563 C558 0.929 . S
O564 Mn540 2.385 . S
O564 C542 1.234 . S
O565 Mn540 2.209 . S
O565 Mn541 2.215 . S
O565 C542 1.283 . S
O566 Mn540 2.094 . S
O566 C544 1.240 . S
O567 Mn541 2.117 . S
O567 C544 1.264 . S
C568 C561 1.403 . S
C568 C569 1.399 . S
C568 H574 0.929 . S
C569 C549 1.449 . S
C569 C568 1.399 . S
C569 H575 0.930 . S
H570 C550 0.931 . S
H571 C551 0.930 . S
H572 C559 0.931 . S
H573 C560 0.929 . S
H574 C568 0.929 . S
H575 C569 0.930 . S
Mn576 O581 2.069 1_545 S
Mn576 O591 2.162 . S
Mn576 O592 2.297 . S
Mn576 O600 2.385 . S
Mn576 O601 2.209 . S
Mn576 O602 2.094 . S
Mn577 O582 2.121 1_545 S
Mn577 N584 2.257 . S
Mn577 N593 2.282 . S
Mn577 O601 2.215 . S
Mn577 O603 2.117 . S
C578 O600 1.234 . S
C578 O601 1.283 . S
C579 O591 1.281 . S
C579 O592 1.236 . S
C580 O602 1.240 . S
C580 O603 1.264 . S
O581 Mn576 2.069 1_565 S
O581 C590 1.281 . S
O582 Mn577 2.121 1_565 S
O582 C590 1.258 . S
C583 N584 1.326 1_565 S
C583 C587 1.460 . S
C583 H589 0.929 . S
N584 Mn577 2.257 . S
N584 C583 1.326 1_545 S
N584 C588 1.362 . S
C585 C586 1.234 1_545 S
C585 C588 1.431 . S
C585 C605 1.449 . S
C586 C585 1.234 1_565 S
C586 C587 1.486 . S
C586 H606 0.946 . S
C587 C583 1.460 . S
C587 C586 1.486 . S
C587 H607 0.930 . S
C588 N584 1.362 . S
C588 C585 1.431 . S
C588 C598 1.476 . S
H589 C583 0.929 . S
C590 O581 1.281 . S
C590 O582 1.258 . S
O591 Mn576 2.162 . S
O591 C579 1.281 . S
O592 Mn576 2.297 . S
O592 C579 1.236 . S
N593 Mn577 2.282 . S
N593 C594 1.328 . S
N593 C598 1.318 . S
C594 N593 1.328 . S
C594 C595 1.457 . S
C594 H599 0.929 . S
C595 C594 1.457 . S
C595 C596 1.291 . S
C595 H608 0.931 . S
C596 C595 1.291 . S
C596 C597 1.373 . S
C596 H609 0.929 . S
C597 C596 1.373 . S
C597 C598 1.396 . S
C597 C604 1.403 . S
C598 C588 1.476 . S
C598 N593 1.318 . S
C598 C597 1.396 . S
H599 C594 0.929 . S
O600 Mn576 2.385 . S
O600 C578 1.234 . S
O601 Mn576 2.209 . S
O601 Mn577 2.215 . S
O601 C578 1.283 . S
O602 Mn576 2.094 . S
O602 C580 1.240 . S
O603 Mn577 2.117 . S
O603 C580 1.264 . S
C604 C597 1.403 . S
C604 C605 1.399 . S
C604 H610 0.929 . S
C605 C585 1.449 . S
C605 C604 1.399 . S
C605 H611 0.930 . S
H606 C586 0.946 . S
H607 C587 0.930 . S
H608 C595 0.931 . S
H609 C596 0.929 . S
H610 C604 0.929 . S
H611 C605 0.930 . S
Mn612 O617 2.095 . S
Mn612 O627 2.162 1_655 S
Mn612 O628 2.297 1_655 S
Mn612 O636 2.385 . S
Mn612 O637 2.209 . S
Mn612 O638 2.094 . S
Mn613 O618 2.121 . S
Mn613 N620 2.257 . S
Mn613 N629 2.282 . S
Mn613 O637 2.215 . S
Mn613 O639 2.117 . S
C614 O636 1.234 . S
C614 O637 1.283 . S
C615 O627 1.281 . S
C615 O628 1.236 . S
C616 O638 1.240 . S
C616 O639 1.264 . S
O617 Mn612 2.095 . S
O617 C626 1.250 . S
O618 Mn613 2.121 . S
O618 C626 1.258 . S
C619 N620 1.326 . S
C619 C623 1.460 . S
C619 H625 0.929 . S
N620 Mn613 2.257 . S
N620 C619 1.326 . S
N620 C624 1.362 . S
C621 C622 1.258 . S
C621 C624 1.431 . S
C621 C641 1.449 . S
C622 C621 1.258 . S
C622 C623 1.477 . S
C622 H642 0.931 . S
C623 C619 1.460 . S
C623 C622 1.477 . S
C623 H643 0.930 . S
C624 N620 1.362 . S
C624 C621 1.431 . S
C624 C634 1.476 . S
H625 C619 0.929 . S
C626 O617 1.250 . S
C626 O618 1.258 . S
O627 Mn612 2.162 1_455 S
O627 C615 1.281 . S
O628 Mn612 2.297 1_455 S
O628 C615 1.236 . S
N629 Mn613 2.282 . S
N629 C630 1.328 . S
N629 C634 1.318 . S
C630 N629 1.328 . S
C630 C631 1.457 . S
C630 H635 0.929 . S
C631 C630 1.457 . S
C631 C632 1.291 . S
C631 H644 0.931 . S
C632 C631 1.291 . S
C632 C633 1.373 . S
C632 H645 0.929 . S
C633 C632 1.373 . S
C633 C634 1.396 . S
C633 C640 1.403 . S
C634 C624 1.476 . S
C634 N629 1.318 . S
C634 C633 1.396 . S
H635 C630 0.929 . S
O636 Mn612 2.385 . S
O636 C614 1.234 . S
O637 Mn612 2.209 . S
O637 Mn613 2.215 . S
O637 C614 1.283 . S
O638 Mn612 2.094 . S
O638 C616 1.240 . S
O639 Mn613 2.117 . S
O639 C616 1.264 . S
C640 C633 1.403 . S
C640 C641 1.399 . S
C640 H646 0.929 . S
C641 C621 1.449 . S
C641 C640 1.399 . S
C641 H647 0.930 . S
H642 C622 0.931 . S
H643 C623 0.930 . S
H644 C631 0.931 . S
H645 C632 0.929 . S
H646 C640 0.929 . S
H647 C641 0.930 . S
H648 C667 0.949 . S
H649 C668 0.950 . S
H650 C670 0.950 . S
H651 C671 0.950 . S
H652 C673 0.950 . S
H653 C676 0.950 . S
H654 C677 0.950 . S
H655 C679 0.951 . S
H656 C680 0.949 . S
H657 C682 0.949 . S
H658 C683 0.950 . S
H659 C685 0.950 . S
H660 C686 0.950 . S
H661 C688 0.950 . S
H662 C691 0.950 . S
H663 C692 0.950 . S
H664 C694 0.951 . S
H665 C695 0.949 . S
C666 C667 1.376 . S
C666 C671 1.386 . S
C666 C672 1.483 . S
C667 H648 0.949 . S
C667 C666 1.376 . S
C667 C668 1.397 . S
C668 H649 0.950 . S
C668 C667 1.397 . S
C668 C669 1.391 . S
C669 C668 1.391 . S
C669 C670 1.405 . S
C670 H650 0.950 . S
C670 C669 1.405 . S
C670 C671 1.367 . S
C671 H651 0.950 . S
C671 C666 1.386 . S
C671 C670 1.367 . S
C672 C666 1.483 . S
C672 C673 1.382 . S
C672 C674 1.403 . S
C673 H652 0.950 . S
C673 C672 1.382 . S
C673 C689 1.411 . S
C674 C672 1.403 . S
C674 C675 1.489 . S
C674 C688 1.411 . S
C675 C674 1.489 . S
C675 C676 1.383 . S
C675 C680 1.382 . S
C676 H653 0.950 . S
C676 C675 1.383 . S
C676 C677 1.395 . S
C677 H654 0.950 . S
C677 C676 1.395 . S
C677 C678 1.288 . S
C678 C677 1.288 . S
C678 C679 1.392 . S
C679 H655 0.951 . S
C679 C678 1.392 . S
C679 C680 1.392 . S
C680 H656 0.949 . S
C680 C675 1.382 . S
C680 C679 1.392 . S
C681 C682 1.376 . S
C681 C686 1.386 . S
C681 C687 1.483 . S
C682 H657 0.949 . S
C682 C681 1.376 . S
C682 C683 1.397 . S
C683 H658 0.950 . S
C683 C682 1.397 . S
C683 C684 1.391 . S
C684 C683 1.391 . S
C684 C685 1.405 . S
C685 H659 0.950 . S
C685 C684 1.405 . S
C685 C686 1.367 . S
C686 H660 0.950 . S
C686 C681 1.386 . S
C686 C685 1.367 . S
C687 C681 1.483 . S
C687 C688 1.382 . S
C687 C689 1.403 . S
C688 H661 0.950 . S
C688 C674 1.411 . S
C688 C687 1.382 . S
C689 C673 1.411 . S
C689 C687 1.403 . S
C689 C690 1.489 . S
C690 C689 1.489 . S
C690 C691 1.383 . S
C690 C695 1.382 . S
C691 H662 0.950 . S
C691 C690 1.383 . S
C691 C692 1.395 . S
C692 H663 0.950 . S
C692 C691 1.395 . S
C692 C693 1.288 . S
C693 C692 1.288 . S
C693 C694 1.392 . S
C694 H664 0.951 . S
C694 C693 1.392 . S
C694 C695 1.392 . S
C695 H665 0.949 . S
C695 C690 1.382 . S
C695 C694 1.392 . S
H696 C715 0.949 . S
H697 C716 0.950 . S
H698 C718 0.950 . S
H699 C719 0.950 . S
H700 C721 0.950 . S
H701 C724 0.950 . S
H702 C725 0.950 . S
H703 C727 0.951 . S
H704 C728 0.949 . S
H705 C730 0.949 . S
H706 C731 0.950 . S
H707 C733 0.950 . S
H708 C734 0.950 . S
H709 C736 0.950 . S
H710 C739 0.950 . S
H711 C740 0.950 . S
H712 C742 0.951 . S
H713 C743 0.949 . S
C714 C715 1.376 . S
C714 C719 1.386 . S
C714 C720 1.483 . S
C715 H696 0.949 . S
C715 C714 1.376 . S
C715 C716 1.397 . S
C716 H697 0.950 . S
C716 C715 1.397 . S
C716 C717 1.391 . S
C717 C716 1.391 . S
C717 C718 1.405 . S
C718 H698 0.950 . S
C718 C717 1.405 . S
C718 C719 1.367 . S
C719 H699 0.950 . S
C719 C714 1.386 . S
C719 C718 1.367 . S
C720 C714 1.483 . S
C720 C721 1.382 . S
C720 C722 1.403 . S
C721 H700 0.950 . S
C721 C720 1.382 . S
C721 C737 1.411 . S
C722 C720 1.403 . S
C722 C723 1.489 . S
C722 C736 1.411 . S
C723 C722 1.489 . S
C723 C724 1.383 . S
C723 C728 1.382 . S
C724 H701 0.950 . S
C724 C723 1.383 . S
C724 C725 1.395 . S
C725 H702 0.950 . S
C725 C724 1.395 . S
C725 C726 1.288 . S
C726 C725 1.288 . S
C726 C727 1.392 . S
C727 H703 0.951 . S
C727 C726 1.392 . S
C727 C728 1.392 . S
C728 H704 0.949 . S
C728 C723 1.382 . S
C728 C727 1.392 . S
C729 C730 1.376 . S
C729 C734 1.386 . S
C729 C735 1.483 . S
C730 H705 0.949 . S
C730 C729 1.376 . S
C730 C731 1.397 . S
C731 H706 0.950 . S
C731 C730 1.397 . S
C731 C732 1.391 . S
C732 C731 1.391 . S
C732 C733 1.405 . S
C733 H707 0.950 . S
C733 C732 1.405 . S
C733 C734 1.367 . S
C734 H708 0.950 . S
C734 C729 1.386 . S
C734 C733 1.367 . S
C735 C729 1.483 . S
C735 C736 1.382 . S
C735 C737 1.403 . S
C736 H709 0.950 . S
C736 C722 1.411 . S
C736 C735 1.382 . S
C737 C721 1.411 . S
C737 C735 1.403 . S
C737 C738 1.489 . S
C738 C737 1.489 . S
C738 C739 1.383 . S
C738 C743 1.382 . S
C739 H710 0.950 . S
C739 C738 1.383 . S
C739 C740 1.395 . S
C740 H711 0.950 . S
C740 C739 1.395 . S
C740 C741 1.288 . S
C741 C740 1.288 . S
C741 C742 1.392 . S
C742 H712 0.951 . S
C742 C741 1.392 . S
C742 C743 1.392 . S
C743 H713 0.949 . S
C743 C738 1.382 . S
C743 C742 1.392 . S
H744 C763 0.949 . S
H745 C764 0.950 . S
H746 C766 0.950 . S
H747 C767 0.950 . S
H748 C769 0.950 . S
H749 C772 0.950 . S
H750 C773 0.950 . S
H751 C775 0.951 . S
H752 C776 0.949 . S
H753 C778 0.949 . S
H754 C779 0.950 . S
H755 C781 0.950 . S
H756 C782 0.950 . S
H757 C784 0.950 . S
H758 C787 0.950 . S
H759 C788 0.950 . S
H760 C790 0.951 . S
H761 C791 0.949 . S
C762 C763 1.376 . S
C762 C767 1.386 . S
C762 C768 1.483 . S
C763 H744 0.949 . S
C763 C762 1.376 . S
C763 C764 1.397 . S
C764 H745 0.950 . S
C764 C763 1.397 . S
C764 C765 1.391 . S
C765 C764 1.391 . S
C765 C766 1.405 . S
C766 H746 0.950 . S
C766 C765 1.405 . S
C766 C767 1.367 . S
C767 H747 0.950 . S
C767 C762 1.386 . S
C767 C766 1.367 . S
C768 C762 1.483 . S
C768 C769 1.382 . S
C768 C770 1.403 . S
C769 H748 0.950 . S
C769 C768 1.382 . S
C769 C785 1.411 . S
C770 C768 1.403 . S
C770 C771 1.489 . S
C770 C784 1.411 . S
C771 C770 1.489 . S
C771 C772 1.383 . S
C771 C776 1.382 . S
C772 H749 0.950 . S
C772 C771 1.383 . S
C772 C773 1.395 . S
C773 H750 0.950 . S
C773 C772 1.395 . S
C773 C774 1.288 . S
C774 C773 1.288 . S
C774 C775 1.392 . S
C775 H751 0.951 . S
C775 C774 1.392 . S
C775 C776 1.392 . S
C776 H752 0.949 . S
C776 C771 1.382 . S
C776 C775 1.392 . S
C777 C778 1.376 . S
C777 C782 1.386 . S
C777 C783 1.483 . S
C778 H753 0.949 . S
C778 C777 1.376 . S
C778 C779 1.397 . S
C779 H754 0.950 . S
C779 C778 1.397 . S
C779 C780 1.391 . S
C780 C779 1.391 . S
C780 C781 1.405 . S
C781 H755 0.950 . S
C781 C780 1.405 . S
C781 C782 1.367 . S
C782 H756 0.950 . S
C782 C777 1.386 . S
C782 C781 1.367 . S
C783 C777 1.483 . S
C783 C784 1.382 . S
C783 C785 1.403 . S
C784 H757 0.950 . S
C784 C770 1.411 . S
C784 C783 1.382 . S
C785 C769 1.411 . S
C785 C783 1.403 . S
C785 C786 1.489 . S
C786 C785 1.489 . S
C786 C787 1.383 . S
C786 C791 1.382 . S
C787 H758 0.950 . S
C787 C786 1.383 . S
C787 C788 1.395 . S
C788 H759 0.950 . S
C788 C787 1.395 . S
C788 C789 1.288 . S
C789 C788 1.288 . S
C789 C790 1.392 . S
C790 H760 0.951 . S
C790 C789 1.392 . S
C790 C791 1.392 . S
C791 H761 0.949 . S
C791 C786 1.382 . S
C791 C790 1.392 . S
H792 C811 0.949 . S
H793 C812 0.950 . S
H794 C814 0.950 . S
H795 C815 0.950 . S
H796 C817 0.950 . S
H797 C820 0.950 . S
H798 C821 0.950 . S
H799 C823 0.951 . S
H800 C824 0.949 . S
H801 C826 0.949 . S
H802 C827 0.950 . S
H803 C829 0.950 . S
H804 C830 0.950 . S
H805 C832 0.950 . S
H806 C835 0.950 . S
H807 C836 0.950 . S
H808 C838 0.951 . S
H809 C839 0.949 . S
C810 C811 1.376 . S
C810 C815 1.386 . S
C810 C816 1.483 . S
C811 H792 0.949 . S
C811 C810 1.376 . S
C811 C812 1.397 . S
C812 H793 0.950 . S
C812 C811 1.397 . S
C812 C813 1.391 . S
C813 C812 1.391 . S
C813 C814 1.405 . S
C814 H794 0.950 . S
C814 C813 1.405 . S
C814 C815 1.367 . S
C815 H795 0.950 . S
C815 C810 1.386 . S
C815 C814 1.367 . S
C816 C810 1.483 . S
C816 C817 1.382 . S
C816 C818 1.403 . S
C817 H796 0.950 . S
C817 C816 1.382 . S
C817 C833 1.411 . S
C818 C816 1.403 . S
C818 C819 1.489 . S
C818 C832 1.411 . S
C819 C818 1.489 . S
C819 C820 1.383 . S
C819 C824 1.382 . S
C820 H797 0.950 . S
C820 C819 1.383 . S
C820 C821 1.395 . S
C821 H798 0.950 . S
C821 C820 1.395 . S
C821 C822 1.288 . S
C822 C821 1.288 . S
C822 C823 1.392 . S
C823 H799 0.951 . S
C823 C822 1.392 . S
C823 C824 1.392 . S
C824 H800 0.949 . S
C824 C819 1.382 . S
C824 C823 1.392 . S
C825 C826 1.376 . S
C825 C830 1.386 . S
C825 C831 1.483 . S
C826 H801 0.949 . S
C826 C825 1.376 . S
C826 C827 1.397 . S
C827 H802 0.950 . S
C827 C826 1.397 . S
C827 C828 1.391 . S
C828 C827 1.391 . S
C828 C829 1.405 . S
C829 H803 0.950 . S
C829 C828 1.405 . S
C829 C830 1.367 . S
C830 H804 0.950 . S
C830 C825 1.386 . S
C830 C829 1.367 . S
C831 C825 1.483 . S
C831 C832 1.382 . S
C831 C833 1.403 . S
C832 H805 0.950 . S
C832 C818 1.411 . S
C832 C831 1.382 . S
C833 C817 1.411 . S
C833 C831 1.403 . S
C833 C834 1.489 . S
C834 C833 1.489 . S
C834 C835 1.383 . S
C834 C839 1.382 . S
C835 H806 0.950 . S
C835 C834 1.383 . S
C835 C836 1.395 . S
C836 H807 0.950 . S
C836 C835 1.395 . S
C836 C837 1.288 . S
C837 C836 1.288 . S
C837 C838 1.392 . S
C838 H808 0.951 . S
C838 C837 1.392 . S
C838 C839 1.392 . S
C839 H809 0.949 . S
C839 C834 1.382 . S
C839 C838 1.392 . S
H840 C859 0.949 . S
H841 C860 0.950 . S
H842 C862 0.950 . S
H843 C863 0.950 . S
H844 C865 0.950 . S
H845 C868 0.950 . S
H846 C869 0.950 . S
H847 C871 0.951 . S
H848 C872 0.949 . S
H849 C874 0.949 . S
H850 C875 0.950 . S
H851 C877 0.950 . S
H852 C878 0.950 . S
H853 C880 0.950 . S
H854 C883 0.950 . S
H855 C884 0.950 . S
H856 C886 0.951 . S
H857 C887 0.949 . S
C858 C859 1.376 . S
C858 C863 1.386 . S
C858 C864 1.483 . S
C859 H840 0.949 . S
C859 C858 1.376 . S
C859 C860 1.397 . S
C860 H841 0.950 . S
C860 C859 1.397 . S
C860 C861 1.391 . S
C861 C860 1.391 . S
C861 C862 1.405 . S
C862 H842 0.950 . S
C862 C861 1.405 . S
C862 C863 1.367 . S
C863 H843 0.950 . S
C863 C858 1.386 . S
C863 C862 1.367 . S
C864 C858 1.483 . S
C864 C865 1.382 . S
C864 C866 1.403 . S
C865 H844 0.950 . S
C865 C864 1.382 . S
C865 C881 1.411 . S
C866 C864 1.403 . S
C866 C867 1.489 . S
C866 C880 1.411 . S
C867 C866 1.489 . S
C867 C868 1.383 . S
C867 C872 1.382 . S
C868 H845 0.950 . S
C868 C867 1.383 . S
C868 C869 1.395 . S
C869 H846 0.950 . S
C869 C868 1.395 . S
C869 C870 1.288 . S
C870 C869 1.288 . S
C870 C871 1.392 . S
C871 H847 0.951 . S
C871 C870 1.392 . S
C871 C872 1.392 . S
C872 H848 0.949 . S
C872 C867 1.382 . S
C872 C871 1.392 . S
C873 C874 1.376 . S
C873 C878 1.386 . S
C873 C879 1.483 . S
C874 H849 0.949 . S
C874 C873 1.376 . S
C874 C875 1.397 . S
C875 H850 0.950 . S
C875 C874 1.397 . S
C875 C876 1.391 . S
C876 C875 1.391 . S
C876 C877 1.405 . S
C877 H851 0.950 . S
C877 C876 1.405 . S
C877 C878 1.367 . S
C878 H852 0.950 . S
C878 C873 1.386 . S
C878 C877 1.367 . S
C879 C873 1.483 . S
C879 C880 1.382 . S
C879 C881 1.403 . S
C880 H853 0.950 . S
C880 C866 1.411 . S
C880 C879 1.382 . S
C881 C865 1.411 . S
C881 C879 1.403 . S
C881 C882 1.489 . S
C882 C881 1.489 . S
C882 C883 1.383 . S
C882 C887 1.382 . S
C883 H854 0.950 . S
C883 C882 1.383 . S
C883 C884 1.395 . S
C884 H855 0.950 . S
C884 C883 1.395 . S
C884 C885 1.288 . S
C885 C884 1.288 . S
C885 C886 1.392 . S
C886 H856 0.951 . S
C886 C885 1.392 . S
C886 C887 1.392 . S
C887 H857 0.949 . S
C887 C882 1.382 . S
C887 C886 1.392 . S
H888 C907 0.949 . S
H889 C908 0.950 . S
H890 C910 0.950 . S
H891 C911 0.950 . S
H892 C913 0.950 . S
H893 C916 0.950 . S
H894 C917 0.950 . S
H895 C919 0.951 . S
H896 C920 0.949 . S
H897 C922 0.949 . S
H898 C923 0.950 . S
H899 C925 0.950 . S
H900 C926 0.950 . S
H901 C928 0.950 . S
H902 C931 0.950 . S
H903 C932 0.950 . S
H904 C934 0.951 . S
H905 C935 0.949 . S
C906 C907 1.376 . S
C906 C911 1.386 . S
C906 C912 1.483 . S
C907 H888 0.949 . S
C907 C906 1.376 . S
C907 C908 1.397 . S
C908 H889 0.950 . S
C908 C907 1.397 . S
C908 C909 1.391 . S
C909 C908 1.391 . S
C909 C910 1.405 . S
C910 H890 0.950 . S
C910 C909 1.405 . S
C910 C911 1.367 . S
C911 H891 0.950 . S
C911 C906 1.386 . S
C911 C910 1.367 . S
C912 C906 1.483 . S
C912 C913 1.382 . S
C912 C914 1.403 . S
C913 H892 0.950 . S
C913 C912 1.382 . S
C913 C929 1.411 . S
C914 C912 1.403 . S
C914 C915 1.489 . S
C914 C928 1.411 . S
C915 C914 1.489 . S
C915 C916 1.383 . S
C915 C920 1.382 . S
C916 H893 0.950 . S
C916 C915 1.383 . S
C916 C917 1.395 . S
C917 H894 0.950 . S
C917 C916 1.395 . S
C917 C918 1.288 . S
C918 C917 1.288 . S
C918 C919 1.392 . S
C919 H895 0.951 . S
C919 C918 1.392 . S
C919 C920 1.392 . S
C920 H896 0.949 . S
C920 C915 1.382 . S
C920 C919 1.392 . S
C921 C922 1.376 . S
C921 C926 1.386 . S
C921 C927 1.483 . S
C922 H897 0.949 . S
C922 C921 1.376 . S
C922 C923 1.397 . S
C923 H898 0.950 . S
C923 C922 1.397 . S
C923 C924 1.391 . S
C924 C923 1.391 . S
C924 C925 1.405 . S
C925 H899 0.950 . S
C925 C924 1.405 . S
C925 C926 1.367 . S
C926 H900 0.950 . S
C926 C921 1.386 . S
C926 C925 1.367 . S
C927 C921 1.483 . S
C927 C928 1.382 . S
C927 C929 1.403 . S
C928 H901 0.950 . S
C928 C914 1.411 . S
C928 C927 1.382 . S
C929 C913 1.411 . S
C929 C927 1.403 . S
C929 C930 1.489 . S
C930 C929 1.489 . S
C930 C931 1.383 . S
C930 C935 1.382 . S
C931 H902 0.950 . S
C931 C930 1.383 . S
C931 C932 1.395 . S
C932 H903 0.950 . S
C932 C931 1.395 . S
C932 C933 1.288 . S
C933 C932 1.288 . S
C933 C934 1.392 . S
C934 H904 0.951 . S
C934 C933 1.392 . S
C934 C935 1.392 . S
C935 H905 0.949 . S
C935 C930 1.382 . S
C935 C934 1.392 . S
H936 C955 0.949 . S
H937 C956 0.950 . S
H938 C958 0.950 . S
H939 C959 0.950 . S
H940 C961 0.950 . S
H941 C964 0.950 . S
H942 C965 0.950 . S
H943 C967 0.951 . S
H944 C968 0.949 . S
H945 C970 0.949 . S
H946 C971 0.950 . S
H947 C973 0.950 . S
H948 C974 0.950 . S
H949 C976 0.950 . S
H950 C979 0.950 . S
H951 C980 0.950 . S
H952 C982 0.951 . S
H953 C983 0.949 . S
C954 C955 1.376 . S
C954 C959 1.386 . S
C954 C960 1.483 . S
C955 H936 0.949 . S
C955 C954 1.376 . S
C955 C956 1.397 . S
C956 H937 0.950 . S
C956 C955 1.397 . S
C956 C957 1.391 . S
C957 C956 1.391 . S
C957 C958 1.405 . S
C958 H938 0.950 . S
C958 C957 1.405 . S
C958 C959 1.367 . S
C959 H939 0.950 . S
C959 C954 1.386 . S
C959 C958 1.367 . S
C960 C954 1.483 . S
C960 C961 1.382 . S
C960 C962 1.403 . S
C961 H940 0.950 . S
C961 C960 1.382 . S
C961 C977 1.411 . S
C962 C960 1.403 . S
C962 C963 1.489 . S
C962 C976 1.411 . S
C963 C962 1.489 . S
C963 C964 1.383 . S
C963 C968 1.382 . S
C964 H941 0.950 . S
C964 C963 1.383 . S
C964 C965 1.395 . S
C965 H942 0.950 . S
C965 C964 1.395 . S
C965 C966 1.288 . S
C966 C965 1.288 . S
C966 C967 1.392 . S
C967 H943 0.951 . S
C967 C966 1.392 . S
C967 C968 1.392 . S
C968 H944 0.949 . S
C968 C963 1.382 . S
C968 C967 1.392 . S
C969 C970 1.376 . S
C969 C974 1.386 . S
C969 C975 1.483 . S
C970 H945 0.949 . S
C970 C969 1.376 . S
C970 C971 1.397 . S
C971 H946 0.950 . S
C971 C970 1.397 . S
C971 C972 1.391 . S
C972 C971 1.391 . S
C972 C973 1.405 . S
C973 H947 0.950 . S
C973 C972 1.405 . S
C973 C974 1.367 . S
C974 H948 0.950 . S
C974 C969 1.386 . S
C974 C973 1.367 . S
C975 C969 1.483 . S
C975 C976 1.382 . S
C975 C977 1.403 . S
C976 H949 0.950 . S
C976 C962 1.411 . S
C976 C975 1.382 . S
C977 C961 1.411 . S
C977 C975 1.403 . S
C977 C978 1.489 . S
C978 C977 1.489 . S
C978 C979 1.383 . S
C978 C983 1.382 . S
C979 H950 0.950 . S
C979 C978 1.383 . S
C979 C980 1.395 . S
C980 H951 0.950 . S
C980 C979 1.395 . S
C980 C981 1.288 . S
C981 C980 1.288 . S
C981 C982 1.392 . S
C982 H952 0.951 . S
C982 C981 1.392 . S
C982 C983 1.392 . S
C983 H953 0.949 . S
C983 C978 1.382 . S
C983 C982 1.392 . S
H984 C1003 0.949 . S
H985 C1004 0.950 . S
H986 C1006 0.950 . S
H987 C1007 0.950 . S
H988 C1009 0.950 . S
H989 C1012 0.950 . S
H990 C1013 0.950 . S
H991 C1015 0.951 . S
H992 C1016 0.949 . S
H993 C1018 0.949 . S
H994 C1019 0.950 . S
H995 C1021 0.950 . S
H996 C1022 0.950 . S
H997 C1024 0.950 . S
H998 C1027 0.950 . S
H999 C1028 0.950 . S
H1000 C1030 0.951 . S
H1001 C1031 0.949 . S
C1002 C1003 1.376 . S
C1002 C1007 1.386 . S
C1002 C1008 1.483 . S
C1003 H984 0.949 . S
C1003 C1002 1.376 . S
C1003 C1004 1.397 . S
C1004 H985 0.950 . S
C1004 C1003 1.397 . S
C1004 C1005 1.391 . S
C1005 C1004 1.391 . S
C1005 C1006 1.405 . S
C1006 H986 0.950 . S
C1006 C1005 1.405 . S
C1006 C1007 1.367 . S
C1007 H987 0.950 . S
C1007 C1002 1.386 . S
C1007 C1006 1.367 . S
C1008 C1002 1.483 . S
C1008 C1009 1.382 . S
C1008 C1010 1.403 . S
C1009 H988 0.950 . S
C1009 C1008 1.382 . S
C1009 C1025 1.411 . S
C1010 C1008 1.403 . S
C1010 C1011 1.489 . S
C1010 C1024 1.411 . S
C1011 C1010 1.489 . S
C1011 C1012 1.383 . S
C1011 C1016 1.382 . S
C1012 H989 0.950 . S
C1012 C1011 1.383 . S
C1012 C1013 1.395 . S
C1013 H990 0.950 . S
C1013 C1012 1.395 . S
C1013 C1014 1.288 . S
C1014 C1013 1.288 . S
C1014 C1015 1.392 . S
C1015 H991 0.951 . S
C1015 C1014 1.392 . S
C1015 C1016 1.392 . S
C1016 H992 0.949 . S
C1016 C1011 1.382 . S
C1016 C1015 1.392 . S
C1017 C1018 1.376 . S
C1017 C1022 1.386 . S
C1017 C1023 1.483 . S
C1018 H993 0.949 . S
C1018 C1017 1.376 . S
C1018 C1019 1.397 . S
C1019 H994 0.950 . S
C1019 C1018 1.397 . S
C1019 C1020 1.391 . S
C1020 C1019 1.391 . S
C1020 C1021 1.405 . S
C1021 H995 0.950 . S
C1021 C1020 1.405 . S
C1021 C1022 1.367 . S
C1022 H996 0.950 . S
C1022 C1017 1.386 . S
C1022 C1021 1.367 . S
C1023 C1017 1.483 . S
C1023 C1024 1.382 . S
C1023 C1025 1.403 . S
C1024 H997 0.950 . S
C1024 C1010 1.411 . S
C1024 C1023 1.382 . S
C1025 C1009 1.411 . S
C1025 C1023 1.403 . S
C1025 C1026 1.489 . S
C1026 C1025 1.489 . S
C1026 C1027 1.383 . S
C1026 C1031 1.382 . S
C1027 H998 0.950 . S
C1027 C1026 1.383 . S
C1027 C1028 1.395 . S
C1028 H999 0.950 . S
C1028 C1027 1.395 . S
C1028 C1029 1.288 . S
C1029 C1028 1.288 . S
C1029 C1030 1.392 . S
C1030 H1000 0.951 . S
C1030 C1029 1.392 . S
C1030 C1031 1.392 . S
C1031 H1001 0.949 . S
C1031 C1026 1.382 . S
C1031 C1030 1.392 . S
H1032 C1051 0.949 . S
H1033 C1052 0.950 . S
H1034 C1054 0.950 . S
H1035 C1055 0.950 . S
H1036 C1057 0.950 . S
H1037 C1060 0.950 . S
H1038 C1061 0.950 . S
H1039 C1063 0.951 . S
H1040 C1064 0.949 . S
H1041 C1066 0.949 . S
H1042 C1067 0.950 . S
H1043 C1069 0.950 . S
H1044 C1070 0.950 . S
H1045 C1072 0.950 . S
H1046 C1075 0.950 . S
H1047 C1076 0.950 . S
H1048 C1078 0.951 . S
H1049 C1079 0.949 . S
C1050 C1051 1.376 . S
C1050 C1055 1.386 . S
C1050 C1056 1.483 . S
C1051 H1032 0.949 . S
C1051 C1050 1.376 . S
C1051 C1052 1.397 . S
C1052 H1033 0.950 . S
C1052 C1051 1.397 . S
C1052 C1053 1.391 . S
C1053 C1052 1.391 . S
C1053 C1054 1.405 . S
C1054 H1034 0.950 . S
C1054 C1053 1.405 . S
C1054 C1055 1.367 . S
C1055 H1035 0.950 . S
C1055 C1050 1.386 . S
C1055 C1054 1.367 . S
C1056 C1050 1.483 . S
C1056 C1057 1.382 . S
C1056 C1058 1.403 . S
C1057 H1036 0.950 . S
C1057 C1056 1.382 . S
C1057 C1073 1.411 . S
C1058 C1056 1.403 . S
C1058 C1059 1.489 . S
C1058 C1072 1.411 . S
C1059 C1058 1.489 . S
C1059 C1060 1.383 . S
C1059 C1064 1.382 . S
C1060 H1037 0.950 . S
C1060 C1059 1.383 . S
C1060 C1061 1.395 . S
C1061 H1038 0.950 . S
C1061 C1060 1.395 . S
C1061 C1062 1.288 . S
C1062 C1061 1.288 . S
C1062 C1063 1.392 . S
C1063 H1039 0.951 . S
C1063 C1062 1.392 . S
C1063 C1064 1.392 . S
C1064 H1040 0.949 . S
C1064 C1059 1.382 . S
C1064 C1063 1.392 . S
C1065 C1066 1.376 . S
C1065 C1070 1.386 . S
C1065 C1071 1.483 . S
C1066 H1041 0.949 . S
C1066 C1065 1.376 . S
C1066 C1067 1.397 . S
C1067 H1042 0.950 . S
C1067 C1066 1.397 . S
C1067 C1068 1.391 . S
C1068 C1067 1.391 . S
C1068 C1069 1.405 . S
C1069 H1043 0.950 . S
C1069 C1068 1.405 . S
C1069 C1070 1.367 . S
C1070 H1044 0.950 . S
C1070 C1065 1.386 . S
C1070 C1069 1.367 . S
C1071 C1065 1.483 . S
C1071 C1072 1.382 . S
C1071 C1073 1.403 . S
C1072 H1045 0.950 . S
C1072 C1058 1.411 . S
C1072 C1071 1.382 . S
C1073 C1057 1.411 . S
C1073 C1071 1.403 . S
C1073 C1074 1.489 . S
C1074 C1073 1.489 . S
C1074 C1075 1.383 . S
C1074 C1079 1.382 . S
C1075 H1046 0.950 . S
C1075 C1074 1.383 . S
C1075 C1076 1.395 . S
C1076 H1047 0.950 . S
C1076 C1075 1.395 . S
C1076 C1077 1.288 . S
C1077 C1076 1.288 . S
C1077 C1078 1.392 . S
C1078 H1048 0.951 . S
C1078 C1077 1.392 . S
C1078 C1079 1.392 . S
C1079 H1049 0.949 . S
C1079 C1074 1.382 . S
C1079 C1078 1.392 . S
H1080 C1099 0.949 . S
H1081 C1100 0.950 . S
H1082 C1102 0.950 . S
H1083 C1103 0.950 . S
H1084 C1105 0.950 . S
H1085 C1108 0.950 . S
H1086 C1109 0.950 . S
H1087 C1111 0.951 . S
H1088 C1112 0.949 . S
H1089 C1114 0.949 . S
H1090 C1115 0.950 . S
H1091 C1117 0.950 . S
H1092 C1118 0.950 . S
H1093 C1120 0.950 . S
H1094 C1123 0.950 . S
H1095 C1124 0.950 . S
H1096 C1126 0.951 . S
H1097 C1127 0.949 . S
C1098 C1099 1.376 . S
C1098 C1103 1.386 1_655 S
C1098 C1104 1.483 . S
C1099 H1080 0.949 . S
C1099 C1098 1.376 . S
C1099 C1100 1.397 . S
C1100 H1081 0.950 . S
C1100 C1099 1.397 . S
C1100 C1101 1.391 . S
C1101 C1100 1.391 . S
C1101 C1102 1.405 1_655 S
C1102 H1082 0.950 . S
C1102 C1101 1.405 1_455 S
C1102 C1103 1.367 . S
C1103 H1083 0.950 . S
C1103 C1098 1.386 1_455 S
C1103 C1102 1.367 . S
C1104 C1098 1.483 . S
C1104 C1105 1.382 . S
C1104 C1106 1.403 1_655 S
C1105 H1084 0.950 . S
C1105 C1104 1.382 . S
C1105 C1121 1.411 . S
C1106 C1104 1.403 1_455 S
C1106 C1107 1.489 . S
C1106 C1120 1.411 . S
C1107 C1106 1.489 . S
C1107 C1108 1.383 1_455 S
C1107 C1112 1.382 . S
C1108 H1085 0.950 . S
C1108 C1107 1.383 1_655 S
C1108 C1109 1.395 . S
C1109 H1086 0.950 . S
C1109 C1108 1.395 . S
C1109 C1110 1.288 1_655 S
C1110 C1109 1.288 1_455 S
C1110 C1111 1.392 . S
C1111 H1087 0.951 . S
C1111 C1110 1.392 . S
C1111 C1112 1.392 . S
C1112 H1088 0.949 . S
C1112 C1107 1.382 . S
C1112 C1111 1.392 . S
C1113 C1114 1.376 . S
C1113 C1118 1.386 1_455 S
C1113 C1119 1.483 . S
C1114 H1089 0.949 . S
C1114 C1113 1.376 . S
C1114 C1115 1.397 . S
C1115 H1090 0.950 . S
C1115 C1114 1.397 . S
C1115 C1116 1.391 . S
C1116 C1115 1.391 . S
C1116 C1117 1.405 1_455 S
C1117 H1091 0.950 . S
C1117 C1116 1.405 1_655 S
C1117 C1118 1.367 . S
C1118 H1092 0.950 . S
C1118 C1113 1.386 1_655 S
C1118 C1117 1.367 . S
C1119 C1113 1.483 . S
C1119 C1120 1.382 . S
C1119 C1121 1.403 1_455 S
C1120 H1093 0.950 . S
C1120 C1106 1.411 . S
C1120 C1119 1.382 . S
C1121 C1105 1.411 . S
C1121 C1119 1.403 1_655 S
C1121 C1122 1.489 . S
C1122 C1121 1.489 . S
C1122 C1123 1.383 1_655 S
C1122 C1127 1.382 . S
C1123 H1094 0.950 . S
C1123 C1122 1.383 1_455 S
C1123 C1124 1.395 . S
C1124 H1095 0.950 . S
C1124 C1123 1.395 . S
C1124 C1125 1.288 1_455 S
C1125 C1124 1.288 1_655 S
C1125 C1126 1.392 . S
C1126 H1096 0.951 . S
C1126 C1125 1.392 . S
C1126 C1127 1.392 . S
C1127 H1097 0.949 . S
C1127 C1122 1.382 . S
C1127 C1126 1.392 . S
H1128 C1147 0.949 . S
H1129 C1148 0.950 . S
H1130 C1150 0.950 . S
H1131 C1151 0.950 . S
H1132 C1153 0.950 . S
H1133 C1156 0.950 . S
H1134 C1157 0.950 . S
H1135 C1159 0.951 . S
H1136 C1160 0.949 . S
H1137 C1162 0.949 . S
H1138 C1163 0.950 . S
H1139 C1165 0.950 . S
H1140 C1166 0.950 . S
H1141 C1168 0.950 . S
H1142 C1171 0.950 . S
H1143 C1172 0.950 . S
H1144 C1174 0.951 . S
H1145 C1175 0.949 . S
C1146 C1147 1.376 . S
C1146 C1151 1.386 . S
C1146 C1152 1.483 . S
C1147 H1128 0.949 . S
C1147 C1146 1.376 . S
C1147 C1148 1.397 . S
C1148 H1129 0.950 . S
C1148 C1147 1.397 . S
C1148 C1149 1.391 . S
C1149 C1148 1.391 . S
C1149 C1150 1.405 . S
C1150 H1130 0.950 . S
C1150 C1149 1.405 . S
C1150 C1151 1.367 . S
C1151 H1131 0.950 . S
C1151 C1146 1.386 . S
C1151 C1150 1.367 . S
C1152 C1146 1.483 . S
C1152 C1153 1.382 . S
C1152 C1154 1.403 . S
C1153 H1132 0.950 . S
C1153 C1152 1.382 . S
C1153 C1169 1.411 . S
C1154 C1152 1.403 . S
C1154 C1155 1.489 . S
C1154 C1168 1.411 . S
C1155 C1154 1.489 . S
C1155 C1156 1.383 . S
C1155 C1160 1.382 . S
C1156 H1133 0.950 . S
C1156 C1155 1.383 . S
C1156 C1157 1.395 . S
C1157 H1134 0.950 . S
C1157 C1156 1.395 . S
C1157 C1158 1.288 . S
C1158 C1157 1.288 . S
C1158 C1159 1.392 . S
C1159 H1135 0.951 . S
C1159 C1158 1.392 . S
C1159 C1160 1.392 . S
C1160 H1136 0.949 . S
C1160 C1155 1.382 . S
C1160 C1159 1.392 . S
C1161 C1162 1.376 . S
C1161 C1166 1.386 . S
C1161 C1167 1.483 . S
C1162 H1137 0.949 . S
C1162 C1161 1.376 . S
C1162 C1163 1.397 . S
C1163 H1138 0.950 . S
C1163 C1162 1.397 . S
C1163 C1164 1.391 . S
C1164 C1163 1.391 . S
C1164 C1165 1.405 . S
C1165 H1139 0.950 . S
C1165 C1164 1.405 . S
C1165 C1166 1.367 . S
C1166 H1140 0.950 . S
C1166 C1161 1.386 . S
C1166 C1165 1.367 . S
C1167 C1161 1.483 . S
C1167 C1168 1.382 . S
C1167 C1169 1.403 . S
C1168 H1141 0.950 . S
C1168 C1154 1.411 . S
C1168 C1167 1.382 . S
C1169 C1153 1.411 . S
C1169 C1167 1.403 . S
C1169 C1170 1.489 . S
C1170 C1169 1.489 . S
C1170 C1171 1.383 . S
C1170 C1175 1.382 . S
C1171 H1142 0.950 . S
C1171 C1170 1.383 . S
C1171 C1172 1.395 . S
C1172 H1143 0.950 . S
C1172 C1171 1.395 . S
C1172 C1173 1.288 . S
C1173 C1172 1.288 . S
C1173 C1174 1.392 . S
C1174 H1144 0.951 . S
C1174 C1173 1.392 . S
C1174 C1175 1.392 . S
C1175 H1145 0.949 . S
C1175 C1170 1.382 . S
C1175 C1174 1.392 . S
H1176 C1195 0.949 . S
H1177 C1196 0.950 . S
H1178 C1198 0.950 . S
H1179 C1199 0.950 . S
H1180 C1201 0.950 . S
H1181 C1204 0.950 . S
H1182 C1205 0.950 . S
H1183 C1207 0.951 . S
H1184 C1208 0.949 . S
H1185 C1210 0.949 . S
H1186 C1211 0.950 . S
H1187 C1213 0.950 . S
H1188 C1214 0.950 . S
H1189 C1216 0.950 . S
H1190 C1219 0.950 . S
H1191 C1220 0.950 . S
H1192 C1222 0.951 . S
H1193 C1223 0.949 . S
C1194 C1195 1.376 . S
C1194 C1199 1.386 1_545 S
C1194 C1200 1.483 . S
C1195 H1176 0.949 . S
C1195 C1194 1.376 . S
C1195 C1196 1.397 . S
C1196 H1177 0.950 . S
C1196 C1195 1.397 . S
C1196 C1197 1.391 . S
C1197 C1196 1.391 . S
C1197 C1198 1.405 1_545 S
C1198 H1178 0.950 . S
C1198 C1197 1.405 1_565 S
C1198 C1199 1.367 . S
C1199 H1179 0.950 . S
C1199 C1194 1.386 1_565 S
C1199 C1198 1.367 . S
C1200 C1194 1.483 . S
C1200 C1201 1.382 . S
C1200 C1202 1.403 1_545 S
C1201 H1180 0.950 . S
C1201 C1200 1.382 . S
C1201 C1217 1.411 . S
C1202 C1200 1.403 1_565 S
C1202 C1203 1.489 . S
C1202 C1216 1.411 . S
C1203 C1202 1.489 . S
C1203 C1204 1.383 1_565 S
C1203 C1208 1.382 . S
C1204 H1181 0.950 . S
C1204 C1203 1.383 1_545 S
C1204 C1205 1.395 . S
C1205 H1182 0.950 . S
C1205 C1204 1.395 . S
C1205 C1206 1.288 1_545 S
C1206 C1205 1.288 1_565 S
C1206 C1207 1.392 . S
C1207 H1183 0.951 . S
C1207 C1206 1.392 . S
C1207 C1208 1.392 . S
C1208 H1184 0.949 . S
C1208 C1203 1.382 . S
C1208 C1207 1.392 . S
C1209 C1210 1.376 . S
C1209 C1214 1.386 1_565 S
C1209 C1215 1.483 . S
C1210 H1185 0.949 . S
C1210 C1209 1.376 . S
C1210 C1211 1.397 . S
C1211 H1186 0.950 . S
C1211 C1210 1.397 . S
C1211 C1212 1.391 . S
C1212 C1211 1.391 . S
C1212 C1213 1.405 1_565 S
C1213 H1187 0.950 . S
C1213 C1212 1.405 1_545 S
C1213 C1214 1.367 . S
C1214 H1188 0.950 . S
C1214 C1209 1.386 1_545 S
C1214 C1213 1.367 . S
C1215 C1209 1.483 . S
C1215 C1216 1.382 . S
C1215 C1217 1.403 1_565 S
C1216 H1189 0.950 . S
C1216 C1202 1.411 . S
C1216 C1215 1.382 . S
C1217 C1201 1.411 . S
C1217 C1215 1.403 1_545 S
C1217 C1218 1.489 . S
C1218 C1217 1.489 . S
C1218 C1219 1.383 1_545 S
C1218 C1223 1.382 . S
C1219 H1190 0.950 . S
C1219 C1218 1.383 1_565 S
C1219 C1220 1.395 . S
C1220 H1191 0.950 . S
C1220 C1219 1.395 . S
C1220 C1221 1.288 1_565 S
C1221 C1220 1.288 1_545 S
C1221 C1222 1.392 . S
C1222 H1192 0.951 . S
C1222 C1221 1.392 . S
C1222 C1223 1.392 . S
C1223 H1193 0.949 . S
C1223 C1218 1.382 . S
C1223 C1222 1.392 . S
H1224 C1243 0.949 . S
H1225 C1244 0.950 . S
H1226 C1246 0.950 . S
H1227 C1247 0.950 . S
H1228 C1249 0.950 . S
H1229 C1252 0.950 . S
H1230 C1253 0.950 . S
H1231 C1255 0.951 . S
H1232 C1256 0.949 . S
H1233 C1258 0.949 . S
H1234 C1259 0.950 . S
H1235 C1261 0.950 . S
H1236 C1262 0.950 . S
H1237 C1264 0.950 . S
H1238 C1267 0.950 . S
H1239 C1268 0.950 . S
H1240 C1270 0.951 . S
H1241 C1271 0.949 . S
C1242 C1243 1.379 . S
C1242 C1247 1.385 1_545 S
C1242 C1248 1.505 . S
C1243 H1224 0.949 . S
C1243 C1242 1.379 . S
C1243 C1244 1.397 . S
C1244 H1225 0.950 . S
C1244 C1243 1.397 . S
C1244 C1245 1.391 1_545 S
C1245 C1244 1.391 1_565 S
C1245 C1246 1.405 . S
C1246 H1226 0.950 . S
C1246 C1245 1.405 . S
C1246 C1247 1.367 . S
C1247 H1227 0.950 . S
C1247 C1242 1.385 1_565 S
C1247 C1246 1.367 . S
C1248 C1242 1.505 . S
C1248 C1249 1.360 . S
C1248 C1250 1.398 1_545 S
C1249 H1228 0.950 . S
C1249 C1248 1.360 . S
C1249 C1265 1.446 . S
C1250 C1248 1.398 1_565 S
C1250 C1251 1.486 . S
C1250 C1264 1.437 . S
C1251 C1250 1.486 . S
C1251 C1252 1.341 1_565 S
C1251 C1256 1.405 . S
C1252 H1229 0.950 . S
C1252 C1251 1.341 1_545 S
C1252 C1253 1.395 . S
C1253 H1230 0.950 . S
C1253 C1252 1.395 . S
C1253 C1254 1.288 . S
C1254 C1253 1.288 . S
C1254 C1255 1.392 1_545 S
C1255 H1231 0.951 . S
C1255 C1254 1.392 1_565 S
C1255 C1256 1.392 . S
C1256 H1232 0.949 . S
C1256 C1251 1.405 . S
C1256 C1255 1.392 . S
C1257 C1258 1.379 1_545 S
C1257 C1262 1.385 . S
C1257 C1263 1.498 1_545 S
C1258 H1233 0.949 . S
C1258 C1257 1.379 1_565 S
C1258 C1259 1.397 . S
C1259 H1234 0.950 . S
C1259 C1258 1.397 . S
C1259 C1260 1.391 1_565 S
C1260 C1259 1.391 1_545 S
C1260 C1261 1.405 . S
C1261 H1235 0.950 . S
C1261 C1260 1.405 . S
C1261 C1262 1.367 . S
C1262 H1236 0.950 . S
C1262 C1257 1.385 . S
C1262 C1261 1.367 . S
C1263 C1257 1.498 1_565 S
C1263 C1264 1.367 . S
C1263 C1265 1.398 1_565 S
C1264 H1237 0.950 . S
C1264 C1250 1.437 . S
C1264 C1263 1.367 . S
C1265 C1249 1.446 . S
C1265 C1263 1.398 1_545 S
C1265 C1266 1.486 . S
C1266 C1265 1.486 . S
C1266 C1267 1.324 1_545 S
C1266 C1271 1.415 . S
C1267 H1238 0.950 . S
C1267 C1266 1.324 1_565 S
C1267 C1268 1.395 . S
C1268 H1239 0.950 . S
C1268 C1267 1.395 . S
C1268 C1269 1.324 . S
C1269 C1268 1.324 . S
C1269 C1270 1.323 1_565 S
C1270 H1240 0.951 . S
C1270 C1269 1.323 1_545 S
C1270 C1271 1.392 . S
C1271 H1241 0.949 . S
C1271 C1266 1.415 . S
C1271 C1270 1.392 . S
H1272 C1291 0.949 . S
H1273 C1292 0.950 . S
H1274 C1294 0.950 . S
H1275 C1295 0.950 . S
H1276 C1297 0.950 . S
H1277 C1300 0.950 . S
H1278 C1301 0.950 . S
H1279 C1303 0.951 . S
H1280 C1304 0.949 . S
H1281 C1306 0.949 . S
H1282 C1307 0.950 . S
H1283 C1309 0.950 . S
H1284 C1310 0.950 . S
H1285 C1312 0.950 . S
H1286 C1315 0.950 . S
H1287 C1316 0.950 . S
H1288 C1318 0.951 . S
H1289 C1319 0.949 . S
C1290 C1291 1.376 . S
C1290 C1295 1.386 1_455 S
C1290 C1296 1.483 . S
C1291 H1272 0.949 . S
C1291 C1290 1.376 . S
C1291 C1292 1.397 . S
C1292 H1273 0.950 . S
C1292 C1291 1.397 . S
C1292 C1293 1.391 . S
C1293 C1292 1.391 . S
C1293 C1294 1.405 1_455 S
C1294 H1274 0.950 . S
C1294 C1293 1.405 1_655 S
C1294 C1295 1.367 . S
C1295 H1275 0.950 . S
C1295 C1290 1.386 1_655 S
C1295 C1294 1.367 . S
C1296 C1290 1.483 . S
C1296 C1297 1.382 . S
C1296 C1298 1.403 1_455 S
C1297 H1276 0.950 . S
C1297 C1296 1.382 . S
C1297 C1313 1.411 . S
C1298 C1296 1.403 1_655 S
C1298 C1299 1.489 . S
C1298 C1312 1.411 . S
C1299 C1298 1.489 . S
C1299 C1300 1.383 1_655 S
C1299 C1304 1.382 . S
C1300 H1277 0.950 . S
C1300 C1299 1.383 1_455 S
C1300 C1301 1.395 . S
C1301 H1278 0.950 . S
C1301 C1300 1.395 . S
C1301 C1302 1.288 1_455 S
C1302 C1301 1.288 1_655 S
C1302 C1303 1.392 . S
C1303 H1279 0.951 . S
C1303 C1302 1.392 . S
C1303 C1304 1.392 . S
C1304 H1280 0.949 . S
C1304 C1299 1.382 . S
C1304 C1303 1.392 . S
C1305 C1306 1.376 . S
C1305 C1310 1.386 1_655 S
C1305 C1311 1.483 . S
C1306 H1281 0.949 . S
C1306 C1305 1.376 . S
C1306 C1307 1.397 . S
C1307 H1282 0.950 . S
C1307 C1306 1.397 . S
C1307 C1308 1.391 . S
C1308 C1307 1.391 . S
C1308 C1309 1.405 1_655 S
C1309 H1283 0.950 . S
C1309 C1308 1.405 1_455 S
C1309 C1310 1.367 . S
C1310 H1284 0.950 . S
C1310 C1305 1.386 1_455 S
C1310 C1309 1.367 . S
C1311 C1305 1.483 . S
C1311 C1312 1.382 . S
C1311 C1313 1.403 1_655 S
C1312 H1285 0.950 . S
C1312 C1298 1.411 . S
C1312 C1311 1.382 . S
C1313 C1297 1.411 . S
C1313 C1311 1.403 1_455 S
C1313 C1314 1.489 . S
C1314 C1313 1.489 . S
C1314 C1315 1.383 1_455 S
C1314 C1319 1.382 . S
C1315 H1286 0.950 . S
C1315 C1314 1.383 1_655 S
C1315 C1316 1.395 . S
C1316 H1287 0.950 . S
C1316 C1315 1.395 . S
C1316 C1317 1.288 1_655 S
C1317 C1316 1.288 1_455 S
C1317 C1318 1.392 . S
C1318 H1288 0.951 . S
C1318 C1317 1.392 . S
C1318 C1319 1.392 . S
C1319 H1289 0.949 . S
C1319 C1314 1.382 . S
C1319 C1318 1.392 . S
H1320 C1339 0.949 . S
H1321 C1340 0.950 . S
H1322 C1342 0.950 . S
H1323 C1343 0.950 . S
H1324 C1345 0.950 . S
H1325 C1348 0.950 . S
H1326 C1349 0.950 . S
H1327 C1351 0.951 . S
H1328 C1352 0.949 . S
H1329 C1354 0.949 . S
H1330 C1355 0.950 . S
H1331 C1357 0.950 . S
H1332 C1358 0.950 . S
H1333 C1360 0.950 . S
H1334 C1363 0.950 . S
H1335 C1364 0.950 . S
H1336 C1366 0.951 . S
H1337 C1367 0.949 . S
C1338 C1339 1.376 . S
C1338 C1343 1.386 . S
C1338 C1344 1.483 . S
C1339 H1320 0.949 . S
C1339 C1338 1.376 . S
C1339 C1340 1.397 . S
C1340 H1321 0.950 . S
C1340 C1339 1.397 . S
C1340 C1341 1.391 . S
C1341 C1340 1.391 . S
C1341 C1342 1.405 . S
C1342 H1322 0.950 . S
C1342 C1341 1.405 . S
C1342 C1343 1.367 . S
C1343 H1323 0.950 . S
C1343 C1338 1.386 . S
C1343 C1342 1.367 . S
C1344 C1338 1.483 . S
C1344 C1345 1.382 . S
C1344 C1346 1.403 . S
C1345 H1324 0.950 . S
C1345 C1344 1.382 . S
C1345 C1361 1.411 . S
C1346 C1344 1.403 . S
C1346 C1347 1.489 . S
C1346 C1360 1.411 . S
C1347 C1346 1.489 . S
C1347 C1348 1.383 . S
C1347 C1352 1.382 . S
C1348 H1325 0.950 . S
C1348 C1347 1.383 . S
C1348 C1349 1.395 . S
C1349 H1326 0.950 . S
C1349 C1348 1.395 . S
C1349 C1350 1.288 . S
C1350 C1349 1.288 . S
C1350 C1351 1.392 . S
C1351 H1327 0.951 . S
C1351 C1350 1.392 . S
C1351 C1352 1.392 . S
C1352 H1328 0.949 . S
C1352 C1347 1.382 . S
C1352 C1351 1.392 . S
C1353 C1354 1.376 . S
C1353 C1358 1.386 . S
C1353 C1359 1.483 . S
C1354 H1329 0.949 . S
C1354 C1353 1.376 . S
C1354 C1355 1.397 . S
C1355 H1330 0.950 . S
C1355 C1354 1.397 . S
C1355 C1356 1.391 . S
C1356 C1355 1.391 . S
C1356 C1357 1.405 . S
C1357 H1331 0.950 . S
C1357 C1356 1.405 . S
C1357 C1358 1.367 . S
C1358 H1332 0.950 . S
C1358 C1353 1.386 . S
C1358 C1357 1.367 . S
C1359 C1353 1.483 . S
C1359 C1360 1.382 . S
C1359 C1361 1.403 . S
C1360 H1333 0.950 . S
C1360 C1346 1.411 . S
C1360 C1359 1.382 . S
C1361 C1345 1.411 . S
C1361 C1359 1.403 . S
C1361 C1362 1.489 . S
C1362 C1361 1.489 . S
C1362 C1363 1.383 . S
C1362 C1367 1.382 . S
C1363 H1334 0.950 . S
C1363 C1362 1.383 . S
C1363 C1364 1.395 . S
C1364 H1335 0.950 . S
C1364 C1363 1.395 . S
C1364 C1365 1.288 . S
C1365 C1364 1.288 . S
C1365 C1366 1.392 . S
C1366 H1336 0.951 . S
C1366 C1365 1.392 . S
C1366 C1367 1.392 . S
C1367 H1337 0.949 . S
C1367 C1362 1.382 . S
C1367 C1366 1.392 . S
H1368 C1387 0.949 . S
H1369 C1388 0.950 . S
H1370 C1390 0.950 . S
H1371 C1391 0.950 . S
H1372 C1393 0.950 . S
H1373 C1396 0.950 . S
H1374 C1397 0.950 . S
H1375 C1399 0.951 . S
H1376 C1400 0.949 . S
H1377 C1402 0.949 . S
H1378 C1403 0.950 . S
H1379 C1405 0.950 . S
H1380 C1406 0.950 . S
H1381 C1408 0.950 . S
H1382 C1411 0.950 . S
H1383 C1412 0.950 . S
H1384 C1414 0.951 . S
H1385 C1415 0.949 . S
C1386 C1387 1.376 . S
C1386 C1391 1.386 . S
C1386 C1392 1.483 . S
C1387 H1368 0.949 . S
C1387 C1386 1.376 . S
C1387 C1388 1.397 . S
C1388 H1369 0.950 . S
C1388 C1387 1.397 . S
C1388 C1389 1.391 . S
C1389 C1388 1.391 . S
C1389 C1390 1.405 . S
C1390 H1370 0.950 . S
C1390 C1389 1.405 . S
C1390 C1391 1.367 . S
C1391 H1371 0.950 . S
C1391 C1386 1.386 . S
C1391 C1390 1.367 . S
C1392 C1386 1.483 . S
C1392 C1393 1.382 . S
C1392 C1394 1.403 . S
C1393 H1372 0.950 . S
C1393 C1392 1.382 . S
C1393 C1409 1.411 . S
C1394 C1392 1.403 . S
C1394 C1395 1.489 . S
C1394 C1408 1.411 . S
C1395 C1394 1.489 . S
C1395 C1396 1.383 . S
C1395 C1400 1.382 . S
C1396 H1373 0.950 . S
C1396 C1395 1.383 . S
C1396 C1397 1.395 . S
C1397 H1374 0.950 . S
C1397 C1396 1.395 . S
C1397 C1398 1.288 . S
C1398 C1397 1.288 . S
C1398 C1399 1.392 . S
C1399 H1375 0.951 . S
C1399 C1398 1.392 . S
C1399 C1400 1.392 . S
C1400 H1376 0.949 . S
C1400 C1395 1.382 . S
C1400 C1399 1.392 . S
C1401 C1402 1.376 . S
C1401 C1406 1.386 . S
C1401 C1407 1.483 . S
C1402 H1377 0.949 . S
C1402 C1401 1.376 . S
C1402 C1403 1.397 . S
C1403 H1378 0.950 . S
C1403 C1402 1.397 . S
C1403 C1404 1.391 . S
C1404 C1403 1.391 . S
C1404 C1405 1.405 . S
C1405 H1379 0.950 . S
C1405 C1404 1.405 . S
C1405 C1406 1.367 . S
C1406 H1380 0.950 . S
C1406 C1401 1.386 . S
C1406 C1405 1.367 . S
C1407 C1401 1.483 . S
C1407 C1408 1.382 . S
C1407 C1409 1.403 . S
C1408 H1381 0.950 . S
C1408 C1394 1.411 . S
C1408 C1407 1.382 . S
C1409 C1393 1.411 . S
C1409 C1407 1.403 . S
C1409 C1410 1.489 . S
C1410 C1409 1.489 . S
C1410 C1411 1.383 . S
C1410 C1415 1.382 . S
C1411 H1382 0.950 . S
C1411 C1410 1.383 . S
C1411 C1412 1.395 . S
C1412 H1383 0.950 . S
C1412 C1411 1.395 . S
C1412 C1413 1.288 . S
C1413 C1412 1.288 . S
C1413 C1414 1.392 . S
C1414 H1384 0.951 . S
C1414 C1413 1.392 . S
C1414 C1415 1.392 . S
C1415 H1385 0.949 . S
C1415 C1410 1.382 . S
C1415 C1414 1.392 . S
H1416 C1435 0.949 . S
H1417 C1436 0.950 . S
H1418 C1438 0.950 . S
H1419 C1439 0.950 . S
H1420 C1441 0.950 . S
H1421 C1444 0.950 . S
H1422 C1445 0.950 . S
H1423 C1447 0.951 . S
H1424 C1448 0.949 . S
H1425 C1450 0.949 . S
H1426 C1451 0.950 . S
H1427 C1453 0.950 . S
H1428 C1454 0.950 . S
H1429 C1456 0.950 . S
H1430 C1459 0.950 . S
H1431 C1460 0.950 . S
H1432 C1462 0.951 . S
H1433 C1463 0.949 . S
C1434 C1435 1.376 . S
C1434 C1439 1.386 . S
C1434 C1440 1.483 . S
C1435 H1416 0.949 . S
C1435 C1434 1.376 . S
C1435 C1436 1.397 . S
C1436 H1417 0.950 . S
C1436 C1435 1.397 . S
C1436 C1437 1.391 . S
C1437 C1436 1.391 . S
C1437 C1438 1.405 . S
C1438 H1418 0.950 . S
C1438 C1437 1.405 . S
C1438 C1439 1.367 . S
C1439 H1419 0.950 . S
C1439 C1434 1.386 . S
C1439 C1438 1.367 . S
C1440 C1434 1.483 . S
C1440 C1441 1.382 . S
C1440 C1442 1.403 . S
C1441 H1420 0.950 . S
C1441 C1440 1.382 . S
C1441 C1457 1.411 . S
C1442 C1440 1.403 . S
C1442 C1443 1.489 . S
C1442 C1456 1.411 . S
C1443 C1442 1.489 . S
C1443 C1444 1.383 . S
C1443 C1448 1.382 . S
C1444 H1421 0.950 . S
C1444 C1443 1.383 . S
C1444 C1445 1.395 . S
C1445 H1422 0.950 . S
C1445 C1444 1.395 . S
C1445 C1446 1.288 . S
C1446 C1445 1.288 . S
C1446 C1447 1.392 . S
C1447 H1423 0.951 . S
C1447 C1446 1.392 . S
C1447 C1448 1.392 . S
C1448 H1424 0.949 . S
C1448 C1443 1.382 . S
C1448 C1447 1.392 . S
C1449 C1450 1.376 . S
C1449 C1454 1.386 . S
C1449 C1455 1.483 . S
C1450 H1425 0.949 . S
C1450 C1449 1.376 . S
C1450 C1451 1.397 . S
C1451 H1426 0.950 . S
C1451 C1450 1.397 . S
C1451 C1452 1.391 . S
C1452 C1451 1.391 . S
C1452 C1453 1.405 . S
C1453 H1427 0.950 . S
C1453 C1452 1.405 . S
C1453 C1454 1.367 . S
C1454 H1428 0.950 . S
C1454 C1449 1.386 . S
C1454 C1453 1.367 . S
C1455 C1449 1.483 . S
C1455 C1456 1.382 . S
C1455 C1457 1.403 . S
C1456 H1429 0.950 . S
C1456 C1442 1.411 . S
C1456 C1455 1.382 . S
C1457 C1441 1.411 . S
C1457 C1455 1.403 . S
C1457 C1458 1.489 . S
C1458 C1457 1.489 . S
C1458 C1459 1.383 . S
C1458 C1463 1.382 . S
C1459 H1430 0.950 . S
C1459 C1458 1.383 . S
C1459 C1460 1.395 . S
C1460 H1431 0.950 . S
C1460 C1459 1.395 . S
C1460 C1461 1.288 . S
C1461 C1460 1.288 . S
C1461 C1462 1.392 . S
C1462 H1432 0.951 . S
C1462 C1461 1.392 . S
C1462 C1463 1.392 . S
C1463 H1433 0.949 . S
C1463 C1458 1.382 . S
C1463 C1462 1.392 . S
H1464 C1483 0.949 . S
H1465 C1484 0.950 . S
H1466 C1486 0.950 . S
H1467 C1487 0.950 . S
H1468 C1489 0.950 . S
H1469 C1492 0.950 . S
H1470 C1493 0.950 . S
H1471 C1495 0.951 . S
H1472 C1496 0.949 . S
H1473 C1498 0.949 . S
H1474 C1499 0.950 . S
H1475 C1501 0.950 . S
H1476 C1502 0.950 . S
H1477 C1504 0.950 . S
H1478 C1507 0.950 . S
H1479 C1508 0.950 . S
H1480 C1510 0.951 . S
H1481 C1511 0.949 . S
C1482 C1483 1.376 . S
C1482 C1487 1.386 . S
C1482 C1488 1.483 . S
C1483 H1464 0.949 . S
C1483 C1482 1.376 . S
C1483 C1484 1.397 . S
C1484 H1465 0.950 . S
C1484 C1483 1.397 . S
C1484 C1485 1.391 . S
C1485 C1484 1.391 . S
C1485 C1486 1.405 . S
C1486 H1466 0.950 . S
C1486 C1485 1.405 . S
C1486 C1487 1.367 . S
C1487 H1467 0.950 . S
C1487 C1482 1.386 . S
C1487 C1486 1.367 . S
C1488 C1482 1.483 . S
C1488 C1489 1.382 . S
C1488 C1490 1.403 . S
C1489 H1468 0.950 . S
C1489 C1488 1.382 . S
C1489 C1505 1.411 . S
C1490 C1488 1.403 . S
C1490 C1491 1.489 . S
C1490 C1504 1.411 . S
C1491 C1490 1.489 . S
C1491 C1492 1.383 . S
C1491 C1496 1.382 . S
C1492 H1469 0.950 . S
C1492 C1491 1.383 . S
C1492 C1493 1.395 . S
C1493 H1470 0.950 . S
C1493 C1492 1.395 . S
C1493 C1494 1.288 . S
C1494 C1493 1.288 . S
C1494 C1495 1.392 . S
C1495 H1471 0.951 . S
C1495 C1494 1.392 . S
C1495 C1496 1.392 . S
C1496 H1472 0.949 . S
C1496 C1491 1.382 . S
C1496 C1495 1.392 . S
C1497 C1498 1.376 . S
C1497 C1502 1.386 . S
C1497 C1503 1.483 . S
C1498 H1473 0.949 . S
C1498 C1497 1.376 . S
C1498 C1499 1.397 . S
C1499 H1474 0.950 . S
C1499 C1498 1.397 . S
C1499 C1500 1.391 . S
C1500 C1499 1.391 . S
C1500 C1501 1.405 . S
C1501 H1475 0.950 . S
C1501 C1500 1.405 . S
C1501 C1502 1.367 . S
C1502 H1476 0.950 . S
C1502 C1497 1.386 . S
C1502 C1501 1.367 . S
C1503 C1497 1.483 . S
C1503 C1504 1.382 . S
C1503 C1505 1.403 . S
C1504 H1477 0.950 . S
C1504 C1490 1.411 . S
C1504 C1503 1.382 . S
C1505 C1489 1.411 . S
C1505 C1503 1.403 . S
C1505 C1506 1.489 . S
C1506 C1505 1.489 . S
C1506 C1507 1.383 . S
C1506 C1511 1.382 . S
C1507 H1478 0.950 . S
C1507 C1506 1.383 . S
C1507 C1508 1.395 . S
C1508 H1479 0.950 . S
C1508 C1507 1.395 . S
C1508 C1509 1.288 . S
C1509 C1508 1.288 . S
C1509 C1510 1.392 . S
C1510 H1480 0.951 . S
C1510 C1509 1.392 . S
C1510 C1511 1.392 . S
C1511 H1481 0.949 . S
C1511 C1506 1.382 . S
C1511 C1510 1.392 . S
H1512 C1518 0.930 . S
H1513 C1522 0.930 . S
H1514 C1527 0.929 . S
H1515 C1525 0.929 . S
H1516 C1520 0.929 . S
H1517 C1526 0.929 . S
C1518 H1512 0.930 . S
C1518 C1519 1.367 1_455 S
C1518 C1526 1.378 . S
C1519 C1518 1.367 1_655 S
C1519 C1527 1.433 . S
C1520 H1516 0.929 . S
C1520 C1522 1.378 . S
C1520 C1524 1.350 . S
C1521 C1524 1.463 . S
C1521 C1526 1.350 1_655 S
C1521 N1529 1.427 . S
C1522 H1513 0.930 . S
C1522 C1520 1.378 . S
C1522 C1523 1.367 . S
C1523 C1522 1.367 . S
C1523 C1525 1.433 1_655 S
C1524 C1520 1.350 . S
C1524 C1521 1.463 . S
C1524 N1528 1.427 1_655 S
C1525 H1515 0.929 . S
C1525 C1523 1.433 1_455 S
C1525 N1528 1.384 . S
C1526 H1517 0.929 . S
C1526 C1518 1.378 . S
C1526 C1521 1.350 1_455 S
C1527 H1514 0.929 . S
C1527 C1519 1.433 . S
C1527 N1529 1.384 . S
N1528 C1524 1.427 1_455 S
N1528 C1525 1.384 . S
N1529 C1521 1.427 . S
N1529 C1527 1.384 . S
H1530 C1536 0.930 . S
H1531 C1540 0.930 . S
H1532 C1545 0.929 . S
H1533 C1543 0.929 . S
H1534 C1538 0.929 . S
H1535 C1544 0.929 . S
C1536 H1530 0.930 . S
C1536 C1537 1.367 . S
C1536 C1544 1.378 . S
C1537 C1536 1.367 . S
C1537 C1545 1.433 . S
C1538 H1534 0.929 . S
C1538 C1540 1.378 . S
C1538 C1542 1.350 . S
C1539 C1542 1.463 . S
C1539 C1544 1.350 . S
C1539 N1547 1.427 . S
C1540 H1531 0.930 . S
C1540 C1538 1.378 . S
C1540 C1541 1.367 . S
C1541 C1540 1.367 . S
C1541 C1543 1.433 . S
C1542 C1538 1.350 . S
C1542 C1539 1.463 . S
C1542 N1546 1.427 . S
C1543 H1533 0.929 . S
C1543 C1541 1.433 . S
C1543 N1546 1.384 . S
C1544 H1535 0.929 . S
C1544 C1536 1.378 . S
C1544 C1539 1.350 . S
C1545 H1532 0.929 . S
C1545 C1537 1.433 . S
C1545 N1547 1.384 . S
N1546 C1542 1.427 . S
N1546 C1543 1.384 . S
N1547 C1539 1.427 . S
N1547 C1545 1.384 . S
H1548 C1554 0.930 . S
H1549 C1558 0.930 . S
H1550 C1563 0.929 . S
H1551 C1561 0.929 . S
H1552 C1556 0.929 . S
H1553 C1562 0.929 . S
C1554 H1548 0.930 . S
C1554 C1555 1.367 1_565 S
C1554 C1562 1.378 . S
C1555 C1554 1.367 1_545 S
C1555 C1563 1.433 . S
C1556 H1552 0.929 . S
C1556 C1558 1.378 . S
C1556 C1560 1.350 . S
C1557 C1560 1.463 . S
C1557 C1562 1.350 1_545 S
C1557 N1565 1.427 . S
C1558 H1549 0.930 . S
C1558 C1556 1.378 . S
C1558 C1559 1.367 . S
C1559 C1558 1.367 . S
C1559 C1561 1.433 1_545 S
C1560 C1556 1.350 . S
C1560 C1557 1.463 . S
C1560 N1564 1.427 1_545 S
C1561 H1551 0.929 . S
C1561 C1559 1.433 1_565 S
C1561 N1564 1.384 . S
C1562 H1553 0.929 . S
C1562 C1554 1.378 . S
C1562 C1557 1.350 1_565 S
C1563 H1550 0.929 . S
C1563 C1555 1.433 . S
C1563 N1565 1.384 . S
N1564 C1560 1.427 1_565 S
N1564 C1561 1.384 . S
N1565 C1557 1.427 . S
N1565 C1563 1.384 . S
H1566 C1572 0.930 . S
H1567 C1576 0.930 . S
H1568 C1581 0.929 . S
H1569 C1579 0.929 . S
H1570 C1574 0.929 . S
H1571 C1580 0.929 . S
C1572 H1566 0.930 . S
C1572 C1573 1.367 . S
C1572 C1580 1.378 . S
C1573 C1572 1.367 . S
C1573 C1581 1.433 1_565 S
C1574 H1570 0.929 . S
C1574 C1576 1.378 . S
C1574 C1578 1.350 1_545 S
C1575 C1578 1.463 . S
C1575 C1580 1.350 . S
C1575 N1583 1.427 1_565 S
C1576 H1567 0.930 . S
C1576 C1574 1.378 . S
C1576 C1577 1.367 1_545 S
C1577 C1576 1.367 1_565 S
C1577 C1579 1.433 . S
C1578 C1574 1.350 1_565 S
C1578 C1575 1.463 . S
C1578 N1582 1.427 . S
C1579 H1569 0.929 . S
C1579 C1577 1.433 . S
C1579 N1582 1.384 . S
C1580 H1571 0.929 . S
C1580 C1572 1.378 . S
C1580 C1575 1.350 . S
C1581 H1568 0.929 . S
C1581 C1573 1.433 1_545 S
C1581 N1583 1.384 . S
N1582 C1578 1.427 . S
N1582 C1579 1.384 . S
N1583 C1575 1.427 1_545 S
N1583 C1581 1.384 . S
H1584 C1590 0.930 . S
H1585 C1594 0.930 . S
H1586 C1599 0.929 . S
H1587 C1597 0.929 . S
H1588 C1592 0.929 . S
H1589 C1598 0.929 . S
C1590 H1584 0.930 . S
C1590 C1591 1.367 . S
C1590 C1598 1.378 . S
C1591 C1590 1.367 . S
C1591 C1599 1.433 1_455 S
C1592 H1588 0.929 . S
C1592 C1594 1.378 . S
C1592 C1596 1.350 1_655 S
C1593 C1596 1.463 . S
C1593 C1598 1.350 . S
C1593 N1601 1.427 1_455 S
C1594 H1585 0.930 . S
C1594 C1592 1.378 . S
C1594 C1595 1.367 1_655 S
C1595 C1594 1.367 1_455 S
C1595 C1597 1.433 . S
C1596 C1592 1.350 1_455 S
C1596 C1593 1.463 . S
C1596 N1600 1.427 . S
C1597 H1587 0.929 . S
C1597 C1595 1.433 . S
C1597 N1600 1.384 . S
C1598 H1589 0.929 . S
C1598 C1590 1.378 . S
C1598 C1593 1.350 . S
C1599 H1586 0.929 . S
C1599 C1591 1.433 1_655 S
C1599 N1601 1.384 . S
N1600 C1596 1.427 . S
N1600 C1597 1.384 . S
N1601 C1593 1.427 1_655 S
N1601 C1599 1.384 . S
H1602 C1608 0.930 . S
H1603 C1612 0.930 . S
H1604 C1617 0.929 . S
H1605 C1615 0.929 . S
H1606 C1610 0.929 . S
H1607 C1616 0.929 . S
C1608 H1602 0.930 . S
C1608 C1609 1.367 . S
C1608 C1616 1.378 . S
C1609 C1608 1.367 . S
C1609 C1617 1.433 . S
C1610 H1606 0.929 . S
C1610 C1612 1.378 . S
C1610 C1614 1.350 . S
C1611 C1614 1.463 . S
C1611 C1616 1.350 . S
C1611 N1619 1.427 . S
C1612 H1603 0.930 . S
C1612 C1610 1.378 . S
C1612 C1613 1.367 . S
C1613 C1612 1.367 . S
C1613 C1615 1.433 . S
C1614 C1610 1.350 . S
C1614 C1611 1.463 . S
C1614 N1618 1.427 . S
C1615 H1605 0.929 . S
C1615 C1613 1.433 . S
C1615 N1618 1.384 . S
C1616 H1607 0.929 . S
C1616 C1608 1.378 . S
C1616 C1611 1.350 . S
C1617 H1604 0.929 . S
C1617 C1609 1.433 . S
C1617 N1619 1.384 . S
N1618 C1614 1.427 . S
N1618 C1615 1.384 . S
N1619 C1611 1.427 . S
N1619 C1617 1.384 . S
H1620 C1626 0.930 . S
H1621 C1630 0.930 . S
H1622 C1635 0.929 . S
H1623 C1633 0.929 . S
H1624 C1628 0.929 . S
H1625 C1634 0.929 . S
C1626 H1620 0.930 . S
C1626 C1627 1.367 1_655 S
C1626 C1634 1.378 . S
C1627 C1626 1.367 1_455 S
C1627 C1635 1.433 . S
C1628 H1624 0.929 . S
C1628 C1630 1.378 . S
C1628 C1632 1.350 . S
C1629 C1632 1.463 . S
C1629 C1634 1.350 1_455 S
C1629 N1637 1.427 . S
C1630 H1621 0.930 . S
C1630 C1628 1.378 . S
C1630 C1631 1.367 . S
C1631 C1630 1.367 . S
C1631 C1633 1.433 1_455 S
C1632 C1628 1.350 . S
C1632 C1629 1.463 . S
C1632 N1636 1.427 1_455 S
C1633 H1623 0.929 . S
C1633 C1631 1.433 1_655 S
C1633 N1636 1.384 . S
C1634 H1625 0.929 . S
C1634 C1626 1.378 . S
C1634 C1629 1.350 1_655 S
C1635 H1622 0.929 . S
C1635 C1627 1.433 . S
C1635 N1637 1.384 . S
N1636 C1632 1.427 1_655 S
N1636 C1633 1.384 . S
N1637 C1629 1.427 . S
N1637 C1635 1.384 . S
H1638 C1644 0.930 . S
H1639 C1648 0.930 . S
H1640 C1653 0.929 . S
H1641 C1651 0.929 . S
H1642 C1646 0.929 . S
H1643 C1652 0.929 . S
C1644 H1638 0.930 . S
C1644 C1645 1.367 . S
C1644 C1652 1.378 . S
C1645 C1644 1.367 . S
C1645 C1653 1.433 . S
C1646 H1642 0.929 . S
C1646 C1648 1.378 . S
C1646 C1650 1.350 . S
C1647 C1650 1.463 . S
C1647 C1652 1.350 . S
C1647 N1655 1.427 . S
C1648 H1639 0.930 . S
C1648 C1646 1.378 . S
C1648 C1649 1.367 . S
C1649 C1648 1.367 . S
C1649 C1651 1.433 . S
C1650 C1646 1.350 . S
C1650 C1647 1.463 . S
C1650 N1654 1.427 . S
C1651 H1641 0.929 . S
C1651 C1649 1.433 . S
C1651 N1654 1.384 . S
C1652 H1643 0.929 . S
C1652 C1644 1.378 . S
C1652 C1647 1.350 . S
C1653 H1640 0.929 . S
C1653 C1645 1.433 . S
C1653 N1655 1.384 . S
N1654 C1650 1.427 . S
N1654 C1651 1.384 . S
N1655 C1647 1.427 . S
N1655 C1653 1.384 . S
H1656 C1662 0.930 . S
H1657 C1666 0.930 . S
H1658 C1671 0.929 . S
H1659 C1669 0.929 . S
H1660 C1664 0.929 . S
H1661 C1670 0.929 . S
C1662 H1656 0.930 . S
C1662 C1663 1.367 1_545 S
C1662 C1670 1.378 . S
C1663 C1662 1.367 1_565 S
C1663 C1671 1.433 . S
C1664 H1660 0.929 . S
C1664 C1666 1.378 . S
C1664 C1668 1.350 . S
C1665 C1668 1.463 . S
C1665 C1670 1.350 1_565 S
C1665 N1673 1.427 . S
C1666 H1657 0.930 . S
C1666 C1664 1.378 . S
C1666 C1667 1.367 . S
C1667 C1666 1.367 . S
C1667 C1669 1.433 1_565 S
C1668 C1664 1.350 . S
C1668 C1665 1.463 . S
C1668 N1672 1.427 1_565 S
C1669 H1659 0.929 . S
C1669 C1667 1.433 1_545 S
C1669 N1672 1.384 . S
C1670 H1661 0.929 . S
C1670 C1662 1.378 . S
C1670 C1665 1.350 1_545 S
C1671 H1658 0.929 . S
C1671 C1663 1.433 . S
C1671 N1673 1.384 . S
N1672 C1668 1.427 1_545 S
N1672 C1669 1.384 . S
N1673 C1665 1.427 . S
N1673 C1671 1.384 . S
H1674 C1680 0.930 . S
H1675 C1684 0.930 . S
H1676 C1689 0.929 . S
H1677 C1687 0.929 . S
H1678 C1682 0.929 . S
H1679 C1688 0.929 . S
C1680 H1674 0.930 . S
C1680 C1681 1.367 . S
C1680 C1688 1.378 . S
C1681 C1680 1.367 . S
C1681 C1689 1.433 1_545 S
C1682 H1678 0.929 . S
C1682 C1684 1.378 . S
C1682 C1686 1.350 1_565 S
C1683 C1686 1.463 . S
C1683 C1688 1.350 . S
C1683 N1691 1.427 1_545 S
C1684 H1675 0.930 . S
C1684 C1682 1.378 . S
C1684 C1685 1.367 1_565 S
C1685 C1684 1.367 1_545 S
C1685 C1687 1.433 . S
C1686 C1682 1.350 1_545 S
C1686 C1683 1.463 . S
C1686 N1690 1.427 . S
C1687 H1677 0.929 . S
C1687 C1685 1.433 . S
C1687 N1690 1.384 . S
C1688 H1679 0.929 . S
C1688 C1680 1.378 . S
C1688 C1683 1.350 . S
C1689 H1676 0.929 . S
C1689 C1681 1.433 1_565 S
C1689 N1691 1.384 . S
N1690 C1686 1.427 . S
N1690 C1687 1.384 . S
N1691 C1683 1.427 1_565 S
N1691 C1689 1.384 . S
H1692 C1698 0.930 . S
H1693 C1702 0.930 . S
H1694 C1707 0.929 . S
H1695 C1705 0.929 . S
H1696 C1700 0.929 . S
H1697 C1706 0.929 . S
C1698 H1692 0.930 . S
C1698 C1699 1.367 1_455 S
C1698 C1706 1.378 . S
C1699 C1698 1.367 1_655 S
C1699 C1707 1.433 . S
C1700 H1696 0.929 . S
C1700 C1702 1.378 . S
C1700 C1704 1.350 . S
C1701 C1704 1.463 . S
C1701 C1706 1.350 1_655 S
C1701 N1709 1.427 . S
C1702 H1693 0.930 . S
C1702 C1700 1.378 . S
C1702 C1703 1.367 . S
C1703 C1702 1.367 . S
C1703 C1705 1.433 1_655 S
C1704 C1700 1.350 . S
C1704 C1701 1.463 . S
C1704 N1708 1.427 1_655 S
C1705 H1695 0.929 . S
C1705 C1703 1.433 1_455 S
C1705 N1708 1.384 . S
C1706 H1697 0.929 . S
C1706 C1698 1.378 . S
C1706 C1701 1.350 1_455 S
C1707 H1694 0.929 . S
C1707 C1699 1.433 . S
C1707 N1709 1.384 . S
N1708 C1704 1.427 1_455 S
N1708 C1705 1.384 . S
N1709 C1701 1.427 . S
N1709 C1707 1.384 . S
H1710 C1716 0.930 . S
H1711 C1720 0.930 . S
H1712 C1725 0.929 . S
H1713 C1723 0.929 . S
H1714 C1718 0.929 . S
H1715 C1724 0.929 . S
C1716 H1710 0.930 . S
C1716 C1717 1.367 . S
C1716 C1724 1.378 . S
C1717 C1716 1.367 . S
C1717 C1725 1.433 . S
C1718 H1714 0.929 . S
C1718 C1720 1.378 . S
C1718 C1722 1.350 . S
C1719 C1722 1.463 . S
C1719 C1724 1.350 . S
C1719 N1727 1.427 . S
C1720 H1711 0.930 . S
C1720 C1718 1.378 . S
C1720 C1721 1.367 . S
C1721 C1720 1.367 . S
C1721 C1723 1.433 . S
C1722 C1718 1.350 . S
C1722 C1719 1.463 . S
C1722 N1726 1.427 . S
C1723 H1713 0.929 . S
C1723 C1721 1.433 . S
C1723 N1726 1.384 . S
C1724 H1715 0.929 . S
C1724 C1716 1.378 . S
C1724 C1719 1.350 . S
C1725 H1712 0.929 . S
C1725 C1717 1.433 . S
C1725 N1727 1.384 . S
N1726 C1722 1.427 . S
N1726 C1723 1.384 . S
N1727 C1719 1.427 . S
N1727 C1725 1.384 . S
H1728 C1734 0.930 . S
H1729 C1738 0.930 . S
H1730 C1743 0.929 . S
H1731 C1741 0.929 . S
H1732 C1736 0.929 . S
H1733 C1742 0.929 . S
C1734 H1728 0.930 . S
C1734 C1735 1.367 . S
C1734 C1742 1.378 . S
C1735 C1734 1.367 . S
C1735 C1743 1.433 . S
C1736 H1732 0.929 . S
C1736 C1738 1.378 . S
C1736 C1740 1.350 . S
C1737 C1740 1.463 . S
C1737 C1742 1.350 . S
C1737 N1745 1.427 . S
C1738 H1729 0.930 . S
C1738 C1736 1.378 . S
C1738 C1739 1.367 . S
C1739 C1738 1.367 . S
C1739 C1741 1.433 . S
C1740 C1736 1.350 . S
C1740 C1737 1.463 . S
C1740 N1744 1.427 . S
C1741 H1731 0.929 . S
C1741 C1739 1.433 . S
C1741 N1744 1.384 . S
C1742 H1733 0.929 . S
C1742 C1734 1.378 . S
C1742 C1737 1.350 . S
C1743 H1730 0.929 . S
C1743 C1735 1.433 . S
C1743 N1745 1.384 . S
N1744 C1740 1.427 . S
N1744 C1741 1.384 . S
N1745 C1737 1.427 . S
N1745 C1743 1.384 . S
H1746 C1752 0.930 . S
H1747 C1756 0.930 . S
H1748 C1761 0.929 . S
H1749 C1759 0.929 . S
H1750 C1754 0.929 . S
H1751 C1760 0.929 . S
C1752 H1746 0.930 . S
C1752 C1753 1.367 . S
C1752 C1760 1.378 . S
C1753 C1752 1.367 . S
C1753 C1761 1.433 . S
C1754 H1750 0.929 . S
C1754 C1756 1.378 . S
C1754 C1758 1.350 . S
C1755 C1758 1.463 . S
C1755 C1760 1.350 . S
C1755 N1763 1.427 . S
C1756 H1747 0.930 . S
C1756 C1754 1.378 . S
C1756 C1757 1.367 . S
C1757 C1756 1.367 . S
C1757 C1759 1.433 . S
C1758 C1754 1.350 . S
C1758 C1755 1.463 . S
C1758 N1762 1.427 . S
C1759 H1749 0.929 . S
C1759 C1757 1.433 . S
C1759 N1762 1.384 . S
C1760 H1751 0.929 . S
C1760 C1752 1.378 . S
C1760 C1755 1.350 . S
C1761 H1748 0.929 . S
C1761 C1753 1.433 . S
C1761 N1763 1.384 . S
N1762 C1758 1.427 . S
N1762 C1759 1.384 . S
N1763 C1755 1.427 . S
N1763 C1761 1.384 . S
H1764 C1770 0.930 . S
H1765 C1774 0.930 . S
H1766 C1779 0.929 . S
H1767 C1777 0.929 . S
H1768 C1772 0.929 . S
H1769 C1778 0.929 . S
C1770 H1764 0.930 . S
C1770 C1771 1.367 . S
C1770 C1778 1.378 . S
C1771 C1770 1.367 . S
C1771 C1779 1.433 . S
C1772 H1768 0.929 . S
C1772 C1774 1.378 . S
C1772 C1776 1.350 . S
C1773 C1776 1.463 . S
C1773 C1778 1.350 . S
C1773 N1781 1.427 . S
C1774 H1765 0.930 . S
C1774 C1772 1.378 . S
C1774 C1775 1.367 . S
C1775 C1774 1.367 . S
C1775 C1777 1.433 . S
C1776 C1772 1.350 . S
C1776 C1773 1.463 . S
C1776 N1780 1.427 . S
C1777 H1767 0.929 . S
C1777 C1775 1.433 . S
C1777 N1780 1.384 . S
C1778 H1769 0.929 . S
C1778 C1770 1.378 . S
C1778 C1773 1.350 . S
C1779 H1766 0.929 . S
C1779 C1771 1.433 . S
C1779 N1781 1.384 . S
N1780 C1776 1.427 . S
N1780 C1777 1.384 . S
N1781 C1773 1.427 . S
N1781 C1779 1.384 . S
H1782 C1788 0.930 . S
H1783 C1792 0.930 . S
H1784 C1797 0.929 . S
H1785 C1795 0.929 . S
H1786 C1790 0.929 . S
H1787 C1796 0.929 . S
C1788 H1782 0.930 . S
C1788 C1789 1.367 . S
C1788 C1796 1.378 . S
C1789 C1788 1.367 . S
C1789 C1797 1.433 . S
C1790 H1786 0.929 . S
C1790 C1792 1.378 . S
C1790 C1794 1.350 . S
C1791 C1794 1.463 . S
C1791 C1796 1.350 . S
C1791 N1799 1.427 . S
C1792 H1783 0.930 . S
C1792 C1790 1.378 . S
C1792 C1793 1.367 . S
C1793 C1792 1.367 . S
C1793 C1795 1.433 . S
C1794 C1790 1.350 . S
C1794 C1791 1.463 . S
C1794 N1798 1.427 . S
C1795 H1785 0.929 . S
C1795 C1793 1.433 . S
C1795 N1798 1.384 . S
C1796 H1787 0.929 . S
C1796 C1788 1.378 . S
C1796 C1791 1.350 . S
C1797 H1784 0.929 . S
C1797 C1789 1.433 . S
C1797 N1799 1.384 . S
N1798 C1794 1.427 . S
N1798 C1795 1.384 . S
N1799 C1791 1.427 . S
N1799 C1797 1.384 . S
H1800 C1806 0.930 . S
H1801 C1810 0.930 . S
H1802 C1815 0.929 . S
H1803 C1813 0.929 . S
H1804 C1808 0.929 . S
H1805 C1814 0.929 . S
C1806 H1800 0.930 . S
C1806 C1807 1.367 . S
C1806 C1814 1.378 . S
C1807 C1806 1.367 . S
C1807 C1815 1.433 . S
C1808 H1804 0.929 . S
C1808 C1810 1.378 . S
C1808 C1812 1.350 . S
C1809 C1812 1.463 . S
C1809 C1814 1.350 . S
C1809 N1817 1.427 . S
C1810 H1801 0.930 . S
C1810 C1808 1.378 . S
C1810 C1811 1.367 . S
C1811 C1810 1.367 . S
C1811 C1813 1.433 . S
C1812 C1808 1.350 . S
C1812 C1809 1.463 . S
C1812 N1816 1.427 . S
C1813 H1803 0.929 . S
C1813 C1811 1.433 . S
C1813 N1816 1.384 . S
C1814 H1805 0.929 . S
C1814 C1806 1.378 . S
C1814 C1809 1.350 . S
C1815 H1802 0.929 . S
C1815 C1807 1.433 . S
C1815 N1817 1.384 . S
N1816 C1812 1.427 . S
N1816 C1813 1.384 . S
N1817 C1809 1.427 . S
N1817 C1815 1.384 . S
H1818 C1824 0.930 . S
H1819 C1828 0.930 . S
H1820 C1833 0.929 . S
H1821 C1831 0.929 . S
H1822 C1826 0.929 . S
H1823 C1832 0.929 . S
C1824 H1818 0.930 . S
C1824 C1825 1.367 . S
C1824 C1832 1.378 . S
C1825 C1824 1.367 . S
C1825 C1833 1.433 . S
C1826 H1822 0.929 . S
C1826 C1828 1.378 . S
C1826 C1830 1.350 . S
C1827 C1830 1.463 . S
C1827 C1832 1.350 . S
C1827 N1835 1.427 . S
C1828 H1819 0.930 . S
C1828 C1826 1.378 . S
C1828 C1829 1.367 . S
C1829 C1828 1.367 . S
C1829 C1831 1.433 . S
C1830 C1826 1.350 . S
C1830 C1827 1.463 . S
C1830 N1834 1.427 . S
C1831 H1821 0.929 . S
C1831 C1829 1.433 . S
C1831 N1834 1.384 . S
C1832 H1823 0.929 . S
C1832 C1824 1.378 . S
C1832 C1827 1.350 . S
C1833 H1820 0.929 . S
C1833 C1825 1.433 . S
C1833 N1835 1.384 . S
N1834 C1830 1.427 . S
N1834 C1831 1.384 . S
N1835 C1827 1.427 . S
N1835 C1833 1.384 . S
H1836 C1842 0.930 . S
H1837 C1846 0.930 . S
H1838 C1851 0.929 . S
H1839 C1849 0.929 . S
H1840 C1844 0.929 . S
H1841 C1850 0.929 . S
C1842 H1836 0.930 . S
C1842 C1843 1.367 . S
C1842 C1850 1.378 . S
C1843 C1842 1.367 . S
C1843 C1851 1.433 . S
C1844 H1840 0.929 . S
C1844 C1846 1.378 . S
C1844 C1848 1.350 . S
C1845 C1848 1.463 . S
C1845 C1850 1.350 . S
C1845 N1853 1.427 . S
C1846 H1837 0.930 . S
C1846 C1844 1.378 . S
C1846 C1847 1.367 . S
C1847 C1846 1.367 . S
C1847 C1849 1.433 . S
C1848 C1844 1.350 . S
C1848 C1845 1.463 . S
C1848 N1852 1.427 . S
C1849 H1839 0.929 . S
C1849 C1847 1.433 . S
C1849 N1852 1.384 . S
C1850 H1841 0.929 . S
C1850 C1842 1.378 . S
C1850 C1845 1.350 . S
C1851 H1838 0.929 . S
C1851 C1843 1.433 . S
C1851 N1853 1.384 . S
N1852 C1848 1.427 . S
N1852 C1849 1.384 . S
N1853 C1845 1.427 . S
N1853 C1851 1.384 . S
H1854 C1860 0.930 . S
H1855 C1864 0.930 . S
H1856 C1869 0.929 . S
H1857 C1867 0.929 . S
H1858 C1862 0.929 . S
H1859 C1868 0.929 . S
C1860 H1854 0.930 . S
C1860 C1861 1.367 . S
C1860 C1868 1.378 . S
C1861 C1860 1.367 . S
C1861 C1869 1.433 . S
C1862 H1858 0.929 . S
C1862 C1864 1.378 . S
C1862 C1866 1.350 . S
C1863 C1866 1.463 . S
C1863 C1868 1.350 . S
C1863 N1871 1.427 . S
C1864 H1855 0.930 . S
C1864 C1862 1.378 . S
C1864 C1865 1.367 . S
C1865 C1864 1.367 . S
C1865 C1867 1.433 . S
C1866 C1862 1.350 . S
C1866 C1863 1.463 . S
C1866 N1870 1.427 . S
C1867 H1857 0.929 . S
C1867 C1865 1.433 . S
C1867 N1870 1.384 . S
C1868 H1859 0.929 . S
C1868 C1860 1.378 . S
C1868 C1863 1.350 . S
C1869 H1856 0.929 . S
C1869 C1861 1.433 . S
C1869 N1871 1.384 . S
N1870 C1866 1.427 . S
N1870 C1867 1.384 . S
N1871 C1863 1.427 . S
N1871 C1869 1.384 . S
H1872 C1878 0.930 . S
H1873 C1882 0.930 . S
H1874 C1887 0.929 . S
H1875 C1885 0.929 . S
H1876 C1880 0.929 . S
H1877 C1886 0.929 . S
C1878 H1872 0.930 . S
C1878 C1879 1.367 . S
C1878 C1886 1.378 . S
C1879 C1878 1.367 . S
C1879 C1887 1.433 . S
C1880 H1876 0.929 . S
C1880 C1882 1.378 . S
C1880 C1884 1.350 . S
C1881 C1884 1.463 . S
C1881 C1886 1.350 . S
C1881 N1889 1.427 . S
C1882 H1873 0.930 . S
C1882 C1880 1.378 . S
C1882 C1883 1.367 . S
C1883 C1882 1.367 . S
C1883 C1885 1.433 . S
C1884 C1880 1.350 . S
C1884 C1881 1.463 . S
C1884 N1888 1.427 . S
C1885 H1875 0.929 . S
C1885 C1883 1.433 . S
C1885 N1888 1.384 . S
C1886 H1877 0.929 . S
C1886 C1878 1.378 . S
C1886 C1881 1.350 . S
C1887 H1874 0.929 . S
C1887 C1879 1.433 . S
C1887 N1889 1.384 . S
N1888 C1884 1.427 . S
N1888 C1885 1.384 . S
N1889 C1881 1.427 . S
N1889 C1887 1.384 . S
H1890 C1896 0.930 . S
H1891 C1900 0.930 . S
H1892 C1905 0.929 . S
H1893 C1903 0.929 . S
H1894 C1898 0.929 . S
H1895 C1904 0.929 . S
C1896 H1890 0.930 . S
C1896 C1897 1.367 . S
C1896 C1904 1.378 . S
C1897 C1896 1.367 . S
C1897 C1905 1.433 . S
C1898 H1894 0.929 . S
C1898 C1900 1.378 . S
C1898 C1902 1.350 . S
C1899 C1902 1.463 . S
C1899 C1904 1.350 . S
C1899 N1907 1.427 . S
C1900 H1891 0.930 . S
C1900 C1898 1.378 . S
C1900 C1901 1.367 . S
C1901 C1900 1.367 . S
C1901 C1903 1.433 . S
C1902 C1898 1.350 . S
C1902 C1899 1.463 . S
C1902 N1906 1.427 . S
C1903 H1893 0.929 . S
C1903 C1901 1.433 . S
C1903 N1906 1.384 . S
C1904 H1895 0.929 . S
C1904 C1896 1.378 . S
C1904 C1899 1.350 . S
C1905 H1892 0.929 . S
C1905 C1897 1.433 . S
C1905 N1907 1.384 . S
N1906 C1902 1.427 . S
N1906 C1903 1.384 . S
N1907 C1899 1.427 . S
N1907 C1905 1.384 . S
H1908 C1914 0.930 . S
H1909 C1918 0.930 . S
H1910 C1923 0.929 . S
H1911 C1921 0.929 . S
H1912 C1916 0.929 . S
H1913 C1922 0.929 . S
C1914 H1908 0.930 . S
C1914 C1915 1.367 . S
C1914 C1922 1.378 . S
C1915 C1914 1.367 . S
C1915 C1923 1.433 . S
C1916 H1912 0.929 . S
C1916 C1918 1.378 . S
C1916 C1920 1.350 . S
C1917 C1920 1.463 . S
C1917 C1922 1.350 . S
C1917 N1925 1.427 . S
C1918 H1909 0.930 . S
C1918 C1916 1.378 . S
C1918 C1919 1.367 . S
C1919 C1918 1.367 . S
C1919 C1921 1.433 . S
C1920 C1916 1.350 . S
C1920 C1917 1.463 . S
C1920 N1924 1.427 . S
C1921 H1911 0.929 . S
C1921 C1919 1.433 . S
C1921 N1924 1.384 . S
C1922 H1913 0.929 . S
C1922 C1914 1.378 . S
C1922 C1917 1.350 . S
C1923 H1910 0.929 . S
C1923 C1915 1.433 . S
C1923 N1925 1.384 . S
N1924 C1920 1.427 . S
N1924 C1921 1.384 . S
N1925 C1917 1.427 . S
N1925 C1923 1.384 . S
H1926 C1932 0.930 . S
H1927 C1936 0.930 . S
H1928 C1941 0.929 . S
H1929 C1939 0.929 . S
H1930 C1934 0.929 . S
H1931 C1940 0.929 . S
C1932 H1926 0.930 . S
C1932 C1933 1.367 . S
C1932 C1940 1.378 . S
C1933 C1932 1.367 . S
C1933 C1941 1.433 . S
C1934 H1930 0.929 . S
C1934 C1936 1.378 . S
C1934 C1938 1.350 . S
C1935 C1938 1.463 . S
C1935 C1940 1.350 . S
C1935 N1943 1.427 . S
C1936 H1927 0.930 . S
C1936 C1934 1.378 . S
C1936 C1937 1.367 . S
C1937 C1936 1.367 . S
C1937 C1939 1.433 . S
C1938 C1934 1.350 . S
C1938 C1935 1.463 . S
C1938 N1942 1.427 . S
C1939 H1929 0.929 . S
C1939 C1937 1.433 . S
C1939 N1942 1.384 . S
C1940 H1931 0.929 . S
C1940 C1932 1.378 . S
C1940 C1935 1.350 . S
C1941 H1928 0.929 . S
C1941 C1933 1.433 . S
C1941 N1943 1.384 . S
N1942 C1938 1.427 . S
N1942 C1939 1.384 . S
N1943 C1935 1.427 . S
N1943 C1941 1.384 . S
H1944 C1950 0.930 . S
H1945 C1954 0.930 . S
H1946 C1959 0.929 . S
H1947 C1957 0.929 . S
H1948 C1952 0.929 . S
H1949 C1958 0.929 . S
C1950 H1944 0.930 . S
C1950 C1951 1.367 . S
C1950 C1958 1.378 . S
C1951 C1950 1.367 . S
C1951 C1959 1.433 . S
C1952 H1948 0.929 . S
C1952 C1954 1.378 . S
C1952 C1956 1.350 . S
C1953 C1956 1.463 . S
C1953 C1958 1.350 . S
C1953 N1961 1.427 . S
C1954 H1945 0.930 . S
C1954 C1952 1.378 . S
C1954 C1955 1.367 . S
C1955 C1954 1.367 . S
C1955 C1957 1.433 . S
C1956 C1952 1.350 . S
C1956 C1953 1.463 . S
C1956 N1960 1.427 . S
C1957 H1947 0.929 . S
C1957 C1955 1.433 . S
C1957 N1960 1.384 . S
C1958 H1949 0.929 . S
C1958 C1950 1.378 . S
C1958 C1953 1.350 . S
C1959 H1946 0.929 . S
C1959 C1951 1.433 . S
C1959 N1961 1.384 . S
N1960 C1956 1.427 . S
N1960 C1957 1.384 . S
N1961 C1953 1.427 . S
N1961 C1959 1.384 . S
H1962 C1968 0.930 . S
H1963 C1972 0.930 . S
H1964 C1977 0.929 . S
H1965 C1975 0.929 . S
H1966 C1970 0.929 . S
H1967 C1976 0.929 . S
C1968 H1962 0.930 . S
C1968 C1969 1.367 . S
C1968 C1976 1.378 . S
C1969 C1968 1.367 . S
C1969 C1977 1.433 . S
C1970 H1966 0.929 . S
C1970 C1972 1.378 . S
C1970 C1974 1.350 . S
C1971 C1974 1.463 . S
C1971 C1976 1.350 . S
C1971 N1979 1.427 . S
C1972 H1963 0.930 . S
C1972 C1970 1.378 . S
C1972 C1973 1.367 . S
C1973 C1972 1.367 . S
C1973 C1975 1.433 . S
C1974 C1970 1.350 . S
C1974 C1971 1.463 . S
C1974 N1978 1.427 . S
C1975 H1965 0.929 . S
C1975 C1973 1.433 . S
C1975 N1978 1.384 . S
C1976 H1967 0.929 . S
C1976 C1968 1.378 . S
C1976 C1971 1.350 . S
C1977 H1964 0.929 . S
C1977 C1969 1.433 . S
C1977 N1979 1.384 . S
N1978 C1974 1.427 . S
N1978 C1975 1.384 . S
N1979 C1971 1.427 . S
N1979 C1977 1.384 . S
H1980 C1986 0.930 . S
H1981 C1990 0.930 . S
H1982 C1995 0.929 . S
H1983 C1993 0.929 . S
H1984 C1988 0.929 . S
H1985 C1994 0.929 . S
C1986 H1980 0.930 . S
C1986 C1987 1.367 . S
C1986 C1994 1.378 . S
C1987 C1986 1.367 . S
C1987 C1995 1.433 . S
C1988 H1984 0.929 . S
C1988 C1990 1.378 . S
C1988 C1992 1.350 . S
C1989 C1992 1.463 . S
C1989 C1994 1.350 . S
C1989 N1997 1.427 . S
C1990 H1981 0.930 . S
C1990 C1988 1.378 . S
C1990 C1991 1.367 . S
C1991 C1990 1.367 . S
C1991 C1993 1.433 . S
C1992 C1988 1.350 . S
C1992 C1989 1.463 . S
C1992 N1996 1.427 . S
C1993 H1983 0.929 . S
C1993 C1991 1.433 . S
C1993 N1996 1.384 . S
C1994 H1985 0.929 . S
C1994 C1986 1.378 . S
C1994 C1989 1.350 . S
C1995 H1982 0.929 . S
C1995 C1987 1.433 . S
C1995 N1997 1.384 . S
N1996 C1992 1.427 . S
N1996 C1993 1.384 . S
N1997 C1989 1.427 . S
N1997 C1995 1.384 . S
H1998 C2004 0.930 . S
H1999 C2008 0.930 . S
H2000 C2013 0.929 . S
H2001 C2011 0.929 . S
H2002 C2006 0.929 . S
H2003 C2012 0.929 . S
C2004 H1998 0.930 . S
C2004 C2005 1.367 . S
C2004 C2012 1.378 . S
C2005 C2004 1.367 . S
C2005 C2013 1.433 . S
C2006 H2002 0.929 . S
C2006 C2008 1.378 . S
C2006 C2010 1.350 . S
C2007 C2010 1.463 . S
C2007 C2012 1.350 . S
C2007 N2015 1.427 . S
C2008 H1999 0.930 . S
C2008 C2006 1.378 . S
C2008 C2009 1.367 . S
C2009 C2008 1.367 . S
C2009 C2011 1.433 . S
C2010 C2006 1.350 . S
C2010 C2007 1.463 . S
C2010 N2014 1.427 . S
C2011 H2001 0.929 . S
C2011 C2009 1.433 . S
C2011 N2014 1.384 . S
C2012 H2003 0.929 . S
C2012 C2004 1.378 . S
C2012 C2007 1.350 . S
C2013 H2000 0.929 . S
C2013 C2005 1.433 . S
C2013 N2015 1.384 . S
N2014 C2010 1.427 . S
N2014 C2011 1.384 . S
N2015 C2007 1.427 . S
N2015 C2013 1.384 . S
H2016 C2022 0.930 . S
H2017 C2026 0.930 . S
H2018 C2031 0.929 . S
H2019 C2029 0.929 . S
H2020 C2024 0.929 . S
H2021 C2030 0.929 . S
C2022 H2016 0.930 . S
C2022 C2023 1.367 . S
C2022 C2030 1.378 . S
C2023 C2022 1.367 . S
C2023 C2031 1.433 . S
C2024 H2020 0.929 . S
C2024 C2026 1.378 . S
C2024 C2028 1.350 . S
C2025 C2028 1.463 . S
C2025 C2030 1.350 . S
C2025 N2033 1.427 . S
C2026 H2017 0.930 . S
C2026 C2024 1.378 . S
C2026 C2027 1.367 . S
C2027 C2026 1.367 . S
C2027 C2029 1.433 . S
C2028 C2024 1.350 . S
C2028 C2025 1.463 . S
C2028 N2032 1.427 . S
C2029 H2019 0.929 . S
C2029 C2027 1.433 . S
C2029 N2032 1.384 . S
C2030 H2021 0.929 . S
C2030 C2022 1.378 . S
C2030 C2025 1.350 . S
C2031 H2018 0.929 . S
C2031 C2023 1.433 . S
C2031 N2033 1.384 . S
N2032 C2028 1.427 . S
N2032 C2029 1.384 . S
N2033 C2025 1.427 . S
N2033 C2031 1.384 . S
H2034 C2040 0.930 . S
H2035 C2044 0.930 . S
H2036 C2049 0.929 . S
H2037 C2047 0.929 . S
H2038 C2042 0.929 . S
H2039 C2048 0.929 . S
C2040 H2034 0.930 . S
C2040 C2041 1.367 . S
C2040 C2048 1.378 . S
C2041 C2040 1.367 . S
C2041 C2049 1.433 . S
C2042 H2038 0.929 . S
C2042 C2044 1.378 . S
C2042 C2046 1.350 . S
C2043 C2046 1.463 . S
C2043 C2048 1.350 . S
C2043 N2051 1.427 . S
C2044 H2035 0.930 . S
C2044 C2042 1.378 . S
C2044 C2045 1.367 . S
C2045 C2044 1.367 . S
C2045 C2047 1.433 . S
C2046 C2042 1.350 . S
C2046 C2043 1.463 . S
C2046 N2050 1.427 . S
C2047 H2037 0.929 . S
C2047 C2045 1.433 . S
C2047 N2050 1.384 . S
C2048 H2039 0.929 . S
C2048 C2040 1.378 . S
C2048 C2043 1.350 . S
C2049 H2036 0.929 . S
C2049 C2041 1.433 . S
C2049 N2051 1.384 . S
N2050 C2046 1.427 . S
N2050 C2047 1.384 . S
N2051 C2043 1.427 . S
N2051 C2049 1.384 . S
H2052 C2058 0.930 . S
H2053 C2062 0.930 . S
H2054 C2067 0.929 . S
H2055 C2065 0.929 . S
H2056 C2060 0.929 . S
H2057 C2066 0.929 . S
C2058 H2052 0.930 . S
C2058 C2059 1.367 . S
C2058 C2066 1.378 . S
C2059 C2058 1.367 . S
C2059 C2067 1.433 . S
C2060 H2056 0.929 . S
C2060 C2062 1.378 . S
C2060 C2064 1.350 . S
C2061 C2064 1.463 . S
C2061 C2066 1.350 . S
C2061 N2069 1.427 . S
C2062 H2053 0.930 . S
C2062 C2060 1.378 . S
C2062 C2063 1.367 . S
C2063 C2062 1.367 . S
C2063 C2065 1.433 . S
C2064 C2060 1.350 . S
C2064 C2061 1.463 . S
C2064 N2068 1.427 . S
C2065 H2055 0.929 . S
C2065 C2063 1.433 . S
C2065 N2068 1.384 . S
C2066 H2057 0.929 . S
C2066 C2058 1.378 . S
C2066 C2061 1.350 . S
C2067 H2054 0.929 . S
C2067 C2059 1.433 . S
C2067 N2069 1.384 . S
N2068 C2064 1.427 . S
N2068 C2065 1.384 . S
N2069 C2061 1.427 . S
N2069 C2067 1.384 . S
H2070 C2076 0.930 . S
H2071 C2080 0.930 . S
H2072 C2085 0.929 . S
H2073 C2083 0.929 . S
H2074 C2078 0.929 . S
H2075 C2084 0.929 . S
C2076 H2070 0.930 . S
C2076 C2077 1.367 . S
C2076 C2084 1.378 . S
C2077 C2076 1.367 . S
C2077 C2085 1.433 . S
C2078 H2074 0.929 . S
C2078 C2080 1.378 . S
C2078 C2082 1.350 . S
C2079 C2082 1.463 . S
C2079 C2084 1.350 . S
C2079 N2087 1.427 . S
C2080 H2071 0.930 . S
C2080 C2078 1.378 . S
C2080 C2081 1.367 . S
C2081 C2080 1.367 . S
C2081 C2083 1.433 . S
C2082 C2078 1.350 . S
C2082 C2079 1.463 . S
C2082 N2086 1.427 . S
C2083 H2073 0.929 . S
C2083 C2081 1.433 . S
C2083 N2086 1.384 . S
C2084 H2075 0.929 . S
C2084 C2076 1.378 . S
C2084 C2079 1.350 . S
C2085 H2072 0.929 . S
C2085 C2077 1.433 . S
C2085 N2087 1.384 . S
N2086 C2082 1.427 . S
N2086 C2083 1.384 . S
N2087 C2079 1.427 . S
N2087 C2085 1.384 . S
H2088 C2094 0.930 . S
H2089 C2098 0.930 . S
H2090 C2103 0.929 . S
H2091 C2101 0.929 . S
H2092 C2096 0.929 . S
H2093 C2102 0.929 . S
C2094 H2088 0.930 . S
C2094 C2095 1.367 . S
C2094 C2102 1.378 . S
C2095 C2094 1.367 . S
C2095 C2103 1.433 . S
C2096 H2092 0.929 . S
C2096 C2098 1.378 . S
C2096 C2100 1.350 . S
C2097 C2100 1.463 . S
C2097 C2102 1.350 . S
C2097 N2105 1.427 . S
C2098 H2089 0.930 . S
C2098 C2096 1.378 . S
C2098 C2099 1.367 . S
C2099 C2098 1.367 . S
C2099 C2101 1.433 . S
C2100 C2096 1.350 . S
C2100 C2097 1.463 . S
C2100 N2104 1.427 . S
C2101 H2091 0.929 . S
C2101 C2099 1.433 . S
C2101 N2104 1.384 . S
C2102 H2093 0.929 . S
C2102 C2094 1.378 . S
C2102 C2097 1.350 . S
C2103 H2090 0.929 . S
C2103 C2095 1.433 . S
C2103 N2105 1.384 . S
N2104 C2100 1.427 . S
N2104 C2101 1.384 . S
N2105 C2097 1.427 . S
N2105 C2103 1.384 . S
H2106 C2112 0.930 . S
H2107 C2116 0.930 . S
H2108 C2121 0.929 . S
H2109 C2119 0.929 . S
H2110 C2114 0.929 . S
H2111 C2120 0.929 . S
C2112 H2106 0.930 . S
C2112 C2113 1.367 . S
C2112 C2120 1.378 . S
C2113 C2112 1.367 . S
C2113 C2121 1.433 . S
C2114 H2110 0.929 . S
C2114 C2116 1.378 . S
C2114 C2118 1.350 . S
C2115 C2118 1.463 . S
C2115 C2120 1.350 . S
C2115 N2123 1.427 . S
C2116 H2107 0.930 . S
C2116 C2114 1.378 . S
C2116 C2117 1.367 . S
C2117 C2116 1.367 . S
C2117 C2119 1.433 . S
C2118 C2114 1.350 . S
C2118 C2115 1.463 . S
C2118 N2122 1.427 . S
C2119 H2109 0.929 . S
C2119 C2117 1.433 . S
C2119 N2122 1.384 . S
C2120 H2111 0.929 . S
C2120 C2112 1.378 . S
C2120 C2115 1.350 . S
C2121 H2108 0.929 . S
C2121 C2113 1.433 . S
C2121 N2123 1.384 . S
N2122 C2118 1.427 . S
N2122 C2119 1.384 . S
N2123 C2115 1.427 . S
N2123 C2121 1.384 . S
H2124 C2130 0.930 . S
H2125 C2134 0.930 . S
H2126 C2139 0.929 . S
H2127 C2137 0.929 . S
H2128 C2132 0.929 . S
H2129 C2138 0.929 . S
C2130 H2124 0.930 . S
C2130 C2131 1.367 . S
C2130 C2138 1.378 . S
C2131 C2130 1.367 . S
C2131 C2139 1.433 . S
C2132 H2128 0.929 . S
C2132 C2134 1.378 . S
C2132 C2136 1.350 . S
C2133 C2136 1.463 . S
C2133 C2138 1.350 . S
C2133 N2141 1.427 . S
C2134 H2125 0.930 . S
C2134 C2132 1.378 . S
C2134 C2135 1.367 . S
C2135 C2134 1.367 . S
C2135 C2137 1.433 . S
C2136 C2132 1.350 . S
C2136 C2133 1.463 . S
C2136 N2140 1.427 . S
C2137 H2127 0.929 . S
C2137 C2135 1.433 . S
C2137 N2140 1.384 . S
C2138 H2129 0.929 . S
C2138 C2130 1.378 . S
C2138 C2133 1.350 . S
C2139 H2126 0.929 . S
C2139 C2131 1.433 . S
C2139 N2141 1.384 . S
N2140 C2136 1.427 . S
N2140 C2137 1.384 . S
N2141 C2133 1.427 . S
N2141 C2139 1.384 . S
H2142 C2148 0.930 . S
H2143 C2152 0.930 . S
H2144 C2157 0.929 . S
H2145 C2155 0.929 . S
H2146 C2150 0.929 . S
H2147 C2156 0.929 . S
C2148 H2142 0.930 . S
C2148 C2149 1.367 . S
C2148 C2156 1.378 . S
C2149 C2148 1.367 . S
C2149 C2157 1.433 . S
C2150 H2146 0.929 . S
C2150 C2152 1.378 . S
C2150 C2154 1.350 . S
C2151 C2154 1.463 . S
C2151 C2156 1.350 . S
C2151 N2159 1.427 . S
C2152 H2143 0.930 . S
C2152 C2150 1.378 . S
C2152 C2153 1.367 . S
C2153 C2152 1.367 . S
C2153 C2155 1.433 . S
C2154 C2150 1.350 . S
C2154 C2151 1.463 . S
C2154 N2158 1.427 . S
C2155 H2145 0.929 . S
C2155 C2153 1.433 . S
C2155 N2158 1.384 . S
C2156 H2147 0.929 . S
C2156 C2148 1.378 . S
C2156 C2151 1.350 . S
C2157 H2144 0.929 . S
C2157 C2149 1.433 . S
C2157 N2159 1.384 . S
N2158 C2154 1.427 . S
N2158 C2155 1.384 . S
N2159 C2151 1.427 . S
N2159 C2157 1.384 . S
H2160 C2166 0.930 . S
H2161 C2170 0.930 . S
H2162 C2175 0.929 . S
H2163 C2173 0.929 . S
H2164 C2168 0.929 . S
H2165 C2174 0.929 . S
C2166 H2160 0.930 . S
C2166 C2167 1.367 . S
C2166 C2174 1.378 . S
C2167 C2166 1.367 . S
C2167 C2175 1.433 . S
C2168 H2164 0.929 . S
C2168 C2170 1.378 . S
C2168 C2172 1.350 . S
C2169 C2172 1.463 . S
C2169 C2174 1.350 . S
C2169 N2177 1.427 . S
C2170 H2161 0.930 . S
C2170 C2168 1.378 . S
C2170 C2171 1.367 . S
C2171 C2170 1.367 . S
C2171 C2173 1.433 . S
C2172 C2168 1.350 . S
C2172 C2169 1.463 . S
C2172 N2176 1.427 . S
C2173 H2163 0.929 . S
C2173 C2171 1.433 . S
C2173 N2176 1.384 . S
C2174 H2165 0.929 . S
C2174 C2166 1.378 . S
C2174 C2169 1.350 . S
C2175 H2162 0.929 . S
C2175 C2167 1.433 . S
C2175 N2177 1.384 . S
N2176 C2172 1.427 . S
N2176 C2173 1.384 . S
N2177 C2169 1.427 . S
N2177 C2175 1.384 . S
H2178 C2184 0.930 . S
H2179 C2188 0.930 . S
H2180 C2193 0.929 . S
H2181 C2191 0.929 . S
H2182 C2186 0.929 . S
H2183 C2192 0.929 . S
C2184 H2178 0.930 . S
C2184 C2185 1.367 . S
C2184 C2192 1.378 . S
C2185 C2184 1.367 . S
C2185 C2193 1.433 . S
C2186 H2182 0.929 . S
C2186 C2188 1.378 . S
C2186 C2190 1.350 . S
C2187 C2190 1.463 . S
C2187 C2192 1.350 . S
C2187 N2195 1.427 . S
C2188 H2179 0.930 . S
C2188 C2186 1.378 . S
C2188 C2189 1.367 . S
C2189 C2188 1.367 . S
C2189 C2191 1.433 . S
C2190 C2186 1.350 . S
C2190 C2187 1.463 . S
C2190 N2194 1.427 . S
C2191 H2181 0.929 . S
C2191 C2189 1.433 . S
C2191 N2194 1.384 . S
C2192 H2183 0.929 . S
C2192 C2184 1.378 . S
C2192 C2187 1.350 . S
C2193 H2180 0.929 . S
C2193 C2185 1.433 . S
C2193 N2195 1.384 . S
N2194 C2190 1.427 . S
N2194 C2191 1.384 . S
N2195 C2187 1.427 . S
N2195 C2193 1.384 . S
H2196 C2202 0.930 . S
H2197 C2206 0.930 . S
H2198 C2211 0.929 . S
H2199 C2209 0.929 . S
H2200 C2204 0.929 . S
H2201 C2210 0.929 . S
C2202 H2196 0.930 . S
C2202 C2203 1.367 . S
C2202 C2210 1.378 . S
C2203 C2202 1.367 . S
C2203 C2211 1.433 . S
C2204 H2200 0.929 . S
C2204 C2206 1.378 . S
C2204 C2208 1.350 . S
C2205 C2208 1.463 . S
C2205 C2210 1.350 . S
C2205 N2213 1.427 . S
C2206 H2197 0.930 . S
C2206 C2204 1.378 . S
C2206 C2207 1.367 . S
C2207 C2206 1.367 . S
C2207 C2209 1.433 . S
C2208 C2204 1.350 . S
C2208 C2205 1.463 . S
C2208 N2212 1.427 . S
C2209 H2199 0.929 . S
C2209 C2207 1.433 . S
C2209 N2212 1.384 . S
C2210 H2201 0.929 . S
C2210 C2202 1.378 . S
C2210 C2205 1.350 . S
C2211 H2198 0.929 . S
C2211 C2203 1.433 . S
C2211 N2213 1.384 . S
N2212 C2208 1.427 . S
N2212 C2209 1.384 . S
N2213 C2205 1.427 . S
N2213 C2211 1.384 . S
H2214 C2220 0.930 . S
H2215 C2224 0.930 . S
H2216 C2229 0.929 . S
H2217 C2227 0.929 . S
H2218 C2222 0.929 . S
H2219 C2228 0.929 . S
C2220 H2214 0.930 . S
C2220 C2221 1.367 . S
C2220 C2228 1.378 . S
C2221 C2220 1.367 . S
C2221 C2229 1.433 . S
C2222 H2218 0.929 . S
C2222 C2224 1.378 . S
C2222 C2226 1.350 . S
C2223 C2226 1.463 . S
C2223 C2228 1.350 . S
C2223 N2231 1.427 . S
C2224 H2215 0.930 . S
C2224 C2222 1.378 . S
C2224 C2225 1.367 . S
C2225 C2224 1.367 . S
C2225 C2227 1.433 . S
C2226 C2222 1.350 . S
C2226 C2223 1.463 . S
C2226 N2230 1.427 . S
C2227 H2217 0.929 . S
C2227 C2225 1.433 . S
C2227 N2230 1.384 . S
C2228 H2219 0.929 . S
C2228 C2220 1.378 . S
C2228 C2223 1.350 . S
C2229 H2216 0.929 . S
C2229 C2221 1.433 . S
C2229 N2231 1.384 . S
N2230 C2226 1.427 . S
N2230 C2227 1.384 . S
N2231 C2223 1.427 . S
N2231 C2229 1.384 . S
H2232 C2238 0.887 1_554 S
H2233 C2242 0.930 . S
H2234 C2247 0.929 . S
H2235 C2245 0.929 . S
H2236 C2240 0.929 . S
H2237 C2246 0.929 . S
C2238 H2232 0.887 1_556 S
C2238 C2239 1.367 . S
C2238 C2246 1.378 . S
C2239 C2238 1.367 . S
C2239 C2247 1.433 . S
C2240 H2236 0.929 . S
C2240 C2242 1.378 . S
C2240 C2244 1.350 . S
C2241 C2244 1.463 . S
C2241 C2246 1.350 . S
C2241 N2249 1.427 . S
C2242 H2233 0.930 . S
C2242 C2240 1.378 . S
C2242 C2243 1.367 . S
C2243 C2242 1.367 . S
C2243 C2245 1.433 . S
C2244 C2240 1.350 . S
C2244 C2241 1.463 . S
C2244 N2248 1.427 . S
C2245 H2235 0.929 . S
C2245 C2243 1.433 . S
C2245 N2248 1.384 . S
C2246 H2237 0.929 . S
C2246 C2238 1.378 . S
C2246 C2241 1.350 . S
C2247 H2234 0.929 . S
C2247 C2239 1.433 . S
C2247 N2249 1.384 . S
N2248 C2244 1.427 . S
N2248 C2245 1.384 . S
N2249 C2241 1.427 . S
N2249 C2247 1.384 . S
H2250 C2256 0.930 . S
H2251 C2260 0.930 . S
H2252 C2265 0.929 1_554 S
H2253 C2263 0.929 . S
H2254 C2258 0.929 . S
H2255 C2264 0.929 . S
C2256 H2250 0.930 . S
C2256 C2257 1.367 . S
C2256 C2264 1.378 . S
C2257 C2256 1.367 . S
C2257 C2265 1.433 . S
C2258 H2254 0.929 . S
C2258 C2260 1.378 . S
C2258 C2262 1.350 . S
C2259 C2262 1.463 . S
C2259 C2264 1.350 . S
C2259 N2267 1.427 . S
C2260 H2251 0.930 . S
C2260 C2258 1.378 . S
C2260 C2261 1.367 . S
C2261 C2260 1.367 . S
C2261 C2263 1.433 . S
C2262 C2258 1.350 . S
C2262 C2259 1.463 . S
C2262 N2266 1.427 . S
C2263 H2253 0.929 . S
C2263 C2261 1.433 . S
C2263 N2266 1.384 . S
C2264 H2255 0.929 . S
C2264 C2256 1.378 . S
C2264 C2259 1.350 . S
C2265 H2252 0.929 1_556 S
C2265 C2257 1.433 . S
C2265 N2267 1.384 . S
N2266 C2262 1.427 . S
N2266 C2263 1.384 . S
N2267 C2259 1.427 . S
N2267 C2265 1.384 . S
H2268 C2274 0.930 . S
H2269 C2278 0.930 . S
H2270 C2283 0.929 . S
H2271 C2281 0.929 . S
H2272 C2276 0.929 . S
H2273 C2282 0.929 . S
C2274 H2268 0.930 . S
C2274 C2275 1.367 . S
C2274 C2282 1.378 . S
C2275 C2274 1.367 . S
C2275 C2283 1.433 . S
C2276 H2272 0.929 . S
C2276 C2278 1.378 . S
C2276 C2280 1.350 . S
C2277 C2280 1.463 . S
C2277 C2282 1.350 . S
C2277 N2285 1.427 . S
C2278 H2269 0.930 . S
C2278 C2276 1.378 . S
C2278 C2279 1.367 . S
C2279 C2278 1.367 . S
C2279 C2281 1.433 . S
C2280 C2276 1.350 . S
C2280 C2277 1.463 . S
C2280 N2284 1.427 . S
C2281 H2271 0.929 . S
C2281 C2279 1.433 . S
C2281 N2284 1.384 . S
C2282 H2273 0.929 . S
C2282 C2274 1.378 . S
C2282 C2277 1.350 . S
C2283 H2270 0.929 . S
C2283 C2275 1.433 . S
C2283 N2285 1.384 . S
N2284 C2280 1.427 . S
N2284 C2281 1.384 . S
N2285 C2277 1.427 . S
N2285 C2283 1.384 . S
H2286 C2292 0.930 1_554 S
H2287 C2296 0.930 . S
H2288 C2301 0.929 . S
H2289 C2299 0.929 . S
H2290 C2294 0.929 . S
H2291 C2300 0.929 . S
C2292 H2286 0.930 1_556 S
C2292 C2293 1.367 . S
C2292 C2300 1.378 . S
C2293 C2292 1.367 . S
C2293 C2301 1.433 . S
C2294 H2290 0.929 . S
C2294 C2296 1.378 . S
C2294 C2298 1.350 . S
C2295 C2298 1.463 . S
C2295 C2300 1.350 . S
C2295 N2303 1.427 . S
C2296 H2287 0.930 . S
C2296 C2294 1.378 . S
C2296 C2297 1.367 . S
C2297 C2296 1.367 . S
C2297 C2299 1.433 . S
C2298 C2294 1.350 . S
C2298 C2295 1.463 . S
C2298 N2302 1.427 . S
C2299 H2289 0.929 . S
C2299 C2297 1.433 . S
C2299 N2302 1.384 . S
C2300 H2291 0.929 . S
C2300 C2292 1.378 . S
C2300 C2295 1.350 . S
C2301 H2288 0.929 . S
C2301 C2293 1.433 . S
C2301 N2303 1.384 . S
N2302 C2298 1.427 . S
N2302 C2299 1.384 . S
N2303 C2295 1.427 . S
N2303 C2301 1.384 . S
H2304 C2310 0.930 . S
H2305 C2314 0.930 . S
H2306 C2319 0.929 . S
H2307 C2317 0.929 . S
H2308 C2312 0.929 . S
H2309 C2318 0.929 . S
C2310 H2304 0.930 . S
C2310 C2311 1.367 . S
C2310 C2318 1.378 . S
C2311 C2310 1.367 . S
C2311 C2319 1.433 . S
C2312 H2308 0.929 . S
C2312 C2314 1.378 . S
C2312 C2316 1.350 . S
C2313 C2316 1.463 . S
C2313 C2318 1.350 . S
C2313 N2321 1.427 . S
C2314 H2305 0.930 . S
C2314 C2312 1.378 . S
C2314 C2315 1.367 . S
C2315 C2314 1.367 . S
C2315 C2317 1.433 . S
C2316 C2312 1.350 . S
C2316 C2313 1.463 . S
C2316 N2320 1.427 . S
C2317 H2307 0.929 . S
C2317 C2315 1.433 . S
C2317 N2320 1.384 . S
C2318 H2309 0.929 . S
C2318 C2310 1.378 . S
C2318 C2313 1.350 . S
C2319 H2306 0.929 . S
C2319 C2311 1.433 . S
C2319 N2321 1.384 . S
N2320 C2316 1.427 . S
N2320 C2317 1.384 . S
N2321 C2313 1.427 . S
N2321 C2319 1.384 . S
H2322 C2328 0.930 . S
H2323 C2332 0.930 . S
H2324 C2337 0.929 . S
H2325 C2335 0.929 . S
H2326 C2330 0.929 . S
H2327 C2336 0.929 . S
C2328 H2322 0.930 . S
C2328 C2329 1.367 . S
C2328 C2336 1.378 . S
C2329 C2328 1.367 . S
C2329 C2337 1.433 . S
C2330 H2326 0.929 . S
C2330 C2332 1.378 . S
C2330 C2334 1.350 . S
C2331 C2334 1.463 . S
C2331 C2336 1.350 . S
C2331 N2339 1.427 . S
C2332 H2323 0.930 . S
C2332 C2330 1.378 . S
C2332 C2333 1.367 . S
C2333 C2332 1.367 . S
C2333 C2335 1.433 . S
C2334 C2330 1.350 . S
C2334 C2331 1.463 . S
C2334 N2338 1.427 . S
C2335 H2325 0.929 . S
C2335 C2333 1.433 . S
C2335 N2338 1.384 . S
C2336 H2327 0.929 . S
C2336 C2328 1.378 . S
C2336 C2331 1.350 . S
C2337 H2324 0.929 . S
C2337 C2329 1.433 . S
C2337 N2339 1.384 . S
N2338 C2334 1.427 . S
N2338 C2335 1.384 . S
N2339 C2331 1.427 . S
N2339 C2337 1.384 . S
H2340 C2346 0.930 . S
H2341 C2350 0.930 . S
H2342 C2355 0.929 . S
H2343 C2353 0.929 . S
H2344 C2348 0.929 . S
H2345 C2354 0.929 . S
C2346 H2340 0.930 . S
C2346 C2347 1.367 . S
C2346 C2354 1.378 . S
C2347 C2346 1.367 . S
C2347 C2355 1.433 . S
C2348 H2344 0.929 . S
C2348 C2350 1.378 . S
C2348 C2352 1.350 . S
C2349 C2352 1.463 . S
C2349 C2354 1.350 . S
C2349 N2357 1.427 . S
C2350 H2341 0.930 . S
C2350 C2348 1.378 . S
C2350 C2351 1.367 . S
C2351 C2350 1.367 . S
C2351 C2353 1.433 . S
C2352 C2348 1.350 . S
C2352 C2349 1.463 . S
C2352 N2356 1.427 . S
C2353 H2343 0.929 . S
C2353 C2351 1.433 . S
C2353 N2356 1.384 . S
C2354 H2345 0.929 . S
C2354 C2346 1.378 . S
C2354 C2349 1.350 . S
C2355 H2342 0.929 . S
C2355 C2347 1.433 . S
C2355 N2357 1.384 . S
N2356 C2352 1.427 . S
N2356 C2353 1.384 . S
N2357 C2349 1.427 . S
N2357 C2355 1.384 . S
H2358 C2364 0.930 . S
H2359 C2368 0.930 . S
H2360 C2373 0.929 . S
H2361 C2371 0.929 . S
H2362 C2366 0.929 . S
H2363 C2372 0.929 . S
C2364 H2358 0.930 . S
C2364 C2365 1.367 . S
C2364 C2372 1.378 . S
C2365 C2364 1.367 . S
C2365 C2373 1.433 . S
C2366 H2362 0.929 . S
C2366 C2368 1.378 . S
C2366 C2370 1.350 . S
C2367 C2370 1.463 . S
C2367 C2372 1.350 . S
C2367 N2375 1.427 . S
C2368 H2359 0.930 . S
C2368 C2366 1.378 . S
C2368 C2369 1.367 . S
C2369 C2368 1.367 . S
C2369 C2371 1.433 . S
C2370 C2366 1.350 . S
C2370 C2367 1.463 . S
C2370 N2374 1.427 . S
C2371 H2361 0.929 . S
C2371 C2369 1.433 . S
C2371 N2374 1.384 . S
C2372 H2363 0.929 . S
C2372 C2364 1.378 . S
C2372 C2367 1.350 . S
C2373 H2360 0.929 . S
C2373 C2365 1.433 . S
C2373 N2375 1.384 . S
N2374 C2370 1.427 . S
N2374 C2371 1.384 . S
N2375 C2367 1.427 . S
N2375 C2373 1.384 . S
H2376 C2382 0.930 . S
H2377 C2386 0.930 . S
H2378 C2391 0.929 . S
H2379 C2389 0.929 . S
H2380 C2384 0.929 . S
H2381 C2390 0.929 . S
C2382 H2376 0.930 . S
C2382 C2383 1.367 . S
C2382 C2390 1.378 . S
C2383 C2382 1.367 . S
C2383 C2391 1.433 . S
C2384 H2380 0.929 . S
C2384 C2386 1.378 . S
C2384 C2388 1.350 . S
C2385 C2388 1.463 . S
C2385 C2390 1.350 . S
C2385 N2393 1.427 . S
C2386 H2377 0.930 . S
C2386 C2384 1.378 . S
C2386 C2387 1.367 . S
C2387 C2386 1.367 . S
C2387 C2389 1.433 . S
C2388 C2384 1.350 . S
C2388 C2385 1.463 . S
C2388 N2392 1.427 . S
C2389 H2379 0.929 . S
C2389 C2387 1.433 . S
C2389 N2392 1.384 . S
C2390 H2381 0.929 . S
C2390 C2382 1.378 . S
C2390 C2385 1.350 . S
C2391 H2378 0.929 . S
C2391 C2383 1.433 . S
C2391 N2393 1.384 . S
N2392 C2388 1.427 . S
N2392 C2389 1.384 . S
N2393 C2385 1.427 . S
N2393 C2391 1.384 . S
H2394 C2400 0.930 . S
H2395 C2404 0.930 . S
H2396 C2409 0.929 . S
H2397 C2407 0.929 . S
H2398 C2402 0.929 . S
H2399 C2408 0.929 . S
C2400 H2394 0.930 . S
C2400 C2401 1.367 . S
C2400 C2408 1.378 . S
C2401 C2400 1.367 . S
C2401 C2409 1.433 . S
C2402 H2398 0.929 . S
C2402 C2404 1.378 . S
C2402 C2406 1.350 . S
C2403 C2406 1.463 . S
C2403 C2408 1.350 . S
C2403 N2411 1.427 . S
C2404 H2395 0.930 . S
C2404 C2402 1.378 . S
C2404 C2405 1.367 . S
C2405 C2404 1.367 . S
C2405 C2407 1.433 . S
C2406 C2402 1.350 . S
C2406 C2403 1.463 . S
C2406 N2410 1.427 . S
C2407 H2397 0.929 . S
C2407 C2405 1.433 . S
C2407 N2410 1.384 . S
C2408 H2399 0.929 . S
C2408 C2400 1.378 . S
C2408 C2403 1.350 . S
C2409 H2396 0.929 . S
C2409 C2401 1.433 . S
C2409 N2411 1.384 . S
N2410 C2406 1.427 . S
N2410 C2407 1.384 . S
N2411 C2403 1.427 . S
N2411 C2409 1.384 . S
H2412 C2418 0.930 . S
H2413 C2422 0.930 . S
H2414 C2427 0.929 . S
H2415 C2425 0.929 . S
H2416 C2420 0.929 . S
H2417 C2426 0.929 . S
C2418 H2412 0.930 . S
C2418 C2419 1.367 . S
C2418 C2426 1.378 . S
C2419 C2418 1.367 . S
C2419 C2427 1.433 . S
C2420 H2416 0.929 . S
C2420 C2422 1.378 . S
C2420 C2424 1.350 . S
C2421 C2424 1.463 . S
C2421 C2426 1.350 . S
C2421 N2429 1.427 . S
C2422 H2413 0.930 . S
C2422 C2420 1.378 . S
C2422 C2423 1.367 . S
C2423 C2422 1.367 . S
C2423 C2425 1.433 . S
C2424 C2420 1.350 . S
C2424 C2421 1.463 . S
C2424 N2428 1.427 . S
C2425 H2415 0.929 . S
C2425 C2423 1.433 . S
C2425 N2428 1.384 . S
C2426 H2417 0.929 . S
C2426 C2418 1.378 . S
C2426 C2421 1.350 . S
C2427 H2414 0.929 . S
C2427 C2419 1.433 . S
C2427 N2429 1.384 . S
N2428 C2424 1.427 . S
N2428 C2425 1.384 . S
N2429 C2421 1.427 . S
N2429 C2427 1.384 . S
H2430 C2436 0.930 . S
H2431 C2440 0.930 . S
H2432 C2445 0.929 . S
H2433 C2443 0.929 . S
H2434 C2438 0.929 . S
H2435 C2444 0.929 . S
C2436 H2430 0.930 . S
C2436 C2437 1.367 1_655 S
C2436 C2444 1.378 . S
C2437 C2436 1.367 1_455 S
C2437 C2445 1.433 . S
C2438 H2434 0.929 . S
C2438 C2440 1.378 . S
C2438 C2442 1.350 . S
C2439 C2442 1.463 . S
C2439 C2444 1.350 1_455 S
C2439 N2447 1.427 . S
C2440 H2431 0.930 . S
C2440 C2438 1.378 . S
C2440 C2441 1.367 . S
C2441 C2440 1.367 . S
C2441 C2443 1.433 1_455 S
C2442 C2438 1.350 . S
C2442 C2439 1.463 . S
C2442 N2446 1.427 1_455 S
C2443 H2433 0.929 . S
C2443 C2441 1.433 1_655 S
C2443 N2446 1.384 . S
C2444 H2435 0.929 . S
C2444 C2436 1.378 . S
C2444 C2439 1.350 1_655 S
C2445 H2432 0.929 . S
C2445 C2437 1.433 . S
C2445 N2447 1.384 . S
N2446 C2442 1.427 1_655 S
N2446 C2443 1.384 . S
N2447 C2439 1.427 . S
N2447 C2445 1.384 . S
H2448 C2454 0.930 . S
H2449 C2458 0.930 . S
H2450 C2463 0.929 . S
H2451 C2461 0.929 . S
H2452 C2456 0.929 . S
H2453 C2462 0.929 . S
C2454 H2448 0.930 . S
C2454 C2455 1.367 . S
C2454 C2462 1.378 . S
C2455 C2454 1.367 . S
C2455 C2463 1.433 . S
C2456 H2452 0.929 . S
C2456 C2458 1.378 . S
C2456 C2460 1.350 . S
C2457 C2460 1.463 . S
C2457 C2462 1.350 . S
C2457 N2465 1.427 . S
C2458 H2449 0.930 . S
C2458 C2456 1.378 . S
C2458 C2459 1.367 . S
C2459 C2458 1.367 . S
C2459 C2461 1.433 . S
C2460 C2456 1.350 . S
C2460 C2457 1.463 . S
C2460 N2464 1.427 . S
C2461 H2451 0.929 . S
C2461 C2459 1.433 . S
C2461 N2464 1.384 . S
C2462 H2453 0.929 . S
C2462 C2454 1.378 . S
C2462 C2457 1.350 . S
C2463 H2450 0.929 . S
C2463 C2455 1.433 . S
C2463 N2465 1.384 . S
N2464 C2460 1.427 . S
N2464 C2461 1.384 . S
N2465 C2457 1.427 . S
N2465 C2463 1.384 . S
H2466 C2472 0.930 . S
H2467 C2476 0.930 . S
H2468 C2481 0.929 . S
H2469 C2479 0.929 . S
H2470 C2474 0.929 . S
H2471 C2480 0.929 . S
C2472 H2466 0.930 . S
C2472 C2473 1.367 1_545 S
C2472 C2480 1.378 . S
C2473 C2472 1.367 1_565 S
C2473 C2481 1.433 . S
C2474 H2470 0.929 . S
C2474 C2476 1.378 . S
C2474 C2478 1.350 . S
C2475 C2478 1.463 . S
C2475 C2480 1.350 1_565 S
C2475 N2483 1.427 . S
C2476 H2467 0.930 . S
C2476 C2474 1.378 . S
C2476 C2477 1.367 . S
C2477 C2476 1.367 . S
C2477 C2479 1.433 1_565 S
C2478 C2474 1.350 . S
C2478 C2475 1.463 . S
C2478 N2482 1.427 1_565 S
C2479 H2469 0.929 . S
C2479 C2477 1.433 1_545 S
C2479 N2482 1.384 . S
C2480 H2471 0.929 . S
C2480 C2472 1.378 . S
C2480 C2475 1.350 1_545 S
C2481 H2468 0.929 . S
C2481 C2473 1.433 . S
C2481 N2483 1.384 . S
N2482 C2478 1.427 1_545 S
N2482 C2479 1.384 . S
N2483 C2475 1.427 . S
N2483 C2481 1.384 . S
H2484 C2490 0.930 . S
H2485 C2494 0.930 . S
H2486 C2499 0.929 . S
H2487 C2497 0.929 . S
H2488 C2492 0.929 . S
H2489 C2498 0.929 . S
C2490 H2484 0.930 . S
C2490 C2491 1.367 . S
C2490 C2498 1.378 . S
C2491 C2490 1.367 . S
C2491 C2499 1.433 1_565 S
C2492 H2488 0.929 . S
C2492 C2494 1.378 . S
C2492 C2496 1.350 1_545 S
C2493 C2496 1.463 . S
C2493 C2498 1.350 . S
C2493 N2501 1.427 1_565 S
C2494 H2485 0.930 . S
C2494 C2492 1.378 . S
C2494 C2495 1.367 1_545 S
C2495 C2494 1.367 1_565 S
C2495 C2497 1.433 . S
C2496 C2492 1.350 1_565 S
C2496 C2493 1.463 . S
C2496 N2500 1.427 . S
C2497 H2487 0.929 . S
C2497 C2495 1.433 . S
C2497 N2500 1.384 . S
C2498 H2489 0.929 . S
C2498 C2490 1.378 . S
C2498 C2493 1.350 . S
C2499 H2486 0.929 . S
C2499 C2491 1.433 1_545 S
C2499 N2501 1.384 . S
N2500 C2496 1.427 . S
N2500 C2497 1.384 . S
N2501 C2493 1.427 1_545 S
N2501 C2499 1.384 . S
H2502 C2508 0.930 1_655 S
H2503 C2512 0.930 . S
H2504 C2517 0.929 . S
H2505 C2515 0.929 . S
H2506 C2510 0.929 . S
H2507 C2516 0.924 1_655 S
C2508 H2502 0.930 1_455 S
C2508 C2509 1.367 . S
C2508 C2516 1.363 . S
C2509 C2508 1.367 . S
C2509 C2517 1.433 . S
C2510 H2506 0.929 . S
C2510 C2512 1.378 . S
C2510 C2514 1.350 . S
C2511 C2514 1.463 . S
C2511 C2516 1.371 . S
C2511 N2519 1.427 . S
C2512 H2503 0.930 . S
C2512 C2510 1.378 . S
C2512 C2513 1.367 . S
C2513 C2512 1.367 . S
C2513 C2515 1.433 1_455 S
C2514 C2510 1.350 . S
C2514 C2511 1.463 . S
C2514 N2518 1.427 1_455 S
C2515 H2505 0.929 . S
C2515 C2513 1.433 1_655 S
C2515 N2518 1.384 . S
C2516 H2507 0.924 1_455 S
C2516 C2508 1.363 . S
C2516 C2511 1.371 . S
C2517 H2504 0.929 . S
C2517 C2509 1.433 . S
C2517 N2519 1.384 . S
N2518 C2514 1.427 1_655 S
N2518 C2515 1.384 . S
N2519 C2511 1.427 . S
N2519 C2517 1.384 . S
H2520 C2526 0.930 . S
H2521 C2530 0.930 . S
H2522 C2535 0.929 . S
H2523 C2533 0.929 . S
H2524 C2528 0.929 . S
H2525 C2534 0.929 . S
C2526 H2520 0.930 . S
C2526 C2527 1.367 . S
C2526 C2534 1.378 . S
C2527 C2526 1.367 . S
C2527 C2535 1.433 . S
C2528 H2524 0.929 . S
C2528 C2530 1.378 . S
C2528 C2532 1.350 . S
C2529 C2532 1.463 . S
C2529 C2534 1.350 . S
C2529 N2537 1.427 . S
C2530 H2521 0.930 . S
C2530 C2528 1.378 . S
C2530 C2531 1.367 . S
C2531 C2530 1.367 . S
C2531 C2533 1.433 . S
C2532 C2528 1.350 . S
C2532 C2529 1.463 . S
C2532 N2536 1.427 . S
C2533 H2523 0.929 . S
C2533 C2531 1.433 . S
C2533 N2536 1.384 . S
C2534 H2525 0.929 . S
C2534 C2526 1.378 . S
C2534 C2529 1.350 . S
C2535 H2522 0.929 . S
C2535 C2527 1.433 . S
C2535 N2537 1.384 . S
N2536 C2532 1.427 . S
N2536 C2533 1.384 . S
N2537 C2529 1.427 . S
N2537 C2535 1.384 . S
H2538 C2544 0.930 . S
H2539 C2548 0.930 . S
H2540 C2553 0.929 . S
H2541 C2551 0.929 . S
H2542 C2546 0.929 . S
H2543 C2552 0.929 . S
C2544 H2538 0.930 . S
C2544 C2545 1.367 . S
C2544 C2552 1.378 . S
C2545 C2544 1.367 . S
C2545 C2553 1.433 . S
C2546 H2542 0.929 . S
C2546 C2548 1.378 . S
C2546 C2550 1.350 . S
C2547 C2550 1.463 . S
C2547 C2552 1.350 . S
C2547 N2555 1.427 . S
C2548 H2539 0.930 . S
C2548 C2546 1.378 . S
C2548 C2549 1.367 . S
C2549 C2548 1.367 . S
C2549 C2551 1.433 . S
C2550 C2546 1.350 . S
C2550 C2547 1.463 . S
C2550 N2554 1.427 . S
C2551 H2541 0.929 . S
C2551 C2549 1.433 . S
C2551 N2554 1.384 . S
C2552 H2543 0.929 . S
C2552 C2544 1.378 . S
C2552 C2547 1.350 . S
C2553 H2540 0.929 . S
C2553 C2545 1.433 . S
C2553 N2555 1.384 . S
N2554 C2550 1.427 . S
N2554 C2551 1.384 . S
N2555 C2547 1.427 . S
N2555 C2553 1.384 . S
H2556 C2562 0.930 . S
H2557 C2566 0.930 . S
H2558 C2571 0.929 . S
H2559 C2569 0.929 . S
H2560 C2564 0.929 . S
H2561 C2570 0.929 . S
C2562 H2556 0.930 . S
C2562 C2563 1.367 . S
C2562 C2570 1.378 . S
C2563 C2562 1.367 . S
C2563 C2571 1.433 . S
C2564 H2560 0.929 . S
C2564 C2566 1.378 . S
C2564 C2568 1.350 . S
C2565 C2568 1.463 . S
C2565 C2570 1.350 . S
C2565 N2573 1.427 . S
C2566 H2557 0.930 . S
C2566 C2564 1.378 . S
C2566 C2567 1.367 . S
C2567 C2566 1.367 . S
C2567 C2569 1.433 . S
C2568 C2564 1.350 . S
C2568 C2565 1.463 . S
C2568 N2572 1.427 . S
C2569 H2559 0.929 . S
C2569 C2567 1.433 . S
C2569 N2572 1.384 . S
C2570 H2561 0.929 . S
C2570 C2562 1.378 . S
C2570 C2565 1.350 . S
C2571 H2558 0.929 . S
C2571 C2563 1.433 . S
C2571 N2573 1.384 . S
N2572 C2568 1.427 . S
N2572 C2569 1.384 . S
N2573 C2565 1.427 . S
N2573 C2571 1.384 . S
H2574 C2580 0.930 . S
H2575 C2584 0.930 . S
H2576 C2589 0.929 . S
H2577 C2587 0.929 . S
H2578 C2582 0.929 . S
H2579 C2588 0.929 . S
C2580 H2574 0.930 . S
C2580 C2581 1.367 . S
C2580 C2588 1.378 . S
C2581 C2580 1.367 . S
C2581 C2589 1.433 . S
C2582 H2578 0.929 . S
C2582 C2584 1.378 . S
C2582 C2586 1.350 . S
C2583 C2586 1.463 . S
C2583 C2588 1.350 . S
C2583 N2591 1.427 . S
C2584 H2575 0.930 . S
C2584 C2582 1.378 . S
C2584 C2585 1.367 . S
C2585 C2584 1.367 . S
C2585 C2587 1.433 . S
C2586 C2582 1.350 . S
C2586 C2583 1.463 . S
C2586 N2590 1.427 . S
C2587 H2577 0.929 . S
C2587 C2585 1.433 . S
C2587 N2590 1.384 . S
C2588 H2579 0.929 . S
C2588 C2580 1.378 . S
C2588 C2583 1.350 . S
C2589 H2576 0.929 . S
C2589 C2581 1.433 . S
C2589 N2591 1.384 . S
N2590 C2586 1.427 . S
N2590 C2587 1.384 . S
N2591 C2583 1.427 . S
N2591 C2589 1.384 . S
H2592 C2598 0.930 1_565 S
H2593 C2602 0.930 . S
H2594 C2607 0.929 . S
H2595 C2605 0.929 . S
H2596 C2600 0.929 . S
H2597 C2606 0.927 . S
C2598 H2592 0.930 1_545 S
C2598 C2599 1.367 . S
C2598 C2606 1.379 1_545 S
C2599 C2598 1.367 . S
C2599 C2607 1.433 . S
C2600 H2596 0.929 . S
C2600 C2602 1.378 . S
C2600 C2604 1.350 . S
C2601 C2604 1.463 . S
C2601 C2606 1.350 1_545 S
C2601 N2609 1.427 . S
C2602 H2593 0.930 . S
C2602 C2600 1.378 . S
C2602 C2603 1.367 . S
C2603 C2602 1.367 . S
C2603 C2605 1.433 1_545 S
C2604 C2600 1.350 . S
C2604 C2601 1.463 . S
C2604 N2608 1.427 1_545 S
C2605 H2595 0.929 . S
C2605 C2603 1.433 1_565 S
C2605 N2608 1.384 . S
C2606 H2597 0.927 . S
C2606 C2598 1.379 1_565 S
C2606 C2601 1.350 1_565 S
C2607 H2594 0.929 . S
C2607 C2599 1.433 . S
C2607 N2609 1.384 . S
N2608 C2604 1.427 1_565 S
N2608 C2605 1.384 . S
N2609 C2601 1.427 . S
N2609 C2607 1.384 . S
H2610 C2616 0.930 . S
H2611 C2620 0.930 . S
H2612 C2625 0.929 . S
H2613 C2623 0.929 . S
H2614 C2618 0.929 . S
H2615 C2624 0.929 . S
C2616 H2610 0.930 . S
C2616 C2617 1.367 1_455 S
C2616 C2624 1.378 . S
C2617 C2616 1.367 1_655 S
C2617 C2625 1.433 . S
C2618 H2614 0.929 . S
C2618 C2620 1.378 . S
C2618 C2622 1.350 . S
C2619 C2622 1.463 . S
C2619 C2624 1.350 1_655 S
C2619 N2627 1.427 . S
C2620 H2611 0.930 . S
C2620 C2618 1.378 . S
C2620 C2621 1.367 . S
C2621 C2620 1.367 . S
C2621 C2623 1.433 1_655 S
C2622 C2618 1.350 . S
C2622 C2619 1.463 . S
C2622 N2626 1.427 1_655 S
C2623 H2613 0.929 . S
C2623 C2621 1.433 1_455 S
C2623 N2626 1.384 . S
C2624 H2615 0.929 . S
C2624 C2616 1.378 . S
C2624 C2619 1.350 1_455 S
C2625 H2612 0.929 . S
C2625 C2617 1.433 . S
C2625 N2627 1.384 . S
N2626 C2622 1.427 1_455 S
N2626 C2623 1.384 . S
N2627 C2619 1.427 . S
N2627 C2625 1.384 . S
H2628 C2634 0.930 . S
H2629 C2638 0.930 . S
H2630 C2643 0.929 . S
H2631 C2641 0.929 . S
H2632 C2636 0.929 . S
H2633 C2642 0.929 . S
C2634 H2628 0.930 . S
C2634 C2635 1.367 . S
C2634 C2642 1.378 . S
C2635 C2634 1.367 . S
C2635 C2643 1.433 . S
C2636 H2632 0.929 . S
C2636 C2638 1.378 . S
C2636 C2640 1.350 . S
C2637 C2640 1.463 . S
C2637 C2642 1.350 . S
C2637 N2645 1.427 . S
C2638 H2629 0.930 . S
C2638 C2636 1.378 . S
C2638 C2639 1.367 . S
C2639 C2638 1.367 . S
C2639 C2641 1.433 . S
C2640 C2636 1.350 . S
C2640 C2637 1.463 . S
C2640 N2644 1.427 . S
C2641 H2631 0.929 . S
C2641 C2639 1.433 . S
C2641 N2644 1.384 . S
C2642 H2633 0.929 . S
C2642 C2634 1.378 . S
C2642 C2637 1.350 . S
C2643 H2630 0.929 . S
C2643 C2635 1.433 . S
C2643 N2645 1.384 . S
N2644 C2640 1.427 . S
N2644 C2641 1.384 . S
N2645 C2637 1.427 . S
N2645 C2643 1.384 . S
H2646 C2652 0.930 . S
H2647 C2656 0.930 . S
H2648 C2661 0.929 . S
H2649 C2659 0.929 . S
H2650 C2654 0.929 . S
H2651 C2660 0.929 . S
C2652 H2646 0.930 . S
C2652 C2653 1.367 . S
C2652 C2660 1.378 . S
C2653 C2652 1.367 . S
C2653 C2661 1.433 . S
C2654 H2650 0.929 . S
C2654 C2656 1.378 . S
C2654 C2658 1.350 . S
C2655 C2658 1.463 . S
C2655 C2660 1.350 . S
C2655 N2663 1.427 . S
C2656 H2647 0.930 . S
C2656 C2654 1.378 . S
C2656 C2657 1.367 . S
C2657 C2656 1.367 . S
C2657 C2659 1.433 . S
C2658 C2654 1.350 . S
C2658 C2655 1.463 . S
C2658 N2662 1.427 . S
C2659 H2649 0.929 . S
C2659 C2657 1.433 . S
C2659 N2662 1.384 . S
C2660 H2651 0.929 . S
C2660 C2652 1.378 . S
C2660 C2655 1.350 . S
C2661 H2648 0.929 . S
C2661 C2653 1.433 . S
C2661 N2663 1.384 . S
N2662 C2658 1.427 . S
N2662 C2659 1.384 . S
N2663 C2655 1.427 . S
N2663 C2661 1.384 . S
H2664 C2670 0.930 . S
H2665 C2674 0.930 . S
H2666 C2679 0.929 . S
H2667 C2677 0.929 . S
H2668 C2672 0.929 . S
H2669 C2678 0.929 . S
C2670 H2664 0.930 . S
C2670 C2671 1.367 . S
C2670 C2678 1.378 . S
C2671 C2670 1.367 . S
C2671 C2679 1.433 . S
C2672 H2668 0.929 . S
C2672 C2674 1.378 . S
C2672 C2676 1.350 . S
C2673 C2676 1.463 . S
C2673 C2678 1.350 . S
C2673 N2681 1.427 . S
C2674 H2665 0.930 . S
C2674 C2672 1.378 . S
C2674 C2675 1.367 . S
C2675 C2674 1.367 . S
C2675 C2677 1.433 . S
C2676 C2672 1.350 . S
C2676 C2673 1.463 . S
C2676 N2680 1.427 . S
C2677 H2667 0.929 . S
C2677 C2675 1.433 . S
C2677 N2680 1.384 . S
C2678 H2669 0.929 . S
C2678 C2670 1.378 . S
C2678 C2673 1.350 . S
C2679 H2666 0.929 . S
C2679 C2671 1.433 . S
C2679 N2681 1.384 . S
N2680 C2676 1.427 . S
N2680 C2677 1.384 . S
N2681 C2673 1.427 . S
N2681 C2679 1.384 . S
H2682 C2688 0.930 . S
H2683 C2692 0.930 . S
H2684 C2697 0.929 . S
H2685 C2695 0.929 . S
H2686 C2690 0.929 . S
H2687 C2696 0.929 . S
C2688 H2682 0.930 . S
C2688 C2689 1.367 . S
C2688 C2696 1.378 . S
C2689 C2688 1.367 . S
C2689 C2697 1.433 . S
C2690 H2686 0.929 . S
C2690 C2692 1.378 . S
C2690 C2694 1.350 . S
C2691 C2694 1.463 . S
C2691 C2696 1.350 . S
C2691 N2699 1.427 . S
C2692 H2683 0.930 . S
C2692 C2690 1.378 . S
C2692 C2693 1.367 . S
C2693 C2692 1.367 . S
C2693 C2695 1.433 . S
C2694 C2690 1.350 . S
C2694 C2691 1.463 . S
C2694 N2698 1.427 . S
C2695 H2685 0.929 . S
C2695 C2693 1.433 . S
C2695 N2698 1.384 . S
C2696 H2687 0.929 . S
C2696 C2688 1.378 . S
C2696 C2691 1.350 . S
C2697 H2684 0.929 . S
C2697 C2689 1.433 . S
C2697 N2699 1.384 . S
N2698 C2694 1.427 . S
N2698 C2695 1.384 . S
N2699 C2691 1.427 . S
N2699 C2697 1.384 . S
H2700 C2706 0.930 . S
H2701 C2710 0.930 . S
H2702 C2715 0.929 . S
H2703 C2713 0.929 . S
H2704 C2708 0.929 . S
H2705 C2714 0.929 . S
C2706 H2700 0.930 . S
C2706 C2707 1.367 . S
C2706 C2714 1.378 . S
C2707 C2706 1.367 . S
C2707 C2715 1.433 . S
C2708 H2704 0.929 . S
C2708 C2710 1.378 . S
C2708 C2712 1.350 . S
C2709 C2712 1.463 . S
C2709 C2714 1.350 . S
C2709 N2717 1.427 . S
C2710 H2701 0.930 . S
C2710 C2708 1.378 . S
C2710 C2711 1.367 . S
C2711 C2710 1.367 . S
C2711 C2713 1.433 . S
C2712 C2708 1.350 . S
C2712 C2709 1.463 . S
C2712 N2716 1.427 . S
C2713 H2703 0.929 . S
C2713 C2711 1.433 . S
C2713 N2716 1.384 . S
C2714 H2705 0.929 . S
C2714 C2706 1.378 . S
C2714 C2709 1.350 . S
C2715 H2702 0.929 . S
C2715 C2707 1.433 . S
C2715 N2717 1.384 . S
N2716 C2712 1.427 . S
N2716 C2713 1.384 . S
N2717 C2709 1.427 . S
N2717 C2715 1.384 . S
H2718 C2724 0.930 . S
H2719 C2728 0.930 . S
H2720 C2733 0.929 . S
H2721 C2731 0.929 . S
H2722 C2726 0.929 . S
H2723 C2732 0.929 . S
C2724 H2718 0.930 . S
C2724 C2725 1.367 . S
C2724 C2732 1.378 . S
C2725 C2724 1.367 . S
C2725 C2733 1.433 . S
C2726 H2722 0.929 . S
C2726 C2728 1.378 . S
C2726 C2730 1.350 . S
C2727 C2730 1.463 . S
C2727 C2732 1.350 . S
C2727 N2735 1.427 . S
C2728 H2719 0.930 . S
C2728 C2726 1.378 . S
C2728 C2729 1.367 . S
C2729 C2728 1.367 . S
C2729 C2731 1.433 . S
C2730 C2726 1.350 . S
C2730 C2727 1.463 . S
C2730 N2734 1.427 . S
C2731 H2721 0.929 . S
C2731 C2729 1.433 . S
C2731 N2734 1.384 . S
C2732 H2723 0.929 . S
C2732 C2724 1.378 . S
C2732 C2727 1.350 . S
C2733 H2720 0.929 . S
C2733 C2725 1.433 . S
C2733 N2735 1.384 . S
N2734 C2730 1.427 . S
N2734 C2731 1.384 . S
N2735 C2727 1.427 . S
N2735 C2733 1.384 . S
H2736 C2742 0.930 . S
H2737 C2746 0.930 . S
H2738 C2751 0.929 . S
H2739 C2749 0.929 . S
H2740 C2744 0.929 . S
H2741 C2750 0.929 . S
C2742 H2736 0.930 . S
C2742 C2743 1.367 . S
C2742 C2750 1.378 . S
C2743 C2742 1.367 . S
C2743 C2751 1.433 . S
C2744 H2740 0.929 . S
C2744 C2746 1.378 . S
C2744 C2748 1.350 . S
C2745 C2748 1.463 . S
C2745 C2750 1.350 . S
C2745 N2753 1.427 . S
C2746 H2737 0.930 . S
C2746 C2744 1.378 . S
C2746 C2747 1.367 . S
C2747 C2746 1.367 . S
C2747 C2749 1.433 . S
C2748 C2744 1.350 . S
C2748 C2745 1.463 . S
C2748 N2752 1.427 . S
C2749 H2739 0.929 . S
C2749 C2747 1.433 . S
C2749 N2752 1.384 . S
C2750 H2741 0.929 . S
C2750 C2742 1.378 . S
C2750 C2745 1.350 . S
C2751 H2738 0.929 . S
C2751 C2743 1.433 . S
C2751 N2753 1.384 . S
N2752 C2748 1.427 . S
N2752 C2749 1.384 . S
N2753 C2745 1.427 . S
N2753 C2751 1.384 . S
H2754 C2760 0.930 . S
H2755 C2764 0.930 . S
H2756 C2769 0.929 . S
H2757 C2767 0.929 . S
H2758 C2762 0.929 . S
H2759 C2768 0.929 . S
C2760 H2754 0.930 . S
C2760 C2761 1.367 1_455 S
C2760 C2768 1.378 . S
C2761 C2760 1.367 1_655 S
C2761 C2769 1.433 . S
C2762 H2758 0.929 . S
C2762 C2764 1.378 . S
C2762 C2766 1.350 . S
C2763 C2766 1.463 . S
C2763 C2768 1.350 1_655 S
C2763 N2771 1.427 . S
C2764 H2755 0.930 . S
C2764 C2762 1.378 . S
C2764 C2765 1.367 . S
C2765 C2764 1.367 . S
C2765 C2767 1.433 1_655 S
C2766 C2762 1.350 . S
C2766 C2763 1.463 . S
C2766 N2770 1.427 1_655 S
C2767 H2757 0.929 . S
C2767 C2765 1.433 1_455 S
C2767 N2770 1.384 . S
C2768 H2759 0.929 . S
C2768 C2760 1.378 . S
C2768 C2763 1.350 1_455 S
C2769 H2756 0.929 . S
C2769 C2761 1.433 . S
C2769 N2771 1.384 . S
N2770 C2766 1.427 1_455 S
N2770 C2767 1.384 . S
N2771 C2763 1.427 . S
N2771 C2769 1.384 . S
H2772 C2778 0.930 . S
H2773 C2782 0.930 . S
H2774 C2787 0.929 . S
H2775 C2785 0.929 . S
H2776 C2780 0.929 . S
H2777 C2786 0.929 . S
C2778 H2772 0.930 . S
C2778 C2779 1.367 . S
C2778 C2786 1.378 . S
C2779 C2778 1.367 . S
C2779 C2787 1.433 . S
C2780 H2776 0.929 . S
C2780 C2782 1.378 . S
C2780 C2784 1.350 . S
C2781 C2784 1.463 . S
C2781 C2786 1.350 . S
C2781 N2789 1.427 . S
C2782 H2773 0.930 . S
C2782 C2780 1.378 . S
C2782 C2783 1.367 . S
C2783 C2782 1.367 . S
C2783 C2785 1.433 . S
C2784 C2780 1.350 . S
C2784 C2781 1.463 . S
C2784 N2788 1.427 . S
C2785 H2775 0.929 . S
C2785 C2783 1.433 . S
C2785 N2788 1.384 . S
C2786 H2777 0.929 . S
C2786 C2778 1.378 . S
C2786 C2781 1.350 . S
C2787 H2774 0.929 . S
C2787 C2779 1.433 . S
C2787 N2789 1.384 . S
N2788 C2784 1.427 . S
N2788 C2785 1.384 . S
N2789 C2781 1.427 . S
N2789 C2787 1.384 . S
H2790 C2796 0.930 . S
H2791 C2800 0.941 1_565 S
H2792 C2805 0.929 . S
H2793 C2803 0.929 . S
H2794 C2798 0.929 . S
H2795 C2804 0.929 . S
C2796 H2790 0.930 . S
C2796 C2797 1.367 . S
C2796 C2804 1.378 . S
C2797 C2796 1.367 . S
C2797 C2805 1.433 . S
C2798 H2794 0.929 . S
C2798 C2800 1.378 . S
C2798 C2802 1.350 . S
C2799 C2802 1.463 . S
C2799 C2804 1.350 . S
C2799 N2807 1.427 . S
C2800 H2791 0.941 1_545 S
C2800 C2798 1.378 . S
C2800 C2801 1.367 . S
C2801 C2800 1.367 . S
C2801 C2803 1.433 . S
C2802 C2798 1.350 . S
C2802 C2799 1.463 . S
C2802 N2806 1.427 . S
C2803 H2793 0.929 . S
C2803 C2801 1.433 . S
C2803 N2806 1.384 . S
C2804 H2795 0.929 . S
C2804 C2796 1.378 . S
C2804 C2799 1.350 . S
C2805 H2792 0.929 . S
C2805 C2797 1.433 . S
C2805 N2807 1.384 . S
N2806 C2802 1.427 . S
N2806 C2803 1.384 . S
N2807 C2799 1.427 . S
N2807 C2805 1.384 . S
C1519 C4 1.459 . S
C1523 C1125 1.460 . S
C1537 C38 1.704 . S
C1541 C1173 1.711 . S
C1559 C1221 1.477 . S
C1555 C74 1.451 . S
C1573 C76 1.437 . S
C1577 C1245 1.455 . S
C1591 C2 1.549 . S
C1595 C1317 1.576 . S
C1609 C40 1.539 . S
C1613 C1365 1.546 . S
C1627 C110 1.504 . S
C1631 C1293 1.541 . S
C1649 C1341 1.550 . S
C1645 C148 1.546 . S
C1667 C1269 1.572 . S
C1663 C182 1.509 . S
C1681 C184 1.486 . S
C1685 C1197 1.509 . S
C1703 C1101 1.456 . S
C1699 C112 1.437 . S
C1717 C146 1.646 . S
C1721 C1149 1.650 . S
C1735 C220 1.637 . S
C1739 C1413 1.638 . S
C1753 C254 1.783 . S
C1757 C1461 1.777 . S
C1775 C1485 1.634 . S
C1771 C290 1.649 . S
C1789 C292 1.544 . S
C1793 C669 1.540 . S
C1807 C218 1.693 . S
C1811 C741 1.702 . S
C1825 C256 1.576 . S
C1829 C789 1.569 . S
C1843 C326 1.672 . S
C1847 C717 1.680 . S
C1861 C364 1.611 . S
C1865 C765 1.598 . S
C1883 C693 1.653 . S
C1879 C398 1.694 . S
C1901 C1509 1.629 . S
C1897 C400 1.668 . S
C1919 C1389 1.527 . S
C1915 C328 1.535 . S
C1937 C1437 1.722 . S
C1933 C362 1.721 . S
C1951 C436 1.564 . S
C1955 C837 1.567 . S
C1969 C470 1.755 . S
C1973 C885 1.752 . S
C1987 C506 1.654 . S
C1991 C909 1.632 . S
C2005 C508 1.622 . S
C2009 C957 1.603 . S
C2027 C1029 1.695 . S
C2023 C434 1.690 . S
C2045 C1077 1.592 . S
C2041 C472 1.604 . S
C2063 C1005 1.756 . S
C2059 C542 1.761 . S
C2081 C1053 1.617 . S
C2077 C580 1.626 . S
C2095 C614 1.681 . S
C2099 C981 1.639 . S
C2117 C933 1.559 . S
C2113 C616 1.580 . S
C2131 C544 1.546 . S
C2135 C813 1.542 . S
C2153 C861 1.681 . S
C2149 C578 1.686 . S
C2171 C678 1.626 . S
C2167 C14 1.600 . S
C2185 C39 1.542 . S
C2189 C732 1.516 . S
C2207 C780 1.519 . S
C2203 C75 1.555 . S
C2225 C828 1.450 . S
C2221 C86 1.452 . S
C2243 C876 1.570 . S
C2239 C3 1.598 . S
C2261 C918 1.543 . S
C2257 C50 1.513 . S
C2275 C111 1.584 . S
C2279 C924 1.574 . S
C2293 C158 1.473 . S
C2297 C822 1.447 . S
C2311 C183 1.668 . S
C2315 C870 1.619 . S
C2329 C194 1.587 . S
C2333 C726 1.570 . S
C2351 C774 1.481 . S
C2347 C122 1.502 . S
C2365 C147 1.463 . S
C2369 C684 1.452 . S
C2387 C966 1.586 . S
C2383 C230 1.566 . S
C2401 C255 1.652 . S
C2405 C1020 1.624 . S
C2419 C291 1.589 . S
C2423 C1068 1.556 . S
C2441 C1116 1.336 . S
C2437 C302 1.290 . S
C2455 C219 1.567 . S
C2459 C1164 1.540 . S
C2473 C266 1.374 . S
C2477 C1212 1.426 . S
C2491 C327 1.353 . S
C2495 C1206 1.348 . S
C2509 C374 1.339 . S
C2513 C1110 1.378 . S
C2531 C1158 1.594 . S
C2527 C399 1.633 . S
C2545 C410 1.552 . S
C2549 C1014 1.550 . S
C2563 C338 1.552 . S
C2567 C1062 1.558 . S
C2585 C972 1.560 . S
C2581 C363 1.573 . S
C2603 C1254 1.430 . S
C2599 C446 1.368 . S
C2617 C471 1.413 . S
C2621 C1308 1.409 . S
C2635 C507 1.517 . S
C2639 C1356 1.493 . S
C2657 C1404 1.433 . S
C2653 C518 1.440 . S
C2675 C1452 1.618 . S
C2671 C435 1.648 . S
C2689 C482 1.604 . S
C2693 C1494 1.644 . S
C2707 C543 1.531 . S
C2711 C1500 1.518 . S
C2725 C590 1.570 . S
C2729 C1398 1.555 . S
C2747 C1446 1.655 . S
C2743 C615 1.700 . S
C2765 C1302 1.423 . S
C2761 C626 1.370 . S
C2783 C1350 1.493 . S
C2779 C554 1.510 . S
C2797 C579 1.362 . S
C2801 C1260 1.364 . S
