# Generated by pormake.
# Topology tsx, (6,3)-cn, num edge types: 1
# Building blocks:
#     Node 0, Type 0, BuildingBlock: FUNLAD_clean_sbu_0, # of connection points: 6
#     Node 1, Type 0, BuildingBlock: FUNLAD_clean_sbu_0, # of connection points: 6
#     Node 2, Type 1, BuildingBlock: MIDCAF_clean_linker_0, # of connection points: 3
#     Node 3, Type 1, BuildingBlock: MIDCAF_clean_linker_0, # of connection points: 3
#     Node 4, Type 1, BuildingBlock: MIDCAF_clean_linker_0, # of connection points: 3
#     Node 5, Type 1, BuildingBlock: MIDCAF_clean_linker_0, # of connection points: 3
#     Edge 6, Type (0, 1), BuildingBlock: FUNLAD_clean_linker_0, # of connection points: 2
#     Edge 7, Type (0, 1), BuildingBlock: FUNLAD_clean_linker_0, # of connection points: 2
#     Edge 8, Type (0, 1), BuildingBlock: FUNLAD_clean_linker_0, # of connection points: 2
#     Edge 9, Type (0, 1), BuildingBlock: FUNLAD_clean_linker_0, # of connection points: 2
#     Edge 10, Type (0, 1), BuildingBlock: FUNLAD_clean_linker_0, # of connection points: 2
#     Edge 11, Type (0, 1), BuildingBlock: FUNLAD_clean_linker_0, # of connection points: 2
#     Edge 12, Type (0, 1), BuildingBlock: FUNLAD_clean_linker_0, # of connection points: 2
#     Edge 13, Type (0, 1), BuildingBlock: FUNLAD_clean_linker_0, # of connection points: 2
#     Edge 14, Type (0, 1), BuildingBlock: FUNLAD_clean_linker_0, # of connection points: 2
#     Edge 15, Type (0, 1), BuildingBlock: FUNLAD_clean_linker_0, # of connection points: 2
#     Edge 16, Type (0, 1), BuildingBlock: FUNLAD_clean_linker_0, # of connection points: 2
#     Edge 17, Type (0, 1), BuildingBlock: FUNLAD_clean_linker_0, # of connection points: 2
# Relax obj value: 0.166
# Max RMSD: 0.156
# Mean RMSD: 0.093
data_MOF--net-tsx--node1-FUNLAD_clean_sbu_0--node2-MIDCAF_clean_linker_0--edge1-FUNLAD_clean_linker_0
_symmetry_space_group_name_H-M    P1
_symmetry_Int_Tables_number       1
_symmetry_cell_setting            triclinic
loop_
_symmetry_equiv_pos_as_xyz
'x, y, z'
_cell_length_a     26.379536
_cell_length_b     29.242753
_cell_length_c     55.722339
_cell_angle_alpha  90.940044
_cell_angle_beta   92.114675
_cell_angle_gamma 89.924152
loop_
_atom_site_label
_atom_site_type_symbol
_atom_site_fract_x
_atom_site_fract_y
_atom_site_fract_z
_atom_type_partial_charge
C0 C 0.93539 0.94167 0.00427 0.0
N1 N 0.01942 0.01582 0.0572 0.0
C2 C 0.97668 0.01411 0.07009 0.0
C3 C 0.97995 0.01448 0.09511 0.0
C4 C 0.02767 0.01682 0.10711 0.0
C5 C 0.07119 0.01899 0.09335 0.0
C6 C 0.06618 0.0184 0.0683 0.0
Zn7 Zn 0.01193 0.01288 0.02061 0.0
C8 C 0.08134 0.94565 -0.00042 0.0
N9 N 0.99214 0.0053 0.94428 0.0
C10 C 0.94549 0.00465 0.93301 0.0
C11 C 0.03516 0.00621 0.93156 0.0
C12 C 0.0323 0.0076 0.90655 0.0
C13 C 0.9847 0.00803 0.89442 0.0
C14 C 0.94087 0.0059 0.90795 0.0
Zn15 Zn -0.00058 0.00793 0.98092 0.0
O16 O 0.9571 0.96 0.02277 0.0
C17 C 0.92942 0.07454 0.00287 0.0
O18 O 0.94617 0.95538 0.98357 0.0
H19 H 0.07188 0.00661 0.94084 0.0
H20 H 0.93988 0.01194 0.06093 0.0
H21 H 0.91178 0.00402 0.94348 0.0
O22 O 0.95428 0.06239 0.02163 0.0
O23 O 0.94028 0.05718 0.98261 0.0
H24 H 0.09966 0.01973 0.0577 0.0
O25 O 0.05303 0.06079 0.97848 0.0
O26 O 0.06681 0.06498 0.01753 0.0
O27 O 0.0583 0.958 0.98029 0.0
O28 O 0.06935 0.96357 0.01947 0.0
C29 C 0.07644 0.07854 0.99662 0.0
H30 H 0.94541 0.01199 0.10493 0.0
H31 H 0.10871 0.02133 0.10184 0.0
H32 H 0.06706 0.0085 0.89681 0.0
H33 H 0.90342 0.00654 0.89932 0.0
C34 C 0.44497 0.43546 0.49804 0.0
N35 N 0.52375 0.50167 0.55524 0.0
C36 C 0.47904 0.50505 0.56655 0.0
C37 C 0.47833 0.50445 0.59158 0.0
C38 C 0.52407 0.5002 0.6051 0.0
C39 C 0.56969 0.49745 0.59293 0.0
C40 C 0.56866 0.49832 0.5679 0.0
Zn41 Zn 0.52386 0.49913 0.51867 0.0
C42 C 0.59162 0.42489 0.50152 0.0
N43 N 0.52538 0.4919 0.44222 0.0
C44 C 0.48069 0.49362 0.42927 0.0
C45 C 0.5705 0.48936 0.43121 0.0
C46 C 0.57186 0.48902 0.40619 0.0
C47 C 0.52633 0.49104 0.39237 0.0
C48 C 0.48028 0.49306 0.4042 0.0
Zn49 Zn 0.52495 0.4946 0.47883 0.0
O50 O 0.46312 0.45181 0.51781 0.0
C51 C 0.45735 0.56899 0.49643 0.0
O52 O 0.46379 0.44764 0.47848 0.0
H53 H 0.60556 0.48785 0.44185 0.0
H54 H 0.44379 0.50773 0.55612 0.0
H55 H 0.44527 0.49587 0.4384 0.0
O56 O 0.47208 0.55374 0.51671 0.0
O57 O 0.47337 0.55032 0.47737 0.0
H58 H 0.60376 0.49556 0.55854 0.0
O59 O 0.58595 0.54197 0.47963 0.0
O60 O 0.58402 0.54678 0.51889 0.0
O61 O 0.57642 0.43897 0.48102 0.0
O62 O 0.57586 0.44448 0.52032 0.0
C63 C 0.60291 0.55924 0.49939 0.0
H64 H 0.44234 0.5073 0.60023 0.0
H65 H 0.60577 0.49353 0.60258 0.0
H66 H 0.60814 0.48689 0.39775 0.0
H67 H 0.44438 0.49511 0.3942 0.0
C68 C 0.84137 0.06476 0.45511 0.0
C69 C 0.84969 0.08148 0.47871 0.0
C70 C 0.89514 0.07028 0.49124 0.0
C71 C 0.93247 0.04467 0.47993 0.0
H72 H 0.04915 0.94182 0.48981 0.0
H73 H 0.11434 0.89466 0.5095 0.0
H74 H 0.19412 0.8861 0.44324 0.0
H75 H 0.1301 0.93346 0.42376 0.0
H76 H 0.0756 0.95816 0.37558 0.0
H77 H 0.07873 0.96782 0.33236 0.0
H78 H 0.94282 0.05022 0.33343 0.0
H79 H 0.93983 0.04122 0.37671 0.0
H80 H 0.87168 0.02842 0.42534 0.0
H81 H 0.80709 0.07328 0.44484 0.0
H82 H 0.90246 0.08252 0.50949 0.0
H83 H 0.96797 0.03813 0.48962 0.0
N84 N 0.00452 0.98582 0.4547 0.0
N85 N 0.04367 0.97124 0.41822 0.0
N86 N 0.96749 0.01212 0.41853 0.0
C87 C 0.04321 0.96699 0.44246 0.0
C88 C 0.00604 0.99379 0.40611 0.0
C89 C 0.96645 0.0083 0.44277 0.0
C90 C 0.08409 0.94117 0.45513 0.0
C91 C 0.08089 0.93029 0.47953 0.0
C92 C 0.1181 0.90315 0.49081 0.0
C93 C 0.15937 0.88671 0.47794 0.0
C94 C 0.16325 0.89878 0.45378 0.0
C95 C 0.12613 0.92565 0.44253 0.0
C96 C 0.00748 -0.00107 0.37972 0.0
C97 C 0.04631 0.97835 0.36667 0.0
C98 C 0.04801 0.98367 0.34184 0.0
C99 C 0.01107 0.00982 0.32949 0.0
C100 C 0.97221 0.03034 0.34249 0.0
C101 C 0.97036 0.0249 0.3673 0.0
C102 C 0.92506 0.03013 0.4559 0.0
C103 C 0.87867 0.03948 0.44382 0.0
C104 C 0.84815 0.91326 0.53481 0.0
C105 C 0.86595 0.89783 0.51265 0.0
C106 C 0.91041 0.91721 0.50403 0.0
C107 C 0.93689 0.95083 0.51763 0.0
H108 H 0.03932 0.06774 0.51554 0.0
H109 H 0.09242 0.12866 0.50031 0.0
H110 H 0.09508 0.19515 0.57013 0.0
H111 H 0.04195 0.13537 0.58518 0.0
H112 H 0.01866 0.07691 0.63018 0.0
H113 H 0.01391 0.06969 0.67348 0.0
H114 H 0.9097 0.95668 0.66309 0.0
H115 H 0.91503 0.96317 0.61978 0.0
H116 H 0.86019 0.95672 0.56558 0.0
H117 H 0.81456 0.89851 0.54219 0.0
H118 H 0.92499 0.90598 0.48699 0.0
H119 H 0.97169 0.96447 0.51097 0.0
N120 N 0.97909 0.02981 0.54647 0.0
N121 N 0.00047 0.05679 0.58548 0.0
N122 N 0.94512 -0.00506 0.57998 0.0
C123 C 0.0047 0.05994 0.56132 0.0
C124 C 0.97099 0.02427 0.59498 0.0
C125 C 0.94891 -0.0026 0.55579 0.0
C126 C 0.03629 0.09662 0.55158 0.0
C127 C 0.05087 0.0956 0.52754 0.0
C128 C 0.08149 0.1303 0.51885 0.0
C129 C 0.09757 0.16684 0.53398 0.0
C130 C 0.08261 0.1679 0.5579 0.0
C131 C 0.05248 0.13327 0.56659 0.0
C132 C 0.9673 0.0206 0.62139 0.0
C133 C -0.00535 0.05052 0.63706 0.0
C134 C 0.99173 0.04656 0.66193 0.0
C135 C 0.96142 0.01261 0.67175 0.0
C136 C 0.93391 0.98282 0.65611 0.0
C137 C 0.93678 0.98677 0.63124 0.0
C138 C 0.91961 0.96505 0.54012 0.0
C139 C 0.87466 0.94631 0.54838 0.0
C140 C 0.36815 0.61662 0.94209 0.0
C141 C 0.35999 0.61856 0.9668 0.0
C142 C 0.38881 0.59045 0.98231 0.0
C143 C 0.42397 0.55955 0.973 0.0
H144 H 0.54392 0.45232 0.98728 0.0
H145 H 0.58334 0.38785 0.00854 0.0
H146 H 0.5643 0.30389 0.94428 0.0
H147 H 0.52448 0.36757 0.92341 0.0
H148 H 0.55799 0.43271 0.87531 0.0
H149 H 0.57289 0.43762 0.8325 0.0
H150 H 0.48807 0.56398 0.82948 0.0
H151 H 0.47394 0.55977 0.87217 0.0
H152 H 0.40787 0.58551 0.91362 0.0
H153 H 0.34704 0.63855 0.92982 0.0
H154 H 0.38323 0.5916 0.00147 0.0
H155 H 0.44507 0.53757 0.98523 0.0
N156 N 0.4842 0.48724 0.95064 0.0
N157 N 0.52218 0.45705 0.91628 0.0
N158 N 0.47605 0.52513 0.91393 0.0
C159 C 0.51236 0.45422 0.93999 0.0
C160 C 0.50447 0.49269 0.90316 0.0
C161 C 0.46559 0.52274 0.93754 0.0
C162 C 0.53157 0.41484 0.95371 0.0
C163 C 0.54728 0.4197 0.97797 0.0
C164 C 0.56993 0.38296 0.99006 0.0
C165 C 0.57688 0.34085 0.97807 0.0
C166 C 0.55884 0.33563 0.95415 0.0
C167 C 0.53665 0.37229 0.94208 0.0
C168 C 0.51466 0.49578 0.87725 0.0
C169 C 0.54268 0.46166 0.86556 0.0
C170 C 0.55104 0.46433 0.84099 0.0
C171 C 0.53167 0.50119 0.8276 0.0
C172 C 0.50413 0.53548 0.83934 0.0
C173 C 0.49575 0.53284 0.86385 0.0
C174 C 0.43119 0.55692 0.9481 0.0
C175 C 0.40339 0.58636 0.93286 0.0
C176 C 0.44813 0.33901 0.03549 0.0
C177 C 0.42557 0.34694 0.01271 0.0
C178 C 0.42947 0.39059 0.00273 0.0
C179 C 0.45371 0.42607 0.01578 0.0
H180 H 0.54858 0.54542 0.00965 0.0
H181 H 0.60305 0.60339 0.9925 0.0
H182 H 0.65293 0.64683 0.06391 0.0
H183 H 0.5992 0.58975 0.08108 0.0
H184 H 0.5606 0.54502 0.12578 0.0
H185 H 0.5557 0.54259 0.16928 0.0
H186 H 0.45183 0.42875 0.16231 0.0
H187 H 0.45627 0.43116 0.1187 0.0
H188 H 0.48767 0.36748 0.06634 0.0
H189 H 0.4451 0.30599 0.04385 0.0
H190 H 0.4126 0.39758 0.98515 0.0
H191 H 0.45498 0.45976 0.00804 0.0
N192 N 0.51947 0.49159 0.0436 0.0
N193 N 0.53665 0.52427 0.08175 0.0
N194 N 0.49218 0.45529 0.07813 0.0
C195 C 0.54039 0.5257 0.05752 0.0
C196 C 0.51237 0.4894 0.0922 0.0
C197 C 0.49555 0.45621 0.05387 0.0
C198 C 0.56985 0.56262 0.04676 0.0
C199 C 0.57097 0.56753 0.02168 0.0
C200 C 0.60192 0.60071 0.01184 0.0
C201 C 0.63257 0.62894 0.02692 0.0
C202 C 0.63026 0.62488 0.0519 0.0
C203 C 0.59917 0.59227 0.06171 0.0
C204 C 0.5089 0.48821 0.11868 0.0
C205 C 0.53657 0.51948 0.13344 0.0
C206 C 0.53403 0.51798 0.1584 0.0
C207 C 0.50349 0.48542 0.16918 0.0
C208 C 0.47537 0.45447 0.15448 0.0
C209 C 0.4782 0.45571 0.1295 0.0
C210 C 0.47403 0.41841 0.03902 0.0
C211 C 0.47188 0.3744 0.04854 0.0
C212 C 0.1521 0.12345 0.01146 0.0
C213 C 0.11587 0.11322 0.9931 0.0
C214 C 0.19111 0.15436 0.00756 0.0
C215 C 0.19435 0.17585 0.98526 0.0
C216 C 0.15731 0.16667 0.96716 0.0
C217 C 0.11874 0.13521 0.97092 0.0
C218 C 0.23451 0.20975 0.98104 0.0
C219 C 0.28167 0.20548 0.99075 0.0
C220 C 0.32055 0.24208 0.99074 0.0
C221 C 0.37099 0.23078 0.99701 0.0
C222 C 0.40675 0.26503 0.00213 0.0
C223 C 0.39255 0.31131 0.00127 0.0
H224 H 0.26892 0.29882 0.98355 0.0
C225 C 0.34322 0.32268 0.99309 0.0
C226 C 0.30745 0.28844 0.98794 0.0
H227 H 0.331 0.35804 0.99252 0.0
H228 H 0.15078 0.1071 0.02874 0.0
H229 H 0.21822 0.16188 0.02215 0.0
H230 H 0.15863 0.18337 0.94998 0.0
H231 H 0.09113 0.12817 0.95646 0.0
H232 H 0.22479 0.23842 0.96963 0.0
H233 H 0.2918 0.17423 0.00011 0.0
H234 H 0.38217 0.19538 -0.0008 0.0
H235 H 0.44476 0.25533 0.00809 0.0
C236 C 0.12401 0.88045 0.97899 0.0
C237 C 0.12016 0.90934 -0.00081 0.0
C238 C 0.1583 0.84408 0.9793 0.0
C239 C 0.18963 0.83613 -0.0002 0.0
C240 C 0.1873 0.86608 0.01961 0.0
C241 C 0.15245 0.90209 0.01944 0.0
C242 C 0.22581 0.79743 0.00051 0.0
C243 C 0.21382 0.75661 0.99037 0.0
C244 C 0.25023 0.71839 0.98737 0.0
C245 C 0.23771 0.68442 0.9701 0.0
C246 C 0.27267 0.65071 0.96429 0.0
C247 C 0.32086 0.64993 0.9758 0.0
H248 H 0.30801 0.74043 0.01404 0.0
C249 C 0.33242 0.6818 0.99429 0.0
C250 C 0.2974 0.71589 5e-05 0.0
H251 H 0.36931 0.68163 0.0035 0.0
H252 H 0.09985 0.88535 0.96309 0.0
H253 H 0.16047 0.82241 0.96343 0.0
H254 H 0.21164 0.86098 0.03543 0.0
H255 H 0.15063 0.9241 0.03522 0.0
H256 H 0.26257 0.8033 0.00936 0.0
H257 H 0.17595 0.75192 0.98233 0.0
H258 H 0.20147 0.68504 0.96029 0.0
H259 H 0.26261 0.62597 0.95023 0.0
C260 C 0.87684 0.882 0.98633 0.0
C261 C 0.89892 0.90396 0.00677 0.0
C262 C 0.84385 0.84516 0.9887 0.0
C263 C 0.83205 0.82977 0.01163 0.0
C264 C 0.85394 0.85197 0.03199 0.0
C265 C 0.88689 0.88873 0.02962 0.0
C266 C 0.79924 0.78952 0.01524 0.0
C267 C 0.76613 0.772 0.99854 0.0
C268 C 0.73385 0.73215 0.0037 0.0
C269 C 0.68458 0.72903 0.99336 0.0
C270 C 0.65186 0.6942 5e-05 0.0
C271 C 0.66823 0.66204 0.0171 0.0
H272 H 0.78966 0.69796 0.02683 0.0
C273 C 0.71856 0.6634 0.02614 0.0
C274 C 0.75116 0.69788 0.0194 0.0
H275 H 0.73241 0.6382 0.03884 0.0
H276 H 0.88563 0.89278 0.96845 0.0
H277 H 0.82889 0.82832 0.97254 0.0
H278 H 0.84574 0.84067 0.04986 0.0
H279 H 0.9033 0.90487 0.04573 0.0
H280 H 0.80119 0.77474 0.03302 0.0
H281 H 0.75975 0.78881 0.98148 0.0
H282 H 0.67071 0.75464 0.98091 0.0
H283 H 0.61322 0.69361 0.99275 0.0
C284 C 0.85299 0.11471 0.98552 0.0
C285 C 0.88734 0.10754 0.00494 0.0
C286 C 0.81225 0.14481 0.9879 0.0
C287 C 0.80518 0.1684 0.00976 0.0
C288 C 0.84007 0.16188 0.02898 0.0
C289 C 0.88048 0.13144 0.0267 0.0
C290 C 0.76374 0.20213 0.01246 0.0
C291 C 0.7188 0.19819 0.00038 0.0
C292 C 0.6796 0.23469 -0.00037 0.0
C293 C 0.63076 0.22368 0.99048 0.0
C294 C 0.59551 0.25809 0.98526 0.0
C295 C 0.60858 0.30428 0.98895 0.0
H296 H 0.7287 0.29112 0.01157 0.0
C297 C 0.65605 0.3152 -0.00025 0.0
C298 C 0.69134 0.28082 0.00495 0.0
H299 H 0.66747 0.35052 0.0025 0.0
H300 H 0.85737 0.09691 0.96852 0.0
H301 H 0.78703 0.1502 0.97244 0.0
H302 H 0.83586 0.18015 0.04586 0.0
H303 H 0.90646 0.12681 0.04198 0.0
H304 H 0.77068 0.23056 0.0249 0.0
H305 H 0.71077 0.16724 0.98986 0.0
H306 H 0.6206 0.18847 0.98628 0.0
H307 H 0.55892 0.2487 0.97719 0.0
C308 C 0.6616 0.6112 0.47814 0.0
C309 C 0.64065 0.59664 0.49958 0.0
C310 C 0.69233 0.6502 0.47803 0.0
C311 C 0.70242 0.67537 0.49939 0.0
C312 C 0.68287 0.65987 0.52087 0.0
C313 C 0.65266 0.62079 0.52103 0.0
C314 C 0.72928 0.71988 0.49984 0.0
C315 C 0.76348 0.73247 0.48386 0.0
C316 C 0.78901 0.77747 0.48646 0.0
C317 C 0.84184 0.78057 0.48487 0.0
C318 C 0.8671 0.8211 0.49173 0.0
C319 C 0.83963 0.85914 0.49998 0.0
H320 H 0.72033 0.81566 0.49317 0.0
C321 C 0.78637 0.85721 0.49917 0.0
C322 C 0.76131 0.81677 0.49255 0.0
H323 H 0.76414 0.88636 0.50485 0.0
H324 H 0.65294 0.59336 0.4613 0.0
H325 H 0.70608 0.66159 0.46107 0.0
H326 H 0.69005 0.67868 0.53757 0.0
H327 H 0.63718 0.61059 0.53787 0.0
H328 H 0.72165 0.74303 0.51477 0.0
H329 H 0.77594 0.70847 0.47021 0.0
H330 H 0.86384 0.75078 0.47992 0.0
H331 H 0.90818 0.82157 0.49215 0.0
C332 C 0.63334 0.35608 0.48378 0.0
C333 C 0.62574 0.38503 0.50367 0.0
C334 C 0.66354 0.31707 0.48617 0.0
C335 C 0.68695 0.30641 0.50849 0.0
C336 C 0.68061 0.33606 0.52817 0.0
C337 C 0.64984 0.37476 0.52587 0.0
C338 C 0.71994 0.2657 0.51128 0.0
C339 C 0.71056 0.22653 0.49892 0.0
C340 C 0.74594 0.18706 0.49848 0.0
C341 C 0.72766 0.14487 0.48947 0.0
C342 C 0.76105 0.10907 0.48473 0.0
C343 C 0.81355 0.11489 0.48873 0.0
H344 H 0.81413 0.22394 0.51053 0.0
C345 C 0.8316 0.15599 0.49926 0.0
C346 C 0.7982 0.19183 0.50402 0.0
H347 H 0.87192 0.16174 0.50225 0.0
H348 H 0.61545 0.3632 0.46643 0.0
H349 H 0.66905 0.29569 0.47043 0.0
H350 H 0.69889 0.32889 0.54543 0.0
H351 H 0.64496 0.39664 0.5415 0.0
H352 H 0.75188 0.26809 0.52408 0.0
H353 H 0.67562 0.22349 0.48804 0.0
H354 H 0.68761 0.1402 0.4851 0.0
H355 H 0.74602 0.07755 0.47687 0.0
C356 C 0.37814 0.39298 0.51922 0.0
C357 C 0.40248 0.4025 0.49787 0.0
C358 C 0.33824 0.36169 0.51922 0.0
C359 C 0.32166 0.33922 0.49782 0.0
C360 C 0.3464 0.34825 0.47655 0.0
C361 C 0.38614 0.37987 0.4765 0.0
C362 C 0.2804 0.30471 0.49755 0.0
C363 C 0.24205 0.30715 0.51281 0.0
C364 C 0.20264 0.27132 0.51492 0.0
C365 C 0.15845 0.28265 0.52697 0.0
C366 C 0.12315 0.24906 0.53212 0.0
C367 C 0.13139 0.20318 0.52547 0.0
H368 H 0.24391 0.2152 0.49846 0.0
C369 C 0.17445 0.19198 0.51247 0.0
C370 C 0.20991 0.22566 0.50732 0.0
H371 H 0.18209 0.15681 0.50737 0.0
H372 H 0.39001 0.40958 0.53602 0.0
H373 H 0.32126 0.35448 0.53614 0.0
H374 H 0.33475 0.33099 0.4599 0.0
H375 H 0.40432 0.38626 0.45977 0.0
H376 H 0.28132 0.27746 0.48411 0.0
H377 H 0.23917 0.33706 0.52452 0.0
H378 H 0.15181 0.31748 0.53303 0.0
H379 H 0.08995 0.25883 0.54187 0.0
C380 C 0.40506 0.62935 0.51612 0.0
C381 C 0.42364 0.6093 0.49508 0.0
C382 C 0.37505 0.6687 0.51496 0.0
C383 C 0.36292 0.68869 0.49269 0.0
C384 C 0.38156 0.66864 0.47172 0.0
C385 C 0.41135 0.62922 0.47286 0.0
C386 C 0.33226 0.73103 0.49057 0.0
C387 C 0.29815 0.74444 0.50665 0.0
C388 C 0.26487 0.78454 0.50237 0.0
C389 C 0.21429 0.78298 0.50923 0.0
C390 C 0.18032 0.81753 0.5024 0.0
C391 C 0.19666 0.85447 0.48883 0.0
H392 H 0.32139 0.82623 0.48571 0.0
C393 C 0.24828 0.85778 0.4837 0.0
C394 C 0.28208 0.82318 0.49041 0.0
H395 H 0.26224 0.88649 0.47384 0.0
H396 H 0.41419 0.61501 0.53355 0.0
H397 H 0.36251 0.68381 0.53158 0.0
H398 H 0.37298 0.6835 0.45435 0.0
H399 H 0.42528 0.61476 0.45633 0.0
H400 H 0.33548 0.75021 0.47414 0.0
H401 H 0.29063 0.72318 0.52191 0.0
H402 H 0.20037 0.75378 0.51873 0.0
H403 H 0.14078 0.81396 0.50659 0.0
C404 C -0.00369 0.03948 0.14762 0.0
C405 C 0.03179 0.01602 0.13377 0.0
C406 C -0.00156 0.03683 0.17264 0.0
C407 C 0.03662 0.01103 0.18447 0.0
C408 C 0.07231 0.98795 0.17062 0.0
C409 C 0.07005 0.99047 0.14558 0.0
C410 C 0.03895 0.0053 0.21098 0.0
C411 C 0.01574 0.0335 0.22651 0.0
C412 C 0.01623 0.02649 0.2529 0.0
C413 C 0.00497 0.06375 0.268 0.0
C414 C 0.00348 0.05845 0.29284 0.0
C415 C 0.01302 0.0156 0.30313 0.0
H416 H 0.0323 0.95341 0.25224 0.0
C417 C 0.02401 0.9782 0.28805 0.0
C418 C 0.02533 0.98345 0.26321 0.0
H419 H 0.03051 0.94455 0.29542 0.0
H420 H 0.96657 0.05977 0.13911 0.0
H421 H 0.96924 0.05418 0.18241 0.0
H422 H 0.10182 0.96744 0.17919 0.0
H423 H 0.09752 0.97139 0.13547 0.0
H424 H 0.06186 0.97722 0.21784 0.0
H425 H -0.00332 0.06395 0.21991 0.0
H426 H -0.0026 0.0972 0.26058 0.0
H427 H -0.0047 0.08802 0.304 0.0
C428 C 0.94576 0.98616 0.85396 0.0
C429 C 0.98107 0.01213 0.86788 0.0
C430 C 0.94276 0.99016 0.82895 0.0
C431 C 0.97516 0.02027 0.81736 0.0
C432 C 0.00978 0.0467 0.83136 0.0
C433 C 0.0129 0.04257 0.85628 0.0
C434 C 0.97327 0.02617 0.7909 0.0
C435 C 0.95572 -0.00593 0.77509 0.0
C436 C 0.95624 -0.00017 0.74863 0.0
C437 C 0.95786 0.96076 0.73371 0.0
C438 C 0.95935 0.96483 0.70878 0.0
C439 C 0.95882 0.00816 0.6982 0.0
H440 H 0.95132 0.07411 0.74879 0.0
C441 C 0.95601 0.04726 0.7131 0.0
C442 C 0.95453 0.0432 0.73802 0.0
H443 H 0.95431 0.08109 0.70548 0.0
H444 H 0.92072 0.96241 0.86237 0.0
H445 H 0.91454 0.97013 0.81891 0.0
H446 H 0.03478 0.07055 0.82296 0.0
H447 H 0.03985 0.06373 0.86652 0.0
H448 H 0.98994 0.05723 0.78426 0.0
H449 H 0.94352 0.96118 0.78155 0.0
H450 H 0.95884 0.92694 0.74137 0.0
H451 H 0.96187 0.93402 0.69784 0.0
C452 C 0.56226 0.51931 0.64601 0.0
C453 C 0.5242 0.49751 0.6317 0.0
C454 C 0.56313 0.51572 0.67099 0.0
C455 C 0.52554 0.49055 0.68227 0.0
C456 C 0.48772 0.46861 0.66794 0.0
C457 C 0.48693 0.47211 0.64297 0.0
C458 C 0.52504 0.48521 0.70875 0.0
C459 C 0.54904 0.51376 0.72462 0.0
C460 C 0.54639 0.50902 0.75105 0.0
C461 C 0.55377 0.54799 0.76579 0.0
C462 C 0.54983 0.54534 0.79065 0.0
C463 C 0.53883 0.50348 0.80135 0.0
H464 H 0.53296 0.43562 0.75121 0.0
C465 C 0.53318 0.46412 0.7867 0.0
C466 C 0.53709 0.46678 0.76182 0.0
H467 H 0.52462 0.43137 0.79438 0.0
H468 H 0.59142 0.5393 0.63791 0.0
H469 H 0.59385 0.53211 0.68121 0.0
H470 H 0.45859 0.44861 0.67608 0.0
H471 H 0.45761 0.45416 0.63247 0.0
H472 H 0.50161 0.45796 0.71531 0.0
H473 H 0.56866 0.54355 0.71826 0.0
H474 H 0.56174 0.58082 0.75801 0.0
H475 H 0.55534 0.57613 0.8015 0.0
C476 C 0.49261 0.46479 0.35177 0.0
C477 C 0.52694 0.49159 0.36577 0.0
C478 C 0.49336 0.4652 0.3267 0.0
C479 C 0.52814 0.49301 0.31507 0.0
C480 C 0.56255 0.51957 0.32917 0.0
C481 C 0.56199 0.51891 0.3542 0.0
C482 C 0.53113 0.49449 0.28846 0.0
C483 C 0.49447 0.47903 0.27288 0.0
C484 C 0.4981 0.48083 0.24631 0.0
C485 C 0.45339 0.47724 0.2319 0.0
C486 C 0.45503 0.47858 0.20688 0.0
C487 C 0.50153 0.48352 0.19571 0.0
H488 H 0.58041 0.48584 0.24525 0.0
C489 C 0.54636 0.48647 0.21004 0.0
C490 C 0.54479 0.4848 0.23503 0.0
H491 H 0.58285 0.48927 0.20188 0.0
H492 H 0.46574 0.44279 0.36022 0.0
H493 H 0.46719 0.44301 0.31673 0.0
H494 H 0.58996 0.54113 0.32078 0.0
H495 H 0.58864 0.54025 0.36451 0.0
H496 H 0.56445 0.51076 0.28161 0.0
H497 H 0.45924 0.46622 0.2796 0.0
H498 H 0.41694 0.47375 0.24003 0.0
H499 H 0.41983 0.47641 0.19628 0.0
loop_
_geom_bond_atom_site_label_1
_geom_bond_atom_site_label_2
_geom_bond_distance
_geom_bond_site_symmetry_2
_ccdc_geom_bond_type
C0 O16 1.251 . S
C0 O18 1.254 1_554 S
N1 C2 1.333 1_445 S
N1 C6 1.307 . S
N1 Zn7 2.020 . S
C2 N1 1.333 1_665 S
C2 C3 1.379 . S
C2 H20 0.952 . S
C3 C2 1.379 . S
C3 C4 1.390 1_665 S
C3 H30 0.949 . S
C4 C3 1.390 1_445 S
C4 C5 1.357 . S
C5 C4 1.357 . S
C5 C6 1.370 . S
C5 H31 0.950 . S
C6 N1 1.307 . S
C6 C5 1.370 . S
C6 H24 0.948 . S
Zn7 N1 2.020 . S
Zn7 O16 2.039 1_445 S
Zn7 O22 2.034 1_455 S
Zn7 O26 2.025 . S
Zn7 O28 2.024 1_545 S
C8 O27 1.246 1_554 S
C8 O28 1.249 . S
N9 C10 1.307 1_445 S
N9 C11 1.333 . S
N9 Zn15 2.020 . S
C10 N9 1.307 1_665 S
C10 C14 1.370 . S
C10 H21 0.948 . S
C11 N9 1.333 . S
C11 C12 1.379 . S
C11 H19 0.952 . S
C12 C11 1.379 . S
C12 C13 1.390 . S
C12 H32 0.949 . S
C13 C12 1.390 . S
C13 C14 1.357 1_445 S
C14 C10 1.370 . S
C14 C13 1.357 1_665 S
C14 H33 0.950 . S
Zn15 N9 2.020 . S
Zn15 O18 2.025 1_445 S
Zn15 O23 2.024 1_455 S
Zn15 O25 2.039 . S
Zn15 O27 2.034 1_545 S
O16 C0 1.251 . S
O16 Zn7 2.039 1_665 S
C17 O22 1.276 . S
C17 O23 1.217 1_554 S
O18 C0 1.254 1_556 S
O18 Zn15 2.025 1_665 S
H19 C11 0.952 . S
H20 C2 0.952 . S
H21 C10 0.948 . S
O22 Zn7 2.034 1_655 S
O22 C17 1.276 . S
O23 Zn15 2.024 1_655 S
O23 C17 1.217 1_556 S
H24 C6 0.948 . S
O25 Zn15 2.039 . S
O25 C29 1.210 1_556 S
O26 Zn7 2.025 . S
O26 C29 1.297 . S
O27 C8 1.246 1_556 S
O27 Zn15 2.034 1_565 S
O28 Zn7 2.024 1_565 S
O28 C8 1.249 . S
C29 O25 1.210 1_554 S
C29 O26 1.297 . S
H30 C3 0.949 . S
H31 C5 0.950 . S
H32 C12 0.949 . S
H33 C14 0.950 . S
C34 O50 1.251 . S
C34 O52 1.254 . S
N35 C36 1.333 . S
N35 C40 1.307 . S
N35 Zn41 2.020 . S
C36 N35 1.333 . S
C36 C37 1.379 . S
C36 H54 0.952 . S
C37 C36 1.379 . S
C37 C38 1.390 . S
C37 H64 0.949 . S
C38 C37 1.390 . S
C38 C39 1.357 . S
C39 C38 1.357 . S
C39 C40 1.370 . S
C39 H65 0.950 . S
C40 N35 1.307 . S
C40 C39 1.370 . S
C40 H58 0.948 . S
Zn41 N35 2.020 . S
Zn41 O50 2.039 . S
Zn41 O56 2.034 . S
Zn41 O60 2.025 . S
Zn41 O62 2.024 . S
C42 O61 1.246 . S
C42 O62 1.249 . S
N43 C44 1.307 . S
N43 C45 1.333 . S
N43 Zn49 2.020 . S
C44 N43 1.307 . S
C44 C48 1.370 . S
C44 H55 0.948 . S
C45 N43 1.333 . S
C45 C46 1.379 . S
C45 H53 0.952 . S
C46 C45 1.379 . S
C46 C47 1.390 . S
C46 H66 0.949 . S
C47 C46 1.390 . S
C47 C48 1.357 . S
C48 C44 1.370 . S
C48 C47 1.357 . S
C48 H67 0.950 . S
Zn49 N43 2.020 . S
Zn49 O52 2.025 . S
Zn49 O57 2.024 . S
Zn49 O59 2.039 . S
Zn49 O61 2.034 . S
O50 C34 1.251 . S
O50 Zn41 2.039 . S
C51 O56 1.246 . S
C51 O57 1.249 . S
O52 C34 1.254 . S
O52 Zn49 2.025 . S
H53 C45 0.952 . S
H54 C36 0.952 . S
H55 C44 0.948 . S
O56 Zn41 2.034 . S
O56 C51 1.246 . S
O57 Zn49 2.024 . S
O57 C51 1.249 . S
H58 C40 0.948 . S
O59 Zn49 2.039 . S
O59 C63 1.251 . S
O60 Zn41 2.025 . S
O60 C63 1.254 . S
O61 C42 1.246 . S
O61 Zn49 2.034 . S
O62 Zn41 2.024 . S
O62 C42 1.249 . S
C63 O59 1.251 . S
C63 O60 1.254 . S
H64 C37 0.949 . S
H65 C39 0.950 . S
H66 C46 0.949 . S
H67 C48 0.950 . S
C68 C69 1.384 . S
C68 H81 0.947 . S
C68 C103 1.382 . S
C69 C68 1.384 . S
C69 C70 1.378 . S
C70 C69 1.378 . S
C70 C71 1.378 . S
C70 H82 0.952 . S
C71 C70 1.378 . S
C71 H83 0.950 . S
C71 C102 1.383 . S
H72 C91 0.947 . S
H73 C92 0.946 . S
H74 C94 0.953 . S
H75 C95 0.945 . S
H76 C97 0.952 . S
H77 C98 0.949 . S
H78 C100 0.950 . S
H79 C101 0.948 . S
H80 C103 0.951 . S
H81 C68 0.947 . S
H82 C70 0.952 . S
H83 C71 0.950 . S
N84 C87 1.382 1_545 S
N84 C89 1.363 1_455 S
N85 C87 1.371 . S
N85 C88 1.372 1_565 S
N86 C88 1.361 1_655 S
N86 C89 1.377 . S
C87 N84 1.382 1_565 S
C87 N85 1.371 . S
C87 C90 1.480 . S
C88 N85 1.372 1_545 S
C88 N86 1.361 1_455 S
C88 C96 1.457 . S
C89 N84 1.363 1_655 S
C89 N86 1.377 . S
C89 C102 1.479 . S
C90 C87 1.480 . S
C90 C91 1.383 . S
C90 C95 1.385 . S
C91 H72 0.947 . S
C91 C90 1.383 . S
C91 C92 1.388 . S
C92 H73 0.946 . S
C92 C91 1.388 . S
C92 C93 1.384 . S
C93 C92 1.384 . S
C93 C94 1.377 . S
C94 H74 0.953 . S
C94 C93 1.377 . S
C94 C95 1.369 . S
C95 H75 0.945 . S
C95 C90 1.385 . S
C95 C94 1.369 . S
C96 C88 1.457 . S
C96 C97 1.372 1_545 S
C96 C101 1.364 1_455 S
C97 H76 0.952 . S
C97 C96 1.372 1_565 S
C97 C98 1.389 . S
C98 H77 0.949 . S
C98 C97 1.389 . S
C98 C99 1.387 1_565 S
C99 C98 1.387 1_545 S
C99 C100 1.372 1_455 S
C100 H78 0.950 . S
C100 C99 1.372 1_655 S
C100 C101 1.379 . S
C101 H79 0.948 . S
C101 C96 1.364 1_655 S
C101 C100 1.379 . S
C102 C71 1.383 . S
C102 C89 1.479 . S
C102 C103 1.398 . S
C103 C68 1.382 . S
C103 H80 0.951 . S
C103 C102 1.398 . S
C104 C105 1.384 . S
C104 H117 0.947 . S
C104 C139 1.382 . S
C105 C104 1.384 . S
C105 C106 1.378 . S
C106 C105 1.378 . S
C106 C107 1.378 . S
C106 H118 0.952 . S
C107 C106 1.378 . S
C107 H119 0.950 . S
C107 C138 1.383 . S
H108 C127 0.947 . S
H109 C128 0.946 . S
H110 C130 0.953 . S
H111 C131 0.945 . S
H112 C133 0.952 . S
H113 C134 0.949 . S
H114 C136 0.951 1_655 S
H115 C137 0.948 1_655 S
H116 C139 0.951 . S
H117 C104 0.947 . S
H118 C106 0.952 . S
H119 C107 0.950 . S
N120 C123 1.384 . S
N120 C125 1.361 1_445 S
N121 C123 1.371 . S
N121 C124 1.372 . S
N122 C124 1.361 1_665 S
N122 C125 1.377 . S
C123 N120 1.384 . S
C123 N121 1.371 . S
C123 C126 1.480 . S
C124 N121 1.372 . S
C124 N122 1.361 1_445 S
C124 C132 1.457 . S
C125 N120 1.361 1_665 S
C125 N122 1.377 . S
C125 C138 1.479 . S
C126 C123 1.480 . S
C126 C127 1.383 . S
C126 C131 1.385 . S
C127 H108 0.947 . S
C127 C126 1.383 . S
C127 C128 1.388 . S
C128 H109 0.946 . S
C128 C127 1.388 . S
C128 C129 1.384 . S
C129 C128 1.384 . S
C129 C130 1.377 . S
C130 H110 0.953 . S
C130 C129 1.377 . S
C130 C131 1.369 . S
C131 H111 0.945 . S
C131 C126 1.385 . S
C131 C130 1.369 . S
C132 C124 1.457 . S
C132 C133 1.372 . S
C132 C137 1.364 1_545 S
C133 H112 0.952 . S
C133 C132 1.372 . S
C133 C134 1.389 . S
C134 H113 0.949 . S
C134 C133 1.389 . S
C134 C135 1.387 . S
C135 C134 1.387 . S
C135 C136 1.371 1_545 S
C136 H114 0.951 1_455 S
C136 C135 1.371 1_565 S
C136 C137 1.379 . S
C137 H115 0.948 1_455 S
C137 C132 1.364 1_565 S
C137 C136 1.379 . S
C138 C107 1.383 . S
C138 C125 1.479 . S
C138 C139 1.398 . S
C139 C104 1.382 . S
C139 H116 0.951 . S
C139 C138 1.398 . S
C140 C141 1.384 . S
C140 H153 0.947 . S
C140 C175 1.382 . S
C141 C140 1.384 . S
C141 C142 1.378 . S
C142 C141 1.378 . S
C142 C143 1.378 . S
C142 H154 0.952 1_556 S
C143 C142 1.378 . S
C143 H155 0.950 . S
C143 C174 1.383 . S
H144 C163 0.947 . S
H145 C164 0.946 1_554 S
H146 C166 0.953 . S
H147 C167 0.945 . S
H148 C169 0.952 . S
H149 C170 0.949 . S
H150 C172 0.950 . S
H151 C173 0.948 . S
H152 C175 0.951 . S
H153 C140 0.947 . S
H154 C142 0.952 1_554 S
H155 C143 0.950 . S
N156 C159 1.382 . S
N156 C161 1.363 . S
N157 C159 1.371 . S
N157 C160 1.372 . S
N158 C160 1.361 . S
N158 C161 1.377 . S
C159 N156 1.382 . S
C159 N157 1.371 . S
C159 C162 1.480 . S
C160 N157 1.372 . S
C160 N158 1.361 . S
C160 C168 1.457 . S
C161 N156 1.363 . S
C161 N158 1.377 . S
C161 C174 1.479 . S
C162 C159 1.480 . S
C162 C163 1.383 . S
C162 C167 1.385 . S
C163 H144 0.947 . S
C163 C162 1.383 . S
C163 C164 1.388 . S
C164 H145 0.946 1_556 S
C164 C163 1.388 . S
C164 C165 1.384 . S
C165 C164 1.384 . S
C165 C166 1.377 . S
C166 H146 0.953 . S
C166 C165 1.377 . S
C166 C167 1.369 . S
C167 H147 0.945 . S
C167 C162 1.385 . S
C167 C166 1.369 . S
C168 C160 1.457 . S
C168 C169 1.372 . S
C168 C173 1.364 . S
C169 H148 0.952 . S
C169 C168 1.372 . S
C169 C170 1.389 . S
C170 H149 0.949 . S
C170 C169 1.389 . S
C170 C171 1.387 . S
C171 C170 1.387 . S
C171 C172 1.372 . S
C172 H150 0.950 . S
C172 C171 1.372 . S
C172 C173 1.379 . S
C173 H151 0.948 . S
C173 C168 1.364 . S
C173 C172 1.379 . S
C174 C143 1.383 . S
C174 C161 1.479 . S
C174 C175 1.398 . S
C175 C140 1.382 . S
C175 H152 0.951 . S
C175 C174 1.398 . S
C176 C177 1.384 . S
C176 H189 0.947 . S
C176 C211 1.382 . S
C177 C176 1.384 . S
C177 C178 1.378 . S
C178 C177 1.378 . S
C178 C179 1.378 . S
C178 H190 0.952 1_554 S
C179 C178 1.378 . S
C179 H191 0.950 . S
C179 C210 1.383 . S
H180 C199 0.947 . S
H181 C200 0.946 1_556 S
H182 C202 0.953 . S
H183 C203 0.945 . S
H184 C205 0.952 . S
H185 C206 0.949 . S
H186 C208 0.950 . S
H187 C209 0.948 . S
H188 C211 0.951 . S
H189 C176 0.947 . S
H190 C178 0.952 1_556 S
H191 C179 0.950 . S
N192 C195 1.382 . S
N192 C197 1.363 . S
N193 C195 1.371 . S
N193 C196 1.372 . S
N194 C196 1.361 . S
N194 C197 1.377 . S
C195 N192 1.382 . S
C195 N193 1.371 . S
C195 C198 1.480 . S
C196 N193 1.372 . S
C196 N194 1.361 . S
C196 C204 1.457 . S
C197 N192 1.363 . S
C197 N194 1.377 . S
C197 C210 1.479 . S
C198 C195 1.480 . S
C198 C199 1.383 . S
C198 C203 1.385 . S
C199 H180 0.947 . S
C199 C198 1.383 . S
C199 C200 1.388 . S
C200 H181 0.946 1_554 S
C200 C199 1.388 . S
C200 C201 1.384 . S
C201 C200 1.384 . S
C201 C202 1.377 . S
C202 H182 0.953 . S
C202 C201 1.377 . S
C202 C203 1.369 . S
C203 H183 0.945 . S
C203 C198 1.385 . S
C203 C202 1.369 . S
C204 C196 1.457 . S
C204 C205 1.372 . S
C204 C209 1.364 . S
C205 H184 0.952 . S
C205 C204 1.372 . S
C205 C206 1.389 . S
C206 H185 0.949 . S
C206 C205 1.389 . S
C206 C207 1.387 . S
C207 C206 1.387 . S
C207 C208 1.372 . S
C208 H186 0.950 . S
C208 C207 1.372 . S
C208 C209 1.379 . S
C209 H187 0.948 . S
C209 C204 1.364 . S
C209 C208 1.379 . S
C210 C179 1.383 . S
C210 C197 1.479 . S
C210 C211 1.398 . S
C211 C176 1.382 . S
C211 H188 0.951 . S
C211 C210 1.398 . S
C212 C213 1.381 1_554 S
C212 C214 1.383 . S
C212 H228 0.951 . S
C213 C212 1.381 1_556 S
C213 C217 1.388 . S
C214 C212 1.383 . S
C214 C215 1.402 1_554 S
C214 H229 0.951 . S
C215 C214 1.402 1_556 S
C215 C216 1.375 . S
C215 C218 1.481 . S
C216 C215 1.375 . S
C216 C217 1.367 . S
C216 H230 0.951 . S
C217 C213 1.388 . S
C217 C216 1.367 . S
C217 H231 0.950 . S
C218 C215 1.481 . S
C218 C219 1.297 1_556 S
C218 H232 0.950 . S
C219 C218 1.297 1_554 S
C219 C220 1.479 . S
C219 H233 0.950 . S
C220 C219 1.479 . S
C220 C221 1.375 . S
C220 C226 1.404 1_554 S
C221 C220 1.375 . S
C221 C222 1.369 . S
C221 H234 0.950 . S
C222 C221 1.369 . S
C222 C223 1.392 . S
C222 H235 0.951 . S
C223 C222 1.392 . S
C223 C225 1.384 1_554 S
H224 C226 0.949 . S
C225 C223 1.384 1_556 S
C225 C226 1.385 . S
C225 H227 0.950 . S
C226 C220 1.404 1_556 S
C226 H224 0.949 . S
C226 C225 1.385 . S
H227 C225 0.950 . S
H228 C212 0.951 . S
H229 C214 0.951 . S
H230 C216 0.951 . S
H231 C217 0.950 . S
H232 C218 0.950 . S
H233 C219 0.950 . S
H234 C221 0.950 . S
H235 C222 0.951 . S
C236 C237 1.375 1_556 S
C236 C238 1.383 . S
C236 H252 0.951 . S
C237 C236 1.375 1_554 S
C237 C241 1.392 . S
C238 C236 1.383 . S
C238 C239 1.402 . S
C238 H253 0.951 . S
C239 C238 1.402 . S
C239 C240 1.375 1_556 S
C239 C242 1.481 . S
C240 C239 1.375 1_554 S
C240 C241 1.367 . S
C240 H254 0.951 . S
C241 C237 1.392 . S
C241 C240 1.367 . S
C241 H255 0.950 . S
C242 C239 1.481 . S
C242 C243 1.297 . S
C242 H256 0.950 1_556 S
C243 C242 1.297 . S
C243 C244 1.479 . S
C243 H257 0.950 . S
C244 C243 1.479 . S
C244 C245 1.375 . S
C244 C250 1.404 . S
C245 C244 1.375 . S
C245 C246 1.369 . S
C245 H258 0.950 . S
C246 C245 1.369 . S
C246 C247 1.392 . S
C246 H259 0.951 . S
C247 C246 1.392 . S
C247 C249 1.388 . S
H248 C250 0.949 1_554 S
C249 C247 1.388 . S
C249 C250 1.385 . S
C249 H251 0.946 1_556 S
C250 C244 1.404 . S
C250 H248 0.949 1_556 S
C250 C249 1.385 . S
H251 C249 0.946 1_554 S
H252 C236 0.951 . S
H253 C238 0.951 . S
H254 C240 0.951 . S
H255 C241 0.950 . S
H256 C242 0.950 1_554 S
H257 C243 0.950 . S
H258 C245 0.950 . S
H259 C246 0.951 . S
C260 C261 1.386 1_556 S
C260 C262 1.383 . S
C260 H276 0.951 . S
C261 C260 1.386 1_554 S
C261 C265 1.383 . S
C262 C260 1.383 . S
C262 C263 1.402 1_556 S
C262 H277 0.951 . S
C263 C262 1.402 1_554 S
C263 C264 1.375 . S
C263 C266 1.481 . S
C264 C263 1.375 . S
C264 C265 1.367 . S
C264 H278 0.951 . S
C265 C261 1.383 . S
C265 C264 1.367 . S
C265 H279 0.950 . S
C266 C263 1.481 . S
C266 C267 1.297 1_554 S
C266 H280 0.950 . S
C267 C266 1.297 1_556 S
C267 C268 1.479 1_556 S
C267 H281 0.950 . S
C268 C267 1.479 1_554 S
C268 C269 1.375 1_554 S
C268 C274 1.404 . S
C269 C268 1.375 1_556 S
C269 C270 1.369 . S
C269 H282 0.950 . S
C270 C269 1.369 . S
C270 C271 1.392 1_556 S
C270 H283 0.951 . S
C271 C270 1.392 1_554 S
C271 C273 1.384 . S
H272 C274 0.949 . S
C273 C271 1.384 . S
C273 C274 1.385 . S
C273 H275 0.950 . S
C274 C268 1.404 . S
C274 H272 0.949 . S
C274 C273 1.385 . S
H275 C273 0.950 . S
H276 C260 0.951 . S
H277 C262 0.951 . S
H278 C264 0.951 . S
H279 C265 0.950 . S
H280 C266 0.950 . S
H281 C267 0.950 . S
H282 C269 0.950 . S
H283 C270 0.951 . S
C284 C285 1.386 1_556 S
C284 C286 1.383 . S
C284 H300 0.951 . S
C285 C284 1.386 1_554 S
C285 C289 1.383 . S
C286 C284 1.383 . S
C286 C287 1.402 1_556 S
C286 H301 0.951 . S
C287 C286 1.402 1_554 S
C287 C288 1.375 . S
C287 C290 1.481 . S
C288 C287 1.375 . S
C288 C289 1.367 . S
C288 H302 0.951 . S
C289 C285 1.383 . S
C289 C288 1.367 . S
C289 H303 0.950 . S
C290 C287 1.481 . S
C290 C291 1.297 1_554 S
C290 H304 0.950 . S
C291 C290 1.297 1_556 S
C291 C292 1.479 . S
C291 H305 0.950 . S
C292 C291 1.479 . S
C292 C293 1.375 . S
C292 C298 1.404 1_556 S
C293 C292 1.375 . S
C293 C294 1.369 . S
C293 H306 0.950 . S
C294 C293 1.369 . S
C294 C295 1.392 . S
C294 H307 0.951 . S
C295 C294 1.392 . S
C295 C297 1.384 1_556 S
H296 C298 0.949 . S
C297 C295 1.384 1_554 S
C297 C298 1.385 . S
C297 H299 0.950 . S
C298 C292 1.404 1_554 S
C298 H296 0.949 . S
C298 C297 1.385 . S
H299 C297 0.950 . S
H300 C284 0.951 . S
H301 C286 0.951 . S
H302 C288 0.951 . S
H303 C289 0.950 . S
H304 C290 0.950 . S
H305 C291 0.950 . S
H306 C293 0.950 . S
H307 C294 0.951 . S
C308 C309 1.386 . S
C308 C310 1.383 . S
C308 H324 0.951 . S
C309 C308 1.386 . S
C309 C313 1.383 . S
C310 C308 1.383 . S
C310 C311 1.402 . S
C310 H325 0.951 . S
C311 C310 1.402 . S
C311 C312 1.375 . S
C311 C314 1.481 . S
C312 C311 1.375 . S
C312 C313 1.367 . S
C312 H326 0.951 . S
C313 C309 1.383 . S
C313 C312 1.367 . S
C313 H327 0.950 . S
C314 C311 1.481 . S
C314 C315 1.297 . S
C314 H328 0.950 . S
C315 C314 1.297 . S
C315 C316 1.479 . S
C315 H329 0.950 . S
C316 C315 1.479 . S
C316 C317 1.375 . S
C316 C322 1.404 . S
C317 C316 1.375 . S
C317 C318 1.369 . S
C317 H330 0.950 . S
C318 C317 1.369 . S
C318 C319 1.392 . S
C318 H331 0.951 . S
C319 C318 1.392 . S
C319 C321 1.384 . S
H320 C322 0.949 . S
C321 C319 1.384 . S
C321 C322 1.385 . S
C321 H323 0.950 . S
C322 C316 1.404 . S
C322 H320 0.949 . S
C322 C321 1.385 . S
H323 C321 0.950 . S
H324 C308 0.951 . S
H325 C310 0.951 . S
H326 C312 0.951 . S
H327 C313 0.950 . S
H328 C314 0.950 . S
H329 C315 0.950 . S
H330 C317 0.950 . S
H331 C318 0.951 . S
C332 C333 1.386 . S
C332 C334 1.383 . S
C332 H348 0.951 . S
C333 C332 1.386 . S
C333 C337 1.383 . S
C334 C332 1.383 . S
C334 C335 1.402 . S
C334 H349 0.951 . S
C335 C334 1.402 . S
C335 C336 1.375 . S
C335 C338 1.481 . S
C336 C335 1.375 . S
C336 C337 1.367 . S
C336 H350 0.951 . S
C337 C333 1.383 . S
C337 C336 1.367 . S
C337 H351 0.950 . S
C338 C335 1.481 . S
C338 C339 1.297 . S
C338 H352 0.950 . S
C339 C338 1.297 . S
C339 C340 1.479 . S
C339 H353 0.950 . S
C340 C339 1.479 . S
C340 C341 1.375 . S
C340 C346 1.404 . S
C341 C340 1.375 . S
C341 C342 1.369 . S
C341 H354 0.950 . S
C342 C341 1.369 . S
C342 C343 1.392 . S
C342 H355 0.951 . S
C343 C342 1.392 . S
C343 C345 1.384 . S
H344 C346 0.949 . S
C345 C343 1.384 . S
C345 C346 1.385 . S
C345 H347 0.950 . S
C346 C340 1.404 . S
C346 H344 0.949 . S
C346 C345 1.385 . S
H347 C345 0.950 . S
H348 C332 0.951 . S
H349 C334 0.951 . S
H350 C336 0.951 . S
H351 C337 0.950 . S
H352 C338 0.950 . S
H353 C339 0.950 . S
H354 C341 0.950 . S
H355 C342 0.951 . S
C356 C357 1.386 . S
C356 C358 1.383 . S
C356 H372 0.951 . S
C357 C356 1.386 . S
C357 C361 1.383 . S
C358 C356 1.383 . S
C358 C359 1.402 . S
C358 H373 0.951 . S
C359 C358 1.402 . S
C359 C360 1.375 . S
C359 C362 1.481 . S
C360 C359 1.375 . S
C360 C361 1.367 . S
C360 H374 0.951 . S
C361 C357 1.383 . S
C361 C360 1.367 . S
C361 H375 0.950 . S
C362 C359 1.481 . S
C362 C363 1.297 . S
C362 H376 0.950 . S
C363 C362 1.297 . S
C363 C364 1.479 . S
C363 H377 0.950 . S
C364 C363 1.479 . S
C364 C365 1.375 . S
C364 C370 1.404 . S
C365 C364 1.375 . S
C365 C366 1.369 . S
C365 H378 0.950 . S
C366 C365 1.369 . S
C366 C367 1.392 . S
C366 H379 0.951 . S
C367 C366 1.392 . S
C367 C369 1.384 . S
H368 C370 0.949 . S
C369 C367 1.384 . S
C369 C370 1.385 . S
C369 H371 0.950 . S
C370 C364 1.404 . S
C370 H368 0.949 . S
C370 C369 1.385 . S
H371 C369 0.950 . S
H372 C356 0.951 . S
H373 C358 0.951 . S
H374 C360 0.951 . S
H375 C361 0.950 . S
H376 C362 0.950 . S
H377 C363 0.950 . S
H378 C365 0.950 . S
H379 C366 0.951 . S
C380 C381 1.386 . S
C380 C382 1.383 . S
C380 H396 0.951 . S
C381 C380 1.386 . S
C381 C385 1.383 . S
C382 C380 1.383 . S
C382 C383 1.402 . S
C382 H397 0.951 . S
C383 C382 1.402 . S
C383 C384 1.375 . S
C383 C386 1.481 . S
C384 C383 1.375 . S
C384 C385 1.367 . S
C384 H398 0.951 . S
C385 C381 1.383 . S
C385 C384 1.367 . S
C385 H399 0.950 . S
C386 C383 1.481 . S
C386 C387 1.297 . S
C386 H400 0.950 . S
C387 C386 1.297 . S
C387 C388 1.479 . S
C387 H401 0.950 . S
C388 C387 1.479 . S
C388 C389 1.375 . S
C388 C394 1.404 . S
C389 C388 1.375 . S
C389 C390 1.369 . S
C389 H402 0.950 . S
C390 C389 1.369 . S
C390 C391 1.392 . S
C390 H403 0.951 . S
C391 C390 1.392 . S
C391 C393 1.384 . S
H392 C394 0.949 . S
C393 C391 1.384 . S
C393 C394 1.385 . S
C393 H395 0.950 . S
C394 C388 1.404 . S
C394 H392 0.949 . S
C394 C393 1.385 . S
H395 C393 0.950 . S
H396 C380 0.951 . S
H397 C382 0.951 . S
H398 C384 0.951 . S
H399 C385 0.950 . S
H400 C386 0.950 . S
H401 C387 0.950 . S
H402 C389 0.950 . S
H403 C390 0.951 . S
C404 C405 1.386 1_655 S
C404 C406 1.383 . S
C404 H420 0.951 . S
C405 C404 1.386 1_455 S
C405 C409 1.383 1_545 S
C406 C404 1.383 . S
C406 C407 1.402 1_545 S
C406 H421 0.951 . S
C407 C406 1.402 1_565 S
C407 C408 1.375 1_655 S
C407 C410 1.481 . S
C408 C407 1.375 1_455 S
C408 C409 1.367 . S
C408 H422 0.951 . S
C409 C405 1.383 1_565 S
C409 C408 1.367 . S
C409 H423 0.950 . S
C410 C407 1.481 . S
C410 C411 1.297 1_565 S
C410 H424 0.950 1_655 S
C411 C410 1.297 1_545 S
C411 C412 1.483 . S
C411 H425 0.950 . S
C412 C411 1.483 . S
C412 C413 1.395 . S
C412 C418 1.383 1_545 S
C413 C412 1.395 . S
C413 C414 1.369 . S
C413 H426 0.950 . S
C414 C413 1.369 . S
C414 C415 1.393 1_545 S
C414 H427 0.951 . S
C415 C414 1.393 1_565 S
C415 C417 1.382 1_655 S
H416 C418 0.950 . S
C417 C415 1.382 1_455 S
C417 C418 1.384 1_455 S
C417 H419 0.952 . S
C418 C412 1.383 1_565 S
C418 H416 0.950 . S
C418 C417 1.384 1_655 S
H419 C417 0.952 . S
H420 C404 0.951 . S
H421 C406 0.951 . S
H422 C408 0.951 . S
H423 C409 0.950 . S
H424 C410 0.950 1_455 S
H425 C411 0.950 . S
H426 C413 0.950 . S
H427 C414 0.951 . S
C428 C429 1.386 1_565 S
C428 C430 1.383 . S
C428 H444 0.951 . S
C429 C428 1.386 1_545 S
C429 C433 1.383 . S
C430 C428 1.383 . S
C430 C431 1.402 1_565 S
C430 H445 0.950 . S
C431 C430 1.402 1_545 S
C431 C432 1.375 . S
C431 C434 1.481 . S
C432 C431 1.375 . S
C432 C433 1.367 . S
C432 H446 0.951 . S
C433 C429 1.383 . S
C433 C432 1.367 . S
C433 H447 0.950 . S
C434 C431 1.481 . S
C434 C435 1.297 1_455 S
C434 H448 0.950 . S
C435 C434 1.297 1_655 S
C435 C436 1.479 . S
C435 H449 0.950 1_545 S
C436 C435 1.479 . S
C436 C437 1.375 1_545 S
C436 C442 1.404 1_655 S
C437 C436 1.375 1_565 S
C437 C438 1.369 1_655 S
C437 H450 0.950 . S
C438 C437 1.369 1_455 S
C438 C439 1.392 1_565 S
C438 H451 0.951 . S
C439 C438 1.392 1_545 S
C439 C441 1.384 . S
H440 C442 0.949 . S
C441 C439 1.384 . S
C441 C442 1.385 . S
C441 H443 0.950 . S
C442 C436 1.404 1_455 S
C442 H440 0.949 . S
C442 C441 1.385 . S
H443 C441 0.950 . S
H444 C428 0.951 . S
H445 C430 0.950 . S
H446 C432 0.951 . S
H447 C433 0.950 . S
H448 C434 0.950 . S
H449 C435 0.950 1_565 S
H450 C437 0.950 . S
H451 C438 0.951 . S
C452 C453 1.386 . S
C452 C454 1.383 . S
C452 H468 0.951 . S
C453 C452 1.386 . S
C453 C457 1.383 . S
C454 C452 1.383 . S
C454 C455 1.402 . S
C454 H469 0.951 . S
C455 C454 1.402 . S
C455 C456 1.375 . S
C455 C458 1.481 . S
C456 C455 1.375 . S
C456 C457 1.367 . S
C456 H470 0.951 . S
C457 C453 1.383 . S
C457 C456 1.367 . S
C457 H471 0.950 . S
C458 C455 1.481 . S
C458 C459 1.297 . S
C458 H472 0.950 . S
C459 C458 1.297 . S
C459 C460 1.479 . S
C459 H473 0.950 . S
C460 C459 1.479 . S
C460 C461 1.375 . S
C460 C466 1.404 . S
C461 C460 1.375 . S
C461 C462 1.369 . S
C461 H474 0.950 . S
C462 C461 1.369 . S
C462 C463 1.392 . S
C462 H475 0.951 . S
C463 C462 1.392 . S
C463 C465 1.384 . S
H464 C466 0.949 . S
C465 C463 1.384 . S
C465 C466 1.385 . S
C465 H467 0.950 . S
C466 C460 1.404 . S
C466 H464 0.949 . S
C466 C465 1.385 . S
H467 C465 0.950 . S
H468 C452 0.951 . S
H469 C454 0.951 . S
H470 C456 0.951 . S
H471 C457 0.950 . S
H472 C458 0.950 . S
H473 C459 0.950 . S
H474 C461 0.950 . S
H475 C462 0.951 . S
C476 C477 1.386 . S
C476 C478 1.383 . S
C476 H492 0.951 . S
C477 C476 1.386 . S
C477 C481 1.383 . S
C478 C476 1.383 . S
C478 C479 1.402 . S
C478 H493 0.951 . S
C479 C478 1.402 . S
C479 C480 1.375 . S
C479 C482 1.481 . S
C480 C479 1.375 . S
C480 C481 1.367 . S
C480 H494 0.951 . S
C481 C477 1.383 . S
C481 C480 1.367 . S
C481 H495 0.950 . S
C482 C479 1.481 . S
C482 C483 1.297 . S
C482 H496 0.950 . S
C483 C482 1.297 . S
C483 C484 1.479 . S
C483 H497 0.950 . S
C484 C483 1.479 . S
C484 C485 1.375 . S
C484 C490 1.404 . S
C485 C484 1.375 . S
C485 C486 1.369 . S
C485 H498 0.950 . S
C486 C485 1.369 . S
C486 C487 1.392 . S
C486 H499 0.951 . S
C487 C486 1.392 . S
C487 C489 1.384 . S
H488 C490 0.949 . S
C489 C487 1.384 . S
C489 C490 1.385 . S
C489 H491 0.950 . S
C490 C484 1.404 . S
C490 H488 0.949 . S
C490 C489 1.385 . S
H491 C489 0.950 . S
H492 C476 0.951 . S
H493 C478 0.951 . S
H494 C480 0.951 . S
H495 C481 0.950 . S
H496 C482 0.950 . S
H497 C483 0.950 . S
H498 C485 0.950 . S
H499 C486 0.951 . S
C223 C177 1.394 . S
C213 C29 1.443 1_556 S
C237 C8 1.428 . S
C247 C141 1.357 . S
C261 C0 1.422 . S
C271 C201 1.390 . S
C285 C17 1.443 . S
C295 C165 1.414 . S
C309 C63 1.444 . S
C319 C105 1.437 . S
C333 C42 1.427 . S
C343 C69 1.355 . S
C367 C129 1.371 . S
C357 C34 1.424 . S
C391 C93 1.394 . S
C381 C51 1.442 . S
C405 C4 1.484 . S
C415 C99 1.480 1_665 S
C429 C13 1.479 . S
C439 C135 1.472 . S
C463 C171 1.476 . S
C453 C38 1.484 . S
C477 C47 1.483 . S
C487 C207 1.481 . S
