# Generated by pormake.
# Topology anh, (6,3)-cn, num edge types: 1
# Building blocks:
#     Node 0, Type 0, BuildingBlock: BETDAH_clean_sbu_0, # of connection points: 6
#     Node 1, Type 0, BuildingBlock: BETDAH_clean_sbu_0, # of connection points: 6
#     Node 2, Type 0, BuildingBlock: BETDAH_clean_sbu_0, # of connection points: 6
#     Node 3, Type 1, BuildingBlock: KAKCAD_clean_linker_0, # of connection points: 3
#     Node 4, Type 1, BuildingBlock: KAKCAD_clean_linker_0, # of connection points: 3
#     Node 5, Type 1, BuildingBlock: KAKCAD_clean_linker_0, # of connection points: 3
#     Node 6, Type 1, BuildingBlock: KAKCAD_clean_linker_0, # of connection points: 3
#     Node 7, Type 1, BuildingBlock: KAKCAD_clean_linker_0, # of connection points: 3
#     Node 8, Type 1, BuildingBlock: KAKCAD_clean_linker_0, # of connection points: 3
#     Edge 9, Type (0, 1), BuildingBlock: UVAHIK_clean_linker_0, # of connection points: 2
#     Edge 10, Type (0, 1), BuildingBlock: UVAHIK_clean_linker_0, # of connection points: 2
#     Edge 11, Type (0, 1), BuildingBlock: UVAHIK_clean_linker_0, # of connection points: 2
#     Edge 12, Type (0, 1), BuildingBlock: UVAHIK_clean_linker_0, # of connection points: 2
#     Edge 13, Type (0, 1), BuildingBlock: UVAHIK_clean_linker_0, # of connection points: 2
#     Edge 14, Type (0, 1), BuildingBlock: UVAHIK_clean_linker_0, # of connection points: 2
#     Edge 15, Type (0, 1), BuildingBlock: UVAHIK_clean_linker_0, # of connection points: 2
#     Edge 16, Type (0, 1), BuildingBlock: UVAHIK_clean_linker_0, # of connection points: 2
#     Edge 17, Type (0, 1), BuildingBlock: UVAHIK_clean_linker_0, # of connection points: 2
#     Edge 18, Type (0, 1), BuildingBlock: UVAHIK_clean_linker_0, # of connection points: 2
#     Edge 19, Type (0, 1), BuildingBlock: UVAHIK_clean_linker_0, # of connection points: 2
#     Edge 20, Type (0, 1), BuildingBlock: UVAHIK_clean_linker_0, # of connection points: 2
#     Edge 21, Type (0, 1), BuildingBlock: UVAHIK_clean_linker_0, # of connection points: 2
#     Edge 22, Type (0, 1), BuildingBlock: UVAHIK_clean_linker_0, # of connection points: 2
#     Edge 23, Type (0, 1), BuildingBlock: UVAHIK_clean_linker_0, # of connection points: 2
#     Edge 24, Type (0, 1), BuildingBlock: UVAHIK_clean_linker_0, # of connection points: 2
#     Edge 25, Type (0, 1), BuildingBlock: UVAHIK_clean_linker_0, # of connection points: 2
#     Edge 26, Type (0, 1), BuildingBlock: UVAHIK_clean_linker_0, # of connection points: 2
# Relax obj value: 0.163
# Max RMSD: 0.200
# Mean RMSD: 0.150
data_MOF--net-anh--node1-BETDAH_clean_sbu_0--node2-KAKCAD_clean_linker_0--edge1-UVAHIK_clean_linker_0
_symmetry_space_group_name_H-M    P1
_symmetry_Int_Tables_number       1
_symmetry_cell_setting            triclinic
loop_
_symmetry_equiv_pos_as_xyz
'x, y, z'
_cell_length_a     46.615454
_cell_length_b     52.387891
_cell_length_c     81.859594
_cell_angle_alpha  92.511383
_cell_angle_beta   89.824454
_cell_angle_gamma 126.99398
loop_
_atom_site_label
_atom_site_type_symbol
_atom_site_fract_x
_atom_site_fract_y
_atom_site_fract_z
_atom_type_partial_charge
Ho0 Ho 0.06324 0.51042 0.14802 0.0
Ho1 Ho 1.02505 0.5376 0.16086 0.0
C2 C 0.10856 0.58804 0.15646 0.0
C3 C 0.10413 0.50069 0.13234 0.0
C4 C 0.14222 0.51516 0.13502 0.0
C5 C 0.15954 0.50695 0.12452 0.0
C6 C 0.19513 0.51902 0.12789 0.0
C7 C 0.21376 0.53934 0.14187 0.0
C8 C 0.19651 0.54821 0.15209 0.0
C9 C 0.16103 0.53623 0.14867 0.0
C10 C 0.05741 0.5106 0.18076 0.0
C11 C 0.98012 0.46075 0.15284 0.0
C12 C 0.98419 0.54637 0.17738 0.0
C13 C 0.94698 0.52396 0.18281 0.0
C14 C 0.93975 0.52249 0.19954 0.0
C15 C 0.90498 0.49995 0.20496 0.0
C16 C 0.87673 0.47851 0.19372 0.0
C17 C 0.88413 0.48023 0.17695 0.0
C18 C 0.91884 0.50254 0.17157 0.0
C19 C 0.03276 0.53784 0.12818 0.0
O20 O 0.10719 0.56421 0.14913 0.0
O21 O 0.08039 0.58332 0.16359 0.0
O22 O 0.08337 0.4829 0.14403 0.0
O23 O 0.09722 0.52001 0.12751 0.0
O24 O 0.05702 0.48904 0.17218 0.0
O25 O 0.064 0.53234 0.17177 0.0
O26 O 0.98323 0.48397 0.16182 0.0
O27 O 1.00668 0.46638 0.14376 0.0
O28 O 0.98863 0.55024 0.16164 0.0
O29 O 1.00747 0.54366 0.18421 0.0
O30 O 0.03515 0.56059 0.1367 0.0
O31 O 1.02449 0.51564 0.13721 0.0
H32 H 0.1453 0.49065 0.11395 0.0
H33 H 0.20761 0.51147 0.11991 0.0
H34 H 0.21029 0.56404 0.16284 0.0
H35 H 0.14796 0.5428 0.15691 0.0
H36 H 0.96115 0.53854 0.20844 0.0
H37 H 0.90034 0.49914 0.21796 0.0
H38 H 0.86299 0.46464 0.16788 0.0
H39 H 0.92358 0.50281 0.1586 0.0
Ho40 Ho 0.57444 0.01342 0.4859 0.0
Ho41 Ho 0.52653 0.03287 0.47883 0.0
C42 C 0.48836 0.95879 0.47881 0.0
C43 C 0.60356 0.9883 0.49722 0.0
C44 C 0.59341 0.95613 0.49966 0.0
C45 C 0.56041 0.93205 0.50633 0.0
C46 C 0.55205 0.90201 0.50886 0.0
C47 C 0.57637 0.89545 0.5046 0.0
C48 C 0.60908 0.91948 0.4977 0.0
C49 C 0.61752 0.94952 0.49531 0.0
C50 C 0.57036 0.02366 0.45434 0.0
C51 C 0.61346 0.0878 0.48463 0.0
C52 C 0.49821 0.05929 0.46837 0.0
C53 C 0.5058 0.09061 0.47186 0.0
C54 C 0.48497 0.09807 0.4643 0.0
C55 C 0.49122 0.12738 0.4681 0.0
C56 C 0.51851 0.14973 0.47953 0.0
C57 C 0.53962 0.1422 0.48692 0.0
C58 C 0.53324 0.11287 0.48315 0.0
C59 C 0.53234 0.02432 0.51059 0.0
O60 O 0.51807 0.96665 0.48628 0.0
O61 O 0.48702 0.98062 0.47219 0.0
O62 O 0.606 0.996 0.48204 0.0
O63 O 0.58836 0.99788 0.50643 0.0
O64 O 0.59948 0.03146 0.46161 0.0
O65 O 0.54435 0.00938 0.46385 0.0
O66 O 0.58247 0.0799 0.47876 0.0
O67 O 0.6164 0.06619 0.49027 0.0
O68 O 0.48587 0.04044 0.4806 0.0
O69 O 0.52302 0.05968 0.4606 0.0
O70 O 0.50313 0.01697 0.50372 0.0
O71 O 0.55739 0.03768 0.50063 0.0
H72 H 0.54117 0.93645 0.50967 0.0
H73 H 0.52649 0.88386 0.51405 0.0
H74 H 0.62854 0.9153 0.49447 0.0
H75 H 0.64311 0.96776 0.49015 0.0
H76 H 0.46367 0.08113 0.45555 0.0
H77 H 0.47475 0.13258 0.46207 0.0
H78 H 0.56049 0.15863 0.49593 0.0
H79 H 0.54937 0.10736 0.48923 0.0
Ho80 Ho 0.59478 0.55782 0.84901 0.0
Ho81 Ho 0.5455 0.48694 0.85435 0.0
C82 C 0.50773 0.52194 0.85352 0.0
C83 C 0.62573 0.61442 0.8384 0.0
C84 C 0.61715 0.63675 0.83543 0.0
C85 C 0.58534 0.62679 0.82713 0.0
C86 C 0.5788 0.64896 0.82397 0.0
C87 C 0.60383 0.68144 0.8291 0.0
C88 C 0.6352 0.69102 0.83772 0.0
C89 C 0.64181 0.66894 0.84078 0.0
C90 C 0.58818 0.54191 0.88035 0.0
C91 C 0.63352 0.52367 0.85111 0.0
C92 C 0.51581 0.43 0.86418 0.0
C93 C 0.52216 0.406 0.86084 0.0
C94 C 0.50157 0.3768 0.86843 0.0
C95 C 0.50652 0.35336 0.86475 0.0
C96 C 0.53221 0.3588 0.8534 0.0
C97 C 0.55316 0.38842 0.84602 0.0
C98 C 0.54813 0.41177 0.84969 0.0
C99 C 0.55195 0.50209 0.82287 0.0
O100 O 0.53847 0.54603 0.8473 0.0
O101 O 0.50552 0.49762 0.85951 0.0
O102 O 0.6275 0.60917 0.8537 0.0
O103 O 0.60995 0.58845 0.82881 0.0
O104 O 0.61806 0.56561 0.87445 0.0
O105 O 0.56327 0.52919 0.86968 0.0
O106 O 0.60143 0.49794 0.85525 0.0
O107 O 0.63729 0.54958 0.84661 0.0
O108 O 0.50364 0.43597 0.8517 0.0
O109 O 0.54136 0.45607 0.87248 0.0
O110 O 0.52255 0.47823 0.82893 0.0
O111 O 0.57711 0.51533 0.83348 0.0
H112 H 0.56575 0.60201 0.82294 0.0
H113 H 0.5545 0.64073 0.81718 0.0
H114 H 0.65472 0.71564 0.84217 0.0
H115 H 0.6664 0.67709 0.84728 0.0
H116 H 0.48144 0.372 0.87709 0.0
H117 H 0.49027 0.33101 0.87081 0.0
H118 H 0.57283 0.39328 0.83707 0.0
H119 H 0.56414 0.43415 0.84363 0.0
C120 C 0.56495 0.05448 0.27092 0.0
C121 C 0.55596 0.02766 0.27909 0.0
C122 C 0.56458 0.05395 0.25384 0.0
C123 C 0.55578 0.02675 0.24452 0.0
C124 C 0.54712 1.00002 0.2528 0.0
C125 C 0.54693 1.00039 0.26988 0.0
C126 C 0.55519 0.02616 0.22628 0.0
C127 C 0.58013 0.05391 0.21801 0.0
C128 C 0.57885 0.05411 0.20084 0.0
C129 C 0.55261 0.02553 0.19181 0.0
C130 C 0.52797 0.99727 0.19991 0.0
C131 C 0.5293 0.99798 0.21707 0.0
C132 C 0.49992 0.96676 0.19082 0.0
C133 C 0.47567 0.96503 0.17983 0.0
C134 C 0.49497 0.93841 0.19449 0.0
C135 C 0.46559 0.9088 0.18785 0.0
C136 C 0.44022 0.90678 0.1775 0.0
C137 C 0.60525 0.0845 0.19269 0.0
C138 C 0.61421 0.11361 0.19956 0.0
C139 C 0.62328 0.08512 0.17873 0.0
C140 C 0.65063 0.11434 0.17222 0.0
C141 C 0.66044 0.14356 0.1795 0.0
C142 C 0.64146 0.14267 0.19313 0.0
C143 C 0.44593 0.93528 0.17331 0.0
H144 H 0.57167 0.07569 0.27776 0.0
H145 H 0.57066 0.07474 0.24796 0.0
H146 H 0.54087 0.97887 0.2461 0.0
H147 H 0.54032 0.97954 0.27592 0.0
H148 H 0.6011 0.07547 0.22496 0.0
H149 H 0.50928 0.97653 0.22326 0.0
H150 H 0.55125 0.02523 0.17859 0.0
H151 H 0.47877 0.98652 0.17689 0.0
H152 H 0.51333 0.9391 0.20291 0.0
H153 H 0.46187 0.88736 0.19145 0.0
H154 H 0.60052 0.11401 0.21018 0.0
H155 H 0.61711 0.06314 0.17316 0.0
H156 H 0.427 0.9345 0.16526 0.0
H157 H 0.64839 0.16454 0.19923 0.0
H158 H 0.66431 0.11404 0.16159 0.0
C159 C 0.5434 0.5335 0.64038 0.0
C160 C 0.56858 0.53161 0.64848 0.0
C161 C 0.54217 0.5333 0.62332 0.0
C162 C 0.566 0.53111 0.61396 0.0
C163 C 0.59138 0.52949 0.62206 0.0
C164 C 0.59273 0.52983 0.63914 0.0
C165 C 0.56411 0.53021 0.5958 0.0
C166 C 0.55944 0.55072 0.58785 0.0
C167 C 0.55724 0.54985 0.5707 0.0
C168 C 0.55974 0.52806 0.56142 0.0
C169 C 0.56413 0.50711 0.56917 0.0
C170 C 0.56642 0.5085 0.58636 0.0
C171 C 0.56517 0.48295 0.55952 0.0
C172 C 0.54059 0.46464 0.54643 0.0
C173 C 0.58951 0.4768 0.56395 0.0
C174 C 0.58852 0.45223 0.55586 0.0
C175 C 0.56313 0.43314 0.54314 0.0
C176 C 0.55264 0.57209 0.56269 0.0
C177 C 0.52684 0.57591 0.56826 0.0
C178 C 0.57515 0.59086 0.55009 0.0
C179 C 0.57284 0.6139 0.54364 0.0
C180 C 0.54771 0.61845 0.54956 0.0
C181 C 0.52426 0.59866 0.56172 0.0
C182 C 0.53957 0.43999 0.53833 0.0
H183 H 0.52466 0.5352 0.64724 0.0
H184 H 0.5221 0.53431 0.61745 0.0
H185 H 0.61034 0.5281 0.61518 0.0
H186 H 0.61222 0.52807 0.64501 0.0
H187 H 0.55831 0.56797 0.59504 0.0
H188 H 0.56879 0.49187 0.59246 0.0
H189 H 0.55804 0.52731 0.54818 0.0
H190 H 0.52123 0.46855 0.54283 0.0
H191 H 0.60921 0.49085 0.5738 0.0
H192 H 0.60756 0.44806 0.55965 0.0
H193 H 0.50877 0.56141 0.5778 0.0
H194 H 0.59546 0.58856 0.54566 0.0
H195 H 0.51945 0.42557 0.52869 0.0
H196 H 0.504 0.60087 0.5663 0.0
H197 H 0.59161 0.62889 0.53443 0.0
C198 C 0.09861 0.55081 0.94517 0.0
C199 C 0.06668 0.52817 0.95308 0.0
C200 C 0.09991 0.54974 0.92809 0.0
C201 C 0.06919 0.52626 0.91855 0.0
C202 C 0.03731 0.50359 0.92646 0.0
C203 C 0.03613 0.50442 0.94353 0.0
C204 C 0.07015 0.52574 0.90038 0.0
C205 C 0.09813 0.52811 0.89232 0.0
C206 C 0.09992 0.52774 0.87514 0.0
C207 C 0.07177 0.5249 0.86589 0.0
C208 C 0.04291 0.52259 0.87407 0.0
C209 C 0.04302 0.52299 0.89124 0.0
C210 C 1.01141 0.51944 0.866 0.0
C211 C 1.01545 0.54555 0.85897 0.0
C212 C 0.976 0.49304 0.86937 0.0
C213 C 0.94619 0.49318 0.86659 0.0
C214 C 0.95016 0.51979 0.8603 0.0
C215 C 0.13221 0.53072 0.86814 0.0
C216 C 0.16702 0.55509 0.87464 0.0
C217 C 0.12876 0.50649 0.85797 0.0
C218 C 0.15867 0.50614 0.85499 0.0
C219 C 0.19332 0.52992 0.86212 0.0
C220 C 0.19663 0.55467 0.87178 0.0
C221 C 0.98539 0.54562 0.85605 0.0
H222 H 0.12265 0.56925 0.95221 0.0
H223 H 0.12478 0.56764 0.92232 0.0
H224 H 1.01329 0.48509 0.91942 0.0
H225 H 1.01107 0.48681 0.94927 0.0
H226 H 0.11858 0.52965 0.89959 0.0
H227 H 1.02183 0.52172 0.89766 0.0
H228 H 0.07236 0.5246 0.85267 0.0
H229 H 0.04213 0.56679 0.85665 0.0
H230 H 0.97154 0.4727 0.87508 0.0
H231 H 0.91989 0.47243 0.86978 0.0
H232 H 0.17108 0.574 0.88273 0.0
H233 H 0.10255 0.4869 0.85295 0.0
H234 H 0.99014 0.56675 0.85126 0.0
H235 H 0.22189 0.57336 0.87789 0.0
H236 H 0.15426 0.48675 0.84724 0.0
C237 C 1.01924 0.50852 0.36519 0.0
C238 C 0.04794 0.51275 0.3567 0.0
C239 C 1.019 0.50854 0.38228 0.0
C240 C 0.04777 0.51337 0.39117 0.0
C241 C 0.07651 0.51769 0.38267 0.0
C242 C 0.07644 0.5171 0.36559 0.0
C243 C 0.04815 0.51457 0.40929 0.0
C244 C 1.0184 0.49024 0.41767 0.0
C245 C 1.01828 0.49134 0.43489 0.0
C246 C 0.04854 0.51776 0.4437 0.0
C247 C 0.07863 0.54236 0.43537 0.0
C248 C 0.07821 0.54031 0.4182 0.0
C249 C 0.11036 0.57108 0.44421 0.0
C250 C 0.10632 0.58987 0.45531 0.0
C251 C 0.14518 0.58187 0.44013 0.0
C252 C 0.1753 0.61143 0.44644 0.0
C253 C 0.17131 0.6311 0.45686 0.0
C254 C 0.98671 0.46425 0.44334 0.0
C255 C 0.95166 0.45 0.43727 0.0
C256 C 0.99128 0.45079 0.45664 0.0
C257 C 0.96162 0.4229 0.46321 0.0
C258 C 0.92668 0.40791 0.45667 0.0
C259 C 0.92211 0.42221 0.4438 0.0
C260 C 0.1365 0.61971 0.46149 0.0
H261 H 0.99687 0.50495 0.3586 0.0
H262 H 0.99664 0.50535 0.38856 0.0
H263 H 0.09893 0.52134 0.38926 0.0
H264 H 0.09897 0.52058 0.35932 0.0
H265 H 0.99564 0.46991 0.41071 0.0
H266 H 0.10095 0.55945 0.4117 0.0
H267 H 0.0487 0.51921 0.45695 0.0
H268 H 0.07978 0.58223 0.45857 0.0
H269 H 0.14906 0.56782 0.43162 0.0
H270 H 0.20165 0.61954 0.44252 0.0
H271 H 0.9471 0.45996 0.42717 0.0
H272 H 1.01791 0.46107 0.46156 0.0
H273 H 0.13257 0.63418 0.46962 0.0
H274 H 0.89578 0.41132 0.43831 0.0
H275 H 0.96614 0.41285 0.47327 0.0
C276 C 0.53495 0.98871 0.6931 0.0
C277 C 0.55852 0.01735 0.68515 0.0
C278 C 0.53526 0.98852 0.71017 0.0
C279 C 0.55902 0.01698 0.7197 0.0
C280 C 0.58259 0.04562 0.71178 0.0
C281 C 0.58241 0.04579 0.69471 0.0
C282 C 0.55926 0.01683 0.73784 0.0
C283 C 0.55789 0.99286 0.74571 0.0
C284 C 0.55854 0.9927 0.76287 0.0
C285 C 0.56036 0.01686 0.77221 0.0
C286 C 0.56151 0.04097 0.76453 0.0
C287 C 0.56102 0.04073 0.74734 0.0
C288 C 0.56267 0.06622 0.7743 0.0
C289 C 0.54036 0.05841 0.78773 0.0
C290 C 0.58514 0.09821 0.76985 0.0
C291 C 0.58475 0.12169 0.77837 0.0
C292 C 0.56184 0.11379 0.79156 0.0
C293 C 0.55821 0.96761 0.77089 0.0
C294 C 0.53461 0.93543 0.76513 0.0
C295 C 0.58257 0.97581 0.78382 0.0
C296 C 0.58405 0.95247 0.79049 0.0
C297 C 0.56097 0.92039 0.78447 0.0
C298 C 0.53589 0.91207 0.77188 0.0
C299 C 0.53989 0.08192 0.79623 0.0
H300 H 0.51578 0.96646 0.68614 0.0
H301 H 0.51647 0.96614 0.71592 0.0
H302 H 0.60157 0.06786 0.71879 0.0
H303 H 0.60136 0.06819 0.68902 0.0
H304 H 0.55741 0.97479 0.73845 0.0
H305 H 0.56106 0.05876 0.74131 0.0
H306 H 0.56092 0.0169 0.78544 0.0
H307 H 0.52256 0.03395 0.7914 0.0
H308 H 0.60293 0.10508 0.75968 0.0
H309 H 0.60176 0.14592 0.77434 0.0
H310 H 0.51532 0.92835 0.75527 0.0
H311 H 0.60125 1.00044 0.78844 0.0
H312 H 0.52221 0.07509 0.80645 0.0
H313 H 0.51793 0.88764 0.76689 0.0
H314 H 0.60344 0.95957 0.80029 0.0
C315 C 0.52666 0.41491 0.05123 0.0
C316 C 0.54837 0.44589 0.04534 0.0
C317 C 0.52056 0.41058 0.06798 0.0
C318 C 0.53575 0.43716 0.07909 0.0
C319 C 0.55804 0.46807 0.07322 0.0
C320 C 0.5643 0.47239 0.05655 0.0
C321 C 0.52776 0.43304 0.09673 0.0
C322 C 0.53004 0.41182 0.10547 0.0
C323 C 0.52487 0.40975 0.12247 0.0
C324 C 0.51622 0.42851 0.13051 0.0
C325 C 0.51333 0.44943 0.12186 0.0
C326 C 0.51907 0.45147 0.105 0.0
C327 C 0.50456 0.46943 0.13034 0.0
C328 C 0.47648 0.45601 0.14142 0.0
C329 C 0.52301 0.50167 0.12673 0.0
C330 C 0.51236 0.51966 0.13338 0.0
C331 C 0.483 0.50575 0.14376 0.0
C332 C 0.53211 0.39073 0.13217 0.0
C333 C 0.56167 0.39081 0.12859 0.0
C334 C 0.51206 0.37518 0.14603 0.0
C335 C 0.52292 0.36212 0.15669 0.0
C336 C 0.55379 0.36403 0.15358 0.0
C337 C 0.57229 0.37754 0.13913 0.0
C338 C 0.46576 0.47399 0.14806 0.0
H339 H 0.51424 0.39405 0.04287 0.0
H340 H 0.50321 0.38649 0.07218 0.0
H341 H 0.57047 0.489 0.08154 0.0
H342 H 0.58082 0.49655 0.05241 0.0
H343 H 0.53692 0.39768 0.09911 0.0
H344 H 0.51635 0.46725 0.0982 0.0
H345 H 0.51333 0.42803 0.14365 0.0
H346 H 0.4617 0.43117 0.14437 0.0
H347 H 0.54527 0.51284 0.11849 0.0
H348 H 0.52653 0.54423 0.13006 0.0
H349 H 0.57812 0.40295 0.1182 0.0
H350 H 0.4887 0.37412 0.14897 0.0
H351 H 0.44276 0.46246 0.15587 0.0
H352 H 0.59657 0.37994 0.13651 0.0
H353 H 0.50797 0.3516 0.16766 0.0
C354 C 0.2759 0.55902 0.13436 0.0
C355 C 0.25007 0.54933 0.14635 0.0
C356 C 0.30853 0.56477 0.13825 0.0
C357 C 0.34318 0.53626 0.16568 0.0
H358 H 0.43371 0.59905 0.1457 0.0
C359 C 0.45441 0.52054 0.16434 0.0
C360 C 0.46789 0.52297 0.14864 0.0
C361 C 0.43537 0.53279 0.16797 0.0
C362 C 0.40866 0.58143 0.15142 0.0
H363 H 0.23876 0.53941 0.17198 0.0
H364 H 0.29585 0.54951 0.17876 0.0
H365 H 0.38513 0.60433 0.14468 0.0
H366 H 0.47332 0.54139 0.12469 0.0
H367 H 0.44 0.56229 0.13091 0.0
H368 H 0.36554 0.51216 0.17154 0.0
C369 C 0.29078 0.55259 0.16636 0.0
C370 C 0.38091 0.5845 0.15085 0.0
C371 C 0.25823 0.54702 0.16249 0.0
C372 C 0.46372 0.53948 0.13697 0.0
C373 C 0.44463 0.55159 0.14057 0.0
C374 C 0.37078 0.53306 0.16616 0.0
C375 C 0.31588 0.56076 0.15418 0.0
C376 C 0.34749 0.56131 0.15748 0.0
C377 C 0.42928 0.54754 0.15595 0.0
C378 C 0.40337 0.55494 0.1585 0.0
H379 H 0.27047 0.56133 0.12187 0.0
H380 H 0.32718 0.57073 0.12856 0.0
H381 H 0.31761 0.51782 0.17077 0.0
H382 H 0.45769 0.50835 0.17365 0.0
H383 H 0.42437 0.52974 0.18002 0.0
C384 C 0.64225 0.14577 0.48079 0.0
C385 C 0.64572 0.12174 0.48441 0.0
C386 C 0.67264 0.17744 0.47951 0.0
C387 C 0.77137 0.23369 0.48892 0.0
H388 H 0.76911 0.28113 0.45455 0.0
C389 C 0.89852 0.3526 0.4664 0.0
C390 C 0.89525 0.37671 0.46257 0.0
C391 C 0.86837 0.32236 0.47053 0.0
C392 C 0.77007 0.26839 0.46434 0.0
H393 H 0.68408 0.11242 0.48978 0.0
H394 H 0.73709 0.16748 0.48718 0.0
H395 H 0.71631 0.22697 0.45889 0.0
H396 H 0.85769 0.38812 0.46095 0.0
H397 H 0.80521 0.33539 0.46795 0.0
H398 H 0.82564 0.27512 0.49404 0.0
C399 C 0.71084 0.16201 0.48563 0.0
C400 C 0.7397 0.23727 0.46688 0.0
C401 C 0.68037 0.13033 0.48705 0.0
C402 C 0.86119 0.37002 0.46348 0.0
C403 C 0.83105 0.33976 0.46751 0.0
C404 C 0.8019 0.26481 0.48629 0.0
C405 C 0.70742 0.18597 0.48164 0.0
C406 C 0.73984 0.21943 0.4792 0.0
C407 C 0.83415 0.3154 0.47085 0.0
C408 C 0.8016 0.28254 0.47397 0.0
H409 H 0.616 0.14013 0.4788 0.0
H410 H 0.66879 0.19525 0.47678 0.0
H411 H 0.77242 0.22095 0.49868 0.0
H412 H 0.92415 0.35665 0.46563 0.0
H413 H 0.87166 0.30407 0.47289 0.0
C414 C 0.62671 0.73641 0.82108 0.0
C415 C 0.59776 0.70546 0.82526 0.0
C416 C 0.62137 0.75919 0.81766 0.0
C417 C 0.55286 0.76797 0.80414 0.0
H418 H 0.62027 0.85502 0.82215 0.0
C419 C 0.53311 0.86513 0.7939 0.0
C420 C 0.564 0.8959 0.7908 0.0
C421 C 0.53606 0.8417 0.79913 0.0
C422 C 0.6014 0.83092 0.81687 0.0
H423 H 0.54033 0.67436 0.82911 0.0
H424 H 0.53097 0.71407 0.82283 0.0
H425 H 0.62753 0.81439 0.82908 0.0
H426 H 0.62219 0.92612 0.79068 0.0
H427 H 0.62739 0.8853 0.79957 0.0
H428 H 0.52717 0.78456 0.79162 0.0
C429 C 0.55781 0.72057 0.82219 0.0
C430 C 0.60553 0.80762 0.82088 0.0
C431 C 0.56319 0.6978 0.82574 0.0
C432 C 0.5979 0.90281 0.79321 0.0
C433 C 0.60085 0.87936 0.79834 0.0
C434 C 0.54885 0.79134 0.80003 0.0
C435 C 0.5869 0.75157 0.81819 0.0
C436 C 0.58149 0.77594 0.81446 0.0
C437 C 0.56998 0.84843 0.80129 0.0
C438 C 0.57325 0.8232 0.80624 0.0
H439 H 0.65357 0.74301 0.82021 0.0
H440 H 0.64422 0.78268 0.81433 0.0
H441 H 0.53411 0.74384 0.79886 0.0
H442 H 0.50662 0.85919 0.79234 0.0
H443 H 0.51173 0.81835 0.80155 0.0
C444 C 0.81597 0.42516 0.19104 0.0
C445 C 0.83925 0.45544 0.19917 0.0
C446 C 0.77924 0.40585 0.19397 0.0
C447 C 0.71258 0.41803 0.20628 0.0
H448 H 0.64708 0.32753 0.1937 0.0
C449 C 0.57462 0.36893 0.18244 0.0
C450 C 0.57016 0.35667 0.16626 0.0
C451 C 0.59896 0.37069 0.19324 0.0
C452 C 0.66494 0.35271 0.19748 0.0
H453 H 0.8426 0.48755 0.21809 0.0
H454 H 0.77888 0.45323 0.22376 0.0
H455 H 0.70946 0.35143 0.2013 0.0
H456 H 0.58372 0.33258 0.14943 0.0
H457 H 0.62667 0.33619 0.16811 0.0
H458 H 0.66888 0.41981 0.20173 0.0
C459 C 0.78879 0.44492 0.21463 0.0
C460 C 0.70073 0.36648 0.20174 0.0
C461 C 0.82549 0.46449 0.21151 0.0
C462 C 0.58715 0.34269 0.16174 0.0
C463 C 0.6115 0.34446 0.17253 0.0
C464 C 0.67687 0.40425 0.20219 0.0
C465 C 0.76493 0.41612 0.2053 0.0
C466 C 0.72546 0.39967 0.20531 0.0
C467 C 0.61928 0.36028 0.18804 0.0
C468 C 0.65312 0.37181 0.19692 0.0
H469 H 0.82585 0.41696 0.18182 0.0
H470 H 0.76193 0.38394 0.18648 0.0
H471 H 0.73063 0.44368 0.20877 0.0
H472 H 0.56189 0.37987 0.18632 0.0
H473 H 0.604 0.38255 0.20521 0.0
C474 C 0.42286 0.91648 0.472 0.0
C475 C 0.45609 0.92477 0.47763 0.0
C476 C 0.39228 0.88453 0.47106 0.0
C477 C 0.36334 0.80184 0.46762 0.0
H478 H 0.2723 0.78008 0.48238 0.0
C479 C 0.23586 0.67035 0.46664 0.0
C480 C 0.2032 0.66418 0.46184 0.0
C481 C 0.2666 0.70176 0.46996 0.0
C482 C 0.29737 0.78571 0.47801 0.0
H483 H 0.48313 0.90573 0.48664 0.0
H484 H 0.42973 0.8499 0.48484 0.0
H485 H 0.32609 0.83544 0.48512 0.0
H486 H 0.17728 0.68629 0.45686 0.0
H487 H 0.2308 0.74096 0.46238 0.0
H488 H 0.33466 0.75238 0.4601 0.0
C489 C 0.42743 0.86822 0.48114 0.0
C490 C 0.32826 0.81749 0.47963 0.0
C491 C 0.458 0.90024 0.48224 0.0
C492 C 0.20185 0.69015 0.46078 0.0
C493 C 0.23265 0.72157 0.46396 0.0
C494 C 0.3324 0.77008 0.46586 0.0
C495 C 0.39417 0.86 0.47559 0.0
C496 C 0.36158 0.82598 0.47437 0.0
C497 C 0.2656 0.72789 0.46843 0.0
C498 C 0.29889 0.76156 0.47095 0.0
H499 H 0.42035 0.93471 0.46837 0.0
H500 H 0.36718 0.87899 0.46655 0.0
H501 H 0.3885 0.80764 0.46327 0.0
H502 H 0.23768 0.65083 0.46775 0.0
H503 H 0.29121 0.70554 0.4737 0.0
C504 C 0.57072 0.3412 0.84644 0.0
C505 C 0.53647 0.33341 0.8489 0.0
C506 C 0.57456 0.31751 0.84154 0.0
C507 C 0.52682 0.22969 0.83935 0.0
H508 H 0.59413 0.24855 0.80533 0.0
C509 C 0.52676 0.13145 0.80418 0.0
C510 C 0.56005 0.13856 0.79998 0.0
C511 C 0.52486 0.15517 0.81126 0.0
C512 C 0.57558 0.24299 0.815 0.0
H513 H 0.47937 0.29447 0.84812 0.0
H514 H 0.48605 0.25319 0.83962 0.0
H515 H 0.58913 0.28998 0.81568 0.0
H516 H 0.61758 0.17599 0.80047 0.0
H517 H 0.61427 0.21733 0.81285 0.0
H518 H 0.51306 0.18259 0.83855 0.0
C519 C 0.51002 0.27757 0.8417 0.0
C520 C 0.57271 0.26678 0.82094 0.0
C521 C 0.50618 0.30126 0.84659 0.0
C522 C 0.59145 0.16982 0.80332 0.0
C523 C 0.58955 0.19353 0.8104 0.0
C524 C 0.52971 0.20589 0.83341 0.0
C525 C 0.54423 0.28543 0.83899 0.0
C526 C 0.54815 0.26038 0.83312 0.0
C527 C 0.5562 0.18659 0.81431 0.0
C528 C 0.55398 0.21219 0.82109 0.0
H529 H 0.59466 0.36564 0.84836 0.0
H530 H 0.60134 0.32431 0.83982 0.0
H531 H 0.50801 0.2241 0.8489 0.0
H532 H 0.50201 0.10775 0.80156 0.0
H533 H 0.49868 0.14907 0.81389 0.0
C534 C 0.55472 0.85009 0.5228 0.0
C535 C 0.56832 0.86404 0.50774 0.0
C536 C 0.54946 0.82162 0.52619 0.0
C537 C 0.57904 0.7723 0.51317 0.0
H538 H 0.50077 0.70954 0.53984 0.0
C539 C 0.55309 0.65258 0.52714 0.0
C540 C 0.54688 0.64451 0.54361 0.0
C541 C 0.5534 0.67777 0.5218 0.0
C542 C 0.52285 0.72694 0.53243 0.0
H543 H 0.58561 0.85838 0.48414 0.0
H544 H 0.57579 0.80841 0.48989 0.0
H545 H 0.50478 0.756 0.53207 0.0
H546 H 0.53652 0.65709 0.56738 0.0
H547 H 0.53639 0.70042 0.55799 0.0
H548 H 0.59701 0.74309 0.51354 0.0
C549 C 0.57007 0.81985 0.49929 0.0
C550 C 0.52523 0.75363 0.52801 0.0
C551 C 0.5756 0.84844 0.49596 0.0
C552 C 0.54062 0.66207 0.55454 0.0
C553 C 0.54063 0.68703 0.54917 0.0
C554 C 0.57649 0.74548 0.51749 0.0
C555 C 0.55739 0.80627 0.51453 0.0
C556 C 0.55361 0.77688 0.51848 0.0
C557 C 0.54722 0.69529 0.53277 0.0
C558 C 0.54861 0.7227 0.52733 0.0
H559 H 0.54927 0.86174 0.5322 0.0
H560 H 0.54019 0.8122 0.53815 0.0
H561 H 0.6016 0.78991 0.50605 0.0
H562 H 0.55749 0.63933 0.51832 0.0
H563 H 0.5582 0.68339 0.50904 0.0
C564 C 0.70134 0.55135 0.84987 0.0
C565 C 0.666 0.52326 0.85151 0.0
C566 C 0.73159 0.55111 0.85058 0.0
C567 C 0.76026 0.49892 0.86203 0.0
H568 H 0.84835 0.56433 0.84144 0.0
C569 C 0.89098 0.50706 0.87076 0.0
C570 C 0.918 0.5208 0.85896 0.0
C571 C 0.86108 0.50768 0.8697 0.0
C572 C 0.82407 0.54548 0.84718 0.0
H573 H 0.63584 0.47252 0.855 0.0
H574 H 0.68755 0.47174 0.85569 0.0
H575 H 0.79622 0.56404 0.83941 0.0
H576 H 0.9333 0.54608 0.83657 0.0
H577 H 0.88134 0.54652 0.83446 0.0
H578 H 0.78751 0.47954 0.8692 0.0
C579 C 0.6925 0.4945 0.8543 0.0
C580 C 0.79375 0.54562 0.84623 0.0
C581 C 0.66231 0.49483 0.85376 0.0
C582 C 0.91365 0.53538 0.84605 0.0
C583 C 0.88345 0.5357 0.84489 0.0
C584 C 0.79043 0.49862 0.86285 0.0
C585 C 0.72808 0.52267 0.85282 0.0
C586 C 0.76097 0.5224 0.85368 0.0
C587 C 0.85624 0.52181 0.85669 0.0
C588 C 0.82331 0.52197 0.85553 0.0
H589 H 0.70583 0.57389 0.84823 0.0
H590 H 0.7579 0.57366 0.84965 0.0
H591 H 0.73639 0.48066 0.86823 0.0
H592 H 0.89316 0.49618 0.88114 0.0
H593 H 0.84203 0.49737 0.87942 0.0
C594 C 0.14416 0.64732 0.1624 0.0
C595 C 0.14301 0.62084 0.15704 0.0
C596 C 0.17659 0.67823 0.16303 0.0
C597 C 0.27449 0.72185 0.16622 0.0
H598 H 0.27804 0.793 0.15144 0.0
C599 C 0.40798 0.84959 0.16702 0.0
C600 C 0.40679 0.87489 0.17215 0.0
C601 C 0.37625 0.81882 0.16355 0.0
C602 C 0.2775 0.77349 0.15579 0.0
H603 H 0.17528 0.60622 0.14813 0.0
H604 H 0.23189 0.66018 0.14935 0.0
H605 H 0.22189 0.73891 0.14882 0.0
H606 H 0.37126 0.88773 0.17746 0.0
H607 H 0.316 0.83415 0.17165 0.0
H608 H 0.32972 0.75632 0.17358 0.0
C609 C 0.20764 0.65695 0.15309 0.0
C610 C 0.24529 0.74246 0.15424 0.0
C611 C 0.17513 0.62604 0.15231 0.0
C612 C 0.37314 0.86889 0.17331 0.0
C613 C 0.34141 0.83808 0.16996 0.0
C614 C 0.30664 0.7529 0.16788 0.0
C615 C 0.20874 0.68342 0.15844 0.0
C616 C 0.24334 0.71628 0.15953 0.0
C617 C 0.34248 0.81249 0.16525 0.0
C618 C 0.30857 0.77921 0.16277 0.0
H619 H 0.11997 0.64424 0.16611 0.0
H620 H 0.17657 0.69805 0.16738 0.0
H621 H 0.27378 0.70227 0.1706 0.0
H622 H 0.4335 0.85352 0.16582 0.0
H623 H 0.37825 0.79994 0.15962 0.0
C624 C 0.55929 0.20902 0.48646 0.0
C625 C 0.52434 0.18038 0.48412 0.0
C626 C 0.56472 0.23751 0.49153 0.0
C627 C 0.51918 0.27614 0.49506 0.0
H628 H 0.59338 0.3307 0.52834 0.0
C629 C 0.55405 0.3982 0.51847 0.0
C630 C 0.56036 0.40544 0.53542 0.0
C631 C 0.55091 0.37178 0.51137 0.0
C632 C 0.57243 0.31567 0.5191 0.0
H633 H 0.46768 0.15933 0.48525 0.0
H634 H 0.47713 0.20894 0.49416 0.0
H635 H 0.58503 0.28257 0.51745 0.0
H636 H 0.56754 0.39006 0.55823 0.0
H637 H 0.56206 0.34415 0.54591 0.0
H638 H 0.5059 0.3088 0.4971 0.0
C639 C 0.50038 0.20952 0.49182 0.0
C640 C 0.56792 0.28825 0.5127 0.0
C641 C 0.49495 0.18104 0.48671 0.0
C642 C 0.56342 0.3856 0.54509 0.0
C643 C 0.56026 0.35923 0.53802 0.0
C644 C 0.5237 0.3036 0.50146 0.0
C645 C 0.53534 0.23806 0.49444 0.0
C646 C 0.54106 0.26799 0.50069 0.0
C647 C 0.55397 0.35196 0.52107 0.0
C648 C 0.55017 0.32355 0.51368 0.0
H649 H 0.58251 0.20944 0.48432 0.0
H650 H 0.59201 0.25914 0.49316 0.0
H651 H 0.4985 0.26128 0.48569 0.0
H652 H 0.55195 0.41318 0.51064 0.0
H653 H 0.54649 0.36709 0.49826 0.0
C654 C 0.47452 0.54496 0.84552 0.0
C655 C 0.47545 0.52264 0.8541 0.0
C656 C 0.44438 0.5454 0.84594 0.0
C657 C 0.34621 0.49725 0.85948 0.0
H658 H 0.35831 0.5749 0.85018 0.0
C659 C 0.22098 0.49974 0.85695 0.0
C660 C 0.22547 0.52876 0.8601 0.0
C661 C 0.25074 0.49877 0.8558 0.0
C662 C 0.35393 0.55288 0.85307 0.0
H663 H 0.44423 0.48341 0.87012 0.0
H664 H 0.39297 0.48479 0.87139 0.0
H665 H 0.40967 0.57416 0.84982 0.0
H666 H 0.26719 0.57995 0.86394 0.0
H667 H 0.31767 0.5781 0.86283 0.0
H668 H 0.29077 0.47644 0.86348 0.0
C669 C 0.41497 0.50162 0.86382 0.0
C670 C 0.38394 0.55227 0.85256 0.0
C671 C 0.44492 0.50093 0.86322 0.0
C672 C 0.26146 0.55675 0.86185 0.0
C673 C 0.29113 0.55575 0.86089 0.0
C674 C 0.31627 0.49797 0.86018 0.0
C675 C 0.41371 0.5238 0.85515 0.0
C676 C 0.38102 0.52444 0.85573 0.0
C677 C 0.28673 0.52674 0.85787 0.0
C678 C 0.3192 0.52581 0.85699 0.0
H679 H 0.49709 0.56206 0.83825 0.0
H680 H 0.44523 0.56264 0.83873 0.0
H681 H 0.34162 0.47491 0.86179 0.0
H682 H 0.19429 0.47733 0.85562 0.0
H683 H 0.24517 0.47575 0.85317 0.0
C684 C 0.94448 0.4011 0.148 0.0
C685 C 0.94608 0.42786 0.15322 0.0
C686 C 0.91282 0.37004 0.14942 0.0
C687 C 0.82675 0.32563 0.17171 0.0
H688 H 0.79967 0.2561 0.14055 0.0
C689 C 0.69026 0.20135 0.17395 0.0
C690 C 0.69128 0.175 0.17354 0.0
C691 C 0.72047 0.23168 0.17012 0.0
C692 C 0.80701 0.27528 0.14938 0.0
H693 H 0.91517 0.44296 0.16341 0.0
H694 H 0.85989 0.38923 0.1653 0.0
H695 H 0.85367 0.31011 0.13632 0.0
H696 H 0.72491 0.16005 0.16812 0.0
H697 H 0.77736 0.21293 0.16105 0.0
H698 H 0.77978 0.29085 0.18461 0.0
C699 C 0.88329 0.39193 0.16063 0.0
C700 C 0.83807 0.30626 0.14701 0.0
C701 C 0.91502 0.42289 0.15943 0.0
C702 C 0.72289 0.1796 0.16842 0.0
C703 C 0.75306 0.20996 0.16442 0.0
C704 C 0.79556 0.29482 0.17395 0.0
C705 C 0.88182 0.36499 0.15591 0.0
C706 C 0.84844 0.33191 0.15817 0.0
C707 C 0.75241 0.23646 0.16558 0.0
C708 C 0.78533 0.26926 0.16285 0.0
H709 H 0.968 0.4041 0.14325 0.0
H710 H 0.91302 0.35002 0.14583 0.0
H711 H 0.83412 0.34442 0.18081 0.0
H712 H 0.66619 0.19866 0.17744 0.0
H713 H 0.71893 0.25152 0.17083 0.0
C714 C 0.05029 0.56443 0.10149 0.0
C715 C 0.0376 0.53731 0.11036 0.0
C716 C 0.05469 0.56378 0.08459 0.0
C717 C 1.02246 0.50852 0.04834 0.0
H718 H 0.10875 0.5787 0.02847 0.0
C719 C 0.04843 0.50151 0.97987 0.0
C720 C 0.06503 0.52951 0.97121 0.0
C721 C 0.04616 0.50264 0.99689 0.0
C722 C 0.08424 0.55907 0.03375 0.0
H723 H 1.01981 0.48834 0.1086 0.0
H724 H 1.02708 0.48707 0.07905 0.0
H725 H 0.10255 0.58058 0.05801 0.0
H726 H 0.09203 0.58062 0.97362 0.0
H727 H 0.08739 0.58259 0.00326 0.0
H728 H 1.00364 0.48726 0.02416 0.0
C729 C 0.03352 0.50879 0.08513 0.0
C730 C 0.08077 0.56014 0.05071 0.0
C731 C 1.0295 0.50956 0.10205 0.0
C732 C 0.07946 0.5587 0.97997 0.0
C733 C 0.07688 0.55981 0.99699 0.0
C734 C 1.02574 0.50758 0.03137 0.0
C735 C 0.04611 0.53587 0.07621 0.0
C736 C 0.04988 0.53484 0.05819 0.0
C737 C 0.06009 0.53177 0.0057 0.0
C738 C 0.05671 0.53281 0.02383 0.0
H739 H 0.05682 0.58616 0.10762 0.0
H740 H 0.06419 0.58494 0.07803 0.0
H741 H 0.9981 0.48886 0.05372 0.0
H742 H 0.03748 0.47872 0.97347 0.0
H743 H 0.03371 0.48065 0.00316 0.0
C744 C 0.53393 0.00749 0.42834 0.0
C745 C 0.56735 0.02646 0.43671 0.0
C746 C 0.53186 0.00854 0.41135 0.0
C747 C 0.58949 0.0337 0.37487 0.0
H748 H 0.50743 0.0203 0.35299 0.0
C749 C 0.58629 0.05382 0.30632 0.0
C750 C 0.55629 0.02823 0.2972 0.0
C751 C 0.58701 0.05406 0.32339 0.0
C752 C 0.53041 0.02394 0.35898 0.0
H753 H 0.62451 0.06258 0.43421 0.0
H754 H 0.62092 0.06565 0.4048 0.0
H755 H 0.51005 0.02105 0.38282 0.0
H756 H 0.50325 0.98324 0.2987 0.0
H757 H 0.50425 0.98398 0.32867 0.0
H758 H 0.61017 0.03743 0.35098 0.0
C759 C 0.59636 0.04891 0.41108 0.0
C760 C 0.5319 0.02422 0.37606 0.0
C761 C 0.59845 0.0474 0.42798 0.0
C762 C 0.52677 0.00314 0.30547 0.0
C763 C 0.52724 0.00367 0.32256 0.0
C764 C 0.58825 0.03394 0.35785 0.0
C765 C 0.56314 0.02902 0.40246 0.0
C766 C 0.56147 0.02907 0.38426 0.0
C767 C 0.55749 0.029 0.33167 0.0
C768 C 0.5587 0.02899 0.34974 0.0
H769 H 0.50955 0.99108 0.43483 0.0
H770 H 0.50584 0.9926 0.40518 0.0
H771 H 0.61228 0.03667 0.38063 0.0
H772 H 0.60944 0.07336 0.30023 0.0
H773 H 0.61058 0.07393 0.33015 0.0
C774 C 0.59009 0.53008 0.79874 0.0
C775 C 0.5561 0.50845 0.80532 0.0
C776 C 0.59346 0.5343 0.78187 0.0
C777 C 0.54438 0.49248 0.74274 0.0
H778 H 0.60945 0.57569 0.7246 0.0
C779 C 0.53653 0.51167 0.67486 0.0
C780 C 0.56895 0.53064 0.66659 0.0
C781 C 0.53666 0.51007 0.69183 0.0
C782 C 0.59144 0.55226 0.7295 0.0
H783 H 0.49898 0.47526 0.79964 0.0
H784 H 0.5047 0.4829 0.7704 0.0
H785 H 0.60678 0.57131 0.75429 0.0
H786 H 0.62695 0.56327 0.66973 0.0
H787 H 0.62717 0.56026 0.69946 0.0
H788 H 0.52877 0.47341 0.71804 0.0
C789 C 0.52888 0.49607 0.7781 0.0
C790 C 0.58993 0.54975 0.7465 0.0
C791 C 0.52556 0.49183 0.79487 0.0
C792 C 0.60154 0.54822 0.67573 0.0
C793 C 0.60166 0.54674 0.69276 0.0
C794 C 0.54581 0.495 0.72581 0.0
C795 C 0.56287 0.51695 0.77133 0.0
C796 C 0.56603 0.51985 0.75331 0.0
C797 C 0.56921 0.52744 0.70098 0.0
C798 C 0.56903 0.52493 0.71899 0.0
H799 H 0.61407 0.54321 0.80657 0.0
H800 H 0.62005 0.55046 0.77704 0.0
H801 H 0.5263 0.46898 0.74755 0.0
H802 H 0.51098 0.4976 0.66817 0.0
H803 H 0.51118 0.49527 0.69782 0.0
C804 C 0.50646 0.0055 0.53801 0.0
C805 C 0.53664 0.02169 0.52814 0.0
C806 C 0.51035 0.00381 0.55475 0.0
C807 C 0.57577 0.04573 0.58904 0.0
H808 H 0.50826 0.96762 0.61116 0.0
C809 C 0.55303 0.99236 0.65723 0.0
C810 C 0.55799 0.01762 0.66697 0.0
C811 C 0.55197 0.99241 0.64016 0.0
C812 C 0.52751 0.98954 0.60515 0.0
H813 H 0.59451 0.04843 0.52788 0.0
H814 H 0.6014 0.04556 0.55724 0.0
H815 H 0.50375 0.96775 0.58146 0.0
H816 H 0.56541 0.06261 0.66628 0.0
H817 H 0.56394 0.06283 0.63654 0.0
H818 H 0.59944 0.06755 0.61273 0.0
C819 C 0.57474 0.03434 0.55204 0.0
C820 C 0.52473 0.98969 0.58816 0.0
C821 C 0.5708 0.03584 0.53525 0.0
C822 C 0.56216 0.04304 0.65919 0.0
C823 C 0.56128 0.04316 0.64213 0.0
C824 C 0.57841 0.04564 0.60604 0.0
C825 C 0.54456 0.01844 0.56199 0.0
C826 C 0.54866 0.01784 0.57993 0.0
C827 C 0.55604 0.0178 0.63242 0.0
C828 C 0.55415 0.0176 0.6143 0.0
H829 H 0.4798 0.99436 0.53282 0.0
H830 H 0.48662 0.9917 0.56211 0.0
H831 H 0.59442 0.06786 0.58307 0.0
H832 H 0.55034 0.97266 0.66278 0.0
H833 H 0.54834 0.97272 0.63301 0.0
C834 C 0.6139 0.54478 0.90768 0.0
C835 C 0.58408 0.53034 0.89689 0.0
C836 C 0.60996 0.53342 0.92329 0.0
C837 C 0.54164 0.48666 0.95417 0.0
H838 H 0.6143 0.48171 0.97301 0.0
C839 C 0.58684 0.47532 0.02157 0.0
C840 C 0.55313 0.45088 0.02754 0.0
C841 C 0.59057 0.48229 0.00508 0.0
C842 C 0.59389 0.48312 0.96794 0.0
H843 H 0.52684 0.49278 0.89382 0.0
H844 H 0.51999 0.47262 0.92095 0.0
H845 H 0.62092 0.49973 0.94531 0.0
H846 H 0.49712 0.41395 0.02079 0.0
H847 H 0.50373 0.42584 0.99193 0.0
H848 H 0.51474 0.47029 0.97681 0.0
C849 C 0.54633 0.49297 0.9175 0.0
C850 C 0.59771 0.49351 0.95209 0.0
C851 C 0.55028 0.50439 0.90193 0.0
C852 C 0.52349 0.43278 0.01655 0.0
C853 C 0.52719 0.43983 6e-05 0.0
C854 C 0.53778 0.4762 0.96998 0.0
C855 C 0.57611 0.50738 0.92839 0.0
C856 C 0.57173 0.49559 0.94506 0.0
C857 C 0.56064 0.46504 0.99421 0.0
C858 C 0.56395 0.47449 0.97708 0.0
H859 H 0.64026 0.56486 0.90407 0.0
H860 H 0.63334 0.54535 0.93145 0.0
H861 H 0.52142 0.48846 0.94924 0.0
H862 H 0.61026 0.48945 0.02972 0.0
H863 H 0.61665 0.50199 0.00099 0.0
C864 C 0.05227 0.48748 0.20753 0.0
C865 C 0.05635 0.51189 0.19878 0.0
C866 C 0.05174 0.48857 0.2246 0.0
C867 C 1.03093 0.51906 0.25966 0.0
H868 H 0.09425 0.50871 0.284 0.0
C869 C 0.04235 0.53226 0.33036 0.0
C870 C 0.04833 0.51284 0.3386 0.0
C871 C 0.04366 0.53297 0.3133 0.0
C872 C 0.07592 0.51111 0.27744 0.0
H873 H 0.06347 0.55677 0.20098 0.0
H874 H 0.06118 0.55807 0.23092 0.0
H875 H 0.09538 0.50806 0.25425 0.0
H876 H 0.05939 0.4783 0.33555 0.0
H877 H 0.06028 0.47842 0.30579 0.0
H878 H 1.0104 0.52095 0.28271 0.0
C879 C 0.05848 0.53817 0.2245 0.0
C880 C 0.0768 0.51095 0.26038 0.0
C881 C 0.05968 0.53737 0.20741 0.0
C882 C 0.05511 0.49377 0.32948 0.0
C883 C 0.05583 0.49405 0.31242 0.0
C884 C 1.02958 0.51869 0.27673 0.0
C885 C 0.05475 0.51387 0.23324 0.0
C886 C 0.05429 0.51487 0.25134 0.0
C887 C 0.05043 0.51386 0.30408 0.0
C888 C 0.05202 0.51463 0.28588 0.0
H889 H 0.04966 0.46755 0.2012 0.0
H890 H 0.04859 0.46944 0.23105 0.0
H891 H 1.01306 0.52184 0.25293 0.0
H892 H 0.03742 0.54744 0.33715 0.0
H893 H 0.03999 0.54895 0.30741 0.0
loop_
_geom_bond_atom_site_label_1
_geom_bond_atom_site_label_2
_geom_bond_distance
_geom_bond_site_symmetry_2
_ccdc_geom_bond_type
Ho0 C3 2.811 . S
Ho0 O20 2.322 . S
Ho0 O22 2.378 . S
Ho0 O23 2.524 . S
Ho0 O24 2.381 . S
Ho0 O25 2.669 . S
Ho0 O27 2.346 1_455 S
Ho0 O31 2.305 . S
Ho1 C12 2.811 1_455 S
Ho1 O21 2.346 . S
Ho1 O25 2.305 . S
Ho1 O26 2.322 1_455 S
Ho1 O28 2.378 1_455 S
Ho1 O29 2.524 1_455 S
Ho1 O30 2.381 . S
Ho1 O31 2.669 . S
C2 O20 1.259 . S
C2 O21 1.268 . S
C3 Ho0 2.811 . S
C3 C4 1.488 . S
C3 O22 1.215 . S
C3 O23 1.289 . S
C4 C3 1.488 . S
C4 C5 1.348 . S
C4 C9 1.413 . S
C5 C4 1.348 . S
C5 C6 1.442 . S
C5 H32 0.930 . S
C6 C5 1.442 . S
C6 C7 1.381 . S
C6 H33 0.931 . S
C7 C6 1.381 . S
C7 C8 1.321 . S
C8 C7 1.321 . S
C8 C9 1.403 . S
C8 H34 0.934 . S
C9 C4 1.413 . S
C9 C8 1.403 . S
C9 H35 0.930 . S
C10 O24 1.275 . S
C10 O25 1.256 . S
C11 O26 1.259 . S
C11 O27 1.268 . S
C12 Ho1 2.811 1_655 S
C12 C13 1.488 . S
C12 O28 1.215 . S
C12 O29 1.289 . S
C13 C12 1.488 . S
C13 C14 1.348 . S
C13 C18 1.413 . S
C14 C13 1.348 . S
C14 C15 1.442 . S
C14 H36 0.930 . S
C15 C14 1.442 . S
C15 C16 1.381 . S
C15 H37 0.931 . S
C16 C15 1.381 . S
C16 C17 1.321 . S
C17 C16 1.321 . S
C17 C18 1.403 . S
C17 H38 0.934 . S
C18 C13 1.413 . S
C18 C17 1.403 . S
C18 H39 0.930 . S
C19 O30 1.275 . S
C19 O31 1.256 . S
O20 Ho0 2.322 . S
O20 C2 1.259 . S
O21 Ho1 2.346 . S
O21 C2 1.268 . S
O22 Ho0 2.378 . S
O22 C3 1.215 . S
O23 Ho0 2.524 . S
O23 C3 1.289 . S
O24 Ho0 2.381 . S
O24 C10 1.275 . S
O25 Ho0 2.669 . S
O25 Ho1 2.305 . S
O25 C10 1.256 . S
O26 Ho1 2.322 1_655 S
O26 C11 1.259 . S
O27 Ho0 2.346 1_655 S
O27 C11 1.268 . S
O28 Ho1 2.378 1_655 S
O28 C12 1.215 . S
O29 Ho1 2.524 1_655 S
O29 C12 1.289 . S
O30 Ho1 2.381 . S
O30 C19 1.275 . S
O31 Ho0 2.305 . S
O31 Ho1 2.669 . S
O31 C19 1.256 . S
H32 C5 0.930 . S
H33 C6 0.931 . S
H34 C8 0.934 . S
H35 C9 0.930 . S
H36 C14 0.930 . S
H37 C15 0.931 . S
H38 C17 0.934 . S
H39 C18 0.930 . S
Ho40 C43 2.811 . S
Ho40 O60 2.322 . S
Ho40 O62 2.378 . S
Ho40 O63 2.524 . S
Ho40 O64 2.381 . S
Ho40 O65 2.669 1_565 S
Ho40 O67 2.346 1_565 S
Ho40 O71 2.305 1_565 S
Ho41 C52 2.811 . S
Ho41 O61 2.346 1_545 S
Ho41 O65 2.305 . S
Ho41 O66 2.322 . S
Ho41 O68 2.378 . S
Ho41 O69 2.524 . S
Ho41 O70 2.381 . S
Ho41 O71 2.669 . S
C42 O60 1.259 . S
C42 O61 1.268 . S
C43 Ho40 2.811 . S
C43 C44 1.488 . S
C43 O62 1.215 . S
C43 O63 1.289 . S
C44 C43 1.488 . S
C44 C45 1.348 . S
C44 C49 1.413 . S
C45 C44 1.348 . S
C45 C46 1.442 . S
C45 H72 0.930 . S
C46 C45 1.442 . S
C46 C47 1.381 . S
C46 H73 0.931 . S
C47 C46 1.381 . S
C47 C48 1.321 . S
C48 C47 1.321 . S
C48 C49 1.403 . S
C48 H74 0.934 . S
C49 C44 1.413 . S
C49 C48 1.403 . S
C49 H75 0.930 . S
C50 O64 1.275 1_545 S
C50 O65 1.256 . S
C51 O66 1.259 . S
C51 O67 1.268 . S
C52 Ho41 2.811 . S
C52 C53 1.488 . S
C52 O68 1.215 . S
C52 O69 1.289 . S
C53 C52 1.488 . S
C53 C54 1.348 . S
C53 C58 1.413 . S
C54 C53 1.348 . S
C54 C55 1.442 . S
C54 H76 0.930 . S
C55 C54 1.442 . S
C55 C56 1.381 . S
C55 H77 0.931 . S
C56 C55 1.381 . S
C56 C57 1.321 . S
C57 C56 1.321 . S
C57 C58 1.403 . S
C57 H78 0.934 . S
C58 C53 1.413 . S
C58 C57 1.403 . S
C58 H79 0.930 . S
C59 O70 1.275 . S
C59 O71 1.256 . S
O60 Ho40 2.322 . S
O60 C42 1.259 . S
O61 Ho41 2.346 1_565 S
O61 C42 1.268 . S
O62 Ho40 2.378 . S
O62 C43 1.215 . S
O63 Ho40 2.524 . S
O63 C43 1.289 . S
O64 Ho40 2.381 . S
O64 C50 1.275 1_565 S
O65 Ho40 2.669 1_545 S
O65 Ho41 2.305 . S
O65 C50 1.256 . S
O66 Ho41 2.322 . S
O66 C51 1.259 . S
O67 Ho40 2.346 1_545 S
O67 C51 1.268 . S
O68 Ho41 2.378 . S
O68 C52 1.215 . S
O69 Ho41 2.524 . S
O69 C52 1.289 . S
O70 Ho41 2.381 . S
O70 C59 1.275 . S
O71 Ho40 2.305 1_545 S
O71 Ho41 2.669 . S
O71 C59 1.256 . S
H72 C45 0.930 . S
H73 C46 0.931 . S
H74 C48 0.934 . S
H75 C49 0.930 . S
H76 C54 0.930 . S
H77 C55 0.931 . S
H78 C57 0.934 . S
H79 C58 0.930 . S
Ho80 C83 2.811 . S
Ho80 O100 2.322 . S
Ho80 O102 2.378 . S
Ho80 O103 2.524 . S
Ho80 O104 2.381 . S
Ho80 O105 2.669 . S
Ho80 O107 2.346 . S
Ho80 O111 2.305 . S
Ho81 C92 2.811 . S
Ho81 O101 2.346 . S
Ho81 O105 2.305 . S
Ho81 O106 2.322 . S
Ho81 O108 2.378 . S
Ho81 O109 2.524 . S
Ho81 O110 2.381 . S
Ho81 O111 2.669 . S
C82 O100 1.259 . S
C82 O101 1.268 . S
C83 Ho80 2.811 . S
C83 C84 1.488 . S
C83 O102 1.215 . S
C83 O103 1.289 . S
C84 C83 1.488 . S
C84 C85 1.348 . S
C84 C89 1.413 . S
C85 C84 1.348 . S
C85 C86 1.442 . S
C85 H112 0.930 . S
C86 C85 1.442 . S
C86 C87 1.381 . S
C86 H113 0.931 . S
C87 C86 1.381 . S
C87 C88 1.321 . S
C88 C87 1.321 . S
C88 C89 1.403 . S
C88 H114 0.934 . S
C89 C84 1.413 . S
C89 C88 1.403 . S
C89 H115 0.930 . S
C90 O104 1.275 . S
C90 O105 1.256 . S
C91 O106 1.259 . S
C91 O107 1.268 . S
C92 Ho81 2.811 . S
C92 C93 1.488 . S
C92 O108 1.215 . S
C92 O109 1.289 . S
C93 C92 1.488 . S
C93 C94 1.348 . S
C93 C98 1.413 . S
C94 C93 1.348 . S
C94 C95 1.442 . S
C94 H116 0.930 . S
C95 C94 1.442 . S
C95 C96 1.381 . S
C95 H117 0.931 . S
C96 C95 1.381 . S
C96 C97 1.321 . S
C97 C96 1.321 . S
C97 C98 1.403 . S
C97 H118 0.934 . S
C98 C93 1.413 . S
C98 C97 1.403 . S
C98 H119 0.930 . S
C99 O110 1.275 . S
C99 O111 1.256 . S
O100 Ho80 2.322 . S
O100 C82 1.259 . S
O101 Ho81 2.346 . S
O101 C82 1.268 . S
O102 Ho80 2.378 . S
O102 C83 1.215 . S
O103 Ho80 2.524 . S
O103 C83 1.289 . S
O104 Ho80 2.381 . S
O104 C90 1.275 . S
O105 Ho80 2.669 . S
O105 Ho81 2.305 . S
O105 C90 1.256 . S
O106 Ho81 2.322 . S
O106 C91 1.259 . S
O107 Ho80 2.346 . S
O107 C91 1.268 . S
O108 Ho81 2.378 . S
O108 C92 1.215 . S
O109 Ho81 2.524 . S
O109 C92 1.289 . S
O110 Ho81 2.381 . S
O110 C99 1.275 . S
O111 Ho80 2.305 . S
O111 Ho81 2.669 . S
O111 C99 1.256 . S
H112 C85 0.930 . S
H113 C86 0.931 . S
H114 C88 0.934 . S
H115 C89 0.930 . S
H116 C94 0.930 . S
H117 C95 0.931 . S
H118 C97 0.934 . S
H119 C98 0.930 . S
C120 C121 1.386 . S
C120 C122 1.397 . S
C120 H144 0.931 . S
C121 C120 1.386 . S
C121 C125 1.397 1_545 S
C122 C120 1.397 . S
C122 C123 1.384 . S
C122 H145 0.930 . S
C123 C122 1.384 . S
C123 C124 1.377 1_545 S
C123 C126 1.481 . S
C124 C123 1.377 1_565 S
C124 C125 1.389 . S
C124 H146 0.929 . S
C125 C121 1.397 1_565 S
C125 C124 1.389 . S
C125 H147 0.931 . S
C126 C123 1.481 . S
C126 C127 1.387 . S
C126 C131 1.390 1_545 S
C127 C126 1.387 . S
C127 C128 1.401 . S
C127 H148 0.930 . S
C128 C127 1.401 . S
C128 C129 1.376 . S
C128 C137 1.511 . S
C129 C128 1.376 . S
C129 C130 1.392 1_545 S
C129 H150 0.931 . S
C130 C129 1.392 1_565 S
C130 C131 1.361 . S
C130 C132 1.500 . S
C131 C126 1.390 1_565 S
C131 C130 1.361 . S
C131 H149 0.931 . S
C132 C130 1.500 . S
C132 C133 1.371 . S
C132 C134 1.365 . S
C133 C132 1.371 . S
C133 C143 1.386 . S
C133 H151 0.931 . S
C134 C132 1.365 . S
C134 C135 1.409 . S
C134 H152 0.929 . S
C135 C134 1.409 . S
C135 C136 1.380 . S
C135 H153 0.930 . S
C136 C135 1.380 . S
C136 C143 1.357 . S
C137 C128 1.511 . S
C137 C138 1.341 . S
C137 C139 1.371 . S
C138 C137 1.341 . S
C138 C142 1.394 . S
C138 H154 0.930 . S
C139 C137 1.371 . S
C139 C140 1.392 . S
C139 H155 0.931 . S
C140 C139 1.392 . S
C140 C141 1.331 . S
C140 H158 0.932 . S
C141 C140 1.331 . S
C141 C142 1.336 . S
C142 C138 1.394 . S
C142 C141 1.336 . S
C142 H157 0.929 . S
C143 C133 1.386 . S
C143 C136 1.357 . S
C143 H156 0.928 . S
H144 C120 0.931 . S
H145 C122 0.930 . S
H146 C124 0.929 . S
H147 C125 0.931 . S
H148 C127 0.930 . S
H149 C131 0.931 . S
H150 C129 0.931 . S
H151 C133 0.931 . S
H152 C134 0.929 . S
H153 C135 0.930 . S
H154 C138 0.930 . S
H155 C139 0.931 . S
H156 C143 0.928 . S
H157 C142 0.929 . S
H158 C140 0.932 . S
C159 C160 1.386 . S
C159 C161 1.397 . S
C159 H183 0.931 . S
C160 C159 1.386 . S
C160 C164 1.397 . S
C161 C159 1.397 . S
C161 C162 1.384 . S
C161 H184 0.930 . S
C162 C161 1.384 . S
C162 C163 1.377 . S
C162 C165 1.481 . S
C163 C162 1.377 . S
C163 C164 1.389 . S
C163 H185 0.929 . S
C164 C160 1.397 . S
C164 C163 1.389 . S
C164 H186 0.931 . S
C165 C162 1.481 . S
C165 C166 1.387 . S
C165 C170 1.390 . S
C166 C165 1.387 . S
C166 C167 1.401 . S
C166 H187 0.930 . S
C167 C166 1.401 . S
C167 C168 1.376 . S
C167 C176 1.511 . S
C168 C167 1.376 . S
C168 C169 1.392 . S
C168 H189 0.931 . S
C169 C168 1.392 . S
C169 C170 1.361 . S
C169 C171 1.500 . S
C170 C165 1.390 . S
C170 C169 1.361 . S
C170 H188 0.931 . S
C171 C169 1.500 . S
C171 C172 1.371 . S
C171 C173 1.365 . S
C172 C171 1.371 . S
C172 C182 1.386 . S
C172 H190 0.931 . S
C173 C171 1.365 . S
C173 C174 1.409 . S
C173 H191 0.929 . S
C174 C173 1.409 . S
C174 C175 1.380 . S
C174 H192 0.930 . S
C175 C174 1.380 . S
C175 C182 1.357 . S
C176 C167 1.511 . S
C176 C177 1.341 . S
C176 C178 1.371 . S
C177 C176 1.341 . S
C177 C181 1.394 . S
C177 H193 0.930 . S
C178 C176 1.371 . S
C178 C179 1.392 . S
C178 H194 0.931 . S
C179 C178 1.392 . S
C179 C180 1.331 . S
C179 H197 0.932 . S
C180 C179 1.331 . S
C180 C181 1.336 . S
C181 C177 1.394 . S
C181 C180 1.336 . S
C181 H196 0.929 . S
C182 C172 1.386 . S
C182 C175 1.357 . S
C182 H195 0.928 . S
H183 C159 0.931 . S
H184 C161 0.930 . S
H185 C163 0.929 . S
H186 C164 0.931 . S
H187 C166 0.930 . S
H188 C170 0.931 . S
H189 C168 0.931 . S
H190 C172 0.931 . S
H191 C173 0.929 . S
H192 C174 0.930 . S
H193 C177 0.930 . S
H194 C178 0.931 . S
H195 C182 0.928 . S
H196 C181 0.929 . S
H197 C179 0.932 . S
C198 C199 1.386 . S
C198 C200 1.397 . S
C198 H222 0.931 . S
C199 C198 1.386 . S
C199 C203 1.397 . S
C200 C198 1.397 . S
C200 C201 1.384 . S
C200 H223 0.930 . S
C201 C200 1.384 . S
C201 C202 1.377 . S
C201 C204 1.481 . S
C202 C201 1.377 . S
C202 C203 1.389 . S
C202 H224 0.929 1_455 S
C203 C199 1.397 . S
C203 C202 1.389 . S
C203 H225 0.931 1_455 S
C204 C201 1.481 . S
C204 C205 1.387 . S
C204 C209 1.390 . S
C205 C204 1.387 . S
C205 C206 1.401 . S
C205 H226 0.930 . S
C206 C205 1.401 . S
C206 C207 1.376 . S
C206 C215 1.511 . S
C207 C206 1.376 . S
C207 C208 1.392 . S
C207 H228 0.931 . S
C208 C207 1.392 . S
C208 C209 1.361 . S
C208 C210 1.500 1_455 S
C209 C204 1.390 . S
C209 C208 1.361 . S
C209 H227 0.931 . S
C210 C208 1.500 1_655 S
C210 C211 1.371 1_655 S
C210 C212 1.365 . S
C211 C210 1.371 1_455 S
C211 C221 1.386 1_455 S
C211 H229 0.931 . S
C212 C210 1.365 . S
C212 C213 1.409 . S
C212 H230 0.929 . S
C213 C212 1.409 . S
C213 C214 1.380 . S
C213 H231 0.930 . S
C214 C213 1.380 . S
C214 C221 1.357 . S
C215 C206 1.511 . S
C215 C216 1.341 . S
C215 C217 1.371 . S
C216 C215 1.341 . S
C216 C220 1.394 . S
C216 H232 0.930 . S
C217 C215 1.371 . S
C217 C218 1.392 . S
C217 H233 0.931 . S
C218 C217 1.392 . S
C218 C219 1.331 . S
C218 H236 0.932 . S
C219 C218 1.331 . S
C219 C220 1.336 . S
C220 C216 1.394 . S
C220 C219 1.336 . S
C220 H235 0.929 . S
C221 C211 1.386 1_655 S
C221 C214 1.357 . S
C221 H234 0.928 . S
H222 C198 0.931 . S
H223 C200 0.930 . S
H224 C202 0.929 1_655 S
H225 C203 0.931 1_655 S
H226 C205 0.930 . S
H227 C209 0.931 . S
H228 C207 0.931 . S
H229 C211 0.931 . S
H230 C212 0.929 . S
H231 C213 0.930 . S
H232 C216 0.930 . S
H233 C217 0.931 . S
H234 C221 0.928 . S
H235 C220 0.929 . S
H236 C218 0.932 . S
C237 C238 1.408 . S
C237 C239 1.397 . S
C237 H261 0.931 . S
C238 C237 1.408 . S
C238 C242 1.376 1_655 S
C239 C237 1.397 . S
C239 C240 1.384 . S
C239 H262 0.930 . S
C240 C239 1.384 . S
C240 C241 1.377 1_655 S
C240 C243 1.481 . S
C241 C240 1.377 1_455 S
C241 C242 1.389 . S
C241 H263 0.929 . S
C242 C238 1.376 1_455 S
C242 C241 1.389 . S
C242 H264 0.931 . S
C243 C240 1.481 . S
C243 C244 1.387 . S
C243 C248 1.390 1_655 S
C244 C243 1.387 . S
C244 C245 1.401 . S
C244 H265 0.930 . S
C245 C244 1.401 . S
C245 C246 1.386 . S
C245 C254 1.511 . S
C246 C245 1.386 . S
C246 C247 1.381 1_655 S
C246 H267 0.931 . S
C247 C246 1.381 1_455 S
C247 C248 1.361 . S
C247 C249 1.500 . S
C248 C243 1.390 1_455 S
C248 C247 1.361 . S
C248 H266 0.931 . S
C249 C247 1.500 . S
C249 C250 1.371 . S
C249 C251 1.365 . S
C250 C249 1.371 . S
C250 C260 1.386 . S
C250 H268 0.931 . S
C251 C249 1.365 . S
C251 C252 1.409 . S
C251 H269 0.929 . S
C252 C251 1.409 . S
C252 C253 1.380 . S
C252 H270 0.930 . S
C253 C252 1.380 . S
C253 C260 1.357 . S
C254 C245 1.511 . S
C254 C255 1.341 . S
C254 C256 1.371 . S
C255 C254 1.341 . S
C255 C259 1.394 . S
C255 H271 0.930 . S
C256 C254 1.371 . S
C256 C257 1.392 . S
C256 H272 0.931 . S
C257 C256 1.392 . S
C257 C258 1.331 . S
C257 H275 0.932 . S
C258 C257 1.331 . S
C258 C259 1.336 . S
C259 C255 1.394 . S
C259 C258 1.336 . S
C259 H274 0.929 . S
C260 C250 1.386 . S
C260 C253 1.357 . S
C260 H273 0.928 . S
H261 C237 0.931 . S
H262 C239 0.930 . S
H263 C241 0.929 . S
H264 C242 0.931 . S
H265 C244 0.930 . S
H266 C248 0.931 . S
H267 C246 0.931 . S
H268 C250 0.931 . S
H269 C251 0.929 . S
H270 C252 0.930 . S
H271 C255 0.930 . S
H272 C256 0.931 . S
H273 C260 0.928 . S
H274 C259 0.929 . S
H275 C257 0.932 . S
C276 C277 1.386 . S
C276 C278 1.397 . S
C276 H300 0.931 . S
C277 C276 1.386 . S
C277 C281 1.397 1_565 S
C278 C276 1.397 . S
C278 C279 1.387 1_565 S
C278 H301 0.930 . S
C279 C278 1.387 1_545 S
C279 C280 1.374 . S
C279 C282 1.481 . S
C280 C279 1.374 . S
C280 C281 1.389 . S
C280 H302 0.929 . S
C281 C277 1.397 1_545 S
C281 C280 1.389 . S
C281 H303 0.931 . S
C282 C279 1.481 . S
C282 C283 1.387 1_545 S
C282 C287 1.390 . S
C283 C282 1.387 1_565 S
C283 C284 1.401 . S
C283 H304 0.930 . S
C284 C283 1.401 . S
C284 C285 1.376 1_565 S
C284 C293 1.511 . S
C285 C284 1.376 1_545 S
C285 C286 1.392 . S
C285 H306 0.931 . S
C286 C285 1.392 . S
C286 C287 1.361 . S
C286 C288 1.500 . S
C287 C282 1.390 . S
C287 C286 1.361 . S
C287 H305 0.931 . S
C288 C286 1.500 . S
C288 C289 1.371 . S
C288 C290 1.365 . S
C289 C288 1.371 . S
C289 C299 1.386 . S
C289 H307 0.931 . S
C290 C288 1.365 . S
C290 C291 1.409 . S
C290 H308 0.929 . S
C291 C290 1.409 . S
C291 C292 1.380 . S
C291 H309 0.930 . S
C292 C291 1.380 . S
C292 C299 1.357 . S
C293 C284 1.511 . S
C293 C294 1.341 . S
C293 C295 1.371 . S
C294 C293 1.341 . S
C294 C298 1.394 . S
C294 H310 0.930 . S
C295 C293 1.371 . S
C295 C296 1.392 . S
C295 H311 0.931 . S
C296 C295 1.392 . S
C296 C297 1.331 . S
C296 H314 0.932 . S
C297 C296 1.331 . S
C297 C298 1.336 . S
C298 C294 1.394 . S
C298 C297 1.336 . S
C298 H313 0.929 . S
C299 C289 1.386 . S
C299 C292 1.357 . S
C299 H312 0.928 . S
H300 C276 0.931 . S
H301 C278 0.930 . S
H302 C280 0.929 . S
H303 C281 0.931 . S
H304 C283 0.930 . S
H305 C287 0.931 . S
H306 C285 0.931 . S
H307 C289 0.931 . S
H308 C290 0.929 . S
H309 C291 0.930 . S
H310 C294 0.930 . S
H311 C295 0.931 . S
H312 C299 0.928 . S
H313 C298 0.929 . S
H314 C296 0.932 . S
C315 C316 1.386 . S
C315 C317 1.397 . S
C315 H339 0.931 . S
C316 C315 1.386 . S
C316 C320 1.397 . S
C317 C315 1.397 . S
C317 C318 1.384 . S
C317 H340 0.930 . S
C318 C317 1.384 . S
C318 C319 1.377 . S
C318 C321 1.481 . S
C319 C318 1.377 . S
C319 C320 1.389 . S
C319 H341 0.929 . S
C320 C316 1.397 . S
C320 C319 1.389 . S
C320 H342 0.931 . S
C321 C318 1.481 . S
C321 C322 1.387 . S
C321 C326 1.390 . S
C322 C321 1.387 . S
C322 C323 1.401 . S
C322 H343 0.930 . S
C323 C322 1.401 . S
C323 C324 1.376 . S
C323 C332 1.511 . S
C324 C323 1.376 . S
C324 C325 1.392 . S
C324 H345 0.931 . S
C325 C324 1.392 . S
C325 C326 1.361 . S
C325 C327 1.500 . S
C326 C321 1.390 . S
C326 C325 1.361 . S
C326 H344 0.931 . S
C327 C325 1.500 . S
C327 C328 1.371 . S
C327 C329 1.365 . S
C328 C327 1.371 . S
C328 C338 1.386 . S
C328 H346 0.931 . S
C329 C327 1.365 . S
C329 C330 1.409 . S
C329 H347 0.929 . S
C330 C329 1.409 . S
C330 C331 1.380 . S
C330 H348 0.930 . S
C331 C330 1.380 . S
C331 C338 1.357 . S
C332 C323 1.511 . S
C332 C333 1.341 . S
C332 C334 1.371 . S
C333 C332 1.341 . S
C333 C337 1.394 . S
C333 H349 0.930 . S
C334 C332 1.371 . S
C334 C335 1.392 . S
C334 H350 0.931 . S
C335 C334 1.392 . S
C335 C336 1.331 . S
C335 H353 0.932 . S
C336 C335 1.331 . S
C336 C337 1.336 . S
C337 C333 1.394 . S
C337 C336 1.336 . S
C337 H352 0.929 . S
C338 C328 1.386 . S
C338 C331 1.357 . S
C338 H351 0.928 . S
H339 C315 0.931 . S
H340 C317 0.930 . S
H341 C319 0.929 . S
H342 C320 0.931 . S
H343 C322 0.930 . S
H344 C326 0.931 . S
H345 C324 0.931 . S
H346 C328 0.931 . S
H347 C329 0.929 . S
H348 C330 0.930 . S
H349 C333 0.930 . S
H350 C334 0.931 . S
H351 C338 0.928 . S
H352 C337 0.929 . S
H353 C335 0.932 . S
C354 C355 1.349 . S
C354 C356 1.327 . S
C354 H379 0.950 . S
C355 C354 1.349 . S
C355 C371 1.349 . S
C356 C354 1.327 . S
C356 C375 1.429 . S
C356 H380 0.950 . S
C357 C374 1.574 . S
C357 C376 1.368 . S
C357 H381 0.949 . S
H358 C362 0.949 . S
C359 C360 1.349 . S
C359 C361 1.327 . S
C359 H382 0.950 . S
C360 C359 1.349 . S
C360 C372 1.349 . S
C361 C359 1.327 . S
C361 C377 1.429 . S
C361 H383 0.950 . S
C362 H358 0.949 . S
C362 C370 1.574 . S
C362 C378 1.368 . S
H363 C371 0.950 . S
H364 C369 0.950 . S
H365 C370 0.949 . S
H366 C372 0.950 . S
H367 C373 0.950 . S
H368 C374 0.949 . S
C369 H364 0.950 . S
C369 C371 1.327 . S
C369 C375 1.429 . S
C370 C362 1.574 . S
C370 H365 0.949 . S
C370 C376 1.368 . S
C371 C355 1.349 . S
C371 H363 0.950 . S
C371 C369 1.327 . S
C372 C360 1.349 . S
C372 H366 0.950 . S
C372 C373 1.327 . S
C373 H367 0.950 . S
C373 C372 1.327 . S
C373 C377 1.429 . S
C374 C357 1.574 . S
C374 H368 0.949 . S
C374 C378 1.368 . S
C375 C356 1.429 . S
C375 C369 1.429 . S
C375 C376 1.523 . S
C376 C357 1.368 . S
C376 C370 1.368 . S
C376 C375 1.523 . S
C377 C361 1.429 . S
C377 C373 1.429 . S
C377 C378 1.523 . S
C378 C362 1.368 . S
C378 C374 1.368 . S
C378 C377 1.523 . S
H379 C354 0.950 . S
H380 C356 0.950 . S
H381 C357 0.949 . S
H382 C359 0.950 . S
H383 C361 0.950 . S
C384 C385 1.349 . S
C384 C386 1.327 . S
C384 H409 0.950 . S
C385 C384 1.349 . S
C385 C401 1.349 . S
C386 C384 1.327 . S
C386 C405 1.429 . S
C386 H410 0.950 . S
C387 C404 1.574 . S
C387 C406 1.368 . S
C387 H411 0.949 . S
H388 C392 0.949 . S
C389 C390 1.349 . S
C389 C391 1.327 . S
C389 H412 0.950 . S
C390 C389 1.349 . S
C390 C402 1.349 . S
C391 C389 1.327 . S
C391 C407 1.429 . S
C391 H413 0.950 . S
C392 H388 0.949 . S
C392 C400 1.574 . S
C392 C408 1.368 . S
H393 C401 0.950 . S
H394 C399 0.950 . S
H395 C400 0.949 . S
H396 C402 0.950 . S
H397 C403 0.950 . S
H398 C404 0.949 . S
C399 H394 0.950 . S
C399 C401 1.327 . S
C399 C405 1.429 . S
C400 C392 1.574 . S
C400 H395 0.949 . S
C400 C406 1.368 . S
C401 C385 1.349 . S
C401 H393 0.950 . S
C401 C399 1.327 . S
C402 C390 1.349 . S
C402 H396 0.950 . S
C402 C403 1.327 . S
C403 H397 0.950 . S
C403 C402 1.327 . S
C403 C407 1.429 . S
C404 C387 1.574 . S
C404 H398 0.949 . S
C404 C408 1.368 . S
C405 C386 1.429 . S
C405 C399 1.429 . S
C405 C406 1.523 . S
C406 C387 1.368 . S
C406 C400 1.368 . S
C406 C405 1.523 . S
C407 C391 1.429 . S
C407 C403 1.429 . S
C407 C408 1.523 . S
C408 C392 1.368 . S
C408 C404 1.368 . S
C408 C407 1.523 . S
H409 C384 0.950 . S
H410 C386 0.950 . S
H411 C387 0.949 . S
H412 C389 0.950 . S
H413 C391 0.950 . S
C414 C415 1.349 . S
C414 C416 1.327 . S
C414 H439 0.950 . S
C415 C414 1.349 . S
C415 C431 1.349 . S
C416 C414 1.327 . S
C416 C435 1.429 . S
C416 H440 0.950 . S
C417 C434 1.574 . S
C417 C436 1.368 . S
C417 H441 0.949 . S
H418 C422 0.949 . S
C419 C420 1.349 . S
C419 C421 1.327 . S
C419 H442 0.950 . S
C420 C419 1.349 . S
C420 C432 1.349 . S
C421 C419 1.327 . S
C421 C437 1.429 . S
C421 H443 0.950 . S
C422 H418 0.949 . S
C422 C430 1.574 . S
C422 C438 1.368 . S
H423 C431 0.950 . S
H424 C429 0.950 . S
H425 C430 0.949 . S
H426 C432 0.950 . S
H427 C433 0.950 . S
H428 C434 0.949 . S
C429 H424 0.950 . S
C429 C431 1.327 . S
C429 C435 1.429 . S
C430 C422 1.574 . S
C430 H425 0.949 . S
C430 C436 1.368 . S
C431 C415 1.349 . S
C431 H423 0.950 . S
C431 C429 1.327 . S
C432 C420 1.349 . S
C432 H426 0.950 . S
C432 C433 1.327 . S
C433 H427 0.950 . S
C433 C432 1.327 . S
C433 C437 1.429 . S
C434 C417 1.574 . S
C434 H428 0.949 . S
C434 C438 1.368 . S
C435 C416 1.429 . S
C435 C429 1.429 . S
C435 C436 1.523 . S
C436 C417 1.368 . S
C436 C430 1.368 . S
C436 C435 1.523 . S
C437 C421 1.429 . S
C437 C433 1.429 . S
C437 C438 1.523 . S
C438 C422 1.368 . S
C438 C434 1.368 . S
C438 C437 1.523 . S
H439 C414 0.950 . S
H440 C416 0.950 . S
H441 C417 0.949 . S
H442 C419 0.950 . S
H443 C421 0.950 . S
C444 C445 1.349 . S
C444 C446 1.327 . S
C444 H469 0.950 . S
C445 C444 1.349 . S
C445 C461 1.349 . S
C446 C444 1.327 . S
C446 C465 1.429 . S
C446 H470 0.950 . S
C447 C464 1.574 . S
C447 C466 1.368 . S
C447 H471 0.949 . S
H448 C452 0.949 . S
C449 C450 1.349 . S
C449 C451 1.327 . S
C449 H472 0.950 . S
C450 C449 1.349 . S
C450 C462 1.349 . S
C451 C449 1.327 . S
C451 C467 1.429 . S
C451 H473 0.950 . S
C452 H448 0.949 . S
C452 C460 1.574 . S
C452 C468 1.368 . S
H453 C461 0.950 . S
H454 C459 0.950 . S
H455 C460 0.949 . S
H456 C462 0.950 . S
H457 C463 0.950 . S
H458 C464 0.949 . S
C459 H454 0.950 . S
C459 C461 1.327 . S
C459 C465 1.429 . S
C460 C452 1.574 . S
C460 H455 0.949 . S
C460 C466 1.368 . S
C461 C445 1.349 . S
C461 H453 0.950 . S
C461 C459 1.327 . S
C462 C450 1.349 . S
C462 H456 0.950 . S
C462 C463 1.327 . S
C463 H457 0.950 . S
C463 C462 1.327 . S
C463 C467 1.429 . S
C464 C447 1.574 . S
C464 H458 0.949 . S
C464 C468 1.368 . S
C465 C446 1.429 . S
C465 C459 1.429 . S
C465 C466 1.523 . S
C466 C447 1.368 . S
C466 C460 1.368 . S
C466 C465 1.523 . S
C467 C451 1.429 . S
C467 C463 1.429 . S
C467 C468 1.523 . S
C468 C452 1.368 . S
C468 C464 1.368 . S
C468 C467 1.523 . S
H469 C444 0.950 . S
H470 C446 0.950 . S
H471 C447 0.949 . S
H472 C449 0.950 . S
H473 C451 0.950 . S
C474 C475 1.349 . S
C474 C476 1.327 . S
C474 H499 0.950 . S
C475 C474 1.349 . S
C475 C491 1.349 . S
C476 C474 1.327 . S
C476 C495 1.429 . S
C476 H500 0.950 . S
C477 C494 1.574 . S
C477 C496 1.368 . S
C477 H501 0.949 . S
H478 C482 0.949 . S
C479 C480 1.349 . S
C479 C481 1.327 . S
C479 H502 0.950 . S
C480 C479 1.349 . S
C480 C492 1.349 . S
C481 C479 1.327 . S
C481 C497 1.429 . S
C481 H503 0.950 . S
C482 H478 0.949 . S
C482 C490 1.574 . S
C482 C498 1.368 . S
H483 C491 0.950 . S
H484 C489 0.950 . S
H485 C490 0.949 . S
H486 C492 0.950 . S
H487 C493 0.950 . S
H488 C494 0.949 . S
C489 H484 0.950 . S
C489 C491 1.327 . S
C489 C495 1.429 . S
C490 C482 1.574 . S
C490 H485 0.949 . S
C490 C496 1.368 . S
C491 C475 1.349 . S
C491 H483 0.950 . S
C491 C489 1.327 . S
C492 C480 1.349 . S
C492 H486 0.950 . S
C492 C493 1.327 . S
C493 H487 0.950 . S
C493 C492 1.327 . S
C493 C497 1.429 . S
C494 C477 1.574 . S
C494 H488 0.949 . S
C494 C498 1.368 . S
C495 C476 1.429 . S
C495 C489 1.429 . S
C495 C496 1.523 . S
C496 C477 1.368 . S
C496 C490 1.368 . S
C496 C495 1.523 . S
C497 C481 1.429 . S
C497 C493 1.429 . S
C497 C498 1.523 . S
C498 C482 1.368 . S
C498 C494 1.368 . S
C498 C497 1.523 . S
H499 C474 0.950 . S
H500 C476 0.950 . S
H501 C477 0.949 . S
H502 C479 0.950 . S
H503 C481 0.950 . S
C504 C505 1.349 . S
C504 C506 1.327 . S
C504 H529 0.950 . S
C505 C504 1.349 . S
C505 C521 1.349 . S
C506 C504 1.327 . S
C506 C525 1.429 . S
C506 H530 0.950 . S
C507 C524 1.574 . S
C507 C526 1.368 . S
C507 H531 0.949 . S
H508 C512 0.949 . S
C509 C510 1.349 . S
C509 C511 1.327 . S
C509 H532 0.950 . S
C510 C509 1.349 . S
C510 C522 1.349 . S
C511 C509 1.327 . S
C511 C527 1.429 . S
C511 H533 0.950 . S
C512 H508 0.949 . S
C512 C520 1.574 . S
C512 C528 1.368 . S
H513 C521 0.950 . S
H514 C519 0.950 . S
H515 C520 0.949 . S
H516 C522 0.950 . S
H517 C523 0.950 . S
H518 C524 0.949 . S
C519 H514 0.950 . S
C519 C521 1.327 . S
C519 C525 1.429 . S
C520 C512 1.574 . S
C520 H515 0.949 . S
C520 C526 1.368 . S
C521 C505 1.349 . S
C521 H513 0.950 . S
C521 C519 1.327 . S
C522 C510 1.349 . S
C522 H516 0.950 . S
C522 C523 1.327 . S
C523 H517 0.950 . S
C523 C522 1.327 . S
C523 C527 1.429 . S
C524 C507 1.574 . S
C524 H518 0.949 . S
C524 C528 1.368 . S
C525 C506 1.429 . S
C525 C519 1.429 . S
C525 C526 1.523 . S
C526 C507 1.368 . S
C526 C520 1.368 . S
C526 C525 1.523 . S
C527 C511 1.429 . S
C527 C523 1.429 . S
C527 C528 1.523 . S
C528 C512 1.368 . S
C528 C524 1.368 . S
C528 C527 1.523 . S
H529 C504 0.950 . S
H530 C506 0.950 . S
H531 C507 0.949 . S
H532 C509 0.950 . S
H533 C511 0.950 . S
C534 C535 1.349 . S
C534 C536 1.327 . S
C534 H559 0.950 . S
C535 C534 1.349 . S
C535 C551 1.349 . S
C536 C534 1.327 . S
C536 C555 1.429 . S
C536 H560 0.950 . S
C537 C554 1.574 . S
C537 C556 1.368 . S
C537 H561 0.949 . S
H538 C542 0.949 . S
C539 C540 1.349 . S
C539 C541 1.327 . S
C539 H562 0.950 . S
C540 C539 1.349 . S
C540 C552 1.349 . S
C541 C539 1.327 . S
C541 C557 1.429 . S
C541 H563 0.950 . S
C542 H538 0.949 . S
C542 C550 1.574 . S
C542 C558 1.368 . S
H543 C551 0.950 . S
H544 C549 0.950 . S
H545 C550 0.949 . S
H546 C552 0.950 . S
H547 C553 0.950 . S
H548 C554 0.949 . S
C549 H544 0.950 . S
C549 C551 1.327 . S
C549 C555 1.429 . S
C550 C542 1.574 . S
C550 H545 0.949 . S
C550 C556 1.368 . S
C551 C535 1.349 . S
C551 H543 0.950 . S
C551 C549 1.327 . S
C552 C540 1.349 . S
C552 H546 0.950 . S
C552 C553 1.327 . S
C553 H547 0.950 . S
C553 C552 1.327 . S
C553 C557 1.429 . S
C554 C537 1.574 . S
C554 H548 0.949 . S
C554 C558 1.368 . S
C555 C536 1.429 . S
C555 C549 1.429 . S
C555 C556 1.523 . S
C556 C537 1.368 . S
C556 C550 1.368 . S
C556 C555 1.523 . S
C557 C541 1.429 . S
C557 C553 1.429 . S
C557 C558 1.523 . S
C558 C542 1.368 . S
C558 C554 1.368 . S
C558 C557 1.523 . S
H559 C534 0.950 . S
H560 C536 0.950 . S
H561 C537 0.949 . S
H562 C539 0.950 . S
H563 C541 0.950 . S
C564 C565 1.349 . S
C564 C566 1.327 . S
C564 H589 0.950 . S
C565 C564 1.349 . S
C565 C581 1.349 . S
C566 C564 1.327 . S
C566 C585 1.429 . S
C566 H590 0.950 . S
C567 C584 1.574 . S
C567 C586 1.368 . S
C567 H591 0.949 . S
H568 C572 0.949 . S
C569 C570 1.349 . S
C569 C571 1.327 . S
C569 H592 0.950 . S
C570 C569 1.349 . S
C570 C582 1.349 . S
C571 C569 1.327 . S
C571 C587 1.429 . S
C571 H593 0.950 . S
C572 H568 0.949 . S
C572 C580 1.574 . S
C572 C588 1.368 . S
H573 C581 0.950 . S
H574 C579 0.950 . S
H575 C580 0.949 . S
H576 C582 0.950 . S
H577 C583 0.950 . S
H578 C584 0.949 . S
C579 H574 0.950 . S
C579 C581 1.327 . S
C579 C585 1.429 . S
C580 C572 1.574 . S
C580 H575 0.949 . S
C580 C586 1.368 . S
C581 C565 1.349 . S
C581 H573 0.950 . S
C581 C579 1.327 . S
C582 C570 1.349 . S
C582 H576 0.950 . S
C582 C583 1.327 . S
C583 H577 0.950 . S
C583 C582 1.327 . S
C583 C587 1.429 . S
C584 C567 1.574 . S
C584 H578 0.949 . S
C584 C588 1.368 . S
C585 C566 1.429 . S
C585 C579 1.429 . S
C585 C586 1.523 . S
C586 C567 1.368 . S
C586 C580 1.368 . S
C586 C585 1.523 . S
C587 C571 1.429 . S
C587 C583 1.429 . S
C587 C588 1.523 . S
C588 C572 1.368 . S
C588 C584 1.368 . S
C588 C587 1.523 . S
H589 C564 0.950 . S
H590 C566 0.950 . S
H591 C567 0.949 . S
H592 C569 0.950 . S
H593 C571 0.950 . S
C594 C595 1.349 . S
C594 C596 1.327 . S
C594 H619 0.950 . S
C595 C594 1.349 . S
C595 C611 1.349 . S
C596 C594 1.327 . S
C596 C615 1.429 . S
C596 H620 0.950 . S
C597 C614 1.574 . S
C597 C616 1.368 . S
C597 H621 0.949 . S
H598 C602 0.949 . S
C599 C600 1.349 . S
C599 C601 1.327 . S
C599 H622 0.950 . S
C600 C599 1.349 . S
C600 C612 1.349 . S
C601 C599 1.327 . S
C601 C617 1.429 . S
C601 H623 0.950 . S
C602 H598 0.949 . S
C602 C610 1.574 . S
C602 C618 1.368 . S
H603 C611 0.950 . S
H604 C609 0.950 . S
H605 C610 0.949 . S
H606 C612 0.950 . S
H607 C613 0.950 . S
H608 C614 0.949 . S
C609 H604 0.950 . S
C609 C611 1.327 . S
C609 C615 1.429 . S
C610 C602 1.574 . S
C610 H605 0.949 . S
C610 C616 1.368 . S
C611 C595 1.349 . S
C611 H603 0.950 . S
C611 C609 1.327 . S
C612 C600 1.349 . S
C612 H606 0.950 . S
C612 C613 1.327 . S
C613 H607 0.950 . S
C613 C612 1.327 . S
C613 C617 1.429 . S
C614 C597 1.574 . S
C614 H608 0.949 . S
C614 C618 1.368 . S
C615 C596 1.429 . S
C615 C609 1.429 . S
C615 C616 1.523 . S
C616 C597 1.368 . S
C616 C610 1.368 . S
C616 C615 1.523 . S
C617 C601 1.429 . S
C617 C613 1.429 . S
C617 C618 1.523 . S
C618 C602 1.368 . S
C618 C614 1.368 . S
C618 C617 1.523 . S
H619 C594 0.950 . S
H620 C596 0.950 . S
H621 C597 0.949 . S
H622 C599 0.950 . S
H623 C601 0.950 . S
C624 C625 1.349 . S
C624 C626 1.327 . S
C624 H649 0.950 . S
C625 C624 1.349 . S
C625 C641 1.349 . S
C626 C624 1.327 . S
C626 C645 1.429 . S
C626 H650 0.950 . S
C627 C644 1.574 . S
C627 C646 1.368 . S
C627 H651 0.949 . S
H628 C632 0.949 . S
C629 C630 1.349 . S
C629 C631 1.327 . S
C629 H652 0.950 . S
C630 C629 1.349 . S
C630 C642 1.349 . S
C631 C629 1.327 . S
C631 C647 1.429 . S
C631 H653 0.950 . S
C632 H628 0.949 . S
C632 C640 1.574 . S
C632 C648 1.368 . S
H633 C641 0.950 . S
H634 C639 0.950 . S
H635 C640 0.949 . S
H636 C642 0.950 . S
H637 C643 0.950 . S
H638 C644 0.949 . S
C639 H634 0.950 . S
C639 C641 1.327 . S
C639 C645 1.429 . S
C640 C632 1.574 . S
C640 H635 0.949 . S
C640 C646 1.368 . S
C641 C625 1.349 . S
C641 H633 0.950 . S
C641 C639 1.327 . S
C642 C630 1.349 . S
C642 H636 0.950 . S
C642 C643 1.327 . S
C643 H637 0.950 . S
C643 C642 1.327 . S
C643 C647 1.429 . S
C644 C627 1.574 . S
C644 H638 0.949 . S
C644 C648 1.368 . S
C645 C626 1.429 . S
C645 C639 1.429 . S
C645 C646 1.523 . S
C646 C627 1.368 . S
C646 C640 1.368 . S
C646 C645 1.523 . S
C647 C631 1.429 . S
C647 C643 1.429 . S
C647 C648 1.523 . S
C648 C632 1.368 . S
C648 C644 1.368 . S
C648 C647 1.523 . S
H649 C624 0.950 . S
H650 C626 0.950 . S
H651 C627 0.949 . S
H652 C629 0.950 . S
H653 C631 0.950 . S
C654 C655 1.349 . S
C654 C656 1.327 . S
C654 H679 0.950 . S
C655 C654 1.349 . S
C655 C671 1.349 . S
C656 C654 1.327 . S
C656 C675 1.429 . S
C656 H680 0.950 . S
C657 C674 1.574 . S
C657 C676 1.368 . S
C657 H681 0.949 . S
H658 C662 0.949 . S
C659 C660 1.349 . S
C659 C661 1.327 . S
C659 H682 0.950 . S
C660 C659 1.349 . S
C660 C672 1.349 . S
C661 C659 1.327 . S
C661 C677 1.429 . S
C661 H683 0.950 . S
C662 H658 0.949 . S
C662 C670 1.574 . S
C662 C678 1.368 . S
H663 C671 0.950 . S
H664 C669 0.950 . S
H665 C670 0.949 . S
H666 C672 0.950 . S
H667 C673 0.950 . S
H668 C674 0.949 . S
C669 H664 0.950 . S
C669 C671 1.327 . S
C669 C675 1.429 . S
C670 C662 1.574 . S
C670 H665 0.949 . S
C670 C676 1.368 . S
C671 C655 1.349 . S
C671 H663 0.950 . S
C671 C669 1.327 . S
C672 C660 1.349 . S
C672 H666 0.950 . S
C672 C673 1.327 . S
C673 H667 0.950 . S
C673 C672 1.327 . S
C673 C677 1.429 . S
C674 C657 1.574 . S
C674 H668 0.949 . S
C674 C678 1.368 . S
C675 C656 1.429 . S
C675 C669 1.429 . S
C675 C676 1.523 . S
C676 C657 1.368 . S
C676 C670 1.368 . S
C676 C675 1.523 . S
C677 C661 1.429 . S
C677 C673 1.429 . S
C677 C678 1.523 . S
C678 C662 1.368 . S
C678 C674 1.368 . S
C678 C677 1.523 . S
H679 C654 0.950 . S
H680 C656 0.950 . S
H681 C657 0.949 . S
H682 C659 0.950 . S
H683 C661 0.950 . S
C684 C685 1.349 . S
C684 C686 1.327 . S
C684 H709 0.950 . S
C685 C684 1.349 . S
C685 C701 1.349 . S
C686 C684 1.327 . S
C686 C705 1.429 . S
C686 H710 0.950 . S
C687 C704 1.574 . S
C687 C706 1.368 . S
C687 H711 0.949 . S
H688 C692 0.949 . S
C689 C690 1.349 . S
C689 C691 1.327 . S
C689 H712 0.950 . S
C690 C689 1.349 . S
C690 C702 1.349 . S
C691 C689 1.327 . S
C691 C707 1.429 . S
C691 H713 0.950 . S
C692 H688 0.949 . S
C692 C700 1.574 . S
C692 C708 1.368 . S
H693 C701 0.950 . S
H694 C699 0.950 . S
H695 C700 0.949 . S
H696 C702 0.950 . S
H697 C703 0.950 . S
H698 C704 0.949 . S
C699 H694 0.950 . S
C699 C701 1.327 . S
C699 C705 1.429 . S
C700 C692 1.574 . S
C700 H695 0.949 . S
C700 C706 1.368 . S
C701 C685 1.349 . S
C701 H693 0.950 . S
C701 C699 1.327 . S
C702 C690 1.349 . S
C702 H696 0.950 . S
C702 C703 1.327 . S
C703 H697 0.950 . S
C703 C702 1.327 . S
C703 C707 1.429 . S
C704 C687 1.574 . S
C704 H698 0.949 . S
C704 C708 1.368 . S
C705 C686 1.429 . S
C705 C699 1.429 . S
C705 C706 1.523 . S
C706 C687 1.368 . S
C706 C700 1.368 . S
C706 C705 1.523 . S
C707 C691 1.429 . S
C707 C703 1.429 . S
C707 C708 1.523 . S
C708 C692 1.368 . S
C708 C704 1.368 . S
C708 C707 1.523 . S
H709 C684 0.950 . S
H710 C686 0.950 . S
H711 C687 0.949 . S
H712 C689 0.950 . S
H713 C691 0.950 . S
C714 C715 1.349 . S
C714 C716 1.327 . S
C714 H739 0.950 . S
C715 C714 1.349 . S
C715 C731 1.349 . S
C716 C714 1.327 . S
C716 C735 1.429 . S
C716 H740 0.950 . S
C717 C734 1.574 . S
C717 C736 1.368 . S
C717 H741 0.949 1_455 S
H718 C722 0.949 . S
C719 C720 1.349 . S
C719 C721 1.327 1_556 S
C719 H742 0.950 1_455 S
C720 C719 1.349 . S
C720 C732 1.349 . S
C721 C719 1.327 1_554 S
C721 C737 1.429 . S
C721 H743 0.950 1_455 S
C722 H718 0.949 . S
C722 C730 1.574 . S
C722 C738 1.368 . S
H723 C731 0.950 1_655 S
H724 C729 0.950 1_655 S
H725 C730 0.949 . S
H726 C732 0.950 . S
H727 C733 0.950 . S
H728 C734 0.949 1_655 S
C729 H724 0.950 1_455 S
C729 C731 1.327 . S
C729 C735 1.429 . S
C730 C722 1.574 . S
C730 H725 0.949 . S
C730 C736 1.368 . S
C731 C715 1.349 . S
C731 H723 0.950 1_455 S
C731 C729 1.327 . S
C732 C720 1.349 . S
C732 H726 0.950 . S
C732 C733 1.327 1_556 S
C733 H727 0.950 . S
C733 C732 1.327 1_554 S
C733 C737 1.429 . S
C734 C717 1.574 . S
C734 H728 0.949 1_455 S
C734 C738 1.368 . S
C735 C716 1.429 . S
C735 C729 1.429 . S
C735 C736 1.523 . S
C736 C717 1.368 . S
C736 C730 1.368 . S
C736 C735 1.523 . S
C737 C721 1.429 . S
C737 C733 1.429 . S
C737 C738 1.523 . S
C738 C722 1.368 . S
C738 C734 1.368 . S
C738 C737 1.523 . S
H739 C714 0.950 . S
H740 C716 0.950 . S
H741 C717 0.949 1_655 S
H742 C719 0.950 1_655 S
H743 C721 0.950 1_655 S
C744 C745 1.349 1_565 S
C744 C746 1.327 . S
C744 H769 0.950 . S
C745 C744 1.349 1_545 S
C745 C761 1.349 . S
C746 C744 1.327 . S
C746 C765 1.429 1_565 S
C746 H770 0.950 . S
C747 C764 1.574 . S
C747 C766 1.368 . S
C747 H771 0.949 . S
H748 C752 0.949 . S
C749 C750 1.349 . S
C749 C751 1.327 . S
C749 H772 0.950 . S
C750 C749 1.349 . S
C750 C762 1.349 1_545 S
C751 C749 1.327 . S
C751 C767 1.429 . S
C751 H773 0.950 . S
C752 H748 0.949 . S
C752 C760 1.574 . S
C752 C768 1.368 1_565 S
H753 C761 0.950 . S
H754 C759 0.950 . S
H755 C760 0.949 . S
H756 C762 0.950 . S
H757 C763 0.950 . S
H758 C764 0.949 . S
C759 H754 0.950 . S
C759 C761 1.327 . S
C759 C765 1.429 . S
C760 C752 1.574 . S
C760 H755 0.949 . S
C760 C766 1.368 1_565 S
C761 C745 1.349 . S
C761 H753 0.950 . S
C761 C759 1.327 . S
C762 C750 1.349 1_565 S
C762 H756 0.950 . S
C762 C763 1.327 . S
C763 H757 0.950 . S
C763 C762 1.327 . S
C763 C767 1.429 1_565 S
C764 C747 1.574 . S
C764 H758 0.949 . S
C764 C768 1.368 . S
C765 C746 1.429 1_545 S
C765 C759 1.429 . S
C765 C766 1.523 . S
C766 C747 1.368 . S
C766 C760 1.368 1_545 S
C766 C765 1.523 . S
C767 C751 1.429 . S
C767 C763 1.429 1_545 S
C767 C768 1.523 . S
C768 C752 1.368 1_545 S
C768 C764 1.368 . S
C768 C767 1.523 . S
H769 C744 0.950 . S
H770 C746 0.950 . S
H771 C747 0.949 . S
H772 C749 0.950 . S
H773 C751 0.950 . S
C774 C775 1.349 . S
C774 C776 1.327 . S
C774 H799 0.950 . S
C775 C774 1.349 . S
C775 C791 1.349 . S
C776 C774 1.327 . S
C776 C795 1.429 . S
C776 H800 0.950 . S
C777 C794 1.574 . S
C777 C796 1.368 . S
C777 H801 0.949 . S
H778 C782 0.949 . S
C779 C780 1.349 . S
C779 C781 1.327 . S
C779 H802 0.950 . S
C780 C779 1.349 . S
C780 C792 1.349 . S
C781 C779 1.327 . S
C781 C797 1.429 . S
C781 H803 0.950 . S
C782 H778 0.949 . S
C782 C790 1.574 . S
C782 C798 1.368 . S
H783 C791 0.950 . S
H784 C789 0.950 . S
H785 C790 0.949 . S
H786 C792 0.950 . S
H787 C793 0.950 . S
H788 C794 0.949 . S
C789 H784 0.950 . S
C789 C791 1.327 . S
C789 C795 1.429 . S
C790 C782 1.574 . S
C790 H785 0.949 . S
C790 C796 1.368 . S
C791 C775 1.349 . S
C791 H783 0.950 . S
C791 C789 1.327 . S
C792 C780 1.349 . S
C792 H786 0.950 . S
C792 C793 1.327 . S
C793 H787 0.950 . S
C793 C792 1.327 . S
C793 C797 1.429 . S
C794 C777 1.574 . S
C794 H788 0.949 . S
C794 C798 1.368 . S
C795 C776 1.429 . S
C795 C789 1.429 . S
C795 C796 1.523 . S
C796 C777 1.368 . S
C796 C790 1.368 . S
C796 C795 1.523 . S
C797 C781 1.429 . S
C797 C793 1.429 . S
C797 C798 1.523 . S
C798 C782 1.368 . S
C798 C794 1.368 . S
C798 C797 1.523 . S
H799 C774 0.950 . S
H800 C776 0.950 . S
H801 C777 0.949 . S
H802 C779 0.950 . S
H803 C781 0.950 . S
C804 C805 1.349 . S
C804 C806 1.327 . S
C804 H829 0.950 . S
C805 C804 1.349 . S
C805 C821 1.349 1_545 S
C806 C804 1.327 . S
C806 C825 1.429 . S
C806 H830 0.950 . S
C807 C824 1.574 . S
C807 C826 1.368 1_565 S
C807 H831 0.949 . S
H808 C812 0.949 . S
C809 C810 1.349 . S
C809 C811 1.327 . S
C809 H832 0.950 . S
C810 C809 1.349 . S
C810 C822 1.349 1_565 S
C811 C809 1.327 . S
C811 C827 1.408 1_565 S
C811 H833 0.950 . S
C812 H808 0.949 . S
C812 C820 1.574 . S
C812 C828 1.368 . S
H813 C821 0.950 . S
H814 C819 0.950 . S
H815 C820 0.949 . S
H816 C822 0.950 . S
H817 C823 0.950 . S
H818 C824 0.949 . S
C819 H814 0.950 . S
C819 C821 1.327 . S
C819 C825 1.429 1_565 S
C820 C812 1.574 . S
C820 H815 0.949 . S
C820 C826 1.368 . S
C821 C805 1.349 1_565 S
C821 H813 0.950 . S
C821 C819 1.327 . S
C822 C810 1.349 1_545 S
C822 H816 0.950 . S
C822 C823 1.327 . S
C823 H817 0.950 . S
C823 C822 1.327 . S
C823 C827 1.447 . S
C824 C807 1.574 . S
C824 H818 0.949 . S
C824 C828 1.368 1_565 S
C825 C806 1.429 . S
C825 C819 1.429 1_545 S
C825 C826 1.523 . S
C826 C807 1.368 1_545 S
C826 C820 1.368 . S
C826 C825 1.523 . S
C827 C811 1.408 1_545 S
C827 C823 1.447 . S
C827 C828 1.525 . S
C828 C812 1.368 . S
C828 C824 1.368 1_545 S
C828 C827 1.525 . S
H829 C804 0.950 . S
H830 C806 0.950 . S
H831 C807 0.949 . S
H832 C809 0.950 . S
H833 C811 0.950 . S
C834 C835 1.349 . S
C834 C836 1.327 . S
C834 H859 0.950 . S
C835 C834 1.349 . S
C835 C851 1.349 . S
C836 C834 1.327 . S
C836 C855 1.429 . S
C836 H860 0.950 . S
C837 C854 1.574 . S
C837 C856 1.368 . S
C837 H861 0.949 . S
H838 C842 0.949 . S
C839 C840 1.349 . S
C839 C841 1.327 1_554 S
C839 H862 0.950 . S
C840 C839 1.349 . S
C840 C852 1.349 . S
C841 C839 1.327 1_556 S
C841 C857 1.429 . S
C841 H863 0.950 . S
C842 H838 0.949 . S
C842 C850 1.574 . S
C842 C858 1.368 . S
H843 C851 0.950 . S
H844 C849 0.950 . S
H845 C850 0.949 . S
H846 C852 0.950 . S
H847 C853 0.950 . S
H848 C854 0.949 . S
C849 H844 0.950 . S
C849 C851 1.327 . S
C849 C855 1.429 . S
C850 C842 1.574 . S
C850 H845 0.949 . S
C850 C856 1.368 . S
C851 C835 1.349 . S
C851 H843 0.950 . S
C851 C849 1.327 . S
C852 C840 1.349 . S
C852 H846 0.950 . S
C852 C853 1.327 1_554 S
C853 H847 0.950 . S
C853 C852 1.327 1_556 S
C853 C857 1.429 . S
C854 C837 1.574 . S
C854 H848 0.949 . S
C854 C858 1.368 . S
C855 C836 1.429 . S
C855 C849 1.429 . S
C855 C856 1.523 . S
C856 C837 1.368 . S
C856 C850 1.368 . S
C856 C855 1.523 . S
C857 C841 1.429 . S
C857 C853 1.429 . S
C857 C858 1.523 . S
C858 C842 1.368 . S
C858 C854 1.368 . S
C858 C857 1.523 . S
H859 C834 0.950 . S
H860 C836 0.950 . S
H861 C837 0.949 . S
H862 C839 0.950 . S
H863 C841 0.950 . S
C864 C865 1.349 . S
C864 C866 1.327 . S
C864 H889 0.950 . S
C865 C864 1.349 . S
C865 C881 1.349 . S
C866 C864 1.327 . S
C866 C885 1.429 . S
C866 H890 0.950 . S
C867 C884 1.574 . S
C867 C886 1.368 . S
C867 H891 0.949 . S
H868 C872 0.949 . S
C869 C870 1.355 . S
C869 C871 1.330 . S
C869 H892 0.921 1_455 S
C870 C869 1.355 . S
C870 C882 1.368 . S
C871 C869 1.330 . S
C871 C887 1.429 . S
C871 H893 0.950 . S
C872 H868 0.949 . S
C872 C880 1.574 . S
C872 C888 1.368 . S
H873 C881 0.950 . S
H874 C879 0.950 . S
H875 C880 0.949 . S
H876 C882 0.950 . S
H877 C883 0.950 . S
H878 C884 0.949 . S
C879 H874 0.950 . S
C879 C881 1.327 . S
C879 C885 1.429 . S
C880 C872 1.574 . S
C880 H875 0.949 . S
C880 C886 1.368 . S
C881 C865 1.349 . S
C881 H873 0.950 . S
C881 C879 1.327 . S
C882 C870 1.368 . S
C882 H876 0.950 . S
C882 C883 1.327 . S
C883 H877 0.950 . S
C883 C882 1.327 . S
C883 C887 1.429 . S
C884 C867 1.574 . S
C884 H878 0.949 . S
C884 C888 1.368 . S
C885 C866 1.429 . S
C885 C879 1.429 . S
C885 C886 1.523 . S
C886 C867 1.368 . S
C886 C880 1.368 . S
C886 C885 1.523 . S
C887 C871 1.429 . S
C887 C883 1.429 . S
C887 C888 1.523 . S
C888 C872 1.368 . S
C888 C884 1.368 . S
C888 C887 1.523 . S
H889 C864 0.950 . S
H890 C866 0.950 . S
H891 C867 0.949 . S
H892 C869 0.921 1_655 S
H893 C871 0.950 . S
C355 C7 0.474 . S
C360 C331 0.461 . S
C385 C51 1.872 . S
C390 C258 1.842 . S
C415 C87 1.158 . S
C420 C297 1.159 . S
C445 C16 0.324 . S
C450 C336 0.229 . S
C480 C253 1.940 . S
C475 C42 1.970 . S
C510 C292 1.269 . S
C505 C96 1.269 . S
C535 C47 1.161 . S
C540 C180 1.161 . S
C565 C91 3.082 . S
C570 C214 3.038 . S
C595 C2 1.999 . S
C600 C136 1.976 . S
C630 C175 1.250 . S
C625 C56 1.245 . S
C660 C219 2.902 . S
C655 C82 2.921 . S
C685 C11 1.862 . S
C690 C141 1.838 . S
C720 C199 1.762 . S
C715 C19 1.701 . S
C745 C50 1.344 . S
C750 C121 1.384 . S
C775 C99 1.463 . S
C780 C160 1.510 . S
C810 C277 1.491 . S
C805 C59 1.453 . S
C840 C316 1.121 . S
C835 C90 1.104 . S
C865 C10 1.341 . S
C870 C238 1.373 1_455 S
