# Generated by pormake.
# Topology eea, (3,6)-cn, num edge types: 1
# Building blocks:
#     Node 0, Type 0, BuildingBlock: BELTOD_clean_linker_0, # of connection points: 3
#     Node 1, Type 0, BuildingBlock: BELTOD_clean_linker_0, # of connection points: 3
#     Node 2, Type 0, BuildingBlock: BELTOD_clean_linker_0, # of connection points: 3
#     Node 3, Type 0, BuildingBlock: BELTOD_clean_linker_0, # of connection points: 3
#     Node 4, Type 0, BuildingBlock: BELTOD_clean_linker_0, # of connection points: 3
#     Node 5, Type 0, BuildingBlock: BELTOD_clean_linker_0, # of connection points: 3
#     Node 6, Type 0, BuildingBlock: BELTOD_clean_linker_0, # of connection points: 3
#     Node 7, Type 0, BuildingBlock: BELTOD_clean_linker_0, # of connection points: 3
#     Node 8, Type 0, BuildingBlock: BELTOD_clean_linker_0, # of connection points: 3
#     Node 9, Type 0, BuildingBlock: BELTOD_clean_linker_0, # of connection points: 3
#     Node 10, Type 0, BuildingBlock: BELTOD_clean_linker_0, # of connection points: 3
#     Node 11, Type 0, BuildingBlock: BELTOD_clean_linker_0, # of connection points: 3
#     Node 12, Type 0, BuildingBlock: BELTOD_clean_linker_0, # of connection points: 3
#     Node 13, Type 0, BuildingBlock: BELTOD_clean_linker_0, # of connection points: 3
#     Node 14, Type 0, BuildingBlock: BELTOD_clean_linker_0, # of connection points: 3
#     Node 15, Type 0, BuildingBlock: BELTOD_clean_linker_0, # of connection points: 3
#     Node 16, Type 0, BuildingBlock: BELTOD_clean_linker_0, # of connection points: 3
#     Node 17, Type 0, BuildingBlock: BELTOD_clean_linker_0, # of connection points: 3
#     Node 18, Type 1, BuildingBlock: NUHQIS_clean_sbu_0, # of connection points: 6
#     Node 19, Type 1, BuildingBlock: NUHQIS_clean_sbu_0, # of connection points: 6
#     Node 20, Type 1, BuildingBlock: NUHQIS_clean_sbu_0, # of connection points: 6
#     Node 21, Type 1, BuildingBlock: NUHQIS_clean_sbu_0, # of connection points: 6
#     Node 22, Type 1, BuildingBlock: NUHQIS_clean_sbu_0, # of connection points: 6
#     Node 23, Type 1, BuildingBlock: NUHQIS_clean_sbu_0, # of connection points: 6
#     Node 24, Type 1, BuildingBlock: NUHQIS_clean_sbu_0, # of connection points: 6
#     Node 25, Type 1, BuildingBlock: NUHQIS_clean_sbu_0, # of connection points: 6
#     Node 26, Type 1, BuildingBlock: NUHQIS_clean_sbu_0, # of connection points: 6
#     Edge 27, Type (0, 1), BuildingBlock: XIVTED_clean_linker_0, # of connection points: 2
#     Edge 28, Type (0, 1), BuildingBlock: XIVTED_clean_linker_0, # of connection points: 2
#     Edge 29, Type (0, 1), BuildingBlock: XIVTED_clean_linker_0, # of connection points: 2
#     Edge 30, Type (0, 1), BuildingBlock: XIVTED_clean_linker_0, # of connection points: 2
#     Edge 31, Type (0, 1), BuildingBlock: XIVTED_clean_linker_0, # of connection points: 2
#     Edge 32, Type (0, 1), BuildingBlock: XIVTED_clean_linker_0, # of connection points: 2
#     Edge 33, Type (0, 1), BuildingBlock: XIVTED_clean_linker_0, # of connection points: 2
#     Edge 34, Type (0, 1), BuildingBlock: XIVTED_clean_linker_0, # of connection points: 2
#     Edge 35, Type (0, 1), BuildingBlock: XIVTED_clean_linker_0, # of connection points: 2
#     Edge 36, Type (0, 1), BuildingBlock: XIVTED_clean_linker_0, # of connection points: 2
#     Edge 37, Type (0, 1), BuildingBlock: XIVTED_clean_linker_0, # of connection points: 2
#     Edge 38, Type (0, 1), BuildingBlock: XIVTED_clean_linker_0, # of connection points: 2
#     Edge 39, Type (0, 1), BuildingBlock: XIVTED_clean_linker_0, # of connection points: 2
#     Edge 40, Type (0, 1), BuildingBlock: XIVTED_clean_linker_0, # of connection points: 2
#     Edge 41, Type (0, 1), BuildingBlock: XIVTED_clean_linker_0, # of connection points: 2
#     Edge 42, Type (0, 1), BuildingBlock: XIVTED_clean_linker_0, # of connection points: 2
#     Edge 43, Type (0, 1), BuildingBlock: XIVTED_clean_linker_0, # of connection points: 2
#     Edge 44, Type (0, 1), BuildingBlock: XIVTED_clean_linker_0, # of connection points: 2
#     Edge 45, Type (0, 1), BuildingBlock: XIVTED_clean_linker_0, # of connection points: 2
#     Edge 46, Type (0, 1), BuildingBlock: XIVTED_clean_linker_0, # of connection points: 2
#     Edge 47, Type (0, 1), BuildingBlock: XIVTED_clean_linker_0, # of connection points: 2
#     Edge 48, Type (0, 1), BuildingBlock: XIVTED_clean_linker_0, # of connection points: 2
#     Edge 49, Type (0, 1), BuildingBlock: XIVTED_clean_linker_0, # of connection points: 2
#     Edge 50, Type (0, 1), BuildingBlock: XIVTED_clean_linker_0, # of connection points: 2
#     Edge 51, Type (0, 1), BuildingBlock: XIVTED_clean_linker_0, # of connection points: 2
#     Edge 52, Type (0, 1), BuildingBlock: XIVTED_clean_linker_0, # of connection points: 2
#     Edge 53, Type (0, 1), BuildingBlock: XIVTED_clean_linker_0, # of connection points: 2
#     Edge 54, Type (0, 1), BuildingBlock: XIVTED_clean_linker_0, # of connection points: 2
#     Edge 55, Type (0, 1), BuildingBlock: XIVTED_clean_linker_0, # of connection points: 2
#     Edge 56, Type (0, 1), BuildingBlock: XIVTED_clean_linker_0, # of connection points: 2
#     Edge 57, Type (0, 1), BuildingBlock: XIVTED_clean_linker_0, # of connection points: 2
#     Edge 58, Type (0, 1), BuildingBlock: XIVTED_clean_linker_0, # of connection points: 2
#     Edge 59, Type (0, 1), BuildingBlock: XIVTED_clean_linker_0, # of connection points: 2
#     Edge 60, Type (0, 1), BuildingBlock: XIVTED_clean_linker_0, # of connection points: 2
#     Edge 61, Type (0, 1), BuildingBlock: XIVTED_clean_linker_0, # of connection points: 2
#     Edge 62, Type (0, 1), BuildingBlock: XIVTED_clean_linker_0, # of connection points: 2
#     Edge 63, Type (0, 1), BuildingBlock: XIVTED_clean_linker_0, # of connection points: 2
#     Edge 64, Type (0, 1), BuildingBlock: XIVTED_clean_linker_0, # of connection points: 2
#     Edge 65, Type (0, 1), BuildingBlock: XIVTED_clean_linker_0, # of connection points: 2
#     Edge 66, Type (0, 1), BuildingBlock: XIVTED_clean_linker_0, # of connection points: 2
#     Edge 67, Type (0, 1), BuildingBlock: XIVTED_clean_linker_0, # of connection points: 2
#     Edge 68, Type (0, 1), BuildingBlock: XIVTED_clean_linker_0, # of connection points: 2
#     Edge 69, Type (0, 1), BuildingBlock: XIVTED_clean_linker_0, # of connection points: 2
#     Edge 70, Type (0, 1), BuildingBlock: XIVTED_clean_linker_0, # of connection points: 2
#     Edge 71, Type (0, 1), BuildingBlock: XIVTED_clean_linker_0, # of connection points: 2
#     Edge 72, Type (0, 1), BuildingBlock: XIVTED_clean_linker_0, # of connection points: 2
#     Edge 73, Type (0, 1), BuildingBlock: XIVTED_clean_linker_0, # of connection points: 2
#     Edge 74, Type (0, 1), BuildingBlock: XIVTED_clean_linker_0, # of connection points: 2
#     Edge 75, Type (0, 1), BuildingBlock: XIVTED_clean_linker_0, # of connection points: 2
#     Edge 76, Type (0, 1), BuildingBlock: XIVTED_clean_linker_0, # of connection points: 2
#     Edge 77, Type (0, 1), BuildingBlock: XIVTED_clean_linker_0, # of connection points: 2
#     Edge 78, Type (0, 1), BuildingBlock: XIVTED_clean_linker_0, # of connection points: 2
#     Edge 79, Type (0, 1), BuildingBlock: XIVTED_clean_linker_0, # of connection points: 2
#     Edge 80, Type (0, 1), BuildingBlock: XIVTED_clean_linker_0, # of connection points: 2
# Relax obj value: 0.032
# Max RMSD: 0.128
# Mean RMSD: 0.081
data_MOF--net-eea--node1-NUHQIS_clean_sbu_0--node2-BELTOD_clean_linker_0--edge1-XIVTED_clean_linker_0
_symmetry_space_group_name_H-M    P1
_symmetry_Int_Tables_number       1
_symmetry_cell_setting            triclinic
loop_
_symmetry_equiv_pos_as_xyz
'x, y, z'
_cell_length_a     58.878271
_cell_length_b     58.687565
_cell_length_c     83.640164
_cell_angle_alpha  93.432079
_cell_angle_beta   93.544009
_cell_angle_gamma 119.58355
loop_
_atom_site_label
_atom_site_type_symbol
_atom_site_fract_x
_atom_site_fract_y
_atom_site_fract_z
_atom_type_partial_charge
P0 P 0.33488 0.16412 0.40595 0.0
H1 H 0.33361 0.1322 0.37733 0.0
H2 H 0.30644 0.08521 0.3681 0.0
H3 H 0.26676 0.07329 0.41125 0.0
H4 H 0.29433 0.11989 0.42049 0.0
H5 H 0.35227 0.21667 0.39606 0.0
H6 H 0.32832 0.23825 0.38633 0.0
H7 H 0.25482 0.16695 0.38935 0.0
H8 H 0.27876 0.14556 0.39883 0.0
H9 H 0.36228 0.14962 0.42965 0.0
H10 H 0.31604 0.18818 0.42988 0.0
O11 O 0.36431 0.1769 0.3991 0.0
H12 H 0.36451 0.1514 0.45905 0.0
H13 H 0.31799 0.18979 0.45915 0.0
C14 C 0.3164 0.12935 0.39974 0.0
C15 C 0.31933 0.11933 0.38488 0.0
C16 C 0.3036 0.09254 0.37956 0.0
C17 C 0.28449 0.07546 0.38898 0.0
C18 C 0.28164 0.08574 0.40386 0.0
C19 C 0.29742 0.11243 0.40916 0.0
C20 C 0.31734 0.17936 0.39781 0.0
C21 C 0.33102 0.20563 0.39441 0.0
C22 C 0.3173 0.21797 0.38898 0.0
C23 C 0.28967 0.20423 0.38698 0.0
C24 C 0.27609 0.1779 0.39044 0.0
C25 C 0.2898 0.16564 0.3959 0.0
C26 C 0.33918 0.1689 0.4276 0.0
C27 C 0.35292 0.15878 0.43605 0.0
C28 C 0.35397 0.15959 0.45281 0.0
C29 C 0.34131 0.17062 0.4614 0.0
C30 C 0.32815 0.18141 0.45289 0.0
C31 C 0.32699 0.18044 0.43612 0.0
P32 P 0.91215 0.10932 0.44549 0.0
H33 H 0.90485 0.06757 0.42183 0.0
H34 H 0.86643 0.03246 0.40527 0.0
H35 H 0.81864 0.06294 0.4238 0.0
H36 H 0.85709 0.09762 0.44062 0.0
H37 H 0.96743 0.14724 0.45295 0.0
H38 H 0.00035 0.17906 0.43751 0.0
H39 H 0.94045 0.15894 0.39807 0.0
H40 H 0.90762 0.12664 0.41359 0.0
H41 H 0.90618 0.09898 0.47905 0.0
H42 H 0.89785 0.15072 0.44771 0.0
O43 O 0.92709 0.09402 0.45331 0.0
H44 H 0.8937 0.11774 0.50132 0.0
H45 H 0.88496 0.16953 0.47008 0.0
C46 C 0.88376 0.08491 0.43262 0.0
C47 C 0.8861 0.0667 0.42228 0.0
C48 C 0.86413 0.04677 0.41272 0.0
C49 C 0.83939 0.0448 0.41324 0.0
C50 C 0.83731 0.06364 0.4233 0.0
C51 C 0.85934 0.08358 0.43289 0.0
C52 C 0.93525 0.13435 0.43433 0.0
C53 C 0.96137 0.14979 0.44101 0.0
C54 C 0.98014 0.16812 0.43218 0.0
C55 C 0.97308 0.17153 0.41649 0.0
C56 C 0.94661 0.15651 0.41001 0.0
C57 C 0.9278 0.13812 0.4189 0.0
C58 C 0.90334 0.12378 0.46182 0.0
C59 C 0.90186 0.11455 0.47698 0.0
C60 C 0.89475 0.12531 0.48972 0.0
C61 C 0.88859 0.14525 0.48746 0.0
C62 C 0.88961 0.15417 0.47214 0.0
C63 C 0.89709 0.14358 0.45941 0.0
P64 P 0.85072 0.7135 0.41998 0.0
H65 H 0.85812 0.74861 0.39508 0.0
H66 H 0.83432 0.7706 0.38632 0.0
H67 H 0.78546 0.74201 0.42516 0.0
H68 H 0.80996 0.72085 0.43418 0.0
H69 H 0.87782 0.69423 0.39984 0.0
H70 H 0.92122 0.71578 0.39024 0.0
H71 H 0.94053 0.78813 0.41857 0.0
H72 H 0.89654 0.7666 0.42785 0.0
H73 H 0.80878 0.6729 0.43544 0.0
H74 H 0.88678 0.73791 0.45009 0.0
O75 O 0.83301 0.68507 0.4083 0.0
H76 H 0.80371 0.66242 0.46317 0.0
H77 H 0.88223 0.72704 0.4779 0.0
C78 C 0.83623 0.73348 0.41548 0.0
C79 C 0.84278 0.74766 0.40199 0.0
C80 C 0.8289 0.75998 0.39687 0.0
C81 C 0.80782 0.75793 0.40496 0.0
C82 C 0.80179 0.7443 0.41876 0.0
C83 C 0.8158 0.73209 0.42392 0.0
C84 C 0.88394 0.72879 0.41459 0.0
C85 C 0.89134 0.71468 0.40409 0.0
C86 C 0.91613 0.72702 0.39855 0.0
C87 C 0.93413 0.75363 0.4036 0.0
C88 C 0.92704 0.76755 0.41456 0.0
C89 C 0.902 0.75527 0.41989 0.0
C90 C 0.84829 0.70593 0.44061 0.0
C91 C 0.825 0.68472 0.44461 0.0
C92 C 0.82217 0.67868 0.46051 0.0
C93 C 0.84266 0.69369 0.47281 0.0
C94 C 0.86596 0.71516 0.46877 0.0
C95 C 0.86869 0.72129 0.45281 0.0
P96 P 0.12444 0.28348 0.60306 0.0
H97 H 0.10473 0.27118 0.63412 0.0
H98 H 0.06078 0.25145 0.64289 0.0
H99 H 0.02758 0.23696 0.59327 0.0
H100 H 0.0718 0.25745 0.58468 0.0
H101 H 0.18035 0.30267 0.6091 0.0
H102 H 0.20577 0.28144 0.61613 0.0
H103 H 0.13388 0.20654 0.61368 0.0
H104 H 0.10856 0.22815 0.6069 0.0
H105 H 0.12995 0.32771 0.58609 0.0
H106 H 0.12147 0.25129 0.57387 0.0
O107 O 0.13956 0.31279 0.61398 0.0
H108 H 0.13618 0.33739 0.55818 0.0
H109 H 0.12802 0.26094 0.54588 0.0
C110 C 0.09154 0.26594 0.60879 0.0
C111 C 0.08794 0.26353 0.62513 0.0
C112 C 0.06274 0.25206 0.63011 0.0
C113 C 0.04052 0.24266 0.61881 0.0
C114 C 0.04423 0.24436 0.60234 0.0
C115 C 0.06953 0.25593 0.59738 0.0
C116 C 0.1426 0.26709 0.60787 0.0
C117 C 0.17007 0.28169 0.61013 0.0
C118 C 0.1846 0.26945 0.61399 0.0
C119 C 0.17188 0.24228 0.61555 0.0
C120 C 0.14427 0.22758 0.61285 0.0
C121 C 0.12976 0.23988 0.60896 0.0
C122 C 0.12577 0.289 0.58209 0.0
C123 C 0.12934 0.31296 0.57738 0.0
C124 C 0.13303 0.31852 0.56142 0.0
C125 C 0.13301 0.3001 0.54984 0.0
C126 C 0.12811 0.27554 0.55448 0.0
C127 C 0.1245 0.27004 0.57049 0.0
P128 P 0.78876 0.90239 0.59082 0.0
H129 H 0.82238 0.94478 0.61573 0.0
H130 H 0.8165 0.97789 0.63116 0.0
H131 H 0.73681 0.94224 0.60867 0.0
H132 H 0.7428 0.90917 0.59332 0.0
H133 H 0.78913 0.85467 0.58023 0.0
H134 H 0.78759 0.8189 0.59451 0.0
H135 H 0.77628 0.85331 0.63831 0.0
H136 H 0.77817 0.88915 0.62401 0.0
H137 H 0.79467 0.92647 0.56093 0.0
H138 H 0.73625 0.85742 0.58029 0.0
O139 O 0.8199 0.91791 0.58662 0.0
H140 H 0.76566 0.91501 0.53607 0.0
H141 H 0.70676 0.84599 0.55552 0.0
C142 C 0.78331 0.92505 0.60308 0.0
C143 C 0.80361 0.94403 0.61421 0.0
C144 C 0.80013 0.96275 0.62312 0.0
C145 C 0.77625 0.96273 0.62101 0.0
C146 C 0.75553 0.9429 0.61036 0.0
C147 C 0.75897 0.92405 0.60156 0.0
C148 C 0.78373 0.87448 0.60103 0.0
C149 C 0.7859 0.85425 0.59284 0.0
C150 C 0.7849 0.83377 0.60101 0.0
C151 C 0.78188 0.83334 0.61755 0.0
C152 C 0.77892 0.85329 0.6256 0.0
C153 C 0.77987 0.87373 0.6174 0.0
C154 C 0.76783 0.89244 0.57223 0.0
C155 C 0.77565 0.90869 0.55974 0.0
C156 C 0.75891 0.90227 0.54563 0.0
C157 C 0.73387 0.8796 0.54383 0.0
C158 C 0.72606 0.86337 0.55645 0.0
C159 C 0.74289 0.86985 0.57058 0.0
P160 P 0.13597 0.82824 0.60934 0.0
H161 H 0.13551 0.85776 0.63852 0.0
H162 H 0.15753 0.90483 0.64756 0.0
H163 H 0.19391 0.92211 0.60317 0.0
H164 H 0.1713 0.87535 0.59405 0.0
H165 H 0.10526 0.77835 0.62284 0.0
H166 H 0.06132 0.75682 0.63181 0.0
H167 H 0.04984 0.81985 0.61669 0.0
H168 H 0.09397 0.8414 0.60781 0.0
H169 H 0.17455 0.82519 0.5906 0.0
H170 H 0.09957 0.82083 0.58115 0.0
O171 O 0.15327 0.81682 0.61906 0.0
H172 H 0.17849 0.82312 0.5617 0.0
H173 H 0.10339 0.8187 0.55224 0.0
C174 C 0.15133 0.86301 0.6155 0.0
C175 C 0.14797 0.87174 0.63066 0.0
C176 C 0.16076 0.89865 0.63587 0.0
C177 C 0.17745 0.9173 0.62607 0.0
C178 C 0.18081 0.90837 0.61089 0.0
C179 C 0.16793 0.8815 0.60568 0.0
C180 C 0.10295 0.81162 0.61487 0.0
C181 C 0.0933 0.78753 0.62143 0.0
C182 C 0.06822 0.77527 0.62658 0.0
C183 C 0.05225 0.78677 0.62506 0.0
C184 C 0.06166 0.81048 0.61795 0.0
C185 C 0.08687 0.82285 0.61294 0.0
C186 C 0.13656 0.82268 0.58802 0.0
C187 C 0.15869 0.82326 0.5823 0.0
C188 C 0.16105 0.82234 0.5658 0.0
C189 C 0.14126 0.82079 0.55473 0.0
C190 C 0.1188 0.81959 0.56048 0.0
C191 C 0.1166 0.82079 0.57702 0.0
P192 P 0.00452 0.51841 0.74151 0.0
H193 H 0.01928 0.48249 0.72536 0.0
H194 H 0.99382 0.43571 0.71528 0.0
H195 H 0.924 0.43228 0.73151 0.0
H196 H 0.94944 0.47898 0.74128 0.0
H197 H 0.00319 0.5652 0.75449 0.0
H198 H 0.9778 0.58573 0.74561 0.0
H199 H 0.94405 0.52876 0.7035 0.0
H200 H 0.96996 0.50894 0.7122 0.0
H201 H 0.04504 0.52326 0.76578 0.0
H202 H 0.96762 0.51412 0.76453 0.0
O203 O 0.03454 0.53261 0.73543 0.0
H204 H 0.0464 0.52157 0.79499 0.0
H205 H 0.96865 0.51206 0.79358 0.0
C206 C 0.98614 0.48419 0.73389 0.0
C207 C 0.99848 0.47167 0.72666 0.0
C208 C 0.98394 0.44492 0.72099 0.0
C209 C 0.95686 0.43035 0.72252 0.0
C210 C 0.9447 0.44304 0.7299 0.0
C211 C 0.95926 0.46969 0.73559 0.0
C212 C 0.98774 0.535 0.7343 0.0
C213 C 0.99033 0.55719 0.74335 0.0
C214 C 0.97572 0.56881 0.73829 0.0
C215 C 0.95857 0.55862 0.72398 0.0
C216 C 0.95708 0.53716 0.71457 0.0
C217 C 0.97172 0.52562 0.71962 0.0
C218 C 0.00652 0.51948 0.76308 0.0
C219 C 0.02849 0.52122 0.77182 0.0
C220 C 0.02913 0.52 0.78848 0.0
C221 C 0.00768 0.51682 0.7966 0.0
C222 C 0.98568 0.51502 0.78773 0.0
C223 C 0.98505 0.51615 0.77111 0.0
P224 P 0.57536 0.44252 0.77453 0.0
H225 H 0.57193 0.41816 0.74241 0.0
H226 H 0.53538 0.38327 0.72446 0.0
H227 H 0.48205 0.37723 0.75945 0.0
H228 H 0.51834 0.41281 0.77688 0.0
H229 H 0.6298 0.48259 0.78334 0.0
H230 H 0.66203 0.51781 0.76917 0.0
H231 H 0.60205 0.49935 0.73017 0.0
H232 H 0.56974 0.46442 0.74457 0.0
H233 H 0.56605 0.42437 0.80632 0.0
H234 H 0.55837 0.48148 0.77988 0.0
O235 O 0.5919 0.42794 0.78099 0.0
H236 H 0.54648 0.43416 0.82863 0.0
H237 H 0.53827 0.49122 0.80222 0.0
C238 C 0.54788 0.41846 0.76085 0.0
C239 C 0.55226 0.40965 0.74605 0.0
C240 C 0.53135 0.3895 0.73587 0.0
C241 C 0.50569 0.37733 0.7405 0.0
C242 C 0.5014 0.38643 0.75532 0.0
C243 C 0.52229 0.40678 0.7654 0.0
C244 C 0.59761 0.47048 0.76482 0.0
C245 C 0.62353 0.48632 0.77182 0.0
C246 C 0.64189 0.50649 0.76374 0.0
C247 C 0.6346 0.51108 0.74847 0.0
C248 C 0.60828 0.49591 0.7418 0.0
C249 C 0.58983 0.47595 0.75001 0.0
C250 C 0.56411 0.45258 0.79161 0.0
C251 C 0.56049 0.43933 0.80542 0.0
C252 C 0.549 0.44473 0.8181 0.0
C253 C 0.54065 0.46334 0.81715 0.0
C254 C 0.54472 0.47696 0.80337 0.0
C255 C 0.55621 0.47146 0.79062 0.0
P256 P 0.52524 0.05213 0.75492 0.0
H257 H 0.50198 0.05096 0.7231 0.0
H258 H 0.47577 0.06967 0.71292 0.0
H259 H 0.48414 0.10768 0.76056 0.0
H260 H 0.51001 0.08824 0.77072 0.0
H261 H 0.55692 0.0347 0.73816 0.0
H262 H 0.60026 0.05822 0.72877 0.0
H263 H 0.61073 0.13169 0.75078 0.0
H264 H 0.56684 0.10785 0.76015 0.0
H265 H 0.48029 0.02307 0.77229 0.0
H266 H 0.56416 0.07079 0.78382 0.0
O267 O 0.51051 0.02188 0.74517 0.0
H268 H 0.47553 0.01215 0.80007 0.0
H269 H 0.55952 0.05994 0.81175 0.0
C270 C 0.5075 0.06782 0.74769 0.0
C271 C 0.4982 0.06335 0.73135 0.0
C272 C 0.48336 0.07427 0.72553 0.0
C273 C 0.47772 0.09017 0.73592 0.0
C274 C 0.48773 0.09519 0.75227 0.0
C275 C 0.50262 0.08419 0.75809 0.0
C276 C 0.55852 0.06956 0.74971 0.0
C277 C 0.56848 0.05584 0.74107 0.0
C278 C 0.59327 0.06933 0.73564 0.0
C279 C 0.60877 0.09683 0.73887 0.0
C280 C 0.59923 0.11048 0.74813 0.0
C281 C 0.57418 0.09693 0.75344 0.0
C282 C 0.52253 0.04767 0.77599 0.0
C283 C 0.49766 0.03144 0.78087 0.0
C284 C 0.49499 0.02508 0.79672 0.0
C285 C 0.51718 0.03495 0.80806 0.0
C286 C 0.54206 0.05211 0.8033 0.0
C287 C 0.54473 0.0583 0.78733 0.0
P288 P 0.78947 0.61649 0.93812 0.0
H289 H 0.76958 0.61754 0.96872 0.0
H290 H 0.72569 0.59822 0.97728 0.0
H291 H 0.69263 0.56194 0.9287 0.0
H292 H 0.73702 0.58009 0.92054 0.0
H293 H 0.82056 0.62106 0.96787 0.0
H294 H 0.84312 0.59774 0.9766 0.0
H295 H 0.81363 0.54714 0.93179 0.0
H296 H 0.79054 0.57033 0.92321 0.0
H297 H 0.75917 0.62817 0.91403 0.0
H298 H 0.82741 0.61874 0.91636 0.0
O299 O 0.80606 0.64657 0.94807 0.0
H300 H 0.76563 0.63934 0.88635 0.0
H301 H 0.83363 0.62927 0.88872 0.0
C302 C 0.75652 0.60108 0.94387 0.0
C303 C 0.75287 0.60545 0.9599 0.0
C304 C 0.72765 0.5945 0.96475 0.0
C305 C 0.70537 0.57903 0.95362 0.0
C306 C 0.70921 0.57379 0.93764 0.0
C307 C 0.73461 0.58446 0.93287 0.0
C308 C 0.80456 0.59793 0.9447 0.0
C309 C 0.81887 0.60492 0.95992 0.0
C310 C 0.83164 0.59149 0.96494 0.0
C311 C 0.83035 0.57082 0.95479 0.0
C312 C 0.81527 0.56327 0.93974 0.0
C313 C 0.8021 0.57647 0.93484 0.0
C314 C 0.79197 0.62124 0.91705 0.0
C315 C 0.775 0.62761 0.90844 0.0
C316 C 0.77879 0.63412 0.89261 0.0
C317 C 0.80004 0.63502 0.88526 0.0
C318 C 0.81711 0.62885 0.89401 0.0
C319 C 0.81328 0.62235 0.90978 0.0
P320 P 0.45567 0.21483 0.91455 0.0
H321 H 0.49694 0.26825 0.92605 0.0
H322 H 0.49673 0.30515 0.94088 0.0
H323 H 0.41258 0.25838 0.94112 0.0
H324 H 0.41291 0.22145 0.92615 0.0
H325 H 0.42813 0.1568 0.91243 0.0
H326 H 0.42988 0.12656 0.93062 0.0
H327 H 0.48208 0.19242 0.96526 0.0
H328 H 0.47947 0.22273 0.94733 0.0
H329 H 0.45847 0.2173 0.88006 0.0
H330 H 0.39826 0.17942 0.91174 0.0
O331 O 0.48495 0.22583 0.90767 0.0
H332 H 0.4259 0.19559 0.85679 0.0
H333 H 0.36531 0.15753 0.88831 0.0
C334 C 0.45487 0.24225 0.9247 0.0
C335 C 0.47838 0.26595 0.92913 0.0
C336 C 0.47828 0.28697 0.93776 0.0
C337 C 0.45463 0.28464 0.94218 0.0
C338 C 0.43105 0.26084 0.9377 0.0
C339 C 0.43122 0.23973 0.92913 0.0
C340 C 0.45305 0.19204 0.92872 0.0
C341 C 0.43908 0.16479 0.92417 0.0
C342 C 0.44015 0.14748 0.93454 0.0
C343 C 0.45591 0.15727 0.94932 0.0
C344 C 0.4696 0.18449 0.95396 0.0
C345 C 0.46806 0.20174 0.94374 0.0
C346 C 0.43086 0.19973 0.89763 0.0
C347 C 0.43823 0.20428 0.88203 0.0
C348 C 0.41959 0.19172 0.86871 0.0
C349 C 0.39314 0.17451 0.87074 0.0
C350 C 0.38558 0.17067 0.88641 0.0
C351 C 0.40435 0.1832 0.89977 0.0
P352 P 0.80364 0.15854 0.939 0.0
H353 H 0.84063 0.1889 0.96732 0.0
H354 H 0.86321 0.23565 0.97723 0.0
H355 H 0.82306 0.25016 0.93755 0.0
H356 H 0.80095 0.20347 0.92757 0.0
H357 H 0.77386 0.10673 0.95047 0.0
H358 H 0.7307 0.08367 0.96037 0.0
H359 H 0.71918 0.14938 0.95199 0.0
H360 H 0.76237 0.17234 0.94217 0.0
H361 H 0.8393 0.19049 0.91649 0.0
H362 H 0.76506 0.1182 0.91393 0.0
O363 O 0.8216 0.14577 0.94605 0.0
H364 H 0.83754 0.18636 0.88716 0.0
H365 H 0.76355 0.11367 0.88446 0.0
C366 C 0.81955 0.19285 0.94655 0.0
C367 C 0.83676 0.20217 0.96073 0.0
C368 C 0.8495 0.22887 0.96645 0.0
C369 C 0.84507 0.24668 0.95811 0.0
C370 C 0.82728 0.23707 0.94408 0.0
C371 C 0.81455 0.21037 0.9384 0.0
C372 C 0.77157 0.14148 0.94591 0.0
C373 C 0.76209 0.11621 0.95081 0.0
C374 C 0.73734 0.10298 0.95637 0.0
C375 C 0.72161 0.1148 0.95708 0.0
C376 C 0.73102 0.13996 0.95186 0.0
C377 C 0.75572 0.15309 0.94621 0.0
C378 C 0.80186 0.15516 0.91736 0.0
C379 C 0.82245 0.17388 0.90961 0.0
C380 C 0.82148 0.17148 0.89286 0.0
C381 C 0.80024 0.14988 0.88357 0.0
C382 C 0.78007 0.13057 0.89137 0.0
C383 C 0.78086 0.13324 0.90817 0.0
P384 P 0.65948 0.82954 0.07472 0.0
H385 H 0.6501 0.79882 0.04399 0.0
H386 H 0.62255 0.75206 0.03491 0.0
H387 H 0.60001 0.73711 0.08314 0.0
H388 H 0.62592 0.78404 0.09167 0.0
H389 H 0.66147 0.8627 0.04937 0.0
H390 H 0.6324 0.87926 0.04055 0.0
H391 H 0.58197 0.84015 0.0771 0.0
H392 H 0.61104 0.82346 0.08578 0.0
H393 H 0.68148 0.80713 0.09675 0.0
H394 H 0.65871 0.86662 0.09981 0.0
O395 O 0.68683 0.84296 0.06549 0.0
H396 H 0.68939 0.81169 0.12613 0.0
H397 H 0.66599 0.87086 0.12912 0.0
C398 C 0.64085 0.79475 0.06862 0.0
C399 C 0.63938 0.78536 0.0526 0.0
C400 C 0.62366 0.75854 0.04746 0.0
C401 C 0.60922 0.74054 0.05832 0.0
C402 C 0.6106 0.75024 0.07436 0.0
C403 C 0.62588 0.77713 0.07937 0.0
C404 C 0.63869 0.84243 0.06847 0.0
C405 C 0.64424 0.85779 0.05553 0.0
C406 C 0.6275 0.86704 0.05041 0.0
C407 C 0.60501 0.86106 0.0582 0.0
C408 C 0.59934 0.84531 0.07102 0.0
C409 C 0.61592 0.83583 0.07599 0.0
C410 C 0.66851 0.83574 0.09615 0.0
C411 C 0.67821 0.82118 0.10375 0.0
C412 C 0.6826 0.82372 0.12052 0.0
C413 C 0.67779 0.84124 0.12995 0.0
C414 C 0.66979 0.85712 0.12221 0.0
C415 C 0.66533 0.85449 0.10543 0.0
P416 P 0.23652 0.7762 0.10651 0.0
H417 H 0.22985 0.73461 0.08293 0.0
H418 H 0.19161 0.69845 0.06686 0.0
H419 H 0.14249 0.727 0.08573 0.0
H420 H 0.18074 0.76264 0.10212 0.0
H421 H 0.28918 0.81952 0.11539 0.0
H422 H 0.32168 0.85256 0.10033 0.0
H423 H 0.26528 0.82285 0.05799 0.0
H424 H 0.23293 0.78942 0.07316 0.0
H425 H 0.23687 0.76958 0.14083 0.0
H426 H 0.21693 0.81347 0.10882 0.0
O427 O 0.2527 0.76182 0.1139 0.0
H428 H 0.22502 0.78816 0.16354 0.0
H429 H 0.20438 0.83178 0.13163 0.0
C430 C 0.20813 0.75109 0.09389 0.0
C431 C 0.21084 0.73311 0.08357 0.0
C432 C 0.18896 0.71256 0.07427 0.0
C433 C 0.16389 0.70972 0.07503 0.0
C434 C 0.16141 0.72834 0.08505 0.0
C435 C 0.18337 0.74888 0.09439 0.0
C436 C 0.25879 0.80194 0.09538 0.0
C437 C 0.28375 0.82027 0.1029 0.0
C438 C 0.30226 0.83927 0.09427 0.0
C439 C 0.29612 0.84038 0.07791 0.0
C440 C 0.27075 0.82232 0.0705 0.0
C441 C 0.25219 0.80327 0.07919 0.0
C442 C 0.22787 0.79024 0.12316 0.0
C443 C 0.23003 0.78329 0.13868 0.0
C444 C 0.22333 0.79399 0.15168 0.0
C445 C 0.21393 0.8115 0.14934 0.0
C446 C 0.21154 0.81828 0.13374 0.0
C447 C 0.21873 0.80791 0.12075 0.0
P448 P 0.18624 0.38088 0.08837 0.0
H449 H 0.18811 0.40946 0.06077 0.0
H450 H 0.16247 0.42917 0.05124 0.0
H451 H 0.12033 0.40877 0.09342 0.0
H452 H 0.14689 0.39005 0.10318 0.0
H453 H 0.22119 0.36113 0.08056 0.0
H454 H 0.26523 0.38189 0.07188 0.0
H455 H 0.27023 0.45789 0.07841 0.0
H456 H 0.22596 0.43684 0.08715 0.0
H457 H 0.1497 0.33443 0.10297 0.0
H458 H 0.21615 0.41094 0.11921 0.0
O459 O 0.17084 0.35242 0.07655 0.0
H460 H 0.14602 0.32299 0.13058 0.0
H461 H 0.21272 0.39951 0.1471 0.0
C462 C 0.16993 0.39888 0.08289 0.0
C463 C 0.17385 0.40987 0.06819 0.0
C464 C 0.15886 0.4208 0.06263 0.0
C465 C 0.13913 0.42044 0.07148 0.0
C466 C 0.13556 0.40977 0.08638 0.0
C467 C 0.15076 0.39899 0.09199 0.0
C468 C 0.22006 0.39733 0.08411 0.0
C469 C 0.23183 0.38229 0.08026 0.0
C470 C 0.2571 0.39423 0.07537 0.0
C471 C 0.27117 0.42154 0.07428 0.0
C472 C 0.25972 0.43675 0.07883 0.0
C473 C 0.23446 0.42476 0.08388 0.0
C474 C 0.18354 0.37333 0.109 0.0
C475 C 0.16365 0.34875 0.11249 0.0
C476 C 0.16161 0.34218 0.12832 0.0
C477 C 0.1793 0.36017 0.14105 0.0
C478 C 0.19877 0.3852 0.13757 0.0
C479 C 0.20085 0.39172 0.12165 0.0
P480 P 0.45357 0.94723 0.26969 0.0
H481 H 0.4364 0.94111 0.30167 0.0
H482 H 0.3934 0.92167 0.31162 0.0
H483 H 0.35655 0.90076 0.26256 0.0
H484 H 0.39979 0.91902 0.25276 0.0
H485 H 0.50325 0.95476 0.2603 0.0
H486 H 0.52965 0.93456 0.2671 0.0
H487 H 0.47081 0.88388 0.29664 0.0
H488 H 0.44388 0.90301 0.28893 0.0
H489 H 0.45432 0.98903 0.25206 0.0
H490 H 0.45028 0.91438 0.24075 0.0
O491 O 0.47062 0.97714 0.27983 0.0
H492 H 0.45842 0.99747 0.22382 0.0
H493 H 0.45435 0.92266 0.21243 0.0
C494 C 0.42132 0.93155 0.27651 0.0
C495 C 0.41902 0.93211 0.29307 0.0
C496 C 0.39435 0.92119 0.29873 0.0
C497 C 0.37132 0.90987 0.28793 0.0
C498 C 0.37373 0.90902 0.27127 0.0
C499 C 0.39853 0.91967 0.26562 0.0
C500 C 0.47151 0.93036 0.274 0.0
C501 C 0.49586 0.93899 0.26804 0.0
C502 C 0.5111 0.9276 0.27211 0.0
C503 C 0.50257 0.90767 0.28256 0.0
C504 C 0.47794 0.89889 0.28839 0.0
C505 C 0.46253 0.91006 0.28409 0.0
C506 C 0.45268 0.95141 0.24854 0.0
C507 C 0.45406 0.97434 0.24346 0.0
C508 C 0.45626 0.97907 0.22729 0.0
C509 C 0.45707 0.96089 0.21593 0.0
C510 C 0.45429 0.93727 0.22096 0.0
C511 C 0.45189 0.93248 0.23712 0.0
P512 P 0.11949 0.55346 0.26017 0.0
H513 H 0.14978 0.59237 0.28722 0.0
H514 H 0.14164 0.62272 0.30372 0.0
H515 H 0.06362 0.58828 0.27868 0.0
H516 H 0.07221 0.55824 0.26198 0.0
H517 H 0.13896 0.51788 0.25294 0.0
H518 H 0.13529 0.47979 0.26532 0.0
H519 H 0.08742 0.48826 0.29975 0.0
H520 H 0.09151 0.5267 0.28736 0.0
H521 H 0.12469 0.57812 0.2305 0.0
H522 H 0.06915 0.50617 0.24873 0.0
O523 O 0.15075 0.57141 0.2565 0.0
H524 H 0.09818 0.5636 0.20441 0.0
H525 H 0.0427 0.49125 0.22254 0.0
C526 C 0.1119 0.57367 0.27313 0.0
C527 C 0.13088 0.59128 0.28535 0.0
C528 C 0.12605 0.6084 0.2949 0.0
C529 C 0.102 0.60801 0.29245 0.0
C530 C 0.08248 0.58932 0.28068 0.0
C531 C 0.08737 0.57217 0.27113 0.0
C532 C 0.11602 0.52535 0.26946 0.0
C533 C 0.12772 0.51155 0.26317 0.0
C534 C 0.12535 0.48962 0.27015 0.0
C535 C 0.11103 0.48102 0.28351 0.0
C536 C 0.09882 0.49463 0.28959 0.0
C537 C 0.10117 0.51659 0.28253 0.0
C538 C 0.0992 0.54291 0.24133 0.0
C539 C 0.10685 0.55913 0.22883 0.0
C540 C 0.09172 0.55077 0.21394 0.0
C541 C 0.06858 0.5261 0.21137 0.0
C542 C 0.06043 0.51034 0.22417 0.0
C543 C 0.07564 0.51874 0.23908 0.0
P544 P 0.47138 0.4994 0.27392 0.0
H545 H 0.5015 0.53106 0.30387 0.0
H546 H 0.52409 0.5784 0.31217 0.0
H547 H 0.49852 0.59144 0.26577 0.0
H548 H 0.47623 0.5441 0.25751 0.0
H549 H 0.43386 0.4445 0.27672 0.0
H550 H 0.38928 0.42226 0.28471 0.0
H551 H 0.39103 0.49683 0.29011 0.0
H552 H 0.43565 0.51894 0.28227 0.0
H553 H 0.51527 0.51235 0.25538 0.0
H554 H 0.43128 0.4774 0.24575 0.0
O555 O 0.48754 0.48665 0.28348 0.0
H556 H 0.5191 0.51014 0.22646 0.0
H557 H 0.43497 0.47505 0.21677 0.0
C558 C 0.48773 0.5342 0.27999 0.0
C559 C 0.50088 0.54414 0.29547 0.0
C560 C 0.51361 0.57117 0.30023 0.0
C561 C 0.5132 0.58868 0.28958 0.0
C562 C 0.49958 0.57852 0.27414 0.0
C563 C 0.4868 0.55147 0.26942 0.0
C564 C 0.4382 0.48336 0.27916 0.0
C565 C 0.42461 0.45603 0.27962 0.0
C566 C 0.39907 0.44334 0.28408 0.0
C567 C 0.38666 0.45782 0.28813 0.0
C568 C 0.40021 0.4852 0.28732 0.0
C569 C 0.42572 0.49785 0.28278 0.0
C570 C 0.47302 0.49478 0.25268 0.0
C571 C 0.49763 0.50389 0.24702 0.0
C572 C 0.49981 0.50281 0.23052 0.0
C573 C 0.47734 0.49251 0.21938 0.0
C574 C 0.45258 0.48287 0.2251 0.0
C575 C 0.45046 0.4842 0.24165 0.0
Tb576 Tb 0.48832 0.97286 0.99444 0.0
Eu577 Eu 0.51052 0.00966 0.02966 0.0
C578 C 0.51298 0.95612 0.02239 0.0
C579 C 0.45341 0.95889 0.02376 0.0
C580 C 0.47887 0.95829 0.95019 0.0
C581 C 0.46622 0.95316 0.92143 0.0
C582 C 0.46074 0.94444 0.93668 0.0
C583 C 0.50262 0.98102 0.94828 0.0
C584 C 0.50819 0.98969 0.93302 0.0
C585 C 0.49002 0.97591 0.91938 0.0
C586 C 0.47234 0.94956 0.96626 0.0
O587 O 0.49467 0.0119 0.99114 0.0
O588 O 0.4842 0.02057 0.01557 0.0
O589 O 0.54077 0.03151 0.01283 0.0
O590 O 0.53086 0.99575 0.99493 0.0
C591 C 0.48612 0.02421 1.00035 0.0
O592 O 0.50719 0.03568 0.04788 0.0
O593 O 0.53816 0.02623 0.05153 0.0
O594 O 0.52425 0.98012 0.02975 0.0
O595 O 0.49485 0.94794 0.01007 0.0
O596 O 0.45412 0.95961 0.00807 0.0
O597 O 0.47437 0.97292 0.03401 0.0
C598 C 0.54691 0.02018 1.00115 0.0
O599 O 0.49089 0.94935 0.9755 0.0
O600 O 0.46054 0.95983 0.9741 0.0
C601 C 0.51799 0.02955 0.07441 0.0
C602 C 0.50456 0.01465 0.10547 0.0
C603 C 0.53101 0.03024 0.10268 0.0
C604 C 0.53764 0.03767 0.08729 0.0
C605 C 0.49155 0.01402 0.07718 0.0
C606 C 0.48491 0.00674 0.09255 0.0
C607 C 0.52529 0.03647 0.05809 0.0
H608 H 0.45152 0.9423 0.91131 0.0
H609 H 0.44218 0.92704 0.93795 0.0
H610 H 0.51682 0.99213 0.9586 0.0
H611 H 0.52683 0.00708 0.93192 0.0
H612 H 0.54658 0.03685 0.11242 0.0
H613 H 0.55814 0.04958 0.08542 0.0
H614 H 0.47597 0.00726 0.06743 0.0
H615 H 0.46439 0.99444 0.09425 0.0
Tb616 Tb 0.99598 0.49395 0.99226 0.0
Eu617 Eu 0.96687 0.48514 0.02554 0.0
C618 C 0.0168 0.53927 0.02013 0.0
C619 C 0.01623 0.4769 0.02299 0.0
C620 C 0.01278 0.50154 0.9493 0.0
C621 C 0.0162 0.52599 0.92622 0.0
C622 C 0.0192 0.52531 0.94284 0.0
C623 C 0.00303 0.47839 0.93876 0.0
C624 C 8e-05 0.47908 0.92212 0.0
C625 C 0.00692 0.50296 0.91566 0.0
C626 C 0.01848 0.50153 0.96676 0.0
O627 O 0.95875 0.45739 0.98711 0.0
O628 O 0.95541 0.44565 0.01274 0.0
O629 O 0.93956 0.48722 0.00664 0.0
O630 O 0.96947 0.50979 0.989 0.0
C631 C 0.94943 0.43932 0.99716 0.0
O632 O 0.94019 0.45873 0.0415 0.0
O633 O 0.95836 0.50085 0.04724 0.0
O634 O 0.9932 0.52873 0.02484 0.0
O635 O 0.02317 0.52579 0.01015 0.0
O636 O 0.01165 0.47451 0.00718 0.0
O637 O 0.00447 0.4854 0.03252 0.0
C638 C 0.94648 0.50156 0.9945 0.0
O639 O 0.01886 0.52017 0.97628 0.0
O640 O 0.00724 0.47894 0.97277 0.0
C641 C 0.95305 0.47564 0.06876 0.0
C642 C 0.97386 0.47765 0.10034 0.0
C643 C 0.95465 0.485 0.09757 0.0
C644 C 0.94435 0.48401 0.08187 0.0
C645 C 0.9715 0.46739 0.07148 0.0
C646 C 0.9817 0.46824 0.08714 0.0
C647 C 0.94471 0.4778 0.05233 0.0
H648 H 0.02203 0.54476 0.92162 0.0
H649 H 0.02719 0.54358 0.95061 0.0
H650 H 0.99815 0.45979 0.94333 0.0
H651 H 0.99264 0.46096 0.91429 0.0
H652 H 0.94845 0.49264 0.10745 0.0
H653 H 0.93027 0.49065 0.07994 0.0
H654 H 0.97858 0.461 0.06148 0.0
H655 H 0.99617 0.46207 0.08888 0.0
Tb656 Tb 0.49725 0.49501 0.02586 0.0
Eu657 Eu 0.4705 0.50126 0.99184 0.0
C658 C 0.47289 0.44942 0.99782 0.0
C659 C 0.52957 0.51298 0.99582 0.0
C660 C 0.51093 0.48992 0.06921 0.0
C661 C 0.50648 0.4713 0.09474 0.0
C662 C 0.51171 0.47137 0.07868 0.0
C663 C 0.50476 0.50843 0.07597 0.0
C664 C 0.49978 0.50852 0.0921 0.0
C665 C 0.50054 0.48992 0.10163 0.0
C666 C 0.51599 0.48913 0.05225 0.0
O667 O 0.49454 0.53042 0.03045 0.0
O668 O 0.49736 0.54152 1.00463 0.0
O669 O 0.4439 0.49933 0.01064 0.0
O670 O 0.45527 0.47666 0.02775 0.0
C671 C 0.50075 0.54815 0.02019 0.0
O672 O 0.47292 0.52481 0.97212 0.0
O673 O 0.43853 0.48647 0.97244 0.0
O674 O 0.45787 0.4584 0.99222 0.0
O675 O 0.49311 0.46377 0.00856 0.0
O676 O 0.52957 0.51651 0.0115 0.0
O677 O 0.50767 0.50176 0.98608 0.0
C678 C 0.43921 0.48487 0.02274 0.0
O679 O 0.49728 0.46978 0.04263 0.0
O680 O 0.52587 0.51132 0.04579 0.0
C681 C 0.45451 0.49912 0.94738 0.0
C682 C 0.46572 0.48953 0.91623 0.0
C683 C 0.45865 0.50886 0.91954 0.0
C684 C 0.45305 0.51358 0.93501 0.0
C685 C 0.46122 0.47959 0.94408 0.0
C686 C 0.46665 0.47475 0.92863 0.0
C687 C 0.45152 0.50607 0.96398 0.0
H688 H 0.50746 0.45691 0.10184 0.0
H689 H 0.51634 0.45689 0.07364 0.0
H690 H 0.50373 0.52274 0.06881 0.0
H691 H 0.49499 0.52293 0.09706 0.0
H692 H 0.45762 0.52044 0.91021 0.0
H693 H 0.44817 0.52892 0.93741 0.0
H694 H 0.46293 0.46854 0.95355 0.0
H695 H 0.47247 0.46005 0.92656 0.0
Tb696 Tb 0.15795 0.30471 0.32817 0.0
Eu697 Eu 0.18008 0.3444 0.36237 0.0
C698 C 0.19135 0.29654 0.35525 0.0
C699 C 0.1266 0.28978 0.35877 0.0
C700 C 0.1474 0.28738 0.28449 0.0
C701 C 0.13762 0.2782 0.2554 0.0
C702 C 0.13334 0.26975 0.27081 0.0
C703 C 0.16583 0.3136 0.2826 0.0
C704 C 0.17017 0.32206 0.26723 0.0
C705 C 0.15608 0.30449 0.2534 0.0
C706 C 0.14244 0.27874 0.30072 0.0
O707 O 0.15701 0.34014 0.32361 0.0
O708 O 0.15049 0.35155 0.34873 0.0
O709 O 0.20654 0.36812 0.3443 0.0
O710 O 0.19918 0.33294 0.32664 0.0
C711 C 0.14841 0.35207 0.3331 0.0
O712 O 0.17272 0.36624 0.3814 0.0
O713 O 0.20951 0.36627 0.38293 0.0
O714 O 0.20087 0.32105 0.36136 0.0
O715 O 0.17062 0.28472 0.34451 0.0
O716 O 0.12512 0.28987 0.343 0.0
O717 O 0.14847 0.30524 0.36797 0.0
C718 C 0.21311 0.35801 0.3322 0.0
O719 O 0.16282 0.28194 0.3098 0.0
O720 O 0.12869 0.2866 0.30858 0.0
C721 C 0.19033 0.36524 0.40705 0.0
C722 C 0.17938 0.35103 0.43851 0.0
C723 C 0.18869 0.37722 0.43508 0.0
C724 C 0.19409 0.38422 0.41948 0.0
C725 C 0.18128 0.33916 0.41039 0.0
C726 C 0.17592 0.33213 0.42598 0.0
C727 C 0.19412 0.37228 0.39046 0.0
H728 H 0.12613 0.26422 0.24507 0.0
H729 H 0.11889 0.2495 0.27204 0.0
H730 H 0.17685 0.32755 0.29305 0.0
H731 H 0.18477 0.34232 0.26619 0.0
H732 H 0.1912 0.39221 0.44434 0.0
H733 H 0.20076 0.40438 0.41706 0.0
H734 H 0.17807 0.32417 0.40089 0.0
H735 H 0.16913 0.31188 0.4282 0.0
Tb736 Tb 0.67 0.83541 0.32569 0.0
Eu737 Eu 0.6378 0.82514 0.35783 0.0
C738 C 0.69046 0.87885 0.35502 0.0
C739 C 0.68664 0.81603 0.35644 0.0
C740 C 0.69198 0.8452 0.28404 0.0
C741 C 0.71083 0.86306 0.25965 0.0
C742 C 0.71339 0.8626 0.2763 0.0
C743 C 0.66775 0.82841 0.27498 0.0
C744 C 0.6652 0.82875 0.25827 0.0
C745 C 0.68678 0.84601 0.25043 0.0
C746 C 0.69573 0.84475 0.30149 0.0
O747 O 0.6328 0.79934 0.31851 0.0
O748 O 0.62363 0.78607 0.34371 0.0
O749 O 0.61219 0.8271 0.33757 0.0
O750 O 0.64503 0.85288 0.32254 0.0
C751 C 0.6203 0.78091 0.32799 0.0
O752 O 0.61983 0.80098 0.37716 0.0
O753 O 0.61687 0.83596 0.37455 0.0
O754 O 0.66679 0.86855 0.35963 0.0
O755 O 0.6966 0.86582 0.34451 0.0
O756 O 0.68243 0.8136 0.34064 0.0
O757 O 0.67511 0.82523 0.36567 0.0
C758 C 0.62092 0.84329 0.32642 0.0
O759 O 0.69415 0.86267 0.31051 0.0
O760 O 0.68388 0.82181 0.30701 0.0
C761 C 0.62099 0.82507 0.4008 0.0
C762 C 0.63809 0.83736 0.43393 0.0
C763 C 0.61295 0.81617 0.42845 0.0
C764 C 0.60446 0.8101 0.41199 0.0
C765 C 0.64593 0.84647 0.4062 0.0
C766 C 0.65437 0.85264 0.42264 0.0
C767 C 0.61291 0.81715 0.38353 0.0
H768 H 0.72789 0.87633 0.25396 0.0
H769 H 0.73223 0.87567 0.28314 0.0
H770 H 0.65093 0.81494 0.28079 0.0
H771 H 0.64635 0.81559 0.25148 0.0
H772 H 0.59994 0.80418 0.43689 0.0
H773 H 0.58521 0.79342 0.40797 0.0
H774 H 0.65909 0.85802 0.39769 0.0
H775 H 0.67399 0.86881 0.42647 0.0
Tb776 Tb 0.16258 0.82909 0.36066 0.0
Eu777 Eu 0.13794 0.83473 0.32544 0.0
C778 C 0.13056 0.78091 0.33541 0.0
C779 C 0.19587 0.84298 0.33089 0.0
C780 C 0.17473 0.82357 0.40439 0.0
C781 C 0.16209 0.80081 0.42843 0.0
C782 C 0.16715 0.8009 0.41234 0.0
C783 C 0.17726 0.84629 0.41284 0.0
C784 C 0.17243 0.84628 0.42901 0.0
C785 C 0.16478 0.82352 0.43695 0.0
C786 C 0.18002 0.82291 0.38741 0.0
O787 O 0.16233 0.86589 0.36335 0.0
O788 O 0.16768 0.87512 0.33725 0.0
O789 O 0.10948 0.83332 0.34263 0.0
O790 O 0.12172 0.81653 0.36372 0.0
C791 C 0.1704 0.88291 0.35263 0.0
O792 O 0.13232 0.85852 0.30813 0.0
O793 O 0.11654 0.81684 0.30179 0.0
O794 O 0.1177 0.79206 0.32971 0.0
O795 O 0.15319 0.79498 0.34417 0.0
O796 O 0.19578 0.84741 0.34648 0.0
O797 O 0.17423 0.83259 0.32098 0.0
C798 C 0.10533 0.82265 0.35633 0.0
O799 O 0.1614 0.80373 0.37764 0.0
O800 O 0.19058 0.84511 0.38094 0.0
C801 C 0.13346 0.8443 0.28135 0.0
C802 C 0.15408 0.84896 0.25138 0.0
C803 C 0.13066 0.84955 0.25285 0.0
C804 C 0.1204 0.84714 0.26772 0.0
C805 C 0.15725 0.84463 0.28009 0.0
C806 C 0.16741 0.84683 0.26527 0.0
C807 C 0.12155 0.83919 0.29661 0.0
H808 H 0.15656 0.7831 0.4343 0.0
H809 H 0.16522 0.78321 0.4061 0.0
H810 H 0.18298 0.86405 0.407 0.0
H811 H 0.17446 0.86399 0.43526 0.0
H812 H 0.12007 0.85156 0.24248 0.0
H813 H 0.10201 0.84697 0.2685 0.0
H814 H 0.16757 0.84237 0.29049 0.0
H815 H 0.18522 0.84584 0.26463 0.0
Tb816 Tb 0.81993 0.65116 0.66257 0.0
Eu817 Eu 0.8418 0.68698 0.698 0.0
C818 C 0.84775 0.63698 0.69057 0.0
C819 C 0.78486 0.63581 0.69112 0.0
C820 C 0.80709 0.63282 0.61836 0.0
C821 C 0.81071 0.62256 0.59042 0.0
C822 C 0.80693 0.61543 0.60609 0.0
C823 C 0.81099 0.65749 0.61479 0.0
C824 C 0.81461 0.6646 0.59907 0.0
C825 C 0.81464 0.64726 0.58669 0.0
C826 C 0.80478 0.62556 0.63496 0.0
O827 O 0.80464 0.67818 0.66303 0.0
O828 O 0.8362 0.71201 0.68074 0.0
O829 O 0.8766 0.69851 0.684 0.0
O830 O 0.85509 0.68733 0.65847 0.0
C831 C 0.81698 0.70297 0.66909 0.0
O832 O 0.83797 0.71159 0.71701 0.0
O833 O 0.86985 0.70318 0.71956 0.0
O834 O 0.8408 0.64887 0.70133 0.0
O835 O 0.84548 0.63965 0.67517 0.0
O836 O 0.79293 0.62696 0.6792 0.0
O837 O 0.79834 0.66038 0.69749 0.0
C838 C 0.87682 0.69965 0.66837 0.0
O839 O 0.82679 0.63162 0.64325 0.0
O840 O 0.79007 0.63131 0.64341 0.0
C841 C 0.85064 0.70564 0.74291 0.0
C842 C 0.83897 0.69123 0.77419 0.0
C843 C 0.85801 0.7171 0.77184 0.0
C844 C 0.86378 0.72423 0.75631 0.0
C845 C 0.83154 0.67986 0.74513 0.0
C846 C 0.82573 0.67271 0.76064 0.0
C847 C 0.85705 0.71306 0.72664 0.0
H848 H 0.8111 0.60889 0.58131 0.0
H849 H 0.80431 0.59646 0.60869 0.0
H850 H 0.81144 0.67133 0.62416 0.0
H851 H 0.81727 0.68363 0.59663 0.0
H852 H 0.86832 0.73192 0.782 0.0
H853 H 0.87854 0.74423 0.75478 0.0
H854 H 0.82127 0.66523 0.73486 0.0
H855 H 0.81122 0.65256 0.76202 0.0
Tb856 Tb 0.33439 0.16282 0.65775 0.0
Eu857 Eu 0.30576 0.1581 0.69094 0.0
C858 C 0.35622 0.2097 0.68421 0.0
C859 C 0.35333 0.14587 0.68918 0.0
C860 C 0.35158 0.16834 0.61493 0.0
C861 C 0.36676 0.18966 0.5907 0.0
C862 C 0.37029 0.18915 0.60729 0.0
C863 C 0.32901 0.14809 0.60573 0.0
C864 C 0.32555 0.1485 0.58907 0.0
C865 C 0.34448 0.16924 0.58139 0.0
C866 C 0.35674 0.16803 0.63233 0.0
O867 O 0.29649 0.12673 0.65398 0.0
O868 O 0.29385 0.11734 0.68013 0.0
O869 O 0.2795 0.16051 0.67138 0.0
O870 O 0.30977 0.18052 0.65349 0.0
C871 C 0.28736 0.10968 0.66467 0.0
O872 O 0.27262 0.13736 0.70494 0.0
O873 O 0.30525 0.17551 0.71455 0.0
O874 O 0.33221 0.20094 0.6879 0.0
O875 O 0.36203 0.19429 0.6756 0.0
O876 O 0.35021 0.14435 0.67334 0.0
O877 O 0.34081 0.1539 0.69842 0.0
C878 C 0.28692 0.17371 0.6588 0.0
O879 O 0.35857 0.18766 0.64159 0.0
O880 O 0.34378 0.14565 0.6384 0.0
C881 C 0.28431 0.14545 0.73313 0.0
C882 C 0.29354 0.13322 0.76405 0.0
C883 C 0.28641 0.15261 0.76215 0.0
C884 C 0.2818 0.15861 0.74682 0.0
C885 C 0.2902 0.12524 0.73485 0.0
C886 C 0.29457 0.11902 0.75019 0.0
C887 C 0.28349 0.15498 0.71742 0.0
H888 H 0.38185 0.20571 0.58511 0.0
H889 H 0.38788 0.20489 0.61416 0.0
H890 H 0.3142 0.13186 0.61136 0.0
H891 H 0.30808 0.13262 0.5822 0.0
H892 H 0.28585 0.16428 0.77249 0.0
H893 H 0.27747 0.17441 0.74569 0.0
H894 H 0.29235 0.11493 0.72439 0.0
H895 H 0.29961 0.10371 0.75119 0.0
Tb896 Tb 0.83613 0.18054 0.69387 0.0
Eu897 Eu 0.81382 0.19172 0.65971 0.0
C898 C 0.80431 0.13535 0.66652 0.0
C899 C 0.8698 0.19357 0.66415 0.0
C900 C 0.84071 0.16405 0.73579 0.0
C901 C 0.84481 0.15126 0.7624 0.0
C902 C 0.85405 0.15738 0.74736 0.0
C903 C 0.8174 0.1635 0.73917 0.0
C904 C 0.80826 0.15761 0.75424 0.0
C905 C 0.82217 0.15195 0.76613 0.0
C906 C 0.85229 0.17351 0.72082 0.0
O907 O 0.8589 0.22208 0.69063 0.0
O908 O 0.82638 0.22665 0.67784 0.0
O909 O 0.77924 0.17375 0.6741 0.0
O910 O 0.80127 0.18247 0.69942 0.0
C911 C 0.84875 0.23679 0.68694 0.0
O912 O 0.81784 0.21857 0.64173 0.0
O913 O 0.78586 0.17823 0.63815 0.0
O914 O 0.81209 0.15274 0.65603 0.0
O915 O 0.80626 0.14248 0.68193 0.0
O916 O 0.86325 0.18085 0.67707 0.0
O917 O 0.85578 0.20286 0.65736 0.0
C918 C 0.77963 0.17505 0.68987 0.0
O919 O 0.84377 0.15625 0.7082 0.0
O920 O 0.85409 0.19566 0.71737 0.0
C921 C 0.80812 0.19653 0.61586 0.0
C922 C 0.82734 0.19182 0.58652 0.0
C923 C 0.81091 0.20287 0.58746 0.0
C924 C 0.80143 0.20528 0.60207 0.0
C925 C 0.82419 0.18521 0.6149 0.0
C926 C 0.83365 0.18283 0.6004 0.0
C927 C 0.79953 0.19991 0.6315 0.0
H928 H 0.85605 0.1472 0.77137 0.0
H929 H 0.8721 0.15775 0.74494 0.0
H930 H 0.80677 0.16846 0.73033 0.0
H931 H 0.7906 0.158 0.75672 0.0
H932 H 0.80583 0.21011 0.577 0.0
H933 H 0.78916 0.21421 0.60265 0.0
H934 H 0.82957 0.17834 0.62544 0.0
H935 H 0.84581 0.17376 0.60006 0.0
H936 H 0.3329 0.8918 0.08779 0.0
H937 H 0.40727 0.91784 0.00813 0.0
H938 H 0.30616 0.83308 0.04686 0.0
H939 H 0.44226 0.96213 0.05463 0.0
H940 H 0.36663 0.89002 0.02022 0.0
H941 H 0.3695 0.9216 0.07367 0.0
C942 C 0.33467 0.88516 0.07581 0.0
C943 C 0.31661 0.8597 0.06863 0.0
C944 C 0.38324 0.90593 0.0277 0.0
C945 C 0.35846 0.89395 0.05228 0.0
C946 C 0.40638 0.92182 0.02082 0.0
C947 C 0.42827 0.94225 0.0304 0.0
C948 C 0.38197 0.91083 0.04418 0.0
C949 C 0.42602 0.94652 0.04678 0.0
C950 C 0.35555 0.90224 0.06773 0.0
C951 C 0.31956 0.85253 0.05287 0.0
N952 N 0.40334 0.93099 0.05312 0.0
N953 N 0.34022 0.8695 0.04525 0.0
H954 H 0.1187 0.44763 0.08748 0.0
H955 H 0.04248 0.45617 0.00735 0.0
H956 H 0.11895 0.41435 0.04008 0.0
H957 H 0.03252 0.48009 0.05504 0.0
H958 H 0.07265 0.4432 0.01924 0.0
H959 H 0.08897 0.46177 0.07596 0.0
C960 C 0.11251 0.44324 0.07468 0.0
C961 C 0.12153 0.42984 0.06476 0.0
C962 C 0.06389 0.45128 0.02713 0.0
C963 C 0.08766 0.44622 0.05147 0.0
C964 C 0.04663 0.45875 0.02033 0.0
C965 C 0.03485 0.46924 0.03018 0.0
C966 C 0.06959 0.45435 0.04394 0.0
C967 C 0.04109 0.47207 0.04695 0.0
C968 C 0.09561 0.45142 0.0681 0.0
C969 C 0.11302 0.42503 0.0482 0.0
N970 N 0.05804 0.46469 0.0533 0.0
N971 N 0.09664 0.4332 0.04211 0.0
H972 H 0.6187 0.71103 0.03578 0.0
H973 H 0.50226 0.57116 0.05019 0.0
H974 H 0.56211 0.70422 0.06851 0.0
H975 H 0.53125 0.58937 1.00376 0.0
H976 H 0.52816 0.61836 0.05985 0.0
H977 H 0.59099 0.6644 0.02653 0.0
C978 C 0.60041 0.69991 0.04097 0.0
C979 C 0.59275 0.71187 0.05289 0.0
C980 C 0.52859 0.61188 0.04753 0.0
C981 C 0.56137 0.65812 0.04264 0.0
C982 C 0.51391 0.58506 0.04203 0.0
C983 C 0.51454 0.57639 0.02614 0.0
C984 C 0.54441 0.62985 0.03716 0.0
C985 C 0.53001 0.59518 0.01606 0.0
C986 C 0.5847 0.67322 0.03573 0.0
C987 C 0.56913 0.69595 0.05948 0.0
N988 N 0.54454 0.62097 0.02179 0.0
N989 N 0.55432 0.66985 0.05432 0.0
H990 H 0.8554 0.26954 0.98921 0.0
H991 H 0.93516 0.41743 0.96566 0.0
H992 H 0.86688 0.28879 0.94027 0.0
H993 H 0.92547 0.39713 0.01453 0.0
H994 H 0.90863 0.37061 0.95595 0.0
H995 H 0.87975 0.31646 0.99857 0.0
C996 C 0.86312 0.28363 0.98043 0.0
C997 C 0.85916 0.27518 0.96393 0.0
C998 C 0.91227 0.37644 0.96879 0.0
C999 C 0.8869 0.32904 0.97456 0.0
C1000 C 0.92738 0.40318 0.97435 0.0
C1001 C 0.93262 0.41125 0.99094 0.0
C1002 C 0.90232 0.35766 0.97991 0.0
C1003 C 0.92203 0.39187 1.00163 0.0
C1004 C 0.87691 0.31045 0.98578 0.0
C1005 C 0.86922 0.29439 0.95309 0.0
N1006 N 0.90746 0.36602 0.99593 0.0
N1007 N 0.88269 0.32041 0.95859 0.0
H1008 H 0.6599 0.53182 0.94344 0.0
H1009 H 0.57801 0.54981 0.01012 0.0
H1010 H 0.68903 0.60324 0.97547 0.0
H1011 H 0.53928 0.4981 0.96632 0.0
H1012 H 0.62011 0.56578 0.99919 0.0
H1013 H 0.61645 0.51575 0.95287 0.0
C1014 C 0.65725 0.54424 0.95235 0.0
C1015 C 0.67846 0.5689 0.95876 0.0
C1016 C 0.6024 0.55097 0.99194 0.0
C1017 C 0.62887 0.55024 0.96982 0.0
C1018 C 0.57835 0.54173 0.99821 0.0
C1019 C 0.55507 0.52257 0.98912 0.0
C1020 C 0.60336 0.54073 0.97656 0.0
C1021 C 0.55676 0.51297 0.9737 0.0
C1022 C 0.63244 0.53495 0.95776 0.0
C1023 C 0.67367 0.58383 0.97045 0.0
N1024 N 0.58055 0.52201 0.96793 0.0
N1025 N 0.64953 0.57419 0.97567 0.0
H1026 H 0.50254 0.16029 0.95758 0.0
H1027 H 0.45121 0.03924 0.00944 0.0
H1028 H 0.41977 0.11358 0.96224 0.0
H1029 H 0.50966 0.05451 0.97657 0.0
H1030 H 0.44338 0.07286 0.99812 0.0
H1031 H 0.50993 0.12818 0.97106 0.0
C1032 C 0.48603 0.14346 0.96171 0.0
C1033 C 0.46055 0.13942 0.95889 0.0
C1034 C 0.45789 0.06874 0.99347 0.0
C1035 C 0.46883 0.103 0.97426 0.0
C1036 C 0.46241 0.04974 0.99991 0.0
C1037 C 0.481 0.04414 0.99384 0.0
C1038 C 0.47266 0.08261 0.98129 0.0
C1039 C 0.495 0.05815 0.98147 0.0
C1040 C 0.49021 0.12515 0.96925 0.0
C1041 C 0.43968 0.11721 0.96424 0.0
N1042 N 0.49073 0.07696 0.97569 0.0
N1043 N 0.44428 0.09976 0.97178 0.0
H1044 H 0.68383 0.06285 0.95061 0.0
H1045 H 0.58569 0.07169 0.00961 0.0
H1046 H 0.7 0.13516 0.97763 0.0
H1047 H 0.56683 0.00241 0.97797 0.0
H1048 H 0.62811 0.09518 0.99874 0.0
H1049 H 0.64135 0.04015 0.96131 0.0
C1050 C 0.67847 0.07393 0.95885 0.0
C1051 C 0.69551 0.10093 0.96326 0.0
C1052 C 0.61464 0.07484 0.99419 0.0
C1053 C 0.64678 0.07509 0.97551 0.0
C1054 C 0.59043 0.0614 1.0004 0.0
C1055 C 0.57265 0.03498 0.99475 0.0
C1056 C 0.62115 0.06174 0.98228 0.0
C1057 C 0.57986 0.02272 0.98275 0.0
C1058 C 0.65414 0.061 0.96489 0.0
C1059 C 0.68736 0.11438 0.9738 0.0
N1060 N 0.60353 0.03617 0.97697 0.0
N1061 N 0.66361 0.10131 0.97961 0.0
H1062 H 0.83216 0.5521 0.98368 0.0
H1063 H 0.94929 0.52548 0.96677 0.0
H1064 H 0.86274 0.56024 0.93754 0.0
H1065 H 0.9019 0.49618 1.00612 0.0
H1066 H 0.91949 0.54027 0.95621 0.0
H1067 H 0.85928 0.53346 0.99259 0.0
C1068 C 0.84455 0.54986 0.97542 0.0
C1069 C 0.84527 0.55775 0.95987 0.0
C1070 C 0.91558 0.53044 0.96709 0.0
C1071 C 0.87653 0.53662 0.97 0.0
C1072 C 0.93262 0.52207 0.97316 0.0
C1073 C 0.92818 0.50963 0.9874 0.0
C1074 C 0.89418 0.52665 0.97544 0.0
C1075 C 0.90616 0.50565 0.99512 0.0
C1076 C 0.85995 0.53914 0.98047 0.0
C1077 C 0.8615 0.55422 0.94959 0.0
N1078 N 0.89015 0.51431 0.98911 0.0
N1079 N 0.8767 0.54414 0.95488 0.0
H1080 H 0.42077 0.30366 0.93757 0.0
H1081 H 0.49973 0.42423 0.00631 0.0
H1082 H 0.48884 0.31651 0.96796 0.0
H1083 H 0.43539 0.41542 0.97374 0.0
H1084 H 0.49337 0.38258 0.99389 0.0
H1085 H 0.42307 0.34224 0.95225 0.0
C1086 C 0.43604 0.31446 0.94742 0.0
C1087 C 0.45479 0.30703 0.95147 0.0
C1088 C 0.48056 0.38969 0.98949 0.0
C1089 C 0.45765 0.3512 0.96822 0.0
C1090 C 0.48417 0.41349 0.99659 0.0
C1091 C 0.46817 0.42344 0.991 0.0
C1092 C 0.46082 0.37568 0.97668 0.0
C1093 C 0.44825 0.40855 0.97842 0.0
C1094 C 0.43744 0.33654 0.95574 0.0
C1095 C 0.47428 0.32183 0.96426 0.0
N1096 N 0.44522 0.38547 0.97163 0.0
N1097 N 0.47525 0.34324 0.97214 0.0
H1098 H 0.11479 0.68004 0.08481 0.0
H1099 H 0.06519 0.56994 0.01015 0.0
H1100 H 0.1594 0.68681 0.0445 0.0
H1101 H 0.01491 0.5698 0.04564 0.0
H1102 H 0.09968 0.61308 0.02246 0.0
H1103 H 0.07761 0.64032 0.07048 0.0
C1104 C 0.11669 0.67342 0.07286 0.0
C1105 C 0.14041 0.68676 0.06592 0.0
C1106 C 0.08105 0.60372 0.0275 0.0
C1107 C 0.09799 0.64093 0.04957 0.0
C1108 C 0.06134 0.57903 0.0205 0.0
C1109 C 0.03716 0.56614 0.02693 0.0
C1110 C 0.0767 0.61559 0.04116 0.0
C1111 C 0.03326 0.57899 0.04029 0.0
C1112 C 0.09547 0.65062 0.06472 0.0
C1113 C 0.14174 0.67693 0.05049 0.0
N1114 N 0.05292 0.60292 0.04705 0.0
N1115 N 0.12093 0.65454 0.0429 0.0
H1116 H 0.28987 0.4587 0.05275 0.0
H1117 H 0.42366 0.45522 0.0481 0.0
H1118 H 0.31166 0.41185 0.08087 0.0
H1119 H 0.3999 0.49678 0.01634 0.0
H1120 H 0.38405 0.44188 0.06142 0.0
H1121 H 0.33144 0.47584 0.04074 0.0
C1122 C 0.30352 0.45225 0.05655 0.0
C1123 C 0.29718 0.4337 0.0678 0.0
C1124 C 0.38744 0.45392 0.05154 0.0
C1125 C 0.34468 0.45303 0.05396 0.0
C1126 C 0.41012 0.46158 0.04389 0.0
C1127 C 0.41514 0.47706 0.03096 0.0
C1128 C 0.36947 0.46177 0.04633 0.0
C1129 C 0.39683 0.48475 0.02618 0.0
C1130 C 0.32716 0.4619 0.04959 0.0
C1131 C 0.31551 0.42582 0.07209 0.0
N1132 N 0.37478 0.47699 0.03385 0.0
N1133 N 0.33833 0.43547 0.06515 0.0
H1134 H 0.58561 0.88502 0.07756 0.0
H1135 H 0.51067 0.91352 1.0053 0.0
H1136 H 0.58575 0.86172 0.02767 0.0
H1137 H 0.53621 0.95841 0.05207 0.0
H1138 H 0.53015 0.88725 0.01423 0.0
H1139 H 0.5594 0.90494 0.06918 0.0
C1140 C 0.57986 0.88386 0.06484 0.0
C1141 C 0.58795 0.87187 0.05327 0.0
C1142 C 0.53127 0.90274 0.02254 0.0
C1143 C 0.55805 0.89458 0.04362 0.0
C1144 C 0.52005 0.9176 0.0175 0.0
C1145 C 0.52204 0.93827 0.02793 0.0
C1146 C 0.54416 0.9084 0.03817 0.0
C1147 C 0.53449 0.94283 0.04358 0.0
C1148 C 0.56505 0.89534 0.06007 0.0
C1149 C 0.58016 0.87109 0.03695 0.0
N1150 N 0.5451 0.92803 0.04822 0.0
N1151 N 0.56563 0.88233 0.03258 0.0
H1152 H 0.97803 0.16507 0.38425 0.0
H1153 H 0.12092 0.29163 0.39081 0.0
H1154 H 0.01503 0.22034 0.42685 0.0
H1155 H 0.07854 0.24911 0.345 0.0
H1156 H 0.08248 0.26406 0.4041 0.0
H1157 H 0.01424 0.19444 0.36944 0.0
C1158 C 0.99355 0.1835 0.39045 0.0
C1159 C 0.99357 0.19009 0.4069 0.0
C1160 C 0.08147 0.26074 0.39113 0.0
C1161 C 0.03525 0.22349 0.39008 0.0
C1162 C 0.10353 0.27642 0.3835 0.0
C1163 C 0.10305 0.27264 0.36672 0.0
C1164 C 0.05864 0.24085 0.38201 0.0
C1165 C 0.07979 0.2527 0.35795 0.0
C1166 C 0.01429 0.20017 0.382 0.0
C1167 C 0.01441 0.21411 0.41431 0.0
N1168 N 0.05851 0.23741 0.36572 0.0
N1169 N 0.03443 0.22979 0.40589 0.0
H1170 H 0.78533 0.78259 0.42139 0.0
H1171 H 0.71315 0.79559 0.341 0.0
H1172 H 0.7915 0.75631 0.37336 0.0
H1173 H 0.70197 0.8185 0.38861 0.0
H1174 H 0.7432 0.78268 0.35296 0.0
H1175 H 0.75602 0.7973 0.40994 0.0
C1176 C 0.78057 0.77993 0.40845 0.0
C1177 C 0.79103 0.76826 0.39833 0.0
C1178 C 0.73421 0.79052 0.36084 0.0
C1179 C 0.75761 0.78516 0.38517 0.0
C1180 C 0.71698 0.79792 0.354 0.0
C1181 C 0.7049 0.80812 0.3638 0.0
C1182 C 0.73956 0.7933 0.37765 0.0
C1183 C 0.71077 0.81067 0.38058 0.0
C1184 C 0.76391 0.78841 0.40193 0.0
C1185 C 0.78436 0.7656 0.38165 0.0
N1186 N 0.72769 0.8033 0.38698 0.0
N1187 N 0.76809 0.77392 0.37562 0.0
H1188 H 0.26162 0.05311 0.3583 0.0
H1189 H 0.1851 0.90638 0.38364 0.0
H1190 H 0.26779 0.03318 0.40664 0.0
H1191 H 0.18909 0.92432 0.3342 0.0
H1192 H 0.21213 0.95331 0.39245 0.0
H1193 H 0.23254 0.00639 0.34935 0.0
C1194 C 0.25703 0.03892 0.36702 0.0
C1195 C 0.26721 0.04712 0.38326 0.0
C1196 C 0.20702 0.94699 0.37968 0.0
C1197 C 0.23355 0.99366 0.37313 0.0
C1198 C 0.19146 0.92018 0.37462 0.0
C1199 C 0.18488 0.91137 0.35814 0.0
C1200 C 0.21601 0.96517 0.36818 0.0
C1201 C 0.19376 0.93021 0.34703 0.0
C1202 C 0.24027 0.01226 0.36191 0.0
C1203 C 0.26015 0.02784 0.39405 0.0
N1204 N 0.20894 0.95623 0.35225 0.0
N1205 N 0.24376 0.00204 0.3888 0.0
H1206 H 0.51425 0.61345 0.31859 0.0
H1207 H 0.61337 0.75887 0.29677 0.0
H1208 H 0.54331 0.62933 0.27205 0.0
H1209 H 0.58641 0.74007 0.34363 0.0
H1210 H 0.58544 0.71223 0.28659 0.0
H1211 H 0.53844 0.66055 0.32718 0.0
C1212 C 0.5258 0.62687 0.31019 0.0
C1213 C 0.52693 0.61741 0.29463 0.0
C1214 C 0.5856 0.71842 0.29908 0.0
C1215 C 0.5546 0.67155 0.30434 0.0
C1216 C 0.60147 0.74502 0.30488 0.0
C1217 C 0.6024 0.75337 0.32111 0.0
C1218 C 0.57055 0.70016 0.30959 0.0
C1219 C 0.58656 0.73457 0.33107 0.0
C1220 C 0.53951 0.65381 0.31506 0.0
C1221 C 0.54177 0.63578 0.28413 0.0
N1222 N 0.57142 0.70892 0.32517 0.0
N1223 N 0.55516 0.66199 0.2892 0.0
H1224 H 0.35888 0.92976 0.31443 0.0
H1225 H 0.20449 0.83079 0.3004 0.0
H1226 H 0.32363 0.86693 0.27552 0.0
H1227 H 0.24527 0.87442 0.34626 0.0
H1228 H 0.24698 0.84651 0.28965 0.0
H1229 H 0.31638 0.91249 0.32484 0.0
C1230 C 0.34232 0.91218 0.30812 0.0
C1231 C 0.34512 0.89967 0.29412 0.0
C1232 C 0.24655 0.85249 0.30208 0.0
C1233 C 0.29595 0.88016 0.30586 0.0
C1234 C 0.22233 0.84359 0.30823 0.0
C1235 C 0.22128 0.85127 0.32428 0.0
C1236 C 0.26984 0.86949 0.31199 0.0
C1237 C 0.24507 0.86787 0.33384 0.0
C1238 C 0.31796 0.90243 0.31405 0.0
C1239 C 0.32252 0.87743 0.28625 0.0
N1240 N 0.26831 0.87654 0.32753 0.0
N1241 N 0.29889 0.86842 0.29221 0.0
H1242 H 0.11613 0.47675 0.31582 0.0
H1243 H 0.13493 0.35215 0.30134 0.0
H1244 H 0.1039 0.4345 0.26915 0.0
H1245 H 0.13756 0.38752 0.34871 0.0
H1246 H 0.12033 0.38027 0.28956 0.0
H1247 H 0.12016 0.44219 0.32838 0.0
C1248 C 0.11384 0.45998 0.30823 0.0
C1249 C 0.11004 0.45867 0.2914 0.0
C1250 C 0.12388 0.38177 0.30254 0.0
C1251 C 0.11508 0.41935 0.30565 0.0
C1252 C 0.13232 0.36577 0.30928 0.0
C1253 C 0.13777 0.36772 0.32603 0.0
C1254 C 0.1211 0.40008 0.3126 0.0
C1255 C 0.13374 0.38549 0.33573 0.0
C1256 C 0.1163 0.44033 0.31541 0.0
C1257 C 0.10743 0.4366 0.28215 0.0
N1258 N 0.1259 0.40122 0.32886 0.0
N1259 N 0.11028 0.41796 0.28939 0.0
H1260 H 0.34434 0.41061 0.27554 0.0
H1261 H 0.25196 0.40886 0.34246 0.0
H1262 H 0.36802 0.4744 0.31289 0.0
H1263 H 0.23004 0.34525 0.30523 0.0
H1264 H 0.29341 0.43462 0.33089 0.0
H1265 H 0.30125 0.38765 0.28543 0.0
C1266 C 0.34047 0.41979 0.28584 0.0
C1267 C 0.35989 0.44439 0.29346 0.0
C1268 C 0.27944 0.41506 0.32523 0.0
C1269 C 0.31045 0.41826 0.30483 0.0
C1270 C 0.25575 0.40036 0.33182 0.0
C1271 C 0.23756 0.37474 0.32491 0.0
C1272 C 0.28493 0.40406 0.31164 0.0
C1273 C 0.24354 0.36479 0.31109 0.0
C1274 C 0.31581 0.40673 0.29144 0.0
C1275 C 0.35358 0.45555 0.30657 0.0
N1276 N 0.26671 0.3794 0.30498 0.0
N1277 N 0.32946 0.44233 0.31191 0.0
H1278 H 0.48793 0.85686 0.28885 0.0
H1279 H 0.63455 0.88513 0.30872 0.0
H1280 H 0.55647 0.93364 0.28839 0.0
H1281 H 0.56755 0.82063 0.32614 0.0
H1282 H 0.60561 0.89994 0.29694 0.0
H1283 H 0.51645 0.84028 0.29863 0.0
C1284 C 0.5089 0.87029 0.29082 0.0
C1285 C 0.51968 0.89679 0.2878 0.0
C1286 C 0.59727 0.88251 0.30331 0.0
C1287 C 0.55246 0.87765 0.29867 0.0
C1288 C 0.61374 0.87397 0.30998 0.0
C1289 C 0.60348 0.8517 0.31852 0.0
C1290 C 0.57029 0.86848 0.305 0.0
C1291 C 0.57634 0.83804 0.31978 0.0
C1292 C 0.52517 0.86073 0.29632 0.0
C1293 C 0.54715 0.91299 0.29025 0.0
N1294 N 0.56067 0.84662 0.31307 0.0
N1295 N 0.56255 0.90316 0.29552 0.0
H1296 H 0.11723 0.62823 0.32418 0.0
H1297 H 0.09139 0.74782 0.31191 0.0
H1298 H 0.07924 0.63521 0.28041 0.0
H1299 H 0.1468 0.74958 0.34899 0.0
H1300 H 0.07795 0.70189 0.30343 0.0
H1301 H 0.11888 0.66784 0.33663 0.0
C1302 C 0.10896 0.63791 0.31725 0.0
C1303 C 0.09854 0.62869 0.30113 0.0
C1304 C 0.09286 0.7123 0.31352 0.0
C1305 C 0.10026 0.67387 0.31531 0.0
C1306 C 0.10053 0.73848 0.31837 0.0
C1307 C 0.12054 0.75263 0.331 0.0
C1308 C 0.10516 0.70021 0.32145 0.0
C1309 C 0.1316 0.73952 0.33901 0.0
C1310 C 0.10987 0.66047 0.32437 0.0
C1311 C 0.08747 0.6416 0.29286 0.0
N1312 N 0.12387 0.71408 0.33404 0.0
N1313 N 0.08894 0.66376 0.29998 0.0
H1314 H 0.78981 0.01577 0.42246 0.0
H1315 H 0.73922 0.90944 0.34556 0.0
H1316 H 0.83517 0.0229 0.38251 0.0
H1317 H 0.68923 0.90782 0.38166 0.0
H1318 H 0.77427 0.95148 0.35881 0.0
H1319 H 0.7523 0.97706 0.40749 0.0
C1320 C 0.79181 0.00943 0.41046 0.0
C1321 C 0.8158 0.02255 0.40379 0.0
C1322 C 0.7556 0.94204 0.3638 0.0
C1323 C 0.77302 0.97793 0.3867 0.0
C1324 C 0.73557 0.91796 0.35626 0.0
C1325 C 0.71128 0.905 0.36256 0.0
C1326 C 0.75146 0.95322 0.37784 0.0
C1327 C 0.70765 0.91712 0.37639 0.0
C1328 C 0.77041 0.98721 0.40196 0.0
C1329 C 0.81727 0.01315 0.38827 0.0
N1330 N 0.72761 0.94047 0.38364 0.0
N1331 N 0.79626 0.99134 0.38032 0.0
H1332 H 0.98302 0.78314 0.42021 0.0
H1333 H 0.0592 0.8155 0.34132 0.0
H1334 H 0.9437 0.75403 0.3721 0.0
H1335 H 0.09526 0.81446 0.38761 0.0
H1336 H 0.01771 0.80116 0.35306 0.0
H1337 H 0.0255 0.80285 0.40895 0.0
C1338 C 0.98338 0.78112 0.40728 0.0
C1339 C 0.95992 0.76681 0.39706 0.0
C1340 C 0.03478 0.80423 0.36064 0.0
C1341 C 0.00816 0.78939 0.38414 0.0
C1342 C 0.05848 0.81254 0.35398 0.0
C1343 C 0.08068 0.81601 0.36347 0.0
C1344 C 0.03337 0.79977 0.37695 0.0
C1345 C 0.07856 0.81178 0.37981 0.0
C1346 C 0.00754 0.79223 0.40089 0.0
C1347 C 0.96139 0.76466 0.38039 0.0
N1348 N 0.05533 0.8039 0.38604 0.0
N1349 N 0.98509 0.77587 0.37445 0.0
H1350 H 0.24552 0.18444 0.36549 0.0
H1351 H 0.23383 0.31436 0.37763 0.0
H1352 H 0.30017 0.2541 0.39685 0.0
H1353 H 0.18031 0.24653 0.34452 0.0
H1354 H 0.25753 0.29184 0.38521 0.0
H1355 H 0.22074 0.20622 0.35796 0.0
C1356 C 0.25228 0.2043 0.37081 0.0
C1357 C 0.27497 0.21748 0.38181 0.0
C1358 C 0.2406 0.28183 0.3763 0.0
C1359 C 0.24678 0.24253 0.37321 0.0
C1360 C 0.22697 0.29468 0.37196 0.0
C1361 C 0.20503 0.28236 0.36037 0.0
C1362 C 0.2323 0.25642 0.36902 0.0
C1363 C 0.19711 0.25679 0.3535 0.0
C1364 C 0.23818 0.21674 0.36646 0.0
C1365 C 0.28301 0.24331 0.38817 0.0
N1366 N 0.21078 0.24467 0.35791 0.0
N1367 N 0.2689 0.25494 0.3838 0.0
H1368 H 0.67302 0.56135 0.75931 0.0
H1369 H 0.74793 0.5845 0.68024 0.0
H1370 H 0.64229 0.50538 0.71687 0.0
H1371 H 0.76729 0.64569 0.71869 0.0
H1372 H 0.70961 0.55467 0.69345 0.0
H1373 H 0.70832 0.5922 0.74463 0.0
C1374 C 0.67367 0.55563 0.74686 0.0
C1375 C 0.65476 0.53079 0.7393 0.0
C1376 C 0.72219 0.5747 0.6989 0.0
C1377 C 0.69518 0.56589 0.72242 0.0
C1378 C 0.74409 0.59171 0.69139 0.0
C1379 C 0.76089 0.61764 0.69836 0.0
C1380 C 0.71726 0.58363 0.71355 0.0
C1381 C 0.75491 0.62591 0.71282 0.0
C1382 C 0.69375 0.57326 0.73846 0.0
C1383 C 0.65637 0.52444 0.7231 0.0
N1384 N 0.73373 0.60893 0.71996 0.0
N1385 N 0.67638 0.54179 0.71523 0.0
H1386 H 0.47769 0.10965 0.70689 0.0
H1387 H 0.36048 0.13854 0.72093 0.0
H1388 H 0.4395 0.09513 0.75059 0.0
H1389 H 0.38887 0.13664 0.67476 0.0
H1390 H 0.39176 0.12665 0.73293 0.0
H1391 H 0.44797 0.12391 0.69594 0.0
C1392 C 0.46302 0.10939 0.7142 0.0
C1393 C 0.46099 0.10087 0.72965 0.0
C1394 C 0.3911 0.12885 0.72018 0.0
C1395 C 0.42694 0.11756 0.71718 0.0
C1396 C 0.37328 0.13567 0.71331 0.0
C1397 C 0.37195 0.13854 0.69677 0.0
C1398 C 0.40788 0.1251 0.71048 0.0
C1399 C 0.38902 0.13452 0.68752 0.0
C1400 C 0.44609 0.11765 0.70794 0.0
C1401 C 0.44197 0.10167 0.73867 0.0
N1402 N 0.40626 0.12808 0.6945 0.0
N1403 N 0.42562 0.10975 0.73228 0.0
H1404 H 0.97084 0.39264 0.72577 0.0
H1405 H 0.8353 0.27451 0.6813 0.0
H1406 H 0.90753 0.4033 0.7062 0.0
H1407 H 0.89695 0.26424 0.70424 0.0
H1408 H 0.86171 0.3219 0.68955 0.0
H1409 H 0.9445 0.34564 0.71686 0.0
C1410 C 0.95147 0.38512 0.71948 0.0
C1411 C 0.94136 0.40191 0.71674 0.0
C1412 C 0.8694 0.30923 0.69278 0.0
C1413 C 0.91093 0.34804 0.70666 0.0
C1414 C 0.85433 0.28219 0.68808 0.0
C1415 C 0.86392 0.26537 0.69207 0.0
C1416 C 0.89423 0.31949 0.70148 0.0
C1417 C 0.88872 0.27641 0.70088 0.0
C1418 C 0.93635 0.35824 0.71449 0.0
C1419 C 0.91596 0.39099 0.70874 0.0
N1420 N 0.90301 0.30274 0.70525 0.0
N1421 N 0.90161 0.36474 0.70398 0.0
H1422 H 0.18746 0.95895 0.60867 0.0
H1423 H 0.268 0.06842 0.68313 0.0
H1424 H 0.2006 0.94089 0.65648 0.0
H1425 H 0.26664 0.08644 0.63389 0.0
H1426 H 0.2399 0.02173 0.67394 0.0
H1427 H 0.21321 0.00586 0.61806 0.0
C1428 C 0.19579 0.96482 0.62114 0.0
C1429 C 0.19192 0.94588 0.63178 0.0
C1430 C 0.24571 0.0359 0.66514 0.0
C1431 C 0.22117 -0.00039 0.64265 0.0
C1432 C 0.26173 0.06259 0.67038 0.0
C1433 C 0.26977 0.08141 0.65926 0.0
C1434 C 0.23753 0.02789 0.64866 0.0
C1435 C 0.261 0.07264 0.64289 0.0
C1436 C 0.21039 0.99162 0.6265 0.0
C1437 C 0.20276 0.95471 0.64788 0.0
N1438 N 0.24536 0.0465 0.63808 0.0
N1439 N 0.21692 0.98091 0.6528 0.0
H1440 H 0.00058 0.25018 0.60669 0.0
H1441 H 0.90724 0.1815 0.67534 0.0
H1442 H 0.01964 0.21225 0.64366 0.0
H1443 H 0.8876 0.21611 0.63651 0.0
H1444 H 0.94776 0.19107 0.66358 0.0
H1445 H 0.95823 0.23597 0.6169 0.0
C1446 C 0.99578 0.23857 0.61683 0.0
C1447 C 0.01387 0.2325 0.62431 0.0
C1448 C 0.9345 0.19647 0.65762 0.0
C1449 C 0.96534 0.21654 0.63635 0.0
C1450 C 0.91135 0.19101 0.66434 0.0
C1451 C 0.89401 0.19817 0.65701 0.0
C1452 C 0.94037 0.20919 0.64348 0.0
C1453 C 0.9004 0.21039 0.64272 0.0
C1454 C 0.9716 0.23062 0.62275 0.0
C1455 C 0.00656 0.21779 0.63764 0.0
N1456 N 0.92304 0.21558 0.63649 0.0
N1457 N 0.98295 0.21043 0.64326 0.0
H1458 H 0.80842 0.84057 0.64711 0.0
H1459 H 0.78134 0.69265 0.64317 0.0
H1460 H 0.76001 0.78044 0.60837 0.0
H1461 H 0.83495 0.7547 0.67965 0.0
H1462 H 0.77 0.7234 0.63166 0.0
H1463 H 0.81456 0.80808 0.66073 0.0
C1464 C 0.79875 0.82043 0.64158 0.0
C1465 C 0.78375 0.81322 0.62655 0.0
C1466 C 0.78416 0.73026 0.64222 0.0
C1467 C 0.79108 0.77602 0.64195 0.0
C1468 C 0.79064 0.7127 0.64883 0.0
C1469 C 0.80923 0.72114 0.66237 0.0
C1470 C 0.79631 0.75645 0.64921 0.0
C1471 C 0.82062 0.74736 0.66916 0.0
C1472 C 0.80245 0.80193 0.6493 0.0
C1473 C 0.77204 0.78692 0.61984 0.0
N1474 N 0.81403 0.7641 0.66247 0.0
N1475 N 0.77605 0.76929 0.62755 0.0
H1476 H 0.04037 0.76748 0.65412 0.0
H1477 H 0.88605 0.71147 0.63726 0.0
H1478 H 0.00524 0.77844 0.61059 0.0
H1479 H 0.92591 0.72103 0.68439 0.0
H1480 H 0.92876 0.73357 0.62654 0.0
H1481 H 0.99766 0.7474 0.66464 0.0
C1482 C 0.02359 0.76551 0.64674 0.0
C1483 C 0.0263 0.77453 0.63144 0.0
C1484 C 0.92809 0.73095 0.63924 0.0
C1485 C 0.97733 0.75169 0.64343 0.0
C1486 C 0.90374 0.71833 0.64537 0.0
C1487 C 0.90237 0.71436 0.66176 0.0
C1488 C 0.95117 0.73935 0.64954 0.0
C1489 C 0.92595 0.72367 0.67169 0.0
C1490 C -0.00074 0.75424 0.6528 0.0
C1491 C 0.00399 0.77186 0.62249 0.0
N1492 N 0.94932 0.73555 0.66541 0.0
N1493 N 0.98037 0.76053 0.62858 0.0
H1494 H 0.16018 0.20493 0.63665 0.0
H1495 H 0.29593 0.20474 0.63388 0.0
H1496 H 0.21908 0.25092 0.60587 0.0
H1497 H 0.23753 0.16141 0.66564 0.0
H1498 H 0.26701 0.21962 0.62208 0.0
H1499 H 0.18704 0.18628 0.64586 0.0
C1500 C 0.17862 0.2109 0.63168 0.0
C1501 C 0.18738 0.22962 0.6205 0.0
C1502 C 0.26052 0.20677 0.63159 0.0
C1503 C 0.21854 0.20858 0.63121 0.0
C1504 C 0.27701 0.19824 0.63833 0.0
C1505 C 0.26927 0.18192 0.65086 0.0
C1506 C 0.23609 0.19889 0.63741 0.0
C1507 C 0.24448 0.1741 0.65609 0.0
C1508 C 0.19407 0.20037 0.63703 0.0
C1509 C 0.2117 0.23686 0.61469 0.0
N1510 N 0.22887 0.18272 0.64939 0.0
N1511 N 0.22645 0.2264 0.62014 0.0
H1512 H 0.75589 0.99068 0.60732 0.0
H1513 H 0.79917 0.09583 0.68447 0.0
H1514 H 0.79166 0.98489 0.65236 0.0
H1515 H 0.7873 0.11147 0.63578 0.0
H1516 H 0.7869 0.05077 0.67435 0.0
H1517 H 0.75731 0.03041 0.61932 0.0
C1518 C 0.76359 0.9975 0.61984 0.0
C1519 C 0.77387 0.98463 0.62884 0.0
C1520 C 0.78677 0.06404 0.66594 0.0
C1521 C 0.77583 0.03018 0.64256 0.0
C1522 C 0.79367 0.0897 0.67169 0.0
C1523 C 0.79452 0.10747 0.66091 0.0
C1524 C 0.78041 0.05611 0.64934 0.0
C1525 C 0.78721 0.09849 0.64448 0.0
C1526 C 0.76458 0.02027 0.62663 0.0
C1527 C 0.78388 0.99448 0.64495 0.0
N1528 N 0.78055 0.07346 0.63919 0.0
N1529 N 0.78477 0.01681 0.65129 0.0
H1530 H 0.50748 0.33737 0.72294 0.0
H1531 H 0.35248 0.24803 0.70251 0.0
H1532 H 0.45375 0.36421 0.73519 0.0
H1533 H 0.40859 0.23163 0.68128 0.0
H1534 H 0.38883 0.29047 0.71487 0.0
H1535 H 0.47113 0.29839 0.70775 0.0
C1536 C 0.48813 0.33532 0.72226 0.0
C1537 C 0.48379 0.35424 0.7304 0.0
C1538 C 0.3931 0.27763 0.7074 0.0
C1539 C 0.44175 0.30905 0.71327 0.0
C1540 C 0.37238 0.2534 0.70036 0.0
C1541 C 0.3775 0.23617 0.69093 0.0
C1542 C 0.41907 0.2845 0.70509 0.0
C1543 C 0.40367 0.24419 0.68852 0.0
C1544 C 0.46729 0.31289 0.71365 0.0
C1545 C 0.45803 0.35 0.72935 0.0
N1546 N 0.42344 0.26765 0.69564 0.0
N1547 N 0.43795 0.32777 0.72104 0.0
H1548 H 0.65665 0.13561 0.75388 0.0
H1549 H 0.72994 0.15085 0.67426 0.0
H1550 H 0.61877 0.0904 0.70803 0.0
H1551 H 0.77194 0.17982 0.72181 0.0
H1552 H 0.68863 0.13406 0.6862 0.0
H1553 H 0.69865 0.15717 0.74207 0.0
C1554 C 0.65716 0.13037 0.74132 0.0
C1555 C 0.63425 0.11104 0.73195 0.0
C1556 C 0.70688 0.14417 0.69403 0.0
C1557 C 0.68201 0.13561 0.71838 0.0
C1558 C 0.73055 0.1539 0.68722 0.0
C1559 C 0.75457 0.16666 0.69703 0.0
C1560 C 0.70705 0.14729 0.71083 0.0
C1561 C 0.75394 0.16993 0.71377 0.0
C1562 C 0.6811 0.14256 0.73462 0.0
C1563 C 0.63601 0.10491 0.71576 0.0
N1564 N 0.73056 0.16026 0.72014 0.0
N1565 N 0.65941 0.11714 0.70951 0.0
H1566 H 0.9465 0.56724 0.69357 0.0
H1567 H 0.85981 0.62983 0.72147 0.0
H1568 H 0.93232 0.57545 0.74305 0.0
H1569 H 0.86679 0.61192 0.67178 0.0
H1570 H 0.88608 0.60995 0.72981 0.0
H1571 H 0.91755 0.58411 0.68553 0.0
C1572 C 0.93721 0.57248 0.70275 0.0
C1573 C 0.94183 0.56986 0.71901 0.0
C1574 C 0.88169 0.61024 0.71709 0.0
C1575 C 0.90879 0.58947 0.7099 0.0
C1576 C 0.86663 0.62151 0.71231 0.0
C1577 C 0.86118 0.62268 0.6959 0.0
C1578 C 0.89146 0.60019 0.70537 0.0
C1579 C 0.87056 0.61159 0.68457 0.0
C1580 C 0.92073 0.5822 0.69815 0.0
C1581 C 0.92961 0.57746 0.7304 0.0
N1582 N 0.88535 0.60098 0.68953 0.0
N1583 N 0.91365 0.58692 0.72563 0.0
H1584 H 0.436 0.98296 0.19613 0.0
H1585 H 0.52794 0.99639 0.12646 0.0
H1586 H 0.49046 0.9538 0.19762 0.0
H1587 H 0.46488 0.01382 0.12144 0.0
H1588 H 0.51565 0.9824 0.15306 0.0
H1589 H 0.44716 0.99575 0.16913 0.0
C1590 C 0.45026 0.9792 0.19076 0.0
C1591 C 0.46229 0.96727 0.19914 0.0
C1592 C 0.50446 0.98924 0.14613 0.0
C1593 C 0.47523 0.98192 0.16827 0.0
C1594 C 0.5116 0.99742 0.131 0.0
C1595 C 0.49745 0.00633 0.12171 0.0
C1596 C 0.48312 0.99015 0.15213 0.0
C1597 C 0.47618 0.00686 0.12811 0.0
C1598 C 0.45656 0.98642 0.17533 0.0
C1599 C 0.48046 0.96265 0.19153 0.0
N1600 N 0.46973 -0.00102 0.14294 0.0
N1601 N 0.48648 0.97011 0.17658 0.0
H1602 H 0.01508 0.50091 0.20374 0.0
H1603 H 0.02608 0.49675 0.10891 0.0
H1604 H 0.08791 0.52956 0.18228 0.0
H1605 H 0.95225 0.46854 0.12917 0.0
H1606 H 0.04843 0.50605 0.1359 0.0
H1607 H 0.99112 0.48639 0.17674 0.0
C1608 C 0.026 0.50401 0.19336 0.0
C1609 C 0.05354 0.51667 0.19523 0.0
C1610 C 0.02732 0.49769 0.13448 0.0
C1611 C 0.02635 0.50025 0.16441 0.0
C1612 C 0.01448 0.49215 0.11903 0.0
C1613 C 0.9872 0.48178 0.11674 0.0
C1614 C 0.01287 0.49299 0.14784 0.0
C1615 C 0.97334 0.4768 0.13039 0.0
C1616 C 0.01234 0.49581 0.17797 0.0
C1617 C 0.06673 0.52034 0.18139 0.0
N1618 N 0.98635 0.48254 0.14538 0.0
N1619 N 0.05302 0.51223 0.16658 0.0
H1620 H 0.51244 0.53261 0.20363 0.0
H1621 H 0.46968 0.44789 0.1178 0.0
H1622 H 0.44811 0.45256 0.19536 0.0
H1623 H 0.52012 0.53231 0.12441 0.0
H1624 H 0.46303 0.44848 0.14639 0.0
H1625 H 0.5172 0.5322 0.17482 0.0
C1626 C 0.49937 0.51491 0.19573 0.0
C1627 C 0.47993 0.49253 0.20188 0.0
C1628 C 0.47545 0.46688 0.14157 0.0
C1629 C 0.48519 0.49194 0.16889 0.0
C1630 C 0.47935 0.46654 0.12529 0.0
C1631 C 0.49552 0.49008 0.11876 0.0
C1632 C 0.48803 0.49092 0.15143 0.0
C1633 C 0.50734 0.51374 0.12894 0.0
C1634 C 0.50197 0.51474 0.17928 0.0
C1635 C 0.46325 0.47027 0.19108 0.0
N1636 N 0.5035 0.51354 0.14479 0.0
N1637 N 0.46637 0.47047 0.17511 0.0
H1638 H 0.0249 0.48934 0.81419 0.0
H1639 H 0.98959 0.53045 0.89812 0.0
H1640 H 0.99073 0.53939 0.81904 0.0
H1641 H 0.02151 0.47846 0.89297 0.0
H1642 H 0.98981 0.53396 0.86916 0.0
H1643 H 0.02418 0.48543 0.8431 0.0
C1644 C 0.01743 0.49967 0.82136 0.0
C1645 C 0.00789 0.51474 0.81419 0.0
C1646 C 0.99668 0.52171 0.87435 0.0
C1647 C 0.00671 0.5101 0.84726 0.0
C1648 C 0.99664 0.51977 0.89089 0.0
C1649 C 0.00556 0.50415 0.89798 0.0
C1650 C 0.0058 0.50801 0.86481 0.0
C1651 C 0.01416 0.49047 0.888 0.0
C1652 C 0.01684 0.49728 0.83785 0.0
C1653 C 0.99802 0.52733 0.82403 0.0
N1654 N 0.01415 0.4928 0.87194 0.0
N1655 N 0.99771 0.52475 0.84006 0.0
H1656 H 0.54744 0.51037 0.83087 0.0
H1657 H 0.45217 0.44283 0.8988 0.0
H1658 H 0.50299 0.42647 0.83353 0.0
H1659 H 0.49677 0.52697 0.89715 0.0
H1660 H 0.46811 0.43657 0.87359 0.0
H1661 H 0.52652 0.51701 0.85375 0.0
C1662 C 0.53313 0.49335 0.83617 0.0
C1663 C 0.5272 0.46785 0.8304 0.0
C1664 C 0.47431 0.45642 0.87866 0.0
C1665 C 0.50332 0.47528 0.8566 0.0
C1666 C 0.46527 0.45999 0.89309 0.0
C1667 C 0.47331 0.48546 0.90016 0.0
C1668 C 0.49168 0.47847 0.87123 0.0
C1669 C 0.48995 0.50698 0.89208 0.0
C1670 C 0.52128 0.49715 0.84927 0.0
C1671 C 0.50859 0.44652 0.83779 0.0
N1672 N 0.49876 0.503 0.87811 0.0
N1673 N 0.49744 0.45073 0.85053 0.0
H1674 H 0.48774 0.98507 0.81646 0.0
H1675 H 0.5152 0.02701 0.91141 0.0
H1676 H 0.54004 0.06505 0.83715 0.0
H1677 H 0.47771 0.94634 0.8901 0.0
H1678 H 0.52326 0.04171 0.88454 0.0
H1679 H 0.48213 0.97093 0.84349 0.0
C1680 C 0.49797 -0.0003 0.82672 0.0
C1681 C 0.51425 0.02632 0.82454 0.0
C1682 C 0.51335 0.0208 0.88577 0.0
C1683 C 0.508 0.01022 0.85563 0.0
C1684 C 0.50884 0.01235 0.90114 0.0
C1685 C 0.49565 0.98532 0.90312 0.0
C1686 C 0.50446 0.00213 0.87222 0.0
C1687 C 0.4875 0.96734 0.88924 0.0
C1688 C 0.49489 0.99158 0.84216 0.0
C1689 C 0.52739 0.04432 0.83828 0.0
N1690 N 0.49194 0.97605 0.87443 0.0
N1691 N 0.52384 0.03597 0.85325 0.0
H1692 H 0.10947 0.26918 0.5211 0.0
H1693 H 0.20571 0.37908 0.46757 0.0
H1694 H 0.17096 0.34675 0.54071 0.0
H1695 H 0.13825 0.30561 0.44722 0.0
H1696 H 0.19422 0.36669 0.49449 0.0
H1697 H 0.12082 0.28113 0.49397 0.0
C1698 C 0.12538 0.28869 0.51971 0.0
C1699 C 0.13919 0.30702 0.53322 0.0
C1700 C 0.18192 0.35326 0.48414 0.0
C1701 C 0.15228 0.32085 0.5022 0.0
C1702 C 0.1884 0.36039 0.46873 0.0
C1703 C 0.17292 0.34343 0.45503 0.0
C1704 C 0.1598 0.32891 0.48595 0.0
C1705 C 0.151 0.3192 0.45738 0.0
C1706 C 0.13178 0.29555 0.50421 0.0
C1707 C 0.15949 0.33211 0.53066 0.0
N1708 N 0.14509 0.3127 0.47252 0.0
N1709 N 0.16544 0.33824 0.51549 0.0
H1710 H 0.72511 0.91313 0.52647 0.0
H1711 H 0.63342 0.80184 0.4551 0.0
H1712 H 0.7022 0.83106 0.52696 0.0
H1713 H 0.66553 0.88516 0.45209 0.0
H1714 H 0.65329 0.81145 0.48297 0.0
H1715 H 0.69855 0.90248 0.50066 0.0
C1716 C 0.71449 0.89286 0.52114 0.0
C1717 C 0.71617 0.87301 0.52879 0.0
C1718 C 0.65583 0.82762 0.47625 0.0
C1719 C 0.68548 0.86063 0.4993 0.0
C1720 C 0.64434 0.82214 0.46038 0.0
C1721 C 0.64799 0.84276 0.45124 0.0
C1722 C 0.67101 0.8539 0.48304 0.0
C1723 C 0.66257 0.8687 0.45863 0.0
C1724 C 0.69922 0.88677 0.50644 0.0
C1725 C 0.70143 0.84698 0.52153 0.0
N1726 N 0.67365 0.87354 0.47407 0.0
N1727 N 0.68685 0.84156 0.50712 0.0
H1728 H 0.18478 0.85381 0.54064 0.0
H1729 H 0.12405 0.78577 0.45116 0.0
H1730 H 0.10527 0.78968 0.52927 0.0
H1731 H 0.19499 0.86107 0.46186 0.0
H1732 H 0.11781 0.7852 0.47982 0.0
H1733 H 0.19005 0.855 0.51189 0.0
C1734 C 0.16848 0.83988 0.53207 0.0
C1735 C 0.14459 0.82154 0.53732 0.0
C1736 C 0.13467 0.8019 0.47589 0.0
C1737 C 0.15041 0.82288 0.50441 0.0
C1738 C 0.1383 0.80218 0.45956 0.0
C1739 C 0.16009 0.82348 0.45415 0.0
C1740 C 0.15312 0.82294 0.48692 0.0
C1741 C 0.1778 0.84437 0.46551 0.0
C1742 C 0.17143 0.8407 0.51567 0.0
C1743 C 0.12396 0.80422 0.5257 0.0
N1744 N 0.17402 0.8435 0.48137 0.0
N1745 N 0.12739 0.80521 0.50978 0.0
H1746 H 0.66082 0.79954 0.14795 0.0
H1747 H 0.70621 0.8883 0.23272 0.0
H1748 H 0.69876 0.88442 0.15248 0.0
H1749 H 0.66264 0.8033 0.22771 0.0
H1750 H 0.70449 0.88744 0.2034 0.0
H1751 H 0.66261 0.80069 0.17722 0.0
C1752 C 0.66977 0.81846 0.15512 0.0
C1753 C 0.67975 0.84194 0.14776 0.0
C1754 C 0.69523 0.86898 0.20871 0.0
C1755 C 0.6815 0.84338 0.18131 0.0
C1756 C 0.69628 0.86945 0.22544 0.0
C1757 C 0.68459 0.84583 0.23266 0.0
C1758 C 0.6825 0.84469 0.19911 0.0
C1759 C 0.67168 0.82198 0.22265 0.0
C1760 C 0.67058 0.81909 0.17183 0.0
C1761 C 0.69065 0.86584 0.15765 0.0
N1762 N 0.67108 0.82202 0.20639 0.0
N1763 N 0.69127 0.86595 0.17393 0.0
H1764 H 0.16815 0.81235 0.15157 0.0
H1765 H 0.20524 0.87234 0.24405 0.0
H1766 H 0.24197 0.83424 0.17865 0.0
H1767 H 0.12528 0.82521 0.22205 0.0
H1768 H 0.22072 0.86713 0.2184 0.0
H1769 H 0.15407 0.82583 0.17565 0.0
C1770 C 0.18151 0.82036 0.16252 0.0
C1771 C 0.20615 0.82201 0.16321 0.0
C1772 C 0.1998 0.85814 0.21919 0.0
C1773 C 0.19029 0.83745 0.19066 0.0
C1774 C 0.1909 0.86098 0.23385 0.0
C1775 C 0.16385 0.84887 0.23536 0.0
C1776 C 0.18157 0.84328 0.20585 0.0
C1777 C 0.1463 0.83505 0.22152 0.0
C1778 C 0.17343 0.82789 0.17625 0.0
C1779 C 0.22268 0.83236 0.1777 0.0
N1780 N 0.15546 0.83249 0.20738 0.0
N1781 N 0.21444 0.83963 0.19087 0.0
H1782 H 0.17027 0.31309 0.15106 0.0
H1783 H 0.16495 0.35197 0.24367 0.0
H1784 H 0.18406 0.38971 0.16925 0.0
H1785 H 0.1574 0.27782 0.22561 0.0
H1786 H 0.17208 0.36631 0.21668 0.0
H1787 H 0.16533 0.29995 0.17833 0.0
C1788 C 0.17218 0.32716 0.16079 0.0
C1789 C 0.17741 0.35251 0.1578 0.0
C1790 C 0.16891 0.34692 0.21863 0.0
C1791 C 0.17193 0.33758 0.18922 0.0
C1792 C 0.16496 0.33874 0.23408 0.0
C1793 C 0.16053 0.31358 0.237 0.0
C1794 C 0.16837 0.32985 0.20592 0.0
C1795 C 0.16033 0.29721 0.22396 0.0
C1796 C 0.16949 0.31967 0.1764 0.0
C1797 C 0.18019 0.37003 0.17098 0.0
N1798 N 0.16416 0.3056 0.20903 0.0
N1799 N 0.17728 0.3622 0.18609 0.0
H1800 H 0.76431 0.62164 0.85869 0.0
H1801 H 0.87386 0.7052 0.80114 0.0
H1802 H 0.84728 0.66761 0.87432 0.0
H1803 H 0.79107 0.65947 0.78494 0.0
H1804 H 0.8642 0.69207 0.82814 0.0
H1805 H 0.77339 0.63568 0.83171 0.0
C1806 C 0.78441 0.63476 0.85647 0.0
C1807 C 0.80507 0.64333 0.86879 0.0
C1808 C 0.84812 0.68491 0.8187 0.0
C1809 C 0.81563 0.65936 0.83791 0.0
C1810 C 0.85361 0.69255 0.80328 0.0
C1811 C 0.83325 0.68348 0.79072 0.0
C1812 C 0.82204 0.66805 0.82166 0.0
C1813 C 0.80743 0.66671 0.79419 0.0
C1814 C 0.7896 0.64267 0.84105 0.0
C1815 C 0.83077 0.66012 0.86516 0.0
N1816 N 0.80256 0.65955 0.80932 0.0
N1817 N 0.8353 0.66756 0.85008 0.0
H1818 H 0.34373 0.16804 0.86513 0.0
H1819 H 0.33407 0.12431 0.77216 0.0
H1820 H 0.39854 0.14997 0.84372 0.0
H1821 H 0.27484 0.1359 0.79315 0.0
H1822 H 0.3539 0.12691 0.799 0.0
H1823 H 0.31471 0.15035 0.83986 0.0
C1824 C 0.34944 0.15996 0.8552 0.0
C1825 C 0.37378 0.16092 0.85639 0.0
C1826 C 0.33636 0.12855 0.79778 0.0
C1827 C 0.3409 0.14089 0.82749 0.0
C1828 C 0.32481 0.1268 0.78239 0.0
C1829 C 0.30287 0.13023 0.78031 0.0
C1830 C 0.3262 0.13414 0.81127 0.0
C1831 C 0.29213 0.13382 0.79414 0.0
C1832 C 0.33293 0.14995 0.84077 0.0
C1833 C 0.38024 0.15021 0.84317 0.0
N1834 N 0.30413 0.13609 0.80904 0.0
N1835 N 0.36406 0.14093 0.82923 0.0
H1836 H 0.79131 0.10735 0.86313 0.0
H1837 H 0.80816 0.18243 0.78415 0.0
H1838 H 0.8075 0.18754 0.86372 0.0
H1839 H 0.81907 0.1151 0.78602 0.0
H1840 H 0.79918 0.17992 0.81231 0.0
H1841 H 0.79313 0.10555 0.83383 0.0
C1842 C 0.79496 0.12444 0.85704 0.0
C1843 C 0.79944 0.14769 0.8658 0.0
C1844 C 0.80336 0.16558 0.80653 0.0
C1845 C 0.80144 0.14575 0.83248 0.0
C1846 C 0.80827 0.16686 0.79043 0.0
C1847 C 0.81442 0.14897 0.78275 0.0
C1848 C 0.80441 0.14616 0.81503 0.0
C1849 C 0.81466 0.12943 0.79155 0.0
C1850 C 0.79614 0.12346 0.84039 0.0
C1851 C 0.80424 0.16936 0.8574 0.0
N1852 N 0.80977 0.12855 0.80725 0.0
N1853 N 0.80511 0.16786 0.84121 0.0
H1854 H 0.33317 0.12983 0.47891 0.0
H1855 H 0.35364 0.21064 0.56412 0.0
H1856 H 0.34848 0.20994 0.48411 0.0
H1857 H 0.32933 0.12792 0.5583 0.0
H1858 H 0.3521 0.21093 0.53486 0.0
H1859 H 0.3324 0.12902 0.50804 0.0
C1860 C 0.33655 0.14732 0.48621 0.0
C1861 C 0.34103 0.17004 0.47909 0.0
C1862 C 0.34696 0.19268 0.53997 0.0
C1863 C 0.33989 0.16915 0.51243 0.0
C1864 C 0.34792 0.19252 0.55667 0.0
C1865 C 0.3417 0.16924 0.56365 0.0
C1866 C 0.3399 0.16942 0.53017 0.0
C1867 C 0.33407 0.14625 0.55342 0.0
C1868 C 0.33589 0.14677 0.50282 0.0
C1869 C 0.34478 0.19195 0.48909 0.0
N1870 N 0.33356 0.14696 0.5372 0.0
N1871 N 0.34423 0.191 0.50526 0.0
H1872 H 0.84693 0.15403 0.488 0.0
H1873 H 0.8769 0.20123 0.58255 0.0
H1874 H 0.91302 0.16166 0.51807 0.0
H1875 H 0.80231 0.17732 0.55565 0.0
H1876 H 0.89312 0.19339 0.5579 0.0
H1877 H 0.83307 0.16913 0.51155 0.0
C1878 C 0.85867 0.15919 0.49951 0.0
C1879 C 0.88102 0.15639 0.50115 0.0
C1880 C 0.87323 0.18995 0.55735 0.0
C1881 C 0.86534 0.17359 0.52803 0.0
C1882 C 0.8639 0.19432 0.57144 0.0
C1883 C 0.83803 0.18951 0.57124 0.0
C1884 C 0.85666 0.18075 0.54285 0.0
C1885 C 0.82238 0.1813 0.55638 0.0
C1886 C 0.85069 0.16765 0.51294 0.0
C1887 C 0.89545 0.16317 0.51634 0.0
N1888 N 0.83187 0.17697 0.54278 0.0
N1889 N 0.88734 0.17138 0.52918 0.0
H1890 H 0.81828 0.64453 0.48335 0.0
H1891 H 0.84802 0.69595 0.5771 0.0
H1892 H 0.85986 0.72716 0.50093 0.0
H1893 H 0.79145 0.61603 0.55806 0.0
H1894 H 0.85534 0.70765 0.54957 0.0
H1895 H 0.81143 0.63357 0.51094 0.0
C1896 C 0.82588 0.66042 0.49299 0.0
C1897 C 0.83949 0.68686 0.48972 0.0
C1898 C 0.84131 0.68757 0.55145 0.0
C1899 C 0.83203 0.67433 0.52151 0.0
C1900 C 0.83697 0.68088 0.56717 0.0
C1901 C 0.81907 0.6549 0.56999 0.0
C1902 C 0.82781 0.66814 0.5384 0.0
C1903 C 0.80576 0.63618 0.55657 0.0
C1904 C 0.82204 0.65411 0.50877 0.0
C1905 C 0.84945 0.70651 0.50283 0.0
N1906 N 0.81045 0.64315 0.5414 0.0
N1907 N 0.84549 0.69985 0.51813 0.0
loop_
_geom_bond_atom_site_label_1
_geom_bond_atom_site_label_2
_geom_bond_distance
_geom_bond_site_symmetry_2
_ccdc_geom_bond_type
P0 O11 1.490 . S
P0 C14 1.812 . S
P0 C20 1.803 . S
P0 C26 1.819 . S
H1 C15 0.941 . S
H2 C16 0.939 . S
H3 C18 0.940 . S
H4 C19 0.940 . S
H5 C21 0.939 . S
H6 C22 0.942 . S
H7 C24 0.940 . S
H8 C25 0.939 . S
H9 C27 0.941 . S
H10 C31 0.939 . S
O11 P0 1.490 . S
H12 C28 0.939 . S
H13 C30 0.940 . S
C14 P0 1.812 . S
C14 C15 1.389 . S
C14 C19 1.391 . S
C15 H1 0.941 . S
C15 C14 1.389 . S
C15 C16 1.397 . S
C16 H2 0.939 . S
C16 C15 1.397 . S
C16 C17 1.378 . S
C17 C16 1.378 . S
C17 C18 1.378 . S
C18 H3 0.940 . S
C18 C17 1.378 . S
C18 C19 1.396 . S
C19 H4 0.940 . S
C19 C14 1.391 . S
C19 C18 1.396 . S
C20 P0 1.803 . S
C20 C21 1.378 . S
C20 C25 1.400 . S
C21 H5 0.939 . S
C21 C20 1.378 . S
C21 C22 1.361 . S
C22 H6 0.942 . S
C22 C21 1.361 . S
C22 C23 1.369 . S
C23 C22 1.369 . S
C23 C24 1.404 . S
C24 H7 0.940 . S
C24 C23 1.404 . S
C24 C25 1.389 . S
C25 H8 0.939 . S
C25 C20 1.400 . S
C25 C24 1.389 . S
C26 P0 1.819 . S
C26 C27 1.391 . S
C26 C31 1.391 . S
C27 H9 0.941 . S
C27 C26 1.391 . S
C27 C28 1.396 . S
C28 H12 0.939 . S
C28 C27 1.396 . S
C28 C29 1.397 . S
C29 C28 1.397 . S
C29 C30 1.385 . S
C30 H13 0.940 . S
C30 C29 1.385 . S
C30 C31 1.388 . S
C31 H10 0.939 . S
C31 C26 1.391 . S
C31 C30 1.388 . S
P32 O43 1.490 . S
P32 C46 1.812 . S
P32 C52 1.803 . S
P32 C58 1.819 . S
H33 C47 0.941 . S
H34 C48 0.939 . S
H35 C50 0.940 . S
H36 C51 0.940 . S
H37 C53 0.939 . S
H38 C54 0.942 . S
H39 C56 0.940 . S
H40 C57 0.939 . S
H41 C59 0.941 . S
H42 C63 0.939 . S
O43 P32 1.490 . S
H44 C60 0.939 . S
H45 C62 0.940 . S
C46 P32 1.812 . S
C46 C47 1.389 . S
C46 C51 1.391 . S
C47 H33 0.941 . S
C47 C46 1.389 . S
C47 C48 1.397 . S
C48 H34 0.939 . S
C48 C47 1.397 . S
C48 C49 1.378 . S
C49 C48 1.378 . S
C49 C50 1.378 . S
C50 H35 0.940 . S
C50 C49 1.378 . S
C50 C51 1.396 . S
C51 H36 0.940 . S
C51 C46 1.391 . S
C51 C50 1.396 . S
C52 P32 1.803 . S
C52 C53 1.378 . S
C52 C57 1.400 . S
C53 H37 0.939 . S
C53 C52 1.378 . S
C53 C54 1.361 . S
C54 H38 0.942 . S
C54 C53 1.361 . S
C54 C55 1.369 . S
C55 C54 1.369 . S
C55 C56 1.404 . S
C56 H39 0.940 . S
C56 C55 1.404 . S
C56 C57 1.389 . S
C57 H40 0.939 . S
C57 C52 1.400 . S
C57 C56 1.389 . S
C58 P32 1.819 . S
C58 C59 1.391 . S
C58 C63 1.391 . S
C59 H41 0.941 . S
C59 C58 1.391 . S
C59 C60 1.396 . S
C60 H44 0.939 . S
C60 C59 1.396 . S
C60 C61 1.397 . S
C61 C60 1.397 . S
C61 C62 1.385 . S
C62 H45 0.940 . S
C62 C61 1.385 . S
C62 C63 1.388 . S
C63 H42 0.939 . S
C63 C58 1.391 . S
C63 C62 1.388 . S
P64 O75 1.490 . S
P64 C78 1.812 . S
P64 C84 1.803 . S
P64 C90 1.819 . S
H65 C79 0.941 . S
H66 C80 0.939 . S
H67 C82 0.940 . S
H68 C83 0.940 . S
H69 C85 0.939 . S
H70 C86 0.942 . S
H71 C88 0.940 . S
H72 C89 0.939 . S
H73 C91 0.941 . S
H74 C95 0.939 . S
O75 P64 1.490 . S
H76 C92 0.939 . S
H77 C94 0.940 . S
C78 P64 1.812 . S
C78 C79 1.389 . S
C78 C83 1.391 . S
C79 H65 0.941 . S
C79 C78 1.389 . S
C79 C80 1.397 . S
C80 H66 0.939 . S
C80 C79 1.397 . S
C80 C81 1.378 . S
C81 C80 1.378 . S
C81 C82 1.378 . S
C82 H67 0.940 . S
C82 C81 1.378 . S
C82 C83 1.396 . S
C83 H68 0.940 . S
C83 C78 1.391 . S
C83 C82 1.396 . S
C84 P64 1.803 . S
C84 C85 1.378 . S
C84 C89 1.400 . S
C85 H69 0.939 . S
C85 C84 1.378 . S
C85 C86 1.361 . S
C86 H70 0.942 . S
C86 C85 1.361 . S
C86 C87 1.369 . S
C87 C86 1.369 . S
C87 C88 1.404 . S
C88 H71 0.940 . S
C88 C87 1.404 . S
C88 C89 1.389 . S
C89 H72 0.939 . S
C89 C84 1.400 . S
C89 C88 1.389 . S
C90 P64 1.819 . S
C90 C91 1.391 . S
C90 C95 1.391 . S
C91 H73 0.941 . S
C91 C90 1.391 . S
C91 C92 1.396 . S
C92 H76 0.939 . S
C92 C91 1.396 . S
C92 C93 1.397 . S
C93 C92 1.397 . S
C93 C94 1.385 . S
C94 H77 0.940 . S
C94 C93 1.385 . S
C94 C95 1.388 . S
C95 H74 0.939 . S
C95 C90 1.391 . S
C95 C94 1.388 . S
P96 O107 1.490 . S
P96 C110 1.812 . S
P96 C116 1.803 . S
P96 C122 1.819 . S
H97 C111 0.941 . S
H98 C112 0.939 . S
H99 C114 0.940 . S
H100 C115 0.940 . S
H101 C117 0.939 . S
H102 C118 0.942 . S
H103 C120 0.940 . S
H104 C121 0.939 . S
H105 C123 0.941 . S
H106 C127 0.939 . S
O107 P96 1.490 . S
H108 C124 0.939 . S
H109 C126 0.940 . S
C110 P96 1.812 . S
C110 C111 1.389 . S
C110 C115 1.391 . S
C111 H97 0.941 . S
C111 C110 1.389 . S
C111 C112 1.397 . S
C112 H98 0.939 . S
C112 C111 1.397 . S
C112 C113 1.378 . S
C113 C112 1.378 . S
C113 C114 1.378 . S
C114 H99 0.940 . S
C114 C113 1.378 . S
C114 C115 1.396 . S
C115 H100 0.940 . S
C115 C110 1.391 . S
C115 C114 1.396 . S
C116 P96 1.803 . S
C116 C117 1.378 . S
C116 C121 1.400 . S
C117 H101 0.939 . S
C117 C116 1.378 . S
C117 C118 1.361 . S
C118 H102 0.942 . S
C118 C117 1.361 . S
C118 C119 1.369 . S
C119 C118 1.369 . S
C119 C120 1.404 . S
C120 H103 0.940 . S
C120 C119 1.404 . S
C120 C121 1.389 . S
C121 H104 0.939 . S
C121 C116 1.400 . S
C121 C120 1.389 . S
C122 P96 1.819 . S
C122 C123 1.391 . S
C122 C127 1.391 . S
C123 H105 0.941 . S
C123 C122 1.391 . S
C123 C124 1.396 . S
C124 H108 0.939 . S
C124 C123 1.396 . S
C124 C125 1.397 . S
C125 C124 1.397 . S
C125 C126 1.385 . S
C126 H109 0.940 . S
C126 C125 1.385 . S
C126 C127 1.388 . S
C127 H106 0.939 . S
C127 C122 1.391 . S
C127 C126 1.388 . S
P128 O139 1.490 . S
P128 C142 1.812 . S
P128 C148 1.803 . S
P128 C154 1.819 . S
H129 C143 0.941 . S
H130 C144 0.939 . S
H131 C146 0.940 . S
H132 C147 0.940 . S
H133 C149 0.939 . S
H134 C150 0.942 . S
H135 C152 0.940 . S
H136 C153 0.939 . S
H137 C155 0.941 . S
H138 C159 0.939 . S
O139 P128 1.490 . S
H140 C156 0.939 . S
H141 C158 0.940 . S
C142 P128 1.812 . S
C142 C143 1.389 . S
C142 C147 1.391 . S
C143 H129 0.941 . S
C143 C142 1.389 . S
C143 C144 1.397 . S
C144 H130 0.939 . S
C144 C143 1.397 . S
C144 C145 1.378 . S
C145 C144 1.378 . S
C145 C146 1.378 . S
C146 H131 0.940 . S
C146 C145 1.378 . S
C146 C147 1.396 . S
C147 H132 0.940 . S
C147 C142 1.391 . S
C147 C146 1.396 . S
C148 P128 1.803 . S
C148 C149 1.378 . S
C148 C153 1.400 . S
C149 H133 0.939 . S
C149 C148 1.378 . S
C149 C150 1.361 . S
C150 H134 0.942 . S
C150 C149 1.361 . S
C150 C151 1.369 . S
C151 C150 1.369 . S
C151 C152 1.404 . S
C152 H135 0.940 . S
C152 C151 1.404 . S
C152 C153 1.389 . S
C153 H136 0.939 . S
C153 C148 1.400 . S
C153 C152 1.389 . S
C154 P128 1.819 . S
C154 C155 1.391 . S
C154 C159 1.391 . S
C155 H137 0.941 . S
C155 C154 1.391 . S
C155 C156 1.396 . S
C156 H140 0.939 . S
C156 C155 1.396 . S
C156 C157 1.397 . S
C157 C156 1.397 . S
C157 C158 1.385 . S
C158 H141 0.940 . S
C158 C157 1.385 . S
C158 C159 1.388 . S
C159 H138 0.939 . S
C159 C154 1.391 . S
C159 C158 1.388 . S
P160 O171 1.490 . S
P160 C174 1.812 . S
P160 C180 1.803 . S
P160 C186 1.819 . S
H161 C175 0.941 . S
H162 C176 0.939 . S
H163 C178 0.940 . S
H164 C179 0.940 . S
H165 C181 0.939 . S
H166 C182 0.942 . S
H167 C184 0.940 . S
H168 C185 0.939 . S
H169 C187 0.941 . S
H170 C191 0.939 . S
O171 P160 1.490 . S
H172 C188 0.939 . S
H173 C190 0.940 . S
C174 P160 1.812 . S
C174 C175 1.389 . S
C174 C179 1.391 . S
C175 H161 0.941 . S
C175 C174 1.389 . S
C175 C176 1.397 . S
C176 H162 0.939 . S
C176 C175 1.397 . S
C176 C177 1.378 . S
C177 C176 1.378 . S
C177 C178 1.378 . S
C178 H163 0.940 . S
C178 C177 1.378 . S
C178 C179 1.396 . S
C179 H164 0.940 . S
C179 C174 1.391 . S
C179 C178 1.396 . S
C180 P160 1.803 . S
C180 C181 1.378 . S
C180 C185 1.400 . S
C181 H165 0.939 . S
C181 C180 1.378 . S
C181 C182 1.361 . S
C182 H166 0.942 . S
C182 C181 1.361 . S
C182 C183 1.369 . S
C183 C182 1.369 . S
C183 C184 1.404 . S
C184 H167 0.940 . S
C184 C183 1.404 . S
C184 C185 1.389 . S
C185 H168 0.939 . S
C185 C180 1.400 . S
C185 C184 1.389 . S
C186 P160 1.819 . S
C186 C187 1.391 . S
C186 C191 1.391 . S
C187 H169 0.941 . S
C187 C186 1.391 . S
C187 C188 1.396 . S
C188 H172 0.939 . S
C188 C187 1.396 . S
C188 C189 1.397 . S
C189 C188 1.397 . S
C189 C190 1.385 . S
C190 H173 0.940 . S
C190 C189 1.385 . S
C190 C191 1.388 . S
C191 H170 0.939 . S
C191 C186 1.391 . S
C191 C190 1.388 . S
P192 O203 1.490 1_655 S
P192 C206 1.812 . S
P192 C212 1.803 . S
P192 C218 1.819 . S
H193 C207 0.941 . S
H194 C208 0.939 . S
H195 C210 0.940 . S
H196 C211 0.940 . S
H197 C213 0.939 1_455 S
H198 C214 0.942 . S
H199 C216 0.940 . S
H200 C217 0.939 . S
H201 C219 0.941 . S
H202 C223 0.939 . S
O203 P192 1.490 1_455 S
H204 C220 0.939 . S
H205 C222 0.940 . S
C206 P192 1.812 . S
C206 C207 1.389 . S
C206 C211 1.391 . S
C207 H193 0.941 . S
C207 C206 1.389 . S
C207 C208 1.397 . S
C208 H194 0.939 . S
C208 C207 1.397 . S
C208 C209 1.378 . S
C209 C208 1.378 . S
C209 C210 1.378 . S
C210 H195 0.940 . S
C210 C209 1.378 . S
C210 C211 1.396 . S
C211 H196 0.940 . S
C211 C206 1.391 . S
C211 C210 1.396 . S
C212 P192 1.803 . S
C212 C213 1.378 . S
C212 C217 1.400 . S
C213 H197 0.939 1_655 S
C213 C212 1.378 . S
C213 C214 1.361 . S
C214 H198 0.942 . S
C214 C213 1.361 . S
C214 C215 1.369 . S
C215 C214 1.369 . S
C215 C216 1.404 . S
C216 H199 0.940 . S
C216 C215 1.404 . S
C216 C217 1.389 . S
C217 H200 0.939 . S
C217 C212 1.400 . S
C217 C216 1.389 . S
C218 P192 1.819 . S
C218 C219 1.391 1_655 S
C218 C223 1.391 . S
C219 H201 0.941 . S
C219 C218 1.391 1_455 S
C219 C220 1.396 . S
C220 H204 0.939 . S
C220 C219 1.396 . S
C220 C221 1.397 1_455 S
C221 C220 1.397 1_655 S
C221 C222 1.385 . S
C222 H205 0.940 . S
C222 C221 1.385 . S
C222 C223 1.388 . S
C223 H202 0.939 . S
C223 C218 1.391 . S
C223 C222 1.388 . S
P224 O235 1.490 . S
P224 C238 1.812 . S
P224 C244 1.803 . S
P224 C250 1.819 . S
H225 C239 0.941 . S
H226 C240 0.939 . S
H227 C242 0.940 . S
H228 C243 0.940 . S
H229 C245 0.939 . S
H230 C246 0.942 . S
H231 C248 0.940 . S
H232 C249 0.939 . S
H233 C251 0.941 . S
H234 C255 0.939 . S
O235 P224 1.490 . S
H236 C252 0.939 . S
H237 C254 0.940 . S
C238 P224 1.812 . S
C238 C239 1.389 . S
C238 C243 1.391 . S
C239 H225 0.941 . S
C239 C238 1.389 . S
C239 C240 1.397 . S
C240 H226 0.939 . S
C240 C239 1.397 . S
C240 C241 1.378 . S
C241 C240 1.378 . S
C241 C242 1.378 . S
C242 H227 0.940 . S
C242 C241 1.378 . S
C242 C243 1.396 . S
C243 H228 0.940 . S
C243 C238 1.391 . S
C243 C242 1.396 . S
C244 P224 1.803 . S
C244 C245 1.378 . S
C244 C249 1.400 . S
C245 H229 0.939 . S
C245 C244 1.378 . S
C245 C246 1.361 . S
C246 H230 0.942 . S
C246 C245 1.361 . S
C246 C247 1.369 . S
C247 C246 1.369 . S
C247 C248 1.404 . S
C248 H231 0.940 . S
C248 C247 1.404 . S
C248 C249 1.389 . S
C249 H232 0.939 . S
C249 C244 1.400 . S
C249 C248 1.389 . S
C250 P224 1.819 . S
C250 C251 1.391 . S
C250 C255 1.391 . S
C251 H233 0.941 . S
C251 C250 1.391 . S
C251 C252 1.396 . S
C252 H236 0.939 . S
C252 C251 1.396 . S
C252 C253 1.397 . S
C253 C252 1.397 . S
C253 C254 1.385 . S
C254 H237 0.940 . S
C254 C253 1.385 . S
C254 C255 1.388 . S
C255 H234 0.939 . S
C255 C250 1.391 . S
C255 C254 1.388 . S
P256 O267 1.490 . S
P256 C270 1.812 . S
P256 C276 1.803 . S
P256 C282 1.819 . S
H257 C271 0.941 . S
H258 C272 0.939 . S
H259 C274 0.940 . S
H260 C275 0.940 . S
H261 C277 0.939 . S
H262 C278 0.942 . S
H263 C280 0.940 . S
H264 C281 0.939 . S
H265 C283 0.941 . S
H266 C287 0.939 . S
O267 P256 1.490 . S
H268 C284 0.939 . S
H269 C286 0.940 . S
C270 P256 1.812 . S
C270 C271 1.389 . S
C270 C275 1.391 . S
C271 H257 0.941 . S
C271 C270 1.389 . S
C271 C272 1.397 . S
C272 H258 0.939 . S
C272 C271 1.397 . S
C272 C273 1.378 . S
C273 C272 1.378 . S
C273 C274 1.378 . S
C274 H259 0.940 . S
C274 C273 1.378 . S
C274 C275 1.396 . S
C275 H260 0.940 . S
C275 C270 1.391 . S
C275 C274 1.396 . S
C276 P256 1.803 . S
C276 C277 1.378 . S
C276 C281 1.400 . S
C277 H261 0.939 . S
C277 C276 1.378 . S
C277 C278 1.361 . S
C278 H262 0.942 . S
C278 C277 1.361 . S
C278 C279 1.369 . S
C279 C278 1.369 . S
C279 C280 1.404 . S
C280 H263 0.940 . S
C280 C279 1.404 . S
C280 C281 1.389 . S
C281 H264 0.939 . S
C281 C276 1.400 . S
C281 C280 1.389 . S
C282 P256 1.819 . S
C282 C283 1.391 . S
C282 C287 1.391 . S
C283 H265 0.941 . S
C283 C282 1.391 . S
C283 C284 1.396 . S
C284 H268 0.939 . S
C284 C283 1.396 . S
C284 C285 1.397 . S
C285 C284 1.397 . S
C285 C286 1.385 . S
C286 H269 0.940 . S
C286 C285 1.385 . S
C286 C287 1.388 . S
C287 H266 0.939 . S
C287 C282 1.391 . S
C287 C286 1.388 . S
P288 O299 1.490 . S
P288 C302 1.812 . S
P288 C308 1.803 . S
P288 C314 1.819 . S
H289 C303 0.941 . S
H290 C304 0.939 . S
H291 C306 0.940 . S
H292 C307 0.940 . S
H293 C309 0.939 . S
H294 C310 0.942 . S
H295 C312 0.940 . S
H296 C313 0.939 . S
H297 C315 0.941 . S
H298 C319 0.939 . S
O299 P288 1.490 . S
H300 C316 0.939 . S
H301 C318 0.940 . S
C302 P288 1.812 . S
C302 C303 1.389 . S
C302 C307 1.391 . S
C303 H289 0.941 . S
C303 C302 1.389 . S
C303 C304 1.397 . S
C304 H290 0.939 . S
C304 C303 1.397 . S
C304 C305 1.378 . S
C305 C304 1.378 . S
C305 C306 1.378 . S
C306 H291 0.940 . S
C306 C305 1.378 . S
C306 C307 1.396 . S
C307 H292 0.940 . S
C307 C302 1.391 . S
C307 C306 1.396 . S
C308 P288 1.803 . S
C308 C309 1.378 . S
C308 C313 1.400 . S
C309 H293 0.939 . S
C309 C308 1.378 . S
C309 C310 1.361 . S
C310 H294 0.942 . S
C310 C309 1.361 . S
C310 C311 1.369 . S
C311 C310 1.369 . S
C311 C312 1.404 . S
C312 H295 0.940 . S
C312 C311 1.404 . S
C312 C313 1.389 . S
C313 H296 0.939 . S
C313 C308 1.400 . S
C313 C312 1.389 . S
C314 P288 1.819 . S
C314 C315 1.391 . S
C314 C319 1.391 . S
C315 H297 0.941 . S
C315 C314 1.391 . S
C315 C316 1.396 . S
C316 H300 0.939 . S
C316 C315 1.396 . S
C316 C317 1.397 . S
C317 C316 1.397 . S
C317 C318 1.385 . S
C318 H301 0.940 . S
C318 C317 1.385 . S
C318 C319 1.388 . S
C319 H298 0.939 . S
C319 C314 1.391 . S
C319 C318 1.388 . S
P320 O331 1.490 . S
P320 C334 1.812 . S
P320 C340 1.803 . S
P320 C346 1.819 . S
H321 C335 0.941 . S
H322 C336 0.939 . S
H323 C338 0.940 . S
H324 C339 0.940 . S
H325 C341 0.939 . S
H326 C342 0.942 . S
H327 C344 0.940 . S
H328 C345 0.939 . S
H329 C347 0.941 . S
H330 C351 0.939 . S
O331 P320 1.490 . S
H332 C348 0.939 . S
H333 C350 0.940 . S
C334 P320 1.812 . S
C334 C335 1.389 . S
C334 C339 1.391 . S
C335 H321 0.941 . S
C335 C334 1.389 . S
C335 C336 1.397 . S
C336 H322 0.939 . S
C336 C335 1.397 . S
C336 C337 1.378 . S
C337 C336 1.378 . S
C337 C338 1.378 . S
C338 H323 0.940 . S
C338 C337 1.378 . S
C338 C339 1.396 . S
C339 H324 0.940 . S
C339 C334 1.391 . S
C339 C338 1.396 . S
C340 P320 1.803 . S
C340 C341 1.378 . S
C340 C345 1.400 . S
C341 H325 0.939 . S
C341 C340 1.378 . S
C341 C342 1.361 . S
C342 H326 0.942 . S
C342 C341 1.361 . S
C342 C343 1.369 . S
C343 C342 1.369 . S
C343 C344 1.404 . S
C344 H327 0.940 . S
C344 C343 1.404 . S
C344 C345 1.389 . S
C345 H328 0.939 . S
C345 C340 1.400 . S
C345 C344 1.389 . S
C346 P320 1.819 . S
C346 C347 1.391 . S
C346 C351 1.391 . S
C347 H329 0.941 . S
C347 C346 1.391 . S
C347 C348 1.396 . S
C348 H332 0.939 . S
C348 C347 1.396 . S
C348 C349 1.397 . S
C349 C348 1.397 . S
C349 C350 1.385 . S
C350 H333 0.940 . S
C350 C349 1.385 . S
C350 C351 1.388 . S
C351 H330 0.939 . S
C351 C346 1.391 . S
C351 C350 1.388 . S
P352 O363 1.490 . S
P352 C366 1.812 . S
P352 C372 1.803 . S
P352 C378 1.819 . S
H353 C367 0.941 . S
H354 C368 0.939 . S
H355 C370 0.940 . S
H356 C371 0.940 . S
H357 C373 0.939 . S
H358 C374 0.942 . S
H359 C376 0.940 . S
H360 C377 0.939 . S
H361 C379 0.941 . S
H362 C383 0.939 . S
O363 P352 1.490 . S
H364 C380 0.939 . S
H365 C382 0.940 . S
C366 P352 1.812 . S
C366 C367 1.389 . S
C366 C371 1.391 . S
C367 H353 0.941 . S
C367 C366 1.389 . S
C367 C368 1.397 . S
C368 H354 0.939 . S
C368 C367 1.397 . S
C368 C369 1.378 . S
C369 C368 1.378 . S
C369 C370 1.378 . S
C370 H355 0.940 . S
C370 C369 1.378 . S
C370 C371 1.396 . S
C371 H356 0.940 . S
C371 C366 1.391 . S
C371 C370 1.396 . S
C372 P352 1.803 . S
C372 C373 1.378 . S
C372 C377 1.400 . S
C373 H357 0.939 . S
C373 C372 1.378 . S
C373 C374 1.361 . S
C374 H358 0.942 . S
C374 C373 1.361 . S
C374 C375 1.369 . S
C375 C374 1.369 . S
C375 C376 1.404 . S
C376 H359 0.940 . S
C376 C375 1.404 . S
C376 C377 1.389 . S
C377 H360 0.939 . S
C377 C372 1.400 . S
C377 C376 1.389 . S
C378 P352 1.819 . S
C378 C379 1.391 . S
C378 C383 1.391 . S
C379 H361 0.941 . S
C379 C378 1.391 . S
C379 C380 1.396 . S
C380 H364 0.939 . S
C380 C379 1.396 . S
C380 C381 1.397 . S
C381 C380 1.397 . S
C381 C382 1.385 . S
C382 H365 0.940 . S
C382 C381 1.385 . S
C382 C383 1.388 . S
C383 H362 0.939 . S
C383 C378 1.391 . S
C383 C382 1.388 . S
P384 O395 1.490 . S
P384 C398 1.812 . S
P384 C404 1.803 . S
P384 C410 1.819 . S
H385 C399 0.941 . S
H386 C400 0.939 . S
H387 C402 0.940 . S
H388 C403 0.940 . S
H389 C405 0.939 . S
H390 C406 0.942 . S
H391 C408 0.940 . S
H392 C409 0.939 . S
H393 C411 0.941 . S
H394 C415 0.939 . S
O395 P384 1.490 . S
H396 C412 0.939 . S
H397 C414 0.940 . S
C398 P384 1.812 . S
C398 C399 1.389 . S
C398 C403 1.391 . S
C399 H385 0.941 . S
C399 C398 1.389 . S
C399 C400 1.397 . S
C400 H386 0.939 . S
C400 C399 1.397 . S
C400 C401 1.378 . S
C401 C400 1.378 . S
C401 C402 1.378 . S
C402 H387 0.940 . S
C402 C401 1.378 . S
C402 C403 1.396 . S
C403 H388 0.940 . S
C403 C398 1.391 . S
C403 C402 1.396 . S
C404 P384 1.803 . S
C404 C405 1.378 . S
C404 C409 1.400 . S
C405 H389 0.939 . S
C405 C404 1.378 . S
C405 C406 1.361 . S
C406 H390 0.942 . S
C406 C405 1.361 . S
C406 C407 1.369 . S
C407 C406 1.369 . S
C407 C408 1.404 . S
C408 H391 0.940 . S
C408 C407 1.404 . S
C408 C409 1.389 . S
C409 H392 0.939 . S
C409 C404 1.400 . S
C409 C408 1.389 . S
C410 P384 1.819 . S
C410 C411 1.391 . S
C410 C415 1.391 . S
C411 H393 0.941 . S
C411 C410 1.391 . S
C411 C412 1.396 . S
C412 H396 0.939 . S
C412 C411 1.396 . S
C412 C413 1.397 . S
C413 C412 1.397 . S
C413 C414 1.385 . S
C414 H397 0.940 . S
C414 C413 1.385 . S
C414 C415 1.388 . S
C415 H394 0.939 . S
C415 C410 1.391 . S
C415 C414 1.388 . S
P416 O427 1.490 . S
P416 C430 1.812 . S
P416 C436 1.803 . S
P416 C442 1.819 . S
H417 C431 0.941 . S
H418 C432 0.939 . S
H419 C434 0.940 . S
H420 C435 0.940 . S
H421 C437 0.939 . S
H422 C438 0.942 . S
H423 C440 0.940 . S
H424 C441 0.939 . S
H425 C443 0.941 . S
H426 C447 0.939 . S
O427 P416 1.490 . S
H428 C444 0.939 . S
H429 C446 0.940 . S
C430 P416 1.812 . S
C430 C431 1.389 . S
C430 C435 1.391 . S
C431 H417 0.941 . S
C431 C430 1.389 . S
C431 C432 1.397 . S
C432 H418 0.939 . S
C432 C431 1.397 . S
C432 C433 1.378 . S
C433 C432 1.378 . S
C433 C434 1.378 . S
C434 H419 0.940 . S
C434 C433 1.378 . S
C434 C435 1.396 . S
C435 H420 0.940 . S
C435 C430 1.391 . S
C435 C434 1.396 . S
C436 P416 1.803 . S
C436 C437 1.378 . S
C436 C441 1.400 . S
C437 H421 0.939 . S
C437 C436 1.378 . S
C437 C438 1.361 . S
C438 H422 0.942 . S
C438 C437 1.361 . S
C438 C439 1.369 . S
C439 C438 1.369 . S
C439 C440 1.404 . S
C440 H423 0.940 . S
C440 C439 1.404 . S
C440 C441 1.389 . S
C441 H424 0.939 . S
C441 C436 1.400 . S
C441 C440 1.389 . S
C442 P416 1.819 . S
C442 C443 1.391 . S
C442 C447 1.391 . S
C443 H425 0.941 . S
C443 C442 1.391 . S
C443 C444 1.396 . S
C444 H428 0.939 . S
C444 C443 1.396 . S
C444 C445 1.397 . S
C445 C444 1.397 . S
C445 C446 1.385 . S
C446 H429 0.940 . S
C446 C445 1.385 . S
C446 C447 1.388 . S
C447 H426 0.939 . S
C447 C442 1.391 . S
C447 C446 1.388 . S
P448 O459 1.490 . S
P448 C462 1.812 . S
P448 C468 1.803 . S
P448 C474 1.819 . S
H449 C463 0.941 . S
H450 C464 0.939 . S
H451 C466 0.940 . S
H452 C467 0.940 . S
H453 C469 0.939 . S
H454 C470 0.942 . S
H455 C472 0.940 . S
H456 C473 0.939 . S
H457 C475 0.941 . S
H458 C479 0.939 . S
O459 P448 1.490 . S
H460 C476 0.939 . S
H461 C478 0.940 . S
C462 P448 1.812 . S
C462 C463 1.389 . S
C462 C467 1.391 . S
C463 H449 0.941 . S
C463 C462 1.389 . S
C463 C464 1.397 . S
C464 H450 0.939 . S
C464 C463 1.397 . S
C464 C465 1.378 . S
C465 C464 1.378 . S
C465 C466 1.378 . S
C466 H451 0.940 . S
C466 C465 1.378 . S
C466 C467 1.396 . S
C467 H452 0.940 . S
C467 C462 1.391 . S
C467 C466 1.396 . S
C468 P448 1.803 . S
C468 C469 1.378 . S
C468 C473 1.400 . S
C469 H453 0.939 . S
C469 C468 1.378 . S
C469 C470 1.361 . S
C470 H454 0.942 . S
C470 C469 1.361 . S
C470 C471 1.369 . S
C471 C470 1.369 . S
C471 C472 1.404 . S
C472 H455 0.940 . S
C472 C471 1.404 . S
C472 C473 1.389 . S
C473 H456 0.939 . S
C473 C468 1.400 . S
C473 C472 1.389 . S
C474 P448 1.819 . S
C474 C475 1.391 . S
C474 C479 1.391 . S
C475 H457 0.941 . S
C475 C474 1.391 . S
C475 C476 1.396 . S
C476 H460 0.939 . S
C476 C475 1.396 . S
C476 C477 1.397 . S
C477 C476 1.397 . S
C477 C478 1.385 . S
C478 H461 0.940 . S
C478 C477 1.385 . S
C478 C479 1.388 . S
C479 H458 0.939 . S
C479 C474 1.391 . S
C479 C478 1.388 . S
P480 O491 1.490 . S
P480 C494 1.812 . S
P480 C500 1.803 . S
P480 C506 1.819 . S
H481 C495 0.941 . S
H482 C496 0.939 . S
H483 C498 0.940 . S
H484 C499 0.940 . S
H485 C501 0.939 . S
H486 C502 0.942 . S
H487 C504 0.940 . S
H488 C505 0.939 . S
H489 C507 0.941 . S
H490 C511 0.939 . S
O491 P480 1.490 . S
H492 C508 0.939 . S
H493 C510 0.940 . S
C494 P480 1.812 . S
C494 C495 1.389 . S
C494 C499 1.391 . S
C495 H481 0.941 . S
C495 C494 1.389 . S
C495 C496 1.397 . S
C496 H482 0.939 . S
C496 C495 1.397 . S
C496 C497 1.378 . S
C497 C496 1.378 . S
C497 C498 1.378 . S
C498 H483 0.940 . S
C498 C497 1.378 . S
C498 C499 1.396 . S
C499 H484 0.940 . S
C499 C494 1.391 . S
C499 C498 1.396 . S
C500 P480 1.803 . S
C500 C501 1.378 . S
C500 C505 1.400 . S
C501 H485 0.939 . S
C501 C500 1.378 . S
C501 C502 1.361 . S
C502 H486 0.942 . S
C502 C501 1.361 . S
C502 C503 1.369 . S
C503 C502 1.369 . S
C503 C504 1.404 . S
C504 H487 0.940 . S
C504 C503 1.404 . S
C504 C505 1.389 . S
C505 H488 0.939 . S
C505 C500 1.400 . S
C505 C504 1.389 . S
C506 P480 1.819 . S
C506 C507 1.391 . S
C506 C511 1.391 . S
C507 H489 0.941 . S
C507 C506 1.391 . S
C507 C508 1.396 . S
C508 H492 0.939 . S
C508 C507 1.396 . S
C508 C509 1.397 . S
C509 C508 1.397 . S
C509 C510 1.385 . S
C510 H493 0.940 . S
C510 C509 1.385 . S
C510 C511 1.388 . S
C511 H490 0.939 . S
C511 C506 1.391 . S
C511 C510 1.388 . S
P512 O523 1.490 . S
P512 C526 1.812 . S
P512 C532 1.803 . S
P512 C538 1.819 . S
H513 C527 0.941 . S
H514 C528 0.939 . S
H515 C530 0.940 . S
H516 C531 0.940 . S
H517 C533 0.939 . S
H518 C534 0.942 . S
H519 C536 0.940 . S
H520 C537 0.939 . S
H521 C539 0.941 . S
H522 C543 0.939 . S
O523 P512 1.490 . S
H524 C540 0.939 . S
H525 C542 0.940 . S
C526 P512 1.812 . S
C526 C527 1.389 . S
C526 C531 1.391 . S
C527 H513 0.941 . S
C527 C526 1.389 . S
C527 C528 1.397 . S
C528 H514 0.939 . S
C528 C527 1.397 . S
C528 C529 1.378 . S
C529 C528 1.378 . S
C529 C530 1.378 . S
C530 H515 0.940 . S
C530 C529 1.378 . S
C530 C531 1.396 . S
C531 H516 0.940 . S
C531 C526 1.391 . S
C531 C530 1.396 . S
C532 P512 1.803 . S
C532 C533 1.378 . S
C532 C537 1.400 . S
C533 H517 0.939 . S
C533 C532 1.378 . S
C533 C534 1.361 . S
C534 H518 0.942 . S
C534 C533 1.361 . S
C534 C535 1.369 . S
C535 C534 1.369 . S
C535 C536 1.404 . S
C536 H519 0.940 . S
C536 C535 1.404 . S
C536 C537 1.389 . S
C537 H520 0.939 . S
C537 C532 1.400 . S
C537 C536 1.389 . S
C538 P512 1.819 . S
C538 C539 1.391 . S
C538 C543 1.391 . S
C539 H521 0.941 . S
C539 C538 1.391 . S
C539 C540 1.396 . S
C540 H524 0.939 . S
C540 C539 1.396 . S
C540 C541 1.397 . S
C541 C540 1.397 . S
C541 C542 1.385 . S
C542 H525 0.940 . S
C542 C541 1.385 . S
C542 C543 1.388 . S
C543 H522 0.939 . S
C543 C538 1.391 . S
C543 C542 1.388 . S
P544 O555 1.490 . S
P544 C558 1.812 . S
P544 C564 1.803 . S
P544 C570 1.819 . S
H545 C559 0.941 . S
H546 C560 0.939 . S
H547 C562 0.940 . S
H548 C563 0.940 . S
H549 C565 0.939 . S
H550 C566 0.942 . S
H551 C568 0.940 . S
H552 C569 0.939 . S
H553 C571 0.941 . S
H554 C575 0.939 . S
O555 P544 1.490 . S
H556 C572 0.939 . S
H557 C574 0.940 . S
C558 P544 1.812 . S
C558 C559 1.389 . S
C558 C563 1.391 . S
C559 H545 0.941 . S
C559 C558 1.389 . S
C559 C560 1.397 . S
C560 H546 0.939 . S
C560 C559 1.397 . S
C560 C561 1.378 . S
C561 C560 1.378 . S
C561 C562 1.378 . S
C562 H547 0.940 . S
C562 C561 1.378 . S
C562 C563 1.396 . S
C563 H548 0.940 . S
C563 C558 1.391 . S
C563 C562 1.396 . S
C564 P544 1.803 . S
C564 C565 1.378 . S
C564 C569 1.400 . S
C565 H549 0.939 . S
C565 C564 1.378 . S
C565 C566 1.361 . S
C566 H550 0.942 . S
C566 C565 1.361 . S
C566 C567 1.369 . S
C567 C566 1.369 . S
C567 C568 1.404 . S
C568 H551 0.940 . S
C568 C567 1.404 . S
C568 C569 1.389 . S
C569 H552 0.939 . S
C569 C564 1.400 . S
C569 C568 1.389 . S
C570 P544 1.819 . S
C570 C571 1.391 . S
C570 C575 1.391 . S
C571 H553 0.941 . S
C571 C570 1.391 . S
C571 C572 1.396 . S
C572 H556 0.939 . S
C572 C571 1.396 . S
C572 C573 1.397 . S
C573 C572 1.397 . S
C573 C574 1.385 . S
C574 H557 0.940 . S
C574 C573 1.385 . S
C574 C575 1.388 . S
C575 H554 0.939 . S
C575 C570 1.391 . S
C575 C574 1.388 . S
Tb576 C586 2.825 . S
Tb576 O587 2.347 1_565 S
Tb576 O590 2.366 1_565 S
Tb576 O595 2.418 . S
Tb576 O596 2.384 1_556 S
Tb576 O599 2.479 . S
Tb576 O600 2.471 1_565 S
Eu577 O588 2.418 . S
Eu577 O589 2.384 . S
Eu577 O592 2.479 . S
Eu577 O593 2.471 1_545 S
Eu577 O594 2.347 1_545 S
Eu577 O597 2.366 1_545 S
Eu577 C607 2.825 . S
C578 O594 1.259 . S
C578 O595 1.265 1_554 S
C579 O596 1.255 . S
C579 O597 1.265 . S
C580 C582 1.380 . S
C580 C583 1.374 1_565 S
C580 C586 1.507 . S
C581 C582 1.384 . S
C581 C585 1.387 1_565 S
C581 H608 0.930 . S
C582 C580 1.380 . S
C582 C581 1.384 . S
C582 H609 0.931 . S
C583 C580 1.374 1_545 S
C583 C584 1.390 . S
C583 H610 0.930 . S
C584 C583 1.390 . S
C584 C585 1.391 . S
C584 H611 0.930 . S
C585 C581 1.387 1_545 S
C585 C584 1.391 . S
C586 Tb576 2.825 . S
C586 C580 1.507 . S
C586 O599 1.238 . S
C586 O600 1.247 1_565 S
O587 Tb576 2.347 1_545 S
O587 C591 1.259 1_556 S
O588 Eu577 2.418 . S
O588 C591 1.265 . S
O589 Eu577 2.384 . S
O589 C598 1.255 1_554 S
O590 Tb576 2.366 1_545 S
O590 C598 1.265 . S
C591 O587 1.259 1_554 S
C591 O588 1.265 . S
O592 Eu577 2.479 . S
O592 C607 1.238 . S
O593 Eu577 2.471 1_565 S
O593 C607 1.247 1_565 S
O594 Eu577 2.347 1_565 S
O594 C578 1.259 . S
O595 Tb576 2.418 . S
O595 C578 1.265 1_556 S
O596 Tb576 2.384 1_554 S
O596 C579 1.255 . S
O597 Eu577 2.366 1_565 S
O597 C579 1.265 . S
C598 O589 1.255 1_556 S
C598 O590 1.265 . S
O599 Tb576 2.479 . S
O599 C586 1.238 . S
O600 Tb576 2.471 1_545 S
O600 C586 1.247 1_545 S
C601 C604 1.380 . S
C601 C605 1.374 1_545 S
C601 C607 1.507 . S
C602 C603 1.387 1_565 S
C602 C606 1.391 . S
C603 C602 1.387 1_545 S
C603 C604 1.384 . S
C603 H612 0.930 . S
C604 C601 1.380 . S
C604 C603 1.384 . S
C604 H613 0.931 . S
C605 C601 1.374 1_565 S
C605 C606 1.390 . S
C605 H614 0.930 . S
C606 C602 1.391 . S
C606 C605 1.390 . S
C606 H615 0.930 . S
C607 Eu577 2.825 . S
C607 O592 1.238 . S
C607 O593 1.247 1_545 S
C607 C601 1.507 . S
H608 C581 0.930 . S
H609 C582 0.931 . S
H610 C583 0.930 . S
H611 C584 0.930 . S
H612 C603 0.930 . S
H613 C604 0.931 . S
H614 C605 0.930 . S
H615 C606 0.930 . S
Tb616 C626 2.825 . S
Tb616 O627 2.347 1_455 S
Tb616 O630 2.366 1_455 S
Tb616 O635 2.418 . S
Tb616 O636 2.384 1_556 S
Tb616 O639 2.479 . S
Tb616 O640 2.471 1_455 S
Eu617 O628 2.418 . S
Eu617 O629 2.384 . S
Eu617 O632 2.479 . S
Eu617 O633 2.471 1_655 S
Eu617 O634 2.347 1_655 S
Eu617 O637 2.366 1_655 S
Eu617 C647 2.825 . S
C618 O634 1.259 . S
C618 O635 1.265 1_554 S
C619 O636 1.255 . S
C619 O637 1.265 . S
C620 C622 1.394 . S
C620 C623 1.348 1_455 S
C620 C626 1.519 . S
C621 C622 1.384 . S
C621 C625 1.387 1_455 S
C621 H648 0.930 . S
C622 C620 1.394 . S
C622 C621 1.384 . S
C622 H649 0.931 . S
C623 C620 1.348 1_655 S
C623 C624 1.390 . S
C623 H650 0.930 . S
C624 C623 1.390 . S
C624 C625 1.391 . S
C624 H651 0.930 . S
C625 C621 1.387 1_655 S
C625 C624 1.391 . S
C626 Tb616 2.825 . S
C626 C620 1.519 . S
C626 O639 1.238 . S
C626 O640 1.247 1_455 S
O627 Tb616 2.347 1_655 S
O627 C631 1.259 . S
O628 Eu617 2.418 . S
O628 C631 1.265 1_554 S
O629 Eu617 2.384 . S
O629 C638 1.255 1_554 S
O630 Tb616 2.366 1_655 S
O630 C638 1.265 . S
C631 O627 1.259 . S
C631 O628 1.265 1_556 S
O632 Eu617 2.479 . S
O632 C647 1.238 . S
O633 Eu617 2.471 1_455 S
O633 C647 1.247 1_455 S
O634 Eu617 2.347 1_455 S
O634 C618 1.259 . S
O635 Tb616 2.418 . S
O635 C618 1.265 1_556 S
O636 Tb616 2.384 1_554 S
O636 C619 1.255 . S
O637 Eu617 2.366 1_455 S
O637 C619 1.265 . S
C638 O629 1.255 1_556 S
C638 O630 1.265 . S
O639 Tb616 2.479 . S
O639 C626 1.238 . S
O640 Tb616 2.471 1_655 S
O640 C626 1.247 1_655 S
C641 C644 1.380 1_455 S
C641 C645 1.374 . S
C641 C647 1.507 1_455 S
C642 C643 1.387 1_455 S
C642 C646 1.391 . S
C643 C642 1.387 1_655 S
C643 C644 1.384 . S
C643 H652 0.930 . S
C644 C641 1.380 1_655 S
C644 C643 1.384 . S
C644 H653 0.931 . S
C645 C641 1.374 . S
C645 C646 1.390 . S
C645 H654 0.930 . S
C646 C642 1.391 . S
C646 C645 1.390 . S
C646 H655 0.930 . S
C647 Eu617 2.825 . S
C647 O632 1.238 . S
C647 O633 1.247 1_655 S
C647 C641 1.507 1_655 S
H648 C621 0.930 . S
H649 C622 0.931 . S
H650 C623 0.930 . S
H651 C624 0.930 . S
H652 C643 0.930 . S
H653 C644 0.931 . S
H654 C645 0.930 . S
H655 C646 0.930 . S
Tb656 C666 2.825 . S
Tb656 O667 2.347 . S
Tb656 O670 2.366 . S
Tb656 O675 2.418 . S
Tb656 O676 2.384 . S
Tb656 O679 2.479 . S
Tb656 O680 2.471 . S
Eu657 O668 2.418 . S
Eu657 O669 2.384 1_556 S
Eu657 O672 2.479 . S
Eu657 O673 2.471 . S
Eu657 O674 2.347 . S
Eu657 O677 2.366 . S
Eu657 C687 2.825 . S
C658 O674 1.284 . S
C658 O675 1.211 1_556 S
C659 O676 1.255 1_556 S
C659 O677 1.265 . S
C660 C662 1.380 . S
C660 C663 1.374 . S
C660 C666 1.507 . S
C661 C662 1.384 . S
C661 C665 1.387 . S
C661 H688 0.930 . S
C662 C660 1.380 . S
C662 C661 1.384 . S
C662 H689 0.931 . S
C663 C660 1.374 . S
C663 C664 1.390 . S
C663 H690 0.930 . S
C664 C663 1.390 . S
C664 C665 1.391 . S
C664 H691 0.930 . S
C665 C661 1.387 . S
C665 C664 1.391 . S
C666 Tb656 2.825 . S
C666 C660 1.507 . S
C666 O679 1.238 . S
C666 O680 1.247 . S
O667 Tb656 2.347 . S
O667 C671 1.259 . S
O668 Eu657 2.418 . S
O668 C671 1.265 1_556 S
O669 Eu657 2.384 1_554 S
O669 C678 1.255 . S
O670 Tb656 2.366 . S
O670 C678 1.265 . S
C671 O667 1.259 . S
C671 O668 1.265 1_554 S
O672 Eu657 2.479 . S
O672 C687 1.238 . S
O673 Eu657 2.471 . S
O673 C687 1.247 . S
O674 Eu657 2.347 . S
O674 C658 1.284 . S
O675 Tb656 2.418 . S
O675 C658 1.211 1_554 S
O676 Tb656 2.384 . S
O676 C659 1.255 1_554 S
O677 Eu657 2.366 . S
O677 C659 1.265 . S
C678 O669 1.255 . S
C678 O670 1.265 . S
O679 Tb656 2.479 . S
O679 C666 1.238 . S
O680 Tb656 2.471 . S
O680 C666 1.247 . S
C681 C684 1.380 . S
C681 C685 1.374 . S
C681 C687 1.507 . S
C682 C683 1.387 . S
C682 C686 1.391 . S
C683 C682 1.387 . S
C683 C684 1.384 . S
C683 H692 0.930 . S
C684 C681 1.380 . S
C684 C683 1.384 . S
C684 H693 0.931 . S
C685 C681 1.374 . S
C685 C686 1.390 . S
C685 H694 0.930 . S
C686 C682 1.391 . S
C686 C685 1.390 . S
C686 H695 0.930 . S
C687 Eu657 2.825 . S
C687 O672 1.238 . S
C687 O673 1.247 . S
C687 C681 1.507 . S
H688 C661 0.930 . S
H689 C662 0.931 . S
H690 C663 0.930 . S
H691 C664 0.930 . S
H692 C683 0.930 . S
H693 C684 0.931 . S
H694 C685 0.930 . S
H695 C686 0.930 . S
Tb696 C706 2.825 . S
Tb696 O707 2.347 . S
Tb696 O710 2.366 . S
Tb696 O715 2.418 . S
Tb696 O716 2.384 . S
Tb696 O719 2.479 . S
Tb696 O720 2.471 . S
Eu697 O708 2.418 . S
Eu697 O709 2.384 . S
Eu697 O712 2.479 . S
Eu697 O713 2.471 . S
Eu697 O714 2.347 . S
Eu697 O717 2.366 . S
Eu697 C727 2.825 . S
C698 O714 1.259 . S
C698 O715 1.265 . S
C699 O716 1.255 . S
C699 O717 1.265 . S
C700 C702 1.380 . S
C700 C703 1.374 . S
C700 C706 1.507 . S
C701 C702 1.384 . S
C701 C705 1.387 . S
C701 H728 0.930 . S
C702 C700 1.380 . S
C702 C701 1.384 . S
C702 H729 0.931 . S
C703 C700 1.374 . S
C703 C704 1.390 . S
C703 H730 0.930 . S
C704 C703 1.390 . S
C704 C705 1.391 . S
C704 H731 0.930 . S
C705 C701 1.387 . S
C705 C704 1.391 . S
C706 Tb696 2.825 . S
C706 C700 1.507 . S
C706 O719 1.238 . S
C706 O720 1.247 . S
O707 Tb696 2.347 . S
O707 C711 1.259 . S
O708 Eu697 2.418 . S
O708 C711 1.265 . S
O709 Eu697 2.384 . S
O709 C718 1.255 . S
O710 Tb696 2.366 . S
O710 C718 1.265 . S
C711 O707 1.259 . S
C711 O708 1.265 . S
O712 Eu697 2.479 . S
O712 C727 1.238 . S
O713 Eu697 2.471 . S
O713 C727 1.247 . S
O714 Eu697 2.347 . S
O714 C698 1.259 . S
O715 Tb696 2.418 . S
O715 C698 1.265 . S
O716 Tb696 2.384 . S
O716 C699 1.255 . S
O717 Eu697 2.366 . S
O717 C699 1.265 . S
C718 O709 1.255 . S
C718 O710 1.265 . S
O719 Tb696 2.479 . S
O719 C706 1.238 . S
O720 Tb696 2.471 . S
O720 C706 1.247 . S
C721 C724 1.380 . S
C721 C725 1.374 . S
C721 C727 1.507 . S
C722 C723 1.387 . S
C722 C726 1.391 . S
C723 C722 1.387 . S
C723 C724 1.384 . S
C723 H732 0.930 . S
C724 C721 1.380 . S
C724 C723 1.384 . S
C724 H733 0.931 . S
C725 C721 1.374 . S
C725 C726 1.390 . S
C725 H734 0.930 . S
C726 C722 1.391 . S
C726 C725 1.390 . S
C726 H735 0.930 . S
C727 Eu697 2.825 . S
C727 O712 1.238 . S
C727 O713 1.247 . S
C727 C721 1.507 . S
H728 C701 0.930 . S
H729 C702 0.931 . S
H730 C703 0.930 . S
H731 C704 0.930 . S
H732 C723 0.930 . S
H733 C724 0.931 . S
H734 C725 0.930 . S
H735 C726 0.930 . S
Tb736 C746 2.825 . S
Tb736 O747 2.347 . S
Tb736 O750 2.366 . S
Tb736 O755 2.418 . S
Tb736 O756 2.384 . S
Tb736 O759 2.479 . S
Tb736 O760 2.471 . S
Eu737 O748 2.418 . S
Eu737 O749 2.384 . S
Eu737 O752 2.479 . S
Eu737 O753 2.471 . S
Eu737 O754 2.347 . S
Eu737 O757 2.366 . S
Eu737 C767 2.825 . S
C738 O754 1.259 . S
C738 O755 1.265 . S
C739 O756 1.255 . S
C739 O757 1.265 . S
C740 C742 1.380 . S
C740 C743 1.374 . S
C740 C746 1.507 . S
C741 C742 1.384 . S
C741 C745 1.387 . S
C741 H768 0.930 . S
C742 C740 1.380 . S
C742 C741 1.384 . S
C742 H769 0.931 . S
C743 C740 1.374 . S
C743 C744 1.390 . S
C743 H770 0.930 . S
C744 C743 1.390 . S
C744 C745 1.391 . S
C744 H771 0.930 . S
C745 C741 1.387 . S
C745 C744 1.391 . S
C746 Tb736 2.825 . S
C746 C740 1.507 . S
C746 O759 1.238 . S
C746 O760 1.247 . S
O747 Tb736 2.347 . S
O747 C751 1.259 . S
O748 Eu737 2.418 . S
O748 C751 1.265 . S
O749 Eu737 2.384 . S
O749 C758 1.255 . S
O750 Tb736 2.366 . S
O750 C758 1.265 . S
C751 O747 1.259 . S
C751 O748 1.265 . S
O752 Eu737 2.479 . S
O752 C767 1.238 . S
O753 Eu737 2.471 . S
O753 C767 1.247 . S
O754 Eu737 2.347 . S
O754 C738 1.259 . S
O755 Tb736 2.418 . S
O755 C738 1.265 . S
O756 Tb736 2.384 . S
O756 C739 1.255 . S
O757 Eu737 2.366 . S
O757 C739 1.265 . S
C758 O749 1.255 . S
C758 O750 1.265 . S
O759 Tb736 2.479 . S
O759 C746 1.238 . S
O760 Tb736 2.471 . S
O760 C746 1.247 . S
C761 C764 1.380 . S
C761 C765 1.374 . S
C761 C767 1.507 . S
C762 C763 1.387 . S
C762 C766 1.391 . S
C763 C762 1.387 . S
C763 C764 1.384 . S
C763 H772 0.930 . S
C764 C761 1.380 . S
C764 C763 1.384 . S
C764 H773 0.931 . S
C765 C761 1.374 . S
C765 C766 1.390 . S
C765 H774 0.930 . S
C766 C762 1.391 . S
C766 C765 1.390 . S
C766 H775 0.930 . S
C767 Eu737 2.825 . S
C767 O752 1.238 . S
C767 O753 1.247 . S
C767 C761 1.507 . S
H768 C741 0.930 . S
H769 C742 0.931 . S
H770 C743 0.930 . S
H771 C744 0.930 . S
H772 C763 0.930 . S
H773 C764 0.931 . S
H774 C765 0.930 . S
H775 C766 0.930 . S
Tb776 C786 2.825 . S
Tb776 O787 2.347 . S
Tb776 O790 2.366 . S
Tb776 O795 2.418 . S
Tb776 O796 2.384 . S
Tb776 O799 2.479 . S
Tb776 O800 2.471 . S
Eu777 O788 2.418 . S
Eu777 O789 2.384 . S
Eu777 O792 2.479 . S
Eu777 O793 2.471 . S
Eu777 O794 2.347 . S
Eu777 O797 2.366 . S
Eu777 C807 2.825 . S
C778 O794 1.259 . S
C778 O795 1.265 . S
C779 O796 1.255 . S
C779 O797 1.265 . S
C780 C782 1.380 . S
C780 C783 1.374 . S
C780 C786 1.507 . S
C781 C782 1.384 . S
C781 C785 1.387 . S
C781 H808 0.930 . S
C782 C780 1.380 . S
C782 C781 1.384 . S
C782 H809 0.931 . S
C783 C780 1.374 . S
C783 C784 1.390 . S
C783 H810 0.930 . S
C784 C783 1.390 . S
C784 C785 1.391 . S
C784 H811 0.930 . S
C785 C781 1.387 . S
C785 C784 1.391 . S
C786 Tb776 2.825 . S
C786 C780 1.507 . S
C786 O799 1.238 . S
C786 O800 1.247 . S
O787 Tb776 2.347 . S
O787 C791 1.259 . S
O788 Eu777 2.418 . S
O788 C791 1.265 . S
O789 Eu777 2.384 . S
O789 C798 1.255 . S
O790 Tb776 2.366 . S
O790 C798 1.265 . S
C791 O787 1.259 . S
C791 O788 1.265 . S
O792 Eu777 2.479 . S
O792 C807 1.238 . S
O793 Eu777 2.471 . S
O793 C807 1.247 . S
O794 Eu777 2.347 . S
O794 C778 1.259 . S
O795 Tb776 2.418 . S
O795 C778 1.265 . S
O796 Tb776 2.384 . S
O796 C779 1.255 . S
O797 Eu777 2.366 . S
O797 C779 1.265 . S
C798 O789 1.255 . S
C798 O790 1.265 . S
O799 Tb776 2.479 . S
O799 C786 1.238 . S
O800 Tb776 2.471 . S
O800 C786 1.247 . S
C801 C804 1.380 . S
C801 C805 1.374 . S
C801 C807 1.507 . S
C802 C803 1.387 . S
C802 C806 1.391 . S
C803 C802 1.387 . S
C803 C804 1.384 . S
C803 H812 0.930 . S
C804 C801 1.380 . S
C804 C803 1.384 . S
C804 H813 0.931 . S
C805 C801 1.374 . S
C805 C806 1.390 . S
C805 H814 0.930 . S
C806 C802 1.391 . S
C806 C805 1.390 . S
C806 H815 0.930 . S
C807 Eu777 2.825 . S
C807 O792 1.238 . S
C807 O793 1.247 . S
C807 C801 1.507 . S
H808 C781 0.930 . S
H809 C782 0.931 . S
H810 C783 0.930 . S
H811 C784 0.930 . S
H812 C803 0.930 . S
H813 C804 0.931 . S
H814 C805 0.930 . S
H815 C806 0.930 . S
Tb816 C826 2.825 . S
Tb816 O827 2.347 . S
Tb816 O830 2.366 . S
Tb816 O835 2.418 . S
Tb816 O836 2.384 . S
Tb816 O839 2.479 . S
Tb816 O840 2.471 . S
Eu817 O828 2.418 . S
Eu817 O829 2.384 . S
Eu817 O832 2.479 . S
Eu817 O833 2.471 . S
Eu817 O834 2.347 . S
Eu817 O837 2.366 . S
Eu817 C847 2.825 . S
C818 O834 1.259 . S
C818 O835 1.265 . S
C819 O836 1.255 . S
C819 O837 1.265 . S
C820 C822 1.380 . S
C820 C823 1.374 . S
C820 C826 1.507 . S
C821 C822 1.384 . S
C821 C825 1.387 . S
C821 H848 0.930 . S
C822 C820 1.380 . S
C822 C821 1.384 . S
C822 H849 0.931 . S
C823 C820 1.374 . S
C823 C824 1.390 . S
C823 H850 0.930 . S
C824 C823 1.390 . S
C824 C825 1.391 . S
C824 H851 0.930 . S
C825 C821 1.387 . S
C825 C824 1.391 . S
C826 Tb816 2.825 . S
C826 C820 1.507 . S
C826 O839 1.238 . S
C826 O840 1.247 . S
O827 Tb816 2.347 . S
O827 C831 1.259 . S
O828 Eu817 2.418 . S
O828 C831 1.265 . S
O829 Eu817 2.384 . S
O829 C838 1.255 . S
O830 Tb816 2.366 . S
O830 C838 1.265 . S
C831 O827 1.259 . S
C831 O828 1.265 . S
O832 Eu817 2.479 . S
O832 C847 1.238 . S
O833 Eu817 2.471 . S
O833 C847 1.247 . S
O834 Eu817 2.347 . S
O834 C818 1.259 . S
O835 Tb816 2.418 . S
O835 C818 1.265 . S
O836 Tb816 2.384 . S
O836 C819 1.255 . S
O837 Eu817 2.366 . S
O837 C819 1.265 . S
C838 O829 1.255 . S
C838 O830 1.265 . S
O839 Tb816 2.479 . S
O839 C826 1.238 . S
O840 Tb816 2.471 . S
O840 C826 1.247 . S
C841 C844 1.380 . S
C841 C845 1.374 . S
C841 C847 1.507 . S
C842 C843 1.387 . S
C842 C846 1.391 . S
C843 C842 1.387 . S
C843 C844 1.384 . S
C843 H852 0.930 . S
C844 C841 1.380 . S
C844 C843 1.384 . S
C844 H853 0.931 . S
C845 C841 1.374 . S
C845 C846 1.390 . S
C845 H854 0.930 . S
C846 C842 1.391 . S
C846 C845 1.390 . S
C846 H855 0.930 . S
C847 Eu817 2.825 . S
C847 O832 1.238 . S
C847 O833 1.247 . S
C847 C841 1.507 . S
H848 C821 0.930 . S
H849 C822 0.931 . S
H850 C823 0.930 . S
H851 C824 0.930 . S
H852 C843 0.930 . S
H853 C844 0.931 . S
H854 C845 0.930 . S
H855 C846 0.930 . S
Tb856 C866 2.825 . S
Tb856 O867 2.347 . S
Tb856 O870 2.366 . S
Tb856 O875 2.418 . S
Tb856 O876 2.384 . S
Tb856 O879 2.479 . S
Tb856 O880 2.471 . S
Eu857 O868 2.418 . S
Eu857 O869 2.384 . S
Eu857 O872 2.479 . S
Eu857 O873 2.471 . S
Eu857 O874 2.347 . S
Eu857 O877 2.366 . S
Eu857 C887 2.825 . S
C858 O874 1.259 . S
C858 O875 1.265 . S
C859 O876 1.255 . S
C859 O877 1.265 . S
C860 C862 1.380 . S
C860 C863 1.374 . S
C860 C866 1.507 . S
C861 C862 1.384 . S
C861 C865 1.387 . S
C861 H888 0.930 . S
C862 C860 1.380 . S
C862 C861 1.384 . S
C862 H889 0.931 . S
C863 C860 1.374 . S
C863 C864 1.390 . S
C863 H890 0.930 . S
C864 C863 1.390 . S
C864 C865 1.391 . S
C864 H891 0.930 . S
C865 C861 1.387 . S
C865 C864 1.391 . S
C866 Tb856 2.825 . S
C866 C860 1.507 . S
C866 O879 1.238 . S
C866 O880 1.247 . S
O867 Tb856 2.347 . S
O867 C871 1.259 . S
O868 Eu857 2.418 . S
O868 C871 1.265 . S
O869 Eu857 2.384 . S
O869 C878 1.255 . S
O870 Tb856 2.366 . S
O870 C878 1.265 . S
C871 O867 1.259 . S
C871 O868 1.265 . S
O872 Eu857 2.479 . S
O872 C887 1.238 . S
O873 Eu857 2.471 . S
O873 C887 1.247 . S
O874 Eu857 2.347 . S
O874 C858 1.259 . S
O875 Tb856 2.418 . S
O875 C858 1.265 . S
O876 Tb856 2.384 . S
O876 C859 1.255 . S
O877 Eu857 2.366 . S
O877 C859 1.265 . S
C878 O869 1.255 . S
C878 O870 1.265 . S
O879 Tb856 2.479 . S
O879 C866 1.238 . S
O880 Tb856 2.471 . S
O880 C866 1.247 . S
C881 C884 1.380 . S
C881 C885 1.374 . S
C881 C887 1.507 . S
C882 C883 1.387 . S
C882 C886 1.391 . S
C883 C882 1.387 . S
C883 C884 1.384 . S
C883 H892 0.930 . S
C884 C881 1.380 . S
C884 C883 1.384 . S
C884 H893 0.931 . S
C885 C881 1.374 . S
C885 C886 1.390 . S
C885 H894 0.930 . S
C886 C882 1.391 . S
C886 C885 1.390 . S
C886 H895 0.930 . S
C887 Eu857 2.825 . S
C887 O872 1.238 . S
C887 O873 1.247 . S
C887 C881 1.507 . S
H888 C861 0.930 . S
H889 C862 0.931 . S
H890 C863 0.930 . S
H891 C864 0.930 . S
H892 C883 0.930 . S
H893 C884 0.931 . S
H894 C885 0.930 . S
H895 C886 0.930 . S
Tb896 C906 2.825 . S
Tb896 O907 2.347 . S
Tb896 O910 2.366 . S
Tb896 O915 2.418 . S
Tb896 O916 2.384 . S
Tb896 O919 2.479 . S
Tb896 O920 2.471 . S
Eu897 O908 2.418 . S
Eu897 O909 2.384 . S
Eu897 O912 2.479 . S
Eu897 O913 2.471 . S
Eu897 O914 2.347 . S
Eu897 O917 2.366 . S
Eu897 C927 2.825 . S
C898 O914 1.259 . S
C898 O915 1.265 . S
C899 O916 1.255 . S
C899 O917 1.265 . S
C900 C902 1.380 . S
C900 C903 1.374 . S
C900 C906 1.507 . S
C901 C902 1.384 . S
C901 C905 1.387 . S
C901 H928 0.930 . S
C902 C900 1.380 . S
C902 C901 1.384 . S
C902 H929 0.931 . S
C903 C900 1.374 . S
C903 C904 1.390 . S
C903 H930 0.930 . S
C904 C903 1.390 . S
C904 C905 1.391 . S
C904 H931 0.930 . S
C905 C901 1.387 . S
C905 C904 1.391 . S
C906 Tb896 2.825 . S
C906 C900 1.507 . S
C906 O919 1.238 . S
C906 O920 1.247 . S
O907 Tb896 2.347 . S
O907 C911 1.259 . S
O908 Eu897 2.418 . S
O908 C911 1.265 . S
O909 Eu897 2.384 . S
O909 C918 1.255 . S
O910 Tb896 2.366 . S
O910 C918 1.265 . S
C911 O907 1.259 . S
C911 O908 1.265 . S
O912 Eu897 2.479 . S
O912 C927 1.238 . S
O913 Eu897 2.471 . S
O913 C927 1.247 . S
O914 Eu897 2.347 . S
O914 C898 1.259 . S
O915 Tb896 2.418 . S
O915 C898 1.265 . S
O916 Tb896 2.384 . S
O916 C899 1.255 . S
O917 Eu897 2.366 . S
O917 C899 1.265 . S
C918 O909 1.255 . S
C918 O910 1.265 . S
O919 Tb896 2.479 . S
O919 C906 1.238 . S
O920 Tb896 2.471 . S
O920 C906 1.247 . S
C921 C924 1.380 . S
C921 C925 1.374 . S
C921 C927 1.507 . S
C922 C923 1.387 . S
C922 C926 1.391 . S
C923 C922 1.387 . S
C923 C924 1.384 . S
C923 H932 0.930 . S
C924 C921 1.380 . S
C924 C923 1.384 . S
C924 H933 0.931 . S
C925 C921 1.374 . S
C925 C926 1.390 . S
C925 H934 0.930 . S
C926 C922 1.391 . S
C926 C925 1.390 . S
C926 H935 0.930 . S
C927 Eu897 2.825 . S
C927 O912 1.238 . S
C927 O913 1.247 . S
C927 C921 1.507 . S
H928 C901 0.930 . S
H929 C902 0.931 . S
H930 C903 0.930 . S
H931 C904 0.930 . S
H932 C923 0.930 . S
H933 C924 0.931 . S
H934 C925 0.930 . S
H935 C926 0.930 . S
H936 C942 0.930 . S
H937 C946 0.930 . S
H938 C951 0.929 . S
H939 C949 0.929 . S
H940 C944 0.929 . S
H941 C950 0.929 . S
C942 H936 0.930 . S
C942 C943 1.367 . S
C942 C950 1.378 . S
C943 C942 1.367 . S
C943 C951 1.433 . S
C944 H940 0.929 . S
C944 C946 1.378 . S
C944 C948 1.350 . S
C945 C948 1.463 . S
C945 C950 1.350 . S
C945 N953 1.427 . S
C946 H937 0.930 . S
C946 C944 1.378 . S
C946 C947 1.367 . S
C947 C946 1.367 . S
C947 C949 1.433 . S
C948 C944 1.350 . S
C948 C945 1.463 . S
C948 N952 1.427 . S
C949 H939 0.929 . S
C949 C947 1.433 . S
C949 N952 1.384 . S
C950 H941 0.929 . S
C950 C942 1.378 . S
C950 C945 1.350 . S
C951 H938 0.929 . S
C951 C943 1.433 . S
C951 N953 1.384 . S
N952 C948 1.427 . S
N952 C949 1.384 . S
N953 C945 1.427 . S
N953 C951 1.384 . S
H954 C960 0.930 . S
H955 C964 0.930 . S
H956 C969 0.929 . S
H957 C967 0.929 . S
H958 C962 0.929 . S
H959 C968 0.929 . S
C960 H954 0.930 . S
C960 C961 1.367 . S
C960 C968 1.378 . S
C961 C960 1.367 . S
C961 C969 1.433 . S
C962 H958 0.929 . S
C962 C964 1.378 . S
C962 C966 1.350 . S
C963 C966 1.463 . S
C963 C968 1.350 . S
C963 N971 1.427 . S
C964 H955 0.930 . S
C964 C962 1.378 . S
C964 C965 1.367 . S
C965 C964 1.367 . S
C965 C967 1.433 . S
C966 C962 1.350 . S
C966 C963 1.463 . S
C966 N970 1.427 . S
C967 H957 0.929 . S
C967 C965 1.433 . S
C967 N970 1.384 . S
C968 H959 0.929 . S
C968 C960 1.378 . S
C968 C963 1.350 . S
C969 H956 0.929 . S
C969 C961 1.433 . S
C969 N971 1.384 . S
N970 C966 1.427 . S
N970 C967 1.384 . S
N971 C963 1.427 . S
N971 C969 1.384 . S
H972 C978 0.930 . S
H973 C982 0.930 . S
H974 C987 0.929 . S
H975 C985 0.929 1_556 S
H976 C980 0.929 . S
H977 C986 0.929 . S
C978 H972 0.930 . S
C978 C979 1.367 . S
C978 C986 1.378 . S
C979 C978 1.367 . S
C979 C987 1.433 . S
C980 H976 0.929 . S
C980 C982 1.378 . S
C980 C984 1.350 . S
C981 C984 1.463 . S
C981 C986 1.350 . S
C981 N989 1.427 . S
C982 H973 0.930 . S
C982 C980 1.378 . S
C982 C983 1.367 . S
C983 C982 1.367 . S
C983 C985 1.433 . S
C984 C980 1.350 . S
C984 C981 1.463 . S
C984 N988 1.427 . S
C985 H975 0.929 1_554 S
C985 C983 1.433 . S
C985 N988 1.384 . S
C986 H977 0.929 . S
C986 C978 1.378 . S
C986 C981 1.350 . S
C987 H974 0.929 . S
C987 C979 1.433 . S
C987 N989 1.384 . S
N988 C984 1.427 . S
N988 C985 1.384 . S
N989 C981 1.427 . S
N989 C987 1.384 . S
H990 C996 0.930 . S
H991 C1000 0.930 . S
H992 C1005 0.929 . S
H993 C1003 0.929 . S
H994 C998 0.929 . S
H995 C1004 0.929 . S
C996 H990 0.930 . S
C996 C997 1.367 . S
C996 C1004 1.378 . S
C997 C996 1.367 . S
C997 C1005 1.433 . S
C998 H994 0.929 . S
C998 C1000 1.378 . S
C998 C1002 1.350 . S
C999 C1002 1.463 . S
C999 C1004 1.350 . S
C999 N1007 1.427 . S
C1000 H991 0.930 . S
C1000 C998 1.378 . S
C1000 C1001 1.367 . S
C1001 C1000 1.367 . S
C1001 C1003 1.433 1_556 S
C1002 C998 1.350 . S
C1002 C999 1.463 . S
C1002 N1006 1.427 . S
C1003 H993 0.929 . S
C1003 C1001 1.433 1_554 S
C1003 N1006 1.384 1_554 S
C1004 H995 0.929 . S
C1004 C996 1.378 . S
C1004 C999 1.350 . S
C1005 H992 0.929 . S
C1005 C997 1.433 . S
C1005 N1007 1.384 . S
N1006 C1002 1.427 . S
N1006 C1003 1.384 1_556 S
N1007 C999 1.427 . S
N1007 C1005 1.384 . S
H1008 C1014 0.930 . S
H1009 C1018 0.930 . S
H1010 C1023 0.929 . S
H1011 C1021 0.929 . S
H1012 C1016 0.929 . S
H1013 C1022 0.929 . S
C1014 H1008 0.930 . S
C1014 C1015 1.367 . S
C1014 C1022 1.378 . S
C1015 C1014 1.367 . S
C1015 C1023 1.433 . S
C1016 H1012 0.929 . S
C1016 C1018 1.378 . S
C1016 C1020 1.350 . S
C1017 C1020 1.463 . S
C1017 C1022 1.350 . S
C1017 N1025 1.427 . S
C1018 H1009 0.930 . S
C1018 C1016 1.378 . S
C1018 C1019 1.367 . S
C1019 C1018 1.367 . S
C1019 C1021 1.433 . S
C1020 C1016 1.350 . S
C1020 C1017 1.463 . S
C1020 N1024 1.427 . S
C1021 H1011 0.929 . S
C1021 C1019 1.433 . S
C1021 N1024 1.384 . S
C1022 H1013 0.929 . S
C1022 C1014 1.378 . S
C1022 C1017 1.350 . S
C1023 H1010 0.929 . S
C1023 C1015 1.433 . S
C1023 N1025 1.384 . S
N1024 C1020 1.427 . S
N1024 C1021 1.384 . S
N1025 C1017 1.427 . S
N1025 C1023 1.384 . S
H1026 C1032 0.930 . S
H1027 C1036 0.925 1_554 S
H1028 C1041 0.929 . S
H1029 C1039 0.929 . S
H1030 C1034 0.929 . S
H1031 C1040 0.929 . S
C1032 H1026 0.930 . S
C1032 C1033 1.367 . S
C1032 C1040 1.378 . S
C1033 C1032 1.367 . S
C1033 C1041 1.433 . S
C1034 H1030 0.929 . S
C1034 C1036 1.378 . S
C1034 C1038 1.350 . S
C1035 C1038 1.463 . S
C1035 C1040 1.350 . S
C1035 N1043 1.427 . S
C1036 H1027 0.925 1_556 S
C1036 C1034 1.378 . S
C1036 C1037 1.367 . S
C1037 C1036 1.367 . S
C1037 C1039 1.433 . S
C1038 C1034 1.350 . S
C1038 C1035 1.463 . S
C1038 N1042 1.427 . S
C1039 H1029 0.929 . S
C1039 C1037 1.433 . S
C1039 N1042 1.384 . S
C1040 H1031 0.929 . S
C1040 C1032 1.378 . S
C1040 C1035 1.350 . S
C1041 H1028 0.929 . S
C1041 C1033 1.433 . S
C1041 N1043 1.384 . S
N1042 C1038 1.427 . S
N1042 C1039 1.384 . S
N1043 C1035 1.427 . S
N1043 C1041 1.384 . S
H1044 C1050 0.930 . S
H1045 C1054 0.930 . S
H1046 C1059 0.929 . S
H1047 C1057 0.929 . S
H1048 C1052 0.929 . S
H1049 C1058 0.929 . S
C1050 H1044 0.930 . S
C1050 C1051 1.367 . S
C1050 C1058 1.378 . S
C1051 C1050 1.367 . S
C1051 C1059 1.433 . S
C1052 H1048 0.929 . S
C1052 C1054 1.378 . S
C1052 C1056 1.350 . S
C1053 C1056 1.463 . S
C1053 C1058 1.350 . S
C1053 N1061 1.427 . S
C1054 H1045 0.930 . S
C1054 C1052 1.378 . S
C1054 C1055 1.367 . S
C1055 C1054 1.367 . S
C1055 C1057 1.433 . S
C1056 C1052 1.350 . S
C1056 C1053 1.463 . S
C1056 N1060 1.427 . S
C1057 H1047 0.929 . S
C1057 C1055 1.433 . S
C1057 N1060 1.384 . S
C1058 H1049 0.929 . S
C1058 C1050 1.378 . S
C1058 C1053 1.350 . S
C1059 H1046 0.929 . S
C1059 C1051 1.433 . S
C1059 N1061 1.384 . S
N1060 C1056 1.427 . S
N1060 C1057 1.384 . S
N1061 C1053 1.427 . S
N1061 C1059 1.384 . S
H1062 C1068 0.930 . S
H1063 C1072 0.930 . S
H1064 C1077 0.929 . S
H1065 C1075 0.929 1_554 S
H1066 C1070 0.929 . S
H1067 C1076 0.929 . S
C1068 H1062 0.930 . S
C1068 C1069 1.367 . S
C1068 C1076 1.378 . S
C1069 C1068 1.367 . S
C1069 C1077 1.433 . S
C1070 H1066 0.929 . S
C1070 C1072 1.378 . S
C1070 C1074 1.350 . S
C1071 C1074 1.463 . S
C1071 C1076 1.350 . S
C1071 N1079 1.427 . S
C1072 H1063 0.930 . S
C1072 C1070 1.378 . S
C1072 C1073 1.367 . S
C1073 C1072 1.367 . S
C1073 C1075 1.433 . S
C1074 C1070 1.350 . S
C1074 C1071 1.463 . S
C1074 N1078 1.427 . S
C1075 H1065 0.929 1_556 S
C1075 C1073 1.433 . S
C1075 N1078 1.384 . S
C1076 H1067 0.929 . S
C1076 C1068 1.378 . S
C1076 C1071 1.350 . S
C1077 H1064 0.929 . S
C1077 C1069 1.433 . S
C1077 N1079 1.384 . S
N1078 C1074 1.427 . S
N1078 C1075 1.384 . S
N1079 C1071 1.427 . S
N1079 C1077 1.384 . S
H1080 C1086 0.930 . S
H1081 C1090 0.930 . S
H1082 C1095 0.929 . S
H1083 C1093 0.929 . S
H1084 C1088 0.905 1_554 S
H1085 C1094 0.929 . S
C1086 H1080 0.930 . S
C1086 C1087 1.367 . S
C1086 C1094 1.378 . S
C1087 C1086 1.367 . S
C1087 C1095 1.433 . S
C1088 H1084 0.905 1_556 S
C1088 C1090 1.376 1_556 S
C1088 C1092 1.377 . S
C1089 C1092 1.463 . S
C1089 C1094 1.350 . S
C1089 N1097 1.427 . S
C1090 H1081 0.930 . S
C1090 C1088 1.376 1_554 S
C1090 C1091 1.367 1_554 S
C1091 C1090 1.367 1_556 S
C1091 C1093 1.433 . S
C1092 C1088 1.377 . S
C1092 C1089 1.463 . S
C1092 N1096 1.427 . S
C1093 H1083 0.929 . S
C1093 C1091 1.433 . S
C1093 N1096 1.384 . S
C1094 H1085 0.929 . S
C1094 C1086 1.378 . S
C1094 C1089 1.350 . S
C1095 H1082 0.929 . S
C1095 C1087 1.433 . S
C1095 N1097 1.384 . S
N1096 C1092 1.427 . S
N1096 C1093 1.384 . S
N1097 C1089 1.427 . S
N1097 C1095 1.384 . S
H1098 C1104 0.930 . S
H1099 C1108 0.930 . S
H1100 C1113 0.929 . S
H1101 C1111 0.929 . S
H1102 C1106 0.929 . S
H1103 C1112 0.929 . S
C1104 H1098 0.930 . S
C1104 C1105 1.367 . S
C1104 C1112 1.378 . S
C1105 C1104 1.367 . S
C1105 C1113 1.433 . S
C1106 H1102 0.929 . S
C1106 C1108 1.378 . S
C1106 C1110 1.350 . S
C1107 C1110 1.463 . S
C1107 C1112 1.350 . S
C1107 N1115 1.427 . S
C1108 H1099 0.930 . S
C1108 C1106 1.378 . S
C1108 C1109 1.367 . S
C1109 C1108 1.367 . S
C1109 C1111 1.433 . S
C1110 C1106 1.350 . S
C1110 C1107 1.463 . S
C1110 N1114 1.427 . S
C1111 H1101 0.929 . S
C1111 C1109 1.433 . S
C1111 N1114 1.384 . S
C1112 H1103 0.929 . S
C1112 C1104 1.378 . S
C1112 C1107 1.350 . S
C1113 H1100 0.929 . S
C1113 C1105 1.433 . S
C1113 N1115 1.384 . S
N1114 C1110 1.427 . S
N1114 C1111 1.384 . S
N1115 C1107 1.427 . S
N1115 C1113 1.384 . S
H1116 C1122 0.930 . S
H1117 C1126 0.930 . S
H1118 C1131 0.929 . S
H1119 C1129 0.929 . S
H1120 C1124 0.929 . S
H1121 C1130 0.929 . S
C1122 H1116 0.930 . S
C1122 C1123 1.367 . S
C1122 C1130 1.378 . S
C1123 C1122 1.367 . S
C1123 C1131 1.433 . S
C1124 H1120 0.929 . S
C1124 C1126 1.378 . S
C1124 C1128 1.350 . S
C1125 C1128 1.463 . S
C1125 C1130 1.350 . S
C1125 N1133 1.427 . S
C1126 H1117 0.930 . S
C1126 C1124 1.378 . S
C1126 C1127 1.367 . S
C1127 C1126 1.367 . S
C1127 C1129 1.433 . S
C1128 C1124 1.350 . S
C1128 C1125 1.463 . S
C1128 N1132 1.427 . S
C1129 H1119 0.929 . S
C1129 C1127 1.433 . S
C1129 N1132 1.384 . S
C1130 H1121 0.929 . S
C1130 C1122 1.378 . S
C1130 C1125 1.350 . S
C1131 H1118 0.929 . S
C1131 C1123 1.433 . S
C1131 N1133 1.384 . S
N1132 C1128 1.427 . S
N1132 C1129 1.384 . S
N1133 C1125 1.427 . S
N1133 C1131 1.384 . S
H1134 C1140 0.930 . S
H1135 C1144 0.930 1_556 S
H1136 C1149 0.929 . S
H1137 C1147 0.929 . S
H1138 C1142 0.929 . S
H1139 C1148 0.929 . S
C1140 H1134 0.930 . S
C1140 C1141 1.367 . S
C1140 C1148 1.378 . S
C1141 C1140 1.367 . S
C1141 C1149 1.433 . S
C1142 H1138 0.929 . S
C1142 C1144 1.378 . S
C1142 C1146 1.350 . S
C1143 C1146 1.463 . S
C1143 C1148 1.350 . S
C1143 N1151 1.427 . S
C1144 H1135 0.930 1_554 S
C1144 C1142 1.378 . S
C1144 C1145 1.367 . S
C1145 C1144 1.367 . S
C1145 C1147 1.433 . S
C1146 C1142 1.350 . S
C1146 C1143 1.463 . S
C1146 N1150 1.427 . S
C1147 H1137 0.929 . S
C1147 C1145 1.433 . S
C1147 N1150 1.384 . S
C1148 H1139 0.929 . S
C1148 C1140 1.378 . S
C1148 C1143 1.350 . S
C1149 H1136 0.929 . S
C1149 C1141 1.433 . S
C1149 N1151 1.384 . S
N1150 C1146 1.427 . S
N1150 C1147 1.384 . S
N1151 C1143 1.427 . S
N1151 C1149 1.384 . S
H1152 C1158 0.930 . S
H1153 C1162 0.930 . S
H1154 C1167 0.929 . S
H1155 C1165 0.929 . S
H1156 C1160 0.929 . S
H1157 C1166 0.929 . S
C1158 H1152 0.930 . S
C1158 C1159 1.367 . S
C1158 C1166 1.378 . S
C1159 C1158 1.367 . S
C1159 C1167 1.433 . S
C1160 H1156 0.929 . S
C1160 C1162 1.378 . S
C1160 C1164 1.350 . S
C1161 C1164 1.463 . S
C1161 C1166 1.350 1_455 S
C1161 N1169 1.427 . S
C1162 H1153 0.930 . S
C1162 C1160 1.378 . S
C1162 C1163 1.367 . S
C1163 C1162 1.367 . S
C1163 C1165 1.433 . S
C1164 C1160 1.350 . S
C1164 C1161 1.463 . S
C1164 N1168 1.427 . S
C1165 H1155 0.929 . S
C1165 C1163 1.433 . S
C1165 N1168 1.384 . S
C1166 H1157 0.929 . S
C1166 C1158 1.378 . S
C1166 C1161 1.350 1_655 S
C1167 H1154 0.929 . S
C1167 C1159 1.433 . S
C1167 N1169 1.384 1_655 S
N1168 C1164 1.427 . S
N1168 C1165 1.384 . S
N1169 C1161 1.427 . S
N1169 C1167 1.384 1_455 S
H1170 C1176 0.930 . S
H1171 C1180 0.930 . S
H1172 C1185 0.929 . S
H1173 C1183 0.929 . S
H1174 C1178 0.929 . S
H1175 C1184 0.929 . S
C1176 H1170 0.930 . S
C1176 C1177 1.367 . S
C1176 C1184 1.378 . S
C1177 C1176 1.367 . S
C1177 C1185 1.433 . S
C1178 H1174 0.929 . S
C1178 C1180 1.378 . S
C1178 C1182 1.350 . S
C1179 C1182 1.463 . S
C1179 C1184 1.350 . S
C1179 N1187 1.427 . S
C1180 H1171 0.930 . S
C1180 C1178 1.378 . S
C1180 C1181 1.367 . S
C1181 C1180 1.367 . S
C1181 C1183 1.433 . S
C1182 C1178 1.350 . S
C1182 C1179 1.463 . S
C1182 N1186 1.427 . S
C1183 H1173 0.929 . S
C1183 C1181 1.433 . S
C1183 N1186 1.384 . S
C1184 H1175 0.929 . S
C1184 C1176 1.378 . S
C1184 C1179 1.350 . S
C1185 H1172 0.929 . S
C1185 C1177 1.433 . S
C1185 N1187 1.384 . S
N1186 C1182 1.427 . S
N1186 C1183 1.384 . S
N1187 C1179 1.427 . S
N1187 C1185 1.384 . S
H1188 C1194 0.930 . S
H1189 C1198 0.930 . S
H1190 C1203 0.929 . S
H1191 C1201 0.929 . S
H1192 C1196 0.929 . S
H1193 C1202 0.929 . S
C1194 H1188 0.930 . S
C1194 C1195 1.367 . S
C1194 C1202 1.378 . S
C1195 C1194 1.367 . S
C1195 C1203 1.433 . S
C1196 H1192 0.929 . S
C1196 C1198 1.378 . S
C1196 C1200 1.350 . S
C1197 C1200 1.461 1_545 S
C1197 C1202 1.351 . S
C1197 N1205 1.428 . S
C1198 H1189 0.930 . S
C1198 C1196 1.378 . S
C1198 C1199 1.367 . S
C1199 C1198 1.367 . S
C1199 C1201 1.433 . S
C1200 C1196 1.350 . S
C1200 C1197 1.461 1_565 S
C1200 N1204 1.427 . S
C1201 H1191 0.929 . S
C1201 C1199 1.433 . S
C1201 N1204 1.384 . S
C1202 H1193 0.929 . S
C1202 C1194 1.378 . S
C1202 C1197 1.351 . S
C1203 H1190 0.929 . S
C1203 C1195 1.433 . S
C1203 N1205 1.384 . S
N1204 C1200 1.427 . S
N1204 C1201 1.384 . S
N1205 C1197 1.428 . S
N1205 C1203 1.384 . S
H1206 C1212 0.930 . S
H1207 C1216 0.930 . S
H1208 C1221 0.929 . S
H1209 C1219 0.929 . S
H1210 C1214 0.929 . S
H1211 C1220 0.929 . S
C1212 H1206 0.930 . S
C1212 C1213 1.367 . S
C1212 C1220 1.378 . S
C1213 C1212 1.367 . S
C1213 C1221 1.433 . S
C1214 H1210 0.929 . S
C1214 C1216 1.378 . S
C1214 C1218 1.350 . S
C1215 C1218 1.463 . S
C1215 C1220 1.350 . S
C1215 N1223 1.427 . S
C1216 H1207 0.930 . S
C1216 C1214 1.378 . S
C1216 C1217 1.367 . S
C1217 C1216 1.367 . S
C1217 C1219 1.433 . S
C1218 C1214 1.350 . S
C1218 C1215 1.463 . S
C1218 N1222 1.427 . S
C1219 H1209 0.929 . S
C1219 C1217 1.433 . S
C1219 N1222 1.384 . S
C1220 H1211 0.929 . S
C1220 C1212 1.378 . S
C1220 C1215 1.350 . S
C1221 H1208 0.929 . S
C1221 C1213 1.433 . S
C1221 N1223 1.384 . S
N1222 C1218 1.427 . S
N1222 C1219 1.384 . S
N1223 C1215 1.427 . S
N1223 C1221 1.384 . S
H1224 C1230 0.930 . S
H1225 C1234 0.930 . S
H1226 C1239 0.929 . S
H1227 C1237 0.929 . S
H1228 C1232 0.929 . S
H1229 C1238 0.929 . S
C1230 H1224 0.930 . S
C1230 C1231 1.367 . S
C1230 C1238 1.378 . S
C1231 C1230 1.367 . S
C1231 C1239 1.433 . S
C1232 H1228 0.929 . S
C1232 C1234 1.378 . S
C1232 C1236 1.350 . S
C1233 C1236 1.463 . S
C1233 C1238 1.350 . S
C1233 N1241 1.427 . S
C1234 H1225 0.930 . S
C1234 C1232 1.378 . S
C1234 C1235 1.367 . S
C1235 C1234 1.367 . S
C1235 C1237 1.433 . S
C1236 C1232 1.350 . S
C1236 C1233 1.463 . S
C1236 N1240 1.427 . S
C1237 H1227 0.929 . S
C1237 C1235 1.433 . S
C1237 N1240 1.384 . S
C1238 H1229 0.929 . S
C1238 C1230 1.378 . S
C1238 C1233 1.350 . S
C1239 H1226 0.929 . S
C1239 C1231 1.433 . S
C1239 N1241 1.384 . S
N1240 C1236 1.427 . S
N1240 C1237 1.384 . S
N1241 C1233 1.427 . S
N1241 C1239 1.384 . S
H1242 C1248 0.930 . S
H1243 C1252 0.930 . S
H1244 C1257 0.929 . S
H1245 C1255 0.929 . S
H1246 C1250 0.929 . S
H1247 C1256 0.929 . S
C1248 H1242 0.930 . S
C1248 C1249 1.367 . S
C1248 C1256 1.378 . S
C1249 C1248 1.367 . S
C1249 C1257 1.433 . S
C1250 H1246 0.929 . S
C1250 C1252 1.378 . S
C1250 C1254 1.350 . S
C1251 C1254 1.463 . S
C1251 C1256 1.350 . S
C1251 N1259 1.427 . S
C1252 H1243 0.930 . S
C1252 C1250 1.378 . S
C1252 C1253 1.367 . S
C1253 C1252 1.367 . S
C1253 C1255 1.433 . S
C1254 C1250 1.350 . S
C1254 C1251 1.463 . S
C1254 N1258 1.427 . S
C1255 H1245 0.929 . S
C1255 C1253 1.433 . S
C1255 N1258 1.384 . S
C1256 H1247 0.929 . S
C1256 C1248 1.378 . S
C1256 C1251 1.350 . S
C1257 H1244 0.929 . S
C1257 C1249 1.433 . S
C1257 N1259 1.384 . S
N1258 C1254 1.427 . S
N1258 C1255 1.384 . S
N1259 C1251 1.427 . S
N1259 C1257 1.384 . S
H1260 C1266 0.930 . S
H1261 C1270 0.930 . S
H1262 C1275 0.929 . S
H1263 C1273 0.929 . S
H1264 C1268 0.929 . S
H1265 C1274 0.929 . S
C1266 H1260 0.930 . S
C1266 C1267 1.367 . S
C1266 C1274 1.378 . S
C1267 C1266 1.367 . S
C1267 C1275 1.433 . S
C1268 H1264 0.929 . S
C1268 C1270 1.378 . S
C1268 C1272 1.350 . S
C1269 C1272 1.463 . S
C1269 C1274 1.350 . S
C1269 N1277 1.427 . S
C1270 H1261 0.930 . S
C1270 C1268 1.378 . S
C1270 C1271 1.367 . S
C1271 C1270 1.367 . S
C1271 C1273 1.433 . S
C1272 C1268 1.350 . S
C1272 C1269 1.463 . S
C1272 N1276 1.427 . S
C1273 H1263 0.929 . S
C1273 C1271 1.433 . S
C1273 N1276 1.384 . S
C1274 H1265 0.929 . S
C1274 C1266 1.378 . S
C1274 C1269 1.350 . S
C1275 H1262 0.929 . S
C1275 C1267 1.433 . S
C1275 N1277 1.384 . S
N1276 C1272 1.427 . S
N1276 C1273 1.384 . S
N1277 C1269 1.427 . S
N1277 C1275 1.384 . S
H1278 C1284 0.930 . S
H1279 C1288 0.930 . S
H1280 C1293 0.929 . S
H1281 C1291 0.929 . S
H1282 C1286 0.929 . S
H1283 C1292 0.929 . S
C1284 H1278 0.930 . S
C1284 C1285 1.367 . S
C1284 C1292 1.378 . S
C1285 C1284 1.367 . S
C1285 C1293 1.433 . S
C1286 H1282 0.929 . S
C1286 C1288 1.378 . S
C1286 C1290 1.350 . S
C1287 C1290 1.463 . S
C1287 C1292 1.350 . S
C1287 N1295 1.427 . S
C1288 H1279 0.930 . S
C1288 C1286 1.378 . S
C1288 C1289 1.367 . S
C1289 C1288 1.367 . S
C1289 C1291 1.433 . S
C1290 C1286 1.350 . S
C1290 C1287 1.463 . S
C1290 N1294 1.427 . S
C1291 H1281 0.929 . S
C1291 C1289 1.433 . S
C1291 N1294 1.384 . S
C1292 H1283 0.929 . S
C1292 C1284 1.378 . S
C1292 C1287 1.350 . S
C1293 H1280 0.929 . S
C1293 C1285 1.433 . S
C1293 N1295 1.384 . S
N1294 C1290 1.427 . S
N1294 C1291 1.384 . S
N1295 C1287 1.427 . S
N1295 C1293 1.384 . S
H1296 C1302 0.930 . S
H1297 C1306 0.930 . S
H1298 C1311 0.929 . S
H1299 C1309 0.929 . S
H1300 C1304 0.929 . S
H1301 C1310 0.929 . S
C1302 H1296 0.930 . S
C1302 C1303 1.367 . S
C1302 C1310 1.378 . S
C1303 C1302 1.367 . S
C1303 C1311 1.433 . S
C1304 H1300 0.929 . S
C1304 C1306 1.378 . S
C1304 C1308 1.350 . S
C1305 C1308 1.463 . S
C1305 C1310 1.350 . S
C1305 N1313 1.427 . S
C1306 H1297 0.930 . S
C1306 C1304 1.378 . S
C1306 C1307 1.367 . S
C1307 C1306 1.367 . S
C1307 C1309 1.433 . S
C1308 C1304 1.350 . S
C1308 C1305 1.463 . S
C1308 N1312 1.427 . S
C1309 H1299 0.929 . S
C1309 C1307 1.433 . S
C1309 N1312 1.384 . S
C1310 H1301 0.929 . S
C1310 C1302 1.378 . S
C1310 C1305 1.350 . S
C1311 H1298 0.929 . S
C1311 C1303 1.433 . S
C1311 N1313 1.384 . S
N1312 C1308 1.427 . S
N1312 C1309 1.384 . S
N1313 C1305 1.427 . S
N1313 C1311 1.384 . S
H1314 C1320 0.930 . S
H1315 C1324 0.930 . S
H1316 C1329 0.929 . S
H1317 C1327 0.929 . S
H1318 C1322 0.929 . S
H1319 C1328 0.929 1_565 S
C1320 H1314 0.930 . S
C1320 C1321 1.367 . S
C1320 C1328 1.378 . S
C1321 C1320 1.367 . S
C1321 C1329 1.433 . S
C1322 H1318 0.929 . S
C1322 C1324 1.378 . S
C1322 C1326 1.350 . S
C1323 C1326 1.463 . S
C1323 C1328 1.350 1_565 S
C1323 N1331 1.427 1_565 S
C1324 H1315 0.930 . S
C1324 C1322 1.378 . S
C1324 C1325 1.367 . S
C1325 C1324 1.367 . S
C1325 C1327 1.433 . S
C1326 C1322 1.350 . S
C1326 C1323 1.463 . S
C1326 N1330 1.427 . S
C1327 H1317 0.929 . S
C1327 C1325 1.433 . S
C1327 N1330 1.384 . S
C1328 H1319 0.929 1_545 S
C1328 C1320 1.378 . S
C1328 C1323 1.350 1_545 S
C1329 H1316 0.929 . S
C1329 C1321 1.433 . S
C1329 N1331 1.384 . S
N1330 C1326 1.427 . S
N1330 C1327 1.384 . S
N1331 C1323 1.427 1_545 S
N1331 C1329 1.384 . S
H1332 C1338 0.921 1_655 S
H1333 C1342 0.930 . S
H1334 C1347 0.929 . S
H1335 C1345 0.929 . S
H1336 C1340 0.929 . S
H1337 C1346 0.929 . S
C1338 H1332 0.921 1_455 S
C1338 C1339 1.361 1_455 S
C1338 C1346 1.393 . S
C1339 C1338 1.361 1_655 S
C1339 C1347 1.433 . S
C1340 H1336 0.929 . S
C1340 C1342 1.378 . S
C1340 C1344 1.350 . S
C1341 C1344 1.463 . S
C1341 C1346 1.350 . S
C1341 N1349 1.427 . S
C1342 H1333 0.930 . S
C1342 C1340 1.378 . S
C1342 C1343 1.367 . S
C1343 C1342 1.367 . S
C1343 C1345 1.433 . S
C1344 C1340 1.350 . S
C1344 C1341 1.463 . S
C1344 N1348 1.427 . S
C1345 H1335 0.929 . S
C1345 C1343 1.433 . S
C1345 N1348 1.384 . S
C1346 H1337 0.929 . S
C1346 C1338 1.393 . S
C1346 C1341 1.350 . S
C1347 H1334 0.929 . S
C1347 C1339 1.433 . S
C1347 N1349 1.384 1_655 S
N1348 C1344 1.427 . S
N1348 C1345 1.384 . S
N1349 C1341 1.427 . S
N1349 C1347 1.384 1_455 S
H1350 C1356 0.930 . S
H1351 C1360 0.930 . S
H1352 C1365 0.929 . S
H1353 C1363 0.929 . S
H1354 C1358 0.929 . S
H1355 C1364 0.929 . S
C1356 H1350 0.930 . S
C1356 C1357 1.367 . S
C1356 C1364 1.378 . S
C1357 C1356 1.367 . S
C1357 C1365 1.433 . S
C1358 H1354 0.929 . S
C1358 C1360 1.378 . S
C1358 C1362 1.350 . S
C1359 C1362 1.463 . S
C1359 C1364 1.350 . S
C1359 N1367 1.427 . S
C1360 H1351 0.930 . S
C1360 C1358 1.378 . S
C1360 C1361 1.367 . S
C1361 C1360 1.367 . S
C1361 C1363 1.433 . S
C1362 C1358 1.350 . S
C1362 C1359 1.463 . S
C1362 N1366 1.427 . S
C1363 H1353 0.929 . S
C1363 C1361 1.433 . S
C1363 N1366 1.384 . S
C1364 H1355 0.929 . S
C1364 C1356 1.378 . S
C1364 C1359 1.350 . S
C1365 H1352 0.929 . S
C1365 C1357 1.433 . S
C1365 N1367 1.384 . S
N1366 C1362 1.427 . S
N1366 C1363 1.384 . S
N1367 C1359 1.427 . S
N1367 C1365 1.384 . S
H1368 C1374 0.930 . S
H1369 C1378 0.930 . S
H1370 C1383 0.929 . S
H1371 C1381 0.929 . S
H1372 C1376 0.929 . S
H1373 C1382 0.929 . S
C1374 H1368 0.930 . S
C1374 C1375 1.367 . S
C1374 C1382 1.378 . S
C1375 C1374 1.367 . S
C1375 C1383 1.433 . S
C1376 H1372 0.929 . S
C1376 C1378 1.378 . S
C1376 C1380 1.350 . S
C1377 C1380 1.463 . S
C1377 C1382 1.350 . S
C1377 N1385 1.427 . S
C1378 H1369 0.930 . S
C1378 C1376 1.378 . S
C1378 C1379 1.367 . S
C1379 C1378 1.367 . S
C1379 C1381 1.433 . S
C1380 C1376 1.350 . S
C1380 C1377 1.463 . S
C1380 N1384 1.427 . S
C1381 H1371 0.929 . S
C1381 C1379 1.433 . S
C1381 N1384 1.384 . S
C1382 H1373 0.929 . S
C1382 C1374 1.378 . S
C1382 C1377 1.350 . S
C1383 H1370 0.929 . S
C1383 C1375 1.433 . S
C1383 N1385 1.384 . S
N1384 C1380 1.427 . S
N1384 C1381 1.384 . S
N1385 C1377 1.427 . S
N1385 C1383 1.384 . S
H1386 C1392 0.930 . S
H1387 C1396 0.930 . S
H1388 C1401 0.929 . S
H1389 C1399 0.929 . S
H1390 C1394 0.929 . S
H1391 C1400 0.929 . S
C1392 H1386 0.930 . S
C1392 C1393 1.367 . S
C1392 C1400 1.378 . S
C1393 C1392 1.367 . S
C1393 C1401 1.433 . S
C1394 H1390 0.929 . S
C1394 C1396 1.378 . S
C1394 C1398 1.350 . S
C1395 C1398 1.463 . S
C1395 C1400 1.350 . S
C1395 N1403 1.427 . S
C1396 H1387 0.930 . S
C1396 C1394 1.378 . S
C1396 C1397 1.367 . S
C1397 C1396 1.367 . S
C1397 C1399 1.433 . S
C1398 C1394 1.350 . S
C1398 C1395 1.463 . S
C1398 N1402 1.427 . S
C1399 H1389 0.929 . S
C1399 C1397 1.433 . S
C1399 N1402 1.384 . S
C1400 H1391 0.929 . S
C1400 C1392 1.378 . S
C1400 C1395 1.350 . S
C1401 H1388 0.929 . S
C1401 C1393 1.433 . S
C1401 N1403 1.384 . S
N1402 C1398 1.427 . S
N1402 C1399 1.384 . S
N1403 C1395 1.427 . S
N1403 C1401 1.384 . S
H1404 C1410 0.930 . S
H1405 C1414 0.930 . S
H1406 C1419 0.929 . S
H1407 C1417 0.929 . S
H1408 C1412 0.929 . S
H1409 C1418 0.929 . S
C1410 H1404 0.930 . S
C1410 C1411 1.367 . S
C1410 C1418 1.378 . S
C1411 C1410 1.367 . S
C1411 C1419 1.433 . S
C1412 H1408 0.929 . S
C1412 C1414 1.378 . S
C1412 C1416 1.350 . S
C1413 C1416 1.463 . S
C1413 C1418 1.350 . S
C1413 N1421 1.427 . S
C1414 H1405 0.930 . S
C1414 C1412 1.378 . S
C1414 C1415 1.367 . S
C1415 C1414 1.367 . S
C1415 C1417 1.433 . S
C1416 C1412 1.350 . S
C1416 C1413 1.463 . S
C1416 N1420 1.427 . S
C1417 H1407 0.929 . S
C1417 C1415 1.433 . S
C1417 N1420 1.384 . S
C1418 H1409 0.929 . S
C1418 C1410 1.378 . S
C1418 C1413 1.350 . S
C1419 H1406 0.929 . S
C1419 C1411 1.433 . S
C1419 N1421 1.384 . S
N1420 C1416 1.427 . S
N1420 C1417 1.384 . S
N1421 C1413 1.427 . S
N1421 C1419 1.384 . S
H1422 C1428 0.930 . S
H1423 C1432 0.930 . S
H1424 C1437 0.929 . S
H1425 C1435 0.929 . S
H1426 C1430 0.929 . S
H1427 C1436 0.929 1_545 S
C1428 H1422 0.930 . S
C1428 C1429 1.367 . S
C1428 C1436 1.378 . S
C1429 C1428 1.367 . S
C1429 C1437 1.433 . S
C1430 H1426 0.929 . S
C1430 C1432 1.378 . S
C1430 C1434 1.350 . S
C1431 C1434 1.463 . S
C1431 C1436 1.350 1_545 S
C1431 N1439 1.427 1_545 S
C1432 H1423 0.930 . S
C1432 C1430 1.378 . S
C1432 C1433 1.367 . S
C1433 C1432 1.367 . S
C1433 C1435 1.433 . S
C1434 C1430 1.350 . S
C1434 C1431 1.463 . S
C1434 N1438 1.427 . S
C1435 H1425 0.929 . S
C1435 C1433 1.433 . S
C1435 N1438 1.384 . S
C1436 H1427 0.929 1_565 S
C1436 C1428 1.378 . S
C1436 C1431 1.350 1_565 S
C1437 H1424 0.929 . S
C1437 C1429 1.433 . S
C1437 N1439 1.384 . S
N1438 C1434 1.427 . S
N1438 C1435 1.384 . S
N1439 C1431 1.427 1_565 S
N1439 C1437 1.384 . S
H1440 C1446 0.930 . S
H1441 C1450 0.930 . S
H1442 C1455 0.929 . S
H1443 C1453 0.929 . S
H1444 C1448 0.929 . S
H1445 C1454 0.929 . S
C1446 H1440 0.930 . S
C1446 C1447 1.367 . S
C1446 C1454 1.378 1_455 S
C1447 C1446 1.367 . S
C1447 C1455 1.433 . S
C1448 H1444 0.929 . S
C1448 C1450 1.378 . S
C1448 C1452 1.350 . S
C1449 C1452 1.463 . S
C1449 C1454 1.350 . S
C1449 N1457 1.427 . S
C1450 H1441 0.930 . S
C1450 C1448 1.378 . S
C1450 C1451 1.367 . S
C1451 C1450 1.367 . S
C1451 C1453 1.433 . S
C1452 C1448 1.350 . S
C1452 C1449 1.463 . S
C1452 N1456 1.427 . S
C1453 H1443 0.929 . S
C1453 C1451 1.433 . S
C1453 N1456 1.384 . S
C1454 H1445 0.929 . S
C1454 C1446 1.378 1_655 S
C1454 C1449 1.350 . S
C1455 H1442 0.929 . S
C1455 C1447 1.433 . S
C1455 N1457 1.384 1_455 S
N1456 C1452 1.427 . S
N1456 C1453 1.384 . S
N1457 C1449 1.427 . S
N1457 C1455 1.384 1_655 S
H1458 C1464 0.930 . S
H1459 C1468 0.930 . S
H1460 C1473 0.929 . S
H1461 C1471 0.929 . S
H1462 C1466 0.929 . S
H1463 C1472 0.929 . S
C1464 H1458 0.930 . S
C1464 C1465 1.367 . S
C1464 C1472 1.378 . S
C1465 C1464 1.367 . S
C1465 C1473 1.433 . S
C1466 H1462 0.929 . S
C1466 C1468 1.378 . S
C1466 C1470 1.350 . S
C1467 C1470 1.463 . S
C1467 C1472 1.350 . S
C1467 N1475 1.427 . S
C1468 H1459 0.930 . S
C1468 C1466 1.378 . S
C1468 C1469 1.367 . S
C1469 C1468 1.367 . S
C1469 C1471 1.433 . S
C1470 C1466 1.350 . S
C1470 C1467 1.463 . S
C1470 N1474 1.427 . S
C1471 H1461 0.929 . S
C1471 C1469 1.433 . S
C1471 N1474 1.384 . S
C1472 H1463 0.929 . S
C1472 C1464 1.378 . S
C1472 C1467 1.350 . S
C1473 H1460 0.929 . S
C1473 C1465 1.433 . S
C1473 N1475 1.384 . S
N1474 C1470 1.427 . S
N1474 C1471 1.384 . S
N1475 C1467 1.427 . S
N1475 C1473 1.384 . S
H1476 C1482 0.930 . S
H1477 C1486 0.930 . S
H1478 C1491 0.929 . S
H1479 C1489 0.929 . S
H1480 C1484 0.929 . S
H1481 C1490 0.930 1_655 S
C1482 H1476 0.930 . S
C1482 C1483 1.367 . S
C1482 C1490 1.378 . S
C1483 C1482 1.367 . S
C1483 C1491 1.433 . S
C1484 H1480 0.929 . S
C1484 C1486 1.378 . S
C1484 C1488 1.350 . S
C1485 C1488 1.463 . S
C1485 C1490 1.350 1_655 S
C1485 N1493 1.427 . S
C1486 H1477 0.930 . S
C1486 C1484 1.378 . S
C1486 C1487 1.367 . S
C1487 C1486 1.367 . S
C1487 C1489 1.433 . S
C1488 C1484 1.350 . S
C1488 C1485 1.463 . S
C1488 N1492 1.427 . S
C1489 H1479 0.929 . S
C1489 C1487 1.433 . S
C1489 N1492 1.384 . S
C1490 H1481 0.930 1_455 S
C1490 C1482 1.378 . S
C1490 C1485 1.350 1_455 S
C1491 H1478 0.929 . S
C1491 C1483 1.433 . S
C1491 N1493 1.384 1_455 S
N1492 C1488 1.427 . S
N1492 C1489 1.384 . S
N1493 C1485 1.427 . S
N1493 C1491 1.384 1_655 S
H1494 C1500 0.930 . S
H1495 C1504 0.930 . S
H1496 C1509 0.929 . S
H1497 C1507 0.929 . S
H1498 C1502 0.929 . S
H1499 C1508 0.929 . S
C1500 H1494 0.930 . S
C1500 C1501 1.367 . S
C1500 C1508 1.378 . S
C1501 C1500 1.367 . S
C1501 C1509 1.433 . S
C1502 H1498 0.929 . S
C1502 C1504 1.378 . S
C1502 C1506 1.350 . S
C1503 C1506 1.463 . S
C1503 C1508 1.350 . S
C1503 N1511 1.427 . S
C1504 H1495 0.930 . S
C1504 C1502 1.378 . S
C1504 C1505 1.367 . S
C1505 C1504 1.367 . S
C1505 C1507 1.433 . S
C1506 C1502 1.350 . S
C1506 C1503 1.463 . S
C1506 N1510 1.427 . S
C1507 H1497 0.929 . S
C1507 C1505 1.433 . S
C1507 N1510 1.384 . S
C1508 H1499 0.929 . S
C1508 C1500 1.378 . S
C1508 C1503 1.350 . S
C1509 H1496 0.929 . S
C1509 C1501 1.433 . S
C1509 N1511 1.384 . S
N1510 C1506 1.427 . S
N1510 C1507 1.384 . S
N1511 C1503 1.427 . S
N1511 C1509 1.384 . S
H1512 C1518 0.930 . S
H1513 C1522 0.930 . S
H1514 C1527 0.929 . S
H1515 C1525 0.929 . S
H1516 C1520 0.929 . S
H1517 C1526 0.902 1_545 S
C1518 H1512 0.930 . S
C1518 C1519 1.367 . S
C1518 C1526 1.378 . S
C1519 C1518 1.367 . S
C1519 C1527 1.433 . S
C1520 H1516 0.929 . S
C1520 C1522 1.378 . S
C1520 C1524 1.350 . S
C1521 C1524 1.463 . S
C1521 C1526 1.350 1_545 S
C1521 N1529 1.427 1_545 S
C1522 H1513 0.930 . S
C1522 C1520 1.378 . S
C1522 C1523 1.367 . S
C1523 C1522 1.367 . S
C1523 C1525 1.433 . S
C1524 C1520 1.350 . S
C1524 C1521 1.463 . S
C1524 N1528 1.427 . S
C1525 H1515 0.929 . S
C1525 C1523 1.433 . S
C1525 N1528 1.384 . S
C1526 H1517 0.902 1_565 S
C1526 C1518 1.378 . S
C1526 C1521 1.350 1_565 S
C1527 H1514 0.929 . S
C1527 C1519 1.433 . S
C1527 N1529 1.384 . S
N1528 C1524 1.427 . S
N1528 C1525 1.384 . S
N1529 C1521 1.427 1_565 S
N1529 C1527 1.384 . S
H1530 C1536 0.930 . S
H1531 C1540 0.930 . S
H1532 C1545 0.929 . S
H1533 C1543 0.929 . S
H1534 C1538 0.929 . S
H1535 C1544 0.929 . S
C1536 H1530 0.930 . S
C1536 C1537 1.367 . S
C1536 C1544 1.378 . S
C1537 C1536 1.367 . S
C1537 C1545 1.433 . S
C1538 H1534 0.929 . S
C1538 C1540 1.378 . S
C1538 C1542 1.350 . S
C1539 C1542 1.463 . S
C1539 C1544 1.350 . S
C1539 N1547 1.427 . S
C1540 H1531 0.930 . S
C1540 C1538 1.378 . S
C1540 C1541 1.367 . S
C1541 C1540 1.367 . S
C1541 C1543 1.433 . S
C1542 C1538 1.350 . S
C1542 C1539 1.463 . S
C1542 N1546 1.427 . S
C1543 H1533 0.929 . S
C1543 C1541 1.433 . S
C1543 N1546 1.384 . S
C1544 H1535 0.929 . S
C1544 C1536 1.378 . S
C1544 C1539 1.350 . S
C1545 H1532 0.929 . S
C1545 C1537 1.433 . S
C1545 N1547 1.384 . S
N1546 C1542 1.427 . S
N1546 C1543 1.384 . S
N1547 C1539 1.427 . S
N1547 C1545 1.384 . S
H1548 C1554 0.930 . S
H1549 C1558 0.930 . S
H1550 C1563 0.929 . S
H1551 C1561 0.929 . S
H1552 C1556 0.929 . S
H1553 C1562 0.929 . S
C1554 H1548 0.930 . S
C1554 C1555 1.367 . S
C1554 C1562 1.378 . S
C1555 C1554 1.367 . S
C1555 C1563 1.433 . S
C1556 H1552 0.929 . S
C1556 C1558 1.378 . S
C1556 C1560 1.350 . S
C1557 C1560 1.463 . S
C1557 C1562 1.350 . S
C1557 N1565 1.427 . S
C1558 H1549 0.930 . S
C1558 C1556 1.378 . S
C1558 C1559 1.367 . S
C1559 C1558 1.367 . S
C1559 C1561 1.433 . S
C1560 C1556 1.350 . S
C1560 C1557 1.463 . S
C1560 N1564 1.427 . S
C1561 H1551 0.929 . S
C1561 C1559 1.433 . S
C1561 N1564 1.384 . S
C1562 H1553 0.929 . S
C1562 C1554 1.378 . S
C1562 C1557 1.350 . S
C1563 H1550 0.929 . S
C1563 C1555 1.433 . S
C1563 N1565 1.384 . S
N1564 C1560 1.427 . S
N1564 C1561 1.384 . S
N1565 C1557 1.427 . S
N1565 C1563 1.384 . S
H1566 C1572 0.930 . S
H1567 C1576 0.930 . S
H1568 C1581 0.929 . S
H1569 C1579 0.929 . S
H1570 C1574 0.929 . S
H1571 C1580 0.929 . S
C1572 H1566 0.930 . S
C1572 C1573 1.367 . S
C1572 C1580 1.378 . S
C1573 C1572 1.367 . S
C1573 C1581 1.433 . S
C1574 H1570 0.929 . S
C1574 C1576 1.378 . S
C1574 C1578 1.350 . S
C1575 C1578 1.463 . S
C1575 C1580 1.350 . S
C1575 N1583 1.427 . S
C1576 H1567 0.930 . S
C1576 C1574 1.378 . S
C1576 C1577 1.367 . S
C1577 C1576 1.367 . S
C1577 C1579 1.433 . S
C1578 C1574 1.350 . S
C1578 C1575 1.463 . S
C1578 N1582 1.427 . S
C1579 H1569 0.929 . S
C1579 C1577 1.433 . S
C1579 N1582 1.384 . S
C1580 H1571 0.929 . S
C1580 C1572 1.378 . S
C1580 C1575 1.350 . S
C1581 H1568 0.929 . S
C1581 C1573 1.433 . S
C1581 N1583 1.384 . S
N1582 C1578 1.427 . S
N1582 C1579 1.384 . S
N1583 C1575 1.427 . S
N1583 C1581 1.384 . S
H1584 C1590 0.930 . S
H1585 C1594 0.918 1_545 S
H1586 C1599 0.929 . S
H1587 C1597 0.929 . S
H1588 C1592 0.929 1_545 S
H1589 C1598 0.929 . S
C1590 H1584 0.930 . S
C1590 C1591 1.367 . S
C1590 C1598 1.378 . S
C1591 C1590 1.367 . S
C1591 C1599 1.433 . S
C1592 H1588 0.929 1_565 S
C1592 C1594 1.394 . S
C1592 C1596 1.350 . S
C1593 C1596 1.463 . S
C1593 C1598 1.350 . S
C1593 N1601 1.427 . S
C1594 H1585 0.918 1_565 S
C1594 C1592 1.394 . S
C1594 C1595 1.366 . S
C1595 C1594 1.366 . S
C1595 C1597 1.433 . S
C1596 C1592 1.350 . S
C1596 C1593 1.463 . S
C1596 N1600 1.427 . S
C1597 H1587 0.929 . S
C1597 C1595 1.433 . S
C1597 N1600 1.384 . S
C1598 H1589 0.929 . S
C1598 C1590 1.378 . S
C1598 C1593 1.350 . S
C1599 H1586 0.929 . S
C1599 C1591 1.433 . S
C1599 N1601 1.384 . S
N1600 C1596 1.427 . S
N1600 C1597 1.384 . S
N1601 C1593 1.427 . S
N1601 C1599 1.384 . S
H1602 C1608 0.930 . S
H1603 C1612 0.930 . S
H1604 C1617 0.929 . S
H1605 C1615 0.929 . S
H1606 C1610 0.929 . S
H1607 C1616 0.929 . S
C1608 H1602 0.930 . S
C1608 C1609 1.367 1_655 S
C1608 C1616 1.378 . S
C1609 C1608 1.367 1_455 S
C1609 C1617 1.433 . S
C1610 H1606 0.929 . S
C1610 C1612 1.378 . S
C1610 C1614 1.350 . S
C1611 C1614 1.463 . S
C1611 C1616 1.350 1_455 S
C1611 N1619 1.427 . S
C1612 H1603 0.930 . S
C1612 C1610 1.378 . S
C1612 C1613 1.367 . S
C1613 C1612 1.367 . S
C1613 C1615 1.433 1_455 S
C1614 C1610 1.350 . S
C1614 C1611 1.463 . S
C1614 N1618 1.427 1_455 S
C1615 H1605 0.929 . S
C1615 C1613 1.433 1_655 S
C1615 N1618 1.384 . S
C1616 H1607 0.929 . S
C1616 C1608 1.378 . S
C1616 C1611 1.350 1_655 S
C1617 H1604 0.929 . S
C1617 C1609 1.433 . S
C1617 N1619 1.384 . S
N1618 C1614 1.427 1_655 S
N1618 C1615 1.384 . S
N1619 C1611 1.427 . S
N1619 C1617 1.384 . S
H1620 C1626 0.930 . S
H1621 C1630 0.930 . S
H1622 C1635 0.929 . S
H1623 C1633 0.929 . S
H1624 C1628 0.929 . S
H1625 C1634 0.929 . S
C1626 H1620 0.930 . S
C1626 C1627 1.367 . S
C1626 C1634 1.378 . S
C1627 C1626 1.367 . S
C1627 C1635 1.433 . S
C1628 H1624 0.929 . S
C1628 C1630 1.378 . S
C1628 C1632 1.350 . S
C1629 C1632 1.463 . S
C1629 C1634 1.350 . S
C1629 N1637 1.427 . S
C1630 H1621 0.930 . S
C1630 C1628 1.378 . S
C1630 C1631 1.367 . S
C1631 C1630 1.367 . S
C1631 C1633 1.433 . S
C1632 C1628 1.350 . S
C1632 C1629 1.463 . S
C1632 N1636 1.427 . S
C1633 H1623 0.929 . S
C1633 C1631 1.433 . S
C1633 N1636 1.384 . S
C1634 H1625 0.929 . S
C1634 C1626 1.378 . S
C1634 C1629 1.350 . S
C1635 H1622 0.929 . S
C1635 C1627 1.433 . S
C1635 N1637 1.384 . S
N1636 C1632 1.427 . S
N1636 C1633 1.384 . S
N1637 C1629 1.427 . S
N1637 C1635 1.384 . S
H1638 C1644 0.930 . S
H1639 C1648 0.930 . S
H1640 C1653 0.929 . S
H1641 C1651 0.929 . S
H1642 C1646 0.929 . S
H1643 C1652 0.929 . S
C1644 H1638 0.930 . S
C1644 C1645 1.367 . S
C1644 C1652 1.378 . S
C1645 C1644 1.367 . S
C1645 C1653 1.433 . S
C1646 H1642 0.929 . S
C1646 C1648 1.378 . S
C1646 C1650 1.350 . S
C1647 C1650 1.463 . S
C1647 C1652 1.350 . S
C1647 N1655 1.427 . S
C1648 H1639 0.930 . S
C1648 C1646 1.378 . S
C1648 C1649 1.367 . S
C1649 C1648 1.367 . S
C1649 C1651 1.433 . S
C1650 C1646 1.350 . S
C1650 C1647 1.463 . S
C1650 N1654 1.427 . S
C1651 H1641 0.929 . S
C1651 C1649 1.433 . S
C1651 N1654 1.384 . S
C1652 H1643 0.929 . S
C1652 C1644 1.378 . S
C1652 C1647 1.350 . S
C1653 H1640 0.929 . S
C1653 C1645 1.433 . S
C1653 N1655 1.384 . S
N1654 C1650 1.427 . S
N1654 C1651 1.384 . S
N1655 C1647 1.427 . S
N1655 C1653 1.384 . S
H1656 C1662 0.930 . S
H1657 C1666 0.930 . S
H1658 C1671 0.929 . S
H1659 C1669 0.929 . S
H1660 C1664 0.929 . S
H1661 C1670 0.929 . S
C1662 H1656 0.930 . S
C1662 C1663 1.367 . S
C1662 C1670 1.378 . S
C1663 C1662 1.367 . S
C1663 C1671 1.433 . S
C1664 H1660 0.929 . S
C1664 C1666 1.378 . S
C1664 C1668 1.350 . S
C1665 C1668 1.463 . S
C1665 C1670 1.350 . S
C1665 N1673 1.427 . S
C1666 H1657 0.930 . S
C1666 C1664 1.378 . S
C1666 C1667 1.367 . S
C1667 C1666 1.367 . S
C1667 C1669 1.433 . S
C1668 C1664 1.350 . S
C1668 C1665 1.463 . S
C1668 N1672 1.427 . S
C1669 H1659 0.929 . S
C1669 C1667 1.433 . S
C1669 N1672 1.384 . S
C1670 H1661 0.929 . S
C1670 C1662 1.378 . S
C1670 C1665 1.350 . S
C1671 H1658 0.929 . S
C1671 C1663 1.433 . S
C1671 N1673 1.384 . S
N1672 C1668 1.427 . S
N1672 C1669 1.384 . S
N1673 C1665 1.427 . S
N1673 C1671 1.384 . S
H1674 C1680 0.930 . S
H1675 C1684 0.930 . S
H1676 C1689 0.929 . S
H1677 C1687 0.929 . S
H1678 C1682 0.929 . S
H1679 C1688 0.918 1_565 S
C1680 H1674 0.930 . S
C1680 C1681 1.367 . S
C1680 C1688 1.378 . S
C1681 C1680 1.367 . S
C1681 C1689 1.433 . S
C1682 H1678 0.929 . S
C1682 C1684 1.378 . S
C1682 C1686 1.350 . S
C1683 C1686 1.463 . S
C1683 C1688 1.350 . S
C1683 N1691 1.427 . S
C1684 H1675 0.930 . S
C1684 C1682 1.378 . S
C1684 C1685 1.367 . S
C1685 C1684 1.367 . S
C1685 C1687 1.433 1_545 S
C1686 C1682 1.350 . S
C1686 C1683 1.463 . S
C1686 N1690 1.427 . S
C1687 H1677 0.929 . S
C1687 C1685 1.433 1_565 S
C1687 N1690 1.384 1_565 S
C1688 H1679 0.918 1_545 S
C1688 C1680 1.378 . S
C1688 C1683 1.350 . S
C1689 H1676 0.929 . S
C1689 C1681 1.433 . S
C1689 N1691 1.384 . S
N1690 C1686 1.427 . S
N1690 C1687 1.384 1_545 S
N1691 C1683 1.427 . S
N1691 C1689 1.384 . S
H1692 C1698 0.930 . S
H1693 C1702 0.930 . S
H1694 C1707 0.929 . S
H1695 C1705 0.929 . S
H1696 C1700 0.929 . S
H1697 C1706 0.929 . S
C1698 H1692 0.930 . S
C1698 C1699 1.367 . S
C1698 C1706 1.378 . S
C1699 C1698 1.367 . S
C1699 C1707 1.433 . S
C1700 H1696 0.929 . S
C1700 C1702 1.378 . S
C1700 C1704 1.350 . S
C1701 C1704 1.463 . S
C1701 C1706 1.350 . S
C1701 N1709 1.427 . S
C1702 H1693 0.930 . S
C1702 C1700 1.378 . S
C1702 C1703 1.367 . S
C1703 C1702 1.367 . S
C1703 C1705 1.433 . S
C1704 C1700 1.350 . S
C1704 C1701 1.463 . S
C1704 N1708 1.427 . S
C1705 H1695 0.929 . S
C1705 C1703 1.433 . S
C1705 N1708 1.384 . S
C1706 H1697 0.929 . S
C1706 C1698 1.378 . S
C1706 C1701 1.350 . S
C1707 H1694 0.929 . S
C1707 C1699 1.433 . S
C1707 N1709 1.384 . S
N1708 C1704 1.427 . S
N1708 C1705 1.384 . S
N1709 C1701 1.427 . S
N1709 C1707 1.384 . S
H1710 C1716 0.930 . S
H1711 C1720 0.930 . S
H1712 C1725 0.929 . S
H1713 C1723 0.929 . S
H1714 C1718 0.929 . S
H1715 C1724 0.929 . S
C1716 H1710 0.930 . S
C1716 C1717 1.367 . S
C1716 C1724 1.378 . S
C1717 C1716 1.367 . S
C1717 C1725 1.433 . S
C1718 H1714 0.929 . S
C1718 C1720 1.378 . S
C1718 C1722 1.350 . S
C1719 C1722 1.463 . S
C1719 C1724 1.350 . S
C1719 N1727 1.427 . S
C1720 H1711 0.930 . S
C1720 C1718 1.378 . S
C1720 C1721 1.367 . S
C1721 C1720 1.367 . S
C1721 C1723 1.433 . S
C1722 C1718 1.350 . S
C1722 C1719 1.463 . S
C1722 N1726 1.427 . S
C1723 H1713 0.929 . S
C1723 C1721 1.433 . S
C1723 N1726 1.384 . S
C1724 H1715 0.929 . S
C1724 C1716 1.378 . S
C1724 C1719 1.350 . S
C1725 H1712 0.929 . S
C1725 C1717 1.433 . S
C1725 N1727 1.384 . S
N1726 C1722 1.427 . S
N1726 C1723 1.384 . S
N1727 C1719 1.427 . S
N1727 C1725 1.384 . S
H1728 C1734 0.930 . S
H1729 C1738 0.930 . S
H1730 C1743 0.929 . S
H1731 C1741 0.929 . S
H1732 C1736 0.929 . S
H1733 C1742 0.929 . S
C1734 H1728 0.930 . S
C1734 C1735 1.367 . S
C1734 C1742 1.378 . S
C1735 C1734 1.367 . S
C1735 C1743 1.433 . S
C1736 H1732 0.929 . S
C1736 C1738 1.378 . S
C1736 C1740 1.350 . S
C1737 C1740 1.463 . S
C1737 C1742 1.350 . S
C1737 N1745 1.427 . S
C1738 H1729 0.930 . S
C1738 C1736 1.378 . S
C1738 C1739 1.367 . S
C1739 C1738 1.367 . S
C1739 C1741 1.433 . S
C1740 C1736 1.350 . S
C1740 C1737 1.463 . S
C1740 N1744 1.427 . S
C1741 H1731 0.929 . S
C1741 C1739 1.433 . S
C1741 N1744 1.384 . S
C1742 H1733 0.929 . S
C1742 C1734 1.378 . S
C1742 C1737 1.350 . S
C1743 H1730 0.929 . S
C1743 C1735 1.433 . S
C1743 N1745 1.384 . S
N1744 C1740 1.427 . S
N1744 C1741 1.384 . S
N1745 C1737 1.427 . S
N1745 C1743 1.384 . S
H1746 C1752 0.930 . S
H1747 C1756 0.930 . S
H1748 C1761 0.929 . S
H1749 C1759 0.929 . S
H1750 C1754 0.929 . S
H1751 C1760 0.929 . S
C1752 H1746 0.930 . S
C1752 C1753 1.367 . S
C1752 C1760 1.378 . S
C1753 C1752 1.367 . S
C1753 C1761 1.433 . S
C1754 H1750 0.929 . S
C1754 C1756 1.378 . S
C1754 C1758 1.350 . S
C1755 C1758 1.463 . S
C1755 C1760 1.350 . S
C1755 N1763 1.427 . S
C1756 H1747 0.930 . S
C1756 C1754 1.378 . S
C1756 C1757 1.367 . S
C1757 C1756 1.367 . S
C1757 C1759 1.433 . S
C1758 C1754 1.350 . S
C1758 C1755 1.463 . S
C1758 N1762 1.427 . S
C1759 H1749 0.929 . S
C1759 C1757 1.433 . S
C1759 N1762 1.384 . S
C1760 H1751 0.929 . S
C1760 C1752 1.378 . S
C1760 C1755 1.350 . S
C1761 H1748 0.929 . S
C1761 C1753 1.433 . S
C1761 N1763 1.384 . S
N1762 C1758 1.427 . S
N1762 C1759 1.384 . S
N1763 C1755 1.427 . S
N1763 C1761 1.384 . S
H1764 C1770 0.930 . S
H1765 C1774 0.930 . S
H1766 C1779 0.929 . S
H1767 C1777 0.929 . S
H1768 C1772 0.929 . S
H1769 C1778 0.929 . S
C1770 H1764 0.930 . S
C1770 C1771 1.367 . S
C1770 C1778 1.378 . S
C1771 C1770 1.367 . S
C1771 C1779 1.433 . S
C1772 H1768 0.929 . S
C1772 C1774 1.378 . S
C1772 C1776 1.350 . S
C1773 C1776 1.463 . S
C1773 C1778 1.350 . S
C1773 N1781 1.427 . S
C1774 H1765 0.930 . S
C1774 C1772 1.378 . S
C1774 C1775 1.367 . S
C1775 C1774 1.367 . S
C1775 C1777 1.433 . S
C1776 C1772 1.350 . S
C1776 C1773 1.463 . S
C1776 N1780 1.427 . S
C1777 H1767 0.929 . S
C1777 C1775 1.433 . S
C1777 N1780 1.384 . S
C1778 H1769 0.929 . S
C1778 C1770 1.378 . S
C1778 C1773 1.350 . S
C1779 H1766 0.929 . S
C1779 C1771 1.433 . S
C1779 N1781 1.384 . S
N1780 C1776 1.427 . S
N1780 C1777 1.384 . S
N1781 C1773 1.427 . S
N1781 C1779 1.384 . S
H1782 C1788 0.930 . S
H1783 C1792 0.930 . S
H1784 C1797 0.929 . S
H1785 C1795 0.929 . S
H1786 C1790 0.929 . S
H1787 C1796 0.929 . S
C1788 H1782 0.930 . S
C1788 C1789 1.367 . S
C1788 C1796 1.378 . S
C1789 C1788 1.367 . S
C1789 C1797 1.433 . S
C1790 H1786 0.929 . S
C1790 C1792 1.378 . S
C1790 C1794 1.350 . S
C1791 C1794 1.463 . S
C1791 C1796 1.350 . S
C1791 N1799 1.427 . S
C1792 H1783 0.930 . S
C1792 C1790 1.378 . S
C1792 C1793 1.367 . S
C1793 C1792 1.367 . S
C1793 C1795 1.433 . S
C1794 C1790 1.350 . S
C1794 C1791 1.463 . S
C1794 N1798 1.427 . S
C1795 H1785 0.929 . S
C1795 C1793 1.433 . S
C1795 N1798 1.384 . S
C1796 H1787 0.929 . S
C1796 C1788 1.378 . S
C1796 C1791 1.350 . S
C1797 H1784 0.929 . S
C1797 C1789 1.433 . S
C1797 N1799 1.384 . S
N1798 C1794 1.427 . S
N1798 C1795 1.384 . S
N1799 C1791 1.427 . S
N1799 C1797 1.384 . S
H1800 C1806 0.930 . S
H1801 C1810 0.930 . S
H1802 C1815 0.929 . S
H1803 C1813 0.929 . S
H1804 C1808 0.929 . S
H1805 C1814 0.929 . S
C1806 H1800 0.930 . S
C1806 C1807 1.367 . S
C1806 C1814 1.378 . S
C1807 C1806 1.367 . S
C1807 C1815 1.433 . S
C1808 H1804 0.929 . S
C1808 C1810 1.378 . S
C1808 C1812 1.350 . S
C1809 C1812 1.463 . S
C1809 C1814 1.350 . S
C1809 N1817 1.427 . S
C1810 H1801 0.930 . S
C1810 C1808 1.378 . S
C1810 C1811 1.367 . S
C1811 C1810 1.367 . S
C1811 C1813 1.433 . S
C1812 C1808 1.350 . S
C1812 C1809 1.463 . S
C1812 N1816 1.427 . S
C1813 H1803 0.929 . S
C1813 C1811 1.433 . S
C1813 N1816 1.384 . S
C1814 H1805 0.929 . S
C1814 C1806 1.378 . S
C1814 C1809 1.350 . S
C1815 H1802 0.929 . S
C1815 C1807 1.433 . S
C1815 N1817 1.384 . S
N1816 C1812 1.427 . S
N1816 C1813 1.384 . S
N1817 C1809 1.427 . S
N1817 C1815 1.384 . S
H1818 C1824 0.930 . S
H1819 C1828 0.930 . S
H1820 C1833 0.929 . S
H1821 C1831 0.929 . S
H1822 C1826 0.929 . S
H1823 C1832 0.929 . S
C1824 H1818 0.930 . S
C1824 C1825 1.367 . S
C1824 C1832 1.378 . S
C1825 C1824 1.367 . S
C1825 C1833 1.433 . S
C1826 H1822 0.929 . S
C1826 C1828 1.378 . S
C1826 C1830 1.350 . S
C1827 C1830 1.463 . S
C1827 C1832 1.350 . S
C1827 N1835 1.427 . S
C1828 H1819 0.930 . S
C1828 C1826 1.378 . S
C1828 C1829 1.367 . S
C1829 C1828 1.367 . S
C1829 C1831 1.433 . S
C1830 C1826 1.350 . S
C1830 C1827 1.463 . S
C1830 N1834 1.427 . S
C1831 H1821 0.929 . S
C1831 C1829 1.433 . S
C1831 N1834 1.384 . S
C1832 H1823 0.929 . S
C1832 C1824 1.378 . S
C1832 C1827 1.350 . S
C1833 H1820 0.929 . S
C1833 C1825 1.433 . S
C1833 N1835 1.384 . S
N1834 C1830 1.427 . S
N1834 C1831 1.384 . S
N1835 C1827 1.427 . S
N1835 C1833 1.384 . S
H1836 C1842 0.930 . S
H1837 C1846 0.930 . S
H1838 C1851 0.929 . S
H1839 C1849 0.929 . S
H1840 C1844 0.929 . S
H1841 C1850 0.929 . S
C1842 H1836 0.930 . S
C1842 C1843 1.367 . S
C1842 C1850 1.378 . S
C1843 C1842 1.367 . S
C1843 C1851 1.433 . S
C1844 H1840 0.929 . S
C1844 C1846 1.378 . S
C1844 C1848 1.350 . S
C1845 C1848 1.463 . S
C1845 C1850 1.350 . S
C1845 N1853 1.427 . S
C1846 H1837 0.930 . S
C1846 C1844 1.378 . S
C1846 C1847 1.367 . S
C1847 C1846 1.367 . S
C1847 C1849 1.433 . S
C1848 C1844 1.350 . S
C1848 C1845 1.463 . S
C1848 N1852 1.427 . S
C1849 H1839 0.929 . S
C1849 C1847 1.433 . S
C1849 N1852 1.384 . S
C1850 H1841 0.929 . S
C1850 C1842 1.378 . S
C1850 C1845 1.350 . S
C1851 H1838 0.929 . S
C1851 C1843 1.433 . S
C1851 N1853 1.384 . S
N1852 C1848 1.427 . S
N1852 C1849 1.384 . S
N1853 C1845 1.427 . S
N1853 C1851 1.384 . S
H1854 C1860 0.930 . S
H1855 C1864 0.930 . S
H1856 C1869 0.929 . S
H1857 C1867 0.929 . S
H1858 C1862 0.929 . S
H1859 C1868 0.929 . S
C1860 H1854 0.930 . S
C1860 C1861 1.367 . S
C1860 C1868 1.378 . S
C1861 C1860 1.367 . S
C1861 C1869 1.433 . S
C1862 H1858 0.929 . S
C1862 C1864 1.378 . S
C1862 C1866 1.350 . S
C1863 C1866 1.463 . S
C1863 C1868 1.350 . S
C1863 N1871 1.427 . S
C1864 H1855 0.930 . S
C1864 C1862 1.378 . S
C1864 C1865 1.367 . S
C1865 C1864 1.367 . S
C1865 C1867 1.433 . S
C1866 C1862 1.350 . S
C1866 C1863 1.463 . S
C1866 N1870 1.427 . S
C1867 H1857 0.929 . S
C1867 C1865 1.433 . S
C1867 N1870 1.384 . S
C1868 H1859 0.929 . S
C1868 C1860 1.378 . S
C1868 C1863 1.350 . S
C1869 H1856 0.929 . S
C1869 C1861 1.433 . S
C1869 N1871 1.384 . S
N1870 C1866 1.427 . S
N1870 C1867 1.384 . S
N1871 C1863 1.427 . S
N1871 C1869 1.384 . S
H1872 C1878 0.930 . S
H1873 C1882 0.930 . S
H1874 C1887 0.929 . S
H1875 C1885 0.929 . S
H1876 C1880 0.929 . S
H1877 C1886 0.929 . S
C1878 H1872 0.930 . S
C1878 C1879 1.367 . S
C1878 C1886 1.378 . S
C1879 C1878 1.367 . S
C1879 C1887 1.433 . S
C1880 H1876 0.929 . S
C1880 C1882 1.378 . S
C1880 C1884 1.350 . S
C1881 C1884 1.463 . S
C1881 C1886 1.350 . S
C1881 N1889 1.427 . S
C1882 H1873 0.930 . S
C1882 C1880 1.378 . S
C1882 C1883 1.367 . S
C1883 C1882 1.367 . S
C1883 C1885 1.433 . S
C1884 C1880 1.350 . S
C1884 C1881 1.463 . S
C1884 N1888 1.427 . S
C1885 H1875 0.929 . S
C1885 C1883 1.433 . S
C1885 N1888 1.384 . S
C1886 H1877 0.929 . S
C1886 C1878 1.378 . S
C1886 C1881 1.350 . S
C1887 H1874 0.929 . S
C1887 C1879 1.433 . S
C1887 N1889 1.384 . S
N1888 C1884 1.427 . S
N1888 C1885 1.384 . S
N1889 C1881 1.427 . S
N1889 C1887 1.384 . S
H1890 C1896 0.930 . S
H1891 C1900 0.930 . S
H1892 C1905 0.929 . S
H1893 C1903 0.929 . S
H1894 C1898 0.929 . S
H1895 C1904 0.929 . S
C1896 H1890 0.930 . S
C1896 C1897 1.367 . S
C1896 C1904 1.378 . S
C1897 C1896 1.367 . S
C1897 C1905 1.433 . S
C1898 H1894 0.929 . S
C1898 C1900 1.378 . S
C1898 C1902 1.350 . S
C1899 C1902 1.463 . S
C1899 C1904 1.350 . S
C1899 N1907 1.427 . S
C1900 H1891 0.930 . S
C1900 C1898 1.378 . S
C1900 C1901 1.367 . S
C1901 C1900 1.367 . S
C1901 C1903 1.433 . S
C1902 C1898 1.350 . S
C1902 C1899 1.463 . S
C1902 N1906 1.427 . S
C1903 H1893 0.929 . S
C1903 C1901 1.433 . S
C1903 N1906 1.384 . S
C1904 H1895 0.929 . S
C1904 C1896 1.378 . S
C1904 C1899 1.350 . S
C1905 H1892 0.929 . S
C1905 C1897 1.433 . S
C1905 N1907 1.384 . S
N1906 C1902 1.427 . S
N1906 C1903 1.384 . S
N1907 C1899 1.427 . S
N1907 C1905 1.384 . S
C943 C439 1.526 . S
C947 C579 1.628 . S
C961 C465 1.815 . S
C965 C619 1.808 . S
C979 C401 1.725 . S
C983 C671 1.693 . S
C997 C369 1.558 . S
C1001 C631 1.532 . S
C1019 C659 1.508 . S
C1015 C305 1.504 . S
C1033 C343 1.256 . S
C1037 C591 1.369 1_556 S
C1055 C598 1.663 . S
C1051 C375 1.674 . S
C1073 C638 1.775 . S
C1069 C311 1.776 . S
C1087 C337 1.597 . S
C1091 C658 1.701 . S
C1105 C433 1.463 . S
C1109 C618 1.523 . S
C1123 C471 1.468 . S
C1127 C678 1.470 . S
C1145 C578 1.405 . S
C1141 C407 1.426 . S
C1163 C699 1.627 . S
C1159 C55 1.522 . S
C1177 C81 1.815 . S
C1181 C739 1.808 . S
C1195 C17 1.725 . S
C1199 C791 1.694 . S
C1213 C561 1.558 . S
C1217 C751 1.532 . S
C1231 C497 1.504 . S
C1235 C779 1.513 . S
C1249 C535 1.278 . S
C1253 C711 1.376 . S
C1267 C567 1.674 . S
C1271 C718 1.662 . S
C1285 C503 1.778 . S
C1289 C758 1.771 . S
C1307 C778 1.695 . S
C1303 C529 1.596 . S
C1321 C49 1.462 . S
C1325 C738 1.522 . S
C1343 C798 1.471 . S
C1339 C87 1.472 . S
C1357 C23 1.427 . S
C1361 C698 1.413 . S
C1379 C819 1.625 . S
C1375 C247 1.520 . S
C1393 C273 1.814 . S
C1397 C859 1.810 . S
C1415 C911 1.690 . S
C1411 C209 1.724 . S
C1433 C871 1.524 . S
C1429 C177 1.557 . S
C1451 C899 1.512 . S
C1447 C113 1.507 . S
C1465 C151 1.256 . S
C1469 C831 1.369 . S
C1483 C183 1.673 . S
C1487 C838 1.664 . S
C1501 C119 1.777 . S
C1505 C878 1.774 . S
C1523 C898 1.686 . S
C1519 C145 1.596 . S
C1537 C241 1.452 . S
C1541 C858 1.528 . S
C1555 C279 1.472 . S
C1559 C918 1.471 . S
C1573 C215 1.427 . S
C1577 C818 1.414 . S
C1591 C509 1.347 . S
C1595 C602 1.351 . S
C1613 C642 1.797 . S
C1609 C541 1.715 . S
C1627 C573 1.559 . S
C1631 C665 1.561 . S
C1645 C221 1.846 . S
C1649 C625 1.821 . S
C1663 C253 1.472 . S
C1667 C682 1.533 . S
C1685 C585 1.346 . S
C1681 C285 1.329 . S
C1699 C125 1.348 . S
C1703 C722 1.352 . S
C1717 C157 1.711 . S
C1721 C762 1.798 . S
C1735 C189 1.559 . S
C1739 C785 1.561 . S
C1753 C413 1.846 . S
C1757 C745 1.820 . S
C1775 C802 1.535 . S
C1771 C445 1.476 . S
C1789 C477 1.329 . S
C1793 C705 1.347 . S
C1807 C317 1.348 . S
C1811 C842 1.352 . S
C1825 C349 1.713 . S
C1829 C882 1.796 . S
C1847 C905 1.558 . S
C1843 C381 1.559 . S
C1861 C29 1.847 . S
C1865 C865 1.818 . S
C1879 C61 1.475 . S
C1883 C922 1.535 . S
C1897 C93 1.329 . S
C1901 C825 1.347 . S
