# Generated by pormake.
# Topology zzz, (3,6)-cn, num edge types: 1
# Building blocks:
#     Node 0, Type 0, BuildingBlock: BETDIP_clean_linker_0, # of connection points: 3
#     Node 1, Type 0, BuildingBlock: BETDIP_clean_linker_0, # of connection points: 3
#     Node 2, Type 0, BuildingBlock: BETDIP_clean_linker_0, # of connection points: 3
#     Node 3, Type 0, BuildingBlock: BETDIP_clean_linker_0, # of connection points: 3
#     Node 4, Type 0, BuildingBlock: BETDIP_clean_linker_0, # of connection points: 3
#     Node 5, Type 0, BuildingBlock: BETDIP_clean_linker_0, # of connection points: 3
#     Node 6, Type 0, BuildingBlock: BETDIP_clean_linker_0, # of connection points: 3
#     Node 7, Type 0, BuildingBlock: BETDIP_clean_linker_0, # of connection points: 3
#     Node 8, Type 1, BuildingBlock: LEVNOQ01_clean_sbu_1, # of connection points: 6
#     Node 9, Type 1, BuildingBlock: LEVNOQ01_clean_sbu_1, # of connection points: 6
#     Node 10, Type 1, BuildingBlock: LEVNOQ01_clean_sbu_1, # of connection points: 6
#     Node 11, Type 1, BuildingBlock: LEVNOQ01_clean_sbu_1, # of connection points: 6
#     Edge 12, Type (0, 1), BuildingBlock: XIVTED_clean_linker_0, # of connection points: 2
#     Edge 13, Type (0, 1), BuildingBlock: XIVTED_clean_linker_0, # of connection points: 2
#     Edge 14, Type (0, 1), BuildingBlock: XIVTED_clean_linker_0, # of connection points: 2
#     Edge 15, Type (0, 1), BuildingBlock: XIVTED_clean_linker_0, # of connection points: 2
#     Edge 16, Type (0, 1), BuildingBlock: XIVTED_clean_linker_0, # of connection points: 2
#     Edge 17, Type (0, 1), BuildingBlock: XIVTED_clean_linker_0, # of connection points: 2
#     Edge 18, Type (0, 1), BuildingBlock: XIVTED_clean_linker_0, # of connection points: 2
#     Edge 19, Type (0, 1), BuildingBlock: XIVTED_clean_linker_0, # of connection points: 2
#     Edge 20, Type (0, 1), BuildingBlock: XIVTED_clean_linker_0, # of connection points: 2
#     Edge 21, Type (0, 1), BuildingBlock: XIVTED_clean_linker_0, # of connection points: 2
#     Edge 22, Type (0, 1), BuildingBlock: XIVTED_clean_linker_0, # of connection points: 2
#     Edge 23, Type (0, 1), BuildingBlock: XIVTED_clean_linker_0, # of connection points: 2
#     Edge 24, Type (0, 1), BuildingBlock: XIVTED_clean_linker_0, # of connection points: 2
#     Edge 25, Type (0, 1), BuildingBlock: XIVTED_clean_linker_0, # of connection points: 2
#     Edge 26, Type (0, 1), BuildingBlock: XIVTED_clean_linker_0, # of connection points: 2
#     Edge 27, Type (0, 1), BuildingBlock: XIVTED_clean_linker_0, # of connection points: 2
#     Edge 28, Type (0, 1), BuildingBlock: XIVTED_clean_linker_0, # of connection points: 2
#     Edge 29, Type (0, 1), BuildingBlock: XIVTED_clean_linker_0, # of connection points: 2
#     Edge 30, Type (0, 1), BuildingBlock: XIVTED_clean_linker_0, # of connection points: 2
#     Edge 31, Type (0, 1), BuildingBlock: XIVTED_clean_linker_0, # of connection points: 2
#     Edge 32, Type (0, 1), BuildingBlock: XIVTED_clean_linker_0, # of connection points: 2
#     Edge 33, Type (0, 1), BuildingBlock: XIVTED_clean_linker_0, # of connection points: 2
#     Edge 34, Type (0, 1), BuildingBlock: XIVTED_clean_linker_0, # of connection points: 2
#     Edge 35, Type (0, 1), BuildingBlock: XIVTED_clean_linker_0, # of connection points: 2
# Relax obj value: 0.136
# Max RMSD: 0.181
# Mean RMSD: 0.106
data_MOF--net-zzz--node1-LEVNOQ01_clean_sbu_1--node2-BETDIP_clean_linker_0--edge1-XIVTED_clean_linker_0
_symmetry_space_group_name_H-M    P1
_symmetry_Int_Tables_number       1
_symmetry_cell_setting            triclinic
loop_
_symmetry_equiv_pos_as_xyz
'x, y, z'
_cell_length_a     50.696653
_cell_length_b     50.909241
_cell_length_c     15.784851
_cell_angle_alpha  89.886223
_cell_angle_beta   90.083194
_cell_angle_gamma 90.083871
loop_
_atom_site_label
_atom_site_type_symbol
_atom_site_fract_x
_atom_site_fract_y
_atom_site_fract_z
_atom_type_partial_charge
H0 H 0.771 0.56063 0.29669 0.0
H1 H 0.76787 0.55813 0.02393 0.0
H2 H 0.84247 0.5629 0.15062 0.0
H3 H 0.72641 0.59539 0.10295 0.0
C4 C 0.72158 0.57476 0.11161 0.0
C5 C 0.78098 0.56162 0.23613 0.0
C6 C 0.80876 0.5632 0.23299 0.0
C7 C 0.76608 0.5613 0.16049 0.0
C8 C 0.77908 0.56066 0.08187 0.0
C9 C 0.80662 0.56138 0.07877 0.0
C10 C 0.82109 0.56362 0.15384 0.0
N11 N 0.73819 0.55892 0.16331 0.0
H12 H 0.95078 0.76835 0.29715 0.0
H13 H 0.95037 0.76326 0.02428 0.0
H14 H 0.95261 0.83846 0.14476 0.0
H15 H 0.91189 0.72471 0.10281 0.0
C16 C 0.93242 0.71923 0.11173 0.0
C17 C 0.95017 0.77791 0.2358 0.0
C18 C 0.95062 0.8056 0.23032 0.0
C19 C 0.94865 0.76256 0.16138 0.0
C20 C 0.94946 0.7749 0.08162 0.0
C21 C 0.9507 0.80223 0.07629 0.0
C22 C 0.95052 0.81729 0.15015 0.0
N23 N 0.94848 0.73471 0.16637 0.0
H24 H 0.75128 0.94844 0.29807 0.0
H25 H 0.74908 0.948 0.02448 0.0
H26 H 0.67712 0.94764 0.16535 0.0
H27 H 0.78491 0.91444 0.06494 0.0
C28 C 0.79519 0.93089 0.09403 0.0
C29 C 0.7402 0.94745 0.23944 0.0
C30 C 0.7123 0.94713 0.2413 0.0
C31 C 0.75368 0.94611 0.16099 0.0
C32 C 0.73908 0.94674 0.085 0.0
C33 C 0.71158 0.947 0.0871 0.0
C34 C 0.6985 0.94629 0.16474 0.0
N35 N 0.78179 0.94553 0.1578 0.0
H36 H 0.5678 0.74711 0.30688 0.0
H37 H 0.56637 0.74779 0.03328 0.0
H38 H 0.56352 0.67475 0.16752 0.0
H39 H 0.6022 0.78381 0.07818 0.0
C40 C 0.58481 0.79281 0.106 0.0
C41 C 0.56789 0.73667 0.24718 0.0
C42 C 0.56662 0.70895 0.24637 0.0
C43 C 0.56943 0.7508 0.16999 0.0
C44 C 0.56747 0.73715 0.0927 0.0
C45 C 0.56542 0.70983 0.09245 0.0
C46 C 0.566 0.69595 0.16868 0.0
N47 N 0.57078 0.77873 0.16986 0.0
H48 H 0.25452 0.43754 0.11048 0.0
H49 H 0.25109 0.44499 0.38216 0.0
H50 H 0.17992 0.43475 0.23904 0.0
H51 H 0.28517 0.48374 0.28392 0.0
C52 C 0.29578 0.46522 0.28758 0.0
C53 C 0.24324 0.43694 0.16868 0.0
C54 C 0.21549 0.43484 0.16568 0.0
C55 C 0.25621 0.43976 0.24744 0.0
C56 C 0.24131 0.44134 0.32222 0.0
C57 C 0.21382 0.43893 0.31938 0.0
C58 C 0.20132 0.43482 0.24156 0.0
N59 N 0.28408 0.44238 0.25188 0.0
H60 H 0.07124 0.24853 0.1189 0.0
H61 H 0.07631 0.24675 0.39099 0.0
H62 H 0.07998 0.17499 0.2494 0.0
H63 H 0.03078 0.27947 0.26549 0.0
C64 C 0.04881 0.29025 0.27926 0.0
C65 C 0.07476 0.23764 0.17684 0.0
C66 C 0.07659 0.21003 0.17492 0.0
C67 C 0.07608 0.25099 0.25501 0.0
C68 C 0.07767 0.23664 0.33078 0.0
C69 C 0.0794 0.20923 0.3288 0.0
C70 C 0.08024 0.19632 0.25071 0.0
N71 N 0.07346 0.27866 0.25917 0.0
H72 H 0.2688 0.07085 0.11582 0.0
H73 H 0.26656 0.05995 0.38649 0.0
H74 H 0.34019 0.07403 0.26341 0.0
H75 H 0.24016 0.0221 0.30024 0.0
C76 C 0.22672 0.03849 0.29048 0.0
C77 C 0.27876 0.07118 0.17655 0.0
C78 C 0.30649 0.07399 0.18031 0.0
C79 C 0.26417 0.06662 0.25121 0.0
C80 C 0.27737 0.06497 0.32948 0.0
C81 C 0.30466 0.06829 0.33371 0.0
C82 C 0.31883 0.07359 0.25976 0.0
N83 N 0.23673 0.0609 0.24727 0.0
H84 H 0.44255 0.26547 0.12351 0.0
H85 H 0.44812 0.26102 0.39574 0.0
H86 H 0.44634 0.33604 0.27263 0.0
H87 H 0.4855 0.22555 0.24583 0.0
C88 C 0.46692 0.21751 0.26844 0.0
C89 C 0.44305 0.27522 0.18442 0.0
C90 C 0.44362 0.30293 0.1887 0.0
C91 C 0.44397 0.26011 0.2596 0.0
C92 C 0.44612 0.27261 0.3384 0.0
C93 C 0.44617 0.29999 0.34282 0.0
C94 C 0.44449 0.31484 0.26841 0.0
N95 N 0.44346 0.2323 0.25713 0.0
O96 O 0.04564 0.96709 0.86933 0.0
Mg97 Mg 0.05119 0.97139 0.73816 0.0
O98 O 0.00691 0.97598 0.81767 0.0
Mg99 Mg 0.00916 0.00736 0.71255 0.0
O100 O 0.05505 0.00734 0.68147 0.0
O101 O 0.0887 0.97944 0.70495 0.0
O102 O 0.00996 0.03882 0.60833 0.0
O103 O 0.01773 0.0416 0.80943 0.0
Mg104 Mg 0.96186 0.04706 0.70353 0.0
O105 O 0.96421 0.00887 0.74138 0.0
O106 O 0.97142 0.05577 0.5764 0.0
O107 O 0.98364 0.06885 0.79456 0.0
O108 O 0.92622 0.0309 0.73703 0.0
C109 C 0.01077 0.94998 0.61356 0.0
C110 C 0.02097 0.96406 0.87207 0.0
C111 C 0.08 0.00136 0.67474 0.0
C112 C 0.99597 0.05413 0.5631 0.0
C113 C 0.00571 0.063 0.82809 0.0
C114 C 0.93905 0.00992 0.7571 0.0
O115 O 0.03056 0.94449 0.65969 0.0
O116 O 0.00053 0.97301 0.61567 0.0
O117 O 0.44391 0.98834 0.76585 0.0
Mg118 Mg 0.47215 0.9664 0.69753 0.0
O119 O 0.47365 0.01709 0.80781 0.0
Mg120 Mg 0.50775 0.00585 0.71302 0.0
O121 O 0.50798 0.96037 0.75635 0.0
O122 O 0.47571 0.9301 0.74481 0.0
O123 O 0.54327 -0.00351 0.61993 0.0
O124 O 0.53841 0.00674 0.81961 0.0
Mg125 Mg 0.54441 0.05206 0.72814 0.0
O126 O 0.50782 0.05035 0.6749 0.0
O127 O 0.57017 0.02979 0.65003 0.0
O128 O 0.5489 0.04641 0.85957 0.0
O129 O 0.53112 0.08761 0.68607 0.0
C130 C 0.46446 0.99086 0.5547 0.0
C131 C 0.45001 0.00832 0.80936 0.0
C132 C 0.49891 0.9367 0.77093 0.0
C133 C 0.56558 0.00829 0.61166 0.0
C134 C 0.55063 0.02188 0.87007 0.0
C135 C 0.51046 0.07534 0.65922 0.0
O136 O 0.46647 0.9664 0.56569 0.0
O137 O 0.47691 0.00604 0.6046 0.0
O138 O 0.52954 0.43899 0.76089 0.0
Mg139 Mg 0.54999 0.46653 0.68423 0.0
O140 O 0.50121 0.46856 0.80704 0.0
Mg141 Mg 0.51013 0.50272 0.70971 0.0
O142 O 0.55671 0.50222 0.74097 0.0
O143 O 0.58777 0.47145 0.71798 0.0
O144 O 0.51731 0.53798 0.61435 0.0
O145 O 0.51104 0.53425 0.81315 0.0
Mg146 Mg 0.46171 0.54064 0.73024 0.0
O147 O 0.46513 0.50366 0.68374 0.0
O148 O 0.48337 0.56438 0.64319 0.0
O149 O 0.47212 0.54641 0.85831 0.0
O150 O 0.42635 0.52385 0.69498 0.0
C151 C 0.52103 0.45974 0.54867 0.0
C152 C 0.51034 0.44511 0.80828 0.0
C153 C 0.58117 0.49413 0.74739 0.0
C154 C 0.5048 0.55973 0.60389 0.0
C155 C 0.49698 0.54789 0.8631 0.0
C156 C 0.43992 0.50405 0.6689 0.0
O157 O 0.54578 0.46172 0.55284 0.0
O158 O 0.50722 0.47193 0.60287 0.0
O159 O 0.97195 0.46413 0.86112 0.0
Mg160 Mg 0.97715 0.46343 0.72902 0.0
O161 O 0.98043 0.50445 0.82405 0.0
Mg162 Mg 0.01155 0.50751 0.71782 0.0
O163 O 0.01307 0.46334 0.66967 0.0
O164 O 0.98671 0.42793 0.68164 0.0
O165 O 0.04261 0.51149 0.61049 0.0
O166 O 0.04631 0.49318 0.81224 0.0
Mg167 Mg 0.04575 0.54287 0.77233 0.0
O168 O 0.0075 0.55367 0.75816 0.0
O169 O 0.07207 0.53613 0.67409 0.0
O170 O 0.05721 0.52731 0.88814 0.0
O171 O 0.04136 0.58141 0.78276 0.0
C172 C 0.95395 0.50664 0.61842 0.0
C173 C 0.96873 0.48841 0.87301 0.0
C174 C 0.00809 0.43866 0.65391 0.0
C175 C 0.06554 0.52173 0.61278 0.0
C176 C 0.05967 0.50316 0.87307 0.0
C177 C 0.01637 0.57725 0.77577 0.0
O178 O 0.94928 0.48536 0.65787 0.0
O179 O 0.97663 0.51774 0.62416 0.0
H180 H 0.17825 0.06251 0.26672 0.0
H181 H 0.12879 0.016 0.72448 0.0
H182 H 0.22401 0.01807 0.447 0.0
H183 H 0.07466 0.02178 0.51479 0.0
H184 H 0.1642 0.03212 0.63324 0.0
H185 H 0.14041 0.06111 0.36583 0.0
C186 C 0.18038 0.05282 0.32749 0.0
C187 C 0.20407 0.04019 0.34896 0.0
C188 C 0.14443 0.03055 0.60761 0.0
C189 C 0.16164 0.03912 0.46209 0.0
C190 C 0.12421 0.02156 0.6598 0.0
C191 C 0.09876 0.01791 0.62723 0.0
C192 C 0.13932 0.0356 0.52169 0.0
C193 C 0.09389 0.02504 0.54267 0.0
C194 C 0.1589 0.052 0.38364 0.0
C195 C 0.20597 0.02782 0.42797 0.0
N196 N 0.11413 0.03324 0.49213 0.0
N197 N 0.18512 0.02767 0.48163 0.0
H198 H 0.50314 0.1786 0.25853 0.0
H199 H 0.4779 0.11633 0.69482 0.0
H200 H 0.43205 0.20026 0.39039 0.0
H201 H 0.50591 0.06814 0.49012 0.0
H202 H 0.46108 0.14824 0.59085 0.0
H203 H 0.50648 0.13925 0.34782 0.0
C204 C 0.48803 0.17482 0.30552 0.0
C205 C 0.4672 0.19251 0.31668 0.0
C206 C 0.47015 0.13028 0.56869 0.0
C207 C 0.47124 0.14801 0.42033 0.0
C208 C 0.47954 0.11203 0.62784 0.0
C209 C 0.49285 0.08945 0.60062 0.0
C210 C 0.47518 0.12638 0.48217 0.0
C211 C 0.49531 0.08511 0.51333 0.0
C212 C 0.48988 0.15237 0.35612 0.0
C213 C 0.44828 0.18692 0.37917 0.0
N214 N 0.48717 0.10374 0.45713 0.0
N215 N 0.45101 0.16538 0.42991 0.0
H216 H 0.33067 0.50518 0.29887 0.0
H217 H 0.40189 0.46722 0.70043 0.0
H218 H 0.31908 0.42493 0.3779 0.0
H219 H 0.44677 0.50313 0.49984 0.0
H220 H 0.37001 0.45108 0.5947 0.0
H221 H 0.37136 0.50684 0.38273 0.0
C222 C 0.33698 0.48778 0.33288 0.0
C223 C 0.32176 0.46481 0.33074 0.0
C224 C 0.38738 0.46164 0.57368 0.0
C225 C 0.36775 0.46682 0.42874 0.0
C226 C 0.40564 0.47064 0.63376 0.0
C227 C 0.42716 0.4861 0.60835 0.0
C228 C 0.39018 0.46923 0.4886 0.0
C229 C 0.43066 0.49087 0.5216 0.0
C230 C 0.36018 0.4887 0.38038 0.0
C231 C 0.33053 0.44289 0.37709 0.0
N232 N 0.41195 0.48313 0.46502 0.0
N233 N 0.35273 0.44458 0.4259 0.0
H234 H 0.00609 0.32174 0.28961 0.0
H235 H 0.05012 0.40544 0.67705 0.0
H236 H 0.08685 0.31598 0.37349 0.0
H237 H -0.0026 0.43649 0.48784 0.0
H238 H 0.06428 0.37146 0.57552 0.0
H239 H 0.00126 0.36213 0.37203 0.0
C240 C 0.02289 0.3292 0.32468 0.0
C241 C 0.04693 0.31571 0.32412 0.0
C242 C 0.05021 0.38623 0.55559 0.0
C243 C 0.04143 0.36155 0.42005 0.0
C244 C 0.04235 0.40568 0.61309 0.0
C245 C 0.02299 0.42396 0.58979 0.0
C246 C 0.03785 0.38468 0.47593 0.0
C247 C 0.01273 0.42297 0.50739 0.0
C248 C 0.02016 0.35225 0.37145 0.0
C249 C 0.06804 0.326 0.37154 0.0
N250 N 0.01989 0.40336 0.45398 0.0
N251 N 0.0647 0.34816 0.41877 0.0
H252 H 0.82801 0.97213 0.13977 0.0
H253 H 0.91182 0.96537 0.71432 0.0
H254 H 0.81955 0.90934 0.95884 0.0
H255 H 0.93393 0.01381 0.92605 0.0
H256 H 0.87947 0.94278 0.80486 0.0
H257 H 0.86773 0.98696 0.06452 0.0
C258 C 0.83465 0.96133 0.08475 0.0
C259 C 0.82044 0.93953 0.05525 0.0
C260 C 0.89184 0.95791 0.83221 0.0
C261 C 0.86569 0.95645 0.96841 0.0
C262 C 0.91048 0.97054 0.78071 0.0
C263 C 0.92581 0.99103 0.81353 0.0
C264 C 0.88809 0.96641 0.91624 0.0
C265 C 0.92275 -0.00228 0.89911 0.0
C266 C 0.85735 0.96975 0.04184 0.0
C267 C 0.82993 0.92629 0.98353 0.0
N268 N 0.90401 0.98573 0.94722 0.0
N269 N 0.85175 0.93508 0.94213 0.0
H270 H 0.60848 0.82353 0.98709 0.0
H271 H 0.47717 0.89984 0.87248 0.0
H272 H 0.53687 0.81681 0.13258 0.0
H273 H 0.55289 0.93031 0.79527 0.0
H274 H 0.4992 0.86743 0.96059 0.0
H275 H 0.58935 0.86101 0.91028 0.0
C276 C 0.58886 0.83017 0.00355 0.0
C277 C 0.57422 0.81704 0.06623 0.0
C278 C 0.51111 0.88122 0.92486 0.0
C279 C 0.55215 0.85953 0.97795 0.0
C280 C 0.49854 0.89968 0.87386 0.0
C281 C 0.51321 0.91774 0.82573 0.0
C282 C 0.53872 0.88028 0.92724 0.0
C283 C 0.54085 0.91673 0.83129 0.0
C284 C 0.578 0.85154 0.95977 0.0
C285 C 0.54888 0.82631 0.08486 0.0
N286 N 0.55278 0.89805 0.88044 0.0
N287 N 0.53857 0.84678 0.0403 0.0
H288 H 0.67736 0.59992 0.05686 0.0
H289 H 0.63443 0.48765 0.74134 0.0
H290 H 0.71555 0.52433 0.05445 0.0
H291 H 0.57443 0.5332 0.86604 0.0
H292 H 0.66765 0.5076 0.83296 0.0
H293 H 0.64195 0.58192 0.96675 0.0
C294 C 0.67813 0.5795 0.03787 0.0
C295 C 0.69918 0.56347 0.06365 0.0
C296 C 0.64723 0.5135 0.83945 0.0
C297 C 0.65955 0.54322 0.95885 0.0
C298 C 0.62822 0.50226 0.78693 0.0
C299 C 0.6015 0.50913 0.79497 0.0
C300 C 0.63968 0.53209 0.89997 0.0
C301 C 0.5948 0.52813 0.85554 0.0
C302 C 0.65801 0.56932 0.98668 0.0
C303 C 0.69948 0.53723 0.03691 0.0
N304 N 0.61378 0.53907 0.90576 0.0
N305 N 0.68014 0.52802 0.98498 0.0
H306 H 0.98399 0.71186 0.06557 0.0
H307 H 0.96462 0.57554 0.83211 0.0
H308 H 0.90604 0.67931 0.03414 0.0
H309 H 0.02845 0.62913 0.77828 0.0
H310 H 0.94203 0.61099 0.90962 0.0
H311 H 0.00122 0.67852 0.96916 0.0
C312 C 0.97056 0.69748 0.03913 0.0
C313 C 0.9436 0.69814 0.05828 0.0
C314 C 0.9608 0.61497 0.8795 0.0
C315 C 0.96313 0.65995 0.94758 0.0
C316 C 0.97358 0.59482 0.83488 0.0
C317 C -0.00126 0.59917 0.80046 0.0
C318 C 0.97348 0.63938 0.88993 0.0
C319 C 0.00935 0.62465 0.80538 0.0
C320 C 0.98032 0.67861 0.98336 0.0
C321 C 0.927 0.67929 0.02102 0.0
N322 N -0.00305 0.64355 0.8506 0.0
N323 N 0.93703 0.66075 0.96794 0.0
H324 H 0.03478 0.2115 0.42152 0.0
H325 H 0.04874 0.0597 0.53512 0.0
H326 H 0.10772 0.16883 0.39763 0.0
H327 H 0.97454 0.09992 0.50231 0.0
H328 H 0.07197 0.10054 0.50507 0.0
H329 H 0.01451 0.17288 0.48627 0.0
C330 C 0.04691 0.19441 0.43399 0.0
C331 C 0.07278 0.19305 0.40313 0.0
C332 C 0.0506 0.10036 0.50369 0.0
C333 C 0.04952 0.14864 0.47318 0.0
C334 C 0.03731 0.07691 0.51924 0.0
C335 C 0.00962 0.07622 0.5209 0.0
C336 C 0.03611 0.1234 0.4899 0.0
C337 C 0.99588 0.09938 0.50133 0.0
C338 C 0.03516 0.17216 0.46898 0.0
C339 C 0.08761 0.17042 0.42007 0.0
N340 N 0.00928 0.12209 0.48738 0.0
N341 N 0.07556 0.14877 0.45214 0.0
H342 H 0.34005 0.09664 0.42613 0.0
H343 H 0.41976 0.96435 0.50659 0.0
H344 H 0.30561 0.01962 0.40235 0.0
H345 H 0.45363 0.04213 0.51987 0.0
H346 H 0.37648 0.98399 0.48265 0.0
H347 H 0.37918 0.07699 0.49051 0.0
C348 C 0.34028 0.07569 0.43835 0.0
C349 C 0.31996 0.05961 0.40782 0.0
C350 C 0.39344 -0.00327 0.49024 0.0
C351 C 0.36494 0.03688 0.47646 0.0
C352 C 0.41827 0.98553 0.50206 0.0
C353 C 0.44046 0.00161 0.51475 0.0
C354 C 0.39079 0.02419 0.49072 0.0
C355 C 0.43714 0.02896 0.50993 0.0
C356 C 0.36281 0.06438 0.4733 0.0
C357 C 0.32107 0.0326 0.42463 0.0
N358 N 0.41277 0.03936 0.49882 0.0
N359 N 0.34362 0.02191 0.45562 0.0
H360 H 0.4928 0.29893 0.42583 0.0
H361 H 0.46913 0.45028 0.51765 0.0
H362 H 0.41612 0.33515 0.42894 0.0
H363 H 0.54591 0.41398 0.50631 0.0
H364 H 0.44875 0.40718 0.5021 0.0
H365 H 0.5116 0.33855 0.48867 0.0
C366 C 0.47969 0.31472 0.44422 0.0
C367 C 0.45307 0.31423 0.42053 0.0
C368 C 0.47006 0.40863 0.50248 0.0
C369 C 0.47442 0.35984 0.48768 0.0
C370 C 0.48169 0.43331 0.50958 0.0
C371 C 0.50923 0.43581 0.51256 0.0
C372 C 0.48611 0.38623 0.49811 0.0
C373 C 0.52459 0.41308 0.50308 0.0
C374 C 0.49051 0.33759 0.47809 0.0
C375 C 0.43687 0.3351 0.4454 0.0
N376 N 0.5128 0.38921 0.49683 0.0
N377 N 0.44794 0.35751 0.47517 0.0
H378 H 0.17152 0.41227 0.38334 0.0
H379 H 0.11399 0.54337 0.58756 0.0
H380 H 0.21689 0.48332 0.41413 0.0
H381 H 0.0664 0.47592 0.52244 0.0
H382 H 0.15293 0.5205 0.53605 0.0
H383 H 0.13471 0.43289 0.45755 0.0
C384 C 0.17403 0.43188 0.40868 0.0
C385 C 0.19703 0.44631 0.39168 0.0
C386 C 0.13393 0.51081 0.53203 0.0
C387 C 0.15493 0.47025 0.47362 0.0
C388 C 0.11162 0.524 0.56024 0.0
C389 C 0.08687 0.51157 0.55896 0.0
C390 C 0.13153 0.48499 0.50229 0.0
C391 C 0.08502 0.48637 0.52373 0.0
C392 C 0.1529 0.4438 0.44963 0.0
C393 C 0.19943 0.47158 0.42579 0.0
N394 N 0.10714 0.47379 0.49743 0.0
N395 N 0.17837 0.48299 0.46377 0.0
H396 H 0.91938 0.83463 0.98356 0.0
H397 H 0.04811 0.92077 0.92704 0.0
H398 H -0.00195 0.80332 -0.00113 0.0
H399 H 0.96918 0.95026 0.8872 0.0
H400 H 0.03014 0.8766 0.94201 0.0
H401 H 0.93703 0.87471 0.92008 0.0
C402 C 0.94023 0.83566 0.96894 0.0
C403 C 0.95742 0.81606 -0.00235 0.0
C404 C 0.01674 0.89275 0.93029 0.0
C405 C 0.97791 0.86214 0.9306 0.0
C406 C 0.02693 0.91811 0.92368 0.0
C407 C 0.01012 0.93934 0.90629 0.0
C408 C 0.98952 0.8886 0.92029 0.0
C409 C 0.98288 0.93451 0.90106 0.0
C410 C 0.95042 0.85878 0.93472 0.0
C411 C 0.98427 0.81824 0.97809 0.0
N412 N 0.97345 0.90965 0.90771 0.0
N413 N 0.99389 0.84137 0.94842 0.0
H414 H 0.67466 0.91658 0.0096 0.0
H415 H 0.59525 0.04803 0.91966 0.0
H416 H 0.7105 0.99329 0.00389 0.0
H417 H 0.56059 0.97056 0.90777 0.0
H418 H 0.63828 0.02807 0.94351 0.0
H419 H 0.63446 0.93513 0.94874 0.0
C420 C 0.67446 0.9371 0.99122 0.0
C421 C 0.69559 0.95358 0.01254 0.0
C422 C 0.62123 0.01544 0.93615 0.0
C423 C 0.6495 0.97519 0.94823 0.0
C424 C 0.59652 0.02684 0.92444 0.0
C425 C 0.57425 0.01094 0.91156 0.0
C426 C 0.62363 0.98796 0.93567 0.0
C427 C 0.57725 0.98357 0.91731 0.0
C428 C 0.65135 0.94784 0.95844 0.0
C429 C 0.69446 0.98004 0.98852 0.0
N430 N 0.60152 0.97294 0.92832 0.0
N431 N 0.67141 0.99027 0.95993 0.0
H432 H 0.51688 0.70747 0.02377 0.0
H433 H 0.54686 0.56596 0.83634 0.0
H434 H 0.59552 0.67659 -0.0006 0.0
H435 H 0.47345 0.58693 0.95671 0.0
H436 H 0.56393 0.60945 0.86565 0.0
H437 H 0.49944 0.66777 0.95646 0.0
C438 C 0.53055 0.69293 -0.0002 0.0
C439 C 0.55759 0.69503 0.01701 0.0
C440 C 0.54421 0.60442 0.88655 0.0
C441 C 0.53791 0.64953 0.94389 0.0
C442 C 0.53463 0.57927 0.872 0.0
C443 C 0.50894 0.57223 0.89687 0.0
C444 C 0.5279 0.623 0.92501 0.0
C445 C 0.49352 0.59123 0.93784 0.0
C446 C 0.52057 0.67007 0.9634 0.0
C447 C 0.57455 0.67556 0.98665 0.0
N448 N 0.50322 0.61583 0.95034 0.0
N449 N 0.56438 0.65326 0.95287 0.0
H450 H 0.84145 0.59111 0.9892 0.0
H451 H 0.92336 0.46051 0.90197 0.0
H452 H 0.80754 0.51367 0.00436 0.0
H453 H 0.95715 0.53804 0.924 0.0
H454 H 0.87949 0.47942 0.92068 0.0
H455 H 0.88155 0.57223 0.92925 0.0
C456 C 0.84198 0.57027 0.97551 0.0
C457 C 0.82152 0.5538 0.00289 0.0
C458 C 0.89654 0.49226 0.92199 0.0
C459 C 0.86757 0.53193 0.9395 0.0
C460 C 0.92166 0.48141 0.91327 0.0
C461 C 0.944 0.49777 0.91158 0.0
C462 C 0.89378 0.51961 0.92918 0.0
C463 C 0.94046 0.52477 0.92469 0.0
C464 C 0.86508 0.55938 0.94343 0.0
C465 C 0.82308 0.52693 0.98449 0.0
N466 N 0.91583 0.53487 0.93223 0.0
N467 N 0.84615 0.51663 0.95633 0.0
H468 H 0.02791 0.20642 0.10643 0.0
H469 H 0.05861 0.07282 0.85575 0.0
H470 H 0.10643 0.17504 0.0851 0.0
H471 H 0.9808 0.09955 0.92401 0.0
H472 H 0.07749 0.11114 0.92919 0.0
H473 H 0.0112 0.1697 0.02239 0.0
C474 C 0.04179 0.19241 0.08052 0.0
C475 C 0.06865 0.19409 0.10078 0.0
C476 C 0.0563 0.10843 0.9286 0.0
C477 C 0.04961 0.15127 0.00746 0.0
C478 C 0.04555 0.08642 0.88756 0.0
C479 C 0.01808 0.083 0.88366 0.0
C480 C 0.03941 0.12707 0.96571 0.0
C481 C 0.00207 0.10149 0.92479 0.0
C482 C 0.03221 0.1711 0.0341 0.0
C483 C 0.08566 0.1747 0.06903 0.0
N484 N 0.01293 0.12268 0.96356 0.0
N485 N 0.07586 0.15399 0.02431 0.0
H486 H 0.30092 0.04072 0.04524 0.0
H487 H 0.45415 0.0464 0.93418 0.0
H488 H 0.35254 0.10064 0.14501 0.0
H489 H 0.3971 0.00105 0.79304 0.0
H490 H 0.41762 0.06709 0.01196 0.0
H491 H 0.3356 0.0277 0.94707 0.0
C492 C 0.31921 0.05174 0.04476 0.0
C493 C 0.3238 0.07166 0.10427 0.0
C494 C 0.41319 0.05277 0.96334 0.0
C495 C 0.36422 0.05602 0.99417 0.0
C496 C 0.43403 0.04089 0.91926 0.0
C497 C 0.42877 0.02173 0.85759 0.0
C498 C 0.38696 0.04546 0.94532 0.0
C499 C 0.40226 0.01539 0.84086 0.0
C500 C 0.33924 0.044 0.98945 0.0
C501 C 0.34824 0.08487 0.10116 0.0
N502 N 0.38248 0.02709 0.88452 0.0
N503 N 0.3677 0.07648 0.04848 0.0
H504 H 0.47797 0.2968 0.05623 0.0
H505 H 0.46959 0.44881 0.92454 0.0
H506 H 0.41875 0.34951 0.15285 0.0
H507 H 0.52274 0.39297 0.8104 0.0
H508 H 0.44954 0.4127 0.00577 0.0
H509 H 0.49227 0.33112 0.95758 0.0
C510 C 0.46744 0.31529 0.05493 0.0
C511 C 0.44724 0.32026 0.11327 0.0
C512 C 0.46553 0.4084 0.96257 0.0
C513 C 0.46415 0.36014 0.00269 0.0
C514 C 0.47706 0.42905 0.91653 0.0
C515 C 0.49803 0.42407 0.8608 0.0
C516 C 0.47498 0.38258 0.95264 0.0
C517 C 0.50679 0.39796 0.85293 0.0
C518 C 0.47587 0.33508 -0.00053 0.0
C519 C 0.43461 0.34488 0.1095 0.0
N520 N 0.4953 0.37833 0.89821 0.0
N521 N 0.44352 0.364 0.05636 0.0
H522 H 0.21656 0.47636 0.05746 0.0
H523 H 0.0687 0.44972 0.89546 0.0
H524 H 0.17665 0.40291 0.10254 0.0
H525 H 0.10511 0.52582 0.92544 0.0
H526 H 0.11022 0.4292 0.94434 0.0
H527 H 0.17906 0.49095 0.97206 0.0
C528 C 0.20045 0.4628 0.04597 0.0
C529 C 0.19973 0.4384 0.08712 0.0
C530 C 0.10898 0.45038 0.93976 0.0
C531 C 0.15611 0.45538 0.99271 0.0
C532 C 0.08529 0.46206 0.91259 0.0
C533 C 0.08321 0.48954 0.90798 0.0
C534 C 0.13085 0.46633 0.95981 0.0
C535 C 0.10546 0.5046 0.9298 0.0
C536 C 0.17874 0.47134 -0.00127 0.0
C537 C 0.17797 0.42186 0.07154 0.0
N538 N 0.12822 0.49284 0.9542 0.0
N539 N 0.15677 0.43082 0.02701 0.0
H540 H 0.9859 0.80101 0.36186 0.0
H541 H 0.9704 0.95223 0.49484 0.0
H542 H 0.92436 0.85122 0.26513 0.0
H543 H 0.02485 0.89831 0.61344 0.0
H544 H 0.95239 0.91547 0.41199 0.0
H545 H -0.00137 0.83578 0.46105 0.0
C546 C 0.9746 0.81904 0.36312 0.0
C547 C 0.95413 0.82321 0.30483 0.0
C548 C 0.9682 0.91174 0.45657 0.0
C549 C 0.96914 0.86355 0.41605 0.0
C550 C 0.97855 0.93276 0.50358 0.0
C551 C -0.00068 0.92853 0.56091 0.0
C552 C 0.97866 0.8863 0.46712 0.0
C553 C 0.00903 0.90275 0.56961 0.0
C554 C 0.98208 0.83908 0.41894 0.0
C555 C 0.94045 0.84725 0.3085 0.0
N556 N -0.0013 0.88276 0.52331 0.0
N557 N 0.94842 0.8666 0.36204 0.0
H558 H 0.7151 0.9873 0.35591 0.0
H559 H 0.56771 0.96097 0.52385 0.0
H560 H 0.67123 0.91708 0.29765 0.0
H561 H 0.61424 0.02955 0.58437 0.0
H562 H 0.60585 0.943 0.44698 0.0
H563 H 0.67975 0.00073 0.45224 0.0
C564 C 0.6985 0.97423 0.36591 0.0
C565 C 0.69621 0.95097 0.31916 0.0
C566 C 0.60764 0.96195 0.47749 0.0
C567 C 0.65499 0.96669 0.42646 0.0
C568 C 0.5858 0.97228 0.52094 0.0
C569 C 0.58756 -0.00312 0.56075 0.0
C570 C 0.63144 0.97629 0.474 0.0
C571 C 0.6117 0.01054 0.5549 0.0
C572 C 0.67803 0.9821 0.41974 0.0
C573 C 0.67382 0.93512 0.33294 0.0
N574 N 0.63249 0.00012 0.51264 0.0
N575 N 0.65395 0.94342 0.3842 0.0
H576 H 0.52471 0.70985 0.35424 0.0
H577 H 0.55487 0.56507 0.53494 0.0
H578 H 0.59722 0.66876 0.30456 0.0
H579 H 0.47974 0.60446 0.55346 0.0
H580 H 0.57267 0.60386 0.46113 0.0
H581 H 0.51059 0.67346 0.44544 0.0
C582 C 0.53811 0.69366 0.36547 0.0
C583 C 0.5623 0.69248 0.32285 0.0
C584 C 0.55228 0.60391 0.48143 0.0
C585 C 0.54589 0.65012 0.42403 0.0
C586 C 0.54206 0.58167 0.52289 0.0
C587 C 0.51575 0.58139 0.55077 0.0
C588 C 0.53612 0.62604 0.46808 0.0
C589 C 0.50017 0.60367 0.53383 0.0
C590 C 0.52987 0.6726 0.41615 0.0
C591 C 0.57856 0.67054 0.33734 0.0
N592 N 0.51058 0.62496 0.49408 0.0
N593 N 0.56997 0.65012 0.38585 0.0
H594 H 0.80464 0.52809 0.36433 0.0
H595 H 0.95512 0.54864 0.50608 0.0
H596 H 0.85314 0.59155 0.27166 0.0
H597 H 0.90239 0.49155 0.61732 0.0
H598 H 0.91781 0.56622 0.42389 0.0
H599 H 0.83934 0.51682 0.46594 0.0
C600 C 0.82224 0.54014 0.36707 0.0
C601 C 0.826 0.5607 0.30912 0.0
C602 C 0.91446 0.54995 0.46683 0.0
C603 C 0.86634 0.54736 0.42322 0.0
C604 C 0.93578 0.53988 0.51353 0.0
C605 C 0.93205 0.51841 0.56824 0.0
C606 C 0.88926 0.53852 0.47516 0.0
C607 C 0.90645 0.5079 0.57536 0.0
C608 C 0.84227 0.53349 0.4243 0.0
C609 C 0.84952 0.57537 0.31473 0.0
N610 N 0.88619 0.51795 0.52936 0.0
N611 N 0.86893 0.56818 0.36962 0.0
loop_
_geom_bond_atom_site_label_1
_geom_bond_atom_site_label_2
_geom_bond_distance
_geom_bond_site_symmetry_2
_ccdc_geom_bond_type
H0 C5 0.930 . S
H1 C8 0.930 1_556 S
H2 C10 0.930 . S
H3 C4 1.016 1_556 S
C4 H3 1.016 1_554 S
C4 N11 1.286 . S
C5 H0 0.930 . S
C5 C6 1.397 . S
C5 C7 1.361 . S
C6 C5 1.397 . S
C6 C10 1.390 . S
C7 C5 1.361 . S
C7 C8 1.393 . S
C7 N11 1.413 . S
C8 H1 0.930 1_554 S
C8 C7 1.393 . S
C8 C9 1.399 . S
C9 C8 1.399 . S
C9 C10 1.381 . S
C10 H2 0.930 . S
C10 C6 1.390 . S
C10 C9 1.381 . S
N11 C4 1.286 . S
N11 C7 1.413 . S
H12 C17 0.930 . S
H13 C20 0.930 1_556 S
H14 C22 0.930 . S
H15 C16 1.016 1_556 S
C16 H15 1.016 1_554 S
C16 N23 1.286 . S
C17 H12 0.930 . S
C17 C18 1.397 . S
C17 C19 1.361 . S
C18 C17 1.397 . S
C18 C22 1.390 . S
C19 C17 1.361 . S
C19 C20 1.393 . S
C19 N23 1.413 . S
C20 H13 0.930 1_554 S
C20 C19 1.393 . S
C20 C21 1.399 . S
C21 C20 1.399 . S
C21 C22 1.381 . S
C22 H14 0.930 . S
C22 C18 1.390 . S
C22 C21 1.381 . S
N23 C16 1.286 . S
N23 C19 1.413 . S
H24 C29 0.930 . S
H25 C32 0.930 1_556 S
H26 C34 0.930 . S
H27 C28 1.016 1_556 S
C28 H27 1.016 1_554 S
C28 N35 1.286 . S
C29 H24 0.930 . S
C29 C30 1.397 . S
C29 C31 1.361 . S
C30 C29 1.397 . S
C30 C34 1.390 . S
C31 C29 1.361 . S
C31 C32 1.393 . S
C31 N35 1.413 . S
C32 H25 0.930 1_554 S
C32 C31 1.393 . S
C32 C33 1.399 . S
C33 C32 1.399 . S
C33 C34 1.381 . S
C34 H26 0.930 . S
C34 C30 1.390 . S
C34 C33 1.381 . S
N35 C28 1.286 . S
N35 C31 1.413 . S
H36 C41 0.930 . S
H37 C44 0.930 1_556 S
H38 C46 0.930 . S
H39 C40 1.016 1_556 S
C40 H39 1.016 1_554 S
C40 N47 1.286 . S
C41 H36 0.930 . S
C41 C42 1.397 . S
C41 C43 1.361 . S
C42 C41 1.397 . S
C42 C46 1.390 . S
C43 C41 1.361 . S
C43 C44 1.393 . S
C43 N47 1.413 . S
C44 H37 0.930 1_554 S
C44 C43 1.393 . S
C44 C45 1.399 . S
C45 C44 1.399 . S
C45 C46 1.381 . S
C46 H38 0.930 . S
C46 C42 1.390 . S
C46 C45 1.381 . S
N47 C40 1.286 . S
N47 C43 1.413 . S
H48 C53 0.930 . S
H49 C56 0.930 . S
H50 C58 0.930 . S
H51 C52 1.016 . S
C52 H51 1.016 . S
C52 N59 1.286 . S
C53 H48 0.930 . S
C53 C54 1.397 . S
C53 C55 1.361 . S
C54 C53 1.397 . S
C54 C58 1.390 . S
C55 C53 1.361 . S
C55 C56 1.393 . S
C55 N59 1.413 . S
C56 H49 0.930 . S
C56 C55 1.393 . S
C56 C57 1.399 . S
C57 C56 1.399 . S
C57 C58 1.381 . S
C58 H50 0.930 . S
C58 C54 1.390 . S
C58 C57 1.381 . S
N59 C52 1.286 . S
N59 C55 1.413 . S
H60 C65 0.930 . S
H61 C68 0.930 . S
H62 C70 0.930 . S
H63 C64 1.016 . S
C64 H63 1.016 . S
C64 N71 1.286 . S
C65 H60 0.930 . S
C65 C66 1.397 . S
C65 C67 1.361 . S
C66 C65 1.397 . S
C66 C70 1.390 . S
C67 C65 1.361 . S
C67 C68 1.393 . S
C67 N71 1.413 . S
C68 H61 0.930 . S
C68 C67 1.393 . S
C68 C69 1.399 . S
C69 C68 1.399 . S
C69 C70 1.381 . S
C70 H62 0.930 . S
C70 C66 1.390 . S
C70 C69 1.381 . S
N71 C64 1.286 . S
N71 C67 1.413 . S
H72 C77 0.930 . S
H73 C80 0.930 . S
H74 C82 0.930 . S
H75 C76 1.016 . S
C76 H75 1.016 . S
C76 N83 1.286 . S
C77 H72 0.930 . S
C77 C78 1.397 . S
C77 C79 1.361 . S
C78 C77 1.397 . S
C78 C82 1.390 . S
C79 C77 1.361 . S
C79 C80 1.393 . S
C79 N83 1.413 . S
C80 H73 0.930 . S
C80 C79 1.393 . S
C80 C81 1.399 . S
C81 C80 1.399 . S
C81 C82 1.381 . S
C82 H74 0.930 . S
C82 C78 1.390 . S
C82 C81 1.381 . S
N83 C76 1.286 . S
N83 C79 1.413 . S
H84 C89 0.930 . S
H85 C92 0.930 . S
H86 C94 0.930 . S
H87 C88 1.016 . S
C88 H87 1.016 . S
C88 N95 1.286 . S
C89 H84 0.930 . S
C89 C90 1.397 . S
C89 C91 1.361 . S
C90 C89 1.397 . S
C90 C94 1.390 . S
C91 C89 1.361 . S
C91 C92 1.393 . S
C91 N95 1.413 . S
C92 H85 0.930 . S
C92 C91 1.393 . S
C92 C93 1.399 . S
C93 C92 1.399 . S
C93 C94 1.381 . S
C94 H86 0.930 . S
C94 C90 1.390 . S
C94 C93 1.381 . S
N95 C88 1.286 . S
N95 C91 1.413 . S
O96 Mg97 1.990 . S
O96 C110 1.253 . S
Mg97 O96 1.990 . S
Mg97 O100 2.143 1_565 S
Mg97 O101 2.117 . S
Mg97 O115 2.030 . S
O98 Mg99 2.072 1_565 S
O98 C110 1.260 . S
Mg99 O98 2.072 1_545 S
Mg99 O100 2.109 . S
Mg99 O102 2.079 . S
Mg99 O103 2.072 . S
Mg99 O105 2.099 1_455 S
Mg99 O116 2.071 1_445 S
O100 Mg97 2.143 1_545 S
O100 Mg99 2.109 . S
O100 C111 1.282 . S
O101 Mg97 2.117 . S
O101 C111 1.250 1_565 S
O102 Mg99 2.079 . S
O102 C112 1.264 . S
O103 Mg99 2.072 . S
O103 C113 1.260 . S
Mg104 O105 2.180 . S
Mg104 O106 2.030 . S
Mg104 O107 1.990 . S
Mg104 O108 2.117 . S
O105 Mg99 2.099 1_655 S
O105 Mg104 2.180 . S
O105 C114 1.279 . S
O106 Mg104 2.030 . S
O106 C112 1.248 1_655 S
O107 Mg104 1.990 . S
O107 C113 1.253 1_655 S
O108 Mg104 2.117 . S
O108 C114 1.250 . S
C109 O115 1.248 . S
C109 O116 1.260 1_455 S
C110 O96 1.253 . S
C110 O98 1.260 . S
C111 O100 1.282 . S
C111 O101 1.250 1_545 S
C112 O102 1.264 . S
C112 O106 1.248 1_455 S
C113 O103 1.260 . S
C113 O107 1.253 1_455 S
C114 O105 1.279 . S
C114 O108 1.250 . S
O115 Mg97 2.030 . S
O115 C109 1.248 . S
O116 Mg99 2.071 1_665 S
O116 C109 1.260 1_655 S
O117 Mg118 1.990 . S
O117 C131 1.253 1_565 S
Mg118 O117 1.990 . S
Mg118 O121 2.180 . S
Mg118 O122 2.117 . S
Mg118 O136 2.030 . S
O119 Mg120 2.072 . S
O119 C131 1.260 . S
Mg120 O119 2.072 . S
Mg120 O121 2.099 1_545 S
Mg120 O123 2.079 1_545 S
Mg120 O124 2.072 . S
Mg120 O126 2.099 . S
Mg120 O137 2.079 . S
O121 Mg118 2.180 . S
O121 Mg120 2.099 1_565 S
O121 C132 1.279 . S
O122 Mg118 2.117 . S
O122 C132 1.250 . S
O123 Mg120 2.079 1_565 S
O123 C133 1.264 1_565 S
O124 Mg120 2.072 . S
O124 C134 1.260 . S
Mg125 O126 2.180 . S
Mg125 O127 2.030 . S
Mg125 O128 1.990 . S
Mg125 O129 2.117 . S
O126 Mg120 2.099 . S
O126 Mg125 2.180 . S
O126 C135 1.279 . S
O127 Mg125 2.030 . S
O127 C133 1.248 . S
O128 Mg125 1.990 . S
O128 C134 1.253 . S
O129 Mg125 2.117 . S
O129 C135 1.250 . S
C130 O136 1.248 1_545 S
C130 O137 1.264 . S
C131 O117 1.253 1_545 S
C131 O119 1.260 . S
C132 O121 1.279 . S
C132 O122 1.250 . S
C133 O123 1.264 1_545 S
C133 O127 1.248 . S
C134 O124 1.260 . S
C134 O128 1.253 . S
C135 O126 1.279 . S
C135 O129 1.250 . S
O136 Mg118 2.030 . S
O136 C130 1.248 1_565 S
O137 Mg120 2.079 . S
O137 C130 1.264 . S
O138 Mg139 1.990 . S
O138 C152 1.253 . S
Mg139 O138 1.990 . S
Mg139 O142 2.180 . S
Mg139 O143 2.117 . S
Mg139 O157 2.030 . S
O140 Mg141 2.072 . S
O140 C152 1.260 . S
Mg141 O140 2.072 . S
Mg141 O142 2.099 . S
Mg141 O144 2.079 . S
Mg141 O145 2.072 . S
Mg141 O147 2.099 . S
Mg141 O158 2.079 . S
O142 Mg139 2.180 . S
O142 Mg141 2.099 . S
O142 C153 1.279 . S
O143 Mg139 2.117 . S
O143 C153 1.250 . S
O144 Mg141 2.079 . S
O144 C154 1.264 . S
O145 Mg141 2.072 . S
O145 C155 1.260 . S
Mg146 O147 2.180 . S
Mg146 O148 2.030 . S
Mg146 O149 1.990 . S
Mg146 O150 2.117 . S
O147 Mg141 2.099 . S
O147 Mg146 2.180 . S
O147 C156 1.279 . S
O148 Mg146 2.030 . S
O148 C154 1.248 . S
O149 Mg146 1.990 . S
O149 C155 1.253 . S
O150 Mg146 2.117 . S
O150 C156 1.250 . S
C151 O157 1.248 . S
C151 O158 1.264 . S
C152 O138 1.253 . S
C152 O140 1.260 . S
C153 O142 1.279 . S
C153 O143 1.250 . S
C154 O144 1.264 . S
C154 O148 1.248 . S
C155 O145 1.260 . S
C155 O149 1.253 . S
C156 O147 1.279 . S
C156 O150 1.250 . S
O157 Mg139 2.030 . S
O157 C151 1.248 . S
O158 Mg141 2.079 . S
O158 C151 1.264 . S
O159 Mg160 1.990 . S
O159 C173 1.253 . S
Mg160 O159 1.990 . S
Mg160 O163 2.180 1_655 S
Mg160 O164 2.117 . S
Mg160 O178 2.030 . S
O161 Mg162 2.072 1_655 S
O161 C173 1.260 . S
Mg162 O161 2.072 1_455 S
Mg162 O163 2.099 . S
Mg162 O165 2.079 . S
Mg162 O166 2.072 . S
Mg162 O168 2.099 . S
Mg162 O179 2.079 1_455 S
O163 Mg160 2.180 1_455 S
O163 Mg162 2.099 . S
O163 C174 1.279 . S
O164 Mg160 2.117 . S
O164 C174 1.250 1_655 S
O165 Mg162 2.079 . S
O165 C175 1.264 . S
O166 Mg162 2.072 . S
O166 C176 1.260 . S
Mg167 O168 2.180 . S
Mg167 O169 2.030 . S
Mg167 O170 1.990 . S
Mg167 O171 2.117 . S
O168 Mg162 2.099 . S
O168 Mg167 2.180 . S
O168 C177 1.279 . S
O169 Mg167 2.030 . S
O169 C175 1.248 . S
O170 Mg167 1.990 . S
O170 C176 1.253 . S
O171 Mg167 2.117 . S
O171 C177 1.250 . S
C172 O178 1.248 . S
C172 O179 1.264 . S
C173 O159 1.253 . S
C173 O161 1.260 . S
C174 O163 1.279 . S
C174 O164 1.250 1_455 S
C175 O165 1.264 . S
C175 O169 1.248 . S
C176 O166 1.260 . S
C176 O170 1.253 . S
C177 O168 1.279 . S
C177 O171 1.250 . S
O178 Mg160 2.030 . S
O178 C172 1.248 . S
O179 Mg162 2.079 1_655 S
O179 C172 1.264 . S
H180 C186 0.930 . S
H181 C190 0.930 . S
H182 C195 0.929 . S
H183 C193 0.929 . S
H184 C188 0.929 . S
H185 C194 0.929 . S
C186 H180 0.930 . S
C186 C187 1.367 . S
C186 C194 1.378 . S
C187 C186 1.367 . S
C187 C195 1.433 . S
C188 H184 0.929 . S
C188 C190 1.378 . S
C188 C192 1.350 . S
C189 C192 1.463 . S
C189 C194 1.350 . S
C189 N197 1.427 . S
C190 H181 0.930 . S
C190 C188 1.378 . S
C190 C191 1.367 . S
C191 C190 1.367 . S
C191 C193 1.433 . S
C192 C188 1.350 . S
C192 C189 1.463 . S
C192 N196 1.427 . S
C193 H183 0.929 . S
C193 C191 1.433 . S
C193 N196 1.384 . S
C194 H185 0.929 . S
C194 C186 1.378 . S
C194 C189 1.350 . S
C195 H182 0.929 . S
C195 C187 1.433 . S
C195 N197 1.384 . S
N196 C192 1.427 . S
N196 C193 1.384 . S
N197 C189 1.427 . S
N197 C195 1.384 . S
H198 C204 0.930 . S
H199 C208 0.930 . S
H200 C213 0.929 . S
H201 C211 0.929 . S
H202 C206 0.929 . S
H203 C212 0.929 . S
C204 H198 0.930 . S
C204 C205 1.367 . S
C204 C212 1.378 . S
C205 C204 1.367 . S
C205 C213 1.433 . S
C206 H202 0.929 . S
C206 C208 1.378 . S
C206 C210 1.350 . S
C207 C210 1.463 . S
C207 C212 1.350 . S
C207 N215 1.427 . S
C208 H199 0.930 . S
C208 C206 1.378 . S
C208 C209 1.367 . S
C209 C208 1.367 . S
C209 C211 1.433 . S
C210 C206 1.350 . S
C210 C207 1.463 . S
C210 N214 1.427 . S
C211 H201 0.929 . S
C211 C209 1.433 . S
C211 N214 1.384 . S
C212 H203 0.929 . S
C212 C204 1.378 . S
C212 C207 1.350 . S
C213 H200 0.929 . S
C213 C205 1.433 . S
C213 N215 1.384 . S
N214 C210 1.427 . S
N214 C211 1.384 . S
N215 C207 1.427 . S
N215 C213 1.384 . S
H216 C222 0.930 . S
H217 C226 0.930 . S
H218 C231 0.929 . S
H219 C229 0.929 . S
H220 C224 0.929 . S
H221 C230 0.929 . S
C222 H216 0.930 . S
C222 C223 1.367 . S
C222 C230 1.378 . S
C223 C222 1.367 . S
C223 C231 1.433 . S
C224 H220 0.929 . S
C224 C226 1.378 . S
C224 C228 1.350 . S
C225 C228 1.463 . S
C225 C230 1.350 . S
C225 N233 1.427 . S
C226 H217 0.930 . S
C226 C224 1.378 . S
C226 C227 1.367 . S
C227 C226 1.367 . S
C227 C229 1.433 . S
C228 C224 1.350 . S
C228 C225 1.463 . S
C228 N232 1.427 . S
C229 H219 0.929 . S
C229 C227 1.433 . S
C229 N232 1.384 . S
C230 H221 0.929 . S
C230 C222 1.378 . S
C230 C225 1.350 . S
C231 H218 0.929 . S
C231 C223 1.433 . S
C231 N233 1.384 . S
N232 C228 1.427 . S
N232 C229 1.384 . S
N233 C225 1.427 . S
N233 C231 1.384 . S
H234 C240 0.930 . S
H235 C244 0.930 . S
H236 C249 0.929 . S
H237 C247 0.929 1_655 S
H238 C242 0.929 . S
H239 C248 0.967 . S
C240 H234 0.930 . S
C240 C241 1.367 . S
C240 C248 1.378 . S
C241 C240 1.367 . S
C241 C249 1.433 . S
C242 H238 0.929 . S
C242 C244 1.378 . S
C242 C246 1.350 . S
C243 C246 1.463 . S
C243 C248 1.350 . S
C243 N251 1.427 . S
C244 H235 0.930 . S
C244 C242 1.378 . S
C244 C245 1.367 . S
C245 C244 1.367 . S
C245 C247 1.433 . S
C246 C242 1.350 . S
C246 C243 1.463 . S
C246 N250 1.427 . S
C247 H237 0.929 1_455 S
C247 C245 1.433 . S
C247 N250 1.384 . S
C248 H239 0.967 . S
C248 C240 1.378 . S
C248 C243 1.350 . S
C249 H236 0.929 . S
C249 C241 1.433 . S
C249 N251 1.384 . S
N250 C246 1.427 . S
N250 C247 1.384 . S
N251 C243 1.427 . S
N251 C249 1.384 . S
H252 C258 0.930 1_545 S
H253 C262 0.930 . S
H254 C267 0.929 . S
H255 C265 0.929 . S
H256 C260 0.929 . S
H257 C266 0.929 1_554 S
C258 H252 0.930 1_565 S
C258 C259 1.367 . S
C258 C266 1.378 1_564 S
C259 C258 1.367 . S
C259 C267 1.433 1_554 S
C260 H256 0.929 . S
C260 C262 1.378 . S
C260 C264 1.350 . S
C261 C264 1.463 . S
C261 C266 1.350 1_565 S
C261 N269 1.427 . S
C262 H253 0.930 . S
C262 C260 1.378 . S
C262 C263 1.339 1_565 S
C263 C262 1.339 1_545 S
C263 C265 1.456 . S
C264 C260 1.350 . S
C264 C261 1.463 . S
C264 N268 1.427 1_565 S
C265 H255 0.929 . S
C265 C263 1.456 . S
C265 N268 1.384 . S
C266 H257 0.929 1_556 S
C266 C258 1.378 1_546 S
C266 C261 1.350 1_545 S
C267 H254 0.929 . S
C267 C259 1.433 1_556 S
C267 N269 1.384 . S
N268 C264 1.427 1_545 S
N268 C265 1.384 . S
N269 C261 1.427 . S
N269 C267 1.384 . S
H270 C276 0.930 . S
H271 C280 0.930 . S
H272 C285 0.929 . S
H273 C283 0.929 . S
H274 C278 0.929 . S
H275 C284 0.929 . S
C276 H270 0.930 . S
C276 C277 1.367 1_556 S
C276 C284 1.378 . S
C277 C276 1.367 1_554 S
C277 C285 1.433 . S
C278 H274 0.929 . S
C278 C280 1.378 . S
C278 C282 1.350 . S
C279 C282 1.463 . S
C279 C284 1.350 . S
C279 N287 1.427 . S
C280 H271 0.930 . S
C280 C278 1.378 . S
C280 C281 1.367 . S
C281 C280 1.367 . S
C281 C283 1.433 . S
C282 C278 1.350 . S
C282 C279 1.463 . S
C282 N286 1.427 . S
C283 H273 0.929 . S
C283 C281 1.433 . S
C283 N286 1.384 . S
C284 H275 0.929 . S
C284 C276 1.378 . S
C284 C279 1.350 . S
C285 H272 0.929 . S
C285 C277 1.433 . S
C285 N287 1.384 1_554 S
N286 C282 1.427 . S
N286 C283 1.384 . S
N287 C279 1.427 . S
N287 C285 1.384 1_556 S
H288 C294 0.930 . S
H289 C298 0.930 . S
H290 C303 0.929 . S
H291 C301 0.929 . S
H292 C296 0.929 . S
H293 C302 0.929 . S
C294 H288 0.930 . S
C294 C295 1.367 . S
C294 C302 1.378 1_554 S
C295 C294 1.367 . S
C295 C303 1.433 1_554 S
C296 H292 0.929 . S
C296 C298 1.378 . S
C296 C300 1.350 . S
C297 C300 1.463 . S
C297 C302 1.350 . S
C297 N305 1.427 . S
C298 H289 0.930 . S
C298 C296 1.378 . S
C298 C299 1.367 . S
C299 C298 1.367 . S
C299 C301 1.433 . S
C300 C296 1.350 . S
C300 C297 1.463 . S
C300 N304 1.427 . S
C301 H291 0.929 . S
C301 C299 1.433 . S
C301 N304 1.384 . S
C302 H293 0.929 . S
C302 C294 1.378 1_556 S
C302 C297 1.350 . S
C303 H290 0.929 . S
C303 C295 1.433 1_556 S
C303 N305 1.384 . S
N304 C300 1.427 . S
N304 C301 1.384 . S
N305 C297 1.427 . S
N305 C303 1.384 . S
H306 C312 0.930 . S
H307 C316 0.930 . S
H308 C321 0.929 . S
H309 C319 0.929 . S
H310 C314 0.929 . S
H311 C320 0.929 . S
C312 H306 0.930 . S
C312 C313 1.367 1_456 S
C312 C320 1.378 . S
C313 C312 1.367 1_654 S
C313 C321 1.433 . S
C314 H310 0.929 . S
C314 C316 1.378 . S
C314 C318 1.350 . S
C315 C318 1.463 . S
C315 C320 1.350 1_655 S
C315 N323 1.427 . S
C316 H307 0.930 . S
C316 C314 1.378 . S
C316 C317 1.367 1_655 S
C317 C316 1.367 1_455 S
C317 C319 1.433 . S
C318 C314 1.350 . S
C318 C315 1.463 . S
C318 N322 1.427 1_655 S
C319 H309 0.929 . S
C319 C317 1.433 . S
C319 N322 1.384 . S
C320 H311 0.929 . S
C320 C312 1.378 . S
C320 C315 1.350 1_455 S
C321 H308 0.929 . S
C321 C313 1.433 . S
C321 N323 1.384 1_554 S
N322 C318 1.427 1_455 S
N322 C319 1.384 . S
N323 C315 1.427 . S
N323 C321 1.384 1_556 S
H324 C330 0.930 . S
H325 C334 0.930 . S
H326 C339 0.929 . S
H327 C337 0.929 . S
H328 C332 0.929 . S
H329 C338 0.929 . S
C330 H324 0.930 . S
C330 C331 1.367 . S
C330 C338 1.378 . S
C331 C330 1.367 . S
C331 C339 1.433 . S
C332 H328 0.929 . S
C332 C334 1.378 . S
C332 C336 1.350 . S
C333 C336 1.463 . S
C333 C338 1.350 . S
C333 N341 1.427 . S
C334 H325 0.930 . S
C334 C332 1.378 . S
C334 C335 1.367 . S
C335 C334 1.367 . S
C335 C337 1.433 1_455 S
C336 C332 1.350 . S
C336 C333 1.463 . S
C336 N340 1.427 . S
C337 H327 0.929 . S
C337 C335 1.433 1_655 S
C337 N340 1.384 1_655 S
C338 H329 0.929 . S
C338 C330 1.378 . S
C338 C333 1.350 . S
C339 H326 0.929 . S
C339 C331 1.433 . S
C339 N341 1.384 . S
N340 C336 1.427 . S
N340 C337 1.384 1_455 S
N341 C333 1.427 . S
N341 C339 1.384 . S
H342 C348 0.930 . S
H343 C352 0.930 . S
H344 C357 0.929 . S
H345 C355 0.929 . S
H346 C350 0.929 . S
H347 C356 0.929 . S
C348 H342 0.930 . S
C348 C349 1.367 . S
C348 C356 1.378 . S
C349 C348 1.367 . S
C349 C357 1.433 . S
C350 H346 0.929 . S
C350 C352 1.378 . S
C350 C354 1.350 1_565 S
C351 C354 1.463 . S
C351 C356 1.350 . S
C351 N359 1.427 . S
C352 H343 0.930 . S
C352 C350 1.378 . S
C352 C353 1.367 1_565 S
C353 C352 1.367 1_545 S
C353 C355 1.433 . S
C354 C350 1.350 1_545 S
C354 C351 1.463 . S
C354 N358 1.427 . S
C355 H345 0.929 . S
C355 C353 1.433 . S
C355 N358 1.384 . S
C356 H347 0.929 . S
C356 C348 1.378 . S
C356 C351 1.350 . S
C357 H344 0.929 . S
C357 C349 1.433 . S
C357 N359 1.384 . S
N358 C354 1.427 . S
N358 C355 1.384 . S
N359 C351 1.427 . S
N359 C357 1.384 . S
H360 C366 0.930 . S
H361 C370 0.930 . S
H362 C375 0.929 . S
H363 C373 0.929 . S
H364 C368 0.929 . S
H365 C374 0.929 . S
C366 H360 0.930 . S
C366 C367 1.367 . S
C366 C374 1.378 . S
C367 C366 1.367 . S
C367 C375 1.433 . S
C368 H364 0.929 . S
C368 C370 1.378 . S
C368 C372 1.350 . S
C369 C372 1.463 . S
C369 C374 1.350 . S
C369 N377 1.427 . S
C370 H361 0.930 . S
C370 C368 1.378 . S
C370 C371 1.367 . S
C371 C370 1.367 . S
C371 C373 1.433 . S
C372 C368 1.350 . S
C372 C369 1.463 . S
C372 N376 1.427 . S
C373 H363 0.929 . S
C373 C371 1.433 . S
C373 N376 1.384 . S
C374 H365 0.929 . S
C374 C366 1.378 . S
C374 C369 1.350 . S
C375 H362 0.929 . S
C375 C367 1.433 . S
C375 N377 1.384 . S
N376 C372 1.427 . S
N376 C373 1.384 . S
N377 C369 1.427 . S
N377 C375 1.384 . S
H378 C384 0.930 . S
H379 C388 0.930 . S
H380 C393 0.929 . S
H381 C391 0.929 . S
H382 C386 0.929 . S
H383 C392 0.929 . S
C384 H378 0.930 . S
C384 C385 1.367 . S
C384 C392 1.378 . S
C385 C384 1.367 . S
C385 C393 1.433 . S
C386 H382 0.929 . S
C386 C388 1.378 . S
C386 C390 1.350 . S
C387 C390 1.463 . S
C387 C392 1.350 . S
C387 N395 1.427 . S
C388 H379 0.930 . S
C388 C386 1.378 . S
C388 C389 1.367 . S
C389 C388 1.367 . S
C389 C391 1.433 . S
C390 C386 1.350 . S
C390 C387 1.463 . S
C390 N394 1.427 . S
C391 H381 0.929 . S
C391 C389 1.433 . S
C391 N394 1.384 . S
C392 H383 0.929 . S
C392 C384 1.378 . S
C392 C387 1.350 . S
C393 H380 0.929 . S
C393 C385 1.433 . S
C393 N395 1.384 . S
N394 C390 1.427 . S
N394 C391 1.384 . S
N395 C387 1.427 . S
N395 C393 1.384 . S
H396 C402 0.930 1_554 S
H397 C406 0.930 . S
H398 C411 0.931 . S
H399 C409 0.929 . S
H400 C404 0.929 . S
H401 C410 0.929 . S
C402 H396 0.930 1_556 S
C402 C403 1.367 1_556 S
C402 C410 1.378 . S
C403 C402 1.367 1_554 S
C403 C411 1.433 1_654 S
C404 H400 0.929 . S
C404 C406 1.378 . S
C404 C408 1.319 1_455 S
C405 C408 1.474 . S
C405 C410 1.350 . S
C405 N413 1.427 1_655 S
C406 H397 0.930 . S
C406 C404 1.378 . S
C406 C407 1.367 . S
C407 C406 1.367 . S
C407 C409 1.433 1_455 S
C408 C404 1.319 1_655 S
C408 C405 1.474 . S
C408 N412 1.450 . S
C409 H399 0.929 . S
C409 C407 1.433 1_655 S
C409 N412 1.384 . S
C410 H401 0.929 . S
C410 C402 1.378 . S
C410 C405 1.350 . S
C411 H398 0.931 . S
C411 C403 1.433 1_456 S
C411 N413 1.384 . S
N412 C408 1.450 . S
N412 C409 1.384 . S
N413 C405 1.427 1_455 S
N413 C411 1.384 . S
H414 C420 0.930 . S
H415 C424 0.930 . S
H416 C429 0.919 1_545 S
H417 C427 0.929 . S
H418 C422 0.929 . S
H419 C428 0.929 . S
C420 H414 0.930 . S
C420 C421 1.367 1_556 S
C420 C428 1.378 . S
C421 C420 1.367 1_554 S
C421 C429 1.449 . S
C422 H418 0.929 . S
C422 C424 1.378 . S
C422 C426 1.350 1_545 S
C423 C426 1.463 . S
C423 C428 1.350 . S
C423 N431 1.427 1_565 S
C424 H415 0.930 . S
C424 C422 1.378 . S
C424 C425 1.367 . S
C425 C424 1.367 . S
C425 C427 1.433 1_545 S
C426 C422 1.350 1_565 S
C426 C423 1.463 . S
C426 N430 1.427 . S
C427 H417 0.929 . S
C427 C425 1.433 1_565 S
C427 N430 1.384 . S
C428 H419 0.929 . S
C428 C420 1.378 . S
C428 C423 1.350 . S
C429 H416 0.919 1_565 S
C429 C421 1.449 . S
C429 N431 1.379 1_564 S
N430 C426 1.427 . S
N430 C427 1.384 . S
N431 C423 1.427 1_545 S
N431 C429 1.379 1_546 S
H432 C438 0.930 . S
H433 C442 0.930 . S
H434 C447 0.929 . S
H435 C445 0.929 . S
H436 C440 0.929 . S
H437 C446 0.929 . S
C438 H432 0.930 . S
C438 C439 1.367 . S
C438 C446 1.378 . S
C439 C438 1.367 . S
C439 C447 1.433 1_554 S
C440 H436 0.929 . S
C440 C442 1.378 . S
C440 C444 1.350 . S
C441 C444 1.463 . S
C441 C446 1.350 1_556 S
C441 N449 1.427 . S
C442 H433 0.930 . S
C442 C440 1.378 . S
C442 C443 1.367 . S
C443 C442 1.367 . S
C443 C445 1.433 . S
C444 C440 1.350 . S
C444 C441 1.463 . S
C444 N448 1.427 . S
C445 H435 0.929 . S
C445 C443 1.433 . S
C445 N448 1.384 . S
C446 H437 0.929 . S
C446 C438 1.378 . S
C446 C441 1.350 1_554 S
C447 H434 0.929 . S
C447 C439 1.433 1_556 S
C447 N449 1.384 . S
N448 C444 1.427 . S
N448 C445 1.384 . S
N449 C441 1.427 . S
N449 C447 1.384 . S
H450 C456 0.931 1_554 S
H451 C460 0.930 . S
H452 C465 0.929 . S
H453 C463 0.929 . S
H454 C458 0.929 . S
H455 C464 0.929 . S
C456 H450 0.931 1_556 S
C456 C457 1.367 1_556 S
C456 C464 1.377 . S
C457 C456 1.367 1_554 S
C457 C465 1.433 1_554 S
C458 H454 0.929 . S
C458 C460 1.378 . S
C458 C462 1.350 . S
C459 C462 1.463 . S
C459 C464 1.350 . S
C459 N467 1.427 . S
C460 H451 0.930 . S
C460 C458 1.378 . S
C460 C461 1.367 . S
C461 C460 1.367 . S
C461 C463 1.433 . S
C462 C458 1.350 . S
C462 C459 1.463 . S
C462 N466 1.427 . S
C463 H453 0.929 . S
C463 C461 1.433 . S
C463 N466 1.384 . S
C464 H455 0.929 . S
C464 C456 1.377 . S
C464 C459 1.350 . S
C465 H452 0.929 . S
C465 C457 1.433 1_556 S
C465 N467 1.384 . S
N466 C462 1.427 . S
N466 C463 1.384 . S
N467 C459 1.427 . S
N467 C465 1.384 . S
H468 C474 0.930 . S
H469 C478 0.930 . S
H470 C483 0.929 . S
H471 C481 0.929 . S
H472 C476 0.929 . S
H473 C482 0.929 . S
C474 H468 0.930 . S
C474 C475 1.367 . S
C474 C482 1.378 . S
C475 C474 1.367 . S
C475 C483 1.433 . S
C476 H472 0.929 . S
C476 C478 1.378 . S
C476 C480 1.343 1_556 S
C477 C480 1.468 . S
C477 C482 1.350 . S
C477 N485 1.427 . S
C478 H469 0.930 . S
C478 C476 1.378 . S
C478 C479 1.367 . S
C479 C478 1.367 . S
C479 C481 1.433 . S
C480 C476 1.343 1_554 S
C480 C477 1.468 . S
C480 N484 1.430 . S
C481 H471 0.929 . S
C481 C479 1.433 . S
C481 N484 1.384 1_556 S
C482 H473 0.929 . S
C482 C474 1.378 . S
C482 C477 1.350 . S
C483 H470 0.929 . S
C483 C475 1.433 . S
C483 N485 1.384 . S
N484 C480 1.430 . S
N484 C481 1.384 1_554 S
N485 C477 1.427 . S
N485 C483 1.384 . S
H486 C492 0.930 . S
H487 C496 0.930 1_554 S
H488 C501 0.929 . S
H489 C499 0.929 . S
H490 C494 0.929 . S
H491 C500 0.929 1_556 S
C492 H486 0.930 . S
C492 C493 1.367 . S
C492 C500 1.378 . S
C493 C492 1.367 . S
C493 C501 1.433 . S
C494 H490 0.929 . S
C494 C496 1.378 1_554 S
C494 C498 1.350 . S
C495 C498 1.463 . S
C495 C500 1.350 . S
C495 N503 1.427 . S
C496 H487 0.930 1_556 S
C496 C494 1.378 1_556 S
C496 C497 1.367 . S
C497 C496 1.367 . S
C497 C499 1.433 . S
C498 C494 1.350 . S
C498 C495 1.463 . S
C498 N502 1.427 1_554 S
C499 H489 0.929 . S
C499 C497 1.433 . S
C499 N502 1.384 . S
C500 H491 0.929 1_554 S
C500 C492 1.378 . S
C500 C495 1.350 . S
C501 H488 0.929 . S
C501 C493 1.433 . S
C501 N503 1.384 . S
N502 C498 1.427 1_556 S
N502 C499 1.384 . S
N503 C495 1.427 . S
N503 C501 1.384 . S
H504 C510 0.930 . S
H505 C514 0.930 1_554 S
H506 C519 0.929 . S
H507 C517 0.929 . S
H508 C512 0.929 . S
H509 C518 0.929 1_556 S
C510 H504 0.930 . S
C510 C511 1.367 . S
C510 C518 1.378 . S
C511 C510 1.367 . S
C511 C519 1.433 . S
C512 H508 0.929 . S
C512 C514 1.378 1_554 S
C512 C516 1.350 . S
C513 C516 1.463 . S
C513 C518 1.350 . S
C513 N521 1.427 . S
C514 H505 0.930 1_556 S
C514 C512 1.378 1_556 S
C514 C515 1.367 . S
C515 C514 1.367 . S
C515 C517 1.433 . S
C516 C512 1.350 . S
C516 C513 1.463 . S
C516 N520 1.427 1_554 S
C517 H507 0.929 . S
C517 C515 1.433 . S
C517 N520 1.384 . S
C518 H509 0.929 1_554 S
C518 C510 1.378 . S
C518 C513 1.350 . S
C519 H506 0.929 . S
C519 C511 1.433 . S
C519 N521 1.384 . S
N520 C516 1.427 1_556 S
N520 C517 1.384 . S
N521 C513 1.427 . S
N521 C519 1.384 . S
H522 C528 0.930 . S
H523 C532 0.930 . S
H524 C537 0.929 . S
H525 C535 0.929 . S
H526 C530 0.929 . S
H527 C536 0.929 1_556 S
C528 H522 0.930 . S
C528 C529 1.367 . S
C528 C536 1.378 . S
C529 C528 1.367 . S
C529 C537 1.433 . S
C530 H526 0.929 . S
C530 C532 1.378 1_554 S
C530 C534 1.350 . S
C531 C534 1.463 . S
C531 C536 1.350 . S
C531 N539 1.427 . S
C532 H523 0.930 . S
C532 C530 1.378 1_556 S
C532 C533 1.367 . S
C533 C532 1.367 . S
C533 C535 1.433 . S
C534 C530 1.350 . S
C534 C531 1.463 . S
C534 N538 1.427 1_554 S
C535 H525 0.929 . S
C535 C533 1.433 . S
C535 N538 1.384 . S
C536 H527 0.929 1_554 S
C536 C528 1.378 . S
C536 C531 1.350 . S
C537 H524 0.929 . S
C537 C529 1.433 . S
C537 N539 1.384 . S
N538 C534 1.427 1_556 S
N538 C535 1.384 . S
N539 C531 1.427 . S
N539 C537 1.384 . S
H540 C546 0.930 . S
H541 C550 0.930 . S
H542 C555 0.929 . S
H543 C553 0.915 1_455 S
H544 C548 0.929 . S
H545 C554 0.929 . S
C546 H540 0.930 . S
C546 C547 1.367 . S
C546 C554 1.378 . S
C547 C546 1.367 . S
C547 C555 1.433 . S
C548 H544 0.929 . S
C548 C550 1.378 . S
C548 C552 1.350 . S
C549 C552 1.463 . S
C549 C554 1.350 . S
C549 N557 1.427 . S
C550 H541 0.930 . S
C550 C548 1.378 . S
C550 C551 1.367 . S
C551 C550 1.367 . S
C551 C553 1.445 . S
C552 C548 1.350 . S
C552 C549 1.463 . S
C552 N556 1.427 . S
C553 H543 0.915 1_655 S
C553 C551 1.445 . S
C553 N556 1.390 . S
C554 H545 0.929 . S
C554 C546 1.378 . S
C554 C549 1.350 . S
C555 H542 0.929 . S
C555 C547 1.433 . S
C555 N557 1.384 . S
N556 C552 1.427 . S
N556 C553 1.390 . S
N557 C549 1.427 . S
N557 C555 1.384 . S
H558 C564 0.930 1_545 S
H559 C568 0.930 . S
H560 C573 0.929 . S
H561 C571 0.929 . S
H562 C566 0.929 . S
H563 C572 0.929 1_545 S
C564 H558 0.930 1_565 S
C564 C565 1.367 . S
C564 C572 1.378 . S
C565 C564 1.367 . S
C565 C573 1.433 . S
C566 H562 0.929 . S
C566 C568 1.378 . S
C566 C570 1.350 . S
C567 C570 1.463 . S
C567 C572 1.350 . S
C567 N575 1.427 . S
C568 H559 0.930 . S
C568 C566 1.378 . S
C568 C569 1.367 . S
C569 C568 1.367 . S
C569 C571 1.433 1_565 S
C570 C566 1.350 . S
C570 C567 1.463 . S
C570 N574 1.427 1_565 S
C571 H561 0.929 . S
C571 C569 1.433 1_545 S
C571 N574 1.384 . S
C572 H563 0.929 1_565 S
C572 C564 1.378 . S
C572 C567 1.350 . S
C573 H560 0.929 . S
C573 C565 1.433 . S
C573 N575 1.384 . S
N574 C570 1.427 1_545 S
N574 C571 1.384 . S
N575 C567 1.427 . S
N575 C573 1.384 . S
H576 C582 0.930 . S
H577 C586 0.930 . S
H578 C591 0.929 . S
H579 C589 0.929 . S
H580 C584 0.929 . S
H581 C590 0.929 . S
C582 H576 0.930 . S
C582 C583 1.367 . S
C582 C590 1.378 . S
C583 C582 1.367 . S
C583 C591 1.433 . S
C584 H580 0.929 . S
C584 C586 1.378 . S
C584 C588 1.350 . S
C585 C588 1.463 . S
C585 C590 1.350 . S
C585 N593 1.427 . S
C586 H577 0.930 . S
C586 C584 1.378 . S
C586 C587 1.367 . S
C587 C586 1.367 . S
C587 C589 1.433 . S
C588 C584 1.350 . S
C588 C585 1.463 . S
C588 N592 1.427 . S
C589 H579 0.929 . S
C589 C587 1.433 . S
C589 N592 1.384 . S
C590 H581 0.929 . S
C590 C582 1.378 . S
C590 C585 1.350 . S
C591 H578 0.929 . S
C591 C583 1.433 . S
C591 N593 1.384 . S
N592 C588 1.427 . S
N592 C589 1.384 . S
N593 C585 1.427 . S
N593 C591 1.384 . S
H594 C600 0.930 . S
H595 C604 0.930 . S
H596 C609 0.929 . S
H597 C607 0.929 . S
H598 C602 0.929 . S
H599 C608 0.929 . S
C600 H594 0.930 . S
C600 C601 1.367 . S
C600 C608 1.378 . S
C601 C600 1.367 . S
C601 C609 1.433 . S
C602 H598 0.929 . S
C602 C604 1.378 . S
C602 C606 1.350 . S
C603 C606 1.463 . S
C603 C608 1.350 . S
C603 N611 1.427 . S
C604 H595 0.930 . S
C604 C602 1.378 . S
C604 C605 1.367 . S
C605 C604 1.367 . S
C605 C607 1.433 . S
C606 C602 1.350 . S
C606 C603 1.463 . S
C606 N610 1.427 . S
C607 H597 0.929 . S
C607 C605 1.433 . S
C607 N610 1.384 . S
C608 H599 0.929 . S
C608 C600 1.378 . S
C608 C603 1.350 . S
C609 H596 0.929 . S
C609 C601 1.433 . S
C609 N611 1.384 . S
N610 C606 1.427 . S
N610 C607 1.384 . S
N611 C603 1.427 . S
N611 C609 1.384 . S
C187 C76 1.564 . S
C191 C111 1.430 . S
C209 C135 1.440 . S
C205 C88 1.558 . S
C227 C156 1.440 . S
C223 C52 1.557 . S
C245 C174 1.440 . S
C241 C64 1.556 . S
C263 C114 1.388 . S
C259 C28 1.495 . S
C277 C40 1.491 . S
C281 C132 1.341 . S
C295 C4 1.497 . S
C299 C153 1.345 . S
C313 C16 1.489 . S
C317 C177 1.364 . S
C335 C112 0.638 . S
C331 C69 0.635 . S
C353 C130 0.643 . S
C349 C81 0.655 . S
C371 C151 0.662 . S
C367 C93 0.661 . S
C385 C57 0.636 . S
C389 C175 0.631 . S
C403 C21 0.747 . S
C407 C110 0.733 . S
C425 C134 0.736 . S
C421 C33 0.751 . S
C443 C155 0.737 . S
C439 C45 0.726 . S
C457 C9 0.746 . S
C461 C173 0.732 . S
C475 C66 1.596 . S
C479 C113 1.560 . S
C493 C78 1.608 . S
C497 C131 1.559 . S
C515 C152 1.559 . S
C511 C90 1.608 . S
C533 C176 1.564 . S
C529 C54 1.606 . S
C547 C18 1.461 . S
C551 C109 1.429 1_655 S
C569 C133 1.431 1_565 S
C565 C30 1.458 . S
C587 C154 1.431 . S
C583 C42 1.454 . S
C601 C6 1.461 . S
C605 C172 1.430 . S
